# Generated by pormake.
# Topology uow, (4)-cn, num edge types: 1
# Building blocks:
#     Node 0, Type 0, BuildingBlock: ESEHIV_clean_sbu_0, # of connection points: 4
#     Node 1, Type 0, BuildingBlock: ESEHIV_clean_sbu_0, # of connection points: 4
#     Node 2, Type 0, BuildingBlock: ESEHIV_clean_sbu_0, # of connection points: 4
#     Node 3, Type 0, BuildingBlock: ESEHIV_clean_sbu_0, # of connection points: 4
#     Node 4, Type 0, BuildingBlock: ESEHIV_clean_sbu_0, # of connection points: 4
#     Node 5, Type 0, BuildingBlock: ESEHIV_clean_sbu_0, # of connection points: 4
#     Node 6, Type 0, BuildingBlock: ESEHIV_clean_sbu_0, # of connection points: 4
#     Node 7, Type 0, BuildingBlock: ESEHIV_clean_sbu_0, # of connection points: 4
#     Node 8, Type 0, BuildingBlock: ESEHIV_clean_sbu_0, # of connection points: 4
#     Node 9, Type 0, BuildingBlock: ESEHIV_clean_sbu_0, # of connection points: 4
#     Node 10, Type 0, BuildingBlock: ESEHIV_clean_sbu_0, # of connection points: 4
#     Node 11, Type 0, BuildingBlock: ESEHIV_clean_sbu_0, # of connection points: 4
#     Node 12, Type 0, BuildingBlock: ESEHIV_clean_sbu_0, # of connection points: 4
#     Node 13, Type 0, BuildingBlock: ESEHIV_clean_sbu_0, # of connection points: 4
#     Node 14, Type 0, BuildingBlock: ESEHIV_clean_sbu_0, # of connection points: 4
#     Node 15, Type 0, BuildingBlock: ESEHIV_clean_sbu_0, # of connection points: 4
#     Node 16, Type 0, BuildingBlock: ESEHIV_clean_sbu_0, # of connection points: 4
#     Node 17, Type 0, BuildingBlock: ESEHIV_clean_sbu_0, # of connection points: 4
#     Node 18, Type 0, BuildingBlock: ESEHIV_clean_sbu_0, # of connection points: 4
#     Node 19, Type 0, BuildingBlock: ESEHIV_clean_sbu_0, # of connection points: 4
#     Node 20, Type 0, BuildingBlock: ESEHIV_clean_sbu_0, # of connection points: 4
#     Node 21, Type 0, BuildingBlock: ESEHIV_clean_sbu_0, # of connection points: 4
#     Node 22, Type 0, BuildingBlock: ESEHIV_clean_sbu_0, # of connection points: 4
#     Node 23, Type 0, BuildingBlock: ESEHIV_clean_sbu_0, # of connection points: 4
#     Node 24, Type 0, BuildingBlock: ESEHIV_clean_sbu_0, # of connection points: 4
#     Node 25, Type 0, BuildingBlock: ESEHIV_clean_sbu_0, # of connection points: 4
#     Node 26, Type 0, BuildingBlock: ESEHIV_clean_sbu_0, # of connection points: 4
#     Node 27, Type 0, BuildingBlock: ESEHIV_clean_sbu_0, # of connection points: 4
#     Node 28, Type 0, BuildingBlock: ESEHIV_clean_sbu_0, # of connection points: 4
#     Node 29, Type 0, BuildingBlock: ESEHIV_clean_sbu_0, # of connection points: 4
#     Node 30, Type 0, BuildingBlock: ESEHIV_clean_sbu_0, # of connection points: 4
#     Node 31, Type 0, BuildingBlock: ESEHIV_clean_sbu_0, # of connection points: 4
#     Edge 32, Type (0, 0), BuildingBlock: ZUJKAS_clean_linker_0, # of connection points: 2
#     Edge 33, Type (0, 0), BuildingBlock: ZUJKAS_clean_linker_0, # of connection points: 2
#     Edge 34, Type (0, 0), BuildingBlock: ZUJKAS_clean_linker_0, # of connection points: 2
#     Edge 35, Type (0, 0), BuildingBlock: ZUJKAS_clean_linker_0, # of connection points: 2
#     Edge 36, Type (0, 0), BuildingBlock: ZUJKAS_clean_linker_0, # of connection points: 2
#     Edge 37, Type (0, 0), BuildingBlock: ZUJKAS_clean_linker_0, # of connection points: 2
#     Edge 38, Type (0, 0), BuildingBlock: ZUJKAS_clean_linker_0, # of connection points: 2
#     Edge 39, Type (0, 0), BuildingBlock: ZUJKAS_clean_linker_0, # of connection points: 2
#     Edge 40, Type (0, 0), BuildingBlock: ZUJKAS_clean_linker_0, # of connection points: 2
#     Edge 41, Type (0, 0), BuildingBlock: ZUJKAS_clean_linker_0, # of connection points: 2
#     Edge 42, Type (0, 0), BuildingBlock: ZUJKAS_clean_linker_0, # of connection points: 2
#     Edge 43, Type (0, 0), BuildingBlock: ZUJKAS_clean_linker_0, # of connection points: 2
#     Edge 44, Type (0, 0), BuildingBlock: ZUJKAS_clean_linker_0, # of connection points: 2
#     Edge 45, Type (0, 0), BuildingBlock: ZUJKAS_clean_linker_0, # of connection points: 2
#     Edge 46, Type (0, 0), BuildingBlock: ZUJKAS_clean_linker_0, # of connection points: 2
#     Edge 47, Type (0, 0), BuildingBlock: ZUJKAS_clean_linker_0, # of connection points: 2
#     Edge 48, Type (0, 0), BuildingBlock: ZUJKAS_clean_linker_0, # of connection points: 2
#     Edge 49, Type (0, 0), BuildingBlock: ZUJKAS_clean_linker_0, # of connection points: 2
#     Edge 50, Type (0, 0), BuildingBlock: ZUJKAS_clean_linker_0, # of connection points: 2
#     Edge 51, Type (0, 0), BuildingBlock: ZUJKAS_clean_linker_0, # of connection points: 2
#     Edge 52, Type (0, 0), BuildingBlock: ZUJKAS_clean_linker_0, # of connection points: 2
#     Edge 53, Type (0, 0), BuildingBlock: ZUJKAS_clean_linker_0, # of connection points: 2
#     Edge 54, Type (0, 0), BuildingBlock: ZUJKAS_clean_linker_0, # of connection points: 2
#     Edge 55, Type (0, 0), BuildingBlock: ZUJKAS_clean_linker_0, # of connection points: 2
#     Edge 56, Type (0, 0), BuildingBlock: ZUJKAS_clean_linker_0, # of connection points: 2
#     Edge 57, Type (0, 0), BuildingBlock: ZUJKAS_clean_linker_0, # of connection points: 2
#     Edge 58, Type (0, 0), BuildingBlock: ZUJKAS_clean_linker_0, # of connection points: 2
#     Edge 59, Type (0, 0), BuildingBlock: ZUJKAS_clean_linker_0, # of connection points: 2
#     Edge 60, Type (0, 0), BuildingBlock: ZUJKAS_clean_linker_0, # of connection points: 2
#     Edge 61, Type (0, 0), BuildingBlock: ZUJKAS_clean_linker_0, # of connection points: 2
#     Edge 62, Type (0, 0), BuildingBlock: ZUJKAS_clean_linker_0, # of connection points: 2
#     Edge 63, Type (0, 0), BuildingBlock: ZUJKAS_clean_linker_0, # of connection points: 2
#     Edge 64, Type (0, 0), BuildingBlock: ZUJKAS_clean_linker_0, # of connection points: 2
#     Edge 65, Type (0, 0), BuildingBlock: ZUJKAS_clean_linker_0, # of connection points: 2
#     Edge 66, Type (0, 0), BuildingBlock: ZUJKAS_clean_linker_0, # of connection points: 2
#     Edge 67, Type (0, 0), BuildingBlock: ZUJKAS_clean_linker_0, # of connection points: 2
#     Edge 68, Type (0, 0), BuildingBlock: ZUJKAS_clean_linker_0, # of connection points: 2
#     Edge 69, Type (0, 0), BuildingBlock: ZUJKAS_clean_linker_0, # of connection points: 2
#     Edge 70, Type (0, 0), BuildingBlock: ZUJKAS_clean_linker_0, # of connection points: 2
#     Edge 71, Type (0, 0), BuildingBlock: ZUJKAS_clean_linker_0, # of connection points: 2
#     Edge 72, Type (0, 0), BuildingBlock: ZUJKAS_clean_linker_0, # of connection points: 2
#     Edge 73, Type (0, 0), BuildingBlock: ZUJKAS_clean_linker_0, # of connection points: 2
#     Edge 74, Type (0, 0), BuildingBlock: ZUJKAS_clean_linker_0, # of connection points: 2
#     Edge 75, Type (0, 0), BuildingBlock: ZUJKAS_clean_linker_0, # of connection points: 2
#     Edge 76, Type (0, 0), BuildingBlock: ZUJKAS_clean_linker_0, # of connection points: 2
#     Edge 77, Type (0, 0), BuildingBlock: ZUJKAS_clean_linker_0, # of connection points: 2
#     Edge 78, Type (0, 0), BuildingBlock: ZUJKAS_clean_linker_0, # of connection points: 2
#     Edge 79, Type (0, 0), BuildingBlock: ZUJKAS_clean_linker_0, # of connection points: 2
#     Edge 80, Type (0, 0), BuildingBlock: ZUJKAS_clean_linker_0, # of connection points: 2
#     Edge 81, Type (0, 0), BuildingBlock: ZUJKAS_clean_linker_0, # of connection points: 2
#     Edge 82, Type (0, 0), BuildingBlock: ZUJKAS_clean_linker_0, # of connection points: 2
#     Edge 83, Type (0, 0), BuildingBlock: ZUJKAS_clean_linker_0, # of connection points: 2
#     Edge 84, Type (0, 0), BuildingBlock: ZUJKAS_clean_linker_0, # of connection points: 2
#     Edge 85, Type (0, 0), BuildingBlock: ZUJKAS_clean_linker_0, # of connection points: 2
#     Edge 86, Type (0, 0), BuildingBlock: ZUJKAS_clean_linker_0, # of connection points: 2
#     Edge 87, Type (0, 0), BuildingBlock: ZUJKAS_clean_linker_0, # of connection points: 2
#     Edge 88, Type (0, 0), BuildingBlock: ZUJKAS_clean_linker_0, # of connection points: 2
#     Edge 89, Type (0, 0), BuildingBlock: ZUJKAS_clean_linker_0, # of connection points: 2
#     Edge 90, Type (0, 0), BuildingBlock: ZUJKAS_clean_linker_0, # of connection points: 2
#     Edge 91, Type (0, 0), BuildingBlock: ZUJKAS_clean_linker_0, # of connection points: 2
#     Edge 92, Type (0, 0), BuildingBlock: ZUJKAS_clean_linker_0, # of connection points: 2
#     Edge 93, Type (0, 0), BuildingBlock: ZUJKAS_clean_linker_0, # of connection points: 2
#     Edge 94, Type (0, 0), BuildingBlock: ZUJKAS_clean_linker_0, # of connection points: 2
#     Edge 95, Type (0, 0), BuildingBlock: ZUJKAS_clean_linker_0, # of connection points: 2
# Relax obj value: 0.058
# Max RMSD: 0.239
# Mean RMSD: 0.222
data_MOF--net-uow--node1-ESEHIV_clean_sbu_0--edge1-ZUJKAS_clean_linker_0
_symmetry_space_group_name_H-M    P1
_symmetry_Int_Tables_number       1
_symmetry_cell_setting            triclinic
loop_
_symmetry_equiv_pos_as_xyz
'x, y, z'
_cell_length_a     80.711852
_cell_length_b     86.596627
_cell_length_c     62.20338
_cell_angle_alpha  89.954642
_cell_angle_beta   89.96945
_cell_angle_gamma 90.001794
loop_
_atom_site_label
_atom_site_type_symbol
_atom_site_fract_x
_atom_site_fract_y
_atom_site_fract_z
_atom_type_partial_charge
Cu0 Cu 0.09282 0.38724 0.30713 0.0
N1 N 0.10581 0.37441 0.32447 0.0
N2 N 0.11334 0.35578 0.34749 0.0
C3 C 0.10059 0.36297 0.33755 0.0
C4 C 0.1271 0.36307 0.34036 0.0
C5 C 0.12241 0.37452 0.3262 0.0
O6 O 0.06996 0.38473 0.31598 0.0
C7 C 0.08701 0.38555 0.26196 0.0
O8 O 0.0736 0.39359 0.26625 0.0
H9 H 0.0877 0.35983 0.33943 0.0
H10 H 0.13051 0.38239 0.31772 0.0
N11 N 0.09891 0.40782 0.31169 0.0
N12 N 0.10143 0.43344 0.3082 0.0
C13 C 0.09612 0.42018 0.29899 0.0
C14 C 0.10627 0.41341 0.32944 0.0
C15 C 0.10786 0.42917 0.32734 0.0
C16 C 0.06169 0.37246 0.31269 0.0
O17 O 0.06833 0.36131 0.30124 0.0
H18 H 0.08991 0.41952 0.2836 0.0
H19 H 0.11002 0.40651 0.34309 0.0
O20 O 0.09656 0.38163 0.27728 0.0
H21 H 0.13967 0.36046 0.34513 0.0
H22 H 0.11337 0.43687 0.33902 0.0
Cu23 Cu 0.88154 0.8228 0.54054 0.0
N24 N 0.89464 0.82636 0.51628 0.0
N25 N 0.90441 0.83366 0.48417 0.0
C26 C 0.89088 0.83259 0.49699 0.0
C27 C 0.91701 0.82776 0.49583 0.0
C28 C 0.91095 0.82329 0.51553 0.0
O29 O 0.8584 0.82809 0.5358 0.0
C30 C 0.88788 0.83132 0.584 0.0
O31 O 0.87551 0.822 0.58852 0.0
H32 H 0.87861 0.83653 0.49262 0.0
H33 H 0.91797 0.81822 0.52857 0.0
N34 N 0.88216 0.80173 0.54665 0.0
N35 N 0.88768 0.77914 0.5625 0.0
C36 C 0.89155 0.7943 0.56128 0.0
C37 C 0.87216 0.79092 0.53817 0.0
C38 C 0.87551 0.77698 0.54791 0.0
C39 C 0.85262 0.84108 0.52988 0.0
O40 O 0.86277 0.85274 0.52679 0.0
H41 H 0.90059 0.80001 0.57137 0.0
H42 H 0.86284 0.79312 0.52606 0.0
O43 O 0.89159 0.83382 0.56442 0.0
H44 H 0.92971 0.82662 0.49047 0.0
H45 H 0.86938 0.76612 0.5446 0.0
Cu46 Cu 0.4308 0.6349 0.80631 0.0
N47 N 0.41705 0.64731 0.82323 0.0
N48 N 0.40834 0.66604 0.84535 0.0
C49 C 0.4215 0.65949 0.83541 0.0
C50 C 0.39514 0.65756 0.83912 0.0
C51 C 0.40054 0.64606 0.8255 0.0
O52 O 0.45333 0.63755 0.81644 0.0
C53 C 0.43787 0.63718 0.76143 0.0
O54 O 0.45083 0.62857 0.7659 0.0
H55 H 0.43411 0.66361 0.83663 0.0
H56 H 0.39298 0.63738 0.81776 0.0
N57 N 0.42481 0.61418 0.8099 0.0
N58 N 0.4224 0.58863 0.80531 0.0
C59 C 0.42798 0.60208 0.79688 0.0
C60 C 0.41697 0.60821 0.82708 0.0
C61 C 0.41543 0.59251 0.8243 0.0
C62 C 0.46169 0.64977 0.81312 0.0
O63 O 0.45538 0.66074 0.80102 0.0
H64 H 0.43458 0.60309 0.78182 0.0
H65 H 0.41281 0.61482 0.8408 0.0
O66 O 0.42808 0.64109 0.77651 0.0
H67 H 0.38245 0.65938 0.84416 0.0
H68 H 0.40954 0.5846 0.8354 0.0
Cu69 Cu 0.64557 0.19628 0.04103 0.0
N70 N 0.63152 0.19096 0.01836 0.0
N71 N 0.62118 0.18293 0.98692 0.0
C72 C 0.63507 0.18524 0.99871 0.0
C73 C 0.60854 0.18747 0.99966 0.0
C74 C 0.61495 0.19242 0.01893 0.0
O75 O 0.66867 0.19182 0.0342 0.0
C76 C 0.6296 0.1739 0.06748 0.0
O77 O 0.62866 0.16585 0.04963 0.0
H78 H 0.64752 0.1827 0.9933 0.0
H79 H 0.60803 0.19684 0.03249 0.0
N80 N 0.64384 0.21753 0.04496 0.0
N81 N 0.63735 0.24051 0.05899 0.0
C82 C 0.63608 0.22501 0.06105 0.0
C83 C 0.65017 0.2286 0.03222 0.0
C84 C 0.64621 0.24279 0.04083 0.0
C85 C 0.6764 0.17931 0.0381 0.0
O86 O 0.66853 0.16783 0.0474 0.0
H87 H 0.62987 0.21916 0.07415 0.0
H88 H 0.65716 0.22647 0.01768 0.0
O89 O 0.63748 0.18665 0.06739 0.0
H90 H 0.59557 0.1875 0.99524 0.0
H91 H 0.64944 0.2539 0.03406 0.0
Cu92 Cu 0.09467 0.63472 0.22708 0.0
N93 N 0.10816 0.64748 0.21037 0.0
N94 N 0.11632 0.66547 0.18685 0.0
C95 C 0.10356 0.65678 0.19403 0.0
C96 C 0.12943 0.66143 0.19909 0.0
C97 C 0.12436 0.65031 0.21354 0.0
O98 O 0.0719 0.63801 0.21795 0.0
C99 C 0.08748 0.63885 0.27177 0.0
O100 O 0.07278 0.63329 0.26705 0.0
H101 H 0.09098 0.65763 0.18812 0.0
H102 H 0.13184 0.64492 0.22586 0.0
N103 N 0.10081 0.61409 0.22301 0.0
N104 N 0.10315 0.58848 0.2269 0.0
C105 C 0.09654 0.60166 0.23486 0.0
C106 C 0.11049 0.60864 0.20714 0.0
C107 C 0.11193 0.59288 0.20946 0.0
C108 C 0.06736 0.63249 0.19993 0.0
O109 O 0.07795 0.6242 0.1888 0.0
H110 H 0.08859 0.60227 0.24885 0.0
H111 H 0.11609 0.61566 0.19472 0.0
O112 O 0.09822 0.64032 0.25695 0.0
H113 H 0.14176 0.66627 0.19781 0.0
H114 H 0.11912 0.5853 0.19925 0.0
Cu115 Cu 0.64687 0.8277 0.4835 0.0
N116 N 0.63378 0.82662 0.50819 0.0
N117 N 0.62268 0.83109 0.54054 0.0
C118 C 0.63509 0.83458 0.52674 0.0
C119 C 0.61332 0.82049 0.53025 0.0
C120 C 0.62019 0.81778 0.51036 0.0
O121 O 0.66828 0.83692 0.49046 0.0
C122 C 0.63537 0.8364 0.44165 0.0
O123 O 0.64671 0.82677 0.43462 0.0
H124 H 0.64471 0.84301 0.52981 0.0
H125 H 0.61553 0.81 0.49819 0.0
N126 N 0.65065 0.80757 0.47394 0.0
N127 N 0.6476 0.78484 0.45738 0.0
C128 C 0.64043 0.79848 0.46241 0.0
C129 C 0.66464 0.79937 0.47656 0.0
C130 C 0.66282 0.78537 0.46635 0.0
C131 C 0.67942 0.8389 0.47621 0.0
O132 O 0.67587 0.83589 0.45605 0.0
H133 H 0.62821 0.80204 0.45722 0.0
H134 H 0.67549 0.80339 0.48509 0.0
O135 O 0.63422 0.83897 0.46177 0.0
H136 H 0.60234 0.815 0.53667 0.0
H137 H 0.67203 0.7763 0.46561 0.0
Cu138 Cu 0.43093 0.38834 0.72138 0.0
N139 N 0.41685 0.37628 0.70451 0.0
N140 N 0.40772 0.35893 0.68069 0.0
C141 C 0.42088 0.36713 0.68777 0.0
C142 C 0.39493 0.36323 0.69335 0.0
C143 C 0.40061 0.37393 0.70798 0.0
O144 O 0.45359 0.38391 0.71302 0.0
C145 C 0.43657 0.38502 0.76663 0.0
O146 O 0.45145 0.39048 0.76265 0.0
H147 H 0.43332 0.36603 0.68148 0.0
H148 H 0.3935 0.37935 0.72065 0.0
N149 N 0.42648 0.40918 0.71623 0.0
N150 N 0.42482 0.43486 0.7197 0.0
C151 C 0.42936 0.4214 0.72911 0.0
C152 C 0.41987 0.41504 0.69815 0.0
C153 C 0.41882 0.43083 0.70022 0.0
C154 C 0.45951 0.3703 0.71382 0.0
O155 O 0.4505 0.35919 0.72222 0.0
H156 H 0.43492 0.42044 0.74489 0.0
H157 H 0.41609 0.40825 0.6844 0.0
O158 O 0.42638 0.38336 0.75123 0.0
H159 H 0.3824 0.35885 0.69227 0.0
H160 H 0.41382 0.4387 0.68837 0.0
Cu161 Cu 0.88202 0.1922 0.98141 0.0
N162 N 0.89504 0.18478 1.00403 0.0
N163 N 0.90452 0.17667 0.03592 0.0
C164 C 0.89109 0.18139 0.0246 0.0
C165 C 0.91729 0.17729 0.02192 0.0
C166 C 0.91143 0.18231 1.00241 0.0
O167 O 0.8584 0.18834 0.98548 0.0
C168 C 0.89603 0.17022 0.95221 0.0
O169 O 0.89364 0.16014 0.96771 0.0
H170 H 0.87868 0.18233 0.03105 0.0
H171 H 0.91865 0.18421 0.98799 0.0
N172 N 0.88494 0.21348 0.97979 0.0
N173 N 0.89242 0.23663 0.96723 0.0
C174 C 0.8933 0.22119 0.96444 0.0
C175 C 0.8786 0.22435 0.99283 0.0
C176 C 0.88316 0.23867 0.9851 0.0
C177 C 0.8519 0.17597 0.99265 0.0
O178 O 0.86145 0.16416 0.99735 0.0
H179 H 0.89948 0.21557 0.95112 0.0
H180 H 0.871 0.22201 1.00679 0.0
O181 O 0.89079 0.18397 0.95458 0.0
H182 H 0.93009 0.17468 0.0256 0.0
H183 H 0.8799 0.24971 0.99208 0.0
Cu184 Cu 0.97824 0.6375 0.74077 0.0
N185 N 0.96045 0.64487 0.72474 0.0
N186 N 0.94508 0.66011 0.70364 0.0
C187 C 0.95947 0.65856 0.71458 0.0
C188 C 0.93676 0.6468 0.70718 0.0
C189 C 0.94627 0.63744 0.72017 0.0
O190 O 0.99791 0.64818 0.73062 0.0
C191 C 0.97327 0.65514 0.77787 0.0
O192 O 0.97668 0.6664 0.7644 0.0
H193 H 0.96915 0.66719 0.71528 0.0
H194 H 0.94321 0.62593 0.72564 0.0
N195 N 0.98101 0.61654 0.73465 0.0
N196 N 0.98224 0.59076 0.73614 0.0
C197 C 0.9779 0.60385 0.74663 0.0
C198 C 0.98733 0.61128 0.71605 0.0
C199 C 0.98814 0.59544 0.71691 0.0
C200 C 1.01246 0.64304 0.73394 0.0
O201 O 0.01443 0.63094 0.74644 0.0
H202 H 0.97286 0.60424 0.76275 0.0
H203 H 0.99117 0.61854 0.7028 0.0
O204 O 0.97379 0.64128 0.77108 0.0
H205 H 0.92481 0.64382 0.70048 0.0
H206 H 0.99254 0.58795 0.70422 0.0
Cu207 Cu 0.12604 0.19329 0.49762 0.0
N208 N 0.11135 0.17978 0.48397 0.0
N209 N 0.09193 0.16952 0.46264 0.0
C210 C 0.10072 0.18236 0.4676 0.0
C211 C 0.09739 0.15853 0.4763 0.0
C212 C 0.10927 0.16487 0.48938 0.0
O213 O 0.12462 0.21368 0.48466 0.0
C214 C 0.12467 0.18223 0.54021 0.0
O215 O 0.13459 0.17162 0.53232 0.0
H216 H 0.09929 0.19343 0.45977 0.0
H217 H 0.11602 0.15898 0.50194 0.0
N218 N 0.1476 0.18594 0.49322 0.0
N219 N 0.17523 0.18365 0.49264 0.0
C220 C 0.16212 0.19155 0.50064 0.0
C221 C 0.15168 0.17412 0.48023 0.0
C222 C 0.16863 0.17266 0.47987 0.0
C223 C 0.11153 0.22185 0.48413 0.0
O224 O 0.09803 0.21672 0.49354 0.0
H225 H 0.16305 0.20144 0.51119 0.0
H226 H 0.14291 0.16718 0.47134 0.0
O227 O 0.12017 0.19336 0.52812 0.0
H228 H 0.09326 0.14664 0.4767 0.0
H229 H 0.17556 0.1641 0.47092 0.0
Cu230 Cu 0.54877 0.38505 0.23553 0.0
N231 N 0.56646 0.37566 0.22145 0.0
N232 N 0.58138 0.35978 0.20077 0.0
C233 C 0.56614 0.36321 0.20847 0.0
C234 C 0.5916 0.37048 0.20935 0.0
C235 C 0.58236 0.38023 0.22208 0.0
O236 O 0.52837 0.37584 0.225 0.0
C237 C 0.5512 0.36857 0.27418 0.0
O238 O 0.54687 0.35708 0.26159 0.0
H239 H 0.55492 0.357 0.2045 0.0
H240 H 0.58688 0.39 0.23118 0.0
N241 N 0.54874 0.40591 0.22784 0.0
N242 N 0.54996 0.43173 0.22778 0.0
C243 C 0.55062 0.41874 0.23991 0.0
C244 C 0.54678 0.41094 0.20756 0.0
C245 C 0.54751 0.42679 0.20745 0.0
C246 C 0.51437 0.38239 0.22741 0.0
O247 O 0.51348 0.39508 0.23892 0.0
H248 H 0.55262 0.41852 0.25711 0.0
H249 H 0.54488 0.40351 0.1938 0.0
O250 O 0.55203 0.38212 0.26627 0.0
H251 H 0.60485 0.37113 0.20683 0.0
H252 H 0.54606 0.4341 0.19346 0.0
Cu253 Cu 0.39525 0.83021 0.99401 0.0
N254 N 0.40998 0.84357 0.98019 0.0
N255 N 0.42754 0.85446 0.95691 0.0
C256 C 0.4184 0.84182 0.96161 0.0
C257 C 0.42475 0.86447 0.97313 0.0
C258 C 0.41396 0.85773 0.98742 0.0
O259 O 0.39621 0.80959 0.98141 0.0
C260 C 0.41561 0.83052 0.03095 0.0
O261 O 0.42743 0.82916 0.01656 0.0
H262 H 0.41766 0.83161 0.95163 0.0
H263 H 0.40927 0.86276 1.00212 0.0
N264 N 0.3739 0.83806 0.9897 0.0
N265 N 0.34632 0.84057 0.98787 0.0
C266 C 0.35911 0.83168 0.99464 0.0
C267 C 0.37033 0.85138 0.97959 0.0
C268 C 0.35341 0.85297 0.97846 0.0
C269 C 0.40956 0.80227 0.9775 0.0
O270 O 0.42382 0.80843 0.98292 0.0
H271 H 0.35778 0.82063 1.00259 0.0
H272 H 0.37942 0.85935 0.97326 0.0
O273 O 0.40056 0.83054 0.0247 0.0
H274 H 0.43035 0.87577 0.97475 0.0
H275 H 0.34684 0.86262 0.9714 0.0
Cu276 Cu 0.9696 0.38465 0.78616 0.0
N277 N 0.95351 0.37209 0.79883 0.0
N278 N 0.9408 0.35393 0.81839 0.0
C279 C 0.95549 0.36028 0.81271 0.0
C280 C 0.92923 0.36211 0.80758 0.0
C281 C 0.93711 0.37324 0.79555 0.0
O282 O 0.99114 0.38013 0.79893 0.0
C283 C 0.96971 0.36682 0.74854 0.0
O284 O 0.9727 0.3557 0.76238 0.0
H285 H 0.96746 0.35633 0.81829 0.0
H286 H 0.93129 0.3817 0.78521 0.0
N287 N 0.96392 0.4052 0.79183 0.0
N288 N 0.96188 0.43098 0.79071 0.0
C289 C 0.96858 0.41823 0.78155 0.0
C290 C 0.95403 0.40985 0.80797 0.0
C291 C 0.95276 0.42567 0.80735 0.0
C292 C 0.99279 0.38222 0.81909 0.0
O293 O 0.98005 0.38738 0.8301 0.0
H294 H 0.97659 0.4183 0.7676 0.0
H295 H 0.94827 0.40224 0.81955 0.0
O296 O 0.96882 0.38066 0.75537 0.0
H297 H 0.91598 0.36039 0.80857 0.0
H298 H 0.94588 0.4327 0.81862 0.0
Cu299 Cu 0.39821 0.1975 0.53332 0.0
N300 N 0.41126 0.18266 0.54686 0.0
N301 N 0.42976 0.17132 0.56848 0.0
C302 C 0.42237 0.18473 0.56276 0.0
C303 C 0.42297 0.16047 0.55559 0.0
C304 C 0.41159 0.16751 0.54232 0.0
O305 O 0.40458 0.21757 0.5444 0.0
C306 C 0.41618 0.19805 0.49491 0.0
O307 O 0.42768 0.20343 0.50784 0.0
H308 H 0.42488 0.19585 0.56999 0.0
H309 H 0.40417 0.16201 0.53003 0.0
N310 N 0.37619 0.19387 0.5411 0.0
N311 N 0.34857 0.19151 0.54166 0.0
C312 C 0.36208 0.19483 0.52954 0.0
C313 C 0.37147 0.18993 0.56108 0.0
C314 C 0.35453 0.18846 0.5615 0.0
C315 C 0.39879 0.23025 0.53735 0.0
O316 O 0.38875 0.2301 0.52074 0.0
H317 H 0.36176 0.1978 0.51264 0.0
H318 H 0.37984 0.18838 0.57448 0.0
O319 O 0.4018 0.19538 0.50252 0.0
H320 H 0.42623 0.14836 0.55535 0.0
H321 H 0.34718 0.18567 0.57552 0.0
Cu322 Cu 0.55674 0.63742 0.2879 0.0
N323 N 0.57473 0.64679 0.3014 0.0
N324 N 0.58987 0.66308 0.32116 0.0
C325 C 0.57477 0.66002 0.31276 0.0
C326 C 0.59963 0.65126 0.31478 0.0
C327 C 0.59025 0.64124 0.30265 0.0
O328 O 0.53679 0.64563 0.30122 0.0
C329 C 0.56971 0.63701 0.24576 0.0
O330 O 0.58033 0.62734 0.25439 0.0
H331 H 0.56391 0.6672 0.3148 0.0
H332 H 0.59436 0.6305 0.29558 0.0
N333 N 0.55781 0.61626 0.29381 0.0
N334 N 0.55664 0.59046 0.29242 0.0
C335 C 0.55526 0.60381 0.28118 0.0
C336 C 0.56094 0.6106 0.31352 0.0
C337 C 0.56025 0.59476 0.31274 0.0
C338 C 0.52288 0.63873 0.30046 0.0
O339 O 0.52146 0.62612 0.28887 0.0
H340 H 0.55215 0.60454 0.26429 0.0
H341 H 0.56346 0.61759 0.32754 0.0
O342 O 0.55792 0.64222 0.25729 0.0
H343 H 0.61251 0.64968 0.31903 0.0
H344 H 0.56241 0.58701 0.3261 0.0
Cu345 Cu 0.12335 0.82369 0.0323 0.0
N346 N 0.1136 0.83798 0.05076 0.0
N347 N 0.0969 0.84866 0.07526 0.0
C348 C 0.10074 0.83571 0.0642 0.0
C349 C 0.10784 0.85943 0.06848 0.0
C350 C 0.11812 0.85279 0.0534 0.0
O351 O 0.11551 0.80347 0.04125 0.0
C352 C 0.12101 0.82331 0.98556 0.0
O353 O 0.13138 0.81163 0.98568 0.0
H354 H 0.09421 0.82484 0.06556 0.0
H355 H 0.12823 0.85834 0.04498 0.0
N356 N 0.14616 0.82445 0.03737 0.0
N357 N 0.17376 0.82644 0.03557 0.0
C358 C 0.15936 0.82661 0.02434 0.0
C359 C 0.15243 0.82276 0.05723 0.0
C360 C 0.16936 0.82398 0.05621 0.0
C361 C 0.12321 0.79103 0.03698 0.0
O362 O 0.136 0.79146 0.02393 0.0
H363 H 0.15844 0.82847 1.00718 0.0
H364 H 0.1451 0.82075 0.07152 0.0
O365 O 0.11671 0.82949 1.00326 0.0
H366 H 0.10853 0.87121 0.07418 0.0
H367 H 0.17779 0.82291 0.06965 0.0
Cu368 Cu 0.59192 0.88704 0.79962 0.0
N369 N 0.60645 0.87561 0.81666 0.0
N370 N 0.61593 0.85861 0.84083 0.0
C371 C 0.60246 0.86423 0.83052 0.0
C372 C 0.62885 0.86682 0.83307 0.0
C373 C 0.62297 0.87728 0.81818 0.0
O374 O 0.5697 0.88099 0.80823 0.0
C375 C 0.58533 0.88138 0.75526 0.0
O376 O 0.56978 0.88365 0.76064 0.0
H377 H 0.58988 0.86037 0.83324 0.0
H378 H 0.63019 0.88557 0.80915 0.0
N379 N 0.59538 0.90801 0.80521 0.0
N380 N 0.59797 0.93362 0.80166 0.0
C381 C 0.59472 0.92011 0.79156 0.0
C382 C 0.59911 0.91403 0.82451 0.0
C383 C 0.60074 0.92978 0.8224 0.0
C384 C 0.55759 0.89031 0.80988 0.0
O385 O 0.55952 0.90475 0.80389 0.0
H386 H 0.59206 0.91899 0.77458 0.0
H387 H 0.6005 0.90739 0.83913 0.0
O388 O 0.59651 0.88244 0.7696 0.0
H389 H 0.64169 0.8653 0.83761 0.0
H390 H 0.60348 0.9378 0.83525 0.0
Cu391 Cu 0.37954 0.32567 0.03866 0.0
N392 N 0.39242 0.32821 0.01398 0.0
N393 N 0.40193 0.33344 0.98098 0.0
C394 C 0.38868 0.33389 0.99436 0.0
C395 C 0.41435 0.32732 0.99274 0.0
C396 C 0.40846 0.32413 1.01297 0.0
O397 O 0.35617 0.33019 0.03387 0.0
C398 C 0.38619 0.33599 0.08118 0.0
O399 O 0.37425 0.32643 0.0866 0.0
H400 H 0.37651 0.33805 0.98991 0.0
H401 H 0.41539 0.31918 0.02617 0.0
N402 N 0.381 0.30497 0.04662 0.0
N403 N 0.38898 0.28313 0.06274 0.0
C404 C 0.39168 0.29846 0.06058 0.0
C405 C 0.37128 0.29343 0.03962 0.0
C406 C 0.37615 0.27994 0.04952 0.0
C407 C 0.35006 0.34289 0.02729 0.0
O408 O 0.35996 0.35459 0.02331 0.0
H409 H 0.40122 0.30486 0.06892 0.0
H410 H 0.36122 0.29479 0.02829 0.0
O411 O 0.38952 0.33796 0.06136 0.0
H412 H 0.42692 0.32549 0.98724 0.0
H413 H 0.37038 0.26876 0.04755 0.0
Cu414 Cu 0.92693 0.13541 0.30211 0.0
N415 N 0.91281 0.14746 0.31897 0.0
N416 N 0.90369 0.16486 0.34276 0.0
C417 C 0.91708 0.1586 0.33303 0.0
C418 C 0.89052 0.15735 0.33438 0.0
C419 C 0.89619 0.14668 0.3197 0.0
O420 O 0.94951 0.1395 0.31144 0.0
C421 C 0.93338 0.1375 0.25716 0.0
O422 O 0.94692 0.12977 0.26179 0.0
H423 H 0.92978 0.16188 0.33626 0.0
H424 H 0.88874 0.13884 0.31022 0.0
N425 N 0.92172 0.11453 0.3063 0.0
N426 N 0.92018 0.08883 0.30281 0.0
C427 C 0.92588 0.10219 0.29421 0.0
C428 C 0.91304 0.1088 0.32296 0.0
C429 C 0.91208 0.09301 0.32089 0.0
C430 C 0.95372 0.13502 0.33015 0.0
O431 O 0.94292 0.12736 0.34182 0.0
H432 H 0.93316 0.10296 0.27964 0.0
H433 H 0.90785 0.11565 0.33584 0.0
O434 O 0.92343 0.14107 0.27222 0.0
H435 H 0.87767 0.15955 0.33832 0.0
H436 H 0.90573 0.08524 0.33175 0.0
Cu437 Cu 0.14622 0.70029 0.54151 0.0
N438 N 0.13216 0.69826 0.51788 0.0
N439 N 0.12105 0.69163 0.48626 0.0
C440 C 0.13465 0.69097 0.49898 0.0
C441 C 0.10972 0.6997 0.49762 0.0
C442 C 0.1166 0.70375 0.51704 0.0
O443 O 0.16827 0.69247 0.53444 0.0
C444 C 0.13781 0.69281 0.58522 0.0
O445 O 0.14869 0.70342 0.59052 0.0
H446 H 0.14603 0.68507 0.49486 0.0
H447 H 0.11067 0.7102 0.52978 0.0
N448 N 0.14788 0.7213 0.54786 0.0
N449 N 0.14307 0.74465 0.562 0.0
C450 C 0.13815 0.72973 0.56099 0.0
C451 C 0.1592 0.73119 0.54004 0.0
C452 C 0.15629 0.74557 0.5487 0.0
C453 C 0.18019 0.69352 0.54777 0.0
O454 O 0.17729 0.69919 0.56696 0.0
H455 H 0.1279 0.72485 0.56989 0.0
H456 H 0.16891 0.72812 0.52884 0.0
O457 O 0.1357 0.68947 0.56547 0.0
H458 H 0.09737 0.70261 0.49221 0.0
H459 H 0.16338 0.75588 0.54527 0.0
Cu460 Cu 0.59831 0.13522 0.7234 0.0
N461 N 0.61214 0.14804 0.70721 0.0
N462 N 0.62082 0.16691 0.68537 0.0
C463 C 0.60759 0.15923 0.69334 0.0
C464 C 0.63417 0.16024 0.69459 0.0
C465 C 0.62878 0.14863 0.70803 0.0
O466 O 0.57575 0.13865 0.7136 0.0
C467 C 0.59135 0.13713 0.76843 0.0
O468 O 0.57771 0.12956 0.76376 0.0
H469 H 0.59482 0.16201 0.68972 0.0
H470 H 0.63641 0.14124 0.71796 0.0
N471 N 0.60436 0.11457 0.7191 0.0
N472 N 0.60606 0.08883 0.72196 0.0
C473 C 0.59914 0.10192 0.72981 0.0
C474 C 0.61493 0.10935 0.70406 0.0
C475 C 0.61601 0.09354 0.70577 0.0
C476 C 0.57199 0.13408 0.69478 0.0
O477 O 0.5832 0.12666 0.68347 0.0
H478 H 0.59029 0.10231 0.74286 0.0
H479 H 0.62138 0.11656 0.69258 0.0
O480 O 0.60138 0.14064 0.75343 0.0
H481 H 0.64694 0.16353 0.69185 0.0
H482 H 0.62375 0.08613 0.696 0.0
Cu483 Cu 0.14215 0.32831 0.9888 0.0
N484 N 0.12836 0.33523 1.01091 0.0
N485 N 0.11833 0.34364 0.04233 0.0
C486 C 0.13209 0.33978 0.03108 0.0
C487 C 0.10557 0.34133 0.02869 0.0
C488 C 0.11177 0.33612 1.00944 0.0
O489 O 0.16545 0.33237 0.99498 0.0
C490 C 0.12787 0.35022 0.95983 0.0
O491 O 0.12818 0.35966 0.97634 0.0
H492 H 0.1446 0.34027 0.03729 0.0
H493 H 0.10469 0.33304 0.99531 0.0
N494 N 0.13954 0.30701 0.98663 0.0
N495 N 0.13228 0.28386 0.97386 0.0
C496 C 0.13146 0.29931 0.97102 0.0
C497 C 0.14563 0.29612 0.99987 0.0
C498 C 0.1412 0.28182 0.99202 0.0
C499 C 0.17376 0.34399 0.98856 0.0
O500 O 0.16641 0.3547 0.97705 0.0
H501 H 0.12545 0.30495 0.95759 0.0
H502 H 0.15287 0.29845 0.01412 0.0
O503 O 0.13436 0.33688 0.96165 0.0
H504 H 0.09259 0.34292 0.03248 0.0
H505 H 0.14426 0.27079 0.99919 0.0
Cu506 Cu 0.92808 0.88748 0.22286 0.0
N507 N 0.91493 0.87497 0.20527 0.0
N508 N 0.90705 0.85662 0.18206 0.0
C509 C 0.91994 0.86359 0.19199 0.0
C510 C 0.89342 0.86402 0.18939 0.0
C511 C 0.89833 0.87529 0.20367 0.0
O512 O 0.951 0.88483 0.21426 0.0
C513 C 0.93411 0.88442 0.26788 0.0
O514 O 0.94818 0.89144 0.26369 0.0
H515 H 0.93277 0.86032 0.18997 0.0
H516 H 0.89036 0.88315 0.21235 0.0
N517 N 0.92229 0.90815 0.21853 0.0
N518 N 0.92021 0.93379 0.22222 0.0
C519 C 0.92558 0.92043 0.23115 0.0
C520 C 0.91457 0.91389 0.20113 0.0
C521 C 0.91325 0.92966 0.20335 0.0
C522 C 0.95888 0.87222 0.2166 0.0
O523 O 0.95176 0.86069 0.2268 0.0
H524 H 0.93213 0.91961 0.24628 0.0
H525 H 0.91035 0.90708 0.18763 0.0
O526 O 0.92408 0.88167 0.25259 0.0
H527 H 0.88079 0.86157 0.18471 0.0
H528 H 0.9075 0.93744 0.19197 0.0
Cu529 Cu 0.38445 0.69649 0.48934 0.0
N530 N 0.39733 0.69691 0.51424 0.0
N531 N 0.40804 0.69178 0.54665 0.0
C532 C 0.3963 0.68801 0.53201 0.0
C533 C 0.41665 0.7035 0.53766 0.0
C534 C 0.41004 0.7066 0.51775 0.0
O535 O 0.36253 0.68825 0.4961 0.0
C536 C 0.39467 0.68676 0.44744 0.0
O537 O 0.38306 0.69616 0.44059 0.0
H538 H 0.38727 0.67888 0.53399 0.0
H539 H 0.41417 0.71536 0.50656 0.0
N540 N 0.38203 0.71684 0.48002 0.0
N541 N 0.38678 0.73945 0.46379 0.0
C542 C 0.39237 0.72495 0.4673 0.0
C543 C 0.36956 0.72652 0.48489 0.0
C544 C 0.37244 0.74047 0.47489 0.0
C545 C 0.35059 0.68894 0.48273 0.0
O546 O 0.35343 0.69424 0.4633 0.0
H547 H 0.40379 0.7203 0.46088 0.0
H548 H 0.35906 0.72359 0.4949 0.0
O549 O 0.39657 0.68477 0.4676 0.0
H550 H 0.42686 0.70961 0.54504 0.0
H551 H 0.36438 0.75045 0.47539 0.0
Cu552 Cu 0.47334 0.13877 0.24438 0.0
N553 N 0.45732 0.1513 0.23153 0.0
N554 N 0.44434 0.16842 0.21054 0.0
C555 C 0.45905 0.16198 0.21589 0.0
C556 C 0.43304 0.16156 0.22339 0.0
C557 C 0.44106 0.15105 0.23625 0.0
O558 O 0.4949 0.1432 0.23146 0.0
C559 C 0.46108 0.13791 0.28677 0.0
O560 O 0.45067 0.12802 0.27819 0.0
H561 H 0.47077 0.16477 0.20839 0.0
H562 H 0.43538 0.14365 0.24814 0.0
N563 N 0.46748 0.11818 0.23895 0.0
N564 N 0.46523 0.0924 0.23977 0.0
C565 C 0.47261 0.105 0.24845 0.0
C566 C 0.45661 0.11377 0.22378 0.0
C567 C 0.45522 0.09797 0.2242 0.0
C568 C 0.49768 0.13863 0.21232 0.0
O569 O 0.48599 0.13107 0.2021 0.0
H570 H 0.48136 0.1047 0.26162 0.0
H571 H 0.45023 0.12155 0.21298 0.0
O572 O 0.47271 0.14336 0.27515 0.0
H573 H 0.41991 0.16406 0.22369 0.0
H574 H 0.44758 0.09113 0.21355 0.0
Cu575 Cu 0.62639 0.69992 0.99717 0.0
N576 N 0.61356 0.68535 0.98274 0.0
N577 N 0.59545 0.67448 0.96015 0.0
C578 C 0.60206 0.68784 0.96745 0.0
C579 C 0.60319 0.66321 0.97135 0.0
C580 C 0.61433 0.66995 0.98522 0.0
O581 O 0.62 0.72025 0.98678 0.0
C582 C 0.60787 0.69635 0.03472 0.0
O583 O 0.59573 0.6985 0.02096 0.0
H584 H 0.59857 0.69925 0.96196 0.0
H585 H 0.62256 0.66406 0.99623 0.0
N586 N 0.64842 0.69643 0.98924 0.0
N587 N 0.67609 0.69561 0.98773 0.0
C588 C 0.66268 0.69829 1.00028 0.0
C589 C 0.65298 0.69234 0.96925 0.0
C590 C 0.66997 0.69181 0.96826 0.0
C591 C 0.62947 0.73192 0.98865 0.0
O592 O 0.64324 0.73057 0.99974 0.0
H593 H 0.66322 0.702 0.01688 0.0
H594 H 0.64446 0.69014 0.95619 0.0
O595 O 0.62274 0.69719 0.02794 0.0
H596 H 0.60122 0.65093 0.96941 0.0
H597 H 0.67725 0.68882 0.95425 0.0
Cu598 Cu 0.04752 0.88191 0.74163 0.0
N599 N 0.06497 0.87697 0.72332 0.0
N600 N 0.08072 0.86393 0.69993 0.0
C601 C 0.06598 0.86462 0.71027 0.0
C602 C 0.08921 0.87644 0.70683 0.0
C603 C 0.07948 0.88443 0.72124 0.0
O604 O 0.02822 0.87073 0.73122 0.0
C605 C 0.04902 0.88075 0.7883 0.0
O606 O 0.0378 0.89174 0.78847 0.0
H607 H 0.05607 0.85631 0.70854 0.0
H608 H 0.08283 0.89479 0.72993 0.0
N609 N 0.043 0.90303 0.73897 0.0
N610 N 0.04202 0.92876 0.74229 0.0
C611 C 0.04844 0.91542 0.75011 0.0
C612 C 0.03309 0.90876 0.72354 0.0
C613 C 0.03241 0.92452 0.72556 0.0
C614 C 0.01345 0.87426 0.73648 0.0
O615 O 1.01104 0.88481 0.75133 0.0
H616 H 0.05681 0.91466 0.76366 0.0
H617 H 0.02689 0.90188 0.71148 0.0
O618 O 0.05411 0.87542 0.77041 0.0
H619 H 0.10175 0.87944 0.70233 0.0
H620 H 0.02564 0.93229 0.71513 0.0
Cu621 Cu 0.89686 0.32466 0.49825 0.0
N622 N 0.9106 0.33877 0.48427 0.0
N623 N 0.92907 0.34914 0.46164 0.0
C624 C 0.92146 0.33604 0.46827 0.0
C625 C 0.92264 0.36047 0.47404 0.0
C626 C 0.9113 0.35404 0.48795 0.0
O627 O 0.90105 0.30443 0.48588 0.0
C628 C 0.91685 0.32407 0.53503 0.0
O629 O 0.9282 0.32044 0.52073 0.0
H630 H 0.92377 0.32465 0.4618 0.0
H631 H 0.90391 0.36007 0.49977 0.0
N632 N 0.87494 0.33058 0.49289 0.0
N633 N 0.84745 0.33368 0.49439 0.0
C634 C 0.86083 0.32677 0.5033 0.0
C635 C 0.87028 0.3401 0.4769 0.0
C636 C 0.85339 0.34207 0.47781 0.0
C637 C 0.89154 0.29287 0.4885 0.0
O638 O 0.87868 0.29413 0.50132 0.0
H639 H 0.8604 0.31929 0.51724 0.0
H640 H 0.87863 0.34524 0.46532 0.0
O641 O 0.90192 0.32573 0.52882 0.0
H642 H 0.92563 0.37262 0.47293 0.0
H643 H 0.84602 0.34896 0.46688 0.0
Cu644 Cu 0.47074 0.88552 0.28449 0.0
N645 N 0.45439 0.8732 0.29706 0.0
N646 N 0.44049 0.85685 0.31826 0.0
C647 C 0.45512 0.86402 0.31455 0.0
C648 C 0.43025 0.86182 0.30256 0.0
C649 C 0.43883 0.87189 0.28959 0.0
O650 O 0.49236 0.88143 0.29739 0.0
C651 C 0.46807 0.86819 0.2463 0.0
O652 O 0.46818 0.85661 0.25993 0.0
H653 H 0.46607 0.8627 0.3244 0.0
H654 H 0.43415 0.87775 0.27548 0.0
N655 N 0.46523 0.90601 0.29054 0.0
N656 N 0.46363 0.93183 0.29039 0.0
C657 C 0.46998 0.91915 0.28063 0.0
C658 C 0.45567 0.9105 0.30709 0.0
C659 C 0.45465 0.92634 0.30706 0.0
C660 C 0.49834 0.86803 0.30074 0.0
O661 O 0.4901 0.85584 0.29416 0.0
H662 H 0.47787 0.91937 0.26656 0.0
H663 H 0.45 0.90274 0.31859 0.0
O664 O 0.46987 0.88189 0.25347 0.0
H665 H 0.41755 0.85817 0.30025 0.0
H666 H 0.44807 0.93326 0.31876 0.0
Cu667 Cu 0.89867 0.69448 0.02902 0.0
N668 N 0.91321 0.68074 0.04248 0.0
N669 N 0.93214 0.66988 0.06394 0.0
C670 C 0.92318 0.68274 0.05966 0.0
C671 C 0.92745 0.65947 0.04899 0.0
C672 C 0.91584 0.66619 0.03583 0.0
O673 O 0.89947 0.71477 0.04255 0.0
C674 C 0.91927 0.69431 0.99226 0.0
O675 O 0.93105 0.69478 1.0068 0.0
H676 H 0.92406 0.69344 0.06853 0.0
H677 H 0.90972 0.66088 0.02226 0.0
N678 N 0.87723 0.68672 0.03269 0.0
N679 N 0.84969 0.68368 0.03163 0.0
C680 C 0.8628 0.69212 0.02475 0.0
C681 C 0.87312 0.67456 0.04505 0.0
C682 C 0.85622 0.67264 0.04441 0.0
C683 C 0.91252 0.72276 0.04541 0.0
O684 O 0.92676 0.71761 0.03817 0.0
H685 H 0.86197 0.702 0.01413 0.0
H686 H 0.88182 0.6677 0.0542 0.0
O687 O 0.9042 0.69478 0.99839 0.0
H688 H 0.93196 0.64774 0.04769 0.0
H689 H 0.84928 0.66398 0.05314 0.0
Cu690 Cu 0.06192 0.13417 0.79079 0.0
N691 N 0.07705 0.14673 0.80525 0.0
N692 N 0.08854 0.16497 0.82586 0.0
C693 C 0.07423 0.1585 0.81894 0.0
C694 C 0.10072 0.15689 0.8161 0.0
C695 C 0.0936 0.14572 0.80341 0.0
O696 O 0.03961 0.13863 0.80126 0.0
C697 C 0.05581 0.14529 0.74756 0.0
O698 O 0.04124 0.14991 0.75446 0.0
H699 H 0.06197 0.16237 0.82344 0.0
H700 H 0.10003 0.13737 0.79353 0.0
N701 N 0.06731 0.11358 0.79692 0.0
N702 N 0.06917 0.08779 0.79599 0.0
C703 C 0.06247 0.10055 0.78684 0.0
C704 C 0.07729 0.10891 0.81297 0.0
C705 C 0.07846 0.09308 0.81245 0.0
C706 C 0.03666 0.13552 0.82093 0.0
O707 O 0.04858 0.12947 0.83258 0.0
H708 H 0.05438 0.10046 0.77297 0.0
H709 H 0.08321 0.11651 0.82441 0.0
O710 O 0.06544 0.1381 0.76029 0.0
H711 H 0.11388 0.15875 0.81817 0.0
H712 H 0.0854 0.08601 0.82362 0.0
Cu713 Cu 0.62416 0.32643 0.5249 0.0
N714 N 0.60895 0.33907 0.53919 0.0
N715 N 0.58936 0.34755 0.56173 0.0
C716 C 0.59944 0.33567 0.5564 0.0
C717 C 0.59274 0.35881 0.54737 0.0
C718 C 0.60477 0.35355 0.53353 0.0
O719 O 0.62315 0.30588 0.53762 0.0
C720 C 0.62179 0.33793 0.48269 0.0
O721 O 0.63092 0.349 0.49091 0.0
H722 H 0.59962 0.3246 0.56448 0.0
H723 H 0.61006 0.35984 0.52018 0.0
N724 N 0.64547 0.33466 0.52848 0.0
N725 N 0.67297 0.33794 0.52825 0.0
C726 C 0.66026 0.32838 0.52332 0.0
C727 C 0.64898 0.34852 0.53708 0.0
C728 C 0.66587 0.3506 0.53691 0.0
C729 C 0.62949 0.30385 0.55616 0.0
O730 O 0.6368 0.31556 0.56566 0.0
H731 H 0.66163 0.31715 0.5159 0.0
H732 H 0.63987 0.35658 0.54312 0.0
O733 O 0.61798 0.32642 0.4945 0.0
H734 H 0.587 0.3701 0.54694 0.0
H735 H 0.67243 0.36058 0.543 0.0
H736 H 0.11388 0.3692 0.24758 0.0
H737 H 0.12102 0.36274 0.21043 0.0
H738 H 0.07678 0.38565 0.18827 0.0
H739 H 0.06963 0.39235 0.22532 0.0
H740 H 0.10326 0.34551 0.18057 0.0
H741 H 0.11289 0.4053 0.15115 0.0
H742 H 0.11178 0.4006 0.1794 0.0
H743 H 0.09313 0.40233 0.16377 0.0
C744 C 0.10568 0.37292 0.23482 0.0
C745 C 0.09121 0.38137 0.23946 0.0
C746 C 0.10979 0.3692 0.21358 0.0
C747 C 0.09959 0.37393 0.19653 0.0
C748 C 0.08503 0.38218 0.20112 0.0
H749 H 0.09423 0.36143 0.0598 0.0
H750 H 0.09096 0.36853 0.0975 0.0
C751 C 0.0809 0.38591 0.22235 0.0
C752 C 0.10396 0.3699 0.17401 0.0
H753 H 0.1116 0.38557 0.12455 0.0
C754 C 0.10524 0.35425 0.16835 0.0
C755 C 0.10659 0.38134 0.1581 0.0
C756 C 0.10619 0.39834 0.1634 0.0
C757 C 0.10848 0.34972 0.14705 0.0
C758 C 0.1108 0.36116 0.13107 0.0
C759 C 0.10981 0.37681 0.13681 0.0
C760 C 0.11336 0.35714 0.10808 0.0
C761 C 0.1088 0.33273 0.14171 0.0
C762 C 0.12724 0.34862 0.10136 0.0
C763 C 0.12911 0.34443 0.07972 0.0
C764 C 0.11712 0.34872 0.06441 0.0
C765 C 0.10352 0.35766 0.07117 0.0
C766 C 0.10168 0.36183 0.09273 0.0
H767 H 0.10322 0.32561 0.15469 0.0
H768 H 0.10204 0.33043 0.1265 0.0
H769 H 0.12183 0.32897 0.13954 0.0
H770 H 0.13658 0.34511 0.11287 0.0
H771 H 0.1397 0.33753 0.07511 0.0
H772 H 0.90528 0.87134 0.28237 0.0
H773 H 0.89825 0.8639 0.3192 0.0
H774 H 0.9463 0.87919 0.3407 0.0
H775 H 0.95333 0.88694 0.304 0.0
H776 H 0.91303 0.84288 0.34563 0.0
H777 H 0.91589 0.90094 0.38274 0.0
H778 H 0.91556 0.89814 0.35399 0.0
H779 H 0.93457 0.89587 0.36877 0.0
C780 C 0.91434 0.8732 0.29494 0.0
C781 C 0.92986 0.87982 0.29022 0.0
C782 C 0.91029 0.86893 0.316 0.0
C783 C 0.92162 0.87124 0.33281 0.0
C784 C 0.93719 0.87766 0.32811 0.0
H785 H 0.93114 0.84724 0.46587 0.0
H786 H 0.9338 0.85644 0.42895 0.0
C787 C 0.94124 0.88199 0.30707 0.0
C788 C 0.91737 0.86644 0.35511 0.0
H789 H 0.91504 0.87948 0.40687 0.0
C790 C 0.91329 0.85091 0.35899 0.0
C791 C 0.91763 0.87694 0.37254 0.0
C792 C 0.92098 0.89393 0.36932 0.0
C793 C 0.91009 0.8455 0.3799 0.0
C794 C 0.91079 0.85592 0.39736 0.0
C795 C 0.91453 0.8715 0.39345 0.0
C796 C 0.90867 0.85071 0.41995 0.0
C797 C 0.90658 0.82855 0.38325 0.0
C798 C 0.89353 0.84466 0.42731 0.0
C799 C 0.89197 0.83933 0.44851 0.0
C800 C 0.90555 0.8399 0.46267 0.0
C801 C 0.92053 0.84633 0.45531 0.0
C802 C 0.92205 0.85171 0.43423 0.0
H803 H 0.90956 0.82159 0.36876 0.0
H804 H 0.91382 0.824 0.39705 0.0
H805 H 0.89323 0.82698 0.38695 0.0
H806 H 0.88297 0.844 0.41663 0.0
H807 H 0.88029 0.83442 0.45364 0.0
H808 H 0.45511 0.62965 0.72491 0.0
H809 H 0.44966 0.63828 0.68807 0.0
H810 H 0.40771 0.66462 0.71031 0.0
H811 H 0.41307 0.65615 0.74716 0.0
H812 H 0.42011 0.63476 0.66272 0.0
H813 H 0.43623 0.6963 0.67682 0.0
H814 H 0.44213 0.68108 0.69514 0.0
H815 H 0.42128 0.68836 0.69518 0.0
C816 C 0.44474 0.6373 0.722 0.0
C817 C 0.43459 0.64227 0.73904 0.0
C818 C 0.44162 0.64219 0.70092 0.0
C819 C 0.4284 0.65222 0.6965 0.0
C820 C 0.41813 0.65706 0.71341 0.0
H821 H 0.38577 0.67655 0.57184 0.0
H822 H 0.39051 0.66612 0.60793 0.0
C823 C 0.42119 0.65215 0.73447 0.0
C824 C 0.42536 0.65768 0.67422 0.0
H825 H 0.42458 0.69012 0.64298 0.0
C826 C 0.42109 0.64685 0.65837 0.0
C827 C 0.4268 0.67345 0.66857 0.0
C828 C 0.432 0.68549 0.68473 0.0
C829 C 0.41803 0.65142 0.63703 0.0
C830 C 0.41916 0.66723 0.63149 0.0
C831 C 0.42359 0.67802 0.64731 0.0
C832 C 0.41631 0.67284 0.60922 0.0
C833 C 0.41395 0.63927 0.62049 0.0
C834 C 0.42918 0.68016 0.59802 0.0
C835 C 0.42653 0.6861 0.57742 0.0
C836 C 0.41087 0.68498 0.56757 0.0
C837 C 0.39802 0.67747 0.57877 0.0
C838 C 0.40071 0.6715 0.59943 0.0
H839 H 0.41715 0.62748 0.62619 0.0
H840 H 0.40046 0.63957 0.61709 0.0
H841 H 0.42063 0.64154 0.6052 0.0
H842 H 0.44133 0.6813 0.60526 0.0
H843 H 0.43681 0.69154 0.56922 0.0
H844 H 0.61906 0.15174 0.7836 0.0
H845 H 0.62561 0.1585 0.82079 0.0
H846 H 0.57898 0.13929 0.84155 0.0
H847 H 0.57243 0.13224 0.80444 0.0
H848 H 0.60899 0.17764 0.84855 0.0
H849 H 0.61157 0.1183 0.88192 0.0
H850 H 0.61157 0.12212 0.85339 0.0
H851 H 0.59249 0.12254 0.86833 0.0
C852 C 0.6102 0.14888 0.79607 0.0
C853 C 0.59523 0.14137 0.79101 0.0
C854 C 0.61398 0.15277 0.81733 0.0
C855 C 0.60292 0.14918 0.83403 0.0
C856 C 0.58788 0.14185 0.82902 0.0
H857 H 0.59525 0.16752 0.96957 0.0
H858 H 0.59199 0.15934 0.93226 0.0
C859 C 0.5841 0.13793 0.80775 0.0
C860 C 0.60692 0.15352 0.85656 0.0
H861 H 0.6115 0.13892 0.90728 0.0
C862 C 0.60969 0.16916 0.86136 0.0
C863 C 0.60788 0.14244 0.87327 0.0
C864 C 0.60588 0.1254 0.86899 0.0
C865 C 0.61286 0.17407 0.8825 0.0
C866 C 0.61353 0.16302 0.89925 0.0
C867 C 0.61099 0.14737 0.89441 0.0
C868 C 0.61603 0.16757 0.92204 0.0
C869 C 0.61493 0.1911 0.88686 0.0
C870 C 0.63079 0.17466 0.92882 0.0
C871 C 0.63268 0.17942 0.95022 0.0
C872 C 0.61983 0.17719 0.96519 0.0
C873 C 0.60527 0.16969 0.9584 0.0
C874 C 0.60342 0.1649 0.9371 0.0
H875 H 0.61065 0.19829 0.87314 0.0
H876 H 0.60796 0.19455 0.90148 0.0
H877 H 0.62823 0.19365 0.88964 0.0
H878 H 0.6408 0.1766 0.91753 0.0
H879 H 0.64402 0.18518 0.95488 0.0
H880 H 0.11741 0.64863 0.28735 0.0
H881 H 0.12422 0.65622 0.32413 0.0
H882 H 0.07377 0.64752 0.34352 0.0
H883 H 0.06692 0.63958 0.30686 0.0
H884 H 0.11182 0.67965 0.34819 0.0
H885 H 0.09929 0.62387 0.38878 0.0
H886 H 0.10086 0.62557 0.35993 0.0
H887 H 0.08199 0.63082 0.37349 0.0
C888 C 0.10776 0.64823 0.29945 0.0
C889 C 0.09161 0.64341 0.29414 0.0
C890 C 0.11169 0.65259 0.32048 0.0
C891 C 0.0996 0.6522 0.3367 0.0
C892 C 0.08343 0.64755 0.33143 0.0
H893 H 0.09228 0.6819 0.46845 0.0
H894 H 0.08812 0.67211 0.43203 0.0
C895 C 0.07949 0.64311 0.3104 0.0
C896 C 0.10378 0.65721 0.35892 0.0
H897 H 0.10305 0.64576 0.41152 0.0
C898 C 0.11005 0.67218 0.36201 0.0
C899 C 0.10151 0.64746 0.37697 0.0
C900 C 0.0957 0.63098 0.37466 0.0
C901 C 0.11364 0.67782 0.38268 0.0
C902 C 0.11107 0.66816 0.40072 0.0
C903 C 0.105 0.65314 0.39765 0.0
C904 C 0.11394 0.67369 0.423 0.0
C905 C 0.11968 0.69421 0.38512 0.0
C906 C 0.1299 0.67759 0.43016 0.0
C907 C 0.13233 0.68324 0.45103 0.0
C908 C 0.11882 0.68512 0.46509 0.0
C909 C 0.10292 0.68087 0.45795 0.0
C910 C 0.10052 0.67517 0.43717 0.0
H911 H 0.11793 0.70105 0.37017 0.0
H912 H 0.1131 0.70009 0.39849 0.0
H913 H 0.1331 0.6941 0.389 0.0
H914 H 0.14047 0.67634 0.41955 0.0
H915 H 0.14471 0.68645 0.45599 0.0
H916 H 0.593 0.83456 0.56026 0.0
H917 H 0.58787 0.84414 0.59654 0.0
H918 H 0.64029 0.85135 0.60542 0.0
H919 H 0.6455 0.84185 0.56892 0.0
H920 H 0.59873 0.83218 0.6343 0.0
H921 H 0.62152 0.89233 0.62539 0.0
H922 H 0.61775 0.87993 0.60261 0.0
H923 H 0.63641 0.87784 0.61813 0.0
C924 C 0.60346 0.83817 0.5699 0.0
C925 C 0.61968 0.83739 0.56168 0.0
C926 C 0.60049 0.84372 0.59063 0.0
C927 C 0.61366 0.84864 0.60366 0.0
C928 C 0.62988 0.84796 0.59551 0.0
H929 H 0.61636 0.87771 0.73804 0.0
H930 H 0.62353 0.86984 0.70138 0.0
C931 C 0.63286 0.84249 0.57466 0.0
C932 C 0.61031 0.8538 0.62606 0.0
H933 H 0.61422 0.88427 0.66063 0.0
C934 C 0.60208 0.84359 0.64001 0.0
C935 C 0.61473 0.86868 0.63356 0.0
C936 C 0.62296 0.8804 0.61912 0.0
C937 C 0.5982 0.84781 0.66122 0.0
C938 C 0.60251 0.8627 0.66865 0.0
C939 C 0.61093 0.87286 0.65485 0.0
C940 C 0.59814 0.86796 0.69063 0.0
C941 C 0.58968 0.83624 0.67561 0.0
C942 C 0.58148 0.86976 0.69663 0.0
C943 C 0.57733 0.8743 0.71753 0.0
C944 C 0.58977 0.87712 0.73287 0.0
C945 C 0.60646 0.87556 0.72668 0.0
C946 C 0.6106 0.8711 0.70572 0.0
H947 H 0.59064 0.8243 0.66919 0.0
H948 H 0.59505 0.83648 0.69204 0.0
H949 H 0.57635 0.83923 0.67687 0.0
H950 H 0.57168 0.8676 0.68513 0.0
H951 H 0.56436 0.87543 0.7217 0.0
H952 H 0.38398 0.35606 0.96151 0.0
H953 H 0.38713 0.36539 0.92443 0.0
H954 H 0.42583 0.33195 0.91367 0.0
H955 H 0.42247 0.32237 0.95025 0.0
H956 H 0.41566 0.37794 0.90543 0.0
H957 H 0.39547 0.32541 0.86201 0.0
H958 H 0.39127 0.32842 0.89021 0.0
H959 H 0.41125 0.32158 0.88161 0.0
C960 C 0.39295 0.35054 0.95112 0.0
C961 C 0.40299 0.33849 0.95889 0.0
C962 C 0.39482 0.35594 0.92999 0.0
C963 C 0.40659 0.34925 0.91621 0.0
C964 C 0.41648 0.33713 0.92388 0.0
H965 H 0.45564 0.38521 0.80312 0.0
H966 H 0.44749 0.37736 0.83942 0.0
C967 C 0.41467 0.33178 0.94492 0.0
C968 C 0.40915 0.35525 0.89408 0.0
H969 H 0.41047 0.34412 0.84145 0.0
C970 C 0.41436 0.37061 0.8914 0.0
C971 C 0.40728 0.34573 0.87576 0.0
C972 C 0.40085 0.32941 0.87747 0.0
C973 C 0.4183 0.37653 0.87097 0.0
C974 C 0.41725 0.36675 0.85279 0.0
C975 C 0.41148 0.35157 0.8554 0.0
C976 C 0.42213 0.37197 0.8309 0.0
C977 C 0.42346 0.39322 0.86906 0.0
C978 C 0.41073 0.37123 0.81391 0.0
C979 C 0.4154 0.37556 0.79311 0.0
C980 C 0.43162 0.38068 0.78882 0.0
C981 C 0.44303 0.38142 0.80587 0.0
C982 C 0.43835 0.37703 0.82668 0.0
H983 H 0.41905 0.40014 0.88297 0.0
H984 H 0.43719 0.3939 0.86871 0.0
H985 H 0.41861 0.39848 0.85405 0.0
H986 H 0.39818 0.36728 0.81675 0.0
H987 H 0.40628 0.37483 0.78039 0.0
H988 H 0.92728 0.15785 0.05434 0.0
H989 H 0.93037 0.15189 0.09241 0.0
H990 H 0.88712 0.17919 0.10683 0.0
H991 H 0.88404 0.18545 0.06856 0.0
H992 H 0.93483 0.17411 0.12577 0.0
H993 H 0.8789 0.1377 0.13874 0.0
H994 H 0.8872 0.14153 0.11229 0.0
H995 H 0.87558 0.15614 0.12613 0.0
C996 C 0.91842 0.16266 0.06553 0.0
C997 C 0.90548 0.17227 0.05831 0.0
C998 C 0.92016 0.15916 0.08732 0.0
C999 C 0.90894 0.16503 0.10244 0.0
C1000 C 0.89579 0.17436 0.09537 0.0
H1001 H 0.90671 0.1539 0.24221 0.0
H1002 H 0.90063 0.16126 0.20504 0.0
C1003 C 0.89404 0.17792 0.07348 0.0
C1004 C 0.91162 0.16186 0.12565 0.0
H1005 H 0.89553 0.1429 0.16909 0.0
C1006 C 0.92622 0.16731 0.13526 0.0
C1007 C 0.90033 0.15307 0.13802 0.0
C1008 C 0.88466 0.14664 0.12833 0.0
C1009 C 0.92989 0.16416 0.15689 0.0
C1010 C 0.91882 0.15503 0.16915 0.0
C1011 C 0.90404 0.14984 0.15966 0.0
C1012 C 0.92254 0.15051 0.1917 0.0
C1013 C 0.9455 0.17083 0.16649 0.0
C1014 C 0.93676 0.14184 0.19655 0.0
C1015 C 0.94031 0.13766 0.21779 0.0
C1016 C 0.92963 0.14195 0.23462 0.0
C1017 C 0.91525 0.15045 0.22967 0.0
C1018 C 0.91173 0.15465 0.20841 0.0
H1019 H 0.94999 0.18096 0.15719 0.0
H1020 H 0.9435 0.1744 0.18343 0.0
H1021 H 0.95539 0.16193 0.1662 0.0
H1022 H 0.94509 0.13822 0.18386 0.0
H1023 H 0.95141 0.13101 0.22097 0.0
H1024 H 0.97363 0.68319 0.79788 0.0
H1025 H 0.96392 0.68952 0.83399 0.0
H1026 H 0.95046 0.64189 0.8443 0.0
H1027 H 0.96054 0.63538 0.80827 0.0
H1028 H 0.93331 0.68711 0.85129 0.0
H1029 H 0.97731 0.65086 0.89762 0.0
H1030 H 0.97994 0.65469 0.86932 0.0
H1031 H 0.96545 0.64025 0.87822 0.0
C1032 C 0.96874 0.67401 0.80786 0.0
C1033 C 0.96797 0.65875 0.80019 0.0
C1034 C 0.96313 0.67767 0.82852 0.0
C1035 C 0.95662 0.66618 0.84202 0.0
C1036 C 0.95576 0.65092 0.8344 0.0
H1037 H 0.89891 0.68586 0.95881 0.0
H1038 H 0.90718 0.67918 0.92204 0.0
C1039 C 0.96148 0.64722 0.81374 0.0
C1040 C 0.95046 0.67033 0.86386 0.0
H1041 H 0.95571 0.66278 0.91734 0.0
C1042 C 0.93821 0.68179 0.86575 0.0
C1043 C 0.95697 0.66352 0.88275 0.0
C1044 C 0.97075 0.65176 0.88197 0.0
C1045 C 0.93232 0.68663 0.88594 0.0
C1046 C 0.93858 0.67959 0.9048 0.0
C1047 C 0.95081 0.66811 0.9029 0.0
C1048 C 0.93318 0.68432 0.92675 0.0
C1049 C 0.9198 0.69955 0.88687 0.0
C1050 C 0.94501 0.6893 0.94176 0.0
C1051 C 0.94035 0.69296 0.96279 0.0
C1052 C 0.92372 0.69175 0.96936 0.0
C1053 C 0.91179 0.68707 0.95422 0.0
C1054 C 0.9165 0.68329 0.93315 0.0
H1055 H 0.91965 0.7064 0.87175 0.0
H1056 H 0.90725 0.69459 0.8892 0.0
H1057 H 0.92241 0.70746 0.90049 0.0
H1058 H 0.95794 0.69021 0.93724 0.0
H1059 H 0.94988 0.69653 0.97399 0.0
H1060 H 0.13031 0.15854 0.56823 0.0
H1061 H 0.11696 0.15372 0.60279 0.0
H1062 H 0.08925 0.19602 0.59651 0.0
H1063 H 0.10257 0.20098 0.56165 0.0
H1064 H 0.1045 0.19032 0.63877 0.0
H1065 H 0.06732 0.14073 0.60929 0.0
H1066 H 0.08904 0.13976 0.60307 0.0
H1067 H 0.07656 0.15475 0.59141 0.0
C1068 C 0.12145 0.1669 0.57416 0.0
C1069 C 0.11747 0.18013 0.56204 0.0
C1070 C 0.11376 0.16406 0.59391 0.0
C1071 C 0.10192 0.17437 0.60206 0.0
C1072 C 0.09828 0.18786 0.59042 0.0
H1073 H 0.03758 0.15645 0.71361 0.0
H1074 H 0.04778 0.16423 0.67799 0.0
C1075 C 0.10592 0.19069 0.57053 0.0
C1076 C 0.0934 0.17091 0.62271 0.0
H1077 H 0.06833 0.14435 0.64722 0.0
C1078 C 0.09647 0.18036 0.64059 0.0
C1079 C 0.0828 0.15798 0.62501 0.0
C1080 C 0.07857 0.14777 0.60615 0.0
C1081 C 0.08973 0.17687 0.66088 0.0
C1082 C 0.07969 0.16359 0.66334 0.0
C1083 C 0.07612 0.15447 0.64531 0.0
C1084 C 0.07338 0.15868 0.68471 0.0
C1085 C 0.0935 0.18729 0.67966 0.0
C1086 C 0.08435 0.15272 0.7001 0.0
C1087 C 0.07855 0.14809 0.7203 0.0
C1088 C 0.06166 0.14945 0.72563 0.0
C1089 C 0.05066 0.1553 0.71007 0.0
C1090 C 0.05646 0.15975 0.68972 0.0
H1091 H 0.09869 0.19856 0.6744 0.0
H1092 H 0.08213 0.18942 0.68929 0.0
H1093 H 0.10269 0.18157 0.69028 0.0
H1094 H 0.09743 0.15166 0.69647 0.0
H1095 H 0.0874 0.14369 0.73187 0.0
H1096 H 0.60174 0.3179 0.46015 0.0
H1097 H 0.58958 0.32191 0.42439 0.0
H1098 H 0.61366 0.36625 0.42016 0.0
H1099 H 0.62608 0.36223 0.45537 0.0
H1100 H 0.56842 0.34448 0.41068 0.0
H1101 H 0.62634 0.34757 0.36325 0.0
H1102 H 0.62589 0.34055 0.39056 0.0
H1103 H 0.62629 0.36099 0.38519 0.0
C1104 C 0.60461 0.32841 0.45146 0.0
C1105 C 0.615 0.33968 0.46061 0.0
C1106 C 0.59761 0.33071 0.43105 0.0
C1107 C 0.60092 0.34428 0.41937 0.0
C1108 C 0.61125 0.35552 0.42853 0.0
H1109 H 0.56688 0.38823 0.30215 0.0
H1110 H 0.57805 0.38209 0.33779 0.0
C1111 C 0.61828 0.35322 0.4488 0.0
C1112 C 0.59311 0.34708 0.39803 0.0
H1113 H 0.60184 0.357 0.34601 0.0
C1114 C 0.57573 0.34705 0.39649 0.0
C1115 C 0.60263 0.35044 0.37946 0.0
C1116 C 0.62132 0.34974 0.3796 0.0
C1117 C 0.56766 0.35074 0.3771 0.0
C1118 C 0.5772 0.35448 0.35875 0.0
C1119 C 0.59455 0.35429 0.36018 0.0
C1120 C 0.56946 0.35843 0.33779 0.0
C1121 C 0.54898 0.351 0.37649 0.0
C1122 C 0.56087 0.34719 0.326 0.0
C1123 C 0.55455 0.35063 0.3056 0.0
C1124 C 0.55665 0.36542 0.29657 0.0
C1125 C 0.56495 0.37677 0.30864 0.0
C1126 C 0.57139 0.37326 0.32899 0.0
H1127 H 0.54349 0.35084 0.39287 0.0
H1128 H 0.54448 0.36141 0.36784 0.0
H1129 H 0.54446 0.34069 0.36767 0.0
H1130 H 0.55942 0.33562 0.33236 0.0
H1131 H 0.54826 0.3416 0.29676 0.0
H1132 H 0.4679 0.84046 0.22568 0.0
H1133 H 0.45896 0.8349 0.18905 0.0
H1134 H 0.44935 0.88331 0.17855 0.0
H1135 H 0.4587 0.88904 0.21518 0.0
H1136 H 0.42887 0.83927 0.17161 0.0
H1137 H 0.47562 0.87252 0.12536 0.0
H1138 H 0.47781 0.86865 0.15372 0.0
H1139 H 0.46438 0.88387 0.14459 0.0
C1140 C 0.4641 0.84999 0.21552 0.0
C1141 C 0.46408 0.86522 0.22337 0.0
C1142 C 0.45893 0.84676 0.19456 0.0
C1143 C 0.45358 0.85867 0.18091 0.0
C1144 C 0.45373 0.87394 0.18858 0.0
H1145 H 0.39558 0.84085 0.06373 0.0
H1146 H 0.40397 0.84788 0.10032 0.0
C1147 C 0.45905 0.87721 0.20957 0.0
C1148 C 0.44727 0.85486 0.15904 0.0
H1149 H 0.45347 0.86163 0.10551 0.0
C1150 C 0.43425 0.84416 0.15715 0.0
C1151 C 0.45438 0.86113 0.14014 0.0
C1152 C 0.46892 0.87207 0.14095 0.0
C1153 C 0.42822 0.83949 0.13697 0.0
C1154 C 0.43512 0.84597 0.11808 0.0
C1155 C 0.44808 0.85673 0.11997 0.0
C1156 C 0.42966 0.84127 0.09616 0.0
C1157 C 0.41487 0.82731 0.13609 0.0
C1158 C 0.44128 0.83539 0.08151 0.0
C1159 C 0.43656 0.83154 0.06058 0.0
C1160 C 0.42006 0.83344 0.05375 0.0
C1161 C 0.40834 0.83908 0.06853 0.0
C1162 C 0.41312 0.84307 0.08949 0.0
H1163 H 0.41412 0.82065 0.15134 0.0
H1164 H 0.4027 0.83296 0.13347 0.0
H1165 H 0.41708 0.81911 0.12267 0.0
H1166 H 0.45409 0.83388 0.08623 0.0
H1167 H 0.44592 0.82722 0.04965 0.0
H1168 H 0.95858 0.38627 0.71673 0.0
H1169 H 0.9493 0.37921 0.68053 0.0
H1170 H 0.96224 0.33172 0.69281 0.0
H1171 H 0.97128 0.33859 0.72903 0.0
H1172 H 0.96532 0.36568 0.64619 0.0
H1173 H 0.91402 0.32821 0.67434 0.0
H1174 H 0.92492 0.34123 0.69201 0.0
H1175 H 0.93382 0.32284 0.68513 0.0
C1176 C 0.95955 0.37433 0.71169 0.0
C1177 C 0.96556 0.36298 0.72588 0.0
C1178 C 0.9542 0.37031 0.69099 0.0
C1179 C 0.95471 0.35487 0.6841 0.0
C1180 C 0.96131 0.34363 0.69794 0.0
H1181 H 0.94746 0.32079 0.55324 0.0
H1182 H 0.95622 0.32836 0.58929 0.0
C1183 C 0.9666 0.34762 0.71862 0.0
C1184 C 0.94835 0.35048 0.66249 0.0
H1185 H 0.92053 0.32698 0.63703 0.0
C1186 C 0.95548 0.35727 0.64419 0.0
C1187 C 0.93531 0.33969 0.65986 0.0
C1188 C 0.92644 0.33267 0.67887 0.0
C1189 C 0.95023 0.35328 0.62336 0.0
C1190 C 0.93769 0.34199 0.62072 0.0
C1191 C 0.93027 0.33549 0.63903 0.0
C1192 C 0.93213 0.33676 0.59909 0.0
C1193 C 0.95801 0.36138 0.60439 0.0
C1194 C 0.91549 0.33834 0.59284 0.0
C1195 C 0.91037 0.33385 0.57224 0.0
C1196 C 0.9218 0.32765 0.55749 0.0
C1197 C 0.93834 0.32564 0.56408 0.0
C1198 C 0.94342 0.33008 0.58467 0.0
H1199 H 0.96373 0.37254 0.60914 0.0
H1200 H 0.96791 0.35396 0.59759 0.0
H1201 H 0.94873 0.36362 0.59159 0.0
H1202 H 0.90651 0.34334 0.60376 0.0
H1203 H 0.89754 0.33555 0.56773 0.0
H1204 H 0.43561 0.13029 0.31363 0.0
H1205 H 0.42883 0.14153 0.3485 0.0
H1206 H 0.47227 0.17035 0.345 0.0
H1207 H 0.47921 0.15918 0.30982 0.0
H1208 H 0.46588 0.15411 0.3866 0.0
H1209 H 0.41172 0.18707 0.356 0.0
H1210 H 0.4124 0.16699 0.34867 0.0
H1211 H 0.42792 0.17996 0.33856 0.0
C1212 C 0.44383 0.13895 0.32025 0.0
C1213 C 0.45794 0.14388 0.30881 0.0
C1214 C 0.43986 0.14542 0.34017 0.0
C1215 C 0.44989 0.15694 0.34917 0.0
C1216 C 0.4643 0.16154 0.33823 0.0
H1217 H 0.44467 0.20464 0.47299 0.0
H1218 H 0.45298 0.19547 0.43745 0.0
C1219 C 0.46826 0.15513 0.31816 0.0
C1220 C 0.44518 0.16415 0.36996 0.0
H1221 H 0.41526 0.18623 0.39378 0.0
C1222 C 0.4549 0.16124 0.38819 0.0
C1223 C 0.43078 0.17336 0.37197 0.0
C1224 C 0.42013 0.17717 0.35276 0.0
C1225 C 0.45037 0.16694 0.40853 0.0
C1226 C 0.43593 0.17616 0.41059 0.0
C1227 C 0.42631 0.17919 0.39225 0.0
C1228 C 0.43046 0.18257 0.43166 0.0
C1229 C 0.46078 0.16256 0.42774 0.0
C1230 C 0.41468 0.17904 0.43987 0.0
C1231 C 0.40976 0.18448 0.46011 0.0
C1232 C 0.42055 0.19357 0.47256 0.0
C1233 C 0.43611 0.19754 0.46395 0.0
C1234 C 0.44095 0.19219 0.44367 0.0
H1235 H 0.4684 0.15212 0.42452 0.0
H1236 H 0.46934 0.17219 0.43158 0.0
H1237 H 0.45292 0.16031 0.44206 0.0
H1238 H 0.40629 0.17174 0.43083 0.0
H1239 H 0.3977 0.1812 0.46623 0.0
H1240 H 0.55414 0.66108 0.22525 0.0
H1241 H 0.56021 0.67152 0.18942 0.0
H1242 H 0.59763 0.63663 0.18025 0.0
H1243 H 0.59171 0.62615 0.21596 0.0
H1244 H 0.59268 0.68251 0.17433 0.0
H1245 H 0.5676 0.63411 0.12555 0.0
H1246 H 0.56176 0.6372 0.15326 0.0
H1247 H 0.58145 0.6287 0.14691 0.0
C1248 C 0.56354 0.65552 0.21553 0.0
C1249 C 0.5724 0.64274 0.22349 0.0
C1250 C 0.56704 0.66155 0.1951 0.0
C1251 C 0.5793 0.6548 0.18213 0.0
C1252 C 0.588 0.64192 0.18989 0.0
H1253 H 0.62958 0.69063 0.06795 0.0
H1254 H 0.62286 0.68123 0.10417 0.0
C1255 C 0.58461 0.63597 0.21035 0.0
C1256 C 0.58333 0.66141 0.16069 0.0
H1257 H 0.58261 0.65343 0.10691 0.0
C1258 C 0.59045 0.67619 0.15957 0.0
C1259 C 0.58033 0.65316 0.14147 0.0
C1260 C 0.57225 0.63746 0.1417 0.0
C1261 C 0.59487 0.68284 0.13973 0.0
C1262 C 0.59215 0.67447 0.12053 0.0
C1263 C 0.58481 0.65979 0.12165 0.0
C1264 C 0.59635 0.6809 0.09903 0.0
C1265 C 0.60219 0.69887 0.13938 0.0
C1266 C 0.58371 0.68379 0.0841 0.0
C1267 C 0.58749 0.68919 0.06348 0.0
C1268 C 0.60404 0.69167 0.0572 0.0
C1269 C 0.61671 0.68891 0.07227 0.0
C1270 C 0.61289 0.68357 0.093 0.0
H1271 H 0.60047 0.70493 0.15496 0.0
H1272 H 0.61568 0.69806 0.13609 0.0
H1273 H 0.5965 0.7059 0.12641 0.0
H1274 H 0.57087 0.68178 0.08838 0.0
H1275 H 0.5774 0.69115 0.05234 0.0
H1276 H 0.07188 0.85767 0.79339 0.0
H1277 H 0.08374 0.84785 0.82685 0.0
H1278 H 0.05449 0.88043 0.86299 0.0
H1279 H 0.04234 0.89019 0.82957 0.0
H1280 H 0.10207 0.86309 0.85748 0.0
H1281 H 0.0443 0.84002 0.89367 0.0
H1282 H 0.04569 0.84551 0.86573 0.0
H1283 H 0.04307 0.86001 0.88614 0.0
C1284 C 0.06786 0.86272 0.80845 0.0
C1285 C 0.05606 0.87469 0.80875 0.0
C1286 C 0.07469 0.85709 0.82759 0.0
C1287 C 0.06985 0.86323 0.8475 0.0
C1288 C 0.05816 0.87526 0.84788 0.0
H1289 H 0.09877 0.84685 0.98002 0.0
H1290 H 0.08695 0.85644 0.94642 0.0
C1291 C 0.05129 0.88089 0.82872 0.0
C1292 C 0.07737 0.85727 0.86775 0.0
H1293 H 0.0681 0.84048 0.91605 0.0
C1294 C 0.09465 0.85808 0.87025 0.0
C1295 C 0.0677 0.85072 0.88443 0.0
C1296 C 0.04918 0.84886 0.88235 0.0
C1297 C 0.10248 0.8528 0.88908 0.0
C1298 C 0.0928 0.8463 0.90577 0.0
C1299 C 0.07552 0.84548 0.90327 0.0
C1300 C 0.1003 0.84046 0.92608 0.0
C1301 C 0.121 0.85457 0.89115 0.0
C1302 C 0.11167 0.82817 0.92591 0.0
C1303 C 0.1185 0.82263 0.94516 0.0
C1304 C 0.11402 0.82923 0.965 0.0
C1305 C 0.10256 0.8415 0.96508 0.0
C1306 C 0.09575 0.847 0.94586 0.0
H1307 H 0.126 0.86314 0.87953 0.0
H1308 H 0.12446 0.8582 0.90766 0.0
H1309 H 0.12702 0.84329 0.88785 0.0
H1310 H 0.11514 0.82274 0.91089 0.0
H1311 H 0.1272 0.81313 0.94448 0.0
H1312 H 0.13766 0.335 0.35638 0.0
H1313 H 0.1362 0.31315 0.38112 0.0
H1314 H 0.08577 0.32503 0.39683 0.0
H1315 H 0.08714 0.34705 0.37229 0.0
H1316 H 0.12934 0.31307 0.42567 0.0
H1317 H 0.08265 0.27918 0.38002 0.0
H1318 H 0.0938 0.29518 0.36829 0.0
H1319 H 0.07678 0.29868 0.38626 0.0
C1320 C 0.12628 0.3331 0.36517 0.0
C1321 C 0.1125 0.34285 0.3622 0.0
C1322 C 0.12545 0.32052 0.37926 0.0
C1323 C 0.11082 0.31732 0.39061 0.0
C1324 C 0.09709 0.32708 0.3879 0.0
H1325 H 0.08552 0.24184 0.4784 0.0
H1326 H 0.0851 0.26564 0.45706 0.0
C1327 C 0.0979 0.33969 0.37382 0.0
C1328 C 0.11009 0.30388 0.40545 0.0
H1329 H 0.09107 0.26911 0.41358 0.0
C1330 C 0.12097 0.30346 0.42305 0.0
C1331 C 0.09909 0.29139 0.40206 0.0
C1332 C 0.08749 0.29099 0.38306 0.0
C1333 C 0.12114 0.2909 0.43737 0.0
C1334 C 0.11038 0.27826 0.43375 0.0
C1335 C 0.09931 0.2788 0.41635 0.0
C1336 C 0.1108 0.26413 0.44736 0.0
C1337 C 0.13271 0.29138 0.4564 0.0
C1338 C 0.12534 0.25531 0.4489 0.0
C1339 C 0.12564 0.24174 0.46111 0.0
C1340 C 0.11133 0.23661 0.47193 0.0
C1341 C 0.09677 0.24547 0.47036 0.0
C1342 C 0.0965 0.25907 0.45814 0.0
H1343 H 0.13631 0.30342 0.46046 0.0
H1344 H 0.12696 0.28598 0.47078 0.0
H1345 H 0.14418 0.28491 0.45245 0.0
H1346 H 0.13642 0.25877 0.44035 0.0
H1347 H 0.13704 0.23517 0.46182 0.0
H1348 H 0.91582 0.84905 0.57996 0.0
H1349 H 0.93553 0.8561 0.6081 0.0
H1350 H 0.90475 0.83379 0.65552 0.0
H1351 H 0.88505 0.82647 0.62742 0.0
H1352 H 0.93228 0.87325 0.64548 0.0
H1353 H 0.9496 0.81259 0.6639 0.0
H1354 H 0.93788 0.81785 0.6403 0.0
H1355 H 0.92785 0.8167 0.66605 0.0
C1356 C 0.91314 0.84573 0.59639 0.0
C1357 C 0.89888 0.83708 0.60138 0.0
C1358 C 0.92445 0.84977 0.61247 0.0
C1359 C 0.92179 0.84522 0.63386 0.0
C1360 C 0.90725 0.83713 0.63906 0.0
H1361 H 0.98046 0.88082 0.74156 0.0
H1362 H 0.95757 0.87334 0.71797 0.0
C1363 C 0.89593 0.83306 0.62298 0.0
C1364 C 0.93442 0.84875 0.65055 0.0
H1365 H 0.96152 0.83197 0.68575 0.0
C1366 C 0.93863 0.86424 0.65436 0.0
C1367 C 0.94286 0.83696 0.6619 0.0
C1368 C 0.93947 0.82008 0.65776 0.0
C1369 C 0.95103 0.86826 0.6692 0.0
C1370 C 0.95926 0.85648 0.68083 0.0
C1371 C 0.95507 0.84099 0.67701 0.0
C1372 C 0.97283 0.85998 0.69625 0.0
C1373 C 0.95555 0.88507 0.6718 0.0
C1374 C 0.98889 0.8544 0.69244 0.0
C1375 C 1.00199 0.85854 0.70599 0.0
C1376 C 0.99928 0.86833 0.7237 0.0
C1377 C 0.98303 0.87335 0.72801 0.0
C1378 C 0.96993 0.86918 0.71445 0.0
H1379 H 0.95094 0.8922 0.6582 0.0
H1380 H 0.94989 0.88955 0.68681 0.0
H1381 H 0.96918 0.88653 0.673 0.0
H1382 H 0.9914 0.84721 0.67857 0.0
H1383 H 0.01432 0.85443 0.7022 0.0
H1384 H 0.3826 0.78767 0.96001 0.0
H1385 H 0.38228 0.76386 0.93881 0.0
H1386 H 0.43515 0.75955 0.94651 0.0
H1387 H 0.43562 0.78328 0.96778 0.0
H1388 H 0.40021 0.75863 0.89989 0.0
H1389 H 0.41743 0.71641 0.96334 0.0
H1390 H 0.40979 0.73552 0.96946 0.0
H1391 H 0.43091 0.73285 0.9611 0.0
C1392 C 0.39415 0.78159 0.9574 0.0
C1393 C 0.40914 0.78739 0.96566 0.0
C1394 C 0.39394 0.76799 0.94524 0.0
C1395 C 0.40866 0.75984 0.94128 0.0
C1396 C 0.42361 0.76551 0.94967 0.0
H1397 H 0.43437 0.67787 0.86786 0.0
H1398 H 0.43438 0.70082 0.89064 0.0
C1399 C 0.42385 0.77913 0.96175 0.0
C1400 C 0.40851 0.74583 0.92753 0.0
H1401 H 0.4168 0.70714 0.92749 0.0
C1402 C 0.40375 0.74735 0.90594 0.0
C1403 C 0.41325 0.73116 0.93542 0.0
C1404 C 0.41801 0.72878 0.95864 0.0
C1405 C 0.40385 0.73464 0.89191 0.0
C1406 C 0.40848 0.71992 0.89982 0.0
C1407 C 0.41326 0.71841 0.92143 0.0
C1408 C 0.4084 0.70594 0.88594 0.0
C1409 C 0.39943 0.7372 0.8686 0.0
C1410 C 0.39375 0.70103 0.8759 0.0
C1411 C 0.39373 0.68799 0.86265 0.0
C1412 C 0.40834 0.67943 0.85927 0.0
C1413 C 0.42294 0.68425 0.8697 0.0
C1414 C 0.42295 0.69734 0.88291 0.0
H1415 H 0.40085 0.74951 0.86389 0.0
H1416 H 0.40728 0.73003 0.85786 0.0
H1417 H 0.3863 0.73391 0.866 0.0
H1418 H 0.38228 0.70728 0.87835 0.0
H1419 H 0.38226 0.68477 0.85486 0.0
H1420 H 0.60854 0.14931 0.07115 0.0
H1421 H 0.58913 0.14383 0.10027 0.0
H1422 H 0.60815 0.1826 0.13604 0.0
H1423 H 0.62738 0.18844 0.10666 0.0
H1424 H 0.5926 0.13702 0.14286 0.0
H1425 H 0.55925 0.19278 0.13321 0.0
H1426 H 0.57431 0.18606 0.11394 0.0
H1427 H 0.58098 0.19453 0.13885 0.0
C1428 C 0.60873 0.15662 0.08527 0.0
C1429 C 0.61944 0.16942 0.08643 0.0
C1430 C 0.5976 0.15346 0.10194 0.0
C1431 C 0.5969 0.16299 0.12017 0.0
C1432 C 0.60815 0.17531 0.1219 0.0
H1433 H 0.52249 0.1587 0.2244 0.0
H1434 H 0.54805 0.16473 0.20454 0.0
C1435 C 0.61925 0.17855 0.10515 0.0
C1436 C 0.58402 0.16018 0.13689 0.0
H1437 H 0.54954 0.17596 0.16017 0.0
C1438 C 0.58327 0.14559 0.14675 0.0
C1439 C 0.57181 0.17136 0.14202 0.0
C1440 C 0.57147 0.18702 0.13135 0.0
C1441 C 0.57052 0.14179 0.16122 0.0
C1442 C 0.55809 0.1528 0.16585 0.0
C1443 C 0.55914 0.16757 0.15664 0.0
C1444 C 0.54312 0.14877 0.17858 0.0
C1445 C 0.57032 0.12593 0.17126 0.0
C1446 C 0.53185 0.13791 0.1705 0.0
C1447 C 0.51726 0.13455 0.18166 0.0
C1448 C 0.51359 0.14195 0.20122 0.0
C1449 C 0.52498 0.15274 0.20945 0.0
C1450 C 0.53957 0.15621 0.19811 0.0
H1451 H 0.58276 0.12044 0.17079 0.0
H1452 H 0.56604 0.12646 0.18822 0.0
H1453 H 0.56162 0.11845 0.1622 0.0
H1454 H 0.53419 0.13221 0.1553 0.0
H1455 H 0.50879 0.12619 0.17482 0.0
H1456 H 0.13352 0.69223 0.18645 0.0
H1457 H 0.13264 0.71244 0.15904 0.0
H1458 H 0.09762 0.68552 0.12244 0.0
H1459 H 0.09806 0.6655 0.15034 0.0
H1460 H 0.14132 0.71229 0.11878 0.0
H1461 H 0.07434 0.72609 0.12253 0.0
H1462 H 0.08432 0.71387 0.14209 0.0
H1463 H 0.07827 0.70621 0.11636 0.0
C1464 C 0.12563 0.69063 0.17257 0.0
C1465 C 0.11582 0.67731 0.17055 0.0
C1466 C 0.1251 0.70221 0.15691 0.0
C1467 C 0.11486 0.70068 0.13876 0.0
C1468 C 0.10524 0.68723 0.13655 0.0
H1469 H 0.1331 0.76147 0.02807 0.0
H1470 H 0.12989 0.73861 0.05087 0.0
C1471 C 0.10556 0.67575 0.15243 0.0
C1472 C 0.11477 0.713 0.12202 0.0
H1473 H 0.08968 0.73785 0.09437 0.0
C1474 C 0.13001 0.71788 0.11347 0.0
C1475 C 0.10004 0.72044 0.1152 0.0
C1476 C 0.08334 0.71651 0.12467 0.0
C1477 C 0.131 0.73005 0.09859 0.0
C1478 C 0.11624 0.73721 0.09131 0.0
C1479 C 0.10097 0.73225 0.09971 0.0
C1480 C 0.1165 0.7505 0.07609 0.0
C1481 C 0.14793 0.73548 0.09155 0.0
C1482 C 0.10911 0.76458 0.08194 0.0
C1483 C 0.11055 0.77755 0.06867 0.0
C1484 C 0.11956 0.77677 0.04934 0.0
C1485 C 0.12626 0.7625 0.04299 0.0
C1486 C 0.12456 0.74945 0.05611 0.0
H1487 H 0.15773 0.73184 0.10303 0.0
H1488 H 0.15093 0.73035 0.07568 0.0
H1489 H 0.14835 0.74825 0.09002 0.0
H1490 H 0.10272 0.76569 0.09719 0.0
H1491 H 0.10524 0.78837 0.07406 0.0
H1492 H 0.5173 0.89053 0.31973 0.0
H1493 H 0.54148 0.887 0.34294 0.0
H1494 H 0.53838 0.83771 0.33413 0.0
H1495 H 0.51409 0.84109 0.31118 0.0
H1496 H 0.54137 0.84602 0.37665 0.0
H1497 H 0.58913 0.87564 0.32735 0.0
H1498 H 0.57106 0.88708 0.33289 0.0
H1499 H 0.56924 0.87002 0.31663 0.0
C1500 C 0.52186 0.87894 0.32253 0.0
C1501 C 0.51374 0.86609 0.31354 0.0
C1502 C 0.53575 0.87696 0.33574 0.0
C1503 C 0.54187 0.8621 0.3401 0.0
C1504 C 0.53391 0.84928 0.33094 0.0
H1505 H 0.6335 0.83197 0.39819 0.0
H1506 H 0.61098 0.83936 0.37407 0.0
C1507 C 0.52002 0.85125 0.31777 0.0
C1508 C 0.55606 0.85977 0.35501 0.0
H1509 H 0.59713 0.86786 0.36243 0.0
C1510 C 0.55355 0.85081 0.37355 0.0
C1511 C 0.572 0.86593 0.35086 0.0
C1512 C 0.57563 0.87509 0.33077 0.0
C1513 C 0.56651 0.84783 0.38805 0.0
C1514 C 0.58237 0.85421 0.38412 0.0
C1515 C 0.58491 0.86314 0.36555 0.0
C1516 C 0.59665 0.85102 0.39855 0.0
C1517 C 0.56319 0.8375 0.40713 0.0
C1518 C 0.59634 0.85552 0.42024 0.0
C1519 C 0.60921 0.85129 0.43414 0.0
C1520 C 0.6227 0.84252 0.42658 0.0
C1521 C 0.6233 0.83866 0.40462 0.0
C1522 C 0.61043 0.84289 0.39076 0.0
H1523 H 0.55161 0.83072 0.40512 0.0
H1524 H 0.57363 0.82936 0.40975 0.0
H1525 H 0.56186 0.84471 0.42177 0.0
H1526 H 0.58598 0.86207 0.42652 0.0
H1527 H 0.60837 0.85453 0.45092 0.0
H1528 H 0.39095 0.25981 0.52519 0.0
H1529 H 0.39469 0.28355 0.54599 0.0
H1530 H 0.41697 0.25727 0.59734 0.0
H1531 H 0.41381 0.23367 0.57643 0.0
H1532 H 0.38121 0.29111 0.58283 0.0
H1533 H 0.44907 0.2922 0.59374 0.0
H1534 H 0.43912 0.27944 0.57481 0.0
H1535 H 0.44058 0.27422 0.60281 0.0
C1536 C 0.39689 0.25913 0.54077 0.0
C1537 C 0.40213 0.24484 0.5491 0.0
C1538 C 0.39901 0.27271 0.55266 0.0
C1539 C 0.40637 0.27229 0.57313 0.0
C1540 C 0.41172 0.25803 0.58136 0.0
H1541 H 0.38829 0.33348 0.67917 0.0
H1542 H 0.3882 0.31346 0.65161 0.0
C1543 C 0.40978 0.24449 0.56941 0.0
C1544 C 0.40729 0.28648 0.58659 0.0
H1545 H 0.43317 0.30746 0.61876 0.0
C1546 C 0.39264 0.29479 0.59044 0.0
C1547 C 0.42222 0.29153 0.59627 0.0
C1548 C 0.43865 0.28397 0.59149 0.0
C1549 C 0.39236 0.30755 0.60436 0.0
C1550 C 0.40704 0.31188 0.61528 0.0
C1551 C 0.42184 0.30401 0.6107 0.0
C1552 C 0.40716 0.32417 0.63199 0.0
C1553 C 0.37632 0.3163 0.60709 0.0
C1554 C 0.41828 0.33662 0.63064 0.0
C1555 C 0.4185 0.34803 0.6466 0.0
C1556 C 0.40756 0.34722 0.66419 0.0
C1557 C 0.39659 0.33465 0.66559 0.0
C1558 C 0.3965 0.3232 0.64979 0.0
H1559 H 0.36826 0.31506 0.59272 0.0
H1560 H 0.36947 0.31153 0.62107 0.0
H1561 H 0.37857 0.32878 0.60993 0.0
H1562 H 0.42671 0.33758 0.61716 0.0
H1563 H 0.42706 0.35759 0.64504 0.0
H1564 H 0.0273 0.12922 0.86203 0.0
H1565 H 1.0013 0.13554 0.87979 0.0
H1566 H 0.9831 0.15621 0.82132 0.0
H1567 H 1.00928 0.14977 0.80316 0.0
H1568 H 0.98819 0.16539 0.88522 0.0
H1569 H 0.94492 0.12706 0.8405 0.0
H1570 H 0.9671 0.12427 0.84009 0.0
H1571 H 0.95792 0.13954 0.82464 0.0
C1572 C 0.01778 0.13503 0.8528 0.0
C1573 C 0.02042 0.13899 0.83112 0.0
C1574 C 1.00289 0.13864 0.86304 0.0
C1575 C 0.99019 0.14624 0.85188 0.0
C1576 C 0.99264 0.15013 0.83016 0.0
H1577 H 0.90791 0.18975 0.9211 0.0
H1578 H 0.9295 0.18438 0.89452 0.0
C1579 C 1.00763 0.1465 0.81983 0.0
C1580 C 0.9748 0.15058 0.86357 0.0
H1581 H 0.93338 0.14271 0.86776 0.0
C1582 C 0.97618 0.16054 0.88127 0.0
C1583 C 0.95917 0.14413 0.85851 0.0
C1584 C 0.95708 0.13306 0.84 0.0
C1585 C 0.96244 0.16407 0.89422 0.0
C1586 C 0.94683 0.15758 0.88925 0.0
C1587 C 0.94535 0.14774 0.87142 0.0
C1588 C 0.93219 0.16033 0.90322 0.0
C1589 C 0.96482 0.17433 0.91358 0.0
C1590 C 0.92614 0.14845 0.91641 0.0
C1591 C 0.9138 0.15147 0.93169 0.0
C1592 C 0.90721 0.16643 0.93396 0.0
C1593 C 0.91269 0.1781 0.91985 0.0
C1594 C 0.92508 0.17508 0.90467 0.0
H1595 H 0.97813 0.17633 0.9172 0.0
H1596 H 0.95889 0.18568 0.91054 0.0
H1597 H 0.95882 0.16916 0.92796 0.0
H1598 H 0.93146 0.13698 0.91552 0.0
H1599 H 0.90985 0.14221 0.94221 0.0
H1600 H 0.96465 0.68219 0.68545 0.0
H1601 H 0.95577 0.70385 0.66315 0.0
H1602 H 0.90505 0.68872 0.66849 0.0
H1603 H 0.91366 0.66746 0.69159 0.0
H1604 H 0.94043 0.70345 0.62447 0.0
H1605 H 0.90074 0.73385 0.68347 0.0
H1606 H 0.91488 0.71869 0.69118 0.0
H1607 H 0.89491 0.71402 0.68007 0.0
C1608 C 0.95156 0.68358 0.68227 0.0
C1609 C 0.93989 0.67303 0.69052 0.0
C1610 C 0.94652 0.69594 0.66934 0.0
C1611 C 0.92971 0.69808 0.66442 0.0
C1612 C 0.91805 0.68753 0.67246 0.0
H1613 H 0.87185 0.75413 0.57874 0.0
H1614 H 0.88307 0.73493 0.60362 0.0
C1615 C 0.92305 0.67522 0.68547 0.0
C1616 C 0.92444 0.71094 0.65017 0.0
H1617 H 0.8978 0.74152 0.64669 0.0
C1618 C 0.93125 0.71188 0.62942 0.0
C1619 C 0.9125 0.72198 0.65666 0.0
C1620 C 0.90546 0.72221 0.67913 0.0
C1621 C 0.92603 0.72323 0.61476 0.0
C1622 C 0.91377 0.73394 0.62107 0.0
C1623 C 0.90716 0.73321 0.6419 0.0
C1624 C 0.90718 0.74567 0.60599 0.0
C1625 C 0.93328 0.72343 0.5924 0.0
C1626 C 0.91702 0.75812 0.59922 0.0
C1627 C 0.91063 0.76914 0.58498 0.0
C1628 C 0.89433 0.76783 0.57718 0.0
C1629 C 0.88453 0.75535 0.58413 0.0
C1630 C 0.89087 0.74443 0.59847 0.0
H1631 H 0.94079 0.71295 0.58902 0.0
H1632 H 0.92328 0.7243 0.58021 0.0
H1633 H 0.94138 0.7337 0.59059 0.0
H1634 H 0.92961 0.75933 0.60502 0.0
H1635 H 0.91851 0.77856 0.57986 0.0
H1636 H 0.9672 0.12424 0.36731 0.0
H1637 H 0.99306 0.13209 0.38433 0.0
H1638 H 1.0031 0.16312 0.33168 0.0
H1639 H 0.97703 0.15531 0.31438 0.0
H1640 H 0.02657 0.13091 0.36646 0.0
H1641 H 1.00562 0.19034 0.38764 0.0
H1642 H 0.99112 0.17517 0.38103 0.0
H1643 H 1.00327 0.18399 0.36024 0.0
C1644 C 0.97489 0.1327 0.35924 0.0
C1645 C 0.97 0.13919 0.33951 0.0
C1646 C 0.98969 0.13716 0.369 0.0
C1647 C 0.99989 0.14829 0.35938 0.0
C1648 C 0.99528 0.15463 0.33947 0.0
H1649 H 0.08797 0.18614 0.42574 0.0
H1650 H 0.06687 0.18202 0.39785 0.0
C1651 C 0.98045 0.15009 0.32957 0.0
C1652 C 0.01521 0.15319 0.3706 0.0
H1653 H 0.03137 0.18227 0.40121 0.0
C1654 C 0.02775 0.14222 0.37379 0.0
C1655 C 0.01675 0.16799 0.38003 0.0
C1656 C 1.00349 0.1801 0.37724 0.0
C1657 C 0.04149 0.14543 0.38684 0.0
C1658 C 0.04255 0.15989 0.39733 0.0
C1659 C 0.03048 0.17118 0.39322 0.0
C1660 C 0.05516 0.16284 0.41418 0.0
C1661 C 0.05461 0.13318 0.38965 0.0
C1662 C 0.05526 0.15373 0.43281 0.0
C1663 C 0.06715 0.1561 0.44873 0.0
C1664 C 0.07924 0.16769 0.44646 0.0
C1665 C 0.07883 0.17714 0.42803 0.0
C1666 C 0.06685 0.17476 0.41204 0.0
H1667 H 0.05478 0.12504 0.37586 0.0
H1668 H 0.0671 0.13841 0.39136 0.0
H1669 H 0.0519 0.12642 0.40441 0.0
H1670 H 0.04607 0.14475 0.43507 0.0
H1671 H 0.06676 0.14887 0.46291 0.0
H1672 H 0.61076 0.23801 0.08563 0.0
H1673 H 0.59965 0.25793 0.10951 0.0
H1674 H 0.63786 0.28937 0.08868 0.0
H1675 H 0.64906 0.26956 0.06488 0.0
H1676 H 0.61484 0.27336 0.14329 0.0
H1677 H 0.59588 0.31472 0.07986 0.0
H1678 H 0.60109 0.29488 0.07409 0.0
H1679 H 0.61719 0.30898 0.07788 0.0
C1680 C 0.61685 0.24913 0.08618 0.0
C1681 C 0.63076 0.25219 0.07318 0.0
C1682 C 0.61043 0.26053 0.09977 0.0
C1683 C 0.61773 0.27523 0.10058 0.0
C1684 C 0.63175 0.27824 0.0879 0.0
H1685 H 0.60729 0.35918 0.17304 0.0
H1686 H 0.6153 0.33806 0.14919 0.0
C1687 C 0.63815 0.26688 0.07429 0.0
C1688 C 0.61101 0.28732 0.11507 0.0
H1689 H 0.59625 0.32429 0.11581 0.0
C1690 C 0.61061 0.28444 0.13729 0.0
C1691 C 0.60546 0.30176 0.10719 0.0
C1692 C 0.60475 0.30525 0.08344 0.0
C1693 C 0.60537 0.29582 0.15189 0.0
C1694 C 0.60019 0.31036 0.14402 0.0
C1695 C 0.6003 0.31314 0.12179 0.0
C1696 C 0.59514 0.32306 0.15862 0.0
C1697 C 0.60594 0.29237 0.17566 0.0
C1698 C 0.58103 0.3217 0.17167 0.0
C1699 C 0.57643 0.33376 0.18542 0.0
C1700 C 0.58588 0.34741 0.18635 0.0
C1701 C 0.59989 0.34876 0.17302 0.0
C1702 C 0.60443 0.33673 0.15926 0.0
H1703 H 0.61346 0.28193 0.17926 0.0
H1704 H 0.61116 0.3023 0.18468 0.0
H1705 H 0.59316 0.29032 0.18161 0.0
H1706 H 0.57354 0.31133 0.17119 0.0
H1707 H 0.56564 0.33229 0.19554 0.0
H1708 H 0.43432 0.88158 0.93732 0.0
H1709 H 0.45463 0.88619 0.90893 0.0
H1710 H 0.46615 0.83757 0.9074 0.0
H1711 H 0.44563 0.83287 0.93576 0.0
H1712 H 0.48754 0.8808 0.91236 0.0
H1713 H 0.46203 0.84743 0.84378 0.0
H1714 H 0.44988 0.85207 0.86729 0.0
H1715 H 0.4645 0.83642 0.86804 0.0
C1716 C 0.44109 0.87185 0.93084 0.0
C1717 C 0.43844 0.85687 0.93885 0.0
C1718 C 0.45264 0.87449 0.91455 0.0
C1719 C 0.46182 0.86222 0.90588 0.0
C1720 C 0.45896 0.84717 0.91349 0.0
H1721 H 0.54978 0.86151 0.8251 0.0
H1722 H 0.52584 0.85426 0.84711 0.0
C1723 C 0.44727 0.8445 0.92973 0.0
C1724 C 0.47526 0.8655 0.89022 0.0
H1725 H 0.48926 0.85757 0.83951 0.0
C1726 C 0.48784 0.87578 0.8964 0.0
C1727 C 0.47571 0.85886 0.86943 0.0
C1728 C 0.46224 0.84818 0.86161 0.0
C1729 C 0.50087 0.87956 0.88245 0.0
C1730 C 0.50127 0.87302 0.86165 0.0
C1731 C 0.48884 0.8626 0.85547 0.0
C1732 C 0.51465 0.87693 0.84627 0.0
C1733 C 0.51427 0.89039 0.89016 0.0
C1734 C 0.51598 0.89196 0.83802 0.0
C1735 C 0.52961 0.89615 0.82542 0.0
C1736 C 0.54217 0.88537 0.82087 0.0
C1737 C 0.54037 0.87011 0.82836 0.0
C1738 C 0.5267 0.86593 0.84091 0.0
H1739 H 0.51397 0.89192 0.90789 0.0
H1740 H 0.5267 0.88605 0.88546 0.0
H1741 H 0.5125 0.90187 0.88258 0.0
H1742 H 0.5067 0.90057 0.84183 0.0
H1743 H 0.53055 0.90797 0.81984 0.0
H1744 H 0.91986 0.23449 0.94223 0.0
H1745 H 0.93084 0.25417 0.91783 0.0
H1746 H 0.89128 0.28499 0.93599 0.0
H1747 H 0.88034 0.26545 0.96051 0.0
H1748 H 0.9165 0.26704 0.88317 0.0
H1749 H 0.9311 0.31282 0.94223 0.0
H1750 H 0.92648 0.29323 0.95015 0.0
H1751 H 0.90998 0.30652 0.94406 0.0
C1752 C 0.91352 0.24547 0.94106 0.0
C1753 C 0.89925 0.24841 0.95339 0.0
C1754 C 0.91985 0.25673 0.92717 0.0
C1755 C 0.91206 0.27117 0.92533 0.0
C1756 C 0.89779 0.27412 0.93757 0.0
H1757 H 0.91411 0.3349 0.81956 0.0
H1758 H 0.90852 0.31443 0.84545 0.0
C1759 C 0.89151 0.26291 0.95157 0.0
C1760 C 0.91834 0.28284 0.90981 0.0
H1761 H 0.93009 0.32059 0.90526 0.0
C1762 C 0.91963 0.27871 0.88805 0.0
C1763 C 0.9227 0.29799 0.91618 0.0
C1764 C 0.92267 0.30287 0.93946 0.0
C1765 C 0.92457 0.28946 0.8724 0.0
C1766 C 0.92796 0.30486 0.87861 0.0
C1767 C 0.92729 0.30884 0.90046 0.0
C1768 C 0.93165 0.31713 0.86262 0.0
C1769 C 0.92616 0.28419 0.84937 0.0
C1770 C 0.94635 0.32575 0.86393 0.0
C1771 C 0.94948 0.33768 0.84928 0.0
C1772 C 0.93791 0.3413 0.83312 0.0
C1773 C 0.92323 0.33258 0.83187 0.0
C1774 C 0.9201 0.3207 0.84652 0.0
H1775 H 0.92831 0.27153 0.84837 0.0
H1776 H 0.91448 0.28678 0.84069 0.0
H1777 H 0.93647 0.29022 0.84104 0.0
H1778 H 0.95537 0.32327 0.87635 0.0
H1779 H 0.96081 0.34426 0.85094 0.0
H1780 H 0.56006 0.1244 0.65613 0.0
H1781 H 0.53476 0.13259 0.63802 0.0
H1782 H 0.52223 0.16144 0.69209 0.0
H1783 H 0.54758 0.15312 0.7106 0.0
H1784 H 0.49511 0.1448 0.67558 0.0
H1785 H 0.52894 0.17527 0.61073 0.0
H1786 H 0.53542 0.15557 0.61382 0.0
H1787 H 0.53886 0.16911 0.63529 0.0
C1788 C 0.55192 0.13244 0.66428 0.0
C1789 C 0.55593 0.13821 0.68476 0.0
C1790 C 0.5375 0.13718 0.65382 0.0
C1791 C 0.52681 0.14789 0.66349 0.0
C1792 C 0.5304 0.15327 0.68427 0.0
H1793 H 0.4513 0.19275 0.5841 0.0
H1794 H 0.47377 0.18845 0.60971 0.0
C1795 C 0.54487 0.14849 0.69482 0.0
C1796 C 0.51201 0.15347 0.65166 0.0
H1797 H 0.50025 0.17017 0.60434 0.0
C1798 C 0.4962 0.1505 0.66011 0.0
C1799 C 0.51346 0.16119 0.63169 0.0
C1800 C 0.53008 0.16563 0.62243 0.0
C1801 C 0.48179 0.1544 0.64863 0.0
C1802 C 0.48328 0.1612 0.628 0.0
C1803 C 0.49909 0.1648 0.62003 0.0
C1804 C 0.46871 0.1641 0.61395 0.0
C1805 C 0.46514 0.1512 0.65872 0.0
C1806 C 0.45836 0.15186 0.60779 0.0
C1807 C 0.4454 0.1543 0.59328 0.0
C1808 C 0.4426 0.16902 0.58436 0.0
C1809 C 0.4529 0.18131 0.59076 0.0
C1810 C 0.46584 0.17885 0.60535 0.0
H1811 H 0.466 0.15088 0.67654 0.0
H1812 H 0.45588 0.16007 0.65403 0.0
H1813 H 0.46064 0.13976 0.65325 0.0
H1814 H 0.46054 0.14029 0.6138 0.0
H1815 H 0.43766 0.14459 0.58898 0.0
H1816 H 0.61511 0.7778 0.45145 0.0
H1817 H 0.60379 0.75703 0.42912 0.0
H1818 H 0.6533 0.74358 0.41104 0.0
H1819 H 0.66467 0.76423 0.43322 0.0
H1820 H 0.60712 0.7518 0.38539 0.0
H1821 H 0.63358 0.70299 0.43164 0.0
H1822 H 0.63289 0.72243 0.44205 0.0
H1823 H 0.64891 0.71681 0.4235 0.0
C1824 C 0.62358 0.77045 0.44269 0.0
C1825 C 0.64082 0.77261 0.44431 0.0
C1826 C 0.61709 0.75855 0.43 0.0
C1827 C 0.62771 0.74857 0.41875 0.0
C1828 C 0.64489 0.75087 0.42005 0.0
H1829 H 0.62082 0.67458 0.32727 0.0
H1830 H 0.62892 0.69557 0.35121 0.0
C1831 C 0.65137 0.7627 0.43276 0.0
C1832 C 0.62091 0.73597 0.40521 0.0
H1833 H 0.62288 0.69703 0.39684 0.0
C1834 C 0.61041 0.7398 0.38801 0.0
C1835 C 0.62518 0.72031 0.40871 0.0
C1836 C 0.63562 0.71534 0.4276 0.0
C1837 C 0.60456 0.72846 0.37375 0.0
C1838 C 0.60922 0.71288 0.37694 0.0
C1839 C 0.61943 0.70901 0.39437 0.0
C1840 C 0.60401 0.70043 0.36206 0.0
C1841 C 0.59389 0.73326 0.355 0.0
C1842 C 0.5873 0.69616 0.3603 0.0
C1843 C 0.58261 0.68403 0.34673 0.0
C1844 C 0.59457 0.67592 0.3347 0.0
C1845 C 0.61129 0.68037 0.33647 0.0
C1846 C 0.61595 0.69244 0.35007 0.0
H1847 H 0.59411 0.74595 0.35241 0.0
H1848 H 0.59804 0.72745 0.34002 0.0
H1849 H 0.58089 0.72973 0.35812 0.0
H1850 H 0.57792 0.70202 0.3697 0.0
H1851 H 0.56967 0.68082 0.34608 0.0
H1852 H 0.08107 0.87531 0.08535 0.0
H1853 H 0.05881 0.87876 0.11153 0.0
H1854 H 0.06016 0.83012 0.1262 0.0
H1855 H 0.08276 0.82661 0.10041 0.0
H1856 H 0.02759 0.86423 0.11098 0.0
H1857 H 0.06216 0.85067 0.18592 0.0
H1858 H 0.07243 0.85519 0.16089 0.0
H1859 H 0.06359 0.83639 0.16504 0.0
C1860 C 0.07683 0.86537 0.09435 0.0
C1861 C 0.08378 0.85069 0.0908 0.0
C1862 C 0.06403 0.86735 0.10923 0.0
C1863 C 0.05798 0.85474 0.12101 0.0
C1864 C 0.06483 0.84006 0.11754 0.0
H1865 H 0.97672 0.84544 0.21242 0.0
H1866 H 1.00115 0.84112 0.18984 0.0
C1867 C 0.07763 0.83805 0.1026 0.0
C1868 C 0.04403 0.85692 0.13625 0.0
H1869 H 0.0332 0.85449 0.18927 0.0
C1870 C 0.02882 0.86215 0.12811 0.0
C1871 C 0.04566 0.8541 0.15855 0.0
C1872 C 0.06186 0.84889 0.16823 0.0
C1873 C 0.01515 0.86453 0.14163 0.0
C1874 C 0.01682 0.86193 0.164 0.0
C1875 C 0.03198 0.85654 0.17214 0.0
C1876 C 1.00293 0.86483 0.1791 0.0
C1877 C 0.99892 0.86954 0.13179 0.0
C1878 C 0.99619 0.87969 0.18111 0.0
C1879 C 0.98223 0.8822 0.19394 0.0
C1880 C 0.97481 0.8699 0.20517 0.0
C1881 C 0.9821 0.85516 0.20396 0.0
C1882 C 0.99605 0.85266 0.19105 0.0
H1883 H 0.99848 0.86707 0.11427 0.0
H1884 H 0.9883 0.86367 0.13968 0.0
H1885 H 0.9974 0.88218 0.13398 0.0
H1886 H 1.00154 0.88931 0.17239 0.0
H1887 H 0.97704 0.89372 0.19464 0.0
H1888 H 0.64809 0.7583 0.98727 0.0
H1889 H 0.64428 0.78069 0.96384 0.0
H1890 H 0.59992 0.76023 0.93783 0.0
H1891 H 0.60353 0.73782 0.96135 0.0
H1892 H 0.64382 0.77946 0.91903 0.0
H1893 H 0.58535 0.80471 0.95026 0.0
H1894 H 0.5975 0.79099 0.96543 0.0
H1895 H 0.58425 0.78447 0.94408 0.0
C1896 C 0.63736 0.75864 0.97683 0.0
C1897 C 0.62612 0.74623 0.97621 0.0
C1898 C 0.63522 0.77146 0.96341 0.0
C1899 C 0.62174 0.77221 0.94921 0.0
C1900 C 0.61025 0.76004 0.94893 0.0
H1901 H 0.59403 0.83502 0.84592 0.0
H1902 H 0.59535 0.81417 0.87244 0.0
C1903 C 0.61238 0.7472 0.96234 0.0
C1904 C 0.62043 0.78518 0.93363 0.0
H1905 H 0.59559 0.81495 0.91739 0.0
C1906 C 0.63333 0.78728 0.91876 0.0
C1907 C 0.60666 0.79529 0.93318 0.0
C1908 C 0.5927 0.79389 0.94919 0.0
C1909 C 0.63275 0.79907 0.90326 0.0
C1910 C 0.61904 0.80927 0.90289 0.0
C1911 C 0.6061 0.80714 0.91771 0.0
C1912 C 0.61799 0.82223 0.88726 0.0
C1913 C 0.64664 0.80026 0.8871 0.0
C1914 C 0.6301 0.83386 0.88702 0.0
C1915 C 0.62938 0.8458 0.87189 0.0
C1916 C 0.61644 0.84645 0.85676 0.0
C1917 C 0.6041 0.83497 0.85739 0.0
C1918 C 0.60486 0.823 0.87251 0.0
H1919 H 0.6537 0.78928 0.88582 0.0
H1920 H 0.64184 0.80334 0.87093 0.0
H1921 H 0.65539 0.80942 0.89225 0.0
H1922 H 0.64012 0.83372 0.89859 0.0
H1923 H 0.6389 0.85459 0.87221 0.0
H1924 H 0.48254 0.39322 0.22962 0.0
H1925 H 0.45882 0.38538 0.20773 0.0
H1926 H 0.48924 0.3516 0.17555 0.0
H1927 H 0.5129 0.35911 0.19767 0.0
H1928 H 0.45554 0.3873 0.16478 0.0
H1929 H 0.44874 0.32625 0.18959 0.0
H1930 H 0.46137 0.3398 0.20432 0.0
H1931 H 0.46932 0.33059 0.18051 0.0
C1932 C 0.48413 0.38396 0.21811 0.0
C1933 C 0.49963 0.37676 0.21547 0.0
C1934 C 0.47055 0.37952 0.20556 0.0
C1935 C 0.47215 0.36777 0.19015 0.0
C1936 C 0.48756 0.36044 0.18766 0.0
H1937 H 0.41439 0.35306 0.0753 0.0
H1938 H 0.43409 0.36153 0.10261 0.0
C1939 C 0.50113 0.36481 0.20028 0.0
C1940 C 0.45801 0.36382 0.1758 0.0
H1941 H 0.43475 0.33369 0.15726 0.0
C1942 C 0.45089 0.3756 0.16329 0.0
C1943 C 0.45174 0.34861 0.17406 0.0
C1944 C 0.45807 0.33562 0.188 0.0
C1945 C 0.43808 0.37249 0.14863 0.0
C1946 C 0.43244 0.35713 0.14603 0.0
C1947 C 0.43918 0.34544 0.15905 0.0
C1948 C 0.4199 0.35282 0.12955 0.0
C1949 C 0.43063 0.38575 0.13619 0.0
C1950 C 0.40541 0.34491 0.1355 0.0
C1951 C 0.39415 0.33991 0.11985 0.0
C1952 C 0.39719 0.34267 0.09791 0.0
C1953 C 0.41156 0.35086 0.09204 0.0
C1954 C 0.42283 0.35578 0.10768 0.0
H1955 H 0.43241 0.3969 0.14469 0.0
H1956 H 0.43686 0.38664 0.12033 0.0
H1957 H 0.41717 0.38398 0.13344 0.0
H1958 H 0.4029 0.34242 0.15226 0.0
H1959 H 0.38326 0.33359 0.12495 0.0
H1960 H 0.91645 0.2867 0.45979 0.0
H1961 H 0.91922 0.26413 0.43639 0.0
H1962 H 0.8753 0.24426 0.46454 0.0
H1963 H 0.87233 0.2668 0.4879 0.0
H1964 H 0.92177 0.23183 0.44627 0.0
H1965 H 0.86506 0.24568 0.39946 0.0
H1966 H 0.875 0.25953 0.41689 0.0
H1967 H 0.86215 0.2446 0.42806 0.0
C1968 C 0.90743 0.27749 0.46113 0.0
C1969 C 0.89408 0.27863 0.47563 0.0
C1970 C 0.90905 0.26459 0.44774 0.0
C1971 C 0.89732 0.25264 0.44848 0.0
C1972 C 0.88432 0.25349 0.46344 0.0
H1973 H 0.8802 0.16987 0.37319 0.0
H1974 H 0.87933 0.19083 0.39943 0.0
C1975 C 0.8827 0.26636 0.47686 0.0
C1976 C 0.89846 0.23948 0.43327 0.0
H1977 H 0.8782 0.22193 0.39176 0.0
C1978 C 0.91228 0.22966 0.4343 0.0
C1979 C 0.88607 0.23671 0.41767 0.0
C1980 C 0.87129 0.24724 0.41524 0.0
C1981 C 0.91387 0.21694 0.42041 0.0
C1982 C 0.90147 0.21417 0.40479 0.0
C1983 C 0.88768 0.22403 0.40376 0.0
C1984 C 0.90247 0.20114 0.3893 0.0
C1985 C 0.92862 0.20639 0.42292 0.0
C1986 C 0.91572 0.19999 0.37475 0.0
C1987 C 0.91624 0.188 0.35967 0.0
C1988 C 0.90342 0.17701 0.35867 0.0
C1989 C 0.89017 0.17822 0.3733 0.0
C1990 C 0.8897 0.19016 0.3884 0.0
H1991 H 0.93439 0.20755 0.43906 0.0
H1992 H 0.92505 0.19413 0.42045 0.0
H1993 H 0.9381 0.20946 0.41072 0.0
H1994 H 0.92552 0.20853 0.37476 0.0
H1995 H 0.92648 0.18758 0.34846 0.0
H1996 H 0.13981 0.69651 0.62882 0.0
H1997 H 0.12035 0.68735 0.65612 0.0
H1998 H 0.091 0.66551 0.60684 0.0
H1999 H 0.11059 0.67433 0.57948 0.0
H2000 H 0.08801 0.69455 0.66006 0.0
H2001 H 0.09441 0.63125 0.65071 0.0
H2002 H 0.10894 0.64471 0.63905 0.0
H2003 H 0.08954 0.64078 0.62589 0.0
C2004 C 0.12935 0.68956 0.62379 0.0
C2005 C 0.12681 0.68611 0.60194 0.0
C2006 C 0.11821 0.68436 0.63944 0.0
C2007 C 0.1043 0.67558 0.6336 0.0
C2008 C 0.10183 0.67195 0.61183 0.0
H2009 H 1.012 0.6654 0.70278 0.0
H2010 H 0.0349 0.67372 0.67987 0.0
C2011 C 0.11302 0.67708 0.59617 0.0
C2012 C 0.09189 0.671 0.65012 0.0
H2013 H 0.07096 0.64006 0.67074 0.0
C2014 C 0.08438 0.68262 0.66251 0.0
C2015 C 0.0873 0.65542 0.65357 0.0
C2016 C 0.09559 0.64231 0.64176 0.0
C2017 C 0.07213 0.67913 0.67782 0.0
C2018 C 0.06696 0.66363 0.68051 0.0
C2019 C 0.07479 0.65197 0.66854 0.0
C2020 C 0.05326 0.65926 0.69532 0.0
C2021 C 0.06495 0.69209 0.69109 0.0
C2022 C 0.05586 0.64822 0.71152 0.0
C2023 C 0.04273 0.64333 0.72456 0.0
C2024 C 0.0267 0.64934 0.72162 0.0
C2025 C 0.0242 0.66062 0.70564 0.0
C2026 C 0.03732 0.66545 0.69256 0.0
H2027 H 0.07354 0.7021 0.69191 0.0
H2028 H 0.05327 0.69612 0.68356 0.0
H2029 H 0.06214 0.68821 0.70771 0.0
H2030 H 0.06804 0.64324 0.71391 0.0
H2031 H 0.0451 0.6346 0.73665 0.0
H2032 H 0.61069 0.27853 0.54519 0.0
H2033 H 0.60729 0.25453 0.56578 0.0
H2034 H 0.64191 0.27122 0.61315 0.0
H2035 H 0.64509 0.29521 0.59307 0.0
H2036 H 0.62944 0.23212 0.57835 0.0
H2037 H 0.60243 0.26022 0.65014 0.0
H2038 H 0.60468 0.27014 0.62478 0.0
H2039 H 0.62202 0.26847 0.64285 0.0
C2040 C 0.61759 0.27706 0.55998 0.0
C2041 C 0.62803 0.28886 0.56759 0.0
C2042 C 0.61562 0.26335 0.57174 0.0
C2043 C 0.62404 0.26122 0.59129 0.0
C2044 C 0.6349 0.27276 0.59846 0.0
H2045 H 0.64327 0.19015 0.68354 0.0
H2046 H 0.64296 0.21246 0.65941 0.0
C2047 C 0.63679 0.28646 0.58685 0.0
C2048 C 0.62167 0.24694 0.60425 0.0
H2049 H 0.61229 0.23433 0.65491 0.0
C2050 C 0.62547 0.23257 0.595 0.0
C2051 C 0.61635 0.24751 0.62595 0.0
C2052 C 0.61097 0.2624 0.63645 0.0
C2053 C 0.62481 0.21888 0.60716 0.0
C2054 C 0.62021 0.2196 0.62905 0.0
C2055 C 0.61594 0.23386 0.63814 0.0
C2056 C 0.62044 0.20577 0.64309 0.0
C2057 C 0.62952 0.20376 0.59683 0.0
C2058 C 0.60782 0.19467 0.64193 0.0
C2059 C 0.60792 0.1819 0.65578 0.0
C2060 C 0.62072 0.17998 0.67092 0.0
C2061 C 0.63337 0.19114 0.67189 0.0
C2062 C 0.63317 0.20394 0.6582 0.0
H2063 H 0.63404 0.2053 0.58009 0.0
H2064 H 0.63933 0.19798 0.60643 0.0
H2065 H 0.61859 0.19598 0.59657 0.0
H2066 H 0.59783 0.19596 0.63044 0.0
H2067 H 0.59808 0.17346 0.65451 0.0
H2068 H 0.02271 0.37313 0.80178 0.0
H2069 H 0.04833 0.36687 0.82134 0.0
H2070 H 0.02394 0.37684 0.8814 0.0
H2071 H 0.99849 0.38309 0.86221 0.0
H2072 H 0.06687 0.38648 0.85223 0.0
H2073 H 0.04303 0.3322 0.88821 0.0
H2074 H 0.03367 0.3411 0.86491 0.0
H2075 H 0.02951 0.34854 0.89133 0.0
C2076 C 0.02282 0.37398 0.81915 0.0
C2077 C 1.00851 0.37855 0.83042 0.0
C2078 C 0.03747 0.37043 0.83028 0.0
C2079 C 0.03796 0.37123 0.85283 0.0
C2080 C 0.02376 0.37595 0.86403 0.0
H2081 H 0.11171 0.37729 0.95097 0.0
H2082 H 0.0918 0.38218 0.92217 0.0
C2083 C 1.00922 0.37957 0.85298 0.0
C2084 C 0.0532 0.36718 0.86494 0.0
H2085 H 0.0676 0.34266 0.90366 0.0
C2086 C 0.06715 0.37679 0.86328 0.0
C2087 C 0.05359 0.35444 0.87917 0.0
C2088 C 0.03922 0.34337 0.88094 0.0
C2089 C 0.08122 0.37437 0.87622 0.0
C2090 C 0.08124 0.36212 0.8913 0.0
C2091 C 0.06756 0.35212 0.89222 0.0
C2092 C 0.09486 0.35985 0.90709 0.0
C2093 C 0.09589 0.38501 0.87374 0.0
C2094 C 0.10328 0.34568 0.90821 0.0
C2095 C 0.11466 0.34282 0.92472 0.0
C2096 C 0.11773 0.35404 0.94061 0.0
C2097 C 0.10971 0.36842 0.93899 0.0
C2098 C 0.09837 0.37127 0.92244 0.0
H2099 H 0.09601 0.39065 0.85769 0.0
H2100 H 0.09517 0.39422 0.8861 0.0
H2101 H 0.10772 0.37867 0.87599 0.0
H2102 H 0.1007 0.33666 0.89662 0.0
H2103 H 0.12056 0.3316 0.92548 0.0
H2104 H 0.93789 0.74278 0.05437 0.0
H2105 H 0.93692 0.76598 0.07683 0.0
H2106 H 0.88469 0.75891 0.08747 0.0
H2107 H 0.88552 0.73568 0.06517 0.0
H2108 H 0.9169 0.79325 0.07261 0.0
H2109 H 0.90446 0.7617 0.14871 0.0
H2110 H 0.91199 0.75219 0.12481 0.0
H2111 H 0.8905 0.75734 0.12706 0.0
C2112 C 0.92618 0.74617 0.06143 0.0
C2113 C 0.9118 0.73729 0.05805 0.0
C2114 C 0.92565 0.75944 0.07424 0.0
C2115 C 0.9108 0.76403 0.08408 0.0
C2116 C 0.89635 0.75542 0.08034 0.0
H2117 H 0.88226 0.83638 0.17283 0.0
H2118 H 0.88334 0.81455 0.14814 0.0
C2119 C 0.89684 0.74218 0.06748 0.0
C2120 C 0.91042 0.77777 0.09835 0.0
H2121 H 0.90313 0.78898 0.15013 0.0
C2122 C 0.91396 0.79234 0.08958 0.0
C2123 C 0.90657 0.77653 0.12047 0.0
C2124 C 0.9033 0.7611 0.13094 0.0
C2125 C 0.91338 0.80577 0.10226 0.0
C2126 C 0.90951 0.80454 0.12441 0.0
C2127 C 0.90606 0.78993 0.13316 0.0
C2128 C 0.90886 0.81822 0.13882 0.0
C2129 C 0.91649 0.82119 0.09169 0.0
C2130 C 0.92288 0.82755 0.14194 0.0
C2131 C 0.92227 0.84019 0.15593 0.0
C2132 C 0.90765 0.84372 0.16729 0.0
C2133 C 0.89366 0.83425 0.16418 0.0
C2134 C 0.89428 0.82165 0.15015 0.0
H2135 H 0.91475 0.82061 0.07399 0.0
H2136 H 0.90812 0.8302 0.09828 0.0
H2137 H 0.92947 0.82478 0.09482 0.0
H2138 H 0.93439 0.82496 0.13373 0.0
H2139 H 0.93326 0.84722 0.15773 0.0
H2140 H 0.42353 0.67119 0.45611 0.0
H2141 H 0.4446 0.66272 0.43037 0.0
H2142 H 0.41405 0.67855 0.37795 0.0
H2143 H 0.39311 0.68736 0.40354 0.0
H2144 H 0.44431 0.64223 0.397 0.0
H2145 H 0.45708 0.70125 0.36659 0.0
H2146 H 0.44486 0.69772 0.39038 0.0
H2147 H 0.43575 0.69568 0.36414 0.0
C2148 C 0.42123 0.67278 0.4391 0.0
C2149 C 0.40668 0.68009 0.43192 0.0
C2150 C 0.43331 0.66794 0.4244 0.0
C2151 C 0.43109 0.67031 0.40224 0.0
C2152 C 0.41625 0.67697 0.39499 0.0
H2153 H 0.49113 0.62754 0.30152 0.0
H2154 H 0.46866 0.63521 0.32565 0.0
C2155 C 0.40422 0.6819 0.40966 0.0
C2156 C 0.44437 0.66598 0.38677 0.0
H2157 H 0.46978 0.68057 0.34774 0.0
C2158 C 0.4499 0.65061 0.38624 0.0
C2159 C 0.45185 0.67698 0.37296 0.0
C2160 C 0.44722 0.69386 0.37364 0.0
C2161 C 0.46254 0.6459 0.37213 0.0
C2162 C 0.46962 0.65678 0.35781 0.0
C2163 C 0.46422 0.67219 0.35852 0.0
C2164 C 0.48299 0.65255 0.34242 0.0
C2165 C 0.46846 0.62938 0.37311 0.0
C2166 C 0.49834 0.66018 0.34315 0.0
C2167 C 0.51115 0.65597 0.32916 0.0
C2168 C 0.50889 0.64403 0.31412 0.0
C2169 C 0.49335 0.6367 0.31301 0.0
C2170 C 0.48051 0.64098 0.32693 0.0
H2171 H 0.46513 0.62381 0.38862 0.0
H2172 H 0.46251 0.62269 0.36001 0.0
H2173 H 0.4821 0.62869 0.37098 0.0
H2174 H 0.50052 0.66921 0.35485 0.0
H2175 H 0.52294 0.66187 0.33047 0.0
H2176 H 0.41575 0.17284 0.18865 0.0
H2177 H 0.40949 0.19348 0.1633 0.0
H2178 H 0.45905 0.21132 0.1704 0.0
H2179 H 0.46543 0.19064 0.19609 0.0
H2180 H 0.41089 0.22534 0.17193 0.0
H2181 H 0.45249 0.20867 0.10448 0.0
H2182 H 0.44702 0.19546 0.12581 0.0
H2183 H 0.46199 0.2104 0.13051 0.0
C2184 C 0.42534 0.18115 0.18493 0.0
C2185 C 0.44107 0.18013 0.19456 0.0
C2186 C 0.42175 0.19291 0.17033 0.0
C2187 C 0.43381 0.20389 0.16488 0.0
C2188 C 0.44964 0.20283 0.17415 0.0
H2189 H 0.40518 0.28989 0.0999 0.0
H2190 H 0.41797 0.27156 0.12481 0.0
C2191 C 0.45326 0.191 0.18881 0.0
C2192 C 0.4294 0.2167 0.15013 0.0
H2193 H 0.43671 0.2314 0.10004 0.0
C2194 C 0.41661 0.22676 0.15627 0.0
C2195 C 0.43683 0.21842 0.12968 0.0
C2196 C 0.45027 0.20762 0.12205 0.0
C2197 C 0.41082 0.23832 0.14237 0.0
C2198 C 0.41821 0.24003 0.12188 0.0
C2199 C 0.43117 0.23012 0.11583 0.0
C2200 C 0.41184 0.25135 0.106 0.0
C2201 C 0.39642 0.24823 0.14942 0.0
C2202 C 0.40466 0.24612 0.08681 0.0
C2203 C 0.39748 0.25656 0.07245 0.0
C2204 C 0.39736 0.27249 0.07694 0.0
C2205 C 0.40509 0.27774 0.09585 0.0
C2206 C 0.41228 0.26727 0.11023 0.0
H2207 H 0.38996 0.24331 0.16365 0.0
H2208 H 0.40103 0.25987 0.15381 0.0
H2209 H 0.3873 0.24958 0.1362 0.0
H2210 H 0.40427 0.23389 0.08319 0.0
H2211 H 0.39193 0.25213 0.05788 0.0
H2212 H 0.47684 0.6303 0.84164 0.0
H2213 H 0.50104 0.63561 0.86397 0.0
H2214 H 0.50642 0.68023 0.83395 0.0
H2215 H 0.48199 0.67514 0.81174 0.0
H2216 H 0.53372 0.6427 0.85379 0.0
H2217 H 0.50363 0.69103 0.89779 0.0
H2218 H 0.49213 0.67789 0.88094 0.0
H2219 H 0.50415 0.69315 0.86907 0.0
C2220 C 0.4832 0.64122 0.83965 0.0
C2221 C 0.47736 0.65236 0.82502 0.0
C2222 C 0.49706 0.64423 0.85244 0.0
C2223 C 0.50534 0.65843 0.85093 0.0
C2224 C 0.49998 0.66933 0.83573 0.0
H2225 H 0.5872 0.69468 0.92831 0.0
H2226 H 0.56599 0.69119 0.90066 0.0
C2227 C 0.48608 0.66635 0.82294 0.0
C2228 C 0.51935 0.66184 0.86563 0.0
H2229 H 0.53145 0.68556 0.90661 0.0
C2230 C 0.53325 0.6521 0.86529 0.0
C2231 C 0.51871 0.67413 0.88063 0.0
C2232 C 0.50381 0.68459 0.88234 0.0
C2233 C 0.5465 0.65427 0.8796 0.0
C2234 C 0.54572 0.66636 0.89484 0.0
C2235 C 0.532 0.67631 0.89488 0.0
C2236 C 0.55866 0.66846 0.91149 0.0
C2237 C 0.56126 0.64363 0.87826 0.0
C2238 C 0.56137 0.65695 0.92697 0.0
C2239 C 0.57337 0.65895 0.94291 0.0
C2240 C 0.58292 0.67254 0.94377 0.0
C2241 C 0.58002 0.68413 0.92832 0.0
C2242 C 0.56796 0.68213 0.9124 0.0
H2243 H 0.56199 0.63778 0.86239 0.0
H2244 H 0.57298 0.65004 0.88104 0.0
H2245 H 0.56016 0.63459 0.89083 0.0
H2246 H 0.55405 0.64646 0.92686 0.0
H2247 H 0.57496 0.6499 0.95472 0.0
H2248 H 0.06827 0.83485 0.69495 0.0
H2249 H 0.07832 0.81481 0.67069 0.0
H2250 H 0.11645 0.84546 0.64769 0.0
H2251 H 0.10627 0.86581 0.67139 0.0
H2252 H 0.08342 0.81754 0.62246 0.0
H2253 H 0.14028 0.80452 0.6697 0.0
H2254 H 0.12238 0.81382 0.68142 0.0
H2255 H 0.13601 0.82454 0.66418 0.0
C2256 C 0.07866 0.8375 0.68461 0.0
C2257 C 0.08645 0.85206 0.68532 0.0
C2258 C 0.08443 0.82594 0.6708 0.0
C2259 C 0.0982 0.82863 0.65759 0.0
C2260 C 0.10591 0.84313 0.658 0.0
H2261 H 0.15751 0.77203 0.5728 0.0
H2262 H 0.14587 0.79245 0.59496 0.0
C2263 C 0.10009 0.85473 0.67167 0.0
C2264 C 0.10456 0.81624 0.64342 0.0
H2265 H 0.13717 0.79166 0.63656 0.0
C2266 C 0.09514 0.81182 0.62551 0.0
C2267 C 0.11987 0.8089 0.64748 0.0
C2268 C 0.13024 0.81305 0.6668 0.0
C2269 C 0.10081 0.80041 0.61124 0.0
C2270 C 0.1161 0.79294 0.61537 0.0
C2271 C 0.12546 0.79737 0.63338 0.0
C2272 C 0.12276 0.78061 0.60117 0.0
C2273 C 0.09058 0.79678 0.59158 0.0
C2274 C 0.11369 0.76707 0.59729 0.0
C2275 C 0.12022 0.75539 0.58427 0.0
C2276 C 0.1361 0.75687 0.57506 0.0
C2277 C 0.14517 0.77045 0.57919 0.0
C2278 C 0.13858 0.78216 0.59206 0.0
H2279 H 0.08204 0.80641 0.58751 0.0
H2280 H 0.09859 0.79442 0.57744 0.0
H2281 H 0.08295 0.78637 0.59477 0.0
H2282 H 0.10161 0.76544 0.60453 0.0
H2283 H 0.11274 0.74523 0.58146 0.0
H2284 H 0.95086 0.37278 0.45621 0.0
H2285 H 0.97121 0.3758 0.42759 0.0
H2286 H 0.95622 0.33226 0.40035 0.0
H2287 H 0.93545 0.32924 0.42867 0.0
H2288 H 0.99176 0.33673 0.40594 0.0
H2289 H 0.96168 0.38547 0.36307 0.0
H2290 H 0.96375 0.38807 0.3916 0.0
H2291 H 0.95058 0.37303 0.38144 0.0
C2292 C 0.95163 0.36391 0.44403 0.0
C2293 C 0.94132 0.3508 0.44481 0.0
C2294 C 0.96334 0.36567 0.42766 0.0
C2295 C 0.96505 0.35437 0.4117 0.0
C2296 C 0.95501 0.34116 0.41248 0.0
H2297 H 0.04127 0.34716 0.31106 0.0
H2298 H 0.01672 0.34211 0.33312 0.0
C2299 C 0.9432 0.33942 0.42881 0.0
C2300 C 0.97771 0.35621 0.39463 0.0
H2301 H 0.98959 0.37989 0.35349 0.0
C2302 C 0.99123 0.34603 0.39427 0.0
C2303 C 0.97695 0.36839 0.3795 0.0
C2304 C 0.9624 0.37931 0.37871 0.0
C2305 C 1.00439 0.34811 0.37976 0.0
C2306 C 1.00379 0.36048 0.36487 0.0
C2307 C 0.99004 0.37041 0.36489 0.0
C2308 C 0.01777 0.3639 0.35008 0.0
C2309 C 0.01915 0.33745 0.38117 0.0
C2310 C 0.02605 0.37811 0.35156 0.0
C2311 C 0.03994 0.38111 0.33881 0.0
C2312 C 0.04586 0.36994 0.32429 0.0
C2313 C 0.03713 0.35596 0.32218 0.0
C2314 C 0.02316 0.353 0.3349 0.0
H2315 H 0.0194 0.33096 0.39658 0.0
H2316 H 0.01857 0.32893 0.36788 0.0
H2317 H 0.03092 0.34401 0.37959 0.0
H2318 H 0.02205 0.38673 0.36306 0.0
H2319 H 0.04632 0.39201 0.34083 0.0
H2320 H 0.41028 0.85083 0.33525 0.0
H2321 H 0.40326 0.83081 0.36133 0.0
H2322 H 0.45466 0.81753 0.36513 0.0
H2323 H 0.4618 0.83751 0.3388 0.0
H2324 H 0.40883 0.79899 0.35604 0.0
H2325 H 0.44047 0.82186 0.42874 0.0
H2326 H 0.43617 0.83369 0.40547 0.0
H2327 H 0.45311 0.82026 0.40503 0.0
C2328 C 0.42012 0.84367 0.34159 0.0
C2329 C 0.4366 0.84575 0.33482 0.0
C2330 C 0.41609 0.83227 0.35658 0.0
C2331 C 0.42844 0.82276 0.36527 0.0
C2332 C 0.44497 0.82493 0.35889 0.0
H2333 H 0.40704 0.73512 0.42943 0.0
H2334 H 0.4185 0.75504 0.40581 0.0
C2335 C 0.44903 0.83636 0.34385 0.0
C2336 C 0.42376 0.81011 0.38015 0.0
H2337 H 0.42789 0.79727 0.43182 0.0
C2338 C 0.41303 0.79857 0.37259 0.0
C2339 C 0.42919 0.80969 0.40176 0.0
C2340 C 0.44027 0.82208 0.41088 0.0
C2341 C 0.4075 0.78665 0.38608 0.0
C2342 C 0.41303 0.78613 0.40764 0.0
C2343 C 0.42379 0.79765 0.41522 0.0
C2344 C 0.40714 0.7741 0.42278 0.0
C2345 C 0.39541 0.77494 0.37732 0.0
C2346 C 0.39737 0.77825 0.4405 0.0
C2347 C 0.3909 0.76691 0.45413 0.0
C2348 C 0.39415 0.75118 0.45035 0.0
C2349 C 0.40437 0.74711 0.43291 0.0
C2350 C 0.41081 0.75847 0.41927 0.0
H2351 H 0.38967 0.77886 0.36203 0.0
H2352 H 0.40203 0.76395 0.37414 0.0
H2353 H 0.38541 0.77256 0.38914 0.0
H2354 H 0.39447 0.79027 0.44355 0.0
H2355 H 0.38333 0.77048 0.46759 0.0
H2356 H 0.04462 0.65389 0.214 0.0
H2357 H 0.01868 0.66146 0.19621 0.0
H2358 H 0.02764 0.62777 0.14654 0.0
H2359 H 0.05333 0.62012 0.1641 0.0
H2360 H 0.01563 0.67305 0.15363 0.0
H2361 H 0.97948 0.61927 0.16404 0.0
H2362 H 0.99756 0.62364 0.18004 0.0
H2363 H 0.99982 0.61579 0.15342 0.0
C2364 C 0.04092 0.64795 0.19946 0.0
C2365 C 0.05102 0.63637 0.19049 0.0
C2366 C 0.02614 0.65232 0.18929 0.0
C2367 C 0.02113 0.64503 0.17021 0.0
C2368 C 0.03109 0.63334 0.16147 0.0
H2369 H 0.95774 0.64964 0.06342 0.0
H2370 H 0.9779 0.645 0.09177 0.0
C2371 C 0.04584 0.62904 0.17149 0.0
C2372 C 1.00607 0.6501 0.15851 0.0
H2373 H 0.97072 0.63618 0.1355 0.0
C2374 C 1.0056 0.66513 0.15001 0.0
C2375 C 0.99301 0.63975 0.15388 0.0
C2376 C 0.99237 0.62376 0.1635 0.0
C2377 C 0.99295 0.66972 0.13584 0.0
C2378 C 0.98041 0.65905 0.13028 0.0
C2379 C 0.98043 0.64431 0.13968 0.0
C2380 C 0.96806 0.66235 0.11324 0.0
C2381 C 0.99359 0.68562 0.12595 0.0
C2382 C 0.9558 0.67369 0.11589 0.0
C2383 C 0.94409 0.67634 0.09965 0.0
C2384 C 0.94442 0.66762 0.08055 0.0
C2385 C 0.95686 0.65638 0.078 0.0
C2386 C 0.96848 0.65375 0.09418 0.0
H2387 H 1.00539 0.69169 0.12959 0.0
H2388 H 0.99212 0.68489 0.10823 0.0
H2389 H 0.98321 0.69267 0.13232 0.0
H2390 H 0.95514 0.68033 0.13062 0.0
H2391 H 0.9346 0.68496 0.10225 0.0
H2392 H 0.10541 0.2861 0.94782 0.0
H2393 H 0.09461 0.26628 0.92356 0.0
H2394 H 0.13328 0.23514 0.9438 0.0
H2395 H 0.14406 0.25483 0.96813 0.0
H2396 H 0.10948 0.25278 0.88973 0.0
H2397 H 0.09288 0.2079 0.94929 0.0
H2398 H 0.09756 0.22753 0.9569 0.0
H2399 H 0.11403 0.21397 0.9519 0.0
C2400 C 0.1116 0.27503 0.94714 0.0
C2401 C 0.12558 0.27205 0.96 0.0
C2402 C 0.10536 0.26368 0.93333 0.0
C2403 C 0.11293 0.24911 0.93213 0.0
C2404 C 0.12692 0.24612 0.94489 0.0
H2405 H 0.11487 0.18434 0.82853 0.0
H2406 H 0.11904 0.20515 0.85423 0.0
C2407 C 0.13311 0.25742 0.95878 0.0
C2408 C 0.10683 0.23733 0.91668 0.0
H2409 H 0.09512 0.19954 0.91259 0.0
C2410 C 0.10615 0.24119 0.89477 0.0
C2411 C 0.10219 0.22228 0.92325 0.0
C2412 C 0.10152 0.21771 0.94665 0.0
C2413 C 0.10167 0.23024 0.87919 0.0
C2414 C 0.09811 0.21492 0.88563 0.0
C2415 C 0.09806 0.21123 0.90762 0.0
C2416 C 0.09523 0.20239 0.86977 0.0
C2417 C 0.10081 0.23521 0.85596 0.0
C2418 C 0.08062 0.1936 0.87026 0.0
C2419 C 0.07828 0.18145 0.8557 0.0
C2420 C 0.09059 0.17778 0.84049 0.0
C2421 C 0.10519 0.18667 0.8401 0.0
C2422 C 0.10751 0.19875 0.85464 0.0
H2423 H 0.09854 0.24782 0.85451 0.0
H2424 H 0.11282 0.23266 0.84803 0.0
H2425 H 0.09088 0.22896 0.84721 0.0
H2426 H 0.07103 0.19611 0.88194 0.0
H2427 H 0.06698 0.17475 0.85666 0.0
H2428 H 0.56101 0.36422 0.56218 0.0
H2429 H 0.54074 0.36589 0.59121 0.0
H2430 H 0.56934 0.33363 0.62877 0.0
H2431 H 0.58994 0.33209 0.59979 0.0
H2432 H 0.52216 0.34094 0.61019 0.0
H2433 H 0.56219 0.37184 0.66901 0.0
H2434 H 0.56691 0.37119 0.64064 0.0
H2435 H 0.57043 0.35452 0.65714 0.0
C2436 C 0.56311 0.35758 0.57667 0.0
C2437 C 0.57719 0.34812 0.57872 0.0
C2438 C 0.55145 0.35848 0.5932 0.0
C2439 C 0.55363 0.35002 0.61221 0.0
C2440 C 0.56754 0.3404 0.6143 0.0
H2441 H 0.47329 0.34184 0.70679 0.0
H2442 H 0.49717 0.3357 0.68406 0.0
C2443 C 0.57921 0.33943 0.59767 0.0
C2444 C 0.54116 0.35133 0.62963 0.0
H2445 H 0.53482 0.36632 0.67977 0.0
C2446 C 0.52494 0.34633 0.62551 0.0
C2447 C 0.54485 0.3585 0.64948 0.0
C2448 C 0.56199 0.36444 0.65442 0.0
C2449 C 0.51221 0.34854 0.64058 0.0
C2450 C 0.51585 0.35582 0.66037 0.0
C2451 C 0.53212 0.36063 0.66464 0.0
C2452 C 0.50262 0.35949 0.67611 0.0
C2453 C 0.49482 0.34359 0.63488 0.0
C2454 C 0.49817 0.37492 0.67981 0.0
C2455 C 0.48456 0.37848 0.6928 0.0
C2456 C 0.47517 0.36665 0.70243 0.0
C2457 C 0.48019 0.35123 0.69956 0.0
C2458 C 0.49379 0.34768 0.6865 0.0
H2459 H 0.49357 0.34074 0.61755 0.0
H2460 H 0.4915 0.33318 0.64435 0.0
H2461 H 0.48579 0.35283 0.63891 0.0
H2462 H 0.50487 0.3842 0.67199 0.0
H2463 H 0.48109 0.39048 0.69474 0.0
H2464 H 0.09923 0.46002 0.33105 0.0
H2465 H 0.09803 0.48632 0.31698 0.0
H2466 H 0.0999 0.46864 0.25224 0.0
H2467 H 0.10099 0.44222 0.26626 0.0
H2468 H 0.12061 0.50155 0.29278 0.0
H2469 H 0.06115 0.49814 0.24842 0.0
H2470 H 0.06754 0.48356 0.26744 0.0
H2471 H 0.07583 0.48363 0.24059 0.0
C2472 C 0.09941 0.46169 0.31381 0.0
C2473 C 0.10022 0.44897 0.29979 0.0
C2474 C 0.09864 0.47676 0.30579 0.0
C2475 C 0.09864 0.4795 0.28354 0.0
C2476 C 0.09946 0.46683 0.26946 0.0
H2477 H 0.10492 0.56172 0.2044 0.0
H2478 H 0.10353 0.53544 0.21867 0.0
C2479 C 0.10013 0.45172 0.27749 0.0
C2480 C 0.09851 0.49563 0.27524 0.0
H2481 H 0.0775 0.52064 0.24255 0.0
C2482 C 0.11111 0.50574 0.28192 0.0
C2483 C 0.08612 0.50112 0.26104 0.0
C2484 C 0.0718 0.49111 0.2541 0.0
C2485 C 0.11185 0.52106 0.2745 0.0
C2486 C 0.09954 0.5265 0.2602 0.0
C2487 C 0.08692 0.51643 0.25352 0.0
C2488 C 0.0998 0.54253 0.25164 0.0
C2489 C 0.12602 0.5312 0.28162 0.0
C2490 C 0.09787 0.55526 0.26539 0.0
C2491 C 0.0987 0.57034 0.25727 0.0
C2492 C 0.1015 0.57297 0.23524 0.0
C2493 C 0.10305 0.56015 0.22148 0.0
C2494 C 0.10214 0.5451 0.22959 0.0
H2495 H 0.1363 0.52437 0.28875 0.0
H2496 H 0.13097 0.538 0.26789 0.0
H2497 H 0.12152 0.53944 0.29396 0.0
H2498 H 0.09582 0.55353 0.28243 0.0
H2499 H 0.09753 0.57992 0.26833 0.0
H2500 H 0.82834 0.8196 0.53659 0.0
H2501 H 0.79892 0.8216 0.528 0.0
H2502 H 0.80639 0.86795 0.50462 0.0
H2503 H 0.83595 0.86616 0.51347 0.0
H2504 H 0.77767 0.86478 0.52983 0.0
H2505 H 0.7806 0.81959 0.46688 0.0
H2506 H 0.78835 0.81327 0.49245 0.0
H2507 H 0.79892 0.82839 0.4781 0.0
C2508 C 0.82378 0.83026 0.52966 0.0
C2509 C 0.83458 0.84268 0.52556 0.0
C2510 C 0.80693 0.83135 0.52467 0.0
C2511 C 0.80049 0.84481 0.51528 0.0
C2512 C 0.81111 0.85741 0.51173 0.0
H2513 H 0.70533 0.84576 0.44962 0.0
H2514 H 0.73445 0.84903 0.45926 0.0
C2515 C 0.82801 0.85636 0.51678 0.0
C2516 C 0.78275 0.84556 0.50891 0.0
H2517 H 0.75372 0.82761 0.47778 0.0
C2518 C 0.77243 0.85672 0.51835 0.0
C2519 C 0.77596 0.8352 0.49369 0.0
C2520 C 0.78654 0.82353 0.48201 0.0
C2521 C 0.75543 0.85753 0.51341 0.0
C2522 C 0.74851 0.84673 0.49886 0.0
C2523 C 0.75894 0.83582 0.48906 0.0
C2524 C 0.73053 0.8464 0.49348 0.0
C2525 C 0.74509 0.87006 0.52359 0.0
C2526 C 0.71852 0.84403 0.50952 0.0
C2527 C 0.70178 0.84225 0.50405 0.0
C2528 C 0.69674 0.84262 0.4824 0.0
C2529 C 0.70875 0.84539 0.46645 0.0
C2530 C 0.72543 0.84724 0.47193 0.0
H2531 H 0.75287 0.87988 0.52906 0.0
H2532 H 0.73561 0.87448 0.51221 0.0
H2533 H 0.73861 0.86528 0.53785 0.0
H2534 H 0.72215 0.84299 0.52621 0.0
H2535 H 0.69289 0.84002 0.51673 0.0
H2536 H 0.42728 0.4617 0.69737 0.0
H2537 H 0.42816 0.48785 0.71194 0.0
H2538 H 0.42589 0.46948 0.77631 0.0
H2539 H 0.42494 0.44323 0.76184 0.0
H2540 H 0.40472 0.50238 0.73707 0.0
H2541 H 0.46486 0.49937 0.78005 0.0
H2542 H 0.45865 0.48517 0.76041 0.0
H2543 H 0.45054 0.48438 0.78731 0.0
C2544 C 0.42692 0.46317 0.71463 0.0
C2545 C 0.426 0.4503 0.72841 0.0
C2546 C 0.42752 0.47816 0.72294 0.0
C2547 C 0.4273 0.48065 0.74522 0.0
C2548 C 0.42645 0.46785 0.75907 0.0
H2549 H 0.42253 0.56139 0.82698 0.0
H2550 H 0.42376 0.53545 0.81174 0.0
C2551 C 0.42589 0.45282 0.75076 0.0
C2552 C 0.42724 0.49667 0.75383 0.0
H2553 H 0.4483 0.52159 0.78648 0.0
C2554 C 0.4143 0.50661 0.74777 0.0
C2555 C 0.43974 0.50218 0.7678 0.0
C2556 C 0.45433 0.49229 0.77415 0.0
C2557 C 0.41333 0.52179 0.75565 0.0
C2558 C 0.42579 0.52729 0.76969 0.0
C2559 C 0.43876 0.51737 0.7757 0.0
C2560 C 0.42536 0.54317 0.77874 0.0
C2561 C 0.39872 0.53167 0.74932 0.0
C2562 C 0.42609 0.55618 0.76528 0.0
C2563 C 0.42527 0.57109 0.77395 0.0
C2564 C 0.42374 0.57329 0.79628 0.0
C2565 C 0.42337 0.56019 0.80971 0.0
C2566 C 0.42421 0.54531 0.80103 0.0
H2567 H 0.38835 0.52464 0.74285 0.0
H2568 H 0.39411 0.53844 0.76325 0.0
H2569 H 0.40262 0.53992 0.73663 0.0
H2570 H 0.42727 0.55481 0.74804 0.0
H2571 H 0.42554 0.58087 0.76311 0.0
H2572 H 0.82879 0.19859 0.9856 0.0
H2573 H 0.79905 0.19766 0.99295 0.0
H2574 H 0.80385 0.15075 0.01533 0.0
H2575 H 0.83369 0.15162 1.0083 0.0
H2576 H 0.77471 0.17819 0.97662 0.0
H2577 H 0.77973 0.17163 0.06521 0.0
H2578 H 0.79709 0.17726 0.04865 0.0
H2579 H 0.79079 0.15737 0.04993 0.0
C2580 C 0.82356 0.18805 0.9921 0.0
C2581 C 0.8337 0.1752 0.99646 0.0
C2582 C 0.80652 0.18755 0.99628 0.0
C2583 C 0.79922 0.17423 1.00501 0.0
C2584 C 0.80923 0.16127 1.00902 0.0
H2585 H 0.69707 0.15448 0.04427 0.0
H2586 H 0.72659 0.15256 0.03543 0.0
C2587 C 0.8263 0.16176 1.00485 0.0
C2588 C 0.78111 0.17394 1.00969 0.0
H2589 H 0.75282 0.17024 0.05034 0.0
C2590 C 0.76993 0.17646 0.99274 0.0
C2591 C 0.77484 0.17163 0.03072 0.0
C2592 C 0.7862 0.16945 0.04974 0.0
C2593 C 0.75271 0.17665 0.99621 0.0
C2594 C 0.74645 0.17456 0.01728 0.0
C2595 C 0.75761 0.17183 0.03419 0.0
C2596 C 0.72841 0.17562 0.02224 0.0
C2597 C 0.74136 0.17887 0.97718 0.0
C2598 C 0.71961 0.18927 0.01799 0.0
C2599 C 0.70274 0.1904 0.02298 0.0
C2600 C 0.69428 0.17794 0.03251 0.0
C2601 C 0.70315 0.1643 0.03689 0.0
C2602 C 0.72005 0.16318 0.03187 0.0
H2603 H 0.7476 0.17578 0.96184 0.0
H2604 H 0.72996 0.1718 0.97882 0.0
H2605 H 0.73768 0.1912 0.97619 0.0
H2606 H 0.72585 0.19916 1.01103 0.0
H2607 H 0.69638 0.20113 0.0195 0.0
H2608 H 0.94123 0.45496 0.79937 0.0
H2609 H 0.94538 0.4821 0.79044 0.0
H2610 H 0.99132 0.47081 0.75882 0.0
H2611 H 0.98745 0.44354 0.76802 0.0
H2612 H 0.97294 0.50121 0.80224 0.0
H2613 H 0.96525 0.49644 0.71368 0.0
H2614 H 0.95839 0.48157 0.732 0.0
H2615 H 0.97999 0.4834 0.72553 0.0
C2616 C 0.9523 0.45817 0.79064 0.0
C2617 C 0.96404 0.44697 0.78452 0.0
C2618 C 0.95459 0.47373 0.78546 0.0
C2619 C 0.96858 0.47846 0.77385 0.0
C2620 C 0.9803 0.46737 0.76753 0.0
H2621 H 1.00214 0.56688 0.72528 0.0
H2622 H 0.99902 0.53984 0.73559 0.0
C2623 C 0.97804 0.45176 0.77277 0.0
C2624 C 0.971 0.49507 0.76881 0.0
H2625 H 0.9732 0.5208 0.72729 0.0
C2626 C 0.97298 0.50552 0.78586 0.0
C2627 C 0.97104 0.50064 0.74744 0.0
C2628 C 0.96843 0.48999 0.72856 0.0
C2629 C 0.97528 0.52139 0.78211 0.0
C2630 C 0.97522 0.527 0.76072 0.0
C2631 C 0.97324 0.51651 0.74368 0.0
C2632 C 0.97743 0.54364 0.75553 0.0
C2633 C 0.97817 0.53193 0.80105 0.0
C2634 C 0.96638 0.55486 0.76337 0.0
C2635 C 0.96818 0.57041 0.75752 0.0
C2636 C 0.98093 0.57498 0.74347 0.0
C2637 C 0.99205 0.56373 0.73587 0.0
C2638 C 0.99032 0.54826 0.74181 0.0
H2639 H 0.98242 0.52541 0.81542 0.0
H2640 H 0.98751 0.54093 0.79718 0.0
H2641 H 0.96638 0.53778 0.80527 0.0
H2642 H 0.95611 0.55155 0.77359 0.0
H2643 H 0.9593 0.57876 0.76341 0.0
H2644 H 0.33417 0.20699 0.50834 0.0
H2645 H 0.30476 0.20689 0.49848 0.0
H2646 H 0.29438 0.17579 0.55093 0.0
H2647 H 0.32363 0.17535 0.56033 0.0
H2648 H 0.27931 0.16681 0.51411 0.0
H2649 H 0.26693 0.22893 0.52938 0.0
H2650 H 0.28348 0.22523 0.51075 0.0
H2651 H 0.28561 0.21944 0.53836 0.0
C2652 C 0.32566 0.20005 0.51767 0.0
C2653 C 0.33133 0.19129 0.53528 0.0
C2654 C 0.30879 0.20016 0.51218 0.0
C2655 C 0.29728 0.19157 0.52423 0.0
C2656 C 0.30297 0.18263 0.54152 0.0
H2657 H 0.18951 0.19574 0.52846 0.0
H2658 H 0.21929 0.19834 0.53563 0.0
C2659 C 0.31975 0.18249 0.54697 0.0
C2660 C 0.27935 0.19145 0.51869 0.0
H2661 H 0.24494 0.21431 0.5144 0.0
C2662 C 0.27182 0.17721 0.51414 0.0
C2663 C 0.26951 0.20499 0.51904 0.0
C2664 C 0.27671 0.22051 0.52483 0.0
C2665 C 0.25478 0.17611 0.50987 0.0
C2666 C 0.245 0.18969 0.50969 0.0
C2667 C 0.25248 0.20394 0.51437 0.0
C2668 C 0.22697 0.1892 0.50482 0.0
C2669 C 0.24733 0.16035 0.50609 0.0
C2670 C 0.2214 0.18363 0.48493 0.0
C2671 C 0.20446 0.18211 0.48085 0.0
C2672 C 0.19266 0.18626 0.49649 0.0
C2673 C 0.19825 0.19247 0.51607 0.0
C2674 C 0.21526 0.19392 0.5202 0.0
H2675 H 0.25541 0.151 0.51238 0.0
H2676 H 0.23497 0.15937 0.51382 0.0
H2677 H 0.24578 0.15851 0.48856 0.0
H2678 H 0.23018 0.18029 0.47261 0.0
H2679 H 0.2006 0.17765 0.46539 0.0
H2680 H 0.56277 0.57949 0.25226 0.0
H2681 H 0.56093 0.5525 0.24034 0.0
H2682 H 0.54476 0.53898 0.30368 0.0
H2683 H 0.5462 0.56579 0.31548 0.0
H2684 H 0.57846 0.52706 0.25797 0.0
H2685 H 0.51054 0.51839 0.26443 0.0
H2686 H 0.51992 0.53732 0.26392 0.0
H2687 H 0.51989 0.52614 0.28829 0.0
C2688 C 0.55856 0.5708 0.26351 0.0
C2689 C 0.55468 0.57481 0.28484 0.0
C2690 C 0.55761 0.55538 0.25673 0.0
C2691 C 0.55254 0.54375 0.27107 0.0
C2692 C 0.54846 0.54777 0.29225 0.0
H2693 H 0.54259 0.44359 0.26715 0.0
H2694 H 0.54399 0.47078 0.27803 0.0
C2695 C 0.54947 0.56311 0.29903 0.0
C2696 C 0.55224 0.52729 0.26434 0.0
H2697 H 0.52696 0.4958 0.25989 0.0
C2698 C 0.56718 0.52025 0.25821 0.0
C2699 C 0.53754 0.51839 0.26484 0.0
C2700 C 0.52103 0.52545 0.27054 0.0
C2701 C 0.56788 0.50447 0.25299 0.0
C2702 C 0.55318 0.49555 0.25353 0.0
C2703 C 0.53823 0.50261 0.25959 0.0
C2704 C 0.55295 0.47899 0.24728 0.0
C2705 C 0.58443 0.49741 0.24746 0.0
C2706 C 0.55747 0.47457 0.2264 0.0
C2707 C 0.55677 0.45908 0.22021 0.0
C2708 C 0.55139 0.44762 0.23469 0.0
C2709 C 0.54695 0.45206 0.25567 0.0
C2710 C 0.54765 0.46761 0.26186 0.0
H2711 H 0.59488 0.50449 0.25361 0.0
H2712 H 0.58553 0.48556 0.25414 0.0
H2713 H 0.58566 0.49668 0.22972 0.0
H2714 H 0.56133 0.48315 0.21475 0.0
H2715 H 0.56046 0.45611 0.20401 0.0
H2716 H 0.18607 0.81858 0.99631 0.0
H2717 H 0.21512 0.82045 0.98457 0.0
H2718 H 0.22829 0.84035 0.04575 0.0
H2719 H 0.19948 0.83886 0.05726 0.0
H2720 H 0.24225 0.85575 1.01099 0.0
H2721 H 0.25309 0.79241 1.00618 0.0
H2722 H 0.23593 0.79972 0.9908 0.0
H2723 H 0.23531 0.80059 0.01962 0.0
C2724 C 0.19516 0.82349 1.00712 0.0
C2725 C 0.19049 0.82841 0.0278 0.0
C2726 C 0.21176 0.8244 1.0005 0.0
C2727 C 0.22393 0.83028 0.01445 0.0
C2728 C 0.21916 0.83564 0.03479 0.0
H2729 H 0.33086 0.82395 0.01909 0.0
H2730 H 0.30088 0.82088 0.02408 0.0
C2731 C 0.20267 0.83469 0.0414 0.0
C2732 C 0.24168 0.83099 1.00817 0.0
H2733 H 0.27557 0.80864 0.99723 0.0
C2734 C 0.24951 0.84546 1.00781 0.0
C2735 C 0.25118 0.81753 1.00437 0.0
C2736 C 0.24355 0.80164 1.00539 0.0
C2737 C 0.26659 0.84685 1.00392 0.0
C2738 C 0.27608 0.83341 0.99992 0.0
C2739 C 0.26825 0.81893 1.00017 0.0
C2740 C 0.29422 0.83422 0.99596 0.0
C2741 C 0.27441 0.86267 1.00481 0.0
C2742 C 0.30041 0.84236 0.97819 0.0
C2743 C 0.31748 0.84413 0.97533 0.0
C2744 C 0.32877 0.83772 0.9901 0.0
C2745 C 0.32253 0.829 1.0074 0.0
C2746 C 0.30541 0.82727 1.0103 0.0
H2747 H 0.26632 0.87117 1.01313 0.0
H2748 H 0.28654 0.86227 1.01321 0.0
H2749 H 0.27656 0.86689 0.98819 0.0
H2750 H 0.29202 0.84752 0.96665 0.0
H2751 H 0.32183 0.85059 0.96154 0.0
H2752 H 0.58106 0.94416 0.7668 0.0
H2753 H 0.58165 0.9704 0.75189 0.0
H2754 H 0.61607 0.98423 0.8012 0.0
H2755 H 0.61583 0.95808 0.81587 0.0
H2756 H 0.57351 0.99892 0.77313 0.0
H2757 H 0.63869 0.99777 0.74464 0.0
H2758 H 0.62734 0.98044 0.75131 0.0
H2759 H 0.63602 0.99221 0.77226 0.0
C2760 C 0.5889 0.95273 0.77431 0.0
C2761 C 0.59842 0.94897 0.79253 0.0
C2762 C 0.58913 0.96775 0.76586 0.0
C2763 C 0.59902 0.97922 0.77531 0.0
C2764 C 0.6085 0.97551 0.79349 0.0
H2765 H 0.59641 0.07926 0.76175 0.0
H2766 H 0.59361 0.05258 0.77429 0.0
C2767 C 0.60823 0.96057 0.80198 0.0
C2768 C 0.59936 0.99514 0.76641 0.0
H2769 H 0.62523 0.02216 0.74459 0.0
C2770 C 0.58479 1.004 0.76678 0.0
C2771 C 0.61405 1.00169 0.75796 0.0
C2772 C 0.62989 0.99252 0.75629 0.0
C2773 C 0.58461 0.01935 0.75934 0.0
C2774 C 0.59943 0.02605 0.75154 0.0
C2775 C 0.61391 0.01707 0.75076 0.0
C2776 C 0.60023 0.04228 0.74378 0.0
C2777 C 0.56852 0.0282 0.75966 0.0
C2778 C 0.60502 0.0454 0.72254 0.0
C2779 C 0.60663 0.06062 0.71534 0.0
C2780 C 0.60361 0.07313 0.72926 0.0
C2781 C 0.59863 0.06996 0.7505 0.0
C2782 C 0.59701 0.05469 0.75771 0.0
H2783 H 0.55765 0.02038 0.761 0.0
H2784 H 0.56841 0.03605 0.77375 0.0
H2785 H 0.56715 0.03534 0.74493 0.0
H2786 H 0.60756 0.03602 0.71151 0.0
H2787 H 0.61023 0.06255 0.6988 0.0
H2788 H 0.32618 0.32129 0.03583 0.0
H2789 H 0.29637 0.32321 0.02953 0.0
H2790 H 0.30273 0.36933 1.00476 0.0
H2791 H 0.33267 0.36751 1.01089 0.0
H2792 H 0.27348 0.3451 0.04619 0.0
H2793 H 0.27648 0.34711 0.95693 0.0
H2794 H 0.29375 0.34092 0.97323 0.0
H2795 H 0.28898 0.3611 0.97078 0.0
C2796 C 0.32129 0.33186 0.02901 0.0
C2797 C 0.33188 0.34423 0.02379 0.0
C2798 C 0.30421 0.33293 0.02545 0.0
C2799 C 0.29732 0.34633 0.01642 0.0
C2800 C 0.3078 0.35878 1.01141 0.0
H2801 H 0.1953 0.3674 0.97825 0.0
H2802 H 0.22504 0.36884 0.98587 0.0
C2803 C 0.32491 0.35774 0.01503 0.0
C2804 C 0.27916 0.34722 1.01251 0.0
H2805 H 0.25005 0.34971 0.97276 0.0
C2806 C 0.26834 0.34613 0.03014 0.0
C2807 C 0.27247 0.34863 0.99157 0.0
C2808 C 0.28347 0.34939 0.97198 0.0
C2809 C 0.25105 0.34645 0.02742 0.0
C2810 C 0.24434 0.34753 1.00644 0.0
C2811 C 0.25517 0.34887 0.98883 0.0
C2812 C 0.22616 0.34684 1.00234 0.0
C2813 C 0.24015 0.34586 0.04712 0.0
C2814 C 0.21687 0.33394 1.00886 0.0
C2815 C 0.19987 0.33311 1.00461 0.0
C2816 C 0.19176 0.3451 0.99352 0.0
C2817 C 0.20111 0.35798 0.98688 0.0
C2818 C 0.21813 0.35881 0.9912 0.0
H2819 H 0.24687 0.34982 0.06169 0.0
H2820 H 0.22891 0.35311 0.04504 0.0
H2821 H 0.23616 0.33377 0.04993 0.0
H2822 H 0.22282 0.32438 0.01699 0.0
H2823 H 0.19312 0.32297 1.00983 0.0
H2824 H 0.92086 0.06232 0.32595 0.0
H2825 H 0.92261 0.03598 0.31218 0.0
H2826 H 0.92546 0.05356 0.24741 0.0
H2827 H 0.92378 0.08003 0.26113 0.0
H2828 H 0.90105 0.02144 0.28543 0.0
H2829 H 0.96349 0.02292 0.24821 0.0
H2830 H 0.95635 0.03767 0.26649 0.0
H2831 H 0.9499 0.03788 0.23882 0.0
C2832 C 0.92187 0.06062 0.30877 0.0
C2833 C 0.92212 0.07332 0.29464 0.0
C2834 C 0.92295 0.04553 0.30092 0.0
C2835 C 0.92436 0.04275 0.27878 0.0
C2836 C 0.92476 0.0554 0.2646 0.0
H2837 H 0.92147 0.96056 0.19956 0.0
H2838 H 0.9227 0.98679 0.21388 0.0
C2839 C 0.92377 0.07054 0.27246 0.0
C2840 C 0.92452 0.0266 0.2706 0.0
H2841 H 0.9469 1.00085 0.24074 0.0
C2842 C 0.91113 0.01692 0.27578 0.0
C2843 C 0.93767 0.02069 0.25798 0.0
C2844 C 0.95275 0.03027 0.25269 0.0
C2845 C 0.91038 1.00161 0.26838 0.0
C2846 C 0.92348 0.99572 0.25569 0.0
C2847 C 0.93688 1.00538 0.2505 0.0
C2848 C 0.92326 0.97969 0.2472 0.0
C2849 C 0.89536 0.99197 0.27376 0.0
C2850 C 0.92344 0.96693 0.26117 0.0
C2851 C 0.92266 0.95187 0.25302 0.0
C2852 C 0.92168 0.94927 0.23072 0.0
C2853 C 0.92189 0.9621 0.2168 0.0
C2854 C 0.92272 0.97713 0.22495 0.0
H2855 H 0.88483 0.99918 0.27938 0.0
H2856 H 0.89128 0.98517 0.25959 0.0
H2857 H 0.89857 0.98374 0.2868 0.0
H2858 H 0.9241 0.96863 0.27839 0.0
H2859 H 0.92247 0.94229 0.2642 0.0
H2860 H 0.33894 0.68406 0.52365 0.0
H2861 H 0.30996 0.6817 0.53503 0.0
H2862 H 0.29418 0.68447 0.46895 0.0
H2863 H 0.32303 0.68683 0.45742 0.0
H2864 H 0.28541 0.70486 0.52579 0.0
H2865 H 0.2674 0.64749 0.49349 0.0
H2866 H 0.28874 0.65299 0.49776 0.0
H2867 H 0.27766 0.66008 0.47475 0.0
C2868 C 0.32933 0.68389 0.5115 0.0
C2869 C 0.33332 0.68566 0.48961 0.0
C2870 C 0.31277 0.68257 0.51804 0.0
C2871 C 0.29992 0.68276 0.50283 0.0
C2872 C 0.3039 0.68404 0.48094 0.0
H2873 H 0.19231 0.68807 0.50717 0.0
H2874 H 0.22139 0.68479 0.4966 0.0
C2875 C 0.32042 0.68547 0.47439 0.0
C2876 C 0.28234 0.68299 0.50989 0.0
H2877 H 0.24564 0.66344 0.50651 0.0
C2878 C 0.27674 0.69574 0.52175 0.0
C2879 C 0.27101 0.67118 0.50435 0.0
C2880 C 0.27647 0.65708 0.49203 0.0
C2881 C 0.26006 0.69716 0.52788 0.0
C2882 C 0.24871 0.68529 0.52252 0.0
C2883 C 0.25432 0.67251 0.51067 0.0
C2884 C 0.23097 0.68604 0.52904 0.0
C2885 C 0.25467 0.71165 0.53944 0.0
C2886 C 0.22663 0.68734 0.55082 0.0
C2887 C 0.21008 0.68934 0.55687 0.0
C2888 C 0.19746 0.68985 0.5413 0.0
C2889 C 0.20173 0.68776 0.51956 0.0
C2890 C 0.21835 0.68589 0.51349 0.0
H2891 H 0.26352 0.72129 0.53681 0.0
H2892 H 0.24219 0.71541 0.53406 0.0
H2893 H 0.25414 0.70932 0.55697 0.0
H2894 H 0.23608 0.68706 0.56316 0.0
H2895 H 0.20723 0.69071 0.57377 0.0
H2896 H 0.49174 0.07905 0.25963 0.0
H2897 H 0.4953 0.05155 0.2681 0.0
H2898 H 0.44711 0.04186 0.24155 0.0
H2899 H 0.44331 0.06911 0.23343 0.0
H2900 H 0.475 0.03184 0.29392 0.0
H2901 H 0.47796 0.01155 0.20956 0.0
H2902 H 0.48092 0.03154 0.21694 0.0
H2903 H 0.46037 0.02365 0.21492 0.0
C2904 C 0.48186 0.07109 0.25572 0.0
C2905 C 0.46731 0.07634 0.24557 0.0
C2906 C 0.48396 0.05536 0.26046 0.0
C2907 C 0.47162 0.04462 0.255 0.0
C2908 C 0.45698 0.04988 0.24537 0.0
H2909 H 0.44335 0.95582 0.30009 0.0
H2910 H 0.44769 0.98302 0.29197 0.0
C2911 C 0.45484 0.06552 0.24071 0.0
C2912 C 0.47365 0.02793 0.25979 0.0
H2913 H 0.47238 0.99229 0.23631 0.0
C2914 C 0.47467 0.02319 0.28132 0.0
C2915 C 0.47346 0.01665 0.24333 0.0
C2916 C 0.47328 0.02108 0.21987 0.0
C2917 C 0.4746 1.00745 0.28687 0.0
C2918 C 0.47329 0.99619 0.27046 0.0
C2919 C 0.47319 1.00092 0.24888 0.0
C2920 C 0.47096 0.97955 0.27544 0.0
C2921 C 0.47572 1.00301 0.31028 0.0
C2922 C 0.48237 0.96844 0.26828 0.0
C2923 C 0.47995 0.95276 0.27297 0.0
C2924 C 0.466 0.94789 0.28478 0.0
C2925 C 0.45444 0.9591 0.29145 0.0
C2926 C 0.45689 0.97471 0.28681 0.0
H2927 H 0.48149 0.01232 0.32001 0.0
H2928 H 0.46305 1.00098 0.31663 0.0
H2929 H 0.48301 0.99224 0.31241 0.0
H2930 H 0.49325 0.97192 0.25929 0.0
H2931 H 0.48915 0.94451 0.26767 0.0
H2932 H 0.82537 0.66207 0.0327 0.0
H2933 H 0.79594 0.66588 0.02583 0.0
H2934 H 0.8048 0.714 1.01225 0.0
H2935 H 0.83436 0.7104 0.01983 0.0
H2936 H 0.77716 0.70887 0.03905 0.0
H2937 H 0.77487 0.67161 0.96669 0.0
H2938 H 0.78348 0.66213 0.9898 0.0
H2939 H 0.79411 0.67836 0.9781 0.0
C2940 C 0.82113 0.67351 0.02841 0.0
C2941 C 0.83232 0.68593 0.02683 0.0
C2942 C 0.80427 0.67563 0.02426 0.0
C2943 C 0.79819 0.69017 0.01824 0.0
C2944 C 0.80925 0.70265 0.01677 0.0
H2945 H 0.70126 0.70387 0.96147 0.0
H2946 H 0.73079 0.70384 0.96976 0.0
C2947 C 0.82617 0.70054 0.02093 0.0
C2948 C 0.78027 0.69226 0.01363 0.0
H2949 H 0.74897 0.67917 0.98156 0.0
C2950 C 0.77099 0.70246 0.0264 0.0
C2951 C 0.77228 0.68402 0.99697 0.0
C2952 C 0.78171 0.67353 0.98196 0.0
C2953 C 0.75384 0.70439 0.02324 0.0
C2954 C 0.74575 0.69569 1.00709 0.0
C2955 C 0.75513 0.68573 0.99408 0.0
C2956 C 0.72765 0.69692 1.00294 0.0
C2957 C 0.74462 0.71587 0.037 0.0
C2958 C 0.71596 0.69318 0.01889 0.0
C2959 C 0.69896 0.69322 0.01417 0.0
C2960 C 0.6934 0.69678 0.99332 0.0
C2961 C 0.70514 0.70082 0.97757 0.0
C2962 C 0.72204 0.70088 0.98232 0.0
H2963 H 0.75314 0.72444 0.04435 0.0
H2964 H 0.73512 0.72213 0.02746 0.0
H2965 H 0.73823 0.70963 0.0502 0.0
H2966 H 0.71998 0.68978 0.0348 0.0
H2967 H 0.69024 0.68992 0.02656 0.0
H2968 H 0.04273 0.07509 0.77542 0.0
H2969 H 0.03855 0.04774 0.76683 0.0
H2970 H 0.08623 0.0369 0.79414 0.0
H2971 H 0.09052 0.0641 0.80265 0.0
H2972 H 0.05752 0.02768 0.74148 0.0
H2973 H 0.05537 1.00731 0.82607 0.0
H2974 H 0.05358 0.02744 0.8189 0.0
H2975 H 0.07356 0.01827 0.81947 0.0
C2976 C 0.05237 0.06691 0.77946 0.0
C2977 C 0.06688 0.07181 0.78997 0.0
C2978 C 0.04993 0.05127 0.77464 0.0
C2979 C 0.06192 0.04022 0.78028 0.0
C2980 C 0.0766 0.04514 0.79018 0.0
H2981 H 0.06928 0.94013 0.76266 0.0
H2982 H 0.07456 0.96721 0.77223 0.0
C2983 C 0.07903 0.06073 0.79503 0.0
C2984 C 0.05922 0.02359 0.77554 0.0
H2985 H 0.05617 0.98798 0.79905 0.0
C2986 C 0.05716 0.01901 0.75407 0.0
C2987 C 0.05883 0.01226 0.79199 0.0
C2988 C 0.0603 0.01654 0.81542 0.0
C2989 C 0.05491 1.00342 0.74857 0.0
C2990 C 0.05443 0.99211 0.76502 0.0
C2991 C 0.0566 0.99666 0.78647 0.0
C2992 C 0.05105 0.9756 0.76025 0.0
C2993 C 0.05331 0.99914 0.72515 0.0
C2994 C 0.03592 0.97129 0.751 0.0
C2995 C 0.03286 0.9559 0.74565 0.0
C2996 C 0.04485 0.94441 0.74948 0.0
C2997 C 0.05978 0.94866 0.75954 0.0
C2998 C 0.06284 0.96413 0.76491 0.0
H2999 H 0.05833 1.00831 0.71447 0.0
H3000 H 0.05987 0.98816 0.72165 0.0
H3001 H 0.04001 0.99756 0.72118 0.0
H3002 H 0.02647 0.97987 0.7478 0.0
H3003 H 0.02106 0.95301 0.73845 0.0
H3004 H 0.69626 0.35966 0.52048 0.0
H3005 H 0.72606 0.35582 0.51687 0.0
H3006 H 0.71953 0.30678 0.52558 0.0
H3007 H 0.6895 0.31058 0.529 0.0
H3008 H 0.74758 0.3441 0.5463 0.0
H3009 H 0.74844 0.3082 0.47221 0.0
H3010 H 0.73021 0.31852 0.4809 0.0
H3011 H 0.736 0.30076 0.49381 0.0
C3012 C 0.70113 0.34805 0.52163 0.0
C3013 C 0.69049 0.33543 0.52509 0.0
C3014 C 0.71819 0.34586 0.51951 0.0
C3015 C 0.72507 0.33101 0.52077 0.0
C3016 C 0.7145 0.31832 0.5241 0.0
H3017 H 0.83184 0.30869 0.51137 0.0
H3018 H 0.80216 0.30647 0.52005 0.0
C3019 C 0.69734 0.3205 0.52608 0.0
C3020 C 0.74336 0.3291 0.51923 0.0
H3021 H 0.77424 0.31351 0.48845 0.0
C3022 C 0.75339 0.33732 0.53372 0.0
C3023 C 0.75097 0.32018 0.50289 0.0
C3024 C 0.7409 0.3115 0.48643 0.0
C3025 C 0.77073 0.33719 0.53199 0.0
C3026 C 0.77828 0.32869 0.51527 0.0
C3027 C 0.76837 0.31997 0.50128 0.0
C3028 C 0.79629 0.32994 0.51087 0.0
C3029 C 0.78089 0.34639 0.5478 0.0
C3030 C 0.80275 0.34383 0.50287 0.0
C3031 C 0.81955 0.34509 0.49783 0.0
C3032 C 0.83031 0.33249 0.50077 0.0
C3033 C 0.82388 0.31862 0.50914 0.0
C3034 C 0.80695 0.31732 0.51397 0.0
H3035 H 0.77367 0.34932 0.56246 0.0
H3036 H 0.79216 0.3399 0.5526 0.0
H3037 H 0.78491 0.35733 0.5401 0.0
H3038 H 0.79471 0.35367 0.50024 0.0
H3039 H 0.82415 0.35595 0.49162 0.0
loop_
_geom_bond_atom_site_label_1
_geom_bond_atom_site_label_2
_geom_bond_distance
_geom_bond_site_symmetry_2
_ccdc_geom_bond_type
Cu0 N1 1.999 . S
Cu0 O6 1.974 . S
Cu0 N11 1.985 . S
Cu0 O20 1.959 . S
N1 Cu0 1.999 . S
N1 C3 1.263 . S
N1 C5 1.389 . S
N2 C3 1.358 . S
N2 C4 1.400 . S
C3 N1 1.263 . S
C3 N2 1.358 . S
C3 H9 0.930 . S
C4 N2 1.400 . S
C4 C5 1.351 . S
C4 H21 0.930 . S
C5 N1 1.389 . S
C5 C4 1.351 . S
C5 H10 0.930 . S
O6 Cu0 1.974 . S
O6 C16 1.282 . S
C7 O8 1.261 . S
C7 O20 1.251 . S
O8 C7 1.261 . S
H9 C3 0.930 . S
H10 C5 0.930 . S
N11 Cu0 1.985 . S
N11 C13 1.335 . S
N11 C14 1.390 . S
N12 C13 1.345 . S
N12 C15 1.336 . S
C13 N11 1.335 . S
C13 N12 1.345 . S
C13 H18 0.930 . S
C14 N11 1.390 . S
C14 C15 1.346 . S
C14 H19 0.930 . S
C15 N12 1.336 . S
C15 C14 1.346 . S
C15 H22 0.929 . S
C16 O6 1.282 . S
C16 O17 1.216 . S
O17 C16 1.216 . S
H18 C13 0.930 . S
H19 C14 0.930 . S
O20 Cu0 1.959 . S
O20 C7 1.251 . S
H21 C4 0.930 . S
H22 C15 0.929 . S
Cu23 N24 1.999 . S
Cu23 O29 1.974 . S
Cu23 N34 1.985 . S
Cu23 O43 1.959 . S
N24 Cu23 1.999 . S
N24 C26 1.263 . S
N24 C28 1.389 . S
N25 C26 1.358 . S
N25 C27 1.400 . S
C26 N24 1.263 . S
C26 N25 1.358 . S
C26 H32 0.930 . S
C27 N25 1.400 . S
C27 C28 1.351 . S
C27 H44 0.930 . S
C28 N24 1.389 . S
C28 C27 1.351 . S
C28 H33 0.930 . S
O29 Cu23 1.974 . S
O29 C39 1.282 . S
C30 O31 1.261 . S
C30 O43 1.251 . S
O31 C30 1.261 . S
H32 C26 0.930 . S
H33 C28 0.930 . S
N34 Cu23 1.985 . S
N34 C36 1.335 . S
N34 C37 1.390 . S
N35 C36 1.345 . S
N35 C38 1.336 . S
C36 N34 1.335 . S
C36 N35 1.345 . S
C36 H41 0.930 . S
C37 N34 1.390 . S
C37 C38 1.346 . S
C37 H42 0.930 . S
C38 N35 1.336 . S
C38 C37 1.346 . S
C38 H45 0.929 . S
C39 O29 1.282 . S
C39 O40 1.216 . S
O40 C39 1.216 . S
H41 C36 0.930 . S
H42 C37 0.930 . S
O43 Cu23 1.959 . S
O43 C30 1.251 . S
H44 C27 0.930 . S
H45 C38 0.929 . S
Cu46 N47 1.999 . S
Cu46 O52 1.974 . S
Cu46 N57 1.985 . S
Cu46 O66 1.959 . S
N47 Cu46 1.999 . S
N47 C49 1.263 . S
N47 C51 1.389 . S
N48 C49 1.358 . S
N48 C50 1.400 . S
C49 N47 1.263 . S
C49 N48 1.358 . S
C49 H55 0.930 . S
C50 N48 1.400 . S
C50 C51 1.351 . S
C50 H67 0.930 . S
C51 N47 1.389 . S
C51 C50 1.351 . S
C51 H56 0.930 . S
O52 Cu46 1.974 . S
O52 C62 1.282 . S
C53 O54 1.261 . S
C53 O66 1.251 . S
O54 C53 1.261 . S
H55 C49 0.930 . S
H56 C51 0.930 . S
N57 Cu46 1.985 . S
N57 C59 1.335 . S
N57 C60 1.390 . S
N58 C59 1.345 . S
N58 C61 1.336 . S
C59 N57 1.335 . S
C59 N58 1.345 . S
C59 H64 0.930 . S
C60 N57 1.390 . S
C60 C61 1.346 . S
C60 H65 0.930 . S
C61 N58 1.336 . S
C61 C60 1.346 . S
C61 H68 0.929 . S
C62 O52 1.282 . S
C62 O63 1.216 . S
O63 C62 1.216 . S
H64 C59 0.930 . S
H65 C60 0.930 . S
O66 Cu46 1.959 . S
O66 C53 1.251 . S
H67 C50 0.930 . S
H68 C61 0.929 . S
Cu69 N70 1.999 . S
Cu69 O75 1.974 . S
Cu69 N80 1.985 . S
Cu69 O89 1.959 . S
N70 Cu69 1.999 . S
N70 C72 1.265 1_554 S
N70 C74 1.369 1_554 S
N71 C72 1.354 . S
N71 C73 1.400 . S
C72 N70 1.265 1_556 S
C72 N71 1.354 . S
C72 H78 0.931 1_556 S
C73 N71 1.400 . S
C73 C74 1.385 . S
C73 H90 0.930 . S
C74 N70 1.369 1_556 S
C74 C73 1.385 . S
C74 H79 0.919 1_556 S
O75 Cu69 1.974 . S
O75 C85 1.282 . S
C76 O77 1.261 . S
C76 O89 1.251 . S
O77 C76 1.261 . S
H78 C72 0.931 1_554 S
H79 C74 0.919 1_554 S
N80 Cu69 1.985 . S
N80 C82 1.335 . S
N80 C83 1.390 . S
N81 C82 1.345 . S
N81 C84 1.336 . S
C82 N80 1.335 . S
C82 N81 1.345 . S
C82 H87 0.930 . S
C83 N80 1.390 . S
C83 C84 1.346 . S
C83 H88 0.930 . S
C84 N81 1.336 . S
C84 C83 1.346 . S
C84 H91 0.929 . S
C85 O75 1.282 . S
C85 O86 1.216 . S
O86 C85 1.216 . S
H87 C82 0.930 . S
H88 C83 0.930 . S
O89 Cu69 1.959 . S
O89 C76 1.251 . S
H90 C73 0.930 . S
H91 C84 0.929 . S
Cu92 N93 1.999 . S
Cu92 O98 1.974 . S
Cu92 N103 1.985 . S
Cu92 O112 1.959 . S
N93 Cu92 1.999 . S
N93 C95 1.263 . S
N93 C97 1.389 . S
N94 C95 1.358 . S
N94 C96 1.400 . S
C95 N93 1.263 . S
C95 N94 1.358 . S
C95 H101 0.930 . S
C96 N94 1.400 . S
C96 C97 1.351 . S
C96 H113 0.930 . S
C97 N93 1.389 . S
C97 C96 1.351 . S
C97 H102 0.930 . S
O98 Cu92 1.974 . S
O98 C108 1.282 . S
C99 O100 1.261 . S
C99 O112 1.251 . S
O100 C99 1.261 . S
H101 C95 0.930 . S
H102 C97 0.930 . S
N103 Cu92 1.985 . S
N103 C105 1.335 . S
N103 C106 1.390 . S
N104 C105 1.345 . S
N104 C107 1.336 . S
C105 N103 1.335 . S
C105 N104 1.345 . S
C105 H110 0.930 . S
C106 N103 1.390 . S
C106 C107 1.346 . S
C106 H111 0.930 . S
C107 N104 1.336 . S
C107 C106 1.346 . S
C107 H114 0.929 . S
C108 O98 1.282 . S
C108 O109 1.216 . S
O109 C108 1.216 . S
H110 C105 0.930 . S
H111 C106 0.930 . S
O112 Cu92 1.959 . S
O112 C99 1.251 . S
H113 C96 0.930 . S
H114 C107 0.929 . S
Cu115 N116 1.999 . S
Cu115 O121 1.974 . S
Cu115 N126 1.985 . S
Cu115 O135 1.959 . S
N116 Cu115 1.999 . S
N116 C118 1.263 . S
N116 C120 1.389 . S
N117 C118 1.358 . S
N117 C119 1.400 . S
C118 N116 1.263 . S
C118 N117 1.358 . S
C118 H124 0.930 . S
C119 N117 1.400 . S
C119 C120 1.351 . S
C119 H136 0.930 . S
C120 N116 1.389 . S
C120 C119 1.351 . S
C120 H125 0.930 . S
O121 Cu115 1.974 . S
O121 C131 1.282 . S
C122 O123 1.261 . S
C122 O135 1.251 . S
O123 C122 1.261 . S
H124 C118 0.930 . S
H125 C120 0.930 . S
N126 Cu115 1.985 . S
N126 C128 1.335 . S
N126 C129 1.390 . S
N127 C128 1.345 . S
N127 C130 1.336 . S
C128 N126 1.335 . S
C128 N127 1.345 . S
C128 H133 0.930 . S
C129 N126 1.390 . S
C129 C130 1.346 . S
C129 H134 0.930 . S
C130 N127 1.336 . S
C130 C129 1.346 . S
C130 H137 0.929 . S
C131 O121 1.282 . S
C131 O132 1.216 . S
O132 C131 1.216 . S
H133 C128 0.930 . S
H134 C129 0.930 . S
O135 Cu115 1.959 . S
O135 C122 1.251 . S
H136 C119 0.930 . S
H137 C130 0.929 . S
Cu138 N139 1.999 . S
Cu138 O144 1.974 . S
Cu138 N149 1.985 . S
Cu138 O158 1.959 . S
N139 Cu138 1.999 . S
N139 C141 1.263 . S
N139 C143 1.389 . S
N140 C141 1.358 . S
N140 C142 1.400 . S
C141 N139 1.263 . S
C141 N140 1.358 . S
C141 H147 0.930 . S
C142 N140 1.400 . S
C142 C143 1.351 . S
C142 H159 0.930 . S
C143 N139 1.389 . S
C143 C142 1.351 . S
C143 H148 0.930 . S
O144 Cu138 1.974 . S
O144 C154 1.282 . S
C145 O146 1.261 . S
C145 O158 1.251 . S
O146 C145 1.261 . S
H147 C141 0.930 . S
H148 C143 0.930 . S
N149 Cu138 1.985 . S
N149 C151 1.335 . S
N149 C152 1.390 . S
N150 C151 1.345 . S
N150 C153 1.336 . S
C151 N149 1.335 . S
C151 N150 1.345 . S
C151 H156 0.930 . S
C152 N149 1.390 . S
C152 C153 1.346 . S
C152 H157 0.930 . S
C153 N150 1.336 . S
C153 C152 1.346 . S
C153 H160 0.929 . S
C154 O144 1.282 . S
C154 O155 1.216 . S
O155 C154 1.216 . S
H156 C151 0.930 . S
H157 C152 0.930 . S
O158 Cu138 1.959 . S
O158 C145 1.251 . S
H159 C142 0.930 . S
H160 C153 0.929 . S
Cu161 N162 1.999 . S
Cu161 O167 1.974 . S
Cu161 N172 1.985 . S
Cu161 O181 1.959 . S
N162 Cu161 1.999 . S
N162 C164 1.265 1_556 S
N162 C166 1.369 1_556 S
N163 C164 1.354 . S
N163 C165 1.400 . S
C164 N162 1.265 1_554 S
C164 N163 1.354 . S
C164 H170 0.931 1_554 S
C165 N163 1.400 . S
C165 C166 1.385 . S
C165 H182 0.930 . S
C166 N162 1.369 1_554 S
C166 C165 1.385 . S
C166 H171 0.919 1_554 S
O167 Cu161 1.974 . S
O167 C177 1.282 . S
C168 O169 1.261 . S
C168 O181 1.251 . S
O169 C168 1.261 . S
H170 C164 0.931 1_556 S
H171 C166 0.919 1_556 S
N172 Cu161 1.985 . S
N172 C174 1.335 . S
N172 C175 1.390 . S
N173 C174 1.345 . S
N173 C176 1.336 . S
C174 N172 1.335 . S
C174 N173 1.345 . S
C174 H179 0.930 . S
C175 N172 1.390 . S
C175 C176 1.346 . S
C175 H180 0.930 . S
C176 N173 1.336 . S
C176 C175 1.346 . S
C176 H183 0.929 . S
C177 O167 1.282 . S
C177 O178 1.216 . S
O178 C177 1.216 . S
H179 C174 0.930 . S
H180 C175 0.930 . S
O181 Cu161 1.959 . S
O181 C168 1.251 . S
H182 C165 0.930 . S
H183 C176 0.929 . S
Cu184 N185 1.999 . S
Cu184 O190 1.974 . S
Cu184 N195 1.985 . S
Cu184 O204 1.959 . S
N185 Cu184 1.999 . S
N185 C187 1.263 . S
N185 C189 1.389 . S
N186 C187 1.358 . S
N186 C188 1.400 . S
C187 N185 1.263 . S
C187 N186 1.358 . S
C187 H193 0.930 . S
C188 N186 1.400 . S
C188 C189 1.351 . S
C188 H205 0.930 . S
C189 N185 1.389 . S
C189 C188 1.351 . S
C189 H194 0.930 . S
O190 Cu184 1.974 . S
O190 C200 1.282 . S
C191 O192 1.261 . S
C191 O204 1.251 . S
O192 C191 1.261 . S
H193 C187 0.930 . S
H194 C189 0.930 . S
N195 Cu184 1.985 . S
N195 C197 1.335 . S
N195 C198 1.390 . S
N196 C197 1.345 . S
N196 C199 1.336 . S
C197 N195 1.335 . S
C197 N196 1.345 . S
C197 H202 0.930 . S
C198 N195 1.390 . S
C198 C199 1.346 . S
C198 H203 0.930 . S
C199 N196 1.336 . S
C199 C198 1.346 . S
C199 H206 0.929 . S
C200 O190 1.282 . S
C200 O201 1.216 . S
O201 C200 1.216 . S
H202 C197 0.930 . S
H203 C198 0.930 . S
O204 Cu184 1.959 . S
O204 C191 1.251 . S
H205 C188 0.930 . S
H206 C199 0.929 . S
Cu207 N208 1.999 . S
Cu207 O213 1.974 . S
Cu207 N218 1.985 . S
Cu207 O227 1.959 . S
N208 Cu207 1.999 . S
N208 C210 1.263 . S
N208 C212 1.389 . S
N209 C210 1.358 . S
N209 C211 1.400 . S
C210 N208 1.263 . S
C210 N209 1.358 . S
C210 H216 0.930 . S
C211 N209 1.400 . S
C211 C212 1.351 . S
C211 H228 0.930 . S
C212 N208 1.389 . S
C212 C211 1.351 . S
C212 H217 0.930 . S
O213 Cu207 1.974 . S
O213 C223 1.282 . S
C214 O215 1.261 . S
C214 O227 1.251 . S
O215 C214 1.261 . S
H216 C210 0.930 . S
H217 C212 0.930 . S
N218 Cu207 1.985 . S
N218 C220 1.335 . S
N218 C221 1.390 . S
N219 C220 1.345 . S
N219 C222 1.336 . S
C220 N218 1.335 . S
C220 N219 1.345 . S
C220 H225 0.930 . S
C221 N218 1.390 . S
C221 C222 1.346 . S
C221 H226 0.930 . S
C222 N219 1.336 . S
C222 C221 1.346 . S
C222 H229 0.929 . S
C223 O213 1.282 . S
C223 O224 1.216 . S
O224 C223 1.216 . S
H225 C220 0.930 . S
H226 C221 0.930 . S
O227 Cu207 1.959 . S
O227 C214 1.251 . S
H228 C211 0.930 . S
H229 C222 0.929 . S
Cu230 N231 1.999 . S
Cu230 O236 1.974 . S
Cu230 N241 1.985 . S
Cu230 O250 1.959 . S
N231 Cu230 1.999 . S
N231 C233 1.263 . S
N231 C235 1.389 . S
N232 C233 1.358 . S
N232 C234 1.400 . S
C233 N231 1.263 . S
C233 N232 1.358 . S
C233 H239 0.930 . S
C234 N232 1.400 . S
C234 C235 1.351 . S
C234 H251 0.930 . S
C235 N231 1.389 . S
C235 C234 1.351 . S
C235 H240 0.930 . S
O236 Cu230 1.974 . S
O236 C246 1.282 . S
C237 O238 1.261 . S
C237 O250 1.251 . S
O238 C237 1.261 . S
H239 C233 0.930 . S
H240 C235 0.930 . S
N241 Cu230 1.985 . S
N241 C243 1.335 . S
N241 C244 1.390 . S
N242 C243 1.345 . S
N242 C245 1.336 . S
C243 N241 1.335 . S
C243 N242 1.345 . S
C243 H248 0.930 . S
C244 N241 1.390 . S
C244 C245 1.346 . S
C244 H249 0.930 . S
C245 N242 1.336 . S
C245 C244 1.346 . S
C245 H252 0.929 . S
C246 O236 1.282 . S
C246 O247 1.216 . S
O247 C246 1.216 . S
H248 C243 0.930 . S
H249 C244 0.930 . S
O250 Cu230 1.959 . S
O250 C237 1.251 . S
H251 C234 0.930 . S
H252 C245 0.929 . S
Cu253 N254 1.999 . S
Cu253 O259 1.974 . S
Cu253 N264 1.985 . S
Cu253 O273 1.959 . S
N254 Cu253 1.999 . S
N254 C256 1.263 . S
N254 C258 1.389 . S
N255 C256 1.358 . S
N255 C257 1.400 . S
C256 N254 1.263 . S
C256 N255 1.358 . S
C256 H262 0.930 . S
C257 N255 1.400 . S
C257 C258 1.351 . S
C257 H274 0.930 . S
C258 N254 1.389 . S
C258 C257 1.351 . S
C258 H263 0.930 . S
O259 Cu253 1.974 . S
O259 C269 1.282 . S
C260 O261 1.261 . S
C260 O273 1.255 1_554 S
O261 C260 1.261 . S
H262 C256 0.930 . S
H263 C258 0.930 . S
N264 Cu253 1.985 . S
N264 C266 1.335 . S
N264 C267 1.390 . S
N265 C266 1.345 . S
N265 C268 1.336 . S
C266 N264 1.335 . S
C266 N265 1.345 . S
C266 H271 0.930 . S
C267 N264 1.390 . S
C267 C268 1.346 . S
C267 H272 0.930 . S
C268 N265 1.336 . S
C268 C267 1.346 . S
C268 H275 0.929 . S
C269 O259 1.282 . S
C269 O270 1.216 . S
O270 C269 1.216 . S
H271 C266 0.930 . S
H272 C267 0.930 . S
O273 Cu253 1.959 . S
O273 C260 1.255 1_556 S
H274 C257 0.930 . S
H275 C268 0.929 . S
Cu276 N277 1.999 . S
Cu276 O282 1.974 . S
Cu276 N287 1.985 . S
Cu276 O296 1.959 . S
N277 Cu276 1.999 . S
N277 C279 1.263 . S
N277 C281 1.389 . S
N278 C279 1.358 . S
N278 C280 1.400 . S
C279 N277 1.263 . S
C279 N278 1.358 . S
C279 H285 0.930 . S
C280 N278 1.400 . S
C280 C281 1.351 . S
C280 H297 0.930 . S
C281 N277 1.389 . S
C281 C280 1.351 . S
C281 H286 0.930 . S
O282 Cu276 1.974 . S
O282 C292 1.282 . S
C283 O284 1.261 . S
C283 O296 1.251 . S
O284 C283 1.261 . S
H285 C279 0.930 . S
H286 C281 0.930 . S
N287 Cu276 1.985 . S
N287 C289 1.335 . S
N287 C290 1.390 . S
N288 C289 1.345 . S
N288 C291 1.336 . S
C289 N287 1.335 . S
C289 N288 1.345 . S
C289 H294 0.930 . S
C290 N287 1.390 . S
C290 C291 1.346 . S
C290 H295 0.930 . S
C291 N288 1.336 . S
C291 C290 1.346 . S
C291 H298 0.929 . S
C292 O282 1.282 . S
C292 O293 1.216 . S
O293 C292 1.216 . S
H294 C289 0.930 . S
H295 C290 0.930 . S
O296 Cu276 1.959 . S
O296 C283 1.251 . S
H297 C280 0.930 . S
H298 C291 0.929 . S
Cu299 N300 1.999 . S
Cu299 O305 1.974 . S
Cu299 N310 1.985 . S
Cu299 O319 1.959 . S
N300 Cu299 1.999 . S
N300 C302 1.263 . S
N300 C304 1.389 . S
N301 C302 1.358 . S
N301 C303 1.400 . S
C302 N300 1.263 . S
C302 N301 1.358 . S
C302 H308 0.930 . S
C303 N301 1.400 . S
C303 C304 1.351 . S
C303 H320 0.930 . S
C304 N300 1.389 . S
C304 C303 1.351 . S
C304 H309 0.930 . S
O305 Cu299 1.974 . S
O305 C315 1.282 . S
C306 O307 1.261 . S
C306 O319 1.251 . S
O307 C306 1.261 . S
H308 C302 0.930 . S
H309 C304 0.930 . S
N310 Cu299 1.985 . S
N310 C312 1.335 . S
N310 C313 1.390 . S
N311 C312 1.345 . S
N311 C314 1.336 . S
C312 N310 1.335 . S
C312 N311 1.345 . S
C312 H317 0.930 . S
C313 N310 1.390 . S
C313 C314 1.346 . S
C313 H318 0.930 . S
C314 N311 1.336 . S
C314 C313 1.346 . S
C314 H321 0.929 . S
C315 O305 1.282 . S
C315 O316 1.216 . S
O316 C315 1.216 . S
H317 C312 0.930 . S
H318 C313 0.930 . S
O319 Cu299 1.959 . S
O319 C306 1.251 . S
H320 C303 0.930 . S
H321 C314 0.929 . S
Cu322 N323 1.999 . S
Cu322 O328 1.974 . S
Cu322 N333 1.985 . S
Cu322 O342 1.959 . S
N323 Cu322 1.999 . S
N323 C325 1.263 . S
N323 C327 1.389 . S
N324 C325 1.358 . S
N324 C326 1.400 . S
C325 N323 1.263 . S
C325 N324 1.358 . S
C325 H331 0.930 . S
C326 N324 1.400 . S
C326 C327 1.351 . S
C326 H343 0.930 . S
C327 N323 1.389 . S
C327 C326 1.351 . S
C327 H332 0.930 . S
O328 Cu322 1.974 . S
O328 C338 1.282 . S
C329 O330 1.261 . S
C329 O342 1.251 . S
O330 C329 1.261 . S
H331 C325 0.930 . S
H332 C327 0.930 . S
N333 Cu322 1.985 . S
N333 C335 1.335 . S
N333 C336 1.390 . S
N334 C335 1.345 . S
N334 C337 1.336 . S
C335 N333 1.335 . S
C335 N334 1.345 . S
C335 H340 0.930 . S
C336 N333 1.390 . S
C336 C337 1.346 . S
C336 H341 0.930 . S
C337 N334 1.336 . S
C337 C336 1.346 . S
C337 H344 0.929 . S
C338 O328 1.282 . S
C338 O339 1.216 . S
O339 C338 1.216 . S
H340 C335 0.930 . S
H341 C336 0.930 . S
O342 Cu322 1.959 . S
O342 C329 1.251 . S
H343 C326 0.930 . S
H344 C337 0.929 . S
Cu345 N346 1.999 . S
Cu345 O351 1.974 . S
Cu345 N356 1.985 . S
Cu345 O365 1.959 . S
N346 Cu345 1.999 . S
N346 C348 1.263 . S
N346 C350 1.389 . S
N347 C348 1.358 . S
N347 C349 1.400 . S
C348 N346 1.263 . S
C348 N347 1.358 . S
C348 H354 0.930 . S
C349 N347 1.400 . S
C349 C350 1.351 . S
C349 H366 0.930 . S
C350 N346 1.389 . S
C350 C349 1.351 . S
C350 H355 0.930 . S
O351 Cu345 1.974 . S
O351 C361 1.282 . S
C352 O353 1.261 . S
C352 O365 1.255 1_556 S
O353 C352 1.261 . S
H354 C348 0.930 . S
H355 C350 0.930 . S
N356 Cu345 1.985 . S
N356 C358 1.335 . S
N356 C359 1.390 . S
N357 C358 1.345 . S
N357 C360 1.336 . S
C358 N356 1.335 . S
C358 N357 1.345 . S
C358 H363 0.930 . S
C359 N356 1.390 . S
C359 C360 1.346 . S
C359 H364 0.930 . S
C360 N357 1.336 . S
C360 C359 1.346 . S
C360 H367 0.929 . S
C361 O351 1.282 . S
C361 O362 1.216 . S
O362 C361 1.216 . S
H363 C358 0.930 . S
H364 C359 0.930 . S
O365 Cu345 1.959 . S
O365 C352 1.255 1_554 S
H366 C349 0.930 . S
H367 C360 0.929 . S
Cu368 N369 1.999 . S
Cu368 O374 1.974 . S
Cu368 N379 1.985 . S
Cu368 O388 1.959 . S
N369 Cu368 1.999 . S
N369 C371 1.263 . S
N369 C373 1.389 . S
N370 C371 1.358 . S
N370 C372 1.400 . S
C371 N369 1.263 . S
C371 N370 1.358 . S
C371 H377 0.930 . S
C372 N370 1.400 . S
C372 C373 1.351 . S
C372 H389 0.930 . S
C373 N369 1.389 . S
C373 C372 1.351 . S
C373 H378 0.930 . S
O374 Cu368 1.974 . S
O374 C384 1.282 . S
C375 O376 1.261 . S
C375 O388 1.251 . S
O376 C375 1.261 . S
H377 C371 0.930 . S
H378 C373 0.930 . S
N379 Cu368 1.985 . S
N379 C381 1.335 . S
N379 C382 1.390 . S
N380 C381 1.345 . S
N380 C383 1.336 . S
C381 N379 1.335 . S
C381 N380 1.345 . S
C381 H386 0.930 . S
C382 N379 1.390 . S
C382 C383 1.346 . S
C382 H387 0.930 . S
C383 N380 1.336 . S
C383 C382 1.346 . S
C383 H390 0.929 . S
C384 O374 1.282 . S
C384 O385 1.216 . S
O385 C384 1.216 . S
H386 C381 0.930 . S
H387 C382 0.930 . S
O388 Cu368 1.959 . S
O388 C375 1.251 . S
H389 C372 0.930 . S
H390 C383 0.929 . S
Cu391 N392 1.999 . S
Cu391 O397 1.974 . S
Cu391 N402 1.985 . S
Cu391 O411 1.959 . S
N392 Cu391 1.999 . S
N392 C394 1.265 1_554 S
N392 C396 1.369 1_554 S
N393 C394 1.354 . S
N393 C395 1.400 . S
C394 N392 1.265 1_556 S
C394 N393 1.354 . S
C394 H400 0.931 1_556 S
C395 N393 1.400 . S
C395 C396 1.385 . S
C395 H412 0.930 . S
C396 N392 1.369 1_556 S
C396 C395 1.385 . S
C396 H401 0.919 1_556 S
O397 Cu391 1.974 . S
O397 C407 1.282 . S
C398 O399 1.261 . S
C398 O411 1.251 . S
O399 C398 1.261 . S
H400 C394 0.931 1_554 S
H401 C396 0.919 1_554 S
N402 Cu391 1.985 . S
N402 C404 1.335 . S
N402 C405 1.390 . S
N403 C404 1.345 . S
N403 C406 1.336 . S
C404 N402 1.335 . S
C404 N403 1.345 . S
C404 H409 0.930 . S
C405 N402 1.390 . S
C405 C406 1.346 . S
C405 H410 0.930 . S
C406 N403 1.336 . S
C406 C405 1.346 . S
C406 H413 0.929 . S
C407 O397 1.282 . S
C407 O408 1.216 . S
O408 C407 1.216 . S
H409 C404 0.930 . S
H410 C405 0.930 . S
O411 Cu391 1.959 . S
O411 C398 1.251 . S
H412 C395 0.930 . S
H413 C406 0.929 . S
Cu414 N415 1.999 . S
Cu414 O420 1.974 . S
Cu414 N425 1.985 . S
Cu414 O434 1.959 . S
N415 Cu414 1.999 . S
N415 C417 1.263 . S
N415 C419 1.389 . S
N416 C417 1.358 . S
N416 C418 1.400 . S
C417 N415 1.263 . S
C417 N416 1.358 . S
C417 H423 0.930 . S
C418 N416 1.400 . S
C418 C419 1.351 . S
C418 H435 0.930 . S
C419 N415 1.389 . S
C419 C418 1.351 . S
C419 H424 0.930 . S
O420 Cu414 1.974 . S
O420 C430 1.282 . S
C421 O422 1.261 . S
C421 O434 1.251 . S
O422 C421 1.261 . S
H423 C417 0.930 . S
H424 C419 0.930 . S
N425 Cu414 1.985 . S
N425 C427 1.335 . S
N425 C428 1.390 . S
N426 C427 1.345 . S
N426 C429 1.336 . S
C427 N425 1.335 . S
C427 N426 1.345 . S
C427 H432 0.930 . S
C428 N425 1.390 . S
C428 C429 1.346 . S
C428 H433 0.930 . S
C429 N426 1.336 . S
C429 C428 1.346 . S
C429 H436 0.929 . S
C430 O420 1.282 . S
C430 O431 1.216 . S
O431 C430 1.216 . S
H432 C427 0.930 . S
H433 C428 0.930 . S
O434 Cu414 1.959 . S
O434 C421 1.251 . S
H435 C418 0.930 . S
H436 C429 0.929 . S
Cu437 N438 1.999 . S
Cu437 O443 1.974 . S
Cu437 N448 1.985 . S
Cu437 O457 1.959 . S
N438 Cu437 1.999 . S
N438 C440 1.263 . S
N438 C442 1.389 . S
N439 C440 1.358 . S
N439 C441 1.400 . S
C440 N438 1.263 . S
C440 N439 1.358 . S
C440 H446 0.930 . S
C441 N439 1.400 . S
C441 C442 1.351 . S
C441 H458 0.930 . S
C442 N438 1.389 . S
C442 C441 1.351 . S
C442 H447 0.930 . S
O443 Cu437 1.974 . S
O443 C453 1.282 . S
C444 O445 1.261 . S
C444 O457 1.251 . S
O445 C444 1.261 . S
H446 C440 0.930 . S
H447 C442 0.930 . S
N448 Cu437 1.985 . S
N448 C450 1.335 . S
N448 C451 1.390 . S
N449 C450 1.345 . S
N449 C452 1.336 . S
C450 N448 1.335 . S
C450 N449 1.345 . S
C450 H455 0.930 . S
C451 N448 1.390 . S
C451 C452 1.346 . S
C451 H456 0.930 . S
C452 N449 1.336 . S
C452 C451 1.346 . S
C452 H459 0.929 . S
C453 O443 1.282 . S
C453 O454 1.216 . S
O454 C453 1.216 . S
H455 C450 0.930 . S
H456 C451 0.930 . S
O457 Cu437 1.959 . S
O457 C444 1.251 . S
H458 C441 0.930 . S
H459 C452 0.929 . S
Cu460 N461 1.999 . S
Cu460 O466 1.974 . S
Cu460 N471 1.985 . S
Cu460 O480 1.959 . S
N461 Cu460 1.999 . S
N461 C463 1.263 . S
N461 C465 1.389 . S
N462 C463 1.358 . S
N462 C464 1.400 . S
C463 N461 1.263 . S
C463 N462 1.358 . S
C463 H469 0.930 . S
C464 N462 1.400 . S
C464 C465 1.351 . S
C464 H481 0.930 . S
C465 N461 1.389 . S
C465 C464 1.351 . S
C465 H470 0.930 . S
O466 Cu460 1.974 . S
O466 C476 1.282 . S
C467 O468 1.261 . S
C467 O480 1.251 . S
O468 C467 1.261 . S
H469 C463 0.930 . S
H470 C465 0.930 . S
N471 Cu460 1.985 . S
N471 C473 1.335 . S
N471 C474 1.390 . S
N472 C473 1.345 . S
N472 C475 1.336 . S
C473 N471 1.335 . S
C473 N472 1.345 . S
C473 H478 0.930 . S
C474 N471 1.390 . S
C474 C475 1.346 . S
C474 H479 0.930 . S
C475 N472 1.336 . S
C475 C474 1.346 . S
C475 H482 0.929 . S
C476 O466 1.282 . S
C476 O477 1.216 . S
O477 C476 1.216 . S
H478 C473 0.930 . S
H479 C474 0.930 . S
O480 Cu460 1.959 . S
O480 C467 1.251 . S
H481 C464 0.930 . S
H482 C475 0.929 . S
Cu483 N484 1.999 . S
Cu483 O489 1.974 . S
Cu483 N494 1.985 . S
Cu483 O503 1.959 . S
N484 Cu483 1.999 . S
N484 C486 1.265 1_556 S
N484 C488 1.369 1_556 S
N485 C486 1.354 . S
N485 C487 1.400 . S
C486 N484 1.265 1_554 S
C486 N485 1.354 . S
C486 H492 0.931 1_554 S
C487 N485 1.400 . S
C487 C488 1.385 . S
C487 H504 0.930 . S
C488 N484 1.369 1_554 S
C488 C487 1.385 . S
C488 H493 0.919 1_554 S
O489 Cu483 1.974 . S
O489 C499 1.282 . S
C490 O491 1.261 . S
C490 O503 1.251 . S
O491 C490 1.261 . S
H492 C486 0.931 1_556 S
H493 C488 0.919 1_556 S
N494 Cu483 1.985 . S
N494 C496 1.335 . S
N494 C497 1.390 . S
N495 C496 1.345 . S
N495 C498 1.336 . S
C496 N494 1.335 . S
C496 N495 1.345 . S
C496 H501 0.930 . S
C497 N494 1.390 . S
C497 C498 1.346 . S
C497 H502 0.930 . S
C498 N495 1.336 . S
C498 C497 1.346 . S
C498 H505 0.929 . S
C499 O489 1.282 . S
C499 O500 1.216 . S
O500 C499 1.216 . S
H501 C496 0.930 . S
H502 C497 0.930 . S
O503 Cu483 1.959 . S
O503 C490 1.251 . S
H504 C487 0.930 . S
H505 C498 0.929 . S
Cu506 N507 1.999 . S
Cu506 O512 1.974 . S
Cu506 N517 1.985 . S
Cu506 O526 1.959 . S
N507 Cu506 1.999 . S
N507 C509 1.263 . S
N507 C511 1.389 . S
N508 C509 1.358 . S
N508 C510 1.400 . S
C509 N507 1.263 . S
C509 N508 1.358 . S
C509 H515 0.930 . S
C510 N508 1.400 . S
C510 C511 1.351 . S
C510 H527 0.930 . S
C511 N507 1.389 . S
C511 C510 1.351 . S
C511 H516 0.930 . S
O512 Cu506 1.974 . S
O512 C522 1.282 . S
C513 O514 1.261 . S
C513 O526 1.251 . S
O514 C513 1.261 . S
H515 C509 0.930 . S
H516 C511 0.930 . S
N517 Cu506 1.985 . S
N517 C519 1.335 . S
N517 C520 1.390 . S
N518 C519 1.345 . S
N518 C521 1.336 . S
C519 N517 1.335 . S
C519 N518 1.345 . S
C519 H524 0.930 . S
C520 N517 1.390 . S
C520 C521 1.346 . S
C520 H525 0.930 . S
C521 N518 1.336 . S
C521 C520 1.346 . S
C521 H528 0.929 . S
C522 O512 1.282 . S
C522 O523 1.216 . S
O523 C522 1.216 . S
H524 C519 0.930 . S
H525 C520 0.930 . S
O526 Cu506 1.959 . S
O526 C513 1.251 . S
H527 C510 0.930 . S
H528 C521 0.929 . S
Cu529 N530 1.999 . S
Cu529 O535 1.974 . S
Cu529 N540 1.985 . S
Cu529 O549 1.959 . S
N530 Cu529 1.999 . S
N530 C532 1.263 . S
N530 C534 1.389 . S
N531 C532 1.358 . S
N531 C533 1.400 . S
C532 N530 1.263 . S
C532 N531 1.358 . S
C532 H538 0.930 . S
C533 N531 1.400 . S
C533 C534 1.351 . S
C533 H550 0.930 . S
C534 N530 1.389 . S
C534 C533 1.351 . S
C534 H539 0.930 . S
O535 Cu529 1.974 . S
O535 C545 1.282 . S
C536 O537 1.261 . S
C536 O549 1.251 . S
O537 C536 1.261 . S
H538 C532 0.930 . S
H539 C534 0.930 . S
N540 Cu529 1.985 . S
N540 C542 1.335 . S
N540 C543 1.390 . S
N541 C542 1.345 . S
N541 C544 1.336 . S
C542 N540 1.335 . S
C542 N541 1.345 . S
C542 H547 0.930 . S
C543 N540 1.390 . S
C543 C544 1.346 . S
C543 H548 0.930 . S
C544 N541 1.336 . S
C544 C543 1.346 . S
C544 H551 0.929 . S
C545 O535 1.282 . S
C545 O546 1.216 . S
O546 C545 1.216 . S
H547 C542 0.930 . S
H548 C543 0.930 . S
O549 Cu529 1.959 . S
O549 C536 1.251 . S
H550 C533 0.930 . S
H551 C544 0.929 . S
Cu552 N553 1.999 . S
Cu552 O558 1.974 . S
Cu552 N563 1.985 . S
Cu552 O572 1.959 . S
N553 Cu552 1.999 . S
N553 C555 1.263 . S
N553 C557 1.389 . S
N554 C555 1.358 . S
N554 C556 1.400 . S
C555 N553 1.263 . S
C555 N554 1.358 . S
C555 H561 0.930 . S
C556 N554 1.400 . S
C556 C557 1.351 . S
C556 H573 0.930 . S
C557 N553 1.389 . S
C557 C556 1.351 . S
C557 H562 0.930 . S
O558 Cu552 1.974 . S
O558 C568 1.282 . S
C559 O560 1.261 . S
C559 O572 1.251 . S
O560 C559 1.261 . S
H561 C555 0.930 . S
H562 C557 0.930 . S
N563 Cu552 1.985 . S
N563 C565 1.335 . S
N563 C566 1.390 . S
N564 C565 1.345 . S
N564 C567 1.336 . S
C565 N563 1.335 . S
C565 N564 1.345 . S
C565 H570 0.930 . S
C566 N563 1.390 . S
C566 C567 1.346 . S
C566 H571 0.930 . S
C567 N564 1.336 . S
C567 C566 1.346 . S
C567 H574 0.929 . S
C568 O558 1.282 . S
C568 O569 1.216 . S
O569 C568 1.216 . S
H570 C565 0.930 . S
H571 C566 0.930 . S
O572 Cu552 1.959 . S
O572 C559 1.251 . S
H573 C556 0.930 . S
H574 C567 0.929 . S
Cu575 N576 1.999 . S
Cu575 O581 1.974 . S
Cu575 N586 1.985 . S
Cu575 O595 1.959 . S
N576 Cu575 1.999 . S
N576 C578 1.263 . S
N576 C580 1.389 . S
N577 C578 1.358 . S
N577 C579 1.400 . S
C578 N576 1.263 . S
C578 N577 1.358 . S
C578 H584 0.930 . S
C579 N577 1.400 . S
C579 C580 1.351 . S
C579 H596 0.930 . S
C580 N576 1.389 . S
C580 C579 1.351 . S
C580 H585 0.930 . S
O581 Cu575 1.974 . S
O581 C591 1.282 . S
C582 O583 1.261 . S
C582 O595 1.255 1_554 S
O583 C582 1.261 . S
H584 C578 0.930 . S
H585 C580 0.930 . S
N586 Cu575 1.985 . S
N586 C588 1.335 . S
N586 C589 1.390 . S
N587 C588 1.345 . S
N587 C590 1.336 . S
C588 N586 1.335 . S
C588 N587 1.345 . S
C588 H593 0.930 . S
C589 N586 1.390 . S
C589 C590 1.346 . S
C589 H594 0.930 . S
C590 N587 1.336 . S
C590 C589 1.346 . S
C590 H597 0.929 . S
C591 O581 1.282 . S
C591 O592 1.216 . S
O592 C591 1.216 . S
H593 C588 0.930 . S
H594 C589 0.930 . S
O595 Cu575 1.959 . S
O595 C582 1.255 1_556 S
H596 C579 0.930 . S
H597 C590 0.929 . S
Cu598 N599 1.999 . S
Cu598 O604 1.974 . S
Cu598 N609 1.985 . S
Cu598 O618 1.959 . S
N599 Cu598 1.999 . S
N599 C601 1.263 . S
N599 C603 1.389 . S
N600 C601 1.358 . S
N600 C602 1.400 . S
C601 N599 1.263 . S
C601 N600 1.358 . S
C601 H607 0.930 . S
C602 N600 1.400 . S
C602 C603 1.351 . S
C602 H619 0.930 . S
C603 N599 1.389 . S
C603 C602 1.351 . S
C603 H608 0.930 . S
O604 Cu598 1.974 . S
O604 C614 1.282 . S
C605 O606 1.261 . S
C605 O618 1.251 . S
O606 C605 1.261 . S
H607 C601 0.930 . S
H608 C603 0.930 . S
N609 Cu598 1.985 . S
N609 C611 1.335 . S
N609 C612 1.390 . S
N610 C611 1.345 . S
N610 C613 1.336 . S
C611 N609 1.335 . S
C611 N610 1.345 . S
C611 H616 0.930 . S
C612 N609 1.390 . S
C612 C613 1.346 . S
C612 H617 0.930 . S
C613 N610 1.336 . S
C613 C612 1.346 . S
C613 H620 0.929 . S
C614 O604 1.282 . S
C614 O615 1.216 . S
O615 C614 1.216 . S
H616 C611 0.930 . S
H617 C612 0.930 . S
O618 Cu598 1.959 . S
O618 C605 1.251 . S
H619 C602 0.930 . S
H620 C613 0.929 . S
Cu621 N622 1.999 . S
Cu621 O627 1.974 . S
Cu621 N632 1.985 . S
Cu621 O641 1.959 . S
N622 Cu621 1.999 . S
N622 C624 1.263 . S
N622 C626 1.389 . S
N623 C624 1.358 . S
N623 C625 1.400 . S
C624 N622 1.263 . S
C624 N623 1.358 . S
C624 H630 0.930 . S
C625 N623 1.400 . S
C625 C626 1.351 . S
C625 H642 0.930 . S
C626 N622 1.389 . S
C626 C625 1.351 . S
C626 H631 0.930 . S
O627 Cu621 1.974 . S
O627 C637 1.282 . S
C628 O629 1.261 . S
C628 O641 1.251 . S
O629 C628 1.261 . S
H630 C624 0.930 . S
H631 C626 0.930 . S
N632 Cu621 1.985 . S
N632 C634 1.335 . S
N632 C635 1.390 . S
N633 C634 1.345 . S
N633 C636 1.336 . S
C634 N632 1.335 . S
C634 N633 1.345 . S
C634 H639 0.930 . S
C635 N632 1.390 . S
C635 C636 1.346 . S
C635 H640 0.930 . S
C636 N633 1.336 . S
C636 C635 1.346 . S
C636 H643 0.929 . S
C637 O627 1.282 . S
C637 O638 1.216 . S
O638 C637 1.216 . S
H639 C634 0.930 . S
H640 C635 0.930 . S
O641 Cu621 1.959 . S
O641 C628 1.251 . S
H642 C625 0.930 . S
H643 C636 0.929 . S
Cu644 N645 1.999 . S
Cu644 O650 1.974 . S
Cu644 N655 1.985 . S
Cu644 O664 1.959 . S
N645 Cu644 1.999 . S
N645 C647 1.263 . S
N645 C649 1.389 . S
N646 C647 1.358 . S
N646 C648 1.400 . S
C647 N645 1.263 . S
C647 N646 1.358 . S
C647 H653 0.930 . S
C648 N646 1.400 . S
C648 C649 1.351 . S
C648 H665 0.930 . S
C649 N645 1.389 . S
C649 C648 1.351 . S
C649 H654 0.930 . S
O650 Cu644 1.974 . S
O650 C660 1.282 . S
C651 O652 1.261 . S
C651 O664 1.251 . S
O652 C651 1.261 . S
H653 C647 0.930 . S
H654 C649 0.930 . S
N655 Cu644 1.985 . S
N655 C657 1.335 . S
N655 C658 1.390 . S
N656 C657 1.345 . S
N656 C659 1.336 . S
C657 N655 1.335 . S
C657 N656 1.345 . S
C657 H662 0.930 . S
C658 N655 1.390 . S
C658 C659 1.346 . S
C658 H663 0.930 . S
C659 N656 1.336 . S
C659 C658 1.346 . S
C659 H666 0.929 . S
C660 O650 1.282 . S
C660 O661 1.216 . S
O661 C660 1.216 . S
H662 C657 0.930 . S
H663 C658 0.930 . S
O664 Cu644 1.959 . S
O664 C651 1.251 . S
H665 C648 0.930 . S
H666 C659 0.929 . S
Cu667 N668 1.999 . S
Cu667 O673 1.974 . S
Cu667 N678 1.985 . S
Cu667 O687 1.959 . S
N668 Cu667 1.999 . S
N668 C670 1.263 . S
N668 C672 1.389 . S
N669 C670 1.358 . S
N669 C671 1.400 . S
C670 N668 1.263 . S
C670 N669 1.358 . S
C670 H676 0.930 . S
C671 N669 1.400 . S
C671 C672 1.351 . S
C671 H688 0.930 . S
C672 N668 1.389 . S
C672 C671 1.351 . S
C672 H677 0.930 . S
O673 Cu667 1.974 . S
O673 C683 1.282 . S
C674 O675 1.261 . S
C674 O687 1.255 1_556 S
O675 C674 1.261 . S
H676 C670 0.930 . S
H677 C672 0.930 . S
N678 Cu667 1.985 . S
N678 C680 1.335 . S
N678 C681 1.390 . S
N679 C680 1.345 . S
N679 C682 1.336 . S
C680 N678 1.335 . S
C680 N679 1.345 . S
C680 H685 0.930 . S
C681 N678 1.390 . S
C681 C682 1.346 . S
C681 H686 0.930 . S
C682 N679 1.336 . S
C682 C681 1.346 . S
C682 H689 0.929 . S
C683 O673 1.282 . S
C683 O684 1.216 . S
O684 C683 1.216 . S
H685 C680 0.930 . S
H686 C681 0.930 . S
O687 Cu667 1.959 . S
O687 C674 1.255 1_554 S
H688 C671 0.930 . S
H689 C682 0.929 . S
Cu690 N691 1.999 . S
Cu690 O696 1.974 . S
Cu690 N701 1.985 . S
Cu690 O710 1.959 . S
N691 Cu690 1.999 . S
N691 C693 1.263 . S
N691 C695 1.389 . S
N692 C693 1.358 . S
N692 C694 1.400 . S
C693 N691 1.263 . S
C693 N692 1.358 . S
C693 H699 0.930 . S
C694 N692 1.400 . S
C694 C695 1.351 . S
C694 H711 0.930 . S
C695 N691 1.389 . S
C695 C694 1.351 . S
C695 H700 0.930 . S
O696 Cu690 1.974 . S
O696 C706 1.282 . S
C697 O698 1.261 . S
C697 O710 1.251 . S
O698 C697 1.261 . S
H699 C693 0.930 . S
H700 C695 0.930 . S
N701 Cu690 1.985 . S
N701 C703 1.335 . S
N701 C704 1.390 . S
N702 C703 1.345 . S
N702 C705 1.336 . S
C703 N701 1.335 . S
C703 N702 1.345 . S
C703 H708 0.930 . S
C704 N701 1.390 . S
C704 C705 1.346 . S
C704 H709 0.930 . S
C705 N702 1.336 . S
C705 C704 1.346 . S
C705 H712 0.929 . S
C706 O696 1.282 . S
C706 O707 1.216 . S
O707 C706 1.216 . S
H708 C703 0.930 . S
H709 C704 0.930 . S
O710 Cu690 1.959 . S
O710 C697 1.251 . S
H711 C694 0.930 . S
H712 C705 0.929 . S
Cu713 N714 1.999 . S
Cu713 O719 1.974 . S
Cu713 N724 1.985 . S
Cu713 O733 1.959 . S
N714 Cu713 1.999 . S
N714 C716 1.263 . S
N714 C718 1.389 . S
N715 C716 1.358 . S
N715 C717 1.400 . S
C716 N714 1.263 . S
C716 N715 1.358 . S
C716 H722 0.930 . S
C717 N715 1.400 . S
C717 C718 1.351 . S
C717 H734 0.930 . S
C718 N714 1.389 . S
C718 C717 1.351 . S
C718 H723 0.930 . S
O719 Cu713 1.974 . S
O719 C729 1.282 . S
C720 O721 1.261 . S
C720 O733 1.251 . S
O721 C720 1.261 . S
H722 C716 0.930 . S
H723 C718 0.930 . S
N724 Cu713 1.985 . S
N724 C726 1.335 . S
N724 C727 1.390 . S
N725 C726 1.345 . S
N725 C728 1.336 . S
C726 N724 1.335 . S
C726 N725 1.345 . S
C726 H731 0.930 . S
C727 N724 1.390 . S
C727 C728 1.346 . S
C727 H732 0.930 . S
C728 N725 1.336 . S
C728 C727 1.346 . S
C728 H735 0.929 . S
C729 O719 1.282 . S
C729 O730 1.216 . S
O730 C729 1.216 . S
H731 C726 0.930 . S
H732 C727 0.930 . S
O733 Cu713 1.959 . S
O733 C720 1.251 . S
H734 C717 0.930 . S
H735 C728 0.929 . S
H736 C744 0.929 . S
H737 C746 0.930 . S
H738 C748 0.930 . S
H739 C751 0.929 . S
H740 C754 0.930 . S
H741 C756 0.960 . S
H742 C756 0.960 . S
H743 C756 0.960 . S
C744 H736 0.929 . S
C744 C745 1.377 . S
C744 C746 1.384 . S
C745 C744 1.377 . S
C745 C751 1.390 . S
C746 H737 0.930 . S
C746 C744 1.384 . S
C746 C747 1.372 . S
C747 C746 1.372 . S
C747 C748 1.400 . S
C747 C752 1.490 . S
C748 H738 0.930 . S
C748 C747 1.400 . S
C748 C751 1.386 . S
H749 C765 0.930 . S
H750 C766 0.931 . S
C751 H739 0.929 . S
C751 C745 1.390 . S
C751 C748 1.386 . S
C752 C747 1.490 . S
C752 C754 1.395 . S
C752 C755 1.403 . S
H753 C759 0.930 . S
C754 H740 0.930 . S
C754 C752 1.395 . S
C754 C757 1.403 . S
C755 C752 1.403 . S
C755 C756 1.524 . S
C755 C759 1.400 . S
C756 H741 0.960 . S
C756 H742 0.960 . S
C756 H743 0.960 . S
C756 C755 1.524 . S
C757 C754 1.403 . S
C757 C758 1.392 . S
C757 C761 1.495 . S
C758 C757 1.392 . S
C758 C759 1.385 . S
C758 C760 1.478 . S
C759 H753 0.930 . S
C759 C755 1.400 . S
C759 C758 1.385 . S
C760 C758 1.478 . S
C760 C762 1.381 . S
C760 C766 1.383 . S
C761 C757 1.495 . S
C761 H767 0.959 . S
C761 H768 0.961 . S
C761 H769 0.960 . S
C762 C760 1.381 . S
C762 C763 1.394 . S
C762 H770 0.930 . S
C763 C762 1.394 . S
C763 C764 1.383 . S
C763 H771 0.929 . S
C764 C763 1.383 . S
C764 C765 1.377 . S
C765 H749 0.930 . S
C765 C764 1.377 . S
C765 C766 1.379 . S
C766 H750 0.931 . S
C766 C760 1.383 . S
C766 C765 1.379 . S
H767 C761 0.959 . S
H768 C761 0.961 . S
H769 C761 0.960 . S
H770 C762 0.930 . S
H771 C763 0.929 . S
H772 C780 0.929 . S
H773 C782 0.930 . S
H774 C784 0.930 . S
H775 C787 0.929 . S
H776 C790 0.930 . S
H777 C792 0.960 . S
H778 C792 0.960 . S
H779 C792 0.960 . S
C780 H772 0.929 . S
C780 C781 1.377 . S
C780 C782 1.384 . S
C781 C780 1.377 . S
C781 C787 1.390 . S
C782 H773 0.930 . S
C782 C780 1.384 . S
C782 C783 1.372 . S
C783 C782 1.372 . S
C783 C784 1.400 . S
C783 C788 1.490 . S
C784 H774 0.930 . S
C784 C783 1.400 . S
C784 C787 1.386 . S
H785 C801 0.930 . S
H786 C802 0.931 . S
C787 H775 0.929 . S
C787 C781 1.390 . S
C787 C784 1.386 . S
C788 C783 1.490 . S
C788 C790 1.395 . S
C788 C791 1.403 . S
H789 C795 0.930 . S
C790 H776 0.930 . S
C790 C788 1.395 . S
C790 C793 1.403 . S
C791 C788 1.403 . S
C791 C792 1.524 . S
C791 C795 1.400 . S
C792 H777 0.960 . S
C792 H778 0.960 . S
C792 H779 0.960 . S
C792 C791 1.524 . S
C793 C790 1.403 . S
C793 C794 1.392 . S
C793 C797 1.495 . S
C794 C793 1.392 . S
C794 C795 1.385 . S
C794 C796 1.478 . S
C795 H789 0.930 . S
C795 C791 1.400 . S
C795 C794 1.385 . S
C796 C794 1.478 . S
C796 C798 1.381 . S
C796 C802 1.383 . S
C797 C793 1.495 . S
C797 H803 0.959 . S
C797 H804 0.961 . S
C797 H805 0.960 . S
C798 C796 1.381 . S
C798 C799 1.394 . S
C798 H806 0.930 . S
C799 C798 1.394 . S
C799 C800 1.383 . S
C799 H807 0.929 . S
C800 C799 1.383 . S
C800 C801 1.377 . S
C801 H785 0.930 . S
C801 C800 1.377 . S
C801 C802 1.379 . S
C802 H786 0.931 . S
C802 C796 1.383 . S
C802 C801 1.379 . S
H803 C797 0.959 . S
H804 C797 0.961 . S
H805 C797 0.960 . S
H806 C798 0.930 . S
H807 C799 0.929 . S
H808 C816 0.929 . S
H809 C818 0.930 . S
H810 C820 0.930 . S
H811 C823 0.929 . S
H812 C826 0.930 . S
H813 C828 0.960 . S
H814 C828 0.960 . S
H815 C828 0.960 . S
C816 H808 0.929 . S
C816 C817 1.377 . S
C816 C818 1.384 . S
C817 C816 1.377 . S
C817 C823 1.390 . S
C818 H809 0.930 . S
C818 C816 1.384 . S
C818 C819 1.372 . S
C819 C818 1.372 . S
C819 C820 1.400 . S
C819 C824 1.490 . S
C820 H810 0.930 . S
C820 C819 1.400 . S
C820 C823 1.386 . S
H821 C837 0.930 . S
H822 C838 0.931 . S
C823 H811 0.929 . S
C823 C817 1.390 . S
C823 C820 1.386 . S
C824 C819 1.490 . S
C824 C826 1.395 . S
C824 C827 1.403 . S
H825 C831 0.930 . S
C826 H812 0.930 . S
C826 C824 1.395 . S
C826 C829 1.403 . S
C827 C824 1.403 . S
C827 C828 1.524 . S
C827 C831 1.400 . S
C828 H813 0.960 . S
C828 H814 0.960 . S
C828 H815 0.960 . S
C828 C827 1.524 . S
C829 C826 1.403 . S
C829 C830 1.392 . S
C829 C833 1.495 . S
C830 C829 1.392 . S
C830 C831 1.385 . S
C830 C832 1.478 . S
C831 H825 0.930 . S
C831 C827 1.400 . S
C831 C830 1.385 . S
C832 C830 1.478 . S
C832 C834 1.381 . S
C832 C838 1.383 . S
C833 C829 1.495 . S
C833 H839 0.959 . S
C833 H840 0.961 . S
C833 H841 0.960 . S
C834 C832 1.381 . S
C834 C835 1.394 . S
C834 H842 0.930 . S
C835 C834 1.394 . S
C835 C836 1.383 . S
C835 H843 0.929 . S
C836 C835 1.383 . S
C836 C837 1.377 . S
C837 H821 0.930 . S
C837 C836 1.377 . S
C837 C838 1.379 . S
C838 H822 0.931 . S
C838 C832 1.383 . S
C838 C837 1.379 . S
H839 C833 0.959 . S
H840 C833 0.961 . S
H841 C833 0.960 . S
H842 C834 0.930 . S
H843 C835 0.929 . S
H844 C852 0.929 . S
H845 C854 0.930 . S
H846 C856 0.930 . S
H847 C859 0.929 . S
H848 C862 0.930 . S
H849 C864 0.960 . S
H850 C864 0.960 . S
H851 C864 0.960 . S
C852 H844 0.929 . S
C852 C853 1.377 . S
C852 C854 1.384 . S
C853 C852 1.377 . S
C853 C859 1.390 . S
C854 H845 0.930 . S
C854 C852 1.384 . S
C854 C855 1.372 . S
C855 C854 1.372 . S
C855 C856 1.400 . S
C855 C860 1.490 . S
C856 H846 0.930 . S
C856 C855 1.400 . S
C856 C859 1.386 . S
H857 C873 0.930 . S
H858 C874 0.931 . S
C859 H847 0.929 . S
C859 C853 1.390 . S
C859 C856 1.386 . S
C860 C855 1.490 . S
C860 C862 1.395 . S
C860 C863 1.403 . S
H861 C867 0.930 . S
C862 H848 0.930 . S
C862 C860 1.395 . S
C862 C865 1.403 . S
C863 C860 1.403 . S
C863 C864 1.524 . S
C863 C867 1.400 . S
C864 H849 0.960 . S
C864 H850 0.960 . S
C864 H851 0.960 . S
C864 C863 1.524 . S
C865 C862 1.403 . S
C865 C866 1.392 . S
C865 C869 1.495 . S
C866 C865 1.392 . S
C866 C867 1.385 . S
C866 C868 1.478 . S
C867 H861 0.930 . S
C867 C863 1.400 . S
C867 C866 1.385 . S
C868 C866 1.478 . S
C868 C870 1.381 . S
C868 C874 1.383 . S
C869 C865 1.495 . S
C869 H875 0.959 . S
C869 H876 0.961 . S
C869 H877 0.960 . S
C870 C868 1.381 . S
C870 C871 1.394 . S
C870 H878 0.930 . S
C871 C870 1.394 . S
C871 C872 1.383 . S
C871 H879 0.929 . S
C872 C871 1.383 . S
C872 C873 1.377 . S
C873 H857 0.930 . S
C873 C872 1.377 . S
C873 C874 1.379 . S
C874 H858 0.931 . S
C874 C868 1.383 . S
C874 C873 1.379 . S
H875 C869 0.959 . S
H876 C869 0.961 . S
H877 C869 0.960 . S
H878 C870 0.930 . S
H879 C871 0.929 . S
H880 C888 0.929 . S
H881 C890 0.930 . S
H882 C892 0.930 . S
H883 C895 0.929 . S
H884 C898 0.930 . S
H885 C900 0.960 . S
H886 C900 0.960 . S
H887 C900 0.960 . S
C888 H880 0.929 . S
C888 C889 1.377 . S
C888 C890 1.384 . S
C889 C888 1.377 . S
C889 C895 1.390 . S
C890 H881 0.930 . S
C890 C888 1.384 . S
C890 C891 1.372 . S
C891 C890 1.372 . S
C891 C892 1.400 . S
C891 C896 1.490 . S
C892 H882 0.930 . S
C892 C891 1.400 . S
C892 C895 1.386 . S
H893 C909 0.930 . S
H894 C910 0.931 . S
C895 H883 0.929 . S
C895 C889 1.390 . S
C895 C892 1.386 . S
C896 C891 1.490 . S
C896 C898 1.395 . S
C896 C899 1.403 . S
H897 C903 0.930 . S
C898 H884 0.930 . S
C898 C896 1.395 . S
C898 C901 1.403 . S
C899 C896 1.403 . S
C899 C900 1.524 . S
C899 C903 1.400 . S
C900 H885 0.960 . S
C900 H886 0.960 . S
C900 H887 0.960 . S
C900 C899 1.524 . S
C901 C898 1.403 . S
C901 C902 1.392 . S
C901 C905 1.495 . S
C902 C901 1.392 . S
C902 C903 1.385 . S
C902 C904 1.478 . S
C903 H897 0.930 . S
C903 C899 1.400 . S
C903 C902 1.385 . S
C904 C902 1.478 . S
C904 C906 1.381 . S
C904 C910 1.383 . S
C905 C901 1.495 . S
C905 H911 0.959 . S
C905 H912 0.961 . S
C905 H913 0.960 . S
C906 C904 1.381 . S
C906 C907 1.394 . S
C906 H914 0.930 . S
C907 C906 1.394 . S
C907 C908 1.383 . S
C907 H915 0.929 . S
C908 C907 1.383 . S
C908 C909 1.377 . S
C909 H893 0.930 . S
C909 C908 1.377 . S
C909 C910 1.379 . S
C910 H894 0.931 . S
C910 C904 1.383 . S
C910 C909 1.379 . S
H911 C905 0.959 . S
H912 C905 0.961 . S
H913 C905 0.960 . S
H914 C906 0.930 . S
H915 C907 0.929 . S
H916 C924 0.929 . S
H917 C926 0.930 . S
H918 C928 0.930 . S
H919 C931 0.929 . S
H920 C934 0.930 . S
H921 C936 0.960 . S
H922 C936 0.960 . S
H923 C936 0.960 . S
C924 H916 0.929 . S
C924 C925 1.377 . S
C924 C926 1.384 . S
C925 C924 1.377 . S
C925 C931 1.390 . S
C926 H917 0.930 . S
C926 C924 1.384 . S
C926 C927 1.372 . S
C927 C926 1.372 . S
C927 C928 1.400 . S
C927 C932 1.490 . S
C928 H918 0.930 . S
C928 C927 1.400 . S
C928 C931 1.386 . S
H929 C945 0.930 . S
H930 C946 0.931 . S
C931 H919 0.929 . S
C931 C925 1.390 . S
C931 C928 1.386 . S
C932 C927 1.490 . S
C932 C934 1.395 . S
C932 C935 1.403 . S
H933 C939 0.930 . S
C934 H920 0.930 . S
C934 C932 1.395 . S
C934 C937 1.403 . S
C935 C932 1.403 . S
C935 C936 1.524 . S
C935 C939 1.400 . S
C936 H921 0.960 . S
C936 H922 0.960 . S
C936 H923 0.960 . S
C936 C935 1.524 . S
C937 C934 1.403 . S
C937 C938 1.392 . S
C937 C941 1.495 . S
C938 C937 1.392 . S
C938 C939 1.385 . S
C938 C940 1.478 . S
C939 H933 0.930 . S
C939 C935 1.400 . S
C939 C938 1.385 . S
C940 C938 1.478 . S
C940 C942 1.381 . S
C940 C946 1.383 . S
C941 C937 1.495 . S
C941 H947 0.959 . S
C941 H948 0.961 . S
C941 H949 0.960 . S
C942 C940 1.381 . S
C942 C943 1.394 . S
C942 H950 0.930 . S
C943 C942 1.394 . S
C943 C944 1.383 . S
C943 H951 0.929 . S
C944 C943 1.383 . S
C944 C945 1.377 . S
C945 H929 0.930 . S
C945 C944 1.377 . S
C945 C946 1.379 . S
C946 H930 0.931 . S
C946 C940 1.383 . S
C946 C945 1.379 . S
H947 C941 0.959 . S
H948 C941 0.961 . S
H949 C941 0.960 . S
H950 C942 0.930 . S
H951 C943 0.929 . S
H952 C960 0.929 . S
H953 C962 0.930 . S
H954 C964 0.930 . S
H955 C967 0.929 . S
H956 C970 0.930 . S
H957 C972 0.960 . S
H958 C972 0.960 . S
H959 C972 0.960 . S
C960 H952 0.929 . S
C960 C961 1.377 . S
C960 C962 1.384 . S
C961 C960 1.377 . S
C961 C967 1.390 . S
C962 H953 0.930 . S
C962 C960 1.384 . S
C962 C963 1.372 . S
C963 C962 1.372 . S
C963 C964 1.400 . S
C963 C968 1.490 . S
C964 H954 0.930 . S
C964 C963 1.400 . S
C964 C967 1.386 . S
H965 C981 0.930 . S
H966 C982 0.931 . S
C967 H955 0.929 . S
C967 C961 1.390 . S
C967 C964 1.386 . S
C968 C963 1.490 . S
C968 C970 1.395 . S
C968 C971 1.403 . S
H969 C975 0.930 . S
C970 H956 0.930 . S
C970 C968 1.395 . S
C970 C973 1.403 . S
C971 C968 1.403 . S
C971 C972 1.524 . S
C971 C975 1.400 . S
C972 H957 0.960 . S
C972 H958 0.960 . S
C972 H959 0.960 . S
C972 C971 1.524 . S
C973 C970 1.403 . S
C973 C974 1.392 . S
C973 C977 1.495 . S
C974 C973 1.392 . S
C974 C975 1.385 . S
C974 C976 1.478 . S
C975 H969 0.930 . S
C975 C971 1.400 . S
C975 C974 1.385 . S
C976 C974 1.478 . S
C976 C978 1.381 . S
C976 C982 1.383 . S
C977 C973 1.495 . S
C977 H983 0.959 . S
C977 H984 0.961 . S
C977 H985 0.960 . S
C978 C976 1.381 . S
C978 C979 1.394 . S
C978 H986 0.930 . S
C979 C978 1.394 . S
C979 C980 1.383 . S
C979 H987 0.929 . S
C980 C979 1.383 . S
C980 C981 1.377 . S
C981 H965 0.930 . S
C981 C980 1.377 . S
C981 C982 1.379 . S
C982 H966 0.931 . S
C982 C976 1.383 . S
C982 C981 1.379 . S
H983 C977 0.959 . S
H984 C977 0.961 . S
H985 C977 0.960 . S
H986 C978 0.930 . S
H987 C979 0.929 . S
H988 C996 0.929 . S
H989 C998 0.930 . S
H990 C1000 0.930 . S
H991 C1003 0.929 . S
H992 C1006 0.930 . S
H993 C1008 0.960 . S
H994 C1008 0.960 . S
H995 C1008 0.960 . S
C996 H988 0.929 . S
C996 C997 1.377 . S
C996 C998 1.384 . S
C997 C996 1.377 . S
C997 C1003 1.390 . S
C998 H989 0.930 . S
C998 C996 1.384 . S
C998 C999 1.372 . S
C999 C998 1.372 . S
C999 C1000 1.400 . S
C999 C1004 1.490 . S
C1000 H990 0.930 . S
C1000 C999 1.400 . S
C1000 C1003 1.386 . S
H1001 C1017 0.930 . S
H1002 C1018 0.931 . S
C1003 H991 0.929 . S
C1003 C997 1.390 . S
C1003 C1000 1.386 . S
C1004 C999 1.490 . S
C1004 C1006 1.395 . S
C1004 C1007 1.403 . S
H1005 C1011 0.930 . S
C1006 H992 0.930 . S
C1006 C1004 1.395 . S
C1006 C1009 1.403 . S
C1007 C1004 1.403 . S
C1007 C1008 1.524 . S
C1007 C1011 1.400 . S
C1008 H993 0.960 . S
C1008 H994 0.960 . S
C1008 H995 0.960 . S
C1008 C1007 1.524 . S
C1009 C1006 1.403 . S
C1009 C1010 1.392 . S
C1009 C1013 1.495 . S
C1010 C1009 1.392 . S
C1010 C1011 1.385 . S
C1010 C1012 1.478 . S
C1011 H1005 0.930 . S
C1011 C1007 1.400 . S
C1011 C1010 1.385 . S
C1012 C1010 1.478 . S
C1012 C1014 1.381 . S
C1012 C1018 1.383 . S
C1013 C1009 1.495 . S
C1013 H1019 0.959 . S
C1013 H1020 0.961 . S
C1013 H1021 0.960 . S
C1014 C1012 1.381 . S
C1014 C1015 1.394 . S
C1014 H1022 0.930 . S
C1015 C1014 1.394 . S
C1015 C1016 1.383 . S
C1015 H1023 0.929 . S
C1016 C1015 1.383 . S
C1016 C1017 1.377 . S
C1017 H1001 0.930 . S
C1017 C1016 1.377 . S
C1017 C1018 1.379 . S
C1018 H1002 0.931 . S
C1018 C1012 1.383 . S
C1018 C1017 1.379 . S
H1019 C1013 0.959 . S
H1020 C1013 0.961 . S
H1021 C1013 0.960 . S
H1022 C1014 0.930 . S
H1023 C1015 0.929 . S
H1024 C1032 0.929 . S
H1025 C1034 0.930 . S
H1026 C1036 0.930 . S
H1027 C1039 0.929 . S
H1028 C1042 0.930 . S
H1029 C1044 0.960 . S
H1030 C1044 0.960 . S
H1031 C1044 0.960 . S
C1032 H1024 0.929 . S
C1032 C1033 1.377 . S
C1032 C1034 1.384 . S
C1033 C1032 1.377 . S
C1033 C1039 1.390 . S
C1034 H1025 0.930 . S
C1034 C1032 1.384 . S
C1034 C1035 1.372 . S
C1035 C1034 1.372 . S
C1035 C1036 1.400 . S
C1035 C1040 1.490 . S
C1036 H1026 0.930 . S
C1036 C1035 1.400 . S
C1036 C1039 1.386 . S
H1037 C1053 0.930 . S
H1038 C1054 0.931 . S
C1039 H1027 0.929 . S
C1039 C1033 1.390 . S
C1039 C1036 1.386 . S
C1040 C1035 1.490 . S
C1040 C1042 1.395 . S
C1040 C1043 1.403 . S
H1041 C1047 0.930 . S
C1042 H1028 0.930 . S
C1042 C1040 1.395 . S
C1042 C1045 1.403 . S
C1043 C1040 1.403 . S
C1043 C1044 1.524 . S
C1043 C1047 1.400 . S
C1044 H1029 0.960 . S
C1044 H1030 0.960 . S
C1044 H1031 0.960 . S
C1044 C1043 1.524 . S
C1045 C1042 1.403 . S
C1045 C1046 1.392 . S
C1045 C1049 1.495 . S
C1046 C1045 1.392 . S
C1046 C1047 1.385 . S
C1046 C1048 1.478 . S
C1047 H1041 0.930 . S
C1047 C1043 1.400 . S
C1047 C1046 1.385 . S
C1048 C1046 1.478 . S
C1048 C1050 1.381 . S
C1048 C1054 1.383 . S
C1049 C1045 1.495 . S
C1049 H1055 0.959 . S
C1049 H1056 0.961 . S
C1049 H1057 0.960 . S
C1050 C1048 1.381 . S
C1050 C1051 1.394 . S
C1050 H1058 0.930 . S
C1051 C1050 1.394 . S
C1051 C1052 1.383 . S
C1051 H1059 0.929 . S
C1052 C1051 1.383 . S
C1052 C1053 1.377 . S
C1053 H1037 0.930 . S
C1053 C1052 1.377 . S
C1053 C1054 1.379 . S
C1054 H1038 0.931 . S
C1054 C1048 1.383 . S
C1054 C1053 1.379 . S
H1055 C1049 0.959 . S
H1056 C1049 0.961 . S
H1057 C1049 0.960 . S
H1058 C1050 0.930 . S
H1059 C1051 0.929 . S
H1060 C1068 0.929 . S
H1061 C1070 0.930 . S
H1062 C1072 0.930 . S
H1063 C1075 0.929 . S
H1064 C1078 0.930 . S
H1065 C1080 0.960 . S
H1066 C1080 0.960 . S
H1067 C1080 0.960 . S
C1068 H1060 0.929 . S
C1068 C1069 1.377 . S
C1068 C1070 1.384 . S
C1069 C1068 1.377 . S
C1069 C1075 1.390 . S
C1070 H1061 0.930 . S
C1070 C1068 1.384 . S
C1070 C1071 1.372 . S
C1071 C1070 1.372 . S
C1071 C1072 1.400 . S
C1071 C1076 1.490 . S
C1072 H1062 0.930 . S
C1072 C1071 1.400 . S
C1072 C1075 1.386 . S
H1073 C1089 0.930 . S
H1074 C1090 0.931 . S
C1075 H1063 0.929 . S
C1075 C1069 1.390 . S
C1075 C1072 1.386 . S
C1076 C1071 1.490 . S
C1076 C1078 1.395 . S
C1076 C1079 1.403 . S
H1077 C1083 0.930 . S
C1078 H1064 0.930 . S
C1078 C1076 1.395 . S
C1078 C1081 1.403 . S
C1079 C1076 1.403 . S
C1079 C1080 1.524 . S
C1079 C1083 1.400 . S
C1080 H1065 0.960 . S
C1080 H1066 0.960 . S
C1080 H1067 0.960 . S
C1080 C1079 1.524 . S
C1081 C1078 1.403 . S
C1081 C1082 1.392 . S
C1081 C1085 1.495 . S
C1082 C1081 1.392 . S
C1082 C1083 1.385 . S
C1082 C1084 1.478 . S
C1083 H1077 0.930 . S
C1083 C1079 1.400 . S
C1083 C1082 1.385 . S
C1084 C1082 1.478 . S
C1084 C1086 1.381 . S
C1084 C1090 1.383 . S
C1085 C1081 1.495 . S
C1085 H1091 0.959 . S
C1085 H1092 0.961 . S
C1085 H1093 0.960 . S
C1086 C1084 1.381 . S
C1086 C1087 1.394 . S
C1086 H1094 0.930 . S
C1087 C1086 1.394 . S
C1087 C1088 1.383 . S
C1087 H1095 0.929 . S
C1088 C1087 1.383 . S
C1088 C1089 1.377 . S
C1089 H1073 0.930 . S
C1089 C1088 1.377 . S
C1089 C1090 1.379 . S
C1090 H1074 0.931 . S
C1090 C1084 1.383 . S
C1090 C1089 1.379 . S
H1091 C1085 0.959 . S
H1092 C1085 0.961 . S
H1093 C1085 0.960 . S
H1094 C1086 0.930 . S
H1095 C1087 0.929 . S
H1096 C1104 0.929 . S
H1097 C1106 0.930 . S
H1098 C1108 0.930 . S
H1099 C1111 0.929 . S
H1100 C1114 0.930 . S
H1101 C1116 0.960 . S
H1102 C1116 0.960 . S
H1103 C1116 0.960 . S
C1104 H1096 0.929 . S
C1104 C1105 1.377 . S
C1104 C1106 1.384 . S
C1105 C1104 1.377 . S
C1105 C1111 1.390 . S
C1106 H1097 0.930 . S
C1106 C1104 1.384 . S
C1106 C1107 1.372 . S
C1107 C1106 1.372 . S
C1107 C1108 1.400 . S
C1107 C1112 1.490 . S
C1108 H1098 0.930 . S
C1108 C1107 1.400 . S
C1108 C1111 1.386 . S
H1109 C1125 0.930 . S
H1110 C1126 0.931 . S
C1111 H1099 0.929 . S
C1111 C1105 1.390 . S
C1111 C1108 1.386 . S
C1112 C1107 1.490 . S
C1112 C1114 1.395 . S
C1112 C1115 1.403 . S
H1113 C1119 0.930 . S
C1114 H1100 0.930 . S
C1114 C1112 1.395 . S
C1114 C1117 1.403 . S
C1115 C1112 1.403 . S
C1115 C1116 1.524 . S
C1115 C1119 1.400 . S
C1116 H1101 0.960 . S
C1116 H1102 0.960 . S
C1116 H1103 0.960 . S
C1116 C1115 1.524 . S
C1117 C1114 1.403 . S
C1117 C1118 1.392 . S
C1117 C1121 1.495 . S
C1118 C1117 1.392 . S
C1118 C1119 1.385 . S
C1118 C1120 1.478 . S
C1119 H1113 0.930 . S
C1119 C1115 1.400 . S
C1119 C1118 1.385 . S
C1120 C1118 1.478 . S
C1120 C1122 1.381 . S
C1120 C1126 1.383 . S
C1121 C1117 1.495 . S
C1121 H1127 0.959 . S
C1121 H1128 0.961 . S
C1121 H1129 0.960 . S
C1122 C1120 1.381 . S
C1122 C1123 1.394 . S
C1122 H1130 0.930 . S
C1123 C1122 1.394 . S
C1123 C1124 1.383 . S
C1123 H1131 0.929 . S
C1124 C1123 1.383 . S
C1124 C1125 1.377 . S
C1125 H1109 0.930 . S
C1125 C1124 1.377 . S
C1125 C1126 1.379 . S
C1126 H1110 0.931 . S
C1126 C1120 1.383 . S
C1126 C1125 1.379 . S
H1127 C1121 0.959 . S
H1128 C1121 0.961 . S
H1129 C1121 0.960 . S
H1130 C1122 0.930 . S
H1131 C1123 0.929 . S
H1132 C1140 0.929 . S
H1133 C1142 0.930 . S
H1134 C1144 0.930 . S
H1135 C1147 0.929 . S
H1136 C1150 0.930 . S
H1137 C1152 0.960 . S
H1138 C1152 0.960 . S
H1139 C1152 0.960 . S
C1140 H1132 0.929 . S
C1140 C1141 1.377 . S
C1140 C1142 1.384 . S
C1141 C1140 1.377 . S
C1141 C1147 1.390 . S
C1142 H1133 0.930 . S
C1142 C1140 1.384 . S
C1142 C1143 1.372 . S
C1143 C1142 1.372 . S
C1143 C1144 1.400 . S
C1143 C1148 1.490 . S
C1144 H1134 0.930 . S
C1144 C1143 1.400 . S
C1144 C1147 1.386 . S
H1145 C1161 0.930 . S
H1146 C1162 0.931 . S
C1147 H1135 0.929 . S
C1147 C1141 1.390 . S
C1147 C1144 1.386 . S
C1148 C1143 1.490 . S
C1148 C1150 1.395 . S
C1148 C1151 1.403 . S
H1149 C1155 0.930 . S
C1150 H1136 0.930 . S
C1150 C1148 1.395 . S
C1150 C1153 1.403 . S
C1151 C1148 1.403 . S
C1151 C1152 1.524 . S
C1151 C1155 1.400 . S
C1152 H1137 0.960 . S
C1152 H1138 0.960 . S
C1152 H1139 0.960 . S
C1152 C1151 1.524 . S
C1153 C1150 1.403 . S
C1153 C1154 1.392 . S
C1153 C1157 1.495 . S
C1154 C1153 1.392 . S
C1154 C1155 1.385 . S
C1154 C1156 1.478 . S
C1155 H1149 0.930 . S
C1155 C1151 1.400 . S
C1155 C1154 1.385 . S
C1156 C1154 1.478 . S
C1156 C1158 1.381 . S
C1156 C1162 1.383 . S
C1157 C1153 1.495 . S
C1157 H1163 0.959 . S
C1157 H1164 0.961 . S
C1157 H1165 0.960 . S
C1158 C1156 1.381 . S
C1158 C1159 1.394 . S
C1158 H1166 0.930 . S
C1159 C1158 1.394 . S
C1159 C1160 1.383 . S
C1159 H1167 0.929 . S
C1160 C1159 1.383 . S
C1160 C1161 1.377 . S
C1161 H1145 0.930 . S
C1161 C1160 1.377 . S
C1161 C1162 1.379 . S
C1162 H1146 0.931 . S
C1162 C1156 1.383 . S
C1162 C1161 1.379 . S
H1163 C1157 0.959 . S
H1164 C1157 0.961 . S
H1165 C1157 0.960 . S
H1166 C1158 0.930 . S
H1167 C1159 0.929 . S
H1168 C1176 0.929 . S
H1169 C1178 0.930 . S
H1170 C1180 0.930 . S
H1171 C1183 0.929 . S
H1172 C1186 0.930 . S
H1173 C1188 0.960 . S
H1174 C1188 0.960 . S
H1175 C1188 0.960 . S
C1176 H1168 0.929 . S
C1176 C1177 1.377 . S
C1176 C1178 1.384 . S
C1177 C1176 1.377 . S
C1177 C1183 1.390 . S
C1178 H1169 0.930 . S
C1178 C1176 1.384 . S
C1178 C1179 1.372 . S
C1179 C1178 1.372 . S
C1179 C1180 1.400 . S
C1179 C1184 1.490 . S
C1180 H1170 0.930 . S
C1180 C1179 1.400 . S
C1180 C1183 1.386 . S
H1181 C1197 0.930 . S
H1182 C1198 0.931 . S
C1183 H1171 0.929 . S
C1183 C1177 1.390 . S
C1183 C1180 1.386 . S
C1184 C1179 1.490 . S
C1184 C1186 1.395 . S
C1184 C1187 1.403 . S
H1185 C1191 0.930 . S
C1186 H1172 0.930 . S
C1186 C1184 1.395 . S
C1186 C1189 1.403 . S
C1187 C1184 1.403 . S
C1187 C1188 1.524 . S
C1187 C1191 1.400 . S
C1188 H1173 0.960 . S
C1188 H1174 0.960 . S
C1188 H1175 0.960 . S
C1188 C1187 1.524 . S
C1189 C1186 1.403 . S
C1189 C1190 1.392 . S
C1189 C1193 1.495 . S
C1190 C1189 1.392 . S
C1190 C1191 1.385 . S
C1190 C1192 1.478 . S
C1191 H1185 0.930 . S
C1191 C1187 1.400 . S
C1191 C1190 1.385 . S
C1192 C1190 1.478 . S
C1192 C1194 1.381 . S
C1192 C1198 1.383 . S
C1193 C1189 1.495 . S
C1193 H1199 0.959 . S
C1193 H1200 0.961 . S
C1193 H1201 0.960 . S
C1194 C1192 1.381 . S
C1194 C1195 1.394 . S
C1194 H1202 0.930 . S
C1195 C1194 1.394 . S
C1195 C1196 1.383 . S
C1195 H1203 0.929 . S
C1196 C1195 1.383 . S
C1196 C1197 1.377 . S
C1197 H1181 0.930 . S
C1197 C1196 1.377 . S
C1197 C1198 1.379 . S
C1198 H1182 0.931 . S
C1198 C1192 1.383 . S
C1198 C1197 1.379 . S
H1199 C1193 0.959 . S
H1200 C1193 0.961 . S
H1201 C1193 0.960 . S
H1202 C1194 0.930 . S
H1203 C1195 0.929 . S
H1204 C1212 0.929 . S
H1205 C1214 0.930 . S
H1206 C1216 0.930 . S
H1207 C1219 0.929 . S
H1208 C1222 0.930 . S
H1209 C1224 0.960 . S
H1210 C1224 0.960 . S
H1211 C1224 0.960 . S
C1212 H1204 0.929 . S
C1212 C1213 1.377 . S
C1212 C1214 1.384 . S
C1213 C1212 1.377 . S
C1213 C1219 1.390 . S
C1214 H1205 0.930 . S
C1214 C1212 1.384 . S
C1214 C1215 1.372 . S
C1215 C1214 1.372 . S
C1215 C1216 1.400 . S
C1215 C1220 1.490 . S
C1216 H1206 0.930 . S
C1216 C1215 1.400 . S
C1216 C1219 1.386 . S
H1217 C1233 0.930 . S
H1218 C1234 0.931 . S
C1219 H1207 0.929 . S
C1219 C1213 1.390 . S
C1219 C1216 1.386 . S
C1220 C1215 1.490 . S
C1220 C1222 1.395 . S
C1220 C1223 1.403 . S
H1221 C1227 0.930 . S
C1222 H1208 0.930 . S
C1222 C1220 1.395 . S
C1222 C1225 1.403 . S
C1223 C1220 1.403 . S
C1223 C1224 1.524 . S
C1223 C1227 1.400 . S
C1224 H1209 0.960 . S
C1224 H1210 0.960 . S
C1224 H1211 0.960 . S
C1224 C1223 1.524 . S
C1225 C1222 1.403 . S
C1225 C1226 1.392 . S
C1225 C1229 1.495 . S
C1226 C1225 1.392 . S
C1226 C1227 1.385 . S
C1226 C1228 1.478 . S
C1227 H1221 0.930 . S
C1227 C1223 1.400 . S
C1227 C1226 1.385 . S
C1228 C1226 1.478 . S
C1228 C1230 1.381 . S
C1228 C1234 1.383 . S
C1229 C1225 1.495 . S
C1229 H1235 0.959 . S
C1229 H1236 0.961 . S
C1229 H1237 0.960 . S
C1230 C1228 1.381 . S
C1230 C1231 1.394 . S
C1230 H1238 0.930 . S
C1231 C1230 1.394 . S
C1231 C1232 1.383 . S
C1231 H1239 0.929 . S
C1232 C1231 1.383 . S
C1232 C1233 1.377 . S
C1233 H1217 0.930 . S
C1233 C1232 1.377 . S
C1233 C1234 1.379 . S
C1234 H1218 0.931 . S
C1234 C1228 1.383 . S
C1234 C1233 1.379 . S
H1235 C1229 0.959 . S
H1236 C1229 0.961 . S
H1237 C1229 0.960 . S
H1238 C1230 0.930 . S
H1239 C1231 0.929 . S
H1240 C1248 0.929 . S
H1241 C1250 0.930 . S
H1242 C1252 0.930 . S
H1243 C1255 0.929 . S
H1244 C1258 0.930 . S
H1245 C1260 0.960 . S
H1246 C1260 0.960 . S
H1247 C1260 0.960 . S
C1248 H1240 0.929 . S
C1248 C1249 1.377 . S
C1248 C1250 1.384 . S
C1249 C1248 1.377 . S
C1249 C1255 1.390 . S
C1250 H1241 0.930 . S
C1250 C1248 1.384 . S
C1250 C1251 1.372 . S
C1251 C1250 1.372 . S
C1251 C1252 1.400 . S
C1251 C1256 1.490 . S
C1252 H1242 0.930 . S
C1252 C1251 1.400 . S
C1252 C1255 1.386 . S
H1253 C1269 0.930 . S
H1254 C1270 0.931 . S
C1255 H1243 0.929 . S
C1255 C1249 1.390 . S
C1255 C1252 1.386 . S
C1256 C1251 1.490 . S
C1256 C1258 1.395 . S
C1256 C1259 1.403 . S
H1257 C1263 0.930 . S
C1258 H1244 0.930 . S
C1258 C1256 1.395 . S
C1258 C1261 1.403 . S
C1259 C1256 1.403 . S
C1259 C1260 1.524 . S
C1259 C1263 1.400 . S
C1260 H1245 0.960 . S
C1260 H1246 0.960 . S
C1260 H1247 0.960 . S
C1260 C1259 1.524 . S
C1261 C1258 1.403 . S
C1261 C1262 1.392 . S
C1261 C1265 1.495 . S
C1262 C1261 1.392 . S
C1262 C1263 1.385 . S
C1262 C1264 1.478 . S
C1263 H1257 0.930 . S
C1263 C1259 1.400 . S
C1263 C1262 1.385 . S
C1264 C1262 1.478 . S
C1264 C1266 1.381 . S
C1264 C1270 1.383 . S
C1265 C1261 1.495 . S
C1265 H1271 0.959 . S
C1265 H1272 0.961 . S
C1265 H1273 0.960 . S
C1266 C1264 1.381 . S
C1266 C1267 1.394 . S
C1266 H1274 0.930 . S
C1267 C1266 1.394 . S
C1267 C1268 1.383 . S
C1267 H1275 0.929 . S
C1268 C1267 1.383 . S
C1268 C1269 1.377 . S
C1269 H1253 0.930 . S
C1269 C1268 1.377 . S
C1269 C1270 1.379 . S
C1270 H1254 0.931 . S
C1270 C1264 1.383 . S
C1270 C1269 1.379 . S
H1271 C1265 0.959 . S
H1272 C1265 0.961 . S
H1273 C1265 0.960 . S
H1274 C1266 0.930 . S
H1275 C1267 0.929 . S
H1276 C1284 0.929 . S
H1277 C1286 0.930 . S
H1278 C1288 0.930 . S
H1279 C1291 0.929 . S
H1280 C1294 0.930 . S
H1281 C1296 0.960 . S
H1282 C1296 0.960 . S
H1283 C1296 0.960 . S
C1284 H1276 0.929 . S
C1284 C1285 1.377 . S
C1284 C1286 1.384 . S
C1285 C1284 1.377 . S
C1285 C1291 1.390 . S
C1286 H1277 0.930 . S
C1286 C1284 1.384 . S
C1286 C1287 1.372 . S
C1287 C1286 1.372 . S
C1287 C1288 1.400 . S
C1287 C1292 1.490 . S
C1288 H1278 0.930 . S
C1288 C1287 1.400 . S
C1288 C1291 1.386 . S
H1289 C1305 0.930 . S
H1290 C1306 0.931 . S
C1291 H1279 0.929 . S
C1291 C1285 1.390 . S
C1291 C1288 1.386 . S
C1292 C1287 1.490 . S
C1292 C1294 1.395 . S
C1292 C1295 1.403 . S
H1293 C1299 0.930 . S
C1294 H1280 0.930 . S
C1294 C1292 1.395 . S
C1294 C1297 1.403 . S
C1295 C1292 1.403 . S
C1295 C1296 1.524 . S
C1295 C1299 1.400 . S
C1296 H1281 0.960 . S
C1296 H1282 0.960 . S
C1296 H1283 0.960 . S
C1296 C1295 1.524 . S
C1297 C1294 1.403 . S
C1297 C1298 1.392 . S
C1297 C1301 1.495 . S
C1298 C1297 1.392 . S
C1298 C1299 1.385 . S
C1298 C1300 1.478 . S
C1299 H1293 0.930 . S
C1299 C1295 1.400 . S
C1299 C1298 1.385 . S
C1300 C1298 1.478 . S
C1300 C1302 1.381 . S
C1300 C1306 1.383 . S
C1301 C1297 1.495 . S
C1301 H1307 0.959 . S
C1301 H1308 0.961 . S
C1301 H1309 0.960 . S
C1302 C1300 1.381 . S
C1302 C1303 1.394 . S
C1302 H1310 0.930 . S
C1303 C1302 1.394 . S
C1303 C1304 1.383 . S
C1303 H1311 0.929 . S
C1304 C1303 1.383 . S
C1304 C1305 1.377 . S
C1305 H1289 0.930 . S
C1305 C1304 1.377 . S
C1305 C1306 1.379 . S
C1306 H1290 0.931 . S
C1306 C1300 1.383 . S
C1306 C1305 1.379 . S
H1307 C1301 0.959 . S
H1308 C1301 0.961 . S
H1309 C1301 0.960 . S
H1310 C1302 0.930 . S
H1311 C1303 0.929 . S
H1312 C1320 0.929 . S
H1313 C1322 0.930 . S
H1314 C1324 0.930 . S
H1315 C1327 0.929 . S
H1316 C1330 0.930 . S
H1317 C1332 0.960 . S
H1318 C1332 0.960 . S
H1319 C1332 0.960 . S
C1320 H1312 0.929 . S
C1320 C1321 1.377 . S
C1320 C1322 1.384 . S
C1321 C1320 1.377 . S
C1321 C1327 1.390 . S
C1322 H1313 0.930 . S
C1322 C1320 1.384 . S
C1322 C1323 1.372 . S
C1323 C1322 1.372 . S
C1323 C1324 1.400 . S
C1323 C1328 1.490 . S
C1324 H1314 0.930 . S
C1324 C1323 1.400 . S
C1324 C1327 1.386 . S
H1325 C1341 0.930 . S
H1326 C1342 0.931 . S
C1327 H1315 0.929 . S
C1327 C1321 1.390 . S
C1327 C1324 1.386 . S
C1328 C1323 1.490 . S
C1328 C1330 1.395 . S
C1328 C1331 1.403 . S
H1329 C1335 0.930 . S
C1330 H1316 0.930 . S
C1330 C1328 1.395 . S
C1330 C1333 1.403 . S
C1331 C1328 1.403 . S
C1331 C1332 1.524 . S
C1331 C1335 1.400 . S
C1332 H1317 0.960 . S
C1332 H1318 0.960 . S
C1332 H1319 0.960 . S
C1332 C1331 1.524 . S
C1333 C1330 1.403 . S
C1333 C1334 1.392 . S
C1333 C1337 1.495 . S
C1334 C1333 1.392 . S
C1334 C1335 1.385 . S
C1334 C1336 1.478 . S
C1335 H1329 0.930 . S
C1335 C1331 1.400 . S
C1335 C1334 1.385 . S
C1336 C1334 1.478 . S
C1336 C1338 1.381 . S
C1336 C1342 1.383 . S
C1337 C1333 1.495 . S
C1337 H1343 0.959 . S
C1337 H1344 0.961 . S
C1337 H1345 0.960 . S
C1338 C1336 1.381 . S
C1338 C1339 1.394 . S
C1338 H1346 0.930 . S
C1339 C1338 1.394 . S
C1339 C1340 1.383 . S
C1339 H1347 0.929 . S
C1340 C1339 1.383 . S
C1340 C1341 1.377 . S
C1341 H1325 0.930 . S
C1341 C1340 1.377 . S
C1341 C1342 1.379 . S
C1342 H1326 0.931 . S
C1342 C1336 1.383 . S
C1342 C1341 1.379 . S
H1343 C1337 0.959 . S
H1344 C1337 0.961 . S
H1345 C1337 0.960 . S
H1346 C1338 0.930 . S
H1347 C1339 0.929 . S
H1348 C1356 0.929 . S
H1349 C1358 0.930 . S
H1350 C1360 0.930 . S
H1351 C1363 0.929 . S
H1352 C1366 0.930 . S
H1353 C1368 0.960 . S
H1354 C1368 0.960 . S
H1355 C1368 0.960 . S
C1356 H1348 0.929 . S
C1356 C1357 1.377 . S
C1356 C1358 1.384 . S
C1357 C1356 1.377 . S
C1357 C1363 1.390 . S
C1358 H1349 0.930 . S
C1358 C1356 1.384 . S
C1358 C1359 1.372 . S
C1359 C1358 1.372 . S
C1359 C1360 1.400 . S
C1359 C1364 1.490 . S
C1360 H1350 0.930 . S
C1360 C1359 1.400 . S
C1360 C1363 1.386 . S
H1361 C1377 0.930 . S
H1362 C1378 0.931 1_655 S
C1363 H1351 0.929 . S
C1363 C1357 1.390 . S
C1363 C1360 1.386 . S
C1364 C1359 1.490 . S
C1364 C1366 1.395 . S
C1364 C1367 1.403 . S
H1365 C1371 0.930 . S
C1366 H1352 0.930 . S
C1366 C1364 1.395 . S
C1366 C1369 1.403 . S
C1367 C1364 1.403 . S
C1367 C1368 1.524 . S
C1367 C1371 1.400 . S
C1368 H1353 0.960 . S
C1368 H1354 0.960 . S
C1368 H1355 0.960 . S
C1368 C1367 1.524 . S
C1369 C1366 1.403 . S
C1369 C1370 1.392 . S
C1369 C1373 1.495 1_655 S
C1370 C1369 1.392 . S
C1370 C1371 1.385 . S
C1370 C1372 1.478 1_655 S
C1371 H1365 0.930 . S
C1371 C1367 1.400 . S
C1371 C1370 1.385 . S
C1372 C1370 1.478 1_455 S
C1372 C1374 1.381 . S
C1372 C1378 1.383 . S
C1373 C1369 1.495 1_455 S
C1373 H1379 0.959 . S
C1373 H1380 0.961 . S
C1373 H1381 0.960 . S
C1374 C1372 1.381 . S
C1374 C1375 1.394 . S
C1374 H1382 0.930 . S
C1375 C1374 1.394 . S
C1375 C1376 1.383 . S
C1375 H1383 0.929 . S
C1376 C1375 1.383 . S
C1376 C1377 1.377 . S
C1377 H1361 0.930 . S
C1377 C1376 1.377 . S
C1377 C1378 1.379 . S
C1378 H1362 0.931 1_455 S
C1378 C1372 1.383 . S
C1378 C1377 1.379 . S
H1379 C1373 0.959 . S
H1380 C1373 0.961 . S
H1381 C1373 0.960 . S
H1382 C1374 0.930 . S
H1383 C1375 0.929 . S
H1384 C1392 0.929 . S
H1385 C1394 0.930 . S
H1386 C1396 0.930 . S
H1387 C1399 0.929 . S
H1388 C1402 0.930 . S
H1389 C1404 0.960 . S
H1390 C1404 0.960 . S
H1391 C1404 0.960 . S
C1392 H1384 0.929 . S
C1392 C1393 1.377 . S
C1392 C1394 1.384 . S
C1393 C1392 1.377 . S
C1393 C1399 1.390 . S
C1394 H1385 0.930 . S
C1394 C1392 1.384 . S
C1394 C1395 1.372 . S
C1395 C1394 1.372 . S
C1395 C1396 1.400 . S
C1395 C1400 1.490 . S
C1396 H1386 0.930 . S
C1396 C1395 1.400 . S
C1396 C1399 1.386 . S
H1397 C1413 0.930 . S
H1398 C1414 0.931 . S
C1399 H1387 0.929 . S
C1399 C1393 1.390 . S
C1399 C1396 1.386 . S
C1400 C1395 1.490 . S
C1400 C1402 1.395 . S
C1400 C1403 1.403 . S
H1401 C1407 0.930 . S
C1402 H1388 0.930 . S
C1402 C1400 1.395 . S
C1402 C1405 1.403 . S
C1403 C1400 1.403 . S
C1403 C1404 1.524 . S
C1403 C1407 1.400 . S
C1404 H1389 0.960 . S
C1404 H1390 0.960 . S
C1404 H1391 0.960 . S
C1404 C1403 1.524 . S
C1405 C1402 1.403 . S
C1405 C1406 1.392 . S
C1405 C1409 1.495 . S
C1406 C1405 1.392 . S
C1406 C1407 1.385 . S
C1406 C1408 1.478 . S
C1407 H1401 0.930 . S
C1407 C1403 1.400 . S
C1407 C1406 1.385 . S
C1408 C1406 1.478 . S
C1408 C1410 1.381 . S
C1408 C1414 1.383 . S
C1409 C1405 1.495 . S
C1409 H1415 0.959 . S
C1409 H1416 0.961 . S
C1409 H1417 0.960 . S
C1410 C1408 1.381 . S
C1410 C1411 1.394 . S
C1410 H1418 0.930 . S
C1411 C1410 1.394 . S
C1411 C1412 1.383 . S
C1411 H1419 0.929 . S
C1412 C1411 1.383 . S
C1412 C1413 1.377 . S
C1413 H1397 0.930 . S
C1413 C1412 1.377 . S
C1413 C1414 1.379 . S
C1414 H1398 0.931 . S
C1414 C1408 1.383 . S
C1414 C1413 1.379 . S
H1415 C1409 0.959 . S
H1416 C1409 0.961 . S
H1417 C1409 0.960 . S
H1418 C1410 0.930 . S
H1419 C1411 0.929 . S
H1420 C1428 0.929 . S
H1421 C1430 0.930 . S
H1422 C1432 0.930 . S
H1423 C1435 0.929 . S
H1424 C1438 0.930 . S
H1425 C1440 0.960 . S
H1426 C1440 0.960 . S
H1427 C1440 0.960 . S
C1428 H1420 0.929 . S
C1428 C1429 1.377 . S
C1428 C1430 1.384 . S
C1429 C1428 1.377 . S
C1429 C1435 1.390 . S
C1430 H1421 0.930 . S
C1430 C1428 1.384 . S
C1430 C1431 1.372 . S
C1431 C1430 1.372 . S
C1431 C1432 1.400 . S
C1431 C1436 1.490 . S
C1432 H1422 0.930 . S
C1432 C1431 1.400 . S
C1432 C1435 1.386 . S
H1433 C1449 0.930 . S
H1434 C1450 0.931 . S
C1435 H1423 0.929 . S
C1435 C1429 1.390 . S
C1435 C1432 1.386 . S
C1436 C1431 1.490 . S
C1436 C1438 1.395 . S
C1436 C1439 1.403 . S
H1437 C1443 0.930 . S
C1438 H1424 0.930 . S
C1438 C1436 1.395 . S
C1438 C1441 1.403 . S
C1439 C1436 1.403 . S
C1439 C1440 1.524 . S
C1439 C1443 1.400 . S
C1440 H1425 0.960 . S
C1440 H1426 0.960 . S
C1440 H1427 0.960 . S
C1440 C1439 1.524 . S
C1441 C1438 1.403 . S
C1441 C1442 1.392 . S
C1441 C1445 1.495 . S
C1442 C1441 1.392 . S
C1442 C1443 1.385 . S
C1442 C1444 1.478 . S
C1443 H1437 0.930 . S
C1443 C1439 1.400 . S
C1443 C1442 1.385 . S
C1444 C1442 1.478 . S
C1444 C1446 1.381 . S
C1444 C1450 1.383 . S
C1445 C1441 1.495 . S
C1445 H1451 0.959 . S
C1445 H1452 0.961 . S
C1445 H1453 0.960 . S
C1446 C1444 1.381 . S
C1446 C1447 1.394 . S
C1446 H1454 0.930 . S
C1447 C1446 1.394 . S
C1447 C1448 1.383 . S
C1447 H1455 0.929 . S
C1448 C1447 1.383 . S
C1448 C1449 1.377 . S
C1449 H1433 0.930 . S
C1449 C1448 1.377 . S
C1449 C1450 1.379 . S
C1450 H1434 0.931 . S
C1450 C1444 1.383 . S
C1450 C1449 1.379 . S
H1451 C1445 0.959 . S
H1452 C1445 0.961 . S
H1453 C1445 0.960 . S
H1454 C1446 0.930 . S
H1455 C1447 0.929 . S
H1456 C1464 0.929 . S
H1457 C1466 0.930 . S
H1458 C1468 0.930 . S
H1459 C1471 0.929 . S
H1460 C1474 0.930 . S
H1461 C1476 0.960 . S
H1462 C1476 0.960 . S
H1463 C1476 0.960 . S
C1464 H1456 0.929 . S
C1464 C1465 1.377 . S
C1464 C1466 1.384 . S
C1465 C1464 1.377 . S
C1465 C1471 1.390 . S
C1466 H1457 0.930 . S
C1466 C1464 1.384 . S
C1466 C1467 1.372 . S
C1467 C1466 1.372 . S
C1467 C1468 1.400 . S
C1467 C1472 1.490 . S
C1468 H1458 0.930 . S
C1468 C1467 1.400 . S
C1468 C1471 1.386 . S
H1469 C1485 0.930 . S
H1470 C1486 0.931 . S
C1471 H1459 0.929 . S
C1471 C1465 1.390 . S
C1471 C1468 1.386 . S
C1472 C1467 1.490 . S
C1472 C1474 1.395 . S
C1472 C1475 1.403 . S
H1473 C1479 0.930 . S
C1474 H1460 0.930 . S
C1474 C1472 1.395 . S
C1474 C1477 1.403 . S
C1475 C1472 1.403 . S
C1475 C1476 1.524 . S
C1475 C1479 1.400 . S
C1476 H1461 0.960 . S
C1476 H1462 0.960 . S
C1476 H1463 0.960 . S
C1476 C1475 1.524 . S
C1477 C1474 1.403 . S
C1477 C1478 1.392 . S
C1477 C1481 1.495 . S
C1478 C1477 1.392 . S
C1478 C1479 1.385 . S
C1478 C1480 1.478 . S
C1479 H1473 0.930 . S
C1479 C1475 1.400 . S
C1479 C1478 1.385 . S
C1480 C1478 1.478 . S
C1480 C1482 1.381 . S
C1480 C1486 1.383 . S
C1481 C1477 1.495 . S
C1481 H1487 0.959 . S
C1481 H1488 0.961 . S
C1481 H1489 0.960 . S
C1482 C1480 1.381 . S
C1482 C1483 1.394 . S
C1482 H1490 0.930 . S
C1483 C1482 1.394 . S
C1483 C1484 1.383 . S
C1483 H1491 0.929 . S
C1484 C1483 1.383 . S
C1484 C1485 1.377 . S
C1485 H1469 0.930 . S
C1485 C1484 1.377 . S
C1485 C1486 1.379 . S
C1486 H1470 0.931 . S
C1486 C1480 1.383 . S
C1486 C1485 1.379 . S
H1487 C1481 0.959 . S
H1488 C1481 0.961 . S
H1489 C1481 0.960 . S
H1490 C1482 0.930 . S
H1491 C1483 0.929 . S
H1492 C1500 0.929 . S
H1493 C1502 0.930 . S
H1494 C1504 0.930 . S
H1495 C1507 0.929 . S
H1496 C1510 0.930 . S
H1497 C1512 0.960 . S
H1498 C1512 0.960 . S
H1499 C1512 0.960 . S
C1500 H1492 0.929 . S
C1500 C1501 1.377 . S
C1500 C1502 1.384 . S
C1501 C1500 1.377 . S
C1501 C1507 1.390 . S
C1502 H1493 0.930 . S
C1502 C1500 1.384 . S
C1502 C1503 1.372 . S
C1503 C1502 1.372 . S
C1503 C1504 1.400 . S
C1503 C1508 1.490 . S
C1504 H1494 0.930 . S
C1504 C1503 1.400 . S
C1504 C1507 1.386 . S
H1505 C1521 0.930 . S
H1506 C1522 0.931 . S
C1507 H1495 0.929 . S
C1507 C1501 1.390 . S
C1507 C1504 1.386 . S
C1508 C1503 1.490 . S
C1508 C1510 1.395 . S
C1508 C1511 1.403 . S
H1509 C1515 0.930 . S
C1510 H1496 0.930 . S
C1510 C1508 1.395 . S
C1510 C1513 1.403 . S
C1511 C1508 1.403 . S
C1511 C1512 1.524 . S
C1511 C1515 1.400 . S
C1512 H1497 0.960 . S
C1512 H1498 0.960 . S
C1512 H1499 0.960 . S
C1512 C1511 1.524 . S
C1513 C1510 1.403 . S
C1513 C1514 1.392 . S
C1513 C1517 1.495 . S
C1514 C1513 1.392 . S
C1514 C1515 1.385 . S
C1514 C1516 1.478 . S
C1515 H1509 0.930 . S
C1515 C1511 1.400 . S
C1515 C1514 1.385 . S
C1516 C1514 1.478 . S
C1516 C1518 1.381 . S
C1516 C1522 1.383 . S
C1517 C1513 1.495 . S
C1517 H1523 0.959 . S
C1517 H1524 0.961 . S
C1517 H1525 0.960 . S
C1518 C1516 1.381 . S
C1518 C1519 1.394 . S
C1518 H1526 0.930 . S
C1519 C1518 1.394 . S
C1519 C1520 1.383 . S
C1519 H1527 0.929 . S
C1520 C1519 1.383 . S
C1520 C1521 1.377 . S
C1521 H1505 0.930 . S
C1521 C1520 1.377 . S
C1521 C1522 1.379 . S
C1522 H1506 0.931 . S
C1522 C1516 1.383 . S
C1522 C1521 1.379 . S
H1523 C1517 0.959 . S
H1524 C1517 0.961 . S
H1525 C1517 0.960 . S
H1526 C1518 0.930 . S
H1527 C1519 0.929 . S
H1528 C1536 0.929 . S
H1529 C1538 0.930 . S
H1530 C1540 0.930 . S
H1531 C1543 0.929 . S
H1532 C1546 0.930 . S
H1533 C1548 0.960 . S
H1534 C1548 0.960 . S
H1535 C1548 0.960 . S
C1536 H1528 0.929 . S
C1536 C1537 1.377 . S
C1536 C1538 1.384 . S
C1537 C1536 1.377 . S
C1537 C1543 1.390 . S
C1538 H1529 0.930 . S
C1538 C1536 1.384 . S
C1538 C1539 1.372 . S
C1539 C1538 1.372 . S
C1539 C1540 1.400 . S
C1539 C1544 1.490 . S
C1540 H1530 0.930 . S
C1540 C1539 1.400 . S
C1540 C1543 1.386 . S
H1541 C1557 0.930 . S
H1542 C1558 0.931 . S
C1543 H1531 0.929 . S
C1543 C1537 1.390 . S
C1543 C1540 1.386 . S
C1544 C1539 1.490 . S
C1544 C1546 1.395 . S
C1544 C1547 1.403 . S
H1545 C1551 0.930 . S
C1546 H1532 0.930 . S
C1546 C1544 1.395 . S
C1546 C1549 1.403 . S
C1547 C1544 1.403 . S
C1547 C1548 1.524 . S
C1547 C1551 1.400 . S
C1548 H1533 0.960 . S
C1548 H1534 0.960 . S
C1548 H1535 0.960 . S
C1548 C1547 1.524 . S
C1549 C1546 1.403 . S
C1549 C1550 1.392 . S
C1549 C1553 1.495 . S
C1550 C1549 1.392 . S
C1550 C1551 1.385 . S
C1550 C1552 1.478 . S
C1551 H1545 0.930 . S
C1551 C1547 1.400 . S
C1551 C1550 1.385 . S
C1552 C1550 1.478 . S
C1552 C1554 1.381 . S
C1552 C1558 1.383 . S
C1553 C1549 1.495 . S
C1553 H1559 0.959 . S
C1553 H1560 0.961 . S
C1553 H1561 0.960 . S
C1554 C1552 1.381 . S
C1554 C1555 1.394 . S
C1554 H1562 0.930 . S
C1555 C1554 1.394 . S
C1555 C1556 1.383 . S
C1555 H1563 0.929 . S
C1556 C1555 1.383 . S
C1556 C1557 1.377 . S
C1557 H1541 0.930 . S
C1557 C1556 1.377 . S
C1557 C1558 1.379 . S
C1558 H1542 0.931 . S
C1558 C1552 1.383 . S
C1558 C1557 1.379 . S
H1559 C1553 0.959 . S
H1560 C1553 0.961 . S
H1561 C1553 0.960 . S
H1562 C1554 0.930 . S
H1563 C1555 0.929 . S
H1564 C1572 0.929 . S
H1565 C1574 0.930 . S
H1566 C1576 0.930 . S
H1567 C1579 0.929 . S
H1568 C1582 0.930 1_455 S
H1569 C1584 0.960 . S
H1570 C1584 0.960 . S
H1571 C1584 0.960 . S
C1572 H1564 0.929 . S
C1572 C1573 1.377 . S
C1572 C1574 1.384 . S
C1573 C1572 1.377 . S
C1573 C1579 1.390 . S
C1574 H1565 0.930 . S
C1574 C1572 1.384 . S
C1574 C1575 1.372 . S
C1575 C1574 1.372 . S
C1575 C1576 1.400 . S
C1575 C1580 1.490 1_455 S
C1576 H1566 0.930 . S
C1576 C1575 1.400 . S
C1576 C1579 1.386 . S
H1577 C1593 0.930 . S
H1578 C1594 0.931 . S
C1579 H1567 0.929 . S
C1579 C1573 1.390 . S
C1579 C1576 1.386 . S
C1580 C1575 1.490 1_655 S
C1580 C1582 1.395 . S
C1580 C1583 1.403 . S
H1581 C1587 0.930 . S
C1582 H1568 0.930 1_655 S
C1582 C1580 1.395 . S
C1582 C1585 1.403 . S
C1583 C1580 1.403 . S
C1583 C1584 1.524 . S
C1583 C1587 1.400 . S
C1584 H1569 0.960 . S
C1584 H1570 0.960 . S
C1584 H1571 0.960 . S
C1584 C1583 1.524 . S
C1585 C1582 1.403 . S
C1585 C1586 1.392 . S
C1585 C1589 1.495 . S
C1586 C1585 1.392 . S
C1586 C1587 1.385 . S
C1586 C1588 1.478 . S
C1587 H1581 0.930 . S
C1587 C1583 1.400 . S
C1587 C1586 1.385 . S
C1588 C1586 1.478 . S
C1588 C1590 1.381 . S
C1588 C1594 1.383 . S
C1589 C1585 1.495 . S
C1589 H1595 0.959 . S
C1589 H1596 0.961 . S
C1589 H1597 0.960 . S
C1590 C1588 1.381 . S
C1590 C1591 1.394 . S
C1590 H1598 0.930 . S
C1591 C1590 1.394 . S
C1591 C1592 1.383 . S
C1591 H1599 0.929 . S
C1592 C1591 1.383 . S
C1592 C1593 1.377 . S
C1593 H1577 0.930 . S
C1593 C1592 1.377 . S
C1593 C1594 1.379 . S
C1594 H1578 0.931 . S
C1594 C1588 1.383 . S
C1594 C1593 1.379 . S
H1595 C1589 0.959 . S
H1596 C1589 0.961 . S
H1597 C1589 0.960 . S
H1598 C1590 0.930 . S
H1599 C1591 0.929 . S
H1600 C1608 0.929 . S
H1601 C1610 0.930 . S
H1602 C1612 0.930 . S
H1603 C1615 0.929 . S
H1604 C1618 0.930 . S
H1605 C1620 0.960 . S
H1606 C1620 0.960 . S
H1607 C1620 0.960 . S
C1608 H1600 0.929 . S
C1608 C1609 1.377 . S
C1608 C1610 1.384 . S
C1609 C1608 1.377 . S
C1609 C1615 1.390 . S
C1610 H1601 0.930 . S
C1610 C1608 1.384 . S
C1610 C1611 1.372 . S
C1611 C1610 1.372 . S
C1611 C1612 1.400 . S
C1611 C1616 1.490 . S
C1612 H1602 0.930 . S
C1612 C1611 1.400 . S
C1612 C1615 1.386 . S
H1613 C1629 0.930 . S
H1614 C1630 0.931 . S
C1615 H1603 0.929 . S
C1615 C1609 1.390 . S
C1615 C1612 1.386 . S
C1616 C1611 1.490 . S
C1616 C1618 1.395 . S
C1616 C1619 1.403 . S
H1617 C1623 0.930 . S
C1618 H1604 0.930 . S
C1618 C1616 1.395 . S
C1618 C1621 1.403 . S
C1619 C1616 1.403 . S
C1619 C1620 1.524 . S
C1619 C1623 1.400 . S
C1620 H1605 0.960 . S
C1620 H1606 0.960 . S
C1620 H1607 0.960 . S
C1620 C1619 1.524 . S
C1621 C1618 1.403 . S
C1621 C1622 1.392 . S
C1621 C1625 1.495 . S
C1622 C1621 1.392 . S
C1622 C1623 1.385 . S
C1622 C1624 1.478 . S
C1623 H1617 0.930 . S
C1623 C1619 1.400 . S
C1623 C1622 1.385 . S
C1624 C1622 1.478 . S
C1624 C1626 1.381 . S
C1624 C1630 1.383 . S
C1625 C1621 1.495 . S
C1625 H1631 0.959 . S
C1625 H1632 0.961 . S
C1625 H1633 0.960 . S
C1626 C1624 1.381 . S
C1626 C1627 1.394 . S
C1626 H1634 0.930 . S
C1627 C1626 1.394 . S
C1627 C1628 1.383 . S
C1627 H1635 0.929 . S
C1628 C1627 1.383 . S
C1628 C1629 1.377 . S
C1629 H1613 0.930 . S
C1629 C1628 1.377 . S
C1629 C1630 1.379 . S
C1630 H1614 0.931 . S
C1630 C1624 1.383 . S
C1630 C1629 1.379 . S
H1631 C1625 0.959 . S
H1632 C1625 0.961 . S
H1633 C1625 0.960 . S
H1634 C1626 0.930 . S
H1635 C1627 0.929 . S
H1636 C1644 0.929 . S
H1637 C1646 0.930 . S
H1638 C1648 0.930 . S
H1639 C1651 0.929 . S
H1640 C1654 0.930 . S
H1641 C1656 0.960 . S
H1642 C1656 0.960 . S
H1643 C1656 0.960 . S
C1644 H1636 0.929 . S
C1644 C1645 1.377 . S
C1644 C1646 1.384 . S
C1645 C1644 1.377 . S
C1645 C1651 1.390 . S
C1646 H1637 0.930 . S
C1646 C1644 1.384 . S
C1646 C1647 1.372 . S
C1647 C1646 1.372 . S
C1647 C1648 1.400 . S
C1647 C1652 1.490 . S
C1648 H1638 0.930 . S
C1648 C1647 1.400 . S
C1648 C1651 1.386 . S
H1649 C1665 0.930 . S
H1650 C1666 0.931 . S
C1651 H1639 0.929 . S
C1651 C1645 1.390 . S
C1651 C1648 1.386 . S
C1652 C1647 1.490 . S
C1652 C1654 1.395 1_655 S
C1652 C1655 1.403 . S
H1653 C1659 0.930 . S
C1654 H1640 0.930 . S
C1654 C1652 1.395 1_455 S
C1654 C1657 1.403 . S
C1655 C1652 1.403 . S
C1655 C1656 1.524 . S
C1655 C1659 1.400 1_655 S
C1656 H1641 0.960 . S
C1656 H1642 0.960 . S
C1656 H1643 0.960 . S
C1656 C1655 1.524 . S
C1657 C1654 1.403 . S
C1657 C1658 1.392 . S
C1657 C1661 1.495 . S
C1658 C1657 1.392 . S
C1658 C1659 1.385 . S
C1658 C1660 1.478 . S
C1659 H1653 0.930 . S
C1659 C1655 1.400 1_455 S
C1659 C1658 1.385 . S
C1660 C1658 1.478 . S
C1660 C1662 1.381 . S
C1660 C1666 1.383 . S
C1661 C1657 1.495 . S
C1661 H1667 0.959 . S
C1661 H1668 0.961 . S
C1661 H1669 0.960 . S
C1662 C1660 1.381 . S
C1662 C1663 1.394 . S
C1662 H1670 0.930 . S
C1663 C1662 1.394 . S
C1663 C1664 1.383 . S
C1663 H1671 0.929 . S
C1664 C1663 1.383 . S
C1664 C1665 1.377 . S
C1665 H1649 0.930 . S
C1665 C1664 1.377 . S
C1665 C1666 1.379 . S
C1666 H1650 0.931 . S
C1666 C1660 1.383 . S
C1666 C1665 1.379 . S
H1667 C1661 0.959 . S
H1668 C1661 0.961 . S
H1669 C1661 0.960 . S
H1670 C1662 0.930 . S
H1671 C1663 0.929 . S
H1672 C1680 0.929 . S
H1673 C1682 0.930 . S
H1674 C1684 0.930 . S
H1675 C1687 0.929 . S
H1676 C1690 0.930 . S
H1677 C1692 0.960 . S
H1678 C1692 0.960 . S
H1679 C1692 0.960 . S
C1680 H1672 0.929 . S
C1680 C1681 1.377 . S
C1680 C1682 1.384 . S
C1681 C1680 1.377 . S
C1681 C1687 1.390 . S
C1682 H1673 0.930 . S
C1682 C1680 1.384 . S
C1682 C1683 1.372 . S
C1683 C1682 1.372 . S
C1683 C1684 1.400 . S
C1683 C1688 1.490 . S
C1684 H1674 0.930 . S
C1684 C1683 1.400 . S
C1684 C1687 1.386 . S
H1685 C1701 0.930 . S
H1686 C1702 0.931 . S
C1687 H1675 0.929 . S
C1687 C1681 1.390 . S
C1687 C1684 1.386 . S
C1688 C1683 1.490 . S
C1688 C1690 1.395 . S
C1688 C1691 1.403 . S
H1689 C1695 0.930 . S
C1690 H1676 0.930 . S
C1690 C1688 1.395 . S
C1690 C1693 1.403 . S
C1691 C1688 1.403 . S
C1691 C1692 1.524 . S
C1691 C1695 1.400 . S
C1692 H1677 0.960 . S
C1692 H1678 0.960 . S
C1692 H1679 0.960 . S
C1692 C1691 1.524 . S
C1693 C1690 1.403 . S
C1693 C1694 1.392 . S
C1693 C1697 1.495 . S
C1694 C1693 1.392 . S
C1694 C1695 1.385 . S
C1694 C1696 1.478 . S
C1695 H1689 0.930 . S
C1695 C1691 1.400 . S
C1695 C1694 1.385 . S
C1696 C1694 1.478 . S
C1696 C1698 1.381 . S
C1696 C1702 1.383 . S
C1697 C1693 1.495 . S
C1697 H1703 0.959 . S
C1697 H1704 0.961 . S
C1697 H1705 0.960 . S
C1698 C1696 1.381 . S
C1698 C1699 1.394 . S
C1698 H1706 0.930 . S
C1699 C1698 1.394 . S
C1699 C1700 1.383 . S
C1699 H1707 0.929 . S
C1700 C1699 1.383 . S
C1700 C1701 1.377 . S
C1701 H1685 0.930 . S
C1701 C1700 1.377 . S
C1701 C1702 1.379 . S
C1702 H1686 0.931 . S
C1702 C1696 1.383 . S
C1702 C1701 1.379 . S
H1703 C1697 0.959 . S
H1704 C1697 0.961 . S
H1705 C1697 0.960 . S
H1706 C1698 0.930 . S
H1707 C1699 0.929 . S
H1708 C1716 0.929 . S
H1709 C1718 0.930 . S
H1710 C1720 0.930 . S
H1711 C1723 0.929 . S
H1712 C1726 0.930 . S
H1713 C1728 0.960 . S
H1714 C1728 0.960 . S
H1715 C1728 0.960 . S
C1716 H1708 0.929 . S
C1716 C1717 1.377 . S
C1716 C1718 1.384 . S
C1717 C1716 1.377 . S
C1717 C1723 1.390 . S
C1718 H1709 0.930 . S
C1718 C1716 1.384 . S
C1718 C1719 1.372 . S
C1719 C1718 1.372 . S
C1719 C1720 1.400 . S
C1719 C1724 1.490 . S
C1720 H1710 0.930 . S
C1720 C1719 1.400 . S
C1720 C1723 1.386 . S
H1721 C1737 0.930 . S
H1722 C1738 0.931 . S
C1723 H1711 0.929 . S
C1723 C1717 1.390 . S
C1723 C1720 1.386 . S
C1724 C1719 1.490 . S
C1724 C1726 1.395 . S
C1724 C1727 1.403 . S
H1725 C1731 0.930 . S
C1726 H1712 0.930 . S
C1726 C1724 1.395 . S
C1726 C1729 1.403 . S
C1727 C1724 1.403 . S
C1727 C1728 1.524 . S
C1727 C1731 1.400 . S
C1728 H1713 0.960 . S
C1728 H1714 0.960 . S
C1728 H1715 0.960 . S
C1728 C1727 1.524 . S
C1729 C1726 1.403 . S
C1729 C1730 1.392 . S
C1729 C1733 1.495 . S
C1730 C1729 1.392 . S
C1730 C1731 1.385 . S
C1730 C1732 1.478 . S
C1731 H1725 0.930 . S
C1731 C1727 1.400 . S
C1731 C1730 1.385 . S
C1732 C1730 1.478 . S
C1732 C1734 1.381 . S
C1732 C1738 1.383 . S
C1733 C1729 1.495 . S
C1733 H1739 0.959 . S
C1733 H1740 0.961 . S
C1733 H1741 0.960 . S
C1734 C1732 1.381 . S
C1734 C1735 1.394 . S
C1734 H1742 0.930 . S
C1735 C1734 1.394 . S
C1735 C1736 1.383 . S
C1735 H1743 0.929 . S
C1736 C1735 1.383 . S
C1736 C1737 1.377 . S
C1737 H1721 0.930 . S
C1737 C1736 1.377 . S
C1737 C1738 1.379 . S
C1738 H1722 0.931 . S
C1738 C1732 1.383 . S
C1738 C1737 1.379 . S
H1739 C1733 0.959 . S
H1740 C1733 0.961 . S
H1741 C1733 0.960 . S
H1742 C1734 0.930 . S
H1743 C1735 0.929 . S
H1744 C1752 0.929 . S
H1745 C1754 0.930 . S
H1746 C1756 0.930 . S
H1747 C1759 0.929 . S
H1748 C1762 0.930 . S
H1749 C1764 0.960 . S
H1750 C1764 0.960 . S
H1751 C1764 0.960 . S
C1752 H1744 0.929 . S
C1752 C1753 1.377 . S
C1752 C1754 1.384 . S
C1753 C1752 1.377 . S
C1753 C1759 1.390 . S
C1754 H1745 0.930 . S
C1754 C1752 1.384 . S
C1754 C1755 1.372 . S
C1755 C1754 1.372 . S
C1755 C1756 1.400 . S
C1755 C1760 1.490 . S
C1756 H1746 0.930 . S
C1756 C1755 1.400 . S
C1756 C1759 1.386 . S
H1757 C1773 0.930 . S
H1758 C1774 0.931 . S
C1759 H1747 0.929 . S
C1759 C1753 1.390 . S
C1759 C1756 1.386 . S
C1760 C1755 1.490 . S
C1760 C1762 1.395 . S
C1760 C1763 1.403 . S
H1761 C1767 0.930 . S
C1762 H1748 0.930 . S
C1762 C1760 1.395 . S
C1762 C1765 1.403 . S
C1763 C1760 1.403 . S
C1763 C1764 1.524 . S
C1763 C1767 1.400 . S
C1764 H1749 0.960 . S
C1764 H1750 0.960 . S
C1764 H1751 0.960 . S
C1764 C1763 1.524 . S
C1765 C1762 1.403 . S
C1765 C1766 1.392 . S
C1765 C1769 1.495 . S
C1766 C1765 1.392 . S
C1766 C1767 1.385 . S
C1766 C1768 1.478 . S
C1767 H1761 0.930 . S
C1767 C1763 1.400 . S
C1767 C1766 1.385 . S
C1768 C1766 1.478 . S
C1768 C1770 1.381 . S
C1768 C1774 1.383 . S
C1769 C1765 1.495 . S
C1769 H1775 0.959 . S
C1769 H1776 0.961 . S
C1769 H1777 0.960 . S
C1770 C1768 1.381 . S
C1770 C1771 1.394 . S
C1770 H1778 0.930 . S
C1771 C1770 1.394 . S
C1771 C1772 1.383 . S
C1771 H1779 0.929 . S
C1772 C1771 1.383 . S
C1772 C1773 1.377 . S
C1773 H1757 0.930 . S
C1773 C1772 1.377 . S
C1773 C1774 1.379 . S
C1774 H1758 0.931 . S
C1774 C1768 1.383 . S
C1774 C1773 1.379 . S
H1775 C1769 0.959 . S
H1776 C1769 0.961 . S
H1777 C1769 0.960 . S
H1778 C1770 0.930 . S
H1779 C1771 0.929 . S
H1780 C1788 0.929 . S
H1781 C1790 0.930 . S
H1782 C1792 0.930 . S
H1783 C1795 0.929 . S
H1784 C1798 0.930 . S
H1785 C1800 0.960 . S
H1786 C1800 0.960 . S
H1787 C1800 0.960 . S
C1788 H1780 0.929 . S
C1788 C1789 1.377 . S
C1788 C1790 1.384 . S
C1789 C1788 1.377 . S
C1789 C1795 1.390 . S
C1790 H1781 0.930 . S
C1790 C1788 1.384 . S
C1790 C1791 1.372 . S
C1791 C1790 1.372 . S
C1791 C1792 1.400 . S
C1791 C1796 1.490 . S
C1792 H1782 0.930 . S
C1792 C1791 1.400 . S
C1792 C1795 1.386 . S
H1793 C1809 0.930 . S
H1794 C1810 0.931 . S
C1795 H1783 0.929 . S
C1795 C1789 1.390 . S
C1795 C1792 1.386 . S
C1796 C1791 1.490 . S
C1796 C1798 1.395 . S
C1796 C1799 1.403 . S
H1797 C1803 0.930 . S
C1798 H1784 0.930 . S
C1798 C1796 1.395 . S
C1798 C1801 1.403 . S
C1799 C1796 1.403 . S
C1799 C1800 1.524 . S
C1799 C1803 1.400 . S
C1800 H1785 0.960 . S
C1800 H1786 0.960 . S
C1800 H1787 0.960 . S
C1800 C1799 1.524 . S
C1801 C1798 1.403 . S
C1801 C1802 1.392 . S
C1801 C1805 1.495 . S
C1802 C1801 1.392 . S
C1802 C1803 1.385 . S
C1802 C1804 1.478 . S
C1803 H1797 0.930 . S
C1803 C1799 1.400 . S
C1803 C1802 1.385 . S
C1804 C1802 1.478 . S
C1804 C1806 1.381 . S
C1804 C1810 1.383 . S
C1805 C1801 1.495 . S
C1805 H1811 0.959 . S
C1805 H1812 0.961 . S
C1805 H1813 0.960 . S
C1806 C1804 1.381 . S
C1806 C1807 1.394 . S
C1806 H1814 0.930 . S
C1807 C1806 1.394 . S
C1807 C1808 1.383 . S
C1807 H1815 0.929 . S
C1808 C1807 1.383 . S
C1808 C1809 1.377 . S
C1809 H1793 0.930 . S
C1809 C1808 1.377 . S
C1809 C1810 1.379 . S
C1810 H1794 0.931 . S
C1810 C1804 1.383 . S
C1810 C1809 1.379 . S
H1811 C1805 0.959 . S
H1812 C1805 0.961 . S
H1813 C1805 0.960 . S
H1814 C1806 0.930 . S
H1815 C1807 0.929 . S
H1816 C1824 0.929 . S
H1817 C1826 0.930 . S
H1818 C1828 0.930 . S
H1819 C1831 0.929 . S
H1820 C1834 0.930 . S
H1821 C1836 0.960 . S
H1822 C1836 0.960 . S
H1823 C1836 0.960 . S
C1824 H1816 0.929 . S
C1824 C1825 1.377 . S
C1824 C1826 1.384 . S
C1825 C1824 1.377 . S
C1825 C1831 1.390 . S
C1826 H1817 0.930 . S
C1826 C1824 1.384 . S
C1826 C1827 1.372 . S
C1827 C1826 1.372 . S
C1827 C1828 1.400 . S
C1827 C1832 1.490 . S
C1828 H1818 0.930 . S
C1828 C1827 1.400 . S
C1828 C1831 1.386 . S
H1829 C1845 0.930 . S
H1830 C1846 0.931 . S
C1831 H1819 0.929 . S
C1831 C1825 1.390 . S
C1831 C1828 1.386 . S
C1832 C1827 1.490 . S
C1832 C1834 1.395 . S
C1832 C1835 1.403 . S
H1833 C1839 0.930 . S
C1834 H1820 0.930 . S
C1834 C1832 1.395 . S
C1834 C1837 1.403 . S
C1835 C1832 1.403 . S
C1835 C1836 1.524 . S
C1835 C1839 1.400 . S
C1836 H1821 0.960 . S
C1836 H1822 0.960 . S
C1836 H1823 0.960 . S
C1836 C1835 1.524 . S
C1837 C1834 1.403 . S
C1837 C1838 1.392 . S
C1837 C1841 1.495 . S
C1838 C1837 1.392 . S
C1838 C1839 1.385 . S
C1838 C1840 1.478 . S
C1839 H1833 0.930 . S
C1839 C1835 1.400 . S
C1839 C1838 1.385 . S
C1840 C1838 1.478 . S
C1840 C1842 1.381 . S
C1840 C1846 1.383 . S
C1841 C1837 1.495 . S
C1841 H1847 0.959 . S
C1841 H1848 0.961 . S
C1841 H1849 0.960 . S
C1842 C1840 1.381 . S
C1842 C1843 1.394 . S
C1842 H1850 0.930 . S
C1843 C1842 1.394 . S
C1843 C1844 1.383 . S
C1843 H1851 0.929 . S
C1844 C1843 1.383 . S
C1844 C1845 1.377 . S
C1845 H1829 0.930 . S
C1845 C1844 1.377 . S
C1845 C1846 1.379 . S
C1846 H1830 0.931 . S
C1846 C1840 1.383 . S
C1846 C1845 1.379 . S
H1847 C1841 0.959 . S
H1848 C1841 0.961 . S
H1849 C1841 0.960 . S
H1850 C1842 0.930 . S
H1851 C1843 0.929 . S
H1852 C1860 0.929 . S
H1853 C1862 0.930 . S
H1854 C1864 0.930 . S
H1855 C1867 0.929 . S
H1856 C1870 0.930 . S
H1857 C1872 0.960 . S
H1858 C1872 0.960 . S
H1859 C1872 0.960 . S
C1860 H1852 0.929 . S
C1860 C1861 1.377 . S
C1860 C1862 1.384 . S
C1861 C1860 1.377 . S
C1861 C1867 1.390 . S
C1862 H1853 0.930 . S
C1862 C1860 1.384 . S
C1862 C1863 1.372 . S
C1863 C1862 1.372 . S
C1863 C1864 1.400 . S
C1863 C1868 1.490 . S
C1864 H1854 0.930 . S
C1864 C1863 1.400 . S
C1864 C1867 1.386 . S
H1865 C1881 0.930 . S
H1866 C1882 0.931 . S
C1867 H1855 0.929 . S
C1867 C1861 1.390 . S
C1867 C1864 1.386 . S
C1868 C1863 1.490 . S
C1868 C1870 1.395 . S
C1868 C1871 1.403 . S
H1869 C1875 0.939 . S
C1870 H1856 0.930 . S
C1870 C1868 1.395 . S
C1870 C1873 1.403 1_455 S
C1871 C1868 1.403 . S
C1871 C1872 1.524 . S
C1871 C1875 1.352 1_455 S
C1872 H1857 0.960 . S
C1872 H1858 0.960 . S
C1872 H1859 0.960 . S
C1872 C1871 1.524 . S
C1873 C1870 1.403 1_655 S
C1873 C1874 1.392 . S
C1873 C1877 1.495 . S
C1874 C1873 1.392 . S
C1874 C1875 1.428 . S
C1874 C1876 1.478 . S
C1875 H1869 0.939 . S
C1875 C1871 1.352 1_655 S
C1875 C1874 1.428 . S
C1876 C1874 1.478 . S
C1876 C1878 1.381 . S
C1876 C1882 1.383 . S
C1877 C1873 1.495 . S
C1877 H1883 0.959 . S
C1877 H1884 0.961 . S
C1877 H1885 0.960 . S
C1878 C1876 1.381 . S
C1878 C1879 1.394 . S
C1878 H1886 0.930 . S
C1879 C1878 1.394 . S
C1879 C1880 1.383 . S
C1879 H1887 0.929 . S
C1880 C1879 1.383 . S
C1880 C1881 1.377 . S
C1881 H1865 0.930 . S
C1881 C1880 1.377 . S
C1881 C1882 1.379 . S
C1882 H1866 0.931 . S
C1882 C1876 1.383 . S
C1882 C1881 1.379 . S
H1883 C1877 0.959 . S
H1884 C1877 0.961 . S
H1885 C1877 0.960 . S
H1886 C1878 0.930 . S
H1887 C1879 0.929 . S
H1888 C1896 0.929 . S
H1889 C1898 0.930 . S
H1890 C1900 0.930 . S
H1891 C1903 0.929 . S
H1892 C1906 0.930 . S
H1893 C1908 0.960 . S
H1894 C1908 0.960 . S
H1895 C1908 0.960 . S
C1896 H1888 0.929 . S
C1896 C1897 1.377 . S
C1896 C1898 1.384 . S
C1897 C1896 1.377 . S
C1897 C1903 1.390 . S
C1898 H1889 0.930 . S
C1898 C1896 1.384 . S
C1898 C1899 1.372 . S
C1899 C1898 1.372 . S
C1899 C1900 1.400 . S
C1899 C1904 1.490 . S
C1900 H1890 0.930 . S
C1900 C1899 1.400 . S
C1900 C1903 1.386 . S
H1901 C1917 0.930 . S
H1902 C1918 0.931 . S
C1903 H1891 0.929 . S
C1903 C1897 1.390 . S
C1903 C1900 1.386 . S
C1904 C1899 1.490 . S
C1904 C1906 1.395 . S
C1904 C1907 1.403 . S
H1905 C1911 0.930 . S
C1906 H1892 0.930 . S
C1906 C1904 1.395 . S
C1906 C1909 1.403 . S
C1907 C1904 1.403 . S
C1907 C1908 1.524 . S
C1907 C1911 1.400 . S
C1908 H1893 0.960 . S
C1908 H1894 0.960 . S
C1908 H1895 0.960 . S
C1908 C1907 1.524 . S
C1909 C1906 1.403 . S
C1909 C1910 1.392 . S
C1909 C1913 1.495 . S
C1910 C1909 1.392 . S
C1910 C1911 1.385 . S
C1910 C1912 1.478 . S
C1911 H1905 0.930 . S
C1911 C1907 1.400 . S
C1911 C1910 1.385 . S
C1912 C1910 1.478 . S
C1912 C1914 1.381 . S
C1912 C1918 1.383 . S
C1913 C1909 1.495 . S
C1913 H1919 0.959 . S
C1913 H1920 0.961 . S
C1913 H1921 0.960 . S
C1914 C1912 1.381 . S
C1914 C1915 1.394 . S
C1914 H1922 0.930 . S
C1915 C1914 1.394 . S
C1915 C1916 1.383 . S
C1915 H1923 0.929 . S
C1916 C1915 1.383 . S
C1916 C1917 1.377 . S
C1917 H1901 0.930 . S
C1917 C1916 1.377 . S
C1917 C1918 1.379 . S
C1918 H1902 0.931 . S
C1918 C1912 1.383 . S
C1918 C1917 1.379 . S
H1919 C1913 0.959 . S
H1920 C1913 0.961 . S
H1921 C1913 0.960 . S
H1922 C1914 0.930 . S
H1923 C1915 0.929 . S
H1924 C1932 0.929 . S
H1925 C1934 0.930 . S
H1926 C1936 0.930 . S
H1927 C1939 0.929 . S
H1928 C1942 0.930 . S
H1929 C1944 0.960 . S
H1930 C1944 0.960 . S
H1931 C1944 0.960 . S
C1932 H1924 0.929 . S
C1932 C1933 1.377 . S
C1932 C1934 1.384 . S
C1933 C1932 1.377 . S
C1933 C1939 1.390 . S
C1934 H1925 0.930 . S
C1934 C1932 1.384 . S
C1934 C1935 1.372 . S
C1935 C1934 1.372 . S
C1935 C1936 1.400 . S
C1935 C1940 1.490 . S
C1936 H1926 0.930 . S
C1936 C1935 1.400 . S
C1936 C1939 1.386 . S
H1937 C1953 0.930 . S
H1938 C1954 0.931 . S
C1939 H1927 0.929 . S
C1939 C1933 1.390 . S
C1939 C1936 1.386 . S
C1940 C1935 1.490 . S
C1940 C1942 1.395 . S
C1940 C1943 1.403 . S
H1941 C1947 0.930 . S
C1942 H1928 0.930 . S
C1942 C1940 1.395 . S
C1942 C1945 1.403 . S
C1943 C1940 1.403 . S
C1943 C1944 1.524 . S
C1943 C1947 1.400 . S
C1944 H1929 0.960 . S
C1944 H1930 0.960 . S
C1944 H1931 0.960 . S
C1944 C1943 1.524 . S
C1945 C1942 1.403 . S
C1945 C1946 1.392 . S
C1945 C1949 1.495 . S
C1946 C1945 1.392 . S
C1946 C1947 1.385 . S
C1946 C1948 1.478 . S
C1947 H1941 0.930 . S
C1947 C1943 1.400 . S
C1947 C1946 1.385 . S
C1948 C1946 1.478 . S
C1948 C1950 1.381 . S
C1948 C1954 1.383 . S
C1949 C1945 1.495 . S
C1949 H1955 0.959 . S
C1949 H1956 0.961 . S
C1949 H1957 0.960 . S
C1950 C1948 1.381 . S
C1950 C1951 1.394 . S
C1950 H1958 0.930 . S
C1951 C1950 1.394 . S
C1951 C1952 1.383 . S
C1951 H1959 0.929 . S
C1952 C1951 1.383 . S
C1952 C1953 1.377 . S
C1953 H1937 0.930 . S
C1953 C1952 1.377 . S
C1953 C1954 1.379 . S
C1954 H1938 0.931 . S
C1954 C1948 1.383 . S
C1954 C1953 1.379 . S
H1955 C1949 0.959 . S
H1956 C1949 0.961 . S
H1957 C1949 0.960 . S
H1958 C1950 0.930 . S
H1959 C1951 0.929 . S
H1960 C1968 0.929 . S
H1961 C1970 0.930 . S
H1962 C1972 0.930 . S
H1963 C1975 0.929 . S
H1964 C1978 0.930 . S
H1965 C1980 0.960 . S
H1966 C1980 0.960 . S
H1967 C1980 0.960 . S
C1968 H1960 0.929 . S
C1968 C1969 1.377 . S
C1968 C1970 1.384 . S
C1969 C1968 1.377 . S
C1969 C1975 1.390 . S
C1970 H1961 0.930 . S
C1970 C1968 1.384 . S
C1970 C1971 1.372 . S
C1971 C1970 1.372 . S
C1971 C1972 1.400 . S
C1971 C1976 1.490 . S
C1972 H1962 0.930 . S
C1972 C1971 1.400 . S
C1972 C1975 1.386 . S
H1973 C1989 0.930 . S
H1974 C1990 0.931 . S
C1975 H1963 0.929 . S
C1975 C1969 1.390 . S
C1975 C1972 1.386 . S
C1976 C1971 1.490 . S
C1976 C1978 1.395 . S
C1976 C1979 1.403 . S
H1977 C1983 0.930 . S
C1978 H1964 0.930 . S
C1978 C1976 1.395 . S
C1978 C1981 1.403 . S
C1979 C1976 1.403 . S
C1979 C1980 1.524 . S
C1979 C1983 1.400 . S
C1980 H1965 0.960 . S
C1980 H1966 0.960 . S
C1980 H1967 0.960 . S
C1980 C1979 1.524 . S
C1981 C1978 1.403 . S
C1981 C1982 1.392 . S
C1981 C1985 1.495 . S
C1982 C1981 1.392 . S
C1982 C1983 1.385 . S
C1982 C1984 1.478 . S
C1983 H1977 0.930 . S
C1983 C1979 1.400 . S
C1983 C1982 1.385 . S
C1984 C1982 1.478 . S
C1984 C1986 1.381 . S
C1984 C1990 1.383 . S
C1985 C1981 1.495 . S
C1985 H1991 0.959 . S
C1985 H1992 0.961 . S
C1985 H1993 0.960 . S
C1986 C1984 1.381 . S
C1986 C1987 1.394 . S
C1986 H1994 0.930 . S
C1987 C1986 1.394 . S
C1987 C1988 1.383 . S
C1987 H1995 0.929 . S
C1988 C1987 1.383 . S
C1988 C1989 1.377 . S
C1989 H1973 0.930 . S
C1989 C1988 1.377 . S
C1989 C1990 1.379 . S
C1990 H1974 0.931 . S
C1990 C1984 1.383 . S
C1990 C1989 1.379 . S
H1991 C1985 0.959 . S
H1992 C1985 0.961 . S
H1993 C1985 0.960 . S
H1994 C1986 0.930 . S
H1995 C1987 0.929 . S
H1996 C2004 0.929 . S
H1997 C2006 0.930 . S
H1998 C2008 0.930 . S
H1999 C2011 0.929 . S
H2000 C2014 0.930 . S
H2001 C2016 0.960 . S
H2002 C2016 0.960 . S
H2003 C2016 0.960 . S
C2004 H1996 0.929 . S
C2004 C2005 1.377 . S
C2004 C2006 1.384 . S
C2005 C2004 1.377 . S
C2005 C2011 1.390 . S
C2006 H1997 0.930 . S
C2006 C2004 1.384 . S
C2006 C2007 1.372 . S
C2007 C2006 1.372 . S
C2007 C2008 1.400 . S
C2007 C2012 1.490 . S
C2008 H1998 0.930 . S
C2008 C2007 1.400 . S
C2008 C2011 1.386 . S
H2009 C2025 0.930 . S
H2010 C2026 0.931 . S
C2011 H1999 0.929 . S
C2011 C2005 1.390 . S
C2011 C2008 1.386 . S
C2012 C2007 1.490 . S
C2012 C2014 1.395 . S
C2012 C2015 1.403 . S
H2013 C2019 0.930 . S
C2014 H2000 0.930 . S
C2014 C2012 1.395 . S
C2014 C2017 1.403 . S
C2015 C2012 1.403 . S
C2015 C2016 1.524 . S
C2015 C2019 1.400 . S
C2016 H2001 0.960 . S
C2016 H2002 0.960 . S
C2016 H2003 0.960 . S
C2016 C2015 1.524 . S
C2017 C2014 1.403 . S
C2017 C2018 1.392 . S
C2017 C2021 1.495 . S
C2018 C2017 1.392 . S
C2018 C2019 1.385 . S
C2018 C2020 1.478 1_455 S
C2019 H2013 0.930 . S
C2019 C2015 1.400 . S
C2019 C2018 1.385 . S
C2020 C2018 1.478 1_655 S
C2020 C2022 1.381 . S
C2020 C2026 1.383 . S
C2021 C2017 1.495 . S
C2021 H2027 0.959 . S
C2021 H2028 0.961 . S
C2021 H2029 0.960 . S
C2022 C2020 1.381 . S
C2022 C2023 1.394 . S
C2022 H2030 0.930 1_655 S
C2023 C2022 1.394 . S
C2023 C2024 1.383 . S
C2023 H2031 0.929 . S
C2024 C2023 1.383 . S
C2024 C2025 1.377 . S
C2025 H2009 0.930 . S
C2025 C2024 1.377 . S
C2025 C2026 1.379 . S
C2026 H2010 0.931 . S
C2026 C2020 1.383 . S
C2026 C2025 1.379 . S
H2027 C2021 0.959 . S
H2028 C2021 0.961 . S
H2029 C2021 0.960 . S
H2030 C2022 0.930 1_455 S
H2031 C2023 0.929 . S
H2032 C2040 0.929 . S
H2033 C2042 0.930 . S
H2034 C2044 0.930 . S
H2035 C2047 0.929 . S
H2036 C2050 0.930 . S
H2037 C2052 0.960 . S
H2038 C2052 0.960 . S
H2039 C2052 0.960 . S
C2040 H2032 0.929 . S
C2040 C2041 1.377 . S
C2040 C2042 1.384 . S
C2041 C2040 1.377 . S
C2041 C2047 1.390 . S
C2042 H2033 0.930 . S
C2042 C2040 1.384 . S
C2042 C2043 1.372 . S
C2043 C2042 1.372 . S
C2043 C2044 1.400 . S
C2043 C2048 1.490 . S
C2044 H2034 0.930 . S
C2044 C2043 1.400 . S
C2044 C2047 1.386 . S
H2045 C2061 0.930 . S
H2046 C2062 0.931 . S
C2047 H2035 0.929 . S
C2047 C2041 1.390 . S
C2047 C2044 1.386 . S
C2048 C2043 1.490 . S
C2048 C2050 1.395 . S
C2048 C2051 1.403 . S
H2049 C2055 0.930 . S
C2050 H2036 0.930 . S
C2050 C2048 1.395 . S
C2050 C2053 1.403 . S
C2051 C2048 1.403 . S
C2051 C2052 1.524 . S
C2051 C2055 1.400 . S
C2052 H2037 0.960 . S
C2052 H2038 0.960 . S
C2052 H2039 0.960 . S
C2052 C2051 1.524 . S
C2053 C2050 1.403 . S
C2053 C2054 1.392 . S
C2053 C2057 1.495 . S
C2054 C2053 1.392 . S
C2054 C2055 1.385 . S
C2054 C2056 1.478 . S
C2055 H2049 0.930 . S
C2055 C2051 1.400 . S
C2055 C2054 1.385 . S
C2056 C2054 1.478 . S
C2056 C2058 1.381 . S
C2056 C2062 1.383 . S
C2057 C2053 1.495 . S
C2057 H2063 0.959 . S
C2057 H2064 0.961 . S
C2057 H2065 0.960 . S
C2058 C2056 1.381 . S
C2058 C2059 1.394 . S
C2058 H2066 0.930 . S
C2059 C2058 1.394 . S
C2059 C2060 1.383 . S
C2059 H2067 0.929 . S
C2060 C2059 1.383 . S
C2060 C2061 1.377 . S
C2061 H2045 0.930 . S
C2061 C2060 1.377 . S
C2061 C2062 1.379 . S
C2062 H2046 0.931 . S
C2062 C2056 1.383 . S
C2062 C2061 1.379 . S
H2063 C2057 0.959 . S
H2064 C2057 0.961 . S
H2065 C2057 0.960 . S
H2066 C2058 0.930 . S
H2067 C2059 0.929 . S
H2068 C2076 0.929 . S
H2069 C2078 0.930 . S
H2070 C2080 0.930 . S
H2071 C2083 0.929 . S
H2072 C2086 0.930 . S
H2073 C2088 0.960 . S
H2074 C2088 0.960 1_655 S
H2075 C2088 0.962 . S
C2076 H2068 0.929 . S
C2076 C2077 1.377 . S
C2076 C2078 1.384 . S
C2077 C2076 1.377 . S
C2077 C2083 1.390 . S
C2078 H2069 0.930 . S
C2078 C2076 1.384 . S
C2078 C2079 1.372 . S
C2079 C2078 1.372 . S
C2079 C2080 1.400 . S
C2079 C2084 1.490 1_655 S
C2080 H2070 0.930 . S
C2080 C2079 1.400 . S
C2080 C2083 1.386 . S
H2081 C2097 0.930 . S
H2082 C2098 0.931 . S
C2083 H2071 0.929 . S
C2083 C2077 1.390 . S
C2083 C2080 1.386 . S
C2084 C2079 1.490 1_455 S
C2084 C2086 1.395 . S
C2084 C2087 1.403 . S
H2085 C2091 0.930 . S
C2086 H2072 0.930 . S
C2086 C2084 1.395 . S
C2086 C2089 1.403 . S
C2087 C2084 1.403 . S
C2087 C2088 1.524 . S
C2087 C2091 1.400 . S
C2088 H2073 0.960 . S
C2088 H2074 0.960 1_455 S
C2088 H2075 0.962 . S
C2088 C2087 1.524 . S
C2089 C2086 1.403 . S
C2089 C2090 1.392 . S
C2089 C2093 1.495 . S
C2090 C2089 1.392 . S
C2090 C2091 1.385 . S
C2090 C2092 1.478 . S
C2091 H2085 0.930 . S
C2091 C2087 1.400 . S
C2091 C2090 1.385 . S
C2092 C2090 1.478 . S
C2092 C2094 1.381 . S
C2092 C2098 1.383 . S
C2093 C2089 1.495 . S
C2093 H2099 0.959 . S
C2093 H2100 0.961 . S
C2093 H2101 0.960 . S
C2094 C2092 1.381 . S
C2094 C2095 1.394 . S
C2094 H2102 0.930 . S
C2095 C2094 1.394 . S
C2095 C2096 1.383 . S
C2095 H2103 0.929 . S
C2096 C2095 1.383 . S
C2096 C2097 1.377 . S
C2097 H2081 0.930 . S
C2097 C2096 1.377 . S
C2097 C2098 1.379 . S
C2098 H2082 0.931 . S
C2098 C2092 1.383 . S
C2098 C2097 1.379 . S
H2099 C2093 0.959 . S
H2100 C2093 0.961 . S
H2101 C2093 0.960 . S
H2102 C2094 0.930 . S
H2103 C2095 0.929 . S
H2104 C2112 0.929 . S
H2105 C2114 0.930 . S
H2106 C2116 0.930 . S
H2107 C2119 0.929 . S
H2108 C2122 0.930 . S
H2109 C2124 0.960 . S
H2110 C2124 0.960 . S
H2111 C2124 0.960 . S
C2112 H2104 0.929 . S
C2112 C2113 1.377 . S
C2112 C2114 1.384 . S
C2113 C2112 1.377 . S
C2113 C2119 1.390 . S
C2114 H2105 0.930 . S
C2114 C2112 1.384 . S
C2114 C2115 1.372 . S
C2115 C2114 1.372 . S
C2115 C2116 1.400 . S
C2115 C2120 1.490 . S
C2116 H2106 0.930 . S
C2116 C2115 1.400 . S
C2116 C2119 1.386 . S
H2117 C2133 0.930 . S
H2118 C2134 0.931 . S
C2119 H2107 0.929 . S
C2119 C2113 1.390 . S
C2119 C2116 1.386 . S
C2120 C2115 1.490 . S
C2120 C2122 1.395 . S
C2120 C2123 1.403 . S
H2121 C2127 0.930 . S
C2122 H2108 0.930 . S
C2122 C2120 1.395 . S
C2122 C2125 1.403 . S
C2123 C2120 1.403 . S
C2123 C2124 1.524 . S
C2123 C2127 1.400 . S
C2124 H2109 0.960 . S
C2124 H2110 0.960 . S
C2124 H2111 0.960 . S
C2124 C2123 1.524 . S
C2125 C2122 1.403 . S
C2125 C2126 1.392 . S
C2125 C2129 1.495 . S
C2126 C2125 1.392 . S
C2126 C2127 1.385 . S
C2126 C2128 1.478 . S
C2127 H2121 0.930 . S
C2127 C2123 1.400 . S
C2127 C2126 1.385 . S
C2128 C2126 1.478 . S
C2128 C2130 1.381 . S
C2128 C2134 1.383 . S
C2129 C2125 1.495 . S
C2129 H2135 0.959 . S
C2129 H2136 0.961 . S
C2129 H2137 0.960 . S
C2130 C2128 1.381 . S
C2130 C2131 1.394 . S
C2130 H2138 0.930 . S
C2131 C2130 1.394 . S
C2131 C2132 1.383 . S
C2131 H2139 0.929 . S
C2132 C2131 1.383 . S
C2132 C2133 1.377 . S
C2133 H2117 0.930 . S
C2133 C2132 1.377 . S
C2133 C2134 1.379 . S
C2134 H2118 0.931 . S
C2134 C2128 1.383 . S
C2134 C2133 1.379 . S
H2135 C2129 0.959 . S
H2136 C2129 0.961 . S
H2137 C2129 0.960 . S
H2138 C2130 0.930 . S
H2139 C2131 0.929 . S
H2140 C2148 0.929 . S
H2141 C2150 0.930 . S
H2142 C2152 0.930 . S
H2143 C2155 0.929 . S
H2144 C2158 0.930 . S
H2145 C2160 0.960 . S
H2146 C2160 0.960 . S
H2147 C2160 0.960 . S
C2148 H2140 0.929 . S
C2148 C2149 1.377 . S
C2148 C2150 1.384 . S
C2149 C2148 1.377 . S
C2149 C2155 1.390 . S
C2150 H2141 0.930 . S
C2150 C2148 1.384 . S
C2150 C2151 1.372 . S
C2151 C2150 1.372 . S
C2151 C2152 1.400 . S
C2151 C2156 1.490 . S
C2152 H2142 0.930 . S
C2152 C2151 1.400 . S
C2152 C2155 1.386 . S
H2153 C2169 0.930 . S
H2154 C2170 0.931 . S
C2155 H2143 0.929 . S
C2155 C2149 1.390 . S
C2155 C2152 1.386 . S
C2156 C2151 1.490 . S
C2156 C2158 1.395 . S
C2156 C2159 1.403 . S
H2157 C2163 0.930 . S
C2158 H2144 0.930 . S
C2158 C2156 1.395 . S
C2158 C2161 1.403 . S
C2159 C2156 1.403 . S
C2159 C2160 1.524 . S
C2159 C2163 1.400 . S
C2160 H2145 0.960 . S
C2160 H2146 0.960 . S
C2160 H2147 0.960 . S
C2160 C2159 1.524 . S
C2161 C2158 1.403 . S
C2161 C2162 1.392 . S
C2161 C2165 1.495 . S
C2162 C2161 1.392 . S
C2162 C2163 1.385 . S
C2162 C2164 1.478 . S
C2163 H2157 0.930 . S
C2163 C2159 1.400 . S
C2163 C2162 1.385 . S
C2164 C2162 1.478 . S
C2164 C2166 1.381 . S
C2164 C2170 1.383 . S
C2165 C2161 1.495 . S
C2165 H2171 0.959 . S
C2165 H2172 0.961 . S
C2165 H2173 0.960 . S
C2166 C2164 1.381 . S
C2166 C2167 1.394 . S
C2166 H2174 0.930 . S
C2167 C2166 1.394 . S
C2167 C2168 1.383 . S
C2167 H2175 0.929 . S
C2168 C2167 1.383 . S
C2168 C2169 1.377 . S
C2169 H2153 0.930 . S
C2169 C2168 1.377 . S
C2169 C2170 1.379 . S
C2170 H2154 0.931 . S
C2170 C2164 1.383 . S
C2170 C2169 1.379 . S
H2171 C2165 0.959 . S
H2172 C2165 0.961 . S
H2173 C2165 0.960 . S
H2174 C2166 0.930 . S
H2175 C2167 0.929 . S
H2176 C2184 0.929 . S
H2177 C2186 0.930 . S
H2178 C2188 0.930 . S
H2179 C2191 0.929 . S
H2180 C2194 0.930 . S
H2181 C2196 0.960 . S
H2182 C2196 0.960 . S
H2183 C2196 0.960 . S
C2184 H2176 0.929 . S
C2184 C2185 1.377 . S
C2184 C2186 1.384 . S
C2185 C2184 1.377 . S
C2185 C2191 1.390 . S
C2186 H2177 0.930 . S
C2186 C2184 1.384 . S
C2186 C2187 1.372 . S
C2187 C2186 1.372 . S
C2187 C2188 1.400 . S
C2187 C2192 1.490 . S
C2188 H2178 0.930 . S
C2188 C2187 1.400 . S
C2188 C2191 1.386 . S
H2189 C2205 0.930 . S
H2190 C2206 0.931 . S
C2191 H2179 0.929 . S
C2191 C2185 1.390 . S
C2191 C2188 1.386 . S
C2192 C2187 1.490 . S
C2192 C2194 1.395 . S
C2192 C2195 1.403 . S
H2193 C2199 0.930 . S
C2194 H2180 0.930 . S
C2194 C2192 1.395 . S
C2194 C2197 1.403 . S
C2195 C2192 1.403 . S
C2195 C2196 1.524 . S
C2195 C2199 1.400 . S
C2196 H2181 0.960 . S
C2196 H2182 0.960 . S
C2196 H2183 0.960 . S
C2196 C2195 1.524 . S
C2197 C2194 1.403 . S
C2197 C2198 1.392 . S
C2197 C2201 1.495 . S
C2198 C2197 1.392 . S
C2198 C2199 1.385 . S
C2198 C2200 1.478 . S
C2199 H2193 0.930 . S
C2199 C2195 1.400 . S
C2199 C2198 1.385 . S
C2200 C2198 1.478 . S
C2200 C2202 1.381 . S
C2200 C2206 1.383 . S
C2201 C2197 1.495 . S
C2201 H2207 0.959 . S
C2201 H2208 0.961 . S
C2201 H2209 0.960 . S
C2202 C2200 1.381 . S
C2202 C2203 1.394 . S
C2202 H2210 0.930 . S
C2203 C2202 1.394 . S
C2203 C2204 1.383 . S
C2203 H2211 0.929 . S
C2204 C2203 1.383 . S
C2204 C2205 1.377 . S
C2205 H2189 0.930 . S
C2205 C2204 1.377 . S
C2205 C2206 1.379 . S
C2206 H2190 0.931 . S
C2206 C2200 1.383 . S
C2206 C2205 1.379 . S
H2207 C2201 0.959 . S
H2208 C2201 0.961 . S
H2209 C2201 0.960 . S
H2210 C2202 0.930 . S
H2211 C2203 0.929 . S
H2212 C2220 0.929 . S
H2213 C2222 0.930 . S
H2214 C2224 0.930 . S
H2215 C2227 0.929 . S
H2216 C2230 0.930 . S
H2217 C2232 0.960 . S
H2218 C2232 0.960 . S
H2219 C2232 0.960 . S
C2220 H2212 0.929 . S
C2220 C2221 1.377 . S
C2220 C2222 1.384 . S
C2221 C2220 1.377 . S
C2221 C2227 1.390 . S
C2222 H2213 0.930 . S
C2222 C2220 1.384 . S
C2222 C2223 1.372 . S
C2223 C2222 1.372 . S
C2223 C2224 1.400 . S
C2223 C2228 1.490 . S
C2224 H2214 0.930 . S
C2224 C2223 1.400 . S
C2224 C2227 1.386 . S
H2225 C2241 0.930 . S
H2226 C2242 0.931 . S
C2227 H2215 0.929 . S
C2227 C2221 1.390 . S
C2227 C2224 1.386 . S
C2228 C2223 1.490 . S
C2228 C2230 1.395 . S
C2228 C2231 1.403 . S
H2229 C2235 0.930 . S
C2230 H2216 0.930 . S
C2230 C2228 1.395 . S
C2230 C2233 1.403 . S
C2231 C2228 1.403 . S
C2231 C2232 1.524 . S
C2231 C2235 1.400 . S
C2232 H2217 0.960 . S
C2232 H2218 0.960 . S
C2232 H2219 0.960 . S
C2232 C2231 1.524 . S
C2233 C2230 1.403 . S
C2233 C2234 1.392 . S
C2233 C2237 1.495 . S
C2234 C2233 1.392 . S
C2234 C2235 1.385 . S
C2234 C2236 1.478 . S
C2235 H2229 0.930 . S
C2235 C2231 1.400 . S
C2235 C2234 1.385 . S
C2236 C2234 1.478 . S
C2236 C2238 1.381 . S
C2236 C2242 1.383 . S
C2237 C2233 1.495 . S
C2237 H2243 0.959 . S
C2237 H2244 0.961 . S
C2237 H2245 0.960 . S
C2238 C2236 1.381 . S
C2238 C2239 1.394 . S
C2238 H2246 0.930 . S
C2239 C2238 1.394 . S
C2239 C2240 1.383 . S
C2239 H2247 0.929 . S
C2240 C2239 1.383 . S
C2240 C2241 1.377 . S
C2241 H2225 0.930 . S
C2241 C2240 1.377 . S
C2241 C2242 1.379 . S
C2242 H2226 0.931 . S
C2242 C2236 1.383 . S
C2242 C2241 1.379 . S
H2243 C2237 0.959 . S
H2244 C2237 0.961 . S
H2245 C2237 0.960 . S
H2246 C2238 0.930 . S
H2247 C2239 0.929 . S
H2248 C2256 0.929 . S
H2249 C2258 0.930 . S
H2250 C2260 0.930 . S
H2251 C2263 0.929 . S
H2252 C2266 0.930 . S
H2253 C2268 0.960 . S
H2254 C2268 0.960 . S
H2255 C2268 0.960 . S
C2256 H2248 0.929 . S
C2256 C2257 1.377 . S
C2256 C2258 1.384 . S
C2257 C2256 1.377 . S
C2257 C2263 1.390 . S
C2258 H2249 0.930 . S
C2258 C2256 1.384 . S
C2258 C2259 1.372 . S
C2259 C2258 1.372 . S
C2259 C2260 1.400 . S
C2259 C2264 1.490 . S
C2260 H2250 0.930 . S
C2260 C2259 1.400 . S
C2260 C2263 1.386 . S
H2261 C2277 0.930 . S
H2262 C2278 0.931 . S
C2263 H2251 0.929 . S
C2263 C2257 1.390 . S
C2263 C2260 1.386 . S
C2264 C2259 1.490 . S
C2264 C2266 1.395 . S
C2264 C2267 1.403 . S
H2265 C2271 0.930 . S
C2266 H2252 0.930 . S
C2266 C2264 1.395 . S
C2266 C2269 1.403 . S
C2267 C2264 1.403 . S
C2267 C2268 1.524 . S
C2267 C2271 1.400 . S
C2268 H2253 0.960 . S
C2268 H2254 0.960 . S
C2268 H2255 0.960 . S
C2268 C2267 1.524 . S
C2269 C2266 1.403 . S
C2269 C2270 1.392 . S
C2269 C2273 1.495 . S
C2270 C2269 1.392 . S
C2270 C2271 1.385 . S
C2270 C2272 1.478 . S
C2271 H2265 0.930 . S
C2271 C2267 1.400 . S
C2271 C2270 1.385 . S
C2272 C2270 1.478 . S
C2272 C2274 1.381 . S
C2272 C2278 1.383 . S
C2273 C2269 1.495 . S
C2273 H2279 0.959 . S
C2273 H2280 0.961 . S
C2273 H2281 0.960 . S
C2274 C2272 1.381 . S
C2274 C2275 1.394 . S
C2274 H2282 0.930 . S
C2275 C2274 1.394 . S
C2275 C2276 1.383 . S
C2275 H2283 0.929 . S
C2276 C2275 1.383 . S
C2276 C2277 1.377 . S
C2277 H2261 0.930 . S
C2277 C2276 1.377 . S
C2277 C2278 1.379 . S
C2278 H2262 0.931 . S
C2278 C2272 1.383 . S
C2278 C2277 1.379 . S
H2279 C2273 0.959 . S
H2280 C2273 0.961 . S
H2281 C2273 0.960 . S
H2282 C2274 0.930 . S
H2283 C2275 0.929 . S
H2284 C2292 0.929 . S
H2285 C2294 0.930 . S
H2286 C2296 0.930 . S
H2287 C2299 0.929 . S
H2288 C2302 0.930 . S
H2289 C2304 0.960 . S
H2290 C2304 0.960 . S
H2291 C2304 0.960 . S
C2292 H2284 0.929 . S
C2292 C2293 1.377 . S
C2292 C2294 1.384 . S
C2293 C2292 1.377 . S
C2293 C2299 1.390 . S
C2294 H2285 0.930 . S
C2294 C2292 1.384 . S
C2294 C2295 1.372 . S
C2295 C2294 1.372 . S
C2295 C2296 1.400 . S
C2295 C2300 1.490 . S
C2296 H2286 0.930 . S
C2296 C2295 1.400 . S
C2296 C2299 1.386 . S
H2297 C2313 0.930 . S
H2298 C2314 0.931 . S
C2299 H2287 0.929 . S
C2299 C2293 1.390 . S
C2299 C2296 1.386 . S
C2300 C2295 1.490 . S
C2300 C2302 1.395 . S
C2300 C2303 1.403 . S
H2301 C2307 0.937 . S
C2302 H2288 0.930 . S
C2302 C2300 1.395 . S
C2302 C2305 1.403 1_655 S
C2303 C2300 1.403 . S
C2303 C2304 1.524 . S
C2303 C2307 1.351 1_655 S
C2304 H2289 0.960 . S
C2304 H2290 0.960 . S
C2304 H2291 0.960 . S
C2304 C2303 1.524 . S
C2305 C2302 1.403 1_455 S
C2305 C2306 1.392 . S
C2305 C2309 1.495 . S
C2306 C2305 1.392 . S
C2306 C2307 1.430 . S
C2306 C2308 1.478 . S
C2307 H2301 0.937 . S
C2307 C2303 1.351 1_455 S
C2307 C2306 1.430 . S
C2308 C2306 1.478 . S
C2308 C2310 1.381 . S
C2308 C2314 1.383 . S
C2309 C2305 1.495 . S
C2309 H2315 0.959 . S
C2309 H2316 0.961 . S
C2309 H2317 0.960 . S
C2310 C2308 1.381 . S
C2310 C2311 1.394 . S
C2310 H2318 0.930 . S
C2311 C2310 1.394 . S
C2311 C2312 1.383 . S
C2311 H2319 0.929 . S
C2312 C2311 1.383 . S
C2312 C2313 1.377 . S
C2313 H2297 0.930 . S
C2313 C2312 1.377 . S
C2313 C2314 1.379 . S
C2314 H2298 0.931 . S
C2314 C2308 1.383 . S
C2314 C2313 1.379 . S
H2315 C2309 0.959 . S
H2316 C2309 0.961 . S
H2317 C2309 0.960 . S
H2318 C2310 0.930 . S
H2319 C2311 0.929 . S
H2320 C2328 0.929 . S
H2321 C2330 0.930 . S
H2322 C2332 0.930 . S
H2323 C2335 0.929 . S
H2324 C2338 0.930 . S
H2325 C2340 0.960 . S
H2326 C2340 0.960 . S
H2327 C2340 0.960 . S
C2328 H2320 0.929 . S
C2328 C2329 1.377 . S
C2328 C2330 1.384 . S
C2329 C2328 1.377 . S
C2329 C2335 1.390 . S
C2330 H2321 0.930 . S
C2330 C2328 1.384 . S
C2330 C2331 1.372 . S
C2331 C2330 1.372 . S
C2331 C2332 1.400 . S
C2331 C2336 1.490 . S
C2332 H2322 0.930 . S
C2332 C2331 1.400 . S
C2332 C2335 1.386 . S
H2333 C2349 0.930 . S
H2334 C2350 0.931 . S
C2335 H2323 0.929 . S
C2335 C2329 1.390 . S
C2335 C2332 1.386 . S
C2336 C2331 1.490 . S
C2336 C2338 1.395 . S
C2336 C2339 1.403 . S
H2337 C2343 0.930 . S
C2338 H2324 0.930 . S
C2338 C2336 1.395 . S
C2338 C2341 1.403 . S
C2339 C2336 1.403 . S
C2339 C2340 1.524 . S
C2339 C2343 1.400 . S
C2340 H2325 0.960 . S
C2340 H2326 0.960 . S
C2340 H2327 0.960 . S
C2340 C2339 1.524 . S
C2341 C2338 1.403 . S
C2341 C2342 1.392 . S
C2341 C2345 1.495 . S
C2342 C2341 1.392 . S
C2342 C2343 1.385 . S
C2342 C2344 1.478 . S
C2343 H2337 0.930 . S
C2343 C2339 1.400 . S
C2343 C2342 1.385 . S
C2344 C2342 1.478 . S
C2344 C2346 1.381 . S
C2344 C2350 1.383 . S
C2345 C2341 1.495 . S
C2345 H2351 0.959 . S
C2345 H2352 0.961 . S
C2345 H2353 0.960 . S
C2346 C2344 1.381 . S
C2346 C2347 1.394 . S
C2346 H2354 0.930 . S
C2347 C2346 1.394 . S
C2347 C2348 1.383 . S
C2347 H2355 0.929 . S
C2348 C2347 1.383 . S
C2348 C2349 1.377 . S
C2349 H2333 0.930 . S
C2349 C2348 1.377 . S
C2349 C2350 1.379 . S
C2350 H2334 0.931 . S
C2350 C2344 1.383 . S
C2350 C2349 1.379 . S
H2351 C2345 0.959 . S
H2352 C2345 0.961 . S
H2353 C2345 0.960 . S
H2354 C2346 0.930 . S
H2355 C2347 0.929 . S
H2356 C2364 0.929 . S
H2357 C2366 0.930 . S
H2358 C2368 0.930 . S
H2359 C2371 0.929 . S
H2360 C2374 0.930 . S
H2361 C2376 0.960 . S
H2362 C2376 0.960 . S
H2363 C2376 0.960 1_455 S
C2364 H2356 0.929 . S
C2364 C2365 1.377 . S
C2364 C2366 1.384 . S
C2365 C2364 1.377 . S
C2365 C2371 1.390 . S
C2366 H2357 0.930 . S
C2366 C2364 1.384 . S
C2366 C2367 1.372 . S
C2367 C2366 1.372 . S
C2367 C2368 1.400 . S
C2367 C2372 1.490 . S
C2368 H2358 0.930 . S
C2368 C2367 1.400 . S
C2368 C2371 1.386 . S
H2369 C2385 0.930 . S
H2370 C2386 0.931 . S
C2371 H2359 0.929 . S
C2371 C2365 1.390 . S
C2371 C2368 1.386 . S
C2372 C2367 1.490 . S
C2372 C2374 1.395 . S
C2372 C2375 1.403 1_455 S
H2373 C2379 0.930 . S
C2374 H2360 0.930 . S
C2374 C2372 1.395 . S
C2374 C2377 1.397 . S
C2375 C2372 1.403 1_655 S
C2375 C2376 1.524 . S
C2375 C2379 1.400 . S
C2376 H2361 0.960 . S
C2376 H2362 0.960 . S
C2376 H2363 0.960 1_655 S
C2376 C2375 1.524 . S
C2377 C2374 1.397 . S
C2377 C2378 1.399 1_455 S
C2377 C2381 1.494 . S
C2378 C2377 1.399 1_655 S
C2378 C2379 1.385 . S
C2378 C2380 1.478 . S
C2379 H2373 0.930 . S
C2379 C2375 1.400 . S
C2379 C2378 1.385 . S
C2380 C2378 1.478 . S
C2380 C2382 1.381 . S
C2380 C2386 1.383 . S
C2381 C2377 1.494 . S
C2381 H2387 0.959 . S
C2381 H2388 0.961 1_455 S
C2381 H2389 0.960 1_455 S
C2382 C2380 1.381 . S
C2382 C2383 1.394 . S
C2382 H2390 0.930 . S
C2383 C2382 1.394 . S
C2383 C2384 1.383 . S
C2383 H2391 0.929 . S
C2384 C2383 1.383 . S
C2384 C2385 1.377 . S
C2385 H2369 0.930 . S
C2385 C2384 1.377 . S
C2385 C2386 1.379 . S
C2386 H2370 0.931 . S
C2386 C2380 1.383 . S
C2386 C2385 1.379 . S
H2387 C2381 0.959 . S
H2388 C2381 0.961 1_655 S
H2389 C2381 0.960 1_655 S
H2390 C2382 0.930 . S
H2391 C2383 0.929 . S
H2392 C2400 0.929 . S
H2393 C2402 0.930 . S
H2394 C2404 0.930 . S
H2395 C2407 0.929 . S
H2396 C2410 0.930 . S
H2397 C2412 0.960 . S
H2398 C2412 0.960 . S
H2399 C2412 0.960 . S
C2400 H2392 0.929 . S
C2400 C2401 1.377 . S
C2400 C2402 1.384 . S
C2401 C2400 1.377 . S
C2401 C2407 1.390 . S
C2402 H2393 0.930 . S
C2402 C2400 1.384 . S
C2402 C2403 1.372 . S
C2403 C2402 1.372 . S
C2403 C2404 1.400 . S
C2403 C2408 1.490 . S
C2404 H2394 0.930 . S
C2404 C2403 1.400 . S
C2404 C2407 1.386 . S
H2405 C2421 0.930 . S
H2406 C2422 0.931 . S
C2407 H2395 0.929 . S
C2407 C2401 1.390 . S
C2407 C2404 1.386 . S
C2408 C2403 1.490 . S
C2408 C2410 1.395 . S
C2408 C2411 1.403 . S
H2409 C2415 0.930 . S
C2410 H2396 0.930 . S
C2410 C2408 1.395 . S
C2410 C2413 1.403 . S
C2411 C2408 1.403 . S
C2411 C2412 1.524 . S
C2411 C2415 1.400 . S
C2412 H2397 0.960 . S
C2412 H2398 0.960 . S
C2412 H2399 0.960 . S
C2412 C2411 1.524 . S
C2413 C2410 1.403 . S
C2413 C2414 1.392 . S
C2413 C2417 1.495 . S
C2414 C2413 1.392 . S
C2414 C2415 1.385 . S
C2414 C2416 1.478 . S
C2415 H2409 0.930 . S
C2415 C2411 1.400 . S
C2415 C2414 1.385 . S
C2416 C2414 1.478 . S
C2416 C2418 1.381 . S
C2416 C2422 1.383 . S
C2417 C2413 1.495 . S
C2417 H2423 0.959 . S
C2417 H2424 0.961 . S
C2417 H2425 0.960 . S
C2418 C2416 1.381 . S
C2418 C2419 1.394 . S
C2418 H2426 0.930 . S
C2419 C2418 1.394 . S
C2419 C2420 1.383 . S
C2419 H2427 0.929 . S
C2420 C2419 1.383 . S
C2420 C2421 1.377 . S
C2421 H2405 0.930 . S
C2421 C2420 1.377 . S
C2421 C2422 1.379 . S
C2422 H2406 0.931 . S
C2422 C2416 1.383 . S
C2422 C2421 1.379 . S
H2423 C2417 0.959 . S
H2424 C2417 0.961 . S
H2425 C2417 0.960 . S
H2426 C2418 0.930 . S
H2427 C2419 0.929 . S
H2428 C2436 0.929 . S
H2429 C2438 0.930 . S
H2430 C2440 0.930 . S
H2431 C2443 0.929 . S
H2432 C2446 0.930 . S
H2433 C2448 0.960 . S
H2434 C2448 0.960 . S
H2435 C2448 0.960 . S
C2436 H2428 0.929 . S
C2436 C2437 1.377 . S
C2436 C2438 1.384 . S
C2437 C2436 1.377 . S
C2437 C2443 1.390 . S
C2438 H2429 0.930 . S
C2438 C2436 1.384 . S
C2438 C2439 1.372 . S
C2439 C2438 1.372 . S
C2439 C2440 1.400 . S
C2439 C2444 1.490 . S
C2440 H2430 0.930 . S
C2440 C2439 1.400 . S
C2440 C2443 1.386 . S
H2441 C2457 0.930 . S
H2442 C2458 0.931 . S
C2443 H2431 0.929 . S
C2443 C2437 1.390 . S
C2443 C2440 1.386 . S
C2444 C2439 1.490 . S
C2444 C2446 1.395 . S
C2444 C2447 1.403 . S
H2445 C2451 0.930 . S
C2446 H2432 0.930 . S
C2446 C2444 1.395 . S
C2446 C2449 1.403 . S
C2447 C2444 1.403 . S
C2447 C2448 1.524 . S
C2447 C2451 1.400 . S
C2448 H2433 0.960 . S
C2448 H2434 0.960 . S
C2448 H2435 0.960 . S
C2448 C2447 1.524 . S
C2449 C2446 1.403 . S
C2449 C2450 1.392 . S
C2449 C2453 1.495 . S
C2450 C2449 1.392 . S
C2450 C2451 1.385 . S
C2450 C2452 1.478 . S
C2451 H2445 0.930 . S
C2451 C2447 1.400 . S
C2451 C2450 1.385 . S
C2452 C2450 1.478 . S
C2452 C2454 1.381 . S
C2452 C2458 1.383 . S
C2453 C2449 1.495 . S
C2453 H2459 0.959 . S
C2453 H2460 0.961 . S
C2453 H2461 0.960 . S
C2454 C2452 1.381 . S
C2454 C2455 1.394 . S
C2454 H2462 0.930 . S
C2455 C2454 1.394 . S
C2455 C2456 1.383 . S
C2455 H2463 0.929 . S
C2456 C2455 1.383 . S
C2456 C2457 1.377 . S
C2457 H2441 0.930 . S
C2457 C2456 1.377 . S
C2457 C2458 1.379 . S
C2458 H2442 0.931 . S
C2458 C2452 1.383 . S
C2458 C2457 1.379 . S
H2459 C2453 0.959 . S
H2460 C2453 0.961 . S
H2461 C2453 0.960 . S
H2462 C2454 0.930 . S
H2463 C2455 0.929 . S
H2464 C2472 0.929 . S
H2465 C2474 0.930 . S
H2466 C2476 0.930 . S
H2467 C2479 0.929 . S
H2468 C2482 0.930 . S
H2469 C2484 0.960 . S
H2470 C2484 0.960 . S
H2471 C2484 0.960 . S
C2472 H2464 0.929 . S
C2472 C2473 1.377 . S
C2472 C2474 1.384 . S
C2473 C2472 1.377 . S
C2473 C2479 1.390 . S
C2474 H2465 0.930 . S
C2474 C2472 1.384 . S
C2474 C2475 1.372 . S
C2475 C2474 1.372 . S
C2475 C2476 1.400 . S
C2475 C2480 1.490 . S
C2476 H2466 0.930 . S
C2476 C2475 1.400 . S
C2476 C2479 1.386 . S
H2477 C2493 0.930 . S
H2478 C2494 0.931 . S
C2479 H2467 0.929 . S
C2479 C2473 1.390 . S
C2479 C2476 1.386 . S
C2480 C2475 1.490 . S
C2480 C2482 1.395 . S
C2480 C2483 1.403 . S
H2481 C2487 0.930 . S
C2482 H2468 0.930 . S
C2482 C2480 1.395 . S
C2482 C2485 1.403 . S
C2483 C2480 1.403 . S
C2483 C2484 1.524 . S
C2483 C2487 1.400 . S
C2484 H2469 0.960 . S
C2484 H2470 0.960 . S
C2484 H2471 0.960 . S
C2484 C2483 1.524 . S
C2485 C2482 1.403 . S
C2485 C2486 1.392 . S
C2485 C2489 1.495 . S
C2486 C2485 1.392 . S
C2486 C2487 1.385 . S
C2486 C2488 1.478 . S
C2487 H2481 0.930 . S
C2487 C2483 1.400 . S
C2487 C2486 1.385 . S
C2488 C2486 1.478 . S
C2488 C2490 1.381 . S
C2488 C2494 1.383 . S
C2489 C2485 1.495 . S
C2489 H2495 0.959 . S
C2489 H2496 0.961 . S
C2489 H2497 0.960 . S
C2490 C2488 1.381 . S
C2490 C2491 1.394 . S
C2490 H2498 0.930 . S
C2491 C2490 1.394 . S
C2491 C2492 1.383 . S
C2491 H2499 0.929 . S
C2492 C2491 1.383 . S
C2492 C2493 1.377 . S
C2493 H2477 0.930 . S
C2493 C2492 1.377 . S
C2493 C2494 1.379 . S
C2494 H2478 0.931 . S
C2494 C2488 1.383 . S
C2494 C2493 1.379 . S
H2495 C2489 0.959 . S
H2496 C2489 0.961 . S
H2497 C2489 0.960 . S
H2498 C2490 0.930 . S
H2499 C2491 0.929 . S
H2500 C2508 0.929 . S
H2501 C2510 0.930 . S
H2502 C2512 0.930 . S
H2503 C2515 0.929 . S
H2504 C2518 0.930 . S
H2505 C2520 0.960 . S
H2506 C2520 0.960 . S
H2507 C2520 0.960 . S
C2508 H2500 0.929 . S
C2508 C2509 1.377 . S
C2508 C2510 1.384 . S
C2509 C2508 1.377 . S
C2509 C2515 1.390 . S
C2510 H2501 0.930 . S
C2510 C2508 1.384 . S
C2510 C2511 1.372 . S
C2511 C2510 1.372 . S
C2511 C2512 1.400 . S
C2511 C2516 1.490 . S
C2512 H2502 0.930 . S
C2512 C2511 1.400 . S
C2512 C2515 1.386 . S
H2513 C2529 0.930 . S
H2514 C2530 0.931 . S
C2515 H2503 0.929 . S
C2515 C2509 1.390 . S
C2515 C2512 1.386 . S
C2516 C2511 1.490 . S
C2516 C2518 1.395 . S
C2516 C2519 1.403 . S
H2517 C2523 0.930 . S
C2518 H2504 0.930 . S
C2518 C2516 1.395 . S
C2518 C2521 1.403 . S
C2519 C2516 1.403 . S
C2519 C2520 1.524 . S
C2519 C2523 1.400 . S
C2520 H2505 0.960 . S
C2520 H2506 0.960 . S
C2520 H2507 0.960 . S
C2520 C2519 1.524 . S
C2521 C2518 1.403 . S
C2521 C2522 1.392 . S
C2521 C2525 1.495 . S
C2522 C2521 1.392 . S
C2522 C2523 1.385 . S
C2522 C2524 1.478 . S
C2523 H2517 0.930 . S
C2523 C2519 1.400 . S
C2523 C2522 1.385 . S
C2524 C2522 1.478 . S
C2524 C2526 1.381 . S
C2524 C2530 1.383 . S
C2525 C2521 1.495 . S
C2525 H2531 0.959 . S
C2525 H2532 0.961 . S
C2525 H2533 0.960 . S
C2526 C2524 1.381 . S
C2526 C2527 1.394 . S
C2526 H2534 0.930 . S
C2527 C2526 1.394 . S
C2527 C2528 1.383 . S
C2527 H2535 0.929 . S
C2528 C2527 1.383 . S
C2528 C2529 1.377 . S
C2529 H2513 0.930 . S
C2529 C2528 1.377 . S
C2529 C2530 1.379 . S
C2530 H2514 0.931 . S
C2530 C2524 1.383 . S
C2530 C2529 1.379 . S
H2531 C2525 0.959 . S
H2532 C2525 0.961 . S
H2533 C2525 0.960 . S
H2534 C2526 0.930 . S
H2535 C2527 0.929 . S
H2536 C2544 0.929 . S
H2537 C2546 0.930 . S
H2538 C2548 0.930 . S
H2539 C2551 0.929 . S
H2540 C2554 0.930 . S
H2541 C2556 0.960 . S
H2542 C2556 0.960 . S
H2543 C2556 0.960 . S
C2544 H2536 0.929 . S
C2544 C2545 1.377 . S
C2544 C2546 1.384 . S
C2545 C2544 1.377 . S
C2545 C2551 1.390 . S
C2546 H2537 0.930 . S
C2546 C2544 1.384 . S
C2546 C2547 1.372 . S
C2547 C2546 1.372 . S
C2547 C2548 1.400 . S
C2547 C2552 1.490 . S
C2548 H2538 0.930 . S
C2548 C2547 1.400 . S
C2548 C2551 1.386 . S
H2549 C2565 0.930 . S
H2550 C2566 0.931 . S
C2551 H2539 0.929 . S
C2551 C2545 1.390 . S
C2551 C2548 1.386 . S
C2552 C2547 1.490 . S
C2552 C2554 1.395 . S
C2552 C2555 1.403 . S
H2553 C2559 0.930 . S
C2554 H2540 0.930 . S
C2554 C2552 1.395 . S
C2554 C2557 1.403 . S
C2555 C2552 1.403 . S
C2555 C2556 1.524 . S
C2555 C2559 1.400 . S
C2556 H2541 0.960 . S
C2556 H2542 0.960 . S
C2556 H2543 0.960 . S
C2556 C2555 1.524 . S
C2557 C2554 1.403 . S
C2557 C2558 1.392 . S
C2557 C2561 1.495 . S
C2558 C2557 1.392 . S
C2558 C2559 1.385 . S
C2558 C2560 1.478 . S
C2559 H2553 0.930 . S
C2559 C2555 1.400 . S
C2559 C2558 1.385 . S
C2560 C2558 1.478 . S
C2560 C2562 1.381 . S
C2560 C2566 1.383 . S
C2561 C2557 1.495 . S
C2561 H2567 0.959 . S
C2561 H2568 0.961 . S
C2561 H2569 0.960 . S
C2562 C2560 1.381 . S
C2562 C2563 1.394 . S
C2562 H2570 0.930 . S
C2563 C2562 1.394 . S
C2563 C2564 1.383 . S
C2563 H2571 0.929 . S
C2564 C2563 1.383 . S
C2564 C2565 1.377 . S
C2565 H2549 0.930 . S
C2565 C2564 1.377 . S
C2565 C2566 1.379 . S
C2566 H2550 0.931 . S
C2566 C2560 1.383 . S
C2566 C2565 1.379 . S
H2567 C2561 0.959 . S
H2568 C2561 0.961 . S
H2569 C2561 0.960 . S
H2570 C2562 0.930 . S
H2571 C2563 0.929 . S
H2572 C2580 0.929 . S
H2573 C2582 0.930 . S
H2574 C2584 0.930 1_554 S
H2575 C2587 0.929 . S
H2576 C2590 0.930 . S
H2577 C2592 0.960 . S
H2578 C2592 0.960 . S
H2579 C2592 0.960 . S
C2580 H2572 0.929 . S
C2580 C2581 1.377 . S
C2580 C2582 1.384 . S
C2581 C2580 1.377 . S
C2581 C2587 1.390 . S
C2582 H2573 0.930 . S
C2582 C2580 1.384 . S
C2582 C2583 1.372 . S
C2583 C2582 1.372 . S
C2583 C2584 1.400 . S
C2583 C2588 1.490 . S
C2584 H2574 0.930 1_556 S
C2584 C2583 1.400 . S
C2584 C2587 1.386 . S
H2585 C2601 0.930 . S
H2586 C2602 0.931 . S
C2587 H2575 0.929 . S
C2587 C2581 1.390 . S
C2587 C2584 1.386 . S
C2588 C2583 1.490 . S
C2588 C2590 1.395 . S
C2588 C2591 1.403 1_556 S
H2589 C2595 0.930 . S
C2590 H2576 0.930 . S
C2590 C2588 1.395 . S
C2590 C2593 1.403 . S
C2591 C2588 1.403 1_554 S
C2591 C2592 1.524 . S
C2591 C2595 1.400 . S
C2592 H2577 0.960 . S
C2592 H2578 0.960 . S
C2592 H2579 0.960 . S
C2592 C2591 1.524 . S
C2593 C2590 1.403 . S
C2593 C2594 1.363 1_556 S
C2593 C2597 1.495 . S
C2594 C2593 1.363 1_554 S
C2594 C2595 1.410 . S
C2594 C2596 1.484 . S
C2595 H2589 0.930 . S
C2595 C2591 1.400 . S
C2595 C2594 1.410 . S
C2596 C2594 1.484 . S
C2596 C2598 1.381 . S
C2596 C2602 1.383 . S
C2597 C2593 1.495 . S
C2597 H2603 0.959 . S
C2597 H2604 0.961 . S
C2597 H2605 0.960 . S
C2598 C2596 1.381 . S
C2598 C2599 1.394 . S
C2598 H2606 0.930 1_554 S
C2599 C2598 1.394 . S
C2599 C2600 1.383 . S
C2599 H2607 0.929 . S
C2600 C2599 1.383 . S
C2600 C2601 1.377 . S
C2601 H2585 0.930 . S
C2601 C2600 1.377 . S
C2601 C2602 1.379 . S
C2602 H2586 0.931 . S
C2602 C2596 1.383 . S
C2602 C2601 1.379 . S
H2603 C2597 0.959 . S
H2604 C2597 0.961 . S
H2605 C2597 0.960 . S
H2606 C2598 0.930 1_556 S
H2607 C2599 0.929 . S
H2608 C2616 0.929 . S
H2609 C2618 0.930 . S
H2610 C2620 0.930 . S
H2611 C2623 0.929 . S
H2612 C2626 0.930 . S
H2613 C2628 0.960 . S
H2614 C2628 0.960 . S
H2615 C2628 0.960 . S
C2616 H2608 0.929 . S
C2616 C2617 1.377 . S
C2616 C2618 1.384 . S
C2617 C2616 1.377 . S
C2617 C2623 1.390 . S
C2618 H2609 0.930 . S
C2618 C2616 1.384 . S
C2618 C2619 1.372 . S
C2619 C2618 1.372 . S
C2619 C2620 1.400 . S
C2619 C2624 1.490 . S
C2620 H2610 0.930 . S
C2620 C2619 1.400 . S
C2620 C2623 1.386 . S
H2621 C2637 0.930 . S
H2622 C2638 0.931 . S
C2623 H2611 0.929 . S
C2623 C2617 1.390 . S
C2623 C2620 1.386 . S
C2624 C2619 1.490 . S
C2624 C2626 1.395 . S
C2624 C2627 1.403 . S
H2625 C2631 0.930 . S
C2626 H2612 0.930 . S
C2626 C2624 1.395 . S
C2626 C2629 1.403 . S
C2627 C2624 1.403 . S
C2627 C2628 1.524 . S
C2627 C2631 1.400 . S
C2628 H2613 0.960 . S
C2628 H2614 0.960 . S
C2628 H2615 0.960 . S
C2628 C2627 1.524 . S
C2629 C2626 1.403 . S
C2629 C2630 1.392 . S
C2629 C2633 1.495 . S
C2630 C2629 1.392 . S
C2630 C2631 1.385 . S
C2630 C2632 1.478 . S
C2631 H2625 0.930 . S
C2631 C2627 1.400 . S
C2631 C2630 1.385 . S
C2632 C2630 1.478 . S
C2632 C2634 1.381 . S
C2632 C2638 1.383 . S
C2633 C2629 1.495 . S
C2633 H2639 0.959 . S
C2633 H2640 0.961 . S
C2633 H2641 0.960 . S
C2634 C2632 1.381 . S
C2634 C2635 1.394 . S
C2634 H2642 0.930 . S
C2635 C2634 1.394 . S
C2635 C2636 1.383 . S
C2635 H2643 0.929 . S
C2636 C2635 1.383 . S
C2636 C2637 1.377 . S
C2637 H2621 0.930 . S
C2637 C2636 1.377 . S
C2637 C2638 1.379 . S
C2638 H2622 0.931 . S
C2638 C2632 1.383 . S
C2638 C2637 1.379 . S
H2639 C2633 0.959 . S
H2640 C2633 0.961 . S
H2641 C2633 0.960 . S
H2642 C2634 0.930 . S
H2643 C2635 0.929 . S
H2644 C2652 0.929 . S
H2645 C2654 0.930 . S
H2646 C2656 0.930 . S
H2647 C2659 0.929 . S
H2648 C2662 0.930 . S
H2649 C2664 0.960 . S
H2650 C2664 0.960 . S
H2651 C2664 0.960 . S
C2652 H2644 0.929 . S
C2652 C2653 1.377 . S
C2652 C2654 1.384 . S
C2653 C2652 1.377 . S
C2653 C2659 1.390 . S
C2654 H2645 0.930 . S
C2654 C2652 1.384 . S
C2654 C2655 1.372 . S
C2655 C2654 1.372 . S
C2655 C2656 1.400 . S
C2655 C2660 1.490 . S
C2656 H2646 0.930 . S
C2656 C2655 1.400 . S
C2656 C2659 1.386 . S
H2657 C2673 0.930 . S
H2658 C2674 0.931 . S
C2659 H2647 0.929 . S
C2659 C2653 1.390 . S
C2659 C2656 1.386 . S
C2660 C2655 1.490 . S
C2660 C2662 1.395 . S
C2660 C2663 1.403 . S
H2661 C2667 0.930 . S
C2662 H2648 0.930 . S
C2662 C2660 1.395 . S
C2662 C2665 1.403 . S
C2663 C2660 1.403 . S
C2663 C2664 1.524 . S
C2663 C2667 1.400 . S
C2664 H2649 0.960 . S
C2664 H2650 0.960 . S
C2664 H2651 0.960 . S
C2664 C2663 1.524 . S
C2665 C2662 1.403 . S
C2665 C2666 1.392 . S
C2665 C2669 1.495 . S
C2666 C2665 1.392 . S
C2666 C2667 1.385 . S
C2666 C2668 1.478 . S
C2667 H2661 0.930 . S
C2667 C2663 1.400 . S
C2667 C2666 1.385 . S
C2668 C2666 1.478 . S
C2668 C2670 1.381 . S
C2668 C2674 1.383 . S
C2669 C2665 1.495 . S
C2669 H2675 0.959 . S
C2669 H2676 0.961 . S
C2669 H2677 0.960 . S
C2670 C2668 1.381 . S
C2670 C2671 1.394 . S
C2670 H2678 0.930 . S
C2671 C2670 1.394 . S
C2671 C2672 1.383 . S
C2671 H2679 0.929 . S
C2672 C2671 1.383 . S
C2672 C2673 1.377 . S
C2673 H2657 0.930 . S
C2673 C2672 1.377 . S
C2673 C2674 1.379 . S
C2674 H2658 0.931 . S
C2674 C2668 1.383 . S
C2674 C2673 1.379 . S
H2675 C2669 0.959 . S
H2676 C2669 0.961 . S
H2677 C2669 0.960 . S
H2678 C2670 0.930 . S
H2679 C2671 0.929 . S
H2680 C2688 0.929 . S
H2681 C2690 0.930 . S
H2682 C2692 0.930 . S
H2683 C2695 0.929 . S
H2684 C2698 0.930 . S
H2685 C2700 0.960 . S
H2686 C2700 0.960 . S
H2687 C2700 0.960 . S
C2688 H2680 0.929 . S
C2688 C2689 1.377 . S
C2688 C2690 1.384 . S
C2689 C2688 1.377 . S
C2689 C2695 1.390 . S
C2690 H2681 0.930 . S
C2690 C2688 1.384 . S
C2690 C2691 1.372 . S
C2691 C2690 1.372 . S
C2691 C2692 1.400 . S
C2691 C2696 1.490 . S
C2692 H2682 0.930 . S
C2692 C2691 1.400 . S
C2692 C2695 1.386 . S
H2693 C2709 0.930 . S
H2694 C2710 0.931 . S
C2695 H2683 0.929 . S
C2695 C2689 1.390 . S
C2695 C2692 1.386 . S
C2696 C2691 1.490 . S
C2696 C2698 1.395 . S
C2696 C2699 1.403 . S
H2697 C2703 0.930 . S
C2698 H2684 0.930 . S
C2698 C2696 1.395 . S
C2698 C2701 1.403 . S
C2699 C2696 1.403 . S
C2699 C2700 1.524 . S
C2699 C2703 1.400 . S
C2700 H2685 0.960 . S
C2700 H2686 0.960 . S
C2700 H2687 0.960 . S
C2700 C2699 1.524 . S
C2701 C2698 1.403 . S
C2701 C2702 1.392 . S
C2701 C2705 1.495 . S
C2702 C2701 1.392 . S
C2702 C2703 1.385 . S
C2702 C2704 1.478 . S
C2703 H2697 0.930 . S
C2703 C2699 1.400 . S
C2703 C2702 1.385 . S
C2704 C2702 1.478 . S
C2704 C2706 1.381 . S
C2704 C2710 1.383 . S
C2705 C2701 1.495 . S
C2705 H2711 0.959 . S
C2705 H2712 0.961 . S
C2705 H2713 0.960 . S
C2706 C2704 1.381 . S
C2706 C2707 1.394 . S
C2706 H2714 0.930 . S
C2707 C2706 1.394 . S
C2707 C2708 1.383 . S
C2707 H2715 0.929 . S
C2708 C2707 1.383 . S
C2708 C2709 1.377 . S
C2709 H2693 0.930 . S
C2709 C2708 1.377 . S
C2709 C2710 1.379 . S
C2710 H2694 0.931 . S
C2710 C2704 1.383 . S
C2710 C2709 1.379 . S
H2711 C2705 0.959 . S
H2712 C2705 0.961 . S
H2713 C2705 0.960 . S
H2714 C2706 0.930 . S
H2715 C2707 0.929 . S
H2716 C2724 0.929 . S
H2717 C2726 0.930 . S
H2718 C2728 0.930 . S
H2719 C2731 0.929 . S
H2720 C2734 0.930 . S
H2721 C2736 0.960 . S
H2722 C2736 0.960 . S
H2723 C2736 0.960 . S
C2724 H2716 0.929 . S
C2724 C2725 1.377 1_556 S
C2724 C2726 1.384 . S
C2725 C2724 1.377 1_554 S
C2725 C2731 1.390 . S
C2726 H2717 0.930 . S
C2726 C2724 1.384 . S
C2726 C2727 1.372 1_556 S
C2727 C2726 1.372 1_554 S
C2727 C2728 1.400 . S
C2727 C2732 1.493 . S
C2728 H2718 0.930 . S
C2728 C2727 1.400 . S
C2728 C2731 1.386 . S
H2729 C2745 0.930 . S
H2730 C2746 0.931 . S
C2731 H2719 0.929 . S
C2731 C2725 1.390 . S
C2731 C2728 1.386 . S
C2732 C2727 1.493 . S
C2732 C2734 1.385 1_554 S
C2732 C2735 1.410 . S
H2733 C2739 0.930 . S
C2734 H2720 0.930 . S
C2734 C2732 1.385 1_556 S
C2734 C2737 1.403 . S
C2735 C2732 1.410 . S
C2735 C2736 1.524 . S
C2735 C2739 1.400 . S
C2736 H2721 0.960 . S
C2736 H2722 0.960 . S
C2736 H2723 0.960 . S
C2736 C2735 1.524 . S
C2737 C2734 1.403 . S
C2737 C2738 1.392 . S
C2737 C2741 1.495 . S
C2738 C2737 1.392 . S
C2738 C2739 1.385 1_556 S
C2738 C2740 1.478 . S
C2739 H2733 0.930 . S
C2739 C2735 1.400 . S
C2739 C2738 1.385 1_554 S
C2740 C2738 1.478 . S
C2740 C2742 1.381 . S
C2740 C2746 1.383 1_556 S
C2741 C2737 1.495 . S
C2741 H2747 0.959 . S
C2741 H2748 0.961 . S
C2741 H2749 0.960 . S
C2742 C2740 1.381 . S
C2742 C2743 1.394 . S
C2742 H2750 0.930 . S
C2743 C2742 1.394 . S
C2743 C2744 1.383 . S
C2743 H2751 0.929 . S
C2744 C2743 1.383 . S
C2744 C2745 1.377 1_556 S
C2745 H2729 0.930 . S
C2745 C2744 1.377 1_554 S
C2745 C2746 1.379 . S
C2746 H2730 0.931 . S
C2746 C2740 1.383 1_554 S
C2746 C2745 1.379 . S
H2747 C2741 0.959 . S
H2748 C2741 0.961 . S
H2749 C2741 0.960 . S
H2750 C2742 0.930 . S
H2751 C2743 0.929 . S
H2752 C2760 0.929 . S
H2753 C2762 0.930 . S
H2754 C2764 0.930 . S
H2755 C2767 0.929 . S
H2756 C2770 0.930 . S
H2757 C2772 0.960 . S
H2758 C2772 0.960 . S
H2759 C2772 0.960 . S
C2760 H2752 0.929 . S
C2760 C2761 1.377 . S
C2760 C2762 1.384 . S
C2761 C2760 1.377 . S
C2761 C2767 1.390 . S
C2762 H2753 0.930 . S
C2762 C2760 1.384 . S
C2762 C2763 1.372 . S
C2763 C2762 1.372 . S
C2763 C2764 1.400 . S
C2763 C2768 1.490 . S
C2764 H2754 0.930 . S
C2764 C2763 1.400 . S
C2764 C2767 1.386 . S
H2765 C2781 0.930 . S
H2766 C2782 0.931 . S
C2767 H2755 0.929 . S
C2767 C2761 1.390 . S
C2767 C2764 1.386 . S
C2768 C2763 1.490 . S
C2768 C2770 1.395 . S
C2768 C2771 1.403 . S
H2769 C2775 0.930 . S
C2770 H2756 0.930 . S
C2770 C2768 1.395 . S
C2770 C2773 1.403 1_565 S
C2771 C2768 1.403 . S
C2771 C2772 1.524 . S
C2771 C2775 1.400 1_565 S
C2772 H2757 0.960 . S
C2772 H2758 0.960 . S
C2772 H2759 0.960 . S
C2772 C2771 1.524 . S
C2773 C2770 1.403 1_545 S
C2773 C2774 1.392 . S
C2773 C2777 1.495 . S
C2774 C2773 1.392 . S
C2774 C2775 1.385 . S
C2774 C2776 1.478 . S
C2775 H2769 0.930 . S
C2775 C2771 1.400 1_545 S
C2775 C2774 1.385 . S
C2776 C2774 1.478 . S
C2776 C2778 1.381 . S
C2776 C2782 1.383 . S
C2777 C2773 1.495 . S
C2777 H2783 0.959 . S
C2777 H2784 0.961 . S
C2777 H2785 0.960 . S
C2778 C2776 1.381 . S
C2778 C2779 1.394 . S
C2778 H2786 0.930 . S
C2779 C2778 1.394 . S
C2779 C2780 1.383 . S
C2779 H2787 0.929 . S
C2780 C2779 1.383 . S
C2780 C2781 1.377 . S
C2781 H2765 0.930 . S
C2781 C2780 1.377 . S
C2781 C2782 1.379 . S
C2782 H2766 0.931 . S
C2782 C2776 1.383 . S
C2782 C2781 1.379 . S
H2783 C2777 0.959 . S
H2784 C2777 0.961 . S
H2785 C2777 0.960 . S
H2786 C2778 0.930 . S
H2787 C2779 0.929 . S
H2788 C2796 0.929 . S
H2789 C2798 0.930 . S
H2790 C2800 0.930 . S
H2791 C2803 0.929 . S
H2792 C2806 0.930 . S
H2793 C2808 0.960 . S
H2794 C2808 0.960 . S
H2795 C2808 0.960 . S
C2796 H2788 0.929 . S
C2796 C2797 1.377 . S
C2796 C2798 1.384 . S
C2797 C2796 1.377 . S
C2797 C2803 1.390 . S
C2798 H2789 0.930 . S
C2798 C2796 1.384 . S
C2798 C2799 1.372 . S
C2799 C2798 1.372 . S
C2799 C2800 1.400 . S
C2799 C2804 1.490 . S
C2800 H2790 0.930 . S
C2800 C2799 1.400 . S
C2800 C2803 1.386 . S
H2801 C2817 0.930 . S
H2802 C2818 0.931 . S
C2803 H2791 0.929 . S
C2803 C2797 1.390 . S
C2803 C2800 1.386 . S
C2804 C2799 1.490 . S
C2804 C2806 1.395 . S
C2804 C2807 1.403 1_554 S
H2805 C2811 0.930 . S
C2806 H2792 0.930 . S
C2806 C2804 1.395 . S
C2806 C2809 1.403 . S
C2807 C2804 1.403 1_556 S
C2807 C2808 1.524 . S
C2807 C2811 1.400 . S
C2808 H2793 0.960 . S
C2808 H2794 0.960 . S
C2808 H2795 0.960 . S
C2808 C2807 1.524 . S
C2809 C2806 1.403 . S
C2809 C2810 1.392 1_554 S
C2809 C2813 1.495 . S
C2810 C2809 1.392 1_556 S
C2810 C2811 1.385 . S
C2810 C2812 1.478 . S
C2811 H2805 0.930 . S
C2811 C2807 1.400 . S
C2811 C2810 1.385 . S
C2812 C2810 1.478 . S
C2812 C2814 1.381 . S
C2812 C2818 1.383 . S
C2813 C2809 1.495 . S
C2813 H2819 0.959 . S
C2813 H2820 0.961 . S
C2813 H2821 0.960 . S
C2814 C2812 1.381 . S
C2814 C2815 1.394 . S
C2814 H2822 0.930 . S
C2815 C2814 1.394 . S
C2815 C2816 1.383 . S
C2815 H2823 0.929 . S
C2816 C2815 1.383 . S
C2816 C2817 1.377 . S
C2817 H2801 0.930 . S
C2817 C2816 1.377 . S
C2817 C2818 1.379 . S
C2818 H2802 0.931 . S
C2818 C2812 1.383 . S
C2818 C2817 1.379 . S
H2819 C2813 0.959 . S
H2820 C2813 0.961 . S
H2821 C2813 0.960 . S
H2822 C2814 0.930 . S
H2823 C2815 0.929 . S
H2824 C2832 0.929 . S
H2825 C2834 0.930 . S
H2826 C2836 0.930 . S
H2827 C2839 0.929 . S
H2828 C2842 0.930 . S
H2829 C2844 0.960 . S
H2830 C2844 0.960 . S
H2831 C2844 0.960 . S
C2832 H2824 0.929 . S
C2832 C2833 1.377 . S
C2832 C2834 1.384 . S
C2833 C2832 1.377 . S
C2833 C2839 1.390 . S
C2834 H2825 0.930 . S
C2834 C2832 1.384 . S
C2834 C2835 1.372 . S
C2835 C2834 1.372 . S
C2835 C2836 1.400 . S
C2835 C2840 1.490 . S
C2836 H2826 0.930 . S
C2836 C2835 1.400 . S
C2836 C2839 1.386 . S
H2837 C2853 0.930 . S
H2838 C2854 0.931 . S
C2839 H2827 0.929 . S
C2839 C2833 1.390 . S
C2839 C2836 1.386 . S
C2840 C2835 1.490 . S
C2840 C2842 1.395 . S
C2840 C2843 1.403 . S
H2841 C2847 0.930 . S
C2842 H2828 0.930 . S
C2842 C2840 1.395 . S
C2842 C2845 1.403 1_545 S
C2843 C2840 1.403 . S
C2843 C2844 1.524 . S
C2843 C2847 1.400 1_545 S
C2844 H2829 0.960 . S
C2844 H2830 0.960 . S
C2844 H2831 0.960 . S
C2844 C2843 1.524 . S
C2845 C2842 1.403 1_565 S
C2845 C2846 1.392 . S
C2845 C2849 1.495 . S
C2846 C2845 1.392 . S
C2846 C2847 1.385 . S
C2846 C2848 1.478 . S
C2847 H2841 0.930 . S
C2847 C2843 1.400 1_565 S
C2847 C2846 1.385 . S
C2848 C2846 1.478 . S
C2848 C2850 1.381 . S
C2848 C2854 1.383 . S
C2849 C2845 1.495 . S
C2849 H2855 0.959 . S
C2849 H2856 0.961 . S
C2849 H2857 0.960 . S
C2850 C2848 1.381 . S
C2850 C2851 1.394 . S
C2850 H2858 0.930 . S
C2851 C2850 1.394 . S
C2851 C2852 1.383 . S
C2851 H2859 0.929 . S
C2852 C2851 1.383 . S
C2852 C2853 1.377 . S
C2853 H2837 0.930 . S
C2853 C2852 1.377 . S
C2853 C2854 1.379 . S
C2854 H2838 0.931 . S
C2854 C2848 1.383 . S
C2854 C2853 1.379 . S
H2855 C2849 0.959 . S
H2856 C2849 0.961 . S
H2857 C2849 0.960 . S
H2858 C2850 0.930 . S
H2859 C2851 0.929 . S
H2860 C2868 0.929 . S
H2861 C2870 0.930 . S
H2862 C2872 0.930 . S
H2863 C2875 0.929 . S
H2864 C2878 0.930 . S
H2865 C2880 0.960 . S
H2866 C2880 0.960 . S
H2867 C2880 0.960 . S
C2868 H2860 0.929 . S
C2868 C2869 1.377 . S
C2868 C2870 1.384 . S
C2869 C2868 1.377 . S
C2869 C2875 1.390 . S
C2870 H2861 0.930 . S
C2870 C2868 1.384 . S
C2870 C2871 1.372 . S
C2871 C2870 1.372 . S
C2871 C2872 1.400 . S
C2871 C2876 1.490 . S
C2872 H2862 0.930 . S
C2872 C2871 1.400 . S
C2872 C2875 1.386 . S
H2873 C2889 0.930 . S
H2874 C2890 0.931 . S
C2875 H2863 0.929 . S
C2875 C2869 1.390 . S
C2875 C2872 1.386 . S
C2876 C2871 1.490 . S
C2876 C2878 1.395 . S
C2876 C2879 1.403 . S
H2877 C2883 0.930 . S
C2878 H2864 0.930 . S
C2878 C2876 1.395 . S
C2878 C2881 1.403 . S
C2879 C2876 1.403 . S
C2879 C2880 1.524 . S
C2879 C2883 1.400 . S
C2880 H2865 0.960 . S
C2880 H2866 0.960 . S
C2880 H2867 0.960 . S
C2880 C2879 1.524 . S
C2881 C2878 1.403 . S
C2881 C2882 1.392 . S
C2881 C2885 1.495 . S
C2882 C2881 1.392 . S
C2882 C2883 1.385 . S
C2882 C2884 1.478 . S
C2883 H2877 0.930 . S
C2883 C2879 1.400 . S
C2883 C2882 1.385 . S
C2884 C2882 1.478 . S
C2884 C2886 1.381 . S
C2884 C2890 1.383 . S
C2885 C2881 1.495 . S
C2885 H2891 0.959 . S
C2885 H2892 0.961 . S
C2885 H2893 0.960 . S
C2886 C2884 1.381 . S
C2886 C2887 1.394 . S
C2886 H2894 0.930 . S
C2887 C2886 1.394 . S
C2887 C2888 1.383 . S
C2887 H2895 0.929 . S
C2888 C2887 1.383 . S
C2888 C2889 1.377 . S
C2889 H2873 0.930 . S
C2889 C2888 1.377 . S
C2889 C2890 1.379 . S
C2890 H2874 0.931 . S
C2890 C2884 1.383 . S
C2890 C2889 1.379 . S
H2891 C2885 0.959 . S
H2892 C2885 0.961 . S
H2893 C2885 0.960 . S
H2894 C2886 0.930 . S
H2895 C2887 0.929 . S
H2896 C2904 0.929 . S
H2897 C2906 0.930 . S
H2898 C2908 0.930 . S
H2899 C2911 0.929 . S
H2900 C2914 0.930 . S
H2901 C2916 0.960 . S
H2902 C2916 0.960 . S
H2903 C2916 0.960 . S
C2904 H2896 0.929 . S
C2904 C2905 1.377 . S
C2904 C2906 1.384 . S
C2905 C2904 1.377 . S
C2905 C2911 1.390 . S
C2906 H2897 0.930 . S
C2906 C2904 1.384 . S
C2906 C2907 1.372 . S
C2907 C2906 1.372 . S
C2907 C2908 1.400 . S
C2907 C2912 1.490 . S
C2908 H2898 0.930 . S
C2908 C2907 1.400 . S
C2908 C2911 1.386 . S
H2909 C2925 0.930 . S
H2910 C2926 0.931 . S
C2911 H2899 0.929 . S
C2911 C2905 1.390 . S
C2911 C2908 1.386 . S
C2912 C2907 1.490 . S
C2912 C2914 1.395 . S
C2912 C2915 1.403 . S
H2913 C2919 0.930 . S
C2914 H2900 0.930 . S
C2914 C2912 1.395 . S
C2914 C2917 1.403 1_545 S
C2915 C2912 1.403 . S
C2915 C2916 1.524 . S
C2915 C2919 1.400 1_545 S
C2916 H2901 0.960 . S
C2916 H2902 0.960 . S
C2916 H2903 0.960 . S
C2916 C2915 1.524 . S
C2917 C2914 1.403 1_565 S
C2917 C2918 1.392 . S
C2917 C2921 1.495 . S
C2918 C2917 1.392 . S
C2918 C2919 1.385 . S
C2918 C2920 1.478 . S
C2919 H2913 0.930 . S
C2919 C2915 1.400 1_565 S
C2919 C2918 1.385 . S
C2920 C2918 1.478 . S
C2920 C2922 1.381 . S
C2920 C2926 1.383 . S
C2921 C2917 1.495 . S
C2921 H2927 0.959 . S
C2921 H2928 0.961 . S
C2921 H2929 0.960 . S
C2922 C2920 1.381 . S
C2922 C2923 1.394 . S
C2922 H2930 0.930 . S
C2923 C2922 1.394 . S
C2923 C2924 1.383 . S
C2923 H2931 0.929 . S
C2924 C2923 1.383 . S
C2924 C2925 1.377 . S
C2925 H2909 0.930 . S
C2925 C2924 1.377 . S
C2925 C2926 1.379 . S
C2926 H2910 0.931 . S
C2926 C2920 1.383 . S
C2926 C2925 1.379 . S
H2927 C2921 0.959 . S
H2928 C2921 0.961 . S
H2929 C2921 0.960 . S
H2930 C2922 0.930 . S
H2931 C2923 0.929 . S
H2932 C2940 0.929 . S
H2933 C2942 0.930 . S
H2934 C2944 0.949 . S
H2935 C2947 0.929 1_556 S
H2936 C2950 0.930 . S
H2937 C2952 0.960 . S
H2938 C2952 0.960 . S
H2939 C2952 0.960 . S
C2940 H2932 0.929 . S
C2940 C2941 1.377 . S
C2940 C2942 1.384 . S
C2941 C2940 1.377 . S
C2941 C2947 1.390 . S
C2942 H2933 0.930 . S
C2942 C2940 1.384 . S
C2942 C2943 1.372 . S
C2943 C2942 1.372 . S
C2943 C2944 1.388 1_554 S
C2943 C2948 1.490 . S
C2944 H2934 0.949 . S
C2944 C2943 1.388 1_556 S
C2944 C2947 1.382 1_556 S
H2945 C2961 0.930 . S
H2946 C2962 0.931 . S
C2947 H2935 0.929 1_554 S
C2947 C2941 1.390 . S
C2947 C2944 1.382 1_554 S
C2948 C2943 1.490 . S
C2948 C2950 1.395 . S
C2948 C2951 1.403 1_554 S
H2949 C2955 0.930 . S
C2950 H2936 0.930 . S
C2950 C2948 1.395 . S
C2950 C2953 1.403 . S
C2951 C2948 1.403 1_556 S
C2951 C2952 1.524 . S
C2951 C2955 1.400 . S
C2952 H2937 0.960 . S
C2952 H2938 0.960 . S
C2952 H2939 0.960 . S
C2952 C2951 1.524 . S
C2953 C2950 1.403 . S
C2953 C2954 1.392 . S
C2953 C2957 1.495 . S
C2954 C2953 1.392 . S
C2954 C2955 1.385 1_554 S
C2954 C2956 1.478 . S
C2955 H2949 0.930 . S
C2955 C2951 1.400 . S
C2955 C2954 1.385 1_556 S
C2956 C2954 1.478 . S
C2956 C2958 1.381 . S
C2956 C2962 1.382 1_554 S
C2957 C2953 1.495 . S
C2957 H2963 0.959 . S
C2957 H2964 0.961 . S
C2957 H2965 0.960 . S
C2958 C2956 1.381 . S
C2958 C2959 1.394 1_554 S
C2958 H2966 0.930 . S
C2959 C2958 1.394 1_556 S
C2959 C2960 1.383 . S
C2959 H2967 0.929 1_556 S
C2960 C2959 1.383 . S
C2960 C2961 1.377 . S
C2961 H2945 0.930 . S
C2961 C2960 1.377 . S
C2961 C2962 1.379 . S
C2962 H2946 0.931 . S
C2962 C2956 1.382 1_556 S
C2962 C2961 1.379 . S
H2963 C2957 0.959 . S
H2964 C2957 0.961 . S
H2965 C2957 0.960 . S
H2966 C2958 0.930 . S
H2967 C2959 0.929 1_554 S
H2968 C2976 0.929 . S
H2969 C2978 0.930 . S
H2970 C2980 0.930 . S
H2971 C2983 0.929 . S
H2972 C2986 0.930 . S
H2973 C2988 0.960 . S
H2974 C2988 0.960 . S
H2975 C2988 0.960 . S
C2976 H2968 0.929 . S
C2976 C2977 1.377 . S
C2976 C2978 1.384 . S
C2977 C2976 1.377 . S
C2977 C2983 1.390 . S
C2978 H2969 0.930 . S
C2978 C2976 1.384 . S
C2978 C2979 1.372 . S
C2979 C2978 1.372 . S
C2979 C2980 1.400 . S
C2979 C2984 1.490 . S
C2980 H2970 0.930 . S
C2980 C2979 1.400 . S
C2980 C2983 1.386 . S
H2981 C2997 0.930 . S
H2982 C2998 0.931 . S
C2983 H2971 0.929 . S
C2983 C2977 1.390 . S
C2983 C2980 1.386 . S
C2984 C2979 1.490 . S
C2984 C2986 1.395 . S
C2984 C2987 1.403 . S
H2985 C2991 0.930 . S
C2986 H2972 0.930 . S
C2986 C2984 1.395 . S
C2986 C2989 1.403 1_545 S
C2987 C2984 1.403 . S
C2987 C2988 1.524 . S
C2987 C2991 1.400 1_545 S
C2988 H2973 0.960 . S
C2988 H2974 0.960 . S
C2988 H2975 0.960 . S
C2988 C2987 1.524 . S
C2989 C2986 1.403 1_565 S
C2989 C2990 1.392 . S
C2989 C2993 1.495 . S
C2990 C2989 1.392 . S
C2990 C2991 1.385 . S
C2990 C2992 1.478 . S
C2991 H2985 0.930 . S
C2991 C2987 1.400 1_565 S
C2991 C2990 1.385 . S
C2992 C2990 1.478 . S
C2992 C2994 1.381 . S
C2992 C2998 1.383 . S
C2993 C2989 1.495 . S
C2993 H2999 0.959 . S
C2993 H3000 0.961 . S
C2993 H3001 0.960 . S
C2994 C2992 1.381 . S
C2994 C2995 1.394 . S
C2994 H3002 0.930 . S
C2995 C2994 1.394 . S
C2995 C2996 1.383 . S
C2995 H3003 0.929 . S
C2996 C2995 1.383 . S
C2996 C2997 1.377 . S
C2997 H2981 0.930 . S
C2997 C2996 1.377 . S
C2997 C2998 1.379 . S
C2998 H2982 0.931 . S
C2998 C2992 1.383 . S
C2998 C2997 1.379 . S
H2999 C2993 0.959 . S
H3000 C2993 0.961 . S
H3001 C2993 0.960 . S
H3002 C2994 0.930 . S
H3003 C2995 0.929 . S
H3004 C3012 0.929 . S
H3005 C3014 0.930 . S
H3006 C3016 0.930 . S
H3007 C3019 0.929 . S
H3008 C3022 0.930 . S
H3009 C3024 0.960 . S
H3010 C3024 0.960 . S
H3011 C3024 0.960 . S
C3012 H3004 0.929 . S
C3012 C3013 1.377 . S
C3012 C3014 1.384 . S
C3013 C3012 1.377 . S
C3013 C3019 1.390 . S
C3014 H3005 0.930 . S
C3014 C3012 1.384 . S
C3014 C3015 1.372 . S
C3015 C3014 1.372 . S
C3015 C3016 1.400 . S
C3015 C3020 1.490 . S
C3016 H3006 0.930 . S
C3016 C3015 1.400 . S
C3016 C3019 1.386 . S
H3017 C3033 0.930 . S
H3018 C3034 0.931 . S
C3019 H3007 0.929 . S
C3019 C3013 1.390 . S
C3019 C3016 1.386 . S
C3020 C3015 1.490 . S
C3020 C3022 1.395 . S
C3020 C3023 1.403 . S
H3021 C3027 0.930 . S
C3022 H3008 0.930 . S
C3022 C3020 1.395 . S
C3022 C3025 1.403 . S
C3023 C3020 1.403 . S
C3023 C3024 1.524 . S
C3023 C3027 1.400 . S
C3024 H3009 0.960 . S
C3024 H3010 0.960 . S
C3024 H3011 0.960 . S
C3024 C3023 1.524 . S
C3025 C3022 1.403 . S
C3025 C3026 1.392 . S
C3025 C3029 1.495 . S
C3026 C3025 1.392 . S
C3026 C3027 1.385 . S
C3026 C3028 1.478 . S
C3027 H3021 0.930 . S
C3027 C3023 1.400 . S
C3027 C3026 1.385 . S
C3028 C3026 1.478 . S
C3028 C3030 1.381 . S
C3028 C3034 1.383 . S
C3029 C3025 1.495 . S
C3029 H3035 0.959 . S
C3029 H3036 0.961 . S
C3029 H3037 0.960 . S
C3030 C3028 1.381 . S
C3030 C3031 1.394 . S
C3030 H3038 0.930 . S
C3031 C3030 1.394 . S
C3031 C3032 1.383 . S
C3031 H3039 0.929 . S
C3032 C3031 1.383 . S
C3032 C3033 1.377 . S
C3033 H3017 0.930 . S
C3033 C3032 1.377 . S
C3033 C3034 1.379 . S
C3034 H3018 0.931 . S
C3034 C3028 1.383 . S
C3034 C3033 1.379 . S
H3035 C3029 0.959 . S
H3036 C3029 0.961 . S
H3037 C3029 0.960 . S
H3038 C3030 0.930 . S
H3039 C3031 0.929 . S
C745 C7 2.242 . S
C764 N485 2.056 . S
C781 C513 2.242 . S
C800 N25 2.050 . S
C817 C53 2.236 . S
C836 N531 2.105 . S
C853 C467 2.241 . S
C872 N71 2.067 . S
C889 C99 2.242 . S
C908 N439 2.050 . S
C925 N117 2.085 . S
C944 C375 2.220 . S
C961 N393 2.082 . S
C980 C145 2.235 . S
C997 N163 2.085 . S
C1016 C421 2.219 . S
C1033 C191 2.519 . S
C1052 C674 2.489 . S
C1069 C214 2.513 . S
C1088 C697 2.505 . S
C1105 C720 2.511 . S
C1124 C237 2.526 . S
C1141 C651 2.517 . S
C1160 C260 2.495 . S
C1177 C283 2.523 . S
C1196 C628 2.512 . S
C1213 C559 2.521 . S
C1232 C306 2.497 . S
C1249 C329 2.517 . S
C1268 C582 2.495 . S
C1285 C605 2.519 . S
C1304 C352 2.514 . S
C1321 N2 1.892 . S
C1340 C223 1.835 . S
C1357 C30 2.083 . S
C1376 C614 2.005 . S
C1393 C269 1.846 . S
C1412 N48 1.895 . S
C1429 C76 2.082 . S
C1448 C568 1.965 . S
C1465 N94 1.894 . S
C1484 C361 1.850 . S
C1501 C660 1.987 . S
C1520 C122 2.082 . S
C1537 C315 1.843 . S
C1556 N140 1.870 . S
C1573 C706 1.986 . S
C1592 C168 2.082 . S
C1609 N186 1.633 . S
C1628 N35 1.637 . S
C1645 C430 1.438 . S
C1664 N209 1.431 . S
C1681 N81 1.661 . S
C1700 N232 1.611 . S
C1717 N255 1.445 . S
C1736 C384 1.460 . S
C1753 N173 1.655 . S
C1772 N278 1.651 . S
C1789 C476 1.436 . S
C1808 N301 1.445 . S
C1825 N127 1.655 . S
C1844 N324 1.648 . S
C1861 N347 1.444 . S
C1880 C522 1.461 . S
C1897 C591 1.841 . S
C1916 N370 1.874 . S
C1933 C246 1.982 . S
C1952 C398 2.074 . S
C1969 C637 1.851 . S
C1988 N416 1.906 . S
C2005 C444 2.081 . S
C2024 C200 1.963 . S
C2041 C729 1.850 . S
C2060 N462 1.894 . S
C2077 C292 1.990 . S
C2096 C490 2.078 . S
C2113 C683 1.847 . S
C2132 N508 1.881 . S
C2149 C536 2.083 . S
C2168 C338 2.005 . S
C2185 N554 1.630 . S
C2204 N403 1.651 . S
C2221 C62 1.438 . S
C2240 N577 1.417 . S
C2257 N600 1.629 . S
C2276 N449 1.650 . S
C2293 N623 1.444 . S
C2312 C16 1.441 . S
C2329 N646 1.632 . S
C2348 N541 1.643 . S
C2365 C108 1.425 . S
C2384 N669 1.466 . S
C2401 N495 1.656 . S
C2420 N692 1.641 . S
C2437 N715 1.443 . S
C2456 C154 1.447 . S
C2473 N12 1.551 . S
C2492 N104 1.575 . S
C2509 C39 1.727 . S
C2528 C131 1.735 . S
C2545 N150 1.549 . S
C2564 N58 1.571 . S
C2581 C177 1.728 . S
C2600 C85 1.738 . S
C2617 N288 1.447 . S
C2636 N196 1.462 . S
C2653 N311 1.322 . S
C2672 N219 1.313 . S
C2689 N334 1.448 . S
C2708 N242 1.461 . S
C2725 N357 1.325 . S
C2744 N265 1.327 . S
C2761 N380 1.557 . S
C2780 N472 1.555 . S
C2797 C407 1.728 . S
C2816 C499 1.739 . S
C2833 N426 1.549 . S
C2852 N518 1.568 . S
C2869 C545 1.724 . S
C2888 C453 1.717 . S
C2905 N564 1.437 . S
C2924 N656 1.412 . S
C2941 N679 1.330 . S
C2960 N587 1.351 . S
C2977 N702 1.439 . S
C2996 N610 1.417 . S
C3013 N725 1.330 . S
C3032 N633 1.353 . S
