# Generated by pormake.
# Topology wig, (6)-cn, num edge types: 1
# Building blocks:
#     Node 0, Type 0, BuildingBlock: OJICUG_clean_sbu_0, # of connection points: 6
#     Node 1, Type 0, BuildingBlock: OJICUG_clean_sbu_0, # of connection points: 6
#     Node 2, Type 0, BuildingBlock: OJICUG_clean_sbu_0, # of connection points: 6
#     Node 3, Type 0, BuildingBlock: OJICUG_clean_sbu_0, # of connection points: 6
#     Node 4, Type 0, BuildingBlock: OJICUG_clean_sbu_0, # of connection points: 6
#     Node 5, Type 0, BuildingBlock: OJICUG_clean_sbu_0, # of connection points: 6
#     Node 6, Type 0, BuildingBlock: OJICUG_clean_sbu_0, # of connection points: 6
#     Node 7, Type 0, BuildingBlock: OJICUG_clean_sbu_0, # of connection points: 6
#     Node 8, Type 0, BuildingBlock: OJICUG_clean_sbu_0, # of connection points: 6
#     Node 9, Type 0, BuildingBlock: OJICUG_clean_sbu_0, # of connection points: 6
#     Node 10, Type 0, BuildingBlock: OJICUG_clean_sbu_0, # of connection points: 6
#     Node 11, Type 0, BuildingBlock: OJICUG_clean_sbu_0, # of connection points: 6
#     Node 12, Type 0, BuildingBlock: OJICUG_clean_sbu_0, # of connection points: 6
#     Node 13, Type 0, BuildingBlock: OJICUG_clean_sbu_0, # of connection points: 6
#     Node 14, Type 0, BuildingBlock: OJICUG_clean_sbu_0, # of connection points: 6
#     Node 15, Type 0, BuildingBlock: OJICUG_clean_sbu_0, # of connection points: 6
#     Edge 16, Type (0, 0), BuildingBlock: XIVTED_clean_linker_0, # of connection points: 2
#     Edge 17, Type (0, 0), BuildingBlock: XIVTED_clean_linker_0, # of connection points: 2
#     Edge 18, Type (0, 0), BuildingBlock: XIVTED_clean_linker_0, # of connection points: 2
#     Edge 19, Type (0, 0), BuildingBlock: XIVTED_clean_linker_0, # of connection points: 2
#     Edge 20, Type (0, 0), BuildingBlock: XIVTED_clean_linker_0, # of connection points: 2
#     Edge 21, Type (0, 0), BuildingBlock: XIVTED_clean_linker_0, # of connection points: 2
#     Edge 22, Type (0, 0), BuildingBlock: XIVTED_clean_linker_0, # of connection points: 2
#     Edge 23, Type (0, 0), BuildingBlock: XIVTED_clean_linker_0, # of connection points: 2
#     Edge 24, Type (0, 0), BuildingBlock: XIVTED_clean_linker_0, # of connection points: 2
#     Edge 25, Type (0, 0), BuildingBlock: XIVTED_clean_linker_0, # of connection points: 2
#     Edge 26, Type (0, 0), BuildingBlock: XIVTED_clean_linker_0, # of connection points: 2
#     Edge 27, Type (0, 0), BuildingBlock: XIVTED_clean_linker_0, # of connection points: 2
#     Edge 28, Type (0, 0), BuildingBlock: XIVTED_clean_linker_0, # of connection points: 2
#     Edge 29, Type (0, 0), BuildingBlock: XIVTED_clean_linker_0, # of connection points: 2
#     Edge 30, Type (0, 0), BuildingBlock: XIVTED_clean_linker_0, # of connection points: 2
#     Edge 31, Type (0, 0), BuildingBlock: XIVTED_clean_linker_0, # of connection points: 2
#     Edge 32, Type (0, 0), BuildingBlock: XIVTED_clean_linker_0, # of connection points: 2
#     Edge 33, Type (0, 0), BuildingBlock: XIVTED_clean_linker_0, # of connection points: 2
#     Edge 34, Type (0, 0), BuildingBlock: XIVTED_clean_linker_0, # of connection points: 2
#     Edge 35, Type (0, 0), BuildingBlock: XIVTED_clean_linker_0, # of connection points: 2
#     Edge 36, Type (0, 0), BuildingBlock: XIVTED_clean_linker_0, # of connection points: 2
#     Edge 37, Type (0, 0), BuildingBlock: XIVTED_clean_linker_0, # of connection points: 2
#     Edge 38, Type (0, 0), BuildingBlock: XIVTED_clean_linker_0, # of connection points: 2
#     Edge 39, Type (0, 0), BuildingBlock: XIVTED_clean_linker_0, # of connection points: 2
#     Edge 40, Type (0, 0), BuildingBlock: XIVTED_clean_linker_0, # of connection points: 2
#     Edge 41, Type (0, 0), BuildingBlock: XIVTED_clean_linker_0, # of connection points: 2
#     Edge 42, Type (0, 0), BuildingBlock: XIVTED_clean_linker_0, # of connection points: 2
#     Edge 43, Type (0, 0), BuildingBlock: XIVTED_clean_linker_0, # of connection points: 2
#     Edge 44, Type (0, 0), BuildingBlock: XIVTED_clean_linker_0, # of connection points: 2
#     Edge 45, Type (0, 0), BuildingBlock: XIVTED_clean_linker_0, # of connection points: 2
#     Edge 46, Type (0, 0), BuildingBlock: XIVTED_clean_linker_0, # of connection points: 2
#     Edge 47, Type (0, 0), BuildingBlock: XIVTED_clean_linker_0, # of connection points: 2
#     Edge 48, Type (0, 0), BuildingBlock: XIVTED_clean_linker_0, # of connection points: 2
#     Edge 49, Type (0, 0), BuildingBlock: XIVTED_clean_linker_0, # of connection points: 2
#     Edge 50, Type (0, 0), BuildingBlock: XIVTED_clean_linker_0, # of connection points: 2
#     Edge 51, Type (0, 0), BuildingBlock: XIVTED_clean_linker_0, # of connection points: 2
#     Edge 52, Type (0, 0), BuildingBlock: XIVTED_clean_linker_0, # of connection points: 2
#     Edge 53, Type (0, 0), BuildingBlock: XIVTED_clean_linker_0, # of connection points: 2
#     Edge 54, Type (0, 0), BuildingBlock: XIVTED_clean_linker_0, # of connection points: 2
#     Edge 55, Type (0, 0), BuildingBlock: XIVTED_clean_linker_0, # of connection points: 2
#     Edge 56, Type (0, 0), BuildingBlock: XIVTED_clean_linker_0, # of connection points: 2
#     Edge 57, Type (0, 0), BuildingBlock: XIVTED_clean_linker_0, # of connection points: 2
#     Edge 58, Type (0, 0), BuildingBlock: XIVTED_clean_linker_0, # of connection points: 2
#     Edge 59, Type (0, 0), BuildingBlock: XIVTED_clean_linker_0, # of connection points: 2
#     Edge 60, Type (0, 0), BuildingBlock: XIVTED_clean_linker_0, # of connection points: 2
#     Edge 61, Type (0, 0), BuildingBlock: XIVTED_clean_linker_0, # of connection points: 2
#     Edge 62, Type (0, 0), BuildingBlock: XIVTED_clean_linker_0, # of connection points: 2
#     Edge 63, Type (0, 0), BuildingBlock: XIVTED_clean_linker_0, # of connection points: 2
# Relax obj value: 0.258
# Max RMSD: 0.298
# Mean RMSD: 0.298
data_MOF--net-wig--node1-OJICUG_clean_sbu_0--edge1-XIVTED_clean_linker_0
_symmetry_space_group_name_H-M    P1
_symmetry_Int_Tables_number       1
_symmetry_cell_setting            triclinic
loop_
_symmetry_equiv_pos_as_xyz
'x, y, z'
_cell_length_a     28.910005
_cell_length_b     28.959957
_cell_length_c     86.847564
_cell_angle_alpha  90.012755
_cell_angle_beta   89.980794
_cell_angle_gamma 90.085621
loop_
_atom_site_label
_atom_site_type_symbol
_atom_site_fract_x
_atom_site_fract_y
_atom_site_fract_z
_atom_type_partial_charge
Sc0 Sc 0.14886 0.20118 0.29252 0.0
Sc1 Sc 0.1829 0.16742 0.25521 0.0
Sc2 Sc 0.21964 0.10408 0.28731 0.0
O3 O 0.18327 0.15733 0.27836 0.0
C4 C 0.23475 0.17767 0.31398 0.0
C5 C 0.2041 0.26657 0.26966 0.0
C6 C 0.28794 0.13978 0.26176 0.0
C7 C 0.08224 0.20325 0.26323 0.0
C8 C 0.12185 0.10022 0.30456 0.0
C9 C 0.17736 0.06021 0.2562 0.0
O10 O 0.20016 0.20172 0.31018 0.0
O11 O 0.20354 0.23722 0.25877 0.0
O12 O 0.28171 0.12469 0.27535 0.0
O13 O 0.09156 0.20993 0.2773 0.0
O14 O 0.1594 0.08172 0.2999 0.0
O15 O 0.16448 0.09763 0.24996 0.0
O16 O 0.11266 0.14313 0.30284 0.0
O17 O 0.1112 0.18645 0.25383 0.0
O18 O 0.19918 0.05853 0.2689 0.0
O19 O 0.18476 0.25997 0.28268 0.0
O20 O 0.24607 0.14131 0.30682 0.0
O21 O 0.25491 0.15136 0.25296 0.0
Sc22 Sc 0.22506 0.84121 0.70887 0.0
Sc23 Sc 0.22896 0.75392 0.73708 0.0
Sc24 Sc 0.14176 0.75186 0.70876 0.0
O25 O 0.19855 0.78235 0.71823 0.0
C26 C 0.11612 0.85886 0.70717 0.0
C27 C 0.2348 0.86067 0.74486 0.0
C28 C 0.12314 0.73727 0.74469 0.0
C29 C 0.31611 0.78482 0.71713 0.0
C30 C 0.1968 0.7857 0.67889 0.0
C31 C 0.2048 0.66567 0.71639 0.0
O32 O 0.15803 0.87205 0.70682 0.0
O33 O 0.23648 0.8187 0.74898 0.0
O34 O 0.1106 0.73763 0.73069 0.0
O35 O 0.29563 0.81712 0.70997 0.0
O36 O 0.1666 0.76135 0.68573 0.0
O37 O 0.22588 0.68633 0.72721 0.0
O38 O 0.22164 0.81565 0.68565 0.0
O39 O 0.29633 0.75938 0.72705 0.0
O40 O 0.17316 0.68429 0.70838 0.0
O41 O 0.23009 0.87362 0.731 0.0
O42 O 0.1044 0.81656 0.70821 0.0
O43 O 0.16435 0.74467 0.74908 0.0
Sc44 Sc 0.76772 0.87217 0.28767 0.0
Sc45 Sc 0.80382 0.81136 0.25487 0.0
Sc46 Sc 0.84203 0.77729 0.2916 0.0
O47 O 0.80505 0.82055 0.27806 0.0
C48 C 0.86671 0.87814 0.30414 0.0
C49 C 0.80768 0.91843 0.25655 0.0
C50 C 0.90601 0.77763 0.26173 0.0
C51 C 0.69874 0.83681 0.26233 0.0
C52 C 0.75685 0.79652 0.31386 0.0
C53 C 0.78576 0.71154 0.26909 0.0
O54 O 0.82808 0.89557 0.30005 0.0
O55 O 0.82097 0.88157 0.25002 0.0
O56 O 0.89829 0.77095 0.27589 0.0
O57 O 0.70541 0.85087 0.27601 0.0
O58 O 0.79236 0.77464 0.30961 0.0
O59 O 0.78434 0.74123 0.25832 0.0
O60 O 0.74312 0.83272 0.30707 0.0
O61 O 0.7315 0.82661 0.25323 0.0
O62 O 0.80681 0.71801 0.28182 0.0
O63 O 0.78631 0.91913 0.26937 0.0
O64 O 0.87727 0.83578 0.30192 0.0
O65 O 0.87561 0.79325 0.25263 0.0
Sc66 Sc 0.85337 0.21694 0.71015 0.0
Sc67 Sc 0.76311 0.21538 0.73741 0.0
Sc68 Sc 0.76827 0.12963 0.70854 0.0
O69 O 0.79494 0.18728 0.7187 0.0
C70 C 0.80017 0.18834 0.67949 0.0
C71 C 0.79112 0.30442 0.71804 0.0
C72 C 0.67742 0.18648 0.71631 0.0
C73 C 0.86921 0.22699 0.74625 0.0
C74 C 0.87638 0.10921 0.70738 0.0
C75 C 0.75541 0.10838 0.74443 0.0
O76 O 0.82865 0.21309 0.68696 0.0
O77 O 0.76621 0.28289 0.72769 0.0
O78 O 0.69844 0.15563 0.70864 0.0
O79 O 0.88369 0.22358 0.73251 0.0
O80 O 0.83434 0.09657 0.70738 0.0
O81 O 0.75571 0.15004 0.74896 0.0
O82 O 0.88861 0.15137 0.70818 0.0
O83 O 0.82676 0.22558 0.74998 0.0
O84 O 0.75921 0.09644 0.73041 0.0
O85 O 0.82527 0.2862 0.71111 0.0
O86 O 0.7761 0.1564 0.68554 0.0
O87 O 0.69628 0.20968 0.727 0.0
Sc88 Sc 0.22098 0.37995 0.953 0.0
Sc89 Sc 0.17612 0.32954 0.98674 0.0
Sc90 Sc 0.13762 0.29208 0.95058 0.0
O91 O 0.17815 0.33412 0.96343 0.0
C92 C 0.12282 0.39254 0.93638 0.0
C93 C 0.19055 0.43634 0.98315 0.0
C94 C 0.07213 0.30915 0.97986 0.0
C95 C 0.28434 0.33738 0.9791 0.0
C96 C 0.22332 0.30076 0.92778 0.0
C97 C 0.17722 0.22444 0.97545 0.0
O98 O 0.16312 0.40706 0.94006 0.0
O99 O 0.1748 0.40232 0.99066 0.0
O100 O 0.08145 0.29311 0.96664 0.0
O101 O 0.28017 0.35458 0.96566 0.0
O102 O 0.186 0.28263 0.93235 0.0
O103 O 0.17807 0.25601 0.9856 0.0
O104 O 0.24111 0.33553 0.93434 0.0
O105 O 0.25009 0.32894 0.98785 0.0
O106 O 0.1665 0.23154 0.96142 0.0
O107 O 0.20855 0.43253 0.96989 0.0
O108 O 0.10832 0.35181 0.93939 0.0
O109 O 0.10214 0.32852 0.98831 0.0
Sc110 Sc 0.27725 0.88625 0.04939 0.0
Sc111 Sc 0.31726 0.83837 0.01486 0.0
Sc112 Sc 0.35447 0.79317 0.05029 0.0
O113 O 0.31687 0.83941 0.03821 0.0
C114 C 0.37512 0.89177 0.06603 0.0
C115 C 0.31283 0.94376 0.0199 0.0
C116 C 0.42068 0.80739 0.02129 0.0
C117 C 0.21054 0.85346 0.02324 0.0
C118 C 0.26811 0.8025 0.07271 0.0
C119 C 0.30525 0.73285 0.0244 0.0
O120 O 0.33698 0.90991 0.06181 0.0
O121 O 0.33129 0.91047 0.01271 0.0
O122 O 0.4125 0.79589 0.03509 0.0
O123 O 0.21655 0.86307 0.03738 0.0
O124 O 0.30222 0.78093 0.06716 0.0
O125 O 0.30207 0.76669 0.01517 0.0
O126 O 0.25639 0.84219 0.06807 0.0
O127 O 0.24374 0.85013 0.01368 0.0
O128 O 0.32425 0.73579 0.03764 0.0
O129 O 0.2903 0.93847 0.03235 0.0
O130 O 0.38578 0.84961 0.06329 0.0
O131 O 0.39005 0.82438 0.01252 0.0
Sc132 Sc 0.85087 0.72212 0.95288 0.0
Sc133 Sc 0.81436 0.68524 0.98953 0.0
Sc134 Sc 0.77825 0.6257 0.95654 0.0
O135 O 0.8151 0.67736 0.96628 0.0
C136 C 0.769 0.69922 0.92965 0.0
C137 C 0.79509 0.78585 0.9759 0.0
C138 C 0.70893 0.66265 0.98151 0.0
C139 C 0.91568 0.7205 0.98273 0.0
C140 C 0.87785 0.62182 0.94043 0.0
C141 C 0.81533 0.57817 0.98777 0.0
O142 O 0.8027 0.72324 0.93431 0.0
O143 O 0.79639 0.75605 0.98664 0.0
O144 O 0.7157 0.64833 0.96784 0.0
O145 O 0.90649 0.73018 0.96886 0.0
O146 O 0.83977 0.60309 0.94463 0.0
O147 O 0.82984 0.61451 0.99433 0.0
O148 O 0.88744 0.6645 0.94262 0.0
O149 O 0.88665 0.70152 0.99165 0.0
O150 O 0.79443 0.57841 0.9749 0.0
O151 O 0.81366 0.7799 0.96271 0.0
O152 O 0.75557 0.66333 0.93665 0.0
O153 O 0.74162 0.67142 0.99083 0.0
Sc154 Sc 0.64868 0.21808 0.04999 0.0
Sc155 Sc 0.68475 0.18094 0.01342 0.0
Sc156 Sc 0.72219 0.12279 0.04616 0.0
O157 O 0.6842 0.17364 0.0366 0.0
C158 C 0.73502 0.19976 0.07176 0.0
C159 C 0.70413 0.28179 0.02622 0.0
C160 C 0.78907 0.15879 0.02082 0.0
C161 C 0.58278 0.21595 0.0208 0.0
C162 C 0.62543 0.11671 0.06337 0.0
C163 C 0.68051 0.07555 0.01547 0.0
O164 O 0.70222 0.22441 0.06678 0.0
O165 O 0.70808 0.25005 0.01619 0.0
O166 O 0.78316 0.1486 0.0349 0.0
O167 O 0.58961 0.22034 0.03514 0.0
O168 O 0.6622 0.09806 0.05814 0.0
O169 O 0.66312 0.11159 0.00957 0.0
O170 O 0.61622 0.15979 0.06184 0.0
O171 O 0.61416 0.20307 0.01158 0.0
O172 O 0.7058 0.07613 0.02748 0.0
O173 O 0.68082 0.27721 0.03865 0.0
O174 O 0.74464 0.16066 0.06611 0.0
O175 O 0.75588 0.16044 0.01128 0.0
Sc176 Sc 0.63919 0.719 0.78933 0.0
Sc177 Sc 0.7265 0.71663 0.76104 0.0
Sc178 Sc 0.72304 0.63144 0.78953 0.0
O179 O 0.69618 0.68902 0.77993 0.0
C180 C 0.69534 0.68743 0.81911 0.0
C181 C 0.70163 0.80496 0.78178 0.0
C182 C 0.81427 0.68711 0.78031 0.0
C183 C 0.62206 0.73399 0.75324 0.0
C184 C 0.61361 0.61331 0.79142 0.0
C185 C 0.73179 0.60886 0.75402 0.0
O186 O 0.66055 0.7061 0.81272 0.0
O187 O 0.72032 0.78502 0.7703 0.0
O188 O 0.7942 0.65323 0.7868 0.0
O189 O 0.61036 0.73689 0.7673 0.0
O190 O 0.65562 0.60157 0.79334 0.0
O191 O 0.7371 0.65066 0.74991 0.0
O192 O 0.60148 0.65471 0.78861 0.0
O193 O 0.66212 0.72218 0.7488 0.0
O194 O 0.7237 0.59658 0.7678 0.0
O195 O 0.6725 0.78552 0.79063 0.0
O196 O 0.72421 0.66244 0.81192 0.0
O197 O 0.79359 0.71476 0.77134 0.0
Sc198 Sc 0.72001 0.37837 0.20021 0.0
Sc199 Sc 0.68498 0.31331 0.23214 0.0
Sc200 Sc 0.65041 0.28019 0.19493 0.0
O201 O 0.68449 0.32417 0.20906 0.0
C202 C 0.62295 0.38153 0.18289 0.0
C203 C 0.67654 0.41966 0.23154 0.0
C204 C 0.58419 0.276 0.22417 0.0
C205 C 0.7891 0.34323 0.22536 0.0
C206 C 0.73662 0.30525 0.17366 0.0
C207 C 0.70685 0.21484 0.21764 0.0
O208 O 0.65951 0.40076 0.18804 0.0
O209 O 0.66341 0.38185 0.23746 0.0
O210 O 0.5921 0.272 0.20989 0.0
O211 O 0.78242 0.35725 0.21169 0.0
O212 O 0.70362 0.27955 0.17792 0.0
O213 O 0.70836 0.24472 0.22834 0.0
O214 O 0.74589 0.3433 0.18014 0.0
O215 O 0.7563 0.33278 0.23444 0.0
O216 O 0.68523 0.22095 0.20498 0.0
O217 O 0.6996 0.42223 0.21909 0.0
O218 O 0.61476 0.33823 0.18421 0.0
O219 O 0.61425 0.29082 0.23358 0.0
Sc220 Sc 0.26825 0.33881 0.78829 0.0
Sc221 Sc 0.2672 0.25423 0.75951 0.0
Sc222 Sc 0.35344 0.25232 0.78812 0.0
O223 O 0.29638 0.28183 0.77861 0.0
C224 C 0.37746 0.35851 0.79035 0.0
C225 C 0.26027 0.36187 0.75273 0.0
C226 C 0.37198 0.23834 0.75204 0.0
C227 C 0.17861 0.28111 0.77898 0.0
C228 C 0.29659 0.28301 0.81788 0.0
C229 C 0.29232 0.16575 0.78013 0.0
O230 O 0.33523 0.36989 0.792 0.0
O231 O 0.25637 0.32011 0.74843 0.0
O232 O 0.38323 0.2353 0.76614 0.0
O233 O 0.19753 0.31518 0.78573 0.0
O234 O 0.33142 0.26437 0.81151 0.0
O235 O 0.27386 0.18572 0.76863 0.0
O236 O 0.26778 0.30801 0.81068 0.0
O237 O 0.20002 0.25502 0.76968 0.0
O238 O 0.32088 0.18539 0.78915 0.0
O239 O 0.26684 0.3739 0.76662 0.0
O240 O 0.39021 0.31717 0.78773 0.0
O241 O 0.33194 0.2497 0.74748 0.0
Sc242 Sc 0.33794 0.70045 0.19442 0.0
Sc243 Sc 0.30098 0.66505 0.23108 0.0
Sc244 Sc 0.26782 0.60223 0.19848 0.0
O245 O 0.30296 0.65569 0.20796 0.0
C246 C 0.25324 0.67722 0.1724 0.0
C247 C 0.28003 0.76446 0.21727 0.0
C248 C 0.1974 0.63611 0.22326 0.0
C249 C 0.40239 0.70267 0.22403 0.0
C250 C 0.36586 0.59955 0.18191 0.0
C251 C 0.30902 0.559 0.22987 0.0
O252 O 0.28535 0.70297 0.17728 0.0
O253 O 0.27708 0.73367 0.22764 0.0
O254 O 0.2048 0.62386 0.20944 0.0
O255 O 0.39561 0.70668 0.20969 0.0
O256 O 0.32924 0.57992 0.18684 0.0
O257 O 0.323 0.59636 0.2359 0.0
O258 O 0.37366 0.6429 0.18337 0.0
O259 O 0.37143 0.6883 0.2332 0.0
O260 O 0.28596 0.55734 0.21739 0.0
O261 O 0.30316 0.75927 0.20485 0.0
O262 O 0.24418 0.63821 0.17825 0.0
O263 O 0.22975 0.64442 0.23276 0.0
Sc264 Sc 0.71381 0.83273 0.44469 0.0
Sc265 Sc 0.699 0.77665 0.48026 0.0
Sc266 Sc 0.61417 0.76558 0.45144 0.0
O267 O 0.67572 0.79174 0.45877 0.0
C268 C 0.61024 0.87031 0.44055 0.0
C269 C 0.7352 0.8798 0.477 0.0
C270 C 0.59384 0.79094 0.48689 0.0
C271 C 0.78929 0.76583 0.45943 0.0
C272 C 0.67116 0.76256 0.4203 0.0
C273 C 0.65449 0.68087 0.46925 0.0
O274 O 0.65401 0.87577 0.43972 0.0
O275 O 0.72442 0.84501 0.4851 0.0
O276 O 0.58217 0.7781 0.47343 0.0
O277 O 0.77663 0.79384 0.44893 0.0
O278 O 0.63651 0.75098 0.42835 0.0
O279 O 0.67673 0.70645 0.47853 0.0
O280 O 0.70204 0.79035 0.42493 0.0
O281 O 0.76457 0.75613 0.47111 0.0
O282 O 0.63261 0.69601 0.45764 0.0
O283 O 0.73172 0.88032 0.46246 0.0
O284 O 0.59132 0.8326 0.44463 0.0
O285 O 0.63546 0.79512 0.49123 0.0
Sc286 Sc 0.78659 0.34214 0.54319 0.0
Sc287 Sc 0.79546 0.28212 0.5084 0.0
Sc288 Sc 0.87484 0.2605 0.53768 0.0
O289 O 0.81888 0.29516 0.52984 0.0
C290 C 0.89468 0.36459 0.54745 0.0
C291 C 0.77077 0.38885 0.5109 0.0
C292 C 0.89999 0.28006 0.50213 0.0
C293 C 0.70432 0.28222 0.52858 0.0
C294 C 0.81556 0.2693 0.56852 0.0
C295 C 0.8274 0.18194 0.51981 0.0
O296 O 0.85193 0.37494 0.54882 0.0
O297 O 0.77317 0.35139 0.50342 0.0
O298 O 0.90759 0.26168 0.51522 0.0
O299 O 0.71904 0.31253 0.5381 0.0
O300 O 0.84939 0.25309 0.56094 0.0
O301 O 0.8136 0.21035 0.50967 0.0
O302 O 0.78885 0.29998 0.56322 0.0
O303 O 0.72883 0.26583 0.51768 0.0
O304 O 0.84449 0.19439 0.5326 0.0
O305 O 0.77932 0.39129 0.52516 0.0
O306 O 0.9086 0.32486 0.54315 0.0
O307 O 0.86138 0.29745 0.49832 0.0
Sc308 Sc 0.3725 0.23871 0.45204 0.0
Sc309 Sc 0.28967 0.23324 0.48171 0.0
Sc310 Sc 0.28024 0.16035 0.4498 0.0
O311 O 0.31429 0.21089 0.4612 0.0
C312 C 0.31962 0.21932 0.42153 0.0
C313 C 0.32052 0.32679 0.46543 0.0
C314 C 0.19967 0.22515 0.46014 0.0
C315 C 0.39814 0.2325 0.4877 0.0
C316 C 0.38393 0.12924 0.44678 0.0
C317 C 0.26114 0.1297 0.48465 0.0
O318 O 0.34361 0.2474 0.42937 0.0
O319 O 0.29547 0.30359 0.47459 0.0
O320 O 0.21739 0.20027 0.44957 0.0
O321 O 0.40839 0.23257 0.47348 0.0
O322 O 0.34184 0.11876 0.44956 0.0
O323 O 0.27973 0.16466 0.49093 0.0
O324 O 0.39859 0.17082 0.44617 0.0
O325 O 0.35682 0.23459 0.49267 0.0
O326 O 0.25645 0.12583 0.47019 0.0
O327 O 0.35189 0.30907 0.45703 0.0
O328 O 0.29814 0.18553 0.42742 0.0
O329 O 0.22044 0.23534 0.47262 0.0
Sc330 Sc 0.12493 0.73649 0.53684 0.0
Sc331 Sc 0.20303 0.73283 0.50587 0.0
Sc332 Sc 0.22152 0.66331 0.53829 0.0
O333 O 0.18294 0.71081 0.52695 0.0
C334 C 0.18696 0.72583 0.56628 0.0
C335 C 0.17014 0.82611 0.52177 0.0
C336 C 0.29635 0.73209 0.52581 0.0
C337 C 0.09399 0.72531 0.50177 0.0
C338 C 0.11981 0.62713 0.54359 0.0
C339 C 0.235 0.63003 0.50341 0.0
O340 O 0.15805 0.74929 0.55859 0.0
O341 O 0.19477 0.80343 0.51237 0.0
O342 O 0.2822 0.70623 0.53669 0.0
O343 O 0.08567 0.72621 0.51614 0.0
O344 O 0.16211 0.61862 0.54052 0.0
O345 O 0.21508 0.66423 0.49718 0.0
O346 O 0.1032 0.66796 0.54386 0.0
O347 O 0.13441 0.72924 0.49616 0.0
O348 O 0.24191 0.62714 0.5178 0.0
O349 O 0.1411 0.80752 0.53087 0.0
O350 O 0.20873 0.69184 0.56065 0.0
O351 O 0.27313 0.74007 0.51365 0.0
H352 H 0.2078 0.77555 0.23685 0.0
H353 H 0.19076 0.04762 0.22544 0.0
H354 H 0.28968 0.84982 0.20336 0.0
H355 H 0.15726 0.975 0.26735 0.0
H356 H 0.20495 0.97324 0.21271 0.0
H357 H 0.16771 0.84652 0.24323 0.0
C358 C 0.21744 0.80686 0.2308 0.0
C359 C 0.2533 0.8071 0.21988 0.0
C360 C 0.19336 0.97372 0.22457 0.0
C361 C 0.20685 0.88849 0.22712 0.0
C362 C 0.18482 0.01594 0.23178 0.0
C363 C 0.17326 0.01708 0.24747 0.0
C364 C 0.18951 0.9328 0.23311 0.0
C365 C 0.16653 0.97537 0.25527 0.0
C366 C 0.19419 0.84728 0.23441 0.0
C367 C 0.2629 0.84838 0.21206 0.0
N368 N 0.17515 0.93485 0.24803 0.0
N369 N 0.24022 0.88781 0.21601 0.0
H370 H 0.0856 0.79582 0.76574 0.0
H371 H 0.87969 0.61985 0.78378 0.0
H372 H 0.07934 0.65594 0.74898 0.0
H373 H 0.86303 0.76753 0.7804 0.0
H374 H 0.96352 0.62982 0.78074 0.0
H375 H 0.01457 0.78182 0.78068 0.0
C376 C 0.06994 0.76181 0.76563 0.0
C377 C 0.08763 0.72694 0.75617 0.0
C378 C 0.94149 0.66003 0.78106 0.0
C379 C 0.00742 0.71075 0.77302 0.0
C380 C 0.89383 0.65441 0.78285 0.0
C381 C 0.86459 0.6929 0.78203 0.0
C382 C 0.95974 0.70443 0.77867 0.0
C383 C 0.8845 0.73694 0.78079 0.0
C384 C 0.02955 0.75389 0.77405 0.0
C385 C 0.06624 0.68357 0.75616 0.0
N386 N 0.93089 0.74151 0.77897 0.0
N387 N 0.0269 0.67673 0.76437 0.0
H388 H 0.7963 0.93181 0.22574 0.0
H389 H 0.77846 0.20363 0.23739 0.0
H390 H 0.82481 0.00374 0.26821 0.0
H391 H 0.69785 0.12986 0.20344 0.0
H392 H 0.818 0.13247 0.24391 0.0
H393 H 0.78291 0.00635 0.21304 0.0
C394 C 0.8012 0.96339 0.23224 0.0
C395 C 0.81117 0.96199 0.24805 0.0
C396 C 0.79194 0.13188 0.23495 0.0
C397 C 0.79601 0.04641 0.23371 0.0
C398 C 0.76903 0.17238 0.23127 0.0
C399 C 0.73362 0.17229 0.2202 0.0
C400 C 0.77939 0.09077 0.22759 0.0
C401 C 0.72428 0.13115 0.21226 0.0
C402 C 0.79318 0.00568 0.22503 0.0
C403 C 0.8167 0.00356 0.25603 0.0
N404 N 0.74659 0.0916 0.2163 0.0
N405 N 0.80868 0.04417 0.24879 0.0
H406 H 0.13716 0.19735 0.78009 0.0
H407 H 0.89084 0.30429 0.76259 0.0
H408 H 0.10786 0.34304 0.78309 0.0
H409 H 0.92843 0.16177 0.7561 0.0
H410 H 0.96283 0.31657 0.77711 0.0
H411 H 0.05457 0.18146 0.77872 0.0
C412 C 0.11311 0.22597 0.78069 0.0
C413 C 0.12913 0.2716 0.78135 0.0
C414 C 0.95469 0.28231 0.7729 0.0
C415 C 0.03456 0.25385 0.77942 0.0
C416 C 0.9136 0.27531 0.76474 0.0
C417 C 0.90429 0.23204 0.75824 0.0
C418 C 0.98629 0.24571 0.7744 0.0
C419 C 0.93477 0.1956 0.761 0.0
C420 C 0.06595 0.21693 0.77992 0.0
C421 C 0.0967 0.30739 0.78242 0.0
N422 N 0.97472 0.20338 0.76873 0.0
N423 N 0.05077 0.29784 0.78105 0.0
H424 H 0.19978 0.45392 0.01393 0.0
H425 H 0.25666 0.7187 -0.00195 0.0
H426 H 0.19024 0.52085 0.96964 0.0
H427 H 0.30088 0.64866 0.03948 0.0
H428 H 0.21826 0.6492 0.98968 0.0
H429 H 0.22166 0.52805 0.02552 0.0
C430 C 0.20115 0.48445 0.00673 0.0
C431 C 0.1937 0.48143 0.99079 0.0
C432 C 0.23636 0.64883 0.0006 0.0
C433 C 0.21892 0.56546 0.00388 0.0
C434 C 0.25865 0.68859 0.00541 0.0
C435 C 0.2829 0.68946 0.01943 0.0
C436 C 0.23828 0.60914 0.00975 0.0
C437 C 0.28318 0.64935 0.0285 0.0
C438 C 0.21406 0.52648 0.01332 0.0
C439 C 0.19623 0.52171 0.98194 0.0
N440 N 0.26139 0.61049 0.02344 0.0
N441 N 0.20896 0.56201 0.9886 0.0
H442 H 0.49981 0.78736 0.03691 0.0
H443 H 0.63518 0.6891 0.96359 0.0
H444 H 0.44368 0.7943 0.99089 0.0
H445 H 0.67732 0.66988 0.01084 0.0
H446 H 0.56514 0.72842 0.97271 0.0
H447 H 0.56815 0.74929 0.02675 0.0
C448 C 0.50216 0.78146 0.02461 0.0
C449 C 0.46577 0.79369 0.01476 0.0
C450 C 0.58956 0.7151 0.98105 0.0
C451 C 0.54375 0.74907 0.00304 0.0
C452 C 0.62917 0.69213 0.97586 0.0
C453 C 0.66217 0.6764 0.98648 0.0
C454 C 0.58324 0.72227 -0.00308 0.0
C455 C 0.65299 0.68179 0.00224 0.0
C456 C 0.54108 0.75932 0.01882 0.0
C457 C 0.47095 0.78549 -0.0011 0.0
N458 N 0.61466 0.70458 0.00695 0.0
N459 N 0.50909 0.76321 0.99353 0.0
H460 H 0.77505 0.29304 0.00608 0.0
H461 H 0.79947 0.5645 0.01837 0.0
H462 H 0.69474 0.36767 0.03987 0.0
H463 H 0.83095 0.49263 0.97616 0.0
H464 H 0.78132 0.49014 0.03061 0.0
H465 H 0.81534 0.36378 -0.00045 0.0
C466 C 0.76568 0.32439 0.01214 0.0
C467 C 0.73029 0.3247 0.02323 0.0
C468 C 0.79323 0.49073 0.01878 0.0
C469 C 0.77712 0.40595 0.01582 0.0
C470 C 0.80404 0.53292 0.01186 0.0
C471 C 0.81639 0.53437 0.99624 0.0
C472 C 0.79563 0.45011 0.01003 0.0
C473 C 0.82123 0.4928 0.9882 0.0
C474 C 0.78906 0.36472 0.00844 0.0
C475 C 0.72112 0.36612 0.03104 0.0
N476 N 0.81051 0.45233 0.99517 0.0
N477 N 0.74404 0.40545 0.02703 0.0
H478 H 0.36433 0.32313 0.96253 0.0
H479 H 0.50401 0.23704 0.03672 0.0
H480 H 0.30892 0.31945 0.00872 0.0
H481 H 0.55889 0.22886 0.99052 0.0
H482 H 0.43259 0.26863 0.02639 0.0
H483 H 0.43742 0.292 0.97241 0.0
C484 C 0.36769 0.31631 0.97474 0.0
C485 C 0.33041 0.32367 0.9848 0.0
C486 C 0.46014 0.25976 0.01848 0.0
C487 C 0.41333 0.28773 0.9961 0.0
C488 C 0.50095 0.24156 0.02438 0.0
C489 C 0.53762 0.23038 0.01449 0.0
C490 C 0.45588 0.26712 0.00256 0.0
C491 C 0.5315 0.2369 -0.00142 0.0
C492 C 0.40921 0.29822 0.98035 0.0
C493 C 0.33654 0.31396 0.0005 0.0
N494 N 0.49146 0.25511 0.9931 0.0
N495 N 0.37707 0.29641 0.00563 0.0
H496 H 0.80058 0.59558 0.73285 0.0
H497 H 0.70586 0.34214 0.71661 0.0
H498 H 0.67204 0.53865 0.74943 0.0
H499 H 0.85062 0.37752 0.71406 0.0
H500 H 0.68693 0.42375 0.71911 0.0
H501 H 0.81269 0.52517 0.71741 0.0
C502 C 0.7744 0.56877 0.73287 0.0
C503 C 0.73558 0.57219 0.74248 0.0
C504 C 0.7228 0.41385 0.7177 0.0
C505 C 0.74877 0.49282 0.72495 0.0
C506 C 0.7336 0.36735 0.71626 0.0
C507 C 0.7799 0.3533 0.71553 0.0
C508 C 0.7586 0.44644 0.71871 0.0
C509 C 0.81452 0.38717 0.7148 0.0
C510 C 0.78136 0.52876 0.72415 0.0
C511 C 0.70267 0.5368 0.74227 0.0
N512 N 0.80325 0.43241 0.7168 0.0
N513 N 0.71016 0.49843 0.73372 0.0
H514 H 0.55816 0.26427 0.25437 0.0
H515 H 0.31723 0.14645 0.2321 0.0
H516 H 0.50958 0.24522 0.20774 0.0
H517 H 0.36514 0.15915 0.27898 0.0
H518 H 0.38983 0.17928 0.22311 0.0
H519 H 0.48841 0.22569 0.2638 0.0
C520 C 0.53268 0.25247 0.24611 0.0
C521 C 0.53987 0.25798 0.23021 0.0
C522 C 0.38481 0.17452 0.23536 0.0
C523 C 0.46043 0.21318 0.24095 0.0
C524 C 0.34342 0.1555 0.2405 0.0
C525 C 0.33508 0.15031 0.25632 0.0
C526 C 0.41809 0.18889 0.24611 0.0
C527 C 0.37029 0.1624 0.26668 0.0
C528 C 0.49307 0.23008 0.25152 0.0
C529 C 0.50571 0.24171 0.22009 0.0
N530 N 0.41017 0.1817 0.2614 0.0
N531 N 0.46762 0.21999 0.22563 0.0
H532 H 0.29069 0.62922 0.71675 0.0
H533 H 0.19463 0.37516 0.73044 0.0
H534 H 0.14739 0.59235 0.71041 0.0
H535 H 0.32035 0.4322 0.74921 0.0
H536 H 0.1851 0.44543 0.71474 0.0
H537 H 0.31003 0.54768 0.71925 0.0
C538 C 0.26345 0.60369 0.71555 0.0
C539 C 0.2173 0.61722 0.71375 0.0
C540 C 0.21528 0.44191 0.72203 0.0
C541 C 0.23888 0.52423 0.717 0.0
C542 C 0.22074 0.402 0.73092 0.0
C543 C 0.2579 0.3987 0.74121 0.0
C544 C 0.24774 0.47785 0.72337 0.0
C545 C 0.29087 0.43403 0.74154 0.0
C546 C 0.27445 0.55725 0.717 0.0
C547 C 0.18334 0.58304 0.71198 0.0
N548 N 0.28484 0.4723 0.73284 0.0
N549 N 0.19463 0.53786 0.71405 0.0
H550 H 0.42674 0.71473 0.2544 0.0
H551 H 0.66831 0.83274 0.23278 0.0
H552 H 0.47845 0.73166 0.20805 0.0
H553 H 0.62245 0.81475 0.2797 0.0
H554 H 0.59568 0.80027 0.22375 0.0
H555 H 0.4966 0.75254 0.26417 0.0
C556 C 0.45291 0.7259 0.24629 0.0
C557 C 0.44657 0.72008 0.23036 0.0
C558 C 0.60116 0.80372 0.23603 0.0
C559 C 0.52605 0.76397 0.24146 0.0
C560 C 0.64256 0.82255 0.24119 0.0
C561 C 0.6515 0.82618 0.25701 0.0
C562 C 0.56839 0.78799 0.24675 0.0
C563 C 0.61681 0.8127 0.2674 0.0
C564 C 0.49259 0.7478 0.25188 0.0
C565 C 0.4816 0.73548 0.22041 0.0
N566 N 0.57685 0.79365 0.26208 0.0
N567 N 0.51964 0.75681 0.22613 0.0
H568 H 0.78595 0.94739 0.46352 0.0
H569 H 0.79976 0.10874 0.53783 0.0
H570 H 0.7309 0.90519 0.50758 0.0
H571 H 0.84885 0.14453 0.49248 0.0
H572 H 0.78371 0.0298 0.52858 0.0
H573 H 0.8179 0.01582 0.4754 0.0
C574 C 0.78036 0.95265 0.47573 0.0
C575 C 0.75501 0.92091 0.48452 0.0
C576 C 0.79865 0.05486 0.52076 0.0
C577 C 0.79173 -0.00022 0.49832 0.0
C578 C 0.808 0.09959 0.52606 0.0
C579 C 0.82489 0.13291 0.51578 0.0
C580 C 0.80675 0.04398 0.50521 0.0
C581 C 0.83502 0.11985 0.50065 0.0
C582 C 0.79893 0.99173 0.48256 0.0
C583 C 0.74989 0.92911 0.50037 0.0
N584 N 0.82548 0.07656 0.49581 0.0
N585 N 0.76769 0.96819 0.50678 0.0
H586 H 0.16537 0.30938 0.46737 0.0
H587 H 0.93348 0.20092 0.49047 0.0
H588 H 0.12498 0.17525 0.45051 0.0
H589 H 0.94783 0.34873 0.4875 0.0
H590 H 0.00051 0.19194 0.47359 0.0
H591 H 0.08413 0.3278 0.472 0.0
C592 C 0.13909 0.28435 0.46424 0.0
C593 C 0.15155 0.24057 0.45876 0.0
C594 C 0.98852 0.22641 0.47631 0.0
C595 C 0.05908 0.26074 0.46444 0.0
C596 C 0.95059 0.23145 0.48602 0.0
C597 C 0.93597 0.27555 0.49041 0.0
C598 C 0.01274 0.26578 0.4714 0.0
C599 C 0.95862 0.31421 0.48436 0.0
C600 C 0.09279 0.29486 0.46686 0.0
C601 C 0.11655 0.20931 0.45481 0.0
N602 N -0.00324 0.30845 0.47539 0.0
N603 N 0.07178 0.21953 0.45813 0.0
H604 H 0.2505 0.86978 0.52781 0.0
H605 H 0.18014 0.08492 0.48036 0.0
H606 H 0.10813 0.89508 0.51592 0.0
H607 H 0.29847 0.08975 0.51053 0.0
H608 H 0.15188 0.01694 0.49407 0.0
H609 H 0.2683 0.95113 0.52296 0.0
C610 C 0.2228 0.89297 0.52454 0.0
C611 C 0.17787 0.87615 0.52222 0.0
C612 C 0.1836 0.03324 0.4979 0.0
C613 C 0.19809 0.96849 0.51621 0.0
C614 C 0.19992 0.07179 0.49001 0.0
C615 C 0.24196 0.0924 0.49424 0.0
C616 C 0.21015 0.01436 0.50983 0.0
C617 C 0.266 0.07457 0.50691 0.0
C618 C 0.23292 0.93929 0.52179 0.0
C619 C 0.14312 0.90708 0.51789 0.0
N620 N 0.25024 0.0358 0.51409 0.0
N621 N 0.15418 0.95174 0.51467 0.0
H622 H 0.0823 0.76321 0.47308 0.0
H623 H 0.81811 0.68439 0.47155 0.0
H624 H 0.01557 0.67604 0.50671 0.0
H625 H 0.86812 0.80473 0.44741 0.0
H626 H 0.8976 0.66347 0.47767 0.0
H627 H 0.01085 0.76239 0.45768 0.0
C628 C 0.05293 0.74322 0.47705 0.0
C629 C 0.05432 0.72031 0.49128 0.0
C630 C 0.89131 0.694 0.47078 0.0
C631 C 0.97346 0.71869 0.47376 0.0
C632 C 0.84598 0.70588 0.46724 0.0
C633 C 0.8366 0.74694 0.45929 0.0
C634 C 0.9275 0.72366 0.46651 0.0
C635 C 0.87396 0.77305 0.45372 0.0
C636 C 0.01231 0.74284 0.4683 0.0
C637 C 0.01554 0.69486 0.49594 0.0
N638 N 0.91795 0.76153 0.45775 0.0
N639 N 0.97664 0.69497 0.48725 0.0
H640 H 0.3042 0.13016 0.32844 0.0
H641 H 0.30161 0.29344 0.40266 0.0
H642 H 0.22516 0.25642 0.33119 0.0
H643 H 0.34037 0.14975 0.40241 0.0
H644 H 0.29335 0.29038 0.3744 0.0
H645 H 0.33846 0.14797 0.35341 0.0
C646 C 0.29446 0.1619 0.33418 0.0
C647 C 0.26083 0.1912 0.3279 0.0
C648 C 0.30444 0.25984 0.38056 0.0
C649 C 0.29986 0.21169 0.35646 0.0
C650 C 0.30921 0.26166 0.39659 0.0
C651 C 0.32081 0.22156 0.4047 0.0
C652 C 0.31216 0.21786 0.37281 0.0
C653 C 0.3305 0.18113 0.39648 0.0
C654 C 0.31402 0.17203 0.34844 0.0
C655 C 0.25016 0.23227 0.33577 0.0
N656 N 0.32568 0.18021 0.38099 0.0
N657 N 0.26914 0.241 0.34977 0.0
H658 H 0.21615 0.85062 0.6569 0.0
H659 H 0.22136 0.66893 0.58838 0.0
H660 H 0.18963 0.70515 0.66319 0.0
H661 H 0.16969 0.80729 0.58147 0.0
H662 H 0.22995 0.68532 0.61576 0.0
H663 H 0.21862 0.83816 0.62887 0.0
C664 C 0.21149 0.81607 0.65237 0.0
C665 C 0.20245 0.77882 0.66225 0.0
C666 C 0.217 0.71212 0.60821 0.0
C667 C 0.20579 0.76449 0.63059 0.0
C668 C 0.21221 0.70293 0.59259 0.0
C669 C 0.1944 0.73673 0.58267 0.0
C670 C 0.2046 0.75559 0.61393 0.0
C671 C 0.18306 0.78014 0.58878 0.0
C672 C 0.2126 0.8091 0.63646 0.0
C673 C 0.1963 0.73477 0.6559 0.0
N674 N 0.1884 0.78843 0.60409 0.0
N675 N 0.19826 0.72877 0.64045 0.0
H676 H 0.67782 0.83106 0.32734 0.0
H677 H 0.60124 0.76223 0.3993 0.0
H678 H 0.7804 0.72356 0.33207 0.0
H679 H 0.74657 0.73303 0.40464 0.0
H680 H 0.61092 0.75935 0.3712 0.0
H681 H 0.64544 0.80837 0.35226 0.0
C682 C 0.693 0.80222 0.33345 0.0
C683 C 0.73248 0.77987 0.32775 0.0
C684 C 0.64039 0.7528 0.37856 0.0
C685 C 0.6953 0.75337 0.35603 0.0
C686 C 0.63481 0.75377 0.39453 0.0
C687 C 0.67339 0.74835 0.40414 0.0
C688 C 0.68472 0.74586 0.37239 0.0
C689 C 0.7162 0.73784 0.39752 0.0
C690 C 0.67414 0.78891 0.34758 0.0
C691 C 0.75045 0.74241 0.3361 0.0
N692 N 0.72081 0.73723 0.38201 0.0
N693 N 0.73235 0.73105 0.34997 0.0
H694 H 0.7907 0.12542 0.65621 0.0
H695 H 0.76975 0.31572 0.591 0.0
H696 H 0.80029 0.27156 0.66535 0.0
H697 H 0.84377 0.18877 0.58244 0.0
H698 H 0.76031 0.29314 0.61783 0.0
H699 H 0.79047 0.14218 0.62838 0.0
C700 C 0.79207 0.16095 0.65233 0.0
C701 C 0.79566 0.19727 0.66294 0.0
C702 C 0.77834 0.27016 0.61003 0.0
C703 C 0.7948 0.21636 0.63157 0.0
C704 C 0.78365 0.28285 0.59472 0.0
C705 C 0.80793 0.25418 0.58451 0.0
C706 C 0.79673 0.2282 0.61514 0.0
C707 C 0.82526 0.21203 0.59001 0.0
C708 C 0.79227 0.17037 0.63656 0.0
C709 C 0.79778 0.24269 0.65747 0.0
N710 N 0.81927 0.20016 0.60503 0.0
N711 N 0.79709 0.251 0.64213 0.0
H712 H 0.1912 0.23085 0.90951 0.0
H713 H 0.2144 0.27313 0.83254 0.0
H714 H 0.30016 0.3329 0.91239 0.0
H715 H 0.36164 0.27635 0.84059 0.0
H716 H 0.20169 0.26508 0.86022 0.0
H717 H 0.21304 0.21574 0.88288 0.0
C718 C 0.2202 0.24961 0.90466 0.0
C719 C 0.24301 0.28427 0.91307 0.0
C720 C 0.23681 0.26659 0.85589 0.0
C721 C 0.26769 0.26712 0.88263 0.0
C722 C 0.24401 0.27172 0.84017 0.0
C723 C 0.28906 0.27541 0.83439 0.0
C724 C 0.27491 0.26611 0.8659 0.0
C725 C 0.32639 0.27333 0.84469 0.0
C726 C 0.23238 0.24104 0.88945 0.0
C727 C 0.28098 0.30662 0.90623 0.0
N728 N 0.31846 0.26976 0.86008 0.0
N729 N 0.29182 0.29806 0.89127 0.0
H730 H 0.25993 0.71088 0.07921 0.0
H731 H 0.22572 0.76416 0.16547 0.0
H732 H 0.21969 0.8455 0.09572 0.0
H733 H 0.22696 0.62524 0.14764 0.0
H734 H 0.20636 0.79292 0.13991 0.0
H735 H 0.23226 0.67691 0.10316 0.0
C736 C 0.24459 0.7332 0.08782 0.0
C737 C 0.2433 0.7812 0.08571 0.0
C738 C 0.20957 0.75601 0.1416 0.0
C739 C 0.21203 0.74266 0.11322 0.0
C740 C 0.22066 0.73964 0.15619 0.0
C741 C 0.22888 0.69247 0.15848 0.0
C742 C 0.20817 0.72507 0.12916 0.0
C743 C 0.22135 0.66196 0.14623 0.0
C744 C 0.22848 0.71375 0.10146 0.0
C745 C 0.22204 0.8084 0.09702 0.0
N746 N 0.21268 0.67893 0.13193 0.0
N747 N 0.20826 0.78886 0.11049 0.0
H748 H 0.7997 0.76323 0.90891 0.0
H749 H 0.77793 0.69674 0.83359 0.0
H750 H 0.69398 0.65928 0.91538 0.0
H751 H 0.63071 0.69752 0.84184 0.0
H752 H 0.79098 0.71017 0.86105 0.0
H753 H 0.77828 0.76838 0.88182 0.0
C754 C 0.77141 0.74207 0.90475 0.0
C755 C 0.74936 0.70984 0.91437 0.0
C756 C 0.75583 0.70807 0.85679 0.0
C757 C 0.72517 0.71566 0.88342 0.0
C758 C 0.74841 0.69988 0.84121 0.0
C759 C 0.70323 0.69608 0.83555 0.0
C760 C 0.71783 0.71154 0.86677 0.0
C761 C 0.66605 0.70055 0.84584 0.0
C762 C 0.75953 0.74491 0.88927 0.0
C763 C 0.7125 0.6839 0.90831 0.0
N764 N 0.67418 0.70728 0.8611 0.0
N765 N 0.70178 0.68703 0.89311 0.0
H766 H 0.77895 0.14811 0.09374 0.0
H767 H 0.77386 0.36078 0.15137 0.0
H768 H 0.74774 0.28872 0.08103 0.0
H769 H 0.75677 0.21802 0.16438 0.0
H770 H 0.79744 0.33575 0.12556 0.0
H771 H 0.80379 0.1754 0.11913 0.0
C772 C 0.77849 0.18481 0.09615 0.0
C773 C 0.75996 0.21612 0.08551 0.0
C774 C 0.78976 0.30995 0.13422 0.0
C775 C 0.78829 0.24735 0.11433 0.0
C776 C 0.77647 0.32419 0.14893 0.0
C777 C 0.76218 0.29135 0.15979 0.0
C778 C 0.78891 0.2627 0.13052 0.0
C779 C 0.76639 0.24438 0.15613 0.0
C780 C 0.7926 0.20033 0.11062 0.0
C781 C 0.76055 0.26333 0.08912 0.0
N782 N 0.77867 0.23142 0.14171 0.0
N783 N 0.77371 0.27747 0.10335 0.0
H784 H 0.27548 0.27587 0.24976 0.0
H785 H 0.29822 0.54744 0.26076 0.0
H786 H 0.1976 0.35175 0.28384 0.0
H787 H 0.32741 0.4735 0.21876 0.0
H788 H 0.28458 0.47351 0.27386 0.0
H789 H 0.31738 0.34581 0.24326 0.0
C790 C 0.2671 0.30738 0.25589 0.0
C791 C 0.23178 0.30849 0.26699 0.0
C792 C 0.29515 0.4736 0.26189 0.0
C793 C 0.28019 0.38859 0.25963 0.0
C794 C 0.30333 0.51555 0.25447 0.0
C795 C 0.3134 0.51615 0.23866 0.0
C796 C 0.29788 0.43247 0.25342 0.0
C797 C 0.3192 0.47424 0.23093 0.0
C798 C 0.29139 0.34716 0.25224 0.0
C799 C 0.22387 0.34979 0.27498 0.0
N800 N 0.31092 0.43399 0.23836 0.0
N801 N 0.24742 0.38868 0.27094 0.0
H802 H 0.36276 0.70358 0.71644 0.0
H803 H 0.57806 0.8155 0.75038 0.0
H804 H 0.38253 0.8509 0.71328 0.0
H805 H 0.58636 0.67932 0.73061 0.0
H806 H 0.50953 0.83108 0.73475 0.0
H807 H 0.4463 0.69369 0.71901 0.0
C808 C 0.38495 0.73374 0.71593 0.0
C809 C 0.36601 0.77815 0.71492 0.0
C810 C 0.52697 0.79822 0.73348 0.0
C811 C 0.46108 0.76725 0.71819 0.0
C812 C 0.56582 0.78932 0.74244 0.0
C813 C 0.58716 0.74605 0.74176 0.0
C814 C 0.50856 0.76292 0.72424 0.0
C815 C 0.57044 0.71307 0.73138 0.0
C816 C 0.43257 0.72809 0.71731 0.0
C817 C 0.39599 0.81612 0.71414 0.0
N818 N 0.53121 0.72174 0.72326 0.0
N819 N 0.44213 0.80993 0.71624 0.0
H820 H 0.69057 0.43111 0.26226 0.0
H821 H 0.71197 0.70212 0.2502 0.0
H822 H 0.6536 0.50445 0.22085 0.0
H823 H 0.79375 0.62657 0.2833 0.0
H824 H 0.66827 0.63255 0.24472 0.0
H825 H 0.70518 0.50526 0.2751 0.0
C826 C 0.68385 0.46291 0.25609 0.0
C827 C 0.67146 0.46213 0.24048 0.0
C828 C 0.69555 0.63118 0.25326 0.0
C829 C 0.6882 0.54603 0.25491 0.0
C830 C 0.72091 0.67075 0.2563 0.0
C831 C 0.75777 0.66961 0.26682 0.0
C832 C 0.70723 0.58991 0.26065 0.0
C833 C 0.76632 0.62852 0.27485 0.0
C834 C 0.6926 0.50499 0.26335 0.0
C835 C 0.66362 0.5039 0.23287 0.0
N836 N 0.74168 0.58982 0.27139 0.0
N837 N 0.67263 0.54428 0.24013 0.0
H838 H 0.63186 0.26827 0.71594 0.0
H839 H 0.41626 0.15702 0.7491 0.0
H840 H 0.61068 0.12148 0.71142 0.0
H841 H 0.40789 0.29349 0.72957 0.0
H842 H 0.48458 0.14159 0.73333 0.0
H843 H 0.54832 0.27885 0.7183 0.0
C844 C 0.60935 0.23842 0.71505 0.0
C845 C 0.62784 0.1939 0.71375 0.0
C846 C 0.46717 0.17449 0.73215 0.0
C847 C 0.53286 0.20553 0.71682 0.0
C848 C 0.42849 0.18332 0.74121 0.0
C849 C 0.4072 0.22662 0.74063 0.0
C850 C 0.48547 0.20987 0.72293 0.0
C851 C 0.42382 0.25974 0.73028 0.0
C852 C 0.56175 0.24446 0.71633 0.0
C853 C 0.59753 0.15632 0.71252 0.0
N854 N 0.46292 0.25112 0.72207 0.0
N855 N 0.5514 0.16282 0.71454 0.0
H856 H 0.16957 0.18765 0.00383 0.0
H857 H 0.31557 0.96213 0.98896 0.0
H858 H 0.22496 0.15955 0.95863 0.0
H859 H 0.29907 0.02721 0.03335 0.0
H860 H 0.2836 0.03133 0.97671 0.0
H861 H 0.21204 0.12232 0.01395 0.0
C862 C 0.19029 0.16719 0.99598 0.0
C863 C 0.19416 0.17912 0.98041 0.0
C864 C 0.28802 0.0307 0.98909 0.0
C865 C 0.24376 0.10472 0.992 0.0
C866 C 0.3067 0.99152 0.99608 0.0
C867 C 0.30898 0.98875 0.01221 0.0
C868 C 0.27155 0.0667 -0.00162 0.0
C869 C 0.29698 0.02763 0.0209 0.0
C870 C 0.215 0.13025 0.00181 0.0
C871 C 0.22103 0.1512 0.97071 0.0
N872 N 0.27799 0.06471 0.01388 0.0
N873 N 0.24525 0.11515 0.9767 0.0
H874 H 0.13419 0.83041 0.04048 0.0
H875 H 0.99133 0.74859 0.96649 0.0
H876 H 0.18139 0.84472 0.99352 0.0
H877 H 0.942 0.72954 0.01301 0.0
H878 H 0.0612 0.78411 0.97654 0.0
H879 H 0.06208 0.79645 0.03093 0.0
C880 C 0.12912 0.82716 0.02817 0.0
C881 C 0.16401 0.84022 0.01779 0.0
C882 C 0.03526 0.77204 0.9846 0.0
C883 C 0.08215 0.80074 0.00685 0.0
C884 C 0.99535 0.75152 0.97885 0.0
C885 C 0.9606 0.73622 0.98892 0.0
C886 C 0.04062 0.77755 0.00055 0.0
C887 C 0.96795 0.74074 0.00483 0.0
C888 C 0.08815 0.80736 0.02274 0.0
C889 C 0.15567 0.83486 0.00197 0.0
N890 N 0.00711 0.7613 0.01017 0.0
N891 N 0.11577 0.81532 -0.00299 0.0
H892 H 0.68986 0.06312 0.98458 0.0
H893 H 0.72512 0.79326 0.99642 0.0
H894 H 0.66741 0.98984 0.02716 0.0
H895 H 0.79848 0.87127 0.96172 0.0
H896 H 0.68129 0.86171 0.00306 0.0
H897 H 0.70657 0.98937 0.97176 0.0
C898 C 0.68685 0.03131 0.99107 0.0
C899 C 0.67773 0.03213 0.00693 0.0
C900 C 0.70677 0.86386 0.99393 0.0
C901 C 0.69676 0.94872 0.9925 0.0
C902 C 0.7322 0.82495 0.99021 0.0
C903 C 0.76679 0.8271 0.97887 0.0
C904 C 0.71601 0.90549 0.98636 0.0
C905 C 0.77287 0.86854 0.97077 0.0
C906 C 0.69679 0.9895 0.9838 0.0
C907 C 0.67473 0.99039 0.01493 0.0
N908 N 0.74817 0.90659 0.97487 0.0
N909 N 0.68464 0.95029 0.00764 0.0
H910 H 0.99315 0.28887 0.96422 0.0
H911 H 0.86165 0.19049 0.03826 0.0
H912 H 0.04811 0.30116 0.01027 0.0
H913 H 0.81836 0.16858 0.99122 0.0
H914 H 0.92887 0.23359 0.0288 0.0
H915 H 0.92454 0.25163 0.97466 0.0
C916 C 0.99037 0.28445 0.97658 0.0
C917 C 0.02656 0.29762 0.98638 0.0
C918 C 0.90477 0.21898 0.02058 0.0
C919 C 0.94861 0.25391 -0.00161 0.0
C920 C 0.86678 0.19387 0.02596 0.0
C921 C 0.83432 0.176 0.01551 0.0
C922 C 0.91008 0.22617 0.00469 0.0
C923 C 0.84234 0.18195 -0.00029 0.0
C924 C 0.95136 0.26279 0.98253 0.0
C925 C 0.02097 0.29146 0.00231 0.0
N926 N 0.8792 0.20676 0.9948 0.0
N927 N 0.98291 0.26939 0.00783 0.0
H928 H 0.69054 0.09518 0.76701 0.0
H929 H 0.78735 0.84161 0.7807 0.0
H930 H 0.81485 0.03775 0.74747 0.0
H931 H 0.6445 0.87801 0.78806 0.0
H932 H 0.8064 0.92317 0.77781 0.0
H933 H 0.68168 0.02508 0.7829 0.0
C934 C 0.71644 0.06825 0.76639 0.0
C935 C 0.75305 0.07139 0.75586 0.0
C936 C 0.771 0.91352 0.78037 0.0
C937 C 0.74373 0.99255 0.7739 0.0
C938 C 0.76019 0.86707 0.78206 0.0
C939 C 0.71422 0.85343 0.78428 0.0
C940 C 0.73537 0.94636 0.78052 0.0
C941 C 0.68031 0.88747 0.78619 0.0
C942 C 0.71139 0.02848 0.77538 0.0
C943 C 0.78581 0.03601 0.75534 0.0
N944 N 0.69135 0.93264 0.78387 0.0
N945 N 0.78022 -0.00209 0.76416 0.0
H946 H 0.86544 0.32471 0.20764 0.0
H947 H 0.00743 0.23046 0.28007 0.0
H948 H 0.81946 0.33418 0.25485 0.0
H949 H 0.05591 0.21751 0.23321 0.0
H950 H 0.93876 0.26969 0.27073 0.0
H951 H 0.93779 0.28994 0.2166 0.0
C952 C 0.87099 0.32047 0.2199 0.0
C953 C 0.8363 0.33204 0.23052 0.0
C954 C 0.96428 0.25817 0.26245 0.0
C955 C 0.91818 0.29149 0.24077 0.0
C956 C 0.00345 0.23548 0.26778 0.0
C957 C 0.03763 0.2208 0.25741 0.0
C958 C 0.95909 0.26645 0.24662 0.0
C959 C 0.03039 0.22812 0.24161 0.0
C960 C 0.91201 0.30012 0.22498 0.0
C961 C 0.84509 0.32537 0.24625 0.0
N962 N 0.99196 0.25071 0.23669 0.0
N963 N 0.88497 0.30521 0.25087 0.0
H964 H 0.3489 0.09389 0.78835 0.0
H965 H 0.16822 0.92198 0.75179 0.0
H966 H 0.20767 0.1275 0.77709 0.0
H967 H 0.30673 0.88146 0.76399 0.0
H968 H 0.17683 0.9915 0.76735 0.0
H969 H 0.32983 0.01149 0.78587 0.0
C970 C 0.31363 0.08377 0.78581 0.0
C971 C 0.27997 0.11713 0.78255 0.0
C972 C 0.20522 0.96719 0.76692 0.0
C973 C 0.25806 0.02388 0.7796 0.0
C974 C 0.20017 0.92756 0.75806 0.0
C975 C 0.237 0.89673 0.7566 0.0
C976 C 0.24806 0.97674 0.77391 0.0
C977 C 0.27771 0.90491 0.76489 0.0
C978 C 0.30277 0.03689 0.78433 0.0
C979 C 0.2348 0.10262 0.77933 0.0
N980 N 0.28264 0.94488 0.77296 0.0
N981 N 0.22533 0.05711 0.77772 0.0
H982 H 0.98359 0.75524 0.27784 0.0
H983 H 0.12271 0.65854 0.20525 0.0
H984 H 0.92935 0.76103 0.23154 0.0
H985 H 0.1653 0.64253 0.25261 0.0
H986 H 0.05089 0.69464 0.21416 0.0
H987 H 0.0519 0.71626 0.26817 0.0
C988 C 0.98624 0.74872 0.26559 0.0
C989 C 0.9505 0.76114 0.2555 0.0
C990 C 0.07579 0.68269 0.22257 0.0
C991 C 0.02864 0.71571 0.24434 0.0
C992 C 0.11649 0.66161 0.21751 0.0
C993 C 0.15014 0.64787 0.22822 0.0
C994 C 0.06899 0.68996 0.23841 0.0
C995 C 0.14053 0.65306 0.24395 0.0
C996 C 0.0252 0.72611 0.26008 0.0
C997 C 0.95611 0.75209 0.23972 0.0
N998 N 0.10108 0.67406 0.24854 0.0
N999 N 0.99441 0.72958 0.23461 0.0
H1000 H 0.6842 0.61103 0.45049 0.0
H1001 H 0.74674 0.46969 0.52458 0.0
H1002 H 0.6302 0.6401 0.49572 0.0
H1003 H 0.75096 0.40253 0.48013 0.0
H1004 H 0.70833 0.53496 0.51297 0.0
H1005 H 0.70874 0.53426 0.45961 0.0
C1006 C 0.67596 0.60042 0.46214 0.0
C1007 C 0.6556 0.63146 0.47249 0.0
C1008 C 0.71741 0.50592 0.50572 0.0
C1009 C 0.68433 0.54566 0.48296 0.0
C1010 C 0.73995 0.46872 0.51232 0.0
C1011 C 0.7521 0.4304 0.50333 0.0
C1012 C 0.70729 0.50543 0.48994 0.0
C1013 C 0.74214 0.4314 0.48748 0.0
C1014 C 0.69027 0.55702 0.46736 0.0
C1015 C 0.64617 0.61694 0.4875 0.0
N1016 N 0.72039 0.46859 0.48122 0.0
N1017 N 0.66126 0.57529 0.49236 0.0
H1018 H 0.62914 0.3304 0.53939 0.0
H1019 H 0.40535 0.27463 0.516 0.0
H1020 H 0.66842 0.20073 0.51873 0.0
H1021 H 0.47886 0.18662 0.48429 0.0
H1022 H 0.47575 0.28062 0.53175 0.0
H1023 H 0.54798 0.31202 0.53429 0.0
C1024 C 0.62054 0.29741 0.53424 0.0
C1025 C 0.65549 0.26749 0.52915 0.0
C1026 C 0.47639 0.2599 0.52139 0.0
C1027 C 0.56295 0.24594 0.52341 0.0
C1028 C 0.43613 0.25609 0.51251 0.0
C1029 C 0.43683 0.23092 0.4987 0.0
C1030 C 0.51711 0.238 0.51637 0.0
C1031 C 0.47725 0.20722 0.49469 0.0
C1032 C 0.57409 0.2868 0.53136 0.0
C1033 C 0.64257 0.22528 0.52251 0.0
N1034 N 0.51576 0.21159 0.50342 0.0
N1035 N 0.59746 0.21619 0.51958 0.0
H1036 H 0.31564 0.58402 0.50691 0.0
H1037 H 0.23832 0.36931 0.46149 0.0
H1038 H 0.19462 0.59073 0.47799 0.0
H1039 H 0.38318 0.39668 0.4689 0.0
H1040 H 0.2213 0.45075 0.46635 0.0
H1041 H 0.34183 0.51624 0.49265 0.0
C1042 C 0.2948 0.57131 0.49744 0.0
C1043 C 0.25264 0.59235 0.49371 0.0
C1044 C 0.25694 0.43928 0.46652 0.0
C1045 C 0.2821 0.51477 0.47749 0.0
C1046 C 0.26662 0.39292 0.46378 0.0
C1047 C 0.31212 0.37667 0.4649 0.0
C1048 C 0.2929 0.46905 0.47089 0.0
C1049 C 0.34769 0.40821 0.46793 0.0
C1050 C 0.30997 0.53297 0.48923 0.0
C1051 C 0.22721 0.57514 0.48123 0.0
N1052 N 0.33719 0.4529 0.47121 0.0
N1053 N 0.24184 0.53655 0.47374 0.0
H1054 H 0.58697 0.75689 0.51605 0.0
H1055 H 0.31959 0.81725 0.51575 0.0
H1056 H 0.51639 0.84139 0.48267 0.0
H1057 H 0.37631 0.69733 0.5383 0.0
H1058 H 0.3976 0.84715 0.51203 0.0
H1059 H 0.5162 0.75541 0.5318 0.0
C1060 C 0.55699 0.77633 0.51233 0.0
C1061 C 0.55674 0.7987 0.49803 0.0
C1062 C 0.39302 0.81473 0.51807 0.0
C1063 C 0.47684 0.79746 0.5158 0.0
C1064 C 0.34861 0.79761 0.52015 0.0
C1065 C 0.34194 0.75415 0.52689 0.0
C1066 C 0.43099 0.78774 0.52247 0.0
C1067 C 0.38034 0.73063 0.5328 0.0
C1068 C 0.51679 0.77534 0.52125 0.0
C1069 C 0.51739 0.82323 0.49356 0.0
N1070 N 0.42363 0.74721 0.53009 0.0
N1071 N 0.47878 0.82159 0.50236 0.0
H1072 H 0.13006 0.00905 0.31257 0.0
H1073 H 0.85769 0.97 0.3113 0.0
H1074 H 0.03013 0.11952 0.31002 0.0
H1075 H 0.95808 0.85968 0.31045 0.0
H1076 H 0.91981 0.02488 0.31639 0.0
H1077 H 0.0674 0.95463 0.31742 0.0
C1078 C 0.09502 0.02209 0.31327 0.0
C1079 C 0.08538 0.06896 0.31058 0.0
C1080 C 0.92818 0.98858 0.31532 0.0
C1081 C 0.01325 0.00642 0.31601 0.0
C1082 C 0.89267 0.95709 0.31242 0.0
C1083 C 0.90265 0.91008 0.31014 0.0
C1084 C 0.97414 0.97313 0.31588 0.0
C1085 C 0.94867 0.89557 0.31194 0.0
C1086 C 0.05919 0.99086 0.31602 0.0
C1087 C 0.03927 0.08371 0.31186 0.0
N1088 N 0.98275 0.92706 0.31447 0.0
N1089 N 0.00487 0.05243 0.31423 0.0
H1090 H 0.9709 0.11975 0.7069 0.0
H1091 H 0.02151 0.84777 0.70737 0.0
H1092 H 0.86382 0.01548 0.70649 0.0
H1093 H 0.12804 0.95251 0.70578 0.0
H1094 H 0.96302 0.90867 0.70698 0.0
H1095 H 0.02904 0.05868 0.70641 0.0
C1096 C 0.95955 0.0841 0.70666 0.0
C1097 C 0.91231 0.07286 0.70673 0.0
C1098 C -0.00077 0.91824 0.70668 0.0
C1099 C 0.97876 0.00271 0.70622 0.0
C1100 C 0.03265 0.88346 0.7069 0.0
C1101 C 0.07985 0.8949 0.70661 0.0
C1102 C 0.01309 0.96477 0.7062 0.0
C1103 C 0.09214 0.94186 0.70601 0.0
C1104 C 0.99279 0.04921 0.70639 0.0
C1105 C 0.89978 0.02593 0.70644 0.0
N1106 N 0.05901 0.97498 0.70586 0.0
N1107 N 0.93278 0.99265 0.70622 0.0
H1108 H 0.03389 0.37682 0.92661 0.0
H1109 H 0.96912 0.64228 0.93462 0.0
H1110 H 0.13443 0.48595 0.93247 0.0
H1111 H 0.86931 0.53151 0.93145 0.0
H1112 H 0.0303 0.58769 0.92801 0.0
H1113 H 0.97437 0.43485 0.92227 0.0
C1114 C 0.04373 0.41293 0.92671 0.0
C1115 C 0.08915 0.42644 0.93027 0.0
C1116 C 0.9949 0.57551 0.92854 0.0
C1117 C 0.02084 0.49316 0.9255 0.0
C1118 C 0.95987 0.6067 0.93229 0.0
C1119 C 0.91403 0.59133 0.93392 0.0
C1120 C 0.98402 0.52863 0.92643 0.0
C1121 C 0.90422 0.54484 0.93063 0.0
C1122 C 0.00961 0.44611 0.92426 0.0
C1123 C 0.09979 0.47381 0.93 0.0
N1124 N 0.93899 0.51507 0.92725 0.0
N1125 N 0.06571 0.50547 0.92797 0.0
H1126 H 0.36487 0.98201 0.07499 0.0
H1127 H 0.63629 0.02667 0.07223 0.0
H1128 H 0.46735 0.87418 0.07127 0.0
H1129 H 0.5337 0.13462 0.06955 0.0
H1130 H 0.57543 0.97137 0.07829 0.0
H1131 H 0.42649 0.03789 0.07952 0.0
C1132 C 0.40024 0.9698 0.07541 0.0
C1133 C 0.41088 0.92328 0.07241 0.0
C1134 C 0.56626 0.00726 0.07661 0.0
C1135 C 0.48174 0.98753 0.07749 0.0
C1136 C 0.60104 0.039 0.07314 0.0
C1137 C 0.59008 0.08537 0.07006 0.0
C1138 C 0.52001 0.02177 0.07694 0.0
C1139 C 0.54381 0.09922 0.07168 0.0
C1140 C 0.43545 0.00189 0.07797 0.0
C1141 C 0.4574 0.90966 0.07334 0.0
N1142 N 0.51038 0.0674 0.07477 0.0
N1143 N 0.49114 0.94177 0.07555 0.0
H1144 H 0.51895 0.62243 0.79 0.0
H1145 H 0.47216 0.3498 0.79006 0.0
H1146 H 0.62679 0.52004 0.79408 0.0
H1147 H 0.36357 0.45191 0.79239 0.0
H1148 H 0.52942 0.4119 0.79084 0.0
H1149 H 0.46139 0.56047 0.79021 0.0
C1150 C 0.53058 0.58702 0.79099 0.0
C1151 C 0.57788 0.57657 0.79203 0.0
C1152 C 0.49304 0.42067 0.79123 0.0
C1153 C 0.51213 0.50544 0.7922 0.0
C1154 C 0.4603 0.3852 0.79077 0.0
C1155 C 0.41288 0.39551 0.79118 0.0
C1156 C 0.47834 0.46685 0.79201 0.0
C1157 C 0.39968 0.44215 0.7921 0.0
C1158 C 0.49767 0.55164 0.79112 0.0
C1159 C 0.59078 0.52992 0.79328 0.0
N1160 N 0.4322 0.47603 0.79243 0.0
N1161 N 0.55815 0.49617 0.79328 0.0
H1162 H 0.35851 0.50891 0.17328 0.0
H1163 H 0.63112 0.47262 0.17488 0.0
H1164 H 0.45767 0.62008 0.17688 0.0
H1165 H 0.53162 0.36137 0.17682 0.0
H1166 H 0.56859 0.52654 0.16954 0.0
H1167 H 0.42163 0.4552 0.16847 0.0
C1168 C 0.39351 0.52226 0.17282 0.0
C1169 C 0.40278 0.5691 0.1758 0.0
C1170 C 0.56047 0.49025 0.1709 0.0
C1171 C 0.4754 0.50735 0.17038 0.0
C1172 C 0.5962 0.4593 0.17395 0.0
C1173 C 0.58661 0.41235 0.17661 0.0
C1174 C 0.51464 0.47434 0.17057 0.0
C1175 C 0.5407 0.39724 0.175 0.0
C1176 C 0.42957 0.49143 0.17008 0.0
C1177 C 0.44882 0.58429 0.17479 0.0
N1178 N 0.50634 0.42827 0.17233 0.0
N1179 N 0.48347 0.55336 0.17241 0.0
H1180 H 0.63205 0.96298 0.4398 0.0
H1181 H 0.36602 0.03695 0.44322 0.0
H1182 H 0.5172 0.86825 0.4356 0.0
H1183 H 0.47838 0.13545 0.44399 0.0
H1184 H 0.42174 0.97526 0.43907 0.0
H1185 H 0.57723 0.02749 0.43946 0.0
C1186 C 0.59547 0.95575 0.43855 0.0
C1187 C 0.57919 0.9101 0.43792 0.0
C1188 C 0.43427 0.01039 0.44008 0.0
C1189 C 0.51643 0.98349 0.43771 0.0
C1190 C 0.4024 0.04568 0.44252 0.0
C1191 C 0.41745 0.09152 0.44405 0.0
C1192 C 0.4817 0.0208 0.43926 0.0
C1193 C 0.46513 0.10063 0.44291 0.0
C1194 C 0.56418 0.99256 0.43844 0.0
C1195 C 0.53138 0.9028 0.43635 0.0
N1196 N 0.49559 0.06554 0.44067 0.0
N1197 N 0.50177 0.93902 0.43644 0.0
H1198 H 0.98922 0.35817 0.54496 0.0
H1199 H 0.02824 0.63072 0.55176 0.0
H1200 H 0.88025 0.45558 0.55501 0.0
H1201 H 0.13802 0.53398 0.542 0.0
H1202 H 0.9749 0.56626 0.55495 0.0
H1203 H 0.0453 0.42115 0.54598 0.0
C1204 C 0.97704 0.39267 0.54754 0.0
C1205 C 0.92971 0.40148 0.54979 0.0
C1206 C 0.0107 0.55907 0.5522 0.0
C1207 C 0.994 0.47396 0.55085 0.0
C1208 C 0.0413 0.59594 0.55036 0.0
C1209 C 0.08781 0.58794 0.54649 0.0
C1210 C 0.02649 0.51368 0.55012 0.0
C1211 C 0.10252 0.54195 0.54492 0.0
C1212 C 0.00917 0.42867 0.54809 0.0
C1213 C 0.91624 0.447 0.55313 0.0
N1214 N 0.07191 0.50661 0.54665 0.0
N1215 N 0.94815 0.48151 0.55343 0.0
loop_
_geom_bond_atom_site_label_1
_geom_bond_atom_site_label_2
_geom_bond_distance
_geom_bond_site_symmetry_2
_ccdc_geom_bond_type
Sc0 O3 2.025 . S
Sc0 O10 2.105 . S
Sc0 O13 2.105 . S
Sc0 O16 2.105 . S
Sc0 O19 2.105 . S
Sc1 O3 2.025 . S
Sc1 O11 2.105 . S
Sc1 O15 2.105 . S
Sc1 O17 2.105 . S
Sc1 O21 2.105 . S
Sc2 O3 2.025 . S
Sc2 O12 2.105 . S
Sc2 O14 2.105 . S
Sc2 O18 2.105 . S
Sc2 O20 2.105 . S
O3 Sc0 2.025 . S
O3 Sc1 2.025 . S
O3 Sc2 2.025 . S
C4 O10 1.268 . S
C4 O20 1.268 . S
C5 O11 1.268 . S
C5 O19 1.268 . S
C6 O12 1.268 . S
C6 O21 1.268 . S
C7 O13 1.268 . S
C7 O17 1.268 . S
C8 O14 1.268 . S
C8 O16 1.268 . S
C9 O15 1.268 . S
C9 O18 1.268 . S
O10 Sc0 2.105 . S
O10 C4 1.268 . S
O11 Sc1 2.105 . S
O11 C5 1.268 . S
O12 Sc2 2.105 . S
O12 C6 1.268 . S
O13 Sc0 2.105 . S
O13 C7 1.268 . S
O14 Sc2 2.105 . S
O14 C8 1.268 . S
O15 Sc1 2.105 . S
O15 C9 1.268 . S
O16 Sc0 2.105 . S
O16 C8 1.268 . S
O17 Sc1 2.105 . S
O17 C7 1.268 . S
O18 Sc2 2.105 . S
O18 C9 1.268 . S
O19 Sc0 2.105 . S
O19 C5 1.268 . S
O20 Sc2 2.105 . S
O20 C4 1.268 . S
O21 Sc1 2.105 . S
O21 C6 1.268 . S
Sc22 O25 2.025 . S
Sc22 O32 2.105 . S
Sc22 O35 2.105 . S
Sc22 O38 2.105 . S
Sc22 O41 2.105 . S
Sc23 O25 2.025 . S
Sc23 O33 2.105 . S
Sc23 O37 2.105 . S
Sc23 O39 2.105 . S
Sc23 O43 2.105 . S
Sc24 O25 2.025 . S
Sc24 O34 2.105 . S
Sc24 O36 2.105 . S
Sc24 O40 2.105 . S
Sc24 O42 2.105 . S
O25 Sc22 2.025 . S
O25 Sc23 2.025 . S
O25 Sc24 2.025 . S
C26 O32 1.268 . S
C26 O42 1.268 . S
C27 O33 1.268 . S
C27 O41 1.268 . S
C28 O34 1.268 . S
C28 O43 1.268 . S
C29 O35 1.268 . S
C29 O39 1.268 . S
C30 O36 1.268 . S
C30 O38 1.268 . S
C31 O37 1.268 . S
C31 O40 1.268 . S
O32 Sc22 2.105 . S
O32 C26 1.268 . S
O33 Sc23 2.105 . S
O33 C27 1.268 . S
O34 Sc24 2.105 . S
O34 C28 1.268 . S
O35 Sc22 2.105 . S
O35 C29 1.268 . S
O36 Sc24 2.105 . S
O36 C30 1.268 . S
O37 Sc23 2.105 . S
O37 C31 1.268 . S
O38 Sc22 2.105 . S
O38 C30 1.268 . S
O39 Sc23 2.105 . S
O39 C29 1.268 . S
O40 Sc24 2.105 . S
O40 C31 1.268 . S
O41 Sc22 2.105 . S
O41 C27 1.268 . S
O42 Sc24 2.105 . S
O42 C26 1.268 . S
O43 Sc23 2.105 . S
O43 C28 1.268 . S
Sc44 O47 2.025 . S
Sc44 O54 2.105 . S
Sc44 O57 2.105 . S
Sc44 O60 2.105 . S
Sc44 O63 2.105 . S
Sc45 O47 2.025 . S
Sc45 O55 2.105 . S
Sc45 O59 2.105 . S
Sc45 O61 2.105 . S
Sc45 O65 2.105 . S
Sc46 O47 2.025 . S
Sc46 O56 2.105 . S
Sc46 O58 2.105 . S
Sc46 O62 2.105 . S
Sc46 O64 2.105 . S
O47 Sc44 2.025 . S
O47 Sc45 2.025 . S
O47 Sc46 2.025 . S
C48 O54 1.268 . S
C48 O64 1.268 . S
C49 O55 1.268 . S
C49 O63 1.268 . S
C50 O56 1.268 . S
C50 O65 1.268 . S
C51 O57 1.268 . S
C51 O61 1.268 . S
C52 O58 1.268 . S
C52 O60 1.268 . S
C53 O59 1.268 . S
C53 O62 1.268 . S
O54 Sc44 2.105 . S
O54 C48 1.268 . S
O55 Sc45 2.105 . S
O55 C49 1.268 . S
O56 Sc46 2.105 . S
O56 C50 1.268 . S
O57 Sc44 2.105 . S
O57 C51 1.268 . S
O58 Sc46 2.105 . S
O58 C52 1.268 . S
O59 Sc45 2.105 . S
O59 C53 1.268 . S
O60 Sc44 2.105 . S
O60 C52 1.268 . S
O61 Sc45 2.105 . S
O61 C51 1.268 . S
O62 Sc46 2.105 . S
O62 C53 1.268 . S
O63 Sc44 2.105 . S
O63 C49 1.268 . S
O64 Sc46 2.105 . S
O64 C48 1.268 . S
O65 Sc45 2.105 . S
O65 C50 1.268 . S
Sc66 O69 2.025 . S
Sc66 O76 2.105 . S
Sc66 O79 2.105 . S
Sc66 O82 2.105 . S
Sc66 O85 2.105 . S
Sc67 O69 2.025 . S
Sc67 O77 2.105 . S
Sc67 O81 2.105 . S
Sc67 O83 2.105 . S
Sc67 O87 2.105 . S
Sc68 O69 2.025 . S
Sc68 O78 2.105 . S
Sc68 O80 2.105 . S
Sc68 O84 2.105 . S
Sc68 O86 2.105 . S
O69 Sc66 2.025 . S
O69 Sc67 2.025 . S
O69 Sc68 2.025 . S
C70 O76 1.268 . S
C70 O86 1.268 . S
C71 O77 1.268 . S
C71 O85 1.268 . S
C72 O78 1.268 . S
C72 O87 1.268 . S
C73 O79 1.268 . S
C73 O83 1.268 . S
C74 O80 1.268 . S
C74 O82 1.268 . S
C75 O81 1.268 . S
C75 O84 1.268 . S
O76 Sc66 2.105 . S
O76 C70 1.268 . S
O77 Sc67 2.105 . S
O77 C71 1.268 . S
O78 Sc68 2.105 . S
O78 C72 1.268 . S
O79 Sc66 2.105 . S
O79 C73 1.268 . S
O80 Sc68 2.105 . S
O80 C74 1.268 . S
O81 Sc67 2.105 . S
O81 C75 1.268 . S
O82 Sc66 2.105 . S
O82 C74 1.268 . S
O83 Sc67 2.105 . S
O83 C73 1.268 . S
O84 Sc68 2.105 . S
O84 C75 1.268 . S
O85 Sc66 2.105 . S
O85 C71 1.268 . S
O86 Sc68 2.105 . S
O86 C70 1.268 . S
O87 Sc67 2.105 . S
O87 C72 1.268 . S
Sc88 O91 2.025 . S
Sc88 O98 2.105 . S
Sc88 O101 2.105 . S
Sc88 O104 2.105 . S
Sc88 O107 2.105 . S
Sc89 O91 2.025 . S
Sc89 O99 2.105 . S
Sc89 O103 2.105 . S
Sc89 O105 2.105 . S
Sc89 O109 2.105 . S
Sc90 O91 2.025 . S
Sc90 O100 2.105 . S
Sc90 O102 2.105 . S
Sc90 O106 2.105 . S
Sc90 O108 2.105 . S
O91 Sc88 2.025 . S
O91 Sc89 2.025 . S
O91 Sc90 2.025 . S
C92 O98 1.268 . S
C92 O108 1.268 . S
C93 O99 1.268 . S
C93 O107 1.268 . S
C94 O100 1.268 . S
C94 O109 1.268 . S
C95 O101 1.268 . S
C95 O105 1.268 . S
C96 O102 1.268 . S
C96 O104 1.268 . S
C97 O103 1.268 . S
C97 O106 1.268 . S
O98 Sc88 2.105 . S
O98 C92 1.268 . S
O99 Sc89 2.105 . S
O99 C93 1.268 . S
O100 Sc90 2.105 . S
O100 C94 1.268 . S
O101 Sc88 2.105 . S
O101 C95 1.268 . S
O102 Sc90 2.105 . S
O102 C96 1.268 . S
O103 Sc89 2.105 . S
O103 C97 1.268 . S
O104 Sc88 2.105 . S
O104 C96 1.268 . S
O105 Sc89 2.105 . S
O105 C95 1.268 . S
O106 Sc90 2.105 . S
O106 C97 1.268 . S
O107 Sc88 2.105 . S
O107 C93 1.268 . S
O108 Sc90 2.105 . S
O108 C92 1.268 . S
O109 Sc89 2.105 . S
O109 C94 1.268 . S
Sc110 O113 2.025 . S
Sc110 O120 2.105 . S
Sc110 O123 2.105 . S
Sc110 O126 2.105 . S
Sc110 O129 2.105 . S
Sc111 O113 2.025 . S
Sc111 O121 2.105 . S
Sc111 O125 2.105 . S
Sc111 O127 2.105 . S
Sc111 O131 2.105 . S
Sc112 O113 2.025 . S
Sc112 O122 2.105 . S
Sc112 O124 2.105 . S
Sc112 O128 2.105 . S
Sc112 O130 2.105 . S
O113 Sc110 2.025 . S
O113 Sc111 2.025 . S
O113 Sc112 2.025 . S
C114 O120 1.268 . S
C114 O130 1.268 . S
C115 O121 1.268 . S
C115 O129 1.268 . S
C116 O122 1.268 . S
C116 O131 1.268 . S
C117 O123 1.268 . S
C117 O127 1.268 . S
C118 O124 1.268 . S
C118 O126 1.268 . S
C119 O125 1.268 . S
C119 O128 1.268 . S
O120 Sc110 2.105 . S
O120 C114 1.268 . S
O121 Sc111 2.105 . S
O121 C115 1.268 . S
O122 Sc112 2.105 . S
O122 C116 1.268 . S
O123 Sc110 2.105 . S
O123 C117 1.268 . S
O124 Sc112 2.105 . S
O124 C118 1.268 . S
O125 Sc111 2.105 . S
O125 C119 1.268 . S
O126 Sc110 2.105 . S
O126 C118 1.268 . S
O127 Sc111 2.105 . S
O127 C117 1.268 . S
O128 Sc112 2.105 . S
O128 C119 1.268 . S
O129 Sc110 2.105 . S
O129 C115 1.268 . S
O130 Sc112 2.105 . S
O130 C114 1.268 . S
O131 Sc111 2.105 . S
O131 C116 1.268 . S
Sc132 O135 2.025 . S
Sc132 O142 2.105 . S
Sc132 O145 2.105 . S
Sc132 O148 2.105 . S
Sc132 O151 2.105 . S
Sc133 O135 2.025 . S
Sc133 O143 2.105 . S
Sc133 O147 2.105 . S
Sc133 O149 2.105 . S
Sc133 O153 2.105 . S
Sc134 O135 2.025 . S
Sc134 O144 2.105 . S
Sc134 O146 2.105 . S
Sc134 O150 2.105 . S
Sc134 O152 2.105 . S
O135 Sc132 2.025 . S
O135 Sc133 2.025 . S
O135 Sc134 2.025 . S
C136 O142 1.268 . S
C136 O152 1.268 . S
C137 O143 1.268 . S
C137 O151 1.268 . S
C138 O144 1.268 . S
C138 O153 1.268 . S
C139 O145 1.268 . S
C139 O149 1.268 . S
C140 O146 1.268 . S
C140 O148 1.268 . S
C141 O147 1.268 . S
C141 O150 1.268 . S
O142 Sc132 2.105 . S
O142 C136 1.268 . S
O143 Sc133 2.105 . S
O143 C137 1.268 . S
O144 Sc134 2.105 . S
O144 C138 1.268 . S
O145 Sc132 2.105 . S
O145 C139 1.268 . S
O146 Sc134 2.105 . S
O146 C140 1.268 . S
O147 Sc133 2.105 . S
O147 C141 1.268 . S
O148 Sc132 2.105 . S
O148 C140 1.268 . S
O149 Sc133 2.105 . S
O149 C139 1.268 . S
O150 Sc134 2.105 . S
O150 C141 1.268 . S
O151 Sc132 2.105 . S
O151 C137 1.268 . S
O152 Sc134 2.105 . S
O152 C136 1.268 . S
O153 Sc133 2.105 . S
O153 C138 1.268 . S
Sc154 O157 2.025 . S
Sc154 O164 2.105 . S
Sc154 O167 2.105 . S
Sc154 O170 2.105 . S
Sc154 O173 2.105 . S
Sc155 O157 2.025 . S
Sc155 O165 2.105 . S
Sc155 O169 2.105 . S
Sc155 O171 2.105 . S
Sc155 O175 2.105 . S
Sc156 O157 2.025 . S
Sc156 O166 2.105 . S
Sc156 O168 2.105 . S
Sc156 O172 2.105 . S
Sc156 O174 2.105 . S
O157 Sc154 2.025 . S
O157 Sc155 2.025 . S
O157 Sc156 2.025 . S
C158 O164 1.268 . S
C158 O174 1.268 . S
C159 O165 1.268 . S
C159 O173 1.268 . S
C160 O166 1.268 . S
C160 O175 1.268 . S
C161 O167 1.268 . S
C161 O171 1.268 . S
C162 O168 1.268 . S
C162 O170 1.268 . S
C163 O169 1.268 . S
C163 O172 1.268 . S
O164 Sc154 2.105 . S
O164 C158 1.268 . S
O165 Sc155 2.105 . S
O165 C159 1.268 . S
O166 Sc156 2.105 . S
O166 C160 1.268 . S
O167 Sc154 2.105 . S
O167 C161 1.268 . S
O168 Sc156 2.105 . S
O168 C162 1.268 . S
O169 Sc155 2.105 . S
O169 C163 1.268 . S
O170 Sc154 2.105 . S
O170 C162 1.268 . S
O171 Sc155 2.105 . S
O171 C161 1.268 . S
O172 Sc156 2.105 . S
O172 C163 1.268 . S
O173 Sc154 2.105 . S
O173 C159 1.268 . S
O174 Sc156 2.105 . S
O174 C158 1.268 . S
O175 Sc155 2.105 . S
O175 C160 1.268 . S
Sc176 O179 2.025 . S
Sc176 O186 2.105 . S
Sc176 O189 2.105 . S
Sc176 O192 2.105 . S
Sc176 O195 2.105 . S
Sc177 O179 2.025 . S
Sc177 O187 2.105 . S
Sc177 O191 2.105 . S
Sc177 O193 2.105 . S
Sc177 O197 2.105 . S
Sc178 O179 2.025 . S
Sc178 O188 2.105 . S
Sc178 O190 2.105 . S
Sc178 O194 2.105 . S
Sc178 O196 2.105 . S
O179 Sc176 2.025 . S
O179 Sc177 2.025 . S
O179 Sc178 2.025 . S
C180 O186 1.268 . S
C180 O196 1.268 . S
C181 O187 1.268 . S
C181 O195 1.268 . S
C182 O188 1.268 . S
C182 O197 1.268 . S
C183 O189 1.268 . S
C183 O193 1.268 . S
C184 O190 1.268 . S
C184 O192 1.268 . S
C185 O191 1.268 . S
C185 O194 1.268 . S
O186 Sc176 2.105 . S
O186 C180 1.268 . S
O187 Sc177 2.105 . S
O187 C181 1.268 . S
O188 Sc178 2.105 . S
O188 C182 1.268 . S
O189 Sc176 2.105 . S
O189 C183 1.268 . S
O190 Sc178 2.105 . S
O190 C184 1.268 . S
O191 Sc177 2.105 . S
O191 C185 1.268 . S
O192 Sc176 2.105 . S
O192 C184 1.268 . S
O193 Sc177 2.105 . S
O193 C183 1.268 . S
O194 Sc178 2.105 . S
O194 C185 1.268 . S
O195 Sc176 2.105 . S
O195 C181 1.268 . S
O196 Sc178 2.105 . S
O196 C180 1.268 . S
O197 Sc177 2.105 . S
O197 C182 1.268 . S
Sc198 O201 2.025 . S
Sc198 O208 2.105 . S
Sc198 O211 2.105 . S
Sc198 O214 2.105 . S
Sc198 O217 2.105 . S
Sc199 O201 2.025 . S
Sc199 O209 2.105 . S
Sc199 O213 2.105 . S
Sc199 O215 2.105 . S
Sc199 O219 2.105 . S
Sc200 O201 2.025 . S
Sc200 O210 2.105 . S
Sc200 O212 2.105 . S
Sc200 O216 2.105 . S
Sc200 O218 2.105 . S
O201 Sc198 2.025 . S
O201 Sc199 2.025 . S
O201 Sc200 2.025 . S
C202 O208 1.268 . S
C202 O218 1.268 . S
C203 O209 1.268 . S
C203 O217 1.268 . S
C204 O210 1.268 . S
C204 O219 1.268 . S
C205 O211 1.268 . S
C205 O215 1.268 . S
C206 O212 1.268 . S
C206 O214 1.268 . S
C207 O213 1.268 . S
C207 O216 1.268 . S
O208 Sc198 2.105 . S
O208 C202 1.268 . S
O209 Sc199 2.105 . S
O209 C203 1.268 . S
O210 Sc200 2.105 . S
O210 C204 1.268 . S
O211 Sc198 2.105 . S
O211 C205 1.268 . S
O212 Sc200 2.105 . S
O212 C206 1.268 . S
O213 Sc199 2.105 . S
O213 C207 1.268 . S
O214 Sc198 2.105 . S
O214 C206 1.268 . S
O215 Sc199 2.105 . S
O215 C205 1.268 . S
O216 Sc200 2.105 . S
O216 C207 1.268 . S
O217 Sc198 2.105 . S
O217 C203 1.268 . S
O218 Sc200 2.105 . S
O218 C202 1.268 . S
O219 Sc199 2.105 . S
O219 C204 1.268 . S
Sc220 O223 2.025 . S
Sc220 O230 2.105 . S
Sc220 O233 2.105 . S
Sc220 O236 2.105 . S
Sc220 O239 2.105 . S
Sc221 O223 2.025 . S
Sc221 O231 2.105 . S
Sc221 O235 2.105 . S
Sc221 O237 2.105 . S
Sc221 O241 2.105 . S
Sc222 O223 2.025 . S
Sc222 O232 2.105 . S
Sc222 O234 2.105 . S
Sc222 O238 2.105 . S
Sc222 O240 2.105 . S
O223 Sc220 2.025 . S
O223 Sc221 2.025 . S
O223 Sc222 2.025 . S
C224 O230 1.268 . S
C224 O240 1.268 . S
C225 O231 1.268 . S
C225 O239 1.268 . S
C226 O232 1.268 . S
C226 O241 1.268 . S
C227 O233 1.268 . S
C227 O237 1.268 . S
C228 O234 1.268 . S
C228 O236 1.268 . S
C229 O235 1.268 . S
C229 O238 1.268 . S
O230 Sc220 2.105 . S
O230 C224 1.268 . S
O231 Sc221 2.105 . S
O231 C225 1.268 . S
O232 Sc222 2.105 . S
O232 C226 1.268 . S
O233 Sc220 2.105 . S
O233 C227 1.268 . S
O234 Sc222 2.105 . S
O234 C228 1.268 . S
O235 Sc221 2.105 . S
O235 C229 1.268 . S
O236 Sc220 2.105 . S
O236 C228 1.268 . S
O237 Sc221 2.105 . S
O237 C227 1.268 . S
O238 Sc222 2.105 . S
O238 C229 1.268 . S
O239 Sc220 2.105 . S
O239 C225 1.268 . S
O240 Sc222 2.105 . S
O240 C224 1.268 . S
O241 Sc221 2.105 . S
O241 C226 1.268 . S
Sc242 O245 2.025 . S
Sc242 O252 2.105 . S
Sc242 O255 2.105 . S
Sc242 O258 2.105 . S
Sc242 O261 2.105 . S
Sc243 O245 2.025 . S
Sc243 O253 2.105 . S
Sc243 O257 2.105 . S
Sc243 O259 2.105 . S
Sc243 O263 2.105 . S
Sc244 O245 2.025 . S
Sc244 O254 2.105 . S
Sc244 O256 2.105 . S
Sc244 O260 2.105 . S
Sc244 O262 2.105 . S
O245 Sc242 2.025 . S
O245 Sc243 2.025 . S
O245 Sc244 2.025 . S
C246 O252 1.268 . S
C246 O262 1.268 . S
C247 O253 1.268 . S
C247 O261 1.268 . S
C248 O254 1.268 . S
C248 O263 1.268 . S
C249 O255 1.268 . S
C249 O259 1.268 . S
C250 O256 1.268 . S
C250 O258 1.268 . S
C251 O257 1.268 . S
C251 O260 1.268 . S
O252 Sc242 2.105 . S
O252 C246 1.268 . S
O253 Sc243 2.105 . S
O253 C247 1.268 . S
O254 Sc244 2.105 . S
O254 C248 1.268 . S
O255 Sc242 2.105 . S
O255 C249 1.268 . S
O256 Sc244 2.105 . S
O256 C250 1.268 . S
O257 Sc243 2.105 . S
O257 C251 1.268 . S
O258 Sc242 2.105 . S
O258 C250 1.268 . S
O259 Sc243 2.105 . S
O259 C249 1.268 . S
O260 Sc244 2.105 . S
O260 C251 1.268 . S
O261 Sc242 2.105 . S
O261 C247 1.268 . S
O262 Sc244 2.105 . S
O262 C246 1.268 . S
O263 Sc243 2.105 . S
O263 C248 1.268 . S
Sc264 O267 2.025 . S
Sc264 O274 2.105 . S
Sc264 O277 2.105 . S
Sc264 O280 2.105 . S
Sc264 O283 2.105 . S
Sc265 O267 2.025 . S
Sc265 O275 2.105 . S
Sc265 O279 2.105 . S
Sc265 O281 2.105 . S
Sc265 O285 2.105 . S
Sc266 O267 2.025 . S
Sc266 O276 2.105 . S
Sc266 O278 2.105 . S
Sc266 O282 2.105 . S
Sc266 O284 2.105 . S
O267 Sc264 2.025 . S
O267 Sc265 2.025 . S
O267 Sc266 2.025 . S
C268 O274 1.268 . S
C268 O284 1.268 . S
C269 O275 1.268 . S
C269 O283 1.268 . S
C270 O276 1.268 . S
C270 O285 1.268 . S
C271 O277 1.268 . S
C271 O281 1.268 . S
C272 O278 1.268 . S
C272 O280 1.268 . S
C273 O279 1.268 . S
C273 O282 1.268 . S
O274 Sc264 2.105 . S
O274 C268 1.268 . S
O275 Sc265 2.105 . S
O275 C269 1.268 . S
O276 Sc266 2.105 . S
O276 C270 1.268 . S
O277 Sc264 2.105 . S
O277 C271 1.268 . S
O278 Sc266 2.105 . S
O278 C272 1.268 . S
O279 Sc265 2.105 . S
O279 C273 1.268 . S
O280 Sc264 2.105 . S
O280 C272 1.268 . S
O281 Sc265 2.105 . S
O281 C271 1.268 . S
O282 Sc266 2.105 . S
O282 C273 1.268 . S
O283 Sc264 2.105 . S
O283 C269 1.268 . S
O284 Sc266 2.105 . S
O284 C268 1.268 . S
O285 Sc265 2.105 . S
O285 C270 1.268 . S
Sc286 O289 2.025 . S
Sc286 O296 2.105 . S
Sc286 O299 2.105 . S
Sc286 O302 2.105 . S
Sc286 O305 2.105 . S
Sc287 O289 2.025 . S
Sc287 O297 2.105 . S
Sc287 O301 2.105 . S
Sc287 O303 2.105 . S
Sc287 O307 2.105 . S
Sc288 O289 2.025 . S
Sc288 O298 2.105 . S
Sc288 O300 2.105 . S
Sc288 O304 2.105 . S
Sc288 O306 2.105 . S
O289 Sc286 2.025 . S
O289 Sc287 2.025 . S
O289 Sc288 2.025 . S
C290 O296 1.268 . S
C290 O306 1.268 . S
C291 O297 1.268 . S
C291 O305 1.268 . S
C292 O298 1.268 . S
C292 O307 1.268 . S
C293 O299 1.268 . S
C293 O303 1.268 . S
C294 O300 1.268 . S
C294 O302 1.268 . S
C295 O301 1.268 . S
C295 O304 1.268 . S
O296 Sc286 2.105 . S
O296 C290 1.268 . S
O297 Sc287 2.105 . S
O297 C291 1.268 . S
O298 Sc288 2.105 . S
O298 C292 1.268 . S
O299 Sc286 2.105 . S
O299 C293 1.268 . S
O300 Sc288 2.105 . S
O300 C294 1.268 . S
O301 Sc287 2.105 . S
O301 C295 1.268 . S
O302 Sc286 2.105 . S
O302 C294 1.268 . S
O303 Sc287 2.105 . S
O303 C293 1.268 . S
O304 Sc288 2.105 . S
O304 C295 1.268 . S
O305 Sc286 2.105 . S
O305 C291 1.268 . S
O306 Sc288 2.105 . S
O306 C290 1.268 . S
O307 Sc287 2.105 . S
O307 C292 1.268 . S
Sc308 O311 2.025 . S
Sc308 O318 2.105 . S
Sc308 O321 2.105 . S
Sc308 O324 2.105 . S
Sc308 O327 2.105 . S
Sc309 O311 2.025 . S
Sc309 O319 2.105 . S
Sc309 O323 2.105 . S
Sc309 O325 2.105 . S
Sc309 O329 2.105 . S
Sc310 O311 2.025 . S
Sc310 O320 2.105 . S
Sc310 O322 2.105 . S
Sc310 O326 2.105 . S
Sc310 O328 2.105 . S
O311 Sc308 2.025 . S
O311 Sc309 2.025 . S
O311 Sc310 2.025 . S
C312 O318 1.268 . S
C312 O328 1.268 . S
C313 O319 1.268 . S
C313 O327 1.268 . S
C314 O320 1.268 . S
C314 O329 1.268 . S
C315 O321 1.268 . S
C315 O325 1.268 . S
C316 O322 1.268 . S
C316 O324 1.268 . S
C317 O323 1.268 . S
C317 O326 1.268 . S
O318 Sc308 2.105 . S
O318 C312 1.268 . S
O319 Sc309 2.105 . S
O319 C313 1.268 . S
O320 Sc310 2.105 . S
O320 C314 1.268 . S
O321 Sc308 2.105 . S
O321 C315 1.268 . S
O322 Sc310 2.105 . S
O322 C316 1.268 . S
O323 Sc309 2.105 . S
O323 C317 1.268 . S
O324 Sc308 2.105 . S
O324 C316 1.268 . S
O325 Sc309 2.105 . S
O325 C315 1.268 . S
O326 Sc310 2.105 . S
O326 C317 1.268 . S
O327 Sc308 2.105 . S
O327 C313 1.268 . S
O328 Sc310 2.105 . S
O328 C312 1.268 . S
O329 Sc309 2.105 . S
O329 C314 1.268 . S
Sc330 O333 2.025 . S
Sc330 O340 2.105 . S
Sc330 O343 2.105 . S
Sc330 O346 2.105 . S
Sc330 O349 2.105 . S
Sc331 O333 2.025 . S
Sc331 O341 2.105 . S
Sc331 O345 2.105 . S
Sc331 O347 2.105 . S
Sc331 O351 2.105 . S
Sc332 O333 2.025 . S
Sc332 O342 2.105 . S
Sc332 O344 2.105 . S
Sc332 O348 2.105 . S
Sc332 O350 2.105 . S
O333 Sc330 2.025 . S
O333 Sc331 2.025 . S
O333 Sc332 2.025 . S
C334 O340 1.268 . S
C334 O350 1.268 . S
C335 O341 1.268 . S
C335 O349 1.268 . S
C336 O342 1.268 . S
C336 O351 1.268 . S
C337 O343 1.268 . S
C337 O347 1.268 . S
C338 O344 1.268 . S
C338 O346 1.268 . S
C339 O345 1.268 . S
C339 O348 1.268 . S
O340 Sc330 2.105 . S
O340 C334 1.268 . S
O341 Sc331 2.105 . S
O341 C335 1.268 . S
O342 Sc332 2.105 . S
O342 C336 1.268 . S
O343 Sc330 2.105 . S
O343 C337 1.268 . S
O344 Sc332 2.105 . S
O344 C338 1.268 . S
O345 Sc331 2.105 . S
O345 C339 1.268 . S
O346 Sc330 2.105 . S
O346 C338 1.268 . S
O347 Sc331 2.105 . S
O347 C337 1.268 . S
O348 Sc332 2.105 . S
O348 C339 1.268 . S
O349 Sc330 2.105 . S
O349 C335 1.268 . S
O350 Sc332 2.105 . S
O350 C334 1.268 . S
O351 Sc331 2.105 . S
O351 C336 1.268 . S
H352 C358 0.930 . S
H353 C362 0.930 . S
H354 C367 0.929 . S
H355 C365 0.929 . S
H356 C360 0.934 . S
H357 C366 0.929 . S
C358 H352 0.930 . S
C358 C359 1.367 . S
C358 C366 1.378 . S
C359 C358 1.367 . S
C359 C367 1.433 . S
C360 H356 0.934 . S
C360 C362 1.378 . S
C360 C364 1.350 1_545 S
C361 C364 1.463 . S
C361 C366 1.350 . S
C361 N369 1.427 . S
C362 H353 0.930 . S
C362 C360 1.378 . S
C362 C363 1.367 . S
C363 C362 1.367 . S
C363 C365 1.433 . S
C364 C360 1.350 1_565 S
C364 C361 1.463 . S
C364 N368 1.432 . S
C365 H355 0.929 . S
C365 C363 1.433 . S
C365 N368 1.371 1_545 S
C366 H357 0.929 . S
C366 C358 1.378 . S
C366 C361 1.350 . S
C367 H354 0.929 . S
C367 C359 1.433 . S
C367 N369 1.384 . S
N368 C364 1.432 . S
N368 C365 1.371 1_565 S
N369 C361 1.427 . S
N369 C367 1.384 . S
H370 C376 0.930 . S
H371 C380 0.930 . S
H372 C385 0.929 . S
H373 C383 0.929 . S
H374 C378 0.929 . S
H375 C384 0.929 . S
C376 H370 0.930 . S
C376 C377 1.367 . S
C376 C384 1.378 . S
C377 C376 1.367 . S
C377 C385 1.433 . S
C378 H374 0.929 . S
C378 C380 1.378 . S
C378 C382 1.350 . S
C379 C382 1.463 . S
C379 C384 1.350 1_655 S
C379 N387 1.427 . S
C380 H371 0.930 . S
C380 C378 1.378 . S
C380 C381 1.367 . S
C381 C380 1.367 . S
C381 C383 1.433 . S
C382 C378 1.350 . S
C382 C379 1.463 . S
C382 N386 1.427 . S
C383 H373 0.929 . S
C383 C381 1.433 . S
C383 N386 1.384 . S
C384 H375 0.929 . S
C384 C376 1.378 . S
C384 C379 1.350 1_455 S
C385 H372 0.929 . S
C385 C377 1.433 . S
C385 N387 1.384 1_455 S
N386 C382 1.427 . S
N386 C383 1.384 . S
N387 C379 1.427 . S
N387 C385 1.384 1_655 S
H388 C394 0.930 . S
H389 C398 0.930 . S
H390 C403 0.929 . S
H391 C401 0.929 . S
H392 C396 0.929 . S
H393 C402 0.929 . S
C394 H388 0.930 . S
C394 C395 1.367 . S
C394 C402 1.378 . S
C395 C394 1.367 . S
C395 C403 1.433 . S
C396 H392 0.929 . S
C396 C398 1.378 . S
C396 C400 1.350 . S
C397 C400 1.463 . S
C397 C402 1.350 1_545 S
C397 N405 1.427 . S
C398 H389 0.930 . S
C398 C396 1.378 . S
C398 C399 1.367 . S
C399 C398 1.367 . S
C399 C401 1.433 . S
C400 C396 1.350 . S
C400 C397 1.463 . S
C400 N404 1.427 . S
C401 H391 0.929 . S
C401 C399 1.433 . S
C401 N404 1.384 . S
C402 H393 0.929 . S
C402 C394 1.378 . S
C402 C397 1.350 1_565 S
C403 H390 0.929 . S
C403 C395 1.433 . S
C403 N405 1.384 1_565 S
N404 C400 1.427 . S
N404 C401 1.384 . S
N405 C397 1.427 . S
N405 C403 1.384 1_545 S
H406 C412 0.930 . S
H407 C416 0.930 . S
H408 C421 0.929 . S
H409 C419 0.929 . S
H410 C414 0.936 . S
H411 C420 0.929 . S
C412 H406 0.930 . S
C412 C413 1.367 . S
C412 C420 1.378 . S
C413 C412 1.367 . S
C413 C421 1.433 . S
C414 H410 0.936 . S
C414 C416 1.366 1_455 S
C414 C418 1.354 . S
C415 C418 1.463 . S
C415 C420 1.350 . S
C415 N423 1.427 . S
C416 H407 0.930 . S
C416 C414 1.366 1_655 S
C416 C417 1.367 . S
C417 C416 1.367 . S
C417 C419 1.433 . S
C418 C414 1.354 . S
C418 C415 1.463 . S
C418 N422 1.427 1_455 S
C419 H409 0.929 . S
C419 C417 1.433 . S
C419 N422 1.384 . S
C420 H411 0.929 . S
C420 C412 1.378 . S
C420 C415 1.350 . S
C421 H408 0.929 . S
C421 C413 1.433 . S
C421 N423 1.384 . S
N422 C418 1.427 1_655 S
N422 C419 1.384 . S
N423 C415 1.427 . S
N423 C421 1.384 . S
H424 C430 0.930 . S
H425 C434 0.930 . S
H426 C439 0.929 . S
H427 C437 0.929 . S
H428 C432 0.929 . S
H429 C438 0.929 . S
C430 H424 0.930 . S
C430 C431 1.367 1_554 S
C430 C438 1.378 . S
C431 C430 1.367 1_556 S
C431 C439 1.433 . S
C432 H428 0.929 . S
C432 C434 1.378 . S
C432 C436 1.350 . S
C433 C436 1.463 . S
C433 C438 1.350 . S
C433 N441 1.458 . S
C434 H425 0.930 . S
C434 C432 1.378 . S
C434 C435 1.367 . S
C435 C434 1.367 . S
C435 C437 1.433 . S
C436 C432 1.350 . S
C436 C433 1.463 . S
C436 N440 1.427 . S
C437 H427 0.929 . S
C437 C435 1.433 . S
C437 N440 1.384 . S
C438 H429 0.929 . S
C438 C430 1.378 . S
C438 C433 1.350 . S
C439 H426 0.929 . S
C439 C431 1.433 . S
C439 N441 1.365 1_556 S
N440 C436 1.427 . S
N440 C437 1.384 . S
N441 C433 1.458 . S
N441 C439 1.365 1_554 S
H442 C448 0.930 . S
H443 C452 0.930 . S
H444 C457 0.929 . S
H445 C455 0.929 . S
H446 C450 0.929 . S
H447 C456 0.929 . S
C448 H442 0.930 . S
C448 C449 1.367 . S
C448 C456 1.378 . S
C449 C448 1.367 . S
C449 C457 1.433 1_554 S
C450 H446 0.929 . S
C450 C452 1.378 . S
C450 C454 1.350 . S
C451 C454 1.463 . S
C451 C456 1.350 1_556 S
C451 N459 1.427 . S
C452 H443 0.930 . S
C452 C450 1.378 . S
C452 C453 1.367 . S
C453 C452 1.367 . S
C453 C455 1.433 . S
C454 C450 1.350 . S
C454 C451 1.463 . S
C454 N458 1.427 . S
C455 H445 0.929 . S
C455 C453 1.433 . S
C455 N458 1.384 . S
C456 H447 0.929 . S
C456 C448 1.378 . S
C456 C451 1.350 1_554 S
C457 H444 0.929 . S
C457 C449 1.433 1_556 S
C457 N459 1.384 . S
N458 C454 1.427 . S
N458 C455 1.384 . S
N459 C451 1.427 . S
N459 C457 1.384 . S
H460 C466 0.930 . S
H461 C470 0.930 . S
H462 C475 0.929 . S
H463 C473 0.929 . S
H464 C468 0.929 . S
H465 C474 0.929 . S
C466 H460 0.930 . S
C466 C467 1.367 . S
C466 C474 1.378 . S
C467 C466 1.367 . S
C467 C475 1.433 . S
C468 H464 0.929 . S
C468 C470 1.378 . S
C468 C472 1.350 . S
C469 C472 1.463 . S
C469 C474 1.350 . S
C469 N477 1.427 . S
C470 H461 0.930 . S
C470 C468 1.378 . S
C470 C471 1.367 1_554 S
C471 C470 1.367 1_556 S
C471 C473 1.433 . S
C472 C468 1.350 . S
C472 C469 1.463 . S
C472 N476 1.427 . S
C473 H463 0.929 . S
C473 C471 1.433 . S
C473 N476 1.384 1_556 S
C474 H465 0.929 . S
C474 C466 1.378 . S
C474 C469 1.350 . S
C475 H462 0.929 . S
C475 C467 1.433 . S
C475 N477 1.384 . S
N476 C472 1.427 . S
N476 C473 1.384 1_554 S
N477 C469 1.427 . S
N477 C475 1.384 . S
H478 C484 0.930 . S
H479 C488 0.930 . S
H480 C493 0.929 . S
H481 C491 0.929 . S
H482 C486 0.929 . S
H483 C492 0.929 . S
C484 H478 0.930 . S
C484 C485 1.367 . S
C484 C492 1.378 . S
C485 C484 1.367 . S
C485 C493 1.433 . S
C486 H482 0.929 . S
C486 C488 1.378 . S
C486 C490 1.350 1_554 S
C487 C490 1.463 . S
C487 C492 1.350 . S
C487 N495 1.427 . S
C488 H479 0.930 . S
C488 C486 1.378 . S
C488 C489 1.367 . S
C489 C488 1.367 . S
C489 C491 1.433 1_554 S
C490 C486 1.350 1_556 S
C490 C487 1.463 . S
C490 N494 1.427 . S
C491 H481 0.929 . S
C491 C489 1.433 1_556 S
C491 N494 1.384 . S
C492 H483 0.929 . S
C492 C484 1.378 . S
C492 C487 1.350 . S
C493 H480 0.929 . S
C493 C485 1.433 . S
C493 N495 1.384 . S
N494 C490 1.427 . S
N494 C491 1.384 . S
N495 C487 1.427 . S
N495 C493 1.384 . S
H496 C502 0.930 . S
H497 C506 0.930 . S
H498 C511 0.929 . S
H499 C509 0.929 . S
H500 C504 0.929 . S
H501 C510 0.929 . S
C502 H496 0.930 . S
C502 C503 1.367 . S
C502 C510 1.378 . S
C503 C502 1.367 . S
C503 C511 1.433 . S
C504 H500 0.929 . S
C504 C506 1.378 . S
C504 C508 1.350 . S
C505 C508 1.463 . S
C505 C510 1.350 . S
C505 N513 1.427 . S
C506 H497 0.930 . S
C506 C504 1.378 . S
C506 C507 1.367 . S
C507 C506 1.367 . S
C507 C509 1.433 . S
C508 C504 1.350 . S
C508 C505 1.463 . S
C508 N512 1.427 . S
C509 H499 0.929 . S
C509 C507 1.433 . S
C509 N512 1.384 . S
C510 H501 0.929 . S
C510 C502 1.378 . S
C510 C505 1.350 . S
C511 H498 0.929 . S
C511 C503 1.433 . S
C511 N513 1.384 . S
N512 C508 1.427 . S
N512 C509 1.384 . S
N513 C505 1.427 . S
N513 C511 1.384 . S
H514 C520 0.930 . S
H515 C524 0.930 . S
H516 C529 0.929 . S
H517 C527 0.929 . S
H518 C522 0.929 . S
H519 C528 0.929 . S
C520 H514 0.930 . S
C520 C521 1.367 . S
C520 C528 1.378 . S
C521 C520 1.367 . S
C521 C529 1.433 . S
C522 H518 0.929 . S
C522 C524 1.378 . S
C522 C526 1.350 . S
C523 C526 1.463 . S
C523 C528 1.350 . S
C523 N531 1.427 . S
C524 H515 0.930 . S
C524 C522 1.378 . S
C524 C525 1.367 . S
C525 C524 1.367 . S
C525 C527 1.433 . S
C526 C522 1.350 . S
C526 C523 1.463 . S
C526 N530 1.427 . S
C527 H517 0.929 . S
C527 C525 1.433 . S
C527 N530 1.384 . S
C528 H519 0.929 . S
C528 C520 1.378 . S
C528 C523 1.350 . S
C529 H516 0.929 . S
C529 C521 1.433 . S
C529 N531 1.384 . S
N530 C526 1.427 . S
N530 C527 1.384 . S
N531 C523 1.427 . S
N531 C529 1.384 . S
H532 C538 0.930 . S
H533 C542 0.930 . S
H534 C547 0.929 . S
H535 C545 0.929 . S
H536 C540 0.929 . S
H537 C546 0.929 . S
C538 H532 0.930 . S
C538 C539 1.367 . S
C538 C546 1.378 . S
C539 C538 1.367 . S
C539 C547 1.433 . S
C540 H536 0.929 . S
C540 C542 1.378 . S
C540 C544 1.350 . S
C541 C544 1.463 . S
C541 C546 1.350 . S
C541 N549 1.427 . S
C542 H533 0.930 . S
C542 C540 1.378 . S
C542 C543 1.367 . S
C543 C542 1.367 . S
C543 C545 1.433 . S
C544 C540 1.350 . S
C544 C541 1.463 . S
C544 N548 1.427 . S
C545 H535 0.929 . S
C545 C543 1.433 . S
C545 N548 1.384 . S
C546 H537 0.929 . S
C546 C538 1.378 . S
C546 C541 1.350 . S
C547 H534 0.929 . S
C547 C539 1.433 . S
C547 N549 1.384 . S
N548 C544 1.427 . S
N548 C545 1.384 . S
N549 C541 1.427 . S
N549 C547 1.384 . S
H550 C556 0.930 . S
H551 C560 0.930 . S
H552 C565 0.929 . S
H553 C563 0.929 . S
H554 C558 0.929 . S
H555 C564 0.929 . S
C556 H550 0.930 . S
C556 C557 1.367 . S
C556 C564 1.378 . S
C557 C556 1.367 . S
C557 C565 1.433 . S
C558 H554 0.929 . S
C558 C560 1.378 . S
C558 C562 1.350 . S
C559 C562 1.463 . S
C559 C564 1.350 . S
C559 N567 1.427 . S
C560 H551 0.930 . S
C560 C558 1.378 . S
C560 C561 1.367 . S
C561 C560 1.367 . S
C561 C563 1.433 . S
C562 C558 1.350 . S
C562 C559 1.463 . S
C562 N566 1.427 . S
C563 H553 0.929 . S
C563 C561 1.433 . S
C563 N566 1.384 . S
C564 H555 0.929 . S
C564 C556 1.378 . S
C564 C559 1.350 . S
C565 H552 0.929 . S
C565 C557 1.433 . S
C565 N567 1.384 . S
N566 C562 1.427 . S
N566 C563 1.384 . S
N567 C559 1.427 . S
N567 C565 1.384 . S
H568 C574 0.930 . S
H569 C578 0.930 . S
H570 C583 0.929 . S
H571 C581 0.929 . S
H572 C576 0.929 . S
H573 C582 0.929 1_545 S
C574 H568 0.930 . S
C574 C575 1.367 . S
C574 C582 1.378 . S
C575 C574 1.367 . S
C575 C583 1.433 . S
C576 H572 0.929 . S
C576 C578 1.378 . S
C576 C580 1.350 . S
C577 C580 1.463 . S
C577 C582 1.350 1_545 S
C577 N585 1.427 1_545 S
C578 H569 0.930 . S
C578 C576 1.378 . S
C578 C579 1.367 . S
C579 C578 1.367 . S
C579 C581 1.433 . S
C580 C576 1.350 . S
C580 C577 1.463 . S
C580 N584 1.427 . S
C581 H571 0.929 . S
C581 C579 1.433 . S
C581 N584 1.384 . S
C582 H573 0.929 1_565 S
C582 C574 1.378 . S
C582 C577 1.350 1_565 S
C583 H570 0.929 . S
C583 C575 1.433 . S
C583 N585 1.384 . S
N584 C580 1.427 . S
N584 C581 1.384 . S
N585 C577 1.427 1_565 S
N585 C583 1.384 . S
H586 C592 0.930 . S
H587 C596 0.930 . S
H588 C601 0.929 . S
H589 C599 0.929 . S
H590 C594 0.929 . S
H591 C600 0.929 . S
C592 H586 0.930 . S
C592 C593 1.367 . S
C592 C600 1.378 . S
C593 C592 1.367 . S
C593 C601 1.433 . S
C594 H590 0.929 . S
C594 C596 1.378 . S
C594 C598 1.350 1_655 S
C595 C598 1.463 . S
C595 C600 1.350 . S
C595 N603 1.427 . S
C596 H587 0.930 . S
C596 C594 1.378 . S
C596 C597 1.367 . S
C597 C596 1.367 . S
C597 C599 1.433 . S
C598 C594 1.350 1_455 S
C598 C595 1.463 . S
C598 N602 1.427 . S
C599 H589 0.929 . S
C599 C597 1.433 . S
C599 N602 1.384 1_655 S
C600 H591 0.929 . S
C600 C592 1.378 . S
C600 C595 1.350 . S
C601 H588 0.929 . S
C601 C593 1.433 . S
C601 N603 1.384 . S
N602 C598 1.427 . S
N602 C599 1.384 1_455 S
N603 C595 1.427 . S
N603 C601 1.384 . S
H604 C610 0.930 . S
H605 C614 0.930 . S
H606 C619 0.929 . S
H607 C617 0.929 . S
H608 C612 0.929 1_565 S
H609 C618 0.929 . S
C610 H604 0.930 . S
C610 C611 1.367 . S
C610 C618 1.378 . S
C611 C610 1.367 . S
C611 C619 1.433 . S
C612 H608 0.929 1_545 S
C612 C614 1.378 . S
C612 C616 1.350 1_545 S
C613 C616 1.463 . S
C613 C618 1.350 . S
C613 N621 1.427 . S
C614 H605 0.930 . S
C614 C612 1.378 . S
C614 C615 1.367 . S
C615 C614 1.367 . S
C615 C617 1.433 . S
C616 C612 1.350 1_565 S
C616 C613 1.463 . S
C616 N620 1.427 1_565 S
C617 H607 0.929 . S
C617 C615 1.433 . S
C617 N620 1.384 . S
C618 H609 0.929 . S
C618 C610 1.378 . S
C618 C613 1.350 . S
C619 H606 0.929 . S
C619 C611 1.433 . S
C619 N621 1.384 . S
N620 C616 1.427 1_545 S
N620 C617 1.384 . S
N621 C613 1.427 . S
N621 C619 1.384 . S
H622 C628 0.930 . S
H623 C632 0.930 . S
H624 C637 0.929 . S
H625 C635 0.929 . S
H626 C630 0.929 . S
H627 C636 0.929 . S
C628 H622 0.930 . S
C628 C629 1.367 . S
C628 C636 1.378 . S
C629 C628 1.367 . S
C629 C637 1.433 . S
C630 H626 0.929 . S
C630 C632 1.378 . S
C630 C634 1.350 . S
C631 C634 1.463 . S
C631 C636 1.350 1_655 S
C631 N639 1.427 . S
C632 H623 0.930 . S
C632 C630 1.378 . S
C632 C633 1.367 . S
C633 C632 1.367 . S
C633 C635 1.433 . S
C634 C630 1.350 . S
C634 C631 1.463 . S
C634 N638 1.427 . S
C635 H625 0.929 . S
C635 C633 1.433 . S
C635 N638 1.384 . S
C636 H627 0.929 . S
C636 C628 1.378 . S
C636 C631 1.350 1_455 S
C637 H624 0.929 . S
C637 C629 1.433 . S
C637 N639 1.384 1_455 S
N638 C634 1.427 . S
N638 C635 1.384 . S
N639 C631 1.427 . S
N639 C637 1.384 1_655 S
H640 C646 0.930 . S
H641 C650 0.930 . S
H642 C655 0.929 . S
H643 C653 0.929 . S
H644 C648 0.929 . S
H645 C654 0.929 . S
C646 H640 0.930 . S
C646 C647 1.367 . S
C646 C654 1.378 . S
C647 C646 1.367 . S
C647 C655 1.433 . S
C648 H644 0.929 . S
C648 C650 1.378 . S
C648 C652 1.350 . S
C649 C652 1.463 . S
C649 C654 1.350 . S
C649 N657 1.427 . S
C650 H641 0.930 . S
C650 C648 1.378 . S
C650 C651 1.367 . S
C651 C650 1.367 . S
C651 C653 1.433 . S
C652 C648 1.350 . S
C652 C649 1.463 . S
C652 N656 1.427 . S
C653 H643 0.929 . S
C653 C651 1.433 . S
C653 N656 1.384 . S
C654 H645 0.929 . S
C654 C646 1.378 . S
C654 C649 1.350 . S
C655 H642 0.929 . S
C655 C647 1.433 . S
C655 N657 1.384 . S
N656 C652 1.427 . S
N656 C653 1.384 . S
N657 C649 1.427 . S
N657 C655 1.384 . S
H658 C664 0.930 . S
H659 C668 0.930 . S
H660 C673 0.929 . S
H661 C671 0.929 . S
H662 C666 0.929 . S
H663 C672 0.929 . S
C664 H658 0.930 . S
C664 C665 1.367 . S
C664 C672 1.378 . S
C665 C664 1.367 . S
C665 C673 1.433 . S
C666 H662 0.929 . S
C666 C668 1.378 . S
C666 C670 1.350 . S
C667 C670 1.463 . S
C667 C672 1.350 . S
C667 N675 1.427 . S
C668 H659 0.930 . S
C668 C666 1.378 . S
C668 C669 1.367 . S
C669 C668 1.367 . S
C669 C671 1.433 . S
C670 C666 1.350 . S
C670 C667 1.463 . S
C670 N674 1.427 . S
C671 H661 0.929 . S
C671 C669 1.433 . S
C671 N674 1.384 . S
C672 H663 0.929 . S
C672 C664 1.378 . S
C672 C667 1.350 . S
C673 H660 0.929 . S
C673 C665 1.433 . S
C673 N675 1.384 . S
N674 C670 1.427 . S
N674 C671 1.384 . S
N675 C667 1.427 . S
N675 C673 1.384 . S
H676 C682 0.930 . S
H677 C686 0.930 . S
H678 C691 0.929 . S
H679 C689 0.929 . S
H680 C684 0.929 . S
H681 C690 0.929 . S
C682 H676 0.930 . S
C682 C683 1.367 . S
C682 C690 1.378 . S
C683 C682 1.367 . S
C683 C691 1.433 . S
C684 H680 0.929 . S
C684 C686 1.378 . S
C684 C688 1.350 . S
C685 C688 1.463 . S
C685 C690 1.350 . S
C685 N693 1.427 . S
C686 H677 0.930 . S
C686 C684 1.378 . S
C686 C687 1.367 . S
C687 C686 1.367 . S
C687 C689 1.433 . S
C688 C684 1.350 . S
C688 C685 1.463 . S
C688 N692 1.427 . S
C689 H679 0.929 . S
C689 C687 1.433 . S
C689 N692 1.384 . S
C690 H681 0.929 . S
C690 C682 1.378 . S
C690 C685 1.350 . S
C691 H678 0.929 . S
C691 C683 1.433 . S
C691 N693 1.384 . S
N692 C688 1.427 . S
N692 C689 1.384 . S
N693 C685 1.427 . S
N693 C691 1.384 . S
H694 C700 0.930 . S
H695 C704 0.930 . S
H696 C709 0.929 . S
H697 C707 0.929 . S
H698 C702 0.929 . S
H699 C708 0.929 . S
C700 H694 0.930 . S
C700 C701 1.367 . S
C700 C708 1.378 . S
C701 C700 1.367 . S
C701 C709 1.433 . S
C702 H698 0.929 . S
C702 C704 1.378 . S
C702 C706 1.350 . S
C703 C706 1.463 . S
C703 C708 1.350 . S
C703 N711 1.427 . S
C704 H695 0.930 . S
C704 C702 1.378 . S
C704 C705 1.367 . S
C705 C704 1.367 . S
C705 C707 1.433 . S
C706 C702 1.350 . S
C706 C703 1.463 . S
C706 N710 1.427 . S
C707 H697 0.929 . S
C707 C705 1.433 . S
C707 N710 1.384 . S
C708 H699 0.929 . S
C708 C700 1.378 . S
C708 C703 1.350 . S
C709 H696 0.929 . S
C709 C701 1.433 . S
C709 N711 1.384 . S
N710 C706 1.427 . S
N710 C707 1.384 . S
N711 C703 1.427 . S
N711 C709 1.384 . S
H712 C718 0.930 . S
H713 C722 0.930 . S
H714 C727 0.929 . S
H715 C725 0.929 . S
H716 C720 0.929 . S
H717 C726 0.929 . S
C718 H712 0.930 . S
C718 C719 1.367 . S
C718 C726 1.378 . S
C719 C718 1.367 . S
C719 C727 1.433 . S
C720 H716 0.929 . S
C720 C722 1.378 . S
C720 C724 1.350 . S
C721 C724 1.463 . S
C721 C726 1.350 . S
C721 N729 1.427 . S
C722 H713 0.930 . S
C722 C720 1.378 . S
C722 C723 1.367 . S
C723 C722 1.367 . S
C723 C725 1.433 . S
C724 C720 1.350 . S
C724 C721 1.463 . S
C724 N728 1.427 . S
C725 H715 0.929 . S
C725 C723 1.433 . S
C725 N728 1.384 . S
C726 H717 0.929 . S
C726 C718 1.378 . S
C726 C721 1.350 . S
C727 H714 0.929 . S
C727 C719 1.433 . S
C727 N729 1.384 . S
N728 C724 1.427 . S
N728 C725 1.384 . S
N729 C721 1.427 . S
N729 C727 1.384 . S
H730 C736 0.930 . S
H731 C740 0.930 . S
H732 C745 0.929 . S
H733 C743 0.929 . S
H734 C738 0.929 . S
H735 C744 0.929 . S
C736 H730 0.930 . S
C736 C737 1.367 . S
C736 C744 1.378 . S
C737 C736 1.367 . S
C737 C745 1.433 . S
C738 H734 0.929 . S
C738 C740 1.378 . S
C738 C742 1.350 . S
C739 C742 1.463 . S
C739 C744 1.350 . S
C739 N747 1.427 . S
C740 H731 0.930 . S
C740 C738 1.378 . S
C740 C741 1.367 . S
C741 C740 1.367 . S
C741 C743 1.433 . S
C742 C738 1.350 . S
C742 C739 1.463 . S
C742 N746 1.427 . S
C743 H733 0.929 . S
C743 C741 1.433 . S
C743 N746 1.384 . S
C744 H735 0.929 . S
C744 C736 1.378 . S
C744 C739 1.350 . S
C745 H732 0.929 . S
C745 C737 1.433 . S
C745 N747 1.384 . S
N746 C742 1.427 . S
N746 C743 1.384 . S
N747 C739 1.427 . S
N747 C745 1.384 . S
H748 C754 0.930 . S
H749 C758 0.930 . S
H750 C763 0.929 . S
H751 C761 0.929 . S
H752 C756 0.929 . S
H753 C762 0.929 . S
C754 H748 0.930 . S
C754 C755 1.367 . S
C754 C762 1.378 . S
C755 C754 1.367 . S
C755 C763 1.433 . S
C756 H752 0.929 . S
C756 C758 1.378 . S
C756 C760 1.350 . S
C757 C760 1.463 . S
C757 C762 1.350 . S
C757 N765 1.427 . S
C758 H749 0.930 . S
C758 C756 1.378 . S
C758 C759 1.367 . S
C759 C758 1.367 . S
C759 C761 1.433 . S
C760 C756 1.350 . S
C760 C757 1.463 . S
C760 N764 1.427 . S
C761 H751 0.929 . S
C761 C759 1.433 . S
C761 N764 1.384 . S
C762 H753 0.929 . S
C762 C754 1.378 . S
C762 C757 1.350 . S
C763 H750 0.929 . S
C763 C755 1.433 . S
C763 N765 1.384 . S
N764 C760 1.427 . S
N764 C761 1.384 . S
N765 C757 1.427 . S
N765 C763 1.384 . S
H766 C772 0.930 . S
H767 C776 0.930 . S
H768 C781 0.929 . S
H769 C779 0.929 . S
H770 C774 0.929 . S
H771 C780 0.929 . S
C772 H766 0.930 . S
C772 C773 1.367 . S
C772 C780 1.378 . S
C773 C772 1.367 . S
C773 C781 1.433 . S
C774 H770 0.929 . S
C774 C776 1.378 . S
C774 C778 1.350 . S
C775 C778 1.463 . S
C775 C780 1.350 . S
C775 N783 1.427 . S
C776 H767 0.930 . S
C776 C774 1.378 . S
C776 C777 1.367 . S
C777 C776 1.367 . S
C777 C779 1.433 . S
C778 C774 1.350 . S
C778 C775 1.463 . S
C778 N782 1.427 . S
C779 H769 0.929 . S
C779 C777 1.433 . S
C779 N782 1.384 . S
C780 H771 0.929 . S
C780 C772 1.378 . S
C780 C775 1.350 . S
C781 H768 0.929 . S
C781 C773 1.433 . S
C781 N783 1.384 . S
N782 C778 1.427 . S
N782 C779 1.384 . S
N783 C775 1.427 . S
N783 C781 1.384 . S
H784 C790 0.930 . S
H785 C794 0.930 . S
H786 C799 0.929 . S
H787 C797 0.929 . S
H788 C792 0.929 . S
H789 C798 0.929 . S
C790 H784 0.930 . S
C790 C791 1.367 . S
C790 C798 1.378 . S
C791 C790 1.367 . S
C791 C799 1.433 . S
C792 H788 0.929 . S
C792 C794 1.378 . S
C792 C796 1.350 . S
C793 C796 1.463 . S
C793 C798 1.350 . S
C793 N801 1.427 . S
C794 H785 0.930 . S
C794 C792 1.378 . S
C794 C795 1.367 . S
C795 C794 1.367 . S
C795 C797 1.433 . S
C796 C792 1.350 . S
C796 C793 1.463 . S
C796 N800 1.427 . S
C797 H787 0.929 . S
C797 C795 1.433 . S
C797 N800 1.384 . S
C798 H789 0.929 . S
C798 C790 1.378 . S
C798 C793 1.350 . S
C799 H786 0.929 . S
C799 C791 1.433 . S
C799 N801 1.384 . S
N800 C796 1.427 . S
N800 C797 1.384 . S
N801 C793 1.427 . S
N801 C799 1.384 . S
H802 C808 0.930 . S
H803 C812 0.930 . S
H804 C817 0.929 . S
H805 C815 0.929 . S
H806 C810 0.929 . S
H807 C816 0.929 . S
C808 H802 0.930 . S
C808 C809 1.367 . S
C808 C816 1.378 . S
C809 C808 1.367 . S
C809 C817 1.433 . S
C810 H806 0.929 . S
C810 C812 1.378 . S
C810 C814 1.350 . S
C811 C814 1.463 . S
C811 C816 1.350 . S
C811 N819 1.427 . S
C812 H803 0.930 . S
C812 C810 1.378 . S
C812 C813 1.367 . S
C813 C812 1.367 . S
C813 C815 1.433 . S
C814 C810 1.350 . S
C814 C811 1.463 . S
C814 N818 1.427 . S
C815 H805 0.929 . S
C815 C813 1.433 . S
C815 N818 1.384 . S
C816 H807 0.929 . S
C816 C808 1.378 . S
C816 C811 1.350 . S
C817 H804 0.929 . S
C817 C809 1.433 . S
C817 N819 1.384 . S
N818 C814 1.427 . S
N818 C815 1.384 . S
N819 C811 1.427 . S
N819 C817 1.384 . S
H820 C826 0.930 . S
H821 C830 0.930 . S
H822 C835 0.929 . S
H823 C833 0.929 . S
H824 C828 0.929 . S
H825 C834 0.929 . S
C826 H820 0.930 . S
C826 C827 1.367 . S
C826 C834 1.378 . S
C827 C826 1.367 . S
C827 C835 1.433 . S
C828 H824 0.929 . S
C828 C830 1.378 . S
C828 C832 1.350 . S
C829 C832 1.463 . S
C829 C834 1.350 . S
C829 N837 1.427 . S
C830 H821 0.930 . S
C830 C828 1.378 . S
C830 C831 1.367 . S
C831 C830 1.367 . S
C831 C833 1.433 . S
C832 C828 1.350 . S
C832 C829 1.463 . S
C832 N836 1.427 . S
C833 H823 0.929 . S
C833 C831 1.433 . S
C833 N836 1.384 . S
C834 H825 0.929 . S
C834 C826 1.378 . S
C834 C829 1.350 . S
C835 H822 0.929 . S
C835 C827 1.433 . S
C835 N837 1.384 . S
N836 C832 1.427 . S
N836 C833 1.384 . S
N837 C829 1.427 . S
N837 C835 1.384 . S
H838 C844 0.930 . S
H839 C848 0.930 . S
H840 C853 0.929 . S
H841 C851 0.929 . S
H842 C846 0.929 . S
H843 C852 0.929 . S
C844 H838 0.930 . S
C844 C845 1.367 . S
C844 C852 1.378 . S
C845 C844 1.367 . S
C845 C853 1.433 . S
C846 H842 0.929 . S
C846 C848 1.378 . S
C846 C850 1.350 . S
C847 C850 1.463 . S
C847 C852 1.350 . S
C847 N855 1.427 . S
C848 H839 0.930 . S
C848 C846 1.378 . S
C848 C849 1.367 . S
C849 C848 1.367 . S
C849 C851 1.433 . S
C850 C846 1.350 . S
C850 C847 1.463 . S
C850 N854 1.427 . S
C851 H841 0.929 . S
C851 C849 1.433 . S
C851 N854 1.384 . S
C852 H843 0.929 . S
C852 C844 1.378 . S
C852 C847 1.350 . S
C853 H840 0.929 . S
C853 C845 1.433 . S
C853 N855 1.384 . S
N854 C850 1.427 . S
N854 C851 1.384 . S
N855 C847 1.427 . S
N855 C853 1.384 . S
H856 C862 0.930 . S
H857 C866 0.930 . S
H858 C871 0.929 . S
H859 C869 0.929 . S
H860 C864 0.929 . S
H861 C870 0.929 1_554 S
C862 H856 0.930 . S
C862 C863 1.367 . S
C862 C870 1.378 . S
C863 C862 1.367 . S
C863 C871 1.433 . S
C864 H860 0.929 . S
C864 C866 1.378 . S
C864 C868 1.350 1_565 S
C865 C868 1.463 . S
C865 C870 1.350 . S
C865 N873 1.427 . S
C866 H857 0.930 . S
C866 C864 1.378 . S
C866 C867 1.367 1_556 S
C867 C866 1.367 1_554 S
C867 C869 1.433 . S
C868 C864 1.350 1_545 S
C868 C865 1.463 . S
C868 N872 1.427 1_556 S
C869 H859 0.929 . S
C869 C867 1.433 . S
C869 N872 1.384 1_565 S
C870 H861 0.929 1_556 S
C870 C862 1.378 . S
C870 C865 1.350 . S
C871 H858 0.929 . S
C871 C863 1.433 . S
C871 N873 1.384 . S
N872 C868 1.427 1_554 S
N872 C869 1.384 1_545 S
N873 C865 1.427 . S
N873 C871 1.384 . S
H874 C880 0.930 . S
H875 C884 0.930 . S
H876 C889 0.929 . S
H877 C887 0.929 . S
H878 C882 0.929 . S
H879 C888 0.929 . S
C880 H874 0.930 . S
C880 C881 1.367 . S
C880 C888 1.378 . S
C881 C880 1.367 . S
C881 C889 1.433 . S
C882 H878 0.929 . S
C882 C884 1.378 1_455 S
C882 C886 1.350 1_556 S
C883 C886 1.463 . S
C883 C888 1.350 . S
C883 N891 1.427 . S
C884 H875 0.930 . S
C884 C882 1.378 1_655 S
C884 C885 1.367 . S
C885 C884 1.367 . S
C885 C887 1.433 1_556 S
C886 C882 1.350 1_554 S
C886 C883 1.463 . S
C886 N890 1.427 1_455 S
C887 H877 0.929 . S
C887 C885 1.433 1_554 S
C887 N890 1.384 . S
C888 H879 0.929 . S
C888 C880 1.378 . S
C888 C883 1.350 . S
C889 H876 0.929 . S
C889 C881 1.433 . S
C889 N891 1.384 . S
N890 C886 1.427 1_655 S
N890 C887 1.384 . S
N891 C883 1.427 . S
N891 C889 1.384 . S
H892 C898 0.930 . S
H893 C902 0.930 . S
H894 C907 0.929 . S
H895 C905 0.929 . S
H896 C900 0.929 . S
H897 C906 0.929 . S
C898 H892 0.930 . S
C898 C899 1.367 1_556 S
C898 C906 1.378 . S
C899 C898 1.367 1_554 S
C899 C907 1.433 . S
C900 H896 0.929 . S
C900 C902 1.378 . S
C900 C904 1.350 . S
C901 C904 1.463 . S
C901 C906 1.350 1_565 S
C901 N909 1.427 1_556 S
C902 H893 0.930 . S
C902 C900 1.378 . S
C902 C903 1.367 . S
C903 C902 1.367 . S
C903 C905 1.433 . S
C904 C900 1.350 . S
C904 C901 1.463 . S
C904 N908 1.427 . S
C905 H895 0.929 . S
C905 C903 1.433 . S
C905 N908 1.384 . S
C906 H897 0.929 . S
C906 C898 1.378 . S
C906 C901 1.350 1_545 S
C907 H894 0.929 . S
C907 C899 1.433 . S
C907 N909 1.384 1_545 S
N908 C904 1.427 . S
N908 C905 1.384 . S
N909 C901 1.427 1_554 S
N909 C907 1.384 1_565 S
H910 C916 0.930 . S
H911 C920 0.930 . S
H912 C925 0.929 . S
H913 C923 0.929 . S
H914 C918 0.929 . S
H915 C924 0.929 . S
C916 H910 0.930 . S
C916 C917 1.367 . S
C916 C924 1.378 1_455 S
C917 C916 1.367 . S
C917 C925 1.433 1_556 S
C918 H914 0.929 . S
C918 C920 1.378 . S
C918 C922 1.350 . S
C919 C922 1.463 . S
C919 C924 1.350 1_554 S
C919 N927 1.427 1_655 S
C920 H911 0.930 . S
C920 C918 1.378 . S
C920 C921 1.367 . S
C921 C920 1.367 . S
C921 C923 1.433 . S
C922 C918 1.350 . S
C922 C919 1.463 . S
C922 N926 1.427 . S
C923 H913 0.929 . S
C923 C921 1.433 . S
C923 N926 1.384 . S
C924 H915 0.929 . S
C924 C916 1.378 1_655 S
C924 C919 1.350 1_556 S
C925 H912 0.929 . S
C925 C917 1.433 1_554 S
C925 N927 1.384 . S
N926 C922 1.427 . S
N926 C923 1.384 . S
N927 C919 1.427 1_455 S
N927 C925 1.384 . S
H928 C934 0.930 . S
H929 C938 0.930 . S
H930 C943 0.929 . S
H931 C941 0.929 . S
H932 C936 0.929 . S
H933 C942 0.929 . S
C934 H928 0.930 . S
C934 C935 1.367 . S
C934 C942 1.378 . S
C935 C934 1.367 . S
C935 C943 1.433 . S
C936 H932 0.929 . S
C936 C938 1.378 . S
C936 C940 1.350 . S
C937 C940 1.463 . S
C937 C942 1.350 1_565 S
C937 N945 1.427 . S
C938 H929 0.930 . S
C938 C936 1.378 . S
C938 C939 1.367 . S
C939 C938 1.367 . S
C939 C941 1.433 . S
C940 C936 1.350 . S
C940 C937 1.463 . S
C940 N944 1.427 . S
C941 H931 0.929 . S
C941 C939 1.433 . S
C941 N944 1.384 . S
C942 H933 0.929 . S
C942 C934 1.378 . S
C942 C937 1.350 1_545 S
C943 H930 0.929 . S
C943 C935 1.433 . S
C943 N945 1.384 1_545 S
N944 C940 1.427 . S
N944 C941 1.384 . S
N945 C937 1.427 . S
N945 C943 1.384 1_565 S
H946 C952 0.930 . S
H947 C956 0.930 . S
H948 C961 0.929 . S
H949 C959 0.929 . S
H950 C954 0.929 . S
H951 C960 0.929 . S
C952 H946 0.930 . S
C952 C953 1.367 . S
C952 C960 1.378 . S
C953 C952 1.367 . S
C953 C961 1.433 . S
C954 H950 0.929 . S
C954 C956 1.378 1_655 S
C954 C958 1.350 . S
C955 C958 1.463 . S
C955 C960 1.350 . S
C955 N963 1.427 . S
C956 H947 0.930 . S
C956 C954 1.378 1_455 S
C956 C957 1.367 . S
C957 C956 1.367 . S
C957 C959 1.433 . S
C958 C954 1.350 . S
C958 C955 1.463 . S
C958 N962 1.427 1_655 S
C959 H949 0.929 . S
C959 C957 1.433 . S
C959 N962 1.384 . S
C960 H951 0.929 . S
C960 C952 1.378 . S
C960 C955 1.350 . S
C961 H948 0.929 . S
C961 C953 1.433 . S
C961 N963 1.384 . S
N962 C958 1.427 1_455 S
N962 C959 1.384 . S
N963 C955 1.427 . S
N963 C961 1.384 . S
H964 C970 0.930 . S
H965 C974 0.930 . S
H966 C979 0.929 . S
H967 C977 0.929 . S
H968 C972 0.929 . S
H969 C978 0.929 . S
C970 H964 0.930 . S
C970 C971 1.367 . S
C970 C978 1.378 . S
C971 C970 1.367 . S
C971 C979 1.433 . S
C972 H968 0.929 . S
C972 C974 1.378 1_545 S
C972 C976 1.350 . S
C973 C976 1.463 . S
C973 C978 1.350 . S
C973 N981 1.427 . S
C974 H965 0.930 . S
C974 C972 1.378 1_565 S
C974 C975 1.367 . S
C975 C974 1.367 . S
C975 C977 1.433 . S
C976 C972 1.350 . S
C976 C973 1.463 . S
C976 N980 1.427 1_545 S
C977 H967 0.929 . S
C977 C975 1.433 . S
C977 N980 1.384 . S
C978 H969 0.929 . S
C978 C970 1.378 . S
C978 C973 1.350 . S
C979 H966 0.929 . S
C979 C971 1.433 . S
C979 N981 1.384 . S
N980 C976 1.427 1_565 S
N980 C977 1.384 . S
N981 C973 1.427 . S
N981 C979 1.384 . S
H982 C988 0.930 . S
H983 C992 0.930 . S
H984 C997 0.929 . S
H985 C995 0.929 . S
H986 C990 0.929 . S
H987 C996 0.929 . S
C988 H982 0.930 . S
C988 C989 1.367 . S
C988 C996 1.378 1_655 S
C989 C988 1.367 . S
C989 C997 1.433 . S
C990 H986 0.929 . S
C990 C992 1.378 . S
C990 C994 1.350 . S
C991 C994 1.463 . S
C991 C996 1.350 . S
C991 N999 1.427 1_455 S
C992 H983 0.930 . S
C992 C990 1.378 . S
C992 C993 1.367 . S
C993 C992 1.367 . S
C993 C995 1.433 . S
C994 C990 1.350 . S
C994 C991 1.463 . S
C994 N998 1.427 . S
C995 H985 0.929 . S
C995 C993 1.433 . S
C995 N998 1.384 . S
C996 H987 0.929 . S
C996 C988 1.378 1_455 S
C996 C991 1.350 . S
C997 H984 0.929 . S
C997 C989 1.433 . S
C997 N999 1.384 . S
N998 C994 1.427 . S
N998 C995 1.384 . S
N999 C991 1.427 1_655 S
N999 C997 1.384 . S
H1000 C1006 0.930 . S
H1001 C1010 0.930 . S
H1002 C1015 0.929 . S
H1003 C1013 0.929 . S
H1004 C1008 0.929 . S
H1005 C1014 0.929 . S
C1006 H1000 0.930 . S
C1006 C1007 1.367 . S
C1006 C1014 1.378 . S
C1007 C1006 1.367 . S
C1007 C1015 1.433 . S
C1008 H1004 0.929 . S
C1008 C1010 1.378 . S
C1008 C1012 1.350 . S
C1009 C1012 1.463 . S
C1009 C1014 1.350 . S
C1009 N1017 1.427 . S
C1010 H1001 0.930 . S
C1010 C1008 1.378 . S
C1010 C1011 1.367 . S
C1011 C1010 1.367 . S
C1011 C1013 1.433 . S
C1012 C1008 1.350 . S
C1012 C1009 1.463 . S
C1012 N1016 1.427 . S
C1013 H1003 0.929 . S
C1013 C1011 1.433 . S
C1013 N1016 1.384 . S
C1014 H1005 0.929 . S
C1014 C1006 1.378 . S
C1014 C1009 1.350 . S
C1015 H1002 0.929 . S
C1015 C1007 1.433 . S
C1015 N1017 1.384 . S
N1016 C1012 1.427 . S
N1016 C1013 1.384 . S
N1017 C1009 1.427 . S
N1017 C1015 1.384 . S
H1018 C1024 0.930 . S
H1019 C1028 0.930 . S
H1020 C1033 0.929 . S
H1021 C1031 0.929 . S
H1022 C1026 0.929 . S
H1023 C1032 0.929 . S
C1024 H1018 0.930 . S
C1024 C1025 1.367 . S
C1024 C1032 1.378 . S
C1025 C1024 1.367 . S
C1025 C1033 1.433 . S
C1026 H1022 0.929 . S
C1026 C1028 1.378 . S
C1026 C1030 1.350 . S
C1027 C1030 1.463 . S
C1027 C1032 1.350 . S
C1027 N1035 1.427 . S
C1028 H1019 0.930 . S
C1028 C1026 1.378 . S
C1028 C1029 1.367 . S
C1029 C1028 1.367 . S
C1029 C1031 1.433 . S
C1030 C1026 1.350 . S
C1030 C1027 1.463 . S
C1030 N1034 1.427 . S
C1031 H1021 0.929 . S
C1031 C1029 1.433 . S
C1031 N1034 1.384 . S
C1032 H1023 0.929 . S
C1032 C1024 1.378 . S
C1032 C1027 1.350 . S
C1033 H1020 0.929 . S
C1033 C1025 1.433 . S
C1033 N1035 1.384 . S
N1034 C1030 1.427 . S
N1034 C1031 1.384 . S
N1035 C1027 1.427 . S
N1035 C1033 1.384 . S
H1036 C1042 0.930 . S
H1037 C1046 0.930 . S
H1038 C1051 0.929 . S
H1039 C1049 0.929 . S
H1040 C1044 0.929 . S
H1041 C1050 0.929 . S
C1042 H1036 0.930 . S
C1042 C1043 1.367 . S
C1042 C1050 1.378 . S
C1043 C1042 1.367 . S
C1043 C1051 1.433 . S
C1044 H1040 0.929 . S
C1044 C1046 1.378 . S
C1044 C1048 1.350 . S
C1045 C1048 1.463 . S
C1045 C1050 1.350 . S
C1045 N1053 1.427 . S
C1046 H1037 0.930 . S
C1046 C1044 1.378 . S
C1046 C1047 1.367 . S
C1047 C1046 1.367 . S
C1047 C1049 1.433 . S
C1048 C1044 1.350 . S
C1048 C1045 1.463 . S
C1048 N1052 1.427 . S
C1049 H1039 0.929 . S
C1049 C1047 1.433 . S
C1049 N1052 1.384 . S
C1050 H1041 0.929 . S
C1050 C1042 1.378 . S
C1050 C1045 1.350 . S
C1051 H1038 0.929 . S
C1051 C1043 1.433 . S
C1051 N1053 1.384 . S
N1052 C1048 1.427 . S
N1052 C1049 1.384 . S
N1053 C1045 1.427 . S
N1053 C1051 1.384 . S
H1054 C1060 0.930 . S
H1055 C1064 0.930 . S
H1056 C1069 0.929 . S
H1057 C1067 0.929 . S
H1058 C1062 0.929 . S
H1059 C1068 0.929 . S
C1060 H1054 0.930 . S
C1060 C1061 1.367 . S
C1060 C1068 1.378 . S
C1061 C1060 1.367 . S
C1061 C1069 1.433 . S
C1062 H1058 0.929 . S
C1062 C1064 1.378 . S
C1062 C1066 1.350 . S
C1063 C1066 1.463 . S
C1063 C1068 1.350 . S
C1063 N1071 1.427 . S
C1064 H1055 0.930 . S
C1064 C1062 1.378 . S
C1064 C1065 1.367 . S
C1065 C1064 1.367 . S
C1065 C1067 1.433 . S
C1066 C1062 1.350 . S
C1066 C1063 1.463 . S
C1066 N1070 1.427 . S
C1067 H1057 0.929 . S
C1067 C1065 1.433 . S
C1067 N1070 1.384 . S
C1068 H1059 0.929 . S
C1068 C1060 1.378 . S
C1068 C1063 1.350 . S
C1069 H1056 0.929 . S
C1069 C1061 1.433 . S
C1069 N1071 1.384 . S
N1070 C1066 1.427 . S
N1070 C1067 1.384 . S
N1071 C1063 1.427 . S
N1071 C1069 1.384 . S
H1072 C1078 0.930 . S
H1073 C1082 0.930 . S
H1074 C1087 0.929 . S
H1075 C1085 0.929 . S
H1076 C1080 0.929 1_545 S
H1077 C1086 0.929 1_565 S
C1078 H1072 0.930 . S
C1078 C1079 1.367 . S
C1078 C1086 1.378 . S
C1079 C1078 1.367 . S
C1079 C1087 1.433 . S
C1080 H1076 0.929 1_565 S
C1080 C1082 1.378 . S
C1080 C1084 1.350 . S
C1081 C1084 1.463 1_445 S
C1081 C1086 1.350 . S
C1081 N1089 1.427 . S
C1082 H1073 0.930 . S
C1082 C1080 1.378 . S
C1082 C1083 1.367 . S
C1083 C1082 1.367 . S
C1083 C1085 1.433 . S
C1084 C1080 1.350 . S
C1084 C1081 1.463 1_665 S
C1084 N1088 1.427 . S
C1085 H1075 0.929 . S
C1085 C1083 1.433 . S
C1085 N1088 1.384 . S
C1086 H1077 0.929 1_545 S
C1086 C1078 1.378 . S
C1086 C1081 1.350 . S
C1087 H1074 0.929 . S
C1087 C1079 1.433 . S
C1087 N1089 1.384 . S
N1088 C1084 1.427 . S
N1088 C1085 1.384 . S
N1089 C1081 1.427 . S
N1089 C1087 1.384 . S
H1090 C1096 0.930 . S
H1091 C1100 0.930 . S
H1092 C1105 0.929 . S
H1093 C1103 0.929 . S
H1094 C1098 0.929 1_655 S
H1095 C1104 0.929 1_455 S
C1096 H1090 0.930 . S
C1096 C1097 1.367 . S
C1096 C1104 1.378 . S
C1097 C1096 1.367 . S
C1097 C1105 1.433 . S
C1098 H1094 0.929 1_455 S
C1098 C1100 1.378 . S
C1098 C1102 1.350 . S
C1099 C1102 1.463 1_645 S
C1099 C1104 1.350 . S
C1099 N1107 1.427 . S
C1100 H1091 0.930 . S
C1100 C1098 1.378 . S
C1100 C1101 1.367 . S
C1101 C1100 1.367 . S
C1101 C1103 1.433 . S
C1102 C1098 1.350 . S
C1102 C1099 1.463 1_465 S
C1102 N1106 1.427 . S
C1103 H1093 0.929 . S
C1103 C1101 1.433 . S
C1103 N1106 1.384 . S
C1104 H1095 0.929 1_655 S
C1104 C1096 1.378 . S
C1104 C1099 1.350 . S
C1105 H1092 0.929 . S
C1105 C1097 1.433 . S
C1105 N1107 1.384 . S
N1106 C1102 1.427 . S
N1106 C1103 1.384 . S
N1107 C1099 1.427 . S
N1107 C1105 1.384 . S
H1108 C1114 0.930 . S
H1109 C1118 0.930 . S
H1110 C1123 0.929 . S
H1111 C1121 0.929 . S
H1112 C1116 0.929 1_455 S
H1113 C1122 0.929 1_655 S
C1114 H1108 0.930 . S
C1114 C1115 1.367 . S
C1114 C1122 1.378 . S
C1115 C1114 1.367 . S
C1115 C1123 1.433 . S
C1116 H1112 0.929 1_655 S
C1116 C1118 1.378 . S
C1116 C1120 1.350 . S
C1117 C1120 1.463 1_455 S
C1117 C1122 1.350 . S
C1117 N1125 1.427 . S
C1118 H1109 0.930 . S
C1118 C1116 1.378 . S
C1118 C1119 1.367 . S
C1119 C1118 1.367 . S
C1119 C1121 1.433 . S
C1120 C1116 1.350 . S
C1120 C1117 1.463 1_655 S
C1120 N1124 1.427 . S
C1121 H1111 0.929 . S
C1121 C1119 1.433 . S
C1121 N1124 1.384 . S
C1122 H1113 0.929 1_455 S
C1122 C1114 1.378 . S
C1122 C1117 1.350 . S
C1123 H1110 0.929 . S
C1123 C1115 1.433 . S
C1123 N1125 1.384 . S
N1124 C1120 1.427 . S
N1124 C1121 1.384 . S
N1125 C1117 1.427 . S
N1125 C1123 1.384 . S
H1126 C1132 0.930 . S
H1127 C1136 0.930 . S
H1128 C1141 0.929 . S
H1129 C1139 0.929 . S
H1130 C1134 0.929 1_565 S
H1131 C1140 0.929 1_545 S
C1132 H1126 0.930 . S
C1132 C1133 1.367 . S
C1132 C1140 1.378 . S
C1133 C1132 1.367 . S
C1133 C1141 1.433 . S
C1134 H1130 0.929 1_545 S
C1134 C1136 1.378 . S
C1134 C1138 1.350 . S
C1135 C1138 1.463 1_565 S
C1135 C1140 1.350 . S
C1135 N1143 1.427 . S
C1136 H1127 0.930 . S
C1136 C1134 1.378 . S
C1136 C1137 1.367 . S
C1137 C1136 1.367 . S
C1137 C1139 1.433 . S
C1138 C1134 1.350 . S
C1138 C1135 1.463 1_545 S
C1138 N1142 1.427 . S
C1139 H1129 0.929 . S
C1139 C1137 1.433 . S
C1139 N1142 1.384 . S
C1140 H1131 0.929 1_565 S
C1140 C1132 1.378 . S
C1140 C1135 1.350 . S
C1141 H1128 0.929 . S
C1141 C1133 1.433 . S
C1141 N1143 1.384 . S
N1142 C1138 1.427 . S
N1142 C1139 1.384 . S
N1143 C1135 1.427 . S
N1143 C1141 1.384 . S
H1144 C1150 0.930 . S
H1145 C1154 0.930 . S
H1146 C1159 0.929 . S
H1147 C1157 0.929 . S
H1148 C1152 0.929 . S
H1149 C1158 0.929 . S
C1150 H1144 0.930 . S
C1150 C1151 1.367 . S
C1150 C1158 1.378 . S
C1151 C1150 1.367 . S
C1151 C1159 1.433 . S
C1152 H1148 0.929 . S
C1152 C1154 1.378 . S
C1152 C1156 1.350 . S
C1153 C1156 1.463 . S
C1153 C1158 1.350 . S
C1153 N1161 1.427 . S
C1154 H1145 0.930 . S
C1154 C1152 1.378 . S
C1154 C1155 1.367 . S
C1155 C1154 1.367 . S
C1155 C1157 1.433 . S
C1156 C1152 1.350 . S
C1156 C1153 1.463 . S
C1156 N1160 1.427 . S
C1157 H1147 0.929 . S
C1157 C1155 1.433 . S
C1157 N1160 1.384 . S
C1158 H1149 0.929 . S
C1158 C1150 1.378 . S
C1158 C1153 1.350 . S
C1159 H1146 0.929 . S
C1159 C1151 1.433 . S
C1159 N1161 1.384 . S
N1160 C1156 1.427 . S
N1160 C1157 1.384 . S
N1161 C1153 1.427 . S
N1161 C1159 1.384 . S
H1162 C1168 0.930 . S
H1163 C1172 0.930 . S
H1164 C1177 0.929 . S
H1165 C1175 0.929 . S
H1166 C1170 0.929 . S
H1167 C1176 0.929 . S
C1168 H1162 0.930 . S
C1168 C1169 1.367 . S
C1168 C1176 1.378 . S
C1169 C1168 1.367 . S
C1169 C1177 1.433 . S
C1170 H1166 0.929 . S
C1170 C1172 1.378 . S
C1170 C1174 1.350 . S
C1171 C1174 1.463 . S
C1171 C1176 1.350 . S
C1171 N1179 1.427 . S
C1172 H1163 0.930 . S
C1172 C1170 1.378 . S
C1172 C1173 1.367 . S
C1173 C1172 1.367 . S
C1173 C1175 1.433 . S
C1174 C1170 1.350 . S
C1174 C1171 1.463 . S
C1174 N1178 1.427 . S
C1175 H1165 0.929 . S
C1175 C1173 1.433 . S
C1175 N1178 1.384 . S
C1176 H1167 0.929 . S
C1176 C1168 1.378 . S
C1176 C1171 1.350 . S
C1177 H1164 0.929 . S
C1177 C1169 1.433 . S
C1177 N1179 1.384 . S
N1178 C1174 1.427 . S
N1178 C1175 1.384 . S
N1179 C1171 1.427 . S
N1179 C1177 1.384 . S
H1180 C1186 0.930 . S
H1181 C1190 0.930 . S
H1182 C1195 0.929 . S
H1183 C1193 0.929 . S
H1184 C1188 0.929 1_565 S
H1185 C1194 0.929 1_545 S
C1186 H1180 0.930 . S
C1186 C1187 1.367 . S
C1186 C1194 1.378 . S
C1187 C1186 1.367 . S
C1187 C1195 1.433 . S
C1188 H1184 0.929 1_545 S
C1188 C1190 1.378 . S
C1188 C1192 1.350 . S
C1189 C1192 1.463 1_565 S
C1189 C1194 1.350 . S
C1189 N1197 1.427 . S
C1190 H1181 0.930 . S
C1190 C1188 1.378 . S
C1190 C1191 1.367 . S
C1191 C1190 1.367 . S
C1191 C1193 1.433 . S
C1192 C1188 1.350 . S
C1192 C1189 1.463 1_545 S
C1192 N1196 1.427 . S
C1193 H1183 0.929 . S
C1193 C1191 1.433 . S
C1193 N1196 1.384 . S
C1194 H1185 0.929 1_565 S
C1194 C1186 1.378 . S
C1194 C1189 1.350 . S
C1195 H1182 0.929 . S
C1195 C1187 1.433 . S
C1195 N1197 1.384 . S
N1196 C1192 1.427 . S
N1196 C1193 1.384 . S
N1197 C1189 1.427 . S
N1197 C1195 1.384 . S
H1198 C1204 0.930 . S
H1199 C1208 0.930 . S
H1200 C1213 0.929 . S
H1201 C1211 0.929 . S
H1202 C1206 0.929 1_655 S
H1203 C1212 0.929 1_455 S
C1204 H1198 0.930 . S
C1204 C1205 1.367 . S
C1204 C1212 1.378 . S
C1205 C1204 1.367 . S
C1205 C1213 1.433 . S
C1206 H1202 0.929 1_455 S
C1206 C1208 1.378 . S
C1206 C1210 1.350 . S
C1207 C1210 1.463 1_655 S
C1207 C1212 1.350 . S
C1207 N1215 1.427 . S
C1208 H1199 0.930 . S
C1208 C1206 1.378 . S
C1208 C1209 1.367 . S
C1209 C1208 1.367 . S
C1209 C1211 1.433 . S
C1210 C1206 1.350 . S
C1210 C1207 1.463 1_455 S
C1210 N1214 1.427 . S
C1211 H1201 0.929 . S
C1211 C1209 1.433 . S
C1211 N1214 1.384 . S
C1212 H1203 0.929 1_655 S
C1212 C1204 1.378 . S
C1212 C1207 1.350 . S
C1213 H1200 0.929 . S
C1213 C1205 1.433 . S
C1213 N1215 1.384 . S
N1214 C1210 1.427 . S
N1214 C1211 1.384 . S
N1215 C1207 1.427 . S
N1215 C1213 1.384 . S
C359 C247 1.461 . S
C363 C9 1.419 . S
C377 C28 1.433 . S
C381 C182 1.453 . S
C395 C49 1.430 . S
C399 C207 1.453 . S
C413 C227 1.464 . S
C417 C73 1.420 . S
C431 C93 1.423 . S
C435 C119 1.457 . S
C449 C116 1.419 . S
C453 C138 1.463 . S
C467 C159 1.458 . S
C471 C141 1.422 . S
C485 C95 1.463 . S
C489 C161 1.426 . S
C503 C185 1.424 . S
C507 C71 1.456 . S
C521 C204 1.435 . S
C525 C6 1.454 . S
C539 C31 1.455 . S
C543 C225 1.425 . S
C557 C249 1.435 . S
C561 C51 1.455 . S
C575 C269 1.420 . S
C579 C295 1.464 . S
C593 C314 1.459 . S
C597 C292 1.420 . S
C611 C335 1.464 . S
C615 C317 1.420 . S
C629 C337 1.420 . S
C633 C271 1.459 . S
C647 C4 1.445 . S
C651 C312 1.456 . S
C665 C30 1.448 . S
C669 C334 1.440 . S
C683 C52 1.443 . S
C687 C272 1.455 . S
C701 C70 1.447 . S
C705 C294 1.440 . S
C719 C96 1.453 . S
C723 C228 1.441 . S
C737 C118 1.446 . S
C741 C246 1.456 . S
C755 C136 1.452 . S
C759 C180 1.441 . S
C773 C158 1.445 . S
C777 C206 1.441 . S
C791 C5 1.143 . S
C795 C251 1.162 . S
C809 C29 1.153 . S
C813 C183 1.146 . S
C827 C203 1.146 . S
C831 C53 1.151 . S
C845 C72 1.158 . S
C849 C226 1.147 . S
C863 C97 1.141 . S
C867 C115 1.159 . S
C881 C117 1.159 . S
C885 C139 1.148 . S
C899 C163 1.150 . S
C903 C137 1.145 . S
C917 C94 1.153 . S
C921 C160 1.159 . S
C935 C75 1.155 . S
C939 C181 1.142 . S
C953 C205 1.159 . S
C957 C7 1.148 . S
C971 C229 1.149 . S
C975 C27 1.162 . S
C989 C50 1.151 . S
C993 C248 1.159 . S
C1007 C273 1.158 . S
C1011 C291 1.147 . S
C1025 C293 1.141 . S
C1029 C315 1.159 . S
C1043 C339 1.146 . S
C1047 C313 1.153 . S
C1061 C270 1.148 . S
C1065 C336 1.148 . S
C1079 C8 1.712 . S
C1083 C48 1.712 . S
C1097 C74 1.711 . S
C1101 C26 1.714 . S
C1115 C92 1.712 . S
C1119 C140 1.714 . S
C1133 C114 1.712 . S
C1137 C162 1.714 . S
C1151 C184 1.714 . S
C1155 C224 1.712 . S
C1169 C250 1.713 . S
C1173 C202 1.713 . S
C1187 C268 1.713 . S
C1191 C316 1.711 . S
C1205 C290 1.713 . S
C1209 C338 1.711 . S
