# Generated by pormake.
# Topology ana, (4)-cn, num edge types: 1
# Building blocks:
#     Node 0, Type 0, BuildingBlock: NAHDIM_clean_sbu_0, # of connection points: 4
#     Node 1, Type 0, BuildingBlock: NAHDIM_clean_sbu_0, # of connection points: 4
#     Node 2, Type 0, BuildingBlock: NAHDIM_clean_sbu_0, # of connection points: 4
#     Node 3, Type 0, BuildingBlock: NAHDIM_clean_sbu_0, # of connection points: 4
#     Node 4, Type 0, BuildingBlock: NAHDIM_clean_sbu_0, # of connection points: 4
#     Node 5, Type 0, BuildingBlock: NAHDIM_clean_sbu_0, # of connection points: 4
#     Node 6, Type 0, BuildingBlock: NAHDIM_clean_sbu_0, # of connection points: 4
#     Node 7, Type 0, BuildingBlock: NAHDIM_clean_sbu_0, # of connection points: 4
#     Node 8, Type 0, BuildingBlock: NAHDIM_clean_sbu_0, # of connection points: 4
#     Node 9, Type 0, BuildingBlock: NAHDIM_clean_sbu_0, # of connection points: 4
#     Node 10, Type 0, BuildingBlock: NAHDIM_clean_sbu_0, # of connection points: 4
#     Node 11, Type 0, BuildingBlock: NAHDIM_clean_sbu_0, # of connection points: 4
#     Node 12, Type 0, BuildingBlock: NAHDIM_clean_sbu_0, # of connection points: 4
#     Node 13, Type 0, BuildingBlock: NAHDIM_clean_sbu_0, # of connection points: 4
#     Node 14, Type 0, BuildingBlock: NAHDIM_clean_sbu_0, # of connection points: 4
#     Node 15, Type 0, BuildingBlock: NAHDIM_clean_sbu_0, # of connection points: 4
#     Node 16, Type 0, BuildingBlock: NAHDIM_clean_sbu_0, # of connection points: 4
#     Node 17, Type 0, BuildingBlock: NAHDIM_clean_sbu_0, # of connection points: 4
#     Node 18, Type 0, BuildingBlock: NAHDIM_clean_sbu_0, # of connection points: 4
#     Node 19, Type 0, BuildingBlock: NAHDIM_clean_sbu_0, # of connection points: 4
#     Node 20, Type 0, BuildingBlock: NAHDIM_clean_sbu_0, # of connection points: 4
#     Node 21, Type 0, BuildingBlock: NAHDIM_clean_sbu_0, # of connection points: 4
#     Node 22, Type 0, BuildingBlock: NAHDIM_clean_sbu_0, # of connection points: 4
#     Node 23, Type 0, BuildingBlock: NAHDIM_clean_sbu_0, # of connection points: 4
#     Node 24, Type 0, BuildingBlock: NAHDIM_clean_sbu_0, # of connection points: 4
#     Node 25, Type 0, BuildingBlock: NAHDIM_clean_sbu_0, # of connection points: 4
#     Node 26, Type 0, BuildingBlock: NAHDIM_clean_sbu_0, # of connection points: 4
#     Node 27, Type 0, BuildingBlock: NAHDIM_clean_sbu_0, # of connection points: 4
#     Node 28, Type 0, BuildingBlock: NAHDIM_clean_sbu_0, # of connection points: 4
#     Node 29, Type 0, BuildingBlock: NAHDIM_clean_sbu_0, # of connection points: 4
#     Node 30, Type 0, BuildingBlock: NAHDIM_clean_sbu_0, # of connection points: 4
#     Node 31, Type 0, BuildingBlock: NAHDIM_clean_sbu_0, # of connection points: 4
#     Node 32, Type 0, BuildingBlock: NAHDIM_clean_sbu_0, # of connection points: 4
#     Node 33, Type 0, BuildingBlock: NAHDIM_clean_sbu_0, # of connection points: 4
#     Node 34, Type 0, BuildingBlock: NAHDIM_clean_sbu_0, # of connection points: 4
#     Node 35, Type 0, BuildingBlock: NAHDIM_clean_sbu_0, # of connection points: 4
#     Node 36, Type 0, BuildingBlock: NAHDIM_clean_sbu_0, # of connection points: 4
#     Node 37, Type 0, BuildingBlock: NAHDIM_clean_sbu_0, # of connection points: 4
#     Node 38, Type 0, BuildingBlock: NAHDIM_clean_sbu_0, # of connection points: 4
#     Node 39, Type 0, BuildingBlock: NAHDIM_clean_sbu_0, # of connection points: 4
#     Node 40, Type 0, BuildingBlock: NAHDIM_clean_sbu_0, # of connection points: 4
#     Node 41, Type 0, BuildingBlock: NAHDIM_clean_sbu_0, # of connection points: 4
#     Node 42, Type 0, BuildingBlock: NAHDIM_clean_sbu_0, # of connection points: 4
#     Node 43, Type 0, BuildingBlock: NAHDIM_clean_sbu_0, # of connection points: 4
#     Node 44, Type 0, BuildingBlock: NAHDIM_clean_sbu_0, # of connection points: 4
#     Node 45, Type 0, BuildingBlock: NAHDIM_clean_sbu_0, # of connection points: 4
#     Node 46, Type 0, BuildingBlock: NAHDIM_clean_sbu_0, # of connection points: 4
#     Node 47, Type 0, BuildingBlock: NAHDIM_clean_sbu_0, # of connection points: 4
#     Edge 48, Type (0, 0), BuildingBlock: AJUNOK_clean_linker_0, # of connection points: 2
#     Edge 49, Type (0, 0), BuildingBlock: AJUNOK_clean_linker_0, # of connection points: 2
#     Edge 50, Type (0, 0), BuildingBlock: AJUNOK_clean_linker_0, # of connection points: 2
#     Edge 51, Type (0, 0), BuildingBlock: AJUNOK_clean_linker_0, # of connection points: 2
#     Edge 52, Type (0, 0), BuildingBlock: AJUNOK_clean_linker_0, # of connection points: 2
#     Edge 53, Type (0, 0), BuildingBlock: AJUNOK_clean_linker_0, # of connection points: 2
#     Edge 54, Type (0, 0), BuildingBlock: AJUNOK_clean_linker_0, # of connection points: 2
#     Edge 55, Type (0, 0), BuildingBlock: AJUNOK_clean_linker_0, # of connection points: 2
#     Edge 56, Type (0, 0), BuildingBlock: AJUNOK_clean_linker_0, # of connection points: 2
#     Edge 57, Type (0, 0), BuildingBlock: AJUNOK_clean_linker_0, # of connection points: 2
#     Edge 58, Type (0, 0), BuildingBlock: AJUNOK_clean_linker_0, # of connection points: 2
#     Edge 59, Type (0, 0), BuildingBlock: AJUNOK_clean_linker_0, # of connection points: 2
#     Edge 60, Type (0, 0), BuildingBlock: AJUNOK_clean_linker_0, # of connection points: 2
#     Edge 61, Type (0, 0), BuildingBlock: AJUNOK_clean_linker_0, # of connection points: 2
#     Edge 62, Type (0, 0), BuildingBlock: AJUNOK_clean_linker_0, # of connection points: 2
#     Edge 63, Type (0, 0), BuildingBlock: AJUNOK_clean_linker_0, # of connection points: 2
#     Edge 64, Type (0, 0), BuildingBlock: AJUNOK_clean_linker_0, # of connection points: 2
#     Edge 65, Type (0, 0), BuildingBlock: AJUNOK_clean_linker_0, # of connection points: 2
#     Edge 66, Type (0, 0), BuildingBlock: AJUNOK_clean_linker_0, # of connection points: 2
#     Edge 67, Type (0, 0), BuildingBlock: AJUNOK_clean_linker_0, # of connection points: 2
#     Edge 68, Type (0, 0), BuildingBlock: AJUNOK_clean_linker_0, # of connection points: 2
#     Edge 69, Type (0, 0), BuildingBlock: AJUNOK_clean_linker_0, # of connection points: 2
#     Edge 70, Type (0, 0), BuildingBlock: AJUNOK_clean_linker_0, # of connection points: 2
#     Edge 71, Type (0, 0), BuildingBlock: AJUNOK_clean_linker_0, # of connection points: 2
#     Edge 72, Type (0, 0), BuildingBlock: AJUNOK_clean_linker_0, # of connection points: 2
#     Edge 73, Type (0, 0), BuildingBlock: AJUNOK_clean_linker_0, # of connection points: 2
#     Edge 74, Type (0, 0), BuildingBlock: AJUNOK_clean_linker_0, # of connection points: 2
#     Edge 75, Type (0, 0), BuildingBlock: AJUNOK_clean_linker_0, # of connection points: 2
#     Edge 76, Type (0, 0), BuildingBlock: AJUNOK_clean_linker_0, # of connection points: 2
#     Edge 77, Type (0, 0), BuildingBlock: AJUNOK_clean_linker_0, # of connection points: 2
#     Edge 78, Type (0, 0), BuildingBlock: AJUNOK_clean_linker_0, # of connection points: 2
#     Edge 79, Type (0, 0), BuildingBlock: AJUNOK_clean_linker_0, # of connection points: 2
#     Edge 80, Type (0, 0), BuildingBlock: AJUNOK_clean_linker_0, # of connection points: 2
#     Edge 81, Type (0, 0), BuildingBlock: AJUNOK_clean_linker_0, # of connection points: 2
#     Edge 82, Type (0, 0), BuildingBlock: AJUNOK_clean_linker_0, # of connection points: 2
#     Edge 83, Type (0, 0), BuildingBlock: AJUNOK_clean_linker_0, # of connection points: 2
#     Edge 84, Type (0, 0), BuildingBlock: AJUNOK_clean_linker_0, # of connection points: 2
#     Edge 85, Type (0, 0), BuildingBlock: AJUNOK_clean_linker_0, # of connection points: 2
#     Edge 86, Type (0, 0), BuildingBlock: AJUNOK_clean_linker_0, # of connection points: 2
#     Edge 87, Type (0, 0), BuildingBlock: AJUNOK_clean_linker_0, # of connection points: 2
#     Edge 88, Type (0, 0), BuildingBlock: AJUNOK_clean_linker_0, # of connection points: 2
#     Edge 89, Type (0, 0), BuildingBlock: AJUNOK_clean_linker_0, # of connection points: 2
#     Edge 90, Type (0, 0), BuildingBlock: AJUNOK_clean_linker_0, # of connection points: 2
#     Edge 91, Type (0, 0), BuildingBlock: AJUNOK_clean_linker_0, # of connection points: 2
#     Edge 92, Type (0, 0), BuildingBlock: AJUNOK_clean_linker_0, # of connection points: 2
#     Edge 93, Type (0, 0), BuildingBlock: AJUNOK_clean_linker_0, # of connection points: 2
#     Edge 94, Type (0, 0), BuildingBlock: AJUNOK_clean_linker_0, # of connection points: 2
#     Edge 95, Type (0, 0), BuildingBlock: AJUNOK_clean_linker_0, # of connection points: 2
#     Edge 96, Type (0, 0), BuildingBlock: AJUNOK_clean_linker_0, # of connection points: 2
#     Edge 97, Type (0, 0), BuildingBlock: AJUNOK_clean_linker_0, # of connection points: 2
#     Edge 98, Type (0, 0), BuildingBlock: AJUNOK_clean_linker_0, # of connection points: 2
#     Edge 99, Type (0, 0), BuildingBlock: AJUNOK_clean_linker_0, # of connection points: 2
#     Edge 100, Type (0, 0), BuildingBlock: AJUNOK_clean_linker_0, # of connection points: 2
#     Edge 101, Type (0, 0), BuildingBlock: AJUNOK_clean_linker_0, # of connection points: 2
#     Edge 102, Type (0, 0), BuildingBlock: AJUNOK_clean_linker_0, # of connection points: 2
#     Edge 103, Type (0, 0), BuildingBlock: AJUNOK_clean_linker_0, # of connection points: 2
#     Edge 104, Type (0, 0), BuildingBlock: AJUNOK_clean_linker_0, # of connection points: 2
#     Edge 105, Type (0, 0), BuildingBlock: AJUNOK_clean_linker_0, # of connection points: 2
#     Edge 106, Type (0, 0), BuildingBlock: AJUNOK_clean_linker_0, # of connection points: 2
#     Edge 107, Type (0, 0), BuildingBlock: AJUNOK_clean_linker_0, # of connection points: 2
#     Edge 108, Type (0, 0), BuildingBlock: AJUNOK_clean_linker_0, # of connection points: 2
#     Edge 109, Type (0, 0), BuildingBlock: AJUNOK_clean_linker_0, # of connection points: 2
#     Edge 110, Type (0, 0), BuildingBlock: AJUNOK_clean_linker_0, # of connection points: 2
#     Edge 111, Type (0, 0), BuildingBlock: AJUNOK_clean_linker_0, # of connection points: 2
#     Edge 112, Type (0, 0), BuildingBlock: AJUNOK_clean_linker_0, # of connection points: 2
#     Edge 113, Type (0, 0), BuildingBlock: AJUNOK_clean_linker_0, # of connection points: 2
#     Edge 114, Type (0, 0), BuildingBlock: AJUNOK_clean_linker_0, # of connection points: 2
#     Edge 115, Type (0, 0), BuildingBlock: AJUNOK_clean_linker_0, # of connection points: 2
#     Edge 116, Type (0, 0), BuildingBlock: AJUNOK_clean_linker_0, # of connection points: 2
#     Edge 117, Type (0, 0), BuildingBlock: AJUNOK_clean_linker_0, # of connection points: 2
#     Edge 118, Type (0, 0), BuildingBlock: AJUNOK_clean_linker_0, # of connection points: 2
#     Edge 119, Type (0, 0), BuildingBlock: AJUNOK_clean_linker_0, # of connection points: 2
#     Edge 120, Type (0, 0), BuildingBlock: AJUNOK_clean_linker_0, # of connection points: 2
#     Edge 121, Type (0, 0), BuildingBlock: AJUNOK_clean_linker_0, # of connection points: 2
#     Edge 122, Type (0, 0), BuildingBlock: AJUNOK_clean_linker_0, # of connection points: 2
#     Edge 123, Type (0, 0), BuildingBlock: AJUNOK_clean_linker_0, # of connection points: 2
#     Edge 124, Type (0, 0), BuildingBlock: AJUNOK_clean_linker_0, # of connection points: 2
#     Edge 125, Type (0, 0), BuildingBlock: AJUNOK_clean_linker_0, # of connection points: 2
#     Edge 126, Type (0, 0), BuildingBlock: AJUNOK_clean_linker_0, # of connection points: 2
#     Edge 127, Type (0, 0), BuildingBlock: AJUNOK_clean_linker_0, # of connection points: 2
#     Edge 128, Type (0, 0), BuildingBlock: AJUNOK_clean_linker_0, # of connection points: 2
#     Edge 129, Type (0, 0), BuildingBlock: AJUNOK_clean_linker_0, # of connection points: 2
#     Edge 130, Type (0, 0), BuildingBlock: AJUNOK_clean_linker_0, # of connection points: 2
#     Edge 131, Type (0, 0), BuildingBlock: AJUNOK_clean_linker_0, # of connection points: 2
#     Edge 132, Type (0, 0), BuildingBlock: AJUNOK_clean_linker_0, # of connection points: 2
#     Edge 133, Type (0, 0), BuildingBlock: AJUNOK_clean_linker_0, # of connection points: 2
#     Edge 134, Type (0, 0), BuildingBlock: AJUNOK_clean_linker_0, # of connection points: 2
#     Edge 135, Type (0, 0), BuildingBlock: AJUNOK_clean_linker_0, # of connection points: 2
#     Edge 136, Type (0, 0), BuildingBlock: AJUNOK_clean_linker_0, # of connection points: 2
#     Edge 137, Type (0, 0), BuildingBlock: AJUNOK_clean_linker_0, # of connection points: 2
#     Edge 138, Type (0, 0), BuildingBlock: AJUNOK_clean_linker_0, # of connection points: 2
#     Edge 139, Type (0, 0), BuildingBlock: AJUNOK_clean_linker_0, # of connection points: 2
#     Edge 140, Type (0, 0), BuildingBlock: AJUNOK_clean_linker_0, # of connection points: 2
#     Edge 141, Type (0, 0), BuildingBlock: AJUNOK_clean_linker_0, # of connection points: 2
#     Edge 142, Type (0, 0), BuildingBlock: AJUNOK_clean_linker_0, # of connection points: 2
#     Edge 143, Type (0, 0), BuildingBlock: AJUNOK_clean_linker_0, # of connection points: 2
# Relax obj value: 0.186
# Max RMSD: 0.214
# Mean RMSD: 0.197
data_MOF--net-ana--node1-NAHDIM_clean_sbu_0--edge1-AJUNOK_clean_linker_0
_symmetry_space_group_name_H-M    P1
_symmetry_Int_Tables_number       1
_symmetry_cell_setting            triclinic
loop_
_symmetry_equiv_pos_as_xyz
'x, y, z'
_cell_length_a     49.071698
_cell_length_b     46.807342
_cell_length_c     46.814829
_cell_angle_alpha  90.015682
_cell_angle_beta   90.203241
_cell_angle_gamma 90.542305
loop_
_atom_site_label
_atom_site_type_symbol
_atom_site_fract_x
_atom_site_fract_y
_atom_site_fract_z
_atom_type_partial_charge
C0 C 0.13786 0.205 0.39962 0.0
O1 O 0.15978 0.19 0.39444 0.0
O2 O 0.14608 0.13026 0.40631 0.0
Zn3 Zn 0.11402 0.15156 0.42123 0.0
O4 O 0.07919 0.13744 0.40387 0.0
C5 C 0.09307 0.1409 0.47887 0.0
O6 O 0.06958 0.13554 0.46635 0.0
O7 O 0.11725 0.19298 0.41094 0.0
C8 C 0.07104 0.11173 0.4014 0.0
O9 O 0.0865 0.09099 0.41085 0.0
C10 C 0.15034 0.12583 0.37996 0.0
O11 O 0.1324 0.13474 0.36113 0.0
O12 O 0.11355 0.14796 0.46382 0.0
C13 C 0.1281 0.88029 0.70176 0.0
O14 O 0.14831 0.88535 0.68407 0.0
O15 O 0.11566 0.84352 0.63135 0.0
Zn16 Zn 0.0996 0.87856 0.64934 0.0
O17 O 0.11858 0.91444 0.63722 0.0
C18 C 0.04966 0.86628 0.61986 0.0
O19 O 0.06623 0.8525 0.60285 0.0
O20 O 0.10435 0.87622 0.69168 0.0
C21 C 0.11479 0.92861 0.6145 0.0
O22 O 0.09724 0.91907 0.59542 0.0
C23 C 0.11331 0.82039 0.64537 0.0
O24 O 0.10145 0.82097 0.67047 0.0
O25 O 0.05951 0.88 0.64095 0.0
C26 C 0.35725 0.73851 0.88309 0.0
O27 O 0.33268 0.74873 0.87912 0.0
O28 O 0.33413 0.80984 0.88463 0.0
Zn29 Zn 0.37202 0.79776 0.89532 0.0
O30 O 0.39928 0.81753 0.87017 0.0
C31 C 0.36219 0.80009 0.9549 0.0
O32 O 0.34345 0.78126 0.94746 0.0
O33 O 0.37644 0.7554 0.8905 0.0
C34 C 0.40676 0.84327 0.87432 0.0
O35 O 0.39602 0.85758 0.89554 0.0
C36 C 0.32464 0.83285 0.89482 0.0
O37 O 0.34022 0.84869 0.91144 0.0
O38 O 0.37848 0.80932 0.93595 0.0
C39 C 0.36997 0.11544 0.18477 0.0
O40 O 0.35009 0.12381 0.16797 0.0
O41 O 0.37768 0.14494 0.11739 0.0
Zn42 Zn 0.39938 0.11193 0.13184 0.0
O43 O 0.38971 0.07444 0.11377 0.0
C44 C 0.4516 0.13652 0.14375 0.0
O45 O 0.43769 0.1488 0.1642 0.0
O46 O 0.39265 0.10869 0.17383 0.0
C47 C 0.36544 0.06641 0.10849 0.0
O48 O 0.3454 0.08421 0.11314 0.0
C49 C 0.37012 0.15056 0.09208 0.0
O50 O 0.37668 0.1332 0.07121 0.0
O51 O 0.43922 0.11985 0.12653 0.0
C52 C 0.07866 0.84131 0.01516 0.0
O53 O 0.05601 0.8508 0.02644 0.0
O54 O 0.06527 0.85911 0.08586 0.0
Zn55 Zn 0.09662 0.8349 0.07408 0.0
O56 O 0.13204 0.85244 0.08643 0.0
C57 C 0.0797 0.7908 0.11335 0.0
O58 O 0.06896 0.81253 0.12683 0.0
O59 O 0.09772 0.83287 0.03145 0.0
C60 C 0.14454 0.84604 0.10929 0.0
O61 O 0.13343 0.82755 0.12696 0.0
C62 C 0.06411 0.87384 0.10858 0.0
O63 O 0.08495 0.87427 0.12626 0.0
O64 O 0.09252 0.79526 0.09022 0.0
C65 C 0.45416 0.88603 0.34938 0.0
O66 O 0.43536 0.88184 0.36887 0.0
O67 O 0.38559 0.91856 0.32165 0.0
Zn68 Zn 0.40711 0.88311 0.31493 0.0
O69 O 0.39419 0.85044 0.33902 0.0
C70 C 0.3776 0.87064 0.26532 0.0
O71 O 0.35801 0.87384 0.28407 0.0
O72 O 0.44681 0.88885 0.32351 0.0
C73 C 0.37089 0.84597 0.34992 0.0
O74 O 0.35102 0.86398 0.34516 0.0
C75 C 0.37968 0.93001 0.34537 0.0
O76 O 0.3888 0.91882 0.36924 0.0
O77 O 0.40213 0.87299 0.27373 0.0
C78 C 0.39252 0.16429 0.50425 0.0
O79 O 0.41596 0.15896 0.51667 0.0
O80 O 0.40613 0.1494 0.57567 0.0
Zn81 Zn 0.3727 0.16957 0.5623 0.0
O82 O 0.33933 0.14774 0.57366 0.0
C83 C 0.39251 0.22535 0.57496 0.0
O84 O 0.41272 0.21625 0.55913 0.0
O85 O 0.37221 0.17084 0.51958 0.0
C86 C 0.32532 0.15325 0.59566 0.0
O87 O 0.33353 0.17371 0.61299 0.0
C88 C 0.41161 0.14606 0.60195 0.0
O89 O 0.39444 0.15558 0.62113 0.0
O90 O 0.37217 0.20892 0.57897 0.0
C91 C 0.02486 0.0853 0.86712 0.0
O92 O 0.03987 0.06383 0.87566 0.0
O93 O 0.09928 0.08084 0.85827 0.0
Zn94 Zn 0.07613 0.11518 0.85156 0.0
O95 O 0.08804 0.14874 0.87526 0.0
C96 C 0.10571 0.12887 0.8019 0.0
O97 O 0.12575 0.1264 0.82038 0.0
O98 O 0.03624 0.1077 0.8573 0.0
C99 C 0.11162 0.15242 0.88601 0.0
O100 O 0.13002 0.13247 0.8829 0.0
C101 C 0.10529 0.06855 0.88158 0.0
O102 O 0.09469 0.0776 0.90563 0.0
O103 O 0.0814 0.12552 0.81052 0.0
C104 C 0.21472 0.40167 0.14469 0.0
O105 O 0.19925 0.39626 0.1669 0.0
O106 O 0.14166 0.40829 0.14859 0.0
Zn107 Zn 0.16482 0.42137 0.11586 0.0
O108 O 0.15388 0.40215 0.07928 0.0
C109 C 0.13668 0.47194 0.10298 0.0
O110 O 0.11853 0.45268 0.09507 0.0
O111 O 0.20428 0.41255 0.12237 0.0
C112 C 0.13151 0.38922 0.07416 0.0
O113 O 0.1128 0.38786 0.09411 0.0
C114 C 0.13834 0.38264 0.15678 0.0
O115 O 0.15062 0.36199 0.14302 0.0
O116 O 0.15963 0.46359 0.11218 0.0
C117 C 0.61714 0.02353 0.86291 0.0
O118 O 0.59887 0.04384 0.8616 0.0
O119 O 0.63491 0.08346 0.91161 0.0
Zn120 Zn 0.64906 0.07228 0.8733 0.0
O121 O 0.63 0.09327 0.84166 0.0
C122 C 0.69717 0.10303 0.88702 0.0
O123 O 0.67879 0.11833 0.90025 0.0
O124 O 0.64182 0.03032 0.86798 0.0
C125 C 0.63413 0.11904 0.83413 0.0
O126 O 0.65206 0.13468 0.84811 0.0
C127 C 0.61414 0.09839 0.91711 0.0
O128 O 0.59845 0.10699 0.89607 0.0
O129 O 0.68936 0.08122 0.87289 0.0
C130 C 0.85372 0.96181 0.41117 0.0
O131 O 0.86362 0.94448 0.43057 0.0
O132 O 0.83778 0.8893 0.42275 0.0
Zn133 Zn 0.83026 0.91012 0.38631 0.0
O134 O 0.85251 0.89557 0.354 0.0
C135 C 0.77508 0.92533 0.36962 0.0
O136 O 0.78396 0.95183 0.37138 0.0
O137 O 0.83898 0.95165 0.39116 0.0
C138 C 0.8466 0.87191 0.34213 0.0
O139 O 0.82676 0.8562 0.35275 0.0
C140 C 0.85813 0.87326 0.42699 0.0
O141 O 0.87542 0.86893 0.40612 0.0
O142 O 0.79102 0.90493 0.37559 0.0
C143 C 0.84758 0.03627 0.13534 0.0
O144 O 0.86853 0.05169 0.12682 0.0
O145 O 0.84297 0.10599 0.10503 0.0
Zn146 Zn 0.82471 0.09168 0.14081 0.0
O147 O 0.84445 0.10595 0.17557 0.0
C148 C 0.77993 0.12785 0.12854 0.0
O149 O 0.79985 0.14377 0.11839 0.0
O150 O 0.8258 0.04881 0.14243 0.0
C151 C 0.8419 0.13019 0.18739 0.0
O152 O 0.82495 0.14879 0.17641 0.0
C153 C 0.83892 0.09229 0.08196 0.0
O154 O 0.82342 0.06926 0.08236 0.0
O155 O 0.7857 0.10421 0.14029 0.0
C156 C 0.35391 0.53131 0.60463 0.0
O157 O 0.37037 0.55361 0.60473 0.0
O158 O 0.32289 0.59836 0.57595 0.0
Zn159 Zn 0.31684 0.57598 0.61192 0.0
O160 O 0.34004 0.59087 0.64401 0.0
C161 C 0.26621 0.5865 0.64363 0.0
O162 O 0.282 0.59502 0.66474 0.0
O163 O 0.3284 0.53538 0.60627 0.0
C164 C 0.34311 0.61597 0.65386 0.0
O165 O 0.32857 0.63698 0.64343 0.0
C166 C 0.34425 0.61276 0.57025 0.0
O167 O 0.36437 0.61357 0.58881 0.0
O168 O 0.2769 0.57746 0.6207 0.0
C169 C 0.13923 0.52159 0.36325 0.0
O170 O 0.1187 0.53869 0.36827 0.0
O171 O 0.15019 0.58382 0.40716 0.0
Zn172 Zn 0.16768 0.57387 0.36983 0.0
O173 O 0.14954 0.59367 0.33689 0.0
C174 C 0.21851 0.60588 0.363 0.0
O175 O 0.20286 0.62546 0.3516 0.0
O176 O 0.16321 0.53195 0.36329 0.0
C177 C 0.16005 0.58993 0.31244 0.0
O178 O 0.18228 0.57465 0.31043 0.0
C179 C 0.15003 0.60915 0.4169 0.0
O180 O 0.16093 0.62977 0.40158 0.0
O181 O 0.20775 0.5828 0.37193 0.0
C182 C 0.29882 0.34313 0.84943 0.0
O183 O 0.31539 0.32332 0.84018 0.0
O184 O 0.3685 0.35692 0.82823 0.0
Zn185 Zn 0.34932 0.37268 0.86256 0.0
O186 O 0.36248 0.35432 0.89886 0.0
C187 C 0.35643 0.43024 0.84202 0.0
O188 O 0.34921 0.41829 0.81771 0.0
O189 O 0.30889 0.3662 0.85939 0.0
C190 C 0.3781 0.36799 0.91585 0.0
O191 O 0.38729 0.39334 0.90844 0.0
C192 C 0.39243 0.36598 0.82289 0.0
O193 O 0.4043 0.3837 0.84091 0.0
O194 O 0.35699 0.41499 0.86442 0.0
C195 C 0.83402 0.87033 0.64425 0.0
O196 O 0.83976 0.84658 0.65783 0.0
O197 O 0.8708 0.81198 0.619 0.0
Zn198 Zn 0.87653 0.85221 0.60553 0.0
O199 O 0.87042 0.85485 0.56324 0.0
C200 C 0.93314 0.84561 0.60991 0.0
O201 O 0.92534 0.81983 0.60217 0.0
O202 O 0.8486 0.87769 0.62307 0.0
C203 C 0.88042 0.83903 0.54394 0.0
O204 O 0.89635 0.81783 0.55115 0.0
C205 C 0.85488 0.79389 0.60728 0.0
O206 O 0.84067 0.80132 0.58469 0.0
O207 O 0.91514 0.86451 0.614 0.0
C208 C 0.95903 0.09737 0.36328 0.0
O209 O 0.94631 0.07269 0.36077 0.0
O210 O 0.88675 0.08855 0.37112 0.0
Zn211 Zn 0.90528 0.12329 0.35567 0.0
O212 O 0.89332 0.15807 0.37665 0.0
C213 C 0.88668 0.14712 0.30106 0.0
O214 O 0.88179 0.17055 0.31553 0.0
O215 O 0.94562 0.12038 0.36118 0.0
C216 C 0.8689 0.16506 0.38186 0.0
O217 O 0.84877 0.14886 0.37248 0.0
C218 C 0.89125 0.07846 0.39584 0.0
O219 O 0.90826 0.09191 0.41303 0.0
O220 O 0.89658 0.12564 0.31387 0.0
C221 C 0.66888 0.159 0.09951 0.0
O222 O 0.66598 0.17837 0.07943 0.0
O223 O 0.61317 0.20186 0.09048 0.0
Zn224 Zn 0.61382 0.15917 0.08873 0.0
O225 O 0.61619 0.14535 0.04849 0.0
C226 C 0.56702 0.15876 0.12499 0.0
O227 O 0.57896 0.18185 0.13519 0.0
O228 O 0.6477 0.14629 0.10882 0.0
C229 C 0.59593 0.14115 0.03202 0.0
O230 O 0.57131 0.14751 0.04079 0.0
C231 C 0.60384 0.21851 0.0715 0.0
O232 O 0.59427 0.20777 0.04754 0.0
O233 O 0.57918 0.1443 0.10601 0.0
C234 C 0.50324 0.88381 0.8149 0.0
O235 O 0.51528 0.9081 0.82153 0.0
O236 O 0.57121 0.90502 0.80982 0.0
Zn237 Zn 0.55603 0.8696 0.79117 0.0
O238 O 0.57387 0.83355 0.8046 0.0
C239 C 0.57443 0.85692 0.73372 0.0
O240 O 0.58268 0.8329 0.7452 0.0
O241 O 0.51638 0.8653 0.80079 0.0
C242 C 0.59872 0.8287 0.81034 0.0
O243 O 0.61696 0.84928 0.80808 0.0
C244 C 0.58419 0.90782 0.83318 0.0
O245 O 0.5894 0.88528 0.8489 0.0
O246 O 0.56157 0.87469 0.749 0.0
C247 C 0.91114 0.0962 0.89644 0.0
O248 O 0.90143 0.08195 0.91839 0.0
O249 O 0.86791 0.12235 0.94956 0.0
Zn250 Zn 0.86714 0.13517 0.90871 0.0
O251 O 0.87044 0.178 0.90537 0.0
C252 C 0.81098 0.13409 0.90545 0.0
O253 O 0.81622 0.15306 0.92549 0.0
O254 O 0.89879 0.11839 0.88796 0.0
C255 C 0.86112 0.18969 0.88292 0.0
O256 O 0.84955 0.1735 0.86334 0.0
C257 C 0.86879 0.1384 0.97139 0.0
O258 O 0.87043 0.16622 0.96791 0.0
O259 O 0.83091 0.1223 0.893 0.0
C260 C 0.52124 0.11589 0.63627 0.0
O261 O 0.54034 0.114 0.61681 0.0
O262 O 0.5883 0.08746 0.65969 0.0
Zn263 Zn 0.56826 0.12311 0.67004 0.0
O264 O 0.58058 0.15678 0.64679 0.0
C265 C 0.58923 0.14813 0.72352 0.0
O266 O 0.59956 0.16849 0.70747 0.0
O267 O 0.52831 0.11864 0.66226 0.0
C268 C 0.60471 0.16454 0.64063 0.0
O269 O 0.62544 0.15024 0.65095 0.0
C270 C 0.60044 0.08201 0.63643 0.0
O271 O 0.59976 0.10068 0.61551 0.0
O272 O 0.57472 0.12866 0.712 0.0
C273 C 0.56642 0.86374 0.38125 0.0
O274 O 0.57052 0.85185 0.40631 0.0
O275 O 0.62405 0.8676 0.42142 0.0
Zn276 Zn 0.62188 0.85359 0.38121 0.0
O277 O 0.6223 0.81074 0.3809 0.0
C278 C 0.66105 0.89527 0.36439 0.0
O279 O 0.64403 0.91217 0.37769 0.0
O280 O 0.58662 0.86718 0.36468 0.0
C281 C 0.64337 0.79634 0.37498 0.0
O282 O 0.66622 0.80974 0.36871 0.0
C283 C 0.64554 0.8653 0.43633 0.0
O284 O 0.66671 0.8523 0.4254 0.0
O285 O 0.65448 0.8692 0.36103 0.0
C286 C 0.95278 0.88887 0.14204 0.0
O287 O 0.9336 0.89217 0.12272 0.0
O288 O 0.88624 0.90447 0.15307 0.0
Zn289 Zn 0.90628 0.87309 0.17304 0.0
O290 O 0.8983 0.83394 0.15782 0.0
C291 C 0.88826 0.8523 0.2281 0.0
O292 O 0.88428 0.82836 0.21404 0.0
O293 O 0.94599 0.88068 0.1669 0.0
C294 C 0.87865 0.82498 0.14248 0.0
O295 O 0.86056 0.84316 0.13289 0.0
C296 C 0.86628 0.91771 0.16377 0.0
O297 O 0.85556 0.9083 0.18771 0.0
O298 O 0.89793 0.87391 0.215 0.0
C299 C 0.78198 0.59213 0.84737 0.0
O300 O 0.79745 0.59155 0.82456 0.0
O301 O 0.85423 0.58877 0.84655 0.0
Zn302 Zn 0.83068 0.57246 0.87766 0.0
O303 O 0.84151 0.58715 0.91648 0.0
C304 C 0.85502 0.51806 0.88664 0.0
O305 O 0.87376 0.5344 0.8986 0.0
O306 O 0.79177 0.58415 0.87123 0.0
C307 C 0.86397 0.59911 0.92329 0.0
O308 O 0.88298 0.60227 0.90384 0.0
C309 C 0.85614 0.61531 0.84118 0.0
O310 O 0.84316 0.63344 0.85754 0.0
O311 O 0.83382 0.52968 0.87642 0.0
C312 C 0.25908 0.87566 0.12114 0.0
O313 O 0.27339 0.86394 0.14172 0.0
O314 O 0.32665 0.88394 0.13923 0.0
Zn315 Zn 0.31207 0.89317 0.10039 0.0
O316 O 0.32574 0.86583 0.07077 0.0
C317 C 0.34406 0.94476 0.09889 0.0
O318 O 0.36213 0.92806 0.11093 0.0
O319 O 0.27138 0.88919 0.10143 0.0
C320 C 0.34763 0.86864 0.05664 0.0
O321 O 0.36343 0.89097 0.06128 0.0
C322 C 0.34866 0.87115 0.14513 0.0
O323 O 0.36447 0.86246 0.12435 0.0
O324 O 0.32122 0.93417 0.09135 0.0
C325 C 0.21681 0.10474 0.61058 0.0
O326 O 0.20464 0.09014 0.59017 0.0
O327 O 0.15132 0.11258 0.67441 0.0
Zn328 Zn 0.16375 0.10123 0.63546 0.0
O329 O 0.14362 0.12105 0.60403 0.0
C330 C 0.15371 0.0458 0.60813 0.0
O331 O 0.15199 0.06052 0.58432 0.0
O332 O 0.20322 0.11168 0.63247 0.0
C333 C 0.11949 0.11449 0.59639 0.0
O334 O 0.10585 0.09532 0.61121 0.0
C335 C 0.13031 0.12675 0.68096 0.0
O336 O 0.11413 0.1361 0.66069 0.0
O337 O 0.15876 0.05869 0.6315 0.0
C338 C 0.21244 0.8681 0.87671 0.0
O339 O 0.19424 0.85145 0.86431 0.0
O340 O 0.15898 0.89712 0.83676 0.0
Zn341 Zn 0.16592 0.90167 0.87858 0.0
O342 O 0.14301 0.87543 0.90221 0.0
C343 C 0.16402 0.96208 0.8727 0.0
O344 O 0.17864 0.95599 0.85009 0.0
O345 O 0.20505 0.89247 0.88562 0.0
C346 C 0.11802 0.88031 0.90688 0.0
O347 O 0.10649 0.90214 0.89418 0.0
C348 C 0.14221 0.87997 0.82501 0.0
O349 O 0.12692 0.8633 0.841 0.0
O350 O 0.15715 0.94193 0.8894 0.0
C351 C 0.7247 0.38679 0.35505 0.0
O352 O 0.70789 0.36925 0.34176 0.0
O353 O 0.66035 0.40067 0.3284 0.0
Zn354 Zn 0.67478 0.41489 0.36606 0.0
O355 O 0.65997 0.39262 0.39951 0.0
C356 C 0.64336 0.46534 0.3603 0.0
O357 O 0.62619 0.44653 0.34949 0.0
O358 O 0.71518 0.40905 0.36679 0.0
C359 C 0.63722 0.39613 0.41184 0.0
O360 O 0.62038 0.41542 0.40199 0.0
C361 C 0.6395 0.38479 0.32473 0.0
O362 O 0.62566 0.37595 0.34704 0.0
O363 O 0.66633 0.45684 0.36942 0.0
C364 C 0.79011 0.38504 0.65345 0.0
O365 O 0.80826 0.36862 0.66573 0.0
O366 O 0.85683 0.4107 0.67684 0.0
Zn367 Zn 0.8373 0.41949 0.64031 0.0
O368 O 0.85284 0.39844 0.60707 0.0
C369 C 0.84602 0.47414 0.61084 0.0
O370 O 0.84844 0.45897 0.5874 0.0
O371 O 0.79787 0.40849 0.64233 0.0
C372 C 0.87724 0.39996 0.59823 0.0
O373 O 0.89501 0.41582 0.61225 0.0
C374 C 0.86973 0.38796 0.68237 0.0
O375 O 0.87054 0.36746 0.66324 0.0
O376 O 0.84078 0.46167 0.63432 0.0
C377 C 0.69401 0.593 0.13081 0.0
O378 O 0.68303 0.60031 0.15526 0.0
O379 O 0.62031 0.59849 0.14445 0.0
Zn380 Zn 0.63789 0.58346 0.10903 0.0
O381 O 0.62465 0.60268 0.07349 0.0
C382 C 0.60301 0.53526 0.10016 0.0
O383 O 0.58584 0.55537 0.09289 0.0
O384 O 0.67879 0.58582 0.10997 0.0
C385 C 0.63646 0.62472 0.06341 0.0
O386 O 0.65656 0.63651 0.07795 0.0
C387 C 0.62259 0.62293 0.156 0.0
O388 O 0.63801 0.6426 0.14401 0.0
O389 O 0.62719 0.54229 0.10715 0.0
C390 C 0.62119 0.71286 0.84691 0.0
O391 O 0.61008 0.69148 0.83276 0.0
O392 O 0.66275 0.64453 0.87469 0.0
Zn393 Zn 0.63063 0.66793 0.88674 0.0
O394 O 0.59485 0.64957 0.87546 0.0
C395 C 0.62167 0.64769 0.94261 0.0
O396 O 0.61116 0.6267 0.9274 0.0
O397 O 0.63237 0.70798 0.87091 0.0
C398 C 0.59056 0.63197 0.85524 0.0
O399 O 0.61089 0.62427 0.83886 0.0
C400 C 0.67656 0.64772 0.85199 0.0
O401 O 0.66918 0.66715 0.83334 0.0
O402 O 0.63159 0.66925 0.92967 0.0
C403 C 0.60396 0.36879 0.20722 0.0
O404 O 0.62176 0.37199 0.18653 0.0
O405 O 0.58741 0.33715 0.13817 0.0
Zn406 Zn 0.56863 0.36812 0.15952 0.0
O407 O 0.57985 0.40612 0.14381 0.0
C408 C 0.51964 0.3362 0.15818 0.0
O409 O 0.53669 0.31622 0.16613 0.0
O410 O 0.5789 0.36633 0.20084 0.0
C411 C 0.56583 0.41996 0.12575 0.0
O412 O 0.54269 0.40903 0.11649 0.0
C413 C 0.5808 0.33221 0.11237 0.0
O414 O 0.56308 0.34897 0.09984 0.0
O415 O 0.52857 0.36154 0.15495 0.0
C416 C 0.85223 0.2802 0.42268 0.0
O417 O 0.82803 0.29197 0.42295 0.0
O418 O 0.84163 0.35578 0.40989 0.0
Zn419 Zn 0.87446 0.3385 0.42844 0.0
O420 O 0.90873 0.35255 0.40968 0.0
C421 C 0.89582 0.3559 0.48401 0.0
O422 O 0.91963 0.35572 0.47129 0.0
O423 O 0.87339 0.29587 0.42499 0.0
C424 C 0.91769 0.33973 0.38775 0.0
O425 O 0.90368 0.31809 0.37724 0.0
C426 C 0.83312 0.34861 0.38523 0.0
O427 O 0.84663 0.32948 0.37062 0.0
O428 O 0.87456 0.34917 0.46985 0.0
C429 C 0.89747 0.64705 0.7294 0.0
O430 O 0.89826 0.67349 0.72007 0.0
O431 O 0.88598 0.67059 0.65965 0.0
Zn432 Zn 0.90216 0.63259 0.66917 0.0
O433 O 0.88106 0.60027 0.65141 0.0
C434 C 0.94792 0.64515 0.63348 0.0
O435 O 0.92923 0.65964 0.61969 0.0
O436 O 0.89995 0.62671 0.71163 0.0
C437 C 0.88499 0.58989 0.62669 0.0
O438 O 0.90328 0.60178 0.60998 0.0
C439 C 0.86904 0.67573 0.63978 0.0
O440 O 0.86054 0.65478 0.62325 0.0
O441 O 0.94117 0.63161 0.65594 0.0
C442 C 0.62102 0.34211 0.52231 0.0
O443 O 0.59715 0.33898 0.53456 0.0
O444 O 0.60897 0.347 0.5966 0.0
Zn445 Zn 0.64205 0.32962 0.57909 0.0
O446 O 0.67522 0.34723 0.59687 0.0
C447 C 0.6191 0.27384 0.5839 0.0
O448 O 0.59801 0.28738 0.57338 0.0
O449 O 0.64254 0.3379 0.53688 0.0
C450 C 0.6843 0.33911 0.62094 0.0
O451 O 0.67138 0.31871 0.63479 0.0
C452 C 0.60196 0.37256 0.59157 0.0
O453 O 0.61737 0.38867 0.57514 0.0
O454 O 0.64133 0.28754 0.5873 0.0
C455 C 0.97653 0.3807 0.86242 0.0
O456 O 0.96336 0.40498 0.86335 0.0
O457 O 0.90592 0.3912 0.87044 0.0
Zn458 Zn 0.92267 0.3565 0.85239 0.0
O459 O 0.90742 0.3198 0.86855 0.0
C460 C 0.91677 0.38008 0.79609 0.0
O461 O 0.92524 0.40345 0.80906 0.0
O462 O 0.96328 0.35762 0.85805 0.0
C463 C 0.88642 0.30851 0.85705 0.0
O464 O 0.87434 0.3221 0.83606 0.0
C465 C 0.88244 0.39979 0.86303 0.0
O466 O 0.86814 0.38439 0.84482 0.0
O467 O 0.91468 0.35712 0.81034 0.0
C468 C 0.875 0.64064 0.04027 0.0
O469 O 0.89762 0.65174 0.05069 0.0
O470 O 0.88626 0.63571 0.11824 0.0
Zn471 Zn 0.85349 0.6506 0.0974 0.0
O472 O 0.81852 0.63662 0.11486 0.0
C473 C 0.86235 0.70307 0.12433 0.0
O474 O 0.86655 0.68504 0.14534 0.0
O475 O 0.85424 0.6385 0.05629 0.0
C476 C 0.80848 0.61286 0.1067 0.0
O477 O 0.82233 0.59724 0.08863 0.0
C478 C 0.89724 0.61153 0.1148 0.0
O479 O 0.88629 0.5933 0.09665 0.0
O480 O 0.8551 0.69339 0.1001 0.0
C481 C 0.53898 0.63666 0.36631 0.0
O482 O 0.55859 0.63159 0.38475 0.0
O483 O 0.59578 0.59465 0.34367 0.0
Zn484 Zn 0.58491 0.6342 0.33219 0.0
O485 O 0.6036 0.66503 0.35472 0.0
C486 C 0.57975 0.62779 0.27118 0.0
O487 O 0.55925 0.61101 0.27832 0.0
O488 O 0.54498 0.63824 0.33997 0.0
C489 C 0.62506 0.67769 0.3462 0.0
O490 O 0.63753 0.66798 0.32343 0.0
C491 C 0.61972 0.58643 0.34957 0.0
O492 O 0.63989 0.60508 0.34907 0.0
O493 O 0.5933 0.64019 0.29076 0.0
C494 C 0.72342 0.91075 0.64267 0.0
O495 O 0.70493 0.90445 0.66194 0.0
O496 O 0.65306 0.89903 0.63273 0.0
Zn497 Zn 0.67667 0.92196 0.60616 0.0
O498 O 0.67287 0.90594 0.5667 0.0
C499 C 0.65859 0.97435 0.63014 0.0
O500 O 0.66264 0.95998 0.65386 0.0
O501 O 0.71584 0.91931 0.61816 0.0
C502 C 0.6541 0.91457 0.55017 0.0
O503 O 0.6375 0.93442 0.55922 0.0
C504 C 0.62746 0.90276 0.63355 0.0
O505 O 0.61632 0.92119 0.61599 0.0
O506 O 0.66424 0.96263 0.60648 0.0
C507 C 0.31821 0.3463 0.12808 0.0
O508 O 0.32632 0.32571 0.14509 0.0
O509 O 0.34985 0.28388 0.0917 0.0
Zn510 Zn 0.35995 0.32552 0.08936 0.0
O511 O 0.3674 0.33779 0.04913 0.0
C512 C 0.41076 0.31182 0.11533 0.0
O513 O 0.40481 0.28681 0.10412 0.0
O514 O 0.32972 0.34961 0.10406 0.0
C515 C 0.38188 0.32441 0.03122 0.0
O516 O 0.39273 0.29985 0.03826 0.0
C517 C 0.34157 0.26769 0.07161 0.0
O518 O 0.33714 0.27842 0.04612 0.0
O519 O 0.39407 0.33219 0.11218 0.0
C520 C 0.47753 0.59793 0.83694 0.0
O521 O 0.46079 0.59818 0.85879 0.0
O522 O 0.41219 0.55414 0.81681 0.0
Zn523 Zn 0.42684 0.59334 0.80819 0.0
O524 O 0.41122 0.62299 0.83421 0.0
C525 C 0.40591 0.62463 0.75827 0.0
O526 O 0.40368 0.64668 0.77544 0.0
O527 O 0.46765 0.59501 0.81198 0.0
C528 C 0.38601 0.62808 0.837 0.0
O529 O 0.36816 0.61264 0.82261 0.0
C530 C 0.40243 0.5454 0.84037 0.0
O531 O 0.40243 0.56262 0.86252 0.0
O532 O 0.41571 0.60144 0.76777 0.0
C533 C 0.15607 0.62619 0.63121 0.0
O534 O 0.14709 0.64675 0.6477 0.0
O535 O 0.12247 0.68754 0.60665 0.0
Zn536 Zn 0.1165 0.64814 0.59099 0.0
O537 O 0.12038 0.64798 0.54833 0.0
C538 C 0.05976 0.6515 0.59267 0.0
O539 O 0.06607 0.67238 0.57506 0.0
O540 O 0.14505 0.62231 0.60691 0.0
C541 C 0.11653 0.62465 0.53503 0.0
O542 O 0.10892 0.60196 0.5496 0.0
C543 C 0.12714 0.70985 0.59198 0.0
O544 O 0.12891 0.70776 0.56407 0.0
O545 O 0.0788 0.63605 0.60239 0.0
C546 C 0.02887 0.36161 0.35122 0.0
O547 O 0.04562 0.37298 0.37011 0.0
O548 O 0.09107 0.39407 0.33733 0.0
Zn549 Zn 0.07906 0.35541 0.32387 0.0
O550 O 0.09514 0.32507 0.34844 0.0
C551 C 0.08322 0.36949 0.26547 0.0
O552 O 0.06738 0.39015 0.27433 0.0
O553 O 0.03856 0.35245 0.32787 0.0
C554 C 0.11773 0.31295 0.34389 0.0
O555 O 0.13244 0.32086 0.32182 0.0
C556 C 0.11523 0.40323 0.33368 0.0
O557 O 0.133 0.38661 0.32116 0.0
O558 O 0.09056 0.35058 0.28322 0.0
C559 C 0.42899 0.66397 0.4024 0.0
O560 O 0.42542 0.67867 0.42598 0.0
O561 O 0.37162 0.66407 0.4437 0.0
Zn562 Zn 0.37356 0.67433 0.40221 0.0
O563 O 0.37515 0.71671 0.39783 0.0
C564 C 0.33201 0.63366 0.38725 0.0
O565 O 0.34692 0.61712 0.40358 0.0
O566 O 0.40843 0.6586 0.38664 0.0
C567 C 0.35437 0.7325 0.39553 0.0
O568 O 0.32994 0.72084 0.39651 0.0
C569 C 0.34959 0.66478 0.45777 0.0
O570 O 0.32714 0.67302 0.44496 0.0
O571 O 0.34029 0.65896 0.38232 0.0
C572 C 0.00801 0.59437 0.15471 0.0
O573 O 0.02156 0.57232 0.14506 0.0
O574 O 0.07719 0.5851 0.14318 0.0
Zn575 Zn 0.06216 0.61728 0.16625 0.0
O576 O 0.07269 0.65473 0.14889 0.0
C577 C 0.10299 0.62207 0.20859 0.0
O578 O 0.11559 0.63331 0.18655 0.0
O579 O 0.02113 0.61508 0.16594 0.0
C580 C 0.06326 0.67699 0.16058 0.0
O581 O 0.04779 0.67409 0.18328 0.0
C582 C 0.10017 0.58538 0.13078 0.0
O583 O 0.11533 0.60863 0.1314 0.0
O584 O 0.07819 0.61437 0.20585 0.0
C585 C 0.09136 0.36883 0.88997 0.0
O586 O 0.10269 0.38484 0.90986 0.0
O587 O 0.13689 0.34435 0.94284 0.0
Zn588 Zn 0.13526 0.32942 0.90293 0.0
O589 O 0.12819 0.28735 0.90455 0.0
C590 C 0.18306 0.3217 0.86688 0.0
O591 O 0.1707 0.29796 0.85898 0.0
O592 O 0.10296 0.34584 0.8826 0.0
C593 C 0.14394 0.26814 0.91395 0.0
O594 O 0.16839 0.27518 0.92322 0.0
C595 C 0.11785 0.34005 0.96068 0.0
O596 O 0.09625 0.32526 0.95271 0.0
O597 O 0.17109 0.33842 0.88405 0.0
C598 C 0.49127 0.39855 0.62456 0.0
O599 O 0.47496 0.41214 0.60703 0.0
O600 O 0.42311 0.41848 0.63647 0.0
Zn601 Zn 0.44071 0.38274 0.65125 0.0
O602 O 0.42795 0.34796 0.62968 0.0
C603 C 0.43154 0.35588 0.70691 0.0
O604 O 0.43617 0.33169 0.69365 0.0
O605 O 0.48108 0.38523 0.64568 0.0
C606 C 0.40612 0.33392 0.63427 0.0
O607 O 0.38937 0.34267 0.65419 0.0
C608 C 0.40003 0.41913 0.62409 0.0
O609 O 0.38661 0.39513 0.61975 0.0
O610 O 0.43271 0.37928 0.69319 0.0
C611 C 0.26055 0.09953 0.34542 0.0
O612 O 0.26762 0.09968 0.31838 0.0
O613 O 0.32732 0.10992 0.31681 0.0
Zn614 Zn 0.31903 0.0979 0.35702 0.0
O615 O 0.33779 0.12346 0.38545 0.0
C616 C 0.32444 0.03914 0.34423 0.0
O617 O 0.30772 0.04667 0.32366 0.0
O618 O 0.27893 0.09899 0.36458 0.0
C619 C 0.36202 0.11911 0.39394 0.0
O620 O 0.37572 0.0979 0.38281 0.0
C621 C 0.35045 0.10362 0.30661 0.0
O622 O 0.36815 0.0906 0.32304 0.0
O623 O 0.33194 0.05781 0.36235 0.0
C624 C 0.14635 0.26964 0.35178 0.0
C625 C 0.12542 0.28771 0.36113 0.0
C626 C 0.15133 0.24352 0.36538 0.0
C627 C 0.13547 0.2345 0.38872 0.0
H628 H 0.15825 0.27506 0.33307 0.0
H629 H 0.16679 0.22971 0.3566 0.0
S630 S 0.08135 0.27601 0.42455 0.0
N631 N 0.09107 0.29629 0.39753 0.0
N632 N 0.10032 0.24714 0.42281 0.0
C633 C 0.11575 0.25319 0.39948 0.0
C634 C 0.11076 0.27982 0.38577 0.0
C635 C 0.00944 0.83964 0.60072 0.0
C636 C 0.01983 0.8629 0.61646 0.0
C637 C 0.98141 0.83439 0.59881 0.0
C638 C 0.96256 0.8524 0.61222 0.0
H639 H 0.02305 0.82486 0.5903 0.0
H640 H 0.97452 0.81598 0.58666 0.0
S641 S 0.97913 0.91713 0.65488 0.0
N642 N 0.00906 0.90472 0.64504 0.0
N643 N 0.95619 0.89503 0.64108 0.0
C644 C 0.97257 0.8762 0.62745 0.0
C645 C 0.00124 0.88139 0.62969 0.0
C646 C 0.34484 0.69273 0.85842 0.0
C647 C 0.36339 0.70856 0.87528 0.0
C648 C 0.35175 0.66595 0.84731 0.0
C649 C 0.37746 0.65399 0.85265 0.0
H650 H 0.32526 0.70158 0.85265 0.0
H651 H 0.33727 0.65522 0.83337 0.0
S652 S 0.43159 0.68455 0.89949 0.0
N653 N 0.4073 0.7087 0.89964 0.0
N654 N 0.42024 0.65843 0.87882 0.0
C655 C 0.39546 0.6687 0.87109 0.0
C656 C 0.38844 0.69596 0.88237 0.0
C657 C 0.496 0.1266 0.11995 0.0
C658 C 0.48131 0.14178 0.14068 0.0
C659 C 0.52386 0.13153 0.11582 0.0
C660 C 0.53826 0.15198 0.13213 0.0
H661 H 0.48589 0.11091 0.10649 0.0
H662 H 0.53398 0.11965 0.09914 0.0
S663 S 0.5098 0.19628 0.1905 0.0
N664 N 0.48361 0.17723 0.17873 0.0
N665 N 0.536 0.18657 0.17086 0.0
C666 C 0.52404 0.16681 0.15349 0.0
C667 C 0.49559 0.1617 0.15778 0.0
C668 C 0.05596 0.72966 0.16042 0.0
C669 C 0.06864 0.70569 0.14839 0.0
C670 C 0.05986 0.75699 0.14901 0.0
C671 C 0.07657 0.76155 0.12506 0.0
H672 H 0.04266 0.72738 0.17871 0.0
H673 H 0.0494 0.77464 0.15901 0.0
S674 S 0.11542 0.70611 0.08616 0.0
N675 N 0.09932 0.68839 0.11159 0.0
N676 N 0.10661 0.73982 0.09011 0.0
C677 C 0.08971 0.73784 0.11298 0.0
C678 C 0.08575 0.70993 0.12465 0.0
C679 C 0.49035 0.8755 0.38516 0.0
C680 C 0.48333 0.8835 0.35715 0.0
C681 C 0.51731 0.86981 0.39272 0.0
C682 C 0.5385 0.87196 0.37265 0.0
H683 H 0.47483 0.8728 0.40136 0.0
H684 H 0.52142 0.86318 0.41447 0.0
S685 S 0.53141 0.89446 0.29696 0.0
N686 N 0.50005 0.89502 0.30958 0.0
N687 N 0.55089 0.88436 0.32387 0.0
C688 C 0.53201 0.88106 0.34481 0.0
C689 C 0.50441 0.88681 0.33705 0.0
C690 C 0.41698 0.27145 0.5841 0.0
C691 C 0.39428 0.25363 0.58918 0.0
C692 C 0.4202 0.29753 0.59833 0.0
C693 C 0.40092 0.30698 0.61834 0.0
H694 H 0.43267 0.2651 0.56927 0.0
H695 H 0.43832 0.31016 0.59383 0.0
S696 S 0.33706 0.26896 0.6385 0.0
N697 N 0.35154 0.24776 0.61495 0.0
N698 N 0.35769 0.29684 0.64176 0.0
C699 C 0.37773 0.28973 0.62319 0.0
C700 C 0.37442 0.26308 0.6086 0.0
C701 C 0.98329 0.06811 0.89295 0.0
C702 C -0.00501 0.08486 0.87121 0.0
C703 C 0.95565 0.07066 0.89992 0.0
C704 C 0.9387 0.08992 0.88528 0.0
H705 H -0.00417 0.05402 0.90567 0.0
H706 H 0.94791 0.0584 0.91781 0.0
S707 S 0.9585 0.1346 0.82299 0.0
N708 N 0.98686 0.11848 0.83258 0.0
N709 N 0.93495 0.12311 0.84541 0.0
C710 C 0.94974 0.10509 0.862 0.0
C711 C 0.97788 0.10263 0.85506 0.0
C712 C 0.33963 0.11694 0.22751 0.0
C713 C 0.36588 0.11361 0.21605 0.0
C714 C 0.33496 0.11439 0.25689 0.0
C715 C 0.35635 0.10836 0.27599 0.0
H716 H 0.32238 0.12111 0.21367 0.0
H717 H 0.31427 0.11653 0.26455 0.0
S718 S 0.42934 0.10024 0.25727 0.0
N719 N 0.41391 0.10575 0.22642 0.0
N720 N 0.40509 0.10091 0.28158 0.0
C721 C 0.38284 0.1058 0.26496 0.0
C722 C 0.38762 0.10843 0.23502 0.0
C723 C 0.11973 0.14904 0.52346 0.0
C724 C 0.09669 0.13698 0.51001 0.0
C725 C 0.12592 0.14298 0.55195 0.0
C726 C 0.10946 0.12437 0.56819 0.0
H727 H 0.13363 0.16272 0.51168 0.0
H728 H 0.14444 0.15213 0.56087 0.0
S729 S 0.04511 0.08955 0.54389 0.0
N730 N 0.05598 0.10748 0.51572 0.0
N731 N 0.06769 0.09586 0.56939 0.0
C732 C 0.08542 0.11347 0.55555 0.0
C733 C 0.07903 0.11982 0.52643 0.0
C734 C 0.11674 0.86645 0.78063 0.0
C735 C 0.13961 0.87946 0.79352 0.0
C736 C 0.11327 0.86674 0.75093 0.0
C737 C 0.13269 0.87973 0.73296 0.0
H738 H 0.10113 0.85635 0.79356 0.0
H739 H 0.09519 0.85665 0.742 0.0
S740 S 0.19663 0.91613 0.75593 0.0
N741 N 0.18234 0.90526 0.78592 0.0
N742 N 0.1758 0.90565 0.73015 0.0
C743 C 0.15589 0.89241 0.74551 0.0
C744 C 0.15934 0.89234 0.77576 0.0
C745 C 0.37696 0.83923 0.98801 0.0
C746 C 0.3611 0.81447 0.9831 0.0
C747 C 0.37332 0.85593 0.0125 0.0
C748 C 0.35365 0.84857 0.03305 0.0
H749 H 0.39157 0.84657 0.97227 0.0
H750 H 0.38528 0.87539 0.01465 0.0
S751 S 0.30984 0.78339 0.03261 0.0
N752 N 0.32716 0.78164 0.00251 0.0
N753 N 0.3203 0.81301 0.04852 0.0
C754 C 0.33889 0.82286 0.02936 0.0
C755 C 0.34264 0.80581 0.00441 0.0
C756 C 0.34373 0.87122 0.22566 0.0
C757 C 0.37086 0.86764 0.23461 0.0
C758 C 0.3368 0.87145 0.19671 0.0
C759 C 0.35664 0.86789 0.17543 0.0
H760 H 0.32768 0.87476 0.24105 0.0
H761 H 0.31567 0.87497 0.19102 0.0
S762 S 0.43035 0.85532 0.1875 0.0
N763 N 0.41755 0.85866 0.21989 0.0
N764 N 0.4044 0.85897 0.16528 0.0
C765 C 0.3837 0.86301 0.18401 0.0
C766 C 0.39084 0.86295 0.21363 0.0
C767 C 0.36277 0.16413 0.46101 0.0
C768 C 0.38793 0.1574 0.4737 0.0
C769 C 0.35531 0.15308 0.43434 0.0
C770 C 0.37266 0.13471 0.41927 0.0
H771 H 0.34807 0.17699 0.47232 0.0
H772 H 0.33516 0.15788 0.42624 0.0
S773 S 0.44281 0.11449 0.44076 0.0
N774 N 0.43174 0.13426 0.46744 0.0
N775 N 0.41769 0.11341 0.41723 0.0
C776 C 0.39882 0.12972 0.43057 0.0
C777 C 0.40648 0.14111 0.45779 0.0
C778 C 0.13824 0.12673 0.76132 0.0
C779 C 0.11167 0.13182 0.77108 0.0
C780 C 0.14411 0.1261 0.73216 0.0
C781 C 0.12373 0.13079 0.7115 0.0
H782 H 0.15456 0.12217 0.77623 0.0
H783 H 0.16477 0.1213 0.72579 0.0
S784 S 0.05138 0.1479 0.72592 0.0
N785 N 0.0651 0.14371 0.75787 0.0
N786 N 0.07624 0.14268 0.70288 0.0
C787 C 0.09734 0.13734 0.72093 0.0
C788 C 0.09127 0.13776 0.75075 0.0
C789 C 0.07133 0.86814 0.96978 0.0
C790 C 0.08455 0.84609 0.98461 0.0
C791 C 0.081 0.87771 0.94331 0.0
C792 C 0.10417 0.86549 0.93076 0.0
H793 H 0.05462 0.87949 0.97954 0.0
H794 H 0.07132 0.89605 0.93364 0.0
S795 S 0.14189 0.8026 0.95785 0.0
N796 N 0.11891 0.80906 0.98264 0.0
N797 N 0.13699 0.82684 0.93279 0.0
C798 C 0.11571 0.84144 0.94398 0.0
C799 C 0.10593 0.8318 0.97095 0.0
C800 C 0.27581 0.35421 0.15653 0.0
C801 C 0.29392 0.36345 0.13512 0.0
C802 C 0.25078 0.36778 0.16071 0.0
C803 C 0.24297 0.39102 0.14358 0.0
H804 H 0.28037 0.33555 0.1693 0.0
H805 H 0.23691 0.35903 0.17647 0.0
S806 S 0.28509 0.42669 0.08815 0.0
N807 N 0.3038 0.39971 0.0992 0.0
N808 N 0.25676 0.42501 0.10699 0.0
C809 C 0.2617 0.40173 0.12352 0.0
C810 C 0.28717 0.388 0.11931 0.0
C811 C 0.73391 0.134 0.90741 0.0
C812 C 0.72641 0.11087 0.88978 0.0
C813 C 0.76121 0.14148 0.9118 0.0
C814 C 0.78234 0.12624 0.89872 0.0
H815 H 0.71858 0.14636 0.91836 0.0
H816 H 0.7657 0.15929 0.92589 0.0
S817 S 0.77381 0.0646 0.84943 0.0
N818 N 0.7424 0.07323 0.85827 0.0
N819 N 0.79393 0.08738 0.86653 0.0
C820 C 0.77524 0.10342 0.88046 0.0
C821 C 0.74726 0.09571 0.87601 0.0
C822 C 0.10102 0.50944 0.10384 0.0
C823 C 0.12876 0.50227 0.10556 0.0
C824 C 0.09216 0.53688 0.11068 0.0
C825 C 0.1107 0.55837 0.11908 0.0
H826 H 0.08576 0.49341 0.09853 0.0
H827 H 0.07047 0.541 0.11028 0.0
S828 S 0.18587 0.55176 0.12355 0.0
N829 N 0.17504 0.5197 0.11378 0.0
N830 N 0.1583 0.57149 0.12638 0.0
C831 C 0.13867 0.55216 0.119 0.0
C832 C 0.14772 0.52403 0.11232 0.0
C833 C 0.69833 0.93174 0.36921 0.0
C834 C 0.6897 0.9045 0.35989 0.0
C835 C 0.72606 0.93896 0.37083 0.0
C836 C 0.74613 0.91911 0.36341 0.0
H837 H 0.68368 0.94718 0.37671 0.0
H838 H 0.73179 0.95966 0.37944 0.0
S839 S 0.7344 0.84698 0.33265 0.0
N840 N 0.70358 0.85913 0.33918 0.0
N841 N 0.75564 0.87264 0.34273 0.0
C842 C 0.73782 0.89266 0.352 0.0
C843 C 0.7096 0.88539 0.35004 0.0
C844 C 0.83792 0.96182 0.16563 0.0
C845 C 0.85899 0.94635 0.15265 0.0
C846 C 0.83352 0.99058 0.1589 0.0
C847 C 0.8502 0.00505 0.13915 0.0
H848 H 0.82533 0.95201 0.18193 0.0
H849 H 0.81771 0.00186 0.17026 0.0
S850 S 0.90566 0.97344 0.09615 0.0
N851 N 0.8948 0.94703 0.11663 0.0
N852 N 0.88666 0.00112 0.10441 0.0
C853 C 0.87026 0.98947 0.12475 0.0
C854 C 0.87458 0.9601 0.13134 0.0
C855 C 0.19936 0.62287 0.65935 0.0
C856 C 0.18197 0.61162 0.63808 0.0
C857 C 0.22618 0.61323 0.66238 0.0
C858 C 0.23657 0.59204 0.64421 0.0
H859 H 0.19283 0.64039 0.67272 0.0
H860 H 0.23929 0.6237 0.67792 0.0
S861 S 0.19764 0.55159 0.58912 0.0
N862 N 0.17579 0.57509 0.60153 0.0
N863 N 0.22617 0.55711 0.60717 0.0
C864 C 0.21867 0.5789 0.62457 0.0
C865 C 0.19137 0.58865 0.62153 0.0
C866 C 0.10192 0.45128 0.35171 0.0
C867 C 0.12248 0.43286 0.34213 0.0
C868 C 0.10766 0.47974 0.35876 0.0
C869 C 0.13423 0.49101 0.35667 0.0
H870 H 0.08102 0.44385 0.35346 0.0
H871 H 0.09098 0.49301 0.36572 0.0
S872 S 0.19575 0.45149 0.33378 0.0
N873 N 0.17074 0.42774 0.33169 0.0
N874 N 0.18159 0.48127 0.34502 0.0
C875 C 0.15517 0.47273 0.34764 0.0
C876 C 0.14927 0.44367 0.34034 0.0
C877 C 0.38413 0.50157 0.8164 0.0
C878 C 0.39004 0.5164 0.84189 0.0
C879 C 0.37265 0.47411 0.81675 0.0
C880 C 0.36677 0.46012 0.8426 0.0
H881 H 0.38838 0.51121 0.79584 0.0
H882 H 0.36884 0.46362 0.79648 0.0
S883 S 0.37785 0.48967 0.91544 0.0
N884 N 0.38868 0.51519 0.89382 0.0
N885 N 0.36724 0.4634 0.89453 0.0
C886 C 0.37228 0.47476 0.86833 0.0
C887 C 0.38385 0.50292 0.86796 0.0
C888 C 0.85139 0.71299 0.60629 0.0
C889 C 0.86185 0.7057 0.63333 0.0
C890 C 0.84793 0.74163 0.59842 0.0
C891 C 0.85487 0.76395 0.61729 0.0
H892 H 0.84692 0.69656 0.59062 0.0
H893 H 0.84094 0.74629 0.57696 0.0
S894 S 0.87867 0.75617 0.6922 0.0
N895 N 0.8759 0.72311 0.68019 0.0
N896 N 0.86955 0.77682 0.66531 0.0
C897 C 0.86369 0.75691 0.64498 0.0
C898 C 0.86713 0.72781 0.65303 0.0
C899 C 0.00214 0.12537 0.36792 0.0
C900 C 0.9884 0.09902 0.37056 0.0
C901 C 0.02905 0.1288 0.37713 0.0
C902 C 0.04349 0.10607 0.38948 0.0
H903 H 0.99189 0.1438 0.35912 0.0
H904 H 0.03837 0.14976 0.37499 0.0
S905 S 0.01739 0.03209 0.39983 0.0
N906 N 0.99162 0.04927 0.38521 0.0
N907 N 0.04242 0.05576 0.40264 0.0
C908 C 0.03041 0.07923 0.3913 0.0
C909 C 0.00284 0.0757 0.38181 0.0
C910 C 0.61332 0.25997 0.10342 0.0
C911 C 0.60095 0.24919 0.07843 0.0
C912 C 0.60782 0.28746 0.11328 0.0
C913 C 0.58968 0.30538 0.09861 0.0
H914 H 0.62666 0.24673 0.11616 0.0
H915 H 0.6171 0.29422 0.13323 0.0
S916 S 0.55475 0.28884 0.02996 0.0
N917 N 0.57188 0.25962 0.03759 0.0
N918 N 0.56149 0.31147 0.05615 0.0
C919 C 0.5786 0.29566 0.07252 0.0
C920 C 0.58425 0.26753 0.06242 0.0
C921 C 0.44218 0.83878 0.83646 0.0
C922 C 0.42919 0.85575 0.85705 0.0
C923 C 0.46529 0.84863 0.82197 0.0
C924 C 0.47645 0.87592 0.8274 0.0
H925 H 0.43503 0.81725 0.83206 0.0
H926 H 0.47497 0.83425 0.80708 0.0
S927 S 0.44814 0.93027 0.87664 0.0
N928 N 0.42768 0.90231 0.88018 0.0
N929 N 0.47118 0.92086 0.85291 0.0
C930 C 0.46276 0.89381 0.8467 0.0
C931 C 0.43915 0.88372 0.86154 0.0
C932 C 0.88501 0.236 0.89353 0.0
C933 C 0.86524 0.22068 0.87779 0.0
C934 C 0.89112 0.26462 0.88725 0.0
C935 C 0.87757 0.27917 0.86512 0.0
H936 H 0.89653 0.22558 0.91026 0.0
H937 H 0.90707 0.27518 0.89947 0.0
S938 S 0.82192 0.24952 0.81956 0.0
N939 N 0.83062 0.22278 0.84055 0.0
N940 N 0.84192 0.27653 0.82883 0.0
C941 C 0.85684 0.26446 0.85009 0.0
C942 C 0.85075 0.23524 0.85638 0.0
C943 C 0.44684 0.1367 0.63943 0.0
C944 C 0.4384 0.13456 0.61076 0.0
C945 C 0.47328 0.12925 0.64776 0.0
C946 C 0.49235 0.1194 0.62773 0.0
H947 H 0.4333 0.14519 0.6555 0.0
H948 H 0.47907 0.13238 0.66989 0.0
S949 S 0.47925 0.10598 0.55067 0.0
N950 N 0.45036 0.11894 0.56281 0.0
N951 N 0.50003 0.10505 0.57845 0.0
C952 C 0.48368 0.11552 0.59929 0.0
C953 C 0.45673 0.12307 0.59081 0.0
C954 C 0.65865 0.75061 0.35299 0.0
C955 C 0.64114 0.76499 0.37173 0.0
C956 C 0.65429 0.72177 0.34614 0.0
C957 C 0.63241 0.70618 0.35799 0.0
H958 H 0.675 0.76204 0.34234 0.0
H959 H 0.66749 0.71206 0.33047 0.0
S960 S 0.58365 0.73289 0.4122 0.0
N961 N 0.6032 0.76076 0.40475 0.0
N962 N 0.59516 0.70652 0.39233 0.0
C963 C 0.61609 0.71979 0.37855 0.0
C964 C 0.62038 0.74922 0.38527 0.0
C965 C 0.02949 0.88171 0.1464 0.0
C966 C 0.03731 0.88425 0.11769 0.0
C967 C 0.00221 0.88482 0.15441 0.0
C968 C 0.98189 0.89079 0.13398 0.0
H969 H 0.04414 0.87534 0.16251 0.0
H970 H -0.00312 0.88111 0.17654 0.0
S971 S 0.99324 0.90493 0.0568 0.0
N972 N 0.02365 0.89684 0.06945 0.0
N973 N 0.97241 0.90323 0.08437 0.0
C974 C 0.99 0.89593 0.1056 0.0
C975 C 0.01772 0.89249 0.09747 0.0
C976 C 0.6218 0.86507 0.67075 0.0
C977 C 0.6112 0.88885 0.65627 0.0
C978 C 0.60872 0.85364 0.69474 0.0
C979 C 0.58474 0.86585 0.70543 0.0
H980 H 0.64084 0.85568 0.66405 0.0
H981 H 0.61833 0.83607 0.70582 0.0
S982 S 0.54696 0.92634 0.67349 0.0
N983 N 0.5739 0.92263 0.65285 0.0
N984 N 0.5495 0.90134 0.6982 0.0
C985 C 0.57307 0.88862 0.69024 0.0
C986 C 0.58624 0.90006 0.66557 0.0
C987 C 0.85253 0.86345 0.50698 0.0
C988 C 0.87434 0.84533 0.51363 0.0
C989 C 0.8471 0.87157 0.47886 0.0
C990 C 0.86336 0.86211 0.4561 0.0
H991 H 0.83961 0.87178 0.52369 0.0
H992 H 0.8303 0.88597 0.47513 0.0
S993 S 0.92218 0.81307 0.46182 0.0
N994 N 0.9117 0.8171 0.49504 0.0
N995 N 0.90155 0.8325 0.44197 0.0
C996 C 0.88482 0.84331 0.46228 0.0
C997 C 0.89027 0.83486 0.49106 0.0
C998 C 0.84798 0.15933 0.23189 0.0
C999 C 0.85597 0.13609 0.21487 0.0
C1000 C 0.85885 0.16346 0.25934 0.0
C1001 C 0.87808 0.14448 0.27081 0.0
H1002 H 0.8325 0.17391 0.22443 0.0
H1003 H 0.85132 0.18104 0.27202 0.0
S1004 S 0.90871 0.08268 0.23341 0.0
N1005 N 0.88648 0.09559 0.21039 0.0
N1006 N 0.90677 0.10333 0.26189 0.0
C1007 C 0.88736 0.12209 0.25342 0.0
C1008 C 0.87635 0.11791 0.22549 0.0
C1009 C 0.58545 0.12311 0.95364 0.0
C1010 C 0.60914 0.1078 0.94687 0.0
C1011 C 0.58103 0.13342 0.98137 0.0
C1012 C 0.60029 0.1291 0.00323 0.0
H1013 H 0.57028 0.12741 0.93739 0.0
H1014 H 0.56267 0.14537 0.98552 0.0
S1015 S 0.66499 0.08907 -0.00277 0.0
N1016 N 0.65159 0.08785 0.96489 0.0
N1017 N 0.6433 0.10737 0.01668 0.0
C1018 C 0.62379 0.11338 -0.00308 0.0
C1019 C 0.6282 0.10269 0.96884 0.0
C1020 C 0.59885 0.11406 0.79604 0.0
C1021 C 0.62048 0.12994 0.80809 0.0
C1022 C 0.58782 0.12126 0.76948 0.0
C1023 C 0.59803 0.14457 0.75367 0.0
H1024 H 0.59085 0.09528 0.80675 0.0
H1025 H 0.57187 0.10761 0.76082 0.0
S1026 S 0.65222 0.1953 0.77733 0.0
N1027 N 0.64996 0.17179 0.80351 0.0
N1028 N 0.62926 0.18531 0.75339 0.0
C1029 C 0.61845 0.16181 0.76628 0.0
C1030 C 0.62967 0.1545 0.79352 0.0
C1031 C 0.66946 0.87232 0.48304 0.0
C1032 C 0.64694 0.8779 0.46532 0.0
C1033 C 0.6715 0.88419 0.51041 0.0
C1034 C 0.6512 0.9023 0.52113 0.0
H1035 H 0.6857 0.85861 0.47579 0.0
H1036 H 0.68929 0.87921 0.52317 0.0
S1037 S 0.58798 0.92377 0.48327 0.0
N1038 N 0.60378 0.90281 0.46048 0.0
N1039 N 0.6077 0.92515 0.51187 0.0
C1040 C 0.62854 0.9081 0.50365 0.0
C1041 C 0.62637 0.89588 0.4758 0.0
C1042 C 0.87666 0.88455 0.30112 0.0
C1043 C 0.85944 0.86448 0.31456 0.0
C1044 C 0.8865 0.87996 0.27355 0.0
C1045 C 0.87972 0.85501 0.25827 0.0
H1046 H 0.88195 0.90452 0.31154 0.0
H1047 H 0.89906 0.89649 0.26394 0.0
S1048 S 0.83758 0.79432 0.28488 0.0
N1049 N 0.83765 0.81766 0.31131 0.0
N1050 N 0.8563 0.8089 0.25944 0.0
C1051 C 0.86364 0.83404 0.27195 0.0
C1052 C 0.85346 0.83881 0.30008 0.0
C1053 C 0.86067 0.14397 0.02391 0.0
C1054 C 0.86452 0.12594 0.0002 0.0
C1055 C 0.85347 0.13283 0.05066 0.0
C1056 C 0.84961 0.10329 0.05462 0.0
H1057 H 0.86237 0.16694 0.02166 0.0
H1058 H 0.8498 0.14757 0.06804 0.0
S1059 S 0.86089 0.04656 0.00077 0.0
N1060 N 0.86675 0.07668 0.98345 0.0
N1061 N 0.85283 0.056 0.03362 0.0
C1062 C 0.85471 0.08492 0.03158 0.0
C1063 C 0.8623 0.09618 0.00442 0.0
C1064 C 0.73673 0.60064 0.86982 0.0
C1065 C 0.75414 0.6042 0.84626 0.0
C1066 C 0.71136 0.61395 0.87088 0.0
C1067 C 0.70229 0.63162 0.84851 0.0
H1068 H 0.74292 0.58787 0.88797 0.0
H1069 H 0.69914 0.61091 0.88988 0.0
S1070 S 0.73927 0.64639 0.78094 0.0
N1071 N 0.75986 0.62543 0.79917 0.0
N1072 N 0.71214 0.65059 0.80121 0.0
C1073 C 0.71901 0.63453 0.82427 0.0
C1074 C 0.7449 0.62079 0.82313 0.0
C1075 C 0.21662 0.85134 0.13826 0.0
C1076 C 0.22921 0.87098 0.11964 0.0
C1077 C 0.18894 0.8443 0.13552 0.0
C1078 C 0.17274 0.85662 0.11405 0.0
H1079 H 0.22837 0.84055 0.15457 0.0
H1080 H 0.18048 0.82831 0.14977 0.0
S1081 S 0.19497 0.91219 0.06222 0.0
N1082 N 0.2227 0.90476 0.08071 0.0
N1083 N 0.17071 0.89158 0.07559 0.0
C1084 C 0.18471 0.87749 0.09627 0.0
C1085 C 0.21291 0.88464 0.09905 0.0
C1086 C 0.88452 0.47522 0.89266 0.0
C1087 C 0.85991 0.48701 0.88292 0.0
C1088 C 0.89107 0.44671 0.88713 0.0
C1089 C 0.8733 0.42871 0.87158 0.0
H1090 H 0.89932 0.48828 0.90404 0.0
H1091 H 0.91067 0.43907 0.89441 0.0
S1092 S 0.80495 0.44817 0.84378 0.0
N1093 N 0.81667 0.47776 0.85879 0.0
N1094 N 0.82898 0.42417 0.8484 0.0
C1095 C 0.84802 0.4398 0.86285 0.0
C1096 C 0.84133 0.46891 0.8685 0.0
C1097 C 0.25631 0.13462 0.62711 0.0
C1098 C 0.24533 0.1149 0.60736 0.0
C1099 C 0.28245 0.14627 0.62357 0.0
C1100 C 0.29875 0.13863 0.60019 0.0
H1101 H 0.24441 0.14171 0.64517 0.0
H1102 H 0.28964 0.16185 0.63903 0.0
S1103 S 0.28048 0.08597 0.54363 0.0
N1104 N 0.25347 0.08689 0.56448 0.0
N1105 N 0.30261 0.10866 0.55783 0.0
C1106 C 0.28844 0.11809 0.58082 0.0
C1107 C 0.26174 0.10629 0.5844 0.0
C1108 C 0.13491 -0.00368 0.89984 0.0
C1109 C 0.15225 0.99091 0.87653 0.0
C1110 C 0.12064 0.02203 0.90205 0.0
C1111 C 0.12299 0.04318 0.88091 0.0
H1112 H 0.13159 0.98021 0.91611 0.0
H1113 H 0.10682 0.0248 0.91981 0.0
S1114 S 0.16832 0.04142 0.8176 0.0
N1115 N 0.17293 0.0103 0.83337 0.0
N1116 N 0.14599 0.05842 0.83747 0.0
C1117 C 0.14133 0.03876 0.85833 0.0
C1118 C 0.15601 0.01271 0.85617 0.0
C1119 C 0.79483 0.38311 0.38871 0.0
C1120 C 0.80683 0.35984 0.37465 0.0
C1121 C 0.76877 0.39249 0.3813 0.0
C1122 C 0.75351 0.37882 0.3597 0.0
H1123 H 0.80538 0.39385 0.40608 0.0
H1124 H 0.76019 0.40994 0.3934 0.0
S1125 S 0.77657 0.31861 0.31442 0.0
N1126 N 0.80222 0.32465 0.3366 0.0
N1127 N 0.75312 0.34222 0.32276 0.0
C1128 C 0.76571 0.35635 0.34456 0.0
C1129 C 0.7924 0.3469 0.35198 0.0
C1130 C 0.84417 0.52152 0.63468 0.0
C1131 C 0.85252 0.50506 0.61124 0.0
C1132 C 0.85354 0.54953 0.63847 0.0
C1133 C 0.87184 0.56225 0.61908 0.0
H1134 H 0.83101 0.51239 0.65089 0.0
H1135 H 0.8472 0.56081 0.6575 0.0
S1136 S 0.89727 0.52943 0.55214 0.0
N1137 N 0.87801 0.50433 0.56676 0.0
N1138 N 0.8958 0.55713 0.57391 0.0
C1139 C 0.87891 0.54672 0.59445 0.0
C1140 C 0.8692 0.51809 0.59052 0.0
C1141 C 0.61063 0.48574 0.11786 0.0
C1142 C 0.59369 0.50528 0.10368 0.0
C1143 C 0.60159 0.45809 0.12422 0.0
C1144 C 0.57526 0.44866 0.11652 0.0
H1145 H 0.63087 0.49202 0.12492 0.0
H1146 H 0.6153 0.44418 0.13573 0.0
S1147 S 0.52369 0.49057 0.07669 0.0
N1148 N 0.54989 0.51267 0.08039 0.0
N1149 N 0.53288 0.46051 0.09227 0.0
C1150 C 0.55845 0.46752 0.10123 0.0
C1151 C 0.56766 0.49586 0.09485 0.0
C1152 C 0.59651 0.74828 0.81712 0.0
C1153 C 0.6177 0.74245 0.8365 0.0
C1154 C 0.59093 0.77621 0.80856 0.0
C1155 C 0.6066 0.79945 0.81859 0.0
H1156 H 0.5835 0.73123 0.8091 0.0
H1157 H 0.57401 0.77962 0.79404 0.0
S1158 S 0.6655 0.79569 0.86821 0.0
N1159 N 0.65519 0.76217 0.86465 0.0
N1160 N 0.64493 0.81484 0.84799 0.0
C1161 C 0.62849 0.79395 0.83714 0.0
C1162 C 0.63395 0.76543 0.84628 0.0
C1163 C 0.47256 0.35106 0.14493 0.0
C1164 C 0.49119 0.32899 0.15016 0.0
C1165 C 0.44629 0.3452 0.13466 0.0
C1166 C 0.43763 0.31702 0.12897 0.0
H1167 H 0.47845 0.37318 0.14824 0.0
H1168 H 0.43301 0.36305 0.13036 0.0
S1169 S 0.4779 0.25125 0.1409 0.0
N1170 N 0.49862 0.27761 0.15033 0.0
N1171 N 0.44925 0.2666 0.13095 0.0
C1172 C 0.45569 0.29462 0.13508 0.0
C1173 C 0.48244 0.30059 0.14571 0.0
C1174 C 0.83845 0.20649 0.39189 0.0
C1175 C 0.86357 0.19278 0.39585 0.0
C1176 C 0.83438 0.23439 0.40187 0.0
C1177 C 0.85531 0.24949 0.41613 0.0
H1178 H 0.8222 0.19613 0.37994 0.0
H1179 H 0.81515 0.2446 0.39723 0.0
S1180 S 0.92327 0.22135 0.43601 0.0
N1181 N 0.90849 0.19512 0.418 0.0
N1182 N 0.90087 0.24742 0.43666 0.0
C1183 C 0.87988 0.23531 0.4218 0.0
C1184 C 0.88401 0.20699 0.41168 0.0
C1185 C 0.98386 0.66346 0.60045 0.0
C1186 C 0.9764 0.64513 0.62298 0.0
C1187 C 0.01069 0.66482 0.59051 0.0
C1188 C 0.03125 0.64784 0.60255 0.0
H1189 H 0.96897 0.67728 0.59058 0.0
H1190 H 0.01532 0.67965 0.5734 0.0
S1191 S 0.02219 0.59505 0.66108 0.0
N1192 N 0.99161 0.6087 0.65639 0.0
N1193 N 0.04208 0.61123 0.63763 0.0
C1194 C 0.024 0.62885 0.62465 0.0
C1195 C -0.0034 0.62753 0.63489 0.0
C1196 C 0.63727 0.23228 0.61152 0.0
C1197 C 0.61611 0.24437 0.59521 0.0
C1198 C 0.63383 0.20591 0.62531 0.0
C1199 C 0.60906 0.1907 0.62342 0.0
H1200 H 0.6564 0.24365 0.61449 0.0
H1201 H 0.65036 0.19795 0.63838 0.0
S1202 S 0.54858 0.21095 0.58029 0.0
N1203 N 0.57044 0.23756 0.57571 0.0
N1204 N 0.56398 0.18815 0.60167 0.0
C1205 C 0.58824 0.20178 0.606 0.0
C1206 C 0.59177 0.22856 0.59188 0.0
C1207 C 0.04854 0.35243 0.86588 0.0
C1208 C 0.0631 0.37426 0.88013 0.0
C1209 C 0.02077 0.35506 0.85974 0.0
C1210 C 0.00638 0.37976 0.86728 0.0
H1211 H 0.05834 0.33257 0.86027 0.0
H1212 H 0.01042 0.33729 0.8494 0.0
S1213 S 0.03546 0.44432 0.90254 0.0
N1214 N 0.0614 0.42228 0.89995 0.0
N1215 N 0.00915 0.42735 0.88814 0.0
C1216 C 0.0209 0.40238 0.8803 0.0
C1217 C 0.04925 0.39959 0.8868 0.0
C1218 C 0.8527 0.75418 0.11247 0.0
C1219 C 0.8671 0.73397 0.12867 0.0
C1220 C 0.85657 0.7836 0.11695 0.0
C1221 C 0.87536 0.79383 0.13741 0.0
H1222 H 0.83797 0.74722 0.09658 0.0
H1223 H 0.84475 0.79839 0.10428 0.0
S1224 S 0.91942 0.74933 0.18412 0.0
N1225 N 0.90153 0.72606 0.16517 0.0
N1226 N 0.90924 0.78106 0.17336 0.0
C1227 C 0.89036 0.77369 0.15327 0.0
C1228 C 0.8861 0.74385 0.14897 0.0
C1229 C 0.4626 0.64945 0.3651 0.0
C1230 C 0.4567 0.65521 0.3939 0.0
C1231 C 0.4892 0.64314 0.35639 0.0
C1232 C 0.51081 0.64199 0.37621 0.0
H1233 H 0.44672 0.65054 0.34902 0.0
H1234 H 0.49283 0.63937 0.3339 0.0
S1235 S 0.50564 0.65354 0.45454 0.0
N1236 N 0.47435 0.65806 0.44245 0.0
N1237 N 0.52417 0.64606 0.42622 0.0
C1238 C 0.50498 0.64688 0.40523 0.0
C1239 C 0.47798 0.65354 0.41403 0.0
C1240 C 0.88072 0.60437 0.79591 0.0
C1241 C 0.86982 0.62489 0.81455 0.0
C1242 C 0.89068 0.612 0.76899 0.0
C1243 C 0.89029 0.64051 0.7595 0.0
H1244 H 0.88079 0.58196 0.80167 0.0
H1245 H 0.898 0.59517 0.75521 0.0
S1246 S 0.86676 0.70303 0.8013 0.0
N1247 N 0.86136 0.67542 0.82253 0.0
N1248 N 0.88016 0.6898 0.77189 0.0
C1249 C 0.88089 0.66155 0.77851 0.0
C1250 C 0.87063 0.65373 0.80601 0.0
C1251 C 0.61276 0.61698 0.01677 0.0
C1252 C 0.63043 0.63379 0.0337 0.0
C1253 C 0.60943 0.62236 0.98761 0.0
C1254 C 0.62347 0.6449 0.97409 0.0
H1255 H 0.60206 0.59878 0.0258 0.0
H1256 H 0.5962 0.60819 0.97548 0.0
S1257 S 0.66976 0.69739 0.00936 0.0
N1258 N 0.66042 0.67551 0.03526 0.0
N1259 N 0.65404 0.68571 0.98033 0.0
C1260 C 0.64003 0.66293 0.99101 0.0
C1261 C 0.64355 0.65735 0.02082 0.0
C1262 C 0.63937 0.3801 0.24395 0.0
C1263 C 0.61287 0.37038 0.23745 0.0
C1264 C 0.64788 0.384 0.27223 0.0
C1265 C 0.63033 0.37814 0.29526 0.0
H1266 H 0.65356 0.38548 0.22707 0.0
H1267 H 0.66834 0.39208 0.27598 0.0
S1268 S 0.55948 0.35008 0.2899 0.0
N1269 N 0.56952 0.35341 0.25644 0.0
N1270 N 0.58559 0.36065 0.30969 0.0
C1271 C 0.60408 0.36738 0.28916 0.0
C1272 C 0.59532 0.36356 0.26025 0.0
C1273 C 0.86388 0.37076 0.55584 0.0
C1274 C 0.8841 0.38656 0.57048 0.0
C1275 C 0.86826 0.36035 0.52831 0.0
C1276 C 0.89311 0.3651 0.51415 0.0
H1277 H 0.8441 0.36691 0.56538 0.0
H1278 H 0.85173 0.34887 0.51788 0.0
S1279 S 0.95362 0.40321 0.54376 0.0
N1280 N 0.93063 0.40503 0.56934 0.0
N1281 N 0.93893 0.38525 0.51744 0.0
C1282 C 0.91402 0.37976 0.52891 0.0
C1283 C 0.9095 0.39054 0.55708 0.0
C1284 C 0.90101 0.40785 0.75381 0.0
C1285 C 0.90683 0.38125 0.76622 0.0
C1286 C 0.88938 0.40969 0.72656 0.0
C1287 C 0.88339 0.38502 0.71044 0.0
H1288 H 0.90476 0.42749 0.76548 0.0
H1289 H 0.88488 0.4307 0.71818 0.0
S1290 S 0.89599 0.31016 0.73252 0.0
N1291 N 0.90664 0.3296 0.75987 0.0
N1292 N 0.885 0.33315 0.70844 0.0
C1293 C 0.88986 0.35828 0.72217 0.0
C1294 C 0.90148 0.35637 0.75011 0.0
C1295 C 0.84681 0.6063 0.97288 0.0
C1296 C 0.86799 0.60971 0.95294 0.0
C1297 C 0.84941 0.61634 0.00088 0.0
C1298 C 0.87334 0.63024 0.01034 0.0
H1299 H 0.82785 0.59585 0.96689 0.0
H1300 H 0.83237 0.61309 0.01521 0.0
S1301 S 0.93511 0.64448 0.96677 0.0
N1302 N 0.91394 0.6279 0.9447 0.0
N1303 N 0.91886 0.64678 -0.00251 0.0
C1304 C 0.89484 0.6337 0.99074 0.0
C1305 C 0.89216 0.62346 0.96205 0.0
C1306 C 0.57827 0.61024 0.22085 0.0
C1307 C 0.58884 0.62964 0.24105 0.0
C1308 C 0.58866 0.60911 0.19309 0.0
C1309 C 0.60986 0.62751 0.18425 0.0
H1310 H 0.5625 0.59502 0.22672 0.0
H1311 H 0.58037 0.59314 0.17863 0.0
S1312 S 0.64287 0.68422 0.22804 0.0
N1313 N 0.62042 0.66922 0.24967 0.0
N1314 N 0.63984 0.66709 0.19735 0.0
C1315 C 0.61967 0.64807 0.20372 0.0
C1316 C 0.60922 0.6491 0.23216 0.0
C1317 C 0.64797 0.35089 0.47805 0.0
C1318 C 0.62326 0.35349 0.49288 0.0
C1319 C 0.65184 0.36389 0.45145 0.0
C1320 C 0.63125 0.38033 0.43864 0.0
H1321 H 0.66474 0.33911 0.48729 0.0
H1322 H 0.67151 0.36164 0.44131 0.0
S1323 S 0.56207 0.3925 0.46793 0.0
N1324 N 0.57732 0.37263 0.49222 0.0
N1325 N 0.58462 0.39723 0.44223 0.0
C1326 C 0.60605 0.38233 0.45277 0.0
C1327 C 0.60204 0.36886 0.47986 0.0
C1328 C 0.77216 0.91519 0.62851 0.0
C1329 C 0.75258 0.90432 0.64758 0.0
C1330 C 0.79907 0.90568 0.62913 0.0
C1331 C 0.8075 0.88464 0.64868 0.0
H1332 H 0.76644 0.93032 0.61209 0.0
H1333 H 0.81291 0.9138 0.61301 0.0
S1334 S 0.76524 0.85277 0.70632 0.0
N1335 N 0.74427 0.87411 0.68903 0.0
N1336 N 0.79492 0.85602 0.69008 0.0
C1337 C 0.78871 0.87533 0.66943 0.0
C1338 C 0.76123 0.88521 0.66891 0.0
C1339 C 0.25919 0.63835 0.3603 0.0
C1340 C 0.24813 0.61134 0.36697 0.0
C1341 C 0.28658 0.64494 0.36588 0.0
C1342 C 0.30412 0.6248 0.37839 0.0
H1343 H 0.24646 0.6549 0.35135 0.0
H1344 H 0.29379 0.66635 0.36109 0.0
S1345 S 0.28607 0.54993 0.39721 0.0
N1346 N 0.25747 0.5635 0.38476 0.0
N1347 N 0.30892 0.57593 0.39527 0.0
C1348 C 0.29367 0.59728 0.38401 0.0
C1349 C 0.26572 0.59054 0.37831 0.0
C1350 C 0.62046 0.03836 0.65838 0.0
C1351 C 0.61595 0.05509 0.63385 0.0
C1352 C 0.63477 0.01272 0.65697 0.0
C1353 C 0.64508 0.00254 0.63095 0.0
H1354 H 0.61288 0.04505 0.679 0.0
H1355 H 0.63737 0.00062 0.6765 0.0
S1356 S 0.63925 0.0384 0.56041 0.0
N1357 N 0.62333 0.05983 0.58269 0.0
N1358 N 0.65018 0.01148 0.57998 0.0
C1359 C 0.641 0.01915 0.60621 0.0
C1360 C 0.62647 0.04544 0.60769 0.0
C1361 C 0.22415 0.35366 0.86696 0.0
C1362 C 0.21188 0.32753 0.85899 0.0
C1363 C 0.25201 0.35876 0.86289 0.0
C1364 C 0.26892 0.33795 0.85071 0.0
H1365 H 0.2123 0.37019 0.87713 0.0
H1366 H 0.26041 0.37901 0.87008 0.0
S1367 S 0.24658 0.26674 0.82391 0.0
N1368 N 0.21856 0.28118 0.83661 0.0
N1369 N 0.27095 0.29076 0.82895 0.0
C1370 C 0.25676 0.31215 0.84149 0.0
C1371 C 0.22826 0.30695 0.8456 0.0
C1372 C 0.40424 0.47189 0.61764 0.0
C1373 C 0.38797 0.44701 0.61635 0.0
C1374 C 0.39317 0.49887 0.61273 0.0
C1375 C 0.3653 0.50217 0.60652 0.0
H1376 H 0.42569 0.47067 0.62298 0.0
H1377 H 0.40652 0.51733 0.61473 0.0
S1378 S 0.31419 0.44372 0.59851 0.0
N1379 N 0.34277 0.42727 0.60671 0.0
N1380 N 0.32193 0.4781 0.59763 0.0
C1381 C 0.34893 0.47743 0.60415 0.0
C1382 C 0.36027 0.44984 0.60899 0.0
C1383 C 0.74564 0.16074 0.10751 0.0
C1384 C 0.75121 0.1363 0.12389 0.0
C1385 C 0.71894 0.16815 0.10046 0.0
C1386 C 0.69657 0.15151 0.10955 0.0
H1387 H 0.76206 0.17405 0.0994 0.0
H1388 H 0.71593 0.1869 0.08732 0.0
S1389 S 0.69982 0.08648 0.15477 0.0
N1390 N 0.73196 0.09621 0.15043 0.0
N1391 N 0.68164 0.11023 0.13716 0.0
C1392 C 0.70169 0.12756 0.12686 0.0
C1393 C 0.72901 0.11993 0.13401 0.0
C1394 C 0.58544 0.98827 0.84047 0.0
C1395 C 0.60908 0.99364 0.85673 0.0
C1396 C 0.57756 0.96041 0.83323 0.0
C1397 C 0.59271 0.93675 0.84241 0.0
H1398 H 0.57314 0.00575 0.83272 0.0
H1399 H 0.55938 0.95743 0.82033 0.0
S1400 S 0.65569 0.93907 0.88638 0.0
N1401 N 0.64735 0.97294 0.88232 0.0
N1402 N 0.63214 0.92036 0.86913 0.0
C1403 C 0.61605 0.94168 0.85924 0.0
C1404 C 0.62438 0.97018 0.86623 0.0
C1405 C 0.85882 0.03845 0.38615 0.0
C1406 C 0.87978 0.05007 0.40324 0.0
C1407 C 0.84984 0.01031 0.38977 0.0
C1408 C 0.86146 0.99248 0.41061 0.0
H1409 H 0.84971 0.05093 0.36919 0.0
H1410 H 0.83415 0.00229 0.37545 0.0
S1411 S 0.91525 0.01337 0.4628 0.0
N1412 N 0.91062 0.04228 0.44325 0.0
N1413 N 0.89369 0.98918 0.45013 0.0
C1414 C 0.88145 0.00424 0.42893 0.0
C1415 C 0.89061 0.03308 0.42524 0.0
C1416 C 0.35066 0.21856 0.05329 0.0
C1417 C 0.34278 0.23647 0.07588 0.0
C1418 C 0.35792 0.19006 0.05834 0.0
C1419 C 0.35745 0.17857 0.08612 0.0
H1420 H 0.35298 0.22705 0.0319 0.0
H1421 H 0.36542 0.17754 0.04062 0.0
S1422 S 0.33288 0.21521 0.15145 0.0
N1423 N 0.33113 0.23969 0.12616 0.0
N1424 N 0.34439 0.18619 0.13569 0.0
C1425 C 0.34725 0.19562 0.10839 0.0
C1426 C 0.34002 0.22457 0.10325 0.0
C1427 C 0.54297 0.62367 0.872 0.0
C1428 C 0.56248 0.6211 0.85021 0.0
C1429 C 0.51585 0.61525 0.8677 0.0
C1430 C 0.50694 0.60416 0.84131 0.0
H1431 H 0.54859 0.63253 0.8926 0.0
H1432 H 0.50164 0.61821 0.88508 0.0
S1433 S 0.55014 0.59169 0.77762 0.0
N1434 N 0.57126 0.60552 0.80155 0.0
N1435 N 0.52011 0.58987 0.79333 0.0
C1436 C 0.52634 0.60078 0.81948 0.0
C1437 C 0.55413 0.60916 0.82398 0.0
C1438 C 0.12541 0.76325 0.58957 0.0
C1439 C 0.12733 0.73821 0.60608 0.0
C1440 C 0.12214 0.79002 0.60248 0.0
C1441 C 0.1206 0.79272 0.63236 0.0
H1442 H 0.12538 0.76212 0.56646 0.0
H1443 H 0.11964 0.80853 0.58886 0.0
S1444 S 0.12872 0.73446 0.68537 0.0
N1445 N 0.13054 0.71837 0.65407 0.0
N1446 N 0.12424 0.76861 0.67819 0.0
C1447 C 0.12409 0.76813 0.64915 0.0
C1448 C 0.12752 0.74091 0.63605 0.0
C1449 C 0.98938 0.37003 0.38342 0.0
C1450 C -0.00033 0.35774 0.35828 0.0
C1451 C 0.96256 0.36489 0.39218 0.0
C1452 C 0.94494 0.34709 0.37627 0.0
H1453 H 0.00227 0.38334 0.39685 0.0
H1454 H 0.95593 0.37432 0.41209 0.0
S1455 S 0.96107 0.31157 0.30751 0.0
N1456 N 0.98953 0.32838 0.31656 0.0
N1457 N 0.9391 0.31864 0.3331 0.0
C1458 C 0.95459 0.33551 0.3505 0.0
C1459 C 0.98193 0.34086 0.34148 0.0
C1460 C 0.34003 0.80614 0.3655 0.0
C1461 C 0.366 0.81907 0.36561 0.0
C1462 C 0.33608 0.77855 0.37652 0.0
C1463 C 0.35796 0.76305 0.38811 0.0
H1464 H 0.32293 0.81678 0.35557 0.0
H1465 H 0.316 0.76889 0.37476 0.0
S1466 S 0.42892 0.7897 0.39802 0.0
N1467 N 0.41312 0.81594 0.3815 0.0
N1468 N 0.40575 0.7643 0.40236 0.0
C1469 C 0.38359 0.77667 0.39019 0.0
C1470 C 0.3876 0.80462 0.37889 0.0
C1471 C 0.9656 0.57728 0.12996 0.0
C1472 C 0.97848 0.59706 0.14837 0.0
C1473 C 0.9389 0.58147 0.1202 0.0
C1474 C 0.92396 0.60558 0.12846 0.0
H1475 H 0.97653 0.55894 0.12204 0.0
H1476 H 0.93035 0.56618 0.1052 0.0
S1477 S 0.94695 0.66179 0.17951 0.0
N1478 N 0.97321 0.64022 0.17677 0.0
N1479 N 0.9231 0.64806 0.15856 0.0
C1480 C 0.93599 0.62464 0.14826 0.0
C1481 C 0.9632 0.62039 0.15817 0.0
C1482 C 0.15493 0.21642 0.90784 0.0
C1483 C 0.13541 0.23788 0.91145 0.0
C1484 C 0.14704 0.18832 0.90109 0.0
C1485 C 0.11934 0.18075 0.89783 0.0
H1486 H 0.17648 0.2216 0.90879 0.0
H1487 H 0.16283 0.17283 0.8971 0.0
S1488 S 0.06026 0.22814 0.91029 0.0
N1489 N 0.08722 0.24899 0.91497 0.0
N1490 N 0.07235 0.19631 0.9025 0.0
C1491 C 0.09962 0.20162 0.90351 0.0
C1492 C 0.10767 0.23017 0.91025 0.0
C1493 C 0.56266 0.3686 0.62481 0.0
C1494 C 0.57516 0.38249 0.60162 0.0
C1495 C 0.536 0.37498 0.63287 0.0
C1496 C 0.52058 0.39528 0.61783 0.0
H1497 H 0.57334 0.35213 0.6365 0.0
H1498 H 0.52714 0.36304 0.6504 0.0
S1499 S 0.54462 0.43917 0.55664 0.0
N1500 N 0.57078 0.41872 0.56468 0.0
N1501 N 0.52048 0.43066 0.57969 0.0
C1502 C 0.53323 0.41025 0.59532 0.0
C1503 C 0.56057 0.40389 0.58726 0.0
C1504 C 0.09155 0.39504 0.21956 0.0
C1505 C 0.09505 0.37047 0.23639 0.0
C1506 C 0.10497 0.39825 0.19345 0.0
C1507 C 0.12229 0.37693 0.18292 0.0
H1508 H 0.07906 0.41248 0.22696 0.0
H1509 H 0.10213 0.41796 0.18172 0.0
S1510 S 0.13649 0.30725 0.21745 0.0
N1511 N 0.11572 0.32348 0.23974 0.0
N1512 N 0.14088 0.32952 0.19048 0.0
C1513 C 0.12498 0.35161 0.19881 0.0
C1514 C 0.11141 0.34839 0.22559 0.0
C1515 C 0.38165 0.32756 0.95049 0.0
C1516 C 0.38258 0.35714 0.9451 0.0
C1517 C 0.38291 0.31694 0.97848 0.0
C1518 C 0.3844 0.33561 0.00195 0.0
H1519 H 0.37944 0.31254 0.93301 0.0
H1520 H 0.38143 0.29407 0.9818 0.0
S1521 S 0.38886 0.41468 -0.00063 0.0
N1522 N 0.38666 0.4048 0.96558 0.0
N1523 N 0.38822 0.38481 0.01812 0.0
C1524 C 0.38616 0.36512 -0.00316 0.0
C1525 C 0.38548 0.37591 0.96839 0.0
C1526 C 0.35772 0.64304 0.69758 0.0
C1527 C 0.36191 0.62055 0.67822 0.0
C1528 C 0.37311 0.6452 0.72284 0.0
C1529 C 0.39323 0.62497 0.72953 0.0
H1530 H 0.34162 0.65829 0.6939 0.0
H1531 H 0.36827 0.66204 0.73781 0.0
S1532 S 0.4153 0.56505 0.68331 0.0
N1533 N 0.38995 0.57986 0.66563 0.0
N1534 N 0.4188 0.58392 0.7129 0.0
C1535 C 0.39887 0.6036 0.70932 0.0
C1536 C 0.38322 0.60139 0.68372 0.0
C1537 C 0.12074 0.59547 0.49061 0.0
C1538 C 0.12295 0.62222 0.50416 0.0
C1539 C 0.12885 0.59174 0.46223 0.0
C1540 C 0.13953 0.6146 0.4461 0.0
H1541 H 0.11324 0.57696 0.50214 0.0
H1542 H 0.12719 0.57051 0.45312 0.0
S1543 S 0.14763 0.68964 0.4708 0.0
N1544 N 0.13516 0.67247 0.4987 0.0
N1545 N 0.15042 0.66545 0.44536 0.0
C1546 C 0.14095 0.64176 0.45901 0.0
C1547 C 0.13266 0.64556 0.48801 0.0
C1548 C 0.10409 0.61212 0.26113 0.0
C1549 C 0.11816 0.61605 0.23528 0.0
C1550 C 0.11794 0.60473 0.28629 0.0
C1551 C 0.14629 0.60045 0.28638 0.0
H1552 H 0.08217 0.61454 0.26191 0.0
H1553 H 0.10619 0.60144 0.30558 0.0
S1554 S 0.19277 0.60896 0.22456 0.0
N1555 N 0.16225 0.616 0.21157 0.0
N1556 N 0.18811 0.60171 0.2587 0.0
C1557 C 0.16067 0.60483 0.26082 0.0
C1558 C 0.14666 0.61276 0.23532 0.0
C1559 C 0.14788 0.37781 0.02518 0.0
C1560 C 0.127 0.37616 0.04565 0.0
C1561 C 0.14462 0.36602 -0.00202 0.0
C1562 C 0.12032 0.35197 0.98993 0.0
H1563 H 0.16708 0.38836 0.03008 0.0
H1564 H 0.16144 0.368 0.98317 0.0
S1565 S 0.05916 0.34172 0.03544 0.0
N1566 N 0.08099 0.35931 0.05598 0.0
N1567 N 0.07483 0.33706 0.00466 0.0
C1568 C 0.09919 0.35003 0.01013 0.0
C1569 C 0.10252 0.36213 0.038 0.0
C1570 C 0.42168 0.38204 0.78255 0.0
C1571 C 0.40456 0.361 0.79451 0.0
C1572 C 0.43078 0.37984 0.75435 0.0
C1573 C 0.42363 0.3562 0.73728 0.0
H1574 H 0.42719 0.40101 0.7946 0.0
H1575 H 0.44323 0.39699 0.74571 0.0
S1576 S 0.38076 0.29434 0.75912 0.0
N1577 N 0.38168 0.3152 0.78758 0.0
N1578 N 0.39945 0.31069 0.73468 0.0
C1579 C 0.40751 0.33438 0.74934 0.0
C1580 C 0.39777 0.3369 0.77793 0.0
C1581 C 0.32374 0.64534 0.49935 0.0
C1582 C 0.34879 0.6537 0.48736 0.0
C1583 C 0.32253 0.63252 0.52631 0.0
C1584 C 0.34629 0.62784 0.54254 0.0
H1585 H 0.30491 0.64797 0.48753 0.0
H1586 H 0.30276 0.62601 0.53437 0.0
S1587 S 0.41691 0.64748 0.52154 0.0
N1588 N 0.39789 0.65756 0.49426 0.0
N1589 N 0.39557 0.63364 0.54508 0.0
C1590 C 0.37142 0.63694 0.53121 0.0
C1591 C 0.37269 0.64979 0.50359 0.0
C1592 C 0.18572 0.119 0.34225 0.0
C1593 C 0.17719 0.11509 0.37066 0.0
C1594 C 0.21245 0.1128 0.33393 0.0
C1595 C 0.23162 0.10252 0.35374 0.0
H1596 H 0.17205 0.12802 0.32651 0.0
H1597 H 0.21836 0.11721 0.31209 0.0
S1598 S 0.21834 0.08436 0.42968 0.0
N1599 N 0.1892 0.09717 0.41783 0.0
N1600 N 0.23934 0.08564 0.40225 0.0
C1601 C 0.22288 0.09687 0.38179 0.0
C1602 C 0.19569 0.10311 0.39023 0.0
C1603 C 0.74544 0.38845 0.62818 0.0
C1604 C 0.7619 0.37458 0.64846 0.0
C1605 C 0.7201 0.37718 0.62011 0.0
C1606 C 0.70997 0.35171 0.63216 0.0
H1607 H 0.75254 0.40768 0.61758 0.0
H1608 H 0.7086 0.38831 0.60382 0.0
S1609 S 0.74377 0.30858 0.68837 0.0
N1610 N 0.76537 0.33506 0.68202 0.0
N1611 N 0.71751 0.31394 0.66695 0.0
C1612 C 0.72553 0.33834 0.65354 0.0
C1613 C 0.75155 0.34974 0.66164 0.0
C1614 C 0.36568 0.97547 0.3689 0.0
C1615 C 0.3636 0.95655 0.34567 0.0
C1616 C 0.35243 0.00185 0.3685 0.0
C1617 C 0.33633 0.01016 0.34501 0.0
H1618 H 0.37832 0.9703 0.38716 0.0
H1619 H 0.35523 0.01601 0.38661 0.0
S1620 S 0.32229 0.96694 0.27993 0.0
N1621 N 0.34281 0.94699 0.29933 0.0
N1622 N 0.31777 -0.0036 0.29863 0.0
C1623 C 0.33319 0.99088 0.32214 0.0
C1624 C 0.34687 0.96413 0.32245 0.0
C1625 C 0.767 0.61959 0.13686 0.0
C1626 C 0.78021 0.60486 0.1147 0.0
C1627 C 0.73936 0.61473 0.14281 0.0
C1628 C 0.7238 0.59526 0.12654 0.0
H1629 H 0.77791 0.63552 0.14934 0.0
H1630 H 0.7299 0.62717 0.15952 0.0
S1631 S 0.74906 0.54927 0.06791 0.0
N1632 N 0.77591 0.56837 0.07781 0.0
N1633 N 0.72398 0.55956 0.0888 0.0
C1634 C 0.73697 0.57953 0.10512 0.0
C1635 C 0.76517 0.58422 0.09927 0.0
C1636 C 0.65184 0.54606 0.35877 0.0
C1637 C 0.62499 0.55565 0.35473 0.0
C1638 C 0.65756 0.51687 0.36148 0.0
C1639 C 0.63666 0.49613 0.36004 0.0
H1640 H 0.66873 0.56112 0.35926 0.0
H1641 H 0.67861 0.51052 0.36384 0.0
S1642 S 0.5626 0.50996 0.35267 0.0
N1643 N 0.57703 0.54192 0.35163 0.0
N1644 N 0.58786 0.48725 0.3565 0.0
C1645 C 0.60964 0.50543 0.35708 0.0
C1646 C 0.60378 0.53512 0.3545 0.0
C1647 C 0.25968 0.87608 0.89538 0.0
C1648 C 0.24098 0.85864 0.88044 0.0
C1649 C 0.28666 0.86762 0.89964 0.0
C1650 C 0.29614 0.84138 0.88908 0.0
H1651 H 0.25346 0.89644 0.90408 0.0
H1652 H 0.30012 0.88182 0.91145 0.0
S1653 S 0.25554 0.78794 0.84802 0.0
N1654 N 0.23397 0.81393 0.85467 0.0
N1655 N 0.28469 0.79806 0.86267 0.0
C1656 C 0.27775 0.8238 0.87384 0.0
C1657 C 0.2502 0.8324 0.86954 0.0
C1658 C 0.3757 0.98654 0.10283 0.0
C1659 C 0.34934 0.97594 0.09712 0.0
C1660 C 0.38089 0.01589 0.10498 0.0
C1661 C 0.35988 0.03593 0.10177 0.0
H1662 H 0.39244 0.97205 0.10651 0.0
H1663 H 0.40141 0.02275 0.11037 0.0
S1664 S 0.2878 0.01951 0.08327 0.0
N1665 N 0.30236 0.98795 0.0857 0.0
N1666 N 0.31212 0.0432 0.08997 0.0
C1667 C 0.33369 0.02575 0.0945 0.0
C1668 C 0.32842 -0.00424 0.0921 0.0
C1669 C 0.12064 0.97497 0.58834 0.0
C1670 C 0.12769 0.95725 0.61145 0.0
C1671 C 0.13011 0.00328 0.58678 0.0
C1672 C 0.14682 0.01499 0.60838 0.0
H1673 H 0.10701 0.96728 0.57174 0.0
H1674 H 0.12335 0.01639 0.5691 0.0
S1675 S 0.17412 0.97668 0.67153 0.0
N1676 N 0.15475 0.95283 0.65502 0.0
N1677 N 0.17216 0.00602 0.65212 0.0
C1678 C 0.15515 -0.00285 0.63084 0.0
C1679 C 0.14572 0.96829 0.63235 0.0
loop_
_geom_bond_atom_site_label_1
_geom_bond_atom_site_label_2
_geom_bond_distance
_geom_bond_site_symmetry_2
_ccdc_geom_bond_type
C0 O1 1.160 . S
C0 O7 1.185 . S
O1 C0 1.160 . S
O2 Zn3 1.899 . S
O2 C10 1.284 . S
Zn3 O2 1.899 . S
Zn3 O4 2.032 . S
Zn3 O7 2.086 . S
Zn3 O12 1.977 . S
O4 Zn3 2.032 . S
O4 C8 1.278 . S
C5 O6 1.203 . S
C5 O12 1.267 . S
O6 C5 1.203 . S
O7 C0 1.185 . S
O7 Zn3 2.086 . S
C8 O4 1.278 . S
C8 O9 1.211 . S
O9 C8 1.211 . S
C10 O2 1.284 . S
C10 O11 1.273 . S
O11 C10 1.273 . S
O12 Zn3 1.977 . S
O12 C5 1.267 . S
C13 O14 1.160 . S
C13 O20 1.185 . S
O14 C13 1.160 . S
O15 Zn16 1.899 . S
O15 C23 1.284 . S
Zn16 O15 1.899 . S
Zn16 O17 2.032 . S
Zn16 O20 2.086 . S
Zn16 O25 1.977 . S
O17 Zn16 2.032 . S
O17 C21 1.278 . S
C18 O19 1.203 . S
C18 O25 1.267 . S
O19 C18 1.203 . S
O20 C13 1.185 . S
O20 Zn16 2.086 . S
C21 O17 1.278 . S
C21 O22 1.211 . S
O22 C21 1.211 . S
C23 O15 1.284 . S
C23 O24 1.273 . S
O24 C23 1.273 . S
O25 Zn16 1.977 . S
O25 C18 1.267 . S
C26 O27 1.160 . S
C26 O33 1.185 . S
O27 C26 1.160 . S
O28 Zn29 1.899 . S
O28 C36 1.284 . S
Zn29 O28 1.899 . S
Zn29 O30 2.032 . S
Zn29 O33 2.086 . S
Zn29 O38 1.977 . S
O30 Zn29 2.032 . S
O30 C34 1.278 . S
C31 O32 1.203 . S
C31 O38 1.267 . S
O32 C31 1.203 . S
O33 C26 1.185 . S
O33 Zn29 2.086 . S
C34 O30 1.278 . S
C34 O35 1.211 . S
O35 C34 1.211 . S
C36 O28 1.284 . S
C36 O37 1.273 . S
O37 C36 1.273 . S
O38 Zn29 1.977 . S
O38 C31 1.267 . S
C39 O40 1.160 . S
C39 O46 1.185 . S
O40 C39 1.160 . S
O41 Zn42 1.899 . S
O41 C49 1.284 . S
Zn42 O41 1.899 . S
Zn42 O43 2.032 . S
Zn42 O46 2.086 . S
Zn42 O51 1.977 . S
O43 Zn42 2.032 . S
O43 C47 1.278 . S
C44 O45 1.203 . S
C44 O51 1.267 . S
O45 C44 1.203 . S
O46 C39 1.185 . S
O46 Zn42 2.086 . S
C47 O43 1.278 . S
C47 O48 1.211 . S
O48 C47 1.211 . S
C49 O41 1.284 . S
C49 O50 1.273 . S
O50 C49 1.273 . S
O51 Zn42 1.977 . S
O51 C44 1.267 . S
C52 O53 1.160 . S
C52 O59 1.185 . S
O53 C52 1.160 . S
O54 Zn55 1.899 . S
O54 C62 1.284 . S
Zn55 O54 1.899 . S
Zn55 O56 2.032 . S
Zn55 O59 2.086 . S
Zn55 O64 1.977 . S
O56 Zn55 2.032 . S
O56 C60 1.278 . S
C57 O58 1.203 . S
C57 O64 1.267 . S
O58 C57 1.203 . S
O59 C52 1.185 . S
O59 Zn55 2.086 . S
C60 O56 1.278 . S
C60 O61 1.211 . S
O61 C60 1.211 . S
C62 O54 1.284 . S
C62 O63 1.273 . S
O63 C62 1.273 . S
O64 Zn55 1.977 . S
O64 C57 1.267 . S
C65 O66 1.160 . S
C65 O72 1.185 . S
O66 C65 1.160 . S
O67 Zn68 1.899 . S
O67 C75 1.284 . S
Zn68 O67 1.899 . S
Zn68 O69 2.032 . S
Zn68 O72 2.086 . S
Zn68 O77 1.977 . S
O69 Zn68 2.032 . S
O69 C73 1.278 . S
C70 O71 1.203 . S
C70 O77 1.267 . S
O71 C70 1.203 . S
O72 C65 1.185 . S
O72 Zn68 2.086 . S
C73 O69 1.278 . S
C73 O74 1.211 . S
O74 C73 1.211 . S
C75 O67 1.284 . S
C75 O76 1.273 . S
O76 C75 1.273 . S
O77 Zn68 1.977 . S
O77 C70 1.267 . S
C78 O79 1.160 . S
C78 O85 1.185 . S
O79 C78 1.160 . S
O80 Zn81 1.899 . S
O80 C88 1.284 . S
Zn81 O80 1.899 . S
Zn81 O82 2.032 . S
Zn81 O85 2.086 . S
Zn81 O90 1.977 . S
O82 Zn81 2.032 . S
O82 C86 1.278 . S
C83 O84 1.203 . S
C83 O90 1.267 . S
O84 C83 1.203 . S
O85 C78 1.185 . S
O85 Zn81 2.086 . S
C86 O82 1.278 . S
C86 O87 1.211 . S
O87 C86 1.211 . S
C88 O80 1.284 . S
C88 O89 1.273 . S
O89 C88 1.273 . S
O90 Zn81 1.977 . S
O90 C83 1.267 . S
C91 O92 1.160 . S
C91 O98 1.185 . S
O92 C91 1.160 . S
O93 Zn94 1.899 . S
O93 C101 1.284 . S
Zn94 O93 1.899 . S
Zn94 O95 2.032 . S
Zn94 O98 2.086 . S
Zn94 O103 1.977 . S
O95 Zn94 2.032 . S
O95 C99 1.278 . S
C96 O97 1.203 . S
C96 O103 1.267 . S
O97 C96 1.203 . S
O98 C91 1.185 . S
O98 Zn94 2.086 . S
C99 O95 1.278 . S
C99 O100 1.211 . S
O100 C99 1.211 . S
C101 O93 1.284 . S
C101 O102 1.273 . S
O102 C101 1.273 . S
O103 Zn94 1.977 . S
O103 C96 1.267 . S
C104 O105 1.160 . S
C104 O111 1.185 . S
O105 C104 1.160 . S
O106 Zn107 1.899 . S
O106 C114 1.284 . S
Zn107 O106 1.899 . S
Zn107 O108 2.032 . S
Zn107 O111 2.086 . S
Zn107 O116 1.977 . S
O108 Zn107 2.032 . S
O108 C112 1.278 . S
C109 O110 1.203 . S
C109 O116 1.267 . S
O110 C109 1.203 . S
O111 C104 1.185 . S
O111 Zn107 2.086 . S
C112 O108 1.278 . S
C112 O113 1.211 . S
O113 C112 1.211 . S
C114 O106 1.284 . S
C114 O115 1.273 . S
O115 C114 1.273 . S
O116 Zn107 1.977 . S
O116 C109 1.267 . S
C117 O118 1.160 . S
C117 O124 1.185 . S
O118 C117 1.160 . S
O119 Zn120 1.899 . S
O119 C127 1.284 . S
Zn120 O119 1.899 . S
Zn120 O121 2.032 . S
Zn120 O124 2.086 . S
Zn120 O129 1.977 . S
O121 Zn120 2.032 . S
O121 C125 1.278 . S
C122 O123 1.203 . S
C122 O129 1.267 . S
O123 C122 1.203 . S
O124 C117 1.185 . S
O124 Zn120 2.086 . S
C125 O121 1.278 . S
C125 O126 1.211 . S
O126 C125 1.211 . S
C127 O119 1.284 . S
C127 O128 1.273 . S
O128 C127 1.273 . S
O129 Zn120 1.977 . S
O129 C122 1.267 . S
C130 O131 1.160 . S
C130 O137 1.185 . S
O131 C130 1.160 . S
O132 Zn133 1.899 . S
O132 C140 1.284 . S
Zn133 O132 1.899 . S
Zn133 O134 2.032 . S
Zn133 O137 2.086 . S
Zn133 O142 1.977 . S
O134 Zn133 2.032 . S
O134 C138 1.278 . S
C135 O136 1.203 . S
C135 O142 1.267 . S
O136 C135 1.203 . S
O137 C130 1.185 . S
O137 Zn133 2.086 . S
C138 O134 1.278 . S
C138 O139 1.211 . S
O139 C138 1.211 . S
C140 O132 1.284 . S
C140 O141 1.273 . S
O141 C140 1.273 . S
O142 Zn133 1.977 . S
O142 C135 1.267 . S
C143 O144 1.160 . S
C143 O150 1.185 . S
O144 C143 1.160 . S
O145 Zn146 1.899 . S
O145 C153 1.284 . S
Zn146 O145 1.899 . S
Zn146 O147 2.032 . S
Zn146 O150 2.086 . S
Zn146 O155 1.977 . S
O147 Zn146 2.032 . S
O147 C151 1.278 . S
C148 O149 1.203 . S
C148 O155 1.267 . S
O149 C148 1.203 . S
O150 C143 1.185 . S
O150 Zn146 2.086 . S
C151 O147 1.278 . S
C151 O152 1.211 . S
O152 C151 1.211 . S
C153 O145 1.284 . S
C153 O154 1.273 . S
O154 C153 1.273 . S
O155 Zn146 1.977 . S
O155 C148 1.267 . S
C156 O157 1.160 . S
C156 O163 1.185 . S
O157 C156 1.160 . S
O158 Zn159 1.899 . S
O158 C166 1.284 . S
Zn159 O158 1.899 . S
Zn159 O160 2.032 . S
Zn159 O163 2.086 . S
Zn159 O168 1.977 . S
O160 Zn159 2.032 . S
O160 C164 1.278 . S
C161 O162 1.203 . S
C161 O168 1.267 . S
O162 C161 1.203 . S
O163 C156 1.185 . S
O163 Zn159 2.086 . S
C164 O160 1.278 . S
C164 O165 1.211 . S
O165 C164 1.211 . S
C166 O158 1.284 . S
C166 O167 1.273 . S
O167 C166 1.273 . S
O168 Zn159 1.977 . S
O168 C161 1.267 . S
C169 O170 1.160 . S
C169 O176 1.185 . S
O170 C169 1.160 . S
O171 Zn172 1.899 . S
O171 C179 1.284 . S
Zn172 O171 1.899 . S
Zn172 O173 2.032 . S
Zn172 O176 2.086 . S
Zn172 O181 1.977 . S
O173 Zn172 2.032 . S
O173 C177 1.278 . S
C174 O175 1.203 . S
C174 O181 1.267 . S
O175 C174 1.203 . S
O176 C169 1.185 . S
O176 Zn172 2.086 . S
C177 O173 1.278 . S
C177 O178 1.211 . S
O178 C177 1.211 . S
C179 O171 1.284 . S
C179 O180 1.273 . S
O180 C179 1.273 . S
O181 Zn172 1.977 . S
O181 C174 1.267 . S
C182 O183 1.160 . S
C182 O189 1.185 . S
O183 C182 1.160 . S
O184 Zn185 1.899 . S
O184 C192 1.284 . S
Zn185 O184 1.899 . S
Zn185 O186 2.032 . S
Zn185 O189 2.086 . S
Zn185 O194 1.977 . S
O186 Zn185 2.032 . S
O186 C190 1.278 . S
C187 O188 1.203 . S
C187 O194 1.267 . S
O188 C187 1.203 . S
O189 C182 1.185 . S
O189 Zn185 2.086 . S
C190 O186 1.278 . S
C190 O191 1.211 . S
O191 C190 1.211 . S
C192 O184 1.284 . S
C192 O193 1.273 . S
O193 C192 1.273 . S
O194 Zn185 1.977 . S
O194 C187 1.267 . S
C195 O196 1.160 . S
C195 O202 1.185 . S
O196 C195 1.160 . S
O197 Zn198 1.899 . S
O197 C205 1.284 . S
Zn198 O197 1.899 . S
Zn198 O199 2.032 . S
Zn198 O202 2.086 . S
Zn198 O207 1.977 . S
O199 Zn198 2.032 . S
O199 C203 1.278 . S
C200 O201 1.203 . S
C200 O207 1.267 . S
O201 C200 1.203 . S
O202 C195 1.185 . S
O202 Zn198 2.086 . S
C203 O199 1.278 . S
C203 O204 1.211 . S
O204 C203 1.211 . S
C205 O197 1.284 . S
C205 O206 1.273 . S
O206 C205 1.273 . S
O207 Zn198 1.977 . S
O207 C200 1.267 . S
C208 O209 1.160 . S
C208 O215 1.185 . S
O209 C208 1.160 . S
O210 Zn211 1.899 . S
O210 C218 1.284 . S
Zn211 O210 1.899 . S
Zn211 O212 2.032 . S
Zn211 O215 2.086 . S
Zn211 O220 1.977 . S
O212 Zn211 2.032 . S
O212 C216 1.278 . S
C213 O214 1.203 . S
C213 O220 1.267 . S
O214 C213 1.203 . S
O215 C208 1.185 . S
O215 Zn211 2.086 . S
C216 O212 1.278 . S
C216 O217 1.211 . S
O217 C216 1.211 . S
C218 O210 1.284 . S
C218 O219 1.273 . S
O219 C218 1.273 . S
O220 Zn211 1.977 . S
O220 C213 1.267 . S
C221 O222 1.160 . S
C221 O228 1.185 . S
O222 C221 1.160 . S
O223 Zn224 1.899 . S
O223 C231 1.284 . S
Zn224 O223 1.899 . S
Zn224 O225 2.032 . S
Zn224 O228 2.086 . S
Zn224 O233 1.977 . S
O225 Zn224 2.032 . S
O225 C229 1.278 . S
C226 O227 1.203 . S
C226 O233 1.267 . S
O227 C226 1.203 . S
O228 C221 1.185 . S
O228 Zn224 2.086 . S
C229 O225 1.278 . S
C229 O230 1.211 . S
O230 C229 1.211 . S
C231 O223 1.284 . S
C231 O232 1.273 . S
O232 C231 1.273 . S
O233 Zn224 1.977 . S
O233 C226 1.267 . S
C234 O235 1.160 . S
C234 O241 1.185 . S
O235 C234 1.160 . S
O236 Zn237 1.899 . S
O236 C244 1.284 . S
Zn237 O236 1.899 . S
Zn237 O238 2.032 . S
Zn237 O241 2.086 . S
Zn237 O246 1.977 . S
O238 Zn237 2.032 . S
O238 C242 1.278 . S
C239 O240 1.203 . S
C239 O246 1.267 . S
O240 C239 1.203 . S
O241 C234 1.185 . S
O241 Zn237 2.086 . S
C242 O238 1.278 . S
C242 O243 1.211 . S
O243 C242 1.211 . S
C244 O236 1.284 . S
C244 O245 1.273 . S
O245 C244 1.273 . S
O246 Zn237 1.977 . S
O246 C239 1.267 . S
C247 O248 1.160 . S
C247 O254 1.185 . S
O248 C247 1.160 . S
O249 Zn250 1.899 . S
O249 C257 1.284 . S
Zn250 O249 1.899 . S
Zn250 O251 2.032 . S
Zn250 O254 2.086 . S
Zn250 O259 1.977 . S
O251 Zn250 2.032 . S
O251 C255 1.278 . S
C252 O253 1.203 . S
C252 O259 1.267 . S
O253 C252 1.203 . S
O254 C247 1.185 . S
O254 Zn250 2.086 . S
C255 O251 1.278 . S
C255 O256 1.211 . S
O256 C255 1.211 . S
C257 O249 1.284 . S
C257 O258 1.273 . S
O258 C257 1.273 . S
O259 Zn250 1.977 . S
O259 C252 1.267 . S
C260 O261 1.160 . S
C260 O267 1.185 . S
O261 C260 1.160 . S
O262 Zn263 1.899 . S
O262 C270 1.284 . S
Zn263 O262 1.899 . S
Zn263 O264 2.032 . S
Zn263 O267 2.086 . S
Zn263 O272 1.977 . S
O264 Zn263 2.032 . S
O264 C268 1.278 . S
C265 O266 1.203 . S
C265 O272 1.267 . S
O266 C265 1.203 . S
O267 C260 1.185 . S
O267 Zn263 2.086 . S
C268 O264 1.278 . S
C268 O269 1.211 . S
O269 C268 1.211 . S
C270 O262 1.284 . S
C270 O271 1.273 . S
O271 C270 1.273 . S
O272 Zn263 1.977 . S
O272 C265 1.267 . S
C273 O274 1.160 . S
C273 O280 1.185 . S
O274 C273 1.160 . S
O275 Zn276 1.899 . S
O275 C283 1.284 . S
Zn276 O275 1.899 . S
Zn276 O277 2.032 . S
Zn276 O280 2.086 . S
Zn276 O285 1.977 . S
O277 Zn276 2.032 . S
O277 C281 1.278 . S
C278 O279 1.203 . S
C278 O285 1.267 . S
O279 C278 1.203 . S
O280 C273 1.185 . S
O280 Zn276 2.086 . S
C281 O277 1.278 . S
C281 O282 1.211 . S
O282 C281 1.211 . S
C283 O275 1.284 . S
C283 O284 1.273 . S
O284 C283 1.273 . S
O285 Zn276 1.977 . S
O285 C278 1.267 . S
C286 O287 1.160 . S
C286 O293 1.185 . S
O287 C286 1.160 . S
O288 Zn289 1.899 . S
O288 C296 1.284 . S
Zn289 O288 1.899 . S
Zn289 O290 2.032 . S
Zn289 O293 2.086 . S
Zn289 O298 1.977 . S
O290 Zn289 2.032 . S
O290 C294 1.278 . S
C291 O292 1.203 . S
C291 O298 1.267 . S
O292 C291 1.203 . S
O293 C286 1.185 . S
O293 Zn289 2.086 . S
C294 O290 1.278 . S
C294 O295 1.211 . S
O295 C294 1.211 . S
C296 O288 1.284 . S
C296 O297 1.273 . S
O297 C296 1.273 . S
O298 Zn289 1.977 . S
O298 C291 1.267 . S
C299 O300 1.160 . S
C299 O306 1.185 . S
O300 C299 1.160 . S
O301 Zn302 1.899 . S
O301 C309 1.284 . S
Zn302 O301 1.899 . S
Zn302 O303 2.032 . S
Zn302 O306 2.086 . S
Zn302 O311 1.977 . S
O303 Zn302 2.032 . S
O303 C307 1.278 . S
C304 O305 1.203 . S
C304 O311 1.267 . S
O305 C304 1.203 . S
O306 C299 1.185 . S
O306 Zn302 2.086 . S
C307 O303 1.278 . S
C307 O308 1.211 . S
O308 C307 1.211 . S
C309 O301 1.284 . S
C309 O310 1.273 . S
O310 C309 1.273 . S
O311 Zn302 1.977 . S
O311 C304 1.267 . S
C312 O313 1.160 . S
C312 O319 1.185 . S
O313 C312 1.160 . S
O314 Zn315 1.899 . S
O314 C322 1.284 . S
Zn315 O314 1.899 . S
Zn315 O316 2.032 . S
Zn315 O319 2.086 . S
Zn315 O324 1.977 . S
O316 Zn315 2.032 . S
O316 C320 1.278 . S
C317 O318 1.203 . S
C317 O324 1.267 . S
O318 C317 1.203 . S
O319 C312 1.185 . S
O319 Zn315 2.086 . S
C320 O316 1.278 . S
C320 O321 1.211 . S
O321 C320 1.211 . S
C322 O314 1.284 . S
C322 O323 1.273 . S
O323 C322 1.273 . S
O324 Zn315 1.977 . S
O324 C317 1.267 . S
C325 O326 1.160 . S
C325 O332 1.185 . S
O326 C325 1.160 . S
O327 Zn328 1.899 . S
O327 C335 1.284 . S
Zn328 O327 1.899 . S
Zn328 O329 2.032 . S
Zn328 O332 2.086 . S
Zn328 O337 1.977 . S
O329 Zn328 2.032 . S
O329 C333 1.278 . S
C330 O331 1.203 . S
C330 O337 1.267 . S
O331 C330 1.203 . S
O332 C325 1.185 . S
O332 Zn328 2.086 . S
C333 O329 1.278 . S
C333 O334 1.211 . S
O334 C333 1.211 . S
C335 O327 1.284 . S
C335 O336 1.273 . S
O336 C335 1.273 . S
O337 Zn328 1.977 . S
O337 C330 1.267 . S
C338 O339 1.160 . S
C338 O345 1.185 . S
O339 C338 1.160 . S
O340 Zn341 1.899 . S
O340 C348 1.284 . S
Zn341 O340 1.899 . S
Zn341 O342 2.032 . S
Zn341 O345 2.086 . S
Zn341 O350 1.977 . S
O342 Zn341 2.032 . S
O342 C346 1.278 . S
C343 O344 1.203 . S
C343 O350 1.267 . S
O344 C343 1.203 . S
O345 C338 1.185 . S
O345 Zn341 2.086 . S
C346 O342 1.278 . S
C346 O347 1.211 . S
O347 C346 1.211 . S
C348 O340 1.284 . S
C348 O349 1.273 . S
O349 C348 1.273 . S
O350 Zn341 1.977 . S
O350 C343 1.267 . S
C351 O352 1.160 . S
C351 O358 1.185 . S
O352 C351 1.160 . S
O353 Zn354 1.899 . S
O353 C361 1.284 . S
Zn354 O353 1.899 . S
Zn354 O355 2.032 . S
Zn354 O358 2.086 . S
Zn354 O363 1.977 . S
O355 Zn354 2.032 . S
O355 C359 1.278 . S
C356 O357 1.203 . S
C356 O363 1.267 . S
O357 C356 1.203 . S
O358 C351 1.185 . S
O358 Zn354 2.086 . S
C359 O355 1.278 . S
C359 O360 1.211 . S
O360 C359 1.211 . S
C361 O353 1.284 . S
C361 O362 1.273 . S
O362 C361 1.273 . S
O363 Zn354 1.977 . S
O363 C356 1.267 . S
C364 O365 1.160 . S
C364 O371 1.185 . S
O365 C364 1.160 . S
O366 Zn367 1.899 . S
O366 C374 1.284 . S
Zn367 O366 1.899 . S
Zn367 O368 2.032 . S
Zn367 O371 2.086 . S
Zn367 O376 1.977 . S
O368 Zn367 2.032 . S
O368 C372 1.278 . S
C369 O370 1.203 . S
C369 O376 1.267 . S
O370 C369 1.203 . S
O371 C364 1.185 . S
O371 Zn367 2.086 . S
C372 O368 1.278 . S
C372 O373 1.211 . S
O373 C372 1.211 . S
C374 O366 1.284 . S
C374 O375 1.273 . S
O375 C374 1.273 . S
O376 Zn367 1.977 . S
O376 C369 1.267 . S
C377 O378 1.160 . S
C377 O384 1.185 . S
O378 C377 1.160 . S
O379 Zn380 1.899 . S
O379 C387 1.284 . S
Zn380 O379 1.899 . S
Zn380 O381 2.032 . S
Zn380 O384 2.086 . S
Zn380 O389 1.977 . S
O381 Zn380 2.032 . S
O381 C385 1.278 . S
C382 O383 1.203 . S
C382 O389 1.267 . S
O383 C382 1.203 . S
O384 C377 1.185 . S
O384 Zn380 2.086 . S
C385 O381 1.278 . S
C385 O386 1.211 . S
O386 C385 1.211 . S
C387 O379 1.284 . S
C387 O388 1.273 . S
O388 C387 1.273 . S
O389 Zn380 1.977 . S
O389 C382 1.267 . S
C390 O391 1.160 . S
C390 O397 1.185 . S
O391 C390 1.160 . S
O392 Zn393 1.899 . S
O392 C400 1.284 . S
Zn393 O392 1.899 . S
Zn393 O394 2.032 . S
Zn393 O397 2.086 . S
Zn393 O402 1.977 . S
O394 Zn393 2.032 . S
O394 C398 1.278 . S
C395 O396 1.203 . S
C395 O402 1.267 . S
O396 C395 1.203 . S
O397 C390 1.185 . S
O397 Zn393 2.086 . S
C398 O394 1.278 . S
C398 O399 1.211 . S
O399 C398 1.211 . S
C400 O392 1.284 . S
C400 O401 1.273 . S
O401 C400 1.273 . S
O402 Zn393 1.977 . S
O402 C395 1.267 . S
C403 O404 1.160 . S
C403 O410 1.185 . S
O404 C403 1.160 . S
O405 Zn406 1.899 . S
O405 C413 1.284 . S
Zn406 O405 1.899 . S
Zn406 O407 2.032 . S
Zn406 O410 2.086 . S
Zn406 O415 1.977 . S
O407 Zn406 2.032 . S
O407 C411 1.278 . S
C408 O409 1.203 . S
C408 O415 1.267 . S
O409 C408 1.203 . S
O410 C403 1.185 . S
O410 Zn406 2.086 . S
C411 O407 1.278 . S
C411 O412 1.211 . S
O412 C411 1.211 . S
C413 O405 1.284 . S
C413 O414 1.273 . S
O414 C413 1.273 . S
O415 Zn406 1.977 . S
O415 C408 1.267 . S
C416 O417 1.160 . S
C416 O423 1.185 . S
O417 C416 1.160 . S
O418 Zn419 1.899 . S
O418 C426 1.284 . S
Zn419 O418 1.899 . S
Zn419 O420 2.032 . S
Zn419 O423 2.086 . S
Zn419 O428 1.977 . S
O420 Zn419 2.032 . S
O420 C424 1.278 . S
C421 O422 1.203 . S
C421 O428 1.267 . S
O422 C421 1.203 . S
O423 C416 1.185 . S
O423 Zn419 2.086 . S
C424 O420 1.278 . S
C424 O425 1.211 . S
O425 C424 1.211 . S
C426 O418 1.284 . S
C426 O427 1.273 . S
O427 C426 1.273 . S
O428 Zn419 1.977 . S
O428 C421 1.267 . S
C429 O430 1.160 . S
C429 O436 1.185 . S
O430 C429 1.160 . S
O431 Zn432 1.899 . S
O431 C439 1.284 . S
Zn432 O431 1.899 . S
Zn432 O433 2.032 . S
Zn432 O436 2.086 . S
Zn432 O441 1.977 . S
O433 Zn432 2.032 . S
O433 C437 1.278 . S
C434 O435 1.203 . S
C434 O441 1.267 . S
O435 C434 1.203 . S
O436 C429 1.185 . S
O436 Zn432 2.086 . S
C437 O433 1.278 . S
C437 O438 1.211 . S
O438 C437 1.211 . S
C439 O431 1.284 . S
C439 O440 1.273 . S
O440 C439 1.273 . S
O441 Zn432 1.977 . S
O441 C434 1.267 . S
C442 O443 1.160 . S
C442 O449 1.185 . S
O443 C442 1.160 . S
O444 Zn445 1.899 . S
O444 C452 1.284 . S
Zn445 O444 1.899 . S
Zn445 O446 2.032 . S
Zn445 O449 2.086 . S
Zn445 O454 1.977 . S
O446 Zn445 2.032 . S
O446 C450 1.278 . S
C447 O448 1.203 . S
C447 O454 1.267 . S
O448 C447 1.203 . S
O449 C442 1.185 . S
O449 Zn445 2.086 . S
C450 O446 1.278 . S
C450 O451 1.211 . S
O451 C450 1.211 . S
C452 O444 1.284 . S
C452 O453 1.273 . S
O453 C452 1.273 . S
O454 Zn445 1.977 . S
O454 C447 1.267 . S
C455 O456 1.160 . S
C455 O462 1.185 . S
O456 C455 1.160 . S
O457 Zn458 1.899 . S
O457 C465 1.284 . S
Zn458 O457 1.899 . S
Zn458 O459 2.032 . S
Zn458 O462 2.086 . S
Zn458 O467 1.977 . S
O459 Zn458 2.032 . S
O459 C463 1.278 . S
C460 O461 1.203 . S
C460 O467 1.267 . S
O461 C460 1.203 . S
O462 C455 1.185 . S
O462 Zn458 2.086 . S
C463 O459 1.278 . S
C463 O464 1.211 . S
O464 C463 1.211 . S
C465 O457 1.284 . S
C465 O466 1.273 . S
O466 C465 1.273 . S
O467 Zn458 1.977 . S
O467 C460 1.267 . S
C468 O469 1.160 . S
C468 O475 1.185 . S
O469 C468 1.160 . S
O470 Zn471 1.899 . S
O470 C478 1.284 . S
Zn471 O470 1.899 . S
Zn471 O472 2.032 . S
Zn471 O475 2.086 . S
Zn471 O480 1.977 . S
O472 Zn471 2.032 . S
O472 C476 1.278 . S
C473 O474 1.203 . S
C473 O480 1.267 . S
O474 C473 1.203 . S
O475 C468 1.185 . S
O475 Zn471 2.086 . S
C476 O472 1.278 . S
C476 O477 1.211 . S
O477 C476 1.211 . S
C478 O470 1.284 . S
C478 O479 1.273 . S
O479 C478 1.273 . S
O480 Zn471 1.977 . S
O480 C473 1.267 . S
C481 O482 1.160 . S
C481 O488 1.185 . S
O482 C481 1.160 . S
O483 Zn484 1.899 . S
O483 C491 1.284 . S
Zn484 O483 1.899 . S
Zn484 O485 2.032 . S
Zn484 O488 2.086 . S
Zn484 O493 1.977 . S
O485 Zn484 2.032 . S
O485 C489 1.278 . S
C486 O487 1.203 . S
C486 O493 1.267 . S
O487 C486 1.203 . S
O488 C481 1.185 . S
O488 Zn484 2.086 . S
C489 O485 1.278 . S
C489 O490 1.211 . S
O490 C489 1.211 . S
C491 O483 1.284 . S
C491 O492 1.273 . S
O492 C491 1.273 . S
O493 Zn484 1.977 . S
O493 C486 1.267 . S
C494 O495 1.160 . S
C494 O501 1.185 . S
O495 C494 1.160 . S
O496 Zn497 1.899 . S
O496 C504 1.284 . S
Zn497 O496 1.899 . S
Zn497 O498 2.032 . S
Zn497 O501 2.086 . S
Zn497 O506 1.977 . S
O498 Zn497 2.032 . S
O498 C502 1.278 . S
C499 O500 1.203 . S
C499 O506 1.267 . S
O500 C499 1.203 . S
O501 C494 1.185 . S
O501 Zn497 2.086 . S
C502 O498 1.278 . S
C502 O503 1.211 . S
O503 C502 1.211 . S
C504 O496 1.284 . S
C504 O505 1.273 . S
O505 C504 1.273 . S
O506 Zn497 1.977 . S
O506 C499 1.267 . S
C507 O508 1.160 . S
C507 O514 1.185 . S
O508 C507 1.160 . S
O509 Zn510 1.899 . S
O509 C517 1.284 . S
Zn510 O509 1.899 . S
Zn510 O511 2.032 . S
Zn510 O514 2.086 . S
Zn510 O519 1.977 . S
O511 Zn510 2.032 . S
O511 C515 1.278 . S
C512 O513 1.203 . S
C512 O519 1.267 . S
O513 C512 1.203 . S
O514 C507 1.185 . S
O514 Zn510 2.086 . S
C515 O511 1.278 . S
C515 O516 1.211 . S
O516 C515 1.211 . S
C517 O509 1.284 . S
C517 O518 1.273 . S
O518 C517 1.273 . S
O519 Zn510 1.977 . S
O519 C512 1.267 . S
C520 O521 1.160 . S
C520 O527 1.185 . S
O521 C520 1.160 . S
O522 Zn523 1.899 . S
O522 C530 1.284 . S
Zn523 O522 1.899 . S
Zn523 O524 2.032 . S
Zn523 O527 2.086 . S
Zn523 O532 1.977 . S
O524 Zn523 2.032 . S
O524 C528 1.278 . S
C525 O526 1.203 . S
C525 O532 1.267 . S
O526 C525 1.203 . S
O527 C520 1.185 . S
O527 Zn523 2.086 . S
C528 O524 1.278 . S
C528 O529 1.211 . S
O529 C528 1.211 . S
C530 O522 1.284 . S
C530 O531 1.273 . S
O531 C530 1.273 . S
O532 Zn523 1.977 . S
O532 C525 1.267 . S
C533 O534 1.160 . S
C533 O540 1.185 . S
O534 C533 1.160 . S
O535 Zn536 1.899 . S
O535 C543 1.284 . S
Zn536 O535 1.899 . S
Zn536 O537 2.032 . S
Zn536 O540 2.086 . S
Zn536 O545 1.977 . S
O537 Zn536 2.032 . S
O537 C541 1.278 . S
C538 O539 1.203 . S
C538 O545 1.267 . S
O539 C538 1.203 . S
O540 C533 1.185 . S
O540 Zn536 2.086 . S
C541 O537 1.278 . S
C541 O542 1.211 . S
O542 C541 1.211 . S
C543 O535 1.284 . S
C543 O544 1.273 . S
O544 C543 1.273 . S
O545 Zn536 1.977 . S
O545 C538 1.267 . S
C546 O547 1.160 . S
C546 O553 1.185 . S
O547 C546 1.160 . S
O548 Zn549 1.899 . S
O548 C556 1.284 . S
Zn549 O548 1.899 . S
Zn549 O550 2.032 . S
Zn549 O553 2.086 . S
Zn549 O558 1.977 . S
O550 Zn549 2.032 . S
O550 C554 1.278 . S
C551 O552 1.203 . S
C551 O558 1.267 . S
O552 C551 1.203 . S
O553 C546 1.185 . S
O553 Zn549 2.086 . S
C554 O550 1.278 . S
C554 O555 1.211 . S
O555 C554 1.211 . S
C556 O548 1.284 . S
C556 O557 1.273 . S
O557 C556 1.273 . S
O558 Zn549 1.977 . S
O558 C551 1.267 . S
C559 O560 1.160 . S
C559 O566 1.185 . S
O560 C559 1.160 . S
O561 Zn562 1.899 . S
O561 C569 1.284 . S
Zn562 O561 1.899 . S
Zn562 O563 2.032 . S
Zn562 O566 2.086 . S
Zn562 O571 1.977 . S
O563 Zn562 2.032 . S
O563 C567 1.278 . S
C564 O565 1.203 . S
C564 O571 1.267 . S
O565 C564 1.203 . S
O566 C559 1.185 . S
O566 Zn562 2.086 . S
C567 O563 1.278 . S
C567 O568 1.211 . S
O568 C567 1.211 . S
C569 O561 1.284 . S
C569 O570 1.273 . S
O570 C569 1.273 . S
O571 Zn562 1.977 . S
O571 C564 1.267 . S
C572 O573 1.160 . S
C572 O579 1.185 . S
O573 C572 1.160 . S
O574 Zn575 1.899 . S
O574 C582 1.284 . S
Zn575 O574 1.899 . S
Zn575 O576 2.032 . S
Zn575 O579 2.086 . S
Zn575 O584 1.977 . S
O576 Zn575 2.032 . S
O576 C580 1.278 . S
C577 O578 1.203 . S
C577 O584 1.267 . S
O578 C577 1.203 . S
O579 C572 1.185 . S
O579 Zn575 2.086 . S
C580 O576 1.278 . S
C580 O581 1.211 . S
O581 C580 1.211 . S
C582 O574 1.284 . S
C582 O583 1.273 . S
O583 C582 1.273 . S
O584 Zn575 1.977 . S
O584 C577 1.267 . S
C585 O586 1.160 . S
C585 O592 1.185 . S
O586 C585 1.160 . S
O587 Zn588 1.899 . S
O587 C595 1.284 . S
Zn588 O587 1.899 . S
Zn588 O589 2.032 . S
Zn588 O592 2.086 . S
Zn588 O597 1.977 . S
O589 Zn588 2.032 . S
O589 C593 1.278 . S
C590 O591 1.203 . S
C590 O597 1.267 . S
O591 C590 1.203 . S
O592 C585 1.185 . S
O592 Zn588 2.086 . S
C593 O589 1.278 . S
C593 O594 1.211 . S
O594 C593 1.211 . S
C595 O587 1.284 . S
C595 O596 1.273 . S
O596 C595 1.273 . S
O597 Zn588 1.977 . S
O597 C590 1.267 . S
C598 O599 1.160 . S
C598 O605 1.185 . S
O599 C598 1.160 . S
O600 Zn601 1.899 . S
O600 C608 1.284 . S
Zn601 O600 1.899 . S
Zn601 O602 2.032 . S
Zn601 O605 2.086 . S
Zn601 O610 1.977 . S
O602 Zn601 2.032 . S
O602 C606 1.278 . S
C603 O604 1.203 . S
C603 O610 1.267 . S
O604 C603 1.203 . S
O605 C598 1.185 . S
O605 Zn601 2.086 . S
C606 O602 1.278 . S
C606 O607 1.211 . S
O607 C606 1.211 . S
C608 O600 1.284 . S
C608 O609 1.273 . S
O609 C608 1.273 . S
O610 Zn601 1.977 . S
O610 C603 1.267 . S
C611 O612 1.160 . S
C611 O618 1.185 . S
O612 C611 1.160 . S
O613 Zn614 1.899 . S
O613 C621 1.284 . S
Zn614 O613 1.899 . S
Zn614 O615 2.032 . S
Zn614 O618 2.086 . S
Zn614 O623 1.977 . S
O615 Zn614 2.032 . S
O615 C619 1.278 . S
C616 O617 1.203 . S
C616 O623 1.267 . S
O617 C616 1.203 . S
O618 C611 1.185 . S
O618 Zn614 2.086 . S
C619 O615 1.278 . S
C619 O620 1.211 . S
O620 C619 1.211 . S
C621 O613 1.284 . S
C621 O622 1.273 . S
O622 C621 1.273 . S
O623 Zn614 1.977 . S
O623 C616 1.267 . S
C624 C625 1.369 . S
C624 C626 1.419 . S
C624 H628 0.930 . S
C625 C624 1.369 . S
C625 C634 1.429 . S
C626 C624 1.419 . S
C626 C627 1.363 . S
C626 H629 0.929 . S
C627 C626 1.363 . S
C627 C633 1.428 . S
H628 C624 0.930 . S
H629 C626 0.929 . S
S630 N631 1.613 . S
S630 N632 1.610 . S
N631 S630 1.613 . S
N631 C634 1.350 . S
N632 S630 1.610 . S
N632 C633 1.351 . S
C633 C627 1.428 . S
C633 N632 1.351 . S
C633 C634 1.434 . S
C634 C625 1.429 . S
C634 N631 1.350 . S
C634 C633 1.434 . S
C635 C636 1.381 . S
C635 C637 1.389 1_455 S
C635 H639 0.950 . S
C636 C635 1.381 . S
C636 C645 1.429 1_455 S
C637 C635 1.389 1_655 S
C637 C638 1.363 . S
C637 H640 0.929 . S
C638 C637 1.363 . S
C638 C644 1.428 . S
H639 C635 0.950 . S
H640 C637 0.929 . S
S641 N642 1.613 . S
S641 N643 1.610 . S
N642 S641 1.613 . S
N642 C645 1.350 . S
N643 S641 1.610 . S
N643 C644 1.351 . S
C644 C638 1.428 . S
C644 N643 1.351 . S
C644 C645 1.434 . S
C645 C636 1.429 1_655 S
C645 N642 1.350 . S
C645 C644 1.434 . S
C646 C647 1.369 . S
C646 C648 1.419 . S
C646 H650 0.930 . S
C647 C646 1.369 . S
C647 C656 1.429 . S
C648 C646 1.419 . S
C648 C649 1.363 . S
C648 H651 0.929 . S
C649 C648 1.363 . S
C649 C655 1.428 . S
H650 C646 0.930 . S
H651 C648 0.929 . S
S652 N653 1.613 . S
S652 N654 1.610 . S
N653 S652 1.613 . S
N653 C656 1.350 . S
N654 S652 1.610 . S
N654 C655 1.351 . S
C655 C649 1.428 . S
C655 N654 1.351 . S
C655 C656 1.434 . S
C656 C647 1.429 . S
C656 N653 1.350 . S
C656 C655 1.434 . S
C657 C658 1.369 . S
C657 C659 1.419 . S
C657 H661 0.930 . S
C658 C657 1.369 . S
C658 C667 1.429 . S
C659 C657 1.419 . S
C659 C660 1.363 . S
C659 H662 0.929 . S
C660 C659 1.363 . S
C660 C666 1.428 . S
H661 C657 0.930 . S
H662 C659 0.929 . S
S663 N664 1.613 . S
S663 N665 1.610 . S
N664 S663 1.613 . S
N664 C667 1.350 . S
N665 S663 1.610 . S
N665 C666 1.351 . S
C666 C660 1.428 . S
C666 N665 1.351 . S
C666 C667 1.434 . S
C667 C658 1.429 . S
C667 N664 1.350 . S
C667 C666 1.434 . S
C668 C669 1.369 . S
C668 C670 1.419 . S
C668 H672 0.930 . S
C669 C668 1.369 . S
C669 C678 1.429 . S
C670 C668 1.419 . S
C670 C671 1.363 . S
C670 H673 0.929 . S
C671 C670 1.363 . S
C671 C677 1.428 . S
H672 C668 0.930 . S
H673 C670 0.929 . S
S674 N675 1.613 . S
S674 N676 1.610 . S
N675 S674 1.613 . S
N675 C678 1.350 . S
N676 S674 1.610 . S
N676 C677 1.351 . S
C677 C671 1.428 . S
C677 N676 1.351 . S
C677 C678 1.434 . S
C678 C669 1.429 . S
C678 N675 1.350 . S
C678 C677 1.434 . S
C679 C680 1.369 . S
C679 C681 1.419 . S
C679 H683 0.930 . S
C680 C679 1.369 . S
C680 C689 1.429 . S
C681 C679 1.419 . S
C681 C682 1.363 . S
C681 H684 0.929 . S
C682 C681 1.363 . S
C682 C688 1.428 . S
H683 C679 0.930 . S
H684 C681 0.929 . S
S685 N686 1.613 . S
S685 N687 1.610 . S
N686 S685 1.613 . S
N686 C689 1.350 . S
N687 S685 1.610 . S
N687 C688 1.351 . S
C688 C682 1.428 . S
C688 N687 1.351 . S
C688 C689 1.434 . S
C689 C680 1.429 . S
C689 N686 1.350 . S
C689 C688 1.434 . S
C690 C691 1.369 . S
C690 C692 1.419 . S
C690 H694 0.930 . S
C691 C690 1.369 . S
C691 C700 1.429 . S
C692 C690 1.419 . S
C692 C693 1.363 . S
C692 H695 0.929 . S
C693 C692 1.363 . S
C693 C699 1.428 . S
H694 C690 0.930 . S
H695 C692 0.929 . S
S696 N697 1.613 . S
S696 N698 1.610 . S
N697 S696 1.613 . S
N697 C700 1.350 . S
N698 S696 1.610 . S
N698 C699 1.351 . S
C699 C693 1.428 . S
C699 N698 1.351 . S
C699 C700 1.434 . S
C700 C691 1.429 . S
C700 N697 1.350 . S
C700 C699 1.434 . S
C701 C702 1.369 1_655 S
C701 C703 1.419 . S
C701 H705 0.930 1_655 S
C702 C701 1.369 1_455 S
C702 C711 1.429 1_455 S
C703 C701 1.419 . S
C703 C704 1.363 . S
C703 H706 0.929 . S
C704 C703 1.363 . S
C704 C710 1.428 . S
H705 C701 0.930 1_455 S
H706 C703 0.929 . S
S707 N708 1.613 . S
S707 N709 1.610 . S
N708 S707 1.613 . S
N708 C711 1.350 . S
N709 S707 1.610 . S
N709 C710 1.351 . S
C710 C704 1.428 . S
C710 N709 1.351 . S
C710 C711 1.434 . S
C711 C702 1.429 1_655 S
C711 N708 1.350 . S
C711 C710 1.434 . S
C712 C713 1.369 . S
C712 C714 1.419 . S
C712 H716 0.930 . S
C713 C712 1.369 . S
C713 C722 1.429 . S
C714 C712 1.419 . S
C714 C715 1.363 . S
C714 H717 0.929 . S
C715 C714 1.363 . S
C715 C721 1.428 . S
H716 C712 0.930 . S
H717 C714 0.929 . S
S718 N719 1.613 . S
S718 N720 1.610 . S
N719 S718 1.613 . S
N719 C722 1.350 . S
N720 S718 1.610 . S
N720 C721 1.351 . S
C721 C715 1.428 . S
C721 N720 1.351 . S
C721 C722 1.434 . S
C722 C713 1.429 . S
C722 N719 1.350 . S
C722 C721 1.434 . S
C723 C724 1.369 . S
C723 C725 1.419 . S
C723 H727 0.930 . S
C724 C723 1.369 . S
C724 C733 1.429 . S
C725 C723 1.419 . S
C725 C726 1.363 . S
C725 H728 0.929 . S
C726 C725 1.363 . S
C726 C732 1.428 . S
H727 C723 0.930 . S
H728 C725 0.929 . S
S729 N730 1.613 . S
S729 N731 1.610 . S
N730 S729 1.613 . S
N730 C733 1.350 . S
N731 S729 1.610 . S
N731 C732 1.351 . S
C732 C726 1.428 . S
C732 N731 1.351 . S
C732 C733 1.434 . S
C733 C724 1.429 . S
C733 N730 1.350 . S
C733 C732 1.434 . S
C734 C735 1.369 . S
C734 C736 1.419 . S
C734 H738 0.930 . S
C735 C734 1.369 . S
C735 C744 1.429 . S
C736 C734 1.419 . S
C736 C737 1.363 . S
C736 H739 0.929 . S
C737 C736 1.363 . S
C737 C743 1.428 . S
H738 C734 0.930 . S
H739 C736 0.929 . S
S740 N741 1.613 . S
S740 N742 1.610 . S
N741 S740 1.613 . S
N741 C744 1.350 . S
N742 S740 1.610 . S
N742 C743 1.351 . S
C743 C737 1.428 . S
C743 N742 1.351 . S
C743 C744 1.434 . S
C744 C735 1.429 . S
C744 N741 1.350 . S
C744 C743 1.434 . S
C745 C746 1.369 1_554 S
C745 C747 1.419 . S
C745 H749 0.924 1_554 S
C746 C745 1.369 1_556 S
C746 C755 1.429 1_556 S
C747 C745 1.419 . S
C747 C748 1.363 . S
C747 H750 0.929 . S
C748 C747 1.363 . S
C748 C754 1.428 . S
H749 C745 0.924 1_556 S
H750 C747 0.929 . S
S751 N752 1.613 . S
S751 N753 1.610 . S
N752 S751 1.613 . S
N752 C755 1.350 . S
N753 S751 1.610 . S
N753 C754 1.351 . S
C754 C748 1.428 . S
C754 N753 1.351 . S
C754 C755 1.434 . S
C755 C746 1.429 1_554 S
C755 N752 1.350 . S
C755 C754 1.434 . S
C756 C757 1.369 . S
C756 C758 1.419 . S
C756 H760 0.930 . S
C757 C756 1.369 . S
C757 C766 1.429 . S
C758 C756 1.419 . S
C758 C759 1.363 . S
C758 H761 0.929 . S
C759 C758 1.363 . S
C759 C765 1.428 . S
H760 C756 0.930 . S
H761 C758 0.929 . S
S762 N763 1.613 . S
S762 N764 1.610 . S
N763 S762 1.613 . S
N763 C766 1.350 . S
N764 S762 1.610 . S
N764 C765 1.351 . S
C765 C759 1.428 . S
C765 N764 1.351 . S
C765 C766 1.434 . S
C766 C757 1.429 . S
C766 N763 1.350 . S
C766 C765 1.434 . S
C767 C768 1.369 . S
C767 C769 1.419 . S
C767 H771 0.930 . S
C768 C767 1.369 . S
C768 C777 1.429 . S
C769 C767 1.419 . S
C769 C770 1.363 . S
C769 H772 0.929 . S
C770 C769 1.363 . S
C770 C776 1.428 . S
H771 C767 0.930 . S
H772 C769 0.929 . S
S773 N774 1.613 . S
S773 N775 1.610 . S
N774 S773 1.613 . S
N774 C777 1.350 . S
N775 S773 1.610 . S
N775 C776 1.351 . S
C776 C770 1.428 . S
C776 N775 1.351 . S
C776 C777 1.434 . S
C777 C768 1.429 . S
C777 N774 1.350 . S
C777 C776 1.434 . S
C778 C779 1.369 . S
C778 C780 1.419 . S
C778 H782 0.930 . S
C779 C778 1.369 . S
C779 C788 1.429 . S
C780 C778 1.419 . S
C780 C781 1.363 . S
C780 H783 0.929 . S
C781 C780 1.363 . S
C781 C787 1.428 . S
H782 C778 0.930 . S
H783 C780 0.929 . S
S784 N785 1.613 . S
S784 N786 1.610 . S
N785 S784 1.613 . S
N785 C788 1.350 . S
N786 S784 1.610 . S
N786 C787 1.351 . S
C787 C781 1.428 . S
C787 N786 1.351 . S
C787 C788 1.434 . S
C788 C779 1.429 . S
C788 N785 1.350 . S
C788 C787 1.434 . S
C789 C790 1.369 1_556 S
C789 C791 1.419 . S
C789 H793 0.930 1_556 S
C790 C789 1.369 1_554 S
C790 C799 1.429 1_554 S
C791 C789 1.419 . S
C791 C792 1.363 . S
C791 H794 0.929 . S
C792 C791 1.363 . S
C792 C798 1.428 . S
H793 C789 0.930 1_554 S
H794 C791 0.929 . S
S795 N796 1.613 . S
S795 N797 1.610 . S
N796 S795 1.613 . S
N796 C799 1.350 . S
N797 S795 1.610 . S
N797 C798 1.351 . S
C798 C792 1.428 . S
C798 N797 1.351 . S
C798 C799 1.434 . S
C799 C790 1.429 1_556 S
C799 N796 1.350 . S
C799 C798 1.434 . S
C800 C801 1.369 . S
C800 C802 1.419 . S
C800 H804 0.930 . S
C801 C800 1.369 . S
C801 C810 1.429 . S
C802 C800 1.419 . S
C802 C803 1.363 . S
C802 H805 0.929 . S
C803 C802 1.363 . S
C803 C809 1.428 . S
H804 C800 0.930 . S
H805 C802 0.929 . S
S806 N807 1.613 . S
S806 N808 1.610 . S
N807 S806 1.613 . S
N807 C810 1.350 . S
N808 S806 1.610 . S
N808 C809 1.351 . S
C809 C803 1.428 . S
C809 N808 1.351 . S
C809 C810 1.434 . S
C810 C801 1.429 . S
C810 N807 1.350 . S
C810 C809 1.434 . S
C811 C812 1.369 . S
C811 C813 1.419 . S
C811 H815 0.930 . S
C812 C811 1.369 . S
C812 C821 1.429 . S
C813 C811 1.419 . S
C813 C814 1.363 . S
C813 H816 0.929 . S
C814 C813 1.363 . S
C814 C820 1.428 . S
H815 C811 0.930 . S
H816 C813 0.929 . S
S817 N818 1.613 . S
S817 N819 1.610 . S
N818 S817 1.613 . S
N818 C821 1.350 . S
N819 S817 1.610 . S
N819 C820 1.351 . S
C820 C814 1.428 . S
C820 N819 1.351 . S
C820 C821 1.434 . S
C821 C812 1.429 . S
C821 N818 1.350 . S
C821 C820 1.434 . S
C822 C823 1.369 . S
C822 C824 1.419 . S
C822 H826 0.930 . S
C823 C822 1.369 . S
C823 C832 1.429 . S
C824 C822 1.419 . S
C824 C825 1.363 . S
C824 H827 0.929 . S
C825 C824 1.363 . S
C825 C831 1.428 . S
H826 C822 0.930 . S
H827 C824 0.929 . S
S828 N829 1.613 . S
S828 N830 1.610 . S
N829 S828 1.613 . S
N829 C832 1.350 . S
N830 S828 1.610 . S
N830 C831 1.351 . S
C831 C825 1.428 . S
C831 N830 1.351 . S
C831 C832 1.434 . S
C832 C823 1.429 . S
C832 N829 1.350 . S
C832 C831 1.434 . S
C833 C834 1.369 . S
C833 C835 1.419 . S
C833 H837 0.930 . S
C834 C833 1.369 . S
C834 C843 1.429 . S
C835 C833 1.419 . S
C835 C836 1.363 . S
C835 H838 0.929 . S
C836 C835 1.363 . S
C836 C842 1.428 . S
H837 C833 0.930 . S
H838 C835 0.929 . S
S839 N840 1.613 . S
S839 N841 1.610 . S
N840 S839 1.613 . S
N840 C843 1.350 . S
N841 S839 1.610 . S
N841 C842 1.351 . S
C842 C836 1.428 . S
C842 N841 1.351 . S
C842 C843 1.434 . S
C843 C834 1.429 . S
C843 N840 1.350 . S
C843 C842 1.434 . S
C844 C845 1.369 . S
C844 C846 1.419 . S
C844 H848 0.930 . S
C845 C844 1.369 . S
C845 C854 1.429 . S
C846 C844 1.419 . S
C846 C847 1.363 1_565 S
C846 H849 0.929 . S
C847 C846 1.363 1_545 S
C847 C853 1.428 1_545 S
H848 C844 0.930 . S
H849 C846 0.929 . S
S850 N851 1.613 . S
S850 N852 1.610 1_565 S
N851 S850 1.613 . S
N851 C854 1.350 . S
N852 S850 1.610 1_545 S
N852 C853 1.351 1_545 S
C853 C847 1.428 1_565 S
C853 N852 1.351 1_565 S
C853 C854 1.434 . S
C854 C845 1.429 . S
C854 N851 1.350 . S
C854 C853 1.434 . S
C855 C856 1.369 . S
C855 C857 1.419 . S
C855 H859 0.930 . S
C856 C855 1.369 . S
C856 C865 1.429 . S
C857 C855 1.419 . S
C857 C858 1.363 . S
C857 H860 0.929 . S
C858 C857 1.363 . S
C858 C864 1.428 . S
H859 C855 0.930 . S
H860 C857 0.929 . S
S861 N862 1.613 . S
S861 N863 1.610 . S
N862 S861 1.613 . S
N862 C865 1.350 . S
N863 S861 1.610 . S
N863 C864 1.351 . S
C864 C858 1.428 . S
C864 N863 1.351 . S
C864 C865 1.434 . S
C865 C856 1.429 . S
C865 N862 1.350 . S
C865 C864 1.434 . S
C866 C867 1.369 . S
C866 C868 1.419 . S
C866 H870 0.930 . S
C867 C866 1.369 . S
C867 C876 1.429 . S
C868 C866 1.419 . S
C868 C869 1.363 . S
C868 H871 0.929 . S
C869 C868 1.363 . S
C869 C875 1.428 . S
H870 C866 0.930 . S
H871 C868 0.929 . S
S872 N873 1.613 . S
S872 N874 1.610 . S
N873 S872 1.613 . S
N873 C876 1.350 . S
N874 S872 1.610 . S
N874 C875 1.351 . S
C875 C869 1.428 . S
C875 N874 1.351 . S
C875 C876 1.434 . S
C876 C867 1.429 . S
C876 N873 1.350 . S
C876 C875 1.434 . S
C877 C878 1.369 . S
C877 C879 1.419 . S
C877 H881 0.930 . S
C878 C877 1.369 . S
C878 C887 1.429 . S
C879 C877 1.419 . S
C879 C880 1.363 . S
C879 H882 0.929 . S
C880 C879 1.363 . S
C880 C886 1.428 . S
H881 C877 0.930 . S
H882 C879 0.929 . S
S883 N884 1.613 . S
S883 N885 1.610 . S
N884 S883 1.613 . S
N884 C887 1.350 . S
N885 S883 1.610 . S
N885 C886 1.351 . S
C886 C880 1.428 . S
C886 N885 1.351 . S
C886 C887 1.434 . S
C887 C878 1.429 . S
C887 N884 1.350 . S
C887 C886 1.434 . S
C888 C889 1.369 . S
C888 C890 1.419 . S
C888 H892 0.930 . S
C889 C888 1.369 . S
C889 C898 1.429 . S
C890 C888 1.419 . S
C890 C891 1.363 . S
C890 H893 0.929 . S
C891 C890 1.363 . S
C891 C897 1.428 . S
H892 C888 0.930 . S
H893 C890 0.929 . S
S894 N895 1.613 . S
S894 N896 1.610 . S
N895 S894 1.613 . S
N895 C898 1.350 . S
N896 S894 1.610 . S
N896 C897 1.351 . S
C897 C891 1.428 . S
C897 N896 1.351 . S
C897 C898 1.434 . S
C898 C889 1.429 . S
C898 N895 1.350 . S
C898 C897 1.434 . S
C899 C900 1.352 1_455 S
C899 C901 1.419 . S
C899 H903 0.930 . S
C900 C899 1.352 1_655 S
C900 C909 1.421 1_655 S
C901 C899 1.419 . S
C901 C902 1.363 . S
C901 H904 0.929 . S
C902 C901 1.363 . S
C902 C908 1.428 . S
H903 C899 0.930 . S
H904 C901 0.929 . S
S905 N906 1.613 1_455 S
S905 N907 1.610 . S
N906 S905 1.613 1_655 S
N906 C909 1.350 1_655 S
N907 S905 1.610 . S
N907 C908 1.351 . S
C908 C902 1.428 . S
C908 N907 1.351 . S
C908 C909 1.434 . S
C909 C900 1.421 1_455 S
C909 N906 1.350 1_455 S
C909 C908 1.434 . S
C910 C911 1.369 . S
C910 C912 1.419 . S
C910 H914 0.930 . S
C911 C910 1.369 . S
C911 C920 1.429 . S
C912 C910 1.419 . S
C912 C913 1.363 . S
C912 H915 0.929 . S
C913 C912 1.363 . S
C913 C919 1.428 . S
H914 C910 0.930 . S
H915 C912 0.929 . S
S916 N917 1.613 . S
S916 N918 1.610 . S
N917 S916 1.613 . S
N917 C920 1.350 . S
N918 S916 1.610 . S
N918 C919 1.351 . S
C919 C913 1.428 . S
C919 N918 1.351 . S
C919 C920 1.434 . S
C920 C911 1.429 . S
C920 N917 1.350 . S
C920 C919 1.434 . S
C921 C922 1.369 . S
C921 C923 1.419 . S
C921 H925 0.930 . S
C922 C921 1.369 . S
C922 C931 1.429 . S
C923 C921 1.419 . S
C923 C924 1.363 . S
C923 H926 0.929 . S
C924 C923 1.363 . S
C924 C930 1.428 . S
H925 C921 0.930 . S
H926 C923 0.929 . S
S927 N928 1.613 . S
S927 N929 1.610 . S
N928 S927 1.613 . S
N928 C931 1.350 . S
N929 S927 1.610 . S
N929 C930 1.351 . S
C930 C924 1.428 . S
C930 N929 1.351 . S
C930 C931 1.434 . S
C931 C922 1.429 . S
C931 N928 1.350 . S
C931 C930 1.434 . S
C932 C933 1.369 . S
C932 C934 1.419 . S
C932 H936 0.930 . S
C933 C932 1.369 . S
C933 C942 1.429 . S
C934 C932 1.419 . S
C934 C935 1.363 . S
C934 H937 0.929 . S
C935 C934 1.363 . S
C935 C941 1.428 . S
H936 C932 0.930 . S
H937 C934 0.929 . S
S938 N939 1.613 . S
S938 N940 1.610 . S
N939 S938 1.613 . S
N939 C942 1.350 . S
N940 S938 1.610 . S
N940 C941 1.351 . S
C941 C935 1.428 . S
C941 N940 1.351 . S
C941 C942 1.434 . S
C942 C933 1.429 . S
C942 N939 1.350 . S
C942 C941 1.434 . S
C943 C944 1.369 . S
C943 C945 1.419 . S
C943 H947 0.930 . S
C944 C943 1.369 . S
C944 C953 1.429 . S
C945 C943 1.419 . S
C945 C946 1.363 . S
C945 H948 0.929 . S
C946 C945 1.363 . S
C946 C952 1.428 . S
H947 C943 0.930 . S
H948 C945 0.929 . S
S949 N950 1.613 . S
S949 N951 1.610 . S
N950 S949 1.613 . S
N950 C953 1.350 . S
N951 S949 1.610 . S
N951 C952 1.351 . S
C952 C946 1.428 . S
C952 N951 1.351 . S
C952 C953 1.434 . S
C953 C944 1.429 . S
C953 N950 1.350 . S
C953 C952 1.434 . S
C954 C955 1.369 . S
C954 C956 1.419 . S
C954 H958 0.930 . S
C955 C954 1.369 . S
C955 C964 1.429 . S
C956 C954 1.419 . S
C956 C957 1.363 . S
C956 H959 0.929 . S
C957 C956 1.363 . S
C957 C963 1.428 . S
H958 C954 0.930 . S
H959 C956 0.929 . S
S960 N961 1.613 . S
S960 N962 1.610 . S
N961 S960 1.613 . S
N961 C964 1.350 . S
N962 S960 1.610 . S
N962 C963 1.351 . S
C963 C957 1.428 . S
C963 N962 1.351 . S
C963 C964 1.434 . S
C964 C955 1.429 . S
C964 N961 1.350 . S
C964 C963 1.434 . S
C965 C966 1.369 . S
C965 C967 1.419 . S
C965 H969 0.930 . S
C966 C965 1.369 . S
C966 C975 1.429 . S
C967 C965 1.419 . S
C967 C968 1.363 1_455 S
C967 H970 0.929 . S
C968 C967 1.363 1_655 S
C968 C974 1.428 1_655 S
H969 C965 0.930 . S
H970 C967 0.929 . S
S971 N972 1.613 . S
S971 N973 1.610 1_455 S
N972 S971 1.613 . S
N972 C975 1.350 . S
N973 S971 1.610 1_655 S
N973 C974 1.351 1_655 S
C974 C968 1.428 1_455 S
C974 N973 1.351 1_455 S
C974 C975 1.434 . S
C975 C966 1.429 . S
C975 N972 1.350 . S
C975 C974 1.434 . S
C976 C977 1.369 . S
C976 C978 1.419 . S
C976 H980 0.930 . S
C977 C976 1.369 . S
C977 C986 1.429 . S
C978 C976 1.419 . S
C978 C979 1.363 . S
C978 H981 0.929 . S
C979 C978 1.363 . S
C979 C985 1.428 . S
H980 C976 0.930 . S
H981 C978 0.929 . S
S982 N983 1.613 . S
S982 N984 1.610 . S
N983 S982 1.613 . S
N983 C986 1.350 . S
N984 S982 1.610 . S
N984 C985 1.351 . S
C985 C979 1.428 . S
C985 N984 1.351 . S
C985 C986 1.434 . S
C986 C977 1.429 . S
C986 N983 1.350 . S
C986 C985 1.434 . S
C987 C988 1.369 . S
C987 C989 1.419 . S
C987 H991 0.930 . S
C988 C987 1.369 . S
C988 C997 1.429 . S
C989 C987 1.419 . S
C989 C990 1.363 . S
C989 H992 0.929 . S
C990 C989 1.363 . S
C990 C996 1.428 . S
H991 C987 0.930 . S
H992 C989 0.929 . S
S993 N994 1.613 . S
S993 N995 1.610 . S
N994 S993 1.613 . S
N994 C997 1.350 . S
N995 S993 1.610 . S
N995 C996 1.351 . S
C996 C990 1.428 . S
C996 N995 1.351 . S
C996 C997 1.434 . S
C997 C988 1.429 . S
C997 N994 1.350 . S
C997 C996 1.434 . S
C998 C999 1.369 . S
C998 C1000 1.419 . S
C998 H1002 0.930 . S
C999 C998 1.369 . S
C999 C1008 1.429 . S
C1000 C998 1.419 . S
C1000 C1001 1.363 . S
C1000 H1003 0.929 . S
C1001 C1000 1.363 . S
C1001 C1007 1.428 . S
H1002 C998 0.930 . S
H1003 C1000 0.929 . S
S1004 N1005 1.613 . S
S1004 N1006 1.610 . S
N1005 S1004 1.613 . S
N1005 C1008 1.350 . S
N1006 S1004 1.610 . S
N1006 C1007 1.351 . S
C1007 C1001 1.428 . S
C1007 N1006 1.351 . S
C1007 C1008 1.434 . S
C1008 C999 1.429 . S
C1008 N1005 1.350 . S
C1008 C1007 1.434 . S
C1009 C1010 1.369 . S
C1009 C1011 1.419 . S
C1009 H1013 0.930 . S
C1010 C1009 1.369 . S
C1010 C1019 1.429 . S
C1011 C1009 1.419 . S
C1011 C1012 1.363 1_556 S
C1011 H1014 0.929 . S
C1012 C1011 1.363 1_554 S
C1012 C1018 1.424 1_554 S
H1013 C1009 0.930 . S
H1014 C1011 0.929 . S
S1015 N1016 1.613 . S
S1015 N1017 1.610 1_556 S
N1016 S1015 1.613 . S
N1016 C1019 1.350 . S
N1017 S1015 1.610 1_554 S
N1017 C1018 1.344 1_554 S
C1018 C1012 1.424 1_556 S
C1018 N1017 1.344 1_556 S
C1018 C1019 1.447 . S
C1019 C1010 1.429 . S
C1019 N1016 1.350 . S
C1019 C1018 1.447 . S
C1020 C1021 1.369 . S
C1020 C1022 1.419 . S
C1020 H1024 0.930 . S
C1021 C1020 1.369 . S
C1021 C1030 1.429 . S
C1022 C1020 1.419 . S
C1022 C1023 1.363 . S
C1022 H1025 0.929 . S
C1023 C1022 1.363 . S
C1023 C1029 1.428 . S
H1024 C1020 0.930 . S
H1025 C1022 0.929 . S
S1026 N1027 1.613 . S
S1026 N1028 1.610 . S
N1027 S1026 1.613 . S
N1027 C1030 1.350 . S
N1028 S1026 1.610 . S
N1028 C1029 1.351 . S
C1029 C1023 1.428 . S
C1029 N1028 1.351 . S
C1029 C1030 1.434 . S
C1030 C1021 1.429 . S
C1030 N1027 1.350 . S
C1030 C1029 1.434 . S
C1031 C1032 1.369 . S
C1031 C1033 1.419 . S
C1031 H1035 0.930 . S
C1032 C1031 1.369 . S
C1032 C1041 1.429 . S
C1033 C1031 1.419 . S
C1033 C1034 1.363 . S
C1033 H1036 0.929 . S
C1034 C1033 1.363 . S
C1034 C1040 1.428 . S
H1035 C1031 0.930 . S
H1036 C1033 0.929 . S
S1037 N1038 1.613 . S
S1037 N1039 1.610 . S
N1038 S1037 1.613 . S
N1038 C1041 1.350 . S
N1039 S1037 1.610 . S
N1039 C1040 1.351 . S
C1040 C1034 1.428 . S
C1040 N1039 1.351 . S
C1040 C1041 1.434 . S
C1041 C1032 1.429 . S
C1041 N1038 1.350 . S
C1041 C1040 1.434 . S
C1042 C1043 1.369 . S
C1042 C1044 1.419 . S
C1042 H1046 0.930 . S
C1043 C1042 1.369 . S
C1043 C1052 1.429 . S
C1044 C1042 1.419 . S
C1044 C1045 1.363 . S
C1044 H1047 0.929 . S
C1045 C1044 1.363 . S
C1045 C1051 1.428 . S
H1046 C1042 0.930 . S
H1047 C1044 0.929 . S
S1048 N1049 1.613 . S
S1048 N1050 1.610 . S
N1049 S1048 1.613 . S
N1049 C1052 1.350 . S
N1050 S1048 1.610 . S
N1050 C1051 1.351 . S
C1051 C1045 1.428 . S
C1051 N1050 1.351 . S
C1051 C1052 1.434 . S
C1052 C1043 1.429 . S
C1052 N1049 1.350 . S
C1052 C1051 1.434 . S
C1053 C1054 1.369 1_554 S
C1053 C1055 1.419 . S
C1053 H1057 0.930 . S
C1054 C1053 1.369 1_556 S
C1054 C1063 1.415 1_556 S
C1055 C1053 1.419 . S
C1055 C1056 1.363 . S
C1055 H1058 0.929 . S
C1056 C1055 1.363 . S
C1056 C1062 1.428 . S
H1057 C1053 0.930 . S
H1058 C1055 0.929 . S
S1059 N1060 1.613 1_554 S
S1059 N1061 1.610 . S
N1060 S1059 1.613 1_556 S
N1060 C1063 1.330 1_556 S
N1061 S1059 1.610 . S
N1061 C1062 1.351 . S
C1062 C1056 1.428 . S
C1062 N1061 1.351 . S
C1062 C1063 1.470 . S
C1063 C1054 1.415 1_554 S
C1063 N1060 1.330 1_554 S
C1063 C1062 1.470 . S
C1064 C1065 1.369 . S
C1064 C1066 1.419 . S
C1064 H1068 0.930 . S
C1065 C1064 1.369 . S
C1065 C1074 1.429 . S
C1066 C1064 1.419 . S
C1066 C1067 1.363 . S
C1066 H1069 0.929 . S
C1067 C1066 1.363 . S
C1067 C1073 1.428 . S
H1068 C1064 0.930 . S
H1069 C1066 0.929 . S
S1070 N1071 1.613 . S
S1070 N1072 1.610 . S
N1071 S1070 1.613 . S
N1071 C1074 1.350 . S
N1072 S1070 1.610 . S
N1072 C1073 1.351 . S
C1073 C1067 1.428 . S
C1073 N1072 1.351 . S
C1073 C1074 1.434 . S
C1074 C1065 1.429 . S
C1074 N1071 1.350 . S
C1074 C1073 1.434 . S
C1075 C1076 1.369 . S
C1075 C1077 1.419 . S
C1075 H1079 0.930 . S
C1076 C1075 1.369 . S
C1076 C1085 1.429 . S
C1077 C1075 1.419 . S
C1077 C1078 1.363 . S
C1077 H1080 0.929 . S
C1078 C1077 1.363 . S
C1078 C1084 1.428 . S
H1079 C1075 0.930 . S
H1080 C1077 0.929 . S
S1081 N1082 1.613 . S
S1081 N1083 1.610 . S
N1082 S1081 1.613 . S
N1082 C1085 1.350 . S
N1083 S1081 1.610 . S
N1083 C1084 1.351 . S
C1084 C1078 1.428 . S
C1084 N1083 1.351 . S
C1084 C1085 1.434 . S
C1085 C1076 1.429 . S
C1085 N1082 1.350 . S
C1085 C1084 1.434 . S
C1086 C1087 1.369 . S
C1086 C1088 1.419 . S
C1086 H1090 0.930 . S
C1087 C1086 1.369 . S
C1087 C1096 1.429 . S
C1088 C1086 1.419 . S
C1088 C1089 1.363 . S
C1088 H1091 0.929 . S
C1089 C1088 1.363 . S
C1089 C1095 1.428 . S
H1090 C1086 0.930 . S
H1091 C1088 0.929 . S
S1092 N1093 1.613 . S
S1092 N1094 1.610 . S
N1093 S1092 1.613 . S
N1093 C1096 1.350 . S
N1094 S1092 1.610 . S
N1094 C1095 1.351 . S
C1095 C1089 1.428 . S
C1095 N1094 1.351 . S
C1095 C1096 1.434 . S
C1096 C1087 1.429 . S
C1096 N1093 1.350 . S
C1096 C1095 1.434 . S
C1097 C1098 1.369 . S
C1097 C1099 1.419 . S
C1097 H1101 0.930 . S
C1098 C1097 1.369 . S
C1098 C1107 1.429 . S
C1099 C1097 1.419 . S
C1099 C1100 1.363 . S
C1099 H1102 0.929 . S
C1100 C1099 1.363 . S
C1100 C1106 1.428 . S
H1101 C1097 0.930 . S
H1102 C1099 0.929 . S
S1103 N1104 1.613 . S
S1103 N1105 1.610 . S
N1104 S1103 1.613 . S
N1104 C1107 1.350 . S
N1105 S1103 1.610 . S
N1105 C1106 1.351 . S
C1106 C1100 1.428 . S
C1106 N1105 1.351 . S
C1106 C1107 1.434 . S
C1107 C1098 1.429 . S
C1107 N1104 1.350 . S
C1107 C1106 1.434 . S
C1108 C1109 1.369 1_545 S
C1108 C1110 1.419 . S
C1108 H1112 0.948 . S
C1109 C1108 1.369 1_565 S
C1109 C1118 1.429 1_565 S
C1110 C1108 1.419 . S
C1110 C1111 1.363 . S
C1110 H1113 0.929 . S
C1111 C1110 1.363 . S
C1111 C1117 1.428 . S
H1112 C1108 0.948 . S
H1113 C1110 0.929 . S
S1114 N1115 1.613 . S
S1114 N1116 1.610 . S
N1115 S1114 1.613 . S
N1115 C1118 1.350 . S
N1116 S1114 1.610 . S
N1116 C1117 1.351 . S
C1117 C1111 1.428 . S
C1117 N1116 1.351 . S
C1117 C1118 1.434 . S
C1118 C1109 1.429 1_545 S
C1118 N1115 1.350 . S
C1118 C1117 1.434 . S
C1119 C1120 1.369 . S
C1119 C1121 1.419 . S
C1119 H1123 0.930 . S
C1120 C1119 1.369 . S
C1120 C1129 1.429 . S
C1121 C1119 1.419 . S
C1121 C1122 1.363 . S
C1121 H1124 0.929 . S
C1122 C1121 1.363 . S
C1122 C1128 1.428 . S
H1123 C1119 0.930 . S
H1124 C1121 0.929 . S
S1125 N1126 1.613 . S
S1125 N1127 1.610 . S
N1126 S1125 1.613 . S
N1126 C1129 1.350 . S
N1127 S1125 1.610 . S
N1127 C1128 1.351 . S
C1128 C1122 1.428 . S
C1128 N1127 1.351 . S
C1128 C1129 1.434 . S
C1129 C1120 1.429 . S
C1129 N1126 1.350 . S
C1129 C1128 1.434 . S
C1130 C1131 1.369 . S
C1130 C1132 1.419 . S
C1130 H1134 0.930 . S
C1131 C1130 1.369 . S
C1131 C1140 1.429 . S
C1132 C1130 1.419 . S
C1132 C1133 1.363 . S
C1132 H1135 0.929 . S
C1133 C1132 1.363 . S
C1133 C1139 1.428 . S
H1134 C1130 0.930 . S
H1135 C1132 0.929 . S
S1136 N1137 1.613 . S
S1136 N1138 1.610 . S
N1137 S1136 1.613 . S
N1137 C1140 1.350 . S
N1138 S1136 1.610 . S
N1138 C1139 1.351 . S
C1139 C1133 1.428 . S
C1139 N1138 1.351 . S
C1139 C1140 1.434 . S
C1140 C1131 1.429 . S
C1140 N1137 1.350 . S
C1140 C1139 1.434 . S
C1141 C1142 1.369 . S
C1141 C1143 1.419 . S
C1141 H1145 0.930 . S
C1142 C1141 1.369 . S
C1142 C1151 1.429 . S
C1143 C1141 1.419 . S
C1143 C1144 1.363 . S
C1143 H1146 0.929 . S
C1144 C1143 1.363 . S
C1144 C1150 1.428 . S
H1145 C1141 0.930 . S
H1146 C1143 0.929 . S
S1147 N1148 1.613 . S
S1147 N1149 1.610 . S
N1148 S1147 1.613 . S
N1148 C1151 1.350 . S
N1149 S1147 1.610 . S
N1149 C1150 1.351 . S
C1150 C1144 1.428 . S
C1150 N1149 1.351 . S
C1150 C1151 1.434 . S
C1151 C1142 1.429 . S
C1151 N1148 1.350 . S
C1151 C1150 1.434 . S
C1152 C1153 1.369 . S
C1152 C1154 1.419 . S
C1152 H1156 0.930 . S
C1153 C1152 1.369 . S
C1153 C1162 1.429 . S
C1154 C1152 1.419 . S
C1154 C1155 1.363 . S
C1154 H1157 0.929 . S
C1155 C1154 1.363 . S
C1155 C1161 1.428 . S
H1156 C1152 0.930 . S
H1157 C1154 0.929 . S
S1158 N1159 1.613 . S
S1158 N1160 1.610 . S
N1159 S1158 1.613 . S
N1159 C1162 1.350 . S
N1160 S1158 1.610 . S
N1160 C1161 1.351 . S
C1161 C1155 1.428 . S
C1161 N1160 1.351 . S
C1161 C1162 1.434 . S
C1162 C1153 1.429 . S
C1162 N1159 1.350 . S
C1162 C1161 1.434 . S
C1163 C1164 1.369 . S
C1163 C1165 1.419 . S
C1163 H1167 0.930 . S
C1164 C1163 1.369 . S
C1164 C1173 1.429 . S
C1165 C1163 1.419 . S
C1165 C1166 1.363 . S
C1165 H1168 0.929 . S
C1166 C1165 1.363 . S
C1166 C1172 1.428 . S
H1167 C1163 0.930 . S
H1168 C1165 0.929 . S
S1169 N1170 1.613 . S
S1169 N1171 1.610 . S
N1170 S1169 1.613 . S
N1170 C1173 1.350 . S
N1171 S1169 1.610 . S
N1171 C1172 1.351 . S
C1172 C1166 1.428 . S
C1172 N1171 1.351 . S
C1172 C1173 1.434 . S
C1173 C1164 1.429 . S
C1173 N1170 1.350 . S
C1173 C1172 1.434 . S
C1174 C1175 1.369 . S
C1174 C1176 1.419 . S
C1174 H1178 0.930 . S
C1175 C1174 1.369 . S
C1175 C1184 1.429 . S
C1176 C1174 1.419 . S
C1176 C1177 1.363 . S
C1176 H1179 0.929 . S
C1177 C1176 1.363 . S
C1177 C1183 1.428 . S
H1178 C1174 0.930 . S
H1179 C1176 0.929 . S
S1180 N1181 1.613 . S
S1180 N1182 1.610 . S
N1181 S1180 1.613 . S
N1181 C1184 1.350 . S
N1182 S1180 1.610 . S
N1182 C1183 1.351 . S
C1183 C1177 1.428 . S
C1183 N1182 1.351 . S
C1183 C1184 1.434 . S
C1184 C1175 1.429 . S
C1184 N1181 1.350 . S
C1184 C1183 1.434 . S
C1185 C1186 1.369 1_455 S
C1185 C1187 1.419 . S
C1185 H1189 0.930 1_455 S
C1186 C1185 1.369 1_655 S
C1186 C1195 1.429 1_655 S
C1187 C1185 1.419 . S
C1187 C1188 1.363 . S
C1187 H1190 0.929 . S
C1188 C1187 1.363 . S
C1188 C1194 1.428 . S
H1189 C1185 0.930 1_655 S
H1190 C1187 0.929 . S
S1191 N1192 1.613 . S
S1191 N1193 1.610 . S
N1192 S1191 1.613 . S
N1192 C1195 1.350 . S
N1193 S1191 1.610 . S
N1193 C1194 1.351 . S
C1194 C1188 1.428 . S
C1194 N1193 1.351 . S
C1194 C1195 1.434 . S
C1195 C1186 1.429 1_455 S
C1195 N1192 1.350 . S
C1195 C1194 1.434 . S
C1196 C1197 1.369 . S
C1196 C1198 1.419 . S
C1196 H1200 0.930 . S
C1197 C1196 1.369 . S
C1197 C1206 1.429 . S
C1198 C1196 1.419 . S
C1198 C1199 1.363 . S
C1198 H1201 0.929 . S
C1199 C1198 1.363 . S
C1199 C1205 1.428 . S
H1200 C1196 0.930 . S
H1201 C1198 0.929 . S
S1202 N1203 1.613 . S
S1202 N1204 1.610 . S
N1203 S1202 1.613 . S
N1203 C1206 1.350 . S
N1204 S1202 1.610 . S
N1204 C1205 1.351 . S
C1205 C1199 1.428 . S
C1205 N1204 1.351 . S
C1205 C1206 1.434 . S
C1206 C1197 1.429 . S
C1206 N1203 1.350 . S
C1206 C1205 1.434 . S
C1207 C1208 1.369 . S
C1207 C1209 1.419 . S
C1207 H1211 0.930 . S
C1208 C1207 1.369 . S
C1208 C1217 1.429 . S
C1209 C1207 1.419 . S
C1209 C1210 1.363 1_455 S
C1209 H1212 0.918 1_455 S
C1210 C1209 1.363 1_655 S
C1210 C1216 1.428 . S
H1211 C1207 0.930 . S
H1212 C1209 0.918 1_655 S
S1213 N1214 1.613 . S
S1213 N1215 1.610 1_455 S
N1214 S1213 1.613 . S
N1214 C1217 1.350 . S
N1215 S1213 1.610 1_655 S
N1215 C1216 1.351 . S
C1216 C1210 1.428 . S
C1216 N1215 1.351 . S
C1216 C1217 1.434 1_655 S
C1217 C1208 1.429 . S
C1217 N1214 1.350 . S
C1217 C1216 1.434 1_455 S
C1218 C1219 1.369 . S
C1218 C1220 1.419 . S
C1218 H1222 0.930 . S
C1219 C1218 1.369 . S
C1219 C1228 1.429 . S
C1220 C1218 1.419 . S
C1220 C1221 1.363 . S
C1220 H1223 0.929 . S
C1221 C1220 1.363 . S
C1221 C1227 1.428 . S
H1222 C1218 0.930 . S
H1223 C1220 0.929 . S
S1224 N1225 1.613 . S
S1224 N1226 1.610 . S
N1225 S1224 1.613 . S
N1225 C1228 1.350 . S
N1226 S1224 1.610 . S
N1226 C1227 1.351 . S
C1227 C1221 1.428 . S
C1227 N1226 1.351 . S
C1227 C1228 1.434 . S
C1228 C1219 1.429 . S
C1228 N1225 1.350 . S
C1228 C1227 1.434 . S
C1229 C1230 1.369 . S
C1229 C1231 1.419 . S
C1229 H1233 0.930 . S
C1230 C1229 1.369 . S
C1230 C1239 1.429 . S
C1231 C1229 1.419 . S
C1231 C1232 1.363 . S
C1231 H1234 0.929 . S
C1232 C1231 1.363 . S
C1232 C1238 1.428 . S
H1233 C1229 0.930 . S
H1234 C1231 0.929 . S
S1235 N1236 1.613 . S
S1235 N1237 1.610 . S
N1236 S1235 1.613 . S
N1236 C1239 1.350 . S
N1237 S1235 1.610 . S
N1237 C1238 1.351 . S
C1238 C1232 1.428 . S
C1238 N1237 1.351 . S
C1238 C1239 1.434 . S
C1239 C1230 1.429 . S
C1239 N1236 1.350 . S
C1239 C1238 1.434 . S
C1240 C1241 1.369 . S
C1240 C1242 1.419 . S
C1240 H1244 0.930 . S
C1241 C1240 1.369 . S
C1241 C1250 1.429 . S
C1242 C1240 1.419 . S
C1242 C1243 1.363 . S
C1242 H1245 0.929 . S
C1243 C1242 1.363 . S
C1243 C1249 1.428 . S
H1244 C1240 0.930 . S
H1245 C1242 0.929 . S
S1246 N1247 1.613 . S
S1246 N1248 1.610 . S
N1247 S1246 1.613 . S
N1247 C1250 1.350 . S
N1248 S1246 1.610 . S
N1248 C1249 1.351 . S
C1249 C1243 1.428 . S
C1249 N1248 1.351 . S
C1249 C1250 1.434 . S
C1250 C1241 1.429 . S
C1250 N1247 1.350 . S
C1250 C1249 1.434 . S
C1251 C1252 1.369 . S
C1251 C1253 1.419 . S
C1251 H1255 0.930 . S
C1252 C1251 1.369 . S
C1252 C1261 1.429 . S
C1253 C1251 1.419 . S
C1253 C1254 1.363 1_554 S
C1253 H1256 0.929 1_554 S
C1254 C1253 1.363 1_556 S
C1254 C1260 1.428 1_556 S
H1255 C1251 0.930 . S
H1256 C1253 0.929 1_556 S
S1257 N1258 1.613 . S
S1257 N1259 1.610 . S
N1258 S1257 1.613 . S
N1258 C1261 1.350 . S
N1259 S1257 1.610 . S
N1259 C1260 1.351 . S
C1260 C1254 1.428 1_554 S
C1260 N1259 1.351 . S
C1260 C1261 1.434 . S
C1261 C1252 1.429 . S
C1261 N1258 1.350 . S
C1261 C1260 1.434 . S
C1262 C1263 1.369 . S
C1262 C1264 1.419 . S
C1262 H1266 0.930 . S
C1263 C1262 1.369 . S
C1263 C1272 1.429 . S
C1264 C1262 1.419 . S
C1264 C1265 1.363 . S
C1264 H1267 0.929 . S
C1265 C1264 1.363 . S
C1265 C1271 1.428 . S
H1266 C1262 0.930 . S
H1267 C1264 0.929 . S
S1268 N1269 1.613 . S
S1268 N1270 1.610 . S
N1269 S1268 1.613 . S
N1269 C1272 1.350 . S
N1270 S1268 1.610 . S
N1270 C1271 1.351 . S
C1271 C1265 1.428 . S
C1271 N1270 1.351 . S
C1271 C1272 1.434 . S
C1272 C1263 1.429 . S
C1272 N1269 1.350 . S
C1272 C1271 1.434 . S
C1273 C1274 1.369 . S
C1273 C1275 1.419 . S
C1273 H1277 0.930 . S
C1274 C1273 1.369 . S
C1274 C1283 1.429 . S
C1275 C1273 1.419 . S
C1275 C1276 1.363 . S
C1275 H1278 0.929 . S
C1276 C1275 1.363 . S
C1276 C1282 1.428 . S
H1277 C1273 0.930 . S
H1278 C1275 0.929 . S
S1279 N1280 1.613 . S
S1279 N1281 1.610 . S
N1280 S1279 1.613 . S
N1280 C1283 1.350 . S
N1281 S1279 1.610 . S
N1281 C1282 1.351 . S
C1282 C1276 1.428 . S
C1282 N1281 1.351 . S
C1282 C1283 1.434 . S
C1283 C1274 1.429 . S
C1283 N1280 1.350 . S
C1283 C1282 1.434 . S
C1284 C1285 1.369 . S
C1284 C1286 1.419 . S
C1284 H1288 0.930 . S
C1285 C1284 1.369 . S
C1285 C1294 1.429 . S
C1286 C1284 1.419 . S
C1286 C1287 1.363 . S
C1286 H1289 0.929 . S
C1287 C1286 1.363 . S
C1287 C1293 1.428 . S
H1288 C1284 0.930 . S
H1289 C1286 0.929 . S
S1290 N1291 1.613 . S
S1290 N1292 1.610 . S
N1291 S1290 1.613 . S
N1291 C1294 1.350 . S
N1292 S1290 1.610 . S
N1292 C1293 1.351 . S
C1293 C1287 1.428 . S
C1293 N1292 1.351 . S
C1293 C1294 1.434 . S
C1294 C1285 1.429 . S
C1294 N1291 1.350 . S
C1294 C1293 1.434 . S
C1295 C1296 1.369 . S
C1295 C1297 1.419 . S
C1295 H1299 0.930 . S
C1296 C1295 1.369 . S
C1296 C1305 1.429 . S
C1297 C1295 1.419 . S
C1297 C1298 1.363 1_556 S
C1297 H1300 0.929 1_556 S
C1298 C1297 1.363 1_554 S
C1298 C1304 1.428 1_554 S
H1299 C1295 0.930 . S
H1300 C1297 0.929 1_554 S
S1301 N1302 1.613 . S
S1301 N1303 1.610 . S
N1302 S1301 1.613 . S
N1302 C1305 1.350 . S
N1303 S1301 1.610 . S
N1303 C1304 1.351 . S
C1304 C1298 1.428 1_556 S
C1304 N1303 1.351 . S
C1304 C1305 1.434 . S
C1305 C1296 1.429 . S
C1305 N1302 1.350 . S
C1305 C1304 1.434 . S
C1306 C1307 1.369 . S
C1306 C1308 1.419 . S
C1306 H1310 0.930 . S
C1307 C1306 1.369 . S
C1307 C1316 1.429 . S
C1308 C1306 1.419 . S
C1308 C1309 1.363 . S
C1308 H1311 0.929 . S
C1309 C1308 1.363 . S
C1309 C1315 1.428 . S
H1310 C1306 0.930 . S
H1311 C1308 0.929 . S
S1312 N1313 1.613 . S
S1312 N1314 1.610 . S
N1313 S1312 1.613 . S
N1313 C1316 1.350 . S
N1314 S1312 1.610 . S
N1314 C1315 1.351 . S
C1315 C1309 1.428 . S
C1315 N1314 1.351 . S
C1315 C1316 1.434 . S
C1316 C1307 1.429 . S
C1316 N1313 1.350 . S
C1316 C1315 1.434 . S
C1317 C1318 1.369 . S
C1317 C1319 1.419 . S
C1317 H1321 0.930 . S
C1318 C1317 1.369 . S
C1318 C1327 1.429 . S
C1319 C1317 1.419 . S
C1319 C1320 1.363 . S
C1319 H1322 0.929 . S
C1320 C1319 1.363 . S
C1320 C1326 1.428 . S
H1321 C1317 0.930 . S
H1322 C1319 0.929 . S
S1323 N1324 1.613 . S
S1323 N1325 1.610 . S
N1324 S1323 1.613 . S
N1324 C1327 1.350 . S
N1325 S1323 1.610 . S
N1325 C1326 1.351 . S
C1326 C1320 1.428 . S
C1326 N1325 1.351 . S
C1326 C1327 1.434 . S
C1327 C1318 1.429 . S
C1327 N1324 1.350 . S
C1327 C1326 1.434 . S
C1328 C1329 1.369 . S
C1328 C1330 1.419 . S
C1328 H1332 0.930 . S
C1329 C1328 1.369 . S
C1329 C1338 1.429 . S
C1330 C1328 1.419 . S
C1330 C1331 1.363 . S
C1330 H1333 0.929 . S
C1331 C1330 1.363 . S
C1331 C1337 1.428 . S
H1332 C1328 0.930 . S
H1333 C1330 0.929 . S
S1334 N1335 1.613 . S
S1334 N1336 1.610 . S
N1335 S1334 1.613 . S
N1335 C1338 1.350 . S
N1336 S1334 1.610 . S
N1336 C1337 1.351 . S
C1337 C1331 1.428 . S
C1337 N1336 1.351 . S
C1337 C1338 1.434 . S
C1338 C1329 1.429 . S
C1338 N1335 1.350 . S
C1338 C1337 1.434 . S
C1339 C1340 1.369 . S
C1339 C1341 1.419 . S
C1339 H1343 0.930 . S
C1340 C1339 1.369 . S
C1340 C1349 1.429 . S
C1341 C1339 1.419 . S
C1341 C1342 1.363 . S
C1341 H1344 0.929 . S
C1342 C1341 1.363 . S
C1342 C1348 1.428 . S
H1343 C1339 0.930 . S
H1344 C1341 0.929 . S
S1345 N1346 1.613 . S
S1345 N1347 1.610 . S
N1346 S1345 1.613 . S
N1346 C1349 1.350 . S
N1347 S1345 1.610 . S
N1347 C1348 1.351 . S
C1348 C1342 1.428 . S
C1348 N1347 1.351 . S
C1348 C1349 1.434 . S
C1349 C1340 1.429 . S
C1349 N1346 1.350 . S
C1349 C1348 1.434 . S
C1350 C1351 1.369 . S
C1350 C1352 1.419 . S
C1350 H1354 0.930 . S
C1351 C1350 1.369 . S
C1351 C1360 1.429 . S
C1352 C1350 1.419 . S
C1352 C1353 1.363 1_545 S
C1352 H1355 0.929 1_545 S
C1353 C1352 1.363 1_565 S
C1353 C1359 1.428 1_565 S
H1354 C1350 0.930 . S
H1355 C1352 0.929 1_565 S
S1356 N1357 1.613 . S
S1356 N1358 1.610 . S
N1357 S1356 1.613 . S
N1357 C1360 1.350 . S
N1358 S1356 1.610 . S
N1358 C1359 1.351 . S
C1359 C1353 1.428 1_545 S
C1359 N1358 1.351 . S
C1359 C1360 1.434 . S
C1360 C1351 1.429 . S
C1360 N1357 1.350 . S
C1360 C1359 1.434 . S
C1361 C1362 1.369 . S
C1361 C1363 1.419 . S
C1361 H1365 0.930 . S
C1362 C1361 1.369 . S
C1362 C1371 1.429 . S
C1363 C1361 1.419 . S
C1363 C1364 1.363 . S
C1363 H1366 0.929 . S
C1364 C1363 1.363 . S
C1364 C1370 1.428 . S
H1365 C1361 0.930 . S
H1366 C1363 0.929 . S
S1367 N1368 1.613 . S
S1367 N1369 1.610 . S
N1368 S1367 1.613 . S
N1368 C1371 1.350 . S
N1369 S1367 1.610 . S
N1369 C1370 1.351 . S
C1370 C1364 1.428 . S
C1370 N1369 1.351 . S
C1370 C1371 1.434 . S
C1371 C1362 1.429 . S
C1371 N1368 1.350 . S
C1371 C1370 1.434 . S
C1372 C1373 1.369 . S
C1372 C1374 1.419 . S
C1372 H1376 0.930 . S
C1373 C1372 1.369 . S
C1373 C1382 1.429 . S
C1374 C1372 1.419 . S
C1374 C1375 1.363 . S
C1374 H1377 0.929 . S
C1375 C1374 1.363 . S
C1375 C1381 1.428 . S
H1376 C1372 0.930 . S
H1377 C1374 0.929 . S
S1378 N1379 1.613 . S
S1378 N1380 1.610 . S
N1379 S1378 1.613 . S
N1379 C1382 1.350 . S
N1380 S1378 1.610 . S
N1380 C1381 1.351 . S
C1381 C1375 1.428 . S
C1381 N1380 1.351 . S
C1381 C1382 1.434 . S
C1382 C1373 1.429 . S
C1382 N1379 1.350 . S
C1382 C1381 1.434 . S
C1383 C1384 1.369 . S
C1383 C1385 1.419 . S
C1383 H1387 0.930 . S
C1384 C1383 1.369 . S
C1384 C1393 1.429 . S
C1385 C1383 1.419 . S
C1385 C1386 1.363 . S
C1385 H1388 0.929 . S
C1386 C1385 1.363 . S
C1386 C1392 1.428 . S
H1387 C1383 0.930 . S
H1388 C1385 0.929 . S
S1389 N1390 1.613 . S
S1389 N1391 1.610 . S
N1390 S1389 1.613 . S
N1390 C1393 1.350 . S
N1391 S1389 1.610 . S
N1391 C1392 1.351 . S
C1392 C1386 1.428 . S
C1392 N1391 1.351 . S
C1392 C1393 1.434 . S
C1393 C1384 1.429 . S
C1393 N1390 1.350 . S
C1393 C1392 1.434 . S
C1394 C1395 1.370 . S
C1394 C1396 1.415 1_545 S
C1394 H1398 0.933 . S
C1395 C1394 1.370 . S
C1395 C1404 1.429 1_545 S
C1396 C1394 1.415 1_565 S
C1396 C1397 1.363 . S
C1396 H1399 0.929 . S
C1397 C1396 1.363 . S
C1397 C1403 1.428 . S
H1398 C1394 0.933 . S
H1399 C1396 0.929 . S
S1400 N1401 1.613 . S
S1400 N1402 1.610 . S
N1401 S1400 1.613 . S
N1401 C1404 1.350 . S
N1402 S1400 1.610 . S
N1402 C1403 1.351 . S
C1403 C1397 1.428 . S
C1403 N1402 1.351 . S
C1403 C1404 1.434 . S
C1404 C1395 1.429 1_565 S
C1404 N1401 1.350 . S
C1404 C1403 1.434 . S
C1405 C1406 1.369 . S
C1405 C1407 1.419 . S
C1405 H1409 0.930 . S
C1406 C1405 1.369 . S
C1406 C1415 1.429 . S
C1407 C1405 1.419 . S
C1407 C1408 1.363 1_545 S
C1407 H1410 0.929 1_545 S
C1408 C1407 1.363 1_565 S
C1408 C1414 1.428 1_565 S
H1409 C1405 0.930 . S
H1410 C1407 0.929 1_565 S
S1411 N1412 1.613 . S
S1411 N1413 1.610 1_545 S
N1412 S1411 1.613 . S
N1412 C1415 1.350 . S
N1413 S1411 1.610 1_565 S
N1413 C1414 1.351 1_565 S
C1414 C1408 1.428 1_545 S
C1414 N1413 1.351 1_545 S
C1414 C1415 1.434 . S
C1415 C1406 1.429 . S
C1415 N1412 1.350 . S
C1415 C1414 1.434 . S
C1416 C1417 1.369 . S
C1416 C1418 1.419 . S
C1416 H1420 0.930 . S
C1417 C1416 1.369 . S
C1417 C1426 1.429 . S
C1418 C1416 1.419 . S
C1418 C1419 1.363 . S
C1418 H1421 0.929 . S
C1419 C1418 1.363 . S
C1419 C1425 1.428 . S
H1420 C1416 0.930 . S
H1421 C1418 0.929 . S
S1422 N1423 1.613 . S
S1422 N1424 1.610 . S
N1423 S1422 1.613 . S
N1423 C1426 1.350 . S
N1424 S1422 1.610 . S
N1424 C1425 1.351 . S
C1425 C1419 1.428 . S
C1425 N1424 1.351 . S
C1425 C1426 1.434 . S
C1426 C1417 1.429 . S
C1426 N1423 1.350 . S
C1426 C1425 1.434 . S
C1427 C1428 1.369 . S
C1427 C1429 1.419 . S
C1427 H1431 0.930 . S
C1428 C1427 1.369 . S
C1428 C1437 1.429 . S
C1429 C1427 1.419 . S
C1429 C1430 1.363 . S
C1429 H1432 0.929 . S
C1430 C1429 1.363 . S
C1430 C1436 1.428 . S
H1431 C1427 0.930 . S
H1432 C1429 0.929 . S
S1433 N1434 1.613 . S
S1433 N1435 1.610 . S
N1434 S1433 1.613 . S
N1434 C1437 1.350 . S
N1435 S1433 1.610 . S
N1435 C1436 1.351 . S
C1436 C1430 1.428 . S
C1436 N1435 1.351 . S
C1436 C1437 1.434 . S
C1437 C1428 1.429 . S
C1437 N1434 1.350 . S
C1437 C1436 1.434 . S
C1438 C1439 1.369 . S
C1438 C1440 1.419 . S
C1438 H1442 0.930 . S
C1439 C1438 1.369 . S
C1439 C1448 1.429 . S
C1440 C1438 1.419 . S
C1440 C1441 1.363 . S
C1440 H1443 0.929 . S
C1441 C1440 1.363 . S
C1441 C1447 1.428 . S
H1442 C1438 0.930 . S
H1443 C1440 0.929 . S
S1444 N1445 1.613 . S
S1444 N1446 1.610 . S
N1445 S1444 1.613 . S
N1445 C1448 1.350 . S
N1446 S1444 1.610 . S
N1446 C1447 1.351 . S
C1447 C1441 1.428 . S
C1447 N1446 1.351 . S
C1447 C1448 1.434 . S
C1448 C1439 1.429 . S
C1448 N1445 1.350 . S
C1448 C1447 1.434 . S
C1449 C1450 1.369 . S
C1449 C1451 1.419 . S
C1449 H1453 0.930 . S
C1450 C1449 1.369 . S
C1450 C1459 1.429 . S
C1451 C1449 1.419 . S
C1451 C1452 1.363 . S
C1451 H1454 0.929 . S
C1452 C1451 1.363 . S
C1452 C1458 1.428 . S
H1453 C1449 0.930 . S
H1454 C1451 0.929 . S
S1455 N1456 1.613 . S
S1455 N1457 1.610 . S
N1456 S1455 1.613 . S
N1456 C1459 1.350 . S
N1457 S1455 1.610 . S
N1457 C1458 1.351 . S
C1458 C1452 1.428 . S
C1458 N1457 1.351 . S
C1458 C1459 1.434 . S
C1459 C1450 1.429 . S
C1459 N1456 1.350 . S
C1459 C1458 1.434 . S
C1460 C1461 1.369 . S
C1460 C1462 1.419 . S
C1460 H1464 0.930 . S
C1461 C1460 1.369 . S
C1461 C1470 1.429 . S
C1462 C1460 1.419 . S
C1462 C1463 1.363 . S
C1462 H1465 0.929 . S
C1463 C1462 1.363 . S
C1463 C1469 1.428 . S
H1464 C1460 0.930 . S
H1465 C1462 0.929 . S
S1466 N1467 1.613 . S
S1466 N1468 1.610 . S
N1467 S1466 1.613 . S
N1467 C1470 1.350 . S
N1468 S1466 1.610 . S
N1468 C1469 1.351 . S
C1469 C1463 1.428 . S
C1469 N1468 1.351 . S
C1469 C1470 1.434 . S
C1470 C1461 1.429 . S
C1470 N1467 1.350 . S
C1470 C1469 1.434 . S
C1471 C1472 1.369 1_655 S
C1471 C1473 1.419 . S
C1471 H1475 0.930 . S
C1472 C1471 1.369 1_455 S
C1472 C1481 1.429 1_455 S
C1473 C1471 1.419 . S
C1473 C1474 1.363 . S
C1473 H1476 0.929 . S
C1474 C1473 1.363 . S
C1474 C1480 1.428 . S
H1475 C1471 0.930 . S
H1476 C1473 0.929 . S
S1477 N1478 1.594 1_655 S
S1477 N1479 1.610 . S
N1478 S1477 1.594 1_455 S
N1478 C1481 1.338 1_455 S
N1479 S1477 1.610 . S
N1479 C1480 1.351 . S
C1480 C1474 1.428 . S
C1480 N1479 1.351 . S
C1480 C1481 1.434 . S
C1481 C1472 1.429 1_655 S
C1481 N1478 1.338 1_655 S
C1481 C1480 1.434 . S
C1482 C1483 1.369 . S
C1482 C1484 1.419 . S
C1482 H1486 0.930 . S
C1483 C1482 1.369 . S
C1483 C1492 1.429 . S
C1484 C1482 1.419 . S
C1484 C1485 1.363 . S
C1484 H1487 0.929 . S
C1485 C1484 1.363 . S
C1485 C1491 1.428 . S
H1486 C1482 0.930 . S
H1487 C1484 0.929 . S
S1488 N1489 1.613 . S
S1488 N1490 1.610 . S
N1489 S1488 1.613 . S
N1489 C1492 1.350 . S
N1490 S1488 1.610 . S
N1490 C1491 1.351 . S
C1491 C1485 1.428 . S
C1491 N1490 1.351 . S
C1491 C1492 1.434 . S
C1492 C1483 1.429 . S
C1492 N1489 1.350 . S
C1492 C1491 1.434 . S
C1493 C1494 1.369 . S
C1493 C1495 1.419 . S
C1493 H1497 0.930 . S
C1494 C1493 1.369 . S
C1494 C1503 1.429 . S
C1495 C1493 1.419 . S
C1495 C1496 1.363 . S
C1495 H1498 0.929 . S
C1496 C1495 1.363 . S
C1496 C1502 1.428 . S
H1497 C1493 0.930 . S
H1498 C1495 0.929 . S
S1499 N1500 1.613 . S
S1499 N1501 1.610 . S
N1500 S1499 1.613 . S
N1500 C1503 1.350 . S
N1501 S1499 1.610 . S
N1501 C1502 1.351 . S
C1502 C1496 1.428 . S
C1502 N1501 1.351 . S
C1502 C1503 1.434 . S
C1503 C1494 1.429 . S
C1503 N1500 1.350 . S
C1503 C1502 1.434 . S
C1504 C1505 1.369 . S
C1504 C1506 1.419 . S
C1504 H1508 0.930 . S
C1505 C1504 1.369 . S
C1505 C1514 1.429 . S
C1506 C1504 1.419 . S
C1506 C1507 1.363 . S
C1506 H1509 0.929 . S
C1507 C1506 1.363 . S
C1507 C1513 1.428 . S
H1508 C1504 0.930 . S
H1509 C1506 0.929 . S
S1510 N1511 1.613 . S
S1510 N1512 1.610 . S
N1511 S1510 1.613 . S
N1511 C1514 1.350 . S
N1512 S1510 1.610 . S
N1512 C1513 1.351 . S
C1513 C1507 1.428 . S
C1513 N1512 1.351 . S
C1513 C1514 1.434 . S
C1514 C1505 1.429 . S
C1514 N1511 1.350 . S
C1514 C1513 1.434 . S
C1515 C1516 1.369 . S
C1515 C1517 1.419 . S
C1515 H1519 0.930 . S
C1516 C1515 1.369 . S
C1516 C1525 1.429 . S
C1517 C1515 1.419 . S
C1517 C1518 1.363 1_556 S
C1517 H1520 0.929 . S
C1518 C1517 1.363 1_554 S
C1518 C1524 1.428 1_554 S
H1519 C1515 0.930 . S
H1520 C1517 0.929 . S
S1521 N1522 1.613 . S
S1521 N1523 1.610 1_556 S
N1522 S1521 1.613 . S
N1522 C1525 1.350 . S
N1523 S1521 1.610 1_554 S
N1523 C1524 1.351 1_554 S
C1524 C1518 1.428 1_556 S
C1524 N1523 1.351 1_556 S
C1524 C1525 1.434 . S
C1525 C1516 1.429 . S
C1525 N1522 1.350 . S
C1525 C1524 1.434 . S
C1526 C1527 1.369 . S
C1526 C1528 1.419 . S
C1526 H1530 0.930 . S
C1527 C1526 1.369 . S
C1527 C1536 1.429 . S
C1528 C1526 1.419 . S
C1528 C1529 1.363 . S
C1528 H1531 0.929 . S
C1529 C1528 1.363 . S
C1529 C1535 1.428 . S
H1530 C1526 0.930 . S
H1531 C1528 0.929 . S
S1532 N1533 1.613 . S
S1532 N1534 1.610 . S
N1533 S1532 1.613 . S
N1533 C1536 1.350 . S
N1534 S1532 1.610 . S
N1534 C1535 1.351 . S
C1535 C1529 1.428 . S
C1535 N1534 1.351 . S
C1535 C1536 1.434 . S
C1536 C1527 1.429 . S
C1536 N1533 1.350 . S
C1536 C1535 1.434 . S
C1537 C1538 1.369 . S
C1537 C1539 1.419 . S
C1537 H1541 0.930 . S
C1538 C1537 1.369 . S
C1538 C1547 1.429 . S
C1539 C1537 1.419 . S
C1539 C1540 1.363 . S
C1539 H1542 0.929 . S
C1540 C1539 1.363 . S
C1540 C1546 1.428 . S
H1541 C1537 0.930 . S
H1542 C1539 0.929 . S
S1543 N1544 1.613 . S
S1543 N1545 1.610 . S
N1544 S1543 1.613 . S
N1544 C1547 1.350 . S
N1545 S1543 1.610 . S
N1545 C1546 1.351 . S
C1546 C1540 1.428 . S
C1546 N1545 1.351 . S
C1546 C1547 1.434 . S
C1547 C1538 1.429 . S
C1547 N1544 1.350 . S
C1547 C1546 1.434 . S
C1548 C1549 1.369 . S
C1548 C1550 1.419 . S
C1548 H1552 0.930 . S
C1549 C1548 1.369 . S
C1549 C1558 1.429 . S
C1550 C1548 1.419 . S
C1550 C1551 1.363 . S
C1550 H1553 0.929 . S
C1551 C1550 1.363 . S
C1551 C1557 1.428 . S
H1552 C1548 0.930 . S
H1553 C1550 0.929 . S
S1554 N1555 1.613 . S
S1554 N1556 1.610 . S
N1555 S1554 1.613 . S
N1555 C1558 1.350 . S
N1556 S1554 1.610 . S
N1556 C1557 1.351 . S
C1557 C1551 1.428 . S
C1557 N1556 1.351 . S
C1557 C1558 1.434 . S
C1558 C1549 1.429 . S
C1558 N1555 1.350 . S
C1558 C1557 1.434 . S
C1559 C1560 1.369 . S
C1559 C1561 1.419 . S
C1559 H1563 0.930 . S
C1560 C1559 1.369 . S
C1560 C1569 1.429 . S
C1561 C1559 1.419 . S
C1561 C1562 1.363 1_554 S
C1561 H1564 0.929 1_554 S
C1562 C1561 1.363 1_556 S
C1562 C1568 1.428 1_556 S
H1563 C1559 0.930 . S
H1564 C1561 0.929 1_556 S
S1565 N1566 1.613 . S
S1565 N1567 1.610 . S
N1566 S1565 1.613 . S
N1566 C1569 1.350 . S
N1567 S1565 1.610 . S
N1567 C1568 1.351 . S
C1568 C1562 1.428 1_554 S
C1568 N1567 1.351 . S
C1568 C1569 1.434 . S
C1569 C1560 1.429 . S
C1569 N1566 1.350 . S
C1569 C1568 1.434 . S
C1570 C1571 1.369 . S
C1570 C1572 1.419 . S
C1570 H1574 0.930 . S
C1571 C1570 1.369 . S
C1571 C1580 1.429 . S
C1572 C1570 1.419 . S
C1572 C1573 1.363 . S
C1572 H1575 0.929 . S
C1573 C1572 1.363 . S
C1573 C1579 1.428 . S
H1574 C1570 0.930 . S
H1575 C1572 0.929 . S
S1576 N1577 1.613 . S
S1576 N1578 1.610 . S
N1577 S1576 1.613 . S
N1577 C1580 1.350 . S
N1578 S1576 1.610 . S
N1578 C1579 1.351 . S
C1579 C1573 1.428 . S
C1579 N1578 1.351 . S
C1579 C1580 1.434 . S
C1580 C1571 1.429 . S
C1580 N1577 1.350 . S
C1580 C1579 1.434 . S
C1581 C1582 1.369 . S
C1581 C1583 1.419 . S
C1581 H1585 0.930 . S
C1582 C1581 1.369 . S
C1582 C1591 1.429 . S
C1583 C1581 1.419 . S
C1583 C1584 1.363 . S
C1583 H1586 0.929 . S
C1584 C1583 1.363 . S
C1584 C1590 1.428 . S
H1585 C1581 0.930 . S
H1586 C1583 0.929 . S
S1587 N1588 1.613 . S
S1587 N1589 1.610 . S
N1588 S1587 1.613 . S
N1588 C1591 1.350 . S
N1589 S1587 1.610 . S
N1589 C1590 1.351 . S
C1590 C1584 1.428 . S
C1590 N1589 1.351 . S
C1590 C1591 1.434 . S
C1591 C1582 1.429 . S
C1591 N1588 1.350 . S
C1591 C1590 1.434 . S
C1592 C1593 1.369 . S
C1592 C1594 1.419 . S
C1592 H1596 0.930 . S
C1593 C1592 1.369 . S
C1593 C1602 1.429 . S
C1594 C1592 1.419 . S
C1594 C1595 1.363 . S
C1594 H1597 0.929 . S
C1595 C1594 1.363 . S
C1595 C1601 1.428 . S
H1596 C1592 0.930 . S
H1597 C1594 0.929 . S
S1598 N1599 1.613 . S
S1598 N1600 1.610 . S
N1599 S1598 1.613 . S
N1599 C1602 1.350 . S
N1600 S1598 1.610 . S
N1600 C1601 1.351 . S
C1601 C1595 1.428 . S
C1601 N1600 1.351 . S
C1601 C1602 1.434 . S
C1602 C1593 1.429 . S
C1602 N1599 1.350 . S
C1602 C1601 1.434 . S
C1603 C1604 1.369 . S
C1603 C1605 1.419 . S
C1603 H1607 0.930 . S
C1604 C1603 1.369 . S
C1604 C1613 1.429 . S
C1605 C1603 1.419 . S
C1605 C1606 1.363 . S
C1605 H1608 0.929 . S
C1606 C1605 1.363 . S
C1606 C1612 1.428 . S
H1607 C1603 0.930 . S
H1608 C1605 0.929 . S
S1609 N1610 1.613 . S
S1609 N1611 1.610 . S
N1610 S1609 1.613 . S
N1610 C1613 1.350 . S
N1611 S1609 1.610 . S
N1611 C1612 1.351 . S
C1612 C1606 1.428 . S
C1612 N1611 1.351 . S
C1612 C1613 1.434 . S
C1613 C1604 1.429 . S
C1613 N1610 1.350 . S
C1613 C1612 1.434 . S
C1614 C1615 1.369 . S
C1614 C1616 1.419 . S
C1614 H1618 0.930 . S
C1615 C1614 1.369 . S
C1615 C1624 1.429 . S
C1616 C1614 1.419 . S
C1616 C1617 1.363 1_565 S
C1616 H1619 0.929 1_565 S
C1617 C1616 1.363 1_545 S
C1617 C1623 1.428 1_545 S
H1618 C1614 0.930 . S
H1619 C1616 0.929 1_545 S
S1620 N1621 1.613 . S
S1620 N1622 1.610 . S
N1621 S1620 1.613 . S
N1621 C1624 1.350 . S
N1622 S1620 1.610 . S
N1622 C1623 1.351 . S
C1623 C1617 1.428 1_565 S
C1623 N1622 1.351 . S
C1623 C1624 1.434 . S
C1624 C1615 1.429 . S
C1624 N1621 1.350 . S
C1624 C1623 1.434 . S
C1625 C1626 1.369 . S
C1625 C1627 1.419 . S
C1625 H1629 0.930 . S
C1626 C1625 1.369 . S
C1626 C1635 1.429 . S
C1627 C1625 1.419 . S
C1627 C1628 1.363 . S
C1627 H1630 0.929 . S
C1628 C1627 1.363 . S
C1628 C1634 1.428 . S
H1629 C1625 0.930 . S
H1630 C1627 0.929 . S
S1631 N1632 1.613 . S
S1631 N1633 1.610 . S
N1632 S1631 1.613 . S
N1632 C1635 1.350 . S
N1633 S1631 1.610 . S
N1633 C1634 1.351 . S
C1634 C1628 1.428 . S
C1634 N1633 1.351 . S
C1634 C1635 1.434 . S
C1635 C1626 1.429 . S
C1635 N1632 1.350 . S
C1635 C1634 1.434 . S
C1636 C1637 1.369 . S
C1636 C1638 1.419 . S
C1636 H1640 0.930 . S
C1637 C1636 1.369 . S
C1637 C1646 1.429 . S
C1638 C1636 1.419 . S
C1638 C1639 1.363 . S
C1638 H1641 0.929 . S
C1639 C1638 1.363 . S
C1639 C1645 1.428 . S
H1640 C1636 0.930 . S
H1641 C1638 0.929 . S
S1642 N1643 1.613 . S
S1642 N1644 1.610 . S
N1643 S1642 1.613 . S
N1643 C1646 1.350 . S
N1644 S1642 1.610 . S
N1644 C1645 1.351 . S
C1645 C1639 1.428 . S
C1645 N1644 1.351 . S
C1645 C1646 1.434 . S
C1646 C1637 1.429 . S
C1646 N1643 1.350 . S
C1646 C1645 1.434 . S
C1647 C1648 1.369 . S
C1647 C1649 1.419 . S
C1647 H1651 0.930 . S
C1648 C1647 1.369 . S
C1648 C1657 1.429 . S
C1649 C1647 1.419 . S
C1649 C1650 1.363 . S
C1649 H1652 0.929 . S
C1650 C1649 1.363 . S
C1650 C1656 1.428 . S
H1651 C1647 0.930 . S
H1652 C1649 0.929 . S
S1653 N1654 1.613 . S
S1653 N1655 1.610 . S
N1654 S1653 1.613 . S
N1654 C1657 1.350 . S
N1655 S1653 1.610 . S
N1655 C1656 1.351 . S
C1656 C1650 1.428 . S
C1656 N1655 1.351 . S
C1656 C1657 1.434 . S
C1657 C1648 1.429 . S
C1657 N1654 1.350 . S
C1657 C1656 1.434 . S
C1658 C1659 1.369 1_545 S
C1658 C1660 1.419 . S
C1658 H1662 0.930 1_545 S
C1659 C1658 1.369 1_565 S
C1659 C1668 1.429 1_565 S
C1660 C1658 1.419 . S
C1660 C1661 1.363 . S
C1660 H1663 0.929 . S
C1661 C1660 1.363 . S
C1661 C1667 1.428 . S
H1662 C1658 0.930 1_565 S
H1663 C1660 0.929 . S
S1664 N1665 1.613 . S
S1664 N1666 1.610 . S
N1665 S1664 1.613 . S
N1665 C1668 1.350 . S
N1666 S1664 1.610 . S
N1666 C1667 1.351 . S
C1667 C1661 1.428 . S
C1667 N1666 1.351 . S
C1667 C1668 1.434 . S
C1668 C1659 1.429 1_545 S
C1668 N1665 1.350 . S
C1668 C1667 1.434 . S
C1669 C1670 1.369 . S
C1669 C1671 1.419 . S
C1669 H1673 0.930 . S
C1670 C1669 1.369 . S
C1670 C1679 1.429 . S
C1671 C1669 1.419 . S
C1671 C1672 1.363 1_565 S
C1671 H1674 0.929 1_565 S
C1672 C1671 1.363 1_545 S
C1672 C1678 1.428 1_545 S
H1673 C1669 0.930 . S
H1674 C1671 0.929 1_545 S
S1675 N1676 1.613 . S
S1675 N1677 1.610 . S
N1676 S1675 1.613 . S
N1676 C1679 1.350 . S
N1677 S1675 1.610 . S
N1677 C1678 1.351 . S
C1678 C1672 1.428 1_565 S
C1678 N1677 1.351 . S
C1678 C1679 1.434 . S
C1679 C1670 1.429 . S
C1679 N1676 1.350 . S
C1679 C1678 1.434 . S
C625 C554 1.225 . S
C627 C0 1.246 . S
C636 C18 1.339 . S
C638 C200 1.260 . S
C647 C26 1.265 . S
C649 C528 1.239 . S
C658 C44 1.349 . S
C660 C226 1.266 . S
C669 C580 1.255 . S
C671 C57 1.276 . S
C680 C65 1.341 . S
C682 C273 1.296 . S
C691 C83 1.266 . S
C693 C606 1.245 . S
C702 C91 1.341 . S
C704 C247 1.297 . S
C713 C39 1.259 . S
C715 C621 1.280 . S
C724 C5 1.307 . S
C726 C333 1.279 . S
C735 C348 1.268 . S
C737 C13 1.253 . S
C746 C31 1.294 . S
C748 C320 1.269 . S
C757 C70 1.327 . S
C759 C322 1.337 . S
C768 C78 1.222 . S
C770 C619 1.202 . S
C779 C96 1.338 . S
C781 C335 1.350 . S
C790 C52 1.224 . S
C792 C346 1.212 . S
C801 C507 1.280 . S
C803 C104 1.308 . S
C812 C122 1.366 . S
C814 C252 1.272 . S
C823 C109 1.335 . S
C825 C582 1.349 . S
C834 C278 1.295 . S
C836 C135 1.391 . S
C845 C296 1.311 . S
C847 C143 1.295 . S
C856 C533 1.293 . S
C858 C161 1.335 . S
C867 C556 1.266 . S
C869 C169 1.249 . S
C878 C530 1.331 . S
C880 C187 1.319 . S
C889 C439 1.338 . S
C891 C205 1.340 . S
C900 C208 1.316 . S
C902 C8 1.286 . S
C911 C231 1.344 . S
C913 C413 1.348 . S
C922 C34 1.269 . S
C924 C234 1.276 . S
C933 C255 1.312 . S
C935 C463 1.295 . S
C944 C88 1.338 . S
C946 C260 1.321 . S
C955 C281 1.331 . S
C957 C489 1.321 . S
C966 C62 1.335 . S
C968 C286 1.314 . S
C977 C504 1.345 . S
C979 C239 1.340 . S
C988 C203 1.300 . S
C990 C140 1.323 . S
C999 C151 1.318 . S
C1001 C213 1.347 . S
C1010 C127 1.339 . S
C1012 C229 1.321 . S
C1021 C125 1.319 . S
C1023 C265 1.365 . S
C1032 C283 1.375 . S
C1034 C502 1.331 . S
C1043 C138 1.310 . S
C1045 C291 1.343 . S
C1054 C257 1.367 . S
C1056 C153 1.364 . S
C1065 C299 1.284 . S
C1067 C400 1.308 . S
C1076 C312 1.316 . S
C1078 C60 1.303 . S
C1087 C304 1.322 . S
C1089 C465 1.331 . S
C1098 C325 1.328 . S
C1100 C86 1.301 . S
C1109 C343 1.333 . S
C1111 C101 1.339 . S
C1120 C426 1.295 . S
C1122 C351 1.270 . S
C1131 C369 1.370 . S
C1133 C437 1.335 . S
C1142 C382 1.369 . S
C1144 C411 1.330 . S
C1153 C390 1.251 . S
C1155 C242 1.233 . S
C1164 C408 1.323 . S
C1166 C512 1.242 . S
C1175 C216 1.225 . S
C1177 C416 1.244 . S
C1186 C434 1.357 . S
C1188 C538 1.277 . S
C1197 C447 1.276 . S
C1199 C268 1.255 . S
C1208 C585 1.272 . S
C1210 C455 1.316 . S
C1219 C473 1.247 . S
C1221 C294 1.227 . S
C1230 C559 1.293 . S
C1232 C481 1.343 . S
C1241 C309 1.280 . S
C1243 C429 1.255 . S
C1252 C385 1.275 . S
C1254 C395 1.301 . S
C1263 C403 1.256 . S
C1265 C361 1.271 . S
C1274 C372 1.261 . S
C1276 C421 1.293 . S
C1285 C460 1.328 . S
C1287 C374 1.336 . S
C1296 C307 1.210 . S
C1298 C468 1.223 . S
C1307 C486 1.331 . S
C1309 C387 1.344 . S
C1318 C442 1.215 . S
C1320 C359 1.205 . S
C1329 C494 1.288 . S
C1331 C195 1.257 . S
C1340 C174 1.366 . S
C1342 C564 1.268 . S
C1351 C270 1.354 . S
C1353 C499 1.339 . S
C1362 C590 1.251 . S
C1364 C182 1.339 . S
C1373 C608 1.296 . S
C1375 C156 1.274 . S
C1384 C148 1.333 . S
C1386 C221 1.291 . S
C1395 C117 1.254 . S
C1397 C244 1.270 . S
C1406 C218 1.292 . S
C1408 C130 1.271 . S
C1417 C517 1.361 . S
C1419 C49 1.360 . S
C1428 C398 1.296 . S
C1430 C520 1.304 . S
C1439 C543 1.345 . S
C1441 C23 1.348 . S
C1450 C546 1.274 1_655 S
C1452 C424 1.269 . S
C1461 C73 1.297 . S
C1463 C567 1.317 . S
C1472 C572 1.328 . S
C1474 C478 1.340 . S
C1483 C593 1.327 . S
C1485 C99 1.314 . S
C1494 C452 1.317 . S
C1496 C598 1.294 . S
C1505 C551 1.336 . S
C1507 C114 1.347 . S
C1516 C190 1.281 . S
C1518 C515 1.308 . S
C1527 C164 1.335 . S
C1529 C525 1.368 . S
C1538 C541 1.320 . S
C1540 C179 1.339 . S
C1549 C577 1.367 . S
C1551 C177 1.324 . S
C1560 C112 1.327 . S
C1562 C595 1.359 . S
C1571 C192 1.344 . S
C1573 C603 1.336 . S
C1582 C569 1.370 . S
C1584 C166 1.367 . S
C1593 C10 1.306 . S
C1595 C611 1.290 . S
C1604 C364 1.307 . S
C1606 C450 1.286 . S
C1615 C75 1.332 . S
C1617 C616 1.327 . S
C1626 C476 1.295 . S
C1628 C377 1.314 . S
C1637 C491 1.341 . S
C1639 C356 1.330 . S
C1648 C338 1.281 . S
C1650 C36 1.298 . S
C1659 C317 1.383 . S
C1661 C47 1.350 . S
C1670 C21 1.342 . S
C1672 C330 1.380 . S
