# Generated by pormake.
# Topology crs, (6)-cn, num edge types: 1
# Building blocks:
#     Node 0, Type 0, BuildingBlock: BETFAJ_clean_sbu_0, # of connection points: 6
#     Node 1, Type 0, BuildingBlock: BETFAJ_clean_sbu_0, # of connection points: 6
#     Node 2, Type 0, BuildingBlock: BETFAJ_clean_sbu_0, # of connection points: 6
#     Node 3, Type 0, BuildingBlock: BETFAJ_clean_sbu_0, # of connection points: 6
#     Node 4, Type 0, BuildingBlock: BETFAJ_clean_sbu_0, # of connection points: 6
#     Node 5, Type 0, BuildingBlock: BETFAJ_clean_sbu_0, # of connection points: 6
#     Node 6, Type 0, BuildingBlock: BETFAJ_clean_sbu_0, # of connection points: 6
#     Node 7, Type 0, BuildingBlock: BETFAJ_clean_sbu_0, # of connection points: 6
#     Node 8, Type 0, BuildingBlock: BETFAJ_clean_sbu_0, # of connection points: 6
#     Node 9, Type 0, BuildingBlock: BETFAJ_clean_sbu_0, # of connection points: 6
#     Node 10, Type 0, BuildingBlock: BETFAJ_clean_sbu_0, # of connection points: 6
#     Node 11, Type 0, BuildingBlock: BETFAJ_clean_sbu_0, # of connection points: 6
#     Node 12, Type 0, BuildingBlock: BETFAJ_clean_sbu_0, # of connection points: 6
#     Node 13, Type 0, BuildingBlock: BETFAJ_clean_sbu_0, # of connection points: 6
#     Node 14, Type 0, BuildingBlock: BETFAJ_clean_sbu_0, # of connection points: 6
#     Node 15, Type 0, BuildingBlock: BETFAJ_clean_sbu_0, # of connection points: 6
#     Edge 16, Type (0, 0), BuildingBlock: UVAHIK_clean_linker_0, # of connection points: 2
#     Edge 17, Type (0, 0), BuildingBlock: UVAHIK_clean_linker_0, # of connection points: 2
#     Edge 18, Type (0, 0), BuildingBlock: UVAHIK_clean_linker_0, # of connection points: 2
#     Edge 19, Type (0, 0), BuildingBlock: UVAHIK_clean_linker_0, # of connection points: 2
#     Edge 20, Type (0, 0), BuildingBlock: UVAHIK_clean_linker_0, # of connection points: 2
#     Edge 21, Type (0, 0), BuildingBlock: UVAHIK_clean_linker_0, # of connection points: 2
#     Edge 22, Type (0, 0), BuildingBlock: UVAHIK_clean_linker_0, # of connection points: 2
#     Edge 23, Type (0, 0), BuildingBlock: UVAHIK_clean_linker_0, # of connection points: 2
#     Edge 24, Type (0, 0), BuildingBlock: UVAHIK_clean_linker_0, # of connection points: 2
#     Edge 25, Type (0, 0), BuildingBlock: UVAHIK_clean_linker_0, # of connection points: 2
#     Edge 26, Type (0, 0), BuildingBlock: UVAHIK_clean_linker_0, # of connection points: 2
#     Edge 27, Type (0, 0), BuildingBlock: UVAHIK_clean_linker_0, # of connection points: 2
#     Edge 28, Type (0, 0), BuildingBlock: UVAHIK_clean_linker_0, # of connection points: 2
#     Edge 29, Type (0, 0), BuildingBlock: UVAHIK_clean_linker_0, # of connection points: 2
#     Edge 30, Type (0, 0), BuildingBlock: UVAHIK_clean_linker_0, # of connection points: 2
#     Edge 31, Type (0, 0), BuildingBlock: UVAHIK_clean_linker_0, # of connection points: 2
#     Edge 32, Type (0, 0), BuildingBlock: UVAHIK_clean_linker_0, # of connection points: 2
#     Edge 33, Type (0, 0), BuildingBlock: UVAHIK_clean_linker_0, # of connection points: 2
#     Edge 34, Type (0, 0), BuildingBlock: UVAHIK_clean_linker_0, # of connection points: 2
#     Edge 35, Type (0, 0), BuildingBlock: UVAHIK_clean_linker_0, # of connection points: 2
#     Edge 36, Type (0, 0), BuildingBlock: UVAHIK_clean_linker_0, # of connection points: 2
#     Edge 37, Type (0, 0), BuildingBlock: UVAHIK_clean_linker_0, # of connection points: 2
#     Edge 38, Type (0, 0), BuildingBlock: UVAHIK_clean_linker_0, # of connection points: 2
#     Edge 39, Type (0, 0), BuildingBlock: UVAHIK_clean_linker_0, # of connection points: 2
#     Edge 40, Type (0, 0), BuildingBlock: UVAHIK_clean_linker_0, # of connection points: 2
#     Edge 41, Type (0, 0), BuildingBlock: UVAHIK_clean_linker_0, # of connection points: 2
#     Edge 42, Type (0, 0), BuildingBlock: UVAHIK_clean_linker_0, # of connection points: 2
#     Edge 43, Type (0, 0), BuildingBlock: UVAHIK_clean_linker_0, # of connection points: 2
#     Edge 44, Type (0, 0), BuildingBlock: UVAHIK_clean_linker_0, # of connection points: 2
#     Edge 45, Type (0, 0), BuildingBlock: UVAHIK_clean_linker_0, # of connection points: 2
#     Edge 46, Type (0, 0), BuildingBlock: UVAHIK_clean_linker_0, # of connection points: 2
#     Edge 47, Type (0, 0), BuildingBlock: UVAHIK_clean_linker_0, # of connection points: 2
#     Edge 48, Type (0, 0), BuildingBlock: UVAHIK_clean_linker_0, # of connection points: 2
#     Edge 49, Type (0, 0), BuildingBlock: UVAHIK_clean_linker_0, # of connection points: 2
#     Edge 50, Type (0, 0), BuildingBlock: UVAHIK_clean_linker_0, # of connection points: 2
#     Edge 51, Type (0, 0), BuildingBlock: UVAHIK_clean_linker_0, # of connection points: 2
#     Edge 52, Type (0, 0), BuildingBlock: UVAHIK_clean_linker_0, # of connection points: 2
#     Edge 53, Type (0, 0), BuildingBlock: UVAHIK_clean_linker_0, # of connection points: 2
#     Edge 54, Type (0, 0), BuildingBlock: UVAHIK_clean_linker_0, # of connection points: 2
#     Edge 55, Type (0, 0), BuildingBlock: UVAHIK_clean_linker_0, # of connection points: 2
#     Edge 56, Type (0, 0), BuildingBlock: UVAHIK_clean_linker_0, # of connection points: 2
#     Edge 57, Type (0, 0), BuildingBlock: UVAHIK_clean_linker_0, # of connection points: 2
#     Edge 58, Type (0, 0), BuildingBlock: UVAHIK_clean_linker_0, # of connection points: 2
#     Edge 59, Type (0, 0), BuildingBlock: UVAHIK_clean_linker_0, # of connection points: 2
#     Edge 60, Type (0, 0), BuildingBlock: UVAHIK_clean_linker_0, # of connection points: 2
#     Edge 61, Type (0, 0), BuildingBlock: UVAHIK_clean_linker_0, # of connection points: 2
#     Edge 62, Type (0, 0), BuildingBlock: UVAHIK_clean_linker_0, # of connection points: 2
#     Edge 63, Type (0, 0), BuildingBlock: UVAHIK_clean_linker_0, # of connection points: 2
# Relax obj value: 0.419
# Max RMSD: 0.343
# Mean RMSD: 0.286
data_MOF--net-crs--node1-BETFAJ_clean_sbu_0--edge1-UVAHIK_clean_linker_0
_symmetry_space_group_name_H-M    P1
_symmetry_Int_Tables_number       1
_symmetry_cell_setting            triclinic
loop_
_symmetry_equiv_pos_as_xyz
'x, y, z'
_cell_length_a     66.045805
_cell_length_b     66.86102
_cell_length_c     57.84719
_cell_angle_alpha  77.205221
_cell_angle_beta   79.413716
_cell_angle_gamma 68.398712
loop_
_atom_site_label
_atom_site_type_symbol
_atom_site_fract_x
_atom_site_fract_y
_atom_site_fract_z
_atom_type_partial_charge
Sm0 Sm 0.9705 0.00295 0.02617 0.0
Sm1 Sm 0.01006 0.00505 0.9891 0.0
C2 C 0.93554 0.99475 0.04952 0.0
C3 C 0.92737 0.97745 0.04817 0.0
C4 C 0.92874 0.97133 0.02607 0.0
C5 C 0.92552 0.95211 0.02508 0.0
C6 C 0.92108 0.93858 0.04617 0.0
C7 C 0.91857 0.94528 0.06823 0.0
C8 C 0.92174 0.9646 0.06921 0.0
C9 C 0.00729 0.9986 0.04493 0.0
C10 C 0.00194 0.95972 1.001 0.0
C11 C 0.04432 0.01429 0.96532 0.0
C12 C 0.05134 0.03262 0.96632 0.0
C13 C 0.05962 0.03329 0.98675 0.0
C14 C 0.06168 0.05251 0.98988 0.0
C15 C 0.05545 0.07149 0.97268 0.0
C16 C 0.04839 0.07044 0.95163 0.0
C17 C 0.0465 0.05116 0.94842 0.0
C18 C 0.9735 0.00841 0.97052 0.0
C19 C 0.97911 0.04809 0.01484 0.0
O20 O 0.9346 0.0099 0.03055 0.0
O21 O 0.95424 0.98769 0.05844 0.0
O22 O 0.00702 0.9901 0.02765 0.0
O23 O 0.98757 0.00864 0.05407 0.0
O24 O 0.98241 0.97075 0.01094 0.0
O25 O 0.01759 0.96833 0.99405 0.0
O26 O 0.04577 0.99927 0.98446 0.0
O27 O 0.02589 0.01991 0.95617 0.0
O28 O 0.97358 0.01746 0.98746 0.0
O29 O -0.00666 0.99841 0.96166 0.0
O30 O -0.00166 0.03726 1.0042 0.0
O31 O 0.96358 0.03942 0.02236 0.0
H32 H 0.93336 0.9808 1.00959 0.0
H33 H 0.92712 0.94755 1.00781 0.0
H34 H 0.91518 0.93511 0.08477 0.0
H35 H 0.92091 0.96891 0.08643 0.0
H36 H 0.06366 0.01927 1.00085 0.0
H37 H 0.06776 0.0526 1.006 0.0
H38 H 0.04338 0.08477 0.93806 0.0
H39 H 0.04009 0.05112 0.93249 0.0
Sm40 Sm -0.00696 0.27102 0.26653 0.0
Sm41 Sm 0.98551 0.23637 0.2484 0.0
C42 C -0.00992 0.30469 0.28562 0.0
C43 C -0.00978 0.30979 0.30902 0.0
C44 C 0.97655 0.33015 0.3147 0.0
C45 C 0.97737 0.33599 0.33614 0.0
C46 C -0.00801 0.32158 0.35226 0.0
C47 C 0.00528 0.30091 0.34681 0.0
C48 C 0.00434 0.29501 0.3254 0.0
C49 C 0.02578 0.23087 0.27436 0.0
C50 C 0.96326 0.24341 0.301 0.0
C51 C 0.98796 0.20297 0.22907 0.0
C52 C 0.98829 0.19756 0.20548 0.0
C53 C 0.00828 0.18742 0.1924 0.0
C54 C 0.00856 0.18076 0.17103 0.0
C55 C -0.01113 0.18399 0.16232 0.0
C56 C 0.9689 0.19454 0.17516 0.0
C57 C 0.96861 0.20117 0.19652 0.0
C58 C 0.95283 0.27662 0.24092 0.0
C59 C 0.01501 0.26435 0.21371 0.0
O60 O 0.97295 0.30063 0.28251 0.0
O61 O 0.00849 0.29187 0.27618 0.0
O62 O 0.00553 0.23381 0.27715 0.0
O63 O 0.02908 0.24935 0.26903 0.0
O64 O 0.96676 0.26219 0.295 0.0
O65 O 0.97263 0.22808 0.28765 0.0
O66 O 0.0052 0.20629 0.23319 0.0
O67 O 0.96958 0.21625 0.23802 0.0
O68 O 0.9731 0.27352 0.2378 0.0
O69 O 0.94937 0.25821 0.2466 0.0
O70 O 0.01119 0.24571 0.21926 0.0
O71 O 0.00615 0.27933 0.22752 0.0
H72 H 0.96555 0.34174 0.30229 0.0
H73 H 0.96713 0.35213 0.33968 0.0
H74 H 0.01655 0.2894 0.35899 0.0
H75 H 0.0149 0.27909 0.32147 0.0
H76 H 0.02373 0.18425 0.19889 0.0
H77 H 0.02423 0.17285 0.16145 0.0
H78 H 0.95343 0.19696 0.16918 0.0
H79 H 0.9529 0.2087 0.20626 0.0
Sm80 Sm 0.73088 0.23948 0.49193 0.0
Sm81 Sm 0.74725 0.26611 0.52345 0.0
C82 C 0.71911 0.21016 0.47955 0.0
C83 C 0.69757 0.2077 0.48122 0.0
C84 C 0.69258 0.19125 0.4984 0.0
C85 C 0.6717 0.18981 0.50168 0.0
C86 C 0.65543 0.20467 0.48769 0.0
C87 C 0.66048 0.22093 0.47023 0.0
C88 C 0.68135 0.2225 0.46707 0.0
C89 C 0.72255 0.28317 0.47202 0.0
C90 C 0.69693 0.2643 0.53532 0.0
C91 C 0.75951 0.29517 0.53558 0.0
C92 C 0.78105 0.29778 0.53212 0.0
C93 C 0.79394 0.29669 0.50987 0.0
C94 C 0.815 0.29767 0.50722 0.0
C95 C 0.8236 0.29939 0.52685 0.0
C96 C 0.81079 0.30025 0.54911 0.0
C97 C 0.78964 0.29952 0.55169 0.0
C98 C 0.75508 0.22255 0.54366 0.0
C99 C 0.78128 0.24102 0.48035 0.0
O100 O 0.72657 0.20727 0.49995 0.0
O101 O 0.72248 0.22658 0.4642 0.0
O102 O 0.73108 0.27275 0.49078 0.0
O103 O 0.71673 0.27008 0.4632 0.0
O104 O 0.70149 0.25041 0.52028 0.0
O105 O 0.71066 0.27385 0.53793 0.0
O106 O 0.74994 0.29901 0.51633 0.0
O107 O 0.758 0.27778 0.5505 0.0
O108 O 0.74703 0.23285 0.5246 0.0
O109 O 0.76048 0.23575 0.55277 0.0
O110 O 0.77687 0.25483 0.49544 0.0
O111 O 0.7674 0.23178 0.4775 0.0
H112 H 0.70479 0.17964 0.50951 0.0
H113 H 0.66838 0.1768 0.5149 0.0
H114 H 0.64823 0.23254 0.45917 0.0
H115 H 0.68462 0.23546 0.45374 0.0
H116 H 0.78787 0.2949 0.49455 0.0
H117 H 0.8246 0.29699 0.4899 0.0
H118 H 0.81696 0.30194 0.56441 0.0
H119 H 0.78005 0.30013 0.56903 0.0
Sm120 Sm 0.71968 1.00165 0.7495 0.0
Sm121 Sm 0.75603 0.00742 0.76834 0.0
C122 C 0.68407 0.00646 0.73088 0.0
C123 C 0.67631 0.01159 0.70738 0.0
C124 C 0.6538 0.01839 0.70593 0.0
C125 C 0.64605 0.02197 0.68399 0.0
C126 C 0.66072 0.01877 0.66307 0.0
C127 C 0.68332 0.01249 0.66451 0.0
C128 C 0.69106 0.00901 0.68653 0.0
C129 C 0.75976 0.96962 0.74209 0.0
C130 C 0.74636 0.03286 0.7154 0.0
C131 C 0.79084 0.00382 0.7876 0.0
C132 C 0.79741 1.00151 0.81131 0.0
C133 C 0.79674 0.98382 0.82949 0.0
C134 C 0.80414 0.98164 0.85139 0.0
C135 C 0.81214 0.9972 0.8555 0.0
C136 C 0.81217 0.01517 0.83749 0.0
C137 C 0.80495 0.01724 0.81562 0.0
C138 C 0.71584 0.0393 0.77592 0.0
C139 C 0.72994 0.97545 0.8021 0.0
O140 O 0.68688 0.0223 0.73819 0.0
O141 O 0.69962 0.9877 0.73563 0.0
O142 O 0.75672 0.98975 0.73932 0.0
O143 O 0.7413 0.96609 0.74738 0.0
O144 O 0.72787 0.02859 0.72056 0.0
O145 O 0.76214 0.02331 0.72942 0.0
O146 O 0.78776 0.98717 0.78234 0.0
O147 O 0.77644 0.02255 0.77983 0.0
O148 O 0.71903 0.01915 0.77869 0.0
O149 O 0.73422 0.04291 0.77051 0.0
O150 O 0.74819 0.98017 0.79716 0.0
O151 O 0.71415 0.98479 0.78807 0.0
H152 H 0.64222 0.02044 0.72189 0.0
H153 H 0.62859 0.02644 0.68357 0.0
H154 H 0.69499 0.01007 0.64868 0.0
H155 H 0.70854 0.0039 0.68737 0.0
H156 H 0.79083 0.97151 0.82671 0.0
H157 H 0.80389 0.96767 0.86499 0.0
H158 H 0.81863 0.0272 0.83992 0.0
H159 H 0.80567 0.03098 0.80184 0.0
Sm160 Sm 0.4933 0.77244 0.2689 0.0
Sm161 Sm 0.48547 0.73658 0.25322 0.0
C162 C 0.49081 0.80694 0.28616 0.0
C163 C 0.49161 0.8123 0.30922 0.0
C164 C 0.47901 0.83312 0.31443 0.0
C165 C 0.48026 0.83891 0.33576 0.0
C166 C 0.49424 0.82398 0.35222 0.0
C167 C 0.50651 0.80294 0.34716 0.0
C168 C 0.50512 0.7971 0.32589 0.0
C169 C 0.52604 0.73241 0.27764 0.0
C170 C 0.4641 0.74546 0.30544 0.0
C171 C 0.48708 0.7021 0.23652 0.0
C172 C 0.48478 0.69605 0.21439 0.0
C173 C 0.49706 0.70062 0.19259 0.0
C174 C 0.49476 0.6941 0.1721 0.0
C175 C 0.48003 0.68311 0.17304 0.0
C176 C 0.46765 0.67881 0.19485 0.0
C177 C 0.47005 0.68516 0.21529 0.0
C178 C 0.45298 0.77685 0.24415 0.0
C179 C 0.51506 0.76325 0.2168 0.0
O180 O 0.47356 0.8026 0.28404 0.0
O181 O 0.50902 0.79403 0.27648 0.0
O182 O 0.50579 0.73544 0.28094 0.0
O183 O 0.52943 0.75083 0.27129 0.0
O184 O 0.46705 0.76443 0.29813 0.0
O185 O 0.47379 0.72947 0.29302 0.0
O186 O 0.50446 0.70688 0.23716 0.0
O187 O 0.46926 0.71472 0.24711 0.0
O188 O 0.47326 0.77356 0.24092 0.0
O189 O 0.44938 0.75855 0.25065 0.0
O190 O 0.51191 0.74435 0.22406 0.0
O191 O 0.50546 0.77929 0.2292 0.0
H192 H 0.46846 0.84503 0.3018 0.0
H193 H 0.4708 0.85532 0.33901 0.0
H194 H 0.51725 0.79103 0.35962 0.0
H195 H 0.51483 0.78083 0.32231 0.0
H196 H 0.50847 0.70911 0.19139 0.0
H197 H 0.50443 0.69773 0.15551 0.0
H198 H 0.45645 0.67004 0.19627 0.0
H199 H 0.4605 0.68139 0.23193 0.0
Sm200 Sm 0.2313 0.74103 0.49394 0.0
Sm201 Sm 0.24632 0.76773 0.52662 0.0
C202 C 0.22041 0.71167 0.48043 0.0
C203 C 0.20067 0.70556 0.48688 0.0
C204 C 0.1907 0.70393 0.51057 0.0
C205 C 0.17056 0.70066 0.51601 0.0
C206 C 0.1599 0.6995 0.49777 0.0
C207 C 0.16988 0.70107 0.47413 0.0
C208 C 0.19018 0.70397 0.46875 0.0
C209 C 0.22467 0.78436 0.47338 0.0
C210 C 0.19649 0.76483 0.53739 0.0
C211 C 0.25682 0.79724 0.54034 0.0
C212 C 0.27756 0.80142 0.53694 0.0
C213 C 0.29055 0.80097 0.51474 0.0
C214 C 0.31112 0.80307 0.51232 0.0
C215 C 0.31914 0.80523 0.53213 0.0
C216 C 0.30617 0.80561 0.5543 0.0
C217 C 0.2855 0.80379 0.55665 0.0
C218 C 0.25358 0.72431 0.54699 0.0
C219 C 0.28137 0.74338 0.4835 0.0
O220 O 0.23337 0.70666 0.49709 0.0
O221 O 0.21714 0.73135 0.46822 0.0
O222 O 0.23195 0.77414 0.49282 0.0
O223 O 0.21954 0.7712 0.46392 0.0
O224 O 0.20179 0.75079 0.52239 0.0
O225 O 0.20962 0.77497 0.54019 0.0
O226 O 0.2469 0.80138 0.52129 0.0
O227 O 0.25692 0.77885 0.55419 0.0
O228 O 0.24569 0.73455 0.52782 0.0
O229 O 0.25899 0.73748 0.55613 0.0
O230 O 0.27657 0.75682 0.49912 0.0
O231 O 0.26775 0.73417 0.47983 0.0
H232 H 0.19817 0.70568 0.52479 0.0
H233 H 0.1631 0.69948 0.53435 0.0
H234 H 0.16203 0.69989 0.45985 0.0
H235 H 0.19746 0.70552 0.45035 0.0
H236 H 0.28497 0.7987 0.49935 0.0
H237 H 0.32087 0.80273 0.49507 0.0
H238 H 0.31189 0.80762 0.56974 0.0
H239 H 0.27582 0.80391 0.57395 0.0
Sm240 Sm 0.21872 0.50122 0.74963 0.0
Sm241 Sm 0.25678 0.50443 0.76727 0.0
C242 C 0.18199 0.50817 0.7322 0.0
C243 C 0.17459 0.50966 0.70924 0.0
C244 C 0.15538 0.52649 0.70261 0.0
C245 C 0.14649 0.52672 0.68243 0.0
C246 C 0.15658 0.50999 0.66868 0.0
C247 C 0.17665 0.49397 0.67445 0.0
C248 C 0.18562 0.49382 0.69458 0.0
C249 C 0.25786 0.46912 0.73844 0.0
C250 C 0.24528 0.53233 0.71574 0.0
C251 C 0.29374 0.49809 0.784 0.0
C252 C 0.30165 0.49977 0.80533 0.0
C253 C 0.32217 0.48528 0.81142 0.0
C254 C 0.33158 0.48846 0.82938 0.0
C255 C 0.32066 0.50631 0.84142 0.0
C256 C 0.29943 0.51997 0.83636 0.0
C257 C 0.28997 0.51672 0.81841 0.0
C258 C 0.21755 0.53644 0.77865 0.0
C259 C 0.23063 0.47261 0.8006 0.0
O260 O 0.18817 0.52402 0.73451 0.0
O261 O 0.19432 0.48893 0.74188 0.0
O262 O 0.25538 0.4889 0.7373 0.0
O263 O 0.23916 0.46613 0.7435 0.0
O264 O 0.22627 0.52921 0.72185 0.0
O265 O 0.26179 0.52102 0.72842 0.0
O266 O 0.28586 0.48247 0.78573 0.0
O267 O 0.28266 0.51643 0.77147 0.0
O268 O 0.22016 0.51664 0.77974 0.0
O269 O 0.23624 0.53946 0.77371 0.0
O270 O 0.2496 0.47586 0.79438 0.0
O271 O 0.21394 0.48398 0.78819 0.0
H272 H 0.1468 0.53899 0.71355 0.0
H273 H 0.1312 0.5395 0.67816 0.0
H274 H 0.18474 0.48081 0.66428 0.0
H275 H 0.20067 0.48081 0.69919 0.0
H276 H 0.33132 0.47202 0.80162 0.0
H277 H 0.34779 0.47742 0.83325 0.0
H278 H 0.29065 0.53388 0.84528 0.0
H279 H 0.27398 0.52799 0.81406 0.0
Sm280 Sm 0.96263 0.5049 0.52619 0.0
Sm281 Sm 0.00048 0.50957 0.4877 0.0
C282 C 0.92871 0.49514 0.55039 0.0
C283 C 0.92116 0.47743 0.54893 0.0
C284 C 0.92219 0.47173 0.52668 0.0
C285 C 0.91989 0.45213 0.5254 0.0
C286 C 0.91678 0.43778 0.54635 0.0
C287 C 0.91452 0.44406 0.56859 0.0
C288 C 0.91673 0.46376 0.56986 0.0
C289 C 0.0008 0.498 0.54356 0.0
C290 C -0.00768 0.4644 0.49625 0.0
C291 C 0.03424 0.51935 0.46328 0.0
C292 C 0.0435 0.53508 0.46706 0.0
C293 C 0.04527 0.53677 0.49034 0.0
C294 C 0.04994 0.55427 0.49446 0.0
C295 C 0.05261 0.5706 0.47545 0.0
C296 C 0.05167 0.56843 0.45205 0.0
C297 C 0.04717 0.55077 0.4479 0.0
C298 C 0.96212 0.51563 0.47093 0.0
C299 C 0.97165 0.54957 0.51857 0.0
O300 O 0.92688 0.51074 0.53178 0.0
O301 O 0.94768 0.48849 0.55863 0.0
O302 O -0.00048 0.49143 0.52524 0.0
O303 O 0.98156 0.50732 0.55427 0.0
O304 O 0.97333 0.47453 0.5079 0.0
O305 O 0.00772 0.4733 0.48915 0.0
O306 O 0.03641 0.502 0.4798 0.0
O307 O 0.01457 0.52815 0.45646 0.0
O308 O 0.96381 0.52266 0.48869 0.0
O309 O 0.98133 0.50621 0.46019 0.0
O310 O -0.00951 0.53943 0.50669 0.0
O311 O 0.95608 0.54089 0.52561 0.0
H312 H 0.92592 0.48181 0.51026 0.0
H313 H 0.92122 0.44789 0.50802 0.0
H314 H 0.91213 0.43326 0.58501 0.0
H315 H 0.91619 0.46775 0.58718 0.0
H316 H 0.04215 0.52509 0.50552 0.0
H317 H 0.05098 0.55523 0.51263 0.0
H318 H 0.05345 0.58086 0.43704 0.0
H319 H 0.04549 0.54995 0.42989 0.0
Sm320 Sm 0.23297 0.2381 0.99344 0.0
Sm321 Sm 0.24787 0.26691 0.02337 0.0
C322 C 0.22176 0.20769 0.9827 0.0
C323 C 0.20022 0.20596 0.98234 0.0
C324 C 0.19378 0.19018 0.99919 0.0
C325 C 0.17263 0.1897 1.00098 0.0
C326 C 0.15759 0.20486 0.98578 0.0
C327 C 0.16414 0.22036 0.96853 0.0
C328 C 0.18525 0.22101 0.96692 0.0
C329 C 0.22267 0.28186 0.97246 0.0
C330 C 0.19787 0.26424 0.03491 0.0
C331 C 0.25872 0.29681 0.03593 0.0
C332 C 0.27943 0.2972 0.04175 0.0
C333 C 0.29332 0.30528 0.02386 0.0
C334 C 0.31349 0.30456 0.02871 0.0
C335 C 0.32015 0.29596 0.05163 0.0
C336 C 0.30616 0.28818 0.06967 0.0
C337 C 0.28598 0.28876 0.06478 0.0
C338 C 0.25823 0.22322 0.04443 0.0
C339 C 0.28266 0.24108 0.9812 0.0
O340 O 0.22659 0.20692 1.00391 0.0
O341 O 0.22739 0.22236 0.96636 0.0
O342 O 0.231 0.27229 0.99153 0.0
O343 O 0.21811 0.26779 0.9639 0.0
O344 O 0.20337 0.24908 0.02129 0.0
O345 O 0.21088 0.275 0.03636 0.0
O346 O 0.25833 0.29578 0.01366 0.0
O347 O 0.24916 0.28441 0.05121 0.0
O348 O 0.24958 0.23281 0.02556 0.0
O349 O 0.26316 0.23723 0.05266 0.0
O350 O 0.27737 0.2561 0.99504 0.0
O351 O 0.2696 0.23041 0.97975 0.0
H352 H 0.205 0.17845 0.01129 0.0
H353 H 0.16811 0.17728 0.01409 0.0
H354 H 0.15283 0.23214 0.95656 0.0
H355 H 0.18967 0.23352 0.95387 0.0
H356 H 0.28866 0.31208 1.006 0.0
H357 H 0.3237 0.31119 0.01461 0.0
H358 H 0.31087 0.28155 0.08752 0.0
H359 H 0.27563 0.28247 0.079 0.0
Sm360 Sm 0.22286 0.00275 0.25286 0.0
Sm361 Sm 0.25955 0.00737 0.27158 0.0
C362 C 0.1874 0.00803 0.23373 0.0
C363 C 0.18151 0.00765 0.2105 0.0
C364 C 0.16507 0.02569 0.19985 0.0
C365 C 0.15804 0.02502 0.17877 0.0
C366 C 0.16724 0.0062 0.16812 0.0
C367 C 0.18423 0.98843 0.17835 0.0
C368 C 0.19138 0.98917 0.19931 0.0
C369 C 0.26254 0.9707 0.24347 0.0
C370 C 0.24933 0.03457 0.21957 0.0
C371 C 0.29547 1.0018 0.29006 0.0
C372 C 0.30336 0.99647 0.31349 0.0
C373 C 0.32592 0.98935 0.31479 0.0
C374 C 0.33384 0.98554 0.33667 0.0
C375 C 0.31931 0.9888 0.35768 0.0
C376 C 0.29666 0.99539 0.35639 0.0
C377 C 0.28873 0.99912 0.33443 0.0
C378 C 0.21966 0.03957 0.2801 0.0
C379 C 0.23291 0.97618 0.3053 0.0
O380 O 0.19326 0.02436 0.23513 0.0
O381 O 0.1991 0.98945 0.24535 0.0
O382 O 0.2598 0.99065 0.24177 0.0
O383 O 0.24394 0.96753 0.24828 0.0
O384 O 0.23073 0.0305 0.2248 0.0
O385 O 0.26531 0.02443 0.23322 0.0
O386 O 0.29221 0.98616 0.28282 0.0
O387 O 0.28017 0.02075 0.28535 0.0
O388 O 0.22258 0.01952 0.28249 0.0
O389 O 0.23818 0.04297 0.27459 0.0
O390 O 0.25161 0.98 0.29995 0.0
O391 O 0.2169 0.98647 0.29169 0.0
H392 H 0.15724 0.04009 0.20818 0.0
H393 H 0.14474 0.03885 0.17141 0.0
H394 H 0.19169 0.9738 0.17038 0.0
H395 H 0.20428 0.97508 0.20699 0.0
H396 H 0.3374 0.98724 0.29877 0.0
H397 H 0.35135 0.98084 0.33696 0.0
H398 H 0.28509 0.99789 0.37229 0.0
H399 H 0.27122 0.00448 0.33369 0.0
Sm400 Sm 0.49018 0.27131 0.76476 0.0
Sm401 Sm 0.48319 0.2369 0.74499 0.0
C402 C 0.48674 0.30457 0.78482 0.0
C403 C 0.48724 0.30911 0.8084 0.0
C404 C 0.47376 0.32931 0.81466 0.0
C405 C 0.47516 0.33471 0.83615 0.0
C406 C 0.49018 0.32001 0.85172 0.0
C407 C 0.50319 0.29946 0.84573 0.0
C408 C 0.50166 0.29401 0.82429 0.0
C409 C 0.52307 0.23125 0.77148 0.0
C410 C 0.46144 0.24213 0.79843 0.0
C411 C 0.48659 0.20386 0.72456 0.0
C412 C 0.48628 0.1993 0.70082 0.0
C413 C 0.50422 0.1831 0.69117 0.0
C414 C 0.50364 0.17736 0.66956 0.0
C415 C 0.48499 0.18761 0.65727 0.0
C416 C 0.46726 0.20424 0.66661 0.0
C417 C 0.46791 0.2101 0.68814 0.0
C418 C 0.45026 0.27699 0.73829 0.0
C419 C 0.51247 0.26577 0.71168 0.0
O420 O 0.46975 0.3002 0.78185 0.0
O421 O 0.50518 0.29236 0.77474 0.0
O422 O 0.50288 0.23415 0.77404 0.0
O423 O 0.52634 0.24974 0.767 0.0
O424 O 0.46494 0.26091 0.79354 0.0
O425 O 0.4703 0.22766 0.78398 0.0
O426 O 0.5036 0.20806 0.72785 0.0
O427 O 0.46816 0.21595 0.73481 0.0
O428 O 0.47047 0.27411 0.73564 0.0
O429 O 0.44704 0.25849 0.74275 0.0
O430 O 0.50885 0.24704 0.71653 0.0
O431 O 0.50333 0.2804 0.72591 0.0
H432 H 0.46254 0.34115 0.80263 0.0
H433 H 0.46511 0.35076 0.84012 0.0
H434 H 0.51474 0.28774 0.85749 0.0
H435 H 0.51208 0.2782 0.8199 0.0
H436 H 0.51852 0.17451 0.70066 0.0
H437 H 0.51745 0.16431 0.66294 0.0
H438 H 0.45277 0.21256 0.6574 0.0
H439 H 0.45386 0.22277 0.69503 0.0
Sm440 Sm -0.00599 0.77009 0.76984 0.0
Sm441 Sm 0.98453 0.73674 0.75107 0.0
C442 C -0.00651 0.80283 0.789 0.0
C443 C -0.00381 0.80779 0.81161 0.0
C444 C 0.9838 0.80298 0.83322 0.0
C445 C 0.98641 0.80865 0.85413 0.0
C446 C 0.00155 0.81904 0.85376 0.0
C447 C 0.01406 0.82354 0.83212 0.0
C448 C 0.01136 0.81801 0.8113 0.0
C449 C 0.02626 0.72947 0.77556 0.0
C450 C 0.96454 0.74227 0.80481 0.0
C451 C 0.98504 0.70439 0.73118 0.0
C452 C 0.98472 0.69939 0.70759 0.0
C453 C 0.00421 0.69176 0.69253 0.0
C454 C 0.00386 0.68536 0.6712 0.0
C455 C 0.98401 0.68643 0.66449 0.0
C456 C 0.96449 0.69452 0.67931 0.0
C457 C 0.96486 0.70083 0.70063 0.0
C458 C 0.95219 0.77726 0.74613 0.0
C459 C 0.01371 0.76466 0.716 0.0
O460 O 0.97579 0.79879 0.78786 0.0
O461 O 0.01105 0.7904 0.77786 0.0
O462 O 0.00594 0.7328 0.77904 0.0
O463 O 0.02998 0.74773 0.77065 0.0
O464 O 0.9689 0.76063 0.79964 0.0
O465 O 0.97241 0.72778 0.79034 0.0
O466 O 0.00282 0.70665 0.73539 0.0
O467 O 0.96712 0.71822 0.74018 0.0
O468 O 0.9725 0.77402 0.74206 0.0
O469 O 0.9485 0.75899 0.75146 0.0
O470 O 0.00957 0.74621 0.72125 0.0
O471 O 0.00568 0.77917 0.73043 0.0
H472 H 0.97203 0.795 0.83396 0.0
H473 H 0.97662 0.80488 0.87056 0.0
H474 H 0.02557 0.83187 0.83112 0.0
H475 H 0.021 0.82197 0.7948 0.0
H476 H 0.01982 0.69032 0.69741 0.0
H477 H 0.01915 0.67934 0.66008 0.0
H478 H 0.94899 0.6952 0.67489 0.0
H479 H 0.94959 0.70634 0.71197 0.0
Sm480 Sm 0.72114 0.50162 0.25125 0.0
Sm481 Sm 0.75767 0.5065 0.2698 0.0
C482 C 0.68524 0.50677 0.23309 0.0
C483 C 0.67773 0.50582 0.21109 0.0
C484 C 0.65886 0.52236 0.20309 0.0
C485 C 0.64926 0.5202 0.18466 0.0
C486 C 0.65828 0.50133 0.17405 0.0
C487 C 0.67809 0.48549 0.18093 0.0
C488 C 0.68776 0.48772 0.19932 0.0
C489 C 0.76089 0.46945 0.24215 0.0
C490 C 0.7476 0.53318 0.21759 0.0
C491 C 0.79246 0.50156 0.28992 0.0
C492 C 0.79791 0.49854 0.31442 0.0
C493 C 0.80465 0.4777 0.32852 0.0
C494 C 0.8105 0.47504 0.35133 0.0
C495 C 0.80967 0.49317 0.36047 0.0
C496 C 0.80254 0.51401 0.34652 0.0
C497 C 0.79684 0.51665 0.32372 0.0
C498 C 0.71791 0.53887 0.27795 0.0
C499 C 0.73098 0.47546 0.30369 0.0
O500 O 0.69179 0.52302 0.23294 0.0
O501 O 0.697 0.48832 0.24487 0.0
O502 O 0.75815 0.48941 0.24025 0.0
O503 O 0.74227 0.4663 0.24694 0.0
O504 O 0.72897 0.5292 0.22303 0.0
O505 O 0.76368 0.52304 0.23115 0.0
O506 O 0.78923 0.48538 0.28377 0.0
O507 O 0.77869 0.52059 0.2818 0.0
O508 O 0.72066 0.51882 0.2806 0.0
O509 O 0.73649 0.54209 0.27244 0.0
O510 O 0.74982 0.47897 0.29811 0.0
O511 O 0.71492 0.48605 0.29024 0.0
H512 H 0.65098 0.53651 0.21184 0.0
H513 H 0.63421 0.53286 0.17941 0.0
H514 H 0.68537 0.47074 0.17316 0.0
H515 H 0.70247 0.47481 0.20506 0.0
H516 H 0.80571 0.46339 0.32185 0.0
H517 H 0.81595 0.45879 0.36171 0.0
H518 H 0.80219 0.52823 0.35284 0.0
H519 H 0.79192 0.53289 0.31323 0.0
Sm520 Sm 0.73151 0.74039 0.99436 0.0
Sm521 Sm 0.74644 0.76806 0.02604 0.0
C522 C 0.72136 0.70989 0.98206 0.0
C523 C 0.70175 0.70367 0.98852 0.0
C524 C 0.68691 0.71059 1.00827 0.0
C525 C 0.6669 0.70709 0.01279 0.0
C526 C 0.66147 0.69646 0.9977 0.0
C527 C 0.6767 0.68905 0.97827 0.0
C528 C 0.69663 0.69275 0.97364 0.0
C529 C 0.7249 0.78339 0.97267 0.0
C530 C 0.69642 0.76587 0.0368 0.0
C531 C 0.75727 0.79787 0.03865 0.0
C532 C 0.77807 0.80204 0.03443 0.0
C533 C 0.79039 0.80178 0.01185 0.0
C534 C 0.81124 0.80337 1.00874 0.0
C535 C 0.82018 0.80487 0.02823 0.0
C536 C 0.80779 0.80522 0.05075 0.0
C537 C 0.78687 0.80388 0.0538 0.0
C538 C 0.75328 0.72489 0.04745 0.0
C539 C 0.78151 0.74312 0.98336 0.0
O540 O 0.7335 0.70588 0.99923 0.0
O541 O 0.71815 0.72928 0.96913 0.0
O542 O 0.73231 0.77364 0.9922 0.0
O543 O 0.71977 0.76989 0.96376 0.0
O544 O 0.70143 0.75176 0.02192 0.0
O545 O 0.70987 0.77557 0.03974 0.0
O546 O 0.74682 0.80185 0.02002 0.0
O547 O 0.75765 0.77954 0.0528 0.0
O548 O 0.74562 0.73487 0.02812 0.0
O549 O 0.75878 0.7382 0.05624 0.0
O550 O 0.77644 0.75706 0.99845 0.0
O551 O 0.76811 0.73337 0.9803 0.0
H552 H 0.69058 0.71911 0.01991 0.0
H553 H 0.65553 0.71313 0.02779 0.0
H554 H 0.67323 0.68035 0.96661 0.0
H555 H 0.70788 0.68743 0.95824 0.0
H556 H 0.78413 0.79995 0.99669 0.0
H557 H 0.82051 0.8031 0.99122 0.0
H558 H 0.81421 0.80677 0.06595 0.0
H559 H 0.77772 0.80386 0.07138 0.0
Sm560 Sm 0.47308 1.00231 0.52721 0.0
Sm561 Sm 0.51129 0.0036 0.48772 0.0
C562 C 0.43913 0.99416 0.55346 0.0
C563 C 0.43028 0.9772 0.55266 0.0
C564 C 0.43057 0.97142 0.53066 0.0
C565 C 0.42664 0.95253 0.52988 0.0
C566 C 0.42262 0.93892 0.55109 0.0
C567 C 0.42123 0.94525 0.57311 0.0
C568 C 0.4251 0.96428 0.57387 0.0
C569 C 0.51098 0.99907 0.54289 0.0
C570 C 0.50224 0.95884 0.50149 0.0
C571 C 0.54542 0.01195 0.46235 0.0
C572 C 0.55323 0.02981 0.46316 0.0
C573 C 0.56453 0.0286 0.48208 0.0
C574 C 0.56705 0.04725 0.4863 0.0
C575 C 0.55846 0.06744 0.47158 0.0
C576 C 0.54863 0.06831 0.45164 0.0
C577 C 0.54616 0.04965 0.44739 0.0
C578 C 0.47316 0.00748 0.47199 0.0
C579 C 0.48159 0.04748 0.51263 0.0
O580 O 0.43713 0.00978 0.53484 0.0
O581 O 0.45864 0.98661 0.56064 0.0
O582 O 0.50981 0.98979 0.52667 0.0
O583 O 0.49161 0.00924 0.55272 0.0
O584 O 0.48323 0.97025 0.51207 0.0
O585 O 0.51811 0.96699 0.49355 0.0
O586 O 0.54719 0.99676 0.48136 0.0
O587 O 0.52649 0.01811 0.45404 0.0
O588 O 0.4746 0.01644 0.48834 0.0
O589 O 0.49246 0.99718 0.46204 0.0
O590 O 0.50053 0.03628 0.50173 0.0
O591 O 0.46609 0.03893 0.52136 0.0
H592 H 0.4349 0.98089 0.51404 0.0
H593 H 0.42737 0.94826 0.51266 0.0
H594 H 0.41817 0.935 0.58972 0.0
H595 H 0.42514 0.9683 0.591 0.0
H596 H 0.5705 0.01351 0.49436 0.0
H597 H 0.57525 0.04595 0.50144 0.0
H598 H 0.54182 0.08362 0.43996 0.0
H599 H 0.5375 0.05109 0.43258 0.0
Sm600 Sm 0.46648 0.49999 0.02608 0.0
Sm601 Sm 0.5096 0.50035 0.99657 0.0
C602 C 0.42909 0.49354 0.04266 0.0
C603 C 0.42411 0.47314 0.04691 0.0
C604 C 0.42325 0.46394 0.02763 0.0
C605 C 0.42266 0.44284 0.03135 0.0
C606 C 0.42283 0.43048 0.05441 0.0
C607 C 0.42253 0.44006 0.07384 0.0
C608 C 0.42311 0.46122 0.07012 0.0
C609 C 0.50174 0.48429 0.05159 0.0
C610 C 0.49707 0.45861 0.99765 0.0
C611 C 0.54686 0.50721 0.98098 0.0
C612 C 0.55178 0.52698 0.98106 0.0
C613 C 0.56549 0.52641 0.99726 0.0
C614 C 0.56634 0.54576 1.00164 0.0
C615 C 0.55364 0.56601 0.98974 0.0
C616 C 0.54094 0.56656 0.97251 0.0
C617 C 0.53996 0.54723 0.96824 0.0
C618 C 0.47417 0.51626 0.9713 0.0
C619 C 0.47929 0.54147 0.02518 0.0
O620 O 0.43353 0.50171 0.02037 0.0
O621 O 0.44238 0.49404 0.05656 0.0
O622 O 0.50191 0.48029 0.03123 0.0
O623 O 0.48229 0.496 0.05966 0.0
O624 O 0.47744 0.47024 1.00673 0.0
O625 O 0.51401 0.46527 0.99471 0.0
O626 O 0.54333 0.49627 1.00212 0.0
O627 O 0.53281 0.50914 0.96663 0.0
O628 O 0.47419 0.52023 0.9916 0.0
O629 O 0.49351 0.50435 0.96313 0.0
O630 O 0.49903 0.52943 0.01687 0.0
O631 O 0.46216 0.53528 0.0271 0.0
H632 H 0.42387 0.47269 1.0095 0.0
H633 H 0.4223 0.43611 0.01609 0.0
H634 H 0.42262 0.43095 0.09183 0.0
H635 H 0.42372 0.4679 0.08531 0.0
H636 H 0.57468 0.51104 1.00744 0.0
H637 H 0.57662 0.54491 0.01468 0.0
H638 H 0.53101 0.58197 0.96309 0.0
H639 H 0.52908 0.54831 0.95576 0.0
C640 C -0.00858 0.07993 0.01155 0.0
C641 C 0.97642 0.06907 0.02162 0.0
C642 C -0.00864 0.09751 0.02092 0.0
C643 C 0.00012 0.11887 0.05713 0.0
H644 H 0.94864 0.15828 0.08836 0.0
C645 C 0.00346 0.15418 0.13759 0.0
C646 C -0.01097 0.17514 0.14082 0.0
C647 C 0.00233 0.14492 0.11867 0.0
C648 C 0.96321 0.14769 0.07942 0.0
H649 H 0.94885 0.06893 0.04853 0.0
H650 H 0.94923 0.09902 0.06532 0.0
H651 H 0.94429 0.13682 0.06184 0.0
H652 H 0.96281 0.20325 0.12598 0.0
H653 H 0.96087 0.18707 0.09286 0.0
H654 H 0.01904 0.12962 0.0748 0.0
C655 C 0.96074 0.09434 0.04988 0.0
C656 C 0.9607 0.13518 0.06442 0.0
C657 C 0.96057 0.07698 0.0403 0.0
C658 C 0.97394 0.18693 0.12419 0.0
C659 C 0.97283 0.17767 0.10522 0.0
C660 C 0.00263 0.13143 0.07203 0.0
C661 C 0.9766 0.10436 0.04081 0.0
C662 C 0.97912 0.12016 0.05363 0.0
C663 C 0.98677 0.1564 0.10247 0.0
C664 C 0.9842 0.14551 0.08393 0.0
H665 H 0.00372 0.07439 0.99696 0.0
H666 H 0.00332 0.10532 0.01306 0.0
H667 H 0.0147 0.10734 0.04933 0.0
H668 H 0.01504 0.14451 0.15026 0.0
H669 H 0.01307 0.12837 0.11738 0.0
C670 C 0.80497 0.23 0.44288 0.0
C671 C 0.80251 0.23673 0.46489 0.0
C672 C 0.82416 0.22816 0.42716 0.0
C673 C 0.87236 0.24704 0.41472 0.0
H674 H 0.89169 0.20771 0.3687 0.0
C675 C 0.9331 0.25853 0.3322 0.0
C676 C 0.94747 0.24036 0.32215 0.0
C677 C 0.91708 0.25629 0.35104 0.0
C678 C 0.88682 0.21858 0.38163 0.0
H679 H 0.81876 0.2458 0.48815 0.0
H680 H 0.85255 0.24157 0.46141 0.0
H681 H 0.86167 0.20582 0.39944 0.0
H682 H 0.9566 0.20541 0.32453 0.0
H683 H 0.92919 0.20127 0.35813 0.0
H684 H 0.89805 0.25916 0.39763 0.0
C685 C 0.8394 0.2385 0.45573 0.0
C686 C 0.86925 0.21776 0.39911 0.0
C687 C 0.82004 0.24074 0.47123 0.0
C688 C 0.94574 0.21976 0.33181 0.0
C689 C 0.92986 0.21744 0.35098 0.0
C690 C 0.89014 0.2476 0.39754 0.0
C691 C 0.84161 0.23264 0.4332 0.0
C692 C 0.86147 0.23225 0.41567 0.0
C693 C 0.91513 0.23573 0.36074 0.0
C694 C 0.89738 0.23371 0.38039 0.0
H695 H 0.7917 0.22699 0.43732 0.0
H696 H 0.82492 0.22398 0.40992 0.0
H697 H 0.86685 0.2587 0.42684 0.0
H698 H 0.93376 0.27471 0.32505 0.0
H699 H 0.90584 0.27089 0.35752 0.0
C700 C 0.76682 0.05681 0.69009 0.0
C701 C 0.74878 0.04957 0.69424 0.0
C702 C 0.76811 0.07385 0.67137 0.0
C703 C 0.73301 0.12096 0.63189 0.0
H704 H 0.78885 0.12233 0.5976 0.0
C705 C 0.73928 0.19221 0.5555 0.0
C706 C 0.75592 0.20038 0.55608 0.0
C707 C 0.73885 0.17247 0.57002 0.0
C708 C 0.77311 0.12229 0.60707 0.0
H709 H 0.71825 0.0543 0.68129 0.0
H710 H 0.72069 0.08362 0.64853 0.0
H711 H 0.78736 0.0905 0.62718 0.0
H712 H 0.78511 0.19438 0.57227 0.0
H713 H 0.78455 0.16003 0.59736 0.0
H714 H 0.71881 0.15284 0.61189 0.0
C715 C 0.73368 0.07646 0.66001 0.0
C716 C 0.77226 0.104 0.62413 0.0
C717 C 0.73236 0.05946 0.67876 0.0
C718 C 0.77227 0.18829 0.57116 0.0
C719 C 0.77197 0.16854 0.5855 0.0
C720 C 0.73387 0.13922 0.61477 0.0
C721 C 0.75143 0.08413 0.6562 0.0
C722 C 0.75223 0.10315 0.63703 0.0
C723 C 0.75509 0.16046 0.58543 0.0
C724 C 0.75396 0.14027 0.60231 0.0
H725 H 0.77973 0.04971 0.70168 0.0
H726 H 0.78191 0.07941 0.66929 0.0
H727 H 0.71731 0.12116 0.64163 0.0
H728 H 0.72597 0.2016 0.54483 0.0
H729 H 0.72561 0.16678 0.56944 0.0
C730 C 0.93317 0.01884 0.96934 0.0
C731 C 0.95451 0.00399 0.96602 0.0
C732 C 0.91552 0.01476 0.96358 0.0
C733 C 0.9056 0.98225 0.92546 0.0
H734 H 0.84536 0.00524 0.95338 0.0
C735 C 0.838 0.97349 0.88512 0.0
C736 C 0.82251 0.99384 0.87735 0.0
C737 C 0.85137 0.97143 0.90223 0.0
C738 C 0.86216 0.99859 0.94559 0.0
H739 H 0.97413 0.97253 0.95603 0.0
H740 H 0.94347 0.96472 0.94752 0.0
H741 H 0.87486 0.00758 0.97175 0.0
H742 H 0.80721 0.02736 0.88319 0.0
H743 H 0.83075 0.02378 0.91296 0.0
H744 H 0.89304 0.97347 0.89925 0.0
C745 C 0.94024 0.98008 0.95324 0.0
C746 C 0.87903 1.00006 0.95596 0.0
C747 C 0.95784 0.98448 0.95825 0.0
C748 C 0.81927 0.01156 0.88861 0.0
C749 C 0.83258 0.00946 0.90581 0.0
C750 C 0.88887 0.9805 0.9154 0.0
C751 C 0.91893 0.9955 0.95495 0.0
C752 C 0.90095 0.99224 0.94574 0.0
C753 C 0.84942 0.98964 0.91194 0.0
C754 C 0.86696 0.98896 0.92507 0.0
H755 H 0.93026 0.03392 0.97554 0.0
H756 H 0.8994 0.0271 0.965 0.0
H757 H 0.9221 0.97656 0.91659 0.0
H758 H 0.84093 0.95955 0.87676 0.0
H759 H 0.8641 0.9559 0.90685 0.0
C760 C 0.02512 0.01334 0.06806 0.0
C761 C 0.02712 0.99976 0.05185 0.0
C762 C 0.04373 0.01483 0.0746 0.0
C763 C 0.10239 0.98439 0.07829 0.0
H764 H 0.10002 0.03831 0.09497 0.0
C765 C 0.15204 0.98596 0.14853 0.0
C766 C 0.15766 0.00441 0.14777 0.0
C767 C 0.14026 0.98534 0.13118 0.0
C768 C 0.10131 0.02319 0.08995 0.0
H769 H 0.05001 0.9771 0.02965 0.0
H770 H 0.08272 0.97996 0.04077 0.0
H771 H 0.07125 0.03832 0.07426 0.0
H772 H 0.15675 0.03605 0.12746 0.0
H773 H 0.13659 0.03479 0.09667 0.0
H774 H 0.13256 0.96929 0.09383 0.0
C775 C 0.06676 0.98931 0.04862 0.0
C776 C 0.08456 0.02314 0.07839 0.0
C777 C 0.04807 0.98776 0.04214 0.0
C778 C 0.15235 0.02175 0.12859 0.0
C779 C 0.14076 0.02102 0.11103 0.0
C780 C 0.1193 0.98449 0.0896 0.0
C781 C 0.06479 0.00283 0.065 0.0
C782 C 0.08444 0.00357 0.07332 0.0
C783 C 0.13399 0.00308 0.11252 0.0
C784 C 0.11852 0.00372 0.09643 0.0
H785 H 0.00915 0.02281 0.07578 0.0
H786 H 0.04157 0.02503 0.08766 0.0
H787 H 0.10285 0.96902 0.07464 0.0
H788 H 0.15569 0.97248 0.16328 0.0
H789 H 0.13503 0.97141 0.13324 0.0
C790 C 0.97682 0.43824 0.48787 0.0
C791 C -0.00476 0.44373 0.48867 0.0
C792 C 0.97903 0.42014 0.47814 0.0
C793 C 0.01598 0.38635 0.43502 0.0
H794 H 0.97622 0.35355 0.45499 0.0
C795 C 0.0152 0.32534 0.37967 0.0
C796 C -0.0057 0.3288 0.37381 0.0
C797 C 0.01746 0.3347 0.39796 0.0
C798 C 0.98748 0.36253 0.44927 0.0
H799 H 0.03058 0.4339 0.481 0.0
H800 H 0.03457 0.40183 0.46457 0.0
H801 H 0.97679 0.37846 0.47985 0.0
H802 H 0.95939 0.34349 0.38355 0.0
H803 H 0.96332 0.36 0.41534 0.0
H804 H 0.02629 0.37087 0.4042 0.0
C805 C 0.01832 0.41185 0.47098 0.0
C806 C 0.98778 0.37683 0.46345 0.0
C807 C 0.01607 0.43016 0.48048 0.0
C808 C 0.9757 0.34077 0.38749 0.0
C809 C 0.97796 0.35002 0.40586 0.0
C810 C 0.01578 0.37197 0.42096 0.0
C811 C -0.00024 0.40691 0.46919 0.0
C812 C 0.00163 0.38936 0.45616 0.0
C813 C -0.00114 0.34759 0.41084 0.0
C814 C 0.00115 0.36031 0.42761 0.0
H815 H 0.96052 0.44855 0.49367 0.0
H816 H 0.96431 0.41718 0.4766 0.0
H817 H 0.0266 0.39595 0.42861 0.0
H818 H 0.02984 0.3163 0.36937 0.0
H819 H 0.03377 0.33238 0.40155 0.0
C820 C 0.669 0.28373 0.56638 0.0
C821 C 0.67567 0.26841 0.55086 0.0
C822 C 0.64966 0.28638 0.58207 0.0
C823 C 0.59795 0.27313 0.59437 0.0
H824 H 0.59886 0.28056 0.65872 0.0
C825 C 0.5361 0.2555 0.67392 0.0
C826 C 0.52814 0.2697 0.69074 0.0
C827 C 0.55242 0.25789 0.65543 0.0
C828 C 0.59821 0.27878 0.64073 0.0
H829 H 0.66686 0.24405 0.5396 0.0
H830 H 0.63367 0.24834 0.56707 0.0
H831 H 0.63047 0.28007 0.62922 0.0
H832 H 0.53083 0.29788 0.70094 0.0
H833 H 0.55941 0.30195 0.66871 0.0
H834 H 0.56592 0.27115 0.60623 0.0
C835 C 0.64306 0.25868 0.56688 0.0
C836 C 0.61635 0.27855 0.62375 0.0
C837 C 0.66228 0.25612 0.55114 0.0
C838 C 0.53653 0.28668 0.68827 0.0
C839 C 0.55303 0.28893 0.66991 0.0
C840 C 0.5799 0.27318 0.61142 0.0
C841 C 0.63653 0.27371 0.58273 0.0
C842 C 0.61659 0.27547 0.60038 0.0
C843 C 0.56134 0.2744 0.65344 0.0
C844 C 0.5799 0.27579 0.63487 0.0
H845 H 0.67882 0.29355 0.56662 0.0
H846 H 0.64502 0.29836 0.59371 0.0
H847 H 0.5973 0.27117 0.57647 0.0
H848 H 0.53003 0.24223 0.67527 0.0
H849 H 0.55858 0.24631 0.64317 0.0
C850 C 0.71003 0.95073 0.82659 0.0
C851 C 0.72779 0.95833 0.82293 0.0
C852 C 0.70906 0.93319 0.84472 0.0
C853 C 0.73131 0.89995 0.90101 0.0
H854 H 0.71468 0.85606 0.88319 0.0
C855 C 0.73905 0.815 0.96124 0.0
C856 C 0.72342 0.80569 0.96013 0.0
C857 C 0.73913 0.83466 0.94619 0.0
C858 C 0.71901 0.86827 0.88874 0.0
H859 H 0.75814 0.95372 0.83623 0.0
H860 H 0.75635 0.92321 0.86789 0.0
H861 H 0.71526 0.88835 0.85433 0.0
H862 H 0.69515 0.81 0.94319 0.0
H863 H 0.69463 0.84441 0.91786 0.0
H864 H 0.73497 0.87978 0.93556 0.0
C865 C 0.74314 0.93087 0.85672 0.0
C866 C 0.71938 0.88685 0.87206 0.0
C867 C 0.74419 0.94835 0.83847 0.0
C868 C 0.70742 0.81678 0.94442 0.0
C869 C 0.70731 0.83644 0.92967 0.0
C870 C 0.73079 0.88135 0.91784 0.0
C871 C 0.72576 0.92278 0.85982 0.0
C872 C 0.72543 0.90303 0.87794 0.0
C873 C 0.72351 0.84542 0.92977 0.0
C874 C 0.72447 0.86527 0.912 0.0
H875 H 0.69707 0.95797 0.81507 0.0
H876 H 0.69524 0.92765 0.84679 0.0
H877 H 0.73596 0.91212 0.90621 0.0
H878 H 0.75192 0.8065 0.97273 0.0
H879 H 0.752 0.84089 0.9467 0.0
C880 C 0.17005 0.28266 0.06678 0.0
C881 C 0.17655 0.26819 0.0503 0.0
C882 C 0.15099 0.28446 0.08283 0.0
C883 C 0.11617 0.25213 0.11274 0.0
H884 H 0.07397 0.30682 0.12859 0.0
C885 C 0.03762 0.25359 0.1757 0.0
C886 C 0.03059 0.26776 0.19249 0.0
C887 C 0.05397 0.25533 0.15701 0.0
C888 C 0.08571 0.29138 0.12458 0.0
H889 H 0.16736 0.24498 0.03723 0.0
H890 H 0.13444 0.24816 0.06504 0.0
H891 H 0.10538 0.30703 0.09869 0.0
H892 H 0.03488 0.29527 0.2024 0.0
H893 H 0.06375 0.29798 0.17018 0.0
H894 H 0.09711 0.23634 0.13885 0.0
C895 C 0.14419 0.2579 0.06579 0.0
C896 C 0.10369 0.29153 0.1074 0.0
C897 C 0.16308 0.2562 0.04972 0.0
C898 C 0.03983 0.28415 0.18971 0.0
C899 C 0.05637 0.28575 0.17113 0.0
C900 C 0.09838 0.25196 0.12999 0.0
C901 C 0.13812 0.27172 0.08284 0.0
C902 C 0.11905 0.27189 0.10119 0.0
C903 C 0.06395 0.2711 0.15476 0.0
C904 C 0.0828 0.27156 0.1361 0.0
H905 H 0.17998 0.29216 0.06775 0.0
H906 H 0.14677 0.29521 0.09581 0.0
H907 H 0.12794 0.23668 0.10872 0.0
H908 H 0.03073 0.24089 0.17717 0.0
H909 H 0.05894 0.24409 0.14445 0.0
C910 C 0.74522 0.44708 0.3392 0.0
C911 C 0.7284 0.45838 0.32438 0.0
C912 C 0.74365 0.42964 0.35727 0.0
C913 C 0.71644 0.38821 0.37324 0.0
H914 H 0.73583 0.37801 0.43547 0.0
C915 C 0.7045 0.31757 0.44523 0.0
C916 C 0.72126 0.30551 0.45979 0.0
C917 C 0.70451 0.33732 0.43072 0.0
C918 C 0.73055 0.38045 0.4181 0.0
H919 H 0.69642 0.46042 0.3176 0.0
H920 H 0.69368 0.43017 0.34903 0.0
H921 H 0.73748 0.41033 0.40654 0.0
H922 H 0.75141 0.30456 0.47031 0.0
H923 H 0.75163 0.33907 0.44489 0.0
H924 H 0.70997 0.35827 0.38431 0.0
C925 C 0.70822 0.43464 0.34653 0.0
C926 C 0.73146 0.39905 0.4015 0.0
C927 C 0.70972 0.45214 0.32858 0.0
C928 C 0.73787 0.31387 0.45991 0.0
C929 C 0.73804 0.33361 0.44515 0.0
C930 C 0.71566 0.36961 0.3897 0.0
C931 C 0.7253 0.42291 0.36091 0.0
C932 C 0.7243 0.40324 0.37886 0.0
C933 C 0.72157 0.34543 0.42994 0.0
C934 C 0.72256 0.36545 0.41248 0.0
H935 H 0.75988 0.45138 0.33653 0.0
H936 H 0.75719 0.42095 0.36785 0.0
H937 H 0.71125 0.39057 0.35583 0.0
H938 H 0.69152 0.31148 0.44471 0.0
H939 H 0.69123 0.34608 0.41981 0.0
C940 C 0.5289 0.02068 0.55615 0.0
C941 C 0.53086 0.0026 0.54628 0.0
C942 C 0.54753 0.02405 0.56002 0.0
C943 C 0.60278 0.99295 0.5744 0.0
H944 H 0.60605 0.05045 0.56995 0.0
C945 C 0.66262 0.00419 0.62603 0.0
C946 C 0.65234 0.02044 0.64035 0.0
C947 C 0.65261 0.0036 0.607 0.0
C948 C 0.60545 0.03427 0.5712 0.0
H949 H 0.55363 0.97431 0.5318 0.0
H950 H 0.58646 0.97982 0.53927 0.0
H951 H 0.57885 0.04616 0.54976 0.0
H952 H 0.62459 0.04993 0.64462 0.0
H953 H 0.60687 0.04865 0.61193 0.0
H954 H 0.62839 0.98117 0.59692 0.0
C955 C 0.57048 0.99141 0.54391 0.0
C956 C 0.58991 0.03182 0.55963 0.0
C957 C 0.55177 0.98825 0.53967 0.0
C958 C 0.63271 0.03699 0.63415 0.0
C959 C 0.6227 0.0364 0.61518 0.0
C960 C 0.61826 0.99541 0.58601 0.0
C961 C 0.56852 0.00923 0.55439 0.0
C962 C 0.58785 0.01125 0.56194 0.0
C963 C 0.63213 0.01925 0.60193 0.0
C964 C 0.61919 0.01621 0.58534 0.0
H965 H 0.51294 0.03219 0.56106 0.0
H966 H 0.54543 0.03777 0.56839 0.0
H967 H 0.60149 0.97693 0.57669 0.0
H968 H 0.67774 0.99117 0.63036 0.0
H969 H 0.66045 0.99035 0.59692 0.0
C970 C 0.02564 0.9256 0.98485 0.0
C971 C 0.00499 0.93864 0.99415 0.0
C972 C 0.02772 0.90761 0.97485 0.0
C973 C -0.00283 0.87273 0.96666 0.0
H974 H 0.03382 0.86988 0.90605 0.0
C975 C 0.98511 0.83687 0.89 0.0
C976 C 0.00378 0.82619 0.87544 0.0
C977 C 0.98712 0.84622 0.90845 0.0
C978 C 0.02381 0.87011 0.92314 0.0
H979 H 0.97049 0.94235 1.00123 0.0
H980 H 0.97395 0.91173 0.98306 0.0
H981 H 0.03439 0.89395 0.93152 0.0
H982 H 0.03928 0.81544 0.87002 0.0
H983 H 0.04279 0.83176 0.90218 0.0
H984 H 0.98592 0.84949 0.95755 0.0
C985 C 0.98868 0.91489 0.98406 0.0
C986 C 0.02418 0.88392 0.93783 0.0
C987 C 0.98667 0.93261 0.99438 0.0
C988 C 0.02456 0.82396 0.88062 0.0
C989 C 0.02657 0.83329 0.89903 0.0
C990 C -0.00329 0.85898 0.95185 0.0
C991 C 0.00913 0.90247 0.97364 0.0
C992 C 0.0106 0.88571 0.9596 0.0
C993 C 0.00785 0.84507 0.91272 0.0
C994 C 0.00979 0.85779 0.92975 0.0
H995 H 0.04012 0.92969 0.98459 0.0
H996 H 0.0438 0.89814 0.96741 0.0
H997 H 0.98672 0.87345 0.98347 0.0
H998 H 0.96886 0.839 0.88636 0.0
H999 H 0.97237 0.85535 0.91853 0.0
C1000 C 0.04961 0.09812 0.99983 0.0
C1001 C 0.05585 0.0924 0.97693 0.0
C1002 C 0.05071 0.11745 1.00401 0.0
C1003 C 0.05925 0.16945 0.97389 0.0
H1004 H 0.09507 0.15742 0.02476 0.0
C1005 C 0.12788 0.20256 0.96655 0.0
C1006 C 0.1356 0.20345 0.98719 0.0
C1007 C 0.10933 0.1968 0.96833 0.0
C1008 C 0.08448 0.16151 0.01091 0.0
H1009 H 0.06777 0.10272 0.94038 0.0
H1010 H 0.06996 0.13621 0.9477 0.0
H1011 H 0.07811 0.13159 0.02237 0.0
H1012 H 0.12875 0.2016 0.02554 0.0
H1013 H 0.09604 0.19183 0.02869 0.0
H1014 H 0.06677 0.19884 0.96167 0.0
C1015 C 0.06369 0.12604 0.96233 0.0
C1016 C 0.07476 0.14659 1.00952 0.0
C1017 C 0.06257 0.10675 0.95816 0.0
C1018 C 0.12331 0.20056 1.00941 0.0
C1019 C 0.10462 0.195 0.0112 0.0
C1020 C 0.0689 0.18446 0.97534 0.0
C1021 C 0.05815 0.13141 0.98537 0.0
C1022 C 0.06306 0.14984 0.99027 0.0
C1023 C 0.09809 0.19196 0.9908 0.0
C1024 C 0.08263 0.18003 0.99312 0.0
H1025 H 0.04397 0.08761 0.01461 0.0
H1026 H 0.04622 0.12125 0.02191 0.0
H1027 H 0.04989 0.17255 0.95914 0.0
H1028 H 0.13711 0.20469 0.9492 0.0
H1029 H 0.10496 0.1944 0.95226 0.0
C1030 C 0.69619 0.57848 0.27515 0.0
C1031 C 0.69652 0.55686 0.27937 0.0
C1032 C 0.67638 0.59591 0.27509 0.0
C1033 C 0.61726 0.61191 0.29554 0.0
H1034 H 0.61493 0.66226 0.24616 0.0
C1035 C 0.53963 0.6912 0.28431 0.0
C1036 C 0.54391 0.71093 0.27916 0.0
C1037 C 0.55698 0.67115 0.28438 0.0
C1038 C 0.61531 0.64842 0.26019 0.0
H1039 H 0.67626 0.53651 0.2872 0.0
H1040 H 0.6413 0.56724 0.2872 0.0
H1041 H 0.64729 0.62955 0.24621 0.0
H1042 H 0.56965 0.72508 0.27054 0.0
H1043 H 0.59962 0.69045 0.27089 0.0
H1044 H 0.58524 0.63113 0.30967 0.0
C1045 C 0.65651 0.57059 0.28401 0.0
C1046 C 0.63389 0.62963 0.26021 0.0
C1047 C 0.67649 0.55302 0.28397 0.0
C1048 C 0.56578 0.71019 0.27448 0.0
C1049 C 0.58299 0.6903 0.2745 0.0
C1050 C 0.59856 0.63084 0.29554 0.0
C1051 C 0.65626 0.59227 0.27924 0.0
C1052 C 0.63537 0.6113 0.27818 0.0
C1053 C 0.57888 0.6705 0.27915 0.0
C1054 C 0.5976 0.64952 0.27816 0.0
H1055 H 0.71132 0.58201 0.27163 0.0
H1056 H 0.67684 0.61233 0.27181 0.0
H1057 H 0.61789 0.59809 0.30966 0.0
H1058 H 0.52292 0.69128 0.28791 0.0
H1059 H 0.55323 0.65621 0.28796 0.0
C1060 C 0.34474 0.82496 0.51202 0.0
C1061 C 0.3404 0.80845 0.52961 0.0
C1062 C 0.36272 0.83101 0.51242 0.0
C1063 C 0.39339 0.83253 0.55784 0.0
H1064 H 0.41776 0.86592 0.50392 0.0
C1065 C 0.43526 0.9043 0.53442 0.0
C1066 C 0.4206 0.91786 0.5501 0.0
C1067 C 0.43271 0.88492 0.53256 0.0
C1068 C 0.41158 0.85628 0.51922 0.0
H1069 H 0.35254 0.78364 0.55976 0.0
H1070 H 0.38441 0.79379 0.56015 0.0
H1071 H 0.40212 0.84028 0.49704 0.0
H1072 H 0.3922 0.92161 0.57654 0.0
H1073 H 0.38745 0.88805 0.57308 0.0
H1074 H 0.40247 0.8488 0.57997 0.0
C1075 C 0.37358 0.80255 0.54649 0.0
C1076 C 0.4024 0.84175 0.51525 0.0
C1077 C 0.3554 0.79672 0.54628 0.0
C1078 C 0.40381 0.91137 0.56445 0.0
C1079 C 0.40121 0.89206 0.56255 0.0
C1080 C 0.40278 0.84685 0.5618 0.0
C1081 C 0.37682 0.82049 0.53031 0.0
C1082 C 0.39208 0.83066 0.53445 0.0
C1083 C 0.41545 0.87877 0.54636 0.0
C1084 C 0.41082 0.85978 0.54249 0.0
H1085 H 0.33335 0.83427 0.49902 0.0
H1086 H 0.36447 0.84505 0.49983 0.0
H1087 H 0.38561 0.82433 0.57313 0.0
H1088 H 0.44864 0.90874 0.52351 0.0
H1089 H 0.44407 0.87492 0.52011 0.0
C1090 C 0.06562 0.70685 0.77769 0.0
C1091 C 0.04385 0.70787 0.77882 0.0
C1092 C 0.08264 0.68678 0.78034 0.0
C1093 C 0.09876 0.62922 0.77436 0.0
H1094 H 0.14518 0.62238 0.81105 0.0
C1095 C 0.17625 0.55043 0.78461 0.0
C1096 C 0.19623 0.55415 0.78191 0.0
C1097 C 0.15625 0.56774 0.7865 0.0
C1098 C 0.13244 0.62403 0.80062 0.0
H1099 H 0.02282 0.6886 0.78336 0.0
H1100 H 0.0528 0.65322 0.78787 0.0
H1101 H 0.11272 0.65511 0.81022 0.0
H1102 H 0.21094 0.57882 0.77914 0.0
H1103 H 0.17635 0.60879 0.7824 0.0
H1104 H 0.11885 0.59825 0.76434 0.0
C1105 C 0.05661 0.66808 0.78498 0.0
C1106 C 0.11379 0.64281 0.80017 0.0
C1107 C 0.03945 0.68829 0.78253 0.0
C1108 C 0.19583 0.57539 0.78137 0.0
C1109 C 0.17595 0.59258 0.78337 0.0
C1110 C 0.11752 0.61036 0.77477 0.0
C1111 C 0.07841 0.66712 0.78406 0.0
C1112 C 0.09695 0.64591 0.78659 0.0
C1113 C 0.15587 0.58905 0.78592 0.0
C1114 C 0.13483 0.60779 0.78746 0.0
H1115 H 0.0696 0.72163 0.7747 0.0
H1116 H 0.09924 0.6867 0.77908 0.0
H1117 H 0.08613 0.63114 0.76363 0.0
H1118 H 0.17609 0.53422 0.78498 0.0
H1119 H 0.1411 0.56442 0.78855 0.0
C1120 C 0.84963 0.31837 0.50607 0.0
C1121 C 0.84516 0.30209 0.5239 0.0
C1122 C 0.86772 0.3243 0.50625 0.0
C1123 C 0.89779 0.32633 0.55191 0.0
H1124 H 0.92012 0.36166 0.49828 0.0
C1125 C 0.93245 0.40328 0.52915 0.0
C1126 C 0.91674 0.41602 0.54491 0.0
C1127 C 0.93194 0.38306 0.52712 0.0
C1128 C 0.91455 0.35148 0.5135 0.0
H1129 H 0.85728 0.27738 0.55412 0.0
H1130 H 0.88939 0.28728 0.55411 0.0
H1131 H 0.9066 0.33454 0.49112 0.0
H1132 H 0.88855 0.41748 0.57125 0.0
H1133 H 0.8873 0.38248 0.56748 0.0
H1134 H 0.90532 0.34355 0.57425 0.0
C1135 C 0.87856 0.296 0.54045 0.0
C1136 C 0.90658 0.33608 0.50937 0.0
C1137 C 0.86023 0.2903 0.54047 0.0
C1138 C 0.90093 0.40792 0.5591 0.0
C1139 C 0.90036 0.38777 0.55704 0.0
C1140 C 0.90602 0.34148 0.55603 0.0
C1141 C 0.88182 0.31388 0.52417 0.0
C1142 C 0.89676 0.32439 0.52846 0.0
C1143 C 0.9157 0.37522 0.54084 0.0
C1144 C 0.91312 0.3552 0.53683 0.0
H1145 H 0.8382 0.32772 0.49312 0.0
H1146 H 0.86947 0.33829 0.49356 0.0
H1147 H 0.89045 0.31764 0.56714 0.0
H1148 H 0.94512 0.40899 0.51837 0.0
H1149 H 0.94407 0.3737 0.51464 0.0
C1150 C 0.28407 0.93168 0.24118 0.0
C1151 C 0.28383 0.95296 0.24003 0.0
C1152 C 0.30383 0.91442 0.23884 0.0
C1153 C 0.36272 0.89639 0.24526 0.0
H1154 H 0.36567 0.85143 0.21109 0.0
C1155 C 0.43995 0.81799 0.23646 0.0
C1156 C 0.4354 0.79845 0.24075 0.0
C1157 C 0.42286 0.83825 0.23417 0.0
C1158 C 0.36512 0.86378 0.22079 0.0
H1159 H 0.30422 0.97287 0.23552 0.0
H1160 H 0.33906 0.94251 0.2314 0.0
H1161 H 0.33349 0.8844 0.21075 0.0
H1162 H 0.40947 0.7848 0.24599 0.0
H1163 H 0.37989 0.81984 0.24187 0.0
H1164 H 0.39435 0.87543 0.25556 0.0
C1165 C 0.32383 0.93923 0.23419 0.0
C1166 C 0.34663 0.88271 0.22061 0.0
C1167 C 0.30391 0.95663 0.23642 0.0
C1168 C 0.41354 0.79955 0.24254 0.0
C1169 C 0.39657 0.81968 0.24005 0.0
C1170 C 0.38131 0.87739 0.2454 0.0
C1171 C 0.324 0.91789 0.23532 0.0
C1172 C 0.34491 0.89904 0.23333 0.0
C1173 C 0.40095 0.83932 0.23585 0.0
C1174 C 0.38248 0.86061 0.23364 0.0
H1175 H 0.26891 0.92825 0.24411 0.0
H1176 H 0.30327 0.8982 0.24028 0.0
H1177 H 0.36191 0.90857 0.25534 0.0
H1178 H 0.45666 0.81762 0.23511 0.0
H1179 H 0.4268 0.85306 0.23087 0.0
C1180 C 0.29914 0.45503 0.73256 0.0
C1181 C 0.27914 0.45137 0.73511 0.0
C1182 C 0.31912 0.43773 0.73052 0.0
C1183 C 0.34289 0.38177 0.71557 0.0
H1184 H 0.3893 0.37427 0.75258 0.0
C1185 C 0.41075 0.2991 0.73624 0.0
C1186 C 0.43238 0.2984 0.73543 0.0
C1187 C 0.39348 0.31901 0.73408 0.0
C1188 C 0.37664 0.37629 0.74185 0.0
H1189 H 0.26436 0.42683 0.73751 0.0
H1190 H 0.29894 0.39684 0.73397 0.0
H1191 H 0.35647 0.40698 0.75248 0.0
H1192 H 0.4529 0.31803 0.7319 0.0
H1193 H 0.42251 0.3531 0.72817 0.0
H1194 H 0.36274 0.351 0.70528 0.0
C1195 C 0.29936 0.41301 0.73323 0.0
C1196 C 0.35781 0.39505 0.74178 0.0
C1197 C 0.2795 0.4302 0.73539 0.0
C1198 C 0.43639 0.31811 0.73248 0.0
C1199 C 0.41899 0.33814 0.73048 0.0
C1200 C 0.36162 0.36309 0.71565 0.0
C1201 C 0.31945 0.41649 0.7308 0.0
C1202 C 0.34048 0.39778 0.72905 0.0
C1203 C 0.39732 0.33881 0.73115 0.0
C1204 C 0.37854 0.35985 0.7292 0.0
H1205 H 0.29934 0.47119 0.73242 0.0
H1206 H 0.33428 0.44101 0.72856 0.0
H1207 H 0.33012 0.38355 0.70511 0.0
H1208 H 0.4071 0.2842 0.73866 0.0
H1209 H 0.377 0.31885 0.73513 0.0
C1210 C 0.1684 0.78263 0.56937 0.0
C1211 C 0.17522 0.76823 0.55279 0.0
C1212 C 0.14923 0.78428 0.58516 0.0
C1213 C 0.11393 0.75212 0.61411 0.0
H1214 H 0.07237 0.807 0.63025 0.0
C1215 C 0.03531 0.75442 0.67737 0.0
C1216 C 0.0289 0.76826 0.69445 0.0
C1217 C 0.05151 0.75611 0.65848 0.0
C1218 C 0.08392 0.79151 0.62614 0.0
H1219 H 0.16661 0.74481 0.53942 0.0
H1220 H 0.13342 0.74774 0.56681 0.0
H1221 H 0.1039 0.80692 0.6005 0.0
H1222 H 0.03404 0.79521 0.70462 0.0
H1223 H 0.06261 0.79786 0.67201 0.0
H1224 H 0.09449 0.73657 0.64 0.0
C1225 C 0.143 0.75758 0.56779 0.0
C1226 C 0.10198 0.79148 0.60904 0.0
C1227 C 0.16203 0.75602 0.55196 0.0
C1228 C 0.03851 0.78436 0.69171 0.0
C1229 C 0.05489 0.78592 0.67292 0.0
C1230 C 0.09602 0.75212 0.63127 0.0
C1231 C 0.13654 0.77147 0.58483 0.0
C1232 C 0.11716 0.77178 0.6028 0.0
C1233 C 0.06192 0.77152 0.6563 0.0
C1234 C 0.08072 0.7718 0.63752 0.0
H1235 H 0.1781 0.79229 0.57054 0.0
H1236 H 0.14476 0.79504 0.59817 0.0
H1237 H 0.12554 0.73662 0.61007 0.0
H1238 H 0.02812 0.74196 0.6788 0.0
H1239 H 0.05607 0.74509 0.64574 0.0
C1240 C 0.24668 0.94941 0.34193 0.0
C1241 C 0.23045 0.95926 0.32621 0.0
C1242 C 0.24535 0.93225 0.36046 0.0
C1243 C 0.20695 0.9037 0.39485 0.0
H1244 H 0.26072 0.85573 0.40836 0.0
C1245 C 0.20814 0.81837 0.44525 0.0
C1246 C 0.22371 0.80666 0.46133 0.0
C1247 C 0.20833 0.83835 0.43144 0.0
C1248 C 0.24557 0.86911 0.40511 0.0
H1249 H 0.19989 0.95882 0.31805 0.0
H1250 H 0.19774 0.92876 0.34996 0.0
H1251 H 0.26217 0.88775 0.37914 0.0
H1252 H 0.25209 0.80645 0.47511 0.0
H1253 H 0.2524 0.84161 0.45113 0.0
H1254 H 0.19034 0.8847 0.42038 0.0
C1255 C 0.21136 0.93451 0.34832 0.0
C1256 C 0.24638 0.88757 0.38829 0.0
C1257 C 0.21262 0.95177 0.32987 0.0
C1258 C 0.23945 0.81546 0.46347 0.0
C1259 C 0.23983 0.83542 0.4494 0.0
C1260 C 0.20614 0.88519 0.41154 0.0
C1261 C 0.22783 0.9243 0.36376 0.0
C1262 C 0.22705 0.90508 0.38269 0.0
C1263 C 0.22436 0.84704 0.43303 0.0
C1264 C 0.22541 0.86752 0.41672 0.0
H1265 H 0.26061 0.95478 0.33978 0.0
H1266 H 0.25816 0.92518 0.37217 0.0
H1267 H 0.19174 0.91695 0.3915 0.0
H1268 H 0.19598 0.81184 0.44299 0.0
H1269 H 0.19638 0.84658 0.41882 0.0
C1270 C -0.00063 0.65773 0.63836 0.0
C1271 C 0.98371 0.67775 0.64308 0.0
C1272 C -0.00226 0.64825 0.61986 0.0
C1273 C -0.00451 0.63438 0.5743 0.0
H1274 H 0.93723 0.63504 0.5705 0.0
C1275 C 0.98295 0.582 0.51556 0.0
C1276 C 0.96927 0.5699 0.52661 0.0
C1277 C 0.98282 0.59947 0.52518 0.0
C1278 C 0.95361 0.6347 0.57131 0.0
H1279 H 0.95478 0.70413 0.63117 0.0
H1280 H 0.952 0.68764 0.59872 0.0
H1281 H 0.94198 0.65715 0.59593 0.0
H1282 H 0.94418 0.56713 0.55586 0.0
H1283 H 0.94463 0.59692 0.57318 0.0
H1284 H 0.00727 0.61092 0.55084 0.0
C1285 C 0.96531 0.67907 0.60964 0.0
C1286 C 0.95632 0.64761 0.58567 0.0
C1287 C 0.96691 0.68852 0.62821 0.0
C1288 C 0.95482 0.57621 0.54685 0.0
C1289 C 0.95502 0.5934 0.55673 0.0
C1290 C -0.0072 0.6214 0.56002 0.0
C1291 C 0.98044 0.65859 0.60557 0.0
C1292 C 0.97736 0.64719 0.58782 0.0
C1293 C 0.96945 0.60488 0.54637 0.0
C1294 C 0.97187 0.62098 0.55882 0.0
H1295 H 0.01234 0.64886 0.64966 0.0
H1296 H 0.0095 0.63232 0.61751 0.0
H1297 H 0.01189 0.63393 0.57523 0.0
H1298 H -0.00588 0.57767 0.49977 0.0
H1299 H -0.00645 0.60847 0.51633 0.0
C1300 C 0.30579 0.73237 0.44642 0.0
C1301 C 0.30273 0.7395 0.46832 0.0
C1302 C 0.32511 0.73071 0.43101 0.0
C1303 C 0.37246 0.75073 0.4187 0.0
H1304 H 0.39371 0.70975 0.37435 0.0
C1305 C 0.43374 0.76123 0.33619 0.0
C1306 C 0.44852 0.74279 0.32692 0.0
C1307 C 0.41773 0.7592 0.35515 0.0
C1308 C 0.38831 0.7211 0.38682 0.0
H1309 H 0.31804 0.7496 0.49162 0.0
H1310 H 0.35207 0.74578 0.46533 0.0
H1311 H 0.36344 0.70801 0.40474 0.0
H1312 H 0.45852 0.7076 0.33089 0.0
H1313 H 0.43115 0.70389 0.36464 0.0
H1314 H 0.39785 0.76327 0.40143 0.0
C1315 C 0.33928 0.74218 0.45957 0.0
C1316 C 0.37059 0.72035 0.40408 0.0
C1317 C 0.31978 0.7442 0.47481 0.0
C1318 C 0.44731 0.72215 0.33754 0.0
C1319 C 0.43146 0.72007 0.35679 0.0
C1320 C 0.39038 0.75126 0.4017 0.0
C1321 C 0.34209 0.7358 0.43722 0.0
C1322 C 0.36212 0.73541 0.42002 0.0
C1323 C 0.41622 0.73861 0.36568 0.0
C1324 C 0.39832 0.73675 0.38517 0.0
H1325 H 0.29291 0.72883 0.44073 0.0
H1326 H 0.32635 0.72613 0.41385 0.0
H1327 H 0.3664 0.7628 0.43036 0.0
H1328 H 0.43404 0.77742 0.3283 0.0
H1329 H 0.40612 0.77395 0.36101 0.0
C1330 C 0.27039 0.05804 0.19453 0.0
C1331 C 0.25181 0.05163 0.1988 0.0
C1332 C 0.27198 0.07523 0.17617 0.0
C1333 C 0.2493 0.10901 0.12019 0.0
H1334 H 0.27089 0.15075 0.1351 0.0
C1335 C 0.24295 0.19263 0.05857 0.0
C1336 C 0.25961 0.20117 0.05779 0.0
C1337 C 0.24281 0.17329 0.0742 0.0
C1338 C 0.26517 0.13912 0.13036 0.0
H1339 H 0.22053 0.05811 0.18648 0.0
H1340 H 0.22334 0.08802 0.15449 0.0
H1341 H 0.26932 0.11925 0.16487 0.0
H1342 H 0.28933 0.19606 0.07243 0.0
H1343 H 0.28964 0.16211 0.09896 0.0
H1344 H 0.24517 0.12895 0.08561 0.0
C1345 C 0.23676 0.07967 0.1653 0.0
C1346 C 0.26422 0.12099 0.14756 0.0
C1347 C 0.23511 0.06254 0.18376 0.0
C1348 C 0.27637 0.18976 0.07252 0.0
C1349 C 0.27637 0.17039 0.08795 0.0
C1350 C 0.25036 0.12714 0.10288 0.0
C1351 C 0.25508 0.08648 0.16145 0.0
C1352 C 0.25629 0.10565 0.14277 0.0
C1353 C 0.25933 0.16208 0.08947 0.0
C1354 C 0.25835 0.14248 0.10769 0.0
H1355 H 0.28361 0.05005 0.20566 0.0
H1356 H 0.28649 0.07976 0.17356 0.0
H1357 H 0.24328 0.09745 0.11576 0.0
H1358 H 0.22933 0.20155 0.04821 0.0
H1359 H 0.2292 0.16772 0.07505 0.0
C1360 C 0.81644 0.75115 0.96925 0.0
C1361 C 0.80288 0.73943 0.96808 0.0
C1362 C 0.83551 0.74945 0.95344 0.0
C1363 C 0.87594 0.71583 0.91157 0.0
H1364 H 0.88415 0.77059 0.88139 0.0
C1365 C 0.93937 0.72292 0.8289 0.0
C1366 C 0.94928 0.73876 0.82632 0.0
C1367 C 0.92298 0.72143 0.84769 0.0
C1368 C 0.88242 0.75507 0.88991 0.0
H1369 H 0.79939 0.71603 0.94978 0.0
H1370 H 0.83281 0.71301 0.92222 0.0
H1371 H 0.85314 0.77062 0.9114 0.0
H1372 H 0.95054 0.7647 0.84223 0.0
H1373 H 0.92256 0.76167 0.87532 0.0
H1374 H 0.90532 0.70026 0.89009 0.0
C1375 C 0.82859 0.72352 0.93546 0.0
C1376 C 0.86453 0.75512 0.9071 0.0
C1377 C 0.80938 0.72532 0.95122 0.0
C1378 C 0.94311 0.75243 0.84355 0.0
C1379 C 0.9269 0.7508 0.86245 0.0
C1380 C 0.89399 0.71575 0.89445 0.0
C1381 C 0.84164 0.73589 0.9361 0.0
C1382 C 0.86103 0.73552 0.91812 0.0
C1383 C 0.91622 0.73564 0.86449 0.0
C1384 C 0.89745 0.7354 0.88333 0.0
H1385 H 0.81212 0.76211 0.98202 0.0
H1386 H 0.84537 0.75894 0.95466 0.0
H1387 H 0.8738 0.70044 0.91989 0.0
H1388 H 0.94363 0.71221 0.81587 0.0
H1389 H 0.91504 0.70969 0.84847 0.0
C1390 C 0.26623 0.55602 0.69108 0.0
C1391 C 0.24771 0.54954 0.69515 0.0
C1392 C 0.26765 0.57351 0.67309 0.0
C1393 C 0.24537 0.60812 0.61749 0.0
H1394 H 0.26433 0.65038 0.63539 0.0
C1395 C 0.23946 0.69275 0.55769 0.0
C1396 C 0.25517 0.70185 0.55906 0.0
C1397 C 0.23919 0.67306 0.57254 0.0
C1398 C 0.25939 0.63862 0.62978 0.0
H1399 H 0.21644 0.5561 0.68277 0.0
H1400 H 0.21906 0.58647 0.65126 0.0
H1401 H 0.26305 0.61819 0.66402 0.0
H1402 H 0.28351 0.69708 0.57612 0.0
H1403 H 0.28382 0.66253 0.60099 0.0
H1404 H 0.2419 0.62853 0.58309 0.0
C1405 C 0.23249 0.57799 0.66203 0.0
C1406 C 0.25858 0.6201 0.64635 0.0
C1407 C 0.23096 0.56061 0.6802 0.0
C1408 C 0.27116 0.69046 0.57471 0.0
C1409 C 0.27113 0.67073 0.58922 0.0
C1410 C 0.24639 0.62661 0.60074 0.0
C1411 C 0.25069 0.58494 0.65851 0.0
C1412 C 0.25162 0.60455 0.64047 0.0
C1413 C 0.25476 0.662 0.58897 0.0
C1414 C 0.25352 0.64213 0.6066 0.0
H1415 H 0.27946 0.54793 0.70218 0.0
H1416 H 0.28204 0.57821 0.6707 0.0
H1417 H 0.24003 0.59641 0.6123 0.0
H1418 H 0.22668 0.70147 0.54619 0.0
H1419 H 0.22618 0.66708 0.57186 0.0
C1420 C 0.34755 0.97021 0.38625 0.0
C1421 C 0.32794 0.98692 0.3803 0.0
C1422 C 0.358 0.97075 0.40487 0.0
C1423 C 0.36358 0.01189 0.43291 0.0
H1424 H 0.4044 0.96114 0.46756 0.0
C1425 C 0.43233 0.01856 0.47619 0.0
C1426 C 0.45304 0.00443 0.46858 0.0
C1427 C 0.41333 0.01552 0.47266 0.0
C1428 C 0.39293 0.97548 0.45815 0.0
H1429 H 0.30293 0.01632 0.3905 0.0
H1430 H 0.32096 0.017 0.4234 0.0
H1431 H 0.37612 0.95682 0.44914 0.0
H1432 H 0.47034 0.97554 0.45237 0.0
H1433 H 0.43732 0.97021 0.44622 0.0
H1434 H 0.38096 0.0304 0.44103 0.0
C1435 C 0.32848 0.00371 0.41334 0.0
C1436 C 0.37678 0.97301 0.44758 0.0
C1437 C 0.31804 0.0032 0.39464 0.0
C1438 C 0.45453 0.98684 0.45811 0.0
C1439 C 0.43563 0.98361 0.45492 0.0
C1440 C 0.37964 0.01436 0.44358 0.0
C1441 C 0.34902 0.98798 0.41803 0.0
C1442 C 0.36254 0.99106 0.43395 0.0
C1443 C 0.41483 0.99808 0.46183 0.0
C1444 C 0.39505 0.99606 0.4554 0.0
H1445 H 0.35537 0.95725 0.37578 0.0
H1446 H 0.37385 0.95843 0.40782 0.0
H1447 H 0.35307 0.02614 0.42237 0.0
H1448 H 0.43083 0.03213 0.4845 0.0
H1449 H 0.39749 0.02687 0.4782 0.0
C1450 C 0.84628 0.8238 1.00741 0.0
C1451 C 0.84182 0.8074 0.02507 0.0
C1452 C 0.86464 0.82936 1.00746 0.0
C1453 C 0.89564 0.83025 0.05269 0.0
H1454 H 0.91951 0.86422 0.99894 0.0
C1455 C 0.9352 0.90366 0.02987 0.0
C1456 C 0.91981 0.91721 0.04511 0.0
C1457 C 0.93344 0.88392 0.02799 0.0
C1458 C 0.91349 0.8544 0.01417 0.0
H1459 H 0.85416 0.78215 0.05481 0.0
H1460 H 0.88664 0.7915 0.05462 0.0
H1461 H 0.90435 0.83825 0.99189 0.0
H1462 H 0.89089 0.92056 0.07077 0.0
H1463 H 0.88758 0.88632 0.06736 0.0
H1464 H 0.9042 0.84684 0.07492 0.0
C1465 C 0.87564 0.80054 0.04118 0.0
C1466 C 0.9046 0.83967 1.01011 0.0
C1467 C 0.8571 0.79518 0.04131 0.0
C1468 C 0.90307 0.91035 0.05903 0.0
C1469 C 0.90129 0.89066 0.05716 0.0
C1470 C 0.90469 0.8448 0.05674 0.0
C1471 C 0.87897 0.81847 0.02507 0.0
C1472 C 0.89438 0.82844 0.02926 0.0
C1473 C 0.91628 0.87737 0.0414 0.0
C1474 C 0.91247 0.85797 0.03748 0.0
H1475 H 0.8347 0.83346 0.99471 0.0
H1476 H 0.86648 0.8434 0.99491 0.0
H1477 H 0.88794 0.82193 0.06793 0.0
H1478 H 0.94856 0.90837 0.01935 0.0
H1479 H 0.94532 0.87394 0.01585 0.0
C1480 C 0.62307 0.19747 0.51314 0.0
C1481 C 0.63381 0.20209 0.49036 0.0
C1482 C 0.60496 0.19081 0.51576 0.0
C1483 C 0.56786 0.18041 0.48174 0.0
H1484 H 0.58304 0.12471 0.52432 0.0
C1485 C 0.56345 0.10381 0.45934 0.0
C1486 C 0.55902 0.08767 0.47748 0.0
C1487 C 0.56425 0.12272 0.46491 0.0
C1488 C 0.57804 0.14043 0.5128 0.0
H1489 H 0.63302 0.20526 0.45241 0.0
H1490 H 0.60183 0.19323 0.45689 0.0
H1491 H 0.59858 0.15147 0.52739 0.0
H1492 H 0.55096 0.07913 0.51563 0.0
H1493 H 0.55257 0.11216 0.52537 0.0
H1494 H 0.54848 0.16851 0.46609 0.0
C1495 C 0.60701 0.19505 0.47279 0.0
C1496 C 0.58694 0.15588 0.51459 0.0
C1497 C 0.62501 0.20183 0.47018 0.0
C1498 C 0.55488 0.09107 0.50129 0.0
C1499 C 0.55559 0.11006 0.50686 0.0
C1500 C 0.55896 0.1649 0.47993 0.0
C1501 C 0.59744 0.18848 0.49564 0.0
C1502 C 0.58289 0.17554 0.49824 0.0
C1503 C 0.56063 0.12592 0.48874 0.0
C1504 C 0.56494 0.14433 0.49461 0.0
H1505 H 0.62931 0.19801 0.52897 0.0
H1506 H 0.59766 0.18625 0.53357 0.0
H1507 H 0.56408 0.19561 0.46923 0.0
H1508 H 0.56698 0.10155 0.44086 0.0
H1509 H 0.5687 0.13438 0.45058 0.0
C1510 C 0.78259 0.43041 0.23991 0.0
C1511 C 0.78224 0.45171 0.23889 0.0
C1512 C 0.80243 0.41321 0.23766 0.0
C1513 C 0.8613 0.39541 0.24433 0.0
H1514 H 0.86483 0.35077 0.20938 0.0
C1515 C 0.93929 0.3178 0.23438 0.0
C1516 C 0.93505 0.29814 0.23808 0.0
C1517 C 0.92198 0.33793 0.23252 0.0
C1518 C 0.86412 0.36302 0.21932 0.0
H1519 H 0.80248 0.4717 0.23483 0.0
H1520 H 0.83743 0.44146 0.23083 0.0
H1521 H 0.83237 0.38345 0.20945 0.0
H1522 H 0.90942 0.28415 0.24279 0.0
H1523 H 0.8795 0.31893 0.23946 0.0
H1524 H 0.89306 0.37464 0.25444 0.0
C1525 C 0.82224 0.43812 0.23343 0.0
C1526 C 0.84547 0.38178 0.21937 0.0
C1527 C 0.80226 0.45545 0.23557 0.0
C1528 C 0.91327 0.299 0.23978 0.0
C1529 C 0.89609 0.31899 0.23774 0.0
C1530 C 0.88006 0.37656 0.24425 0.0
C1531 C 0.82255 0.41676 0.23437 0.0
C1532 C 0.84354 0.39801 0.23233 0.0
C1533 C 0.90016 0.33875 0.23406 0.0
C1534 C 0.88146 0.35989 0.23219 0.0
H1535 H 0.76747 0.42694 0.24264 0.0
H1536 H 0.80196 0.39697 0.23895 0.0
H1537 H 0.86035 0.4075 0.2546 0.0
H1538 H 0.95592 0.31762 0.23313 0.0
H1539 H 0.92569 0.35284 0.22962 0.0
C1540 C 0.07021 0.59927 0.46479 0.0
C1541 C 0.05559 0.59018 0.48012 0.0
C1542 C 0.07316 0.61756 0.46932 0.0
C1543 C 0.07093 0.66128 0.4765 0.0
H1544 H 0.08215 0.65819 0.54089 0.0
C1545 C 0.12116 0.70894 0.4905 0.0
C1546 C 0.13886 0.69563 0.50328 0.0
C1547 C 0.1027 0.70295 0.49254 0.0
C1548 C 0.07891 0.65942 0.52285 0.0
H1549 H 0.0323 0.59339 0.51203 0.0
H1550 H 0.03733 0.62553 0.51985 0.0
H1551 H 0.06582 0.63348 0.53305 0.0
H1552 H 0.15073 0.66673 0.52954 0.0
H1553 H 0.11915 0.6556 0.53237 0.0
H1554 H 0.08589 0.68561 0.46576 0.0
C1555 C 0.04662 0.61837 0.50443 0.0
C1556 C 0.06932 0.6454 0.51839 0.0
C1557 C 0.04377 0.59996 0.49995 0.0
C1558 C 0.13721 0.67721 0.51952 0.0
C1559 C 0.11897 0.67098 0.52125 0.0
C1560 C 0.08075 0.67506 0.48088 0.0
C1561 C 0.06146 0.62727 0.48923 0.0
C1562 C 0.06636 0.64543 0.49494 0.0
C1563 C 0.10193 0.68325 0.50695 0.0
C1564 C 0.08595 0.67346 0.50389 0.0
H1565 H 0.07984 0.5919 0.44962 0.0
H1566 H 0.08519 0.62363 0.45762 0.0
H1567 H 0.06823 0.66209 0.45835 0.0
H1568 H 0.12202 0.72347 0.47816 0.0
H1569 H 0.08964 0.71308 0.48176 0.0
C1570 C 0.67443 0.05272 0.78162 0.0
C1571 C 0.69424 0.05699 0.77672 0.0
C1572 C 0.65427 0.07002 0.781 0.0
C1573 C 0.631 0.12847 0.75506 0.0
H1574 H 0.58228 0.13071 0.80459 0.0
C1575 C 0.56282 0.20914 0.76838 0.0
C1576 C 0.54097 0.20984 0.77278 0.0
C1577 C 0.58004 0.18925 0.76853 0.0
C1578 C 0.59563 0.13018 0.79045 0.0
H1579 H 0.70847 0.08262 0.76788 0.0
H1580 H 0.67368 0.11247 0.76699 0.0
H1581 H 0.61516 0.09784 0.80551 0.0
H1582 H 0.51997 0.1902 0.7811 0.0
H1583 H 0.55031 0.15513 0.78152 0.0
H1584 H 0.61187 0.16077 0.74018 0.0
C1585 C 0.67353 0.09591 0.77093 0.0
C1586 C 0.61445 0.11136 0.79097 0.0
C1587 C 0.69351 0.07876 0.77162 0.0
C1588 C 0.53668 0.19012 0.7777 0.0
C1589 C 0.55403 0.17008 0.77799 0.0
C1590 C 0.61232 0.14717 0.75455 0.0
C1591 C 0.65364 0.09183 0.7753 0.0
C1592 C 0.63258 0.11054 0.77359 0.0
C1593 C 0.57592 0.16947 0.77313 0.0
C1594 C 0.59463 0.14851 0.77255 0.0
H1595 H 0.67453 0.03608 0.78561 0.0
H1596 H 0.63922 0.06634 0.78443 0.0
H1597 H 0.64443 0.12819 0.74105 0.0
H1598 H 0.56667 0.22403 0.76458 0.0
H1599 H 0.59668 0.18937 0.76514 0.0
C1600 C 0.7675 0.55796 0.19295 0.0
C1601 C 0.74983 0.55021 0.19669 0.0
C1602 C 0.76856 0.57524 0.17443 0.0
C1603 C 0.73317 0.62163 0.1341 0.0
H1604 H 0.78898 0.62509 0.10192 0.0
C1605 C 0.73928 0.69323 0.05777 0.0
C1606 C 0.75463 0.70256 0.05981 0.0
C1607 C 0.7392 0.6733 0.07216 0.0
C1608 C 0.77324 0.62443 0.11078 0.0
H1609 H 0.71975 0.55429 0.18323 0.0
H1610 H 0.72188 0.58387 0.15072 0.0
H1611 H 0.78797 0.59296 0.13122 0.0
H1612 H 0.78205 0.69828 0.07821 0.0
H1613 H 0.78218 0.66358 0.1029 0.0
H1614 H 0.7185 0.65317 0.1136 0.0
C1615 C 0.7347 0.57702 0.16241 0.0
C1616 C 0.77265 0.60599 0.12772 0.0
C1617 C 0.73356 0.55985 0.18101 0.0
C1618 C 0.77017 0.69136 0.07605 0.0
C1619 C 0.77028 0.67141 0.09016 0.0
C1620 C 0.73376 0.64001 0.11703 0.0
C1621 C 0.75206 0.58521 0.15899 0.0
C1622 C 0.75263 0.6044 0.13991 0.0
C1623 C 0.7546 0.66222 0.08872 0.0
C1624 C 0.75382 0.64181 0.10536 0.0
H1625 H 0.78026 0.55108 0.20473 0.0
H1626 H 0.78205 0.58118 0.17271 0.0
H1627 H 0.71743 0.6213 0.14327 0.0
H1628 H 0.72672 0.70179 0.04592 0.0
H1629 H 0.72691 0.6667 0.07053 0.0
C1630 C 0.92149 0.52483 0.47672 0.0
C1631 C 0.9423 0.51197 0.46763 0.0
C1632 C 0.90281 0.5208 0.47401 0.0
C1633 C 0.8683 0.51848 0.447 0.0
H1634 H 0.8688 0.45973 0.45024 0.0
C1635 C 0.83861 0.47439 0.38799 0.0
C1636 C 0.81826 0.49038 0.38332 0.0
C1637 C 0.84905 0.47455 0.40681 0.0
C1638 C 0.86832 0.47624 0.44941 0.0
H1639 H 0.96014 0.48449 0.4493 0.0
H1640 H 0.92764 0.47751 0.44444 0.0
H1641 H 0.89701 0.46534 0.46749 0.0
H1642 H 0.79176 0.51758 0.39614 0.0
H1643 H 0.80993 0.51777 0.42922 0.0
H1644 H 0.84062 0.52941 0.42758 0.0
C1645 C 0.92566 0.4906 0.45378 0.0
C1646 C 0.88444 0.47944 0.45928 0.0
C1647 C 0.94424 0.49481 0.45621 0.0
C1648 C 0.80766 0.50533 0.39909 0.0
C1649 C 0.81805 0.50542 0.41801 0.0
C1650 C 0.85226 0.51529 0.43704 0.0
C1651 C 0.90474 0.50366 0.46245 0.0
C1652 C 0.88512 0.50053 0.4572 0.0
C1653 C 0.83929 0.49066 0.4214 0.0
C1654 C 0.85268 0.49408 0.43718 0.0
H1655 H 0.91968 0.53808 0.48572 0.0
H1656 H 0.88686 0.53109 0.48084 0.0
H1657 H 0.86848 0.53491 0.44502 0.0
H1658 H 0.84726 0.46276 0.37606 0.0
H1659 H 0.86549 0.46308 0.40868 0.0
C1660 C 0.12243 0.51019 0.65623 0.0
C1661 C 0.14476 0.50758 0.65064 0.0
C1662 C 0.11144 0.50569 0.64083 0.0
C1663 C 0.10883 0.50261 0.58038 0.0
H1664 H 0.07259 0.46782 0.61179 0.0
C1665 C 0.04186 0.48563 0.53977 0.0
C1666 C 0.02134 0.49548 0.55215 0.0
C1667 C 0.06115 0.48373 0.54823 0.0
C1668 C 0.08294 0.47719 0.60268 0.0
H1669 H 0.17293 0.49891 0.62409 0.0
H1670 H 0.15332 0.49115 0.59675 0.0
H1671 H 0.09947 0.47092 0.63335 0.0
H1672 H 0.0048 0.51097 0.58292 0.0
H1673 H 0.03837 0.50702 0.59799 0.0
H1674 H 0.09117 0.50981 0.5501 0.0
C1675 C 0.14457 0.49659 0.61325 0.0
C1676 C 0.0982 0.47904 0.61498 0.0
C1677 C 0.15573 0.50097 0.62886 0.0
C1678 C 0.02038 0.50324 0.57308 0.0
C1679 C 0.03954 0.501 0.5817 0.0
C1680 C 0.09349 0.50069 0.56797 0.0
C1681 C 0.12247 0.49845 0.61946 0.0
C1682 C 0.1105 0.49259 0.60435 0.0
C1683 C 0.06002 0.4912 0.56941 0.0
C1684 C 0.07984 0.48873 0.5795 0.0
H1685 H 0.11358 0.51492 0.67299 0.0
H1686 H 0.09428 0.50757 0.64583 0.0
H1687 H 0.11816 0.51315 0.57188 0.0
H1688 H 0.04298 0.47941 0.52366 0.0
H1689 H 0.07688 0.47611 0.53858 0.0
C1690 C 0.5455 0.74735 0.18619 0.0
C1691 C 0.53065 0.76584 0.19531 0.0
C1692 C 0.56144 0.74936 0.16713 0.0
C1693 C 0.59035 0.78773 0.13463 0.0
H1694 H 0.61236 0.74565 0.09154 0.0
C1695 C 0.67217 0.77728 0.0738 0.0
C1696 C 0.67515 0.76982 0.05212 0.0
C1697 C 0.65303 0.77879 0.0895 0.0
C1698 C 0.60626 0.75783 0.10307 0.0
H1699 H 0.52044 0.80106 0.19101 0.0
H1700 H 0.54766 0.80472 0.1571 0.0
H1701 H 0.58124 0.74497 0.1209 0.0
H1702 H 0.65984 0.75906 0.02945 0.0
H1703 H 0.62611 0.76264 0.0562 0.0
H1704 H 0.61481 0.80117 0.11613 0.0
C1705 C 0.54749 0.78853 0.16513 0.0
C1706 C 0.58854 0.75718 0.12032 0.0
C1707 C 0.53172 0.78648 0.18448 0.0
C1708 C 0.65816 0.76471 0.0461 0.0
C1709 C 0.63884 0.76659 0.06161 0.0
C1710 C 0.60785 0.78862 0.11711 0.0
C1711 C 0.5628 0.76996 0.15636 0.0
C1712 C 0.58056 0.77184 0.13669 0.0
C1713 C 0.63614 0.77324 0.08379 0.0
C1714 C 0.61635 0.77343 0.10132 0.0
H1715 H 0.5453 0.73117 0.19424 0.0
H1716 H 0.57312 0.73459 0.16137 0.0
H1717 H 0.58492 0.79921 0.14696 0.0
H1718 H 0.68502 0.78113 0.07914 0.0
H1719 H 0.65189 0.7836 0.10651 0.0
C1720 C 0.65589 0.48729 0.13796 0.0
C1721 C 0.64562 0.4969 0.15832 0.0
C1722 C 0.64383 0.48153 0.1246 0.0
C1723 C 0.59398 0.46765 0.13148 0.0
H1724 H 0.59264 0.48736 0.06329 0.0
C1725 C 0.51902 0.48632 0.08516 0.0
C1726 C 0.52136 0.47925 0.06343 0.0
C1727 C 0.5374 0.48341 0.09576 0.0
C1728 C 0.59324 0.48131 0.08224 0.0
H1729 H 0.61475 0.50797 0.18059 0.0
H1730 H 0.59385 0.49829 0.15725 0.0
H1731 H 0.61955 0.49252 0.08343 0.0
H1732 H 0.54463 0.46263 0.03626 0.0
H1733 H 0.57714 0.45828 0.05452 0.0
H1734 H 0.56703 0.45748 0.1306 0.0
C1735 C 0.61117 0.49506 0.15166 0.0
C1736 C 0.60857 0.48429 0.09373 0.0
C1737 C 0.6231 0.50092 0.16482 0.0
C1738 C 0.54245 0.46858 0.05281 0.0
C1739 C 0.56097 0.46604 0.06323 0.0
C1740 C 0.57871 0.46474 0.12006 0.0
C1741 C 0.62144 0.485 0.13167 0.0
C1742 C 0.60842 0.47828 0.11861 0.0
C1743 C 0.55853 0.47355 0.08475 0.0
C1744 C 0.57765 0.4723 0.09553 0.0
H1745 H 0.67322 0.48408 0.13251 0.0
H1746 H 0.65207 0.47388 0.10918 0.0
H1747 H 0.59385 0.46244 0.15061 0.0
H1748 H 0.50296 0.49455 0.09378 0.0
H1749 H 0.53509 0.48956 0.11224 0.0
C1750 C 0.40976 0.40016 0.07701 0.0
C1751 C 0.42318 0.40773 0.05806 0.0
C1752 C 0.40839 0.37951 0.07905 0.0
C1753 C 0.41107 0.34315 0.04002 0.0
H1754 H 0.39642 0.30872 0.09967 0.0
C1755 C 0.35991 0.2913 0.04051 0.0
C1756 C 0.34095 0.29667 0.05685 0.0
C1757 C 0.37824 0.29592 0.04316 0.0
C1758 C 0.40069 0.31801 0.08284 0.0
H1759 H 0.44709 0.39893 0.02752 0.0
H1760 H 0.44439 0.36291 0.03088 0.0
H1761 H 0.41451 0.33468 0.09972 0.0
H1762 H 0.32689 0.30941 0.08974 0.0
H1763 H 0.35855 0.31785 0.09416 0.0
H1764 H 0.39589 0.32788 0.02327 0.0
C1765 C 0.43478 0.37307 0.044 0.0
C1766 C 0.41103 0.33284 0.08287 0.0
C1767 C 0.43618 0.39373 0.04198 0.0
C1768 C 0.3413 0.30502 0.07693 0.0
C1769 C 0.35956 0.30975 0.07951 0.0
C1770 C 0.40067 0.32842 0.03999 0.0
C1771 C 0.4204 0.36601 0.06217 0.0
C1772 C 0.41527 0.34635 0.06161 0.0
C1773 C 0.37786 0.30614 0.06209 0.0
C1774 C 0.39432 0.31654 0.06156 0.0
H1775 H 0.39945 0.41061 0.08958 0.0
H1776 H 0.39687 0.37472 0.09301 0.0
H1777 H 0.41398 0.3534 0.02334 0.0
H1778 H 0.3602 0.28442 0.02512 0.0
H1779 H 0.39225 0.29257 0.02968 0.0
C1780 C 0.03981 0.18963 0.28182 0.0
C1781 C 0.0437 0.20949 0.27796 0.0
C1782 C 0.05729 0.16966 0.28442 0.0
C1783 C 0.11478 0.14574 0.29923 0.0
H1784 H 0.12032 0.1 0.26489 0.0
C1785 C 0.19742 0.07873 0.28115 0.0
C1786 C 0.19814 0.05723 0.28266 0.0
C1787 C 0.17738 0.0958 0.28277 0.0
C1788 C 0.11887 0.11246 0.27489 0.0
H1789 H 0.06889 0.22397 0.27373 0.0
H1790 H 0.09908 0.18949 0.27829 0.0
H1791 H 0.08723 0.13254 0.26392 0.0
H1792 H 0.17836 0.03675 0.2869 0.0
H1793 H 0.1431 0.06675 0.28975 0.0
H1794 H 0.14643 0.12601 0.30991 0.0
C1795 C 0.08264 0.18915 0.27961 0.0
C1796 C 0.09989 0.13112 0.27434 0.0
C1797 C 0.0653 0.20897 0.27685 0.0
C1798 C 0.1783 0.05316 0.28581 0.0
C1799 C 0.15813 0.07035 0.28728 0.0
C1800 C 0.13366 0.12717 0.29979 0.0
C1801 C 0.07894 0.1692 0.28345 0.0
C1802 C 0.09785 0.14823 0.28605 0.0
C1803 C 0.15744 0.09191 0.28585 0.0
C1804 C 0.13623 0.1105 0.28718 0.0
H1805 H 0.02332 0.18954 0.28263 0.0
H1806 H 0.05385 0.15459 0.28743 0.0
H1807 H 0.11357 0.15834 0.30892 0.0
H1808 H 0.2124 0.08244 0.27855 0.0
H1809 H 0.17755 0.11219 0.28114 0.0
C1810 C 0.23758 0.31277 0.95994 0.0
C1811 C 0.22149 0.30391 0.95923 0.0
C1812 C 0.23786 0.33234 0.94497 0.0
C1813 C 0.20387 0.38152 0.9069 0.0
H1814 H 0.25979 0.38275 0.87279 0.0
C1815 C 0.21014 0.44846 0.82534 0.0
C1816 C 0.22846 0.45526 0.82114 0.0
C1817 C 0.20885 0.43107 0.84361 0.0
C1818 C 0.24404 0.38296 0.8824 0.0
H1819 H 0.19307 0.30858 0.94235 0.0
H1820 H 0.19328 0.34283 0.91651 0.0
H1821 H 0.25819 0.35111 0.90249 0.0
H1822 H 0.25956 0.44935 0.8335 0.0
H1823 H 0.25707 0.41959 0.86564 0.0
H1824 H 0.18967 0.41338 0.88693 0.0
C1825 C 0.20559 0.33487 0.92877 0.0
C1826 C 0.24314 0.3647 0.89948 0.0
C1827 C 0.20549 0.3152 0.94353 0.0
C1828 C 0.24523 0.44452 0.83608 0.0
C1829 C 0.24387 0.42726 0.85446 0.0
C1830 C 0.20478 0.39988 0.88995 0.0
C1831 C 0.22197 0.34356 0.929 0.0
C1832 C 0.22302 0.36362 0.91182 0.0
C1833 C 0.22579 0.42005 0.85836 0.0
C1834 C 0.22486 0.40083 0.87724 0.0
H1835 H 0.25059 0.30402 0.97112 0.0
H1836 H 0.25071 0.33854 0.94567 0.0
H1837 H 0.18811 0.3814 0.91625 0.0
H1838 H 0.19697 0.4562 0.81412 0.0
H1839 H 0.19479 0.42592 0.84568 0.0
C1840 C 0.31077 0.22088 0.95091 0.0
C1841 C 0.30384 0.23695 0.96556 0.0
C1842 C 0.32982 0.2183 0.93479 0.0
C1843 C 0.38042 0.23333 0.91927 0.0
H1844 H 0.37774 0.22443 0.85607 0.0
C1845 C 0.43899 0.25198 0.83685 0.0
C1846 C 0.44653 0.23784 0.81998 0.0
C1847 C 0.4235 0.24915 0.85612 0.0
C1848 C 0.37891 0.22659 0.87373 0.0
H1849 H 0.31196 0.26257 0.97497 0.0
H1850 H 0.34475 0.25832 0.94673 0.0
H1851 H 0.34721 0.22442 0.88694 0.0
H1852 H 0.444 0.20927 0.81052 0.0
H1853 H 0.41687 0.20438 0.84418 0.0
H1854 H 0.4119 0.23614 0.90574 0.0
C1855 C 0.33573 0.24743 0.94792 0.0
C1856 C 0.36139 0.22655 0.89149 0.0
C1857 C 0.31677 0.24996 0.96409 0.0
C1858 C 0.43858 0.22045 0.82319 0.0
C1859 C 0.42292 0.21774 0.84238 0.0
C1860 C 0.39788 0.23349 0.90146 0.0
C1861 C 0.34238 0.23176 0.93282 0.0
C1862 C 0.36177 0.2302 0.91443 0.0
C1863 C 0.41501 0.23221 0.85893 0.0
C1864 C 0.39723 0.23038 0.87839 0.0
H1865 H 0.30133 0.21048 0.95161 0.0
H1866 H 0.33461 0.20581 0.92375 0.0
H1867 H 0.38151 0.23577 0.93683 0.0
H1868 H 0.44475 0.26554 0.83497 0.0
H1869 H 0.41761 0.26072 0.86838 0.0
C1870 C 0.45672 0.51769 0.93623 0.0
C1871 C 0.45453 0.52268 0.95905 0.0
C1872 C 0.43822 0.52215 0.92504 0.0
C1873 C 0.38284 0.52375 0.93702 0.0
H1874 H 0.38092 0.54927 0.87002 0.0
C1875 C 0.32194 0.51904 0.87884 0.0
C1876 C 0.33236 0.51195 0.85715 0.0
C1877 C 0.33317 0.52508 0.8929 0.0
C1878 C 0.38115 0.5422 0.88877 0.0
H1879 H 0.43147 0.53712 0.98772 0.0
H1880 H 0.3988 0.54408 0.96838 0.0
H1881 H 0.40771 0.55212 0.89191 0.0
H1882 H 0.36246 0.50608 0.83298 0.0
H1883 H 0.38203 0.51607 0.85754 0.0
H1884 H 0.35722 0.51255 0.93345 0.0
C1885 C 0.41491 0.53685 0.95922 0.0
C1886 C 0.39638 0.54393 0.90127 0.0
C1887 C 0.43353 0.53281 0.97026 0.0
C1888 C 0.35409 0.51111 0.84977 0.0
C1889 C 0.36519 0.51721 0.86367 0.0
C1890 C 0.36764 0.52186 0.92443 0.0
C1891 C 0.41718 0.53143 0.93657 0.0
C1892 C 0.39793 0.53398 0.92521 0.0
C1893 C 0.35486 0.52439 0.88529 0.0
C1894 C 0.36735 0.53026 0.89991 0.0
H1895 H 0.47272 0.50994 0.92716 0.0
H1896 H 0.44036 0.51761 0.90766 0.0
H1897 H 0.38385 0.51586 0.95549 0.0
H1898 H 0.3052 0.51981 0.88495 0.0
H1899 H 0.32486 0.53051 0.90954 0.0
C1900 C 0.63164 0.68634 0.02578 0.0
C1901 C 0.64022 0.6927 1.00237 0.0
C1902 C 0.61308 0.6802 0.02988 0.0
C1903 C 0.56986 0.67558 0.99971 0.0
H1904 H 0.58484 0.61825 0.03901 0.0
C1905 C 0.55162 0.58883 0.01952 0.0
C1906 C 0.55342 0.5865 0.99561 0.0
C1907 C 0.55333 0.60736 0.02509 0.0
C1908 C 0.57987 0.63446 0.02849 0.0
H1909 H 0.63479 0.6997 0.96511 0.0
H1910 H 0.60319 0.68798 0.97211 0.0
H1911 H 0.60422 0.64214 0.04065 0.0
H1912 H 0.55716 0.60211 0.95882 0.0
H1913 H 0.56099 0.6341 0.96843 0.0
H1914 H 0.54647 0.66702 0.98639 0.0
C1915 C 0.61052 0.68799 0.98739 0.0
C1916 C 0.59104 0.64826 0.02945 0.0
C1917 C 0.62893 0.6943 0.98331 0.0
C1918 C 0.55572 0.60353 0.9774 0.0
C1919 C 0.55769 0.62195 0.98295 0.0
C1920 C 0.55868 0.66171 0.99872 0.0
C1921 C 0.60287 0.68009 0.01065 0.0
C1922 C 0.58694 0.66852 0.0142 0.0
C1923 C 0.55722 0.62373 1.00684 0.0
C1924 C 0.56437 0.64059 0.01225 0.0
H1925 H 0.6399 0.68499 0.04089 0.0
H1926 H 0.60738 0.67451 0.04804 0.0
H1927 H 0.56601 0.69131 0.98813 0.0
H1928 H 0.54938 0.57609 0.0339 0.0
H1929 H 0.55254 0.60844 0.04366 0.0
C1930 C 0.91261 0.79971 0.75069 0.0
C1931 C 0.93449 0.79884 0.74512 0.0
C1932 C 0.89552 0.81966 0.75069 0.0
C1933 C 0.87985 0.87859 0.72747 0.0
H1934 H 0.83177 0.8812 0.77792 0.0
C1935 C 0.80116 0.95616 0.73638 0.0
C1936 C 0.78135 0.95187 0.74155 0.0
C1937 C 0.82134 0.9389 0.73703 0.0
C1938 C 0.845 0.88075 0.76364 0.0
H1939 H 0.95563 0.8183 0.73496 0.0
H1940 H 0.92553 0.85355 0.73486 0.0
H1941 H 0.86439 0.84867 0.77882 0.0
H1942 H 0.76717 0.92621 0.75112 0.0
H1943 H 0.80203 0.89638 0.7522 0.0
H1944 H 0.86007 0.91072 0.71217 0.0
C1945 C 0.92169 0.83863 0.73916 0.0
C1946 C 0.86372 0.86207 0.76415 0.0
C1947 C 0.93893 0.81849 0.73926 0.0
C1948 C 0.78211 0.93009 0.74711 0.0
C1949 C 0.80213 0.91296 0.7479 0.0
C1950 C 0.86101 0.89739 0.72698 0.0
C1951 C 0.89978 0.83941 0.74514 0.0
C1952 C 0.88115 0.86047 0.74576 0.0
C1953 C 0.82202 0.91708 0.74311 0.0
C1954 C 0.84313 0.89842 0.74475 0.0
H1955 H 0.90861 0.78484 0.75522 0.0
H1956 H 0.87887 0.81962 0.75492 0.0
H1957 H 0.89296 0.87787 0.71301 0.0
H1958 H 0.80104 0.97282 0.73209 0.0
H1959 H 0.83637 0.94261 0.7333 0.0
C1960 C 0.46449 0.17593 0.63354 0.0
C1961 C 0.48347 0.17987 0.63571 0.0
C1962 C 0.46368 0.16662 0.61454 0.0
C1963 C 0.50058 0.13175 0.57204 0.0
H1964 H 0.44619 0.14271 0.54699 0.0
C1965 C 0.4961 0.07767 0.51038 0.0
C1966 C 0.47919 0.06886 0.51822 0.0
C1967 C 0.49573 0.09572 0.51904 0.0
C1968 C 0.46151 0.13954 0.55376 0.0
H1969 H 0.51609 0.1782 0.619 0.0
H1970 H 0.51458 0.16229 0.58546 0.0
H1971 H 0.44763 0.16648 0.57271 0.0
H1972 H 0.44791 0.07309 0.54003 0.0
H1973 H 0.44749 0.10433 0.55537 0.0
H1974 H 0.51434 0.10456 0.5535 0.0
C1975 C 0.50048 0.16593 0.59877 0.0
C1976 C 0.46234 0.15309 0.56857 0.0
C1977 C 0.50134 0.17508 0.61794 0.0
C1978 C 0.46123 0.0794 0.53365 0.0
C1979 C 0.46093 0.09741 0.54238 0.0
C1980 C 0.49979 0.11833 0.5571 0.0
C1981 C 0.48179 0.16116 0.5971 0.0
C1982 C 0.48171 0.14895 0.57849 0.0
C1983 C 0.47855 0.10528 0.53579 0.0
C1984 C 0.48008 0.12169 0.54836 0.0
H1985 H 0.45056 0.17916 0.64713 0.0
H1986 H 0.44917 0.16284 0.61415 0.0
H1987 H 0.51571 0.12786 0.57953 0.0
H1988 H 0.51012 0.0701 0.49832 0.0
H1989 H 0.50923 0.10181 0.51326 0.0
C1990 C 0.51447 0.32322 0.87822 0.0
C1991 C 0.49326 0.32683 0.87316 0.0
C1992 C 0.51745 0.33219 0.89644 0.0
C1993 C 0.48956 0.35855 0.94915 0.0
H1994 H 0.52803 0.39259 0.92738 0.0
C1995 C 0.481 0.43259 0.98978 0.0
C1996 C 0.49954 0.43829 0.98945 0.0
C1997 C 0.48271 0.41477 0.97983 0.0
C1998 C 0.51762 0.3828 0.9341 0.0
H1999 H 0.45859 0.34141 0.88421 0.0
H2000 H 0.46379 0.35719 0.91596 0.0
H2001 H 0.52652 0.36837 0.90259 0.0
H2002 H 0.53469 0.42887 0.97973 0.0
H2003 H 0.53778 0.39745 0.96272 0.0
H2004 H 0.48033 0.37334 0.98051 0.0
C2005 C 0.47811 0.34741 0.90587 0.0
C2006 C 0.51673 0.36892 0.9198 0.0
C2007 C 0.47512 0.33857 0.88754 0.0
C2008 C 0.52005 0.42508 0.98003 0.0
C2009 C 0.52179 0.40712 0.97018 0.0
C2010 C 0.49058 0.37232 0.96359 0.0
C2011 C 0.4993 0.34481 0.91007 0.0
C2012 C 0.5023 0.35706 0.92689 0.0
C2013 C 0.50304 0.40209 0.9694 0.0
C2014 C 0.50421 0.38506 0.95594 0.0
H2015 H 0.52878 0.31437 0.86735 0.0
H2016 H 0.53398 0.32977 0.89942 0.0
H2017 H 0.47849 0.34939 0.95519 0.0
H2018 H 0.46494 0.44237 0.99692 0.0
H2019 H 0.46785 0.41162 0.97934 0.0
C2020 C 0.51784 0.82612 0.38028 0.0
C2021 C 0.49684 0.83086 0.37387 0.0
C2022 C 0.52051 0.83468 0.39902 0.0
C2023 C 0.49144 0.86148 0.45116 0.0
H2024 H 0.53305 0.89225 0.43323 0.0
C2025 C 0.48526 0.93333 0.49435 0.0
C2026 C 0.50423 0.93803 0.49481 0.0
C2027 C 0.48645 0.91584 0.48412 0.0
C2028 C 0.52174 0.88334 0.43891 0.0
H2029 H 0.4621 0.84718 0.38296 0.0
H2030 H 0.46677 0.86225 0.41561 0.0
H2031 H 0.5312 0.86931 0.4071 0.0
H2032 H 0.53956 0.92705 0.48656 0.0
H2033 H 0.5418 0.89593 0.46948 0.0
H2034 H 0.48169 0.87585 0.48282 0.0
C2035 C 0.48116 0.85189 0.40618 0.0
C2036 C 0.52064 0.87021 0.42383 0.0
C2037 C 0.4785 0.84346 0.38733 0.0
C2038 C 0.52462 0.92396 0.48627 0.0
C2039 C 0.52587 0.90622 0.47633 0.0
C2040 C 0.49268 0.87448 0.4664 0.0
C2041 C 0.50223 0.84803 0.41184 0.0
C2042 C 0.50514 0.85955 0.4295 0.0
C2043 C 0.50671 0.90239 0.47439 0.0
C2044 C 0.50747 0.88602 0.46017 0.0
H2045 H 0.5323 0.81658 0.37016 0.0
H2046 H 0.53694 0.8313 0.40312 0.0
H2047 H 0.47952 0.85323 0.45611 0.0
H2048 H 0.46926 0.94396 0.50052 0.0
H2049 H 0.4713 0.9137 0.48263 0.0
C2050 C 0.49558 0.5668 0.03434 0.0
C2051 C 0.47693 0.56153 0.03386 0.0
C2052 C 0.49388 0.58429 0.04491 0.0
C2053 C 0.45843 0.61593 0.09063 0.0
H2054 H 0.49708 0.64993 0.07075 0.0
C2055 C 0.45741 0.67702 0.14668 0.0
C2056 C 0.47807 0.67523 0.15177 0.0
C2057 C 0.45565 0.66719 0.12857 0.0
C2058 C 0.48619 0.64055 0.07651 0.0
H2059 H 0.44166 0.57139 0.04275 0.0
H2060 H 0.43863 0.60224 0.06074 0.0
H2061 H 0.49647 0.62555 0.04525 0.0
H2062 H 0.51304 0.6626 0.14111 0.0
H2063 H 0.51 0.64529 0.10954 0.0
H2064 H 0.44852 0.63046 0.12208 0.0
C2065 C 0.45467 0.59247 0.05349 0.0
C2066 C 0.48584 0.62656 0.06193 0.0
C2067 C 0.45638 0.57486 0.04306 0.0
C2068 C 0.49688 0.66439 0.1375 0.0
C2069 C 0.49513 0.6545 0.11939 0.0
C2070 C 0.45872 0.62994 0.10511 0.0
C2071 C 0.47348 0.59706 0.05509 0.0
C2072 C 0.47221 0.6138 0.06903 0.0
C2073 C 0.47452 0.65529 0.11517 0.0
C2074 C 0.47284 0.64216 0.09843 0.0
H2075 H 0.5117 0.55696 0.02735 0.0
H2076 H 0.50873 0.58714 0.04608 0.0
H2077 H 0.44806 0.60605 0.09696 0.0
H2078 H 0.44259 0.68565 0.15707 0.0
H2079 H 0.43951 0.66847 0.12543 0.0
loop_
_geom_bond_atom_site_label_1
_geom_bond_atom_site_label_2
_geom_bond_distance
_geom_bond_site_symmetry_2
_ccdc_geom_bond_type
Sm0 C2 2.846 . S
Sm0 O20 2.543 . S
Sm0 O21 2.450 . S
Sm0 O22 2.681 1_655 S
Sm0 O23 2.464 1_655 S
Sm0 O24 2.396 1_654 S
Sm0 O28 2.386 1_564 S
Sm0 O31 2.408 1_565 S
Sm1 C11 2.846 . S
Sm1 O22 2.386 1_546 S
Sm1 O25 2.408 1_545 S
Sm1 O26 2.543 . S
Sm1 O27 2.450 . S
Sm1 O28 2.681 1_455 S
Sm1 O29 2.464 1_455 S
Sm1 O30 2.396 1_456 S
C2 Sm0 2.846 . S
C2 C3 1.506 . S
C2 O20 1.261 . S
C2 O21 1.242 . S
C3 C2 1.506 . S
C3 C4 1.358 . S
C3 C8 1.382 . S
C4 C3 1.358 . S
C4 C5 1.385 . S
C4 H32 0.930 1_554 S
C5 C4 1.385 . S
C5 C6 1.395 . S
C5 H33 0.928 1_554 S
C6 C5 1.395 . S
C6 C7 1.335 . S
C7 C6 1.335 . S
C7 C8 1.398 . S
C7 H34 0.930 . S
C8 C3 1.382 . S
C8 C7 1.398 . S
C8 H35 0.929 . S
C9 O22 1.271 . S
C9 O23 1.251 . S
C10 O24 1.252 . S
C10 O25 1.272 . S
C11 Sm1 2.846 . S
C11 C12 1.506 . S
C11 O26 1.261 . S
C11 O27 1.242 . S
C12 C11 1.506 . S
C12 C13 1.358 . S
C12 C17 1.382 . S
C13 C12 1.358 . S
C13 C14 1.385 . S
C13 H36 0.930 1_556 S
C14 C13 1.385 . S
C14 C15 1.395 . S
C14 H37 0.904 1_556 S
C15 C14 1.395 . S
C15 C16 1.335 . S
C16 C15 1.335 . S
C16 C17 1.398 . S
C16 H38 0.930 . S
C17 C12 1.382 . S
C17 C16 1.398 . S
C17 H39 0.929 . S
C18 O28 1.271 . S
C18 O29 1.251 . S
C19 O30 1.252 . S
C19 O31 1.272 . S
O20 Sm0 2.543 . S
O20 C2 1.261 . S
O21 Sm0 2.450 . S
O21 C2 1.242 . S
O22 Sm0 2.681 1_455 S
O22 Sm1 2.386 1_564 S
O22 C9 1.271 . S
O23 Sm0 2.464 1_455 S
O23 C9 1.251 . S
O24 Sm0 2.396 1_456 S
O24 C10 1.252 . S
O25 Sm1 2.408 1_565 S
O25 C10 1.272 . S
O26 Sm1 2.543 . S
O26 C11 1.261 . S
O27 Sm1 2.450 . S
O27 C11 1.242 . S
O28 Sm0 2.386 1_546 S
O28 Sm1 2.681 1_655 S
O28 C18 1.271 . S
O29 Sm1 2.464 1_655 S
O29 C18 1.251 . S
O30 Sm1 2.396 1_654 S
O30 C19 1.252 . S
O31 Sm0 2.408 1_545 S
O31 C19 1.272 . S
H32 C4 0.930 1_556 S
H33 C5 0.928 1_556 S
H34 C7 0.930 . S
H35 C8 0.929 . S
H36 C13 0.930 1_554 S
H37 C14 0.904 1_554 S
H38 C16 0.930 . S
H39 C17 0.929 . S
Sm40 C42 2.846 . S
Sm40 O60 2.543 1_455 S
Sm40 O61 2.450 . S
Sm40 O62 2.681 . S
Sm40 O63 2.464 . S
Sm40 O64 2.396 1_455 S
Sm40 O68 2.386 1_455 S
Sm40 O71 2.408 . S
Sm41 C51 2.846 . S
Sm41 O62 2.386 1_655 S
Sm41 O65 2.408 . S
Sm41 O66 2.543 1_655 S
Sm41 O67 2.450 . S
Sm41 O68 2.681 . S
Sm41 O69 2.464 . S
Sm41 O70 2.396 1_655 S
C42 Sm40 2.846 . S
C42 C43 1.506 . S
C42 O60 1.261 1_455 S
C42 O61 1.242 . S
C43 C42 1.506 . S
C43 C44 1.358 1_455 S
C43 C48 1.382 . S
C44 C43 1.358 1_655 S
C44 C45 1.385 . S
C44 H72 0.930 . S
C45 C44 1.385 . S
C45 C46 1.395 . S
C45 H73 0.929 . S
C46 C45 1.395 . S
C46 C47 1.335 1_655 S
C47 C46 1.335 1_455 S
C47 C48 1.398 . S
C47 H74 0.930 . S
C48 C43 1.382 . S
C48 C47 1.398 . S
C48 H75 0.929 . S
C49 O62 1.271 . S
C49 O63 1.251 . S
C50 O64 1.252 . S
C50 O65 1.272 . S
C51 Sm41 2.846 . S
C51 C52 1.506 . S
C51 O66 1.261 1_655 S
C51 O67 1.242 . S
C52 C51 1.506 . S
C52 C53 1.358 1_655 S
C52 C57 1.382 . S
C53 C52 1.358 1_455 S
C53 C54 1.385 . S
C53 H76 0.930 . S
C54 C53 1.385 . S
C54 C55 1.395 . S
C54 H77 0.929 . S
C55 C54 1.395 . S
C55 C56 1.335 1_455 S
C56 C55 1.335 1_655 S
C56 C57 1.398 . S
C56 H78 0.930 . S
C57 C52 1.382 . S
C57 C56 1.398 . S
C57 H79 0.929 . S
C58 O68 1.271 . S
C58 O69 1.251 . S
C59 O70 1.252 . S
C59 O71 1.272 . S
O60 Sm40 2.543 1_655 S
O60 C42 1.261 1_655 S
O61 Sm40 2.450 . S
O61 C42 1.242 . S
O62 Sm40 2.681 . S
O62 Sm41 2.386 1_455 S
O62 C49 1.271 . S
O63 Sm40 2.464 . S
O63 C49 1.251 . S
O64 Sm40 2.396 1_655 S
O64 C50 1.252 . S
O65 Sm41 2.408 . S
O65 C50 1.272 . S
O66 Sm41 2.543 1_455 S
O66 C51 1.261 1_455 S
O67 Sm41 2.450 . S
O67 C51 1.242 . S
O68 Sm40 2.386 1_655 S
O68 Sm41 2.681 . S
O68 C58 1.271 . S
O69 Sm41 2.464 . S
O69 C58 1.251 . S
O70 Sm41 2.396 1_455 S
O70 C59 1.252 . S
O71 Sm40 2.408 . S
O71 C59 1.272 . S
H72 C44 0.930 . S
H73 C45 0.929 . S
H74 C47 0.930 . S
H75 C48 0.929 . S
H76 C53 0.930 . S
H77 C54 0.929 . S
H78 C56 0.930 . S
H79 C57 0.929 . S
Sm80 C82 2.846 . S
Sm80 O100 2.543 . S
Sm80 O101 2.450 . S
Sm80 O102 2.681 . S
Sm80 O103 2.464 . S
Sm80 O104 2.396 . S
Sm80 O108 2.386 . S
Sm80 O111 2.408 . S
Sm81 C91 2.846 . S
Sm81 O102 2.386 . S
Sm81 O105 2.408 . S
Sm81 O106 2.543 . S
Sm81 O107 2.450 . S
Sm81 O108 2.681 . S
Sm81 O109 2.464 . S
Sm81 O110 2.396 . S
C82 Sm80 2.846 . S
C82 C83 1.506 . S
C82 O100 1.261 . S
C82 O101 1.242 . S
C83 C82 1.506 . S
C83 C84 1.358 . S
C83 C88 1.382 . S
C84 C83 1.358 . S
C84 C85 1.385 . S
C84 H112 0.930 . S
C85 C84 1.385 . S
C85 C86 1.395 . S
C85 H113 0.929 . S
C86 C85 1.395 . S
C86 C87 1.335 . S
C87 C86 1.335 . S
C87 C88 1.398 . S
C87 H114 0.930 . S
C88 C83 1.382 . S
C88 C87 1.398 . S
C88 H115 0.929 . S
C89 O102 1.271 . S
C89 O103 1.251 . S
C90 O104 1.252 . S
C90 O105 1.272 . S
C91 Sm81 2.846 . S
C91 C92 1.506 . S
C91 O106 1.261 . S
C91 O107 1.242 . S
C92 C91 1.506 . S
C92 C93 1.358 . S
C92 C97 1.382 . S
C93 C92 1.358 . S
C93 C94 1.385 . S
C93 H116 0.930 . S
C94 C93 1.385 . S
C94 C95 1.395 . S
C94 H117 0.929 . S
C95 C94 1.395 . S
C95 C96 1.335 . S
C96 C95 1.335 . S
C96 C97 1.398 . S
C96 H118 0.930 . S
C97 C92 1.382 . S
C97 C96 1.398 . S
C97 H119 0.929 . S
C98 O108 1.271 . S
C98 O109 1.251 . S
C99 O110 1.252 . S
C99 O111 1.272 . S
O100 Sm80 2.543 . S
O100 C82 1.261 . S
O101 Sm80 2.450 . S
O101 C82 1.242 . S
O102 Sm80 2.681 . S
O102 Sm81 2.386 . S
O102 C89 1.271 . S
O103 Sm80 2.464 . S
O103 C89 1.251 . S
O104 Sm80 2.396 . S
O104 C90 1.252 . S
O105 Sm81 2.408 . S
O105 C90 1.272 . S
O106 Sm81 2.543 . S
O106 C91 1.261 . S
O107 Sm81 2.450 . S
O107 C91 1.242 . S
O108 Sm80 2.386 . S
O108 Sm81 2.681 . S
O108 C98 1.271 . S
O109 Sm81 2.464 . S
O109 C98 1.251 . S
O110 Sm81 2.396 . S
O110 C99 1.252 . S
O111 Sm80 2.408 . S
O111 C99 1.272 . S
H112 C84 0.930 . S
H113 C85 0.929 . S
H114 C87 0.930 . S
H115 C88 0.929 . S
H116 C93 0.930 . S
H117 C94 0.929 . S
H118 C96 0.930 . S
H119 C97 0.929 . S
Sm120 C122 2.846 . S
Sm120 O140 2.543 1_565 S
Sm120 O141 2.450 . S
Sm120 O142 2.681 . S
Sm120 O143 2.464 . S
Sm120 O144 2.396 1_565 S
Sm120 O148 2.386 1_565 S
Sm120 O151 2.408 . S
Sm121 C131 2.846 . S
Sm121 O142 2.386 1_545 S
Sm121 O145 2.408 . S
Sm121 O146 2.543 1_545 S
Sm121 O147 2.450 . S
Sm121 O148 2.681 . S
Sm121 O149 2.464 . S
Sm121 O150 2.396 1_545 S
C122 Sm120 2.846 . S
C122 C123 1.506 1_565 S
C122 O140 1.261 1_565 S
C122 O141 1.242 . S
C123 C122 1.506 1_545 S
C123 C124 1.362 . S
C123 C128 1.378 1_545 S
C124 C123 1.362 . S
C124 C125 1.385 . S
C124 H152 0.930 . S
C125 C124 1.385 . S
C125 C126 1.395 . S
C125 H153 0.929 . S
C126 C125 1.395 . S
C126 C127 1.335 1_545 S
C127 C126 1.335 1_565 S
C127 C128 1.398 . S
C127 H154 0.930 . S
C128 C123 1.378 1_565 S
C128 C127 1.398 . S
C128 H155 0.929 . S
C129 O142 1.271 . S
C129 O143 1.251 . S
C130 O144 1.252 . S
C130 O145 1.272 . S
C131 Sm121 2.846 . S
C131 C132 1.504 . S
C131 O146 1.261 1_545 S
C131 O147 1.242 . S
C132 C131 1.504 . S
C132 C133 1.348 1_545 S
C132 C137 1.394 . S
C133 C132 1.348 1_565 S
C133 C134 1.385 . S
C133 H156 0.930 . S
C134 C133 1.385 . S
C134 C135 1.395 . S
C134 H157 0.929 . S
C135 C134 1.395 . S
C135 C136 1.335 1_565 S
C136 C135 1.335 1_545 S
C136 C137 1.398 . S
C136 H158 0.930 . S
C137 C132 1.394 . S
C137 C136 1.398 . S
C137 H159 0.929 . S
C138 O148 1.271 . S
C138 O149 1.251 . S
C139 O150 1.252 . S
C139 O151 1.272 . S
O140 Sm120 2.543 1_545 S
O140 C122 1.261 1_545 S
O141 Sm120 2.450 . S
O141 C122 1.242 . S
O142 Sm120 2.681 . S
O142 Sm121 2.386 1_565 S
O142 C129 1.271 . S
O143 Sm120 2.464 . S
O143 C129 1.251 . S
O144 Sm120 2.396 1_545 S
O144 C130 1.252 . S
O145 Sm121 2.408 . S
O145 C130 1.272 . S
O146 Sm121 2.543 1_565 S
O146 C131 1.261 1_565 S
O147 Sm121 2.450 . S
O147 C131 1.242 . S
O148 Sm120 2.386 1_545 S
O148 Sm121 2.681 . S
O148 C138 1.271 . S
O149 Sm121 2.464 . S
O149 C138 1.251 . S
O150 Sm121 2.396 1_565 S
O150 C139 1.252 . S
O151 Sm120 2.408 . S
O151 C139 1.272 . S
H152 C124 0.930 . S
H153 C125 0.929 . S
H154 C127 0.930 . S
H155 C128 0.929 . S
H156 C133 0.930 . S
H157 C134 0.929 . S
H158 C136 0.930 . S
H159 C137 0.929 . S
Sm160 C162 2.846 . S
Sm160 O180 2.543 . S
Sm160 O181 2.450 . S
Sm160 O182 2.681 . S
Sm160 O183 2.464 . S
Sm160 O184 2.396 . S
Sm160 O188 2.386 . S
Sm160 O191 2.408 . S
Sm161 C171 2.846 . S
Sm161 O182 2.386 . S
Sm161 O185 2.408 . S
Sm161 O186 2.543 . S
Sm161 O187 2.450 . S
Sm161 O188 2.681 . S
Sm161 O189 2.464 . S
Sm161 O190 2.396 . S
C162 Sm160 2.846 . S
C162 C163 1.506 . S
C162 O180 1.261 . S
C162 O181 1.242 . S
C163 C162 1.506 . S
C163 C164 1.358 . S
C163 C168 1.382 . S
C164 C163 1.358 . S
C164 C165 1.385 . S
C164 H192 0.930 . S
C165 C164 1.385 . S
C165 C166 1.395 . S
C165 H193 0.929 . S
C166 C165 1.395 . S
C166 C167 1.335 . S
C167 C166 1.335 . S
C167 C168 1.398 . S
C167 H194 0.930 . S
C168 C163 1.382 . S
C168 C167 1.398 . S
C168 H195 0.929 . S
C169 O182 1.271 . S
C169 O183 1.251 . S
C170 O184 1.252 . S
C170 O185 1.272 . S
C171 Sm161 2.846 . S
C171 C172 1.506 . S
C171 O186 1.261 . S
C171 O187 1.242 . S
C172 C171 1.506 . S
C172 C173 1.358 . S
C172 C177 1.382 . S
C173 C172 1.358 . S
C173 C174 1.385 . S
C173 H196 0.930 . S
C174 C173 1.385 . S
C174 C175 1.395 . S
C174 H197 0.929 . S
C175 C174 1.395 . S
C175 C176 1.335 . S
C176 C175 1.335 . S
C176 C177 1.398 . S
C176 H198 0.930 . S
C177 C172 1.382 . S
C177 C176 1.398 . S
C177 H199 0.929 . S
C178 O188 1.271 . S
C178 O189 1.251 . S
C179 O190 1.252 . S
C179 O191 1.272 . S
O180 Sm160 2.543 . S
O180 C162 1.261 . S
O181 Sm160 2.450 . S
O181 C162 1.242 . S
O182 Sm160 2.681 . S
O182 Sm161 2.386 . S
O182 C169 1.271 . S
O183 Sm160 2.464 . S
O183 C169 1.251 . S
O184 Sm160 2.396 . S
O184 C170 1.252 . S
O185 Sm161 2.408 . S
O185 C170 1.272 . S
O186 Sm161 2.543 . S
O186 C171 1.261 . S
O187 Sm161 2.450 . S
O187 C171 1.242 . S
O188 Sm160 2.386 . S
O188 Sm161 2.681 . S
O188 C178 1.271 . S
O189 Sm161 2.464 . S
O189 C178 1.251 . S
O190 Sm161 2.396 . S
O190 C179 1.252 . S
O191 Sm160 2.408 . S
O191 C179 1.272 . S
H192 C164 0.930 . S
H193 C165 0.929 . S
H194 C167 0.930 . S
H195 C168 0.929 . S
H196 C173 0.930 . S
H197 C174 0.929 . S
H198 C176 0.930 . S
H199 C177 0.929 . S
Sm200 C202 2.846 . S
Sm200 O220 2.543 . S
Sm200 O221 2.450 . S
Sm200 O222 2.681 . S
Sm200 O223 2.464 . S
Sm200 O224 2.396 . S
Sm200 O228 2.386 . S
Sm200 O231 2.408 . S
Sm201 C211 2.846 . S
Sm201 O222 2.386 . S
Sm201 O225 2.408 . S
Sm201 O226 2.543 . S
Sm201 O227 2.450 . S
Sm201 O228 2.681 . S
Sm201 O229 2.464 . S
Sm201 O230 2.396 . S
C202 Sm200 2.846 . S
C202 C203 1.506 . S
C202 O220 1.261 . S
C202 O221 1.242 . S
C203 C202 1.506 . S
C203 C204 1.358 . S
C203 C208 1.382 . S
C204 C203 1.358 . S
C204 C205 1.385 . S
C204 H232 0.930 . S
C205 C204 1.385 . S
C205 C206 1.395 . S
C205 H233 0.929 . S
C206 C205 1.395 . S
C206 C207 1.335 . S
C207 C206 1.335 . S
C207 C208 1.398 . S
C207 H234 0.930 . S
C208 C203 1.382 . S
C208 C207 1.398 . S
C208 H235 0.929 . S
C209 O222 1.271 . S
C209 O223 1.251 . S
C210 O224 1.252 . S
C210 O225 1.272 . S
C211 Sm201 2.846 . S
C211 C212 1.506 . S
C211 O226 1.261 . S
C211 O227 1.242 . S
C212 C211 1.506 . S
C212 C213 1.358 . S
C212 C217 1.382 . S
C213 C212 1.358 . S
C213 C214 1.385 . S
C213 H236 0.930 . S
C214 C213 1.385 . S
C214 C215 1.395 . S
C214 H237 0.929 . S
C215 C214 1.395 . S
C215 C216 1.335 . S
C216 C215 1.335 . S
C216 C217 1.398 . S
C216 H238 0.930 . S
C217 C212 1.382 . S
C217 C216 1.398 . S
C217 H239 0.929 . S
C218 O228 1.271 . S
C218 O229 1.251 . S
C219 O230 1.252 . S
C219 O231 1.272 . S
O220 Sm200 2.543 . S
O220 C202 1.261 . S
O221 Sm200 2.450 . S
O221 C202 1.242 . S
O222 Sm200 2.681 . S
O222 Sm201 2.386 . S
O222 C209 1.271 . S
O223 Sm200 2.464 . S
O223 C209 1.251 . S
O224 Sm200 2.396 . S
O224 C210 1.252 . S
O225 Sm201 2.408 . S
O225 C210 1.272 . S
O226 Sm201 2.543 . S
O226 C211 1.261 . S
O227 Sm201 2.450 . S
O227 C211 1.242 . S
O228 Sm200 2.386 . S
O228 Sm201 2.681 . S
O228 C218 1.271 . S
O229 Sm201 2.464 . S
O229 C218 1.251 . S
O230 Sm201 2.396 . S
O230 C219 1.252 . S
O231 Sm200 2.408 . S
O231 C219 1.272 . S
H232 C204 0.930 . S
H233 C205 0.929 . S
H234 C207 0.930 . S
H235 C208 0.929 . S
H236 C213 0.930 . S
H237 C214 0.929 . S
H238 C216 0.930 . S
H239 C217 0.929 . S
Sm240 C242 2.846 . S
Sm240 O260 2.543 . S
Sm240 O261 2.450 . S
Sm240 O262 2.681 . S
Sm240 O263 2.464 . S
Sm240 O264 2.396 . S
Sm240 O268 2.386 . S
Sm240 O271 2.408 . S
Sm241 C251 2.846 . S
Sm241 O262 2.386 . S
Sm241 O265 2.408 . S
Sm241 O266 2.543 . S
Sm241 O267 2.450 . S
Sm241 O268 2.681 . S
Sm241 O269 2.464 . S
Sm241 O270 2.396 . S
C242 Sm240 2.846 . S
C242 C243 1.506 . S
C242 O260 1.261 . S
C242 O261 1.242 . S
C243 C242 1.506 . S
C243 C244 1.358 . S
C243 C248 1.382 . S
C244 C243 1.358 . S
C244 C245 1.385 . S
C244 H272 0.930 . S
C245 C244 1.385 . S
C245 C246 1.395 . S
C245 H273 0.929 . S
C246 C245 1.395 . S
C246 C247 1.335 . S
C247 C246 1.335 . S
C247 C248 1.398 . S
C247 H274 0.930 . S
C248 C243 1.382 . S
C248 C247 1.398 . S
C248 H275 0.929 . S
C249 O262 1.271 . S
C249 O263 1.251 . S
C250 O264 1.252 . S
C250 O265 1.272 . S
C251 Sm241 2.846 . S
C251 C252 1.506 . S
C251 O266 1.261 . S
C251 O267 1.242 . S
C252 C251 1.506 . S
C252 C253 1.358 . S
C252 C257 1.382 . S
C253 C252 1.358 . S
C253 C254 1.385 . S
C253 H276 0.930 . S
C254 C253 1.385 . S
C254 C255 1.395 . S
C254 H277 0.929 . S
C255 C254 1.395 . S
C255 C256 1.335 . S
C256 C255 1.335 . S
C256 C257 1.398 . S
C256 H278 0.930 . S
C257 C252 1.382 . S
C257 C256 1.398 . S
C257 H279 0.929 . S
C258 O268 1.271 . S
C258 O269 1.251 . S
C259 O270 1.252 . S
C259 O271 1.272 . S
O260 Sm240 2.543 . S
O260 C242 1.261 . S
O261 Sm240 2.450 . S
O261 C242 1.242 . S
O262 Sm240 2.681 . S
O262 Sm241 2.386 . S
O262 C249 1.271 . S
O263 Sm240 2.464 . S
O263 C249 1.251 . S
O264 Sm240 2.396 . S
O264 C250 1.252 . S
O265 Sm241 2.408 . S
O265 C250 1.272 . S
O266 Sm241 2.543 . S
O266 C251 1.261 . S
O267 Sm241 2.450 . S
O267 C251 1.242 . S
O268 Sm240 2.386 . S
O268 Sm241 2.681 . S
O268 C258 1.271 . S
O269 Sm241 2.464 . S
O269 C258 1.251 . S
O270 Sm241 2.396 . S
O270 C259 1.252 . S
O271 Sm240 2.408 . S
O271 C259 1.272 . S
H272 C244 0.930 . S
H273 C245 0.929 . S
H274 C247 0.930 . S
H275 C248 0.929 . S
H276 C253 0.930 . S
H277 C254 0.929 . S
H278 C256 0.930 . S
H279 C257 0.929 . S
Sm280 C282 2.846 . S
Sm280 O300 2.543 . S
Sm280 O301 2.450 . S
Sm280 O302 2.681 1_655 S
Sm280 O303 2.464 1_655 S
Sm280 O304 2.396 1_655 S
Sm280 O308 2.386 . S
Sm280 O311 2.408 . S
Sm281 C291 2.846 . S
Sm281 O302 2.386 . S
Sm281 O305 2.408 . S
Sm281 O306 2.543 . S
Sm281 O307 2.450 . S
Sm281 O308 2.681 1_455 S
Sm281 O309 2.464 1_455 S
Sm281 O310 2.396 1_455 S
C282 Sm280 2.846 . S
C282 C283 1.506 . S
C282 O300 1.261 . S
C282 O301 1.242 . S
C283 C282 1.506 . S
C283 C284 1.358 . S
C283 C288 1.382 . S
C284 C283 1.358 . S
C284 C285 1.385 . S
C284 H312 0.930 . S
C285 C284 1.385 . S
C285 C286 1.395 . S
C285 H313 0.929 . S
C286 C285 1.395 . S
C286 C287 1.335 . S
C287 C286 1.335 . S
C287 C288 1.398 . S
C287 H314 0.930 . S
C288 C283 1.382 . S
C288 C287 1.398 . S
C288 H315 0.929 . S
C289 O302 1.271 . S
C289 O303 1.251 . S
C290 O304 1.252 . S
C290 O305 1.272 . S
C291 Sm281 2.846 . S
C291 C292 1.506 . S
C291 O306 1.261 . S
C291 O307 1.242 . S
C292 C291 1.506 . S
C292 C293 1.358 . S
C292 C297 1.382 . S
C293 C292 1.358 . S
C293 C294 1.385 . S
C293 H316 0.930 . S
C294 C293 1.385 . S
C294 C295 1.395 . S
C294 H317 0.929 . S
C295 C294 1.395 . S
C295 C296 1.335 . S
C296 C295 1.335 . S
C296 C297 1.398 . S
C296 H318 0.930 . S
C297 C292 1.382 . S
C297 C296 1.398 . S
C297 H319 0.929 . S
C298 O308 1.271 . S
C298 O309 1.251 . S
C299 O310 1.252 . S
C299 O311 1.272 . S
O300 Sm280 2.543 . S
O300 C282 1.261 . S
O301 Sm280 2.450 . S
O301 C282 1.242 . S
O302 Sm280 2.681 1_455 S
O302 Sm281 2.386 . S
O302 C289 1.271 . S
O303 Sm280 2.464 1_455 S
O303 C289 1.251 . S
O304 Sm280 2.396 1_455 S
O304 C290 1.252 . S
O305 Sm281 2.408 . S
O305 C290 1.272 . S
O306 Sm281 2.543 . S
O306 C291 1.261 . S
O307 Sm281 2.450 . S
O307 C291 1.242 . S
O308 Sm280 2.386 . S
O308 Sm281 2.681 1_655 S
O308 C298 1.271 . S
O309 Sm281 2.464 1_655 S
O309 C298 1.251 . S
O310 Sm281 2.396 1_655 S
O310 C299 1.252 . S
O311 Sm280 2.408 . S
O311 C299 1.272 . S
H312 C284 0.930 . S
H313 C285 0.929 . S
H314 C287 0.930 . S
H315 C288 0.929 . S
H316 C293 0.930 . S
H317 C294 0.929 . S
H318 C296 0.930 . S
H319 C297 0.929 . S
Sm320 C322 2.846 . S
Sm320 O340 2.531 1_556 S
Sm320 O341 2.450 . S
Sm320 O342 2.681 . S
Sm320 O343 2.464 . S
Sm320 O344 2.396 1_556 S
Sm320 O348 2.386 1_556 S
Sm320 O351 2.408 . S
Sm321 C331 2.846 . S
Sm321 O342 2.386 1_554 S
Sm321 O345 2.408 . S
Sm321 O346 2.538 1_554 S
Sm321 O347 2.450 . S
Sm321 O348 2.681 . S
Sm321 O349 2.464 . S
Sm321 O350 2.396 1_554 S
C322 Sm320 2.846 . S
C322 C323 1.506 . S
C322 O340 1.226 1_556 S
C322 O341 1.242 . S
C323 C322 1.506 . S
C323 C324 1.358 1_556 S
C323 C328 1.382 . S
C324 C323 1.358 1_554 S
C324 C325 1.385 . S
C324 H352 0.930 . S
C325 C324 1.385 . S
C325 C326 1.395 1_554 S
C325 H353 0.929 . S
C326 C325 1.395 1_556 S
C326 C327 1.335 . S
C327 C326 1.335 . S
C327 C328 1.398 . S
C327 H354 0.930 . S
C328 C323 1.382 . S
C328 C327 1.398 . S
C328 H355 0.929 . S
C329 O342 1.271 . S
C329 O343 1.251 . S
C330 O344 1.252 . S
C330 O345 1.272 . S
C331 Sm321 2.846 . S
C331 C332 1.506 . S
C331 O346 1.249 1_554 S
C331 O347 1.242 . S
C332 C331 1.506 . S
C332 C333 1.358 1_554 S
C332 C337 1.382 . S
C333 C332 1.358 1_556 S
C333 C334 1.385 . S
C333 H356 0.930 . S
C334 C333 1.385 . S
C334 C335 1.395 1_556 S
C334 H357 0.929 . S
C335 C334 1.395 1_554 S
C335 C336 1.335 . S
C336 C335 1.335 . S
C336 C337 1.398 . S
C336 H358 0.930 . S
C337 C332 1.382 . S
C337 C336 1.398 . S
C337 H359 0.929 . S
C338 O348 1.271 . S
C338 O349 1.251 . S
C339 O350 1.252 . S
C339 O351 1.272 . S
O340 Sm320 2.531 1_554 S
O340 C322 1.226 1_554 S
O341 Sm320 2.450 . S
O341 C322 1.242 . S
O342 Sm320 2.681 . S
O342 Sm321 2.386 1_556 S
O342 C329 1.271 . S
O343 Sm320 2.464 . S
O343 C329 1.251 . S
O344 Sm320 2.396 1_554 S
O344 C330 1.252 . S
O345 Sm321 2.408 . S
O345 C330 1.272 . S
O346 Sm321 2.538 1_556 S
O346 C331 1.249 1_556 S
O347 Sm321 2.450 . S
O347 C331 1.242 . S
O348 Sm320 2.386 1_554 S
O348 Sm321 2.681 . S
O348 C338 1.271 . S
O349 Sm321 2.464 . S
O349 C338 1.251 . S
O350 Sm321 2.396 1_556 S
O350 C339 1.252 . S
O351 Sm320 2.408 . S
O351 C339 1.272 . S
H352 C324 0.930 . S
H353 C325 0.929 . S
H354 C327 0.930 . S
H355 C328 0.929 . S
H356 C333 0.930 . S
H357 C334 0.929 . S
H358 C336 0.930 . S
H359 C337 0.929 . S
Sm360 C362 2.846 . S
Sm360 O380 2.543 1_565 S
Sm360 O381 2.450 . S
Sm360 O382 2.681 . S
Sm360 O383 2.464 . S
Sm360 O384 2.396 1_565 S
Sm360 O388 2.386 1_565 S
Sm360 O391 2.408 . S
Sm361 C371 2.846 . S
Sm361 O382 2.386 1_545 S
Sm361 O385 2.408 . S
Sm361 O386 2.543 1_545 S
Sm361 O387 2.450 . S
Sm361 O388 2.681 . S
Sm361 O389 2.464 . S
Sm361 O390 2.396 1_545 S
C362 Sm360 2.846 . S
C362 C363 1.506 1_565 S
C362 O380 1.261 1_565 S
C362 O381 1.242 . S
C363 C362 1.506 1_545 S
C363 C364 1.361 . S
C363 C368 1.378 1_545 S
C364 C363 1.361 . S
C364 C365 1.385 . S
C364 H392 0.930 . S
C365 C364 1.385 . S
C365 C366 1.395 . S
C365 H393 0.929 . S
C366 C365 1.395 . S
C366 C367 1.335 1_545 S
C367 C366 1.335 1_565 S
C367 C368 1.398 . S
C367 H394 0.930 . S
C368 C363 1.378 1_565 S
C368 C367 1.398 . S
C368 H395 0.929 . S
C369 O382 1.271 . S
C369 O383 1.251 . S
C370 O384 1.252 . S
C370 O385 1.272 . S
C371 Sm361 2.846 . S
C371 C372 1.504 . S
C371 O386 1.261 1_545 S
C371 O387 1.242 . S
C372 C371 1.504 . S
C372 C373 1.348 1_545 S
C372 C377 1.394 . S
C373 C372 1.348 1_565 S
C373 C374 1.385 . S
C373 H396 0.930 . S
C374 C373 1.385 . S
C374 C375 1.395 . S
C374 H397 0.929 . S
C375 C374 1.395 . S
C375 C376 1.335 1_565 S
C376 C375 1.335 1_545 S
C376 C377 1.398 . S
C376 H398 0.930 . S
C377 C372 1.394 . S
C377 C376 1.398 . S
C377 H399 0.929 . S
C378 O388 1.271 . S
C378 O389 1.251 . S
C379 O390 1.252 . S
C379 O391 1.272 . S
O380 Sm360 2.543 1_545 S
O380 C362 1.261 1_545 S
O381 Sm360 2.450 . S
O381 C362 1.242 . S
O382 Sm360 2.681 . S
O382 Sm361 2.386 1_565 S
O382 C369 1.271 . S
O383 Sm360 2.464 . S
O383 C369 1.251 . S
O384 Sm360 2.396 1_545 S
O384 C370 1.252 . S
O385 Sm361 2.408 . S
O385 C370 1.272 . S
O386 Sm361 2.543 1_565 S
O386 C371 1.261 1_565 S
O387 Sm361 2.450 . S
O387 C371 1.242 . S
O388 Sm360 2.386 1_545 S
O388 Sm361 2.681 . S
O388 C378 1.271 . S
O389 Sm361 2.464 . S
O389 C378 1.251 . S
O390 Sm361 2.396 1_565 S
O390 C379 1.252 . S
O391 Sm360 2.408 . S
O391 C379 1.272 . S
H392 C364 0.930 . S
H393 C365 0.929 . S
H394 C367 0.930 . S
H395 C368 0.929 . S
H396 C373 0.930 . S
H397 C374 0.929 . S
H398 C376 0.930 . S
H399 C377 0.929 . S
Sm400 C402 2.846 . S
Sm400 O420 2.543 . S
Sm400 O421 2.450 . S
Sm400 O422 2.681 . S
Sm400 O423 2.464 . S
Sm400 O424 2.396 . S
Sm400 O428 2.386 . S
Sm400 O431 2.408 . S
Sm401 C411 2.846 . S
Sm401 O422 2.386 . S
Sm401 O425 2.408 . S
Sm401 O426 2.543 . S
Sm401 O427 2.450 . S
Sm401 O428 2.681 . S
Sm401 O429 2.464 . S
Sm401 O430 2.396 . S
C402 Sm400 2.846 . S
C402 C403 1.506 . S
C402 O420 1.261 . S
C402 O421 1.242 . S
C403 C402 1.506 . S
C403 C404 1.358 . S
C403 C408 1.382 . S
C404 C403 1.358 . S
C404 C405 1.385 . S
C404 H432 0.930 . S
C405 C404 1.385 . S
C405 C406 1.395 . S
C405 H433 0.929 . S
C406 C405 1.395 . S
C406 C407 1.335 . S
C407 C406 1.335 . S
C407 C408 1.398 . S
C407 H434 0.930 . S
C408 C403 1.382 . S
C408 C407 1.398 . S
C408 H435 0.929 . S
C409 O422 1.271 . S
C409 O423 1.251 . S
C410 O424 1.252 . S
C410 O425 1.272 . S
C411 Sm401 2.846 . S
C411 C412 1.506 . S
C411 O426 1.261 . S
C411 O427 1.242 . S
C412 C411 1.506 . S
C412 C413 1.358 . S
C412 C417 1.382 . S
C413 C412 1.358 . S
C413 C414 1.385 . S
C413 H436 0.930 . S
C414 C413 1.385 . S
C414 C415 1.395 . S
C414 H437 0.929 . S
C415 C414 1.395 . S
C415 C416 1.335 . S
C416 C415 1.335 . S
C416 C417 1.398 . S
C416 H438 0.930 . S
C417 C412 1.382 . S
C417 C416 1.398 . S
C417 H439 0.929 . S
C418 O428 1.271 . S
C418 O429 1.251 . S
C419 O430 1.252 . S
C419 O431 1.272 . S
O420 Sm400 2.543 . S
O420 C402 1.261 . S
O421 Sm400 2.450 . S
O421 C402 1.242 . S
O422 Sm400 2.681 . S
O422 Sm401 2.386 . S
O422 C409 1.271 . S
O423 Sm400 2.464 . S
O423 C409 1.251 . S
O424 Sm400 2.396 . S
O424 C410 1.252 . S
O425 Sm401 2.408 . S
O425 C410 1.272 . S
O426 Sm401 2.543 . S
O426 C411 1.261 . S
O427 Sm401 2.450 . S
O427 C411 1.242 . S
O428 Sm400 2.386 . S
O428 Sm401 2.681 . S
O428 C418 1.271 . S
O429 Sm401 2.464 . S
O429 C418 1.251 . S
O430 Sm401 2.396 . S
O430 C419 1.252 . S
O431 Sm400 2.408 . S
O431 C419 1.272 . S
H432 C404 0.930 . S
H433 C405 0.929 . S
H434 C407 0.930 . S
H435 C408 0.929 . S
H436 C413 0.930 . S
H437 C414 0.929 . S
H438 C416 0.930 . S
H439 C417 0.929 . S
Sm440 C442 2.846 . S
Sm440 O460 2.543 1_455 S
Sm440 O461 2.450 . S
Sm440 O462 2.681 . S
Sm440 O463 2.464 . S
Sm440 O464 2.396 1_455 S
Sm440 O468 2.386 1_455 S
Sm440 O471 2.408 . S
Sm441 C451 2.846 . S
Sm441 O462 2.386 1_655 S
Sm441 O465 2.408 . S
Sm441 O466 2.543 1_655 S
Sm441 O467 2.450 . S
Sm441 O468 2.681 . S
Sm441 O469 2.464 . S
Sm441 O470 2.396 1_655 S
C442 Sm440 2.846 . S
C442 C443 1.506 . S
C442 O460 1.261 1_455 S
C442 O461 1.242 . S
C443 C442 1.506 . S
C443 C444 1.358 1_455 S
C443 C448 1.382 . S
C444 C443 1.358 1_655 S
C444 C445 1.385 . S
C444 H472 0.930 . S
C445 C444 1.385 . S
C445 C446 1.395 . S
C445 H473 0.929 . S
C446 C445 1.395 . S
C446 C447 1.335 1_655 S
C447 C446 1.335 1_455 S
C447 C448 1.398 . S
C447 H474 0.930 . S
C448 C443 1.382 . S
C448 C447 1.398 . S
C448 H475 0.929 . S
C449 O462 1.271 . S
C449 O463 1.251 . S
C450 O464 1.252 . S
C450 O465 1.272 . S
C451 Sm441 2.846 . S
C451 C452 1.506 . S
C451 O466 1.261 1_655 S
C451 O467 1.242 . S
C452 C451 1.506 . S
C452 C453 1.358 1_655 S
C452 C457 1.382 . S
C453 C452 1.358 1_455 S
C453 C454 1.385 . S
C453 H476 0.930 . S
C454 C453 1.385 . S
C454 C455 1.395 . S
C454 H477 0.929 . S
C455 C454 1.395 . S
C455 C456 1.335 1_455 S
C456 C455 1.335 1_655 S
C456 C457 1.398 . S
C456 H478 0.930 . S
C457 C452 1.382 . S
C457 C456 1.398 . S
C457 H479 0.929 . S
C458 O468 1.271 . S
C458 O469 1.251 . S
C459 O470 1.252 . S
C459 O471 1.272 . S
O460 Sm440 2.543 1_655 S
O460 C442 1.261 1_655 S
O461 Sm440 2.450 . S
O461 C442 1.242 . S
O462 Sm440 2.681 . S
O462 Sm441 2.386 1_455 S
O462 C449 1.271 . S
O463 Sm440 2.464 . S
O463 C449 1.251 . S
O464 Sm440 2.396 1_655 S
O464 C450 1.252 . S
O465 Sm441 2.408 . S
O465 C450 1.272 . S
O466 Sm441 2.543 1_455 S
O466 C451 1.261 1_455 S
O467 Sm441 2.450 . S
O467 C451 1.242 . S
O468 Sm440 2.386 1_655 S
O468 Sm441 2.681 . S
O468 C458 1.271 . S
O469 Sm441 2.464 . S
O469 C458 1.251 . S
O470 Sm441 2.396 1_455 S
O470 C459 1.252 . S
O471 Sm440 2.408 . S
O471 C459 1.272 . S
H472 C444 0.930 . S
H473 C445 0.929 . S
H474 C447 0.930 . S
H475 C448 0.929 . S
H476 C453 0.930 . S
H477 C454 0.929 . S
H478 C456 0.930 . S
H479 C457 0.929 . S
Sm480 C482 2.846 . S
Sm480 O500 2.543 . S
Sm480 O501 2.450 . S
Sm480 O502 2.681 . S
Sm480 O503 2.464 . S
Sm480 O504 2.396 . S
Sm480 O508 2.386 . S
Sm480 O511 2.408 . S
Sm481 C491 2.846 . S
Sm481 O502 2.386 . S
Sm481 O505 2.408 . S
Sm481 O506 2.543 . S
Sm481 O507 2.450 . S
Sm481 O508 2.681 . S
Sm481 O509 2.464 . S
Sm481 O510 2.396 . S
C482 Sm480 2.846 . S
C482 C483 1.506 . S
C482 O500 1.261 . S
C482 O501 1.242 . S
C483 C482 1.506 . S
C483 C484 1.358 . S
C483 C488 1.382 . S
C484 C483 1.358 . S
C484 C485 1.385 . S
C484 H512 0.930 . S
C485 C484 1.385 . S
C485 C486 1.395 . S
C485 H513 0.929 . S
C486 C485 1.395 . S
C486 C487 1.335 . S
C487 C486 1.335 . S
C487 C488 1.398 . S
C487 H514 0.930 . S
C488 C483 1.382 . S
C488 C487 1.398 . S
C488 H515 0.929 . S
C489 O502 1.271 . S
C489 O503 1.251 . S
C490 O504 1.252 . S
C490 O505 1.272 . S
C491 Sm481 2.846 . S
C491 C492 1.506 . S
C491 O506 1.261 . S
C491 O507 1.242 . S
C492 C491 1.506 . S
C492 C493 1.358 . S
C492 C497 1.382 . S
C493 C492 1.358 . S
C493 C494 1.385 . S
C493 H516 0.930 . S
C494 C493 1.385 . S
C494 C495 1.395 . S
C494 H517 0.929 . S
C495 C494 1.395 . S
C495 C496 1.335 . S
C496 C495 1.335 . S
C496 C497 1.398 . S
C496 H518 0.930 . S
C497 C492 1.382 . S
C497 C496 1.398 . S
C497 H519 0.929 . S
C498 O508 1.271 . S
C498 O509 1.251 . S
C499 O510 1.252 . S
C499 O511 1.272 . S
O500 Sm480 2.543 . S
O500 C482 1.261 . S
O501 Sm480 2.450 . S
O501 C482 1.242 . S
O502 Sm480 2.681 . S
O502 Sm481 2.386 . S
O502 C489 1.271 . S
O503 Sm480 2.464 . S
O503 C489 1.251 . S
O504 Sm480 2.396 . S
O504 C490 1.252 . S
O505 Sm481 2.408 . S
O505 C490 1.272 . S
O506 Sm481 2.543 . S
O506 C491 1.261 . S
O507 Sm481 2.450 . S
O507 C491 1.242 . S
O508 Sm480 2.386 . S
O508 Sm481 2.681 . S
O508 C498 1.271 . S
O509 Sm481 2.464 . S
O509 C498 1.251 . S
O510 Sm481 2.396 . S
O510 C499 1.252 . S
O511 Sm480 2.408 . S
O511 C499 1.272 . S
H512 C484 0.930 . S
H513 C485 0.929 . S
H514 C487 0.930 . S
H515 C488 0.929 . S
H516 C493 0.930 . S
H517 C494 0.929 . S
H518 C496 0.930 . S
H519 C497 0.929 . S
Sm520 C522 2.846 . S
Sm520 O540 2.531 1_556 S
Sm520 O541 2.450 . S
Sm520 O542 2.681 . S
Sm520 O543 2.464 . S
Sm520 O544 2.396 1_556 S
Sm520 O548 2.386 1_556 S
Sm520 O551 2.408 . S
Sm521 C531 2.846 . S
Sm521 O542 2.386 1_554 S
Sm521 O545 2.408 . S
Sm521 O546 2.538 1_554 S
Sm521 O547 2.450 . S
Sm521 O548 2.681 . S
Sm521 O549 2.464 . S
Sm521 O550 2.396 1_554 S
C522 Sm520 2.846 . S
C522 C523 1.506 . S
C522 O540 1.226 1_556 S
C522 O541 1.242 . S
C523 C522 1.506 . S
C523 C524 1.358 1_556 S
C523 C528 1.382 . S
C524 C523 1.358 1_554 S
C524 C525 1.385 . S
C524 H552 0.930 . S
C525 C524 1.385 . S
C525 C526 1.395 1_554 S
C525 H553 0.929 . S
C526 C525 1.395 1_556 S
C526 C527 1.335 . S
C527 C526 1.335 . S
C527 C528 1.398 . S
C527 H554 0.930 . S
C528 C523 1.382 . S
C528 C527 1.398 . S
C528 H555 0.929 . S
C529 O542 1.271 . S
C529 O543 1.251 . S
C530 O544 1.252 . S
C530 O545 1.272 . S
C531 Sm521 2.846 . S
C531 C532 1.506 . S
C531 O546 1.249 1_554 S
C531 O547 1.242 . S
C532 C531 1.506 . S
C532 C533 1.358 1_554 S
C532 C537 1.382 . S
C533 C532 1.358 1_556 S
C533 C534 1.385 . S
C533 H556 0.930 . S
C534 C533 1.385 . S
C534 C535 1.395 1_556 S
C534 H557 0.929 . S
C535 C534 1.395 1_554 S
C535 C536 1.335 . S
C536 C535 1.335 . S
C536 C537 1.398 . S
C536 H558 0.930 . S
C537 C532 1.382 . S
C537 C536 1.398 . S
C537 H559 0.929 . S
C538 O548 1.271 . S
C538 O549 1.251 . S
C539 O550 1.252 . S
C539 O551 1.272 . S
O540 Sm520 2.531 1_554 S
O540 C522 1.226 1_554 S
O541 Sm520 2.450 . S
O541 C522 1.242 . S
O542 Sm520 2.681 . S
O542 Sm521 2.386 1_556 S
O542 C529 1.271 . S
O543 Sm520 2.464 . S
O543 C529 1.251 . S
O544 Sm520 2.396 1_554 S
O544 C530 1.252 . S
O545 Sm521 2.408 . S
O545 C530 1.272 . S
O546 Sm521 2.538 1_556 S
O546 C531 1.249 1_556 S
O547 Sm521 2.450 . S
O547 C531 1.242 . S
O548 Sm520 2.386 1_554 S
O548 Sm521 2.681 . S
O548 C538 1.271 . S
O549 Sm521 2.464 . S
O549 C538 1.251 . S
O550 Sm521 2.396 1_556 S
O550 C539 1.252 . S
O551 Sm520 2.408 . S
O551 C539 1.272 . S
H552 C524 0.930 . S
H553 C525 0.929 . S
H554 C527 0.930 . S
H555 C528 0.929 . S
H556 C533 0.930 . S
H557 C534 0.929 . S
H558 C536 0.930 . S
H559 C537 0.929 . S
Sm560 C562 2.846 . S
Sm560 O580 2.543 . S
Sm560 O581 2.450 . S
Sm560 O582 2.681 . S
Sm560 O583 2.464 . S
Sm560 O584 2.396 . S
Sm560 O588 2.386 1_565 S
Sm560 O591 2.408 1_565 S
Sm561 C571 2.846 . S
Sm561 O582 2.386 1_545 S
Sm561 O585 2.408 1_545 S
Sm561 O586 2.543 . S
Sm561 O587 2.450 . S
Sm561 O588 2.681 . S
Sm561 O589 2.464 . S
Sm561 O590 2.396 . S
C562 Sm560 2.846 . S
C562 C563 1.506 . S
C562 O580 1.261 . S
C562 O581 1.242 . S
C563 C562 1.506 . S
C563 C564 1.358 . S
C563 C568 1.382 . S
C564 C563 1.358 . S
C564 C565 1.385 . S
C564 H592 0.930 . S
C565 C564 1.385 . S
C565 C566 1.395 . S
C565 H593 0.929 . S
C566 C565 1.395 . S
C566 C567 1.335 . S
C567 C566 1.335 . S
C567 C568 1.398 . S
C567 H594 0.930 . S
C568 C563 1.382 . S
C568 C567 1.398 . S
C568 H595 0.929 . S
C569 O582 1.271 . S
C569 O583 1.251 . S
C570 O584 1.252 . S
C570 O585 1.272 . S
C571 Sm561 2.846 . S
C571 C572 1.506 . S
C571 O586 1.261 . S
C571 O587 1.242 . S
C572 C571 1.506 . S
C572 C573 1.358 . S
C572 C577 1.382 . S
C573 C572 1.358 . S
C573 C574 1.385 . S
C573 H596 0.930 . S
C574 C573 1.385 . S
C574 C575 1.395 . S
C574 H597 0.929 . S
C575 C574 1.395 . S
C575 C576 1.335 . S
C576 C575 1.335 . S
C576 C577 1.398 . S
C576 H598 0.930 . S
C577 C572 1.382 . S
C577 C576 1.398 . S
C577 H599 0.929 . S
C578 O588 1.271 . S
C578 O589 1.251 . S
C579 O590 1.252 . S
C579 O591 1.272 . S
O580 Sm560 2.543 . S
O580 C562 1.261 . S
O581 Sm560 2.450 . S
O581 C562 1.242 . S
O582 Sm560 2.681 . S
O582 Sm561 2.386 1_565 S
O582 C569 1.271 . S
O583 Sm560 2.464 . S
O583 C569 1.251 . S
O584 Sm560 2.396 . S
O584 C570 1.252 . S
O585 Sm561 2.408 1_565 S
O585 C570 1.272 . S
O586 Sm561 2.543 . S
O586 C571 1.261 . S
O587 Sm561 2.450 . S
O587 C571 1.242 . S
O588 Sm560 2.386 1_545 S
O588 Sm561 2.681 . S
O588 C578 1.271 . S
O589 Sm561 2.464 . S
O589 C578 1.251 . S
O590 Sm561 2.396 . S
O590 C579 1.252 . S
O591 Sm560 2.408 1_545 S
O591 C579 1.272 . S
H592 C564 0.930 . S
H593 C565 0.929 . S
H594 C567 0.930 . S
H595 C568 0.929 . S
H596 C573 0.930 . S
H597 C574 0.929 . S
H598 C576 0.930 . S
H599 C577 0.929 . S
Sm600 C602 2.846 . S
Sm600 O620 2.543 . S
Sm600 O621 2.450 . S
Sm600 O622 2.681 . S
Sm600 O623 2.464 . S
Sm600 O624 2.396 1_554 S
Sm600 O628 2.386 1_554 S
Sm600 O631 2.408 . S
Sm601 C611 2.846 . S
Sm601 O622 2.386 1_556 S
Sm601 O625 2.408 . S
Sm601 O626 2.543 . S
Sm601 O627 2.450 . S
Sm601 O628 2.681 . S
Sm601 O629 2.464 . S
Sm601 O630 2.396 1_556 S
C602 Sm600 2.846 . S
C602 C603 1.506 . S
C602 O620 1.261 . S
C602 O621 1.242 . S
C603 C602 1.506 . S
C603 C604 1.358 . S
C603 C608 1.382 . S
C604 C603 1.358 . S
C604 C605 1.385 . S
C604 H632 0.930 1_554 S
C605 C604 1.385 . S
C605 C606 1.395 . S
C605 H633 0.928 1_554 S
C606 C605 1.395 . S
C606 C607 1.335 . S
C607 C606 1.335 . S
C607 C608 1.398 . S
C607 H634 0.930 . S
C608 C603 1.382 . S
C608 C607 1.398 . S
C608 H635 0.929 . S
C609 O622 1.271 . S
C609 O623 1.251 . S
C610 O624 1.252 . S
C610 O625 1.272 . S
C611 Sm601 2.846 . S
C611 C612 1.506 . S
C611 O626 1.261 . S
C611 O627 1.242 . S
C612 C611 1.506 . S
C612 C613 1.358 . S
C612 C617 1.382 . S
C613 C612 1.358 . S
C613 C614 1.385 . S
C613 H636 0.930 1_556 S
C614 C613 1.385 . S
C614 C615 1.395 . S
C614 H637 0.904 1_556 S
C615 C614 1.395 . S
C615 C616 1.335 . S
C616 C615 1.335 . S
C616 C617 1.398 . S
C616 H638 0.930 . S
C617 C612 1.382 . S
C617 C616 1.398 . S
C617 H639 0.929 . S
C618 O628 1.271 . S
C618 O629 1.251 . S
C619 O630 1.252 . S
C619 O631 1.272 . S
O620 Sm600 2.543 . S
O620 C602 1.261 . S
O621 Sm600 2.450 . S
O621 C602 1.242 . S
O622 Sm600 2.681 . S
O622 Sm601 2.386 1_554 S
O622 C609 1.271 . S
O623 Sm600 2.464 . S
O623 C609 1.251 . S
O624 Sm600 2.396 1_556 S
O624 C610 1.252 . S
O625 Sm601 2.408 . S
O625 C610 1.272 . S
O626 Sm601 2.543 . S
O626 C611 1.261 . S
O627 Sm601 2.450 . S
O627 C611 1.242 . S
O628 Sm600 2.386 1_556 S
O628 Sm601 2.681 . S
O628 C618 1.271 . S
O629 Sm601 2.464 . S
O629 C618 1.251 . S
O630 Sm601 2.396 1_554 S
O630 C619 1.252 . S
O631 Sm600 2.408 . S
O631 C619 1.272 . S
H632 C604 0.930 1_556 S
H633 C605 0.928 1_556 S
H634 C607 0.930 . S
H635 C608 0.929 . S
H636 C613 0.930 1_554 S
H637 C614 0.904 1_554 S
H638 C616 0.930 . S
H639 C617 0.929 . S
C640 C641 1.349 . S
C640 C642 1.327 . S
C640 H665 0.950 . S
C641 C640 1.349 . S
C641 C657 1.313 1_655 S
C642 C640 1.327 . S
C642 C661 1.429 . S
C642 H666 0.950 . S
C643 C660 1.574 . S
C643 C662 1.368 1_455 S
C643 H667 0.949 . S
H644 C648 0.949 . S
C645 C646 1.349 . S
C645 C647 1.327 . S
C645 H668 0.950 . S
C646 C645 1.349 . S
C646 C658 1.349 1_455 S
C647 C645 1.327 . S
C647 C663 1.429 . S
C647 H669 0.950 . S
C648 H644 0.949 . S
C648 C656 1.574 . S
C648 C664 1.368 . S
H649 C657 0.963 . S
H650 C655 0.950 . S
H651 C656 0.949 . S
H652 C658 0.950 . S
H653 C659 0.950 . S
H654 C660 0.949 . S
C655 H650 0.950 . S
C655 C657 1.352 . S
C655 C661 1.429 1_455 S
C656 C648 1.574 . S
C656 H651 0.949 . S
C656 C662 1.368 . S
C657 C641 1.313 1_455 S
C657 H649 0.963 . S
C657 C655 1.352 . S
C658 C646 1.349 1_655 S
C658 H652 0.950 . S
C658 C659 1.327 . S
C659 H653 0.950 . S
C659 C658 1.327 . S
C659 C663 1.429 1_655 S
C660 C643 1.574 . S
C660 H654 0.949 . S
C660 C664 1.368 1_455 S
C661 C642 1.429 . S
C661 C655 1.429 1_655 S
C661 C662 1.523 . S
C662 C643 1.368 1_655 S
C662 C656 1.368 . S
C662 C661 1.523 . S
C663 C647 1.429 . S
C663 C659 1.429 1_455 S
C663 C664 1.523 1_455 S
C664 C648 1.368 . S
C664 C660 1.368 1_655 S
C664 C663 1.523 1_655 S
H665 C640 0.950 . S
H666 C642 0.950 . S
H667 C643 0.949 . S
H668 C645 0.950 . S
H669 C647 0.950 . S
C670 C671 1.349 . S
C670 C672 1.327 . S
C670 H695 0.950 . S
C671 C670 1.349 . S
C671 C687 1.349 . S
C672 C670 1.327 . S
C672 C691 1.429 . S
C672 H696 0.950 . S
C673 C690 1.574 . S
C673 C692 1.368 . S
C673 H697 0.949 . S
H674 C678 0.949 . S
C675 C676 1.349 . S
C675 C677 1.327 . S
C675 H698 0.950 . S
C676 C675 1.349 . S
C676 C688 1.349 . S
C677 C675 1.327 . S
C677 C693 1.429 . S
C677 H699 0.950 . S
C678 H674 0.949 . S
C678 C686 1.574 . S
C678 C694 1.368 . S
H679 C687 0.950 . S
H680 C685 0.950 . S
H681 C686 0.949 . S
H682 C688 0.950 . S
H683 C689 0.950 . S
H684 C690 0.949 . S
C685 H680 0.950 . S
C685 C687 1.327 . S
C685 C691 1.429 . S
C686 C678 1.574 . S
C686 H681 0.949 . S
C686 C692 1.368 . S
C687 C671 1.349 . S
C687 H679 0.950 . S
C687 C685 1.327 . S
C688 C676 1.349 . S
C688 H682 0.950 . S
C688 C689 1.327 . S
C689 H683 0.950 . S
C689 C688 1.327 . S
C689 C693 1.429 . S
C690 C673 1.574 . S
C690 H684 0.949 . S
C690 C694 1.368 . S
C691 C672 1.429 . S
C691 C685 1.429 . S
C691 C692 1.523 . S
C692 C673 1.368 . S
C692 C686 1.368 . S
C692 C691 1.523 . S
C693 C677 1.429 . S
C693 C689 1.429 . S
C693 C694 1.523 . S
C694 C678 1.368 . S
C694 C690 1.368 . S
C694 C693 1.523 . S
H695 C670 0.950 . S
H696 C672 0.950 . S
H697 C673 0.949 . S
H698 C675 0.950 . S
H699 C677 0.950 . S
C700 C701 1.349 . S
C700 C702 1.327 . S
C700 H725 0.950 . S
C701 C700 1.349 . S
C701 C717 1.349 . S
C702 C700 1.327 . S
C702 C721 1.429 . S
C702 H726 0.950 . S
C703 C720 1.574 . S
C703 C722 1.368 . S
C703 H727 0.949 . S
H704 C708 0.949 . S
C705 C706 1.349 . S
C705 C707 1.327 . S
C705 H728 0.950 . S
C706 C705 1.349 . S
C706 C718 1.349 . S
C707 C705 1.327 . S
C707 C723 1.429 . S
C707 H729 0.950 . S
C708 H704 0.949 . S
C708 C716 1.574 . S
C708 C724 1.368 . S
H709 C717 0.950 . S
H710 C715 0.950 . S
H711 C716 0.949 . S
H712 C718 0.950 . S
H713 C719 0.950 . S
H714 C720 0.949 . S
C715 H710 0.950 . S
C715 C717 1.327 . S
C715 C721 1.429 . S
C716 C708 1.574 . S
C716 H711 0.949 . S
C716 C722 1.368 . S
C717 C701 1.349 . S
C717 H709 0.950 . S
C717 C715 1.327 . S
C718 C706 1.349 . S
C718 H712 0.950 . S
C718 C719 1.327 . S
C719 H713 0.950 . S
C719 C718 1.327 . S
C719 C723 1.429 . S
C720 C703 1.574 . S
C720 H714 0.949 . S
C720 C724 1.368 . S
C721 C702 1.429 . S
C721 C715 1.429 . S
C721 C722 1.523 . S
C722 C703 1.368 . S
C722 C716 1.368 . S
C722 C721 1.523 . S
C723 C707 1.429 . S
C723 C719 1.429 . S
C723 C724 1.523 . S
C724 C708 1.368 . S
C724 C720 1.368 . S
C724 C723 1.523 . S
H725 C700 0.950 . S
H726 C702 0.950 . S
H727 C703 0.949 . S
H728 C705 0.950 . S
H729 C707 0.950 . S
C730 C731 1.349 . S
C730 C732 1.327 . S
C730 H755 0.950 . S
C731 C730 1.349 . S
C731 C747 1.349 . S
C732 C730 1.327 . S
C732 C751 1.429 . S
C732 H756 0.950 . S
C733 C750 1.574 . S
C733 C752 1.368 . S
C733 H757 0.949 . S
H734 C738 0.926 1_565 S
C735 C736 1.368 . S
C735 C737 1.308 1_565 S
C735 H758 0.952 1_565 S
C736 C735 1.368 . S
C736 C748 1.349 . S
C737 C735 1.308 1_545 S
C737 C753 1.428 . S
C737 H759 0.950 . S
C738 H734 0.926 1_545 S
C738 C746 1.599 . S
C738 C754 1.371 . S
H739 C747 0.950 . S
H740 C745 0.950 . S
H741 C746 0.949 . S
H742 C748 0.950 . S
H743 C749 0.950 . S
H744 C750 0.949 . S
C745 H740 0.950 . S
C745 C747 1.327 . S
C745 C751 1.429 . S
C746 C738 1.599 . S
C746 H741 0.949 . S
C746 C752 1.368 . S
C747 C731 1.349 . S
C747 H739 0.950 . S
C747 C745 1.327 . S
C748 C736 1.349 . S
C748 H742 0.950 . S
C748 C749 1.327 . S
C749 H743 0.950 . S
C749 C748 1.327 . S
C749 C753 1.421 1_565 S
C750 C733 1.574 . S
C750 H744 0.949 . S
C750 C754 1.368 . S
C751 C732 1.429 . S
C751 C745 1.429 . S
C751 C752 1.523 . S
C752 C733 1.368 . S
C752 C746 1.368 . S
C752 C751 1.523 . S
C753 C737 1.428 . S
C753 C749 1.421 1_545 S
C753 C754 1.530 . S
C754 C738 1.371 . S
C754 C750 1.368 . S
C754 C753 1.530 . S
H755 C730 0.950 . S
H756 C732 0.950 . S
H757 C733 0.949 . S
H758 C735 0.952 1_545 S
H759 C737 0.950 . S
C760 C761 1.349 . S
C760 C762 1.327 1_565 S
C760 H785 0.950 1_565 S
C761 C760 1.349 . S
C761 C777 1.349 . S
C762 C760 1.327 1_545 S
C762 C781 1.429 1_545 S
C762 H786 0.950 . S
C763 C780 1.574 . S
C763 C782 1.368 . S
C763 H787 0.949 . S
H764 C768 0.949 . S
C765 C766 1.349 1_565 S
C765 C767 1.327 . S
C765 H788 0.950 . S
C766 C765 1.349 1_545 S
C766 C778 1.349 . S
C767 C765 1.327 . S
C767 C783 1.426 1_565 S
C767 H789 0.950 . S
C768 H764 0.949 . S
C768 C776 1.574 . S
C768 C784 1.368 1_545 S
H769 C777 0.950 . S
H770 C775 0.950 . S
H771 C776 0.949 . S
H772 C778 0.950 . S
H773 C779 0.950 . S
H774 C780 0.949 . S
C775 H770 0.950 . S
C775 C777 1.327 . S
C775 C781 1.429 . S
C776 C768 1.574 . S
C776 H771 0.949 . S
C776 C782 1.368 1_545 S
C777 C761 1.349 . S
C777 H769 0.950 . S
C777 C775 1.327 . S
C778 C766 1.349 . S
C778 H772 0.950 . S
C778 C779 1.327 . S
C779 H773 0.950 . S
C779 C778 1.327 . S
C779 C783 1.433 . S
C780 C763 1.574 . S
C780 H774 0.949 . S
C780 C784 1.368 . S
C781 C762 1.429 1_565 S
C781 C775 1.429 . S
C781 C782 1.523 . S
C782 C763 1.368 . S
C782 C776 1.368 1_565 S
C782 C781 1.523 . S
C783 C767 1.426 1_545 S
C783 C779 1.433 . S
C783 C784 1.520 1_545 S
C784 C768 1.368 1_565 S
C784 C780 1.368 . S
C784 C783 1.520 1_565 S
H785 C760 0.950 1_545 S
H786 C762 0.950 . S
H787 C763 0.949 . S
H788 C765 0.950 . S
H789 C767 0.950 . S
C790 C791 1.349 1_655 S
C790 C792 1.327 . S
C790 H815 0.950 . S
C791 C790 1.349 1_455 S
C791 C807 1.349 . S
C792 C790 1.327 . S
C792 C811 1.429 1_655 S
C792 H816 0.950 . S
C793 C810 1.574 . S
C793 C812 1.368 . S
C793 H817 0.949 . S
H794 C798 0.949 . S
C795 C796 1.349 1_455 S
C795 C797 1.327 . S
C795 H818 0.950 . S
C796 C795 1.349 1_655 S
C796 C808 1.349 . S
C797 C795 1.327 . S
C797 C813 1.415 1_455 S
C797 H819 0.950 . S
C798 H794 0.949 . S
C798 C806 1.574 . S
C798 C814 1.368 1_655 S
H799 C807 0.950 . S
H800 C805 0.950 . S
H801 C806 0.949 . S
H802 C808 0.950 . S
H803 C809 0.950 . S
H804 C810 0.949 . S
C805 H800 0.950 . S
C805 C807 1.327 . S
C805 C811 1.429 . S
C806 C798 1.574 . S
C806 H801 0.949 . S
C806 C812 1.368 1_655 S
C807 C791 1.349 . S
C807 H799 0.950 . S
C807 C805 1.327 . S
C808 C796 1.349 . S
C808 H802 0.950 . S
C808 C809 1.327 . S
C809 H803 0.950 . S
C809 C808 1.327 . S
C809 C813 1.456 . S
C810 C793 1.574 . S
C810 H804 0.949 . S
C810 C814 1.368 . S
C811 C792 1.429 1_455 S
C811 C805 1.429 . S
C811 C812 1.523 . S
C812 C793 1.368 . S
C812 C806 1.368 1_455 S
C812 C811 1.523 . S
C813 C797 1.415 1_655 S
C813 C809 1.456 . S
C813 C814 1.511 1_655 S
C814 C798 1.368 1_455 S
C814 C810 1.368 . S
C814 C813 1.511 1_455 S
H815 C790 0.950 . S
H816 C792 0.950 . S
H817 C793 0.949 . S
H818 C795 0.950 . S
H819 C797 0.950 . S
C820 C821 1.349 . S
C820 C822 1.327 . S
C820 H845 0.950 . S
C821 C820 1.349 . S
C821 C837 1.349 . S
C822 C820 1.327 . S
C822 C841 1.429 . S
C822 H846 0.950 . S
C823 C840 1.574 . S
C823 C842 1.368 . S
C823 H847 0.949 . S
H824 C828 0.949 . S
C825 C826 1.349 . S
C825 C827 1.327 . S
C825 H848 0.950 . S
C826 C825 1.349 . S
C826 C838 1.349 . S
C827 C825 1.327 . S
C827 C843 1.429 . S
C827 H849 0.950 . S
C828 H824 0.949 . S
C828 C836 1.574 . S
C828 C844 1.368 . S
H829 C837 0.950 . S
H830 C835 0.950 . S
H831 C836 0.949 . S
H832 C838 0.950 . S
H833 C839 0.950 . S
H834 C840 0.949 . S
C835 H830 0.950 . S
C835 C837 1.327 . S
C835 C841 1.429 . S
C836 C828 1.574 . S
C836 H831 0.949 . S
C836 C842 1.368 . S
C837 C821 1.349 . S
C837 H829 0.950 . S
C837 C835 1.327 . S
C838 C826 1.349 . S
C838 H832 0.950 . S
C838 C839 1.327 . S
C839 H833 0.950 . S
C839 C838 1.327 . S
C839 C843 1.429 . S
C840 C823 1.574 . S
C840 H834 0.949 . S
C840 C844 1.368 . S
C841 C822 1.429 . S
C841 C835 1.429 . S
C841 C842 1.523 . S
C842 C823 1.368 . S
C842 C836 1.368 . S
C842 C841 1.523 . S
C843 C827 1.429 . S
C843 C839 1.429 . S
C843 C844 1.523 . S
C844 C828 1.368 . S
C844 C840 1.368 . S
C844 C843 1.523 . S
H845 C820 0.950 . S
H846 C822 0.950 . S
H847 C823 0.949 . S
H848 C825 0.950 . S
H849 C827 0.950 . S
C850 C851 1.349 . S
C850 C852 1.327 . S
C850 H875 0.950 . S
C851 C850 1.349 . S
C851 C867 1.349 . S
C852 C850 1.327 . S
C852 C871 1.429 . S
C852 H876 0.950 . S
C853 C870 1.574 . S
C853 C872 1.368 . S
C853 H877 0.949 . S
H854 C858 0.949 . S
C855 C856 1.349 . S
C855 C857 1.327 . S
C855 H878 0.950 . S
C856 C855 1.349 . S
C856 C868 1.349 . S
C857 C855 1.327 . S
C857 C873 1.429 . S
C857 H879 0.950 . S
C858 H854 0.949 . S
C858 C866 1.574 . S
C858 C874 1.368 . S
H859 C867 0.950 . S
H860 C865 0.950 . S
H861 C866 0.949 . S
H862 C868 0.950 . S
H863 C869 0.950 . S
H864 C870 0.949 . S
C865 H860 0.950 . S
C865 C867 1.327 . S
C865 C871 1.429 . S
C866 C858 1.574 . S
C866 H861 0.949 . S
C866 C872 1.368 . S
C867 C851 1.349 . S
C867 H859 0.950 . S
C867 C865 1.327 . S
C868 C856 1.349 . S
C868 H862 0.950 . S
C868 C869 1.327 . S
C869 H863 0.950 . S
C869 C868 1.327 . S
C869 C873 1.429 . S
C870 C853 1.574 . S
C870 H864 0.949 . S
C870 C874 1.368 . S
C871 C852 1.429 . S
C871 C865 1.429 . S
C871 C872 1.523 . S
C872 C853 1.368 . S
C872 C866 1.368 . S
C872 C871 1.523 . S
C873 C857 1.429 . S
C873 C869 1.429 . S
C873 C874 1.523 . S
C874 C858 1.368 . S
C874 C870 1.368 . S
C874 C873 1.523 . S
H875 C850 0.950 . S
H876 C852 0.950 . S
H877 C853 0.949 . S
H878 C855 0.950 . S
H879 C857 0.950 . S
C880 C881 1.349 . S
C880 C882 1.327 . S
C880 H905 0.950 . S
C881 C880 1.349 . S
C881 C897 1.349 . S
C882 C880 1.327 . S
C882 C901 1.429 . S
C882 H906 0.950 . S
C883 C900 1.574 . S
C883 C902 1.368 . S
C883 H907 0.949 . S
H884 C888 0.949 . S
C885 C886 1.349 . S
C885 C887 1.327 . S
C885 H908 0.950 . S
C886 C885 1.349 . S
C886 C898 1.349 . S
C887 C885 1.327 . S
C887 C903 1.429 . S
C887 H909 0.950 . S
C888 H884 0.949 . S
C888 C896 1.574 . S
C888 C904 1.368 . S
H889 C897 0.950 . S
H890 C895 0.950 . S
H891 C896 0.949 . S
H892 C898 0.950 . S
H893 C899 0.950 . S
H894 C900 0.949 . S
C895 H890 0.950 . S
C895 C897 1.327 . S
C895 C901 1.429 . S
C896 C888 1.574 . S
C896 H891 0.949 . S
C896 C902 1.368 . S
C897 C881 1.349 . S
C897 H889 0.950 . S
C897 C895 1.327 . S
C898 C886 1.349 . S
C898 H892 0.950 . S
C898 C899 1.327 . S
C899 H893 0.950 . S
C899 C898 1.327 . S
C899 C903 1.429 . S
C900 C883 1.574 . S
C900 H894 0.949 . S
C900 C904 1.368 . S
C901 C882 1.429 . S
C901 C895 1.429 . S
C901 C902 1.523 . S
C902 C883 1.368 . S
C902 C896 1.368 . S
C902 C901 1.523 . S
C903 C887 1.429 . S
C903 C899 1.429 . S
C903 C904 1.523 . S
C904 C888 1.368 . S
C904 C900 1.368 . S
C904 C903 1.523 . S
H905 C880 0.950 . S
H906 C882 0.950 . S
H907 C883 0.949 . S
H908 C885 0.950 . S
H909 C887 0.950 . S
C910 C911 1.349 . S
C910 C912 1.327 . S
C910 H935 0.950 . S
C911 C910 1.349 . S
C911 C927 1.349 . S
C912 C910 1.327 . S
C912 C931 1.429 . S
C912 H936 0.950 . S
C913 C930 1.574 . S
C913 C932 1.368 . S
C913 H937 0.949 . S
H914 C918 0.949 . S
C915 C916 1.349 . S
C915 C917 1.327 . S
C915 H938 0.950 . S
C916 C915 1.349 . S
C916 C928 1.349 . S
C917 C915 1.327 . S
C917 C933 1.429 . S
C917 H939 0.950 . S
C918 H914 0.949 . S
C918 C926 1.574 . S
C918 C934 1.368 . S
H919 C927 0.950 . S
H920 C925 0.950 . S
H921 C926 0.949 . S
H922 C928 0.950 . S
H923 C929 0.950 . S
H924 C930 0.949 . S
C925 H920 0.950 . S
C925 C927 1.327 . S
C925 C931 1.429 . S
C926 C918 1.574 . S
C926 H921 0.949 . S
C926 C932 1.368 . S
C927 C911 1.349 . S
C927 H919 0.950 . S
C927 C925 1.327 . S
C928 C916 1.349 . S
C928 H922 0.950 . S
C928 C929 1.327 . S
C929 H923 0.950 . S
C929 C928 1.327 . S
C929 C933 1.429 . S
C930 C913 1.574 . S
C930 H924 0.949 . S
C930 C934 1.368 . S
C931 C912 1.429 . S
C931 C925 1.429 . S
C931 C932 1.523 . S
C932 C913 1.368 . S
C932 C926 1.368 . S
C932 C931 1.523 . S
C933 C917 1.429 . S
C933 C929 1.429 . S
C933 C934 1.523 . S
C934 C918 1.368 . S
C934 C930 1.368 . S
C934 C933 1.523 . S
H935 C910 0.950 . S
H936 C912 0.950 . S
H937 C913 0.949 . S
H938 C915 0.950 . S
H939 C917 0.950 . S
C940 C941 1.349 . S
C940 C942 1.327 1_565 S
C940 H965 0.950 1_565 S
C941 C940 1.349 . S
C941 C957 1.349 . S
C942 C940 1.327 1_545 S
C942 C961 1.429 1_545 S
C942 H966 0.950 . S
C943 C960 1.574 . S
C943 C962 1.368 . S
C943 H967 0.949 . S
H944 C948 0.949 . S
C945 C946 1.349 1_565 S
C945 C947 1.327 . S
C945 H968 0.950 . S
C946 C945 1.349 1_545 S
C946 C958 1.349 . S
C947 C945 1.327 . S
C947 C963 1.426 1_565 S
C947 H969 0.950 . S
C948 H944 0.949 . S
C948 C956 1.574 . S
C948 C964 1.368 1_545 S
H949 C957 0.950 . S
H950 C955 0.950 . S
H951 C956 0.949 . S
H952 C958 0.950 . S
H953 C959 0.950 . S
H954 C960 0.949 . S
C955 H950 0.950 . S
C955 C957 1.327 . S
C955 C961 1.429 . S
C956 C948 1.574 . S
C956 H951 0.949 . S
C956 C962 1.368 1_545 S
C957 C941 1.349 . S
C957 H949 0.950 . S
C957 C955 1.327 . S
C958 C946 1.349 . S
C958 H952 0.950 . S
C958 C959 1.327 . S
C959 H953 0.950 . S
C959 C958 1.327 . S
C959 C963 1.434 . S
C960 C943 1.574 . S
C960 H954 0.949 . S
C960 C964 1.368 . S
C961 C942 1.429 1_565 S
C961 C955 1.429 . S
C961 C962 1.523 . S
C962 C943 1.368 . S
C962 C956 1.368 1_565 S
C962 C961 1.523 . S
C963 C947 1.426 1_545 S
C963 C959 1.434 . S
C963 C964 1.520 1_545 S
C964 C948 1.368 1_565 S
C964 C960 1.368 . S
C964 C963 1.520 1_565 S
H965 C940 0.950 1_545 S
H966 C942 0.950 . S
H967 C943 0.949 . S
H968 C945 0.950 . S
H969 C947 0.950 . S
C970 C971 1.349 . S
C970 C972 1.327 . S
C970 H995 0.950 . S
C971 C970 1.349 . S
C971 C987 1.364 . S
C972 C970 1.327 . S
C972 C991 1.429 . S
C972 H996 0.950 . S
C973 C990 1.574 . S
C973 C992 1.368 1_655 S
C973 H997 0.949 . S
H974 C978 0.949 . S
C975 C976 1.349 . S
C975 C977 1.327 . S
C975 H998 0.950 . S
C976 C975 1.349 . S
C976 C988 1.349 1_655 S
C977 C975 1.327 . S
C977 C993 1.446 . S
C977 H999 0.950 . S
C978 H974 0.949 . S
C978 C986 1.574 . S
C978 C994 1.368 . S
H979 C987 0.946 1_655 S
H980 C985 0.950 . S
H981 C986 0.949 . S
H982 C988 0.950 . S
H983 C989 0.950 . S
H984 C990 0.949 . S
C985 H980 0.950 . S
C985 C987 1.317 1_655 S
C985 C991 1.429 1_655 S
C986 C978 1.574 . S
C986 H981 0.949 . S
C986 C992 1.368 . S
C987 C971 1.364 . S
C987 H979 0.946 1_455 S
C987 C985 1.317 1_455 S
C988 C976 1.349 1_455 S
C988 H982 0.950 . S
C988 C989 1.327 . S
C989 H983 0.950 . S
C989 C988 1.327 . S
C989 C993 1.424 1_455 S
C990 C973 1.574 . S
C990 H984 0.949 . S
C990 C994 1.368 1_655 S
C991 C972 1.429 . S
C991 C985 1.429 1_455 S
C991 C992 1.523 . S
C992 C973 1.368 1_455 S
C992 C986 1.368 . S
C992 C991 1.523 . S
C993 C977 1.446 . S
C993 C989 1.424 1_655 S
C993 C994 1.511 1_655 S
C994 C978 1.368 . S
C994 C990 1.368 1_455 S
C994 C993 1.511 1_455 S
H995 C970 0.950 . S
H996 C972 0.950 . S
H997 C973 0.949 . S
H998 C975 0.950 . S
H999 C977 0.950 . S
C1000 C1001 1.349 . S
C1000 C1002 1.327 . S
C1000 H1025 0.964 . S
C1001 C1000 1.349 . S
C1001 C1017 1.349 . S
C1002 C1000 1.327 . S
C1002 C1021 1.429 . S
C1002 H1026 0.950 1_556 S
C1003 C1020 1.574 . S
C1003 C1022 1.368 . S
C1003 H1027 0.949 . S
H1004 C1008 0.949 . S
C1005 C1006 1.349 . S
C1005 C1007 1.327 . S
C1005 H1028 0.950 . S
C1006 C1005 1.349 . S
C1006 C1018 1.349 1_556 S
C1007 C1005 1.327 . S
C1007 C1023 1.429 . S
C1007 H1029 0.950 . S
C1008 H1004 0.949 . S
C1008 C1016 1.574 1_554 S
C1008 C1024 1.368 1_554 S
H1009 C1017 0.950 . S
H1010 C1015 0.950 . S
H1011 C1016 0.949 1_554 S
H1012 C1018 0.950 . S
H1013 C1019 0.950 . S
H1014 C1020 0.949 . S
C1015 H1010 0.950 . S
C1015 C1017 1.327 . S
C1015 C1021 1.429 . S
C1016 C1008 1.574 1_556 S
C1016 H1011 0.949 1_556 S
C1016 C1022 1.368 . S
C1017 C1001 1.349 . S
C1017 H1009 0.950 . S
C1017 C1015 1.327 . S
C1018 C1006 1.349 1_554 S
C1018 H1012 0.950 . S
C1018 C1019 1.327 . S
C1019 H1013 0.950 . S
C1019 C1018 1.327 . S
C1019 C1023 1.429 1_554 S
C1020 C1003 1.574 . S
C1020 H1014 0.949 . S
C1020 C1024 1.368 . S
C1021 C1002 1.429 . S
C1021 C1015 1.429 . S
C1021 C1022 1.523 . S
C1022 C1003 1.368 . S
C1022 C1016 1.368 . S
C1022 C1021 1.523 . S
C1023 C1007 1.429 . S
C1023 C1019 1.429 1_556 S
C1023 C1024 1.523 . S
C1024 C1008 1.368 1_556 S
C1024 C1020 1.368 . S
C1024 C1023 1.523 . S
H1025 C1000 0.964 . S
H1026 C1002 0.950 1_554 S
H1027 C1003 0.949 . S
H1028 C1005 0.950 . S
H1029 C1007 0.950 . S
C1030 C1031 1.349 . S
C1030 C1032 1.327 . S
C1030 H1055 0.950 . S
C1031 C1030 1.349 . S
C1031 C1047 1.349 . S
C1032 C1030 1.327 . S
C1032 C1051 1.429 . S
C1032 H1056 0.950 . S
C1033 C1050 1.574 . S
C1033 C1052 1.368 . S
C1033 H1057 0.949 . S
H1034 C1038 0.949 . S
C1035 C1036 1.349 . S
C1035 C1037 1.327 . S
C1035 H1058 0.950 . S
C1036 C1035 1.349 . S
C1036 C1048 1.349 . S
C1037 C1035 1.327 . S
C1037 C1053 1.429 . S
C1037 H1059 0.950 . S
C1038 H1034 0.949 . S
C1038 C1046 1.574 . S
C1038 C1054 1.368 . S
H1039 C1047 0.950 . S
H1040 C1045 0.950 . S
H1041 C1046 0.949 . S
H1042 C1048 0.950 . S
H1043 C1049 0.950 . S
H1044 C1050 0.949 . S
C1045 H1040 0.950 . S
C1045 C1047 1.327 . S
C1045 C1051 1.429 . S
C1046 C1038 1.574 . S
C1046 H1041 0.949 . S
C1046 C1052 1.368 . S
C1047 C1031 1.349 . S
C1047 H1039 0.950 . S
C1047 C1045 1.327 . S
C1048 C1036 1.349 . S
C1048 H1042 0.950 . S
C1048 C1049 1.327 . S
C1049 H1043 0.950 . S
C1049 C1048 1.327 . S
C1049 C1053 1.429 . S
C1050 C1033 1.574 . S
C1050 H1044 0.949 . S
C1050 C1054 1.368 . S
C1051 C1032 1.429 . S
C1051 C1045 1.429 . S
C1051 C1052 1.523 . S
C1052 C1033 1.368 . S
C1052 C1046 1.368 . S
C1052 C1051 1.523 . S
C1053 C1037 1.429 . S
C1053 C1049 1.429 . S
C1053 C1054 1.523 . S
C1054 C1038 1.368 . S
C1054 C1050 1.368 . S
C1054 C1053 1.523 . S
H1055 C1030 0.950 . S
H1056 C1032 0.950 . S
H1057 C1033 0.949 . S
H1058 C1035 0.950 . S
H1059 C1037 0.950 . S
C1060 C1061 1.349 . S
C1060 C1062 1.327 . S
C1060 H1085 0.950 . S
C1061 C1060 1.349 . S
C1061 C1077 1.349 . S
C1062 C1060 1.327 . S
C1062 C1081 1.429 . S
C1062 H1086 0.950 . S
C1063 C1080 1.574 . S
C1063 C1082 1.368 . S
C1063 H1087 0.949 . S
H1064 C1068 0.949 . S
C1065 C1066 1.349 . S
C1065 C1067 1.327 . S
C1065 H1088 0.950 . S
C1066 C1065 1.349 . S
C1066 C1078 1.349 . S
C1067 C1065 1.327 . S
C1067 C1083 1.429 . S
C1067 H1089 0.950 . S
C1068 H1064 0.949 . S
C1068 C1076 1.574 . S
C1068 C1084 1.368 . S
H1069 C1077 0.950 . S
H1070 C1075 0.950 . S
H1071 C1076 0.949 . S
H1072 C1078 0.950 . S
H1073 C1079 0.950 . S
H1074 C1080 0.949 . S
C1075 H1070 0.950 . S
C1075 C1077 1.327 . S
C1075 C1081 1.429 . S
C1076 C1068 1.574 . S
C1076 H1071 0.949 . S
C1076 C1082 1.368 . S
C1077 C1061 1.349 . S
C1077 H1069 0.950 . S
C1077 C1075 1.327 . S
C1078 C1066 1.349 . S
C1078 H1072 0.950 . S
C1078 C1079 1.327 . S
C1079 H1073 0.950 . S
C1079 C1078 1.327 . S
C1079 C1083 1.429 . S
C1080 C1063 1.574 . S
C1080 H1074 0.949 . S
C1080 C1084 1.368 . S
C1081 C1062 1.429 . S
C1081 C1075 1.429 . S
C1081 C1082 1.523 . S
C1082 C1063 1.368 . S
C1082 C1076 1.368 . S
C1082 C1081 1.523 . S
C1083 C1067 1.429 . S
C1083 C1079 1.429 . S
C1083 C1084 1.523 . S
C1084 C1068 1.368 . S
C1084 C1080 1.368 . S
C1084 C1083 1.523 . S
H1085 C1060 0.950 . S
H1086 C1062 0.950 . S
H1087 C1063 0.949 . S
H1088 C1065 0.950 . S
H1089 C1067 0.950 . S
C1090 C1091 1.349 . S
C1090 C1092 1.327 . S
C1090 H1115 0.950 . S
C1091 C1090 1.349 . S
C1091 C1107 1.349 . S
C1092 C1090 1.327 . S
C1092 C1111 1.429 . S
C1092 H1116 0.950 . S
C1093 C1110 1.574 . S
C1093 C1112 1.368 . S
C1093 H1117 0.949 . S
H1094 C1098 0.949 . S
C1095 C1096 1.349 . S
C1095 C1097 1.327 . S
C1095 H1118 0.950 . S
C1096 C1095 1.349 . S
C1096 C1108 1.349 . S
C1097 C1095 1.327 . S
C1097 C1113 1.429 . S
C1097 H1119 0.950 . S
C1098 H1094 0.949 . S
C1098 C1106 1.574 . S
C1098 C1114 1.368 . S
H1099 C1107 0.950 . S
H1100 C1105 0.950 . S
H1101 C1106 0.949 . S
H1102 C1108 0.950 . S
H1103 C1109 0.950 . S
H1104 C1110 0.949 . S
C1105 H1100 0.950 . S
C1105 C1107 1.327 . S
C1105 C1111 1.429 . S
C1106 C1098 1.574 . S
C1106 H1101 0.949 . S
C1106 C1112 1.368 . S
C1107 C1091 1.349 . S
C1107 H1099 0.950 . S
C1107 C1105 1.327 . S
C1108 C1096 1.349 . S
C1108 H1102 0.950 . S
C1108 C1109 1.327 . S
C1109 H1103 0.950 . S
C1109 C1108 1.327 . S
C1109 C1113 1.429 . S
C1110 C1093 1.574 . S
C1110 H1104 0.949 . S
C1110 C1114 1.368 . S
C1111 C1092 1.429 . S
C1111 C1105 1.429 . S
C1111 C1112 1.523 . S
C1112 C1093 1.368 . S
C1112 C1106 1.368 . S
C1112 C1111 1.523 . S
C1113 C1097 1.429 . S
C1113 C1109 1.429 . S
C1113 C1114 1.523 . S
C1114 C1098 1.368 . S
C1114 C1110 1.368 . S
C1114 C1113 1.523 . S
H1115 C1090 0.950 . S
H1116 C1092 0.950 . S
H1117 C1093 0.949 . S
H1118 C1095 0.950 . S
H1119 C1097 0.950 . S
C1120 C1121 1.349 . S
C1120 C1122 1.327 . S
C1120 H1145 0.950 . S
C1121 C1120 1.349 . S
C1121 C1137 1.349 . S
C1122 C1120 1.327 . S
C1122 C1141 1.429 . S
C1122 H1146 0.950 . S
C1123 C1140 1.574 . S
C1123 C1142 1.368 . S
C1123 H1147 0.949 . S
H1124 C1128 0.949 . S
C1125 C1126 1.349 . S
C1125 C1127 1.327 . S
C1125 H1148 0.950 . S
C1126 C1125 1.349 . S
C1126 C1138 1.349 . S
C1127 C1125 1.327 . S
C1127 C1143 1.429 . S
C1127 H1149 0.950 . S
C1128 H1124 0.949 . S
C1128 C1136 1.574 . S
C1128 C1144 1.368 . S
H1129 C1137 0.950 . S
H1130 C1135 0.950 . S
H1131 C1136 0.949 . S
H1132 C1138 0.950 . S
H1133 C1139 0.950 . S
H1134 C1140 0.949 . S
C1135 H1130 0.950 . S
C1135 C1137 1.327 . S
C1135 C1141 1.429 . S
C1136 C1128 1.574 . S
C1136 H1131 0.949 . S
C1136 C1142 1.368 . S
C1137 C1121 1.349 . S
C1137 H1129 0.950 . S
C1137 C1135 1.327 . S
C1138 C1126 1.349 . S
C1138 H1132 0.950 . S
C1138 C1139 1.327 . S
C1139 H1133 0.950 . S
C1139 C1138 1.327 . S
C1139 C1143 1.429 . S
C1140 C1123 1.574 . S
C1140 H1134 0.949 . S
C1140 C1144 1.368 . S
C1141 C1122 1.429 . S
C1141 C1135 1.429 . S
C1141 C1142 1.523 . S
C1142 C1123 1.368 . S
C1142 C1136 1.368 . S
C1142 C1141 1.523 . S
C1143 C1127 1.429 . S
C1143 C1139 1.429 . S
C1143 C1144 1.523 . S
C1144 C1128 1.368 . S
C1144 C1140 1.368 . S
C1144 C1143 1.523 . S
H1145 C1120 0.950 . S
H1146 C1122 0.950 . S
H1147 C1123 0.949 . S
H1148 C1125 0.950 . S
H1149 C1127 0.950 . S
C1150 C1151 1.349 . S
C1150 C1152 1.327 . S
C1150 H1175 0.950 . S
C1151 C1150 1.349 . S
C1151 C1167 1.349 . S
C1152 C1150 1.327 . S
C1152 C1171 1.429 . S
C1152 H1176 0.950 . S
C1153 C1170 1.574 . S
C1153 C1172 1.368 . S
C1153 H1177 0.949 . S
H1154 C1158 0.949 . S
C1155 C1156 1.349 . S
C1155 C1157 1.327 . S
C1155 H1178 0.950 . S
C1156 C1155 1.349 . S
C1156 C1168 1.349 . S
C1157 C1155 1.327 . S
C1157 C1173 1.429 . S
C1157 H1179 0.950 . S
C1158 H1154 0.949 . S
C1158 C1166 1.574 . S
C1158 C1174 1.368 . S
H1159 C1167 0.950 . S
H1160 C1165 0.950 . S
H1161 C1166 0.949 . S
H1162 C1168 0.950 . S
H1163 C1169 0.950 . S
H1164 C1170 0.949 . S
C1165 H1160 0.950 . S
C1165 C1167 1.327 . S
C1165 C1171 1.429 . S
C1166 C1158 1.574 . S
C1166 H1161 0.949 . S
C1166 C1172 1.368 . S
C1167 C1151 1.349 . S
C1167 H1159 0.950 . S
C1167 C1165 1.327 . S
C1168 C1156 1.349 . S
C1168 H1162 0.950 . S
C1168 C1169 1.327 . S
C1169 H1163 0.950 . S
C1169 C1168 1.327 . S
C1169 C1173 1.429 . S
C1170 C1153 1.574 . S
C1170 H1164 0.949 . S
C1170 C1174 1.368 . S
C1171 C1152 1.429 . S
C1171 C1165 1.429 . S
C1171 C1172 1.523 . S
C1172 C1153 1.368 . S
C1172 C1166 1.368 . S
C1172 C1171 1.523 . S
C1173 C1157 1.429 . S
C1173 C1169 1.429 . S
C1173 C1174 1.523 . S
C1174 C1158 1.368 . S
C1174 C1170 1.368 . S
C1174 C1173 1.523 . S
H1175 C1150 0.950 . S
H1176 C1152 0.950 . S
H1177 C1153 0.949 . S
H1178 C1155 0.950 . S
H1179 C1157 0.950 . S
C1180 C1181 1.349 . S
C1180 C1182 1.327 . S
C1180 H1205 0.950 . S
C1181 C1180 1.349 . S
C1181 C1197 1.349 . S
C1182 C1180 1.327 . S
C1182 C1201 1.429 . S
C1182 H1206 0.950 . S
C1183 C1200 1.574 . S
C1183 C1202 1.368 . S
C1183 H1207 0.949 . S
H1184 C1188 0.949 . S
C1185 C1186 1.349 . S
C1185 C1187 1.327 . S
C1185 H1208 0.950 . S
C1186 C1185 1.349 . S
C1186 C1198 1.349 . S
C1187 C1185 1.327 . S
C1187 C1203 1.429 . S
C1187 H1209 0.950 . S
C1188 H1184 0.949 . S
C1188 C1196 1.574 . S
C1188 C1204 1.368 . S
H1189 C1197 0.950 . S
H1190 C1195 0.950 . S
H1191 C1196 0.949 . S
H1192 C1198 0.950 . S
H1193 C1199 0.950 . S
H1194 C1200 0.949 . S
C1195 H1190 0.950 . S
C1195 C1197 1.327 . S
C1195 C1201 1.429 . S
C1196 C1188 1.574 . S
C1196 H1191 0.949 . S
C1196 C1202 1.368 . S
C1197 C1181 1.349 . S
C1197 H1189 0.950 . S
C1197 C1195 1.327 . S
C1198 C1186 1.349 . S
C1198 H1192 0.950 . S
C1198 C1199 1.327 . S
C1199 H1193 0.950 . S
C1199 C1198 1.327 . S
C1199 C1203 1.429 . S
C1200 C1183 1.574 . S
C1200 H1194 0.949 . S
C1200 C1204 1.368 . S
C1201 C1182 1.429 . S
C1201 C1195 1.429 . S
C1201 C1202 1.523 . S
C1202 C1183 1.368 . S
C1202 C1196 1.368 . S
C1202 C1201 1.523 . S
C1203 C1187 1.429 . S
C1203 C1199 1.429 . S
C1203 C1204 1.523 . S
C1204 C1188 1.368 . S
C1204 C1200 1.368 . S
C1204 C1203 1.523 . S
H1205 C1180 0.950 . S
H1206 C1182 0.950 . S
H1207 C1183 0.949 . S
H1208 C1185 0.950 . S
H1209 C1187 0.950 . S
C1210 C1211 1.349 . S
C1210 C1212 1.327 . S
C1210 H1235 0.950 . S
C1211 C1210 1.349 . S
C1211 C1227 1.349 . S
C1212 C1210 1.327 . S
C1212 C1231 1.429 . S
C1212 H1236 0.950 . S
C1213 C1230 1.574 . S
C1213 C1232 1.368 . S
C1213 H1237 0.949 . S
H1214 C1218 0.949 . S
C1215 C1216 1.349 . S
C1215 C1217 1.327 . S
C1215 H1238 0.950 . S
C1216 C1215 1.349 . S
C1216 C1228 1.349 . S
C1217 C1215 1.327 . S
C1217 C1233 1.429 . S
C1217 H1239 0.950 . S
C1218 H1214 0.949 . S
C1218 C1226 1.574 . S
C1218 C1234 1.368 . S
H1219 C1227 0.950 . S
H1220 C1225 0.950 . S
H1221 C1226 0.949 . S
H1222 C1228 0.950 . S
H1223 C1229 0.950 . S
H1224 C1230 0.949 . S
C1225 H1220 0.950 . S
C1225 C1227 1.327 . S
C1225 C1231 1.429 . S
C1226 C1218 1.574 . S
C1226 H1221 0.949 . S
C1226 C1232 1.368 . S
C1227 C1211 1.349 . S
C1227 H1219 0.950 . S
C1227 C1225 1.327 . S
C1228 C1216 1.349 . S
C1228 H1222 0.950 . S
C1228 C1229 1.327 . S
C1229 H1223 0.950 . S
C1229 C1228 1.327 . S
C1229 C1233 1.429 . S
C1230 C1213 1.574 . S
C1230 H1224 0.949 . S
C1230 C1234 1.368 . S
C1231 C1212 1.429 . S
C1231 C1225 1.429 . S
C1231 C1232 1.523 . S
C1232 C1213 1.368 . S
C1232 C1226 1.368 . S
C1232 C1231 1.523 . S
C1233 C1217 1.429 . S
C1233 C1229 1.429 . S
C1233 C1234 1.523 . S
C1234 C1218 1.368 . S
C1234 C1230 1.368 . S
C1234 C1233 1.523 . S
H1235 C1210 0.950 . S
H1236 C1212 0.950 . S
H1237 C1213 0.949 . S
H1238 C1215 0.950 . S
H1239 C1217 0.950 . S
C1240 C1241 1.349 . S
C1240 C1242 1.327 . S
C1240 H1265 0.950 . S
C1241 C1240 1.349 . S
C1241 C1257 1.349 . S
C1242 C1240 1.327 . S
C1242 C1261 1.429 . S
C1242 H1266 0.950 . S
C1243 C1260 1.574 . S
C1243 C1262 1.368 . S
C1243 H1267 0.949 . S
H1244 C1248 0.949 . S
C1245 C1246 1.349 . S
C1245 C1247 1.327 . S
C1245 H1268 0.950 . S
C1246 C1245 1.349 . S
C1246 C1258 1.349 . S
C1247 C1245 1.327 . S
C1247 C1263 1.429 . S
C1247 H1269 0.950 . S
C1248 H1244 0.949 . S
C1248 C1256 1.574 . S
C1248 C1264 1.368 . S
H1249 C1257 0.950 . S
H1250 C1255 0.950 . S
H1251 C1256 0.949 . S
H1252 C1258 0.950 . S
H1253 C1259 0.950 . S
H1254 C1260 0.949 . S
C1255 H1250 0.950 . S
C1255 C1257 1.327 . S
C1255 C1261 1.429 . S
C1256 C1248 1.574 . S
C1256 H1251 0.949 . S
C1256 C1262 1.368 . S
C1257 C1241 1.349 . S
C1257 H1249 0.950 . S
C1257 C1255 1.327 . S
C1258 C1246 1.349 . S
C1258 H1252 0.950 . S
C1258 C1259 1.327 . S
C1259 H1253 0.950 . S
C1259 C1258 1.327 . S
C1259 C1263 1.429 . S
C1260 C1243 1.574 . S
C1260 H1254 0.949 . S
C1260 C1264 1.368 . S
C1261 C1242 1.429 . S
C1261 C1255 1.429 . S
C1261 C1262 1.523 . S
C1262 C1243 1.368 . S
C1262 C1256 1.368 . S
C1262 C1261 1.523 . S
C1263 C1247 1.429 . S
C1263 C1259 1.429 . S
C1263 C1264 1.523 . S
C1264 C1248 1.368 . S
C1264 C1260 1.368 . S
C1264 C1263 1.523 . S
H1265 C1240 0.950 . S
H1266 C1242 0.950 . S
H1267 C1243 0.949 . S
H1268 C1245 0.950 . S
H1269 C1247 0.950 . S
C1270 C1271 1.349 . S
C1270 C1272 1.343 . S
C1270 H1295 0.950 . S
C1271 C1270 1.349 . S
C1271 C1287 1.349 . S
C1272 C1270 1.343 . S
C1272 C1291 1.425 . S
C1272 H1296 0.938 1_455 S
C1273 C1290 1.583 . S
C1273 C1292 1.368 . S
C1273 H1297 0.941 1_655 S
H1274 C1278 0.949 . S
C1275 C1276 1.349 . S
C1275 C1277 1.327 . S
C1275 H1298 0.950 . S
C1276 C1275 1.349 . S
C1276 C1288 1.349 . S
C1277 C1275 1.327 . S
C1277 C1293 1.429 . S
C1277 H1299 0.950 . S
C1278 H1274 0.949 . S
C1278 C1286 1.574 . S
C1278 C1294 1.368 . S
H1279 C1287 0.950 . S
H1280 C1285 0.950 . S
H1281 C1286 0.949 . S
H1282 C1288 0.950 . S
H1283 C1289 0.950 . S
H1284 C1290 0.949 . S
C1285 H1280 0.950 . S
C1285 C1287 1.327 . S
C1285 C1291 1.429 . S
C1286 C1278 1.574 . S
C1286 H1281 0.949 . S
C1286 C1292 1.368 . S
C1287 C1271 1.349 . S
C1287 H1279 0.950 . S
C1287 C1285 1.327 . S
C1288 C1276 1.349 . S
C1288 H1282 0.950 . S
C1288 C1289 1.327 . S
C1289 H1283 0.950 . S
C1289 C1288 1.327 . S
C1289 C1293 1.429 . S
C1290 C1273 1.583 . S
C1290 H1284 0.949 . S
C1290 C1294 1.368 . S
C1291 C1272 1.425 . S
C1291 C1285 1.429 . S
C1291 C1292 1.523 1_455 S
C1292 C1273 1.368 . S
C1292 C1286 1.368 . S
C1292 C1291 1.523 1_655 S
C1293 C1277 1.429 . S
C1293 C1289 1.429 . S
C1293 C1294 1.523 . S
C1294 C1278 1.368 . S
C1294 C1290 1.368 . S
C1294 C1293 1.523 . S
H1295 C1270 0.950 . S
H1296 C1272 0.938 1_655 S
H1297 C1273 0.941 1_455 S
H1298 C1275 0.950 . S
H1299 C1277 0.950 . S
C1300 C1301 1.349 . S
C1300 C1302 1.327 . S
C1300 H1325 0.950 . S
C1301 C1300 1.349 . S
C1301 C1317 1.349 . S
C1302 C1300 1.327 . S
C1302 C1321 1.429 . S
C1302 H1326 0.950 . S
C1303 C1320 1.574 . S
C1303 C1322 1.368 . S
C1303 H1327 0.949 . S
H1304 C1308 0.949 . S
C1305 C1306 1.349 . S
C1305 C1307 1.327 . S
C1305 H1328 0.950 . S
C1306 C1305 1.349 . S
C1306 C1318 1.349 . S
C1307 C1305 1.327 . S
C1307 C1323 1.429 . S
C1307 H1329 0.950 . S
C1308 H1304 0.949 . S
C1308 C1316 1.574 . S
C1308 C1324 1.368 . S
H1309 C1317 0.950 . S
H1310 C1315 0.950 . S
H1311 C1316 0.949 . S
H1312 C1318 0.950 . S
H1313 C1319 0.950 . S
H1314 C1320 0.949 . S
C1315 H1310 0.950 . S
C1315 C1317 1.327 . S
C1315 C1321 1.429 . S
C1316 C1308 1.574 . S
C1316 H1311 0.949 . S
C1316 C1322 1.368 . S
C1317 C1301 1.349 . S
C1317 H1309 0.950 . S
C1317 C1315 1.327 . S
C1318 C1306 1.349 . S
C1318 H1312 0.950 . S
C1318 C1319 1.327 . S
C1319 H1313 0.950 . S
C1319 C1318 1.327 . S
C1319 C1323 1.429 . S
C1320 C1303 1.574 . S
C1320 H1314 0.949 . S
C1320 C1324 1.368 . S
C1321 C1302 1.429 . S
C1321 C1315 1.429 . S
C1321 C1322 1.523 . S
C1322 C1303 1.368 . S
C1322 C1316 1.368 . S
C1322 C1321 1.523 . S
C1323 C1307 1.429 . S
C1323 C1319 1.429 . S
C1323 C1324 1.523 . S
C1324 C1308 1.368 . S
C1324 C1320 1.368 . S
C1324 C1323 1.523 . S
H1325 C1300 0.950 . S
H1326 C1302 0.950 . S
H1327 C1303 0.949 . S
H1328 C1305 0.950 . S
H1329 C1307 0.950 . S
C1330 C1331 1.349 . S
C1330 C1332 1.327 . S
C1330 H1355 0.950 . S
C1331 C1330 1.349 . S
C1331 C1347 1.349 . S
C1332 C1330 1.327 . S
C1332 C1351 1.429 . S
C1332 H1356 0.950 . S
C1333 C1350 1.574 . S
C1333 C1352 1.368 . S
C1333 H1357 0.949 . S
H1334 C1338 0.949 . S
C1335 C1336 1.349 . S
C1335 C1337 1.327 . S
C1335 H1358 0.950 . S
C1336 C1335 1.349 . S
C1336 C1348 1.349 . S
C1337 C1335 1.327 . S
C1337 C1353 1.429 . S
C1337 H1359 0.950 . S
C1338 H1334 0.949 . S
C1338 C1346 1.574 . S
C1338 C1354 1.368 . S
H1339 C1347 0.950 . S
H1340 C1345 0.950 . S
H1341 C1346 0.949 . S
H1342 C1348 0.950 . S
H1343 C1349 0.950 . S
H1344 C1350 0.949 . S
C1345 H1340 0.950 . S
C1345 C1347 1.327 . S
C1345 C1351 1.429 . S
C1346 C1338 1.574 . S
C1346 H1341 0.949 . S
C1346 C1352 1.368 . S
C1347 C1331 1.349 . S
C1347 H1339 0.950 . S
C1347 C1345 1.327 . S
C1348 C1336 1.349 . S
C1348 H1342 0.950 . S
C1348 C1349 1.327 . S
C1349 H1343 0.950 . S
C1349 C1348 1.327 . S
C1349 C1353 1.429 . S
C1350 C1333 1.574 . S
C1350 H1344 0.949 . S
C1350 C1354 1.368 . S
C1351 C1332 1.429 . S
C1351 C1345 1.429 . S
C1351 C1352 1.523 . S
C1352 C1333 1.368 . S
C1352 C1346 1.368 . S
C1352 C1351 1.523 . S
C1353 C1337 1.429 . S
C1353 C1349 1.429 . S
C1353 C1354 1.523 . S
C1354 C1338 1.368 . S
C1354 C1350 1.368 . S
C1354 C1353 1.523 . S
H1355 C1330 0.950 . S
H1356 C1332 0.950 . S
H1357 C1333 0.949 . S
H1358 C1335 0.950 . S
H1359 C1337 0.950 . S
C1360 C1361 1.349 . S
C1360 C1362 1.327 . S
C1360 H1385 0.950 . S
C1361 C1360 1.349 . S
C1361 C1377 1.349 . S
C1362 C1360 1.327 . S
C1362 C1381 1.429 . S
C1362 H1386 0.950 . S
C1363 C1380 1.574 . S
C1363 C1382 1.368 . S
C1363 H1387 0.949 . S
H1364 C1368 0.949 . S
C1365 C1366 1.349 . S
C1365 C1367 1.327 . S
C1365 H1388 0.950 . S
C1366 C1365 1.349 . S
C1366 C1378 1.349 . S
C1367 C1365 1.327 . S
C1367 C1383 1.429 . S
C1367 H1389 0.950 . S
C1368 H1364 0.949 . S
C1368 C1376 1.574 . S
C1368 C1384 1.368 . S
H1369 C1377 0.950 . S
H1370 C1375 0.950 . S
H1371 C1376 0.949 . S
H1372 C1378 0.950 . S
H1373 C1379 0.950 . S
H1374 C1380 0.949 . S
C1375 H1370 0.950 . S
C1375 C1377 1.327 . S
C1375 C1381 1.429 . S
C1376 C1368 1.574 . S
C1376 H1371 0.949 . S
C1376 C1382 1.368 . S
C1377 C1361 1.349 . S
C1377 H1369 0.950 . S
C1377 C1375 1.327 . S
C1378 C1366 1.349 . S
C1378 H1372 0.950 . S
C1378 C1379 1.327 . S
C1379 H1373 0.950 . S
C1379 C1378 1.327 . S
C1379 C1383 1.429 . S
C1380 C1363 1.574 . S
C1380 H1374 0.949 . S
C1380 C1384 1.368 . S
C1381 C1362 1.429 . S
C1381 C1375 1.429 . S
C1381 C1382 1.523 . S
C1382 C1363 1.368 . S
C1382 C1376 1.368 . S
C1382 C1381 1.523 . S
C1383 C1367 1.429 . S
C1383 C1379 1.429 . S
C1383 C1384 1.523 . S
C1384 C1368 1.368 . S
C1384 C1380 1.368 . S
C1384 C1383 1.523 . S
H1385 C1360 0.950 . S
H1386 C1362 0.950 . S
H1387 C1363 0.949 . S
H1388 C1365 0.950 . S
H1389 C1367 0.950 . S
C1390 C1391 1.349 . S
C1390 C1392 1.327 . S
C1390 H1415 0.950 . S
C1391 C1390 1.349 . S
C1391 C1407 1.349 . S
C1392 C1390 1.327 . S
C1392 C1411 1.429 . S
C1392 H1416 0.950 . S
C1393 C1410 1.574 . S
C1393 C1412 1.368 . S
C1393 H1417 0.949 . S
H1394 C1398 0.949 . S
C1395 C1396 1.349 . S
C1395 C1397 1.327 . S
C1395 H1418 0.950 . S
C1396 C1395 1.349 . S
C1396 C1408 1.349 . S
C1397 C1395 1.327 . S
C1397 C1413 1.429 . S
C1397 H1419 0.950 . S
C1398 H1394 0.949 . S
C1398 C1406 1.574 . S
C1398 C1414 1.368 . S
H1399 C1407 0.950 . S
H1400 C1405 0.950 . S
H1401 C1406 0.949 . S
H1402 C1408 0.950 . S
H1403 C1409 0.950 . S
H1404 C1410 0.949 . S
C1405 H1400 0.950 . S
C1405 C1407 1.327 . S
C1405 C1411 1.429 . S
C1406 C1398 1.574 . S
C1406 H1401 0.949 . S
C1406 C1412 1.368 . S
C1407 C1391 1.349 . S
C1407 H1399 0.950 . S
C1407 C1405 1.327 . S
C1408 C1396 1.349 . S
C1408 H1402 0.950 . S
C1408 C1409 1.327 . S
C1409 H1403 0.950 . S
C1409 C1408 1.327 . S
C1409 C1413 1.429 . S
C1410 C1393 1.574 . S
C1410 H1404 0.949 . S
C1410 C1414 1.368 . S
C1411 C1392 1.429 . S
C1411 C1405 1.429 . S
C1411 C1412 1.523 . S
C1412 C1393 1.368 . S
C1412 C1406 1.368 . S
C1412 C1411 1.523 . S
C1413 C1397 1.429 . S
C1413 C1409 1.429 . S
C1413 C1414 1.523 . S
C1414 C1398 1.368 . S
C1414 C1410 1.368 . S
C1414 C1413 1.523 . S
H1415 C1390 0.950 . S
H1416 C1392 0.950 . S
H1417 C1393 0.949 . S
H1418 C1395 0.950 . S
H1419 C1397 0.950 . S
C1420 C1421 1.349 . S
C1420 C1422 1.327 . S
C1420 H1445 0.950 . S
C1421 C1420 1.349 . S
C1421 C1437 1.349 1_565 S
C1422 C1420 1.327 . S
C1422 C1441 1.414 1_565 S
C1422 H1446 0.950 . S
C1423 C1440 1.574 . S
C1423 C1442 1.368 . S
C1423 H1447 0.949 . S
H1424 C1428 0.949 . S
C1425 C1426 1.349 . S
C1425 C1427 1.327 . S
C1425 H1448 0.950 . S
C1426 C1425 1.349 . S
C1426 C1438 1.349 . S
C1427 C1425 1.327 . S
C1427 C1443 1.429 . S
C1427 H1449 0.950 . S
C1428 H1424 0.949 . S
C1428 C1436 1.574 . S
C1428 C1444 1.368 1_565 S
H1429 C1437 0.950 . S
H1430 C1435 0.950 . S
H1431 C1436 0.949 . S
H1432 C1438 0.950 1_565 S
H1433 C1439 0.979 . S
H1434 C1440 0.949 . S
C1435 H1430 0.950 . S
C1435 C1437 1.327 . S
C1435 C1441 1.435 . S
C1436 C1428 1.574 . S
C1436 H1431 0.949 . S
C1436 C1442 1.368 1_565 S
C1437 C1421 1.349 1_545 S
C1437 H1429 0.950 . S
C1437 C1435 1.327 . S
C1438 C1426 1.349 . S
C1438 H1432 0.950 1_545 S
C1438 C1439 1.312 1_545 S
C1439 H1433 0.979 . S
C1439 C1438 1.312 1_565 S
C1439 C1443 1.416 1_565 S
C1440 C1423 1.574 . S
C1440 H1434 0.949 . S
C1440 C1444 1.368 . S
C1441 C1422 1.414 1_545 S
C1441 C1435 1.435 . S
C1441 C1442 1.530 . S
C1442 C1423 1.368 . S
C1442 C1436 1.368 1_545 S
C1442 C1441 1.530 . S
C1443 C1427 1.429 . S
C1443 C1439 1.416 1_545 S
C1443 C1444 1.523 . S
C1444 C1428 1.368 1_545 S
C1444 C1440 1.368 . S
C1444 C1443 1.523 . S
H1445 C1420 0.950 . S
H1446 C1422 0.950 . S
H1447 C1423 0.949 . S
H1448 C1425 0.950 . S
H1449 C1427 0.950 . S
C1450 C1451 1.349 . S
C1450 C1452 1.327 . S
C1450 H1475 0.950 1_554 S
C1451 C1450 1.349 . S
C1451 C1467 1.349 . S
C1452 C1450 1.327 . S
C1452 C1471 1.429 . S
C1452 H1476 0.957 . S
C1453 C1470 1.574 . S
C1453 C1472 1.368 . S
C1453 H1477 0.949 . S
H1454 C1458 0.949 . S
C1455 C1456 1.349 . S
C1455 C1457 1.327 . S
C1455 H1478 0.950 . S
C1456 C1455 1.349 . S
C1456 C1468 1.349 . S
C1457 C1455 1.327 . S
C1457 C1473 1.429 . S
C1457 H1479 0.950 . S
C1458 H1454 0.949 . S
C1458 C1466 1.574 . S
C1458 C1474 1.368 . S
H1459 C1467 0.950 . S
H1460 C1465 0.950 . S
H1461 C1466 0.949 . S
H1462 C1468 0.950 . S
H1463 C1469 0.950 . S
H1464 C1470 0.949 . S
C1465 H1460 0.950 . S
C1465 C1467 1.327 . S
C1465 C1471 1.429 . S
C1466 C1458 1.574 . S
C1466 H1461 0.949 . S
C1466 C1472 1.368 . S
C1467 C1451 1.349 . S
C1467 H1459 0.950 . S
C1467 C1465 1.327 . S
C1468 C1456 1.349 . S
C1468 H1462 0.950 . S
C1468 C1469 1.327 . S
C1469 H1463 0.950 . S
C1469 C1468 1.327 . S
C1469 C1473 1.429 . S
C1470 C1453 1.574 . S
C1470 H1464 0.949 . S
C1470 C1474 1.368 . S
C1471 C1452 1.429 . S
C1471 C1465 1.429 . S
C1471 C1472 1.523 . S
C1472 C1453 1.368 . S
C1472 C1466 1.368 . S
C1472 C1471 1.523 . S
C1473 C1457 1.429 . S
C1473 C1469 1.429 . S
C1473 C1474 1.523 . S
C1474 C1458 1.368 . S
C1474 C1470 1.368 . S
C1474 C1473 1.523 . S
H1475 C1450 0.950 1_556 S
H1476 C1452 0.957 . S
H1477 C1453 0.949 . S
H1478 C1455 0.950 . S
H1479 C1457 0.950 . S
C1480 C1481 1.349 . S
C1480 C1482 1.327 . S
C1480 H1505 0.950 . S
C1481 C1480 1.349 . S
C1481 C1497 1.349 . S
C1482 C1480 1.327 . S
C1482 C1501 1.429 . S
C1482 H1506 0.950 . S
C1483 C1500 1.574 . S
C1483 C1502 1.368 . S
C1483 H1507 0.949 . S
H1484 C1488 0.949 . S
C1485 C1486 1.349 . S
C1485 C1487 1.327 . S
C1485 H1508 0.950 . S
C1486 C1485 1.349 . S
C1486 C1498 1.349 . S
C1487 C1485 1.327 . S
C1487 C1503 1.429 . S
C1487 H1509 0.950 . S
C1488 H1484 0.949 . S
C1488 C1496 1.574 . S
C1488 C1504 1.368 . S
H1489 C1497 0.950 . S
H1490 C1495 0.950 . S
H1491 C1496 0.949 . S
H1492 C1498 0.950 . S
H1493 C1499 0.950 . S
H1494 C1500 0.949 . S
C1495 H1490 0.950 . S
C1495 C1497 1.327 . S
C1495 C1501 1.429 . S
C1496 C1488 1.574 . S
C1496 H1491 0.949 . S
C1496 C1502 1.368 . S
C1497 C1481 1.349 . S
C1497 H1489 0.950 . S
C1497 C1495 1.327 . S
C1498 C1486 1.349 . S
C1498 H1492 0.950 . S
C1498 C1499 1.327 . S
C1499 H1493 0.950 . S
C1499 C1498 1.327 . S
C1499 C1503 1.429 . S
C1500 C1483 1.574 . S
C1500 H1494 0.949 . S
C1500 C1504 1.368 . S
C1501 C1482 1.429 . S
C1501 C1495 1.429 . S
C1501 C1502 1.523 . S
C1502 C1483 1.368 . S
C1502 C1496 1.368 . S
C1502 C1501 1.523 . S
C1503 C1487 1.429 . S
C1503 C1499 1.429 . S
C1503 C1504 1.523 . S
C1504 C1488 1.368 . S
C1504 C1500 1.368 . S
C1504 C1503 1.523 . S
H1505 C1480 0.950 . S
H1506 C1482 0.950 . S
H1507 C1483 0.949 . S
H1508 C1485 0.950 . S
H1509 C1487 0.950 . S
C1510 C1511 1.349 . S
C1510 C1512 1.327 . S
C1510 H1535 0.950 . S
C1511 C1510 1.349 . S
C1511 C1527 1.349 . S
C1512 C1510 1.327 . S
C1512 C1531 1.429 . S
C1512 H1536 0.950 . S
C1513 C1530 1.574 . S
C1513 C1532 1.368 . S
C1513 H1537 0.949 . S
H1514 C1518 0.949 . S
C1515 C1516 1.349 . S
C1515 C1517 1.327 . S
C1515 H1538 0.950 . S
C1516 C1515 1.349 . S
C1516 C1528 1.349 . S
C1517 C1515 1.327 . S
C1517 C1533 1.429 . S
C1517 H1539 0.950 . S
C1518 H1514 0.949 . S
C1518 C1526 1.574 . S
C1518 C1534 1.368 . S
H1519 C1527 0.950 . S
H1520 C1525 0.950 . S
H1521 C1526 0.949 . S
H1522 C1528 0.950 . S
H1523 C1529 0.950 . S
H1524 C1530 0.949 . S
C1525 H1520 0.950 . S
C1525 C1527 1.327 . S
C1525 C1531 1.429 . S
C1526 C1518 1.574 . S
C1526 H1521 0.949 . S
C1526 C1532 1.368 . S
C1527 C1511 1.349 . S
C1527 H1519 0.950 . S
C1527 C1525 1.327 . S
C1528 C1516 1.349 . S
C1528 H1522 0.950 . S
C1528 C1529 1.327 . S
C1529 H1523 0.950 . S
C1529 C1528 1.327 . S
C1529 C1533 1.429 . S
C1530 C1513 1.574 . S
C1530 H1524 0.949 . S
C1530 C1534 1.368 . S
C1531 C1512 1.429 . S
C1531 C1525 1.429 . S
C1531 C1532 1.523 . S
C1532 C1513 1.368 . S
C1532 C1526 1.368 . S
C1532 C1531 1.523 . S
C1533 C1517 1.429 . S
C1533 C1529 1.429 . S
C1533 C1534 1.523 . S
C1534 C1518 1.368 . S
C1534 C1530 1.368 . S
C1534 C1533 1.523 . S
H1535 C1510 0.950 . S
H1536 C1512 0.950 . S
H1537 C1513 0.949 . S
H1538 C1515 0.950 . S
H1539 C1517 0.950 . S
C1540 C1541 1.349 . S
C1540 C1542 1.327 . S
C1540 H1565 0.950 . S
C1541 C1540 1.349 . S
C1541 C1557 1.349 . S
C1542 C1540 1.327 . S
C1542 C1561 1.429 . S
C1542 H1566 0.950 . S
C1543 C1560 1.574 . S
C1543 C1562 1.368 . S
C1543 H1567 0.949 . S
H1544 C1548 0.949 . S
C1545 C1546 1.349 . S
C1545 C1547 1.327 . S
C1545 H1568 0.950 . S
C1546 C1545 1.349 . S
C1546 C1558 1.349 . S
C1547 C1545 1.327 . S
C1547 C1563 1.429 . S
C1547 H1569 0.950 . S
C1548 H1544 0.949 . S
C1548 C1556 1.574 . S
C1548 C1564 1.368 . S
H1549 C1557 0.950 . S
H1550 C1555 0.950 . S
H1551 C1556 0.949 . S
H1552 C1558 0.950 . S
H1553 C1559 0.950 . S
H1554 C1560 0.949 . S
C1555 H1550 0.950 . S
C1555 C1557 1.327 . S
C1555 C1561 1.429 . S
C1556 C1548 1.574 . S
C1556 H1551 0.949 . S
C1556 C1562 1.368 . S
C1557 C1541 1.349 . S
C1557 H1549 0.950 . S
C1557 C1555 1.327 . S
C1558 C1546 1.349 . S
C1558 H1552 0.950 . S
C1558 C1559 1.327 . S
C1559 H1553 0.950 . S
C1559 C1558 1.327 . S
C1559 C1563 1.429 . S
C1560 C1543 1.574 . S
C1560 H1554 0.949 . S
C1560 C1564 1.368 . S
C1561 C1542 1.429 . S
C1561 C1555 1.429 . S
C1561 C1562 1.523 . S
C1562 C1543 1.368 . S
C1562 C1556 1.368 . S
C1562 C1561 1.523 . S
C1563 C1547 1.429 . S
C1563 C1559 1.429 . S
C1563 C1564 1.523 . S
C1564 C1548 1.368 . S
C1564 C1560 1.368 . S
C1564 C1563 1.523 . S
H1565 C1540 0.950 . S
H1566 C1542 0.950 . S
H1567 C1543 0.949 . S
H1568 C1545 0.950 . S
H1569 C1547 0.950 . S
C1570 C1571 1.349 . S
C1570 C1572 1.327 . S
C1570 H1595 0.950 . S
C1571 C1570 1.349 . S
C1571 C1587 1.349 . S
C1572 C1570 1.327 . S
C1572 C1591 1.429 . S
C1572 H1596 0.950 . S
C1573 C1590 1.574 . S
C1573 C1592 1.368 . S
C1573 H1597 0.949 . S
H1574 C1578 0.949 . S
C1575 C1576 1.349 . S
C1575 C1577 1.327 . S
C1575 H1598 0.950 . S
C1576 C1575 1.349 . S
C1576 C1588 1.349 . S
C1577 C1575 1.327 . S
C1577 C1593 1.429 . S
C1577 H1599 0.950 . S
C1578 H1574 0.949 . S
C1578 C1586 1.574 . S
C1578 C1594 1.368 . S
H1579 C1587 0.950 . S
H1580 C1585 0.950 . S
H1581 C1586 0.949 . S
H1582 C1588 0.950 . S
H1583 C1589 0.950 . S
H1584 C1590 0.949 . S
C1585 H1580 0.950 . S
C1585 C1587 1.327 . S
C1585 C1591 1.429 . S
C1586 C1578 1.574 . S
C1586 H1581 0.949 . S
C1586 C1592 1.368 . S
C1587 C1571 1.349 . S
C1587 H1579 0.950 . S
C1587 C1585 1.327 . S
C1588 C1576 1.349 . S
C1588 H1582 0.950 . S
C1588 C1589 1.327 . S
C1589 H1583 0.950 . S
C1589 C1588 1.327 . S
C1589 C1593 1.429 . S
C1590 C1573 1.574 . S
C1590 H1584 0.949 . S
C1590 C1594 1.368 . S
C1591 C1572 1.429 . S
C1591 C1585 1.429 . S
C1591 C1592 1.523 . S
C1592 C1573 1.368 . S
C1592 C1586 1.368 . S
C1592 C1591 1.523 . S
C1593 C1577 1.429 . S
C1593 C1589 1.429 . S
C1593 C1594 1.523 . S
C1594 C1578 1.368 . S
C1594 C1590 1.368 . S
C1594 C1593 1.523 . S
H1595 C1570 0.950 . S
H1596 C1572 0.950 . S
H1597 C1573 0.949 . S
H1598 C1575 0.950 . S
H1599 C1577 0.950 . S
C1600 C1601 1.349 . S
C1600 C1602 1.327 . S
C1600 H1625 0.950 . S
C1601 C1600 1.349 . S
C1601 C1617 1.349 . S
C1602 C1600 1.327 . S
C1602 C1621 1.429 . S
C1602 H1626 0.950 . S
C1603 C1620 1.574 . S
C1603 C1622 1.368 . S
C1603 H1627 0.949 . S
H1604 C1608 0.949 . S
C1605 C1606 1.349 . S
C1605 C1607 1.327 . S
C1605 H1628 0.950 . S
C1606 C1605 1.349 . S
C1606 C1618 1.349 . S
C1607 C1605 1.327 . S
C1607 C1623 1.429 . S
C1607 H1629 0.950 . S
C1608 H1604 0.949 . S
C1608 C1616 1.574 . S
C1608 C1624 1.368 . S
H1609 C1617 0.950 . S
H1610 C1615 0.950 . S
H1611 C1616 0.949 . S
H1612 C1618 0.950 . S
H1613 C1619 0.950 . S
H1614 C1620 0.949 . S
C1615 H1610 0.950 . S
C1615 C1617 1.327 . S
C1615 C1621 1.429 . S
C1616 C1608 1.574 . S
C1616 H1611 0.949 . S
C1616 C1622 1.368 . S
C1617 C1601 1.349 . S
C1617 H1609 0.950 . S
C1617 C1615 1.327 . S
C1618 C1606 1.349 . S
C1618 H1612 0.950 . S
C1618 C1619 1.327 . S
C1619 H1613 0.950 . S
C1619 C1618 1.327 . S
C1619 C1623 1.429 . S
C1620 C1603 1.574 . S
C1620 H1614 0.949 . S
C1620 C1624 1.368 . S
C1621 C1602 1.429 . S
C1621 C1615 1.429 . S
C1621 C1622 1.523 . S
C1622 C1603 1.368 . S
C1622 C1616 1.368 . S
C1622 C1621 1.523 . S
C1623 C1607 1.429 . S
C1623 C1619 1.429 . S
C1623 C1624 1.523 . S
C1624 C1608 1.368 . S
C1624 C1620 1.368 . S
C1624 C1623 1.523 . S
H1625 C1600 0.950 . S
H1626 C1602 0.950 . S
H1627 C1603 0.949 . S
H1628 C1605 0.950 . S
H1629 C1607 0.950 . S
C1630 C1631 1.349 . S
C1630 C1632 1.327 . S
C1630 H1655 0.950 . S
C1631 C1630 1.349 . S
C1631 C1647 1.349 . S
C1632 C1630 1.327 . S
C1632 C1651 1.429 . S
C1632 H1656 0.950 . S
C1633 C1650 1.574 . S
C1633 C1652 1.368 . S
C1633 H1657 0.949 . S
H1634 C1638 0.949 . S
C1635 C1636 1.349 . S
C1635 C1637 1.327 . S
C1635 H1658 0.950 . S
C1636 C1635 1.349 . S
C1636 C1648 1.349 . S
C1637 C1635 1.327 . S
C1637 C1653 1.429 . S
C1637 H1659 0.950 . S
C1638 H1634 0.949 . S
C1638 C1646 1.574 . S
C1638 C1654 1.368 . S
H1639 C1647 0.950 . S
H1640 C1645 0.950 . S
H1641 C1646 0.949 . S
H1642 C1648 0.950 . S
H1643 C1649 0.950 . S
H1644 C1650 0.949 . S
C1645 H1640 0.950 . S
C1645 C1647 1.327 . S
C1645 C1651 1.429 . S
C1646 C1638 1.574 . S
C1646 H1641 0.949 . S
C1646 C1652 1.368 . S
C1647 C1631 1.349 . S
C1647 H1639 0.950 . S
C1647 C1645 1.327 . S
C1648 C1636 1.349 . S
C1648 H1642 0.950 . S
C1648 C1649 1.327 . S
C1649 H1643 0.950 . S
C1649 C1648 1.327 . S
C1649 C1653 1.429 . S
C1650 C1633 1.574 . S
C1650 H1644 0.949 . S
C1650 C1654 1.368 . S
C1651 C1632 1.429 . S
C1651 C1645 1.429 . S
C1651 C1652 1.523 . S
C1652 C1633 1.368 . S
C1652 C1646 1.368 . S
C1652 C1651 1.523 . S
C1653 C1637 1.429 . S
C1653 C1649 1.429 . S
C1653 C1654 1.523 . S
C1654 C1638 1.368 . S
C1654 C1650 1.368 . S
C1654 C1653 1.523 . S
H1655 C1630 0.950 . S
H1656 C1632 0.950 . S
H1657 C1633 0.949 . S
H1658 C1635 0.950 . S
H1659 C1637 0.950 . S
C1660 C1661 1.349 . S
C1660 C1662 1.327 . S
C1660 H1685 0.950 . S
C1661 C1660 1.349 . S
C1661 C1677 1.349 . S
C1662 C1660 1.327 . S
C1662 C1681 1.429 . S
C1662 H1686 0.950 . S
C1663 C1680 1.574 . S
C1663 C1682 1.368 . S
C1663 H1687 0.949 . S
H1664 C1668 0.949 . S
C1665 C1666 1.349 . S
C1665 C1667 1.327 . S
C1665 H1688 0.950 . S
C1666 C1665 1.349 . S
C1666 C1678 1.349 . S
C1667 C1665 1.327 . S
C1667 C1683 1.429 . S
C1667 H1689 0.950 . S
C1668 H1664 0.949 . S
C1668 C1676 1.574 . S
C1668 C1684 1.368 . S
H1669 C1677 0.950 . S
H1670 C1675 0.950 . S
H1671 C1676 0.949 . S
H1672 C1678 0.950 . S
H1673 C1679 0.950 . S
H1674 C1680 0.949 . S
C1675 H1670 0.950 . S
C1675 C1677 1.327 . S
C1675 C1681 1.429 . S
C1676 C1668 1.574 . S
C1676 H1671 0.949 . S
C1676 C1682 1.368 . S
C1677 C1661 1.349 . S
C1677 H1669 0.950 . S
C1677 C1675 1.327 . S
C1678 C1666 1.349 . S
C1678 H1672 0.950 . S
C1678 C1679 1.327 . S
C1679 H1673 0.950 . S
C1679 C1678 1.327 . S
C1679 C1683 1.429 . S
C1680 C1663 1.574 . S
C1680 H1674 0.949 . S
C1680 C1684 1.368 . S
C1681 C1662 1.429 . S
C1681 C1675 1.429 . S
C1681 C1682 1.523 . S
C1682 C1663 1.368 . S
C1682 C1676 1.368 . S
C1682 C1681 1.523 . S
C1683 C1667 1.429 . S
C1683 C1679 1.429 . S
C1683 C1684 1.523 . S
C1684 C1668 1.368 . S
C1684 C1680 1.368 . S
C1684 C1683 1.523 . S
H1685 C1660 0.950 . S
H1686 C1662 0.950 . S
H1687 C1663 0.949 . S
H1688 C1665 0.950 . S
H1689 C1667 0.950 . S
C1690 C1691 1.349 . S
C1690 C1692 1.327 . S
C1690 H1715 0.950 . S
C1691 C1690 1.349 . S
C1691 C1707 1.349 . S
C1692 C1690 1.327 . S
C1692 C1711 1.429 . S
C1692 H1716 0.950 . S
C1693 C1710 1.574 . S
C1693 C1712 1.368 . S
C1693 H1717 0.949 . S
H1694 C1698 0.949 . S
C1695 C1696 1.349 . S
C1695 C1697 1.327 . S
C1695 H1718 0.950 . S
C1696 C1695 1.349 . S
C1696 C1708 1.349 . S
C1697 C1695 1.327 . S
C1697 C1713 1.429 . S
C1697 H1719 0.950 . S
C1698 H1694 0.949 . S
C1698 C1706 1.574 . S
C1698 C1714 1.368 . S
H1699 C1707 0.950 . S
H1700 C1705 0.950 . S
H1701 C1706 0.949 . S
H1702 C1708 0.950 . S
H1703 C1709 0.950 . S
H1704 C1710 0.949 . S
C1705 H1700 0.950 . S
C1705 C1707 1.327 . S
C1705 C1711 1.429 . S
C1706 C1698 1.574 . S
C1706 H1701 0.949 . S
C1706 C1712 1.368 . S
C1707 C1691 1.349 . S
C1707 H1699 0.950 . S
C1707 C1705 1.327 . S
C1708 C1696 1.349 . S
C1708 H1702 0.950 . S
C1708 C1709 1.327 . S
C1709 H1703 0.950 . S
C1709 C1708 1.327 . S
C1709 C1713 1.429 . S
C1710 C1693 1.574 . S
C1710 H1704 0.949 . S
C1710 C1714 1.368 . S
C1711 C1692 1.429 . S
C1711 C1705 1.429 . S
C1711 C1712 1.523 . S
C1712 C1693 1.368 . S
C1712 C1706 1.368 . S
C1712 C1711 1.523 . S
C1713 C1697 1.429 . S
C1713 C1709 1.429 . S
C1713 C1714 1.523 . S
C1714 C1698 1.368 . S
C1714 C1710 1.368 . S
C1714 C1713 1.523 . S
H1715 C1690 0.950 . S
H1716 C1692 0.950 . S
H1717 C1693 0.949 . S
H1718 C1695 0.950 . S
H1719 C1697 0.950 . S
C1720 C1721 1.349 . S
C1720 C1722 1.327 . S
C1720 H1745 0.950 . S
C1721 C1720 1.349 . S
C1721 C1737 1.349 . S
C1722 C1720 1.327 . S
C1722 C1741 1.429 . S
C1722 H1746 0.950 . S
C1723 C1740 1.574 . S
C1723 C1742 1.368 . S
C1723 H1747 0.949 . S
H1724 C1728 0.949 . S
C1725 C1726 1.349 . S
C1725 C1727 1.327 . S
C1725 H1748 0.950 . S
C1726 C1725 1.349 . S
C1726 C1738 1.349 . S
C1727 C1725 1.327 . S
C1727 C1743 1.429 . S
C1727 H1749 0.950 . S
C1728 H1724 0.949 . S
C1728 C1736 1.574 . S
C1728 C1744 1.368 . S
H1729 C1737 0.950 . S
H1730 C1735 0.950 . S
H1731 C1736 0.949 . S
H1732 C1738 0.950 . S
H1733 C1739 0.950 . S
H1734 C1740 0.949 . S
C1735 H1730 0.950 . S
C1735 C1737 1.327 . S
C1735 C1741 1.429 . S
C1736 C1728 1.574 . S
C1736 H1731 0.949 . S
C1736 C1742 1.368 . S
C1737 C1721 1.349 . S
C1737 H1729 0.950 . S
C1737 C1735 1.327 . S
C1738 C1726 1.349 . S
C1738 H1732 0.950 . S
C1738 C1739 1.327 . S
C1739 H1733 0.950 . S
C1739 C1738 1.327 . S
C1739 C1743 1.429 . S
C1740 C1723 1.574 . S
C1740 H1734 0.949 . S
C1740 C1744 1.368 . S
C1741 C1722 1.429 . S
C1741 C1735 1.429 . S
C1741 C1742 1.523 . S
C1742 C1723 1.368 . S
C1742 C1736 1.368 . S
C1742 C1741 1.523 . S
C1743 C1727 1.429 . S
C1743 C1739 1.429 . S
C1743 C1744 1.523 . S
C1744 C1728 1.368 . S
C1744 C1740 1.368 . S
C1744 C1743 1.523 . S
H1745 C1720 0.950 . S
H1746 C1722 0.950 . S
H1747 C1723 0.949 . S
H1748 C1725 0.950 . S
H1749 C1727 0.950 . S
C1750 C1751 1.349 . S
C1750 C1752 1.327 . S
C1750 H1775 0.950 . S
C1751 C1750 1.349 . S
C1751 C1767 1.349 . S
C1752 C1750 1.327 . S
C1752 C1771 1.429 . S
C1752 H1776 0.950 . S
C1753 C1770 1.574 1_554 S
C1753 C1772 1.368 . S
C1753 H1777 0.949 1_554 S
H1754 C1758 0.949 . S
C1755 C1756 1.349 1_556 S
C1755 C1757 1.327 . S
C1755 H1778 0.950 . S
C1756 C1755 1.349 1_554 S
C1756 C1768 1.349 . S
C1757 C1755 1.327 . S
C1757 C1773 1.429 1_556 S
C1757 H1779 0.950 . S
C1758 H1754 0.949 . S
C1758 C1766 1.574 . S
C1758 C1774 1.368 . S
H1759 C1767 0.950 . S
H1760 C1765 0.950 1_556 S
H1761 C1766 0.949 . S
H1762 C1768 0.950 . S
H1763 C1769 0.950 . S
H1764 C1770 0.949 . S
C1765 H1760 0.950 1_554 S
C1765 C1767 1.327 . S
C1765 C1771 1.429 . S
C1766 C1758 1.574 . S
C1766 H1761 0.949 . S
C1766 C1772 1.368 . S
C1767 C1751 1.349 . S
C1767 H1759 0.950 . S
C1767 C1765 1.327 . S
C1768 C1756 1.349 . S
C1768 H1762 0.950 . S
C1768 C1769 1.327 . S
C1769 H1763 0.950 . S
C1769 C1768 1.327 . S
C1769 C1773 1.429 . S
C1770 C1753 1.574 1_556 S
C1770 H1764 0.949 . S
C1770 C1774 1.368 1_556 S
C1771 C1752 1.429 . S
C1771 C1765 1.429 . S
C1771 C1772 1.523 . S
C1772 C1753 1.368 . S
C1772 C1766 1.368 . S
C1772 C1771 1.523 . S
C1773 C1757 1.429 1_554 S
C1773 C1769 1.429 . S
C1773 C1774 1.523 . S
C1774 C1758 1.368 . S
C1774 C1770 1.368 1_554 S
C1774 C1773 1.523 . S
H1775 C1750 0.950 . S
H1776 C1752 0.950 . S
H1777 C1753 0.949 1_556 S
H1778 C1755 0.950 . S
H1779 C1757 0.950 . S
C1780 C1781 1.349 . S
C1780 C1782 1.327 . S
C1780 H1805 0.950 . S
C1781 C1780 1.349 . S
C1781 C1797 1.349 . S
C1782 C1780 1.327 . S
C1782 C1801 1.429 . S
C1782 H1806 0.950 . S
C1783 C1800 1.574 . S
C1783 C1802 1.368 . S
C1783 H1807 0.949 . S
H1784 C1788 0.949 . S
C1785 C1786 1.349 . S
C1785 C1787 1.327 . S
C1785 H1808 0.950 . S
C1786 C1785 1.349 . S
C1786 C1798 1.349 . S
C1787 C1785 1.327 . S
C1787 C1803 1.429 . S
C1787 H1809 0.950 . S
C1788 H1784 0.949 . S
C1788 C1796 1.574 . S
C1788 C1804 1.368 . S
H1789 C1797 0.950 . S
H1790 C1795 0.950 . S
H1791 C1796 0.949 . S
H1792 C1798 0.950 . S
H1793 C1799 0.950 . S
H1794 C1800 0.949 . S
C1795 H1790 0.950 . S
C1795 C1797 1.327 . S
C1795 C1801 1.429 . S
C1796 C1788 1.574 . S
C1796 H1791 0.949 . S
C1796 C1802 1.368 . S
C1797 C1781 1.349 . S
C1797 H1789 0.950 . S
C1797 C1795 1.327 . S
C1798 C1786 1.349 . S
C1798 H1792 0.950 . S
C1798 C1799 1.327 . S
C1799 H1793 0.950 . S
C1799 C1798 1.327 . S
C1799 C1803 1.429 . S
C1800 C1783 1.574 . S
C1800 H1794 0.949 . S
C1800 C1804 1.368 . S
C1801 C1782 1.429 . S
C1801 C1795 1.429 . S
C1801 C1802 1.523 . S
C1802 C1783 1.368 . S
C1802 C1796 1.368 . S
C1802 C1801 1.523 . S
C1803 C1787 1.429 . S
C1803 C1799 1.429 . S
C1803 C1804 1.523 . S
C1804 C1788 1.368 . S
C1804 C1800 1.368 . S
C1804 C1803 1.523 . S
H1805 C1780 0.950 . S
H1806 C1782 0.950 . S
H1807 C1783 0.949 . S
H1808 C1785 0.950 . S
H1809 C1787 0.950 . S
C1810 C1811 1.349 . S
C1810 C1812 1.327 . S
C1810 H1835 0.950 . S
C1811 C1810 1.349 . S
C1811 C1827 1.349 . S
C1812 C1810 1.327 . S
C1812 C1831 1.429 . S
C1812 H1836 0.950 . S
C1813 C1830 1.574 . S
C1813 C1832 1.368 . S
C1813 H1837 0.949 . S
H1814 C1818 0.949 . S
C1815 C1816 1.349 . S
C1815 C1817 1.327 . S
C1815 H1838 0.950 . S
C1816 C1815 1.349 . S
C1816 C1828 1.349 . S
C1817 C1815 1.327 . S
C1817 C1833 1.429 . S
C1817 H1839 0.950 . S
C1818 H1814 0.949 . S
C1818 C1826 1.574 . S
C1818 C1834 1.368 . S
H1819 C1827 0.950 . S
H1820 C1825 0.950 . S
H1821 C1826 0.949 . S
H1822 C1828 0.950 . S
H1823 C1829 0.950 . S
H1824 C1830 0.949 . S
C1825 H1820 0.950 . S
C1825 C1827 1.327 . S
C1825 C1831 1.429 . S
C1826 C1818 1.574 . S
C1826 H1821 0.949 . S
C1826 C1832 1.368 . S
C1827 C1811 1.349 . S
C1827 H1819 0.950 . S
C1827 C1825 1.327 . S
C1828 C1816 1.349 . S
C1828 H1822 0.950 . S
C1828 C1829 1.327 . S
C1829 H1823 0.950 . S
C1829 C1828 1.327 . S
C1829 C1833 1.429 . S
C1830 C1813 1.574 . S
C1830 H1824 0.949 . S
C1830 C1834 1.368 . S
C1831 C1812 1.429 . S
C1831 C1825 1.429 . S
C1831 C1832 1.523 . S
C1832 C1813 1.368 . S
C1832 C1826 1.368 . S
C1832 C1831 1.523 . S
C1833 C1817 1.429 . S
C1833 C1829 1.429 . S
C1833 C1834 1.523 . S
C1834 C1818 1.368 . S
C1834 C1830 1.368 . S
C1834 C1833 1.523 . S
H1835 C1810 0.950 . S
H1836 C1812 0.950 . S
H1837 C1813 0.949 . S
H1838 C1815 0.950 . S
H1839 C1817 0.950 . S
C1840 C1841 1.349 . S
C1840 C1842 1.327 . S
C1840 H1865 0.950 . S
C1841 C1840 1.349 . S
C1841 C1857 1.349 . S
C1842 C1840 1.327 . S
C1842 C1861 1.429 . S
C1842 H1866 0.950 . S
C1843 C1860 1.574 . S
C1843 C1862 1.368 . S
C1843 H1867 0.949 . S
H1844 C1848 0.949 . S
C1845 C1846 1.349 . S
C1845 C1847 1.327 . S
C1845 H1868 0.950 . S
C1846 C1845 1.349 . S
C1846 C1858 1.349 . S
C1847 C1845 1.327 . S
C1847 C1863 1.429 . S
C1847 H1869 0.950 . S
C1848 H1844 0.949 . S
C1848 C1856 1.574 . S
C1848 C1864 1.368 . S
H1849 C1857 0.950 . S
H1850 C1855 0.950 . S
H1851 C1856 0.949 . S
H1852 C1858 0.950 . S
H1853 C1859 0.950 . S
H1854 C1860 0.949 . S
C1855 H1850 0.950 . S
C1855 C1857 1.327 . S
C1855 C1861 1.429 . S
C1856 C1848 1.574 . S
C1856 H1851 0.949 . S
C1856 C1862 1.368 . S
C1857 C1841 1.349 . S
C1857 H1849 0.950 . S
C1857 C1855 1.327 . S
C1858 C1846 1.349 . S
C1858 H1852 0.950 . S
C1858 C1859 1.327 . S
C1859 H1853 0.950 . S
C1859 C1858 1.327 . S
C1859 C1863 1.429 . S
C1860 C1843 1.574 . S
C1860 H1854 0.949 . S
C1860 C1864 1.368 . S
C1861 C1842 1.429 . S
C1861 C1855 1.429 . S
C1861 C1862 1.523 . S
C1862 C1843 1.368 . S
C1862 C1856 1.368 . S
C1862 C1861 1.523 . S
C1863 C1847 1.429 . S
C1863 C1859 1.429 . S
C1863 C1864 1.523 . S
C1864 C1848 1.368 . S
C1864 C1860 1.368 . S
C1864 C1863 1.523 . S
H1865 C1840 0.950 . S
H1866 C1842 0.950 . S
H1867 C1843 0.949 . S
H1868 C1845 0.950 . S
H1869 C1847 0.950 . S
C1870 C1871 1.349 . S
C1870 C1872 1.327 . S
C1870 H1895 0.950 . S
C1871 C1870 1.349 . S
C1871 C1887 1.349 . S
C1872 C1870 1.327 . S
C1872 C1891 1.429 . S
C1872 H1896 0.950 . S
C1873 C1890 1.574 . S
C1873 C1892 1.368 . S
C1873 H1897 0.949 . S
H1874 C1878 0.949 . S
C1875 C1876 1.349 . S
C1875 C1877 1.327 . S
C1875 H1898 0.950 . S
C1876 C1875 1.349 . S
C1876 C1888 1.349 . S
C1877 C1875 1.327 . S
C1877 C1893 1.429 . S
C1877 H1899 0.950 . S
C1878 H1874 0.949 . S
C1878 C1886 1.574 . S
C1878 C1894 1.368 . S
H1879 C1887 0.950 . S
H1880 C1885 0.950 . S
H1881 C1886 0.949 . S
H1882 C1888 0.950 . S
H1883 C1889 0.950 . S
H1884 C1890 0.949 . S
C1885 H1880 0.950 . S
C1885 C1887 1.327 . S
C1885 C1891 1.429 . S
C1886 C1878 1.574 . S
C1886 H1881 0.949 . S
C1886 C1892 1.368 . S
C1887 C1871 1.349 . S
C1887 H1879 0.950 . S
C1887 C1885 1.327 . S
C1888 C1876 1.349 . S
C1888 H1882 0.950 . S
C1888 C1889 1.327 . S
C1889 H1883 0.950 . S
C1889 C1888 1.327 . S
C1889 C1893 1.429 . S
C1890 C1873 1.574 . S
C1890 H1884 0.949 . S
C1890 C1894 1.368 . S
C1891 C1872 1.429 . S
C1891 C1885 1.429 . S
C1891 C1892 1.523 . S
C1892 C1873 1.368 . S
C1892 C1886 1.368 . S
C1892 C1891 1.523 . S
C1893 C1877 1.429 . S
C1893 C1889 1.429 . S
C1893 C1894 1.523 . S
C1894 C1878 1.368 . S
C1894 C1890 1.368 . S
C1894 C1893 1.523 . S
H1895 C1870 0.950 . S
H1896 C1872 0.950 . S
H1897 C1873 0.949 . S
H1898 C1875 0.950 . S
H1899 C1877 0.950 . S
C1900 C1901 1.349 . S
C1900 C1902 1.327 . S
C1900 H1925 0.950 . S
C1901 C1900 1.349 . S
C1901 C1917 1.349 . S
C1902 C1900 1.327 . S
C1902 C1921 1.429 . S
C1902 H1926 0.950 . S
C1903 C1920 1.574 . S
C1903 C1922 1.368 . S
C1903 H1927 0.949 . S
H1904 C1908 0.949 . S
C1905 C1906 1.349 . S
C1905 C1907 1.327 . S
C1905 H1928 0.950 . S
C1906 C1905 1.349 . S
C1906 C1918 1.349 . S
C1907 C1905 1.327 . S
C1907 C1923 1.429 . S
C1907 H1929 0.950 . S
C1908 H1904 0.949 . S
C1908 C1916 1.574 . S
C1908 C1924 1.368 . S
H1909 C1917 0.950 . S
H1910 C1915 0.950 . S
H1911 C1916 0.949 . S
H1912 C1918 0.950 . S
H1913 C1919 0.950 . S
H1914 C1920 0.949 . S
C1915 H1910 0.950 . S
C1915 C1917 1.327 . S
C1915 C1921 1.429 . S
C1916 C1908 1.574 . S
C1916 H1911 0.949 . S
C1916 C1922 1.368 . S
C1917 C1901 1.349 . S
C1917 H1909 0.950 . S
C1917 C1915 1.327 . S
C1918 C1906 1.349 . S
C1918 H1912 0.950 . S
C1918 C1919 1.327 . S
C1919 H1913 0.950 . S
C1919 C1918 1.327 . S
C1919 C1923 1.429 . S
C1920 C1903 1.574 . S
C1920 H1914 0.949 . S
C1920 C1924 1.368 . S
C1921 C1902 1.429 . S
C1921 C1915 1.429 . S
C1921 C1922 1.523 . S
C1922 C1903 1.368 . S
C1922 C1916 1.368 . S
C1922 C1921 1.523 . S
C1923 C1907 1.429 . S
C1923 C1919 1.429 . S
C1923 C1924 1.523 . S
C1924 C1908 1.368 . S
C1924 C1920 1.368 . S
C1924 C1923 1.523 . S
H1925 C1900 0.950 . S
H1926 C1902 0.950 . S
H1927 C1903 0.949 . S
H1928 C1905 0.950 . S
H1929 C1907 0.950 . S
C1930 C1931 1.349 . S
C1930 C1932 1.327 . S
C1930 H1955 0.950 . S
C1931 C1930 1.349 . S
C1931 C1947 1.349 . S
C1932 C1930 1.327 . S
C1932 C1951 1.429 . S
C1932 H1956 0.950 . S
C1933 C1950 1.574 . S
C1933 C1952 1.368 . S
C1933 H1957 0.949 . S
H1934 C1938 0.949 . S
C1935 C1936 1.349 . S
C1935 C1937 1.327 . S
C1935 H1958 0.950 . S
C1936 C1935 1.349 . S
C1936 C1948 1.349 . S
C1937 C1935 1.327 . S
C1937 C1953 1.429 . S
C1937 H1959 0.950 . S
C1938 H1934 0.949 . S
C1938 C1946 1.574 . S
C1938 C1954 1.368 . S
H1939 C1947 0.950 . S
H1940 C1945 0.950 . S
H1941 C1946 0.949 . S
H1942 C1948 0.950 . S
H1943 C1949 0.950 . S
H1944 C1950 0.949 . S
C1945 H1940 0.950 . S
C1945 C1947 1.327 . S
C1945 C1951 1.429 . S
C1946 C1938 1.574 . S
C1946 H1941 0.949 . S
C1946 C1952 1.368 . S
C1947 C1931 1.349 . S
C1947 H1939 0.950 . S
C1947 C1945 1.327 . S
C1948 C1936 1.349 . S
C1948 H1942 0.950 . S
C1948 C1949 1.327 . S
C1949 H1943 0.950 . S
C1949 C1948 1.327 . S
C1949 C1953 1.429 . S
C1950 C1933 1.574 . S
C1950 H1944 0.949 . S
C1950 C1954 1.368 . S
C1951 C1932 1.429 . S
C1951 C1945 1.429 . S
C1951 C1952 1.523 . S
C1952 C1933 1.368 . S
C1952 C1946 1.368 . S
C1952 C1951 1.523 . S
C1953 C1937 1.429 . S
C1953 C1949 1.429 . S
C1953 C1954 1.523 . S
C1954 C1938 1.368 . S
C1954 C1950 1.368 . S
C1954 C1953 1.523 . S
H1955 C1930 0.950 . S
H1956 C1932 0.950 . S
H1957 C1933 0.949 . S
H1958 C1935 0.950 . S
H1959 C1937 0.950 . S
C1960 C1961 1.349 . S
C1960 C1962 1.327 . S
C1960 H1985 0.950 . S
C1961 C1960 1.349 . S
C1961 C1977 1.349 . S
C1962 C1960 1.327 . S
C1962 C1981 1.429 . S
C1962 H1986 0.950 . S
C1963 C1980 1.574 . S
C1963 C1982 1.368 . S
C1963 H1987 0.949 . S
H1964 C1968 0.949 . S
C1965 C1966 1.349 . S
C1965 C1967 1.327 . S
C1965 H1988 0.950 . S
C1966 C1965 1.349 . S
C1966 C1978 1.349 . S
C1967 C1965 1.327 . S
C1967 C1983 1.429 . S
C1967 H1989 0.950 . S
C1968 H1964 0.949 . S
C1968 C1976 1.574 . S
C1968 C1984 1.368 . S
H1969 C1977 0.950 . S
H1970 C1975 0.950 . S
H1971 C1976 0.949 . S
H1972 C1978 0.950 . S
H1973 C1979 0.950 . S
H1974 C1980 0.949 . S
C1975 H1970 0.950 . S
C1975 C1977 1.327 . S
C1975 C1981 1.429 . S
C1976 C1968 1.574 . S
C1976 H1971 0.949 . S
C1976 C1982 1.368 . S
C1977 C1961 1.349 . S
C1977 H1969 0.950 . S
C1977 C1975 1.327 . S
C1978 C1966 1.349 . S
C1978 H1972 0.950 . S
C1978 C1979 1.327 . S
C1979 H1973 0.950 . S
C1979 C1978 1.327 . S
C1979 C1983 1.429 . S
C1980 C1963 1.574 . S
C1980 H1974 0.949 . S
C1980 C1984 1.368 . S
C1981 C1962 1.429 . S
C1981 C1975 1.429 . S
C1981 C1982 1.523 . S
C1982 C1963 1.368 . S
C1982 C1976 1.368 . S
C1982 C1981 1.523 . S
C1983 C1967 1.429 . S
C1983 C1979 1.429 . S
C1983 C1984 1.523 . S
C1984 C1968 1.368 . S
C1984 C1980 1.368 . S
C1984 C1983 1.523 . S
H1985 C1960 0.950 . S
H1986 C1962 0.950 . S
H1987 C1963 0.949 . S
H1988 C1965 0.950 . S
H1989 C1967 0.950 . S
C1990 C1991 1.349 . S
C1990 C1992 1.327 . S
C1990 H2015 0.950 . S
C1991 C1990 1.349 . S
C1991 C2007 1.349 . S
C1992 C1990 1.327 . S
C1992 C2011 1.429 . S
C1992 H2016 0.950 . S
C1993 C2010 1.574 . S
C1993 C2012 1.368 . S
C1993 H2017 0.949 . S
H1994 C1998 0.949 . S
C1995 C1996 1.349 . S
C1995 C1997 1.327 . S
C1995 H2018 0.950 . S
C1996 C1995 1.349 . S
C1996 C2008 1.349 . S
C1997 C1995 1.327 . S
C1997 C2013 1.429 . S
C1997 H2019 0.950 . S
C1998 H1994 0.949 . S
C1998 C2006 1.574 . S
C1998 C2014 1.368 . S
H1999 C2007 0.950 . S
H2000 C2005 0.950 . S
H2001 C2006 0.949 . S
H2002 C2008 0.950 . S
H2003 C2009 0.950 . S
H2004 C2010 0.949 . S
C2005 H2000 0.950 . S
C2005 C2007 1.327 . S
C2005 C2011 1.429 . S
C2006 C1998 1.574 . S
C2006 H2001 0.949 . S
C2006 C2012 1.368 . S
C2007 C1991 1.349 . S
C2007 H1999 0.950 . S
C2007 C2005 1.327 . S
C2008 C1996 1.349 . S
C2008 H2002 0.950 . S
C2008 C2009 1.327 . S
C2009 H2003 0.950 . S
C2009 C2008 1.327 . S
C2009 C2013 1.429 . S
C2010 C1993 1.574 . S
C2010 H2004 0.949 . S
C2010 C2014 1.368 . S
C2011 C1992 1.429 . S
C2011 C2005 1.429 . S
C2011 C2012 1.523 . S
C2012 C1993 1.368 . S
C2012 C2006 1.368 . S
C2012 C2011 1.523 . S
C2013 C1997 1.429 . S
C2013 C2009 1.429 . S
C2013 C2014 1.523 . S
C2014 C1998 1.368 . S
C2014 C2010 1.368 . S
C2014 C2013 1.523 . S
H2015 C1990 0.950 . S
H2016 C1992 0.950 . S
H2017 C1993 0.949 . S
H2018 C1995 0.950 . S
H2019 C1997 0.950 . S
C2020 C2021 1.349 . S
C2020 C2022 1.327 . S
C2020 H2045 0.950 . S
C2021 C2020 1.349 . S
C2021 C2037 1.349 . S
C2022 C2020 1.327 . S
C2022 C2041 1.429 . S
C2022 H2046 0.950 . S
C2023 C2040 1.574 . S
C2023 C2042 1.368 . S
C2023 H2047 0.949 . S
H2024 C2028 0.949 . S
C2025 C2026 1.349 . S
C2025 C2027 1.327 . S
C2025 H2048 0.950 . S
C2026 C2025 1.349 . S
C2026 C2038 1.349 . S
C2027 C2025 1.327 . S
C2027 C2043 1.429 . S
C2027 H2049 0.950 . S
C2028 H2024 0.949 . S
C2028 C2036 1.574 . S
C2028 C2044 1.368 . S
H2029 C2037 0.950 . S
H2030 C2035 0.950 . S
H2031 C2036 0.949 . S
H2032 C2038 0.950 . S
H2033 C2039 0.950 . S
H2034 C2040 0.949 . S
C2035 H2030 0.950 . S
C2035 C2037 1.327 . S
C2035 C2041 1.429 . S
C2036 C2028 1.574 . S
C2036 H2031 0.949 . S
C2036 C2042 1.368 . S
C2037 C2021 1.349 . S
C2037 H2029 0.950 . S
C2037 C2035 1.327 . S
C2038 C2026 1.349 . S
C2038 H2032 0.950 . S
C2038 C2039 1.327 . S
C2039 H2033 0.950 . S
C2039 C2038 1.327 . S
C2039 C2043 1.429 . S
C2040 C2023 1.574 . S
C2040 H2034 0.949 . S
C2040 C2044 1.368 . S
C2041 C2022 1.429 . S
C2041 C2035 1.429 . S
C2041 C2042 1.523 . S
C2042 C2023 1.368 . S
C2042 C2036 1.368 . S
C2042 C2041 1.523 . S
C2043 C2027 1.429 . S
C2043 C2039 1.429 . S
C2043 C2044 1.523 . S
C2044 C2028 1.368 . S
C2044 C2040 1.368 . S
C2044 C2043 1.523 . S
H2045 C2020 0.950 . S
H2046 C2022 0.950 . S
H2047 C2023 0.949 . S
H2048 C2025 0.950 . S
H2049 C2027 0.950 . S
C2050 C2051 1.349 . S
C2050 C2052 1.327 . S
C2050 H2075 0.950 . S
C2051 C2050 1.349 . S
C2051 C2067 1.349 . S
C2052 C2050 1.327 . S
C2052 C2071 1.429 . S
C2052 H2076 0.950 . S
C2053 C2070 1.574 . S
C2053 C2072 1.368 . S
C2053 H2077 0.949 . S
H2054 C2058 0.949 . S
C2055 C2056 1.349 . S
C2055 C2057 1.327 . S
C2055 H2078 0.950 . S
C2056 C2055 1.349 . S
C2056 C2068 1.349 . S
C2057 C2055 1.327 . S
C2057 C2073 1.429 . S
C2057 H2079 0.950 . S
C2058 H2054 0.949 . S
C2058 C2066 1.574 . S
C2058 C2074 1.368 . S
H2059 C2067 0.950 . S
H2060 C2065 0.950 . S
H2061 C2066 0.949 . S
H2062 C2068 0.950 . S
H2063 C2069 0.950 . S
H2064 C2070 0.949 . S
C2065 H2060 0.950 . S
C2065 C2067 1.327 . S
C2065 C2071 1.429 . S
C2066 C2058 1.574 . S
C2066 H2061 0.949 . S
C2066 C2072 1.368 . S
C2067 C2051 1.349 . S
C2067 H2059 0.950 . S
C2067 C2065 1.327 . S
C2068 C2056 1.349 . S
C2068 H2062 0.950 . S
C2068 C2069 1.327 . S
C2069 H2063 0.950 . S
C2069 C2068 1.327 . S
C2069 C2073 1.429 . S
C2070 C2053 1.574 . S
C2070 H2064 0.949 . S
C2070 C2074 1.368 . S
C2071 C2052 1.429 . S
C2071 C2065 1.429 . S
C2071 C2072 1.523 . S
C2072 C2053 1.368 . S
C2072 C2066 1.368 . S
C2072 C2071 1.523 . S
C2073 C2057 1.429 . S
C2073 C2069 1.429 . S
C2073 C2074 1.523 . S
C2074 C2058 1.368 . S
C2074 C2070 1.368 . S
C2074 C2073 1.523 . S
H2075 C2050 0.950 . S
H2076 C2052 0.950 . S
H2077 C2053 0.949 . S
H2078 C2055 0.950 . S
H2079 C2057 0.950 . S
C641 C19 0.940 . S
C646 C55 0.926 . S
C671 C99 1.774 . S
C676 C50 1.755 . S
C701 C130 2.052 . S
C706 C98 2.045 . S
C731 C18 1.022 . S
C736 C135 1.017 . S
C761 C9 1.022 . S
C766 C366 1.017 . S
C791 C290 0.940 . S
C796 C46 0.926 . S
C821 C90 1.774 . S
C826 C419 1.755 . S
C851 C139 2.052 . S
C856 C529 2.045 . S
C881 C330 1.774 . S
C886 C59 1.755 . S
C911 C499 2.052 . S
C916 C89 2.045 . S
C941 C569 1.022 . S
C946 C126 1.017 . S
C971 C10 0.940 . S
C976 C446 0.926 . S
C1001 C15 0.629 . S
C1006 C326 0.603 . S
C1031 C498 1.447 . S
C1036 C169 1.451 . S
C1061 C215 0.603 . S
C1066 C566 0.629 . S
C1091 C449 1.451 . S
C1096 C258 1.447 . S
C1121 C95 0.603 . S
C1126 C286 0.629 . S
C1151 C369 1.447 . S
C1156 C178 1.451 . S
C1181 C249 1.447 . S
C1186 C418 1.451 . S
C1211 C210 1.774 . S
C1216 C459 1.755 . S
C1241 C379 2.052 . S
C1246 C209 2.045 . S
C1271 C455 0.926 . S
C1276 C299 0.940 . S
C1301 C219 1.774 . S
C1306 C170 1.755 . S
C1331 C370 2.052 . S
C1336 C338 2.045 . S
C1361 C539 1.774 . S
C1366 C450 1.755 . S
C1391 C250 2.052 . S
C1396 C218 2.045 . S
C1421 C375 1.017 . S
C1426 C578 1.023 . S
C1451 C535 0.603 . S
C1456 C6 0.629 . S
C1481 C86 0.603 . S
C1486 C575 0.629 . S
C1511 C489 1.447 . S
C1516 C58 1.451 . S
C1541 C295 0.629 . S
C1546 C206 0.603 . S
C1571 C138 1.447 . S
C1576 C409 1.451 . S
C1601 C490 2.052 . S
C1606 C538 2.045 . S
C1631 C298 1.023 . S
C1636 C495 1.017 . S
C1661 C246 1.017 . S
C1666 C289 1.022 . S
C1691 C179 1.755 . S
C1696 C530 1.774 . S
C1721 C486 1.017 . S
C1726 C609 1.023 . S
C1751 C606 0.629 . S
C1756 C335 0.603 . S
C1781 C49 1.451 . S
C1786 C378 1.447 . S
C1811 C329 2.045 . S
C1816 C259 2.052 . S
C1841 C339 1.774 . S
C1846 C410 1.755 . S
C1871 C618 1.022 . S
C1876 C255 1.017 . S
C1901 C526 0.603 . S
C1906 C615 0.629 . S
C1931 C458 1.451 . S
C1936 C129 1.447 . S
C1961 C415 0.926 . S
C1966 C579 0.940 . S
C1991 C406 0.926 . S
C1996 C610 0.940 . S
C2021 C166 0.926 . S
C2026 C570 0.940 . S
C2051 C619 0.940 . S
C2056 C175 0.926 . S
