# Generated by pormake.
# Topology wmi, (6)-cn, num edge types: 1
# Building blocks:
#     Node 0, Type 0, BuildingBlock: BETDEL_clean_sbu_0, # of connection points: 6
#     Node 1, Type 0, BuildingBlock: BETDEL_clean_sbu_0, # of connection points: 6
#     Node 2, Type 0, BuildingBlock: BETDEL_clean_sbu_0, # of connection points: 6
#     Node 3, Type 0, BuildingBlock: BETDEL_clean_sbu_0, # of connection points: 6
#     Node 4, Type 0, BuildingBlock: BETDEL_clean_sbu_0, # of connection points: 6
#     Node 5, Type 0, BuildingBlock: BETDEL_clean_sbu_0, # of connection points: 6
#     Node 6, Type 0, BuildingBlock: BETDEL_clean_sbu_0, # of connection points: 6
#     Node 7, Type 0, BuildingBlock: BETDEL_clean_sbu_0, # of connection points: 6
#     Node 8, Type 0, BuildingBlock: BETDEL_clean_sbu_0, # of connection points: 6
#     Node 9, Type 0, BuildingBlock: BETDEL_clean_sbu_0, # of connection points: 6
#     Node 10, Type 0, BuildingBlock: BETDEL_clean_sbu_0, # of connection points: 6
#     Node 11, Type 0, BuildingBlock: BETDEL_clean_sbu_0, # of connection points: 6
#     Node 12, Type 0, BuildingBlock: BETDEL_clean_sbu_0, # of connection points: 6
#     Node 13, Type 0, BuildingBlock: BETDEL_clean_sbu_0, # of connection points: 6
#     Node 14, Type 0, BuildingBlock: BETDEL_clean_sbu_0, # of connection points: 6
#     Node 15, Type 0, BuildingBlock: BETDEL_clean_sbu_0, # of connection points: 6
#     Node 16, Type 0, BuildingBlock: BETDEL_clean_sbu_0, # of connection points: 6
#     Node 17, Type 0, BuildingBlock: BETDEL_clean_sbu_0, # of connection points: 6
#     Edge 18, Type (0, 0), BuildingBlock: EZIPEK_clean_linker_0, # of connection points: 2
#     Edge 19, Type (0, 0), BuildingBlock: EZIPEK_clean_linker_0, # of connection points: 2
#     Edge 20, Type (0, 0), BuildingBlock: EZIPEK_clean_linker_0, # of connection points: 2
#     Edge 21, Type (0, 0), BuildingBlock: EZIPEK_clean_linker_0, # of connection points: 2
#     Edge 22, Type (0, 0), BuildingBlock: EZIPEK_clean_linker_0, # of connection points: 2
#     Edge 23, Type (0, 0), BuildingBlock: EZIPEK_clean_linker_0, # of connection points: 2
#     Edge 24, Type (0, 0), BuildingBlock: EZIPEK_clean_linker_0, # of connection points: 2
#     Edge 25, Type (0, 0), BuildingBlock: EZIPEK_clean_linker_0, # of connection points: 2
#     Edge 26, Type (0, 0), BuildingBlock: EZIPEK_clean_linker_0, # of connection points: 2
#     Edge 27, Type (0, 0), BuildingBlock: EZIPEK_clean_linker_0, # of connection points: 2
#     Edge 28, Type (0, 0), BuildingBlock: EZIPEK_clean_linker_0, # of connection points: 2
#     Edge 29, Type (0, 0), BuildingBlock: EZIPEK_clean_linker_0, # of connection points: 2
#     Edge 30, Type (0, 0), BuildingBlock: EZIPEK_clean_linker_0, # of connection points: 2
#     Edge 31, Type (0, 0), BuildingBlock: EZIPEK_clean_linker_0, # of connection points: 2
#     Edge 32, Type (0, 0), BuildingBlock: EZIPEK_clean_linker_0, # of connection points: 2
#     Edge 33, Type (0, 0), BuildingBlock: EZIPEK_clean_linker_0, # of connection points: 2
#     Edge 34, Type (0, 0), BuildingBlock: EZIPEK_clean_linker_0, # of connection points: 2
#     Edge 35, Type (0, 0), BuildingBlock: EZIPEK_clean_linker_0, # of connection points: 2
#     Edge 36, Type (0, 0), BuildingBlock: EZIPEK_clean_linker_0, # of connection points: 2
#     Edge 37, Type (0, 0), BuildingBlock: EZIPEK_clean_linker_0, # of connection points: 2
#     Edge 38, Type (0, 0), BuildingBlock: EZIPEK_clean_linker_0, # of connection points: 2
#     Edge 39, Type (0, 0), BuildingBlock: EZIPEK_clean_linker_0, # of connection points: 2
#     Edge 40, Type (0, 0), BuildingBlock: EZIPEK_clean_linker_0, # of connection points: 2
#     Edge 41, Type (0, 0), BuildingBlock: EZIPEK_clean_linker_0, # of connection points: 2
#     Edge 42, Type (0, 0), BuildingBlock: EZIPEK_clean_linker_0, # of connection points: 2
#     Edge 43, Type (0, 0), BuildingBlock: EZIPEK_clean_linker_0, # of connection points: 2
#     Edge 44, Type (0, 0), BuildingBlock: EZIPEK_clean_linker_0, # of connection points: 2
#     Edge 45, Type (0, 0), BuildingBlock: EZIPEK_clean_linker_0, # of connection points: 2
#     Edge 46, Type (0, 0), BuildingBlock: EZIPEK_clean_linker_0, # of connection points: 2
#     Edge 47, Type (0, 0), BuildingBlock: EZIPEK_clean_linker_0, # of connection points: 2
#     Edge 48, Type (0, 0), BuildingBlock: EZIPEK_clean_linker_0, # of connection points: 2
#     Edge 49, Type (0, 0), BuildingBlock: EZIPEK_clean_linker_0, # of connection points: 2
#     Edge 50, Type (0, 0), BuildingBlock: EZIPEK_clean_linker_0, # of connection points: 2
#     Edge 51, Type (0, 0), BuildingBlock: EZIPEK_clean_linker_0, # of connection points: 2
#     Edge 52, Type (0, 0), BuildingBlock: EZIPEK_clean_linker_0, # of connection points: 2
#     Edge 53, Type (0, 0), BuildingBlock: EZIPEK_clean_linker_0, # of connection points: 2
#     Edge 54, Type (0, 0), BuildingBlock: EZIPEK_clean_linker_0, # of connection points: 2
#     Edge 55, Type (0, 0), BuildingBlock: EZIPEK_clean_linker_0, # of connection points: 2
#     Edge 56, Type (0, 0), BuildingBlock: EZIPEK_clean_linker_0, # of connection points: 2
#     Edge 57, Type (0, 0), BuildingBlock: EZIPEK_clean_linker_0, # of connection points: 2
#     Edge 58, Type (0, 0), BuildingBlock: EZIPEK_clean_linker_0, # of connection points: 2
#     Edge 59, Type (0, 0), BuildingBlock: EZIPEK_clean_linker_0, # of connection points: 2
#     Edge 60, Type (0, 0), BuildingBlock: EZIPEK_clean_linker_0, # of connection points: 2
#     Edge 61, Type (0, 0), BuildingBlock: EZIPEK_clean_linker_0, # of connection points: 2
#     Edge 62, Type (0, 0), BuildingBlock: EZIPEK_clean_linker_0, # of connection points: 2
#     Edge 63, Type (0, 0), BuildingBlock: EZIPEK_clean_linker_0, # of connection points: 2
#     Edge 64, Type (0, 0), BuildingBlock: EZIPEK_clean_linker_0, # of connection points: 2
#     Edge 65, Type (0, 0), BuildingBlock: EZIPEK_clean_linker_0, # of connection points: 2
#     Edge 66, Type (0, 0), BuildingBlock: EZIPEK_clean_linker_0, # of connection points: 2
#     Edge 67, Type (0, 0), BuildingBlock: EZIPEK_clean_linker_0, # of connection points: 2
#     Edge 68, Type (0, 0), BuildingBlock: EZIPEK_clean_linker_0, # of connection points: 2
#     Edge 69, Type (0, 0), BuildingBlock: EZIPEK_clean_linker_0, # of connection points: 2
#     Edge 70, Type (0, 0), BuildingBlock: EZIPEK_clean_linker_0, # of connection points: 2
#     Edge 71, Type (0, 0), BuildingBlock: EZIPEK_clean_linker_0, # of connection points: 2
# Relax obj value: 0.090
# Max RMSD: 0.186
# Mean RMSD: 0.186
data_MOF--net-wmi--node1-BETDEL_clean_sbu_0--edge1-EZIPEK_clean_linker_0
_symmetry_space_group_name_H-M    P1
_symmetry_Int_Tables_number       1
_symmetry_cell_setting            triclinic
loop_
_symmetry_equiv_pos_as_xyz
'x, y, z'
_cell_length_a     24.67934
_cell_length_b     24.711092
_cell_length_c     57.851541
_cell_angle_alpha  89.670467
_cell_angle_beta   90.039232
_cell_angle_gamma 119.69222
loop_
_atom_site_label
_atom_site_type_symbol
_atom_site_fract_x
_atom_site_fract_y
_atom_site_fract_z
_atom_type_partial_charge
Dy0 Dy 0.55052 0.06358 0.12512 0.0
C1 C 0.30397 0.86865 0.11767 0.0
C2 C 0.67377 0.15162 0.12579 0.0
Dy3 Dy 0.41284 0.97616 0.11085 0.0
O4 O 0.63892 0.12853 0.14409 0.0
O5 O 0.64104 0.12745 0.10736 0.0
O6 O 0.51836 0.02074 0.16167 0.0
O7 O 0.45799 0.03165 0.14026 0.0
C8 C 0.4614 0.01042 0.15951 0.0
C9 C 0.48113 1.00468 0.07228 0.0
O10 O 0.41477 0.06942 0.11564 0.0
O11 O 0.52312 0.13228 0.11382 0.0
O12 O 0.31431 0.90766 0.10066 0.0
O13 O 0.35035 0.89234 0.13202 0.0
O14 O 0.42068 0.97219 0.07259 0.0
O15 O 0.50121 0.02281 0.09265 0.0
O16 O 0.56197 0.98426 0.11681 0.0
O17 O 0.45636 0.91559 0.11936 0.0
C18 C 0.46671 0.12576 0.11489 0.0
C19 C 0.51497 0.92754 0.1179 0.0
Dy20 Dy 0.97969 0.50561 0.12592 0.0
C21 C 0.17304 0.45 0.11979 0.0
C22 C 0.89387 0.54505 0.12411 0.0
Dy23 Dy 0.06907 0.45625 0.11081 0.0
O24 O 0.89595 0.50908 0.1403 0.0
O25 O 0.93822 0.559 0.10924 0.0
O26 O 0.01966 0.51382 0.16286 0.0
O27 O 0.01496 0.44769 0.14049 0.0
C28 C 0.03482 0.47059 0.15993 0.0
C29 C 0.039 0.4937 0.07242 0.0
O30 O 0.97693 0.3662 0.1159 0.0
O31 O 0.91292 0.41087 0.11357 0.0
O32 O 0.13265 0.41748 0.10377 0.0
O33 O 0.15407 0.48201 0.13154 0.0
O34 O 0.07184 0.46569 0.0728 0.0
O35 O 0.01969 0.49621 0.09274 0.0
O36 O 0.06218 0.59682 0.12324 0.0
O37 O 0.13074 0.56137 0.11399 0.0
C38 C 0.92054 0.36164 0.1149 0.0
C39 C 0.11802 0.6068 0.11819 0.0
Dy40 Dy 0.53913 0.49981 0.12447 0.0
C41 C 0.60376 0.75194 0.11604 0.0
C42 C 0.50407 0.3758 0.12385 0.0
Dy43 Dy 0.58444 0.63486 0.11172 0.0
O44 O 0.52696 0.41228 0.14165 0.0
O45 O 0.501 0.40743 0.10644 0.0
O46 O 0.51731 0.52218 0.16077 0.0
O47 O 0.5901 0.5894 0.14193 0.0
C48 C 0.55894 0.5811 0.15988 0.0
C49 C 0.53559 0.55917 0.0751 0.0
O50 O 0.67813 0.63733 0.11268 0.0
O51 O 0.63944 0.53063 0.11945 0.0
O52 O 0.62116 0.7324 0.09808 0.0
O53 O 0.58193 0.70943 0.13198 0.0
O54 O 0.53348 0.6096 0.07871 0.0
O55 O 0.56722 0.55301 0.09127 0.0
O56 O 0.44797 0.49026 0.11632 0.0
O57 O 0.48206 0.59467 0.12124 0.0
C58 C 0.68608 0.58783 0.1157 0.0
C59 C 0.43664 0.53625 0.11888 0.0
Dy60 Dy 0.06948 0.54887 0.92565 0.0
C61 C 0.87329 0.31031 0.93637 0.0
C62 C 0.16188 0.67209 0.92514 0.0
Dy63 Dy 0.981 0.42103 0.93974 0.0
O64 O 0.11325 0.64764 0.91177 0.0
O65 O 0.16136 0.62835 0.93783 0.0
O66 O 0.03179 0.52188 0.88837 0.0
O67 O 0.03694 0.45752 0.90948 0.0
C68 C 0.01759 0.46385 0.89031 0.0
C69 C 0.03014 0.48942 0.97731 0.0
O70 O 0.06827 0.41211 0.93618 0.0
O71 O 0.13741 0.51835 0.93507 0.0
O72 O 0.91198 0.32593 0.95363 0.0
O73 O 0.89558 0.3533 0.9206 0.0
O74 O 0.0151 0.43127 0.97534 0.0
O75 O 0.01642 0.50883 0.9588 0.0
O76 O 0.99424 0.56911 0.93307 0.0
O77 O 0.91921 0.46564 0.9348 0.0
C78 C 0.12636 0.46042 0.93654 0.0
C79 C 0.9357 0.52563 0.93363 0.0
Dy80 Dy 0.49918 0.53765 0.92708 0.0
C81 C 0.7517 0.60522 0.93548 0.0
C82 C 0.37373 0.49654 0.92724 0.0
Dy83 Dy 0.63479 0.58633 0.94 0.0
O84 O 0.41439 0.54154 0.91417 0.0
O85 O 0.40163 0.47459 0.93998 0.0
O86 O 0.5257 0.52102 0.89026 0.0
O87 O 0.58923 0.59253 0.90992 0.0
C88 C 0.58368 0.56545 0.89129 0.0
C89 C 0.55744 0.53655 0.9768 0.0
O90 O 0.63246 0.67731 0.93586 0.0
O91 O 0.52433 0.63239 0.93853 0.0
O92 O 0.7348 0.63082 0.95168 0.0
O93 O 0.7067 0.57568 0.92088 0.0
O94 O 0.60766 0.53367 0.97311 0.0
O95 O 0.55172 0.5676 0.96033 0.0
O96 O 0.49299 0.44893 0.93658 0.0
O97 O 0.59749 0.48499 0.93129 0.0
C98 C 0.58047 0.68182 0.9367 0.0
C99 C 0.53989 0.43874 0.93447 0.0
Dy100 Dy 0.5092 0.98362 0.92606 0.0
C101 C 0.45901 0.17587 0.9376 0.0
C102 C 0.54396 0.89434 0.92632 0.0
Dy103 Dy 0.46315 0.06798 0.93994 0.0
O104 O 0.5339 0.91811 0.90779 0.0
O105 O 0.53358 0.91821 0.94446 0.0
O106 O 0.52739 0.0286 0.88988 0.0
O107 O 0.45164 0.01689 0.90906 0.0
C108 C 0.48163 0.04048 0.89084 0.0
C109 C 0.48253 0.01655 0.97711 0.0
O110 O 0.36937 0.9806 0.93535 0.0
O111 O 0.41011 0.91365 0.93394 0.0
O112 O 0.45251 0.14437 0.95645 0.0
O113 O 0.46146 0.14508 0.91998 0.0
O114 O 0.43556 0.02624 0.97454 0.0
O115 O 0.51735 0.03433 0.95904 0.0
O116 O 0.60378 0.06182 0.92963 0.0
O117 O 0.56857 0.13124 0.93579 0.0
C118 C 0.36216 0.92341 0.9351 0.0
C119 C 0.6144 0.11864 0.93238 0.0
Dy120 Dy 0.22565 0.40414 0.45787 0.0
C121 C 0.98543 0.21069 0.45123 0.0
C122 C 0.35014 0.49121 0.45841 0.0
Dy123 Dy 0.09429 0.31605 0.44287 0.0
O124 O 0.31191 0.4779 0.4758 0.0
O125 O 0.3198 0.45845 0.4407 0.0
O126 O 0.19454 0.35987 0.4941 0.0
O127 O 0.13316 0.37117 0.47311 0.0
C128 C 0.13757 0.34967 0.49226 0.0
C129 C 0.15772 0.34057 0.40406 0.0
O130 O 0.08934 0.40506 0.44239 0.0
O131 O 0.19583 0.47265 0.44809 0.0
O132 O 0.99415 0.24948 0.43436 0.0
O133 O 0.03427 0.23249 0.46439 0.0
O134 O 0.09735 0.30809 0.40537 0.0
O135 O 0.18283 0.36393 0.42368 0.0
O136 O 0.24231 0.32615 0.45411 0.0
O137 O 0.13913 0.25548 0.44703 0.0
C138 C 0.13859 0.46222 0.44404 0.0
C139 C 0.19789 0.26958 0.45006 0.0
Dy140 Dy 0.65718 0.84329 0.4609 0.0
C141 C 0.84941 0.78184 0.45286 0.0
C142 C 0.57776 0.89102 0.45771 0.0
Dy143 Dy 0.75077 0.80242 0.44925 0.0
O144 O 0.57139 0.84762 0.47219 0.0
O145 O 0.62836 0.90948 0.44569 0.0
O146 O 0.65146 0.80361 0.49761 0.0
O147 O 0.73299 0.8395 0.4793 0.0
C148 C 0.70696 0.8099 0.49735 0.0
C149 C 0.71661 0.8419 0.41152 0.0
O150 O 0.65854 0.7102 0.45579 0.0
O151 O 0.59495 0.75068 0.4465 0.0
O152 O 0.81475 0.77037 0.43451 0.0
O153 O 0.82626 0.79893 0.4695 0.0
O154 O 0.77197 0.85056 0.41552 0.0
O155 O 0.6805 0.81037 0.4282 0.0
O156 O 0.73833 0.93736 0.45868 0.0
O157 O 0.81136 0.90699 0.45104 0.0
C158 C 0.60157 0.70261 0.45183 0.0
C159 C 0.79577 0.95071 0.45421 0.0
Dy160 Dy 0.22066 0.83427 0.45611 0.0
C161 C 0.27665 0.08471 0.4487 0.0
C162 C 0.18506 0.7113 0.45191 0.0
Dy163 Dy 0.26021 0.96817 0.44494 0.0
O164 O 0.21538 0.74555 0.46956 0.0
O165 O 0.17519 0.74423 0.43678 0.0
O166 O 0.19807 0.85352 0.49293 0.0
O167 O 0.27089 0.92252 0.47428 0.0
C168 C 0.24086 0.91215 0.49262 0.0
C169 C 0.21093 0.89303 0.40802 0.0
O170 O 0.35583 0.97483 0.44403 0.0
O171 O 0.32165 0.86875 0.45012 0.0
O172 O 0.28818 0.06269 0.43005 0.0
O173 O 0.2638 0.04569 0.46571 0.0
O174 O 0.20417 0.9403 0.41283 0.0
O175 O 0.2457 0.88903 0.42338 0.0
O176 O 0.12766 0.82245 0.449 0.0
O177 O 0.1595 0.9244 0.45702 0.0
C178 C 0.36665 0.92697 0.44651 0.0
C179 C 0.11457 0.86661 0.45328 0.0
Dy180 Dy 0.73711 0.87113 0.26198 0.0
C181 C 0.54522 0.62515 0.27679 0.0
C182 C 0.8217 0.99712 0.26134 0.0
Dy183 Dy 0.6431 0.74418 0.27701 0.0
O184 O 0.78369 0.96634 0.24456 0.0
O185 O 0.81349 0.95884 0.27814 0.0
O186 O 0.74053 0.82805 0.22714 0.0
O187 O 0.65737 0.79183 0.2449 0.0
C188 C 0.68277 0.78316 0.22763 0.0
C189 C 0.68157 0.82198 0.31281 0.0
O190 O 0.73394 0.73816 0.27689 0.0
O191 O 0.80523 0.84006 0.26622 0.0
O192 O 0.56396 0.66178 0.29452 0.0
O193 O 0.58467 0.65121 0.25993 0.0
O194 O 0.62447 0.77898 0.30917 0.0
O195 O 0.71655 0.82213 0.29644 0.0
O196 O 0.66078 0.89062 0.26961 0.0
O197 O 0.58353 0.78769 0.26897 0.0
C198 C 0.792 0.7831 0.27142 0.0
C199 C 0.60158 0.84788 0.26951 0.0
Dy200 Dy 0.16622 0.86717 0.26122 0.0
C201 C 0.42109 0.93202 0.26904 0.0
C202 C 0.03988 0.81986 0.26466 0.0
Dy203 Dy 0.30116 0.90794 0.27116 0.0
O204 O 0.06817 0.81013 0.24755 0.0
O205 O 0.08074 0.85631 0.27958 0.0
O206 O 0.19528 0.90584 0.22457 0.0
O207 O 0.24347 0.86967 0.24162 0.0
C208 C 0.24428 0.89895 0.22366 0.0
C209 C 0.23048 0.87184 0.30946 0.0
O210 O 0.30537 1.00256 0.26746 0.0
O211 O 0.19863 0.96725 0.2651 0.0
O212 O 0.3895 0.92374 0.28789 0.0
O213 O 0.38922 0.9338 0.25146 0.0
O214 O 0.27802 0.86431 0.30573 0.0
O215 O 0.22502 0.9024 0.29265 0.0
O216 O 0.15563 0.7757 0.27095 0.0
O217 O 0.2592 0.80419 0.26563 0.0
C218 C 0.25702 0.01286 0.26613 0.0
C219 C 0.20004 0.76136 0.26914 0.0
Dy220 Dy 0.17953 0.31128 0.25745 0.0
C221 C 0.12205 0.49923 0.27035 0.0
C222 C 0.21722 0.22342 0.25976 0.0
Dy223 Dy 0.12965 0.39326 0.27264 0.0
O224 O 0.19968 0.23961 0.24091 0.0
O225 O 0.21381 0.25504 0.27694 0.0
O226 O 0.19754 0.35755 0.22159 0.0
O227 O 0.12139 0.34506 0.24101 0.0
C228 C 0.15189 0.36977 0.22285 0.0
C229 C 0.15392 0.3424 0.30915 0.0
O230 O 0.03737 0.30438 0.26704 0.0
O231 O 0.08051 0.23959 0.26524 0.0
O232 O 0.10056 0.4594 0.28742 0.0
O233 O 0.14333 0.47875 0.25423 0.0
O234 O 0.10821 0.3544 0.30807 0.0
O235 O 0.1861 0.36047 0.29054 0.0
O236 O 0.27258 0.39402 0.26042 0.0
O237 O 0.23502 0.45924 0.27121 0.0
C238 C 0.0315 0.24772 0.26664 0.0
C239 C 0.28201 0.44937 0.26619 0.0
Dy240 Dy 0.88038 0.72412 0.79153 0.0
C241 C 0.63462 0.53506 0.77916 0.0
C242 C 1.00363 0.81319 0.79108 0.0
Dy243 Dy 0.74813 0.64132 0.77733 0.0
O244 O 0.97343 0.78071 0.80918 0.0
O245 O 0.96625 0.79824 0.77355 0.0
O246 O 0.85253 0.67804 0.82747 0.0
O247 O 0.7896 0.69144 0.80808 0.0
C248 C 0.79521 0.6669 0.82622 0.0
C249 C 0.81833 0.69475 0.74053 0.0
O250 O 0.74702 0.73309 0.7801 0.0
O251 O 0.8531 0.79621 0.78743 0.0
O252 O 0.66382 0.56306 0.76031 0.0
O253 O 0.66488 0.56824 0.79688 0.0
O254 O 0.76006 0.68012 0.74254 0.0
O255 O 0.83612 0.67616 0.75827 0.0
O256 O 0.89435 0.64553 0.78461 0.0
O257 O 0.78864 0.57691 0.78316 0.0
C258 C 0.79762 0.78927 0.78302 0.0
C259 C 0.84728 0.58878 0.78392 0.0
Dy260 Dy 0.31278 0.17026 0.79044 0.0
C261 C 0.50595 0.11649 0.78268 0.0
C262 C 0.22614 0.20841 0.78653 0.0
Dy263 Dy 0.39882 0.12158 0.77783 0.0
O264 O 0.23897 0.1891 0.8057 0.0
O265 O 0.25982 0.20594 0.76986 0.0
O266 O 0.3516 0.18161 0.8276 0.0
O267 O 0.34321 0.1102 0.80724 0.0
C268 C 0.36336 0.1357 0.8263 0.0
C269 C 0.35101 0.14355 0.74038 0.0
O270 O 0.30762 0.03097 0.78448 0.0
O271 O 0.24429 0.0747 0.77911 0.0
O272 O 0.46953 0.09638 0.76471 0.0
O273 O 0.48122 0.13475 0.7984 0.0
O274 O 0.36376 0.09849 0.74229 0.0
O275 O 0.3673 0.17702 0.75859 0.0
O276 O 0.39322 0.26371 0.78829 0.0
O277 O 0.46139 0.22725 0.78085 0.0
C278 C 0.25117 0.02543 0.78178 0.0
C279 C 0.44956 0.27352 0.78445 0.0
Dy280 Dy 0.88133 0.1644 0.79177 0.0
C281 C 0.93015 0.4088 0.78065 0.0
C282 C 0.83281 0.0378 0.79097 0.0
Dy283 Dy 0.91368 0.29242 0.77806 0.0
O284 O 0.87491 0.07539 0.80544 0.0
O285 O 0.81739 0.06937 0.77715 0.0
O286 O 0.92657 0.20092 0.82702 0.0
O287 O 0.88339 0.24269 0.81 0.0
C288 C 0.91709 0.24828 0.82715 0.0
C289 C 0.87682 0.21754 0.74117 0.0
O290 O 1.01075 0.30239 0.78092 0.0
O291 O 0.97745 0.19677 0.78014 0.0
O292 O 0.9427 0.38636 0.7624 0.0
O293 O 0.91495 0.37001 0.79777 0.0
O294 O 0.86369 0.26139 0.74501 0.0
O295 O 0.91013 0.21534 0.75777 0.0
O296 O 0.78477 0.14841 0.79112 0.0
O297 O 0.80941 0.24796 0.7801 0.0
C298 C 0.02265 0.25529 0.77989 0.0
C299 C 0.7681 0.1895 0.78523 0.0
Dy300 Dy 0.40254 0.20275 0.59305 0.0
C301 C 0.20832 0.9625 0.60371 0.0
C302 C 0.49318 0.32561 0.59259 0.0
Dy303 Dy 0.31601 0.07336 0.6072 0.0
O304 O 0.47003 0.29143 0.57427 0.0
O305 O 0.4679 0.29233 0.61094 0.0
O306 O 0.35751 0.17548 0.55707 0.0
O307 O 0.36991 0.1121 0.57667 0.0
C308 C 0.34709 0.11851 0.55825 0.0
C309 C 0.36603 0.14368 0.64423 0.0
O310 O 0.40356 0.06555 0.6036 0.0
O311 O 0.47096 0.17241 0.60226 0.0
O312 O 0.24179 0.98232 0.6224 0.0
O313 O 0.23604 1.00111 0.58687 0.0
O314 O 0.35466 0.08655 0.64225 0.0
O315 O 0.34955 0.16099 0.62588 0.0
O316 O 0.32518 0.22089 0.5963 0.0
O317 O 0.25347 0.11713 0.60257 0.0
C318 C 0.46101 0.11481 0.60373 0.0
C319 C 0.26774 0.176 0.59892 0.0
Dy320 Dy 0.83852 0.2067 0.59269 0.0
C321 C 0.08363 0.25442 0.60071 0.0
C322 C 0.71238 0.16194 0.59621 0.0
Dy323 Dy 0.96655 0.23692 0.60354 0.0
O324 O 0.74554 0.18745 0.5777 0.0
O325 O 0.748 0.16081 0.61241 0.0
O326 O 0.8746 0.25678 0.55804 0.0
O327 O 0.91414 0.20782 0.5721 0.0
C328 C 0.91904 0.24336 0.5555 0.0
C329 C 0.89523 0.20103 0.64186 0.0
O330 O 0.97747 0.33433 0.59931 0.0
O331 O 0.8727 0.30437 0.60247 0.0
O332 O 0.06285 0.27232 0.61804 0.0
O333 O 0.04261 0.23292 0.58437 0.0
O334 O 0.93777 0.18675 0.63696 0.0
O335 O 0.89289 0.23527 0.62565 0.0
O336 O 0.82121 0.10909 0.59417 0.0
O337 O 0.92266 0.13285 0.60115 0.0
C338 C 0.93167 0.34815 0.60117 0.0
C339 C 0.86313 0.09178 0.59788 0.0
Dy340 Dy 0.84773 0.6409 0.59364 0.0
C341 C 0.78377 0.82701 0.59978 0.0
C342 C 0.88613 0.55292 0.59353 0.0
Dy343 Dy 0.79492 0.72262 0.60479 0.0
O344 O 0.91152 0.60459 0.58169 0.0
O345 O 0.83851 0.54864 0.60468 0.0
O346 O 0.85845 0.67822 0.55588 0.0
O347 O 0.78569 0.66712 0.57579 0.0
C348 C 0.81109 0.68758 0.55678 0.0
C349 C 0.8158 0.67682 0.64348 0.0
O350 O 0.70589 0.63047 0.59836 0.0
O351 O 0.7526 0.57072 0.60543 0.0
O352 O 0.77613 0.79676 0.61908 0.0
O353 O 0.79092 0.79636 0.5831 0.0
O354 O 0.76656 0.68202 0.63951 0.0
O355 O 0.85149 0.69425 0.62565 0.0
O356 O 0.93752 0.72026 0.60328 0.0
O357 O 0.89986 0.78808 0.59895 0.0
C358 C 0.70215 0.57515 0.60187 0.0
C359 C 0.94715 0.77691 0.60078 0.0
C360 C 0.50774 0.82964 0.10188 0.0
C361 C 0.53069 0.87705 0.11882 0.0
C362 C 0.60719 0.84714 0.13153 0.0
C363 C 0.58315 0.79864 0.11513 0.0
N364 N 0.49899 0.73266 0.08929 0.0
N365 N 0.58946 0.91949 0.15383 0.0
C366 C 0.53021 0.78671 0.10154 0.0
C367 C 0.57676 0.88242 0.13485 0.0
N368 N 0.46607 0.8265 0.08562 0.0
N369 N 0.6596 0.85987 0.14375 0.0
H370 H 0.56622 0.94413 0.15726 0.0
H371 H 0.61783 0.92062 0.16736 0.0
H372 H 0.68274 0.83446 0.14178 0.0
H373 H 0.68306 0.89858 0.15435 0.0
H374 H 0.45421 0.7981 0.07112 0.0
H375 H 0.4467 0.85556 0.08552 0.0
H376 H 0.4558 0.71798 0.08157 0.0
H377 H 0.51296 0.69934 0.08853 0.0
C378 C 0.27294 0.75583 0.12444 0.0
C379 C 0.25655 0.80128 0.11732 0.0
C380 C 0.15481 0.71677 0.10545 0.0
C381 C 0.16753 0.6728 0.11668 0.0
N382 N 0.23565 0.65454 0.14167 0.0
N383 N 0.17607 0.82333 0.10475 0.0
C384 C 0.22557 0.69339 0.12767 0.0
C385 C 0.19578 0.78134 0.10884 0.0
N386 N 0.33375 0.77038 0.12637 0.0
N387 N 0.10501 0.69724 0.09089 0.0
H388 H 0.20367 0.87082 0.108 0.0
H389 H 0.13006 0.80998 0.10056 0.0
H390 H 0.07546 0.65054 0.08687 0.0
H391 H 0.09745 0.7279 0.08077 0.0
H392 H 0.34712 0.73718 0.12981 0.0
H393 H 0.37038 0.81263 0.12086 0.0
H394 H 0.27573 0.67024 0.15171 0.0
H395 H 0.20184 0.60869 0.14521 0.0
C396 C 0.26801 0.45888 0.1385 0.0
C397 C 0.23975 0.46915 0.11895 0.0
C398 C 0.34132 0.52734 0.0998 0.0
C399 C 0.37033 0.51998 0.1198 0.0
N400 N 0.36328 0.48851 0.1597 0.0
N401 N 0.25089 0.52684 0.08362 0.0
C402 C 0.33416 0.48854 0.13962 0.0
C403 C 0.27666 0.50705 0.10028 0.0
N404 N 0.23138 0.41977 0.15574 0.0
N405 N 0.37499 0.55206 0.08002 0.0
H406 H 0.20389 0.51425 0.08326 0.0
H407 H 0.27728 0.56062 0.07129 0.0
H408 H 0.42291 0.57038 0.07925 0.0
H409 H 0.35475 0.55052 0.06405 0.0
H410 H 0.24847 0.40555 0.16955 0.0
H411 H 0.18277 0.39734 0.15527 0.0
H412 H 0.34034 0.47205 0.17544 0.0
H413 H 0.41155 0.51034 0.16109 0.0
C414 C 0.86425 0.55111 0.95595 0.0
C415 C 0.88889 0.54653 0.93442 0.0
C416 C 0.83709 0.59775 0.91543 0.0
C417 C 0.80517 0.5936 0.93636 0.0
N418 N 0.77887 0.55244 0.97552 0.0
N419 N 0.89772 0.56339 0.8932 0.0
C420 C 0.81629 0.5669 0.95644 0.0
C421 C 0.87502 0.56933 0.914 0.0
N422 N 0.88833 0.54289 0.97606 0.0
N423 N 0.83222 0.63027 0.89708 0.0
H424 H 0.92851 0.5462 0.89169 0.0
H425 H 0.88319 0.57181 0.87735 0.0
H426 H 0.80621 0.65306 0.89781 0.0
H427 H 0.85821 0.63966 0.88195 0.0
H428 H 0.87603 0.55144 0.9923 0.0
H429 H 0.92586 0.53474 0.97633 0.0
H430 H 0.78128 0.52652 0.98936 0.0
H431 H 0.74134 0.56034 0.97681 0.0
C432 C 0.53538 0.28445 0.92401 0.0
C433 C 0.48142 0.2436 0.93714 0.0
C434 C 0.48181 0.33421 0.95355 0.0
C435 C 0.52599 0.37324 0.93665 0.0
N436 N 0.58943 0.38175 0.90336 0.0
N437 N 0.39838 0.23062 0.96265 0.0
C438 C 0.55132 0.34746 0.92114 0.0
C439 C 0.45305 0.26873 0.95141 0.0
N440 N 0.57469 0.26509 0.91579 0.0
N441 N 0.47019 0.3597 0.97242 0.0
H442 H 0.37509 0.18224 0.9611 0.0
H443 H 0.37334 0.24758 0.97162 0.0
H444 H 0.49623 0.40715 0.97581 0.0
H445 H 0.44173 0.3332 0.9861 0.0
H446 H 0.61759 0.29526 0.90814 0.0
H447 H 0.5688 0.22133 0.91929 0.0
H448 H 0.60252 0.3619 0.89017 0.0
H449 H 0.60403 0.42852 0.90065 0.0
C450 C 0.7057 0.19884 0.95463 0.0
C451 C 0.68024 0.16865 0.9334 0.0
C452 C 0.78435 0.22255 0.91584 0.0
C453 C 0.80808 0.25848 0.93619 0.0
N454 N 0.78676 0.29054 0.97303 0.0
N455 N 0.69344 0.15702 0.89275 0.0
C456 C 0.76767 0.24933 0.95513 0.0
C457 C 0.71905 0.18201 0.91367 0.0
N458 N 0.67182 0.17759 0.97457 0.0
N459 N 0.82442 0.22532 0.89896 0.0
H460 H 0.64602 0.12598 0.89058 0.0
H461 H 0.71829 0.17091 0.87726 0.0
H462 H 0.87274 0.25321 0.90021 0.0
H463 H 0.81039 0.19553 0.88483 0.0
H464 H 0.69047 0.19418 0.99088 0.0
H465 H 0.62741 0.13862 0.97504 0.0
H466 H 0.75657 0.28904 0.98593 0.0
H467 H 0.83059 0.33013 0.97381 0.0
C468 C 0.19871 0.11816 0.45905 0.0
C469 C 0.25632 0.13209 0.44841 0.0
C470 C 0.26713 0.23064 0.4345 0.0
C471 C 0.21571 0.22078 0.44859 0.0
N472 N 0.14121 0.15981 0.47833 0.0
N473 N 0.34962 0.20605 0.42822 0.0
C474 C 0.18413 0.16605 0.46211 0.0
C475 C 0.29182 0.18965 0.43669 0.0
N476 N 0.15514 0.05841 0.46461 0.0
N477 N 0.29086 0.27756 0.41841 0.0
H478 H 0.36953 0.17755 0.42981 0.0
H479 H 0.37997 0.25019 0.42155 0.0
H480 H 0.27238 0.30692 0.41555 0.0
H481 H 0.32435 0.28303 0.40625 0.0
H482 H 0.11062 0.04598 0.47061 0.0
H483 H 0.15958 0.02042 0.45993 0.0
H484 H 0.12237 0.12333 0.49032 0.0
H485 H 0.12826 0.19339 0.48107 0.0
C486 C 0.87366 0.12683 0.4467 0.0
C487 C 0.93632 0.14453 0.45155 0.0
C488 C 0.90549 0.03686 0.46108 0.0
C489 C 0.8443 0.0174 0.45313 0.0
N490 N 0.77724 0.04526 0.43134 0.0
N491 N 1.01272 0.11012 0.45352 0.0
C492 C 0.83004 0.0627 0.44396 0.0
C493 C 0.95279 0.09794 0.45598 0.0
N494 N 0.85531 0.17053 0.44499 0.0
N495 N 0.91896 0.99868 0.47405 0.0
H496 H 0.04745 0.15164 0.44646 0.0
H497 H 0.02509 0.07552 0.45495 0.0
H498 H 0.88516 0.95517 0.4801 0.0
H499 H 0.96295 0.01398 0.48124 0.0
H500 H 0.80863 0.15876 0.44351 0.0
H501 H 0.88583 0.21797 0.44738 0.0
H502 H 0.76806 0.07719 0.42286 0.0
H503 H 0.74705 0.99937 0.42672 0.0
C504 C 1.00647 0.79903 0.46918 0.0
C505 C 0.04753 0.84923 0.45454 0.0
C506 C 0.95847 0.85754 0.43999 0.0
C507 C 0.91692 0.80214 0.45223 0.0
N508 N 0.90035 0.71755 0.47742 0.0
N509 N 0.06138 0.92242 0.42406 0.0
C510 C 0.94071 0.7722 0.46656 0.0
C511 C 0.02326 0.87764 0.4395 0.0
N512 N 0.03047 0.77892 0.48633 0.0
N513 N 0.93678 0.89321 0.4298 0.0
H514 H 0.10946 0.94153 0.42383 0.0
H515 H 0.04476 0.93796 0.41047 0.0
H516 H 0.88992 0.88088 0.42947 0.0
H517 H 0.96593 0.93804 0.42346 0.0
H518 H 1.00341 0.74701 0.49908 0.0
H519 H 0.07819 0.79897 0.4893 0.0
H520 H 0.91451 0.6898 0.4862 0.0
H521 H 0.85199 0.6973 0.47609 0.0
C522 C 0.52178 0.94209 0.28253 0.0
C523 C 0.46975 0.9139 0.26757 0.0
C524 C 0.50695 0.84575 0.25243 0.0
C525 C 0.55486 0.86884 0.26924 0.0
N526 N 0.59798 0.92822 0.30409 0.0
N527 N 0.40307 0.82449 0.24381 0.0
C528 C 0.55979 0.91431 0.28533 0.0
C529 C 0.45954 0.86189 0.25393 0.0
N530 N 0.53505 0.99545 0.29398 0.0
N531 N 0.50707 0.80962 0.23467 0.0
H532 H 0.36457 0.83052 0.2458 0.0
H533 H 0.39211 0.78266 0.23576 0.0
H534 H 0.54135 0.7972 0.23262 0.0
H535 H 0.47649 0.79728 0.22072 0.0
H536 H 0.57583 0.02119 0.30343 0.0
H537 H 0.50811 0.01708 0.29221 0.0
H538 H 0.59928 0.95691 0.31745 0.0
H539 H 0.62278 0.9052 0.30763 0.0
C540 C 0.19252 0.66791 0.28939 0.0
C541 C 0.18107 0.69448 0.26953 0.0
C542 C 0.12072 0.59069 0.25241 0.0
C543 C 0.1375 0.56513 0.27126 0.0
N544 N 0.20235 0.58243 0.30497 0.0
N545 N 0.14106 0.68324 0.23075 0.0
C546 C 0.17669 0.60437 0.28911 0.0
C547 C 0.147 0.65641 0.25062 0.0
N548 N 0.21681 0.7027 0.30885 0.0
N549 N 0.0783 0.55191 0.23655 0.0
H550 H 0.15842 0.73106 0.229 0.0
H551 H 0.12327 0.65892 0.21543 0.0
H552 H 0.05776 0.50351 0.23747 0.0
H553 H 0.05943 0.56706 0.22364 0.0
H554 H 0.21926 0.68371 0.32468 0.0
H555 H 0.22915 0.74943 0.30975 0.0
H556 H 0.23677 0.61114 0.3166 0.0
H557 H 0.19437 0.53695 0.30513 0.0
C558 C 0.4506 0.52286 0.28603 0.0
C559 C 0.47817 0.57952 0.27341 0.0
C560 C 0.37478 0.5567 0.25918 0.0
C561 C 0.34777 0.4982 0.27066 0.0
N562 N 0.35593 0.43401 0.30049 0.0
N563 N 0.46806 0.64948 0.24643 0.0
C564 C 0.38468 0.48349 0.28557 0.0
C565 C 0.44072 0.59624 0.25957 0.0
N566 N 0.48792 0.50567 0.29774 0.0
N567 N 0.33734 0.5762 0.24901 0.0
H568 H 0.51498 0.6829 0.24732 0.0
H569 H 0.44513 0.65929 0.23338 0.0
H570 H 0.28901 0.55004 0.24908 0.0
H571 H 0.35318 0.62101 0.24262 0.0
H572 H 0.47197 0.46189 0.30516 0.0
H573 H 0.53633 0.53367 0.29849 0.0
H574 H 0.37899 0.42394 0.31341 0.0
H575 H 0.30759 0.4064 0.30169 0.0
C576 C 0.84407 0.49589 0.76519 0.0
C577 C 0.86235 0.53805 0.78389 0.0
C578 C 0.93212 0.50133 0.7981 0.0
C579 C 0.9109 0.45648 0.78029 0.0
N580 N 0.83187 0.39866 0.75141 0.0
N581 N 0.91101 0.56989 0.8213 0.0
C582 C 0.86285 0.4502 0.765 0.0
C583 C 0.9027 0.53753 0.8013 0.0
N584 N 0.81042 0.50032 0.74722 0.0
N585 N 0.98104 0.50998 0.81173 0.0
H586 H 0.8884 0.5952 0.82456 0.0
H587 H 0.93476 0.56626 0.83558 0.0
H588 H 1.00395 0.48435 0.80977 0.0
H589 H 1.00247 0.54614 0.82356 0.0
H590 H 0.80288 0.47571 0.73188 0.0
H591 H 0.7943 0.53209 0.74674 0.0
H592 H 0.7921 0.38909 0.742 0.0
H593 H 0.84099 0.36183 0.75136 0.0
C594 C 0.59986 0.42625 0.79348 0.0
C595 C 0.58744 0.46781 0.78033 0.0
C596 C 0.4917 0.37864 0.76594 0.0
C597 C 0.49959 0.33909 0.78191 0.0
N598 N 0.55702 0.32749 0.81346 0.0
N599 N 0.51785 0.48417 0.75578 0.0
C600 C 0.55249 0.36346 0.7964 0.0
C601 C 0.53235 0.44413 0.76696 0.0
N602 N 0.65814 0.44516 0.80192 0.0
N603 N 0.44681 0.35345 0.74925 0.0
H604 H 0.54639 0.53245 0.75627 0.0
H605 H 0.47508 0.46984 0.74778 0.0
H606 H 0.41727 0.30559 0.74749 0.0
H607 H 0.44306 0.3794 0.73572 0.0
H608 H 0.6711 0.41469 0.80931 0.0
H609 H 0.69546 0.48957 0.79922 0.0
H610 H 0.59091 0.3455 0.82634 0.0
H611 H 0.52446 0.28055 0.8157 0.0
C612 C 0.61817 0.19542 0.78915 0.0
C613 C 0.57276 0.13406 0.78269 0.0
C614 C 0.65678 0.11177 0.77437 0.0
C615 C 0.70063 0.1695 0.78463 0.0
N616 N 0.71765 0.25898 0.80713 0.0
N617 N 0.54857 0.0303 0.77211 0.0
C618 C 0.67975 0.20909 0.79369 0.0
C619 C 0.59191 0.09103 0.77617 0.0
N620 N 0.60419 0.24231 0.78924 0.0
N621 N 0.67672 0.07838 0.76177 0.0
H622 H 0.50069 0.01354 0.77333 0.0
H623 H 0.56035 0.99566 0.76959 0.0
H624 H 0.72358 0.09349 0.75873 0.0
H625 H 0.64674 0.03935 0.75215 0.0
H626 H 0.63765 0.28884 0.79184 0.0
H627 H 0.56191 0.23611 0.78325 0.0
H628 H 0.70168 0.28547 0.81569 0.0
H629 H 0.76248 0.26964 0.81191 0.0
C630 C 0.17376 0.25334 0.58203 0.0
C631 C 0.13488 0.24005 0.60169 0.0
C632 C 0.18733 0.18962 0.62033 0.0
C633 C 0.21942 0.1946 0.59948 0.0
N634 N 0.23794 0.22497 0.55925 0.0
N635 N 0.09417 0.18039 0.63726 0.0
C636 C 0.2112 0.22478 0.57994 0.0
C637 C 0.13866 0.20414 0.6203 0.0
N638 N 0.17607 0.29454 0.56565 0.0
N639 N 0.20528 0.1742 0.64047 0.0
H640 H 0.0551 0.18598 0.63761 0.0
H641 H 0.09251 0.14893 0.64972 0.0
H642 H 0.244 0.16809 0.64136 0.0
H643 H 0.18681 0.17535 0.65655 0.0
H644 H 0.20802 0.3107 0.55206 0.0
H645 H 0.15004 0.31722 0.56689 0.0
H646 H 0.22769 0.23994 0.54383 0.0
H647 H 0.26637 0.20525 0.55709 0.0
C648 C 0.76622 0.91631 0.60969 0.0
C649 C 0.80242 0.89428 0.5984 0.0
C650 C 0.87509 1.00079 0.58501 0.0
C651 C 0.84257 0.02383 0.59823 0.0
N652 N 0.76508 1.00399 0.62753 0.0
N653 N 0.90134 0.91999 0.58038 0.0
C654 C 0.79008 0.98167 0.61173 0.0
C655 C 0.85945 0.93757 0.58737 0.0
N656 N 0.70839 0.87488 0.61805 0.0
N657 N 0.9201 0.03856 0.5696 0.0
H658 H 0.89424 0.87522 0.5821 0.0
H659 H 0.94662 0.95166 0.57508 0.0
H660 H 0.93447 0.08547 0.56752 0.0
H661 H 0.93918 0.02192 0.55737 0.0
H662 H 0.67725 0.88827 0.62433 0.0
H663 H 0.68918 0.82675 0.61668 0.0
H664 H 0.73104 0.97581 0.63949 0.0
H665 H 0.78327 0.05133 0.63041 0.0
C666 C 0.09903 0.91914 0.61848 0.0
C667 C 0.1414 0.9151 0.60294 0.0
C668 C 0.05352 0.82948 0.58291 0.0
C669 C 1.01273 0.82792 0.60056 0.0
N670 N 0.99973 0.86307 0.63787 0.0
N671 N 0.16012 0.86349 0.57124 0.0
C672 C 0.03625 0.87054 0.6191 0.0
C673 C 0.11893 0.86962 0.58528 0.0
N674 N 0.11744 0.97101 0.63168 0.0
N675 N 0.02956 0.79341 0.56369 0.0
H676 H 0.20836 0.89183 0.57257 0.0
H677 H 0.14695 0.82723 0.55955 0.0
H678 H 0.98201 0.76289 0.56153 0.0
H679 H 0.05597 0.79752 0.54908 0.0
H680 H 0.08656 0.97831 0.64169 0.0
H681 H 0.16153 0.01013 0.63037 0.0
H682 H 0.01666 0.8893 0.65288 0.0
H683 H 0.95442 0.82615 0.63934 0.0
C684 C 0.52004 0.07671 0.0383 0.0
C685 C 0.51551 0.02411 0.04991 0.0
C686 C 0.50829 0.9736 1.01272 0.0
C687 C 0.50801 0.02405 1.00106 0.0
N688 N 0.53253 0.1315 1.00201 0.0
N689 N 0.52996 0.93554 0.04847 0.0
C690 C 0.52094 0.07857 1.01366 0.0
C691 C 0.51854 0.97721 0.03706 0.0
N692 N 0.51884 0.12265 0.05088 0.0
N693 N 0.49437 0.92066 1.00091 0.0
H694 H 0.5397 0.94011 0.06615 0.0
H695 H 0.53651 0.90187 0.04021 0.0
H696 H 0.4857 0.91659 0.9832 0.0
H697 H 0.48741 0.8798 1.00888 0.0
H698 H 0.51331 0.15833 0.04368 0.0
H699 H 0.52134 0.12336 0.06886 0.0
H700 H 0.54732 0.1742 1.00999 0.0
H701 H 0.53291 0.13404 0.98402 0.0
C702 C 0.96866 0.47479 1.01371 0.0
C703 C 0.02519 0.51031 1.00103 0.0
C704 C 0.07908 0.55904 0.03716 0.0
C705 C 0.02632 0.51494 0.04995 0.0
N706 N 0.91874 0.43598 0.05118 0.0
N707 N 0.13315 0.58918 1.0001 0.0
C708 C 0.96979 0.47569 0.0384 0.0
C709 C 0.0797 0.55473 1.01256 0.0
N710 N 0.91448 0.43863 1.00199 0.0
N711 N 0.12945 0.60333 0.0489 0.0
H712 H 0.1341 0.58718 0.98211 0.0
H713 H 0.17666 0.61785 1.00739 0.0
H714 H 0.12992 0.60568 0.06691 0.0
H715 H 0.16827 0.64002 0.04104 0.0
H716 H 0.8707 0.41488 1.00972 0.0
H717 H 0.91273 0.43595 0.98399 0.0
H718 H 0.8777 0.40021 0.04431 0.0
H719 H 0.91826 0.43868 0.06915 0.0
C720 C 0.49099 0.502 1.0131 0.0
C721 C 0.54603 0.5457 1.00138 0.0
C722 C 0.59674 0.59014 0.03838 0.0
C723 C 0.54166 0.54692 0.05037 0.0
N724 N 0.43392 0.46658 0.04953 0.0
N725 N 0.64323 0.64265 1.0023 0.0
C726 C 0.48799 0.50405 0.0378 0.0
C727 C 0.59652 0.59304 1.01391 0.0
N728 N 0.44175 0.45907 1.00052 0.0
N729 N 0.64962 0.6289 0.05038 0.0
H730 H 0.64367 0.64762 0.98438 0.0
H731 H 0.67787 0.68221 1.01042 0.0
H732 H 0.65165 0.63137 0.06831 0.0
H733 H 0.69318 0.65518 0.04261 0.0
H734 H 0.40231 0.42146 1.00767 0.0
H735 H 0.44122 0.46092 0.98251 0.0
H736 H 0.39115 0.43854 0.04163 0.0
H737 H 0.43149 0.46507 0.06755 0.0
C738 C 0.16955 0.28974 0.36911 0.0
C739 C 0.18855 0.34598 0.38131 0.0
C740 C 0.21177 0.40314 0.34456 0.0
C741 C 0.18148 0.34528 0.33249 0.0
N742 N 0.1384 0.23437 0.33247 0.0
N743 N 0.24634 0.45721 0.38151 0.0
C744 C 0.16408 0.28891 0.34452 0.0
C745 C 0.21655 0.40325 0.36922 0.0
N746 N 0.15543 0.23705 0.38145 0.0
N747 N 0.23212 0.45745 0.33247 0.0
H748 H 0.2507 0.457 0.39944 0.0
H749 H 0.2704 0.50149 0.3742 0.0
H750 H 0.23117 0.45878 0.31452 0.0
H751 H 0.24915 0.50104 0.33995 0.0
H752 H 0.14402 0.19439 0.37412 0.0
H753 H 0.15984 0.23772 0.39941 0.0
H754 H 0.11888 0.19039 0.34004 0.0
H755 H 0.13557 0.2333 0.31447 0.0
C756 C 0.69614 0.78062 0.37502 0.0
C757 C 0.69778 0.83191 0.38672 0.0
C758 C 0.70657 0.88368 0.34933 0.0
C759 C 0.70028 0.83078 0.3376 0.0
N760 N 0.68479 0.72637 0.33899 0.0
N761 N 0.69202 0.92583 0.38516 0.0
C762 C 0.69424 0.77867 0.35041 0.0
C763 C 0.69942 0.88165 0.37386 0.0
N764 N 0.69828 0.73449 0.38749 0.0
N765 N 0.72073 0.93626 0.33696 0.0
H766 H 0.68245 0.92218 0.40283 0.0
H767 H 0.68828 0.96132 0.37686 0.0
H768 H 0.72821 0.93892 0.31913 0.0
H769 H 0.73089 0.97843 0.34447 0.0
H770 H 0.70634 0.70069 0.38021 0.0
H771 H 0.69466 0.73134 0.40546 0.0
H772 H 0.67102 0.68374 0.34707 0.0
H773 H 0.68809 0.72462 0.32109 0.0
C774 C 0.26556 0.93214 0.34596 0.0
C775 C 0.21851 0.88008 0.33399 0.0
C776 C 0.16639 0.83387 0.37102 0.0
C777 C 0.2167 0.88315 0.383 0.0
N778 N 0.31935 0.97434 0.382 0.0
N779 N 0.12705 0.77849 0.33477 0.0
C780 C 0.26779 0.93081 0.37048 0.0
C781 C 0.16956 0.83011 0.34644 0.0
N782 N 0.30801 0.98348 0.33385 0.0
N783 N 0.11515 0.79146 0.3831 0.0
H784 H 0.12635 0.77598 0.31677 0.0
H785 H 0.09448 0.73738 0.34287 0.0
H786 H 0.11278 0.79147 0.40111 0.0
H787 H 0.07396 0.75843 0.37532 0.0
H788 H 0.33878 0.02569 0.34157 0.0
H789 H 0.30879 0.98617 0.31587 0.0
H790 H 0.361 1.00535 0.37381 0.0
H791 H 0.32295 0.97623 0.39993 0.0
C792 C 0.85891 0.66164 0.70593 0.0
C793 C 0.84421 0.7049 0.71642 0.0
C794 C 0.84386 0.7462 0.67773 0.0
C795 C 0.84094 0.69286 0.66751 0.0
N796 N 0.84592 0.59878 0.67189 0.0
N797 N 0.81667 0.78572 0.71092 0.0
C798 C 0.84963 0.65069 0.68157 0.0
C799 C 0.83654 0.74747 0.70194 0.0
N800 N 0.88135 0.63107 0.71901 0.0
N801 N 0.85071 0.79459 0.66417 0.0
H802 H 0.80752 0.78686 0.72837 0.0
H803 H 0.80324 0.81197 0.70074 0.0
H804 H 0.85457 0.79433 0.64626 0.0
H805 H 0.8592 0.83718 0.67085 0.0
H806 H 0.89604 0.60174 0.71199 0.0
H807 H 0.8927 0.64117 0.73636 0.0
H808 H 0.84496 0.5626 0.68156 0.0
H809 H 0.83997 0.59062 0.65415 0.0
C810 C 0.41217 0.20511 0.68041 0.0
C811 C 0.35857 0.1629 0.66789 0.0
C812 C 0.29658 0.13593 0.70374 0.0
C813 C 0.35201 0.16745 0.71665 0.0
N814 N 0.46357 0.23451 0.7177 0.0
N815 N 0.24917 0.08505 0.66784 0.0
C816 C 0.41001 0.20428 0.70509 0.0
C817 C 0.30019 0.12853 0.67954 0.0
N818 N 0.46558 0.24421 0.66867 0.0
N819 N 0.24051 0.11132 0.71491 0.0
H820 H 0.24946 0.07902 0.65005 0.0
H821 H 0.20767 0.05295 0.67585 0.0
H822 H 0.23758 0.11622 0.73271 0.0
H823 H 0.19783 0.09197 0.70638 0.0
H824 H 0.50504 0.28002 0.67643 0.0
H825 H 0.46844 0.24367 0.6507 0.0
H826 H 0.50812 0.25545 0.71054 0.0
H827 H 0.46347 0.2366 0.73566 0.0
C828 C 0.93908 0.25729 0.67936 0.0
C829 C 0.88757 0.21014 0.66698 0.0
C830 C 0.83835 0.15947 0.7039 0.0
C831 C 0.88709 0.20882 0.7163 0.0
N832 N 0.98181 0.30846 0.71592 0.0
N833 N 0.78298 0.124 0.66751 0.0
C834 C 0.93711 0.25863 0.70402 0.0
C835 C 0.83568 0.16341 0.67932 0.0
N836 N 0.99064 0.3003 0.66752 0.0
N837 N 0.79542 0.10804 0.7157 0.0
H838 H 0.77927 0.12864 0.64977 0.0
H839 H 0.74138 0.09186 0.67544 0.0
H840 H 0.79906 0.10324 0.73346 0.0
H841 H 0.76105 0.06799 0.70774 0.0
H842 H 0.03304 0.33018 0.67536 0.0
H843 H 0.99203 0.30446 0.64956 0.0
H844 H 0.01444 0.35003 0.70812 0.0
H845 H 0.98465 0.30958 0.7339 0.0
C846 C 0.33009 0.89347 0.20048 0.0
C847 C 0.29758 0.92632 0.206 0.0
C848 C 0.37396 0.01426 0.1817 0.0
C849 C 0.40776 0.98252 0.1769 0.0
N850 N 0.42109 0.89377 0.18396 0.0
N851 N 0.28184 0.01322 0.1964 0.0
C852 C 0.38682 0.92284 0.18709 0.0
C853 C 0.31742 0.98506 0.19498 0.0
N854 N 0.30328 0.83164 0.20608 0.0
N855 N 0.39882 0.07522 0.17519 0.0
H856 H 0.24485 1.00021 0.20772 0.0
H857 H 0.28709 0.04869 0.18522 0.0
H858 H 0.44073 0.09928 0.16637 0.0
H859 H 0.38204 0.10424 0.18068 0.0
H860 H 0.32017 0.80273 0.20062 0.0
H861 H 0.25978 0.80687 0.21399 0.0
H862 H 0.41399 0.85468 0.19332 0.0
H863 H 0.45964 0.911 0.17302 0.0
C864 C 0.04394 0.38104 0.1782 0.0
C865 C 0.06658 0.44663 0.17651 0.0
C866 C 0.15494 0.46299 0.20187 0.0
C867 C 0.12988 0.39756 0.20408 0.0
N868 N 0.06729 0.29838 0.18644 0.0
N869 N 0.14426 0.55051 0.18769 0.0
C870 C 0.07924 0.35786 0.18994 0.0
C871 C 0.12247 0.48782 0.18862 0.0
N872 N 0.98603 0.33985 0.17009 0.0
N873 N 0.21217 0.50111 0.2112 0.0
H874 H 0.12402 0.57051 0.17749 0.0
H875 H 0.18055 0.58296 0.1978 0.0
H876 H 0.23751 0.48312 0.21942 0.0
H877 H 0.23684 0.54927 0.20922 0.0
H878 H 0.96458 0.29195 0.17294 0.0
H879 H 0.95614 0.35377 0.16313 0.0
H880 H 0.03545 0.26866 0.17428 0.0
H881 H 0.09461 0.28146 0.19386 0.0
C882 C 0.66247 0.679 0.20981 0.0
C883 C 0.64973 0.72948 0.21059 0.0
C884 C 0.56353 0.67057 0.18306 0.0
C885 C 0.58355 0.6262 0.17969 0.0
N886 N 0.65775 0.59268 0.18847 0.0
N887 N 0.59201 0.77581 0.19459 0.0
C888 C 0.63489 0.63208 0.19257 0.0
C889 C 0.60096 0.72568 0.19633 0.0
N890 N 0.69712 0.6726 0.22666 0.0
N891 N 0.50819 0.65971 0.17384 0.0
H892 H 0.6196 0.81729 0.20341 0.0
H893 H 0.56139 0.77833 0.1828 0.0
H894 H 0.47976 0.61957 0.16449 0.0
H895 H 0.48807 0.68721 0.17735 0.0
H896 H 0.70265 0.63368 0.22865 0.0
H897 H 0.7135 0.70304 0.24024 0.0
H898 H 0.69986 0.59969 0.19526 0.0
H899 H 0.63677 0.55519 0.17712 0.0
C900 C 0.03191 0.38999 0.86413 0.0
C901 C 0.99322 0.41357 0.87199 0.0
C902 C 0.90394 0.32692 0.85178 0.0
C903 C 0.94277 0.30275 0.84404 0.0
N904 N 0.04139 0.30483 0.84821 0.0
N905 N 0.89421 0.40974 0.87072 0.0
C906 C 1.00599 0.33242 0.85174 0.0
C907 C 0.9298 0.38363 0.86492 0.0
N908 N 0.09495 0.42522 0.86712 0.0
N909 N 0.84093 0.29222 0.84853 0.0
H910 H 0.91096 0.44907 0.88109 0.0
H911 H 0.85002 0.39555 0.86409 0.0
H912 H 0.81967 0.24806 0.84115 0.0
H913 H 0.80865 0.30325 0.85534 0.0
H914 H 0.12695 0.41551 0.85912 0.0
H915 H 0.11577 0.46784 0.8757 0.0
H916 H 0.08339 0.31868 0.85675 0.0
H917 H 0.02773 0.26558 0.83813 0.0
C918 C 0.67158 0.65572 0.8689 0.0
C919 C 0.63499 0.58995 0.87294 0.0
C920 C 0.71047 0.57587 0.84906 0.0
C921 C 0.74571 0.641 0.84479 0.0
N922 N 0.76694 0.74418 0.85399 0.0
N923 N 0.61259 0.48725 0.86167 0.0
C924 C 0.72802 0.68114 0.85565 0.0
C925 C 0.65258 0.54997 0.86159 0.0
N926 N 0.64961 0.69372 0.8762 0.0
N927 N 0.73356 0.5388 0.84182 0.0
H928 H 0.56942 0.46682 0.86993 0.0
H929 H 0.61933 0.45602 0.85176 0.0
H930 H 0.77521 0.55623 0.83258 0.0
H931 H 0.71467 0.49229 0.84672 0.0
H932 H 0.66976 0.74084 0.87215 0.0
H933 H 0.60666 0.67668 0.88419 0.0
H934 H 0.76149 0.77691 0.86339 0.0
H935 H 0.80865 0.76409 0.84466 0.0
C936 C 0.4506 0.15463 0.85538 0.0
C937 C 0.3941 0.11287 0.84378 0.0
C938 C 0.40394 0.02417 0.85949 0.0
C939 C 0.45807 0.06561 0.87184 0.0
N940 N 0.54274 0.16965 0.87633 0.0
N941 N 0.31073 1.00653 0.83952 0.0
C942 C 0.48414 0.13071 0.86828 0.0
C943 C 0.36964 0.04725 0.8469 0.0
N944 N 0.47118 0.21709 0.85501 0.0
N945 N 0.38678 0.96244 0.85896 0.0
H946 H 0.28188 0.02108 0.83206 0.0
H947 H 0.28745 0.95906 0.84329 0.0
H948 H 0.41106 0.94433 0.86791 0.0
H949 H 0.35263 0.93038 0.84799 0.0
H950 H 0.5075 0.24916 0.86526 0.0
H951 H 0.44904 0.23687 0.84584 0.0
H952 H 0.5688 0.21648 0.87171 0.0
H953 H 0.56758 0.15349 0.88597 0.0
C954 C 0.99476 0.32878 0.5266 0.0
C955 C 0.97207 0.26941 0.53751 0.0
C956 C 0.06238 0.26459 0.52047 0.0
C957 C 0.0859 0.32466 0.51041 0.0
N958 N 0.08357 0.42061 0.51038 0.0
N959 N 0.97201 0.17231 0.5355 0.0
C960 C 0.05429 0.35829 0.51519 0.0
C961 C 1.00302 0.23521 0.53208 0.0
N962 N 0.958 0.35559 0.52522 0.0
N963 N 0.09734 0.23584 0.51955 0.0
H964 H 0.92544 0.14829 0.54072 0.0
H965 H 0.98869 0.14323 0.52995 0.0
H966 H 0.14144 0.25673 0.51199 0.0
H967 H 0.08599 0.19496 0.52857 0.0
H968 H 0.96956 0.39483 0.51507 0.0
H969 H 0.91292 0.33542 0.53169 0.0
H970 H 0.0673 0.4497 0.51634 0.0
H971 H 0.12787 0.44451 0.5029 0.0
C972 C 0.69676 0.7136 0.51872 0.0
C973 C 0.73282 0.77804 0.51292 0.0
C974 C 0.8245 0.77931 0.53154 0.0
C975 C 0.7869 0.71654 0.53915 0.0
N976 N 0.68408 0.6262 0.54177 0.0
N977 N 0.82846 0.87483 0.51825 0.0
C978 C 0.72222 0.68475 0.5333 0.0
C979 C 0.79617 0.81141 0.52044 0.0
N980 N 0.6389 0.67823 0.50936 0.0
N981 N 0.88734 0.80902 0.53525 0.0
H982 H 0.8087 0.90013 0.51134 0.0
H983 H 0.87229 0.90299 0.52543 0.0
H984 H 0.90921 0.78841 0.54411 0.0
H985 H 0.91838 0.85207 0.52796 0.0
H986 H 0.61429 0.62974 0.51004 0.0
H987 H 0.61707 0.69641 0.49925 0.0
H988 H 0.63557 0.6049 0.54177 0.0
H989 H 0.70089 0.59973 0.54971 0.0
C990 C 0.22681 0.9864 0.51932 0.0
C991 C 0.26261 0.95885 0.51197 0.0
C992 C 0.35478 0.04296 0.53129 0.0
C993 C 0.31852 0.06819 0.54019 0.0
N994 N 0.21767 0.06 0.5446 0.0
N995 N 0.35647 0.95279 0.51599 0.0
C996 C 0.25384 0.03901 0.5346 0.0
C997 C 0.32536 0.98492 0.51945 0.0
N998 N 0.16742 0.96319 0.51128 0.0
N999 N 0.41825 0.07617 0.53314 0.0
H1000 H 0.33607 0.90955 0.50785 0.0
H1001 H 0.39978 0.96583 0.52333 0.0
H1002 H 0.44171 0.11944 0.54122 0.0
H1003 H 0.44769 0.06376 0.52466 0.0
H1004 H 0.14143 0.98561 0.51323 0.0
H1005 H 0.14494 0.9222 0.50176 0.0
H1006 H 0.16923 0.037 0.54348 0.0
H1007 H 0.23602 0.09853 0.55543 0.0
C1008 C 0.4363 0.26398 0.11066 0.0
C1009 C 0.48955 0.30967 0.12281 0.0
C1010 C 0.51285 0.22867 0.13492 0.0
C1011 C 0.46659 0.1852 0.11955 0.0
N1012 N 0.38947 0.1655 0.09025 0.0
N1013 N 0.58785 0.33657 0.14109 0.0
C1014 C 0.42924 0.20369 0.10681 0.0
C1015 C 0.53016 0.29234 0.13361 0.0
N1016 N 0.39153 0.2773 0.10337 0.0
N1017 N 0.541 0.20976 0.1509 0.0
H1018 H 0.60564 0.38424 0.13874 0.0
H1019 H 0.62136 0.32572 0.14691 0.0
H1020 H 0.53208 0.16416 0.1526 0.0
H1021 H 0.56924 0.23881 0.16403 0.0
H1022 H 0.34927 0.24399 0.0963 0.0
H1023 H 0.39367 0.31977 0.10661 0.0
H1024 H 0.3664 0.17963 0.07871 0.0
H1025 H 0.38348 0.12154 0.08677 0.0
C1026 C 0.78357 0.19523 0.11116 0.0
C1027 C 0.74002 0.20132 0.12547 0.0
C1028 C 0.82221 0.30368 0.13764 0.0
C1029 C 0.86269 0.3024 0.12033 0.0
N1030 N 0.87967 0.24856 0.08901 0.0
N1031 N 0.71565 0.26705 0.14899 0.0
C1032 C 0.84316 0.24831 0.10679 0.0
C1033 C 0.75879 0.25669 0.13805 0.0
N1034 N 0.76852 0.13848 0.10217 0.0
N1035 N 0.84408 0.34999 0.15377 0.0
H1036 H 0.668 0.2355 0.14898 0.0
H1037 H 0.72634 0.30997 0.156 0.0
H1038 H 0.88983 0.38668 0.15413 0.0
H1039 H 0.81819 0.3487 0.1682 0.0
H1040 H 0.80034 0.13 0.09337 0.0
H1041 H 0.72608 0.09833 0.10555 0.0
H1042 H 0.86456 0.21301 0.07689 0.0
H1043 H 0.92347 0.28651 0.08533 0.0
C1044 C 0.76029 0.56003 0.09766 0.0
C1045 C 0.74886 0.59322 0.11511 0.0
C1046 C 0.83867 0.60272 0.13707 0.0
C1047 C 0.84434 0.56223 0.12114 0.0
N1048 N 0.80679 0.49704 0.08736 0.0
N1049 N 0.77557 0.64566 0.15173 0.0
C1050 C 0.80468 0.54011 0.10154 0.0
C1051 C 0.78822 0.61524 0.13477 0.0
N1052 N 0.72816 0.54747 0.07733 0.0
N1053 N 0.88228 0.63015 0.15407 0.0
H1054 H 0.74102 0.65803 0.15002 0.0
H1055 H 0.79727 0.65638 0.1678 0.0
H1056 H 0.91914 0.62133 0.15636 0.0
H1057 H 0.88477 0.6649 0.16483 0.0
H1058 H 0.73819 0.52896 0.06291 0.0
H1059 H 0.69506 0.56116 0.0742 0.0
H1060 H 0.77454 0.47387 0.07432 0.0
H1061 H 0.83758 0.48008 0.08982 0.0
C1062 C 0.25909 0.43214 0.91815 0.0
C1063 C 0.30794 0.48086 0.93087 0.0
C1064 C 0.23079 0.49372 0.95323 0.0
C1065 C 0.18315 0.4535 0.93782 0.0
N1066 N 0.15086 0.38166 0.90592 0.0
N1067 N 0.34145 0.56039 0.96001 0.0
C1068 C 0.19667 0.42097 0.92059 0.0
C1069 C 0.29406 0.51198 0.94841 0.0
N1070 N 0.27245 0.39637 0.90388 0.0
N1071 N 0.21486 0.51368 0.97273 0.0
H1072 H 0.38841 0.57446 0.95733 0.0
H1073 H 0.33462 0.58961 0.97106 0.0
H1074 H 0.1685 0.49909 0.97699 0.0
H1075 H 0.24631 0.53892 0.98575 0.0
H1076 H 0.23863 0.35598 0.89595 0.0
H1077 H 0.31778 0.40468 0.90123 0.0
H1078 H 0.15915 0.36262 0.89126 0.0
H1079 H 0.10429 0.36949 0.90786 0.0
C1080 C 0.52183 0.78792 0.91476 0.0
C1081 C 0.55937 0.84345 0.92704 0.0
C1082 C 0.61571 0.79533 0.94525 0.0
C1083 C 0.58067 0.7412 0.93176 0.0
N1084 N 0.5108 0.69295 0.89926 0.0
N1085 N 0.65042 0.9052 0.95038 0.0
C1086 C 0.53745 0.74001 0.91504 0.0
C1087 C 0.60897 0.84877 0.9412 0.0
N1088 N 0.46817 0.77843 0.90421 0.0
N1089 N 0.6526 0.79473 0.96275 0.0
H1090 H 0.64759 0.94542 0.94744 0.0
H1091 H 0.69082 0.91342 0.95902 0.0
H1092 H 0.6585 0.75656 0.96627 0.0
H1093 H 0.6735 0.83017 0.97488 0.0
H1094 H 0.43511 0.73556 0.89751 0.0
H1095 H 0.45279 0.8108 0.90427 0.0
H1096 H 0.48586 0.69461 0.88499 0.0
H1097 H 0.51766 0.65471 0.89905 0.0
C1098 C 0.27051 0.84614 0.91238 0.0
C1099 C 0.29955 0.86672 0.93416 0.0
C1100 C 0.22573 0.76481 0.95074 0.0
C1101 C 0.2062 0.74034 0.92811 0.0
N1102 N 0.21596 0.75831 0.88679 0.0
N1103 N 0.30709 0.84474 0.97424 0.0
C1104 C 0.22938 0.78133 0.90874 0.0
C1105 C 0.27763 0.82578 0.95343 0.0
N1106 N 0.2828 0.88853 0.89512 0.0
N1107 N 0.19283 0.73131 0.96965 0.0
H1108 H 0.34287 0.89023 0.97712 0.0
H1109 H 0.29816 0.81445 0.98815 0.0
H1110 H 0.15112 0.68928 0.96834 0.0
H1111 H 0.20235 0.74888 0.98639 0.0
H1112 H 0.25882 0.87719 0.87948 0.0
H1113 H 0.3121 0.9362 0.89755 0.0
H1114 H 0.23698 0.78547 0.87215 0.0
H1115 H 0.18873 0.71106 0.88316 0.0
C1116 C 0.19294 0.62867 0.42991 0.0
C1117 C 0.16633 0.64491 0.4485 0.0
C1118 C 0.102 0.53426 0.45918 0.0
C1119 C 0.13284 0.51912 0.44185 0.0
N1120 N 0.1901 0.5464 0.40626 0.0
N1121 N 0.09418 0.61512 0.48039 0.0
C1122 C 0.17274 0.56489 0.42577 0.0
C1123 C 0.11989 0.59811 0.4629 0.0
N1124 N 0.24045 0.67439 0.41718 0.0
N1125 N 0.05479 0.48744 0.47156 0.0
H1126 H 0.10435 0.66097 0.4829 0.0
H1127 H 0.06434 0.58483 0.49296 0.0
H1128 H 0.03968 0.44059 0.46858 0.0
H1129 H 0.02721 0.49387 0.48356 0.0
H1130 H 0.26651 0.66585 0.4051 0.0
H1131 H 0.25764 0.72181 0.41992 0.0
H1132 H 0.21498 0.57615 0.39266 0.0
H1133 H 0.17344 0.49941 0.40268 0.0
C1134 C 0.49329 0.64805 0.46851 0.0
C1135 C 0.54125 0.64331 0.45638 0.0
C1136 C 0.46474 0.53342 0.4486 0.0
C1137 C 0.41618 0.54243 0.45779 0.0
N1138 N 0.38382 0.61501 0.4704 0.0
N1139 N 0.5694 0.58183 0.43225 0.0
C1140 C 0.43033 0.60142 0.46613 0.0
C1141 C 0.52631 0.58581 0.44582 0.0
N1142 N 0.50747 0.69706 0.48273 0.0
N1143 N 0.45251 0.47481 0.44301 0.0
H1144 H 0.6145 0.61893 0.42989 0.0
H1145 H 0.55896 0.54333 0.42202 0.0
H1146 H 0.40853 0.43561 0.44508 0.0
H1147 H 0.48707 0.46443 0.43831 0.0
H1148 H 0.47512 0.69871 0.49387 0.0
H1149 H 0.55252 0.73266 0.48526 0.0
H1150 H 0.39257 0.6599 0.47407 0.0
H1151 H 0.33673 0.58386 0.46751 0.0
C1152 C 0.49614 0.89252 0.43182 0.0
C1153 C 0.52976 0.90976 0.45302 0.0
C1154 C 0.47062 0.96106 0.46512 0.0
C1155 C 0.43098 0.93568 0.44571 0.0
N1156 N 0.40621 0.87954 0.40994 0.0
N1157 N 0.54896 0.95935 0.49017 0.0
C1158 C 0.44461 0.90294 0.42869 0.0
C1159 C 0.51729 0.9442 0.46969 0.0
N1160 N 0.51275 0.86523 0.41482 0.0
N1161 N 0.46372 1.00153 0.47913 0.0
H1162 H 0.58518 0.95027 0.49367 0.0
H1163 H 0.53724 0.97769 0.50422 0.0
H1164 H 0.43023 0.01472 0.47614 0.0
H1165 H 0.49447 0.02637 0.49238 0.0
H1166 H 0.49519 0.85798 0.39809 0.0
H1167 H 0.54684 0.85244 0.41695 0.0
H1168 H 0.40731 0.84801 0.39837 0.0
H1169 H 0.37122 0.89044 0.40635 0.0
C1170 C 0.8751 0.76254 0.28829 0.0
C1171 C 0.84606 0.77208 0.26873 0.0
C1172 C 0.9436 0.81102 0.24658 0.0
C1173 C 0.97213 0.79938 0.2657 0.0
N1174 N 0.96151 0.75175 0.30318 0.0
N1175 N 0.84848 0.78864 0.22743 0.0
C1176 C 0.93669 0.77115 0.28609 0.0
C1177 C 0.87889 0.7901 0.24729 0.0
N1178 N 0.84541 0.7487 0.30919 0.0
N1179 N 0.97889 0.84696 0.22842 0.0
H1180 H 0.80184 0.77604 0.22719 0.0
H1181 H 0.86803 0.79395 0.21103 0.0
H1182 H 0.02719 0.86689 0.22751 0.0
H1183 H 0.96123 0.86312 0.2154 0.0
H1184 H 0.86696 0.74878 0.32468 0.0
H1185 H 0.79988 0.74029 0.31113 0.0
H1186 H 0.93618 0.72596 0.31751 0.0
H1187 H 1.00588 0.7566 0.30197 0.0
C1188 C 0.29269 0.12126 0.24971 0.0
C1189 C 0.26422 0.07656 0.2677 0.0
C1190 C 0.20578 0.12792 0.28007 0.0
C1191 C 0.23413 0.17321 0.26222 0.0
N1192 N 0.31513 0.22133 0.2334 0.0
N1193 N 0.21112 0.05046 0.30433 0.0
C1194 C 0.28083 0.1724 0.24799 0.0
C1195 C 0.22686 0.08475 0.28436 0.0
N1196 N 0.32953 0.1139 0.23392 0.0
N1197 N 0.15546 0.12284 0.29189 0.0
H1198 H 0.22658 0.01892 0.30795 0.0
H1199 H 0.18884 0.0582 0.31816 0.0
H1200 H 0.13517 0.1502 0.28826 0.0
H1201 H 0.12932 0.08675 0.30348 0.0
H1202 H 0.34555 0.14002 0.21876 0.0
H1203 H 0.34221 0.07964 0.23565 0.0
H1204 H 0.35371 0.22668 0.22419 0.0
H1205 H 0.30824 0.25957 0.23191 0.0
C1206 C 0.87613 0.10178 0.28138 0.0
C1207 C 0.86928 0.06517 0.26145 0.0
C1208 C 0.95569 0.1573 0.24306 0.0
C1209 C 0.96924 0.19023 0.2642 0.0
N1210 N 0.94465 0.1927 0.30424 0.0
N1211 N 0.90996 0.05697 0.22442 0.0
C1212 C 0.92974 0.16237 0.28356 0.0
C1213 C 0.91049 0.09281 0.24243 0.0
N1214 N 0.83041 0.07949 0.29787 0.0
N1215 N 0.98624 0.18818 0.22346 0.0
H1216 H 0.87984 0.00912 0.2235 0.0
H1217 H 0.94372 0.07362 0.21144 0.0
H1218 H 0.01844 0.23564 0.22359 0.0
H1219 H 0.9747 0.16876 0.20702 0.0
H1220 H 0.83003 0.10589 0.31177 0.0
H1221 H 0.7894 0.03684 0.29632 0.0
H1222 H 0.92212 0.17193 0.31969 0.0
H1223 H 0.98224 0.23773 0.30611 0.0
C1224 C 0.76134 0.86132 0.79899 0.0
C1225 C 0.79569 0.84881 0.78213 0.0
C1226 C 0.84386 0.95777 0.76853 0.0
C1227 C 0.81609 0.9719 0.7872 0.0
N1228 N 0.7507 0.93939 0.82101 0.0
N1229 N 0.87946 0.89014 0.75364 0.0
C1230 C 0.77506 0.92416 0.80258 0.0
C1231 C 0.83911 0.89822 0.7675 0.0
N1232 N 0.71697 0.81366 0.81203 0.0
N1233 N 0.87599 1.0016 0.75182 0.0
H1234 H 0.87933 0.84828 0.75186 0.0
H1235 H 0.91741 0.92674 0.74528 0.0
H1236 H 0.88479 0.04738 0.75253 0.0
H1237 H 0.88977 0.99115 0.73623 0.0
H1238 H 0.68613 0.81838 0.82297 0.0
H1239 H 0.70792 0.7679 0.81095 0.0
H1240 H 0.72636 0.90888 0.83448 0.0
H1241 H 0.75792 0.98427 0.82353 0.0
C1242 C 0.15105 0.96606 0.80373 0.0
C1243 C 0.1925 0.96597 0.78655 0.0
C1244 C 0.11313 0.85992 0.77558 0.0
C1245 C 0.06972 0.86369 0.7907 0.0
N1246 N 0.04441 0.92378 0.81675 0.0
N1247 N 0.21137 0.91523 0.75466 0.0
C1248 C 0.08807 0.91729 0.80435 0.0
C1249 C 0.17343 0.91319 0.77224 0.0
N1250 N 0.17181 0.01287 0.81965 0.0
N1251 N 0.09697 0.80497 0.76475 0.0
H1252 H 0.25588 0.95308 0.75191 0.0
H1253 H 0.19734 0.88142 0.74189 0.0
H1254 H 0.05337 0.76524 0.76685 0.0
H1255 H 0.12823 0.79707 0.75529 0.0
H1256 H 0.14641 0.01096 0.8343 0.0
H1257 H 0.21646 0.05149 0.81949 0.0
H1258 H 0.05329 0.96528 0.82452 0.0
H1259 H 0.99752 0.8896 0.81763 0.0
C1260 C 0.18181 0.27852 0.79648 0.0
C1261 C 0.17888 0.2286 0.78334 0.0
C1262 C 0.09258 0.22425 0.76094 0.0
C1263 C 0.08662 0.26382 0.77709 0.0
N1264 N 0.13045 0.33634 0.80841 0.0
N1265 N 0.12678 0.14945 0.75428 0.0
C1266 C 0.13326 0.29401 0.79418 0.0
C1267 C 0.13365 0.20091 0.76561 0.0
N1268 N 0.23179 0.31207 0.8106 0.0
N1269 N 0.05782 0.20845 0.74118 0.0
H1270 H 0.15348 0.12843 0.75795 0.0
H1271 H 0.0903 0.12367 0.74291 0.0
H1272 H 0.02807 0.22603 0.73736 0.0
H1273 H 0.06354 0.18396 0.72769 0.0
H1274 H 0.24004 0.35238 0.81913 0.0
H1275 H 0.26811 0.30229 0.81248 0.0
H1276 H 0.15848 0.35513 0.8229 0.0
H1277 H 0.09887 0.35218 0.80587 0.0
C1278 C 0.53571 0.08272 0.58692 0.0
C1279 C 0.51838 0.10923 0.60521 0.0
C1280 C 0.62742 0.16829 0.61781 0.0
C1281 C 0.64524 0.1423 0.59948 0.0
N1282 N 0.61529 0.06433 0.56993 0.0
N1283 N 0.54363 0.16086 0.64194 0.0
C1284 C 0.59899 0.09624 0.58502 0.0
C1285 C 0.56312 0.14636 0.62198 0.0
N1286 N 0.49246 0.04678 0.57083 0.0
N1287 N 0.67186 0.21696 0.63028 0.0
H1288 H 0.49651 0.14443 0.64548 0.0
H1289 H 0.57302 0.1832 0.65584 0.0
H1290 H 0.71959 0.23653 0.62727 0.0
H1291 H 0.66145 0.24212 0.64211 0.0
H1292 H 0.50351 0.0327 0.55547 0.0
H1293 H 0.44529 0.03266 0.57251 0.0
H1294 H 0.58313 0.02599 0.56054 0.0
H1295 H 0.66097 0.07298 0.56817 0.0
C1296 C 0.95824 0.44871 0.58111 0.0
C1297 C 0.94305 0.41343 0.60182 0.0
C1298 C 0.91142 0.48457 0.61881 0.0
C1299 C 0.91164 0.50922 0.59648 0.0
N1300 N 0.93263 0.51062 0.55555 0.0
N1301 N 0.90664 0.39889 0.64115 0.0
C1302 C 0.9355 0.49114 0.57743 0.0
C1303 C 0.92049 0.43212 0.62097 0.0
N1304 N 0.99433 0.44166 0.56495 0.0
N1305 N 0.9056 0.51306 0.63806 0.0
H1306 H 0.91716 0.36326 0.6438 0.0
H1307 H 0.88251 0.40497 0.65474 0.0
H1308 H 0.90463 0.5547 0.63722 0.0
H1309 H 0.90981 0.50005 0.65483 0.0
H1310 H 1.01212 0.4706 0.55049 0.0
H1311 H 1.0122 0.41168 0.5675 0.0
H1312 H 0.94333 0.49338 0.54089 0.0
H1313 H 0.91406 0.53937 0.55176 0.0
C1314 C 0.60033 0.40971 0.58121 0.0
C1315 C 0.54355 0.39181 0.59292 0.0
C1316 C 0.58862 0.49662 0.60984 0.0
C1317 C 0.64417 0.51534 0.59705 0.0
N1318 N 0.69664 0.49345 0.56608 0.0
N1319 N 0.47867 0.42123 0.61456 0.0
C1320 C 0.64782 0.47312 0.58126 0.0
C1321 C 0.53617 0.43623 0.6061 0.0
N1322 N 0.61111 0.36566 0.57139 0.0
N1323 N 0.5869 0.53498 0.62638 0.0
H1324 H 0.43907 0.37806 0.61177 0.0
H1325 H 0.469 0.45335 0.62239 0.0
H1326 H 0.62418 0.57946 0.62949 0.0
H1327 H 0.55041 0.52106 0.63815 0.0
H1328 H 0.65462 0.37534 0.56516 0.0
H1329 H 0.57881 0.31819 0.57154 0.0
H1330 H 0.69736 0.46657 0.5524 0.0
H1331 H 0.73384 0.53891 0.56562 0.0
loop_
_geom_bond_atom_site_label_1
_geom_bond_atom_site_label_2
_geom_bond_distance
_geom_bond_site_symmetry_2
_ccdc_geom_bond_type
Dy0 O4 2.398 . S
Dy0 O5 2.491 . S
Dy0 O6 2.403 . S
Dy0 O7 2.664 1_545 S
Dy0 O11 2.326 . S
Dy0 O15 2.310 . S
Dy0 O16 2.351 1_545 S
C1 O12 1.185 . S
C1 O13 1.355 . S
C2 O4 1.185 . S
C2 O5 1.355 . S
Dy3 O7 2.310 . S
Dy3 O10 2.351 1_565 S
Dy3 O12 2.398 . S
Dy3 O13 2.491 . S
Dy3 O14 2.403 . S
Dy3 O15 2.664 1_565 S
Dy3 O17 2.326 . S
O4 Dy0 2.398 . S
O4 C2 1.185 . S
O5 Dy0 2.491 . S
O5 C2 1.355 . S
O6 Dy0 2.403 . S
O6 C8 1.257 . S
O7 Dy0 2.664 1_565 S
O7 Dy3 2.310 . S
O7 C8 1.266 1_565 S
C8 O6 1.257 . S
C8 O7 1.266 1_545 S
C9 O14 1.254 1_545 S
C9 O15 1.268 . S
O10 Dy3 2.351 1_545 S
O10 C18 1.249 . S
O11 Dy0 2.326 . S
O11 C18 1.267 . S
O12 C1 1.185 . S
O12 Dy3 2.398 . S
O13 C1 1.355 . S
O13 Dy3 2.491 . S
O14 Dy3 2.403 . S
O14 C9 1.254 1_565 S
O15 Dy0 2.310 . S
O15 Dy3 2.664 1_545 S
O15 C9 1.268 . S
O16 Dy0 2.351 1_565 S
O16 C19 1.249 . S
O17 Dy3 2.326 . S
O17 C19 1.267 . S
C18 O10 1.249 . S
C18 O11 1.267 . S
C19 O16 1.249 . S
C19 O17 1.267 . S
Dy20 O24 2.398 . S
Dy20 O25 2.491 . S
Dy20 O26 2.403 . S
Dy20 O27 2.664 1_655 S
Dy20 O31 2.326 . S
Dy20 O35 2.310 1_655 S
Dy20 O36 2.351 1_655 S
C21 O32 1.185 . S
C21 O33 1.355 . S
C22 O24 1.185 . S
C22 O25 1.355 . S
Dy23 O27 2.310 . S
Dy23 O30 2.351 1_455 S
Dy23 O32 2.398 . S
Dy23 O33 2.491 . S
Dy23 O34 2.403 . S
Dy23 O35 2.664 . S
Dy23 O37 2.326 . S
O24 Dy20 2.398 . S
O24 C22 1.185 . S
O25 Dy20 2.491 . S
O25 C22 1.355 . S
O26 Dy20 2.403 . S
O26 C28 1.254 1_655 S
O27 Dy20 2.664 1_455 S
O27 Dy23 2.310 . S
O27 C28 1.268 . S
C28 O26 1.254 1_455 S
C28 O27 1.268 . S
C29 O34 1.254 . S
C29 O35 1.268 . S
O30 Dy23 2.351 1_655 S
O30 C38 1.249 . S
O31 Dy20 2.326 . S
O31 C38 1.267 . S
O32 C21 1.185 . S
O32 Dy23 2.398 . S
O33 C21 1.355 . S
O33 Dy23 2.491 . S
O34 Dy23 2.403 . S
O34 C29 1.254 . S
O35 Dy20 2.310 1_455 S
O35 Dy23 2.664 . S
O35 C29 1.268 . S
O36 Dy20 2.351 1_455 S
O36 C39 1.249 . S
O37 Dy23 2.326 . S
O37 C39 1.267 . S
C38 O30 1.249 . S
C38 O31 1.267 . S
C39 O36 1.249 . S
C39 O37 1.267 . S
Dy40 O44 2.398 . S
Dy40 O45 2.491 . S
Dy40 O46 2.403 . S
Dy40 O47 2.664 . S
Dy40 O51 2.326 . S
Dy40 O55 2.310 . S
Dy40 O56 2.351 . S
C41 O52 1.185 . S
C41 O53 1.355 . S
C42 O44 1.185 . S
C42 O45 1.355 . S
Dy43 O47 2.310 . S
Dy43 O50 2.351 . S
Dy43 O52 2.398 . S
Dy43 O53 2.491 . S
Dy43 O54 2.403 . S
Dy43 O55 2.664 . S
Dy43 O57 2.326 . S
O44 Dy40 2.398 . S
O44 C42 1.185 . S
O45 Dy40 2.491 . S
O45 C42 1.355 . S
O46 Dy40 2.403 . S
O46 C48 1.254 . S
O47 Dy40 2.664 . S
O47 Dy43 2.310 . S
O47 C48 1.268 . S
C48 O46 1.254 . S
C48 O47 1.268 . S
C49 O54 1.254 . S
C49 O55 1.268 . S
O50 Dy43 2.351 . S
O50 C58 1.249 . S
O51 Dy40 2.326 . S
O51 C58 1.267 . S
O52 C41 1.185 . S
O52 Dy43 2.398 . S
O53 C41 1.355 . S
O53 Dy43 2.491 . S
O54 Dy43 2.403 . S
O54 C49 1.254 . S
O55 Dy40 2.310 . S
O55 Dy43 2.664 . S
O55 C49 1.268 . S
O56 Dy40 2.351 . S
O56 C59 1.249 . S
O57 Dy43 2.326 . S
O57 C59 1.267 . S
C58 O50 1.249 . S
C58 O51 1.267 . S
C59 O56 1.249 . S
C59 O57 1.267 . S
Dy60 O64 2.398 . S
Dy60 O65 2.491 . S
Dy60 O66 2.403 . S
Dy60 O67 2.664 1_455 S
Dy60 O71 2.326 . S
Dy60 O75 2.310 . S
Dy60 O76 2.351 1_455 S
C61 O72 1.185 . S
C61 O73 1.355 . S
C62 O64 1.185 . S
C62 O65 1.355 . S
Dy63 O67 2.310 . S
Dy63 O70 2.351 1_655 S
Dy63 O72 2.398 . S
Dy63 O73 2.491 . S
Dy63 O74 2.403 . S
Dy63 O75 2.664 1_655 S
Dy63 O77 2.326 . S
O64 Dy60 2.398 . S
O64 C62 1.185 . S
O65 Dy60 2.491 . S
O65 C62 1.355 . S
O66 Dy60 2.403 . S
O66 C68 1.257 . S
O67 Dy60 2.664 1_655 S
O67 Dy63 2.310 . S
O67 C68 1.266 1_655 S
C68 O66 1.257 . S
C68 O67 1.266 1_455 S
C69 O74 1.254 1_455 S
C69 O75 1.268 . S
O70 Dy63 2.351 1_455 S
O70 C78 1.249 . S
O71 Dy60 2.326 . S
O71 C78 1.267 . S
O72 C61 1.185 . S
O72 Dy63 2.398 . S
O73 C61 1.355 . S
O73 Dy63 2.491 . S
O74 Dy63 2.403 . S
O74 C69 1.254 1_655 S
O75 Dy60 2.310 . S
O75 Dy63 2.664 1_455 S
O75 C69 1.268 . S
O76 Dy60 2.351 1_655 S
O76 C79 1.249 . S
O77 Dy63 2.326 . S
O77 C79 1.267 . S
C78 O70 1.249 . S
C78 O71 1.267 . S
C79 O76 1.249 . S
C79 O77 1.267 . S
Dy80 O84 2.398 . S
Dy80 O85 2.491 . S
Dy80 O86 2.403 . S
Dy80 O87 2.664 . S
Dy80 O91 2.326 . S
Dy80 O95 2.310 . S
Dy80 O96 2.351 . S
C81 O92 1.185 . S
C81 O93 1.355 . S
C82 O84 1.185 . S
C82 O85 1.355 . S
Dy83 O87 2.310 . S
Dy83 O90 2.351 . S
Dy83 O92 2.398 . S
Dy83 O93 2.491 . S
Dy83 O94 2.403 . S
Dy83 O95 2.664 . S
Dy83 O97 2.326 . S
O84 Dy80 2.398 . S
O84 C82 1.185 . S
O85 Dy80 2.491 . S
O85 C82 1.355 . S
O86 Dy80 2.403 . S
O86 C88 1.254 . S
O87 Dy80 2.664 . S
O87 Dy83 2.310 . S
O87 C88 1.268 . S
C88 O86 1.254 . S
C88 O87 1.268 . S
C89 O94 1.254 . S
C89 O95 1.268 . S
O90 Dy83 2.351 . S
O90 C98 1.249 . S
O91 Dy80 2.326 . S
O91 C98 1.267 . S
O92 C81 1.185 . S
O92 Dy83 2.398 . S
O93 C81 1.355 . S
O93 Dy83 2.491 . S
O94 Dy83 2.403 . S
O94 C89 1.254 . S
O95 Dy80 2.310 . S
O95 Dy83 2.664 . S
O95 C89 1.268 . S
O96 Dy80 2.351 . S
O96 C99 1.249 . S
O97 Dy83 2.326 . S
O97 C99 1.267 . S
C98 O90 1.249 . S
C98 O91 1.267 . S
C99 O96 1.249 . S
C99 O97 1.267 . S
Dy100 O104 2.398 . S
Dy100 O105 2.491 . S
Dy100 O106 2.403 . S
Dy100 O107 2.664 1_565 S
Dy100 O111 2.326 . S
Dy100 O115 2.310 1_565 S
Dy100 O116 2.351 1_565 S
C101 O112 1.185 . S
C101 O113 1.355 . S
C102 O104 1.185 . S
C102 O105 1.355 . S
Dy103 O107 2.310 . S
Dy103 O110 2.351 1_545 S
Dy103 O112 2.398 . S
Dy103 O113 2.491 . S
Dy103 O114 2.403 . S
Dy103 O115 2.664 . S
Dy103 O117 2.326 . S
O104 Dy100 2.398 . S
O104 C102 1.185 . S
O105 Dy100 2.491 . S
O105 C102 1.355 . S
O106 Dy100 2.403 . S
O106 C108 1.254 1_565 S
O107 Dy100 2.664 1_545 S
O107 Dy103 2.310 . S
O107 C108 1.268 . S
C108 O106 1.254 1_545 S
C108 O107 1.268 . S
C109 O114 1.254 . S
C109 O115 1.268 . S
O110 Dy103 2.351 1_565 S
O110 C118 1.249 . S
O111 Dy100 2.326 . S
O111 C118 1.267 . S
O112 C101 1.185 . S
O112 Dy103 2.398 . S
O113 C101 1.355 . S
O113 Dy103 2.491 . S
O114 Dy103 2.403 . S
O114 C109 1.254 . S
O115 Dy100 2.310 1_545 S
O115 Dy103 2.664 . S
O115 C109 1.268 . S
O116 Dy100 2.351 1_545 S
O116 C119 1.249 . S
O117 Dy103 2.326 . S
O117 C119 1.267 . S
C118 O110 1.249 . S
C118 O111 1.267 . S
C119 O116 1.249 . S
C119 O117 1.267 . S
Dy120 O124 2.398 . S
Dy120 O125 2.491 . S
Dy120 O126 2.403 . S
Dy120 O127 2.664 . S
Dy120 O131 2.326 . S
Dy120 O135 2.310 . S
Dy120 O136 2.351 . S
C121 O132 1.185 . S
C121 O133 1.355 . S
C122 O124 1.185 . S
C122 O125 1.355 . S
Dy123 O127 2.310 . S
Dy123 O130 2.351 . S
Dy123 O132 2.398 1_455 S
Dy123 O133 2.491 1_455 S
Dy123 O134 2.403 . S
Dy123 O135 2.664 . S
Dy123 O137 2.326 . S
O124 Dy120 2.398 . S
O124 C122 1.185 . S
O125 Dy120 2.491 . S
O125 C122 1.355 . S
O126 Dy120 2.403 . S
O126 C128 1.254 . S
O127 Dy120 2.664 . S
O127 Dy123 2.310 . S
O127 C128 1.268 . S
C128 O126 1.254 . S
C128 O127 1.268 . S
C129 O134 1.254 . S
C129 O135 1.268 . S
O130 Dy123 2.351 . S
O130 C138 1.249 . S
O131 Dy120 2.326 . S
O131 C138 1.267 . S
O132 C121 1.185 . S
O132 Dy123 2.398 1_655 S
O133 C121 1.355 . S
O133 Dy123 2.491 1_655 S
O134 Dy123 2.403 . S
O134 C129 1.254 . S
O135 Dy120 2.310 . S
O135 Dy123 2.664 . S
O135 C129 1.268 . S
O136 Dy120 2.351 . S
O136 C139 1.249 . S
O137 Dy123 2.326 . S
O137 C139 1.267 . S
C138 O130 1.249 . S
C138 O131 1.267 . S
C139 O136 1.249 . S
C139 O137 1.267 . S
Dy140 O144 2.398 . S
Dy140 O145 2.491 . S
Dy140 O146 2.403 . S
Dy140 O147 2.664 . S
Dy140 O151 2.326 . S
Dy140 O155 2.310 . S
Dy140 O156 2.351 . S
C141 O152 1.185 . S
C141 O153 1.355 . S
C142 O144 1.185 . S
C142 O145 1.355 . S
Dy143 O147 2.310 . S
Dy143 O150 2.351 . S
Dy143 O152 2.398 . S
Dy143 O153 2.491 . S
Dy143 O154 2.403 . S
Dy143 O155 2.664 . S
Dy143 O157 2.326 . S
O144 Dy140 2.398 . S
O144 C142 1.185 . S
O145 Dy140 2.491 . S
O145 C142 1.355 . S
O146 Dy140 2.403 . S
O146 C148 1.254 . S
O147 Dy140 2.664 . S
O147 Dy143 2.310 . S
O147 C148 1.268 . S
C148 O146 1.254 . S
C148 O147 1.268 . S
C149 O154 1.254 . S
C149 O155 1.268 . S
O150 Dy143 2.351 . S
O150 C158 1.249 . S
O151 Dy140 2.326 . S
O151 C158 1.267 . S
O152 C141 1.185 . S
O152 Dy143 2.398 . S
O153 C141 1.355 . S
O153 Dy143 2.491 . S
O154 Dy143 2.403 . S
O154 C149 1.254 . S
O155 Dy140 2.310 . S
O155 Dy143 2.664 . S
O155 C149 1.268 . S
O156 Dy140 2.351 . S
O156 C159 1.249 . S
O157 Dy143 2.326 . S
O157 C159 1.267 . S
C158 O150 1.249 . S
C158 O151 1.267 . S
C159 O156 1.249 . S
C159 O157 1.267 . S
Dy160 O164 2.398 . S
Dy160 O165 2.491 . S
Dy160 O166 2.403 . S
Dy160 O167 2.664 . S
Dy160 O171 2.326 . S
Dy160 O175 2.310 . S
Dy160 O176 2.351 . S
C161 O172 1.185 . S
C161 O173 1.355 . S
C162 O164 1.185 . S
C162 O165 1.355 . S
Dy163 O167 2.310 . S
Dy163 O170 2.351 . S
Dy163 O172 2.398 1_565 S
Dy163 O173 2.491 1_565 S
Dy163 O174 2.403 . S
Dy163 O175 2.664 . S
Dy163 O177 2.326 . S
O164 Dy160 2.398 . S
O164 C162 1.185 . S
O165 Dy160 2.491 . S
O165 C162 1.355 . S
O166 Dy160 2.403 . S
O166 C168 1.254 . S
O167 Dy160 2.664 . S
O167 Dy163 2.310 . S
O167 C168 1.268 . S
C168 O166 1.254 . S
C168 O167 1.268 . S
C169 O174 1.254 . S
C169 O175 1.268 . S
O170 Dy163 2.351 . S
O170 C178 1.249 . S
O171 Dy160 2.326 . S
O171 C178 1.267 . S
O172 C161 1.185 . S
O172 Dy163 2.398 1_545 S
O173 C161 1.355 . S
O173 Dy163 2.491 1_545 S
O174 Dy163 2.403 . S
O174 C169 1.254 . S
O175 Dy160 2.310 . S
O175 Dy163 2.664 . S
O175 C169 1.268 . S
O176 Dy160 2.351 . S
O176 C179 1.249 . S
O177 Dy163 2.326 . S
O177 C179 1.267 . S
C178 O170 1.249 . S
C178 O171 1.267 . S
C179 O176 1.249 . S
C179 O177 1.267 . S
Dy180 O184 2.398 . S
Dy180 O185 2.491 . S
Dy180 O186 2.403 . S
Dy180 O187 2.664 . S
Dy180 O191 2.326 . S
Dy180 O195 2.310 . S
Dy180 O196 2.351 . S
C181 O192 1.185 . S
C181 O193 1.355 . S
C182 O184 1.185 . S
C182 O185 1.355 . S
Dy183 O187 2.310 . S
Dy183 O190 2.351 . S
Dy183 O192 2.398 . S
Dy183 O193 2.491 . S
Dy183 O194 2.403 . S
Dy183 O195 2.664 . S
Dy183 O197 2.326 . S
O184 Dy180 2.398 . S
O184 C182 1.185 . S
O185 Dy180 2.491 . S
O185 C182 1.355 . S
O186 Dy180 2.403 . S
O186 C188 1.254 . S
O187 Dy180 2.664 . S
O187 Dy183 2.310 . S
O187 C188 1.268 . S
C188 O186 1.254 . S
C188 O187 1.268 . S
C189 O194 1.254 . S
C189 O195 1.268 . S
O190 Dy183 2.351 . S
O190 C198 1.249 . S
O191 Dy180 2.326 . S
O191 C198 1.267 . S
O192 C181 1.185 . S
O192 Dy183 2.398 . S
O193 C181 1.355 . S
O193 Dy183 2.491 . S
O194 Dy183 2.403 . S
O194 C189 1.254 . S
O195 Dy180 2.310 . S
O195 Dy183 2.664 . S
O195 C189 1.268 . S
O196 Dy180 2.351 . S
O196 C199 1.249 . S
O197 Dy183 2.326 . S
O197 C199 1.267 . S
C198 O190 1.249 . S
C198 O191 1.267 . S
C199 O196 1.249 . S
C199 O197 1.267 . S
Dy200 O204 2.398 . S
Dy200 O205 2.491 . S
Dy200 O206 2.403 . S
Dy200 O207 2.664 . S
Dy200 O211 2.326 . S
Dy200 O215 2.310 . S
Dy200 O216 2.351 . S
C201 O212 1.185 . S
C201 O213 1.355 . S
C202 O204 1.185 . S
C202 O205 1.355 . S
Dy203 O207 2.310 . S
Dy203 O210 2.351 . S
Dy203 O212 2.398 . S
Dy203 O213 2.491 . S
Dy203 O214 2.403 . S
Dy203 O215 2.664 . S
Dy203 O217 2.326 . S
O204 Dy200 2.398 . S
O204 C202 1.185 . S
O205 Dy200 2.491 . S
O205 C202 1.355 . S
O206 Dy200 2.403 . S
O206 C208 1.254 . S
O207 Dy200 2.664 . S
O207 Dy203 2.310 . S
O207 C208 1.268 . S
C208 O206 1.254 . S
C208 O207 1.268 . S
C209 O214 1.254 . S
C209 O215 1.268 . S
O210 Dy203 2.351 . S
O210 C218 1.249 . S
O211 Dy200 2.326 . S
O211 C218 1.267 . S
O212 C201 1.185 . S
O212 Dy203 2.398 . S
O213 C201 1.355 . S
O213 Dy203 2.491 . S
O214 Dy203 2.403 . S
O214 C209 1.254 . S
O215 Dy200 2.310 . S
O215 Dy203 2.664 . S
O215 C209 1.268 . S
O216 Dy200 2.351 . S
O216 C219 1.249 . S
O217 Dy203 2.326 . S
O217 C219 1.267 . S
C218 O210 1.249 . S
C218 O211 1.267 . S
C219 O216 1.249 . S
C219 O217 1.267 . S
Dy220 O224 2.398 . S
Dy220 O225 2.491 . S
Dy220 O226 2.403 . S
Dy220 O227 2.664 . S
Dy220 O231 2.326 . S
Dy220 O235 2.310 . S
Dy220 O236 2.351 . S
C221 O232 1.185 . S
C221 O233 1.355 . S
C222 O224 1.185 . S
C222 O225 1.355 . S
Dy223 O227 2.310 . S
Dy223 O230 2.351 . S
Dy223 O232 2.398 . S
Dy223 O233 2.491 . S
Dy223 O234 2.403 . S
Dy223 O235 2.664 . S
Dy223 O237 2.326 . S
O224 Dy220 2.398 . S
O224 C222 1.185 . S
O225 Dy220 2.491 . S
O225 C222 1.355 . S
O226 Dy220 2.403 . S
O226 C228 1.254 . S
O227 Dy220 2.664 . S
O227 Dy223 2.310 . S
O227 C228 1.268 . S
C228 O226 1.254 . S
C228 O227 1.268 . S
C229 O234 1.254 . S
C229 O235 1.268 . S
O230 Dy223 2.351 . S
O230 C238 1.249 . S
O231 Dy220 2.326 . S
O231 C238 1.267 . S
O232 C221 1.185 . S
O232 Dy223 2.398 . S
O233 C221 1.355 . S
O233 Dy223 2.491 . S
O234 Dy223 2.403 . S
O234 C229 1.254 . S
O235 Dy220 2.310 . S
O235 Dy223 2.664 . S
O235 C229 1.268 . S
O236 Dy220 2.351 . S
O236 C239 1.249 . S
O237 Dy223 2.326 . S
O237 C239 1.267 . S
C238 O230 1.249 . S
C238 O231 1.267 . S
C239 O236 1.249 . S
C239 O237 1.267 . S
Dy240 O244 2.398 . S
Dy240 O245 2.491 . S
Dy240 O246 2.403 . S
Dy240 O247 2.664 . S
Dy240 O251 2.326 . S
Dy240 O255 2.310 . S
Dy240 O256 2.351 . S
C241 O252 1.185 . S
C241 O253 1.355 . S
C242 O244 1.185 . S
C242 O245 1.355 . S
Dy243 O247 2.310 . S
Dy243 O250 2.351 . S
Dy243 O252 2.398 . S
Dy243 O253 2.491 . S
Dy243 O254 2.403 . S
Dy243 O255 2.664 . S
Dy243 O257 2.326 . S
O244 Dy240 2.398 . S
O244 C242 1.185 . S
O245 Dy240 2.491 . S
O245 C242 1.355 . S
O246 Dy240 2.403 . S
O246 C248 1.254 . S
O247 Dy240 2.664 . S
O247 Dy243 2.310 . S
O247 C248 1.268 . S
C248 O246 1.254 . S
C248 O247 1.268 . S
C249 O254 1.254 . S
C249 O255 1.268 . S
O250 Dy243 2.351 . S
O250 C258 1.249 . S
O251 Dy240 2.326 . S
O251 C258 1.267 . S
O252 C241 1.185 . S
O252 Dy243 2.398 . S
O253 C241 1.355 . S
O253 Dy243 2.491 . S
O254 Dy243 2.403 . S
O254 C249 1.254 . S
O255 Dy240 2.310 . S
O255 Dy243 2.664 . S
O255 C249 1.268 . S
O256 Dy240 2.351 . S
O256 C259 1.249 . S
O257 Dy243 2.326 . S
O257 C259 1.267 . S
C258 O250 1.249 . S
C258 O251 1.267 . S
C259 O256 1.249 . S
C259 O257 1.267 . S
Dy260 O264 2.398 . S
Dy260 O265 2.491 . S
Dy260 O266 2.403 . S
Dy260 O267 2.664 . S
Dy260 O271 2.326 . S
Dy260 O275 2.310 . S
Dy260 O276 2.351 . S
C261 O272 1.185 . S
C261 O273 1.355 . S
C262 O264 1.185 . S
C262 O265 1.355 . S
Dy263 O267 2.310 . S
Dy263 O270 2.351 . S
Dy263 O272 2.398 . S
Dy263 O273 2.491 . S
Dy263 O274 2.403 . S
Dy263 O275 2.664 . S
Dy263 O277 2.326 . S
O264 Dy260 2.398 . S
O264 C262 1.185 . S
O265 Dy260 2.491 . S
O265 C262 1.355 . S
O266 Dy260 2.403 . S
O266 C268 1.254 . S
O267 Dy260 2.664 . S
O267 Dy263 2.310 . S
O267 C268 1.268 . S
C268 O266 1.254 . S
C268 O267 1.268 . S
C269 O274 1.254 . S
C269 O275 1.268 . S
O270 Dy263 2.351 . S
O270 C278 1.249 . S
O271 Dy260 2.326 . S
O271 C278 1.267 . S
O272 C261 1.185 . S
O272 Dy263 2.398 . S
O273 C261 1.355 . S
O273 Dy263 2.491 . S
O274 Dy263 2.403 . S
O274 C269 1.254 . S
O275 Dy260 2.310 . S
O275 Dy263 2.664 . S
O275 C269 1.268 . S
O276 Dy260 2.351 . S
O276 C279 1.249 . S
O277 Dy263 2.326 . S
O277 C279 1.267 . S
C278 O270 1.249 . S
C278 O271 1.267 . S
C279 O276 1.249 . S
C279 O277 1.267 . S
Dy280 O284 2.398 . S
Dy280 O285 2.491 . S
Dy280 O286 2.403 . S
Dy280 O287 2.664 . S
Dy280 O291 2.326 . S
Dy280 O295 2.310 . S
Dy280 O296 2.351 . S
C281 O292 1.185 . S
C281 O293 1.355 . S
C282 O284 1.185 . S
C282 O285 1.355 . S
Dy283 O287 2.310 . S
Dy283 O290 2.351 . S
Dy283 O292 2.398 . S
Dy283 O293 2.491 . S
Dy283 O294 2.403 . S
Dy283 O295 2.664 . S
Dy283 O297 2.326 . S
O284 Dy280 2.398 . S
O284 C282 1.185 . S
O285 Dy280 2.491 . S
O285 C282 1.355 . S
O286 Dy280 2.403 . S
O286 C288 1.254 . S
O287 Dy280 2.664 . S
O287 Dy283 2.310 . S
O287 C288 1.268 . S
C288 O286 1.254 . S
C288 O287 1.268 . S
C289 O294 1.254 . S
C289 O295 1.268 . S
O290 Dy283 2.351 . S
O290 C298 1.249 . S
O291 Dy280 2.326 . S
O291 C298 1.267 . S
O292 C281 1.185 . S
O292 Dy283 2.398 . S
O293 C281 1.355 . S
O293 Dy283 2.491 . S
O294 Dy283 2.403 . S
O294 C289 1.254 . S
O295 Dy280 2.310 . S
O295 Dy283 2.664 . S
O295 C289 1.268 . S
O296 Dy280 2.351 . S
O296 C299 1.249 . S
O297 Dy283 2.326 . S
O297 C299 1.267 . S
C298 O290 1.249 . S
C298 O291 1.267 . S
C299 O296 1.249 . S
C299 O297 1.267 . S
Dy300 O304 2.398 . S
Dy300 O305 2.491 . S
Dy300 O306 2.403 . S
Dy300 O307 2.664 . S
Dy300 O311 2.326 . S
Dy300 O315 2.310 . S
Dy300 O316 2.351 . S
C301 O312 1.185 . S
C301 O313 1.355 . S
C302 O304 1.185 . S
C302 O305 1.355 . S
Dy303 O307 2.310 . S
Dy303 O310 2.351 . S
Dy303 O312 2.398 1_545 S
Dy303 O313 2.491 1_545 S
Dy303 O314 2.403 . S
Dy303 O315 2.664 . S
Dy303 O317 2.326 . S
O304 Dy300 2.398 . S
O304 C302 1.185 . S
O305 Dy300 2.491 . S
O305 C302 1.355 . S
O306 Dy300 2.403 . S
O306 C308 1.254 . S
O307 Dy300 2.664 . S
O307 Dy303 2.310 . S
O307 C308 1.268 . S
C308 O306 1.254 . S
C308 O307 1.268 . S
C309 O314 1.254 . S
C309 O315 1.268 . S
O310 Dy303 2.351 . S
O310 C318 1.249 . S
O311 Dy300 2.326 . S
O311 C318 1.267 . S
O312 C301 1.185 . S
O312 Dy303 2.398 1_565 S
O313 C301 1.355 . S
O313 Dy303 2.491 1_565 S
O314 Dy303 2.403 . S
O314 C309 1.254 . S
O315 Dy300 2.310 . S
O315 Dy303 2.664 . S
O315 C309 1.268 . S
O316 Dy300 2.351 . S
O316 C319 1.249 . S
O317 Dy303 2.326 . S
O317 C319 1.267 . S
C318 O310 1.249 . S
C318 O311 1.267 . S
C319 O316 1.249 . S
C319 O317 1.267 . S
Dy320 O324 2.398 . S
Dy320 O325 2.491 . S
Dy320 O326 2.403 . S
Dy320 O327 2.664 . S
Dy320 O331 2.326 . S
Dy320 O335 2.310 . S
Dy320 O336 2.351 . S
C321 O332 1.185 . S
C321 O333 1.355 . S
C322 O324 1.185 . S
C322 O325 1.355 . S
Dy323 O327 2.310 . S
Dy323 O330 2.351 . S
Dy323 O332 2.398 1_655 S
Dy323 O333 2.491 1_655 S
Dy323 O334 2.403 . S
Dy323 O335 2.664 . S
Dy323 O337 2.326 . S
O324 Dy320 2.398 . S
O324 C322 1.185 . S
O325 Dy320 2.491 . S
O325 C322 1.355 . S
O326 Dy320 2.403 . S
O326 C328 1.254 . S
O327 Dy320 2.664 . S
O327 Dy323 2.310 . S
O327 C328 1.268 . S
C328 O326 1.254 . S
C328 O327 1.268 . S
C329 O334 1.254 . S
C329 O335 1.268 . S
O330 Dy323 2.351 . S
O330 C338 1.249 . S
O331 Dy320 2.326 . S
O331 C338 1.267 . S
O332 C321 1.185 . S
O332 Dy323 2.398 1_455 S
O333 C321 1.355 . S
O333 Dy323 2.491 1_455 S
O334 Dy323 2.403 . S
O334 C329 1.254 . S
O335 Dy320 2.310 . S
O335 Dy323 2.664 . S
O335 C329 1.268 . S
O336 Dy320 2.351 . S
O336 C339 1.249 . S
O337 Dy323 2.326 . S
O337 C339 1.267 . S
C338 O330 1.249 . S
C338 O331 1.267 . S
C339 O336 1.249 . S
C339 O337 1.267 . S
Dy340 O344 2.398 . S
Dy340 O345 2.491 . S
Dy340 O346 2.403 . S
Dy340 O347 2.664 . S
Dy340 O351 2.326 . S
Dy340 O355 2.310 . S
Dy340 O356 2.351 . S
C341 O352 1.185 . S
C341 O353 1.355 . S
C342 O344 1.185 . S
C342 O345 1.355 . S
Dy343 O347 2.310 . S
Dy343 O350 2.351 . S
Dy343 O352 2.398 . S
Dy343 O353 2.491 . S
Dy343 O354 2.403 . S
Dy343 O355 2.664 . S
Dy343 O357 2.326 . S
O344 Dy340 2.398 . S
O344 C342 1.185 . S
O345 Dy340 2.491 . S
O345 C342 1.355 . S
O346 Dy340 2.403 . S
O346 C348 1.254 . S
O347 Dy340 2.664 . S
O347 Dy343 2.310 . S
O347 C348 1.268 . S
C348 O346 1.254 . S
C348 O347 1.268 . S
C349 O354 1.254 . S
C349 O355 1.268 . S
O350 Dy343 2.351 . S
O350 C358 1.249 . S
O351 Dy340 2.326 . S
O351 C358 1.267 . S
O352 C341 1.185 . S
O352 Dy343 2.398 . S
O353 C341 1.355 . S
O353 Dy343 2.491 . S
O354 Dy343 2.403 . S
O354 C349 1.254 . S
O355 Dy340 2.310 . S
O355 Dy343 2.664 . S
O355 C349 1.268 . S
O356 Dy340 2.351 . S
O356 C359 1.249 . S
O357 Dy343 2.326 . S
O357 C359 1.267 . S
C358 O350 1.249 . S
C358 O351 1.267 . S
C359 O356 1.249 . S
C359 O357 1.267 . S
C360 C361 1.363 . S
C360 C366 1.379 . S
C360 N368 1.356 . S
C361 C360 1.363 . S
C361 C367 1.363 . S
C362 C363 1.363 . S
C362 C367 1.379 . S
C362 N369 1.356 . S
C363 C362 1.363 . S
C363 C366 1.363 . S
N364 C366 1.356 . S
N364 H376 0.984 . S
N364 H377 0.985 . S
N365 C367 1.356 . S
N365 H370 0.984 . S
N365 H371 0.985 . S
C366 C360 1.379 . S
C366 C363 1.363 . S
C366 N364 1.356 . S
C367 C361 1.363 . S
C367 C362 1.379 . S
C367 N365 1.356 . S
N368 C360 1.356 . S
N368 H374 0.984 . S
N368 H375 0.984 . S
N369 C362 1.356 . S
N369 H372 0.984 . S
N369 H373 0.985 . S
H370 N365 0.984 . S
H371 N365 0.985 . S
H372 N369 0.984 . S
H373 N369 0.985 . S
H374 N368 0.984 . S
H375 N368 0.984 . S
H376 N364 0.984 . S
H377 N364 0.985 . S
C378 C379 1.363 . S
C378 C384 1.379 . S
C378 N386 1.356 . S
C379 C378 1.363 . S
C379 C385 1.363 . S
C380 C381 1.363 . S
C380 C385 1.379 . S
C380 N387 1.356 . S
C381 C380 1.363 . S
C381 C384 1.363 . S
N382 C384 1.356 . S
N382 H394 0.984 . S
N382 H395 0.985 . S
N383 C385 1.356 . S
N383 H388 0.984 . S
N383 H389 0.985 . S
C384 C378 1.379 . S
C384 C381 1.363 . S
C384 N382 1.356 . S
C385 C379 1.363 . S
C385 C380 1.379 . S
C385 N383 1.356 . S
N386 C378 1.356 . S
N386 H392 0.984 . S
N386 H393 0.984 . S
N387 C380 1.356 . S
N387 H390 0.984 . S
N387 H391 0.985 . S
H388 N383 0.984 . S
H389 N383 0.985 . S
H390 N387 0.984 . S
H391 N387 0.985 . S
H392 N386 0.984 . S
H393 N386 0.984 . S
H394 N382 0.984 . S
H395 N382 0.985 . S
C396 C397 1.363 . S
C396 C402 1.379 . S
C396 N404 1.356 . S
C397 C396 1.363 . S
C397 C403 1.363 . S
C398 C399 1.363 . S
C398 C403 1.379 . S
C398 N405 1.356 . S
C399 C398 1.363 . S
C399 C402 1.363 . S
N400 C402 1.356 . S
N400 H412 0.984 . S
N400 H413 0.985 . S
N401 C403 1.356 . S
N401 H406 0.984 . S
N401 H407 0.985 . S
C402 C396 1.379 . S
C402 C399 1.363 . S
C402 N400 1.356 . S
C403 C397 1.363 . S
C403 C398 1.379 . S
C403 N401 1.356 . S
N404 C396 1.356 . S
N404 H410 0.984 . S
N404 H411 0.984 . S
N405 C398 1.356 . S
N405 H408 0.984 . S
N405 H409 0.985 . S
H406 N401 0.984 . S
H407 N401 0.985 . S
H408 N405 0.984 . S
H409 N405 0.985 . S
H410 N404 0.984 . S
H411 N404 0.984 . S
H412 N400 0.984 . S
H413 N400 0.985 . S
C414 C415 1.363 . S
C414 C420 1.379 . S
C414 N422 1.356 . S
C415 C414 1.363 . S
C415 C421 1.363 . S
C416 C417 1.363 . S
C416 C421 1.379 . S
C416 N423 1.356 . S
C417 C416 1.363 . S
C417 C420 1.363 . S
N418 C420 1.356 . S
N418 H430 0.984 . S
N418 H431 0.985 . S
N419 C421 1.356 . S
N419 H424 0.984 . S
N419 H425 0.985 . S
C420 C414 1.379 . S
C420 C417 1.363 . S
C420 N418 1.356 . S
C421 C415 1.363 . S
C421 C416 1.379 . S
C421 N419 1.356 . S
N422 C414 1.356 . S
N422 H428 0.984 . S
N422 H429 0.984 . S
N423 C416 1.356 . S
N423 H426 0.984 . S
N423 H427 0.985 . S
H424 N419 0.984 . S
H425 N419 0.985 . S
H426 N423 0.984 . S
H427 N423 0.985 . S
H428 N422 0.984 . S
H429 N422 0.984 . S
H430 N418 0.984 . S
H431 N418 0.985 . S
C432 C433 1.363 . S
C432 C438 1.379 . S
C432 N440 1.356 . S
C433 C432 1.363 . S
C433 C439 1.363 . S
C434 C435 1.363 . S
C434 C439 1.379 . S
C434 N441 1.356 . S
C435 C434 1.363 . S
C435 C438 1.363 . S
N436 C438 1.356 . S
N436 H448 0.984 . S
N436 H449 0.985 . S
N437 C439 1.356 . S
N437 H442 0.984 . S
N437 H443 0.985 . S
C438 C432 1.379 . S
C438 C435 1.363 . S
C438 N436 1.356 . S
C439 C433 1.363 . S
C439 C434 1.379 . S
C439 N437 1.356 . S
N440 C432 1.356 . S
N440 H446 0.984 . S
N440 H447 0.984 . S
N441 C434 1.356 . S
N441 H444 0.984 . S
N441 H445 0.985 . S
H442 N437 0.984 . S
H443 N437 0.985 . S
H444 N441 0.984 . S
H445 N441 0.985 . S
H446 N440 0.984 . S
H447 N440 0.984 . S
H448 N436 0.984 . S
H449 N436 0.985 . S
C450 C451 1.363 . S
C450 C456 1.379 . S
C450 N458 1.356 . S
C451 C450 1.363 . S
C451 C457 1.363 . S
C452 C453 1.363 . S
C452 C457 1.379 . S
C452 N459 1.356 . S
C453 C452 1.363 . S
C453 C456 1.363 . S
N454 C456 1.356 . S
N454 H466 0.984 . S
N454 H467 0.985 . S
N455 C457 1.356 . S
N455 H460 0.984 . S
N455 H461 0.985 . S
C456 C450 1.379 . S
C456 C453 1.363 . S
C456 N454 1.356 . S
C457 C451 1.363 . S
C457 C452 1.379 . S
C457 N455 1.356 . S
N458 C450 1.356 . S
N458 H464 0.984 . S
N458 H465 0.984 . S
N459 C452 1.356 . S
N459 H462 0.984 . S
N459 H463 0.985 . S
H460 N455 0.984 . S
H461 N455 0.985 . S
H462 N459 0.984 . S
H463 N459 0.985 . S
H464 N458 0.984 . S
H465 N458 0.984 . S
H466 N454 0.984 . S
H467 N454 0.985 . S
C468 C469 1.363 . S
C468 C474 1.379 . S
C468 N476 1.356 . S
C469 C468 1.363 . S
C469 C475 1.363 . S
C470 C471 1.363 . S
C470 C475 1.379 . S
C470 N477 1.356 . S
C471 C470 1.363 . S
C471 C474 1.363 . S
N472 C474 1.356 . S
N472 H484 0.984 . S
N472 H485 0.985 . S
N473 C475 1.356 . S
N473 H478 0.984 . S
N473 H479 0.985 . S
C474 C468 1.379 . S
C474 C471 1.363 . S
C474 N472 1.356 . S
C475 C469 1.363 . S
C475 C470 1.379 . S
C475 N473 1.356 . S
N476 C468 1.356 . S
N476 H482 0.984 . S
N476 H483 0.984 . S
N477 C470 1.356 . S
N477 H480 0.984 . S
N477 H481 0.985 . S
H478 N473 0.984 . S
H479 N473 0.985 . S
H480 N477 0.984 . S
H481 N477 0.985 . S
H482 N476 0.984 . S
H483 N476 0.984 . S
H484 N472 0.984 . S
H485 N472 0.985 . S
C486 C487 1.363 . S
C486 C492 1.379 . S
C486 N494 1.356 . S
C487 C486 1.363 . S
C487 C493 1.363 . S
C488 C489 1.363 1_545 S
C488 C493 1.379 . S
C488 N495 1.356 1_545 S
C489 C488 1.363 1_565 S
C489 C492 1.363 1_565 S
N490 C492 1.356 1_565 S
N490 H502 0.984 . S
N490 H503 0.985 . S
N491 C493 1.341 1_455 S
N491 H496 0.984 . S
N491 H497 1.001 . S
C492 C486 1.379 . S
C492 C489 1.363 1_545 S
C492 N490 1.356 1_545 S
C493 C487 1.363 . S
C493 C488 1.379 . S
C493 N491 1.341 1_655 S
N494 C486 1.356 . S
N494 H500 0.984 . S
N494 H501 0.984 . S
N495 C488 1.356 1_565 S
N495 H498 0.984 . S
N495 H499 0.985 . S
H496 N491 0.984 . S
H497 N491 1.001 . S
H498 N495 0.984 . S
H499 N495 0.985 . S
H500 N494 0.984 . S
H501 N494 0.984 . S
H502 N490 0.984 . S
H503 N490 0.985 . S
C504 C505 1.363 . S
C504 C510 1.379 1_455 S
C504 N512 1.356 . S
C505 C504 1.363 . S
C505 C511 1.363 . S
C506 C507 1.363 . S
C506 C511 1.379 1_655 S
C506 N513 1.356 . S
C507 C506 1.363 . S
C507 C510 1.363 . S
N508 C510 1.356 . S
N508 H520 0.984 . S
N508 H521 0.985 . S
N509 C511 1.356 . S
N509 H514 0.984 . S
N509 H515 0.985 1_565 S
C510 C504 1.379 1_655 S
C510 C507 1.363 . S
C510 N508 1.356 . S
C511 C505 1.363 . S
C511 C506 1.379 1_455 S
C511 N509 1.356 . S
N512 C504 1.356 . S
N512 H518 0.984 . S
N512 H519 0.984 . S
N513 C506 1.356 . S
N513 H516 0.984 . S
N513 H517 0.985 . S
H514 N509 0.984 . S
H515 N509 0.985 1_545 S
H516 N513 0.984 . S
H517 N513 0.985 . S
H518 N512 0.984 . S
H519 N512 0.984 . S
H520 N508 0.984 . S
H521 N508 0.985 . S
C522 C523 1.363 . S
C522 C528 1.379 . S
C522 N530 1.356 . S
C523 C522 1.363 . S
C523 C529 1.363 . S
C524 C525 1.363 . S
C524 C529 1.379 . S
C524 N531 1.356 . S
C525 C524 1.363 . S
C525 C528 1.363 . S
N526 C528 1.356 . S
N526 H538 0.984 . S
N526 H539 0.985 . S
N527 C529 1.356 . S
N527 H532 0.984 . S
N527 H533 0.985 . S
C528 C522 1.379 . S
C528 C525 1.363 . S
C528 N526 1.356 . S
C529 C523 1.363 . S
C529 C524 1.379 . S
C529 N527 1.356 . S
N530 C522 1.356 . S
N530 H536 0.984 . S
N530 H537 0.984 . S
N531 C524 1.356 . S
N531 H534 0.984 . S
N531 H535 0.985 . S
H532 N527 0.984 . S
H533 N527 0.985 . S
H534 N531 0.984 . S
H535 N531 0.985 . S
H536 N530 0.984 . S
H537 N530 0.984 . S
H538 N526 0.984 . S
H539 N526 0.985 . S
C540 C541 1.363 . S
C540 C546 1.379 . S
C540 N548 1.356 . S
C541 C540 1.363 . S
C541 C547 1.363 . S
C542 C543 1.363 . S
C542 C547 1.379 . S
C542 N549 1.356 . S
C543 C542 1.363 . S
C543 C546 1.363 . S
N544 C546 1.356 . S
N544 H556 0.984 . S
N544 H557 0.985 . S
N545 C547 1.356 . S
N545 H550 0.984 . S
N545 H551 0.985 . S
C546 C540 1.379 . S
C546 C543 1.363 . S
C546 N544 1.356 . S
C547 C541 1.363 . S
C547 C542 1.379 . S
C547 N545 1.356 . S
N548 C540 1.356 . S
N548 H554 0.984 . S
N548 H555 0.984 . S
N549 C542 1.356 . S
N549 H552 0.984 . S
N549 H553 0.985 . S
H550 N545 0.984 . S
H551 N545 0.985 . S
H552 N549 0.984 . S
H553 N549 0.985 . S
H554 N548 0.984 . S
H555 N548 0.984 . S
H556 N544 0.984 . S
H557 N544 0.985 . S
C558 C559 1.363 . S
C558 C564 1.379 . S
C558 N566 1.356 . S
C559 C558 1.363 . S
C559 C565 1.363 . S
C560 C561 1.363 . S
C560 C565 1.379 . S
C560 N567 1.356 . S
C561 C560 1.363 . S
C561 C564 1.363 . S
N562 C564 1.356 . S
N562 H574 0.984 . S
N562 H575 0.985 . S
N563 C565 1.356 . S
N563 H568 0.984 . S
N563 H569 0.985 . S
C564 C558 1.379 . S
C564 C561 1.363 . S
C564 N562 1.356 . S
C565 C559 1.363 . S
C565 C560 1.379 . S
C565 N563 1.356 . S
N566 C558 1.356 . S
N566 H572 0.984 . S
N566 H573 0.984 . S
N567 C560 1.356 . S
N567 H570 0.984 . S
N567 H571 0.985 . S
H568 N563 0.984 . S
H569 N563 0.985 . S
H570 N567 0.984 . S
H571 N567 0.985 . S
H572 N566 0.984 . S
H573 N566 0.984 . S
H574 N562 0.984 . S
H575 N562 0.985 . S
C576 C577 1.363 . S
C576 C582 1.379 . S
C576 N584 1.356 . S
C577 C576 1.363 . S
C577 C583 1.363 . S
C578 C579 1.363 . S
C578 C583 1.379 . S
C578 N585 1.356 . S
C579 C578 1.363 . S
C579 C582 1.363 . S
N580 C582 1.356 . S
N580 H592 0.984 . S
N580 H593 0.985 . S
N581 C583 1.356 . S
N581 H586 0.984 . S
N581 H587 0.985 . S
C582 C576 1.379 . S
C582 C579 1.363 . S
C582 N580 1.356 . S
C583 C577 1.363 . S
C583 C578 1.379 . S
C583 N581 1.356 . S
N584 C576 1.356 . S
N584 H590 0.984 . S
N584 H591 0.984 . S
N585 C578 1.356 . S
N585 H588 0.984 . S
N585 H589 0.985 . S
H586 N581 0.984 . S
H587 N581 0.985 . S
H588 N585 0.984 . S
H589 N585 0.985 . S
H590 N584 0.984 . S
H591 N584 0.984 . S
H592 N580 0.984 . S
H593 N580 0.985 . S
C594 C595 1.363 . S
C594 C600 1.379 . S
C594 N602 1.356 . S
C595 C594 1.363 . S
C595 C601 1.363 . S
C596 C597 1.363 . S
C596 C601 1.379 . S
C596 N603 1.356 . S
C597 C596 1.363 . S
C597 C600 1.363 . S
N598 C600 1.356 . S
N598 H610 0.984 . S
N598 H611 0.985 . S
N599 C601 1.356 . S
N599 H604 0.984 . S
N599 H605 0.985 . S
C600 C594 1.379 . S
C600 C597 1.363 . S
C600 N598 1.356 . S
C601 C595 1.363 . S
C601 C596 1.379 . S
C601 N599 1.356 . S
N602 C594 1.356 . S
N602 H608 0.984 . S
N602 H609 0.984 . S
N603 C596 1.356 . S
N603 H606 0.984 . S
N603 H607 0.985 . S
H604 N599 0.984 . S
H605 N599 0.985 . S
H606 N603 0.984 . S
H607 N603 0.985 . S
H608 N602 0.984 . S
H609 N602 0.984 . S
H610 N598 0.984 . S
H611 N598 0.985 . S
C612 C613 1.363 . S
C612 C618 1.379 . S
C612 N620 1.356 . S
C613 C612 1.363 . S
C613 C619 1.363 . S
C614 C615 1.363 . S
C614 C619 1.379 . S
C614 N621 1.356 . S
C615 C614 1.363 . S
C615 C618 1.363 . S
N616 C618 1.356 . S
N616 H628 0.984 . S
N616 H629 0.985 . S
N617 C619 1.356 . S
N617 H622 0.984 . S
N617 H623 0.985 . S
C618 C612 1.379 . S
C618 C615 1.363 . S
C618 N616 1.356 . S
C619 C613 1.363 . S
C619 C614 1.379 . S
C619 N617 1.356 . S
N620 C612 1.356 . S
N620 H626 0.984 . S
N620 H627 0.984 . S
N621 C614 1.356 . S
N621 H624 0.984 . S
N621 H625 0.985 . S
H622 N617 0.984 . S
H623 N617 0.985 . S
H624 N621 0.984 . S
H625 N621 0.985 . S
H626 N620 0.984 . S
H627 N620 0.984 . S
H628 N616 0.984 . S
H629 N616 0.985 . S
C630 C631 1.363 . S
C630 C636 1.379 . S
C630 N638 1.356 . S
C631 C630 1.363 . S
C631 C637 1.363 . S
C632 C633 1.363 . S
C632 C637 1.379 . S
C632 N639 1.356 . S
C633 C632 1.363 . S
C633 C636 1.363 . S
N634 C636 1.356 . S
N634 H646 0.984 . S
N634 H647 0.985 . S
N635 C637 1.356 . S
N635 H640 0.984 . S
N635 H641 0.985 . S
C636 C630 1.379 . S
C636 C633 1.363 . S
C636 N634 1.356 . S
C637 C631 1.363 . S
C637 C632 1.379 . S
C637 N635 1.356 . S
N638 C630 1.356 . S
N638 H644 0.984 . S
N638 H645 0.984 . S
N639 C632 1.356 . S
N639 H642 0.984 . S
N639 H643 0.985 . S
H640 N635 0.984 . S
H641 N635 0.985 . S
H642 N639 0.984 . S
H643 N639 0.985 . S
H644 N638 0.984 . S
H645 N638 0.984 . S
H646 N634 0.984 . S
H647 N634 0.985 . S
C648 C649 1.363 . S
C648 C654 1.379 1_565 S
C648 N656 1.356 . S
C649 C648 1.363 . S
C649 C655 1.363 . S
C650 C651 1.363 . S
C650 C655 1.379 1_545 S
C650 N657 1.356 . S
C651 C650 1.363 . S
C651 C654 1.363 . S
N652 C654 1.356 . S
N652 H664 0.984 . S
N652 H665 0.985 . S
N653 C655 1.356 . S
N653 H658 0.984 . S
N653 H659 0.985 . S
C654 C648 1.379 1_545 S
C654 C651 1.363 . S
C654 N652 1.356 . S
C655 C649 1.363 . S
C655 C650 1.379 1_565 S
C655 N653 1.356 . S
N656 C648 1.356 . S
N656 H662 0.984 . S
N656 H663 0.984 . S
N657 C650 1.356 . S
N657 H660 0.984 . S
N657 H661 0.985 . S
H658 N653 0.984 . S
H659 N653 0.985 . S
H660 N657 0.984 . S
H661 N657 0.985 . S
H662 N656 0.984 . S
H663 N656 0.984 . S
H664 N652 0.984 . S
H665 N652 0.985 . S
C666 C667 1.363 . S
C666 C672 1.379 . S
C666 N674 1.356 . S
C667 C666 1.363 . S
C667 C673 1.363 . S
C668 C669 1.363 1_455 S
C668 C673 1.379 . S
C668 N675 1.356 1_455 S
C669 C668 1.363 1_655 S
C669 C672 1.363 1_655 S
N670 C672 1.356 1_655 S
N670 H682 0.984 . S
N670 H683 0.985 . S
N671 C673 1.356 . S
N671 H676 0.984 . S
N671 H677 0.985 . S
C672 C666 1.379 . S
C672 C669 1.363 1_455 S
C672 N670 1.356 1_455 S
C673 C667 1.363 . S
C673 C668 1.379 . S
C673 N671 1.356 . S
N674 C666 1.356 . S
N674 H680 0.984 . S
N674 H681 0.984 1_565 S
N675 C668 1.356 1_655 S
N675 H678 0.984 . S
N675 H679 0.985 1_655 S
H676 N671 0.984 . S
H677 N671 0.985 . S
H678 N675 0.984 . S
H679 N675 0.985 1_455 S
H680 N674 0.984 . S
H681 N674 0.984 1_545 S
H682 N670 0.984 . S
H683 N670 0.985 . S
C684 C685 1.363 . S
C684 C690 1.379 1_554 S
C684 N692 1.356 . S
C685 C684 1.363 . S
C685 C691 1.363 1_545 S
C686 C687 1.363 1_565 S
C686 C691 1.379 1_556 S
C686 N693 1.356 . S
C687 C686 1.363 1_545 S
C687 C690 1.363 . S
N688 C690 1.356 . S
N688 H700 0.984 . S
N688 H701 0.985 . S
N689 C691 1.356 . S
N689 H694 0.984 . S
N689 H695 0.985 . S
C690 C684 1.379 1_556 S
C690 C687 1.363 . S
C690 N688 1.356 . S
C691 C685 1.363 1_565 S
C691 C686 1.379 1_554 S
C691 N689 1.356 . S
N692 C684 1.356 . S
N692 H698 0.984 . S
N692 H699 0.984 . S
N693 C686 1.356 . S
N693 H696 0.984 . S
N693 H697 0.985 . S
H694 N689 0.984 . S
H695 N689 0.985 . S
H696 N693 0.984 . S
H697 N693 0.985 . S
H698 N692 0.984 . S
H699 N692 0.984 . S
H700 N688 0.984 . S
H701 N688 0.985 . S
C702 C703 1.363 1_655 S
C702 C708 1.379 1_556 S
C702 N710 1.356 . S
C703 C702 1.363 1_455 S
C703 C709 1.363 . S
C704 C705 1.363 . S
C704 C709 1.379 1_554 S
C704 N711 1.356 . S
C705 C704 1.363 . S
C705 C708 1.363 1_455 S
N706 C708 1.356 . S
N706 H718 0.984 . S
N706 H719 0.985 . S
N707 C709 1.356 . S
N707 H712 0.984 . S
N707 H713 0.985 . S
C708 C702 1.379 1_554 S
C708 C705 1.363 1_655 S
C708 N706 1.356 . S
C709 C703 1.363 . S
C709 C704 1.379 1_556 S
C709 N707 1.356 . S
N710 C702 1.356 . S
N710 H716 0.984 . S
N710 H717 0.984 . S
N711 C704 1.356 . S
N711 H714 0.984 . S
N711 H715 0.985 . S
H712 N707 0.984 . S
H713 N707 0.985 . S
H714 N711 0.984 . S
H715 N711 0.985 . S
H716 N710 0.984 . S
H717 N710 0.984 . S
H718 N706 0.984 . S
H719 N706 0.985 . S
C720 C721 1.363 . S
C720 C726 1.379 1_556 S
C720 N728 1.356 . S
C721 C720 1.363 . S
C721 C727 1.363 . S
C722 C723 1.363 . S
C722 C727 1.379 1_554 S
C722 N729 1.356 . S
C723 C722 1.363 . S
C723 C726 1.363 . S
N724 C726 1.356 . S
N724 H736 0.984 . S
N724 H737 0.985 . S
N725 C727 1.356 . S
N725 H730 0.984 . S
N725 H731 0.985 . S
C726 C720 1.379 1_554 S
C726 C723 1.363 . S
C726 N724 1.356 . S
C727 C721 1.363 . S
C727 C722 1.379 1_556 S
C727 N725 1.356 . S
N728 C720 1.356 . S
N728 H734 0.984 . S
N728 H735 0.984 . S
N729 C722 1.356 . S
N729 H732 0.984 . S
N729 H733 0.985 . S
H730 N725 0.984 . S
H731 N725 0.985 . S
H732 N729 0.984 . S
H733 N729 0.985 . S
H734 N728 0.984 . S
H735 N728 0.984 . S
H736 N724 0.984 . S
H737 N724 0.985 . S
C738 C739 1.363 . S
C738 C744 1.379 . S
C738 N746 1.356 . S
C739 C738 1.363 . S
C739 C745 1.363 . S
C740 C741 1.363 . S
C740 C745 1.379 . S
C740 N747 1.356 . S
C741 C740 1.363 . S
C741 C744 1.363 . S
N742 C744 1.356 . S
N742 H754 0.984 . S
N742 H755 0.985 . S
N743 C745 1.356 . S
N743 H748 0.984 . S
N743 H749 0.985 . S
C744 C738 1.379 . S
C744 C741 1.363 . S
C744 N742 1.356 . S
C745 C739 1.363 . S
C745 C740 1.379 . S
C745 N743 1.356 . S
N746 C738 1.356 . S
N746 H752 0.984 . S
N746 H753 0.984 . S
N747 C740 1.356 . S
N747 H750 0.984 . S
N747 H751 0.985 . S
H748 N743 0.984 . S
H749 N743 0.985 . S
H750 N747 0.984 . S
H751 N747 0.985 . S
H752 N746 0.984 . S
H753 N746 0.984 . S
H754 N742 0.984 . S
H755 N742 0.985 . S
C756 C757 1.363 . S
C756 C762 1.379 . S
C756 N764 1.356 . S
C757 C756 1.363 . S
C757 C763 1.363 . S
C758 C759 1.363 . S
C758 C763 1.379 . S
C758 N765 1.356 . S
C759 C758 1.363 . S
C759 C762 1.363 . S
N760 C762 1.356 . S
N760 H772 0.984 . S
N760 H773 0.985 . S
N761 C763 1.356 . S
N761 H766 0.984 . S
N761 H767 0.985 . S
C762 C756 1.379 . S
C762 C759 1.363 . S
C762 N760 1.356 . S
C763 C757 1.363 . S
C763 C758 1.379 . S
C763 N761 1.356 . S
N764 C756 1.356 . S
N764 H770 0.984 . S
N764 H771 0.984 . S
N765 C758 1.356 . S
N765 H768 0.984 . S
N765 H769 0.985 . S
H766 N761 0.984 . S
H767 N761 0.985 . S
H768 N765 0.984 . S
H769 N765 0.985 . S
H770 N764 0.984 . S
H771 N764 0.984 . S
H772 N760 0.984 . S
H773 N760 0.985 . S
C774 C775 1.363 . S
C774 C780 1.379 . S
C774 N782 1.356 . S
C775 C774 1.363 . S
C775 C781 1.363 . S
C776 C777 1.363 . S
C776 C781 1.379 . S
C776 N783 1.356 . S
C777 C776 1.363 . S
C777 C780 1.363 . S
N778 C780 1.356 . S
N778 H790 0.984 . S
N778 H791 0.985 . S
N779 C781 1.356 . S
N779 H784 0.984 . S
N779 H785 0.985 . S
C780 C774 1.379 . S
C780 C777 1.363 . S
C780 N778 1.356 . S
C781 C775 1.363 . S
C781 C776 1.379 . S
C781 N779 1.356 . S
N782 C774 1.356 . S
N782 H788 0.984 . S
N782 H789 0.984 . S
N783 C776 1.356 . S
N783 H786 0.984 . S
N783 H787 0.985 . S
H784 N779 0.984 . S
H785 N779 0.985 . S
H786 N783 0.984 . S
H787 N783 0.985 . S
H788 N782 0.984 . S
H789 N782 0.984 . S
H790 N778 0.984 . S
H791 N778 0.985 . S
C792 C793 1.363 . S
C792 C798 1.379 . S
C792 N800 1.356 . S
C793 C792 1.363 . S
C793 C799 1.363 . S
C794 C795 1.363 . S
C794 C799 1.379 . S
C794 N801 1.356 . S
C795 C794 1.363 . S
C795 C798 1.363 . S
N796 C798 1.356 . S
N796 H808 0.984 . S
N796 H809 0.985 . S
N797 C799 1.356 . S
N797 H802 0.984 . S
N797 H803 0.985 . S
C798 C792 1.379 . S
C798 C795 1.363 . S
C798 N796 1.356 . S
C799 C793 1.363 . S
C799 C794 1.379 . S
C799 N797 1.356 . S
N800 C792 1.356 . S
N800 H806 0.984 . S
N800 H807 0.984 . S
N801 C794 1.356 . S
N801 H804 0.984 . S
N801 H805 0.985 . S
H802 N797 0.984 . S
H803 N797 0.985 . S
H804 N801 0.984 . S
H805 N801 0.985 . S
H806 N800 0.984 . S
H807 N800 0.984 . S
H808 N796 0.984 . S
H809 N796 0.985 . S
C810 C811 1.363 . S
C810 C816 1.379 . S
C810 N818 1.356 . S
C811 C810 1.363 . S
C811 C817 1.363 . S
C812 C813 1.363 . S
C812 C817 1.379 . S
C812 N819 1.356 . S
C813 C812 1.363 . S
C813 C816 1.363 . S
N814 C816 1.356 . S
N814 H826 0.984 . S
N814 H827 0.985 . S
N815 C817 1.356 . S
N815 H820 0.984 . S
N815 H821 0.985 . S
C816 C810 1.379 . S
C816 C813 1.363 . S
C816 N814 1.356 . S
C817 C811 1.363 . S
C817 C812 1.379 . S
C817 N815 1.356 . S
N818 C810 1.356 . S
N818 H824 0.984 . S
N818 H825 0.984 . S
N819 C812 1.356 . S
N819 H822 0.984 . S
N819 H823 0.985 . S
H820 N815 0.984 . S
H821 N815 0.985 . S
H822 N819 0.984 . S
H823 N819 0.985 . S
H824 N818 0.984 . S
H825 N818 0.984 . S
H826 N814 0.984 . S
H827 N814 0.985 . S
C828 C829 1.363 . S
C828 C834 1.379 . S
C828 N836 1.356 . S
C829 C828 1.363 . S
C829 C835 1.363 . S
C830 C831 1.363 . S
C830 C835 1.379 . S
C830 N837 1.356 . S
C831 C830 1.363 . S
C831 C834 1.363 . S
N832 C834 1.356 . S
N832 H844 0.984 . S
N832 H845 0.985 . S
N833 C835 1.356 . S
N833 H838 0.984 . S
N833 H839 0.985 . S
C834 C828 1.379 . S
C834 C831 1.363 . S
C834 N832 1.356 . S
C835 C829 1.363 . S
C835 C830 1.379 . S
C835 N833 1.356 . S
N836 C828 1.356 . S
N836 H842 0.984 . S
N836 H843 0.984 . S
N837 C830 1.356 . S
N837 H840 0.984 . S
N837 H841 0.985 . S
H838 N833 0.984 . S
H839 N833 0.985 . S
H840 N837 0.984 . S
H841 N837 0.985 . S
H842 N836 0.984 . S
H843 N836 0.984 . S
H844 N832 0.984 . S
H845 N832 0.985 . S
C846 C847 1.363 . S
C846 C852 1.379 . S
C846 N854 1.356 . S
C847 C846 1.363 . S
C847 C853 1.363 . S
C848 C849 1.363 . S
C848 C853 1.379 . S
C848 N855 1.356 1_565 S
C849 C848 1.363 . S
C849 C852 1.363 . S
N850 C852 1.356 . S
N850 H862 0.984 . S
N850 H863 0.985 . S
N851 C853 1.356 . S
N851 H856 0.984 . S
N851 H857 0.985 . S
C852 C846 1.379 . S
C852 C849 1.363 . S
C852 N850 1.356 . S
C853 C847 1.363 . S
C853 C848 1.379 . S
C853 N851 1.356 . S
N854 C846 1.356 . S
N854 H860 0.984 . S
N854 H861 0.984 . S
N855 C848 1.356 1_545 S
N855 H858 0.984 . S
N855 H859 0.985 . S
H856 N851 0.984 . S
H857 N851 0.985 . S
H858 N855 0.984 . S
H859 N855 0.985 . S
H860 N854 0.984 . S
H861 N854 0.984 . S
H862 N850 0.984 . S
H863 N850 0.985 . S
C864 C865 1.363 . S
C864 C870 1.379 . S
C864 N872 1.341 1_455 S
C865 C864 1.363 . S
C865 C871 1.363 . S
C866 C867 1.363 . S
C866 C871 1.379 . S
C866 N873 1.356 . S
C867 C866 1.363 . S
C867 C870 1.363 . S
N868 C870 1.356 . S
N868 H880 0.984 . S
N868 H881 0.985 . S
N869 C871 1.356 . S
N869 H874 0.984 . S
N869 H875 0.985 . S
C870 C864 1.379 . S
C870 C867 1.363 . S
C870 N868 1.356 . S
C871 C865 1.363 . S
C871 C866 1.379 . S
C871 N869 1.356 . S
N872 C864 1.341 1_655 S
N872 H878 0.986 . S
N872 H879 0.998 . S
N873 C866 1.356 . S
N873 H876 0.984 . S
N873 H877 0.985 . S
H874 N869 0.984 . S
H875 N869 0.985 . S
H876 N873 0.984 . S
H877 N873 0.985 . S
H878 N872 0.986 . S
H879 N872 0.998 . S
H880 N868 0.984 . S
H881 N868 0.985 . S
C882 C883 1.363 . S
C882 C888 1.379 . S
C882 N890 1.356 . S
C883 C882 1.363 . S
C883 C889 1.363 . S
C884 C885 1.363 . S
C884 C889 1.379 . S
C884 N891 1.356 . S
C885 C884 1.363 . S
C885 C888 1.363 . S
N886 C888 1.356 . S
N886 H898 0.984 . S
N886 H899 0.985 . S
N887 C889 1.356 . S
N887 H892 0.984 . S
N887 H893 0.985 . S
C888 C882 1.379 . S
C888 C885 1.363 . S
C888 N886 1.356 . S
C889 C883 1.363 . S
C889 C884 1.379 . S
C889 N887 1.356 . S
N890 C882 1.356 . S
N890 H896 0.984 . S
N890 H897 0.984 . S
N891 C884 1.356 . S
N891 H894 0.984 . S
N891 H895 0.985 . S
H892 N887 0.984 . S
H893 N887 0.985 . S
H894 N891 0.984 . S
H895 N891 0.985 . S
H896 N890 0.984 . S
H897 N890 0.984 . S
H898 N886 0.984 . S
H899 N886 0.985 . S
C900 C901 1.363 . S
C900 C906 1.379 . S
C900 N908 1.356 . S
C901 C900 1.363 . S
C901 C907 1.363 . S
C902 C903 1.363 . S
C902 C907 1.379 . S
C902 N909 1.356 . S
C903 C902 1.363 . S
C903 C906 1.363 . S
N904 C906 1.356 . S
N904 H916 0.984 . S
N904 H917 0.985 . S
N905 C907 1.356 . S
N905 H910 0.984 . S
N905 H911 0.985 . S
C906 C900 1.379 . S
C906 C903 1.363 . S
C906 N904 1.356 . S
C907 C901 1.363 . S
C907 C902 1.379 . S
C907 N905 1.356 . S
N908 C900 1.356 . S
N908 H914 0.984 1_655 S
N908 H915 0.984 1_655 S
N909 C902 1.356 . S
N909 H912 0.984 . S
N909 H913 0.985 . S
H910 N905 0.984 . S
H911 N905 0.985 . S
H912 N909 0.984 . S
H913 N909 0.985 . S
H914 N908 0.984 1_455 S
H915 N908 0.984 1_455 S
H916 N904 0.984 . S
H917 N904 0.985 . S
C918 C919 1.363 . S
C918 C924 1.379 . S
C918 N926 1.356 . S
C919 C918 1.363 . S
C919 C925 1.363 . S
C920 C921 1.363 . S
C920 C925 1.379 . S
C920 N927 1.356 . S
C921 C920 1.363 . S
C921 C924 1.363 . S
N922 C924 1.356 . S
N922 H934 0.984 . S
N922 H935 0.985 . S
N923 C925 1.356 . S
N923 H928 0.984 . S
N923 H929 0.985 . S
C924 C918 1.379 . S
C924 C921 1.363 . S
C924 N922 1.356 . S
C925 C919 1.363 . S
C925 C920 1.379 . S
C925 N923 1.356 . S
N926 C918 1.356 . S
N926 H932 0.984 . S
N926 H933 0.984 . S
N927 C920 1.356 . S
N927 H930 0.984 . S
N927 H931 0.985 . S
H928 N923 0.984 . S
H929 N923 0.985 . S
H930 N927 0.984 . S
H931 N927 0.985 . S
H932 N926 0.984 . S
H933 N926 0.984 . S
H934 N922 0.984 . S
H935 N922 0.985 . S
C936 C937 1.363 . S
C936 C942 1.379 . S
C936 N944 1.356 . S
C937 C936 1.363 . S
C937 C943 1.363 . S
C938 C939 1.363 . S
C938 C943 1.379 . S
C938 N945 1.356 1_545 S
C939 C938 1.363 . S
C939 C942 1.363 . S
N940 C942 1.356 . S
N940 H952 0.984 . S
N940 H953 0.985 . S
N941 C943 1.356 . S
N941 H946 0.984 . S
N941 H947 0.986 . S
C942 C936 1.379 . S
C942 C939 1.363 . S
C942 N940 1.356 . S
C943 C937 1.363 . S
C943 C938 1.379 . S
C943 N941 1.356 . S
N944 C936 1.356 . S
N944 H950 0.984 . S
N944 H951 0.984 . S
N945 C938 1.356 1_565 S
N945 H948 0.984 . S
N945 H949 0.985 . S
H946 N941 0.984 . S
H947 N941 0.986 . S
H948 N945 0.984 . S
H949 N945 0.985 . S
H950 N944 0.984 . S
H951 N944 0.984 . S
H952 N940 0.984 . S
H953 N940 0.985 . S
C954 C955 1.363 . S
C954 C960 1.379 1_655 S
C954 N962 1.356 . S
C955 C954 1.363 . S
C955 C961 1.363 . S
C956 C957 1.363 . S
C956 C961 1.379 1_455 S
C956 N963 1.356 . S
C957 C956 1.363 . S
C957 C960 1.363 . S
N958 C960 1.356 . S
N958 H970 0.984 . S
N958 H971 0.985 . S
N959 C961 1.356 . S
N959 H964 0.984 . S
N959 H965 0.985 . S
C960 C954 1.379 1_455 S
C960 C957 1.363 . S
C960 N958 1.356 . S
C961 C955 1.363 . S
C961 C956 1.379 1_655 S
C961 N959 1.356 . S
N962 C954 1.356 . S
N962 H968 0.984 . S
N962 H969 0.984 . S
N963 C956 1.356 . S
N963 H966 0.984 . S
N963 H967 0.985 . S
H964 N959 0.984 . S
H965 N959 0.985 . S
H966 N963 0.984 . S
H967 N963 0.985 . S
H968 N962 0.984 . S
H969 N962 0.984 . S
H970 N958 0.984 . S
H971 N958 0.985 . S
C972 C973 1.363 . S
C972 C978 1.379 . S
C972 N980 1.356 . S
C973 C972 1.363 . S
C973 C979 1.363 . S
C974 C975 1.363 . S
C974 C979 1.379 . S
C974 N981 1.356 . S
C975 C974 1.363 . S
C975 C978 1.363 . S
N976 C978 1.356 . S
N976 H988 0.984 . S
N976 H989 0.985 . S
N977 C979 1.356 . S
N977 H982 0.984 . S
N977 H983 0.985 . S
C978 C972 1.379 . S
C978 C975 1.363 . S
C978 N976 1.356 . S
C979 C973 1.363 . S
C979 C974 1.379 . S
C979 N977 1.356 . S
N980 C972 1.356 . S
N980 H986 0.984 . S
N980 H987 0.984 . S
N981 C974 1.356 . S
N981 H984 0.984 . S
N981 H985 0.985 . S
H982 N977 0.984 . S
H983 N977 0.985 . S
H984 N981 0.984 . S
H985 N981 0.985 . S
H986 N980 0.984 . S
H987 N980 0.984 . S
H988 N976 0.984 . S
H989 N976 0.985 . S
C990 C991 1.363 . S
C990 C996 1.379 1_565 S
C990 N998 1.356 . S
C991 C990 1.363 . S
C991 C997 1.363 . S
C992 C993 1.363 . S
C992 C997 1.379 1_545 S
C992 N999 1.356 . S
C993 C992 1.363 . S
C993 C996 1.363 . S
N994 C996 1.356 . S
N994 H1006 0.984 . S
N994 H1007 0.985 . S
N995 C997 1.356 . S
N995 H1000 0.984 . S
N995 H1001 0.985 . S
C996 C990 1.379 1_545 S
C996 C993 1.363 . S
C996 N994 1.356 . S
C997 C991 1.363 . S
C997 C992 1.379 1_565 S
C997 N995 1.356 . S
N998 C990 1.356 . S
N998 H1004 0.984 . S
N998 H1005 0.984 . S
N999 C992 1.356 . S
N999 H1002 0.984 . S
N999 H1003 0.985 . S
H1000 N995 0.984 . S
H1001 N995 0.985 . S
H1002 N999 0.984 . S
H1003 N999 0.985 . S
H1004 N998 0.984 . S
H1005 N998 0.984 . S
H1006 N994 0.984 . S
H1007 N994 0.985 . S
C1008 C1009 1.363 . S
C1008 C1014 1.379 . S
C1008 N1016 1.356 . S
C1009 C1008 1.363 . S
C1009 C1015 1.363 . S
C1010 C1011 1.363 . S
C1010 C1015 1.379 . S
C1010 N1017 1.356 . S
C1011 C1010 1.363 . S
C1011 C1014 1.363 . S
N1012 C1014 1.356 . S
N1012 H1024 0.984 . S
N1012 H1025 0.985 . S
N1013 C1015 1.356 . S
N1013 H1018 0.984 . S
N1013 H1019 0.985 . S
C1014 C1008 1.379 . S
C1014 C1011 1.363 . S
C1014 N1012 1.356 . S
C1015 C1009 1.363 . S
C1015 C1010 1.379 . S
C1015 N1013 1.356 . S
N1016 C1008 1.356 . S
N1016 H1022 0.984 . S
N1016 H1023 0.984 . S
N1017 C1010 1.356 . S
N1017 H1020 0.984 . S
N1017 H1021 0.985 . S
H1018 N1013 0.984 . S
H1019 N1013 0.985 . S
H1020 N1017 0.984 . S
H1021 N1017 0.985 . S
H1022 N1016 0.984 . S
H1023 N1016 0.984 . S
H1024 N1012 0.984 . S
H1025 N1012 0.985 . S
C1026 C1027 1.363 . S
C1026 C1032 1.379 . S
C1026 N1034 1.356 . S
C1027 C1026 1.363 . S
C1027 C1033 1.363 . S
C1028 C1029 1.363 . S
C1028 C1033 1.379 . S
C1028 N1035 1.356 . S
C1029 C1028 1.363 . S
C1029 C1032 1.363 . S
N1030 C1032 1.356 . S
N1030 H1042 0.984 . S
N1030 H1043 0.985 . S
N1031 C1033 1.356 . S
N1031 H1036 0.984 . S
N1031 H1037 0.985 . S
C1032 C1026 1.379 . S
C1032 C1029 1.363 . S
C1032 N1030 1.356 . S
C1033 C1027 1.363 . S
C1033 C1028 1.379 . S
C1033 N1031 1.356 . S
N1034 C1026 1.356 . S
N1034 H1040 0.984 . S
N1034 H1041 0.984 . S
N1035 C1028 1.356 . S
N1035 H1038 0.984 . S
N1035 H1039 0.985 . S
H1036 N1031 0.984 . S
H1037 N1031 0.985 . S
H1038 N1035 0.984 . S
H1039 N1035 0.985 . S
H1040 N1034 0.984 . S
H1041 N1034 0.984 . S
H1042 N1030 0.984 . S
H1043 N1030 0.985 . S
C1044 C1045 1.363 . S
C1044 C1050 1.379 . S
C1044 N1052 1.356 . S
C1045 C1044 1.363 . S
C1045 C1051 1.363 . S
C1046 C1047 1.363 . S
C1046 C1051 1.379 . S
C1046 N1053 1.356 . S
C1047 C1046 1.363 . S
C1047 C1050 1.363 . S
N1048 C1050 1.356 . S
N1048 H1060 0.984 . S
N1048 H1061 0.985 . S
N1049 C1051 1.356 . S
N1049 H1054 0.984 . S
N1049 H1055 0.985 . S
C1050 C1044 1.379 . S
C1050 C1047 1.363 . S
C1050 N1048 1.356 . S
C1051 C1045 1.363 . S
C1051 C1046 1.379 . S
C1051 N1049 1.356 . S
N1052 C1044 1.356 . S
N1052 H1058 0.984 . S
N1052 H1059 0.984 . S
N1053 C1046 1.356 . S
N1053 H1056 0.984 . S
N1053 H1057 0.985 . S
H1054 N1049 0.984 . S
H1055 N1049 0.985 . S
H1056 N1053 0.984 . S
H1057 N1053 0.985 . S
H1058 N1052 0.984 . S
H1059 N1052 0.984 . S
H1060 N1048 0.984 . S
H1061 N1048 0.985 . S
C1062 C1063 1.363 . S
C1062 C1068 1.379 . S
C1062 N1070 1.356 . S
C1063 C1062 1.363 . S
C1063 C1069 1.363 . S
C1064 C1065 1.363 . S
C1064 C1069 1.379 . S
C1064 N1071 1.356 . S
C1065 C1064 1.363 . S
C1065 C1068 1.363 . S
N1066 C1068 1.356 . S
N1066 H1078 0.984 . S
N1066 H1079 0.985 . S
N1067 C1069 1.356 . S
N1067 H1072 0.984 . S
N1067 H1073 0.985 . S
C1068 C1062 1.379 . S
C1068 C1065 1.363 . S
C1068 N1066 1.356 . S
C1069 C1063 1.363 . S
C1069 C1064 1.379 . S
C1069 N1067 1.356 . S
N1070 C1062 1.356 . S
N1070 H1076 0.984 . S
N1070 H1077 0.984 . S
N1071 C1064 1.356 . S
N1071 H1074 0.984 . S
N1071 H1075 0.985 . S
H1072 N1067 0.984 . S
H1073 N1067 0.985 . S
H1074 N1071 0.984 . S
H1075 N1071 0.985 . S
H1076 N1070 0.984 . S
H1077 N1070 0.984 . S
H1078 N1066 0.984 . S
H1079 N1066 0.985 . S
C1080 C1081 1.363 . S
C1080 C1086 1.379 . S
C1080 N1088 1.356 . S
C1081 C1080 1.363 . S
C1081 C1087 1.363 . S
C1082 C1083 1.363 . S
C1082 C1087 1.379 . S
C1082 N1089 1.356 . S
C1083 C1082 1.363 . S
C1083 C1086 1.363 . S
N1084 C1086 1.356 . S
N1084 H1096 0.984 . S
N1084 H1097 0.985 . S
N1085 C1087 1.356 . S
N1085 H1090 0.984 . S
N1085 H1091 0.985 . S
C1086 C1080 1.379 . S
C1086 C1083 1.363 . S
C1086 N1084 1.356 . S
C1087 C1081 1.363 . S
C1087 C1082 1.379 . S
C1087 N1085 1.356 . S
N1088 C1080 1.356 . S
N1088 H1094 0.984 . S
N1088 H1095 0.984 . S
N1089 C1082 1.356 . S
N1089 H1092 0.984 . S
N1089 H1093 0.985 . S
H1090 N1085 0.984 . S
H1091 N1085 0.985 . S
H1092 N1089 0.984 . S
H1093 N1089 0.985 . S
H1094 N1088 0.984 . S
H1095 N1088 0.984 . S
H1096 N1084 0.984 . S
H1097 N1084 0.985 . S
C1098 C1099 1.363 . S
C1098 C1104 1.379 . S
C1098 N1106 1.356 . S
C1099 C1098 1.363 . S
C1099 C1105 1.363 . S
C1100 C1101 1.363 . S
C1100 C1105 1.379 . S
C1100 N1107 1.356 . S
C1101 C1100 1.363 . S
C1101 C1104 1.363 . S
N1102 C1104 1.356 . S
N1102 H1114 0.984 . S
N1102 H1115 0.985 . S
N1103 C1105 1.356 . S
N1103 H1108 0.984 . S
N1103 H1109 0.985 . S
C1104 C1098 1.379 . S
C1104 C1101 1.363 . S
C1104 N1102 1.356 . S
C1105 C1099 1.363 . S
C1105 C1100 1.379 . S
C1105 N1103 1.356 . S
N1106 C1098 1.356 . S
N1106 H1112 0.984 . S
N1106 H1113 0.984 . S
N1107 C1100 1.356 . S
N1107 H1110 0.984 . S
N1107 H1111 0.985 . S
H1108 N1103 0.984 . S
H1109 N1103 0.985 . S
H1110 N1107 0.984 . S
H1111 N1107 0.985 . S
H1112 N1106 0.984 . S
H1113 N1106 0.984 . S
H1114 N1102 0.984 . S
H1115 N1102 0.985 . S
C1116 C1117 1.363 . S
C1116 C1122 1.379 . S
C1116 N1124 1.356 . S
C1117 C1116 1.363 . S
C1117 C1123 1.363 . S
C1118 C1119 1.363 . S
C1118 C1123 1.379 . S
C1118 N1125 1.356 . S
C1119 C1118 1.363 . S
C1119 C1122 1.363 . S
N1120 C1122 1.356 . S
N1120 H1132 0.984 . S
N1120 H1133 0.985 . S
N1121 C1123 1.356 . S
N1121 H1126 0.984 . S
N1121 H1127 0.985 . S
C1122 C1116 1.379 . S
C1122 C1119 1.363 . S
C1122 N1120 1.356 . S
C1123 C1117 1.363 . S
C1123 C1118 1.379 . S
C1123 N1121 1.356 . S
N1124 C1116 1.356 . S
N1124 H1130 0.984 . S
N1124 H1131 0.984 . S
N1125 C1118 1.356 . S
N1125 H1128 0.984 . S
N1125 H1129 0.985 . S
H1126 N1121 0.984 . S
H1127 N1121 0.985 . S
H1128 N1125 0.984 . S
H1129 N1125 0.985 . S
H1130 N1124 0.984 . S
H1131 N1124 0.984 . S
H1132 N1120 0.984 . S
H1133 N1120 0.985 . S
C1134 C1135 1.363 . S
C1134 C1140 1.379 . S
C1134 N1142 1.356 . S
C1135 C1134 1.363 . S
C1135 C1141 1.363 . S
C1136 C1137 1.363 . S
C1136 C1141 1.379 . S
C1136 N1143 1.356 . S
C1137 C1136 1.363 . S
C1137 C1140 1.363 . S
N1138 C1140 1.356 . S
N1138 H1150 0.984 . S
N1138 H1151 0.985 . S
N1139 C1141 1.356 . S
N1139 H1144 0.984 . S
N1139 H1145 0.985 . S
C1140 C1134 1.379 . S
C1140 C1137 1.363 . S
C1140 N1138 1.356 . S
C1141 C1135 1.363 . S
C1141 C1136 1.379 . S
C1141 N1139 1.356 . S
N1142 C1134 1.356 . S
N1142 H1148 0.984 . S
N1142 H1149 0.984 . S
N1143 C1136 1.356 . S
N1143 H1146 0.984 . S
N1143 H1147 0.985 . S
H1144 N1139 0.984 . S
H1145 N1139 0.985 . S
H1146 N1143 0.984 . S
H1147 N1143 0.985 . S
H1148 N1142 0.984 . S
H1149 N1142 0.984 . S
H1150 N1138 0.984 . S
H1151 N1138 0.985 . S
C1152 C1153 1.363 . S
C1152 C1158 1.379 . S
C1152 N1160 1.356 . S
C1153 C1152 1.363 . S
C1153 C1159 1.363 . S
C1154 C1155 1.363 . S
C1154 C1159 1.379 . S
C1154 N1161 1.356 . S
C1155 C1154 1.363 . S
C1155 C1158 1.363 . S
N1156 C1158 1.356 . S
N1156 H1168 0.984 . S
N1156 H1169 0.985 . S
N1157 C1159 1.356 . S
N1157 H1162 0.984 . S
N1157 H1163 0.985 . S
C1158 C1152 1.379 . S
C1158 C1155 1.363 . S
C1158 N1156 1.356 . S
C1159 C1153 1.363 . S
C1159 C1154 1.379 . S
C1159 N1157 1.356 . S
N1160 C1152 1.356 . S
N1160 H1166 0.984 . S
N1160 H1167 0.984 . S
N1161 C1154 1.356 . S
N1161 H1164 0.984 . S
N1161 H1165 0.985 . S
H1162 N1157 0.984 . S
H1163 N1157 0.985 . S
H1164 N1161 0.984 . S
H1165 N1161 0.985 . S
H1166 N1160 0.984 . S
H1167 N1160 0.984 . S
H1168 N1156 0.984 . S
H1169 N1156 0.985 . S
C1170 C1171 1.363 . S
C1170 C1176 1.379 . S
C1170 N1178 1.356 . S
C1171 C1170 1.363 . S
C1171 C1177 1.363 . S
C1172 C1173 1.363 . S
C1172 C1177 1.379 . S
C1172 N1179 1.356 . S
C1173 C1172 1.363 . S
C1173 C1176 1.363 . S
N1174 C1176 1.356 . S
N1174 H1186 0.984 . S
N1174 H1187 0.985 1_655 S
N1175 C1177 1.356 . S
N1175 H1180 0.984 . S
N1175 H1181 0.985 . S
C1176 C1170 1.379 . S
C1176 C1173 1.363 . S
C1176 N1174 1.356 . S
C1177 C1171 1.363 . S
C1177 C1172 1.379 . S
C1177 N1175 1.356 . S
N1178 C1170 1.356 . S
N1178 H1184 0.984 . S
N1178 H1185 0.984 . S
N1179 C1172 1.356 . S
N1179 H1182 0.984 1_655 S
N1179 H1183 0.985 . S
H1180 N1175 0.984 . S
H1181 N1175 0.985 . S
H1182 N1179 0.984 1_455 S
H1183 N1179 0.985 . S
H1184 N1178 0.984 . S
H1185 N1178 0.984 . S
H1186 N1174 0.984 . S
H1187 N1174 0.985 1_455 S
C1188 C1189 1.363 . S
C1188 C1194 1.379 . S
C1188 N1196 1.356 . S
C1189 C1188 1.363 . S
C1189 C1195 1.363 . S
C1190 C1191 1.363 . S
C1190 C1195 1.379 . S
C1190 N1197 1.356 . S
C1191 C1190 1.363 . S
C1191 C1194 1.363 . S
N1192 C1194 1.356 . S
N1192 H1204 0.984 . S
N1192 H1205 0.985 . S
N1193 C1195 1.356 1_565 S
N1193 H1198 0.984 . S
N1193 H1199 0.985 . S
C1194 C1188 1.379 . S
C1194 C1191 1.363 . S
C1194 N1192 1.356 . S
C1195 C1189 1.363 . S
C1195 C1190 1.379 . S
C1195 N1193 1.356 1_545 S
N1196 C1188 1.356 . S
N1196 H1202 0.984 . S
N1196 H1203 0.984 . S
N1197 C1190 1.356 . S
N1197 H1200 0.984 . S
N1197 H1201 0.985 . S
H1198 N1193 0.984 . S
H1199 N1193 0.985 . S
H1200 N1197 0.984 . S
H1201 N1197 0.985 . S
H1202 N1196 0.984 . S
H1203 N1196 0.984 . S
H1204 N1192 0.984 . S
H1205 N1192 0.985 . S
C1206 C1207 1.363 . S
C1206 C1212 1.379 . S
C1206 N1214 1.356 . S
C1207 C1206 1.363 . S
C1207 C1213 1.363 . S
C1208 C1209 1.363 . S
C1208 C1213 1.379 . S
C1208 N1215 1.356 1_655 S
C1209 C1208 1.363 . S
C1209 C1212 1.363 . S
N1210 C1212 1.356 . S
N1210 H1222 0.984 . S
N1210 H1223 0.985 . S
N1211 C1213 1.356 . S
N1211 H1216 0.984 . S
N1211 H1217 0.985 . S
C1212 C1206 1.379 . S
C1212 C1209 1.363 . S
C1212 N1210 1.356 . S
C1213 C1207 1.363 . S
C1213 C1208 1.379 . S
C1213 N1211 1.356 . S
N1214 C1206 1.356 . S
N1214 H1220 0.984 . S
N1214 H1221 0.984 . S
N1215 C1208 1.356 1_455 S
N1215 H1218 0.984 . S
N1215 H1219 0.985 . S
H1216 N1211 0.984 . S
H1217 N1211 0.985 . S
H1218 N1215 0.984 . S
H1219 N1215 0.985 . S
H1220 N1214 0.984 . S
H1221 N1214 0.984 . S
H1222 N1210 0.984 . S
H1223 N1210 0.985 . S
C1224 C1225 1.363 . S
C1224 C1230 1.379 . S
C1224 N1232 1.356 . S
C1225 C1224 1.363 . S
C1225 C1231 1.363 . S
C1226 C1227 1.363 . S
C1226 C1231 1.379 . S
C1226 N1233 1.356 1_565 S
C1227 C1226 1.363 . S
C1227 C1230 1.363 . S
N1228 C1230 1.356 . S
N1228 H1240 0.984 . S
N1228 H1241 0.985 1_565 S
N1229 C1231 1.356 . S
N1229 H1234 0.984 . S
N1229 H1235 0.985 . S
C1230 C1224 1.379 . S
C1230 C1227 1.363 . S
C1230 N1228 1.356 . S
C1231 C1225 1.363 . S
C1231 C1226 1.379 . S
C1231 N1229 1.356 . S
N1232 C1224 1.356 . S
N1232 H1238 0.984 . S
N1232 H1239 0.984 . S
N1233 C1226 1.356 1_545 S
N1233 H1236 0.984 . S
N1233 H1237 0.985 . S
H1234 N1229 0.984 . S
H1235 N1229 0.985 . S
H1236 N1233 0.984 . S
H1237 N1233 0.985 . S
H1238 N1232 0.984 . S
H1239 N1232 0.984 . S
H1240 N1228 0.984 . S
H1241 N1228 0.985 1_545 S
C1242 C1243 1.363 . S
C1242 C1248 1.379 . S
C1242 N1250 1.356 1_565 S
C1243 C1242 1.363 . S
C1243 C1249 1.363 . S
C1244 C1245 1.363 . S
C1244 C1249 1.379 . S
C1244 N1251 1.356 . S
C1245 C1244 1.363 . S
C1245 C1248 1.363 . S
N1246 C1248 1.356 . S
N1246 H1258 0.984 . S
N1246 H1259 0.985 . S
N1247 C1249 1.356 . S
N1247 H1252 0.984 1_565 S
N1247 H1253 0.985 . S
C1248 C1242 1.379 . S
C1248 C1245 1.363 . S
C1248 N1246 1.356 . S
C1249 C1243 1.363 . S
C1249 C1244 1.379 . S
C1249 N1247 1.356 . S
N1250 C1242 1.356 1_545 S
N1250 H1256 0.984 . S
N1250 H1257 0.984 . S
N1251 C1244 1.356 . S
N1251 H1254 0.985 . S
N1251 H1255 0.985 . S
H1252 N1247 0.984 1_545 S
H1253 N1247 0.985 . S
H1254 N1251 0.985 . S
H1255 N1251 0.985 . S
H1256 N1250 0.984 . S
H1257 N1250 0.984 . S
H1258 N1246 0.984 . S
H1259 N1246 0.985 . S
C1260 C1261 1.363 . S
C1260 C1266 1.379 . S
C1260 N1268 1.356 . S
C1261 C1260 1.363 . S
C1261 C1267 1.363 . S
C1262 C1263 1.363 . S
C1262 C1267 1.379 . S
C1262 N1269 1.356 . S
C1263 C1262 1.363 . S
C1263 C1266 1.363 . S
N1264 C1266 1.356 . S
N1264 H1276 0.984 1_455 S
N1264 H1277 0.985 1_455 S
N1265 C1267 1.356 . S
N1265 H1270 0.984 . S
N1265 H1271 0.985 . S
C1266 C1260 1.379 . S
C1266 C1263 1.363 . S
C1266 N1264 1.356 . S
C1267 C1261 1.363 . S
C1267 C1262 1.379 . S
C1267 N1265 1.356 . S
N1268 C1260 1.356 . S
N1268 H1274 0.984 . S
N1268 H1275 0.984 . S
N1269 C1262 1.356 . S
N1269 H1272 0.984 . S
N1269 H1273 0.985 . S
H1270 N1265 0.984 . S
H1271 N1265 0.985 . S
H1272 N1269 0.984 . S
H1273 N1269 0.985 . S
H1274 N1268 0.984 . S
H1275 N1268 0.984 . S
H1276 N1264 0.984 1_655 S
H1277 N1264 0.985 1_655 S
C1278 C1279 1.363 . S
C1278 C1284 1.379 . S
C1278 N1286 1.356 . S
C1279 C1278 1.363 . S
C1279 C1285 1.363 . S
C1280 C1281 1.363 . S
C1280 C1285 1.379 . S
C1280 N1287 1.356 . S
C1281 C1280 1.363 . S
C1281 C1284 1.363 . S
N1282 C1284 1.356 . S
N1282 H1294 0.984 . S
N1282 H1295 0.985 . S
N1283 C1285 1.356 . S
N1283 H1288 0.984 . S
N1283 H1289 0.985 . S
C1284 C1278 1.379 . S
C1284 C1281 1.363 . S
C1284 N1282 1.356 . S
C1285 C1279 1.363 . S
C1285 C1280 1.379 . S
C1285 N1283 1.356 . S
N1286 C1278 1.356 . S
N1286 H1292 0.984 . S
N1286 H1293 0.984 . S
N1287 C1280 1.356 . S
N1287 H1290 0.984 . S
N1287 H1291 0.985 . S
H1288 N1283 0.984 . S
H1289 N1283 0.985 . S
H1290 N1287 0.984 . S
H1291 N1287 0.985 . S
H1292 N1286 0.984 . S
H1293 N1286 0.984 . S
H1294 N1282 0.984 . S
H1295 N1282 0.985 . S
C1296 C1297 1.363 . S
C1296 C1302 1.379 . S
C1296 N1304 1.356 . S
C1297 C1296 1.363 . S
C1297 C1303 1.363 . S
C1298 C1299 1.363 . S
C1298 C1303 1.379 . S
C1298 N1305 1.356 . S
C1299 C1298 1.363 . S
C1299 C1302 1.363 . S
N1300 C1302 1.356 . S
N1300 H1312 0.984 . S
N1300 H1313 0.985 . S
N1301 C1303 1.356 . S
N1301 H1306 0.984 . S
N1301 H1307 0.985 . S
C1302 C1296 1.379 . S
C1302 C1299 1.363 . S
C1302 N1300 1.356 . S
C1303 C1297 1.363 . S
C1303 C1298 1.379 . S
C1303 N1301 1.356 . S
N1304 C1296 1.356 . S
N1304 H1310 0.984 . S
N1304 H1311 0.984 . S
N1305 C1298 1.356 . S
N1305 H1308 0.984 . S
N1305 H1309 0.985 . S
H1306 N1301 0.984 . S
H1307 N1301 0.985 . S
H1308 N1305 0.984 . S
H1309 N1305 0.985 . S
H1310 N1304 0.984 . S
H1311 N1304 0.984 . S
H1312 N1300 0.984 . S
H1313 N1300 0.985 . S
C1314 C1315 1.363 . S
C1314 C1320 1.379 . S
C1314 N1322 1.356 . S
C1315 C1314 1.363 . S
C1315 C1321 1.363 . S
C1316 C1317 1.363 . S
C1316 C1321 1.379 . S
C1316 N1323 1.356 . S
C1317 C1316 1.363 . S
C1317 C1320 1.363 . S
N1318 C1320 1.356 . S
N1318 H1330 0.984 . S
N1318 H1331 0.985 . S
N1319 C1321 1.356 . S
N1319 H1324 0.984 . S
N1319 H1325 0.985 . S
C1320 C1314 1.379 . S
C1320 C1317 1.363 . S
C1320 N1318 1.356 . S
C1321 C1315 1.363 . S
C1321 C1316 1.379 . S
C1321 N1319 1.356 . S
N1322 C1314 1.356 . S
N1322 H1328 0.984 . S
N1322 H1329 0.984 . S
N1323 C1316 1.356 . S
N1323 H1326 0.984 . S
N1323 H1327 0.985 . S
H1324 N1319 0.984 . S
H1325 N1319 0.985 . S
H1326 N1323 0.984 . S
H1327 N1323 0.985 . S
H1328 N1322 0.984 . S
H1329 N1322 0.984 . S
H1330 N1318 0.984 . S
H1331 N1318 0.985 . S
C361 C19 1.250 . S
C363 C41 1.300 . S
C379 C1 1.299 . S
C381 C39 1.250 . S
C397 C21 1.299 . S
C399 C59 1.250 . S
C415 C79 1.250 . S
C417 C81 1.300 . S
C433 C101 1.299 . S
C435 C99 1.250 . S
C451 C119 1.250 . S
C453 C61 1.299 . S
C469 C161 1.299 . S
C471 C139 1.250 . S
C487 C121 1.300 . S
C489 C159 1.250 . S
C505 C179 1.250 . S
C507 C141 1.299 . S
C523 C201 1.299 . S
C525 C199 1.250 . S
C541 C219 1.250 . S
C543 C221 1.300 . S
C559 C181 1.300 . S
C561 C239 1.250 . S
C577 C259 1.250 . S
C579 C281 1.299 . S
C595 C241 1.300 . S
C597 C279 1.250 . S
C613 C261 1.300 . S
C615 C299 1.250 . S
C631 C321 1.299 . S
C633 C319 1.250 . S
C649 C341 1.299 . S
C651 C339 1.250 . S
C667 C301 1.300 . S
C669 C359 1.250 . S
C685 C9 1.574 . S
C687 C109 1.574 . S
C703 C69 1.574 . S
C705 C29 1.574 . S
C721 C89 1.574 . S
C723 C49 1.574 . S
C739 C129 1.574 . S
C741 C229 1.574 . S
C757 C149 1.574 . S
C759 C189 1.574 . S
C775 C209 1.574 . S
C777 C169 1.574 . S
C793 C249 1.574 . S
C795 C349 1.574 . S
C811 C309 1.574 . S
C813 C269 1.574 . S
C829 C329 1.574 . S
C831 C289 1.574 . S
C847 C208 2.084 . S
C849 C8 2.084 1_565 S
C865 C28 2.084 . S
C867 C228 2.084 . S
C883 C188 2.084 . S
C885 C48 2.084 . S
C901 C68 2.084 1_655 S
C903 C288 2.084 . S
C919 C88 2.084 . S
C921 C248 2.084 . S
C937 C268 2.084 . S
C939 C108 2.084 . S
C955 C328 2.084 . S
C957 C128 2.084 . S
C973 C148 2.084 . S
C975 C348 2.084 . S
C991 C168 2.084 . S
C993 C308 2.084 . S
C1009 C42 1.560 . S
C1011 C18 1.597 . S
C1027 C2 1.561 . S
C1029 C38 1.597 . S
C1045 C58 1.597 . S
C1047 C22 1.561 . S
C1063 C82 1.560 . S
C1065 C78 1.597 . S
C1081 C102 1.561 . S
C1083 C98 1.597 . S
C1099 C118 1.597 . S
C1101 C62 1.561 . S
C1117 C162 1.560 . S
C1119 C138 1.597 . S
C1135 C158 1.597 . S
C1137 C122 1.561 . S
C1153 C142 1.561 . S
C1155 C178 1.597 . S
C1171 C198 1.597 . S
C1173 C202 1.561 1_655 S
C1189 C218 1.597 1_545 S
C1191 C222 1.561 . S
C1207 C182 1.561 1_545 S
C1209 C238 1.597 1_655 S
C1225 C258 1.597 . S
C1227 C282 1.561 1_565 S
C1243 C278 1.597 1_565 S
C1245 C242 1.561 1_455 S
C1261 C262 1.560 . S
C1263 C298 1.597 1_455 S
C1279 C318 1.597 . S
C1281 C322 1.560 . S
C1297 C338 1.597 . S
C1299 C342 1.561 . S
C1315 C302 1.561 . S
C1317 C358 1.597 . S
