# Generated by pormake.
# Topology twt, (3)-cn, num edge types: 1
# Building blocks:
#     Node 0, Type 0, BuildingBlock: WUSLED_clean_sbu_0, # of connection points: 3
#     Node 1, Type 0, BuildingBlock: WUSLED_clean_sbu_0, # of connection points: 3
#     Node 2, Type 0, BuildingBlock: WUSLED_clean_sbu_0, # of connection points: 3
#     Node 3, Type 0, BuildingBlock: WUSLED_clean_sbu_0, # of connection points: 3
#     Node 4, Type 0, BuildingBlock: WUSLED_clean_sbu_0, # of connection points: 3
#     Node 5, Type 0, BuildingBlock: WUSLED_clean_sbu_0, # of connection points: 3
#     Edge 6, Type (0, 0), BuildingBlock: KIFKEQ_clean_linker_1, # of connection points: 2
#     Edge 7, Type (0, 0), BuildingBlock: KIFKEQ_clean_linker_1, # of connection points: 2
#     Edge 8, Type (0, 0), BuildingBlock: KIFKEQ_clean_linker_1, # of connection points: 2
#     Edge 9, Type (0, 0), BuildingBlock: KIFKEQ_clean_linker_1, # of connection points: 2
#     Edge 10, Type (0, 0), BuildingBlock: KIFKEQ_clean_linker_1, # of connection points: 2
#     Edge 11, Type (0, 0), BuildingBlock: KIFKEQ_clean_linker_1, # of connection points: 2
#     Edge 12, Type (0, 0), BuildingBlock: KIFKEQ_clean_linker_1, # of connection points: 2
#     Edge 13, Type (0, 0), BuildingBlock: KIFKEQ_clean_linker_1, # of connection points: 2
#     Edge 14, Type (0, 0), BuildingBlock: KIFKEQ_clean_linker_1, # of connection points: 2
# Relax obj value: 0.000
# Max RMSD: 0.004
# Mean RMSD: 0.004
data_MOF--net-twt--node1-WUSLED_clean_sbu_0--edge1-KIFKEQ_clean_linker_1
_symmetry_space_group_name_H-M    P1
_symmetry_Int_Tables_number       1
_symmetry_cell_setting            triclinic
loop_
_symmetry_equiv_pos_as_xyz
'x, y, z'
_cell_length_a     67.837592
_cell_length_b     67.666541
_cell_length_c     17.926264
_cell_angle_alpha  90.05086
_cell_angle_beta   89.792523
_cell_angle_gamma 119.63111
loop_
_atom_site_label
_atom_site_type_symbol
_atom_site_fract_x
_atom_site_fract_y
_atom_site_fract_z
_atom_type_partial_charge
C0 C 0.65612 0.2943 0.31912 0.0
C1 C 0.67275 0.30728 0.37213 0.0
C2 C 0.66267 0.3373 0.36445 0.0
C3 C 0.67597 0.32855 0.39463 0.0
C4 C 0.6463 0.32429 0.31049 0.0
C5 C 0.64307 0.30306 0.28827 0.0
U6 U 0.67388 0.24906 0.27903 0.0
O7 O 0.65559 0.21243 0.30403 0.0
O8 O 0.66294 0.22397 0.18776 0.0
C9 C 0.65258 0.20655 0.23327 0.0
C10 C 0.65158 0.27141 0.2963 0.0
C11 C 0.62953 0.18882 0.21131 0.0
C12 C 0.58836 0.16998 0.22258 0.0
C13 C 0.60994 0.18764 0.24252 0.0
C14 C 0.60568 0.15474 0.13923 0.0
C15 C 0.58595 0.15325 0.17076 0.0
C16 C 0.62717 0.1723 0.15936 0.0
C17 C 0.73661 0.26461 0.30536 0.0
C18 C 0.75518 0.24434 0.2564 0.0
C19 C 0.77429 0.2741 0.34801 0.0
C20 C 0.75561 0.27759 0.35012 0.0
C21 C 0.77441 0.25751 0.30089 0.0
C22 C 0.73643 0.24782 0.25874 0.0
C23 C 0.71765 0.2695 0.30694 0.0
O24 O 0.66047 0.2702 0.23237 0.0
O25 O 0.65313 0.25863 0.34859 0.0
O26 O 0.70203 0.25886 0.35824 0.0
O27 O 0.70921 0.27045 0.24201 0.0
H28 H 0.68308 0.3009 0.39671 0.0
H29 H 0.68859 0.33793 0.43674 0.0
H30 H 0.63603 0.33058 0.28486 0.0
H31 H 0.63021 0.29338 0.24705 0.0
H32 H 0.57356 0.16953 0.24732 0.0
H33 H 0.61132 0.20026 0.28255 0.0
H34 H 0.60455 0.14205 0.1 0.0
H35 H 0.64205 0.17282 0.13485 0.0
H36 H 0.75455 0.23124 0.22013 0.0
H37 H 0.78885 0.28478 0.38224 0.0
H38 H 0.75614 0.2907 0.38623 0.0
H39 H 0.72188 0.23754 0.22385 0.0
C40 C 0.61056 0.56074 0.65547 0.0
C41 C 0.61461 0.58051 0.69377 0.0
C42 C 0.574 0.56772 0.69527 0.0
C43 C 0.59649 0.58394 0.71366 0.0
C44 C 0.57016 0.54802 0.65656 0.0
C45 C 0.58823 0.5446 0.63697 0.0
U46 U 0.67354 0.57915 0.61917 0.0
O47 O 0.69233 0.56145 0.64901 0.0
O48 O 0.6884 0.56772 0.53146 0.0
C49 C 0.69573 0.55807 0.57908 0.0
C50 C 0.62914 0.55631 0.63505 0.0
C51 C 0.69116 0.53495 0.56 0.0
C52 C 0.6655 0.49546 0.52656 0.0
C53 C 0.66911 0.51708 0.54653 0.0
C54 C 0.70588 0.50936 0.5341 0.0
C55 C 0.68389 0.49136 0.51955 0.0
C56 C 0.70944 0.53087 0.55403 0.0
C57 C 0.71954 0.64225 0.64178 0.0
C58 C 0.75861 0.65978 0.59772 0.0
C59 C 0.7471 0.68066 0.68002 0.0
C60 C 0.72505 0.6621 0.68194 0.0
C61 C 0.7642 0.67982 0.63772 0.0
C62 C 0.7365 0.64115 0.59988 0.0
C63 C 0.69591 0.62328 0.64351 0.0
O64 O 0.63931 0.56482 0.57103 0.0
O65 O 0.64334 0.55868 0.68861 0.0
O66 O 0.69095 0.60808 0.69641 0.0
O67 O 0.68691 0.6142 0.5788 0.0
H68 H 0.63175 0.59324 0.70835 0.0
H69 H 0.60012 0.59941 0.74267 0.0
H70 H 0.5531 0.53502 0.64236 0.0
H71 H 0.58473 0.52919 0.60767 0.0
H72 H 0.64837 0.48209 0.51522 0.0
H73 H 0.65475 0.51989 0.55083 0.0
H74 H 0.72041 0.5068 0.53065 0.0
H75 H 0.72658 0.54441 0.56453 0.0
H76 H 0.77138 0.65842 0.56527 0.0
H77 H 0.75063 0.69585 0.71066 0.0
H78 H 0.7122 0.66333 0.7144 0.0
H79 H 0.73262 0.62594 0.56866 0.0
C80 C 0.30062 0.51747 0.99452 0.0
C81 C 0.28203 0.5211 0.00166 0.0
C82 C 0.25767 0.48147 0.03917 0.0
C83 C 0.26075 0.50326 0.02367 0.0
C84 C 0.27648 0.47809 0.03222 0.0
C85 C 0.29767 0.49589 0.01016 0.0
U86 U 0.34383 0.57996 0.94756 0.0
O87 O 0.38041 0.59928 0.9712 0.0
O88 O 0.36862 0.59363 0.85531 0.0
C89 C 0.38615 0.60162 0.90028 0.0
C90 C 0.32311 0.53573 0.96999 0.0
C91 C 0.4044 0.59675 0.87927 0.0
C92 C 0.42265 0.57352 0.88492 0.0
C93 C 0.40471 0.57727 0.90468 0.0
C94 C 0.43996 0.6085 0.81362 0.0
C95 C 0.44053 0.58911 0.83906 0.0
C96 C 0.42212 0.61225 0.83355 0.0
C97 C 0.32618 0.62605 0.96726 0.0
C98 C 0.35151 0.66695 0.95868 0.0
C99 C 0.31096 0.65192 0.96854 0.0
C100 C 0.30766 0.62982 0.97066 0.0
C101 C 0.33293 0.67084 0.96305 0.0
C102 C 0.34816 0.64475 0.9608 0.0
C103 C 0.32202 0.60251 0.97181 0.0
O104 O 0.32381 0.54502 0.90497 0.0
O105 O 0.33544 0.5507 0.02098 0.0
O106 O 0.33316 0.59844 0.02386 0.0
O107 O 0.32138 0.59263 0.908 0.0
H108 H 0.28398 0.53768 0.99006 0.0
H109 H 0.24676 0.50659 0.02923 0.0
H110 H 0.27475 0.46154 0.04251 0.0
H111 H 0.31179 0.49272 0.00473 0.0
H112 H 0.42238 0.55829 0.90487 0.0
H113 H 0.39114 0.56503 0.93985 0.0
H114 H 0.45354 0.62104 0.77922 0.0
H115 H 0.42225 0.62743 0.81359 0.0
H116 H 0.36867 0.68107 0.95508 0.0
H117 H 0.29623 0.65416 0.97066 0.0
H118 H 0.29055 0.6156 0.97528 0.0
H119 H 0.3627 0.6422 0.95808 0.0
C120 C 0.03495 0.20629 0.32524 0.0
C121 C 1.01283 0.18809 0.3351 0.0
C122 C 1.02774 0.16295 0.36859 0.0
C123 C 1.00926 0.16662 0.35665 0.0
C124 C 0.04985 0.1814 0.35917 0.0
C125 C 0.05338 0.20279 0.33773 0.0
U126 U 1.01607 0.25004 0.27707 0.0
O127 O 1.033 0.28667 0.30157 0.0
O128 O 1.0277 0.27505 0.18532 0.0
C129 C 0.0369 0.29253 0.23084 0.0
C130 C 0.0393 0.22896 0.30107 0.0
C131 C 0.06 0.31082 0.21127 0.0
C132 C 0.10099 0.33101 0.2282 0.0
C133 C 0.07944 0.31279 0.24584 0.0
C134 C 0.08395 0.34523 0.14037 0.0
C135 C 0.10352 0.34761 0.17564 0.0
C136 C 0.06248 0.32708 0.15809 0.0
C137 C 0.95258 0.23266 0.2926 0.0
C138 C 0.93676 0.25807 0.29179 0.0
C139 C 0.9118 0.21738 0.28373 0.0
C140 C 0.93058 0.21408 0.28673 0.0
C141 C 0.91458 0.23941 0.2866 0.0
C142 C 0.95559 0.25473 0.2946 0.0
C143 C 0.97187 0.22839 0.2984 0.0
O144 O 1.03117 0.22986 0.2355 0.0
O145 O 0.03631 0.24126 0.35188 0.0
O146 O 0.98664 0.23936 0.35144 0.0
O147 O 0.98143 0.22777 0.23521 0.0
H148 H 0.99837 0.19045 0.32561 0.0
H149 H 0.99201 0.15279 0.36264 0.0
H150 H 0.0645 0.17938 0.36902 0.0
H151 H 0.07058 0.21665 0.33071 0.0
H152 H 0.11561 0.33234 0.25696 0.0
H153 H 0.07796 0.30042 0.28705 0.0
H154 H 0.08518 0.35735 0.09862 0.0
H155 H 0.04773 0.32584 0.1305 0.0
H156 H 0.93959 0.27528 0.29325 0.0
H157 H 0.89503 0.20259 0.28083 0.0
H158 H 0.92788 0.1969 0.28535 0.0
H159 H 0.97245 0.26934 0.29882 0.0
C160 C 0.07545 0.9378 0.66525 0.0
C161 C 0.07227 0.91572 0.67117 0.0
C162 C 0.11168 0.93104 0.71027 0.0
C163 C 0.09023 0.91237 0.69337 0.0
C164 C 0.11461 0.95308 0.70456 0.0
C165 C 0.0967 0.95639 0.68233 0.0
U166 U 1.01314 0.91891 0.61595 0.0
O167 O 0.99361 0.93626 0.63932 0.0
O168 O 1.00002 0.93054 0.52346 0.0
C169 C 0.99179 0.94005 0.56843 0.0
C170 C 0.05713 0.94201 0.64029 0.0
C171 C 0.99685 0.96329 0.54844 0.0
C172 C 1.01878 1.00447 0.56196 0.0
C173 C 1.01505 0.9827 0.58016 0.0
C174 C 0.98643 0.98769 0.47931 0.0
C175 C 1.0044 1.00726 0.51163 0.0
C176 C 0.98271 0.96601 0.49761 0.0
C177 C 0.96712 0.85558 0.63275 0.0
C178 C 0.9263 0.84055 0.62621 0.0
C179 C 0.94136 0.81474 0.62902 0.0
C180 C 0.9634 0.83329 0.63224 0.0
C181 C 0.92247 0.81807 0.62626 0.0
C182 C 0.94842 0.85913 0.62928 0.0
C183 C 0.99058 0.87468 0.63847 0.0
O184 O 0.04823 0.93361 0.57486 0.0
O185 O 0.04189 0.93928 0.6908 0.0
O186 O 0.99437 0.8897 0.69102 0.0
O187 O 1.00078 0.88399 0.57519 0.0
H188 H 0.05595 0.90112 0.6584 0.0
H189 H 0.08725 0.89515 0.6979 0.0
H190 H 0.1309 0.96788 0.7159 0.0
H191 H 0.09952 0.97357 0.67783 0.0
H192 H 1.03267 1.01908 0.58847 0.0
H193 H 1.02621 0.98103 0.61953 0.0
H194 H 0.97526 0.9891 0.43931 0.0
H195 H 0.96862 0.95127 0.47222 0.0
H196 H 0.9122 0.84378 0.62327 0.0
H197 H 0.93914 0.79776 0.63028 0.0
H198 H 0.97759 0.83018 0.63513 0.0
H199 H 0.95093 0.87624 0.62932 0.0
C200 C 0.38855 0.98493 0.9883 0.0
C201 C 0.40479 0.98037 0.01991 0.0
C202 C 0.43177 1.0211 0.02872 0.0
C203 C 0.4262 0.9983 0.04011 0.0
C204 C 0.41533 0.02545 0.99704 0.0
C205 C 0.39399 1.00757 0.97712 0.0
U206 U 0.34454 0.92209 0.94921 0.0
O207 O 0.30808 0.90339 0.9757 0.0
O208 O 0.31928 0.90784 0.85892 0.0
C209 C 0.302 0.90057 0.90518 0.0
C210 C 0.36586 0.96653 0.96655 0.0
C211 C 0.28382 0.90555 0.88426 0.0
C212 C 0.26326 0.92635 0.89999 0.0
C213 C 0.28141 0.92289 0.91879 0.0
C214 C 0.24999 0.8955 0.81102 0.0
C215 C 0.24725 0.91262 0.84601 0.0
C216 C 0.26804 0.89201 0.83003 0.0
C217 C 0.36136 0.87553 0.97262 0.0
C218 C 0.33953 0.83632 0.93008 0.0
C219 C 0.37271 0.84783 0.00701 0.0
C220 C 0.3761 0.86996 0.00982 0.0
C221 C 0.35447 0.8307 0.96672 0.0
C222 C 0.34295 0.85854 0.933 0.0
C223 C 0.36591 0.89924 0.97504 0.0
O224 O 0.36472 0.95657 0.9025 0.0
O225 O 0.35371 0.95212 0.01939 0.0
O226 O 0.35519 0.90396 0.02711 0.0
O227 O 0.36643 0.90866 0.91042 0.0
H228 H 0.40094 0.96298 0.02877 0.0
H229 H 0.43848 0.99429 0.06363 0.0
H230 H 0.41883 0.04273 0.98846 0.0
H231 H 0.38167 1.01145 0.95304 0.0
H232 H 0.26186 0.93987 0.92741 0.0
H233 H 0.29343 0.93364 0.96063 0.0
H234 H 0.23788 0.8844 0.77001 0.0
H235 H 0.2695 0.87847 0.80291 0.0
H236 H 0.32543 0.82367 0.898 0.0
H237 H 0.38431 0.84411 0.03707 0.0
H238 H 0.39035 0.88281 0.04097 0.0
H239 H 0.33137 0.86249 0.90385 0.0
H240 H 0.70236 0.3765 0.39706 0.0
H241 H 0.62983 0.34919 0.38806 0.0
H242 H 0.70718 0.41311 0.43648 0.0
H243 H 0.63474 0.38605 0.42411 0.0
H244 H 0.64989 0.44907 0.56268 0.0
H245 H 0.64477 0.41199 0.52712 0.0
H246 H 0.70474 0.44495 0.38858 0.0
H247 H 0.70988 0.48191 0.42429 0.0
C248 C 0.68741 0.37824 0.40361 0.0
C249 C 0.6657 0.35978 0.38909 0.0
C250 C 0.6902 0.39938 0.42537 0.0
C251 C 0.67137 0.40268 0.43326 0.0
C252 C 0.64965 0.38416 0.41936 0.0
C253 C 0.64685 0.36304 0.39766 0.0
C254 C 0.66187 0.44841 0.52413 0.0
C255 C 0.68035 0.46857 0.4967 0.0
C256 C 0.65895 0.42711 0.5037 0.0
C257 C 0.67439 0.42537 0.45512 0.0
C258 C 0.69275 0.44555 0.42724 0.0
C259 C 0.69568 0.46681 0.44772 0.0
H260 H 0.53654 0.55844 0.61201 0.0
H261 H 0.56725 0.58472 0.82636 0.0
H262 H 0.5042 0.56281 0.64739 0.0
H263 H 0.53518 0.58982 0.86088 0.0
H264 H 0.46299 0.57332 0.92674 0.0
H265 H 0.49494 0.568 0.89227 0.0
H266 H 0.49418 0.59196 0.66966 0.0
H267 H 0.46184 0.59654 0.70331 0.0
C268 C 0.53641 0.56515 0.66677 0.0
C269 C 0.55455 0.57116 0.71634 0.0
C270 C 0.51793 0.56788 0.6868 0.0
C271 C 0.51701 0.57668 0.75706 0.0
C272 C 0.53517 0.58276 0.80663 0.0
C273 C 0.55371 0.5801 0.78646 0.0
C274 C 0.46947 0.57721 0.87019 0.0
C275 C 0.45979 0.58538 0.8179 0.0
C276 C 0.48799 0.57442 0.85065 0.0
C277 C 0.49724 0.5796 0.77817 0.0
C278 C 0.48741 0.58758 0.72577 0.0
C279 C 0.46898 0.59045 0.74535 0.0
H280 H 0.21574 0.47084 0.98479 0.0
H281 H 0.24807 0.44838 0.14436 0.0
H282 H 0.17889 0.43886 0.01887 0.0
H283 H 0.21124 0.41639 0.17835 0.0
H284 H 0.14432 0.34843 0.1605 0.0
H285 H 0.18129 0.38076 0.12935 0.0
H286 H 0.15145 0.42419 0.11941 0.0
H287 H 0.11457 0.39195 0.15077 0.0
C288 C 0.215 0.45925 0.02776 0.0
C289 C 0.23498 0.46225 0.06162 0.0
C290 C 0.19382 0.44085 0.04731 0.0
C291 C 0.19201 0.42493 0.10133 0.0
C292 C 0.21197 0.42804 0.13561 0.0
C293 C 0.23314 0.44644 0.1161 0.0
C294 C 0.14566 0.36491 0.15243 0.0
C295 C 0.12633 0.36745 0.15791 0.0
C296 C 0.1669 0.38349 0.1345 0.0
C297 C 0.16943 0.40515 0.12153 0.0
C298 C 0.15013 0.40772 0.12762 0.0
C299 C 0.12892 0.38917 0.14562 0.0
H300 H 0.04467 0.047 0.48992 0.0
H301 H 0.97214 1.02 0.49114 0.0
H302 H 0.05025 0.08448 0.4583 0.0
H303 H 0.97768 0.05719 0.45636 0.0
H304 H 0.9963 0.1321 0.46653 0.0
H305 H 0.99086 0.09499 0.50286 0.0
H306 H 0.04552 0.10469 0.35583 0.0
H307 H 0.05098 0.14176 0.31975 0.0
C308 C 1.02989 0.04903 0.48368 0.0
C309 C 1.00794 0.03035 0.49299 0.0
C310 C 1.03309 0.07051 0.46459 0.0
C311 C 1.01442 0.07395 0.45436 0.0
C312 C 0.99248 0.05531 0.4644 0.0
C313 C 0.9893 0.03385 0.48346 0.0
C314 C 1.00704 0.12625 0.44146 0.0
C315 C 1.02412 0.14004 0.39028 0.0
C316 C 1.00392 0.10492 0.46234 0.0
C317 C 1.01778 0.09676 0.43253 0.0
C318 C 0.0348 0.11053 0.38111 0.0
C319 C 0.03792 0.13183 0.36031 0.0
H320 H 0.12347 0.90044 0.65435 0.0
H321 H 0.14401 0.95415 0.81697 0.0
H322 H 0.15568 0.89577 0.68869 0.0
H323 H 0.17672 0.95014 0.84909 0.0
H324 H 0.22061 0.92149 0.94061 0.0
H325 H 0.18772 0.92541 0.90963 0.0
H326 H 0.19632 0.91486 0.67681 0.0
H327 H 0.2291 0.91083 0.70788 0.0
C328 C 0.13477 0.9112 0.69768 0.0
C329 C 0.13107 0.92771 0.73269 0.0
C330 C 0.15346 0.90872 0.71674 0.0
C331 C 0.16897 0.92266 0.77146 0.0
C332 C 0.16509 0.93896 0.80717 0.0
C333 C 0.14642 0.94144 0.78807 0.0
C334 C 0.21563 0.92024 0.8827 0.0
C335 C 0.22755 0.9158 0.82684 0.0
C336 C 0.19672 0.92247 0.86488 0.0
C337 C 0.18921 0.92037 0.79065 0.0
C338 C 0.20127 0.91614 0.73474 0.0
C339 C 0.22015 0.91387 0.75258 0.0
H340 H 0.45816 0.06052 0.9511 0.0
H341 H 0.45711 0.02541 0.15341 0.0
H342 H 0.49473 0.09249 0.98625 0.0
H343 H 0.49415 0.05714 0.18745 0.0
H344 H 0.54919 0.12835 0.26209 0.0
H345 H 0.51211 0.09669 0.22811 0.0
H346 H 0.5341 0.1027 -0.00122 0.0
H347 H 0.57083 0.13474 0.03226 0.0
C348 C 0.46571 0.05961 0.00318 0.0
C349 C 0.45457 0.04035 0.04947 0.0
C350 C 0.48685 0.07788 0.02298 0.0
C351 C 0.49748 0.07747 0.08975 0.0
C352 C 0.48639 0.05819 0.13602 0.0
C353 C 0.46525 0.03985 0.11605 0.0
C354 C 0.54603 0.12309 0.20426 0.0
C355 C 0.56307 0.13416 0.14998 0.0
C356 C 0.52483 0.10473 0.1849 0.0
C357 C 0.52006 0.09703 0.11067 0.0
C358 C 0.53705 0.10824 0.05636 0.0
C359 C 0.55824 0.12651 0.07574 0.0
H360 H 0.87591 0.21676 0.20261 0.0
H361 H 0.90727 0.26948 0.36882 0.0
H362 H 0.84208 0.22068 0.2061 0.0
H363 H 0.87377 0.274 0.37024 0.0
H364 H 0.80098 0.25804 0.41688 0.0
H365 H 0.83477 0.25412 0.41167 0.0
H366 H 0.82781 0.24585 0.17258 0.0
H367 H 0.79393 0.24975 0.17785 0.0
C368 C 0.87563 0.22924 0.23983 0.0
C369 C 0.89436 0.24273 0.28569 0.0
C370 C 0.85628 0.23166 0.24123 0.0
C371 C 0.85507 0.24762 0.28862 0.0
C372 C 0.87392 0.26132 0.33375 0.0
C373 C 0.89329 0.25893 0.33224 0.0
C374 C 0.80671 0.25554 0.36306 0.0
C375 C 0.79468 0.25428 0.29776 0.0
C376 C 0.82616 0.25333 0.36005 0.0
C377 C 0.83418 0.24979 0.29165 0.0
C378 C 0.82202 0.24828 0.2264 0.0
C379 C 0.80254 0.25049 0.22942 0.0
H380 H 0.79282 0.69718 0.51692 0.0
H381 H 0.78874 0.70807 0.75254 0.0
H382 H 0.83058 0.73061 0.51219 0.0
H383 H 0.82645 0.7414 0.74791 0.0
H384 H 0.88461 0.81279 0.70027 0.0
H385 H 0.84657 0.77979 0.70086 0.0
H386 H 0.86916 0.74469 0.55213 0.0
H387 H 0.90695 0.778 0.54923 0.0
C388 C 0.80005 0.70654 0.56792 0.0
C389 C 0.78763 0.69989 0.63507 0.0
C390 C 0.82174 0.72577 0.56521 0.0
C391 C 0.83163 0.73886 0.6296 0.0
C392 C 0.81926 0.73206 0.69685 0.0
C393 C 0.7976 0.71287 0.69954 0.0
C394 C 0.88141 0.79817 0.66685 0.0
C395 C 0.89895 0.79813 0.62482 0.0
C396 C 0.85963 0.77909 0.66793 0.0
C397 C 0.85473 0.75943 0.6269 0.0
C398 C 0.87219 0.75953 0.58398 0.0
C399 C 0.89398 0.77859 0.58299 0.0
H400 H 0.36297 0.70753 0.87893 0.0
H401 H 0.3106 0.68773 0.04639 0.0
H402 H 0.36798 0.74582 0.87743 0.0
H403 H 0.3156 0.72592 0.04492 0.0
H404 H 0.31453 0.78995 0.97243 0.0
H405 H 0.30937 0.75164 0.96861 0.0
H406 H 0.38191 0.77976 0.95209 0.0
H407 H 0.38699 0.81799 0.95278 0.0
C408 C 0.35265 0.71136 0.91591 0.0
C409 C 0.33632 0.69443 0.96259 0.0
C410 C 0.35551 0.73336 0.91502 0.0
C411 C 0.34215 0.73903 0.96086 0.0
C412 C 0.32591 0.72212 0.00777 0.0
C413 C 0.32305 0.70016 0.00865 0.0
C414 C 0.32937 0.78798 0.96703 0.0
C415 C 0.35119 0.80717 0.96315 0.0
C416 C 0.32643 0.76597 0.96575 0.0
C417 C 0.34522 0.76251 0.9604 0.0
C418 C 0.36701 0.78169 0.95559 0.0
C419 C 0.36995 0.80368 0.95694 0.0
loop_
_geom_bond_atom_site_label_1
_geom_bond_atom_site_label_2
_geom_bond_distance
_geom_bond_site_symmetry_2
_ccdc_geom_bond_type
C0 C1 1.264 . S
C0 C5 1.479 . S
C0 C10 1.465 . S
C1 C0 1.264 . S
C1 C3 1.339 . S
C1 H28 0.931 . S
C2 C3 1.395 . S
C2 C4 1.320 . S
C3 C1 1.339 . S
C3 C2 1.395 . S
C3 H29 0.929 . S
C4 C2 1.320 . S
C4 C5 1.405 . S
C4 H30 0.930 . S
C5 C0 1.479 . S
C5 C4 1.405 . S
C5 H31 0.931 . S
U6 O7 2.454 . S
U6 O8 2.458 . S
U6 C9 2.984 . S
U6 C10 2.847 . S
U6 C23 2.882 . S
U6 O24 2.441 . S
U6 O25 2.420 . S
U6 O26 2.455 . S
U6 O27 2.449 . S
O7 U6 2.454 . S
O7 C9 1.353 . S
O8 U6 2.458 . S
O8 C9 1.286 . S
C9 U6 2.984 . S
C9 O7 1.353 . S
C9 O8 1.286 . S
C9 C11 1.363 . S
C10 C0 1.465 . S
C10 U6 2.847 . S
C10 O24 1.249 . S
C10 O25 1.202 . S
C11 C9 1.363 . S
C11 C13 1.408 . S
C11 C16 1.342 . S
C12 C13 1.310 . S
C12 C15 1.461 . S
C12 H32 0.932 . S
C13 C11 1.408 . S
C13 C12 1.310 . S
C13 H33 0.930 . S
C14 C15 1.474 . S
C14 C16 1.285 . S
C14 H34 0.929 . S
C15 C12 1.461 . S
C15 C14 1.474 . S
C16 C11 1.342 . S
C16 C14 1.285 . S
C16 H35 0.930 . S
C17 C20 1.424 . S
C17 C22 1.245 . S
C17 C23 1.428 . S
C18 C21 1.260 . S
C18 C22 1.477 . S
C18 H36 0.932 . S
C19 C20 1.384 . S
C19 C21 1.479 . S
C19 H37 0.929 . S
C20 C17 1.424 . S
C20 C19 1.384 . S
C20 H38 0.928 . S
C21 C18 1.260 . S
C21 C19 1.479 . S
C22 C17 1.245 . S
C22 C18 1.477 . S
C22 H39 0.932 . S
C23 U6 2.882 . S
C23 C17 1.428 . S
C23 O26 1.301 . S
C23 O27 1.282 . S
O24 U6 2.441 . S
O24 C10 1.249 . S
O25 U6 2.420 . S
O25 C10 1.202 . S
O26 U6 2.455 . S
O26 C23 1.301 . S
O27 U6 2.449 . S
O27 C23 1.282 . S
H28 C1 0.931 . S
H29 C3 0.929 . S
H30 C4 0.930 . S
H31 C5 0.931 . S
H32 C12 0.932 . S
H33 C13 0.930 . S
H34 C14 0.929 . S
H35 C16 0.930 . S
H36 C18 0.932 . S
H37 C19 0.929 . S
H38 C20 0.928 . S
H39 C22 0.932 . S
C40 C41 1.264 . S
C40 C45 1.479 . S
C40 C50 1.465 . S
C41 C40 1.264 . S
C41 C43 1.339 . S
C41 H68 0.931 . S
C42 C43 1.395 . S
C42 C44 1.320 . S
C43 C41 1.339 . S
C43 C42 1.395 . S
C43 H69 0.929 . S
C44 C42 1.320 . S
C44 C45 1.405 . S
C44 H70 0.930 . S
C45 C40 1.479 . S
C45 C44 1.405 . S
C45 H71 0.931 . S
U46 O47 2.454 . S
U46 O48 2.458 . S
U46 C49 2.984 . S
U46 C50 2.847 . S
U46 C63 2.882 . S
U46 O64 2.441 . S
U46 O65 2.420 . S
U46 O66 2.455 . S
U46 O67 2.449 . S
O47 U46 2.454 . S
O47 C49 1.353 . S
O48 U46 2.458 . S
O48 C49 1.286 . S
C49 U46 2.984 . S
C49 O47 1.353 . S
C49 O48 1.286 . S
C49 C51 1.363 . S
C50 C40 1.465 . S
C50 U46 2.847 . S
C50 O64 1.249 . S
C50 O65 1.202 . S
C51 C49 1.363 . S
C51 C53 1.408 . S
C51 C56 1.342 . S
C52 C53 1.310 . S
C52 C55 1.461 . S
C52 H72 0.932 . S
C53 C51 1.408 . S
C53 C52 1.310 . S
C53 H73 0.930 . S
C54 C55 1.474 . S
C54 C56 1.285 . S
C54 H74 0.929 . S
C55 C52 1.461 . S
C55 C54 1.474 . S
C56 C51 1.342 . S
C56 C54 1.285 . S
C56 H75 0.930 . S
C57 C60 1.424 . S
C57 C62 1.245 . S
C57 C63 1.428 . S
C58 C61 1.260 . S
C58 C62 1.477 . S
C58 H76 0.932 . S
C59 C60 1.384 . S
C59 C61 1.479 . S
C59 H77 0.929 . S
C60 C57 1.424 . S
C60 C59 1.384 . S
C60 H78 0.928 . S
C61 C58 1.260 . S
C61 C59 1.479 . S
C62 C57 1.245 . S
C62 C58 1.477 . S
C62 H79 0.932 . S
C63 U46 2.882 . S
C63 C57 1.428 . S
C63 O66 1.301 . S
C63 O67 1.282 . S
O64 U46 2.441 . S
O64 C50 1.249 . S
O65 U46 2.420 . S
O65 C50 1.202 . S
O66 U46 2.455 . S
O66 C63 1.301 . S
O67 U46 2.449 . S
O67 C63 1.282 . S
H68 C41 0.931 . S
H69 C43 0.929 . S
H70 C44 0.930 . S
H71 C45 0.931 . S
H72 C52 0.932 . S
H73 C53 0.930 . S
H74 C54 0.929 . S
H75 C56 0.930 . S
H76 C58 0.932 . S
H77 C59 0.929 . S
H78 C60 0.928 . S
H79 C62 0.932 . S
C80 C81 1.264 . S
C80 C85 1.479 . S
C80 C90 1.465 . S
C81 C80 1.264 . S
C81 C83 1.339 . S
C81 H108 0.931 . S
C82 C83 1.395 . S
C82 C84 1.320 . S
C83 C81 1.339 . S
C83 C82 1.395 . S
C83 H109 0.929 . S
C84 C82 1.320 . S
C84 C85 1.405 . S
C84 H110 0.930 . S
C85 C80 1.479 . S
C85 C84 1.405 . S
C85 H111 0.931 . S
U86 O87 2.454 1_554 S
U86 O88 2.458 1_554 S
U86 C89 2.984 1_554 S
U86 C90 2.847 . S
U86 C103 2.882 . S
U86 O104 2.441 . S
U86 O105 2.420 . S
U86 O106 2.455 . S
U86 O107 2.449 . S
O87 U86 2.454 1_556 S
O87 C89 1.353 . S
O88 U86 2.458 1_556 S
O88 C89 1.286 . S
C89 U86 2.984 1_556 S
C89 O87 1.353 . S
C89 O88 1.286 . S
C89 C91 1.363 . S
C90 C80 1.465 . S
C90 U86 2.847 . S
C90 O104 1.249 . S
C90 O105 1.202 . S
C91 C89 1.363 . S
C91 C93 1.408 . S
C91 C96 1.342 . S
C92 C93 1.310 . S
C92 C95 1.461 . S
C92 H112 0.932 . S
C93 C91 1.408 . S
C93 C92 1.310 . S
C93 H113 0.930 . S
C94 C95 1.474 . S
C94 C96 1.285 . S
C94 H114 0.929 . S
C95 C92 1.461 . S
C95 C94 1.474 . S
C96 C91 1.342 . S
C96 C94 1.285 . S
C96 H115 0.930 . S
C97 C100 1.424 . S
C97 C102 1.245 1_554 S
C97 C103 1.428 . S
C98 C101 1.260 . S
C98 C102 1.477 . S
C98 H116 0.932 . S
C99 C100 1.384 . S
C99 C101 1.479 1_554 S
C99 H117 0.929 . S
C100 C97 1.424 . S
C100 C99 1.384 . S
C100 H118 0.928 . S
C101 C98 1.260 . S
C101 C99 1.479 1_556 S
C102 C97 1.245 1_556 S
C102 C98 1.477 . S
C102 H119 0.932 . S
C103 U86 2.882 . S
C103 C97 1.428 . S
C103 O106 1.301 . S
C103 O107 1.282 . S
O104 U86 2.441 . S
O104 C90 1.249 . S
O105 U86 2.420 . S
O105 C90 1.202 . S
O106 U86 2.455 . S
O106 C103 1.301 . S
O107 U86 2.449 . S
O107 C103 1.282 . S
H108 C81 0.931 . S
H109 C83 0.929 . S
H110 C84 0.930 . S
H111 C85 0.931 . S
H112 C92 0.932 . S
H113 C93 0.930 . S
H114 C94 0.929 . S
H115 C96 0.930 . S
H116 C98 0.932 . S
H117 C99 0.929 . S
H118 C100 0.928 . S
H119 C102 0.932 . S
C120 C121 1.264 . S
C120 C125 1.479 1_655 S
C120 C130 1.465 . S
C121 C120 1.264 . S
C121 C123 1.339 . S
C121 H148 0.931 . S
C122 C123 1.395 . S
C122 C124 1.348 . S
C123 C121 1.339 . S
C123 C122 1.395 . S
C123 H149 0.929 . S
C124 C122 1.348 . S
C124 C125 1.424 1_655 S
C124 H150 0.884 1_655 S
C125 C120 1.479 1_455 S
C125 C124 1.424 1_455 S
C125 H151 0.931 . S
U126 O127 2.454 1_655 S
U126 O128 2.458 1_655 S
U126 C129 2.984 1_655 S
U126 C130 2.847 . S
U126 C143 2.882 . S
U126 O144 2.441 1_655 S
U126 O145 2.420 . S
U126 O146 2.455 . S
U126 O147 2.449 . S
O127 U126 2.454 1_455 S
O127 C129 1.353 . S
O128 U126 2.458 1_455 S
O128 C129 1.286 . S
C129 U126 2.984 1_455 S
C129 O127 1.353 . S
C129 O128 1.286 . S
C129 C131 1.363 . S
C130 C120 1.465 . S
C130 U126 2.847 . S
C130 O144 1.249 1_655 S
C130 O145 1.202 . S
C131 C129 1.363 . S
C131 C133 1.408 . S
C131 C136 1.342 . S
C132 C133 1.310 . S
C132 C135 1.461 . S
C132 H152 0.932 . S
C133 C131 1.408 . S
C133 C132 1.310 . S
C133 H153 0.930 . S
C134 C135 1.474 . S
C134 C136 1.285 . S
C134 H154 0.929 . S
C135 C132 1.461 . S
C135 C134 1.474 . S
C136 C131 1.342 . S
C136 C134 1.285 . S
C136 H155 0.930 . S
C137 C140 1.424 . S
C137 C142 1.245 . S
C137 C143 1.428 . S
C138 C141 1.260 . S
C138 C142 1.477 . S
C138 H156 0.932 . S
C139 C140 1.384 . S
C139 C141 1.479 . S
C139 H157 0.929 . S
C140 C137 1.424 . S
C140 C139 1.384 . S
C140 H158 0.928 . S
C141 C138 1.260 . S
C141 C139 1.479 . S
C142 C137 1.245 . S
C142 C138 1.477 . S
C142 H159 0.932 . S
C143 U126 2.882 . S
C143 C137 1.428 . S
C143 O146 1.301 . S
C143 O147 1.282 . S
O144 U126 2.441 1_455 S
O144 C130 1.249 1_455 S
O145 U126 2.420 . S
O145 C130 1.202 . S
O146 U126 2.455 . S
O146 C143 1.301 . S
O147 U126 2.449 . S
O147 C143 1.282 . S
H148 C121 0.931 . S
H149 C123 0.929 . S
H150 C124 0.884 1_455 S
H151 C125 0.931 . S
H152 C132 0.932 . S
H153 C133 0.930 . S
H154 C134 0.929 . S
H155 C136 0.930 . S
H156 C138 0.932 . S
H157 C139 0.929 . S
H158 C140 0.928 . S
H159 C142 0.932 . S
C160 C161 1.264 . S
C160 C165 1.479 . S
C160 C170 1.465 . S
C161 C160 1.264 . S
C161 C163 1.339 . S
C161 H188 0.931 . S
C162 C163 1.395 . S
C162 C164 1.320 . S
C163 C161 1.339 . S
C163 C162 1.395 . S
C163 H189 0.929 . S
C164 C162 1.320 . S
C164 C165 1.405 . S
C164 H190 0.930 . S
C165 C160 1.479 . S
C165 C164 1.405 . S
C165 H191 0.931 . S
U166 O167 2.454 . S
U166 O168 2.458 . S
U166 C169 2.984 . S
U166 C170 2.847 1_655 S
U166 C183 2.882 . S
U166 O184 2.441 1_655 S
U166 O185 2.471 . S
U166 O186 2.455 . S
U166 O187 2.449 . S
O167 U166 2.454 . S
O167 C169 1.353 . S
O168 U166 2.458 . S
O168 C169 1.286 . S
C169 U166 2.984 . S
C169 O167 1.353 . S
C169 O168 1.286 . S
C169 C171 1.363 . S
C170 C160 1.465 . S
C170 U166 2.847 1_455 S
C170 O184 1.249 . S
C170 O185 1.167 1_455 S
C171 C169 1.363 . S
C171 C173 1.408 . S
C171 C176 1.342 . S
C172 C173 1.310 . S
C172 C175 1.461 . S
C172 H192 0.932 1_665 S
C173 C171 1.408 . S
C173 C172 1.310 . S
C173 H193 0.930 1_655 S
C174 C175 1.474 . S
C174 C176 1.285 . S
C174 H194 0.929 . S
C175 C172 1.461 . S
C175 C174 1.474 . S
C176 C171 1.342 . S
C176 C174 1.285 . S
C176 H195 0.930 . S
C177 C180 1.424 . S
C177 C182 1.245 . S
C177 C183 1.428 . S
C178 C181 1.260 . S
C178 C182 1.477 . S
C178 H196 0.932 . S
C179 C180 1.384 . S
C179 C181 1.479 . S
C179 H197 0.929 . S
C180 C177 1.424 . S
C180 C179 1.384 . S
C180 H198 0.928 . S
C181 C178 1.260 . S
C181 C179 1.479 . S
C182 C177 1.245 . S
C182 C178 1.477 . S
C182 H199 0.932 . S
C183 U166 2.882 . S
C183 C177 1.428 . S
C183 O186 1.301 . S
C183 O187 1.282 . S
O184 U166 2.441 1_455 S
O184 C170 1.249 . S
O185 U166 2.471 . S
O185 C170 1.167 1_655 S
O186 U166 2.455 . S
O186 C183 1.301 . S
O187 U166 2.449 . S
O187 C183 1.282 . S
H188 C161 0.931 . S
H189 C163 0.929 . S
H190 C164 0.930 . S
H191 C165 0.931 . S
H192 C172 0.932 1_445 S
H193 C173 0.930 1_455 S
H194 C174 0.929 . S
H195 C176 0.930 . S
H196 C178 0.932 . S
H197 C179 0.929 . S
H198 C180 0.928 . S
H199 C182 0.932 . S
C200 C201 1.264 . S
C200 C205 1.479 . S
C200 C210 1.465 . S
C201 C200 1.264 . S
C201 C203 1.339 . S
C201 H228 0.931 . S
C202 C203 1.395 . S
C202 C204 1.320 . S
C203 C201 1.339 . S
C203 C202 1.395 . S
C203 H229 0.929 . S
C204 C202 1.320 . S
C204 C205 1.405 . S
C204 H230 0.930 1_565 S
C205 C200 1.479 . S
C205 C204 1.405 . S
C205 H231 0.931 . S
U206 O207 2.454 1_554 S
U206 O208 2.458 1_554 S
U206 C209 2.984 1_554 S
U206 C210 2.847 . S
U206 C223 2.882 . S
U206 O224 2.441 . S
U206 O225 2.420 . S
U206 O226 2.455 . S
U206 O227 2.449 . S
O207 U206 2.454 1_556 S
O207 C209 1.353 . S
O208 U206 2.458 1_556 S
O208 C209 1.286 . S
C209 U206 2.984 1_556 S
C209 O207 1.353 . S
C209 O208 1.286 . S
C209 C211 1.363 . S
C210 C200 1.465 . S
C210 U206 2.847 . S
C210 O224 1.249 . S
C210 O225 1.202 . S
C211 C209 1.363 . S
C211 C213 1.408 . S
C211 C216 1.342 . S
C212 C213 1.310 . S
C212 C215 1.461 . S
C212 H232 0.932 . S
C213 C211 1.408 . S
C213 C212 1.310 . S
C213 H233 0.930 . S
C214 C215 1.474 . S
C214 C216 1.285 . S
C214 H234 0.929 . S
C215 C212 1.461 . S
C215 C214 1.474 . S
C216 C211 1.342 . S
C216 C214 1.285 . S
C216 H235 0.930 . S
C217 C220 1.424 . S
C217 C222 1.245 1_554 S
C217 C223 1.428 . S
C218 C221 1.260 . S
C218 C222 1.477 . S
C218 H236 0.932 . S
C219 C220 1.384 . S
C219 C221 1.479 1_554 S
C219 H237 0.929 . S
C220 C217 1.424 . S
C220 C219 1.384 . S
C220 H238 0.928 . S
C221 C218 1.260 . S
C221 C219 1.479 1_556 S
C222 C217 1.245 1_556 S
C222 C218 1.477 . S
C222 H239 0.932 . S
C223 U206 2.882 . S
C223 C217 1.428 . S
C223 O226 1.301 . S
C223 O227 1.282 . S
O224 U206 2.441 . S
O224 C210 1.249 . S
O225 U206 2.420 . S
O225 C210 1.202 . S
O226 U206 2.455 . S
O226 C223 1.301 . S
O227 U206 2.449 . S
O227 C223 1.282 . S
H228 C201 0.931 . S
H229 C203 0.929 . S
H230 C204 0.930 1_545 S
H231 C205 0.931 . S
H232 C212 0.932 . S
H233 C213 0.930 . S
H234 C214 0.929 . S
H235 C216 0.930 . S
H236 C218 0.932 . S
H237 C219 0.929 . S
H238 C220 0.928 . S
H239 C222 0.932 . S
H240 C248 0.950 . S
H241 C253 0.950 . S
H242 C250 0.950 . S
H243 C252 0.950 . S
H244 C254 0.950 . S
H245 C256 0.950 . S
H246 C258 0.950 . S
H247 C259 0.950 . S
C248 H240 0.950 . S
C248 C249 1.386 . S
C248 C250 1.391 . S
C249 C248 1.386 . S
C249 C253 1.393 . S
C250 H242 0.950 . S
C250 C248 1.391 . S
C250 C251 1.400 . S
C251 C250 1.400 . S
C251 C252 1.398 . S
C251 C257 1.491 . S
C252 H243 0.950 . S
C252 C251 1.398 . S
C252 C253 1.391 . S
C253 H241 0.950 . S
C253 C249 1.393 . S
C253 C252 1.391 . S
C254 H244 0.950 . S
C254 C255 1.386 . S
C254 C256 1.391 . S
C255 C254 1.386 . S
C255 C259 1.393 . S
C256 H245 0.950 . S
C256 C254 1.391 . S
C256 C257 1.400 . S
C257 C251 1.491 . S
C257 C256 1.400 . S
C257 C258 1.398 . S
C258 H246 0.950 . S
C258 C257 1.398 . S
C258 C259 1.391 . S
C259 H247 0.950 . S
C259 C255 1.393 . S
C259 C258 1.391 . S
H260 C268 0.950 . S
H261 C273 0.950 . S
H262 C270 0.950 . S
H263 C272 0.950 . S
H264 C274 0.950 . S
H265 C276 0.950 . S
H266 C278 0.950 . S
H267 C279 0.950 . S
C268 H260 0.950 . S
C268 C269 1.386 . S
C268 C270 1.391 . S
C269 C268 1.386 . S
C269 C273 1.393 . S
C270 H262 0.950 . S
C270 C268 1.391 . S
C270 C271 1.400 . S
C271 C270 1.400 . S
C271 C272 1.398 . S
C271 C277 1.491 . S
C272 H263 0.950 . S
C272 C271 1.398 . S
C272 C273 1.391 . S
C273 H261 0.950 . S
C273 C269 1.393 . S
C273 C272 1.391 . S
C274 H264 0.950 . S
C274 C275 1.386 . S
C274 C276 1.391 . S
C275 C274 1.386 . S
C275 C279 1.393 . S
C276 H265 0.950 . S
C276 C274 1.391 . S
C276 C277 1.400 . S
C277 C271 1.491 . S
C277 C276 1.400 . S
C277 C278 1.398 . S
C278 H266 0.950 . S
C278 C277 1.398 . S
C278 C279 1.391 . S
C279 H267 0.950 . S
C279 C275 1.393 . S
C279 C278 1.391 . S
H280 C288 0.950 . S
H281 C293 0.950 . S
H282 C290 0.950 . S
H283 C292 0.950 . S
H284 C294 0.950 . S
H285 C296 0.950 . S
H286 C298 0.950 . S
H287 C299 0.950 . S
C288 H280 0.950 . S
C288 C289 1.386 . S
C288 C290 1.391 . S
C289 C288 1.386 . S
C289 C293 1.393 . S
C290 H282 0.950 . S
C290 C288 1.391 . S
C290 C291 1.400 . S
C291 C290 1.400 . S
C291 C292 1.398 . S
C291 C297 1.491 . S
C292 H283 0.950 . S
C292 C291 1.398 . S
C292 C293 1.391 . S
C293 H281 0.950 . S
C293 C289 1.393 . S
C293 C292 1.391 . S
C294 H284 0.950 . S
C294 C295 1.386 . S
C294 C296 1.391 . S
C295 C294 1.386 . S
C295 C299 1.393 . S
C296 H285 0.950 . S
C296 C294 1.391 . S
C296 C297 1.400 . S
C297 C291 1.491 . S
C297 C296 1.400 . S
C297 C298 1.398 . S
C298 H286 0.950 . S
C298 C297 1.398 . S
C298 C299 1.391 . S
C299 H287 0.950 . S
C299 C295 1.393 . S
C299 C298 1.391 . S
H300 C308 0.950 1_455 S
H301 C313 0.950 . S
H302 C310 0.950 1_455 S
H303 C312 0.950 . S
H304 C314 0.950 . S
H305 C316 0.950 . S
H306 C318 0.950 1_455 S
H307 C319 0.950 1_455 S
C308 H300 0.950 1_655 S
C308 C309 1.386 . S
C308 C310 1.391 . S
C309 C308 1.386 . S
C309 C313 1.393 . S
C310 H302 0.950 1_655 S
C310 C308 1.391 . S
C310 C311 1.400 . S
C311 C310 1.400 . S
C311 C312 1.398 . S
C311 C317 1.491 . S
C312 H303 0.950 . S
C312 C311 1.398 . S
C312 C313 1.391 . S
C313 H301 0.950 . S
C313 C309 1.393 . S
C313 C312 1.391 . S
C314 H304 0.950 . S
C314 C315 1.386 . S
C314 C316 1.391 . S
C315 C314 1.386 . S
C315 C319 1.393 . S
C316 H305 0.950 . S
C316 C314 1.391 . S
C316 C317 1.400 . S
C317 C311 1.491 . S
C317 C316 1.400 . S
C317 C318 1.398 . S
C318 H306 0.950 1_655 S
C318 C317 1.398 . S
C318 C319 1.391 . S
C319 H307 0.950 1_655 S
C319 C315 1.393 . S
C319 C318 1.391 . S
H320 C328 0.950 . S
H321 C333 0.950 . S
H322 C330 0.950 . S
H323 C332 0.950 . S
H324 C334 0.950 . S
H325 C336 0.950 . S
H326 C338 0.950 . S
H327 C339 0.950 . S
C328 H320 0.950 . S
C328 C329 1.386 . S
C328 C330 1.391 . S
C329 C328 1.386 . S
C329 C333 1.393 . S
C330 H322 0.950 . S
C330 C328 1.391 . S
C330 C331 1.400 . S
C331 C330 1.400 . S
C331 C332 1.398 . S
C331 C337 1.491 . S
C332 H323 0.950 . S
C332 C331 1.398 . S
C332 C333 1.391 . S
C333 H321 0.950 . S
C333 C329 1.393 . S
C333 C332 1.391 . S
C334 H324 0.950 . S
C334 C335 1.386 . S
C334 C336 1.391 . S
C335 C334 1.386 . S
C335 C339 1.393 . S
C336 H325 0.950 . S
C336 C334 1.391 . S
C336 C337 1.400 . S
C337 C331 1.491 . S
C337 C336 1.400 . S
C337 C338 1.398 . S
C338 H326 0.950 . S
C338 C337 1.398 . S
C338 C339 1.391 . S
C339 H327 0.950 . S
C339 C335 1.393 . S
C339 C338 1.391 . S
H340 C348 0.950 1_556 S
H341 C353 0.950 . S
H342 C350 0.950 1_556 S
H343 C352 0.950 . S
H344 C354 0.950 . S
H345 C356 0.950 . S
H346 C358 0.950 . S
H347 C359 0.950 . S
C348 H340 0.950 1_554 S
C348 C349 1.386 . S
C348 C350 1.391 . S
C349 C348 1.386 . S
C349 C353 1.393 . S
C350 H342 0.950 1_554 S
C350 C348 1.391 . S
C350 C351 1.400 . S
C351 C350 1.400 . S
C351 C352 1.398 . S
C351 C357 1.491 . S
C352 H343 0.950 . S
C352 C351 1.398 . S
C352 C353 1.391 . S
C353 H341 0.950 . S
C353 C349 1.393 . S
C353 C352 1.391 . S
C354 H344 0.950 . S
C354 C355 1.386 . S
C354 C356 1.391 . S
C355 C354 1.386 . S
C355 C359 1.393 . S
C356 H345 0.950 . S
C356 C354 1.391 . S
C356 C357 1.400 . S
C357 C351 1.491 . S
C357 C356 1.400 . S
C357 C358 1.398 . S
C358 H346 0.950 . S
C358 C357 1.398 . S
C358 C359 1.391 . S
C359 H347 0.950 . S
C359 C355 1.393 . S
C359 C358 1.391 . S
H360 C368 0.950 . S
H361 C373 0.950 . S
H362 C370 0.950 . S
H363 C372 0.950 . S
H364 C374 0.950 . S
H365 C376 0.950 . S
H366 C378 0.950 . S
H367 C379 0.950 . S
C368 H360 0.950 . S
C368 C369 1.386 . S
C368 C370 1.391 . S
C369 C368 1.386 . S
C369 C373 1.393 . S
C370 H362 0.950 . S
C370 C368 1.391 . S
C370 C371 1.400 . S
C371 C370 1.400 . S
C371 C372 1.398 . S
C371 C377 1.491 . S
C372 H363 0.950 . S
C372 C371 1.398 . S
C372 C373 1.391 . S
C373 H361 0.950 . S
C373 C369 1.393 . S
C373 C372 1.391 . S
C374 H364 0.950 . S
C374 C375 1.386 . S
C374 C376 1.391 . S
C375 C374 1.386 . S
C375 C379 1.393 . S
C376 H365 0.950 . S
C376 C374 1.391 . S
C376 C377 1.400 . S
C377 C371 1.491 . S
C377 C376 1.400 . S
C377 C378 1.398 . S
C378 H366 0.950 . S
C378 C377 1.398 . S
C378 C379 1.391 . S
C379 H367 0.950 . S
C379 C375 1.393 . S
C379 C378 1.391 . S
H380 C388 0.950 . S
H381 C393 0.950 . S
H382 C390 0.950 . S
H383 C392 0.950 . S
H384 C394 0.950 . S
H385 C396 0.950 . S
H386 C398 0.950 . S
H387 C399 0.950 . S
C388 H380 0.950 . S
C388 C389 1.386 . S
C388 C390 1.391 . S
C389 C388 1.386 . S
C389 C393 1.393 . S
C390 H382 0.950 . S
C390 C388 1.391 . S
C390 C391 1.400 . S
C391 C390 1.400 . S
C391 C392 1.398 . S
C391 C397 1.491 . S
C392 H383 0.950 . S
C392 C391 1.398 . S
C392 C393 1.391 . S
C393 H381 0.950 . S
C393 C389 1.393 . S
C393 C392 1.391 . S
C394 H384 0.950 . S
C394 C395 1.386 . S
C394 C396 1.391 . S
C395 C394 1.386 . S
C395 C399 1.393 . S
C396 H385 0.950 . S
C396 C394 1.391 . S
C396 C397 1.400 . S
C397 C391 1.491 . S
C397 C396 1.400 . S
C397 C398 1.398 . S
C398 H386 0.950 . S
C398 C397 1.398 . S
C398 C399 1.391 . S
C399 H387 0.950 . S
C399 C395 1.393 . S
C399 C398 1.391 . S
H400 C408 0.950 . S
H401 C413 0.950 . S
H402 C410 0.950 . S
H403 C412 0.950 . S
H404 C414 0.950 . S
H405 C416 0.950 . S
H406 C418 0.950 . S
H407 C419 0.950 . S
C408 H400 0.950 . S
C408 C409 1.386 . S
C408 C410 1.391 . S
C409 C408 1.386 . S
C409 C413 1.393 1_556 S
C410 H402 0.950 . S
C410 C408 1.391 . S
C410 C411 1.400 . S
C411 C410 1.400 . S
C411 C412 1.398 1_556 S
C411 C417 1.491 . S
C412 H403 0.950 . S
C412 C411 1.398 1_554 S
C412 C413 1.391 . S
C413 H401 0.950 . S
C413 C409 1.393 1_554 S
C413 C412 1.391 . S
C414 H404 0.950 . S
C414 C415 1.386 1_554 S
C414 C416 1.391 . S
C415 C414 1.386 1_556 S
C415 C419 1.393 . S
C416 H405 0.950 . S
C416 C414 1.391 . S
C416 C417 1.400 1_554 S
C417 C411 1.491 . S
C417 C416 1.400 1_556 S
C417 C418 1.398 . S
C418 H406 0.950 . S
C418 C417 1.398 . S
C418 C419 1.391 . S
C419 H407 0.950 . S
C419 C415 1.393 . S
C419 C418 1.391 . S
C249 C2 1.487 . S
C255 C55 1.500 . S
C269 C42 1.485 . S
C275 C95 1.504 . S
C289 C82 1.503 . S
C295 C135 1.506 . S
C309 C175 1.501 1_545 S
C315 C122 1.477 . S
C329 C162 1.490 . S
C335 C215 1.505 . S
C349 C202 1.497 1_545 S
C355 C15 1.509 . S
C369 C141 1.485 . S
C375 C21 1.494 . S
C389 C61 1.489 . S
C395 C181 1.483 . S
C409 C101 1.502 . S
C415 C221 1.494 . S
