# Generated by pormake.
# Topology ske, (6)-cn, num edge types: 1
# Building blocks:
#     Node 0, Type 0, BuildingBlock: MIFKUJ_clean_sbu_0, # of connection points: 6
#     Node 1, Type 0, BuildingBlock: MIFKUJ_clean_sbu_0, # of connection points: 6
#     Node 2, Type 0, BuildingBlock: MIFKUJ_clean_sbu_0, # of connection points: 6
#     Node 3, Type 0, BuildingBlock: MIFKUJ_clean_sbu_0, # of connection points: 6
#     Node 4, Type 0, BuildingBlock: MIFKUJ_clean_sbu_0, # of connection points: 6
#     Node 5, Type 0, BuildingBlock: MIFKUJ_clean_sbu_0, # of connection points: 6
#     Node 6, Type 0, BuildingBlock: MIFKUJ_clean_sbu_0, # of connection points: 6
#     Node 7, Type 0, BuildingBlock: MIFKUJ_clean_sbu_0, # of connection points: 6
#     Edge 8, Type (0, 0), BuildingBlock: MIFKUJ_clean_linker_0, # of connection points: 2
#     Edge 9, Type (0, 0), BuildingBlock: MIFKUJ_clean_linker_0, # of connection points: 2
#     Edge 10, Type (0, 0), BuildingBlock: MIFKUJ_clean_linker_0, # of connection points: 2
#     Edge 11, Type (0, 0), BuildingBlock: MIFKUJ_clean_linker_0, # of connection points: 2
#     Edge 12, Type (0, 0), BuildingBlock: MIFKUJ_clean_linker_0, # of connection points: 2
#     Edge 13, Type (0, 0), BuildingBlock: MIFKUJ_clean_linker_0, # of connection points: 2
#     Edge 14, Type (0, 0), BuildingBlock: MIFKUJ_clean_linker_0, # of connection points: 2
#     Edge 15, Type (0, 0), BuildingBlock: MIFKUJ_clean_linker_0, # of connection points: 2
#     Edge 16, Type (0, 0), BuildingBlock: MIFKUJ_clean_linker_0, # of connection points: 2
#     Edge 17, Type (0, 0), BuildingBlock: MIFKUJ_clean_linker_0, # of connection points: 2
#     Edge 18, Type (0, 0), BuildingBlock: MIFKUJ_clean_linker_0, # of connection points: 2
#     Edge 19, Type (0, 0), BuildingBlock: MIFKUJ_clean_linker_0, # of connection points: 2
#     Edge 20, Type (0, 0), BuildingBlock: MIFKUJ_clean_linker_0, # of connection points: 2
#     Edge 21, Type (0, 0), BuildingBlock: MIFKUJ_clean_linker_0, # of connection points: 2
#     Edge 22, Type (0, 0), BuildingBlock: MIFKUJ_clean_linker_0, # of connection points: 2
#     Edge 23, Type (0, 0), BuildingBlock: MIFKUJ_clean_linker_0, # of connection points: 2
#     Edge 24, Type (0, 0), BuildingBlock: MIFKUJ_clean_linker_0, # of connection points: 2
#     Edge 25, Type (0, 0), BuildingBlock: MIFKUJ_clean_linker_0, # of connection points: 2
#     Edge 26, Type (0, 0), BuildingBlock: MIFKUJ_clean_linker_0, # of connection points: 2
#     Edge 27, Type (0, 0), BuildingBlock: MIFKUJ_clean_linker_0, # of connection points: 2
#     Edge 28, Type (0, 0), BuildingBlock: MIFKUJ_clean_linker_0, # of connection points: 2
#     Edge 29, Type (0, 0), BuildingBlock: MIFKUJ_clean_linker_0, # of connection points: 2
#     Edge 30, Type (0, 0), BuildingBlock: MIFKUJ_clean_linker_0, # of connection points: 2
#     Edge 31, Type (0, 0), BuildingBlock: MIFKUJ_clean_linker_0, # of connection points: 2
# Relax obj value: 0.133
# Max RMSD: 0.176
# Mean RMSD: 0.154
data_MOF--net-ske--node1-MIFKUJ_clean_sbu_0--edge1-MIFKUJ_clean_linker_0
_symmetry_space_group_name_H-M    P1
_symmetry_Int_Tables_number       1
_symmetry_cell_setting            triclinic
loop_
_symmetry_equiv_pos_as_xyz
'x, y, z'
_cell_length_a     88.919193
_cell_length_b     37.2602
_cell_length_c     21.741002
_cell_angle_alpha  91.066418
_cell_angle_beta   90.021861
_cell_angle_gamma 84.639696
loop_
_atom_site_label
_atom_site_type_symbol
_atom_site_fract_x
_atom_site_fract_y
_atom_site_fract_z
_atom_type_partial_charge
Zn0 Zn 0.14916 0.24172 0.62813 0.0
Zn1 Zn 0.11353 0.25513 0.52144 0.0
C2 C 0.14172 0.27804 0.7439 0.0
O3 O 0.14995 0.30207 0.72091 0.0
C4 C 0.11772 0.24388 0.39222 0.0
O5 O 0.11259 0.21327 0.40725 0.0
O6 O 0.17128 0.23199 0.64693 0.0
O7 O 0.14224 0.19637 0.58862 0.0
O8 O 0.12081 0.20307 0.53423 0.0
C9 C 0.17559 0.21469 0.69464 0.0
O10 O 0.16545 0.20183 0.72996 0.0
O11 O 0.13898 0.2509 0.71079 0.0
C12 C 0.08251 0.2807 0.4943 0.0
O13 O 0.08887 0.29926 0.45236 0.0
O14 O 0.09083 0.26055 0.52961 0.0
O15 O 0.12254 0.28686 0.58291 0.0
O16 O 0.14702 0.28601 0.57683 0.0
O17 O 0.11929 0.26745 0.4343 0.0
C18 C 0.13181 0.18345 0.55731 0.0
C19 C 0.13406 0.30122 0.56473 0.0
Zn20 Zn 0.89175 0.24987 0.51137 0.0
Zn21 Zn 0.85608 0.24669 0.62138 0.0
C22 C 0.8922 0.24684 0.38225 0.0
O23 O 0.90211 0.21985 0.39641 0.0
C24 C 0.85948 0.27733 0.73915 0.0
O25 O 0.84754 0.29699 0.71866 0.0
O26 O 0.9142 0.25328 0.5225 0.0
O27 O 0.88003 0.27842 0.57529 0.0
O28 O 0.85589 0.29266 0.57446 0.0
C29 C 0.92094 0.27513 0.49044 0.0
O30 O 0.91309 0.29587 0.45147 0.0
O31 O 0.88561 0.26555 0.4256 0.0
C32 C 0.82346 0.24365 0.60698 0.0
O33 O 0.82568 0.25122 0.54909 0.0
O34 O 0.83467 0.23963 0.64319 0.0
O35 O 0.86569 0.20121 0.57668 0.0
O36 O 0.88657 0.19846 0.51849 0.0
O37 O 0.86612 0.2534 0.70354 0.0
C38 C 0.86895 0.29988 0.55888 0.0
C39 C 0.87575 0.18354 0.54315 0.0
Zn40 Zn 0.14657 0.73199 0.39956 0.0
Zn41 Zn 0.11313 0.73894 0.50463 0.0
C42 C 0.14009 0.70195 0.2821 0.0
O43 O 0.15012 0.67672 0.30212 0.0
C44 C 0.11432 0.74739 0.63391 0.0
O45 O 0.10587 0.7766 0.61814 0.0
O46 O 0.16866 0.72639 0.37719 0.0
O47 O 0.14228 0.78232 0.43419 0.0
O48 O 0.12083 0.78658 0.48726 0.0
C49 C 0.17312 0.74574 0.33452 0.0
O50 O 0.16335 0.76953 0.30886 0.0
O51 O 0.13582 0.72836 0.31788 0.0
C52 C 0.08295 0.72164 0.52292 0.0
O53 O 0.09017 0.69032 0.53587 0.0
O54 O 0.09048 0.74734 0.50719 0.0
O55 O 0.11812 0.69702 0.44584 0.0
O56 O 0.14291 0.68949 0.45166 0.0
O57 O 0.11948 0.7255 0.59167 0.0
C58 C 0.13187 0.80088 0.46382 0.0
C59 C 0.13021 0.67652 0.45224 0.0
Zn60 Zn 0.85817 0.73557 0.40437 0.0
Zn61 Zn 0.89177 0.73097 0.50516 0.0
C62 C 0.86369 0.74992 0.27966 0.0
O63 O 0.85371 0.7768 0.2952 0.0
C64 C 0.89061 0.70134 0.62817 0.0
O65 O 0.90097 0.67722 0.60562 0.0
O66 O 0.83603 0.73535 0.38474 0.0
O67 O 0.86292 0.69208 0.45761 0.0
O68 O 0.88778 0.68735 0.45349 0.0
C69 C 0.83216 0.70879 0.35276 0.0
O70 O 0.84257 0.68302 0.3363 0.0
O71 O 0.86842 0.72782 0.32091 0.0
C72 C 0.92078 0.75684 0.53055 0.0
O73 O 0.91246 0.78628 0.54788 0.0
O74 O 0.91437 0.72989 0.51039 0.0
O75 O 0.88422 0.78109 0.47946 0.0
O76 O 0.86146 0.78552 0.43643 0.0
O77 O 0.88464 0.72565 0.59303 0.0
C78 C 0.87543 0.6728 0.45296 0.0
C79 C 0.87271 0.79993 0.45895 0.0
Zn80 Zn 0.64779 0.73977 0.12766 0.0
Zn81 Zn 0.61198 0.75023 0.0212 0.0
C82 C 0.64088 0.77303 0.24488 0.0
O83 O 0.65092 0.79395 0.22542 0.0
C84 C 0.61188 0.74329 0.89141 0.0
O85 O 0.60488 0.71535 0.90749 0.0
O86 O 0.66984 0.73353 0.1503 0.0
O87 O 0.64189 0.69346 0.08732 0.0
O88 O 0.62086 0.69875 0.03057 0.0
C89 C 0.67969 0.70947 0.12946 0.0
O90 O 0.67571 0.68569 0.08866 0.0
O91 O 0.63688 0.74828 0.20902 0.0
C92 C 0.58081 0.77616 1.00316 0.0
O93 O 0.58701 0.79785 0.96576 0.0
O94 O 0.58929 0.75331 0.03314 0.0
O95 O 0.62079 0.783 0.0817 0.0
O96 O 0.6452 0.78364 0.07511 0.0
O97 O 0.61637 0.76395 0.93348 0.0
C98 C 0.63203 0.67972 0.05388 0.0
C99 C 0.63209 0.79797 0.06285 0.0
Zn100 Zn 0.39066 0.75094 0.97089 0.0
Zn101 Zn 0.35254 0.74479 0.08587 0.0
C102 C 0.39504 0.74555 0.84119 0.0
O103 O 0.40462 0.71822 0.85678 0.0
C104 C 0.35289 0.76829 0.2094 0.0
O105 O 0.3415 0.78981 0.18902 0.0
O106 O 0.41156 0.76069 1.00151 0.0
O107 O 0.37332 0.77409 0.01694 0.0
O108 O 0.35257 0.79653 0.05817 0.0
C109 C 0.41959 0.78009 0.96984 0.0
O110 O 0.41373 0.79561 0.92048 0.0
O111 O 0.38784 0.76414 0.88295 0.0
C112 C 0.32678 0.70921 0.1237 0.0
O113 O 0.33698 0.69038 0.15661 0.0
O114 O 0.33101 0.73242 0.08691 0.0
O115 O 0.36695 0.70786 0.03713 0.0
O116 O 0.3873 0.69828 0.97776 0.0
O117 O 0.35967 0.74532 0.17269 0.0
C118 C 0.36415 0.80152 0.027 0.0
C119 C 0.37624 0.68637 0.00615 0.0
Zn120 Zn 0.6461 0.23392 0.8995 0.0
Zn121 Zn 0.61288 0.24242 0.99853 0.0
C122 C 0.63916 0.2229 0.77505 0.0
O123 O 0.6476 0.19333 0.78895 0.0
C124 C 0.61532 0.26966 0.12412 0.0
O125 O 0.60655 0.29691 0.10259 0.0
O126 O 0.66811 0.22975 0.87794 0.0
O127 O 0.64355 0.2751 0.96161 0.0
O128 O 0.61892 0.28521 0.95214 0.0
C129 C 0.67292 0.2566 0.85151 0.0
O130 O 0.66352 0.28538 0.84239 0.0
O131 O 0.63582 0.24626 0.81764 0.0
C132 C 0.58281 0.22303 0.01849 0.0
O133 O 0.59003 0.19145 0.02972 0.0
O134 O 0.59026 0.24902 1.00368 0.0
O135 O 0.61838 0.19195 0.96592 0.0
O136 O 0.64118 0.18451 0.92344 0.0
O137 O 0.62004 0.24401 0.08745 0.0
C138 C 0.63168 0.29679 0.96201 0.0
C139 C 0.62935 0.17177 0.94297 0.0
Zn140 Zn 0.35696 0.23532 0.93967 0.0
Zn141 Zn 0.39153 0.2359 0.04446 0.0
C142 C 0.37312 0.24436 0.82443 0.0
O143 O 0.37425 0.27703 0.8466 0.0
C144 C 0.38423 0.20617 0.16587 0.0
O145 O 0.38306 0.17555 0.13615 0.0
O146 O 0.3347 0.23418 0.92362 0.0
O147 O 0.36229 0.19638 1.00105 0.0
O148 O 0.3871 0.19002 1.00056 0.0
C149 C 0.32907 0.24514 0.8728 0.0
O150 O 0.33778 0.25887 0.8324 0.0
O151 O 0.36705 0.22176 0.85737 0.0
C152 C 0.42084 0.26349 0.05371 0.0
O153 O 0.41308 0.29276 0.07528 0.0
O154 O 0.41392 0.23658 0.03728 0.0
O155 O 0.38206 0.28394 0.01575 0.0
O156 O 0.36039 0.28641 0.96418 0.0
O157 O 0.38731 0.23366 0.13612 0.0
C158 C 0.37459 0.17671 0.99329 0.0
C159 C 0.37099 0.30177 0.98995 0.0
H160 H 0.18785 0.19046 0.80326 0.0
H161 H 0.21414 0.19042 0.83642 0.0
H162 H 0.2259 0.23253 0.66115 0.0
H163 H 0.19966 0.23259 0.62752 0.0
H164 H 0.24718 0.17864 0.70262 0.0
H165 H 0.21959 0.28868 0.78073 0.0
H166 H 0.19882 0.32247 0.83854 0.0
H167 H 0.21322 0.26791 1.00363 0.0
H168 H 0.23397 0.23342 0.94654 0.0
H169 H 0.31482 0.25692 0.76279 0.0
H170 H 0.28885 0.24686 0.73631 0.0
H171 H 0.28133 0.21225 0.92112 0.0
H172 H 0.30734 0.22241 0.94821 0.0
H173 H 0.25786 0.25746 0.88089 0.0
H174 H 0.28628 0.15097 0.80909 0.0
H175 H 0.30664 0.11393 0.75435 0.0
H176 H 0.29063 0.15714 0.5821 0.0
H177 H 0.27031 0.19498 0.63595 0.0
C178 C 0.19605 0.19933 0.7715 0.0
C179 C 0.19166 0.21176 0.71289 0.0
C180 C 0.21106 0.19937 0.79059 0.0
C181 C 0.22191 0.21179 0.75139 0.0
C182 C 0.21768 0.22286 0.69204 0.0
C183 C 0.20267 0.22302 0.67303 0.0
C184 C 0.23751 0.21507 0.77308 0.0
C185 C 0.24956 0.1961 0.74121 0.0
C186 C 0.24052 0.23699 0.82467 0.0
C187 C 0.22825 0.25827 0.85927 0.0
C188 C 0.21828 0.28377 0.82929 0.0
C189 C 0.20653 0.30307 0.86194 0.0
C190 C 0.20471 0.29734 0.92472 0.0
C191 C 0.21466 0.27236 0.95502 0.0
C192 C 0.22643 0.25294 0.92255 0.0
C193 C 0.30764 0.24733 0.79796 0.0
C194 C 0.31315 0.24042 0.85761 0.0
C195 C 0.29282 0.24141 0.78263 0.0
C196 C 0.28322 0.22843 0.82659 0.0
C197 C 0.28858 0.22219 0.88652 0.0
C198 C 0.30344 0.22795 0.90185 0.0
C199 C 0.26759 0.2215 0.80974 0.0
C200 C 0.25553 0.23978 0.84254 0.0
C201 C 0.26457 0.1986 0.75943 0.0
C202 C 0.27683 0.17607 0.72668 0.0
C203 C 0.28718 0.15286 0.7596 0.0
C204 C 0.2987 0.13166 0.72872 0.0
C205 C 0.29993 0.13318 0.6648 0.0
C206 C 0.28964 0.15594 0.63162 0.0
C207 C 0.27812 0.1773 0.66231 0.0
H208 H 0.30884 0.11668 0.64099 0.0
H209 H 0.19557 0.31222 0.94988 0.0
H210 H 0.69514 0.20106 0.86134 0.0
H211 H 0.7209 0.19806 0.82089 0.0
H212 H 0.71175 0.30466 0.74751 0.0
H213 H 0.68611 0.3082 0.78877 0.0
H214 H 0.73124 0.20063 0.70502 0.0
H215 H 0.74346 0.34761 0.75386 0.0
H216 H 0.73535 0.39743 0.82635 0.0
H217 H 0.72608 0.32114 0.96371 0.0
H218 H 0.7343 0.27089 0.89233 0.0
H219 H 0.79681 0.24594 0.54298 0.0
H220 H 0.77125 0.24683 0.58554 0.0
H221 H 0.78966 0.24042 0.76897 0.0
H222 H 0.81515 0.23943 0.72715 0.0
H223 H 0.76592 0.29318 0.75937 0.0
H224 H 0.77747 0.16775 0.70585 0.0
H225 H 0.78535 0.11623 0.63665 0.0
H226 H 0.74785 0.14569 0.51763 0.0
H227 H 0.73986 0.19771 0.58573 0.0
C228 C 0.69864 0.22395 0.83689 0.0
C229 C 0.68861 0.25493 0.82848 0.0
C230 C 0.71333 0.22211 0.81355 0.0
C231 C 0.71826 0.25122 0.78159 0.0
C232 C 0.70824 0.28208 0.77279 0.0
C233 C 0.69358 0.28401 0.7963 0.0
C234 C 0.7339 0.24928 0.75745 0.0
C235 C 0.73882 0.22087 0.71687 0.0
C236 C 0.74381 0.27553 0.77338 0.0
C237 C 0.73938 0.30552 0.81754 0.0
C238 C 0.73979 0.34148 0.79968 0.0
C239 C 0.73515 0.36979 0.84053 0.0
C240 C 0.73016 0.36245 0.89953 0.0
C241 C 0.7299 0.32679 0.91794 0.0
C242 C 0.73454 0.29839 0.87728 0.0
C243 C 0.79542 0.24453 0.59233 0.0
C244 C 0.80801 0.24255 0.63164 0.0
C245 C 0.78082 0.24501 0.61654 0.0
C246 C 0.77861 0.24366 0.68037 0.0
C247 C 0.79115 0.2416 0.71961 0.0
C248 C 0.80571 0.24084 0.69551 0.0
C249 C 0.76321 0.24468 0.7066 0.0
C250 C 0.75832 0.27299 0.74745 0.0
C251 C 0.75339 0.21811 0.69149 0.0
C252 C 0.75816 0.18683 0.65055 0.0
C253 C 0.77098 0.16342 0.66464 0.0
C254 C 0.77545 0.1341 0.62568 0.0
C255 C 0.76713 0.12775 0.57269 0.0
C256 C 0.75429 0.15067 0.55864 0.0
C257 C 0.74978 0.18006 0.59743 0.0
H258 H 0.77061 0.10503 0.54259 0.0
H259 H 0.72651 0.3844 0.93098 0.0
H260 H 0.31373 0.66441 0.20194 0.0
H261 H 0.28721 0.6677 0.23314 0.0
H262 H 0.2765 0.75439 0.10709 0.0
H263 H 0.30297 0.75144 0.07579 0.0
H264 H 0.26574 0.77101 0.22213 0.0
H265 H 0.26501 0.67233 0.07756 0.0
H266 H 0.27357 0.61296 0.03149 0.0
H267 H 0.26413 0.5617 0.20062 0.0
H268 H 0.25571 0.62085 0.24802 0.0
H269 H 0.18602 0.78287 0.2445 0.0
H270 H 0.21194 0.77389 0.20623 0.0
H271 H 0.22186 0.68797 0.33446 0.0
H272 H 0.19588 0.69661 0.37294 0.0
H273 H 0.23302 0.67016 0.219 0.0
H274 H 0.23413 0.7679 0.36423 0.0
H275 H 0.22581 0.82693 0.41208 0.0
H276 H 0.23492 0.87959 0.24392 0.0
H277 H 0.24309 0.82077 0.19475 0.0
C278 C 0.3057 0.6838 0.18012 0.0
C279 C 0.31049 0.70775 0.13653 0.0
C280 C 0.29053 0.6856 0.19795 0.0
C281 C 0.27989 0.7113 0.17241 0.0
C282 C 0.28455 0.73443 0.12747 0.0
C283 C 0.29968 0.73257 0.10945 0.0
C284 C 0.26409 0.71558 0.19521 0.0
C285 C 0.2585 0.74911 0.22055 0.0
C286 C 0.25483 0.68668 0.19492 0.0
C287 C 0.25988 0.65107 0.16653 0.0
C288 C 0.26489 0.64843 0.10511 0.0
C289 C 0.26969 0.61481 0.07872 0.0
C290 C 0.26943 0.58359 0.11316 0.0
C291 C 0.26434 0.58591 0.17403 0.0
C292 C 0.25954 0.61948 0.20066 0.0
C293 C 0.19371 0.76213 0.2648 0.0
C294 C 0.18891 0.74062 0.31211 0.0
C295 C 0.20853 0.75707 0.24287 0.0
C296 C 0.21886 0.73049 0.26791 0.0
C297 C 0.21407 0.70866 0.31459 0.0
C298 C 0.19924 0.71376 0.3367 0.0
C299 C 0.23467 0.72566 0.24541 0.0
C300 C 0.24026 0.69205 0.22038 0.0
C301 C 0.24398 0.75444 0.24621 0.0
C302 C 0.23907 0.78988 0.27561 0.0
C303 C 0.23423 0.79203 0.33727 0.0
C304 C 0.22957 0.82546 0.36467 0.0
C305 C 0.2298 0.85698 0.33101 0.0
C306 C 0.23473 0.85514 0.26991 0.0
C307 C 0.23939 0.82176 0.24226 0.0
H308 H 0.22619 0.88284 0.35231 0.0
H309 H 0.27315 0.55758 0.09264 0.0
H310 H 0.70374 0.66128 0.09726 0.0
H311 H 0.72975 0.66005 0.13474 0.0
H312 H 0.71731 0.75383 0.24941 0.0
H313 H 0.6914 0.75553 0.21186 0.0
H314 H 0.74342 0.75995 0.18921 0.0
H315 H 0.72213 0.67025 0.31048 0.0
H316 H 0.70913 0.61559 0.32699 0.0
H317 H 0.74415 0.55189 0.22755 0.0
H318 H 0.75726 0.60629 0.20972 0.0
H319 H 0.80754 0.75567 0.3823 0.0
H320 H 0.78171 0.7544 0.34427 0.0
H321 H 0.79535 0.65848 0.23651 0.0
H322 H 0.82111 0.65912 0.27523 0.0
H323 H 0.76887 0.6526 0.29068 0.0
H324 H 0.79039 0.74122 0.17008 0.0
H325 H 0.8036 0.79545 0.15255 0.0
H326 H 0.76838 0.86071 0.24818 0.0
H327 H 0.75506 0.80675 0.26707 0.0
C328 C 0.70654 0.68164 0.13044 0.0
C329 C 0.69548 0.70845 0.15162 0.0
C330 C 0.7214 0.68082 0.15199 0.0
C331 C 0.72544 0.70667 0.19529 0.0
C332 C 0.71445 0.73363 0.21601 0.0
C333 C 0.69962 0.73447 0.19458 0.0
C334 C 0.74112 0.70591 0.21894 0.0
C335 C 0.74893 0.73664 0.21206 0.0
C336 C 0.74843 0.67516 0.24731 0.0
C337 C 0.74059 0.6424 0.25822 0.0
C338 C 0.727 0.64464 0.29171 0.0
C339 C 0.71962 0.61369 0.30139 0.0
C340 C 0.72579 0.5803 0.27819 0.0
C341 C 0.73937 0.57778 0.24541 0.0
C342 C 0.74679 0.60865 0.23555 0.0
C343 C 0.80503 0.73424 0.35068 0.0
C344 C 0.81639 0.70759 0.33161 0.0
C345 C 0.79027 0.73362 0.32878 0.0
C346 C 0.78664 0.70662 0.28684 0.0
C347 C 0.79789 0.67959 0.26874 0.0
C348 C 0.81263 0.68007 0.29085 0.0
C349 C 0.77114 0.70675 0.26135 0.0
C350 C 0.76338 0.6759 0.26777 0.0
C351 C 0.76388 0.73734 0.23226 0.0
C352 C 0.7718 0.76989 0.22048 0.0
C353 C 0.78551 0.7671 0.18774 0.0
C354 C 0.79301 0.79779 0.17751 0.0
C355 C 0.78685 0.83149 0.19937 0.0
C356 C 0.77315 0.83458 0.23134 0.0
C357 C 0.76561 0.80395 0.24178 0.0
H358 H 0.79268 0.85522 0.19142 0.0
H359 H 0.72006 0.55637 0.28573 0.0
H360 H 0.15553 0.8404 0.43797 0.0
H361 H 0.15639 0.9056 0.45117 0.0
H362 H 0.11059 0.91559 0.51889 0.0
H363 H 0.1096 0.8506 0.50635 0.0
H364 H 0.1165 0.96667 0.42865 0.0
H365 H 0.13788 0.91771 0.61857 0.0
H366 H 0.15604 0.87837 0.67852 0.0
H367 H 0.19288 0.92864 0.59976 0.0
H368 H 0.17493 0.96797 0.53869 0.0
H369 H 0.10821 0.1422 0.55333 0.0
H370 H 0.10912 0.07708 0.53656 0.0
H371 H 0.15766 0.07143 0.51817 0.0
H372 H 0.15682 0.13634 0.53953 0.0
H373 H 0.15161 0.01737 0.57721 0.0
H374 H 0.13174 0.06768 0.39025 0.0
H375 H 0.11464 0.1071 0.32591 0.0
H376 H 0.07671 0.05455 0.38915 0.0
H377 H 0.09356 0.01514 0.45454 0.0
C378 C 0.14563 0.85646 0.45564 0.0
C379 C 0.13251 0.84027 0.47127 0.0
C380 C 0.14616 0.89365 0.46324 0.0
C381 C 0.13357 0.91525 0.48618 0.0
C382 C 0.12041 0.8993 0.50105 0.0
C383 C 0.11991 0.86214 0.49408 0.0
C384 C 0.13406 0.95454 0.49524 0.0
C385 C 0.12407 0.97788 0.46143 0.0
C386 C 0.14431 0.96894 0.53649 0.0
C387 C 0.15508 0.94551 0.57361 0.0
C388 C 0.14986 0.92018 0.61368 0.0
C389 C 0.16011 0.89792 0.64793 0.0
C390 C 0.17561 0.90094 0.64283 0.0
C391 C 0.18088 0.9263 0.6036 0.0
C392 C 0.17067 0.94859 0.56921 0.0
C393 C 0.11906 0.12696 0.54579 0.0
C394 C 0.13244 0.14416 0.54734 0.0
C395 C 0.11958 0.08979 0.5357 0.0
C396 C 0.13343 0.06933 0.52432 0.0
C397 C 0.14683 0.08655 0.52655 0.0
C398 C 0.14635 0.12361 0.53861 0.0
C399 C 0.13392 0.02996 0.51092 0.0
C400 C 0.1441 0.00645 0.54388 0.0
C401 C 0.12404 0.01542 0.46784 0.0
C402 C 0.11391 0.03862 0.42763 0.0
C403 C 0.11975 0.06463 0.39063 0.0
C404 C 0.1101 0.08697 0.35397 0.0
C405 C 0.0946 0.08337 0.35352 0.0
C406 C 0.08872 0.05732 0.38956 0.0
C407 C 0.09831 0.03494 0.42637 0.0
H408 H 0.08714 0.10072 0.32519 0.0
H409 H 0.18353 0.88368 0.66937 0.0
H410 H 0.84748 0.34759 0.50816 0.0
H411 H 0.85068 0.40832 0.47341 0.0
H412 H 0.89866 0.39043 0.50566 0.0
H413 H 0.89545 0.32991 0.54204 0.0
H414 H 0.88729 0.45071 0.56108 0.0
H415 H 0.88513 0.40138 0.35902 0.0
H416 H 0.87541 0.36589 0.27365 0.0
H417 H 0.83352 0.43333 0.27818 0.0
H418 H 0.843 0.46925 0.36387 0.0
H419 H 0.90019 0.62341 0.45533 0.0
H420 H 0.90066 0.55782 0.45707 0.0
H421 H 0.85203 0.56611 0.44737 0.0
H422 H 0.85141 0.63189 0.44507 0.0
H423 H 0.86591 0.50961 0.37339 0.0
H424 H 0.86858 0.55604 0.58238 0.0
H425 H 0.87953 0.59172 0.66491 0.0
H426 H 0.92203 0.52777 0.64438 0.0
H427 H 0.91141 0.49214 0.56091 0.0
C428 C 0.85876 0.3563 0.50669 0.0
C429 C 0.87122 0.33393 0.5278 0.0
C430 C 0.86059 0.391 0.4865 0.0
C431 C 0.87493 0.40394 0.48671 0.0
C432 C 0.88749 0.38102 0.50507 0.0
C433 C 0.88566 0.34631 0.52534 0.0
C434 C 0.87649 0.44241 0.47382 0.0
C435 C 0.8829 0.46338 0.51941 0.0
C436 C 0.87051 0.45914 0.42003 0.0
C437 C 0.86474 0.43783 0.36823 0.0
C438 C 0.87381 0.40851 0.34211 0.0
C439 C 0.86834 0.38832 0.2936 0.0
C440 C 0.85381 0.39719 0.27069 0.0
C441 C 0.84476 0.42644 0.29603 0.0
C442 C 0.8502 0.44681 0.34447 0.0
C443 C 0.88958 0.61136 0.45308 0.0
C444 C 0.87575 0.63296 0.45077 0.0
C445 C 0.88989 0.57384 0.45404 0.0
C446 C 0.87638 0.55716 0.45292 0.0
C447 C 0.86258 0.57849 0.44825 0.0
C448 C 0.86225 0.61608 0.4474 0.0
C449 C 0.87659 0.51768 0.46084 0.0
C450 C 0.87046 0.49668 0.41458 0.0
C451 C 0.88296 0.50078 0.51379 0.0
C452 C 0.88924 0.52166 0.56497 0.0
C453 C 0.88029 0.54974 0.5952 0.0
C454 C 0.88643 0.56995 0.64216 0.0
C455 C 0.90147 0.56207 0.65977 0.0
C456 C 0.91039 0.53388 0.63062 0.0
C457 C 0.90431 0.51366 0.58349 0.0
H458 H 0.90621 0.57777 0.69609 0.0
H459 H 0.84959 0.38146 0.23319 0.0
H460 H 0.84801 0.84992 0.45722 0.0
H461 H 0.84766 0.91536 0.47055 0.0
H462 H 0.89632 0.90531 0.48259 0.0
H463 H 0.89668 0.84001 0.47178 0.0
H464 H 0.88602 0.94957 0.56643 0.0
H465 H 0.87578 0.93749 0.35093 0.0
H466 H 0.86239 0.91747 0.25896 0.0
H467 H 0.82139 0.97672 0.32213 0.0
H468 H 0.83449 -0.00329 0.41495 0.0
H469 H 0.89843 0.13258 0.5079 0.0
H470 H 0.89692 0.06769 0.49289 0.0
H471 H 0.84955 0.08101 0.53882 0.0
H472 H 0.85099 0.14584 0.55521 0.0
H473 H 0.8582 0.03643 0.42725 0.0
H474 H 0.86989 0.04905 0.64295 0.0
H475 H 0.8845 0.06975 0.73102 0.0
H476 H 0.92455 0.00956 0.66068 0.0
H477 H 0.91022 0.98895 0.57162 0.0
C478 C 0.85863 0.86172 0.46238 0.0
C479 C 0.87237 0.83974 0.46359 0.0
C480 C 0.85843 0.89918 0.46974 0.0
C481 C 0.87198 0.91548 0.47695 0.0
C482 C 0.8857 0.89351 0.47739 0.0
C483 C 0.88589 0.85611 0.47108 0.0
C484 C 0.87196 0.95525 0.48565 0.0
C485 C 0.88008 0.96843 0.53538 0.0
C486 C 0.86398 0.98014 0.44606 0.0
C487 C 0.85608 0.96828 0.3902 0.0
C488 C 0.86388 0.94603 0.34543 0.0
C489 C 0.85635 0.93472 0.29312 0.0
C490 C 0.84104 0.94573 0.2848 0.0
C491 C 0.83324 0.96816 0.3287 0.0
C492 C 0.84072 0.97952 0.38114 0.0
C493 C 0.88768 0.12174 0.51474 0.0
C494 C 0.87485 0.14435 0.53304 0.0
C495 C 0.88685 0.08468 0.5062 0.0
C496 C 0.87313 0.06966 0.51486 0.0
C497 C 0.86023 0.09217 0.53188 0.0
C498 C 0.8611 0.12914 0.54153 0.0
C499 C 0.87236 0.03027 0.5073 0.0
C500 C 0.8641 0.01733 0.45803 0.0
C501 C 0.88039 0.00555 0.54664 0.0
C502 C 0.88901 0.01778 0.60028 0.0
C503 C 0.88184 0.04051 0.64595 0.0
C504 C 0.89007 0.05217 0.69611 0.0
C505 C 0.90545 0.04106 0.70136 0.0
C506 C 0.91264 0.01819 0.65651 0.0
C507 C 0.90447 0.00649 0.6062 0.0
H508 H 0.9118 0.05011 0.74024 0.0
H509 H 0.83522 0.93694 0.24426 0.0
H510 H 0.15385 0.62394 0.45464 0.0
H511 H 0.15259 0.55884 0.45991 0.0
H512 H 0.10392 0.57464 0.46125 0.0
H513 H 0.10503 0.63976 0.45601 0.0
H514 H 0.11494 0.52868 0.55004 0.0
H515 H 0.12162 0.54259 0.33442 0.0
H516 H 0.13361 0.5638 0.24134 0.0
H517 H 0.1751 0.50153 0.28649 0.0
H518 H 0.16343 0.48042 0.38049 0.0
H519 H 0.10795 0.34197 0.53502 0.0
H520 H 0.10548 0.40425 0.49998 0.0
H521 H 0.15401 0.40349 0.49448 0.0
H522 H 0.1566 0.3412 0.52863 0.0
H523 H 0.14059 0.44169 0.39956 0.0
H524 H 0.13505 0.4346 0.62026 0.0
H525 H 0.12363 0.41425 0.71534 0.0
H526 H 0.08037 0.46465 0.66106 0.0
H527 H 0.09151 0.48484 0.56515 0.0
C528 C 0.14287 0.61361 0.45593 0.0
C529 C 0.12954 0.63708 0.45508 0.0
C530 C 0.14218 0.57639 0.45858 0.0
C531 C 0.12816 0.56197 0.46034 0.0
C532 C 0.11484 0.58527 0.45976 0.0
C533 C 0.11551 0.62248 0.45681 0.0
C534 C 0.12744 0.5226 0.46504 0.0
C535 C 0.12029 0.50967 0.51649 0.0
C536 C 0.13466 0.49788 0.42176 0.0
C537 C 0.14167 0.51014 0.36482 0.0
C538 C 0.13333 0.53362 0.32477 0.0
C539 C 0.14007 0.5456 0.2718 0.0
C540 C 0.15512 0.53407 0.25807 0.0
C541 C 0.16344 0.51046 0.29721 0.0
C542 C 0.15677 0.49845 0.35033 0.0
C543 C 0.1181 0.35488 0.52544 0.0
C544 C 0.13247 0.3369 0.53563 0.0
C545 C 0.11666 0.39044 0.50543 0.0
C546 C 0.12957 0.40862 0.4957 0.0
C547 C 0.14391 0.38996 0.50192 0.0
C548 C 0.14536 0.35441 0.52177 0.0
C549 C 0.12823 0.44788 0.48485 0.0
C550 C 0.13504 0.46077 0.43247 0.0
C551 C 0.12075 0.47266 0.52737 0.0
C552 C 0.11407 0.46086 0.58526 0.0
C553 C 0.12308 0.44111 0.62841 0.0
C554 C 0.11666 0.42964 0.68246 0.0
C555 C 0.10127 0.43806 0.69415 0.0
C556 C 0.09228 0.45808 0.65188 0.0
C557 C 0.09864 0.46955 0.59768 0.0
H558 H 0.09632 0.42915 0.73602 0.0
H559 H 0.16031 0.54339 0.21705 0.0
H560 H 0.61352 0.64057 0.98434 0.0
H561 H 0.61517 0.57535 0.96884 0.0
H562 H 0.65525 0.56371 0.08115 0.0
H563 H 0.6538 0.62916 0.09672 0.0
H564 H 0.65737 0.51898 0.9763 0.0
H565 H 0.62267 0.54811 0.14362 0.0
H566 H 0.60059 0.58125 0.19409 0.0
H567 H 0.57143 0.54219 0.05562 0.0
H568 H 0.59338 0.50917 0.00386 0.0
H569 H 0.65484 0.32981 0.01451 0.0
H570 H 0.65626 0.39446 0.03179 0.0
H571 H 0.61263 0.41641 0.94616 0.0
H572 H 0.61087 0.35188 0.9315 0.0
H573 H 0.61355 0.45605 0.04305 0.0
H574 H 0.64784 0.42814 0.87328 0.0
H575 H 0.66968 0.39502 0.82106 0.0
H576 H 0.69936 0.43171 0.9597 0.0
H577 H 0.67765 0.46463 0.0133 0.0
C578 C 0.62274 0.62428 0.00566 0.0
C579 C 0.63344 0.64019 0.04234 0.0
C580 C 0.62366 0.58696 0.99672 0.0
C581 C 0.63523 0.56471 0.02448 0.0
C582 C 0.64622 0.58044 0.05944 0.0
C583 C 0.64532 0.61785 0.06848 0.0
C584 C 0.6354 0.52497 0.01895 0.0
C585 C 0.64789 0.50506 0.99152 0.0
C586 C 0.62292 0.50702 0.03801 0.0
C587 C 0.60968 0.5264 0.06962 0.0
C588 C 0.61156 0.54676 0.12374 0.0
C589 C 0.59907 0.5655 0.1526 0.0
C590 C 0.58462 0.56389 0.12801 0.0
C591 C 0.58263 0.54343 0.0746 0.0
C592 C 0.59509 0.52466 0.04553 0.0
C593 C 0.64558 0.34847 0.99931 0.0
C594 C 0.63275 0.33581 0.97157 0.0
C595 C 0.64643 0.38544 0.00889 0.0
C596 C 0.63466 0.41043 0.98941 0.0
C597 C 0.62186 0.39771 0.96165 0.0
C598 C 0.62087 0.3608 0.95317 0.0
C599 C 0.63538 0.44983 0.99898 0.0
C600 C 0.62307 0.46978 0.02765 0.0
C601 C 0.64799 0.46773 0.98055 0.0
C602 C 0.66109 0.44858 0.94763 0.0
C603 C 0.65901 0.429 0.89282 0.0
C604 C 0.67136 0.41026 0.86296 0.0
C605 C 0.68589 0.41118 0.88714 0.0
C606 C 0.68809 0.43098 0.94108 0.0
C607 C 0.67577 0.44971 0.97119 0.0
H608 H 0.69544 0.39661 0.86403 0.0
H609 H 0.57496 0.57845 0.15038 0.0
H610 H 0.39002 0.82608 0.98295 0.0
H611 H 0.39377 0.88816 0.95502 0.0
H612 H 0.34649 0.91963 0.98788 0.0
H613 H 0.34271 0.8579 0.01519 0.0
H614 H 0.35763 0.9547 0.88779 0.0
H615 H 0.37092 0.92834 0.10088 0.0
H616 H 0.38517 0.89396 0.18135 0.0
H617 H 0.42692 0.92097 0.1033 0.0
H618 H 0.4129 0.95508 0.02181 0.0
H619 H 0.35017 0.13703 0.98662 0.0
H620 H 0.35036 0.07177 0.9729 0.0
H621 H 0.39899 0.06216 0.9597 0.0
H622 H 0.39893 0.12725 0.97466 0.0
H623 H 0.3903 0.01427 0.0356 0.0
H624 H 0.37688 0.0497 0.83272 0.0
H625 H 0.36269 0.08462 0.75282 0.0
H626 H 0.32182 0.04132 0.80822 0.0
H627 H 0.33572 0.00651 0.88915 0.0
C628 C 0.3804 0.84607 0.98257 0.0
C629 C 0.36613 0.83724 1.00153 0.0
C630 C 0.38254 0.88151 0.9669 0.0
C631 C 0.37041 0.90853 0.96993 0.0
C632 C 0.35598 0.8992 0.98512 0.0
C633 C 0.35387 0.86395 1.00112 0.0
C634 C 0.37289 0.94712 0.96436 0.0
C635 C 0.36476 0.96783 0.91998 0.0
C636 C 0.38246 0.964 0.00556 0.0
C637 C 0.39088 0.94389 0.05492 0.0
C638 C 0.38314 0.92673 0.10067 0.0
C639 C 0.39118 0.90731 0.14646 0.0
C640 C 0.40695 0.90517 0.1473 0.0
C641 C 0.41471 0.92256 0.10247 0.0
C642 C 0.40673 0.94195 0.0565 0.0
C643 C 0.3609 0.12108 0.98047 0.0
C644 C 0.37454 0.13738 0.98211 0.0
C645 C 0.36099 0.08377 0.97217 0.0
C646 C 0.37469 0.06207 0.96459 0.0
C647 C 0.38829 0.07834 0.96538 0.0
C648 C 0.38822 0.1156 0.97393 0.0
C649 C 0.37484 0.02224 0.95957 0.0
C650 C 0.38342 0.00124 1.00227 0.0
C651 C 0.36574 0.00518 0.91657 0.0
C652 C 0.35734 0.02566 0.86735 0.0
C653 C 0.36485 0.04777 0.82815 0.0
C654 C 0.35686 0.06753 0.78263 0.0
C655 C 0.34136 0.06523 0.77551 0.0
C656 C 0.33383 0.04307 0.8138 0.0
C657 C 0.34176 0.02327 0.85946 0.0
H658 H 0.33519 0.08057 0.74026 0.0
H659 H 0.41315 0.89012 0.18279 0.0
H660 H 0.34613 0.35086 0.98406 0.0
H661 H 0.34553 0.41665 0.98898 0.0
H662 H 0.39423 0.40808 0.99907 0.0
H663 H 0.39479 0.34252 0.99743 0.0
H664 H 0.38435 0.45625 0.07543 0.0
H665 H 0.37267 0.43296 0.86368 0.0
H666 H 0.35869 0.40828 0.77709 0.0
H667 H 0.31803 0.47022 0.83727 0.0
H668 H 0.33174 0.49491 0.92473 0.0
H669 H 0.39765 0.63159 0.97567 0.0
H670 H 0.39509 0.56679 0.97534 0.0
H671 H 0.34864 0.58749 0.03281 0.0
H672 H 0.35117 0.65254 0.03461 0.0
H673 H 0.35563 0.5351 0.92628 0.0
H674 H 0.36944 0.56038 0.13663 0.0
H675 H 0.38511 0.58573 0.21712 0.0
H676 H 0.42408 0.5198 0.15022 0.0
H677 H 0.40867 0.49445 0.06869 0.0
C678 C 0.35669 0.36309 0.98718 0.0
C679 C 0.3705 0.34156 0.99051 0.0
C680 C 0.35635 0.40072 0.98965 0.0
C681 C 0.36985 0.41754 0.99358 0.0
C682 C 0.38365 0.39591 0.99633 0.0
C683 C 0.38396 0.35838 0.99527 0.0
C684 C 0.36972 0.45755 0.99611 0.0
C685 C 0.37818 0.47331 0.04227 0.0
C686 C 0.36145 0.48018 0.95376 0.0
C687 C 0.35319 0.46547 0.90112 0.0
C688 C 0.36072 0.44111 0.8587 0.0
C689 C 0.35285 0.42716 0.80943 0.0
C690 C 0.33747 0.4376 0.80179 0.0
C691 C 0.32994 0.46211 0.84331 0.0
C692 C 0.33776 0.47611 0.89271 0.0
C693 C 0.38687 0.62242 0.9882 0.0
C694 C 0.37462 0.64719 0.00532 0.0
C695 C 0.38545 0.58541 0.98804 0.0
C696 C 0.37169 0.5725 0.00411 0.0
C697 C 0.35934 0.59706 0.02022 0.0
C698 C 0.36083 0.63413 0.02147 0.0
C699 C 0.37039 0.53321 0.00478 0.0
C700 C 0.36169 0.51777 0.95939 0.0
C701 C 0.37867 0.51076 0.04693 0.0
C702 C 0.38793 0.52578 0.09621 0.0
C703 C 0.38137 0.55153 0.13874 0.0
C704 C 0.39021 0.56584 0.18462 0.0
C705 C 0.40559 0.55445 0.18869 0.0
C706 C 0.41217 0.52863 0.14698 0.0
C707 C 0.40339 0.51426 0.10096 0.0
H708 H 0.41241 0.56556 0.22425 0.0
H709 H 0.3314 0.42676 0.76362 0.0
H710 H 0.60445 0.13561 0.96173 0.0
H711 H 0.60326 0.07065 0.96706 0.0
H712 H 0.65089 0.05322 0.92661 0.0
H713 H 0.65217 0.11839 0.92022 0.0
H714 H 0.63495 0.00332 0.86771 0.0
H715 H 0.63861 0.05253 0.07363 0.0
H716 H 0.63094 0.09388 0.16028 0.0
H717 H 0.58723 0.05371 0.16319 0.0
H718 H 0.59458 0.01245 0.07597 0.0
H719 H 0.65378 0.83436 0.00936 0.0
H720 H 0.65106 0.8961 0.97233 0.0
H721 H 0.60333 0.90367 0.0119 0.0
H722 H 0.60592 0.84179 0.04895 0.0
H723 H 0.61751 0.95813 0.06625 0.0
H724 H 0.6136 0.90758 0.86499 0.0
H725 H 0.62041 0.86667 0.77725 0.0
H726 H 0.66387 0.90771 0.766 0.0
H727 H 0.65722 0.94924 0.8537 0.0
C728 C 0.61468 0.11805 0.95375 0.0
C729 C 0.62846 0.13227 0.94161 0.0
C730 C 0.61397 0.08088 0.9567 0.0
C731 C 0.62704 0.05716 0.9483 0.0
C732 C 0.64068 0.0711 0.93343 0.0
C733 C 0.64139 0.10835 0.93006 0.0
C734 C 0.62664 0.01806 0.95867 0.0
C735 C 0.63128 -0.00661 0.91128 0.0
C736 C 0.62147 0.00517 0.015 0.0
C737 C 0.61709 0.02967 0.0679 0.0
C738 C 0.62733 0.05269 0.09249 0.0
C739 C 0.62304 0.07608 0.14174 0.0
C740 C 0.60859 0.07649 0.16712 0.0
C741 C 0.59841 0.0534 0.14343 0.0
C742 C 0.60263 0.02999 0.09413 0.0
C743 C 0.64265 0.84893 0.00927 0.0
C744 C 0.63009 0.83335 0.03278 0.0
C745 C 0.6411 0.88415 0.98773 0.0
C746 C 0.62699 0.90443 0.98941 0.0
C747 C 0.61431 0.88844 0.01032 0.0
C748 C 0.61582 0.85308 0.0314 0.0
C749 C 0.62586 0.94334 0.97541 0.0
C750 C 0.62102 0.96802 0.02239 0.0
C751 C 0.63082 0.95614 0.91879 0.0
C752 C 0.63496 0.93127 0.86622 0.0
C753 C 0.62465 0.90771 0.8441 0.0
C754 C 0.62848 0.88445 0.79426 0.0
C755 C 0.64262 0.88435 0.76626 0.0
C756 C 0.65293 0.90776 0.78781 0.0
C757 C 0.64911 0.9313 0.83742 0.0
H758 H 0.64557 0.86627 0.72772 0.0
H759 H 0.60529 0.09463 0.20522 0.0
H760 H 0.12516 0.30684 0.341 0.0
H761 H 0.13012 0.31758 0.23215 0.0
H762 H 0.12319 0.20706 0.18754 0.0
H763 H 0.11831 0.19609 0.29563 0.0
H764 H 0.14776 0.22821 0.12812 0.0
H765 H 0.09564 0.27398 0.16319 0.0
H766 H 0.07514 0.31239 0.21475 0.0
H767 H 0.09535 0.40719 0.16054 0.0
H768 H 0.1161 0.36928 0.10936 0.0
H769 H 0.13146 0.2247 0.81267 0.0
H770 H 0.12808 0.22445 0.92417 0.0
H771 H 0.13986 0.33397 0.93741 0.0
H772 H 0.14341 0.33442 0.82556 0.0
H773 H 0.1149 0.31918 0.01398 0.0
H774 H 0.16572 0.27381 0.96993 0.0
H775 H 0.18579 0.23545 0.91569 0.0
H776 H 0.16851 0.14074 0.98675 0.0
H777 H 0.14806 0.17841 0.04005 0.0
C778 C 0.12476 0.2848 0.308 0.0
C779 C 0.12126 0.25065 0.327 0.0
C780 C 0.12755 0.291 0.24581 0.0
C781 C 0.12692 0.26317 0.20159 0.0
C782 C 0.12376 0.22892 0.22077 0.0
C783 C 0.1209 0.22276 0.28266 0.0
C784 C 0.12918 0.26956 0.13503 0.0
C785 C 0.14052 0.24796 0.10314 0.0
C786 C 0.12001 0.29601 0.10265 0.0
C787 C 0.1075 0.3188 0.13309 0.0
C788 C 0.09577 0.30301 0.1627 0.0
C789 C 0.0841 0.32469 0.19178 0.0
C790 C 0.08397 0.36221 0.19109 0.0
C791 C 0.09549 0.37813 0.16115 0.0
C792 C 0.1072 0.35656 0.13208 0.0
C793 C 0.13312 0.24896 0.83905 0.0
C794 C 0.13778 0.27954 0.81021 0.0
C795 C 0.13125 0.2487 0.90283 0.0
C796 C 0.13389 0.27905 0.93904 0.0
C797 C 0.13781 0.31025 0.91024 0.0
C798 C 0.13985 0.31041 0.84638 0.0
C799 C 0.13324 0.27729 0.0071 0.0
C800 C 0.12225 0.29975 0.03917 0.0
C801 C 0.14278 0.25174 0.03973 0.0
C802 C 0.15525 0.22896 0.00861 0.0
C803 C 0.16611 0.24479 0.97362 0.0
C804 C 0.17757 0.22318 0.94308 0.0
C805 C 0.17843 0.18572 0.94782 0.0
C806 C 0.16783 0.16977 0.98312 0.0
C807 C 0.15629 0.19124 0.01348 0.0
H808 H 0.18732 0.16905 0.92418 0.0
H809 H 0.07492 0.37895 0.21362 0.0
H810 H 0.87064 0.29644 0.33496 0.0
H811 H 0.86526 0.30818 0.22613 0.0
H812 H 0.90133 0.22801 0.1735 0.0
H813 H 0.90675 0.21612 0.28152 0.0
H814 H 0.90178 0.28805 0.10533 0.0
H815 H 0.8649 0.20857 0.16868 0.0
H816 H 0.84425 0.19027 0.23331 0.0
H817 H 0.81634 0.28557 0.18335 0.0
H818 H 0.83692 0.30466 0.11901 0.0
H819 H 0.88326 0.24044 0.79812 0.0
H820 H 0.88917 0.24249 0.908 0.0
H821 H 0.85176 0.32327 0.93789 0.0
H822 H 0.84573 0.3213 0.82838 0.0
H823 H 0.85138 0.26956 0.01893 0.0
H824 H 0.88736 0.34625 0.94746 0.0
H825 H 0.90793 0.36446 0.88236 0.0
H826 H 0.93747 0.27536 0.94702 0.0
H827 H 0.917 0.25629 0.01189 0.0
C828 C 0.87744 0.28139 0.30017 0.0
C829 C 0.88905 0.25515 0.3169 0.0
C830 C 0.87435 0.2881 0.23805 0.0
C831 C 0.88286 0.26883 0.19171 0.0
C832 C 0.89465 0.24325 0.20844 0.0
C833 C 0.89767 0.23637 0.27031 0.0
C834 C 0.87933 0.27438 0.12564 0.0
C835 C 0.89079 0.28376 0.0863 0.0
C836 C 0.86488 0.26971 0.10111 0.0
C837 C 0.8525 0.25822 0.1396 0.0
C838 C 0.8544 0.22575 0.17187 0.0
C839 C 0.8427 0.21522 0.20837 0.0
C840 C 0.82901 0.2368 0.21258 0.0
C841 C 0.82697 0.26892 0.18014 0.0
C842 C 0.83864 0.2796 0.14362 0.0
C843 C 0.8764 0.25894 0.82794 0.0
C844 C 0.86401 0.28065 0.80445 0.0
C845 C 0.87981 0.26017 0.89073 0.0
C846 C 0.87093 0.28316 0.93113 0.0
C847 C 0.85875 0.30532 0.90758 0.0
C848 C 0.85536 0.30422 0.84486 0.0
C849 C 0.8739 0.28272 0.99834 0.0
C850 C 0.86232 0.27426 0.03793 0.0
C851 C 0.88824 0.28829 0.02303 0.0
C852 C 0.9006 0.29966 0.98414 0.0
C853 C 0.89821 0.33035 0.94742 0.0
C854 C 0.90985 0.34087 0.91063 0.0
C855 C 0.92399 0.32103 0.91044 0.0
C856 C 0.92651 0.29068 0.94717 0.0
C857 C 0.91489 0.28003 0.98401 0.0
H858 H 0.93299 0.32922 0.88193 0.0
H859 H 0.81996 0.22859 0.24084 0.0
H860 H 0.14929 0.65259 0.19205 0.0
H861 H 0.14428 0.65642 0.08177 0.0
H862 H 0.11595 0.75553 0.11238 0.0
H863 H 0.12087 0.7519 0.22302 0.0
H864 H 0.1039 0.71091 0.0264 0.0
H865 H 0.15138 0.75859 0.06654 0.0
H866 H 0.17723 0.75686 0.10826 0.0
H867 H 0.19097 0.66531 0.99184 0.0
H868 H 0.16512 0.66609 0.95024 0.0
H869 H 0.10341 0.78764 0.73286 0.0
H870 H 0.10743 0.77546 0.84164 0.0
H871 H 0.13565 0.67839 0.79459 0.0
H872 H 0.13173 0.69052 0.68481 0.0
H873 H 0.14786 0.71775 0.88783 0.0
H874 H 0.10042 0.67215 0.84402 0.0
H875 H 0.07444 0.67395 0.80384 0.0
H876 H 0.06057 0.76199 0.92757 0.0
H877 H 0.08654 0.76108 0.96788 0.0
C878 C 0.14185 0.67503 0.17554 0.0
C879 C 0.13557 0.70211 0.2164 0.0
C880 C 0.13904 0.67722 0.11238 0.0
C881 C 0.12993 0.70654 0.08873 0.0
C882 C 0.12307 0.73273 0.12963 0.0
C883 C 0.1259 0.73063 0.19286 0.0
C884 C 0.12808 0.71071 0.02122 0.0
C885 C 0.11349 0.71276 0.99616 0.0
C886 C 0.14064 0.7123 0.9816 0.0
C887 C 0.15627 0.71216 0.00574 0.0
C888 C 0.15988 0.73792 0.05015 0.0
C889 C 0.17454 0.73713 0.07376 0.0
C890 C 0.18573 0.71093 0.05282 0.0
C891 C 0.18229 0.68555 0.00809 0.0
C892 C 0.16763 0.68616 0.98446 0.0
C893 C 0.1105 0.76367 0.74538 0.0
C894 C 0.1172 0.73997 0.69996 0.0
C895 C 0.11273 0.75668 0.80776 0.0
C896 C 0.12167 0.72577 0.82636 0.0
C897 C 0.12865 0.70235 0.78127 0.0
C898 C 0.12638 0.70928 0.71858 0.0
C899 C 0.12366 0.71821 0.89297 0.0
C900 C 0.13827 0.7156 0.91793 0.0
C901 C 0.11112 0.71619 0.93256 0.0
C902 C 0.09547 0.71674 0.9086 0.0
C903 C 0.09186 0.69209 0.86233 0.0
C904 C 0.07713 0.69291 0.83958 0.0
C905 C 0.06587 0.71812 0.86304 0.0
C906 C 0.06931 0.7425 0.9094 0.0
C907 C 0.08403 0.74182 0.93226 0.0
H908 H 0.05447 0.71872 0.84537 0.0
H909 H 0.19706 0.71035 0.07118 0.0
H910 H 0.87213 0.7519 0.69209 0.0
H911 H 0.8684 0.75708 0.80334 0.0
H912 H 0.89767 0.65944 0.82772 0.0
H913 H 0.90135 0.65379 0.71621 0.0
H914 H 0.87315 0.66246 0.90437 0.0
H915 H 0.91113 0.73992 0.8521 0.0
H916 H 0.92201 0.78789 0.79498 0.0
H917 H 0.88633 0.8649 0.85981 0.0
H918 H 0.8751 0.81725 0.91664 0.0
H919 H 0.88204 0.69384 0.22763 0.0
H920 H 0.88771 0.68302 0.11807 0.0
H921 H 0.86066 0.78136 0.07405 0.0
H922 H 0.85519 0.79262 0.18287 0.0
H923 H 0.88588 0.7754 0.00825 0.0
H924 H 0.84723 0.69787 0.05643 0.0
H925 H 0.83614 0.6502 0.11362 0.0
H926 H 0.87284 0.57369 0.05674 0.0
H927 H 0.88427 0.62107 0.99994 0.0
C928 C 0.87767 0.73129 0.72095 0.0
C929 C 0.88716 0.7026 0.69512 0.0
C930 C 0.87558 0.7344 0.78467 0.0
C931 C 0.88297 0.709 0.82408 0.0
C932 C 0.89192 0.67947 0.79832 0.0
C933 C 0.89404 0.67635 0.7345 0.0
C934 C 0.88172 0.71404 0.89209 0.0
C935 C 0.87614 0.68693 0.92723 0.0
C936 C 0.88542 0.74616 0.92195 0.0
C937 C 0.89221 0.77494 0.88819 0.0
C938 C 0.90554 0.76703 0.85382 0.0
C939 C 0.91178 0.79417 0.82155 0.0
C940 C 0.90484 0.8294 0.82365 0.0
C941 C 0.89168 0.83758 0.85818 0.0
C942 C 0.88538 0.81053 0.89047 0.0
C943 C 0.87741 0.7133 0.19463 0.0
C944 C 0.86812 0.74405 0.21411 0.0
C945 C 0.88059 0.70697 0.13195 0.0
C946 C 0.87445 0.73115 0.08758 0.0
C947 C 0.86552 0.76228 0.10724 0.0
C948 C 0.86237 0.76864 0.16966 0.0
C949 C 0.87708 0.72409 0.02055 0.0
C950 C 0.88296 0.75083 0.98553 0.0
C951 C 0.87362 0.69168 0.99089 0.0
C952 C 0.86669 0.6631 0.02449 0.0
C953 C 0.85299 0.67094 0.05648 0.0
C954 C 0.84663 0.64397 0.08878 0.0
C955 C 0.8538 0.60896 0.08895 0.0
C956 C 0.86732 0.60083 0.05666 0.0
C957 C 0.87373 0.62773 0.02438 0.0
H958 H 0.84887 0.58812 0.11398 0.0
H959 H 0.90969 0.85038 0.79863 0.0
H960 H 0.6237 0.7276 0.30568 0.0
H961 H 0.6177 0.72834 0.41534 0.0
H962 H 0.64052 0.82471 0.44131 0.0
H963 H 0.64685 0.82369 0.33189 0.0
H964 H 0.64917 0.77831 0.52622 0.0
H965 H 0.60151 0.8264 0.44916 0.0
H966 H 0.57896 0.82948 0.38274 0.0
H967 H 0.56718 0.72883 0.45287 0.0
H968 H 0.58978 0.72488 0.51913 0.0
H969 H 0.62559 0.79887 0.84026 0.0
H970 H 0.62957 0.80921 0.73066 0.0
H971 H 0.60781 0.71372 0.68397 0.0
H972 H 0.60365 0.70338 0.79273 0.0
H973 H 0.59811 0.76616 0.61044 0.0
H974 H 0.64755 0.71688 0.68102 0.0
H975 H 0.66994 0.71579 0.74826 0.0
H976 H 0.67792 0.82204 0.69089 0.0
H977 H 0.65551 0.82383 0.62362 0.0
C978 C 0.62728 0.74923 0.33452 0.0
C979 C 0.63578 0.77557 0.30992 0.0
C980 C 0.62379 0.7497 0.3973 0.0
C981 C 0.62855 0.77675 0.43672 0.0
C982 C 0.63674 0.80353 0.41195 0.0
C983 C 0.6403 0.80298 0.34926 0.0
C984 C 0.62564 0.77602 0.50413 0.0
C985 C 0.63795 0.77626 0.54463 0.0
C986 C 0.61106 0.77289 0.52838 0.0
C987 C 0.59742 0.7752 0.48875 0.0
C988 C 0.59417 0.80478 0.45009 0.0
C989 C 0.58137 0.80671 0.41252 0.0
C990 C 0.57166 0.77933 0.41348 0.0
C991 C 0.57472 0.75 0.45214 0.0
C992 C 0.58751 0.74793 0.48977 0.0
C993 C 0.62164 0.7801 0.80663 0.0
C994 C 0.61434 0.75023 0.82535 0.0
C995 C 0.62394 0.78604 0.74401 0.0
C996 C 0.61907 0.76218 0.69897 0.0
C997 C 0.61165 0.73259 0.7177 0.0
C998 C 0.60933 0.72665 0.78008 0.0
C999 C 0.62167 0.76769 0.63227 0.0
C1000 C 0.6093 0.76843 0.59194 0.0
C1001 C 0.63618 0.77197 0.60819 0.0
C1002 C 0.6498 0.7706 0.64772 0.0
C1003 C 0.65405 0.74005 0.68295 0.0
C1004 C 0.66675 0.73929 0.72101 0.0
C1005 C 0.67533 0.76885 0.72393 0.0
C1006 C 0.67127 0.79916 0.68858 0.0
C1007 C 0.65859 0.80003 0.65038 0.0
H1008 H 0.68514 0.76824 0.75351 0.0
H1009 H 0.56176 0.78087 0.38436 0.0
H1010 H 0.37517 0.79843 0.79474 0.0
H1011 H 0.36886 0.80886 0.68683 0.0
H1012 H 0.4017 0.72152 0.63222 0.0
H1013 H 0.40818 0.71095 0.74013 0.0
H1014 H 0.40193 0.78126 0.55732 0.0
H1015 H 0.36571 0.7064 0.64211 0.0
H1016 H 0.34639 0.69136 0.71631 0.0
H1017 H 0.31839 0.78698 0.66877 0.0
H1018 H 0.33765 0.80285 0.59487 0.0
H1019 H 0.37648 0.7292 0.26449 0.0
H1020 H 0.38431 0.73271 0.37184 0.0
H1021 H 0.34839 0.81655 0.40771 0.0
H1022 H 0.34035 0.813 0.30034 0.0
H1023 H 0.34938 0.76501 0.49307 0.0
H1024 H 0.38422 0.8374 0.40129 0.0
H1025 H 0.4033 0.85296 0.32652 0.0
H1026 H 0.43367 0.7641 0.38634 0.0
H1027 H 0.41468 0.74761 0.46082 0.0
C1028 C 0.38115 0.7816 0.75979 0.0
C1029 C 0.39207 0.7536 0.77592 0.0
C1030 C 0.37752 0.78761 0.69823 0.0
C1031 C 0.3847 0.76568 0.65185 0.0
C1032 C 0.39603 0.73868 0.66754 0.0
C1033 C 0.39967 0.73259 0.72916 0.0
C1034 C 0.37985 0.76959 0.5872 0.0
C1035 C 0.39048 0.77745 0.54301 0.0
C1036 C 0.3648 0.7656 0.56922 0.0
C1037 C 0.35319 0.75602 0.6135 0.0
C1038 C 0.35549 0.72437 0.64787 0.0
C1039 C 0.34454 0.71567 0.68979 0.0
C1040 C 0.33119 0.73825 0.69739 0.0
C1041 C 0.32875 0.76955 0.66293 0.0
C1042 C 0.33967 0.7784 0.621 0.0
C1043 C 0.37027 0.7485 0.29511 0.0
C1044 C 0.35779 0.77081 0.274 0.0
C1045 C 0.37482 0.75062 0.35632 0.0
C1046 C 0.36703 0.77519 0.3974 0.0
C1047 C 0.35457 0.79752 0.37654 0.0
C1048 C 0.35001 0.79545 0.31524 0.0
C1049 C 0.3715 0.77625 0.46279 0.0
C1050 C 0.36079 0.76927 0.50725 0.0
C1051 C 0.38646 0.78121 0.48094 0.0
C1052 C 0.39796 0.79108 0.43632 0.0
C1053 C 0.39492 0.82098 0.39817 0.0
C1054 C 0.40573 0.83 0.35589 0.0
C1055 C 0.41968 0.80949 0.35159 0.0
C1056 C 0.42286 0.77995 0.38968 0.0
C1057 C 0.41208 0.77077 0.43199 0.0
H1058 H 0.42803 0.81652 0.31884 0.0
H1059 H 0.32273 0.73146 0.72985 0.0
H1060 H 0.6084 0.32137 0.21343 0.0
H1061 H 0.61175 0.31599 0.32465 0.0
H1062 H 0.63231 0.2073 0.29857 0.0
H1063 H 0.62895 0.21241 0.18723 0.0
H1064 H 0.61079 0.21162 0.38832 0.0
H1065 H 0.65356 0.27523 0.33653 0.0
H1066 H 0.6665 0.32419 0.29132 0.0
H1067 H 0.64098 0.40174 0.40797 0.0
H1068 H 0.62772 0.35326 0.45331 0.0
H1069 H 0.64362 0.17608 0.67777 0.0
H1070 H 0.6384 0.18713 0.56958 0.0
H1071 H 0.61982 0.29546 0.61488 0.0
H1072 H 0.62526 0.2847 0.7242 0.0
H1073 H 0.63865 0.29457 0.51697 0.0
H1074 H 0.59672 0.2312 0.57256 0.0
H1075 H 0.58367 0.18256 0.61827 0.0
H1076 H 0.60711 0.10525 0.49484 0.0
H1077 H 0.62046 0.15336 0.44893 0.0
C1078 C 0.61376 0.2964 0.23123 0.0
C1079 C 0.61842 0.26733 0.19124 0.0
C1080 C 0.6157 0.29341 0.29492 0.0
C1081 C 0.62234 0.26128 0.32011 0.0
C1082 C 0.62714 0.23235 0.28027 0.0
C1083 C 0.62528 0.23538 0.21653 0.0
C1084 C 0.62387 0.25741 0.38801 0.0
C1085 C 0.61704 0.2295 0.41633 0.0
C1086 C 0.63157 0.28148 0.42499 0.0
C1087 C 0.63953 0.31066 0.39781 0.0
C1088 C 0.65061 0.30276 0.35215 0.0
C1089 C 0.65802 0.33042 0.32658 0.0
C1090 C 0.65453 0.36607 0.34662 0.0
C1091 C 0.64365 0.37412 0.39241 0.0
C1092 C 0.63619 0.34656 0.41809 0.0
C1093 C 0.63831 0.20224 0.66508 0.0
C1094 C 0.63482 0.22948 0.70989 0.0
C1095 C 0.63527 0.20847 0.60297 0.0
C1096 C 0.62855 0.242 0.5839 0.0
C1097 C 0.62497 0.26932 0.62846 0.0
C1098 C 0.62801 0.26307 0.69096 0.0
C1099 C 0.62575 0.24845 0.51719 0.0
C1100 C 0.63231 0.27684 0.48906 0.0
C1101 C 0.61774 0.2249 0.48033 0.0
C1102 C 0.60968 0.19587 0.50763 0.0
C1103 C 0.59918 0.20379 0.55546 0.0
C1104 C 0.59171 0.17632 0.58136 0.0
C1105 C 0.59458 0.14083 0.55956 0.0
C1106 C 0.6049 0.13275 0.51171 0.0
C1107 C 0.61241 0.16012 0.48567 0.0
H1108 H 0.58879 0.1196 0.57968 0.0
H1109 H 0.66029 0.38744 0.32678 0.0
H1110 H 0.3898 0.26247 0.24253 0.0
H1111 H 0.38854 0.26509 0.35478 0.0
H1112 H 0.3742 0.15773 0.35614 0.0
H1113 H 0.37542 0.15481 0.24351 0.0
H1114 H 0.3577 0.20513 0.43747 0.0
H1115 H 0.40968 0.16872 0.39034 0.0
H1116 H 0.43417 0.17305 0.33918 0.0
H1117 H 0.43738 0.27698 0.42422 0.0
H1118 H 0.41279 0.27351 0.47522 0.0
H1119 H 0.36828 0.18299 0.75843 0.0
H1120 H 0.37114 0.17274 0.64738 0.0
H1121 H 0.3882 0.27672 0.63019 0.0
H1122 H 0.38556 0.28701 0.74109 0.0
H1123 H 0.40364 0.22717 0.55686 0.0
H1124 H 0.35169 0.26576 0.60027 0.0
H1125 H 0.32717 0.26314 0.65204 0.0
H1126 H 0.32351 0.15774 0.57345 0.0
H1127 H 0.34818 0.15941 0.52227 0.0
C1128 C 0.38631 0.23942 0.26655 0.0
C1129 C 0.38278 0.20834 0.23392 0.0
C1130 C 0.38565 0.24094 0.33081 0.0
C1131 C 0.38144 0.21146 0.36391 0.0
C1132 C 0.37752 0.18075 0.33153 0.0
C1133 C 0.37827 0.1791 0.26716 0.0
C1134 C 0.38138 0.21263 0.43231 0.0
C1135 C 0.36779 0.20935 0.46366 0.0
C1136 C 0.39448 0.21892 0.46643 0.0
C1137 C 0.40932 0.22098 0.43617 0.0
C1138 C 0.41555 0.19262 0.39776 0.0
C1139 C 0.42946 0.1949 0.36885 0.0
C1140 C 0.43731 0.22531 0.37833 0.0
C1141 C 0.43128 0.25346 0.41687 0.0
C1142 C 0.41736 0.25133 0.44584 0.0
C1143 C 0.37285 0.20347 0.73119 0.0
C1144 C 0.37659 0.23596 0.75867 0.0
C1145 C 0.3744 0.19765 0.66762 0.0
C1146 C 0.37965 0.22422 0.63027 0.0
C1147 C 0.38407 0.25588 0.658 0.0
C1148 C 0.38253 0.26175 0.72149 0.0
C1149 C 0.37994 0.21988 0.5621 0.0
C1150 C 0.39356 0.22265 0.53076 0.0
C1151 C 0.36684 0.2134 0.52801 0.0
C1152 C 0.35188 0.21252 0.55803 0.0
C1153 C 0.34572 0.24188 0.59446 0.0
C1154 C 0.33179 0.24057 0.62373 0.0
C1155 C 0.32382 0.21021 0.61638 0.0
C1156 C 0.32973 0.18117 0.57943 0.0
C1157 C 0.34369 0.18228 0.55026 0.0
H1158 H 0.31304 0.20929 0.63915 0.0
H1159 H 0.44808 0.22702 0.3559 0.0
H1160 H 0.0657 0.24973 0.58063 0.0
H1161 H 0.03823 0.25009 0.58511 0.0
H1162 H 0.03416 0.314 0.42144 0.0
H1163 H 0.0616 0.31446 0.41742 0.0
H1164 H 0.01338 0.3383 0.50374 0.0
H1165 H 0.03113 0.22225 0.41682 0.0
H1166 H 0.04644 0.16353 0.41363 0.0
H1167 H 0.02594 0.13394 0.5818 0.0
H1168 H 0.01064 0.19271 0.58642 0.0
H1169 H 0.93902 0.30995 0.41501 0.0
H1170 H 0.96632 0.31156 0.42076 0.0
H1171 H 0.96768 0.24589 0.58243 0.0
H1172 H 0.9403 0.24325 0.57584 0.0
H1173 H 0.98981 0.22278 0.50659 0.0
H1174 H 0.97113 0.33843 0.59057 0.0
H1175 H 0.9557 0.397 0.59201 0.0
H1176 H 0.97787 0.42741 0.42813 0.0
H1177 H 0.99329 0.36881 0.42521 0.0
C1178 C 0.05897 0.26398 0.54569 0.0
C1179 C 0.06585 0.28193 0.49848 0.0
C1180 C 0.04326 0.26403 0.54818 0.0
C1181 C 0.03414 0.28162 0.50308 0.0
C1182 C 0.04097 0.30019 0.45668 0.0
C1183 C 0.05667 0.30036 0.45438 0.0
C1184 C 0.01749 0.28041 0.50379 0.0
C1185 C 0.00822 0.31304 0.50372 0.0
C1186 C 0.01075 0.24747 0.50525 0.0
C1187 C 0.01986 0.21202 0.50228 0.0
C1188 C 0.02997 0.20332 0.45335 0.0
C1189 C 0.03863 0.17001 0.45124 0.0
C1190 C 0.03719 0.14506 0.49757 0.0
C1191 C 0.02705 0.15332 0.546 0.0
C1192 C 0.01838 0.18661 0.54836 0.0
C1193 C 0.94509 0.29595 0.452 0.0
C1194 C 0.93747 0.2766 0.49517 0.0
C1195 C 0.96072 0.29704 0.45539 0.0
C1196 C 0.96904 0.27938 0.50266 0.0
C1197 C 0.96148 0.25985 0.54568 0.0
C1198 C 0.94584 0.25843 0.54195 0.0
C1199 C 0.98567 0.28068 0.50623 0.0
C1200 C 0.99495 0.24807 0.50705 0.0
C1201 C 0.99242 0.31365 0.50534 0.0
C1202 C 0.98328 0.3491 0.50744 0.0
C1203 C 0.97265 0.35752 0.55463 0.0
C1204 C 0.96392 0.39073 0.55574 0.0
C1205 C 0.96578 0.41588 0.51013 0.0
C1206 C 0.97643 0.4079 0.46341 0.0
C1207 C 0.98518 0.3747 0.46206 0.0
H1208 H 0.959 0.44156 0.51104 0.0
H1209 H 0.04391 0.11929 0.49587 0.0
H1210 H 0.94084 0.69689 0.52181 0.0
H1211 H 0.9684 0.69391 0.52669 0.0
H1212 H 0.96598 0.80939 0.55177 0.0
H1213 H 0.93834 0.81264 0.54747 0.0
H1214 H 0.98685 0.78126 0.46047 0.0
H1215 H 0.97436 0.76107 0.67073 0.0
H1216 H 0.96186 0.73181 0.75493 0.0
H1217 H 0.98533 0.62976 0.70326 0.0
H1218 H 0.99781 0.65832 0.61809 0.0
H1219 H 0.06494 0.78526 0.52309 0.0
H1220 H 0.0374 0.79373 0.5301 0.0
H1221 H 0.03578 0.67849 0.53762 0.0
H1222 H 0.06333 0.66992 0.53277 0.0
H1223 H 0.01664 0.71002 0.61677 0.0
H1224 H 0.0277 0.72749 0.40357 0.0
H1225 H 0.03977 0.75464 0.31593 0.0
H1226 H 0.01868 0.85901 0.36887 0.0
H1227 H 0.00663 0.83253 0.45734 0.0
C1228 C 0.94615 0.72166 0.52847 0.0
C1229 C 0.93742 0.75502 0.53423 0.0
C1230 C 0.96189 0.71988 0.5315 0.0
C1231 C 0.96918 0.75141 0.53994 0.0
C1232 C 0.96052 0.78477 0.54535 0.0
C1233 C 0.94476 0.78655 0.54306 0.0
C1234 C 0.98586 0.74943 0.54171 0.0
C1235 C 0.9934 0.76621 0.49519 0.0
C1236 C 0.99432 0.72902 0.58618 0.0
C1237 C 0.98692 0.7118 0.63766 0.0
C1238 C 0.97676 0.73234 0.67699 0.0
C1239 C 0.9697 0.71589 0.72496 0.0
C1240 C 0.97277 0.67893 0.73435 0.0
C1241 C 0.98295 0.65838 0.69589 0.0
C1242 C 0.99004 0.67469 0.64779 0.0
C1243 C 0.05871 0.76173 0.52619 0.0
C1244 C 0.06629 0.7269 0.52699 0.0
C1245 C 0.04296 0.7666 0.53 0.0
C1246 C 0.03448 0.73672 0.53342 0.0
C1247 C 0.04207 0.70196 0.53499 0.0
C1248 C 0.05782 0.69709 0.532 0.0
C1249 C 0.01772 0.74154 0.53499 0.0
C1250 C 0.01014 0.72528 0.58218 0.0
C1251 C 0.0092 0.76213 0.49069 0.0
C1252 C 0.0164 0.77809 0.43743 0.0
C1253 C 0.02573 0.75627 0.39677 0.0
C1254 C 0.03255 0.77153 0.34692 0.0
C1255 C 0.03003 0.80854 0.33694 0.0
C1256 C 0.02064 0.83036 0.37672 0.0
C1257 C 0.0138 0.81524 0.42669 0.0
H1258 H 0.03532 0.82031 0.29831 0.0
H1259 H 0.96729 0.66625 0.77151 0.0
H1260 H 0.56407 0.74519 0.09015 0.0
H1261 H 0.53651 0.74763 0.09731 0.0
H1262 H 0.53243 0.81187 0.93395 0.0
H1263 H 0.55985 0.81065 0.92794 0.0
H1264 H 0.51252 0.838 0.01402 0.0
H1265 H 0.5282 0.71784 0.93514 0.0
H1266 H 0.54243 0.65779 0.9379 0.0
H1267 H 0.52105 0.63645 0.10874 0.0
H1268 H 0.50682 0.69657 0.10732 0.0
H1269 H 0.44004 0.8133 0.90334 0.0
H1270 H 0.467 0.81378 0.92158 0.0
H1271 H 0.46301 0.75333 0.08717 0.0
H1272 H 0.43587 0.75187 0.06821 0.0
H1273 H 0.48665 0.72581 0.02087 0.0
H1274 H 0.469 0.84428 0.09337 0.0
H1275 H 0.45461 0.90399 0.08844 0.0
H1276 H 0.47948 0.92836 0.92764 0.0
H1277 H 0.49396 0.86865 0.93134 0.0
C1278 C 0.55728 0.75988 0.05586 0.0
C1279 C 0.56415 0.77765 0.00838 0.0
C1280 C 0.54152 0.76113 0.05983 0.0
C1281 C 0.53234 0.77952 0.01566 0.0
C1282 C 0.53922 0.79755 0.96866 0.0
C1283 C 0.55493 0.79674 0.96518 0.0
C1284 C 0.51558 0.78003 0.01767 0.0
C1285 C 0.50688 0.81342 0.01504 0.0
C1286 C 0.50815 0.74809 0.02096 0.0
C1287 C 0.51658 0.71182 0.02145 0.0
C1288 C 0.52661 0.70041 0.97346 0.0
C1289 C 0.53466 0.66636 0.97477 0.0
C1290 C 0.53268 0.64336 0.02356 0.0
C1291 C 0.5226 0.65431 0.07103 0.0
C1292 C 0.51452 0.68835 0.06998 0.0
C1293 C 0.44481 0.80037 0.94405 0.0
C1294 C 0.43576 0.78261 0.98442 0.0
C1295 C 0.46027 0.80082 0.95458 0.0
C1296 C 0.46704 0.78406 0.00626 0.0
C1297 C 0.45803 0.76656 0.04709 0.0
C1298 C 0.44251 0.76587 0.03633 0.0
C1299 C 0.48362 0.78372 0.01574 0.0
C1300 C 0.49229 0.75041 0.02063 0.0
C1301 C 0.49104 0.81572 0.01429 0.0
C1302 C 0.48251 0.8519 0.01246 0.0
C1303 C 0.47135 0.8623 0.05679 0.0
C1304 C 0.46318 0.89616 0.05421 0.0
C1305 C 0.46608 0.91991 0.00763 0.0
C1306 C 0.47723 0.90992 0.96368 0.0
C1307 C 0.48546 0.87612 0.96609 0.0
H1308 H 0.45972 0.94608 0.00566 0.0
H1309 H 0.53894 0.61703 0.02452 0.0
H1310 H 0.4393 0.31733 0.07463 0.0
H1311 H 0.46696 0.31248 0.07056 0.0
H1312 H 0.4676 0.19963 0.02168 0.0
H1313 H 0.44007 0.20413 0.02562 0.0
H1314 H 0.48779 0.21307 0.11451 0.0
H1315 H 0.47351 0.25836 0.91366 0.0
H1316 H 0.46034 0.30124 0.84217 0.0
H1317 H 0.4838 0.38701 0.91956 0.0
H1318 H 0.49697 0.3447 0.99212 0.0
H1319 H 0.56298 0.1715 0.01617 0.0
H1320 H 0.53548 0.18042 0.02389 0.0
H1321 H 0.53772 0.29536 0.0426 0.0
H1322 H 0.5652 0.28666 0.0321 0.0
H1323 H 0.5159 0.28364 0.9697 0.0
H1324 H 0.53087 0.23997 0.16811 0.0
H1325 H 0.54396 0.19866 0.24228 0.0
H1326 H 0.51922 0.11242 0.17516 0.0
H1327 H 0.50612 0.1531 0.1 0.0
C1328 C 0.44534 0.29151 0.06291 0.0
C1329 C 0.4375 0.26113 0.05035 0.0
C1330 C 0.46111 0.28882 0.06047 0.0
C1331 C 0.46928 0.25572 0.04557 0.0
C1332 C 0.46149 0.22538 0.03333 0.0
C1333 C 0.44575 0.22807 0.03537 0.0
C1334 C 0.48597 0.25243 0.04302 0.0
C1335 C 0.49397 0.22822 0.0825 0.0
C1336 C 0.49396 0.27305 1.00252 0.0
C1337 C 0.4861 0.29844 0.95874 0.0
C1338 C 0.47576 0.28642 0.91578 0.0
C1339 C 0.46832 0.31061 0.875 0.0
C1340 C 0.4712 0.34685 0.87644 0.0
C1341 C 0.48157 0.35895 0.91856 0.0
C1342 C 0.48903 0.33487 0.95949 0.0
C1343 C 0.5576 0.19866 0.02203 0.0
C1344 C 0.56621 0.22838 0.02369 0.0
C1345 C 0.54189 0.20373 0.0268 0.0
C1346 C 0.53453 0.23853 0.03502 0.0
C1347 C 0.54314 0.26826 0.0364 0.0
C1348 C 0.55883 0.26325 0.03048 0.0
C1349 C 0.51784 0.24397 0.04097 0.0
C1350 C 0.50979 0.26862 1.00214 0.0
C1351 C 0.50981 0.22403 0.08264 0.0
C1352 C 0.5176 0.19953 0.12807 0.0
C1353 C 0.52829 0.21214 0.16889 0.0
C1354 C 0.5357 0.18884 0.21115 0.0
C1355 C 0.53245 0.15292 0.21334 0.0
C1356 C 0.52174 0.14024 0.17338 0.0
C1357 C 0.5143 0.16342 0.13099 0.0
H1358 H 0.5382 0.13492 0.24607 0.0
H1359 H 0.46543 0.36554 0.84483 0.0
loop_
_geom_bond_atom_site_label_1
_geom_bond_atom_site_label_2
_geom_bond_distance
_geom_bond_site_symmetry_2
_ccdc_geom_bond_type
Zn0 O6 1.969 . S
Zn0 O7 1.965 . S
Zn0 O11 2.024 . S
Zn0 O16 1.969 . S
Zn1 O8 1.969 . S
Zn1 O14 1.969 . S
Zn1 O15 1.965 . S
Zn1 O17 2.024 . S
C2 O3 1.229 . S
C2 O11 1.058 . S
O3 C2 1.229 . S
C4 O5 1.229 . S
C4 O17 1.058 . S
O5 C4 1.229 . S
O6 Zn0 1.969 . S
O6 C9 1.267 . S
O7 Zn0 1.965 . S
O7 C18 1.260 . S
O8 Zn1 1.969 . S
O8 C18 1.258 . S
C9 O6 1.267 . S
C9 O10 1.228 . S
O10 C9 1.228 . S
O11 Zn0 2.024 . S
O11 C2 1.058 . S
C12 O13 1.228 . S
C12 O14 1.267 . S
O13 C12 1.228 . S
O14 Zn1 1.969 . S
O14 C12 1.267 . S
O15 Zn1 1.965 . S
O15 C19 1.260 . S
O16 Zn0 1.969 . S
O16 C19 1.258 . S
O17 Zn1 2.024 . S
O17 C4 1.058 . S
C18 O7 1.260 . S
C18 O8 1.258 . S
C19 O15 1.260 . S
C19 O16 1.258 . S
Zn20 O26 1.969 . S
Zn20 O27 1.965 . S
Zn20 O31 2.024 . S
Zn20 O36 1.969 . S
Zn21 O28 1.969 . S
Zn21 O34 1.969 . S
Zn21 O35 1.965 . S
Zn21 O37 2.024 . S
C22 O23 1.229 . S
C22 O31 1.058 . S
O23 C22 1.229 . S
C24 O25 1.229 . S
C24 O37 1.058 . S
O25 C24 1.229 . S
O26 Zn20 1.969 . S
O26 C29 1.267 . S
O27 Zn20 1.965 . S
O27 C38 1.260 . S
O28 Zn21 1.969 . S
O28 C38 1.258 . S
C29 O26 1.267 . S
C29 O30 1.228 . S
O30 C29 1.228 . S
O31 Zn20 2.024 . S
O31 C22 1.058 . S
C32 O33 1.228 . S
C32 O34 1.267 . S
O33 C32 1.228 . S
O34 Zn21 1.969 . S
O34 C32 1.267 . S
O35 Zn21 1.965 . S
O35 C39 1.260 . S
O36 Zn20 1.969 . S
O36 C39 1.258 . S
O37 Zn21 2.024 . S
O37 C24 1.058 . S
C38 O27 1.260 . S
C38 O28 1.258 . S
C39 O35 1.260 . S
C39 O36 1.258 . S
Zn40 O46 1.969 . S
Zn40 O47 1.965 . S
Zn40 O51 2.024 . S
Zn40 O56 1.969 . S
Zn41 O48 1.969 . S
Zn41 O54 1.969 . S
Zn41 O55 1.965 . S
Zn41 O57 2.024 . S
C42 O43 1.229 . S
C42 O51 1.058 . S
O43 C42 1.229 . S
C44 O45 1.229 . S
C44 O57 1.058 . S
O45 C44 1.229 . S
O46 Zn40 1.969 . S
O46 C49 1.267 . S
O47 Zn40 1.965 . S
O47 C58 1.260 . S
O48 Zn41 1.969 . S
O48 C58 1.258 . S
C49 O46 1.267 . S
C49 O50 1.228 . S
O50 C49 1.228 . S
O51 Zn40 2.024 . S
O51 C42 1.058 . S
C52 O53 1.228 . S
C52 O54 1.267 . S
O53 C52 1.228 . S
O54 Zn41 1.969 . S
O54 C52 1.267 . S
O55 Zn41 1.965 . S
O55 C59 1.260 . S
O56 Zn40 1.969 . S
O56 C59 1.258 . S
O57 Zn41 2.024 . S
O57 C44 1.058 . S
C58 O47 1.260 . S
C58 O48 1.258 . S
C59 O55 1.260 . S
C59 O56 1.258 . S
Zn60 O66 1.969 . S
Zn60 O67 1.965 . S
Zn60 O71 2.024 . S
Zn60 O76 1.969 . S
Zn61 O68 1.969 . S
Zn61 O74 1.969 . S
Zn61 O75 1.965 . S
Zn61 O77 2.024 . S
C62 O63 1.229 . S
C62 O71 1.058 . S
O63 C62 1.229 . S
C64 O65 1.229 . S
C64 O77 1.058 . S
O65 C64 1.229 . S
O66 Zn60 1.969 . S
O66 C69 1.267 . S
O67 Zn60 1.965 . S
O67 C78 1.260 . S
O68 Zn61 1.969 . S
O68 C78 1.258 . S
C69 O66 1.267 . S
C69 O70 1.228 . S
O70 C69 1.228 . S
O71 Zn60 2.024 . S
O71 C62 1.058 . S
C72 O73 1.228 . S
C72 O74 1.267 . S
O73 C72 1.228 . S
O74 Zn61 1.969 . S
O74 C72 1.267 . S
O75 Zn61 1.965 . S
O75 C79 1.260 . S
O76 Zn60 1.969 . S
O76 C79 1.258 . S
O77 Zn61 2.024 . S
O77 C64 1.058 . S
C78 O67 1.260 . S
C78 O68 1.258 . S
C79 O75 1.260 . S
C79 O76 1.258 . S
Zn80 O86 1.969 . S
Zn80 O87 1.965 . S
Zn80 O91 2.024 . S
Zn80 O96 1.969 . S
Zn81 O88 1.969 . S
Zn81 O94 1.969 . S
Zn81 O95 1.965 1_556 S
Zn81 O97 2.024 . S
C82 O83 1.229 . S
C82 O91 1.058 . S
O83 C82 1.229 . S
C84 O85 1.229 . S
C84 O97 1.058 . S
O85 C84 1.229 . S
O86 Zn80 1.969 . S
O86 C89 1.267 . S
O87 Zn80 1.965 . S
O87 C98 1.258 1_554 S
O88 Zn81 1.969 . S
O88 C98 1.262 . S
C89 O86 1.267 . S
C89 O90 1.228 . S
O90 C89 1.228 . S
O91 Zn80 2.024 . S
O91 C82 1.058 . S
C92 O93 1.228 . S
C92 O94 1.267 . S
O93 C92 1.228 . S
O94 Zn81 1.969 . S
O94 C92 1.267 . S
O95 Zn81 1.965 1_554 S
O95 C99 1.260 . S
O96 Zn80 1.969 . S
O96 C99 1.258 . S
O97 Zn81 2.024 . S
O97 C84 1.058 . S
C98 O87 1.258 1_556 S
C98 O88 1.262 . S
C99 O95 1.260 . S
C99 O96 1.258 . S
Zn100 O106 1.969 . S
Zn100 O107 1.965 1_556 S
Zn100 O111 2.024 . S
Zn100 O116 1.969 . S
Zn101 O108 1.969 . S
Zn101 O114 1.969 . S
Zn101 O115 1.965 . S
Zn101 O117 2.024 . S
C102 O103 1.229 . S
C102 O111 1.058 . S
O103 C102 1.229 . S
C104 O105 1.229 . S
C104 O117 1.058 . S
O105 C104 1.229 . S
O106 Zn100 1.969 . S
O106 C109 1.267 . S
O107 Zn100 1.965 1_554 S
O107 C118 1.260 . S
O108 Zn101 1.969 . S
O108 C118 1.258 . S
C109 O106 1.267 . S
C109 O110 1.228 . S
O110 C109 1.228 . S
O111 Zn100 2.024 . S
O111 C102 1.058 . S
C112 O113 1.228 . S
C112 O114 1.267 . S
O113 C112 1.228 . S
O114 Zn101 1.969 . S
O114 C112 1.267 . S
O115 Zn101 1.965 . S
O115 C119 1.260 1_554 S
O116 Zn100 1.969 . S
O116 C119 1.258 . S
O117 Zn101 2.024 . S
O117 C104 1.058 . S
C118 O107 1.260 . S
C118 O108 1.258 . S
C119 O115 1.260 1_556 S
C119 O116 1.258 . S
Zn120 O126 1.969 . S
Zn120 O127 1.965 . S
Zn120 O131 2.024 . S
Zn120 O136 1.969 . S
Zn121 O128 1.969 . S
Zn121 O134 1.969 . S
Zn121 O135 1.965 1_554 S
Zn121 O137 2.024 . S
C122 O123 1.229 . S
C122 O131 1.058 . S
O123 C122 1.229 . S
C124 O125 1.229 . S
C124 O137 1.058 . S
O125 C124 1.229 . S
O126 Zn120 1.969 . S
O126 C129 1.267 . S
O127 Zn120 1.965 . S
O127 C138 1.259 1_556 S
O128 Zn121 1.969 . S
O128 C138 1.260 . S
C129 O126 1.267 . S
C129 O130 1.228 . S
O130 C129 1.228 . S
O131 Zn120 2.024 . S
O131 C122 1.058 . S
C132 O133 1.228 . S
C132 O134 1.267 . S
O133 C132 1.228 . S
O134 Zn121 1.969 . S
O134 C132 1.267 . S
O135 Zn121 1.965 1_556 S
O135 C139 1.260 . S
O136 Zn120 1.969 . S
O136 C139 1.258 . S
O137 Zn121 2.024 . S
O137 C124 1.058 . S
C138 O127 1.259 1_554 S
C138 O128 1.260 . S
C139 O135 1.260 . S
C139 O136 1.258 . S
Zn140 O146 1.969 . S
Zn140 O147 1.965 . S
Zn140 O151 2.024 . S
Zn140 O156 1.969 . S
Zn141 O148 1.969 . S
Zn141 O154 1.969 . S
Zn141 O155 1.965 1_554 S
Zn141 O157 2.024 . S
C142 O143 1.229 . S
C142 O151 1.058 . S
O143 C142 1.229 . S
C144 O145 1.229 . S
C144 O157 1.058 . S
O145 C144 1.229 . S
O146 Zn140 1.969 . S
O146 C149 1.267 . S
O147 Zn140 1.965 . S
O147 C158 1.260 . S
O148 Zn141 1.969 . S
O148 C158 1.258 1_554 S
C149 O146 1.267 . S
C149 O150 1.228 . S
O150 C149 1.228 . S
O151 Zn140 2.024 . S
O151 C142 1.058 . S
C152 O153 1.228 . S
C152 O154 1.267 . S
O153 C152 1.228 . S
O154 Zn141 1.969 . S
O154 C152 1.267 . S
O155 Zn141 1.965 1_556 S
O155 C159 1.260 . S
O156 Zn140 1.969 . S
O156 C159 1.258 . S
O157 Zn141 2.024 . S
O157 C144 1.058 . S
C158 O147 1.260 . S
C158 O148 1.258 1_556 S
C159 O155 1.260 . S
C159 O156 1.258 . S
H160 C178 0.951 . S
H161 C180 0.951 . S
H162 C182 0.950 . S
H163 C183 0.950 . S
H164 C185 0.950 . S
H165 C188 0.950 . S
H166 C189 0.950 . S
H167 C191 0.950 . S
H168 C192 0.950 . S
H169 C193 0.951 . S
H170 C195 0.951 . S
H171 C197 0.950 . S
H172 C198 0.950 . S
H173 C200 0.950 . S
H174 C203 0.950 . S
H175 C204 0.950 . S
H176 C206 0.950 . S
H177 C207 0.950 . S
C178 H160 0.951 . S
C178 C179 1.366 . S
C178 C180 1.388 . S
C179 C178 1.366 . S
C179 C183 1.385 . S
C180 H161 0.951 . S
C180 C178 1.388 . S
C180 C181 1.366 . S
C181 C180 1.366 . S
C181 C182 1.414 . S
C181 C184 1.499 . S
C182 H162 0.950 . S
C182 C181 1.414 . S
C182 C183 1.374 . S
C183 H163 0.950 . S
C183 C179 1.385 . S
C183 C182 1.374 . S
C184 C181 1.499 . S
C184 C185 1.373 . S
C184 C186 1.389 . S
C185 H164 0.950 . S
C185 C184 1.373 . S
C185 C201 1.377 . S
C186 C184 1.389 . S
C186 C187 1.524 . S
C186 C200 1.377 . S
C187 C186 1.524 . S
C187 C188 1.397 . S
C187 C192 1.363 . S
C188 H165 0.950 . S
C188 C187 1.397 . S
C188 C189 1.334 . S
C189 H166 0.950 . S
C189 C188 1.334 . S
C189 C190 1.287 . S
C190 C189 1.287 . S
C190 C191 1.524 . S
C190 H209 0.913 . S
C191 H167 0.950 . S
C191 C190 1.524 . S
C191 C192 1.415 . S
C192 H168 0.950 . S
C192 C187 1.363 . S
C192 C191 1.415 . S
C193 H169 0.951 . S
C193 C194 1.366 . S
C193 C195 1.388 . S
C194 C193 1.366 . S
C194 C198 1.385 . S
C195 H170 0.951 . S
C195 C193 1.388 . S
C195 C196 1.366 . S
C196 C195 1.366 . S
C196 C197 1.414 . S
C196 C199 1.499 . S
C197 H171 0.950 . S
C197 C196 1.414 . S
C197 C198 1.374 . S
C198 H172 0.950 . S
C198 C194 1.385 . S
C198 C197 1.374 . S
C199 C196 1.499 . S
C199 C200 1.373 . S
C199 C201 1.389 . S
C200 H173 0.950 . S
C200 C186 1.377 . S
C200 C199 1.373 . S
C201 C185 1.377 . S
C201 C199 1.389 . S
C201 C202 1.524 . S
C202 C201 1.524 . S
C202 C203 1.397 . S
C202 C207 1.363 . S
C203 H174 0.950 . S
C203 C202 1.397 . S
C203 C204 1.334 . S
C204 H175 0.950 . S
C204 C203 1.334 . S
C204 C205 1.287 . S
C205 C204 1.287 . S
C205 C206 1.524 . S
C205 H208 0.999 . S
C206 H176 0.950 . S
C206 C205 1.524 . S
C206 C207 1.415 . S
C207 H177 0.950 . S
C207 C202 1.363 . S
C207 C206 1.415 . S
H208 C205 0.999 . S
H209 C190 0.913 . S
H210 C228 0.951 . S
H211 C230 0.951 . S
H212 C232 0.950 . S
H213 C233 0.950 . S
H214 C235 0.950 . S
H215 C238 0.950 . S
H216 C239 0.950 . S
H217 C241 0.950 . S
H218 C242 0.950 . S
H219 C243 0.951 . S
H220 C245 0.951 . S
H221 C247 0.950 . S
H222 C248 0.950 . S
H223 C250 0.950 . S
H224 C253 0.950 . S
H225 C254 0.950 . S
H226 C256 0.950 . S
H227 C257 0.950 . S
C228 H210 0.951 . S
C228 C229 1.366 . S
C228 C230 1.388 . S
C229 C228 1.366 . S
C229 C233 1.385 . S
C230 H211 0.951 . S
C230 C228 1.388 . S
C230 C231 1.366 . S
C231 C230 1.366 . S
C231 C232 1.414 . S
C231 C234 1.499 . S
C232 H212 0.950 . S
C232 C231 1.414 . S
C232 C233 1.374 . S
C233 H213 0.950 . S
C233 C229 1.385 . S
C233 C232 1.374 . S
C234 C231 1.499 . S
C234 C235 1.373 . S
C234 C236 1.389 . S
C235 H214 0.950 . S
C235 C234 1.373 . S
C235 C251 1.377 . S
C236 C234 1.389 . S
C236 C237 1.524 . S
C236 C250 1.377 . S
C237 C236 1.524 . S
C237 C238 1.397 . S
C237 C242 1.363 . S
C238 H215 0.950 . S
C238 C237 1.397 . S
C238 C239 1.334 . S
C239 H216 0.950 . S
C239 C238 1.334 . S
C239 C240 1.287 . S
C240 C239 1.287 . S
C240 C241 1.524 . S
C240 H259 0.913 . S
C241 H217 0.950 . S
C241 C240 1.524 . S
C241 C242 1.415 . S
C242 H218 0.950 . S
C242 C237 1.363 . S
C242 C241 1.415 . S
C243 H219 0.951 . S
C243 C244 1.366 . S
C243 C245 1.388 . S
C244 C243 1.366 . S
C244 C248 1.385 . S
C245 H220 0.951 . S
C245 C243 1.388 . S
C245 C246 1.366 . S
C246 C245 1.366 . S
C246 C247 1.414 . S
C246 C249 1.499 . S
C247 H221 0.950 . S
C247 C246 1.414 . S
C247 C248 1.374 . S
C248 H222 0.950 . S
C248 C244 1.385 . S
C248 C247 1.374 . S
C249 C246 1.499 . S
C249 C250 1.373 . S
C249 C251 1.389 . S
C250 H223 0.950 . S
C250 C236 1.377 . S
C250 C249 1.373 . S
C251 C235 1.377 . S
C251 C249 1.389 . S
C251 C252 1.524 . S
C252 C251 1.524 . S
C252 C253 1.397 . S
C252 C257 1.363 . S
C253 H224 0.950 . S
C253 C252 1.397 . S
C253 C254 1.334 . S
C254 H225 0.950 . S
C254 C253 1.334 . S
C254 C255 1.287 . S
C255 C254 1.287 . S
C255 C256 1.524 . S
C255 H258 0.999 . S
C256 H226 0.950 . S
C256 C255 1.524 . S
C256 C257 1.415 . S
C257 H227 0.950 . S
C257 C252 1.363 . S
C257 C256 1.415 . S
H258 C255 0.999 . S
H259 C240 0.913 . S
H260 C278 0.951 . S
H261 C280 0.951 . S
H262 C282 0.950 . S
H263 C283 0.950 . S
H264 C285 0.950 . S
H265 C288 0.950 . S
H266 C289 0.950 . S
H267 C291 0.950 . S
H268 C292 0.950 . S
H269 C293 0.951 . S
H270 C295 0.951 . S
H271 C297 0.950 . S
H272 C298 0.950 . S
H273 C300 0.950 . S
H274 C303 0.950 . S
H275 C304 0.950 . S
H276 C306 0.950 . S
H277 C307 0.950 . S
C278 H260 0.951 . S
C278 C279 1.366 . S
C278 C280 1.388 . S
C279 C278 1.366 . S
C279 C283 1.385 . S
C280 H261 0.951 . S
C280 C278 1.388 . S
C280 C281 1.366 . S
C281 C280 1.366 . S
C281 C282 1.414 . S
C281 C284 1.499 . S
C282 H262 0.950 . S
C282 C281 1.414 . S
C282 C283 1.374 . S
C283 H263 0.950 . S
C283 C279 1.385 . S
C283 C282 1.374 . S
C284 C281 1.499 . S
C284 C285 1.373 . S
C284 C286 1.389 . S
C285 H264 0.950 . S
C285 C284 1.373 . S
C285 C301 1.377 . S
C286 C284 1.389 . S
C286 C287 1.524 . S
C286 C300 1.377 . S
C287 C286 1.524 . S
C287 C288 1.397 . S
C287 C292 1.363 . S
C288 H265 0.950 . S
C288 C287 1.397 . S
C288 C289 1.334 . S
C289 H266 0.950 . S
C289 C288 1.334 . S
C289 C290 1.287 . S
C290 C289 1.287 . S
C290 C291 1.524 . S
C290 H309 0.913 . S
C291 H267 0.950 . S
C291 C290 1.524 . S
C291 C292 1.415 . S
C292 H268 0.950 . S
C292 C287 1.363 . S
C292 C291 1.415 . S
C293 H269 0.951 . S
C293 C294 1.366 . S
C293 C295 1.388 . S
C294 C293 1.366 . S
C294 C298 1.385 . S
C295 H270 0.951 . S
C295 C293 1.388 . S
C295 C296 1.366 . S
C296 C295 1.366 . S
C296 C297 1.414 . S
C296 C299 1.499 . S
C297 H271 0.950 . S
C297 C296 1.414 . S
C297 C298 1.374 . S
C298 H272 0.950 . S
C298 C294 1.385 . S
C298 C297 1.374 . S
C299 C296 1.499 . S
C299 C300 1.373 . S
C299 C301 1.389 . S
C300 H273 0.950 . S
C300 C286 1.377 . S
C300 C299 1.373 . S
C301 C285 1.377 . S
C301 C299 1.389 . S
C301 C302 1.524 . S
C302 C301 1.524 . S
C302 C303 1.397 . S
C302 C307 1.363 . S
C303 H274 0.950 . S
C303 C302 1.397 . S
C303 C304 1.334 . S
C304 H275 0.950 . S
C304 C303 1.334 . S
C304 C305 1.287 . S
C305 C304 1.287 . S
C305 C306 1.524 . S
C305 H308 0.999 . S
C306 H276 0.950 . S
C306 C305 1.524 . S
C306 C307 1.415 . S
C307 H277 0.950 . S
C307 C302 1.363 . S
C307 C306 1.415 . S
H308 C305 0.999 . S
H309 C290 0.913 . S
H310 C328 0.951 . S
H311 C330 0.951 . S
H312 C332 0.950 . S
H313 C333 0.950 . S
H314 C335 0.950 . S
H315 C338 0.950 . S
H316 C339 0.950 . S
H317 C341 0.950 . S
H318 C342 0.950 . S
H319 C343 0.951 . S
H320 C345 0.951 . S
H321 C347 0.950 . S
H322 C348 0.950 . S
H323 C350 0.950 . S
H324 C353 0.950 . S
H325 C354 0.950 . S
H326 C356 0.950 . S
H327 C357 0.950 . S
C328 H310 0.951 . S
C328 C329 1.366 . S
C328 C330 1.388 . S
C329 C328 1.366 . S
C329 C333 1.385 . S
C330 H311 0.951 . S
C330 C328 1.388 . S
C330 C331 1.366 . S
C331 C330 1.366 . S
C331 C332 1.414 . S
C331 C334 1.499 . S
C332 H312 0.950 . S
C332 C331 1.414 . S
C332 C333 1.374 . S
C333 H313 0.950 . S
C333 C329 1.385 . S
C333 C332 1.374 . S
C334 C331 1.499 . S
C334 C335 1.373 . S
C334 C336 1.389 . S
C335 H314 0.950 . S
C335 C334 1.373 . S
C335 C351 1.377 . S
C336 C334 1.389 . S
C336 C337 1.524 . S
C336 C350 1.377 . S
C337 C336 1.524 . S
C337 C338 1.397 . S
C337 C342 1.363 . S
C338 H315 0.950 . S
C338 C337 1.397 . S
C338 C339 1.334 . S
C339 H316 0.950 . S
C339 C338 1.334 . S
C339 C340 1.287 . S
C340 C339 1.287 . S
C340 C341 1.524 . S
C340 H359 0.913 . S
C341 H317 0.950 . S
C341 C340 1.524 . S
C341 C342 1.415 . S
C342 H318 0.950 . S
C342 C337 1.363 . S
C342 C341 1.415 . S
C343 H319 0.951 . S
C343 C344 1.366 . S
C343 C345 1.388 . S
C344 C343 1.366 . S
C344 C348 1.385 . S
C345 H320 0.951 . S
C345 C343 1.388 . S
C345 C346 1.366 . S
C346 C345 1.366 . S
C346 C347 1.414 . S
C346 C349 1.499 . S
C347 H321 0.950 . S
C347 C346 1.414 . S
C347 C348 1.374 . S
C348 H322 0.950 . S
C348 C344 1.385 . S
C348 C347 1.374 . S
C349 C346 1.499 . S
C349 C350 1.373 . S
C349 C351 1.389 . S
C350 H323 0.950 . S
C350 C336 1.377 . S
C350 C349 1.373 . S
C351 C335 1.377 . S
C351 C349 1.389 . S
C351 C352 1.524 . S
C352 C351 1.524 . S
C352 C353 1.397 . S
C352 C357 1.363 . S
C353 H324 0.950 . S
C353 C352 1.397 . S
C353 C354 1.334 . S
C354 H325 0.950 . S
C354 C353 1.334 . S
C354 C355 1.287 . S
C355 C354 1.287 . S
C355 C356 1.524 . S
C355 H358 0.999 . S
C356 H326 0.950 . S
C356 C355 1.524 . S
C356 C357 1.415 . S
C357 H327 0.950 . S
C357 C352 1.363 . S
C357 C356 1.415 . S
H358 C355 0.999 . S
H359 C340 0.913 . S
H360 C378 0.951 . S
H361 C380 0.951 . S
H362 C382 0.950 . S
H363 C383 0.950 . S
H364 C385 0.950 . S
H365 C388 0.950 . S
H366 C389 0.950 . S
H367 C391 0.950 . S
H368 C392 0.950 . S
H369 C393 0.951 . S
H370 C395 0.951 . S
H371 C397 0.950 . S
H372 C398 0.950 . S
H373 C400 0.950 . S
H374 C403 0.950 . S
H375 C404 0.950 . S
H376 C406 0.950 . S
H377 C407 0.950 . S
C378 H360 0.951 . S
C378 C379 1.366 . S
C378 C380 1.388 . S
C379 C378 1.366 . S
C379 C383 1.385 . S
C380 H361 0.951 . S
C380 C378 1.388 . S
C380 C381 1.366 . S
C381 C380 1.366 . S
C381 C382 1.414 . S
C381 C384 1.499 . S
C382 H362 0.950 . S
C382 C381 1.414 . S
C382 C383 1.374 . S
C383 H363 0.950 . S
C383 C379 1.385 . S
C383 C382 1.374 . S
C384 C381 1.499 . S
C384 C385 1.373 . S
C384 C386 1.389 . S
C385 H364 0.950 . S
C385 C384 1.373 . S
C385 C401 1.377 1_565 S
C386 C384 1.389 . S
C386 C387 1.524 . S
C386 C400 1.377 1_565 S
C387 C386 1.524 . S
C387 C388 1.397 . S
C387 C392 1.363 . S
C388 H365 0.950 . S
C388 C387 1.397 . S
C388 C389 1.334 . S
C389 H366 0.950 . S
C389 C388 1.334 . S
C389 C390 1.287 . S
C390 C389 1.287 . S
C390 C391 1.524 . S
C390 H409 0.913 . S
C391 H367 0.950 . S
C391 C390 1.524 . S
C391 C392 1.415 . S
C392 H368 0.950 . S
C392 C387 1.363 . S
C392 C391 1.415 . S
C393 H369 0.951 . S
C393 C394 1.366 . S
C393 C395 1.388 . S
C394 C393 1.366 . S
C394 C398 1.385 . S
C395 H370 0.951 . S
C395 C393 1.388 . S
C395 C396 1.366 . S
C396 C395 1.366 . S
C396 C397 1.414 . S
C396 C399 1.499 . S
C397 H371 0.950 . S
C397 C396 1.414 . S
C397 C398 1.374 . S
C398 H372 0.950 . S
C398 C394 1.385 . S
C398 C397 1.374 . S
C399 C396 1.499 . S
C399 C400 1.373 . S
C399 C401 1.389 . S
C400 H373 0.950 . S
C400 C386 1.377 1_545 S
C400 C399 1.373 . S
C401 C385 1.377 1_545 S
C401 C399 1.389 . S
C401 C402 1.524 . S
C402 C401 1.524 . S
C402 C403 1.397 . S
C402 C407 1.363 . S
C403 H374 0.950 . S
C403 C402 1.397 . S
C403 C404 1.334 . S
C404 H375 0.950 . S
C404 C403 1.334 . S
C404 C405 1.287 . S
C405 C404 1.287 . S
C405 C406 1.524 . S
C405 H408 0.999 . S
C406 H376 0.950 . S
C406 C405 1.524 . S
C406 C407 1.415 . S
C407 H377 0.950 . S
C407 C402 1.363 . S
C407 C406 1.415 . S
H408 C405 0.999 . S
H409 C390 0.913 . S
H410 C428 0.951 . S
H411 C430 0.951 . S
H412 C432 0.950 . S
H413 C433 0.950 . S
H414 C435 0.950 . S
H415 C438 0.950 . S
H416 C439 0.950 . S
H417 C441 0.950 . S
H418 C442 0.950 . S
H419 C443 0.951 . S
H420 C445 0.951 . S
H421 C447 0.950 . S
H422 C448 0.950 . S
H423 C450 0.950 . S
H424 C453 0.950 . S
H425 C454 0.950 . S
H426 C456 0.950 . S
H427 C457 0.950 . S
C428 H410 0.951 . S
C428 C429 1.366 . S
C428 C430 1.388 . S
C429 C428 1.366 . S
C429 C433 1.385 . S
C430 H411 0.951 . S
C430 C428 1.388 . S
C430 C431 1.366 . S
C431 C430 1.366 . S
C431 C432 1.414 . S
C431 C434 1.499 . S
C432 H412 0.950 . S
C432 C431 1.414 . S
C432 C433 1.374 . S
C433 H413 0.950 . S
C433 C429 1.385 . S
C433 C432 1.374 . S
C434 C431 1.499 . S
C434 C435 1.373 . S
C434 C436 1.389 . S
C435 H414 0.950 . S
C435 C434 1.373 . S
C435 C451 1.377 . S
C436 C434 1.389 . S
C436 C437 1.524 . S
C436 C450 1.377 . S
C437 C436 1.524 . S
C437 C438 1.397 . S
C437 C442 1.363 . S
C438 H415 0.950 . S
C438 C437 1.397 . S
C438 C439 1.334 . S
C439 H416 0.950 . S
C439 C438 1.334 . S
C439 C440 1.287 . S
C440 C439 1.287 . S
C440 C441 1.524 . S
C440 H459 0.913 . S
C441 H417 0.950 . S
C441 C440 1.524 . S
C441 C442 1.415 . S
C442 H418 0.950 . S
C442 C437 1.363 . S
C442 C441 1.415 . S
C443 H419 0.951 . S
C443 C444 1.366 . S
C443 C445 1.388 . S
C444 C443 1.366 . S
C444 C448 1.385 . S
C445 H420 0.951 . S
C445 C443 1.388 . S
C445 C446 1.366 . S
C446 C445 1.366 . S
C446 C447 1.414 . S
C446 C449 1.499 . S
C447 H421 0.950 . S
C447 C446 1.414 . S
C447 C448 1.374 . S
C448 H422 0.950 . S
C448 C444 1.385 . S
C448 C447 1.374 . S
C449 C446 1.499 . S
C449 C450 1.373 . S
C449 C451 1.389 . S
C450 H423 0.950 . S
C450 C436 1.377 . S
C450 C449 1.373 . S
C451 C435 1.377 . S
C451 C449 1.389 . S
C451 C452 1.524 . S
C452 C451 1.524 . S
C452 C453 1.397 . S
C452 C457 1.363 . S
C453 H424 0.950 . S
C453 C452 1.397 . S
C453 C454 1.334 . S
C454 H425 0.950 . S
C454 C453 1.334 . S
C454 C455 1.287 . S
C455 C454 1.287 . S
C455 C456 1.524 . S
C455 H458 0.999 . S
C456 H426 0.950 . S
C456 C455 1.524 . S
C456 C457 1.415 . S
C457 H427 0.950 . S
C457 C452 1.363 . S
C457 C456 1.415 . S
H458 C455 0.999 . S
H459 C440 0.913 . S
H460 C478 0.951 . S
H461 C480 0.951 . S
H462 C482 0.950 . S
H463 C483 0.950 . S
H464 C485 0.950 . S
H465 C488 0.950 . S
H466 C489 0.950 . S
H467 C491 0.950 . S
H468 C492 0.950 . S
H469 C493 0.951 . S
H470 C495 0.951 . S
H471 C497 0.950 . S
H472 C498 0.950 . S
H473 C500 0.950 . S
H474 C503 0.950 . S
H475 C504 0.950 . S
H476 C506 0.950 . S
H477 C507 0.950 . S
C478 H460 0.951 . S
C478 C479 1.366 . S
C478 C480 1.388 . S
C479 C478 1.366 . S
C479 C483 1.385 . S
C480 H461 0.951 . S
C480 C478 1.388 . S
C480 C481 1.366 . S
C481 C480 1.366 . S
C481 C482 1.414 . S
C481 C484 1.499 . S
C482 H462 0.950 . S
C482 C481 1.414 . S
C482 C483 1.374 . S
C483 H463 0.950 . S
C483 C479 1.385 . S
C483 C482 1.374 . S
C484 C481 1.499 . S
C484 C485 1.373 . S
C484 C486 1.389 . S
C485 H464 0.950 . S
C485 C484 1.373 . S
C485 C501 1.377 1_565 S
C486 C484 1.389 . S
C486 C487 1.524 . S
C486 C500 1.377 1_565 S
C487 C486 1.524 . S
C487 C488 1.397 . S
C487 C492 1.363 . S
C488 H465 0.950 . S
C488 C487 1.397 . S
C488 C489 1.334 . S
C489 H466 0.950 . S
C489 C488 1.334 . S
C489 C490 1.287 . S
C490 C489 1.287 . S
C490 C491 1.524 . S
C490 H509 0.913 . S
C491 H467 0.950 . S
C491 C490 1.524 . S
C491 C492 1.415 . S
C492 H468 0.950 . S
C492 C487 1.363 . S
C492 C491 1.415 . S
C493 H469 0.951 . S
C493 C494 1.366 . S
C493 C495 1.388 . S
C494 C493 1.366 . S
C494 C498 1.385 . S
C495 H470 0.951 . S
C495 C493 1.388 . S
C495 C496 1.366 . S
C496 C495 1.366 . S
C496 C497 1.414 . S
C496 C499 1.499 . S
C497 H471 0.950 . S
C497 C496 1.414 . S
C497 C498 1.374 . S
C498 H472 0.950 . S
C498 C494 1.385 . S
C498 C497 1.374 . S
C499 C496 1.499 . S
C499 C500 1.373 . S
C499 C501 1.389 . S
C500 H473 0.950 . S
C500 C486 1.377 1_545 S
C500 C499 1.373 . S
C501 C485 1.377 1_545 S
C501 C499 1.389 . S
C501 C502 1.524 . S
C502 C501 1.524 . S
C502 C503 1.397 . S
C502 C507 1.363 . S
C503 H474 0.950 . S
C503 C502 1.397 . S
C503 C504 1.334 . S
C504 H475 0.950 . S
C504 C503 1.334 . S
C504 C505 1.287 . S
C505 C504 1.287 . S
C505 C506 1.524 . S
C505 H508 0.999 . S
C506 H476 0.950 . S
C506 C505 1.524 . S
C506 C507 1.415 . S
C507 H477 0.950 . S
C507 C502 1.363 . S
C507 C506 1.415 . S
H508 C505 0.999 . S
H509 C490 0.913 . S
H510 C528 0.951 . S
H511 C530 0.951 . S
H512 C532 0.950 . S
H513 C533 0.950 . S
H514 C535 0.950 . S
H515 C538 0.950 . S
H516 C539 0.950 . S
H517 C541 0.950 . S
H518 C542 0.950 . S
H519 C543 0.951 . S
H520 C545 0.951 . S
H521 C547 0.950 . S
H522 C548 0.950 . S
H523 C550 0.950 . S
H524 C553 0.950 . S
H525 C554 0.950 . S
H526 C556 0.950 . S
H527 C557 0.950 . S
C528 H510 0.951 . S
C528 C529 1.366 . S
C528 C530 1.388 . S
C529 C528 1.366 . S
C529 C533 1.385 . S
C530 H511 0.951 . S
C530 C528 1.388 . S
C530 C531 1.366 . S
C531 C530 1.366 . S
C531 C532 1.414 . S
C531 C534 1.499 . S
C532 H512 0.950 . S
C532 C531 1.414 . S
C532 C533 1.374 . S
C533 H513 0.950 . S
C533 C529 1.385 . S
C533 C532 1.374 . S
C534 C531 1.499 . S
C534 C535 1.373 . S
C534 C536 1.389 . S
C535 H514 0.950 . S
C535 C534 1.373 . S
C535 C551 1.377 . S
C536 C534 1.389 . S
C536 C537 1.524 . S
C536 C550 1.377 . S
C537 C536 1.524 . S
C537 C538 1.397 . S
C537 C542 1.363 . S
C538 H515 0.950 . S
C538 C537 1.397 . S
C538 C539 1.334 . S
C539 H516 0.950 . S
C539 C538 1.334 . S
C539 C540 1.287 . S
C540 C539 1.287 . S
C540 C541 1.524 . S
C540 H559 0.913 . S
C541 H517 0.950 . S
C541 C540 1.524 . S
C541 C542 1.415 . S
C542 H518 0.950 . S
C542 C537 1.363 . S
C542 C541 1.415 . S
C543 H519 0.951 . S
C543 C544 1.366 . S
C543 C545 1.388 . S
C544 C543 1.366 . S
C544 C548 1.385 . S
C545 H520 0.951 . S
C545 C543 1.388 . S
C545 C546 1.366 . S
C546 C545 1.366 . S
C546 C547 1.414 . S
C546 C549 1.499 . S
C547 H521 0.950 . S
C547 C546 1.414 . S
C547 C548 1.374 . S
C548 H522 0.950 . S
C548 C544 1.385 . S
C548 C547 1.374 . S
C549 C546 1.499 . S
C549 C550 1.373 . S
C549 C551 1.389 . S
C550 H523 0.950 . S
C550 C536 1.377 . S
C550 C549 1.373 . S
C551 C535 1.377 . S
C551 C549 1.389 . S
C551 C552 1.524 . S
C552 C551 1.524 . S
C552 C553 1.397 . S
C552 C557 1.363 . S
C553 H524 0.950 . S
C553 C552 1.397 . S
C553 C554 1.334 . S
C554 H525 0.950 . S
C554 C553 1.334 . S
C554 C555 1.287 . S
C555 C554 1.287 . S
C555 C556 1.524 . S
C555 H558 0.999 . S
C556 H526 0.950 . S
C556 C555 1.524 . S
C556 C557 1.415 . S
C557 H527 0.950 . S
C557 C552 1.363 . S
C557 C556 1.415 . S
H558 C555 0.999 . S
H559 C540 0.913 . S
H560 C578 0.951 . S
H561 C580 0.951 . S
H562 C582 0.950 . S
H563 C583 0.950 . S
H564 C585 0.950 . S
H565 C588 0.950 . S
H566 C589 0.950 . S
H567 C591 0.950 1_556 S
H568 C592 0.950 . S
H569 C593 0.951 . S
H570 C595 0.951 . S
H571 C597 0.950 . S
H572 C598 0.950 . S
H573 C600 0.950 . S
H574 C603 0.950 . S
H575 C604 0.950 . S
H576 C606 0.950 1_554 S
H577 C607 0.950 . S
C578 H560 0.951 . S
C578 C579 1.366 1_556 S
C578 C580 1.388 . S
C579 C578 1.366 1_554 S
C579 C583 1.385 . S
C580 H561 0.951 . S
C580 C578 1.388 . S
C580 C581 1.366 1_556 S
C581 C580 1.366 1_554 S
C581 C582 1.414 . S
C581 C584 1.499 . S
C582 H562 0.950 . S
C582 C581 1.414 . S
C582 C583 1.374 . S
C583 H563 0.950 . S
C583 C579 1.385 . S
C583 C582 1.374 . S
C584 C581 1.499 . S
C584 C585 1.373 1_554 S
C584 C586 1.389 . S
C585 H564 0.950 . S
C585 C584 1.373 1_556 S
C585 C601 1.377 . S
C586 C584 1.389 . S
C586 C587 1.524 . S
C586 C600 1.377 . S
C587 C586 1.524 . S
C587 C588 1.397 . S
C587 C592 1.363 1_554 S
C588 H565 0.950 . S
C588 C587 1.397 . S
C588 C589 1.334 . S
C589 H566 0.950 . S
C589 C588 1.334 . S
C589 C590 1.287 . S
C590 C589 1.287 . S
C590 C591 1.524 . S
C590 H609 0.913 . S
C591 H567 0.950 1_554 S
C591 C590 1.524 . S
C591 C592 1.415 1_554 S
C592 H568 0.950 . S
C592 C587 1.363 1_556 S
C592 C591 1.415 1_556 S
C593 H569 0.951 . S
C593 C594 1.366 1_554 S
C593 C595 1.388 . S
C594 C593 1.366 1_556 S
C594 C598 1.385 . S
C595 H570 0.951 . S
C595 C593 1.388 . S
C595 C596 1.366 1_554 S
C596 C595 1.366 1_556 S
C596 C597 1.414 . S
C596 C599 1.499 . S
C597 H571 0.950 . S
C597 C596 1.414 . S
C597 C598 1.374 . S
C598 H572 0.950 . S
C598 C594 1.385 . S
C598 C597 1.374 . S
C599 C596 1.499 . S
C599 C600 1.373 1_556 S
C599 C601 1.389 . S
C600 H573 0.950 . S
C600 C586 1.377 . S
C600 C599 1.373 1_554 S
C601 C585 1.377 . S
C601 C599 1.389 . S
C601 C602 1.524 . S
C602 C601 1.524 . S
C602 C603 1.397 . S
C602 C607 1.363 1_556 S
C603 H574 0.950 . S
C603 C602 1.397 . S
C603 C604 1.334 . S
C604 H575 0.950 . S
C604 C603 1.334 . S
C604 C605 1.287 . S
C605 C604 1.287 . S
C605 C606 1.524 . S
C605 H608 0.999 . S
C606 H576 0.950 1_556 S
C606 C605 1.524 . S
C606 C607 1.415 1_556 S
C607 H577 0.950 . S
C607 C602 1.363 1_554 S
C607 C606 1.415 1_554 S
H608 C605 0.999 . S
H609 C590 0.913 . S
H610 C628 0.951 . S
H611 C630 0.951 . S
H612 C632 0.950 . S
H613 C633 0.950 . S
H614 C635 0.950 . S
H615 C638 0.950 . S
H616 C639 0.950 . S
H617 C641 0.950 . S
H618 C642 0.950 . S
H619 C643 0.951 . S
H620 C645 0.951 . S
H621 C647 0.950 . S
H622 C648 0.950 . S
H623 C650 0.950 . S
H624 C653 0.950 . S
H625 C654 0.950 . S
H626 C656 0.950 . S
H627 C657 0.950 . S
C628 H610 0.951 . S
C628 C629 1.366 . S
C628 C630 1.388 . S
C629 C628 1.366 . S
C629 C633 1.385 1_554 S
C630 H611 0.951 . S
C630 C628 1.388 . S
C630 C631 1.366 . S
C631 C630 1.366 . S
C631 C632 1.414 1_554 S
C631 C634 1.499 . S
C632 H612 0.950 . S
C632 C631 1.414 1_556 S
C632 C633 1.374 . S
C633 H613 0.950 . S
C633 C629 1.385 1_556 S
C633 C632 1.374 . S
C634 C631 1.499 . S
C634 C635 1.373 1_554 S
C634 C636 1.389 . S
C635 H614 0.950 . S
C635 C634 1.373 1_556 S
C635 C651 1.377 1_565 S
C636 C634 1.389 . S
C636 C637 1.524 . S
C636 C650 1.377 1_565 S
C637 C636 1.524 . S
C637 C638 1.397 . S
C637 C642 1.363 . S
C638 H615 0.950 . S
C638 C637 1.397 . S
C638 C639 1.334 . S
C639 H616 0.950 . S
C639 C638 1.334 . S
C639 C640 1.287 . S
C640 C639 1.287 . S
C640 C641 1.524 . S
C640 H659 0.913 . S
C641 H617 0.950 . S
C641 C640 1.524 . S
C641 C642 1.415 . S
C642 H618 0.950 . S
C642 C637 1.363 . S
C642 C641 1.415 . S
C643 H619 0.951 . S
C643 C644 1.366 . S
C643 C645 1.388 . S
C644 C643 1.366 . S
C644 C648 1.385 1_556 S
C645 H620 0.951 . S
C645 C643 1.388 . S
C645 C646 1.366 . S
C646 C645 1.366 . S
C646 C647 1.414 1_556 S
C646 C649 1.499 . S
C647 H621 0.950 . S
C647 C646 1.414 1_554 S
C647 C648 1.374 . S
C648 H622 0.950 . S
C648 C644 1.385 1_554 S
C648 C647 1.374 . S
C649 C646 1.499 . S
C649 C650 1.373 1_556 S
C649 C651 1.389 . S
C650 H623 0.950 . S
C650 C636 1.377 1_545 S
C650 C649 1.373 1_554 S
C651 C635 1.377 1_545 S
C651 C649 1.389 . S
C651 C652 1.524 . S
C652 C651 1.524 . S
C652 C653 1.397 . S
C652 C657 1.363 . S
C653 H624 0.950 . S
C653 C652 1.397 . S
C653 C654 1.334 . S
C654 H625 0.950 . S
C654 C653 1.334 . S
C654 C655 1.287 . S
C655 C654 1.287 . S
C655 C656 1.524 . S
C655 H658 0.999 . S
C656 H626 0.950 . S
C656 C655 1.524 . S
C656 C657 1.415 . S
C657 H627 0.950 . S
C657 C652 1.363 . S
C657 C656 1.415 . S
H658 C655 0.999 . S
H659 C640 0.913 . S
H660 C678 0.951 . S
H661 C680 0.951 . S
H662 C682 0.950 . S
H663 C683 0.950 . S
H664 C685 0.950 . S
H665 C688 0.950 . S
H666 C689 0.950 . S
H667 C691 0.950 . S
H668 C692 0.950 . S
H669 C693 0.951 . S
H670 C695 0.951 . S
H671 C697 0.950 . S
H672 C698 0.950 . S
H673 C700 0.950 . S
H674 C703 0.950 . S
H675 C704 0.950 . S
H676 C706 0.950 . S
H677 C707 0.950 . S
C678 H660 0.951 . S
C678 C679 1.366 1_554 S
C678 C680 1.388 . S
C679 C678 1.366 1_556 S
C679 C683 1.385 . S
C680 H661 0.951 . S
C680 C678 1.388 . S
C680 C681 1.366 1_554 S
C681 C680 1.366 1_556 S
C681 C682 1.414 . S
C681 C684 1.499 . S
C682 H662 0.950 . S
C682 C681 1.414 . S
C682 C683 1.374 . S
C683 H663 0.950 . S
C683 C679 1.385 . S
C683 C682 1.374 . S
C684 C681 1.499 . S
C684 C685 1.373 1_556 S
C684 C686 1.389 . S
C685 H664 0.950 . S
C685 C684 1.373 1_554 S
C685 C701 1.377 . S
C686 C684 1.389 . S
C686 C687 1.524 . S
C686 C700 1.377 . S
C687 C686 1.524 . S
C687 C688 1.397 . S
C687 C692 1.363 . S
C688 H665 0.950 . S
C688 C687 1.397 . S
C688 C689 1.334 . S
C689 H666 0.950 . S
C689 C688 1.334 . S
C689 C690 1.287 . S
C690 C689 1.287 . S
C690 C691 1.524 . S
C690 H709 0.913 . S
C691 H667 0.950 . S
C691 C690 1.524 . S
C691 C692 1.415 . S
C692 H668 0.950 . S
C692 C687 1.363 . S
C692 C691 1.415 . S
C693 H669 0.951 . S
C693 C694 1.366 1_556 S
C693 C695 1.388 . S
C694 C693 1.366 1_554 S
C694 C698 1.385 . S
C695 H670 0.951 . S
C695 C693 1.388 . S
C695 C696 1.366 1_556 S
C696 C695 1.366 1_554 S
C696 C697 1.414 . S
C696 C699 1.499 . S
C697 H671 0.950 . S
C697 C696 1.414 . S
C697 C698 1.374 . S
C698 H672 0.950 . S
C698 C694 1.385 . S
C698 C697 1.374 . S
C699 C696 1.499 . S
C699 C700 1.373 1_554 S
C699 C701 1.389 . S
C700 H673 0.950 . S
C700 C686 1.377 . S
C700 C699 1.373 1_556 S
C701 C685 1.377 . S
C701 C699 1.389 . S
C701 C702 1.524 . S
C702 C701 1.524 . S
C702 C703 1.397 . S
C702 C707 1.363 . S
C703 H674 0.950 . S
C703 C702 1.397 . S
C703 C704 1.334 . S
C704 H675 0.950 . S
C704 C703 1.334 . S
C704 C705 1.287 . S
C705 C704 1.287 . S
C705 C706 1.524 . S
C705 H708 0.999 . S
C706 H676 0.950 . S
C706 C705 1.524 . S
C706 C707 1.415 . S
C707 H677 0.950 . S
C707 C702 1.363 . S
C707 C706 1.415 . S
H708 C705 0.999 . S
H709 C690 0.913 . S
H710 C728 0.951 . S
H711 C730 0.951 . S
H712 C732 0.950 . S
H713 C733 0.950 . S
H714 C735 0.950 . S
H715 C738 0.950 . S
H716 C739 0.950 . S
H717 C741 0.950 . S
H718 C742 0.950 . S
H719 C743 0.951 . S
H720 C745 0.951 . S
H721 C747 0.950 . S
H722 C748 0.950 . S
H723 C750 0.950 . S
H724 C753 0.950 . S
H725 C754 0.950 . S
H726 C756 0.950 . S
H727 C757 0.950 . S
C728 H710 0.951 . S
C728 C729 1.366 1_554 S
C728 C730 1.388 . S
C729 C728 1.366 1_556 S
C729 C733 1.385 . S
C730 H711 0.951 . S
C730 C728 1.388 . S
C730 C731 1.366 1_554 S
C731 C730 1.366 1_556 S
C731 C732 1.414 . S
C731 C734 1.499 . S
C732 H712 0.950 . S
C732 C731 1.414 . S
C732 C733 1.374 . S
C733 H713 0.950 . S
C733 C729 1.385 . S
C733 C732 1.374 . S
C734 C731 1.499 . S
C734 C735 1.373 . S
C734 C736 1.389 1_556 S
C735 H714 0.950 . S
C735 C734 1.373 . S
C735 C751 1.377 1_545 S
C736 C734 1.389 1_554 S
C736 C737 1.524 . S
C736 C750 1.377 1_545 S
C737 C736 1.524 . S
C737 C738 1.397 . S
C737 C742 1.363 . S
C738 H715 0.950 . S
C738 C737 1.397 . S
C738 C739 1.334 . S
C739 H716 0.950 . S
C739 C738 1.334 . S
C739 C740 1.287 . S
C740 C739 1.287 . S
C740 C741 1.524 . S
C740 H759 0.913 . S
C741 H717 0.950 . S
C741 C740 1.524 . S
C741 C742 1.415 . S
C742 H718 0.950 . S
C742 C737 1.363 . S
C742 C741 1.415 . S
C743 H719 0.951 . S
C743 C744 1.366 1_556 S
C743 C745 1.388 . S
C744 C743 1.366 1_554 S
C744 C748 1.385 . S
C745 H720 0.951 . S
C745 C743 1.388 . S
C745 C746 1.363 1_556 S
C746 C745 1.363 1_554 S
C746 C747 1.418 . S
C746 C749 1.498 1_554 S
C747 H721 0.950 . S
C747 C746 1.418 . S
C747 C748 1.374 . S
C748 H722 0.950 . S
C748 C744 1.385 . S
C748 C747 1.374 . S
C749 C746 1.498 1_556 S
C749 C750 1.373 1_556 S
C749 C751 1.389 . S
C750 H723 0.950 . S
C750 C736 1.377 1_565 S
C750 C749 1.373 1_554 S
C751 C735 1.377 1_565 S
C751 C749 1.389 . S
C751 C752 1.524 . S
C752 C751 1.524 . S
C752 C753 1.397 . S
C752 C757 1.363 . S
C753 H724 0.950 . S
C753 C752 1.397 . S
C753 C754 1.334 . S
C754 H725 0.950 . S
C754 C753 1.334 . S
C754 C755 1.287 . S
C755 C754 1.287 . S
C755 C756 1.524 . S
C755 H758 0.999 . S
C756 H726 0.950 . S
C756 C755 1.524 . S
C756 C757 1.415 . S
C757 H727 0.950 . S
C757 C752 1.363 . S
C757 C756 1.415 . S
H758 C755 0.999 . S
H759 C740 0.913 . S
H760 C778 0.951 . S
H761 C780 0.951 . S
H762 C782 0.950 . S
H763 C783 0.950 . S
H764 C785 0.950 . S
H765 C788 0.950 . S
H766 C789 0.950 . S
H767 C791 0.950 . S
H768 C792 0.950 . S
H769 C793 0.951 . S
H770 C795 0.951 . S
H771 C797 0.950 . S
H772 C798 0.950 . S
H773 C800 0.950 . S
H774 C803 0.950 . S
H775 C804 0.950 . S
H776 C806 0.950 . S
H777 C807 0.950 . S
C778 H760 0.951 . S
C778 C779 1.366 . S
C778 C780 1.388 . S
C779 C778 1.366 . S
C779 C783 1.385 . S
C780 H761 0.951 . S
C780 C778 1.388 . S
C780 C781 1.366 . S
C781 C780 1.366 . S
C781 C782 1.414 . S
C781 C784 1.499 . S
C782 H762 0.950 . S
C782 C781 1.414 . S
C782 C783 1.374 . S
C783 H763 0.950 . S
C783 C779 1.385 . S
C783 C782 1.374 . S
C784 C781 1.499 . S
C784 C785 1.373 . S
C784 C786 1.389 . S
C785 H764 0.950 . S
C785 C784 1.373 . S
C785 C801 1.377 1_554 S
C786 C784 1.389 . S
C786 C787 1.524 . S
C786 C800 1.377 1_554 S
C787 C786 1.524 . S
C787 C788 1.397 . S
C787 C792 1.363 . S
C788 H765 0.950 . S
C788 C787 1.397 . S
C788 C789 1.334 . S
C789 H766 0.950 . S
C789 C788 1.334 . S
C789 C790 1.287 . S
C790 C789 1.287 . S
C790 C791 1.524 . S
C790 H809 0.913 . S
C791 H767 0.950 . S
C791 C790 1.524 . S
C791 C792 1.415 . S
C792 H768 0.950 . S
C792 C787 1.363 . S
C792 C791 1.415 . S
C793 H769 0.951 . S
C793 C794 1.366 . S
C793 C795 1.388 . S
C794 C793 1.366 . S
C794 C798 1.385 . S
C795 H770 0.951 . S
C795 C793 1.388 . S
C795 C796 1.366 . S
C796 C795 1.366 . S
C796 C797 1.414 . S
C796 C799 1.499 . S
C797 H771 0.950 . S
C797 C796 1.414 . S
C797 C798 1.374 . S
C798 H772 0.950 . S
C798 C794 1.385 . S
C798 C797 1.374 . S
C799 C796 1.499 . S
C799 C800 1.373 . S
C799 C801 1.389 . S
C800 H773 0.950 . S
C800 C786 1.377 1_556 S
C800 C799 1.373 . S
C801 C785 1.377 1_556 S
C801 C799 1.389 . S
C801 C802 1.524 . S
C802 C801 1.524 . S
C802 C803 1.397 . S
C802 C807 1.363 . S
C803 H774 0.950 . S
C803 C802 1.397 . S
C803 C804 1.334 . S
C804 H775 0.950 . S
C804 C803 1.334 . S
C804 C805 1.287 . S
C805 C804 1.287 . S
C805 C806 1.524 . S
C805 H808 0.999 . S
C806 H776 0.950 . S
C806 C805 1.524 . S
C806 C807 1.415 . S
C807 H777 0.950 . S
C807 C802 1.363 . S
C807 C806 1.415 . S
H808 C805 0.999 . S
H809 C790 0.913 . S
H810 C828 0.951 . S
H811 C830 0.951 . S
H812 C832 0.950 . S
H813 C833 0.950 . S
H814 C835 0.950 . S
H815 C838 0.950 . S
H816 C839 0.950 . S
H817 C841 0.950 . S
H818 C842 0.950 . S
H819 C843 0.951 . S
H820 C845 0.951 . S
H821 C847 0.950 . S
H822 C848 0.950 . S
H823 C850 0.950 . S
H824 C853 0.950 . S
H825 C854 0.950 . S
H826 C856 0.950 . S
H827 C857 0.950 . S
C828 H810 0.951 . S
C828 C829 1.366 . S
C828 C830 1.388 . S
C829 C828 1.366 . S
C829 C833 1.385 . S
C830 H811 0.951 . S
C830 C828 1.388 . S
C830 C831 1.366 . S
C831 C830 1.366 . S
C831 C832 1.414 . S
C831 C834 1.499 . S
C832 H812 0.950 . S
C832 C831 1.414 . S
C832 C833 1.374 . S
C833 H813 0.950 . S
C833 C829 1.385 . S
C833 C832 1.374 . S
C834 C831 1.499 . S
C834 C835 1.373 . S
C834 C836 1.389 . S
C835 H814 0.950 . S
C835 C834 1.373 . S
C835 C851 1.377 1_554 S
C836 C834 1.389 . S
C836 C837 1.524 . S
C836 C850 1.377 1_554 S
C837 C836 1.524 . S
C837 C838 1.397 . S
C837 C842 1.363 . S
C838 H815 0.950 . S
C838 C837 1.397 . S
C838 C839 1.334 . S
C839 H816 0.950 . S
C839 C838 1.334 . S
C839 C840 1.287 . S
C840 C839 1.287 . S
C840 C841 1.524 . S
C840 H859 0.913 . S
C841 H817 0.950 . S
C841 C840 1.524 . S
C841 C842 1.415 . S
C842 H818 0.950 . S
C842 C837 1.363 . S
C842 C841 1.415 . S
C843 H819 0.951 . S
C843 C844 1.366 . S
C843 C845 1.388 . S
C844 C843 1.366 . S
C844 C848 1.385 . S
C845 H820 0.951 . S
C845 C843 1.388 . S
C845 C846 1.366 . S
C846 C845 1.366 . S
C846 C847 1.414 . S
C846 C849 1.499 . S
C847 H821 0.950 . S
C847 C846 1.414 . S
C847 C848 1.374 . S
C848 H822 0.950 . S
C848 C844 1.385 . S
C848 C847 1.374 . S
C849 C846 1.499 . S
C849 C850 1.373 . S
C849 C851 1.389 . S
C850 H823 0.950 . S
C850 C836 1.377 1_556 S
C850 C849 1.373 . S
C851 C835 1.377 1_556 S
C851 C849 1.389 . S
C851 C852 1.524 . S
C852 C851 1.524 . S
C852 C853 1.397 . S
C852 C857 1.363 . S
C853 H824 0.950 . S
C853 C852 1.397 . S
C853 C854 1.334 . S
C854 H825 0.950 . S
C854 C853 1.334 . S
C854 C855 1.287 . S
C855 C854 1.287 . S
C855 C856 1.524 . S
C855 H858 0.999 . S
C856 H826 0.950 . S
C856 C855 1.524 . S
C856 C857 1.415 . S
C857 H827 0.950 . S
C857 C852 1.363 . S
C857 C856 1.415 . S
H858 C855 0.999 . S
H859 C840 0.913 . S
H860 C878 0.951 . S
H861 C880 0.951 . S
H862 C882 0.950 . S
H863 C883 0.950 . S
H864 C885 0.950 . S
H865 C888 0.950 . S
H866 C889 0.950 . S
H867 C891 0.950 . S
H868 C892 0.950 1_556 S
H869 C893 0.951 . S
H870 C895 0.951 . S
H871 C897 0.950 . S
H872 C898 0.950 . S
H873 C900 0.950 . S
H874 C903 0.950 . S
H875 C904 0.950 . S
H876 C906 0.950 . S
H877 C907 0.950 . S
C878 H860 0.951 . S
C878 C879 1.366 . S
C878 C880 1.388 . S
C879 C878 1.366 . S
C879 C883 1.385 . S
C880 H861 0.951 . S
C880 C878 1.388 . S
C880 C881 1.366 . S
C881 C880 1.366 . S
C881 C882 1.414 . S
C881 C884 1.499 . S
C882 H862 0.950 . S
C882 C881 1.414 . S
C882 C883 1.374 . S
C883 H863 0.950 . S
C883 C879 1.385 . S
C883 C882 1.374 . S
C884 C881 1.499 . S
C884 C885 1.373 . S
C884 C886 1.389 . S
C885 H864 0.950 . S
C885 C884 1.373 . S
C885 C901 1.377 1_554 S
C886 C884 1.389 . S
C886 C887 1.524 . S
C886 C900 1.377 1_554 S
C887 C886 1.524 . S
C887 C888 1.397 . S
C887 C892 1.363 . S
C888 H865 0.950 . S
C888 C887 1.397 . S
C888 C889 1.334 . S
C889 H866 0.950 . S
C889 C888 1.334 . S
C889 C890 1.287 . S
C890 C889 1.287 . S
C890 C891 1.524 . S
C890 H909 0.913 . S
C891 H867 0.950 . S
C891 C890 1.524 . S
C891 C892 1.415 . S
C892 H868 0.950 1_554 S
C892 C887 1.363 . S
C892 C891 1.415 . S
C893 H869 0.951 . S
C893 C894 1.366 . S
C893 C895 1.388 . S
C894 C893 1.366 . S
C894 C898 1.385 . S
C895 H870 0.951 . S
C895 C893 1.388 . S
C895 C896 1.366 . S
C896 C895 1.366 . S
C896 C897 1.414 . S
C896 C899 1.499 . S
C897 H871 0.950 . S
C897 C896 1.414 . S
C897 C898 1.374 . S
C898 H872 0.950 . S
C898 C894 1.385 . S
C898 C897 1.374 . S
C899 C896 1.499 . S
C899 C900 1.373 . S
C899 C901 1.389 . S
C900 H873 0.950 . S
C900 C886 1.377 1_556 S
C900 C899 1.373 . S
C901 C885 1.377 1_556 S
C901 C899 1.389 . S
C901 C902 1.524 . S
C902 C901 1.524 . S
C902 C903 1.397 . S
C902 C907 1.363 . S
C903 H874 0.950 . S
C903 C902 1.397 . S
C903 C904 1.334 . S
C904 H875 0.950 . S
C904 C903 1.334 . S
C904 C905 1.287 . S
C905 C904 1.287 . S
C905 C906 1.524 . S
C905 H908 0.999 . S
C906 H876 0.950 . S
C906 C905 1.524 . S
C906 C907 1.415 . S
C907 H877 0.950 . S
C907 C902 1.363 . S
C907 C906 1.415 . S
H908 C905 0.999 . S
H909 C890 0.913 . S
H910 C928 0.951 . S
H911 C930 0.951 . S
H912 C932 0.950 . S
H913 C933 0.950 . S
H914 C935 0.950 . S
H915 C938 0.950 . S
H916 C939 0.950 . S
H917 C941 0.950 . S
H918 C942 0.950 . S
H919 C943 0.951 . S
H920 C945 0.951 . S
H921 C947 0.950 . S
H922 C948 0.950 . S
H923 C950 0.950 . S
H924 C953 0.950 . S
H925 C954 0.950 . S
H926 C956 0.950 . S
H927 C957 0.950 . S
C928 H910 0.951 . S
C928 C929 1.366 . S
C928 C930 1.388 . S
C929 C928 1.366 . S
C929 C933 1.385 . S
C930 H911 0.951 . S
C930 C928 1.388 . S
C930 C931 1.366 . S
C931 C930 1.366 . S
C931 C932 1.414 . S
C931 C934 1.499 . S
C932 H912 0.950 . S
C932 C931 1.414 . S
C932 C933 1.374 . S
C933 H913 0.950 . S
C933 C929 1.385 . S
C933 C932 1.374 . S
C934 C931 1.499 . S
C934 C935 1.373 . S
C934 C936 1.389 . S
C935 H914 0.950 . S
C935 C934 1.373 . S
C935 C951 1.377 1_556 S
C936 C934 1.389 . S
C936 C937 1.524 . S
C936 C950 1.377 1_556 S
C937 C936 1.524 . S
C937 C938 1.397 . S
C937 C942 1.363 . S
C938 H915 0.950 . S
C938 C937 1.397 . S
C938 C939 1.334 . S
C939 H916 0.950 . S
C939 C938 1.334 . S
C939 C940 1.287 . S
C940 C939 1.287 . S
C940 C941 1.524 . S
C940 H959 0.913 . S
C941 H917 0.950 . S
C941 C940 1.524 . S
C941 C942 1.415 . S
C942 H918 0.950 . S
C942 C937 1.363 . S
C942 C941 1.415 . S
C943 H919 0.951 . S
C943 C944 1.366 . S
C943 C945 1.388 . S
C944 C943 1.366 . S
C944 C948 1.385 . S
C945 H920 0.951 . S
C945 C943 1.388 . S
C945 C946 1.366 . S
C946 C945 1.366 . S
C946 C947 1.414 . S
C946 C949 1.499 . S
C947 H921 0.950 . S
C947 C946 1.414 . S
C947 C948 1.374 . S
C948 H922 0.950 . S
C948 C944 1.385 . S
C948 C947 1.374 . S
C949 C946 1.499 . S
C949 C950 1.373 . S
C949 C951 1.389 . S
C950 H923 0.950 . S
C950 C936 1.377 1_554 S
C950 C949 1.373 . S
C951 C935 1.377 1_554 S
C951 C949 1.389 . S
C951 C952 1.524 . S
C952 C951 1.524 . S
C952 C953 1.397 . S
C952 C957 1.363 . S
C953 H924 0.950 . S
C953 C952 1.397 . S
C953 C954 1.334 . S
C954 H925 0.950 . S
C954 C953 1.334 . S
C954 C955 1.287 . S
C955 C954 1.287 . S
C955 C956 1.524 . S
C955 H958 0.999 . S
C956 H926 0.950 . S
C956 C955 1.524 . S
C956 C957 1.415 . S
C957 H927 0.950 . S
C957 C952 1.363 . S
C957 C956 1.415 . S
H958 C955 0.999 . S
H959 C940 0.913 . S
H960 C978 0.951 . S
H961 C980 0.951 . S
H962 C982 0.950 . S
H963 C983 0.950 . S
H964 C985 0.950 . S
H965 C988 0.950 . S
H966 C989 0.950 . S
H967 C991 0.950 . S
H968 C992 0.950 . S
H969 C993 0.951 . S
H970 C995 0.951 . S
H971 C997 0.950 . S
H972 C998 0.950 . S
H973 C1000 0.950 . S
H974 C1003 0.950 . S
H975 C1004 0.950 . S
H976 C1006 0.950 . S
H977 C1007 0.950 . S
C978 H960 0.951 . S
C978 C979 1.366 . S
C978 C980 1.388 . S
C979 C978 1.366 . S
C979 C983 1.385 . S
C980 H961 0.951 . S
C980 C978 1.388 . S
C980 C981 1.366 . S
C981 C980 1.366 . S
C981 C982 1.414 . S
C981 C984 1.499 . S
C982 H962 0.950 . S
C982 C981 1.414 . S
C982 C983 1.374 . S
C983 H963 0.950 . S
C983 C979 1.385 . S
C983 C982 1.374 . S
C984 C981 1.499 . S
C984 C985 1.373 . S
C984 C986 1.389 . S
C985 H964 0.950 . S
C985 C984 1.373 . S
C985 C1001 1.377 . S
C986 C984 1.389 . S
C986 C987 1.524 . S
C986 C1000 1.377 . S
C987 C986 1.524 . S
C987 C988 1.397 . S
C987 C992 1.363 . S
C988 H965 0.950 . S
C988 C987 1.397 . S
C988 C989 1.334 . S
C989 H966 0.950 . S
C989 C988 1.334 . S
C989 C990 1.287 . S
C990 C989 1.287 . S
C990 C991 1.524 . S
C990 H1009 0.913 . S
C991 H967 0.950 . S
C991 C990 1.524 . S
C991 C992 1.415 . S
C992 H968 0.950 . S
C992 C987 1.363 . S
C992 C991 1.415 . S
C993 H969 0.951 . S
C993 C994 1.366 . S
C993 C995 1.388 . S
C994 C993 1.366 . S
C994 C998 1.385 . S
C995 H970 0.951 . S
C995 C993 1.388 . S
C995 C996 1.366 . S
C996 C995 1.366 . S
C996 C997 1.414 . S
C996 C999 1.499 . S
C997 H971 0.950 . S
C997 C996 1.414 . S
C997 C998 1.374 . S
C998 H972 0.950 . S
C998 C994 1.385 . S
C998 C997 1.374 . S
C999 C996 1.499 . S
C999 C1000 1.373 . S
C999 C1001 1.389 . S
C1000 H973 0.950 . S
C1000 C986 1.377 . S
C1000 C999 1.373 . S
C1001 C985 1.377 . S
C1001 C999 1.389 . S
C1001 C1002 1.524 . S
C1002 C1001 1.524 . S
C1002 C1003 1.397 . S
C1002 C1007 1.363 . S
C1003 H974 0.950 . S
C1003 C1002 1.397 . S
C1003 C1004 1.334 . S
C1004 H975 0.950 . S
C1004 C1003 1.334 . S
C1004 C1005 1.287 . S
C1005 C1004 1.287 . S
C1005 C1006 1.524 . S
C1005 H1008 0.999 . S
C1006 H976 0.950 . S
C1006 C1005 1.524 . S
C1006 C1007 1.415 . S
C1007 H977 0.950 . S
C1007 C1002 1.363 . S
C1007 C1006 1.415 . S
H1008 C1005 0.999 . S
H1009 C990 0.913 . S
H1010 C1028 0.951 . S
H1011 C1030 0.951 . S
H1012 C1032 0.950 . S
H1013 C1033 0.950 . S
H1014 C1035 0.950 . S
H1015 C1038 0.950 . S
H1016 C1039 0.950 . S
H1017 C1041 0.950 . S
H1018 C1042 0.950 . S
H1019 C1043 0.951 . S
H1020 C1045 0.951 . S
H1021 C1047 0.950 . S
H1022 C1048 0.950 . S
H1023 C1050 0.950 . S
H1024 C1053 0.950 . S
H1025 C1054 0.950 . S
H1026 C1056 0.950 . S
H1027 C1057 0.950 . S
C1028 H1010 0.951 . S
C1028 C1029 1.366 . S
C1028 C1030 1.388 . S
C1029 C1028 1.366 . S
C1029 C1033 1.385 . S
C1030 H1011 0.951 . S
C1030 C1028 1.388 . S
C1030 C1031 1.366 . S
C1031 C1030 1.366 . S
C1031 C1032 1.414 . S
C1031 C1034 1.499 . S
C1032 H1012 0.950 . S
C1032 C1031 1.414 . S
C1032 C1033 1.374 . S
C1033 H1013 0.950 . S
C1033 C1029 1.385 . S
C1033 C1032 1.374 . S
C1034 C1031 1.499 . S
C1034 C1035 1.373 . S
C1034 C1036 1.389 . S
C1035 H1014 0.950 . S
C1035 C1034 1.373 . S
C1035 C1051 1.377 . S
C1036 C1034 1.389 . S
C1036 C1037 1.524 . S
C1036 C1050 1.377 . S
C1037 C1036 1.524 . S
C1037 C1038 1.397 . S
C1037 C1042 1.363 . S
C1038 H1015 0.950 . S
C1038 C1037 1.397 . S
C1038 C1039 1.334 . S
C1039 H1016 0.950 . S
C1039 C1038 1.334 . S
C1039 C1040 1.287 . S
C1040 C1039 1.287 . S
C1040 C1041 1.524 . S
C1040 H1059 0.913 . S
C1041 H1017 0.950 . S
C1041 C1040 1.524 . S
C1041 C1042 1.415 . S
C1042 H1018 0.950 . S
C1042 C1037 1.363 . S
C1042 C1041 1.415 . S
C1043 H1019 0.951 . S
C1043 C1044 1.366 . S
C1043 C1045 1.388 . S
C1044 C1043 1.366 . S
C1044 C1048 1.385 . S
C1045 H1020 0.951 . S
C1045 C1043 1.388 . S
C1045 C1046 1.366 . S
C1046 C1045 1.366 . S
C1046 C1047 1.414 . S
C1046 C1049 1.499 . S
C1047 H1021 0.950 . S
C1047 C1046 1.414 . S
C1047 C1048 1.374 . S
C1048 H1022 0.950 . S
C1048 C1044 1.385 . S
C1048 C1047 1.374 . S
C1049 C1046 1.499 . S
C1049 C1050 1.373 . S
C1049 C1051 1.389 . S
C1050 H1023 0.950 . S
C1050 C1036 1.377 . S
C1050 C1049 1.373 . S
C1051 C1035 1.377 . S
C1051 C1049 1.389 . S
C1051 C1052 1.524 . S
C1052 C1051 1.524 . S
C1052 C1053 1.397 . S
C1052 C1057 1.363 . S
C1053 H1024 0.950 . S
C1053 C1052 1.397 . S
C1053 C1054 1.334 . S
C1054 H1025 0.950 . S
C1054 C1053 1.334 . S
C1054 C1055 1.287 . S
C1055 C1054 1.287 . S
C1055 C1056 1.524 . S
C1055 H1058 0.999 . S
C1056 H1026 0.950 . S
C1056 C1055 1.524 . S
C1056 C1057 1.415 . S
C1057 H1027 0.950 . S
C1057 C1052 1.363 . S
C1057 C1056 1.415 . S
H1058 C1055 0.999 . S
H1059 C1040 0.913 . S
H1060 C1078 0.951 . S
H1061 C1080 0.951 . S
H1062 C1082 0.950 . S
H1063 C1083 0.950 . S
H1064 C1085 0.950 . S
H1065 C1088 0.950 . S
H1066 C1089 0.950 . S
H1067 C1091 0.950 . S
H1068 C1092 0.950 . S
H1069 C1093 0.951 . S
H1070 C1095 0.951 . S
H1071 C1097 0.950 . S
H1072 C1098 0.950 . S
H1073 C1100 0.950 . S
H1074 C1103 0.950 . S
H1075 C1104 0.950 . S
H1076 C1106 0.950 . S
H1077 C1107 0.950 . S
C1078 H1060 0.951 . S
C1078 C1079 1.366 . S
C1078 C1080 1.388 . S
C1079 C1078 1.366 . S
C1079 C1083 1.385 . S
C1080 H1061 0.951 . S
C1080 C1078 1.388 . S
C1080 C1081 1.366 . S
C1081 C1080 1.366 . S
C1081 C1082 1.414 . S
C1081 C1084 1.499 . S
C1082 H1062 0.950 . S
C1082 C1081 1.414 . S
C1082 C1083 1.374 . S
C1083 H1063 0.950 . S
C1083 C1079 1.385 . S
C1083 C1082 1.374 . S
C1084 C1081 1.499 . S
C1084 C1085 1.373 . S
C1084 C1086 1.389 . S
C1085 H1064 0.950 . S
C1085 C1084 1.373 . S
C1085 C1101 1.377 . S
C1086 C1084 1.389 . S
C1086 C1087 1.524 . S
C1086 C1100 1.377 . S
C1087 C1086 1.524 . S
C1087 C1088 1.397 . S
C1087 C1092 1.363 . S
C1088 H1065 0.950 . S
C1088 C1087 1.397 . S
C1088 C1089 1.334 . S
C1089 H1066 0.950 . S
C1089 C1088 1.334 . S
C1089 C1090 1.287 . S
C1090 C1089 1.287 . S
C1090 C1091 1.524 . S
C1090 H1109 0.913 . S
C1091 H1067 0.950 . S
C1091 C1090 1.524 . S
C1091 C1092 1.415 . S
C1092 H1068 0.950 . S
C1092 C1087 1.363 . S
C1092 C1091 1.415 . S
C1093 H1069 0.951 . S
C1093 C1094 1.366 . S
C1093 C1095 1.388 . S
C1094 C1093 1.366 . S
C1094 C1098 1.385 . S
C1095 H1070 0.951 . S
C1095 C1093 1.388 . S
C1095 C1096 1.366 . S
C1096 C1095 1.366 . S
C1096 C1097 1.414 . S
C1096 C1099 1.499 . S
C1097 H1071 0.950 . S
C1097 C1096 1.414 . S
C1097 C1098 1.374 . S
C1098 H1072 0.950 . S
C1098 C1094 1.385 . S
C1098 C1097 1.374 . S
C1099 C1096 1.499 . S
C1099 C1100 1.373 . S
C1099 C1101 1.389 . S
C1100 H1073 0.950 . S
C1100 C1086 1.377 . S
C1100 C1099 1.373 . S
C1101 C1085 1.377 . S
C1101 C1099 1.389 . S
C1101 C1102 1.524 . S
C1102 C1101 1.524 . S
C1102 C1103 1.397 . S
C1102 C1107 1.363 . S
C1103 H1074 0.950 . S
C1103 C1102 1.397 . S
C1103 C1104 1.334 . S
C1104 H1075 0.950 . S
C1104 C1103 1.334 . S
C1104 C1105 1.287 . S
C1105 C1104 1.287 . S
C1105 C1106 1.524 . S
C1105 H1108 0.999 . S
C1106 H1076 0.950 . S
C1106 C1105 1.524 . S
C1106 C1107 1.415 . S
C1107 H1077 0.950 . S
C1107 C1102 1.363 . S
C1107 C1106 1.415 . S
H1108 C1105 0.999 . S
H1109 C1090 0.913 . S
H1110 C1128 0.951 . S
H1111 C1130 0.951 . S
H1112 C1132 0.950 . S
H1113 C1133 0.950 . S
H1114 C1135 0.950 . S
H1115 C1138 0.950 . S
H1116 C1139 0.950 . S
H1117 C1141 0.950 . S
H1118 C1142 0.950 . S
H1119 C1143 0.951 . S
H1120 C1145 0.951 . S
H1121 C1147 0.950 . S
H1122 C1148 0.950 . S
H1123 C1150 0.950 . S
H1124 C1153 0.950 . S
H1125 C1154 0.950 . S
H1126 C1156 0.950 . S
H1127 C1157 0.950 . S
C1128 H1110 0.951 . S
C1128 C1129 1.366 . S
C1128 C1130 1.388 . S
C1129 C1128 1.366 . S
C1129 C1133 1.385 . S
C1130 H1111 0.951 . S
C1130 C1128 1.388 . S
C1130 C1131 1.366 . S
C1131 C1130 1.366 . S
C1131 C1132 1.414 . S
C1131 C1134 1.499 . S
C1132 H1112 0.950 . S
C1132 C1131 1.414 . S
C1132 C1133 1.374 . S
C1133 H1113 0.950 . S
C1133 C1129 1.385 . S
C1133 C1132 1.374 . S
C1134 C1131 1.499 . S
C1134 C1135 1.373 . S
C1134 C1136 1.389 . S
C1135 H1114 0.950 . S
C1135 C1134 1.373 . S
C1135 C1151 1.377 . S
C1136 C1134 1.389 . S
C1136 C1137 1.524 . S
C1136 C1150 1.377 . S
C1137 C1136 1.524 . S
C1137 C1138 1.397 . S
C1137 C1142 1.363 . S
C1138 H1115 0.950 . S
C1138 C1137 1.397 . S
C1138 C1139 1.334 . S
C1139 H1116 0.950 . S
C1139 C1138 1.334 . S
C1139 C1140 1.287 . S
C1140 C1139 1.287 . S
C1140 C1141 1.524 . S
C1140 H1159 0.913 . S
C1141 H1117 0.950 . S
C1141 C1140 1.524 . S
C1141 C1142 1.415 . S
C1142 H1118 0.950 . S
C1142 C1137 1.363 . S
C1142 C1141 1.415 . S
C1143 H1119 0.951 . S
C1143 C1144 1.366 . S
C1143 C1145 1.388 . S
C1144 C1143 1.366 . S
C1144 C1148 1.385 . S
C1145 H1120 0.951 . S
C1145 C1143 1.388 . S
C1145 C1146 1.366 . S
C1146 C1145 1.366 . S
C1146 C1147 1.414 . S
C1146 C1149 1.499 . S
C1147 H1121 0.950 . S
C1147 C1146 1.414 . S
C1147 C1148 1.374 . S
C1148 H1122 0.950 . S
C1148 C1144 1.385 . S
C1148 C1147 1.374 . S
C1149 C1146 1.499 . S
C1149 C1150 1.373 . S
C1149 C1151 1.389 . S
C1150 H1123 0.950 . S
C1150 C1136 1.377 . S
C1150 C1149 1.373 . S
C1151 C1135 1.377 . S
C1151 C1149 1.389 . S
C1151 C1152 1.524 . S
C1152 C1151 1.524 . S
C1152 C1153 1.397 . S
C1152 C1157 1.363 . S
C1153 H1124 0.950 . S
C1153 C1152 1.397 . S
C1153 C1154 1.334 . S
C1154 H1125 0.950 . S
C1154 C1153 1.334 . S
C1154 C1155 1.287 . S
C1155 C1154 1.287 . S
C1155 C1156 1.524 . S
C1155 H1158 0.999 . S
C1156 H1126 0.950 . S
C1156 C1155 1.524 . S
C1156 C1157 1.415 . S
C1157 H1127 0.950 . S
C1157 C1152 1.363 . S
C1157 C1156 1.415 . S
H1158 C1155 0.999 . S
H1159 C1140 0.913 . S
H1160 C1178 0.951 . S
H1161 C1180 0.951 . S
H1162 C1182 0.950 . S
H1163 C1183 0.950 . S
H1164 C1185 0.950 . S
H1165 C1188 0.950 . S
H1166 C1189 0.950 . S
H1167 C1191 0.950 . S
H1168 C1192 0.950 . S
H1169 C1193 0.951 . S
H1170 C1195 0.951 . S
H1171 C1197 0.950 . S
H1172 C1198 0.950 . S
H1173 C1200 0.950 . S
H1174 C1203 0.950 . S
H1175 C1204 0.950 . S
H1176 C1206 0.950 . S
H1177 C1207 0.950 . S
C1178 H1160 0.951 . S
C1178 C1179 1.366 . S
C1178 C1180 1.388 . S
C1179 C1178 1.366 . S
C1179 C1183 1.385 . S
C1180 H1161 0.951 . S
C1180 C1178 1.388 . S
C1180 C1181 1.366 . S
C1181 C1180 1.366 . S
C1181 C1182 1.414 . S
C1181 C1184 1.499 . S
C1182 H1162 0.950 . S
C1182 C1181 1.414 . S
C1182 C1183 1.374 . S
C1183 H1163 0.950 . S
C1183 C1179 1.385 . S
C1183 C1182 1.374 . S
C1184 C1181 1.499 . S
C1184 C1185 1.373 . S
C1184 C1186 1.389 . S
C1185 H1164 0.950 . S
C1185 C1184 1.373 . S
C1185 C1201 1.377 1_455 S
C1186 C1184 1.389 . S
C1186 C1187 1.524 . S
C1186 C1200 1.377 1_455 S
C1187 C1186 1.524 . S
C1187 C1188 1.397 . S
C1187 C1192 1.363 . S
C1188 H1165 0.950 . S
C1188 C1187 1.397 . S
C1188 C1189 1.334 . S
C1189 H1166 0.950 . S
C1189 C1188 1.334 . S
C1189 C1190 1.287 . S
C1190 C1189 1.287 . S
C1190 C1191 1.524 . S
C1190 H1209 0.913 . S
C1191 H1167 0.950 . S
C1191 C1190 1.524 . S
C1191 C1192 1.415 . S
C1192 H1168 0.950 . S
C1192 C1187 1.363 . S
C1192 C1191 1.415 . S
C1193 H1169 0.951 . S
C1193 C1194 1.366 . S
C1193 C1195 1.388 . S
C1194 C1193 1.366 . S
C1194 C1198 1.385 . S
C1195 H1170 0.951 . S
C1195 C1193 1.388 . S
C1195 C1196 1.366 . S
C1196 C1195 1.366 . S
C1196 C1197 1.414 . S
C1196 C1199 1.499 . S
C1197 H1171 0.950 . S
C1197 C1196 1.414 . S
C1197 C1198 1.374 . S
C1198 H1172 0.950 . S
C1198 C1194 1.385 . S
C1198 C1197 1.374 . S
C1199 C1196 1.499 . S
C1199 C1200 1.373 . S
C1199 C1201 1.389 . S
C1200 H1173 0.950 . S
C1200 C1186 1.377 1_655 S
C1200 C1199 1.373 . S
C1201 C1185 1.377 1_655 S
C1201 C1199 1.389 . S
C1201 C1202 1.524 . S
C1202 C1201 1.524 . S
C1202 C1203 1.397 . S
C1202 C1207 1.363 . S
C1203 H1174 0.950 . S
C1203 C1202 1.397 . S
C1203 C1204 1.334 . S
C1204 H1175 0.950 . S
C1204 C1203 1.334 . S
C1204 C1205 1.287 . S
C1205 C1204 1.287 . S
C1205 C1206 1.524 . S
C1205 H1208 0.999 . S
C1206 H1176 0.950 . S
C1206 C1205 1.524 . S
C1206 C1207 1.415 . S
C1207 H1177 0.950 . S
C1207 C1202 1.363 . S
C1207 C1206 1.415 . S
H1208 C1205 0.999 . S
H1209 C1190 0.913 . S
H1210 C1228 0.951 . S
H1211 C1230 0.951 . S
H1212 C1232 0.950 . S
H1213 C1233 0.950 . S
H1214 C1235 0.950 . S
H1215 C1238 0.950 . S
H1216 C1239 0.950 . S
H1217 C1241 0.950 . S
H1218 C1242 0.987 . S
H1219 C1243 0.951 . S
H1220 C1245 0.951 . S
H1221 C1247 0.950 . S
H1222 C1248 0.950 . S
H1223 C1250 0.950 . S
H1224 C1253 0.950 . S
H1225 C1254 0.950 . S
H1226 C1256 0.950 . S
H1227 C1257 0.950 . S
C1228 H1210 0.951 . S
C1228 C1229 1.366 . S
C1228 C1230 1.388 . S
C1229 C1228 1.366 . S
C1229 C1233 1.385 . S
C1230 H1211 0.951 . S
C1230 C1228 1.388 . S
C1230 C1231 1.366 . S
C1231 C1230 1.366 . S
C1231 C1232 1.414 . S
C1231 C1234 1.499 . S
C1232 H1212 0.950 . S
C1232 C1231 1.414 . S
C1232 C1233 1.374 . S
C1233 H1213 0.950 . S
C1233 C1229 1.385 . S
C1233 C1232 1.374 . S
C1234 C1231 1.499 . S
C1234 C1235 1.373 . S
C1234 C1236 1.389 . S
C1235 H1214 0.950 . S
C1235 C1234 1.373 . S
C1235 C1251 1.377 1_655 S
C1236 C1234 1.389 . S
C1236 C1237 1.524 . S
C1236 C1250 1.377 1_655 S
C1237 C1236 1.524 . S
C1237 C1238 1.397 . S
C1237 C1242 1.363 . S
C1238 H1215 0.950 . S
C1238 C1237 1.397 . S
C1238 C1239 1.334 . S
C1239 H1216 0.950 . S
C1239 C1238 1.334 . S
C1239 C1240 1.287 . S
C1240 C1239 1.287 . S
C1240 C1241 1.524 . S
C1240 H1259 0.913 . S
C1241 H1217 0.950 . S
C1241 C1240 1.524 . S
C1241 C1242 1.415 . S
C1242 H1218 0.987 . S
C1242 C1237 1.363 . S
C1242 C1241 1.415 . S
C1243 H1219 0.951 . S
C1243 C1244 1.366 . S
C1243 C1245 1.388 . S
C1244 C1243 1.366 . S
C1244 C1248 1.385 . S
C1245 H1220 0.951 . S
C1245 C1243 1.388 . S
C1245 C1246 1.366 . S
C1246 C1245 1.366 . S
C1246 C1247 1.414 . S
C1246 C1249 1.499 . S
C1247 H1221 0.950 . S
C1247 C1246 1.414 . S
C1247 C1248 1.374 . S
C1248 H1222 0.950 . S
C1248 C1244 1.385 . S
C1248 C1247 1.374 . S
C1249 C1246 1.499 . S
C1249 C1250 1.373 . S
C1249 C1251 1.389 . S
C1250 H1223 0.950 . S
C1250 C1236 1.377 1_455 S
C1250 C1249 1.373 . S
C1251 C1235 1.377 1_455 S
C1251 C1249 1.389 . S
C1251 C1252 1.524 . S
C1252 C1251 1.524 . S
C1252 C1253 1.397 . S
C1252 C1257 1.363 . S
C1253 H1224 0.950 . S
C1253 C1252 1.397 . S
C1253 C1254 1.334 . S
C1254 H1225 0.950 . S
C1254 C1253 1.334 . S
C1254 C1255 1.287 . S
C1255 C1254 1.287 . S
C1255 C1256 1.524 . S
C1255 H1258 0.999 . S
C1256 H1226 0.950 . S
C1256 C1255 1.524 . S
C1256 C1257 1.415 . S
C1257 H1227 0.950 . S
C1257 C1252 1.363 . S
C1257 C1256 1.415 . S
H1258 C1255 0.999 . S
H1259 C1240 0.913 . S
H1260 C1278 0.951 1_554 S
H1261 C1280 0.951 1_554 S
H1262 C1282 0.950 . S
H1263 C1283 0.950 . S
H1264 C1285 0.950 . S
H1265 C1288 0.950 1_556 S
H1266 C1289 0.950 . S
H1267 C1291 0.950 . S
H1268 C1292 0.950 . S
H1269 C1293 0.951 . S
H1270 C1295 0.951 . S
H1271 C1297 0.950 1_554 S
H1272 C1298 0.950 1_554 S
H1273 C1300 0.950 1_554 S
H1274 C1303 0.950 . S
H1275 C1304 0.950 . S
H1276 C1306 0.950 . S
H1277 C1307 0.950 . S
C1278 H1260 0.951 1_556 S
C1278 C1279 1.366 . S
C1278 C1280 1.388 . S
C1279 C1278 1.366 . S
C1279 C1283 1.385 . S
C1280 H1261 0.951 1_556 S
C1280 C1278 1.388 . S
C1280 C1281 1.366 . S
C1281 C1280 1.366 . S
C1281 C1282 1.414 . S
C1281 C1284 1.499 . S
C1282 H1262 0.950 . S
C1282 C1281 1.414 . S
C1282 C1283 1.374 . S
C1283 H1263 0.950 . S
C1283 C1279 1.385 . S
C1283 C1282 1.374 . S
C1284 C1281 1.499 . S
C1284 C1285 1.373 . S
C1284 C1286 1.389 . S
C1285 H1264 0.950 . S
C1285 C1284 1.373 . S
C1285 C1301 1.377 . S
C1286 C1284 1.389 . S
C1286 C1287 1.524 1_556 S
C1286 C1300 1.377 . S
C1287 C1286 1.524 1_554 S
C1287 C1288 1.397 . S
C1287 C1292 1.363 . S
C1288 H1265 0.950 1_554 S
C1288 C1287 1.397 . S
C1288 C1289 1.334 . S
C1289 H1266 0.950 . S
C1289 C1288 1.334 . S
C1289 C1290 1.287 . S
C1290 C1289 1.287 . S
C1290 C1291 1.524 . S
C1290 H1309 0.913 . S
C1291 H1267 0.950 . S
C1291 C1290 1.524 . S
C1291 C1292 1.415 . S
C1292 H1268 0.950 . S
C1292 C1287 1.363 . S
C1292 C1291 1.415 . S
C1293 H1269 0.951 . S
C1293 C1294 1.366 . S
C1293 C1295 1.388 . S
C1294 C1293 1.366 . S
C1294 C1298 1.385 . S
C1295 H1270 0.951 . S
C1295 C1293 1.388 . S
C1295 C1296 1.366 . S
C1296 C1295 1.366 . S
C1296 C1297 1.414 . S
C1296 C1299 1.499 . S
C1297 H1271 0.950 1_556 S
C1297 C1296 1.414 . S
C1297 C1298 1.374 . S
C1298 H1272 0.950 1_556 S
C1298 C1294 1.385 . S
C1298 C1297 1.374 . S
C1299 C1296 1.499 . S
C1299 C1300 1.373 . S
C1299 C1301 1.389 . S
C1300 H1273 0.950 1_556 S
C1300 C1286 1.377 . S
C1300 C1299 1.373 . S
C1301 C1285 1.377 . S
C1301 C1299 1.389 . S
C1301 C1302 1.524 . S
C1302 C1301 1.524 . S
C1302 C1303 1.397 . S
C1302 C1307 1.363 . S
C1303 H1274 0.950 . S
C1303 C1302 1.397 . S
C1303 C1304 1.334 . S
C1304 H1275 0.950 . S
C1304 C1303 1.334 . S
C1304 C1305 1.287 . S
C1305 C1304 1.287 . S
C1305 C1306 1.524 . S
C1305 H1308 0.999 . S
C1306 H1276 0.950 . S
C1306 C1305 1.524 . S
C1306 C1307 1.415 . S
C1307 H1277 0.950 . S
C1307 C1302 1.363 . S
C1307 C1306 1.415 . S
H1308 C1305 0.999 . S
H1309 C1290 0.913 . S
H1310 C1328 0.951 . S
H1311 C1330 0.951 . S
H1312 C1332 0.950 . S
H1313 C1333 0.950 . S
H1314 C1335 0.950 . S
H1315 C1338 0.950 . S
H1316 C1339 0.950 . S
H1317 C1341 0.950 1_554 S
H1318 C1342 0.950 . S
H1319 C1343 0.951 . S
H1320 C1345 0.951 . S
H1321 C1347 0.950 . S
H1322 C1348 0.950 . S
H1323 C1350 0.950 . S
H1324 C1353 0.950 . S
H1325 C1354 0.950 . S
H1326 C1356 0.950 . S
H1327 C1357 0.950 . S
C1328 H1310 0.951 . S
C1328 C1329 1.366 . S
C1328 C1330 1.388 . S
C1329 C1328 1.366 . S
C1329 C1333 1.385 . S
C1330 H1311 0.951 . S
C1330 C1328 1.388 . S
C1330 C1331 1.366 . S
C1331 C1330 1.366 . S
C1331 C1332 1.414 . S
C1331 C1334 1.499 . S
C1332 H1312 0.950 . S
C1332 C1331 1.414 . S
C1332 C1333 1.374 . S
C1333 H1313 0.950 . S
C1333 C1329 1.385 . S
C1333 C1332 1.374 . S
C1334 C1331 1.499 . S
C1334 C1335 1.373 . S
C1334 C1336 1.389 . S
C1335 H1314 0.950 . S
C1335 C1334 1.373 . S
C1335 C1351 1.377 . S
C1336 C1334 1.389 . S
C1336 C1337 1.524 . S
C1336 C1350 1.377 . S
C1337 C1336 1.524 . S
C1337 C1338 1.397 1_554 S
C1337 C1342 1.363 . S
C1338 H1315 0.950 . S
C1338 C1337 1.397 1_556 S
C1338 C1339 1.334 . S
C1339 H1316 0.950 . S
C1339 C1338 1.334 . S
C1339 C1340 1.287 . S
C1340 C1339 1.287 . S
C1340 C1341 1.524 . S
C1340 H1359 0.913 . S
C1341 H1317 0.950 1_556 S
C1341 C1340 1.524 . S
C1341 C1342 1.415 1_556 S
C1342 H1318 0.950 . S
C1342 C1337 1.363 . S
C1342 C1341 1.415 1_554 S
C1343 H1319 0.951 . S
C1343 C1344 1.366 . S
C1343 C1345 1.388 . S
C1344 C1343 1.366 . S
C1344 C1348 1.385 . S
C1345 H1320 0.951 . S
C1345 C1343 1.388 . S
C1345 C1346 1.366 . S
C1346 C1345 1.366 . S
C1346 C1347 1.414 . S
C1346 C1349 1.499 . S
C1347 H1321 0.950 . S
C1347 C1346 1.414 . S
C1347 C1348 1.374 . S
C1348 H1322 0.950 . S
C1348 C1344 1.385 . S
C1348 C1347 1.374 . S
C1349 C1346 1.499 . S
C1349 C1350 1.373 . S
C1349 C1351 1.389 . S
C1350 H1323 0.950 . S
C1350 C1336 1.377 . S
C1350 C1349 1.373 . S
C1351 C1335 1.377 . S
C1351 C1349 1.389 . S
C1351 C1352 1.524 . S
C1352 C1351 1.524 . S
C1352 C1353 1.397 . S
C1352 C1357 1.363 . S
C1353 H1324 0.950 . S
C1353 C1352 1.397 . S
C1353 C1354 1.334 . S
C1354 H1325 0.950 . S
C1354 C1353 1.334 . S
C1354 C1355 1.287 . S
C1355 C1354 1.287 . S
C1355 C1356 1.524 . S
C1355 H1358 0.999 . S
C1356 H1326 0.950 . S
C1356 C1355 1.524 . S
C1356 C1357 1.415 . S
C1357 H1327 0.950 . S
C1357 C1352 1.363 . S
C1357 C1356 1.415 . S
H1358 C1355 0.999 . S
H1359 C1340 0.913 . S
C179 C9 1.730 . S
C194 C149 1.727 . S
C229 C129 1.706 . S
C244 C32 1.706 . S
C279 C112 1.705 . S
C294 C49 1.706 . S
C329 C89 1.730 . S
C344 C69 1.727 . S
C379 C58 1.474 . S
C394 C18 1.468 . S
C429 C38 1.111 . S
C444 C78 1.104 . S
C479 C79 1.871 . S
C494 C39 1.862 . S
C529 C59 1.517 . S
C544 C19 1.511 . S
C579 C98 1.466 1_554 S
C594 C138 1.473 1_556 S
C629 C118 1.112 . S
C644 C158 1.103 . S
C679 C159 1.871 . S
C694 C119 1.862 1_554 S
C729 C139 1.517 . S
C744 C99 1.511 . S
C779 C4 1.429 . S
C794 C2 1.429 . S
C829 C22 1.426 . S
C844 C24 1.426 . S
C879 C42 1.426 . S
C894 C44 1.426 . S
C929 C64 1.424 . S
C944 C62 1.424 . S
C979 C82 1.429 . S
C994 C84 1.429 . S
C1029 C102 1.426 . S
C1044 C104 1.426 . S
C1079 C124 1.425 . S
C1094 C122 1.425 . S
C1129 C144 1.424 . S
C1144 C142 1.424 . S
C1179 C12 1.995 . S
C1194 C29 1.992 . S
C1229 C72 1.969 . S
C1244 C52 1.969 . S
C1279 C92 1.995 . S
C1294 C109 1.992 . S
C1329 C152 1.969 . S
C1344 C132 1.969 . S
