# Generated by pormake.
# Topology uop, (4)-cn, num edge types: 1
# Building blocks:
#     Node 0, Type 0, BuildingBlock: QUQFOY_clean_sbu_1, # of connection points: 4
#     Node 1, Type 0, BuildingBlock: QUQFOY_clean_sbu_1, # of connection points: 4
#     Node 2, Type 0, BuildingBlock: QUQFOY_clean_sbu_1, # of connection points: 4
#     Node 3, Type 0, BuildingBlock: QUQFOY_clean_sbu_1, # of connection points: 4
#     Node 4, Type 0, BuildingBlock: QUQFOY_clean_sbu_1, # of connection points: 4
#     Node 5, Type 0, BuildingBlock: QUQFOY_clean_sbu_1, # of connection points: 4
#     Node 6, Type 0, BuildingBlock: QUQFOY_clean_sbu_1, # of connection points: 4
#     Node 7, Type 0, BuildingBlock: QUQFOY_clean_sbu_1, # of connection points: 4
#     Node 8, Type 0, BuildingBlock: QUQFOY_clean_sbu_1, # of connection points: 4
#     Node 9, Type 0, BuildingBlock: QUQFOY_clean_sbu_1, # of connection points: 4
#     Node 10, Type 0, BuildingBlock: QUQFOY_clean_sbu_1, # of connection points: 4
#     Node 11, Type 0, BuildingBlock: QUQFOY_clean_sbu_1, # of connection points: 4
#     Edge 12, Type (0, 0), BuildingBlock: KIFKEQ_clean_linker_1, # of connection points: 2
#     Edge 13, Type (0, 0), BuildingBlock: KIFKEQ_clean_linker_1, # of connection points: 2
#     Edge 14, Type (0, 0), BuildingBlock: KIFKEQ_clean_linker_1, # of connection points: 2
#     Edge 15, Type (0, 0), BuildingBlock: KIFKEQ_clean_linker_1, # of connection points: 2
#     Edge 16, Type (0, 0), BuildingBlock: KIFKEQ_clean_linker_1, # of connection points: 2
#     Edge 17, Type (0, 0), BuildingBlock: KIFKEQ_clean_linker_1, # of connection points: 2
#     Edge 18, Type (0, 0), BuildingBlock: KIFKEQ_clean_linker_1, # of connection points: 2
#     Edge 19, Type (0, 0), BuildingBlock: KIFKEQ_clean_linker_1, # of connection points: 2
#     Edge 20, Type (0, 0), BuildingBlock: KIFKEQ_clean_linker_1, # of connection points: 2
#     Edge 21, Type (0, 0), BuildingBlock: KIFKEQ_clean_linker_1, # of connection points: 2
#     Edge 22, Type (0, 0), BuildingBlock: KIFKEQ_clean_linker_1, # of connection points: 2
#     Edge 23, Type (0, 0), BuildingBlock: KIFKEQ_clean_linker_1, # of connection points: 2
#     Edge 24, Type (0, 0), BuildingBlock: KIFKEQ_clean_linker_1, # of connection points: 2
#     Edge 25, Type (0, 0), BuildingBlock: KIFKEQ_clean_linker_1, # of connection points: 2
#     Edge 26, Type (0, 0), BuildingBlock: KIFKEQ_clean_linker_1, # of connection points: 2
#     Edge 27, Type (0, 0), BuildingBlock: KIFKEQ_clean_linker_1, # of connection points: 2
#     Edge 28, Type (0, 0), BuildingBlock: KIFKEQ_clean_linker_1, # of connection points: 2
#     Edge 29, Type (0, 0), BuildingBlock: KIFKEQ_clean_linker_1, # of connection points: 2
#     Edge 30, Type (0, 0), BuildingBlock: KIFKEQ_clean_linker_1, # of connection points: 2
#     Edge 31, Type (0, 0), BuildingBlock: KIFKEQ_clean_linker_1, # of connection points: 2
#     Edge 32, Type (0, 0), BuildingBlock: KIFKEQ_clean_linker_1, # of connection points: 2
#     Edge 33, Type (0, 0), BuildingBlock: KIFKEQ_clean_linker_1, # of connection points: 2
#     Edge 34, Type (0, 0), BuildingBlock: KIFKEQ_clean_linker_1, # of connection points: 2
#     Edge 35, Type (0, 0), BuildingBlock: KIFKEQ_clean_linker_1, # of connection points: 2
# Relax obj value: 0.098
# Max RMSD: 0.122
# Mean RMSD: 0.122
data_MOF--net-uop--node1-QUQFOY_clean_sbu_1--edge1-KIFKEQ_clean_linker_1
_symmetry_space_group_name_H-M    P1
_symmetry_Int_Tables_number       1
_symmetry_cell_setting            triclinic
loop_
_symmetry_equiv_pos_as_xyz
'x, y, z'
_cell_length_a     33.412902
_cell_length_b     33.419085
_cell_length_c     54.012919
_cell_angle_alpha  89.917521
_cell_angle_beta   89.958398
_cell_angle_gamma 119.83799
loop_
_atom_site_label
_atom_site_type_symbol
_atom_site_fract_x
_atom_site_fract_y
_atom_site_fract_z
_atom_type_partial_charge
O0 O 0.21703 0.43646 0.21976 0.0
Cd1 Cd 0.2235 0.37866 0.22166 0.0
Cd2 Cd 0.26064 0.41855 0.26714 0.0
O3 O 0.23556 0.46322 0.2579 0.0
O4 O 0.17988 0.33729 0.19602 0.0
O5 O 0.17115 0.32043 0.23599 0.0
C6 C 0.1554 0.31 0.21367 0.0
C7 C 0.26303 0.3886 0.30634 0.0
C8 C 0.22191 0.46577 0.23616 0.0
C9 C 0.32243 0.41319 0.2271 0.0
O10 O 0.31757 0.42887 0.24758 0.0
O11 O 0.28797 0.38851 0.2134 0.0
O12 O 0.28652 0.43217 0.30158 0.0
O13 O 0.23391 0.3624 0.28976 0.0
O14 O 0.7796 0.22197 0.54753 0.0
Cd15 Cd 0.84692 0.2362 0.55098 0.0
Cd16 Cd 0.83467 0.26675 0.594 0.0
O17 O 0.76429 0.22807 0.58661 0.0
O18 O 0.85156 0.19553 0.52562 0.0
O19 O 0.85741 0.18696 0.56585 0.0
C20 C 0.85482 0.17179 0.54355 0.0
C21 C 0.87358 0.27396 0.63164 0.0
C22 C 0.7509 0.21772 0.56424 0.0
C23 C 0.89236 0.33545 0.55456 0.0
O24 O 0.86628 0.32608 0.57334 0.0
O25 O 0.89665 0.30394 0.54386 0.0
O26 O 0.84576 0.28998 0.62902 0.0
O27 O 0.87636 0.2502 0.61352 0.0
O28 O 0.5513 0.78698 0.87764 0.0
Cd29 Cd 0.61134 0.84883 0.87402 0.0
Cd30 Cd 0.57132 0.86958 0.91453 0.0
O31 O 0.51855 0.80082 0.90964 0.0
O32 O 0.64957 0.83339 0.85204 0.0
O33 O 0.66948 0.85783 0.89046 0.0
C34 C 0.67785 0.8428 0.87019 0.0
C35 C 0.59691 0.90761 0.95305 0.0
C36 C 0.51769 0.77393 0.89259 0.0
C37 C 0.58689 0.92122 0.86532 0.0
O38 O 0.57311 0.91407 0.88764 0.0
O39 O 0.60448 0.89905 0.8555 0.0
O40 O 0.5567 0.89597 0.94433 0.0
O41 O 0.62164 0.89439 0.94095 0.0
O42 O 0.7683 0.56127 0.20998 0.0
Cd43 Cd 0.75673 0.61547 0.21596 0.0
Cd44 Cd 0.73404 0.57532 0.25875 0.0
O45 O 0.77402 0.54551 0.24902 0.0
O46 O 0.79814 0.66521 0.1926 0.0
O47 O 0.80721 0.66988 0.23336 0.0
C48 C 0.82263 0.68704 0.21164 0.0
C49 C 0.73039 0.6102 0.29602 0.0
C50 C 0.77779 0.53931 0.22599 0.0
C51 C 0.65946 0.56172 0.22281 0.0
O52 O 0.67226 0.54515 0.24027 0.0
O53 O 0.68862 0.59866 0.21199 0.0
O54 O 0.71533 0.5664 0.29466 0.0
O55 O 0.75155 0.63496 0.27685 0.0
O56 O 0.2241 0.7755 0.55271 0.0
Cd57 Cd 0.15972 0.7683 0.55632 0.0
Cd58 Cd 0.16439 0.72807 0.60043 0.0
O59 O 0.23378 0.75461 0.59005 0.0
O60 O 0.16 0.81344 0.53216 0.0
O61 O 0.15368 0.8192 0.5726 0.0
C62 C 0.15752 0.83639 0.55069 0.0
C63 C 0.13415 0.72424 0.64042 0.0
C64 C 0.24923 0.76983 0.56836 0.0
C65 C 0.0959 0.66885 0.56054 0.0
O66 O 0.11716 0.67213 0.58057 0.0
O67 O 0.10513 0.7043 0.54773 0.0
O68 O 0.15434 0.70117 0.63467 0.0
O69 O 0.13553 0.75352 0.62428 0.0
O70 O 0.44927 0.20665 0.87717 0.0
Cd71 Cd 0.39116 0.14362 0.8726 0.0
Cd72 Cd 0.42737 0.12362 0.91435 0.0
O73 O 0.47837 0.19345 0.91094 0.0
O74 O 0.35362 0.15744 0.8492 0.0
O75 O 0.33107 0.13262 0.88739 0.0
C76 C 0.32385 0.1474 0.86669 0.0
C77 C 0.39456 0.08457 0.95203 0.0
C78 C 0.4807 0.22034 0.89348 0.0
C79 C 0.42092 0.07441 0.86576 0.0
O80 O 0.43257 0.0814 0.88841 0.0
O81 O 0.40227 0.09504 0.85527 0.0
O82 O 0.43715 0.09914 0.94646 0.0
O83 O 0.37107 0.095 0.93698 0.0
O84 O 0.56318 0.77636 0.51727 0.0
Cd85 Cd 0.62011 0.76824 0.51283 0.0
Cd86 Cd 0.57409 0.73053 0.47142 0.0
O87 O 0.53629 0.76339 0.47911 0.0
O88 O 0.66459 0.81223 0.53743 0.0
O89 O 0.67724 0.8199 0.49706 0.0
C90 C 0.69004 0.83623 0.51912 0.0
C91 C 0.6074 0.72548 0.43385 0.0
C92 C 0.5346 0.77526 0.50137 0.0
C93 C 0.57435 0.66849 0.51184 0.0
O94 O 0.55389 0.67348 0.4933 0.0
O95 O 0.60916 0.70315 0.52126 0.0
O96 O 0.56323 0.70487 0.4369 0.0
O97 O 0.63282 0.75255 0.45136 0.0
O98 O 0.78472 0.54216 0.85784 0.0
Cd99 Cd 0.8481 0.60091 0.86046 0.0
Cd100 Cd 0.86418 0.56201 0.81925 0.0
O101 O 0.79422 0.51243 0.82328 0.0
O102 O 0.8364 0.64141 0.88272 0.0
O103 O 0.85831 0.65918 0.84372 0.0
C104 C 0.84536 0.66909 0.86426 0.0
C105 C 0.90339 0.59447 0.78161 0.0
C106 C 0.76918 0.51048 0.84163 0.0
C107 C 0.91591 0.56982 0.86701 0.0
O108 O 0.90573 0.55525 0.84493 0.0
O109 O 0.89841 0.59172 0.87725 0.0
O110 O 0.88759 0.55157 0.78697 0.0
O111 O 0.89395 0.61848 0.79682 0.0
O112 O 0.22069 0.77783 0.18624 0.0
Cd113 Cd 0.22571 0.8408 0.18001 0.0
Cd114 Cd 0.26212 0.83242 0.13612 0.0
O115 O 0.23638 0.76423 0.14846 0.0
O116 O 0.18009 0.84452 0.20225 0.0
O117 O 0.17408 0.84136 0.16134 0.0
C118 C 0.15693 0.84225 0.18268 0.0
C119 C 0.26376 0.85934 0.09553 0.0
C120 C 0.22451 0.75118 0.17084 0.0
C121 C 0.32425 0.90515 0.17321 0.0
O122 O 0.31976 0.88118 0.15413 0.0
O123 O 0.28956 0.89755 0.18626 0.0
O124 O 0.28658 0.83897 0.10149 0.0
O125 O 0.23565 0.85971 0.11188 0.0
O126 O 0.44307 0.22127 0.5208 0.0
Cd127 Cd 0.39003 0.23576 0.51864 0.0
Cd128 Cd 0.43047 0.26758 0.47548 0.0
O129 O 0.46402 0.22993 0.48156 0.0
O130 O 0.34629 0.19497 0.54454 0.0
O131 O 0.32975 0.18675 0.50456 0.0
C132 C 0.31844 0.17141 0.52694 0.0
C133 C 0.39182 0.27151 0.43986 0.0
C134 C 0.46744 0.21825 0.50362 0.0
C135 C 0.44236 0.33565 0.51513 0.0
O136 O 0.45844 0.32729 0.49575 0.0
O137 O 0.40794 0.30323 0.52629 0.0
O138 O 0.4361 0.28921 0.44028 0.0
O139 O 0.36889 0.24785 0.45899 0.0
O140 O 0.21844 0.45161 0.85064 0.0
Cd141 Cd 0.15603 0.39179 0.85273 0.0
Cd142 Cd 0.13822 0.432 0.81209 0.0
O143 O 0.20697 0.48412 0.81775 0.0
O144 O 0.16868 0.35174 0.87489 0.0
O145 O 0.14734 0.33417 0.83587 0.0
C146 C 0.16019 0.32426 0.85645 0.0
C147 C 0.10262 0.40292 0.77332 0.0
C148 C 0.23262 0.48514 0.83555 0.0
C149 C 0.08372 0.41717 0.85977 0.0
O150 O 0.09251 0.43189 0.83763 0.0
O151 O 0.1046 0.39847 0.8699 0.0
O152 O 0.11543 0.44453 0.78017 0.0
O153 O 0.11322 0.37862 0.78767 0.0
O154 O 0.76986 0.22299 0.1827 0.0
Cd155 Cd 0.75709 0.15633 0.17832 0.0
Cd156 Cd 0.72906 0.17127 0.13549 0.0
O157 O 0.76832 0.24142 0.14365 0.0
O158 O 0.7973 0.15076 0.2036 0.0
O159 O 0.80686 0.14697 0.16328 0.0
C160 C 0.82141 0.14831 0.18561 0.0
C161 C 0.72001 0.13383 0.09721 0.0
C162 C 0.77599 0.25302 0.1664 0.0
C163 C 0.65887 0.11162 0.1742 0.0
O164 O 0.66938 0.13912 0.15599 0.0
O165 O 0.68965 0.10595 0.18475 0.0
O166 O 0.70358 0.161 0.10101 0.0
O167 O 0.74558 0.13116 0.11435 0.0
H168 H 0.23768 0.68685 0.14573 0.0
H169 H 0.19766 0.71396 0.21709 0.0
H170 H 0.23359 0.61694 0.16252 0.0
H171 H 0.19307 0.64412 0.23366 0.0
H172 H 0.18281 0.47363 0.1935 0.0
H173 H 0.17989 0.5403 0.17792 0.0
H174 H 0.24392 0.61433 0.24514 0.0
H175 H 0.24642 0.54693 0.261 0.0
C176 C 0.22745 0.67768 0.16488 0.0
C177 C 0.21809 0.70625 0.17999 0.0
C178 C 0.22501 0.6375 0.17453 0.0
C179 C 0.21322 0.62492 0.19954 0.0
C180 C 0.20298 0.65303 0.21446 0.0
C181 C 0.20529 0.69302 0.20484 0.0
C182 C 0.19595 0.50391 0.20516 0.0
C183 C 0.21511 0.50485 0.22854 0.0
C184 C 0.19456 0.54237 0.19607 0.0
C185 C 0.21222 0.58302 0.21006 0.0
C186 C 0.22977 0.5835 0.23387 0.0
C187 C 0.23121 0.54485 0.24302 0.0
H188 H 0.68559 0.22682 0.59078 0.0
H189 H 0.70935 0.18288 0.5198 0.0
H190 H 0.61365 0.21941 0.5752 0.0
H191 H 0.63719 0.17458 0.50442 0.0
H192 H 0.54396 0.23279 0.47715 0.0
H193 H 0.60874 0.22513 0.49223 0.0
H194 H 0.53643 0.16868 0.5611 0.0
H195 H 0.47237 0.17722 0.54627 0.0
C196 C 0.67498 0.21455 0.57206 0.0
C197 C 0.7035 0.20579 0.55654 0.0
C198 C 0.63364 0.21023 0.56308 0.0
C199 C 0.61972 0.19686 0.53839 0.0
C200 C 0.64718 0.18588 0.52332 0.0
C201 C 0.68847 0.19031 0.53226 0.0
C202 C 0.54152 0.21789 0.4953 0.0
C203 C 0.50309 0.20601 0.51053 0.0
C204 C 0.57869 0.21346 0.504 0.0
C205 C 0.57818 0.19682 0.52808 0.0
C206 C 0.53857 0.18258 0.54271 0.0
C207 C 0.50161 0.18716 0.53408 0.0
H208 H 0.42689 0.74906 0.90017 0.0
H209 H 0.51401 0.69762 0.87259 0.0
H210 H 0.35865 0.6793 0.88486 0.0
H211 H 0.44621 0.62813 0.85764 0.0
H212 H 0.30672 0.48985 0.85916 0.0
H213 H 0.37499 0.55844 0.87453 0.0
H214 H 0.32705 0.64453 0.84139 0.0
H215 H 0.25856 0.57553 0.82568 0.0
C216 C 0.43138 0.72244 0.89139 0.0
C217 C 0.47583 0.72873 0.88774 0.0
C218 C 0.39242 0.68285 0.8823 0.0
C219 C 0.3971 0.64843 0.86981 0.0
C220 C 0.44139 0.65392 0.86718 0.0
C221 C 0.48024 0.6937 0.87583 0.0
C222 C 0.31109 0.52343 0.85475 0.0
C223 C 0.27733 0.52722 0.84103 0.0
C224 C 0.35016 0.56273 0.86364 0.0
C225 C 0.35619 0.60689 0.85943 0.0
C226 C 0.32304 0.6109 0.8452 0.0
C227 C 0.2842 0.57147 0.8359 0.0
H228 H 0.76623 0.50451 0.17944 0.0
H229 H 0.81181 0.49169 0.25231 0.0
H230 H 0.77333 0.44 0.16515 0.0
H231 H 0.82195 0.4282 0.23752 0.0
H232 H 0.77163 0.27947 0.21345 0.0
H233 H 0.77954 0.35156 0.22749 0.0
H234 H 0.81549 0.40638 0.15312 0.0
H235 H 0.80446 0.33228 0.13875 0.0
C236 C 0.77888 0.48855 0.19235 0.0
C237 C 0.78809 0.50322 0.21716 0.0
C238 C 0.78339 0.45147 0.184 0.0
C239 C 0.79809 0.42818 0.20005 0.0
C240 C 0.80946 0.44432 0.22464 0.0
C241 C 0.80406 0.48107 0.23316 0.0
C242 C 0.78167 0.30697 0.20003 0.0
C243 C 0.78699 0.29977 0.17485 0.0
C244 C 0.78664 0.34883 0.20821 0.0
C245 C 0.79796 0.38535 0.19157 0.0
C246 C 0.80561 0.37891 0.16651 0.0
C247 C 0.7997 0.33649 0.15821 0.0
H248 H 0.45685 0.76108 0.47618 0.0
H249 H 0.52557 0.80563 0.54681 0.0
H250 H 0.39029 0.76372 0.49307 0.0
H251 H 0.45954 0.80866 0.56349 0.0
H252 H 0.29305 0.80862 0.52484 0.0
H253 H 0.36366 0.81482 0.5085 0.0
H254 H 0.38026 0.75459 0.57575 0.0
H255 H 0.30938 0.74876 0.59237 0.0
C256 C 0.45818 0.77222 0.49513 0.0
C257 C 0.49663 0.78295 0.51008 0.0
C258 C 0.41997 0.77373 0.50486 0.0
C259 C 0.41928 0.78596 0.52978 0.0
C260 C 0.45842 0.79824 0.54441 0.0
C261 C 0.49653 0.79686 0.5347 0.0
C262 C 0.31183 0.79699 0.53634 0.0
C263 C 0.29522 0.77797 0.55998 0.0
C264 C 0.35228 0.80028 0.52682 0.0
C265 C 0.37753 0.7848 0.54063 0.0
C266 C 0.36188 0.76719 0.56463 0.0
C267 C 0.32118 0.76379 0.57419 0.0
H268 H 0.48473 0.29718 0.87377 0.0
H269 H 0.57082 0.24593 0.90314 0.0
H270 H 0.55338 0.36788 0.86025 0.0
H271 H 0.63973 0.31655 0.88908 0.0
H272 H 0.74107 0.42058 0.82979 0.0
H273 H 0.67131 0.35151 0.84447 0.0
H274 H 0.62558 0.43757 0.87971 0.0
H275 H 0.69547 0.50639 0.86553 0.0
C276 C 0.51841 0.30142 0.87773 0.0
C277 C 0.52238 0.26615 0.88972 0.0
C278 C 0.55768 0.34181 0.86989 0.0
C279 C 0.60186 0.34747 0.87332 0.0
C280 C 0.60603 0.31284 0.88594 0.0
C281 C 0.56667 0.27276 0.8943 0.0
C282 C 0.71567 0.42469 0.84024 0.0
C283 C 0.72363 0.46894 0.84636 0.0
C284 C 0.67611 0.3852 0.84895 0.0
C285 C 0.64328 0.38919 0.86348 0.0
C286 C 0.65027 0.43341 0.86859 0.0
C287 C 0.69019 0.47279 0.86038 0.0
H288 H 0.60302 0.46982 0.22592 0.0
H289 H 0.60632 0.59485 0.20205 0.0
H290 H 0.52003 0.42676 0.21993 0.0
H291 H 0.52213 0.55134 0.19644 0.0
H292 H 0.36646 0.44819 0.18294 0.0
H293 H 0.44974 0.48125 0.17503 0.0
H294 H 0.46581 0.43792 0.24798 0.0
H295 H 0.38389 0.40609 0.25582 0.0
C296 C 0.58598 0.48801 0.21909 0.0
C297 C 0.61079 0.53588 0.21507 0.0
C298 C 0.53853 0.46325 0.21553 0.0
C299 C 0.51472 0.48588 0.20811 0.0
C300 C 0.53984 0.53311 0.20209 0.0
C301 C 0.58781 0.55802 0.20546 0.0
C302 C 0.3879 0.44481 0.19688 0.0
C303 C 0.36921 0.42454 0.21991 0.0
C304 C 0.43533 0.464 0.19247 0.0
C305 C 0.46401 0.46197 0.21087 0.0
C306 C 0.44445 0.43945 0.23334 0.0
C307 C 0.39764 0.42128 0.23787 0.0
H308 H 0.02743 0.60751 0.58929 0.0
H309 H 0.08408 0.62658 0.51558 0.0
H310 H 0.9735 0.52696 0.58021 0.0
H311 H 0.03012 0.54455 0.50648 0.0
H312 H 0.97817 0.38342 0.53292 0.0
H313 H 0.0233 0.46758 0.52739 0.0
H314 H 0.90573 0.47894 0.55064 0.0
H315 H 0.86127 0.39582 0.55649 0.0
C316 C 0.02758 0.59444 0.57095 0.0
C317 C 0.05941 0.62291 0.55306 0.0
C318 C 0.99672 0.54846 0.56571 0.0
C319 C 0.99763 0.52972 0.5426 0.0
C320 C 0.0288 0.55841 0.52438 0.0
C321 C 0.05923 0.60511 0.52949 0.0
C322 C 0.96177 0.40392 0.53612 0.0
C323 C 0.91679 0.38353 0.54573 0.0
C324 C 0.9874 0.45189 0.53283 0.0
C325 C 0.968 0.47954 0.53896 0.0
C326 C 0.92156 0.45837 0.54611 0.0
C327 C 0.89629 0.41088 0.54957 0.0
H328 H 0.39423 0.9839 0.87052 0.0
H329 H 0.48652 0.10756 0.83032 0.0
H330 H 0.4388 0.94794 0.85696 0.0
H331 H 0.53258 0.07236 0.81766 0.0
H332 H 0.52402 0.89111 0.82867 0.0
H333 H 0.47928 0.92792 0.81647 0.0
H334 H 0.57334 0.04994 0.85713 0.0
H335 H 0.6166 0.01234 0.87021 0.0
C336 C 0.42279 0.00245 0.85782 0.0
C337 C 0.43682 0.04807 0.85117 0.0
C338 C 0.44828 0.982 0.85006 0.0
C339 C 0.48898 0.0075 0.83625 0.0
C340 C 0.50102 0.05195 0.82803 0.0
C341 C 0.47464 0.07191 0.83519 0.0
C342 C 0.53644 0.9267 0.83384 0.0
C343 C 0.57378 0.94924 0.85018 0.0
C344 C 0.51076 0.94757 0.82697 0.0
C345 C 0.52303 0.99164 0.83585 0.0
C346 C 0.56365 0.01617 0.84976 0.0
C347 C 0.58846 0.9948 0.85722 0.0
H348 H 0.48553 0.60039 0.51175 0.0
H349 H 0.62152 0.63144 0.5352 0.0
H350 H 0.45533 0.51976 0.52209 0.0
H351 H 0.59102 0.54974 0.54564 0.0
H352 H 0.52993 0.40346 0.50626 0.0
H353 H 0.5638 0.48508 0.51511 0.0
H354 H 0.43936 0.45855 0.5534 0.0
H355 H 0.40506 0.37601 0.54439 0.0
C356 C 0.5088 0.58998 0.51959 0.0
C357 C 0.55603 0.62183 0.52221 0.0
C358 C 0.49134 0.54384 0.52583 0.0
C359 C 0.52084 0.52839 0.53457 0.0
C360 C 0.5676 0.56081 0.53882 0.0
C361 C 0.58503 0.60741 0.53287 0.0
C362 C 0.51 0.41485 0.51694 0.0
C363 C 0.46445 0.38359 0.52415 0.0
C364 C 0.52972 0.4616 0.52233 0.0
C365 C 0.50416 0.47823 0.53484 0.0
C366 C 0.4597 0.44658 0.54359 0.0
C367 C 0.44007 0.39947 0.53843 0.0
H368 H 0.00868 0.606 0.86718 0.0
H369 H 0.88159 0.49546 0.89664 0.0
H370 H 0.04818 0.56333 0.87796 0.0
H371 H 0.92063 0.45195 0.90676 0.0
H372 H 0.99333 0.38747 0.85209 0.0
H373 H 0.9515 0.42537 0.86696 0.0
H374 H 0.06779 0.51543 0.9126 0.0
H375 H 0.10893 0.47591 0.8984 0.0
C376 C 0.98993 0.57368 0.87716 0.0
C377 C 0.94249 0.55405 0.88141 0.0
C378 C 0.01239 0.54922 0.88331 0.0
C379 C 0.98726 0.50436 0.89312 0.0
C380 C 0.94069 0.4866 0.8994 0.0
C381 C 0.9185 0.51151 0.89372 0.0
C382 C 0.00881 0.41365 0.8663 0.0
C383 C 0.05387 0.42861 0.87436 0.0
C384 C 0.985 0.43535 0.87482 0.0
C385 C 0.00658 0.47327 0.89091 0.0
C386 C 0.05042 0.48601 0.90038 0.0
C387 C 0.07374 0.46334 0.89237 0.0
H388 H 0.36894 0.92408 0.21781 0.0
H389 H 0.384 0.96871 0.14167 0.0
H390 H 0.45144 0.97926 0.22493 0.0
H391 H 0.46505 0.02385 0.14875 0.0
H392 H 0.59706 0.14064 0.16914 0.0
H393 H 0.51415 0.09616 0.17551 0.0
H394 H 0.5275 0.98285 0.20434 0.0
H395 H 0.61151 0.02794 0.19818 0.0
C396 C 0.38965 0.94658 0.20289 0.0
C397 C 0.37058 0.94265 0.17924 0.0
C398 C 0.43661 0.97768 0.20688 0.0
C399 C 0.46429 0.00577 0.18741 0.0
C400 C 0.44433 0.003 0.16416 0.0
C401 C 0.39807 0.97147 0.16007 0.0
C402 C 0.58253 0.10655 0.17727 0.0
C403 C 0.61046 0.08716 0.18257 0.0
C404 C 0.53514 0.0813 0.18105 0.0
C405 C 0.51459 0.03602 0.19008 0.0
C406 C 0.54275 0.01788 0.19745 0.0
C407 C 0.59061 0.04346 0.19379 0.0
H408 H 0.22329 0.29774 0.32143 0.0
H409 H 0.32994 0.43531 0.34086 0.0
H410 H 0.25132 0.26594 0.35368 0.0
H411 H 0.35784 0.40361 0.37267 0.0
H412 H 0.43329 0.33083 0.40123 0.0
H413 H 0.39796 0.35687 0.37049 0.0
H414 H 0.2634 0.26446 0.40092 0.0
H415 H 0.29892 0.23839 0.43209 0.0
C416 C 0.25211 0.32126 0.33282 0.0
C417 C 0.27435 0.36916 0.32843 0.0
C418 C 0.26822 0.303 0.35128 0.0
C419 C 0.30731 0.33217 0.36549 0.0
C420 C 0.32819 0.38008 0.36177 0.0
C421 C 0.31184 0.3983 0.34362 0.0
C422 C 0.39611 0.31553 0.40129 0.0
C423 C 0.36906 0.28249 0.41925 0.0
C424 C 0.37586 0.33082 0.38375 0.0
C425 C 0.32787 0.31324 0.38342 0.0
C426 C 0.30045 0.27872 0.40066 0.0
C427 C 0.32084 0.26377 0.41851 0.0
H428 H 0.87801 0.32735 0.67096 0.0
H429 H 0.94047 0.25093 0.64194 0.0
H430 H 0.93437 0.35659 0.70429 0.0
H431 H 0.99741 0.28065 0.67543 0.0
H432 H 0.06465 0.31452 0.75483 0.0
H433 H 0.00863 0.28013 0.72111 0.0
H434 H 0.01679 0.41142 0.7079 0.0
H435 H 0.07215 0.44551 0.74145 0.0
C436 C 0.90348 0.31634 0.67179 0.0
C437 C 0.90459 0.28677 0.65363 0.0
C438 C 0.93618 0.33353 0.69084 0.0
C439 C 0.97102 0.32161 0.69242 0.0
C440 C 0.97108 0.29053 0.67486 0.0
C441 C 0.93839 0.27347 0.65563 0.0
C442 C 0.05491 0.33616 0.74451 0.0
C443 C 0.07293 0.38283 0.75099 0.0
C444 C 0.02275 0.31642 0.72516 0.0
C445 C 0.00755 0.34276 0.71196 0.0
C446 C 0.02684 0.38975 0.71796 0.0
C447 C 0.05904 0.40947 0.73712 0.0
H448 H 0.66137 0.91567 0.98764 0.0
H449 H 0.57551 0.97262 0.96665 0.0
H450 H 0.69166 0.9695 1.02238 0.0
H451 H 0.60813 0.02879 0.99944 0.0
H452 H 0.63965 0.10115 0.07215 0.0
H453 H 0.60989 0.0451 0.03922 0.0
H454 H 0.7373 0.04079 0.03857 0.0
H455 H 0.76511 0.09439 0.07347 0.0
C456 C 0.64917 0.93991 0.99041 0.0
C457 C 0.61542 0.93929 0.97465 0.0
C458 C 0.66694 0.97136 1.01022 0.0
C459 C 0.65247 0.00403 1.01432 0.0
C460 C 0.61939 0.00365 0.99794 0.0
C461 C 0.60068 0.9714 0.97878 0.0
C462 C 0.66152 0.08854 0.06485 0.0
C463 C 0.705 0.10273 0.0753 0.0
C464 C 0.64452 0.05628 0.04563 0.0
C465 C 0.67104 0.03808 0.03547 0.0
C466 C 0.7151 0.05296 0.04583 0.0
C467 C 0.73152 0.0843 0.06572 0.0
H468 H 0.6988 0.76609 0.4197 0.0
H469 H 0.56248 0.65812 0.39929 0.0
H470 H 0.73211 0.74075 0.38693 0.0
H471 H 0.59571 0.63274 0.36698 0.0
H472 H 0.7606 0.70164 0.30637 0.0
H473 H 0.73326 0.73276 0.33927 0.0
H474 H 0.64514 0.59497 0.36707 0.0
H475 H 0.67259 0.56398 0.33458 0.0
C476 C 0.67589 0.73737 0.40808 0.0
C477 C 0.62788 0.71423 0.41221 0.0
C478 C 0.69501 0.72284 0.38931 0.0
C479 C 0.66664 0.68433 0.37451 0.0
C480 C 0.61864 0.66206 0.37826 0.0
C481 C 0.59954 0.67694 0.3967 0.0
C482 C 0.73595 0.67807 0.31974 0.0
C483 C 0.71886 0.63023 0.31774 0.0
C484 C 0.72027 0.69593 0.3386 0.0
C485 C 0.68656 0.66633 0.35564 0.0
C486 C 0.67059 0.61871 0.35405 0.0
C487 C 0.68669 0.60097 0.33549 0.0
H488 H 0.12499 0.66394 0.67717 0.0
H489 H 0.07645 0.75666 0.65513 0.0
H490 H 0.06933 0.63528 0.71092 0.0
H491 H 0.02002 0.72739 0.68893 0.0
H492 H 0.9494 0.68573 0.767 0.0
H493 H 0.00733 0.72109 0.73413 0.0
H494 H 0.98657 0.58688 0.71451 0.0
H495 H 0.92949 0.55186 0.7473 0.0
C496 C 0.10284 0.67871 0.67968 0.0
C497 C 0.1053 0.71262 0.66329 0.0
C498 C 0.07046 0.66185 0.69895 0.0
C499 C 0.03941 0.67831 0.70248 0.0
C500 C 0.04333 0.71388 0.68685 0.0
C501 C 0.07579 0.73074 0.66745 0.0
C502 C 0.95686 0.66374 0.75548 0.0
C503 C 0.93473 0.61588 0.75992 0.0
C504 C 0.99013 0.68404 0.73661 0.0
C505 C 0.0023 0.65703 0.72182 0.0
C506 C 0.97902 0.60903 0.72583 0.0
C507 C 0.94581 0.58881 0.74456 0.0
H508 H 0.32103 0.86418 0.05807 0.0
H509 H 0.23322 0.91837 0.08046 0.0
H510 H 0.34976 0.91829 1.02359 0.0
H511 H 0.26259 0.97324 0.04594 0.0
H512 H 0.30369 0.04153 0.96733 0.0
H513 H 0.26768 0.98461 1.00063 0.0
H514 H 0.40049 0.00052 1.01919 0.0
H515 H 0.43612 0.05657 0.98598 0.0
C516 C 0.3073 0.88721 0.05547 0.0
C517 C 0.27481 0.88684 0.07218 0.0
C518 C 0.32422 0.9187 0.03578 0.0
C519 C 0.30926 0.95092 1.03215 0.0
C520 C 0.27494 0.949 0.04809 0.0
C521 C 0.258 0.91742 0.06789 0.0
C522 C 0.32524 0.03319 0.9787 0.0
C523 C 0.37287 0.05367 0.97385 0.0
C524 C 0.30457 0.00051 0.99781 0.0
C525 C 0.33096 0.98728 1.01246 0.0
C526 C 0.37877 0.00889 1.008 0.0
C527 C 0.39937 0.04152 0.98903 0.0
H528 H 0.86727 0.16846 0.22952 0.0
H529 H 0.88022 0.14137 0.15264 0.0
H530 H 0.94835 0.19524 0.23585 0.0
H531 H 0.96145 0.16594 0.15923 0.0
H532 H 0.10844 0.29011 0.17014 0.0
H533 H 0.02708 0.23785 0.1636 0.0
H534 H 0.01401 0.18826 0.23884 0.0
H535 H 0.09565 0.24287 0.24572 0.0
C536 C 0.88714 0.16678 0.21411 0.0
C537 C 0.86744 0.1536 0.19045 0.0
C538 C 0.93389 0.18192 0.21779 0.0
C539 C 0.96208 0.18368 0.19797 0.0
C540 C 0.94124 0.16638 0.1748 0.0
C541 C 0.89451 0.15186 0.17103 0.0
C542 C 0.08849 0.2675 0.18519 0.0
C543 C 0.10841 0.27126 0.20859 0.0
C544 C 0.04158 0.23703 0.18138 0.0
C545 C 0.01338 0.20899 0.20077 0.0
C546 C 0.03426 0.2101 0.22363 0.0
C547 C 0.08119 0.24116 0.22755 0.0
H548 H 0.83091 0.12426 0.50013 0.0
H549 H 0.86375 0.11382 0.57632 0.0
H550 H 0.80304 0.04286 0.49438 0.0
H551 H 0.83815 0.03226 0.57025 0.0
H552 H 0.71379 0.88477 0.56219 0.0
H553 H 0.76631 0.9664 0.56753 0.0
H554 H 0.80908 0.97689 0.49106 0.0
H555 H 0.75413 0.89498 0.48545 0.0
C556 C 0.83362 0.10486 0.51549 0.0
C557 C 0.84881 0.12543 0.53882 0.0
C558 C 0.81782 0.0579 0.51213 0.0
C559 C 0.81741 0.0303 0.53196 0.0
C560 C 0.8366 0.05195 0.55472 0.0
C561 C 0.85175 0.09889 0.55818 0.0
C562 C 0.73498 0.90422 0.5466 0.0
C563 C 0.72917 0.88345 0.52328 0.0
C564 C 0.7656 0.9513 0.54971 0.0
C565 C 0.79181 0.97888 0.52966 0.0
C566 C 0.78868 0.95718 0.5068 0.0
C567 C 0.75743 0.91007 0.50359 0.0
H568 H 0.85569 0.73163 0.82827 0.0
H569 H 0.81332 0.69411 0.90432 0.0
H570 H 0.82774 0.78663 0.82955 0.0
H571 H 0.78406 0.74747 0.90537 0.0
H572 H 0.74071 0.8527 0.90583 0.0
H573 H 0.79446 0.82316 0.90449 0.0
H574 H 0.75247 0.77719 0.82933 0.0
H575 H 0.70039 0.80796 0.83042 0.0
C576 C 0.84109 0.73562 0.84537 0.0
C577 C 0.83618 0.70804 0.86608 0.0
C578 C 0.82477 0.76693 0.84607 0.0
C579 C 0.80296 0.77111 0.86745 0.0
C580 C 0.80097 0.74567 0.88864 0.0
C581 C 0.81749 0.71466 0.88798 0.0
C582 C 0.7438 0.83721 0.88886 0.0
C583 C 0.71583 0.83216 0.86835 0.0
C584 C 0.77439 0.81999 0.88813 0.0
C585 C 0.77747 0.79719 0.86691 0.0
C586 C 0.75156 0.79489 0.84592 0.0
C587 C 0.72126 0.81227 0.84661 0.0
H588 H 0.89165 0.72288 0.24578 0.0
H589 H 0.86146 0.73834 0.16982 0.0
H590 H 0.97329 0.77208 0.23781 0.0
H591 H 0.94337 0.78994 0.162 0.0
H592 H 0.08733 0.80483 0.14883 0.0
H593 H 0.00636 0.77935 0.15591 0.0
H594 H 0.0394 0.84099 0.22878 0.0
H595 H 0.12015 0.86402 0.22204 0.0
C596 C 0.90235 0.73819 0.22757 0.0
C597 C 0.87011 0.72614 0.20835 0.0
C598 C 0.94944 0.76675 0.22295 0.0
C599 C 0.96545 0.78461 0.19906 0.0
C600 C 0.93263 0.77583 0.18043 0.0
C601 C 0.88554 0.74661 0.18496 0.0
C602 C 0.07739 0.81373 0.16616 0.0
C603 C 0.10996 0.83581 0.185 0.0
C604 C 0.0308 0.79932 0.17024 0.0
C605 C 0.01579 0.80737 0.19314 0.0
C606 C 0.04924 0.83292 0.21119 0.0
C607 C 0.09567 0.84651 0.20727 0.0
H608 H 0.18054 0.88599 0.50788 0.0
H609 H 0.15049 0.89321 0.58499 0.0
H610 H 0.2065 0.96721 0.50299 0.0
H611 H 0.17437 0.97467 0.57985 0.0
H612 H 0.29703 0.12379 0.57042 0.0
H613 H 0.24532 0.04204 0.57626 0.0
H614 H 0.19676 0.03134 0.50103 0.0
H615 H 0.25082 0.11331 0.49483 0.0
C616 C 0.17819 0.90467 0.52367 0.0
C617 C 0.16416 0.88325 0.54694 0.0
C618 C 0.19279 0.95147 0.52081 0.0
C619 C 0.1932 0.97809 0.54108 0.0
C620 C 0.17566 0.95568 0.56394 0.0
C621 C 0.16161 0.90885 0.56688 0.0
C622 C 0.27462 0.10429 0.55525 0.0
C623 C 0.27873 0.12493 0.53199 0.0
C624 C 0.24453 0.05714 0.55866 0.0
C625 C 0.21724 0.02948 0.53898 0.0
C626 C 0.21818 0.05116 0.51641 0.0
C627 C 0.24888 0.09831 0.51289 0.0
H628 H 0.15128 0.26234 0.82049 0.0
H629 H 0.19024 0.29828 0.89696 0.0
H630 H 0.17789 0.20628 0.82248 0.0
H631 H 0.2181 0.24385 0.89873 0.0
H632 H 0.25852 0.13695 0.9009 0.0
H633 H 0.20564 0.16738 0.89819 0.0
H634 H 0.25247 0.21382 0.8235 0.0
H635 H 0.30371 0.18215 0.82593 0.0
C636 C 0.16489 0.25782 0.83781 0.0
C637 C 0.16918 0.28521 0.85846 0.0
C638 C 0.1804 0.22588 0.83893 0.0
C639 C 0.20072 0.22082 0.86068 0.0
C640 C 0.20226 0.24625 0.88173 0.0
C641 C 0.18658 0.27791 0.88065 0.0
C642 C 0.25662 0.15266 0.88371 0.0
C643 C 0.2858 0.15769 0.86377 0.0
C644 C 0.22655 0.17041 0.8822 0.0
C645 C 0.22522 0.19377 0.86076 0.0
C646 C 0.2521 0.19579 0.84025 0.0
C647 C 0.28189 0.17786 0.84171 0.0
loop_
_geom_bond_atom_site_label_1
_geom_bond_atom_site_label_2
_geom_bond_distance
_geom_bond_site_symmetry_2
_ccdc_geom_bond_type
O0 Cd1 2.223 . S
O0 C8 1.315 . S
Cd1 O0 2.223 . S
Cd1 O4 2.297 . S
Cd1 O5 2.439 . S
Cd1 O11 2.240 . S
Cd2 O3 2.240 . S
Cd2 O10 2.223 . S
Cd2 O12 2.297 . S
Cd2 O13 2.439 . S
O3 Cd2 2.240 . S
O3 C8 1.279 . S
O4 Cd1 2.297 . S
O4 C6 1.247 . S
O5 Cd1 2.439 . S
O5 C6 1.208 . S
C6 O4 1.247 . S
C6 O5 1.208 . S
C7 O12 1.247 . S
C7 O13 1.208 . S
C8 O0 1.315 . S
C8 O3 1.279 . S
C9 O10 1.315 . S
C9 O11 1.279 . S
O10 Cd2 2.223 . S
O10 C9 1.315 . S
O11 Cd1 2.240 . S
O11 C9 1.279 . S
O12 Cd2 2.297 . S
O12 C7 1.247 . S
O13 Cd2 2.439 . S
O13 C7 1.208 . S
O14 Cd15 2.223 . S
O14 C22 1.315 . S
Cd15 O14 2.223 . S
Cd15 O18 2.297 . S
Cd15 O19 2.439 . S
Cd15 O25 2.240 . S
Cd16 O17 2.240 . S
Cd16 O24 2.223 . S
Cd16 O26 2.297 . S
Cd16 O27 2.439 . S
O17 Cd16 2.240 . S
O17 C22 1.279 . S
O18 Cd15 2.297 . S
O18 C20 1.247 . S
O19 Cd15 2.439 . S
O19 C20 1.208 . S
C20 O18 1.247 . S
C20 O19 1.208 . S
C21 O26 1.247 . S
C21 O27 1.208 . S
C22 O14 1.315 . S
C22 O17 1.279 . S
C23 O24 1.315 . S
C23 O25 1.279 . S
O24 Cd16 2.223 . S
O24 C23 1.315 . S
O25 Cd15 2.240 . S
O25 C23 1.279 . S
O26 Cd16 2.297 . S
O26 C21 1.247 . S
O27 Cd16 2.439 . S
O27 C21 1.208 . S
O28 Cd29 2.223 . S
O28 C36 1.315 . S
Cd29 O28 2.223 . S
Cd29 O32 2.297 . S
Cd29 O33 2.439 . S
Cd29 O39 2.240 . S
Cd30 O31 2.240 . S
Cd30 O38 2.223 . S
Cd30 O40 2.297 . S
Cd30 O41 2.439 . S
O31 Cd30 2.240 . S
O31 C36 1.279 . S
O32 Cd29 2.297 . S
O32 C34 1.247 . S
O33 Cd29 2.439 . S
O33 C34 1.208 . S
C34 O32 1.247 . S
C34 O33 1.208 . S
C35 O40 1.247 . S
C35 O41 1.208 . S
C36 O28 1.315 . S
C36 O31 1.279 . S
C37 O38 1.315 . S
C37 O39 1.279 . S
O38 Cd30 2.223 . S
O38 C37 1.315 . S
O39 Cd29 2.240 . S
O39 C37 1.279 . S
O40 Cd30 2.297 . S
O40 C35 1.247 . S
O41 Cd30 2.439 . S
O41 C35 1.208 . S
O42 Cd43 2.223 . S
O42 C50 1.315 . S
Cd43 O42 2.223 . S
Cd43 O46 2.297 . S
Cd43 O47 2.439 . S
Cd43 O53 2.240 . S
Cd44 O45 2.240 . S
Cd44 O52 2.223 . S
Cd44 O54 2.297 . S
Cd44 O55 2.439 . S
O45 Cd44 2.240 . S
O45 C50 1.279 . S
O46 Cd43 2.297 . S
O46 C48 1.247 . S
O47 Cd43 2.439 . S
O47 C48 1.208 . S
C48 O46 1.247 . S
C48 O47 1.208 . S
C49 O54 1.247 . S
C49 O55 1.208 . S
C50 O42 1.315 . S
C50 O45 1.279 . S
C51 O52 1.315 . S
C51 O53 1.279 . S
O52 Cd44 2.223 . S
O52 C51 1.315 . S
O53 Cd43 2.240 . S
O53 C51 1.279 . S
O54 Cd44 2.297 . S
O54 C49 1.247 . S
O55 Cd44 2.439 . S
O55 C49 1.208 . S
O56 Cd57 2.223 . S
O56 C64 1.315 . S
Cd57 O56 2.223 . S
Cd57 O60 2.297 . S
Cd57 O61 2.439 . S
Cd57 O67 2.240 . S
Cd58 O59 2.240 . S
Cd58 O66 2.223 . S
Cd58 O68 2.297 . S
Cd58 O69 2.439 . S
O59 Cd58 2.240 . S
O59 C64 1.279 . S
O60 Cd57 2.297 . S
O60 C62 1.247 . S
O61 Cd57 2.439 . S
O61 C62 1.208 . S
C62 O60 1.247 . S
C62 O61 1.208 . S
C63 O68 1.247 . S
C63 O69 1.208 . S
C64 O56 1.315 . S
C64 O59 1.279 . S
C65 O66 1.315 . S
C65 O67 1.279 . S
O66 Cd58 2.223 . S
O66 C65 1.315 . S
O67 Cd57 2.240 . S
O67 C65 1.279 . S
O68 Cd58 2.297 . S
O68 C63 1.247 . S
O69 Cd58 2.439 . S
O69 C63 1.208 . S
O70 Cd71 2.223 . S
O70 C78 1.315 . S
Cd71 O70 2.223 . S
Cd71 O74 2.297 . S
Cd71 O75 2.439 . S
Cd71 O81 2.240 . S
Cd72 O73 2.240 . S
Cd72 O80 2.223 . S
Cd72 O82 2.297 . S
Cd72 O83 2.439 . S
O73 Cd72 2.240 . S
O73 C78 1.279 . S
O74 Cd71 2.297 . S
O74 C76 1.247 . S
O75 Cd71 2.439 . S
O75 C76 1.208 . S
C76 O74 1.247 . S
C76 O75 1.208 . S
C77 O82 1.247 . S
C77 O83 1.208 . S
C78 O70 1.315 . S
C78 O73 1.279 . S
C79 O80 1.315 . S
C79 O81 1.279 . S
O80 Cd72 2.223 . S
O80 C79 1.315 . S
O81 Cd71 2.240 . S
O81 C79 1.279 . S
O82 Cd72 2.297 . S
O82 C77 1.247 . S
O83 Cd72 2.439 . S
O83 C77 1.208 . S
O84 Cd85 2.223 . S
O84 C92 1.315 . S
Cd85 O84 2.223 . S
Cd85 O88 2.297 . S
Cd85 O89 2.439 . S
Cd85 O95 2.240 . S
Cd86 O87 2.240 . S
Cd86 O94 2.223 . S
Cd86 O96 2.297 . S
Cd86 O97 2.439 . S
O87 Cd86 2.240 . S
O87 C92 1.279 . S
O88 Cd85 2.297 . S
O88 C90 1.247 . S
O89 Cd85 2.439 . S
O89 C90 1.208 . S
C90 O88 1.247 . S
C90 O89 1.208 . S
C91 O96 1.247 . S
C91 O97 1.208 . S
C92 O84 1.315 . S
C92 O87 1.279 . S
C93 O94 1.315 . S
C93 O95 1.279 . S
O94 Cd86 2.223 . S
O94 C93 1.315 . S
O95 Cd85 2.240 . S
O95 C93 1.279 . S
O96 Cd86 2.297 . S
O96 C91 1.247 . S
O97 Cd86 2.439 . S
O97 C91 1.208 . S
O98 Cd99 2.223 . S
O98 C106 1.315 . S
Cd99 O98 2.223 . S
Cd99 O102 2.297 . S
Cd99 O103 2.439 . S
Cd99 O109 2.240 . S
Cd100 O101 2.240 . S
Cd100 O108 2.223 . S
Cd100 O110 2.297 . S
Cd100 O111 2.439 . S
O101 Cd100 2.240 . S
O101 C106 1.279 . S
O102 Cd99 2.297 . S
O102 C104 1.247 . S
O103 Cd99 2.439 . S
O103 C104 1.208 . S
C104 O102 1.247 . S
C104 O103 1.208 . S
C105 O110 1.247 . S
C105 O111 1.208 . S
C106 O98 1.315 . S
C106 O101 1.279 . S
C107 O108 1.315 . S
C107 O109 1.279 . S
O108 Cd100 2.223 . S
O108 C107 1.315 . S
O109 Cd99 2.240 . S
O109 C107 1.279 . S
O110 Cd100 2.297 . S
O110 C105 1.247 . S
O111 Cd100 2.439 . S
O111 C105 1.208 . S
O112 Cd113 2.223 . S
O112 C120 1.315 . S
Cd113 O112 2.223 . S
Cd113 O116 2.297 . S
Cd113 O117 2.439 . S
Cd113 O123 2.240 . S
Cd114 O115 2.240 . S
Cd114 O122 2.223 . S
Cd114 O124 2.297 . S
Cd114 O125 2.439 . S
O115 Cd114 2.240 . S
O115 C120 1.279 . S
O116 Cd113 2.297 . S
O116 C118 1.247 . S
O117 Cd113 2.439 . S
O117 C118 1.208 . S
C118 O116 1.247 . S
C118 O117 1.208 . S
C119 O124 1.247 . S
C119 O125 1.208 . S
C120 O112 1.315 . S
C120 O115 1.279 . S
C121 O122 1.315 . S
C121 O123 1.279 . S
O122 Cd114 2.223 . S
O122 C121 1.315 . S
O123 Cd113 2.240 . S
O123 C121 1.279 . S
O124 Cd114 2.297 . S
O124 C119 1.247 . S
O125 Cd114 2.439 . S
O125 C119 1.208 . S
O126 Cd127 2.223 . S
O126 C134 1.315 . S
Cd127 O126 2.223 . S
Cd127 O130 2.297 . S
Cd127 O131 2.439 . S
Cd127 O137 2.240 . S
Cd128 O129 2.240 . S
Cd128 O136 2.223 . S
Cd128 O138 2.297 . S
Cd128 O139 2.439 . S
O129 Cd128 2.240 . S
O129 C134 1.279 . S
O130 Cd127 2.297 . S
O130 C132 1.247 . S
O131 Cd127 2.439 . S
O131 C132 1.208 . S
C132 O130 1.247 . S
C132 O131 1.208 . S
C133 O138 1.247 . S
C133 O139 1.208 . S
C134 O126 1.315 . S
C134 O129 1.279 . S
C135 O136 1.315 . S
C135 O137 1.279 . S
O136 Cd128 2.223 . S
O136 C135 1.315 . S
O137 Cd127 2.240 . S
O137 C135 1.279 . S
O138 Cd128 2.297 . S
O138 C133 1.247 . S
O139 Cd128 2.439 . S
O139 C133 1.208 . S
O140 Cd141 2.223 . S
O140 C148 1.315 . S
Cd141 O140 2.223 . S
Cd141 O144 2.297 . S
Cd141 O145 2.439 . S
Cd141 O151 2.240 . S
Cd142 O143 2.240 . S
Cd142 O150 2.223 . S
Cd142 O152 2.297 . S
Cd142 O153 2.439 . S
O143 Cd142 2.240 . S
O143 C148 1.279 . S
O144 Cd141 2.297 . S
O144 C146 1.247 . S
O145 Cd141 2.439 . S
O145 C146 1.208 . S
C146 O144 1.247 . S
C146 O145 1.208 . S
C147 O152 1.247 . S
C147 O153 1.208 . S
C148 O140 1.315 . S
C148 O143 1.279 . S
C149 O150 1.315 . S
C149 O151 1.279 . S
O150 Cd142 2.223 . S
O150 C149 1.315 . S
O151 Cd141 2.240 . S
O151 C149 1.279 . S
O152 Cd142 2.297 . S
O152 C147 1.247 . S
O153 Cd142 2.439 . S
O153 C147 1.208 . S
O154 Cd155 2.223 . S
O154 C162 1.315 . S
Cd155 O154 2.223 . S
Cd155 O158 2.297 . S
Cd155 O159 2.439 . S
Cd155 O165 2.240 . S
Cd156 O157 2.240 . S
Cd156 O164 2.223 . S
Cd156 O166 2.297 . S
Cd156 O167 2.439 . S
O157 Cd156 2.240 . S
O157 C162 1.279 . S
O158 Cd155 2.297 . S
O158 C160 1.247 . S
O159 Cd155 2.439 . S
O159 C160 1.208 . S
C160 O158 1.247 . S
C160 O159 1.208 . S
C161 O166 1.247 . S
C161 O167 1.208 . S
C162 O154 1.315 . S
C162 O157 1.279 . S
C163 O164 1.315 . S
C163 O165 1.279 . S
O164 Cd156 2.223 . S
O164 C163 1.315 . S
O165 Cd155 2.240 . S
O165 C163 1.279 . S
O166 Cd156 2.297 . S
O166 C161 1.247 . S
O167 Cd156 2.439 . S
O167 C161 1.208 . S
H168 C176 0.950 . S
H169 C181 0.950 . S
H170 C178 0.950 . S
H171 C180 0.950 . S
H172 C182 0.950 . S
H173 C184 0.950 . S
H174 C186 0.950 . S
H175 C187 0.950 . S
C176 H168 0.950 . S
C176 C177 1.386 . S
C176 C178 1.391 . S
C177 C176 1.386 . S
C177 C181 1.393 . S
C178 H170 0.950 . S
C178 C176 1.391 . S
C178 C179 1.400 . S
C179 C178 1.400 . S
C179 C180 1.398 . S
C179 C185 1.491 . S
C180 H171 0.950 . S
C180 C179 1.398 . S
C180 C181 1.391 . S
C181 H169 0.950 . S
C181 C177 1.393 . S
C181 C180 1.391 . S
C182 H172 0.950 . S
C182 C183 1.386 . S
C182 C184 1.391 . S
C183 C182 1.386 . S
C183 C187 1.393 . S
C184 H173 0.950 . S
C184 C182 1.391 . S
C184 C185 1.400 . S
C185 C179 1.491 . S
C185 C184 1.400 . S
C185 C186 1.398 . S
C186 H174 0.950 . S
C186 C185 1.398 . S
C186 C187 1.391 . S
C187 H175 0.950 . S
C187 C183 1.393 . S
C187 C186 1.391 . S
H188 C196 0.950 . S
H189 C201 0.950 . S
H190 C198 0.950 . S
H191 C200 0.950 . S
H192 C202 0.950 . S
H193 C204 0.950 . S
H194 C206 0.950 . S
H195 C207 0.950 . S
C196 H188 0.950 . S
C196 C197 1.386 . S
C196 C198 1.391 . S
C197 C196 1.386 . S
C197 C201 1.393 . S
C198 H190 0.950 . S
C198 C196 1.391 . S
C198 C199 1.400 . S
C199 C198 1.400 . S
C199 C200 1.398 . S
C199 C205 1.491 . S
C200 H191 0.950 . S
C200 C199 1.398 . S
C200 C201 1.391 . S
C201 H189 0.950 . S
C201 C197 1.393 . S
C201 C200 1.391 . S
C202 H192 0.950 . S
C202 C203 1.386 . S
C202 C204 1.391 . S
C203 C202 1.386 . S
C203 C207 1.393 . S
C204 H193 0.950 . S
C204 C202 1.391 . S
C204 C205 1.400 . S
C205 C199 1.491 . S
C205 C204 1.400 . S
C205 C206 1.398 . S
C206 H194 0.950 . S
C206 C205 1.398 . S
C206 C207 1.391 . S
C207 H195 0.950 . S
C207 C203 1.393 . S
C207 C206 1.391 . S
H208 C216 0.950 . S
H209 C221 0.950 . S
H210 C218 0.950 . S
H211 C220 0.950 . S
H212 C222 0.950 . S
H213 C224 0.950 . S
H214 C226 0.950 . S
H215 C227 0.950 . S
C216 H208 0.950 . S
C216 C217 1.386 . S
C216 C218 1.391 . S
C217 C216 1.386 . S
C217 C221 1.393 . S
C218 H210 0.950 . S
C218 C216 1.391 . S
C218 C219 1.400 . S
C219 C218 1.400 . S
C219 C220 1.398 . S
C219 C225 1.491 . S
C220 H211 0.950 . S
C220 C219 1.398 . S
C220 C221 1.391 . S
C221 H209 0.950 . S
C221 C217 1.393 . S
C221 C220 1.391 . S
C222 H212 0.950 . S
C222 C223 1.386 . S
C222 C224 1.391 . S
C223 C222 1.386 . S
C223 C227 1.393 . S
C224 H213 0.950 . S
C224 C222 1.391 . S
C224 C225 1.400 . S
C225 C219 1.491 . S
C225 C224 1.400 . S
C225 C226 1.398 . S
C226 H214 0.950 . S
C226 C225 1.398 . S
C226 C227 1.391 . S
C227 H215 0.950 . S
C227 C223 1.393 . S
C227 C226 1.391 . S
H228 C236 0.950 . S
H229 C241 0.950 . S
H230 C238 0.950 . S
H231 C240 0.950 . S
H232 C242 0.950 . S
H233 C244 0.950 . S
H234 C246 0.950 . S
H235 C247 0.950 . S
C236 H228 0.950 . S
C236 C237 1.386 . S
C236 C238 1.391 . S
C237 C236 1.386 . S
C237 C241 1.393 . S
C238 H230 0.950 . S
C238 C236 1.391 . S
C238 C239 1.400 . S
C239 C238 1.400 . S
C239 C240 1.398 . S
C239 C245 1.491 . S
C240 H231 0.950 . S
C240 C239 1.398 . S
C240 C241 1.391 . S
C241 H229 0.950 . S
C241 C237 1.393 . S
C241 C240 1.391 . S
C242 H232 0.950 . S
C242 C243 1.386 . S
C242 C244 1.391 . S
C243 C242 1.386 . S
C243 C247 1.393 . S
C244 H233 0.950 . S
C244 C242 1.391 . S
C244 C245 1.400 . S
C245 C239 1.491 . S
C245 C244 1.400 . S
C245 C246 1.398 . S
C246 H234 0.950 . S
C246 C245 1.398 . S
C246 C247 1.391 . S
C247 H235 0.950 . S
C247 C243 1.393 . S
C247 C246 1.391 . S
H248 C256 0.950 . S
H249 C261 0.950 . S
H250 C258 0.950 . S
H251 C260 0.950 . S
H252 C262 0.950 . S
H253 C264 0.950 . S
H254 C266 0.950 . S
H255 C267 0.950 . S
C256 H248 0.950 . S
C256 C257 1.386 . S
C256 C258 1.391 . S
C257 C256 1.386 . S
C257 C261 1.393 . S
C258 H250 0.950 . S
C258 C256 1.391 . S
C258 C259 1.400 . S
C259 C258 1.400 . S
C259 C260 1.398 . S
C259 C265 1.491 . S
C260 H251 0.950 . S
C260 C259 1.398 . S
C260 C261 1.391 . S
C261 H249 0.950 . S
C261 C257 1.393 . S
C261 C260 1.391 . S
C262 H252 0.950 . S
C262 C263 1.386 . S
C262 C264 1.391 . S
C263 C262 1.386 . S
C263 C267 1.393 . S
C264 H253 0.950 . S
C264 C262 1.391 . S
C264 C265 1.400 . S
C265 C259 1.491 . S
C265 C264 1.400 . S
C265 C266 1.398 . S
C266 H254 0.950 . S
C266 C265 1.398 . S
C266 C267 1.391 . S
C267 H255 0.950 . S
C267 C263 1.393 . S
C267 C266 1.391 . S
H268 C276 0.950 . S
H269 C281 0.950 . S
H270 C278 0.950 . S
H271 C280 0.950 . S
H272 C282 0.950 . S
H273 C284 0.950 . S
H274 C286 0.950 . S
H275 C287 0.950 . S
C276 H268 0.950 . S
C276 C277 1.386 . S
C276 C278 1.391 . S
C277 C276 1.386 . S
C277 C281 1.393 . S
C278 H270 0.950 . S
C278 C276 1.391 . S
C278 C279 1.400 . S
C279 C278 1.400 . S
C279 C280 1.398 . S
C279 C285 1.491 . S
C280 H271 0.950 . S
C280 C279 1.398 . S
C280 C281 1.391 . S
C281 H269 0.950 . S
C281 C277 1.393 . S
C281 C280 1.391 . S
C282 H272 0.950 . S
C282 C283 1.386 . S
C282 C284 1.391 . S
C283 C282 1.386 . S
C283 C287 1.393 . S
C284 H273 0.950 . S
C284 C282 1.391 . S
C284 C285 1.400 . S
C285 C279 1.491 . S
C285 C284 1.400 . S
C285 C286 1.398 . S
C286 H274 0.950 . S
C286 C285 1.398 . S
C286 C287 1.391 . S
C287 H275 0.950 . S
C287 C283 1.393 . S
C287 C286 1.391 . S
H288 C296 0.950 . S
H289 C301 0.950 . S
H290 C298 0.950 . S
H291 C300 0.950 . S
H292 C302 0.950 . S
H293 C304 0.950 . S
H294 C306 0.950 . S
H295 C307 0.950 . S
C296 H288 0.950 . S
C296 C297 1.386 . S
C296 C298 1.391 . S
C297 C296 1.386 . S
C297 C301 1.393 . S
C298 H290 0.950 . S
C298 C296 1.391 . S
C298 C299 1.400 . S
C299 C298 1.400 . S
C299 C300 1.398 . S
C299 C305 1.491 . S
C300 H291 0.950 . S
C300 C299 1.398 . S
C300 C301 1.391 . S
C301 H289 0.950 . S
C301 C297 1.393 . S
C301 C300 1.391 . S
C302 H292 0.950 . S
C302 C303 1.386 . S
C302 C304 1.391 . S
C303 C302 1.386 . S
C303 C307 1.393 . S
C304 H293 0.950 . S
C304 C302 1.391 . S
C304 C305 1.400 . S
C305 C299 1.491 . S
C305 C304 1.400 . S
C305 C306 1.398 . S
C306 H294 0.950 . S
C306 C305 1.398 . S
C306 C307 1.391 . S
C307 H295 0.950 . S
C307 C303 1.393 . S
C307 C306 1.391 . S
H308 C316 0.950 . S
H309 C321 0.950 . S
H310 C318 0.950 . S
H311 C320 0.950 . S
H312 C322 0.950 . S
H313 C324 0.950 . S
H314 C326 0.950 . S
H315 C327 0.950 . S
C316 H308 0.950 . S
C316 C317 1.386 . S
C316 C318 1.391 1_455 S
C317 C316 1.386 . S
C317 C321 1.393 . S
C318 H310 0.950 . S
C318 C316 1.391 1_655 S
C318 C319 1.400 1_655 S
C319 C318 1.400 1_455 S
C319 C320 1.398 . S
C319 C325 1.491 1_455 S
C320 H311 0.950 . S
C320 C319 1.398 . S
C320 C321 1.391 . S
C321 H309 0.950 . S
C321 C317 1.393 . S
C321 C320 1.391 . S
C322 H312 0.950 . S
C322 C323 1.386 . S
C322 C324 1.391 1_655 S
C323 C322 1.386 . S
C323 C327 1.393 . S
C324 H313 0.950 . S
C324 C322 1.391 1_455 S
C324 C325 1.400 1_455 S
C325 C319 1.491 1_655 S
C325 C324 1.400 1_655 S
C325 C326 1.398 . S
C326 H314 0.950 . S
C326 C325 1.398 . S
C326 C327 1.391 . S
C327 H315 0.950 . S
C327 C323 1.393 . S
C327 C326 1.391 . S
H328 C336 0.950 . S
H329 C341 0.950 . S
H330 C338 0.950 . S
H331 C340 0.950 1_565 S
H332 C342 0.950 . S
H333 C344 0.950 . S
H334 C346 0.950 1_545 S
H335 C347 0.950 . S
C336 H328 0.950 . S
C336 C337 1.386 . S
C336 C338 1.391 . S
C337 C336 1.386 . S
C337 C341 1.393 . S
C338 H330 0.950 . S
C338 C336 1.391 . S
C338 C339 1.400 . S
C339 C338 1.400 . S
C339 C340 1.398 . S
C339 C345 1.491 1_545 S
C340 H331 0.950 1_545 S
C340 C339 1.398 . S
C340 C341 1.391 . S
C341 H329 0.950 . S
C341 C337 1.393 . S
C341 C340 1.391 . S
C342 H332 0.950 . S
C342 C343 1.386 . S
C342 C344 1.391 . S
C343 C342 1.386 . S
C343 C347 1.393 . S
C344 H333 0.950 . S
C344 C342 1.391 . S
C344 C345 1.400 . S
C345 C339 1.491 1_565 S
C345 C344 1.400 . S
C345 C346 1.398 . S
C346 H334 0.950 1_565 S
C346 C345 1.398 . S
C346 C347 1.391 . S
C347 H335 0.950 . S
C347 C343 1.393 . S
C347 C346 1.391 . S
H348 C356 0.950 . S
H349 C361 0.950 . S
H350 C358 0.950 . S
H351 C360 0.950 . S
H352 C362 0.950 . S
H353 C364 0.950 . S
H354 C366 0.950 . S
H355 C367 0.950 . S
C356 H348 0.950 . S
C356 C357 1.386 . S
C356 C358 1.391 . S
C357 C356 1.386 . S
C357 C361 1.393 . S
C358 H350 0.950 . S
C358 C356 1.391 . S
C358 C359 1.400 . S
C359 C358 1.400 . S
C359 C360 1.398 . S
C359 C365 1.491 . S
C360 H351 0.950 . S
C360 C359 1.398 . S
C360 C361 1.391 . S
C361 H349 0.950 . S
C361 C357 1.393 . S
C361 C360 1.391 . S
C362 H352 0.950 . S
C362 C363 1.386 . S
C362 C364 1.391 . S
C363 C362 1.386 . S
C363 C367 1.393 . S
C364 H353 0.950 . S
C364 C362 1.391 . S
C364 C365 1.400 . S
C365 C359 1.491 . S
C365 C364 1.400 . S
C365 C366 1.398 . S
C366 H354 0.950 . S
C366 C365 1.398 . S
C366 C367 1.391 . S
C367 H355 0.950 . S
C367 C363 1.393 . S
C367 C366 1.391 . S
H368 C376 0.950 1_455 S
H369 C381 0.950 . S
H370 C378 0.950 . S
H371 C380 0.950 . S
H372 C382 0.950 1_655 S
H373 C384 0.950 . S
H374 C386 0.950 . S
H375 C387 0.950 . S
C376 H368 0.950 1_655 S
C376 C377 1.386 . S
C376 C378 1.391 1_655 S
C377 C376 1.386 . S
C377 C381 1.393 . S
C378 H370 0.950 . S
C378 C376 1.391 1_455 S
C378 C379 1.400 1_455 S
C379 C378 1.400 1_655 S
C379 C380 1.398 . S
C379 C385 1.491 1_655 S
C380 H371 0.950 . S
C380 C379 1.398 . S
C380 C381 1.391 . S
C381 H369 0.950 . S
C381 C377 1.393 . S
C381 C380 1.391 . S
C382 H372 0.950 1_455 S
C382 C383 1.386 . S
C382 C384 1.391 1_455 S
C383 C382 1.386 . S
C383 C387 1.393 . S
C384 H373 0.950 . S
C384 C382 1.391 1_655 S
C384 C385 1.400 1_655 S
C385 C379 1.491 1_455 S
C385 C384 1.400 1_455 S
C385 C386 1.398 . S
C386 H374 0.950 . S
C386 C385 1.398 . S
C386 C387 1.391 . S
C387 H375 0.950 . S
C387 C383 1.393 . S
C387 C386 1.391 . S
H388 C396 0.950 . S
H389 C401 0.939 1_545 S
H390 C398 0.950 . S
H391 C400 0.950 . S
H392 C402 0.950 . S
H393 C404 0.950 . S
H394 C406 0.950 . S
H395 C407 0.939 1_565 S
C396 H388 0.950 . S
C396 C397 1.386 . S
C396 C398 1.391 . S
C397 C396 1.386 . S
C397 C401 1.393 . S
C398 H390 0.950 . S
C398 C396 1.391 . S
C398 C399 1.400 . S
C399 C398 1.400 . S
C399 C400 1.398 1_565 S
C399 C405 1.491 1_565 S
C400 H391 0.950 . S
C400 C399 1.398 1_545 S
C400 C401 1.391 1_545 S
C401 H389 0.939 1_565 S
C401 C397 1.393 . S
C401 C400 1.391 1_565 S
C402 H392 0.950 . S
C402 C403 1.386 . S
C402 C404 1.391 . S
C403 C402 1.386 . S
C403 C407 1.393 . S
C404 H393 0.950 . S
C404 C402 1.391 . S
C404 C405 1.400 . S
C405 C399 1.491 1_545 S
C405 C404 1.400 . S
C405 C406 1.398 1_545 S
C406 H394 0.950 . S
C406 C405 1.398 1_565 S
C406 C407 1.391 1_565 S
C407 H395 0.939 1_545 S
C407 C403 1.393 . S
C407 C406 1.391 1_545 S
H408 C416 0.950 . S
H409 C421 0.950 . S
H410 C418 0.950 . S
H411 C420 0.950 . S
H412 C422 0.950 . S
H413 C424 0.950 . S
H414 C426 0.950 . S
H415 C427 0.950 . S
C416 H408 0.950 . S
C416 C417 1.386 . S
C416 C418 1.391 . S
C417 C416 1.386 . S
C417 C421 1.393 . S
C418 H410 0.950 . S
C418 C416 1.391 . S
C418 C419 1.400 . S
C419 C418 1.400 . S
C419 C420 1.398 . S
C419 C425 1.491 . S
C420 H411 0.950 . S
C420 C419 1.398 . S
C420 C421 1.391 . S
C421 H409 0.950 . S
C421 C417 1.393 . S
C421 C420 1.391 . S
C422 H412 0.950 . S
C422 C423 1.386 . S
C422 C424 1.391 . S
C423 C422 1.386 . S
C423 C427 1.393 . S
C424 H413 0.950 . S
C424 C422 1.391 . S
C424 C425 1.400 . S
C425 C419 1.491 . S
C425 C424 1.400 . S
C425 C426 1.398 . S
C426 H414 0.950 . S
C426 C425 1.398 . S
C426 C427 1.391 . S
C427 H415 0.950 . S
C427 C423 1.393 . S
C427 C426 1.391 . S
H428 C436 0.950 . S
H429 C441 0.950 . S
H430 C438 0.950 1_455 S
H431 C440 0.950 . S
H432 C442 0.950 . S
H433 C444 0.950 1_655 S
H434 C446 0.950 . S
H435 C447 0.950 . S
C436 H428 0.950 . S
C436 C437 1.386 . S
C436 C438 1.391 . S
C437 C436 1.386 . S
C437 C441 1.393 . S
C438 H430 0.950 1_655 S
C438 C436 1.391 . S
C438 C439 1.400 . S
C439 C438 1.400 . S
C439 C440 1.398 . S
C439 C445 1.491 1_655 S
C440 H431 0.950 . S
C440 C439 1.398 . S
C440 C441 1.391 . S
C441 H429 0.950 . S
C441 C437 1.393 . S
C441 C440 1.391 . S
C442 H432 0.950 . S
C442 C443 1.386 . S
C442 C444 1.391 . S
C443 C442 1.386 . S
C443 C447 1.393 . S
C444 H433 0.950 1_455 S
C444 C442 1.391 . S
C444 C445 1.400 . S
C445 C439 1.491 1_455 S
C445 C444 1.400 . S
C445 C446 1.398 . S
C446 H434 0.950 . S
C446 C445 1.398 . S
C446 C447 1.391 . S
C447 H435 0.950 . S
C447 C443 1.393 . S
C447 C446 1.391 . S
H448 C456 0.950 . S
H449 C461 0.950 . S
H450 C458 0.950 1_545 S
H451 C460 0.950 . S
H452 C462 0.950 . S
H453 C464 0.950 1_565 S
H454 C466 0.950 . S
H455 C467 0.950 . S
C456 H448 0.950 . S
C456 C457 1.386 . S
C456 C458 1.391 . S
C457 C456 1.386 . S
C457 C461 1.393 . S
C458 H450 0.950 1_565 S
C458 C456 1.391 . S
C458 C459 1.400 . S
C459 C458 1.400 . S
C459 C460 1.398 . S
C459 C465 1.491 1_566 S
C460 H451 0.950 . S
C460 C459 1.398 . S
C460 C461 1.391 . S
C461 H449 0.950 . S
C461 C457 1.393 . S
C461 C460 1.391 . S
C462 H452 0.950 . S
C462 C463 1.386 . S
C462 C464 1.391 . S
C463 C462 1.386 . S
C463 C467 1.393 . S
C464 H453 0.950 1_545 S
C464 C462 1.391 . S
C464 C465 1.400 . S
C465 C459 1.491 1_544 S
C465 C464 1.400 . S
C465 C466 1.398 . S
C466 H454 0.950 . S
C466 C465 1.398 . S
C466 C467 1.391 . S
C467 H455 0.950 . S
C467 C463 1.393 . S
C467 C466 1.391 . S
H468 C476 0.950 . S
H469 C481 0.950 . S
H470 C478 0.950 . S
H471 C480 0.950 . S
H472 C482 0.950 . S
H473 C484 0.950 . S
H474 C486 0.950 . S
H475 C487 0.950 . S
C476 H468 0.950 . S
C476 C477 1.386 . S
C476 C478 1.391 . S
C477 C476 1.386 . S
C477 C481 1.393 . S
C478 H470 0.950 . S
C478 C476 1.391 . S
C478 C479 1.400 . S
C479 C478 1.400 . S
C479 C480 1.398 . S
C479 C485 1.491 . S
C480 H471 0.950 . S
C480 C479 1.398 . S
C480 C481 1.391 . S
C481 H469 0.950 . S
C481 C477 1.393 . S
C481 C480 1.391 . S
C482 H472 0.950 . S
C482 C483 1.386 . S
C482 C484 1.391 . S
C483 C482 1.386 . S
C483 C487 1.393 . S
C484 H473 0.950 . S
C484 C482 1.391 . S
C484 C485 1.400 . S
C485 C479 1.491 . S
C485 C484 1.400 . S
C485 C486 1.398 . S
C486 H474 0.950 . S
C486 C485 1.398 . S
C486 C487 1.391 . S
C487 H475 0.950 . S
C487 C483 1.393 . S
C487 C486 1.391 . S
H488 C496 0.950 1_655 S
H489 C501 0.950 . S
H490 C498 0.950 . S
H491 C500 0.950 . S
H492 C502 0.950 1_455 S
H493 C504 0.950 . S
H494 C506 0.950 . S
H495 C507 0.950 . S
C496 H488 0.950 1_455 S
C496 C497 1.386 . S
C496 C498 1.391 1_455 S
C497 C496 1.386 . S
C497 C501 1.393 . S
C498 H490 0.950 . S
C498 C496 1.391 1_655 S
C498 C499 1.400 1_655 S
C499 C498 1.400 1_455 S
C499 C500 1.398 . S
C499 C505 1.491 1_455 S
C500 H491 0.950 . S
C500 C499 1.398 . S
C500 C501 1.391 . S
C501 H489 0.950 . S
C501 C497 1.393 . S
C501 C500 1.391 . S
C502 H492 0.950 1_655 S
C502 C503 1.386 . S
C502 C504 1.391 1_655 S
C503 C502 1.386 . S
C503 C507 1.393 . S
C504 H493 0.950 . S
C504 C502 1.391 1_455 S
C504 C505 1.400 1_455 S
C505 C499 1.491 1_655 S
C505 C504 1.400 1_655 S
C505 C506 1.398 . S
C506 H494 0.950 . S
C506 C505 1.398 . S
C506 C507 1.391 . S
C507 H495 0.950 . S
C507 C503 1.393 . S
C507 C506 1.391 . S
H508 C516 0.950 . S
H509 C521 0.950 . S
H510 C518 0.950 . S
H511 C520 0.950 . S
H512 C522 0.950 . S
H513 C524 0.950 . S
H514 C526 0.950 . S
H515 C527 0.950 . S
C516 H508 0.950 . S
C516 C517 1.386 . S
C516 C518 1.391 1_565 S
C517 C516 1.386 . S
C517 C521 1.393 . S
C518 H510 0.950 . S
C518 C516 1.391 1_545 S
C518 C519 1.400 1_545 S
C519 C518 1.400 1_565 S
C519 C520 1.398 . S
C519 C525 1.491 1_564 S
C520 H511 0.950 . S
C520 C519 1.398 . S
C520 C521 1.391 . S
C521 H509 0.950 . S
C521 C517 1.393 . S
C521 C520 1.391 . S
C522 H512 0.950 . S
C522 C523 1.386 . S
C522 C524 1.391 1_545 S
C523 C522 1.386 . S
C523 C527 1.393 . S
C524 H513 0.950 . S
C524 C522 1.391 1_565 S
C524 C525 1.400 1_565 S
C525 C519 1.491 1_546 S
C525 C524 1.400 1_545 S
C525 C526 1.398 . S
C526 H514 0.950 . S
C526 C525 1.398 . S
C526 C527 1.391 . S
C527 H515 0.950 . S
C527 C523 1.393 . S
C527 C526 1.391 . S
H528 C536 0.950 . S
H529 C541 0.950 . S
H530 C538 0.950 . S
H531 C540 0.950 . S
H532 C542 0.950 . S
H533 C544 0.950 . S
H534 C546 0.950 . S
H535 C547 0.950 . S
C536 H528 0.950 . S
C536 C537 1.386 . S
C536 C538 1.391 . S
C537 C536 1.386 . S
C537 C541 1.393 . S
C538 H530 0.950 . S
C538 C536 1.391 . S
C538 C539 1.400 . S
C539 C538 1.400 . S
C539 C540 1.398 . S
C539 C545 1.491 1_655 S
C540 H531 0.950 . S
C540 C539 1.398 . S
C540 C541 1.391 . S
C541 H529 0.950 . S
C541 C537 1.393 . S
C541 C540 1.391 . S
C542 H532 0.950 . S
C542 C543 1.386 . S
C542 C544 1.391 . S
C543 C542 1.386 . S
C543 C547 1.393 . S
C544 H533 0.950 . S
C544 C542 1.391 . S
C544 C545 1.400 . S
C545 C539 1.491 1_455 S
C545 C544 1.400 . S
C545 C546 1.398 . S
C546 H534 0.950 . S
C546 C545 1.398 . S
C546 C547 1.391 . S
C547 H535 0.950 . S
C547 C543 1.393 . S
C547 C546 1.391 . S
H548 C556 0.950 . S
H549 C561 0.950 . S
H550 C558 0.950 . S
H551 C560 0.950 . S
H552 C562 0.950 . S
H553 C564 0.950 . S
H554 C566 0.950 . S
H555 C567 0.950 . S
C556 H548 0.950 . S
C556 C557 1.386 . S
C556 C558 1.391 . S
C557 C556 1.386 . S
C557 C561 1.393 . S
C558 H550 0.950 . S
C558 C556 1.391 . S
C558 C559 1.400 . S
C559 C558 1.400 . S
C559 C560 1.398 . S
C559 C565 1.491 1_545 S
C560 H551 0.950 . S
C560 C559 1.398 . S
C560 C561 1.391 . S
C561 H549 0.950 . S
C561 C557 1.393 . S
C561 C560 1.391 . S
C562 H552 0.950 . S
C562 C563 1.386 . S
C562 C564 1.391 . S
C563 C562 1.386 . S
C563 C567 1.393 . S
C564 H553 0.950 . S
C564 C562 1.391 . S
C564 C565 1.400 . S
C565 C559 1.491 1_565 S
C565 C564 1.400 . S
C565 C566 1.398 . S
C566 H554 0.950 . S
C566 C565 1.398 . S
C566 C567 1.391 . S
C567 H555 0.950 . S
C567 C563 1.393 . S
C567 C566 1.391 . S
H568 C576 0.950 . S
H569 C581 0.950 . S
H570 C578 0.950 . S
H571 C580 0.950 . S
H572 C582 0.950 . S
H573 C584 0.950 . S
H574 C586 0.950 . S
H575 C587 0.950 . S
C576 H568 0.950 . S
C576 C577 1.386 . S
C576 C578 1.391 . S
C577 C576 1.386 . S
C577 C581 1.393 . S
C578 H570 0.950 . S
C578 C576 1.391 . S
C578 C579 1.400 . S
C579 C578 1.400 . S
C579 C580 1.398 . S
C579 C585 1.491 . S
C580 H571 0.950 . S
C580 C579 1.398 . S
C580 C581 1.391 . S
C581 H569 0.950 . S
C581 C577 1.393 . S
C581 C580 1.391 . S
C582 H572 0.950 . S
C582 C583 1.386 . S
C582 C584 1.391 . S
C583 C582 1.386 . S
C583 C587 1.393 . S
C584 H573 0.950 . S
C584 C582 1.391 . S
C584 C585 1.400 . S
C585 C579 1.491 . S
C585 C584 1.400 . S
C585 C586 1.398 . S
C586 H574 0.950 . S
C586 C585 1.398 . S
C586 C587 1.391 . S
C587 H575 0.950 . S
C587 C583 1.393 . S
C587 C586 1.391 . S
H588 C596 0.950 . S
H589 C601 0.950 . S
H590 C598 0.950 . S
H591 C600 0.950 . S
H592 C602 0.950 . S
H593 C604 0.950 . S
H594 C606 0.950 . S
H595 C607 0.950 . S
C596 H588 0.950 . S
C596 C597 1.386 . S
C596 C598 1.391 . S
C597 C596 1.386 . S
C597 C601 1.393 . S
C598 H590 0.950 . S
C598 C596 1.391 . S
C598 C599 1.400 . S
C599 C598 1.400 . S
C599 C600 1.398 . S
C599 C605 1.491 1_655 S
C600 H591 0.950 . S
C600 C599 1.398 . S
C600 C601 1.391 . S
C601 H589 0.950 . S
C601 C597 1.393 . S
C601 C600 1.391 . S
C602 H592 0.950 . S
C602 C603 1.386 . S
C602 C604 1.391 . S
C603 C602 1.386 . S
C603 C607 1.393 . S
C604 H593 0.950 . S
C604 C602 1.391 . S
C604 C605 1.400 . S
C605 C599 1.491 1_455 S
C605 C604 1.400 . S
C605 C606 1.398 . S
C606 H594 0.950 . S
C606 C605 1.398 . S
C606 C607 1.391 . S
C607 H595 0.950 . S
C607 C603 1.393 . S
C607 C606 1.391 . S
H608 C616 0.950 . S
H609 C621 0.950 . S
H610 C618 0.950 . S
H611 C620 0.950 . S
H612 C622 0.950 . S
H613 C624 0.950 . S
H614 C626 0.950 . S
H615 C627 0.950 . S
C616 H608 0.950 . S
C616 C617 1.386 . S
C616 C618 1.391 . S
C617 C616 1.386 . S
C617 C621 1.393 . S
C618 H610 0.950 . S
C618 C616 1.391 . S
C618 C619 1.400 . S
C619 C618 1.400 . S
C619 C620 1.398 . S
C619 C625 1.491 1_565 S
C620 H611 0.950 . S
C620 C619 1.398 . S
C620 C621 1.391 . S
C621 H609 0.950 . S
C621 C617 1.393 . S
C621 C620 1.391 . S
C622 H612 0.950 . S
C622 C623 1.386 . S
C622 C624 1.391 . S
C623 C622 1.386 . S
C623 C627 1.393 . S
C624 H613 0.950 . S
C624 C622 1.391 . S
C624 C625 1.400 . S
C625 C619 1.491 1_545 S
C625 C624 1.400 . S
C625 C626 1.398 . S
C626 H614 0.950 . S
C626 C625 1.398 . S
C626 C627 1.391 . S
C627 H615 0.950 . S
C627 C623 1.393 . S
C627 C626 1.391 . S
H628 C636 0.950 . S
H629 C641 0.950 . S
H630 C638 0.950 . S
H631 C640 0.950 . S
H632 C642 0.950 . S
H633 C644 0.950 . S
H634 C646 0.950 . S
H635 C647 0.950 . S
C636 H628 0.950 . S
C636 C637 1.386 . S
C636 C638 1.391 . S
C637 C636 1.386 . S
C637 C641 1.393 . S
C638 H630 0.950 . S
C638 C636 1.391 . S
C638 C639 1.400 . S
C639 C638 1.400 . S
C639 C640 1.398 . S
C639 C645 1.491 . S
C640 H631 0.950 . S
C640 C639 1.398 . S
C640 C641 1.391 . S
C641 H629 0.950 . S
C641 C637 1.393 . S
C641 C640 1.391 . S
C642 H632 0.950 . S
C642 C643 1.386 . S
C642 C644 1.391 . S
C643 C642 1.386 . S
C643 C647 1.393 . S
C644 H633 0.950 . S
C644 C642 1.391 . S
C644 C645 1.400 . S
C645 C639 1.491 . S
C645 C644 1.400 . S
C645 C646 1.398 . S
C646 H634 0.950 . S
C646 C645 1.398 . S
C646 C647 1.391 . S
C647 H635 0.950 . S
C647 C643 1.393 . S
C647 C646 1.391 . S
C177 C120 2.143 . S
C183 C8 2.145 . S
C197 C22 2.150 . S
C203 C134 2.143 . S
C217 C36 2.143 . S
C223 C148 2.146 . S
C237 C50 2.143 . S
C243 C162 2.147 . S
C257 C92 2.146 . S
C263 C64 2.143 . S
C277 C78 2.149 . S
C283 C106 2.149 . S
C297 C51 0.735 . S
C303 C9 0.793 . S
C317 C65 0.780 . S
C323 C23 0.736 . S
C337 C79 0.759 . S
C343 C37 0.789 . S
C357 C93 0.739 . S
C363 C135 0.776 . S
C377 C107 0.791 . S
C383 C149 0.734 . S
C397 C121 0.742 . S
C403 C163 0.796 . S
C417 C7 1.531 . S
C423 C133 1.518 . S
C437 C21 1.509 . S
C443 C147 1.518 . S
C457 C35 1.519 . S
C463 C161 1.530 . S
C477 C91 1.508 . S
C483 C49 1.528 . S
C497 C63 1.507 . S
C503 C105 1.523 . S
C517 C119 1.508 . S
C523 C77 1.521 . S
C537 C160 1.213 . S
C543 C6 1.206 . S
C557 C20 1.214 . S
C563 C90 1.206 . S
C577 C104 1.209 . S
C583 C34 1.214 . S
C597 C48 1.206 . S
C603 C118 1.210 . S
C617 C62 1.214 . S
C623 C132 1.210 . S
C637 C146 1.208 . S
C643 C76 1.214 . S
