# Generated by pormake.
# Topology ukn, (4)-cn, num edge types: 1
# Building blocks:
#     Node 0, Type 0, BuildingBlock: TATPOV_clean_sbu_0, # of connection points: 4
#     Node 1, Type 0, BuildingBlock: TATPOV_clean_sbu_0, # of connection points: 4
#     Node 2, Type 0, BuildingBlock: TATPOV_clean_sbu_0, # of connection points: 4
#     Node 3, Type 0, BuildingBlock: TATPOV_clean_sbu_0, # of connection points: 4
#     Node 4, Type 0, BuildingBlock: TATPOV_clean_sbu_0, # of connection points: 4
#     Node 5, Type 0, BuildingBlock: TATPOV_clean_sbu_0, # of connection points: 4
#     Node 6, Type 0, BuildingBlock: TATPOV_clean_sbu_0, # of connection points: 4
#     Node 7, Type 0, BuildingBlock: TATPOV_clean_sbu_0, # of connection points: 4
#     Node 8, Type 0, BuildingBlock: TATPOV_clean_sbu_0, # of connection points: 4
#     Node 9, Type 0, BuildingBlock: TATPOV_clean_sbu_0, # of connection points: 4
#     Node 10, Type 0, BuildingBlock: TATPOV_clean_sbu_0, # of connection points: 4
#     Node 11, Type 0, BuildingBlock: TATPOV_clean_sbu_0, # of connection points: 4
#     Node 12, Type 0, BuildingBlock: TATPOV_clean_sbu_0, # of connection points: 4
#     Node 13, Type 0, BuildingBlock: TATPOV_clean_sbu_0, # of connection points: 4
#     Node 14, Type 0, BuildingBlock: TATPOV_clean_sbu_0, # of connection points: 4
#     Node 15, Type 0, BuildingBlock: TATPOV_clean_sbu_0, # of connection points: 4
#     Node 16, Type 0, BuildingBlock: TATPOV_clean_sbu_0, # of connection points: 4
#     Node 17, Type 0, BuildingBlock: TATPOV_clean_sbu_0, # of connection points: 4
#     Node 18, Type 0, BuildingBlock: TATPOV_clean_sbu_0, # of connection points: 4
#     Node 19, Type 0, BuildingBlock: TATPOV_clean_sbu_0, # of connection points: 4
#     Node 20, Type 0, BuildingBlock: TATPOV_clean_sbu_0, # of connection points: 4
#     Node 21, Type 0, BuildingBlock: TATPOV_clean_sbu_0, # of connection points: 4
#     Node 22, Type 0, BuildingBlock: TATPOV_clean_sbu_0, # of connection points: 4
#     Node 23, Type 0, BuildingBlock: TATPOV_clean_sbu_0, # of connection points: 4
#     Node 24, Type 0, BuildingBlock: TATPOV_clean_sbu_0, # of connection points: 4
#     Node 25, Type 0, BuildingBlock: TATPOV_clean_sbu_0, # of connection points: 4
#     Node 26, Type 0, BuildingBlock: TATPOV_clean_sbu_0, # of connection points: 4
#     Node 27, Type 0, BuildingBlock: TATPOV_clean_sbu_0, # of connection points: 4
#     Node 28, Type 0, BuildingBlock: TATPOV_clean_sbu_0, # of connection points: 4
#     Node 29, Type 0, BuildingBlock: TATPOV_clean_sbu_0, # of connection points: 4
#     Node 30, Type 0, BuildingBlock: TATPOV_clean_sbu_0, # of connection points: 4
#     Node 31, Type 0, BuildingBlock: TATPOV_clean_sbu_0, # of connection points: 4
#     Node 32, Type 0, BuildingBlock: TATPOV_clean_sbu_0, # of connection points: 4
#     Node 33, Type 0, BuildingBlock: TATPOV_clean_sbu_0, # of connection points: 4
#     Node 34, Type 0, BuildingBlock: TATPOV_clean_sbu_0, # of connection points: 4
#     Node 35, Type 0, BuildingBlock: TATPOV_clean_sbu_0, # of connection points: 4
#     Edge 36, Type (0, 0), BuildingBlock: XIVTED_clean_linker_0, # of connection points: 2
#     Edge 37, Type (0, 0), BuildingBlock: XIVTED_clean_linker_0, # of connection points: 2
#     Edge 38, Type (0, 0), BuildingBlock: XIVTED_clean_linker_0, # of connection points: 2
#     Edge 39, Type (0, 0), BuildingBlock: XIVTED_clean_linker_0, # of connection points: 2
#     Edge 40, Type (0, 0), BuildingBlock: XIVTED_clean_linker_0, # of connection points: 2
#     Edge 41, Type (0, 0), BuildingBlock: XIVTED_clean_linker_0, # of connection points: 2
#     Edge 42, Type (0, 0), BuildingBlock: XIVTED_clean_linker_0, # of connection points: 2
#     Edge 43, Type (0, 0), BuildingBlock: XIVTED_clean_linker_0, # of connection points: 2
#     Edge 44, Type (0, 0), BuildingBlock: XIVTED_clean_linker_0, # of connection points: 2
#     Edge 45, Type (0, 0), BuildingBlock: XIVTED_clean_linker_0, # of connection points: 2
#     Edge 46, Type (0, 0), BuildingBlock: XIVTED_clean_linker_0, # of connection points: 2
#     Edge 47, Type (0, 0), BuildingBlock: XIVTED_clean_linker_0, # of connection points: 2
#     Edge 48, Type (0, 0), BuildingBlock: XIVTED_clean_linker_0, # of connection points: 2
#     Edge 49, Type (0, 0), BuildingBlock: XIVTED_clean_linker_0, # of connection points: 2
#     Edge 50, Type (0, 0), BuildingBlock: XIVTED_clean_linker_0, # of connection points: 2
#     Edge 51, Type (0, 0), BuildingBlock: XIVTED_clean_linker_0, # of connection points: 2
#     Edge 52, Type (0, 0), BuildingBlock: XIVTED_clean_linker_0, # of connection points: 2
#     Edge 53, Type (0, 0), BuildingBlock: XIVTED_clean_linker_0, # of connection points: 2
#     Edge 54, Type (0, 0), BuildingBlock: XIVTED_clean_linker_0, # of connection points: 2
#     Edge 55, Type (0, 0), BuildingBlock: XIVTED_clean_linker_0, # of connection points: 2
#     Edge 56, Type (0, 0), BuildingBlock: XIVTED_clean_linker_0, # of connection points: 2
#     Edge 57, Type (0, 0), BuildingBlock: XIVTED_clean_linker_0, # of connection points: 2
#     Edge 58, Type (0, 0), BuildingBlock: XIVTED_clean_linker_0, # of connection points: 2
#     Edge 59, Type (0, 0), BuildingBlock: XIVTED_clean_linker_0, # of connection points: 2
#     Edge 60, Type (0, 0), BuildingBlock: XIVTED_clean_linker_0, # of connection points: 2
#     Edge 61, Type (0, 0), BuildingBlock: XIVTED_clean_linker_0, # of connection points: 2
#     Edge 62, Type (0, 0), BuildingBlock: XIVTED_clean_linker_0, # of connection points: 2
#     Edge 63, Type (0, 0), BuildingBlock: XIVTED_clean_linker_0, # of connection points: 2
#     Edge 64, Type (0, 0), BuildingBlock: XIVTED_clean_linker_0, # of connection points: 2
#     Edge 65, Type (0, 0), BuildingBlock: XIVTED_clean_linker_0, # of connection points: 2
#     Edge 66, Type (0, 0), BuildingBlock: XIVTED_clean_linker_0, # of connection points: 2
#     Edge 67, Type (0, 0), BuildingBlock: XIVTED_clean_linker_0, # of connection points: 2
#     Edge 68, Type (0, 0), BuildingBlock: XIVTED_clean_linker_0, # of connection points: 2
#     Edge 69, Type (0, 0), BuildingBlock: XIVTED_clean_linker_0, # of connection points: 2
#     Edge 70, Type (0, 0), BuildingBlock: XIVTED_clean_linker_0, # of connection points: 2
#     Edge 71, Type (0, 0), BuildingBlock: XIVTED_clean_linker_0, # of connection points: 2
#     Edge 72, Type (0, 0), BuildingBlock: XIVTED_clean_linker_0, # of connection points: 2
#     Edge 73, Type (0, 0), BuildingBlock: XIVTED_clean_linker_0, # of connection points: 2
#     Edge 74, Type (0, 0), BuildingBlock: XIVTED_clean_linker_0, # of connection points: 2
#     Edge 75, Type (0, 0), BuildingBlock: XIVTED_clean_linker_0, # of connection points: 2
#     Edge 76, Type (0, 0), BuildingBlock: XIVTED_clean_linker_0, # of connection points: 2
#     Edge 77, Type (0, 0), BuildingBlock: XIVTED_clean_linker_0, # of connection points: 2
#     Edge 78, Type (0, 0), BuildingBlock: XIVTED_clean_linker_0, # of connection points: 2
#     Edge 79, Type (0, 0), BuildingBlock: XIVTED_clean_linker_0, # of connection points: 2
#     Edge 80, Type (0, 0), BuildingBlock: XIVTED_clean_linker_0, # of connection points: 2
#     Edge 81, Type (0, 0), BuildingBlock: XIVTED_clean_linker_0, # of connection points: 2
#     Edge 82, Type (0, 0), BuildingBlock: XIVTED_clean_linker_0, # of connection points: 2
#     Edge 83, Type (0, 0), BuildingBlock: XIVTED_clean_linker_0, # of connection points: 2
#     Edge 84, Type (0, 0), BuildingBlock: XIVTED_clean_linker_0, # of connection points: 2
#     Edge 85, Type (0, 0), BuildingBlock: XIVTED_clean_linker_0, # of connection points: 2
#     Edge 86, Type (0, 0), BuildingBlock: XIVTED_clean_linker_0, # of connection points: 2
#     Edge 87, Type (0, 0), BuildingBlock: XIVTED_clean_linker_0, # of connection points: 2
#     Edge 88, Type (0, 0), BuildingBlock: XIVTED_clean_linker_0, # of connection points: 2
#     Edge 89, Type (0, 0), BuildingBlock: XIVTED_clean_linker_0, # of connection points: 2
#     Edge 90, Type (0, 0), BuildingBlock: XIVTED_clean_linker_0, # of connection points: 2
#     Edge 91, Type (0, 0), BuildingBlock: XIVTED_clean_linker_0, # of connection points: 2
#     Edge 92, Type (0, 0), BuildingBlock: XIVTED_clean_linker_0, # of connection points: 2
#     Edge 93, Type (0, 0), BuildingBlock: XIVTED_clean_linker_0, # of connection points: 2
#     Edge 94, Type (0, 0), BuildingBlock: XIVTED_clean_linker_0, # of connection points: 2
#     Edge 95, Type (0, 0), BuildingBlock: XIVTED_clean_linker_0, # of connection points: 2
#     Edge 96, Type (0, 0), BuildingBlock: XIVTED_clean_linker_0, # of connection points: 2
#     Edge 97, Type (0, 0), BuildingBlock: XIVTED_clean_linker_0, # of connection points: 2
#     Edge 98, Type (0, 0), BuildingBlock: XIVTED_clean_linker_0, # of connection points: 2
#     Edge 99, Type (0, 0), BuildingBlock: XIVTED_clean_linker_0, # of connection points: 2
#     Edge 100, Type (0, 0), BuildingBlock: XIVTED_clean_linker_0, # of connection points: 2
#     Edge 101, Type (0, 0), BuildingBlock: XIVTED_clean_linker_0, # of connection points: 2
#     Edge 102, Type (0, 0), BuildingBlock: XIVTED_clean_linker_0, # of connection points: 2
#     Edge 103, Type (0, 0), BuildingBlock: XIVTED_clean_linker_0, # of connection points: 2
#     Edge 104, Type (0, 0), BuildingBlock: XIVTED_clean_linker_0, # of connection points: 2
#     Edge 105, Type (0, 0), BuildingBlock: XIVTED_clean_linker_0, # of connection points: 2
#     Edge 106, Type (0, 0), BuildingBlock: XIVTED_clean_linker_0, # of connection points: 2
#     Edge 107, Type (0, 0), BuildingBlock: XIVTED_clean_linker_0, # of connection points: 2
# Relax obj value: 0.153
# Max RMSD: 0.150
# Mean RMSD: 0.150
data_MOF--net-ukn--node1-TATPOV_clean_sbu_0--edge1-XIVTED_clean_linker_0
_symmetry_space_group_name_H-M    P1
_symmetry_Int_Tables_number       1
_symmetry_cell_setting            triclinic
loop_
_symmetry_equiv_pos_as_xyz
'x, y, z'
_cell_length_a     106.13668
_cell_length_b     106.05192
_cell_length_c     25.259333
_cell_angle_alpha  90.008414
_cell_angle_beta   90.016804
_cell_angle_gamma 119.941
loop_
_atom_site_label
_atom_site_type_symbol
_atom_site_fract_x
_atom_site_fract_y
_atom_site_fract_z
_atom_type_partial_charge
Zn0 Zn 0.07792 0.26083 0.04557 0.0
Zn1 Zn 0.08098 0.27931 0.12228 0.0
O2 O 0.0586 0.26653 0.11302 0.0
O3 O 0.05651 0.25072 0.05196 0.0
O4 O 0.08328 0.29205 0.18576 0.0
O5 O 0.08857 0.25297 0.08562 0.0
O6 O 0.0923 0.26907 0.14759 0.0
C7 C 0.05074 0.25555 0.08376 0.0
C8 C 0.0923 0.29074 0.01089 0.0
O9 O 0.09048 0.29323 0.05893 0.0
O10 O 0.08809 0.27785 0.99578 0.0
C11 C 0.08237 0.30357 0.1847 0.0
O12 O 0.07976 0.30794 0.13946 0.0
C13 C 0.094 0.25875 0.12973 0.0
Zn14 Zn 0.71959 0.80771 0.08642 0.0
Zn15 Zn 0.69994 0.78939 0.15455 0.0
O16 O 0.71347 0.78072 0.14129 0.0
O17 O 0.73037 0.797 0.08884 0.0
O18 O 0.68655 0.77712 0.2139 0.0
O19 O 0.72585 0.82472 0.13392 0.0
O20 O 0.70862 0.8099 0.18832 0.0
C21 C 0.72516 0.78526 0.11467 0.0
C22 C 0.69039 0.79255 0.04381 0.0
O23 O 0.68709 0.7867 0.0896 0.0
O24 O 0.70345 0.80188 0.033 0.0
C25 C 0.67293 0.76842 0.21063 0.0
O26 O 0.66647 0.76616 0.1644 0.0
C27 C 0.71886 0.82261 0.17658 0.0
Zn28 Zn 0.20168 0.91307 0.02851 0.0
Zn29 Zn 0.21469 0.90859 0.1043 0.0
O30 O 0.22665 0.93111 0.09405 0.0
O31 O 0.21787 0.93318 0.0176 0.0
O32 O 0.22391 0.90436 0.16745 0.0
O33 O 0.18474 0.90959 0.0734 0.0
O34 O 0.19395 0.90142 0.1331 0.0
C35 C 0.22695 0.93884 0.0548 0.0
C36 C 0.20933 0.89269 0.99666 0.0
O37 O 0.21594 0.89641 0.0412 0.0
O38 O 0.20105 0.8975 0.98326 0.0
C39 C 0.23266 0.89945 0.16532 0.0
O40 O 0.23686 0.89732 0.1189 0.0
C41 C 0.18373 0.90354 0.11753 0.0
Zn42 Zn 0.24258 0.06249 0.02551 0.0
Zn43 Zn 0.26458 0.06929 0.95531 0.0
O44 O 0.25671 0.04773 0.97013 0.0
O45 O 0.23877 0.04176 0.02654 0.0
O46 O 0.27885 0.07397 0.89572 0.0
O47 O 0.23268 0.0698 0.97512 0.0
O48 O 0.25138 0.07599 0.9228 0.0
C49 C 0.24679 0.03839 1.00002 0.0
C50 C 0.27179 0.08337 0.06381 0.0
O51 O 0.27605 0.08165 0.01857 0.0
O52 O 0.25835 0.07676 0.07523 0.0
C53 C 0.28688 0.0684 0.88826 0.0
O54 O 0.28685 0.0592 0.92316 0.0
C55 C 0.23952 0.07574 0.93292 0.0
Zn56 Zn 0.91542 0.18406 0.01531 0.0
Zn57 Zn 0.91836 0.20598 0.95345 0.0
O58 O 0.93956 0.21226 0.97387 0.0
O59 O 0.93695 0.19382 0.02233 0.0
O60 O 0.9198 0.22062 0.89916 0.0
O61 O 0.90543 0.16931 0.95795 0.0
O62 O 0.90666 0.18719 0.91001 0.0
C63 C 0.94504 0.20615 1.0017 0.0
C64 C 0.90259 0.2004 0.05898 0.0
O65 O 0.90724 0.20783 0.01651 0.0
O66 O 0.90442 0.18962 0.06697 0.0
C67 C 0.92583 0.22073 0.8555 0.0
O68 O 0.93188 0.21258 0.8509 0.0
C69 C 0.90268 0.17379 0.91551 0.0
Zn70 Zn 0.79871 0.72702 1.00021 0.0
Zn71 Zn 0.77724 0.70744 0.94075 0.0
O72 O 0.77002 0.72164 0.96252 0.0
O73 O 0.78846 0.73821 0.00888 0.0
O74 O 0.76287 0.69412 0.88598 0.0
O75 O 0.8136 0.73254 0.94335 0.0
O76 O 0.79611 0.71497 0.89715 0.0
C77 C 0.77584 0.73332 0.98988 0.0
C78 C 0.78385 0.69796 0.04544 0.0
O79 O 0.77609 0.69465 1.00361 0.0
O80 O 0.79424 0.71083 0.05228 0.0
C81 C 0.76289 0.70023 0.84258 0.0
O82 O 0.77082 0.71447 0.8392 0.0
C83 C 0.80934 0.72491 0.90176 0.0
Zn84 Zn 0.90741 0.72703 0.98627 0.0
Zn85 Zn 0.91043 0.70879 0.92086 0.0
O86 O 0.93164 0.72522 0.93488 0.0
O87 O 0.9287 0.74035 0.98645 0.0
O88 O 0.91215 0.69598 0.865 0.0
O89 O 0.89562 0.7305 0.93308 0.0
O90 O 0.89697 0.71452 0.88121 0.0
C91 C 0.93694 0.73701 0.96152 0.0
C92 C 0.89721 0.69856 0.03127 0.0
O93 O 0.90118 0.69598 0.98683 0.0
O94 O 0.89852 0.7109 0.04034 0.0
C95 C 0.90633 0.68221 0.86781 0.0
O96 O 0.89953 0.67551 0.91137 0.0
C97 C 0.8925 0.72345 0.89016 0.0
Zn98 Zn 0.27559 0.19083 0.99934 0.0
Zn99 Zn 0.29331 0.20031 0.92015 0.0
O100 O 0.28672 0.21567 0.92737 0.0
O101 O 0.27501 0.20925 1.00338 0.0
O102 O 0.30618 0.20677 0.85484 0.0
O103 O 0.26036 0.17364 0.95947 0.0
O104 O 0.27706 0.1797 0.89806 0.0
C105 C 0.28018 0.21804 0.96508 0.0
C106 C 0.30311 0.19508 0.02875 0.0
O107 O 0.30643 0.2006 0.98235 0.0
O108 O 0.29004 0.18904 0.04423 0.0
C109 C 0.3178 0.21899 0.8503 0.0
O110 O 0.32216 0.22811 0.89034 0.0
C111 C 0.26446 0.17085 0.91621 0.0
Zn112 Zn 0.79913 0.07536 0.94172 0.0
Zn113 Zn 0.78188 0.07821 0.8725 0.0
O114 O 0.77306 0.05589 0.88143 0.0
O115 O 0.78858 0.05396 0.93414 0.0
O116 O 0.77008 0.07979 0.81248 0.0
O117 O 0.81669 0.08691 0.89756 0.0
O118 O 0.80273 0.09038 0.84204 0.0
C119 C 0.77717 0.04811 0.90632 0.0
C120 C 0.78365 0.08912 0.98517 0.0
O121 O 0.77852 0.0876 0.93842 0.0
O122 O 0.79253 0.0848 0.99612 0.0
C123 C 0.76032 0.08338 0.81535 0.0
O124 O 0.75677 0.08625 0.86179 0.0
C125 C 0.81522 0.09251 0.85555 0.0
Zn126 Zn 0.71849 0.91485 0.00998 0.0
Zn127 Zn 0.70007 0.91833 0.07251 0.0
O128 O 0.71365 0.93924 0.04604 0.0
O129 O 0.7287 0.93615 0.99474 0.0
O130 O 0.68678 0.91972 0.12601 0.0
O131 O 0.72526 0.90734 0.07009 0.0
O132 O 0.70879 0.90863 0.11885 0.0
C133 C 0.72445 0.94437 0.01435 0.0
C134 C 0.68882 0.89978 0.97255 0.0
O135 O 0.68663 0.90556 0.0132 0.0
O136 O 0.70136 0.90159 0.96348 0.0
C137 C 0.69233 0.92702 0.16803 0.0
O138 O 0.70656 0.93468 0.1722 0.0
C139 C 0.71873 0.90535 0.1138 0.0
Zn140 Zn 0.0695 0.8263 0.02733 0.0
Zn141 Zn 0.07016 0.80603 0.09086 0.0
O142 O 0.04854 0.79823 0.07548 0.0
O143 O 0.04769 0.81544 0.02948 0.0
O144 O 0.07028 0.79241 0.14644 0.0
O145 O 0.08133 0.84231 0.0795 0.0
O146 O 0.0823 0.82563 0.12801 0.0
C147 C 0.04127 0.80303 0.0512 0.0
C148 C 0.08292 0.81043 0.98091 0.0
O149 O 0.0803 0.80402 0.0256 0.0
O150 O 0.07944 0.82009 0.9724 0.0
C151 C 0.06263 0.79049 0.18765 0.0
O152 O 0.05452 0.79661 0.19005 0.0
C153 C 0.08585 0.83885 0.1203 0.0
Zn154 Zn 0.19036 0.25779 0.98153 0.0
Zn155 Zn 0.20783 0.2806 0.04482 0.0
O156 O 0.22075 0.27193 0.02596 0.0
O157 O 0.20687 0.25377 0.9726 0.0
O158 O 0.21919 0.29606 0.09936 0.0
O159 O 0.17535 0.24861 0.0399 0.0
O160 O 0.18926 0.26814 0.08677 0.0
C161 C 0.21894 0.26155 0.99564 0.0
C162 C 0.19713 0.28603 0.93991 0.0
O163 O 0.20479 0.29094 0.98179 0.0
O164 O 0.18978 0.27244 0.93164 0.0
C165 C 0.22365 0.29226 0.13978 0.0
O166 O 0.22184 0.27907 0.14144 0.0
C167 C 0.17756 0.25603 0.08169 0.0
Zn168 Zn 0.73349 0.59693 0.38793 0.0
Zn169 Zn 0.73386 0.61728 0.45029 0.0
O170 O 0.71202 0.60353 0.43358 0.0
O171 O 0.71196 0.58621 0.3852 0.0
O172 O 0.73366 0.63061 0.50707 0.0
O173 O 0.74365 0.59121 0.44089 0.0
O174 O 0.74563 0.60935 0.48922 0.0
C175 C 0.70515 0.59171 0.40738 0.0
C176 C 0.74784 0.62598 0.34191 0.0
O177 O 0.74461 0.62973 0.38555 0.0
O178 O 0.74452 0.61286 0.33419 0.0
C179 C 0.73889 0.6443 0.50468 0.0
O180 O 0.74465 0.65118 0.46016 0.0
C181 C 0.74826 0.599 0.48201 0.0
Zn182 Zn 0.37235 0.11431 0.3711 0.0
Zn183 Zn 0.35284 0.10156 0.4469 0.0
O184 O 0.35839 0.08601 0.42829 0.0
O185 O 0.37251 0.09577 0.35875 0.0
O186 O 0.33903 0.09311 0.50846 0.0
O187 O 0.38646 0.12959 0.42132 0.0
O188 O 0.36876 0.12061 0.47967 0.0
C189 C 0.36582 0.08518 0.39018 0.0
C190 C 0.34489 0.11156 0.34478 0.0
O191 O 0.34105 0.10452 0.38829 0.0
O192 O 0.35802 0.1176 0.32995 0.0
C193 C 0.34291 0.0887 0.54877 0.0
O194 O 0.35542 0.08896 0.54771 0.0
C195 C 0.38156 0.13027 0.46626 0.0
Zn196 Zn 0.85605 0.25509 0.3994 0.0
Zn197 Zn 0.87441 0.25344 0.46433 0.0
O198 O 0.88365 0.27559 0.44821 0.0
O199 O 0.867 0.27652 0.39887 0.0
O200 O 0.88687 0.25268 0.52341 0.0
O201 O 0.83917 0.24501 0.44753 0.0
O202 O 0.854 0.24187 0.49943 0.0
C203 C 0.87914 0.28288 0.42213 0.0
C204 C 0.87015 0.24 0.35548 0.0
O205 O 0.87645 0.2426 0.40043 0.0
O206 O 0.86101 0.24408 0.34591 0.0
C207 C 0.89648 0.24889 0.52043 0.0
O208 O 0.89953 0.2454 0.47421 0.0
C209 C 0.84135 0.23981 0.48921 0.0
Zn210 Zn 0.92866 0.40888 0.27058 0.0
Zn211 Zn 0.94833 0.40897 0.20735 0.0
O212 O 0.93697 0.38727 0.23131 0.0
O213 O 0.92036 0.3878 0.28214 0.0
O214 O 0.96278 0.41054 0.15166 0.0
O215 O 0.9198 0.41531 0.21537 0.0
O216 O 0.93724 0.41701 0.16369 0.0
C217 C 0.92595 0.38085 0.26181 0.0
C218 C 0.95748 0.42644 0.31097 0.0
O219 O 0.96081 0.42209 0.26888 0.0
O220 O 0.94435 0.42275 0.32009 0.0
C221 C 0.95791 0.40373 0.10822 0.0
O222 O 0.94386 0.39474 0.10352 0.0
C223 C 0.92614 0.41843 0.17103 0.0
Zn224 Zn 0.57176 0.5192 0.31788 0.0
Zn225 Zn 0.57292 0.5393 0.2526 0.0
O226 O 0.59469 0.5476 0.27183 0.0
O227 O 0.5932 0.53034 0.32467 0.0
O228 O 0.57245 0.55273 0.19675 0.0
O229 O 0.56322 0.5036 0.26348 0.0
O230 O 0.56299 0.51993 0.2104 0.0
C231 C 0.60074 0.54238 0.30137 0.0
C232 C 0.55693 0.53343 0.35895 0.0
O233 O 0.56123 0.54058 0.31574 0.0
O234 O 0.55964 0.5233 0.3685 0.0
C235 C 0.57832 0.55318 0.15232 0.0
O236 O 0.58556 0.54618 0.14708 0.0
C237 C 0.56034 0.507 0.21901 0.0
Zn238 Zn 0.44471 0.03666 0.37782 0.0
Zn239 Zn 0.43173 0.01689 0.30278 0.0
O240 O 0.41665 0.02327 0.31867 0.0
O241 O 0.42656 0.03768 0.38752 0.0
O242 O 0.42311 0.00304 0.24087 0.0
O243 O 0.46056 0.05035 0.32866 0.0
O244 O 0.45117 0.03255 0.27059 0.0
C245 C 0.41604 0.0311 0.35575 0.0
C246 C 0.44039 0.00881 0.40798 0.0
O247 O 0.43368 0.00491 0.36377 0.0
O248 O 0.4469 0.02209 0.42141 0.0
C249 C 0.42263 0.00865 0.19693 0.0
O250 O 0.42694 0.02261 0.19537 0.0
C251 C 0.46107 0.04528 0.28388 0.0
Zn252 Zn 0.57988 0.08647 0.2969 0.0
Zn253 Zn 0.57642 0.06493 0.23293 0.0
O254 O 0.59852 0.07888 0.2391 0.0
O255 O 0.60129 0.09788 0.28405 0.0
O256 O 0.57481 0.05149 0.17318 0.0
O257 O 0.56598 0.09038 0.25598 0.0
O258 O 0.56253 0.07188 0.20662 0.0
C259 C 0.60674 0.09136 0.25944 0.0
C260 C 0.56798 0.0576 0.34691 0.0
O261 O 0.56855 0.05302 0.30076 0.0
O262 O 0.57224 0.07096 0.35458 0.0
C263 C 0.57822 0.04158 0.17355 0.0
O264 O 0.58301 0.03882 0.21752 0.0
C265 C 0.55939 0.08168 0.21836 0.0
Zn266 Zn 0.91374 0.50418 0.27725 0.0
Zn267 Zn 0.93316 0.52537 0.21346 0.0
O268 O 0.92047 0.53386 0.2391 0.0
O269 O 0.9041 0.51604 0.2884 0.0
O270 O 0.94694 0.53946 0.15902 0.0
O271 O 0.90703 0.48928 0.21916 0.0
O272 O 0.92366 0.50654 0.16939 0.0
C273 C 0.90932 0.52868 0.2691 0.0
C274 C 0.94348 0.51788 0.31512 0.0
O275 O 0.94619 0.52545 0.27309 0.0
O276 O 0.9306 0.50797 0.32542 0.0
C277 C 0.95479 0.53521 0.13573 0.0
O278 O 0.95419 0.52314 0.15181 0.0
C279 C 0.91366 0.49338 0.17544 0.0
Zn280 Zn 0.47988 0.39883 0.27338 0.0
Zn281 Zn 0.45774 0.39617 0.21384 0.0
O282 O 0.45252 0.37493 0.22963 0.0
O283 O 0.47152 0.37738 0.27393 0.0
O284 O 0.44275 0.39448 0.16043 0.0
O285 O 0.49458 0.41092 0.21851 0.0
O286 O 0.47645 0.40992 0.17303 0.0
C287 C 0.45913 0.36933 0.25367 0.0
C288 C 0.46245 0.40971 0.32324 0.0
O289 O 0.45526 0.40581 0.28009 0.0
O290 O 0.47333 0.40797 0.32985 0.0
C291 C 0.43829 0.40359 0.15871 0.0
O292 O 0.44249 0.41363 0.19561 0.0
C293 C 0.48999 0.41456 0.17846 0.0
Zn294 Zn 0.40731 0.2379 0.35534 0.0
Zn295 Zn 0.38724 0.23789 0.4203 0.0
O296 O 0.40066 0.25975 0.40351 0.0
O297 O 0.41784 0.25955 0.35501 0.0
O298 O 0.37309 0.23695 0.47638 0.0
O299 O 0.4129 0.22736 0.40754 0.0
O300 O 0.39599 0.2269 0.45901 0.0
C301 C 0.41246 0.26649 0.37717 0.0
C302 C 0.37824 0.22394 0.31076 0.0
O303 O 0.37485 0.22709 0.35534 0.0
O304 O 0.39126 0.22721 0.30143 0.0
C305 C 0.37828 0.24381 0.51953 0.0
O306 O 0.39244 0.25212 0.52403 0.0
C307 C 0.40587 0.22366 0.45053 0.0
Zn308 Zn 0.74179 0.14904 0.32316 0.0
Zn309 Zn 0.73704 0.12673 0.38654 0.0
O310 O 0.71619 0.12232 0.36828 0.0
O311 O 0.72041 0.14109 0.31829 0.0
O312 O 0.73481 0.11184 0.44126 0.0
O313 O 0.75295 0.1637 0.3796 0.0
O314 O 0.74999 0.14538 0.42924 0.0
C315 C 0.71156 0.12924 0.34055 0.0
C316 C 0.75194 0.13044 0.27952 0.0
O317 O 0.74702 0.1234 0.32264 0.0
O318 O 0.7513 0.14189 0.27099 0.0
C319 C 0.72926 0.11223 0.48547 0.0
O320 O 0.7239 0.12097 0.49061 0.0
C321 C 0.75507 0.15896 0.42265 0.0
Zn322 Zn 0.84621 0.59685 0.37131 0.0
Zn323 Zn 0.86671 0.61586 0.43611 0.0
O324 O 0.87326 0.60073 0.42116 0.0
O325 O 0.85531 0.58446 0.37202 0.0
O326 O 0.88058 0.62922 0.49213 0.0
O327 O 0.83035 0.5925 0.4228 0.0
O328 O 0.84714 0.60889 0.47498 0.0
C329 C 0.86729 0.58877 0.39545 0.0
C330 C 0.86317 0.62568 0.32635 0.0
O331 O 0.86962 0.62874 0.37109 0.0
O332 O 0.85282 0.61293 0.31711 0.0
C333 C 0.8802 0.62343 0.53664 0.0
O334 O 0.87193 0.60926 0.54163 0.0
C335 C 0.83389 0.59957 0.46574 0.0
Zn336 Zn 0.40668 0.90754 0.74267 0.0
Zn337 Zn 0.4034 0.9262 0.80518 0.0
O338 O 0.38252 0.91002 0.78715 0.0
O339 O 0.38526 0.89398 0.74061 0.0
O340 O 0.40084 0.93843 0.86108 0.0
O341 O 0.41919 0.90497 0.79623 0.0
O342 O 0.41766 0.92153 0.84357 0.0
C343 C 0.37707 0.89808 0.76146 0.0
C344 C 0.41681 0.93636 0.69669 0.0
O345 O 0.41276 0.93912 0.74058 0.0
O346 O 0.41546 0.92395 0.6884 0.0
C347 C 0.40884 0.95218 0.86382 0.0
O348 O 0.41851 0.95907 0.82656 0.0
C349 C 0.42277 0.91305 0.83674 0.0
Zn350 Zn 0.06111 0.48038 0.64221 0.0
Zn351 Zn 0.04081 0.46375 0.71268 0.0
O352 O 0.05324 0.4538 0.70479 0.0
O353 O 0.07054 0.46832 0.64971 0.0
O354 O 0.0274 0.45303 0.774 0.0
O355 O 0.0682 0.49839 0.68565 0.0
O356 O 0.05084 0.48481 0.74173 0.0
C357 C 0.06474 0.45708 0.67856 0.0
C358 C 0.03168 0.46587 0.6002 0.0
O359 O 0.02802 0.46066 0.64687 0.0
O360 O 0.04492 0.47447 0.58917 0.0
C361 C 0.01697 0.43996 0.77552 0.0
O362 O 0.01364 0.43185 0.73278 0.0
C363 C 0.06138 0.49718 0.72811 0.0
Zn364 Zn 0.50148 0.58125 0.69534 0.0
Zn365 Zn 0.51992 0.57929 0.76315 0.0
O366 O 0.5273 0.6013 0.7563 0.0
O367 O 0.51111 0.60268 0.70576 0.0
O368 O 0.53217 0.57828 0.82265 0.0
O369 O 0.48418 0.56795 0.73916 0.0
O370 O 0.49934 0.56571 0.79235 0.0
C371 C 0.52263 0.60883 0.73302 0.0
C372 C 0.51888 0.56959 0.64956 0.0
O373 O 0.5241 0.57106 0.69612 0.0
O374 O 0.50937 0.57318 0.63979 0.0
C375 C 0.54328 0.57676 0.81938 0.0
O376 O 0.54813 0.57582 0.77255 0.0
C377 C 0.48641 0.56236 0.77976 0.0
Zn378 Zn 0.58663 0.7454 0.71384 0.0
Zn379 Zn 0.60554 0.74489 0.64443 0.0
O380 O 0.59135 0.72307 0.65873 0.0
O381 O 0.57553 0.72375 0.7136 0.0
O382 O 0.61903 0.74529 0.58689 0.0
O383 O 0.58088 0.75612 0.6632 0.0
O384 O 0.59693 0.75632 0.60765 0.0
C385 C 0.57992 0.71655 0.68717 0.0
C386 C 0.61595 0.75851 0.75418 0.0
O387 O 0.61867 0.75513 0.70879 0.0
O388 O 0.60319 0.75576 0.76546 0.0
C389 C 0.61337 0.73991 0.54216 0.0
O390 O 0.59918 0.73359 0.53703 0.0
C391 C 0.58726 0.75964 0.61888 0.0
Zn392 Zn 0.24568 0.82608 0.66487 0.0
Zn393 Zn 0.24697 0.84628 0.59754 0.0
O394 O 0.26847 0.8521 0.61032 0.0
O395 O 0.26705 0.83417 0.65895 0.0
O396 O 0.2475 0.85996 0.54013 0.0
O397 O 0.23218 0.80971 0.61788 0.0
O398 O 0.23297 0.82635 0.56392 0.0
C399 C 0.2746 0.84608 0.63485 0.0
C400 C 0.23593 0.84503 0.70975 0.0
O401 O 0.23848 0.85061 0.6635 0.0
O402 O 0.23813 0.83459 0.7201 0.0
C403 C 0.25234 0.85916 0.49487 0.0
O404 O 0.25752 0.8503 0.48872 0.0
C405 C 0.22818 0.81302 0.57549 0.0
Zn406 Zn 0.1391 0.39485 0.68038 0.0
Zn407 Zn 0.11999 0.37464 0.61499 0.0
O408 O 0.11074 0.38765 0.62705 0.0
O409 O 0.12683 0.40409 0.68139 0.0
O410 O 0.10762 0.35973 0.5594 0.0
O411 O 0.15527 0.40204 0.62799 0.0
O412 O 0.13975 0.38457 0.57584 0.0
C413 C 0.11514 0.39909 0.65525 0.0
C414 C 0.12587 0.36629 0.72543 0.0
O415 O 0.11891 0.36273 0.68167 0.0
O416 O 0.13551 0.37939 0.73384 0.0
C417 C 0.1067 0.3644 0.51397 0.0
O418 O 0.11257 0.37851 0.50696 0.0
C419 C 0.15244 0.39527 0.58449 0.0
Zn420 Zn 0.24678 0.3884 0.62409 0.0
Zn421 Zn 0.24215 0.36878 0.55058 0.0
O422 O 0.26396 0.37771 0.56726 0.0
O423 O 0.26723 0.3927 0.63301 0.0
O424 O 0.23881 0.35577 0.48775 0.0
O425 O 0.24154 0.40008 0.5756 0.0
O426 O 0.23464 0.3818 0.52049 0.0
C427 C 0.27207 0.38656 0.60288 0.0
C428 C 0.22616 0.35894 0.65547 0.0
O429 O 0.22948 0.35562 0.61108 0.0
O430 O 0.23145 0.37218 0.66846 0.0
C431 C 0.24466 0.34801 0.4797 0.0
O432 O 0.2533 0.34749 0.51583 0.0
C433 C 0.23543 0.39382 0.5328 0.0
Zn434 Zn 0.58807 0.86368 0.63345 0.0
Zn435 Zn 0.61087 0.87743 0.56784 0.0
O436 O 0.60214 0.8909 0.57315 0.0
O437 O 0.58219 0.87863 0.62055 0.0
O438 O 0.62537 0.88645 0.50876 0.0
O439 O 0.57934 0.84534 0.59038 0.0
O440 O 0.59875 0.85647 0.54012 0.0
C441 C 0.59077 0.88982 0.59431 0.0
C442 C 0.61686 0.87342 0.68102 0.0
O443 O 0.62187 0.8781 0.63487 0.0
O444 O 0.60329 0.86724 0.68976 0.0
C445 C 0.63547 0.89963 0.50516 0.0
O446 O 0.63774 0.90864 0.54443 0.0
C447 C 0.5868 0.84511 0.55173 0.0
Zn448 Zn 0.11222 0.73827 0.66739 0.0
Zn449 Zn 0.10067 0.7459 0.59095 0.0
O450 O 0.08542 0.72423 0.60263 0.0
O451 O 0.09392 0.71917 0.67424 0.0
O452 O 0.09342 0.75176 0.52704 0.0
O453 O 0.12864 0.74044 0.62138 0.0
O454 O 0.12064 0.75018 0.5632 0.0
C455 C 0.08408 0.71546 0.63963 0.0
C456 C 0.10806 0.76196 0.69695 0.0
O457 O 0.10171 0.75939 0.65206 0.0
O458 O 0.11427 0.75496 0.71111 0.0
C459 C 0.08149 0.75172 0.52217 0.0
O460 O 0.07245 0.74772 0.56239 0.0
C461 C 0.13013 0.7469 0.57778 0.0
Zn462 Zn 0.04488 0.58841 0.63282 0.0
Zn463 Zn 0.02366 0.58033 0.70533 0.0
O464 O 0.02992 0.60184 0.69253 0.0
O465 O 0.04618 0.60792 0.62899 0.0
O466 O 0.00893 0.57357 0.76444 0.0
O467 O 0.0572 0.58433 0.68318 0.0
O468 O 0.03859 0.5757 0.73756 0.0
C469 C 0.03865 0.61108 0.65916 0.0
C470 C 0.01707 0.56523 0.59743 0.0
O471 O 0.01271 0.56722 0.64208 0.0
O472 O 0.03039 0.57254 0.58504 0.0
C473 C 0.0095 0.58177 0.80224 0.0
O474 O 0.0194 0.59564 0.80131 0.0
C475 C 0.05123 0.57798 0.72606 0.0
Zn476 Zn 0.40271 0.45186 0.64787 0.0
Zn477 Zn 0.40534 0.43569 0.72023 0.0
O478 O 0.38332 0.42431 0.70308 0.0
O479 O 0.38227 0.43651 0.63421 0.0
O480 O 0.40771 0.42454 0.78071 0.0
O481 O 0.40729 0.46805 0.699 0.0
O482 O 0.41315 0.4559 0.75471 0.0
C483 C 0.37618 0.42576 0.66526 0.0
C484 C 0.42231 0.44237 0.61604 0.0
O485 O 0.41799 0.43508 0.65898 0.0
O486 O 0.41817 0.45134 0.60427 0.0
C487 C 0.40208 0.42488 0.82478 0.0
O488 O 0.39449 0.43158 0.8273 0.0
C489 C 0.41248 0.46724 0.74308 0.0
Zn490 Zn 0.52771 0.95742 0.67253 0.0
Zn491 Zn 0.54679 0.97531 0.73788 0.0
O492 O 0.55766 0.96494 0.70919 0.0
O493 O 0.54208 0.95215 0.64642 0.0
O494 O 0.55942 0.98956 0.79441 0.0
O495 O 0.51365 0.94519 0.72824 0.0
O496 O 0.52842 0.96235 0.78292 0.0
C497 C 0.55409 0.95634 0.66954 0.0
C498 C 0.53613 0.98579 0.64224 0.0
O499 O 0.54506 0.98833 0.68014 0.0
O500 O 0.52611 0.9729 0.63331 0.0
C501 C 0.56115 0.98472 0.83831 0.0
O502 O 0.55617 0.97068 0.84328 0.0
C503 C 0.51664 0.95049 0.77435 0.0
H504 H 0.09224 0.23231 0.12788 0.0
H505 H 0.17668 0.27204 0.16536 0.0
H506 H 0.1182 0.27579 0.18958 0.0
H507 H 0.15082 0.23126 0.08369 0.0
H508 H 0.15465 0.26922 0.20665 0.0
H509 H 0.11219 0.22772 0.14537 0.0
C510 C 0.10203 0.24077 0.14651 0.0
C511 C 0.10379 0.25459 0.15586 0.0
C512 C 0.15384 0.26069 0.18084 0.0
C513 C 0.12678 0.24956 0.17455 0.0
C514 C 0.16643 0.26227 0.15725 0.0
C515 C 0.1655 0.25213 0.11933 0.0
C516 C 0.14028 0.24895 0.16621 0.0
C517 C 0.15199 0.23956 0.1114 0.0
C518 C 0.11343 0.23815 0.15643 0.0
C519 C 0.11653 0.26506 0.18098 0.0
N520 N 0.13985 0.2385 0.13362 0.0
N521 N 0.12775 0.26247 0.18806 0.0
H522 H 0.69867 0.82652 0.23015 0.0
H523 H 0.74414 0.90614 0.13701 0.0
H524 H 0.74419 0.84804 0.19 0.0
H525 H 0.69934 0.88636 0.18585 0.0
H526 H 0.74666 0.88806 0.1882 0.0
H527 H 0.70089 0.85025 0.24723 0.0
C528 C 0.70927 0.83621 0.2271 0.0
C529 C 0.72116 0.83544 0.20683 0.0
C530 C 0.73634 0.88782 0.18893 0.0
C531 C 0.72372 0.86251 0.225 0.0
C532 C 0.73492 0.89816 0.15962 0.0
C533 C 0.7214 0.89741 0.156 0.0
C534 C 0.72399 0.87633 0.21298 0.0
C535 C 0.70988 0.88709 0.18689 0.0
C536 C 0.71053 0.84979 0.2365 0.0
C537 C 0.73466 0.84826 0.20399 0.0
N538 N 0.71129 0.87663 0.21279 0.0
N539 N 0.7355 0.86131 0.21159 0.0
H540 H 0.09512 0.86803 0.12041 0.0
H541 H 0.17268 0.88162 0.19134 0.0
H542 H 0.10362 0.8361 0.19239 0.0
H543 H 0.16345 0.91203 0.11118 0.0
H544 H 0.14739 0.8682 0.2214 0.0
H545 H 0.11914 0.88712 0.14816 0.0
C546 C 0.10188 0.86506 0.14333 0.0
C547 C 0.09761 0.85041 0.15221 0.0
C548 C 0.151 0.87803 0.19838 0.0
C549 C 0.12525 0.87215 0.1828 0.0
C550 C 0.16544 0.88569 0.18128 0.0
C551 C 0.16998 0.89764 0.14725 0.0
C552 C 0.14113 0.88236 0.18105 0.0
C553 C 0.16024 0.90258 0.13601 0.0
C554 C 0.11564 0.87598 0.15908 0.0
C555 C 0.10665 0.84724 0.18331 0.0
N556 N 0.1462 0.89476 0.15196 0.0
N557 N 0.12025 0.85799 0.19608 0.0
H558 H 0.25164 0.08987 0.8399 0.0
H559 H 0.23617 0.15078 0.93835 0.0
H560 H 0.2194 0.08398 0.95635 0.0
H561 H 0.27215 0.15779 0.83881 0.0
H562 H 0.224 0.12493 0.91693 0.0
H563 H 0.25258 0.11223 0.81083 0.0
C564 C 0.2444 0.09301 0.85828 0.0
C565 C 0.23589 0.08538 0.90221 0.0
C566 C 0.23439 0.13216 0.89871 0.0
C567 C 0.23711 0.11108 0.86965 0.0
C568 C 0.24138 0.14694 0.91098 0.0
C569 C 0.25544 0.15637 0.89185 0.0
C570 C 0.24161 0.12675 0.86771 0.0
C571 C 0.26147 0.15085 0.85551 0.0
C572 C 0.24499 0.10584 0.84173 0.0
C573 C 0.22646 0.08976 0.9234 0.0
N574 N 0.25468 0.13632 0.84568 0.0
N575 N 0.22764 0.10258 0.90798 0.0
H576 H 0.82057 0.11777 0.80686 0.0
H577 H 0.90095 0.14797 0.89169 0.0
H578 H 0.84013 0.09161 0.84285 0.0
H579 H 0.883 0.17518 0.8494 0.0
H580 H 0.88124 0.1278 0.84405 0.0
H581 H 0.84483 0.13868 0.79164 0.0
C582 C 0.82994 0.11629 0.80946 0.0
C583 C 0.82847 0.10314 0.82769 0.0
C584 C 0.88172 0.13824 0.84405 0.0
C585 C 0.85612 0.12692 0.81147 0.0
C586 C 0.89299 0.14975 0.87133 0.0
C587 C 0.89332 0.16307 0.87565 0.0
C588 C 0.87043 0.13994 0.8226 0.0
C589 C 0.88296 0.16495 0.84769 0.0
C590 C 0.8438 0.12825 0.80112 0.0
C591 C 0.84089 0.10173 0.83024 0.0
N592 N 0.87164 0.15336 0.82362 0.0
N593 N 0.85423 0.11357 0.82347 0.0
H594 H 0.80896 0.70341 0.84074 0.0
H595 H 0.89337 0.74824 0.8584 0.0
H596 H 0.83481 0.74916 0.87638 0.0
H597 H 0.86856 0.70163 0.84139 0.0
H598 H 0.87275 0.74996 0.82482 0.0
H599 H 0.83049 0.70405 0.80267 0.0
C600 C 0.81904 0.71371 0.83871 0.0
C601 C 0.82031 0.72616 0.86327 0.0
C602 C 0.87188 0.73936 0.82693 0.0
C603 C 0.84487 0.72694 0.82046 0.0
C604 C 0.88368 0.7384 0.84596 0.0
C605 C 0.88243 0.72476 0.8538 0.0
C606 C 0.8586 0.72654 0.81788 0.0
C607 C 0.86979 0.71233 0.83652 0.0
C608 C 0.83134 0.71406 0.81717 0.0
C609 C 0.83353 0.73923 0.8592 0.0
N610 N 0.85813 0.71346 0.82093 0.0
N611 N 0.84538 0.73922 0.83932 0.0
H612 H 0.83302 0.62039 0.52736 0.0
H613 H 0.74831 0.57407 0.50652 0.0
H614 H 0.80819 0.57503 0.48468 0.0
H615 H 0.77205 0.6204 0.53304 0.0
H616 H 0.76946 0.57262 0.5354 0.0
H617 H 0.81091 0.61886 0.56408 0.0
C618 C 0.82302 0.60999 0.5274 0.0
C619 C 0.82225 0.59791 0.50165 0.0
C620 C 0.76998 0.58308 0.53631 0.0
C621 C 0.79705 0.5961 0.543 0.0
C622 C 0.75787 0.58388 0.51998 0.0
C623 C 0.75864 0.59742 0.51602 0.0
C624 C 0.78306 0.59598 0.54694 0.0
C625 C 0.77115 0.60978 0.53475 0.0
C626 C 0.8104 0.60913 0.54817 0.0
C627 C 0.80911 0.58469 0.50297 0.0
N628 N 0.78309 0.60885 0.54782 0.0
N629 N 0.79697 0.5842 0.52233 0.0
H630 H 0.37126 0.13994 0.54689 0.0
H631 H 0.42823 0.21787 0.45421 0.0
H632 H 0.41012 0.15138 0.45722 0.0
H633 H 0.38708 0.20611 0.52742 0.0
H634 H 0.42677 0.19588 0.49041 0.0
H635 H 0.38188 0.16528 0.57465 0.0
C636 C 0.38222 0.14767 0.53444 0.0
C637 C 0.38958 0.14371 0.49782 0.0
C638 C 0.41823 0.19828 0.4998 0.0
C639 C 0.40167 0.17267 0.52885 0.0
C640 C 0.41906 0.21085 0.4791 0.0
C641 C 0.40745 0.21348 0.48599 0.0
C642 C 0.40556 0.18815 0.52645 0.0
C643 C 0.39607 0.20427 0.51984 0.0
C644 C 0.38827 0.16217 0.55022 0.0
C645 C 0.40385 0.1541 0.48395 0.0
N646 N 0.39517 0.19175 0.5375 0.0
N647 N 0.40929 0.1682 0.49836 0.0
H648 H 0.83668 0.21446 0.53481 0.0
H649 H 0.75689 0.18466 0.44827 0.0
H650 H 0.81666 0.24069 0.50908 0.0
H651 H 0.77462 0.15712 0.48818 0.0
H652 H 0.77619 0.20436 0.49902 0.0
H653 H 0.81258 0.19322 0.54847 0.0
C654 C 0.82725 0.21588 0.53444 0.0
C655 C 0.82854 0.22918 0.51916 0.0
C656 C 0.77576 0.19394 0.4978 0.0
C657 C 0.80105 0.20499 0.53329 0.0
C658 C 0.76474 0.18272 0.46866 0.0
C659 C 0.76446 0.16945 0.46301 0.0
C660 C 0.78689 0.19206 0.51968 0.0
C661 C 0.77465 0.16732 0.49102 0.0
C662 C 0.81347 0.20371 0.54176 0.0
C663 C 0.81604 0.23048 0.51938 0.0
N664 N 0.78576 0.17868 0.51693 0.0
N665 N 0.80277 0.21845 0.52487 0.0
H666 H 0.93304 0.49509 0.10026 0.0
H667 H 0.8987 0.41233 0.14763 0.0
H668 H 0.89016 0.46625 0.16192 0.0
H669 H 0.94354 0.44128 0.10662 0.0
H670 H 0.89233 0.42961 0.11034 0.0
H671 H 0.93344 0.47416 0.06175 0.0
C672 C 0.92347 0.48442 0.104 0.0
C673 C 0.91179 0.48227 0.13622 0.0
C674 C 0.90351 0.43204 0.10791 0.0
C675 C 0.91226 0.45836 0.09285 0.0
C676 C 0.90713 0.42214 0.12908 0.0
C677 C 0.92171 0.42567 0.13167 0.0
C678 C 0.91465 0.44575 0.09122 0.0
C679 C 0.93219 0.43834 0.10628 0.0
C680 C 0.92373 0.47246 0.0821 0.0
C681 C 0.8996 0.46828 0.13893 0.0
N682 N 0.92854 0.44821 0.08869 0.0
N683 N 0.9003 0.4568 0.11873 0.0
H684 H 0.53807 0.50237 0.15228 0.0
H685 H 0.51747 0.42073 0.15371 0.0
H686 H 0.56601 0.48542 0.19616 0.0
H687 H 0.48692 0.43573 0.12861 0.0
H688 H 0.53725 0.44474 0.12918 0.0
H689 H 0.52193 0.47934 0.10696 0.0
C690 C 0.54105 0.49398 0.15072 0.0
C691 C 0.55307 0.4955 0.17913 0.0
C692 C 0.52619 0.44272 0.12753 0.0
C693 C 0.53482 0.46933 0.12798 0.0
C694 C 0.5149 0.42898 0.14133 0.0
C695 C 0.50066 0.42646 0.14491 0.0
C696 C 0.52322 0.45408 0.11915 0.0
C697 C 0.49784 0.43737 0.12743 0.0
C698 C 0.53184 0.48084 0.12501 0.0
C699 C 0.55658 0.48444 0.17582 0.0
N700 N 0.5091 0.45091 0.11706 0.0
N701 N 0.54735 0.47172 0.15159 0.0
H702 H 0.54952 0.10088 0.23275 0.0
H703 H 0.46958 0.03554 0.19788 0.0
H704 H 0.53842 0.06019 0.15653 0.0
H705 H 0.48205 0.07388 0.29262 0.0
H706 H 0.49353 0.04788 0.15583 0.0
H707 H 0.52423 0.09487 0.22544 0.0
C708 C 0.54186 0.09087 0.21306 0.0
C709 C 0.54598 0.08076 0.19707 0.0
C710 C 0.4909 0.0537 0.18497 0.0
C711 C 0.51696 0.0737 0.18963 0.0
C712 C 0.47722 0.04666 0.20901 0.0
C713 C 0.47399 0.05354 0.24999 0.0
C714 C 0.50136 0.06768 0.20215 0.0
C715 C 0.48423 0.06802 0.26222 0.0
C716 C 0.52738 0.08741 0.20911 0.0
C717 C 0.53565 0.06814 0.17072 0.0
N718 N 0.49754 0.07451 0.2391 0.0
N719 N 0.5215 0.06475 0.16918 0.0
H720 H 0.43293 0.89407 0.84868 0.0
H721 H 0.50978 0.9632 0.85536 0.0
H722 H 0.44162 0.93682 0.895 0.0
H723 H 0.49862 0.92155 0.78804 0.0
H724 H 0.48712 0.95143 0.90656 0.0
H725 H 0.4582 0.90137 0.86714 0.0
C726 C 0.44004 0.90484 0.86447 0.0
C727 C 0.43538 0.91506 0.8681 0.0
C728 C 0.48986 0.9448 0.88191 0.0
C729 C 0.46437 0.92365 0.88731 0.0
C730 C 0.50279 0.95151 0.85279 0.0
C731 C 0.50573 0.94335 0.8163 0.0
C732 C 0.47996 0.9299 0.8742 0.0
C733 C 0.49647 0.92825 0.81466 0.0
C734 C 0.45451 0.90905 0.87483 0.0
C735 C 0.44492 0.92874 0.89012 0.0
N736 N 0.48386 0.92205 0.84238 0.0
N737 N 0.45915 0.93284 0.89708 0.0
H738 H 0.07846 0.58131 0.71701 0.0
H739 H 0.04474 0.50032 0.80447 0.0
H740 H 0.03836 0.55761 0.8044 0.0
H741 H 0.08484 0.52448 0.7175 0.0
H742 H 0.04656 0.52326 0.83188 0.0
H743 H 0.08531 0.56356 0.74498 0.0
C744 C 0.07126 0.57259 0.74326 0.0
C745 C 0.05756 0.57061 0.75664 0.0
C746 C 0.05516 0.52356 0.8079 0.0
C747 C 0.06516 0.55005 0.78768 0.0
C748 C 0.05413 0.51044 0.79229 0.0
C749 C 0.06437 0.5105 0.75704 0.0
C750 C 0.06643 0.53674 0.78767 0.0
C751 C 0.07644 0.52393 0.74331 0.0
C752 C 0.07517 0.56241 0.75917 0.0
C753 C 0.04886 0.55933 0.79184 0.0
N754 N 0.07696 0.53651 0.75764 0.0
N755 N 0.0526 0.54921 0.80486 0.0
H756 H 0.40666 0.48949 0.74765 0.0
H757 H 0.48619 0.54134 0.84363 0.0
H758 H 0.43428 0.47466 0.81554 0.0
H759 H 0.45795 0.55537 0.77534 0.0
H760 H 0.46497 0.51759 0.86189 0.0
H761 H 0.42231 0.5135 0.78553 0.0
C762 C 0.41588 0.49123 0.77152 0.0
C763 C 0.41946 0.48024 0.77716 0.0
C764 C 0.46336 0.52599 0.84424 0.0
C765 C 0.43765 0.50779 0.81947 0.0
C766 C 0.47549 0.53959 0.83399 0.0
C767 C 0.47385 0.55014 0.8062 0.0
C768 C 0.44961 0.52299 0.82625 0.0
C769 C 0.45973 0.54736 0.79535 0.0
C770 C 0.42482 0.50494 0.79322 0.0
C771 C 0.4313 0.48295 0.80945 0.0
N772 N 0.44818 0.53394 0.80428 0.0
N773 N 0.44024 0.49659 0.8282 0.0
H774 H 0.56088 0.81958 0.5556 0.0
H775 H 0.60452 0.77773 0.53962 0.0
H776 H 0.60468 0.83823 0.49596 0.0
H777 H 0.56293 0.76208 0.6156 0.0
H778 H 0.60129 0.7964 0.49468 0.0
H779 H 0.55793 0.79539 0.54586 0.0
C780 C 0.56974 0.81856 0.53901 0.0
C781 C 0.58322 0.83094 0.52842 0.0
C782 C 0.59272 0.78865 0.5202 0.0
C783 C 0.58007 0.80334 0.51862 0.0
C784 C 0.59456 0.77799 0.54583 0.0
C785 C 0.58418 0.76867 0.5826 0.0
C786 C 0.58042 0.7899 0.53154 0.0
C787 C 0.5714 0.76935 0.58871 0.0
C788 C 0.56808 0.80474 0.53364 0.0
C789 C 0.59421 0.82897 0.50585 0.0
N790 N 0.56999 0.77994 0.56418 0.0
N791 N 0.59256 0.81543 0.50321 0.0
H792 H 0.15 0.73775 0.58412 0.0
H793 H 0.21055 0.81565 0.50219 0.0
H794 H 0.14177 0.76901 0.50517 0.0
H795 H 0.21816 0.78381 0.57974 0.0
H796 H 0.18653 0.7962 0.47529 0.0
H797 H 0.17524 0.75134 0.55515 0.0
C798 C 0.15344 0.74731 0.55968 0.0
C799 C 0.14393 0.75254 0.5485 0.0
C800 C 0.1936 0.79341 0.49696 0.0
C801 C 0.17288 0.76836 0.51629 0.0
C802 C 0.20736 0.80452 0.51219 0.0
C803 C 0.21612 0.80138 0.54496 0.0
C804 C 0.18863 0.77915 0.51504 0.0
C805 C 0.21154 0.78676 0.55596 0.0
C806 C 0.16787 0.75508 0.54307 0.0
C807 C 0.14885 0.76477 0.51564 0.0
N808 N 0.19797 0.77622 0.54214 0.0
N809 N 0.16311 0.77252 0.50191 0.0
H810 H 0.21377 0.37858 0.46059 0.0
H811 H 0.17771 0.42109 0.57495 0.0
H812 H 0.23629 0.41996 0.54104 0.0
H813 H 0.15432 0.37796 0.50794 0.0
H814 H 0.19964 0.42503 0.52956 0.0
H815 H 0.19353 0.38276 0.44342 0.0
C816 C 0.21471 0.3888 0.473 0.0
C817 C 0.22643 0.39866 0.50443 0.0
C818 C 0.18965 0.41481 0.52371 0.0
C819 C 0.20325 0.40336 0.48563 0.0
C820 C 0.17713 0.41254 0.54978 0.0
C821 C 0.16436 0.39898 0.5467 0.0
C822 C 0.18947 0.4033 0.49557 0.0
C823 C 0.16407 0.38845 0.51237 0.0
C824 C 0.20309 0.39114 0.46337 0.0
C825 C 0.2272 0.41182 0.51837 0.0
N826 N 0.17659 0.39067 0.48928 0.0
N827 N 0.21556 0.41361 0.51017 0.0
H828 H 0.03395 0.26849 0.09102 0.0
H829 H 0.96064 0.19376 0.03509 0.0
H830 H 0.03158 0.22691 0.07324 0.0
H831 H 0.96496 0.23545 0.99729 0.0
H832 H 0.98592 0.206 0.06305 0.0
H833 H 0.00767 0.25668 0.07255 0.0
C834 C 0.02782 0.25685 0.0845 0.0
C835 C 0.03483 0.24861 0.0835 0.0
C836 C 0.98139 0.2125 0.04847 0.0
C837 C 0.00515 0.2352 0.06204 0.0
C838 C 0.96696 0.20552 0.03236 0.0
C839 C 0.96072 0.21361 0.01358 0.0
C840 C 0.98969 0.22772 0.0463 0.0
C841 C 0.96942 0.22881 0.01102 0.0
C842 C 0.01293 0.25017 0.07334 0.0
C843 C 0.02654 0.23362 0.07412 0.0
N844 N 0.98351 0.23543 0.0275 0.0
N845 N 0.01215 0.22741 0.06365 0.0
H846 H 0.74618 0.72218 0.99089 0.0
H847 H 0.75401 0.79535 0.11208 0.0
H848 H 0.78697 0.76102 0.02472 0.0
H849 H 0.71264 0.75577 0.1009 0.0
H850 H 0.76607 0.7823 0.08196 0.0
H851 H 0.73329 0.73396 0.02865 0.0
C852 C 0.7524 0.73323 0.00549 0.0
C853 C 0.76766 0.74065 1.00473 0.0
C854 C 0.75437 0.77634 0.08665 0.0
C855 C 0.75309 0.75399 0.04859 0.0
C856 C 0.74751 0.78379 0.10427 0.0
C857 C 0.73236 0.77658 0.10899 0.0
C858 C 0.74601 0.76159 0.07267 0.0
C859 C 0.72439 0.76163 0.09818 0.0
C860 C 0.74506 0.73987 0.02759 0.0
C861 C 0.7752 0.75487 0.02469 0.0
N862 N 0.7313 0.75461 0.07969 0.0
N863 N 0.76785 0.76104 0.04582 0.0
H864 H 0.2316 0.9575 0.13634 0.0
H865 H 0.25884 0.02547 0.94059 0.0
H866 H 0.24171 0.9561 0.97195 0.0
H867 H 0.2331 0.01923 0.08081 0.0
H868 H 0.25841 0.00262 0.95987 0.0
H869 H 0.23912 0.98333 0.12602 0.0
C870 C 0.23598 0.9628 0.09873 0.0
C871 C 0.23601 0.95476 0.05482 0.0
C872 C 0.25291 0.00631 0.98639 0.0
C873 C 0.24423 0.98396 0.04243 0.0
C874 C 0.25305 0.01927 0.97525 0.0
C875 C 0.24581 0.02415 0.00871 0.0
C876 C 0.24566 -0.00169 0.03171 0.0
C877 C 0.23862 0.01577 0.05344 0.0
C878 C 0.24003 0.97744 0.09261 0.0
C879 C 0.24151 0.962 0.00662 0.0
N880 N 0.23875 0.00327 0.06367 0.0
N881 N 0.24525 0.97618 1.00148 0.0
H882 H 0.95848 0.72984 0.95968 0.0
H883 H 0.02154 0.81096 0.02103 0.0
H884 H 0.95111 0.76612 0.97731 0.0
H885 H 0.02547 0.77335 0.05842 0.0
H886 H -0.00363 0.79484 0.99442 0.0
H887 H 0.98419 0.746 0.98275 0.0
C888 C 0.96234 0.74124 0.96745 0.0
C889 C 0.95273 0.74669 0.96685 0.0
C890 C 0.00271 0.79011 0.0088 0.0
C891 C 0.98182 0.76504 0.99348 0.0
C892 C 0.01705 0.79931 0.02418 0.0
C893 C 0.02557 0.79348 0.04212 0.0
C894 C -0.00309 0.77498 0.01064 0.0
C895 C 0.01922 0.77828 0.04523 0.0
C896 C 0.97692 0.75038 0.98117 0.0
C897 C 0.95818 0.76149 0.97773 0.0
N898 N 0.00527 0.76953 0.02916 0.0
N899 N 0.97236 0.77014 0.99064 0.0
H900 H 0.28075 0.23482 0.04681 0.0
H901 H 0.22215 0.24742 0.91135 0.0
H902 H 0.27183 0.22788 0.87959 0.0
H903 H 0.24329 0.26957 0.05598 0.0
H904 H 0.24137 0.24159 0.8968 0.0
H905 H 0.26908 0.24966 0.04905 0.0
C906 C 0.27666 0.23679 0.01025 0.0
C907 C 0.27707 0.23005 0.96305 0.0
C908 C 0.24194 0.2479 0.93135 0.0
C909 C 0.26332 0.24655 0.96559 0.0
C910 C 0.23088 0.25109 0.94001 0.0
C911 C 0.231 0.25875 0.98549 0.0
C912 C 0.25306 0.25213 0.96896 0.0
C913 C 0.24272 0.2635 0.02072 0.0
C914 C 0.26999 0.24523 0.01154 0.0
C915 C 0.27169 0.23291 0.91673 0.0
N916 N 0.25317 0.25988 0.0122 0.0
N917 N 0.26468 0.24068 0.91939 0.0
H918 H 0.78681 0.02896 0.90035 0.0
H919 H 0.71488 0.96408 0.02469 0.0
H920 H 0.7477 0.03141 0.91822 0.0
H921 H 0.75024 0.95937 0.96281 0.0
H922 H 0.72661 0.98891 0.98874 0.0
H923 H 0.77322 0.00321 0.9227 0.0
C924 C 0.77524 0.02393 0.90789 0.0
C925 C 0.7683 0.0322 0.90738 0.0
C926 C 0.73172 0.98237 0.98298 0.0
C927 C 0.75276 0.00289 0.93486 0.0
C928 C 0.72513 0.96829 1.00395 0.0
C929 C 0.73163 0.95968 0.99694 0.0
C930 C 0.74492 0.98783 0.95542 0.0
C931 C 0.74483 0.9656 0.96924 0.0
C932 C 0.76749 0.00926 0.92094 0.0
C933 C 0.75335 0.02527 0.91776 0.0
N934 N 0.75104 0.97929 0.94972 0.0
N935 N 0.74606 0.011 0.93205 0.0
H936 H 0.61745 0.53038 0.32075 0.0
H937 H 0.68792 0.60433 0.40804 0.0
H938 H 0.61967 0.57198 0.30581 0.0
H939 H 0.68669 0.56344 0.38372 0.0
H940 H 0.6624 0.59284 0.379 0.0
H941 H 0.6426 0.54261 0.34956 0.0
C942 C 0.62333 0.54216 0.32305 0.0
C943 C 0.61651 0.5502 0.31095 0.0
C944 C 0.66776 0.58643 0.38035 0.0
C945 C 0.64536 0.56435 0.34487 0.0
C946 C 0.68221 0.5929 0.39748 0.0
C947 C 0.68938 0.5848 0.39819 0.0
C948 C 0.66051 0.57177 0.36453 0.0
C949 C 0.6816 0.57011 0.38353 0.0
C950 C 0.6377 0.54915 0.33966 0.0
C951 C 0.62463 0.56543 0.31445 0.0
N952 N 0.66762 0.5641 0.36728 0.0
N953 N 0.63867 0.57206 0.33168 0.0
H954 H 0.40534 0.03565 0.44668 0.0
H955 H 0.3708 0.07505 0.29846 0.0
H956 H 0.39833 0.03166 0.27786 0.0
H957 H 0.36461 0.06611 0.46595 0.0
H958 H 0.37797 0.05662 0.28908 0.0
H959 H 0.38775 0.04393 0.45488 0.0
C960 C 0.39988 0.0363 0.4114 0.0
C961 C 0.40346 0.03327 0.36139 0.0
C962 C 0.37476 0.05844 0.32774 0.0
C963 C 0.38351 0.04296 0.37032 0.0
C964 C 0.37074 0.06901 0.33317 0.0
C965 C 0.36742 0.07228 0.38326 0.0
C966 C 0.3758 0.05134 0.37295 0.0
C967 C 0.36725 0.064 0.42674 0.0
C968 C 0.38979 0.04096 0.41612 0.0
C969 C 0.39594 0.03404 0.31705 0.0
N970 N 0.37174 0.05411 0.4208 0.0
N971 N 0.38655 0.03916 0.32239 0.0
H972 H 0.87079 0.30295 0.42764 0.0
H973 H 0.94022 0.36532 0.27658 0.0
H974 H 0.90778 0.29795 0.39227 0.0
H975 H 0.89812 0.36206 0.28731 0.0
H976 H 0.9303 0.34188 0.32376 0.0
H977 H 0.88318 0.32701 0.38781 0.0
C978 C 0.88173 0.30715 0.4126 0.0
C979 C 0.88831 0.29856 0.41313 0.0
C980 C 0.92327 0.34629 0.31518 0.0
C981 C 0.90236 0.32582 0.36511 0.0
C982 C 0.92885 0.35952 0.28772 0.0
C983 C 0.91996 0.36561 0.27837 0.0
C984 C 0.90881 0.33934 0.33325 0.0
C985 C 0.90538 0.35781 0.29416 0.0
C986 C 0.88874 0.32079 0.38913 0.0
C987 C 0.90245 0.30439 0.3929 0.0
N988 N 0.90032 0.34519 0.3211 0.0
N989 N 0.90898 0.31766 0.36879 0.0
H990 H 0.6894 0.10082 0.34684 0.0
H991 H 0.6277 0.11966 0.27341 0.0
H992 H 0.6982 0.14429 0.31126 0.0
H993 H 0.62169 0.07658 0.25344 0.0
H994 H 0.65332 0.12879 0.29321 0.0
H995 H 0.66389 0.09143 0.3214 0.0
C996 C 0.68593 0.10838 0.3343 0.0
C997 C 0.6959 0.12334 0.33109 0.0
C998 C 0.64645 0.11737 0.28389 0.0
C999 C 0.66697 0.11274 0.30175 0.0
C1000 C 0.63184 0.11218 0.27239 0.0
C1001 C 0.62259 0.09736 0.26174 0.0
C1002 C 0.65178 0.10764 0.28573 0.0
C1003 C 0.6285 0.08811 0.26107 0.0
C1004 C 0.67145 0.10302 0.31927 0.0
C1005 C 0.69089 0.13267 0.3141 0.0
N1006 N 0.64272 0.09337 0.27366 0.0
N1007 N 0.67679 0.12722 0.3002 0.0
H1008 H 0.8965 0.59854 0.38549 0.0
H1009 H 0.88253 0.51928 0.31096 0.0
H1010 H 0.85442 0.55956 0.3865 0.0
H1011 H 0.92201 0.55851 0.26804 0.0
H1012 H 0.87314 0.534 0.349 0.0
H1013 H 0.90737 0.58401 0.35518 0.0
C1014 C 0.88964 0.58689 0.38055 0.0
C1015 C 0.87457 0.58019 0.38825 0.0
C1016 C 0.88383 0.53943 0.33106 0.0
C1017 C 0.88676 0.56369 0.3532 0.0
C1018 C 0.88919 0.53103 0.30912 0.0
C1019 C 0.90305 0.53769 0.28609 0.0
C1020 C 0.89242 0.55465 0.33043 0.0
C1021 C 0.9112 0.55295 0.28496 0.0
C1022 C 0.89579 0.57866 0.36266 0.0
C1023 C 0.86608 0.56513 0.38069 0.0
N1024 N 0.90578 0.56096 0.30716 0.0
N1025 N 0.87228 0.55741 0.3634 0.0
H1026 H 0.4721 0.35329 0.27223 0.0
H1027 H 0.39971 0.28356 0.37586 0.0
H1028 H 0.42991 0.34986 0.262 0.0
H1029 H 0.44065 0.28495 0.35202 0.0
H1030 H 0.41072 0.30859 0.34214 0.0
H1031 H 0.46068 0.32852 0.30586 0.0
C1032 C 0.46037 0.34721 0.27635 0.0
C1033 C 0.45192 0.3536 0.26429 0.0
C1034 C 0.41728 0.30341 0.34469 0.0
C1035 C 0.43877 0.3253 0.30402 0.0
C1036 C 0.41107 0.28923 0.36454 0.0
C1037 C 0.41929 0.28221 0.36657 0.0
C1038 C 0.4318 0.31055 0.32737 0.0
C1039 C 0.4339 0.28994 0.35083 0.0
C1040 C 0.45386 0.33309 0.29584 0.0
C1041 C 0.43679 0.34525 0.27043 0.0
N1042 N 0.43966 0.30365 0.33179 0.0
N1043 N 0.43067 0.33153 0.29048 0.0
H1044 H 0.29168 0.83415 0.65263 0.0
H1045 H 0.35771 0.90803 0.76257 0.0
H1046 H 0.29325 0.87546 0.63865 0.0
H1047 H 0.36109 0.86992 0.72875 0.0
H1048 H 0.33303 0.8956 0.72596 0.0
H1049 H 0.31665 0.84672 0.68526 0.0
C1050 C 0.29741 0.84591 0.65549 0.0
C1051 C 0.29044 0.8538 0.64293 0.0
C1052 C 0.33918 0.88997 0.72684 0.0
C1053 C 0.31882 0.8682 0.68174 0.0
C1054 C 0.35317 0.89696 0.7484 0.0
C1055 C 0.36144 0.88998 0.74868 0.0
C1056 C 0.33343 0.87587 0.70608 0.0
C1057 C 0.35509 0.87571 0.72918 0.0
C1058 C 0.31162 0.85307 0.67441 0.0
C1059 C 0.2983 0.869 0.64752 0.0
N1060 N 0.34147 0.86913 0.70863 0.0
N1061 N 0.31205 0.87572 0.66733 0.0
H1062 H 0.05161 0.42758 0.69682 0.0
H1063 H 0.12626 0.42751 0.67869 0.0
H1064 H 0.09301 0.46555 0.66201 0.0
H1065 H 0.08586 0.38893 0.63836 0.0
H1066 H 0.11341 0.44092 0.6877 0.0
H1067 H 0.06327 0.41249 0.69044 0.0
C1068 C 0.06314 0.43273 0.68847 0.0
C1069 C 0.0714 0.4478 0.67993 0.0
C1070 C 0.10732 0.42953 0.67672 0.0
C1071 C 0.08461 0.43079 0.6727 0.0
C1072 C 0.11464 0.42184 0.67166 0.0
C1073 C 0.10711 0.40708 0.65767 0.0
C1074 C 0.09228 0.42245 0.66831 0.0
C1075 C 0.09206 0.40034 0.64883 0.0
C1076 C 0.06971 0.42413 0.68434 0.0
C1077 C 0.08624 0.45396 0.66867 0.0
N1078 N 0.08505 0.40809 0.65464 0.0
N1079 N 0.09236 0.44545 0.66559 0.0
H1080 H 0.51239 0.62754 0.72199 0.0
H1081 H 0.5897 0.69725 0.67027 0.0
H1082 H 0.55213 0.62633 0.7427 0.0
H1083 H 0.55169 0.6996 0.71539 0.0
H1084 H 0.57599 0.67082 0.68578 0.0
H1085 H 0.52662 0.65385 0.71046 0.0
C1086 C 0.52413 0.63287 0.72468 0.0
C1087 C 0.53112 0.62482 0.73342 0.0
C1088 C 0.57072 0.67719 0.69222 0.0
C1089 C 0.54747 0.65483 0.7191 0.0
C1090 C 0.57846 0.69219 0.6829 0.0
C1091 C 0.57179 0.70058 0.69161 0.0
C1092 C 0.55622 0.67063 0.70941 0.0
C1093 C 0.55726 0.69355 0.70842 0.0
C1094 C 0.53224 0.64786 0.71802 0.0
C1095 C 0.54635 0.63222 0.73648 0.0
N1096 N 0.54996 0.67899 0.71657 0.0
N1097 N 0.55408 0.64686 0.72868 0.0
H1098 H 0.35542 0.41106 0.7408 0.0
H1099 H 0.28993 0.38311 0.53295 0.0
H1100 H 0.36173 0.41729 0.57207 0.0
H1101 H 0.28767 0.39549 0.69398 0.0
H1102 H 0.31502 0.38867 0.54951 0.0
H1103 H 0.32898 0.39782 0.72627 0.0
C1104 C 0.35123 0.40932 0.70074 0.0
C1105 C 0.36064 0.41542 0.65759 0.0
C1106 C 0.30891 0.39 0.58121 0.0
C1107 C 0.33073 0.4004 0.64078 0.0
C1108 C 0.29468 0.38689 0.57177 0.0
C1109 C 0.28688 0.38915 0.61183 0.0
C1110 C 0.31519 0.39511 0.63126 0.0
C1111 C 0.29343 0.39391 0.66165 0.0
C1112 C 0.33621 0.40187 0.69248 0.0
C1113 C 0.35475 0.41292 0.60639 0.0
N1114 N 0.30723 0.39677 0.66993 0.0
N1115 N 0.34014 0.40569 0.59936 0.0
H1116 H 0.56606 0.88887 0.56205 0.0
H1117 H 0.57761 0.95666 0.71853 0.0
H1118 H 0.60872 0.91785 0.62491 0.0
H1119 H 0.55125 0.94225 0.57701 0.0
H1120 H 0.58932 0.94269 0.69051 0.0
H1121 H 0.55983 0.90803 0.57253 0.0
C1122 C 0.57418 0.89941 0.57712 0.0
C1123 C 0.58792 0.90195 0.59217 0.0
C1124 C 0.58116 0.94289 0.66536 0.0
C1125 C 0.58078 0.92364 0.60615 0.0
C1126 C 0.57448 0.95081 0.68131 0.0
C1127 C 0.56321 0.95033 0.65073 0.0
C1128 C 0.57633 0.9344 0.61911 0.0
C1129 C 0.55963 0.94265 0.60262 0.0
C1130 C 0.57066 0.91031 0.58314 0.0
C1131 C 0.59807 0.91566 0.61227 0.0
N1132 N 0.56596 0.93479 0.58884 0.0
N1133 N 0.5942 0.92599 0.61977 0.0
H1134 H 0.0341 0.62673 0.73584 0.0
H1135 H 0.06861 0.69822 0.55601 0.0
H1136 H 0.04658 0.62841 0.57226 0.0
H1137 H 0.07181 0.69862 0.72633 0.0
H1138 H 0.05233 0.67176 0.55902 0.0
H1139 H 0.04006 0.65224 0.72944 0.0
C1140 C 0.03785 0.63239 0.69843 0.0
C1141 C 0.0402 0.62563 0.65487 0.0
C1142 C 0.05635 0.67773 0.59575 0.0
C1143 C 0.04676 0.65451 0.64708 0.0
C1144 C 0.06555 0.6928 0.59404 0.0
C1145 C 0.07176 0.70047 0.6409 0.0
C1146 C 0.05329 0.67046 0.64465 0.0
C1147 C 0.06746 0.69298 0.68923 0.0
C1148 C 0.04123 0.64689 0.69479 0.0
C1149 C 0.04495 0.63337 0.60713 0.0
N1150 N 0.05863 0.67833 0.68986 0.0
N1151 N 0.0482 0.64744 0.60462 0.0
H1152 H 0.137 0.37115 0.82573 0.0
H1153 H 0.1043 0.32017 0.02739 0.0
H1154 H 0.10658 0.3368 0.7232 0.0
H1155 H 0.09435 0.28836 0.90397 0.0
H1156 H 0.11343 0.33928 0.96006 0.0
H1157 H 0.13015 0.35369 0.89768 0.0
C1158 C 0.12884 0.35992 0.81828 0.0
C1159 C 0.12227 0.35547 0.76827 0.0
C1160 C 0.10952 0.32816 0.9478 0.0
C1161 C 0.11412 0.33543 0.85131 0.0
C1162 C 0.1042 0.31723 0.98626 0.0
C1163 C 0.09863 0.30265 0.97144 0.0
C1164 C 0.10921 0.32446 0.89412 0.0
C1165 C 0.09863 0.29946 0.91739 0.0
C1166 C 0.12482 0.34998 0.85975 0.0
C1167 C 0.11187 0.34074 0.76111 0.0
N1168 N 0.10373 0.31025 0.88074 0.0
N1169 N 0.10813 0.33124 0.80219 0.0
H1170 H 0.66067 0.77667 0.05418 0.0
H1171 H 0.64539 0.76954 0.74332 0.0
H1172 H 0.69468 0.79831 0.93796 0.0
H1173 H 0.61237 0.76143 0.85962 0.0
H1174 H 0.66361 0.77842 0.81414 0.0
H1175 H 0.6426 0.76909 0.98314 0.0
C1176 C 0.66434 0.77984 0.01382 0.0
C1177 C 0.6792 0.78815 1.00203 0.0
C1178 C 0.65238 0.77477 0.82398 0.0
C1179 C 0.65864 0.77942 0.9207 0.0
C1180 C 0.64198 0.76969 0.78361 0.0
C1181 C 0.62734 0.76474 0.7955 0.0
C1182 C 0.64805 0.77469 0.87662 0.0
C1183 C 0.62354 0.76519 0.84851 0.0
C1184 C 0.65403 0.77556 0.97334 0.0
C1185 C 0.68333 0.79197 0.94896 0.0
N1186 N 0.6338 0.76996 0.88711 0.0
N1187 N 0.67312 0.7875 0.91025 0.0
H1188 H 0.22593 0.87942 0.00839 0.0
H1189 H 0.22424 0.86284 0.70022 0.0
H1190 H 0.19919 0.8861 0.89564 0.0
H1191 H 0.23658 0.84117 0.81661 0.0
H1192 H 0.21695 0.87334 0.77187 0.0
H1193 H 0.23173 0.86682 0.93911 0.0
C1194 C 0.22119 0.87815 0.96939 0.0
C1195 C 0.21211 0.88388 0.95786 0.0
C1196 C 0.22118 0.86622 0.78169 0.0
C1197 C 0.21885 0.86976 0.87863 0.0
C1198 C 0.22538 0.86026 0.74081 0.0
C1199 C 0.23099 0.85109 0.75243 0.0
C1200 C 0.22281 0.86318 0.83461 0.0
C1201 C 0.23222 0.84812 0.80585 0.0
C1202 C 0.2245 0.87097 0.92994 0.0
C1203 C 0.20628 0.88191 0.90653 0.0
N1204 N 0.22827 0.85424 0.84503 0.0
N1205 N 0.20986 0.87516 0.86883 0.0
H1206 H 0.30126 0.10101 0.05317 0.0
H1207 H 0.31534 0.09869 0.35913 0.0
H1208 H 0.26685 0.08473 0.16939 0.0
H1209 H 0.34944 0.1241 0.24701 0.0
H1210 H 0.29732 0.09539 0.29205 0.0
H1211 H 0.31907 0.11153 0.12452 0.0
C1212 C 0.29744 0.09982 0.09362 0.0
C1213 C 0.28255 0.09179 0.10534 0.0
C1214 C 0.30876 0.10188 0.28245 0.0
C1215 C 0.30287 0.10363 0.18728 0.0
C1216 C 0.31905 0.10376 0.32075 0.0
C1217 C 0.33392 0.11146 0.30841 0.0
C1218 C 0.31339 0.1076 0.23138 0.0
C1219 C 0.33809 0.1179 0.25812 0.0
C1220 C 0.30761 0.10585 0.13439 0.0
C1221 C 0.27823 0.09072 0.1585 0.0
N1222 N 0.32788 0.11563 0.22122 0.0
N1223 N 0.28835 0.09635 0.19757 0.0
H1224 H 0.88531 0.2253 0.36324 0.0
H1225 H 0.89233 0.2195 0.05201 0.0
H1226 H 0.86361 0.23863 0.25052 0.0
H1227 H 0.89839 0.19192 0.16258 0.0
H1228 H 0.88345 0.22825 0.12474 0.0
H1229 H 0.89207 0.21454 0.29044 0.0
C1230 C 0.88193 0.22592 0.32331 0.0
C1231 C 0.87389 0.23287 0.31295 0.0
C1232 C 0.88662 0.22019 0.13289 0.0
C1233 C 0.8817 0.22078 0.22976 0.0
C1234 C 0.8917 0.21522 0.09145 0.0
C1235 C 0.89611 0.20498 0.10123 0.0
C1236 C 0.88619 0.21507 0.18453 0.0
C1237 C 0.89506 0.19979 0.15317 0.0
C1238 C 0.88575 0.21975 0.28187 0.0
C1239 C 0.86978 0.23334 0.26042 0.0
N1240 N 0.89035 0.205 0.19298 0.0
N1241 N 0.87384 0.22749 0.22076 0.0
H1242 H 0.74974 0.62023 0.23786 0.0
H1243 H 0.79327 0.70319 0.14788 0.0
H1244 H 0.76127 0.65581 0.3465 0.0
H1245 H 0.76583 0.66831 0.04127 0.0
H1246 H 0.78562 0.6857 0.22046 0.0
H1247 H 0.75961 0.63762 0.16503 0.0
C1248 C 0.75446 0.63172 0.24653 0.0
C1249 C 0.75464 0.63659 0.29841 0.0
C1250 C 0.78134 0.68189 0.18112 0.0
C1251 C 0.76599 0.65649 0.21509 0.0
C1252 C 0.78575 0.69183 0.13955 0.0
C1253 C 0.78013 0.6872 0.08837 0.0
C1254 C 0.77141 0.66718 0.17139 0.0
C1255 C 0.77038 0.67235 0.08011 0.0
C1256 C 0.76002 0.64161 0.20484 0.0
C1257 C 0.76085 0.65159 0.30712 0.0
N1258 N 0.76633 0.66285 0.12125 0.0
N1259 N 0.76632 0.66104 0.26582 0.0
H1260 H 0.88724 0.66923 0.02304 0.0
H1261 H 0.88043 0.65535 0.33468 0.0
H1262 H 0.89489 0.70278 0.13653 0.0
H1263 H 0.85714 0.62102 0.22085 0.0
H1264 H 0.88859 0.67314 0.26234 0.0
H1265 H 0.87881 0.65143 0.09533 0.0
C1266 C 0.88713 0.67284 0.06306 0.0
C1267 C 0.89172 0.68749 0.07374 0.0
C1268 C 0.88165 0.6617 0.25339 0.0
C1269 C 0.88229 0.66729 0.15641 0.0
C1270 C 0.87703 0.65156 0.29457 0.0
C1271 C 0.86805 0.6367 0.28381 0.0
C1272 C 0.87746 0.65689 0.2011 0.0
C1273 C 0.86397 0.63238 0.23104 0.0
C1274 C 0.88229 0.66269 0.10422 0.0
C1275 C 0.89135 0.69158 0.1264 0.0
N1276 N 0.86878 0.64242 0.19162 0.0
N1277 N 0.88682 0.68155 0.1658 0.0
H1278 H 0.29888 0.18435 0.12918 0.0
H1279 H 0.38295 0.2224 0.20502 0.0
H1280 H 0.33297 0.20961 0.01679 0.0
H1281 H 0.34858 0.21086 0.31898 0.0
H1282 H 0.36486 0.21352 0.13395 0.0
H1283 H 0.31718 0.18954 0.19662 0.0
C1284 C 0.31023 0.19088 0.11839 0.0
C1285 C 0.31437 0.19671 0.06719 0.0
C1286 C 0.3613 0.21285 0.17455 0.0
C1287 C 0.33542 0.20268 0.14484 0.0
C1288 C 0.37159 0.21785 0.21522 0.0
C1289 C 0.36727 0.21743 0.26811 0.0
C1290 C 0.34658 0.20722 0.1869 0.0
C1291 C 0.35241 0.21147 0.27883 0.0
C1292 C 0.32067 0.19387 0.15714 0.0
C1293 C 0.32928 0.20497 0.05575 0.0
N1294 N 0.3426 0.2066 0.23857 0.0
N1295 N 0.3393 0.2078 0.09445 0.0
H1296 H 0.7696 0.10489 0.97588 0.0
H1297 H 0.75949 0.10923 0.28711 0.0
H1298 H 0.78729 0.08796 0.09158 0.0
H1299 H 0.75679 0.13866 0.17567 0.0
H1300 H 0.7674 0.09931 0.21509 0.0
H1301 H 0.7623 0.11536 0.04809 0.0
C1302 C 0.77194 0.10337 0.01637 0.0
C1303 C 0.7791 0.09558 0.02769 0.0
C1304 C 0.76514 0.108 0.20657 0.0
C1305 C 0.7707 0.10738 0.11023 0.0
C1306 C 0.76062 0.11364 0.24762 0.0
C1307 C 0.75751 0.12481 0.23745 0.0
C1308 C 0.76633 0.1134 0.15491 0.0
C1309 C 0.75915 0.13011 0.18543 0.0
C1310 C 0.76783 0.10938 0.0575 0.0
C1311 C 0.78186 0.09395 0.08094 0.0
N1312 N 0.76334 0.12429 0.14604 0.0
N1313 N 0.77759 0.09973 0.1202 0.0
H1314 H 0.61054 0.86933 0.7867 0.0
H1315 H 0.69122 0.89091 0.87323 0.0
H1316 H 0.64578 0.88165 0.67595 0.0
H1317 H 0.66014 0.89239 0.97968 0.0
H1318 H 0.67309 0.88253 0.80271 0.0
H1319 H 0.62724 0.87318 0.85947 0.0
C1320 C 0.62177 0.87277 0.77761 0.0
C1321 C 0.6268 0.87528 0.72512 0.0
C1322 C 0.67021 0.88456 0.84165 0.0
C1323 C 0.64591 0.87958 0.8083 0.0
C1324 C 0.68052 0.88926 0.88208 0.0
C1325 C 0.67725 0.89252 0.93238 0.0
C1326 C 0.6565 0.88299 0.85164 0.0
C1327 C 0.66318 0.89014 0.94142 0.0
C1328 C 0.63129 0.87498 0.81922 0.0
C1329 C 0.64147 0.87971 0.71581 0.0
N1330 N 0.65334 0.8856 0.90131 0.0
N1331 N 0.65051 0.88173 0.75704 0.0
H1332 H 0.12023 0.76919 0.79528 0.0
H1333 H 0.08331 0.81614 0.87502 0.0
H1334 H 0.09396 0.77773 0.68649 0.0
H1335 H 0.09656 0.79436 0.98764 0.0
H1336 H 0.09164 0.80667 0.80295 0.0
H1337 H 0.11629 0.78321 0.8628 0.0
C1338 C 0.11374 0.77413 0.78529 0.0
C1339 C 0.10723 0.77209 0.73521 0.0
C1340 C 0.09282 0.80408 0.84348 0.0
C1341 C 0.1027 0.78818 0.81281 0.0
C1342 C 0.08813 0.80951 0.88467 0.0
C1343 C 0.08915 0.80593 0.93746 0.0
C1344 C 0.09873 0.79517 0.85524 0.0
C1345 C 0.09545 0.79729 0.94755 0.0
C1346 C 0.11148 0.78211 0.82405 0.0
C1347 C 0.09908 0.77892 0.72465 0.0
N1348 N 0.09998 0.79218 0.9068 0.0
N1349 N 0.09694 0.78659 0.76335 0.0
H1350 H 0.18745 0.27958 0.83776 0.0
H1351 H 0.21939 0.36272 0.75639 0.0
H1352 H 0.20816 0.31549 0.94747 0.0
H1353 H 0.2136 0.32925 0.64532 0.0
H1354 H 0.20907 0.34441 0.82597 0.0
H1355 H 0.19105 0.29677 0.76699 0.0
C1356 C 0.19257 0.29106 0.84719 0.0
C1357 C 0.19768 0.29614 0.89854 0.0
C1358 C 0.2099 0.34106 0.78622 0.0
C1359 C 0.20173 0.31578 0.81774 0.0
C1360 C 0.21574 0.35148 0.74632 0.0
C1361 C 0.2176 0.34755 0.695 0.0
C1362 C 0.20578 0.32658 0.77476 0.0
C1363 C 0.21253 0.3328 0.68441 0.0
C1364 C 0.19465 0.30084 0.8067 0.0
C1365 C 0.2042 0.31112 0.90838 0.0
N1366 N 0.20697 0.32284 0.72414 0.0
N1367 N 0.20611 0.32043 0.86824 0.0
H1368 H 0.03668 0.47114 0.49441 0.0
H1369 H 0.95301 0.43217 0.4126 0.0
H1370 H 0.00179 0.45068 0.60811 0.0
H1371 H 0.98716 0.43871 0.30387 0.0
H1372 H 0.97102 0.44292 0.48323 0.0
H1373 H 0.01881 0.46313 0.4233 0.0
C1374 C 0.02525 0.46503 0.50456 0.0
C1375 C 0.02074 0.46152 0.55746 0.0
C1376 C 0.97457 0.44207 0.44384 0.0
C1377 C 0.00022 0.45238 0.47583 0.0
C1378 C 0.96432 0.43603 0.40332 0.0
C1379 C 0.96857 0.43446 0.35215 0.0
C1380 C 0.9892 0.44676 0.43308 0.0
C1381 C 0.98338 0.43964 0.34271 0.0
C1382 C 0.01507 0.46043 0.4638 0.0
C1383 C 0.00576 0.45357 0.56795 0.0
N1384 N -0.00683 0.44554 0.38284 0.0
N1385 N -0.00398 0.44927 0.52744 0.0
H1386 H 0.55134 0.52393 0.46125 0.0
H1387 H 0.51495 0.57103 0.54334 0.0
H1388 H 0.54669 0.55265 0.35187 0.0
H1389 H 0.53431 0.5552 0.65645 0.0
H1390 H 0.52335 0.56162 0.47154 0.0
H1391 H 0.54165 0.53234 0.53171 0.0
C1392 C 0.54816 0.53191 0.45183 0.0
C1393 C 0.54988 0.53763 0.40045 0.0
C1394 C 0.52575 0.56022 0.51207 0.0
C1395 C 0.53879 0.5473 0.48131 0.0
C1396 C 0.52094 0.56553 0.55313 0.0
C1397 C 0.52395 0.5639 0.60606 0.0
C1398 C 0.53347 0.55303 0.52395 0.0
C1399 C 0.5318 0.55674 0.61627 0.0
C1400 C 0.54271 0.53677 0.49227 0.0
C1401 C 0.54559 0.54798 0.39087 0.0
N1402 N 0.53623 0.55151 0.57556 0.0
N1403 N 0.54023 0.55249 0.43097 0.0
H1404 H 0.42717 0.96564 0.70506 0.0
H1405 H 0.42739 0.97906 0.39636 0.0
H1406 H 0.41895 0.93205 0.59107 0.0
H1407 H 0.45097 0.01373 0.50882 0.0
H1408 H 0.42335 0.96134 0.46618 0.0
H1409 H 0.4349 0.98332 0.63293 0.0
C1410 C 0.42706 0.962 0.6649 0.0
C1411 C 0.42238 0.94736 0.65404 0.0
C1412 C 0.42956 0.97285 0.47519 0.0
C1413 C 0.43106 0.96747 0.57131 0.0
C1414 C 0.43187 0.98295 0.4354 0.0
C1415 C 0.43942 -0.0021 0.44678 0.0
C1416 C 0.43466 0.97776 0.52671 0.0
C1417 C 0.445 0.00233 0.49815 0.0
C1418 C 0.43153 0.9721 0.62377 0.0
C1419 C 0.42252 0.94325 0.60122 0.0
N1420 N 0.44235 0.99231 0.53629 0.0
N1421 N 0.42663 0.95323 0.5617 0.0
H1422 H 0.5217 0.98271 0.54935 0.0
H1423 H 0.57233 0.06436 0.45212 0.0
H1424 H 0.55655 0.01496 0.64568 0.0
H1425 H 0.55104 0.02786 0.34525 0.0
H1426 H 0.56322 0.04753 0.52711 0.0
H1427 H 0.5286 0.00058 0.47862 0.0
C1428 C 0.53067 0.99362 0.55609 0.0
C1429 C 0.53866 -0.00271 0.6035 0.0
C1430 C 0.56054 0.04324 0.48723 0.0
C1431 C 0.54659 0.01776 0.52227 0.0
C1432 C 0.56569 0.05281 0.44441 0.0
C1433 C 0.56247 0.04748 0.39231 0.0
C1434 C 0.5519 0.02827 0.47795 0.0
C1435 C 0.55386 0.03241 0.38471 0.0
C1436 C 0.53464 0.00377 0.51542 0.0
C1437 C 0.55014 0.01163 0.60974 0.0
N1438 N 0.54881 0.02333 0.42712 0.0
N1439 N 0.55382 0.02135 0.56941 0.0
H1440 H 0.97287 0.53547 0.30246 0.0
H1441 H 0.98786 0.54615 0.61042 0.0
H1442 H 0.94043 0.50925 0.41862 0.0
H1443 H 0.02223 0.56163 0.49415 0.0
H1444 H 0.97034 0.53187 0.5413 0.0
H1445 H -0.0087 0.5445 0.3721 0.0
C1446 C 0.96965 0.53147 0.34247 0.0
C1447 C 0.95507 0.52172 0.35483 0.0
C1448 C 0.98175 0.53825 0.53114 0.0
C1449 C 0.97605 0.53216 0.43481 0.0
C1450 C -0.00825 0.54643 0.57054 0.0
C1451 C 0.00651 0.55524 0.55796 0.0
C1452 C 0.98654 0.53904 0.47874 0.0
C1453 C 0.01094 0.55509 0.50566 0.0
C1454 C 0.98019 0.53661 0.38221 0.0
C1455 C 0.95154 0.51682 0.40732 0.0
N1456 N 0.00097 0.54729 0.46786 0.0
N1457 N 0.96192 0.52227 0.44556 0.0
H1458 H 0.4453 0.42216 0.31688 0.0
H1459 H 0.43462 0.42493 0.62602 0.0
H1460 H 0.46904 0.41105 0.42846 0.0
H1461 H 0.42892 0.45272 0.51518 0.0
H1462 H 0.44583 0.41802 0.55509 0.0
H1463 H 0.43722 0.4315 0.39004 0.0
C1464 C 0.44883 0.42171 0.35674 0.0
C1465 C 0.45785 0.41583 0.36665 0.0
C1466 C 0.44225 0.42575 0.54672 0.0
C1467 C 0.44854 0.42634 0.45043 0.0
C1468 C 0.43587 0.4297 0.58709 0.0
C1469 C 0.43074 0.43935 0.57651 0.0
C1470 C 0.44324 0.43131 0.49544 0.0
C1471 C 0.43265 0.4452 0.52528 0.0
C1472 C 0.44428 0.4271 0.39841 0.0
C1473 C 0.46214 0.41556 0.4191 0.0
N1474 N 0.43856 0.44095 0.48656 0.0
N1475 N 0.45732 0.42061 0.45918 0.0
H1476 H 0.0834 0.32981 0.1958 0.0
H1477 H 0.09842 0.33537 0.50868 0.0
H1478 H 0.08619 0.29673 0.28607 0.0
H1479 H 0.1018 0.37076 0.41372 0.0
H1480 H 0.09122 0.31999 0.42949 0.0
H1481 H 0.08764 0.34394 0.27697 0.0
C1482 C 0.08485 0.32548 0.23267 0.0
C1483 C 0.08451 0.31207 0.23393 0.0
C1484 C 0.09345 0.3311 0.42608 0.0
C1485 C 0.08934 0.32822 0.32729 0.0
C1486 C 0.09749 0.33987 0.47136 0.0
C1487 C 0.1008 0.35442 0.46788 0.0
C1488 C 0.09264 0.33688 0.37695 0.0
C1489 C 0.09944 0.35964 0.41833 0.0
C1490 C 0.08729 0.33357 0.27907 0.0
C1491 C 0.08644 0.30703 0.28305 0.0
N1492 N 0.09552 0.35091 0.37488 0.0
N1493 N 0.08879 0.31511 0.32767 0.0
H1494 H 0.64322 0.75429 0.53574 0.0
H1495 H 0.64353 0.74982 0.21922 0.0
H1496 H 0.60451 0.73058 0.44084 0.0
H1497 H 0.68251 0.77259 0.31351 0.0
H1498 H 0.62924 0.74117 0.30048 0.0
H1499 H 0.65797 0.75959 0.45555 0.0
C1500 C 0.63782 0.75008 0.49817 0.0
C1501 C 0.62258 0.74206 0.49506 0.0
C1502 C 0.64093 0.74798 0.30343 0.0
C1503 C 0.6394 0.74816 0.40297 0.0
C1504 C 0.64911 0.75292 0.25697 0.0
C1505 C 0.66425 0.76204 0.25941 0.0
C1506 C 0.6479 0.75222 0.35287 0.0
C1507 C 0.67086 0.76563 0.3096 0.0
C1508 C 0.64625 0.75313 0.45234 0.0
C1509 C 0.6162 0.73687 0.44522 0.0
N1510 N 0.66265 0.76081 0.35426 0.0
N1511 N 0.62462 0.7401 0.40121 0.0
H1512 H 0.25025 0.88749 0.17531 0.0
H1513 H 0.23935 0.87603 0.48944 0.0
H1514 H 0.22538 0.9016 0.26799 0.0
H1515 H 0.26222 0.86012 0.39412 0.0
H1516 H 0.23577 0.88723 0.41028 0.0
H1517 H 0.25635 0.87915 0.25638 0.0
C1518 C 0.24613 0.88892 0.21271 0.0
C1519 C 0.23721 0.8952 0.21465 0.0
C1520 C 0.24164 0.88136 0.40678 0.0
C1521 C 0.24414 0.8856 0.30796 0.0
C1522 C 0.24372 0.87499 0.45202 0.0
C1523 C 0.25103 0.86704 0.44848 0.0
C1524 C 0.24692 0.87979 0.35759 0.0
C1525 C 0.25645 0.86606 0.39883 0.0
C1526 C 0.24961 0.88413 0.25907 0.0
C1527 C 0.23224 0.89678 0.26445 0.0
N1528 N 0.25423 0.87229 0.35544 0.0
N1529 N 0.23572 0.89196 0.30901 0.0
H1530 H 0.34681 0.07668 0.6389 0.0
H1531 H 0.28625 0.0838 0.8025 0.0
H1532 H 0.31918 0.09154 0.57096 0.0
H1533 H 0.30665 0.06001 0.86036 0.0
H1534 H 0.29946 0.08809 0.71943 0.0
H1535 H 0.3332 0.07151 0.72182 0.0
C1536 C 0.33783 0.07878 0.64129 0.0
C1537 C 0.33415 0.08458 0.5979 0.0
C1538 C 0.30105 0.08192 0.75024 0.0
C1539 C 0.31863 0.07882 0.69288 0.0
C1540 C 0.29356 0.07952 0.79788 0.0
C1541 C 0.29534 0.07152 0.83858 0.0
C1542 C 0.31051 0.07639 0.74317 0.0
C1543 C 0.30493 0.06622 0.83009 0.0
C1544 C 0.33007 0.07583 0.68866 0.0
C1545 C 0.3224 0.08707 0.60331 0.0
N1546 N 0.31219 0.06878 0.78335 0.0
N1547 N 0.31513 0.08426 0.65001 0.0
H1548 H 0.9114 0.23613 0.84713 0.0
H1549 H 0.91632 0.2396 0.53075 0.0
H1550 H 0.9362 0.22171 0.75555 0.0
H1551 H 0.89187 0.25443 0.62242 0.0
H1552 H 0.92561 0.23514 0.61303 0.0
H1553 H 0.90616 0.2452 0.76588 0.0
C1554 C 0.9159 0.23503 0.81008 0.0
C1555 C 0.92414 0.22802 0.80817 0.0
C1556 C 0.9183 0.23948 0.61514 0.0
C1557 C 0.91807 0.23826 0.71483 0.0
C1558 C 0.91299 0.24203 0.56811 0.0
C1559 C 0.90319 0.24728 0.56958 0.0
C1560 C 0.91375 0.24214 0.66407 0.0
C1561 C 0.89932 0.25028 0.61926 0.0
C1562 C 0.91287 0.24018 0.76362 0.0
C1563 C 0.9297 0.22694 0.75896 0.0
N1564 N 0.90452 0.24757 0.66444 0.0
N1565 N 0.92646 0.23187 0.71426 0.0
H1566 H 0.74751 0.67045 0.83207 0.0
H1567 H 0.74969 0.67369 0.5159 0.0
H1568 H 0.76309 0.71016 0.74252 0.0
H1569 H 0.73025 0.63361 0.60496 0.0
H1570 H 0.7531 0.68711 0.59836 0.0
H1571 H 0.73938 0.65659 0.7495 0.0
C1572 C 0.74906 0.67625 0.79517 0.0
C1573 C 0.75612 0.69151 0.79426 0.0
C1574 C 0.74797 0.67536 0.59982 0.0
C1575 C 0.74699 0.67572 0.69947 0.0
C1576 C 0.74602 0.66769 0.55268 0.0
C1577 C 0.73978 0.6525 0.55345 0.0
C1578 C 0.74374 0.66781 0.64819 0.0
C1579 C 0.73519 0.64532 0.60239 0.0
C1580 C 0.74444 0.66833 0.74798 0.0
C1581 C 0.7578 0.69842 0.7452 0.0
N1582 N 0.73738 0.65304 0.64776 0.0
N1583 N 0.75341 0.69049 0.69981 0.0
H1584 H 0.89636 0.65327 0.54356 0.0
H1585 H 0.89534 0.65278 0.85979 0.0
H1586 H 0.87994 0.61429 0.63806 0.0
H1587 H 0.91529 0.69217 0.76673 0.0
H1588 H 0.89148 0.63866 0.77899 0.0
H1589 H 0.90525 0.66786 0.62438 0.0
C1590 C 0.89477 0.64778 0.58118 0.0
C1591 C 0.88726 0.63252 0.584 0.0
C1592 C 0.89684 0.6504 0.77624 0.0
C1593 C 0.8973 0.64915 0.67676 0.0
C1594 C 0.89905 0.65848 0.82245 0.0
C1595 C 0.90553 0.67369 0.82009 0.0
C1596 C 0.90102 0.65754 0.7271 0.0
C1597 C 0.91018 0.68047 0.7705 0.0
C1598 C 0.89984 0.65612 0.62736 0.0
C1599 C 0.88556 0.62601 0.6339 0.0
N1600 N 0.90769 0.67234 0.72595 0.0
N1601 N 0.89041 0.63435 0.67825 0.0
H1602 H 0.31059 0.20385 0.75657 0.0
H1603 H 0.38558 0.25862 0.6135 0.0
H1604 H 0.34419 0.24316 0.82935 0.0
H1605 H 0.34945 0.2232 0.53238 0.0
H1606 H 0.37058 0.25308 0.69281 0.0
H1607 H 0.3247 0.21053 0.67453 0.0
C1608 C 0.32093 0.21389 0.75537 0.0
C1609 C 0.32621 0.22293 0.80012 0.0
C1610 C 0.36588 0.24657 0.6576 0.0
C1611 C 0.34245 0.23065 0.70607 0.0
C1612 C 0.37445 0.24973 0.61219 0.0
C1613 C 0.3688 0.24134 0.56613 0.0
C1614 C 0.35156 0.23483 0.65734 0.0
C1615 C 0.35427 0.22998 0.56691 0.0
C1616 C 0.32896 0.21772 0.70839 0.0
C1617 C 0.33967 0.23584 0.79598 0.0
N1618 N 0.3462 0.22699 0.61188 0.0
N1619 N 0.34734 0.23927 0.74994 0.0
H1620 H 0.7651 0.07809 0.71322 0.0
H1621 H 0.71896 0.11126 0.58555 0.0
H1622 H 0.74061 0.09284 0.805 0.0
H1623 H 0.74372 0.09684 0.49374 0.0
H1624 H 0.7247 0.10222 0.66556 0.0
H1625 H 0.7555 0.0827 0.63224 0.0
C1626 C 0.75763 0.08222 0.71643 0.0
C1627 C 0.75375 0.08519 0.76613 0.0
C1628 C 0.72877 0.1009 0.62789 0.0
C1629 C 0.74273 0.09054 0.67321 0.0
C1630 C 0.72546 0.10603 0.58206 0.0
C1631 C 0.73097 0.10494 0.53279 0.0
C1632 C 0.73771 0.09466 0.62463 0.0
C1633 C 0.73928 0.09799 0.53084 0.0
C1634 C 0.75215 0.08485 0.67007 0.0
C1635 C 0.74397 0.09046 0.76764 0.0
N1636 N 0.74251 0.09325 0.57614 0.0
N1637 N 0.73888 0.09305 0.72189 0.0
H1638 H 0.66324 0.90775 0.17979 0.0
H1639 H 0.6604 0.92568 0.48604 0.0
H1640 H 0.7004 0.94126 0.26337 0.0
H1641 H 0.62951 0.88544 0.41037 0.0
H1642 H 0.67376 0.93384 0.40213 0.0
H1643 H 0.64904 0.90208 0.26119 0.0
C1644 C 0.66838 0.91406 0.21505 0.0
C1645 C 0.68309 0.92492 0.21483 0.0
C1646 C 0.66404 0.92324 0.40406 0.0
C1647 C 0.66689 0.91839 0.30833 0.0
C1648 C 0.65642 0.91858 0.45187 0.0
C1649 C 0.64387 0.90482 0.45535 0.0
C1650 C 0.65894 0.91415 0.35937 0.0
C1651 C 0.63919 0.89608 0.40974 0.0
C1652 C 0.66028 0.91075 0.26162 0.0
C1653 C 0.68913 0.93273 0.26182 0.0
N1654 N 0.6467 0.9009 0.36373 0.0
N1655 N 0.68102 0.92927 0.30679 0.0
H1656 H 0.09674 0.75824 0.42936 0.0
H1657 H 0.04652 0.78305 0.27861 0.0
H1658 H 0.05823 0.7554 0.49866 0.0
H1659 H 0.08182 0.78062 0.2039 0.0
H1660 H 0.05024 0.77244 0.35877 0.0
H1661 H 0.09121 0.76614 0.34626 0.0
C1662 C 0.08709 0.75925 0.42714 0.0
C1663 C 0.07797 0.75621 0.47127 0.0
C1664 C 0.05711 0.77412 0.32474 0.0
C1665 C 0.07157 0.76529 0.37585 0.0
C1666 C 0.05499 0.78018 0.27889 0.0
C1667 C 0.06393 0.78281 0.23449 0.0
C1668 C 0.06832 0.77075 0.32648 0.0
C1669 C 0.07469 0.77881 0.23716 0.0
C1670 C 0.08392 0.76373 0.37952 0.0
C1671 C 0.06559 0.75766 0.46577 0.0
N1672 N 0.07665 0.7731 0.28251 0.0
N1673 N 0.0628 0.76217 0.41903 0.0
H1674 H 0.2361 0.2885 0.22883 0.0
H1675 H 0.23086 0.35016 0.39167 0.0
H1676 H 0.22286 0.31728 0.15956 0.0
H1677 H 0.25305 0.32827 0.45105 0.0
H1678 H 0.2272 0.33762 0.30731 0.0
H1679 H 0.24214 0.30258 0.31086 0.0
C1680 C 0.23459 0.29786 0.23067 0.0
C1681 C 0.2289 0.30168 0.18729 0.0
C1682 C 0.23292 0.33558 0.33869 0.0
C1683 C 0.23562 0.31773 0.28135 0.0
C1684 C 0.23495 0.34269 0.38705 0.0
C1685 C 0.24224 0.34024 0.42867 0.0
C1686 C 0.23809 0.32582 0.33181 0.0
C1687 C 0.24735 0.33048 0.42013 0.0
C1688 C 0.23803 0.30589 0.27756 0.0
C1689 C 0.22722 0.31394 0.19195 0.0
N1690 N 0.24512 0.32358 0.37273 0.0
N1691 N 0.23043 0.32144 0.2383 0.0
H1692 H 0.02321 0.45276 0.87338 0.0
H1693 H 0.95136 0.39027 0.01142 0.0
H1694 H -0.00772 0.41353 0.79235 0.0
H1695 H 0.98612 0.42587 0.09705 0.0
H1696 H 0.96619 0.39831 0.93115 0.0
H1697 H 0.00968 0.44302 0.95547 0.0
C1698 C 0.01357 0.44208 0.87278 0.0
C1699 C 0.00885 0.43399 0.82568 0.0
C1700 C 0.97063 0.40429 0.96759 0.0
C1701 C -0.00674 0.42273 0.91999 0.0
C1702 C 0.96217 0.3997 0.01353 0.0
C1703 C 0.96746 0.40744 0.06111 0.0
C1704 C 0.98445 0.41682 0.96899 0.0
C1705 C 0.98157 0.41955 0.06135 0.0
C1706 C 0.00587 0.4365 0.91984 0.0
C1707 C -0.00369 0.42018 0.82761 0.0
N1708 N 0.98951 0.42394 0.01593 0.0
N1709 N 0.98891 0.41503 0.87389 0.0
H1710 H 0.56084 0.56539 0.14519 0.0
H1711 H 0.56602 0.57144 0.82868 0.0
H1712 H 0.58864 0.55525 0.05151 0.0
H1713 H 0.5363 0.5789 0.92211 0.0
H1714 H 0.57624 0.56787 0.9104 0.0
H1715 H 0.55371 0.573 0.06458 0.0
C1716 C 0.56559 0.56492 0.1078 0.0
C1717 C 0.57528 0.55955 0.10515 0.0
C1718 C 0.56753 0.57037 0.913 0.0
C1719 C 0.56705 0.56814 0.01251 0.0
C1720 C 0.56169 0.57241 0.86632 0.0
C1721 C 0.5502 0.57537 0.86841 0.0
C1722 C 0.56186 0.57129 0.96222 0.0
C1723 C 0.54508 0.57654 0.91844 0.0
C1724 C 0.56146 0.56922 0.0617 0.0
C1725 C 0.58107 0.55922 0.05549 0.0
N1726 N 0.55089 0.57444 0.96324 0.0
N1727 N 0.57679 0.56334 0.01116 0.0
H1728 H 0.42488 0.01861 0.09569 0.0
H1729 H 0.39557 0.94083 0.95904 0.0
H1730 H 0.41112 0.97912 0.18484 0.0
H1731 H 0.4215 0.98163 0.87776 0.0
H1732 H 0.39726 0.95427 0.04004 0.0
H1733 H 0.41976 0.0047 0.01373 0.0
C1734 C 0.42067 0.00698 0.09811 0.0
C1735 C 0.41852 4e-05 0.14732 0.0
C1736 C 0.40249 0.96026 1.00435 0.0
C1737 C 0.4126 0.98404 0.05334 0.0
C1738 C 0.40147 0.95261 0.958 0.0
C1739 C 0.40848 0.96012 0.91155 0.0
C1740 C 0.41043 0.97553 1.00413 0.0
C1741 C 0.41601 0.97539 0.91268 0.0
C1742 C 0.41779 -0.00094 0.05121 0.0
C1743 C 0.41302 0.98494 0.14782 0.0
N1744 N 0.4168 0.98258 0.95822 0.0
N1745 N 0.41028 0.97744 0.10151 0.0
H1746 H 0.56749 0.01309 0.8472 0.0
H1747 H 0.58125 0.01747 0.16057 0.0
H1748 H 0.56653 0.97808 0.93765 0.0
H1749 H 0.57272 0.04743 0.07343 0.0
H1750 H 0.57905 0.00437 0.07795 0.0
H1751 H 0.57302 0.02748 0.92827 0.0
C1752 C 0.56863 0.00848 0.88395 0.0
C1753 C 0.56643 -0.00571 0.88559 0.0
C1754 C 0.5777 0.01384 0.077 0.0
C1755 C 0.57266 0.01071 0.97879 0.0
C1756 C 0.57895 0.02132 0.12413 0.0
C1757 C 0.57708 0.03352 0.12408 0.0
C1758 C 0.57468 0.01867 0.02938 0.0
C1759 C 0.57415 0.03802 0.07557 0.0
C1760 C 0.5717 0.01668 0.93033 0.0
C1761 C 0.56804 0.98893 0.9345 0.0
N1762 N 0.57305 0.03061 0.0303 0.0
N1763 N 0.57098 -0.00289 0.97917 0.0
H1764 H 0.00511 0.59592 0.8851 0.0
H1765 H 0.96659 0.52488 0.06418 0.0
H1766 H -0.00668 0.55301 0.8284 0.0
H1767 H 0.96195 0.5623 0.09731 0.0
H1768 H 0.97924 0.53638 0.98232 0.0
H1769 H -0.0084 0.58497 0.96705 0.0
C1770 C -0.0004 0.58421 0.88968 0.0
C1771 C 0.00036 0.57537 0.84984 0.0
C1772 C 0.97546 0.54209 0.00746 0.0
C1773 C 0.98517 0.56287 0.94358 0.0
C1774 C 0.96832 0.53558 0.05446 0.0
C1775 C 0.96319 0.54264 0.08769 0.0
C1776 C 0.97769 0.55587 0.99367 0.0
C1777 C 0.9657 0.55647 0.07275 0.0
C1778 C -0.00809 0.57799 0.93639 0.0
C1779 C -0.00698 0.56026 0.8579 0.0
N1780 N 0.97284 0.56268 0.02684 0.0
N1781 N 0.98586 0.55452 0.90401 0.0
H1782 H 0.42393 0.41885 0.14768 0.0
H1783 H 0.41617 0.40917 0.83486 0.0
H1784 H 0.43455 0.39008 0.06265 0.0
H1785 H 0.39523 0.42787 0.92654 0.0
H1786 H 0.42295 0.4019 0.91735 0.0
H1787 H 0.4132 0.42212 0.06694 0.0
C1788 C 0.42388 0.4131 0.11216 0.0
C1789 C 0.43022 0.40424 0.1119 0.0
C1790 C 0.41674 0.40747 0.91933 0.0
C1791 C 0.41812 0.40809 0.019 0.0
C1792 C 0.4129 0.41164 0.87226 0.0
C1793 C 0.4052 0.41922 0.87373 0.0
C1794 C 0.41303 0.41106 0.96821 0.0
C1795 C 0.40121 0.42209 0.92338 0.0
C1796 C 0.41773 0.41496 0.06604 0.0
C1797 C 0.42978 0.39702 0.0647 0.0
N1798 N 0.40529 0.41814 0.96856 0.0
N1799 N 0.42401 0.39924 0.01998 0.0
loop_
_geom_bond_atom_site_label_1
_geom_bond_atom_site_label_2
_geom_bond_distance
_geom_bond_site_symmetry_2
_ccdc_geom_bond_type
Zn0 O3 2.031 . S
Zn0 O5 2.049 1_556 S
Zn0 O10 2.067 . S
Zn1 O2 1.962 . S
Zn1 O4 1.986 . S
Zn1 O6 1.996 . S
Zn1 O9 1.943 . S
O2 Zn1 1.962 . S
O2 C7 1.254 . S
O3 Zn0 2.031 . S
O3 C7 1.270 1_556 S
O4 Zn1 1.986 . S
O4 C11 1.262 . S
O5 Zn0 2.049 1_554 S
O5 C13 1.260 . S
O6 Zn1 1.996 . S
O6 C13 1.257 . S
C7 O2 1.254 . S
C7 O3 1.270 1_554 S
C8 O9 1.249 1_556 S
C8 O10 1.270 . S
O9 Zn1 1.943 . S
O9 C8 1.249 1_554 S
O10 Zn0 2.067 . S
O10 C8 1.270 . S
C11 O4 1.262 . S
C11 O12 1.232 . S
O12 C11 1.232 . S
C13 O5 1.260 . S
C13 O6 1.257 . S
Zn14 O17 2.031 . S
Zn14 O19 2.049 1_556 S
Zn14 O24 2.067 . S
Zn15 O16 1.962 . S
Zn15 O18 1.986 . S
Zn15 O20 1.996 . S
Zn15 O23 1.943 . S
O16 Zn15 1.962 . S
O16 C21 1.254 . S
O17 Zn14 2.031 . S
O17 C21 1.270 1_556 S
O18 Zn15 1.986 . S
O18 C25 1.262 . S
O19 Zn14 2.049 1_554 S
O19 C27 1.260 . S
O20 Zn15 1.996 . S
O20 C27 1.257 . S
C21 O16 1.254 . S
C21 O17 1.270 1_554 S
C22 O23 1.249 1_556 S
C22 O24 1.270 . S
O23 Zn15 1.943 . S
O23 C22 1.249 1_554 S
O24 Zn14 2.067 . S
O24 C22 1.270 . S
C25 O18 1.262 . S
C25 O26 1.232 . S
O26 C25 1.232 . S
C27 O19 1.260 . S
C27 O20 1.257 . S
Zn28 O31 2.031 . S
Zn28 O33 2.049 1_556 S
Zn28 O38 2.067 . S
Zn29 O30 1.962 . S
Zn29 O32 1.986 . S
Zn29 O34 1.996 . S
Zn29 O37 1.943 . S
O30 Zn29 1.962 . S
O30 C35 1.254 . S
O31 Zn28 2.031 . S
O31 C35 1.270 1_556 S
O32 Zn29 1.986 . S
O32 C39 1.262 . S
O33 Zn28 2.049 1_554 S
O33 C41 1.260 . S
O34 Zn29 1.996 . S
O34 C41 1.257 . S
C35 O30 1.254 . S
C35 O31 1.270 1_554 S
C36 O37 1.249 1_556 S
C36 O38 1.270 . S
O37 Zn29 1.943 . S
O37 C36 1.249 1_554 S
O38 Zn28 2.067 . S
O38 C36 1.270 . S
C39 O32 1.262 . S
C39 O40 1.232 . S
O40 C39 1.232 . S
C41 O33 1.260 . S
C41 O34 1.257 . S
Zn42 O45 2.031 . S
Zn42 O47 2.049 1_554 S
Zn42 O52 2.067 . S
Zn43 O44 1.962 . S
Zn43 O46 1.986 . S
Zn43 O48 1.996 . S
Zn43 O51 1.943 . S
O44 Zn43 1.962 . S
O44 C49 1.254 . S
O45 Zn42 2.031 . S
O45 C49 1.271 1_554 S
O46 Zn43 1.986 . S
O46 C53 1.262 . S
O47 Zn42 2.049 1_556 S
O47 C55 1.260 . S
O48 Zn43 1.996 . S
O48 C55 1.257 . S
C49 O44 1.254 . S
C49 O45 1.271 1_556 S
C50 O51 1.249 1_554 S
C50 O52 1.270 . S
O51 Zn43 1.943 . S
O51 C50 1.249 1_556 S
O52 Zn42 2.067 . S
O52 C50 1.270 . S
C53 O46 1.262 . S
C53 O54 1.232 . S
O54 C53 1.232 . S
C55 O47 1.260 . S
C55 O48 1.257 . S
Zn56 O59 2.031 . S
Zn56 O61 2.049 1_554 S
Zn56 O66 2.067 . S
Zn57 O58 1.962 . S
Zn57 O60 1.986 . S
Zn57 O62 1.996 . S
Zn57 O65 1.943 . S
O58 Zn57 1.962 . S
O58 C63 1.254 . S
O59 Zn56 2.031 . S
O59 C63 1.270 1_554 S
O60 Zn57 1.986 . S
O60 C67 1.262 . S
O61 Zn56 2.049 1_556 S
O61 C69 1.260 . S
O62 Zn57 1.996 . S
O62 C69 1.257 . S
C63 O58 1.254 . S
C63 O59 1.270 1_556 S
C64 O65 1.249 1_554 S
C64 O66 1.270 . S
O65 Zn57 1.943 . S
O65 C64 1.249 1_556 S
O66 Zn56 2.067 . S
O66 C64 1.270 . S
C67 O60 1.262 . S
C67 O68 1.232 . S
O68 C67 1.232 . S
C69 O61 1.260 . S
C69 O62 1.257 . S
Zn70 O73 2.031 . S
Zn70 O75 2.049 1_554 S
Zn70 O80 2.067 . S
Zn71 O72 1.962 . S
Zn71 O74 1.986 . S
Zn71 O76 1.996 . S
Zn71 O79 1.943 . S
O72 Zn71 1.962 . S
O72 C77 1.254 . S
O73 Zn70 2.031 . S
O73 C77 1.270 1_554 S
O74 Zn71 1.986 . S
O74 C81 1.262 . S
O75 Zn70 2.049 1_556 S
O75 C83 1.260 . S
O76 Zn71 1.996 . S
O76 C83 1.257 . S
C77 O72 1.254 . S
C77 O73 1.270 1_556 S
C78 O79 1.249 1_554 S
C78 O80 1.270 . S
O79 Zn71 1.943 . S
O79 C78 1.249 1_556 S
O80 Zn70 2.067 . S
O80 C78 1.270 . S
C81 O74 1.262 . S
C81 O82 1.232 . S
O82 C81 1.232 . S
C83 O75 1.260 . S
C83 O76 1.257 . S
Zn84 O87 2.031 . S
Zn84 O89 2.049 1_554 S
Zn84 O94 2.067 . S
Zn85 O86 1.962 . S
Zn85 O88 1.986 . S
Zn85 O90 1.996 . S
Zn85 O93 1.943 . S
O86 Zn85 1.962 . S
O86 C91 1.254 . S
O87 Zn84 2.031 . S
O87 C91 1.270 1_554 S
O88 Zn85 1.986 . S
O88 C95 1.262 . S
O89 Zn84 2.049 1_556 S
O89 C97 1.260 . S
O90 Zn85 1.996 . S
O90 C97 1.257 . S
C91 O86 1.254 . S
C91 O87 1.270 1_556 S
C92 O93 1.249 1_554 S
C92 O94 1.270 . S
O93 Zn85 1.943 . S
O93 C92 1.249 1_556 S
O94 Zn84 2.067 . S
O94 C92 1.270 . S
C95 O88 1.262 . S
C95 O96 1.232 . S
O96 C95 1.232 . S
C97 O89 1.260 . S
C97 O90 1.257 . S
Zn98 O101 2.031 . S
Zn98 O103 2.049 1_554 S
Zn98 O108 2.067 . S
Zn99 O100 1.962 . S
Zn99 O102 1.986 . S
Zn99 O104 1.996 . S
Zn99 O107 1.943 . S
O100 Zn99 1.962 . S
O100 C105 1.254 . S
O101 Zn98 2.031 . S
O101 C105 1.270 1_554 S
O102 Zn99 1.986 . S
O102 C109 1.262 . S
O103 Zn98 2.049 1_556 S
O103 C111 1.260 . S
O104 Zn99 1.996 . S
O104 C111 1.257 . S
C105 O100 1.254 . S
C105 O101 1.270 1_556 S
C106 O107 1.249 1_554 S
C106 O108 1.270 . S
O107 Zn99 1.943 . S
O107 C106 1.249 1_556 S
O108 Zn98 2.067 . S
O108 C106 1.270 . S
C109 O102 1.262 . S
C109 O110 1.232 . S
O110 C109 1.232 . S
C111 O103 1.260 . S
C111 O104 1.257 . S
Zn112 O115 2.031 . S
Zn112 O117 2.049 1_554 S
Zn112 O122 2.067 . S
Zn113 O114 1.962 . S
Zn113 O116 1.986 . S
Zn113 O118 1.996 . S
Zn113 O121 1.943 . S
O114 Zn113 1.962 . S
O114 C119 1.254 . S
O115 Zn112 2.031 . S
O115 C119 1.270 1_554 S
O116 Zn113 1.986 . S
O116 C123 1.262 . S
O117 Zn112 2.049 1_556 S
O117 C125 1.260 . S
O118 Zn113 1.996 . S
O118 C125 1.257 . S
C119 O114 1.254 . S
C119 O115 1.270 1_556 S
C120 O121 1.249 1_554 S
C120 O122 1.270 . S
O121 Zn113 1.943 . S
O121 C120 1.249 1_556 S
O122 Zn112 2.067 . S
O122 C120 1.270 . S
C123 O116 1.262 . S
C123 O124 1.232 . S
O124 C123 1.232 . S
C125 O117 1.260 . S
C125 O118 1.257 . S
Zn126 O129 2.031 . S
Zn126 O131 2.049 1_556 S
Zn126 O136 2.067 . S
Zn127 O128 1.962 . S
Zn127 O130 1.986 . S
Zn127 O132 1.996 . S
Zn127 O135 1.943 . S
O128 Zn127 1.962 . S
O128 C133 1.254 . S
O129 Zn126 2.031 . S
O129 C133 1.271 1_556 S
O130 Zn127 1.986 . S
O130 C137 1.262 . S
O131 Zn126 2.049 1_554 S
O131 C139 1.260 . S
O132 Zn127 1.996 . S
O132 C139 1.257 . S
C133 O128 1.254 . S
C133 O129 1.271 1_554 S
C134 O135 1.249 1_556 S
C134 O136 1.270 . S
O135 Zn127 1.943 . S
O135 C134 1.249 1_554 S
O136 Zn126 2.067 . S
O136 C134 1.270 . S
C137 O130 1.262 . S
C137 O138 1.232 . S
O138 C137 1.232 . S
C139 O131 1.260 . S
C139 O132 1.257 . S
Zn140 O143 2.031 . S
Zn140 O145 2.049 1_556 S
Zn140 O150 2.067 . S
Zn141 O142 1.962 . S
Zn141 O144 1.986 . S
Zn141 O146 1.996 . S
Zn141 O149 1.943 . S
O142 Zn141 1.962 . S
O142 C147 1.254 . S
O143 Zn140 2.031 . S
O143 C147 1.270 1_556 S
O144 Zn141 1.986 . S
O144 C151 1.262 . S
O145 Zn140 2.049 1_554 S
O145 C153 1.260 . S
O146 Zn141 1.996 . S
O146 C153 1.257 . S
C147 O142 1.254 . S
C147 O143 1.270 1_554 S
C148 O149 1.249 1_556 S
C148 O150 1.270 . S
O149 Zn141 1.943 . S
O149 C148 1.249 1_554 S
O150 Zn140 2.067 . S
O150 C148 1.270 . S
C151 O144 1.262 . S
C151 O152 1.232 . S
O152 C151 1.232 . S
C153 O145 1.260 . S
C153 O146 1.257 . S
Zn154 O157 2.031 . S
Zn154 O159 2.049 1_556 S
Zn154 O164 2.067 . S
Zn155 O156 1.962 . S
Zn155 O158 1.986 . S
Zn155 O160 1.996 . S
Zn155 O163 1.943 . S
O156 Zn155 1.962 . S
O156 C161 1.254 . S
O157 Zn154 2.031 . S
O157 C161 1.270 1_556 S
O158 Zn155 1.986 . S
O158 C165 1.262 . S
O159 Zn154 2.049 1_554 S
O159 C167 1.260 . S
O160 Zn155 1.996 . S
O160 C167 1.257 . S
C161 O156 1.254 . S
C161 O157 1.270 1_554 S
C162 O163 1.249 1_556 S
C162 O164 1.270 . S
O163 Zn155 1.943 . S
O163 C162 1.249 1_554 S
O164 Zn154 2.067 . S
O164 C162 1.270 . S
C165 O158 1.262 . S
C165 O166 1.232 . S
O166 C165 1.232 . S
C167 O159 1.260 . S
C167 O160 1.257 . S
Zn168 O171 2.031 . S
Zn168 O173 2.049 . S
Zn168 O178 2.067 . S
Zn169 O170 1.962 . S
Zn169 O172 1.986 . S
Zn169 O174 1.996 . S
Zn169 O177 1.943 . S
O170 Zn169 1.962 . S
O170 C175 1.254 . S
O171 Zn168 2.031 . S
O171 C175 1.269 . S
O172 Zn169 1.986 . S
O172 C179 1.262 . S
O173 Zn168 2.049 . S
O173 C181 1.260 . S
O174 Zn169 1.996 . S
O174 C181 1.257 . S
C175 O170 1.254 . S
C175 O171 1.269 . S
C176 O177 1.249 . S
C176 O178 1.270 . S
O177 Zn169 1.943 . S
O177 C176 1.249 . S
O178 Zn168 2.067 . S
O178 C176 1.270 . S
C179 O172 1.262 . S
C179 O180 1.232 . S
O180 C179 1.232 . S
C181 O173 1.260 . S
C181 O174 1.257 . S
Zn182 O185 2.031 . S
Zn182 O187 2.049 . S
Zn182 O192 2.067 . S
Zn183 O184 1.962 . S
Zn183 O186 1.986 . S
Zn183 O188 1.996 . S
Zn183 O191 1.943 . S
O184 Zn183 1.962 . S
O184 C189 1.254 . S
O185 Zn182 2.031 . S
O185 C189 1.269 . S
O186 Zn183 1.986 . S
O186 C193 1.262 . S
O187 Zn182 2.049 . S
O187 C195 1.260 . S
O188 Zn183 1.996 . S
O188 C195 1.257 . S
C189 O184 1.254 . S
C189 O185 1.269 . S
C190 O191 1.249 . S
C190 O192 1.270 . S
O191 Zn183 1.943 . S
O191 C190 1.249 . S
O192 Zn182 2.067 . S
O192 C190 1.270 . S
C193 O186 1.262 . S
C193 O194 1.232 . S
O194 C193 1.232 . S
C195 O187 1.260 . S
C195 O188 1.257 . S
Zn196 O199 2.031 . S
Zn196 O201 2.049 . S
Zn196 O206 2.067 . S
Zn197 O198 1.962 . S
Zn197 O200 1.986 . S
Zn197 O202 1.996 . S
Zn197 O205 1.943 . S
O198 Zn197 1.962 . S
O198 C203 1.254 . S
O199 Zn196 2.031 . S
O199 C203 1.269 . S
O200 Zn197 1.986 . S
O200 C207 1.262 . S
O201 Zn196 2.049 . S
O201 C209 1.260 . S
O202 Zn197 1.996 . S
O202 C209 1.257 . S
C203 O198 1.254 . S
C203 O199 1.269 . S
C204 O205 1.249 . S
C204 O206 1.270 . S
O205 Zn197 1.943 . S
O205 C204 1.249 . S
O206 Zn196 2.067 . S
O206 C204 1.270 . S
C207 O200 1.262 . S
C207 O208 1.232 . S
O208 C207 1.232 . S
C209 O201 1.260 . S
C209 O202 1.257 . S
Zn210 O213 2.031 . S
Zn210 O215 2.049 . S
Zn210 O220 2.067 . S
Zn211 O212 1.962 . S
Zn211 O214 1.986 . S
Zn211 O216 1.996 . S
Zn211 O219 1.943 . S
O212 Zn211 1.962 . S
O212 C217 1.254 . S
O213 Zn210 2.031 . S
O213 C217 1.269 . S
O214 Zn211 1.986 . S
O214 C221 1.262 . S
O215 Zn210 2.049 . S
O215 C223 1.260 . S
O216 Zn211 1.996 . S
O216 C223 1.257 . S
C217 O212 1.254 . S
C217 O213 1.269 . S
C218 O219 1.249 . S
C218 O220 1.270 . S
O219 Zn211 1.943 . S
O219 C218 1.249 . S
O220 Zn210 2.067 . S
O220 C218 1.270 . S
C221 O214 1.262 . S
C221 O222 1.232 . S
O222 C221 1.232 . S
C223 O215 1.260 . S
C223 O216 1.257 . S
Zn224 O227 2.031 . S
Zn224 O229 2.049 . S
Zn224 O234 2.067 . S
Zn225 O226 1.962 . S
Zn225 O228 1.986 . S
Zn225 O230 1.996 . S
Zn225 O233 1.943 . S
O226 Zn225 1.962 . S
O226 C231 1.254 . S
O227 Zn224 2.031 . S
O227 C231 1.269 . S
O228 Zn225 1.986 . S
O228 C235 1.262 . S
O229 Zn224 2.049 . S
O229 C237 1.260 . S
O230 Zn225 1.996 . S
O230 C237 1.257 . S
C231 O226 1.254 . S
C231 O227 1.269 . S
C232 O233 1.249 . S
C232 O234 1.270 . S
O233 Zn225 1.943 . S
O233 C232 1.249 . S
O234 Zn224 2.067 . S
O234 C232 1.270 . S
C235 O228 1.262 . S
C235 O236 1.232 . S
O236 C235 1.232 . S
C237 O229 1.260 . S
C237 O230 1.257 . S
Zn238 O241 2.031 . S
Zn238 O243 2.049 . S
Zn238 O248 2.067 . S
Zn239 O240 1.962 . S
Zn239 O242 1.986 . S
Zn239 O244 1.996 . S
Zn239 O247 1.943 . S
O240 Zn239 1.962 . S
O240 C245 1.254 . S
O241 Zn238 2.031 . S
O241 C245 1.269 . S
O242 Zn239 1.986 . S
O242 C249 1.262 . S
O243 Zn238 2.049 . S
O243 C251 1.260 . S
O244 Zn239 1.996 . S
O244 C251 1.257 . S
C245 O240 1.254 . S
C245 O241 1.269 . S
C246 O247 1.249 . S
C246 O248 1.270 . S
O247 Zn239 1.943 . S
O247 C246 1.249 . S
O248 Zn238 2.067 . S
O248 C246 1.270 . S
C249 O242 1.262 . S
C249 O250 1.232 . S
O250 C249 1.232 . S
C251 O243 1.260 . S
C251 O244 1.257 . S
Zn252 O255 2.031 . S
Zn252 O257 2.049 . S
Zn252 O262 2.067 . S
Zn253 O254 1.962 . S
Zn253 O256 1.986 . S
Zn253 O258 1.996 . S
Zn253 O261 1.943 . S
O254 Zn253 1.962 . S
O254 C259 1.254 . S
O255 Zn252 2.031 . S
O255 C259 1.269 . S
O256 Zn253 1.986 . S
O256 C263 1.262 . S
O257 Zn252 2.049 . S
O257 C265 1.260 . S
O258 Zn253 1.996 . S
O258 C265 1.257 . S
C259 O254 1.254 . S
C259 O255 1.269 . S
C260 O261 1.249 . S
C260 O262 1.270 . S
O261 Zn253 1.943 . S
O261 C260 1.249 . S
O262 Zn252 2.067 . S
O262 C260 1.270 . S
C263 O256 1.262 . S
C263 O264 1.232 . S
O264 C263 1.232 . S
C265 O257 1.260 . S
C265 O258 1.257 . S
Zn266 O269 2.031 . S
Zn266 O271 2.049 . S
Zn266 O276 2.067 . S
Zn267 O268 1.962 . S
Zn267 O270 1.986 . S
Zn267 O272 1.996 . S
Zn267 O275 1.943 . S
O268 Zn267 1.962 . S
O268 C273 1.254 . S
O269 Zn266 2.031 . S
O269 C273 1.269 . S
O270 Zn267 1.986 . S
O270 C277 1.262 . S
O271 Zn266 2.049 . S
O271 C279 1.260 . S
O272 Zn267 1.996 . S
O272 C279 1.257 . S
C273 O268 1.254 . S
C273 O269 1.269 . S
C274 O275 1.249 . S
C274 O276 1.270 . S
O275 Zn267 1.943 . S
O275 C274 1.249 . S
O276 Zn266 2.067 . S
O276 C274 1.270 . S
C277 O270 1.262 . S
C277 O278 1.232 . S
O278 C277 1.232 . S
C279 O271 1.260 . S
C279 O272 1.257 . S
Zn280 O283 2.031 . S
Zn280 O285 2.049 . S
Zn280 O290 2.067 . S
Zn281 O282 1.962 . S
Zn281 O284 1.986 . S
Zn281 O286 1.996 . S
Zn281 O289 1.943 . S
O282 Zn281 1.962 . S
O282 C287 1.254 . S
O283 Zn280 2.031 . S
O283 C287 1.269 . S
O284 Zn281 1.986 . S
O284 C291 1.262 . S
O285 Zn280 2.049 . S
O285 C293 1.260 . S
O286 Zn281 1.996 . S
O286 C293 1.257 . S
C287 O282 1.254 . S
C287 O283 1.269 . S
C288 O289 1.249 . S
C288 O290 1.270 . S
O289 Zn281 1.943 . S
O289 C288 1.249 . S
O290 Zn280 2.067 . S
O290 C288 1.270 . S
C291 O284 1.262 . S
C291 O292 1.232 . S
O292 C291 1.232 . S
C293 O285 1.260 . S
C293 O286 1.257 . S
Zn294 O297 2.031 . S
Zn294 O299 2.049 . S
Zn294 O304 2.067 . S
Zn295 O296 1.962 . S
Zn295 O298 1.986 . S
Zn295 O300 1.996 . S
Zn295 O303 1.943 . S
O296 Zn295 1.962 . S
O296 C301 1.254 . S
O297 Zn294 2.031 . S
O297 C301 1.269 . S
O298 Zn295 1.986 . S
O298 C305 1.262 . S
O299 Zn294 2.049 . S
O299 C307 1.260 . S
O300 Zn295 1.996 . S
O300 C307 1.257 . S
C301 O296 1.254 . S
C301 O297 1.269 . S
C302 O303 1.249 . S
C302 O304 1.270 . S
O303 Zn295 1.943 . S
O303 C302 1.249 . S
O304 Zn294 2.067 . S
O304 C302 1.270 . S
C305 O298 1.262 . S
C305 O306 1.232 . S
O306 C305 1.232 . S
C307 O299 1.260 . S
C307 O300 1.257 . S
Zn308 O311 2.031 . S
Zn308 O313 2.049 . S
Zn308 O318 2.067 . S
Zn309 O310 1.962 . S
Zn309 O312 1.986 . S
Zn309 O314 1.996 . S
Zn309 O317 1.943 . S
O310 Zn309 1.962 . S
O310 C315 1.254 . S
O311 Zn308 2.031 . S
O311 C315 1.269 . S
O312 Zn309 1.986 . S
O312 C319 1.262 . S
O313 Zn308 2.049 . S
O313 C321 1.260 . S
O314 Zn309 1.996 . S
O314 C321 1.257 . S
C315 O310 1.254 . S
C315 O311 1.269 . S
C316 O317 1.249 . S
C316 O318 1.270 . S
O317 Zn309 1.943 . S
O317 C316 1.249 . S
O318 Zn308 2.067 . S
O318 C316 1.270 . S
C319 O312 1.262 . S
C319 O320 1.232 . S
O320 C319 1.232 . S
C321 O313 1.260 . S
C321 O314 1.257 . S
Zn322 O325 2.031 . S
Zn322 O327 2.049 . S
Zn322 O332 2.067 . S
Zn323 O324 1.962 . S
Zn323 O326 1.986 . S
Zn323 O328 1.996 . S
Zn323 O331 1.943 . S
O324 Zn323 1.962 . S
O324 C329 1.254 . S
O325 Zn322 2.031 . S
O325 C329 1.269 . S
O326 Zn323 1.986 . S
O326 C333 1.262 . S
O327 Zn322 2.049 . S
O327 C335 1.260 . S
O328 Zn323 1.996 . S
O328 C335 1.257 . S
C329 O324 1.254 . S
C329 O325 1.269 . S
C330 O331 1.249 . S
C330 O332 1.270 . S
O331 Zn323 1.943 . S
O331 C330 1.249 . S
O332 Zn322 2.067 . S
O332 C330 1.270 . S
C333 O326 1.262 . S
C333 O334 1.232 . S
O334 C333 1.232 . S
C335 O327 1.260 . S
C335 O328 1.257 . S
Zn336 O339 2.031 . S
Zn336 O341 2.049 . S
Zn336 O346 2.067 . S
Zn337 O338 1.962 . S
Zn337 O340 1.986 . S
Zn337 O342 1.996 . S
Zn337 O345 1.943 . S
O338 Zn337 1.962 . S
O338 C343 1.254 . S
O339 Zn336 2.031 . S
O339 C343 1.269 . S
O340 Zn337 1.986 . S
O340 C347 1.262 . S
O341 Zn336 2.049 . S
O341 C349 1.260 . S
O342 Zn337 1.996 . S
O342 C349 1.257 . S
C343 O338 1.254 . S
C343 O339 1.269 . S
C344 O345 1.249 . S
C344 O346 1.270 . S
O345 Zn337 1.943 . S
O345 C344 1.249 . S
O346 Zn336 2.067 . S
O346 C344 1.270 . S
C347 O340 1.262 . S
C347 O348 1.232 . S
O348 C347 1.232 . S
C349 O341 1.260 . S
C349 O342 1.257 . S
Zn350 O353 2.031 . S
Zn350 O355 2.049 . S
Zn350 O360 2.067 . S
Zn351 O352 1.962 . S
Zn351 O354 1.986 . S
Zn351 O356 1.996 . S
Zn351 O359 1.943 . S
O352 Zn351 1.962 . S
O352 C357 1.254 . S
O353 Zn350 2.031 . S
O353 C357 1.269 . S
O354 Zn351 1.986 . S
O354 C361 1.262 . S
O355 Zn350 2.049 . S
O355 C363 1.260 . S
O356 Zn351 1.996 . S
O356 C363 1.257 . S
C357 O352 1.254 . S
C357 O353 1.269 . S
C358 O359 1.249 . S
C358 O360 1.270 . S
O359 Zn351 1.943 . S
O359 C358 1.249 . S
O360 Zn350 2.067 . S
O360 C358 1.270 . S
C361 O354 1.262 . S
C361 O362 1.232 . S
O362 C361 1.232 . S
C363 O355 1.260 . S
C363 O356 1.257 . S
Zn364 O367 2.031 . S
Zn364 O369 2.049 . S
Zn364 O374 2.067 . S
Zn365 O366 1.962 . S
Zn365 O368 1.986 . S
Zn365 O370 1.996 . S
Zn365 O373 1.943 . S
O366 Zn365 1.962 . S
O366 C371 1.254 . S
O367 Zn364 2.031 . S
O367 C371 1.269 . S
O368 Zn365 1.986 . S
O368 C375 1.262 . S
O369 Zn364 2.049 . S
O369 C377 1.260 . S
O370 Zn365 1.996 . S
O370 C377 1.257 . S
C371 O366 1.254 . S
C371 O367 1.269 . S
C372 O373 1.249 . S
C372 O374 1.270 . S
O373 Zn365 1.943 . S
O373 C372 1.249 . S
O374 Zn364 2.067 . S
O374 C372 1.270 . S
C375 O368 1.262 . S
C375 O376 1.232 . S
O376 C375 1.232 . S
C377 O369 1.260 . S
C377 O370 1.257 . S
Zn378 O381 2.031 . S
Zn378 O383 2.049 . S
Zn378 O388 2.067 . S
Zn379 O380 1.962 . S
Zn379 O382 1.986 . S
Zn379 O384 1.996 . S
Zn379 O387 1.943 . S
O380 Zn379 1.962 . S
O380 C385 1.254 . S
O381 Zn378 2.031 . S
O381 C385 1.269 . S
O382 Zn379 1.986 . S
O382 C389 1.262 . S
O383 Zn378 2.049 . S
O383 C391 1.260 . S
O384 Zn379 1.996 . S
O384 C391 1.257 . S
C385 O380 1.254 . S
C385 O381 1.269 . S
C386 O387 1.249 . S
C386 O388 1.270 . S
O387 Zn379 1.943 . S
O387 C386 1.249 . S
O388 Zn378 2.067 . S
O388 C386 1.270 . S
C389 O382 1.262 . S
C389 O390 1.232 . S
O390 C389 1.232 . S
C391 O383 1.260 . S
C391 O384 1.257 . S
Zn392 O395 2.031 . S
Zn392 O397 2.049 . S
Zn392 O402 2.067 . S
Zn393 O394 1.962 . S
Zn393 O396 1.986 . S
Zn393 O398 1.996 . S
Zn393 O401 1.943 . S
O394 Zn393 1.962 . S
O394 C399 1.254 . S
O395 Zn392 2.031 . S
O395 C399 1.269 . S
O396 Zn393 1.986 . S
O396 C403 1.262 . S
O397 Zn392 2.049 . S
O397 C405 1.260 . S
O398 Zn393 1.996 . S
O398 C405 1.257 . S
C399 O394 1.254 . S
C399 O395 1.269 . S
C400 O401 1.249 . S
C400 O402 1.270 . S
O401 Zn393 1.943 . S
O401 C400 1.249 . S
O402 Zn392 2.067 . S
O402 C400 1.270 . S
C403 O396 1.262 . S
C403 O404 1.232 . S
O404 C403 1.232 . S
C405 O397 1.260 . S
C405 O398 1.257 . S
Zn406 O409 2.031 . S
Zn406 O411 2.049 . S
Zn406 O416 2.067 . S
Zn407 O408 1.962 . S
Zn407 O410 1.986 . S
Zn407 O412 1.996 . S
Zn407 O415 1.943 . S
O408 Zn407 1.962 . S
O408 C413 1.254 . S
O409 Zn406 2.031 . S
O409 C413 1.269 . S
O410 Zn407 1.986 . S
O410 C417 1.262 . S
O411 Zn406 2.049 . S
O411 C419 1.260 . S
O412 Zn407 1.996 . S
O412 C419 1.257 . S
C413 O408 1.254 . S
C413 O409 1.269 . S
C414 O415 1.249 . S
C414 O416 1.270 . S
O415 Zn407 1.943 . S
O415 C414 1.249 . S
O416 Zn406 2.067 . S
O416 C414 1.270 . S
C417 O410 1.262 . S
C417 O418 1.232 . S
O418 C417 1.232 . S
C419 O411 1.260 . S
C419 O412 1.257 . S
Zn420 O423 2.031 . S
Zn420 O425 2.049 . S
Zn420 O430 2.067 . S
Zn421 O422 1.962 . S
Zn421 O424 1.986 . S
Zn421 O426 1.996 . S
Zn421 O429 1.943 . S
O422 Zn421 1.962 . S
O422 C427 1.254 . S
O423 Zn420 2.031 . S
O423 C427 1.269 . S
O424 Zn421 1.986 . S
O424 C431 1.262 . S
O425 Zn420 2.049 . S
O425 C433 1.260 . S
O426 Zn421 1.996 . S
O426 C433 1.257 . S
C427 O422 1.254 . S
C427 O423 1.269 . S
C428 O429 1.249 . S
C428 O430 1.270 . S
O429 Zn421 1.943 . S
O429 C428 1.249 . S
O430 Zn420 2.067 . S
O430 C428 1.270 . S
C431 O424 1.262 . S
C431 O432 1.232 . S
O432 C431 1.232 . S
C433 O425 1.260 . S
C433 O426 1.257 . S
Zn434 O437 2.031 . S
Zn434 O439 2.049 . S
Zn434 O444 2.067 . S
Zn435 O436 1.962 . S
Zn435 O438 1.986 . S
Zn435 O440 1.996 . S
Zn435 O443 1.943 . S
O436 Zn435 1.962 . S
O436 C441 1.254 . S
O437 Zn434 2.031 . S
O437 C441 1.269 . S
O438 Zn435 1.986 . S
O438 C445 1.262 . S
O439 Zn434 2.049 . S
O439 C447 1.260 . S
O440 Zn435 1.996 . S
O440 C447 1.257 . S
C441 O436 1.254 . S
C441 O437 1.269 . S
C442 O443 1.249 . S
C442 O444 1.270 . S
O443 Zn435 1.943 . S
O443 C442 1.249 . S
O444 Zn434 2.067 . S
O444 C442 1.270 . S
C445 O438 1.262 . S
C445 O446 1.232 . S
O446 C445 1.232 . S
C447 O439 1.260 . S
C447 O440 1.257 . S
Zn448 O451 2.031 . S
Zn448 O453 2.049 . S
Zn448 O458 2.067 . S
Zn449 O450 1.962 . S
Zn449 O452 1.986 . S
Zn449 O454 1.996 . S
Zn449 O457 1.943 . S
O450 Zn449 1.962 . S
O450 C455 1.254 . S
O451 Zn448 2.031 . S
O451 C455 1.269 . S
O452 Zn449 1.986 . S
O452 C459 1.262 . S
O453 Zn448 2.049 . S
O453 C461 1.260 . S
O454 Zn449 1.996 . S
O454 C461 1.257 . S
C455 O450 1.254 . S
C455 O451 1.269 . S
C456 O457 1.249 . S
C456 O458 1.270 . S
O457 Zn449 1.943 . S
O457 C456 1.249 . S
O458 Zn448 2.067 . S
O458 C456 1.270 . S
C459 O452 1.262 . S
C459 O460 1.232 . S
O460 C459 1.232 . S
C461 O453 1.260 . S
C461 O454 1.257 . S
Zn462 O465 2.031 . S
Zn462 O467 2.049 . S
Zn462 O472 2.067 . S
Zn463 O464 1.962 . S
Zn463 O466 1.986 . S
Zn463 O468 1.996 . S
Zn463 O471 1.943 . S
O464 Zn463 1.962 . S
O464 C469 1.254 . S
O465 Zn462 2.031 . S
O465 C469 1.269 . S
O466 Zn463 1.986 . S
O466 C473 1.262 . S
O467 Zn462 2.049 . S
O467 C475 1.260 . S
O468 Zn463 1.996 . S
O468 C475 1.257 . S
C469 O464 1.254 . S
C469 O465 1.269 . S
C470 O471 1.249 . S
C470 O472 1.270 . S
O471 Zn463 1.943 . S
O471 C470 1.249 . S
O472 Zn462 2.067 . S
O472 C470 1.270 . S
C473 O466 1.262 . S
C473 O474 1.232 . S
O474 C473 1.232 . S
C475 O467 1.260 . S
C475 O468 1.257 . S
Zn476 O479 2.031 . S
Zn476 O481 2.049 . S
Zn476 O486 2.067 . S
Zn477 O478 1.962 . S
Zn477 O480 1.986 . S
Zn477 O482 1.996 . S
Zn477 O485 1.943 . S
O478 Zn477 1.962 . S
O478 C483 1.254 . S
O479 Zn476 2.031 . S
O479 C483 1.269 . S
O480 Zn477 1.986 . S
O480 C487 1.262 . S
O481 Zn476 2.049 . S
O481 C489 1.260 . S
O482 Zn477 1.996 . S
O482 C489 1.257 . S
C483 O478 1.254 . S
C483 O479 1.269 . S
C484 O485 1.249 . S
C484 O486 1.270 . S
O485 Zn477 1.943 . S
O485 C484 1.249 . S
O486 Zn476 2.067 . S
O486 C484 1.270 . S
C487 O480 1.262 . S
C487 O488 1.232 . S
O488 C487 1.232 . S
C489 O481 1.260 . S
C489 O482 1.257 . S
Zn490 O493 2.031 . S
Zn490 O495 2.049 . S
Zn490 O500 2.067 . S
Zn491 O492 1.962 . S
Zn491 O494 1.986 . S
Zn491 O496 1.996 . S
Zn491 O499 1.943 . S
O492 Zn491 1.962 . S
O492 C497 1.254 . S
O493 Zn490 2.031 . S
O493 C497 1.269 . S
O494 Zn491 1.986 . S
O494 C501 1.262 . S
O495 Zn490 2.049 . S
O495 C503 1.260 . S
O496 Zn491 1.996 . S
O496 C503 1.257 . S
C497 O492 1.254 . S
C497 O493 1.269 . S
C498 O499 1.249 . S
C498 O500 1.270 . S
O499 Zn491 1.943 . S
O499 C498 1.249 . S
O500 Zn490 2.067 . S
O500 C498 1.270 . S
C501 O494 1.262 . S
C501 O502 1.232 . S
O502 C501 1.232 . S
C503 O495 1.260 . S
C503 O496 1.257 . S
H504 C510 0.930 . S
H505 C514 0.930 . S
H506 C519 0.929 . S
H507 C517 0.929 . S
H508 C512 0.929 . S
H509 C518 0.929 . S
C510 H504 0.930 . S
C510 C511 1.367 . S
C510 C518 1.378 . S
C511 C510 1.367 . S
C511 C519 1.433 . S
C512 H508 0.929 . S
C512 C514 1.378 . S
C512 C516 1.350 . S
C513 C516 1.463 . S
C513 C518 1.350 . S
C513 N521 1.427 . S
C514 H505 0.930 . S
C514 C512 1.378 . S
C514 C515 1.367 . S
C515 C514 1.367 . S
C515 C517 1.433 . S
C516 C512 1.350 . S
C516 C513 1.463 . S
C516 N520 1.427 . S
C517 H507 0.929 . S
C517 C515 1.433 . S
C517 N520 1.384 . S
C518 H509 0.929 . S
C518 C510 1.378 . S
C518 C513 1.350 . S
C519 H506 0.929 . S
C519 C511 1.433 . S
C519 N521 1.384 . S
N520 C516 1.427 . S
N520 C517 1.384 . S
N521 C513 1.427 . S
N521 C519 1.384 . S
H522 C528 0.930 . S
H523 C532 0.930 . S
H524 C537 0.929 . S
H525 C535 0.929 . S
H526 C530 0.929 . S
H527 C536 0.929 . S
C528 H522 0.930 . S
C528 C529 1.367 . S
C528 C536 1.378 . S
C529 C528 1.367 . S
C529 C537 1.433 . S
C530 H526 0.929 . S
C530 C532 1.378 . S
C530 C534 1.350 . S
C531 C534 1.463 . S
C531 C536 1.350 . S
C531 N539 1.427 . S
C532 H523 0.930 . S
C532 C530 1.378 . S
C532 C533 1.367 . S
C533 C532 1.367 . S
C533 C535 1.433 . S
C534 C530 1.350 . S
C534 C531 1.463 . S
C534 N538 1.427 . S
C535 H525 0.929 . S
C535 C533 1.433 . S
C535 N538 1.384 . S
C536 H527 0.929 . S
C536 C528 1.378 . S
C536 C531 1.350 . S
C537 H524 0.929 . S
C537 C529 1.433 . S
C537 N539 1.384 . S
N538 C534 1.427 . S
N538 C535 1.384 . S
N539 C531 1.427 . S
N539 C537 1.384 . S
H540 C546 0.930 1_556 S
H541 C550 0.930 . S
H542 C555 0.929 . S
H543 C553 0.929 1_556 S
H544 C548 0.929 . S
H545 C554 0.929 1_556 S
C546 H540 0.930 1_554 S
C546 C547 1.367 . S
C546 C554 1.378 . S
C547 C546 1.367 . S
C547 C555 1.433 . S
C548 H544 0.929 . S
C548 C550 1.378 . S
C548 C552 1.350 . S
C549 C552 1.463 . S
C549 C554 1.350 . S
C549 N557 1.427 . S
C550 H541 0.930 . S
C550 C548 1.378 . S
C550 C551 1.367 . S
C551 C550 1.367 . S
C551 C553 1.433 . S
C552 C548 1.350 . S
C552 C549 1.463 . S
C552 N556 1.427 . S
C553 H543 0.929 1_554 S
C553 C551 1.433 . S
C553 N556 1.384 . S
C554 H545 0.929 1_554 S
C554 C546 1.378 . S
C554 C549 1.350 . S
C555 H542 0.929 . S
C555 C547 1.433 . S
C555 N557 1.384 . S
N556 C552 1.427 . S
N556 C553 1.384 . S
N557 C549 1.427 . S
N557 C555 1.384 . S
H558 C564 0.930 . S
H559 C568 0.930 . S
H560 C573 0.929 . S
H561 C571 0.929 . S
H562 C566 0.929 . S
H563 C572 0.929 . S
C564 H558 0.930 . S
C564 C565 1.367 . S
C564 C572 1.378 . S
C565 C564 1.367 . S
C565 C573 1.433 . S
C566 H562 0.929 . S
C566 C568 1.378 . S
C566 C570 1.350 . S
C567 C570 1.463 . S
C567 C572 1.350 . S
C567 N575 1.427 . S
C568 H559 0.930 . S
C568 C566 1.378 . S
C568 C569 1.367 . S
C569 C568 1.367 . S
C569 C571 1.433 . S
C570 C566 1.350 . S
C570 C567 1.463 . S
C570 N574 1.427 . S
C571 H561 0.929 . S
C571 C569 1.433 . S
C571 N574 1.384 . S
C572 H563 0.929 . S
C572 C564 1.378 . S
C572 C567 1.350 . S
C573 H560 0.929 . S
C573 C565 1.433 . S
C573 N575 1.384 . S
N574 C570 1.427 . S
N574 C571 1.384 . S
N575 C567 1.427 . S
N575 C573 1.384 . S
H576 C582 0.930 . S
H577 C586 0.930 . S
H578 C591 0.929 . S
H579 C589 0.929 . S
H580 C584 0.929 . S
H581 C590 0.929 . S
C582 H576 0.930 . S
C582 C583 1.367 . S
C582 C590 1.378 . S
C583 C582 1.367 . S
C583 C591 1.433 . S
C584 H580 0.929 . S
C584 C586 1.378 . S
C584 C588 1.350 . S
C585 C588 1.463 . S
C585 C590 1.350 . S
C585 N593 1.427 . S
C586 H577 0.930 . S
C586 C584 1.378 . S
C586 C587 1.367 . S
C587 C586 1.367 . S
C587 C589 1.433 . S
C588 C584 1.350 . S
C588 C585 1.463 . S
C588 N592 1.427 . S
C589 H579 0.929 . S
C589 C587 1.433 . S
C589 N592 1.384 . S
C590 H581 0.929 . S
C590 C582 1.378 . S
C590 C585 1.350 . S
C591 H578 0.929 . S
C591 C583 1.433 . S
C591 N593 1.384 . S
N592 C588 1.427 . S
N592 C589 1.384 . S
N593 C585 1.427 . S
N593 C591 1.384 . S
H594 C600 0.930 . S
H595 C604 0.930 1_554 S
H596 C609 0.929 1_554 S
H597 C607 0.929 . S
H598 C602 0.929 1_554 S
H599 C608 0.929 . S
C600 H594 0.930 . S
C600 C601 1.367 . S
C600 C608 1.378 . S
C601 C600 1.367 . S
C601 C609 1.433 . S
C602 H598 0.929 1_556 S
C602 C604 1.378 . S
C602 C606 1.350 . S
C603 C606 1.463 . S
C603 C608 1.350 . S
C603 N611 1.427 . S
C604 H595 0.930 1_556 S
C604 C602 1.378 . S
C604 C605 1.367 . S
C605 C604 1.367 . S
C605 C607 1.433 . S
C606 C602 1.350 . S
C606 C603 1.463 . S
C606 N610 1.427 . S
C607 H597 0.929 . S
C607 C605 1.433 . S
C607 N610 1.384 . S
C608 H599 0.929 . S
C608 C600 1.378 . S
C608 C603 1.350 . S
C609 H596 0.929 1_556 S
C609 C601 1.433 . S
C609 N611 1.384 . S
N610 C606 1.427 . S
N610 C607 1.384 . S
N611 C603 1.427 . S
N611 C609 1.384 . S
H612 C618 0.930 . S
H613 C622 0.930 . S
H614 C627 0.929 . S
H615 C625 0.929 . S
H616 C620 0.929 . S
H617 C626 0.929 . S
C618 H612 0.930 . S
C618 C619 1.367 . S
C618 C626 1.378 . S
C619 C618 1.367 . S
C619 C627 1.433 . S
C620 H616 0.929 . S
C620 C622 1.378 . S
C620 C624 1.350 . S
C621 C624 1.463 . S
C621 C626 1.350 . S
C621 N629 1.427 . S
C622 H613 0.930 . S
C622 C620 1.378 . S
C622 C623 1.367 . S
C623 C622 1.367 . S
C623 C625 1.433 . S
C624 C620 1.350 . S
C624 C621 1.463 . S
C624 N628 1.427 . S
C625 H615 0.929 . S
C625 C623 1.433 . S
C625 N628 1.384 . S
C626 H617 0.929 . S
C626 C618 1.378 . S
C626 C621 1.350 . S
C627 H614 0.929 . S
C627 C619 1.433 . S
C627 N629 1.384 . S
N628 C624 1.427 . S
N628 C625 1.384 . S
N629 C621 1.427 . S
N629 C627 1.384 . S
H630 C636 0.930 . S
H631 C640 0.930 . S
H632 C645 0.929 . S
H633 C643 0.929 . S
H634 C638 0.929 . S
H635 C644 0.929 . S
C636 H630 0.930 . S
C636 C637 1.367 . S
C636 C644 1.378 . S
C637 C636 1.367 . S
C637 C645 1.433 . S
C638 H634 0.929 . S
C638 C640 1.378 . S
C638 C642 1.350 . S
C639 C642 1.463 . S
C639 C644 1.350 . S
C639 N647 1.427 . S
C640 H631 0.930 . S
C640 C638 1.378 . S
C640 C641 1.367 . S
C641 C640 1.367 . S
C641 C643 1.433 . S
C642 C638 1.350 . S
C642 C639 1.463 . S
C642 N646 1.427 . S
C643 H633 0.929 . S
C643 C641 1.433 . S
C643 N646 1.384 . S
C644 H635 0.929 . S
C644 C636 1.378 . S
C644 C639 1.350 . S
C645 H632 0.929 . S
C645 C637 1.433 . S
C645 N647 1.384 . S
N646 C642 1.427 . S
N646 C643 1.384 . S
N647 C639 1.427 . S
N647 C645 1.384 . S
H648 C654 0.930 . S
H649 C658 0.930 . S
H650 C663 0.929 . S
H651 C661 0.929 . S
H652 C656 0.929 . S
H653 C662 0.929 . S
C654 H648 0.930 . S
C654 C655 1.367 . S
C654 C662 1.378 . S
C655 C654 1.367 . S
C655 C663 1.433 . S
C656 H652 0.929 . S
C656 C658 1.378 . S
C656 C660 1.350 . S
C657 C660 1.463 . S
C657 C662 1.350 . S
C657 N665 1.427 . S
C658 H649 0.930 . S
C658 C656 1.378 . S
C658 C659 1.367 . S
C659 C658 1.367 . S
C659 C661 1.433 . S
C660 C656 1.350 . S
C660 C657 1.463 . S
C660 N664 1.427 . S
C661 H651 0.929 . S
C661 C659 1.433 . S
C661 N664 1.384 . S
C662 H653 0.929 . S
C662 C654 1.378 . S
C662 C657 1.350 . S
C663 H650 0.929 . S
C663 C655 1.433 . S
C663 N665 1.384 . S
N664 C660 1.427 . S
N664 C661 1.384 . S
N665 C657 1.427 . S
N665 C663 1.384 . S
H666 C672 0.930 . S
H667 C676 0.930 . S
H668 C681 0.929 . S
H669 C679 0.929 . S
H670 C674 0.929 . S
H671 C680 0.929 . S
C672 H666 0.930 . S
C672 C673 1.367 . S
C672 C680 1.378 . S
C673 C672 1.367 . S
C673 C681 1.433 . S
C674 H670 0.929 . S
C674 C676 1.378 . S
C674 C678 1.350 . S
C675 C678 1.463 . S
C675 C680 1.350 . S
C675 N683 1.427 . S
C676 H667 0.930 . S
C676 C674 1.378 . S
C676 C677 1.367 . S
C677 C676 1.367 . S
C677 C679 1.433 . S
C678 C674 1.350 . S
C678 C675 1.463 . S
C678 N682 1.427 . S
C679 H669 0.929 . S
C679 C677 1.433 . S
C679 N682 1.384 . S
C680 H671 0.929 . S
C680 C672 1.378 . S
C680 C675 1.350 . S
C681 H668 0.929 . S
C681 C673 1.433 . S
C681 N683 1.384 . S
N682 C678 1.427 . S
N682 C679 1.384 . S
N683 C675 1.427 . S
N683 C681 1.384 . S
H684 C690 0.930 . S
H685 C694 0.930 . S
H686 C699 0.929 . S
H687 C697 0.929 . S
H688 C692 0.929 . S
H689 C698 0.929 . S
C690 H684 0.930 . S
C690 C691 1.367 . S
C690 C698 1.378 . S
C691 C690 1.367 . S
C691 C699 1.433 . S
C692 H688 0.929 . S
C692 C694 1.378 . S
C692 C696 1.350 . S
C693 C696 1.463 . S
C693 C698 1.350 . S
C693 N701 1.427 . S
C694 H685 0.930 . S
C694 C692 1.378 . S
C694 C695 1.367 . S
C695 C694 1.367 . S
C695 C697 1.433 . S
C696 C692 1.350 . S
C696 C693 1.463 . S
C696 N700 1.427 . S
C697 H687 0.929 . S
C697 C695 1.433 . S
C697 N700 1.384 . S
C698 H689 0.929 . S
C698 C690 1.378 . S
C698 C693 1.350 . S
C699 H686 0.929 . S
C699 C691 1.433 . S
C699 N701 1.384 . S
N700 C696 1.427 . S
N700 C697 1.384 . S
N701 C693 1.427 . S
N701 C699 1.384 . S
H702 C708 0.930 . S
H703 C712 0.930 . S
H704 C717 0.929 . S
H705 C715 0.929 . S
H706 C710 0.929 . S
H707 C716 0.929 . S
C708 H702 0.930 . S
C708 C709 1.367 . S
C708 C716 1.378 . S
C709 C708 1.367 . S
C709 C717 1.433 . S
C710 H706 0.929 . S
C710 C712 1.378 . S
C710 C714 1.350 . S
C711 C714 1.463 . S
C711 C716 1.350 . S
C711 N719 1.427 . S
C712 H703 0.930 . S
C712 C710 1.378 . S
C712 C713 1.367 . S
C713 C712 1.367 . S
C713 C715 1.433 . S
C714 C710 1.350 . S
C714 C711 1.463 . S
C714 N718 1.427 . S
C715 H705 0.929 . S
C715 C713 1.433 . S
C715 N718 1.384 . S
C716 H707 0.929 . S
C716 C708 1.378 . S
C716 C711 1.350 . S
C717 H704 0.929 . S
C717 C709 1.433 . S
C717 N719 1.384 . S
N718 C714 1.427 . S
N718 C715 1.384 . S
N719 C711 1.427 . S
N719 C717 1.384 . S
H720 C726 0.930 . S
H721 C730 0.930 . S
H722 C735 0.929 . S
H723 C733 0.929 . S
H724 C728 0.929 . S
H725 C734 0.929 . S
C726 H720 0.930 . S
C726 C727 1.367 . S
C726 C734 1.378 . S
C727 C726 1.367 . S
C727 C735 1.433 . S
C728 H724 0.929 . S
C728 C730 1.378 . S
C728 C732 1.350 . S
C729 C732 1.463 . S
C729 C734 1.350 . S
C729 N737 1.427 . S
C730 H721 0.930 . S
C730 C728 1.378 . S
C730 C731 1.367 . S
C731 C730 1.367 . S
C731 C733 1.433 . S
C732 C728 1.350 . S
C732 C729 1.463 . S
C732 N736 1.427 . S
C733 H723 0.929 . S
C733 C731 1.433 . S
C733 N736 1.384 . S
C734 H725 0.929 . S
C734 C726 1.378 . S
C734 C729 1.350 . S
C735 H722 0.929 . S
C735 C727 1.433 . S
C735 N737 1.384 . S
N736 C732 1.427 . S
N736 C733 1.384 . S
N737 C729 1.427 . S
N737 C735 1.384 . S
H738 C744 0.930 . S
H739 C748 0.930 . S
H740 C753 0.929 . S
H741 C751 0.929 . S
H742 C746 0.929 . S
H743 C752 0.929 . S
C744 H738 0.930 . S
C744 C745 1.367 . S
C744 C752 1.378 . S
C745 C744 1.367 . S
C745 C753 1.433 . S
C746 H742 0.929 . S
C746 C748 1.378 . S
C746 C750 1.350 . S
C747 C750 1.463 . S
C747 C752 1.350 . S
C747 N755 1.427 . S
C748 H739 0.930 . S
C748 C746 1.378 . S
C748 C749 1.367 . S
C749 C748 1.367 . S
C749 C751 1.433 . S
C750 C746 1.350 . S
C750 C747 1.463 . S
C750 N754 1.427 . S
C751 H741 0.929 . S
C751 C749 1.433 . S
C751 N754 1.384 . S
C752 H743 0.929 . S
C752 C744 1.378 . S
C752 C747 1.350 . S
C753 H740 0.929 . S
C753 C745 1.433 . S
C753 N755 1.384 . S
N754 C750 1.427 . S
N754 C751 1.384 . S
N755 C747 1.427 . S
N755 C753 1.384 . S
H756 C762 0.930 . S
H757 C766 0.930 . S
H758 C771 0.929 . S
H759 C769 0.929 . S
H760 C764 0.929 . S
H761 C770 0.929 . S
C762 H756 0.930 . S
C762 C763 1.367 . S
C762 C770 1.378 . S
C763 C762 1.367 . S
C763 C771 1.433 . S
C764 H760 0.929 . S
C764 C766 1.378 . S
C764 C768 1.350 . S
C765 C768 1.463 . S
C765 C770 1.350 . S
C765 N773 1.427 . S
C766 H757 0.930 . S
C766 C764 1.378 . S
C766 C767 1.367 . S
C767 C766 1.367 . S
C767 C769 1.433 . S
C768 C764 1.350 . S
C768 C765 1.463 . S
C768 N772 1.427 . S
C769 H759 0.929 . S
C769 C767 1.433 . S
C769 N772 1.384 . S
C770 H761 0.929 . S
C770 C762 1.378 . S
C770 C765 1.350 . S
C771 H758 0.929 . S
C771 C763 1.433 . S
C771 N773 1.384 . S
N772 C768 1.427 . S
N772 C769 1.384 . S
N773 C765 1.427 . S
N773 C771 1.384 . S
H774 C780 0.930 . S
H775 C784 0.930 . S
H776 C789 0.929 . S
H777 C787 0.929 . S
H778 C782 0.929 . S
H779 C788 0.929 . S
C780 H774 0.930 . S
C780 C781 1.367 . S
C780 C788 1.378 . S
C781 C780 1.367 . S
C781 C789 1.433 . S
C782 H778 0.929 . S
C782 C784 1.378 . S
C782 C786 1.350 . S
C783 C786 1.463 . S
C783 C788 1.350 . S
C783 N791 1.427 . S
C784 H775 0.930 . S
C784 C782 1.378 . S
C784 C785 1.367 . S
C785 C784 1.367 . S
C785 C787 1.433 . S
C786 C782 1.350 . S
C786 C783 1.463 . S
C786 N790 1.427 . S
C787 H777 0.929 . S
C787 C785 1.433 . S
C787 N790 1.384 . S
C788 H779 0.929 . S
C788 C780 1.378 . S
C788 C783 1.350 . S
C789 H776 0.929 . S
C789 C781 1.433 . S
C789 N791 1.384 . S
N790 C786 1.427 . S
N790 C787 1.384 . S
N791 C783 1.427 . S
N791 C789 1.384 . S
H792 C798 0.930 . S
H793 C802 0.930 . S
H794 C807 0.929 . S
H795 C805 0.929 . S
H796 C800 0.929 . S
H797 C806 0.929 . S
C798 H792 0.930 . S
C798 C799 1.367 . S
C798 C806 1.378 . S
C799 C798 1.367 . S
C799 C807 1.433 . S
C800 H796 0.929 . S
C800 C802 1.378 . S
C800 C804 1.350 . S
C801 C804 1.463 . S
C801 C806 1.350 . S
C801 N809 1.427 . S
C802 H793 0.930 . S
C802 C800 1.378 . S
C802 C803 1.367 . S
C803 C802 1.367 . S
C803 C805 1.433 . S
C804 C800 1.350 . S
C804 C801 1.463 . S
C804 N808 1.427 . S
C805 H795 0.929 . S
C805 C803 1.433 . S
C805 N808 1.384 . S
C806 H797 0.929 . S
C806 C798 1.378 . S
C806 C801 1.350 . S
C807 H794 0.929 . S
C807 C799 1.433 . S
C807 N809 1.384 . S
N808 C804 1.427 . S
N808 C805 1.384 . S
N809 C801 1.427 . S
N809 C807 1.384 . S
H810 C816 0.930 . S
H811 C820 0.930 . S
H812 C825 0.929 . S
H813 C823 0.929 . S
H814 C818 0.929 . S
H815 C824 0.929 . S
C816 H810 0.930 . S
C816 C817 1.367 . S
C816 C824 1.378 . S
C817 C816 1.367 . S
C817 C825 1.433 . S
C818 H814 0.929 . S
C818 C820 1.378 . S
C818 C822 1.350 . S
C819 C822 1.463 . S
C819 C824 1.350 . S
C819 N827 1.427 . S
C820 H811 0.930 . S
C820 C818 1.378 . S
C820 C821 1.367 . S
C821 C820 1.367 . S
C821 C823 1.433 . S
C822 C818 1.350 . S
C822 C819 1.463 . S
C822 N826 1.427 . S
C823 H813 0.929 . S
C823 C821 1.433 . S
C823 N826 1.384 . S
C824 H815 0.929 . S
C824 C816 1.378 . S
C824 C819 1.350 . S
C825 H812 0.929 . S
C825 C817 1.433 . S
C825 N827 1.384 . S
N826 C822 1.427 . S
N826 C823 1.384 . S
N827 C819 1.427 . S
N827 C825 1.384 . S
H828 C834 0.930 . S
H829 C838 0.930 . S
H830 C843 0.929 . S
H831 C841 0.929 . S
H832 C836 0.929 . S
H833 C842 0.929 . S
C834 H828 0.930 . S
C834 C835 1.367 1_556 S
C834 C842 1.378 . S
C835 C834 1.367 1_554 S
C835 C843 1.433 . S
C836 H832 0.929 . S
C836 C838 1.378 . S
C836 C840 1.350 1_554 S
C837 C840 1.463 1_454 S
C837 C842 1.350 1_554 S
C837 N845 1.427 . S
C838 H829 0.930 . S
C838 C836 1.378 . S
C838 C839 1.367 1_554 S
C839 C838 1.367 1_556 S
C839 C841 1.433 . S
C840 C836 1.350 1_556 S
C840 C837 1.463 1_656 S
C840 N844 1.427 . S
C841 H831 0.929 . S
C841 C839 1.433 . S
C841 N844 1.384 . S
C842 H833 0.929 . S
C842 C834 1.378 . S
C842 C837 1.350 1_556 S
C843 H830 0.929 . S
C843 C835 1.433 . S
C843 N845 1.384 . S
N844 C840 1.427 . S
N844 C841 1.384 . S
N845 C837 1.427 . S
N845 C843 1.384 . S
H846 C852 0.930 . S
H847 C856 0.930 . S
H848 C861 0.929 . S
H849 C859 0.929 . S
H850 C854 0.929 1_556 S
H851 C860 0.929 1_554 S
C852 H846 0.930 . S
C852 C853 1.367 . S
C852 C860 1.378 . S
C853 C852 1.367 . S
C853 C861 1.433 . S
C854 H850 0.929 1_554 S
C854 C856 1.378 . S
C854 C858 1.350 . S
C855 C858 1.463 1_556 S
C855 C860 1.350 . S
C855 N863 1.427 . S
C856 H847 0.930 . S
C856 C854 1.378 . S
C856 C857 1.367 . S
C857 C856 1.367 . S
C857 C859 1.433 . S
C858 C854 1.350 . S
C858 C855 1.463 1_554 S
C858 N862 1.427 . S
C859 H849 0.929 . S
C859 C857 1.433 . S
C859 N862 1.384 . S
C860 H851 0.929 1_556 S
C860 C852 1.378 . S
C860 C855 1.350 . S
C861 H848 0.929 . S
C861 C853 1.433 . S
C861 N863 1.384 . S
N862 C858 1.427 . S
N862 C859 1.384 . S
N863 C855 1.427 . S
N863 C861 1.384 . S
H864 C870 0.930 . S
H865 C874 0.930 . S
H866 C879 0.929 . S
H867 C877 0.929 . S
H868 C872 0.929 1_554 S
H869 C878 0.929 1_556 S
C870 H864 0.930 . S
C870 C871 1.367 . S
C870 C878 1.378 . S
C871 C870 1.367 . S
C871 C879 1.433 . S
C872 H868 0.929 1_556 S
C872 C874 1.378 . S
C872 C876 1.350 . S
C873 C876 1.463 1_564 S
C873 C878 1.350 . S
C873 N881 1.427 . S
C874 H865 0.930 . S
C874 C872 1.378 . S
C874 C875 1.367 . S
C875 C874 1.367 . S
C875 C877 1.433 . S
C876 C872 1.350 . S
C876 C873 1.463 1_546 S
C876 N880 1.427 . S
C877 H867 0.929 . S
C877 C875 1.433 . S
C877 N880 1.384 . S
C878 H869 0.929 1_554 S
C878 C870 1.378 . S
C878 C873 1.350 . S
C879 H866 0.929 . S
C879 C871 1.433 . S
C879 N881 1.384 . S
N880 C876 1.427 . S
N880 C877 1.384 . S
N881 C873 1.427 . S
N881 C879 1.384 . S
H882 C888 0.930 . S
H883 C892 0.930 . S
H884 C897 0.929 . S
H885 C895 0.929 . S
H886 C890 0.929 . S
H887 C896 0.929 . S
C888 H882 0.930 . S
C888 C889 1.367 1_554 S
C888 C896 1.378 . S
C889 C888 1.367 1_556 S
C889 C897 1.433 . S
C890 H886 0.929 . S
C890 C892 1.378 . S
C890 C894 1.350 1_556 S
C891 C894 1.463 1_656 S
C891 C896 1.350 1_556 S
C891 N899 1.427 . S
C892 H883 0.930 . S
C892 C890 1.378 . S
C892 C893 1.367 1_556 S
C893 C892 1.367 1_554 S
C893 C895 1.433 . S
C894 C890 1.350 1_554 S
C894 C891 1.463 1_454 S
C894 N898 1.427 . S
C895 H885 0.929 . S
C895 C893 1.433 . S
C895 N898 1.384 . S
C896 H887 0.929 . S
C896 C888 1.378 . S
C896 C891 1.350 1_554 S
C897 H884 0.929 . S
C897 C889 1.433 . S
C897 N899 1.384 . S
N898 C894 1.427 . S
N898 C895 1.384 . S
N899 C891 1.427 . S
N899 C897 1.384 . S
H900 C906 0.930 . S
H901 C910 0.930 . S
H902 C915 0.929 . S
H903 C913 0.929 . S
H904 C908 0.929 . S
H905 C914 0.929 . S
C906 H900 0.930 . S
C906 C907 1.367 1_554 S
C906 C914 1.378 . S
C907 C906 1.367 1_556 S
C907 C915 1.433 . S
C908 H904 0.929 . S
C908 C910 1.378 . S
C908 C912 1.350 1_556 S
C909 C912 1.463 1_556 S
C909 C914 1.350 1_556 S
C909 N917 1.427 . S
C910 H901 0.930 . S
C910 C908 1.378 . S
C910 C911 1.367 1_556 S
C911 C910 1.367 1_554 S
C911 C913 1.433 . S
C912 C908 1.350 1_554 S
C912 C909 1.463 1_554 S
C912 N916 1.427 . S
C913 H903 0.929 . S
C913 C911 1.433 . S
C913 N916 1.384 . S
C914 H905 0.929 . S
C914 C906 1.378 . S
C914 C909 1.350 1_554 S
C915 H902 0.929 . S
C915 C907 1.433 . S
C915 N917 1.384 . S
N916 C912 1.427 . S
N916 C913 1.384 . S
N917 C909 1.427 . S
N917 C915 1.384 . S
H918 C924 0.930 . S
H919 C928 0.930 . S
H920 C933 0.929 . S
H921 C931 0.929 . S
H922 C926 0.929 . S
H923 C932 0.929 . S
C924 H918 0.930 . S
C924 C925 1.367 . S
C924 C932 1.378 . S
C925 C924 1.367 . S
C925 C933 1.433 1_556 S
C926 H922 0.929 . S
C926 C928 1.378 . S
C926 C930 1.350 . S
C927 C930 1.463 1_546 S
C927 C932 1.350 . S
C927 N935 1.427 1_556 S
C928 H919 0.930 . S
C928 C926 1.378 . S
C928 C929 1.367 . S
C929 C928 1.367 . S
C929 C931 1.433 1_554 S
C930 C926 1.350 . S
C930 C927 1.463 1_564 S
C930 N934 1.427 1_554 S
C931 H921 0.929 . S
C931 C929 1.433 1_556 S
C931 N934 1.384 . S
C932 H923 0.929 . S
C932 C924 1.378 . S
C932 C927 1.350 . S
C933 H920 0.929 . S
C933 C925 1.433 1_554 S
C933 N935 1.384 . S
N934 C930 1.427 1_556 S
N934 C931 1.384 . S
N935 C927 1.427 1_554 S
N935 C933 1.384 . S
H936 C942 0.930 . S
H937 C946 0.930 . S
H938 C951 0.929 . S
H939 C949 0.929 . S
H940 C944 0.929 . S
H941 C950 0.929 . S
C942 H936 0.930 . S
C942 C943 1.367 . S
C942 C950 1.378 . S
C943 C942 1.367 . S
C943 C951 1.433 . S
C944 H940 0.929 . S
C944 C946 1.378 . S
C944 C948 1.350 . S
C945 C948 1.463 . S
C945 C950 1.350 . S
C945 N953 1.427 . S
C946 H937 0.930 . S
C946 C944 1.378 . S
C946 C947 1.367 . S
C947 C946 1.367 . S
C947 C949 1.433 . S
C948 C944 1.350 . S
C948 C945 1.463 . S
C948 N952 1.427 . S
C949 H939 0.929 . S
C949 C947 1.433 . S
C949 N952 1.384 . S
C950 H941 0.929 . S
C950 C942 1.378 . S
C950 C945 1.350 . S
C951 H938 0.929 . S
C951 C943 1.433 . S
C951 N953 1.384 . S
N952 C948 1.427 . S
N952 C949 1.384 . S
N953 C945 1.427 . S
N953 C951 1.384 . S
H954 C960 0.930 . S
H955 C964 0.930 . S
H956 C969 0.929 . S
H957 C967 0.929 . S
H958 C962 0.929 . S
H959 C968 0.929 . S
C960 H954 0.930 . S
C960 C961 1.367 . S
C960 C968 1.378 . S
C961 C960 1.367 . S
C961 C969 1.433 . S
C962 H958 0.929 . S
C962 C964 1.378 . S
C962 C966 1.350 . S
C963 C966 1.463 . S
C963 C968 1.350 . S
C963 N971 1.427 . S
C964 H955 0.930 . S
C964 C962 1.378 . S
C964 C965 1.367 . S
C965 C964 1.367 . S
C965 C967 1.433 . S
C966 C962 1.350 . S
C966 C963 1.463 . S
C966 N970 1.427 . S
C967 H957 0.929 . S
C967 C965 1.433 . S
C967 N970 1.384 . S
C968 H959 0.929 . S
C968 C960 1.378 . S
C968 C963 1.350 . S
C969 H956 0.929 . S
C969 C961 1.433 . S
C969 N971 1.384 . S
N970 C966 1.427 . S
N970 C967 1.384 . S
N971 C963 1.427 . S
N971 C969 1.384 . S
H972 C978 0.930 . S
H973 C982 0.930 . S
H974 C987 0.929 . S
H975 C985 0.929 . S
H976 C980 0.929 . S
H977 C986 0.929 . S
C978 H972 0.930 . S
C978 C979 1.367 . S
C978 C986 1.378 . S
C979 C978 1.367 . S
C979 C987 1.433 . S
C980 H976 0.929 . S
C980 C982 1.378 . S
C980 C984 1.350 . S
C981 C984 1.463 . S
C981 C986 1.350 . S
C981 N989 1.427 . S
C982 H973 0.930 . S
C982 C980 1.378 . S
C982 C983 1.367 . S
C983 C982 1.367 . S
C983 C985 1.433 . S
C984 C980 1.350 . S
C984 C981 1.463 . S
C984 N988 1.427 . S
C985 H975 0.929 . S
C985 C983 1.433 . S
C985 N988 1.384 . S
C986 H977 0.929 . S
C986 C978 1.378 . S
C986 C981 1.350 . S
C987 H974 0.929 . S
C987 C979 1.433 . S
C987 N989 1.384 . S
N988 C984 1.427 . S
N988 C985 1.384 . S
N989 C981 1.427 . S
N989 C987 1.384 . S
H990 C996 0.930 . S
H991 C1000 0.930 . S
H992 C1005 0.929 . S
H993 C1003 0.929 . S
H994 C998 0.929 . S
H995 C1004 0.929 . S
C996 H990 0.930 . S
C996 C997 1.367 . S
C996 C1004 1.378 . S
C997 C996 1.367 . S
C997 C1005 1.433 . S
C998 H994 0.929 . S
C998 C1000 1.378 . S
C998 C1002 1.350 . S
C999 C1002 1.463 . S
C999 C1004 1.350 . S
C999 N1007 1.427 . S
C1000 H991 0.930 . S
C1000 C998 1.378 . S
C1000 C1001 1.367 . S
C1001 C1000 1.367 . S
C1001 C1003 1.433 . S
C1002 C998 1.350 . S
C1002 C999 1.463 . S
C1002 N1006 1.427 . S
C1003 H993 0.929 . S
C1003 C1001 1.433 . S
C1003 N1006 1.384 . S
C1004 H995 0.929 . S
C1004 C996 1.378 . S
C1004 C999 1.350 . S
C1005 H992 0.929 . S
C1005 C997 1.433 . S
C1005 N1007 1.384 . S
N1006 C1002 1.427 . S
N1006 C1003 1.384 . S
N1007 C999 1.427 . S
N1007 C1005 1.384 . S
H1008 C1014 0.930 . S
H1009 C1018 0.930 . S
H1010 C1023 0.929 . S
H1011 C1021 0.929 . S
H1012 C1016 0.929 . S
H1013 C1022 0.929 . S
C1014 H1008 0.930 . S
C1014 C1015 1.367 . S
C1014 C1022 1.378 . S
C1015 C1014 1.367 . S
C1015 C1023 1.433 . S
C1016 H1012 0.929 . S
C1016 C1018 1.378 . S
C1016 C1020 1.350 . S
C1017 C1020 1.463 . S
C1017 C1022 1.350 . S
C1017 N1025 1.427 . S
C1018 H1009 0.930 . S
C1018 C1016 1.378 . S
C1018 C1019 1.367 . S
C1019 C1018 1.367 . S
C1019 C1021 1.433 . S
C1020 C1016 1.350 . S
C1020 C1017 1.463 . S
C1020 N1024 1.427 . S
C1021 H1011 0.929 . S
C1021 C1019 1.433 . S
C1021 N1024 1.384 . S
C1022 H1013 0.929 . S
C1022 C1014 1.378 . S
C1022 C1017 1.350 . S
C1023 H1010 0.929 . S
C1023 C1015 1.433 . S
C1023 N1025 1.384 . S
N1024 C1020 1.427 . S
N1024 C1021 1.384 . S
N1025 C1017 1.427 . S
N1025 C1023 1.384 . S
H1026 C1032 0.930 . S
H1027 C1036 0.930 . S
H1028 C1041 0.929 . S
H1029 C1039 0.929 . S
H1030 C1034 0.929 . S
H1031 C1040 0.929 . S
C1032 H1026 0.930 . S
C1032 C1033 1.367 . S
C1032 C1040 1.378 . S
C1033 C1032 1.367 . S
C1033 C1041 1.433 . S
C1034 H1030 0.929 . S
C1034 C1036 1.378 . S
C1034 C1038 1.350 . S
C1035 C1038 1.463 . S
C1035 C1040 1.350 . S
C1035 N1043 1.427 . S
C1036 H1027 0.930 . S
C1036 C1034 1.378 . S
C1036 C1037 1.367 . S
C1037 C1036 1.367 . S
C1037 C1039 1.433 . S
C1038 C1034 1.350 . S
C1038 C1035 1.463 . S
C1038 N1042 1.427 . S
C1039 H1029 0.929 . S
C1039 C1037 1.433 . S
C1039 N1042 1.384 . S
C1040 H1031 0.929 . S
C1040 C1032 1.378 . S
C1040 C1035 1.350 . S
C1041 H1028 0.929 . S
C1041 C1033 1.433 . S
C1041 N1043 1.384 . S
N1042 C1038 1.427 . S
N1042 C1039 1.384 . S
N1043 C1035 1.427 . S
N1043 C1041 1.384 . S
H1044 C1050 0.930 . S
H1045 C1054 0.930 . S
H1046 C1059 0.929 . S
H1047 C1057 0.929 . S
H1048 C1052 0.929 . S
H1049 C1058 0.929 . S
C1050 H1044 0.930 . S
C1050 C1051 1.367 . S
C1050 C1058 1.378 . S
C1051 C1050 1.367 . S
C1051 C1059 1.433 . S
C1052 H1048 0.929 . S
C1052 C1054 1.378 . S
C1052 C1056 1.350 . S
C1053 C1056 1.463 . S
C1053 C1058 1.350 . S
C1053 N1061 1.427 . S
C1054 H1045 0.930 . S
C1054 C1052 1.378 . S
C1054 C1055 1.367 . S
C1055 C1054 1.367 . S
C1055 C1057 1.433 . S
C1056 C1052 1.350 . S
C1056 C1053 1.463 . S
C1056 N1060 1.427 . S
C1057 H1047 0.929 . S
C1057 C1055 1.433 . S
C1057 N1060 1.384 . S
C1058 H1049 0.929 . S
C1058 C1050 1.378 . S
C1058 C1053 1.350 . S
C1059 H1046 0.929 . S
C1059 C1051 1.433 . S
C1059 N1061 1.384 . S
N1060 C1056 1.427 . S
N1060 C1057 1.384 . S
N1061 C1053 1.427 . S
N1061 C1059 1.384 . S
H1062 C1068 0.930 . S
H1063 C1072 0.930 . S
H1064 C1077 0.929 . S
H1065 C1075 0.929 . S
H1066 C1070 0.929 . S
H1067 C1076 0.929 . S
C1068 H1062 0.930 . S
C1068 C1069 1.367 . S
C1068 C1076 1.378 . S
C1069 C1068 1.367 . S
C1069 C1077 1.433 . S
C1070 H1066 0.929 . S
C1070 C1072 1.378 . S
C1070 C1074 1.350 . S
C1071 C1074 1.463 . S
C1071 C1076 1.350 . S
C1071 N1079 1.427 . S
C1072 H1063 0.930 . S
C1072 C1070 1.378 . S
C1072 C1073 1.367 . S
C1073 C1072 1.367 . S
C1073 C1075 1.433 . S
C1074 C1070 1.350 . S
C1074 C1071 1.463 . S
C1074 N1078 1.427 . S
C1075 H1065 0.929 . S
C1075 C1073 1.433 . S
C1075 N1078 1.384 . S
C1076 H1067 0.929 . S
C1076 C1068 1.378 . S
C1076 C1071 1.350 . S
C1077 H1064 0.929 . S
C1077 C1069 1.433 . S
C1077 N1079 1.384 . S
N1078 C1074 1.427 . S
N1078 C1075 1.384 . S
N1079 C1071 1.427 . S
N1079 C1077 1.384 . S
H1080 C1086 0.930 . S
H1081 C1090 0.930 . S
H1082 C1095 0.929 . S
H1083 C1093 0.929 . S
H1084 C1088 0.929 . S
H1085 C1094 0.929 . S
C1086 H1080 0.930 . S
C1086 C1087 1.367 . S
C1086 C1094 1.378 . S
C1087 C1086 1.367 . S
C1087 C1095 1.433 . S
C1088 H1084 0.929 . S
C1088 C1090 1.378 . S
C1088 C1092 1.350 . S
C1089 C1092 1.463 . S
C1089 C1094 1.350 . S
C1089 N1097 1.427 . S
C1090 H1081 0.930 . S
C1090 C1088 1.378 . S
C1090 C1091 1.367 . S
C1091 C1090 1.367 . S
C1091 C1093 1.433 . S
C1092 C1088 1.350 . S
C1092 C1089 1.463 . S
C1092 N1096 1.427 . S
C1093 H1083 0.929 . S
C1093 C1091 1.433 . S
C1093 N1096 1.384 . S
C1094 H1085 0.929 . S
C1094 C1086 1.378 . S
C1094 C1089 1.350 . S
C1095 H1082 0.929 . S
C1095 C1087 1.433 . S
C1095 N1097 1.384 . S
N1096 C1092 1.427 . S
N1096 C1093 1.384 . S
N1097 C1089 1.427 . S
N1097 C1095 1.384 . S
H1098 C1104 0.930 . S
H1099 C1108 0.930 . S
H1100 C1113 0.929 . S
H1101 C1111 0.929 . S
H1102 C1106 0.929 . S
H1103 C1112 0.929 . S
C1104 H1098 0.930 . S
C1104 C1105 1.367 . S
C1104 C1112 1.378 . S
C1105 C1104 1.367 . S
C1105 C1113 1.433 . S
C1106 H1102 0.929 . S
C1106 C1108 1.378 . S
C1106 C1110 1.350 . S
C1107 C1110 1.463 . S
C1107 C1112 1.350 . S
C1107 N1115 1.427 . S
C1108 H1099 0.930 . S
C1108 C1106 1.378 . S
C1108 C1109 1.367 . S
C1109 C1108 1.367 . S
C1109 C1111 1.433 . S
C1110 C1106 1.350 . S
C1110 C1107 1.463 . S
C1110 N1114 1.427 . S
C1111 H1101 0.929 . S
C1111 C1109 1.433 . S
C1111 N1114 1.384 . S
C1112 H1103 0.929 . S
C1112 C1104 1.378 . S
C1112 C1107 1.350 . S
C1113 H1100 0.929 . S
C1113 C1105 1.433 . S
C1113 N1115 1.384 . S
N1114 C1110 1.427 . S
N1114 C1111 1.384 . S
N1115 C1107 1.427 . S
N1115 C1113 1.384 . S
H1116 C1122 0.930 . S
H1117 C1126 0.930 . S
H1118 C1131 0.929 . S
H1119 C1129 0.929 . S
H1120 C1124 0.929 . S
H1121 C1130 0.929 . S
C1122 H1116 0.930 . S
C1122 C1123 1.367 . S
C1122 C1130 1.378 . S
C1123 C1122 1.367 . S
C1123 C1131 1.433 . S
C1124 H1120 0.929 . S
C1124 C1126 1.378 . S
C1124 C1128 1.350 . S
C1125 C1128 1.463 . S
C1125 C1130 1.350 . S
C1125 N1133 1.427 . S
C1126 H1117 0.930 . S
C1126 C1124 1.378 . S
C1126 C1127 1.367 . S
C1127 C1126 1.367 . S
C1127 C1129 1.433 . S
C1128 C1124 1.350 . S
C1128 C1125 1.463 . S
C1128 N1132 1.427 . S
C1129 H1119 0.929 . S
C1129 C1127 1.433 . S
C1129 N1132 1.384 . S
C1130 H1121 0.929 . S
C1130 C1122 1.378 . S
C1130 C1125 1.350 . S
C1131 H1118 0.929 . S
C1131 C1123 1.433 . S
C1131 N1133 1.384 . S
N1132 C1128 1.427 . S
N1132 C1129 1.384 . S
N1133 C1125 1.427 . S
N1133 C1131 1.384 . S
H1134 C1140 0.930 . S
H1135 C1144 0.930 . S
H1136 C1149 0.929 . S
H1137 C1147 0.929 . S
H1138 C1142 0.929 . S
H1139 C1148 0.929 . S
C1140 H1134 0.930 . S
C1140 C1141 1.367 . S
C1140 C1148 1.378 . S
C1141 C1140 1.367 . S
C1141 C1149 1.433 . S
C1142 H1138 0.929 . S
C1142 C1144 1.378 . S
C1142 C1146 1.350 . S
C1143 C1146 1.463 . S
C1143 C1148 1.350 . S
C1143 N1151 1.427 . S
C1144 H1135 0.930 . S
C1144 C1142 1.378 . S
C1144 C1145 1.367 . S
C1145 C1144 1.367 . S
C1145 C1147 1.433 . S
C1146 C1142 1.350 . S
C1146 C1143 1.463 . S
C1146 N1150 1.427 . S
C1147 H1137 0.929 . S
C1147 C1145 1.433 . S
C1147 N1150 1.384 . S
C1148 H1139 0.929 . S
C1148 C1140 1.378 . S
C1148 C1143 1.350 . S
C1149 H1136 0.929 . S
C1149 C1141 1.433 . S
C1149 N1151 1.384 . S
N1150 C1146 1.427 . S
N1150 C1147 1.384 . S
N1151 C1143 1.427 . S
N1151 C1149 1.384 . S
H1152 C1158 0.930 . S
H1153 C1162 0.930 . S
H1154 C1167 0.929 . S
H1155 C1165 0.929 . S
H1156 C1160 0.929 . S
H1157 C1166 0.929 . S
C1158 H1152 0.930 . S
C1158 C1159 1.367 . S
C1158 C1166 1.378 . S
C1159 C1158 1.367 . S
C1159 C1167 1.433 . S
C1160 H1156 0.929 . S
C1160 C1162 1.378 . S
C1160 C1164 1.350 . S
C1161 C1164 1.463 . S
C1161 C1166 1.350 . S
C1161 N1169 1.427 . S
C1162 H1153 0.930 . S
C1162 C1160 1.378 . S
C1162 C1163 1.367 . S
C1163 C1162 1.367 . S
C1163 C1165 1.433 . S
C1164 C1160 1.350 . S
C1164 C1161 1.463 . S
C1164 N1168 1.427 . S
C1165 H1155 0.929 . S
C1165 C1163 1.433 . S
C1165 N1168 1.384 . S
C1166 H1157 0.929 . S
C1166 C1158 1.378 . S
C1166 C1161 1.350 . S
C1167 H1154 0.929 . S
C1167 C1159 1.433 . S
C1167 N1169 1.384 . S
N1168 C1164 1.427 . S
N1168 C1165 1.384 . S
N1169 C1161 1.427 . S
N1169 C1167 1.384 . S
H1170 C1176 0.930 . S
H1171 C1180 0.930 . S
H1172 C1185 0.929 . S
H1173 C1183 0.929 . S
H1174 C1178 0.929 . S
H1175 C1184 0.929 . S
C1176 H1170 0.930 . S
C1176 C1177 1.367 . S
C1176 C1184 1.378 . S
C1177 C1176 1.367 . S
C1177 C1185 1.433 . S
C1178 H1174 0.929 . S
C1178 C1180 1.378 . S
C1178 C1182 1.350 . S
C1179 C1182 1.463 . S
C1179 C1184 1.350 . S
C1179 N1187 1.427 . S
C1180 H1171 0.930 . S
C1180 C1178 1.378 . S
C1180 C1181 1.367 . S
C1181 C1180 1.367 . S
C1181 C1183 1.433 . S
C1182 C1178 1.350 . S
C1182 C1179 1.463 . S
C1182 N1186 1.427 . S
C1183 H1173 0.929 . S
C1183 C1181 1.433 . S
C1183 N1186 1.384 . S
C1184 H1175 0.929 . S
C1184 C1176 1.378 . S
C1184 C1179 1.350 . S
C1185 H1172 0.929 . S
C1185 C1177 1.433 . S
C1185 N1187 1.384 . S
N1186 C1182 1.427 . S
N1186 C1183 1.384 . S
N1187 C1179 1.427 . S
N1187 C1185 1.384 . S
H1188 C1194 0.930 . S
H1189 C1198 0.930 . S
H1190 C1203 0.929 . S
H1191 C1201 0.929 . S
H1192 C1196 0.929 . S
H1193 C1202 0.929 . S
C1194 H1188 0.930 . S
C1194 C1195 1.367 . S
C1194 C1202 1.378 . S
C1195 C1194 1.367 . S
C1195 C1203 1.433 . S
C1196 H1192 0.929 . S
C1196 C1198 1.378 . S
C1196 C1200 1.350 . S
C1197 C1200 1.463 . S
C1197 C1202 1.350 . S
C1197 N1205 1.427 . S
C1198 H1189 0.930 . S
C1198 C1196 1.378 . S
C1198 C1199 1.367 . S
C1199 C1198 1.367 . S
C1199 C1201 1.433 . S
C1200 C1196 1.350 . S
C1200 C1197 1.463 . S
C1200 N1204 1.427 . S
C1201 H1191 0.929 . S
C1201 C1199 1.433 . S
C1201 N1204 1.384 . S
C1202 H1193 0.929 . S
C1202 C1194 1.378 . S
C1202 C1197 1.350 . S
C1203 H1190 0.929 . S
C1203 C1195 1.433 . S
C1203 N1205 1.384 . S
N1204 C1200 1.427 . S
N1204 C1201 1.384 . S
N1205 C1197 1.427 . S
N1205 C1203 1.384 . S
H1206 C1212 0.930 . S
H1207 C1216 0.930 . S
H1208 C1221 0.929 . S
H1209 C1219 0.929 . S
H1210 C1214 0.929 . S
H1211 C1220 0.929 . S
C1212 H1206 0.930 . S
C1212 C1213 1.367 . S
C1212 C1220 1.378 . S
C1213 C1212 1.367 . S
C1213 C1221 1.433 . S
C1214 H1210 0.929 . S
C1214 C1216 1.378 . S
C1214 C1218 1.350 . S
C1215 C1218 1.463 . S
C1215 C1220 1.350 . S
C1215 N1223 1.427 . S
C1216 H1207 0.930 . S
C1216 C1214 1.378 . S
C1216 C1217 1.367 . S
C1217 C1216 1.367 . S
C1217 C1219 1.433 . S
C1218 C1214 1.350 . S
C1218 C1215 1.463 . S
C1218 N1222 1.427 . S
C1219 H1209 0.929 . S
C1219 C1217 1.433 . S
C1219 N1222 1.384 . S
C1220 H1211 0.929 . S
C1220 C1212 1.378 . S
C1220 C1215 1.350 . S
C1221 H1208 0.929 . S
C1221 C1213 1.433 . S
C1221 N1223 1.384 . S
N1222 C1218 1.427 . S
N1222 C1219 1.384 . S
N1223 C1215 1.427 . S
N1223 C1221 1.384 . S
H1224 C1230 0.930 . S
H1225 C1234 0.930 . S
H1226 C1239 0.929 . S
H1227 C1237 0.929 . S
H1228 C1232 0.929 . S
H1229 C1238 0.929 . S
C1230 H1224 0.930 . S
C1230 C1231 1.367 . S
C1230 C1238 1.378 . S
C1231 C1230 1.367 . S
C1231 C1239 1.433 . S
C1232 H1228 0.929 . S
C1232 C1234 1.378 . S
C1232 C1236 1.350 . S
C1233 C1236 1.463 . S
C1233 C1238 1.350 . S
C1233 N1241 1.427 . S
C1234 H1225 0.930 . S
C1234 C1232 1.378 . S
C1234 C1235 1.367 . S
C1235 C1234 1.367 . S
C1235 C1237 1.433 . S
C1236 C1232 1.350 . S
C1236 C1233 1.463 . S
C1236 N1240 1.427 . S
C1237 H1227 0.929 . S
C1237 C1235 1.433 . S
C1237 N1240 1.384 . S
C1238 H1229 0.929 . S
C1238 C1230 1.378 . S
C1238 C1233 1.350 . S
C1239 H1226 0.929 . S
C1239 C1231 1.433 . S
C1239 N1241 1.384 . S
N1240 C1236 1.427 . S
N1240 C1237 1.384 . S
N1241 C1233 1.427 . S
N1241 C1239 1.384 . S
H1242 C1248 0.930 . S
H1243 C1252 0.930 . S
H1244 C1257 0.929 . S
H1245 C1255 0.929 . S
H1246 C1250 0.929 . S
H1247 C1256 0.929 . S
C1248 H1242 0.930 . S
C1248 C1249 1.367 . S
C1248 C1256 1.378 . S
C1249 C1248 1.367 . S
C1249 C1257 1.433 . S
C1250 H1246 0.929 . S
C1250 C1252 1.378 . S
C1250 C1254 1.350 . S
C1251 C1254 1.463 . S
C1251 C1256 1.350 . S
C1251 N1259 1.427 . S
C1252 H1243 0.930 . S
C1252 C1250 1.378 . S
C1252 C1253 1.367 . S
C1253 C1252 1.367 . S
C1253 C1255 1.433 . S
C1254 C1250 1.350 . S
C1254 C1251 1.463 . S
C1254 N1258 1.427 . S
C1255 H1245 0.929 . S
C1255 C1253 1.433 . S
C1255 N1258 1.384 . S
C1256 H1247 0.929 . S
C1256 C1248 1.378 . S
C1256 C1251 1.350 . S
C1257 H1244 0.929 . S
C1257 C1249 1.433 . S
C1257 N1259 1.384 . S
N1258 C1254 1.427 . S
N1258 C1255 1.384 . S
N1259 C1251 1.427 . S
N1259 C1257 1.384 . S
H1260 C1266 0.930 . S
H1261 C1270 0.930 . S
H1262 C1275 0.929 . S
H1263 C1273 0.929 . S
H1264 C1268 0.929 . S
H1265 C1274 0.929 . S
C1266 H1260 0.930 . S
C1266 C1267 1.367 . S
C1266 C1274 1.378 . S
C1267 C1266 1.367 . S
C1267 C1275 1.433 . S
C1268 H1264 0.929 . S
C1268 C1270 1.378 . S
C1268 C1272 1.350 . S
C1269 C1272 1.463 . S
C1269 C1274 1.350 . S
C1269 N1277 1.427 . S
C1270 H1261 0.930 . S
C1270 C1268 1.378 . S
C1270 C1271 1.367 . S
C1271 C1270 1.367 . S
C1271 C1273 1.433 . S
C1272 C1268 1.350 . S
C1272 C1269 1.463 . S
C1272 N1276 1.427 . S
C1273 H1263 0.929 . S
C1273 C1271 1.433 . S
C1273 N1276 1.384 . S
C1274 H1265 0.929 . S
C1274 C1266 1.378 . S
C1274 C1269 1.350 . S
C1275 H1262 0.929 . S
C1275 C1267 1.433 . S
C1275 N1277 1.384 . S
N1276 C1272 1.427 . S
N1276 C1273 1.384 . S
N1277 C1269 1.427 . S
N1277 C1275 1.384 . S
H1278 C1284 0.930 . S
H1279 C1288 0.930 . S
H1280 C1293 0.929 . S
H1281 C1291 0.929 . S
H1282 C1286 0.929 . S
H1283 C1292 0.929 . S
C1284 H1278 0.930 . S
C1284 C1285 1.367 . S
C1284 C1292 1.378 . S
C1285 C1284 1.367 . S
C1285 C1293 1.433 . S
C1286 H1282 0.929 . S
C1286 C1288 1.378 . S
C1286 C1290 1.350 . S
C1287 C1290 1.463 . S
C1287 C1292 1.350 . S
C1287 N1295 1.427 . S
C1288 H1279 0.930 . S
C1288 C1286 1.378 . S
C1288 C1289 1.367 . S
C1289 C1288 1.367 . S
C1289 C1291 1.433 . S
C1290 C1286 1.350 . S
C1290 C1287 1.463 . S
C1290 N1294 1.427 . S
C1291 H1281 0.929 . S
C1291 C1289 1.433 . S
C1291 N1294 1.384 . S
C1292 H1283 0.929 . S
C1292 C1284 1.378 . S
C1292 C1287 1.350 . S
C1293 H1280 0.929 . S
C1293 C1285 1.433 . S
C1293 N1295 1.384 . S
N1294 C1290 1.427 . S
N1294 C1291 1.384 . S
N1295 C1287 1.427 . S
N1295 C1293 1.384 . S
H1296 C1302 0.930 . S
H1297 C1306 0.930 . S
H1298 C1311 0.929 . S
H1299 C1309 0.929 . S
H1300 C1304 0.929 . S
H1301 C1310 0.929 . S
C1302 H1296 0.930 . S
C1302 C1303 1.367 . S
C1302 C1310 1.378 . S
C1303 C1302 1.367 . S
C1303 C1311 1.433 . S
C1304 H1300 0.929 . S
C1304 C1306 1.378 . S
C1304 C1308 1.350 . S
C1305 C1308 1.463 . S
C1305 C1310 1.350 . S
C1305 N1313 1.427 . S
C1306 H1297 0.930 . S
C1306 C1304 1.378 . S
C1306 C1307 1.367 . S
C1307 C1306 1.367 . S
C1307 C1309 1.433 . S
C1308 C1304 1.350 . S
C1308 C1305 1.463 . S
C1308 N1312 1.427 . S
C1309 H1299 0.929 . S
C1309 C1307 1.433 . S
C1309 N1312 1.384 . S
C1310 H1301 0.929 . S
C1310 C1302 1.378 . S
C1310 C1305 1.350 . S
C1311 H1298 0.929 . S
C1311 C1303 1.433 . S
C1311 N1313 1.384 . S
N1312 C1308 1.427 . S
N1312 C1309 1.384 . S
N1313 C1305 1.427 . S
N1313 C1311 1.384 . S
H1314 C1320 0.930 . S
H1315 C1324 0.930 . S
H1316 C1329 0.929 . S
H1317 C1327 0.929 . S
H1318 C1322 0.929 . S
H1319 C1328 0.929 . S
C1320 H1314 0.930 . S
C1320 C1321 1.367 . S
C1320 C1328 1.378 . S
C1321 C1320 1.367 . S
C1321 C1329 1.433 . S
C1322 H1318 0.929 . S
C1322 C1324 1.378 . S
C1322 C1326 1.350 . S
C1323 C1326 1.463 . S
C1323 C1328 1.350 . S
C1323 N1331 1.427 . S
C1324 H1315 0.930 . S
C1324 C1322 1.378 . S
C1324 C1325 1.367 . S
C1325 C1324 1.367 . S
C1325 C1327 1.433 . S
C1326 C1322 1.350 . S
C1326 C1323 1.463 . S
C1326 N1330 1.427 . S
C1327 H1317 0.929 . S
C1327 C1325 1.433 . S
C1327 N1330 1.384 . S
C1328 H1319 0.929 . S
C1328 C1320 1.378 . S
C1328 C1323 1.350 . S
C1329 H1316 0.929 . S
C1329 C1321 1.433 . S
C1329 N1331 1.384 . S
N1330 C1326 1.427 . S
N1330 C1327 1.384 . S
N1331 C1323 1.427 . S
N1331 C1329 1.384 . S
H1332 C1338 0.930 . S
H1333 C1342 0.930 . S
H1334 C1347 0.929 . S
H1335 C1345 0.929 . S
H1336 C1340 0.929 . S
H1337 C1346 0.929 . S
C1338 H1332 0.930 . S
C1338 C1339 1.367 . S
C1338 C1346 1.378 . S
C1339 C1338 1.367 . S
C1339 C1347 1.433 . S
C1340 H1336 0.929 . S
C1340 C1342 1.378 . S
C1340 C1344 1.350 . S
C1341 C1344 1.463 . S
C1341 C1346 1.350 . S
C1341 N1349 1.427 . S
C1342 H1333 0.930 . S
C1342 C1340 1.378 . S
C1342 C1343 1.367 . S
C1343 C1342 1.367 . S
C1343 C1345 1.433 . S
C1344 C1340 1.350 . S
C1344 C1341 1.463 . S
C1344 N1348 1.427 . S
C1345 H1335 0.929 . S
C1345 C1343 1.433 . S
C1345 N1348 1.384 . S
C1346 H1337 0.929 . S
C1346 C1338 1.378 . S
C1346 C1341 1.350 . S
C1347 H1334 0.929 . S
C1347 C1339 1.433 . S
C1347 N1349 1.384 . S
N1348 C1344 1.427 . S
N1348 C1345 1.384 . S
N1349 C1341 1.427 . S
N1349 C1347 1.384 . S
H1350 C1356 0.930 . S
H1351 C1360 0.930 . S
H1352 C1365 0.929 . S
H1353 C1363 0.929 . S
H1354 C1358 0.929 . S
H1355 C1364 0.929 . S
C1356 H1350 0.930 . S
C1356 C1357 1.367 . S
C1356 C1364 1.378 . S
C1357 C1356 1.367 . S
C1357 C1365 1.433 . S
C1358 H1354 0.929 . S
C1358 C1360 1.378 . S
C1358 C1362 1.350 . S
C1359 C1362 1.463 . S
C1359 C1364 1.350 . S
C1359 N1367 1.427 . S
C1360 H1351 0.930 . S
C1360 C1358 1.378 . S
C1360 C1361 1.367 . S
C1361 C1360 1.367 . S
C1361 C1363 1.433 . S
C1362 C1358 1.350 . S
C1362 C1359 1.463 . S
C1362 N1366 1.427 . S
C1363 H1353 0.929 . S
C1363 C1361 1.433 . S
C1363 N1366 1.384 . S
C1364 H1355 0.929 . S
C1364 C1356 1.378 . S
C1364 C1359 1.350 . S
C1365 H1352 0.929 . S
C1365 C1357 1.433 . S
C1365 N1367 1.384 . S
N1366 C1362 1.427 . S
N1366 C1363 1.384 . S
N1367 C1359 1.427 . S
N1367 C1365 1.384 . S
H1368 C1374 0.930 . S
H1369 C1378 0.930 . S
H1370 C1383 0.929 . S
H1371 C1381 0.929 . S
H1372 C1376 0.929 . S
H1373 C1382 0.929 . S
C1374 H1368 0.930 . S
C1374 C1375 1.367 . S
C1374 C1382 1.378 . S
C1375 C1374 1.367 . S
C1375 C1383 1.433 . S
C1376 H1372 0.929 . S
C1376 C1378 1.378 . S
C1376 C1380 1.350 . S
C1377 C1380 1.463 1_455 S
C1377 C1382 1.350 . S
C1377 N1385 1.427 . S
C1378 H1369 0.930 . S
C1378 C1376 1.378 . S
C1378 C1379 1.367 . S
C1379 C1378 1.367 . S
C1379 C1381 1.433 . S
C1380 C1376 1.350 . S
C1380 C1377 1.463 1_655 S
C1380 N1384 1.427 . S
C1381 H1371 0.929 . S
C1381 C1379 1.433 . S
C1381 N1384 1.384 . S
C1382 H1373 0.929 . S
C1382 C1374 1.378 . S
C1382 C1377 1.350 . S
C1383 H1370 0.929 . S
C1383 C1375 1.433 . S
C1383 N1385 1.384 . S
N1384 C1380 1.427 . S
N1384 C1381 1.384 . S
N1385 C1377 1.427 . S
N1385 C1383 1.384 . S
H1386 C1392 0.930 . S
H1387 C1396 0.930 . S
H1388 C1401 0.929 . S
H1389 C1399 0.929 . S
H1390 C1394 0.929 . S
H1391 C1400 0.929 . S
C1392 H1386 0.930 . S
C1392 C1393 1.367 . S
C1392 C1400 1.378 . S
C1393 C1392 1.367 . S
C1393 C1401 1.433 . S
C1394 H1390 0.929 . S
C1394 C1396 1.378 . S
C1394 C1398 1.350 . S
C1395 C1398 1.463 . S
C1395 C1400 1.350 . S
C1395 N1403 1.427 . S
C1396 H1387 0.930 . S
C1396 C1394 1.378 . S
C1396 C1397 1.367 . S
C1397 C1396 1.367 . S
C1397 C1399 1.433 . S
C1398 C1394 1.350 . S
C1398 C1395 1.463 . S
C1398 N1402 1.427 . S
C1399 H1389 0.929 . S
C1399 C1397 1.433 . S
C1399 N1402 1.384 . S
C1400 H1391 0.929 . S
C1400 C1392 1.378 . S
C1400 C1395 1.350 . S
C1401 H1388 0.929 . S
C1401 C1393 1.433 . S
C1401 N1403 1.384 . S
N1402 C1398 1.427 . S
N1402 C1399 1.384 . S
N1403 C1395 1.427 . S
N1403 C1401 1.384 . S
H1404 C1410 0.930 . S
H1405 C1414 0.930 . S
H1406 C1419 0.929 . S
H1407 C1417 0.929 . S
H1408 C1412 0.929 . S
H1409 C1418 0.929 . S
C1410 H1404 0.930 . S
C1410 C1411 1.367 . S
C1410 C1418 1.378 1_565 S
C1411 C1410 1.367 . S
C1411 C1419 1.433 . S
C1412 H1408 0.929 . S
C1412 C1414 1.378 1_565 S
C1412 C1416 1.350 1_565 S
C1413 C1416 1.463 1_565 S
C1413 C1418 1.350 1_565 S
C1413 N1421 1.427 . S
C1414 H1405 0.930 . S
C1414 C1412 1.378 1_545 S
C1414 C1415 1.367 . S
C1415 C1414 1.367 . S
C1415 C1417 1.433 . S
C1416 C1412 1.350 1_545 S
C1416 C1413 1.463 1_545 S
C1416 N1420 1.427 . S
C1417 H1407 0.929 . S
C1417 C1415 1.433 . S
C1417 N1420 1.384 . S
C1418 H1409 0.929 . S
C1418 C1410 1.378 1_545 S
C1418 C1413 1.350 1_545 S
C1419 H1406 0.929 . S
C1419 C1411 1.433 . S
C1419 N1421 1.384 . S
N1420 C1416 1.427 . S
N1420 C1417 1.384 . S
N1421 C1413 1.427 . S
N1421 C1419 1.384 . S
H1422 C1428 0.930 . S
H1423 C1432 0.930 . S
H1424 C1437 0.929 . S
H1425 C1435 0.929 . S
H1426 C1430 0.929 . S
H1427 C1436 0.929 . S
C1428 H1422 0.930 . S
C1428 C1429 1.367 . S
C1428 C1436 1.378 . S
C1429 C1428 1.367 . S
C1429 C1437 1.433 . S
C1430 H1426 0.929 . S
C1430 C1432 1.378 . S
C1430 C1434 1.350 . S
C1431 C1434 1.463 1_565 S
C1431 C1436 1.350 . S
C1431 N1439 1.427 1_565 S
C1432 H1423 0.930 . S
C1432 C1430 1.378 . S
C1432 C1433 1.367 . S
C1433 C1432 1.367 . S
C1433 C1435 1.433 . S
C1434 C1430 1.350 . S
C1434 C1431 1.463 1_545 S
C1434 N1438 1.427 1_545 S
C1435 H1425 0.929 . S
C1435 C1433 1.433 . S
C1435 N1438 1.384 1_545 S
C1436 H1427 0.929 . S
C1436 C1428 1.378 . S
C1436 C1431 1.350 . S
C1437 H1424 0.929 . S
C1437 C1429 1.433 . S
C1437 N1439 1.384 1_565 S
N1438 C1434 1.427 1_565 S
N1438 C1435 1.384 1_565 S
N1439 C1431 1.427 1_545 S
N1439 C1437 1.384 1_545 S
H1440 C1446 0.930 . S
H1441 C1450 0.930 . S
H1442 C1455 0.929 . S
H1443 C1453 0.929 . S
H1444 C1448 0.980 . S
H1445 C1454 0.979 . S
C1446 H1440 0.930 . S
C1446 C1447 1.367 . S
C1446 C1454 1.338 1_655 S
C1447 C1446 1.367 . S
C1447 C1455 1.433 . S
C1448 H1444 0.980 . S
C1448 C1450 1.338 1_655 S
C1448 C1452 1.345 1_655 S
C1449 C1452 1.463 1_655 S
C1449 C1454 1.345 1_655 S
C1449 N1457 1.427 . S
C1450 H1441 0.930 . S
C1450 C1448 1.338 1_455 S
C1450 C1451 1.367 . S
C1451 C1450 1.367 . S
C1451 C1453 1.433 . S
C1452 C1448 1.345 1_455 S
C1452 C1449 1.463 1_455 S
C1452 N1456 1.427 . S
C1453 H1443 0.929 . S
C1453 C1451 1.433 . S
C1453 N1456 1.384 . S
C1454 H1445 0.979 . S
C1454 C1446 1.338 1_455 S
C1454 C1449 1.345 1_455 S
C1455 H1442 0.929 . S
C1455 C1447 1.433 . S
C1455 N1457 1.384 . S
N1456 C1452 1.427 . S
N1456 C1453 1.384 . S
N1457 C1449 1.427 . S
N1457 C1455 1.384 . S
H1458 C1464 0.930 . S
H1459 C1468 0.930 . S
H1460 C1473 0.929 . S
H1461 C1471 0.929 . S
H1462 C1466 0.929 . S
H1463 C1472 0.929 . S
C1464 H1458 0.930 . S
C1464 C1465 1.367 . S
C1464 C1472 1.378 . S
C1465 C1464 1.367 . S
C1465 C1473 1.433 . S
C1466 H1462 0.929 . S
C1466 C1468 1.378 . S
C1466 C1470 1.350 . S
C1467 C1470 1.463 . S
C1467 C1472 1.350 . S
C1467 N1475 1.427 . S
C1468 H1459 0.930 . S
C1468 C1466 1.378 . S
C1468 C1469 1.367 . S
C1469 C1468 1.367 . S
C1469 C1471 1.433 . S
C1470 C1466 1.350 . S
C1470 C1467 1.463 . S
C1470 N1474 1.427 . S
C1471 H1461 0.929 . S
C1471 C1469 1.433 . S
C1471 N1474 1.384 . S
C1472 H1463 0.929 . S
C1472 C1464 1.378 . S
C1472 C1467 1.350 . S
C1473 H1460 0.929 . S
C1473 C1465 1.433 . S
C1473 N1475 1.384 . S
N1474 C1470 1.427 . S
N1474 C1471 1.384 . S
N1475 C1467 1.427 . S
N1475 C1473 1.384 . S
H1476 C1482 0.930 . S
H1477 C1486 0.930 . S
H1478 C1491 0.929 . S
H1479 C1489 0.929 . S
H1480 C1484 0.929 . S
H1481 C1490 0.929 . S
C1482 H1476 0.930 . S
C1482 C1483 1.367 . S
C1482 C1490 1.378 . S
C1483 C1482 1.367 . S
C1483 C1491 1.433 . S
C1484 H1480 0.929 . S
C1484 C1486 1.378 . S
C1484 C1488 1.350 . S
C1485 C1488 1.463 . S
C1485 C1490 1.350 . S
C1485 N1493 1.427 . S
C1486 H1477 0.930 . S
C1486 C1484 1.378 . S
C1486 C1487 1.367 . S
C1487 C1486 1.367 . S
C1487 C1489 1.433 . S
C1488 C1484 1.350 . S
C1488 C1485 1.463 . S
C1488 N1492 1.427 . S
C1489 H1479 0.929 . S
C1489 C1487 1.433 . S
C1489 N1492 1.384 . S
C1490 H1481 0.929 . S
C1490 C1482 1.378 . S
C1490 C1485 1.350 . S
C1491 H1478 0.929 . S
C1491 C1483 1.433 . S
C1491 N1493 1.384 . S
N1492 C1488 1.427 . S
N1492 C1489 1.384 . S
N1493 C1485 1.427 . S
N1493 C1491 1.384 . S
H1494 C1500 0.930 . S
H1495 C1504 0.930 . S
H1496 C1509 0.929 . S
H1497 C1507 0.929 . S
H1498 C1502 0.929 . S
H1499 C1508 0.929 . S
C1500 H1494 0.930 . S
C1500 C1501 1.367 . S
C1500 C1508 1.378 . S
C1501 C1500 1.367 . S
C1501 C1509 1.433 . S
C1502 H1498 0.929 . S
C1502 C1504 1.378 . S
C1502 C1506 1.350 . S
C1503 C1506 1.463 . S
C1503 C1508 1.350 . S
C1503 N1511 1.427 . S
C1504 H1495 0.930 . S
C1504 C1502 1.378 . S
C1504 C1505 1.367 . S
C1505 C1504 1.367 . S
C1505 C1507 1.433 . S
C1506 C1502 1.350 . S
C1506 C1503 1.463 . S
C1506 N1510 1.427 . S
C1507 H1497 0.929 . S
C1507 C1505 1.433 . S
C1507 N1510 1.384 . S
C1508 H1499 0.929 . S
C1508 C1500 1.378 . S
C1508 C1503 1.350 . S
C1509 H1496 0.929 . S
C1509 C1501 1.433 . S
C1509 N1511 1.384 . S
N1510 C1506 1.427 . S
N1510 C1507 1.384 . S
N1511 C1503 1.427 . S
N1511 C1509 1.384 . S
H1512 C1518 0.930 . S
H1513 C1522 0.930 . S
H1514 C1527 0.929 . S
H1515 C1525 0.929 . S
H1516 C1520 0.929 . S
H1517 C1526 0.929 . S
C1518 H1512 0.930 . S
C1518 C1519 1.367 . S
C1518 C1526 1.378 . S
C1519 C1518 1.367 . S
C1519 C1527 1.433 . S
C1520 H1516 0.929 . S
C1520 C1522 1.378 . S
C1520 C1524 1.350 . S
C1521 C1524 1.463 . S
C1521 C1526 1.350 . S
C1521 N1529 1.427 . S
C1522 H1513 0.930 . S
C1522 C1520 1.378 . S
C1522 C1523 1.367 . S
C1523 C1522 1.367 . S
C1523 C1525 1.433 . S
C1524 C1520 1.350 . S
C1524 C1521 1.463 . S
C1524 N1528 1.427 . S
C1525 H1515 0.929 . S
C1525 C1523 1.433 . S
C1525 N1528 1.384 . S
C1526 H1517 0.929 . S
C1526 C1518 1.378 . S
C1526 C1521 1.350 . S
C1527 H1514 0.929 . S
C1527 C1519 1.433 . S
C1527 N1529 1.384 . S
N1528 C1524 1.427 . S
N1528 C1525 1.384 . S
N1529 C1521 1.427 . S
N1529 C1527 1.384 . S
H1530 C1536 0.930 . S
H1531 C1540 0.930 . S
H1532 C1545 0.929 . S
H1533 C1543 0.929 . S
H1534 C1538 0.929 . S
H1535 C1544 0.929 . S
C1536 H1530 0.930 . S
C1536 C1537 1.367 . S
C1536 C1544 1.378 . S
C1537 C1536 1.367 . S
C1537 C1545 1.433 . S
C1538 H1534 0.929 . S
C1538 C1540 1.378 . S
C1538 C1542 1.350 . S
C1539 C1542 1.463 . S
C1539 C1544 1.350 . S
C1539 N1547 1.427 . S
C1540 H1531 0.930 . S
C1540 C1538 1.378 . S
C1540 C1541 1.367 . S
C1541 C1540 1.367 . S
C1541 C1543 1.433 . S
C1542 C1538 1.350 . S
C1542 C1539 1.463 . S
C1542 N1546 1.427 . S
C1543 H1533 0.929 . S
C1543 C1541 1.433 . S
C1543 N1546 1.384 . S
C1544 H1535 0.929 . S
C1544 C1536 1.378 . S
C1544 C1539 1.350 . S
C1545 H1532 0.929 . S
C1545 C1537 1.433 . S
C1545 N1547 1.384 . S
N1546 C1542 1.427 . S
N1546 C1543 1.384 . S
N1547 C1539 1.427 . S
N1547 C1545 1.384 . S
H1548 C1554 0.930 . S
H1549 C1558 0.930 . S
H1550 C1563 0.929 . S
H1551 C1561 0.929 . S
H1552 C1556 0.929 . S
H1553 C1562 0.929 . S
C1554 H1548 0.930 . S
C1554 C1555 1.367 . S
C1554 C1562 1.378 . S
C1555 C1554 1.367 . S
C1555 C1563 1.433 . S
C1556 H1552 0.929 . S
C1556 C1558 1.378 . S
C1556 C1560 1.350 . S
C1557 C1560 1.463 . S
C1557 C1562 1.350 . S
C1557 N1565 1.427 . S
C1558 H1549 0.930 . S
C1558 C1556 1.378 . S
C1558 C1559 1.367 . S
C1559 C1558 1.367 . S
C1559 C1561 1.433 . S
C1560 C1556 1.350 . S
C1560 C1557 1.463 . S
C1560 N1564 1.427 . S
C1561 H1551 0.929 . S
C1561 C1559 1.433 . S
C1561 N1564 1.384 . S
C1562 H1553 0.929 . S
C1562 C1554 1.378 . S
C1562 C1557 1.350 . S
C1563 H1550 0.929 . S
C1563 C1555 1.433 . S
C1563 N1565 1.384 . S
N1564 C1560 1.427 . S
N1564 C1561 1.384 . S
N1565 C1557 1.427 . S
N1565 C1563 1.384 . S
H1566 C1572 0.930 . S
H1567 C1576 0.930 . S
H1568 C1581 0.929 . S
H1569 C1579 0.929 . S
H1570 C1574 0.929 . S
H1571 C1580 0.929 . S
C1572 H1566 0.930 . S
C1572 C1573 1.367 . S
C1572 C1580 1.378 . S
C1573 C1572 1.367 . S
C1573 C1581 1.433 . S
C1574 H1570 0.929 . S
C1574 C1576 1.378 . S
C1574 C1578 1.350 . S
C1575 C1578 1.463 . S
C1575 C1580 1.350 . S
C1575 N1583 1.427 . S
C1576 H1567 0.930 . S
C1576 C1574 1.378 . S
C1576 C1577 1.367 . S
C1577 C1576 1.367 . S
C1577 C1579 1.433 . S
C1578 C1574 1.350 . S
C1578 C1575 1.463 . S
C1578 N1582 1.427 . S
C1579 H1569 0.929 . S
C1579 C1577 1.433 . S
C1579 N1582 1.384 . S
C1580 H1571 0.929 . S
C1580 C1572 1.378 . S
C1580 C1575 1.350 . S
C1581 H1568 0.929 . S
C1581 C1573 1.433 . S
C1581 N1583 1.384 . S
N1582 C1578 1.427 . S
N1582 C1579 1.384 . S
N1583 C1575 1.427 . S
N1583 C1581 1.384 . S
H1584 C1590 0.930 . S
H1585 C1594 0.930 . S
H1586 C1599 0.929 . S
H1587 C1597 0.929 . S
H1588 C1592 0.929 . S
H1589 C1598 0.929 . S
C1590 H1584 0.930 . S
C1590 C1591 1.367 . S
C1590 C1598 1.378 . S
C1591 C1590 1.367 . S
C1591 C1599 1.433 . S
C1592 H1588 0.929 . S
C1592 C1594 1.378 . S
C1592 C1596 1.350 . S
C1593 C1596 1.463 . S
C1593 C1598 1.350 . S
C1593 N1601 1.427 . S
C1594 H1585 0.930 . S
C1594 C1592 1.378 . S
C1594 C1595 1.367 . S
C1595 C1594 1.367 . S
C1595 C1597 1.433 . S
C1596 C1592 1.350 . S
C1596 C1593 1.463 . S
C1596 N1600 1.427 . S
C1597 H1587 0.929 . S
C1597 C1595 1.433 . S
C1597 N1600 1.384 . S
C1598 H1589 0.929 . S
C1598 C1590 1.378 . S
C1598 C1593 1.350 . S
C1599 H1586 0.929 . S
C1599 C1591 1.433 . S
C1599 N1601 1.384 . S
N1600 C1596 1.427 . S
N1600 C1597 1.384 . S
N1601 C1593 1.427 . S
N1601 C1599 1.384 . S
H1602 C1608 0.930 . S
H1603 C1612 0.930 . S
H1604 C1617 0.929 . S
H1605 C1615 0.929 . S
H1606 C1610 0.929 . S
H1607 C1616 0.929 . S
C1608 H1602 0.930 . S
C1608 C1609 1.367 . S
C1608 C1616 1.378 . S
C1609 C1608 1.367 . S
C1609 C1617 1.433 . S
C1610 H1606 0.929 . S
C1610 C1612 1.378 . S
C1610 C1614 1.350 . S
C1611 C1614 1.463 . S
C1611 C1616 1.350 . S
C1611 N1619 1.427 . S
C1612 H1603 0.930 . S
C1612 C1610 1.378 . S
C1612 C1613 1.367 . S
C1613 C1612 1.367 . S
C1613 C1615 1.433 . S
C1614 C1610 1.350 . S
C1614 C1611 1.463 . S
C1614 N1618 1.427 . S
C1615 H1605 0.929 . S
C1615 C1613 1.433 . S
C1615 N1618 1.384 . S
C1616 H1607 0.929 . S
C1616 C1608 1.378 . S
C1616 C1611 1.350 . S
C1617 H1604 0.929 . S
C1617 C1609 1.433 . S
C1617 N1619 1.384 . S
N1618 C1614 1.427 . S
N1618 C1615 1.384 . S
N1619 C1611 1.427 . S
N1619 C1617 1.384 . S
H1620 C1626 0.930 . S
H1621 C1630 0.930 . S
H1622 C1635 0.929 . S
H1623 C1633 0.929 . S
H1624 C1628 0.929 . S
H1625 C1634 0.929 . S
C1626 H1620 0.930 . S
C1626 C1627 1.367 . S
C1626 C1634 1.378 . S
C1627 C1626 1.367 . S
C1627 C1635 1.433 . S
C1628 H1624 0.929 . S
C1628 C1630 1.378 . S
C1628 C1632 1.350 . S
C1629 C1632 1.463 . S
C1629 C1634 1.350 . S
C1629 N1637 1.427 . S
C1630 H1621 0.930 . S
C1630 C1628 1.378 . S
C1630 C1631 1.367 . S
C1631 C1630 1.367 . S
C1631 C1633 1.433 . S
C1632 C1628 1.350 . S
C1632 C1629 1.463 . S
C1632 N1636 1.427 . S
C1633 H1623 0.929 . S
C1633 C1631 1.433 . S
C1633 N1636 1.384 . S
C1634 H1625 0.929 . S
C1634 C1626 1.378 . S
C1634 C1629 1.350 . S
C1635 H1622 0.929 . S
C1635 C1627 1.433 . S
C1635 N1637 1.384 . S
N1636 C1632 1.427 . S
N1636 C1633 1.384 . S
N1637 C1629 1.427 . S
N1637 C1635 1.384 . S
H1638 C1644 0.930 . S
H1639 C1648 0.930 . S
H1640 C1653 0.929 . S
H1641 C1651 0.929 . S
H1642 C1646 0.929 . S
H1643 C1652 0.929 . S
C1644 H1638 0.930 . S
C1644 C1645 1.367 . S
C1644 C1652 1.378 . S
C1645 C1644 1.367 . S
C1645 C1653 1.433 . S
C1646 H1642 0.929 . S
C1646 C1648 1.378 . S
C1646 C1650 1.350 . S
C1647 C1650 1.463 . S
C1647 C1652 1.350 . S
C1647 N1655 1.427 . S
C1648 H1639 0.930 . S
C1648 C1646 1.378 . S
C1648 C1649 1.367 . S
C1649 C1648 1.367 . S
C1649 C1651 1.433 . S
C1650 C1646 1.350 . S
C1650 C1647 1.463 . S
C1650 N1654 1.427 . S
C1651 H1641 0.929 . S
C1651 C1649 1.433 . S
C1651 N1654 1.384 . S
C1652 H1643 0.929 . S
C1652 C1644 1.378 . S
C1652 C1647 1.350 . S
C1653 H1640 0.929 . S
C1653 C1645 1.433 . S
C1653 N1655 1.384 . S
N1654 C1650 1.427 . S
N1654 C1651 1.384 . S
N1655 C1647 1.427 . S
N1655 C1653 1.384 . S
H1656 C1662 0.930 . S
H1657 C1666 0.930 . S
H1658 C1671 0.929 . S
H1659 C1669 0.929 . S
H1660 C1664 0.929 . S
H1661 C1670 0.929 . S
C1662 H1656 0.930 . S
C1662 C1663 1.367 . S
C1662 C1670 1.378 . S
C1663 C1662 1.367 . S
C1663 C1671 1.433 . S
C1664 H1660 0.929 . S
C1664 C1666 1.378 . S
C1664 C1668 1.350 . S
C1665 C1668 1.463 . S
C1665 C1670 1.350 . S
C1665 N1673 1.427 . S
C1666 H1657 0.930 . S
C1666 C1664 1.378 . S
C1666 C1667 1.367 . S
C1667 C1666 1.367 . S
C1667 C1669 1.433 . S
C1668 C1664 1.350 . S
C1668 C1665 1.463 . S
C1668 N1672 1.427 . S
C1669 H1659 0.929 . S
C1669 C1667 1.433 . S
C1669 N1672 1.384 . S
C1670 H1661 0.929 . S
C1670 C1662 1.378 . S
C1670 C1665 1.350 . S
C1671 H1658 0.929 . S
C1671 C1663 1.433 . S
C1671 N1673 1.384 . S
N1672 C1668 1.427 . S
N1672 C1669 1.384 . S
N1673 C1665 1.427 . S
N1673 C1671 1.384 . S
H1674 C1680 0.930 . S
H1675 C1684 0.930 . S
H1676 C1689 0.929 . S
H1677 C1687 0.929 . S
H1678 C1682 0.929 . S
H1679 C1688 0.929 . S
C1680 H1674 0.930 . S
C1680 C1681 1.367 . S
C1680 C1688 1.378 . S
C1681 C1680 1.367 . S
C1681 C1689 1.433 . S
C1682 H1678 0.929 . S
C1682 C1684 1.378 . S
C1682 C1686 1.350 . S
C1683 C1686 1.463 . S
C1683 C1688 1.350 . S
C1683 N1691 1.427 . S
C1684 H1675 0.930 . S
C1684 C1682 1.378 . S
C1684 C1685 1.367 . S
C1685 C1684 1.367 . S
C1685 C1687 1.433 . S
C1686 C1682 1.350 . S
C1686 C1683 1.463 . S
C1686 N1690 1.427 . S
C1687 H1677 0.929 . S
C1687 C1685 1.433 . S
C1687 N1690 1.384 . S
C1688 H1679 0.929 . S
C1688 C1680 1.378 . S
C1688 C1683 1.350 . S
C1689 H1676 0.929 . S
C1689 C1681 1.433 . S
C1689 N1691 1.384 . S
N1690 C1686 1.427 . S
N1690 C1687 1.384 . S
N1691 C1683 1.427 . S
N1691 C1689 1.384 . S
H1692 C1698 0.930 . S
H1693 C1702 0.930 . S
H1694 C1707 0.929 . S
H1695 C1705 0.929 . S
H1696 C1700 0.929 . S
H1697 C1706 0.929 . S
C1698 H1692 0.930 . S
C1698 C1699 1.367 . S
C1698 C1706 1.378 . S
C1699 C1698 1.367 . S
C1699 C1707 1.433 . S
C1700 H1696 0.929 . S
C1700 C1702 1.378 . S
C1700 C1704 1.350 . S
C1701 C1704 1.463 1_456 S
C1701 C1706 1.350 . S
C1701 N1709 1.427 . S
C1702 H1693 0.930 . S
C1702 C1700 1.378 . S
C1702 C1703 1.367 . S
C1703 C1702 1.367 . S
C1703 C1705 1.433 . S
C1704 C1700 1.350 . S
C1704 C1701 1.463 1_654 S
C1704 N1708 1.427 . S
C1705 H1695 0.929 . S
C1705 C1703 1.433 . S
C1705 N1708 1.384 . S
C1706 H1697 0.929 . S
C1706 C1698 1.378 . S
C1706 C1701 1.350 . S
C1707 H1694 0.929 . S
C1707 C1699 1.433 . S
C1707 N1709 1.384 . S
N1708 C1704 1.427 . S
N1708 C1705 1.384 . S
N1709 C1701 1.427 . S
N1709 C1707 1.384 . S
H1710 C1716 0.930 . S
H1711 C1720 0.930 . S
H1712 C1725 0.929 . S
H1713 C1723 0.929 . S
H1714 C1718 0.929 . S
H1715 C1724 0.929 . S
C1716 H1710 0.930 . S
C1716 C1717 1.367 . S
C1716 C1724 1.378 . S
C1717 C1716 1.367 . S
C1717 C1725 1.433 . S
C1718 H1714 0.929 . S
C1718 C1720 1.378 . S
C1718 C1722 1.350 . S
C1719 C1722 1.463 1_554 S
C1719 C1724 1.350 . S
C1719 N1727 1.427 . S
C1720 H1711 0.930 . S
C1720 C1718 1.378 . S
C1720 C1721 1.367 . S
C1721 C1720 1.367 . S
C1721 C1723 1.433 . S
C1722 C1718 1.350 . S
C1722 C1719 1.463 1_556 S
C1722 N1726 1.427 . S
C1723 H1713 0.929 . S
C1723 C1721 1.433 . S
C1723 N1726 1.384 . S
C1724 H1715 0.929 . S
C1724 C1716 1.378 . S
C1724 C1719 1.350 . S
C1725 H1712 0.929 . S
C1725 C1717 1.433 . S
C1725 N1727 1.384 . S
N1726 C1722 1.427 . S
N1726 C1723 1.384 . S
N1727 C1719 1.427 . S
N1727 C1725 1.384 . S
H1728 C1734 0.930 . S
H1729 C1738 0.930 . S
H1730 C1743 0.929 . S
H1731 C1741 0.929 . S
H1732 C1736 0.929 1_554 S
H1733 C1742 0.929 1_556 S
C1734 H1728 0.930 . S
C1734 C1735 1.367 . S
C1734 C1742 1.378 . S
C1735 C1734 1.367 . S
C1735 C1743 1.433 . S
C1736 H1732 0.929 1_556 S
C1736 C1738 1.378 . S
C1736 C1740 1.350 . S
C1737 C1740 1.463 1_544 S
C1737 C1742 1.350 . S
C1737 N1745 1.381 1_545 S
C1738 H1729 0.930 . S
C1738 C1736 1.378 . S
C1738 C1739 1.367 . S
C1739 C1738 1.367 . S
C1739 C1741 1.433 . S
C1740 C1736 1.350 . S
C1740 C1737 1.463 1_566 S
C1740 N1744 1.381 1_565 S
C1741 H1731 0.929 . S
C1741 C1739 1.433 . S
C1741 N1744 1.347 1_565 S
C1742 H1733 0.929 1_554 S
C1742 C1734 1.378 . S
C1742 C1737 1.350 . S
C1743 H1730 0.929 . S
C1743 C1735 1.433 . S
C1743 N1745 1.348 1_545 S
N1744 C1740 1.381 1_545 S
N1744 C1741 1.347 1_545 S
N1745 C1737 1.381 1_565 S
N1745 C1743 1.348 1_565 S
H1746 C1752 0.930 . S
H1747 C1756 0.930 . S
H1748 C1761 0.929 . S
H1749 C1759 0.929 . S
H1750 C1754 0.929 . S
H1751 C1760 0.929 . S
C1752 H1746 0.930 . S
C1752 C1753 1.367 . S
C1752 C1760 1.378 1_565 S
C1753 C1752 1.367 . S
C1753 C1761 1.433 . S
C1754 H1750 0.929 . S
C1754 C1756 1.378 1_565 S
C1754 C1758 1.350 1_565 S
C1755 C1758 1.463 1_566 S
C1755 C1760 1.350 1_565 S
C1755 N1763 1.427 . S
C1756 H1747 0.930 . S
C1756 C1754 1.378 1_545 S
C1756 C1757 1.367 . S
C1757 C1756 1.367 . S
C1757 C1759 1.433 . S
C1758 C1754 1.350 1_545 S
C1758 C1755 1.463 1_544 S
C1758 N1762 1.427 . S
C1759 H1749 0.929 . S
C1759 C1757 1.433 . S
C1759 N1762 1.384 . S
C1760 H1751 0.929 . S
C1760 C1752 1.378 1_545 S
C1760 C1755 1.350 1_545 S
C1761 H1748 0.929 . S
C1761 C1753 1.433 . S
C1761 N1763 1.384 . S
N1762 C1758 1.427 . S
N1762 C1759 1.384 . S
N1763 C1755 1.427 . S
N1763 C1761 1.384 . S
H1764 C1770 0.937 . S
H1765 C1774 0.937 . S
H1766 C1779 0.929 . S
H1767 C1777 0.929 . S
H1768 C1772 0.929 . S
H1769 C1778 0.929 . S
C1770 H1764 0.937 . S
C1770 C1771 1.367 . S
C1770 C1778 1.378 1_455 S
C1771 C1770 1.367 . S
C1771 C1779 1.433 . S
C1772 H1768 0.929 . S
C1772 C1774 1.378 1_455 S
C1772 C1776 1.350 1_455 S
C1773 C1776 1.463 1_456 S
C1773 C1778 1.350 1_455 S
C1773 N1781 1.427 . S
C1774 H1765 0.937 . S
C1774 C1772 1.378 1_655 S
C1774 C1775 1.367 . S
C1775 C1774 1.367 . S
C1775 C1777 1.433 . S
C1776 C1772 1.350 1_655 S
C1776 C1773 1.463 1_654 S
C1776 N1780 1.427 . S
C1777 H1767 0.929 . S
C1777 C1775 1.433 . S
C1777 N1780 1.384 . S
C1778 H1769 0.929 . S
C1778 C1770 1.378 1_655 S
C1778 C1773 1.350 1_655 S
C1779 H1766 0.929 . S
C1779 C1771 1.433 . S
C1779 N1781 1.384 . S
N1780 C1776 1.427 . S
N1780 C1777 1.384 . S
N1781 C1773 1.427 . S
N1781 C1779 1.384 . S
H1782 C1788 0.930 . S
H1783 C1792 0.930 . S
H1784 C1797 0.929 . S
H1785 C1795 0.929 . S
H1786 C1790 0.929 . S
H1787 C1796 0.929 . S
C1788 H1782 0.930 . S
C1788 C1789 1.367 . S
C1788 C1796 1.378 . S
C1789 C1788 1.367 . S
C1789 C1797 1.433 . S
C1790 H1786 0.929 . S
C1790 C1792 1.378 . S
C1790 C1794 1.350 . S
C1791 C1794 1.463 1_554 S
C1791 C1796 1.350 . S
C1791 N1799 1.427 . S
C1792 H1783 0.930 . S
C1792 C1790 1.378 . S
C1792 C1793 1.367 . S
C1793 C1792 1.367 . S
C1793 C1795 1.433 . S
C1794 C1790 1.350 . S
C1794 C1791 1.463 1_556 S
C1794 N1798 1.427 . S
C1795 H1785 0.929 . S
C1795 C1793 1.433 . S
C1795 N1798 1.384 . S
C1796 H1787 0.929 . S
C1796 C1788 1.378 . S
C1796 C1791 1.350 . S
C1797 H1784 0.929 . S
C1797 C1789 1.433 . S
C1797 N1799 1.384 . S
N1798 C1794 1.427 . S
N1798 C1795 1.384 . S
N1799 C1791 1.427 . S
N1799 C1797 1.384 . S
C511 C13 1.185 . S
C515 C167 1.188 . S
C529 C27 1.187 . S
C533 C139 1.187 . S
C547 C153 1.177 . S
C551 C41 1.196 . S
C565 C55 1.189 . S
C569 C111 1.184 . S
C583 C125 1.193 . S
C587 C69 1.180 . S
C601 C83 1.194 . S
C605 C97 1.180 . S
C619 C335 1.194 . S
C623 C181 1.179 . S
C637 C195 1.190 . S
C641 C307 1.184 . S
C655 C209 1.195 . S
C659 C321 1.178 . S
C673 C279 1.195 . S
C677 C223 1.179 . S
C691 C237 1.195 . S
C695 C293 1.178 . S
C709 C265 1.191 . S
C713 C251 1.182 . S
C727 C349 1.184 . S
C731 C503 1.190 . S
C745 C475 1.178 . S
C749 C363 1.195 . S
C763 C489 1.177 . S
C767 C377 1.196 . S
C781 C447 1.180 . S
C785 C391 1.194 . S
C799 C461 1.178 . S
C803 C405 1.195 . S
C817 C433 1.193 . S
C821 C419 1.181 . S
C835 C7 1.064 . S
C839 C63 1.064 . S
C853 C77 1.067 . S
C857 C21 1.070 . S
C871 C35 1.069 . S
C875 C49 1.067 . S
C889 C91 1.064 . S
C893 C147 1.065 . S
C907 C105 1.065 . S
C911 C161 1.065 . S
C925 C119 1.073 . S
C929 C133 1.072 . S
C943 C231 1.068 . S
C947 C175 1.066 . S
C961 C245 1.065 . S
C965 C189 1.065 . S
C979 C203 1.067 . S
C983 C217 1.065 . S
C997 C315 1.064 . S
C1001 C259 1.066 . S
C1015 C329 1.066 . S
C1019 C273 1.068 . S
C1033 C287 1.065 . S
C1037 C301 1.064 . S
C1051 C399 1.073 . S
C1055 C343 1.071 . S
C1069 C357 1.066 . S
C1073 C413 1.069 . S
C1087 C371 1.065 . S
C1091 C385 1.064 . S
C1105 C483 1.071 . S
C1109 C427 1.073 . S
C1123 C441 1.066 . S
C1127 C497 1.065 . S
C1141 C469 1.071 . S
C1145 C455 1.073 . S
C1159 C414 1.420 . S
C1163 C8 1.408 . S
C1177 C22 1.420 . S
C1181 C386 1.417 . S
C1195 C36 1.419 . S
C1199 C400 1.418 . S
C1213 C50 1.410 . S
C1217 C190 1.422 . S
C1231 C204 1.422 . S
C1235 C64 1.409 . S
C1249 C176 1.414 . S
C1253 C78 1.409 . S
C1267 C92 1.422 . S
C1271 C330 1.412 . S
C1285 C106 1.407 . S
C1289 C302 1.417 . S
C1303 C120 1.414 . S
C1307 C316 1.421 . S
C1321 C442 1.420 . S
C1325 C134 1.407 . S
C1339 C456 1.410 . S
C1343 C148 1.411 . S
C1357 C162 1.420 . S
C1361 C428 1.408 . S
C1375 C358 1.407 . S
C1379 C218 1.417 . S
C1393 C232 1.409 . S
C1397 C372 1.412 . S
C1411 C344 1.418 . S
C1415 C246 1.418 . S
C1429 C498 1.411 . S
C1433 C260 1.410 . S
C1447 C274 1.421 . S
C1451 C470 1.415 . S
C1465 C288 1.416 . S
C1469 C484 1.420 . S
C1483 C11 1.568 . S
C1487 C417 1.568 . S
C1501 C389 1.568 . S
C1505 C25 1.568 . S
C1519 C39 1.567 . S
C1523 C403 1.568 . S
C1537 C193 1.568 . S
C1541 C53 1.568 . S
C1555 C67 1.568 . S
C1559 C207 1.567 . S
C1573 C81 1.568 . S
C1577 C179 1.568 . S
C1591 C333 1.568 . S
C1595 C95 1.568 . S
C1609 C109 1.568 . S
C1613 C305 1.568 . S
C1627 C123 1.568 . S
C1631 C319 1.567 . S
C1645 C137 1.568 . S
C1649 C445 1.568 . S
C1663 C459 1.568 . S
C1667 C151 1.568 . S
C1681 C165 1.568 . S
C1685 C431 1.568 . S
C1699 C361 1.568 . S
C1703 C221 1.568 . S
C1717 C235 1.568 . S
C1721 C375 1.568 . S
C1735 C249 1.568 . S
C1739 C347 1.568 . S
C1753 C501 1.568 . S
C1757 C263 1.568 . S
C1771 C473 1.568 . S
C1775 C277 1.568 . S
C1789 C291 1.568 . S
C1793 C487 1.568 . S
