# Generated by pormake.
# Topology gme, (4)-cn, num edge types: 1
# Building blocks:
#     Node 0, Type 0, BuildingBlock: CEKHIL_clean_sbu_0, # of connection points: 4
#     Node 1, Type 0, BuildingBlock: CEKHIL_clean_sbu_0, # of connection points: 4
#     Node 2, Type 0, BuildingBlock: CEKHIL_clean_sbu_0, # of connection points: 4
#     Node 3, Type 0, BuildingBlock: CEKHIL_clean_sbu_0, # of connection points: 4
#     Node 4, Type 0, BuildingBlock: CEKHIL_clean_sbu_0, # of connection points: 4
#     Node 5, Type 0, BuildingBlock: CEKHIL_clean_sbu_0, # of connection points: 4
#     Node 6, Type 0, BuildingBlock: CEKHIL_clean_sbu_0, # of connection points: 4
#     Node 7, Type 0, BuildingBlock: CEKHIL_clean_sbu_0, # of connection points: 4
#     Node 8, Type 0, BuildingBlock: CEKHIL_clean_sbu_0, # of connection points: 4
#     Node 9, Type 0, BuildingBlock: CEKHIL_clean_sbu_0, # of connection points: 4
#     Node 10, Type 0, BuildingBlock: CEKHIL_clean_sbu_0, # of connection points: 4
#     Node 11, Type 0, BuildingBlock: CEKHIL_clean_sbu_0, # of connection points: 4
#     Node 12, Type 0, BuildingBlock: CEKHIL_clean_sbu_0, # of connection points: 4
#     Node 13, Type 0, BuildingBlock: CEKHIL_clean_sbu_0, # of connection points: 4
#     Node 14, Type 0, BuildingBlock: CEKHIL_clean_sbu_0, # of connection points: 4
#     Node 15, Type 0, BuildingBlock: CEKHIL_clean_sbu_0, # of connection points: 4
#     Node 16, Type 0, BuildingBlock: CEKHIL_clean_sbu_0, # of connection points: 4
#     Node 17, Type 0, BuildingBlock: CEKHIL_clean_sbu_0, # of connection points: 4
#     Node 18, Type 0, BuildingBlock: CEKHIL_clean_sbu_0, # of connection points: 4
#     Node 19, Type 0, BuildingBlock: CEKHIL_clean_sbu_0, # of connection points: 4
#     Node 20, Type 0, BuildingBlock: CEKHIL_clean_sbu_0, # of connection points: 4
#     Node 21, Type 0, BuildingBlock: CEKHIL_clean_sbu_0, # of connection points: 4
#     Node 22, Type 0, BuildingBlock: CEKHIL_clean_sbu_0, # of connection points: 4
#     Node 23, Type 0, BuildingBlock: CEKHIL_clean_sbu_0, # of connection points: 4
#     Edge 24, Type (0, 0), BuildingBlock: AJUNOK_clean_linker_0, # of connection points: 2
#     Edge 25, Type (0, 0), BuildingBlock: AJUNOK_clean_linker_0, # of connection points: 2
#     Edge 26, Type (0, 0), BuildingBlock: AJUNOK_clean_linker_0, # of connection points: 2
#     Edge 27, Type (0, 0), BuildingBlock: AJUNOK_clean_linker_0, # of connection points: 2
#     Edge 28, Type (0, 0), BuildingBlock: AJUNOK_clean_linker_0, # of connection points: 2
#     Edge 29, Type (0, 0), BuildingBlock: AJUNOK_clean_linker_0, # of connection points: 2
#     Edge 30, Type (0, 0), BuildingBlock: AJUNOK_clean_linker_0, # of connection points: 2
#     Edge 31, Type (0, 0), BuildingBlock: AJUNOK_clean_linker_0, # of connection points: 2
#     Edge 32, Type (0, 0), BuildingBlock: AJUNOK_clean_linker_0, # of connection points: 2
#     Edge 33, Type (0, 0), BuildingBlock: AJUNOK_clean_linker_0, # of connection points: 2
#     Edge 34, Type (0, 0), BuildingBlock: AJUNOK_clean_linker_0, # of connection points: 2
#     Edge 35, Type (0, 0), BuildingBlock: AJUNOK_clean_linker_0, # of connection points: 2
#     Edge 36, Type (0, 0), BuildingBlock: AJUNOK_clean_linker_0, # of connection points: 2
#     Edge 37, Type (0, 0), BuildingBlock: AJUNOK_clean_linker_0, # of connection points: 2
#     Edge 38, Type (0, 0), BuildingBlock: AJUNOK_clean_linker_0, # of connection points: 2
#     Edge 39, Type (0, 0), BuildingBlock: AJUNOK_clean_linker_0, # of connection points: 2
#     Edge 40, Type (0, 0), BuildingBlock: AJUNOK_clean_linker_0, # of connection points: 2
#     Edge 41, Type (0, 0), BuildingBlock: AJUNOK_clean_linker_0, # of connection points: 2
#     Edge 42, Type (0, 0), BuildingBlock: AJUNOK_clean_linker_0, # of connection points: 2
#     Edge 43, Type (0, 0), BuildingBlock: AJUNOK_clean_linker_0, # of connection points: 2
#     Edge 44, Type (0, 0), BuildingBlock: AJUNOK_clean_linker_0, # of connection points: 2
#     Edge 45, Type (0, 0), BuildingBlock: AJUNOK_clean_linker_0, # of connection points: 2
#     Edge 46, Type (0, 0), BuildingBlock: AJUNOK_clean_linker_0, # of connection points: 2
#     Edge 47, Type (0, 0), BuildingBlock: AJUNOK_clean_linker_0, # of connection points: 2
#     Edge 48, Type (0, 0), BuildingBlock: AJUNOK_clean_linker_0, # of connection points: 2
#     Edge 49, Type (0, 0), BuildingBlock: AJUNOK_clean_linker_0, # of connection points: 2
#     Edge 50, Type (0, 0), BuildingBlock: AJUNOK_clean_linker_0, # of connection points: 2
#     Edge 51, Type (0, 0), BuildingBlock: AJUNOK_clean_linker_0, # of connection points: 2
#     Edge 52, Type (0, 0), BuildingBlock: AJUNOK_clean_linker_0, # of connection points: 2
#     Edge 53, Type (0, 0), BuildingBlock: AJUNOK_clean_linker_0, # of connection points: 2
#     Edge 54, Type (0, 0), BuildingBlock: AJUNOK_clean_linker_0, # of connection points: 2
#     Edge 55, Type (0, 0), BuildingBlock: AJUNOK_clean_linker_0, # of connection points: 2
#     Edge 56, Type (0, 0), BuildingBlock: AJUNOK_clean_linker_0, # of connection points: 2
#     Edge 57, Type (0, 0), BuildingBlock: AJUNOK_clean_linker_0, # of connection points: 2
#     Edge 58, Type (0, 0), BuildingBlock: AJUNOK_clean_linker_0, # of connection points: 2
#     Edge 59, Type (0, 0), BuildingBlock: AJUNOK_clean_linker_0, # of connection points: 2
#     Edge 60, Type (0, 0), BuildingBlock: AJUNOK_clean_linker_0, # of connection points: 2
#     Edge 61, Type (0, 0), BuildingBlock: AJUNOK_clean_linker_0, # of connection points: 2
#     Edge 62, Type (0, 0), BuildingBlock: AJUNOK_clean_linker_0, # of connection points: 2
#     Edge 63, Type (0, 0), BuildingBlock: AJUNOK_clean_linker_0, # of connection points: 2
#     Edge 64, Type (0, 0), BuildingBlock: AJUNOK_clean_linker_0, # of connection points: 2
#     Edge 65, Type (0, 0), BuildingBlock: AJUNOK_clean_linker_0, # of connection points: 2
#     Edge 66, Type (0, 0), BuildingBlock: AJUNOK_clean_linker_0, # of connection points: 2
#     Edge 67, Type (0, 0), BuildingBlock: AJUNOK_clean_linker_0, # of connection points: 2
#     Edge 68, Type (0, 0), BuildingBlock: AJUNOK_clean_linker_0, # of connection points: 2
#     Edge 69, Type (0, 0), BuildingBlock: AJUNOK_clean_linker_0, # of connection points: 2
#     Edge 70, Type (0, 0), BuildingBlock: AJUNOK_clean_linker_0, # of connection points: 2
#     Edge 71, Type (0, 0), BuildingBlock: AJUNOK_clean_linker_0, # of connection points: 2
# Relax obj value: 0.072
# Max RMSD: 0.096
# Mean RMSD: 0.096
data_MOF--net-gme--node1-CEKHIL_clean_sbu_0--edge1-AJUNOK_clean_linker_0
_symmetry_space_group_name_H-M    P1
_symmetry_Int_Tables_number       1
_symmetry_cell_setting            triclinic
loop_
_symmetry_equiv_pos_as_xyz
'x, y, z'
_cell_length_a     39.675023
_cell_length_b     39.643418
_cell_length_c     41.6956
_cell_angle_alpha  89.998805
_cell_angle_beta   89.998372
_cell_angle_gamma 119.91711
loop_
_atom_site_label
_atom_site_type_symbol
_atom_site_fract_x
_atom_site_fract_y
_atom_site_fract_z
_atom_type_partial_charge
Co0 Co 0.38951 0.06531 0.12243 0.0
O1 O 0.39686 0.0711 0.07668 0.0
O2 O 0.36095 0.01508 0.1015 0.0
C3 C 0.37793 0.11537 0.12869 0.0
O4 O 0.37442 0.04874 0.16949 0.0
Co5 Co 0.44599 0.13272 0.16718 0.0
O6 O 0.40612 0.10276 0.19985 0.0
C7 C 0.47081 0.08053 0.13902 0.0
C8 C 0.37426 0.03378 0.07458 0.0
C9 C 0.38095 0.06695 0.19649 0.0
O10 O 0.43695 0.05888 0.12665 0.0
O11 O 0.48062 0.11216 0.15413 0.0
O12 O 0.35007 0.08143 0.11979 0.0
O13 O 0.41183 0.11857 0.13069 0.0
Co14 Co 0.32139 0.38893 0.62097 0.0
O15 O 0.32384 0.39621 0.57523 0.0
O16 O 0.34377 0.36046 0.60062 0.0
C17 C 0.25972 0.37728 0.62541 0.0
O18 O 0.32198 0.37446 0.6684 0.0
Co19 Co 0.30709 0.4441 0.66522 0.0
O20 O 0.29287 0.40148 0.69638 0.0
C21 C 0.3859 0.46977 0.63934 0.0
C22 C 0.33865 0.37364 0.57349 0.0
C23 C 0.30645 0.37845 0.69433 0.0
O24 O 0.37457 0.43661 0.62586 0.0
O25 O 0.36328 0.47863 0.65443 0.0
O26 O 0.26613 0.34925 0.6176 0.0
O27 O 0.29027 0.41111 0.62802 0.0
Co28 Co 0.93021 0.31955 0.11685 0.0
O29 O 0.92535 0.31851 0.07094 0.0
O30 O 0.98131 0.34423 0.09678 0.0
C31 C 0.88348 0.25689 0.1241 0.0
O32 O 0.9451 0.32422 0.16464 0.0
Co33 Co 0.85786 0.30395 0.15811 0.0
O34 O 0.88898 0.29863 0.19276 0.0
C35 C 0.90317 0.37821 0.12348 0.0
C36 C 0.96292 0.33625 0.06945 0.0
C37 C 0.92554 0.31196 0.19103 0.0
O38 O 0.9309 0.37093 0.11823 0.0
O39 O 0.87048 0.35355 0.13584 0.0
O40 O 0.91853 0.26496 0.11661 0.0
O41 O 0.87778 0.28608 0.1242 0.0
Co42 Co 0.61325 0.93572 0.61915 0.0
O43 O 0.60561 0.931 0.57356 0.0
O44 O 0.64248 0.98649 0.59877 0.0
C45 C 0.62358 0.88479 0.62343 0.0
O46 O 0.62797 0.95011 0.66661 0.0
Co47 Co 0.55641 0.86615 0.66269 0.0
O48 O 0.59892 0.89352 0.69402 0.0
C49 C 0.53303 0.9214 0.63745 0.0
C50 C 0.6287 0.96819 0.57172 0.0
C51 C 0.62295 0.92989 0.69232 0.0
O52 O 0.56645 0.94275 0.62429 0.0
O53 O 0.52324 0.88946 0.65214 0.0
O54 O 0.65205 0.91885 0.61552 0.0
O55 O 0.59012 0.8824 0.62599 0.0
Co56 Co 0.67858 0.61117 0.12011 0.0
O57 O 0.67907 0.60341 0.07481 0.0
O58 O 0.65694 0.63894 0.09729 0.0
C59 C 0.7402 0.6241 0.12777 0.0
O60 O 0.67528 0.62558 0.16704 0.0
Co61 Co 0.69078 0.55555 0.16571 0.0
O62 O 0.70286 0.598 0.19647 0.0
C63 C 0.61333 0.52992 0.13709 0.0
C64 C 0.66425 0.62568 0.07111 0.0
C65 C 0.68949 0.62113 0.19358 0.0
O66 O 0.62535 0.56315 0.12354 0.0
O67 O 0.63518 0.52101 0.15331 0.0
O68 O 0.73368 0.65161 0.11854 0.0
O69 O 0.70995 0.58992 0.12945 0.0
Co70 Co 0.06345 0.67416 0.62233 0.0
O71 O 0.06909 0.67166 0.57671 0.0
O72 O 0.01382 0.65605 0.60114 0.0
C73 C 0.11656 0.73382 0.62796 0.0
O74 O 0.0475 0.67478 0.66929 0.0
Co75 Co 0.12821 0.68082 0.66817 0.0
O76 O 0.10224 0.69841 0.69875 0.0
C77 C 0.07246 0.60461 0.64032 0.0
C78 C 0.03235 0.65996 0.57435 0.0
C79 C 0.06663 0.68869 0.69563 0.0
O80 O 0.05295 0.61881 0.62701 0.0
O81 O 0.10394 0.62486 0.65604 0.0
O82 O 0.08357 0.73044 0.61925 0.0
O83 O 0.11678 0.70153 0.63057 0.0
Co84 Co 0.93201 0.61236 0.39844 0.0
O85 O 0.9241 0.60746 0.44392 0.0
O86 O 0.98169 0.63985 0.42079 0.0
C87 C 0.88426 0.62642 0.38889 0.0
O88 O 0.94949 0.62382 0.35132 0.0
Co89 Co 0.86272 0.55369 0.35547 0.0
O90 O 0.89524 0.59004 0.3213 0.0
C91 C 0.90796 0.5274 0.39333 0.0
C92 C 0.96136 0.62841 0.4472 0.0
C93 C 0.93125 0.61504 0.32421 0.0
O94 O 0.93495 0.56282 0.39794 0.0
O95 O 0.87537 0.51803 0.38004 0.0
O96 O 0.91851 0.65395 0.39756 0.0
O97 O 0.87979 0.59198 0.38901 0.0
Co98 Co 0.32178 0.93047 0.89954 0.0
O99 O 0.32159 0.92327 0.945 0.0
O100 O 0.34506 0.98051 0.92154 0.0
C101 C 0.25957 0.88256 0.89263 0.0
O102 O 0.32476 0.94735 0.85241 0.0
Co103 Co 0.30786 0.86078 0.85549 0.0
O104 O 0.29942 0.89217 0.82298 0.0
C105 C 0.38189 0.90592 0.8904 0.0
C106 C 0.33765 0.96057 0.94807 0.0
C107 C 0.31162 0.92848 0.82581 0.0
O108 O 0.374 0.93309 0.8965 0.0
O109 O 0.35782 0.87355 0.87722 0.0
O110 O 0.26685 0.91705 0.90126 0.0
O111 O 0.28945 0.87805 0.89098 0.0
Co112 Co 0.38849 0.32042 0.39816 0.0
O113 O 0.39467 0.31897 0.4437 0.0
O114 O 0.36262 0.34449 0.42043 0.0
C115 C 0.37251 0.25782 0.39005 0.0
O116 O 0.37564 0.32491 0.35101 0.0
Co117 Co 0.44398 0.30583 0.35435 0.0
O118 O 0.40534 0.29949 0.32141 0.0
C119 C 0.47374 0.37939 0.39013 0.0
C120 C 0.37436 0.33604 0.44691 0.0
C121 C 0.38167 0.31225 0.32426 0.0
O122 O 0.43884 0.37205 0.39599 0.0
O123 O 0.48161 0.35507 0.37675 0.0
O124 O 0.34593 0.26588 0.39894 0.0
O125 O 0.40731 0.28707 0.38912 0.0
Co126 Co 0.06523 0.39013 0.89386 0.0
O127 O 0.07273 0.40045 0.93916 0.0
O128 O 0.0163 0.36027 0.91676 0.0
C129 C 0.1179 0.38262 0.88808 0.0
O130 O 0.04743 0.37164 0.84743 0.0
Co131 Co 0.12877 0.44463 0.84544 0.0
O132 O 0.10146 0.39916 0.81695 0.0
C133 C 0.07501 0.46815 0.87336 0.0
C134 C 0.03608 0.37595 0.94286 0.0
C135 C 0.0656 0.37459 0.82091 0.0
O136 O 0.05552 0.43539 0.88811 0.0
O137 O 0.10561 0.47756 0.85683 0.0
O138 O 0.08502 0.35363 0.89773 0.0
O139 O 0.11819 0.41501 0.88437 0.0
Co140 Co 0.67565 0.0674 0.39519 0.0
O141 O 0.67809 0.07659 0.44061 0.0
O142 O 0.65486 0.01858 0.41851 0.0
C143 C 0.73681 0.11589 0.38492 0.0
O144 O 0.67067 0.048 0.34866 0.0
Co145 Co 0.68333 0.13307 0.34961 0.0
O146 O 0.68806 0.10002 0.31651 0.0
C147 C 0.61301 0.08897 0.38835 0.0
C148 C 0.66296 0.03945 0.44454 0.0
C149 C 0.67912 0.06472 0.32089 0.0
O150 O 0.62234 0.0627 0.39384 0.0
O151 O 0.63561 0.12121 0.37436 0.0
O152 O 0.73097 0.08236 0.39496 0.0
O153 O 0.70641 0.11968 0.38441 0.0
Co154 Co 0.61602 0.67891 0.8957 0.0
O155 O 0.61074 0.67971 0.9414 0.0
O156 O 0.64463 0.6571 0.91664 0.0
C157 C 0.62823 0.74035 0.88797 0.0
O158 O 0.62829 0.67552 0.84825 0.0
Co159 Co 0.55619 0.6889 0.85383 0.0
O160 O 0.59374 0.69626 0.81952 0.0
C161 C 0.53187 0.61661 0.88996 0.0
C162 C 0.63247 0.66403 0.94358 0.0
C163 C 0.6196 0.68623 0.82169 0.0
O164 O 0.56757 0.62579 0.89412 0.0
O165 O 0.52153 0.63956 0.87752 0.0
O166 O 0.65637 0.73427 0.89614 0.0
O167 O 0.59419 0.70987 0.88763 0.0
Co168 Co 0.61026 0.93107 0.89573 0.0
O169 O 0.60486 0.92529 0.94151 0.0
O170 O 0.63725 0.98168 0.91645 0.0
C171 C 0.6249 0.8834 0.88857 0.0
O172 O 0.62281 0.94688 0.8483 0.0
Co173 Co 0.55351 0.86054 0.85307 0.0
O174 O 0.59222 0.89118 0.81964 0.0
C175 C 0.52528 0.90589 0.88856 0.0
C176 C 0.6257 0.96278 0.9435 0.0
C177 C 0.61647 0.92748 0.82193 0.0
O178 O 0.56041 0.93337 0.89356 0.0
O179 O 0.51678 0.87326 0.87574 0.0
O180 O 0.65209 0.91805 0.89675 0.0
O181 O 0.59032 0.87852 0.88779 0.0
Co182 Co 0.67607 0.60835 0.39664 0.0
O183 O 0.67683 0.60326 0.44249 0.0
O184 O 0.65192 0.63482 0.41732 0.0
C185 C 0.73855 0.62379 0.38915 0.0
O186 O 0.672 0.62059 0.34932 0.0
Co187 Co 0.69065 0.5524 0.35356 0.0
O188 O 0.69702 0.5904 0.31995 0.0
C189 C 0.61716 0.52303 0.38932 0.0
C190 C 0.65962 0.62365 0.4444 0.0
C191 C 0.68443 0.61423 0.32263 0.0
O192 O 0.6244 0.55802 0.39468 0.0
O193 O 0.64151 0.51504 0.37619 0.0
O194 O 0.73065 0.65071 0.39739 0.0
O195 O 0.70922 0.58902 0.38845 0.0
Co196 Co 0.06292 0.67744 0.8975 0.0
O197 O 0.06835 0.67399 0.94299 0.0
O198 O 0.01255 0.65554 0.91834 0.0
C199 C 0.11345 0.73878 0.89326 0.0
O200 O 0.04746 0.67814 0.85044 0.0
Co201 Co 0.13115 0.6909 0.85222 0.0
O202 O 0.10339 0.70736 0.82235 0.0
C203 C 0.07688 0.61179 0.87701 0.0
C204 C 0.03116 0.65977 0.94516 0.0
C205 C 0.06694 0.6943 0.82466 0.0
O206 O 0.05612 0.62374 0.89149 0.0
O207 O 0.10813 0.63415 0.8616 0.0
O208 O 0.07947 0.73293 0.90181 0.0
O209 O 0.11608 0.70786 0.89 0.0
Co210 Co 0.38512 0.06493 0.39945 0.0
O211 O 0.39105 0.07264 0.44494 0.0
O212 O 0.35828 0.01511 0.42179 0.0
C213 C 0.37053 0.1125 0.39089 0.0
O214 O 0.37263 0.04763 0.35232 0.0
Co215 Co 0.44211 0.13457 0.35588 0.0
O216 O 0.40396 0.10249 0.32259 0.0
C217 C 0.46993 0.08903 0.39164 0.0
C218 C 0.37016 0.03535 0.44822 0.0
C219 C 0.3797 0.06624 0.32544 0.0
O220 O 0.43477 0.06225 0.39764 0.0
O221 O 0.47867 0.12155 0.37845 0.0
O222 O 0.34335 0.07816 0.39976 0.0
O223 O 0.40501 0.11718 0.39028 0.0
Co224 Co 0.32449 0.39228 0.89777 0.0
O225 O 0.32369 0.39878 0.94333 0.0
O226 O 0.34353 0.36179 0.92004 0.0
C227 C 0.26421 0.38344 0.88934 0.0
O228 O 0.3272 0.37798 0.85062 0.0
Co229 Co 0.31917 0.45302 0.85388 0.0
O230 O 0.31034 0.41447 0.82023 0.0
C231 C 0.38971 0.47515 0.89125 0.0
C232 C 0.33713 0.37522 0.94652 0.0
C233 C 0.31805 0.38709 0.82347 0.0
O234 O 0.37896 0.43908 0.89601 0.0
O235 O 0.36806 0.48658 0.87807 0.0
O236 O 0.26838 0.3543 0.89822 0.0
O237 O 0.29586 0.41655 0.88862 0.0
Co238 Co 0.92911 0.32204 0.3955 0.0
O239 O 0.92295 0.31937 0.44136 0.0
O240 O 0.97939 0.34336 0.41642 0.0
C241 C 0.8807 0.26073 0.38576 0.0
O242 O 0.94541 0.32748 0.34803 0.0
Co243 Co 0.86019 0.31426 0.35419 0.0
O244 O 0.89189 0.31221 0.31848 0.0
C245 C 0.90633 0.38412 0.39277 0.0
C246 C 0.96036 0.3352 0.44344 0.0
C247 C 0.92723 0.32059 0.32098 0.0
O248 O 0.9332 0.37514 0.39566 0.0
O249 O 0.87313 0.36141 0.38028 0.0
O250 O 0.91484 0.26689 0.39421 0.0
O251 O 0.87635 0.29082 0.38677 0.0
Co252 Co 0.06144 0.38396 0.61935 0.0
O253 O 0.06869 0.39332 0.57407 0.0
O254 O 0.01202 0.3547 0.59682 0.0
C255 C 0.11282 0.37454 0.62507 0.0
O256 O 0.0446 0.36726 0.66617 0.0
Co257 Co 0.12776 0.44006 0.66556 0.0
O258 O 0.09969 0.39603 0.69549 0.0
C259 C 0.07304 0.46307 0.63867 0.0
C260 C 0.03188 0.36958 0.57057 0.0
C261 C 0.0636 0.37155 0.69249 0.0
O262 O 0.0531 0.43002 0.62453 0.0
O263 O 0.10419 0.47297 0.6546 0.0
O264 O 0.07938 0.34602 0.61598 0.0
O265 O 0.11446 0.40768 0.62807 0.0
Co266 Co 0.67775 0.06356 0.1195 0.0
O267 O 0.67718 0.07154 0.07419 0.0
O268 O 0.65499 0.014 0.09684 0.0
C269 C 0.73981 0.11194 0.1261 0.0
O270 O 0.67509 0.04578 0.16635 0.0
Co271 Co 0.6918 0.13133 0.16572 0.0
O272 O 0.70428 0.10068 0.19591 0.0
C273 C 0.61347 0.08041 0.13829 0.0
C274 C 0.66174 0.03436 0.07061 0.0
C275 C 0.69 0.06408 0.19289 0.0
O276 O 0.62491 0.05912 0.12399 0.0
O277 O 0.63588 0.11092 0.15453 0.0
O278 O 0.73275 0.07774 0.11689 0.0
O279 O 0.70975 0.11615 0.12862 0.0
Co280 Co 0.6094 0.67656 0.6195 0.0
O281 O 0.60004 0.67424 0.57423 0.0
O282 O 0.63682 0.65405 0.59735 0.0
C283 C 0.62159 0.73838 0.62454 0.0
O284 O 0.62577 0.67614 0.66636 0.0
Co285 Co 0.55577 0.6911 0.66554 0.0
O286 O 0.59974 0.70563 0.69523 0.0
C287 C 0.52905 0.61221 0.63934 0.0
C288 C 0.62253 0.65959 0.57098 0.0
C289 C 0.62275 0.6921 0.69243 0.0
O290 O 0.56179 0.62342 0.62518 0.0
O291 O 0.52073 0.63495 0.65489 0.0
O292 O 0.64914 0.73179 0.61561 0.0
O293 O 0.58783 0.70791 0.62783 0.0
Co294 Co 0.93084 0.60798 0.1212 0.0
O295 O 0.92257 0.60221 0.07578 0.0
O296 O 0.98037 0.63423 0.09856 0.0
C297 C 0.88412 0.62349 0.13018 0.0
O298 O 0.94877 0.62034 0.16821 0.0
Co299 Co 0.86144 0.55185 0.16533 0.0
O300 O 0.89438 0.58957 0.19852 0.0
C301 C 0.9047 0.52276 0.12785 0.0
C302 C 0.95984 0.62264 0.07227 0.0
C303 C 0.93063 0.61351 0.19529 0.0
O304 O 0.93233 0.55773 0.1225 0.0
O305 O 0.87259 0.51479 0.14136 0.0
O306 O 0.91856 0.65038 0.12127 0.0
O307 O 0.87889 0.58878 0.13076 0.0
Co308 Co 0.32265 0.93219 0.62318 0.0
O309 O 0.32472 0.92665 0.57748 0.0
O310 O 0.3415 0.98211 0.60214 0.0
C311 C 0.26263 0.87952 0.62875 0.0
O312 O 0.32298 0.94813 0.67035 0.0
Co313 Co 0.31459 0.86658 0.6688 0.0
O314 O 0.29789 0.8931 0.69958 0.0
C315 C 0.39118 0.92175 0.64095 0.0
C316 C 0.3372 0.9636 0.57525 0.0
C317 C 0.30895 0.92909 0.69673 0.0
O318 O 0.37755 0.94167 0.62748 0.0
O319 O 0.37046 0.89041 0.65678 0.0
O320 O 0.26649 0.91285 0.6204 0.0
O321 O 0.29462 0.87879 0.63122 0.0
Co322 Co 0.38856 0.32192 0.12111 0.0
O323 O 0.39551 0.32319 0.07529 0.0
O324 O 0.35959 0.34326 0.10017 0.0
C325 C 0.37736 0.26041 0.12767 0.0
O326 O 0.37377 0.32351 0.16831 0.0
Co327 Co 0.44589 0.31146 0.16542 0.0
O328 O 0.40684 0.30256 0.19859 0.0
C329 C 0.47008 0.38805 0.1368 0.0
C330 C 0.37273 0.33774 0.0732 0.0
C331 C 0.38117 0.3126 0.19535 0.0
O332 O 0.43593 0.37589 0.12499 0.0
O333 O 0.48016 0.36625 0.1516 0.0
O334 O 0.34931 0.26626 0.1188 0.0
O335 O 0.41117 0.2912 0.12934 0.0
C336 C 0.34004 0.05799 0.27754 0.0
C337 C 0.36252 0.04595 0.29501 0.0
C338 C 0.34032 0.05819 0.24387 0.0
C339 C 0.36303 0.04627 0.22661 0.0
H340 H 0.32635 0.07211 0.28983 0.0
H341 H 0.32688 0.07249 0.23148 0.0
S342 S 0.42107 0.00543 0.26105 0.0
N343 N 0.40312 0.01626 0.29264 0.0
N344 N 0.40354 0.01651 0.22933 0.0
C345 C 0.38109 0.02909 0.24373 0.0
C346 C 0.38087 0.02896 0.27805 0.0
C347 C 0.34672 0.38001 0.7403 0.0
C348 C 0.31008 0.36232 0.72526 0.0
C349 C 0.34986 0.38227 0.77399 0.0
C350 C 0.31647 0.36656 0.79349 0.0
H351 H 0.37283 0.39674 0.72617 0.0
H352 H 0.37824 0.4007 0.78453 0.0
S353 S 0.21442 0.31023 0.76576 0.0
N354 N 0.24028 0.32339 0.73237 0.0
N355 N 0.24621 0.3272 0.79545 0.0
C356 C 0.28014 0.3441 0.77872 0.0
C357 C 0.27692 0.34208 0.74458 0.0
C358 C 0.96133 0.35264 0.23775 0.0
C359 C 0.94507 0.31639 0.22214 0.0
C360 C 0.96172 0.35495 0.27146 0.0
C361 C 0.94623 0.32112 0.29044 0.0
H362 H 0.96902 0.37871 0.22401 0.0
H363 H 0.96968 0.3827 0.28248 0.0
S364 S 0.90707 0.22027 0.26112 0.0
N365 N 0.91848 0.24685 0.22814 0.0
N366 N 0.91968 0.25125 0.2913 0.0
C367 C 0.93477 0.28551 0.27511 0.0
C368 C 0.9341 0.28312 0.24093 0.0
C369 C 0.62235 0.96685 0.7399 0.0
C370 C 0.63985 0.94858 0.72336 0.0
C371 C 0.62018 0.96582 0.77365 0.0
C372 C 0.6357 0.94674 0.79165 0.0
H373 H 0.60567 0.97715 0.72676 0.0
H374 H 0.60206 0.9755 0.78527 0.0
S375 S 0.69157 0.90212 0.75994 0.0
N376 N 0.67851 0.91697 0.72767 0.0
N377 N 0.67473 0.91531 0.79084 0.0
C378 C 0.65793 0.93346 0.77553 0.0
C379 C 0.66001 0.93438 0.74136 0.0
C380 C 0.71759 0.65648 0.27627 0.0
C381 C 0.68247 0.63255 0.29242 0.0
C382 C 0.7189 0.6589 0.24267 0.0
C383 C 0.68515 0.63728 0.22416 0.0
H384 H 0.74482 0.66947 0.28935 0.0
H385 H 0.74712 0.67345 0.2311 0.0
S386 S 0.58513 0.57628 0.25528 0.0
N387 N 0.6125 0.59186 0.2878 0.0
N388 N 0.61495 0.59633 0.22459 0.0
C389 C 0.64926 0.61779 0.24021 0.0
C390 C 0.64793 0.61531 0.27447 0.0
C391 C 0.06143 0.72443 0.74189 0.0
C392 C 0.04703 0.68879 0.72565 0.0
C393 C 0.06153 0.72589 0.77552 0.0
C394 C 0.04727 0.69176 0.79397 0.0
H395 H 0.07728 0.75152 0.72877 0.0
H396 H 0.07743 0.75407 0.78706 0.0
S397 S -3e-05 0.59093 0.76276 0.0
N398 N 0.01273 0.61844 0.73026 0.0
N399 N 0.01287 0.62116 0.79352 0.0
C400 C 0.0278 0.65581 0.77797 0.0
C401 C 0.02773 0.65433 0.74367 0.0
C402 C 0.96678 0.61176 0.24291 0.0
C403 C 0.95135 0.6313 0.22542 0.0
C404 C 0.9669 0.61213 0.27668 0.0
C405 C 0.95162 0.63209 0.2938 0.0
H406 H 0.97382 0.59192 0.23071 0.0
H407 H 0.97404 0.59258 0.28924 0.0
S408 S 0.91543 0.69396 0.25903 0.0
N409 N 0.92663 0.67616 0.22757 0.0
N410 N 0.92686 0.67687 0.29083 0.0
C411 C 0.94137 0.656 0.27651 0.0
C412 C 0.94124 0.65562 0.24228 0.0
C413 C 0.27778 0.93515 0.77882 0.0
C414 C 0.31294 0.94851 0.79559 0.0
C415 C 0.27699 0.93541 0.74518 0.0
C416 C 0.31135 0.9491 0.72721 0.0
H417 H 0.25037 0.91978 0.79157 0.0
H418 H 0.24902 0.92014 0.73326 0.0
S419 S 0.41136 0.99417 0.75979 0.0
N420 N 0.38328 0.98149 0.79194 0.0
N421 N 0.38183 0.98216 0.72863 0.0
C422 C 0.34697 0.96766 0.74373 0.0
C423 C 0.34777 0.96729 0.77805 0.0
C424 C 0.38133 0.34954 0.27673 0.0
C425 C 0.36352 0.31435 0.29398 0.0
C426 C 0.38096 0.3496 0.24294 0.0
C427 C 0.36282 0.31447 0.22556 0.0
H428 H 0.39997 0.37664 0.28909 0.0
H429 H 0.39941 0.37674 0.23056 0.0
S430 S 0.30544 0.2155 0.2597 0.0
N431 N 0.32181 0.24432 0.29136 0.0
N432 N 0.32124 0.24445 0.22809 0.0
C433 C 0.34039 0.2798 0.24265 0.0
C434 C 0.34073 0.27973 0.27688 0.0
C435 C 0.05777 0.33271 0.74046 0.0
C436 C 0.0436 0.35328 0.72283 0.0
C437 C 0.05832 0.33352 0.77413 0.0
C438 C 0.04468 0.3549 0.79125 0.0
H439 H 0.07331 0.32044 0.72826 0.0
H440 H 0.07425 0.32184 0.78656 0.0
S441 S -0.00241 0.40699 0.75644 0.0
N442 N 0.00974 0.38999 0.72498 0.0
N443 N 0.01072 0.39148 0.78827 0.0
C444 C 0.0252 0.37055 0.77404 0.0
C445 C 0.02466 0.36974 0.7397 0.0
C446 C 0.71438 0.05514 0.2766 0.0
C447 C 0.67849 0.04362 0.29158 0.0
C448 C 0.71732 0.05493 0.24305 0.0
C449 C 0.68445 0.04311 0.22344 0.0
H450 H 0.74097 0.06933 0.29053 0.0
H451 H 0.74608 0.06901 0.23241 0.0
S452 S 0.58289 0.00255 0.25132 0.0
N453 N 0.60876 0.01397 0.28469 0.0
N454 N 0.61419 0.01319 0.22161 0.0
C455 C 0.64781 0.02605 0.23832 0.0
C456 C 0.64485 0.02649 0.2725 0.0
C457 C 0.62304 0.6536 0.73898 0.0
C458 C 0.64045 0.68957 0.72281 0.0
C459 C 0.62188 0.652 0.77274 0.0
C460 C 0.63839 0.68632 0.79115 0.0
H461 H 0.60563 0.62689 0.72571 0.0
H462 H 0.60371 0.62414 0.78422 0.0
S463 S 0.69444 0.78707 0.76024 0.0
N464 N 0.6801 0.75966 0.72769 0.0
N465 N 0.6782 0.75663 0.7909 0.0
C466 C 0.66057 0.72194 0.77524 0.0
C467 C 0.6616 0.72358 0.74104 0.0
C468 C 0.34525 0.15376 0.1149 0.0
C469 C 0.3726 0.14941 0.1333 0.0
C470 C 0.3451 0.18921 0.11466 0.0
C471 C 0.3723 0.22122 0.13281 0.0
H472 H 0.32542 0.13054 0.09919 0.0
H473 H 0.32517 0.19224 0.09877 0.0
S474 S 0.44379 0.22154 0.19039 0.0
N475 N 0.42308 0.17797 0.17389 0.0
N476 N 0.42278 0.24391 0.17348 0.0
C477 C 0.39736 0.2159 0.15328 0.0
C478 C 0.39752 0.18011 0.15351 0.0
C479 C 0.1819 0.40329 0.64121 0.0
C480 C 0.14794 0.37104 0.62941 0.0
C481 C 0.21737 0.40395 0.64126 0.0
C482 C 0.2205 0.37237 0.62955 0.0
H483 H 0.18156 0.42903 0.64944 0.0
H484 H 0.24282 0.43018 0.64955 0.0
S485 S 0.13934 0.27884 0.59965 0.0
N486 N 0.11877 0.30508 0.60844 0.0
N487 N 0.18589 0.30633 0.60858 0.0
C488 C 0.18636 0.33881 0.61961 0.0
C489 C 0.14996 0.33814 0.61953 0.0
C490 C 0.81814 0.21346 0.14662 0.0
C491 C 0.85083 0.21729 0.13026 0.0
C492 C 0.78314 0.17828 0.14699 0.0
C493 C 0.7793 0.14537 0.13102 0.0
H494 H 0.81884 0.23834 0.15798 0.0
H495 H 0.75838 0.17755 0.15861 0.0
S496 S 0.85786 0.13834 0.08876 0.0
N497 N 0.8787 0.18409 0.10086 0.0
N498 N 0.81242 0.11736 0.10157 0.0
C499 C 0.81264 0.14768 0.11694 0.0
C500 C 0.84858 0.18383 0.11657 0.0
C501 C 0.59564 0.78097 0.64125 0.0
C502 C 0.62675 0.7777 0.62871 0.0
C503 C 0.59608 0.81633 0.64091 0.0
C504 C 0.62768 0.85006 0.62807 0.0
H505 H 0.56985 0.75567 0.65033 0.0
H506 H 0.57061 0.8167 0.64975 0.0
S507 S 0.71877 0.85839 0.59607 0.0
N508 N 0.69188 0.81203 0.60595 0.0
N509 N 0.69274 0.87902 0.60538 0.0
C510 C 0.66028 0.84801 0.61749 0.0
C511 C 0.65981 0.81168 0.61779 0.0
C512 C 0.78252 0.60034 0.14972 0.0
C513 C 0.77937 0.62996 0.13397 0.0
C514 C 0.81767 0.60042 0.15058 0.0
C515 C 0.8511 0.63004 0.13562 0.0
H516 H 0.75721 0.57576 0.16018 0.0
H517 H 0.81797 0.57584 0.16161 0.0
S518 S 0.85985 0.71757 0.09558 0.0
N519 N 0.81374 0.69234 0.10652 0.0
N520 N 0.88025 0.69234 0.108 0.0
C521 C 0.84938 0.6617 0.12227 0.0
C522 C 0.81333 0.66168 0.12145 0.0
C523 C 0.19021 0.84176 0.62112 0.0
C524 C 0.2244 0.84378 0.63295 0.0
C525 C 0.15476 0.80637 0.62089 0.0
C526 C 0.1524 0.77189 0.63248 0.0
H527 H 0.19111 0.86724 0.61072 0.0
H528 H 0.12951 0.80575 0.61034 0.0
S529 S 0.23233 0.76293 0.67037 0.0
N530 N 0.25248 0.80898 0.65968 0.0
N531 N 0.18649 0.74311 0.65923 0.0
C532 C 0.18587 0.77418 0.64615 0.0
C533 C 0.22173 0.80998 0.64638 0.0
C534 C 0.81781 0.60207 0.36779 0.0
C535 C 0.85074 0.63213 0.38293 0.0
C536 C 0.78233 0.60136 0.36797 0.0
C537 C 0.77823 0.63069 0.38327 0.0
H538 H 0.8188 0.57769 0.3571 0.0
H539 H 0.75745 0.57646 0.35737 0.0
S540 S 0.85709 0.71917 0.42199 0.0
N541 N 0.87842 0.69455 0.41025 0.0
N542 N 0.81122 0.69323 0.41054 0.0
C543 C 0.81168 0.66282 0.39598 0.0
C544 C 0.84812 0.66354 0.39582 0.0
C545 C 0.18106 0.78031 0.87416 0.0
C546 C 0.14785 0.77775 0.88856 0.0
C547 C 0.21637 0.81519 0.87381 0.0
C548 C 0.22008 0.84907 0.88789 0.0
H549 H 0.18039 0.75478 0.86414 0.0
H550 H 0.24136 0.815 0.86357 0.0
S551 S 0.14069 0.8593 0.92503 0.0
N552 N 0.11973 0.81304 0.91439 0.0
N553 N 0.18663 0.87907 0.91381 0.0
C554 C 0.18651 0.84783 0.90029 0.0
C555 C 0.15024 0.81202 0.90063 0.0
C556 C 0.39363 0.17824 0.36856 0.0
C557 C 0.36436 0.14571 0.38474 0.0
C558 C 0.39411 0.21364 0.36835 0.0
C559 C 0.36536 0.21803 0.38433 0.0
H560 H 0.41763 0.17709 0.35732 0.0
H561 H 0.41847 0.2383 0.35697 0.0
S562 S 0.27881 0.14007 0.42583 0.0
N563 N 0.30311 0.11856 0.41373 0.0
N564 N 0.30403 0.18562 0.41334 0.0
C565 C 0.33389 0.18486 0.39807 0.0
C566 C 0.33339 0.14851 0.39828 0.0
C567 C 0.19155 0.3482 0.89567 0.0
C568 C 0.22586 0.3804 0.88408 0.0
C569 C 0.15602 0.34808 0.89551 0.0
C570 C 0.1537 0.38016 0.88373 0.0
H571 H 0.19245 0.32374 0.90633 0.0
H572 H 0.13069 0.32349 0.90596 0.0
S573 S 0.23406 0.46903 0.84625 0.0
N574 N 0.25411 0.44309 0.85718 0.0
N575 N 0.18811 0.44305 0.85703 0.0
C576 C 0.18732 0.4113 0.8702 0.0
C577 C 0.22322 0.41137 0.87032 0.0
C578 C 0.80829 0.15353 0.39621 0.0
C579 C 0.77593 0.14955 0.3791 0.0
C580 C 0.84358 0.18907 0.39643 0.0
C581 C 0.84737 0.22154 0.37958 0.0
H582 H 0.80561 0.13 0.41122 0.0
H583 H 0.86702 0.19185 0.41158 0.0
S584 S 0.77424 0.2231 0.32515 0.0
N585 N 0.75227 0.17891 0.3406 0.0
N586 N 0.81811 0.24529 0.34111 0.0
C587 C 0.81643 0.21663 0.36006 0.0
C588 C 0.78076 0.18067 0.35979 0.0
C589 C 0.60211 0.78173 0.86849 0.0
C590 C 0.63304 0.7793 0.88245 0.0
C591 C 0.60129 0.81647 0.86867 0.0
C592 C 0.63136 0.85029 0.88283 0.0
H593 H 0.57726 0.75613 0.85864 0.0
H594 H 0.57583 0.81616 0.85895 0.0
S595 S 0.72196 0.86099 0.91818 0.0
N596 N 0.69685 0.81477 0.90741 0.0
N597 N 0.69529 0.88056 0.90775 0.0
C598 C 0.66415 0.8493 0.89441 0.0
C599 C 0.66499 0.81363 0.89422 0.0
C600 C 0.36802 0.01934 0.98397 0.0
C601 C 0.34647 0.9787 0.98049 0.0
C602 C 0.37686 0.03673 0.01447 0.0
C603 C 0.36431 0.01422 0.04276 0.0
H604 H 0.37837 0.03793 0.96302 0.0
H605 H 0.39364 0.06818 0.01578 0.0
S606 S 0.3063 0.9065 0.04694 0.0
N607 N 0.31232 0.91629 1.00821 0.0
N608 N 0.32887 0.94907 0.06519 0.0
C609 C 0.34252 0.97357 0.03963 0.0
C610 C 0.33363 0.95582 1.00862 0.0
C611 C 0.34749 0.36779 0.48292 0.0
C612 C 0.36531 0.34502 0.47939 0.0
C613 C 0.33923 0.37689 0.51342 0.0
C614 C 0.34825 0.36347 0.54172 0.0
H615 H 0.34 0.37889 0.462 0.0
H616 H 0.32552 0.39461 0.51471 0.0
S617 S 0.39441 0.30206 0.54579 0.0
N618 N 0.39131 0.30872 0.50706 0.0
N619 N 0.37564 0.32582 0.5641 0.0
C620 C 0.36585 0.34047 0.53856 0.0
C621 C 0.37441 0.33127 0.50751 0.0
C622 C 0.9778 0.34308 0.97895 0.0
C623 C 0.01829 0.36618 0.97543 0.0
C624 C 0.96046 0.33363 0.00941 0.0
C625 C 0.98282 0.34664 0.03774 0.0
H626 H 0.95923 0.33232 0.95802 0.0
H627 H 0.92909 0.31586 0.01065 0.0
S628 S 0.09024 0.40737 0.0419 0.0
N629 N 0.08052 0.40155 1.00314 0.0
N630 N 0.04779 0.38354 0.06019 0.0
C631 C 0.02338 0.3695 0.03462 0.0
C632 C 0.04111 0.37934 1.00357 0.0
C633 C 0.63363 0.98164 0.48118 0.0
C634 C 0.65528 0.02218 0.47724 0.0
C635 C 0.62533 0.96476 0.51181 0.0
C636 C 0.63853 0.98765 0.53986 0.0
H637 H 0.62265 0.96268 0.46048 0.0
H638 H 0.60836 0.93333 0.51338 0.0
S639 S 0.69734 0.09534 0.54281 0.0
N640 N 0.69044 0.085 0.50419 0.0
N641 N 0.6749 0.05308 0.5616 0.0
C642 C 0.66057 0.02823 0.53631 0.0
C643 C 0.6689 0.04552 0.50508 0.0
C644 C 0.63679 0.65599 0.03426 0.0
C645 C 0.65693 0.63555 0.0384 0.0
C646 C 0.62932 0.66513 1.00352 0.0
C647 C 0.64186 0.65441 0.97561 0.0
H648 H 0.62642 0.66479 0.05488 0.0
H649 H 0.61345 0.68073 1.00174 0.0
S650 S 0.69682 0.60143 0.9732 0.0
N651 N 0.69005 0.60543 0.01175 0.0
N652 N 0.676 0.62278 0.95422 0.0
C653 C 0.6624 0.63434 0.97937 0.0
C654 C 0.66991 0.62486 0.01067 0.0
C655 C 0.03605 0.65998 0.51433 0.0
C656 C 0.01338 0.65226 0.54235 0.0
C657 C 0.01928 0.65294 0.48365 0.0
C658 C 0.97909 0.63764 0.47972 0.0
H659 H 0.06715 0.67154 0.51599 0.0
H660 H 0.0379 0.65901 0.46292 0.0
S661 S 0.90689 0.61367 0.5452 0.0
N662 N 0.94871 0.62945 0.564 0.0
N663 N 0.91707 0.6161 0.50661 0.0
C664 C 0.95611 0.63025 0.50754 0.0
C665 C 0.97326 0.63757 0.53875 0.0
C666 C 0.62364 0.95923 1.00353 0.0
C667 C 0.63551 0.98212 0.97541 0.0
C668 C 0.63228 0.97619 0.03416 0.0
C669 C 0.65299 0.01679 0.03799 0.0
H670 H 0.60751 0.92777 1.00199 0.0
H671 H 0.62246 0.95728 0.05494 0.0
S672 S 0.69127 0.08995 0.97216 0.0
N673 N 0.66945 0.0476 0.95352 0.0
N674 N 0.68567 0.07964 0.01082 0.0
C675 C 0.66515 0.04009 0.01006 0.0
C676 C 0.65644 0.02275 0.97887 0.0
C677 C 0.66123 0.62224 0.50449 0.0
C678 C 0.64973 0.63335 0.47621 0.0
C679 C 0.65248 0.63083 0.53499 0.0
C680 C 0.63166 0.65069 0.53852 0.0
H681 H 0.67728 0.60679 0.50316 0.0
H682 H 0.662 0.62167 0.55593 0.0
S683 S 0.59522 0.68676 0.47214 0.0
N684 N 0.61674 0.66567 0.45383 0.0
N685 N 0.60012 0.68175 0.51086 0.0
C686 C 0.62003 0.66206 0.51041 0.0
C687 C 0.6291 0.65343 0.47937 0.0
C688 C 0.01786 0.65053 0.03575 0.0
C689 C 0.97735 0.63198 0.03965 0.0
C690 C 0.03476 0.65916 1.00511 0.0
C691 C 0.01189 0.6498 0.97707 0.0
H692 H 0.03675 0.65832 0.05649 0.0
H693 H 0.06616 0.67346 1.00351 0.0
S694 S 0.9043 0.60139 0.974 0.0
N695 N 0.91461 0.60468 0.01262 0.0
N696 N 0.94655 0.62109 0.95529 0.0
C697 C 0.97136 0.63141 0.98059 0.0
C698 C 0.95407 0.62245 0.01178 0.0
C699 C 0.33723 0.96017 0.51519 0.0
C700 C 0.34548 0.98281 0.5433 0.0
C701 C 0.34474 0.97715 0.48456 0.0
C702 C 0.36104 0.01752 0.48074 0.0
H703 H 0.32485 0.92892 0.51675 0.0
H704 H 0.33811 0.9585 0.46377 0.0
S705 S 0.38707 0.08983 0.54652 0.0
N706 N 0.37011 0.04772 0.56516 0.0
N707 N 0.38435 0.07975 0.50789 0.0
C708 C 0.36911 0.04051 0.50866 0.0
C709 C 0.36131 0.02315 0.53983 0.0
C710 C 0.37458 0.33657 0.01305 0.0
C711 C 0.36252 0.34709 0.04133 0.0
C712 C 0.36586 0.34519 0.98253 0.0
C713 C 0.34494 0.36497 0.97898 0.0
H714 H 0.39101 0.3215 0.0144 0.0
H715 H 0.37602 0.33669 0.9616 0.0
S716 S 0.30574 0.39821 0.04532 0.0
N717 N 0.32784 0.37773 0.06365 0.0
N718 N 0.31154 0.39411 1.00659 0.0
C719 C 0.33237 0.37537 1.00708 0.0
C720 C 0.34112 0.3664 0.03813 0.0
C721 C 0.97365 0.34028 0.53416 0.0
C722 C 0.01422 0.36023 0.53799 0.0
C723 C 0.9567 0.33224 0.50351 0.0
C724 C 0.97958 0.34359 0.4754 0.0
H725 H 0.95478 0.33117 0.55495 0.0
H726 H 0.92526 0.31708 0.50195 0.0
S727 S 0.08734 0.39511 0.47218 0.0
N728 N 0.07701 0.39017 0.51083 0.0
N729 N 0.04503 0.37492 0.45353 0.0
C730 C 0.02018 0.36301 0.47887 0.0
C731 C 0.0375 0.37136 0.51006 0.0
C732 C 0.51816 0.06851 0.1087 0.0
C733 C 0.50021 0.06837 0.13783 0.0
C734 C 0.5538 0.06878 0.10857 0.0
C735 C 0.57212 0.06913 0.13756 0.0
H736 H 0.50631 0.07157 0.08619 0.0
H737 H 0.56848 0.07187 0.08593 0.0
S738 S 0.53324 0.06215 0.21956 0.0
N739 N 0.50053 0.06333 0.19582 0.0
N740 N 0.56732 0.06412 0.19559 0.0
C741 C 0.55258 0.06549 0.16649 0.0
C742 C 0.51657 0.06504 0.16662 0.0
C743 C 0.48193 0.55188 0.60991 0.0
C744 C 0.49895 0.57087 0.63892 0.0
C745 C 0.44637 0.51651 0.6099 0.0
C746 C 0.42729 0.4996 0.63891 0.0
H747 H 0.49447 0.56586 0.58723 0.0
H748 H 0.43234 0.50406 0.58722 0.0
S749 S 0.46389 0.53439 0.72096 0.0
N750 N 0.49709 0.56756 0.69708 0.0
N751 N 0.43055 0.5014 0.69706 0.0
C752 C 0.44598 0.51658 0.66789 0.0
C753 C 0.48184 0.55224 0.6679 0.0
C754 C 0.87608 0.41983 0.10731 0.0
C755 C 0.90866 0.41719 0.11679 0.0
C756 C 0.87641 0.45514 0.10851 0.0
C757 C 0.90936 0.48925 0.11917 0.0
H758 H 0.84923 0.39391 0.10068 0.0
H759 H 0.84983 0.45526 0.10274 0.0
S760 S 0.00404 0.4991 0.14235 0.0
N761 N 0.9763 0.45242 0.13377 0.0
N762 N 0.97694 0.51934 0.13594 0.0
C763 C 0.9434 0.48792 0.12588 0.0
C764 C 0.94306 0.45167 0.12469 0.0
C765 C 0.45157 0.93418 0.66761 0.0
C766 C 0.4329 0.93479 0.63919 0.0
C767 C 0.48651 0.93379 0.66673 0.0
C768 C 0.50403 0.93412 0.6374 0.0
H769 H 0.43755 0.93097 0.69062 0.0
H770 H 0.49844 0.93035 0.68907 0.0
S771 S 0.46976 0.94145 0.55649 0.0
N772 N 0.43651 0.94029 0.5811 0.0
N773 N 0.50287 0.93974 0.57944 0.0
C774 C 0.48783 0.9387 0.60893 0.0
C775 C 0.45196 0.93902 0.60983 0.0
C776 C 0.55366 0.48194 0.16472 0.0
C777 C 0.57185 0.50025 0.13589 0.0
C778 C 0.51813 0.44726 0.16464 0.0
C779 C 0.49955 0.42958 0.13574 0.0
H780 H 0.56824 0.49321 0.18746 0.0
H781 H 0.50647 0.43269 0.18732 0.0
S782 S 0.5326 0.46856 0.05398 0.0
N783 N 0.56687 0.50076 0.07782 0.0
N784 N 0.49959 0.4348 0.0777 0.0
C785 C 0.51553 0.4493 0.10683 0.0
C786 C 0.55194 0.48496 0.10691 0.0
C787 C 0.06138 0.51087 0.60879 0.0
C788 C 0.05981 0.4917 0.6376 0.0
C789 C 0.06089 0.54613 0.60916 0.0
C790 C 0.05872 0.56273 0.63835 0.0
H791 H 0.06647 0.50048 0.58628 0.0
H792 H 0.06581 0.56212 0.58695 0.0
S793 S 0.04704 0.52003 0.71938 0.0
N794 N 0.05069 0.48892 0.6953 0.0
N795 N 0.04965 0.55488 0.69598 0.0
C796 C 0.05323 0.54172 0.66678 0.0
C797 C 0.05383 0.50618 0.66642 0.0
C798 C 0.94549 0.49234 0.38862 0.0
C799 C 0.9144 0.49508 0.40204 0.0
C800 C 0.94515 0.45666 0.38855 0.0
C801 C 0.91372 0.4231 0.40192 0.0
H802 H 0.96828 0.5168 0.37569 0.0
H803 H 0.96767 0.45455 0.37553 0.0
S804 S 0.82998 0.41768 0.44582 0.0
N805 N 0.85496 0.46322 0.43334 0.0
N806 N 0.85436 0.39645 0.4333 0.0
C807 C 0.88484 0.42678 0.41831 0.0
C808 C 0.88516 0.46278 0.41834 0.0
C809 C 0.49008 0.94365 0.88536 0.0
C810 C 0.49224 0.91141 0.8969 0.0
C811 C 0.45458 0.94367 0.88585 0.0
C812 C 0.42063 0.91148 0.8979 0.0
H813 H 0.515 0.96743 0.87368 0.0
H814 H 0.45305 0.96746 0.87451 0.0
S815 S 0.41341 0.82404 0.93674 0.0
N816 N 0.45918 0.8496 0.92505 0.0
N817 N 0.39284 0.84966 0.92595 0.0
C818 C 0.42358 0.88104 0.91224 0.0
C819 C 0.45937 0.88101 0.91174 0.0
C820 C 0.5088 0.45229 0.38691 0.0
C821 C 0.50718 0.41791 0.39783 0.0
C822 C 0.54426 0.4878 0.38669 0.0
C823 C 0.57878 0.4896 0.39738 0.0
H824 H 0.48335 0.45117 0.37626 0.0
H825 H 0.54521 0.51311 0.37588 0.0
S826 S 0.5878 0.40944 0.43434 0.0
N827 N 0.54156 0.38922 0.42405 0.0
N828 N 0.60783 0.45558 0.42366 0.0
C829 C 0.5765 0.45621 0.41113 0.0
C830 C 0.54074 0.4204 0.41135 0.0
C831 C 0.0649 0.51773 0.84649 0.0
C832 C 0.06277 0.4976 0.87484 0.0
C833 C 0.06582 0.55335 0.84742 0.0
C834 C 0.06447 0.57007 0.87672 0.0
H835 H 0.06876 0.50724 0.82354 0.0
H836 H 0.07022 0.56917 0.82516 0.0
S837 S 0.05285 0.5263 0.95732 0.0
N838 N 0.05469 0.49452 0.93274 0.0
N839 N 0.05613 0.56191 0.93447 0.0
C840 C 0.05836 0.54852 0.90502 0.0
C841 C 0.05754 0.51203 0.90408 0.0
C842 C 0.57206 0.11396 0.41053 0.0
C843 C 0.57432 0.08255 0.39732 0.0
C844 C 0.53694 0.11403 0.41128 0.0
C845 C 0.50272 0.08269 0.39887 0.0
H846 H 0.59819 0.13984 0.41842 0.0
H847 H 0.53708 0.13995 0.41975 0.0
S848 S 0.4922 0.99147 0.36511 0.0
N849 N 0.53882 0.01763 0.37442 0.0
N850 N 0.47226 0.01773 0.37588 0.0
C851 C 0.50373 0.04955 0.38823 0.0
C852 C 0.53977 0.04949 0.38745 0.0
C853 C 0.49721 0.54423 0.8839 0.0
C854 C 0.50041 0.57756 0.8988 0.0
C855 C 0.46179 0.50874 0.88446 0.0
C856 C 0.42905 0.50596 0.90004 0.0
H857 H 0.52091 0.54647 0.86942 0.0
H858 H 0.45905 0.48461 0.87026 0.0
S859 S 0.42527 0.58282 0.94772 0.0
N860 N 0.47001 0.60399 0.93335 0.0
N861 N 0.40378 0.53751 0.93453 0.0
C862 C 0.43338 0.53797 0.91773 0.0
C863 C 0.46906 0.57382 0.91707 0.0
loop_
_geom_bond_atom_site_label_1
_geom_bond_atom_site_label_2
_geom_bond_distance
_geom_bond_site_symmetry_2
_ccdc_geom_bond_type
Co0 O1 2.216 . S
Co0 O2 2.091 1_545 S
Co0 O4 2.004 . S
Co0 O10 2.021 . S
Co0 O12 2.137 . S
Co0 O13 2.244 . S
O1 Co0 2.216 . S
O1 C8 1.247 . S
O2 Co0 2.091 1_565 S
O2 C8 1.261 1_565 S
C3 O12 1.247 . S
C3 O13 1.272 . S
O4 Co0 2.004 . S
O4 C9 1.259 . S
Co5 O6 2.061 . S
Co5 O11 2.052 . S
Co5 O13 2.135 . S
O6 Co5 2.061 . S
O6 C9 1.235 . S
C7 O10 1.238 . S
C7 O11 1.241 . S
C8 O1 1.247 . S
C8 O2 1.261 1_545 S
C9 O4 1.259 . S
C9 O6 1.235 . S
O10 Co0 2.021 . S
O10 C7 1.238 . S
O11 Co5 2.052 . S
O11 C7 1.241 . S
O12 Co0 2.137 . S
O12 C3 1.247 . S
O13 Co0 2.244 . S
O13 C3 1.272 . S
O13 Co5 2.135 . S
Co14 O15 2.216 . S
Co14 O16 2.091 . S
Co14 O18 2.004 . S
Co14 O24 2.021 . S
Co14 O26 2.137 . S
Co14 O27 2.244 . S
O15 Co14 2.216 . S
O15 C22 1.247 . S
O16 Co14 2.091 . S
O16 C22 1.261 . S
C17 O26 1.247 . S
C17 O27 1.272 . S
O18 Co14 2.004 . S
O18 C23 1.259 . S
Co19 O20 2.061 . S
Co19 O25 2.052 . S
Co19 O27 2.135 . S
O20 Co19 2.061 . S
O20 C23 1.235 . S
C21 O24 1.238 . S
C21 O25 1.241 . S
C22 O15 1.247 . S
C22 O16 1.261 . S
C23 O18 1.259 . S
C23 O20 1.235 . S
O24 Co14 2.021 . S
O24 C21 1.238 . S
O25 Co19 2.052 . S
O25 C21 1.241 . S
O26 Co14 2.137 . S
O26 C17 1.247 . S
O27 Co14 2.244 . S
O27 C17 1.272 . S
O27 Co19 2.135 . S
Co28 O29 2.216 . S
Co28 O30 2.091 1_655 S
Co28 O32 2.004 . S
Co28 O38 2.021 . S
Co28 O40 2.137 . S
Co28 O41 2.244 . S
O29 Co28 2.216 . S
O29 C36 1.247 . S
O30 Co28 2.091 1_455 S
O30 C36 1.261 1_455 S
C31 O40 1.247 . S
C31 O41 1.272 . S
O32 Co28 2.004 . S
O32 C37 1.259 . S
Co33 O34 2.061 . S
Co33 O39 2.052 . S
Co33 O41 2.135 . S
O34 Co33 2.061 . S
O34 C37 1.235 . S
C35 O38 1.238 . S
C35 O39 1.241 . S
C36 O29 1.247 . S
C36 O30 1.261 1_655 S
C37 O32 1.259 . S
C37 O34 1.235 . S
O38 Co28 2.021 . S
O38 C35 1.238 . S
O39 Co33 2.052 . S
O39 C35 1.241 . S
O40 Co28 2.137 . S
O40 C31 1.247 . S
O41 Co28 2.244 . S
O41 C31 1.272 . S
O41 Co33 2.135 . S
Co42 O43 2.216 . S
Co42 O44 2.091 1_565 S
Co42 O46 2.004 . S
Co42 O52 2.021 . S
Co42 O54 2.137 . S
Co42 O55 2.244 . S
O43 Co42 2.216 . S
O43 C50 1.247 . S
O44 Co42 2.091 1_545 S
O44 C50 1.261 1_545 S
C45 O54 1.247 . S
C45 O55 1.272 . S
O46 Co42 2.004 . S
O46 C51 1.259 . S
Co47 O48 2.061 . S
Co47 O53 2.052 . S
Co47 O55 2.135 . S
O48 Co47 2.061 . S
O48 C51 1.235 . S
C49 O52 1.238 . S
C49 O53 1.241 . S
C50 O43 1.247 . S
C50 O44 1.261 1_565 S
C51 O46 1.259 . S
C51 O48 1.235 . S
O52 Co42 2.021 . S
O52 C49 1.238 . S
O53 Co47 2.052 . S
O53 C49 1.241 . S
O54 Co42 2.137 . S
O54 C45 1.247 . S
O55 Co42 2.244 . S
O55 C45 1.272 . S
O55 Co47 2.135 . S
Co56 O57 2.216 . S
Co56 O58 2.091 . S
Co56 O60 2.004 . S
Co56 O66 2.021 . S
Co56 O68 2.137 . S
Co56 O69 2.244 . S
O57 Co56 2.216 . S
O57 C64 1.247 . S
O58 Co56 2.091 . S
O58 C64 1.261 . S
C59 O68 1.247 . S
C59 O69 1.272 . S
O60 Co56 2.004 . S
O60 C65 1.259 . S
Co61 O62 2.061 . S
Co61 O67 2.052 . S
Co61 O69 2.135 . S
O62 Co61 2.061 . S
O62 C65 1.235 . S
C63 O66 1.238 . S
C63 O67 1.241 . S
C64 O57 1.247 . S
C64 O58 1.261 . S
C65 O60 1.259 . S
C65 O62 1.235 . S
O66 Co56 2.021 . S
O66 C63 1.238 . S
O67 Co61 2.052 . S
O67 C63 1.241 . S
O68 Co56 2.137 . S
O68 C59 1.247 . S
O69 Co56 2.244 . S
O69 C59 1.272 . S
O69 Co61 2.135 . S
Co70 O71 2.216 . S
Co70 O72 2.091 1_455 S
Co70 O74 2.004 . S
Co70 O80 2.021 . S
Co70 O82 2.137 . S
Co70 O83 2.244 . S
O71 Co70 2.216 . S
O71 C78 1.247 . S
O72 Co70 2.091 1_655 S
O72 C78 1.261 1_655 S
C73 O82 1.247 . S
C73 O83 1.272 . S
O74 Co70 2.004 . S
O74 C79 1.259 . S
Co75 O76 2.061 . S
Co75 O81 2.052 . S
Co75 O83 2.135 . S
O76 Co75 2.061 . S
O76 C79 1.235 . S
C77 O80 1.238 . S
C77 O81 1.241 . S
C78 O71 1.247 . S
C78 O72 1.261 1_455 S
C79 O74 1.259 . S
C79 O76 1.235 . S
O80 Co70 2.021 . S
O80 C77 1.238 . S
O81 Co75 2.052 . S
O81 C77 1.241 . S
O82 Co70 2.137 . S
O82 C73 1.247 . S
O83 Co70 2.244 . S
O83 C73 1.272 . S
O83 Co75 2.135 . S
Co84 O85 2.216 . S
Co84 O86 2.091 1_655 S
Co84 O88 2.004 . S
Co84 O94 2.021 . S
Co84 O96 2.137 . S
Co84 O97 2.244 . S
O85 Co84 2.216 . S
O85 C92 1.247 . S
O86 Co84 2.091 1_455 S
O86 C92 1.261 1_455 S
C87 O96 1.247 . S
C87 O97 1.272 . S
O88 Co84 2.004 . S
O88 C93 1.259 . S
Co89 O90 2.061 . S
Co89 O95 2.052 . S
Co89 O97 2.135 . S
O90 Co89 2.061 . S
O90 C93 1.235 . S
C91 O94 1.238 . S
C91 O95 1.241 . S
C92 O85 1.247 . S
C92 O86 1.261 1_655 S
C93 O88 1.259 . S
C93 O90 1.235 . S
O94 Co84 2.021 . S
O94 C91 1.238 . S
O95 Co89 2.052 . S
O95 C91 1.241 . S
O96 Co84 2.137 . S
O96 C87 1.247 . S
O97 Co84 2.244 . S
O97 C87 1.272 . S
O97 Co89 2.135 . S
Co98 O99 2.216 . S
Co98 O100 2.091 1_565 S
Co98 O102 2.004 . S
Co98 O108 2.021 . S
Co98 O110 2.137 . S
Co98 O111 2.244 . S
O99 Co98 2.216 . S
O99 C106 1.247 . S
O100 Co98 2.091 1_545 S
O100 C106 1.261 1_545 S
C101 O110 1.247 . S
C101 O111 1.272 . S
O102 Co98 2.004 . S
O102 C107 1.259 . S
Co103 O104 2.061 . S
Co103 O109 2.052 . S
Co103 O111 2.135 . S
O104 Co103 2.061 . S
O104 C107 1.235 . S
C105 O108 1.238 . S
C105 O109 1.241 . S
C106 O99 1.247 . S
C106 O100 1.261 1_565 S
C107 O102 1.259 . S
C107 O104 1.235 . S
O108 Co98 2.021 . S
O108 C105 1.238 . S
O109 Co103 2.052 . S
O109 C105 1.241 . S
O110 Co98 2.137 . S
O110 C101 1.247 . S
O111 Co98 2.244 . S
O111 C101 1.272 . S
O111 Co103 2.135 . S
Co112 O113 2.216 . S
Co112 O114 2.091 . S
Co112 O116 2.004 . S
Co112 O122 2.021 . S
Co112 O124 2.137 . S
Co112 O125 2.244 . S
O113 Co112 2.216 . S
O113 C120 1.247 . S
O114 Co112 2.091 . S
O114 C120 1.261 . S
C115 O124 1.247 . S
C115 O125 1.272 . S
O116 Co112 2.004 . S
O116 C121 1.259 . S
Co117 O118 2.061 . S
Co117 O123 2.052 . S
Co117 O125 2.135 . S
O118 Co117 2.061 . S
O118 C121 1.235 . S
C119 O122 1.238 . S
C119 O123 1.241 . S
C120 O113 1.247 . S
C120 O114 1.261 . S
C121 O116 1.259 . S
C121 O118 1.235 . S
O122 Co112 2.021 . S
O122 C119 1.238 . S
O123 Co117 2.052 . S
O123 C119 1.241 . S
O124 Co112 2.137 . S
O124 C115 1.247 . S
O125 Co112 2.244 . S
O125 C115 1.272 . S
O125 Co117 2.135 . S
Co126 O127 2.216 . S
Co126 O128 2.091 1_455 S
Co126 O130 2.004 . S
Co126 O136 2.021 . S
Co126 O138 2.137 . S
Co126 O139 2.244 . S
O127 Co126 2.216 . S
O127 C134 1.247 . S
O128 Co126 2.091 1_655 S
O128 C134 1.261 1_655 S
C129 O138 1.247 . S
C129 O139 1.272 . S
O130 Co126 2.004 . S
O130 C135 1.259 . S
Co131 O132 2.061 . S
Co131 O137 2.052 . S
Co131 O139 2.135 . S
O132 Co131 2.061 . S
O132 C135 1.235 . S
C133 O136 1.238 . S
C133 O137 1.241 . S
C134 O127 1.247 . S
C134 O128 1.261 1_455 S
C135 O130 1.259 . S
C135 O132 1.235 . S
O136 Co126 2.021 . S
O136 C133 1.238 . S
O137 Co131 2.052 . S
O137 C133 1.241 . S
O138 Co126 2.137 . S
O138 C129 1.247 . S
O139 Co126 2.244 . S
O139 C129 1.272 . S
O139 Co131 2.135 . S
Co140 O141 2.216 . S
Co140 O142 2.091 1_545 S
Co140 O144 2.004 . S
Co140 O150 2.021 . S
Co140 O152 2.137 . S
Co140 O153 2.244 . S
O141 Co140 2.216 . S
O141 C148 1.247 . S
O142 Co140 2.091 1_565 S
O142 C148 1.261 1_565 S
C143 O152 1.247 . S
C143 O153 1.272 . S
O144 Co140 2.004 . S
O144 C149 1.259 . S
Co145 O146 2.061 . S
Co145 O151 2.052 . S
Co145 O153 2.135 . S
O146 Co145 2.061 . S
O146 C149 1.235 . S
C147 O150 1.238 . S
C147 O151 1.241 . S
C148 O141 1.247 . S
C148 O142 1.261 1_545 S
C149 O144 1.259 . S
C149 O146 1.235 . S
O150 Co140 2.021 . S
O150 C147 1.238 . S
O151 Co145 2.052 . S
O151 C147 1.241 . S
O152 Co140 2.137 . S
O152 C143 1.247 . S
O153 Co140 2.244 . S
O153 C143 1.272 . S
O153 Co145 2.135 . S
Co154 O155 2.216 . S
Co154 O156 2.091 . S
Co154 O158 2.004 . S
Co154 O164 2.021 . S
Co154 O166 2.137 . S
Co154 O167 2.244 . S
O155 Co154 2.216 . S
O155 C162 1.247 . S
O156 Co154 2.091 . S
O156 C162 1.261 . S
C157 O166 1.247 . S
C157 O167 1.272 . S
O158 Co154 2.004 . S
O158 C163 1.259 . S
Co159 O160 2.061 . S
Co159 O165 2.052 . S
Co159 O167 2.135 . S
O160 Co159 2.061 . S
O160 C163 1.235 . S
C161 O164 1.238 . S
C161 O165 1.241 . S
C162 O155 1.247 . S
C162 O156 1.261 . S
C163 O158 1.259 . S
C163 O160 1.235 . S
O164 Co154 2.021 . S
O164 C161 1.238 . S
O165 Co159 2.052 . S
O165 C161 1.241 . S
O166 Co154 2.137 . S
O166 C157 1.247 . S
O167 Co154 2.244 . S
O167 C157 1.272 . S
O167 Co159 2.135 . S
Co168 O169 2.216 . S
Co168 O170 2.091 1_565 S
Co168 O172 2.004 . S
Co168 O178 2.021 . S
Co168 O180 2.137 . S
Co168 O181 2.244 . S
O169 Co168 2.216 . S
O169 C176 1.247 . S
O170 Co168 2.091 1_545 S
O170 C176 1.261 1_545 S
C171 O180 1.247 . S
C171 O181 1.272 . S
O172 Co168 2.004 . S
O172 C177 1.259 . S
Co173 O174 2.061 . S
Co173 O179 2.052 . S
Co173 O181 2.135 . S
O174 Co173 2.061 . S
O174 C177 1.235 . S
C175 O178 1.238 . S
C175 O179 1.241 . S
C176 O169 1.247 . S
C176 O170 1.261 1_565 S
C177 O172 1.259 . S
C177 O174 1.235 . S
O178 Co168 2.021 . S
O178 C175 1.238 . S
O179 Co173 2.052 . S
O179 C175 1.241 . S
O180 Co168 2.137 . S
O180 C171 1.247 . S
O181 Co168 2.244 . S
O181 C171 1.272 . S
O181 Co173 2.135 . S
Co182 O183 2.216 . S
Co182 O184 2.091 . S
Co182 O186 2.004 . S
Co182 O192 2.021 . S
Co182 O194 2.137 . S
Co182 O195 2.244 . S
O183 Co182 2.216 . S
O183 C190 1.247 . S
O184 Co182 2.091 . S
O184 C190 1.261 . S
C185 O194 1.247 . S
C185 O195 1.272 . S
O186 Co182 2.004 . S
O186 C191 1.259 . S
Co187 O188 2.061 . S
Co187 O193 2.052 . S
Co187 O195 2.135 . S
O188 Co187 2.061 . S
O188 C191 1.235 . S
C189 O192 1.238 . S
C189 O193 1.241 . S
C190 O183 1.247 . S
C190 O184 1.261 . S
C191 O186 1.259 . S
C191 O188 1.235 . S
O192 Co182 2.021 . S
O192 C189 1.238 . S
O193 Co187 2.052 . S
O193 C189 1.241 . S
O194 Co182 2.137 . S
O194 C185 1.247 . S
O195 Co182 2.244 . S
O195 C185 1.272 . S
O195 Co187 2.135 . S
Co196 O197 2.216 . S
Co196 O198 2.091 1_455 S
Co196 O200 2.004 . S
Co196 O206 2.021 . S
Co196 O208 2.137 . S
Co196 O209 2.244 . S
O197 Co196 2.216 . S
O197 C204 1.247 . S
O198 Co196 2.091 1_655 S
O198 C204 1.261 1_655 S
C199 O208 1.247 . S
C199 O209 1.272 . S
O200 Co196 2.004 . S
O200 C205 1.259 . S
Co201 O202 2.061 . S
Co201 O207 2.052 . S
Co201 O209 2.135 . S
O202 Co201 2.061 . S
O202 C205 1.235 . S
C203 O206 1.238 . S
C203 O207 1.241 . S
C204 O197 1.247 . S
C204 O198 1.261 1_455 S
C205 O200 1.259 . S
C205 O202 1.235 . S
O206 Co196 2.021 . S
O206 C203 1.238 . S
O207 Co201 2.052 . S
O207 C203 1.241 . S
O208 Co196 2.137 . S
O208 C199 1.247 . S
O209 Co196 2.244 . S
O209 C199 1.272 . S
O209 Co201 2.135 . S
Co210 O211 2.216 . S
Co210 O212 2.091 1_545 S
Co210 O214 2.004 . S
Co210 O220 2.021 . S
Co210 O222 2.137 . S
Co210 O223 2.244 . S
O211 Co210 2.216 . S
O211 C218 1.247 . S
O212 Co210 2.091 1_565 S
O212 C218 1.261 1_565 S
C213 O222 1.247 . S
C213 O223 1.272 . S
O214 Co210 2.004 . S
O214 C219 1.259 . S
Co215 O216 2.061 . S
Co215 O221 2.052 . S
Co215 O223 2.135 . S
O216 Co215 2.061 . S
O216 C219 1.235 . S
C217 O220 1.238 . S
C217 O221 1.241 . S
C218 O211 1.247 . S
C218 O212 1.261 1_545 S
C219 O214 1.259 . S
C219 O216 1.235 . S
O220 Co210 2.021 . S
O220 C217 1.238 . S
O221 Co215 2.052 . S
O221 C217 1.241 . S
O222 Co210 2.137 . S
O222 C213 1.247 . S
O223 Co210 2.244 . S
O223 C213 1.272 . S
O223 Co215 2.135 . S
Co224 O225 2.216 . S
Co224 O226 2.091 . S
Co224 O228 2.004 . S
Co224 O234 2.021 . S
Co224 O236 2.137 . S
Co224 O237 2.244 . S
O225 Co224 2.216 . S
O225 C232 1.247 . S
O226 Co224 2.091 . S
O226 C232 1.261 . S
C227 O236 1.247 . S
C227 O237 1.272 . S
O228 Co224 2.004 . S
O228 C233 1.259 . S
Co229 O230 2.061 . S
Co229 O235 2.052 . S
Co229 O237 2.135 . S
O230 Co229 2.061 . S
O230 C233 1.235 . S
C231 O234 1.238 . S
C231 O235 1.241 . S
C232 O225 1.247 . S
C232 O226 1.261 . S
C233 O228 1.259 . S
C233 O230 1.235 . S
O234 Co224 2.021 . S
O234 C231 1.238 . S
O235 Co229 2.052 . S
O235 C231 1.241 . S
O236 Co224 2.137 . S
O236 C227 1.247 . S
O237 Co224 2.244 . S
O237 C227 1.272 . S
O237 Co229 2.135 . S
Co238 O239 2.216 . S
Co238 O240 2.091 1_655 S
Co238 O242 2.004 . S
Co238 O248 2.021 . S
Co238 O250 2.137 . S
Co238 O251 2.244 . S
O239 Co238 2.216 . S
O239 C246 1.247 . S
O240 Co238 2.091 1_455 S
O240 C246 1.261 1_455 S
C241 O250 1.247 . S
C241 O251 1.272 . S
O242 Co238 2.004 . S
O242 C247 1.259 . S
Co243 O244 2.061 . S
Co243 O249 2.052 . S
Co243 O251 2.135 . S
O244 Co243 2.061 . S
O244 C247 1.235 . S
C245 O248 1.238 . S
C245 O249 1.241 . S
C246 O239 1.247 . S
C246 O240 1.261 1_655 S
C247 O242 1.259 . S
C247 O244 1.235 . S
O248 Co238 2.021 . S
O248 C245 1.238 . S
O249 Co243 2.052 . S
O249 C245 1.241 . S
O250 Co238 2.137 . S
O250 C241 1.247 . S
O251 Co238 2.244 . S
O251 C241 1.272 . S
O251 Co243 2.135 . S
Co252 O253 2.216 . S
Co252 O254 2.091 1_455 S
Co252 O256 2.004 . S
Co252 O262 2.021 . S
Co252 O264 2.137 . S
Co252 O265 2.244 . S
O253 Co252 2.216 . S
O253 C260 1.247 . S
O254 Co252 2.091 1_655 S
O254 C260 1.261 1_655 S
C255 O264 1.247 . S
C255 O265 1.272 . S
O256 Co252 2.004 . S
O256 C261 1.259 . S
Co257 O258 2.061 . S
Co257 O263 2.052 . S
Co257 O265 2.135 . S
O258 Co257 2.061 . S
O258 C261 1.235 . S
C259 O262 1.238 . S
C259 O263 1.241 . S
C260 O253 1.247 . S
C260 O254 1.261 1_455 S
C261 O256 1.259 . S
C261 O258 1.235 . S
O262 Co252 2.021 . S
O262 C259 1.238 . S
O263 Co257 2.052 . S
O263 C259 1.241 . S
O264 Co252 2.137 . S
O264 C255 1.247 . S
O265 Co252 2.244 . S
O265 C255 1.272 . S
O265 Co257 2.135 . S
Co266 O267 2.216 . S
Co266 O268 2.091 1_545 S
Co266 O270 2.004 . S
Co266 O276 2.021 . S
Co266 O278 2.137 . S
Co266 O279 2.244 . S
O267 Co266 2.216 . S
O267 C274 1.247 . S
O268 Co266 2.091 1_565 S
O268 C274 1.261 1_565 S
C269 O278 1.247 . S
C269 O279 1.272 . S
O270 Co266 2.004 . S
O270 C275 1.259 . S
Co271 O272 2.061 . S
Co271 O277 2.052 . S
Co271 O279 2.135 . S
O272 Co271 2.061 . S
O272 C275 1.235 . S
C273 O276 1.238 . S
C273 O277 1.241 . S
C274 O267 1.247 . S
C274 O268 1.261 1_545 S
C275 O270 1.259 . S
C275 O272 1.235 . S
O276 Co266 2.021 . S
O276 C273 1.238 . S
O277 Co271 2.052 . S
O277 C273 1.241 . S
O278 Co266 2.137 . S
O278 C269 1.247 . S
O279 Co266 2.244 . S
O279 C269 1.272 . S
O279 Co271 2.135 . S
Co280 O281 2.216 . S
Co280 O282 2.091 . S
Co280 O284 2.004 . S
Co280 O290 2.021 . S
Co280 O292 2.137 . S
Co280 O293 2.244 . S
O281 Co280 2.216 . S
O281 C288 1.247 . S
O282 Co280 2.091 . S
O282 C288 1.261 . S
C283 O292 1.247 . S
C283 O293 1.272 . S
O284 Co280 2.004 . S
O284 C289 1.259 . S
Co285 O286 2.061 . S
Co285 O291 2.052 . S
Co285 O293 2.135 . S
O286 Co285 2.061 . S
O286 C289 1.235 . S
C287 O290 1.238 . S
C287 O291 1.241 . S
C288 O281 1.247 . S
C288 O282 1.261 . S
C289 O284 1.259 . S
C289 O286 1.235 . S
O290 Co280 2.021 . S
O290 C287 1.238 . S
O291 Co285 2.052 . S
O291 C287 1.241 . S
O292 Co280 2.137 . S
O292 C283 1.247 . S
O293 Co280 2.244 . S
O293 C283 1.272 . S
O293 Co285 2.135 . S
Co294 O295 2.216 . S
Co294 O296 2.091 1_655 S
Co294 O298 2.004 . S
Co294 O304 2.021 . S
Co294 O306 2.137 . S
Co294 O307 2.244 . S
O295 Co294 2.216 . S
O295 C302 1.247 . S
O296 Co294 2.091 1_455 S
O296 C302 1.261 1_455 S
C297 O306 1.247 . S
C297 O307 1.272 . S
O298 Co294 2.004 . S
O298 C303 1.259 . S
Co299 O300 2.061 . S
Co299 O305 2.052 . S
Co299 O307 2.135 . S
O300 Co299 2.061 . S
O300 C303 1.235 . S
C301 O304 1.238 . S
C301 O305 1.241 . S
C302 O295 1.247 . S
C302 O296 1.261 1_655 S
C303 O298 1.259 . S
C303 O300 1.235 . S
O304 Co294 2.021 . S
O304 C301 1.238 . S
O305 Co299 2.052 . S
O305 C301 1.241 . S
O306 Co294 2.137 . S
O306 C297 1.247 . S
O307 Co294 2.244 . S
O307 C297 1.272 . S
O307 Co299 2.135 . S
Co308 O309 2.216 . S
Co308 O310 2.091 1_565 S
Co308 O312 2.004 . S
Co308 O318 2.021 . S
Co308 O320 2.137 . S
Co308 O321 2.244 . S
O309 Co308 2.216 . S
O309 C316 1.247 . S
O310 Co308 2.091 1_545 S
O310 C316 1.261 1_545 S
C311 O320 1.247 . S
C311 O321 1.272 . S
O312 Co308 2.004 . S
O312 C317 1.259 . S
Co313 O314 2.061 . S
Co313 O319 2.052 . S
Co313 O321 2.135 . S
O314 Co313 2.061 . S
O314 C317 1.235 . S
C315 O318 1.238 . S
C315 O319 1.241 . S
C316 O309 1.247 . S
C316 O310 1.261 1_565 S
C317 O312 1.259 . S
C317 O314 1.235 . S
O318 Co308 2.021 . S
O318 C315 1.238 . S
O319 Co313 2.052 . S
O319 C315 1.241 . S
O320 Co308 2.137 . S
O320 C311 1.247 . S
O321 Co308 2.244 . S
O321 C311 1.272 . S
O321 Co313 2.135 . S
Co322 O323 2.216 . S
Co322 O324 2.091 . S
Co322 O326 2.004 . S
Co322 O332 2.021 . S
Co322 O334 2.137 . S
Co322 O335 2.244 . S
O323 Co322 2.216 . S
O323 C330 1.247 . S
O324 Co322 2.091 . S
O324 C330 1.261 . S
C325 O334 1.247 . S
C325 O335 1.272 . S
O326 Co322 2.004 . S
O326 C331 1.259 . S
Co327 O328 2.061 . S
Co327 O333 2.052 . S
Co327 O335 2.135 . S
O328 Co327 2.061 . S
O328 C331 1.235 . S
C329 O332 1.238 . S
C329 O333 1.241 . S
C330 O323 1.247 . S
C330 O324 1.261 . S
C331 O326 1.259 . S
C331 O328 1.235 . S
O332 Co322 2.021 . S
O332 C329 1.238 . S
O333 Co327 2.052 . S
O333 C329 1.241 . S
O334 Co322 2.137 . S
O334 C325 1.247 . S
O335 Co322 2.244 . S
O335 C325 1.272 . S
O335 Co327 2.135 . S
C336 C337 1.369 . S
C336 C338 1.419 . S
C336 H340 0.930 . S
C337 C336 1.369 . S
C337 C346 1.429 . S
C338 C336 1.419 . S
C338 C339 1.363 . S
C338 H341 0.929 . S
C339 C338 1.363 . S
C339 C345 1.428 . S
H340 C336 0.930 . S
H341 C338 0.929 . S
S342 N343 1.613 . S
S342 N344 1.610 . S
N343 S342 1.613 . S
N343 C346 1.350 . S
N344 S342 1.610 . S
N344 C345 1.351 . S
C345 C339 1.428 . S
C345 N344 1.351 . S
C345 C346 1.434 . S
C346 C337 1.429 . S
C346 N343 1.350 . S
C346 C345 1.434 . S
C347 C348 1.369 . S
C347 C349 1.419 . S
C347 H351 0.930 . S
C348 C347 1.369 . S
C348 C357 1.429 . S
C349 C347 1.419 . S
C349 C350 1.363 . S
C349 H352 0.929 . S
C350 C349 1.363 . S
C350 C356 1.428 . S
H351 C347 0.930 . S
H352 C349 0.929 . S
S353 N354 1.613 . S
S353 N355 1.610 . S
N354 S353 1.613 . S
N354 C357 1.350 . S
N355 S353 1.610 . S
N355 C356 1.351 . S
C356 C350 1.428 . S
C356 N355 1.351 . S
C356 C357 1.434 . S
C357 C348 1.429 . S
C357 N354 1.350 . S
C357 C356 1.434 . S
C358 C359 1.369 . S
C358 C360 1.419 . S
C358 H362 0.930 . S
C359 C358 1.369 . S
C359 C368 1.429 . S
C360 C358 1.419 . S
C360 C361 1.363 . S
C360 H363 0.929 . S
C361 C360 1.363 . S
C361 C367 1.428 . S
H362 C358 0.930 . S
H363 C360 0.929 . S
S364 N365 1.615 . S
S364 N366 1.612 . S
N365 S364 1.615 . S
N365 C368 1.350 . S
N366 S364 1.612 . S
N366 C367 1.351 . S
C367 C361 1.428 . S
C367 N366 1.351 . S
C367 C368 1.434 . S
C368 C359 1.429 . S
C368 N365 1.350 . S
C368 C367 1.434 . S
C369 C370 1.369 . S
C369 C371 1.419 . S
C369 H373 0.930 . S
C370 C369 1.369 . S
C370 C379 1.429 . S
C371 C369 1.419 . S
C371 C372 1.363 . S
C371 H374 0.929 . S
C372 C371 1.363 . S
C372 C378 1.428 . S
H373 C369 0.930 . S
H374 C371 0.929 . S
S375 N376 1.613 . S
S375 N377 1.610 . S
N376 S375 1.613 . S
N376 C379 1.350 . S
N377 S375 1.610 . S
N377 C378 1.351 . S
C378 C372 1.428 . S
C378 N377 1.351 . S
C378 C379 1.434 . S
C379 C370 1.429 . S
C379 N376 1.350 . S
C379 C378 1.434 . S
C380 C381 1.369 . S
C380 C382 1.419 . S
C380 H384 0.930 . S
C381 C380 1.369 . S
C381 C390 1.429 . S
C382 C380 1.419 . S
C382 C383 1.363 . S
C382 H385 0.929 . S
C383 C382 1.363 . S
C383 C389 1.428 . S
H384 C380 0.930 . S
H385 C382 0.929 . S
S386 N387 1.613 . S
S386 N388 1.610 . S
N387 S386 1.613 . S
N387 C390 1.350 . S
N388 S386 1.610 . S
N388 C389 1.351 . S
C389 C383 1.428 . S
C389 N388 1.351 . S
C389 C390 1.434 . S
C390 C381 1.429 . S
C390 N387 1.350 . S
C390 C389 1.434 . S
C391 C392 1.369 . S
C391 C393 1.419 . S
C391 H395 0.930 . S
C392 C391 1.369 . S
C392 C401 1.429 . S
C393 C391 1.419 . S
C393 C394 1.363 . S
C393 H396 0.929 . S
C394 C393 1.363 . S
C394 C400 1.428 . S
H395 C391 0.930 . S
H396 C393 0.929 . S
S397 N398 1.613 . S
S397 N399 1.610 . S
N398 S397 1.613 . S
N398 C401 1.350 1_655 S
N399 S397 1.610 . S
N399 C400 1.351 1_655 S
C400 C394 1.428 . S
C400 N399 1.351 1_455 S
C400 C401 1.434 . S
C401 C392 1.429 . S
C401 N398 1.350 1_455 S
C401 C400 1.434 . S
C402 C403 1.369 . S
C402 C404 1.419 . S
C402 H406 0.930 . S
C403 C402 1.369 . S
C403 C412 1.429 . S
C404 C402 1.419 . S
C404 C405 1.363 . S
C404 H407 0.929 . S
C405 C404 1.363 . S
C405 C411 1.428 . S
H406 C402 0.930 . S
H407 C404 0.929 . S
S408 N409 1.616 1_455 S
S408 N410 1.613 1_455 S
N409 S408 1.616 1_655 S
N409 C412 1.350 . S
N410 S408 1.613 1_655 S
N410 C411 1.351 . S
C411 C405 1.428 . S
C411 N410 1.351 . S
C411 C412 1.434 . S
C412 C403 1.429 . S
C412 N409 1.350 . S
C412 C411 1.434 . S
C413 C414 1.369 . S
C413 C415 1.419 . S
C413 H417 0.930 . S
C414 C413 1.369 . S
C414 C423 1.429 1_565 S
C415 C413 1.419 . S
C415 C416 1.363 . S
C415 H418 0.929 . S
C416 C415 1.363 . S
C416 C422 1.428 1_565 S
H417 C413 0.930 . S
H418 C415 0.929 . S
S419 N420 1.613 . S
S419 N421 1.610 . S
N420 S419 1.613 . S
N420 C423 1.350 . S
N421 S419 1.610 . S
N421 C422 1.351 . S
C422 C416 1.428 1_545 S
C422 N421 1.351 . S
C422 C423 1.434 . S
C423 C414 1.429 1_545 S
C423 N420 1.350 . S
C423 C422 1.434 . S
C424 C425 1.369 . S
C424 C426 1.419 . S
C424 H428 0.930 . S
C425 C424 1.369 . S
C425 C434 1.429 . S
C426 C424 1.419 . S
C426 C427 1.363 . S
C426 H429 0.929 . S
C427 C426 1.363 . S
C427 C433 1.428 . S
H428 C424 0.930 . S
H429 C426 0.929 . S
S430 N431 1.613 . S
S430 N432 1.610 . S
N431 S430 1.613 . S
N431 C434 1.350 . S
N432 S430 1.610 . S
N432 C433 1.351 . S
C433 C427 1.428 . S
C433 N432 1.351 . S
C433 C434 1.434 . S
C434 C425 1.429 . S
C434 N431 1.350 . S
C434 C433 1.434 . S
C435 C436 1.369 . S
C435 C437 1.419 . S
C435 H439 0.930 . S
C436 C435 1.369 . S
C436 C445 1.429 . S
C437 C435 1.419 . S
C437 C438 1.363 . S
C437 H440 0.929 . S
C438 C437 1.363 . S
C438 C444 1.428 . S
H439 C435 0.930 . S
H440 C437 0.929 . S
S441 N442 1.613 . S
S441 N443 1.610 . S
N442 S441 1.613 . S
N442 C445 1.350 . S
N443 S441 1.610 . S
N443 C444 1.351 . S
C444 C438 1.428 . S
C444 N443 1.351 . S
C444 C445 1.434 . S
C445 C436 1.429 . S
C445 N442 1.350 . S
C445 C444 1.434 . S
C446 C447 1.369 . S
C446 C448 1.419 . S
C446 H450 0.930 . S
C447 C446 1.369 . S
C447 C456 1.429 . S
C448 C446 1.419 . S
C448 C449 1.363 . S
C448 H451 0.929 . S
C449 C448 1.363 . S
C449 C455 1.428 . S
H450 C446 0.930 . S
H451 C448 0.929 . S
S452 N453 1.613 . S
S452 N454 1.610 . S
N453 S452 1.613 . S
N453 C456 1.350 1_565 S
N454 S452 1.610 . S
N454 C455 1.351 1_565 S
C455 C449 1.428 . S
C455 N454 1.351 1_545 S
C455 C456 1.434 . S
C456 C447 1.429 . S
C456 N453 1.350 1_545 S
C456 C455 1.434 . S
C457 C458 1.369 . S
C457 C459 1.419 . S
C457 H461 0.930 . S
C458 C457 1.369 . S
C458 C467 1.429 . S
C459 C457 1.419 . S
C459 C460 1.363 . S
C459 H462 0.929 . S
C460 C459 1.363 . S
C460 C466 1.428 . S
H461 C457 0.930 . S
H462 C459 0.929 . S
S463 N464 1.613 . S
S463 N465 1.610 . S
N464 S463 1.613 . S
N464 C467 1.350 . S
N465 S463 1.610 . S
N465 C466 1.351 . S
C466 C460 1.428 . S
C466 N465 1.351 . S
C466 C467 1.434 . S
C467 C458 1.429 . S
C467 N464 1.350 . S
C467 C466 1.434 . S
C468 C469 1.369 . S
C468 C470 1.419 . S
C468 H472 0.930 . S
C469 C468 1.369 . S
C469 C478 1.429 . S
C470 C468 1.419 . S
C470 C471 1.363 . S
C470 H473 0.929 . S
C471 C470 1.363 . S
C471 C477 1.428 . S
H472 C468 0.930 . S
H473 C470 0.929 . S
S474 N475 1.613 . S
S474 N476 1.610 . S
N475 S474 1.613 . S
N475 C478 1.350 . S
N476 S474 1.610 . S
N476 C477 1.351 . S
C477 C471 1.428 . S
C477 N476 1.351 . S
C477 C478 1.434 . S
C478 C469 1.429 . S
C478 N475 1.350 . S
C478 C477 1.434 . S
C479 C480 1.369 . S
C479 C481 1.419 . S
C479 H483 0.930 . S
C480 C479 1.369 . S
C480 C489 1.429 . S
C481 C479 1.419 . S
C481 C482 1.363 . S
C481 H484 0.929 . S
C482 C481 1.363 . S
C482 C488 1.428 . S
H483 C479 0.930 . S
H484 C481 0.929 . S
S485 N486 1.613 . S
S485 N487 1.610 . S
N486 S485 1.613 . S
N486 C489 1.350 . S
N487 S485 1.610 . S
N487 C488 1.351 . S
C488 C482 1.428 . S
C488 N487 1.351 . S
C488 C489 1.434 . S
C489 C480 1.429 . S
C489 N486 1.350 . S
C489 C488 1.434 . S
C490 C491 1.369 . S
C490 C492 1.419 . S
C490 H494 0.930 . S
C491 C490 1.369 . S
C491 C500 1.429 . S
C492 C490 1.419 . S
C492 C493 1.363 . S
C492 H495 0.929 . S
C493 C492 1.363 . S
C493 C499 1.428 . S
H494 C490 0.930 . S
H495 C492 0.929 . S
S496 N497 1.613 . S
S496 N498 1.610 . S
N497 S496 1.613 . S
N497 C500 1.350 . S
N498 S496 1.610 . S
N498 C499 1.351 . S
C499 C493 1.428 . S
C499 N498 1.351 . S
C499 C500 1.434 . S
C500 C491 1.429 . S
C500 N497 1.350 . S
C500 C499 1.434 . S
C501 C502 1.369 . S
C501 C503 1.419 . S
C501 H505 0.930 . S
C502 C501 1.369 . S
C502 C511 1.429 . S
C503 C501 1.419 . S
C503 C504 1.363 . S
C503 H506 0.929 . S
C504 C503 1.363 . S
C504 C510 1.428 . S
H505 C501 0.930 . S
H506 C503 0.929 . S
S507 N508 1.613 . S
S507 N509 1.610 . S
N508 S507 1.613 . S
N508 C511 1.350 . S
N509 S507 1.610 . S
N509 C510 1.351 . S
C510 C504 1.428 . S
C510 N509 1.351 . S
C510 C511 1.434 . S
C511 C502 1.429 . S
C511 N508 1.350 . S
C511 C510 1.434 . S
C512 C513 1.369 . S
C512 C514 1.419 . S
C512 H516 0.930 . S
C513 C512 1.369 . S
C513 C522 1.429 . S
C514 C512 1.419 . S
C514 C515 1.363 . S
C514 H517 0.929 . S
C515 C514 1.363 . S
C515 C521 1.428 . S
H516 C512 0.930 . S
H517 C514 0.929 . S
S518 N519 1.613 . S
S518 N520 1.610 . S
N519 S518 1.613 . S
N519 C522 1.350 . S
N520 S518 1.610 . S
N520 C521 1.351 . S
C521 C515 1.428 . S
C521 N520 1.351 . S
C521 C522 1.434 . S
C522 C513 1.429 . S
C522 N519 1.350 . S
C522 C521 1.434 . S
C523 C524 1.369 . S
C523 C525 1.419 . S
C523 H527 0.930 . S
C524 C523 1.369 . S
C524 C533 1.429 . S
C525 C523 1.419 . S
C525 C526 1.363 . S
C525 H528 0.929 . S
C526 C525 1.363 . S
C526 C532 1.428 . S
H527 C523 0.930 . S
H528 C525 0.929 . S
S529 N530 1.613 . S
S529 N531 1.610 . S
N530 S529 1.613 . S
N530 C533 1.350 . S
N531 S529 1.610 . S
N531 C532 1.351 . S
C532 C526 1.428 . S
C532 N531 1.351 . S
C532 C533 1.434 . S
C533 C524 1.429 . S
C533 N530 1.350 . S
C533 C532 1.434 . S
C534 C535 1.369 . S
C534 C536 1.419 . S
C534 H538 0.930 . S
C535 C534 1.369 . S
C535 C544 1.429 . S
C536 C534 1.419 . S
C536 C537 1.363 . S
C536 H539 0.929 . S
C537 C536 1.363 . S
C537 C543 1.428 . S
H538 C534 0.930 . S
H539 C536 0.929 . S
S540 N541 1.613 . S
S540 N542 1.610 . S
N541 S540 1.613 . S
N541 C544 1.350 . S
N542 S540 1.610 . S
N542 C543 1.351 . S
C543 C537 1.428 . S
C543 N542 1.351 . S
C543 C544 1.434 . S
C544 C535 1.429 . S
C544 N541 1.350 . S
C544 C543 1.434 . S
C545 C546 1.369 . S
C545 C547 1.419 . S
C545 H549 0.930 . S
C546 C545 1.369 . S
C546 C555 1.429 . S
C547 C545 1.419 . S
C547 C548 1.363 . S
C547 H550 0.929 . S
C548 C547 1.363 . S
C548 C554 1.428 . S
H549 C545 0.930 . S
H550 C547 0.929 . S
S551 N552 1.613 . S
S551 N553 1.610 . S
N552 S551 1.613 . S
N552 C555 1.350 . S
N553 S551 1.610 . S
N553 C554 1.351 . S
C554 C548 1.428 . S
C554 N553 1.351 . S
C554 C555 1.434 . S
C555 C546 1.429 . S
C555 N552 1.350 . S
C555 C554 1.434 . S
C556 C557 1.369 . S
C556 C558 1.419 . S
C556 H560 0.930 . S
C557 C556 1.369 . S
C557 C566 1.429 . S
C558 C556 1.419 . S
C558 C559 1.363 . S
C558 H561 0.929 . S
C559 C558 1.363 . S
C559 C565 1.428 . S
H560 C556 0.930 . S
H561 C558 0.929 . S
S562 N563 1.613 . S
S562 N564 1.610 . S
N563 S562 1.613 . S
N563 C566 1.350 . S
N564 S562 1.610 . S
N564 C565 1.351 . S
C565 C559 1.428 . S
C565 N564 1.351 . S
C565 C566 1.434 . S
C566 C557 1.429 . S
C566 N563 1.350 . S
C566 C565 1.434 . S
C567 C568 1.369 . S
C567 C569 1.419 . S
C567 H571 0.930 . S
C568 C567 1.369 . S
C568 C577 1.429 . S
C569 C567 1.419 . S
C569 C570 1.363 . S
C569 H572 0.929 . S
C570 C569 1.363 . S
C570 C576 1.428 . S
H571 C567 0.930 . S
H572 C569 0.929 . S
S573 N574 1.613 . S
S573 N575 1.610 . S
N574 S573 1.613 . S
N574 C577 1.350 . S
N575 S573 1.610 . S
N575 C576 1.351 . S
C576 C570 1.428 . S
C576 N575 1.351 . S
C576 C577 1.434 . S
C577 C568 1.429 . S
C577 N574 1.350 . S
C577 C576 1.434 . S
C578 C579 1.369 . S
C578 C580 1.419 . S
C578 H582 0.930 . S
C579 C578 1.369 . S
C579 C588 1.429 . S
C580 C578 1.419 . S
C580 C581 1.363 . S
C580 H583 0.929 . S
C581 C580 1.363 . S
C581 C587 1.428 . S
H582 C578 0.930 . S
H583 C580 0.929 . S
S584 N585 1.613 . S
S584 N586 1.610 . S
N585 S584 1.613 . S
N585 C588 1.350 . S
N586 S584 1.610 . S
N586 C587 1.351 . S
C587 C581 1.428 . S
C587 N586 1.351 . S
C587 C588 1.434 . S
C588 C579 1.429 . S
C588 N585 1.350 . S
C588 C587 1.434 . S
C589 C590 1.369 . S
C589 C591 1.419 . S
C589 H593 0.930 . S
C590 C589 1.369 . S
C590 C599 1.429 . S
C591 C589 1.419 . S
C591 C592 1.363 . S
C591 H594 0.929 . S
C592 C591 1.363 . S
C592 C598 1.428 . S
H593 C589 0.930 . S
H594 C591 0.929 . S
S595 N596 1.613 . S
S595 N597 1.610 . S
N596 S595 1.613 . S
N596 C599 1.350 . S
N597 S595 1.610 . S
N597 C598 1.351 . S
C598 C592 1.428 . S
C598 N597 1.351 . S
C598 C599 1.434 . S
C599 C590 1.429 . S
C599 N596 1.350 . S
C599 C598 1.434 . S
C600 C601 1.369 1_545 S
C600 C602 1.419 1_556 S
C600 H604 0.930 . S
C601 C600 1.369 1_565 S
C601 C610 1.429 . S
C602 C600 1.419 1_554 S
C602 C603 1.363 . S
C602 H605 0.929 . S
C603 C602 1.363 . S
C603 C609 1.428 1_545 S
H604 C600 0.930 . S
H605 C602 0.929 . S
S606 N607 1.613 1_554 S
S606 N608 1.610 . S
N607 S606 1.613 1_556 S
N607 C610 1.350 . S
N608 S606 1.610 . S
N608 C609 1.351 . S
C609 C603 1.428 1_565 S
C609 N608 1.351 . S
C609 C610 1.434 1_554 S
C610 C601 1.429 . S
C610 N607 1.350 . S
C610 C609 1.434 1_556 S
C611 C612 1.369 . S
C611 C613 1.419 . S
C611 H615 0.930 . S
C612 C611 1.369 . S
C612 C621 1.429 . S
C613 C611 1.419 . S
C613 C614 1.363 . S
C613 H616 0.929 . S
C614 C613 1.363 . S
C614 C620 1.428 . S
H615 C611 0.930 . S
H616 C613 0.929 . S
S617 N618 1.613 . S
S617 N619 1.610 . S
N618 S617 1.613 . S
N618 C621 1.350 . S
N619 S617 1.610 . S
N619 C620 1.351 . S
C620 C614 1.428 . S
C620 N619 1.351 . S
C620 C621 1.434 . S
C621 C612 1.429 . S
C621 N618 1.350 . S
C621 C620 1.434 . S
C622 C623 1.369 1_655 S
C622 C624 1.419 1_556 S
C622 H626 0.930 . S
C623 C622 1.369 1_455 S
C623 C632 1.429 . S
C624 C622 1.419 1_554 S
C624 C625 1.363 . S
C624 H627 0.929 . S
C625 C624 1.363 . S
C625 C631 1.428 1_655 S
H626 C622 0.930 . S
H627 C624 0.929 . S
S628 N629 1.613 1_554 S
S628 N630 1.610 . S
N629 S628 1.613 1_556 S
N629 C632 1.350 . S
N630 S628 1.610 . S
N630 C631 1.351 . S
C631 C625 1.428 1_455 S
C631 N630 1.351 . S
C631 C632 1.434 1_554 S
C632 C623 1.429 . S
C632 N629 1.350 . S
C632 C631 1.434 1_556 S
C633 C634 1.369 1_565 S
C633 C635 1.419 . S
C633 H637 0.930 . S
C634 C633 1.369 1_545 S
C634 C643 1.429 . S
C635 C633 1.419 . S
C635 C636 1.363 . S
C635 H638 0.929 . S
C636 C635 1.363 . S
C636 C642 1.428 1_565 S
H637 C633 0.930 . S
H638 C635 0.929 . S
S639 N640 1.613 . S
S639 N641 1.610 . S
N640 S639 1.613 . S
N640 C643 1.350 . S
N641 S639 1.610 . S
N641 C642 1.351 . S
C642 C636 1.428 1_545 S
C642 N641 1.351 . S
C642 C643 1.434 . S
C643 C634 1.429 . S
C643 N640 1.350 . S
C643 C642 1.434 . S
C644 C645 1.369 . S
C644 C646 1.419 1_554 S
C644 H648 0.930 . S
C645 C644 1.369 . S
C645 C654 1.429 . S
C646 C644 1.419 1_556 S
C646 C647 1.363 . S
C646 H649 0.929 . S
C647 C646 1.363 . S
C647 C653 1.428 . S
H648 C644 0.930 . S
H649 C646 0.929 . S
S650 N651 1.613 1_556 S
S650 N652 1.610 . S
N651 S650 1.613 1_554 S
N651 C654 1.350 . S
N652 S650 1.610 . S
N652 C653 1.351 . S
C653 C647 1.428 . S
C653 N652 1.351 . S
C653 C654 1.434 1_556 S
C654 C645 1.429 . S
C654 N651 1.350 . S
C654 C653 1.434 1_554 S
C655 C656 1.369 . S
C655 C657 1.419 . S
C655 H659 0.930 . S
C656 C655 1.369 . S
C656 C665 1.429 1_455 S
C657 C655 1.419 . S
C657 C658 1.363 1_455 S
C657 H660 0.929 . S
C658 C657 1.363 1_655 S
C658 C664 1.428 . S
H659 C655 0.930 . S
H660 C657 0.929 . S
S661 N662 1.613 . S
S661 N663 1.610 . S
N662 S661 1.613 . S
N662 C665 1.350 . S
N663 S661 1.610 . S
N663 C664 1.351 . S
C664 C658 1.428 . S
C664 N663 1.351 . S
C664 C665 1.434 . S
C665 C656 1.429 1_655 S
C665 N662 1.350 . S
C665 C664 1.434 . S
C666 C667 1.369 . S
C666 C668 1.419 1_556 S
C666 H670 0.930 . S
C667 C666 1.369 . S
C667 C676 1.429 1_565 S
C668 C666 1.419 1_554 S
C668 C669 1.363 1_565 S
C668 H671 0.929 . S
C669 C668 1.363 1_545 S
C669 C675 1.428 . S
H670 C666 0.930 . S
H671 C668 0.929 . S
S672 N673 1.613 . S
S672 N674 1.610 1_556 S
N673 S672 1.613 . S
N673 C676 1.350 . S
N674 S672 1.610 1_554 S
N674 C675 1.351 . S
C675 C669 1.428 . S
C675 N674 1.351 . S
C675 C676 1.434 1_554 S
C676 C667 1.429 1_545 S
C676 N673 1.350 . S
C676 C675 1.434 1_556 S
C677 C678 1.369 . S
C677 C679 1.419 . S
C677 H681 0.930 . S
C678 C677 1.369 . S
C678 C687 1.429 . S
C679 C677 1.419 . S
C679 C680 1.363 . S
C679 H682 0.929 . S
C680 C679 1.363 . S
C680 C686 1.428 . S
H681 C677 0.930 . S
H682 C679 0.929 . S
S683 N684 1.613 . S
S683 N685 1.610 . S
N684 S683 1.613 . S
N684 C687 1.350 . S
N685 S683 1.610 . S
N685 C686 1.351 . S
C686 C680 1.428 . S
C686 N685 1.351 . S
C686 C687 1.434 . S
C687 C678 1.429 . S
C687 N684 1.350 . S
C687 C686 1.434 . S
C688 C689 1.369 1_455 S
C688 C690 1.419 1_554 S
C688 H692 0.930 . S
C689 C688 1.369 1_655 S
C689 C698 1.429 . S
C690 C688 1.419 1_556 S
C690 C691 1.363 . S
C690 H693 0.929 . S
C691 C690 1.363 . S
C691 C697 1.428 1_455 S
H692 C688 0.930 . S
H693 C690 0.929 . S
S694 N695 1.613 1_556 S
S694 N696 1.610 . S
N695 S694 1.613 1_554 S
N695 C698 1.350 . S
N696 S694 1.610 . S
N696 C697 1.351 . S
C697 C691 1.428 1_655 S
C697 N696 1.351 . S
C697 C698 1.434 1_556 S
C698 C689 1.429 . S
C698 N695 1.350 . S
C698 C697 1.434 1_554 S
C699 C700 1.369 . S
C699 C701 1.419 . S
C699 H703 0.930 . S
C700 C699 1.369 . S
C700 C709 1.429 1_565 S
C701 C699 1.419 . S
C701 C702 1.363 1_565 S
C701 H704 0.929 . S
C702 C701 1.363 1_545 S
C702 C708 1.428 . S
H703 C699 0.930 . S
H704 C701 0.929 . S
S705 N706 1.613 . S
S705 N707 1.610 . S
N706 S705 1.613 . S
N706 C709 1.350 . S
N707 S705 1.610 . S
N707 C708 1.351 . S
C708 C702 1.428 . S
C708 N707 1.351 . S
C708 C709 1.434 . S
C709 C700 1.429 1_545 S
C709 N706 1.350 . S
C709 C708 1.434 . S
C710 C711 1.369 . S
C710 C712 1.419 1_554 S
C710 H714 0.930 . S
C711 C710 1.369 . S
C711 C720 1.429 . S
C712 C710 1.419 1_556 S
C712 C713 1.363 . S
C712 H715 0.929 . S
C713 C712 1.363 . S
C713 C719 1.428 . S
H714 C710 0.930 . S
H715 C712 0.929 . S
S716 N717 1.613 . S
S716 N718 1.610 1_554 S
N717 S716 1.613 . S
N717 C720 1.350 . S
N718 S716 1.610 1_556 S
N718 C719 1.351 . S
C719 C713 1.428 . S
C719 N718 1.351 . S
C719 C720 1.434 1_556 S
C720 C711 1.429 . S
C720 N717 1.350 . S
C720 C719 1.434 1_554 S
C721 C722 1.369 1_655 S
C721 C723 1.419 . S
C721 H725 0.930 . S
C722 C721 1.369 1_455 S
C722 C731 1.429 . S
C723 C721 1.419 . S
C723 C724 1.363 . S
C723 H726 0.929 . S
C724 C723 1.363 . S
C724 C730 1.428 1_655 S
H725 C721 0.930 . S
H726 C723 0.929 . S
S727 N728 1.613 . S
S727 N729 1.610 . S
N728 S727 1.613 . S
N728 C731 1.350 . S
N729 S727 1.610 . S
N729 C730 1.351 . S
C730 C724 1.428 1_455 S
C730 N729 1.351 . S
C730 C731 1.434 . S
C731 C722 1.429 . S
C731 N728 1.350 . S
C731 C730 1.434 . S
C732 C733 1.369 . S
C732 C734 1.419 . S
C732 H736 0.930 1_545 S
C733 C732 1.369 . S
C733 C742 1.429 . S
C734 C732 1.419 . S
C734 C735 1.363 . S
C734 H737 0.911 1_545 S
C735 C734 1.363 . S
C735 C741 1.428 . S
H736 C732 0.930 1_565 S
H737 C734 0.911 1_565 S
S738 N739 1.613 . S
S738 N740 1.610 . S
N739 S738 1.613 . S
N739 C742 1.350 . S
N740 S738 1.610 . S
N740 C741 1.351 . S
C741 C735 1.428 . S
C741 N740 1.351 . S
C741 C742 1.434 . S
C742 C733 1.429 . S
C742 N739 1.350 . S
C742 C741 1.434 . S
C743 C744 1.369 . S
C743 C745 1.419 . S
C743 H747 0.930 . S
C744 C743 1.369 . S
C744 C753 1.429 . S
C745 C743 1.419 . S
C745 C746 1.363 . S
C745 H748 0.929 . S
C746 C745 1.363 . S
C746 C752 1.428 . S
H747 C743 0.930 . S
H748 C745 0.929 . S
S749 N750 1.613 . S
S749 N751 1.610 . S
N750 S749 1.613 . S
N750 C753 1.350 . S
N751 S749 1.610 . S
N751 C752 1.351 . S
C752 C746 1.428 . S
C752 N751 1.351 . S
C752 C753 1.434 . S
C753 C744 1.429 . S
C753 N750 1.350 . S
C753 C752 1.434 . S
C754 C755 1.369 . S
C754 C756 1.419 . S
C754 H758 0.930 . S
C755 C754 1.369 . S
C755 C764 1.429 . S
C756 C754 1.419 . S
C756 C757 1.363 . S
C756 H759 0.929 . S
C757 C756 1.363 . S
C757 C763 1.428 . S
H758 C754 0.930 . S
H759 C756 0.929 . S
S760 N761 1.613 1_455 S
S760 N762 1.610 1_455 S
N761 S760 1.613 1_655 S
N761 C764 1.350 . S
N762 S760 1.610 1_655 S
N762 C763 1.351 . S
C763 C757 1.428 . S
C763 N762 1.351 . S
C763 C764 1.434 . S
C764 C755 1.429 . S
C764 N761 1.350 . S
C764 C763 1.434 . S
C765 C766 1.369 . S
C765 C767 1.419 . S
C765 H769 0.930 . S
C766 C765 1.369 . S
C766 C775 1.429 . S
C767 C765 1.419 . S
C767 C768 1.363 . S
C767 H770 0.929 . S
C768 C767 1.363 . S
C768 C774 1.428 . S
H769 C765 0.930 . S
H770 C767 0.929 . S
S771 N772 1.613 . S
S771 N773 1.610 . S
N772 S771 1.613 . S
N772 C775 1.350 . S
N773 S771 1.610 . S
N773 C774 1.351 . S
C774 C768 1.428 . S
C774 N773 1.351 . S
C774 C775 1.434 . S
C775 C766 1.429 . S
C775 N772 1.350 . S
C775 C774 1.434 . S
C776 C777 1.369 . S
C776 C778 1.419 . S
C776 H780 0.930 . S
C777 C776 1.369 . S
C777 C786 1.429 . S
C778 C776 1.419 . S
C778 C779 1.363 . S
C778 H781 0.929 . S
C779 C778 1.363 . S
C779 C785 1.428 . S
H780 C776 0.930 . S
H781 C778 0.929 . S
S782 N783 1.613 . S
S782 N784 1.610 . S
N783 S782 1.613 . S
N783 C786 1.350 . S
N784 S782 1.610 . S
N784 C785 1.351 . S
C785 C779 1.428 . S
C785 N784 1.351 . S
C785 C786 1.434 . S
C786 C777 1.429 . S
C786 N783 1.350 . S
C786 C785 1.434 . S
C787 C788 1.369 . S
C787 C789 1.419 . S
C787 H791 0.930 . S
C788 C787 1.369 . S
C788 C797 1.429 . S
C789 C787 1.419 . S
C789 C790 1.363 . S
C789 H792 0.929 . S
C790 C789 1.363 . S
C790 C796 1.428 . S
H791 C787 0.930 . S
H792 C789 0.929 . S
S793 N794 1.613 . S
S793 N795 1.610 . S
N794 S793 1.613 . S
N794 C797 1.350 . S
N795 S793 1.610 . S
N795 C796 1.351 . S
C796 C790 1.428 . S
C796 N795 1.351 . S
C796 C797 1.434 . S
C797 C788 1.429 . S
C797 N794 1.350 . S
C797 C796 1.434 . S
C798 C799 1.369 . S
C798 C800 1.419 . S
C798 H802 0.930 1_655 S
C799 C798 1.369 . S
C799 C808 1.429 . S
C800 C798 1.419 . S
C800 C801 1.363 . S
C800 H803 0.929 1_655 S
C801 C800 1.363 . S
C801 C807 1.428 . S
H802 C798 0.930 1_455 S
H803 C800 0.929 1_455 S
S804 N805 1.613 . S
S804 N806 1.610 . S
N805 S804 1.613 . S
N805 C808 1.350 . S
N806 S804 1.610 . S
N806 C807 1.351 . S
C807 C801 1.428 . S
C807 N806 1.351 . S
C807 C808 1.434 . S
C808 C799 1.429 . S
C808 N805 1.350 . S
C808 C807 1.434 . S
C809 C810 1.369 . S
C809 C811 1.419 . S
C809 H813 0.930 1_565 S
C810 C809 1.369 . S
C810 C819 1.429 . S
C811 C809 1.419 . S
C811 C812 1.363 . S
C811 H814 0.929 1_565 S
C812 C811 1.363 . S
C812 C818 1.428 . S
H813 C809 0.930 1_545 S
H814 C811 0.929 1_545 S
S815 N816 1.613 . S
S815 N817 1.610 . S
N816 S815 1.613 . S
N816 C819 1.350 . S
N817 S815 1.610 . S
N817 C818 1.351 . S
C818 C812 1.428 . S
C818 N817 1.351 . S
C818 C819 1.434 . S
C819 C810 1.429 . S
C819 N816 1.350 . S
C819 C818 1.434 . S
C820 C821 1.369 . S
C820 C822 1.419 . S
C820 H824 0.930 . S
C821 C820 1.369 . S
C821 C830 1.429 . S
C822 C820 1.419 . S
C822 C823 1.363 . S
C822 H825 0.929 . S
C823 C822 1.363 . S
C823 C829 1.428 . S
H824 C820 0.930 . S
H825 C822 0.929 . S
S826 N827 1.613 . S
S826 N828 1.610 . S
N827 S826 1.613 . S
N827 C830 1.350 . S
N828 S826 1.610 . S
N828 C829 1.351 . S
C829 C823 1.428 . S
C829 N828 1.351 . S
C829 C830 1.434 . S
C830 C821 1.429 . S
C830 N827 1.350 . S
C830 C829 1.434 . S
C831 C832 1.369 . S
C831 C833 1.419 . S
C831 H835 0.930 . S
C832 C831 1.369 . S
C832 C841 1.429 . S
C833 C831 1.419 . S
C833 C834 1.363 . S
C833 H836 0.929 . S
C834 C833 1.363 . S
C834 C840 1.428 . S
H835 C831 0.930 . S
H836 C833 0.929 . S
S837 N838 1.613 . S
S837 N839 1.610 . S
N838 S837 1.613 . S
N838 C841 1.350 . S
N839 S837 1.610 . S
N839 C840 1.351 . S
C840 C834 1.428 . S
C840 N839 1.351 . S
C840 C841 1.434 . S
C841 C832 1.429 . S
C841 N838 1.350 . S
C841 C840 1.434 . S
C842 C843 1.369 . S
C842 C844 1.419 . S
C842 H846 0.930 . S
C843 C842 1.369 . S
C843 C852 1.429 . S
C844 C842 1.419 . S
C844 C845 1.363 . S
C844 H847 0.929 . S
C845 C844 1.363 . S
C845 C851 1.428 . S
H846 C842 0.930 . S
H847 C844 0.929 . S
S848 N849 1.613 . S
S848 N850 1.610 . S
N849 S848 1.613 . S
N849 C852 1.350 1_565 S
N850 S848 1.610 . S
N850 C851 1.351 1_565 S
C851 C845 1.428 . S
C851 N850 1.351 1_545 S
C851 C852 1.434 . S
C852 C843 1.429 . S
C852 N849 1.350 1_545 S
C852 C851 1.434 . S
C853 C854 1.369 . S
C853 C855 1.419 . S
C853 H857 0.930 . S
C854 C853 1.369 . S
C854 C863 1.429 . S
C855 C853 1.419 . S
C855 C856 1.363 . S
C855 H858 0.929 . S
C856 C855 1.363 . S
C856 C862 1.428 . S
H857 C853 0.930 . S
H858 C855 0.929 . S
S859 N860 1.613 . S
S859 N861 1.610 . S
N860 S859 1.613 . S
N860 C863 1.350 . S
N861 S859 1.610 . S
N861 C862 1.351 . S
C862 C856 1.428 . S
C862 N861 1.351 . S
C862 C863 1.434 . S
C863 C854 1.429 . S
C863 N860 1.350 . S
C863 C862 1.434 . S
C337 C219 1.333 . S
C339 C9 1.334 . S
C348 C23 1.335 . S
C350 C233 1.336 . S
C359 C37 1.339 . S
C361 C247 1.339 . S
C370 C51 1.338 . S
C372 C177 1.338 . S
C381 C191 1.334 . S
C383 C65 1.335 . S
C392 C79 1.340 . S
C394 C205 1.339 . S
C403 C303 1.342 . S
C405 C93 1.341 . S
C414 C107 1.342 . S
C416 C317 1.341 . S
C425 C121 1.332 . S
C427 C331 1.333 . S
C436 C261 1.334 . S
C438 C135 1.335 . S
C447 C149 1.341 . S
C449 C275 1.340 . S
C458 C289 1.339 . S
C460 C163 1.338 . S
C469 C3 1.572 . S
C471 C325 1.572 . S
C480 C255 1.572 . S
C482 C17 1.572 . S
C491 C31 1.572 . S
C493 C269 1.572 . S
C502 C283 1.572 . S
C504 C45 1.572 . S
C513 C59 1.572 . S
C515 C297 1.572 . S
C524 C311 1.572 . S
C526 C73 1.572 . S
C535 C87 1.572 . S
C537 C185 1.572 . S
C546 C199 1.572 . S
C548 C101 1.572 . S
C557 C213 1.572 . S
C559 C115 1.572 . S
C568 C227 1.572 . S
C570 C129 1.572 . S
C579 C143 1.572 . S
C581 C241 1.572 . S
C590 C157 1.572 . S
C592 C171 1.572 . S
C601 C106 1.393 . S
C603 C8 1.399 . S
C612 C120 1.395 . S
C614 C22 1.400 . S
C623 C134 1.397 . S
C625 C36 1.398 . S
C634 C148 1.397 . S
C636 C50 1.398 . S
C645 C64 1.397 . S
C647 C162 1.398 . S
C656 C78 1.400 . S
C658 C92 1.394 . S
C667 C176 1.398 . S
C669 C274 1.397 . S
C678 C190 1.400 . S
C680 C288 1.395 . S
C689 C302 1.396 . S
C691 C204 1.396 . S
C700 C316 1.400 . S
C702 C218 1.394 . S
C711 C330 1.399 . S
C713 C232 1.394 . S
C722 C260 1.393 . S
C724 C246 1.399 . S
C733 C7 1.543 . S
C735 C273 1.544 . S
C744 C287 1.543 . S
C746 C21 1.543 . S
C755 C35 1.545 . S
C757 C301 1.545 . S
C766 C315 1.548 . S
C768 C49 1.548 . S
C777 C63 1.550 . S
C779 C329 1.549 . S
C788 C259 1.545 . S
C790 C77 1.545 . S
C799 C91 1.545 . S
C801 C245 1.545 . S
C810 C175 1.543 . S
C812 C105 1.544 . S
C821 C119 1.545 . S
C823 C189 1.545 . S
C832 C133 1.549 . S
C834 C203 1.549 . S
C843 C147 1.548 . S
C845 C217 1.548 . S
C854 C161 1.545 . S
C856 C231 1.545 . S
