# Generated by pormake.
# Topology ukj, (4)-cn, num edge types: 1
# Building blocks:
#     Node 0, Type 0, BuildingBlock: KOZSID_clean_sbu_0, # of connection points: 4
#     Node 1, Type 0, BuildingBlock: KOZSID_clean_sbu_0, # of connection points: 4
#     Node 2, Type 0, BuildingBlock: KOZSID_clean_sbu_0, # of connection points: 4
#     Node 3, Type 0, BuildingBlock: KOZSID_clean_sbu_0, # of connection points: 4
#     Node 4, Type 0, BuildingBlock: KOZSID_clean_sbu_0, # of connection points: 4
#     Node 5, Type 0, BuildingBlock: KOZSID_clean_sbu_0, # of connection points: 4
#     Node 6, Type 0, BuildingBlock: KOZSID_clean_sbu_0, # of connection points: 4
#     Node 7, Type 0, BuildingBlock: KOZSID_clean_sbu_0, # of connection points: 4
#     Node 8, Type 0, BuildingBlock: KOZSID_clean_sbu_0, # of connection points: 4
#     Node 9, Type 0, BuildingBlock: KOZSID_clean_sbu_0, # of connection points: 4
#     Node 10, Type 0, BuildingBlock: KOZSID_clean_sbu_0, # of connection points: 4
#     Node 11, Type 0, BuildingBlock: KOZSID_clean_sbu_0, # of connection points: 4
#     Node 12, Type 0, BuildingBlock: KOZSID_clean_sbu_0, # of connection points: 4
#     Node 13, Type 0, BuildingBlock: KOZSID_clean_sbu_0, # of connection points: 4
#     Node 14, Type 0, BuildingBlock: KOZSID_clean_sbu_0, # of connection points: 4
#     Node 15, Type 0, BuildingBlock: KOZSID_clean_sbu_0, # of connection points: 4
#     Node 16, Type 0, BuildingBlock: KOZSID_clean_sbu_0, # of connection points: 4
#     Node 17, Type 0, BuildingBlock: KOZSID_clean_sbu_0, # of connection points: 4
#     Node 18, Type 0, BuildingBlock: KOZSID_clean_sbu_0, # of connection points: 4
#     Node 19, Type 0, BuildingBlock: KOZSID_clean_sbu_0, # of connection points: 4
#     Node 20, Type 0, BuildingBlock: KOZSID_clean_sbu_0, # of connection points: 4
#     Node 21, Type 0, BuildingBlock: KOZSID_clean_sbu_0, # of connection points: 4
#     Node 22, Type 0, BuildingBlock: KOZSID_clean_sbu_0, # of connection points: 4
#     Node 23, Type 0, BuildingBlock: KOZSID_clean_sbu_0, # of connection points: 4
#     Node 24, Type 0, BuildingBlock: KOZSID_clean_sbu_0, # of connection points: 4
#     Node 25, Type 0, BuildingBlock: KOZSID_clean_sbu_0, # of connection points: 4
#     Node 26, Type 0, BuildingBlock: KOZSID_clean_sbu_0, # of connection points: 4
#     Node 27, Type 0, BuildingBlock: KOZSID_clean_sbu_0, # of connection points: 4
#     Node 28, Type 0, BuildingBlock: KOZSID_clean_sbu_0, # of connection points: 4
#     Node 29, Type 0, BuildingBlock: KOZSID_clean_sbu_0, # of connection points: 4
#     Node 30, Type 0, BuildingBlock: KOZSID_clean_sbu_0, # of connection points: 4
#     Node 31, Type 0, BuildingBlock: KOZSID_clean_sbu_0, # of connection points: 4
#     Edge 32, Type (0, 0), BuildingBlock: KIFKEQ_clean_linker_1, # of connection points: 2
#     Edge 33, Type (0, 0), BuildingBlock: KIFKEQ_clean_linker_1, # of connection points: 2
#     Edge 34, Type (0, 0), BuildingBlock: KIFKEQ_clean_linker_1, # of connection points: 2
#     Edge 35, Type (0, 0), BuildingBlock: KIFKEQ_clean_linker_1, # of connection points: 2
#     Edge 36, Type (0, 0), BuildingBlock: KIFKEQ_clean_linker_1, # of connection points: 2
#     Edge 37, Type (0, 0), BuildingBlock: KIFKEQ_clean_linker_1, # of connection points: 2
#     Edge 38, Type (0, 0), BuildingBlock: KIFKEQ_clean_linker_1, # of connection points: 2
#     Edge 39, Type (0, 0), BuildingBlock: KIFKEQ_clean_linker_1, # of connection points: 2
#     Edge 40, Type (0, 0), BuildingBlock: KIFKEQ_clean_linker_1, # of connection points: 2
#     Edge 41, Type (0, 0), BuildingBlock: KIFKEQ_clean_linker_1, # of connection points: 2
#     Edge 42, Type (0, 0), BuildingBlock: KIFKEQ_clean_linker_1, # of connection points: 2
#     Edge 43, Type (0, 0), BuildingBlock: KIFKEQ_clean_linker_1, # of connection points: 2
#     Edge 44, Type (0, 0), BuildingBlock: KIFKEQ_clean_linker_1, # of connection points: 2
#     Edge 45, Type (0, 0), BuildingBlock: KIFKEQ_clean_linker_1, # of connection points: 2
#     Edge 46, Type (0, 0), BuildingBlock: KIFKEQ_clean_linker_1, # of connection points: 2
#     Edge 47, Type (0, 0), BuildingBlock: KIFKEQ_clean_linker_1, # of connection points: 2
#     Edge 48, Type (0, 0), BuildingBlock: KIFKEQ_clean_linker_1, # of connection points: 2
#     Edge 49, Type (0, 0), BuildingBlock: KIFKEQ_clean_linker_1, # of connection points: 2
#     Edge 50, Type (0, 0), BuildingBlock: KIFKEQ_clean_linker_1, # of connection points: 2
#     Edge 51, Type (0, 0), BuildingBlock: KIFKEQ_clean_linker_1, # of connection points: 2
#     Edge 52, Type (0, 0), BuildingBlock: KIFKEQ_clean_linker_1, # of connection points: 2
#     Edge 53, Type (0, 0), BuildingBlock: KIFKEQ_clean_linker_1, # of connection points: 2
#     Edge 54, Type (0, 0), BuildingBlock: KIFKEQ_clean_linker_1, # of connection points: 2
#     Edge 55, Type (0, 0), BuildingBlock: KIFKEQ_clean_linker_1, # of connection points: 2
#     Edge 56, Type (0, 0), BuildingBlock: KIFKEQ_clean_linker_1, # of connection points: 2
#     Edge 57, Type (0, 0), BuildingBlock: KIFKEQ_clean_linker_1, # of connection points: 2
#     Edge 58, Type (0, 0), BuildingBlock: KIFKEQ_clean_linker_1, # of connection points: 2
#     Edge 59, Type (0, 0), BuildingBlock: KIFKEQ_clean_linker_1, # of connection points: 2
#     Edge 60, Type (0, 0), BuildingBlock: KIFKEQ_clean_linker_1, # of connection points: 2
#     Edge 61, Type (0, 0), BuildingBlock: KIFKEQ_clean_linker_1, # of connection points: 2
#     Edge 62, Type (0, 0), BuildingBlock: KIFKEQ_clean_linker_1, # of connection points: 2
#     Edge 63, Type (0, 0), BuildingBlock: KIFKEQ_clean_linker_1, # of connection points: 2
#     Edge 64, Type (0, 0), BuildingBlock: KIFKEQ_clean_linker_1, # of connection points: 2
#     Edge 65, Type (0, 0), BuildingBlock: KIFKEQ_clean_linker_1, # of connection points: 2
#     Edge 66, Type (0, 0), BuildingBlock: KIFKEQ_clean_linker_1, # of connection points: 2
#     Edge 67, Type (0, 0), BuildingBlock: KIFKEQ_clean_linker_1, # of connection points: 2
#     Edge 68, Type (0, 0), BuildingBlock: KIFKEQ_clean_linker_1, # of connection points: 2
#     Edge 69, Type (0, 0), BuildingBlock: KIFKEQ_clean_linker_1, # of connection points: 2
#     Edge 70, Type (0, 0), BuildingBlock: KIFKEQ_clean_linker_1, # of connection points: 2
#     Edge 71, Type (0, 0), BuildingBlock: KIFKEQ_clean_linker_1, # of connection points: 2
#     Edge 72, Type (0, 0), BuildingBlock: KIFKEQ_clean_linker_1, # of connection points: 2
#     Edge 73, Type (0, 0), BuildingBlock: KIFKEQ_clean_linker_1, # of connection points: 2
#     Edge 74, Type (0, 0), BuildingBlock: KIFKEQ_clean_linker_1, # of connection points: 2
#     Edge 75, Type (0, 0), BuildingBlock: KIFKEQ_clean_linker_1, # of connection points: 2
#     Edge 76, Type (0, 0), BuildingBlock: KIFKEQ_clean_linker_1, # of connection points: 2
#     Edge 77, Type (0, 0), BuildingBlock: KIFKEQ_clean_linker_1, # of connection points: 2
#     Edge 78, Type (0, 0), BuildingBlock: KIFKEQ_clean_linker_1, # of connection points: 2
#     Edge 79, Type (0, 0), BuildingBlock: KIFKEQ_clean_linker_1, # of connection points: 2
#     Edge 80, Type (0, 0), BuildingBlock: KIFKEQ_clean_linker_1, # of connection points: 2
#     Edge 81, Type (0, 0), BuildingBlock: KIFKEQ_clean_linker_1, # of connection points: 2
#     Edge 82, Type (0, 0), BuildingBlock: KIFKEQ_clean_linker_1, # of connection points: 2
#     Edge 83, Type (0, 0), BuildingBlock: KIFKEQ_clean_linker_1, # of connection points: 2
#     Edge 84, Type (0, 0), BuildingBlock: KIFKEQ_clean_linker_1, # of connection points: 2
#     Edge 85, Type (0, 0), BuildingBlock: KIFKEQ_clean_linker_1, # of connection points: 2
#     Edge 86, Type (0, 0), BuildingBlock: KIFKEQ_clean_linker_1, # of connection points: 2
#     Edge 87, Type (0, 0), BuildingBlock: KIFKEQ_clean_linker_1, # of connection points: 2
#     Edge 88, Type (0, 0), BuildingBlock: KIFKEQ_clean_linker_1, # of connection points: 2
#     Edge 89, Type (0, 0), BuildingBlock: KIFKEQ_clean_linker_1, # of connection points: 2
#     Edge 90, Type (0, 0), BuildingBlock: KIFKEQ_clean_linker_1, # of connection points: 2
#     Edge 91, Type (0, 0), BuildingBlock: KIFKEQ_clean_linker_1, # of connection points: 2
#     Edge 92, Type (0, 0), BuildingBlock: KIFKEQ_clean_linker_1, # of connection points: 2
#     Edge 93, Type (0, 0), BuildingBlock: KIFKEQ_clean_linker_1, # of connection points: 2
#     Edge 94, Type (0, 0), BuildingBlock: KIFKEQ_clean_linker_1, # of connection points: 2
#     Edge 95, Type (0, 0), BuildingBlock: KIFKEQ_clean_linker_1, # of connection points: 2
# Relax obj value: 0.006
# Max RMSD: 0.171
# Mean RMSD: 0.171
data_MOF--net-ukj--node1-KOZSID_clean_sbu_0--edge1-KIFKEQ_clean_linker_1
_symmetry_space_group_name_H-M    P1
_symmetry_Int_Tables_number       1
_symmetry_cell_setting            triclinic
loop_
_symmetry_equiv_pos_as_xyz
'x, y, z'
_cell_length_a     45.327836
_cell_length_b     77.653231
_cell_length_c     62.708771
_cell_angle_alpha  89.92829
_cell_angle_beta   90.013215
_cell_angle_gamma 89.9975
loop_
_atom_site_label
_atom_site_type_symbol
_atom_site_fract_x
_atom_site_fract_y
_atom_site_fract_z
_atom_type_partial_charge
C0 C 0.18187 0.35815 0.29519 0.0
C1 C 0.16777 0.37337 0.30082 0.0
C2 C 0.15256 0.37876 0.28323 0.0
C3 C 0.1582 0.36661 0.26792 0.0
N4 N 0.17594 0.35382 0.2747 0.0
Co5 Co 0.18942 0.33374 0.25754 0.0
N6 N 0.17819 0.3453 0.23023 0.0
C7 C 0.16189 0.35974 0.22836 0.0
C8 C 0.15782 0.36497 0.20771 0.0
C9 C 0.17184 0.35288 0.19563 0.0
C10 C 0.18359 0.34081 0.20967 0.0
N11 N 0.20204 0.31343 0.24034 0.0
C12 C 0.20275 0.31104 0.21883 0.0
C13 C 0.21016 0.29419 0.21383 0.0
C14 C 0.21351 0.28562 0.23278 0.0
C15 C 0.20801 0.29767 0.24828 0.0
N16 N 0.20126 0.32272 0.285 0.0
C17 C 0.20731 0.30592 0.2879 0.0
C18 C 0.21525 0.30211 0.30853 0.0
C19 C 0.21408 0.31748 0.3193 0.0
C20 C 0.20548 0.32984 0.30459 0.0
N21 N 0.14954 0.32299 0.25976 0.0
C22 C 0.09955 0.30103 0.26221 0.0
C23 C 0.11295 0.30761 0.28072 0.0
C24 C 0.13741 0.31882 0.27914 0.0
C25 C 0.11072 0.30658 0.24257 0.0
C26 C 0.13548 0.31737 0.24171 0.0
N27 N 0.22963 0.34373 0.25534 0.0
C28 C 0.28256 0.33974 0.25774 0.0
C29 C 0.28798 0.35716 0.25309 0.0
C30 C 0.26308 0.36771 0.24967 0.0
C31 C 0.23428 0.36079 0.25088 0.0
C32 C 0.25364 0.33337 0.25868 0.0
H33 H 0.21582 0.36928 0.2482 0.0
H34 H 0.25087 0.31994 0.26233 0.0
H35 H 0.14704 0.32359 0.29371 0.0
H36 H 0.14376 0.32045 0.22622 0.0
C37 C 0.15221 0.36861 0.24631 0.0
C38 C 0.19984 0.34798 0.30997 0.0
C39 C 0.19366 0.32375 0.2027 0.0
C40 C 0.20946 0.29487 0.27035 0.0
H41 H 0.16862 0.38 0.31598 0.0
H42 H 0.14019 0.39061 0.28149 0.0
H43 H 0.14582 0.37615 0.20209 0.0
H44 H 0.17188 0.35251 0.17839 0.0
H45 H 0.21201 0.28859 0.19809 0.0
H46 H 0.21902 0.27218 0.23498 0.0
H47 H 0.22208 0.28975 0.31484 0.0
H48 H 0.21892 0.3194 0.33603 0.0
H49 H 0.10472 0.30405 0.29632 0.0
H50 H 0.10123 0.30198 0.22778 0.0
H51 H 0.30055 0.33097 0.26103 0.0
H52 H 0.26568 0.38121 0.24582 0.0
C53 C 0.10796 0.90145 0.29229 0.0
C54 C 0.12209 0.88611 0.29737 0.0
C55 C 0.13655 0.88089 0.2794 0.0
C56 C 0.13039 0.89324 0.26439 0.0
N57 N 0.11299 0.90599 0.27171 0.0
Co58 Co 0.09866 0.92618 0.25497 0.0
N59 N 0.10901 0.91492 0.22729 0.0
C60 C 0.12537 0.90054 0.22499 0.0
C61 C 0.12908 0.8956 0.20423 0.0
C62 C 0.11476 0.90781 0.1925 0.0
C63 C 0.10312 0.91966 0.20684 0.0
N64 N 0.08518 0.94659 0.23822 0.0
C65 C 0.08371 0.94921 0.21677 0.0
C66 C 0.07573 0.96605 0.21213 0.0
C67 C 0.0729 0.9744 0.23125 0.0
C68 C 0.07919 0.96223 0.24647 0.0
N69 N 0.08771 0.93689 0.2828 0.0
C70 C 0.08151 0.95363 0.28598 0.0
C71 C 0.07438 0.95725 0.30679 0.0
C72 C 0.07624 0.94182 0.31741 0.0
C73 C 0.08441 0.9296 0.30243 0.0
N74 N 0.13851 0.93711 0.25651 0.0
C75 C 0.18769 0.95997 0.25807 0.0
C76 C 0.17544 0.95284 0.27678 0.0
C77 C 0.15133 0.9413 0.27564 0.0
C78 C 0.1761 0.95404 0.23866 0.0
C79 C 0.15179 0.94291 0.23824 0.0
N80 N 0.05844 0.91603 0.25342 0.0
C81 C 1.00555 0.91987 0.25664 0.0
C82 C 1.00006 0.90251 0.25177 0.0
C83 C 0.02494 0.89205 0.24787 0.0
C84 C 0.05375 0.89901 0.24878 0.0
C85 C 0.03446 0.92629 0.25729 0.0
H86 H 0.07218 0.8906 0.24569 0.0
H87 H 0.03724 0.93968 0.26111 0.0
H88 H 0.14237 0.9364 0.29038 0.0
H89 H 0.14325 0.93971 0.22285 0.0
C90 C 0.1356 0.8915 0.24267 0.0
C91 C 0.09072 0.91149 0.30763 0.0
C92 C 0.09253 0.93676 0.20026 0.0
C93 C 0.07852 0.9648 0.26859 0.0
H94 H 0.12172 0.87924 0.31239 0.0
H95 H 0.14874 0.86904 0.27722 0.0
H96 H 0.14109 0.88455 0.1983 0.0
H97 H 0.11447 0.90836 0.17527 0.0
H98 H 0.07317 0.97181 0.19652 0.0
H99 H 0.06719 0.98778 0.23372 0.0
H100 H 0.06765 0.96953 0.31335 0.0
H101 H 0.07219 0.93977 0.33423 0.0
H102 H 0.18354 0.95658 0.29233 0.0
H103 H 0.18526 0.9582 0.22357 0.0
H104 H 0.98761 0.92857 0.26031 0.0
H105 H 0.0223 0.87859 0.24385 0.0
C106 C 0.17618 0.90127 0.96586 0.0
C107 C 0.16445 0.88516 0.96103 0.0
C108 C 0.15985 0.87686 0.97993 0.0
C109 C 0.16888 0.88823 0.99525 0.0
N110 N 0.17836 0.90341 0.9873 0.0
Co111 Co 0.19472 0.92278 1.00447 0.0
N112 N 0.1791 0.91282 0.03132 0.0
C113 C 0.17114 0.89634 0.03453 0.0
C114 C 0.1612 0.89323 0.05484 0.0
C115 C 0.16287 0.90878 0.06504 0.0
C116 C 0.1737 0.9205 0.05024 0.0
N117 N 0.21032 0.94205 0.02201 0.0
C118 C 0.20155 0.9475 0.04161 0.0
C119 C 0.21719 0.962 0.04775 0.0
C120 C 0.23634 0.9657 0.03133 0.0
C121 C 0.23133 0.95328 0.01611 0.0
N122 N 0.21107 0.93248 0.97754 0.0
C123 C 0.232 0.94479 0.97647 0.0
C124 C 0.24069 0.94831 0.95595 0.0
C125 C 0.22475 0.93728 0.94334 0.0
C126 C 0.20722 0.92752 0.95689 0.0
N127 N 0.15793 0.93627 1.00062 0.0
C128 C 0.10804 0.95828 1.00167 0.0
C129 C 0.13593 0.96443 0.99586 0.0
C130 C 0.16022 0.95332 0.99523 0.0
C131 C 0.1054 0.94053 0.00591 0.0
C132 C 0.1306 0.92977 0.00541 0.0
N133 N 0.23237 0.91001 0.00841 0.0
C134 C 0.27723 0.90532 0.02872 0.0
C135 C 0.29082 0.89713 0.01132 0.0
C136 C 0.27382 0.89482 0.99285 0.0
C137 C 0.24498 0.90135 0.9917 0.0
C138 C 0.248 0.91138 0.02706 0.0
H139 H 0.23345 0.89988 0.97684 0.0
H140 H 0.23842 0.91773 0.04071 0.0
H141 H 0.18121 0.95886 0.99119 0.0
H142 H 0.12817 0.91634 0.00956 0.0
C143 C 0.16717 0.88541 0.01719 0.0
C144 C 0.18963 0.9126 0.94972 0.0
C145 C 0.17931 0.93868 0.05479 0.0
C146 C 0.24109 0.95366 0.99488 0.0
H147 H 0.16097 0.87951 0.94548 0.0
H148 H 0.15125 0.86399 0.9822 0.0
H149 H 0.15216 0.88136 0.06112 0.0
H150 H 0.15647 0.91124 0.08139 0.0
H151 H 0.21479 0.9692 0.06241 0.0
H152 H 0.25099 0.97667 0.03019 0.0
H153 H 0.25663 0.9578 0.95074 0.0
H154 H 0.22645 0.9362 0.92618 0.0
H155 H 0.13914 0.9779 0.99201 0.0
H156 H 0.08427 0.93511 0.01037 0.0
H157 H 0.28914 0.90712 0.04352 0.0
H158 H 0.28313 0.88861 0.97894 0.0
C159 C 0.11327 0.35853 0.96393 0.0
C160 C 0.12646 0.37399 0.95811 0.0
C161 C 0.14168 0.37968 0.97553 0.0
C162 C 0.13689 0.36748 0.99096 0.0
N163 N 0.11966 0.35437 0.98443 0.0
Co164 Co 0.10726 0.3342 1.002 0.0
N165 N 0.11872 0.34599 0.02908 0.0
C166 C 0.13407 0.36079 0.03064 0.0
C167 C 0.13835 0.36615 0.05121 0.0
C168 C 0.12546 0.35378 0.06356 0.0
C169 C 0.11413 0.34144 0.04974 0.0
N170 N 0.09617 0.31371 0.01954 0.0
C171 C 0.0964 0.31131 0.04105 0.0
C172 C 0.08999 0.29436 0.04625 0.0
C173 C 0.0863 0.28573 0.02741 0.0
C174 C 0.09065 0.29785 0.01177 0.0
N175 N 0.09469 0.32302 0.97482 0.0
C176 C 0.08869 0.3062 0.97218 0.0
C177 C 0.08008 0.30226 0.95174 0.0
C178 C 0.08073 0.31758 0.9408 0.0
C179 C 0.08972 0.33004 0.95522 0.0
N180 N 0.14737 0.32387 0.99923 0.0
C181 C 0.19684 0.30157 0.9966 0.0
C182 C 0.1827 0.30769 0.97813 0.0
C183 C 0.15854 0.3191 0.97977 0.0
C184 C 0.18686 0.30786 0.01621 0.0
C185 C 0.16237 0.31882 0.01717 0.0
N186 N 0.06681 0.34371 1.00479 0.0
C187 C 1.01417 0.33856 0.00573 0.0
C188 C 1.00785 0.35625 0.00716 0.0
C189 C 0.03233 0.36749 0.00782 0.0
C190 C 0.06142 0.36099 0.00687 0.0
C191 C 0.04327 0.3327 1.00418 0.0
H192 H 0.07949 0.37 0.00756 0.0
H193 H 0.04648 0.31908 1.00233 0.0
H194 H 0.14826 0.32347 0.96523 0.0
H195 H 0.15499 0.32241 0.03271 0.0
C196 C 0.14296 0.36972 0.01251 0.0
C197 C 0.09536 0.34811 0.9494 0.0
C198 C 0.1053 0.32419 0.05695 0.0
C199 C 0.08794 0.2951 0.98977 0.0
H200 H 0.12488 0.38065 0.94299 0.0
H201 H 0.15337 0.39176 0.97711 0.0
H202 H 0.14982 0.37757 0.05661 0.0
H203 H 0.1259 0.35341 0.0808 0.0
H204 H 0.08893 0.28874 0.06204 0.0
H205 H 0.08119 0.27221 0.02536 0.0
H206 H 0.07334 0.28983 0.94565 0.0
H207 H 0.07543 0.31939 0.92412 0.0
H208 H 0.19007 0.30358 0.96252 0.0
H209 H 0.197 0.30366 0.03098 0.0
H210 H 0.99684 0.329 0.00588 0.0
H211 H 0.02929 0.38128 0.00873 0.0
C212 C 0.83711 0.67609 0.70856 0.0
C213 C 0.81982 0.68524 0.69422 0.0
C214 C 0.80306 0.69645 0.70598 0.0
C215 C 0.81102 0.69361 0.72681 0.0
N216 N 0.83223 0.68155 0.7289 0.0
Co217 Co 0.8477 0.67276 0.75662 0.0
N218 N 0.83098 0.69244 0.77291 0.0
C219 C 0.81004 0.70333 0.76599 0.0
C220 C 0.80356 0.71595 0.78064 0.0
C221 C 0.82161 0.71273 0.79783 0.0
C222 C 0.83813 0.69831 0.79267 0.0
N223 N 0.86245 0.66367 0.78426 0.0
C224 C 0.86654 0.67183 0.80308 0.0
C225 C 0.87751 0.66061 0.81844 0.0
C226 C 0.88043 0.64491 0.80879 0.0
C227 C 0.87112 0.6474 0.78819 0.0
N228 N 0.86507 0.65305 0.74058 0.0
C229 C 0.87482 0.63822 0.7493 0.0
C230 C 0.8849 0.62659 0.7346 0.0
C231 C 0.88082 0.63437 0.71529 0.0
C232 C 0.8683 0.6504 0.71928 0.0
N233 N 0.88438 0.68635 0.75301 0.0
C234 C 0.93353 0.70891 0.75509 0.0
C235 C 0.93607 0.69141 0.76077 0.0
C236 C 0.91133 0.68036 0.75956 0.0
C237 C 0.90617 0.71441 0.74717 0.0
C238 C 0.8822 0.70308 0.74626 0.0
N239 N 0.81022 0.65986 0.76046 0.0
C240 C 0.76912 0.64423 0.7451 0.0
C241 C 0.75189 0.64692 0.76339 0.0
C242 C 0.76525 0.65543 0.78063 0.0
C243 C 0.79439 0.66152 0.77897 0.0
C244 C 0.79796 0.65081 0.74393 0.0
H245 H 0.80371 0.66816 0.79249 0.0
H246 H 0.8098 0.64908 0.72923 0.0
H247 H 0.91375 0.66717 0.76471 0.0
H248 H 0.86146 0.70822 0.7409 0.0
C249 C 0.80109 0.70298 0.74458 0.0
C250 C 0.85563 0.66128 0.70239 0.0
C251 C 0.85931 0.68991 0.80712 0.0
C252 C 0.87603 0.63608 0.77137 0.0
H253 H 0.81888 0.68366 0.67709 0.0
H254 H 0.78709 0.70563 0.70002 0.0
H255 H 0.78848 0.72664 0.77873 0.0
H256 H 0.8226 0.72013 0.81242 0.0
H257 H 0.88314 0.6635 0.83482 0.0
H258 H 0.88978 0.63333 0.81565 0.0
H259 H 0.89403 0.61393 0.73756 0.0
H260 H 0.88534 0.62852 0.69999 0.0
H261 H 0.95669 0.68638 0.76688 0.0
H262 H 0.90299 0.72757 0.74192 0.0
H263 H 0.75995 0.63771 0.73135 0.0
H264 H 0.75315 0.65753 0.79529 0.0
C265 C 0.94966 0.08116 0.70789 0.0
C266 C 0.957 0.06917 0.69241 0.0
C267 C 0.95942 0.05359 0.7026 0.0
C268 C 0.95345 0.05691 0.72368 0.0
N269 N 0.94751 0.0736 0.72745 0.0
Co270 Co 0.93792 0.08385 0.75584 0.0
N271 N 0.952 0.06309 0.77165 0.0
C272 C 0.95764 0.04761 0.76283 0.0
C273 C 0.96482 0.0352 0.77754 0.0
C274 C 0.96298 0.04321 0.79693 0.0
C275 C 0.95466 0.06011 0.79297 0.0
N276 N 0.92878 0.09456 0.78407 0.0
C277 C 0.93552 0.0894 0.80422 0.0
C278 C 0.92446 0.10094 0.81918 0.0
C279 C 0.90968 0.11339 0.80814 0.0
C280 C 0.91255 0.10889 0.78715 0.0
N281 N 0.92313 0.10441 0.74001 0.0
C282 C 0.90618 0.11706 0.74809 0.0
C283 C 0.89916 0.12959 0.73352 0.0
C284 C 0.91253 0.1246 0.71501 0.0
C285 C 0.927 0.10923 0.71939 0.0
N286 N 0.89799 0.07315 0.75488 0.0
C287 C 0.84799 0.05128 0.75351 0.0
C288 C 0.86067 0.05614 0.7729 0.0
C289 C 0.8855 0.06687 0.77323 0.0
C290 C 0.85973 0.05851 0.7348 0.0
C291 C 0.88421 0.06971 0.73587 0.0
N292 N 0.97817 0.09385 0.75687 0.0
C293 C 1.01198 0.11745 0.76358 0.0
C294 C 0.03644 0.10718 0.75814 0.0
C295 C 0.03082 0.0901 0.75218 0.0
C296 C 1.00189 0.08373 0.75177 0.0
C297 C 0.98314 0.11061 0.76268 0.0
H298 H 0.99888 0.0705 0.74729 0.0
H299 H 0.9649 0.11891 0.76668 0.0
H300 H 0.89513 0.0693 0.78849 0.0
H301 H 0.89259 0.07501 0.72117 0.0
C302 C 0.95725 0.04543 0.74066 0.0
C303 C 0.94308 0.09934 0.70327 0.0
C304 C 0.94657 0.07222 0.81002 0.0
C305 C 0.90178 0.11835 0.76997 0.0
H306 H 0.96014 0.07146 0.67554 0.0
H307 H 0.96573 0.04141 0.69557 0.0
H308 H 0.97049 0.02188 0.77454 0.0
H309 H 0.96642 0.03718 0.8123 0.0
H310 H 0.9255 0.10003 0.83637 0.0
H311 H 0.89798 0.12433 0.81467 0.0
H312 H 0.88694 0.14136 0.73626 0.0
H313 H 0.91183 0.13154 0.70005 0.0
H314 H 0.8524 0.05096 0.7878 0.0
H315 H 0.85028 0.0554 0.71941 0.0
H316 H 1.01502 0.13077 0.76817 0.0
H317 H 0.04877 0.0815 0.74814 0.0
C318 C 0.84199 0.08191 0.05524 0.0
C319 C 0.82331 0.07321 0.0691 0.0
C320 C 0.80746 0.06177 0.05705 0.0
C321 C 0.81713 0.0641 0.03652 0.0
N322 N 0.83864 0.07604 0.03489 0.0
Co323 Co 0.85537 0.08464 0.00742 0.0
N324 N 0.83888 0.06503 0.99084 0.0
C325 C 0.81792 0.05405 0.99748 0.0
C326 C 0.81205 0.04135 0.9828 0.0
C327 C 0.83059 0.04458 0.96589 0.0
C328 C 0.84671 0.05911 0.97123 0.0
N329 N 0.87091 0.09376 0.98001 0.0
C330 C 0.87471 0.08576 0.96109 0.0
C331 C 0.88575 0.09701 0.94581 0.0
C332 C 0.88939 0.11255 0.9557 0.0
C333 C 0.88029 0.10994 0.97631 0.0
N334 N 0.8731 0.10409 0.02377 0.0
C335 C 0.88533 0.11838 0.01533 0.0
C336 C 0.89729 0.1292 0.03024 0.0
C337 C 0.89169 0.12151 0.04941 0.0
C338 C 0.87598 0.10653 0.04511 0.0
N339 N 0.89166 0.07066 0.01156 0.0
C340 C 0.94009 0.04731 0.01072 0.0
C341 C 0.94289 0.06443 1.00337 0.0
C342 C 0.91865 0.07588 1.00414 0.0
C343 C 0.91274 0.04271 0.01956 0.0
C344 C 0.88909 0.05433 0.01963 0.0
N345 N 0.81828 0.09788 1.00303 0.0
C346 C 0.77816 0.11481 0.01758 0.0
C347 C 0.75971 0.11116 1.00002 0.0
C348 C 0.77269 0.1016 0.98333 0.0
C349 C 0.80185 0.09551 0.98494 0.0
C350 C 0.80679 0.10794 0.01889 0.0
H351 H 0.81061 0.08823 0.97175 0.0
H352 H 0.81915 0.11045 0.03317 0.0
H353 H 0.92154 0.08874 0.99798 0.0
H354 H 0.86833 0.04967 0.02554 0.0
C355 C 0.80809 0.05456 0.01866 0.0
C356 C 0.8599 0.0969 0.06165 0.0
C357 C 0.86815 0.06762 0.95711 0.0
C358 C 0.88664 0.1208 0.99333 0.0
H359 H 0.82069 0.07528 0.08605 0.0
H360 H 0.79075 0.05287 0.06261 0.0
H361 H 0.79702 0.03061 0.98452 0.0
H362 H 0.83212 0.03713 0.95136 0.0
H363 H 0.89125 0.09421 0.92939 0.0
H364 H 0.8993 0.12404 0.94901 0.0
H365 H 0.90864 0.14127 0.02752 0.0
H366 H 0.89725 0.1268 0.06485 0.0
H367 H 0.96331 0.06891 0.99637 0.0
H368 H 0.90917 0.03003 0.02625 0.0
H369 H 0.77079 0.12273 0.03067 0.0
H370 H 0.76047 0.0982 0.96917 0.0
C371 C 0.95201 0.67739 0.0547 0.0
C372 C 0.96867 0.6868 0.06914 0.0
C373 C 0.9859 0.69783 0.05743 0.0
C374 C 0.97884 0.69462 0.03652 0.0
N375 N 0.95775 0.68251 0.03432 0.0
Co376 Co 0.9435 0.67322 0.0065 0.0
N377 N 0.96089 0.6926 0.99003 0.0
C378 C 0.98153 0.70362 0.99708 0.0
C379 C 0.98845 0.71605 0.98225 0.0
C380 C 0.97098 0.71258 0.96482 0.0
C381 C 0.95435 0.69821 0.97004 0.0
N382 N 0.9299 0.66369 0.9788 0.0
C383 C 0.92636 0.67161 0.95974 0.0
C384 C 0.91598 0.66019 0.94445 0.0
C385 C 0.91283 0.6446 0.9544 0.0
C386 C 0.92143 0.64736 0.9751 0.0
N387 N 0.92555 0.65375 0.02269 0.0
C388 C 0.91614 0.63879 0.01414 0.0
C389 C 0.90559 0.62735 0.02892 0.0
C390 C 0.90904 0.63538 0.04812 0.0
C391 C 0.92167 0.65136 0.04399 0.0
N392 N 0.90663 0.68686 0.00893 0.0
C393 C 0.85774 0.70964 0.00551 0.0
C394 C 0.85562 0.69224 0.99922 0.0
C395 C 0.88012 0.68107 1.00125 0.0
C396 C 0.8845 0.71483 0.01476 0.0
C397 C 0.9084 0.70348 0.0161 0.0
N398 N 0.98115 0.6603 1.00386 0.0
C399 C 0.02253 0.64629 0.02106 0.0
C400 C 0.03975 0.64708 1.00238 0.0
C401 C 0.02589 0.654 0.98413 0.0
C402 C 0.99693 0.66058 0.98524 0.0
C403 C 0.99351 0.65256 0.02133 0.0
H404 H 0.98763 0.66636 0.97109 0.0
H405 H 0.98161 0.65171 0.0361 0.0
H406 H 0.87792 0.66796 0.99581 0.0
H407 H 0.92876 0.70855 0.02219 0.0
C408 C 0.98953 0.70367 0.01869 0.0
C409 C 0.93373 0.66246 0.06087 0.0
C410 C 0.93346 0.68968 0.95552 0.0
C411 C 0.91581 0.63631 0.99211 0.0
H412 H 0.96898 0.68546 0.08632 0.0
H413 H 1.00161 0.70711 0.06347 0.0
H414 H 1.00334 0.72682 0.9842 0.0
H415 H 0.97039 0.71982 0.95007 0.0
H416 H 0.91085 0.66288 0.92792 0.0
H417 H 0.90371 0.63294 0.94764 0.0
H418 H 0.89662 0.61464 0.0261 0.0
H419 H 0.904 0.62973 0.06347 0.0
H420 H 0.83557 0.68735 0.99207 0.0
H421 H 0.88743 0.72779 0.02072 0.0
H422 H 0.03141 0.64139 0.03586 0.0
H423 H 0.03724 0.65457 0.96898 0.0
C424 C 0.17729 0.85804 0.79476 0.0
C425 C 0.16311 0.8733 0.80015 0.0
C426 C 0.14869 0.87879 0.78227 0.0
C427 C 0.15484 0.86665 0.76704 0.0
N428 N 0.17217 0.85377 0.77414 0.0
Co429 Co 0.18598 0.83363 0.75719 0.0
N430 N 0.17572 0.84522 0.7297 0.0
C431 C 0.15999 0.85985 0.72757 0.0
C432 C 0.15666 0.86509 0.70686 0.0
C433 C 0.1706 0.85283 0.695 0.0
C434 C 0.18155 0.84064 0.70923 0.0
N435 N 0.1986 0.81319 0.74017 0.0
C436 C 0.19973 0.81073 0.71869 0.0
C437 C 0.20685 0.79382 0.71383 0.0
C438 C 0.20959 0.78526 0.73284 0.0
C439 C 0.20401 0.79739 0.74823 0.0
N440 N 0.19708 0.82261 0.78481 0.0
C441 C 0.20314 0.80583 0.7878 0.0
C442 C 0.21052 0.80202 0.80853 0.0
C443 C 0.20897 0.81738 0.8193 0.0
C444 C 0.20069 0.82973 0.80448 0.0
N445 N 0.14599 0.82304 0.75892 0.0
C446 C 0.09738 0.8 0.76095 0.0
C447 C 0.10924 0.8075 0.77952 0.0
C448 C 0.13324 0.81907 0.77815 0.0
C449 C 0.10885 0.80565 0.7414 0.0
C450 C 0.13272 0.81708 0.74075 0.0
N451 N 0.22642 0.84342 0.75554 0.0
C452 C 0.27924 0.83871 0.7565 0.0
C453 C 0.28526 0.85642 0.75475 0.0
C454 C 0.26053 0.86743 0.75307 0.0
C455 C 0.23155 0.8607 0.75327 0.0
C456 C 0.25017 0.83261 0.75722 0.0
H457 H 0.21333 0.86956 0.7518 0.0
H458 H 0.24714 0.819 0.75928 0.0
H459 H 0.14225 0.82414 0.79277 0.0
H460 H 0.14113 0.82033 0.72536 0.0
C461 C 0.14982 0.86875 0.74533 0.0
C462 C 0.19466 0.84783 0.80984 0.0
C463 C 0.19129 0.82347 0.70242 0.0
C464 C 0.20529 0.7947 0.77032 0.0
H465 H 0.16343 0.87991 0.81533 0.0
H466 H 0.13654 0.89068 0.7803 0.0
H467 H 0.14514 0.87637 0.70104 0.0
H468 H 0.17109 0.85244 0.67776 0.0
H469 H 0.20895 0.78816 0.69813 0.0
H470 H 0.21484 0.77179 0.73515 0.0
H471 H 0.2171 0.78965 0.81495 0.0
H472 H 0.21326 0.81928 0.83611 0.0
H473 H 0.10099 0.80392 0.79511 0.0
H474 H 0.09988 0.80099 0.72648 0.0
H475 H 0.29679 0.8293 0.7572 0.0
H476 H 0.26326 0.88123 0.75191 0.0
C477 C 0.10716 0.40153 0.79294 0.0
C478 C 0.12127 0.38616 0.79792 0.0
C479 C 0.13591 0.38108 0.77997 0.0
C480 C 0.12987 0.39352 0.76507 0.0
N481 N 0.11236 0.4062 0.77242 0.0
Co482 Co 0.09813 0.42649 0.75579 0.0
N483 N 0.10895 0.41546 0.72806 0.0
C484 C 0.12544 0.40114 0.72573 0.0
C485 C 0.1295 0.39635 0.70494 0.0
C486 C 0.11526 0.40861 0.69324 0.0
C487 C 0.10331 0.42033 0.70762 0.0
N488 N 0.08473 0.44698 0.73916 0.0
C489 C 0.0834 0.44972 0.71771 0.0
C490 C 0.07531 0.46656 0.7132 0.0
C491 C 0.07225 0.47479 0.73238 0.0
C492 C 0.07854 0.46256 0.74752 0.0
N493 N 0.0868 0.437 0.78366 0.0
C494 C 0.08047 0.4537 0.78696 0.0
C495 C 0.07315 0.45721 0.80777 0.0
C496 C 0.07504 0.44172 0.81827 0.0
C497 C 0.0834 0.4296 0.80323 0.0
N498 N 0.13789 0.43745 0.75773 0.0
C499 C 0.18769 0.45957 0.76016 0.0
C500 C 0.17492 0.4525 0.77863 0.0
C501 C 0.15055 0.44122 0.77705 0.0
C502 C 0.17597 0.45447 0.74051 0.0
C503 C 0.15129 0.44361 0.73966 0.0
N504 N 0.05801 0.41628 0.75389 0.0
C505 C 1.00508 0.41998 0.75699 0.0
C506 C 0.99976 0.40262 0.75206 0.0
C507 C 0.02472 0.39224 0.74816 0.0
C508 C 0.05347 0.39927 0.74914 0.0
C509 C 0.03393 0.42647 0.75773 0.0
H510 H 0.07198 0.39092 0.74606 0.0
H511 H 0.03659 0.43985 0.76164 0.0
H512 H 0.1414 0.43607 0.7916 0.0
H513 H 0.14256 0.44093 0.72417 0.0
C514 C 0.13541 0.39196 0.74337 0.0
C515 C 0.08988 0.41149 0.80834 0.0
C516 C 0.09251 0.4374 0.70114 0.0
C517 C 0.07761 0.46498 0.76966 0.0
H518 H 0.1208 0.3792 0.81288 0.0
H519 H 0.14818 0.36926 0.77774 0.0
H520 H 0.14166 0.38537 0.69899 0.0
H521 H 0.11519 0.40927 0.67602 0.0
H522 H 0.07282 0.47241 0.69763 0.0
H523 H 0.0664 0.48814 0.73495 0.0
H524 H 0.06631 0.46943 0.8144 0.0
H525 H 0.0709 0.43958 0.83506 0.0
H526 H 0.18358 0.45572 0.79422 0.0
H527 H 0.18497 0.45946 0.72575 0.0
H528 H 0.98706 0.42863 0.76066 0.0
H529 H 0.02219 0.37878 0.74408 0.0
C530 C 0.18247 0.40142 0.46632 0.0
C531 C 0.16987 0.38554 0.46163 0.0
C532 C 0.15896 0.37915 0.48024 0.0
C533 C 0.16551 0.39136 0.49522 0.0
N534 N 0.17984 0.40525 0.48737 0.0
Co535 Co 0.1936 0.42575 0.50413 0.0
N536 N 0.17939 0.41545 0.53157 0.0
C537 C 0.16882 0.39936 0.53445 0.0
C538 C 0.16099 0.39577 0.55508 0.0
C539 C 0.16634 0.4106 0.56601 0.0
C540 C 0.17698 0.42243 0.55127 0.0
N541 N 0.20538 0.44668 0.52091 0.0
C542 C 0.19808 0.4513 0.5412 0.0
C543 C 0.20718 0.46792 0.54578 0.0
C544 C 0.22017 0.47417 0.52764 0.0
C545 C 0.21812 0.46107 0.51302 0.0
N546 N 0.20945 0.43544 0.4767 0.0
C547 C 0.22438 0.45042 0.4745 0.0
C548 C 0.23442 0.45324 0.45415 0.0
C549 C 0.22582 0.43908 0.44276 0.0
C550 C 0.2109 0.42839 0.45682 0.0
N551 N 0.15446 0.43735 0.49967 0.0
C552 C 0.10312 0.45836 0.50157 0.0
C553 C 0.12859 0.46387 0.49112 0.0
C554 C 0.15343 0.45323 0.49004 0.0
C555 C 0.103 0.44149 0.50967 0.0
C556 C 0.12879 0.43123 0.50858 0.0
N557 N 0.23342 0.41478 0.50871 0.0
C558 C 0.28676 0.41801 0.5107 0.0
C559 C 0.29135 0.40019 0.51135 0.0
C560 C 0.26592 0.38979 0.51103 0.0
C561 C 0.23748 0.39725 0.50974 0.0
C562 C 0.25824 0.42487 0.50965 0.0
H563 H 0.21911 0.3886 0.50945 0.0
H564 H 0.25711 0.43852 0.50925 0.0
H565 H 0.17194 0.45853 0.48194 0.0
H566 H 0.12791 0.41862 0.5156 0.0
C567 C 0.16191 0.3891 0.51705 0.0
C568 C 0.19829 0.41175 0.4505 0.0
C569 C 0.18164 0.44054 0.55628 0.0
C570 C 0.22701 0.46194 0.49162 0.0
H571 H 0.1695 0.37887 0.4465 0.0
H572 H 0.1487 0.36672 0.48273 0.0
H573 H 0.15086 0.38414 0.56117 0.0
H574 H 0.16156 0.41272 0.58271 0.0
H575 H 0.20414 0.47488 0.56056 0.0
H576 H 0.22922 0.48692 0.52522 0.0
H577 H 0.24641 0.46432 0.44826 0.0
H578 H 0.23 0.43687 0.426 0.0
H579 H 0.12955 0.47658 0.48401 0.0
H580 H 0.08356 0.43648 0.51758 0.0
H581 H 0.30515 0.42688 0.51046 0.0
H582 H 0.26777 0.3759 0.51185 0.0
C583 C 0.11229 0.85876 0.46352 0.0
C584 C 0.12545 0.87426 0.45781 0.0
C585 C 0.14051 0.87993 0.4753 0.0
C586 C 0.13567 0.86768 0.49067 0.0
N587 N 0.11854 0.85456 0.48403 0.0
Co588 Co 0.10615 0.83432 0.50148 0.0
N589 N 0.11748 0.84604 0.52864 0.0
C590 C 0.13276 0.86086 0.53031 0.0
C591 C 0.13697 0.86614 0.55091 0.0
C592 C 0.1241 0.85371 0.56317 0.0
C593 C 0.11285 0.84141 0.54927 0.0
N594 N 0.09506 0.81377 0.5189 0.0
C595 C 0.09522 0.8113 0.54039 0.0
C596 C 0.08884 0.79432 0.54551 0.0
C597 C 0.08525 0.78575 0.52662 0.0
C598 C 0.08961 0.79792 0.51105 0.0
N599 N 0.09372 0.82321 0.47422 0.0
C600 C 0.08777 0.80639 0.47149 0.0
C601 C 0.07932 0.80248 0.45102 0.0
C602 C 0.08002 0.81783 0.44013 0.0
C603 C 0.08889 0.83026 0.45462 0.0
N604 N 0.14631 0.82405 0.49873 0.0
C605 C 0.19592 0.80187 0.49603 0.0
C606 C 0.18182 0.80805 0.47758 0.0
C607 C 0.15758 0.8194 0.47925 0.0
C608 C 0.18583 0.80805 0.51567 0.0
C609 C 0.16126 0.81895 0.51666 0.0
N610 N 0.06564 0.84378 0.50425 0.0
C611 C 1.01301 0.83857 0.50513 0.0
C612 C 1.00662 0.85625 0.50669 0.0
C613 C 0.03107 0.86751 0.50744 0.0
C614 C 0.06019 0.86104 0.50644 0.0
C615 C 0.04214 0.83274 0.50354 0.0
H616 H 0.07822 0.87007 0.50721 0.0
H617 H 0.04539 0.81914 0.5016 0.0
H618 H 0.14734 0.82382 0.46472 0.0
H619 H 0.15379 0.82244 0.53221 0.0
C620 C 0.14166 0.86987 0.51224 0.0
C621 C 0.09458 0.84834 0.44886 0.0
C622 C 0.10402 0.82414 0.55638 0.0
C623 C 0.08699 0.79524 0.48904 0.0
H624 H 0.12396 0.88095 0.4427 0.0
H625 H 0.15216 0.89202 0.47696 0.0
H626 H 0.14838 0.87756 0.55638 0.0
H627 H 0.12448 0.85328 0.58041 0.0
H628 H 0.08774 0.78865 0.56127 0.0
H629 H 0.08018 0.77224 0.5245 0.0
H630 H 0.07267 0.79006 0.44485 0.0
H631 H 0.07486 0.81966 0.42343 0.0
H632 H 0.18927 0.80403 0.46195 0.0
H633 H 0.19595 0.8038 0.53042 0.0
H634 H 0.99572 0.82899 0.5052 0.0
H635 H 0.02799 0.88129 0.50844 0.0
C636 C 0.83909 0.17545 0.20901 0.0
C637 C 0.82124 0.18398 0.19442 0.0
C638 C 0.80472 0.19556 0.20575 0.0
C639 C 0.8132 0.19348 0.22659 0.0
N640 N 0.83458 0.18156 0.22912 0.0
Co641 Co 0.84997 0.17345 0.25726 0.0
N642 N 0.83258 0.19333 0.27284 0.0
C643 C 0.81177 0.20408 0.26537 0.0
C644 C 0.80477 0.21691 0.27959 0.0
C645 C 0.82235 0.21403 0.2971 0.0
C646 C 0.83911 0.19957 0.29255 0.0
N647 N 0.86444 0.16496 0.28533 0.0
C648 C 0.86756 0.17339 0.30406 0.0
C649 C 0.87873 0.16259 0.31978 0.0
C650 C 0.88293 0.14687 0.31046 0.0
C651 C 0.87412 0.14895 0.28969 0.0
N652 N 0.86826 0.15366 0.24189 0.0
C653 C 0.88007 0.13954 0.25105 0.0
C654 C 0.89243 0.12834 0.23675 0.0
C655 C 0.88759 0.1356 0.21722 0.0
C656 C 0.87193 0.15073 0.2207 0.0
N657 N 0.88645 0.18731 0.25357 0.0
C658 C 0.93498 0.21053 0.25525 0.0
C659 C 0.93745 0.19342 0.26265 0.0
C660 C 0.91317 0.18203 0.26146 0.0
C661 C 0.90799 0.21517 0.24583 0.0
C662 C 0.88428 0.2036 0.24535 0.0
N663 N 0.81275 0.1603 0.26122 0.0
C664 C 0.77235 0.14387 0.24613 0.0
C665 C 0.75463 0.14698 0.26407 0.0
C666 C 0.76743 0.15608 0.28106 0.0
C667 C 0.79647 0.16235 0.27946 0.0
C668 C 0.80109 0.15063 0.24499 0.0
H669 H 0.80532 0.16941 0.2928 0.0
H670 H 0.81332 0.14849 0.23056 0.0
H671 H 0.91577 0.16918 0.26772 0.0
H672 H 0.86375 0.20826 0.23902 0.0
C673 C 0.80311 0.20322 0.24396 0.0
C674 C 0.85708 0.16026 0.20347 0.0
C675 C 0.8598 0.19146 0.30756 0.0
C676 C 0.88089 0.1377 0.27314 0.0
H677 H 0.81953 0.18167 0.17746 0.0
H678 H 0.78833 0.20437 0.19952 0.0
H679 H 0.78958 0.2275 0.27721 0.0
H680 H 0.82283 0.22165 0.31154 0.0
H681 H 0.88388 0.16579 0.33615 0.0
H682 H 0.89299 0.13562 0.31762 0.0
H683 H 0.90366 0.11634 0.2401 0.0
H684 H 0.89377 0.12999 0.20208 0.0
H685 H 0.95761 0.18892 0.27003 0.0
H686 H 0.90475 0.22784 0.23905 0.0
H687 H 0.76366 0.13687 0.23258 0.0
H688 H 0.75499 0.15849 0.29549 0.0
C689 C 0.95097 0.58318 0.20838 0.0
C690 C 0.96815 0.5743 0.19375 0.0
C691 C 0.98483 0.56279 0.20514 0.0
C692 C 0.97693 0.56519 0.22606 0.0
N693 N 0.95583 0.57726 0.22855 0.0
Co694 Co 0.9405 0.58548 0.25657 0.0
N695 N 0.9572 0.56543 0.27225 0.0
C696 C 0.97786 0.55455 0.26488 0.0
C697 C 0.98446 0.54166 0.27917 0.0
C698 C 0.96678 0.54465 0.29659 0.0
C699 C 0.95036 0.55924 0.29194 0.0
N700 N 0.92609 0.59407 0.28454 0.0
C701 C 0.92238 0.58563 0.30324 0.0
C702 C 0.91168 0.5966 0.31893 0.0
C703 C 0.90853 0.61244 0.30962 0.0
C704 C 0.91744 0.61027 0.2889 0.0
N705 N 0.92305 0.60552 0.24111 0.0
C706 C 0.91321 0.62013 0.25026 0.0
C707 C 0.90305 0.63205 0.2359 0.0
C708 C 0.90718 0.62469 0.21637 0.0
C709 C 0.9198 0.60861 0.21988 0.0
N710 N 0.90368 0.572 0.25273 0.0
C711 C 0.85474 0.5491 0.25437 0.0
C712 C 0.85259 0.5662 0.26181 0.0
C713 C 0.87708 0.57744 0.26063 0.0
C714 C 0.88159 0.54433 0.24489 0.0
C715 C 0.90552 0.55573 0.24445 0.0
N716 N 0.97806 0.59825 0.26064 0.0
C717 C 1.01897 0.6143 0.24564 0.0
C718 C 0.03633 0.61124 0.26379 0.0
C719 C 0.02315 0.60231 0.28079 0.0
C720 C 0.99404 0.59619 0.27903 0.0
C721 C 0.99015 0.60769 0.24435 0.0
H722 H 0.98486 0.58924 0.29237 0.0
H723 H 0.9782 0.60975 0.22976 0.0
H724 H 0.87479 0.5903 0.2669 0.0
H725 H 0.92595 0.55093 0.23814 0.0
C726 C 0.98672 0.55536 0.24349 0.0
C727 C 0.93256 0.59816 0.20266 0.0
C728 C 0.92968 0.56749 0.30685 0.0
C729 C 0.91222 0.62186 0.27237 0.0
H730 H 0.96906 0.57625 0.17667 0.0
H731 H 1.00068 0.55368 0.19889 0.0
H732 H 0.99943 0.53097 0.27688 0.0
H733 H 0.96601 0.53702 0.31103 0.0
H734 H 0.90638 0.59346 0.3353 0.0
H735 H 0.89929 0.6239 0.31681 0.0
H736 H 0.89391 0.64464 0.23923 0.0
H737 H 0.90263 0.63085 0.20123 0.0
H738 H 0.83252 0.5708 0.26921 0.0
H739 H 0.88459 0.53167 0.23804 0.0
H740 H 0.02799 0.62114 0.23206 0.0
H741 H 0.03533 0.59993 0.29535 0.0
C742 C 0.83843 0.58225 0.55485 0.0
C743 C 0.82063 0.57353 0.56927 0.0
C744 C 0.80396 0.56216 0.55767 0.0
C745 C 0.81249 0.56449 0.53687 0.0
N746 N 0.83395 0.57638 0.53464 0.0
Co747 Co 0.8503 0.58442 0.50681 0.0
N748 N 0.83354 0.5645 0.49096 0.0
C749 C 0.81246 0.55379 0.4981 0.0
C750 C 0.80579 0.541 0.48373 0.0
C751 C 0.82383 0.54389 0.46647 0.0
C752 C 0.84053 0.55832 0.4713 0.0
N753 N 0.86571 0.59289 0.47902 0.0
C754 C 0.8695 0.58448 0.46032 0.0
C755 C 0.88086 0.5954 0.44478 0.0
C756 C 0.88432 0.61116 0.45415 0.0
C757 C 0.87493 0.60901 0.47477 0.0
N758 N 0.86784 0.60431 0.52247 0.0
C759 C 0.87832 0.61883 0.51342 0.0
C760 C 0.88839 0.63066 0.52788 0.0
C761 C 0.88353 0.62335 0.54737 0.0
C762 C 0.8706 0.60738 0.54372 0.0
N763 N 0.88664 0.5706 0.51128 0.0
C764 C 0.93519 0.54731 0.51105 0.0
C765 C 0.93779 0.56424 0.50301 0.0
C766 C 0.91354 0.57568 0.50356 0.0
C767 C 0.90796 0.54292 0.5203 0.0
C768 C 0.88423 0.55447 0.51997 0.0
N769 N 0.81321 0.59751 0.50214 0.0
C770 C 0.77217 0.61376 0.51656 0.0
C771 C 0.7552 0.61074 0.49823 0.0
C772 C 0.76867 0.60177 0.48142 0.0
C773 C 0.79766 0.59553 0.48355 0.0
C774 C 0.80087 0.60704 0.51822 0.0
H775 H 0.80705 0.58853 0.47035 0.0
H776 H 0.8125 0.60905 0.53296 0.0
H777 H 0.91632 0.58842 0.49696 0.0
H778 H 0.86354 0.54991 0.52611 0.0
C779 C 0.80301 0.55469 0.51935 0.0
C780 C 0.85714 0.59702 0.56079 0.0
C781 C 0.86156 0.56647 0.45652 0.0
C782 C 0.87999 0.62055 0.49133 0.0
H783 H 0.81934 0.57547 0.58633 0.0
H784 H 0.78774 0.55317 0.56374 0.0
H785 H 0.79044 0.53045 0.48584 0.0
H786 H 0.82461 0.53632 0.45201 0.0
H787 H 0.88634 0.59228 0.42844 0.0
H788 H 0.89399 0.62256 0.44707 0.0
H789 H 0.89796 0.64317 0.52465 0.0
H790 H 0.88782 0.62948 0.56254 0.0
H791 H 0.95805 0.5686 0.49567 0.0
H792 H 0.90448 0.53047 0.5276 0.0
H793 H 0.76291 0.62064 0.53 0.0
H794 H 0.75679 0.59941 0.46672 0.0
C795 C 0.95423 0.17695 0.55447 0.0
C796 C 0.97098 0.18628 0.56894 0.0
C797 C 0.98714 0.1979 0.55736 0.0
C798 C 0.97931 0.19515 0.5365 0.0
N799 N 0.95869 0.18276 0.53422 0.0
Co800 Co 0.94344 0.17417 0.50635 0.0
N801 N 0.95954 0.19424 0.49038 0.0
C802 C 0.97989 0.2054 0.49754 0.0
C803 C 0.98593 0.21827 0.4831 0.0
C804 C 0.96818 0.21497 0.4658 0.0
C805 C 0.95229 0.20025 0.47068 0.0
N806 N 0.92923 0.1652 0.47852 0.0
C807 C 0.92516 0.17348 0.45974 0.0
C808 C 0.91467 0.1623 0.44421 0.0
C809 C 0.912 0.1465 0.45369 0.0
C810 C 0.92098 0.1489 0.47437 0.0
N811 N 0.92643 0.15414 0.52213 0.0
C812 C 0.91687 0.13938 0.51317 0.0
C813 C 0.90724 0.12745 0.52767 0.0
C814 C 0.91146 0.13493 0.54712 0.0
C815 C 0.92356 0.15113 0.54342 0.0
N816 N 0.90631 0.18735 0.51001 0.0
C817 C 0.8565 0.20938 0.50852 0.0
C818 C 0.85495 0.19232 0.50108 0.0
C819 C 0.87988 0.18145 0.5023 0.0
C820 C 0.88325 0.21482 0.51744 0.0
C821 C 0.90767 0.20378 0.5179 0.0
N822 N 0.98126 0.16164 0.50243 0.0
C823 C 0.02141 0.14487 0.51721 0.0
C824 C 0.03985 0.14849 0.49965 0.0
C825 C 0.02698 0.15807 0.48291 0.0
C826 C 0.99779 0.16412 0.48441 0.0
C827 C 0.9928 0.15172 0.51843 0.0
H828 H 0.98904 0.17139 0.47119 0.0
H829 H 0.98046 0.14926 0.53274 0.0
H830 H 0.878 0.16848 0.49632 0.0
H831 H 0.92805 0.20895 0.52383 0.0
C832 C 0.98877 0.20492 0.51893 0.0
C833 C 0.93657 0.16172 0.56046 0.0
C834 C 0.93169 0.19169 0.456 0.0
C835 C 0.91597 0.13744 0.49107 0.0
H836 H 0.97196 0.18458 0.58606 0.0
H837 H 1.00259 0.20731 0.56346 0.0
H838 H 1.00052 0.22917 0.48523 0.0
H839 H 0.967 0.22252 0.4513 0.0
H840 H 0.9091 0.16529 0.42783 0.0
H841 H 0.90296 0.13492 0.44667 0.0
H842 H 0.89852 0.11473 0.5245 0.0
H843 H 0.90744 0.12872 0.56228 0.0
H844 H 0.83465 0.1874 0.49432 0.0
H845 H 0.88576 0.22786 0.52328 0.0
H846 H 0.02874 0.13697 0.53035 0.0
H847 H 0.03931 0.16148 0.46879 0.0
C848 C 0.67797 0.35861 0.79334 0.0
C849 C 0.66359 0.37386 0.79844 0.0
C850 C 0.6494 0.37918 0.78038 0.0
C851 C 0.65586 0.36694 0.76536 0.0
N852 N 0.67321 0.35417 0.77272 0.0
Co853 Co 0.68741 0.33392 0.7561 0.0
N854 N 0.67699 0.34516 0.72839 0.0
C855 C 0.66091 0.35964 0.72601 0.0
C856 C 0.65745 0.36464 0.70522 0.0
C857 C 0.67164 0.35235 0.69356 0.0
C858 C 0.68287 0.3404 0.70798 0.0
N859 N 0.70078 0.31347 0.7394 0.0
C860 C 0.70196 0.3108 0.71795 0.0
C861 C 0.70975 0.29394 0.71335 0.0
C862 C 0.71284 0.28562 0.73249 0.0
C863 C 0.70682 0.29783 0.74769 0.0
N864 N 0.69834 0.32318 0.78396 0.0
C865 C 0.7046 0.30644 0.78717 0.0
C866 C 0.71158 0.30278 0.80801 0.0
C867 C 0.70951 0.31818 0.81863 0.0
C868 C 0.70136 0.33041 0.80361 0.0
N869 N 0.64758 0.32308 0.75785 0.0
C870 C 0.59897 0.30001 0.7601 0.0
C871 C 0.61057 0.30781 0.77856 0.0
C872 C 0.63457 0.31938 0.77708 0.0
C873 C 0.61075 0.30534 0.7405 0.0
C874 C 0.63461 0.31677 0.73975 0.0
N875 N 0.72766 0.344 0.75443 0.0
C876 C 0.78056 0.34011 0.75757 0.0
C877 C 0.78607 0.35745 0.75258 0.0
C878 C 0.76121 0.36793 0.74866 0.0
C879 C 0.73239 0.361 0.74968 0.0
C880 C 0.75163 0.33372 0.75832 0.0
H881 H 0.71398 0.36944 0.74658 0.0
H882 H 0.74882 0.32035 0.76224 0.0
H883 H 0.64333 0.32471 0.79164 0.0
H884 H 0.64318 0.31982 0.72436 0.0
C885 C 0.65073 0.36873 0.74362 0.0
C886 C 0.69494 0.3485 0.80876 0.0
C887 C 0.6929 0.32321 0.70145 0.0
C888 C 0.70759 0.29527 0.76981 0.0
H889 H 0.66354 0.38055 0.81357 0.0
H890 H 0.63706 0.39098 0.77821 0.0
H891 H 0.64572 0.37578 0.69922 0.0
H892 H 0.67211 0.35179 0.67634 0.0
H893 H 0.71197 0.28815 0.69774 0.0
H894 H 0.71845 0.27223 0.735 0.0
H895 H 0.71829 0.2905 0.8146 0.0
H896 H 0.71342 0.3202 0.83547 0.0
H897 H 0.6021 0.30449 0.79417 0.0
H898 H 0.60199 0.30044 0.72563 0.0
H899 H 0.79849 0.3314 0.76125 0.0
H900 H 0.76388 0.38138 0.74455 0.0
C901 C 0.60791 0.90145 0.79286 0.0
C902 C 0.62452 0.8872 0.79881 0.0
C903 C 0.63959 0.88201 0.78106 0.0
C904 C 0.6316 0.89344 0.7654 0.0
N905 N 0.61256 0.90557 0.77212 0.0
Co906 Co 0.59719 0.92508 0.75475 0.0
N907 N 0.60815 0.91345 0.72748 0.0
C908 C 0.62558 0.89946 0.72572 0.0
C909 C 0.62975 0.89418 0.70513 0.0
C910 C 0.61458 0.90576 0.69296 0.0
C911 C 0.60203 0.91763 0.70688 0.0
N912 N 0.58279 0.94492 0.73733 0.0
C913 C 0.58067 0.94695 0.71581 0.0
C914 C 0.57179 0.96354 0.71064 0.0
C915 C 0.56902 0.97232 0.72946 0.0
C916 C 0.57628 0.96066 0.74506 0.0
N917 N 0.58575 0.93616 0.78222 0.0
C918 C 0.57841 0.9528 0.78483 0.0
C919 C 0.56957 0.9565 0.80526 0.0
C920 C 0.5715 0.94123 0.81623 0.0
C921 C 0.58174 0.92902 0.8019 0.0
N922 N 0.63645 0.9365 0.75593 0.0
C923 C 0.68689 0.95829 0.75718 0.0
C924 C 0.6756 0.95052 0.77583 0.0
C925 C 0.65054 0.9397 0.77486 0.0
C926 C 0.67288 0.95408 0.73793 0.0
C927 C 0.64839 0.94315 0.73765 0.0
N928 N 0.55751 0.91431 0.75356 0.0
C929 C 0.50438 0.91771 0.75447 0.0
C930 C 0.50006 0.89994 0.75257 0.0
C931 C 0.52528 0.88944 0.75126 0.0
C932 C 0.55373 0.89688 0.75147 0.0
C933 C 0.53297 0.92454 0.75525 0.0
H934 H 0.57263 0.88852 0.75003 0.0
H935 H 0.53499 0.9382 0.75741 0.0
H936 H 0.64212 0.93431 0.78953 0.0
H937 H 0.63853 0.94078 0.72247 0.0
C938 C 0.63689 0.89126 0.74372 0.0
C939 C 0.58871 0.91098 0.8075 0.0
C940 C 0.59019 0.93431 0.6997 0.0
C941 C 0.57518 0.9636 0.76709 0.0
H942 H 0.62553 0.88108 0.81431 0.0
H943 H 0.65357 0.87079 0.77953 0.0
H944 H 0.64271 0.88337 0.69957 0.0
H945 H 0.61436 0.90595 0.67573 0.0
H946 H 0.56861 0.96887 0.69485 0.0
H947 H 0.56256 0.98564 0.73151 0.0
H948 H 0.56128 0.96864 0.81124 0.0
H949 H 0.56567 0.93935 0.83278 0.0
H950 H 0.68577 0.95286 0.79117 0.0
H951 H 0.67985 0.95968 0.72296 0.0
H952 H 0.48567 0.92632 0.75581 0.0
H953 H 0.52302 0.87561 0.74975 0.0
C954 C 0.67419 0.90147 0.46463 0.0
C955 C 0.66234 0.88547 0.45943 0.0
C956 C 0.65787 0.87685 0.47813 0.0
C957 C 0.66707 0.88794 0.49371 0.0
N958 N 0.67655 0.90324 0.48612 0.0
Co959 Co 0.69312 0.92228 0.5037 0.0
N960 N 0.6779 0.9118 0.5304 0.0
C961 C 0.67008 0.89526 0.53321 0.0
C962 C 0.66051 0.89178 0.55353 0.0
C963 C 0.66227 0.90714 0.56414 0.0
C964 C 0.67276 0.91914 0.54955 0.0
N965 N 0.70888 0.94123 0.52165 0.0
C966 C 0.70017 0.94637 0.5414 0.0
C967 C 0.71566 0.96084 0.54779 0.0
C968 C 0.73465 0.96485 0.53138 0.0
C969 C 0.72967 0.95264 0.51591 0.0
N970 N 0.70924 0.93244 0.47692 0.0
C971 C 0.73025 0.94472 0.47608 0.0
C972 C 0.73864 0.94865 0.45561 0.0
C973 C 0.72245 0.93791 0.44279 0.0
C974 C 0.70503 0.92792 0.45616 0.0
N975 N 0.65628 0.93588 0.50045 0.0
C976 C 0.60691 0.95849 0.50208 0.0
C977 C 0.63421 0.96377 0.49377 0.0
C978 C 0.65832 0.95254 0.49341 0.0
C979 C 0.60466 0.94108 0.50846 0.0
C980 C 0.62938 0.93 0.50727 0.0
N981 N 0.73073 0.90942 0.50705 0.0
C982 C 0.77479 0.90291 0.52751 0.0
C983 C 0.78921 0.89617 0.5094 0.0
C984 C 0.7727 0.89564 0.49041 0.0
C985 C 0.74376 0.90194 0.4897 0.0
C986 C 0.74582 0.90948 0.52598 0.0
H987 H 0.73251 0.90133 0.47466 0.0
H988 H 0.73595 0.91505 0.54004 0.0
H989 H 0.67897 0.95776 0.48809 0.0
H990 H 0.62697 0.91686 0.51262 0.0
C991 C 0.66575 0.88469 0.51558 0.0
C992 C 0.68752 0.91306 0.44871 0.0
C993 C 0.67807 0.93728 0.55443 0.0
C994 C 0.73933 0.95335 0.49466 0.0
H995 H 0.65868 0.88009 0.44376 0.0
H996 H 0.64927 0.86394 0.4801 0.0
H997 H 0.65161 0.87979 0.55955 0.0
H998 H 0.6561 0.90932 0.58058 0.0
H999 H 0.71326 0.96784 0.5626 0.0
H1000 H 0.74914 0.9759 0.53042 0.0
H1001 H 0.75451 0.95823 0.45057 0.0
H1002 H 0.72391 0.93715 0.42559 0.0
H1003 H 0.63743 0.97669 0.48775 0.0
H1004 H 0.58429 0.93609 0.51498 0.0
H1005 H 0.78572 0.90331 0.54283 0.0
H1006 H 0.78214 0.89095 0.47569 0.0
C1007 C 0.61217 0.35891 0.46475 0.0
C1008 C 0.62532 0.37451 0.4595 0.0
C1009 C 0.6397 0.38008 0.47733 0.0
C1010 C 0.63447 0.36769 0.49245 0.0
N1011 N 0.61775 0.35455 0.48532 0.0
Co1012 Co 0.6047 0.33419 0.50229 0.0
N1013 N 0.61503 0.34573 0.52982 0.0
C1014 C 0.63029 0.36053 0.53194 0.0
C1015 C 0.6338 0.36566 0.55266 0.0
C1016 C 0.62059 0.35312 0.56454 0.0
C1017 C 0.60985 0.3409 0.55031 0.0
N1018 N 0.59264 0.3136 0.51927 0.0
C1019 C 0.59259 0.31088 0.54073 0.0
C1020 C 0.58582 0.2939 0.54554 0.0
C1021 C 0.58223 0.28556 0.52649 0.0
C1022 C 0.58697 0.29787 0.51115 0.0
N1023 N 0.59345 0.32324 0.47464 0.0
C1024 C 0.5876 0.30644 0.47161 0.0
C1025 C 0.57997 0.30268 0.45092 0.0
C1026 C 0.5811 0.3181 0.44022 0.0
C1027 C 0.58936 0.33043 0.45503 0.0
N1028 N 0.645 0.32382 0.50031 0.0
C1029 C 0.69368 0.30068 0.49917 0.0
C1030 C 0.68052 0.30685 0.48028 0.0
C1031 C 0.6567 0.3186 0.48119 0.0
C1032 C 0.68367 0.30789 0.51833 0.0
C1033 C 0.65962 0.31919 0.51855 0.0
N1034 N 0.56415 0.34373 0.50431 0.0
C1035 C 0.51139 0.33932 0.50119 0.0
C1036 C 0.50557 0.35652 0.50644 0.0
C1037 C 0.52995 0.36718 0.51075 0.0
C1038 C 0.55894 0.36061 0.50941 0.0
C1039 C 0.54049 0.33321 0.50041 0.0
H1040 H 0.57707 0.36924 0.51245 0.0
H1041 H 0.54366 0.31986 0.49655 0.0
H1042 H 0.64703 0.32276 0.46634 0.0
H1043 H 0.6524 0.32342 0.53386 0.0
C1044 C 0.63975 0.36969 0.51414 0.0
C1045 C 0.59506 0.34856 0.44964 0.0
C1046 C 0.60153 0.32345 0.55701 0.0
C1047 C 0.58557 0.29526 0.48906 0.0
H1048 H 0.62424 0.38135 0.44448 0.0
H1049 H 0.65115 0.3922 0.47937 0.0
H1050 H 0.64503 0.37703 0.55847 0.0
H1051 H 0.62055 0.35253 0.58178 0.0
H1052 H 0.58456 0.28806 0.5612 0.0
H1053 H 0.5772 0.27207 0.52412 0.0
H1054 H 0.57342 0.29032 0.44452 0.0
H1055 H 0.57653 0.32006 0.42345 0.0
H1056 H 0.68761 0.30216 0.46487 0.0
H1057 H 0.69382 0.30455 0.5334 0.0
H1058 H 0.49348 0.33045 0.49801 0.0
H1059 H 0.52672 0.38061 0.51477 0.0
C1060 C 0.33564 0.67625 0.20638 0.0
C1061 C 0.31741 0.68502 0.19226 0.0
C1062 C 0.30187 0.69679 0.204 0.0
C1063 C 0.31127 0.69457 0.22461 0.0
N1064 N 0.33235 0.68241 0.22662 0.0
Co1065 Co 0.34861 0.674 0.25441 0.0
N1066 N 0.33204 0.69385 0.27055 0.0
C1067 C 0.31127 0.70482 0.26354 0.0
C1068 C 0.30486 0.71754 0.27805 0.0
C1069 C 0.32279 0.71436 0.29528 0.0
C1070 C 0.33915 0.69984 0.29027 0.0
N1071 N 0.36391 0.6652 0.28212 0.0
C1072 C 0.36761 0.67343 0.30096 0.0
C1073 C 0.37922 0.66244 0.31632 0.0
C1074 C 0.38314 0.64684 0.30666 0.0
C1075 C 0.37371 0.64915 0.28607 0.0
N1076 N 0.36609 0.65424 0.23844 0.0
C1077 C 0.37835 0.64008 0.2472 0.0
C1078 C 0.38996 0.62893 0.23252 0.0
C1079 C 0.3841 0.63624 0.21317 0.0
C1080 C 0.36863 0.65135 0.21714 0.0
N1081 N 0.38519 0.6877 0.25026 0.0
C1082 C 0.43436 0.71032 0.25097 0.0
C1083 C 0.43661 0.6933 0.25851 0.0
C1084 C 0.41202 0.68215 0.25769 0.0
C1085 C 0.40722 0.71542 0.24232 0.0
C1086 C 0.38311 0.70409 0.24227 0.0
N1087 N 0.31136 0.66098 0.2589 0.0
C1088 C 0.27035 0.6447 0.24445 0.0
C1089 C 0.2533 0.64776 0.26272 0.0
C1090 C 0.26673 0.65676 0.27954 0.0
C1091 C 0.29573 0.66298 0.27745 0.0
C1092 C 0.29907 0.6514 0.24284 0.0
H1093 H 0.3051 0.66995 0.29068 0.0
H1094 H 0.31076 0.64928 0.22819 0.0
H1095 H 0.41455 0.66924 0.26373 0.0
H1096 H 0.36242 0.70901 0.23655 0.0
C1097 C 0.302 0.70424 0.24226 0.0
C1098 C 0.35268 0.66081 0.20036 0.0
C1099 C 0.36003 0.69146 0.30492 0.0
C1100 C 0.37996 0.63807 0.26924 0.0
H1101 H 0.31474 0.68275 0.17536 0.0
H1102 H 0.28542 0.70575 0.19821 0.0
H1103 H 0.28982 0.72825 0.27603 0.0
H1104 H 0.32376 0.72182 0.30982 0.0
H1105 H 0.38485 0.66546 0.33266 0.0
H1106 H 0.39339 0.63551 0.31348 0.0
H1107 H 0.40124 0.61688 0.23552 0.0
H1108 H 0.38938 0.63065 0.19784 0.0
H1109 H 0.45722 0.68863 0.26508 0.0
H1110 H 0.40415 0.7284 0.2364 0.0
H1111 H 0.26116 0.63777 0.23102 0.0
H1112 H 0.25481 0.65913 0.29421 0.0
C1113 C 0.45152 0.0817 0.20748 0.0
C1114 C 0.46833 0.07256 0.19287 0.0
C1115 C 0.48484 0.061 0.20433 0.0
C1116 C 0.47721 0.06364 0.22525 0.0
N1117 N 0.45645 0.07592 0.22769 0.0
Co1118 Co 0.44154 0.08447 0.25567 0.0
N1119 N 0.45779 0.06438 0.27148 0.0
C1120 C 0.47818 0.0533 0.26419 0.0
C1121 C 0.48456 0.04046 0.27859 0.0
C1122 C 0.46703 0.04371 0.29603 0.0
C1123 C 0.45092 0.05838 0.29126 0.0
N1124 N 0.42748 0.09337 0.28357 0.0
C1125 C 0.42361 0.08507 0.30235 0.0
C1126 C 0.41331 0.09623 0.31797 0.0
C1127 C 0.41059 0.11205 0.30853 0.0
C1128 C 0.41935 0.10968 0.28781 0.0
N1129 N 0.42459 0.10458 0.24006 0.0
C1130 C 0.41532 0.11937 0.24908 0.0
C1131 C 0.40543 0.13129 0.23464 0.0
C1132 C 0.40913 0.12374 0.21516 0.0
C1133 C 0.42124 0.10755 0.21882 0.0
N1134 N 0.4043 0.07133 0.25203 0.0
C1135 C 0.35408 0.04954 0.2528 0.0
C1136 C 0.35272 0.06653 0.26052 0.0
C1137 C 0.37786 0.07728 0.25966 0.0
C1138 C 0.38091 0.04403 0.24408 0.0
C1139 C 0.40554 0.05494 0.24402 0.0
N1140 N 0.47945 0.09693 0.25955 0.0
C1141 C 0.5206 0.11276 0.2445 0.0
C1142 C 0.53779 0.10988 0.26278 0.0
C1143 C 0.52443 0.10108 0.27982 0.0
C1144 C 0.49531 0.09497 0.27801 0.0
C1145 C 0.49176 0.10618 0.24317 0.0
H1146 H 0.486 0.08816 0.2914 0.0
H1147 H 0.47992 0.10812 0.2285 0.0
H1148 H 0.37608 0.09021 0.26578 0.0
H1149 H 0.42595 0.0497 0.23819 0.0
C1150 C 0.48691 0.05386 0.24275 0.0
C1151 C 0.4334 0.09678 0.20167 0.0
C1152 C 0.43049 0.06689 0.30612 0.0
C1153 C 0.41447 0.12124 0.27119 0.0
H1154 H 0.46911 0.07435 0.17576 0.0
H1155 H 0.50039 0.0517 0.19811 0.0
H1156 H 0.49928 0.02963 0.27638 0.0
H1157 H 0.46617 0.03617 0.31055 0.0
H1158 H 0.40803 0.09325 0.33439 0.0
H1159 H 0.40176 0.12365 0.31565 0.0
H1160 H 0.39669 0.144 0.23786 0.0
H1161 H 0.40462 0.12982 0.19998 0.0
H1162 H 0.33239 0.07149 0.26718 0.0
H1163 H 0.38327 0.03104 0.23804 0.0
H1164 H 0.52976 0.11948 0.23088 0.0
H1165 H 0.53647 0.09881 0.29447 0.0
C1166 C 0.3418 0.08158 0.55506 0.0
C1167 C 0.32361 0.0729 0.56926 0.0
C1168 C 0.30671 0.06183 0.55741 0.0
C1169 C 0.31553 0.06427 0.53669 0.0
N1170 N 0.33738 0.07594 0.53474 0.0
Co1171 Co 0.35412 0.08418 0.50714 0.0
N1172 N 0.3364 0.06477 0.49079 0.0
C1173 C 0.31463 0.05439 0.4976 0.0
C1174 C 0.30729 0.04197 0.48292 0.0
C1175 C 0.32561 0.04476 0.4658 0.0
C1176 C 0.34313 0.05876 0.47102 0.0
N1177 N 0.37021 0.09272 0.4796 0.0
C1178 C 0.37376 0.08447 0.46077 0.0
C1179 C 0.3859 0.09534 0.4455 0.0
C1180 C 0.39013 0.11092 0.45518 0.0
C1181 C 0.38038 0.1087 0.4757 0.0
N1182 N 0.37248 0.1036 0.52325 0.0
C1183 C 0.38371 0.11806 0.51453 0.0
C1184 C 0.39425 0.12953 0.52924 0.0
C1185 C 0.38888 0.12207 0.54857 0.0
C1186 C 0.37519 0.10637 0.54457 0.0
N1187 N 0.38977 0.06984 0.51147 0.0
C1188 C 0.43865 0.04689 0.51217 0.0
C1189 C 0.44208 0.06448 0.50697 0.0
C1190 C 0.41749 0.07566 0.50666 0.0
C1191 C 0.41009 0.04144 0.51765 0.0
C1192 C 0.38638 0.053 0.51746 0.0
N1193 N 0.31764 0.09789 0.50268 0.0
C1194 C 0.27795 0.11505 0.51737 0.0
C1195 C 0.25957 0.11182 0.49965 0.0
C1196 C 0.27244 0.10239 0.4828 0.0
C1197 C 0.30139 0.09598 0.48443 0.0
C1198 C 0.3063 0.10784 0.5187 0.0
H1199 H 0.31008 0.08878 0.47115 0.0
H1200 H 0.31852 0.10995 0.53314 0.0
H1201 H 0.42081 0.08892 0.50206 0.0
H1202 H 0.36496 0.048 0.52141 0.0
C1203 C 0.30538 0.05503 0.51891 0.0
C1204 C 0.36083 0.09613 0.56135 0.0
C1205 C 0.36475 0.06669 0.45652 0.0
C1206 C 0.38576 0.11998 0.49248 0.0
H1207 H 0.32215 0.07473 0.58633 0.0
H1208 H 0.29003 0.05304 0.56324 0.0
H1209 H 0.29137 0.03168 0.48476 0.0
H1210 H 0.32605 0.03738 0.45117 0.0
H1211 H 0.39134 0.09233 0.42912 0.0
H1212 H 0.40046 0.12222 0.44836 0.0
H1213 H 0.40447 0.14191 0.52628 0.0
H1214 H 0.39332 0.12796 0.56386 0.0
H1215 H 0.46354 0.06968 0.50303 0.0
H1216 H 0.40549 0.02812 0.52143 0.0
H1217 H 0.27074 0.12286 0.5306 0.0
H1218 H 0.2603 0.09933 0.46849 0.0
C1219 C 0.45281 0.67586 0.55189 0.0
C1220 C 0.47003 0.68475 0.5665 0.0
C1221 C 0.48704 0.69606 0.55504 0.0
C1222 C 0.4793 0.69353 0.53411 0.0
N1223 N 0.45799 0.68157 0.53168 0.0
Co1224 Co 0.4427 0.67323 0.50372 0.0
N1225 N 0.45965 0.69313 0.48793 0.0
C1226 C 0.48049 0.70393 0.4952 0.0
C1227 C 0.48713 0.71676 0.48084 0.0
C1228 C 0.46928 0.7138 0.46349 0.0
C1229 C 0.45273 0.6993 0.46826 0.0
N1230 N 0.42828 0.66454 0.47582 0.0
C1231 C 0.42453 0.67295 0.45712 0.0
C1232 C 0.41378 0.66196 0.44147 0.0
C1233 C 0.41064 0.64613 0.45083 0.0
C1234 C 0.41962 0.64834 0.47154 0.0
N1235 N 0.425 0.65335 0.51929 0.0
C1236 C 0.41522 0.63867 0.51025 0.0
C1237 C 0.40486 0.62689 0.52469 0.0
C1238 C 0.40879 0.6344 0.54416 0.0
C1239 C 0.42149 0.65044 0.54052 0.0
N1240 N 0.40604 0.68686 0.50735 0.0
C1241 C 0.35765 0.71004 0.5049 0.0
C1242 C 0.35514 0.69284 0.49791 0.0
C1243 C 0.3794 0.68146 0.49947 0.0
C1244 C 0.38446 0.71477 0.51446 0.0
C1245 C 0.40811 0.70322 0.51534 0.0
N1246 N 0.4801 0.66032 0.49984 0.0
C1247 C 0.52091 0.64431 0.51505 0.0
C1248 C 0.53828 0.6472 0.49687 0.0
C1249 C 0.52514 0.65601 0.47975 0.0
C1250 C 0.49608 0.6622 0.48143 0.0
C1251 C 0.49213 0.65098 0.51624 0.0
H1252 H 0.48694 0.66907 0.468 0.0
H1253 H 0.48015 0.64908 0.53086 0.0
H1254 H 0.37694 0.66853 0.49344 0.0
H1255 H 0.42857 0.70797 0.52166 0.0
C1256 C 0.48932 0.7032 0.51662 0.0
C1257 C 0.43405 0.66106 0.55767 0.0
C1258 C 0.43178 0.69109 0.4535 0.0
C1259 C 0.41433 0.63681 0.48814 0.0
H1260 H 0.47072 0.68295 0.58361 0.0
H1261 H 0.50297 0.70513 0.56127 0.0
H1262 H 0.5022 0.72742 0.48306 0.0
H1263 H 0.46847 0.72142 0.44903 0.0
H1264 H 0.40841 0.66507 0.4251 0.0
H1265 H 0.40135 0.63466 0.44369 0.0
H1266 H 0.39568 0.61429 0.52146 0.0
H1267 H 0.40403 0.62837 0.55934 0.0
H1268 H 0.33503 0.6883 0.49051 0.0
H1269 H 0.38762 0.72754 0.52096 0.0
H1270 H 0.5299 0.63757 0.52871 0.0
H1271 H 0.53735 0.65826 0.46517 0.0
C1272 C 0.67818 0.8596 0.29279 0.0
C1273 C 0.66416 0.87495 0.29796 0.0
C1274 C 0.64994 0.88038 0.27998 0.0
C1275 C 0.65604 0.86812 0.26491 0.0
N1276 N 0.67317 0.85521 0.27219 0.0
Co1277 Co 0.68685 0.83489 0.25549 0.0
N1278 N 0.67647 0.84625 0.22784 0.0
C1279 C 0.66079 0.86089 0.22553 0.0
C1280 C 0.65735 0.86594 0.20475 0.0
C1281 C 0.67111 0.85353 0.19304 0.0
C1282 C 0.68207 0.84145 0.20741 0.0
N1283 N 0.69954 0.81434 0.23871 0.0
C1284 C 0.70023 0.81164 0.21726 0.0
C1285 C 0.70752 0.79472 0.2126 0.0
C1286 C 0.71082 0.7864 0.23172 0.0
C1287 C 0.7054 0.79866 0.24697 0.0
N1288 N 0.69795 0.82408 0.28327 0.0
C1289 C 0.70407 0.80732 0.28644 0.0
C1290 C 0.71132 0.80363 0.30723 0.0
C1291 C 0.7096 0.81905 0.31785 0.0
C1292 C 0.70137 0.8313 0.3029 0.0
N1293 N 0.64674 0.82432 0.25741 0.0
C1294 C 0.59675 0.80228 0.25943 0.0
C1295 C 0.60998 0.80875 0.27805 0.0
C1296 C 0.63441 0.82001 0.2767 0.0
C1297 C 0.608 0.80805 0.2399 0.0
C1298 C 0.63273 0.81887 0.23926 0.0
N1299 N 0.72729 0.84471 0.25364 0.0
C1300 C 0.78017 0.84053 0.25658 0.0
C1301 C 0.78591 0.85791 0.25188 0.0
C1302 C 0.76118 0.86853 0.24815 0.0
C1303 C 0.73227 0.86174 0.24912 0.0
C1304 C 0.75113 0.83428 0.25729 0.0
H1305 H 0.71398 0.87029 0.24619 0.0
H1306 H 0.74815 0.82088 0.26101 0.0
H1307 H 0.64384 0.8247 0.29136 0.0
H1308 H 0.64101 0.82214 0.22384 0.0
C1309 C 0.65087 0.87001 0.24319 0.0
C1310 C 0.69519 0.8494 0.3081 0.0
C1311 C 0.69137 0.82415 0.20084 0.0
C1312 C 0.70656 0.79612 0.26908 0.0
H1313 H 0.66441 0.88165 0.31309 0.0
H1314 H 0.63788 0.89229 0.27786 0.0
H1315 H 0.64586 0.87719 0.19881 0.0
H1316 H 0.67143 0.85294 0.17581 0.0
H1317 H 0.70934 0.7889 0.19698 0.0
H1318 H 0.71618 0.77296 0.2342 0.0
H1319 H 0.71796 0.79132 0.31377 0.0
H1320 H 0.71376 0.82105 0.33466 0.0
H1321 H 0.60167 0.80506 0.29358 0.0
H1322 H 0.59861 0.80358 0.22502 0.0
H1323 H 0.79798 0.8317 0.2601 0.0
H1324 H 0.76401 0.882 0.24424 0.0
C1325 C 0.6083 0.40163 0.29321 0.0
C1326 C 0.62259 0.38638 0.29848 0.0
C1327 C 0.63758 0.38125 0.2807 0.0
C1328 C 0.63159 0.39356 0.26561 0.0
N1329 N 0.61377 0.40619 0.2727 0.0
Co1330 Co 0.59961 0.42633 0.25582 0.0
N1331 N 0.61065 0.41512 0.22828 0.0
C1332 C 0.62752 0.40092 0.22618 0.0
C1333 C 0.63179 0.39601 0.20546 0.0
C1334 C 0.61727 0.40804 0.19357 0.0
C1335 C 0.60494 0.41976 0.20778 0.0
N1336 N 0.58617 0.44666 0.23893 0.0
C1337 C 0.58452 0.44914 0.21746 0.0
C1338 C 0.57634 0.46594 0.21272 0.0
C1339 C 0.57354 0.47438 0.23177 0.0
C1340 C 0.58006 0.46233 0.24708 0.0
N1341 N 0.58816 0.43705 0.28352 0.0
C1342 C 0.58199 0.4538 0.28663 0.0
C1343 C 0.57456 0.45745 0.30739 0.0
C1344 C 0.57622 0.44201 0.31803 0.0
C1345 C 0.58456 0.42978 0.30313 0.0
N1346 N 0.63928 0.43731 0.25774 0.0
C1347 C 0.6893 0.45921 0.26028 0.0
C1348 C 0.6766 0.45201 0.27871 0.0
C1349 C 0.6521 0.44085 0.27707 0.0
C1350 C 0.67734 0.45437 0.2406 0.0
C1351 C 0.65254 0.44362 0.23969 0.0
N1352 N 0.55956 0.41609 0.25393 0.0
C1353 C 0.50665 0.41975 0.25701 0.0
C1354 C 0.50141 0.40238 0.2521 0.0
C1355 C 0.52639 0.39201 0.24822 0.0
C1356 C 0.5551 0.39907 0.24921 0.0
C1357 C 0.53547 0.42627 0.25774 0.0
H1358 H 0.57366 0.39073 0.24616 0.0
H1359 H 0.5381 0.43966 0.26161 0.0
H1360 H 0.64296 0.43561 0.29157 0.0
H1361 H 0.64357 0.44113 0.22421 0.0
C1362 C 0.63748 0.39191 0.24397 0.0
C1363 C 0.59072 0.41166 0.30836 0.0
C1364 C 0.59346 0.43663 0.20106 0.0
C1365 C 0.57919 0.46495 0.26919 0.0
H1366 H 0.62204 0.37956 0.31353 0.0
H1367 H 0.65009 0.36949 0.27869 0.0
H1368 H 0.64421 0.38507 0.19966 0.0
H1369 H 0.61721 0.40854 0.17634 0.0
H1370 H 0.57361 0.4716 0.19706 0.0
H1371 H 0.56764 0.48775 0.23416 0.0
H1372 H 0.56776 0.46973 0.31388 0.0
H1373 H 0.5719 0.43998 0.33482 0.0
H1374 H 0.68543 0.45505 0.29431 0.0
H1375 H 0.68627 0.45949 0.22588 0.0
H1376 H 0.48861 0.42838 0.26068 0.0
H1377 H 0.5239 0.37854 0.24415 0.0
C1378 C 0.6747 0.3999 0.96632 0.0
C1379 C 0.66354 0.38364 0.96158 0.0
C1380 C 0.65997 0.37519 0.9805 0.0
C1381 C 0.669 0.38662 0.99575 0.0
N1382 N 0.67752 0.40197 0.98775 0.0
Co1383 Co 0.69368 0.42146 1.00475 0.0
N1384 N 0.67962 0.41111 0.03185 0.0
C1385 C 0.67252 0.39451 0.03509 0.0
C1386 C 0.66333 0.39122 0.05555 0.0
C1387 C 0.66458 0.40678 0.06579 0.0
C1388 C 0.67441 0.41869 0.05086 0.0
N1389 N 0.70915 0.44083 0.02212 0.0
C1390 C 0.7007 0.44611 0.04186 0.0
C1391 C 0.71581 0.46084 0.0478 0.0
C1392 C 0.73427 0.46488 0.03109 0.0
C1393 C 0.72938 0.45242 0.01591 0.0
N1394 N 0.70852 0.43158 0.97757 0.0
C1395 C 0.72892 0.44418 0.97619 0.0
C1396 C 0.73642 0.44806 0.95553 0.0
C1397 C 0.7203 0.43696 0.94314 0.0
C1398 C 0.70384 0.42681 0.95695 0.0
N1399 N 0.65618 0.43441 1.00183 0.0
C1400 C 0.60554 0.45574 1.00328 0.0
C1401 C 0.63238 0.46182 0.99526 0.0
C1402 C 0.65722 0.45114 0.99488 0.0
C1403 C 0.60436 0.43847 0.01004 0.0
C1404 C 0.62975 0.42795 0.00883 0.0
N1405 N 0.73187 0.40918 0.0078 0.0
C1406 C 0.77624 0.40298 0.02804 0.0
C1407 C 0.79056 0.39624 0.0099 0.0
C1408 C 0.77392 0.39563 0.99097 0.0
C1409 C 0.74488 0.40178 0.99038 0.0
C1410 C 0.74718 0.40942 0.02663 0.0
H1411 H 0.73347 0.40105 0.97541 0.0
H1412 H 0.73736 0.41497 0.04072 0.0
H1413 H 0.6776 0.45681 0.98967 0.0
H1414 H 0.62819 0.41476 0.01416 0.0
C1415 C 0.6683 0.38364 0.01771 0.0
C1416 C 0.6869 0.41156 0.95001 0.0
C1417 C 0.67913 0.43696 0.05527 0.0
C1418 C 0.7383 0.45308 0.99449 0.0
H1419 H 0.65973 0.37804 0.94605 0.0
H1420 H 0.65204 0.36217 0.98282 0.0
H1421 H 0.65495 0.37922 0.06191 0.0
H1422 H 0.65849 0.40914 0.08222 0.0
H1423 H 0.71347 0.46801 0.06249 0.0
H1424 H 0.74828 0.47612 0.02973 0.0
H1425 H 0.75168 0.45784 0.95008 0.0
H1426 H 0.72123 0.43607 0.92593 0.0
H1427 H 0.63455 0.47506 0.99001 0.0
H1428 H 0.58399 0.43313 0.01618 0.0
H1429 H 0.78728 0.40346 0.04331 0.0
H1430 H 0.78329 0.39096 0.97623 0.0
C1431 C 0.612 0.85713 0.96222 0.0
C1432 C 0.62769 0.87163 0.95583 0.0
C1433 C 0.64345 0.87703 0.97314 0.0
C1434 C 0.63681 0.86551 0.98901 0.0
N1435 N 0.61795 0.85309 0.98282 0.0
Co1436 Co 0.60447 0.83333 1.00054 0.0
N1437 N 0.6167 0.84507 0.02746 0.0
C1438 C 0.63349 0.85936 0.0288 0.0
C1439 C 0.63824 0.86478 0.04928 0.0
C1440 C 0.62417 0.85297 0.06181 0.0
C1441 C 0.61174 0.84085 0.04819 0.0
N1442 N 0.59196 0.81329 0.0183 0.0
C1443 C 0.5919 0.81109 0.03985 0.0
C1444 C 0.58434 0.79434 0.04526 0.0
C1445 C 0.58021 0.78563 0.02652 0.0
C1446 C 0.58544 0.7975 0.01073 0.0
N1447 N 0.59156 0.82218 0.97341 0.0
C1448 C 0.58468 0.80545 0.97096 0.0
C1449 C 0.57472 0.80168 0.95081 0.0
C1450 C 0.57546 0.81699 0.93986 0.0
C1451 C 0.58615 0.8293 0.9539 0.0
N1452 N 0.64404 0.82226 0.99795 0.0
C1453 C 0.69358 0.79997 0.99548 0.0
C1454 C 0.67962 0.80615 0.97696 0.0
C1455 C 0.65539 0.81753 0.97852 0.0
C1456 C 0.68318 0.80605 0.01508 0.0
C1457 C 0.65864 0.81697 0.01595 0.0
N1458 N 0.56455 0.8436 1.00321 0.0
C1459 C 0.51159 0.83968 1.00201 0.0
C1460 C 0.50639 0.85701 0.00715 0.0
C1461 C 0.53145 0.86755 0.00997 0.0
C1462 C 0.56019 0.86064 0.00788 0.0
C1463 C 0.54038 0.83331 1.00032 0.0
H1464 H 0.57883 0.86908 0.01014 0.0
H1465 H 0.54287 0.8199 0.99655 0.0
H1466 H 0.6453 0.822 0.96395 0.0
H1467 H 0.65098 0.82044 0.03146 0.0
C1468 C 0.64332 0.86777 0.0105 0.0
C1469 C 0.59236 0.84738 0.94811 0.0
C1470 C 0.60167 0.8239 0.05562 0.0
C1471 C 0.583 0.79457 0.98875 0.0
H1472 H 0.62762 0.87776 0.94033 0.0
H1473 H 0.65705 0.88845 0.97429 0.0
H1474 H 0.65081 0.87585 0.05451 0.0
H1475 H 0.62464 0.85275 0.07906 0.0
H1476 H 0.58286 0.78889 0.06113 0.0
H1477 H 0.5743 0.77221 0.02464 0.0
H1478 H 0.56653 0.78945 0.94505 0.0
H1479 H 0.56864 0.81883 0.92349 0.0
H1480 H 0.68724 0.80216 0.96137 0.0
H1481 H 0.69314 0.80176 0.02987 0.0
H1482 H 0.49351 0.83092 0.99898 0.0
H1483 H 0.52905 0.88101 0.01408 0.0
C1484 C 0.33876 0.17636 0.70793 0.0
C1485 C 0.32179 0.18547 0.69335 0.0
C1486 C 0.30476 0.19671 0.70487 0.0
C1487 C 0.31226 0.19393 0.7258 0.0
N1488 N 0.33343 0.18188 0.72818 0.0
Co1489 Co 0.34828 0.17317 0.75612 0.0
N1490 N 0.33113 0.19286 0.77214 0.0
C1491 C 0.31031 0.20372 0.76493 0.0
C1492 C 0.30351 0.21638 0.77945 0.0
C1493 C 0.32124 0.21324 0.79684 0.0
C1494 C 0.3379 0.19882 0.79192 0.0
N1495 N 0.36243 0.16417 0.78397 0.0
C1496 C 0.36616 0.17241 0.80278 0.0
C1497 C 0.37683 0.16126 0.81831 0.0
C1498 C 0.37995 0.14552 0.80879 0.0
C1499 C 0.37104 0.14793 0.78808 0.0
N1500 N 0.36607 0.15343 0.74038 0.0
C1501 C 0.37564 0.13863 0.74929 0.0
C1502 C 0.38604 0.12696 0.73477 0.0
C1503 C 0.38234 0.13466 0.71537 0.0
C1504 C 0.36972 0.1507 0.71913 0.0
N1505 N 0.38502 0.18679 0.75287 0.0
C1506 C 0.43428 0.2093 0.75501 0.0
C1507 C 0.43667 0.19181 0.76086 0.0
C1508 C 0.41189 0.1808 0.75962 0.0
C1509 C 0.40699 0.2148 0.74697 0.0
C1510 C 0.38296 0.2035 0.74604 0.0
N1511 N 0.31074 0.16024 0.75955 0.0
C1512 C 0.27012 0.14452 0.74367 0.0
C1513 C 0.2525 0.14695 0.76183 0.0
C1514 C 0.26543 0.15547 0.77925 0.0
C1515 C 0.29451 0.16178 0.77789 0.0
C1516 C 0.2989 0.15121 0.74284 0.0
H1517 H 0.30347 0.16844 0.79152 0.0
H1518 H 0.31104 0.14956 0.72826 0.0
H1519 H 0.4142 0.16762 0.76486 0.0
H1520 H 0.36231 0.20865 0.74054 0.0
C1521 C 0.30188 0.20332 0.74341 0.0
C1522 C 0.35732 0.16149 0.70204 0.0
C1523 C 0.35888 0.19051 0.8066 0.0
C1524 C 0.37636 0.13655 0.77138 0.0
H1525 H 0.32121 0.18383 0.67622 0.0
H1526 H 0.28891 0.20587 0.69868 0.0
H1527 H 0.28847 0.22707 0.77732 0.0
H1528 H 0.32195 0.2207 0.8114 0.0
H1529 H 0.38216 0.16422 0.83473 0.0
H1530 H 0.38919 0.13398 0.81581 0.0
H1531 H 0.39511 0.11431 0.7379 0.0
H1532 H 0.38717 0.12874 0.70016 0.0
H1533 H 0.45721 0.18677 0.76708 0.0
H1534 H 0.40391 0.22794 0.7416 0.0
H1535 H 0.26138 0.13806 0.72974 0.0
H1536 H 0.25312 0.15738 0.79385 0.0
C1537 C 0.44965 0.58279 0.70636 0.0
C1538 C 0.46709 0.57351 0.69227 0.0
C1539 C 0.48334 0.56218 0.70429 0.0
C1540 C 0.47498 0.5651 0.72501 0.0
N1541 N 0.45399 0.57733 0.72677 0.0
Co1542 Co 0.43813 0.58629 0.75424 0.0
N1543 N 0.4538 0.56646 0.7708 0.0
C1544 C 0.47436 0.55523 0.76417 0.0
C1545 C 0.47968 0.54244 0.77887 0.0
C1546 C 0.46123 0.54588 0.79576 0.0
C1547 C 0.44568 0.56063 0.7904 0.0
N1548 N 0.42334 0.59569 0.78164 0.0
C1549 C 0.41876 0.58766 0.80047 0.0
C1550 C 0.40863 0.59913 0.8158 0.0
C1551 C 0.40658 0.61486 0.80603 0.0
C1552 C 0.41562 0.61212 0.78543 0.0
N1553 N 0.42159 0.60612 0.73792 0.0
C1554 C 0.41224 0.62109 0.74644 0.0
C1555 C 0.40267 0.63275 0.73156 0.0
C1556 C 0.40671 0.62482 0.71235 0.0
C1557 C 0.41871 0.60869 0.71658 0.0
N1558 N 0.40107 0.57298 0.75039 0.0
C1559 C 0.35211 0.55011 0.75264 0.0
C1560 C 0.34999 0.56731 0.75972 0.0
C1561 C 0.3745 0.57854 0.75823 0.0
C1562 C 0.37887 0.54524 0.74313 0.0
C1563 C 0.4028 0.55661 0.7424 0.0
N1564 N 0.47592 0.59882 0.75837 0.0
C1565 C 0.51751 0.61434 0.74348 0.0
C1566 C 0.53438 0.61147 0.76191 0.0
C1567 C 0.52064 0.60289 0.77896 0.0
C1568 C 0.49145 0.59694 0.777 0.0
C1569 C 0.4886 0.60789 0.74199 0.0
H1570 H 0.48182 0.59028 0.7904 0.0
H1571 H 0.47703 0.60976 0.7272 0.0
H1572 H 0.37226 0.59149 0.76428 0.0
H1573 H 0.42318 0.55168 0.73618 0.0
C1574 C 0.48398 0.55553 0.7429 0.0
C1575 C 0.43145 0.59766 0.69991 0.0
C1576 C 0.42441 0.56939 0.80443 0.0
C1577 C 0.41114 0.62343 0.76848 0.0
H1578 H 0.4684 0.57504 0.67514 0.0
H1579 H 0.49916 0.55283 0.69855 0.0
H1580 H 0.49422 0.53147 0.77715 0.0
H1581 H 0.45932 0.53841 0.81027 0.0
H1582 H 0.40294 0.5964 0.83222 0.0
H1583 H 0.39793 0.62664 0.81282 0.0
H1584 H 0.39399 0.64554 0.73432 0.0
H1585 H 0.40258 0.63065 0.69696 0.0
H1586 H 0.32998 0.572 0.7671 0.0
H1587 H 0.38183 0.53249 0.73652 0.0
H1588 H 0.52699 0.62091 0.72986 0.0
H1589 H 0.53246 0.60066 0.79371 0.0
C1590 C 0.33946 0.57811 0.05453 0.0
C1591 C 0.32928 0.56609 0.06917 0.0
C1592 C 0.32724 0.55069 0.05855 0.0
C1593 C 0.33594 0.55413 0.03801 0.0
N1594 N 0.34326 0.57074 0.03498 0.0
Co1595 Co 0.35473 0.58142 0.00722 0.0
N1596 N 0.34095 0.56118 0.99035 0.0
C1597 C 0.33491 0.54549 0.9985 0.0
C1598 C 0.32821 0.53349 0.98321 0.0
C1599 C 0.33082 0.542 0.96416 0.0
C1600 C 0.33905 0.55878 0.9689 0.0
N1601 N 0.36529 0.59275 0.97963 0.0
C1602 C 0.3589 0.5883 0.95919 0.0
C1603 C 0.37086 0.60011 0.9449 0.0
C1604 C 0.3859 0.61198 0.95668 0.0
C1605 C 0.38223 0.6069 0.97742 0.0
N1606 N 0.36984 0.60129 0.02404 0.0
C1607 C 0.38854 0.61347 0.01689 0.0
C1608 C 0.39671 0.62508 0.03224 0.0
C1609 C 0.38218 0.61997 0.05026 0.0
C1610 C 0.36564 0.60557 0.04477 0.0
N1611 N 0.39417 0.57012 0.00871 0.0
C1612 C 0.44223 0.54659 0.01011 0.0
C1613 C 0.43107 0.55288 0.99073 0.0
C1614 C 0.40727 0.56435 0.99038 0.0
C1615 C 0.43027 0.55371 0.02889 0.0
C1616 C 0.40668 0.56558 0.02783 0.0
N1617 N 0.31483 0.59189 0.00567 0.0
C1618 C 0.28158 0.61632 1.00298 0.0
C1619 C 0.25651 0.60557 1.00451 0.0
C1620 C 0.26192 0.5878 0.00623 0.0
C1621 C 0.2907 0.58139 0.00721 0.0
C1622 C 0.31037 0.60925 1.00338 0.0
H1623 H 0.29315 0.56775 0.0093 0.0
H1624 H 0.32897 0.61786 1.00202 0.0
H1625 H 0.39886 0.56778 0.975 0.0
H1626 H 0.39777 0.57043 0.0426 0.0
C1627 C 0.33336 0.54296 0.0206 0.0
C1628 C 0.34691 0.59613 0.05983 0.0
C1629 C 0.34745 0.57143 0.9525 0.0
C1630 C 0.39351 0.61543 0.99515 0.0
H1631 H 0.32377 0.56817 0.08574 0.0
H1632 H 0.31919 0.53859 0.06487 0.0
H1633 H 0.32205 0.52016 0.98561 0.0
H1634 H 0.32776 0.53641 0.94852 0.0
H1635 H 0.37034 0.5997 0.92767 0.0
H1636 H 0.39842 0.62286 0.95078 0.0
H1637 H 0.41053 0.63634 0.03035 0.0
H1638 H 0.38353 0.62624 0.06562 0.0
H1639 H 0.4401 0.54868 0.97563 0.0
H1640 H 0.43813 0.54966 0.0444 0.0
H1641 H 0.27924 0.63014 1.00177 0.0
H1642 H 0.24408 0.57857 0.00672 0.0
C1643 C 0.45309 0.17494 0.05334 0.0
C1644 C 0.47032 0.1838 0.06797 0.0
C1645 C 0.48717 0.19522 0.05656 0.0
C1646 C 0.47932 0.19278 0.03564 0.0
N1647 N 0.4581 0.18078 0.03316 0.0
Co1648 Co 0.44287 0.1725 1.00516 0.0
N1649 N 0.45969 0.19249 0.98944 0.0
C1650 C 0.48034 0.20338 0.99679 0.0
C1651 C 0.48683 0.21628 0.9825 0.0
C1652 C 0.46909 0.21328 0.96509 0.0
C1653 C 0.45273 0.19868 0.96977 0.0
N1654 N 0.42868 0.1638 0.9772 0.0
C1655 C 0.42503 0.1722 0.95847 0.0
C1656 C 0.41441 0.1612 0.9428 0.0
C1657 C 0.41123 0.14537 0.95215 0.0
C1658 C 0.42005 0.1476 0.97289 0.0
N1659 N 0.42509 0.15259 0.02068 0.0
C1660 C 0.41522 0.13796 0.01159 0.0
C1661 C 0.40471 0.12618 0.02599 0.0
C1662 C 0.40864 0.13366 0.04549 0.0
C1663 C 0.42151 0.14966 0.0419 0.0
N1664 N 0.40613 0.18609 0.00873 0.0
C1665 C 0.35785 0.20932 0.00606 0.0
C1666 C 0.3554 0.19217 0.99891 0.0
C1667 C 0.37961 0.18076 1.00058 0.0
C1668 C 0.3845 0.21397 0.01591 0.0
C1669 C 0.4081 0.20239 0.0169 0.0
N1670 N 0.48041 0.15965 1.00134 0.0
C1671 C 0.52046 0.14294 0.01644 0.0
C1672 C 0.53916 0.1466 0.99902 0.0
C1673 C 0.52644 0.15612 0.98217 0.0
C1674 C 0.49719 0.16212 0.98345 0.0
C1675 C 0.49173 0.1497 0.01742 0.0
H1676 H 0.48862 0.16941 0.97017 0.0
H1677 H 0.47913 0.14722 0.03162 0.0
H1678 H 0.3772 0.16786 0.99442 0.0
H1679 H 0.42846 0.20709 0.02344 0.0
C1680 C 0.48918 0.20259 0.01819 0.0
C1681 C 0.4343 0.16014 0.05909 0.0
C1682 C 0.43202 0.19038 0.95491 0.0
C1683 C 0.41453 0.1361 0.98948 0.0
H1684 H 0.4711 0.18192 0.08506 0.0
H1685 H 0.50306 0.20431 0.06282 0.0
H1686 H 0.50176 0.227 0.98477 0.0
H1687 H 0.46823 0.22092 0.95066 0.0
H1688 H 0.40908 0.1643 0.92642 0.0
H1689 H 0.40196 0.13391 0.94499 0.0
H1690 H 0.39547 0.11361 0.02272 0.0
H1691 H 0.40383 0.12762 0.06065 0.0
H1692 H 0.3354 0.1877 0.99131 0.0
H1693 H 0.38759 0.22671 0.02254 0.0
H1694 H 0.52772 0.13508 0.02965 0.0
H1695 H 0.53895 0.15956 0.96815 0.0
H1696 H 0.14317 0.30645 0.19279 0.0
H1697 H 0.22056 0.32886 0.16413 0.0
H1698 H 0.12081 0.30305 0.15754 0.0
H1699 H 0.19847 0.32528 0.12869 0.0
H1700 H 0.15711 0.30805 0.06627 0.0
H1701 H 0.17987 0.30428 0.10136 0.0
H1702 H 0.10129 0.32454 0.13107 0.0
H1703 H 0.07879 0.32847 0.0958 0.0
C1704 C 0.15571 0.31022 0.17887 0.0
C1705 C 0.18365 0.31787 0.18116 0.0
C1706 C 0.1428 0.30842 0.15868 0.0
C1707 C 0.15768 0.31403 0.14027 0.0
C1708 C 0.18645 0.32069 0.1425 0.0
C1709 C 0.19922 0.32269 0.16275 0.0
C1710 C 0.14451 0.31134 0.08034 0.0
C1711 C 0.11614 0.31849 0.07837 0.0
C1712 C 0.15762 0.30931 0.10043 0.0
C1713 C 0.14253 0.31421 0.11906 0.0
C1714 C 0.11346 0.32048 0.11709 0.0
C1715 C 0.10048 0.3227 0.09694 0.0
H1716 H 0.12284 0.94836 0.0626 0.0
H1717 H 0.20766 0.94328 0.09284 0.0
H1718 H 0.09949 0.9522 0.09745 0.0
H1719 H 0.18458 0.94661 0.1278 0.0
H1720 H 0.13874 0.9576 0.18959 0.0
H1721 H 0.1591 0.9629 0.15407 0.0
H1722 H 0.08742 0.93383 0.12635 0.0
H1723 H 0.06689 0.92905 0.16191 0.0
C1724 C 0.13659 0.94866 0.07674 0.0
C1725 C 0.16711 0.9459 0.07502 0.0
C1726 C 0.12319 0.95056 0.09677 0.0
C1727 C 0.13995 0.94951 0.11566 0.0
C1728 C 0.17084 0.94773 0.11375 0.0
C1729 C 0.18422 0.94592 0.09368 0.0
C1730 C 0.12696 0.95279 0.17581 0.0
C1731 C 0.10118 0.94296 0.17848 0.0
C1732 C 0.13881 0.95563 0.15542 0.0
C1733 C 0.12522 0.94866 0.13714 0.0
C1734 C 0.09846 0.93962 0.13986 0.0
C1735 C 0.08659 0.93684 0.16026 0.0
H1736 H 0.82737 0.68975 0.84389 0.0
H1737 H 0.91129 0.70508 0.81803 0.0
H1738 H 0.84604 0.69401 0.87996 0.0
H1739 H 0.92999 0.71029 0.85406 0.0
H1740 H 0.88134 0.70469 0.94465 0.0
H1741 H 0.86258 0.71006 0.90867 0.0
H1742 H 0.94657 0.69404 0.88264 0.0
H1743 H 0.96531 0.68962 0.91868 0.0
C1744 C 0.84945 0.69481 0.84599 0.0
C1745 C 0.86775 0.69734 0.82821 0.0
C1746 C 0.86034 0.69724 0.86673 0.0
C1747 C 0.88983 0.70237 0.87025 0.0
C1748 C 0.90742 0.70599 0.85222 0.0
C1749 C 0.8966 0.70332 0.83149 0.0
C1750 C 0.89601 0.70301 0.93118 0.0
C1751 C 0.92491 0.69706 0.93441 0.0
C1752 C 0.88516 0.70577 0.91047 0.0
C1753 C 0.90276 0.7023 0.89241 0.0
C1754 C 0.93228 0.69717 0.89589 0.0
C1755 C 0.94319 0.69464 0.91661 0.0
H1756 H 0.92362 0.05701 0.9477 0.0
H1757 H 0.83735 0.06334 0.92006 0.0
H1758 H 0.94496 0.05366 0.91212 0.0
H1759 H 0.85843 0.06046 0.88439 0.0
H1760 H 0.90107 0.05098 0.82103 0.0
H1761 H 0.88261 0.04462 0.85683 0.0
H1762 H 0.95531 0.07325 0.88384 0.0
H1763 H 0.97391 0.07915 0.84798 0.0
C1764 C 0.90909 0.05701 0.93398 0.0
C1765 C 0.87877 0.06008 0.93663 0.0
C1766 C 0.92134 0.05541 0.91354 0.0
C1767 C 0.9036 0.05704 0.89519 0.0
C1768 C 0.87287 0.05893 0.89801 0.0
C1769 C 0.86064 0.06046 0.91849 0.0
C1770 C 0.91347 0.05549 0.83469 0.0
C1771 C 0.93896 0.06552 0.83176 0.0
C1772 C 0.90273 0.05202 0.85523 0.0
C1773 C 0.91719 0.05852 0.87341 0.0
C1774 C 0.94366 0.06779 0.87038 0.0
C1775 C 0.95441 0.07122 0.84982 0.0
H1776 H 0.21851 0.82864 0.66397 0.0
H1777 H 0.14097 0.80606 0.69224 0.0
H1778 H 0.19673 0.82509 0.62844 0.0
H1779 H 0.11893 0.80269 0.65689 0.0
H1780 H 0.07723 0.82823 0.59515 0.0
H1781 H 0.0995 0.8242 0.63047 0.0
H1782 H 0.17841 0.8042 0.60093 0.0
H1783 H 0.15587 0.80806 0.56578 0.0
C1784 C 0.19721 0.82244 0.66249 0.0
C1785 C 0.18148 0.8176 0.68082 0.0
C1786 C 0.18462 0.82046 0.64218 0.0
C1787 C 0.15589 0.81377 0.63981 0.0
C1788 C 0.14089 0.8081 0.65815 0.0
C1789 C 0.15362 0.8099 0.67839 0.0
C1790 C 0.09895 0.82249 0.59633 0.0
C1791 C 0.11476 0.81838 0.57779 0.0
C1792 C 0.1118 0.82022 0.61651 0.0
C1793 C 0.14089 0.814 0.61855 0.0
C1794 C 0.15613 0.8092 0.59995 0.0
C1795 C 0.14315 0.81128 0.57982 0.0
H1796 H 0.12474 0.44976 0.56371 0.0
H1797 H 0.20908 0.44482 0.59465 0.0
H1798 H 0.10072 0.45325 0.5984 0.0
H1799 H 0.18535 0.44779 0.62946 0.0
H1800 H 0.13854 0.45852 0.69088 0.0
H1801 H 0.15932 0.46399 0.65553 0.0
H1802 H 0.08835 0.43473 0.62717 0.0
H1803 H 0.0674 0.42977 0.66257 0.0
C1804 C 0.13821 0.44999 0.57798 0.0
C1805 C 0.1688 0.44735 0.57653 0.0
C1806 C 0.12444 0.4517 0.59791 0.0
C1807 C 0.1409 0.45061 0.61695 0.0
C1808 C 0.17183 0.44893 0.6153 0.0
C1809 C 0.18558 0.4473 0.59533 0.0
C1810 C 0.12699 0.4537 0.677 0.0
C1811 C 0.1013 0.44376 0.67944 0.0
C1812 C 0.13909 0.45664 0.65671 0.0
C1813 C 0.12585 0.44966 0.6383 0.0
C1814 C 0.09913 0.44053 0.64079 0.0
C1815 C 0.08701 0.43765 0.66109 0.0
H1816 H 0.82715 0.19129 0.34397 0.0
H1817 H 0.91093 0.20747 0.31867 0.0
H1818 H 0.84514 0.19588 0.38014 0.0
H1819 H 0.92891 0.21303 0.35479 0.0
H1820 H 0.96397 0.19223 0.41942 0.0
H1821 H 0.94557 0.19678 0.38333 0.0
H1822 H 0.86093 0.21201 0.40901 0.0
H1823 H 0.87938 0.20648 0.44505 0.0
C1824 C 0.84901 0.19663 0.34621 0.0
C1825 C 0.86751 0.19927 0.32857 0.0
C1826 C 0.8595 0.19925 0.36701 0.0
C1827 C 0.88879 0.20469 0.37072 0.0
C1828 C 0.90651 0.20848 0.35281 0.0
C1829 C 0.89609 0.20562 0.33202 0.0
C1830 C 0.94177 0.19711 0.41727 0.0
C1831 C 0.92321 0.19925 0.43498 0.0
C1832 C 0.93106 0.19973 0.39653 0.0
C1833 C 0.90148 0.20465 0.39293 0.0
C1834 C 0.88359 0.20788 0.41091 0.0
C1835 C 0.89425 0.20502 0.43165 0.0
H1836 H 0.87793 0.55238 0.31852 0.0
H1837 H 0.96298 0.56703 0.343 0.0
H1838 H 0.86055 0.54672 0.35479 0.0
H1839 H 0.94564 0.56232 0.37933 0.0
H1840 H 0.91283 0.55102 0.44448 0.0
H1841 H 0.93002 0.5459 0.40805 0.0
H1842 H 0.84526 0.56261 0.384 0.0
H1843 H 0.82808 0.56678 0.42047 0.0
C1844 C 0.89315 0.55389 0.33171 0.0
C1845 C 0.92194 0.55981 0.32798 0.0
C1846 C 0.88309 0.55096 0.35259 0.0
C1847 C 0.90141 0.55425 0.37034 0.0
C1848 C 0.93081 0.55933 0.36633 0.0
C1849 C 0.94092 0.56203 0.34544 0.0
C1850 C 0.89762 0.55288 0.43134 0.0
C1851 C 0.86898 0.55896 0.43526 0.0
C1852 C 0.90758 0.55027 0.41039 0.0
C1853 C 0.88932 0.55405 0.39275 0.0
C1854 C 0.86003 0.55925 0.39691 0.0
C1855 C 0.85001 0.56163 0.41788 0.0
H1856 H 0.65342 0.30698 0.56548 0.0
H1857 H 0.57585 0.32718 0.59625 0.0
H1858 H 0.67717 0.30314 0.6002 0.0
H1859 H 0.59929 0.32306 0.63116 0.0
H1860 H 0.64305 0.30498 0.69214 0.0
H1861 H 0.61997 0.30136 0.65719 0.0
H1862 H 0.69619 0.32442 0.62738 0.0
H1863 H 0.71897 0.32831 0.66255 0.0
C1864 C 0.64118 0.31021 0.57972 0.0
C1865 C 0.61278 0.31739 0.57819 0.0
C1866 C 0.65486 0.30812 0.59962 0.0
C1867 C 0.64028 0.31292 0.61849 0.0
C1868 C 0.6111 0.3191 0.61698 0.0
C1869 C 0.59758 0.32141 0.59703 0.0
C1870 C 0.65514 0.30893 0.67809 0.0
C1871 C 0.68281 0.31697 0.68006 0.0
C1872 C 0.64182 0.30697 0.65807 0.0
C1873 C 0.65604 0.31277 0.63947 0.0
C1874 C 0.68466 0.31971 0.64134 0.0
C1875 C 0.69783 0.32187 0.66144 0.0
H1876 H 0.56597 0.92517 0.66132 0.0
H1877 H 0.63477 0.95631 0.6888 0.0
H1878 H 0.58649 0.93013 0.62577 0.0
H1879 H 0.65513 0.96169 0.65332 0.0
H1880 H 0.70586 0.9426 0.5926 0.0
H1881 H 0.68227 0.94551 0.62746 0.0
H1882 H 0.59712 0.94901 0.59675 0.0
H1883 H 0.62098 0.94569 0.562 0.0
C1884 C 0.58498 0.93351 0.65963 0.0
C1885 C 0.59875 0.94033 0.67781 0.0
C1886 C 0.59683 0.9364 0.63925 0.0
C1887 C 0.62277 0.94622 0.63651 0.0
C1888 C 0.6355 0.95382 0.65471 0.0
C1889 C 0.62365 0.9509 0.67507 0.0
C1890 C 0.68226 0.94471 0.59332 0.0
C1891 C 0.66531 0.94427 0.5746 0.0
C1892 C 0.66859 0.94627 0.61333 0.0
C1893 C 0.63759 0.94733 0.61511 0.0
C1894 C 0.62092 0.94794 0.59615 0.0
C1895 C 0.6346 0.94634 0.57619 0.0
H1896 H 0.41149 0.7071 0.31613 0.0
H1897 H 0.32766 0.69102 0.34145 0.0
H1898 H 0.42959 0.71251 0.35227 0.0
H1899 H 0.34576 0.69548 0.37763 0.0
H1900 H 0.3798 0.7062 0.44249 0.0
H1901 H 0.36155 0.71174 0.40641 0.0
H1902 H 0.44614 0.69625 0.38091 0.0
H1903 H 0.46436 0.69166 0.41705 0.0
C1904 C 0.39668 0.70522 0.3295 0.0
C1905 C 0.36804 0.69896 0.32605 0.0
C1906 C 0.40716 0.70801 0.35028 0.0
C1907 C 0.38943 0.70424 0.36819 0.0
C1908 C 0.36012 0.69884 0.36449 0.0
C1909 C 0.34958 0.69628 0.3437 0.0
C1910 C 0.39472 0.7047 0.42912 0.0
C1911 C 0.42361 0.69882 0.43251 0.0
C1912 C 0.38416 0.70756 0.40836 0.0
C1913 C 0.40208 0.70424 0.39042 0.0
C1914 C 0.43161 0.69925 0.39408 0.0
C1915 C 0.44223 0.69663 0.41485 0.0
H1916 H 0.33094 0.06797 0.42067 0.0
H1917 H 0.41518 0.05059 0.4439 0.0
H1918 H 0.34733 0.06365 0.38404 0.0
H1919 H 0.43155 0.04535 0.4073 0.0
H1920 H 0.37828 0.05264 0.3183 0.0
H1921 H 0.36128 0.04732 0.35475 0.0
H1922 H 0.44744 0.06168 0.37848 0.0
H1923 H 0.46435 0.06607 0.34197 0.0
C1924 C 0.35256 0.06247 0.41787 0.0
C1925 C 0.37164 0.05936 0.43508 0.0
C1926 C 0.36212 0.05999 0.39681 0.0
C1927 C 0.39104 0.05426 0.39239 0.0
C1928 C 0.40939 0.05011 0.40985 0.0
C1929 C 0.39989 0.0528 0.4309 0.0
C1930 C 0.39377 0.05395 0.33136 0.0
C1931 C 0.42275 0.05943 0.32735 0.0
C1932 C 0.38396 0.05122 0.35233 0.0
C1933 C 0.40273 0.05426 0.36989 0.0
C1934 C 0.43227 0.05889 0.36562 0.0
C1935 C 0.44213 0.06141 0.34463 0.0
H1936 H 0.6403 0.8071 0.19159 0.0
H1937 H 0.71795 0.82839 0.16198 0.0
H1938 H 0.61735 0.80354 0.15657 0.0
H1939 H 0.6953 0.82455 0.12676 0.0
H1940 H 0.65251 0.80672 0.06505 0.0
H1941 H 0.67547 0.80311 0.10008 0.0
H1942 H 0.59836 0.82522 0.12974 0.0
H1943 H 0.57569 0.82908 0.09451 0.0
C1944 C 0.65276 0.81061 0.17753 0.0
C1945 C 0.68093 0.81803 0.17949 0.0
C1946 C 0.63952 0.80869 0.15747 0.0
C1947 C 0.65432 0.81391 0.13884 0.0
C1948 C 0.68333 0.82028 0.14075 0.0
C1949 C 0.69641 0.82242 0.16088 0.0
C1950 C 0.64023 0.81046 0.07909 0.0
C1951 C 0.61226 0.81813 0.07709 0.0
C1952 C 0.65348 0.80851 0.09915 0.0
C1953 C 0.6389 0.81399 0.11774 0.0
C1954 C 0.61014 0.82073 0.11579 0.0
C1955 C 0.59705 0.82289 0.09566 0.0
H1956 H 0.70729 0.4425 0.09318 0.0
H1957 H 0.62219 0.44575 0.06296 0.0
H1958 H 0.6842 0.44626 0.12806 0.0
H1959 H 0.5988 0.45005 0.09771 0.0
H1960 H 0.56742 0.42808 0.16314 0.0
H1961 H 0.58739 0.43239 0.12734 0.0
H1962 H 0.6584 0.46279 0.15377 0.0
H1963 H 0.63865 0.45791 0.18956 0.0
C1964 C 0.68375 0.4448 0.09399 0.0
C1965 C 0.66659 0.44416 0.07538 0.0
C1966 C 0.67036 0.44688 0.11401 0.0
C1967 C 0.63942 0.44832 0.11593 0.0
C1968 C 0.62255 0.44869 0.09705 0.0
C1969 C 0.63596 0.44651 0.07706 0.0
C1970 C 0.5868 0.43608 0.16114 0.0
C1971 C 0.60142 0.44269 0.17909 0.0
C1972 C 0.59837 0.43858 0.1406 0.0
C1973 C 0.62484 0.44783 0.13747 0.0
C1974 C 0.63836 0.45533 0.15545 0.0
C1975 C 0.62684 0.45274 0.17598 0.0
H1976 H 0.32675 0.19044 0.84328 0.0
H1977 H 0.41062 0.20595 0.81752 0.0
H1978 H 0.3452 0.19493 0.87936 0.0
H1979 H 0.42908 0.21142 0.85355 0.0
H1980 H 0.46429 0.19088 0.9183 0.0
H1981 H 0.44576 0.19538 0.88223 0.0
H1982 H 0.36145 0.21104 0.90806 0.0
H1983 H 0.38 0.20556 0.94407 0.0
C1984 C 0.34876 0.19559 0.8454 0.0
C1985 C 0.36712 0.19809 0.82765 0.0
C1986 C 0.35952 0.19816 0.86614 0.0
C1987 C 0.38894 0.20342 0.86971 0.0
C1988 C 0.40658 0.20702 0.85169 0.0
C1989 C 0.39589 0.2042 0.83096 0.0
C1990 C 0.44215 0.19587 0.91619 0.0
C1991 C 0.42371 0.19812 0.93394 0.0
C1992 C 0.43135 0.19844 0.89545 0.0
C1993 C 0.40179 0.20344 0.89189 0.0
C1994 C 0.38406 0.20683 0.90992 0.0
C1995 C 0.3948 0.20402 0.93064 0.0
H1996 H 0.45531 0.5642 0.84126 0.0
H1997 H 0.36841 0.55987 0.81407 0.0
H1998 H 0.43457 0.56094 0.877 0.0
H1999 H 0.34739 0.55613 0.84971 0.0
H2000 H 0.32013 0.57996 0.91503 0.0
H2001 H 0.33817 0.57498 0.87882 0.0
H2002 H 0.41024 0.54477 0.90413 0.0
H2003 H 0.39239 0.55027 0.94031 0.0
C2004 C 0.43191 0.56172 0.84293 0.0
C2005 C 0.41353 0.56196 0.82492 0.0
C2006 C 0.41987 0.55995 0.86344 0.0
C2007 C 0.38912 0.55846 0.86644 0.0
C2008 C 0.37105 0.55755 0.84818 0.0
C2009 C 0.3831 0.55939 0.8277 0.0
C2010 C 0.33938 0.57191 0.91272 0.0
C2011 C 0.35479 0.56546 0.93042 0.0
C2012 C 0.34979 0.569 0.89196 0.0
C2013 C 0.3759 0.55953 0.88837 0.0
C2014 C 0.39038 0.55234 0.90617 0.0
C2015 C 0.37999 0.5553 0.92691 0.0
H2016 H 0.93057 0.24583 0.26048 0.0
H2017 H 0.99593 0.20545 0.25605 0.0
H2018 H 0.96954 0.26719 0.26264 0.0
H2019 H 0.035 0.22704 0.25928 0.0
H2020 H 0.09525 0.27142 0.28635 0.0
H2021 H 0.05638 0.24936 0.28542 0.0
H2022 H 1.00901 0.27928 0.23861 0.0
H2023 H 0.04784 0.30112 0.23938 0.0
C2024 C 0.95315 0.24137 0.25973 0.0
C2025 C 0.9596 0.22364 0.25764 0.0
C2026 C 0.97565 0.25376 0.26117 0.0
C2027 C 1.00556 0.24896 0.26102 0.0
C2028 C 1.01223 0.23126 0.25958 0.0
C2029 C 0.98966 0.21882 0.25778 0.0
C2030 C 0.07638 0.27336 0.27602 0.0
C2031 C 0.07474 0.28814 0.263 0.0
C2032 C 0.05422 0.26062 0.27532 0.0
C2033 C 0.02945 0.26245 0.2619 0.0
C2034 C 0.02757 0.27741 0.24923 0.0
C2035 C 0.04995 0.28995 0.24963 0.0
H2036 H 0.23193 0.96598 0.28824 0.0
H2037 H 0.19783 0.986 0.22878 0.0
H2038 H 0.27042 0.9881 0.28777 0.0
H2039 H 0.23694 0.00729 0.22798 0.0
H2040 H 0.33223 0.02859 0.22135 0.0
H2041 H 0.29224 0.00754 0.22352 0.0
H2042 H 0.27773 0.02118 0.28934 0.0
H2043 H 0.31774 0.0425 0.28707 0.0
C2044 C 0.23236 0.975 0.27509 0.0
C2045 C 0.21156 0.97371 0.25837 0.0
C2046 C 0.25463 0.98773 0.27482 0.0
C2047 C 0.25712 0.99945 0.25772 0.0
C2048 C 0.23618 0.99833 0.24123 0.0
C2049 C 0.21372 0.98587 0.24165 0.0
C2050 C 0.32045 0.02719 0.23629 0.0
C2051 C 0.32825 0.03737 0.254 0.0
C2052 C 0.2974 0.01512 0.23752 0.0
C2053 C 0.28164 0.01255 0.25663 0.0
C2054 C 0.28944 0.02269 0.2744 0.0
C2055 C 0.3122 0.03505 0.27304 0.0
H2056 H 0.10711 0.98942 0.02209 0.0
H2057 H 0.05135 0.9554 0.9858 0.0
H2058 H 0.06734 0.01034 0.02436 0.0
H2059 H 1.01167 0.97667 0.98702 0.0
H2060 H 0.9362 0.01187 0.006 0.0
H2061 H 0.97518 0.99067 1.00509 0.0
H2062 H 0.0401 0.03133 0.00811 0.0
H2063 H 1.0009 0.05251 0.01099 0.0
C2064 C 0.08631 0.98646 0.01441 0.0
C2065 C 0.08259 0.97066 1.00372 0.0
C2066 C 0.06337 0.99861 0.01553 0.0
C2067 C 0.03583 0.99559 0.0057 0.0
C2068 C 0.0321 0.97962 0.99515 0.0
C2069 C 0.05499 0.96732 0.99435 0.0
C2070 C 0.9587 0.01643 0.00697 0.0
C2071 C 0.96485 0.0342 0.00897 0.0
C2072 C 0.98139 1.0041 0.00599 0.0
C2073 C 1.01136 0.00895 0.00656 0.0
C2074 C 1.01756 0.02676 0.00807 0.0
C2075 C 0.99481 0.0391 0.00937 0.0
H2076 H 0.29683 0.20481 0.00538 0.0
H2077 H 0.3635 0.24426 0.99899 0.0
H2078 H 0.25843 0.2268 1.00143 0.0
H2079 H 0.3253 0.26602 0.99595 0.0
H2080 H 0.24939 0.30165 0.01834 0.0
H2081 H 0.28723 0.27927 0.01956 0.0
H2082 H 0.23703 0.2487 0.97507 0.0
H2083 H 0.19906 0.27127 0.97376 0.0
C2084 C 0.30348 0.21806 1.00305 0.0
C2085 C 0.33366 0.22256 1.00294 0.0
C2086 C 0.28134 0.23072 1.00082 0.0
C2087 C 0.28864 0.24829 0.99861 0.0
C2088 C 0.31871 0.25272 0.99806 0.0
C2089 C 0.34075 0.24012 0.99998 0.0
C2090 C 0.24645 0.29022 0.00869 0.0
C2091 C 0.22112 0.28837 0.99588 0.0
C2092 C 0.26825 0.27737 0.00933 0.0
C2093 C 0.2653 0.26208 0.99745 0.0
C2094 C 0.24001 0.26021 0.98456 0.0
C2095 C 0.21838 0.27325 0.98363 0.0
H2096 H 0.99348 0.70407 0.74853 0.0
H2097 H 0.93066 0.74279 0.76783 0.0
H2098 H 0.03325 0.72519 0.75157 0.0
H2099 H 0.97 0.76398 0.77001 0.0
H2100 H 0.05002 0.79629 0.78867 0.0
H2101 H 1.01215 0.77389 0.78889 0.0
H2102 H 0.05339 0.74986 0.73447 0.0
H2103 H 0.09173 0.77171 0.73483 0.0
C2104 C 0.98806 0.71704 0.75349 0.0
C2105 C 0.95854 0.72161 0.75769 0.0
C2106 C 1.01093 0.72929 0.75502 0.0
C2107 C 1.00512 0.74651 0.76092 0.0
C2108 C 0.97568 0.75093 0.76559 0.0
C2109 C 0.95289 0.73873 0.76403 0.0
C2110 C 0.05125 0.78614 0.77688 0.0
C2111 C 0.07405 0.7861 0.76161 0.0
C2112 C 0.02923 0.77331 0.77685 0.0
C2113 C 0.02932 0.75992 0.76161 0.0
C2114 C 0.05245 0.75974 0.74662 0.0
C2115 C 0.07436 0.77254 0.74663 0.0
H2116 H 0.70377 0.98099 0.7892 0.0
H2117 H 0.72829 0.96496 0.72568 0.0
H2118 H 0.74258 1.00253 0.78852 0.0
H2119 H 0.76465 0.98753 0.7241 0.0
H2120 H 0.84551 0.02141 0.73042 0.0
H2121 H 0.80896 0.9985 0.73235 0.0
H2122 H 0.75836 0.02873 0.7773 0.0
H2123 H 0.79626 0.05097 0.77627 0.0
C2124 C 0.71729 0.98196 0.77503 0.0
C2125 C 0.71216 0.97107 0.75744 0.0
C2126 C 0.73943 0.9947 0.77445 0.0
C2127 C 0.75706 0.99727 0.75611 0.0
C2128 C 0.7522 0.98615 0.7387 0.0
C2129 C 0.73056 0.97322 0.73946 0.0
C2130 C 0.82641 0.02317 0.74056 0.0
C2131 C 0.8238 0.03809 0.75309 0.0
C2132 C 0.80516 0.00999 0.74168 0.0
C2133 C 0.78011 0.01143 0.75502 0.0
C2134 C 0.77735 0.02665 0.76719 0.0
C2135 C 0.79899 0.03963 0.76643 0.0
H2136 H 0.74614 0.8007 0.01713 0.0
H2137 H 0.69663 0.76957 0.97288 0.0
H2138 H 0.78474 0.77874 0.01841 0.0
H2139 H 0.7353 0.74739 0.97432 0.0
H2140 H 0.79683 0.70444 0.00559 0.0
H2141 H 0.75762 0.72592 1.00145 0.0
H2142 H 0.82302 0.76578 0.99416 0.0
H2143 H 0.86201 0.74451 0.99726 0.0
C2144 C 0.74354 0.78918 0.00758 0.0
C2145 C 0.71824 0.787 0.99482 0.0
C2146 C 0.76576 0.77658 0.00826 0.0
C2147 C 0.76324 0.76119 0.99651 0.0
C2148 C 0.73796 0.75899 0.9837 0.0
C2149 C 0.71592 0.77179 0.9827 0.0
C2150 C 0.803 0.71772 1.00279 0.0
C2151 C 0.83303 0.72254 1.0022 0.0
C2152 C 0.78038 0.73009 1.00047 0.0
C2153 C 0.78705 0.74769 0.99772 0.0
C2154 C 0.81694 0.75244 0.99668 0.0
C2155 C 0.83944 0.74012 0.99865 0.0
H2156 H 0.3564 0.51486 0.75854 0.0
H2157 H 0.29114 0.55529 0.75377 0.0
H2158 H 0.31742 0.49355 0.76087 0.0
H2159 H 0.25201 0.53371 0.75725 0.0
H2160 H 0.19217 0.4889 0.78472 0.0
H2161 H 0.2309 0.51107 0.7838 0.0
H2162 H 0.27781 0.48174 0.73629 0.0
H2163 H 0.23906 0.45983 0.737 0.0
C2164 C 0.33383 0.51935 0.75775 0.0
C2165 C 0.32742 0.53707 0.75543 0.0
C2166 C 0.31133 0.50698 0.7593 0.0
C2167 C 0.28143 0.51179 0.7591 0.0
C2168 C 0.27478 0.52949 0.75756 0.0
C2169 C 0.29738 0.54192 0.75562 0.0
C2170 C 0.2109 0.48712 0.77423 0.0
C2171 C 0.21245 0.47249 0.76099 0.0
C2172 C 0.23298 0.49992 0.77354 0.0
C2173 C 0.25758 0.49828 0.75994 0.0
C2174 C 0.25936 0.48346 0.74706 0.0
C2175 C 0.23705 0.47088 0.74742 0.0
H2176 H 0.93142 0.51161 0.50933 0.0
H2177 H 0.99603 0.55254 0.50887 0.0
H2178 H 0.97036 0.49053 0.50886 0.0
H2179 H 0.03504 0.53135 0.506 0.0
H2180 H 0.10419 0.49062 0.51871 0.0
H2181 H 0.06444 0.51152 0.52151 0.0
H2182 H 1.00507 0.47526 0.49147 0.0
H2183 H 0.0448 0.45406 0.49012 0.0
C2184 C 0.95388 0.51629 0.5092 0.0
C2185 C 0.95996 0.53415 0.50957 0.0
C2186 C 0.97657 0.50397 0.50841 0.0
C2187 C 1.00649 0.50886 0.5074 0.0
C2188 C 1.01261 0.52673 0.50725 0.0
C2189 C 0.98988 0.53908 0.5085 0.0
C2190 C 0.0825 0.48709 0.51289 0.0
C2191 C 0.07772 0.47061 0.50425 0.0
C2192 C 0.05956 0.49922 0.51424 0.0
C2193 C 0.03099 0.49549 0.50654 0.0
C2194 C 0.02628 0.47883 0.49801 0.0
C2195 C 0.04918 0.46655 0.4971 0.0
H2196 H 0.36298 0.74498 0.49768 0.0
H2197 H 0.29665 0.7054 0.50467 0.0
H2198 H 0.32459 0.76665 0.49483 0.0
H2199 H 0.25806 0.72729 0.50087 0.0
H2200 H 0.19828 0.77161 0.47315 0.0
H2201 H 0.23641 0.74914 0.47435 0.0
H2202 H 0.28655 0.77978 0.51879 0.0
H2203 H 0.24852 0.80206 0.5177 0.0
C2204 C 0.34027 0.74079 0.49884 0.0
C2205 C 0.33334 0.72322 0.50191 0.0
C2206 C 0.31813 0.75334 0.49702 0.0
C2207 C 0.2881 0.74884 0.49778 0.0
C2208 C 0.28094 0.73126 0.5001 0.0
C2209 C 0.30319 0.71866 0.50224 0.0
C2210 C 0.21762 0.77363 0.48298 0.0
C2211 C 0.22029 0.78874 0.49526 0.0
C2212 C 0.23934 0.76064 0.48385 0.0
C2213 C 0.26466 0.76256 0.4967 0.0
C2214 C 0.26755 0.77784 0.5086 0.0
C2215 C 0.24564 0.79064 0.50803 0.0
H2216 H 0.79385 0.55446 0.25537 0.0
H2217 H 0.8587 0.51376 0.25942 0.0
H2218 H 0.75451 0.53299 0.25841 0.0
H2219 H 0.81947 0.49255 0.26131 0.0
H2220 H 0.74049 0.45948 0.23693 0.0
H2221 H 0.77957 0.48121 0.23652 0.0
H2222 H 0.73334 0.51019 0.28469 0.0
H2223 H 0.69429 0.48822 0.28532 0.0
C2224 C 0.79995 0.54105 0.25697 0.0
C2225 C 0.82994 0.5361 0.25675 0.0
C2226 C 0.77723 0.52869 0.25865 0.0
C2227 C 0.7837 0.51096 0.25988 0.0
C2228 C 0.81354 0.50602 0.25999 0.0
C2229 C 0.83618 0.51833 0.2587 0.0
C2230 C 0.73871 0.47042 0.24755 0.0
C2231 C 0.71421 0.472 0.26123 0.0
C2232 C 0.7612 0.48289 0.24736 0.0
C2233 C 0.75969 0.49755 0.26053 0.0
C2234 C 0.73519 0.49916 0.27423 0.0
C2235 C 0.71294 0.48647 0.27474 0.0
H2236 H 0.73662 0.29274 0.4688 0.0
H2237 H 0.70327 0.27584 0.52991 0.0
H2238 H 0.77426 0.27011 0.47028 0.0
H2239 H 0.74134 0.25395 0.53161 0.0
H2240 H 0.83511 0.23135 0.53901 0.0
H2241 H 0.79594 0.25279 0.5358 0.0
H2242 H 0.78108 0.23737 0.4706 0.0
H2243 H 0.82046 0.21575 0.47389 0.0
C2244 C 0.73706 0.28427 0.48251 0.0
C2245 C 0.71682 0.28659 0.49939 0.0
C2246 C 0.75879 0.27126 0.48337 0.0
C2247 C 0.76118 0.26025 0.5012 0.0
C2248 C 0.74069 0.26236 0.51782 0.0
C2249 C 0.71883 0.27513 0.51686 0.0
C2250 C 0.82345 0.23245 0.52399 0.0
C2251 C 0.831 0.22172 0.50675 0.0
C2252 C 0.80083 0.24473 0.52216 0.0
C2253 C 0.78521 0.24691 0.50292 0.0
C2254 C 0.79271 0.23618 0.48562 0.0
C2255 C 0.81509 0.22365 0.48757 0.0
H2256 H 0.43164 0.24333 0.76723 0.0
H2257 H 0.49426 0.20422 0.74879 0.0
H2258 H 0.47115 0.26442 0.76922 0.0
H2259 H 0.5342 0.22525 0.75167 0.0
H2260 H 0.5934 0.27136 0.73455 0.0
H2261 H 0.55486 0.24963 0.73437 0.0
H2262 H 0.51317 0.27449 0.78802 0.0
H2263 H 0.55123 0.29678 0.7876 0.0
C2264 C 0.45386 0.23915 0.76357 0.0
C2265 C 0.4594 0.22195 0.75753 0.0
C2266 C 0.47676 0.25131 0.76503 0.0
C2267 C 0.5062 0.24676 0.76056 0.0
C2268 C 0.51189 0.22946 0.75495 0.0
C2269 C 0.48891 0.21726 0.75352 0.0
C2270 C 0.57589 0.2724 0.74622 0.0
C2271 C 0.57553 0.28616 0.76091 0.0
C2272 C 0.55385 0.25966 0.74631 0.0
C2273 C 0.53053 0.26011 0.76114 0.0
C2274 C 0.53039 0.2737 0.7761 0.0
C2275 C 0.55253 0.28647 0.77603 0.0
H2276 H 0.44662 0.01683 0.53566 0.0
H2277 H 0.48919 0.04755 0.487 0.0
H2278 H 0.48559 0.99543 0.53272 0.0
H2279 H 0.52905 0.02647 0.4852 0.0
H2280 H 0.60983 0.9938 0.50839 0.0
H2281 H 0.57006 0.01465 0.51009 0.0
H2282 H 0.50624 0.97381 0.50448 0.0
H2283 H 0.54612 0.95272 0.5014 0.0
C2284 C 0.46401 0.01912 0.52419 0.0
C2285 C 0.46405 0.03415 0.51142 0.0
C2286 C 0.48658 0.00675 0.52263 0.0
C2287 C 0.51047 0.00911 0.50866 0.0
C2288 C 0.51107 0.02424 0.49624 0.0
C2289 C 0.48816 0.03646 0.49744 0.0
C2290 C 0.58748 0.98906 0.50695 0.0
C2291 C 0.58175 0.97128 0.50428 0.0
C2292 C 0.56453 1.00117 0.50812 0.0
C2293 C 0.53486 0.99601 0.50728 0.0
C2294 C 0.52885 0.97827 0.50526 0.0
C2295 C 0.55188 0.96612 0.5036 0.0
H2296 H 0.54523 0.80226 0.23638 0.0
H2297 H 0.59251 0.77255 0.28332 0.0
H2298 H 0.50691 0.78038 0.23508 0.0
H2299 H 0.55495 0.75005 0.28136 0.0
H2300 H 0.47067 0.71715 0.28524 0.0
H2301 H 0.50858 0.73937 0.28846 0.0
H2302 H 0.49358 0.75397 0.22278 0.0
H2303 H 0.4549 0.73239 0.22015 0.0
C2304 C 0.54752 0.79097 0.24639 0.0
C2305 C 0.57209 0.78927 0.25996 0.0
C2306 C 0.52555 0.7782 0.24551 0.0
C2307 C 0.52754 0.763 0.25785 0.0
C2308 C 0.55201 0.76148 0.27172 0.0
C2309 C 0.57376 0.77444 0.27286 0.0
C2310 C 0.47567 0.72506 0.27146 0.0
C2311 C 0.45952 0.72295 0.25246 0.0
C2312 C 0.49759 0.73788 0.27326 0.0
C2313 C 0.50445 0.74889 0.25598 0.0
C2314 C 0.48874 0.74632 0.23678 0.0
C2315 C 0.46655 0.73373 0.23513 0.0
H2316 H 0.5697 0.46241 0.03785 0.0
H2317 H 0.58312 0.47659 0.97207 0.0
H2318 H 0.53002 0.48394 0.04062 0.0
H2319 H 0.54348 0.49782 0.97471 0.0
H2320 H 0.45023 0.52036 0.98097 0.0
H2321 H 0.48827 0.49841 0.97988 0.0
H2322 H 0.52405 0.51721 0.03912 0.0
H2323 H 0.48659 0.53994 0.03989 0.0
C2324 C 0.56391 0.46994 0.02391 0.0
C2325 C 0.57954 0.46769 1.0047 0.0
C2326 C 0.54138 0.48241 0.02556 0.0
C2327 C 0.53348 0.49269 0.0079 0.0
C2328 C 0.54875 0.49011 0.98861 0.0
C2329 C 0.57155 0.47794 0.98709 0.0
C2330 C 0.46641 0.52022 0.99366 0.0
C2331 C 0.46528 0.53245 0.0103 0.0
C2332 C 0.48821 0.50741 0.99307 0.0
C2333 C 0.50947 0.50603 0.00931 0.0
C2334 C 0.50795 0.5178 0.02637 0.0
C2335 C 0.48632 0.53087 0.02681 0.0
H2336 H 0.15575 0.40809 0.42009 0.0
H2337 H 0.24809 0.39882 0.43151 0.0
H2338 H 0.15861 0.3917 0.38681 0.0
H2339 H 0.25126 0.38254 0.39795 0.0
H2340 H 0.24416 0.36904 0.32381 0.0
H2341 H 0.24597 0.38542 0.35733 0.0
H2342 H 0.16607 0.36028 0.37814 0.0
H2343 H 0.16466 0.34385 0.34479 0.0
C2344 C 0.17682 0.40285 0.41518 0.0
C2345 C 0.2017 0.40476 0.42833 0.0
C2346 C 0.17842 0.39327 0.39627 0.0
C2347 C 0.20507 0.38554 0.38983 0.0
C2348 C 0.23039 0.38829 0.40242 0.0
C2349 C 0.22867 0.39769 0.42155 0.0
C2350 C 0.22758 0.36667 0.33591 0.0
C2351 C 0.2046 0.35495 0.33194 0.0
C2352 C 0.22846 0.37612 0.35502 0.0
C2353 C 0.20597 0.37434 0.37036 0.0
C2354 C 0.18354 0.36215 0.36659 0.0
C2355 C 0.18293 0.35254 0.34766 0.0
H2356 H 0.13078 0.91216 0.34 0.0
H2357 H 0.04366 0.89398 0.32443 0.0
H2358 H 0.12953 0.8958 0.37344 0.0
H2359 H 0.04202 0.87773 0.35815 0.0
H2360 H 0.04631 0.86527 0.43297 0.0
H2361 H 0.04285 0.88137 0.39921 0.0
H2362 H 0.13001 0.86385 0.38205 0.0
H2363 H 0.13307 0.84763 0.41554 0.0
C2364 C 0.11104 0.905 0.34406 0.0
C2365 C 0.08718 0.9045 0.32978 0.0
C2366 C 0.11044 0.89544 0.36306 0.0
C2367 C 0.0858 0.88525 0.36842 0.0
C2368 C 0.0613 0.88544 0.35457 0.0
C2369 C 0.06213 0.89483 0.33535 0.0
C2370 C 0.06428 0.86449 0.42163 0.0
C2371 C 0.08977 0.85502 0.42669 0.0
C2372 C 0.06243 0.87379 0.40238 0.0
C2373 C 0.08632 0.87412 0.38801 0.0
C2374 C 0.11137 0.8641 0.39284 0.0
C2375 C 0.113 0.85461 0.41187 0.0
H2376 H 0.15828 0.84385 0.84407 0.0
H2377 H 0.23849 0.86891 0.82431 0.0
H2378 H 0.15839 0.8606 0.8772 0.0
H2379 H 0.23899 0.88561 0.85757 0.0
H2380 H 0.2395 0.89959 0.93111 0.0
H2381 H 0.24318 0.88311 0.89784 0.0
H2382 H 0.15057 0.89186 0.88603 0.0
H2383 H 0.14717 0.90853 0.91914 0.0
C2384 C 0.17643 0.85257 0.84718 0.0
C2385 C 0.19871 0.85483 0.83187 0.0
C2386 C 0.17628 0.86238 0.86597 0.0
C2387 C 0.19853 0.87463 0.86999 0.0
C2388 C 0.22159 0.87627 0.85507 0.0
C2389 C 0.22148 0.86662 0.83611 0.0
C2390 C 0.22018 0.89841 0.92104 0.0
C2391 C 0.19312 0.90554 0.92756 0.0
C2392 C 0.22221 0.88885 0.90207 0.0
C2393 C 0.19709 0.88593 0.88936 0.0
C2394 C 0.17026 0.8936 0.89557 0.0
C2395 C 0.16835 0.90336 0.91436 0.0
H2396 H 0.13029 0.41205 0.84047 0.0
H2397 H 0.04295 0.39399 0.82538 0.0
H2398 H 0.12939 0.39562 0.87387 0.0
H2399 H 0.04165 0.37767 0.85906 0.0
H2400 H 0.04692 0.36512 0.93389 0.0
H2401 H 0.04304 0.38125 0.90018 0.0
H2402 H 0.12986 0.36362 0.88233 0.0
H2403 H 0.13333 0.34736 0.91577 0.0
C2404 C 0.11058 0.40491 0.84464 0.0
C2405 C 0.08655 0.40445 0.83049 0.0
C2406 C 0.11018 0.3953 0.86361 0.0
C2407 C 0.08558 0.38512 0.86908 0.0
C2408 C 0.06092 0.38537 0.85539 0.0
C2409 C 0.06154 0.39479 0.83619 0.0
C2410 C 0.06472 0.36431 0.92241 0.0
C2411 C 0.09024 0.3548 0.92726 0.0
C2412 C 0.06262 0.37364 0.90319 0.0
C2413 C 0.08631 0.37394 0.88863 0.0
C2414 C 0.11137 0.36388 0.89326 0.0
C2415 C 0.11324 0.35437 0.91226 0.0
H2416 H 0.8089 0.64522 0.68341 0.0
H2417 H 0.89929 0.65965 0.67226 0.0
H2418 H 0.80836 0.62902 0.64995 0.0
H2419 H 0.89889 0.6438 0.63849 0.0
H2420 H 0.90013 0.59901 0.59139 0.0
H2421 H 0.89898 0.61514 0.62494 0.0
H2422 H 0.80894 0.63016 0.61198 0.0
H2423 H 0.81022 0.61368 0.57873 0.0
C2424 C 0.82842 0.64528 0.67345 0.0
C2425 C 0.85398 0.65392 0.68026 0.0
C2426 C 0.82821 0.63594 0.65426 0.0
C2427 C 0.85366 0.63488 0.64137 0.0
C2428 C 0.879 0.64397 0.64804 0.0
C2429 C 0.87917 0.65331 0.66724 0.0
C2430 C 0.87996 0.60549 0.59601 0.0
C2431 C 0.85512 0.60484 0.58265 0.0
C2432 C 0.87937 0.61498 0.61509 0.0
C2433 C 0.85392 0.62419 0.62131 0.0
C2434 C 0.82885 0.62316 0.60803 0.0
C2435 C 0.82949 0.61366 0.58896 0.0
H2436 H 0.90454 0.0953 0.67019 0.0
H2437 H 0.98547 0.12079 0.68727 0.0
H2438 H 0.90367 0.11091 0.63616 0.0
H2439 H 0.98489 0.13647 0.65323 0.0
H2440 H 0.98584 0.14877 0.58007 0.0
H2441 H 0.98904 0.13311 0.61398 0.0
H2442 H 0.89567 0.14073 0.62374 0.0
H2443 H 0.89274 0.15649 0.58988 0.0
C2444 C 0.92249 0.10399 0.66639 0.0
C2445 C 0.94536 0.10661 0.68116 0.0
C2446 C 0.92183 0.11313 0.64704 0.0
C2447 C 0.9441 0.12511 0.6419 0.0
C2448 C 0.96748 0.1273 0.65649 0.0
C2449 C 0.96794 0.11827 0.67596 0.0
C2450 C 0.96617 0.1474 0.58973 0.0
C2451 C 0.9391 0.15405 0.58245 0.0
C2452 C 0.96794 0.13835 0.60913 0.0
C2453 C 0.94258 0.13548 0.62164 0.0
C2454 C 0.9156 0.14244 0.61446 0.0
C2455 C 0.91392 0.15165 0.59518 0.0
H2456 H 0.87492 0.17169 0.16392 0.0
H2457 H 0.83132 0.12916 0.19492 0.0
H2458 H 0.87274 0.15614 0.12978 0.0
H2459 H 0.83026 0.11334 0.16112 0.0
H2460 H 0.87551 0.08512 0.10155 0.0
H2461 H 0.87211 0.10059 0.13571 0.0
H2462 H 0.83157 0.14368 0.10362 0.0
H2463 H 0.83386 0.12797 0.06979 0.0
C2464 C 0.86471 0.15909 0.16339 0.0
C2465 C 0.85354 0.15161 0.18213 0.0
C2466 C 0.86352 0.15016 0.14389 0.0
C2467 C 0.85162 0.1334 0.14279 0.0
C2468 C 0.8399 0.1261 0.16147 0.0
C2469 C 0.84045 0.13519 0.18079 0.0
C2470 C 0.86542 0.09776 0.10192 0.0
C2471 C 0.85519 0.10537 0.08297 0.0
C2472 C 0.86354 0.10665 0.12142 0.0
C2473 C 0.85189 0.12347 0.12233 0.0
C2474 C 0.84101 0.13087 0.10344 0.0
C2475 C 0.84224 0.12184 0.0841 0.0
H2476 H 0.89011 0.66091 0.09106 0.0
H2477 H 0.98045 0.64642 0.07988 0.0
H2478 H 0.89054 0.64507 0.12488 0.0
H2479 H 0.98101 0.6302 0.11335 0.0
H2480 H 0.97948 0.61465 0.18446 0.0
H2481 H 0.98064 0.63117 0.15121 0.0
H2482 H 0.8903 0.61654 0.13869 0.0
H2483 H 0.88927 0.60039 0.17229 0.0
C2484 C 0.91023 0.65456 0.09608 0.0
C2485 C 0.93539 0.65515 0.08304 0.0
C2486 C 0.91041 0.64522 0.11531 0.0
C2487 C 0.93574 0.6361 0.12199 0.0
C2488 C 0.96116 0.63714 0.10906 0.0
C2489 C 0.96094 0.64649 0.08986 0.0
C2490 C 0.96011 0.61473 0.17434 0.0
C2491 C 0.93443 0.60602 0.18079 0.0
C2492 C 0.96068 0.62425 0.15526 0.0
C2493 C 0.93551 0.6254 0.14209 0.0
C2494 C 0.91 0.6163 0.14845 0.0
C2495 C 0.90946 0.6068 0.16756 0.0
H2496 H 0.64406 0.40673 0.91983 0.0
H2497 H 0.73709 0.39964 0.93081 0.0
H2498 H 0.64794 0.39062 0.88633 0.0
H2499 H 0.74123 0.38368 0.89721 0.0
H2500 H 0.73741 0.37024 0.82382 0.0
H2501 H 0.73685 0.3865 0.8574 0.0
H2502 H 0.65717 0.36004 0.87611 0.0
H2503 H 0.65806 0.34379 0.8426 0.0
C2504 C 0.66546 0.40206 0.91479 0.0
C2505 C 0.69031 0.40462 0.92779 0.0
C2506 C 0.66767 0.39263 0.89576 0.0
C2507 C 0.69486 0.38564 0.88913 0.0
C2508 C 0.71998 0.38889 0.90173 0.0
C2509 C 0.71767 0.39814 0.9209 0.0
C2510 C 0.72034 0.36758 0.83546 0.0
C2511 C 0.69815 0.35551 0.83086 0.0
C2512 C 0.71985 0.37696 0.85461 0.0
C2513 C 0.69678 0.37475 0.86942 0.0
C2514 C 0.67505 0.36227 0.86499 0.0
C2515 C 0.67578 0.35275 0.84598 0.0
H2516 H 0.56163 0.87698 0.94084 0.0
H2517 H 0.60756 0.83645 0.90767 0.0
H2518 H 0.55692 0.8931 0.9073 0.0
H2519 H 0.60135 0.85211 0.87396 0.0
H2520 H 0.55929 0.88104 0.81531 0.0
H2521 H 0.55629 0.86486 0.84891 0.0
H2522 H 0.60076 0.90626 0.88145 0.0
H2523 H 0.60528 0.92198 0.84765 0.0
C2524 C 0.56983 0.87125 0.92625 0.0
C2525 C 0.58433 0.85521 0.9269 0.0
C2526 C 0.56733 0.88054 0.9071 0.0
C2527 C 0.57867 0.87386 0.88795 0.0
C2528 C 0.59205 0.8575 0.88839 0.0
C2529 C 0.59527 0.84841 0.90767 0.0
C2530 C 0.56787 0.88684 0.82974 0.0
C2531 C 0.58185 0.90303 0.82884 0.0
C2532 C 0.56634 0.87752 0.84893 0.0
C2533 C 0.57818 0.8843 0.86786 0.0
C2534 C 0.59109 0.90079 0.86719 0.0
C2535 C 0.59334 0.90991 0.84786 0.0
H2536 H 0.64552 0.90931 0.41773 0.0
H2537 H 0.73766 0.90025 0.43033 0.0
H2538 H 0.64947 0.89299 0.38439 0.0
H2539 H 0.74188 0.88411 0.39685 0.0
H2540 H 0.73867 0.87042 0.32325 0.0
H2541 H 0.73848 0.88691 0.35668 0.0
H2542 H 0.65734 0.86188 0.37511 0.0
H2543 H 0.65789 0.84537 0.3418 0.0
C2544 C 0.66678 0.90419 0.41305 0.0
C2545 C 0.69133 0.90622 0.42649 0.0
C2546 C 0.669 0.89463 0.39412 0.0
C2547 C 0.69593 0.88702 0.38802 0.0
C2548 C 0.72084 0.8898 0.40099 0.0
C2549 C 0.7185 0.89916 0.42008 0.0
C2550 C 0.72136 0.8681 0.33482 0.0
C2551 C 0.69864 0.85638 0.3302 0.0
C2552 C 0.72108 0.87762 0.35387 0.0
C2553 C 0.69769 0.8759 0.36851 0.0
C2554 C 0.67547 0.86373 0.3641 0.0
C2555 C 0.67599 0.85406 0.34521 0.0
H2556 H 0.54602 0.36419 0.43291 0.0
H2557 H 0.63495 0.3494 0.41719 0.0
H2558 H 0.54237 0.38027 0.39915 0.0
H2559 H 0.63168 0.3656 0.3837 0.0
H2560 H 0.62953 0.41369 0.34141 0.0
H2561 H 0.62857 0.39742 0.37494 0.0
H2562 H 0.54338 0.37663 0.35817 0.0
H2563 H 0.54474 0.39281 0.32441 0.0
C2564 C 0.5645 0.36406 0.42196 0.0
C2565 C 0.59065 0.35542 0.42751 0.0
C2566 C 0.56252 0.37334 0.40271 0.0
C2567 C 0.58688 0.37446 0.38881 0.0
C2568 C 0.61265 0.36525 0.39413 0.0
C2569 C 0.61443 0.35578 0.41316 0.0
C2570 C 0.61031 0.40596 0.34518 0.0
C2571 C 0.58701 0.4047 0.3305 0.0
C2572 C 0.6099 0.39645 0.36422 0.0
C2573 C 0.58604 0.38553 0.36919 0.0
C2574 C 0.56205 0.38493 0.35491 0.0
C2575 C 0.5627 0.39427 0.33566 0.0
H2576 H 0.36677 0.67172 0.15972 0.0
H2577 H 0.32615 0.62962 0.19362 0.0
H2578 H 0.36123 0.65575 0.12604 0.0
H2579 H 0.32188 0.61339 0.16026 0.0
H2580 H 0.36559 0.5851 0.09947 0.0
H2581 H 0.36326 0.60086 0.1333 0.0
H2582 H 0.31704 0.64233 0.10202 0.0
H2583 H 0.31798 0.62612 0.06843 0.0
C2584 C 0.35647 0.65914 0.15994 0.0
C2585 C 0.34712 0.65191 0.17936 0.0
C2586 C 0.35333 0.64997 0.1407 0.0
C2587 C 0.34134 0.63322 0.14051 0.0
C2588 C 0.33146 0.62617 0.15988 0.0
C2589 C 0.33389 0.63548 0.17897 0.0
C2590 C 0.35381 0.59722 0.1 0.0
C2591 C 0.34122 0.60411 0.08133 0.0
C2592 C 0.35283 0.60638 0.11933 0.0
C2593 C 0.34008 0.6229 0.12034 0.0
C2594 C 0.32712 0.62968 0.10177 0.0
C2595 C 0.3274 0.62033 0.0826 0.0
H2596 H 0.4803 0.11274 0.18276 0.0
H2597 H 0.38964 0.09892 0.17163 0.0
H2598 H 0.48126 0.12879 0.14916 0.0
H2599 H 0.39046 0.11457 0.13767 0.0
H2600 H 0.3906 0.15852 0.08922 0.0
H2601 H 0.39099 0.14282 0.12315 0.0
H2602 H 0.48112 0.12736 0.1114 0.0
H2603 H 0.48061 0.14346 0.07782 0.0
C2604 C 0.46078 0.11281 0.17279 0.0
C2605 C 0.43504 0.10436 0.17963 0.0
C2606 C 0.46124 0.12205 0.15351 0.0
C2607 C 0.43589 0.12317 0.1405 0.0
C2608 C 0.41031 0.11434 0.14727 0.0
C2609 C 0.40988 0.10513 0.16659 0.0
C2610 C 0.41061 0.15202 0.09418 0.0
C2611 C 0.43572 0.15245 0.08108 0.0
C2612 C 0.41078 0.14278 0.11349 0.0
C2613 C 0.43603 0.1336 0.12018 0.0
C2614 C 0.46134 0.13438 0.10711 0.0
C2615 C 0.46114 0.14364 0.08784 0.0
H2616 H 0.31062 0.14558 0.68283 0.0
H2617 H 0.40147 0.15934 0.67236 0.0
H2618 H 0.31042 0.12905 0.6496 0.0
H2619 H 0.40144 0.14312 0.63886 0.0
H2620 H 0.40278 0.0977 0.59273 0.0
H2621 H 0.4011 0.11411 0.62606 0.0
H2622 H 0.31198 0.12998 0.61147 0.0
H2623 H 0.31379 0.11327 0.5784 0.0
C2624 C 0.33033 0.14542 0.67306 0.0
C2625 C 0.35592 0.15397 0.68 0.0
C2626 C 0.33031 0.13589 0.65402 0.0
C2627 C 0.35599 0.13453 0.64142 0.0
C2628 C 0.38137 0.14353 0.6482 0.0
C2629 C 0.38133 0.15308 0.66723 0.0
C2630 C 0.38268 0.10442 0.59695 0.0
C2631 C 0.35827 0.10398 0.58316 0.0
C2632 C 0.38179 0.11407 0.6159 0.0
C2633 C 0.35647 0.12361 0.62156 0.0
C2634 C 0.33178 0.12273 0.60791 0.0
C2635 C 0.33272 0.1131 0.58896 0.0
H2636 H 0.38855 0.59926 0.66923 0.0
H2637 H 0.47871 0.61358 0.68148 0.0
H2638 H 0.3899 0.61495 0.63532 0.0
H2639 H 0.48019 0.62965 0.64791 0.0
H2640 H 0.48038 0.64454 0.57655 0.0
H2641 H 0.48065 0.62829 0.61001 0.0
H2642 H 0.39031 0.6435 0.62141 0.0
H2643 H 0.39017 0.65938 0.58761 0.0
C2644 C 0.40882 0.60555 0.66442 0.0
C2645 C 0.43367 0.60494 0.67777 0.0
C2646 C 0.40953 0.61479 0.64514 0.0
C2647 C 0.4351 0.62381 0.63875 0.0
C2648 C 0.46019 0.62278 0.652 0.0
C2649 C 0.45945 0.61352 0.67125 0.0
C2650 C 0.46083 0.64465 0.58648 0.0
C2651 C 0.4354 0.65344 0.57967 0.0
C2652 C 0.46089 0.63529 0.60567 0.0
C2653 C 0.43544 0.63438 0.61857 0.0
C2654 C 0.4102 0.64356 0.61186 0.0
C2655 C 0.41018 0.65291 0.59264 0.0
H2656 H 0.33871 0.34051 0.23963 0.0
H2657 H 0.30909 0.38953 0.26405 0.0
H2658 H 0.38929 0.35099 0.23931 0.0
H2659 H 0.35979 0.40011 0.26325 0.0
H2660 H 0.45032 0.41898 0.2393 0.0
H2661 H 0.39982 0.40841 0.23948 0.0
H2662 H 0.43014 0.35913 0.26252 0.0
H2663 H 0.48082 0.3698 0.26281 0.0
C2664 C 0.34281 0.35349 0.24513 0.0
C2665 C 0.31926 0.36403 0.25203 0.0
C2666 C 0.37208 0.35954 0.24489 0.0
C2667 C 0.37902 0.37643 0.25133 0.0
C2668 C 0.3555 0.38709 0.25792 0.0
C2669 C 0.32621 0.38099 0.25832 0.0
C2670 C 0.44642 0.40593 0.24471 0.0
C2671 C 0.47019 0.3954 0.25123 0.0
C2672 C 0.4172 0.39983 0.24476 0.0
C2673 C 0.4105 0.38288 0.25113 0.0
C2674 C 0.43423 0.3722 0.25728 0.0
C2675 C 0.46351 0.37835 0.25739 0.0
H2676 H 0.8368 0.84099 0.23913 0.0
H2677 H 0.80723 0.89029 0.2627 0.0
H2678 H 0.88746 0.85133 0.23907 0.0
H2679 H 0.85803 0.90071 0.26221 0.0
H2680 H 0.94907 0.91931 0.23905 0.0
H2681 H 0.89849 0.90888 0.23907 0.0
H2682 H 0.9283 0.85946 0.26199 0.0
H2683 H 0.97907 0.86998 0.26239 0.0
C2684 C 0.84092 0.85401 0.2445 0.0
C2685 C 0.81733 0.86466 0.25106 0.0
C2686 C 0.87026 0.85998 0.24442 0.0
C2687 C 0.87728 0.8769 0.2507 0.0
C2688 C 0.85373 0.88766 0.25699 0.0
C2689 C 0.82436 0.88165 0.25722 0.0
C2690 C 0.94505 0.90626 0.24439 0.0
C2691 C 0.96873 0.89564 0.2509 0.0
C2692 C 0.91576 0.90024 0.24436 0.0
C2693 C 0.90886 0.88328 0.25063 0.0
C2694 C 0.9325 0.87253 0.25681 0.0
C2695 C 0.96185 0.8786 0.25699 0.0
H2696 H 0.31472 0.8667 0.99697 0.0
H2697 H 0.33921 0.91455 0.02703 0.0
H2698 H 0.36642 0.85774 0.99678 0.0
H2699 H 0.39112 0.90558 0.02677 0.0
H2700 H 0.48401 0.88969 0.99845 0.0
H2701 H 0.43282 0.89959 1.0006 0.0
H2702 H 0.40597 0.84937 0.02258 0.0
H2703 H 0.45684 0.83963 0.02136 0.0
C2704 C 0.33112 0.87534 1.00356 0.0
C2705 C 0.32257 0.89136 0.01207 0.0
C2706 C 0.36085 0.87015 1.00356 0.0
C2707 C 0.38317 0.88091 0.01176 0.0
C2708 C 0.37468 0.89698 0.02019 0.0
C2709 C 0.34481 0.90205 0.02053 0.0
C2710 C 0.46739 0.88077 1.00408 0.0
C2711 C 0.47509 0.86368 0.00941 0.0
C2712 C 0.43786 0.88648 1.00524 0.0
C2713 C 0.415 0.87525 0.01152 0.0
C2714 C 0.42274 0.85832 0.01724 0.0
C2715 C 0.45217 0.8527 0.0164 0.0
H2716 H 0.98474 0.38671 0.0241 0.0
H2717 H 0.95755 0.3405 0.99111 0.0
H2718 H 0.93395 0.39655 0.0244 0.0
H2719 H 0.90706 0.34918 0.99387 0.0
H2720 H 0.8184 0.37234 0.9838 0.0
H2721 H 0.86947 0.36451 0.98226 0.0
H2722 H 0.8873 0.39648 0.03717 0.0
H2723 H 0.83645 0.40611 0.03698 0.0
C2724 C 0.96818 0.3785 0.01698 0.0
C2725 C 0.97612 0.3626 0.0077 0.0
C2726 C 0.93854 0.38406 0.01753 0.0
C2727 C 0.91549 0.37382 0.0092 0.0
C2728 C 0.92353 0.35788 1.00011 0.0
C2729 C 0.95307 0.35258 0.99903 0.0
C2730 C 0.83303 0.37817 0.99533 0.0
C2731 C 0.82245 0.3902 0.01034 0.0
C2732 C 0.86281 0.37323 0.99478 0.0
C2733 C 0.88342 0.37958 0.00971 0.0
C2734 C 0.87279 0.39135 0.02506 0.0
C2735 C 0.84303 0.39668 0.02524 0.0
H2736 H 0.70408 0.66535 0.77772 0.0
H2737 H 0.72724 0.6162 0.75049 0.0
H2738 H 0.65197 0.65698 0.77777 0.0
H2739 H 0.67513 0.60776 0.75075 0.0
H2740 H 0.58185 0.59285 0.77655 0.0
H2741 H 0.63398 0.60119 0.77733 0.0
H2742 H 0.6115 0.65068 0.75058 0.0
H2743 H 0.55939 0.64227 0.7496 0.0
C2744 C 0.69812 0.65269 0.77192 0.0
C2745 C 0.72004 0.64146 0.76414 0.0
C2746 C 0.66815 0.64794 0.77178 0.0
C2747 C 0.65918 0.63167 0.76425 0.0
C2748 C 0.68114 0.62033 0.7568 0.0
C2749 C 0.71106 0.62522 0.75654 0.0
C2750 C 0.58797 0.60556 0.77096 0.0
C2751 C 0.56624 0.61688 0.76305 0.0
C2752 C 0.61794 0.6103 0.77124 0.0
C2753 C 0.62711 0.62663 0.76401 0.0
C2754 C 0.60533 0.63805 0.75641 0.0
C2755 C 0.57542 0.63318 0.75573 0.0
H2756 H 0.06317 0.12796 0.78826 0.0
H2757 H 0.08078 0.10176 0.72904 0.0
H2758 H 0.1146 0.1373 0.7899 0.0
H2759 H 0.13175 0.11145 0.7302 0.0
H2760 H 0.22878 0.11677 0.74635 0.0
H2761 H 0.17742 0.10765 0.74589 0.0
H2762 H 0.15227 0.15499 0.77713 0.0
H2763 H 0.20391 0.1638 0.77812 0.0
C2764 C 0.07789 0.12437 0.77542 0.0
C2765 C 0.06763 0.11395 0.75861 0.0
C2766 C 0.10757 0.12978 0.77631 0.0
C2767 C 0.12798 0.1251 0.76029 0.0
C2768 C 0.11734 0.11502 0.74322 0.0
C2769 C 0.08784 0.10949 0.74247 0.0
C2770 C 0.21232 0.12527 0.75311 0.0
C2771 C 0.22078 0.14107 0.76226 0.0
C2772 C 0.1826 0.12006 0.75275 0.0
C2773 C 0.16006 0.13055 0.7613 0.0
C2774 C 0.16864 0.14632 0.77063 0.0
C2775 C 0.19845 0.15143 0.77119 0.0
H2776 H 0.57849 0.14396 0.96459 0.0
H2777 H 0.57526 0.13632 0.03294 0.0
H2778 H 0.63008 0.13708 0.96482 0.0
H2779 H 0.62551 0.12708 0.0326 0.0
H2780 H 0.72334 0.12218 0.03344 0.0
H2781 H 0.67314 0.13143 0.03261 0.0
H2782 H 0.66898 0.1201 0.96518 0.0
H2783 H 0.72051 0.11318 0.96535 0.0
C2784 C 0.58829 0.14076 0.97978 0.0
C2785 C 0.57145 0.14099 0.99876 0.0
C2786 C 0.61843 0.13633 0.97983 0.0
C2787 C 0.63313 0.13136 0.99873 0.0
C2788 C 0.6161 0.13116 0.0176 0.0
C2789 C 0.58628 0.13615 0.01768 0.0
C2790 C 0.71245 0.12205 0.01813 0.0
C2791 C 0.72742 0.11682 0.99944 0.0
C2792 C 0.68264 0.12704 0.01778 0.0
C2793 C 0.66573 0.12648 0.99887 0.0
C2794 C 0.68053 0.12113 0.98019 0.0
C2795 C 0.71067 0.11669 0.9804 0.0
H2796 H 0.23397 0.63607 0.98714 0.0
H2797 H 0.20629 0.59095 0.02225 0.0
H2798 H 0.18345 0.64646 0.98721 0.0
H2799 H 0.15605 0.60007 0.01989 0.0
H2800 H 0.06768 0.62354 0.0292 0.0
H2801 H 0.11864 0.61561 0.03086 0.0
H2802 H 0.13659 0.64682 0.9752 0.0
H2803 H 0.08594 0.65662 0.97527 0.0
C2804 C 0.21735 0.62822 0.99479 0.0
C2805 C 0.22506 0.61242 1.00448 0.0
C2806 C 0.18785 0.63409 0.99448 0.0
C2807 C 0.16469 0.62426 1.00348 0.0
C2808 C 0.17256 0.60848 0.01309 0.0
C2809 C 0.20196 0.60289 0.01394 0.0
C2810 C 0.08229 0.6292 0.01752 0.0
C2811 C 0.07172 0.64104 1.00222 0.0
C2812 C 0.11205 0.62419 0.01815 0.0
C2813 C 0.13269 0.63024 1.00302 0.0
C2814 C 0.1221 0.64188 0.98746 0.0
C2815 C 0.09239 0.6473 0.98721 0.0
H2816 H 0.45507 0.90791 0.72516 0.0
H2817 H 0.47523 0.87608 0.77947 0.0
H2818 H 0.4045 0.89738 0.7252 0.0
H2819 H 0.42416 0.86642 0.78089 0.0
H2820 H 0.33566 0.84137 0.77209 0.0
H2821 H 0.3861 0.85065 0.77002 0.0
H2822 H 0.3584 0.89724 0.73793 0.0
H2823 H 0.30809 0.88688 0.73768 0.0
C2824 C 0.44854 0.89867 0.73723 0.0
C2825 C 0.46932 0.89273 0.75219 0.0
C2826 C 0.41921 0.89272 0.7375 0.0
C2827 C 0.40926 0.88095 0.75315 0.0
C2828 C 0.43037 0.8751 0.76817 0.0
C2829 C 0.45992 0.88072 0.76751 0.0
C2830 C 0.34002 0.8534 0.764 0.0
C2831 C 0.31688 0.86305 0.75471 0.0
C2832 C 0.36949 0.85903 0.76326 0.0
C2833 C 0.37731 0.87488 0.7538 0.0
C2834 C 0.3541 0.88478 0.74499 0.0
C2835 C 0.32464 0.87892 0.74524 0.0
H2836 H 0.83703 0.34063 0.73987 0.0
H2837 H 0.80707 0.38997 0.76304 0.0
H2838 H 0.8876 0.35111 0.73967 0.0
H2839 H 0.85779 0.40053 0.76243 0.0
H2840 H 0.9487 0.41924 0.7392 0.0
H2841 H 0.89818 0.40869 0.73926 0.0
H2842 H 0.92834 0.35943 0.7625 0.0
H2843 H 0.97904 0.37007 0.76282 0.0
C2844 C 0.84105 0.35369 0.74513 0.0
C2845 C 0.8174 0.36431 0.75163 0.0
C2846 C 0.87034 0.35974 0.74496 0.0
C2847 C 0.87722 0.37672 0.75111 0.0
C2848 C 0.85359 0.38745 0.75732 0.0
C2849 C 0.82427 0.38136 0.75762 0.0
C2850 C 0.94476 0.40621 0.74461 0.0
C2851 C 0.9685 0.39566 0.75119 0.0
C2852 C 0.91551 0.40011 0.7446 0.0
C2853 C 0.90874 0.38317 0.75099 0.0
C2854 C 0.93245 0.3725 0.75723 0.0
C2855 C 0.96176 0.37863 0.75737 0.0
H2856 H 0.34145 0.41422 0.52973 0.0
H2857 H 0.31266 0.36945 0.49463 0.0
H2858 H 0.39186 0.40426 0.52792 0.0
H2859 H 0.36306 0.35865 0.49444 0.0
H2860 H 0.46027 0.35067 0.47818 0.0
H2861 H 0.4094 0.36064 0.47986 0.0
H2862 H 0.42841 0.38641 0.53937 0.0
H2863 H 0.47961 0.37704 0.53697 0.0
C2864 C 0.34567 0.40219 0.52161 0.0
C2865 C 0.3224 0.39291 0.512 0.0
C2866 C 0.37493 0.39623 0.52092 0.0
C2867 C 0.38228 0.38054 0.51096 0.0
C2868 C 0.35889 0.37096 0.50191 0.0
C2869 C 0.32957 0.37706 0.50234 0.0
C2870 C 0.45358 0.35849 0.49163 0.0
C2871 C 0.47428 0.36305 0.50741 0.0
C2872 C 0.42412 0.36415 0.49272 0.0
C2873 C 0.41406 0.3744 0.50982 0.0
C2874 C 0.43491 0.37889 0.52565 0.0
C2875 C 0.46451 0.37345 0.52436 0.0
H2876 H 0.95632 0.84049 0.49061 0.0
H2877 H 0.9834 0.88663 0.52378 0.0
H2878 H 0.90581 0.84911 0.49341 0.0
H2879 H 0.93258 0.89642 0.52413 0.0
H2880 H 0.83501 0.90595 0.53662 0.0
H2881 H 0.88588 0.89633 0.53685 0.0
H2882 H 0.86817 0.86441 0.48187 0.0
H2883 H 0.8171 0.87224 0.48335 0.0
C2884 C 0.95182 0.85254 0.49858 0.0
C2885 C 0.97486 0.86255 0.50728 0.0
C2886 C 0.92226 0.85781 0.49969 0.0
C2887 C 0.91417 0.87372 0.50884 0.0
C2888 C 0.9372 0.88396 0.51722 0.0
C2889 C 0.96687 0.87842 0.51664 0.0
C2890 C 0.84163 0.89653 0.52487 0.0
C2891 C 0.82108 0.89008 0.50993 0.0
C2892 C 0.87139 0.89121 0.52472 0.0
C2893 C 0.88208 0.87946 0.50935 0.0
C2894 C 0.86149 0.87312 0.49439 0.0
C2895 C 0.83171 0.87806 0.49492 0.0
H2896 H 0.58577 0.0917 0.27747 0.0
H2897 H 0.56212 0.14079 0.25013 0.0
H2898 H 0.63767 0.10045 0.27815 0.0
H2899 H 0.61402 0.14959 0.25094 0.0
H2900 H 0.7062 0.16532 0.27752 0.0
H2901 H 0.65431 0.15655 0.27758 0.0
H2902 H 0.67882 0.10704 0.25202 0.0
H2903 H 0.73073 0.11585 0.25183 0.0
C2904 C 0.59156 0.10442 0.27176 0.0
C2905 C 0.56956 0.11552 0.26378 0.0
C2906 C 0.62143 0.10939 0.27198 0.0
C2907 C 0.63022 0.12575 0.26459 0.0
C2908 C 0.60816 0.13695 0.25689 0.0
C2909 C 0.57836 0.13185 0.2563 0.0
C2910 C 0.7006 0.15251 0.27205 0.0
C2911 C 0.72285 0.14131 0.26472 0.0
C2912 C 0.67074 0.14753 0.27191 0.0
C2913 C 0.66219 0.13106 0.26479 0.0
C2914 C 0.68449 0.11977 0.25775 0.0
C2915 C 0.7143 0.12486 0.25752 0.0
H2916 H 0.08438 0.59284 0.27788 0.0
H2917 H 0.06062 0.64221 0.25135 0.0
H2918 H 0.13636 0.60144 0.27813 0.0
H2919 H 0.1126 0.65085 0.25171 0.0
H2920 H 0.20547 0.66612 0.27716 0.0
H2921 H 0.15353 0.65749 0.27792 0.0
H2922 H 0.17691 0.60806 0.25156 0.0
H2923 H 0.22887 0.61674 0.25068 0.0
C2924 C 0.09017 0.6056 0.27227 0.0
C2925 C 0.06812 0.61682 0.26464 0.0
C2926 C 0.12007 0.61048 0.27223 0.0
C2927 C 0.12885 0.62686 0.26493 0.0
C2928 C 0.10675 0.63818 0.2576 0.0
C2929 C 0.0769 0.63318 0.25727 0.0
C2930 C 0.19961 0.65336 0.27167 0.0
C2931 C 0.22155 0.64214 0.2639 0.0
C2932 C 0.16972 0.64845 0.27193 0.0
C2933 C 0.16085 0.63206 0.26479 0.0
C2934 C 0.18284 0.62074 0.25732 0.0
C2935 C 0.21267 0.62576 0.2567 0.0
H2936 H 0.70742 0.59232 0.48383 0.0
H2937 H 0.73074 0.64177 0.51016 0.0
H2938 H 0.65545 0.60092 0.48303 0.0
H2939 H 0.67877 0.65042 0.50924 0.0
H2940 H 0.5863 0.66552 0.48266 0.0
H2941 H 0.63828 0.65692 0.4825 0.0
H2942 H 0.61453 0.60766 0.50932 0.0
H2943 H 0.56254 0.6163 0.50961 0.0
C2944 C 0.70153 0.60509 0.48927 0.0
C2945 C 0.72345 0.61634 0.49702 0.0
C2946 C 0.67164 0.60998 0.48899 0.0
C2947 C 0.66276 0.62639 0.49609 0.0
C2948 C 0.68472 0.63773 0.50352 0.0
C2949 C 0.71456 0.63273 0.50417 0.0
C2950 C 0.5921 0.6528 0.48838 0.0
C2951 C 0.57005 0.64162 0.4961 0.0
C2952 C 0.62199 0.64792 0.48846 0.0
C2953 C 0.63076 0.63158 0.4959 0.0
C2954 C 0.60867 0.62029 0.50333 0.0
C2955 C 0.57883 0.62529 0.50362 0.0
H2956 H 0.07612 0.13783 0.53327 0.0
H2957 H 0.07881 0.14591 0.46497 0.0
H2958 H 0.1261 0.12827 0.53258 0.0
H2959 H 0.1303 0.13874 0.4649 0.0
H2960 H 0.22031 0.1142 0.46502 0.0
H2961 H 0.16891 0.12145 0.465 0.0
H2962 H 0.17365 0.13265 0.53244 0.0
H2963 H 0.22355 0.12305 0.53316 0.0
C2964 C 0.08695 0.13769 0.51794 0.0
C2965 C 0.07203 0.14274 0.49915 0.0
C2966 C 0.11665 0.13253 0.51767 0.0
C2967 C 0.1335 0.13279 0.49874 0.0
C2968 C 0.11875 0.13796 0.47994 0.0
C2969 C 0.08868 0.14255 0.48008 0.0
C2970 C 0.21062 0.11775 0.48011 0.0
C2971 C 0.22744 0.11772 0.49912 0.0
C2972 C 0.18057 0.12238 0.47998 0.0
C2973 C 0.16598 0.12777 0.49872 0.0
C2974 C 0.18298 0.12822 0.51758 0.0
C2975 C 0.21266 0.12302 0.51786 0.0
loop_
_geom_bond_atom_site_label_1
_geom_bond_atom_site_label_2
_geom_bond_distance
_geom_bond_site_symmetry_2
_ccdc_geom_bond_type
C0 C1 1.443 . S
C0 N4 1.376 . S
C0 C38 1.389 . S
C1 C0 1.443 . S
C1 C2 1.340 . S
C1 H41 0.951 . S
C2 C1 1.340 . S
C2 C3 1.439 . S
C2 H42 0.950 . S
C3 C2 1.439 . S
C3 N4 1.374 . S
C3 C37 1.395 . S
N4 C0 1.376 . S
N4 C3 1.374 . S
N4 Co5 2.008 . S
Co5 N4 2.008 . S
Co5 N6 1.995 . S
Co5 N11 2.008 . S
Co5 N16 1.995 . S
Co5 N21 2.282 . S
Co5 N27 2.282 . S
N6 Co5 1.995 . S
N6 C7 1.376 . S
N6 C10 1.383 . S
C7 N6 1.376 . S
C7 C8 1.446 . S
C7 C37 1.391 . S
C8 C7 1.446 . S
C8 C9 1.339 . S
C8 H43 0.949 . S
C9 C8 1.339 . S
C9 C10 1.439 . S
C9 H44 0.950 . S
C10 N6 1.383 . S
C10 C9 1.439 . S
C10 C39 1.392 . S
N11 Co5 2.008 . S
N11 C12 1.376 . S
N11 C15 1.374 . S
C12 N11 1.376 . S
C12 C13 1.443 . S
C12 C39 1.389 . S
C13 C12 1.443 . S
C13 C14 1.340 . S
C13 H45 0.951 . S
C14 C13 1.340 . S
C14 C15 1.439 . S
C14 H46 0.950 . S
C15 N11 1.374 . S
C15 C14 1.439 . S
C15 C40 1.395 . S
N16 Co5 1.995 . S
N16 C17 1.376 . S
N16 C20 1.383 . S
C17 N16 1.376 . S
C17 C18 1.446 . S
C17 C40 1.391 . S
C18 C17 1.446 . S
C18 C19 1.339 . S
C18 H47 0.949 . S
C19 C18 1.339 . S
C19 C20 1.439 . S
C19 H48 0.950 . S
C20 N16 1.383 . S
C20 C19 1.439 . S
C20 C38 1.392 . S
N21 Co5 2.282 . S
N21 C24 1.332 . S
N21 C26 1.332 . S
C22 C23 1.386 . S
C22 C25 1.388 . S
C23 C22 1.386 . S
C23 C24 1.382 . S
C23 H49 0.950 . S
C24 N21 1.332 . S
C24 C23 1.382 . S
C24 H35 0.952 . S
C25 C22 1.388 . S
C25 C26 1.382 . S
C25 H50 0.950 . S
C26 N21 1.332 . S
C26 C25 1.382 . S
C26 H36 0.948 . S
N27 Co5 2.282 . S
N27 C31 1.332 . S
N27 C32 1.332 . S
C28 C29 1.388 . S
C28 C32 1.382 . S
C28 H51 0.950 . S
C29 C28 1.388 . S
C29 C30 1.386 . S
C30 C29 1.386 . S
C30 C31 1.382 . S
C30 H52 0.950 . S
C31 N27 1.332 . S
C31 C30 1.382 . S
C31 H33 0.952 . S
C32 N27 1.332 . S
C32 C28 1.382 . S
C32 H34 0.948 . S
H33 C31 0.952 . S
H34 C32 0.948 . S
H35 C24 0.952 . S
H36 C26 0.948 . S
C37 C3 1.395 . S
C37 C7 1.391 . S
C38 C0 1.389 . S
C38 C20 1.392 . S
C39 C10 1.392 . S
C39 C12 1.389 . S
C40 C15 1.395 . S
C40 C17 1.391 . S
H41 C1 0.951 . S
H42 C2 0.950 . S
H43 C8 0.949 . S
H44 C9 0.950 . S
H45 C13 0.951 . S
H46 C14 0.950 . S
H47 C18 0.949 . S
H48 C19 0.950 . S
H49 C23 0.950 . S
H50 C25 0.950 . S
H51 C28 0.950 . S
H52 C30 0.950 . S
C53 C54 1.443 . S
C53 N57 1.376 . S
C53 C91 1.389 . S
C54 C53 1.443 . S
C54 C55 1.340 . S
C54 H94 0.951 . S
C55 C54 1.340 . S
C55 C56 1.439 . S
C55 H95 0.950 . S
C56 C55 1.439 . S
C56 N57 1.374 . S
C56 C90 1.395 . S
N57 C53 1.376 . S
N57 C56 1.374 . S
N57 Co58 2.008 . S
Co58 N57 2.008 . S
Co58 N59 1.995 . S
Co58 N64 2.008 . S
Co58 N69 1.995 . S
Co58 N74 2.282 . S
Co58 N80 2.282 . S
N59 Co58 1.995 . S
N59 C60 1.376 . S
N59 C63 1.383 . S
C60 N59 1.376 . S
C60 C61 1.446 . S
C60 C90 1.391 . S
C61 C60 1.446 . S
C61 C62 1.339 . S
C61 H96 0.949 . S
C62 C61 1.339 . S
C62 C63 1.439 . S
C62 H97 0.950 . S
C63 N59 1.383 . S
C63 C62 1.439 . S
C63 C92 1.392 . S
N64 Co58 2.008 . S
N64 C65 1.376 . S
N64 C68 1.374 . S
C65 N64 1.376 . S
C65 C66 1.443 . S
C65 C92 1.389 . S
C66 C65 1.443 . S
C66 C67 1.340 . S
C66 H98 0.951 . S
C67 C66 1.340 . S
C67 C68 1.439 . S
C67 H99 0.950 . S
C68 N64 1.374 . S
C68 C67 1.439 . S
C68 C93 1.395 . S
N69 Co58 1.995 . S
N69 C70 1.376 . S
N69 C73 1.383 . S
C70 N69 1.376 . S
C70 C71 1.446 . S
C70 C93 1.391 . S
C71 C70 1.446 . S
C71 C72 1.339 . S
C71 H100 0.949 . S
C72 C71 1.339 . S
C72 C73 1.439 . S
C72 H101 0.950 . S
C73 N69 1.383 . S
C73 C72 1.439 . S
C73 C91 1.392 . S
N74 Co58 2.282 . S
N74 C77 1.332 . S
N74 C79 1.332 . S
C75 C76 1.386 . S
C75 C78 1.388 . S
C76 C75 1.386 . S
C76 C77 1.382 . S
C76 H102 0.950 . S
C77 N74 1.332 . S
C77 C76 1.382 . S
C77 H88 0.952 . S
C78 C75 1.388 . S
C78 C79 1.382 . S
C78 H103 0.950 . S
C79 N74 1.332 . S
C79 C78 1.382 . S
C79 H89 0.948 . S
N80 Co58 2.282 . S
N80 C84 1.332 . S
N80 C85 1.332 . S
C81 C82 1.388 . S
C81 C85 1.382 1_655 S
C81 H104 0.950 . S
C82 C81 1.388 . S
C82 C83 1.416 . S
C83 C82 1.416 . S
C83 C84 1.351 1_655 S
C83 H105 0.951 . S
C84 N80 1.332 . S
C84 C83 1.351 1_455 S
C84 H86 0.952 . S
C85 N80 1.332 . S
C85 C81 1.382 1_455 S
C85 H87 0.948 . S
H86 C84 0.952 . S
H87 C85 0.948 . S
H88 C77 0.952 . S
H89 C79 0.948 . S
C90 C56 1.395 . S
C90 C60 1.391 . S
C91 C53 1.389 . S
C91 C73 1.392 . S
C92 C63 1.392 . S
C92 C65 1.389 . S
C93 C68 1.395 . S
C93 C70 1.391 . S
H94 C54 0.951 . S
H95 C55 0.950 . S
H96 C61 0.949 . S
H97 C62 0.950 . S
H98 C66 0.951 . S
H99 C67 0.950 . S
H100 C71 0.949 . S
H101 C72 0.950 . S
H102 C76 0.950 . S
H103 C78 0.950 . S
H104 C81 0.950 . S
H105 C83 0.951 . S
C106 C107 1.443 . S
C106 N110 1.376 . S
C106 C144 1.389 . S
C107 C106 1.443 . S
C107 C108 1.340 . S
C107 H147 0.951 . S
C108 C107 1.340 . S
C108 C109 1.439 . S
C108 H148 0.950 . S
C109 C108 1.439 . S
C109 N110 1.374 . S
C109 C143 1.395 1_556 S
N110 C106 1.376 . S
N110 C109 1.374 . S
N110 Co111 2.008 . S
Co111 N110 2.008 . S
Co111 N112 1.995 1_556 S
Co111 N117 2.008 1_556 S
Co111 N122 1.995 . S
Co111 N127 2.282 . S
Co111 N133 2.282 . S
N112 Co111 1.995 1_554 S
N112 C113 1.376 . S
N112 C116 1.383 . S
C113 N112 1.376 . S
C113 C114 1.446 . S
C113 C143 1.391 . S
C114 C113 1.446 . S
C114 C115 1.339 . S
C114 H149 0.949 . S
C115 C114 1.339 . S
C115 C116 1.439 . S
C115 H150 0.950 . S
C116 N112 1.383 . S
C116 C115 1.439 . S
C116 C145 1.392 . S
N117 Co111 2.008 1_554 S
N117 C118 1.376 . S
N117 C121 1.374 . S
C118 N117 1.376 . S
C118 C119 1.443 . S
C118 C145 1.389 . S
C119 C118 1.443 . S
C119 C120 1.340 . S
C119 H151 0.951 . S
C120 C119 1.340 . S
C120 C121 1.439 . S
C120 H152 0.950 . S
C121 N117 1.374 . S
C121 C120 1.439 . S
C121 C146 1.395 1_554 S
N122 Co111 1.995 . S
N122 C123 1.376 . S
N122 C126 1.383 . S
C123 N122 1.376 . S
C123 C124 1.446 . S
C123 C146 1.391 . S
C124 C123 1.446 . S
C124 C125 1.339 . S
C124 H153 0.949 . S
C125 C124 1.339 . S
C125 C126 1.439 . S
C125 H154 0.950 . S
C126 N122 1.383 . S
C126 C125 1.439 . S
C126 C144 1.392 . S
N127 Co111 2.282 . S
N127 C130 1.332 . S
N127 C132 1.325 1_556 S
C128 C129 1.386 . S
C128 C131 1.388 1_556 S
C129 C128 1.386 . S
C129 C130 1.382 . S
C129 H155 0.950 . S
C130 N127 1.332 . S
C130 C129 1.382 . S
C130 H141 0.952 . S
C131 C128 1.388 1_554 S
C131 C132 1.384 . S
C131 H156 0.950 . S
C132 N127 1.325 1_554 S
C132 C131 1.384 . S
C132 H142 0.953 . S
N133 Co111 2.282 . S
N133 C137 1.332 1_556 S
N133 C138 1.332 . S
C134 C135 1.388 . S
C134 C138 1.382 . S
C134 H157 0.950 . S
C135 C134 1.388 . S
C135 C136 1.386 1_556 S
C136 C135 1.386 1_554 S
C136 C137 1.382 . S
C136 H158 0.950 . S
C137 N133 1.332 1_554 S
C137 C136 1.382 . S
C137 H139 0.952 . S
C138 N133 1.332 . S
C138 C134 1.382 . S
C138 H140 0.948 . S
H139 C137 0.952 . S
H140 C138 0.948 . S
H141 C130 0.952 . S
H142 C132 0.953 . S
C143 C109 1.395 1_554 S
C143 C113 1.391 . S
C144 C106 1.389 . S
C144 C126 1.392 . S
C145 C116 1.392 . S
C145 C118 1.389 . S
C146 C121 1.395 1_556 S
C146 C123 1.391 . S
H147 C107 0.951 . S
H148 C108 0.950 . S
H149 C114 0.949 . S
H150 C115 0.950 . S
H151 C119 0.951 . S
H152 C120 0.950 . S
H153 C124 0.949 . S
H154 C125 0.950 . S
H155 C129 0.950 . S
H156 C131 0.950 . S
H157 C134 0.950 . S
H158 C136 0.950 . S
C159 C160 1.443 . S
C159 N163 1.376 . S
C159 C197 1.389 . S
C160 C159 1.443 . S
C160 C161 1.340 . S
C160 H200 0.951 . S
C161 C160 1.340 . S
C161 C162 1.439 . S
C161 H201 0.950 . S
C162 C161 1.439 . S
C162 N163 1.374 . S
C162 C196 1.395 1_556 S
N163 C159 1.376 . S
N163 C162 1.374 . S
N163 Co164 2.008 . S
Co164 N163 2.008 . S
Co164 N165 1.995 1_556 S
Co164 N170 2.008 1_556 S
Co164 N175 1.995 . S
Co164 N180 2.282 . S
Co164 N186 2.282 . S
N165 Co164 1.995 1_554 S
N165 C166 1.376 . S
N165 C169 1.383 . S
C166 N165 1.376 . S
C166 C167 1.446 . S
C166 C196 1.391 . S
C167 C166 1.446 . S
C167 C168 1.339 . S
C167 H202 0.949 . S
C168 C167 1.339 . S
C168 C169 1.439 . S
C168 H203 0.950 . S
C169 N165 1.383 . S
C169 C168 1.439 . S
C169 C198 1.392 . S
N170 Co164 2.008 1_554 S
N170 C171 1.376 . S
N170 C174 1.374 . S
C171 N170 1.376 . S
C171 C172 1.443 . S
C171 C198 1.389 . S
C172 C171 1.443 . S
C172 C173 1.340 . S
C172 H204 0.951 . S
C173 C172 1.340 . S
C173 C174 1.439 . S
C173 H205 0.950 . S
C174 N170 1.374 . S
C174 C173 1.439 . S
C174 C199 1.395 1_554 S
N175 Co164 1.995 . S
N175 C176 1.376 . S
N175 C179 1.383 . S
C176 N175 1.376 . S
C176 C177 1.446 . S
C176 C199 1.391 . S
C177 C176 1.446 . S
C177 C178 1.339 . S
C177 H206 0.949 . S
C178 C177 1.339 . S
C178 C179 1.439 . S
C178 H207 0.950 . S
C179 N175 1.383 . S
C179 C178 1.439 . S
C179 C197 1.392 . S
N180 Co164 2.282 . S
N180 C183 1.332 . S
N180 C185 1.325 1_556 S
C181 C182 1.386 . S
C181 C184 1.388 1_556 S
C182 C181 1.386 . S
C182 C183 1.382 . S
C182 H208 0.950 . S
C183 N180 1.332 . S
C183 C182 1.382 . S
C183 H194 0.952 . S
C184 C181 1.388 1_554 S
C184 C185 1.384 . S
C184 H209 0.950 . S
C185 N180 1.325 1_554 S
C185 C184 1.384 . S
C185 H195 0.953 . S
N186 Co164 2.282 . S
N186 C190 1.332 1_556 S
N186 C191 1.332 . S
C187 C188 1.388 . S
C187 C191 1.382 1_655 S
C187 H210 0.950 . S
C188 C187 1.388 . S
C188 C189 1.416 1_556 S
C189 C188 1.416 1_554 S
C189 C190 1.351 1_655 S
C189 H211 0.951 . S
C190 N186 1.332 1_554 S
C190 C189 1.351 1_455 S
C190 H192 0.952 . S
C191 N186 1.332 . S
C191 C187 1.382 1_455 S
C191 H193 0.948 . S
H192 C190 0.952 . S
H193 C191 0.948 . S
H194 C183 0.952 . S
H195 C185 0.953 . S
C196 C162 1.395 1_554 S
C196 C166 1.391 . S
C197 C159 1.389 . S
C197 C179 1.392 . S
C198 C169 1.392 . S
C198 C171 1.389 . S
C199 C174 1.395 1_556 S
C199 C176 1.391 . S
H200 C160 0.951 . S
H201 C161 0.950 . S
H202 C167 0.949 . S
H203 C168 0.950 . S
H204 C172 0.951 . S
H205 C173 0.950 . S
H206 C177 0.949 . S
H207 C178 0.950 . S
H208 C182 0.950 . S
H209 C184 0.950 . S
H210 C187 0.950 . S
H211 C189 0.951 . S
C212 C213 1.443 . S
C212 N216 1.376 . S
C212 C250 1.389 . S
C213 C212 1.443 . S
C213 C214 1.340 . S
C213 H253 0.951 . S
C214 C213 1.340 . S
C214 C215 1.439 . S
C214 H254 0.950 . S
C215 C214 1.439 . S
C215 N216 1.374 . S
C215 C249 1.395 . S
N216 C212 1.376 . S
N216 C215 1.374 . S
N216 Co217 2.008 . S
Co217 N216 2.008 . S
Co217 N218 1.995 . S
Co217 N223 2.008 . S
Co217 N228 1.995 . S
Co217 N233 2.282 . S
Co217 N239 2.282 . S
N218 Co217 1.995 . S
N218 C219 1.376 . S
N218 C222 1.383 . S
C219 N218 1.376 . S
C219 C220 1.446 . S
C219 C249 1.391 . S
C220 C219 1.446 . S
C220 C221 1.339 . S
C220 H255 0.949 . S
C221 C220 1.339 . S
C221 C222 1.439 . S
C221 H256 0.950 . S
C222 N218 1.383 . S
C222 C221 1.439 . S
C222 C251 1.392 . S
N223 Co217 2.008 . S
N223 C224 1.376 . S
N223 C227 1.374 . S
C224 N223 1.376 . S
C224 C225 1.443 . S
C224 C251 1.389 . S
C225 C224 1.443 . S
C225 C226 1.340 . S
C225 H257 0.951 . S
C226 C225 1.340 . S
C226 C227 1.439 . S
C226 H258 0.950 . S
C227 N223 1.374 . S
C227 C226 1.439 . S
C227 C252 1.395 . S
N228 Co217 1.995 . S
N228 C229 1.376 . S
N228 C232 1.383 . S
C229 N228 1.376 . S
C229 C230 1.446 . S
C229 C252 1.391 . S
C230 C229 1.446 . S
C230 C231 1.339 . S
C230 H259 0.949 . S
C231 C230 1.339 . S
C231 C232 1.439 . S
C231 H260 0.950 . S
C232 N228 1.383 . S
C232 C231 1.439 . S
C232 C250 1.392 . S
N233 Co217 2.282 . S
N233 C236 1.332 . S
N233 C238 1.332 . S
C234 C235 1.386 . S
C234 C237 1.388 . S
C235 C234 1.386 . S
C235 C236 1.382 . S
C235 H261 0.950 . S
C236 N233 1.332 . S
C236 C235 1.382 . S
C236 H247 0.952 . S
C237 C234 1.388 . S
C237 C238 1.382 . S
C237 H262 0.950 . S
C238 N233 1.332 . S
C238 C237 1.382 . S
C238 H248 0.948 . S
N239 Co217 2.282 . S
N239 C243 1.332 . S
N239 C244 1.332 . S
C240 C241 1.388 . S
C240 C244 1.382 . S
C240 H263 0.950 . S
C241 C240 1.388 . S
C241 C242 1.386 . S
C242 C241 1.386 . S
C242 C243 1.382 . S
C242 H264 0.950 . S
C243 N239 1.332 . S
C243 C242 1.382 . S
C243 H245 0.952 . S
C244 N239 1.332 . S
C244 C240 1.382 . S
C244 H246 0.948 . S
H245 C243 0.952 . S
H246 C244 0.948 . S
H247 C236 0.952 . S
H248 C238 0.948 . S
C249 C215 1.395 . S
C249 C219 1.391 . S
C250 C212 1.389 . S
C250 C232 1.392 . S
C251 C222 1.392 . S
C251 C224 1.389 . S
C252 C227 1.395 . S
C252 C229 1.391 . S
H253 C213 0.951 . S
H254 C214 0.950 . S
H255 C220 0.949 . S
H256 C221 0.950 . S
H257 C225 0.951 . S
H258 C226 0.950 . S
H259 C230 0.949 . S
H260 C231 0.950 . S
H261 C235 0.950 . S
H262 C237 0.950 . S
H263 C240 0.950 . S
H264 C242 0.950 . S
C265 C266 1.443 . S
C265 N269 1.376 . S
C265 C303 1.389 . S
C266 C265 1.443 . S
C266 C267 1.340 . S
C266 H306 0.951 . S
C267 C266 1.340 . S
C267 C268 1.439 . S
C267 H307 0.950 . S
C268 C267 1.439 . S
C268 N269 1.374 . S
C268 C302 1.395 . S
N269 C265 1.376 . S
N269 C268 1.374 . S
N269 Co270 2.008 . S
Co270 N269 2.008 . S
Co270 N271 1.995 . S
Co270 N276 2.008 . S
Co270 N281 1.995 . S
Co270 N286 2.282 . S
Co270 N292 2.282 . S
N271 Co270 1.995 . S
N271 C272 1.376 . S
N271 C275 1.383 . S
C272 N271 1.376 . S
C272 C273 1.446 . S
C272 C302 1.391 . S
C273 C272 1.446 . S
C273 C274 1.339 . S
C273 H308 0.949 . S
C274 C273 1.339 . S
C274 C275 1.439 . S
C274 H309 0.950 . S
C275 N271 1.383 . S
C275 C274 1.439 . S
C275 C304 1.392 . S
N276 Co270 2.008 . S
N276 C277 1.376 . S
N276 C280 1.374 . S
C277 N276 1.376 . S
C277 C278 1.443 . S
C277 C304 1.389 . S
C278 C277 1.443 . S
C278 C279 1.340 . S
C278 H310 0.951 . S
C279 C278 1.340 . S
C279 C280 1.439 . S
C279 H311 0.950 . S
C280 N276 1.374 . S
C280 C279 1.439 . S
C280 C305 1.395 . S
N281 Co270 1.995 . S
N281 C282 1.376 . S
N281 C285 1.383 . S
C282 N281 1.376 . S
C282 C283 1.446 . S
C282 C305 1.391 . S
C283 C282 1.446 . S
C283 C284 1.339 . S
C283 H312 0.949 . S
C284 C283 1.339 . S
C284 C285 1.439 . S
C284 H313 0.950 . S
C285 N281 1.383 . S
C285 C284 1.439 . S
C285 C303 1.392 . S
N286 Co270 2.282 . S
N286 C289 1.332 . S
N286 C291 1.332 . S
C287 C288 1.386 . S
C287 C290 1.388 . S
C288 C287 1.386 . S
C288 C289 1.382 . S
C288 H314 0.950 . S
C289 N286 1.332 . S
C289 C288 1.382 . S
C289 H300 0.952 . S
C290 C287 1.388 . S
C290 C291 1.382 . S
C290 H315 0.950 . S
C291 N286 1.332 . S
C291 C290 1.382 . S
C291 H301 0.948 . S
N292 Co270 2.282 . S
N292 C296 1.332 . S
N292 C297 1.332 . S
C293 C294 1.364 1_655 S
C293 C297 1.407 . S
C293 H316 0.950 . S
C294 C293 1.364 1_455 S
C294 C295 1.386 . S
C295 C294 1.386 . S
C295 C296 1.382 1_455 S
C295 H317 0.950 . S
C296 N292 1.332 . S
C296 C295 1.382 1_655 S
C296 H298 0.952 . S
C297 N292 1.332 . S
C297 C293 1.407 . S
C297 H299 0.948 . S
H298 C296 0.952 . S
H299 C297 0.948 . S
H300 C289 0.952 . S
H301 C291 0.948 . S
C302 C268 1.395 . S
C302 C272 1.391 . S
C303 C265 1.389 . S
C303 C285 1.392 . S
C304 C275 1.392 . S
C304 C277 1.389 . S
C305 C280 1.395 . S
C305 C282 1.391 . S
H306 C266 0.951 . S
H307 C267 0.950 . S
H308 C273 0.949 . S
H309 C274 0.950 . S
H310 C278 0.951 . S
H311 C279 0.950 . S
H312 C283 0.949 . S
H313 C284 0.950 . S
H314 C288 0.950 . S
H315 C290 0.950 . S
H316 C293 0.950 . S
H317 C295 0.950 . S
C318 C319 1.443 . S
C318 N322 1.376 . S
C318 C356 1.389 . S
C319 C318 1.443 . S
C319 C320 1.340 . S
C319 H359 0.951 . S
C320 C319 1.340 . S
C320 C321 1.439 . S
C320 H360 0.950 . S
C321 C320 1.439 . S
C321 N322 1.374 . S
C321 C355 1.395 . S
N322 C318 1.376 . S
N322 C321 1.374 . S
N322 Co323 2.008 . S
Co323 N322 2.008 . S
Co323 N324 1.995 1_554 S
Co323 N329 2.008 1_554 S
Co323 N334 1.995 . S
Co323 N339 2.282 . S
Co323 N345 2.282 . S
N324 Co323 1.995 1_556 S
N324 C325 1.376 . S
N324 C328 1.383 . S
C325 N324 1.376 . S
C325 C326 1.446 . S
C325 C355 1.391 1_556 S
C326 C325 1.446 . S
C326 C327 1.339 . S
C326 H361 0.949 . S
C327 C326 1.339 . S
C327 C328 1.439 . S
C327 H362 0.950 . S
C328 N324 1.383 . S
C328 C327 1.439 . S
C328 C357 1.392 . S
N329 Co323 2.008 1_556 S
N329 C330 1.376 . S
N329 C333 1.374 . S
C330 N329 1.376 . S
C330 C331 1.443 . S
C330 C357 1.389 . S
C331 C330 1.443 . S
C331 C332 1.340 . S
C331 H363 0.951 . S
C332 C331 1.340 . S
C332 C333 1.439 . S
C332 H364 0.950 . S
C333 N329 1.374 . S
C333 C332 1.439 . S
C333 C358 1.395 . S
N334 Co323 1.995 . S
N334 C335 1.376 . S
N334 C338 1.383 . S
C335 N334 1.376 . S
C335 C336 1.446 . S
C335 C358 1.391 1_554 S
C336 C335 1.446 . S
C336 C337 1.339 . S
C336 H365 0.949 . S
C337 C336 1.339 . S
C337 C338 1.439 . S
C337 H366 0.950 . S
C338 N334 1.383 . S
C338 C337 1.439 . S
C338 C356 1.392 . S
N339 Co323 2.282 . S
N339 C342 1.332 . S
N339 C344 1.332 . S
C340 C341 1.386 . S
C340 C343 1.388 . S
C341 C340 1.386 . S
C341 C342 1.382 . S
C341 H367 0.950 . S
C342 N339 1.332 . S
C342 C341 1.382 . S
C342 H353 0.952 . S
C343 C340 1.388 . S
C343 C344 1.382 . S
C343 H368 0.959 . S
C344 N339 1.332 . S
C344 C343 1.382 . S
C344 H354 0.948 . S
N345 Co323 2.282 . S
N345 C349 1.332 . S
N345 C350 1.332 . S
C346 C347 1.388 . S
C346 C350 1.382 . S
C346 H369 0.950 . S
C347 C346 1.388 . S
C347 C348 1.386 . S
C348 C347 1.386 . S
C348 C349 1.382 . S
C348 H370 0.950 . S
C349 N345 1.332 . S
C349 C348 1.382 . S
C349 H351 0.947 1_554 S
C350 N345 1.332 . S
C350 C346 1.382 . S
C350 H352 0.948 . S
H351 C349 0.947 1_556 S
H352 C350 0.948 . S
H353 C342 0.952 . S
H354 C344 0.948 . S
C355 C321 1.395 . S
C355 C325 1.391 1_554 S
C356 C318 1.389 . S
C356 C338 1.392 . S
C357 C328 1.392 . S
C357 C330 1.389 . S
C358 C333 1.395 . S
C358 C335 1.391 1_556 S
H359 C319 0.951 . S
H360 C320 0.950 . S
H361 C326 0.949 . S
H362 C327 0.950 . S
H363 C331 0.951 . S
H364 C332 0.950 . S
H365 C336 0.949 . S
H366 C337 0.950 . S
H367 C341 0.950 . S
H368 C343 0.959 . S
H369 C346 0.950 . S
H370 C348 0.950 . S
C371 C372 1.443 . S
C371 N375 1.376 . S
C371 C409 1.389 . S
C372 C371 1.443 . S
C372 C373 1.340 . S
C372 H412 0.951 . S
C373 C372 1.340 . S
C373 C374 1.439 . S
C373 H413 0.950 . S
C374 C373 1.439 . S
C374 N375 1.374 . S
C374 C408 1.395 . S
N375 C371 1.376 . S
N375 C374 1.374 . S
N375 Co376 2.008 . S
Co376 N375 2.008 . S
Co376 N377 1.995 1_554 S
Co376 N382 2.008 1_554 S
Co376 N387 1.995 . S
Co376 N392 2.282 . S
Co376 N398 2.282 . S
N377 Co376 1.995 1_556 S
N377 C378 1.376 . S
N377 C381 1.383 . S
C378 N377 1.376 . S
C378 C379 1.446 . S
C378 C408 1.391 1_556 S
C379 C378 1.446 . S
C379 C380 1.339 . S
C379 H414 0.949 . S
C380 C379 1.339 . S
C380 C381 1.439 . S
C380 H415 0.950 . S
C381 N377 1.383 . S
C381 C380 1.439 . S
C381 C410 1.392 . S
N382 Co376 2.008 1_556 S
N382 C383 1.376 . S
N382 C386 1.374 . S
C383 N382 1.376 . S
C383 C384 1.443 . S
C383 C410 1.389 . S
C384 C383 1.443 . S
C384 C385 1.340 . S
C384 H416 0.951 . S
C385 C384 1.340 . S
C385 C386 1.439 . S
C385 H417 0.950 . S
C386 N382 1.374 . S
C386 C385 1.439 . S
C386 C411 1.395 . S
N387 Co376 1.995 . S
N387 C388 1.376 . S
N387 C391 1.383 . S
C388 N387 1.376 . S
C388 C389 1.446 . S
C388 C411 1.391 1_554 S
C389 C388 1.446 . S
C389 C390 1.339 . S
C389 H418 0.949 . S
C390 C389 1.339 . S
C390 C391 1.439 . S
C390 H419 0.950 . S
C391 N387 1.383 . S
C391 C390 1.439 . S
C391 C409 1.392 . S
N392 Co376 2.282 . S
N392 C395 1.332 . S
N392 C397 1.332 . S
C393 C394 1.386 . S
C393 C396 1.388 . S
C394 C393 1.386 . S
C394 C395 1.382 . S
C394 H420 0.950 . S
C395 N392 1.332 . S
C395 C394 1.382 . S
C395 H406 0.952 . S
C396 C393 1.388 . S
C396 C397 1.382 . S
C396 H421 0.959 . S
C397 N392 1.332 . S
C397 C396 1.382 . S
C397 H407 0.948 . S
N398 Co376 2.282 . S
N398 C402 1.332 . S
N398 C403 1.332 . S
C399 C400 1.364 1_655 S
C399 C403 1.406 . S
C399 H422 0.950 . S
C400 C399 1.364 1_455 S
C400 C401 1.386 . S
C401 C400 1.386 . S
C401 C402 1.382 1_455 S
C401 H423 0.950 . S
C402 N398 1.332 . S
C402 C401 1.382 1_655 S
C402 H404 0.947 1_554 S
C403 N398 1.332 . S
C403 C399 1.406 . S
C403 H405 0.948 . S
H404 C402 0.947 1_556 S
H405 C403 0.948 . S
H406 C395 0.952 . S
H407 C397 0.948 . S
C408 C374 1.395 . S
C408 C378 1.391 1_554 S
C409 C371 1.389 . S
C409 C391 1.392 . S
C410 C381 1.392 . S
C410 C383 1.389 . S
C411 C386 1.395 . S
C411 C388 1.391 1_556 S
H412 C372 0.951 . S
H413 C373 0.950 . S
H414 C379 0.949 . S
H415 C380 0.950 . S
H416 C384 0.951 . S
H417 C385 0.950 . S
H418 C389 0.949 . S
H419 C390 0.950 . S
H420 C394 0.950 . S
H421 C396 0.959 . S
H422 C399 0.950 . S
H423 C401 0.950 . S
C424 C425 1.443 . S
C424 N428 1.376 . S
C424 C462 1.389 . S
C425 C424 1.443 . S
C425 C426 1.340 . S
C425 H465 0.951 . S
C426 C425 1.340 . S
C426 C427 1.439 . S
C426 H466 0.950 . S
C427 C426 1.439 . S
C427 N428 1.374 . S
C427 C461 1.395 . S
N428 C424 1.376 . S
N428 C427 1.374 . S
N428 Co429 2.008 . S
Co429 N428 2.008 . S
Co429 N430 1.995 . S
Co429 N435 2.008 . S
Co429 N440 1.995 . S
Co429 N445 2.282 . S
Co429 N451 2.282 . S
N430 Co429 1.995 . S
N430 C431 1.376 . S
N430 C434 1.383 . S
C431 N430 1.376 . S
C431 C432 1.446 . S
C431 C461 1.391 . S
C432 C431 1.446 . S
C432 C433 1.339 . S
C432 H467 0.949 . S
C433 C432 1.339 . S
C433 C434 1.439 . S
C433 H468 0.950 . S
C434 N430 1.383 . S
C434 C433 1.439 . S
C434 C463 1.392 . S
N435 Co429 2.008 . S
N435 C436 1.376 . S
N435 C439 1.374 . S
C436 N435 1.376 . S
C436 C437 1.443 . S
C436 C463 1.389 . S
C437 C436 1.443 . S
C437 C438 1.340 . S
C437 H469 0.951 . S
C438 C437 1.340 . S
C438 C439 1.439 . S
C438 H470 0.950 . S
C439 N435 1.374 . S
C439 C438 1.439 . S
C439 C464 1.395 . S
N440 Co429 1.995 . S
N440 C441 1.376 . S
N440 C444 1.383 . S
C441 N440 1.376 . S
C441 C442 1.446 . S
C441 C464 1.391 . S
C442 C441 1.446 . S
C442 C443 1.339 . S
C442 H471 0.949 . S
C443 C442 1.339 . S
C443 C444 1.439 . S
C443 H472 0.950 . S
C444 N440 1.383 . S
C444 C443 1.439 . S
C444 C462 1.392 . S
N445 Co429 2.282 . S
N445 C448 1.332 . S
N445 C450 1.332 . S
C446 C447 1.386 . S
C446 C449 1.388 . S
C447 C446 1.386 . S
C447 C448 1.382 . S
C447 H473 0.950 . S
C448 N445 1.332 . S
C448 C447 1.382 . S
C448 H459 0.952 . S
C449 C446 1.388 . S
C449 C450 1.382 . S
C449 H474 0.950 . S
C450 N445 1.332 . S
C450 C449 1.382 . S
C450 H460 0.948 . S
N451 Co429 2.282 . S
N451 C455 1.332 . S
N451 C456 1.332 . S
C452 C453 1.388 . S
C452 C456 1.382 . S
C452 H475 0.950 . S
C453 C452 1.388 . S
C453 C454 1.386 . S
C454 C453 1.386 . S
C454 C455 1.382 . S
C454 H476 0.950 . S
C455 N451 1.332 . S
C455 C454 1.382 . S
C455 H457 0.952 . S
C456 N451 1.332 . S
C456 C452 1.382 . S
C456 H458 0.948 . S
H457 C455 0.952 . S
H458 C456 0.948 . S
H459 C448 0.952 . S
H460 C450 0.948 . S
C461 C427 1.395 . S
C461 C431 1.391 . S
C462 C424 1.389 . S
C462 C444 1.392 . S
C463 C434 1.392 . S
C463 C436 1.389 . S
C464 C439 1.395 . S
C464 C441 1.391 . S
H465 C425 0.951 . S
H466 C426 0.950 . S
H467 C432 0.949 . S
H468 C433 0.950 . S
H469 C437 0.951 . S
H470 C438 0.950 . S
H471 C442 0.949 . S
H472 C443 0.950 . S
H473 C447 0.950 . S
H474 C449 0.950 . S
H475 C452 0.950 . S
H476 C454 0.950 . S
C477 C478 1.443 . S
C477 N481 1.376 . S
C477 C515 1.389 . S
C478 C477 1.443 . S
C478 C479 1.340 . S
C478 H518 0.951 . S
C479 C478 1.340 . S
C479 C480 1.439 . S
C479 H519 0.950 . S
C480 C479 1.439 . S
C480 N481 1.374 . S
C480 C514 1.395 . S
N481 C477 1.376 . S
N481 C480 1.374 . S
N481 Co482 2.008 . S
Co482 N481 2.008 . S
Co482 N483 1.995 . S
Co482 N488 2.008 . S
Co482 N493 1.995 . S
Co482 N498 2.282 . S
Co482 N504 2.282 . S
N483 Co482 1.995 . S
N483 C484 1.376 . S
N483 C487 1.383 . S
C484 N483 1.376 . S
C484 C485 1.446 . S
C484 C514 1.391 . S
C485 C484 1.446 . S
C485 C486 1.339 . S
C485 H520 0.949 . S
C486 C485 1.339 . S
C486 C487 1.439 . S
C486 H521 0.950 . S
C487 N483 1.383 . S
C487 C486 1.439 . S
C487 C516 1.392 . S
N488 Co482 2.008 . S
N488 C489 1.376 . S
N488 C492 1.374 . S
C489 N488 1.376 . S
C489 C490 1.443 . S
C489 C516 1.389 . S
C490 C489 1.443 . S
C490 C491 1.340 . S
C490 H522 0.951 . S
C491 C490 1.340 . S
C491 C492 1.439 . S
C491 H523 0.950 . S
C492 N488 1.374 . S
C492 C491 1.439 . S
C492 C517 1.395 . S
N493 Co482 1.995 . S
N493 C494 1.376 . S
N493 C497 1.383 . S
C494 N493 1.376 . S
C494 C495 1.446 . S
C494 C517 1.391 . S
C495 C494 1.446 . S
C495 C496 1.339 . S
C495 H524 0.949 . S
C496 C495 1.339 . S
C496 C497 1.439 . S
C496 H525 0.950 . S
C497 N493 1.383 . S
C497 C496 1.439 . S
C497 C515 1.392 . S
N498 Co482 2.282 . S
N498 C501 1.332 . S
N498 C503 1.332 . S
C499 C500 1.386 . S
C499 C502 1.388 . S
C500 C499 1.386 . S
C500 C501 1.382 . S
C500 H526 0.950 . S
C501 N498 1.332 . S
C501 C500 1.382 . S
C501 H512 0.952 . S
C502 C499 1.388 . S
C502 C503 1.382 . S
C502 H527 0.950 . S
C503 N498 1.332 . S
C503 C502 1.382 . S
C503 H513 0.948 . S
N504 Co482 2.282 . S
N504 C508 1.332 . S
N504 C509 1.332 . S
C505 C506 1.388 . S
C505 C509 1.382 1_655 S
C505 H528 0.950 . S
C506 C505 1.388 . S
C506 C507 1.416 . S
C507 C506 1.416 . S
C507 C508 1.351 1_655 S
C507 H529 0.951 . S
C508 N504 1.332 . S
C508 C507 1.351 1_455 S
C508 H510 0.952 . S
C509 N504 1.332 . S
C509 C505 1.382 1_455 S
C509 H511 0.948 . S
H510 C508 0.952 . S
H511 C509 0.948 . S
H512 C501 0.952 . S
H513 C503 0.948 . S
C514 C480 1.395 . S
C514 C484 1.391 . S
C515 C477 1.389 . S
C515 C497 1.392 . S
C516 C487 1.392 . S
C516 C489 1.389 . S
C517 C492 1.395 . S
C517 C494 1.391 . S
H518 C478 0.951 . S
H519 C479 0.950 . S
H520 C485 0.949 . S
H521 C486 0.950 . S
H522 C490 0.951 . S
H523 C491 0.950 . S
H524 C495 0.949 . S
H525 C496 0.950 . S
H526 C500 0.950 . S
H527 C502 0.950 . S
H528 C505 0.950 . S
H529 C507 0.951 . S
C530 C531 1.443 . S
C530 N534 1.376 . S
C530 C568 1.389 . S
C531 C530 1.443 . S
C531 C532 1.340 . S
C531 H571 0.951 . S
C532 C531 1.340 . S
C532 C533 1.439 . S
C532 H572 0.950 . S
C533 C532 1.439 . S
C533 N534 1.374 . S
C533 C567 1.395 . S
N534 C530 1.376 . S
N534 C533 1.374 . S
N534 Co535 2.008 . S
Co535 N534 2.008 . S
Co535 N536 1.995 . S
Co535 N541 2.008 . S
Co535 N546 1.995 . S
Co535 N551 2.282 . S
Co535 N557 2.282 . S
N536 Co535 1.995 . S
N536 C537 1.376 . S
N536 C540 1.383 . S
C537 N536 1.376 . S
C537 C538 1.446 . S
C537 C567 1.391 . S
C538 C537 1.446 . S
C538 C539 1.339 . S
C538 H573 0.949 . S
C539 C538 1.339 . S
C539 C540 1.439 . S
C539 H574 0.950 . S
C540 N536 1.383 . S
C540 C539 1.439 . S
C540 C569 1.392 . S
N541 Co535 2.008 . S
N541 C542 1.376 . S
N541 C545 1.374 . S
C542 N541 1.376 . S
C542 C543 1.443 . S
C542 C569 1.389 . S
C543 C542 1.443 . S
C543 C544 1.340 . S
C543 H575 0.951 . S
C544 C543 1.340 . S
C544 C545 1.439 . S
C544 H576 0.950 . S
C545 N541 1.374 . S
C545 C544 1.439 . S
C545 C570 1.395 . S
N546 Co535 1.995 . S
N546 C547 1.376 . S
N546 C550 1.383 . S
C547 N546 1.376 . S
C547 C548 1.446 . S
C547 C570 1.391 . S
C548 C547 1.446 . S
C548 C549 1.339 . S
C548 H577 0.949 . S
C549 C548 1.339 . S
C549 C550 1.439 . S
C549 H578 0.950 . S
C550 N546 1.383 . S
C550 C549 1.439 . S
C550 C568 1.392 . S
N551 Co535 2.282 . S
N551 C554 1.332 . S
N551 C556 1.332 . S
C552 C553 1.386 . S
C552 C555 1.388 . S
C553 C552 1.386 . S
C553 C554 1.382 . S
C553 H579 0.950 . S
C554 N551 1.332 . S
C554 C553 1.382 . S
C554 H565 0.952 . S
C555 C552 1.388 . S
C555 C556 1.382 . S
C555 H580 0.950 . S
C556 N551 1.332 . S
C556 C555 1.382 . S
C556 H566 0.948 . S
N557 Co535 2.282 . S
N557 C561 1.332 . S
N557 C562 1.332 . S
C558 C559 1.388 . S
C558 C562 1.382 . S
C558 H581 0.950 . S
C559 C558 1.388 . S
C559 C560 1.386 . S
C560 C559 1.386 . S
C560 C561 1.382 . S
C560 H582 0.950 . S
C561 N557 1.332 . S
C561 C560 1.382 . S
C561 H563 0.952 . S
C562 N557 1.332 . S
C562 C558 1.382 . S
C562 H564 0.948 . S
H563 C561 0.952 . S
H564 C562 0.948 . S
H565 C554 0.952 . S
H566 C556 0.948 . S
C567 C533 1.395 . S
C567 C537 1.391 . S
C568 C530 1.389 . S
C568 C550 1.392 . S
C569 C540 1.392 . S
C569 C542 1.389 . S
C570 C545 1.395 . S
C570 C547 1.391 . S
H571 C531 0.951 . S
H572 C532 0.950 . S
H573 C538 0.949 . S
H574 C539 0.950 . S
H575 C543 0.951 . S
H576 C544 0.950 . S
H577 C548 0.949 . S
H578 C549 0.950 . S
H579 C553 0.950 . S
H580 C555 0.950 . S
H581 C558 0.950 . S
H582 C560 0.950 . S
C583 C584 1.443 . S
C583 N587 1.376 . S
C583 C621 1.389 . S
C584 C583 1.443 . S
C584 C585 1.340 . S
C584 H624 0.951 . S
C585 C584 1.340 . S
C585 C586 1.439 . S
C585 H625 0.950 . S
C586 C585 1.439 . S
C586 N587 1.374 . S
C586 C620 1.395 . S
N587 C583 1.376 . S
N587 C586 1.374 . S
N587 Co588 2.008 . S
Co588 N587 2.008 . S
Co588 N589 1.995 . S
Co588 N594 2.008 . S
Co588 N599 1.995 . S
Co588 N604 2.282 . S
Co588 N610 2.282 . S
N589 Co588 1.995 . S
N589 C590 1.376 . S
N589 C593 1.383 . S
C590 N589 1.376 . S
C590 C591 1.446 . S
C590 C620 1.391 . S
C591 C590 1.446 . S
C591 C592 1.339 . S
C591 H626 0.949 . S
C592 C591 1.339 . S
C592 C593 1.439 . S
C592 H627 0.950 . S
C593 N589 1.383 . S
C593 C592 1.439 . S
C593 C622 1.392 . S
N594 Co588 2.008 . S
N594 C595 1.376 . S
N594 C598 1.374 . S
C595 N594 1.376 . S
C595 C596 1.443 . S
C595 C622 1.389 . S
C596 C595 1.443 . S
C596 C597 1.340 . S
C596 H628 0.951 . S
C597 C596 1.340 . S
C597 C598 1.439 . S
C597 H629 0.950 . S
C598 N594 1.374 . S
C598 C597 1.439 . S
C598 C623 1.395 . S
N599 Co588 1.995 . S
N599 C600 1.376 . S
N599 C603 1.383 . S
C600 N599 1.376 . S
C600 C601 1.446 . S
C600 C623 1.391 . S
C601 C600 1.446 . S
C601 C602 1.339 . S
C601 H630 0.949 . S
C602 C601 1.339 . S
C602 C603 1.439 . S
C602 H631 0.950 . S
C603 N599 1.383 . S
C603 C602 1.439 . S
C603 C621 1.392 . S
N604 Co588 2.282 . S
N604 C607 1.332 . S
N604 C609 1.332 . S
C605 C606 1.386 . S
C605 C608 1.388 . S
C606 C605 1.386 . S
C606 C607 1.382 . S
C606 H632 0.950 . S
C607 N604 1.332 . S
C607 C606 1.382 . S
C607 H618 0.952 . S
C608 C605 1.388 . S
C608 C609 1.382 . S
C608 H633 0.950 . S
C609 N604 1.332 . S
C609 C608 1.382 . S
C609 H619 0.948 . S
N610 Co588 2.282 . S
N610 C614 1.332 . S
N610 C615 1.332 . S
C611 C612 1.388 . S
C611 C615 1.382 1_655 S
C611 H634 0.950 . S
C612 C611 1.388 . S
C612 C613 1.416 . S
C613 C612 1.416 . S
C613 C614 1.351 1_655 S
C613 H635 0.951 . S
C614 N610 1.332 . S
C614 C613 1.351 1_455 S
C614 H616 0.952 . S
C615 N610 1.332 . S
C615 C611 1.382 1_455 S
C615 H617 0.948 . S
H616 C614 0.952 . S
H617 C615 0.948 . S
H618 C607 0.952 . S
H619 C609 0.948 . S
C620 C586 1.395 . S
C620 C590 1.391 . S
C621 C583 1.389 . S
C621 C603 1.392 . S
C622 C593 1.392 . S
C622 C595 1.389 . S
C623 C598 1.395 . S
C623 C600 1.391 . S
H624 C584 0.951 . S
H625 C585 0.950 . S
H626 C591 0.949 . S
H627 C592 0.950 . S
H628 C596 0.951 . S
H629 C597 0.950 . S
H630 C601 0.949 . S
H631 C602 0.950 . S
H632 C606 0.950 . S
H633 C608 0.950 . S
H634 C611 0.950 . S
H635 C613 0.951 . S
C636 C637 1.443 . S
C636 N640 1.376 . S
C636 C674 1.389 . S
C637 C636 1.443 . S
C637 C638 1.340 . S
C637 H677 0.951 . S
C638 C637 1.340 . S
C638 C639 1.439 . S
C638 H678 0.950 . S
C639 C638 1.439 . S
C639 N640 1.374 . S
C639 C673 1.395 . S
N640 C636 1.376 . S
N640 C639 1.374 . S
N640 Co641 2.008 . S
Co641 N640 2.008 . S
Co641 N642 1.995 . S
Co641 N647 2.008 . S
Co641 N652 1.995 . S
Co641 N657 2.282 . S
Co641 N663 2.282 . S
N642 Co641 1.995 . S
N642 C643 1.376 . S
N642 C646 1.383 . S
C643 N642 1.376 . S
C643 C644 1.446 . S
C643 C673 1.391 . S
C644 C643 1.446 . S
C644 C645 1.339 . S
C644 H679 0.949 . S
C645 C644 1.339 . S
C645 C646 1.439 . S
C645 H680 0.950 . S
C646 N642 1.383 . S
C646 C645 1.439 . S
C646 C675 1.392 . S
N647 Co641 2.008 . S
N647 C648 1.376 . S
N647 C651 1.374 . S
C648 N647 1.376 . S
C648 C649 1.443 . S
C648 C675 1.389 . S
C649 C648 1.443 . S
C649 C650 1.340 . S
C649 H681 0.951 . S
C650 C649 1.340 . S
C650 C651 1.439 . S
C650 H682 0.950 . S
C651 N647 1.374 . S
C651 C650 1.439 . S
C651 C676 1.395 . S
N652 Co641 1.995 . S
N652 C653 1.376 . S
N652 C656 1.383 . S
C653 N652 1.376 . S
C653 C654 1.446 . S
C653 C676 1.391 . S
C654 C653 1.446 . S
C654 C655 1.339 . S
C654 H683 0.949 . S
C655 C654 1.339 . S
C655 C656 1.439 . S
C655 H684 0.950 . S
C656 N652 1.383 . S
C656 C655 1.439 . S
C656 C674 1.392 . S
N657 Co641 2.282 . S
N657 C660 1.332 . S
N657 C662 1.332 . S
C658 C659 1.386 . S
C658 C661 1.388 . S
C659 C658 1.386 . S
C659 C660 1.382 . S
C659 H685 0.950 . S
C660 N657 1.332 . S
C660 C659 1.382 . S
C660 H671 0.952 . S
C661 C658 1.388 . S
C661 C662 1.382 . S
C661 H686 0.950 . S
C662 N657 1.332 . S
C662 C661 1.382 . S
C662 H672 0.948 . S
N663 Co641 2.282 . S
N663 C667 1.332 . S
N663 C668 1.332 . S
C664 C665 1.388 . S
C664 C668 1.382 . S
C664 H687 0.950 . S
C665 C664 1.388 . S
C665 C666 1.386 . S
C666 C665 1.386 . S
C666 C667 1.382 . S
C666 H688 0.950 . S
C667 N663 1.332 . S
C667 C666 1.382 . S
C667 H669 0.952 . S
C668 N663 1.332 . S
C668 C664 1.382 . S
C668 H670 0.948 . S
H669 C667 0.952 . S
H670 C668 0.948 . S
H671 C660 0.952 . S
H672 C662 0.948 . S
C673 C639 1.395 . S
C673 C643 1.391 . S
C674 C636 1.389 . S
C674 C656 1.392 . S
C675 C646 1.392 . S
C675 C648 1.389 . S
C676 C651 1.395 . S
C676 C653 1.391 . S
H677 C637 0.951 . S
H678 C638 0.950 . S
H679 C644 0.949 . S
H680 C645 0.950 . S
H681 C649 0.951 . S
H682 C650 0.950 . S
H683 C654 0.949 . S
H684 C655 0.950 . S
H685 C659 0.950 . S
H686 C661 0.950 . S
H687 C664 0.950 . S
H688 C666 0.950 . S
C689 C690 1.443 . S
C689 N693 1.376 . S
C689 C727 1.389 . S
C690 C689 1.443 . S
C690 C691 1.340 . S
C690 H730 0.951 . S
C691 C690 1.340 . S
C691 C692 1.439 . S
C691 H731 0.950 . S
C692 C691 1.439 . S
C692 N693 1.374 . S
C692 C726 1.395 . S
N693 C689 1.376 . S
N693 C692 1.374 . S
N693 Co694 2.008 . S
Co694 N693 2.008 . S
Co694 N695 1.995 . S
Co694 N700 2.008 . S
Co694 N705 1.995 . S
Co694 N710 2.282 . S
Co694 N716 2.282 . S
N695 Co694 1.995 . S
N695 C696 1.376 . S
N695 C699 1.383 . S
C696 N695 1.376 . S
C696 C697 1.446 . S
C696 C726 1.391 . S
C697 C696 1.446 . S
C697 C698 1.339 . S
C697 H732 0.949 . S
C698 C697 1.339 . S
C698 C699 1.439 . S
C698 H733 0.950 . S
C699 N695 1.383 . S
C699 C698 1.439 . S
C699 C728 1.392 . S
N700 Co694 2.008 . S
N700 C701 1.376 . S
N700 C704 1.374 . S
C701 N700 1.376 . S
C701 C702 1.443 . S
C701 C728 1.389 . S
C702 C701 1.443 . S
C702 C703 1.340 . S
C702 H734 0.951 . S
C703 C702 1.340 . S
C703 C704 1.439 . S
C703 H735 0.950 . S
C704 N700 1.374 . S
C704 C703 1.439 . S
C704 C729 1.395 . S
N705 Co694 1.995 . S
N705 C706 1.376 . S
N705 C709 1.383 . S
C706 N705 1.376 . S
C706 C707 1.446 . S
C706 C729 1.391 . S
C707 C706 1.446 . S
C707 C708 1.339 . S
C707 H736 0.949 . S
C708 C707 1.339 . S
C708 C709 1.439 . S
C708 H737 0.950 . S
C709 N705 1.383 . S
C709 C708 1.439 . S
C709 C727 1.392 . S
N710 Co694 2.282 . S
N710 C713 1.332 . S
N710 C715 1.332 . S
C711 C712 1.386 . S
C711 C714 1.388 . S
C712 C711 1.386 . S
C712 C713 1.382 . S
C712 H738 0.950 . S
C713 N710 1.332 . S
C713 C712 1.382 . S
C713 H724 0.952 . S
C714 C711 1.388 . S
C714 C715 1.382 . S
C714 H739 0.950 . S
C715 N710 1.332 . S
C715 C714 1.382 . S
C715 H725 0.948 . S
N716 Co694 2.282 . S
N716 C720 1.332 . S
N716 C721 1.332 . S
C717 C718 1.364 1_655 S
C717 C721 1.406 . S
C717 H740 0.950 . S
C718 C717 1.364 1_455 S
C718 C719 1.386 . S
C719 C718 1.386 . S
C719 C720 1.382 1_455 S
C719 H741 0.950 . S
C720 N716 1.332 . S
C720 C719 1.382 1_655 S
C720 H722 0.952 . S
C721 N716 1.332 . S
C721 C717 1.406 . S
C721 H723 0.948 . S
H722 C720 0.952 . S
H723 C721 0.948 . S
H724 C713 0.952 . S
H725 C715 0.948 . S
C726 C692 1.395 . S
C726 C696 1.391 . S
C727 C689 1.389 . S
C727 C709 1.392 . S
C728 C699 1.392 . S
C728 C701 1.389 . S
C729 C704 1.395 . S
C729 C706 1.391 . S
H730 C690 0.951 . S
H731 C691 0.950 . S
H732 C697 0.949 . S
H733 C698 0.950 . S
H734 C702 0.951 . S
H735 C703 0.950 . S
H736 C707 0.949 . S
H737 C708 0.950 . S
H738 C712 0.950 . S
H739 C714 0.950 . S
H740 C717 0.950 . S
H741 C719 0.950 . S
C742 C743 1.443 . S
C742 N746 1.376 . S
C742 C780 1.389 . S
C743 C742 1.443 . S
C743 C744 1.340 . S
C743 H783 0.951 . S
C744 C743 1.340 . S
C744 C745 1.439 . S
C744 H784 0.950 . S
C745 C744 1.439 . S
C745 N746 1.374 . S
C745 C779 1.395 . S
N746 C742 1.376 . S
N746 C745 1.374 . S
N746 Co747 2.008 . S
Co747 N746 2.008 . S
Co747 N748 1.995 . S
Co747 N753 2.008 . S
Co747 N758 1.995 . S
Co747 N763 2.282 . S
Co747 N769 2.282 . S
N748 Co747 1.995 . S
N748 C749 1.376 . S
N748 C752 1.383 . S
C749 N748 1.376 . S
C749 C750 1.446 . S
C749 C779 1.391 . S
C750 C749 1.446 . S
C750 C751 1.339 . S
C750 H785 0.949 . S
C751 C750 1.339 . S
C751 C752 1.439 . S
C751 H786 0.950 . S
C752 N748 1.383 . S
C752 C751 1.439 . S
C752 C781 1.392 . S
N753 Co747 2.008 . S
N753 C754 1.376 . S
N753 C757 1.374 . S
C754 N753 1.376 . S
C754 C755 1.443 . S
C754 C781 1.389 . S
C755 C754 1.443 . S
C755 C756 1.340 . S
C755 H787 0.951 . S
C756 C755 1.340 . S
C756 C757 1.439 . S
C756 H788 0.950 . S
C757 N753 1.374 . S
C757 C756 1.439 . S
C757 C782 1.395 . S
N758 Co747 1.995 . S
N758 C759 1.376 . S
N758 C762 1.383 . S
C759 N758 1.376 . S
C759 C760 1.446 . S
C759 C782 1.391 . S
C760 C759 1.446 . S
C760 C761 1.339 . S
C760 H789 0.949 . S
C761 C760 1.339 . S
C761 C762 1.439 . S
C761 H790 0.950 . S
C762 N758 1.383 . S
C762 C761 1.439 . S
C762 C780 1.392 . S
N763 Co747 2.282 . S
N763 C766 1.332 . S
N763 C768 1.332 . S
C764 C765 1.386 . S
C764 C767 1.388 . S
C765 C764 1.386 . S
C765 C766 1.382 . S
C765 H791 0.950 . S
C766 N763 1.332 . S
C766 C765 1.382 . S
C766 H777 0.952 . S
C767 C764 1.388 . S
C767 C768 1.382 . S
C767 H792 0.950 . S
C768 N763 1.332 . S
C768 C767 1.382 . S
C768 H778 0.948 . S
N769 Co747 2.282 . S
N769 C773 1.332 . S
N769 C774 1.332 . S
C770 C771 1.388 . S
C770 C774 1.382 . S
C770 H793 0.950 . S
C771 C770 1.388 . S
C771 C772 1.386 . S
C772 C771 1.386 . S
C772 C773 1.382 . S
C772 H794 0.950 . S
C773 N769 1.332 . S
C773 C772 1.382 . S
C773 H775 0.952 . S
C774 N769 1.332 . S
C774 C770 1.382 . S
C774 H776 0.948 . S
H775 C773 0.952 . S
H776 C774 0.948 . S
H777 C766 0.952 . S
H778 C768 0.948 . S
C779 C745 1.395 . S
C779 C749 1.391 . S
C780 C742 1.389 . S
C780 C762 1.392 . S
C781 C752 1.392 . S
C781 C754 1.389 . S
C782 C757 1.395 . S
C782 C759 1.391 . S
H783 C743 0.951 . S
H784 C744 0.950 . S
H785 C750 0.949 . S
H786 C751 0.950 . S
H787 C755 0.951 . S
H788 C756 0.950 . S
H789 C760 0.949 . S
H790 C761 0.950 . S
H791 C765 0.950 . S
H792 C767 0.950 . S
H793 C770 0.950 . S
H794 C772 0.950 . S
C795 C796 1.443 . S
C795 N799 1.376 . S
C795 C833 1.389 . S
C796 C795 1.443 . S
C796 C797 1.340 . S
C796 H836 0.951 . S
C797 C796 1.340 . S
C797 C798 1.439 . S
C797 H837 0.950 . S
C798 C797 1.439 . S
C798 N799 1.374 . S
C798 C832 1.395 . S
N799 C795 1.376 . S
N799 C798 1.374 . S
N799 Co800 2.008 . S
Co800 N799 2.008 . S
Co800 N801 1.995 . S
Co800 N806 2.008 . S
Co800 N811 1.995 . S
Co800 N816 2.282 . S
Co800 N822 2.282 . S
N801 Co800 1.995 . S
N801 C802 1.376 . S
N801 C805 1.383 . S
C802 N801 1.376 . S
C802 C803 1.446 . S
C802 C832 1.391 . S
C803 C802 1.446 . S
C803 C804 1.339 . S
C803 H838 0.949 . S
C804 C803 1.339 . S
C804 C805 1.439 . S
C804 H839 0.950 . S
C805 N801 1.383 . S
C805 C804 1.439 . S
C805 C834 1.392 . S
N806 Co800 2.008 . S
N806 C807 1.376 . S
N806 C810 1.374 . S
C807 N806 1.376 . S
C807 C808 1.443 . S
C807 C834 1.389 . S
C808 C807 1.443 . S
C808 C809 1.340 . S
C808 H840 0.951 . S
C809 C808 1.340 . S
C809 C810 1.439 . S
C809 H841 0.950 . S
C810 N806 1.374 . S
C810 C809 1.439 . S
C810 C835 1.395 . S
N811 Co800 1.995 . S
N811 C812 1.376 . S
N811 C815 1.383 . S
C812 N811 1.376 . S
C812 C813 1.446 . S
C812 C835 1.391 . S
C813 C812 1.446 . S
C813 C814 1.339 . S
C813 H842 0.949 . S
C814 C813 1.339 . S
C814 C815 1.439 . S
C814 H843 0.950 . S
C815 N811 1.383 . S
C815 C814 1.439 . S
C815 C833 1.392 . S
N816 Co800 2.282 . S
N816 C819 1.332 . S
N816 C821 1.332 . S
C817 C818 1.386 . S
C817 C820 1.388 . S
C818 C817 1.386 . S
C818 C819 1.382 . S
C818 H844 0.950 . S
C819 N816 1.332 . S
C819 C818 1.382 . S
C819 H830 0.952 . S
C820 C817 1.388 . S
C820 C821 1.382 . S
C820 H845 0.950 . S
C821 N816 1.332 . S
C821 C820 1.382 . S
C821 H831 0.948 . S
N822 Co800 2.282 . S
N822 C826 1.332 . S
N822 C827 1.332 . S
C823 C824 1.364 1_655 S
C823 C827 1.407 . S
C823 H846 0.950 . S
C824 C823 1.364 1_455 S
C824 C825 1.386 . S
C825 C824 1.386 . S
C825 C826 1.382 1_455 S
C825 H847 0.950 . S
C826 N822 1.332 . S
C826 C825 1.382 1_655 S
C826 H828 0.952 . S
C827 N822 1.332 . S
C827 C823 1.407 . S
C827 H829 0.948 . S
H828 C826 0.952 . S
H829 C827 0.948 . S
H830 C819 0.952 . S
H831 C821 0.948 . S
C832 C798 1.395 . S
C832 C802 1.391 . S
C833 C795 1.389 . S
C833 C815 1.392 . S
C834 C805 1.392 . S
C834 C807 1.389 . S
C835 C810 1.395 . S
C835 C812 1.391 . S
H836 C796 0.951 . S
H837 C797 0.950 . S
H838 C803 0.949 . S
H839 C804 0.950 . S
H840 C808 0.951 . S
H841 C809 0.950 . S
H842 C813 0.949 . S
H843 C814 0.950 . S
H844 C818 0.950 . S
H845 C820 0.950 . S
H846 C823 0.950 . S
H847 C825 0.950 . S
C848 C849 1.443 . S
C848 N852 1.376 . S
C848 C886 1.389 . S
C849 C848 1.443 . S
C849 C850 1.340 . S
C849 H889 0.951 . S
C850 C849 1.340 . S
C850 C851 1.439 . S
C850 H890 0.950 . S
C851 C850 1.439 . S
C851 N852 1.374 . S
C851 C885 1.395 . S
N852 C848 1.376 . S
N852 C851 1.374 . S
N852 Co853 2.008 . S
Co853 N852 2.008 . S
Co853 N854 1.995 . S
Co853 N859 2.008 . S
Co853 N864 1.995 . S
Co853 N869 2.282 . S
Co853 N875 2.282 . S
N854 Co853 1.995 . S
N854 C855 1.376 . S
N854 C858 1.383 . S
C855 N854 1.376 . S
C855 C856 1.446 . S
C855 C885 1.391 . S
C856 C855 1.446 . S
C856 C857 1.339 . S
C856 H891 0.949 . S
C857 C856 1.339 . S
C857 C858 1.439 . S
C857 H892 0.950 . S
C858 N854 1.383 . S
C858 C857 1.439 . S
C858 C887 1.392 . S
N859 Co853 2.008 . S
N859 C860 1.376 . S
N859 C863 1.374 . S
C860 N859 1.376 . S
C860 C861 1.443 . S
C860 C887 1.389 . S
C861 C860 1.443 . S
C861 C862 1.340 . S
C861 H893 0.951 . S
C862 C861 1.340 . S
C862 C863 1.439 . S
C862 H894 0.950 . S
C863 N859 1.374 . S
C863 C862 1.439 . S
C863 C888 1.395 . S
N864 Co853 1.995 . S
N864 C865 1.376 . S
N864 C868 1.383 . S
C865 N864 1.376 . S
C865 C866 1.446 . S
C865 C888 1.391 . S
C866 C865 1.446 . S
C866 C867 1.339 . S
C866 H895 0.949 . S
C867 C866 1.339 . S
C867 C868 1.439 . S
C867 H896 0.950 . S
C868 N864 1.383 . S
C868 C867 1.439 . S
C868 C886 1.392 . S
N869 Co853 2.282 . S
N869 C872 1.332 . S
N869 C874 1.332 . S
C870 C871 1.386 . S
C870 C873 1.388 . S
C871 C870 1.386 . S
C871 C872 1.382 . S
C871 H897 0.950 . S
C872 N869 1.332 . S
C872 C871 1.382 . S
C872 H883 0.952 . S
C873 C870 1.388 . S
C873 C874 1.382 . S
C873 H898 0.950 . S
C874 N869 1.332 . S
C874 C873 1.382 . S
C874 H884 0.948 . S
N875 Co853 2.282 . S
N875 C879 1.332 . S
N875 C880 1.332 . S
C876 C877 1.388 . S
C876 C880 1.382 . S
C876 H899 0.950 . S
C877 C876 1.388 . S
C877 C878 1.386 . S
C878 C877 1.386 . S
C878 C879 1.382 . S
C878 H900 0.950 . S
C879 N875 1.332 . S
C879 C878 1.382 . S
C879 H881 0.952 . S
C880 N875 1.332 . S
C880 C876 1.382 . S
C880 H882 0.948 . S
H881 C879 0.952 . S
H882 C880 0.948 . S
H883 C872 0.952 . S
H884 C874 0.948 . S
C885 C851 1.395 . S
C885 C855 1.391 . S
C886 C848 1.389 . S
C886 C868 1.392 . S
C887 C858 1.392 . S
C887 C860 1.389 . S
C888 C863 1.395 . S
C888 C865 1.391 . S
H889 C849 0.951 . S
H890 C850 0.950 . S
H891 C856 0.949 . S
H892 C857 0.950 . S
H893 C861 0.951 . S
H894 C862 0.950 . S
H895 C866 0.949 . S
H896 C867 0.950 . S
H897 C871 0.950 . S
H898 C873 0.950 . S
H899 C876 0.950 . S
H900 C878 0.950 . S
C901 C902 1.443 . S
C901 N905 1.376 . S
C901 C939 1.389 . S
C902 C901 1.443 . S
C902 C903 1.340 . S
C902 H942 0.951 . S
C903 C902 1.340 . S
C903 C904 1.439 . S
C903 H943 0.950 . S
C904 C903 1.439 . S
C904 N905 1.374 . S
C904 C938 1.395 . S
N905 C901 1.376 . S
N905 C904 1.374 . S
N905 Co906 2.008 . S
Co906 N905 2.008 . S
Co906 N907 1.995 . S
Co906 N912 2.008 . S
Co906 N917 1.995 . S
Co906 N922 2.282 . S
Co906 N928 2.282 . S
N907 Co906 1.995 . S
N907 C908 1.376 . S
N907 C911 1.383 . S
C908 N907 1.376 . S
C908 C909 1.446 . S
C908 C938 1.391 . S
C909 C908 1.446 . S
C909 C910 1.339 . S
C909 H944 0.949 . S
C910 C909 1.339 . S
C910 C911 1.439 . S
C910 H945 0.950 . S
C911 N907 1.383 . S
C911 C910 1.439 . S
C911 C940 1.392 . S
N912 Co906 2.008 . S
N912 C913 1.376 . S
N912 C916 1.374 . S
C913 N912 1.376 . S
C913 C914 1.443 . S
C913 C940 1.389 . S
C914 C913 1.443 . S
C914 C915 1.340 . S
C914 H946 0.951 . S
C915 C914 1.340 . S
C915 C916 1.439 . S
C915 H947 0.950 . S
C916 N912 1.374 . S
C916 C915 1.439 . S
C916 C941 1.395 . S
N917 Co906 1.995 . S
N917 C918 1.376 . S
N917 C921 1.383 . S
C918 N917 1.376 . S
C918 C919 1.446 . S
C918 C941 1.391 . S
C919 C918 1.446 . S
C919 C920 1.339 . S
C919 H948 0.949 . S
C920 C919 1.339 . S
C920 C921 1.439 . S
C920 H949 0.950 . S
C921 N917 1.383 . S
C921 C920 1.439 . S
C921 C939 1.392 . S
N922 Co906 2.282 . S
N922 C925 1.332 . S
N922 C927 1.332 . S
C923 C924 1.386 . S
C923 C926 1.388 . S
C924 C923 1.386 . S
C924 C925 1.382 . S
C924 H950 0.950 . S
C925 N922 1.332 . S
C925 C924 1.382 . S
C925 H936 0.952 . S
C926 C923 1.388 . S
C926 C927 1.382 . S
C926 H951 0.950 . S
C927 N922 1.332 . S
C927 C926 1.382 . S
C927 H937 0.948 . S
N928 Co906 2.282 . S
N928 C932 1.332 . S
N928 C933 1.332 . S
C929 C930 1.388 . S
C929 C933 1.382 . S
C929 H952 0.950 . S
C930 C929 1.388 . S
C930 C931 1.386 . S
C931 C930 1.386 . S
C931 C932 1.382 . S
C931 H953 0.950 . S
C932 N928 1.332 . S
C932 C931 1.382 . S
C932 H934 0.952 . S
C933 N928 1.332 . S
C933 C929 1.382 . S
C933 H935 0.948 . S
H934 C932 0.952 . S
H935 C933 0.948 . S
H936 C925 0.952 . S
H937 C927 0.948 . S
C938 C904 1.395 . S
C938 C908 1.391 . S
C939 C901 1.389 . S
C939 C921 1.392 . S
C940 C911 1.392 . S
C940 C913 1.389 . S
C941 C916 1.395 . S
C941 C918 1.391 . S
H942 C902 0.951 . S
H943 C903 0.950 . S
H944 C909 0.949 . S
H945 C910 0.950 . S
H946 C914 0.951 . S
H947 C915 0.950 . S
H948 C919 0.949 . S
H949 C920 0.950 . S
H950 C924 0.950 . S
H951 C926 0.950 . S
H952 C929 0.950 . S
H953 C931 0.950 . S
C954 C955 1.443 . S
C954 N958 1.376 . S
C954 C992 1.389 . S
C955 C954 1.443 . S
C955 C956 1.340 . S
C955 H995 0.951 . S
C956 C955 1.340 . S
C956 C957 1.439 . S
C956 H996 0.950 . S
C957 C956 1.439 . S
C957 N958 1.374 . S
C957 C991 1.395 . S
N958 C954 1.376 . S
N958 C957 1.374 . S
N958 Co959 2.008 . S
Co959 N958 2.008 . S
Co959 N960 1.995 . S
Co959 N965 2.008 . S
Co959 N970 1.995 . S
Co959 N975 2.282 . S
Co959 N981 2.282 . S
N960 Co959 1.995 . S
N960 C961 1.376 . S
N960 C964 1.383 . S
C961 N960 1.376 . S
C961 C962 1.446 . S
C961 C991 1.391 . S
C962 C961 1.446 . S
C962 C963 1.339 . S
C962 H997 0.949 . S
C963 C962 1.339 . S
C963 C964 1.439 . S
C963 H998 0.950 . S
C964 N960 1.383 . S
C964 C963 1.439 . S
C964 C993 1.392 . S
N965 Co959 2.008 . S
N965 C966 1.376 . S
N965 C969 1.374 . S
C966 N965 1.376 . S
C966 C967 1.443 . S
C966 C993 1.389 . S
C967 C966 1.443 . S
C967 C968 1.340 . S
C967 H999 0.951 . S
C968 C967 1.340 . S
C968 C969 1.439 . S
C968 H1000 0.950 . S
C969 N965 1.374 . S
C969 C968 1.439 . S
C969 C994 1.395 . S
N970 Co959 1.995 . S
N970 C971 1.376 . S
N970 C974 1.383 . S
C971 N970 1.376 . S
C971 C972 1.446 . S
C971 C994 1.391 . S
C972 C971 1.446 . S
C972 C973 1.339 . S
C972 H1001 0.949 . S
C973 C972 1.339 . S
C973 C974 1.439 . S
C973 H1002 0.950 . S
C974 N970 1.383 . S
C974 C973 1.439 . S
C974 C992 1.392 . S
N975 Co959 2.282 . S
N975 C978 1.332 . S
N975 C980 1.332 . S
C976 C977 1.386 . S
C976 C979 1.388 . S
C977 C976 1.386 . S
C977 C978 1.382 . S
C977 H1003 0.950 . S
C978 N975 1.332 . S
C978 C977 1.382 . S
C978 H989 0.952 . S
C979 C976 1.388 . S
C979 C980 1.382 . S
C979 H1004 0.950 . S
C980 N975 1.332 . S
C980 C979 1.382 . S
C980 H990 0.948 . S
N981 Co959 2.282 . S
N981 C985 1.332 . S
N981 C986 1.332 . S
C982 C983 1.388 . S
C982 C986 1.382 . S
C982 H1005 0.950 . S
C983 C982 1.388 . S
C983 C984 1.386 . S
C984 C983 1.386 . S
C984 C985 1.382 . S
C984 H1006 0.950 . S
C985 N981 1.332 . S
C985 C984 1.382 . S
C985 H987 0.952 . S
C986 N981 1.332 . S
C986 C982 1.382 . S
C986 H988 0.948 . S
H987 C985 0.952 . S
H988 C986 0.948 . S
H989 C978 0.952 . S
H990 C980 0.948 . S
C991 C957 1.395 . S
C991 C961 1.391 . S
C992 C954 1.389 . S
C992 C974 1.392 . S
C993 C964 1.392 . S
C993 C966 1.389 . S
C994 C969 1.395 . S
C994 C971 1.391 . S
H995 C955 0.951 . S
H996 C956 0.950 . S
H997 C962 0.949 . S
H998 C963 0.950 . S
H999 C967 0.951 . S
H1000 C968 0.950 . S
H1001 C972 0.949 . S
H1002 C973 0.950 . S
H1003 C977 0.950 . S
H1004 C979 0.950 . S
H1005 C982 0.950 . S
H1006 C984 0.950 . S
C1007 C1008 1.443 . S
C1007 N1011 1.376 . S
C1007 C1045 1.389 . S
C1008 C1007 1.443 . S
C1008 C1009 1.340 . S
C1008 H1048 0.951 . S
C1009 C1008 1.340 . S
C1009 C1010 1.439 . S
C1009 H1049 0.950 . S
C1010 C1009 1.439 . S
C1010 N1011 1.374 . S
C1010 C1044 1.395 . S
N1011 C1007 1.376 . S
N1011 C1010 1.374 . S
N1011 Co1012 2.008 . S
Co1012 N1011 2.008 . S
Co1012 N1013 1.995 . S
Co1012 N1018 2.008 . S
Co1012 N1023 1.995 . S
Co1012 N1028 2.282 . S
Co1012 N1034 2.282 . S
N1013 Co1012 1.995 . S
N1013 C1014 1.376 . S
N1013 C1017 1.383 . S
C1014 N1013 1.376 . S
C1014 C1015 1.446 . S
C1014 C1044 1.391 . S
C1015 C1014 1.446 . S
C1015 C1016 1.339 . S
C1015 H1050 0.949 . S
C1016 C1015 1.339 . S
C1016 C1017 1.439 . S
C1016 H1051 0.950 . S
C1017 N1013 1.383 . S
C1017 C1016 1.439 . S
C1017 C1046 1.392 . S
N1018 Co1012 2.008 . S
N1018 C1019 1.376 . S
N1018 C1022 1.374 . S
C1019 N1018 1.376 . S
C1019 C1020 1.443 . S
C1019 C1046 1.389 . S
C1020 C1019 1.443 . S
C1020 C1021 1.340 . S
C1020 H1052 0.951 . S
C1021 C1020 1.340 . S
C1021 C1022 1.439 . S
C1021 H1053 0.950 . S
C1022 N1018 1.374 . S
C1022 C1021 1.439 . S
C1022 C1047 1.395 . S
N1023 Co1012 1.995 . S
N1023 C1024 1.376 . S
N1023 C1027 1.383 . S
C1024 N1023 1.376 . S
C1024 C1025 1.446 . S
C1024 C1047 1.391 . S
C1025 C1024 1.446 . S
C1025 C1026 1.339 . S
C1025 H1054 0.949 . S
C1026 C1025 1.339 . S
C1026 C1027 1.439 . S
C1026 H1055 0.950 . S
C1027 N1023 1.383 . S
C1027 C1026 1.439 . S
C1027 C1045 1.392 . S
N1028 Co1012 2.282 . S
N1028 C1031 1.332 . S
N1028 C1033 1.332 . S
C1029 C1030 1.386 . S
C1029 C1032 1.388 . S
C1030 C1029 1.386 . S
C1030 C1031 1.382 . S
C1030 H1056 0.950 . S
C1031 N1028 1.332 . S
C1031 C1030 1.382 . S
C1031 H1042 0.952 . S
C1032 C1029 1.388 . S
C1032 C1033 1.382 . S
C1032 H1057 0.950 . S
C1033 N1028 1.332 . S
C1033 C1032 1.382 . S
C1033 H1043 0.948 . S
N1034 Co1012 2.282 . S
N1034 C1038 1.332 . S
N1034 C1039 1.332 . S
C1035 C1036 1.388 . S
C1035 C1039 1.382 . S
C1035 H1058 0.950 . S
C1036 C1035 1.388 . S
C1036 C1037 1.386 . S
C1037 C1036 1.386 . S
C1037 C1038 1.382 . S
C1037 H1059 0.950 . S
C1038 N1034 1.332 . S
C1038 C1037 1.382 . S
C1038 H1040 0.952 . S
C1039 N1034 1.332 . S
C1039 C1035 1.382 . S
C1039 H1041 0.948 . S
H1040 C1038 0.952 . S
H1041 C1039 0.948 . S
H1042 C1031 0.952 . S
H1043 C1033 0.948 . S
C1044 C1010 1.395 . S
C1044 C1014 1.391 . S
C1045 C1007 1.389 . S
C1045 C1027 1.392 . S
C1046 C1017 1.392 . S
C1046 C1019 1.389 . S
C1047 C1022 1.395 . S
C1047 C1024 1.391 . S
H1048 C1008 0.951 . S
H1049 C1009 0.950 . S
H1050 C1015 0.949 . S
H1051 C1016 0.950 . S
H1052 C1020 0.951 . S
H1053 C1021 0.950 . S
H1054 C1025 0.949 . S
H1055 C1026 0.950 . S
H1056 C1030 0.950 . S
H1057 C1032 0.950 . S
H1058 C1035 0.950 . S
H1059 C1037 0.950 . S
C1060 C1061 1.443 . S
C1060 N1064 1.376 . S
C1060 C1098 1.389 . S
C1061 C1060 1.443 . S
C1061 C1062 1.340 . S
C1061 H1101 0.951 . S
C1062 C1061 1.340 . S
C1062 C1063 1.439 . S
C1062 H1102 0.950 . S
C1063 C1062 1.439 . S
C1063 N1064 1.374 . S
C1063 C1097 1.395 . S
N1064 C1060 1.376 . S
N1064 C1063 1.374 . S
N1064 Co1065 2.008 . S
Co1065 N1064 2.008 . S
Co1065 N1066 1.995 . S
Co1065 N1071 2.008 . S
Co1065 N1076 1.995 . S
Co1065 N1081 2.282 . S
Co1065 N1087 2.282 . S
N1066 Co1065 1.995 . S
N1066 C1067 1.376 . S
N1066 C1070 1.383 . S
C1067 N1066 1.376 . S
C1067 C1068 1.446 . S
C1067 C1097 1.391 . S
C1068 C1067 1.446 . S
C1068 C1069 1.339 . S
C1068 H1103 0.949 . S
C1069 C1068 1.339 . S
C1069 C1070 1.439 . S
C1069 H1104 0.950 . S
C1070 N1066 1.383 . S
C1070 C1069 1.439 . S
C1070 C1099 1.392 . S
N1071 Co1065 2.008 . S
N1071 C1072 1.376 . S
N1071 C1075 1.374 . S
C1072 N1071 1.376 . S
C1072 C1073 1.443 . S
C1072 C1099 1.389 . S
C1073 C1072 1.443 . S
C1073 C1074 1.340 . S
C1073 H1105 0.951 . S
C1074 C1073 1.340 . S
C1074 C1075 1.439 . S
C1074 H1106 0.950 . S
C1075 N1071 1.374 . S
C1075 C1074 1.439 . S
C1075 C1100 1.395 . S
N1076 Co1065 1.995 . S
N1076 C1077 1.376 . S
N1076 C1080 1.383 . S
C1077 N1076 1.376 . S
C1077 C1078 1.446 . S
C1077 C1100 1.391 . S
C1078 C1077 1.446 . S
C1078 C1079 1.339 . S
C1078 H1107 0.949 . S
C1079 C1078 1.339 . S
C1079 C1080 1.439 . S
C1079 H1108 0.950 . S
C1080 N1076 1.383 . S
C1080 C1079 1.439 . S
C1080 C1098 1.392 . S
N1081 Co1065 2.282 . S
N1081 C1084 1.332 . S
N1081 C1086 1.332 . S
C1082 C1083 1.386 . S
C1082 C1085 1.388 . S
C1083 C1082 1.386 . S
C1083 C1084 1.382 . S
C1083 H1109 0.950 . S
C1084 N1081 1.332 . S
C1084 C1083 1.382 . S
C1084 H1095 0.952 . S
C1085 C1082 1.388 . S
C1085 C1086 1.382 . S
C1085 H1110 0.950 . S
C1086 N1081 1.332 . S
C1086 C1085 1.382 . S
C1086 H1096 0.948 . S
N1087 Co1065 2.282 . S
N1087 C1091 1.332 . S
N1087 C1092 1.332 . S
C1088 C1089 1.388 . S
C1088 C1092 1.382 . S
C1088 H1111 0.950 . S
C1089 C1088 1.388 . S
C1089 C1090 1.386 . S
C1090 C1089 1.386 . S
C1090 C1091 1.382 . S
C1090 H1112 0.950 . S
C1091 N1087 1.332 . S
C1091 C1090 1.382 . S
C1091 H1093 0.952 . S
C1092 N1087 1.332 . S
C1092 C1088 1.382 . S
C1092 H1094 0.948 . S
H1093 C1091 0.952 . S
H1094 C1092 0.948 . S
H1095 C1084 0.952 . S
H1096 C1086 0.948 . S
C1097 C1063 1.395 . S
C1097 C1067 1.391 . S
C1098 C1060 1.389 . S
C1098 C1080 1.392 . S
C1099 C1070 1.392 . S
C1099 C1072 1.389 . S
C1100 C1075 1.395 . S
C1100 C1077 1.391 . S
H1101 C1061 0.951 . S
H1102 C1062 0.950 . S
H1103 C1068 0.949 . S
H1104 C1069 0.950 . S
H1105 C1073 0.951 . S
H1106 C1074 0.950 . S
H1107 C1078 0.949 . S
H1108 C1079 0.950 . S
H1109 C1083 0.950 . S
H1110 C1085 0.950 . S
H1111 C1088 0.950 . S
H1112 C1090 0.950 . S
C1113 C1114 1.443 . S
C1113 N1117 1.376 . S
C1113 C1151 1.389 . S
C1114 C1113 1.443 . S
C1114 C1115 1.340 . S
C1114 H1154 0.951 . S
C1115 C1114 1.340 . S
C1115 C1116 1.439 . S
C1115 H1155 0.950 . S
C1116 C1115 1.439 . S
C1116 N1117 1.374 . S
C1116 C1150 1.395 . S
N1117 C1113 1.376 . S
N1117 C1116 1.374 . S
N1117 Co1118 2.008 . S
Co1118 N1117 2.008 . S
Co1118 N1119 1.995 . S
Co1118 N1124 2.008 . S
Co1118 N1129 1.995 . S
Co1118 N1134 2.282 . S
Co1118 N1140 2.282 . S
N1119 Co1118 1.995 . S
N1119 C1120 1.376 . S
N1119 C1123 1.383 . S
C1120 N1119 1.376 . S
C1120 C1121 1.446 . S
C1120 C1150 1.391 . S
C1121 C1120 1.446 . S
C1121 C1122 1.339 . S
C1121 H1156 0.949 . S
C1122 C1121 1.339 . S
C1122 C1123 1.439 . S
C1122 H1157 0.950 . S
C1123 N1119 1.383 . S
C1123 C1122 1.439 . S
C1123 C1152 1.392 . S
N1124 Co1118 2.008 . S
N1124 C1125 1.376 . S
N1124 C1128 1.374 . S
C1125 N1124 1.376 . S
C1125 C1126 1.443 . S
C1125 C1152 1.389 . S
C1126 C1125 1.443 . S
C1126 C1127 1.340 . S
C1126 H1158 0.951 . S
C1127 C1126 1.340 . S
C1127 C1128 1.439 . S
C1127 H1159 0.950 . S
C1128 N1124 1.374 . S
C1128 C1127 1.439 . S
C1128 C1153 1.395 . S
N1129 Co1118 1.995 . S
N1129 C1130 1.376 . S
N1129 C1133 1.383 . S
C1130 N1129 1.376 . S
C1130 C1131 1.446 . S
C1130 C1153 1.391 . S
C1131 C1130 1.446 . S
C1131 C1132 1.339 . S
C1131 H1160 0.949 . S
C1132 C1131 1.339 . S
C1132 C1133 1.439 . S
C1132 H1161 0.950 . S
C1133 N1129 1.383 . S
C1133 C1132 1.439 . S
C1133 C1151 1.392 . S
N1134 Co1118 2.282 . S
N1134 C1137 1.332 . S
N1134 C1139 1.332 . S
C1135 C1136 1.386 . S
C1135 C1138 1.388 . S
C1136 C1135 1.386 . S
C1136 C1137 1.382 . S
C1136 H1162 0.950 . S
C1137 N1134 1.332 . S
C1137 C1136 1.382 . S
C1137 H1148 0.952 . S
C1138 C1135 1.388 . S
C1138 C1139 1.382 . S
C1138 H1163 0.950 . S
C1139 N1134 1.332 . S
C1139 C1138 1.382 . S
C1139 H1149 0.948 . S
N1140 Co1118 2.282 . S
N1140 C1144 1.332 . S
N1140 C1145 1.332 . S
C1141 C1142 1.388 . S
C1141 C1145 1.382 . S
C1141 H1164 0.950 . S
C1142 C1141 1.388 . S
C1142 C1143 1.386 . S
C1143 C1142 1.386 . S
C1143 C1144 1.382 . S
C1143 H1165 0.950 . S
C1144 N1140 1.332 . S
C1144 C1143 1.382 . S
C1144 H1146 0.952 . S
C1145 N1140 1.332 . S
C1145 C1141 1.382 . S
C1145 H1147 0.948 . S
H1146 C1144 0.952 . S
H1147 C1145 0.948 . S
H1148 C1137 0.952 . S
H1149 C1139 0.948 . S
C1150 C1116 1.395 . S
C1150 C1120 1.391 . S
C1151 C1113 1.389 . S
C1151 C1133 1.392 . S
C1152 C1123 1.392 . S
C1152 C1125 1.389 . S
C1153 C1128 1.395 . S
C1153 C1130 1.391 . S
H1154 C1114 0.951 . S
H1155 C1115 0.950 . S
H1156 C1121 0.949 . S
H1157 C1122 0.950 . S
H1158 C1126 0.951 . S
H1159 C1127 0.950 . S
H1160 C1131 0.949 . S
H1161 C1132 0.950 . S
H1162 C1136 0.950 . S
H1163 C1138 0.950 . S
H1164 C1141 0.950 . S
H1165 C1143 0.950 . S
C1166 C1167 1.443 . S
C1166 N1170 1.376 . S
C1166 C1204 1.389 . S
C1167 C1166 1.443 . S
C1167 C1168 1.340 . S
C1167 H1207 0.951 . S
C1168 C1167 1.340 . S
C1168 C1169 1.439 . S
C1168 H1208 0.950 . S
C1169 C1168 1.439 . S
C1169 N1170 1.374 . S
C1169 C1203 1.395 . S
N1170 C1166 1.376 . S
N1170 C1169 1.374 . S
N1170 Co1171 2.008 . S
Co1171 N1170 2.008 . S
Co1171 N1172 1.995 . S
Co1171 N1177 2.008 . S
Co1171 N1182 1.995 . S
Co1171 N1187 2.282 . S
Co1171 N1193 2.282 . S
N1172 Co1171 1.995 . S
N1172 C1173 1.376 . S
N1172 C1176 1.383 . S
C1173 N1172 1.376 . S
C1173 C1174 1.446 . S
C1173 C1203 1.391 . S
C1174 C1173 1.446 . S
C1174 C1175 1.339 . S
C1174 H1209 0.949 . S
C1175 C1174 1.339 . S
C1175 C1176 1.439 . S
C1175 H1210 0.950 . S
C1176 N1172 1.383 . S
C1176 C1175 1.439 . S
C1176 C1205 1.392 . S
N1177 Co1171 2.008 . S
N1177 C1178 1.376 . S
N1177 C1181 1.374 . S
C1178 N1177 1.376 . S
C1178 C1179 1.443 . S
C1178 C1205 1.389 . S
C1179 C1178 1.443 . S
C1179 C1180 1.340 . S
C1179 H1211 0.951 . S
C1180 C1179 1.340 . S
C1180 C1181 1.439 . S
C1180 H1212 0.950 . S
C1181 N1177 1.374 . S
C1181 C1180 1.439 . S
C1181 C1206 1.395 . S
N1182 Co1171 1.995 . S
N1182 C1183 1.376 . S
N1182 C1186 1.383 . S
C1183 N1182 1.376 . S
C1183 C1184 1.446 . S
C1183 C1206 1.391 . S
C1184 C1183 1.446 . S
C1184 C1185 1.339 . S
C1184 H1213 0.949 . S
C1185 C1184 1.339 . S
C1185 C1186 1.439 . S
C1185 H1214 0.950 . S
C1186 N1182 1.383 . S
C1186 C1185 1.439 . S
C1186 C1204 1.392 . S
N1187 Co1171 2.282 . S
N1187 C1190 1.332 . S
N1187 C1192 1.332 . S
C1188 C1189 1.386 . S
C1188 C1191 1.388 . S
C1189 C1188 1.386 . S
C1189 C1190 1.382 . S
C1189 H1215 0.950 . S
C1190 N1187 1.332 . S
C1190 C1189 1.382 . S
C1190 H1201 0.952 . S
C1191 C1188 1.388 . S
C1191 C1192 1.382 . S
C1191 H1216 0.950 . S
C1192 N1187 1.332 . S
C1192 C1191 1.382 . S
C1192 H1202 0.948 . S
N1193 Co1171 2.282 . S
N1193 C1197 1.332 . S
N1193 C1198 1.332 . S
C1194 C1195 1.388 . S
C1194 C1198 1.382 . S
C1194 H1217 0.950 . S
C1195 C1194 1.388 . S
C1195 C1196 1.386 . S
C1196 C1195 1.386 . S
C1196 C1197 1.382 . S
C1196 H1218 0.950 . S
C1197 N1193 1.332 . S
C1197 C1196 1.382 . S
C1197 H1199 0.952 . S
C1198 N1193 1.332 . S
C1198 C1194 1.382 . S
C1198 H1200 0.948 . S
H1199 C1197 0.952 . S
H1200 C1198 0.948 . S
H1201 C1190 0.952 . S
H1202 C1192 0.948 . S
C1203 C1169 1.395 . S
C1203 C1173 1.391 . S
C1204 C1166 1.389 . S
C1204 C1186 1.392 . S
C1205 C1176 1.392 . S
C1205 C1178 1.389 . S
C1206 C1181 1.395 . S
C1206 C1183 1.391 . S
H1207 C1167 0.951 . S
H1208 C1168 0.950 . S
H1209 C1174 0.949 . S
H1210 C1175 0.950 . S
H1211 C1179 0.951 . S
H1212 C1180 0.950 . S
H1213 C1184 0.949 . S
H1214 C1185 0.950 . S
H1215 C1189 0.950 . S
H1216 C1191 0.950 . S
H1217 C1194 0.950 . S
H1218 C1196 0.950 . S
C1219 C1220 1.443 . S
C1219 N1223 1.376 . S
C1219 C1257 1.389 . S
C1220 C1219 1.443 . S
C1220 C1221 1.340 . S
C1220 H1260 0.951 . S
C1221 C1220 1.340 . S
C1221 C1222 1.439 . S
C1221 H1261 0.950 . S
C1222 C1221 1.439 . S
C1222 N1223 1.374 . S
C1222 C1256 1.395 . S
N1223 C1219 1.376 . S
N1223 C1222 1.374 . S
N1223 Co1224 2.008 . S
Co1224 N1223 2.008 . S
Co1224 N1225 1.995 . S
Co1224 N1230 2.008 . S
Co1224 N1235 1.995 . S
Co1224 N1240 2.282 . S
Co1224 N1246 2.282 . S
N1225 Co1224 1.995 . S
N1225 C1226 1.376 . S
N1225 C1229 1.383 . S
C1226 N1225 1.376 . S
C1226 C1227 1.446 . S
C1226 C1256 1.391 . S
C1227 C1226 1.446 . S
C1227 C1228 1.339 . S
C1227 H1262 0.949 . S
C1228 C1227 1.339 . S
C1228 C1229 1.439 . S
C1228 H1263 0.950 . S
C1229 N1225 1.383 . S
C1229 C1228 1.439 . S
C1229 C1258 1.392 . S
N1230 Co1224 2.008 . S
N1230 C1231 1.376 . S
N1230 C1234 1.374 . S
C1231 N1230 1.376 . S
C1231 C1232 1.443 . S
C1231 C1258 1.389 . S
C1232 C1231 1.443 . S
C1232 C1233 1.340 . S
C1232 H1264 0.951 . S
C1233 C1232 1.340 . S
C1233 C1234 1.439 . S
C1233 H1265 0.950 . S
C1234 N1230 1.374 . S
C1234 C1233 1.439 . S
C1234 C1259 1.395 . S
N1235 Co1224 1.995 . S
N1235 C1236 1.376 . S
N1235 C1239 1.383 . S
C1236 N1235 1.376 . S
C1236 C1237 1.446 . S
C1236 C1259 1.391 . S
C1237 C1236 1.446 . S
C1237 C1238 1.339 . S
C1237 H1266 0.949 . S
C1238 C1237 1.339 . S
C1238 C1239 1.439 . S
C1238 H1267 0.950 . S
C1239 N1235 1.383 . S
C1239 C1238 1.439 . S
C1239 C1257 1.392 . S
N1240 Co1224 2.282 . S
N1240 C1243 1.332 . S
N1240 C1245 1.332 . S
C1241 C1242 1.386 . S
C1241 C1244 1.388 . S
C1242 C1241 1.386 . S
C1242 C1243 1.382 . S
C1242 H1268 0.950 . S
C1243 N1240 1.332 . S
C1243 C1242 1.382 . S
C1243 H1254 0.952 . S
C1244 C1241 1.388 . S
C1244 C1245 1.382 . S
C1244 H1269 0.950 . S
C1245 N1240 1.332 . S
C1245 C1244 1.382 . S
C1245 H1255 0.948 . S
N1246 Co1224 2.282 . S
N1246 C1250 1.332 . S
N1246 C1251 1.332 . S
C1247 C1248 1.388 . S
C1247 C1251 1.382 . S
C1247 H1270 0.950 . S
C1248 C1247 1.388 . S
C1248 C1249 1.386 . S
C1249 C1248 1.386 . S
C1249 C1250 1.382 . S
C1249 H1271 0.950 . S
C1250 N1246 1.332 . S
C1250 C1249 1.382 . S
C1250 H1252 0.952 . S
C1251 N1246 1.332 . S
C1251 C1247 1.382 . S
C1251 H1253 0.948 . S
H1252 C1250 0.952 . S
H1253 C1251 0.948 . S
H1254 C1243 0.952 . S
H1255 C1245 0.948 . S
C1256 C1222 1.395 . S
C1256 C1226 1.391 . S
C1257 C1219 1.389 . S
C1257 C1239 1.392 . S
C1258 C1229 1.392 . S
C1258 C1231 1.389 . S
C1259 C1234 1.395 . S
C1259 C1236 1.391 . S
H1260 C1220 0.951 . S
H1261 C1221 0.950 . S
H1262 C1227 0.949 . S
H1263 C1228 0.950 . S
H1264 C1232 0.951 . S
H1265 C1233 0.950 . S
H1266 C1237 0.949 . S
H1267 C1238 0.950 . S
H1268 C1242 0.950 . S
H1269 C1244 0.950 . S
H1270 C1247 0.950 . S
H1271 C1249 0.950 . S
C1272 C1273 1.443 . S
C1272 N1276 1.376 . S
C1272 C1310 1.389 . S
C1273 C1272 1.443 . S
C1273 C1274 1.340 . S
C1273 H1313 0.951 . S
C1274 C1273 1.340 . S
C1274 C1275 1.439 . S
C1274 H1314 0.950 . S
C1275 C1274 1.439 . S
C1275 N1276 1.374 . S
C1275 C1309 1.395 . S
N1276 C1272 1.376 . S
N1276 C1275 1.374 . S
N1276 Co1277 2.008 . S
Co1277 N1276 2.008 . S
Co1277 N1278 1.995 . S
Co1277 N1283 2.008 . S
Co1277 N1288 1.995 . S
Co1277 N1293 2.282 . S
Co1277 N1299 2.282 . S
N1278 Co1277 1.995 . S
N1278 C1279 1.376 . S
N1278 C1282 1.383 . S
C1279 N1278 1.376 . S
C1279 C1280 1.446 . S
C1279 C1309 1.391 . S
C1280 C1279 1.446 . S
C1280 C1281 1.339 . S
C1280 H1315 0.949 . S
C1281 C1280 1.339 . S
C1281 C1282 1.439 . S
C1281 H1316 0.950 . S
C1282 N1278 1.383 . S
C1282 C1281 1.439 . S
C1282 C1311 1.392 . S
N1283 Co1277 2.008 . S
N1283 C1284 1.376 . S
N1283 C1287 1.374 . S
C1284 N1283 1.376 . S
C1284 C1285 1.443 . S
C1284 C1311 1.389 . S
C1285 C1284 1.443 . S
C1285 C1286 1.340 . S
C1285 H1317 0.951 . S
C1286 C1285 1.340 . S
C1286 C1287 1.439 . S
C1286 H1318 0.950 . S
C1287 N1283 1.374 . S
C1287 C1286 1.439 . S
C1287 C1312 1.395 . S
N1288 Co1277 1.995 . S
N1288 C1289 1.376 . S
N1288 C1292 1.383 . S
C1289 N1288 1.376 . S
C1289 C1290 1.446 . S
C1289 C1312 1.391 . S
C1290 C1289 1.446 . S
C1290 C1291 1.339 . S
C1290 H1319 0.949 . S
C1291 C1290 1.339 . S
C1291 C1292 1.439 . S
C1291 H1320 0.950 . S
C1292 N1288 1.383 . S
C1292 C1291 1.439 . S
C1292 C1310 1.392 . S
N1293 Co1277 2.282 . S
N1293 C1296 1.332 . S
N1293 C1298 1.332 . S
C1294 C1295 1.386 . S
C1294 C1297 1.388 . S
C1295 C1294 1.386 . S
C1295 C1296 1.382 . S
C1295 H1321 0.950 . S
C1296 N1293 1.332 . S
C1296 C1295 1.382 . S
C1296 H1307 0.952 . S
C1297 C1294 1.388 . S
C1297 C1298 1.382 . S
C1297 H1322 0.950 . S
C1298 N1293 1.332 . S
C1298 C1297 1.382 . S
C1298 H1308 0.948 . S
N1299 Co1277 2.282 . S
N1299 C1303 1.332 . S
N1299 C1304 1.332 . S
C1300 C1301 1.388 . S
C1300 C1304 1.382 . S
C1300 H1323 0.950 . S
C1301 C1300 1.388 . S
C1301 C1302 1.386 . S
C1302 C1301 1.386 . S
C1302 C1303 1.382 . S
C1302 H1324 0.950 . S
C1303 N1299 1.332 . S
C1303 C1302 1.382 . S
C1303 H1305 0.952 . S
C1304 N1299 1.332 . S
C1304 C1300 1.382 . S
C1304 H1306 0.948 . S
H1305 C1303 0.952 . S
H1306 C1304 0.948 . S
H1307 C1296 0.952 . S
H1308 C1298 0.948 . S
C1309 C1275 1.395 . S
C1309 C1279 1.391 . S
C1310 C1272 1.389 . S
C1310 C1292 1.392 . S
C1311 C1282 1.392 . S
C1311 C1284 1.389 . S
C1312 C1287 1.395 . S
C1312 C1289 1.391 . S
H1313 C1273 0.951 . S
H1314 C1274 0.950 . S
H1315 C1280 0.949 . S
H1316 C1281 0.950 . S
H1317 C1285 0.951 . S
H1318 C1286 0.950 . S
H1319 C1290 0.949 . S
H1320 C1291 0.950 . S
H1321 C1295 0.950 . S
H1322 C1297 0.950 . S
H1323 C1300 0.950 . S
H1324 C1302 0.950 . S
C1325 C1326 1.443 . S
C1325 N1329 1.376 . S
C1325 C1363 1.389 . S
C1326 C1325 1.443 . S
C1326 C1327 1.340 . S
C1326 H1366 0.951 . S
C1327 C1326 1.340 . S
C1327 C1328 1.439 . S
C1327 H1367 0.950 . S
C1328 C1327 1.439 . S
C1328 N1329 1.374 . S
C1328 C1362 1.395 . S
N1329 C1325 1.376 . S
N1329 C1328 1.374 . S
N1329 Co1330 2.008 . S
Co1330 N1329 2.008 . S
Co1330 N1331 1.995 . S
Co1330 N1336 2.008 . S
Co1330 N1341 1.995 . S
Co1330 N1346 2.282 . S
Co1330 N1352 2.282 . S
N1331 Co1330 1.995 . S
N1331 C1332 1.376 . S
N1331 C1335 1.383 . S
C1332 N1331 1.376 . S
C1332 C1333 1.446 . S
C1332 C1362 1.391 . S
C1333 C1332 1.446 . S
C1333 C1334 1.339 . S
C1333 H1368 0.949 . S
C1334 C1333 1.339 . S
C1334 C1335 1.439 . S
C1334 H1369 0.950 . S
C1335 N1331 1.383 . S
C1335 C1334 1.439 . S
C1335 C1364 1.392 . S
N1336 Co1330 2.008 . S
N1336 C1337 1.376 . S
N1336 C1340 1.374 . S
C1337 N1336 1.376 . S
C1337 C1338 1.443 . S
C1337 C1364 1.389 . S
C1338 C1337 1.443 . S
C1338 C1339 1.340 . S
C1338 H1370 0.951 . S
C1339 C1338 1.340 . S
C1339 C1340 1.439 . S
C1339 H1371 0.950 . S
C1340 N1336 1.374 . S
C1340 C1339 1.439 . S
C1340 C1365 1.395 . S
N1341 Co1330 1.995 . S
N1341 C1342 1.376 . S
N1341 C1345 1.383 . S
C1342 N1341 1.376 . S
C1342 C1343 1.446 . S
C1342 C1365 1.391 . S
C1343 C1342 1.446 . S
C1343 C1344 1.339 . S
C1343 H1372 0.949 . S
C1344 C1343 1.339 . S
C1344 C1345 1.439 . S
C1344 H1373 0.950 . S
C1345 N1341 1.383 . S
C1345 C1344 1.439 . S
C1345 C1363 1.392 . S
N1346 Co1330 2.282 . S
N1346 C1349 1.332 . S
N1346 C1351 1.332 . S
C1347 C1348 1.386 . S
C1347 C1350 1.388 . S
C1348 C1347 1.386 . S
C1348 C1349 1.382 . S
C1348 H1374 0.950 . S
C1349 N1346 1.332 . S
C1349 C1348 1.382 . S
C1349 H1360 0.952 . S
C1350 C1347 1.388 . S
C1350 C1351 1.382 . S
C1350 H1375 0.950 . S
C1351 N1346 1.332 . S
C1351 C1350 1.382 . S
C1351 H1361 0.948 . S
N1352 Co1330 2.282 . S
N1352 C1356 1.332 . S
N1352 C1357 1.332 . S
C1353 C1354 1.388 . S
C1353 C1357 1.382 . S
C1353 H1376 0.950 . S
C1354 C1353 1.388 . S
C1354 C1355 1.386 . S
C1355 C1354 1.386 . S
C1355 C1356 1.382 . S
C1355 H1377 0.950 . S
C1356 N1352 1.332 . S
C1356 C1355 1.382 . S
C1356 H1358 0.952 . S
C1357 N1352 1.332 . S
C1357 C1353 1.382 . S
C1357 H1359 0.948 . S
H1358 C1356 0.952 . S
H1359 C1357 0.948 . S
H1360 C1349 0.952 . S
H1361 C1351 0.948 . S
C1362 C1328 1.395 . S
C1362 C1332 1.391 . S
C1363 C1325 1.389 . S
C1363 C1345 1.392 . S
C1364 C1335 1.392 . S
C1364 C1337 1.389 . S
C1365 C1340 1.395 . S
C1365 C1342 1.391 . S
H1366 C1326 0.951 . S
H1367 C1327 0.950 . S
H1368 C1333 0.949 . S
H1369 C1334 0.950 . S
H1370 C1338 0.951 . S
H1371 C1339 0.950 . S
H1372 C1343 0.949 . S
H1373 C1344 0.950 . S
H1374 C1348 0.950 . S
H1375 C1350 0.950 . S
H1376 C1353 0.950 . S
H1377 C1355 0.950 . S
C1378 C1379 1.443 . S
C1378 N1382 1.376 . S
C1378 C1416 1.389 . S
C1379 C1378 1.443 . S
C1379 C1380 1.340 . S
C1379 H1419 0.951 . S
C1380 C1379 1.340 . S
C1380 C1381 1.439 . S
C1380 H1420 0.950 . S
C1381 C1380 1.439 . S
C1381 N1382 1.374 . S
C1381 C1415 1.395 1_556 S
N1382 C1378 1.376 . S
N1382 C1381 1.374 . S
N1382 Co1383 2.008 . S
Co1383 N1382 2.008 . S
Co1383 N1384 1.995 1_556 S
Co1383 N1389 2.008 1_556 S
Co1383 N1394 1.995 . S
Co1383 N1399 2.282 . S
Co1383 N1405 2.282 . S
N1384 Co1383 1.995 1_554 S
N1384 C1385 1.376 . S
N1384 C1388 1.383 . S
C1385 N1384 1.376 . S
C1385 C1386 1.446 . S
C1385 C1415 1.391 . S
C1386 C1385 1.446 . S
C1386 C1387 1.339 . S
C1386 H1421 0.949 . S
C1387 C1386 1.339 . S
C1387 C1388 1.439 . S
C1387 H1422 0.950 . S
C1388 N1384 1.383 . S
C1388 C1387 1.439 . S
C1388 C1417 1.392 . S
N1389 Co1383 2.008 1_554 S
N1389 C1390 1.376 . S
N1389 C1393 1.374 . S
C1390 N1389 1.376 . S
C1390 C1391 1.443 . S
C1390 C1417 1.389 . S
C1391 C1390 1.443 . S
C1391 C1392 1.340 . S
C1391 H1423 0.951 . S
C1392 C1391 1.340 . S
C1392 C1393 1.439 . S
C1392 H1424 0.950 . S
C1393 N1389 1.374 . S
C1393 C1392 1.439 . S
C1393 C1418 1.395 1_554 S
N1394 Co1383 1.995 . S
N1394 C1395 1.376 . S
N1394 C1398 1.383 . S
C1395 N1394 1.376 . S
C1395 C1396 1.446 . S
C1395 C1418 1.391 . S
C1396 C1395 1.446 . S
C1396 C1397 1.339 . S
C1396 H1425 0.949 . S
C1397 C1396 1.339 . S
C1397 C1398 1.439 . S
C1397 H1426 0.950 . S
C1398 N1394 1.383 . S
C1398 C1397 1.439 . S
C1398 C1416 1.392 . S
N1399 Co1383 2.282 . S
N1399 C1402 1.332 . S
N1399 C1404 1.325 1_556 S
C1400 C1401 1.386 . S
C1400 C1403 1.388 1_556 S
C1401 C1400 1.386 . S
C1401 C1402 1.382 . S
C1401 H1427 0.950 . S
C1402 N1399 1.332 . S
C1402 C1401 1.382 . S
C1402 H1413 0.952 . S
C1403 C1400 1.388 1_554 S
C1403 C1404 1.384 . S
C1403 H1428 0.950 . S
C1404 N1399 1.325 1_554 S
C1404 C1403 1.384 . S
C1404 H1414 0.953 . S
N1405 Co1383 2.282 . S
N1405 C1409 1.332 1_556 S
N1405 C1410 1.332 . S
C1406 C1407 1.388 . S
C1406 C1410 1.382 . S
C1406 H1429 0.950 . S
C1407 C1406 1.388 . S
C1407 C1408 1.386 1_556 S
C1408 C1407 1.386 1_554 S
C1408 C1409 1.382 . S
C1408 H1430 0.950 . S
C1409 N1405 1.332 1_554 S
C1409 C1408 1.382 . S
C1409 H1411 0.952 . S
C1410 N1405 1.332 . S
C1410 C1406 1.382 . S
C1410 H1412 0.948 . S
H1411 C1409 0.952 . S
H1412 C1410 0.948 . S
H1413 C1402 0.952 . S
H1414 C1404 0.953 . S
C1415 C1381 1.395 1_554 S
C1415 C1385 1.391 . S
C1416 C1378 1.389 . S
C1416 C1398 1.392 . S
C1417 C1388 1.392 . S
C1417 C1390 1.389 . S
C1418 C1393 1.395 1_556 S
C1418 C1395 1.391 . S
H1419 C1379 0.951 . S
H1420 C1380 0.950 . S
H1421 C1386 0.949 . S
H1422 C1387 0.950 . S
H1423 C1391 0.951 . S
H1424 C1392 0.950 . S
H1425 C1396 0.949 . S
H1426 C1397 0.950 . S
H1427 C1401 0.950 . S
H1428 C1403 0.950 . S
H1429 C1406 0.950 . S
H1430 C1408 0.950 . S
C1431 C1432 1.443 . S
C1431 N1435 1.376 . S
C1431 C1469 1.389 . S
C1432 C1431 1.443 . S
C1432 C1433 1.340 . S
C1432 H1472 0.951 . S
C1433 C1432 1.340 . S
C1433 C1434 1.439 . S
C1433 H1473 0.950 . S
C1434 C1433 1.439 . S
C1434 N1435 1.374 . S
C1434 C1468 1.395 1_556 S
N1435 C1431 1.376 . S
N1435 C1434 1.374 . S
N1435 Co1436 2.008 . S
Co1436 N1435 2.008 . S
Co1436 N1437 1.995 1_556 S
Co1436 N1442 2.008 1_556 S
Co1436 N1447 1.995 . S
Co1436 N1452 2.282 . S
Co1436 N1458 2.282 . S
N1437 Co1436 1.995 1_554 S
N1437 C1438 1.376 . S
N1437 C1441 1.383 . S
C1438 N1437 1.376 . S
C1438 C1439 1.446 . S
C1438 C1468 1.391 . S
C1439 C1438 1.446 . S
C1439 C1440 1.339 . S
C1439 H1474 0.949 . S
C1440 C1439 1.339 . S
C1440 C1441 1.439 . S
C1440 H1475 0.950 . S
C1441 N1437 1.383 . S
C1441 C1440 1.439 . S
C1441 C1470 1.392 . S
N1442 Co1436 2.008 1_554 S
N1442 C1443 1.376 . S
N1442 C1446 1.374 . S
C1443 N1442 1.376 . S
C1443 C1444 1.443 . S
C1443 C1470 1.389 . S
C1444 C1443 1.443 . S
C1444 C1445 1.340 . S
C1444 H1476 0.951 . S
C1445 C1444 1.340 . S
C1445 C1446 1.439 . S
C1445 H1477 0.950 . S
C1446 N1442 1.374 . S
C1446 C1445 1.439 . S
C1446 C1471 1.395 1_554 S
N1447 Co1436 1.995 . S
N1447 C1448 1.376 . S
N1447 C1451 1.383 . S
C1448 N1447 1.376 . S
C1448 C1449 1.446 . S
C1448 C1471 1.391 . S
C1449 C1448 1.446 . S
C1449 C1450 1.339 . S
C1449 H1478 0.949 . S
C1450 C1449 1.339 . S
C1450 C1451 1.439 . S
C1450 H1479 0.950 . S
C1451 N1447 1.383 . S
C1451 C1450 1.439 . S
C1451 C1469 1.392 . S
N1452 Co1436 2.282 . S
N1452 C1455 1.332 . S
N1452 C1457 1.325 1_556 S
C1453 C1454 1.386 . S
C1453 C1456 1.388 1_556 S
C1454 C1453 1.386 . S
C1454 C1455 1.382 . S
C1454 H1480 0.950 . S
C1455 N1452 1.332 . S
C1455 C1454 1.382 . S
C1455 H1466 0.952 . S
C1456 C1453 1.388 1_554 S
C1456 C1457 1.384 . S
C1456 H1481 0.950 . S
C1457 N1452 1.325 1_554 S
C1457 C1456 1.384 . S
C1457 H1467 0.953 . S
N1458 Co1436 2.282 . S
N1458 C1462 1.332 1_556 S
N1458 C1463 1.332 . S
C1459 C1460 1.388 . S
C1459 C1463 1.382 . S
C1459 H1482 0.950 . S
C1460 C1459 1.388 . S
C1460 C1461 1.386 1_556 S
C1461 C1460 1.386 1_554 S
C1461 C1462 1.382 . S
C1461 H1483 0.950 . S
C1462 N1458 1.332 1_554 S
C1462 C1461 1.382 . S
C1462 H1464 0.952 . S
C1463 N1458 1.332 . S
C1463 C1459 1.382 . S
C1463 H1465 0.948 . S
H1464 C1462 0.952 . S
H1465 C1463 0.948 . S
H1466 C1455 0.952 . S
H1467 C1457 0.953 . S
C1468 C1434 1.395 1_554 S
C1468 C1438 1.391 . S
C1469 C1431 1.389 . S
C1469 C1451 1.392 . S
C1470 C1441 1.392 . S
C1470 C1443 1.389 . S
C1471 C1446 1.395 1_556 S
C1471 C1448 1.391 . S
H1472 C1432 0.951 . S
H1473 C1433 0.950 . S
H1474 C1439 0.949 . S
H1475 C1440 0.950 . S
H1476 C1444 0.951 . S
H1477 C1445 0.950 . S
H1478 C1449 0.949 . S
H1479 C1450 0.950 . S
H1480 C1454 0.950 . S
H1481 C1456 0.950 . S
H1482 C1459 0.950 . S
H1483 C1461 0.950 . S
C1484 C1485 1.443 . S
C1484 N1488 1.376 . S
C1484 C1522 1.389 . S
C1485 C1484 1.443 . S
C1485 C1486 1.340 . S
C1485 H1525 0.951 . S
C1486 C1485 1.340 . S
C1486 C1487 1.439 . S
C1486 H1526 0.950 . S
C1487 C1486 1.439 . S
C1487 N1488 1.374 . S
C1487 C1521 1.395 . S
N1488 C1484 1.376 . S
N1488 C1487 1.374 . S
N1488 Co1489 2.008 . S
Co1489 N1488 2.008 . S
Co1489 N1490 1.995 . S
Co1489 N1495 2.008 . S
Co1489 N1500 1.995 . S
Co1489 N1505 2.282 . S
Co1489 N1511 2.282 . S
N1490 Co1489 1.995 . S
N1490 C1491 1.376 . S
N1490 C1494 1.383 . S
C1491 N1490 1.376 . S
C1491 C1492 1.446 . S
C1491 C1521 1.391 . S
C1492 C1491 1.446 . S
C1492 C1493 1.339 . S
C1492 H1527 0.949 . S
C1493 C1492 1.339 . S
C1493 C1494 1.439 . S
C1493 H1528 0.950 . S
C1494 N1490 1.383 . S
C1494 C1493 1.439 . S
C1494 C1523 1.392 . S
N1495 Co1489 2.008 . S
N1495 C1496 1.376 . S
N1495 C1499 1.374 . S
C1496 N1495 1.376 . S
C1496 C1497 1.443 . S
C1496 C1523 1.389 . S
C1497 C1496 1.443 . S
C1497 C1498 1.340 . S
C1497 H1529 0.951 . S
C1498 C1497 1.340 . S
C1498 C1499 1.439 . S
C1498 H1530 0.950 . S
C1499 N1495 1.374 . S
C1499 C1498 1.439 . S
C1499 C1524 1.395 . S
N1500 Co1489 1.995 . S
N1500 C1501 1.376 . S
N1500 C1504 1.383 . S
C1501 N1500 1.376 . S
C1501 C1502 1.446 . S
C1501 C1524 1.391 . S
C1502 C1501 1.446 . S
C1502 C1503 1.339 . S
C1502 H1531 0.949 . S
C1503 C1502 1.339 . S
C1503 C1504 1.439 . S
C1503 H1532 0.950 . S
C1504 N1500 1.383 . S
C1504 C1503 1.439 . S
C1504 C1522 1.392 . S
N1505 Co1489 2.282 . S
N1505 C1508 1.332 . S
N1505 C1510 1.332 . S
C1506 C1507 1.386 . S
C1506 C1509 1.388 . S
C1507 C1506 1.386 . S
C1507 C1508 1.382 . S
C1507 H1533 0.950 . S
C1508 N1505 1.332 . S
C1508 C1507 1.382 . S
C1508 H1519 0.952 . S
C1509 C1506 1.388 . S
C1509 C1510 1.382 . S
C1509 H1534 0.950 . S
C1510 N1505 1.332 . S
C1510 C1509 1.382 . S
C1510 H1520 0.948 . S
N1511 Co1489 2.282 . S
N1511 C1515 1.332 . S
N1511 C1516 1.332 . S
C1512 C1513 1.388 . S
C1512 C1516 1.382 . S
C1512 H1535 0.950 . S
C1513 C1512 1.388 . S
C1513 C1514 1.386 . S
C1514 C1513 1.386 . S
C1514 C1515 1.382 . S
C1514 H1536 0.950 . S
C1515 N1511 1.332 . S
C1515 C1514 1.382 . S
C1515 H1517 0.952 . S
C1516 N1511 1.332 . S
C1516 C1512 1.382 . S
C1516 H1518 0.948 . S
H1517 C1515 0.952 . S
H1518 C1516 0.948 . S
H1519 C1508 0.952 . S
H1520 C1510 0.948 . S
C1521 C1487 1.395 . S
C1521 C1491 1.391 . S
C1522 C1484 1.389 . S
C1522 C1504 1.392 . S
C1523 C1494 1.392 . S
C1523 C1496 1.389 . S
C1524 C1499 1.395 . S
C1524 C1501 1.391 . S
H1525 C1485 0.951 . S
H1526 C1486 0.950 . S
H1527 C1492 0.949 . S
H1528 C1493 0.950 . S
H1529 C1497 0.951 . S
H1530 C1498 0.950 . S
H1531 C1502 0.949 . S
H1532 C1503 0.950 . S
H1533 C1507 0.950 . S
H1534 C1509 0.950 . S
H1535 C1512 0.950 . S
H1536 C1514 0.950 . S
C1537 C1538 1.443 . S
C1537 N1541 1.376 . S
C1537 C1575 1.389 . S
C1538 C1537 1.443 . S
C1538 C1539 1.340 . S
C1538 H1578 0.951 . S
C1539 C1538 1.340 . S
C1539 C1540 1.439 . S
C1539 H1579 0.950 . S
C1540 C1539 1.439 . S
C1540 N1541 1.374 . S
C1540 C1574 1.395 . S
N1541 C1537 1.376 . S
N1541 C1540 1.374 . S
N1541 Co1542 2.008 . S
Co1542 N1541 2.008 . S
Co1542 N1543 1.995 . S
Co1542 N1548 2.008 . S
Co1542 N1553 1.995 . S
Co1542 N1558 2.282 . S
Co1542 N1564 2.282 . S
N1543 Co1542 1.995 . S
N1543 C1544 1.376 . S
N1543 C1547 1.383 . S
C1544 N1543 1.376 . S
C1544 C1545 1.446 . S
C1544 C1574 1.391 . S
C1545 C1544 1.446 . S
C1545 C1546 1.339 . S
C1545 H1580 0.949 . S
C1546 C1545 1.339 . S
C1546 C1547 1.439 . S
C1546 H1581 0.950 . S
C1547 N1543 1.383 . S
C1547 C1546 1.439 . S
C1547 C1576 1.392 . S
N1548 Co1542 2.008 . S
N1548 C1549 1.376 . S
N1548 C1552 1.374 . S
C1549 N1548 1.376 . S
C1549 C1550 1.443 . S
C1549 C1576 1.389 . S
C1550 C1549 1.443 . S
C1550 C1551 1.340 . S
C1550 H1582 0.951 . S
C1551 C1550 1.340 . S
C1551 C1552 1.439 . S
C1551 H1583 0.950 . S
C1552 N1548 1.374 . S
C1552 C1551 1.439 . S
C1552 C1577 1.395 . S
N1553 Co1542 1.995 . S
N1553 C1554 1.376 . S
N1553 C1557 1.383 . S
C1554 N1553 1.376 . S
C1554 C1555 1.446 . S
C1554 C1577 1.391 . S
C1555 C1554 1.446 . S
C1555 C1556 1.339 . S
C1555 H1584 0.949 . S
C1556 C1555 1.339 . S
C1556 C1557 1.439 . S
C1556 H1585 0.950 . S
C1557 N1553 1.383 . S
C1557 C1556 1.439 . S
C1557 C1575 1.392 . S
N1558 Co1542 2.282 . S
N1558 C1561 1.332 . S
N1558 C1563 1.332 . S
C1559 C1560 1.386 . S
C1559 C1562 1.388 . S
C1560 C1559 1.386 . S
C1560 C1561 1.382 . S
C1560 H1586 0.950 . S
C1561 N1558 1.332 . S
C1561 C1560 1.382 . S
C1561 H1572 0.952 . S
C1562 C1559 1.388 . S
C1562 C1563 1.382 . S
C1562 H1587 0.950 . S
C1563 N1558 1.332 . S
C1563 C1562 1.382 . S
C1563 H1573 0.948 . S
N1564 Co1542 2.282 . S
N1564 C1568 1.332 . S
N1564 C1569 1.332 . S
C1565 C1566 1.388 . S
C1565 C1569 1.382 . S
C1565 H1588 0.950 . S
C1566 C1565 1.388 . S
C1566 C1567 1.386 . S
C1567 C1566 1.386 . S
C1567 C1568 1.382 . S
C1567 H1589 0.950 . S
C1568 N1564 1.332 . S
C1568 C1567 1.382 . S
C1568 H1570 0.952 . S
C1569 N1564 1.332 . S
C1569 C1565 1.382 . S
C1569 H1571 0.948 . S
H1570 C1568 0.952 . S
H1571 C1569 0.948 . S
H1572 C1561 0.952 . S
H1573 C1563 0.948 . S
C1574 C1540 1.395 . S
C1574 C1544 1.391 . S
C1575 C1537 1.389 . S
C1575 C1557 1.392 . S
C1576 C1547 1.392 . S
C1576 C1549 1.389 . S
C1577 C1552 1.395 . S
C1577 C1554 1.391 . S
H1578 C1538 0.951 . S
H1579 C1539 0.950 . S
H1580 C1545 0.949 . S
H1581 C1546 0.950 . S
H1582 C1550 0.951 . S
H1583 C1551 0.950 . S
H1584 C1555 0.949 . S
H1585 C1556 0.950 . S
H1586 C1560 0.950 . S
H1587 C1562 0.950 . S
H1588 C1565 0.950 . S
H1589 C1567 0.950 . S
C1590 C1591 1.443 . S
C1590 N1594 1.376 . S
C1590 C1628 1.389 . S
C1591 C1590 1.443 . S
C1591 C1592 1.340 . S
C1591 H1631 0.951 . S
C1592 C1591 1.340 . S
C1592 C1593 1.439 . S
C1592 H1632 0.950 . S
C1593 C1592 1.439 . S
C1593 N1594 1.374 . S
C1593 C1627 1.395 . S
N1594 C1590 1.376 . S
N1594 C1593 1.374 . S
N1594 Co1595 2.008 . S
Co1595 N1594 2.008 . S
Co1595 N1596 1.995 1_554 S
Co1595 N1601 2.008 1_554 S
Co1595 N1606 1.995 . S
Co1595 N1611 2.282 . S
Co1595 N1617 2.282 . S
N1596 Co1595 1.995 1_556 S
N1596 C1597 1.376 . S
N1596 C1600 1.383 . S
C1597 N1596 1.376 . S
C1597 C1598 1.446 . S
C1597 C1627 1.391 1_556 S
C1598 C1597 1.446 . S
C1598 C1599 1.339 . S
C1598 H1633 0.949 . S
C1599 C1598 1.339 . S
C1599 C1600 1.439 . S
C1599 H1634 0.950 . S
C1600 N1596 1.383 . S
C1600 C1599 1.439 . S
C1600 C1629 1.392 . S
N1601 Co1595 2.008 1_556 S
N1601 C1602 1.376 . S
N1601 C1605 1.374 . S
C1602 N1601 1.376 . S
C1602 C1603 1.443 . S
C1602 C1629 1.389 . S
C1603 C1602 1.443 . S
C1603 C1604 1.340 . S
C1603 H1635 0.951 . S
C1604 C1603 1.340 . S
C1604 C1605 1.439 . S
C1604 H1636 0.950 . S
C1605 N1601 1.374 . S
C1605 C1604 1.439 . S
C1605 C1630 1.395 . S
N1606 Co1595 1.995 . S
N1606 C1607 1.376 . S
N1606 C1610 1.383 . S
C1607 N1606 1.376 . S
C1607 C1608 1.446 . S
C1607 C1630 1.391 1_554 S
C1608 C1607 1.446 . S
C1608 C1609 1.339 . S
C1608 H1637 0.949 . S
C1609 C1608 1.339 . S
C1609 C1610 1.439 . S
C1609 H1638 0.950 . S
C1610 N1606 1.383 . S
C1610 C1609 1.439 . S
C1610 C1628 1.392 . S
N1611 Co1595 2.282 . S
N1611 C1614 1.332 . S
N1611 C1616 1.332 . S
C1612 C1613 1.386 . S
C1612 C1615 1.388 . S
C1613 C1612 1.386 . S
C1613 C1614 1.382 . S
C1613 H1639 0.950 . S
C1614 N1611 1.332 . S
C1614 C1613 1.382 . S
C1614 H1625 0.952 . S
C1615 C1612 1.388 . S
C1615 C1616 1.382 . S
C1615 H1640 0.959 . S
C1616 N1611 1.332 . S
C1616 C1615 1.382 . S
C1616 H1626 0.948 . S
N1617 Co1595 2.282 . S
N1617 C1621 1.332 . S
N1617 C1622 1.332 . S
C1618 C1619 1.388 . S
C1618 C1622 1.382 . S
C1618 H1641 0.950 . S
C1619 C1618 1.388 . S
C1619 C1620 1.386 . S
C1620 C1619 1.386 . S
C1620 C1621 1.382 . S
C1620 H1642 0.950 . S
C1621 N1617 1.332 . S
C1621 C1620 1.382 . S
C1621 H1623 0.947 1_554 S
C1622 N1617 1.332 . S
C1622 C1618 1.382 . S
C1622 H1624 0.948 . S
H1623 C1621 0.947 1_556 S
H1624 C1622 0.948 . S
H1625 C1614 0.952 . S
H1626 C1616 0.948 . S
C1627 C1593 1.395 . S
C1627 C1597 1.391 1_554 S
C1628 C1590 1.389 . S
C1628 C1610 1.392 . S
C1629 C1600 1.392 . S
C1629 C1602 1.389 . S
C1630 C1605 1.395 . S
C1630 C1607 1.391 1_556 S
H1631 C1591 0.951 . S
H1632 C1592 0.950 . S
H1633 C1598 0.949 . S
H1634 C1599 0.950 . S
H1635 C1603 0.951 . S
H1636 C1604 0.950 . S
H1637 C1608 0.949 . S
H1638 C1609 0.950 . S
H1639 C1613 0.950 . S
H1640 C1615 0.959 . S
H1641 C1618 0.950 . S
H1642 C1620 0.950 . S
C1643 C1644 1.443 . S
C1643 N1647 1.376 . S
C1643 C1681 1.389 . S
C1644 C1643 1.443 . S
C1644 C1645 1.340 . S
C1644 H1684 0.951 . S
C1645 C1644 1.340 . S
C1645 C1646 1.439 . S
C1645 H1685 0.950 . S
C1646 C1645 1.439 . S
C1646 N1647 1.374 . S
C1646 C1680 1.395 . S
N1647 C1643 1.376 . S
N1647 C1646 1.374 . S
N1647 Co1648 2.008 . S
Co1648 N1647 2.008 . S
Co1648 N1649 1.995 1_554 S
Co1648 N1654 2.008 1_554 S
Co1648 N1659 1.995 . S
Co1648 N1664 2.282 . S
Co1648 N1670 2.282 . S
N1649 Co1648 1.995 1_556 S
N1649 C1650 1.376 . S
N1649 C1653 1.383 . S
C1650 N1649 1.376 . S
C1650 C1651 1.446 . S
C1650 C1680 1.391 1_556 S
C1651 C1650 1.446 . S
C1651 C1652 1.339 . S
C1651 H1686 0.949 . S
C1652 C1651 1.339 . S
C1652 C1653 1.439 . S
C1652 H1687 0.950 . S
C1653 N1649 1.383 . S
C1653 C1652 1.439 . S
C1653 C1682 1.392 . S
N1654 Co1648 2.008 1_556 S
N1654 C1655 1.376 . S
N1654 C1658 1.374 . S
C1655 N1654 1.376 . S
C1655 C1656 1.443 . S
C1655 C1682 1.389 . S
C1656 C1655 1.443 . S
C1656 C1657 1.340 . S
C1656 H1688 0.951 . S
C1657 C1656 1.340 . S
C1657 C1658 1.439 . S
C1657 H1689 0.950 . S
C1658 N1654 1.374 . S
C1658 C1657 1.439 . S
C1658 C1683 1.395 . S
N1659 Co1648 1.995 . S
N1659 C1660 1.376 . S
N1659 C1663 1.383 . S
C1660 N1659 1.376 . S
C1660 C1661 1.446 . S
C1660 C1683 1.391 1_554 S
C1661 C1660 1.446 . S
C1661 C1662 1.339 . S
C1661 H1690 0.949 . S
C1662 C1661 1.339 . S
C1662 C1663 1.439 . S
C1662 H1691 0.950 . S
C1663 N1659 1.383 . S
C1663 C1662 1.439 . S
C1663 C1681 1.392 . S
N1664 Co1648 2.282 . S
N1664 C1667 1.332 . S
N1664 C1669 1.332 . S
C1665 C1666 1.386 . S
C1665 C1668 1.388 . S
C1666 C1665 1.386 . S
C1666 C1667 1.382 . S
C1666 H1692 0.950 . S
C1667 N1664 1.332 . S
C1667 C1666 1.382 . S
C1667 H1678 0.952 . S
C1668 C1665 1.388 . S
C1668 C1669 1.382 . S
C1668 H1693 0.959 . S
C1669 N1664 1.332 . S
C1669 C1668 1.382 . S
C1669 H1679 0.948 . S
N1670 Co1648 2.282 . S
N1670 C1674 1.332 . S
N1670 C1675 1.332 . S
C1671 C1672 1.388 . S
C1671 C1675 1.382 . S
C1671 H1694 0.950 . S
C1672 C1671 1.388 . S
C1672 C1673 1.386 . S
C1673 C1672 1.386 . S
C1673 C1674 1.382 . S
C1673 H1695 0.950 . S
C1674 N1670 1.332 . S
C1674 C1673 1.382 . S
C1674 H1676 0.947 1_554 S
C1675 N1670 1.332 . S
C1675 C1671 1.382 . S
C1675 H1677 0.948 . S
H1676 C1674 0.947 1_556 S
H1677 C1675 0.948 . S
H1678 C1667 0.952 . S
H1679 C1669 0.948 . S
C1680 C1646 1.395 . S
C1680 C1650 1.391 1_554 S
C1681 C1643 1.389 . S
C1681 C1663 1.392 . S
C1682 C1653 1.392 . S
C1682 C1655 1.389 . S
C1683 C1658 1.395 . S
C1683 C1660 1.391 1_556 S
H1684 C1644 0.951 . S
H1685 C1645 0.950 . S
H1686 C1651 0.949 . S
H1687 C1652 0.950 . S
H1688 C1656 0.951 . S
H1689 C1657 0.950 . S
H1690 C1661 0.949 . S
H1691 C1662 0.950 . S
H1692 C1666 0.950 . S
H1693 C1668 0.959 . S
H1694 C1671 0.950 . S
H1695 C1673 0.950 . S
H1696 C1704 0.950 . S
H1697 C1709 0.950 . S
H1698 C1706 0.950 . S
H1699 C1708 0.950 . S
H1700 C1710 0.950 . S
H1701 C1712 0.950 . S
H1702 C1714 0.950 . S
H1703 C1715 0.950 . S
C1704 H1696 0.950 . S
C1704 C1705 1.386 . S
C1704 C1706 1.391 . S
C1705 C1704 1.386 . S
C1705 C1709 1.393 . S
C1706 H1698 0.950 . S
C1706 C1704 1.391 . S
C1706 C1707 1.400 . S
C1707 C1706 1.400 . S
C1707 C1708 1.398 . S
C1707 C1713 1.491 . S
C1708 H1699 0.950 . S
C1708 C1707 1.398 . S
C1708 C1709 1.391 . S
C1709 H1697 0.950 . S
C1709 C1705 1.393 . S
C1709 C1708 1.391 . S
C1710 H1700 0.950 . S
C1710 C1711 1.386 . S
C1710 C1712 1.391 . S
C1711 C1710 1.386 . S
C1711 C1715 1.393 . S
C1712 H1701 0.950 . S
C1712 C1710 1.391 . S
C1712 C1713 1.400 . S
C1713 C1707 1.491 . S
C1713 C1712 1.400 . S
C1713 C1714 1.398 . S
C1714 H1702 0.950 . S
C1714 C1713 1.398 . S
C1714 C1715 1.391 . S
C1715 H1703 0.950 . S
C1715 C1711 1.393 . S
C1715 C1714 1.391 . S
H1716 C1724 0.950 . S
H1717 C1729 0.950 . S
H1718 C1726 0.950 . S
H1719 C1728 0.950 . S
H1720 C1730 0.950 . S
H1721 C1732 0.950 . S
H1722 C1734 0.950 . S
H1723 C1735 0.950 . S
C1724 H1716 0.950 . S
C1724 C1725 1.386 . S
C1724 C1726 1.391 . S
C1725 C1724 1.386 . S
C1725 C1729 1.393 . S
C1726 H1718 0.950 . S
C1726 C1724 1.391 . S
C1726 C1727 1.400 . S
C1727 C1726 1.400 . S
C1727 C1728 1.398 . S
C1727 C1733 1.491 . S
C1728 H1719 0.950 . S
C1728 C1727 1.398 . S
C1728 C1729 1.391 . S
C1729 H1717 0.950 . S
C1729 C1725 1.393 . S
C1729 C1728 1.391 . S
C1730 H1720 0.950 . S
C1730 C1731 1.386 . S
C1730 C1732 1.391 . S
C1731 C1730 1.386 . S
C1731 C1735 1.393 . S
C1732 H1721 0.950 . S
C1732 C1730 1.391 . S
C1732 C1733 1.400 . S
C1733 C1727 1.491 . S
C1733 C1732 1.400 . S
C1733 C1734 1.398 . S
C1734 H1722 0.950 . S
C1734 C1733 1.398 . S
C1734 C1735 1.391 . S
C1735 H1723 0.950 . S
C1735 C1731 1.393 . S
C1735 C1734 1.391 . S
H1736 C1744 0.950 . S
H1737 C1749 0.950 . S
H1738 C1746 0.950 . S
H1739 C1748 0.950 . S
H1740 C1750 0.950 . S
H1741 C1752 0.950 . S
H1742 C1754 0.950 . S
H1743 C1755 0.950 . S
C1744 H1736 0.950 . S
C1744 C1745 1.386 . S
C1744 C1746 1.391 . S
C1745 C1744 1.386 . S
C1745 C1749 1.393 . S
C1746 H1738 0.950 . S
C1746 C1744 1.391 . S
C1746 C1747 1.400 . S
C1747 C1746 1.400 . S
C1747 C1748 1.398 . S
C1747 C1753 1.491 . S
C1748 H1739 0.950 . S
C1748 C1747 1.398 . S
C1748 C1749 1.391 . S
C1749 H1737 0.950 . S
C1749 C1745 1.393 . S
C1749 C1748 1.391 . S
C1750 H1740 0.950 . S
C1750 C1751 1.386 . S
C1750 C1752 1.391 . S
C1751 C1750 1.386 . S
C1751 C1755 1.393 . S
C1752 H1741 0.950 . S
C1752 C1750 1.391 . S
C1752 C1753 1.400 . S
C1753 C1747 1.491 . S
C1753 C1752 1.400 . S
C1753 C1754 1.398 . S
C1754 H1742 0.950 . S
C1754 C1753 1.398 . S
C1754 C1755 1.391 . S
C1755 H1743 0.950 . S
C1755 C1751 1.393 . S
C1755 C1754 1.391 . S
H1756 C1764 0.950 . S
H1757 C1769 0.950 . S
H1758 C1766 0.950 . S
H1759 C1768 0.950 . S
H1760 C1770 0.950 . S
H1761 C1772 0.950 . S
H1762 C1774 0.950 . S
H1763 C1775 0.950 . S
C1764 H1756 0.950 . S
C1764 C1765 1.386 . S
C1764 C1766 1.391 . S
C1765 C1764 1.386 . S
C1765 C1769 1.393 . S
C1766 H1758 0.950 . S
C1766 C1764 1.391 . S
C1766 C1767 1.400 . S
C1767 C1766 1.400 . S
C1767 C1768 1.398 . S
C1767 C1773 1.491 . S
C1768 H1759 0.950 . S
C1768 C1767 1.398 . S
C1768 C1769 1.391 . S
C1769 H1757 0.950 . S
C1769 C1765 1.393 . S
C1769 C1768 1.391 . S
C1770 H1760 0.950 . S
C1770 C1771 1.386 . S
C1770 C1772 1.391 . S
C1771 C1770 1.386 . S
C1771 C1775 1.393 . S
C1772 H1761 0.950 . S
C1772 C1770 1.391 . S
C1772 C1773 1.400 . S
C1773 C1767 1.491 . S
C1773 C1772 1.400 . S
C1773 C1774 1.398 . S
C1774 H1762 0.950 . S
C1774 C1773 1.398 . S
C1774 C1775 1.391 . S
C1775 H1763 0.950 . S
C1775 C1771 1.393 . S
C1775 C1774 1.391 . S
H1776 C1784 0.950 . S
H1777 C1789 0.950 . S
H1778 C1786 0.950 . S
H1779 C1788 0.950 . S
H1780 C1790 0.950 . S
H1781 C1792 0.950 . S
H1782 C1794 0.950 . S
H1783 C1795 0.950 . S
C1784 H1776 0.950 . S
C1784 C1785 1.386 . S
C1784 C1786 1.391 . S
C1785 C1784 1.386 . S
C1785 C1789 1.393 . S
C1786 H1778 0.950 . S
C1786 C1784 1.391 . S
C1786 C1787 1.400 . S
C1787 C1786 1.400 . S
C1787 C1788 1.398 . S
C1787 C1793 1.491 . S
C1788 H1779 0.950 . S
C1788 C1787 1.398 . S
C1788 C1789 1.391 . S
C1789 H1777 0.950 . S
C1789 C1785 1.393 . S
C1789 C1788 1.391 . S
C1790 H1780 0.950 . S
C1790 C1791 1.386 . S
C1790 C1792 1.391 . S
C1791 C1790 1.386 . S
C1791 C1795 1.393 . S
C1792 H1781 0.950 . S
C1792 C1790 1.391 . S
C1792 C1793 1.400 . S
C1793 C1787 1.491 . S
C1793 C1792 1.400 . S
C1793 C1794 1.398 . S
C1794 H1782 0.950 . S
C1794 C1793 1.398 . S
C1794 C1795 1.391 . S
C1795 H1783 0.950 . S
C1795 C1791 1.393 . S
C1795 C1794 1.391 . S
H1796 C1804 0.950 . S
H1797 C1809 0.950 . S
H1798 C1806 0.950 . S
H1799 C1808 0.950 . S
H1800 C1810 0.950 . S
H1801 C1812 0.950 . S
H1802 C1814 0.950 . S
H1803 C1815 0.950 . S
C1804 H1796 0.950 . S
C1804 C1805 1.386 . S
C1804 C1806 1.391 . S
C1805 C1804 1.386 . S
C1805 C1809 1.393 . S
C1806 H1798 0.950 . S
C1806 C1804 1.391 . S
C1806 C1807 1.400 . S
C1807 C1806 1.400 . S
C1807 C1808 1.398 . S
C1807 C1813 1.491 . S
C1808 H1799 0.950 . S
C1808 C1807 1.398 . S
C1808 C1809 1.391 . S
C1809 H1797 0.950 . S
C1809 C1805 1.393 . S
C1809 C1808 1.391 . S
C1810 H1800 0.950 . S
C1810 C1811 1.386 . S
C1810 C1812 1.391 . S
C1811 C1810 1.386 . S
C1811 C1815 1.393 . S
C1812 H1801 0.950 . S
C1812 C1810 1.391 . S
C1812 C1813 1.400 . S
C1813 C1807 1.491 . S
C1813 C1812 1.400 . S
C1813 C1814 1.398 . S
C1814 H1802 0.950 . S
C1814 C1813 1.398 . S
C1814 C1815 1.391 . S
C1815 H1803 0.950 . S
C1815 C1811 1.393 . S
C1815 C1814 1.391 . S
H1816 C1824 0.950 . S
H1817 C1829 0.950 . S
H1818 C1826 0.950 . S
H1819 C1828 0.950 . S
H1820 C1830 0.950 . S
H1821 C1832 0.950 . S
H1822 C1834 0.950 . S
H1823 C1835 0.950 . S
C1824 H1816 0.950 . S
C1824 C1825 1.386 . S
C1824 C1826 1.391 . S
C1825 C1824 1.386 . S
C1825 C1829 1.393 . S
C1826 H1818 0.950 . S
C1826 C1824 1.391 . S
C1826 C1827 1.400 . S
C1827 C1826 1.400 . S
C1827 C1828 1.398 . S
C1827 C1833 1.491 . S
C1828 H1819 0.950 . S
C1828 C1827 1.398 . S
C1828 C1829 1.391 . S
C1829 H1817 0.950 . S
C1829 C1825 1.393 . S
C1829 C1828 1.391 . S
C1830 H1820 0.950 . S
C1830 C1831 1.386 . S
C1830 C1832 1.391 . S
C1831 C1830 1.386 . S
C1831 C1835 1.393 . S
C1832 H1821 0.950 . S
C1832 C1830 1.391 . S
C1832 C1833 1.400 . S
C1833 C1827 1.491 . S
C1833 C1832 1.400 . S
C1833 C1834 1.398 . S
C1834 H1822 0.950 . S
C1834 C1833 1.398 . S
C1834 C1835 1.391 . S
C1835 H1823 0.950 . S
C1835 C1831 1.393 . S
C1835 C1834 1.391 . S
H1836 C1844 0.950 . S
H1837 C1849 0.950 . S
H1838 C1846 0.950 . S
H1839 C1848 0.950 . S
H1840 C1850 0.950 . S
H1841 C1852 0.950 . S
H1842 C1854 0.950 . S
H1843 C1855 0.950 . S
C1844 H1836 0.950 . S
C1844 C1845 1.386 . S
C1844 C1846 1.391 . S
C1845 C1844 1.386 . S
C1845 C1849 1.393 . S
C1846 H1838 0.950 . S
C1846 C1844 1.391 . S
C1846 C1847 1.400 . S
C1847 C1846 1.400 . S
C1847 C1848 1.398 . S
C1847 C1853 1.491 . S
C1848 H1839 0.950 . S
C1848 C1847 1.398 . S
C1848 C1849 1.391 . S
C1849 H1837 0.950 . S
C1849 C1845 1.393 . S
C1849 C1848 1.391 . S
C1850 H1840 0.950 . S
C1850 C1851 1.386 . S
C1850 C1852 1.391 . S
C1851 C1850 1.386 . S
C1851 C1855 1.393 . S
C1852 H1841 0.950 . S
C1852 C1850 1.391 . S
C1852 C1853 1.400 . S
C1853 C1847 1.491 . S
C1853 C1852 1.400 . S
C1853 C1854 1.398 . S
C1854 H1842 0.950 . S
C1854 C1853 1.398 . S
C1854 C1855 1.391 . S
C1855 H1843 0.950 . S
C1855 C1851 1.393 . S
C1855 C1854 1.391 . S
H1856 C1864 0.950 . S
H1857 C1869 0.950 . S
H1858 C1866 0.950 . S
H1859 C1868 0.950 . S
H1860 C1870 0.950 . S
H1861 C1872 0.950 . S
H1862 C1874 0.950 . S
H1863 C1875 0.950 . S
C1864 H1856 0.950 . S
C1864 C1865 1.386 . S
C1864 C1866 1.391 . S
C1865 C1864 1.386 . S
C1865 C1869 1.393 . S
C1866 H1858 0.950 . S
C1866 C1864 1.391 . S
C1866 C1867 1.400 . S
C1867 C1866 1.400 . S
C1867 C1868 1.398 . S
C1867 C1873 1.491 . S
C1868 H1859 0.950 . S
C1868 C1867 1.398 . S
C1868 C1869 1.391 . S
C1869 H1857 0.950 . S
C1869 C1865 1.393 . S
C1869 C1868 1.391 . S
C1870 H1860 0.950 . S
C1870 C1871 1.386 . S
C1870 C1872 1.391 . S
C1871 C1870 1.386 . S
C1871 C1875 1.393 . S
C1872 H1861 0.950 . S
C1872 C1870 1.391 . S
C1872 C1873 1.400 . S
C1873 C1867 1.491 . S
C1873 C1872 1.400 . S
C1873 C1874 1.398 . S
C1874 H1862 0.950 . S
C1874 C1873 1.398 . S
C1874 C1875 1.391 . S
C1875 H1863 0.950 . S
C1875 C1871 1.393 . S
C1875 C1874 1.391 . S
H1876 C1884 0.950 . S
H1877 C1889 0.950 . S
H1878 C1886 0.950 . S
H1879 C1888 0.950 . S
H1880 C1890 0.950 . S
H1881 C1892 0.950 . S
H1882 C1894 0.950 . S
H1883 C1895 0.950 . S
C1884 H1876 0.950 . S
C1884 C1885 1.386 . S
C1884 C1886 1.391 . S
C1885 C1884 1.386 . S
C1885 C1889 1.393 . S
C1886 H1878 0.950 . S
C1886 C1884 1.391 . S
C1886 C1887 1.400 . S
C1887 C1886 1.400 . S
C1887 C1888 1.398 . S
C1887 C1893 1.491 . S
C1888 H1879 0.950 . S
C1888 C1887 1.398 . S
C1888 C1889 1.391 . S
C1889 H1877 0.950 . S
C1889 C1885 1.393 . S
C1889 C1888 1.391 . S
C1890 H1880 0.950 . S
C1890 C1891 1.386 . S
C1890 C1892 1.391 . S
C1891 C1890 1.386 . S
C1891 C1895 1.393 . S
C1892 H1881 0.950 . S
C1892 C1890 1.391 . S
C1892 C1893 1.400 . S
C1893 C1887 1.491 . S
C1893 C1892 1.400 . S
C1893 C1894 1.398 . S
C1894 H1882 0.950 . S
C1894 C1893 1.398 . S
C1894 C1895 1.391 . S
C1895 H1883 0.950 . S
C1895 C1891 1.393 . S
C1895 C1894 1.391 . S
H1896 C1904 0.950 . S
H1897 C1909 0.950 . S
H1898 C1906 0.950 . S
H1899 C1908 0.950 . S
H1900 C1910 0.950 . S
H1901 C1912 0.950 . S
H1902 C1914 0.950 . S
H1903 C1915 0.950 . S
C1904 H1896 0.950 . S
C1904 C1905 1.386 . S
C1904 C1906 1.391 . S
C1905 C1904 1.386 . S
C1905 C1909 1.393 . S
C1906 H1898 0.950 . S
C1906 C1904 1.391 . S
C1906 C1907 1.400 . S
C1907 C1906 1.400 . S
C1907 C1908 1.398 . S
C1907 C1913 1.491 . S
C1908 H1899 0.950 . S
C1908 C1907 1.398 . S
C1908 C1909 1.391 . S
C1909 H1897 0.950 . S
C1909 C1905 1.393 . S
C1909 C1908 1.391 . S
C1910 H1900 0.950 . S
C1910 C1911 1.386 . S
C1910 C1912 1.391 . S
C1911 C1910 1.386 . S
C1911 C1915 1.393 . S
C1912 H1901 0.950 . S
C1912 C1910 1.391 . S
C1912 C1913 1.400 . S
C1913 C1907 1.491 . S
C1913 C1912 1.400 . S
C1913 C1914 1.398 . S
C1914 H1902 0.950 . S
C1914 C1913 1.398 . S
C1914 C1915 1.391 . S
C1915 H1903 0.950 . S
C1915 C1911 1.393 . S
C1915 C1914 1.391 . S
H1916 C1924 0.950 . S
H1917 C1929 0.950 . S
H1918 C1926 0.950 . S
H1919 C1928 0.950 . S
H1920 C1930 0.950 . S
H1921 C1932 0.950 . S
H1922 C1934 0.950 . S
H1923 C1935 0.950 . S
C1924 H1916 0.950 . S
C1924 C1925 1.386 . S
C1924 C1926 1.391 . S
C1925 C1924 1.386 . S
C1925 C1929 1.393 . S
C1926 H1918 0.950 . S
C1926 C1924 1.391 . S
C1926 C1927 1.400 . S
C1927 C1926 1.400 . S
C1927 C1928 1.398 . S
C1927 C1933 1.491 . S
C1928 H1919 0.950 . S
C1928 C1927 1.398 . S
C1928 C1929 1.391 . S
C1929 H1917 0.950 . S
C1929 C1925 1.393 . S
C1929 C1928 1.391 . S
C1930 H1920 0.950 . S
C1930 C1931 1.386 . S
C1930 C1932 1.391 . S
C1931 C1930 1.386 . S
C1931 C1935 1.393 . S
C1932 H1921 0.950 . S
C1932 C1930 1.391 . S
C1932 C1933 1.400 . S
C1933 C1927 1.491 . S
C1933 C1932 1.400 . S
C1933 C1934 1.398 . S
C1934 H1922 0.950 . S
C1934 C1933 1.398 . S
C1934 C1935 1.391 . S
C1935 H1923 0.950 . S
C1935 C1931 1.393 . S
C1935 C1934 1.391 . S
H1936 C1944 0.950 . S
H1937 C1949 0.950 . S
H1938 C1946 0.950 . S
H1939 C1948 0.950 . S
H1940 C1950 0.950 . S
H1941 C1952 0.950 . S
H1942 C1954 0.950 . S
H1943 C1955 0.950 . S
C1944 H1936 0.950 . S
C1944 C1945 1.386 . S
C1944 C1946 1.391 . S
C1945 C1944 1.386 . S
C1945 C1949 1.393 . S
C1946 H1938 0.950 . S
C1946 C1944 1.391 . S
C1946 C1947 1.400 . S
C1947 C1946 1.400 . S
C1947 C1948 1.398 . S
C1947 C1953 1.491 . S
C1948 H1939 0.950 . S
C1948 C1947 1.398 . S
C1948 C1949 1.391 . S
C1949 H1937 0.950 . S
C1949 C1945 1.393 . S
C1949 C1948 1.391 . S
C1950 H1940 0.950 . S
C1950 C1951 1.386 . S
C1950 C1952 1.391 . S
C1951 C1950 1.386 . S
C1951 C1955 1.393 . S
C1952 H1941 0.950 . S
C1952 C1950 1.391 . S
C1952 C1953 1.400 . S
C1953 C1947 1.491 . S
C1953 C1952 1.400 . S
C1953 C1954 1.398 . S
C1954 H1942 0.950 . S
C1954 C1953 1.398 . S
C1954 C1955 1.391 . S
C1955 H1943 0.950 . S
C1955 C1951 1.393 . S
C1955 C1954 1.391 . S
H1956 C1964 0.950 . S
H1957 C1969 0.950 . S
H1958 C1966 0.950 . S
H1959 C1968 0.950 . S
H1960 C1970 0.950 . S
H1961 C1972 0.950 . S
H1962 C1974 0.950 . S
H1963 C1975 0.950 . S
C1964 H1956 0.950 . S
C1964 C1965 1.386 . S
C1964 C1966 1.391 . S
C1965 C1964 1.386 . S
C1965 C1969 1.393 . S
C1966 H1958 0.950 . S
C1966 C1964 1.391 . S
C1966 C1967 1.400 . S
C1967 C1966 1.400 . S
C1967 C1968 1.398 . S
C1967 C1973 1.491 . S
C1968 H1959 0.950 . S
C1968 C1967 1.398 . S
C1968 C1969 1.391 . S
C1969 H1957 0.950 . S
C1969 C1965 1.393 . S
C1969 C1968 1.391 . S
C1970 H1960 0.950 . S
C1970 C1971 1.386 . S
C1970 C1972 1.391 . S
C1971 C1970 1.386 . S
C1971 C1975 1.393 . S
C1972 H1961 0.950 . S
C1972 C1970 1.391 . S
C1972 C1973 1.400 . S
C1973 C1967 1.491 . S
C1973 C1972 1.400 . S
C1973 C1974 1.398 . S
C1974 H1962 0.950 . S
C1974 C1973 1.398 . S
C1974 C1975 1.391 . S
C1975 H1963 0.950 . S
C1975 C1971 1.393 . S
C1975 C1974 1.391 . S
H1976 C1984 0.950 . S
H1977 C1989 0.950 . S
H1978 C1986 0.950 . S
H1979 C1988 0.950 . S
H1980 C1990 0.950 . S
H1981 C1992 0.950 . S
H1982 C1994 0.950 . S
H1983 C1995 0.950 . S
C1984 H1976 0.950 . S
C1984 C1985 1.386 . S
C1984 C1986 1.391 . S
C1985 C1984 1.386 . S
C1985 C1989 1.393 . S
C1986 H1978 0.950 . S
C1986 C1984 1.391 . S
C1986 C1987 1.400 . S
C1987 C1986 1.400 . S
C1987 C1988 1.398 . S
C1987 C1993 1.491 . S
C1988 H1979 0.950 . S
C1988 C1987 1.398 . S
C1988 C1989 1.391 . S
C1989 H1977 0.950 . S
C1989 C1985 1.393 . S
C1989 C1988 1.391 . S
C1990 H1980 0.950 . S
C1990 C1991 1.386 . S
C1990 C1992 1.391 . S
C1991 C1990 1.386 . S
C1991 C1995 1.393 . S
C1992 H1981 0.950 . S
C1992 C1990 1.391 . S
C1992 C1993 1.400 . S
C1993 C1987 1.491 . S
C1993 C1992 1.400 . S
C1993 C1994 1.398 . S
C1994 H1982 0.950 . S
C1994 C1993 1.398 . S
C1994 C1995 1.391 . S
C1995 H1983 0.950 . S
C1995 C1991 1.393 . S
C1995 C1994 1.391 . S
H1996 C2004 0.950 . S
H1997 C2009 0.950 . S
H1998 C2006 0.950 . S
H1999 C2008 0.950 . S
H2000 C2010 0.950 . S
H2001 C2012 0.950 . S
H2002 C2014 0.950 . S
H2003 C2015 0.950 . S
C2004 H1996 0.950 . S
C2004 C2005 1.386 . S
C2004 C2006 1.391 . S
C2005 C2004 1.386 . S
C2005 C2009 1.393 . S
C2006 H1998 0.950 . S
C2006 C2004 1.391 . S
C2006 C2007 1.400 . S
C2007 C2006 1.400 . S
C2007 C2008 1.398 . S
C2007 C2013 1.491 . S
C2008 H1999 0.950 . S
C2008 C2007 1.398 . S
C2008 C2009 1.391 . S
C2009 H1997 0.950 . S
C2009 C2005 1.393 . S
C2009 C2008 1.391 . S
C2010 H2000 0.950 . S
C2010 C2011 1.386 . S
C2010 C2012 1.391 . S
C2011 C2010 1.386 . S
C2011 C2015 1.393 . S
C2012 H2001 0.950 . S
C2012 C2010 1.391 . S
C2012 C2013 1.400 . S
C2013 C2007 1.491 . S
C2013 C2012 1.400 . S
C2013 C2014 1.398 . S
C2014 H2002 0.950 . S
C2014 C2013 1.398 . S
C2014 C2015 1.391 . S
C2015 H2003 0.950 . S
C2015 C2011 1.393 . S
C2015 C2014 1.391 . S
H2016 C2024 0.950 . S
H2017 C2029 0.950 . S
H2018 C2026 0.950 . S
H2019 C2028 0.950 1_455 S
H2020 C2030 0.950 . S
H2021 C2032 0.950 . S
H2022 C2034 0.950 1_655 S
H2023 C2035 0.950 . S
C2024 H2016 0.950 . S
C2024 C2025 1.386 . S
C2024 C2026 1.391 . S
C2025 C2024 1.386 . S
C2025 C2029 1.393 . S
C2026 H2018 0.950 . S
C2026 C2024 1.391 . S
C2026 C2027 1.400 . S
C2027 C2026 1.400 . S
C2027 C2028 1.398 . S
C2027 C2033 1.491 1_655 S
C2028 H2019 0.950 1_655 S
C2028 C2027 1.398 . S
C2028 C2029 1.391 . S
C2029 H2017 0.950 . S
C2029 C2025 1.393 . S
C2029 C2028 1.391 . S
C2030 H2020 0.950 . S
C2030 C2031 1.386 . S
C2030 C2032 1.391 . S
C2031 C2030 1.386 . S
C2031 C2035 1.393 . S
C2032 H2021 0.950 . S
C2032 C2030 1.391 . S
C2032 C2033 1.400 . S
C2033 C2027 1.491 1_455 S
C2033 C2032 1.400 . S
C2033 C2034 1.398 . S
C2034 H2022 0.950 1_455 S
C2034 C2033 1.398 . S
C2034 C2035 1.391 . S
C2035 H2023 0.950 . S
C2035 C2031 1.393 . S
C2035 C2034 1.391 . S
H2036 C2044 0.950 . S
H2037 C2049 0.950 . S
H2038 C2046 0.950 1_545 S
H2039 C2048 0.950 . S
H2040 C2050 0.950 . S
H2041 C2052 0.950 1_565 S
H2042 C2054 0.950 . S
H2043 C2055 0.950 . S
C2044 H2036 0.950 . S
C2044 C2045 1.386 . S
C2044 C2046 1.391 . S
C2045 C2044 1.386 . S
C2045 C2049 1.393 . S
C2046 H2038 0.950 1_565 S
C2046 C2044 1.391 . S
C2046 C2047 1.400 . S
C2047 C2046 1.400 . S
C2047 C2048 1.398 . S
C2047 C2053 1.491 1_565 S
C2048 H2039 0.950 . S
C2048 C2047 1.398 . S
C2048 C2049 1.391 . S
C2049 H2037 0.950 . S
C2049 C2045 1.393 . S
C2049 C2048 1.391 . S
C2050 H2040 0.950 . S
C2050 C2051 1.386 . S
C2050 C2052 1.391 . S
C2051 C2050 1.386 . S
C2051 C2055 1.393 . S
C2052 H2041 0.950 1_545 S
C2052 C2050 1.391 . S
C2052 C2053 1.400 . S
C2053 C2047 1.491 1_545 S
C2053 C2052 1.400 . S
C2053 C2054 1.398 . S
C2054 H2042 0.950 . S
C2054 C2053 1.398 . S
C2054 C2055 1.391 . S
C2055 H2043 0.950 . S
C2055 C2051 1.393 . S
C2055 C2054 1.391 . S
H2056 C2064 0.950 . S
H2057 C2069 0.950 . S
H2058 C2066 0.950 1_545 S
H2059 C2068 0.950 . S
H2060 C2070 0.950 . S
H2061 C2072 0.950 1_565 S
H2062 C2074 0.950 . S
H2063 C2075 0.950 . S
C2064 H2056 0.950 . S
C2064 C2065 1.386 1_554 S
C2064 C2066 1.391 . S
C2065 C2064 1.386 1_556 S
C2065 C2069 1.393 . S
C2066 H2058 0.950 1_565 S
C2066 C2064 1.391 . S
C2066 C2067 1.370 1_554 S
C2067 C2066 1.370 1_556 S
C2067 C2068 1.433 . S
C2067 C2073 1.487 1_466 S
C2068 H2059 0.950 . S
C2068 C2067 1.433 . S
C2068 C2069 1.391 . S
C2069 H2057 0.950 . S
C2069 C2065 1.393 . S
C2069 C2068 1.391 . S
C2070 H2060 0.950 . S
C2070 C2071 1.386 1_556 S
C2070 C2072 1.391 . S
C2071 C2070 1.386 1_554 S
C2071 C2075 1.393 . S
C2072 H2061 0.950 1_545 S
C2072 C2070 1.391 . S
C2072 C2073 1.370 1_556 S
C2073 C2067 1.487 1_644 S
C2073 C2072 1.370 1_554 S
C2073 C2074 1.433 . S
C2074 H2062 0.950 . S
C2074 C2073 1.433 . S
C2074 C2075 1.391 . S
C2075 H2063 0.950 . S
C2075 C2071 1.393 . S
C2075 C2074 1.391 . S
H2076 C2084 0.950 . S
H2077 C2089 0.955 . S
H2078 C2086 0.950 . S
H2079 C2088 0.950 . S
H2080 C2090 0.950 . S
H2081 C2092 0.950 . S
H2082 C2094 0.950 . S
H2083 C2095 0.955 . S
C2084 H2076 0.950 . S
C2084 C2085 1.386 . S
C2084 C2086 1.391 . S
C2085 C2084 1.386 . S
C2085 C2089 1.387 1_554 S
C2086 H2078 0.950 . S
C2086 C2084 1.391 . S
C2086 C2087 1.412 . S
C2087 C2086 1.412 . S
C2087 C2088 1.393 1_554 S
C2087 C2093 1.486 1_554 S
C2088 H2079 0.950 . S
C2088 C2087 1.393 1_556 S
C2088 C2089 1.392 . S
C2089 H2077 0.955 . S
C2089 C2085 1.387 1_556 S
C2089 C2088 1.392 . S
C2090 H2080 0.950 . S
C2090 C2091 1.386 . S
C2090 C2092 1.391 . S
C2091 C2090 1.386 . S
C2091 C2095 1.387 1_556 S
C2092 H2081 0.950 . S
C2092 C2090 1.391 . S
C2092 C2093 1.412 . S
C2093 C2087 1.486 1_556 S
C2093 C2092 1.412 . S
C2093 C2094 1.393 1_556 S
C2094 H2082 0.950 . S
C2094 C2093 1.393 1_554 S
C2094 C2095 1.392 . S
C2095 H2083 0.955 . S
C2095 C2091 1.387 1_554 S
C2095 C2094 1.392 . S
H2096 C2104 0.950 . S
H2097 C2109 0.950 . S
H2098 C2106 0.950 . S
H2099 C2108 0.950 . S
H2100 C2110 0.950 . S
H2101 C2112 0.950 . S
H2102 C2114 0.950 . S
H2103 C2115 0.950 . S
C2104 H2096 0.950 . S
C2104 C2105 1.386 . S
C2104 C2106 1.391 . S
C2105 C2104 1.386 . S
C2105 C2109 1.393 . S
C2106 H2098 0.950 . S
C2106 C2104 1.391 . S
C2106 C2107 1.400 . S
C2107 C2106 1.400 . S
C2107 C2108 1.398 . S
C2107 C2113 1.491 1_655 S
C2108 H2099 0.950 . S
C2108 C2107 1.398 . S
C2108 C2109 1.391 . S
C2109 H2097 0.950 . S
C2109 C2105 1.393 . S
C2109 C2108 1.391 . S
C2110 H2100 0.950 . S
C2110 C2111 1.386 . S
C2110 C2112 1.391 . S
C2111 C2110 1.386 . S
C2111 C2115 1.393 . S
C2112 H2101 0.950 . S
C2112 C2110 1.391 . S
C2112 C2113 1.400 . S
C2113 C2107 1.491 1_455 S
C2113 C2112 1.400 . S
C2113 C2114 1.398 . S
C2114 H2102 0.950 . S
C2114 C2113 1.398 . S
C2114 C2115 1.391 . S
C2115 H2103 0.950 . S
C2115 C2111 1.393 . S
C2115 C2114 1.391 . S
H2116 C2124 0.950 . S
H2117 C2129 0.950 . S
H2118 C2126 0.950 . S
H2119 C2128 0.950 . S
H2120 C2130 0.950 . S
H2121 C2132 0.950 . S
H2122 C2134 0.950 . S
H2123 C2135 0.950 . S
C2124 H2116 0.950 . S
C2124 C2125 1.386 . S
C2124 C2126 1.391 1_565 S
C2125 C2124 1.386 . S
C2125 C2129 1.393 . S
C2126 H2118 0.950 . S
C2126 C2124 1.391 1_545 S
C2126 C2127 1.400 1_545 S
C2127 C2126 1.400 1_565 S
C2127 C2128 1.398 . S
C2127 C2133 1.491 1_565 S
C2128 H2119 0.950 . S
C2128 C2127 1.398 . S
C2128 C2129 1.391 . S
C2129 H2117 0.950 . S
C2129 C2125 1.393 . S
C2129 C2128 1.391 . S
C2130 H2120 0.950 . S
C2130 C2131 1.386 . S
C2130 C2132 1.391 1_545 S
C2131 C2130 1.386 . S
C2131 C2135 1.393 . S
C2132 H2121 0.950 . S
C2132 C2130 1.391 1_565 S
C2132 C2133 1.400 1_565 S
C2133 C2127 1.491 1_545 S
C2133 C2132 1.400 1_545 S
C2133 C2134 1.398 . S
C2134 H2122 0.950 . S
C2134 C2133 1.398 . S
C2134 C2135 1.391 . S
C2135 H2123 0.950 . S
C2135 C2131 1.393 . S
C2135 C2134 1.391 . S
H2136 C2144 0.950 . S
H2137 C2149 0.950 . S
H2138 C2146 0.950 . S
H2139 C2148 0.950 . S
H2140 C2150 0.950 . S
H2141 C2152 0.950 . S
H2142 C2154 0.950 . S
H2143 C2155 0.950 . S
C2144 H2136 0.950 . S
C2144 C2145 1.386 . S
C2144 C2146 1.391 . S
C2145 C2144 1.386 . S
C2145 C2149 1.393 1_556 S
C2146 H2138 0.950 . S
C2146 C2144 1.391 . S
C2146 C2147 1.404 . S
C2147 C2146 1.404 . S
C2147 C2148 1.394 1_556 S
C2147 C2153 1.490 1_556 S
C2148 H2139 0.950 . S
C2148 C2147 1.394 1_554 S
C2148 C2149 1.391 . S
C2149 H2137 0.950 . S
C2149 C2145 1.393 1_554 S
C2149 C2148 1.391 . S
C2150 H2140 0.950 . S
C2150 C2151 1.386 . S
C2150 C2152 1.391 . S
C2151 C2150 1.386 . S
C2151 C2155 1.393 1_554 S
C2152 H2141 0.950 . S
C2152 C2150 1.391 . S
C2152 C2153 1.404 . S
C2153 C2147 1.490 1_554 S
C2153 C2152 1.404 . S
C2153 C2154 1.394 1_554 S
C2154 H2142 0.950 . S
C2154 C2153 1.394 1_556 S
C2154 C2155 1.391 . S
C2155 H2143 0.950 . S
C2155 C2151 1.393 1_556 S
C2155 C2154 1.391 . S
H2156 C2164 0.950 . S
H2157 C2169 0.950 . S
H2158 C2166 0.950 . S
H2159 C2168 0.950 . S
H2160 C2170 0.950 . S
H2161 C2172 0.950 . S
H2162 C2174 0.950 . S
H2163 C2175 0.950 . S
C2164 H2156 0.950 . S
C2164 C2165 1.386 . S
C2164 C2166 1.391 . S
C2165 C2164 1.386 . S
C2165 C2169 1.393 . S
C2166 H2158 0.950 . S
C2166 C2164 1.391 . S
C2166 C2167 1.400 . S
C2167 C2166 1.400 . S
C2167 C2168 1.398 . S
C2167 C2173 1.491 . S
C2168 H2159 0.950 . S
C2168 C2167 1.398 . S
C2168 C2169 1.391 . S
C2169 H2157 0.950 . S
C2169 C2165 1.393 . S
C2169 C2168 1.391 . S
C2170 H2160 0.950 . S
C2170 C2171 1.386 . S
C2170 C2172 1.391 . S
C2171 C2170 1.386 . S
C2171 C2175 1.393 . S
C2172 H2161 0.950 . S
C2172 C2170 1.391 . S
C2172 C2173 1.400 . S
C2173 C2167 1.491 . S
C2173 C2172 1.400 . S
C2173 C2174 1.398 . S
C2174 H2162 0.950 . S
C2174 C2173 1.398 . S
C2174 C2175 1.391 . S
C2175 H2163 0.950 . S
C2175 C2171 1.393 . S
C2175 C2174 1.391 . S
H2176 C2184 0.950 . S
H2177 C2189 0.950 . S
H2178 C2186 0.950 . S
H2179 C2188 0.928 1_455 S
H2180 C2190 0.950 . S
H2181 C2192 0.950 . S
H2182 C2194 0.928 1_655 S
H2183 C2195 0.950 . S
C2184 H2176 0.950 . S
C2184 C2185 1.386 . S
C2184 C2186 1.391 . S
C2185 C2184 1.386 . S
C2185 C2189 1.393 . S
C2186 H2178 0.950 . S
C2186 C2184 1.391 . S
C2186 C2187 1.400 . S
C2187 C2186 1.400 . S
C2187 C2188 1.398 . S
C2187 C2193 1.491 1_655 S
C2188 H2179 0.928 1_655 S
C2188 C2187 1.398 . S
C2188 C2189 1.391 . S
C2189 H2177 0.950 . S
C2189 C2185 1.393 . S
C2189 C2188 1.391 . S
C2190 H2180 0.950 . S
C2190 C2191 1.386 . S
C2190 C2192 1.391 . S
C2191 C2190 1.386 . S
C2191 C2195 1.393 . S
C2192 H2181 0.950 . S
C2192 C2190 1.391 . S
C2192 C2193 1.400 . S
C2193 C2187 1.491 1_455 S
C2193 C2192 1.400 . S
C2193 C2194 1.398 . S
C2194 H2182 0.928 1_455 S
C2194 C2193 1.398 . S
C2194 C2195 1.391 . S
C2195 H2183 0.950 . S
C2195 C2191 1.393 . S
C2195 C2194 1.391 . S
H2196 C2204 0.950 . S
H2197 C2209 0.950 . S
H2198 C2206 0.950 . S
H2199 C2208 0.950 . S
H2200 C2210 0.950 . S
H2201 C2212 0.950 . S
H2202 C2214 0.950 . S
H2203 C2215 0.950 . S
C2204 H2196 0.950 . S
C2204 C2205 1.386 . S
C2204 C2206 1.391 . S
C2205 C2204 1.386 . S
C2205 C2209 1.393 . S
C2206 H2198 0.950 . S
C2206 C2204 1.391 . S
C2206 C2207 1.400 . S
C2207 C2206 1.400 . S
C2207 C2208 1.398 . S
C2207 C2213 1.491 . S
C2208 H2199 0.950 . S
C2208 C2207 1.398 . S
C2208 C2209 1.391 . S
C2209 H2197 0.950 . S
C2209 C2205 1.393 . S
C2209 C2208 1.391 . S
C2210 H2200 0.950 . S
C2210 C2211 1.386 . S
C2210 C2212 1.391 . S
C2211 C2210 1.386 . S
C2211 C2215 1.393 . S
C2212 H2201 0.950 . S
C2212 C2210 1.391 . S
C2212 C2213 1.400 . S
C2213 C2207 1.491 . S
C2213 C2212 1.400 . S
C2213 C2214 1.398 . S
C2214 H2202 0.950 . S
C2214 C2213 1.398 . S
C2214 C2215 1.391 . S
C2215 H2203 0.950 . S
C2215 C2211 1.393 . S
C2215 C2214 1.391 . S
H2216 C2224 0.950 . S
H2217 C2229 0.950 . S
H2218 C2226 0.950 . S
H2219 C2228 0.950 . S
H2220 C2230 0.950 . S
H2221 C2232 0.950 . S
H2222 C2234 0.950 . S
H2223 C2235 0.950 . S
C2224 H2216 0.950 . S
C2224 C2225 1.386 . S
C2224 C2226 1.391 . S
C2225 C2224 1.386 . S
C2225 C2229 1.393 . S
C2226 H2218 0.950 . S
C2226 C2224 1.391 . S
C2226 C2227 1.400 . S
C2227 C2226 1.400 . S
C2227 C2228 1.398 . S
C2227 C2233 1.491 . S
C2228 H2219 0.950 . S
C2228 C2227 1.398 . S
C2228 C2229 1.391 . S
C2229 H2217 0.950 . S
C2229 C2225 1.393 . S
C2229 C2228 1.391 . S
C2230 H2220 0.950 . S
C2230 C2231 1.386 . S
C2230 C2232 1.391 . S
C2231 C2230 1.386 . S
C2231 C2235 1.393 . S
C2232 H2221 0.950 . S
C2232 C2230 1.391 . S
C2232 C2233 1.400 . S
C2233 C2227 1.491 . S
C2233 C2232 1.400 . S
C2233 C2234 1.398 . S
C2234 H2222 0.950 . S
C2234 C2233 1.398 . S
C2234 C2235 1.391 . S
C2235 H2223 0.950 . S
C2235 C2231 1.393 . S
C2235 C2234 1.391 . S
H2236 C2244 0.950 . S
H2237 C2249 0.950 . S
H2238 C2246 0.950 . S
H2239 C2248 0.950 . S
H2240 C2250 0.950 . S
H2241 C2252 0.950 . S
H2242 C2254 0.950 . S
H2243 C2255 0.950 . S
C2244 H2236 0.950 . S
C2244 C2245 1.386 . S
C2244 C2246 1.391 . S
C2245 C2244 1.386 . S
C2245 C2249 1.393 . S
C2246 H2238 0.950 . S
C2246 C2244 1.391 . S
C2246 C2247 1.400 . S
C2247 C2246 1.400 . S
C2247 C2248 1.398 . S
C2247 C2253 1.491 . S
C2248 H2239 0.950 . S
C2248 C2247 1.398 . S
C2248 C2249 1.391 . S
C2249 H2237 0.950 . S
C2249 C2245 1.393 . S
C2249 C2248 1.391 . S
C2250 H2240 0.950 . S
C2250 C2251 1.386 . S
C2250 C2252 1.391 . S
C2251 C2250 1.386 . S
C2251 C2255 1.393 . S
C2252 H2241 0.950 . S
C2252 C2250 1.391 . S
C2252 C2253 1.400 . S
C2253 C2247 1.491 . S
C2253 C2252 1.400 . S
C2253 C2254 1.398 . S
C2254 H2242 0.950 . S
C2254 C2253 1.398 . S
C2254 C2255 1.391 . S
C2255 H2243 0.950 . S
C2255 C2251 1.393 . S
C2255 C2254 1.391 . S
H2256 C2264 0.950 . S
H2257 C2269 0.950 . S
H2258 C2266 0.950 . S
H2259 C2268 0.950 . S
H2260 C2270 0.950 . S
H2261 C2272 0.950 . S
H2262 C2274 0.950 . S
H2263 C2275 0.950 . S
C2264 H2256 0.950 . S
C2264 C2265 1.386 . S
C2264 C2266 1.391 . S
C2265 C2264 1.386 . S
C2265 C2269 1.393 . S
C2266 H2258 0.950 . S
C2266 C2264 1.391 . S
C2266 C2267 1.400 . S
C2267 C2266 1.400 . S
C2267 C2268 1.398 . S
C2267 C2273 1.491 . S
C2268 H2259 0.950 . S
C2268 C2267 1.398 . S
C2268 C2269 1.391 . S
C2269 H2257 0.950 . S
C2269 C2265 1.393 . S
C2269 C2268 1.391 . S
C2270 H2260 0.950 . S
C2270 C2271 1.386 . S
C2270 C2272 1.391 . S
C2271 C2270 1.386 . S
C2271 C2275 1.393 . S
C2272 H2261 0.950 . S
C2272 C2270 1.391 . S
C2272 C2273 1.400 . S
C2273 C2267 1.491 . S
C2273 C2272 1.400 . S
C2273 C2274 1.398 . S
C2274 H2262 0.950 . S
C2274 C2273 1.398 . S
C2274 C2275 1.391 . S
C2275 H2263 0.950 . S
C2275 C2271 1.393 . S
C2275 C2274 1.391 . S
H2276 C2284 0.950 . S
H2277 C2289 0.950 . S
H2278 C2286 1.018 . S
H2279 C2288 0.950 . S
H2280 C2290 0.950 . S
H2281 C2292 1.018 . S
H2282 C2294 0.950 . S
H2283 C2295 0.950 . S
C2284 H2276 0.950 . S
C2284 C2285 1.386 . S
C2284 C2286 1.351 1_545 S
C2285 C2284 1.386 . S
C2285 C2289 1.393 . S
C2286 H2278 1.018 . S
C2286 C2284 1.351 1_565 S
C2286 C2287 1.376 1_565 S
C2287 C2286 1.376 1_545 S
C2287 C2288 1.398 . S
C2287 C2293 1.491 1_545 S
C2288 H2279 0.950 . S
C2288 C2287 1.398 . S
C2288 C2289 1.391 . S
C2289 H2277 0.950 . S
C2289 C2285 1.393 . S
C2289 C2288 1.391 . S
C2290 H2280 0.950 . S
C2290 C2291 1.386 . S
C2290 C2292 1.351 1_565 S
C2291 C2290 1.386 . S
C2291 C2295 1.393 . S
C2292 H2281 1.018 . S
C2292 C2290 1.351 1_545 S
C2292 C2293 1.376 1_545 S
C2293 C2287 1.491 1_565 S
C2293 C2292 1.376 1_565 S
C2293 C2294 1.398 . S
C2294 H2282 0.950 . S
C2294 C2293 1.398 . S
C2294 C2295 1.391 . S
C2295 H2283 0.950 . S
C2295 C2291 1.393 . S
C2295 C2294 1.391 . S
H2296 C2304 0.950 . S
H2297 C2309 0.950 . S
H2298 C2306 0.950 . S
H2299 C2308 0.950 . S
H2300 C2310 0.950 . S
H2301 C2312 0.950 . S
H2302 C2314 0.950 . S
H2303 C2315 0.950 . S
C2304 H2296 0.950 . S
C2304 C2305 1.386 . S
C2304 C2306 1.391 . S
C2305 C2304 1.386 . S
C2305 C2309 1.393 . S
C2306 H2298 0.950 . S
C2306 C2304 1.391 . S
C2306 C2307 1.400 . S
C2307 C2306 1.400 . S
C2307 C2308 1.398 . S
C2307 C2313 1.491 . S
C2308 H2299 0.950 . S
C2308 C2307 1.398 . S
C2308 C2309 1.391 . S
C2309 H2297 0.950 . S
C2309 C2305 1.393 . S
C2309 C2308 1.391 . S
C2310 H2300 0.950 . S
C2310 C2311 1.386 . S
C2310 C2312 1.391 . S
C2311 C2310 1.386 . S
C2311 C2315 1.393 . S
C2312 H2301 0.950 . S
C2312 C2310 1.391 . S
C2312 C2313 1.400 . S
C2313 C2307 1.491 . S
C2313 C2312 1.400 . S
C2313 C2314 1.398 . S
C2314 H2302 0.950 . S
C2314 C2313 1.398 . S
C2314 C2315 1.391 . S
C2315 H2303 0.950 . S
C2315 C2311 1.393 . S
C2315 C2314 1.391 . S
H2316 C2324 0.950 . S
H2317 C2329 0.950 . S
H2318 C2326 0.950 . S
H2319 C2328 0.950 . S
H2320 C2330 0.950 . S
H2321 C2332 0.950 . S
H2322 C2334 0.950 . S
H2323 C2335 0.950 . S
C2324 H2316 0.950 . S
C2324 C2325 1.386 1_554 S
C2324 C2326 1.391 . S
C2325 C2324 1.386 1_556 S
C2325 C2329 1.393 . S
C2326 H2318 0.950 . S
C2326 C2324 1.391 . S
C2326 C2327 1.370 1_554 S
C2327 C2326 1.370 1_556 S
C2327 C2328 1.431 . S
C2327 C2333 1.488 1_556 S
C2328 H2319 0.950 . S
C2328 C2327 1.431 . S
C2328 C2329 1.391 . S
C2329 H2317 0.950 . S
C2329 C2325 1.393 . S
C2329 C2328 1.391 . S
C2330 H2320 0.950 . S
C2330 C2331 1.386 1_556 S
C2330 C2332 1.391 . S
C2331 C2330 1.386 1_554 S
C2331 C2335 1.393 . S
C2332 H2321 0.950 . S
C2332 C2330 1.391 . S
C2332 C2333 1.370 1_556 S
C2333 C2327 1.488 1_554 S
C2333 C2332 1.370 1_554 S
C2333 C2334 1.431 . S
C2334 H2322 0.950 . S
C2334 C2333 1.431 . S
C2334 C2335 1.391 . S
C2335 H2323 0.950 . S
C2335 C2331 1.393 . S
C2335 C2334 1.391 . S
H2336 C2344 0.950 . S
H2337 C2349 0.950 . S
H2338 C2346 0.950 . S
H2339 C2348 0.950 . S
H2340 C2350 0.950 . S
H2341 C2352 0.950 . S
H2342 C2354 0.950 . S
H2343 C2355 0.950 . S
C2344 H2336 0.950 . S
C2344 C2345 1.386 . S
C2344 C2346 1.391 . S
C2345 C2344 1.386 . S
C2345 C2349 1.393 . S
C2346 H2338 0.950 . S
C2346 C2344 1.391 . S
C2346 C2347 1.400 . S
C2347 C2346 1.400 . S
C2347 C2348 1.398 . S
C2347 C2353 1.491 . S
C2348 H2339 0.950 . S
C2348 C2347 1.398 . S
C2348 C2349 1.391 . S
C2349 H2337 0.950 . S
C2349 C2345 1.393 . S
C2349 C2348 1.391 . S
C2350 H2340 0.950 . S
C2350 C2351 1.386 . S
C2350 C2352 1.391 . S
C2351 C2350 1.386 . S
C2351 C2355 1.393 . S
C2352 H2341 0.950 . S
C2352 C2350 1.391 . S
C2352 C2353 1.400 . S
C2353 C2347 1.491 . S
C2353 C2352 1.400 . S
C2353 C2354 1.398 . S
C2354 H2342 0.950 . S
C2354 C2353 1.398 . S
C2354 C2355 1.391 . S
C2355 H2343 0.950 . S
C2355 C2351 1.393 . S
C2355 C2354 1.391 . S
H2356 C2364 0.950 . S
H2357 C2369 0.950 . S
H2358 C2366 0.950 . S
H2359 C2368 0.950 . S
H2360 C2370 0.950 . S
H2361 C2372 0.950 . S
H2362 C2374 0.950 . S
H2363 C2375 0.950 . S
C2364 H2356 0.950 . S
C2364 C2365 1.386 . S
C2364 C2366 1.391 . S
C2365 C2364 1.386 . S
C2365 C2369 1.393 . S
C2366 H2358 0.950 . S
C2366 C2364 1.391 . S
C2366 C2367 1.400 . S
C2367 C2366 1.400 . S
C2367 C2368 1.398 . S
C2367 C2373 1.491 . S
C2368 H2359 0.950 . S
C2368 C2367 1.398 . S
C2368 C2369 1.391 . S
C2369 H2357 0.950 . S
C2369 C2365 1.393 . S
C2369 C2368 1.391 . S
C2370 H2360 0.950 . S
C2370 C2371 1.386 . S
C2370 C2372 1.391 . S
C2371 C2370 1.386 . S
C2371 C2375 1.393 . S
C2372 H2361 0.950 . S
C2372 C2370 1.391 . S
C2372 C2373 1.400 . S
C2373 C2367 1.491 . S
C2373 C2372 1.400 . S
C2373 C2374 1.398 . S
C2374 H2362 0.950 . S
C2374 C2373 1.398 . S
C2374 C2375 1.391 . S
C2375 H2363 0.950 . S
C2375 C2371 1.393 . S
C2375 C2374 1.391 . S
H2376 C2384 0.950 . S
H2377 C2389 0.950 . S
H2378 C2386 0.950 . S
H2379 C2388 0.950 . S
H2380 C2390 0.950 . S
H2381 C2392 0.950 . S
H2382 C2394 0.950 . S
H2383 C2395 0.950 . S
C2384 H2376 0.950 . S
C2384 C2385 1.386 . S
C2384 C2386 1.391 . S
C2385 C2384 1.386 . S
C2385 C2389 1.393 . S
C2386 H2378 0.950 . S
C2386 C2384 1.391 . S
C2386 C2387 1.400 . S
C2387 C2386 1.400 . S
C2387 C2388 1.398 . S
C2387 C2393 1.491 . S
C2388 H2379 0.950 . S
C2388 C2387 1.398 . S
C2388 C2389 1.391 . S
C2389 H2377 0.950 . S
C2389 C2385 1.393 . S
C2389 C2388 1.391 . S
C2390 H2380 0.950 . S
C2390 C2391 1.386 . S
C2390 C2392 1.391 . S
C2391 C2390 1.386 . S
C2391 C2395 1.393 . S
C2392 H2381 0.950 . S
C2392 C2390 1.391 . S
C2392 C2393 1.400 . S
C2393 C2387 1.491 . S
C2393 C2392 1.400 . S
C2393 C2394 1.398 . S
C2394 H2382 0.950 . S
C2394 C2393 1.398 . S
C2394 C2395 1.391 . S
C2395 H2383 0.950 . S
C2395 C2391 1.393 . S
C2395 C2394 1.391 . S
H2396 C2404 0.950 . S
H2397 C2409 0.950 . S
H2398 C2406 0.950 . S
H2399 C2408 0.950 . S
H2400 C2410 0.950 . S
H2401 C2412 0.950 . S
H2402 C2414 0.950 . S
H2403 C2415 0.950 . S
C2404 H2396 0.950 . S
C2404 C2405 1.386 . S
C2404 C2406 1.391 . S
C2405 C2404 1.386 . S
C2405 C2409 1.393 . S
C2406 H2398 0.950 . S
C2406 C2404 1.391 . S
C2406 C2407 1.400 . S
C2407 C2406 1.400 . S
C2407 C2408 1.398 . S
C2407 C2413 1.491 . S
C2408 H2399 0.950 . S
C2408 C2407 1.398 . S
C2408 C2409 1.391 . S
C2409 H2397 0.950 . S
C2409 C2405 1.393 . S
C2409 C2408 1.391 . S
C2410 H2400 0.950 . S
C2410 C2411 1.386 . S
C2410 C2412 1.391 . S
C2411 C2410 1.386 . S
C2411 C2415 1.393 . S
C2412 H2401 0.950 . S
C2412 C2410 1.391 . S
C2412 C2413 1.400 . S
C2413 C2407 1.491 . S
C2413 C2412 1.400 . S
C2413 C2414 1.398 . S
C2414 H2402 0.950 . S
C2414 C2413 1.398 . S
C2414 C2415 1.391 . S
C2415 H2403 0.950 . S
C2415 C2411 1.393 . S
C2415 C2414 1.391 . S
H2416 C2424 0.950 . S
H2417 C2429 0.950 . S
H2418 C2426 0.950 . S
H2419 C2428 0.950 . S
H2420 C2430 0.950 . S
H2421 C2432 0.950 . S
H2422 C2434 0.950 . S
H2423 C2435 0.950 . S
C2424 H2416 0.950 . S
C2424 C2425 1.386 . S
C2424 C2426 1.391 . S
C2425 C2424 1.386 . S
C2425 C2429 1.393 . S
C2426 H2418 0.950 . S
C2426 C2424 1.391 . S
C2426 C2427 1.400 . S
C2427 C2426 1.400 . S
C2427 C2428 1.398 . S
C2427 C2433 1.491 . S
C2428 H2419 0.950 . S
C2428 C2427 1.398 . S
C2428 C2429 1.391 . S
C2429 H2417 0.950 . S
C2429 C2425 1.393 . S
C2429 C2428 1.391 . S
C2430 H2420 0.950 . S
C2430 C2431 1.386 . S
C2430 C2432 1.391 . S
C2431 C2430 1.386 . S
C2431 C2435 1.393 . S
C2432 H2421 0.950 . S
C2432 C2430 1.391 . S
C2432 C2433 1.400 . S
C2433 C2427 1.491 . S
C2433 C2432 1.400 . S
C2433 C2434 1.398 . S
C2434 H2422 0.950 . S
C2434 C2433 1.398 . S
C2434 C2435 1.391 . S
C2435 H2423 0.950 . S
C2435 C2431 1.393 . S
C2435 C2434 1.391 . S
H2436 C2444 0.950 . S
H2437 C2449 0.950 . S
H2438 C2446 0.950 . S
H2439 C2448 0.950 . S
H2440 C2450 0.950 . S
H2441 C2452 0.950 . S
H2442 C2454 0.950 . S
H2443 C2455 0.950 . S
C2444 H2436 0.950 . S
C2444 C2445 1.386 . S
C2444 C2446 1.391 . S
C2445 C2444 1.386 . S
C2445 C2449 1.393 . S
C2446 H2438 0.950 . S
C2446 C2444 1.391 . S
C2446 C2447 1.400 . S
C2447 C2446 1.400 . S
C2447 C2448 1.398 . S
C2447 C2453 1.491 . S
C2448 H2439 0.950 . S
C2448 C2447 1.398 . S
C2448 C2449 1.391 . S
C2449 H2437 0.950 . S
C2449 C2445 1.393 . S
C2449 C2448 1.391 . S
C2450 H2440 0.950 . S
C2450 C2451 1.386 . S
C2450 C2452 1.391 . S
C2451 C2450 1.386 . S
C2451 C2455 1.393 . S
C2452 H2441 0.950 . S
C2452 C2450 1.391 . S
C2452 C2453 1.400 . S
C2453 C2447 1.491 . S
C2453 C2452 1.400 . S
C2453 C2454 1.398 . S
C2454 H2442 0.950 . S
C2454 C2453 1.398 . S
C2454 C2455 1.391 . S
C2455 H2443 0.950 . S
C2455 C2451 1.393 . S
C2455 C2454 1.391 . S
H2456 C2464 0.950 . S
H2457 C2469 0.950 . S
H2458 C2466 0.950 . S
H2459 C2468 0.950 . S
H2460 C2470 0.950 . S
H2461 C2472 0.950 . S
H2462 C2474 0.950 . S
H2463 C2475 0.950 . S
C2464 H2456 0.950 . S
C2464 C2465 1.386 . S
C2464 C2466 1.391 . S
C2465 C2464 1.386 . S
C2465 C2469 1.393 . S
C2466 H2458 0.950 . S
C2466 C2464 1.391 . S
C2466 C2467 1.400 . S
C2467 C2466 1.400 . S
C2467 C2468 1.398 . S
C2467 C2473 1.491 . S
C2468 H2459 0.950 . S
C2468 C2467 1.398 . S
C2468 C2469 1.391 . S
C2469 H2457 0.950 . S
C2469 C2465 1.393 . S
C2469 C2468 1.391 . S
C2470 H2460 0.950 . S
C2470 C2471 1.386 . S
C2470 C2472 1.391 . S
C2471 C2470 1.386 . S
C2471 C2475 1.393 . S
C2472 H2461 0.950 . S
C2472 C2470 1.391 . S
C2472 C2473 1.400 . S
C2473 C2467 1.491 . S
C2473 C2472 1.400 . S
C2473 C2474 1.398 . S
C2474 H2462 0.950 . S
C2474 C2473 1.398 . S
C2474 C2475 1.391 . S
C2475 H2463 0.950 . S
C2475 C2471 1.393 . S
C2475 C2474 1.391 . S
H2476 C2484 0.950 . S
H2477 C2489 0.950 . S
H2478 C2486 0.950 . S
H2479 C2488 0.950 . S
H2480 C2490 0.950 . S
H2481 C2492 0.950 . S
H2482 C2494 0.950 . S
H2483 C2495 0.950 . S
C2484 H2476 0.950 . S
C2484 C2485 1.386 . S
C2484 C2486 1.391 . S
C2485 C2484 1.386 . S
C2485 C2489 1.393 . S
C2486 H2478 0.950 . S
C2486 C2484 1.391 . S
C2486 C2487 1.400 . S
C2487 C2486 1.400 . S
C2487 C2488 1.398 . S
C2487 C2493 1.491 . S
C2488 H2479 0.950 . S
C2488 C2487 1.398 . S
C2488 C2489 1.391 . S
C2489 H2477 0.950 . S
C2489 C2485 1.393 . S
C2489 C2488 1.391 . S
C2490 H2480 0.950 . S
C2490 C2491 1.386 . S
C2490 C2492 1.391 . S
C2491 C2490 1.386 . S
C2491 C2495 1.393 . S
C2492 H2481 0.950 . S
C2492 C2490 1.391 . S
C2492 C2493 1.400 . S
C2493 C2487 1.491 . S
C2493 C2492 1.400 . S
C2493 C2494 1.398 . S
C2494 H2482 0.950 . S
C2494 C2493 1.398 . S
C2494 C2495 1.391 . S
C2495 H2483 0.950 . S
C2495 C2491 1.393 . S
C2495 C2494 1.391 . S
H2496 C2504 0.950 . S
H2497 C2509 0.950 . S
H2498 C2506 0.950 . S
H2499 C2508 0.950 . S
H2500 C2510 0.950 . S
H2501 C2512 0.950 . S
H2502 C2514 0.950 . S
H2503 C2515 0.950 . S
C2504 H2496 0.950 . S
C2504 C2505 1.386 . S
C2504 C2506 1.391 . S
C2505 C2504 1.386 . S
C2505 C2509 1.393 . S
C2506 H2498 0.950 . S
C2506 C2504 1.391 . S
C2506 C2507 1.400 . S
C2507 C2506 1.400 . S
C2507 C2508 1.398 . S
C2507 C2513 1.491 . S
C2508 H2499 0.950 . S
C2508 C2507 1.398 . S
C2508 C2509 1.391 . S
C2509 H2497 0.950 . S
C2509 C2505 1.393 . S
C2509 C2508 1.391 . S
C2510 H2500 0.950 . S
C2510 C2511 1.386 . S
C2510 C2512 1.391 . S
C2511 C2510 1.386 . S
C2511 C2515 1.393 . S
C2512 H2501 0.950 . S
C2512 C2510 1.391 . S
C2512 C2513 1.400 . S
C2513 C2507 1.491 . S
C2513 C2512 1.400 . S
C2513 C2514 1.398 . S
C2514 H2502 0.950 . S
C2514 C2513 1.398 . S
C2514 C2515 1.391 . S
C2515 H2503 0.950 . S
C2515 C2511 1.393 . S
C2515 C2514 1.391 . S
H2516 C2524 0.950 . S
H2517 C2529 0.950 . S
H2518 C2526 0.950 . S
H2519 C2528 0.950 . S
H2520 C2530 0.950 . S
H2521 C2532 0.950 . S
H2522 C2534 0.950 . S
H2523 C2535 0.950 . S
C2524 H2516 0.950 . S
C2524 C2525 1.386 . S
C2524 C2526 1.391 . S
C2525 C2524 1.386 . S
C2525 C2529 1.393 . S
C2526 H2518 0.950 . S
C2526 C2524 1.391 . S
C2526 C2527 1.400 . S
C2527 C2526 1.400 . S
C2527 C2528 1.398 . S
C2527 C2533 1.491 . S
C2528 H2519 0.950 . S
C2528 C2527 1.398 . S
C2528 C2529 1.391 . S
C2529 H2517 0.950 . S
C2529 C2525 1.393 . S
C2529 C2528 1.391 . S
C2530 H2520 0.950 . S
C2530 C2531 1.386 . S
C2530 C2532 1.391 . S
C2531 C2530 1.386 . S
C2531 C2535 1.393 . S
C2532 H2521 0.950 . S
C2532 C2530 1.391 . S
C2532 C2533 1.400 . S
C2533 C2527 1.491 . S
C2533 C2532 1.400 . S
C2533 C2534 1.398 . S
C2534 H2522 0.950 . S
C2534 C2533 1.398 . S
C2534 C2535 1.391 . S
C2535 H2523 0.950 . S
C2535 C2531 1.393 . S
C2535 C2534 1.391 . S
H2536 C2544 0.950 . S
H2537 C2549 0.950 . S
H2538 C2546 0.950 . S
H2539 C2548 0.950 . S
H2540 C2550 0.950 . S
H2541 C2552 0.950 . S
H2542 C2554 0.950 . S
H2543 C2555 0.950 . S
C2544 H2536 0.950 . S
C2544 C2545 1.386 . S
C2544 C2546 1.391 . S
C2545 C2544 1.386 . S
C2545 C2549 1.393 . S
C2546 H2538 0.950 . S
C2546 C2544 1.391 . S
C2546 C2547 1.400 . S
C2547 C2546 1.400 . S
C2547 C2548 1.398 . S
C2547 C2553 1.491 . S
C2548 H2539 0.950 . S
C2548 C2547 1.398 . S
C2548 C2549 1.391 . S
C2549 H2537 0.950 . S
C2549 C2545 1.393 . S
C2549 C2548 1.391 . S
C2550 H2540 0.950 . S
C2550 C2551 1.386 . S
C2550 C2552 1.391 . S
C2551 C2550 1.386 . S
C2551 C2555 1.393 . S
C2552 H2541 0.950 . S
C2552 C2550 1.391 . S
C2552 C2553 1.400 . S
C2553 C2547 1.491 . S
C2553 C2552 1.400 . S
C2553 C2554 1.398 . S
C2554 H2542 0.950 . S
C2554 C2553 1.398 . S
C2554 C2555 1.391 . S
C2555 H2543 0.950 . S
C2555 C2551 1.393 . S
C2555 C2554 1.391 . S
H2556 C2564 0.950 . S
H2557 C2569 0.950 . S
H2558 C2566 0.950 . S
H2559 C2568 0.950 . S
H2560 C2570 0.950 . S
H2561 C2572 0.950 . S
H2562 C2574 0.950 . S
H2563 C2575 0.950 . S
C2564 H2556 0.950 . S
C2564 C2565 1.386 . S
C2564 C2566 1.391 . S
C2565 C2564 1.386 . S
C2565 C2569 1.393 . S
C2566 H2558 0.950 . S
C2566 C2564 1.391 . S
C2566 C2567 1.400 . S
C2567 C2566 1.400 . S
C2567 C2568 1.398 . S
C2567 C2573 1.491 . S
C2568 H2559 0.950 . S
C2568 C2567 1.398 . S
C2568 C2569 1.391 . S
C2569 H2557 0.950 . S
C2569 C2565 1.393 . S
C2569 C2568 1.391 . S
C2570 H2560 0.950 . S
C2570 C2571 1.386 . S
C2570 C2572 1.391 . S
C2571 C2570 1.386 . S
C2571 C2575 1.393 . S
C2572 H2561 0.950 . S
C2572 C2570 1.391 . S
C2572 C2573 1.400 . S
C2573 C2567 1.491 . S
C2573 C2572 1.400 . S
C2573 C2574 1.398 . S
C2574 H2562 0.950 . S
C2574 C2573 1.398 . S
C2574 C2575 1.391 . S
C2575 H2563 0.950 . S
C2575 C2571 1.393 . S
C2575 C2574 1.391 . S
H2576 C2584 0.950 . S
H2577 C2589 0.950 . S
H2578 C2586 0.950 . S
H2579 C2588 0.950 . S
H2580 C2590 0.950 . S
H2581 C2592 0.950 . S
H2582 C2594 0.950 . S
H2583 C2595 0.950 . S
C2584 H2576 0.950 . S
C2584 C2585 1.386 . S
C2584 C2586 1.391 . S
C2585 C2584 1.386 . S
C2585 C2589 1.393 . S
C2586 H2578 0.950 . S
C2586 C2584 1.391 . S
C2586 C2587 1.400 . S
C2587 C2586 1.400 . S
C2587 C2588 1.398 . S
C2587 C2593 1.491 . S
C2588 H2579 0.950 . S
C2588 C2587 1.398 . S
C2588 C2589 1.391 . S
C2589 H2577 0.950 . S
C2589 C2585 1.393 . S
C2589 C2588 1.391 . S
C2590 H2580 0.950 . S
C2590 C2591 1.386 . S
C2590 C2592 1.391 . S
C2591 C2590 1.386 . S
C2591 C2595 1.393 . S
C2592 H2581 0.950 . S
C2592 C2590 1.391 . S
C2592 C2593 1.400 . S
C2593 C2587 1.491 . S
C2593 C2592 1.400 . S
C2593 C2594 1.398 . S
C2594 H2582 0.950 . S
C2594 C2593 1.398 . S
C2594 C2595 1.391 . S
C2595 H2583 0.950 . S
C2595 C2591 1.393 . S
C2595 C2594 1.391 . S
H2596 C2604 0.950 . S
H2597 C2609 0.950 . S
H2598 C2606 0.950 . S
H2599 C2608 0.950 . S
H2600 C2610 0.950 . S
H2601 C2612 0.950 . S
H2602 C2614 0.950 . S
H2603 C2615 0.950 . S
C2604 H2596 0.950 . S
C2604 C2605 1.386 . S
C2604 C2606 1.391 . S
C2605 C2604 1.386 . S
C2605 C2609 1.393 . S
C2606 H2598 0.950 . S
C2606 C2604 1.391 . S
C2606 C2607 1.400 . S
C2607 C2606 1.400 . S
C2607 C2608 1.398 . S
C2607 C2613 1.491 . S
C2608 H2599 0.950 . S
C2608 C2607 1.398 . S
C2608 C2609 1.391 . S
C2609 H2597 0.950 . S
C2609 C2605 1.393 . S
C2609 C2608 1.391 . S
C2610 H2600 0.950 . S
C2610 C2611 1.386 . S
C2610 C2612 1.391 . S
C2611 C2610 1.386 . S
C2611 C2615 1.393 . S
C2612 H2601 0.950 . S
C2612 C2610 1.391 . S
C2612 C2613 1.400 . S
C2613 C2607 1.491 . S
C2613 C2612 1.400 . S
C2613 C2614 1.398 . S
C2614 H2602 0.950 . S
C2614 C2613 1.398 . S
C2614 C2615 1.391 . S
C2615 H2603 0.950 . S
C2615 C2611 1.393 . S
C2615 C2614 1.391 . S
H2616 C2624 0.950 . S
H2617 C2629 0.950 . S
H2618 C2626 0.950 . S
H2619 C2628 0.950 . S
H2620 C2630 0.950 . S
H2621 C2632 0.950 . S
H2622 C2634 0.950 . S
H2623 C2635 0.950 . S
C2624 H2616 0.950 . S
C2624 C2625 1.386 . S
C2624 C2626 1.391 . S
C2625 C2624 1.386 . S
C2625 C2629 1.393 . S
C2626 H2618 0.950 . S
C2626 C2624 1.391 . S
C2626 C2627 1.400 . S
C2627 C2626 1.400 . S
C2627 C2628 1.398 . S
C2627 C2633 1.491 . S
C2628 H2619 0.950 . S
C2628 C2627 1.398 . S
C2628 C2629 1.391 . S
C2629 H2617 0.950 . S
C2629 C2625 1.393 . S
C2629 C2628 1.391 . S
C2630 H2620 0.950 . S
C2630 C2631 1.386 . S
C2630 C2632 1.391 . S
C2631 C2630 1.386 . S
C2631 C2635 1.393 . S
C2632 H2621 0.950 . S
C2632 C2630 1.391 . S
C2632 C2633 1.400 . S
C2633 C2627 1.491 . S
C2633 C2632 1.400 . S
C2633 C2634 1.398 . S
C2634 H2622 0.950 . S
C2634 C2633 1.398 . S
C2634 C2635 1.391 . S
C2635 H2623 0.950 . S
C2635 C2631 1.393 . S
C2635 C2634 1.391 . S
H2636 C2644 0.950 . S
H2637 C2649 0.950 . S
H2638 C2646 0.950 . S
H2639 C2648 0.950 . S
H2640 C2650 0.950 . S
H2641 C2652 0.950 . S
H2642 C2654 0.950 . S
H2643 C2655 0.950 . S
C2644 H2636 0.950 . S
C2644 C2645 1.386 . S
C2644 C2646 1.391 . S
C2645 C2644 1.386 . S
C2645 C2649 1.393 . S
C2646 H2638 0.950 . S
C2646 C2644 1.391 . S
C2646 C2647 1.400 . S
C2647 C2646 1.400 . S
C2647 C2648 1.398 . S
C2647 C2653 1.491 . S
C2648 H2639 0.950 . S
C2648 C2647 1.398 . S
C2648 C2649 1.391 . S
C2649 H2637 0.950 . S
C2649 C2645 1.393 . S
C2649 C2648 1.391 . S
C2650 H2640 0.950 . S
C2650 C2651 1.386 . S
C2650 C2652 1.391 . S
C2651 C2650 1.386 . S
C2651 C2655 1.393 . S
C2652 H2641 0.950 . S
C2652 C2650 1.391 . S
C2652 C2653 1.400 . S
C2653 C2647 1.491 . S
C2653 C2652 1.400 . S
C2653 C2654 1.398 . S
C2654 H2642 0.950 . S
C2654 C2653 1.398 . S
C2654 C2655 1.391 . S
C2655 H2643 0.950 . S
C2655 C2651 1.393 . S
C2655 C2654 1.391 . S
H2656 C2664 0.950 . S
H2657 C2669 0.950 . S
H2658 C2666 0.950 . S
H2659 C2668 0.950 . S
H2660 C2670 0.950 . S
H2661 C2672 0.950 . S
H2662 C2674 0.950 . S
H2663 C2675 0.950 . S
C2664 H2656 0.950 . S
C2664 C2665 1.386 . S
C2664 C2666 1.391 . S
C2665 C2664 1.386 . S
C2665 C2669 1.393 . S
C2666 H2658 0.950 . S
C2666 C2664 1.391 . S
C2666 C2667 1.400 . S
C2667 C2666 1.400 . S
C2667 C2668 1.398 . S
C2667 C2673 1.491 . S
C2668 H2659 0.950 . S
C2668 C2667 1.398 . S
C2668 C2669 1.391 . S
C2669 H2657 0.950 . S
C2669 C2665 1.393 . S
C2669 C2668 1.391 . S
C2670 H2660 0.950 . S
C2670 C2671 1.386 . S
C2670 C2672 1.391 . S
C2671 C2670 1.386 . S
C2671 C2675 1.393 . S
C2672 H2661 0.950 . S
C2672 C2670 1.391 . S
C2672 C2673 1.400 . S
C2673 C2667 1.491 . S
C2673 C2672 1.400 . S
C2673 C2674 1.398 . S
C2674 H2662 0.950 . S
C2674 C2673 1.398 . S
C2674 C2675 1.391 . S
C2675 H2663 0.950 . S
C2675 C2671 1.393 . S
C2675 C2674 1.391 . S
H2676 C2684 0.950 . S
H2677 C2689 0.950 . S
H2678 C2686 0.950 . S
H2679 C2688 0.950 . S
H2680 C2690 0.950 . S
H2681 C2692 0.950 . S
H2682 C2694 0.950 . S
H2683 C2695 0.950 . S
C2684 H2676 0.950 . S
C2684 C2685 1.386 . S
C2684 C2686 1.391 . S
C2685 C2684 1.386 . S
C2685 C2689 1.393 . S
C2686 H2678 0.950 . S
C2686 C2684 1.391 . S
C2686 C2687 1.400 . S
C2687 C2686 1.400 . S
C2687 C2688 1.398 . S
C2687 C2693 1.491 . S
C2688 H2679 0.950 . S
C2688 C2687 1.398 . S
C2688 C2689 1.391 . S
C2689 H2677 0.950 . S
C2689 C2685 1.393 . S
C2689 C2688 1.391 . S
C2690 H2680 0.950 . S
C2690 C2691 1.386 . S
C2690 C2692 1.391 . S
C2691 C2690 1.386 . S
C2691 C2695 1.393 . S
C2692 H2681 0.950 . S
C2692 C2690 1.391 . S
C2692 C2693 1.400 . S
C2693 C2687 1.491 . S
C2693 C2692 1.400 . S
C2693 C2694 1.398 . S
C2694 H2682 0.950 . S
C2694 C2693 1.398 . S
C2694 C2695 1.391 . S
C2695 H2683 0.950 . S
C2695 C2691 1.393 . S
C2695 C2694 1.391 . S
H2696 C2704 0.943 1_554 S
H2697 C2709 0.950 . S
H2698 C2706 0.950 1_554 S
H2699 C2708 0.950 . S
H2700 C2710 0.950 . S
H2701 C2712 0.950 . S
H2702 C2714 0.950 1_554 S
H2703 C2715 0.950 1_554 S
C2704 H2696 0.943 1_556 S
C2704 C2705 1.386 . S
C2704 C2706 1.391 . S
C2705 C2704 1.386 . S
C2705 C2709 1.393 . S
C2706 H2698 0.950 1_556 S
C2706 C2704 1.391 . S
C2706 C2707 1.400 . S
C2707 C2706 1.400 . S
C2707 C2708 1.398 . S
C2707 C2713 1.491 . S
C2708 H2699 0.950 . S
C2708 C2707 1.398 . S
C2708 C2709 1.391 . S
C2709 H2697 0.950 . S
C2709 C2705 1.393 . S
C2709 C2708 1.391 . S
C2710 H2700 0.950 . S
C2710 C2711 1.386 . S
C2710 C2712 1.391 . S
C2711 C2710 1.386 . S
C2711 C2715 1.393 . S
C2712 H2701 0.950 . S
C2712 C2710 1.391 . S
C2712 C2713 1.400 . S
C2713 C2707 1.491 . S
C2713 C2712 1.400 . S
C2713 C2714 1.398 . S
C2714 H2702 0.950 1_556 S
C2714 C2713 1.398 . S
C2714 C2715 1.391 . S
C2715 H2703 0.950 1_556 S
C2715 C2711 1.393 . S
C2715 C2714 1.391 . S
H2716 C2724 0.950 . S
H2717 C2729 0.950 . S
H2718 C2726 0.950 . S
H2719 C2728 0.950 . S
H2720 C2730 0.950 . S
H2721 C2732 0.950 . S
H2722 C2734 0.950 . S
H2723 C2735 0.950 . S
C2724 H2716 0.950 . S
C2724 C2725 1.386 1_554 S
C2724 C2726 1.391 . S
C2725 C2724 1.386 1_556 S
C2725 C2729 1.393 . S
C2726 H2718 0.950 . S
C2726 C2724 1.391 . S
C2726 C2727 1.400 1_554 S
C2727 C2726 1.400 1_556 S
C2727 C2728 1.398 . S
C2727 C2733 1.491 . S
C2728 H2719 0.950 . S
C2728 C2727 1.398 . S
C2728 C2729 1.391 . S
C2729 H2717 0.950 . S
C2729 C2725 1.393 . S
C2729 C2728 1.391 . S
C2730 H2720 0.950 . S
C2730 C2731 1.386 . S
C2730 C2732 1.391 . S
C2731 C2730 1.386 . S
C2731 C2735 1.393 1_556 S
C2732 H2721 0.950 . S
C2732 C2730 1.391 . S
C2732 C2733 1.400 . S
C2733 C2727 1.491 . S
C2733 C2732 1.400 . S
C2733 C2734 1.398 1_556 S
C2734 H2722 0.950 . S
C2734 C2733 1.398 1_554 S
C2734 C2735 1.391 . S
C2735 H2723 0.950 . S
C2735 C2731 1.393 1_554 S
C2735 C2734 1.391 . S
H2736 C2744 0.950 . S
H2737 C2749 0.950 . S
H2738 C2746 0.950 . S
H2739 C2748 0.950 . S
H2740 C2750 0.950 . S
H2741 C2752 0.950 . S
H2742 C2754 0.950 . S
H2743 C2755 0.950 . S
C2744 H2736 0.950 . S
C2744 C2745 1.386 . S
C2744 C2746 1.391 . S
C2745 C2744 1.386 . S
C2745 C2749 1.393 . S
C2746 H2738 0.950 . S
C2746 C2744 1.391 . S
C2746 C2747 1.400 . S
C2747 C2746 1.400 . S
C2747 C2748 1.398 . S
C2747 C2753 1.491 . S
C2748 H2739 0.950 . S
C2748 C2747 1.398 . S
C2748 C2749 1.391 . S
C2749 H2737 0.950 . S
C2749 C2745 1.393 . S
C2749 C2748 1.391 . S
C2750 H2740 0.950 . S
C2750 C2751 1.386 . S
C2750 C2752 1.391 . S
C2751 C2750 1.386 . S
C2751 C2755 1.393 . S
C2752 H2741 0.950 . S
C2752 C2750 1.391 . S
C2752 C2753 1.400 . S
C2753 C2747 1.491 . S
C2753 C2752 1.400 . S
C2753 C2754 1.398 . S
C2754 H2742 0.950 . S
C2754 C2753 1.398 . S
C2754 C2755 1.391 . S
C2755 H2743 0.950 . S
C2755 C2751 1.393 . S
C2755 C2754 1.391 . S
H2756 C2764 0.950 . S
H2757 C2769 0.950 . S
H2758 C2766 0.950 . S
H2759 C2768 0.950 . S
H2760 C2770 0.950 . S
H2761 C2772 0.950 . S
H2762 C2774 0.950 . S
H2763 C2775 0.950 . S
C2764 H2756 0.950 . S
C2764 C2765 1.386 . S
C2764 C2766 1.391 . S
C2765 C2764 1.386 . S
C2765 C2769 1.393 . S
C2766 H2758 0.950 . S
C2766 C2764 1.391 . S
C2766 C2767 1.400 . S
C2767 C2766 1.400 . S
C2767 C2768 1.398 . S
C2767 C2773 1.491 . S
C2768 H2759 0.950 . S
C2768 C2767 1.398 . S
C2768 C2769 1.391 . S
C2769 H2757 0.950 . S
C2769 C2765 1.393 . S
C2769 C2768 1.391 . S
C2770 H2760 0.950 . S
C2770 C2771 1.386 . S
C2770 C2772 1.391 . S
C2771 C2770 1.386 . S
C2771 C2775 1.393 . S
C2772 H2761 0.950 . S
C2772 C2770 1.391 . S
C2772 C2773 1.400 . S
C2773 C2767 1.491 . S
C2773 C2772 1.400 . S
C2773 C2774 1.398 . S
C2774 H2762 0.950 . S
C2774 C2773 1.398 . S
C2774 C2775 1.391 . S
C2775 H2763 0.950 . S
C2775 C2771 1.393 . S
C2775 C2774 1.391 . S
H2776 C2784 0.950 . S
H2777 C2789 0.950 . S
H2778 C2786 0.950 . S
H2779 C2788 0.950 . S
H2780 C2790 0.950 . S
H2781 C2792 0.950 . S
H2782 C2794 0.950 . S
H2783 C2795 0.950 . S
C2784 H2776 0.950 . S
C2784 C2785 1.386 1_556 S
C2784 C2786 1.391 . S
C2785 C2784 1.386 1_554 S
C2785 C2789 1.393 . S
C2786 H2778 0.950 . S
C2786 C2784 1.391 . S
C2786 C2787 1.400 1_556 S
C2787 C2786 1.400 1_554 S
C2787 C2788 1.398 . S
C2787 C2793 1.491 . S
C2788 H2779 0.950 . S
C2788 C2787 1.398 . S
C2788 C2789 1.391 . S
C2789 H2777 0.950 . S
C2789 C2785 1.393 . S
C2789 C2788 1.391 . S
C2790 H2780 0.950 . S
C2790 C2791 1.386 . S
C2790 C2792 1.391 . S
C2791 C2790 1.386 . S
C2791 C2795 1.393 1_554 S
C2792 H2781 0.950 . S
C2792 C2790 1.391 . S
C2792 C2793 1.400 . S
C2793 C2787 1.491 . S
C2793 C2792 1.400 . S
C2793 C2794 1.398 1_554 S
C2794 H2782 0.950 . S
C2794 C2793 1.398 1_556 S
C2794 C2795 1.391 . S
C2795 H2783 0.950 . S
C2795 C2791 1.393 1_556 S
C2795 C2794 1.391 . S
H2796 C2804 0.950 . S
H2797 C2809 0.950 . S
H2798 C2806 0.950 . S
H2799 C2808 0.950 . S
H2800 C2810 0.950 . S
H2801 C2812 0.950 . S
H2802 C2814 0.950 . S
H2803 C2815 0.950 . S
C2804 H2796 0.950 . S
C2804 C2805 1.386 1_556 S
C2804 C2806 1.391 . S
C2805 C2804 1.386 1_554 S
C2805 C2809 1.393 . S
C2806 H2798 0.950 . S
C2806 C2804 1.391 . S
C2806 C2807 1.400 1_556 S
C2807 C2806 1.400 1_554 S
C2807 C2808 1.398 . S
C2807 C2813 1.491 . S
C2808 H2799 0.950 . S
C2808 C2807 1.398 . S
C2808 C2809 1.391 . S
C2809 H2797 0.950 . S
C2809 C2805 1.393 . S
C2809 C2808 1.391 . S
C2810 H2800 0.950 . S
C2810 C2811 1.386 . S
C2810 C2812 1.391 . S
C2811 C2810 1.386 . S
C2811 C2815 1.393 1_554 S
C2812 H2801 0.950 . S
C2812 C2810 1.391 . S
C2812 C2813 1.400 . S
C2813 C2807 1.491 . S
C2813 C2812 1.400 . S
C2813 C2814 1.398 1_554 S
C2814 H2802 0.950 . S
C2814 C2813 1.398 1_556 S
C2814 C2815 1.391 . S
C2815 H2803 0.950 . S
C2815 C2811 1.393 1_556 S
C2815 C2814 1.391 . S
H2816 C2824 0.950 . S
H2817 C2829 0.950 . S
H2818 C2826 0.950 . S
H2819 C2828 0.950 . S
H2820 C2830 0.950 . S
H2821 C2832 0.950 . S
H2822 C2834 0.950 . S
H2823 C2835 0.950 . S
C2824 H2816 0.950 . S
C2824 C2825 1.386 . S
C2824 C2826 1.391 . S
C2825 C2824 1.386 . S
C2825 C2829 1.393 . S
C2826 H2818 0.950 . S
C2826 C2824 1.391 . S
C2826 C2827 1.400 . S
C2827 C2826 1.400 . S
C2827 C2828 1.398 . S
C2827 C2833 1.491 . S
C2828 H2819 0.950 . S
C2828 C2827 1.398 . S
C2828 C2829 1.391 . S
C2829 H2817 0.950 . S
C2829 C2825 1.393 . S
C2829 C2828 1.391 . S
C2830 H2820 0.950 . S
C2830 C2831 1.386 . S
C2830 C2832 1.391 . S
C2831 C2830 1.386 . S
C2831 C2835 1.393 . S
C2832 H2821 0.950 . S
C2832 C2830 1.391 . S
C2832 C2833 1.400 . S
C2833 C2827 1.491 . S
C2833 C2832 1.400 . S
C2833 C2834 1.398 . S
C2834 H2822 0.950 . S
C2834 C2833 1.398 . S
C2834 C2835 1.391 . S
C2835 H2823 0.950 . S
C2835 C2831 1.393 . S
C2835 C2834 1.391 . S
H2836 C2844 0.950 . S
H2837 C2849 0.950 . S
H2838 C2846 0.950 . S
H2839 C2848 0.950 . S
H2840 C2850 0.950 . S
H2841 C2852 0.950 . S
H2842 C2854 0.950 . S
H2843 C2855 0.950 . S
C2844 H2836 0.950 . S
C2844 C2845 1.386 . S
C2844 C2846 1.391 . S
C2845 C2844 1.386 . S
C2845 C2849 1.393 . S
C2846 H2838 0.950 . S
C2846 C2844 1.391 . S
C2846 C2847 1.400 . S
C2847 C2846 1.400 . S
C2847 C2848 1.398 . S
C2847 C2853 1.491 . S
C2848 H2839 0.950 . S
C2848 C2847 1.398 . S
C2848 C2849 1.391 . S
C2849 H2837 0.950 . S
C2849 C2845 1.393 . S
C2849 C2848 1.391 . S
C2850 H2840 0.950 . S
C2850 C2851 1.386 . S
C2850 C2852 1.391 . S
C2851 C2850 1.386 . S
C2851 C2855 1.393 . S
C2852 H2841 0.950 . S
C2852 C2850 1.391 . S
C2852 C2853 1.400 . S
C2853 C2847 1.491 . S
C2853 C2852 1.400 . S
C2853 C2854 1.398 . S
C2854 H2842 0.950 . S
C2854 C2853 1.398 . S
C2854 C2855 1.391 . S
C2855 H2843 0.950 . S
C2855 C2851 1.393 . S
C2855 C2854 1.391 . S
H2856 C2864 0.950 . S
H2857 C2869 0.950 . S
H2858 C2866 0.950 . S
H2859 C2868 0.950 . S
H2860 C2870 0.950 . S
H2861 C2872 0.950 . S
H2862 C2874 0.950 . S
H2863 C2875 0.950 . S
C2864 H2856 0.950 . S
C2864 C2865 1.386 . S
C2864 C2866 1.391 . S
C2865 C2864 1.386 . S
C2865 C2869 1.393 . S
C2866 H2858 0.950 . S
C2866 C2864 1.391 . S
C2866 C2867 1.400 . S
C2867 C2866 1.400 . S
C2867 C2868 1.398 . S
C2867 C2873 1.491 . S
C2868 H2859 0.950 . S
C2868 C2867 1.398 . S
C2868 C2869 1.391 . S
C2869 H2857 0.950 . S
C2869 C2865 1.393 . S
C2869 C2868 1.391 . S
C2870 H2860 0.950 . S
C2870 C2871 1.386 . S
C2870 C2872 1.391 . S
C2871 C2870 1.386 . S
C2871 C2875 1.393 . S
C2872 H2861 0.950 . S
C2872 C2870 1.391 . S
C2872 C2873 1.400 . S
C2873 C2867 1.491 . S
C2873 C2872 1.400 . S
C2873 C2874 1.398 . S
C2874 H2862 0.950 . S
C2874 C2873 1.398 . S
C2874 C2875 1.391 . S
C2875 H2863 0.950 . S
C2875 C2871 1.393 . S
C2875 C2874 1.391 . S
H2876 C2884 0.950 . S
H2877 C2889 0.950 . S
H2878 C2886 0.950 . S
H2879 C2888 0.950 . S
H2880 C2890 0.950 . S
H2881 C2892 0.950 . S
H2882 C2894 0.950 . S
H2883 C2895 0.950 . S
C2884 H2876 0.950 . S
C2884 C2885 1.386 . S
C2884 C2886 1.391 . S
C2885 C2884 1.386 . S
C2885 C2889 1.393 . S
C2886 H2878 0.950 . S
C2886 C2884 1.391 . S
C2886 C2887 1.400 . S
C2887 C2886 1.400 . S
C2887 C2888 1.398 . S
C2887 C2893 1.491 . S
C2888 H2879 0.950 . S
C2888 C2887 1.398 . S
C2888 C2889 1.391 . S
C2889 H2877 0.950 . S
C2889 C2885 1.393 . S
C2889 C2888 1.391 . S
C2890 H2880 0.950 . S
C2890 C2891 1.386 . S
C2890 C2892 1.391 . S
C2891 C2890 1.386 . S
C2891 C2895 1.393 . S
C2892 H2881 0.950 . S
C2892 C2890 1.391 . S
C2892 C2893 1.400 . S
C2893 C2887 1.491 . S
C2893 C2892 1.400 . S
C2893 C2894 1.398 . S
C2894 H2882 0.950 . S
C2894 C2893 1.398 . S
C2894 C2895 1.391 . S
C2895 H2883 0.950 . S
C2895 C2891 1.393 . S
C2895 C2894 1.391 . S
H2896 C2904 0.950 . S
H2897 C2909 0.950 . S
H2898 C2906 0.950 . S
H2899 C2908 0.950 . S
H2900 C2910 0.950 . S
H2901 C2912 0.950 . S
H2902 C2914 0.950 . S
H2903 C2915 0.950 . S
C2904 H2896 0.950 . S
C2904 C2905 1.386 . S
C2904 C2906 1.391 . S
C2905 C2904 1.386 . S
C2905 C2909 1.393 . S
C2906 H2898 0.950 . S
C2906 C2904 1.391 . S
C2906 C2907 1.400 . S
C2907 C2906 1.400 . S
C2907 C2908 1.398 . S
C2907 C2913 1.491 . S
C2908 H2899 0.950 . S
C2908 C2907 1.398 . S
C2908 C2909 1.391 . S
C2909 H2897 0.950 . S
C2909 C2905 1.393 . S
C2909 C2908 1.391 . S
C2910 H2900 0.950 . S
C2910 C2911 1.386 . S
C2910 C2912 1.391 . S
C2911 C2910 1.386 . S
C2911 C2915 1.393 . S
C2912 H2901 0.950 . S
C2912 C2910 1.391 . S
C2912 C2913 1.400 . S
C2913 C2907 1.491 . S
C2913 C2912 1.400 . S
C2913 C2914 1.398 . S
C2914 H2902 0.950 . S
C2914 C2913 1.398 . S
C2914 C2915 1.391 . S
C2915 H2903 0.950 . S
C2915 C2911 1.393 . S
C2915 C2914 1.391 . S
H2916 C2924 0.950 . S
H2917 C2929 0.950 . S
H2918 C2926 0.950 . S
H2919 C2928 0.950 . S
H2920 C2930 0.950 . S
H2921 C2932 0.950 . S
H2922 C2934 0.950 . S
H2923 C2935 0.950 . S
C2924 H2916 0.950 . S
C2924 C2925 1.386 . S
C2924 C2926 1.391 . S
C2925 C2924 1.386 . S
C2925 C2929 1.393 . S
C2926 H2918 0.950 . S
C2926 C2924 1.391 . S
C2926 C2927 1.400 . S
C2927 C2926 1.400 . S
C2927 C2928 1.398 . S
C2927 C2933 1.491 . S
C2928 H2919 0.950 . S
C2928 C2927 1.398 . S
C2928 C2929 1.391 . S
C2929 H2917 0.950 . S
C2929 C2925 1.393 . S
C2929 C2928 1.391 . S
C2930 H2920 0.950 . S
C2930 C2931 1.386 . S
C2930 C2932 1.391 . S
C2931 C2930 1.386 . S
C2931 C2935 1.393 . S
C2932 H2921 0.950 . S
C2932 C2930 1.391 . S
C2932 C2933 1.400 . S
C2933 C2927 1.491 . S
C2933 C2932 1.400 . S
C2933 C2934 1.398 . S
C2934 H2922 0.950 . S
C2934 C2933 1.398 . S
C2934 C2935 1.391 . S
C2935 H2923 0.950 . S
C2935 C2931 1.393 . S
C2935 C2934 1.391 . S
H2936 C2944 0.950 . S
H2937 C2949 0.950 . S
H2938 C2946 0.950 . S
H2939 C2948 0.950 . S
H2940 C2950 0.950 . S
H2941 C2952 0.950 . S
H2942 C2954 0.950 . S
H2943 C2955 0.950 . S
C2944 H2936 0.950 . S
C2944 C2945 1.386 . S
C2944 C2946 1.391 . S
C2945 C2944 1.386 . S
C2945 C2949 1.393 . S
C2946 H2938 0.950 . S
C2946 C2944 1.391 . S
C2946 C2947 1.400 . S
C2947 C2946 1.400 . S
C2947 C2948 1.398 . S
C2947 C2953 1.491 . S
C2948 H2939 0.950 . S
C2948 C2947 1.398 . S
C2948 C2949 1.391 . S
C2949 H2937 0.950 . S
C2949 C2945 1.393 . S
C2949 C2948 1.391 . S
C2950 H2940 0.950 . S
C2950 C2951 1.386 . S
C2950 C2952 1.391 . S
C2951 C2950 1.386 . S
C2951 C2955 1.393 . S
C2952 H2941 0.950 . S
C2952 C2950 1.391 . S
C2952 C2953 1.400 . S
C2953 C2947 1.491 . S
C2953 C2952 1.400 . S
C2953 C2954 1.398 . S
C2954 H2942 0.950 . S
C2954 C2953 1.398 . S
C2954 C2955 1.391 . S
C2955 H2943 0.950 . S
C2955 C2951 1.393 . S
C2955 C2954 1.391 . S
H2956 C2964 0.950 . S
H2957 C2969 0.950 . S
H2958 C2966 0.950 . S
H2959 C2968 0.950 . S
H2960 C2970 0.950 . S
H2961 C2972 0.950 . S
H2962 C2974 0.950 . S
H2963 C2975 0.950 . S
C2964 H2956 0.950 . S
C2964 C2965 1.386 . S
C2964 C2966 1.391 . S
C2965 C2964 1.386 . S
C2965 C2969 1.393 . S
C2966 H2958 0.950 . S
C2966 C2964 1.391 . S
C2966 C2967 1.400 . S
C2967 C2966 1.400 . S
C2967 C2968 1.398 . S
C2967 C2973 1.491 . S
C2968 H2959 0.950 . S
C2968 C2967 1.398 . S
C2968 C2969 1.391 . S
C2969 H2957 0.950 . S
C2969 C2965 1.393 . S
C2969 C2968 1.391 . S
C2970 H2960 0.950 . S
C2970 C2971 1.386 . S
C2970 C2972 1.391 . S
C2971 C2970 1.386 . S
C2971 C2975 1.393 . S
C2972 H2961 0.950 . S
C2972 C2970 1.391 . S
C2972 C2973 1.400 . S
C2973 C2967 1.491 . S
C2973 C2972 1.400 . S
C2973 C2974 1.398 . S
C2974 H2962 0.950 . S
C2974 C2973 1.398 . S
C2974 C2975 1.391 . S
C2975 H2963 0.950 . S
C2975 C2971 1.393 . S
C2975 C2974 1.391 . S
C1705 C39 1.908 . S
C1711 C198 1.918 . S
C1725 C145 1.913 . S
C1731 C92 1.918 . S
C1745 C251 1.905 . S
C1751 C410 1.899 . S
C1765 C357 1.910 . S
C1771 C304 1.899 . S
C1785 C463 1.918 . S
C1791 C622 1.912 . S
C1805 C569 1.909 . S
C1811 C516 1.918 . S
C1825 C675 1.901 . S
C1831 C834 1.912 . S
C1845 C728 1.911 . S
C1851 C781 1.899 . S
C1865 C1046 1.907 . S
C1871 C887 1.912 . S
C1885 C940 1.917 . S
C1891 C993 1.907 . S
C1905 C1099 1.906 . S
C1911 C1258 1.899 . S
C1925 C1205 1.904 . S
C1931 C1152 1.899 . S
C1945 C1311 1.912 . S
C1951 C1470 1.918 . S
C1965 C1417 1.912 . S
C1971 C1364 1.907 . S
C1985 C1523 1.899 . S
C1991 C1682 1.910 . S
C2005 C1576 1.900 . S
C2011 C1629 1.904 . S
C2025 C658 1.511 . S
C2031 C22 1.512 . S
C2045 C75 1.512 . S
C2051 C1135 1.511 . S
C2065 C128 1.508 . S
C2071 C340 1.505 . S
C2085 C1665 1.507 . S
C2091 C181 1.509 . S
C2105 C234 1.505 . S
C2111 C446 1.507 . S
C2125 C923 1.510 . S
C2131 C287 1.508 . S
C2145 C1453 1.511 . S
C2151 C393 1.510 . S
C2165 C1559 1.511 . S
C2171 C499 1.512 . S
C2185 C764 1.512 . S
C2191 C552 1.512 . S
C2205 C1241 1.509 . S
C2211 C605 1.511 . S
C2225 C711 1.507 . S
C2231 C1347 1.509 . S
C2245 C1029 1.512 . S
C2251 C817 1.510 . S
C2265 C1506 1.511 . S
C2271 C870 1.512 . S
C2285 C1188 1.509 . S
C2291 C976 1.510 . S
C2305 C1294 1.509 . S
C2311 C1082 1.507 . S
C2325 C1400 1.507 . S
C2331 C1612 1.505 . S
C2345 C568 2.036 . S
C2351 C38 2.042 . S
C2365 C91 2.042 . S
C2371 C621 2.041 . S
C2385 C462 2.036 . S
C2391 C144 2.042 . S
C2405 C515 2.040 . S
C2411 C197 2.033 . S
C2425 C250 2.052 . S
C2431 C780 2.050 . S
C2445 C303 2.036 . S
C2451 C833 2.040 . S
C2465 C674 2.038 . S
C2471 C356 2.045 . S
C2485 C409 2.037 . S
C2491 C727 2.037 . S
C2505 C1416 2.037 . S
C2511 C886 2.042 . S
C2525 C1469 2.031 . S
C2531 C939 2.039 . S
C2545 C992 2.041 . S
C2551 C1310 2.042 . S
C2565 C1045 2.029 . S
C2571 C1363 2.025 . S
C2585 C1098 2.043 . S
C2591 C1628 2.050 . S
C2605 C1151 2.050 . S
C2611 C1681 2.052 . S
C2625 C1522 2.052 . S
C2631 C1204 2.050 . S
C2645 C1575 2.039 . S
C2651 C1257 2.036 . S
C2665 C29 1.549 . S
C2671 C1354 1.552 . S
C2685 C1301 1.550 . S
C2691 C82 1.552 . S
C2705 C135 1.552 . S
C2711 C1460 1.549 . S
C2725 C188 1.554 . S
C2731 C1407 1.552 . S
C2745 C241 1.554 . S
C2751 C1566 1.551 . S
C2765 C294 1.548 . S
C2771 C1513 1.549 . S
C2785 C1672 1.549 . S
C2791 C347 1.548 . S
C2805 C1619 1.548 . S
C2811 C400 1.550 . S
C2825 C930 1.550 . S
C2831 C453 1.552 . S
C2845 C877 1.548 . S
C2851 C506 1.551 . S
C2865 C559 1.550 . S
C2871 C1036 1.553 . S
C2885 C612 1.545 . S
C2891 C983 1.546 . S
C2905 C1142 1.554 . S
C2911 C665 1.551 . S
C2925 C718 1.553 . S
C2931 C1089 1.549 . S
C2945 C771 1.554 . S
C2951 C1248 1.551 . S
C2965 C824 1.554 . S
C2971 C1195 1.554 . S
