# Generated by pormake.
# Topology vbx, (6)-cn, num edge types: 1
# Building blocks:
#     Node 0, Type 0, BuildingBlock: IZENUY_clean_sbu_0, # of connection points: 6
#     Node 1, Type 0, BuildingBlock: IZENUY_clean_sbu_0, # of connection points: 6
#     Node 2, Type 0, BuildingBlock: IZENUY_clean_sbu_0, # of connection points: 6
#     Node 3, Type 0, BuildingBlock: IZENUY_clean_sbu_0, # of connection points: 6
#     Node 4, Type 0, BuildingBlock: IZENUY_clean_sbu_0, # of connection points: 6
#     Node 5, Type 0, BuildingBlock: IZENUY_clean_sbu_0, # of connection points: 6
#     Node 6, Type 0, BuildingBlock: IZENUY_clean_sbu_0, # of connection points: 6
#     Node 7, Type 0, BuildingBlock: IZENUY_clean_sbu_0, # of connection points: 6
#     Node 8, Type 0, BuildingBlock: IZENUY_clean_sbu_0, # of connection points: 6
#     Node 9, Type 0, BuildingBlock: IZENUY_clean_sbu_0, # of connection points: 6
#     Node 10, Type 0, BuildingBlock: IZENUY_clean_sbu_0, # of connection points: 6
#     Node 11, Type 0, BuildingBlock: IZENUY_clean_sbu_0, # of connection points: 6
#     Node 12, Type 0, BuildingBlock: IZENUY_clean_sbu_0, # of connection points: 6
#     Node 13, Type 0, BuildingBlock: IZENUY_clean_sbu_0, # of connection points: 6
#     Node 14, Type 0, BuildingBlock: IZENUY_clean_sbu_0, # of connection points: 6
#     Node 15, Type 0, BuildingBlock: IZENUY_clean_sbu_0, # of connection points: 6
#     Edge 16, Type (0, 0), BuildingBlock: EZIPEK_clean_linker_0, # of connection points: 2
#     Edge 17, Type (0, 0), BuildingBlock: EZIPEK_clean_linker_0, # of connection points: 2
#     Edge 18, Type (0, 0), BuildingBlock: EZIPEK_clean_linker_0, # of connection points: 2
#     Edge 19, Type (0, 0), BuildingBlock: EZIPEK_clean_linker_0, # of connection points: 2
#     Edge 20, Type (0, 0), BuildingBlock: EZIPEK_clean_linker_0, # of connection points: 2
#     Edge 21, Type (0, 0), BuildingBlock: EZIPEK_clean_linker_0, # of connection points: 2
#     Edge 22, Type (0, 0), BuildingBlock: EZIPEK_clean_linker_0, # of connection points: 2
#     Edge 23, Type (0, 0), BuildingBlock: EZIPEK_clean_linker_0, # of connection points: 2
#     Edge 24, Type (0, 0), BuildingBlock: EZIPEK_clean_linker_0, # of connection points: 2
#     Edge 25, Type (0, 0), BuildingBlock: EZIPEK_clean_linker_0, # of connection points: 2
#     Edge 26, Type (0, 0), BuildingBlock: EZIPEK_clean_linker_0, # of connection points: 2
#     Edge 27, Type (0, 0), BuildingBlock: EZIPEK_clean_linker_0, # of connection points: 2
#     Edge 28, Type (0, 0), BuildingBlock: EZIPEK_clean_linker_0, # of connection points: 2
#     Edge 29, Type (0, 0), BuildingBlock: EZIPEK_clean_linker_0, # of connection points: 2
#     Edge 30, Type (0, 0), BuildingBlock: EZIPEK_clean_linker_0, # of connection points: 2
#     Edge 31, Type (0, 0), BuildingBlock: EZIPEK_clean_linker_0, # of connection points: 2
#     Edge 32, Type (0, 0), BuildingBlock: EZIPEK_clean_linker_0, # of connection points: 2
#     Edge 33, Type (0, 0), BuildingBlock: EZIPEK_clean_linker_0, # of connection points: 2
#     Edge 34, Type (0, 0), BuildingBlock: EZIPEK_clean_linker_0, # of connection points: 2
#     Edge 35, Type (0, 0), BuildingBlock: EZIPEK_clean_linker_0, # of connection points: 2
#     Edge 36, Type (0, 0), BuildingBlock: EZIPEK_clean_linker_0, # of connection points: 2
#     Edge 37, Type (0, 0), BuildingBlock: EZIPEK_clean_linker_0, # of connection points: 2
#     Edge 38, Type (0, 0), BuildingBlock: EZIPEK_clean_linker_0, # of connection points: 2
#     Edge 39, Type (0, 0), BuildingBlock: EZIPEK_clean_linker_0, # of connection points: 2
#     Edge 40, Type (0, 0), BuildingBlock: EZIPEK_clean_linker_0, # of connection points: 2
#     Edge 41, Type (0, 0), BuildingBlock: EZIPEK_clean_linker_0, # of connection points: 2
#     Edge 42, Type (0, 0), BuildingBlock: EZIPEK_clean_linker_0, # of connection points: 2
#     Edge 43, Type (0, 0), BuildingBlock: EZIPEK_clean_linker_0, # of connection points: 2
#     Edge 44, Type (0, 0), BuildingBlock: EZIPEK_clean_linker_0, # of connection points: 2
#     Edge 45, Type (0, 0), BuildingBlock: EZIPEK_clean_linker_0, # of connection points: 2
#     Edge 46, Type (0, 0), BuildingBlock: EZIPEK_clean_linker_0, # of connection points: 2
#     Edge 47, Type (0, 0), BuildingBlock: EZIPEK_clean_linker_0, # of connection points: 2
#     Edge 48, Type (0, 0), BuildingBlock: EZIPEK_clean_linker_0, # of connection points: 2
#     Edge 49, Type (0, 0), BuildingBlock: EZIPEK_clean_linker_0, # of connection points: 2
#     Edge 50, Type (0, 0), BuildingBlock: EZIPEK_clean_linker_0, # of connection points: 2
#     Edge 51, Type (0, 0), BuildingBlock: EZIPEK_clean_linker_0, # of connection points: 2
#     Edge 52, Type (0, 0), BuildingBlock: EZIPEK_clean_linker_0, # of connection points: 2
#     Edge 53, Type (0, 0), BuildingBlock: EZIPEK_clean_linker_0, # of connection points: 2
#     Edge 54, Type (0, 0), BuildingBlock: EZIPEK_clean_linker_0, # of connection points: 2
#     Edge 55, Type (0, 0), BuildingBlock: EZIPEK_clean_linker_0, # of connection points: 2
#     Edge 56, Type (0, 0), BuildingBlock: EZIPEK_clean_linker_0, # of connection points: 2
#     Edge 57, Type (0, 0), BuildingBlock: EZIPEK_clean_linker_0, # of connection points: 2
#     Edge 58, Type (0, 0), BuildingBlock: EZIPEK_clean_linker_0, # of connection points: 2
#     Edge 59, Type (0, 0), BuildingBlock: EZIPEK_clean_linker_0, # of connection points: 2
#     Edge 60, Type (0, 0), BuildingBlock: EZIPEK_clean_linker_0, # of connection points: 2
#     Edge 61, Type (0, 0), BuildingBlock: EZIPEK_clean_linker_0, # of connection points: 2
#     Edge 62, Type (0, 0), BuildingBlock: EZIPEK_clean_linker_0, # of connection points: 2
#     Edge 63, Type (0, 0), BuildingBlock: EZIPEK_clean_linker_0, # of connection points: 2
# Relax obj value: 0.241
# Max RMSD: 0.243
# Mean RMSD: 0.243
data_MOF--net-vbx--node1-IZENUY_clean_sbu_0--edge1-EZIPEK_clean_linker_0
_symmetry_space_group_name_H-M    P1
_symmetry_Int_Tables_number       1
_symmetry_cell_setting            triclinic
loop_
_symmetry_equiv_pos_as_xyz
'x, y, z'
_cell_length_a     34.56173
_cell_length_b     20.777194
_cell_length_c     41.720051
_cell_angle_alpha  89.849712
_cell_angle_beta   89.966682
_cell_angle_gamma 90.27103
loop_
_atom_site_label
_atom_site_type_symbol
_atom_site_fract_x
_atom_site_fract_y
_atom_site_fract_z
_atom_type_partial_charge
Fe0 Fe 0.37078 0.44488 0.12627 0.0
Fe1 Fe 0.37271 0.31927 0.08884 0.0
O2 O 0.34755 0.37245 0.11447 0.0
Fe3 Fe 0.30028 0.35425 0.1279 0.0
O4 O 0.28066 0.43016 0.11329 0.0
O5 O 0.32632 0.49225 0.13248 0.0
O6 O 0.37066 0.47229 0.08491 0.0
C7 C 0.38655 0.44211 0.06216 0.0
C8 C 0.34079 0.40199 0.18282 0.0
O9 O 0.39859 0.38513 0.06707 0.0
C10 C 0.32673 0.23166 0.12721 0.0
O11 O 0.42067 0.41283 0.12292 0.0
O12 O 0.41091 0.30928 0.1184 0.0
O13 O 0.30944 0.3868 0.16847 0.0
O14 O 0.37075 0.41977 0.16773 0.0
C15 C 0.30168 0.31251 0.06193 0.0
O16 O 0.34943 0.24416 0.10412 0.0
O17 O 0.31436 0.27686 0.14414 0.0
C18 C 0.43316 0.35558 0.125 0.0
O19 O 0.33675 0.32597 0.05819 0.0
O20 O 0.28531 0.31753 0.08917 0.0
C21 C 0.29233 0.485 0.1219 0.0
Fe22 Fe 0.66577 0.58638 0.62756 0.0
Fe23 Fe 0.66145 0.70768 0.58566 0.0
O24 O 0.68824 0.65868 0.61284 0.0
Fe25 Fe 0.73625 0.68032 0.62479 0.0
O26 O 0.75667 0.60133 0.61656 0.0
O27 O 0.70988 0.539 0.63312 0.0
O28 O 0.66321 0.55339 0.58718 0.0
C29 C 0.64561 0.5799 0.56419 0.0
C30 C 0.69788 0.63938 0.68245 0.0
O31 O 0.63727 0.63897 0.56599 0.0
C32 C 0.70655 0.80411 0.61763 0.0
O33 O 0.61526 0.61654 0.62508 0.0
O34 O 0.62242 0.71865 0.61435 0.0
O35 O 0.72671 0.66105 0.66681 0.0
O36 O 0.66848 0.61471 0.66875 0.0
C37 C 0.73424 0.70946 0.55807 0.0
O38 O 0.68084 0.7854 0.59844 0.0
O39 O 0.72486 0.76374 0.6343 0.0
C40 C 0.60118 0.67269 0.62325 0.0
O41 O 0.69811 0.70247 0.55512 0.0
O42 O 0.75146 0.70293 0.58457 0.0
C43 C 0.74462 0.54664 0.62486 0.0
Fe44 Fe 0.29393 0.68762 0.87484 0.0
Fe45 Fe 0.36162 0.59024 0.87882 0.0
O46 O 0.34053 0.66546 0.88987 0.0
Fe47 Fe 0.36682 0.71533 0.91711 0.0
O48 O 0.32753 0.71659 0.94498 0.0
O49 O 0.27586 0.71552 0.91358 0.0
O50 O 0.27122 0.61037 0.88476 0.0
C51 C 0.28233 0.55485 0.8775 0.0
C52 C 0.32548 0.81092 0.88144 0.0
O53 O 0.31703 0.54541 0.8702 0.0
C54 C 0.42897 0.67032 0.88448 0.0
O55 O 0.3067 0.66168 0.83364 0.0
O56 O 0.36489 0.61553 0.83737 0.0
O57 O 0.35121 0.7926 0.90071 0.0
O58 O 0.30789 0.77023 0.8641 0.0
C59 C 0.37371 0.58976 0.94378 0.0
O60 O 0.41252 0.61575 0.88434 0.0
O61 O 0.40949 0.71951 0.89134 0.0
C62 C 0.33736 0.63864 0.82089 0.0
O63 O 0.35799 0.56168 0.9202 0.0
O64 O 0.386 0.64708 0.94045 0.0
C65 C 0.29173 0.72324 0.94063 0.0
Fe66 Fe 0.66667 0.43719 0.37873 0.0
Fe67 Fe 0.66791 0.31196 0.4193 0.0
O68 O 0.69107 0.36629 0.39216 0.0
Fe69 Fe 0.73962 0.34944 0.37997 0.0
O70 O 0.75617 0.43308 0.37499 0.0
O71 O 0.70652 0.49122 0.38917 0.0
O72 O 0.64598 0.45547 0.41864 0.0
C73 C 0.65255 0.43196 0.44633 0.0
C74 C 0.70439 0.38566 0.323 0.0
O75 O 0.66463 0.37492 0.44938 0.0
C76 C 0.70486 0.22375 0.3825 0.0
O77 O 0.62264 0.39477 0.36635 0.0
O78 O 0.6183 0.32627 0.40595 0.0
O79 O 0.72532 0.34577 0.33805 0.0
O80 O 0.6842 0.42809 0.3372 0.0
C81 C 0.74257 0.31713 0.4436 0.0
O82 O 0.67184 0.24415 0.39126 0.0
O83 O 0.73373 0.26153 0.38185 0.0
C84 C 0.60263 0.35704 0.38338 0.0
O85 O 0.71165 0.28694 0.43914 0.0
O86 O 0.75693 0.35232 0.42172 0.0
C87 C 0.74183 0.48664 0.38236 0.0
Fe88 Fe 0.66132 0.71323 0.9171 0.0
Fe89 Fe 0.66441 0.58763 0.87753 0.0
O90 O 0.68729 0.66006 0.89095 0.0
Fe91 Fe 0.73565 0.67783 0.87828 0.0
O92 O 0.75103 0.71126 0.91726 0.0
O93 O 0.69839 0.71362 0.94696 0.0
O94 O 0.63995 0.64686 0.9407 0.0
C95 C 0.64952 0.58799 0.94303 0.0
C96 C 0.7072 0.80163 0.87896 0.0
O97 O 0.66116 0.55786 0.91847 0.0
C98 C 0.69745 0.63345 0.82186 0.0
O99 O 0.6192 0.71918 0.8907 0.0
O100 O 0.61509 0.61735 0.87891 0.0
O101 O 0.72288 0.75712 0.86341 0.0
O102 O 0.68112 0.78879 0.89955 0.0
C103 C 0.74273 0.5451 0.88152 0.0
O104 O 0.66707 0.61377 0.83594 0.0
O105 O 0.72753 0.64965 0.83733 0.0
C106 C 0.59922 0.67119 0.88214 0.0
O107 O 0.70803 0.53966 0.87307 0.0
O108 O 0.7552 0.59938 0.89079 0.0
C109 C 0.73398 0.72218 0.94357 0.0
Fe110 Fe 0.37249 0.32367 0.41817 0.0
Fe111 Fe 0.36968 0.44521 0.37646 0.0
O112 O 0.34675 0.37447 0.39141 0.0
Fe113 Fe 0.29921 0.35445 0.37877 0.0
O114 O 0.28457 0.31969 0.41846 0.0
O115 O 0.33648 0.33037 0.44871 0.0
O116 O 0.39633 0.39255 0.43899 0.0
C117 C 0.38579 0.45132 0.44063 0.0
C118 C 0.32802 0.23238 0.3807 0.0
O119 O 0.37193 0.47899 0.41618 0.0
C120 C 0.33788 0.39683 0.3218 0.0
O121 O 0.41165 0.31244 0.3895 0.0
O122 O 0.41982 0.4149 0.38008 0.0
O123 O 0.31427 0.27664 0.36386 0.0
O124 O 0.35069 0.24655 0.40372 0.0
C125 C 0.29014 0.48559 0.3814 0.0
O126 O 0.36849 0.41364 0.33611 0.0
O127 O 0.30684 0.38474 0.3373 0.0
C128 C 0.43316 0.35823 0.3807 0.0
O129 O 0.32419 0.49149 0.37009 0.0
O130 O 0.27911 0.43132 0.39181 0.0
C131 C 0.30125 0.31773 0.44569 0.0
Fe132 Fe 0.66366 0.44517 0.12943 0.0
Fe133 Fe 0.73495 0.35564 0.12667 0.0
O134 O 0.68671 0.3747 0.11517 0.0
Fe135 Fe 0.661 0.32452 0.08851 0.0
O136 O 0.63392 0.39052 0.06917 0.0
O137 O 0.66034 0.47764 0.08856 0.0
O138 O 0.70832 0.49296 0.13438 0.0
C139 C 0.74199 0.48785 0.12271 0.0
C140 C 0.60114 0.35412 0.12662 0.0
O141 O 0.75392 0.43384 0.113 0.0
C142 C 0.70532 0.23242 0.12481 0.0
O143 O 0.66674 0.41592 0.17053 0.0
O144 O 0.72815 0.38504 0.16801 0.0
O145 O 0.62312 0.30933 0.11781 0.0
O146 O 0.61383 0.4116 0.12737 0.0
C147 C 0.73132 0.32151 0.06042 0.0
O148 O 0.72165 0.2756 0.14136 0.0
O149 O 0.68421 0.24909 0.10152 0.0
C150 C 0.6977 0.39747 0.18401 0.0
O151 O 0.74851 0.32136 0.08733 0.0
O152 O 0.69666 0.33747 0.05809 0.0
C153 C 0.64444 0.44838 0.06542 0.0
Fe154 Fe 0.29759 0.6763 0.6284 0.0
Fe155 Fe 0.37014 0.71872 0.5898 0.0
O156 O 0.34512 0.66158 0.61403 0.0
Fe157 Fe 0.36917 0.58854 0.62436 0.0
O158 O 0.32526 0.53904 0.63136 0.0
O159 O 0.27845 0.59934 0.6137 0.0
O160 O 0.28062 0.71297 0.59029 0.0
C161 C 0.29729 0.72536 0.56377 0.0
C162 C 0.34084 0.62883 0.68206 0.0
O163 O 0.33306 0.71924 0.55998 0.0
C164 C 0.43215 0.67702 0.62319 0.0
O165 O 0.30993 0.75449 0.64504 0.0
O166 O 0.34859 0.79175 0.60792 0.0
O167 O 0.37021 0.61184 0.66609 0.0
O168 O 0.30881 0.64335 0.66863 0.0
C169 C 0.38402 0.59675 0.56024 0.0
O170 O 0.41003 0.72408 0.6184 0.0
O171 O 0.41894 0.62048 0.62026 0.0
C172 C 0.32404 0.80144 0.62998 0.0
O173 O 0.39402 0.65525 0.56511 0.0
O174 O 0.36882 0.56357 0.58256 0.0
C175 C 0.29058 0.54479 0.62223 0.0
Fe176 Fe 0.87116 0.94853 0.12512 0.0
Fe177 Fe 0.87257 0.82065 0.08946 0.0
O178 O 0.84686 0.87663 0.11332 0.0
Fe179 Fe 0.79848 0.86264 0.12543 0.0
O180 O 0.78166 0.9409 0.11084 0.0
O181 O 0.82785 0.99856 0.13168 0.0
O182 O 0.87195 0.975 0.08347 0.0
C183 C 0.8879 0.94322 0.06115 0.0
C184 C 0.83964 0.90615 0.18132 0.0
O185 O 0.89867 0.8854 0.06657 0.0
C186 C 0.82297 0.73674 0.12673 0.0
O187 O 0.92077 0.91583 0.12198 0.0
O188 O 0.90994 0.81284 0.11991 0.0
O189 O 0.80814 0.89281 0.16653 0.0
O190 O 0.87015 0.92321 0.16663 0.0
C191 C 0.80181 0.81727 0.06023 0.0
O192 O 0.84906 0.74715 0.1059 0.0
O193 O 0.80814 0.78304 0.14151 0.0
C194 C 0.93277 0.85876 0.12529 0.0
O195 O 0.8378 0.82274 0.05796 0.0
O196 O 0.7836 0.82893 0.0861 0.0
C197 C 0.79391 0.99436 0.12085 0.0
Fe198 Fe 0.16436 0.08824 0.62589 0.0
Fe199 Fe 0.16023 0.2142 0.5878 0.0
O200 O 0.18638 0.16223 0.61414 0.0
Fe201 Fe 0.23407 0.18126 0.62791 0.0
O202 O 0.25477 0.10383 0.61497 0.0
O203 O 0.20865 0.04256 0.63324 0.0
O204 O 0.16558 0.06072 0.58429 0.0
C205 C 0.1507 0.09001 0.5606 0.0
C206 C 0.19249 0.13434 0.68298 0.0
O207 O 0.13877 0.14736 0.56421 0.0
C208 C 0.2023 0.30493 0.62727 0.0
O209 O 0.11407 0.11513 0.6218 0.0
O210 O 0.11805 0.21874 0.61426 0.0
O211 O 0.22368 0.15163 0.66892 0.0
O212 O 0.16331 0.11349 0.66761 0.0
C213 C 0.23408 0.22334 0.56288 0.0
O214 O 0.17885 0.28969 0.60518 0.0
O215 O 0.22083 0.26137 0.64181 0.0
C216 C 0.0981 0.16967 0.62138 0.0
O217 O 0.19843 0.21526 0.55897 0.0
O218 O 0.25069 0.21469 0.58956 0.0
C219 C 0.24293 0.049 0.62363 0.0
Fe220 Fe 0.87281 0.21322 0.91609 0.0
Fe221 Fe 0.79663 0.18143 0.88072 0.0
O222 O 0.84483 0.16186 0.89153 0.0
Fe223 Fe 0.86644 0.08984 0.87774 0.0
O224 O 0.86928 0.05998 0.91881 0.0
O225 O 0.89888 0.14603 0.93641 0.0
O226 O 0.83882 0.20769 0.94827 0.0
C227 C 0.80352 0.22065 0.94647 0.0
C228 C 0.93046 0.17683 0.87769 0.0
O229 O 0.78482 0.2168 0.92023 0.0
C230 C 0.83272 0.13725 0.82321 0.0
O231 O 0.85095 0.28886 0.90184 0.0
O232 O 0.80996 0.26017 0.86482 0.0
O233 O 0.91709 0.11998 0.87919 0.0
O234 O 0.90884 0.22291 0.8848 0.0
C235 C 0.78796 0.04998 0.88561 0.0
O236 O 0.80242 0.15066 0.83934 0.0
O237 O 0.86349 0.11769 0.83656 0.0
C238 C 0.82843 0.30394 0.87921 0.0
O239 O 0.77714 0.1044 0.89549 0.0
O240 O 0.82115 0.04381 0.87327 0.0
C241 C 0.88715 0.08866 0.94114 0.0
Fe242 Fe 0.16897 0.94332 0.37662 0.0
Fe243 Fe 0.15982 0.8192 0.41484 0.0
O244 O 0.18912 0.87025 0.39032 0.0
Fe245 Fe 0.23775 0.85116 0.38008 0.0
O246 O 0.25735 0.92847 0.39481 0.0
O247 O 0.21426 0.98876 0.3718 0.0
O248 O 0.1664 0.9721 0.41789 0.0
C249 C 0.14863 0.94351 0.44049 0.0
C250 C 0.20296 0.89809 0.32176 0.0
O251 O 0.13561 0.88692 0.43583 0.0
C252 C 0.20482 0.72739 0.3785 0.0
O253 O 0.11863 0.91601 0.37809 0.0
O254 O 0.12125 0.81296 0.38459 0.0
O255 O 0.23246 0.88271 0.33852 0.0
O256 O 0.17175 0.91582 0.33522 0.0
C257 C 0.23048 0.81383 0.44562 0.0
O258 O 0.1804 0.74305 0.39979 0.0
O259 O 0.22492 0.77089 0.36487 0.0
C260 C 0.10287 0.86162 0.37474 0.0
O261 O 0.19449 0.82089 0.44678 0.0
O262 O 0.2495 0.81738 0.41966 0.0
C263 C 0.24702 0.98299 0.38462 0.0
Fe264 Fe 0.15679 0.20769 0.92006 0.0
Fe265 Fe 0.16168 0.09092 0.87685 0.0
O266 O 0.18329 0.16197 0.89211 0.0
Fe267 Fe 0.23087 0.18552 0.88101 0.0
O268 O 0.24349 0.21503 0.92203 0.0
O269 O 0.19184 0.19092 0.95043 0.0
O270 O 0.12985 0.13854 0.9374 0.0
C271 C 0.13948 0.07997 0.93963 0.0
C272 C 0.20138 0.30687 0.88742 0.0
O273 O 0.15915 0.05603 0.91711 0.0
C274 C 0.19416 0.14218 0.82253 0.0
O275 O 0.1196 0.22442 0.89055 0.0
O276 O 0.11145 0.12224 0.87917 0.0
O277 O 0.21639 0.26637 0.86871 0.0
O278 O 0.17941 0.28694 0.90985 0.0
C279 C 0.2408 0.0536 0.88212 0.0
O280 O 0.16389 0.1217 0.83632 0.0
O281 O 0.22406 0.15991 0.83845 0.0
C282 C 0.09837 0.17937 0.88038 0.0
O283 O 0.20706 0.04583 0.87106 0.0
O284 O 0.25152 0.10792 0.89234 0.0
C285 C 0.22639 0.20834 0.94906 0.0
Fe286 Fe 0.87286 0.8249 0.41702 0.0
Fe287 Fe 0.86662 0.94675 0.37578 0.0
O288 O 0.84558 0.87368 0.39003 0.0
Fe289 Fe 0.79769 0.85206 0.37785 0.0
O290 O 0.78301 0.82146 0.41695 0.0
O291 O 0.83555 0.8267 0.44687 0.0
O292 O 0.89507 0.89428 0.43783 0.0
C293 C 0.88544 0.95302 0.43984 0.0
C294 C 0.82888 0.72942 0.38234 0.0
O295 O 0.86808 0.97937 0.4165 0.0
C296 C 0.83559 0.89712 0.32062 0.0
O297 O 0.91387 0.81738 0.38984 0.0
O298 O 0.91716 0.91952 0.37822 0.0
O299 O 0.8114 0.77096 0.36545 0.0
O300 O 0.85429 0.74726 0.40226 0.0
C301 C 0.7877 0.98364 0.38075 0.0
O302 O 0.86562 0.91722 0.33492 0.0
O303 O 0.8054 0.88006 0.33611 0.0
C304 C 0.93334 0.86512 0.38026 0.0
O305 O 0.82125 0.99139 0.36951 0.0
O306 O 0.77697 0.92887 0.39012 0.0
C307 C 0.79996 0.81533 0.44352 0.0
Fe308 Fe 0.23537 0.85415 0.12365 0.0
Fe309 Fe 0.15943 0.81856 0.0875 0.0
O310 O 0.18662 0.87096 0.11264 0.0
Fe311 Fe 0.16374 0.94308 0.12558 0.0
O312 O 0.2074 0.99221 0.13087 0.0
O313 O 0.25372 0.93351 0.11161 0.0
O314 O 0.24927 0.82727 0.08363 0.0
C315 C 0.2309 0.81974 0.05766 0.0
C316 C 0.1972 0.89848 0.18137 0.0
O317 O 0.19459 0.8241 0.05593 0.0
C318 C 0.10059 0.85388 0.12539 0.0
O319 O 0.22555 0.77058 0.13587 0.0
O320 O 0.181 0.74345 0.10117 0.0
O321 O 0.16657 0.91757 0.16736 0.0
O322 O 0.22698 0.87973 0.1657 0.0
C323 C 0.14466 0.94096 0.06144 0.0
O324 O 0.1222 0.80786 0.11785 0.0
O325 O 0.11365 0.91091 0.12395 0.0
C326 C 0.20805 0.72784 0.1197 0.0
O327 O 0.133 0.88443 0.06726 0.0
O328 O 0.16157 0.97146 0.08375 0.0
C329 C 0.24154 0.98723 0.1208 0.0
Fe330 Fe 0.79364 0.1869 0.62771 0.0
Fe331 Fe 0.86576 0.22061 0.58726 0.0
O332 O 0.8412 0.16703 0.6142 0.0
Fe333 Fe 0.86359 0.09372 0.62642 0.0
O334 O 0.82212 0.04372 0.61489 0.0
O335 O 0.77473 0.10464 0.6314 0.0
O336 O 0.77517 0.18874 0.58621 0.0
C337 C 0.7901 0.22357 0.56438 0.0
C338 C 0.82835 0.14179 0.68361 0.0
O339 O 0.82259 0.24933 0.56795 0.0
C340 C 0.92878 0.17126 0.62399 0.0
O341 O 0.80203 0.27394 0.62706 0.0
O342 O 0.86371 0.28834 0.61563 0.0
O343 O 0.84667 0.09962 0.66788 0.0
O344 O 0.80913 0.18586 0.66971 0.0
C345 C 0.87875 0.10109 0.55892 0.0
O346 O 0.91509 0.20187 0.6005 0.0
O347 O 0.90763 0.13387 0.64013 0.0
C348 C 0.83136 0.31038 0.6252 0.0
O349 O 0.86744 0.15866 0.55637 0.0
O350 O 0.88445 0.07664 0.58644 0.0
C351 C 0.78723 0.05035 0.62317 0.0
C352 C 0.32582 0.109 0.13323 0.0
C353 C 0.30577 0.16778 0.12798 0.0
C354 C 0.24965 0.10519 0.10963 0.0
C355 C 0.26662 0.0469 0.11998 0.0
N356 N 0.32031 0.9955 0.14686 0.0
N357 N 0.24239 0.21721 0.12133 0.0
C358 C 0.30479 0.04911 0.13303 0.0
C359 C 0.26586 0.16469 0.11933 0.0
N360 N 0.36467 0.11024 0.13902 0.0
N361 N 0.21857 0.10417 0.08949 0.0
H362 H 0.25059 0.26046 0.13174 0.0
H363 H 0.21271 0.2146 0.11698 0.0
H364 H 0.20811 0.06158 0.07958 0.0
H365 H 0.20711 0.14578 0.07923 0.0
H366 H 0.38156 0.06884 0.13965 0.0
H367 H 0.38032 0.15307 0.14127 0.0
H368 H 0.34626 0.9962 0.15955 0.0
H369 H 0.30577 0.95158 0.14819 0.0
C370 C 0.72682 0.9097 0.58964 0.0
C371 C 0.71839 0.87446 0.61853 0.0
C372 C 0.74237 0.9677 0.64944 0.0
C373 C 0.75962 0.99402 0.62134 0.0
N374 N 0.76304 0.99684 0.56395 0.0
N375 N 0.71489 0.87441 0.67629 0.0
C376 C 0.75004 0.96702 0.5912 0.0
C377 C 0.72519 0.90501 0.64851 0.0
N378 N 0.71299 0.88916 0.56066 0.0
N379 N 0.74034 1.00383 0.67666 0.0
H380 H 0.69799 0.83268 0.67673 0.0
H381 H 0.72413 0.88947 0.69883 0.0
H382 H 0.75049 0.051 0.67786 0.0
H383 H 0.7249 0.98987 0.69698 0.0
H384 H 0.71403 0.91652 0.53978 0.0
H385 H 0.69788 0.84671 0.55689 0.0
H386 H 0.75921 0.97944 0.54087 0.0
H387 H 0.7785 0.03995 0.56435 0.0
C388 C 0.30436 0.91381 0.91163 0.0
C389 C 0.3121 0.88078 0.88204 0.0
C390 C 0.28102 0.97041 0.85269 0.0
C391 C 0.26851 0.99783 0.88212 0.0
N392 N 0.26813 0.99688 0.93971 0.0
N393 N 0.32104 0.89148 0.8254 0.0
C394 C 0.28095 0.97067 0.91156 0.0
C395 C 0.30386 0.913 0.85278 0.0
N396 N 0.31934 0.89203 0.94 0.0
N397 N 0.27129 0.99991 0.82455 0.0
H398 H 0.34193 0.85557 0.82604 0.0
H399 H 0.31856 0.91331 0.80305 0.0
H400 H 0.2589 0.04551 0.82379 0.0
H401 H 0.27463 0.97924 0.80204 0.0
H402 H 0.31996 0.91911 0.96092 0.0
H403 H 0.33392 0.84916 0.94322 0.0
H404 H 0.27275 0.977 0.96224 0.0
H405 H 0.25056 0.03745 0.94081 0.0
C406 C 0.74407 0.06295 0.40961 0.0
C407 C 0.75973 0.03896 0.38048 0.0
C408 C 0.72964 0.12921 0.35117 0.0
C409 C 0.71412 0.15334 0.38026 0.0
N410 N 0.69801 0.13371 0.43566 0.0
N411 N 0.75874 0.03977 0.32271 0.0
C412 C 0.71834 0.11674 0.40893 0.0
C413 C 0.7498 0.06926 0.35098 0.0
N414 N 0.75562 0.0369 0.43816 0.0
N415 N 0.726 0.16486 0.32377 0.0
H416 H 0.77243 0.99524 0.32171 0.0
H417 H 0.74941 0.0561 0.30042 0.0
H418 H 0.70917 0.2064 0.32269 0.0
H419 H 0.74084 0.15494 0.30263 0.0
H420 H 0.74894 0.05672 0.46036 0.0
H421 H 0.77459 0.99816 0.43976 0.0
H422 H 0.69722 0.10617 0.45653 0.0
H423 H 0.67851 0.17173 0.43588 0.0
C424 C 0.72579 0.98593 0.87243 0.0
C425 C 0.76256 0.99083 0.88778 0.0
C426 C 0.76529 0.87348 0.89063 0.0
C427 C 0.72655 0.86731 0.87901 0.0
N428 N 0.66803 0.92088 0.86276 0.0
N429 N 0.80806 0.93888 0.9227 0.0
C430 C 0.706 0.92472 0.87148 0.0
C431 C 0.77916 0.93444 0.90055 0.0
N432 N 0.71055 0.03846 0.85745 0.0
N433 N 0.79019 0.82269 0.89086 0.0
H434 H 0.81661 0.983 0.93224 0.0
H435 H 0.81918 0.89882 0.93461 0.0
H436 H 0.81906 0.82735 0.89776 0.0
H437 H 0.78465 0.77938 0.87942 0.0
H438 H 0.68601 0.03623 0.843 0.0
H439 H 0.72402 0.08344 0.85763 0.0
H440 H 0.65047 0.96116 0.86011 0.0
H441 H 0.65361 0.877 0.85996 0.0
C442 C 0.25336 0.10043 0.39646 0.0
C443 C 0.27193 0.04298 0.38718 0.0
C444 C 0.33034 0.10882 0.37534 0.0
C445 C 0.30871 0.16659 0.37932 0.0
N446 N 0.24382 0.21188 0.38447 0.0
N447 N 0.32831 0.99399 0.36354 0.0
C448 C 0.2684 0.16076 0.38655 0.0
C449 C 0.31072 0.04733 0.37561 0.0
N450 N 0.2222 0.09777 0.41648 0.0
N451 N 0.36936 0.11253 0.37073 0.0
H452 H 0.31503 0.94889 0.36315 0.0
H453 H 0.3549 0.99558 0.35178 0.0
H454 H 0.38399 0.15635 0.36845 0.0
H455 H 0.38727 0.07233 0.37098 0.0
H456 H 0.20928 0.13874 0.42605 0.0
H457 H 0.21376 0.0549 0.42743 0.0
H458 H 0.25138 0.25687 0.37561 0.0
H459 H 0.21402 0.20687 0.38771 0.0
C460 C 0.75985 0.08092 0.15368 0.0
C461 C 0.76695 0.05109 0.12347 0.0
C462 C 0.71776 0.12182 0.10012 0.0
C463 C 0.71883 0.16285 0.12747 0.0
N464 N 0.73606 0.17325 0.18326 0.0
N465 N 0.7553 0.05121 0.06647 0.0
C466 C 0.73867 0.14005 0.15515 0.0
C467 C 0.74657 0.07375 0.09628 0.0
N468 N 0.77089 0.05046 0.18117 0.0
N469 N 0.68773 0.12463 0.07901 0.0
H470 H 0.77761 0.0186 0.06244 0.0
H471 H 0.7432 0.07052 0.04568 0.0
H472 H 0.66263 0.15052 0.08377 0.0
H473 H 0.68503 0.09301 0.05976 0.0
H474 H 0.76381 0.06636 0.20407 0.0
H475 H 0.78338 1.00506 0.18102 0.0
H476 H 0.75428 0.16524 0.20273 0.0
H477 H 0.71542 0.20891 0.18703 0.0
C478 C 0.30527 0.98524 0.63713 0.0
C479 C 0.2679 0.98924 0.62273 0.0
C480 C 0.26474 0.87137 0.62217 0.0
C481 C 0.30412 0.86621 0.63204 0.0
N482 N 0.36341 0.9212 0.64554 0.0
N483 N 0.22132 0.93413 0.58977 0.0
C484 C 0.32501 0.92424 0.63818 0.0
C485 C 0.25051 0.93165 0.61171 0.0
N486 N 0.32127 0.03833 0.65112 0.0
N487 N 0.24019 0.8197 0.62268 0.0
H488 H 0.21351 0.97715 0.57878 0.0
H489 H 0.20959 0.89311 0.57908 0.0
H490 H 0.21086 0.82382 0.6172 0.0
H491 H 0.24698 0.77551 0.63279 0.0
H492 H 0.34648 0.03671 0.66477 0.0
H493 H 0.30779 0.08306 0.65121 0.0
H494 H 0.38114 0.9618 0.64695 0.0
H495 H 0.37784 0.87759 0.64856 0.0
C496 C 0.76461 0.66516 0.11583 0.0
C497 C 0.80303 0.67163 0.12804 0.0
C498 C 0.80309 0.5536 0.13698 0.0
C499 C 0.76679 0.5478 0.12096 0.0
N500 N 0.72199 0.59764 0.08467 0.0
N501 N 0.86071 0.61891 0.14678 0.0
C502 C 0.75046 0.6035 0.10713 0.0
C503 C 0.82303 0.61468 0.13725 0.0
N504 N 0.74057 0.71685 0.11329 0.0
N505 N 0.81774 0.50205 0.15318 0.0
H506 H 0.87516 0.66286 0.1491 0.0
H507 H 0.87805 0.57874 0.15062 0.0
H508 H 0.8041 0.45721 0.1536 0.0
H509 H 0.84183 0.50511 0.1681 0.0
H510 H 0.74689 0.76181 0.1227 0.0
H511 H 0.71174 0.71245 0.10623 0.0
H512 H 0.71121 0.6368 0.07184 0.0
H513 H 0.71354 0.55297 0.07574 0.0
C514 C 0.23763 0.46985 0.60059 0.0
C515 C 0.26276 0.48847 0.62585 0.0
C516 C 0.23919 0.39486 0.65723 0.0
C517 C 0.21495 0.37522 0.63129 0.0
N518 N 0.17717 0.41761 0.58717 0.0
N519 N 0.27456 0.48188 0.68265 0.0
C520 C 0.20961 0.42014 0.60575 0.0
C521 C 0.25992 0.45463 0.6555 0.0
N522 N 0.2417 0.49688 0.57098 0.0
N523 N 0.24174 0.35764 0.6841 0.0
H524 H 0.28654 0.52786 0.68273 0.0
H525 H 0.27053 0.4629 0.70555 0.0
H526 H 0.22209 0.32099 0.68912 0.0
H527 H 0.26332 0.36343 0.7013 0.0
H528 H 0.22585 0.48169 0.55111 0.0
H529 H 0.26441 0.52808 0.56558 0.0
H530 H 0.1713 0.4516 0.56943 0.0
H531 H 0.15341 0.38888 0.59305 0.0
C532 C 0.76568 0.44332 0.85164 0.0
C533 C 0.7691 0.48687 0.87837 0.0
C534 C 0.82412 0.42152 0.89775 0.0
C535 C 0.81628 0.3736 0.87441 0.0
N536 N 0.795 0.35777 0.82044 0.0
N537 N 0.79794 0.5065 0.93036 0.0
C538 C 0.79139 0.38992 0.84883 0.0
C539 C 0.79776 0.47353 0.9021 0.0
N540 N 0.73712 0.45023 0.82922 0.0
N541 N 0.85831 0.42062 0.91408 0.0
H542 H 0.77729 0.54073 0.93618 0.0
H543 H 0.8155 0.49391 0.94967 0.0
H544 H 0.88048 0.38879 0.9084 0.0
H545 H 0.86691 0.45734 0.92953 0.0
H546 H 0.72941 0.41372 0.81336 0.0
H547 H 0.71949 0.49011 0.82669 0.0
H548 H 0.78105 0.37136 0.79937 0.0
H549 H 0.81634 0.32322 0.81679 0.0
C550 C 0.23422 0.55642 0.40254 0.0
C551 C 0.26141 0.54085 0.37799 0.0
C552 C 0.23904 0.63668 0.3476 0.0
C553 C 0.21583 0.65628 0.37393 0.0
N554 N 0.17488 0.61257 0.41566 0.0
N555 N 0.27518 0.55133 0.32159 0.0
C556 C 0.20812 0.60923 0.39809 0.0
C557 C 0.25981 0.57701 0.34885 0.0
N558 N 0.23363 0.52251 0.43063 0.0
N559 N 0.23906 0.67324 0.32048 0.0
H560 H 0.2858 0.50459 0.32083 0.0
H561 H 0.27329 0.57238 0.299 0.0
H562 H 0.2177 0.70762 0.31646 0.0
H563 H 0.2592 0.66853 0.30208 0.0
H564 H 0.21708 0.53597 0.45037 0.0
H565 H 0.25183 0.48409 0.4355 0.0
H566 H 0.16653 0.57731 0.43209 0.0
H567 H 0.15266 0.64432 0.41002 0.0
C568 C 0.24738 0.47176 0.91087 0.0
C569 C 0.2555 0.49786 0.88026 0.0
C570 C 0.21742 0.40939 0.85595 0.0
C571 C 0.21522 0.37692 0.88599 0.0
N572 N 0.2321 0.37835 0.94235 0.0
N573 N 0.24878 0.49126 0.82297 0.0
C574 C 0.23067 0.40904 0.91358 0.0
C575 C 0.24063 0.46653 0.85257 0.0
N576 N 0.25593 0.50671 0.9377 0.0
N577 N 0.19554 0.38743 0.83102 0.0
H578 H 0.26322 0.53504 0.81981 0.0
H579 H 0.24298 0.4669 0.80171 0.0
H580 H 0.17605 0.34932 0.83375 0.0
H581 H 0.19326 0.41122 0.80911 0.0
H582 H 0.24633 0.49422 0.96058 0.0
H583 H 0.2697 0.55136 0.93686 0.0
H584 H 0.2485 0.39425 0.96175 0.0
H585 H 0.21894 0.33466 0.9462 0.0
C586 C 0.81086 0.62106 0.41057 0.0
C587 C 0.81466 0.65968 0.38195 0.0
C588 C 0.77029 0.58461 0.3544 0.0
C589 C 0.76715 0.54574 0.3823 0.0
N590 N 0.79145 0.51888 0.43458 0.0
N591 N 0.81079 0.65874 0.32448 0.0
C592 C 0.78985 0.56132 0.40951 0.0
C593 C 0.79814 0.63544 0.35323 0.0
N594 N 0.8249 0.64181 0.43942 0.0
N595 N 0.74612 0.57418 0.32907 0.0
H596 H 0.83405 0.69084 0.32301 0.0
H597 H 0.80206 0.63971 0.30254 0.0
H598 H 0.72497 0.53825 0.32917 0.0
H599 H 0.74485 0.60489 0.30931 0.0
H600 H 0.81703 0.62084 0.46118 0.0
H601 H 0.84244 0.68166 0.4429 0.0
H602 H 0.81127 0.52273 0.45328 0.0
H603 H 0.77502 0.47671 0.43543 0.0
C604 C 0.25086 0.56491 0.0917 0.0
C605 C 0.26527 0.54145 0.12135 0.0
C606 C 0.23121 0.6288 0.14962 0.0
C607 C 0.22214 0.65858 0.11998 0.0
N608 N 0.21308 0.64364 0.06247 0.0
N609 N 0.26696 0.54768 0.17899 0.0
C610 C 0.22838 0.62287 0.09091 0.0
C611 C 0.25475 0.5725 0.15041 0.0
N612 N 0.2609 0.53381 0.06399 0.0
N613 N 0.21375 0.65081 0.17678 0.0
H614 H 0.27995 0.50273 0.18089 0.0
H615 H 0.26532 0.57237 0.20063 0.0
H616 H 0.19209 0.68549 0.17576 0.0
H617 H 0.21638 0.6293 0.19922 0.0
H618 H 0.25294 0.54783 0.04106 0.0
H619 H 0.27884 0.49368 0.06341 0.0
H620 H 0.21171 0.6161 0.04176 0.0
H621 H 0.1999 0.68764 0.05878 0.0
C622 C 0.8185 0.4178 0.59837 0.0
C623 C 0.82262 0.38117 0.62703 0.0
C624 C 0.77703 0.45354 0.65441 0.0
C625 C 0.77213 0.49024 0.62569 0.0
N626 N 0.79106 0.51017 0.57073 0.0
N627 N 0.8156 0.37582 0.6839 0.0
C628 C 0.79423 0.47373 0.59795 0.0
C629 C 0.80501 0.40329 0.6555 0.0
N630 N 0.836 0.3968 0.57099 0.0
N631 N 0.75411 0.46464 0.68051 0.0
H632 H 0.83666 0.34017 0.68485 0.0
H633 H 0.80714 0.39291 0.70626 0.0
H634 H 0.73384 0.50128 0.68178 0.0
H635 H 0.75308 0.43434 0.70041 0.0
H636 H 0.82957 0.41379 0.54814 0.0
H637 H 0.85689 0.36086 0.57109 0.0
H638 H 0.80971 0.5066 0.55124 0.0
H639 H 0.77023 0.54572 0.56767 0.0
C640 C 0.38949 0.44636 1.00025 0.0
C641 C 0.39299 0.47683 0.03077 0.0
C642 C 0.38683 0.58218 0.00442 0.0
C643 C 0.38362 0.55212 0.97374 0.0
N644 N 0.40146 0.45761 0.94344 0.0
N645 N 0.41386 0.57337 0.05771 0.0
C646 C 0.39072 0.48475 0.97187 0.0
C647 C 0.39776 0.54465 0.03146 0.0
N648 N 0.38427 0.38145 0.99761 0.0
N649 N 0.37797 0.64554 0.00877 0.0
H650 H 0.42482 0.54685 0.07692 0.0
H651 H 0.421 0.62217 0.05837 0.0
H652 H 0.36799 0.67585 0.99088 0.0
H653 H 0.37642 0.66648 0.03142 0.0
H654 H 0.376 0.35974 0.97614 0.0
H655 H 0.38654 0.3492 0.01649 0.0
H656 H 0.40995 0.40969 0.94151 0.0
H657 H 0.40754 0.48472 0.92298 0.0
C658 C 0.6471 0.53898 0.4764 0.0
C659 C 0.64396 0.47049 0.47621 0.0
C660 C 0.63259 0.47401 0.53473 0.0
C661 C 0.63594 0.5423 0.53422 0.0
N662 N 0.62242 0.63525 0.5007 0.0
N663 N 0.61815 0.37749 0.50458 0.0
C664 C 0.63541 0.57361 0.50393 0.0
C665 C 0.63223 0.43909 0.50523 0.0
N666 N 0.66309 0.57199 0.45136 0.0
N667 N 0.62797 0.44234 0.56319 0.0
H668 H 0.61363 0.35174 0.48356 0.0
H669 H 0.60614 0.35458 0.52449 0.0
H670 H 0.62022 0.46571 0.5843 0.0
H671 H 0.63187 0.39286 0.56566 0.0
H672 H 0.66733 0.62166 0.45184 0.0
H673 H 0.67692 0.55004 0.43232 0.0
H674 H 0.61979 0.65779 0.47845 0.0
H675 H 0.60765 0.65927 0.51875 0.0
C676 C 0.65647 0.45404 0.00562 0.0
C677 C 0.63921 0.48089 0.03337 0.0
C678 C 0.61929 0.57233 0.99947 0.0
C679 C 0.64506 0.55207 0.97453 0.0
N680 N 0.69917 0.48137 0.96251 0.0
N681 N 0.60488 0.57029 0.05652 0.0
C682 C 0.66695 0.49523 0.98007 0.0
C683 C 0.62131 0.54206 0.03038 0.0
N684 N 0.66178 0.38944 0.00252 0.0
N685 N 0.59113 0.61669 0.99356 0.0
H686 H 0.60249 0.54709 0.07864 0.0
H687 H 0.59536 0.61783 0.05638 0.0
H688 H 0.58507 0.63478 0.97087 0.0
H689 H 0.57014 0.62877 0.01042 0.0
H690 H 0.67364 0.36924 0.98186 0.0
H691 H 0.64823 0.35613 0.01745 0.0
H692 H 0.71646 0.44153 0.96754 0.0
H693 H 0.71188 0.51404 0.94673 0.0
C694 C 0.36833 0.58382 0.50185 0.0
C695 C 0.39117 0.56555 0.52836 0.0
C696 C 0.4181 0.47889 0.49483 0.0
C697 C 0.38858 0.48916 0.47144 0.0
N698 N 0.3271 0.54132 0.46105 0.0
N699 N 0.43754 0.49151 0.55055 0.0
C700 C 0.36124 0.53873 0.47731 0.0
C701 C 0.41577 0.51126 0.52513 0.0
N702 N 0.35421 0.64461 0.49921 0.0
N703 N 0.44948 0.44203 0.4877 0.0
H704 H 0.43858 0.51686 0.57209 0.0
H705 H 0.45288 0.44844 0.55058 0.0
H706 H 0.45429 0.42351 0.46491 0.0
H707 H 0.47304 0.43699 0.50306 0.0
H708 H 0.33849 0.65997 0.47927 0.0
H709 H 0.36431 0.6816 0.51368 0.0
H710 H 0.30571 0.57428 0.46695 0.0
H711 H 0.31776 0.50531 0.4456 0.0
C712 C 0.89871 0.08285 0.00254 0.0
C713 C 0.89646 0.05241 0.97185 0.0
C714 C 0.89472 0.94688 0.99927 0.0
C715 C 0.89714 0.97741 0.02986 0.0
N716 N 0.92006 0.0719 0.05752 0.0
N717 N 0.91095 0.95487 0.94297 0.0
C718 C 0.90497 0.0446 0.03049 0.0
C719 C 0.90018 0.98422 0.97083 0.0
N720 N 0.89342 0.14754 0.00603 0.0
N721 N 0.88609 0.88298 0.99658 0.0
H722 H 0.91905 0.98073 0.92256 0.0
H723 H 0.91709 0.90588 0.94156 0.0
H724 H 0.88425 0.85141 0.01576 0.0
H725 H 0.87867 0.86185 0.97477 0.0
H726 H 0.8897 0.16891 0.02841 0.0
H727 H 0.8901 0.17986 0.98734 0.0
H728 H 0.92945 0.11964 0.05838 0.0
H729 H 0.92809 0.04471 0.07748 0.0
C730 C 0.14094 0.94851 0.50233 0.0
C731 C 0.14095 0.9792 0.47156 0.0
C732 C 0.14417 0.0843 0.49878 0.0
C733 C 0.14316 0.05381 0.52959 0.0
N734 N 0.12266 0.95812 0.55805 0.0
N735 N 0.12456 0.07666 0.44324 0.0
C736 C 0.13619 0.98629 0.53058 0.0
C737 C 0.13696 0.04719 0.47067 0.0
N738 N 0.14641 0.88381 0.50549 0.0
N739 N 0.15344 0.14788 0.49545 0.0
H740 H 0.11569 0.05087 0.4231 0.0
H741 H 0.11807 0.12557 0.4421 0.0
H742 H 0.15905 0.17864 0.51435 0.0
H743 H 0.15908 0.16892 0.4732 0.0
H744 H 0.15247 0.8623 0.52753 0.0
H745 H 0.14691 0.85163 0.48662 0.0
H746 H 0.11403 0.91002 0.55919 0.0
H747 H 0.11482 0.98449 0.57825 0.0
C748 C 0.13577 0.9383 0.99974 0.0
C749 C 0.13505 0.97312 0.02955 0.0
C750 C 0.118 0.07075 0.99852 0.0
C751 C 0.12939 0.04047 0.96945 0.0
N752 N 0.13719 0.94029 0.9415 0.0
N753 N 0.11906 0.07277 0.0564 0.0
C754 C 0.13453 0.97264 0.96989 0.0
C755 C 0.12465 0.03953 0.02858 0.0
N756 N 0.13634 0.87241 0.99925 0.0
N757 N 0.09667 0.12591 0.99748 0.0
H758 H 0.11473 0.05059 0.07854 0.0
H759 H 0.11876 0.12289 0.05734 0.0
H760 H 0.08403 0.14255 0.97645 0.0
H761 H 0.08547 0.14848 0.01768 0.0
H762 H 0.13119 0.84512 0.97882 0.0
H763 H 0.1392 0.84264 0.01895 0.0
H764 H 0.14926 0.89476 0.93913 0.0
H765 H 0.12635 0.95899 0.92012 0.0
C766 C 0.89738 0.05914 0.47009 0.0
C767 C 0.894 0.9907 0.47027 0.0
C768 C 0.88336 0.99381 0.52842 0.0
C769 C 0.88663 0.06232 0.52878 0.0
N770 N 0.91371 0.15432 0.50081 0.0
N771 N 0.90749 0.89742 0.50371 0.0
C772 C 0.89838 0.09359 0.4998 0.0
C773 C 0.89461 0.95918 0.50062 0.0
N774 N 0.90183 0.09146 0.4418 0.0
N775 N 0.86808 0.96073 0.55375 0.0
H776 H 0.9221 0.87323 0.48563 0.0
H777 H 0.91042 0.87476 0.5259 0.0
H778 H 0.85422 0.98246 0.57286 0.0
H779 H 0.86444 0.91096 0.55364 0.0
H780 H 0.89817 0.14107 0.43976 0.0
H781 H 0.9093 0.06866 0.42047 0.0
H782 H 0.92544 0.17754 0.48088 0.0
H783 H 0.91989 0.17803 0.5222 0.0
C784 C 0.49654 0.31624 0.10187 0.0
C785 C 0.47586 0.34483 0.1277 0.0
C786 C 0.53766 0.36337 0.15598 0.0
C787 C 0.55834 0.3429 0.12844 0.0
N788 N 0.55695 0.30444 0.07358 0.0
N789 N 0.47643 0.39559 0.17958 0.0
C790 C 0.5377 0.31939 0.10124 0.0
C791 C 0.49642 0.3682 0.15487 0.0
N792 N 0.47718 0.28643 0.0774 0.0
N793 N 0.55758 0.37628 0.18356 0.0
H794 H 0.44631 0.39508 0.18091 0.0
H795 H 0.48947 0.42104 0.19814 0.0
H796 H 0.58759 0.37203 0.18519 0.0
H797 H 0.54446 0.38558 0.2055 0.0
H798 H 0.49059 0.25553 0.06125 0.0
H799 H 0.44749 0.28859 0.07385 0.0
H800 H 0.5433 0.29896 0.0515 0.0
H801 H 0.58677 0.30099 0.07162 0.0
C802 C 0.53728 0.70898 0.59885 0.0
C803 C 0.55797 0.68163 0.62516 0.0
C804 C 0.49563 0.65758 0.65185 0.0
C805 C 0.47519 0.68618 0.62587 0.0
N806 N 0.47741 0.75046 0.57736 0.0
N807 N 0.55689 0.63987 0.67906 0.0
C808 C 0.49628 0.71597 0.6005 0.0
C809 C 0.53706 0.65875 0.65232 0.0
N810 N 0.5561 0.72375 0.57089 0.0
N811 N 0.47528 0.62865 0.67607 0.0
H812 H 0.58698 0.63924 0.68014 0.0
H813 H 0.54387 0.62953 0.70098 0.0
H814 H 0.44531 0.63222 0.67822 0.0
H815 H 0.48773 0.59917 0.69339 0.0
H816 H 0.54188 0.73351 0.54943 0.0
H817 H 0.58581 0.72123 0.56779 0.0
H818 H 0.49159 0.7815 0.56156 0.0
H819 H 0.44753 0.7524 0.57496 0.0
C820 C 0.53456 0.71947 0.86414 0.0
C821 C 0.5556 0.67318 0.88238 0.0
C822 C 0.49409 0.6327 0.90454 0.0
C823 C 0.47258 0.67372 0.88398 0.0
N824 N 0.4727 0.75118 0.84094 0.0
N825 N 0.55233 0.57582 0.91537 0.0
C826 C 0.49295 0.71627 0.86304 0.0
C827 C 0.53452 0.62678 0.90085 0.0
N828 N 0.55421 0.76566 0.84728 0.0
N829 N 0.47661 0.60186 0.92962 0.0
H830 H 0.58173 0.57124 0.91881 0.0
H831 H 0.53717 0.53519 0.92322 0.0
H832 H 0.44749 0.60464 0.9343 0.0
H833 H 0.49176 0.57942 0.94811 0.0
H834 H 0.5409 0.80518 0.83668 0.0
H835 H 0.58426 0.76633 0.84517 0.0
H836 H 0.48566 0.77794 0.82272 0.0
H837 H 0.44262 0.74931 0.83918 0.0
C838 C 0.53887 0.35533 0.35106 0.0
C839 C 0.55891 0.35589 0.38094 0.0
C840 C 0.49667 0.33943 0.4085 0.0
C841 C 0.47615 0.34913 0.37951 0.0
N842 N 0.478 0.37241 0.32294 0.0
N843 N 0.55249 0.37336 0.43806 0.0
C844 C 0.49738 0.35923 0.35068 0.0
C845 C 0.53662 0.3544 0.40967 0.0
N846 N 0.55902 0.34859 0.32315 0.0
N847 N 0.47842 0.31702 0.43536 0.0
H848 H 0.57978 0.39417 0.43942 0.0
H849 H 0.53643 0.37809 0.45909 0.0
H850 H 0.44923 0.30484 0.4362 0.0
H851 H 0.4935 0.30426 0.45606 0.0
H852 H 0.54581 0.34176 0.30098 0.0
H853 H 0.58895 0.34375 0.32255 0.0
H854 H 0.49178 0.38724 0.30195 0.0
H855 H 0.44785 0.372 0.32153 0.0
C856 C 0.99647 0.87298 0.15419 0.0
C857 C 0.97537 0.84716 0.12787 0.0
C858 C 0.03662 0.81788 0.1015 0.0
C859 C 0.05778 0.84375 0.12786 0.0
N860 N 0.05811 0.88306 0.18199 0.0
N861 N 0.97553 0.78373 0.07909 0.0
C862 C 0.03768 0.86751 0.15502 0.0
C863 C 0.99545 0.81557 0.1026 0.0
N864 N 0.97705 0.90336 0.17833 0.0
N865 N 0.0554 0.79981 0.07409 0.0
H866 H 0.9458 0.78607 0.07581 0.0
H867 H 0.98849 0.75106 0.06358 0.0
H868 H 0.08519 0.7959 0.07197 0.0
H869 H 0.04143 0.79216 0.05232 0.0
H870 H 0.99053 0.93056 0.19604 0.0
H871 H 0.94694 0.90355 0.17999 0.0
H872 H 0.0454 0.89503 0.20378 0.0
H873 H 0.08812 0.87845 0.18345 0.0
C874 C 0.993 0.22329 0.63951 0.0
C875 C 0.97185 0.16927 0.62793 0.0
C876 C 0.03216 0.12277 0.60822 0.0
C877 C 0.05443 0.17239 0.62307 0.0
N878 N 0.05491 0.26419 0.65852 0.0
N879 N 0.97394 0.0588 0.60996 0.0
C880 C 0.03453 0.22136 0.64029 0.0
C881 C 0.9923 0.11609 0.6154 0.0
N882 N 0.97349 0.27634 0.64982 0.0
N883 N 0.04802 0.08458 0.58515 0.0
H884 H 0.9451 0.05043 0.61575 0.0
H885 H 0.98872 1.01719 0.60344 0.0
H886 H 0.07558 0.092 0.57605 0.0
H887 H 0.03188 0.05184 0.5717 0.0
H888 H 0.98713 0.31979 0.65524 0.0
H889 H 0.94335 0.27777 0.65115 0.0
H890 H 0.0418 0.297 0.67386 0.0
H891 H 0.08493 0.26292 0.66069 0.0
C892 C 0.036 0.16812 0.84961 0.0
C893 C 0.05568 0.18934 0.87756 0.0
C894 C 0.99312 0.21682 0.90224 0.0
C895 C 0.97329 0.18709 0.87615 0.0
N896 N 0.97563 0.13451 0.82475 0.0
N897 N 0.05218 0.22788 0.93236 0.0
C898 C 0.99475 0.16285 0.84973 0.0
C899 C 0.03413 0.2132 0.90409 0.0
N900 N 0.05687 0.15506 0.82255 0.0
N901 N 0.97325 0.24811 0.92589 0.0
H902 H 0.08191 0.22925 0.93561 0.0
H903 H 0.03746 0.23424 0.95391 0.0
H904 H 0.94354 0.24603 0.92923 0.0
H905 H 0.98646 0.28019 0.94167 0.0
H906 H 0.04449 0.14515 0.80037 0.0
H907 H 0.08691 0.15997 0.82154 0.0
H908 H 0.98933 0.1085 0.80678 0.0
H909 H 0.94556 0.13471 0.82263 0.0
C910 C 0.03754 0.80155 0.36464 0.0
C911 C 0.05947 0.85955 0.36826 0.0
C912 C 1.00007 0.9164 0.38173 0.0
C913 C 0.97684 0.86091 0.37609 0.0
N914 N 0.97458 0.75447 0.35259 0.0
N915 N 0.05372 0.97489 0.35978 0.0
C916 C 0.99584 0.80414 0.36491 0.0
C917 C 0.03837 0.91793 0.37018 0.0
N918 N 0.05597 0.74464 0.35948 0.0
N919 N 0.98707 0.96682 0.39959 0.0
H920 H 0.0789 0.9772 0.34602 0.0
H921 H 0.03795 0.01762 0.36019 0.0
H922 H 0.96172 0.9649 0.41305 0.0
H923 H 1.00468 1.00635 0.40489 0.0
H924 H 0.04209 0.70015 0.36134 0.0
H925 H 0.08511 0.74199 0.35325 0.0
H926 H 0.98695 0.71454 0.34164 0.0
H927 H 0.94467 0.75629 0.34983 0.0
C928 C 0.24421 0.30478 0.02563 0.0
C929 C 0.28118 0.28258 0.03449 0.0
C930 C 0.28236 0.21124 0.98742 0.0
C931 C 0.24445 0.23107 0.97945 0.0
N932 N 0.1854 0.28647 0.99672 0.0
N933 N 0.33099 0.2015 0.02838 0.0
C934 C 0.2239 0.27337 1.00065 0.0
C935 C 0.29913 0.23229 0.01663 0.0
N936 N 0.22951 0.35942 0.03916 0.0
N937 N 0.3023 0.17094 0.96755 0.0
H938 H 0.34411 0.21317 0.0499 0.0
H939 H 0.34223 0.1596 0.01847 0.0
H940 H 0.28968 0.14679 0.94834 0.0
H941 H 0.33199 0.16337 0.96942 0.0
H942 H 0.20487 0.38249 0.03059 0.0
H943 H 0.24395 0.386 0.05662 0.0
H944 H 0.1688 0.30716 0.01483 0.0
H945 H 0.16924 0.27661 0.97635 0.0
C946 C 0.75819 0.73199 0.47102 0.0
C947 C 0.77881 0.79147 0.47195 0.0
C948 C 0.77687 0.79119 0.53063 0.0
C949 C 0.75581 0.73213 0.52964 0.0
N950 N 0.73657 0.63769 0.50053 0.0
N951 N 0.79985 0.88472 0.50112 0.0
C952 C 0.74919 0.70025 0.50023 0.0
C953 C 0.78606 0.82281 0.50143 0.0
N954 N 0.74627 0.7062 0.44254 0.0
N955 N 0.78862 0.81689 0.55921 0.0
H956 H 0.80362 0.9112 0.48004 0.0
H957 H 0.80446 0.91242 0.52138 0.0
H958 H 0.78219 0.79792 0.58159 0.0
H959 H 0.80722 0.85598 0.56124 0.0
H960 H 0.72802 0.66648 0.44082 0.0
H961 H 0.75207 0.72591 0.42018 0.0
H962 H 0.73593 0.60836 0.48035 0.0
H963 H 0.73096 0.6125 0.52173 0.0
C964 C 0.27234 0.74181 0.02759 0.0
C965 C 0.25106 0.80007 0.02811 0.0
C966 C 0.24873 0.80185 0.96927 0.0
C967 C 0.26928 0.74278 0.96905 0.0
N968 N 0.2902 0.64793 0.99688 0.0
N969 N 0.22591 0.8926 1.00073 0.0
C970 C 0.27785 0.71031 0.99799 0.0
C971 C 0.24102 0.83192 0.99918 0.0
N972 N 0.28821 0.71706 0.05498 0.0
N973 N 0.2364 0.82877 0.94114 0.0
H974 H 0.21826 0.92042 0.98106 0.0
H975 H 0.22315 0.9175 0.02231 0.0
H976 H 0.24108 0.80847 0.91876 0.0
H977 H 0.21931 0.86962 0.93957 0.0
H978 H 0.30754 0.6788 0.05514 0.0
H979 H 0.28524 0.73729 0.07756 0.0
H980 H 0.29478 0.61941 0.01701 0.0
H981 H 0.29304 0.62287 0.9754 0.0
C982 C 0.78174 0.20814 0.50626 0.0
C983 C 0.77036 0.24151 0.53434 0.0
C984 C 0.75062 0.33448 0.50175 0.0
C985 C 0.76251 0.30129 0.47379 0.0
N986 N 0.79311 0.21121 0.44862 0.0
N987 N 0.74478 0.33561 0.55994 0.0
C988 C 0.77944 0.23945 0.47594 0.0
C989 C 0.7547 0.30445 0.53231 0.0
N990 N 0.79501 0.14649 0.50902 0.0
N991 N 0.73463 0.39426 0.49863 0.0
H992 H 0.74543 0.31286 0.58227 0.0
H993 H 0.73623 0.38343 0.56116 0.0
H994 H 0.73394 0.4185 0.4767 0.0
H995 H 0.72203 0.42 0.51721 0.0
H996 H 0.80324 0.11755 0.48995 0.0
H997 H 0.79598 0.1227 0.53101 0.0
H998 H 0.8069 0.16691 0.44776 0.0
H999 H 0.79265 0.23472 0.42648 0.0
C1000 C 0.75918 0.83432 0.01275 0.0
C1001 C 0.78175 0.7924 0.03156 0.0
C1002 C 0.78139 0.71228 0.98832 0.0
C1003 C 0.75484 0.75048 0.9712 0.0
N1004 N 0.71649 0.84764 0.9678 0.0
N1005 N 0.80858 0.68646 0.03978 0.0
C1006 C 0.74317 0.81144 0.98363 0.0
C1007 C 0.79136 0.73004 0.01999 0.0
N1008 N 0.75439 0.89688 0.02198 0.0
N1009 N 0.79729 0.65915 0.97441 0.0
H1010 H 0.81518 0.69691 0.06336 0.0
H1011 H 0.81223 0.6381 0.03405 0.0
H1012 H 0.79085 0.64496 0.95112 0.0
H1013 H 0.81986 0.63313 0.9846 0.0
H1014 H 0.74284 0.93238 0.00719 0.0
H1015 H 0.76444 0.91451 0.0438 0.0
H1016 H 0.70257 0.88712 0.97783 0.0
H1017 H 0.70724 0.83689 0.9449 0.0
C1018 C 0.25776 0.20332 0.50782 0.0
C1019 C 0.25599 0.24451 0.53459 0.0
C1020 C 0.27749 0.3353 0.50146 0.0
C1021 C 0.28155 0.29326 0.47497 0.0
N1022 N 0.29028 0.18281 0.45847 0.0
N1023 N 0.27368 0.34533 0.55916 0.0
C1024 C 0.27538 0.22599 0.47944 0.0
C1025 C 0.26884 0.30924 0.53218 0.0
N1026 N 0.24383 0.14169 0.50969 0.0
N1027 N 0.28156 0.40018 0.49717 0.0
H1028 H 0.26786 0.32771 0.58205 0.0
H1029 H 0.2876 0.38989 0.55909 0.0
H1030 H 0.28754 0.42057 0.47486 0.0
H1031 H 0.27583 0.43385 0.51496 0.0
H1032 H 0.24005 0.11263 0.48958 0.0
H1033 H 0.23407 0.12084 0.53102 0.0
H1034 H 0.28993 0.13317 0.46218 0.0
H1035 H 0.30805 0.19718 0.44 0.0
C1036 C 0.78484 0.32353 0.02022 0.0
C1037 C 0.7501 0.29526 0.03151 0.0
C1038 C 0.75252 0.21458 0.98858 0.0
C1039 C 0.785 0.24649 0.97555 0.0
N1040 N 0.82969 0.33679 0.97652 0.0
N1041 N 0.69676 0.22006 0.02272 0.0
C1042 C 0.80072 0.30217 0.99081 0.0
C1043 C 0.73261 0.24286 0.01458 0.0
N1044 N 0.80253 0.3715 0.0373 0.0
N1045 N 0.74188 0.15525 0.97734 0.0
H1046 H 0.68122 0.23465 0.04264 0.0
H1047 H 0.68092 0.18893 0.00816 0.0
H1048 H 0.7562 0.13215 0.95865 0.0
H1049 H 0.72143 0.12598 0.98864 0.0
H1050 H 0.83074 0.38707 0.03296 0.0
H1051 H 0.78997 0.39391 0.057 0.0
H1052 H 0.83825 0.38253 0.98387 0.0
H1053 H 0.84359 0.32234 0.9558 0.0
C1054 C 0.25741 0.83798 0.49974 0.0
C1055 C 0.24932 0.79276 0.47544 0.0
C1056 C 0.26231 0.70436 0.51279 0.0
C1057 C 0.27543 0.74937 0.53572 0.0
N1058 N 0.29369 0.85932 0.54769 0.0
N1059 N 0.24958 0.6836 0.4568 0.0
C1060 C 0.27505 0.81641 0.52843 0.0
C1061 C 0.2533 0.72604 0.48142 0.0
N1062 N 0.24838 0.90143 0.4955 0.0
N1063 N 0.25915 0.64091 0.52095 0.0
H1064 H 0.24638 0.69864 0.4332 0.0
H1065 H 0.2535 0.63444 0.45919 0.0
H1066 H 0.26625 0.62443 0.54375 0.0
H1067 H 0.24651 0.60605 0.5064 0.0
H1068 H 0.24941 0.93495 0.51404 0.0
H1069 H 0.23712 0.91955 0.47411 0.0
H1070 H 0.29754 0.90771 0.54182 0.0
H1071 H 0.30857 0.84524 0.56802 0.0
C1072 C 0.34565 0.45977 0.23567 0.0
C1073 C 0.34167 0.40155 0.2183 0.0
C1074 C 0.33061 0.34219 0.26817 0.0
C1075 C 0.33741 0.39929 0.28609 0.0
N1076 N 0.35673 0.51165 0.2867 0.0
N1077 N 0.3427 0.28582 0.21861 0.0
C1078 C 0.34669 0.45782 0.26978 0.0
C1079 C 0.33745 0.34233 0.23469 0.0
N1080 N 0.34722 0.51724 0.21965 0.0
N1081 N 0.3178 0.2874 0.28287 0.0
H1082 H 0.35127 0.28449 0.19469 0.0
H1083 H 0.34365 0.24103 0.22985 0.0
H1084 H 0.31361 0.28387 0.30737 0.0
H1085 H 0.3081 0.24712 0.27034 0.0
H1086 H 0.34485 0.56173 0.23089 0.0
H1087 H 0.34807 0.52072 0.19474 0.0
H1088 H 0.36888 0.55253 0.27619 0.0
H1089 H 0.35493 0.51492 0.31154 0.0
C1090 C 0.72932 0.60837 0.76891 0.0
C1091 C 0.69853 0.63744 0.78621 0.0
C1092 C 0.6687 0.67177 0.73542 0.0
C1093 C 0.69927 0.64196 0.71817 0.0
N1094 N 0.76401 0.59671 0.71918 0.0
N1095 N 0.64458 0.71067 0.78651 0.0
C1096 C 0.73117 0.61496 0.73506 0.0
C1097 C 0.66957 0.67264 0.76961 0.0
N1098 N 0.75629 0.57182 0.78448 0.0
N1099 N 0.63946 0.70134 0.71906 0.0
H1100 H 0.64551 0.71532 0.81137 0.0
H1101 H 0.62517 0.74247 0.77601 0.0
H1102 H 0.64061 0.71049 0.69449 0.0
H1103 H 0.61355 0.71543 0.72958 0.0
H1104 H 0.77484 0.54024 0.77278 0.0
H1105 H 0.7589 0.56902 0.80923 0.0
H1106 H 0.79005 0.58705 0.73074 0.0
H1107 H 0.76692 0.59504 0.69444 0.0
C1108 C 0.34189 0.57528 0.76956 0.0
C1109 C 0.34044 0.63592 0.7853 0.0
C1110 C 0.34431 0.69133 0.73321 0.0
C1111 C 0.34348 0.63083 0.71756 0.0
N1112 N 0.35242 0.51596 0.72032 0.0
N1113 N 0.34004 0.75159 0.78278 0.0
C1114 C 0.34555 0.57296 0.73558 0.0
C1115 C 0.34155 0.69393 0.76723 0.0
N1116 N 0.33746 0.51977 0.7869 0.0
N1117 N 0.35094 0.74587 0.71556 0.0
H1118 H 0.34219 0.75504 0.80758 0.0
H1119 H 0.33538 0.79556 0.7715 0.0
H1120 H 0.35659 0.74465 0.69104 0.0
H1121 H 0.35479 0.79154 0.7252 0.0
H1122 H 0.33295 0.47475 0.77666 0.0
H1123 H 0.33519 0.51885 0.81177 0.0
H1124 H 0.35892 0.47325 0.73219 0.0
H1125 H 0.35478 0.51198 0.69551 0.0
C1126 C 0.7255 0.43411 0.23669 0.0
C1127 C 0.69944 0.39372 0.21964 0.0
C1128 C 0.67736 0.34583 0.27055 0.0
C1129 C 0.70446 0.38468 0.28733 0.0
N1130 N 0.76097 0.45281 0.28594 0.0
N1131 N 0.65553 0.30316 0.21941 0.0
C1132 C 0.73052 0.42499 0.27025 0.0
C1133 C 0.67661 0.3474 0.23634 0.0
N1134 N 0.74431 0.48302 0.22107 0.0
N1135 N 0.65228 0.3076 0.28742 0.0
H1136 H 0.65443 0.30259 0.19443 0.0
H1137 H 0.64148 0.26395 0.22982 0.0
H1138 H 0.65379 0.30218 0.31226 0.0
H1139 H 0.62882 0.28378 0.27717 0.0
H1140 H 0.76041 0.51831 0.23279 0.0
H1141 H 0.74099 0.49202 0.19663 0.0
H1142 H 0.78322 0.47756 0.27433 0.0
H1143 H 0.76598 0.44585 0.31034 0.0
C1144 C 0.83387 0.84546 0.23292 0.0
C1145 C 0.83995 0.90477 0.21694 0.0
C1146 C 0.84376 0.9599 0.26897 0.0
C1147 C 0.83443 0.90086 0.28482 0.0
N1148 N 0.81203 0.7906 0.28055 0.0
N1149 N 0.84869 0.01988 0.21904 0.0
C1150 C 0.82664 0.84477 0.26639 0.0
C1151 C 0.84466 0.9624 0.23478 0.0
N1152 N 0.83764 0.78907 0.21644 0.0
N1153 N 0.85127 1.01397 0.28658 0.0
H1154 H 0.85118 0.02358 0.19422 0.0
H1155 H 0.84721 0.06456 0.23015 0.0
H1156 H 0.84586 1.01721 0.31106 0.0
H1157 H 0.86386 0.05552 0.27719 0.0
H1158 H 0.83737 0.74392 0.22736 0.0
H1159 H 0.84606 0.78772 0.19248 0.0
H1160 H 0.80156 0.75144 0.26757 0.0
H1161 H 0.8068 0.78677 0.30495 0.0
C1162 C 0.19482 0.07939 0.77052 0.0
C1163 C 0.1952 0.13977 0.78669 0.0
C1164 C 0.18625 0.19429 0.73489 0.0
C1165 C 0.19141 0.13519 0.71865 0.0
N1166 N 0.20569 0.02189 0.72081 0.0
N1167 N 0.19673 0.25561 0.78334 0.0
C1168 C 0.19712 0.07779 0.73641 0.0
C1169 C 0.19275 0.19752 0.76854 0.0
N1170 N 0.19134 0.02339 0.78754 0.0
N1171 N 0.17318 0.24672 0.71841 0.0
H1172 H 0.20113 0.25969 0.8079 0.0
H1173 H 0.19914 0.29899 0.77089 0.0
H1174 H 0.16704 0.24539 0.69392 0.0
H1175 H 0.165 0.28942 0.7295 0.0
H1176 H 0.18641 0.97884 0.77686 0.0
H1177 H 0.19046 0.02169 0.81245 0.0
H1178 H 0.2147 0.98028 0.73256 0.0
H1179 H 0.20672 0.01848 0.6959 0.0
C1180 C 0.81648 0.08536 0.73679 0.0
C1181 C 0.83072 0.13975 0.71948 0.0
C1182 C 0.85015 0.18977 0.77066 0.0
C1183 C 0.83121 0.13924 0.7876 0.0
N1184 N 0.79191 0.04309 0.78703 0.0
N1185 N 0.86448 0.24143 0.71957 0.0
C1186 C 0.81294 0.08849 0.77071 0.0
C1187 C 0.84833 0.19157 0.7364 0.0
N1188 N 0.8083 0.02914 0.72126 0.0
N1189 N 0.87058 0.23514 0.78741 0.0
H1190 H 0.8679 0.24057 0.69474 0.0
H1191 H 0.87388 0.28426 0.72986 0.0
H1192 H 0.87141 0.23642 0.8124 0.0
H1193 H 0.88828 0.26989 0.77692 0.0
H1194 H 0.80205 0.98615 0.73312 0.0
H1195 H 0.81164 0.02295 0.69672 0.0
H1196 H 0.77395 1.00974 0.77574 0.0
H1197 H 0.78983 0.04186 0.81195 0.0
C1198 C 0.22063 0.84946 0.26756 0.0
C1199 C 0.20601 0.90201 0.28569 0.0
C1200 C 0.1915 0.95778 0.23453 0.0
C1201 C 0.19937 0.90028 0.21733 0.0
N1202 N 0.21423 0.7873 0.21918 0.0
N1203 N 0.17977 1.00976 0.28558 0.0
C1204 C 0.21208 0.84522 0.23435 0.0
C1205 C 0.19177 0.95702 0.26887 0.0
N1206 N 0.24382 0.80409 0.28124 0.0
N1207 N 0.1863 1.01419 0.21817 0.0
H1208 H 0.18547 1.01633 0.30988 0.0
H1209 H 0.16358 0.04668 0.27539 0.0
H1210 H 0.1874 0.01744 0.19326 0.0
H1211 H 0.18461 0.05899 0.22917 0.0
H1212 H 0.25855 0.76987 0.26774 0.0
H1213 H 0.25233 0.80427 0.30506 0.0
H1214 H 0.21921 0.74409 0.23122 0.0
H1215 H 0.20648 0.78173 0.1953 0.0
loop_
_geom_bond_atom_site_label_1
_geom_bond_atom_site_label_2
_geom_bond_distance
_geom_bond_site_symmetry_2
_ccdc_geom_bond_type
Fe0 O2 1.918 . S
Fe0 O5 1.997 . S
Fe0 O6 2.002 . S
Fe0 O11 1.976 . S
Fe0 O14 1.996 . S
Fe1 O2 1.918 . S
Fe1 O9 1.997 . S
Fe1 O12 1.996 . S
Fe1 O16 1.976 . S
Fe1 O19 2.002 . S
O2 Fe0 1.918 . S
O2 Fe1 1.918 . S
O2 Fe3 1.918 . S
Fe3 O2 1.918 . S
Fe3 O4 2.002 . S
Fe3 O13 1.976 . S
Fe3 O17 1.996 . S
Fe3 O20 1.997 . S
O4 Fe3 2.002 . S
O4 C21 1.295 . S
O5 Fe0 1.997 . S
O5 C21 1.235 . S
O6 Fe0 2.002 . S
O6 C7 1.295 . S
C7 O6 1.295 . S
C7 O9 1.235 . S
C8 O13 1.287 . S
C8 O14 1.255 . S
O9 Fe1 1.997 . S
O9 C7 1.235 . S
C10 O16 1.287 . S
C10 O17 1.255 . S
O11 Fe0 1.976 . S
O11 C18 1.287 . S
O12 Fe1 1.996 . S
O12 C18 1.255 . S
O13 Fe3 1.976 . S
O13 C8 1.287 . S
O14 Fe0 1.996 . S
O14 C8 1.255 . S
C15 O19 1.295 . S
C15 O20 1.235 . S
O16 Fe1 1.976 . S
O16 C10 1.287 . S
O17 Fe3 1.996 . S
O17 C10 1.255 . S
C18 O11 1.287 . S
C18 O12 1.255 . S
O19 Fe1 2.002 . S
O19 C15 1.295 . S
O20 Fe3 1.997 . S
O20 C15 1.235 . S
C21 O4 1.295 . S
C21 O5 1.235 . S
Fe22 O24 1.918 . S
Fe22 O27 1.997 . S
Fe22 O28 2.002 . S
Fe22 O33 1.976 . S
Fe22 O36 1.996 . S
Fe23 O24 1.918 . S
Fe23 O31 1.997 . S
Fe23 O34 1.996 . S
Fe23 O38 1.976 . S
Fe23 O41 2.002 . S
O24 Fe22 1.918 . S
O24 Fe23 1.918 . S
O24 Fe25 1.918 . S
Fe25 O24 1.918 . S
Fe25 O26 2.002 . S
Fe25 O35 1.976 . S
Fe25 O39 1.996 . S
Fe25 O42 1.997 . S
O26 Fe25 2.002 . S
O26 C43 1.295 . S
O27 Fe22 1.997 . S
O27 C43 1.235 . S
O28 Fe22 2.002 . S
O28 C29 1.295 . S
C29 O28 1.295 . S
C29 O31 1.235 . S
C30 O35 1.287 . S
C30 O36 1.255 . S
O31 Fe23 1.997 . S
O31 C29 1.235 . S
C32 O38 1.287 . S
C32 O39 1.255 . S
O33 Fe22 1.976 . S
O33 C40 1.287 . S
O34 Fe23 1.996 . S
O34 C40 1.255 . S
O35 Fe25 1.976 . S
O35 C30 1.287 . S
O36 Fe22 1.996 . S
O36 C30 1.255 . S
C37 O41 1.295 . S
C37 O42 1.235 . S
O38 Fe23 1.976 . S
O38 C32 1.287 . S
O39 Fe25 1.996 . S
O39 C32 1.255 . S
C40 O33 1.287 . S
C40 O34 1.255 . S
O41 Fe23 2.002 . S
O41 C37 1.295 . S
O42 Fe25 1.997 . S
O42 C37 1.235 . S
C43 O26 1.295 . S
C43 O27 1.235 . S
Fe44 O46 1.918 . S
Fe44 O49 1.997 . S
Fe44 O50 2.002 . S
Fe44 O55 1.976 . S
Fe44 O58 1.996 . S
Fe45 O46 1.918 . S
Fe45 O53 1.997 . S
Fe45 O56 1.996 . S
Fe45 O60 1.976 . S
Fe45 O63 2.002 . S
O46 Fe44 1.918 . S
O46 Fe45 1.918 . S
O46 Fe47 1.918 . S
Fe47 O46 1.918 . S
Fe47 O48 2.002 . S
Fe47 O57 1.976 . S
Fe47 O61 1.996 . S
Fe47 O64 1.997 . S
O48 Fe47 2.002 . S
O48 C65 1.295 . S
O49 Fe44 1.997 . S
O49 C65 1.235 . S
O50 Fe44 2.002 . S
O50 C51 1.295 . S
C51 O50 1.295 . S
C51 O53 1.235 . S
C52 O57 1.287 . S
C52 O58 1.255 . S
O53 Fe45 1.997 . S
O53 C51 1.235 . S
C54 O60 1.287 . S
C54 O61 1.255 . S
O55 Fe44 1.976 . S
O55 C62 1.287 . S
O56 Fe45 1.996 . S
O56 C62 1.255 . S
O57 Fe47 1.976 . S
O57 C52 1.287 . S
O58 Fe44 1.996 . S
O58 C52 1.255 . S
C59 O63 1.295 . S
C59 O64 1.235 . S
O60 Fe45 1.976 . S
O60 C54 1.287 . S
O61 Fe47 1.996 . S
O61 C54 1.255 . S
C62 O55 1.287 . S
C62 O56 1.255 . S
O63 Fe45 2.002 . S
O63 C59 1.295 . S
O64 Fe47 1.997 . S
O64 C59 1.235 . S
C65 O48 1.295 . S
C65 O49 1.235 . S
Fe66 O68 1.918 . S
Fe66 O71 1.997 . S
Fe66 O72 2.002 . S
Fe66 O77 1.976 . S
Fe66 O80 1.996 . S
Fe67 O68 1.918 . S
Fe67 O75 1.997 . S
Fe67 O78 1.996 . S
Fe67 O82 1.976 . S
Fe67 O85 2.002 . S
O68 Fe66 1.918 . S
O68 Fe67 1.918 . S
O68 Fe69 1.918 . S
Fe69 O68 1.918 . S
Fe69 O70 2.002 . S
Fe69 O79 1.976 . S
Fe69 O83 1.996 . S
Fe69 O86 1.997 . S
O70 Fe69 2.002 . S
O70 C87 1.295 . S
O71 Fe66 1.997 . S
O71 C87 1.235 . S
O72 Fe66 2.002 . S
O72 C73 1.295 . S
C73 O72 1.295 . S
C73 O75 1.235 . S
C74 O79 1.287 . S
C74 O80 1.255 . S
O75 Fe67 1.997 . S
O75 C73 1.235 . S
C76 O82 1.287 . S
C76 O83 1.255 . S
O77 Fe66 1.976 . S
O77 C84 1.287 . S
O78 Fe67 1.996 . S
O78 C84 1.255 . S
O79 Fe69 1.976 . S
O79 C74 1.287 . S
O80 Fe66 1.996 . S
O80 C74 1.255 . S
C81 O85 1.295 . S
C81 O86 1.235 . S
O82 Fe67 1.976 . S
O82 C76 1.287 . S
O83 Fe69 1.996 . S
O83 C76 1.255 . S
C84 O77 1.287 . S
C84 O78 1.255 . S
O85 Fe67 2.002 . S
O85 C81 1.295 . S
O86 Fe69 1.997 . S
O86 C81 1.235 . S
C87 O70 1.295 . S
C87 O71 1.235 . S
Fe88 O90 1.918 . S
Fe88 O93 1.997 . S
Fe88 O94 2.002 . S
Fe88 O99 1.976 . S
Fe88 O102 1.996 . S
Fe89 O90 1.918 . S
Fe89 O97 1.997 . S
Fe89 O100 1.996 . S
Fe89 O104 1.976 . S
Fe89 O107 2.002 . S
O90 Fe88 1.918 . S
O90 Fe89 1.918 . S
O90 Fe91 1.918 . S
Fe91 O90 1.918 . S
Fe91 O92 2.002 . S
Fe91 O101 1.976 . S
Fe91 O105 1.996 . S
Fe91 O108 1.997 . S
O92 Fe91 2.002 . S
O92 C109 1.295 . S
O93 Fe88 1.997 . S
O93 C109 1.235 . S
O94 Fe88 2.002 . S
O94 C95 1.295 . S
C95 O94 1.295 . S
C95 O97 1.235 . S
C96 O101 1.287 . S
C96 O102 1.255 . S
O97 Fe89 1.997 . S
O97 C95 1.235 . S
C98 O104 1.287 . S
C98 O105 1.255 . S
O99 Fe88 1.976 . S
O99 C106 1.287 . S
O100 Fe89 1.996 . S
O100 C106 1.255 . S
O101 Fe91 1.976 . S
O101 C96 1.287 . S
O102 Fe88 1.996 . S
O102 C96 1.255 . S
C103 O107 1.295 . S
C103 O108 1.235 . S
O104 Fe89 1.976 . S
O104 C98 1.287 . S
O105 Fe91 1.996 . S
O105 C98 1.255 . S
C106 O99 1.287 . S
C106 O100 1.255 . S
O107 Fe89 2.002 . S
O107 C103 1.295 . S
O108 Fe91 1.997 . S
O108 C103 1.235 . S
C109 O92 1.295 . S
C109 O93 1.235 . S
Fe110 O112 1.918 . S
Fe110 O115 1.997 . S
Fe110 O116 2.002 . S
Fe110 O121 1.976 . S
Fe110 O124 1.996 . S
Fe111 O112 1.918 . S
Fe111 O119 1.997 . S
Fe111 O122 1.996 . S
Fe111 O126 1.976 . S
Fe111 O129 2.002 . S
O112 Fe110 1.918 . S
O112 Fe111 1.918 . S
O112 Fe113 1.918 . S
Fe113 O112 1.918 . S
Fe113 O114 2.002 . S
Fe113 O123 1.976 . S
Fe113 O127 1.996 . S
Fe113 O130 1.997 . S
O114 Fe113 2.002 . S
O114 C131 1.295 . S
O115 Fe110 1.997 . S
O115 C131 1.235 . S
O116 Fe110 2.002 . S
O116 C117 1.295 . S
C117 O116 1.295 . S
C117 O119 1.235 . S
C118 O123 1.287 . S
C118 O124 1.255 . S
O119 Fe111 1.997 . S
O119 C117 1.235 . S
C120 O126 1.287 . S
C120 O127 1.255 . S
O121 Fe110 1.976 . S
O121 C128 1.287 . S
O122 Fe111 1.996 . S
O122 C128 1.255 . S
O123 Fe113 1.976 . S
O123 C118 1.287 . S
O124 Fe110 1.996 . S
O124 C118 1.255 . S
C125 O129 1.295 . S
C125 O130 1.235 . S
O126 Fe111 1.976 . S
O126 C120 1.287 . S
O127 Fe113 1.996 . S
O127 C120 1.255 . S
C128 O121 1.287 . S
C128 O122 1.255 . S
O129 Fe111 2.002 . S
O129 C125 1.295 . S
O130 Fe113 1.997 . S
O130 C125 1.235 . S
C131 O114 1.295 . S
C131 O115 1.235 . S
Fe132 O134 1.918 . S
Fe132 O137 1.997 . S
Fe132 O138 2.002 . S
Fe132 O143 1.976 . S
Fe132 O146 1.996 . S
Fe133 O134 1.918 . S
Fe133 O141 1.997 . S
Fe133 O144 1.996 . S
Fe133 O148 1.976 . S
Fe133 O151 2.002 . S
O134 Fe132 1.918 . S
O134 Fe133 1.918 . S
O134 Fe135 1.918 . S
Fe135 O134 1.918 . S
Fe135 O136 2.002 . S
Fe135 O145 1.976 . S
Fe135 O149 1.996 . S
Fe135 O152 1.997 . S
O136 Fe135 2.002 . S
O136 C153 1.295 . S
O137 Fe132 1.997 . S
O137 C153 1.235 . S
O138 Fe132 2.002 . S
O138 C139 1.295 . S
C139 O138 1.295 . S
C139 O141 1.235 . S
C140 O145 1.287 . S
C140 O146 1.255 . S
O141 Fe133 1.997 . S
O141 C139 1.235 . S
C142 O148 1.287 . S
C142 O149 1.255 . S
O143 Fe132 1.976 . S
O143 C150 1.287 . S
O144 Fe133 1.996 . S
O144 C150 1.255 . S
O145 Fe135 1.976 . S
O145 C140 1.287 . S
O146 Fe132 1.996 . S
O146 C140 1.255 . S
C147 O151 1.295 . S
C147 O152 1.235 . S
O148 Fe133 1.976 . S
O148 C142 1.287 . S
O149 Fe135 1.996 . S
O149 C142 1.255 . S
C150 O143 1.287 . S
C150 O144 1.255 . S
O151 Fe133 2.002 . S
O151 C147 1.295 . S
O152 Fe135 1.997 . S
O152 C147 1.235 . S
C153 O136 1.295 . S
C153 O137 1.235 . S
Fe154 O156 1.918 . S
Fe154 O159 1.997 . S
Fe154 O160 2.002 . S
Fe154 O165 1.976 . S
Fe154 O168 1.996 . S
Fe155 O156 1.918 . S
Fe155 O163 1.997 . S
Fe155 O166 1.996 . S
Fe155 O170 1.976 . S
Fe155 O173 2.002 . S
O156 Fe154 1.918 . S
O156 Fe155 1.918 . S
O156 Fe157 1.918 . S
Fe157 O156 1.918 . S
Fe157 O158 2.002 . S
Fe157 O167 1.976 . S
Fe157 O171 1.996 . S
Fe157 O174 1.997 . S
O158 Fe157 2.002 . S
O158 C175 1.295 . S
O159 Fe154 1.997 . S
O159 C175 1.235 . S
O160 Fe154 2.002 . S
O160 C161 1.295 . S
C161 O160 1.295 . S
C161 O163 1.235 . S
C162 O167 1.287 . S
C162 O168 1.255 . S
O163 Fe155 1.997 . S
O163 C161 1.235 . S
C164 O170 1.287 . S
C164 O171 1.255 . S
O165 Fe154 1.976 . S
O165 C172 1.287 . S
O166 Fe155 1.996 . S
O166 C172 1.255 . S
O167 Fe157 1.976 . S
O167 C162 1.287 . S
O168 Fe154 1.996 . S
O168 C162 1.255 . S
C169 O173 1.295 . S
C169 O174 1.235 . S
O170 Fe155 1.976 . S
O170 C164 1.287 . S
O171 Fe157 1.996 . S
O171 C164 1.255 . S
C172 O165 1.287 . S
C172 O166 1.255 . S
O173 Fe155 2.002 . S
O173 C169 1.295 . S
O174 Fe157 1.997 . S
O174 C169 1.235 . S
C175 O158 1.295 . S
C175 O159 1.235 . S
Fe176 O178 1.918 . S
Fe176 O181 1.997 . S
Fe176 O182 2.002 . S
Fe176 O187 1.976 . S
Fe176 O190 1.996 . S
Fe177 O178 1.918 . S
Fe177 O185 1.997 . S
Fe177 O188 1.996 . S
Fe177 O192 1.976 . S
Fe177 O195 2.002 . S
O178 Fe176 1.918 . S
O178 Fe177 1.918 . S
O178 Fe179 1.918 . S
Fe179 O178 1.918 . S
Fe179 O180 2.002 . S
Fe179 O189 1.976 . S
Fe179 O193 1.996 . S
Fe179 O196 1.997 . S
O180 Fe179 2.002 . S
O180 C197 1.295 . S
O181 Fe176 1.997 . S
O181 C197 1.235 . S
O182 Fe176 2.002 . S
O182 C183 1.295 . S
C183 O182 1.295 . S
C183 O185 1.235 . S
C184 O189 1.287 . S
C184 O190 1.255 . S
O185 Fe177 1.997 . S
O185 C183 1.235 . S
C186 O192 1.287 . S
C186 O193 1.255 . S
O187 Fe176 1.976 . S
O187 C194 1.287 . S
O188 Fe177 1.996 . S
O188 C194 1.255 . S
O189 Fe179 1.976 . S
O189 C184 1.287 . S
O190 Fe176 1.996 . S
O190 C184 1.255 . S
C191 O195 1.295 . S
C191 O196 1.235 . S
O192 Fe177 1.976 . S
O192 C186 1.287 . S
O193 Fe179 1.996 . S
O193 C186 1.255 . S
C194 O187 1.287 . S
C194 O188 1.255 . S
O195 Fe177 2.002 . S
O195 C191 1.295 . S
O196 Fe179 1.997 . S
O196 C191 1.235 . S
C197 O180 1.295 . S
C197 O181 1.235 . S
Fe198 O200 1.918 . S
Fe198 O203 1.997 . S
Fe198 O204 2.002 . S
Fe198 O209 1.976 . S
Fe198 O212 1.996 . S
Fe199 O200 1.918 . S
Fe199 O207 1.997 . S
Fe199 O210 1.996 . S
Fe199 O214 1.976 . S
Fe199 O217 2.002 . S
O200 Fe198 1.918 . S
O200 Fe199 1.918 . S
O200 Fe201 1.918 . S
Fe201 O200 1.918 . S
Fe201 O202 2.002 . S
Fe201 O211 1.976 . S
Fe201 O215 1.996 . S
Fe201 O218 1.997 . S
O202 Fe201 2.002 . S
O202 C219 1.295 . S
O203 Fe198 1.997 . S
O203 C219 1.235 . S
O204 Fe198 2.002 . S
O204 C205 1.295 . S
C205 O204 1.295 . S
C205 O207 1.235 . S
C206 O211 1.287 . S
C206 O212 1.255 . S
O207 Fe199 1.997 . S
O207 C205 1.235 . S
C208 O214 1.287 . S
C208 O215 1.255 . S
O209 Fe198 1.976 . S
O209 C216 1.287 . S
O210 Fe199 1.996 . S
O210 C216 1.255 . S
O211 Fe201 1.976 . S
O211 C206 1.287 . S
O212 Fe198 1.996 . S
O212 C206 1.255 . S
C213 O217 1.295 . S
C213 O218 1.235 . S
O214 Fe199 1.976 . S
O214 C208 1.287 . S
O215 Fe201 1.996 . S
O215 C208 1.255 . S
C216 O209 1.287 . S
C216 O210 1.255 . S
O217 Fe199 2.002 . S
O217 C213 1.295 . S
O218 Fe201 1.997 . S
O218 C213 1.235 . S
C219 O202 1.295 . S
C219 O203 1.235 . S
Fe220 O222 1.918 . S
Fe220 O225 1.997 . S
Fe220 O226 2.002 . S
Fe220 O231 1.976 . S
Fe220 O234 1.996 . S
Fe221 O222 1.918 . S
Fe221 O229 1.997 . S
Fe221 O232 1.996 . S
Fe221 O236 1.976 . S
Fe221 O239 2.002 . S
O222 Fe220 1.918 . S
O222 Fe221 1.918 . S
O222 Fe223 1.918 . S
Fe223 O222 1.918 . S
Fe223 O224 2.002 . S
Fe223 O233 1.976 . S
Fe223 O237 1.996 . S
Fe223 O240 1.997 . S
O224 Fe223 2.002 . S
O224 C241 1.295 . S
O225 Fe220 1.997 . S
O225 C241 1.235 . S
O226 Fe220 2.002 . S
O226 C227 1.295 . S
C227 O226 1.295 . S
C227 O229 1.235 . S
C228 O233 1.287 . S
C228 O234 1.255 . S
O229 Fe221 1.997 . S
O229 C227 1.235 . S
C230 O236 1.287 . S
C230 O237 1.255 . S
O231 Fe220 1.976 . S
O231 C238 1.287 . S
O232 Fe221 1.996 . S
O232 C238 1.255 . S
O233 Fe223 1.976 . S
O233 C228 1.287 . S
O234 Fe220 1.996 . S
O234 C228 1.255 . S
C235 O239 1.295 . S
C235 O240 1.235 . S
O236 Fe221 1.976 . S
O236 C230 1.287 . S
O237 Fe223 1.996 . S
O237 C230 1.255 . S
C238 O231 1.287 . S
C238 O232 1.255 . S
O239 Fe221 2.002 . S
O239 C235 1.295 . S
O240 Fe223 1.997 . S
O240 C235 1.235 . S
C241 O224 1.295 . S
C241 O225 1.235 . S
Fe242 O244 1.918 . S
Fe242 O247 1.997 . S
Fe242 O248 2.002 . S
Fe242 O253 1.976 . S
Fe242 O256 1.996 . S
Fe243 O244 1.918 . S
Fe243 O251 1.997 . S
Fe243 O254 1.996 . S
Fe243 O258 1.976 . S
Fe243 O261 2.002 . S
O244 Fe242 1.918 . S
O244 Fe243 1.918 . S
O244 Fe245 1.918 . S
Fe245 O244 1.918 . S
Fe245 O246 2.002 . S
Fe245 O255 1.976 . S
Fe245 O259 1.996 . S
Fe245 O262 1.997 . S
O246 Fe245 2.002 . S
O246 C263 1.295 . S
O247 Fe242 1.997 . S
O247 C263 1.235 . S
O248 Fe242 2.002 . S
O248 C249 1.295 . S
C249 O248 1.295 . S
C249 O251 1.235 . S
C250 O255 1.287 . S
C250 O256 1.255 . S
O251 Fe243 1.997 . S
O251 C249 1.235 . S
C252 O258 1.287 . S
C252 O259 1.255 . S
O253 Fe242 1.976 . S
O253 C260 1.287 . S
O254 Fe243 1.996 . S
O254 C260 1.255 . S
O255 Fe245 1.976 . S
O255 C250 1.287 . S
O256 Fe242 1.996 . S
O256 C250 1.255 . S
C257 O261 1.295 . S
C257 O262 1.235 . S
O258 Fe243 1.976 . S
O258 C252 1.287 . S
O259 Fe245 1.996 . S
O259 C252 1.255 . S
C260 O253 1.287 . S
C260 O254 1.255 . S
O261 Fe243 2.002 . S
O261 C257 1.295 . S
O262 Fe245 1.997 . S
O262 C257 1.235 . S
C263 O246 1.295 . S
C263 O247 1.235 . S
Fe264 O266 1.918 . S
Fe264 O269 1.997 . S
Fe264 O270 2.002 . S
Fe264 O275 1.976 . S
Fe264 O278 1.996 . S
Fe265 O266 1.918 . S
Fe265 O273 1.997 . S
Fe265 O276 1.996 . S
Fe265 O280 1.976 . S
Fe265 O283 2.002 . S
O266 Fe264 1.918 . S
O266 Fe265 1.918 . S
O266 Fe267 1.918 . S
Fe267 O266 1.918 . S
Fe267 O268 2.002 . S
Fe267 O277 1.976 . S
Fe267 O281 1.996 . S
Fe267 O284 1.997 . S
O268 Fe267 2.002 . S
O268 C285 1.295 . S
O269 Fe264 1.997 . S
O269 C285 1.235 . S
O270 Fe264 2.002 . S
O270 C271 1.295 . S
C271 O270 1.295 . S
C271 O273 1.235 . S
C272 O277 1.287 . S
C272 O278 1.255 . S
O273 Fe265 1.997 . S
O273 C271 1.235 . S
C274 O280 1.287 . S
C274 O281 1.255 . S
O275 Fe264 1.976 . S
O275 C282 1.287 . S
O276 Fe265 1.996 . S
O276 C282 1.255 . S
O277 Fe267 1.976 . S
O277 C272 1.287 . S
O278 Fe264 1.996 . S
O278 C272 1.255 . S
C279 O283 1.295 . S
C279 O284 1.235 . S
O280 Fe265 1.976 . S
O280 C274 1.287 . S
O281 Fe267 1.996 . S
O281 C274 1.255 . S
C282 O275 1.287 . S
C282 O276 1.255 . S
O283 Fe265 2.002 . S
O283 C279 1.295 . S
O284 Fe267 1.997 . S
O284 C279 1.235 . S
C285 O268 1.295 . S
C285 O269 1.235 . S
Fe286 O288 1.918 . S
Fe286 O291 1.997 . S
Fe286 O292 2.002 . S
Fe286 O297 1.976 . S
Fe286 O300 1.996 . S
Fe287 O288 1.918 . S
Fe287 O295 1.997 . S
Fe287 O298 1.996 . S
Fe287 O302 1.976 . S
Fe287 O305 2.002 . S
O288 Fe286 1.918 . S
O288 Fe287 1.918 . S
O288 Fe289 1.918 . S
Fe289 O288 1.918 . S
Fe289 O290 2.002 . S
Fe289 O299 1.976 . S
Fe289 O303 1.996 . S
Fe289 O306 1.997 . S
O290 Fe289 2.002 . S
O290 C307 1.295 . S
O291 Fe286 1.997 . S
O291 C307 1.235 . S
O292 Fe286 2.002 . S
O292 C293 1.295 . S
C293 O292 1.295 . S
C293 O295 1.235 . S
C294 O299 1.287 . S
C294 O300 1.255 . S
O295 Fe287 1.997 . S
O295 C293 1.235 . S
C296 O302 1.287 . S
C296 O303 1.255 . S
O297 Fe286 1.976 . S
O297 C304 1.287 . S
O298 Fe287 1.996 . S
O298 C304 1.255 . S
O299 Fe289 1.976 . S
O299 C294 1.287 . S
O300 Fe286 1.996 . S
O300 C294 1.255 . S
C301 O305 1.295 . S
C301 O306 1.235 . S
O302 Fe287 1.976 . S
O302 C296 1.287 . S
O303 Fe289 1.996 . S
O303 C296 1.255 . S
C304 O297 1.287 . S
C304 O298 1.255 . S
O305 Fe287 2.002 . S
O305 C301 1.295 . S
O306 Fe289 1.997 . S
O306 C301 1.235 . S
C307 O290 1.295 . S
C307 O291 1.235 . S
Fe308 O310 1.918 . S
Fe308 O313 1.997 . S
Fe308 O314 2.002 . S
Fe308 O319 1.976 . S
Fe308 O322 1.996 . S
Fe309 O310 1.918 . S
Fe309 O317 1.997 . S
Fe309 O320 1.996 . S
Fe309 O324 1.976 . S
Fe309 O327 2.002 . S
O310 Fe308 1.918 . S
O310 Fe309 1.918 . S
O310 Fe311 1.918 . S
Fe311 O310 1.918 . S
Fe311 O312 2.002 . S
Fe311 O321 1.976 . S
Fe311 O325 1.996 . S
Fe311 O328 1.997 . S
O312 Fe311 2.002 . S
O312 C329 1.295 . S
O313 Fe308 1.997 . S
O313 C329 1.235 . S
O314 Fe308 2.002 . S
O314 C315 1.295 . S
C315 O314 1.295 . S
C315 O317 1.235 . S
C316 O321 1.287 . S
C316 O322 1.255 . S
O317 Fe309 1.997 . S
O317 C315 1.235 . S
C318 O324 1.287 . S
C318 O325 1.255 . S
O319 Fe308 1.976 . S
O319 C326 1.287 . S
O320 Fe309 1.996 . S
O320 C326 1.255 . S
O321 Fe311 1.976 . S
O321 C316 1.287 . S
O322 Fe308 1.996 . S
O322 C316 1.255 . S
C323 O327 1.295 . S
C323 O328 1.235 . S
O324 Fe309 1.976 . S
O324 C318 1.287 . S
O325 Fe311 1.996 . S
O325 C318 1.255 . S
C326 O319 1.287 . S
C326 O320 1.255 . S
O327 Fe309 2.002 . S
O327 C323 1.295 . S
O328 Fe311 1.997 . S
O328 C323 1.235 . S
C329 O312 1.295 . S
C329 O313 1.235 . S
Fe330 O332 1.918 . S
Fe330 O335 1.997 . S
Fe330 O336 2.002 . S
Fe330 O341 1.976 . S
Fe330 O344 1.996 . S
Fe331 O332 1.918 . S
Fe331 O339 1.997 . S
Fe331 O342 1.996 . S
Fe331 O346 1.976 . S
Fe331 O349 2.002 . S
O332 Fe330 1.918 . S
O332 Fe331 1.918 . S
O332 Fe333 1.918 . S
Fe333 O332 1.918 . S
Fe333 O334 2.002 . S
Fe333 O343 1.976 . S
Fe333 O347 1.996 . S
Fe333 O350 1.997 . S
O334 Fe333 2.002 . S
O334 C351 1.295 . S
O335 Fe330 1.997 . S
O335 C351 1.235 . S
O336 Fe330 2.002 . S
O336 C337 1.295 . S
C337 O336 1.295 . S
C337 O339 1.235 . S
C338 O343 1.287 . S
C338 O344 1.255 . S
O339 Fe331 1.997 . S
O339 C337 1.235 . S
C340 O346 1.287 . S
C340 O347 1.255 . S
O341 Fe330 1.976 . S
O341 C348 1.287 . S
O342 Fe331 1.996 . S
O342 C348 1.255 . S
O343 Fe333 1.976 . S
O343 C338 1.287 . S
O344 Fe330 1.996 . S
O344 C338 1.255 . S
C345 O349 1.295 . S
C345 O350 1.235 . S
O346 Fe331 1.976 . S
O346 C340 1.287 . S
O347 Fe333 1.996 . S
O347 C340 1.255 . S
C348 O341 1.287 . S
C348 O342 1.255 . S
O349 Fe331 2.002 . S
O349 C345 1.295 . S
O350 Fe333 1.997 . S
O350 C345 1.235 . S
C351 O334 1.295 . S
C351 O335 1.235 . S
C352 C353 1.363 . S
C352 C358 1.379 . S
C352 N360 1.356 . S
C353 C352 1.363 . S
C353 C359 1.363 . S
C354 C355 1.363 . S
C354 C359 1.379 . S
C354 N361 1.356 . S
C355 C354 1.363 . S
C355 C358 1.363 . S
N356 C358 1.356 1_565 S
N356 H368 0.984 . S
N356 H369 0.985 . S
N357 C359 1.356 . S
N357 H362 0.984 . S
N357 H363 0.985 . S
C358 C352 1.379 . S
C358 C355 1.363 . S
C358 N356 1.356 1_545 S
C359 C353 1.363 . S
C359 C354 1.379 . S
C359 N357 1.356 . S
N360 C352 1.356 . S
N360 H366 0.984 . S
N360 H367 0.984 . S
N361 C354 1.356 . S
N361 H364 0.979 1_545 S
N361 H365 0.985 . S
H362 N357 0.984 . S
H363 N357 0.985 . S
H364 N361 0.979 1_565 S
H365 N361 0.985 . S
H366 N360 0.984 . S
H367 N360 0.984 . S
H368 N356 0.984 . S
H369 N356 0.985 . S
C370 C371 1.363 . S
C370 C376 1.379 . S
C370 N378 1.356 . S
C371 C370 1.363 . S
C371 C377 1.363 . S
C372 C373 1.363 . S
C372 C377 1.379 . S
C372 N379 1.356 1_565 S
C373 C372 1.363 . S
C373 C376 1.363 . S
N374 C376 1.356 . S
N374 H386 0.984 . S
N374 H387 0.985 1_565 S
N375 C377 1.356 . S
N375 H380 0.984 . S
N375 H381 0.985 . S
C376 C370 1.379 . S
C376 C373 1.363 . S
C376 N374 1.356 . S
C377 C371 1.363 . S
C377 C372 1.379 . S
C377 N375 1.356 . S
N378 C370 1.356 . S
N378 H384 0.984 . S
N378 H385 0.984 . S
N379 C372 1.356 1_545 S
N379 H382 0.984 . S
N379 H383 0.985 . S
H380 N375 0.984 . S
H381 N375 0.985 . S
H382 N379 0.984 . S
H383 N379 0.985 . S
H384 N378 0.984 . S
H385 N378 0.984 . S
H386 N374 0.984 . S
H387 N374 0.985 1_545 S
C388 C389 1.363 . S
C388 C394 1.379 . S
C388 N396 1.356 . S
C389 C388 1.363 . S
C389 C395 1.363 . S
C390 C391 1.363 . S
C390 C395 1.379 . S
C390 N397 1.356 1_565 S
C391 C390 1.363 . S
C391 C394 1.363 . S
N392 C394 1.356 . S
N392 H404 0.984 . S
N392 H405 0.985 1_565 S
N393 C395 1.356 . S
N393 H398 0.984 . S
N393 H399 0.985 . S
C394 C388 1.379 . S
C394 C391 1.363 . S
C394 N392 1.356 . S
C395 C389 1.363 . S
C395 C390 1.379 . S
C395 N393 1.356 . S
N396 C388 1.356 . S
N396 H402 0.984 . S
N396 H403 0.984 . S
N397 C390 1.356 1_545 S
N397 H400 0.984 . S
N397 H401 0.985 . S
H398 N393 0.984 . S
H399 N393 0.985 . S
H400 N397 0.984 . S
H401 N397 0.985 . S
H402 N396 0.984 . S
H403 N396 0.984 . S
H404 N392 0.984 . S
H405 N392 0.985 1_545 S
C406 C407 1.363 . S
C406 C412 1.379 . S
C406 N414 1.356 1_545 S
C407 C406 1.363 . S
C407 C413 1.363 . S
C408 C409 1.363 . S
C408 C413 1.379 . S
C408 N415 1.356 . S
C409 C408 1.363 . S
C409 C412 1.363 . S
N410 C412 1.356 . S
N410 H422 0.984 . S
N410 H423 0.985 . S
N411 C413 1.356 . S
N411 H416 0.984 1_545 S
N411 H417 0.985 . S
C412 C406 1.379 . S
C412 C409 1.363 . S
C412 N410 1.356 . S
C413 C407 1.363 . S
C413 C408 1.379 . S
C413 N411 1.356 . S
N414 C406 1.356 1_565 S
N414 H420 0.984 . S
N414 H421 0.984 . S
N415 C408 1.356 . S
N415 H418 0.984 . S
N415 H419 0.985 . S
H416 N411 0.984 1_565 S
H417 N411 0.985 . S
H418 N415 0.984 . S
H419 N415 0.985 . S
H420 N414 0.984 . S
H421 N414 0.984 . S
H422 N410 0.984 . S
H423 N410 0.985 . S
C424 C425 1.363 . S
C424 C430 1.379 . S
C424 N432 1.356 1_565 S
C425 C424 1.363 . S
C425 C431 1.363 . S
C426 C427 1.363 . S
C426 C431 1.379 . S
C426 N433 1.356 . S
C427 C426 1.363 . S
C427 C430 1.363 . S
N428 C430 1.356 . S
N428 H440 0.984 . S
N428 H441 0.985 . S
N429 C431 1.356 . S
N429 H434 0.984 1_565 S
N429 H435 0.985 . S
C430 C424 1.379 . S
C430 C427 1.363 . S
C430 N428 1.356 . S
C431 C425 1.363 . S
C431 C426 1.379 . S
C431 N429 1.356 . S
N432 C424 1.356 1_545 S
N432 H438 0.984 . S
N432 H439 0.984 . S
N433 C426 1.356 . S
N433 H436 0.984 . S
N433 H437 0.985 . S
H434 N429 0.984 1_545 S
H435 N429 0.985 . S
H436 N433 0.984 . S
H437 N433 0.985 . S
H438 N432 0.984 . S
H439 N432 0.984 . S
H440 N428 0.984 . S
H441 N428 0.985 . S
C442 C443 1.363 . S
C442 C448 1.379 . S
C442 N450 1.356 . S
C443 C442 1.363 . S
C443 C449 1.363 . S
C444 C445 1.363 . S
C444 C449 1.379 . S
C444 N451 1.356 . S
C445 C444 1.363 . S
C445 C448 1.363 . S
N446 C448 1.356 . S
N446 H458 0.984 . S
N446 H459 0.985 . S
N447 C449 1.356 1_565 S
N447 H452 0.984 . S
N447 H453 0.985 . S
C448 C442 1.379 . S
C448 C445 1.363 . S
C448 N446 1.356 . S
C449 C443 1.363 . S
C449 C444 1.379 . S
C449 N447 1.356 1_545 S
N450 C442 1.356 . S
N450 H456 0.984 . S
N450 H457 0.984 1_545 S
N451 C444 1.356 . S
N451 H454 0.984 . S
N451 H455 0.985 . S
H452 N447 0.984 . S
H453 N447 0.985 . S
H454 N451 0.984 . S
H455 N451 0.985 . S
H456 N450 0.984 . S
H457 N450 0.984 1_565 S
H458 N446 0.984 . S
H459 N446 0.985 . S
C460 C461 1.363 . S
C460 C466 1.379 . S
C460 N468 1.356 1_545 S
C461 C460 1.363 . S
C461 C467 1.363 . S
C462 C463 1.363 . S
C462 C467 1.379 . S
C462 N469 1.356 . S
C463 C462 1.363 . S
C463 C466 1.363 . S
N464 C466 1.356 . S
N464 H476 0.984 . S
N464 H477 0.985 . S
N465 C467 1.356 . S
N465 H470 0.984 1_545 S
N465 H471 0.985 . S
C466 C460 1.379 . S
C466 C463 1.363 . S
C466 N464 1.356 . S
C467 C461 1.363 . S
C467 C462 1.379 . S
C467 N465 1.356 . S
N468 C460 1.356 1_565 S
N468 H474 0.984 . S
N468 H475 0.984 . S
N469 C462 1.356 . S
N469 H472 0.984 . S
N469 H473 0.985 . S
H470 N465 0.984 1_565 S
H471 N465 0.985 . S
H472 N469 0.984 . S
H473 N469 0.985 . S
H474 N468 0.984 . S
H475 N468 0.984 . S
H476 N464 0.984 . S
H477 N464 0.985 . S
C478 C479 1.363 . S
C478 C484 1.379 . S
C478 N486 1.356 1_565 S
C479 C478 1.363 . S
C479 C485 1.363 . S
C480 C481 1.363 . S
C480 C485 1.379 . S
C480 N487 1.356 . S
C481 C480 1.363 . S
C481 C484 1.363 . S
N482 C484 1.356 . S
N482 H494 0.984 . S
N482 H495 0.985 . S
N483 C485 1.356 . S
N483 H488 0.984 1_565 S
N483 H489 0.985 . S
C484 C478 1.379 . S
C484 C481 1.363 . S
C484 N482 1.356 . S
C485 C479 1.363 . S
C485 C480 1.379 . S
C485 N483 1.356 . S
N486 C478 1.356 1_545 S
N486 H492 0.984 . S
N486 H493 0.984 . S
N487 C480 1.356 . S
N487 H490 0.984 . S
N487 H491 0.985 . S
H488 N483 0.984 1_545 S
H489 N483 0.985 . S
H490 N487 0.984 . S
H491 N487 0.985 . S
H492 N486 0.984 . S
H493 N486 0.984 . S
H494 N482 0.984 . S
H495 N482 0.985 . S
C496 C497 1.363 . S
C496 C502 1.379 . S
C496 N504 1.356 . S
C497 C496 1.363 . S
C497 C503 1.363 . S
C498 C499 1.363 . S
C498 C503 1.379 . S
C498 N505 1.356 . S
C499 C498 1.363 . S
C499 C502 1.363 . S
N500 C502 1.356 . S
N500 H512 0.984 . S
N500 H513 0.985 . S
N501 C503 1.356 . S
N501 H506 0.984 . S
N501 H507 0.985 . S
C502 C496 1.379 . S
C502 C499 1.363 . S
C502 N500 1.356 . S
C503 C497 1.363 . S
C503 C498 1.379 . S
C503 N501 1.356 . S
N504 C496 1.356 . S
N504 H510 0.984 . S
N504 H511 0.984 . S
N505 C498 1.356 . S
N505 H508 0.984 . S
N505 H509 0.985 . S
H506 N501 0.984 . S
H507 N501 0.985 . S
H508 N505 0.984 . S
H509 N505 0.985 . S
H510 N504 0.984 . S
H511 N504 0.984 . S
H512 N500 0.984 . S
H513 N500 0.985 . S
C514 C515 1.363 . S
C514 C520 1.379 . S
C514 N522 1.356 . S
C515 C514 1.363 . S
C515 C521 1.363 . S
C516 C517 1.363 . S
C516 C521 1.379 . S
C516 N523 1.356 . S
C517 C516 1.363 . S
C517 C520 1.363 . S
N518 C520 1.356 . S
N518 H530 0.984 . S
N518 H531 0.985 . S
N519 C521 1.356 . S
N519 H524 0.984 . S
N519 H525 0.985 . S
C520 C514 1.379 . S
C520 C517 1.363 . S
C520 N518 1.356 . S
C521 C515 1.363 . S
C521 C516 1.379 . S
C521 N519 1.356 . S
N522 C514 1.356 . S
N522 H528 0.984 . S
N522 H529 0.984 . S
N523 C516 1.356 . S
N523 H526 0.984 . S
N523 H527 0.985 . S
H524 N519 0.984 . S
H525 N519 0.985 . S
H526 N523 0.984 . S
H527 N523 0.985 . S
H528 N522 0.984 . S
H529 N522 0.984 . S
H530 N518 0.984 . S
H531 N518 0.985 . S
C532 C533 1.363 . S
C532 C538 1.379 . S
C532 N540 1.356 . S
C533 C532 1.363 . S
C533 C539 1.363 . S
C534 C535 1.363 . S
C534 C539 1.379 . S
C534 N541 1.356 . S
C535 C534 1.363 . S
C535 C538 1.363 . S
N536 C538 1.356 . S
N536 H548 0.984 . S
N536 H549 0.985 . S
N537 C539 1.356 . S
N537 H542 0.984 . S
N537 H543 0.985 . S
C538 C532 1.379 . S
C538 C535 1.363 . S
C538 N536 1.356 . S
C539 C533 1.363 . S
C539 C534 1.379 . S
C539 N537 1.356 . S
N540 C532 1.356 . S
N540 H546 0.984 . S
N540 H547 0.984 . S
N541 C534 1.356 . S
N541 H544 0.984 . S
N541 H545 0.985 . S
H542 N537 0.984 . S
H543 N537 0.985 . S
H544 N541 0.984 . S
H545 N541 0.985 . S
H546 N540 0.984 . S
H547 N540 0.984 . S
H548 N536 0.984 . S
H549 N536 0.985 . S
C550 C551 1.363 . S
C550 C556 1.379 . S
C550 N558 1.356 . S
C551 C550 1.363 . S
C551 C557 1.363 . S
C552 C553 1.363 . S
C552 C557 1.379 . S
C552 N559 1.356 . S
C553 C552 1.363 . S
C553 C556 1.363 . S
N554 C556 1.356 . S
N554 H566 0.984 . S
N554 H567 0.985 . S
N555 C557 1.356 . S
N555 H560 0.984 . S
N555 H561 0.985 . S
C556 C550 1.379 . S
C556 C553 1.363 . S
C556 N554 1.356 . S
C557 C551 1.363 . S
C557 C552 1.379 . S
C557 N555 1.356 . S
N558 C550 1.356 . S
N558 H564 0.984 . S
N558 H565 0.984 . S
N559 C552 1.356 . S
N559 H562 0.984 . S
N559 H563 0.985 . S
H560 N555 0.984 . S
H561 N555 0.985 . S
H562 N559 0.984 . S
H563 N559 0.985 . S
H564 N558 0.984 . S
H565 N558 0.984 . S
H566 N554 0.984 . S
H567 N554 0.985 . S
C568 C569 1.363 . S
C568 C574 1.379 . S
C568 N576 1.356 . S
C569 C568 1.363 . S
C569 C575 1.363 . S
C570 C571 1.363 . S
C570 C575 1.379 . S
C570 N577 1.356 . S
C571 C570 1.363 . S
C571 C574 1.363 . S
N572 C574 1.356 . S
N572 H584 0.984 . S
N572 H585 0.985 . S
N573 C575 1.356 . S
N573 H578 0.984 . S
N573 H579 0.985 . S
C574 C568 1.379 . S
C574 C571 1.363 . S
C574 N572 1.356 . S
C575 C569 1.363 . S
C575 C570 1.379 . S
C575 N573 1.356 . S
N576 C568 1.356 . S
N576 H582 0.984 . S
N576 H583 0.984 . S
N577 C570 1.356 . S
N577 H580 0.984 . S
N577 H581 0.985 . S
H578 N573 0.984 . S
H579 N573 0.985 . S
H580 N577 0.984 . S
H581 N577 0.985 . S
H582 N576 0.984 . S
H583 N576 0.984 . S
H584 N572 0.984 . S
H585 N572 0.985 . S
C586 C587 1.363 . S
C586 C592 1.379 . S
C586 N594 1.356 . S
C587 C586 1.363 . S
C587 C593 1.363 . S
C588 C589 1.363 . S
C588 C593 1.379 . S
C588 N595 1.356 . S
C589 C588 1.363 . S
C589 C592 1.363 . S
N590 C592 1.356 . S
N590 H602 0.984 . S
N590 H603 0.985 . S
N591 C593 1.356 . S
N591 H596 0.984 . S
N591 H597 0.985 . S
C592 C586 1.379 . S
C592 C589 1.363 . S
C592 N590 1.356 . S
C593 C587 1.363 . S
C593 C588 1.379 . S
C593 N591 1.356 . S
N594 C586 1.356 . S
N594 H600 0.984 . S
N594 H601 0.984 . S
N595 C588 1.356 . S
N595 H598 0.984 . S
N595 H599 0.985 . S
H596 N591 0.984 . S
H597 N591 0.985 . S
H598 N595 0.984 . S
H599 N595 0.985 . S
H600 N594 0.984 . S
H601 N594 0.984 . S
H602 N590 0.984 . S
H603 N590 0.985 . S
C604 C605 1.363 . S
C604 C610 1.379 . S
C604 N612 1.356 . S
C605 C604 1.363 . S
C605 C611 1.363 . S
C606 C607 1.363 . S
C606 C611 1.379 . S
C606 N613 1.356 . S
C607 C606 1.363 . S
C607 C610 1.363 . S
N608 C610 1.356 . S
N608 H620 0.984 . S
N608 H621 0.985 . S
N609 C611 1.356 . S
N609 H614 0.984 . S
N609 H615 0.985 . S
C610 C604 1.379 . S
C610 C607 1.363 . S
C610 N608 1.356 . S
C611 C605 1.363 . S
C611 C606 1.379 . S
C611 N609 1.356 . S
N612 C604 1.356 . S
N612 H618 0.984 . S
N612 H619 0.984 . S
N613 C606 1.356 . S
N613 H616 0.984 . S
N613 H617 0.985 . S
H614 N609 0.984 . S
H615 N609 0.985 . S
H616 N613 0.984 . S
H617 N613 0.985 . S
H618 N612 0.984 . S
H619 N612 0.984 . S
H620 N608 0.984 . S
H621 N608 0.985 . S
C622 C623 1.363 . S
C622 C628 1.379 . S
C622 N630 1.356 . S
C623 C622 1.363 . S
C623 C629 1.363 . S
C624 C625 1.363 . S
C624 C629 1.379 . S
C624 N631 1.356 . S
C625 C624 1.363 . S
C625 C628 1.363 . S
N626 C628 1.356 . S
N626 H638 0.984 . S
N626 H639 0.985 . S
N627 C629 1.356 . S
N627 H632 0.984 . S
N627 H633 0.985 . S
C628 C622 1.379 . S
C628 C625 1.363 . S
C628 N626 1.356 . S
C629 C623 1.363 . S
C629 C624 1.379 . S
C629 N627 1.356 . S
N630 C622 1.356 . S
N630 H636 0.984 . S
N630 H637 0.984 . S
N631 C624 1.356 . S
N631 H634 0.984 . S
N631 H635 0.985 . S
H632 N627 0.984 . S
H633 N627 0.985 . S
H634 N631 0.984 . S
H635 N631 0.985 . S
H636 N630 0.984 . S
H637 N630 0.984 . S
H638 N626 0.984 . S
H639 N626 0.985 . S
C640 C641 1.363 1_556 S
C640 C646 1.379 . S
C640 N648 1.356 1_556 S
C641 C640 1.363 1_554 S
C641 C647 1.363 . S
C642 C643 1.363 1_554 S
C642 C647 1.379 . S
C642 N649 1.356 1_554 S
C643 C642 1.363 1_556 S
C643 C646 1.363 . S
N644 C646 1.356 . S
N644 H656 0.984 . S
N644 H657 0.985 . S
N645 C647 1.356 . S
N645 H650 0.984 . S
N645 H651 0.985 . S
C646 C640 1.379 . S
C646 C643 1.363 . S
C646 N644 1.356 . S
C647 C641 1.363 . S
C647 C642 1.379 . S
C647 N645 1.356 . S
N648 C640 1.356 1_554 S
N648 H654 0.984 1_554 S
N648 H655 0.984 . S
N649 C642 1.356 1_556 S
N649 H652 0.984 . S
N649 H653 0.985 1_556 S
H650 N645 0.984 . S
H651 N645 0.985 . S
H652 N649 0.984 . S
H653 N649 0.985 1_554 S
H654 N648 0.984 1_556 S
H655 N648 0.984 . S
H656 N644 0.984 . S
H657 N644 0.985 . S
C658 C659 1.363 . S
C658 C664 1.379 . S
C658 N666 1.356 . S
C659 C658 1.363 . S
C659 C665 1.363 . S
C660 C661 1.363 . S
C660 C665 1.379 . S
C660 N667 1.356 . S
C661 C660 1.363 . S
C661 C664 1.363 . S
N662 C664 1.356 . S
N662 H674 0.984 . S
N662 H675 0.985 . S
N663 C665 1.356 . S
N663 H668 0.984 . S
N663 H669 0.985 . S
C664 C658 1.379 . S
C664 C661 1.363 . S
C664 N662 1.356 . S
C665 C659 1.363 . S
C665 C660 1.379 . S
C665 N663 1.356 . S
N666 C658 1.356 . S
N666 H672 0.984 . S
N666 H673 0.984 . S
N667 C660 1.356 . S
N667 H670 0.984 . S
N667 H671 0.985 . S
H668 N663 0.984 . S
H669 N663 0.985 . S
H670 N667 0.984 . S
H671 N667 0.985 . S
H672 N666 0.984 . S
H673 N666 0.984 . S
H674 N662 0.984 . S
H675 N662 0.985 . S
C676 C677 1.363 1_556 S
C676 C682 1.379 . S
C676 N684 1.356 1_556 S
C677 C676 1.363 1_554 S
C677 C683 1.363 . S
C678 C679 1.363 1_554 S
C678 C683 1.379 . S
C678 N685 1.356 1_554 S
C679 C678 1.363 1_556 S
C679 C682 1.363 . S
N680 C682 1.356 . S
N680 H692 0.984 . S
N680 H693 0.985 . S
N681 C683 1.356 . S
N681 H686 0.984 . S
N681 H687 0.985 . S
C682 C676 1.379 . S
C682 C679 1.363 . S
C682 N680 1.356 . S
C683 C677 1.363 . S
C683 C678 1.379 . S
C683 N681 1.356 . S
N684 C676 1.356 1_554 S
N684 H690 0.984 1_554 S
N684 H691 0.984 . S
N685 C678 1.356 1_556 S
N685 H688 0.984 . S
N685 H689 0.985 1_556 S
H686 N681 0.984 . S
H687 N681 0.985 . S
H688 N685 0.984 . S
H689 N685 0.985 1_554 S
H690 N684 0.984 1_556 S
H691 N684 0.984 . S
H692 N680 0.984 . S
H693 N680 0.985 . S
C694 C695 1.363 . S
C694 C700 1.379 . S
C694 N702 1.356 . S
C695 C694 1.363 . S
C695 C701 1.363 . S
C696 C697 1.363 . S
C696 C701 1.379 . S
C696 N703 1.356 . S
C697 C696 1.363 . S
C697 C700 1.363 . S
N698 C700 1.356 . S
N698 H710 0.984 . S
N698 H711 0.985 . S
N699 C701 1.356 . S
N699 H704 0.984 . S
N699 H705 0.985 . S
C700 C694 1.379 . S
C700 C697 1.363 . S
C700 N698 1.356 . S
C701 C695 1.363 . S
C701 C696 1.379 . S
C701 N699 1.356 . S
N702 C694 1.356 . S
N702 H708 0.984 . S
N702 H709 0.984 . S
N703 C696 1.356 . S
N703 H706 0.984 . S
N703 H707 0.985 . S
H704 N699 0.984 . S
H705 N699 0.985 . S
H706 N703 0.984 . S
H707 N703 0.985 . S
H708 N702 0.984 . S
H709 N702 0.984 . S
H710 N698 0.984 . S
H711 N698 0.985 . S
C712 C713 1.363 1_554 S
C712 C718 1.379 . S
C712 N720 1.356 . S
C713 C712 1.363 1_556 S
C713 C719 1.363 1_545 S
C714 C715 1.363 1_556 S
C714 C719 1.379 . S
C714 N721 1.356 . S
C715 C714 1.363 1_554 S
C715 C718 1.363 1_565 S
N716 C718 1.356 . S
N716 H728 0.984 . S
N716 H729 0.985 1_545 S
N717 C719 1.356 . S
N717 H722 0.984 1_565 S
N717 H723 0.985 . S
C718 C712 1.379 . S
C718 C715 1.363 1_545 S
C718 N716 1.356 . S
C719 C713 1.363 1_565 S
C719 C714 1.379 . S
C719 N717 1.356 . S
N720 C712 1.356 . S
N720 H726 0.984 . S
N720 H727 0.984 1_554 S
N721 C714 1.356 . S
N721 H724 0.984 1_556 S
N721 H725 0.985 . S
H722 N717 0.984 1_545 S
H723 N717 0.985 . S
H724 N721 0.984 1_554 S
H725 N721 0.985 . S
H726 N720 0.984 . S
H727 N720 0.984 1_556 S
H728 N716 0.984 . S
H729 N716 0.985 1_565 S
C730 C731 1.363 . S
C730 C736 1.379 . S
C730 N738 1.356 . S
C731 C730 1.363 . S
C731 C737 1.363 1_565 S
C732 C733 1.363 . S
C732 C737 1.379 . S
C732 N739 1.356 . S
C733 C732 1.363 . S
C733 C736 1.363 1_545 S
N734 C736 1.356 . S
N734 H746 0.984 . S
N734 H747 0.985 1_565 S
N735 C737 1.356 . S
N735 H740 0.984 1_545 S
N735 H741 0.985 . S
C736 C730 1.379 . S
C736 C733 1.363 1_565 S
C736 N734 1.356 . S
C737 C731 1.363 1_545 S
C737 C732 1.379 . S
C737 N735 1.356 . S
N738 C730 1.356 . S
N738 H744 0.984 . S
N738 H745 0.984 . S
N739 C732 1.356 . S
N739 H742 0.984 . S
N739 H743 0.985 . S
H740 N735 0.984 1_565 S
H741 N735 0.985 . S
H742 N739 0.984 . S
H743 N739 0.985 . S
H744 N738 0.984 . S
H745 N738 0.984 . S
H746 N734 0.984 . S
H747 N734 0.985 1_545 S
C748 C749 1.363 1_556 S
C748 C754 1.379 . S
C748 N756 1.351 1_556 S
C749 C748 1.363 1_554 S
C749 C755 1.363 1_565 S
C750 C751 1.363 1_554 S
C750 C755 1.379 . S
C750 N757 1.351 1_554 S
C751 C750 1.363 1_556 S
C751 C754 1.363 1_545 S
N752 C754 1.356 . S
N752 H764 0.984 . S
N752 H765 0.985 1_565 S
N753 C755 1.356 . S
N753 H758 0.984 1_545 S
N753 H759 0.985 . S
C754 C748 1.379 . S
C754 C751 1.363 1_565 S
C754 N752 1.356 . S
C755 C749 1.363 1_545 S
C755 C750 1.379 . S
C755 N753 1.356 . S
N756 C748 1.351 1_554 S
N756 H762 0.959 1_554 S
N756 H763 1.015 . S
N757 C750 1.351 1_556 S
N757 H760 1.015 . S
N757 H761 0.959 1_556 S
H758 N753 0.984 1_565 S
H759 N753 0.985 . S
H760 N757 1.015 . S
H761 N757 0.959 1_554 S
H762 N756 0.959 1_556 S
H763 N756 1.015 . S
H764 N752 0.984 . S
H765 N752 0.985 1_545 S
C766 C767 1.363 1_545 S
C766 C772 1.379 . S
C766 N774 1.356 . S
C767 C766 1.363 1_565 S
C767 C773 1.363 . S
C768 C769 1.363 1_565 S
C768 C773 1.379 . S
C768 N775 1.356 . S
C769 C768 1.363 1_545 S
C769 C772 1.363 . S
N770 C772 1.356 . S
N770 H782 0.984 . S
N770 H783 0.985 . S
N771 C773 1.356 . S
N771 H776 0.984 . S
N771 H777 0.985 . S
C772 C766 1.379 . S
C772 C769 1.363 . S
C772 N770 1.356 . S
C773 C767 1.363 . S
C773 C768 1.379 . S
C773 N771 1.356 . S
N774 C766 1.356 . S
N774 H780 0.984 . S
N774 H781 0.984 1_545 S
N775 C768 1.356 . S
N775 H778 0.984 1_565 S
N775 H779 0.985 . S
H776 N771 0.984 . S
H777 N771 0.985 . S
H778 N775 0.984 1_545 S
H779 N775 0.985 . S
H780 N774 0.984 . S
H781 N774 0.984 1_565 S
H782 N770 0.984 . S
H783 N770 0.985 . S
C784 C785 1.363 . S
C784 C790 1.379 . S
C784 N792 1.356 . S
C785 C784 1.363 . S
C785 C791 1.363 . S
C786 C787 1.363 . S
C786 C791 1.379 . S
C786 N793 1.356 . S
C787 C786 1.363 . S
C787 C790 1.363 . S
N788 C790 1.356 . S
N788 H800 0.984 . S
N788 H801 0.985 . S
N789 C791 1.356 . S
N789 H794 0.984 . S
N789 H795 0.985 . S
C790 C784 1.379 . S
C790 C787 1.363 . S
C790 N788 1.356 . S
C791 C785 1.363 . S
C791 C786 1.379 . S
C791 N789 1.356 . S
N792 C784 1.356 . S
N792 H798 0.984 . S
N792 H799 0.984 . S
N793 C786 1.356 . S
N793 H796 0.984 . S
N793 H797 0.985 . S
H794 N789 0.984 . S
H795 N789 0.985 . S
H796 N793 0.984 . S
H797 N793 0.985 . S
H798 N792 0.984 . S
H799 N792 0.984 . S
H800 N788 0.984 . S
H801 N788 0.985 . S
C802 C803 1.363 . S
C802 C808 1.379 . S
C802 N810 1.356 . S
C803 C802 1.363 . S
C803 C809 1.363 . S
C804 C805 1.363 . S
C804 C809 1.379 . S
C804 N811 1.356 . S
C805 C804 1.363 . S
C805 C808 1.363 . S
N806 C808 1.356 . S
N806 H818 0.984 . S
N806 H819 0.985 . S
N807 C809 1.356 . S
N807 H812 0.984 . S
N807 H813 0.985 . S
C808 C802 1.379 . S
C808 C805 1.363 . S
C808 N806 1.356 . S
C809 C803 1.363 . S
C809 C804 1.379 . S
C809 N807 1.356 . S
N810 C802 1.356 . S
N810 H816 0.984 . S
N810 H817 0.984 . S
N811 C804 1.356 . S
N811 H814 0.984 . S
N811 H815 0.985 . S
H812 N807 0.984 . S
H813 N807 0.985 . S
H814 N811 0.984 . S
H815 N811 0.985 . S
H816 N810 0.984 . S
H817 N810 0.984 . S
H818 N806 0.984 . S
H819 N806 0.985 . S
C820 C821 1.363 . S
C820 C826 1.379 . S
C820 N828 1.356 . S
C821 C820 1.363 . S
C821 C827 1.363 . S
C822 C823 1.363 . S
C822 C827 1.379 . S
C822 N829 1.356 . S
C823 C822 1.363 . S
C823 C826 1.363 . S
N824 C826 1.356 . S
N824 H836 0.984 . S
N824 H837 0.985 . S
N825 C827 1.356 . S
N825 H830 0.984 . S
N825 H831 0.985 . S
C826 C820 1.379 . S
C826 C823 1.363 . S
C826 N824 1.356 . S
C827 C821 1.363 . S
C827 C822 1.379 . S
C827 N825 1.356 . S
N828 C820 1.356 . S
N828 H834 0.984 . S
N828 H835 0.984 . S
N829 C822 1.356 . S
N829 H832 0.984 . S
N829 H833 0.985 . S
H830 N825 0.984 . S
H831 N825 0.985 . S
H832 N829 0.984 . S
H833 N829 0.985 . S
H834 N828 0.984 . S
H835 N828 0.984 . S
H836 N824 0.984 . S
H837 N824 0.985 . S
C838 C839 1.363 . S
C838 C844 1.379 . S
C838 N846 1.356 . S
C839 C838 1.363 . S
C839 C845 1.363 . S
C840 C841 1.363 . S
C840 C845 1.379 . S
C840 N847 1.356 . S
C841 C840 1.363 . S
C841 C844 1.363 . S
N842 C844 1.356 . S
N842 H854 0.984 . S
N842 H855 0.985 . S
N843 C845 1.356 . S
N843 H848 0.984 . S
N843 H849 0.985 . S
C844 C838 1.379 . S
C844 C841 1.363 . S
C844 N842 1.356 . S
C845 C839 1.363 . S
C845 C840 1.379 . S
C845 N843 1.356 . S
N846 C838 1.356 . S
N846 H852 0.984 . S
N846 H853 0.984 . S
N847 C840 1.356 . S
N847 H850 0.984 . S
N847 H851 0.985 . S
H848 N843 0.984 . S
H849 N843 0.985 . S
H850 N847 0.984 . S
H851 N847 0.985 . S
H852 N846 0.984 . S
H853 N846 0.984 . S
H854 N842 0.984 . S
H855 N842 0.985 . S
C856 C857 1.363 . S
C856 C862 1.379 1_655 S
C856 N864 1.356 . S
C857 C856 1.363 . S
C857 C863 1.363 . S
C858 C859 1.363 . S
C858 C863 1.379 1_455 S
C858 N865 1.356 . S
C859 C858 1.363 . S
C859 C862 1.363 . S
N860 C862 1.356 . S
N860 H872 0.984 . S
N860 H873 0.985 . S
N861 C863 1.356 . S
N861 H866 0.984 . S
N861 H867 0.985 . S
C862 C856 1.379 1_455 S
C862 C859 1.363 . S
C862 N860 1.356 . S
C863 C857 1.363 . S
C863 C858 1.379 1_655 S
C863 N861 1.356 . S
N864 C856 1.356 . S
N864 H870 0.984 . S
N864 H871 0.984 . S
N865 C858 1.356 . S
N865 H868 0.984 . S
N865 H869 0.985 . S
H866 N861 0.984 . S
H867 N861 0.985 . S
H868 N865 0.984 . S
H869 N865 0.985 . S
H870 N864 0.984 . S
H871 N864 0.984 . S
H872 N860 0.984 . S
H873 N860 0.985 . S
C874 C875 1.363 . S
C874 C880 1.379 1_655 S
C874 N882 1.356 . S
C875 C874 1.363 . S
C875 C881 1.363 . S
C876 C877 1.363 . S
C876 C881 1.379 1_455 S
C876 N883 1.356 . S
C877 C876 1.363 . S
C877 C880 1.363 . S
N878 C880 1.356 . S
N878 H890 0.984 . S
N878 H891 0.985 . S
N879 C881 1.356 . S
N879 H884 0.984 . S
N879 H885 0.985 . S
C880 C874 1.379 1_455 S
C880 C877 1.363 . S
C880 N878 1.356 . S
C881 C875 1.363 . S
C881 C876 1.379 1_655 S
C881 N879 1.356 . S
N882 C874 1.356 . S
N882 H888 0.984 . S
N882 H889 0.984 . S
N883 C876 1.356 . S
N883 H886 0.984 . S
N883 H887 0.985 . S
H884 N879 0.984 . S
H885 N879 0.985 . S
H886 N883 0.984 . S
H887 N883 0.985 . S
H888 N882 0.984 . S
H889 N882 0.984 . S
H890 N878 0.984 . S
H891 N878 0.985 . S
C892 C893 1.363 . S
C892 C898 1.379 1_455 S
C892 N900 1.356 . S
C893 C892 1.363 . S
C893 C899 1.363 . S
C894 C895 1.363 . S
C894 C899 1.379 1_655 S
C894 N901 1.356 . S
C895 C894 1.363 . S
C895 C898 1.363 . S
N896 C898 1.356 . S
N896 H908 0.984 . S
N896 H909 0.985 . S
N897 C899 1.356 . S
N897 H902 0.984 . S
N897 H903 0.985 . S
C898 C892 1.379 1_655 S
C898 C895 1.363 . S
C898 N896 1.356 . S
C899 C893 1.363 . S
C899 C894 1.379 1_455 S
C899 N897 1.356 . S
N900 C892 1.356 . S
N900 H906 0.984 . S
N900 H907 0.984 . S
N901 C894 1.356 . S
N901 H904 0.984 . S
N901 H905 0.985 . S
H902 N897 0.984 . S
H903 N897 0.985 . S
H904 N901 0.984 . S
H905 N901 0.985 . S
H906 N900 0.984 . S
H907 N900 0.984 . S
H908 N896 0.984 . S
H909 N896 0.985 . S
C910 C911 1.363 . S
C910 C916 1.379 1_455 S
C910 N918 1.356 . S
C911 C910 1.363 . S
C911 C917 1.363 . S
C912 C913 1.363 . S
C912 C917 1.379 1_655 S
C912 N919 1.356 . S
C913 C912 1.363 . S
C913 C916 1.363 . S
N914 C916 1.356 . S
N914 H926 0.984 . S
N914 H927 0.985 . S
N915 C917 1.356 . S
N915 H920 0.984 . S
N915 H921 0.985 . S
C916 C910 1.379 1_655 S
C916 C913 1.363 . S
C916 N914 1.356 . S
C917 C911 1.363 . S
C917 C912 1.379 1_455 S
C917 N915 1.356 . S
N918 C910 1.356 . S
N918 H924 0.984 . S
N918 H925 0.984 . S
N919 C912 1.356 . S
N919 H922 0.984 . S
N919 H923 0.985 . S
H920 N915 0.984 . S
H921 N915 0.985 . S
H922 N919 0.984 . S
H923 N919 0.985 . S
H924 N918 0.984 . S
H925 N918 0.984 . S
H926 N914 0.984 . S
H927 N914 0.985 . S
C928 C929 1.363 . S
C928 C934 1.379 1_554 S
C928 N936 1.356 . S
C929 C928 1.363 . S
C929 C935 1.363 . S
C930 C931 1.363 . S
C930 C935 1.379 1_556 S
C930 N937 1.356 . S
C931 C930 1.363 . S
C931 C934 1.363 . S
N932 C934 1.356 . S
N932 H944 0.984 . S
N932 H945 0.985 . S
N933 C935 1.356 . S
N933 H938 0.984 . S
N933 H939 0.985 . S
C934 C928 1.379 1_556 S
C934 C931 1.363 . S
C934 N932 1.356 . S
C935 C929 1.363 . S
C935 C930 1.379 1_554 S
C935 N933 1.356 . S
N936 C928 1.356 . S
N936 H942 0.984 . S
N936 H943 0.984 . S
N937 C930 1.356 . S
N937 H940 0.984 . S
N937 H941 0.985 . S
H938 N933 0.984 . S
H939 N933 0.985 . S
H940 N937 0.984 . S
H941 N937 0.985 . S
H942 N936 0.984 . S
H943 N936 0.984 . S
H944 N932 0.984 . S
H945 N932 0.985 . S
C946 C947 1.363 . S
C946 C952 1.379 . S
C946 N954 1.356 . S
C947 C946 1.363 . S
C947 C953 1.363 . S
C948 C949 1.363 . S
C948 C953 1.379 . S
C948 N955 1.356 . S
C949 C948 1.363 . S
C949 C952 1.363 . S
N950 C952 1.356 . S
N950 H962 0.984 . S
N950 H963 0.985 . S
N951 C953 1.356 . S
N951 H956 0.984 . S
N951 H957 0.985 . S
C952 C946 1.379 . S
C952 C949 1.363 . S
C952 N950 1.356 . S
C953 C947 1.363 . S
C953 C948 1.379 . S
C953 N951 1.356 . S
N954 C946 1.356 . S
N954 H960 0.984 . S
N954 H961 0.984 . S
N955 C948 1.356 . S
N955 H958 0.984 . S
N955 H959 0.985 . S
H956 N951 0.984 . S
H957 N951 0.985 . S
H958 N955 0.984 . S
H959 N955 0.985 . S
H960 N954 0.984 . S
H961 N954 0.984 . S
H962 N950 0.984 . S
H963 N950 0.985 . S
C964 C965 1.363 . S
C964 C970 1.379 1_554 S
C964 N972 1.356 . S
C965 C964 1.363 . S
C965 C971 1.363 . S
C966 C967 1.363 . S
C966 C971 1.379 1_556 S
C966 N973 1.356 . S
C967 C966 1.363 . S
C967 C970 1.363 . S
N968 C970 1.356 . S
N968 H980 0.984 . S
N968 H981 0.985 . S
N969 C971 1.356 . S
N969 H974 0.984 . S
N969 H975 0.985 . S
C970 C964 1.379 1_556 S
C970 C967 1.363 . S
C970 N968 1.356 . S
C971 C965 1.363 . S
C971 C966 1.379 1_554 S
C971 N969 1.356 . S
N972 C964 1.356 . S
N972 H978 0.984 . S
N972 H979 0.984 . S
N973 C966 1.356 . S
N973 H976 0.984 . S
N973 H977 0.985 . S
H974 N969 0.984 . S
H975 N969 0.985 . S
H976 N973 0.984 . S
H977 N973 0.985 . S
H978 N972 0.984 . S
H979 N972 0.984 . S
H980 N968 0.984 . S
H981 N968 0.985 . S
C982 C983 1.363 . S
C982 C988 1.379 . S
C982 N990 1.356 . S
C983 C982 1.363 . S
C983 C989 1.363 . S
C984 C985 1.363 . S
C984 C989 1.379 . S
C984 N991 1.356 . S
C985 C984 1.363 . S
C985 C988 1.363 . S
N986 C988 1.356 . S
N986 H998 0.984 . S
N986 H999 0.985 . S
N987 C989 1.356 . S
N987 H992 0.984 . S
N987 H993 0.985 . S
C988 C982 1.379 . S
C988 C985 1.363 . S
C988 N986 1.356 . S
C989 C983 1.363 . S
C989 C984 1.379 . S
C989 N987 1.356 . S
N990 C982 1.356 . S
N990 H996 0.984 . S
N990 H997 0.984 . S
N991 C984 1.356 . S
N991 H994 0.984 . S
N991 H995 0.985 . S
H992 N987 0.984 . S
H993 N987 0.985 . S
H994 N991 0.984 . S
H995 N991 0.985 . S
H996 N990 0.984 . S
H997 N990 0.984 . S
H998 N986 0.984 . S
H999 N986 0.985 . S
C1000 C1001 1.363 . S
C1000 C1006 1.379 1_554 S
C1000 N1008 1.356 . S
C1001 C1000 1.363 . S
C1001 C1007 1.363 . S
C1002 C1003 1.363 . S
C1002 C1007 1.379 1_556 S
C1002 N1009 1.356 . S
C1003 C1002 1.363 . S
C1003 C1006 1.363 . S
N1004 C1006 1.356 . S
N1004 H1016 0.984 . S
N1004 H1017 0.985 . S
N1005 C1007 1.356 . S
N1005 H1010 0.984 . S
N1005 H1011 0.985 . S
C1006 C1000 1.379 1_556 S
C1006 C1003 1.363 . S
C1006 N1004 1.356 . S
C1007 C1001 1.363 . S
C1007 C1002 1.379 1_554 S
C1007 N1005 1.356 . S
N1008 C1000 1.356 . S
N1008 H1014 0.984 . S
N1008 H1015 0.984 . S
N1009 C1002 1.356 . S
N1009 H1012 0.984 . S
N1009 H1013 0.985 . S
H1010 N1005 0.984 . S
H1011 N1005 0.985 . S
H1012 N1009 0.984 . S
H1013 N1009 0.985 . S
H1014 N1008 0.984 . S
H1015 N1008 0.984 . S
H1016 N1004 0.984 . S
H1017 N1004 0.985 . S
C1018 C1019 1.363 . S
C1018 C1024 1.379 . S
C1018 N1026 1.356 . S
C1019 C1018 1.363 . S
C1019 C1025 1.363 . S
C1020 C1021 1.363 . S
C1020 C1025 1.379 . S
C1020 N1027 1.356 . S
C1021 C1020 1.363 . S
C1021 C1024 1.363 . S
N1022 C1024 1.356 . S
N1022 H1034 0.984 . S
N1022 H1035 0.985 . S
N1023 C1025 1.356 . S
N1023 H1028 0.984 . S
N1023 H1029 0.985 . S
C1024 C1018 1.379 . S
C1024 C1021 1.363 . S
C1024 N1022 1.356 . S
C1025 C1019 1.363 . S
C1025 C1020 1.379 . S
C1025 N1023 1.356 . S
N1026 C1018 1.356 . S
N1026 H1032 0.984 . S
N1026 H1033 0.984 . S
N1027 C1020 1.356 . S
N1027 H1030 0.984 . S
N1027 H1031 0.985 . S
H1028 N1023 0.984 . S
H1029 N1023 0.985 . S
H1030 N1027 0.984 . S
H1031 N1027 0.985 . S
H1032 N1026 0.984 . S
H1033 N1026 0.984 . S
H1034 N1022 0.984 . S
H1035 N1022 0.985 . S
C1036 C1037 1.363 . S
C1036 C1042 1.379 1_554 S
C1036 N1044 1.356 . S
C1037 C1036 1.363 . S
C1037 C1043 1.363 . S
C1038 C1039 1.363 . S
C1038 C1043 1.379 1_556 S
C1038 N1045 1.356 . S
C1039 C1038 1.363 . S
C1039 C1042 1.363 . S
N1040 C1042 1.356 . S
N1040 H1052 0.984 . S
N1040 H1053 0.985 . S
N1041 C1043 1.356 . S
N1041 H1046 0.984 . S
N1041 H1047 0.985 . S
C1042 C1036 1.379 1_556 S
C1042 C1039 1.363 . S
C1042 N1040 1.356 . S
C1043 C1037 1.363 . S
C1043 C1038 1.379 1_554 S
C1043 N1041 1.356 . S
N1044 C1036 1.356 . S
N1044 H1050 0.984 . S
N1044 H1051 0.984 . S
N1045 C1038 1.356 . S
N1045 H1048 0.984 . S
N1045 H1049 0.985 . S
H1046 N1041 0.984 . S
H1047 N1041 0.985 . S
H1048 N1045 0.984 . S
H1049 N1045 0.985 . S
H1050 N1044 0.984 . S
H1051 N1044 0.984 . S
H1052 N1040 0.984 . S
H1053 N1040 0.985 . S
C1054 C1055 1.363 . S
C1054 C1060 1.379 . S
C1054 N1062 1.356 . S
C1055 C1054 1.363 . S
C1055 C1061 1.363 . S
C1056 C1057 1.363 . S
C1056 C1061 1.379 . S
C1056 N1063 1.356 . S
C1057 C1056 1.363 . S
C1057 C1060 1.363 . S
N1058 C1060 1.356 . S
N1058 H1070 0.984 . S
N1058 H1071 0.985 . S
N1059 C1061 1.356 . S
N1059 H1064 0.984 . S
N1059 H1065 0.985 . S
C1060 C1054 1.379 . S
C1060 C1057 1.363 . S
C1060 N1058 1.356 . S
C1061 C1055 1.363 . S
C1061 C1056 1.379 . S
C1061 N1059 1.356 . S
N1062 C1054 1.356 . S
N1062 H1068 0.984 . S
N1062 H1069 0.984 . S
N1063 C1056 1.356 . S
N1063 H1066 0.984 . S
N1063 H1067 0.985 . S
H1064 N1059 0.984 . S
H1065 N1059 0.985 . S
H1066 N1063 0.984 . S
H1067 N1063 0.985 . S
H1068 N1062 0.984 . S
H1069 N1062 0.984 . S
H1070 N1058 0.984 . S
H1071 N1058 0.985 . S
C1072 C1073 1.363 . S
C1072 C1078 1.379 . S
C1072 N1080 1.356 . S
C1073 C1072 1.363 . S
C1073 C1079 1.363 . S
C1074 C1075 1.363 . S
C1074 C1079 1.379 . S
C1074 N1081 1.356 . S
C1075 C1074 1.363 . S
C1075 C1078 1.363 . S
N1076 C1078 1.356 . S
N1076 H1088 0.984 . S
N1076 H1089 0.985 . S
N1077 C1079 1.356 . S
N1077 H1082 0.984 . S
N1077 H1083 0.985 . S
C1078 C1072 1.379 . S
C1078 C1075 1.363 . S
C1078 N1076 1.356 . S
C1079 C1073 1.363 . S
C1079 C1074 1.379 . S
C1079 N1077 1.356 . S
N1080 C1072 1.356 . S
N1080 H1086 0.984 . S
N1080 H1087 0.984 . S
N1081 C1074 1.356 . S
N1081 H1084 0.984 . S
N1081 H1085 0.985 . S
H1082 N1077 0.984 . S
H1083 N1077 0.985 . S
H1084 N1081 0.984 . S
H1085 N1081 0.985 . S
H1086 N1080 0.984 . S
H1087 N1080 0.984 . S
H1088 N1076 0.984 . S
H1089 N1076 0.985 . S
C1090 C1091 1.363 . S
C1090 C1096 1.379 . S
C1090 N1098 1.356 . S
C1091 C1090 1.363 . S
C1091 C1097 1.363 . S
C1092 C1093 1.363 . S
C1092 C1097 1.379 . S
C1092 N1099 1.356 . S
C1093 C1092 1.363 . S
C1093 C1096 1.363 . S
N1094 C1096 1.356 . S
N1094 H1106 0.984 . S
N1094 H1107 0.985 . S
N1095 C1097 1.356 . S
N1095 H1100 0.984 . S
N1095 H1101 0.985 . S
C1096 C1090 1.379 . S
C1096 C1093 1.363 . S
C1096 N1094 1.356 . S
C1097 C1091 1.363 . S
C1097 C1092 1.379 . S
C1097 N1095 1.356 . S
N1098 C1090 1.356 . S
N1098 H1104 0.984 . S
N1098 H1105 0.984 . S
N1099 C1092 1.356 . S
N1099 H1102 0.984 . S
N1099 H1103 0.985 . S
H1100 N1095 0.984 . S
H1101 N1095 0.985 . S
H1102 N1099 0.984 . S
H1103 N1099 0.985 . S
H1104 N1098 0.984 . S
H1105 N1098 0.984 . S
H1106 N1094 0.984 . S
H1107 N1094 0.985 . S
C1108 C1109 1.363 . S
C1108 C1114 1.379 . S
C1108 N1116 1.356 . S
C1109 C1108 1.363 . S
C1109 C1115 1.363 . S
C1110 C1111 1.363 . S
C1110 C1115 1.379 . S
C1110 N1117 1.356 . S
C1111 C1110 1.363 . S
C1111 C1114 1.363 . S
N1112 C1114 1.356 . S
N1112 H1124 0.984 . S
N1112 H1125 0.985 . S
N1113 C1115 1.356 . S
N1113 H1118 0.984 . S
N1113 H1119 0.985 . S
C1114 C1108 1.379 . S
C1114 C1111 1.363 . S
C1114 N1112 1.356 . S
C1115 C1109 1.363 . S
C1115 C1110 1.379 . S
C1115 N1113 1.356 . S
N1116 C1108 1.356 . S
N1116 H1122 0.984 . S
N1116 H1123 0.984 . S
N1117 C1110 1.356 . S
N1117 H1120 0.984 . S
N1117 H1121 0.985 . S
H1118 N1113 0.984 . S
H1119 N1113 0.985 . S
H1120 N1117 0.984 . S
H1121 N1117 0.985 . S
H1122 N1116 0.984 . S
H1123 N1116 0.984 . S
H1124 N1112 0.984 . S
H1125 N1112 0.985 . S
C1126 C1127 1.363 . S
C1126 C1132 1.379 . S
C1126 N1134 1.356 . S
C1127 C1126 1.363 . S
C1127 C1133 1.363 . S
C1128 C1129 1.363 . S
C1128 C1133 1.379 . S
C1128 N1135 1.356 . S
C1129 C1128 1.363 . S
C1129 C1132 1.363 . S
N1130 C1132 1.356 . S
N1130 H1142 0.984 . S
N1130 H1143 0.985 . S
N1131 C1133 1.356 . S
N1131 H1136 0.984 . S
N1131 H1137 0.985 . S
C1132 C1126 1.379 . S
C1132 C1129 1.363 . S
C1132 N1130 1.356 . S
C1133 C1127 1.363 . S
C1133 C1128 1.379 . S
C1133 N1131 1.356 . S
N1134 C1126 1.356 . S
N1134 H1140 0.984 . S
N1134 H1141 0.984 . S
N1135 C1128 1.356 . S
N1135 H1138 0.984 . S
N1135 H1139 0.985 . S
H1136 N1131 0.984 . S
H1137 N1131 0.985 . S
H1138 N1135 0.984 . S
H1139 N1135 0.985 . S
H1140 N1134 0.984 . S
H1141 N1134 0.984 . S
H1142 N1130 0.984 . S
H1143 N1130 0.985 . S
C1144 C1145 1.363 . S
C1144 C1150 1.379 . S
C1144 N1152 1.356 . S
C1145 C1144 1.363 . S
C1145 C1151 1.363 . S
C1146 C1147 1.363 . S
C1146 C1151 1.379 . S
C1146 N1153 1.356 . S
C1147 C1146 1.363 . S
C1147 C1150 1.363 . S
N1148 C1150 1.356 . S
N1148 H1160 0.984 . S
N1148 H1161 0.985 . S
N1149 C1151 1.356 . S
N1149 H1154 0.984 . S
N1149 H1155 0.985 . S
C1150 C1144 1.379 . S
C1150 C1147 1.363 . S
C1150 N1148 1.356 . S
C1151 C1145 1.363 . S
C1151 C1146 1.379 . S
C1151 N1149 1.356 . S
N1152 C1144 1.356 . S
N1152 H1158 0.984 . S
N1152 H1159 0.984 . S
N1153 C1146 1.356 . S
N1153 H1156 0.984 . S
N1153 H1157 0.985 . S
H1154 N1149 0.984 . S
H1155 N1149 0.985 . S
H1156 N1153 0.984 . S
H1157 N1153 0.985 . S
H1158 N1152 0.984 . S
H1159 N1152 0.984 . S
H1160 N1148 0.984 . S
H1161 N1148 0.985 . S
C1162 C1163 1.363 . S
C1162 C1168 1.379 . S
C1162 N1170 1.356 . S
C1163 C1162 1.363 . S
C1163 C1169 1.363 . S
C1164 C1165 1.363 . S
C1164 C1169 1.379 . S
C1164 N1171 1.356 . S
C1165 C1164 1.363 . S
C1165 C1168 1.363 . S
N1166 C1168 1.356 . S
N1166 H1178 0.984 . S
N1166 H1179 0.985 . S
N1167 C1169 1.356 . S
N1167 H1172 0.984 . S
N1167 H1173 0.985 . S
C1168 C1162 1.379 . S
C1168 C1165 1.363 . S
C1168 N1166 1.356 . S
C1169 C1163 1.363 . S
C1169 C1164 1.379 . S
C1169 N1167 1.356 . S
N1170 C1162 1.356 . S
N1170 H1176 0.984 . S
N1170 H1177 0.984 . S
N1171 C1164 1.356 . S
N1171 H1174 0.984 . S
N1171 H1175 0.985 . S
H1172 N1167 0.984 . S
H1173 N1167 0.985 . S
H1174 N1171 0.984 . S
H1175 N1171 0.985 . S
H1176 N1170 0.984 . S
H1177 N1170 0.984 . S
H1178 N1166 0.984 . S
H1179 N1166 0.985 . S
C1180 C1181 1.363 . S
C1180 C1186 1.379 . S
C1180 N1188 1.356 . S
C1181 C1180 1.363 . S
C1181 C1187 1.363 . S
C1182 C1183 1.363 . S
C1182 C1187 1.379 . S
C1182 N1189 1.356 . S
C1183 C1182 1.363 . S
C1183 C1186 1.363 . S
N1184 C1186 1.356 . S
N1184 H1196 0.984 . S
N1184 H1197 0.985 . S
N1185 C1187 1.356 . S
N1185 H1190 0.984 . S
N1185 H1191 0.985 . S
C1186 C1180 1.379 . S
C1186 C1183 1.363 . S
C1186 N1184 1.356 . S
C1187 C1181 1.363 . S
C1187 C1182 1.379 . S
C1187 N1185 1.356 . S
N1188 C1180 1.356 . S
N1188 H1194 0.984 . S
N1188 H1195 0.984 . S
N1189 C1182 1.356 . S
N1189 H1192 0.984 . S
N1189 H1193 0.985 . S
H1190 N1185 0.984 . S
H1191 N1185 0.985 . S
H1192 N1189 0.984 . S
H1193 N1189 0.985 . S
H1194 N1188 0.984 . S
H1195 N1188 0.984 . S
H1196 N1184 0.984 . S
H1197 N1184 0.985 . S
C1198 C1199 1.363 . S
C1198 C1204 1.379 . S
C1198 N1206 1.356 . S
C1199 C1198 1.363 . S
C1199 C1205 1.363 . S
C1200 C1201 1.363 . S
C1200 C1205 1.379 . S
C1200 N1207 1.356 . S
C1201 C1200 1.363 . S
C1201 C1204 1.363 . S
N1202 C1204 1.356 . S
N1202 H1214 0.984 . S
N1202 H1215 0.985 . S
N1203 C1205 1.356 . S
N1203 H1208 0.984 . S
N1203 H1209 0.985 . S
C1204 C1198 1.379 . S
C1204 C1201 1.363 . S
C1204 N1202 1.356 . S
C1205 C1199 1.363 . S
C1205 C1200 1.379 . S
C1205 N1203 1.356 . S
N1206 C1198 1.356 . S
N1206 H1212 0.984 . S
N1206 H1213 0.984 . S
N1207 C1200 1.356 . S
N1207 H1210 0.984 . S
N1207 H1211 0.985 . S
H1208 N1203 0.984 . S
H1209 N1203 0.985 . S
H1210 N1207 0.984 . S
H1211 N1207 0.985 . S
H1212 N1206 0.984 . S
H1213 N1206 0.984 . S
H1214 N1202 0.984 . S
H1215 N1202 0.985 . S
C353 C10 1.585 . S
C355 C329 1.666 1_545 S
C371 C32 1.585 . S
C373 C351 1.666 1_565 S
C389 C52 1.585 . S
C391 C279 1.666 1_565 S
C407 C301 1.666 1_545 S
C409 C76 1.585 . S
C425 C235 1.671 1_565 S
C427 C96 1.600 . S
C443 C263 1.671 1_545 S
C445 C118 1.600 . S
C461 C197 1.671 1_545 S
C463 C142 1.600 . S
C479 C219 1.671 1_565 S
C481 C172 1.600 . S
C497 C186 1.585 . S
C499 C139 1.666 . S
C515 C175 1.666 . S
C517 C208 1.585 . S
C533 C103 1.666 . S
C535 C238 1.585 . S
C551 C125 1.666 . S
C553 C252 1.585 . S
C569 C51 1.671 . S
C571 C272 1.600 . S
C587 C294 1.600 . S
C589 C87 1.671 . S
C605 C21 1.671 . S
C607 C326 1.600 . S
C623 C348 1.600 . S
C625 C43 1.671 . S
C641 C7 1.412 . S
C643 C59 1.412 . S
C659 C73 1.412 . S
C661 C29 1.412 . S
C677 C153 1.417 . S
C679 C95 1.417 . S
C695 C169 1.417 . S
C697 C117 1.417 . S
C713 C241 1.412 . S
C715 C183 1.412 . S
C731 C249 1.412 . S
C733 C205 1.412 . S
C749 C323 1.417 . S
C751 C271 1.417 . S
C767 C293 1.417 . S
C769 C345 1.417 . S
C785 C18 1.522 . S
C787 C140 1.520 . S
C803 C40 1.522 . S
C805 C164 1.520 . S
C821 C106 1.520 . S
C823 C54 1.522 . S
C839 C84 1.522 . S
C841 C128 1.520 . S
C857 C194 1.522 . S
C859 C318 1.520 . S
C875 C340 1.520 . S
C877 C216 1.522 . S
C893 C282 1.520 . S
C895 C228 1.522 . S
C911 C260 1.522 . S
C913 C304 1.520 . S
C929 C15 1.150 . S
C931 C285 1.162 . S
C947 C307 1.162 . S
C949 C37 1.150 . S
C965 C315 1.162 . S
C967 C65 1.150 . S
C983 C337 1.162 . S
C985 C81 1.150 . S
C1001 C191 1.150 . S
C1003 C109 1.162 . S
C1019 C213 1.150 . S
C1021 C131 1.162 . S
C1037 C147 1.162 . S
C1039 C227 1.150 . S
C1055 C257 1.150 . S
C1057 C161 1.162 . S
C1073 C8 1.450 . S
C1075 C120 1.449 . S
C1091 C98 1.449 . S
C1093 C30 1.450 . S
C1109 C62 1.450 . S
C1111 C162 1.449 . S
C1127 C150 1.449 . S
C1129 C74 1.450 . S
C1145 C184 1.450 . S
C1147 C296 1.449 . S
C1163 C274 1.449 . S
C1165 C206 1.450 . S
C1181 C338 1.449 . S
C1183 C230 1.450 . S
C1199 C250 1.450 . S
C1201 C316 1.449 . S
