# Generated by pormake.
# Topology eta-c, (3)-cn, num edge types: 1
# Building blocks:
#     Node 0, Type 0, BuildingBlock: WUSLED_clean_sbu_0, # of connection points: 3
#     Node 1, Type 0, BuildingBlock: WUSLED_clean_sbu_0, # of connection points: 3
#     Node 2, Type 0, BuildingBlock: WUSLED_clean_sbu_0, # of connection points: 3
#     Node 3, Type 0, BuildingBlock: WUSLED_clean_sbu_0, # of connection points: 3
#     Node 4, Type 0, BuildingBlock: WUSLED_clean_sbu_0, # of connection points: 3
#     Node 5, Type 0, BuildingBlock: WUSLED_clean_sbu_0, # of connection points: 3
#     Edge 6, Type (0, 0), BuildingBlock: AJUNOK_clean_linker_0, # of connection points: 2
#     Edge 7, Type (0, 0), BuildingBlock: AJUNOK_clean_linker_0, # of connection points: 2
#     Edge 8, Type (0, 0), BuildingBlock: AJUNOK_clean_linker_0, # of connection points: 2
#     Edge 9, Type (0, 0), BuildingBlock: AJUNOK_clean_linker_0, # of connection points: 2
#     Edge 10, Type (0, 0), BuildingBlock: AJUNOK_clean_linker_0, # of connection points: 2
#     Edge 11, Type (0, 0), BuildingBlock: AJUNOK_clean_linker_0, # of connection points: 2
#     Edge 12, Type (0, 0), BuildingBlock: AJUNOK_clean_linker_0, # of connection points: 2
#     Edge 13, Type (0, 0), BuildingBlock: AJUNOK_clean_linker_0, # of connection points: 2
#     Edge 14, Type (0, 0), BuildingBlock: AJUNOK_clean_linker_0, # of connection points: 2
# Relax obj value: 0.000
# Max RMSD: 0.004
# Mean RMSD: 0.003
data_MOF--net-eta-c--node1-WUSLED_clean_sbu_0--edge1-AJUNOK_clean_linker_0
_symmetry_space_group_name_H-M    P1
_symmetry_Int_Tables_number       1
_symmetry_cell_setting            triclinic
loop_
_symmetry_equiv_pos_as_xyz
'x, y, z'
_cell_length_a     54.259585
_cell_length_b     54.733042
_cell_length_c     22.544289
_cell_angle_alpha  90.991263
_cell_angle_beta   89.488453
_cell_angle_gamma 118.98364
loop_
_atom_site_label
_atom_site_type_symbol
_atom_site_fract_x
_atom_site_fract_y
_atom_site_fract_z
_atom_type_partial_charge
C0 C 0.4164 0.81927 0.20368 0.0
C1 C 0.39482 0.79275 0.18631 0.0
C2 C 0.38249 0.78034 0.28988 0.0
C3 C 0.37791 0.77351 0.22903 0.0
C4 C 0.4044 0.80681 0.30693 0.0
C5 C 0.42118 0.82607 0.26421 0.0
U6 U 0.44763 0.8382 0.0481 0.0
O7 O 0.45243 0.872 0.9897 0.0
O8 O 0.48989 0.87009 1.01908 0.0
C9 C 0.48011 0.88448 0.99109 0.0
C10 C 0.43383 0.84012 0.15936 0.0
C11 C 0.49458 0.91486 1.00337 0.0
C12 C 0.49915 0.95562 0.05804 0.0
C13 C 0.48558 0.92658 0.04885 0.0
C14 C 0.53117 0.96146 0.97725 0.0
C15 C 0.52191 0.97344 1.02185 0.0
C16 C 0.51757 0.9325 0.96802 0.0
C17 C 0.42966 0.77761 0.93613 0.0
C18 C 0.45405 0.77979 0.8437 0.0
C19 C 0.40826 0.74003 0.86277 0.0
C20 C 0.40735 0.75175 0.91783 0.0
C21 C 0.43155 0.75397 0.82487 0.0
C22 C 0.45304 0.7916 0.89868 0.0
C23 C 0.42819 0.7892 0.99478 0.0
O24 O 0.45706 0.83987 0.14345 0.0
O25 O 0.42011 0.84277 0.11434 0.0
O26 O 0.4143 0.80329 0.99698 0.0
O27 O 0.45162 0.801 1.02585 0.0
H28 H 0.39081 0.78707 0.13973 0.0
H29 H 0.36086 0.75355 0.21435 0.0
H30 H 0.40854 0.81264 0.35341 0.0
H31 H 0.43781 0.84639 0.27845 0.0
H32 H 0.49159 0.96419 0.09287 0.0
H33 H 0.46795 0.91332 0.07688 0.0
H34 H 0.5491 0.97448 0.9497 0.0
H35 H 0.52497 0.92386 0.93299 0.0
H36 H 0.4726 0.79074 0.81624 0.0
H37 H 0.39058 0.72018 0.84956 0.0
H38 H 0.38916 0.74057 0.94621 0.0
H39 H 0.47057 0.81152 0.91209 0.0
C40 C 0.62962 0.39764 0.53246 0.0
C41 C 0.63476 0.37563 0.51606 0.0
C42 C 0.63366 0.36341 0.61994 0.0
C43 C 0.63661 0.35856 0.55946 0.0
C44 C 0.62884 0.38567 0.63608 0.0
C45 C 0.62685 0.40261 0.59271 0.0
U46 U 0.64304 0.43025 0.37803 0.0
O47 O 0.61381 0.43536 0.31877 0.0
O48 O 0.65169 0.47223 0.35195 0.0
C49 C 0.62791 0.46276 0.32249 0.0
C50 C 0.62639 0.41519 0.48761 0.0
C51 C 0.61097 0.4767 0.33529 0.0
C52 C 0.59021 0.49628 0.4044 0.0
C53 C 0.60599 0.48258 0.39368 0.0
C54 C 0.58392 0.49803 0.29864 0.0
C55 C 0.57892 0.50408 0.35696 0.0
C56 C 0.59976 0.48446 0.28797 0.0
C57 C 0.68802 0.41477 0.26571 0.0
C58 C 0.71178 0.44127 0.17787 0.0
C59 C 0.70434 0.39425 0.18892 0.0
C60 C 0.69109 0.39231 0.24347 0.0
C61 C 0.71509 0.41883 0.15576 0.0
C62 C 0.6983 0.43925 0.23234 0.0
C63 C 0.67446 0.41222 0.32405 0.0
O64 O 0.64936 0.43839 0.47435 0.0
O65 O 0.6112 0.40192 0.44083 0.0
O66 O 0.64679 0.39809 0.32458 0.0
O67 O 0.68479 0.43491 0.35762 0.0
H68 H 0.63708 0.3715 0.46976 0.0
H69 H 0.6404 0.3416 0.5458 0.0
H70 H 0.62601 0.38962 0.6822 0.0
H71 H 0.62278 0.41943 0.60622 0.0
H72 H 0.58666 0.50063 0.44979 0.0
H73 H 0.61437 0.47666 0.43088 0.0
H74 H 0.57597 0.50423 0.26116 0.0
H75 H 0.60345 0.48019 0.2426 0.0
H76 H 0.71933 0.46026 0.15272 0.0
H77 H 0.7065 0.37664 0.1729 0.0
H78 H 0.68333 0.37324 0.26849 0.0
H79 H 0.69596 0.45679 0.2484 0.0
C80 C 0.26655 0.67002 0.55254 0.0
C81 C 0.29163 0.69367 0.5705 0.0
C82 C 0.30622 0.70432 0.46746 0.0
C83 C 0.31118 0.71078 0.52829 0.0
C84 C 0.28137 0.68037 0.44967 0.0
C85 C 0.26168 0.66341 0.49188 0.0
U86 U 0.24778 0.63715 0.70514 0.0
O87 O 0.21426 0.6319 0.76789 0.0
O88 O 0.21587 0.59509 0.7325 0.0
C89 C 0.20181 0.60449 0.76465 0.0
C90 C 0.24533 0.65218 0.59638 0.0
C91 C 0.17098 0.59007 0.75644 0.0
C92 C 0.12915 0.57171 0.69408 0.0
C93 C 0.1586 0.58591 0.70009 0.0
C94 C 0.1243 0.56596 0.80054 0.0
C95 C 0.11166 0.56155 0.74435 0.0
C96 C 0.15361 0.58007 0.80646 0.0
C97 C 0.31016 0.65333 0.80976 0.0
C98 C 0.30791 0.64572 0.91613 0.0
C99 C 0.35004 0.65486 0.86131 0.0
C100 C 0.33759 0.65703 0.80909 0.0
C101 C 0.33531 0.64899 0.91545 0.0
C102 C 0.29536 0.64771 0.86365 0.0
C103 C 0.2977 0.65559 0.75369 0.0
O104 O 0.24528 0.62877 0.60873 0.0
O105 O 0.2427 0.66513 0.64369 0.0
O106 O 0.2835 0.66939 0.756 0.0
O107 O 0.2854 0.63269 0.72098 0.0
H108 H 0.29602 0.69904 0.61712 0.0
H109 H 0.33023 0.72906 0.54313 0.0
H110 H 0.27688 0.67513 0.40303 0.0
H111 H 0.24251 0.64523 0.47713 0.0
H112 H 0.12009 0.56831 0.65011 0.0
H113 H 0.17168 0.59347 0.66087 0.0
H114 H 0.11147 0.55863 0.84015 0.0
H115 H 0.16275 0.58312 0.85033 0.0
H116 H 0.29623 0.64184 0.95726 0.0
H117 H 0.37109 0.65737 0.85911 0.0
H118 H 0.34939 0.66148 0.76797 0.0
H119 H 0.27419 0.64491 0.86516 0.0
C120 C 0.62804 0.24987 0.88986 0.0
C121 C 0.62781 0.27467 0.9061 0.0
C122 C 0.63263 0.28832 0.80235 0.0
C123 C 0.6299 0.29361 0.86274 0.0
C124 C 0.63313 0.26359 0.78647 0.0
C125 C 0.63084 0.24459 0.82977 0.0
U126 U 0.64253 0.2301 0.04317 0.0
O127 O 0.61461 0.19656 0.10301 0.0
O128 O 0.65259 0.19704 0.06732 0.0
C129 C 0.62911 0.18314 0.09749 0.0
C130 C 0.62503 0.2291 0.9344 0.0
C131 C 0.61278 0.15286 0.08418 0.0
C132 C 0.57333 0.11272 0.03712 0.0
C133 C 0.58871 0.14161 0.04793 0.0
C134 C 0.60602 0.10599 0.098 0.0
C135 C 0.58189 0.09456 0.06181 0.0
C136 C 0.62128 0.13481 0.10901 0.0
C137 C 0.68908 0.29024 0.15184 0.0
C138 C 0.70366 0.28447 0.24998 0.0
C139 C 0.7203 0.33089 0.2114 0.0
C140 C 0.70499 0.31928 0.15926 0.0
C141 C 0.72005 0.31365 0.25714 0.0
C142 C 0.68832 0.27284 0.19764 0.0
C143 C 0.67416 0.27879 0.09536 0.0
O144 O 0.6481 0.22799 0.94657 0.0
O145 O 0.61001 0.22743 0.98179 0.0
O146 O 0.64648 0.26561 0.09777 0.0
O147 O 0.68429 0.26608 0.06113 0.0
H148 H 0.62571 0.27927 0.95221 0.0
H149 H 0.62881 0.31212 0.87644 0.0
H150 H 0.63535 0.25896 0.74045 0.0
H151 H 0.63113 0.22563 0.81627 0.0
H152 H 0.55452 0.10459 1.01009 0.0
H153 H 0.58169 0.1551 1.02831 0.0
H154 H 0.61327 0.09264 0.11742 0.0
H155 H 0.63978 0.14304 0.13709 0.0
H156 H 0.70271 0.27066 0.28483 0.0
H157 H 0.73289 0.35339 0.21542 0.0
H158 H 0.70589 0.33303 0.12428 0.0
H159 H 0.67607 0.25034 0.1927 0.0
C160 C 0.42091 0.62598 0.21368 0.0
C161 C 0.39604 0.62721 0.22549 0.0
C162 C 0.39205 0.63556 0.12105 0.0
C163 C 0.38167 0.63185 0.17947 0.0
C164 C 0.41725 0.63493 0.10973 0.0
C165 C 0.43146 0.63007 0.15558 0.0
U166 U 0.44705 0.63302 0.37381 0.0
O167 O 0.44899 0.60184 0.43126 0.0
O168 O 0.48783 0.6397 0.40749 0.0
C169 C 0.47667 0.61529 0.43333 0.0
C170 C 0.43605 0.62021 0.26081 0.0
C171 C 0.49056 0.59833 0.4209 0.0
C172 C 0.50685 0.57448 0.352 0.0
C173 C 0.49324 0.59032 0.36275 0.0
C174 C 0.51508 0.57437 0.45738 0.0
C175 C 0.51788 0.56625 0.39926 0.0
C176 C 0.50152 0.59021 0.46804 0.0
C177 C 0.42907 0.67661 0.48473 0.0
C178 C 0.44422 0.68573 0.58776 0.0
C179 C 0.41637 0.70528 0.54763 0.0
C180 C 0.4155 0.69264 0.4927 0.0
C181 C 0.43098 0.70222 0.59562 0.0
C182 C 0.44336 0.67309 0.53261 0.0
C183 C 0.42824 0.66414 0.42593 0.0
O184 O 0.45938 0.64181 0.27989 0.0
O185 O 0.4205 0.60393 0.30376 0.0
O186 O 0.41354 0.63676 0.42206 0.0
O187 O 0.45238 0.67446 0.39748 0.0
H188 H 0.38763 0.62443 0.27012 0.0
H189 H 0.3625 0.63264 0.18953 0.0
H190 H 0.42566 0.63765 0.06511 0.0
H191 H 0.45063 0.62927 0.14554 0.0
H192 H 0.50915 0.56906 0.30663 0.0
H193 H 0.48498 0.59648 0.32572 0.0
H194 H 0.52323 0.56829 0.49471 0.0
H195 H 0.49964 0.59618 0.51323 0.0
H196 H 0.45558 0.68299 0.62401 0.0
H197 H 0.40542 0.7173 0.55267 0.0
H198 H 0.40423 0.69545 0.4563 0.0
H199 H 0.45393 0.66072 0.5272 0.0
C200 C 0.83263 0.40229 0.54865 0.0
C201 C 0.80367 0.39261 0.5566 0.0
C202 C 0.79398 0.37059 0.45828 0.0
C203 C 0.7845 0.37698 0.51163 0.0
C204 C 0.82303 0.38049 0.45063 0.0
C205 C 0.84213 0.39613 0.49543 0.0
U206 U 0.85167 0.4339 0.70577 0.0
O207 O 0.88472 0.4368 0.76622 0.0
O208 O 0.88544 0.47498 0.73554 0.0
C209 C 0.89854 0.46424 0.76533 0.0
C210 C 0.85326 0.41881 0.59505 0.0
C211 C 0.9293 0.47722 0.75665 0.0
C212 C 0.97112 0.49669 0.69388 0.0
C213 C 0.94169 0.48366 0.70005 0.0
C214 C 0.9759 0.49658 0.80056 0.0
C215 C 0.98855 0.5034 0.74419 0.0
C216 C 0.94663 0.48368 0.80666 0.0
C217 C 0.79188 0.42085 0.81601 0.0
C218 C 0.79656 0.4275 0.9232 0.0
C219 C 0.75294 0.41791 0.87535 0.0
C220 C 0.76438 0.41684 0.82017 0.0
C221 C 0.76879 0.42304 0.92753 0.0
C222 C 0.80805 0.42646 0.86783 0.0
C223 C 0.80271 0.41805 0.7575 0.0
O224 O 0.85437 0.44262 0.61028 0.0
O225 O 0.85412 0.40467 0.64075 0.0
O226 O 0.81529 0.40269 0.75551 0.0
O227 O 0.81583 0.44102 0.72657 0.0
H228 H 0.79594 0.39717 0.59748 0.0
H229 H 0.76226 0.36968 0.51869 0.0
H230 H 0.83105 0.37648 0.40955 0.0
H231 H 0.86441 0.40354 0.48838 0.0
H232 H 0.98021 0.50128 0.64982 0.0
H233 H 0.92866 0.47869 0.6608 0.0
H234 H 0.98873 0.50161 0.84015 0.0
H235 H 0.93749 0.47892 0.8507 0.0
H236 H 0.80915 0.4311 0.9627 0.0
H237 H 0.73163 0.41468 0.87739 0.0
H238 H 0.75162 0.41256 0.78067 0.0
H239 H 0.82934 0.42959 0.86556 0.0
C240 C 0.54454 1.01603 0.08839 0.0
C241 C 0.53625 1.00438 0.03109 0.0
C242 C 0.55908 0.0451 0.09788 0.0
C243 C 0.56575 0.06376 0.05053 0.0
H244 H 0.54023 1.00257 0.12616 0.0
H245 H 0.56509 0.05303 0.14279 0.0
S246 S 0.54798 0.04396 0.89207 0.0
N247 N 0.53492 1.01384 0.92652 0.0
N248 N 0.56275 0.06834 0.94412 0.0
C249 C 0.55724 0.05238 0.9931 0.0
C250 C 0.54245 1.02278 0.98344 0.0
C251 C 0.5589 0.55781 0.41568 0.0
C252 C 0.53278 0.54976 0.38825 0.0
C253 C 0.57348 0.54278 0.40587 0.0
C254 C 0.56258 0.51912 0.36813 0.0
H255 H 0.56839 0.57617 0.44432 0.0
H256 H 0.59371 0.55007 0.42719 0.0
S257 S 0.49387 0.48775 0.28988 0.0
N258 N 0.49584 0.51544 0.32467 0.0
N259 N 0.52329 0.48734 0.30601 0.0
C260 C 0.53628 0.51053 0.34124 0.0
C261 C 0.5214 0.5258 0.35131 0.0
C262 C 0.06465 0.52111 0.77044 0.0
C263 C 0.0803 0.54607 0.73914 0.0
C264 C 1.0351 0.50713 0.77037 0.0
C265 C 1.01987 0.51744 0.73892 0.0
H266 H 0.07536 0.5124 0.79575 0.0
H267 H 1.02406 0.48817 0.7957 0.0
S268 S 0.05062 0.58211 0.65025 0.0
N269 N 0.07825 0.58053 0.6758 0.0
N270 N 1.02268 0.55419 0.67555 0.0
C271 C 1.03519 0.54204 0.70633 0.0
C272 C 0.06537 0.55634 0.70646 0.0
C273 C 0.35273 0.7701 0.38152 0.0
C274 C 0.36375 0.76049 0.33552 0.0
C275 C 0.33447 0.75186 0.42431 0.0
C276 C 0.32637 0.72325 0.42266 0.0
H277 H 0.35783 0.79183 0.38388 0.0
H278 H 0.32618 0.76012 0.45832 0.0
S279 S 0.35122 0.6879 0.31509 0.0
N280 N 0.36667 0.72072 0.29352 0.0
N281 N 0.33199 0.6864 0.37355 0.0
C282 C 0.33757 0.7134 0.37768 0.0
C283 C 0.35632 0.73201 0.33424 0.0
C284 C 0.61778 0.31559 0.66012 0.0
C285 C 0.63464 0.34473 0.666 0.0
C286 C 0.61742 0.29759 0.70413 0.0
C287 C 0.63401 0.30798 0.75571 0.0
H288 H 0.60426 0.30665 0.62177 0.0
H289 H 0.60358 0.27535 0.69819 0.0
S290 S 0.68386 0.38251 0.78954 0.0
N291 N 0.6696 0.38309 0.72558 0.0
N292 N 0.66925 0.34931 0.80794 0.0
C293 C 0.6515 0.33707 0.76139 0.0
C294 C 0.65174 0.3554 0.71667 0.0
C295 C 0.3907 0.66209 0.03267 0.0
C296 C 0.37655 0.6396 0.07145 0.0
C297 C 0.37701 0.66535 0.98336 0.0
C298 C 0.34866 0.64609 0.97053 0.0
H299 H 0.4126 0.67724 0.04039 0.0
H300 H 0.3888 0.68303 0.95481 0.0
S301 S 0.3026 0.58295 0.05726 0.0
N302 N 0.3328 0.59761 0.09356 0.0
N303 N 0.30716 0.60333 1.00037 0.0
C304 C 0.33422 0.62361 1.00935 0.0
C305 C 0.34813 0.62046 0.05985 0.0
C306 C 0.75441 0.36245 0.38962 0.0
C307 C 0.77383 0.35438 0.40988 0.0
C308 C 0.73672 0.34883 0.34102 0.0
C309 C 0.73753 0.32639 0.31122 0.0
H310 H 0.75344 0.37996 0.41038 0.0
H311 H 0.72247 0.3561 0.32629 0.0
S312 S 0.78363 0.29627 0.3487 0.0
N313 N 0.79191 0.32171 0.39805 0.0
N314 N 0.75897 0.29637 0.30647 0.0
C315 C 0.75631 0.31763 0.33207 0.0
C316 C 0.77441 0.33159 0.38132 0.0
C317 C 0.42489 0.70056 0.70633 0.0
C318 C 0.43217 0.71606 0.65378 0.0
C319 C 0.42479 0.71296 0.76133 0.0
C320 C 0.43225 0.74143 0.76605 0.0
H321 H 0.41873 0.67854 0.70478 0.0
H322 H 0.41895 0.70017 0.80055 0.0
S323 S 0.45344 0.79124 0.64171 0.0
N324 N 0.44764 0.7615 0.61008 0.0
N325 N 0.44695 0.78466 0.71303 0.0
C326 C 0.4398 0.75719 0.71385 0.0
C327 C 0.43984 0.74454 0.65788 0.0
C328 C 0.72912 0.40017 1.0003 0.0
C329 C 0.75575 0.42262 0.98621 0.0
C330 C 0.71623 0.39912 0.05513 0.0
C331 C 0.72927 0.42064 0.09786 0.0
H332 H 0.71825 0.3831 0.96887 0.0
H333 H 0.69573 0.38141 0.06394 0.0
S334 S 0.79902 0.48405 0.08297 0.0
N335 N 0.79467 0.46694 1.01946 0.0
N336 N 0.77052 0.46489 0.12267 0.0
C337 C 0.75587 0.44323 0.08435 0.0
C338 C 0.76911 0.44421 1.02863 0.0
loop_
_geom_bond_atom_site_label_1
_geom_bond_atom_site_label_2
_geom_bond_distance
_geom_bond_site_symmetry_2
_ccdc_geom_bond_type
C0 C1 1.264 . S
C0 C5 1.479 . S
C0 C10 1.465 . S
C1 C0 1.264 . S
C1 C3 1.339 . S
C1 H28 0.931 . S
C2 C3 1.395 . S
C2 C4 1.320 . S
C3 C1 1.339 . S
C3 C2 1.395 . S
C3 H29 0.929 . S
C4 C2 1.320 . S
C4 C5 1.405 . S
C4 H30 0.930 . S
C5 C0 1.479 . S
C5 C4 1.405 . S
C5 H31 0.931 . S
U6 O7 2.454 . S
U6 O8 2.458 1_554 S
U6 C9 2.984 . S
U6 C10 2.847 . S
U6 C23 2.882 1_554 S
U6 O24 2.441 . S
U6 O25 2.420 . S
U6 O26 2.455 1_554 S
U6 O27 2.449 1_554 S
O7 U6 2.454 . S
O7 C9 1.353 . S
O8 U6 2.458 1_556 S
O8 C9 1.286 1_556 S
C9 U6 2.984 . S
C9 O7 1.353 . S
C9 O8 1.286 1_554 S
C9 C11 1.363 . S
C10 C0 1.465 . S
C10 U6 2.847 . S
C10 O24 1.249 . S
C10 O25 1.202 . S
C11 C9 1.363 . S
C11 C13 1.408 . S
C11 C16 1.342 1_554 S
C12 C13 1.310 . S
C12 C15 1.461 . S
C12 H32 0.932 . S
C13 C11 1.408 . S
C13 C12 1.310 . S
C13 H33 0.930 . S
C14 C15 1.474 1_556 S
C14 C16 1.285 . S
C14 H34 0.929 . S
C15 C12 1.461 . S
C15 C14 1.474 1_554 S
C16 C11 1.342 1_556 S
C16 C14 1.285 . S
C16 H35 0.930 . S
C17 C20 1.424 . S
C17 C22 1.245 . S
C17 C23 1.428 . S
C18 C21 1.260 . S
C18 C22 1.477 . S
C18 H36 0.932 . S
C19 C20 1.384 . S
C19 C21 1.479 . S
C19 H37 0.929 . S
C20 C17 1.424 . S
C20 C19 1.384 . S
C20 H38 0.928 . S
C21 C18 1.260 . S
C21 C19 1.479 . S
C22 C17 1.245 . S
C22 C18 1.477 . S
C22 H39 0.932 . S
C23 U6 2.882 1_556 S
C23 C17 1.428 . S
C23 O26 1.301 . S
C23 O27 1.282 . S
O24 U6 2.441 . S
O24 C10 1.249 . S
O25 U6 2.420 . S
O25 C10 1.202 . S
O26 U6 2.455 1_556 S
O26 C23 1.301 . S
O27 U6 2.449 1_556 S
O27 C23 1.282 . S
H28 C1 0.931 . S
H29 C3 0.929 . S
H30 C4 0.930 . S
H31 C5 0.931 . S
H32 C12 0.932 . S
H33 C13 0.930 . S
H34 C14 0.929 . S
H35 C16 0.930 . S
H36 C18 0.932 . S
H37 C19 0.929 . S
H38 C20 0.928 . S
H39 C22 0.932 . S
C40 C41 1.264 . S
C40 C45 1.479 . S
C40 C50 1.465 . S
C41 C40 1.264 . S
C41 C43 1.339 . S
C41 H68 0.931 . S
C42 C43 1.395 . S
C42 C44 1.320 . S
C43 C41 1.339 . S
C43 C42 1.395 . S
C43 H69 0.929 . S
C44 C42 1.320 . S
C44 C45 1.405 . S
C44 H70 0.930 . S
C45 C40 1.479 . S
C45 C44 1.405 . S
C45 H71 0.931 . S
U46 O47 2.454 . S
U46 O48 2.458 . S
U46 C49 2.984 . S
U46 C50 2.847 . S
U46 C63 2.882 . S
U46 O64 2.441 . S
U46 O65 2.420 . S
U46 O66 2.455 . S
U46 O67 2.449 . S
O47 U46 2.454 . S
O47 C49 1.353 . S
O48 U46 2.458 . S
O48 C49 1.286 . S
C49 U46 2.984 . S
C49 O47 1.353 . S
C49 O48 1.286 . S
C49 C51 1.363 . S
C50 C40 1.465 . S
C50 U46 2.847 . S
C50 O64 1.249 . S
C50 O65 1.202 . S
C51 C49 1.363 . S
C51 C53 1.408 . S
C51 C56 1.342 . S
C52 C53 1.310 . S
C52 C55 1.461 . S
C52 H72 0.932 . S
C53 C51 1.408 . S
C53 C52 1.310 . S
C53 H73 0.930 . S
C54 C55 1.474 . S
C54 C56 1.285 . S
C54 H74 0.929 . S
C55 C52 1.461 . S
C55 C54 1.474 . S
C56 C51 1.342 . S
C56 C54 1.285 . S
C56 H75 0.930 . S
C57 C60 1.424 . S
C57 C62 1.245 . S
C57 C63 1.428 . S
C58 C61 1.260 . S
C58 C62 1.477 . S
C58 H76 0.932 . S
C59 C60 1.384 . S
C59 C61 1.479 . S
C59 H77 0.929 . S
C60 C57 1.424 . S
C60 C59 1.384 . S
C60 H78 0.928 . S
C61 C58 1.260 . S
C61 C59 1.479 . S
C62 C57 1.245 . S
C62 C58 1.477 . S
C62 H79 0.932 . S
C63 U46 2.882 . S
C63 C57 1.428 . S
C63 O66 1.301 . S
C63 O67 1.282 . S
O64 U46 2.441 . S
O64 C50 1.249 . S
O65 U46 2.420 . S
O65 C50 1.202 . S
O66 U46 2.455 . S
O66 C63 1.301 . S
O67 U46 2.449 . S
O67 C63 1.282 . S
H68 C41 0.931 . S
H69 C43 0.929 . S
H70 C44 0.930 . S
H71 C45 0.931 . S
H72 C52 0.932 . S
H73 C53 0.930 . S
H74 C54 0.929 . S
H75 C56 0.930 . S
H76 C58 0.932 . S
H77 C59 0.929 . S
H78 C60 0.928 . S
H79 C62 0.932 . S
C80 C81 1.264 . S
C80 C85 1.479 . S
C80 C90 1.465 . S
C81 C80 1.264 . S
C81 C83 1.339 . S
C81 H108 0.931 . S
C82 C83 1.395 . S
C82 C84 1.320 . S
C83 C81 1.339 . S
C83 C82 1.395 . S
C83 H109 0.929 . S
C84 C82 1.320 . S
C84 C85 1.405 . S
C84 H110 0.930 . S
C85 C80 1.479 . S
C85 C84 1.405 . S
C85 H111 0.931 . S
U86 O87 2.454 . S
U86 O88 2.458 . S
U86 C89 2.984 . S
U86 C90 2.847 . S
U86 C103 2.882 . S
U86 O104 2.441 . S
U86 O105 2.420 . S
U86 O106 2.455 . S
U86 O107 2.449 . S
O87 U86 2.454 . S
O87 C89 1.353 . S
O88 U86 2.458 . S
O88 C89 1.286 . S
C89 U86 2.984 . S
C89 O87 1.353 . S
C89 O88 1.286 . S
C89 C91 1.363 . S
C90 C80 1.465 . S
C90 U86 2.847 . S
C90 O104 1.249 . S
C90 O105 1.202 . S
C91 C89 1.363 . S
C91 C93 1.408 . S
C91 C96 1.342 . S
C92 C93 1.310 . S
C92 C95 1.461 . S
C92 H112 0.932 . S
C93 C91 1.408 . S
C93 C92 1.310 . S
C93 H113 0.930 . S
C94 C95 1.474 . S
C94 C96 1.285 . S
C94 H114 0.929 . S
C95 C92 1.461 . S
C95 C94 1.474 . S
C96 C91 1.342 . S
C96 C94 1.285 . S
C96 H115 0.930 . S
C97 C100 1.424 . S
C97 C102 1.245 . S
C97 C103 1.428 . S
C98 C101 1.260 . S
C98 C102 1.477 . S
C98 H116 0.932 . S
C99 C100 1.384 . S
C99 C101 1.479 . S
C99 H117 0.929 . S
C100 C97 1.424 . S
C100 C99 1.384 . S
C100 H118 0.928 . S
C101 C98 1.260 . S
C101 C99 1.479 . S
C102 C97 1.245 . S
C102 C98 1.477 . S
C102 H119 0.932 . S
C103 U86 2.882 . S
C103 C97 1.428 . S
C103 O106 1.301 . S
C103 O107 1.282 . S
O104 U86 2.441 . S
O104 C90 1.249 . S
O105 U86 2.420 . S
O105 C90 1.202 . S
O106 U86 2.455 . S
O106 C103 1.301 . S
O107 U86 2.449 . S
O107 C103 1.282 . S
H108 C81 0.931 . S
H109 C83 0.929 . S
H110 C84 0.930 . S
H111 C85 0.931 . S
H112 C92 0.932 . S
H113 C93 0.930 . S
H114 C94 0.929 . S
H115 C96 0.930 . S
H116 C98 0.932 . S
H117 C99 0.929 . S
H118 C100 0.928 . S
H119 C102 0.932 . S
C120 C121 1.264 . S
C120 C125 1.479 . S
C120 C130 1.465 . S
C121 C120 1.264 . S
C121 C123 1.339 . S
C121 H148 0.931 . S
C122 C123 1.395 . S
C122 C124 1.320 . S
C123 C121 1.339 . S
C123 C122 1.395 . S
C123 H149 0.929 . S
C124 C122 1.320 . S
C124 C125 1.405 . S
C124 H150 0.930 . S
C125 C120 1.479 . S
C125 C124 1.405 . S
C125 H151 0.931 . S
U126 O127 2.454 1_554 S
U126 O128 2.458 . S
U126 C129 2.984 . S
U126 C130 2.847 1_554 S
U126 C143 2.882 . S
U126 O144 2.441 1_554 S
U126 O145 2.420 1_554 S
U126 O146 2.455 . S
U126 O147 2.449 . S
O127 U126 2.454 1_556 S
O127 C129 1.353 1_556 S
O128 U126 2.458 . S
O128 C129 1.286 . S
C129 U126 2.984 . S
C129 O127 1.353 1_554 S
C129 O128 1.286 . S
C129 C131 1.363 . S
C130 C120 1.465 . S
C130 U126 2.847 1_556 S
C130 O144 1.249 . S
C130 O145 1.202 . S
C131 C129 1.363 . S
C131 C133 1.408 1_554 S
C131 C136 1.342 . S
C132 C133 1.310 . S
C132 C135 1.461 1_556 S
C132 H152 0.932 . S
C133 C131 1.408 1_556 S
C133 C132 1.310 . S
C133 H153 0.930 . S
C134 C135 1.474 . S
C134 C136 1.285 . S
C134 H154 0.929 . S
C135 C132 1.461 1_554 S
C135 C134 1.474 . S
C136 C131 1.342 . S
C136 C134 1.285 . S
C136 H155 0.930 . S
C137 C140 1.424 . S
C137 C142 1.245 . S
C137 C143 1.428 . S
C138 C141 1.260 . S
C138 C142 1.477 . S
C138 H156 0.932 . S
C139 C140 1.384 . S
C139 C141 1.479 . S
C139 H157 0.929 . S
C140 C137 1.424 . S
C140 C139 1.384 . S
C140 H158 0.928 . S
C141 C138 1.260 . S
C141 C139 1.479 . S
C142 C137 1.245 . S
C142 C138 1.477 . S
C142 H159 0.932 . S
C143 U126 2.882 . S
C143 C137 1.428 . S
C143 O146 1.301 . S
C143 O147 1.282 . S
O144 U126 2.441 1_556 S
O144 C130 1.249 . S
O145 U126 2.420 1_556 S
O145 C130 1.202 . S
O146 U126 2.455 . S
O146 C143 1.301 . S
O147 U126 2.449 . S
O147 C143 1.282 . S
H148 C121 0.931 . S
H149 C123 0.929 . S
H150 C124 0.930 . S
H151 C125 0.931 . S
H152 C132 0.932 . S
H153 C133 0.930 . S
H154 C134 0.929 . S
H155 C136 0.930 . S
H156 C138 0.932 . S
H157 C139 0.929 . S
H158 C140 0.928 . S
H159 C142 0.932 . S
C160 C161 1.264 . S
C160 C165 1.479 . S
C160 C170 1.465 . S
C161 C160 1.264 . S
C161 C163 1.339 . S
C161 H188 0.931 . S
C162 C163 1.395 . S
C162 C164 1.320 . S
C163 C161 1.339 . S
C163 C162 1.395 . S
C163 H189 0.929 . S
C164 C162 1.320 . S
C164 C165 1.405 . S
C164 H190 0.930 . S
C165 C160 1.479 . S
C165 C164 1.405 . S
C165 H191 0.931 . S
U166 O167 2.454 . S
U166 O168 2.458 . S
U166 C169 2.984 . S
U166 C170 2.847 . S
U166 C183 2.882 . S
U166 O184 2.441 . S
U166 O185 2.420 . S
U166 O186 2.455 . S
U166 O187 2.449 . S
O167 U166 2.454 . S
O167 C169 1.353 . S
O168 U166 2.458 . S
O168 C169 1.286 . S
C169 U166 2.984 . S
C169 O167 1.353 . S
C169 O168 1.286 . S
C169 C171 1.363 . S
C170 C160 1.465 . S
C170 U166 2.847 . S
C170 O184 1.249 . S
C170 O185 1.202 . S
C171 C169 1.363 . S
C171 C173 1.408 . S
C171 C176 1.342 . S
C172 C173 1.310 . S
C172 C175 1.461 . S
C172 H192 0.932 . S
C173 C171 1.408 . S
C173 C172 1.310 . S
C173 H193 0.930 . S
C174 C175 1.474 . S
C174 C176 1.285 . S
C174 H194 0.929 . S
C175 C172 1.461 . S
C175 C174 1.474 . S
C176 C171 1.342 . S
C176 C174 1.285 . S
C176 H195 0.930 . S
C177 C180 1.424 . S
C177 C182 1.245 . S
C177 C183 1.428 . S
C178 C181 1.260 . S
C178 C182 1.477 . S
C178 H196 0.932 . S
C179 C180 1.384 . S
C179 C181 1.479 . S
C179 H197 0.929 . S
C180 C177 1.424 . S
C180 C179 1.384 . S
C180 H198 0.928 . S
C181 C178 1.260 . S
C181 C179 1.479 . S
C182 C177 1.245 . S
C182 C178 1.477 . S
C182 H199 0.932 . S
C183 U166 2.882 . S
C183 C177 1.428 . S
C183 O186 1.301 . S
C183 O187 1.282 . S
O184 U166 2.441 . S
O184 C170 1.249 . S
O185 U166 2.420 . S
O185 C170 1.202 . S
O186 U166 2.455 . S
O186 C183 1.301 . S
O187 U166 2.449 . S
O187 C183 1.282 . S
H188 C161 0.931 . S
H189 C163 0.929 . S
H190 C164 0.930 . S
H191 C165 0.931 . S
H192 C172 0.932 . S
H193 C173 0.930 . S
H194 C174 0.929 . S
H195 C176 0.930 . S
H196 C178 0.932 . S
H197 C179 0.929 . S
H198 C180 0.928 . S
H199 C182 0.932 . S
C200 C201 1.264 . S
C200 C205 1.479 . S
C200 C210 1.465 . S
C201 C200 1.264 . S
C201 C203 1.339 . S
C201 H228 0.931 . S
C202 C203 1.395 . S
C202 C204 1.320 . S
C203 C201 1.339 . S
C203 C202 1.395 . S
C203 H229 0.929 . S
C204 C202 1.320 . S
C204 C205 1.405 . S
C204 H230 0.930 . S
C205 C200 1.479 . S
C205 C204 1.405 . S
C205 H231 0.931 . S
U206 O207 2.454 . S
U206 O208 2.458 . S
U206 C209 2.984 . S
U206 C210 2.847 . S
U206 C223 2.882 . S
U206 O224 2.441 . S
U206 O225 2.420 . S
U206 O226 2.455 . S
U206 O227 2.449 . S
O207 U206 2.454 . S
O207 C209 1.353 . S
O208 U206 2.458 . S
O208 C209 1.286 . S
C209 U206 2.984 . S
C209 O207 1.353 . S
C209 O208 1.286 . S
C209 C211 1.363 . S
C210 C200 1.465 . S
C210 U206 2.847 . S
C210 O224 1.249 . S
C210 O225 1.202 . S
C211 C209 1.363 . S
C211 C213 1.408 . S
C211 C216 1.342 . S
C212 C213 1.310 . S
C212 C215 1.461 . S
C212 H232 0.932 . S
C213 C211 1.408 . S
C213 C212 1.310 . S
C213 H233 0.930 . S
C214 C215 1.474 . S
C214 C216 1.285 . S
C214 H234 0.929 . S
C215 C212 1.461 . S
C215 C214 1.474 . S
C216 C211 1.342 . S
C216 C214 1.285 . S
C216 H235 0.930 . S
C217 C220 1.424 . S
C217 C222 1.245 . S
C217 C223 1.428 . S
C218 C221 1.260 . S
C218 C222 1.477 . S
C218 H236 0.932 . S
C219 C220 1.384 . S
C219 C221 1.479 . S
C219 H237 0.929 . S
C220 C217 1.424 . S
C220 C219 1.384 . S
C220 H238 0.928 . S
C221 C218 1.260 . S
C221 C219 1.479 . S
C222 C217 1.245 . S
C222 C218 1.477 . S
C222 H239 0.932 . S
C223 U206 2.882 . S
C223 C217 1.428 . S
C223 O226 1.301 . S
C223 O227 1.282 . S
O224 U206 2.441 . S
O224 C210 1.249 . S
O225 U206 2.420 . S
O225 C210 1.202 . S
O226 U206 2.455 . S
O226 C223 1.301 . S
O227 U206 2.449 . S
O227 C223 1.282 . S
H228 C201 0.931 . S
H229 C203 0.929 . S
H230 C204 0.930 . S
H231 C205 0.931 . S
H232 C212 0.932 . S
H233 C213 0.930 . S
H234 C214 0.929 . S
H235 C216 0.930 . S
H236 C218 0.932 . S
H237 C219 0.929 . S
H238 C220 0.928 . S
H239 C222 0.932 . S
C240 C241 1.369 . S
C240 C242 1.419 1_565 S
C240 H244 0.930 . S
C241 C240 1.369 . S
C241 C250 1.429 1_554 S
C242 C240 1.419 1_545 S
C242 C243 1.363 . S
C242 H245 0.929 . S
C243 C242 1.363 . S
C243 C249 1.428 1_554 S
H244 C240 0.930 . S
H245 C242 0.929 . S
S246 N247 1.613 . S
S246 N248 1.610 1_565 S
N247 S246 1.613 . S
N247 C250 1.350 . S
N248 S246 1.610 1_545 S
N248 C249 1.351 . S
C249 C243 1.428 1_556 S
C249 N248 1.351 . S
C249 C250 1.434 1_545 S
C250 C241 1.429 1_556 S
C250 N247 1.350 . S
C250 C249 1.434 1_565 S
C251 C252 1.369 . S
C251 C253 1.419 . S
C251 H255 0.930 . S
C252 C251 1.369 . S
C252 C261 1.429 . S
C253 C251 1.419 . S
C253 C254 1.363 . S
C253 H256 0.929 . S
C254 C253 1.363 . S
C254 C260 1.428 . S
H255 C251 0.930 . S
H256 C253 0.929 . S
S257 N258 1.613 . S
S257 N259 1.610 . S
N258 S257 1.613 . S
N258 C261 1.350 . S
N259 S257 1.610 . S
N259 C260 1.351 . S
C260 C254 1.428 . S
C260 N259 1.351 . S
C260 C261 1.434 . S
C261 C252 1.429 . S
C261 N258 1.350 . S
C261 C260 1.434 . S
C262 C263 1.369 . S
C262 C264 1.419 1_455 S
C262 H266 0.930 . S
C263 C262 1.369 . S
C263 C272 1.429 . S
C264 C262 1.419 1_655 S
C264 C265 1.363 . S
C264 H267 0.929 . S
C265 C264 1.363 . S
C265 C271 1.428 . S
H266 C262 0.930 . S
H267 C264 0.929 . S
S268 N269 1.613 1_655 S
S268 N270 1.610 . S
N269 S268 1.613 1_455 S
N269 C272 1.350 . S
N270 S268 1.610 . S
N270 C271 1.351 . S
C271 C265 1.428 . S
C271 N270 1.351 . S
C271 C272 1.434 1_655 S
C272 C263 1.429 . S
C272 N269 1.350 . S
C272 C271 1.434 1_455 S
C273 C274 1.369 . S
C273 C275 1.419 . S
C273 H277 0.930 . S
C274 C273 1.369 . S
C274 C283 1.429 . S
C275 C273 1.419 . S
C275 C276 1.363 . S
C275 H278 0.929 . S
C276 C275 1.363 . S
C276 C282 1.428 . S
H277 C273 0.930 . S
H278 C275 0.929 . S
S279 N280 1.613 . S
S279 N281 1.610 . S
N280 S279 1.613 . S
N280 C283 1.350 . S
N281 S279 1.610 . S
N281 C282 1.351 . S
C282 C276 1.428 . S
C282 N281 1.351 . S
C282 C283 1.434 . S
C283 C274 1.429 . S
C283 N280 1.350 . S
C283 C282 1.434 . S
C284 C285 1.369 . S
C284 C286 1.419 . S
C284 H288 0.930 . S
C285 C284 1.369 . S
C285 C294 1.429 . S
C286 C284 1.419 . S
C286 C287 1.363 . S
C286 H289 0.929 . S
C287 C286 1.363 . S
C287 C293 1.428 . S
H288 C284 0.930 . S
H289 C286 0.929 . S
S290 N291 1.613 . S
S290 N292 1.610 . S
N291 S290 1.613 . S
N291 C294 1.350 . S
N292 S290 1.610 . S
N292 C293 1.351 . S
C293 C287 1.428 . S
C293 N292 1.351 . S
C293 C294 1.434 . S
C294 C285 1.429 . S
C294 N291 1.350 . S
C294 C293 1.434 . S
C295 C296 1.369 . S
C295 C297 1.419 1_554 S
C295 H299 0.930 . S
C296 C295 1.369 . S
C296 C305 1.429 . S
C297 C295 1.419 1_556 S
C297 C298 1.363 . S
C297 H300 0.929 . S
C298 C297 1.363 . S
C298 C304 1.428 1_556 S
H299 C295 0.930 . S
H300 C297 0.929 . S
S301 N302 1.613 . S
S301 N303 1.610 . S
N302 S301 1.613 . S
N302 C305 1.350 . S
N303 S301 1.610 . S
N303 C304 1.351 . S
C304 C298 1.428 1_554 S
C304 N303 1.351 . S
C304 C305 1.434 . S
C305 C296 1.429 . S
C305 N302 1.350 . S
C305 C304 1.434 . S
C306 C307 1.369 . S
C306 C308 1.419 . S
C306 H310 0.930 . S
C307 C306 1.369 . S
C307 C316 1.429 . S
C308 C306 1.419 . S
C308 C309 1.363 . S
C308 H311 0.929 . S
C309 C308 1.363 . S
C309 C315 1.428 . S
H310 C306 0.930 . S
H311 C308 0.929 . S
S312 N313 1.613 . S
S312 N314 1.610 . S
N313 S312 1.613 . S
N313 C316 1.350 . S
N314 S312 1.610 . S
N314 C315 1.351 . S
C315 C309 1.428 . S
C315 N314 1.351 . S
C315 C316 1.434 . S
C316 C307 1.429 . S
C316 N313 1.350 . S
C316 C315 1.434 . S
C317 C318 1.369 . S
C317 C319 1.419 . S
C317 H321 0.930 . S
C318 C317 1.369 . S
C318 C327 1.429 . S
C319 C317 1.419 . S
C319 C320 1.363 . S
C319 H322 0.929 . S
C320 C319 1.363 . S
C320 C326 1.428 . S
H321 C317 0.930 . S
H322 C319 0.929 . S
S323 N324 1.613 . S
S323 N325 1.610 . S
N324 S323 1.613 . S
N324 C327 1.350 . S
N325 S323 1.610 . S
N325 C326 1.351 . S
C326 C320 1.428 . S
C326 N325 1.351 . S
C326 C327 1.434 . S
C327 C318 1.429 . S
C327 N324 1.350 . S
C327 C326 1.434 . S
C328 C329 1.369 . S
C328 C330 1.419 1_556 S
C328 H332 0.930 . S
C329 C328 1.369 . S
C329 C338 1.429 1_556 S
C330 C328 1.419 1_554 S
C330 C331 1.363 . S
C330 H333 0.929 . S
C331 C330 1.363 . S
C331 C337 1.428 . S
H332 C328 0.930 . S
H333 C330 0.929 . S
S334 N335 1.613 . S
S334 N336 1.610 . S
N335 S334 1.613 . S
N335 C338 1.350 . S
N336 S334 1.610 . S
N336 C337 1.351 . S
C337 C331 1.428 . S
C337 N336 1.351 . S
C337 C338 1.434 . S
C338 C329 1.429 1_554 S
C338 N335 1.350 . S
C338 C337 1.434 . S
C241 C15 1.500 . S
C243 C135 1.500 . S
C252 C175 1.500 . S
C254 C55 1.500 . S
C263 C95 1.507 . S
C265 C215 1.506 . S
C274 C2 1.487 . S
C276 C82 1.492 . S
C285 C42 1.488 . S
C287 C122 1.489 . S
C296 C162 1.487 . S
C298 C101 1.494 . S
C307 C202 1.493 . S
C309 C141 1.495 . S
C318 C181 1.489 . S
C320 C21 1.490 . S
C329 C221 1.497 . S
C331 C61 1.491 . S
