# Generated by pormake.
# Topology cbo, (4)-cn, num edge types: 1
# Building blocks:
#     Node 0, Type 0, BuildingBlock: QUQFOY_clean_sbu_1, # of connection points: 4
#     Node 1, Type 0, BuildingBlock: QUQFOY_clean_sbu_1, # of connection points: 4
#     Node 2, Type 0, BuildingBlock: QUQFOY_clean_sbu_1, # of connection points: 4
#     Node 3, Type 0, BuildingBlock: QUQFOY_clean_sbu_1, # of connection points: 4
#     Node 4, Type 0, BuildingBlock: QUQFOY_clean_sbu_1, # of connection points: 4
#     Node 5, Type 0, BuildingBlock: QUQFOY_clean_sbu_1, # of connection points: 4
#     Node 6, Type 0, BuildingBlock: QUQFOY_clean_sbu_1, # of connection points: 4
#     Node 7, Type 0, BuildingBlock: QUQFOY_clean_sbu_1, # of connection points: 4
#     Node 8, Type 0, BuildingBlock: QUQFOY_clean_sbu_1, # of connection points: 4
#     Node 9, Type 0, BuildingBlock: QUQFOY_clean_sbu_1, # of connection points: 4
#     Node 10, Type 0, BuildingBlock: QUQFOY_clean_sbu_1, # of connection points: 4
#     Node 11, Type 0, BuildingBlock: QUQFOY_clean_sbu_1, # of connection points: 4
#     Node 12, Type 0, BuildingBlock: QUQFOY_clean_sbu_1, # of connection points: 4
#     Node 13, Type 0, BuildingBlock: QUQFOY_clean_sbu_1, # of connection points: 4
#     Node 14, Type 0, BuildingBlock: QUQFOY_clean_sbu_1, # of connection points: 4
#     Node 15, Type 0, BuildingBlock: QUQFOY_clean_sbu_1, # of connection points: 4
#     Node 16, Type 0, BuildingBlock: QUQFOY_clean_sbu_1, # of connection points: 4
#     Node 17, Type 0, BuildingBlock: QUQFOY_clean_sbu_1, # of connection points: 4
#     Node 18, Type 0, BuildingBlock: QUQFOY_clean_sbu_1, # of connection points: 4
#     Node 19, Type 0, BuildingBlock: QUQFOY_clean_sbu_1, # of connection points: 4
#     Node 20, Type 0, BuildingBlock: QUQFOY_clean_sbu_1, # of connection points: 4
#     Node 21, Type 0, BuildingBlock: QUQFOY_clean_sbu_1, # of connection points: 4
#     Node 22, Type 0, BuildingBlock: QUQFOY_clean_sbu_1, # of connection points: 4
#     Node 23, Type 0, BuildingBlock: QUQFOY_clean_sbu_1, # of connection points: 4
#     Edge 24, Type (0, 0), BuildingBlock: KIFKEQ_clean_linker_1, # of connection points: 2
#     Edge 25, Type (0, 0), BuildingBlock: KIFKEQ_clean_linker_1, # of connection points: 2
#     Edge 26, Type (0, 0), BuildingBlock: KIFKEQ_clean_linker_1, # of connection points: 2
#     Edge 27, Type (0, 0), BuildingBlock: KIFKEQ_clean_linker_1, # of connection points: 2
#     Edge 28, Type (0, 0), BuildingBlock: KIFKEQ_clean_linker_1, # of connection points: 2
#     Edge 29, Type (0, 0), BuildingBlock: KIFKEQ_clean_linker_1, # of connection points: 2
#     Edge 30, Type (0, 0), BuildingBlock: KIFKEQ_clean_linker_1, # of connection points: 2
#     Edge 31, Type (0, 0), BuildingBlock: KIFKEQ_clean_linker_1, # of connection points: 2
#     Edge 32, Type (0, 0), BuildingBlock: KIFKEQ_clean_linker_1, # of connection points: 2
#     Edge 33, Type (0, 0), BuildingBlock: KIFKEQ_clean_linker_1, # of connection points: 2
#     Edge 34, Type (0, 0), BuildingBlock: KIFKEQ_clean_linker_1, # of connection points: 2
#     Edge 35, Type (0, 0), BuildingBlock: KIFKEQ_clean_linker_1, # of connection points: 2
#     Edge 36, Type (0, 0), BuildingBlock: KIFKEQ_clean_linker_1, # of connection points: 2
#     Edge 37, Type (0, 0), BuildingBlock: KIFKEQ_clean_linker_1, # of connection points: 2
#     Edge 38, Type (0, 0), BuildingBlock: KIFKEQ_clean_linker_1, # of connection points: 2
#     Edge 39, Type (0, 0), BuildingBlock: KIFKEQ_clean_linker_1, # of connection points: 2
#     Edge 40, Type (0, 0), BuildingBlock: KIFKEQ_clean_linker_1, # of connection points: 2
#     Edge 41, Type (0, 0), BuildingBlock: KIFKEQ_clean_linker_1, # of connection points: 2
#     Edge 42, Type (0, 0), BuildingBlock: KIFKEQ_clean_linker_1, # of connection points: 2
#     Edge 43, Type (0, 0), BuildingBlock: KIFKEQ_clean_linker_1, # of connection points: 2
#     Edge 44, Type (0, 0), BuildingBlock: KIFKEQ_clean_linker_1, # of connection points: 2
#     Edge 45, Type (0, 0), BuildingBlock: KIFKEQ_clean_linker_1, # of connection points: 2
#     Edge 46, Type (0, 0), BuildingBlock: KIFKEQ_clean_linker_1, # of connection points: 2
#     Edge 47, Type (0, 0), BuildingBlock: KIFKEQ_clean_linker_1, # of connection points: 2
#     Edge 48, Type (0, 0), BuildingBlock: KIFKEQ_clean_linker_1, # of connection points: 2
#     Edge 49, Type (0, 0), BuildingBlock: KIFKEQ_clean_linker_1, # of connection points: 2
#     Edge 50, Type (0, 0), BuildingBlock: KIFKEQ_clean_linker_1, # of connection points: 2
#     Edge 51, Type (0, 0), BuildingBlock: KIFKEQ_clean_linker_1, # of connection points: 2
#     Edge 52, Type (0, 0), BuildingBlock: KIFKEQ_clean_linker_1, # of connection points: 2
#     Edge 53, Type (0, 0), BuildingBlock: KIFKEQ_clean_linker_1, # of connection points: 2
#     Edge 54, Type (0, 0), BuildingBlock: KIFKEQ_clean_linker_1, # of connection points: 2
#     Edge 55, Type (0, 0), BuildingBlock: KIFKEQ_clean_linker_1, # of connection points: 2
#     Edge 56, Type (0, 0), BuildingBlock: KIFKEQ_clean_linker_1, # of connection points: 2
#     Edge 57, Type (0, 0), BuildingBlock: KIFKEQ_clean_linker_1, # of connection points: 2
#     Edge 58, Type (0, 0), BuildingBlock: KIFKEQ_clean_linker_1, # of connection points: 2
#     Edge 59, Type (0, 0), BuildingBlock: KIFKEQ_clean_linker_1, # of connection points: 2
#     Edge 60, Type (0, 0), BuildingBlock: KIFKEQ_clean_linker_1, # of connection points: 2
#     Edge 61, Type (0, 0), BuildingBlock: KIFKEQ_clean_linker_1, # of connection points: 2
#     Edge 62, Type (0, 0), BuildingBlock: KIFKEQ_clean_linker_1, # of connection points: 2
#     Edge 63, Type (0, 0), BuildingBlock: KIFKEQ_clean_linker_1, # of connection points: 2
#     Edge 64, Type (0, 0), BuildingBlock: KIFKEQ_clean_linker_1, # of connection points: 2
#     Edge 65, Type (0, 0), BuildingBlock: KIFKEQ_clean_linker_1, # of connection points: 2
#     Edge 66, Type (0, 0), BuildingBlock: KIFKEQ_clean_linker_1, # of connection points: 2
#     Edge 67, Type (0, 0), BuildingBlock: KIFKEQ_clean_linker_1, # of connection points: 2
#     Edge 68, Type (0, 0), BuildingBlock: KIFKEQ_clean_linker_1, # of connection points: 2
#     Edge 69, Type (0, 0), BuildingBlock: KIFKEQ_clean_linker_1, # of connection points: 2
#     Edge 70, Type (0, 0), BuildingBlock: KIFKEQ_clean_linker_1, # of connection points: 2
#     Edge 71, Type (0, 0), BuildingBlock: KIFKEQ_clean_linker_1, # of connection points: 2
# Relax obj value: 0.096
# Max RMSD: 0.124
# Mean RMSD: 0.124
data_MOF--net-cbo--node1-QUQFOY_clean_sbu_1--edge1-KIFKEQ_clean_linker_1
_symmetry_space_group_name_H-M    P1
_symmetry_Int_Tables_number       1
_symmetry_cell_setting            triclinic
loop_
_symmetry_equiv_pos_as_xyz
'x, y, z'
_cell_length_a     54.734004
_cell_length_b     54.7698
_cell_length_c     54.799923
_cell_angle_alpha  90.012906
_cell_angle_beta   90.002065
_cell_angle_gamma 90.001235
loop_
_atom_site_label
_atom_site_type_symbol
_atom_site_fract_x
_atom_site_fract_y
_atom_site_fract_z
_atom_type_partial_charge
O0 O 0.08257 0.16938 0.26948 0.0
Cd1 Cd 0.08426 0.14168 0.29486 0.0
Cd2 Cd 0.10723 0.17504 0.32075 0.0
O3 O 0.09286 0.19874 0.29495 0.0
O4 O 0.05642 0.11892 0.28834 0.0
O5 O 0.05903 0.14232 0.32122 0.0
C6 C 0.04669 0.12695 0.30826 0.0
C7 C 0.10377 0.18219 0.36261 0.0
C8 C 0.0856 0.19195 0.27395 0.0
C9 C 0.13726 0.13355 0.30109 0.0
O10 O 0.13734 0.15515 0.30964 0.0
O11 O 0.11709 0.12299 0.29636 0.0
O12 O 0.11751 0.19567 0.34907 0.0
O13 O 0.09139 0.16497 0.35234 0.0
O14 O 0.42405 0.83314 0.77424 0.0
Cd15 Cd 0.42215 0.86368 0.7963 0.0
Cd16 Cd 0.3949 0.83462 0.82428 0.0
O17 O 0.40532 0.80805 0.79956 0.0
O18 O 0.45108 0.88449 0.78831 0.0
O19 O 0.44613 0.86584 0.82382 0.0
C20 C 0.45955 0.87906 0.80962 0.0
C21 C 0.39831 0.82809 0.86634 0.0
C22 C 0.41631 0.81189 0.77947 0.0
C23 C 0.36945 0.87708 0.80051 0.0
O24 O 0.3673 0.85737 0.81259 0.0
O25 O 0.39045 0.88428 0.79357 0.0
O26 O 0.38203 0.81696 0.85346 0.0
O27 O 0.41308 0.84272 0.85523 0.0
O28 O 0.5875 0.32791 0.73044 0.0
Cd29 Cd 0.58907 0.35944 0.71004 0.0
Cd30 Cd 0.61703 0.33187 0.68133 0.0
O31 O 0.6073 0.30397 0.70494 0.0
O32 O 0.56136 0.37938 0.72259 0.0
O33 O 0.56326 0.36584 0.68463 0.0
C34 C 0.55127 0.37726 0.70144 0.0
C35 C 0.61319 0.32658 0.63925 0.0
C36 C 0.5958 0.30698 0.72487 0.0
C37 C 0.64151 0.374 0.70667 0.0
O38 O 0.6442 0.35517 0.69336 0.0
O39 O 0.6204 0.37998 0.71434 0.0
O40 O 0.63002 0.31563 0.65155 0.0
O41 O 0.5981 0.34043 0.65097 0.0
O42 O 0.92507 0.66583 0.23316 0.0
Cd43 Cd 0.92233 0.63613 0.21012 0.0
Cd44 Cd 0.89707 0.66708 0.18238 0.0
O45 O 0.90863 0.69245 0.20782 0.0
O46 O 0.95081 0.61425 0.21672 0.0
O47 O 0.94587 0.63488 0.18229 0.0
C48 C 0.95916 0.62067 0.19563 0.0
C49 C 0.90063 0.67491 0.14058 0.0
C50 C 0.91879 0.68761 0.22813 0.0
C51 C 0.86936 0.62508 0.20452 0.0
O52 O 0.86835 0.64528 0.19313 0.0
O53 O 0.88987 0.61668 0.21157 0.0
O54 O 0.88488 0.68627 0.15389 0.0
O55 O 0.91481 0.65932 0.15112 0.0
O56 O 0.27427 0.08119 0.17879 0.0
Cd57 Cd 0.29456 0.08172 0.14715 0.0
Cd58 Cd 0.32363 0.11081 0.17369 0.0
O59 O 0.29974 0.10218 0.20178 0.0
O60 O 0.28201 0.05344 0.12801 0.0
O61 O 0.32009 0.05586 0.14125 0.0
C62 C 0.30328 0.04356 0.13013 0.0
C63 C 0.36579 0.10819 0.17994 0.0
C64 C 0.27982 0.09048 0.1993 0.0
C65 C 0.29806 0.13357 0.13066 0.0
O66 O 0.31168 0.1369 0.14917 0.0
O67 O 0.29005 0.11234 0.12567 0.0
O68 O 0.35287 0.12517 0.18988 0.0
O69 O 0.35467 0.09222 0.1666 0.0
O70 O 0.23343 0.92604 0.67462 0.0
Cd71 Cd 0.21086 0.92466 0.64462 0.0
Cd72 Cd 0.18283 0.89789 0.67399 0.0
O73 O 0.20774 0.90891 0.70043 0.0
O74 O 0.21867 0.95356 0.62377 0.0
O75 O 0.18337 0.94873 0.64291 0.0
C76 C 0.19743 0.96208 0.62948 0.0
C77 C 0.14067 0.90085 0.68061 0.0
C78 C 0.2282 0.91909 0.69611 0.0
C79 C 0.20633 0.87221 0.63133 0.0
O80 O 0.19425 0.87014 0.65105 0.0
O81 O 0.21348 0.89311 0.62413 0.0
O82 O 0.15379 0.88484 0.69184 0.0
O83 O 0.15161 0.91572 0.66596 0.0
O84 O 0.77671 0.42518 0.83019 0.0
Cd85 Cd 0.79402 0.42511 0.86372 0.0
Cd86 Cd 0.82399 0.39418 0.84054 0.0
O87 O 0.80191 0.40057 0.81066 0.0
O88 O 0.78122 0.45472 0.88052 0.0
O89 O 0.82012 0.45012 0.87066 0.0
C90 C 0.80302 0.4636 0.87977 0.0
C91 C 0.86643 0.39628 0.83669 0.0
C92 C 0.78286 0.41385 0.81089 0.0
C93 C 0.79509 0.37406 0.88286 0.0
O94 O 0.81021 0.36995 0.86575 0.0
O95 O 0.78681 0.39552 0.88619 0.0
O96 O 0.85417 0.37802 0.82832 0.0
O97 O 0.85449 0.41385 0.84696 0.0
O98 O 0.73039 0.58356 0.328 0.0
Cd99 Cd 0.70852 0.58628 0.35843 0.0
Cd100 Cd 0.68063 0.61192 0.32803 0.0
O101 O 0.70498 0.60003 0.30158 0.0
O102 O 0.72013 0.55939 0.37999 0.0
O103 O 0.68291 0.56055 0.36431 0.0
C104 C 0.6992 0.54902 0.37691 0.0
C105 C 0.6385 0.60856 0.32204 0.0
C106 C 0.72526 0.5897 0.30625 0.0
C107 C 0.70436 0.63931 0.36944 0.0
O108 O 0.69226 0.64058 0.34967 0.0
O109 O 0.71143 0.6187 0.3775 0.0
O110 O 0.65143 0.62428 0.31021 0.0
O111 O 0.64965 0.59416 0.33703 0.0
O112 O 0.17672 0.27073 0.07846 0.0
Cd113 Cd 0.14451 0.29036 0.07938 0.0
Cd114 Cd 0.17049 0.31975 0.10841 0.0
O115 O 0.19885 0.29618 0.10041 0.0
O116 O 0.12573 0.2786 0.05053 0.0
O117 O 0.13884 0.31661 0.05433 0.0
C118 C 0.128 0.30016 0.04135 0.0
C119 C 0.17637 0.36188 0.10516 0.0
C120 C 0.19696 0.27651 0.08825 0.0
C121 C 0.1279 0.29371 0.1313 0.0
O122 O 0.14628 0.30753 0.13447 0.0
O123 O 0.12288 0.28564 0.11009 0.0
O124 O 0.18631 0.34935 0.12241 0.0
O125 O 0.16313 0.3504 0.08937 0.0
O126 O 0.66696 0.23752 0.92417 0.0
Cd127 Cd 0.63957 0.21185 0.92162 0.0
Cd128 Cd 0.67395 0.18615 0.89987 0.0
O129 O 0.69686 0.21212 0.91528 0.0
O130 O 0.61621 0.21734 0.94916 0.0
O131 O 0.64033 0.18499 0.94619 0.0
C132 C 0.6245 0.19736 0.95856 0.0
C133 C 0.68132 0.14428 0.90322 0.0
C134 C 0.68967 0.23314 0.92213 0.0
C135 C 0.63319 0.20544 0.86856 0.0
O136 O 0.65492 0.19717 0.86922 0.0
O137 O 0.6219 0.21008 0.88832 0.0
O138 O 0.69519 0.15805 0.8901 0.0
O139 O 0.66362 0.15434 0.91507 0.0
O140 O 0.82497 0.77726 0.41983 0.0
Cd141 Cd 0.85926 0.79282 0.42 0.0
Cd142 Cd 0.8389 0.82261 0.38693 0.0
O143 O 0.8084 0.80066 0.39158 0.0
O144 O 0.87496 0.77919 0.44979 0.0
O145 O 0.86774 0.81859 0.44489 0.0
C146 C 0.87574 0.80104 0.45847 0.0
C147 C 0.83546 0.86504 0.38937 0.0
C148 C 0.80691 0.78282 0.40637 0.0
C149 C 0.88114 0.79209 0.36986 0.0
O150 O 0.86582 0.8087 0.36458 0.0
O151 O 0.88184 0.78323 0.3913 0.0
O152 O 0.82812 0.85315 0.37043 0.0
O153 O 0.84442 0.85272 0.40738 0.0
O154 O 0.32615 0.73193 0.58326 0.0
Cd155 Cd 0.3582 0.71225 0.58436 0.0
Cd156 Cd 0.33345 0.6837 0.61539 0.0
O157 O 0.30517 0.70772 0.60767 0.0
O158 O 0.37691 0.72069 0.55423 0.0
O159 O 0.36164 0.68394 0.5614 0.0
C160 C 0.37309 0.69862 0.54691 0.0
C161 C 0.32735 0.64147 0.6132 0.0
C162 C 0.30645 0.72672 0.59437 0.0
C163 C 0.37674 0.71046 0.63582 0.0
O164 O 0.35906 0.69603 0.6401 0.0
O165 O 0.38034 0.71855 0.61435 0.0
O166 O 0.31796 0.65437 0.63051 0.0
O167 O 0.33996 0.65265 0.59671 0.0
O168 O 0.92498 0.82764 0.72972 0.0
Cd169 Cd 0.92238 0.85938 0.70968 0.0
Cd170 Cd 0.89464 0.83132 0.68061 0.0
O171 O 0.90378 0.804 0.705 0.0
O172 O 0.94992 0.87979 0.72192 0.0
O173 O 0.94783 0.86615 0.68399 0.0
C174 C 0.95987 0.87769 0.70069 0.0
C175 C 0.89779 0.82442 0.63868 0.0
C176 C 0.91607 0.80688 0.72448 0.0
C177 C 0.86954 0.87331 0.70545 0.0
O178 O 0.8674 0.85475 0.69169 0.0
O179 O 0.89036 0.87922 0.71399 0.0
O180 O 0.88109 0.81411 0.65166 0.0
O181 O 0.91325 0.83848 0.64965 0.0
O182 O 0.58338 0.17995 0.23039 0.0
Cd183 Cd 0.58449 0.14738 0.21132 0.0
Cd184 Cd 0.61314 0.17367 0.18198 0.0
O185 O 0.60501 0.20243 0.20493 0.0
O186 O 0.55596 0.1286 0.22389 0.0
O187 O 0.55909 0.14073 0.18554 0.0
C188 C 0.54644 0.13018 0.20243 0.0
C189 C 0.61032 0.17773 0.13967 0.0
C190 C 0.59284 0.20034 0.22459 0.0
C191 C 0.63655 0.13162 0.20868 0.0
O192 O 0.63936 0.15002 0.19486 0.0
O193 O 0.61538 0.12605 0.21652 0.0
O194 O 0.62794 0.18752 0.15184 0.0
O195 O 0.59366 0.16611 0.15167 0.0
O196 O 0.41922 0.68081 0.27785 0.0
Cd197 Cd 0.41893 0.64708 0.29454 0.0
Cd198 Cd 0.38676 0.66956 0.32417 0.0
O199 O 0.39244 0.69934 0.30156 0.0
O200 O 0.4482 0.63036 0.28085 0.0
O201 O 0.44434 0.63914 0.32002 0.0
C202 C 0.45744 0.63035 0.30247 0.0
C203 C 0.38866 0.67369 0.36653 0.0
C204 C 0.40675 0.69962 0.28327 0.0
C205 C 0.36802 0.62689 0.29512 0.0
O206 O 0.3634 0.64323 0.31092 0.0
O207 O 0.38943 0.62483 0.28635 0.0
O208 O 0.37019 0.68152 0.35421 0.0
O209 O 0.40662 0.66399 0.35468 0.0
O210 O 0.08208 0.34157 0.76865 0.0
Cd211 Cd 0.08385 0.36991 0.79319 0.0
Cd212 Cd 0.10886 0.33786 0.82001 0.0
O213 O 0.09687 0.31351 0.79345 0.0
O214 O 0.05486 0.39149 0.78795 0.0
O215 O 0.06054 0.36918 0.82119 0.0
C216 C 0.04686 0.38383 0.80876 0.0
C217 C 0.10577 0.32857 0.86161 0.0
C218 C 0.08767 0.31947 0.77294 0.0
C219 C 0.13642 0.38112 0.79961 0.0
O220 O 0.1375 0.36054 0.81031 0.0
O221 O 0.11596 0.38962 0.79259 0.0
O222 O 0.12135 0.31765 0.84773 0.0
O223 O 0.09137 0.34437 0.85171 0.0
O224 O 0.72963 0.92594 0.82249 0.0
Cd225 Cd 0.71358 0.92599 0.85648 0.0
Cd226 Cd 0.68322 0.89415 0.8342 0.0
O227 O 0.70557 0.8994 0.80412 0.0
O228 O 0.72805 0.95566 0.8717 0.0
O229 O 0.68832 0.95124 0.86562 0.0
C230 C 0.70633 0.96466 0.87286 0.0
C231 C 0.64072 0.89584 0.83044 0.0
C232 C 0.72402 0.91352 0.80373 0.0
C233 C 0.71284 0.8753 0.87669 0.0
O234 O 0.69671 0.87097 0.86058 0.0
O235 O 0.72205 0.89655 0.87865 0.0
O236 O 0.65309 0.8774 0.82262 0.0
O237 O 0.6526 0.91391 0.83988 0.0
O238 O 0.77263 0.08272 0.33545 0.0
Cd239 Cd 0.79528 0.0835 0.3654 0.0
Cd240 Cd 0.82319 0.11058 0.33604 0.0
O241 O 0.79794 0.10041 0.30958 0.0
O242 O 0.78839 0.05371 0.38529 0.0
O243 O 0.82336 0.06013 0.36597 0.0
C244 C 0.80977 0.04594 0.37903 0.0
C245 C 0.8653 0.10865 0.32888 0.0
C246 C 0.77756 0.09009 0.31402 0.0
C247 C 0.8 0.13537 0.37977 0.0
O248 O 0.81209 0.13752 0.36008 0.0
O249 O 0.79253 0.11449 0.38667 0.0
O250 O 0.85194 0.12543 0.31919 0.0
O251 O 0.85459 0.09225 0.34198 0.0
O252 O 0.23118 0.5788 0.17089 0.0
Cd253 Cd 0.21088 0.58032 0.13913 0.0
Cd254 Cd 0.18212 0.608 0.16693 0.0
O255 O 0.20592 0.59907 0.19479 0.0
O256 O 0.22233 0.55184 0.11962 0.0
O257 O 0.18457 0.55526 0.13359 0.0
C258 C 0.20086 0.5425 0.12225 0.0
C259 C 0.13987 0.6053 0.17212 0.0
C260 C 0.22577 0.58739 0.19175 0.0
C261 C 0.20735 0.63246 0.12446 0.0
O262 O 0.19426 0.63474 0.14346 0.0
O263 O 0.21509 0.61149 0.1181 0.0
O264 O 0.15242 0.62262 0.18196 0.0
O265 O 0.15147 0.58883 0.15984 0.0
O266 O 0.27995 0.42445 0.68443 0.0
Cd267 Cd 0.29898 0.42256 0.65201 0.0
Cd268 Cd 0.32818 0.39319 0.67817 0.0
O269 O 0.30437 0.4012 0.7064 0.0
O270 O 0.28602 0.45068 0.6329 0.0
O271 O 0.32451 0.44811 0.64485 0.0
C272 C 0.30739 0.46049 0.63434 0.0
C273 C 0.37029 0.39712 0.68356 0.0
C274 C 0.28527 0.41427 0.70456 0.0
C275 C 0.3021 0.37018 0.63589 0.0
O276 O 0.31646 0.36704 0.65384 0.0
O277 O 0.29356 0.39131 0.63127 0.0
O278 O 0.35811 0.37978 0.69383 0.0
O279 O 0.35842 0.41271 0.67042 0.0
O280 O 0.83384 0.73525 0.92544 0.0
Cd281 Cd 0.86484 0.71407 0.92338 0.0
Cd282 Cd 0.83681 0.68593 0.89505 0.0
O283 O 0.80996 0.71121 0.90374 0.0
O284 O 0.885 0.7246 0.95172 0.0
O285 O 0.86987 0.68732 0.94799 0.0
C286 C 0.88184 0.70311 0.96081 0.0
C287 C 0.82907 0.64411 0.89851 0.0
C288 C 0.81313 0.73065 0.91605 0.0
C289 C 0.8801 0.70984 0.87118 0.0
O290 O 0.86134 0.69642 0.86847 0.0
O291 O 0.88556 0.71827 0.89212 0.0
O292 O 0.81927 0.65708 0.88149 0.0
O293 O 0.84303 0.65503 0.91407 0.0
O294 O 0.33199 0.7709 0.08129 0.0
Cd295 Cd 0.3617 0.79372 0.08398 0.0
Cd296 Cd 0.33035 0.82111 0.10882 0.0
O297 O 0.30462 0.79611 0.09654 0.0
O298 O 0.3836 0.78353 0.05676 0.0
O299 O 0.36621 0.81996 0.05872 0.0
C300 C 0.37945 0.80447 0.0468 0.0
C301 C 0.32367 0.86312 0.10546 0.0
C302 C 0.30998 0.7757 0.08681 0.0
C303 C 0.37203 0.79856 0.13693 0.0
O304 O 0.35186 0.81006 0.13781 0.0
O305 O 0.38065 0.79161 0.11651 0.0
O306 O 0.31169 0.84995 0.12086 0.0
O307 O 0.33912 0.85227 0.09132 0.0
O308 O 0.18254 0.23263 0.58127 0.0
Cd309 Cd 0.14893 0.21545 0.58106 0.0
Cd310 Cd 0.17272 0.18548 0.61197 0.0
O311 O 0.20265 0.20755 0.60548 0.0
O312 O 0.13319 0.22946 0.55143 0.0
O313 O 0.14078 0.19 0.55569 0.0
C314 C 0.13288 0.20776 0.54234 0.0
C315 C 0.17626 0.14295 0.61086 0.0
C316 C 0.20203 0.22671 0.59238 0.0
C317 C 0.1302 0.21452 0.63211 0.0
O318 O 0.14753 0.1996 0.63605 0.0
O319 O 0.12647 0.22268 0.61068 0.0
O320 O 0.1848 0.15559 0.62877 0.0
O321 O 0.16617 0.15456 0.59297 0.0
O322 O 0.68197 0.27778 0.42323 0.0
Cd323 Cd 0.64988 0.29734 0.42101 0.0
Cd324 Cd 0.67647 0.32597 0.3917 0.0
O325 O 0.70443 0.30186 0.40011 0.0
O326 O 0.63022 0.28507 0.44902 0.0
O327 O 0.64299 0.32326 0.44617 0.0
C328 C 0.63194 0.30651 0.45858 0.0
C329 C 0.68181 0.36805 0.39597 0.0
C330 C 0.70227 0.2828 0.41319 0.0
C331 C 0.63399 0.30023 0.36864 0.0
O332 O 0.65212 0.31438 0.36543 0.0
O333 O 0.62923 0.29191 0.3898 0.0
O334 O 0.69234 0.35601 0.37869 0.0
O335 O 0.66848 0.35606 0.4113 0.0
H336 H 0.13866 0.30123 0.17935 0.0
H337 H 0.08693 0.26473 0.13225 0.0
H338 H 0.12235 0.27956 0.21421 0.0
H339 H 0.06975 0.24368 0.16752 0.0
H340 H 0.07873 0.18268 0.2255 0.0
H341 H 0.08311 0.21094 0.19181 0.0
H342 H 0.09165 0.27061 0.24278 0.0
H343 H 0.08831 0.24194 0.27667 0.0
C344 C 0.12331 0.28908 0.1765 0.0
C345 C 0.11441 0.28442 0.15288 0.0
C346 C 0.11378 0.2767 0.19664 0.0
C347 C 0.09489 0.25951 0.19376 0.0
C348 C 0.08469 0.25632 0.17038 0.0
C349 C 0.09442 0.26854 0.15015 0.0
C350 C 0.08112 0.20188 0.2296 0.0
C351 C 0.08357 0.20996 0.25383 0.0
C352 C 0.08346 0.21822 0.21017 0.0
C353 C 0.08805 0.24314 0.21444 0.0
C354 C 0.0887 0.25148 0.23875 0.0
C355 C 0.08662 0.23506 0.25822 0.0
H356 H 0.38866 0.77055 0.77695 0.0
H357 H 0.44627 0.80927 0.73954 0.0
H358 H 0.38492 0.74277 0.74274 0.0
H359 H 0.44358 0.78055 0.70567 0.0
H360 H 0.40241 0.7531 0.63728 0.0
H361 H 0.41722 0.77415 0.67326 0.0
H362 H 0.39832 0.71158 0.71758 0.0
H363 H 0.38216 0.69113 0.68154 0.0
C364 C 0.40107 0.77267 0.7617 0.0
C365 C 0.41752 0.79233 0.76083 0.0
C366 C 0.39905 0.75658 0.74201 0.0
C367 C 0.41374 0.75945 0.72109 0.0
C368 C 0.43148 0.77808 0.7211 0.0
C369 C 0.43318 0.79447 0.74062 0.0
C370 C 0.4019 0.74361 0.65461 0.0
C371 C 0.39078 0.72059 0.6566 0.0
C372 C 0.41053 0.75568 0.67537 0.0
C373 C 0.40866 0.74483 0.69861 0.0
C374 C 0.39943 0.72088 0.70019 0.0
C375 C 0.39036 0.70901 0.67947 0.0
H376 H 0.61205 0.25972 0.72028 0.0
H377 H 0.57684 0.30897 0.77087 0.0
H378 H 0.6158 0.22931 0.75261 0.0
H379 H 0.58144 0.27923 0.8032 0.0
H380 H 0.58691 0.22243 0.85936 0.0
H381 H 0.57234 0.24163 0.82196 0.0
H382 H 0.64137 0.22561 0.78711 0.0
H383 H 0.65542 0.20563 0.82396 0.0
C384 C 0.60481 0.26395 0.73819 0.0
C385 C 0.59446 0.28694 0.74304 0.0
C386 C 0.60711 0.24657 0.75679 0.0
C387 C 0.59926 0.25186 0.78069 0.0
C388 C 0.58748 0.27427 0.78504 0.0
C389 C 0.58502 0.29151 0.76646 0.0
C390 C 0.59873 0.22251 0.84352 0.0
C391 C 0.62248 0.21282 0.84481 0.0
C392 C 0.59044 0.23368 0.82209 0.0
C393 C 0.60581 0.23565 0.80157 0.0
C394 C 0.62887 0.22435 0.80238 0.0
C395 C 0.63705 0.21298 0.82368 0.0
H396 H 0.89516 0.73142 0.22963 0.0
H397 H 0.94655 0.68703 0.26971 0.0
H398 H 0.89243 0.75935 0.2638 0.0
H399 H 0.94488 0.71576 0.30365 0.0
H400 H 0.8919 0.811 0.32492 0.0
H401 H 0.90809 0.78903 0.28979 0.0
H402 H 0.91707 0.72459 0.33454 0.0
H403 H 0.90219 0.74696 0.3697 0.0
C404 C 0.90645 0.728 0.2455 0.0
C405 C 0.9208 0.7068 0.24707 0.0
C406 C 0.90502 0.74418 0.26516 0.0
C407 C 0.91822 0.73979 0.28679 0.0
C408 C 0.93396 0.71946 0.2876 0.0
C409 C 0.93507 0.70306 0.26806 0.0
C410 C 0.89795 0.79232 0.32733 0.0
C411 C 0.8955 0.78064 0.35003 0.0
C412 C 0.90703 0.77962 0.30713 0.0
C413 C 0.91344 0.75479 0.30905 0.0
C414 C 0.91258 0.7437 0.33222 0.0
C415 C 0.9039 0.75653 0.35249 0.0
H416 H 0.23326 0.07272 0.19777 0.0
H417 H 0.28483 0.10777 0.24613 0.0
H418 H 0.20104 0.07888 0.22737 0.0
H419 H 0.2526 0.11305 0.27644 0.0
H420 H 0.1825 0.15453 0.30023 0.0
H421 H 0.21882 0.13932 0.28008 0.0
H422 H 0.18192 0.07119 0.26492 0.0
H423 H 0.14502 0.08697 0.28425 0.0
C424 C 0.23791 0.08119 0.21502 0.0
C425 C 0.2616 0.09011 0.21937 0.0
C426 C 0.21936 0.08457 0.23219 0.0
C427 C 0.22403 0.09674 0.25432 0.0
C428 C 0.24817 0.10409 0.2594 0.0
C429 C 0.26672 0.10091 0.24207 0.0
C430 C 0.18221 0.13612 0.29303 0.0
C431 C 0.16066 0.12215 0.29349 0.0
C432 C 0.20321 0.12727 0.28155 0.0
C433 C 0.20332 0.1041 0.27046 0.0
C434 C 0.18235 0.08936 0.27269 0.0
C435 C 0.16121 0.09833 0.28395 0.0
H436 H 0.36601 0.92088 0.77631 0.0
H437 H 0.32226 0.86142 0.80412 0.0
H438 H 0.33024 0.93727 0.75543 0.0
H439 H 0.28703 0.87696 0.78245 0.0
H440 H 0.22336 0.90926 0.74505 0.0
H441 H 0.25601 0.90532 0.77509 0.0
H442 H 0.3088 0.9263 0.72024 0.0
H443 H 0.27622 0.93132 0.69082 0.0
C444 C 0.34871 0.91148 0.77824 0.0
C445 C 0.34713 0.88965 0.79163 0.0
C446 C 0.3282 0.92076 0.7661 0.0
C447 C 0.30571 0.90824 0.76678 0.0
C448 C 0.30384 0.88733 0.78157 0.0
C449 C 0.32422 0.87826 0.79394 0.0
C450 C 0.2419 0.91352 0.7396 0.0
C451 C 0.24717 0.92032 0.71543 0.0
C452 C 0.26068 0.9111 0.75678 0.0
C453 C 0.28522 0.91511 0.75012 0.0
C454 C 0.29022 0.9233 0.7263 0.0
C455 C 0.27144 0.92602 0.70926 0.0
H456 H 0.74755 0.44736 0.79985 0.0
H457 H 0.77983 0.38008 0.77441 0.0
H458 H 0.71541 0.44356 0.76933 0.0
H459 H 0.74714 0.37549 0.74485 0.0
H460 H 0.68858 0.37114 0.68984 0.0
H461 H 0.7253 0.38632 0.70993 0.0
H462 H 0.68052 0.41965 0.76579 0.0
H463 H 0.64407 0.40558 0.74509 0.0
C464 C 0.74792 0.43189 0.78754 0.0
C465 C 0.76606 0.41388 0.78972 0.0
C466 C 0.72937 0.42959 0.77014 0.0
C467 C 0.72825 0.40896 0.75483 0.0
C468 C 0.74737 0.39178 0.75604 0.0
C469 C 0.76615 0.39432 0.77315 0.0
C470 C 0.68662 0.38223 0.7061 0.0
C471 C 0.66339 0.38691 0.71601 0.0
C472 C 0.7077 0.39077 0.71776 0.0
C473 C 0.70606 0.40388 0.7398 0.0
C474 C 0.6827 0.40988 0.74876 0.0
C475 C 0.66165 0.40165 0.73691 0.0
H476 H 0.82299 0.64276 0.19992 0.0
H477 H 0.86346 0.581 0.22771 0.0
H478 H 0.78666 0.62849 0.2206 0.0
H479 H 0.82656 0.56592 0.24759 0.0
H480 H 0.77246 0.57483 0.31187 0.0
H481 H 0.80541 0.57797 0.28267 0.0
H482 H 0.7542 0.60147 0.22736 0.0
H483 H 0.72116 0.59938 0.25719 0.0
C484 C 0.82398 0.62569 0.20987 0.0
C485 C 0.84632 0.61329 0.21254 0.0
C486 C 0.80296 0.61736 0.22165 0.0
C487 C 0.80362 0.5962 0.23619 0.0
C488 C 0.82548 0.58265 0.2371 0.0
C489 C 0.84663 0.59118 0.22554 0.0
C490 C 0.76807 0.58029 0.29339 0.0
C491 C 0.74419 0.58727 0.28703 0.0
C492 C 0.78706 0.5819 0.27647 0.0
C493 C 0.78266 0.59026 0.25259 0.0
C494 C 0.75842 0.5955 0.24572 0.0
C495 C 0.73941 0.59415 0.26278 0.0
H496 H 0.31662 0.18001 0.12989 0.0
H497 H 0.25809 0.13571 0.10104 0.0
H498 H 0.29705 0.21649 0.11356 0.0
H499 H 0.23787 0.17201 0.08595 0.0
H500 H 0.20433 0.23864 0.05654 0.0
H501 H 0.2338 0.20552 0.0605 0.0
H502 H 0.26383 0.24035 0.12471 0.0
H503 H 0.23538 0.27391 0.11981 0.0
C504 C 0.29972 0.17804 0.11979 0.0
C505 C 0.28879 0.15499 0.11699 0.0
C506 C 0.28835 0.19899 0.1106 0.0
C507 C 0.26555 0.19744 0.09878 0.0
C508 C 0.25549 0.17412 0.09466 0.0
C509 C 0.26706 0.15317 0.10347 0.0
C510 C 0.21764 0.23943 0.07115 0.0
C511 C 0.21736 0.25876 0.08801 0.0
C512 C 0.23443 0.22033 0.07357 0.0
C513 C 0.25101 0.21985 0.09323 0.0
C514 C 0.25164 0.24003 0.10917 0.0
C515 C 0.23516 0.25933 0.10646 0.0
H516 H 0.76253 0.37494 0.92106 0.0
H517 H 0.80361 0.32559 0.87522 0.0
H518 H 0.73999 0.34039 0.93788 0.0
H519 H 0.7805 0.29144 0.891 0.0
H520 H 0.73973 0.23036 0.9236 0.0
H521 H 0.76868 0.26415 0.92153 0.0
H522 H 0.70858 0.31538 0.92317 0.0
H523 H 0.67997 0.28181 0.92641 0.0
C524 C 0.76701 0.35672 0.91482 0.0
C525 C 0.78465 0.35312 0.89653 0.0
C526 C 0.75394 0.33689 0.92431 0.0
C527 C 0.75802 0.31305 0.91553 0.0
C528 C 0.77688 0.30938 0.89847 0.0
C529 C 0.7901 0.32911 0.88922 0.0
C530 C 0.73278 0.24887 0.92405 0.0
C531 C 0.70751 0.25335 0.92486 0.0
C532 C 0.74937 0.26828 0.92269 0.0
C533 C 0.74106 0.29261 0.92176 0.0
C534 C 0.71583 0.29702 0.9241 0.0
C535 C 0.69931 0.27765 0.92578 0.0
H536 H 0.79219 0.75074 0.44158 0.0
H537 H 0.77346 0.77729 0.3698 0.0
H538 H 0.76179 0.71849 0.43764 0.0
H539 H 0.74398 0.74444 0.36526 0.0
H540 H 0.68844 0.68605 0.36139 0.0
H541 H 0.70776 0.72378 0.37497 0.0
H542 H 0.76036 0.6817 0.41619 0.0
H543 H 0.7404 0.64428 0.40353 0.0
C544 C 0.78134 0.74986 0.42506 0.0
C545 C 0.78542 0.76639 0.40588 0.0
C546 C 0.76403 0.73124 0.42271 0.0
C547 C 0.75068 0.72842 0.40093 0.0
C548 C 0.75366 0.74602 0.38241 0.0
C549 C 0.77071 0.76489 0.38495 0.0
C550 C 0.70379 0.68492 0.37382 0.0
C551 C 0.71304 0.66212 0.38116 0.0
C552 C 0.71501 0.70658 0.38146 0.0
C553 C 0.73594 0.70593 0.39638 0.0
C554 C 0.74416 0.68312 0.40493 0.0
C555 C 0.73276 0.66151 0.39755 0.0
H556 H 0.24462 0.86811 0.59975 0.0
H557 H 0.18838 0.8257 0.63518 0.0
H558 H 0.26456 0.83089 0.58655 0.0
H559 H 0.20758 0.78821 0.6208 0.0
H560 H 0.26992 0.73169 0.62786 0.0
H561 H 0.24158 0.7655 0.63187 0.0
H562 H 0.26779 0.79551 0.56369 0.0
H563 H 0.29717 0.76224 0.56054 0.0
C564 C 0.23605 0.85081 0.60403 0.0
C565 C 0.2151 0.84988 0.6188 0.0
C566 C 0.24746 0.82931 0.59634 0.0
C567 C 0.23798 0.8063 0.60286 0.0
C568 C 0.21586 0.8055 0.61598 0.0
C569 C 0.20468 0.82702 0.62405 0.0
C570 C 0.26931 0.74526 0.61349 0.0
C571 C 0.28603 0.74447 0.59407 0.0
C572 C 0.2529 0.7647 0.61569 0.0
C573 C 0.25248 0.78363 0.59828 0.0
C574 C 0.26797 0.78172 0.57785 0.0
C575 C 0.28472 0.76252 0.5759 0.0
H576 H 0.90903 0.75014 0.86708 0.0
H577 H 0.88059 0.68943 0.82559 0.0
H578 H 0.92286 0.76935 0.82974 0.0
H579 H 0.89567 0.70798 0.78809 0.0
H580 H 0.8858 0.76761 0.72905 0.0
H581 H 0.88282 0.74004 0.76355 0.0
H582 H 0.94724 0.77294 0.79537 0.0
H583 H 0.94926 0.80149 0.76134 0.0
C584 C 0.90648 0.74048 0.85002 0.0
C585 C 0.89338 0.71845 0.84927 0.0
C586 C 0.91455 0.75147 0.82847 0.0
C587 C 0.91009 0.74048 0.80565 0.0
C588 C 0.89883 0.71737 0.80519 0.0
C589 C 0.89037 0.70659 0.82672 0.0
C590 C 0.89962 0.76863 0.74317 0.0
C591 C 0.91753 0.78697 0.74266 0.0
C592 C 0.89802 0.75267 0.763 0.0
C593 C 0.91457 0.75438 0.78262 0.0
C594 C 0.93373 0.77147 0.78102 0.0
C595 C 0.93503 0.78774 0.7614 0.0
H596 H 0.5609 0.20707 0.26235 0.0
H597 H 0.62394 0.23917 0.22751 0.0
H598 H 0.5646 0.23609 0.29585 0.0
H599 H 0.62853 0.26725 0.26145 0.0
H600 H 0.60521 0.25965 0.36595 0.0
H601 H 0.59036 0.23972 0.32936 0.0
H602 H 0.61675 0.30006 0.28578 0.0
H603 H 0.63277 0.31939 0.32251 0.0
C604 C 0.57538 0.22053 0.26172 0.0
C605 C 0.59228 0.22065 0.24242 0.0
C606 C 0.57765 0.23707 0.28104 0.0
C607 C 0.59717 0.2538 0.28175 0.0
C608 C 0.6131 0.25489 0.26159 0.0
C609 C 0.61056 0.23864 0.24207 0.0
C610 C 0.60742 0.26893 0.34863 0.0
C611 C 0.62049 0.29094 0.34712 0.0
C612 C 0.59875 0.25752 0.32752 0.0
C613 C 0.6026 0.26804 0.30437 0.0
C614 C 0.614 0.29105 0.30315 0.0
C615 C 0.62302 0.30226 0.32425 0.0
H616 H 0.37098 0.73375 0.27687 0.0
H617 H 0.44228 0.71248 0.25075 0.0
H618 H 0.36707 0.76231 0.2432 0.0
H619 H 0.43906 0.74204 0.2177 0.0
H620 H 0.40571 0.76233 0.14297 0.0
H621 H 0.41794 0.74321 0.18093 0.0
H622 H 0.37723 0.79746 0.22141 0.0
H623 H 0.36399 0.81585 0.18313 0.0
C624 C 0.38618 0.73578 0.26438 0.0
C625 C 0.40677 0.72061 0.26626 0.0
C626 C 0.38401 0.75229 0.24503 0.0
C627 C 0.40258 0.75431 0.22733 0.0
C628 C 0.42406 0.74053 0.2305 0.0
C629 C 0.42603 0.72371 0.24959 0.0
C630 C 0.39977 0.7705 0.15997 0.0
C631 C 0.3836 0.79041 0.15999 0.0
C632 C 0.4069 0.75958 0.18188 0.0
C633 C 0.39835 0.76851 0.20443 0.0
C634 C 0.38369 0.78963 0.20445 0.0
C635 C 0.37625 0.80034 0.18248 0.0
H636 H 0.09049 0.24533 0.63182 0.0
H637 H 0.13968 0.20733 0.68039 0.0
H638 H 0.07332 0.26732 0.66654 0.0
H639 H 0.12367 0.23003 0.71462 0.0
H640 H 0.09063 0.26955 0.77624 0.0
H641 H 0.09382 0.24045 0.74271 0.0
H642 H 0.08595 0.29961 0.69101 0.0
H643 H 0.08141 0.3282 0.72439 0.0
C644 C 0.09744 0.24145 0.64991 0.0
C645 C 0.11668 0.22478 0.65323 0.0
C646 C 0.08775 0.25422 0.66984 0.0
C647 C 0.09733 0.25088 0.69349 0.0
C648 C 0.11551 0.23304 0.69688 0.0
C649 C 0.1249 0.22006 0.67708 0.0
C650 C 0.08908 0.2762 0.75769 0.0
C651 C 0.08604 0.30123 0.75301 0.0
C652 C 0.09109 0.25954 0.73841 0.0
C653 C 0.09058 0.26759 0.71398 0.0
C654 C 0.08615 0.29249 0.70944 0.0
C655 C 0.08373 0.30904 0.72868 0.0
H656 H 0.75852 0.94759 0.79211 0.0
H657 H 0.72878 0.87849 0.76849 0.0
H658 H 0.79198 0.94321 0.76314 0.0
H659 H 0.76269 0.87354 0.74027 0.0
H660 H 0.82323 0.86974 0.68691 0.0
H661 H 0.78553 0.88449 0.70539 0.0
H662 H 0.8275 0.919 0.76266 0.0
H663 H 0.86506 0.90508 0.74368 0.0
C664 C 0.75893 0.93162 0.78045 0.0
C665 C 0.74115 0.91324 0.7828 0.0
C666 C 0.77824 0.929 0.76396 0.0
C667 C 0.78042 0.90779 0.74965 0.0
C668 C 0.76163 0.89024 0.75079 0.0
C669 C 0.74213 0.89301 0.76708 0.0
C670 C 0.82441 0.88095 0.70315 0.0
C671 C 0.84717 0.886 0.71396 0.0
C672 C 0.80275 0.88926 0.71387 0.0
C673 C 0.80332 0.90264 0.73577 0.0
C674 C 0.82621 0.90899 0.74568 0.0
C675 C 0.84786 0.90088 0.73483 0.0
H676 H 0.68412 0.1455 0.20387 0.0
H677 H 0.63874 0.0893 0.23556 0.0
H678 H 0.71903 0.13015 0.22608 0.0
H679 H 0.67422 0.0729 0.25694 0.0
H680 H 0.7293 0.07965 0.32025 0.0
H681 H 0.69656 0.08444 0.29103 0.0
H682 H 0.74929 0.10185 0.23487 0.0
H683 H 0.78213 0.09832 0.26476 0.0
C684 C 0.68172 0.12937 0.21505 0.0
C685 C 0.65848 0.11889 0.21824 0.0
C686 C 0.70193 0.12039 0.22774 0.0
C687 C 0.69956 0.10042 0.24372 0.0
C688 C 0.67667 0.08873 0.24536 0.0
C689 C 0.65632 0.09798 0.23293 0.0
C690 C 0.73401 0.08415 0.30159 0.0
C691 C 0.75835 0.08897 0.29496 0.0
C692 C 0.71513 0.08671 0.28466 0.0
C693 C 0.72007 0.0938 0.26047 0.0
C694 C 0.74464 0.09696 0.25344 0.0
C695 C 0.76354 0.09478 0.27053 0.0
H696 H 0.32228 0.6202 0.31411 0.0
H697 H 0.36713 0.6023 0.25178 0.0
H698 H 0.28648 0.60424 0.29304 0.0
H699 H 0.33135 0.58743 0.23029 0.0
H700 H 0.26546 0.55724 0.19514 0.0
H701 H 0.29909 0.56002 0.22414 0.0
H702 H 0.26172 0.6188 0.26135 0.0
H703 H 0.22776 0.61518 0.2331 0.0
C704 C 0.32456 0.61252 0.29603 0.0
C705 C 0.34751 0.61278 0.28451 0.0
C706 C 0.30398 0.60355 0.28385 0.0
C707 C 0.3058 0.59494 0.25971 0.0
C708 C 0.32911 0.59366 0.2489 0.0
C709 C 0.34974 0.60232 0.26122 0.0
C710 C 0.26423 0.5704 0.20985 0.0
C711 C 0.24405 0.58618 0.21165 0.0
C712 C 0.28361 0.57212 0.2264 0.0
C713 C 0.28344 0.58991 0.24493 0.0
C714 C 0.26252 0.60467 0.24756 0.0
C715 C 0.243 0.6027 0.23122 0.0
H716 H 0.25118 0.44954 0.7136 0.0
H717 H 0.2787 0.38094 0.74088 0.0
H718 H 0.2173 0.44752 0.74236 0.0
H719 H 0.24419 0.37798 0.76849 0.0
H720 H 0.1428 0.41379 0.76267 0.0
H721 H 0.18109 0.42622 0.74438 0.0
H722 H 0.22069 0.389 0.80171 0.0
H723 H 0.18207 0.37532 0.81914 0.0
C724 C 0.2501 0.43414 0.72596 0.0
C725 C 0.26745 0.41528 0.72483 0.0
C726 C 0.23054 0.43284 0.74233 0.0
C727 C 0.22752 0.41233 0.75753 0.0
C728 C 0.24584 0.39423 0.75739 0.0
C729 C 0.26568 0.39582 0.7414 0.0
C730 C 0.15966 0.4087 0.77169 0.0
C731 C 0.1594 0.39328 0.79215 0.0
C732 C 0.18178 0.41595 0.76124 0.0
C733 C 0.20425 0.40835 0.77125 0.0
C734 C 0.20386 0.39464 0.793 0.0
C735 C 0.1817 0.38698 0.80317 0.0
H736 H 0.77201 0.73381 0.88793 0.0
H737 H 0.81053 0.77034 0.94625 0.0
H738 H 0.74461 0.76847 0.88426 0.0
H739 H 0.78243 0.80472 0.94331 0.0
H740 H 0.75647 0.87343 0.90086 0.0
H741 H 0.77727 0.83715 0.91561 0.0
H742 H 0.7133 0.7938 0.89927 0.0
H743 H 0.69289 0.83005 0.88353 0.0
C744 C 0.7742 0.74895 0.90046 0.0
C745 C 0.79368 0.74944 0.91714 0.0
C746 C 0.75836 0.76887 0.89845 0.0
C747 C 0.76142 0.78966 0.91329 0.0
C748 C 0.77985 0.78932 0.93118 0.0
C749 C 0.79587 0.76952 0.93299 0.0
C750 C 0.74663 0.85627 0.90092 0.0
C751 C 0.72317 0.85459 0.89069 0.0
C752 C 0.75855 0.83538 0.90949 0.0
C753 C 0.74715 0.81234 0.9083 0.0
C754 C 0.7229 0.81107 0.89988 0.0
C755 C 0.71111 0.83192 0.89104 0.0
H756 H 0.23411 0.63573 0.08211 0.0
H757 H 0.20113 0.67976 0.13865 0.0
H758 H 0.2547 0.67186 0.06615 0.0
H759 H 0.22251 0.71533 0.12367 0.0
H760 H 0.26031 0.77942 0.09332 0.0
H761 H 0.23086 0.74605 0.09552 0.0
H762 H 0.2884 0.69459 0.0787 0.0
H763 H 0.31724 0.72784 0.0753 0.0
C764 C 0.23099 0.65315 0.09095 0.0
C765 C 0.21625 0.65474 0.11188 0.0
C766 C 0.24296 0.67388 0.08193 0.0
C767 C 0.24074 0.69657 0.09386 0.0
C768 C 0.22461 0.69837 0.11376 0.0
C769 C 0.21241 0.67778 0.12253 0.0
C770 C 0.2665 0.76101 0.08958 0.0
C771 C 0.29121 0.7563 0.08446 0.0
C772 C 0.24965 0.74181 0.091 0.0
C773 C 0.25721 0.71743 0.08769 0.0
C774 C 0.28166 0.71301 0.08111 0.0
C775 C 0.29836 0.73218 0.07935 0.0
H776 H 0.2623 0.36746 0.60592 0.0
H777 H 0.32078 0.32381 0.63587 0.0
H778 H 0.24257 0.33078 0.59081 0.0
H779 H 0.30157 0.28702 0.61982 0.0
H780 H 0.21132 0.26354 0.56006 0.0
H781 H 0.24044 0.29683 0.56484 0.0
H782 H 0.26754 0.26336 0.63097 0.0
H783 H 0.23924 0.22964 0.62551 0.0
C784 C 0.27134 0.35008 0.60865 0.0
C785 C 0.29294 0.34856 0.62241 0.0
C786 C 0.26006 0.32894 0.59985 0.0
C787 C 0.27026 0.30574 0.60432 0.0
C788 C 0.29285 0.30445 0.61652 0.0
C789 C 0.30398 0.32559 0.62558 0.0
C790 C 0.22393 0.26303 0.5753 0.0
C791 C 0.22278 0.24408 0.59256 0.0
C792 C 0.24051 0.28224 0.57816 0.0
C793 C 0.25609 0.28316 0.59856 0.0
C794 C 0.25605 0.2633 0.6149 0.0
C795 C 0.23969 0.24391 0.61184 0.0
H796 H 0.74019 0.27711 0.38137 0.0
H797 H 0.70941 0.2473 0.44748 0.0
H798 H 0.76794 0.24267 0.37863 0.0
H799 H 0.73814 0.21338 0.44564 0.0
H800 H 0.81958 0.18125 0.37735 0.0
H801 H 0.80089 0.21916 0.39123 0.0
H802 H 0.74141 0.17788 0.42286 0.0
H803 H 0.76082 0.14018 0.41016 0.0
C804 C 0.7399 0.26357 0.39577 0.0
C805 C 0.72237 0.26475 0.41444 0.0
C806 C 0.75596 0.24376 0.39431 0.0
C807 C 0.75518 0.22485 0.41174 0.0
C808 C 0.73889 0.22715 0.43149 0.0
C809 C 0.72252 0.24672 0.43268 0.0
C810 C 0.80283 0.18031 0.38784 0.0
C811 C 0.79156 0.15772 0.39245 0.0
C812 C 0.79195 0.20208 0.39561 0.0
C813 C 0.76929 0.20181 0.40777 0.0
C814 C 0.75894 0.17903 0.41379 0.0
C815 C 0.77005 0.15726 0.4064 0.0
H816 H 0.13908 0.23904 0.50477 0.0
H817 H 0.11044 0.16781 0.52215 0.0
H818 H 0.13009 0.23257 0.46209 0.0
H819 H 0.09909 0.16188 0.47948 0.0
H820 H 0.10643 0.14718 0.3976 0.0
H821 H 0.11173 0.15307 0.4413 0.0
H822 H 0.10353 0.23113 0.43126 0.0
H823 H 0.10082 0.22496 0.38742 0.0
C824 C 0.13024 0.22215 0.49943 0.0
C825 C 0.12544 0.20393 0.51673 0.0
C826 C 0.12478 0.21846 0.47483 0.0
C827 C 0.11355 0.1967 0.46686 0.0
C828 C 0.10817 0.17868 0.48451 0.0
C829 C 0.11444 0.18211 0.50909 0.0
C830 C 0.10565 0.16553 0.40494 0.0
C831 C 0.10343 0.18564 0.38927 0.0
C832 C 0.10852 0.169 0.43009 0.0
C833 C 0.10845 0.19269 0.44025 0.0
C834 C 0.1047 0.21265 0.42439 0.0
C835 C 0.10277 0.20919 0.39919 0.0
H836 H 0.40067 0.77261 0.01499 0.0
H837 H 0.37622 0.84739 0.02115 0.0
H838 H 0.40851 0.77872 0.97164 0.0
H839 H 0.38435 0.85348 0.97763 0.0
H840 H 0.42015 0.8575 0.90044 0.0
H841 H 0.41924 0.85278 0.94496 0.0
H842 H 0.37789 0.78615 0.93693 0.0
H843 H 0.37847 0.79097 0.8927 0.0
C844 C 0.39738 0.7905 0.00722 0.0
C845 C 0.38763 0.80948 0.02151 0.0
C846 C 0.40178 0.79393 0.98236 0.0
C847 C 0.39684 0.8165 0.97126 0.0
C848 C 0.38841 0.83592 0.98576 0.0
C849 C 0.3837 0.8324 0.01064 0.0
C850 C 0.41106 0.84175 0.90822 0.0
C851 C 0.39935 0.82461 0.8931 0.0
C852 C 0.41045 0.83914 0.93366 0.0
C853 C 0.39856 0.81907 0.94436 0.0
C854 C 0.38741 0.80166 0.92917 0.0
C855 C 0.38763 0.80449 0.90386 0.0
H856 H 0.63287 0.34937 0.4846 0.0
H857 H 0.61223 0.27339 0.49 0.0
H858 H 0.62446 0.35461 0.52818 0.0
H859 H 0.604 0.27869 0.53335 0.0
H860 H 0.63389 0.29072 0.61195 0.0
H861 H 0.63419 0.28678 0.5677 0.0
H862 H 0.59042 0.35204 0.56135 0.0
H863 H 0.58987 0.35591 0.606 0.0
C864 C 0.62614 0.33393 0.49494 0.0
C865 C 0.62347 0.31091 0.48388 0.0
C866 C 0.62125 0.33696 0.51986 0.0
C867 C 0.61383 0.31698 0.53416 0.0
C868 C 0.60998 0.29432 0.52281 0.0
C869 C 0.61463 0.29134 0.49794 0.0
C870 C 0.62414 0.30414 0.60118 0.0
C871 C 0.61187 0.32363 0.61245 0.0
C872 C 0.6242 0.3018 0.57583 0.0
C873 C 0.61227 0.31907 0.56111 0.0
C874 C 0.59981 0.33851 0.57231 0.0
C875 C 0.5994 0.34064 0.5978 0.0
H876 H 0.88093 0.71287 0.11531 0.0
H877 H 0.92236 0.64642 0.10567 0.0
H878 H 0.88026 0.71888 0.07126 0.0
H879 H 0.92146 0.6524 0.06132 0.0
H880 H 0.87923 0.65948 0.98529 0.0
H881 H 0.8873 0.65238 0.02866 0.0
H882 H 0.91005 0.7274 0.03676 0.0
H883 H 0.90215 0.73455 0.9936 0.0
C884 C 0.89004 0.69962 0.10378 0.0
C885 C 0.90168 0.67916 0.11395 0.0
C886 C 0.88976 0.70314 0.07856 0.0
C887 C 0.90085 0.68612 0.06289 0.0
C888 C 0.9127 0.66574 0.07301 0.0
C889 C 0.91331 0.6624 0.09835 0.0
C890 C 0.88635 0.67434 0.99624 0.0
C891 C 0.88984 0.69763 0.98604 0.0
C892 C 0.89104 0.67024 0.02103 0.0
C893 C 0.89907 0.68942 0.03608 0.0
C894 C 0.90359 0.71237 0.02563 0.0
C895 C 0.89915 0.71641 1.00087 0.0
H896 H 0.40023 0.08439 0.15236 0.0
H897 H 0.39194 0.13124 0.21524 0.0
H898 H 0.44482 0.08622 0.15703 0.0
H899 H 0.43615 0.13281 0.21999 0.0
H900 H 0.51422 0.11242 0.23591 0.0
H901 H 0.47094 0.10378 0.2302 0.0
H902 H 0.47748 0.12069 0.15357 0.0
H903 H 0.52099 0.12953 0.15922 0.0
C904 C 0.4079 0.09483 0.1673 0.0
C905 C 0.3926 0.10769 0.18342 0.0
C906 C 0.43337 0.09598 0.16988 0.0
C907 C 0.44391 0.10959 0.18891 0.0
C908 C 0.42854 0.12195 0.20531 0.0
C909 C 0.40322 0.12115 0.2025 0.0
C910 C 0.50659 0.11399 0.21774 0.0
C911 C 0.52104 0.12188 0.19805 0.0
C912 C 0.48176 0.10912 0.21452 0.0
C913 C 0.47082 0.11177 0.1915 0.0
C914 C 0.48548 0.1184 0.1715 0.0
C915 C 0.51035 0.12354 0.17477 0.0
H916 H 0.98624 0.87709 0.65805 0.0
H917 H 0.99105 0.89738 0.73412 0.0
H918 H 0.02977 0.88618 0.65304 0.0
H919 H 0.03436 0.90627 0.72906 0.0
H920 H 0.11422 0.87954 0.71689 0.0
H921 H 0.06993 0.87773 0.72102 0.0
H922 H 0.06182 0.92079 0.65554 0.0
H923 H 0.10641 0.92283 0.65147 0.0
C924 C 0.99645 0.88385 0.67358 0.0
C925 C 0.98521 0.88632 0.69652 0.0
C926 C 0.02134 0.88912 0.67068 0.0
C927 C 0.03548 0.8967 0.69073 0.0
C928 C 0.02398 0.90018 0.71337 0.0
C929 C 0.99912 0.89517 0.71621 0.0
C930 C 0.10304 0.88883 0.70348 0.0
C931 C 0.11382 0.90133 0.68385 0.0
C932 C 0.07766 0.88789 0.70591 0.0
C933 C 0.06242 0.89915 0.68861 0.0
C934 C 0.07315 0.91187 0.66908 0.0
C935 C 0.09863 0.91314 0.66684 0.0
H936 H 0.01585 0.41852 0.79044 0.0
H937 H 0.02095 0.36205 0.84528 0.0
H938 H 0.97248 0.42379 0.79999 0.0
H939 H 0.9776 0.36717 0.85448 0.0
H940 H 0.89634 0.35745 0.82933 0.0
H941 H 0.94073 0.35723 0.82595 0.0
H942 H 0.94215 0.43534 0.8362 0.0
H943 H 0.89741 0.43558 0.84009 0.0
C944 C 0.00783 0.40754 0.80479 0.0
C945 C 0.02178 0.38974 0.81697 0.0
C946 C 0.98305 0.41063 0.8103 0.0
C947 C 0.97172 0.39574 0.82781 0.0
C948 C 0.9859 0.37875 0.84076 0.0
C949 C 0.01073 0.37591 0.83554 0.0
C950 C 0.90607 0.3746 0.83096 0.0
C951 C 0.8934 0.39655 0.83492 0.0
C952 C 0.93149 0.37442 0.8292 0.0
C953 C 0.94483 0.39624 0.83096 0.0
C954 C 0.93224 0.41828 0.83481 0.0
C955 C 0.90672 0.41839 0.83707 0.0
H956 H 0.48358 0.62965 0.34528 0.0
H957 H 0.48914 0.61272 0.26845 0.0
H958 H 0.52718 0.62092 0.3502 0.0
H959 H 0.53245 0.60398 0.27344 0.0
H960 H 0.6118 0.63001 0.28611 0.0
H961 H 0.56757 0.63165 0.28214 0.0
H962 H 0.55985 0.58775 0.34712 0.0
H963 H 0.60446 0.58603 0.35114 0.0
C964 C 0.49398 0.62371 0.32955 0.0
C965 C 0.48293 0.62213 0.30643 0.0
C966 C 0.51892 0.61862 0.33239 0.0
C967 C 0.53326 0.61202 0.31214 0.0
C968 C 0.52193 0.60938 0.2893 0.0
C969 C 0.49707 0.61431 0.28649 0.0
C970 C 0.60073 0.62051 0.29947 0.0
C971 C 0.61164 0.60789 0.31894 0.0
C972 C 0.57537 0.62134 0.29711 0.0
C973 C 0.56023 0.60978 0.31429 0.0
C974 C 0.57108 0.59693 0.33368 0.0
C975 C 0.59658 0.59583 0.33588 0.0
H976 H 0.21202 0.38843 0.12717 0.0
H977 H 0.14855 0.39578 0.08089 0.0
H978 H 0.21711 0.43262 0.12735 0.0
H979 H 0.15353 0.44035 0.08138 0.0
H980 H 0.15733 0.51758 0.12332 0.0
H981 H 0.151 0.47396 0.1156 0.0
H982 H 0.22707 0.46633 0.09637 0.0
H983 H 0.23344 0.50972 0.10383 0.0
C984 C 0.19921 0.39949 0.11694 0.0
C985 C 0.17989 0.38864 0.10402 0.0
C986 C 0.20221 0.42479 0.11694 0.0
C987 C 0.18575 0.43988 0.10432 0.0
C988 C 0.16643 0.4291 0.09129 0.0
C989 C 0.16367 0.40365 0.09093 0.0
C990 C 0.17259 0.50667 0.11702 0.0
C991 C 0.19593 0.51708 0.11439 0.0
C992 C 0.16893 0.48175 0.11253 0.0
C993 C 0.18861 0.46678 0.10562 0.0
C994 C 0.21165 0.47742 0.10193 0.0
C995 C 0.21524 0.5023 0.10613 0.0
H996 H 0.73749 1.00229 0.86616 0.0
H997 H 0.66691 0.98471 0.89634 0.0
H998 H 0.73123 0.04494 0.87554 0.0
H999 H 0.66123 0.02735 0.90801 0.0
H1000 H 0.64629 0.10925 0.90092 0.0
H1001 H 0.65212 0.06556 0.89541 0.0
H1002 H 0.73034 0.07561 0.90242 0.0
H1003 H 0.72421 0.11947 0.90541 0.0
C1004 C 0.72081 0.00758 0.8754 0.0
C1005 C 0.70268 0.99024 0.88053 0.0
C1006 C 0.71724 0.03215 0.88108 0.0
C1007 C 0.69573 0.04004 0.89283 0.0
C1008 C 0.67783 0.02237 0.89854 0.0
C1009 C 0.68111 0.99781 0.89208 0.0
C1010 C 0.66467 0.10193 0.9014 0.0
C1011 C 0.68482 0.11761 0.90336 0.0
C1012 C 0.66811 0.07678 0.89841 0.0
C1013 C 0.6918 0.06664 0.89809 0.0
C1014 C 0.71184 0.08249 0.90158 0.0
C1015 C 0.7084 0.1077 0.90365 0.0
H1016 H 0.78928 0.01429 0.4118 0.0
H1017 H 0.84723 0.0202 0.35859 0.0
H1018 H 0.79819 0.97077 0.41657 0.0
H1019 H 0.85581 0.97666 0.36316 0.0
H1020 H 0.83086 0.89565 0.35065 0.0
H1021 H 0.82792 0.94005 0.35098 0.0
H1022 H 0.83331 0.94007 0.42955 0.0
H1023 H 0.83675 0.89534 0.42927 0.0
C1024 C 0.80416 0.0064 0.40143 0.0
C1025 C 0.81745 0.02064 0.3847 0.0
C1026 C 0.8093 0.98153 0.40424 0.0
C1027 C 0.82754 0.97037 0.39009 0.0
C1028 C 0.84152 0.98481 0.37415 0.0
C1029 C 0.83667 0.00975 0.37163 0.0
C1030 C 0.83152 0.90508 0.36802 0.0
C1031 C 0.83398 0.89201 0.38995 0.0
C1032 C 0.83002 0.93051 0.36818 0.0
C1033 C 0.83052 0.94346 0.39028 0.0
C1034 C 0.83289 0.93047 0.41227 0.0
C1035 C 0.8349 0.90495 0.41209 0.0
H1036 H 0.27311 0.4925 0.61776 0.0
H1037 H 0.35037 0.48636 0.63283 0.0
H1038 H 0.27812 0.53593 0.60962 0.0
H1039 H 0.35533 0.53002 0.62442 0.0
H1040 H 0.35439 0.60747 0.58828 0.0
H1041 H 0.35028 0.56287 0.59002 0.0
H1042 H 0.28907 0.57056 0.63909 0.0
H1043 H 0.29331 0.61483 0.63765 0.0
C1044 C 0.29125 0.5003 0.61896 0.0
C1045 C 0.31132 0.48597 0.62614 0.0
C1046 C 0.29407 0.52522 0.61438 0.0
C1047 C 0.31706 0.53636 0.61659 0.0
C1048 C 0.33741 0.52185 0.62249 0.0
C1049 C 0.33455 0.4969 0.62737 0.0
C1050 C 0.33996 0.59959 0.59928 0.0
C1051 C 0.32417 0.61464 0.61285 0.0
C1052 C 0.33771 0.57411 0.60036 0.0
C1053 C 0.31932 0.56329 0.61462 0.0
C1054 C 0.30326 0.5784 0.62774 0.0
C1055 C 0.30576 0.60375 0.627 0.0
H1056 H 0.87825 0.8445 0.48339 0.0
H1057 H 0.89176 0.76714 0.49109 0.0
H1058 H 0.88718 0.85024 0.52681 0.0
H1059 H 0.90069 0.77295 0.5342 0.0
H1060 H 0.92215 0.85139 0.60415 0.0
H1061 H 0.92043 0.84632 0.55967 0.0
H1062 H 0.8729 0.78406 0.56875 0.0
H1063 H 0.8745 0.7891 0.61281 0.0
C1064 C 0.88348 0.82881 0.49422 0.0
C1065 C 0.88403 0.80533 0.48384 0.0
C1066 C 0.88869 0.83212 0.51904 0.0
C1067 C 0.89438 0.81199 0.53392 0.0
C1068 C 0.89602 0.78874 0.52325 0.0
C1069 C 0.89097 0.78545 0.49851 0.0
C1070 C 0.91155 0.8365 0.59659 0.0
C1071 C 0.89844 0.82065 0.61196 0.0
C1072 C 0.91046 0.8337 0.57118 0.0
C1073 C 0.8966 0.81476 0.56077 0.0
C1074 C 0.88398 0.79864 0.57623 0.0
C1075 C 0.8848 0.80162 0.60149 0.0
H1076 H 0.58806 0.2158 0.98751 0.0
H1077 H 0.647 0.16329 0.98699 0.0
H1078 H 0.5822 0.20865 0.03126 0.0
H1079 H 0.64132 0.15657 0.03064 0.0
H1080 H 0.6486 0.18785 0.10989 0.0
H1081 H 0.6491 0.18931 0.06546 0.0
H1082 H 0.57211 0.17248 0.06373 0.0
H1083 H 0.57161 0.17045 0.10856 0.0
C1084 C 0.59945 0.20243 0.9966 0.0
C1085 C 0.61811 0.19025 0.98383 0.0
C1086 C 0.59603 0.19832 0.02159 0.0
C1087 C 0.61147 0.18225 0.03427 0.0
C1088 C 0.62931 0.16919 0.02127 0.0
C1089 C 0.63247 0.17299 0.99627 0.0
C1090 C 0.63174 0.18445 0.10011 0.0
C1091 C 0.61005 0.17906 0.11271 0.0
C1092 C 0.63209 0.18511 0.07467 0.0
C1093 C 0.61069 0.18083 0.06124 0.0
C1094 C 0.58885 0.1758 0.07374 0.0
C1095 C 0.58859 0.17462 0.09931 0.0
H1096 H 0.34918 0.67799 0.39617 0.0
H1097 H 0.42791 0.6727 0.39773 0.0
H1098 H 0.3484 0.68071 0.44058 0.0
H1099 H 0.42708 0.67605 0.44247 0.0
H1100 H 0.40544 0.72073 0.51601 0.0
H1101 H 0.41171 0.71199 0.47265 0.0
H1102 H 0.36111 0.65178 0.47742 0.0
H1103 H 0.35514 0.66012 0.52087 0.0
C1104 C 0.36634 0.67746 0.40601 0.0
C1105 C 0.38862 0.67522 0.39348 0.0
C1106 C 0.36585 0.67882 0.43143 0.0
C1107 C 0.38766 0.67845 0.44489 0.0
C1108 C 0.41002 0.67633 0.43245 0.0
C1109 C 0.41048 0.67441 0.40693 0.0
C1110 C 0.39603 0.70532 0.50792 0.0
C1111 C 0.37969 0.69119 0.5218 0.0
C1112 C 0.39971 0.70029 0.48316 0.0
C1113 C 0.38677 0.68133 0.47175 0.0
C1114 C 0.37121 0.66658 0.48582 0.0
C1115 C 0.36789 0.6713 0.51068 0.0
H1116 H 0.10998 0.26758 0.0083 0.0
H1117 H 0.12844 0.34383 0.01682 0.0
H1118 H 0.10149 0.27441 0.96519 0.0
H1119 H 0.11983 0.35061 0.97352 0.0
H1120 H 0.08361 0.35565 0.89734 0.0
H1121 H 0.08573 0.34924 0.94155 0.0
H1122 H 0.12929 0.28455 0.92998 0.0
H1123 H 0.12733 0.29097 0.88601 0.0
C1124 C 0.11192 0.28589 1.00107 0.0
C1125 C 0.12006 0.30514 0.01598 0.0
C1126 C 0.10715 0.28974 0.97634 0.0
C1127 C 0.11019 0.31299 0.96596 0.0
C1128 C 0.11721 0.33252 0.98106 0.0
C1129 C 0.12222 0.32862 0.00582 0.0
C1130 C 0.09343 0.33994 0.90426 0.0
C1131 C 0.10533 0.32382 0.8882 0.0
C1132 C 0.09475 0.33637 0.92954 0.0
C1133 C 0.10766 0.3164 0.93919 0.0
C1134 C 0.119 0.29997 0.92307 0.0
C1135 C 0.11797 0.30371 0.89788 0.0
H1136 H 0.60914 0.93477 0.83277 0.0
H1137 H 0.6113 0.85625 0.82555 0.0
H1138 H 0.56429 0.93358 0.83038 0.0
H1139 H 0.56682 0.85512 0.82371 0.0
H1140 H 0.48717 0.85992 0.84639 0.0
H1141 H 0.5308 0.86615 0.85354 0.0
H1142 H 0.53291 0.91938 0.79555 0.0
H1143 H 0.4893 0.91291 0.78803 0.0
C1144 C 0.60006 0.91731 0.83081 0.0
C1145 C 0.61371 0.89561 0.82924 0.0
C1146 C 0.57447 0.91665 0.82942 0.0
C1147 C 0.56217 0.89424 0.82706 0.0
C1148 C 0.57585 0.8726 0.82582 0.0
C1149 C 0.60131 0.87329 0.82668 0.0
C1150 C 0.4968 0.87329 0.83545 0.0
C1151 C 0.48483 0.88579 0.81652 0.0
C1152 C 0.52178 0.87676 0.83949 0.0
C1153 C 0.53519 0.89312 0.82498 0.0
C1154 C 0.52295 0.90674 0.80705 0.0
C1155 C 0.49803 0.90296 0.80271 0.0
H1156 H 0.89803 0.0715 0.3368 0.0
H1157 H 0.89336 0.1472 0.31513 0.0
H1158 H 0.94279 0.07353 0.33371 0.0
H1159 H 0.93781 0.14927 0.31267 0.0
H1160 H 0.01684 0.15054 0.34032 0.0
H1161 H 0.97305 0.14429 0.34623 0.0
H1162 H 0.97481 0.08316 0.29662 0.0
H1163 H 0.01866 0.08964 0.29021 0.0
C1164 C 0.90654 0.08851 0.33137 0.0
C1165 C 0.8922 0.10917 0.32614 0.0
C1166 C 0.93207 0.08964 0.3296 0.0
C1167 C 0.94365 0.11161 0.32317 0.0
C1168 C 0.92931 0.13219 0.31791 0.0
C1169 C 0.90387 0.13093 0.31915 0.0
C1170 C 0.00802 0.1355 0.33098 0.0
C1171 C 0.02118 0.12066 0.31469 0.0
C1172 C 0.98295 0.13203 0.33428 0.0
C1173 C 0.97061 0.11337 0.32174 0.0
C1174 C 0.98396 0.09763 0.30653 0.0
C1175 C 0.009 0.10139 0.30285 0.0
H1176 H 0.11051 0.64381 0.18252 0.0
H1177 H 0.10839 0.56673 0.16589 0.0
H1178 H 0.06604 0.64458 0.18493 0.0
H1179 H 0.06355 0.56748 0.16898 0.0
H1180 H 0.98869 0.58523 0.21493 0.0
H1181 H 0.03228 0.57901 0.20682 0.0
H1182 H 0.03023 0.63574 0.15228 0.0
H1183 H 0.98665 0.6417 0.15989 0.0
C1184 C 0.10055 0.62699 0.17951 0.0
C1185 C 0.11293 0.60519 0.17406 0.0
C1186 C 0.0751 0.62749 0.18072 0.0
C1187 C 0.06146 0.60613 0.17698 0.0
C1188 C 0.07374 0.58418 0.17188 0.0
C1189 C 0.0993 0.58378 0.17011 0.0
C1190 C 0.99742 0.596 0.20083 0.0
C1191 C 0.98428 0.61406 0.18815 0.0
C1192 C 0.02231 0.59237 0.19617 0.0
C1193 C 0.03453 0.60704 0.17908 0.0
C1194 C 0.02118 0.6243 0.16563 0.0
C1195 C 0.99624 0.62762 0.16995 0.0
H1196 H 0.40339 0.42092 0.65446 0.0
H1197 H 0.39781 0.37576 0.71884 0.0
H1198 H 0.44813 0.42002 0.65786 0.0
H1199 H 0.44217 0.37516 0.72234 0.0
H1200 H 0.52033 0.39682 0.73511 0.0
H1201 H 0.47691 0.40533 0.73045 0.0
H1202 H 0.48095 0.38533 0.65438 0.0
H1203 H 0.5246 0.37659 0.65899 0.0
C1204 C 0.41169 0.41109 0.66947 0.0
C1205 C 0.39713 0.39838 0.68637 0.0
C1206 C 0.43724 0.41048 0.67132 0.0
C1207 C 0.44857 0.39759 0.6904 0.0
C1208 C 0.43393 0.38546 0.7076 0.0
C1209 C 0.40853 0.38571 0.70552 0.0
C1210 C 0.51213 0.39457 0.71727 0.0
C1211 C 0.5259 0.38578 0.69746 0.0
C1212 C 0.48722 0.39938 0.71465 0.0
C1213 C 0.47555 0.39578 0.69213 0.0
C1214 C 0.48954 0.38836 0.67193 0.0
C1215 C 0.51448 0.38328 0.6746 0.0
H1216 H 0.79342 0.61843 0.87537 0.0
H1217 H 0.85539 0.60946 0.92336 0.0
H1218 H 0.78765 0.57437 0.87444 0.0
H1219 H 0.84964 0.56503 0.92226 0.0
H1220 H 0.84678 0.48812 0.88119 0.0
H1221 H 0.85312 0.53168 0.88912 0.0
H1222 H 0.77601 0.54032 0.90319 0.0
H1223 H 0.76961 0.49702 0.89538 0.0
C1224 C 0.80572 0.60705 0.88587 0.0
C1225 C 0.82486 0.61743 0.89944 0.0
C1226 C 0.80234 0.5818 0.88543 0.0
C1227 C 0.81817 0.56627 0.89832 0.0
C1228 C 0.83723 0.57659 0.91208 0.0
C1229 C 0.84042 0.60198 0.91282 0.0
C1230 C 0.83125 0.49925 0.88634 0.0
C1231 C 0.80766 0.48913 0.88744 0.0
C1232 C 0.83491 0.52415 0.89097 0.0
C1233 C 0.81501 0.5394 0.89655 0.0
C1234 C 0.79163 0.52905 0.89864 0.0
C1235 C 0.78801 0.50421 0.89424 0.0
H1236 H 0.2865 0.88928 0.12549 0.0
H1237 H 0.35362 0.89759 0.08486 0.0
H1238 H 0.28237 0.93348 0.12783 0.0
H1239 H 0.34949 0.94212 0.08736 0.0
H1240 H 0.34584 0.01702 0.13154 0.0
H1241 H 0.35097 0.97365 0.12199 0.0
H1242 H 0.27527 0.96946 0.10031 0.0
H1243 H 0.27007 0.01259 0.10977 0.0
C1244 C 0.30027 0.90056 0.11686 0.0
C1245 C 0.32039 0.88994 0.105 0.0
C1246 C 0.29784 0.9259 0.1181 0.0
C1247 C 0.3156 0.94126 0.10776 0.0
C1248 C 0.3356 0.9307 0.09559 0.0
C1249 C 0.33786 0.90525 0.09404 0.0
C1250 C 0.3304 0.00692 0.12439 0.0
C1251 C 0.3075 0.01822 0.12162 0.0
C1252 C 0.33337 0.98212 0.11883 0.0
C1253 C 0.31345 0.96814 0.11062 0.0
C1254 C 0.29086 0.97971 0.1069 0.0
C1255 C 0.28794 0.00447 0.11224 0.0
H1256 H 0.16119 0.98997 0.64928 0.0
H1257 H 0.21832 0.99143 0.59489 0.0
H1258 H 0.1539 0.03351 0.64272 0.0
H1259 H 0.21063 0.03494 0.58808 0.0
H1260 H 0.17272 0.11079 0.57253 0.0
H1261 H 0.17518 0.066 0.57432 0.0
H1262 H 0.18414 0.06973 0.65246 0.0
H1263 H 0.18226 0.11416 0.65071 0.0
C1264 C 0.17182 0.99944 0.63555 0.0
C1265 C 0.19046 0.98731 0.62272 0.0
C1266 C 0.1677 0.02436 0.63189 0.0
C1267 C 0.18181 0.03755 0.61501 0.0
C1268 C 0.19945 0.02515 0.60113 0.0
C1269 C 0.20388 1.00029 0.6051 0.0
C1270 C 0.1752 0.10199 0.59005 0.0
C1271 C 0.17741 0.11597 0.61146 0.0
C1272 C 0.17663 0.07643 0.59106 0.0
C1273 C 0.17966 0.06448 0.61355 0.0
C1274 C 0.18152 0.07848 0.63493 0.0
C1275 C 0.18063 0.10392 0.63387 0.0
H1276 H 0.71754 0.39585 0.37565 0.0
H1277 H 0.65195 0.40088 0.4192 0.0
H1278 H 0.72082 0.44023 0.37538 0.0
H1279 H 0.6551 0.44561 0.41857 0.0
H1280 H 0.65692 0.52207 0.37498 0.0
H1281 H 0.65237 0.47841 0.38358 0.0
H1282 H 0.72781 0.47499 0.40617 0.0
H1283 H 0.7324 0.51845 0.39786 0.0
C1284 C 0.7039 0.40645 0.38531 0.0
C1285 C 0.68449 0.39489 0.39744 0.0
C1286 C 0.70586 0.43186 0.38525 0.0
C1287 C 0.68824 0.44633 0.397 0.0
C1288 C 0.66889 0.43484 0.40934 0.0
C1289 C 0.66718 0.4093 0.40979 0.0
C1290 C 0.67239 0.5121 0.38224 0.0
C1291 C 0.69508 0.5237 0.38553 0.0
C1292 C 0.66975 0.48715 0.38723 0.0
C1293 C 0.68981 0.47332 0.39531 0.0
C1294 C 0.71212 0.48518 0.39971 0.0
C1295 C 0.71469 0.51011 0.39503 0.0
loop_
_geom_bond_atom_site_label_1
_geom_bond_atom_site_label_2
_geom_bond_distance
_geom_bond_site_symmetry_2
_ccdc_geom_bond_type
O0 Cd1 2.223 . S
O0 C8 1.315 . S
Cd1 O0 2.223 . S
Cd1 O4 2.297 . S
Cd1 O5 2.439 . S
Cd1 O11 2.240 . S
Cd2 O3 2.240 . S
Cd2 O10 2.223 . S
Cd2 O12 2.297 . S
Cd2 O13 2.439 . S
O3 Cd2 2.240 . S
O3 C8 1.279 . S
O4 Cd1 2.297 . S
O4 C6 1.247 . S
O5 Cd1 2.439 . S
O5 C6 1.208 . S
C6 O4 1.247 . S
C6 O5 1.208 . S
C7 O12 1.247 . S
C7 O13 1.208 . S
C8 O0 1.315 . S
C8 O3 1.279 . S
C9 O10 1.315 . S
C9 O11 1.279 . S
O10 Cd2 2.223 . S
O10 C9 1.315 . S
O11 Cd1 2.240 . S
O11 C9 1.279 . S
O12 Cd2 2.297 . S
O12 C7 1.247 . S
O13 Cd2 2.439 . S
O13 C7 1.208 . S
O14 Cd15 2.223 . S
O14 C22 1.315 . S
Cd15 O14 2.223 . S
Cd15 O18 2.297 . S
Cd15 O19 2.439 . S
Cd15 O25 2.240 . S
Cd16 O17 2.240 . S
Cd16 O24 2.223 . S
Cd16 O26 2.297 . S
Cd16 O27 2.439 . S
O17 Cd16 2.240 . S
O17 C22 1.279 . S
O18 Cd15 2.297 . S
O18 C20 1.247 . S
O19 Cd15 2.439 . S
O19 C20 1.208 . S
C20 O18 1.247 . S
C20 O19 1.208 . S
C21 O26 1.247 . S
C21 O27 1.208 . S
C22 O14 1.315 . S
C22 O17 1.279 . S
C23 O24 1.315 . S
C23 O25 1.279 . S
O24 Cd16 2.223 . S
O24 C23 1.315 . S
O25 Cd15 2.240 . S
O25 C23 1.279 . S
O26 Cd16 2.297 . S
O26 C21 1.247 . S
O27 Cd16 2.439 . S
O27 C21 1.208 . S
O28 Cd29 2.223 . S
O28 C36 1.315 . S
Cd29 O28 2.223 . S
Cd29 O32 2.297 . S
Cd29 O33 2.439 . S
Cd29 O39 2.240 . S
Cd30 O31 2.240 . S
Cd30 O38 2.223 . S
Cd30 O40 2.297 . S
Cd30 O41 2.439 . S
O31 Cd30 2.240 . S
O31 C36 1.279 . S
O32 Cd29 2.297 . S
O32 C34 1.247 . S
O33 Cd29 2.439 . S
O33 C34 1.208 . S
C34 O32 1.247 . S
C34 O33 1.208 . S
C35 O40 1.247 . S
C35 O41 1.208 . S
C36 O28 1.315 . S
C36 O31 1.279 . S
C37 O38 1.315 . S
C37 O39 1.279 . S
O38 Cd30 2.223 . S
O38 C37 1.315 . S
O39 Cd29 2.240 . S
O39 C37 1.279 . S
O40 Cd30 2.297 . S
O40 C35 1.247 . S
O41 Cd30 2.439 . S
O41 C35 1.208 . S
O42 Cd43 2.223 . S
O42 C50 1.315 . S
Cd43 O42 2.223 . S
Cd43 O46 2.297 . S
Cd43 O47 2.439 . S
Cd43 O53 2.240 . S
Cd44 O45 2.240 . S
Cd44 O52 2.223 . S
Cd44 O54 2.297 . S
Cd44 O55 2.439 . S
O45 Cd44 2.240 . S
O45 C50 1.279 . S
O46 Cd43 2.297 . S
O46 C48 1.247 . S
O47 Cd43 2.439 . S
O47 C48 1.208 . S
C48 O46 1.247 . S
C48 O47 1.208 . S
C49 O54 1.247 . S
C49 O55 1.208 . S
C50 O42 1.315 . S
C50 O45 1.279 . S
C51 O52 1.315 . S
C51 O53 1.279 . S
O52 Cd44 2.223 . S
O52 C51 1.315 . S
O53 Cd43 2.240 . S
O53 C51 1.279 . S
O54 Cd44 2.297 . S
O54 C49 1.247 . S
O55 Cd44 2.439 . S
O55 C49 1.208 . S
O56 Cd57 2.223 . S
O56 C64 1.315 . S
Cd57 O56 2.223 . S
Cd57 O60 2.297 . S
Cd57 O61 2.439 . S
Cd57 O67 2.240 . S
Cd58 O59 2.240 . S
Cd58 O66 2.223 . S
Cd58 O68 2.297 . S
Cd58 O69 2.439 . S
O59 Cd58 2.240 . S
O59 C64 1.279 . S
O60 Cd57 2.297 . S
O60 C62 1.247 . S
O61 Cd57 2.439 . S
O61 C62 1.208 . S
C62 O60 1.247 . S
C62 O61 1.208 . S
C63 O68 1.247 . S
C63 O69 1.208 . S
C64 O56 1.315 . S
C64 O59 1.279 . S
C65 O66 1.315 . S
C65 O67 1.279 . S
O66 Cd58 2.223 . S
O66 C65 1.315 . S
O67 Cd57 2.240 . S
O67 C65 1.279 . S
O68 Cd58 2.297 . S
O68 C63 1.247 . S
O69 Cd58 2.439 . S
O69 C63 1.208 . S
O70 Cd71 2.223 . S
O70 C78 1.315 . S
Cd71 O70 2.223 . S
Cd71 O74 2.297 . S
Cd71 O75 2.439 . S
Cd71 O81 2.240 . S
Cd72 O73 2.240 . S
Cd72 O80 2.223 . S
Cd72 O82 2.297 . S
Cd72 O83 2.439 . S
O73 Cd72 2.240 . S
O73 C78 1.279 . S
O74 Cd71 2.297 . S
O74 C76 1.247 . S
O75 Cd71 2.439 . S
O75 C76 1.208 . S
C76 O74 1.247 . S
C76 O75 1.208 . S
C77 O82 1.247 . S
C77 O83 1.208 . S
C78 O70 1.315 . S
C78 O73 1.279 . S
C79 O80 1.315 . S
C79 O81 1.279 . S
O80 Cd72 2.223 . S
O80 C79 1.315 . S
O81 Cd71 2.240 . S
O81 C79 1.279 . S
O82 Cd72 2.297 . S
O82 C77 1.247 . S
O83 Cd72 2.439 . S
O83 C77 1.208 . S
O84 Cd85 2.223 . S
O84 C92 1.315 . S
Cd85 O84 2.223 . S
Cd85 O88 2.297 . S
Cd85 O89 2.439 . S
Cd85 O95 2.240 . S
Cd86 O87 2.240 . S
Cd86 O94 2.223 . S
Cd86 O96 2.297 . S
Cd86 O97 2.439 . S
O87 Cd86 2.240 . S
O87 C92 1.279 . S
O88 Cd85 2.297 . S
O88 C90 1.247 . S
O89 Cd85 2.439 . S
O89 C90 1.208 . S
C90 O88 1.247 . S
C90 O89 1.208 . S
C91 O96 1.247 . S
C91 O97 1.208 . S
C92 O84 1.315 . S
C92 O87 1.279 . S
C93 O94 1.315 . S
C93 O95 1.279 . S
O94 Cd86 2.223 . S
O94 C93 1.315 . S
O95 Cd85 2.240 . S
O95 C93 1.279 . S
O96 Cd86 2.297 . S
O96 C91 1.247 . S
O97 Cd86 2.439 . S
O97 C91 1.208 . S
O98 Cd99 2.223 . S
O98 C106 1.315 . S
Cd99 O98 2.223 . S
Cd99 O102 2.297 . S
Cd99 O103 2.439 . S
Cd99 O109 2.240 . S
Cd100 O101 2.240 . S
Cd100 O108 2.223 . S
Cd100 O110 2.297 . S
Cd100 O111 2.439 . S
O101 Cd100 2.240 . S
O101 C106 1.279 . S
O102 Cd99 2.297 . S
O102 C104 1.247 . S
O103 Cd99 2.439 . S
O103 C104 1.208 . S
C104 O102 1.247 . S
C104 O103 1.208 . S
C105 O110 1.247 . S
C105 O111 1.208 . S
C106 O98 1.315 . S
C106 O101 1.279 . S
C107 O108 1.315 . S
C107 O109 1.279 . S
O108 Cd100 2.223 . S
O108 C107 1.315 . S
O109 Cd99 2.240 . S
O109 C107 1.279 . S
O110 Cd100 2.297 . S
O110 C105 1.247 . S
O111 Cd100 2.439 . S
O111 C105 1.208 . S
O112 Cd113 2.223 . S
O112 C120 1.315 . S
Cd113 O112 2.223 . S
Cd113 O116 2.297 . S
Cd113 O117 2.439 . S
Cd113 O123 2.240 . S
Cd114 O115 2.240 . S
Cd114 O122 2.223 . S
Cd114 O124 2.297 . S
Cd114 O125 2.439 . S
O115 Cd114 2.240 . S
O115 C120 1.279 . S
O116 Cd113 2.297 . S
O116 C118 1.247 . S
O117 Cd113 2.439 . S
O117 C118 1.208 . S
C118 O116 1.247 . S
C118 O117 1.208 . S
C119 O124 1.247 . S
C119 O125 1.208 . S
C120 O112 1.315 . S
C120 O115 1.279 . S
C121 O122 1.315 . S
C121 O123 1.279 . S
O122 Cd114 2.223 . S
O122 C121 1.315 . S
O123 Cd113 2.240 . S
O123 C121 1.279 . S
O124 Cd114 2.297 . S
O124 C119 1.247 . S
O125 Cd114 2.439 . S
O125 C119 1.208 . S
O126 Cd127 2.223 . S
O126 C134 1.315 . S
Cd127 O126 2.223 . S
Cd127 O130 2.297 . S
Cd127 O131 2.439 . S
Cd127 O137 2.240 . S
Cd128 O129 2.240 . S
Cd128 O136 2.223 . S
Cd128 O138 2.297 . S
Cd128 O139 2.439 . S
O129 Cd128 2.240 . S
O129 C134 1.279 . S
O130 Cd127 2.297 . S
O130 C132 1.247 . S
O131 Cd127 2.439 . S
O131 C132 1.208 . S
C132 O130 1.247 . S
C132 O131 1.208 . S
C133 O138 1.247 . S
C133 O139 1.208 . S
C134 O126 1.315 . S
C134 O129 1.279 . S
C135 O136 1.315 . S
C135 O137 1.279 . S
O136 Cd128 2.223 . S
O136 C135 1.315 . S
O137 Cd127 2.240 . S
O137 C135 1.279 . S
O138 Cd128 2.297 . S
O138 C133 1.247 . S
O139 Cd128 2.439 . S
O139 C133 1.208 . S
O140 Cd141 2.223 . S
O140 C148 1.315 . S
Cd141 O140 2.223 . S
Cd141 O144 2.297 . S
Cd141 O145 2.439 . S
Cd141 O151 2.240 . S
Cd142 O143 2.240 . S
Cd142 O150 2.223 . S
Cd142 O152 2.297 . S
Cd142 O153 2.439 . S
O143 Cd142 2.240 . S
O143 C148 1.279 . S
O144 Cd141 2.297 . S
O144 C146 1.247 . S
O145 Cd141 2.439 . S
O145 C146 1.208 . S
C146 O144 1.247 . S
C146 O145 1.208 . S
C147 O152 1.247 . S
C147 O153 1.208 . S
C148 O140 1.315 . S
C148 O143 1.279 . S
C149 O150 1.315 . S
C149 O151 1.279 . S
O150 Cd142 2.223 . S
O150 C149 1.315 . S
O151 Cd141 2.240 . S
O151 C149 1.279 . S
O152 Cd142 2.297 . S
O152 C147 1.247 . S
O153 Cd142 2.439 . S
O153 C147 1.208 . S
O154 Cd155 2.223 . S
O154 C162 1.315 . S
Cd155 O154 2.223 . S
Cd155 O158 2.297 . S
Cd155 O159 2.439 . S
Cd155 O165 2.240 . S
Cd156 O157 2.240 . S
Cd156 O164 2.223 . S
Cd156 O166 2.297 . S
Cd156 O167 2.439 . S
O157 Cd156 2.240 . S
O157 C162 1.279 . S
O158 Cd155 2.297 . S
O158 C160 1.247 . S
O159 Cd155 2.439 . S
O159 C160 1.208 . S
C160 O158 1.247 . S
C160 O159 1.208 . S
C161 O166 1.247 . S
C161 O167 1.208 . S
C162 O154 1.315 . S
C162 O157 1.279 . S
C163 O164 1.315 . S
C163 O165 1.279 . S
O164 Cd156 2.223 . S
O164 C163 1.315 . S
O165 Cd155 2.240 . S
O165 C163 1.279 . S
O166 Cd156 2.297 . S
O166 C161 1.247 . S
O167 Cd156 2.439 . S
O167 C161 1.208 . S
O168 Cd169 2.223 . S
O168 C176 1.315 . S
Cd169 O168 2.223 . S
Cd169 O172 2.297 . S
Cd169 O173 2.439 . S
Cd169 O179 2.240 . S
Cd170 O171 2.240 . S
Cd170 O178 2.223 . S
Cd170 O180 2.297 . S
Cd170 O181 2.439 . S
O171 Cd170 2.240 . S
O171 C176 1.279 . S
O172 Cd169 2.297 . S
O172 C174 1.247 . S
O173 Cd169 2.439 . S
O173 C174 1.208 . S
C174 O172 1.247 . S
C174 O173 1.208 . S
C175 O180 1.247 . S
C175 O181 1.208 . S
C176 O168 1.315 . S
C176 O171 1.279 . S
C177 O178 1.315 . S
C177 O179 1.279 . S
O178 Cd170 2.223 . S
O178 C177 1.315 . S
O179 Cd169 2.240 . S
O179 C177 1.279 . S
O180 Cd170 2.297 . S
O180 C175 1.247 . S
O181 Cd170 2.439 . S
O181 C175 1.208 . S
O182 Cd183 2.223 . S
O182 C190 1.315 . S
Cd183 O182 2.223 . S
Cd183 O186 2.297 . S
Cd183 O187 2.439 . S
Cd183 O193 2.240 . S
Cd184 O185 2.240 . S
Cd184 O192 2.223 . S
Cd184 O194 2.297 . S
Cd184 O195 2.439 . S
O185 Cd184 2.240 . S
O185 C190 1.279 . S
O186 Cd183 2.297 . S
O186 C188 1.247 . S
O187 Cd183 2.439 . S
O187 C188 1.208 . S
C188 O186 1.247 . S
C188 O187 1.208 . S
C189 O194 1.247 . S
C189 O195 1.208 . S
C190 O182 1.315 . S
C190 O185 1.279 . S
C191 O192 1.315 . S
C191 O193 1.279 . S
O192 Cd184 2.223 . S
O192 C191 1.315 . S
O193 Cd183 2.240 . S
O193 C191 1.279 . S
O194 Cd184 2.297 . S
O194 C189 1.247 . S
O195 Cd184 2.439 . S
O195 C189 1.208 . S
O196 Cd197 2.223 . S
O196 C204 1.315 . S
Cd197 O196 2.223 . S
Cd197 O200 2.297 . S
Cd197 O201 2.439 . S
Cd197 O207 2.240 . S
Cd198 O199 2.240 . S
Cd198 O206 2.223 . S
Cd198 O208 2.297 . S
Cd198 O209 2.439 . S
O199 Cd198 2.240 . S
O199 C204 1.279 . S
O200 Cd197 2.297 . S
O200 C202 1.247 . S
O201 Cd197 2.439 . S
O201 C202 1.208 . S
C202 O200 1.247 . S
C202 O201 1.208 . S
C203 O208 1.247 . S
C203 O209 1.208 . S
C204 O196 1.315 . S
C204 O199 1.279 . S
C205 O206 1.315 . S
C205 O207 1.279 . S
O206 Cd198 2.223 . S
O206 C205 1.315 . S
O207 Cd197 2.240 . S
O207 C205 1.279 . S
O208 Cd198 2.297 . S
O208 C203 1.247 . S
O209 Cd198 2.439 . S
O209 C203 1.208 . S
O210 Cd211 2.223 . S
O210 C218 1.315 . S
Cd211 O210 2.223 . S
Cd211 O214 2.297 . S
Cd211 O215 2.439 . S
Cd211 O221 2.240 . S
Cd212 O213 2.240 . S
Cd212 O220 2.223 . S
Cd212 O222 2.297 . S
Cd212 O223 2.439 . S
O213 Cd212 2.240 . S
O213 C218 1.279 . S
O214 Cd211 2.297 . S
O214 C216 1.247 . S
O215 Cd211 2.439 . S
O215 C216 1.208 . S
C216 O214 1.247 . S
C216 O215 1.208 . S
C217 O222 1.247 . S
C217 O223 1.208 . S
C218 O210 1.315 . S
C218 O213 1.279 . S
C219 O220 1.315 . S
C219 O221 1.279 . S
O220 Cd212 2.223 . S
O220 C219 1.315 . S
O221 Cd211 2.240 . S
O221 C219 1.279 . S
O222 Cd212 2.297 . S
O222 C217 1.247 . S
O223 Cd212 2.439 . S
O223 C217 1.208 . S
O224 Cd225 2.223 . S
O224 C232 1.315 . S
Cd225 O224 2.223 . S
Cd225 O228 2.297 . S
Cd225 O229 2.439 . S
Cd225 O235 2.240 . S
Cd226 O227 2.240 . S
Cd226 O234 2.223 . S
Cd226 O236 2.297 . S
Cd226 O237 2.439 . S
O227 Cd226 2.240 . S
O227 C232 1.279 . S
O228 Cd225 2.297 . S
O228 C230 1.247 . S
O229 Cd225 2.439 . S
O229 C230 1.208 . S
C230 O228 1.247 . S
C230 O229 1.208 . S
C231 O236 1.247 . S
C231 O237 1.208 . S
C232 O224 1.315 . S
C232 O227 1.279 . S
C233 O234 1.315 . S
C233 O235 1.279 . S
O234 Cd226 2.223 . S
O234 C233 1.315 . S
O235 Cd225 2.240 . S
O235 C233 1.279 . S
O236 Cd226 2.297 . S
O236 C231 1.247 . S
O237 Cd226 2.439 . S
O237 C231 1.208 . S
O238 Cd239 2.223 . S
O238 C246 1.315 . S
Cd239 O238 2.223 . S
Cd239 O242 2.297 . S
Cd239 O243 2.439 . S
Cd239 O249 2.240 . S
Cd240 O241 2.240 . S
Cd240 O248 2.223 . S
Cd240 O250 2.297 . S
Cd240 O251 2.439 . S
O241 Cd240 2.240 . S
O241 C246 1.279 . S
O242 Cd239 2.297 . S
O242 C244 1.247 . S
O243 Cd239 2.439 . S
O243 C244 1.208 . S
C244 O242 1.247 . S
C244 O243 1.208 . S
C245 O250 1.247 . S
C245 O251 1.208 . S
C246 O238 1.315 . S
C246 O241 1.279 . S
C247 O248 1.315 . S
C247 O249 1.279 . S
O248 Cd240 2.223 . S
O248 C247 1.315 . S
O249 Cd239 2.240 . S
O249 C247 1.279 . S
O250 Cd240 2.297 . S
O250 C245 1.247 . S
O251 Cd240 2.439 . S
O251 C245 1.208 . S
O252 Cd253 2.223 . S
O252 C260 1.315 . S
Cd253 O252 2.223 . S
Cd253 O256 2.297 . S
Cd253 O257 2.439 . S
Cd253 O263 2.240 . S
Cd254 O255 2.240 . S
Cd254 O262 2.223 . S
Cd254 O264 2.297 . S
Cd254 O265 2.439 . S
O255 Cd254 2.240 . S
O255 C260 1.279 . S
O256 Cd253 2.297 . S
O256 C258 1.247 . S
O257 Cd253 2.439 . S
O257 C258 1.208 . S
C258 O256 1.247 . S
C258 O257 1.208 . S
C259 O264 1.247 . S
C259 O265 1.208 . S
C260 O252 1.315 . S
C260 O255 1.279 . S
C261 O262 1.315 . S
C261 O263 1.279 . S
O262 Cd254 2.223 . S
O262 C261 1.315 . S
O263 Cd253 2.240 . S
O263 C261 1.279 . S
O264 Cd254 2.297 . S
O264 C259 1.247 . S
O265 Cd254 2.439 . S
O265 C259 1.208 . S
O266 Cd267 2.223 . S
O266 C274 1.315 . S
Cd267 O266 2.223 . S
Cd267 O270 2.297 . S
Cd267 O271 2.439 . S
Cd267 O277 2.240 . S
Cd268 O269 2.240 . S
Cd268 O276 2.223 . S
Cd268 O278 2.297 . S
Cd268 O279 2.439 . S
O269 Cd268 2.240 . S
O269 C274 1.279 . S
O270 Cd267 2.297 . S
O270 C272 1.247 . S
O271 Cd267 2.439 . S
O271 C272 1.208 . S
C272 O270 1.247 . S
C272 O271 1.208 . S
C273 O278 1.247 . S
C273 O279 1.208 . S
C274 O266 1.315 . S
C274 O269 1.279 . S
C275 O276 1.315 . S
C275 O277 1.279 . S
O276 Cd268 2.223 . S
O276 C275 1.315 . S
O277 Cd267 2.240 . S
O277 C275 1.279 . S
O278 Cd268 2.297 . S
O278 C273 1.247 . S
O279 Cd268 2.439 . S
O279 C273 1.208 . S
O280 Cd281 2.223 . S
O280 C288 1.315 . S
Cd281 O280 2.223 . S
Cd281 O284 2.297 . S
Cd281 O285 2.439 . S
Cd281 O291 2.240 . S
Cd282 O283 2.240 . S
Cd282 O290 2.223 . S
Cd282 O292 2.297 . S
Cd282 O293 2.439 . S
O283 Cd282 2.240 . S
O283 C288 1.279 . S
O284 Cd281 2.297 . S
O284 C286 1.247 . S
O285 Cd281 2.439 . S
O285 C286 1.208 . S
C286 O284 1.247 . S
C286 O285 1.208 . S
C287 O292 1.247 . S
C287 O293 1.208 . S
C288 O280 1.315 . S
C288 O283 1.279 . S
C289 O290 1.315 . S
C289 O291 1.279 . S
O290 Cd282 2.223 . S
O290 C289 1.315 . S
O291 Cd281 2.240 . S
O291 C289 1.279 . S
O292 Cd282 2.297 . S
O292 C287 1.247 . S
O293 Cd282 2.439 . S
O293 C287 1.208 . S
O294 Cd295 2.223 . S
O294 C302 1.315 . S
Cd295 O294 2.223 . S
Cd295 O298 2.297 . S
Cd295 O299 2.439 . S
Cd295 O305 2.240 . S
Cd296 O297 2.240 . S
Cd296 O304 2.223 . S
Cd296 O306 2.297 . S
Cd296 O307 2.439 . S
O297 Cd296 2.240 . S
O297 C302 1.279 . S
O298 Cd295 2.297 . S
O298 C300 1.247 . S
O299 Cd295 2.439 . S
O299 C300 1.208 . S
C300 O298 1.247 . S
C300 O299 1.208 . S
C301 O306 1.247 . S
C301 O307 1.208 . S
C302 O294 1.315 . S
C302 O297 1.279 . S
C303 O304 1.315 . S
C303 O305 1.279 . S
O304 Cd296 2.223 . S
O304 C303 1.315 . S
O305 Cd295 2.240 . S
O305 C303 1.279 . S
O306 Cd296 2.297 . S
O306 C301 1.247 . S
O307 Cd296 2.439 . S
O307 C301 1.208 . S
O308 Cd309 2.223 . S
O308 C316 1.315 . S
Cd309 O308 2.223 . S
Cd309 O312 2.297 . S
Cd309 O313 2.439 . S
Cd309 O319 2.240 . S
Cd310 O311 2.240 . S
Cd310 O318 2.223 . S
Cd310 O320 2.297 . S
Cd310 O321 2.439 . S
O311 Cd310 2.240 . S
O311 C316 1.279 . S
O312 Cd309 2.297 . S
O312 C314 1.247 . S
O313 Cd309 2.439 . S
O313 C314 1.208 . S
C314 O312 1.247 . S
C314 O313 1.208 . S
C315 O320 1.247 . S
C315 O321 1.208 . S
C316 O308 1.315 . S
C316 O311 1.279 . S
C317 O318 1.315 . S
C317 O319 1.279 . S
O318 Cd310 2.223 . S
O318 C317 1.315 . S
O319 Cd309 2.240 . S
O319 C317 1.279 . S
O320 Cd310 2.297 . S
O320 C315 1.247 . S
O321 Cd310 2.439 . S
O321 C315 1.208 . S
O322 Cd323 2.223 . S
O322 C330 1.315 . S
Cd323 O322 2.223 . S
Cd323 O326 2.297 . S
Cd323 O327 2.439 . S
Cd323 O333 2.240 . S
Cd324 O325 2.240 . S
Cd324 O332 2.223 . S
Cd324 O334 2.297 . S
Cd324 O335 2.439 . S
O325 Cd324 2.240 . S
O325 C330 1.279 . S
O326 Cd323 2.297 . S
O326 C328 1.247 . S
O327 Cd323 2.439 . S
O327 C328 1.208 . S
C328 O326 1.247 . S
C328 O327 1.208 . S
C329 O334 1.247 . S
C329 O335 1.208 . S
C330 O322 1.315 . S
C330 O325 1.279 . S
C331 O332 1.315 . S
C331 O333 1.279 . S
O332 Cd324 2.223 . S
O332 C331 1.315 . S
O333 Cd323 2.240 . S
O333 C331 1.279 . S
O334 Cd324 2.297 . S
O334 C329 1.247 . S
O335 Cd324 2.439 . S
O335 C329 1.208 . S
H336 C344 0.950 . S
H337 C349 0.950 . S
H338 C346 0.950 . S
H339 C348 0.950 . S
H340 C350 0.950 . S
H341 C352 0.950 . S
H342 C354 0.950 . S
H343 C355 0.950 . S
C344 H336 0.950 . S
C344 C345 1.386 . S
C344 C346 1.391 . S
C345 C344 1.386 . S
C345 C349 1.393 . S
C346 H338 0.950 . S
C346 C344 1.391 . S
C346 C347 1.400 . S
C347 C346 1.400 . S
C347 C348 1.398 . S
C347 C353 1.491 . S
C348 H339 0.950 . S
C348 C347 1.398 . S
C348 C349 1.391 . S
C349 H337 0.950 . S
C349 C345 1.393 . S
C349 C348 1.391 . S
C350 H340 0.950 . S
C350 C351 1.386 . S
C350 C352 1.391 . S
C351 C350 1.386 . S
C351 C355 1.393 . S
C352 H341 0.950 . S
C352 C350 1.391 . S
C352 C353 1.400 . S
C353 C347 1.491 . S
C353 C352 1.400 . S
C353 C354 1.398 . S
C354 H342 0.950 . S
C354 C353 1.398 . S
C354 C355 1.391 . S
C355 H343 0.950 . S
C355 C351 1.393 . S
C355 C354 1.391 . S
H356 C364 0.950 . S
H357 C369 0.950 . S
H358 C366 0.950 . S
H359 C368 0.950 . S
H360 C370 0.950 . S
H361 C372 0.950 . S
H362 C374 0.950 . S
H363 C375 0.950 . S
C364 H356 0.950 . S
C364 C365 1.386 . S
C364 C366 1.391 . S
C365 C364 1.386 . S
C365 C369 1.393 . S
C366 H358 0.950 . S
C366 C364 1.391 . S
C366 C367 1.400 . S
C367 C366 1.400 . S
C367 C368 1.398 . S
C367 C373 1.491 . S
C368 H359 0.950 . S
C368 C367 1.398 . S
C368 C369 1.391 . S
C369 H357 0.950 . S
C369 C365 1.393 . S
C369 C368 1.391 . S
C370 H360 0.950 . S
C370 C371 1.386 . S
C370 C372 1.391 . S
C371 C370 1.386 . S
C371 C375 1.393 . S
C372 H361 0.950 . S
C372 C370 1.391 . S
C372 C373 1.400 . S
C373 C367 1.491 . S
C373 C372 1.400 . S
C373 C374 1.398 . S
C374 H362 0.950 . S
C374 C373 1.398 . S
C374 C375 1.391 . S
C375 H363 0.950 . S
C375 C371 1.393 . S
C375 C374 1.391 . S
H376 C384 0.950 . S
H377 C389 0.950 . S
H378 C386 0.950 . S
H379 C388 0.950 . S
H380 C390 0.950 . S
H381 C392 0.950 . S
H382 C394 0.950 . S
H383 C395 0.950 . S
C384 H376 0.950 . S
C384 C385 1.386 . S
C384 C386 1.391 . S
C385 C384 1.386 . S
C385 C389 1.393 . S
C386 H378 0.950 . S
C386 C384 1.391 . S
C386 C387 1.400 . S
C387 C386 1.400 . S
C387 C388 1.398 . S
C387 C393 1.491 . S
C388 H379 0.950 . S
C388 C387 1.398 . S
C388 C389 1.391 . S
C389 H377 0.950 . S
C389 C385 1.393 . S
C389 C388 1.391 . S
C390 H380 0.950 . S
C390 C391 1.386 . S
C390 C392 1.391 . S
C391 C390 1.386 . S
C391 C395 1.393 . S
C392 H381 0.950 . S
C392 C390 1.391 . S
C392 C393 1.400 . S
C393 C387 1.491 . S
C393 C392 1.400 . S
C393 C394 1.398 . S
C394 H382 0.950 . S
C394 C393 1.398 . S
C394 C395 1.391 . S
C395 H383 0.950 . S
C395 C391 1.393 . S
C395 C394 1.391 . S
H396 C404 0.950 . S
H397 C409 0.950 . S
H398 C406 0.950 . S
H399 C408 0.950 . S
H400 C410 0.950 . S
H401 C412 0.950 . S
H402 C414 0.950 . S
H403 C415 0.950 . S
C404 H396 0.950 . S
C404 C405 1.386 . S
C404 C406 1.391 . S
C405 C404 1.386 . S
C405 C409 1.393 . S
C406 H398 0.950 . S
C406 C404 1.391 . S
C406 C407 1.400 . S
C407 C406 1.400 . S
C407 C408 1.398 . S
C407 C413 1.491 . S
C408 H399 0.950 . S
C408 C407 1.398 . S
C408 C409 1.391 . S
C409 H397 0.950 . S
C409 C405 1.393 . S
C409 C408 1.391 . S
C410 H400 0.950 . S
C410 C411 1.386 . S
C410 C412 1.391 . S
C411 C410 1.386 . S
C411 C415 1.393 . S
C412 H401 0.950 . S
C412 C410 1.391 . S
C412 C413 1.400 . S
C413 C407 1.491 . S
C413 C412 1.400 . S
C413 C414 1.398 . S
C414 H402 0.950 . S
C414 C413 1.398 . S
C414 C415 1.391 . S
C415 H403 0.950 . S
C415 C411 1.393 . S
C415 C414 1.391 . S
H416 C424 0.950 . S
H417 C429 0.950 . S
H418 C426 0.950 . S
H419 C428 0.950 . S
H420 C430 0.950 . S
H421 C432 0.950 . S
H422 C434 0.950 . S
H423 C435 0.950 . S
C424 H416 0.950 . S
C424 C425 1.386 . S
C424 C426 1.391 . S
C425 C424 1.386 . S
C425 C429 1.393 . S
C426 H418 0.950 . S
C426 C424 1.391 . S
C426 C427 1.400 . S
C427 C426 1.400 . S
C427 C428 1.398 . S
C427 C433 1.491 . S
C428 H419 0.950 . S
C428 C427 1.398 . S
C428 C429 1.391 . S
C429 H417 0.950 . S
C429 C425 1.393 . S
C429 C428 1.391 . S
C430 H420 0.950 . S
C430 C431 1.386 . S
C430 C432 1.391 . S
C431 C430 1.386 . S
C431 C435 1.393 . S
C432 H421 0.950 . S
C432 C430 1.391 . S
C432 C433 1.400 . S
C433 C427 1.491 . S
C433 C432 1.400 . S
C433 C434 1.398 . S
C434 H422 0.950 . S
C434 C433 1.398 . S
C434 C435 1.391 . S
C435 H423 0.950 . S
C435 C431 1.393 . S
C435 C434 1.391 . S
H436 C444 0.950 . S
H437 C449 0.950 . S
H438 C446 0.950 . S
H439 C448 0.950 . S
H440 C450 0.950 . S
H441 C452 0.950 . S
H442 C454 0.950 . S
H443 C455 0.950 . S
C444 H436 0.950 . S
C444 C445 1.386 . S
C444 C446 1.391 . S
C445 C444 1.386 . S
C445 C449 1.393 . S
C446 H438 0.950 . S
C446 C444 1.391 . S
C446 C447 1.400 . S
C447 C446 1.400 . S
C447 C448 1.398 . S
C447 C453 1.491 . S
C448 H439 0.950 . S
C448 C447 1.398 . S
C448 C449 1.391 . S
C449 H437 0.950 . S
C449 C445 1.393 . S
C449 C448 1.391 . S
C450 H440 0.950 . S
C450 C451 1.386 . S
C450 C452 1.391 . S
C451 C450 1.386 . S
C451 C455 1.393 . S
C452 H441 0.950 . S
C452 C450 1.391 . S
C452 C453 1.400 . S
C453 C447 1.491 . S
C453 C452 1.400 . S
C453 C454 1.398 . S
C454 H442 0.950 . S
C454 C453 1.398 . S
C454 C455 1.391 . S
C455 H443 0.950 . S
C455 C451 1.393 . S
C455 C454 1.391 . S
H456 C464 0.950 . S
H457 C469 0.950 . S
H458 C466 0.950 . S
H459 C468 0.950 . S
H460 C470 0.950 . S
H461 C472 0.950 . S
H462 C474 0.950 . S
H463 C475 0.950 . S
C464 H456 0.950 . S
C464 C465 1.386 . S
C464 C466 1.391 . S
C465 C464 1.386 . S
C465 C469 1.393 . S
C466 H458 0.950 . S
C466 C464 1.391 . S
C466 C467 1.400 . S
C467 C466 1.400 . S
C467 C468 1.398 . S
C467 C473 1.491 . S
C468 H459 0.950 . S
C468 C467 1.398 . S
C468 C469 1.391 . S
C469 H457 0.950 . S
C469 C465 1.393 . S
C469 C468 1.391 . S
C470 H460 0.950 . S
C470 C471 1.386 . S
C470 C472 1.391 . S
C471 C470 1.386 . S
C471 C475 1.393 . S
C472 H461 0.950 . S
C472 C470 1.391 . S
C472 C473 1.400 . S
C473 C467 1.491 . S
C473 C472 1.400 . S
C473 C474 1.398 . S
C474 H462 0.950 . S
C474 C473 1.398 . S
C474 C475 1.391 . S
C475 H463 0.950 . S
C475 C471 1.393 . S
C475 C474 1.391 . S
H476 C484 0.950 . S
H477 C489 0.950 . S
H478 C486 0.950 . S
H479 C488 0.950 . S
H480 C490 0.950 . S
H481 C492 0.950 . S
H482 C494 0.950 . S
H483 C495 0.950 . S
C484 H476 0.950 . S
C484 C485 1.386 . S
C484 C486 1.391 . S
C485 C484 1.386 . S
C485 C489 1.393 . S
C486 H478 0.950 . S
C486 C484 1.391 . S
C486 C487 1.400 . S
C487 C486 1.400 . S
C487 C488 1.398 . S
C487 C493 1.491 . S
C488 H479 0.950 . S
C488 C487 1.398 . S
C488 C489 1.391 . S
C489 H477 0.950 . S
C489 C485 1.393 . S
C489 C488 1.391 . S
C490 H480 0.950 . S
C490 C491 1.386 . S
C490 C492 1.391 . S
C491 C490 1.386 . S
C491 C495 1.393 . S
C492 H481 0.950 . S
C492 C490 1.391 . S
C492 C493 1.400 . S
C493 C487 1.491 . S
C493 C492 1.400 . S
C493 C494 1.398 . S
C494 H482 0.950 . S
C494 C493 1.398 . S
C494 C495 1.391 . S
C495 H483 0.950 . S
C495 C491 1.393 . S
C495 C494 1.391 . S
H496 C504 0.950 . S
H497 C509 0.950 . S
H498 C506 0.950 . S
H499 C508 0.950 . S
H500 C510 0.950 . S
H501 C512 0.950 . S
H502 C514 0.950 . S
H503 C515 0.950 . S
C504 H496 0.950 . S
C504 C505 1.386 . S
C504 C506 1.391 . S
C505 C504 1.386 . S
C505 C509 1.393 . S
C506 H498 0.950 . S
C506 C504 1.391 . S
C506 C507 1.400 . S
C507 C506 1.400 . S
C507 C508 1.398 . S
C507 C513 1.491 . S
C508 H499 0.950 . S
C508 C507 1.398 . S
C508 C509 1.391 . S
C509 H497 0.950 . S
C509 C505 1.393 . S
C509 C508 1.391 . S
C510 H500 0.950 . S
C510 C511 1.386 . S
C510 C512 1.391 . S
C511 C510 1.386 . S
C511 C515 1.393 . S
C512 H501 0.950 . S
C512 C510 1.391 . S
C512 C513 1.400 . S
C513 C507 1.491 . S
C513 C512 1.400 . S
C513 C514 1.398 . S
C514 H502 0.950 . S
C514 C513 1.398 . S
C514 C515 1.391 . S
C515 H503 0.950 . S
C515 C511 1.393 . S
C515 C514 1.391 . S
H516 C524 0.950 . S
H517 C529 0.950 . S
H518 C526 0.950 . S
H519 C528 0.950 . S
H520 C530 0.950 . S
H521 C532 0.950 . S
H522 C534 0.950 . S
H523 C535 0.950 . S
C524 H516 0.950 . S
C524 C525 1.386 . S
C524 C526 1.391 . S
C525 C524 1.386 . S
C525 C529 1.393 . S
C526 H518 0.950 . S
C526 C524 1.391 . S
C526 C527 1.400 . S
C527 C526 1.400 . S
C527 C528 1.398 . S
C527 C533 1.491 . S
C528 H519 0.950 . S
C528 C527 1.398 . S
C528 C529 1.391 . S
C529 H517 0.950 . S
C529 C525 1.393 . S
C529 C528 1.391 . S
C530 H520 0.950 . S
C530 C531 1.386 . S
C530 C532 1.391 . S
C531 C530 1.386 . S
C531 C535 1.393 . S
C532 H521 0.950 . S
C532 C530 1.391 . S
C532 C533 1.400 . S
C533 C527 1.491 . S
C533 C532 1.400 . S
C533 C534 1.398 . S
C534 H522 0.950 . S
C534 C533 1.398 . S
C534 C535 1.391 . S
C535 H523 0.950 . S
C535 C531 1.393 . S
C535 C534 1.391 . S
H536 C544 0.950 . S
H537 C549 0.950 . S
H538 C546 0.950 . S
H539 C548 0.950 . S
H540 C550 0.950 . S
H541 C552 0.950 . S
H542 C554 0.950 . S
H543 C555 0.950 . S
C544 H536 0.950 . S
C544 C545 1.386 . S
C544 C546 1.391 . S
C545 C544 1.386 . S
C545 C549 1.393 . S
C546 H538 0.950 . S
C546 C544 1.391 . S
C546 C547 1.400 . S
C547 C546 1.400 . S
C547 C548 1.398 . S
C547 C553 1.491 . S
C548 H539 0.950 . S
C548 C547 1.398 . S
C548 C549 1.391 . S
C549 H537 0.950 . S
C549 C545 1.393 . S
C549 C548 1.391 . S
C550 H540 0.950 . S
C550 C551 1.386 . S
C550 C552 1.391 . S
C551 C550 1.386 . S
C551 C555 1.393 . S
C552 H541 0.950 . S
C552 C550 1.391 . S
C552 C553 1.400 . S
C553 C547 1.491 . S
C553 C552 1.400 . S
C553 C554 1.398 . S
C554 H542 0.950 . S
C554 C553 1.398 . S
C554 C555 1.391 . S
C555 H543 0.950 . S
C555 C551 1.393 . S
C555 C554 1.391 . S
H556 C564 0.950 . S
H557 C569 0.950 . S
H558 C566 0.950 . S
H559 C568 0.950 . S
H560 C570 0.950 . S
H561 C572 0.950 . S
H562 C574 0.950 . S
H563 C575 0.950 . S
C564 H556 0.950 . S
C564 C565 1.386 . S
C564 C566 1.391 . S
C565 C564 1.386 . S
C565 C569 1.393 . S
C566 H558 0.950 . S
C566 C564 1.391 . S
C566 C567 1.400 . S
C567 C566 1.400 . S
C567 C568 1.398 . S
C567 C573 1.491 . S
C568 H559 0.950 . S
C568 C567 1.398 . S
C568 C569 1.391 . S
C569 H557 0.950 . S
C569 C565 1.393 . S
C569 C568 1.391 . S
C570 H560 0.950 . S
C570 C571 1.386 . S
C570 C572 1.391 . S
C571 C570 1.386 . S
C571 C575 1.393 . S
C572 H561 0.950 . S
C572 C570 1.391 . S
C572 C573 1.400 . S
C573 C567 1.491 . S
C573 C572 1.400 . S
C573 C574 1.398 . S
C574 H562 0.950 . S
C574 C573 1.398 . S
C574 C575 1.391 . S
C575 H563 0.950 . S
C575 C571 1.393 . S
C575 C574 1.391 . S
H576 C584 0.950 . S
H577 C589 0.950 . S
H578 C586 0.950 . S
H579 C588 0.950 . S
H580 C590 0.950 . S
H581 C592 0.950 . S
H582 C594 0.950 . S
H583 C595 0.950 . S
C584 H576 0.950 . S
C584 C585 1.386 . S
C584 C586 1.391 . S
C585 C584 1.386 . S
C585 C589 1.393 . S
C586 H578 0.950 . S
C586 C584 1.391 . S
C586 C587 1.400 . S
C587 C586 1.400 . S
C587 C588 1.398 . S
C587 C593 1.491 . S
C588 H579 0.950 . S
C588 C587 1.398 . S
C588 C589 1.391 . S
C589 H577 0.950 . S
C589 C585 1.393 . S
C589 C588 1.391 . S
C590 H580 0.950 . S
C590 C591 1.386 . S
C590 C592 1.391 . S
C591 C590 1.386 . S
C591 C595 1.393 . S
C592 H581 0.950 . S
C592 C590 1.391 . S
C592 C593 1.400 . S
C593 C587 1.491 . S
C593 C592 1.400 . S
C593 C594 1.398 . S
C594 H582 0.950 . S
C594 C593 1.398 . S
C594 C595 1.391 . S
C595 H583 0.950 . S
C595 C591 1.393 . S
C595 C594 1.391 . S
H596 C604 0.950 . S
H597 C609 0.950 . S
H598 C606 0.950 . S
H599 C608 0.950 . S
H600 C610 0.950 . S
H601 C612 0.950 . S
H602 C614 0.950 . S
H603 C615 0.950 . S
C604 H596 0.950 . S
C604 C605 1.386 . S
C604 C606 1.391 . S
C605 C604 1.386 . S
C605 C609 1.393 . S
C606 H598 0.950 . S
C606 C604 1.391 . S
C606 C607 1.400 . S
C607 C606 1.400 . S
C607 C608 1.398 . S
C607 C613 1.491 . S
C608 H599 0.950 . S
C608 C607 1.398 . S
C608 C609 1.391 . S
C609 H597 0.950 . S
C609 C605 1.393 . S
C609 C608 1.391 . S
C610 H600 0.950 . S
C610 C611 1.386 . S
C610 C612 1.391 . S
C611 C610 1.386 . S
C611 C615 1.393 . S
C612 H601 0.950 . S
C612 C610 1.391 . S
C612 C613 1.400 . S
C613 C607 1.491 . S
C613 C612 1.400 . S
C613 C614 1.398 . S
C614 H602 0.950 . S
C614 C613 1.398 . S
C614 C615 1.391 . S
C615 H603 0.950 . S
C615 C611 1.393 . S
C615 C614 1.391 . S
H616 C624 0.950 . S
H617 C629 0.950 . S
H618 C626 0.950 . S
H619 C628 0.950 . S
H620 C630 0.950 . S
H621 C632 0.950 . S
H622 C634 0.950 . S
H623 C635 0.950 . S
C624 H616 0.950 . S
C624 C625 1.386 . S
C624 C626 1.391 . S
C625 C624 1.386 . S
C625 C629 1.393 . S
C626 H618 0.950 . S
C626 C624 1.391 . S
C626 C627 1.400 . S
C627 C626 1.400 . S
C627 C628 1.398 . S
C627 C633 1.491 . S
C628 H619 0.950 . S
C628 C627 1.398 . S
C628 C629 1.391 . S
C629 H617 0.950 . S
C629 C625 1.393 . S
C629 C628 1.391 . S
C630 H620 0.950 . S
C630 C631 1.386 . S
C630 C632 1.391 . S
C631 C630 1.386 . S
C631 C635 1.393 . S
C632 H621 0.950 . S
C632 C630 1.391 . S
C632 C633 1.400 . S
C633 C627 1.491 . S
C633 C632 1.400 . S
C633 C634 1.398 . S
C634 H622 0.950 . S
C634 C633 1.398 . S
C634 C635 1.391 . S
C635 H623 0.950 . S
C635 C631 1.393 . S
C635 C634 1.391 . S
H636 C644 0.950 . S
H637 C649 0.950 . S
H638 C646 0.950 . S
H639 C648 0.950 . S
H640 C650 0.950 . S
H641 C652 0.950 . S
H642 C654 0.950 . S
H643 C655 0.950 . S
C644 H636 0.950 . S
C644 C645 1.386 . S
C644 C646 1.391 . S
C645 C644 1.386 . S
C645 C649 1.393 . S
C646 H638 0.950 . S
C646 C644 1.391 . S
C646 C647 1.400 . S
C647 C646 1.400 . S
C647 C648 1.398 . S
C647 C653 1.491 . S
C648 H639 0.950 . S
C648 C647 1.398 . S
C648 C649 1.391 . S
C649 H637 0.950 . S
C649 C645 1.393 . S
C649 C648 1.391 . S
C650 H640 0.950 . S
C650 C651 1.386 . S
C650 C652 1.391 . S
C651 C650 1.386 . S
C651 C655 1.393 . S
C652 H641 0.950 . S
C652 C650 1.391 . S
C652 C653 1.400 . S
C653 C647 1.491 . S
C653 C652 1.400 . S
C653 C654 1.398 . S
C654 H642 0.950 . S
C654 C653 1.398 . S
C654 C655 1.391 . S
C655 H643 0.950 . S
C655 C651 1.393 . S
C655 C654 1.391 . S
H656 C664 0.950 . S
H657 C669 0.950 . S
H658 C666 0.950 . S
H659 C668 0.950 . S
H660 C670 0.950 . S
H661 C672 0.950 . S
H662 C674 0.950 . S
H663 C675 0.950 . S
C664 H656 0.950 . S
C664 C665 1.386 . S
C664 C666 1.391 . S
C665 C664 1.386 . S
C665 C669 1.393 . S
C666 H658 0.950 . S
C666 C664 1.391 . S
C666 C667 1.400 . S
C667 C666 1.400 . S
C667 C668 1.398 . S
C667 C673 1.491 . S
C668 H659 0.950 . S
C668 C667 1.398 . S
C668 C669 1.391 . S
C669 H657 0.950 . S
C669 C665 1.393 . S
C669 C668 1.391 . S
C670 H660 0.950 . S
C670 C671 1.386 . S
C670 C672 1.391 . S
C671 C670 1.386 . S
C671 C675 1.393 . S
C672 H661 0.950 . S
C672 C670 1.391 . S
C672 C673 1.400 . S
C673 C667 1.491 . S
C673 C672 1.400 . S
C673 C674 1.398 . S
C674 H662 0.950 . S
C674 C673 1.398 . S
C674 C675 1.391 . S
C675 H663 0.950 . S
C675 C671 1.393 . S
C675 C674 1.391 . S
H676 C684 0.950 . S
H677 C689 0.950 . S
H678 C686 0.950 . S
H679 C688 0.950 . S
H680 C690 0.950 . S
H681 C692 0.950 . S
H682 C694 0.950 . S
H683 C695 0.950 . S
C684 H676 0.950 . S
C684 C685 1.386 . S
C684 C686 1.391 . S
C685 C684 1.386 . S
C685 C689 1.393 . S
C686 H678 0.950 . S
C686 C684 1.391 . S
C686 C687 1.400 . S
C687 C686 1.400 . S
C687 C688 1.398 . S
C687 C693 1.491 . S
C688 H679 0.950 . S
C688 C687 1.398 . S
C688 C689 1.391 . S
C689 H677 0.950 . S
C689 C685 1.393 . S
C689 C688 1.391 . S
C690 H680 0.950 . S
C690 C691 1.386 . S
C690 C692 1.391 . S
C691 C690 1.386 . S
C691 C695 1.393 . S
C692 H681 0.950 . S
C692 C690 1.391 . S
C692 C693 1.400 . S
C693 C687 1.491 . S
C693 C692 1.400 . S
C693 C694 1.398 . S
C694 H682 0.950 . S
C694 C693 1.398 . S
C694 C695 1.391 . S
C695 H683 0.950 . S
C695 C691 1.393 . S
C695 C694 1.391 . S
H696 C704 0.950 . S
H697 C709 0.950 . S
H698 C706 0.950 . S
H699 C708 0.950 . S
H700 C710 0.950 . S
H701 C712 0.950 . S
H702 C714 0.950 . S
H703 C715 0.950 . S
C704 H696 0.950 . S
C704 C705 1.386 . S
C704 C706 1.391 . S
C705 C704 1.386 . S
C705 C709 1.393 . S
C706 H698 0.950 . S
C706 C704 1.391 . S
C706 C707 1.400 . S
C707 C706 1.400 . S
C707 C708 1.398 . S
C707 C713 1.491 . S
C708 H699 0.950 . S
C708 C707 1.398 . S
C708 C709 1.391 . S
C709 H697 0.950 . S
C709 C705 1.393 . S
C709 C708 1.391 . S
C710 H700 0.950 . S
C710 C711 1.386 . S
C710 C712 1.391 . S
C711 C710 1.386 . S
C711 C715 1.393 . S
C712 H701 0.950 . S
C712 C710 1.391 . S
C712 C713 1.400 . S
C713 C707 1.491 . S
C713 C712 1.400 . S
C713 C714 1.398 . S
C714 H702 0.950 . S
C714 C713 1.398 . S
C714 C715 1.391 . S
C715 H703 0.950 . S
C715 C711 1.393 . S
C715 C714 1.391 . S
H716 C724 0.950 . S
H717 C729 0.950 . S
H718 C726 0.950 . S
H719 C728 0.950 . S
H720 C730 0.950 . S
H721 C732 0.950 . S
H722 C734 0.950 . S
H723 C735 0.950 . S
C724 H716 0.950 . S
C724 C725 1.386 . S
C724 C726 1.391 . S
C725 C724 1.386 . S
C725 C729 1.393 . S
C726 H718 0.950 . S
C726 C724 1.391 . S
C726 C727 1.400 . S
C727 C726 1.400 . S
C727 C728 1.398 . S
C727 C733 1.491 . S
C728 H719 0.950 . S
C728 C727 1.398 . S
C728 C729 1.391 . S
C729 H717 0.950 . S
C729 C725 1.393 . S
C729 C728 1.391 . S
C730 H720 0.950 . S
C730 C731 1.386 . S
C730 C732 1.391 . S
C731 C730 1.386 . S
C731 C735 1.393 . S
C732 H721 0.950 . S
C732 C730 1.391 . S
C732 C733 1.400 . S
C733 C727 1.491 . S
C733 C732 1.400 . S
C733 C734 1.398 . S
C734 H722 0.950 . S
C734 C733 1.398 . S
C734 C735 1.391 . S
C735 H723 0.950 . S
C735 C731 1.393 . S
C735 C734 1.391 . S
H736 C744 0.950 . S
H737 C749 0.950 . S
H738 C746 0.950 . S
H739 C748 0.950 . S
H740 C750 0.950 . S
H741 C752 0.950 . S
H742 C754 0.950 . S
H743 C755 0.950 . S
C744 H736 0.950 . S
C744 C745 1.386 . S
C744 C746 1.391 . S
C745 C744 1.386 . S
C745 C749 1.393 . S
C746 H738 0.950 . S
C746 C744 1.391 . S
C746 C747 1.400 . S
C747 C746 1.400 . S
C747 C748 1.398 . S
C747 C753 1.491 . S
C748 H739 0.950 . S
C748 C747 1.398 . S
C748 C749 1.391 . S
C749 H737 0.950 . S
C749 C745 1.393 . S
C749 C748 1.391 . S
C750 H740 0.950 . S
C750 C751 1.386 . S
C750 C752 1.391 . S
C751 C750 1.386 . S
C751 C755 1.393 . S
C752 H741 0.950 . S
C752 C750 1.391 . S
C752 C753 1.400 . S
C753 C747 1.491 . S
C753 C752 1.400 . S
C753 C754 1.398 . S
C754 H742 0.950 . S
C754 C753 1.398 . S
C754 C755 1.391 . S
C755 H743 0.950 . S
C755 C751 1.393 . S
C755 C754 1.391 . S
H756 C764 0.950 . S
H757 C769 0.950 . S
H758 C766 0.950 . S
H759 C768 0.950 . S
H760 C770 0.950 . S
H761 C772 0.950 . S
H762 C774 0.950 . S
H763 C775 0.950 . S
C764 H756 0.950 . S
C764 C765 1.386 . S
C764 C766 1.391 . S
C765 C764 1.386 . S
C765 C769 1.393 . S
C766 H758 0.950 . S
C766 C764 1.391 . S
C766 C767 1.400 . S
C767 C766 1.400 . S
C767 C768 1.398 . S
C767 C773 1.491 . S
C768 H759 0.950 . S
C768 C767 1.398 . S
C768 C769 1.391 . S
C769 H757 0.950 . S
C769 C765 1.393 . S
C769 C768 1.391 . S
C770 H760 0.950 . S
C770 C771 1.386 . S
C770 C772 1.391 . S
C771 C770 1.386 . S
C771 C775 1.393 . S
C772 H761 0.950 . S
C772 C770 1.391 . S
C772 C773 1.400 . S
C773 C767 1.491 . S
C773 C772 1.400 . S
C773 C774 1.398 . S
C774 H762 0.950 . S
C774 C773 1.398 . S
C774 C775 1.391 . S
C775 H763 0.950 . S
C775 C771 1.393 . S
C775 C774 1.391 . S
H776 C784 0.950 . S
H777 C789 0.950 . S
H778 C786 0.950 . S
H779 C788 0.950 . S
H780 C790 0.950 . S
H781 C792 0.950 . S
H782 C794 0.950 . S
H783 C795 0.950 . S
C784 H776 0.950 . S
C784 C785 1.386 . S
C784 C786 1.391 . S
C785 C784 1.386 . S
C785 C789 1.393 . S
C786 H778 0.950 . S
C786 C784 1.391 . S
C786 C787 1.400 . S
C787 C786 1.400 . S
C787 C788 1.398 . S
C787 C793 1.491 . S
C788 H779 0.950 . S
C788 C787 1.398 . S
C788 C789 1.391 . S
C789 H777 0.950 . S
C789 C785 1.393 . S
C789 C788 1.391 . S
C790 H780 0.950 . S
C790 C791 1.386 . S
C790 C792 1.391 . S
C791 C790 1.386 . S
C791 C795 1.393 . S
C792 H781 0.950 . S
C792 C790 1.391 . S
C792 C793 1.400 . S
C793 C787 1.491 . S
C793 C792 1.400 . S
C793 C794 1.398 . S
C794 H782 0.950 . S
C794 C793 1.398 . S
C794 C795 1.391 . S
C795 H783 0.950 . S
C795 C791 1.393 . S
C795 C794 1.391 . S
H796 C804 0.950 . S
H797 C809 0.950 . S
H798 C806 0.950 . S
H799 C808 0.950 . S
H800 C810 0.950 . S
H801 C812 0.950 . S
H802 C814 0.950 . S
H803 C815 0.950 . S
C804 H796 0.950 . S
C804 C805 1.386 . S
C804 C806 1.391 . S
C805 C804 1.386 . S
C805 C809 1.393 . S
C806 H798 0.950 . S
C806 C804 1.391 . S
C806 C807 1.400 . S
C807 C806 1.400 . S
C807 C808 1.398 . S
C807 C813 1.491 . S
C808 H799 0.950 . S
C808 C807 1.398 . S
C808 C809 1.391 . S
C809 H797 0.950 . S
C809 C805 1.393 . S
C809 C808 1.391 . S
C810 H800 0.950 . S
C810 C811 1.386 . S
C810 C812 1.391 . S
C811 C810 1.386 . S
C811 C815 1.393 . S
C812 H801 0.950 . S
C812 C810 1.391 . S
C812 C813 1.400 . S
C813 C807 1.491 . S
C813 C812 1.400 . S
C813 C814 1.398 . S
C814 H802 0.950 . S
C814 C813 1.398 . S
C814 C815 1.391 . S
C815 H803 0.950 . S
C815 C811 1.393 . S
C815 C814 1.391 . S
H816 C824 0.950 . S
H817 C829 0.950 . S
H818 C826 0.950 . S
H819 C828 0.950 . S
H820 C830 0.950 . S
H821 C832 0.950 . S
H822 C834 0.950 . S
H823 C835 0.950 . S
C824 H816 0.950 . S
C824 C825 1.386 . S
C824 C826 1.391 . S
C825 C824 1.386 . S
C825 C829 1.393 . S
C826 H818 0.950 . S
C826 C824 1.391 . S
C826 C827 1.400 . S
C827 C826 1.400 . S
C827 C828 1.398 . S
C827 C833 1.491 . S
C828 H819 0.950 . S
C828 C827 1.398 . S
C828 C829 1.391 . S
C829 H817 0.950 . S
C829 C825 1.393 . S
C829 C828 1.391 . S
C830 H820 0.950 . S
C830 C831 1.386 . S
C830 C832 1.391 . S
C831 C830 1.386 . S
C831 C835 1.393 . S
C832 H821 0.950 . S
C832 C830 1.391 . S
C832 C833 1.400 . S
C833 C827 1.491 . S
C833 C832 1.400 . S
C833 C834 1.398 . S
C834 H822 0.950 . S
C834 C833 1.398 . S
C834 C835 1.391 . S
C835 H823 0.950 . S
C835 C831 1.393 . S
C835 C834 1.391 . S
H836 C844 0.950 . S
H837 C849 0.950 . S
H838 C846 0.950 . S
H839 C848 0.950 . S
H840 C850 0.950 . S
H841 C852 0.950 . S
H842 C854 0.950 . S
H843 C855 0.950 . S
C844 H836 0.950 . S
C844 C845 1.386 . S
C844 C846 1.391 . S
C845 C844 1.386 . S
C845 C849 1.393 . S
C846 H838 0.950 . S
C846 C844 1.391 . S
C846 C847 1.400 . S
C847 C846 1.400 . S
C847 C848 1.398 . S
C847 C853 1.491 1_554 S
C848 H839 0.950 . S
C848 C847 1.398 . S
C848 C849 1.391 . S
C849 H837 0.950 . S
C849 C845 1.393 . S
C849 C848 1.391 . S
C850 H840 0.950 . S
C850 C851 1.386 . S
C850 C852 1.391 . S
C851 C850 1.386 . S
C851 C855 1.393 . S
C852 H841 0.950 . S
C852 C850 1.391 . S
C852 C853 1.400 . S
C853 C847 1.491 1_556 S
C853 C852 1.400 . S
C853 C854 1.398 . S
C854 H842 0.950 . S
C854 C853 1.398 . S
C854 C855 1.391 . S
C855 H843 0.950 . S
C855 C851 1.393 . S
C855 C854 1.391 . S
H856 C864 0.950 . S
H857 C869 0.950 . S
H858 C866 0.950 . S
H859 C868 0.950 . S
H860 C870 0.950 . S
H861 C872 0.950 . S
H862 C874 0.950 . S
H863 C875 0.950 . S
C864 H856 0.950 . S
C864 C865 1.386 . S
C864 C866 1.391 . S
C865 C864 1.386 . S
C865 C869 1.393 . S
C866 H858 0.950 . S
C866 C864 1.391 . S
C866 C867 1.400 . S
C867 C866 1.400 . S
C867 C868 1.398 . S
C867 C873 1.491 . S
C868 H859 0.950 . S
C868 C867 1.398 . S
C868 C869 1.391 . S
C869 H857 0.950 . S
C869 C865 1.393 . S
C869 C868 1.391 . S
C870 H860 0.950 . S
C870 C871 1.386 . S
C870 C872 1.391 . S
C871 C870 1.386 . S
C871 C875 1.393 . S
C872 H861 0.950 . S
C872 C870 1.391 . S
C872 C873 1.400 . S
C873 C867 1.491 . S
C873 C872 1.400 . S
C873 C874 1.398 . S
C874 H862 0.950 . S
C874 C873 1.398 . S
C874 C875 1.391 . S
C875 H863 0.950 . S
C875 C871 1.393 . S
C875 C874 1.391 . S
H876 C884 0.950 . S
H877 C889 0.950 . S
H878 C886 0.950 . S
H879 C888 0.950 . S
H880 C890 0.950 . S
H881 C892 0.950 . S
H882 C894 0.950 . S
H883 C895 0.950 . S
C884 H876 0.950 . S
C884 C885 1.386 . S
C884 C886 1.391 . S
C885 C884 1.386 . S
C885 C889 1.393 . S
C886 H878 0.950 . S
C886 C884 1.391 . S
C886 C887 1.400 . S
C887 C886 1.400 . S
C887 C888 1.398 . S
C887 C893 1.491 1_554 S
C888 H879 0.950 . S
C888 C887 1.398 . S
C888 C889 1.391 . S
C889 H877 0.950 . S
C889 C885 1.393 . S
C889 C888 1.391 . S
C890 H880 0.950 . S
C890 C891 1.386 . S
C890 C892 1.391 . S
C891 C890 1.386 . S
C891 C895 1.393 . S
C892 H881 0.950 . S
C892 C890 1.391 . S
C892 C893 1.400 . S
C893 C887 1.491 1_556 S
C893 C892 1.400 . S
C893 C894 1.398 . S
C894 H882 0.950 . S
C894 C893 1.398 . S
C894 C895 1.391 . S
C895 H883 0.950 . S
C895 C891 1.393 . S
C895 C894 1.391 . S
H896 C904 0.950 . S
H897 C909 0.950 . S
H898 C906 0.950 . S
H899 C908 0.950 . S
H900 C910 0.950 . S
H901 C912 0.950 . S
H902 C914 0.950 . S
H903 C915 0.950 . S
C904 H896 0.950 . S
C904 C905 1.386 . S
C904 C906 1.391 . S
C905 C904 1.386 . S
C905 C909 1.393 . S
C906 H898 0.950 . S
C906 C904 1.391 . S
C906 C907 1.400 . S
C907 C906 1.400 . S
C907 C908 1.398 . S
C907 C913 1.491 . S
C908 H899 0.950 . S
C908 C907 1.398 . S
C908 C909 1.391 . S
C909 H897 0.950 . S
C909 C905 1.393 . S
C909 C908 1.391 . S
C910 H900 0.950 . S
C910 C911 1.386 . S
C910 C912 1.391 . S
C911 C910 1.386 . S
C911 C915 1.393 . S
C912 H901 0.950 . S
C912 C910 1.391 . S
C912 C913 1.400 . S
C913 C907 1.491 . S
C913 C912 1.400 . S
C913 C914 1.398 . S
C914 H902 0.950 . S
C914 C913 1.398 . S
C914 C915 1.391 . S
C915 H903 0.950 . S
C915 C911 1.393 . S
C915 C914 1.391 . S
H916 C924 0.950 . S
H917 C929 0.950 . S
H918 C926 0.950 . S
H919 C928 0.950 . S
H920 C930 0.950 . S
H921 C932 0.950 . S
H922 C934 0.950 . S
H923 C935 0.950 . S
C924 H916 0.950 . S
C924 C925 1.386 . S
C924 C926 1.391 . S
C925 C924 1.386 . S
C925 C929 1.393 . S
C926 H918 0.950 . S
C926 C924 1.391 . S
C926 C927 1.400 . S
C927 C926 1.400 . S
C927 C928 1.398 . S
C927 C933 1.491 1_655 S
C928 H919 0.950 . S
C928 C927 1.398 . S
C928 C929 1.391 . S
C929 H917 0.950 . S
C929 C925 1.393 . S
C929 C928 1.391 . S
C930 H920 0.950 . S
C930 C931 1.386 . S
C930 C932 1.391 . S
C931 C930 1.386 . S
C931 C935 1.393 . S
C932 H921 0.950 . S
C932 C930 1.391 . S
C932 C933 1.400 . S
C933 C927 1.491 1_455 S
C933 C932 1.400 . S
C933 C934 1.398 . S
C934 H922 0.950 . S
C934 C933 1.398 . S
C934 C935 1.391 . S
C935 H923 0.950 . S
C935 C931 1.393 . S
C935 C934 1.391 . S
H936 C944 0.950 . S
H937 C949 0.950 . S
H938 C946 0.950 . S
H939 C948 0.919 1_655 S
H940 C950 0.950 . S
H941 C952 0.950 . S
H942 C954 0.950 . S
H943 C955 0.950 . S
C944 H936 0.950 . S
C944 C945 1.386 . S
C944 C946 1.391 . S
C945 C944 1.386 . S
C945 C949 1.393 . S
C946 H938 0.950 . S
C946 C944 1.391 . S
C946 C947 1.400 . S
C947 C946 1.400 . S
C947 C948 1.398 . S
C947 C953 1.491 1_455 S
C948 H939 0.919 1_455 S
C948 C947 1.398 . S
C948 C949 1.391 . S
C949 H937 0.950 . S
C949 C945 1.393 . S
C949 C948 1.391 . S
C950 H940 0.950 . S
C950 C951 1.386 . S
C950 C952 1.391 . S
C951 C950 1.386 . S
C951 C955 1.393 . S
C952 H941 0.950 . S
C952 C950 1.391 . S
C952 C953 1.400 . S
C953 C947 1.491 1_655 S
C953 C952 1.400 . S
C953 C954 1.398 . S
C954 H942 0.950 . S
C954 C953 1.398 . S
C954 C955 1.391 . S
C955 H943 0.950 . S
C955 C951 1.393 . S
C955 C954 1.391 . S
H956 C964 0.950 . S
H957 C969 0.950 . S
H958 C966 0.950 . S
H959 C968 0.950 . S
H960 C970 0.950 . S
H961 C972 0.950 . S
H962 C974 0.950 . S
H963 C975 0.950 . S
C964 H956 0.950 . S
C964 C965 1.386 . S
C964 C966 1.391 . S
C965 C964 1.386 . S
C965 C969 1.393 . S
C966 H958 0.950 . S
C966 C964 1.391 . S
C966 C967 1.400 . S
C967 C966 1.400 . S
C967 C968 1.398 . S
C967 C973 1.491 . S
C968 H959 0.950 . S
C968 C967 1.398 . S
C968 C969 1.391 . S
C969 H957 0.950 . S
C969 C965 1.393 . S
C969 C968 1.391 . S
C970 H960 0.950 . S
C970 C971 1.386 . S
C970 C972 1.391 . S
C971 C970 1.386 . S
C971 C975 1.393 . S
C972 H961 0.950 . S
C972 C970 1.391 . S
C972 C973 1.400 . S
C973 C967 1.491 . S
C973 C972 1.400 . S
C973 C974 1.398 . S
C974 H962 0.950 . S
C974 C973 1.398 . S
C974 C975 1.391 . S
C975 H963 0.950 . S
C975 C971 1.393 . S
C975 C974 1.391 . S
H976 C984 0.950 . S
H977 C989 0.950 . S
H978 C986 0.950 . S
H979 C988 0.950 . S
H980 C990 0.950 . S
H981 C992 0.950 . S
H982 C994 0.950 . S
H983 C995 0.950 . S
C984 H976 0.950 . S
C984 C985 1.386 . S
C984 C986 1.391 . S
C985 C984 1.386 . S
C985 C989 1.393 . S
C986 H978 0.950 . S
C986 C984 1.391 . S
C986 C987 1.400 . S
C987 C986 1.400 . S
C987 C988 1.398 . S
C987 C993 1.491 . S
C988 H979 0.950 . S
C988 C987 1.398 . S
C988 C989 1.391 . S
C989 H977 0.950 . S
C989 C985 1.393 . S
C989 C988 1.391 . S
C990 H980 0.950 . S
C990 C991 1.386 . S
C990 C992 1.391 . S
C991 C990 1.386 . S
C991 C995 1.393 . S
C992 H981 0.950 . S
C992 C990 1.391 . S
C992 C993 1.400 . S
C993 C987 1.491 . S
C993 C992 1.400 . S
C993 C994 1.398 . S
C994 H982 0.950 . S
C994 C993 1.398 . S
C994 C995 1.391 . S
C995 H983 0.950 . S
C995 C991 1.393 . S
C995 C994 1.391 . S
H996 C1004 0.950 . S
H997 C1009 0.950 . S
H998 C1006 0.950 . S
H999 C1008 0.943 1_545 S
H1000 C1010 0.950 . S
H1001 C1012 0.950 . S
H1002 C1014 0.950 . S
H1003 C1015 0.950 . S
C1004 H996 0.950 . S
C1004 C1005 1.386 . S
C1004 C1006 1.391 . S
C1005 C1004 1.386 . S
C1005 C1009 1.393 . S
C1006 H998 0.950 . S
C1006 C1004 1.391 . S
C1006 C1007 1.400 . S
C1007 C1006 1.400 . S
C1007 C1008 1.398 . S
C1007 C1013 1.491 1_565 S
C1008 H999 0.943 1_565 S
C1008 C1007 1.398 . S
C1008 C1009 1.391 . S
C1009 H997 0.950 . S
C1009 C1005 1.393 . S
C1009 C1008 1.391 . S
C1010 H1000 0.950 . S
C1010 C1011 1.386 . S
C1010 C1012 1.391 . S
C1011 C1010 1.386 . S
C1011 C1015 1.393 . S
C1012 H1001 0.950 . S
C1012 C1010 1.391 . S
C1012 C1013 1.400 . S
C1013 C1007 1.491 1_545 S
C1013 C1012 1.400 . S
C1013 C1014 1.398 . S
C1014 H1002 0.950 . S
C1014 C1013 1.398 . S
C1014 C1015 1.391 . S
C1015 H1003 0.950 . S
C1015 C1011 1.393 . S
C1015 C1014 1.391 . S
H1016 C1024 0.950 . S
H1017 C1029 0.950 . S
H1018 C1026 0.950 . S
H1019 C1028 0.950 1_565 S
H1020 C1030 0.950 . S
H1021 C1032 0.950 . S
H1022 C1034 0.950 . S
H1023 C1035 0.950 . S
C1024 H1016 0.950 . S
C1024 C1025 1.386 . S
C1024 C1026 1.391 . S
C1025 C1024 1.386 . S
C1025 C1029 1.393 . S
C1026 H1018 0.950 . S
C1026 C1024 1.391 . S
C1026 C1027 1.400 . S
C1027 C1026 1.400 . S
C1027 C1028 1.398 . S
C1027 C1033 1.491 1_545 S
C1028 H1019 0.950 1_545 S
C1028 C1027 1.398 . S
C1028 C1029 1.391 . S
C1029 H1017 0.950 . S
C1029 C1025 1.393 . S
C1029 C1028 1.391 . S
C1030 H1020 0.950 . S
C1030 C1031 1.386 . S
C1030 C1032 1.391 . S
C1031 C1030 1.386 . S
C1031 C1035 1.393 . S
C1032 H1021 0.950 . S
C1032 C1030 1.391 . S
C1032 C1033 1.400 . S
C1033 C1027 1.491 1_565 S
C1033 C1032 1.400 . S
C1033 C1034 1.398 . S
C1034 H1022 0.950 . S
C1034 C1033 1.398 . S
C1034 C1035 1.391 . S
C1035 H1023 0.950 . S
C1035 C1031 1.393 . S
C1035 C1034 1.391 . S
H1036 C1044 0.950 . S
H1037 C1049 0.950 . S
H1038 C1046 0.950 . S
H1039 C1048 0.950 . S
H1040 C1050 0.950 . S
H1041 C1052 0.950 . S
H1042 C1054 0.950 . S
H1043 C1055 0.950 . S
C1044 H1036 0.950 . S
C1044 C1045 1.386 . S
C1044 C1046 1.391 . S
C1045 C1044 1.386 . S
C1045 C1049 1.393 . S
C1046 H1038 0.950 . S
C1046 C1044 1.391 . S
C1046 C1047 1.400 . S
C1047 C1046 1.400 . S
C1047 C1048 1.398 . S
C1047 C1053 1.491 . S
C1048 H1039 0.950 . S
C1048 C1047 1.398 . S
C1048 C1049 1.391 . S
C1049 H1037 0.950 . S
C1049 C1045 1.393 . S
C1049 C1048 1.391 . S
C1050 H1040 0.950 . S
C1050 C1051 1.386 . S
C1050 C1052 1.391 . S
C1051 C1050 1.386 . S
C1051 C1055 1.393 . S
C1052 H1041 0.950 . S
C1052 C1050 1.391 . S
C1052 C1053 1.400 . S
C1053 C1047 1.491 . S
C1053 C1052 1.400 . S
C1053 C1054 1.398 . S
C1054 H1042 0.950 . S
C1054 C1053 1.398 . S
C1054 C1055 1.391 . S
C1055 H1043 0.950 . S
C1055 C1051 1.393 . S
C1055 C1054 1.391 . S
H1056 C1064 0.950 . S
H1057 C1069 0.950 . S
H1058 C1066 0.950 . S
H1059 C1068 0.950 . S
H1060 C1070 0.950 . S
H1061 C1072 0.950 . S
H1062 C1074 0.950 . S
H1063 C1075 0.950 . S
C1064 H1056 0.950 . S
C1064 C1065 1.386 . S
C1064 C1066 1.391 . S
C1065 C1064 1.386 . S
C1065 C1069 1.393 . S
C1066 H1058 0.950 . S
C1066 C1064 1.391 . S
C1066 C1067 1.400 . S
C1067 C1066 1.400 . S
C1067 C1068 1.398 . S
C1067 C1073 1.491 . S
C1068 H1059 0.950 . S
C1068 C1067 1.398 . S
C1068 C1069 1.391 . S
C1069 H1057 0.950 . S
C1069 C1065 1.393 . S
C1069 C1068 1.391 . S
C1070 H1060 0.950 . S
C1070 C1071 1.386 . S
C1070 C1072 1.391 . S
C1071 C1070 1.386 . S
C1071 C1075 1.393 . S
C1072 H1061 0.950 . S
C1072 C1070 1.391 . S
C1072 C1073 1.400 . S
C1073 C1067 1.491 . S
C1073 C1072 1.400 . S
C1073 C1074 1.398 . S
C1074 H1062 0.950 . S
C1074 C1073 1.398 . S
C1074 C1075 1.391 . S
C1075 H1063 0.950 . S
C1075 C1071 1.393 . S
C1075 C1074 1.391 . S
H1076 C1084 0.950 . S
H1077 C1089 0.950 . S
H1078 C1086 0.950 . S
H1079 C1088 0.950 1_554 S
H1080 C1090 0.950 . S
H1081 C1092 0.950 . S
H1082 C1094 0.950 . S
H1083 C1095 0.950 . S
C1084 H1076 0.950 . S
C1084 C1085 1.386 . S
C1084 C1086 1.391 . S
C1085 C1084 1.386 . S
C1085 C1089 1.393 . S
C1086 H1078 0.950 . S
C1086 C1084 1.391 . S
C1086 C1087 1.400 . S
C1087 C1086 1.400 . S
C1087 C1088 1.398 . S
C1087 C1093 1.491 1_556 S
C1088 H1079 0.950 1_556 S
C1088 C1087 1.398 . S
C1088 C1089 1.391 . S
C1089 H1077 0.950 . S
C1089 C1085 1.393 . S
C1089 C1088 1.391 . S
C1090 H1080 0.950 . S
C1090 C1091 1.386 . S
C1090 C1092 1.391 . S
C1091 C1090 1.386 . S
C1091 C1095 1.393 . S
C1092 H1081 0.950 . S
C1092 C1090 1.391 . S
C1092 C1093 1.400 . S
C1093 C1087 1.491 1_554 S
C1093 C1092 1.400 . S
C1093 C1094 1.398 . S
C1094 H1082 0.950 . S
C1094 C1093 1.398 . S
C1094 C1095 1.391 . S
C1095 H1083 0.950 . S
C1095 C1091 1.393 . S
C1095 C1094 1.391 . S
H1096 C1104 0.950 . S
H1097 C1109 0.950 . S
H1098 C1106 0.950 . S
H1099 C1108 0.950 . S
H1100 C1110 0.950 . S
H1101 C1112 0.950 . S
H1102 C1114 0.950 . S
H1103 C1115 0.950 . S
C1104 H1096 0.950 . S
C1104 C1105 1.386 . S
C1104 C1106 1.391 . S
C1105 C1104 1.386 . S
C1105 C1109 1.393 . S
C1106 H1098 0.950 . S
C1106 C1104 1.391 . S
C1106 C1107 1.400 . S
C1107 C1106 1.400 . S
C1107 C1108 1.398 . S
C1107 C1113 1.491 . S
C1108 H1099 0.950 . S
C1108 C1107 1.398 . S
C1108 C1109 1.391 . S
C1109 H1097 0.950 . S
C1109 C1105 1.393 . S
C1109 C1108 1.391 . S
C1110 H1100 0.950 . S
C1110 C1111 1.386 . S
C1110 C1112 1.391 . S
C1111 C1110 1.386 . S
C1111 C1115 1.393 . S
C1112 H1101 0.950 . S
C1112 C1110 1.391 . S
C1112 C1113 1.400 . S
C1113 C1107 1.491 . S
C1113 C1112 1.400 . S
C1113 C1114 1.398 . S
C1114 H1102 0.950 . S
C1114 C1113 1.398 . S
C1114 C1115 1.391 . S
C1115 H1103 0.950 . S
C1115 C1111 1.393 . S
C1115 C1114 1.391 . S
H1116 C1124 0.950 . S
H1117 C1129 0.950 . S
H1118 C1126 0.950 . S
H1119 C1128 0.950 . S
H1120 C1130 0.950 . S
H1121 C1132 0.950 . S
H1122 C1134 0.950 . S
H1123 C1135 0.950 . S
C1124 H1116 0.950 . S
C1124 C1125 1.386 . S
C1124 C1126 1.391 . S
C1125 C1124 1.386 . S
C1125 C1129 1.393 . S
C1126 H1118 0.950 . S
C1126 C1124 1.391 . S
C1126 C1127 1.400 . S
C1127 C1126 1.400 . S
C1127 C1128 1.398 . S
C1127 C1133 1.491 1_554 S
C1128 H1119 0.950 . S
C1128 C1127 1.398 . S
C1128 C1129 1.391 . S
C1129 H1117 0.950 . S
C1129 C1125 1.393 . S
C1129 C1128 1.391 . S
C1130 H1120 0.950 . S
C1130 C1131 1.386 . S
C1130 C1132 1.391 . S
C1131 C1130 1.386 . S
C1131 C1135 1.393 . S
C1132 H1121 0.950 . S
C1132 C1130 1.391 . S
C1132 C1133 1.400 . S
C1133 C1127 1.491 1_556 S
C1133 C1132 1.400 . S
C1133 C1134 1.398 . S
C1134 H1122 0.950 . S
C1134 C1133 1.398 . S
C1134 C1135 1.391 . S
C1135 H1123 0.950 . S
C1135 C1131 1.393 . S
C1135 C1134 1.391 . S
H1136 C1144 0.950 . S
H1137 C1149 0.950 . S
H1138 C1146 0.950 . S
H1139 C1148 0.950 . S
H1140 C1150 0.950 . S
H1141 C1152 0.950 . S
H1142 C1154 0.950 . S
H1143 C1155 0.950 . S
C1144 H1136 0.950 . S
C1144 C1145 1.386 . S
C1144 C1146 1.391 . S
C1145 C1144 1.386 . S
C1145 C1149 1.393 . S
C1146 H1138 0.950 . S
C1146 C1144 1.391 . S
C1146 C1147 1.400 . S
C1147 C1146 1.400 . S
C1147 C1148 1.398 . S
C1147 C1153 1.491 . S
C1148 H1139 0.950 . S
C1148 C1147 1.398 . S
C1148 C1149 1.391 . S
C1149 H1137 0.950 . S
C1149 C1145 1.393 . S
C1149 C1148 1.391 . S
C1150 H1140 0.950 . S
C1150 C1151 1.386 . S
C1150 C1152 1.391 . S
C1151 C1150 1.386 . S
C1151 C1155 1.393 . S
C1152 H1141 0.950 . S
C1152 C1150 1.391 . S
C1152 C1153 1.400 . S
C1153 C1147 1.491 . S
C1153 C1152 1.400 . S
C1153 C1154 1.398 . S
C1154 H1142 0.950 . S
C1154 C1153 1.398 . S
C1154 C1155 1.391 . S
C1155 H1143 0.950 . S
C1155 C1151 1.393 . S
C1155 C1154 1.391 . S
H1156 C1164 0.950 . S
H1157 C1169 0.950 . S
H1158 C1166 0.950 . S
H1159 C1168 0.950 . S
H1160 C1170 0.950 . S
H1161 C1172 0.950 1_655 S
H1162 C1174 0.950 . S
H1163 C1175 0.950 . S
C1164 H1156 0.950 . S
C1164 C1165 1.386 . S
C1164 C1166 1.391 . S
C1165 C1164 1.386 . S
C1165 C1169 1.393 . S
C1166 H1158 0.950 . S
C1166 C1164 1.391 . S
C1166 C1167 1.400 . S
C1167 C1166 1.400 . S
C1167 C1168 1.398 . S
C1167 C1173 1.491 1_655 S
C1168 H1159 0.950 . S
C1168 C1167 1.398 . S
C1168 C1169 1.391 . S
C1169 H1157 0.950 . S
C1169 C1165 1.393 . S
C1169 C1168 1.391 . S
C1170 H1160 0.950 . S
C1170 C1171 1.386 . S
C1170 C1172 1.391 . S
C1171 C1170 1.386 . S
C1171 C1175 1.393 . S
C1172 H1161 0.950 1_455 S
C1172 C1170 1.391 . S
C1172 C1173 1.400 . S
C1173 C1167 1.491 1_455 S
C1173 C1172 1.400 . S
C1173 C1174 1.398 . S
C1174 H1162 0.950 . S
C1174 C1173 1.398 . S
C1174 C1175 1.391 . S
C1175 H1163 0.950 . S
C1175 C1171 1.393 . S
C1175 C1174 1.391 . S
H1176 C1184 0.950 . S
H1177 C1189 0.950 . S
H1178 C1186 0.950 . S
H1179 C1188 0.950 . S
H1180 C1190 0.950 . S
H1181 C1192 0.950 . S
H1182 C1194 0.950 1_455 S
H1183 C1195 0.950 . S
C1184 H1176 0.950 . S
C1184 C1185 1.386 . S
C1184 C1186 1.391 . S
C1185 C1184 1.386 . S
C1185 C1189 1.393 . S
C1186 H1178 0.950 . S
C1186 C1184 1.391 . S
C1186 C1187 1.400 . S
C1187 C1186 1.400 . S
C1187 C1188 1.398 . S
C1187 C1193 1.491 1_455 S
C1188 H1179 0.950 . S
C1188 C1187 1.398 . S
C1188 C1189 1.391 . S
C1189 H1177 0.950 . S
C1189 C1185 1.393 . S
C1189 C1188 1.391 . S
C1190 H1180 0.950 . S
C1190 C1191 1.386 . S
C1190 C1192 1.391 . S
C1191 C1190 1.386 . S
C1191 C1195 1.393 . S
C1192 H1181 0.950 . S
C1192 C1190 1.391 . S
C1192 C1193 1.400 . S
C1193 C1187 1.491 1_655 S
C1193 C1192 1.400 . S
C1193 C1194 1.398 . S
C1194 H1182 0.950 1_655 S
C1194 C1193 1.398 . S
C1194 C1195 1.391 . S
C1195 H1183 0.950 . S
C1195 C1191 1.393 . S
C1195 C1194 1.391 . S
H1196 C1204 0.950 . S
H1197 C1209 0.950 . S
H1198 C1206 0.950 . S
H1199 C1208 0.950 . S
H1200 C1210 0.950 . S
H1201 C1212 0.950 . S
H1202 C1214 0.950 . S
H1203 C1215 0.950 . S
C1204 H1196 0.950 . S
C1204 C1205 1.386 . S
C1204 C1206 1.391 . S
C1205 C1204 1.386 . S
C1205 C1209 1.393 . S
C1206 H1198 0.950 . S
C1206 C1204 1.391 . S
C1206 C1207 1.400 . S
C1207 C1206 1.400 . S
C1207 C1208 1.398 . S
C1207 C1213 1.491 . S
C1208 H1199 0.950 . S
C1208 C1207 1.398 . S
C1208 C1209 1.391 . S
C1209 H1197 0.950 . S
C1209 C1205 1.393 . S
C1209 C1208 1.391 . S
C1210 H1200 0.950 . S
C1210 C1211 1.386 . S
C1210 C1212 1.391 . S
C1211 C1210 1.386 . S
C1211 C1215 1.393 . S
C1212 H1201 0.950 . S
C1212 C1210 1.391 . S
C1212 C1213 1.400 . S
C1213 C1207 1.491 . S
C1213 C1212 1.400 . S
C1213 C1214 1.398 . S
C1214 H1202 0.950 . S
C1214 C1213 1.398 . S
C1214 C1215 1.391 . S
C1215 H1203 0.950 . S
C1215 C1211 1.393 . S
C1215 C1214 1.391 . S
H1216 C1224 0.950 . S
H1217 C1229 0.950 . S
H1218 C1226 0.950 . S
H1219 C1228 0.950 . S
H1220 C1230 0.950 . S
H1221 C1232 0.950 . S
H1222 C1234 0.950 . S
H1223 C1235 0.950 . S
C1224 H1216 0.950 . S
C1224 C1225 1.386 . S
C1224 C1226 1.391 . S
C1225 C1224 1.386 . S
C1225 C1229 1.393 . S
C1226 H1218 0.950 . S
C1226 C1224 1.391 . S
C1226 C1227 1.400 . S
C1227 C1226 1.400 . S
C1227 C1228 1.398 . S
C1227 C1233 1.491 . S
C1228 H1219 0.950 . S
C1228 C1227 1.398 . S
C1228 C1229 1.391 . S
C1229 H1217 0.950 . S
C1229 C1225 1.393 . S
C1229 C1228 1.391 . S
C1230 H1220 0.950 . S
C1230 C1231 1.386 . S
C1230 C1232 1.391 . S
C1231 C1230 1.386 . S
C1231 C1235 1.393 . S
C1232 H1221 0.950 . S
C1232 C1230 1.391 . S
C1232 C1233 1.400 . S
C1233 C1227 1.491 . S
C1233 C1232 1.400 . S
C1233 C1234 1.398 . S
C1234 H1222 0.950 . S
C1234 C1233 1.398 . S
C1234 C1235 1.391 . S
C1235 H1223 0.950 . S
C1235 C1231 1.393 . S
C1235 C1234 1.391 . S
H1236 C1244 0.950 . S
H1237 C1249 0.950 . S
H1238 C1246 0.950 . S
H1239 C1248 0.950 . S
H1240 C1250 0.950 . S
H1241 C1252 0.950 . S
H1242 C1254 0.950 . S
H1243 C1255 0.950 . S
C1244 H1236 0.950 . S
C1244 C1245 1.386 . S
C1244 C1246 1.391 . S
C1245 C1244 1.386 . S
C1245 C1249 1.393 . S
C1246 H1238 0.950 . S
C1246 C1244 1.391 . S
C1246 C1247 1.400 . S
C1247 C1246 1.400 . S
C1247 C1248 1.398 . S
C1247 C1253 1.491 1_565 S
C1248 H1239 0.950 . S
C1248 C1247 1.398 . S
C1248 C1249 1.391 . S
C1249 H1237 0.950 . S
C1249 C1245 1.393 . S
C1249 C1248 1.391 . S
C1250 H1240 0.950 . S
C1250 C1251 1.386 . S
C1250 C1252 1.391 . S
C1251 C1250 1.386 . S
C1251 C1255 1.393 . S
C1252 H1241 0.950 . S
C1252 C1250 1.391 . S
C1252 C1253 1.400 . S
C1253 C1247 1.491 1_545 S
C1253 C1252 1.400 . S
C1253 C1254 1.398 . S
C1254 H1242 0.950 . S
C1254 C1253 1.398 . S
C1254 C1255 1.391 . S
C1255 H1243 0.950 . S
C1255 C1251 1.393 . S
C1255 C1254 1.391 . S
H1256 C1264 0.950 . S
H1257 C1269 0.950 . S
H1258 C1266 0.918 1_545 S
H1259 C1268 0.950 . S
H1260 C1270 0.950 . S
H1261 C1272 0.950 . S
H1262 C1274 0.950 . S
H1263 C1275 0.950 . S
C1264 H1256 0.950 . S
C1264 C1265 1.386 . S
C1264 C1266 1.391 . S
C1265 C1264 1.386 . S
C1265 C1269 1.393 . S
C1266 H1258 0.918 1_565 S
C1266 C1264 1.391 . S
C1266 C1267 1.400 . S
C1267 C1266 1.400 . S
C1267 C1268 1.398 . S
C1267 C1273 1.491 1_565 S
C1268 H1259 0.950 . S
C1268 C1267 1.398 . S
C1268 C1269 1.391 . S
C1269 H1257 0.950 . S
C1269 C1265 1.393 . S
C1269 C1268 1.391 . S
C1270 H1260 0.950 . S
C1270 C1271 1.386 . S
C1270 C1272 1.391 . S
C1271 C1270 1.386 . S
C1271 C1275 1.393 . S
C1272 H1261 0.950 . S
C1272 C1270 1.391 . S
C1272 C1273 1.400 . S
C1273 C1267 1.491 1_545 S
C1273 C1272 1.400 . S
C1273 C1274 1.398 . S
C1274 H1262 0.950 . S
C1274 C1273 1.398 . S
C1274 C1275 1.391 . S
C1275 H1263 0.950 . S
C1275 C1271 1.393 . S
C1275 C1274 1.391 . S
H1276 C1284 0.950 . S
H1277 C1289 0.950 . S
H1278 C1286 0.950 . S
H1279 C1288 0.950 . S
H1280 C1290 0.950 . S
H1281 C1292 0.950 . S
H1282 C1294 0.950 . S
H1283 C1295 0.950 . S
C1284 H1276 0.950 . S
C1284 C1285 1.386 . S
C1284 C1286 1.391 . S
C1285 C1284 1.386 . S
C1285 C1289 1.393 . S
C1286 H1278 0.950 . S
C1286 C1284 1.391 . S
C1286 C1287 1.400 . S
C1287 C1286 1.400 . S
C1287 C1288 1.398 . S
C1287 C1293 1.491 . S
C1288 H1279 0.950 . S
C1288 C1287 1.398 . S
C1288 C1289 1.391 . S
C1289 H1277 0.950 . S
C1289 C1285 1.393 . S
C1289 C1288 1.391 . S
C1290 H1280 0.950 . S
C1290 C1291 1.386 . S
C1290 C1292 1.391 . S
C1291 C1290 1.386 . S
C1291 C1295 1.393 . S
C1292 H1281 0.950 . S
C1292 C1290 1.391 . S
C1292 C1293 1.400 . S
C1293 C1287 1.491 . S
C1293 C1292 1.400 . S
C1293 C1294 1.398 . S
C1294 H1282 0.950 . S
C1294 C1293 1.398 . S
C1294 C1295 1.391 . S
C1295 H1283 0.950 . S
C1295 C1291 1.393 . S
C1295 C1294 1.391 . S
C345 C121 1.257 . S
C351 C8 1.211 . S
C365 C22 1.196 . S
C371 C163 1.244 . S
C385 C36 1.213 . S
C391 C135 1.257 . S
C405 C50 1.204 . S
C411 C149 1.243 . S
C425 C64 1.228 . S
C431 C9 1.256 . S
C445 C23 1.244 . S
C451 C78 1.208 . S
C465 C92 1.227 . S
C471 C37 1.258 . S
C485 C51 1.258 . S
C491 C106 1.214 . S
C505 C65 1.253 . S
C511 C120 1.202 . S
C525 C93 1.243 . S
C531 C134 1.204 . S
C545 C148 1.227 . S
C551 C107 1.254 . S
C565 C79 1.258 . S
C571 C162 1.227 . S
C585 C289 1.249 . S
C591 C176 1.196 . S
C605 C190 1.200 . S
C611 C331 1.243 . S
C625 C204 1.228 . S
C631 C303 1.255 . S
C645 C317 1.257 . S
C651 C218 1.213 . S
C665 C232 1.206 . S
C671 C177 1.255 . S
C685 C191 1.257 . S
C691 C246 1.228 . S
C705 C205 1.255 . S
C711 C260 1.228 . S
C725 C274 1.200 . S
C731 C219 1.243 . S
C745 C288 1.228 . S
C751 C233 1.256 . S
C765 C261 1.256 . S
C771 C302 1.209 . S
C785 C275 1.258 . S
C791 C316 1.219 . S
C805 C330 1.225 . S
C811 C247 1.258 . S
C825 C314 1.513 . S
C831 C7 1.558 . S
C845 C300 1.518 . S
C851 C21 1.550 . S
C865 C328 1.492 . S
C871 C35 1.545 . S
C885 C49 1.556 . S
C891 C286 1.517 . S
C905 C63 1.543 . S
C911 C188 1.495 . S
C925 C174 1.492 . S
C931 C77 1.544 . S
C945 C216 1.513 . S
C951 C91 1.558 . S
C965 C202 1.492 . S
C971 C105 1.550 . S
C985 C119 1.557 . S
C991 C258 1.516 . S
C1005 C230 1.513 . S
C1011 C133 1.558 . S
C1025 C244 1.506 . S
C1031 C147 1.558 . S
C1045 C272 1.519 . S
C1051 C161 1.554 . S
C1065 C146 1.496 . S
C1071 C175 1.554 . S
C1085 C132 1.514 . S
C1091 C189 1.546 . S
C1105 C203 1.552 . S
C1111 C160 1.493 . S
C1125 C118 1.492 . S
C1131 C217 1.546 . S
C1145 C231 1.546 . S
C1151 C20 1.514 . S
C1165 C245 1.544 . S
C1171 C6 1.510 . S
C1185 C259 1.556 . S
C1191 C48 1.499 . S
C1205 C273 1.552 . S
C1211 C34 1.519 . S
C1225 C287 1.546 . S
C1231 C90 1.491 . S
C1245 C301 1.548 . S
C1251 C62 1.491 . S
C1265 C76 1.509 . S
C1271 C315 1.558 . S
C1285 C329 1.542 . S
C1291 C104 1.500 . S
