# Generated by pormake.
# Topology wlc, (5)-cn, num edge types: 1
# Building blocks:
#     Node 0, Type 0, BuildingBlock: BEQFEK_clean_sbu_0, # of connection points: 5
#     Node 1, Type 0, BuildingBlock: BEQFEK_clean_sbu_0, # of connection points: 5
#     Node 2, Type 0, BuildingBlock: BEQFEK_clean_sbu_0, # of connection points: 5
#     Node 3, Type 0, BuildingBlock: BEQFEK_clean_sbu_0, # of connection points: 5
#     Node 4, Type 0, BuildingBlock: BEQFEK_clean_sbu_0, # of connection points: 5
#     Node 5, Type 0, BuildingBlock: BEQFEK_clean_sbu_0, # of connection points: 5
#     Node 6, Type 0, BuildingBlock: BEQFEK_clean_sbu_0, # of connection points: 5
#     Node 7, Type 0, BuildingBlock: BEQFEK_clean_sbu_0, # of connection points: 5
#     Node 8, Type 0, BuildingBlock: BEQFEK_clean_sbu_0, # of connection points: 5
#     Node 9, Type 0, BuildingBlock: BEQFEK_clean_sbu_0, # of connection points: 5
#     Node 10, Type 0, BuildingBlock: BEQFEK_clean_sbu_0, # of connection points: 5
#     Node 11, Type 0, BuildingBlock: BEQFEK_clean_sbu_0, # of connection points: 5
#     Edge 12, Type (0, 0), BuildingBlock: ZUJKAS_clean_linker_0, # of connection points: 2
#     Edge 13, Type (0, 0), BuildingBlock: ZUJKAS_clean_linker_0, # of connection points: 2
#     Edge 14, Type (0, 0), BuildingBlock: ZUJKAS_clean_linker_0, # of connection points: 2
#     Edge 15, Type (0, 0), BuildingBlock: ZUJKAS_clean_linker_0, # of connection points: 2
#     Edge 16, Type (0, 0), BuildingBlock: ZUJKAS_clean_linker_0, # of connection points: 2
#     Edge 17, Type (0, 0), BuildingBlock: ZUJKAS_clean_linker_0, # of connection points: 2
#     Edge 18, Type (0, 0), BuildingBlock: ZUJKAS_clean_linker_0, # of connection points: 2
#     Edge 19, Type (0, 0), BuildingBlock: ZUJKAS_clean_linker_0, # of connection points: 2
#     Edge 20, Type (0, 0), BuildingBlock: ZUJKAS_clean_linker_0, # of connection points: 2
#     Edge 21, Type (0, 0), BuildingBlock: ZUJKAS_clean_linker_0, # of connection points: 2
#     Edge 22, Type (0, 0), BuildingBlock: ZUJKAS_clean_linker_0, # of connection points: 2
#     Edge 23, Type (0, 0), BuildingBlock: ZUJKAS_clean_linker_0, # of connection points: 2
#     Edge 24, Type (0, 0), BuildingBlock: ZUJKAS_clean_linker_0, # of connection points: 2
#     Edge 25, Type (0, 0), BuildingBlock: ZUJKAS_clean_linker_0, # of connection points: 2
#     Edge 26, Type (0, 0), BuildingBlock: ZUJKAS_clean_linker_0, # of connection points: 2
#     Edge 27, Type (0, 0), BuildingBlock: ZUJKAS_clean_linker_0, # of connection points: 2
#     Edge 28, Type (0, 0), BuildingBlock: ZUJKAS_clean_linker_0, # of connection points: 2
#     Edge 29, Type (0, 0), BuildingBlock: ZUJKAS_clean_linker_0, # of connection points: 2
#     Edge 30, Type (0, 0), BuildingBlock: ZUJKAS_clean_linker_0, # of connection points: 2
#     Edge 31, Type (0, 0), BuildingBlock: ZUJKAS_clean_linker_0, # of connection points: 2
#     Edge 32, Type (0, 0), BuildingBlock: ZUJKAS_clean_linker_0, # of connection points: 2
#     Edge 33, Type (0, 0), BuildingBlock: ZUJKAS_clean_linker_0, # of connection points: 2
#     Edge 34, Type (0, 0), BuildingBlock: ZUJKAS_clean_linker_0, # of connection points: 2
#     Edge 35, Type (0, 0), BuildingBlock: ZUJKAS_clean_linker_0, # of connection points: 2
#     Edge 36, Type (0, 0), BuildingBlock: ZUJKAS_clean_linker_0, # of connection points: 2
#     Edge 37, Type (0, 0), BuildingBlock: ZUJKAS_clean_linker_0, # of connection points: 2
#     Edge 38, Type (0, 0), BuildingBlock: ZUJKAS_clean_linker_0, # of connection points: 2
#     Edge 39, Type (0, 0), BuildingBlock: ZUJKAS_clean_linker_0, # of connection points: 2
#     Edge 40, Type (0, 0), BuildingBlock: ZUJKAS_clean_linker_0, # of connection points: 2
#     Edge 41, Type (0, 0), BuildingBlock: ZUJKAS_clean_linker_0, # of connection points: 2
# Relax obj value: 0.764
# Max RMSD: 0.283
# Mean RMSD: 0.283
data_MOF--net-wlc--node1-BEQFEK_clean_sbu_0--edge1-ZUJKAS_clean_linker_0
_symmetry_space_group_name_H-M    P1
_symmetry_Int_Tables_number       1
_symmetry_cell_setting            triclinic
loop_
_symmetry_equiv_pos_as_xyz
'x, y, z'
_cell_length_a     60.113318
_cell_length_b     60.107961
_cell_length_c     37.787238
_cell_angle_alpha  89.971421
_cell_angle_beta   89.99677
_cell_angle_gamma 120.00917
loop_
_atom_site_label
_atom_site_type_symbol
_atom_site_fract_x
_atom_site_fract_y
_atom_site_fract_z
_atom_type_partial_charge
Co0 Co 0.0737 0.40057 0.13828 0.0
Co1 Co 0.04996 0.35544 0.08433 0.0
C2 C 0.09959 0.37114 0.12302 0.0
O3 O 0.09962 0.39028 0.13712 0.0
O4 O 0.08143 0.3559 0.10277 0.0
C5 C 0.11051 0.45007 0.16315 0.0
O6 O 0.12446 0.4489 0.13724 0.0
C7 C 0.05251 0.33728 0.01445 0.0
C8 C 0.01546 0.30117 0.00926 0.0
C9 C 0.03792 0.31744 0.9912 0.0
N10 N 0.03919 0.33317 0.04459 0.0
N11 N 0.01717 0.31139 0.04158 0.0
C12 C 0.07908 0.35948 0.00875 0.0
H13 H 0.07799 0.37582 0.99704 0.0
H14 H 0.09001 0.35408 0.99038 0.0
H15 H 0.08938 0.36603 0.03433 0.0
C16 C 0.0635 0.42743 0.08113 0.0
N17 N 0.06554 0.40741 0.09303 0.0
N18 N 0.05441 0.38822 0.07052 0.0
C19 C 0.04428 0.39533 0.04383 0.0
C20 C 0.05017 0.42059 0.0494 0.0
C21 C 0.06988 0.45076 0.10283 0.0
H22 H 0.0623 0.44492 0.13004 0.0
H23 H 0.09104 0.46319 0.10423 0.0
H24 H 0.06172 0.46215 0.09148 0.0
O25 O 0.04215 0.37307 0.16112 0.0
O26 O 0.024 0.34082 0.12256 0.0
H27 H 0.01327 0.35842 0.02823 0.0
H28 H 0.01539 0.38505 0.00296 0.0
C29 C 0.02659 0.37734 0.01616 0.0
H30 H 0.038 0.37443 0.99559 0.0
H31 H 0.00315 0.30375 0.06131 0.0
O32 O 0.08798 0.43134 0.16829 0.0
C33 C 0.02417 0.35068 0.15251 0.0
Co34 Co 0.60706 0.669 0.15239 0.0
Co35 Co 0.65123 0.69103 0.09663 0.0
C36 C 0.63417 0.72429 0.13271 0.0
O37 O 0.61672 0.70503 0.14905 0.0
O38 O 0.64932 0.72198 0.11147 0.0
C39 C 0.55765 0.65676 0.17471 0.0
O40 O 0.55917 0.67007 0.1463 0.0
C41 C 0.67135 0.71191 0.02729 0.0
C42 C 0.70415 0.70529 0.02166 0.0
C43 C 0.6903 0.7146 0.00379 0.0
N44 N 0.67386 0.70143 0.05732 0.0
N45 N 0.69377 0.69792 0.05411 0.0
C46 C 0.64944 0.7165 0.02046 0.0
H47 H 0.63405 0.70644 0.04044 0.0
H48 H 0.6415 0.70985 0.99353 0.0
H49 H 0.65643 0.7374 0.02224 0.0
C50 C 0.58018 0.63066 0.09659 0.0
N51 N 0.6002 0.65292 0.10791 0.0
N52 N 0.6187 0.66159 0.08418 0.0
C53 C 0.61095 0.64474 0.05692 0.0
C54 C 0.58613 0.62485 0.06374 0.0
C55 C 0.55754 0.61325 0.11913 0.0
H56 H 0.5638 0.61341 0.14675 0.0
H57 H 0.54355 0.62017 0.11887 0.0
H58 H 0.54773 0.59317 0.10933 0.0
O59 O 0.63503 0.66642 0.17585 0.0
O60 O 0.66687 0.68213 0.13652 0.0
H61 H 0.64675 0.65093 0.03601 0.0
H62 H 0.6189 0.62867 0.01049 0.0
C63 C 0.62759 0.64661 0.0263 0.0
H64 H 0.6302 0.6625 0.00875 0.0
H65 H 0.69968 0.68965 0.07356 0.0
O66 O 0.5763 0.65338 0.18261 0.0
C67 C 0.6578 0.67241 0.16678 0.0
Co68 Co 0.32698 0.92876 0.14176 0.0
Co69 Co 0.30252 0.94804 0.08543 0.0
C70 C 0.2712 0.89894 0.1256 0.0
O71 O 0.29107 0.90187 0.14149 0.0
O72 O 0.27252 0.91522 0.1029 0.0
C73 C 0.33964 0.89301 0.17088 0.0
O74 O 0.32128 0.87696 0.14968 0.0
C75 C 0.28167 0.94643 0.01529 0.0
C76 C 0.28472 0.98452 0.0115 0.0
C77 C 0.27771 0.96225 0.99241 0.0
N78 N 0.29078 0.95894 0.04604 0.0
N79 N 0.29211 0.9815 0.04388 0.0
C80 C 0.27922 0.92088 0.00748 0.0
H81 H 0.28929 0.9159 0.02787 0.0
H82 H 0.28714 0.921 0.98091 0.0
H83 H 0.2586 0.90591 0.00774 0.0
C84 C 0.36347 0.93832 0.08449 0.0
N85 N 0.34139 0.93624 0.09626 0.0
N86 N 0.3323 0.94565 0.07253 0.0
C87 C 0.34895 0.95469 0.045 0.0
C88 C 0.36895 0.94986 0.05148 0.0
C89 C 0.381 0.93315 0.10684 0.0
H90 H 0.38391 0.94275 0.13285 0.0
H91 H 0.37199 0.91217 0.11134 0.0
H92 H 0.40004 0.94012 0.09433 0.0
O93 O 0.32965 0.95995 0.16326 0.0
O94 O 0.3116 0.97359 0.1239 0.0
H95 H 0.34061 0.98301 0.02442 0.0
H96 H 0.36574 0.9809 0.00083 0.0
C97 C 0.3471 0.96978 0.01476 0.0
H98 H 0.33282 0.95637 0.99546 0.0
H99 H 0.29895 0.99519 0.06406 0.0
O100 O 0.3451 0.91634 0.17202 0.0
C101 C 0.32253 0.97576 0.15361 0.0
Co102 Co 0.60429 0.93485 0.34483 0.0
Co103 Co 0.64867 0.95429 0.4001 0.0
C104 C 0.63104 0.90573 0.35778 0.0
O105 O 0.61333 0.90809 0.3433 0.0
O106 O 0.64629 0.92219 0.38004 0.0
C107 C 0.55656 0.89926 0.31429 0.0
O108 O 0.55995 0.88289 0.33329 0.0
C109 C 0.6636 0.9493 0.47092 0.0
C110 C 0.70228 0.98321 0.47704 0.0
C111 C 0.68349 0.96189 0.49485 0.0
N112 N 0.67011 0.96267 0.44056 0.0
N113 N 0.69339 0.98278 0.44414 0.0
C114 C 0.63909 0.9244 0.47615 0.0
H115 H 0.62434 0.9281 0.48784 0.0
H116 H 0.64214 0.91173 0.49448 0.0
H117 H 0.63169 0.91462 0.45038 0.0
C118 C 0.57788 0.94398 0.40289 0.0
N119 N 0.59751 0.94139 0.39088 0.0
N120 N 0.61656 0.95157 0.4137 0.0
C121 C 0.60984 0.96195 0.44054 0.0
C122 C 0.58495 0.95709 0.43471 0.0
C123 C 0.55408 0.93708 0.38207 0.0
H124 H 0.54452 0.91648 0.37482 0.0
H125 H 0.54029 0.94046 0.39735 0.0
H126 H 0.55935 0.94862 0.35739 0.0
O127 O 0.63305 0.96666 0.32431 0.0
O128 O 0.6651 0.98117 0.36329 0.0
H129 H 0.62271 0.99456 0.47545 0.0
H130 H 0.62794 0.96942 0.49125 0.0
C131 C 0.62825 0.98024 0.46733 0.0
H132 H 0.64804 0.99037 0.45648 0.0
H133 H 0.70298 0.99645 0.42439 0.0
O134 O 0.57354 0.92295 0.31497 0.0
C135 C 0.65588 0.98308 0.33378 0.0
Co136 Co 0.06862 0.66988 0.35477 0.0
Co137 Co 0.05005 0.69493 0.41107 0.0
C138 C 0.09876 0.72567 0.36963 0.0
O139 O 0.09583 0.70552 0.35467 0.0
O140 O 0.08246 0.72471 0.39196 0.0
C141 C 0.10356 0.65557 0.3291 0.0
O142 O 0.1172 0.66963 0.35599 0.0
C143 C 0.05441 0.71619 0.4814 0.0
C144 C 0.0181 0.71666 0.48734 0.0
C145 C 0.04044 0.72203 0.50504 0.0
N146 N 0.0408 0.70741 0.45139 0.0
N147 N 0.01925 0.70803 0.45487 0.0
C148 C 0.08069 0.71972 0.48656 0.0
H149 H 0.09078 0.72337 0.46081 0.0
H150 H 0.07915 0.702 0.49789 0.0
H151 H 0.09209 0.73585 0.50503 0.0
C152 C 0.05831 0.63304 0.41204 0.0
N153 N 0.06126 0.65551 0.40031 0.0
N154 N 0.05219 0.66499 0.42395 0.0
C155 C 0.04245 0.64824 0.4513 0.0
C156 C 0.04657 0.62777 0.4449 0.0
C157 C 0.0624 0.61482 0.38961 0.0
H158 H 0.08328 0.6219 0.38754 0.0
H159 H 0.05292 0.59515 0.40087 0.0
H160 H 0.05466 0.61385 0.36268 0.0
O161 O 0.03735 0.66763 0.33391 0.0
O162 O 0.02372 0.68555 0.3736 0.0
H163 H 0.0142 0.65726 0.47027 0.0
H164 H 0.01472 0.63128 0.49384 0.0
C165 C 0.02671 0.65008 0.48067 0.0
H166 H 0.03962 0.66376 0.50089 0.0
H167 H 0.0051 0.70208 0.43537 0.0
O168 O 0.08132 0.65245 0.32365 0.0
C169 C 0.02148 0.67463 0.34382 0.0
Co170 Co 0.32424 0.40418 0.35409 0.0
Co171 Co 0.30281 0.35894 0.40789 0.0
C172 C 0.26894 0.37461 0.3686 0.0
O173 O 0.2881 0.3939 0.35484 0.0
O174 O 0.27185 0.35937 0.38893 0.0
C175 C 0.33711 0.45359 0.32814 0.0
O176 O 0.32125 0.45235 0.353 0.0
C177 C 0.28295 0.34157 0.47829 0.0
C178 C 0.28165 0.30431 0.48289 0.0
C179 C 0.27698 0.32147 0.50138 0.0
N180 N 0.29106 0.33673 0.44771 0.0
N181 N 0.28996 0.31427 0.45037 0.0
C182 C 0.28015 0.36464 0.48456 0.0
H183 H 0.2975 0.37982 0.49802 0.0
H184 H 0.26333 0.35956 0.50184 0.0
H185 H 0.27803 0.37255 0.45906 0.0
C186 C 0.36092 0.43112 0.41145 0.0
N187 N 0.33898 0.411 0.39946 0.0
N188 N 0.33115 0.39169 0.42173 0.0
C189 C 0.34854 0.39875 0.4482 0.0
C190 C 0.36764 0.42417 0.4429 0.0
C191 C 0.37759 0.45473 0.39004 0.0
H192 H 0.38013 0.44916 0.36304 0.0
H193 H 0.36814 0.46648 0.388 0.0
H194 H 0.39684 0.46672 0.402 0.0
O195 O 0.32826 0.37656 0.33155 0.0
O196 O 0.31434 0.34428 0.37006 0.0
H197 H 0.34176 0.36136 0.46314 0.0
H198 H 0.36837 0.38768 0.48604 0.0
C199 C 0.34886 0.38059 0.4751 0.0
H200 H 0.33606 0.37865 0.4974 0.0
H201 H 0.29532 0.30599 0.43026 0.0
O202 O 0.34112 0.4349 0.32397 0.0
C203 C 0.32399 0.35421 0.3401 0.0
Co204 Co 0.92631 0.60094 0.85491 0.0
Co205 Co 0.94467 0.64447 0.91132 0.0
C206 C 0.89501 0.62495 0.8714 0.0
O207 O 0.8981 0.60801 0.85589 0.0
O208 O 0.91156 0.64055 0.89324 0.0
C209 C 0.8928 0.55126 0.82894 0.0
O210 O 0.87866 0.55101 0.85562 0.0
C211 C 0.93964 0.65976 0.98219 0.0
C212 C 0.97501 0.69728 0.98895 0.0
C213 C 0.95302 0.67929 0.00643 0.0
N214 N 0.95326 0.66571 0.95205 0.0
N215 N 0.97423 0.68833 0.95601 0.0
C216 C 0.91393 0.63611 0.987 0.0
H217 H 0.91648 0.62011 0.99665 0.0
H218 H 0.90223 0.63953 0.00663 0.0
H219 H 0.90361 0.6301 0.96139 0.0
C220 C 0.93825 0.5751 0.91162 0.0
N221 N 0.93466 0.59427 0.90011 0.0
N222 N 0.94376 0.61291 0.92362 0.0
C223 C 0.95418 0.60635 0.95059 0.0
C224 C 0.95044 0.58192 0.94415 0.0
C225 C 0.93417 0.55274 0.88933 0.0
H226 H 0.94169 0.55941 0.86228 0.0
H227 H 0.9133 0.53879 0.8876 0.0
H228 H 0.94385 0.54273 0.90051 0.0
O229 O 0.95685 0.6307 0.83376 0.0
O230 O 0.97049 0.66224 0.87347 0.0
H231 H 0.98165 0.64404 0.96922 0.0
H232 H 0.98306 0.61815 0.99165 0.0
C233 C 0.97011 0.6242 0.9796 0.0
H234 H 0.95733 0.62416 0.00074 0.0
H235 H 0.98828 0.69735 0.93655 0.0
O236 O 0.91463 0.57102 0.82361 0.0
C237 C 0.97249 0.65369 0.84345 0.0
Co238 Co 0.39408 0.32842 0.85169 0.0
Co239 Co 0.35089 0.30306 0.9088 0.0
C240 C 0.36884 0.27249 0.86755 0.0
O241 O 0.38525 0.29252 0.85137 0.0
O242 O 0.35407 0.27343 0.89091 0.0
C243 C 0.44224 0.34123 0.82196 0.0
O244 O 0.44025 0.32333 0.84384 0.0
C245 C 0.33271 0.28238 0.97936 0.0
C246 C 0.29731 0.2847 0.9839 0.0
C247 C 0.3132 0.27838 0.00279 0.0
N248 N 0.32862 0.29094 0.94858 0.0
N249 N 0.30715 0.29179 0.95117 0.0
C250 C 0.35618 0.28045 0.98657 0.0
H251 H 0.37077 0.29026 0.96553 0.0
H252 H 0.3645 0.28894 0.01271 0.0
H253 H 0.3508 0.2599 0.98699 0.0
C254 C 0.42135 0.36447 0.90926 0.0
N255 N 0.4013 0.34248 0.89738 0.0
N256 N 0.383 0.33308 0.9214 0.0
C257 C 0.39076 0.34946 0.94923 0.0
C258 C 0.41552 0.36957 0.94264 0.0
C259 C 0.44394 0.38222 0.88688 0.0
H260 H 0.43712 0.38519 0.86099 0.0
H261 H 0.45601 0.37336 0.88209 0.0
H262 H 0.45592 0.40121 0.89955 0.0
O263 O 0.36523 0.33104 0.8312 0.0
O264 O 0.33382 0.31189 0.87084 0.0
H265 H 0.35406 0.34001 0.97104 0.0
H266 H 0.38121 0.36597 0.99357 0.0
C267 C 0.37409 0.34726 0.98 0.0
H268 H 0.37421 0.33356 -0.00052 0.0
H269 H 0.2998 0.2982 0.93109 0.0
O270 O 0.42436 0.34666 0.82083 0.0
C271 C 0.34227 0.32333 0.84133 0.0
Co272 Co 0.66765 0.0613 0.85074 0.0
Co273 Co 0.69419 0.04367 0.90606 0.0
C274 C 0.7237 0.09268 0.86555 0.0
O275 O 0.70327 0.08874 0.85032 0.0
O276 O 0.72346 0.07689 0.88822 0.0
C277 C 0.65315 0.09652 0.82786 0.0
O278 O 0.6687 0.11006 0.85365 0.0
C279 C 0.71709 0.04701 0.97493 0.0
C280 C 0.71476 0.0093 0.97997 0.0
C281 C 0.72217 0.03207 -0.00198 0.0
N282 N 0.70707 0.03359 0.94505 0.0
N283 N 0.70611 0.01124 0.94793 0.0
C284 C 0.71932 0.07257 0.98184 0.0
H285 H 0.70814 0.07659 0.96205 0.0
H286 H 0.71244 0.07318 0.00889 0.0
H287 H 0.73977 0.08782 0.97971 0.0
C288 C 0.63149 0.05046 0.90903 0.0
N289 N 0.65378 0.05346 0.89652 0.0
N290 N 0.66401 0.04508 0.92004 0.0
C291 C 0.64804 0.03598 0.9483 0.0
C292 C 0.62721 0.03963 0.94242 0.0
C293 C 0.61261 0.05396 0.88722 0.0
H294 H 0.61152 0.04634 0.86019 0.0
H295 H 0.6191 0.07473 0.88537 0.0
H296 H 0.59307 0.04398 0.89893 0.0
O297 O 0.66543 0.03046 0.82879 0.0
O298 O 0.68528 0.01822 0.86732 0.0
H299 H 0.6577 0.00867 0.96906 0.0
H300 H 0.63331 0.01111 0.99413 0.0
C301 C 0.65134 0.022 0.97878 0.0
H302 H 0.6663 0.03609 0.99677 0.0
H303 H 0.69877 0.99699 0.92849 0.0
O304 O 0.6495 0.07418 0.82146 0.0
C305 C 0.6736 0.0154 0.83805 0.0
Co306 Co 0.39967 0.07363 0.64167 0.0
Co307 Co 0.35522 0.05133 0.58676 0.0
C308 C 0.37219 0.10129 0.62549 0.0
O309 O 0.39076 0.10042 0.63988 0.0
O310 O 0.35662 0.08343 0.60506 0.0
C311 C 0.44849 0.1094 0.66931 0.0
O312 O 0.44829 0.12396 0.64351 0.0
C313 C 0.33956 0.0545 0.51563 0.0
C314 C 0.30159 0.01947 0.51029 0.0
C315 C 0.31967 0.04096 0.49197 0.0
N316 N 0.33372 0.0415 0.54627 0.0
N317 N 0.31088 0.02069 0.54314 0.0
C318 C 0.36337 0.07994 0.50998 0.0
H319 H 0.37878 0.07694 0.49905 0.0
H320 H 0.35968 0.09182 0.49097 0.0
H321 H 0.37029 0.09026 0.5355 0.0
C322 C 0.42633 0.06228 0.58589 0.0
N323 N 0.4067 0.06528 0.59686 0.0
N324 N 0.38771 0.05449 0.57399 0.0
C325 C 0.39456 0.04356 0.54805 0.0
C326 C 0.41939 0.0485 0.55459 0.0
C327 C 0.44998 0.06954 0.60728 0.0
H328 H 0.46082 0.09066 0.61078 0.0
H329 H 0.46284 0.06376 0.59422 0.0
H330 H 0.44445 0.06042 0.63376 0.0
O331 O 0.37107 0.04251 0.66371 0.0
O332 O 0.33918 0.02516 0.62456 0.0
H333 H 0.35672 0.01393 0.53291 0.0
H334 H 0.38261 0.0113 0.51262 0.0
C335 C 0.37629 0.02488 0.52148 0.0
H336 H 0.37556 0.03551 0.49795 0.0
H337 H 0.30182 0.00716 0.56322 0.0
O338 O 0.42967 0.08674 0.67298 0.0
C339 C 0.34856 0.025 0.65476 0.0
Co340 Co 0.92758 0.32469 0.64027 0.0
Co341 Co 0.9463 0.29988 0.58371 0.0
C342 C 0.89671 0.26918 0.62312 0.0
O343 O 0.89995 0.28911 0.63914 0.0
O344 O 0.91304 0.27028 0.60069 0.0
C345 C 0.89315 0.33986 0.66607 0.0
O346 O 0.87869 0.32484 0.64041 0.0
C347 C 0.94425 0.27983 0.51292 0.0
C348 C 0.98141 0.28088 0.5091 0.0
C349 C 0.95959 0.27535 0.48975 0.0
N350 N 0.95665 0.28789 0.54396 0.0
N351 N 0.97862 0.28801 0.54177 0.0
C352 C 0.91928 0.27877 0.50537 0.0
H353 H 0.91473 0.28875 0.5264 0.0
H354 H 0.91998 0.2876 0.4793 0.0
H355 H 0.90368 0.2584 0.5047 0.0
C356 C 0.93905 0.36236 0.58365 0.0
N357 N 0.93598 0.33979 0.59512 0.0
N358 N 0.94505 0.33039 0.57134 0.0
C359 C 0.95477 0.34725 0.54409 0.0
C360 C 0.95075 0.36773 0.55078 0.0
C361 C 0.93475 0.38043 0.60611 0.0
H362 H 0.94246 0.38141 0.63306 0.0
H363 H 0.91384 0.37324 0.60806 0.0
H364 H 0.94417 0.40013 0.59494 0.0
O365 O 0.95816 0.32613 0.66199 0.0
O366 O 0.97153 0.30793 0.62242 0.0
H367 H 0.98212 0.33751 0.52355 0.0
H368 H 0.98188 0.36393 0.50087 0.0
C369 C 0.96979 0.34512 0.51398 0.0
H370 H 0.9563 0.33171 0.49397 0.0
H371 H 0.99212 0.29387 0.56216 0.0
O372 O 0.91531 0.34268 0.67105 0.0
C373 C 0.97366 0.31861 0.65234 0.0
Co374 Co 0.66454 0.60247 0.64231 0.0
Co375 Co 0.69175 0.64986 0.59196 0.0
C376 C 0.72079 0.6289 0.63143 0.0
O377 O 0.70015 0.61074 0.64415 0.0
O378 O 0.7206 0.64563 0.61096 0.0
C379 C 0.64992 0.55221 0.6654 0.0
O380 O 0.66823 0.55526 0.64352 0.0
C381 C 0.7169 0.67202 0.52531 0.0
C382 C 0.71489 0.70765 0.52191 0.0
C383 C 0.7228 0.69285 0.50343 0.0
N384 N 0.70598 0.67443 0.55496 0.0
N385 N 0.70522 0.69598 0.55312 0.0
C386 C 0.71906 0.64879 0.51721 0.0
H387 H 0.70743 0.63302 0.53606 0.0
H388 H 0.71268 0.64218 0.48973 0.0
H389 H 0.73942 0.65377 0.5198 0.0
C390 C 0.6309 0.57975 0.581 0.0
N391 N 0.65237 0.59873 0.59581 0.0
N392 N 0.66269 0.61879 0.57462 0.0
C393 C 0.64749 0.61328 0.54576 0.0
C394 C 0.62715 0.58819 0.54865 0.0
C395 C 0.6122 0.55566 0.60001 0.0
H396 H 0.60812 0.56055 0.6266 0.0
H397 H 0.62083 0.54325 0.60335 0.0
H398 H 0.5938 0.54468 0.58552 0.0
O399 O 0.66173 0.63011 0.66661 0.0
O400 O 0.68073 0.66413 0.63107 0.0
H401 H 0.63302 0.62584 0.50222 0.0
H402 H 0.6663 0.63484 0.49943 0.0
C403 C 0.65086 0.63237 0.51781 0.0
H404 H 0.6566 0.65124 0.53011 0.0
H405 H 0.69728 0.70223 0.57259 0.0
O406 O 0.64488 0.57026 0.66903 0.0
C407 C 0.66893 0.65353 0.65969 0.0
H408 H 0.99582 0.28844 0.65569 0.0
H409 H 0.01934 0.28454 0.70621 0.0
H410 H 0.01727 0.34732 0.75811 0.0
H411 H 0.99362 0.35118 0.70824 0.0
H412 H 0.06737 0.34067 0.76323 0.0
H413 H 0.97144 0.25894 0.80175 0.0
H414 H 0.98334 0.26166 0.75723 0.0
H415 H 0.97365 0.28375 0.77258 0.0
C416 C 0.00108 0.30191 0.6774 0.0
C417 C 0.9926 0.3199 0.67831 0.0
C418 C 0.0145 0.29964 0.70615 0.0
C419 C 0.01987 0.3156 0.73574 0.0
C420 C 0.01333 0.33493 0.73535 0.0
H421 H 0.05583 0.35578 0.94241 0.0
H422 H 0.05756 0.35188 0.87871 0.0
C423 C -0.0003 0.337 0.70695 0.0
C424 C 0.02838 0.30991 0.76941 0.0
H425 H 0.00264 0.27721 0.84597 0.0
C426 C 0.05351 0.32634 0.78115 0.0
C427 C 0.0103 0.29097 0.7924 0.0
C428 C 0.98312 0.27271 0.78062 0.0
C429 C 0.06055 0.32543 0.81633 0.0
C430 C 0.04164 0.30833 0.84043 0.0
C431 C 0.01715 0.29044 0.82768 0.0
C432 C 0.04521 0.31127 0.87935 0.0
C433 C 0.08792 0.34338 0.82747 0.0
C434 C 0.03732 0.28969 0.90127 0.0
C435 C 0.03586 0.29184 0.93796 0.0
C436 C 0.04264 0.31567 0.95329 0.0
C437 C 0.05141 0.33738 0.93151 0.0
C438 C 0.05251 0.33516 0.89493 0.0
H439 H 0.1014 0.34615 0.80557 0.0
H440 H 0.0903 0.36248 0.83376 0.0
H441 H 0.09331 0.33609 0.85106 0.0
H442 H 0.03126 0.27097 0.88988 0.0
H443 H 0.02882 0.2748 0.95425 0.0
H444 H 0.68283 0.75089 0.96948 0.0
H445 H 0.68083 0.75594 0.90531 0.0
H446 H 0.70098 0.69726 0.88801 0.0
H447 H 0.70284 0.69204 0.95166 0.0
H448 H 0.72581 0.73935 0.8421 0.0
H449 H 0.62008 0.70121 0.84734 0.0
H450 H 0.64069 0.72923 0.87312 0.0
H451 H 0.6374 0.69878 0.88473 0.0
C452 C 0.68671 0.73901 0.95195 0.0
C453 C 0.69225 0.72053 0.96555 0.0
C454 C 0.6857 0.74203 0.91535 0.0
C455 C 0.69028 0.72663 0.89199 0.0
C456 C 0.69731 0.7093 0.90561 0.0
H457 H 0.64267 0.63685 0.72178 0.0
H458 H 0.64681 0.66272 0.77335 0.0
C459 C 0.69838 0.70634 0.94201 0.0
C460 C 0.68621 0.72678 0.8534 0.0
H461 H 0.63804 0.70206 0.79222 0.0
C462 C 0.70677 0.7319 0.83088 0.0
C463 C 0.66133 0.71715 0.83906 0.0
C464 C 0.63849 0.71112 0.86215 0.0
C465 C 0.70274 0.72524 0.79495 0.0
C466 C 0.67747 0.71366 0.78116 0.0
C467 C 0.65735 0.71095 0.80295 0.0
C468 C 0.67082 0.69923 0.74742 0.0
C469 C 0.72512 0.72835 0.77301 0.0
C470 C 0.68183 0.71121 0.7151 0.0
C471 C 0.67971 0.69634 0.6854 0.0
C472 C 0.66642 0.66933 0.6877 0.0
C473 C 0.65338 0.65758 0.71919 0.0
C474 C 0.65561 0.67238 0.74873 0.0
H475 H 0.74284 0.735 0.78902 0.0
H476 H 0.7204 0.70985 0.76027 0.0
H477 H 0.7293 0.74269 0.75182 0.0
H478 H 0.69318 0.73194 0.71336 0.0
H479 H 0.68975 0.706 0.6614 0.0
H480 H 0.29685 0.98953 0.65187 0.0
H481 H 0.26987 0.9626 0.70071 0.0
H482 H 0.33708 0.99029 0.76683 0.0
H483 H 0.364 0.01647 0.71847 0.0
H484 H 0.30195 0.93873 0.77793 0.0
H485 H 0.25497 0.99867 0.78103 0.0
H486 H 0.25235 0.98101 0.74137 0.0
H487 H 0.28295 0.00751 0.75415 0.0
C488 C 0.3059 0.98943 0.67661 0.0
C489 C 0.33253 0.00552 0.6815 0.0
C490 C 0.29044 0.97413 0.70451 0.0
C491 C 0.30143 0.97484 0.73757 0.0
C492 C 0.32816 0.98948 0.74156 0.0
H493 H 0.29777 -7e-05 0.94321 0.0
H494 H 0.2943 0.99561 0.87919 0.0
C495 C 0.34355 0.00461 0.71387 0.0
C496 C 0.28563 0.96301 0.76957 0.0
H497 H 0.2525 0.97574 0.83198 0.0
C498 C 0.2904 0.94611 0.78946 0.0
C499 C 0.27052 0.97268 0.78437 0.0
C500 C 0.26487 0.99104 0.76435 0.0
C501 C 0.28289 0.94083 0.82505 0.0
C502 C 0.26984 0.95242 0.84075 0.0
C503 C 0.2626 0.96701 0.81975 0.0
C504 C 0.26869 0.95443 0.87966 0.0
C505 C 0.29119 0.92503 0.84644 0.0
C506 C 0.25481 0.93277 0.90124 0.0
C507 C 0.25682 0.9352 0.93815 0.0
C508 C 0.2728 0.9593 0.95383 0.0
C509 C 0.28541 0.98106 0.93203 0.0
C510 C 0.28343 0.97863 0.89538 0.0
H511 H 0.30316 0.91928 0.8308 0.0
H512 H 0.30235 0.93602 0.86996 0.0
H513 H 0.27398 0.90734 0.856 0.0
H514 H 0.24287 0.914 0.88959 0.0
H515 H 0.24606 0.91822 0.95424 0.0
H516 H 0.64514 0.95094 0.54167 0.0
H517 H 0.64653 0.94786 0.60574 0.0
H518 H 0.72293 0.95849 0.59875 0.0
H519 H 0.72189 0.96256 0.53413 0.0
H520 H 0.65259 0.91804 0.65308 0.0
H521 H 0.73575 0.01795 0.65987 0.0
H522 H 0.71876 0.0043 0.6192 0.0
H523 H 0.74117 0.99532 0.63598 0.0
C524 C 0.662 0.952 0.55365 0.0
C525 C 0.68336 0.95682 0.53303 0.0
C526 C 0.66282 0.95031 0.59034 0.0
C527 C 0.68497 0.9533 0.60716 0.0
C528 C 0.70586 0.95671 0.58643 0.0
H529 H 0.70598 0.99609 0.83136 0.0
H530 H 0.70949 0.97316 0.77993 0.0
C531 C 0.70522 0.95889 0.5496 0.0
C532 C 0.68653 0.95515 0.64631 0.0
H533 H 0.71574 0.9986 0.71285 0.0
C534 C 0.66672 0.93545 0.66628 0.0
C535 C 0.70505 0.97785 0.66359 0.0
C536 C 0.72629 0.00016 0.64365 0.0
C537 C 0.66389 0.93861 0.70248 0.0
C538 C 0.68138 0.96194 0.71904 0.0
C539 C 0.70242 0.98068 0.69991 0.0
C540 C 0.67587 0.96952 0.75366 0.0
C541 C 0.64151 0.91757 0.72237 0.0
C542 C 0.65544 0.97442 0.75618 0.0
C543 C 0.65363 0.98784 0.78509 0.0
C544 C 0.67213 0.99639 0.8121 0.0
C545 C 0.69137 0.9896 0.81098 0.0
C546 C 0.69342 0.97652 0.78168 0.0
H547 H 0.63465 0.89856 0.70971 0.0
H548 H 0.64675 0.91665 0.7503 0.0
H549 H 0.62538 0.92159 0.72236 0.0
H550 H 0.64197 0.96958 0.73453 0.0
H551 H 0.63856 0.99273 0.78534 0.0
H552 H 0.03219 0.75578 0.54286 0.0
H553 H 0.03401 0.76094 0.60738 0.0
H554 H 0.0589 0.70516 0.61706 0.0
H555 H 0.0578 0.7006 0.55318 0.0
H556 H 0.00426 0.72531 0.64967 0.0
H557 H 0.10204 0.75292 0.69239 0.0
H558 H 0.09476 0.75589 0.64685 0.0
H559 H 0.09087 0.72593 0.66332 0.0
C560 C 0.03885 0.7453 0.55886 0.0
C561 C 0.04534 0.72818 0.54304 0.0
C562 C 0.03993 0.74828 0.59565 0.0
C563 C 0.04716 0.73388 0.61721 0.0
C564 C 0.05433 0.71732 0.60117 0.0
H565 H 0.9923 0.64077 0.78772 0.0
H566 H 0.0165 0.66817 0.73802 0.0
C567 C 0.0536 0.71464 0.56447 0.0
C568 C 0.04296 0.73252 0.65606 0.0
H569 H 0.06724 0.72448 0.73369 0.0
C570 C 0.01838 0.72609 0.66824 0.0
C571 C 0.06136 0.73365 0.68053 0.0
C572 C 0.0888 0.74278 0.67002 0.0
C573 C 0.01098 0.71839 0.70331 0.0
C574 C 0.02856 0.71699 0.72668 0.0
C575 C 0.05376 0.72539 0.71548 0.0
C576 C 0.01947 0.7027 0.76024 0.0
C577 C 0.98372 0.70974 0.71445 0.0
C578 C 0.01408 0.7134 0.78969 0.0
C579 C 0.00035 0.69778 0.81835 0.0
C580 C 0.99157 0.67125 0.8175 0.0
C581 C 0.99861 0.66108 0.78897 0.0
C582 C 0.01255 0.67672 0.76066 0.0
H583 H 0.97244 0.71217 0.69305 0.0
H584 H 0.9739 0.68918 0.72227 0.0
H585 H 0.98382 0.72095 0.73784 0.0
H586 H 0.01922 0.73344 0.7896 0.0
H587 H 0.99514 0.70611 0.83996 0.0
H588 H 0.30272 0.35904 0.54972 0.0
H589 H 0.29826 0.35568 0.61379 0.0
H590 H 0.23478 0.27815 0.60367 0.0
H591 H 0.24007 0.28118 0.53904 0.0
H592 H 0.26264 0.34679 0.66229 0.0
H593 H 0.28293 0.26585 0.66154 0.0
H594 H 0.28528 0.28369 0.62208 0.0
H595 H 0.25432 0.25999 0.63878 0.0
C596 C 0.28742 0.3415 0.56106 0.0
C597 C 0.27165 0.32039 0.53956 0.0
C598 C 0.2849 0.33955 0.59775 0.0
C599 C 0.26646 0.31651 0.61365 0.0
C600 C 0.24957 0.29589 0.59205 0.0
H601 H 0.29052 0.29107 0.8355 0.0
H602 H 0.26345 0.28831 0.78521 0.0
C603 C 0.25248 0.29766 0.55523 0.0
C604 C 0.26704 0.31384 0.65261 0.0
H605 H 0.28312 0.28388 0.71599 0.0
C606 C 0.26659 0.33269 0.67415 0.0
C607 C 0.27211 0.29536 0.66817 0.0
C608 C 0.2739 0.27518 0.64653 0.0
C609 C 0.27296 0.33472 0.71018 0.0
C610 C 0.27964 0.31731 0.72498 0.0
C611 C 0.27786 0.29712 0.70436 0.0
C612 C 0.29315 0.32229 0.75919 0.0
C613 C 0.27388 0.35624 0.73177 0.0
C614 C 0.31855 0.34264 0.76144 0.0
C615 C 0.33414 0.34398 0.78962 0.0
C616 C 0.32447 0.32513 0.8162 0.0
C617 C 0.2984 0.30594 0.81544 0.0
C618 C 0.28292 0.30433 0.78681 0.0
H619 H 0.26162 0.36332 0.72003 0.0
H620 H 0.26757 0.34993 0.7594 0.0
H621 H 0.29395 0.3725 0.73255 0.0
H622 H 0.3269 0.35642 0.74006 0.0
H623 H 0.35413 0.359 0.78964 0.0
H624 H 0.00241 0.64229 0.28749 0.0
H625 H 0.97766 0.64513 0.23827 0.0
H626 H 0.97239 0.70559 0.29193 0.0
H627 H 0.99704 0.70274 0.34175 0.0
H628 H 0.92601 0.64851 0.23411 0.0
H629 H 0.01942 0.73428 0.19643 0.0
H630 H 0.01868 0.70988 0.22505 0.0
H631 H 0.00748 0.7306 0.24106 0.0
C632 C 0.99542 0.65573 0.2893 0.0
C633 C 0.00195 0.67253 0.31824 0.0
C634 C 0.98116 0.65722 0.26126 0.0
C635 C 0.97339 0.67564 0.26154 0.0
C636 C 0.9782 0.6912 0.29145 0.0
H637 H 0.95943 0.71969 0.04661 0.0
H638 H 0.95726 0.72123 0.11135 0.0
C639 C 0.99227 0.68953 0.31981 0.0
C640 C 0.96411 0.68097 0.22826 0.0
H641 H 0.98788 0.71588 0.15273 0.0
C642 C 0.93923 0.66363 0.2165 0.0
C643 C 0.98135 0.70089 0.20567 0.0
C644 C 0.00827 0.72007 0.21742 0.0
C645 C 0.93163 0.66478 0.18171 0.0
C646 C 0.94977 0.68314 0.15796 0.0
C647 C 0.97397 0.70171 0.17077 0.0
C648 C 0.94583 0.68119 0.11905 0.0
C649 C 0.90452 0.64584 0.17059 0.0
C650 C 0.9398 0.65817 0.10177 0.0
C651 C 0.94074 0.65723 0.06498 0.0
C652 C 0.94807 0.67939 0.04466 0.0
C653 C 0.95349 0.7023 0.06174 0.0
C654 C 0.9522 0.70315 0.09864 0.0
H655 H 0.89097 0.64154 0.19298 0.0
H656 H 0.8982 0.65311 0.14796 0.0
H657 H 0.9034 0.62751 0.16279 0.0
H658 H 0.93593 0.64125 0.11676 0.0
H659 H 0.93739 0.63955 0.05271 0.0
H660 H 0.34642 0.37024 0.27546 0.0
H661 H 0.34649 0.34378 0.22701 0.0
H662 H 0.31173 0.27691 0.29447 0.0
H663 H 0.31094 0.30333 0.34338 0.0
H664 H 0.36554 0.31086 0.21494 0.0
H665 H 0.25834 0.2584 0.21647 0.0
H666 H 0.27691 0.28698 0.24252 0.0
H667 H 0.27478 0.25724 0.25555 0.0
C668 C 0.33908 0.34998 0.28033 0.0
C669 C 0.32818 0.33882 0.31313 0.0
C670 C 0.33928 0.33487 0.25257 0.0
C671 C 0.32869 0.3083 0.25695 0.0
C672 C 0.31955 0.29732 0.29039 0.0
H673 H 0.328 0.249 0.04212 0.0
H674 H 0.33086 0.24802 0.10682 0.0
C675 C 0.31924 0.31247 0.31832 0.0
C676 C 0.32494 0.29245 0.22512 0.0
H677 H 0.27841 0.25597 0.16511 0.0
C678 C 0.34652 0.29817 0.20435 0.0
C679 C 0.30005 0.27589 0.21151 0.0
C680 C 0.27611 0.26924 0.23244 0.0
C681 C 0.34388 0.28992 0.16908 0.0
C682 C 0.31897 0.27521 0.15459 0.0
C683 C 0.29744 0.26729 0.17644 0.0
C684 C 0.31489 0.27277 0.11587 0.0
C685 C 0.36767 0.29905 0.14665 0.0
C686 C 0.30413 0.2862 0.09972 0.0
C687 C 0.30271 0.287 0.06303 0.0
C688 C 0.31215 0.27448 0.0416 0.0
C689 C 0.32155 0.25972 0.05782 0.0
C690 C 0.323 0.25895 0.09477 0.0
H691 H 0.38552 0.31207 0.16138 0.0
H692 H 0.36903 0.28225 0.13741 0.0
H693 H 0.36654 0.30934 0.12292 0.0
H694 H 0.29773 0.29698 0.11555 0.0
H695 H 0.29523 0.29843 0.05148 0.0
H696 H 0.70842 0.01353 0.33513 0.0
H697 H 0.73599 0.03941 0.28619 0.0
H698 H 0.66871 0.02221 0.22484 0.0
H699 H 0.64131 0.99701 0.27342 0.0
H700 H 0.73627 0.01828 0.22526 0.0
H701 H 0.71492 0.09498 0.19555 0.0
H702 H 0.70709 0.07875 0.23786 0.0
H703 H 0.68504 0.06571 0.20112 0.0
C704 C 0.69956 0.01601 0.31164 0.0
C705 C 0.67265 0.00296 0.30798 0.0
C706 C 0.71535 0.0308 0.2837 0.0
C707 C 0.70448 0.03302 0.25194 0.0
C708 C 0.67766 0.02142 0.24932 0.0
H709 H 0.70515 0.99613 0.04973 0.0
H710 H 0.71102 0.0028 0.11322 0.0
C711 C 0.66193 0.00668 0.27707 0.0
C712 C 0.72015 0.0431 0.21938 0.0
H713 H 0.72148 0.07388 0.14299 0.0
C714 C 0.73383 0.03119 0.20771 0.0
C715 C 0.71774 0.06047 0.19664 0.0
C716 C 0.70563 0.07589 0.20874 0.0
C717 C 0.74214 0.03359 0.17254 0.0
C718 C 0.73613 0.0478 0.14845 0.0
C719 C 0.72552 0.06241 0.16124 0.0
C720 C 0.73617 0.04401 0.10974 0.0
C721 C 0.75587 0.01959 0.16104 0.0
C722 C 0.74832 0.06496 0.0865 0.0
C723 C 0.74488 0.06116 0.04989 0.0
C724 C 0.72881 0.03642 0.0361 0.0
C725 C 0.71766 0.01543 0.05943 0.0
C726 C 0.72114 0.01921 0.09583 0.0
H727 H 0.76788 0.01889 0.18288 0.0
H728 H 0.74148 -0.00053 0.15416 0.0
H729 H 0.76828 0.02884 0.13762 0.0
H730 H 0.75997 0.08427 0.0967 0.0
H731 H 0.75452 0.07762 0.0326 0.0
H732 H 0.35481 0.99473 0.21002 0.0
H733 H 0.35172 0.01913 0.25949 0.0
H734 H 0.29102 0.02416 0.20608 0.0
H735 H 0.29412 -0.00014 0.15601 0.0
H736 H 0.34845 0.07025 0.26471 0.0
H737 H 0.26184 0.97697 0.30057 0.0
H738 H 0.28599 0.97772 0.27144 0.0
H739 H 0.26563 0.98963 0.25634 0.0
C740 C 0.34126 0.0016 0.20832 0.0
C741 C 0.32447 0.99509 0.17939 0.0
C742 C 0.33963 0.01565 0.2365 0.0
C743 C 0.32106 0.02324 0.23637 0.0
C744 C 0.3055 0.01847 0.20647 0.0
H745 H 0.27887 0.03519 0.45328 0.0
H746 H 0.27654 0.03805 0.3887 0.0
C747 C 0.30732 0.00461 0.17796 0.0
C748 C 0.31565 0.03228 0.26978 0.0
H749 H 0.28074 0.00775 0.34512 0.0
C750 C 0.33324 0.05692 0.2821 0.0
C751 C 0.29558 0.01492 0.29208 0.0
C752 C 0.27609 0.98828 0.2797 0.0
C753 C 0.33229 0.06404 0.31721 0.0
C754 C 0.31389 0.04565 0.34067 0.0
C755 C 0.29497 0.02182 0.32731 0.0
C756 C 0.31627 0.04884 0.37967 0.0
C757 C 0.35156 0.09087 0.329 0.0
C758 C 0.33936 0.05412 0.39611 0.0
C759 C 0.34074 0.05274 0.43279 0.0
C760 C 0.31898 0.04573 0.45381 0.0
C761 C 0.29597 0.04087 0.43758 0.0
C762 C 0.29467 0.04258 0.40079 0.0
H763 H 0.35589 0.10484 0.30716 0.0
H764 H 0.34458 0.09694 0.35222 0.0
H765 H 0.36982 0.0916 0.33615 0.0
H766 H 0.35598 0.05784 0.3805 0.0
H767 H 0.35845 0.05561 0.44438 0.0
H768 H 0.91524 0.24801 0.44979 0.0
H769 H 0.912 0.24695 0.38514 0.0
H770 H 0.9946 0.29086 0.37744 0.0
H771 H 0.998 0.29271 0.44154 0.0
H772 H 0.92971 0.29036 0.34268 0.0
H773 H 0.97627 0.23513 0.30343 0.0
H774 H 0.96386 0.23349 0.34753 0.0
H775 H 0.99549 0.25897 0.33562 0.0
C776 C 0.9327 0.25761 0.43439 0.0
C777 C 0.95687 0.27115 0.45094 0.0
C778 C 0.9308 0.25663 0.39742 0.0
C779 C 0.95305 0.2686 0.37651 0.0
C780 C 0.97717 0.281 0.39302 0.0
H781 H 0.01507 0.36742 0.21483 0.0
H782 H 0.98849 0.34141 0.26359 0.0
C783 C 0.97907 0.28214 0.42978 0.0
C784 C 0.95162 0.27103 0.33773 0.0
H785 H 0.98176 0.26916 0.26241 0.0
C786 C 0.94039 0.28502 0.3248 0.0
C787 C 0.96494 0.26353 0.31418 0.0
C788 C 0.97555 0.24669 0.32589 0.0
C789 C 0.9447 0.29422 0.28989 0.0
C790 C 0.96098 0.28964 0.2678 0.0
C791 C 0.96964 0.27311 0.27951 0.0
C792 C 0.97299 0.30521 0.23565 0.0
C793 C 0.93291 0.30992 0.27769 0.0
C794 C 0.97316 0.29358 0.20351 0.0
C795 C 0.98867 0.3085 0.17545 0.0
C796 C 0.00449 0.33525 0.17935 0.0
C797 C 0.00321 0.34689 0.21093 0.0
C798 C 0.98773 0.33202 0.23879 0.0
H799 H 0.9139 0.30307 0.29039 0.0
H800 H 0.94552 0.33024 0.28565 0.0
H801 H 0.93047 0.3091 0.2485 0.0
H802 H 0.96211 0.27288 0.20066 0.0
H803 H 0.98924 0.29894 0.15146 0.0
H804 H 0.71036 0.69494 0.16581 0.0
H805 H 0.73802 0.69811 0.21549 0.0
H806 H 0.67086 0.64944 0.27801 0.0
H807 H 0.64335 0.64587 0.22878 0.0
H808 H 0.73786 0.72077 0.27598 0.0
H809 H 0.71752 0.62333 0.30848 0.0
H810 H 0.70992 0.63123 0.26566 0.0
H811 H 0.68762 0.62254 0.30205 0.0
C812 C 0.70155 0.68426 0.18979 0.0
C813 C 0.67465 0.67037 0.19352 0.0
C814 C 0.71739 0.68611 0.21813 0.0
C815 C 0.70655 0.67378 0.25034 0.0
C816 C 0.67975 0.6586 0.25319 0.0
H817 H 0.70653 0.7125 0.45173 0.0
H818 H 0.7131 0.71218 0.38832 0.0
C819 C 0.66397 0.65682 0.22507 0.0
C820 C 0.72229 0.67999 0.28288 0.0
H821 H 0.72428 0.65169 0.36 0.0
C822 C 0.73569 0.70574 0.29395 0.0
C823 C 0.72019 0.66059 0.30611 0.0
C824 C 0.70826 0.63293 0.29468 0.0
C825 C 0.74407 0.71215 0.32902 0.0
C826 C 0.73842 0.69227 0.35358 0.0
C827 C 0.72807 0.66693 0.34138 0.0
C828 C 0.73853 0.69647 0.3922 0.0
C829 C 0.75747 0.74001 0.33989 0.0
C830 C 0.75072 0.68785 0.41564 0.0
C831 C 0.74687 0.68793 0.45216 0.0
C832 C 0.73035 0.69614 0.46566 0.0
C833 C 0.71935 0.70605 0.44221 0.0
C834 C 0.72324 0.70603 0.40587 0.0
H835 H 0.76935 0.75255 0.31782 0.0
H836 H 0.74288 0.74552 0.34645 0.0
H837 H 0.76996 0.74362 0.36335 0.0
H838 H 0.76258 0.68038 0.40562 0.0
H839 H 0.75638 0.68107 0.46961 0.0
H840 H 0.9245 0.53526 0.97531 0.0
H841 H 0.94203 0.50819 0.99494 0.0
H842 H 0.01856 0.56939 0.97054 0.0
H843 H 0.00099 0.59651 0.95132 0.0
H844 H 0.96841 0.49297 0.95096 0.0
H845 H 0.02869 0.5452 0.06683 0.0
H846 H 0.00451 0.55159 0.04926 0.0
H847 H 0.03529 0.56472 0.02796 0.0
C848 C 0.94512 0.54313 0.97534 0.0
C849 C 0.96151 0.56805 0.96264 0.0
C850 C 0.9551 0.52765 0.98625 0.0
C851 C 0.98163 0.53684 0.98455 0.0
C852 C 0.99811 0.5621 0.97288 0.0
H853 H 0.07655 0.46709 0.01752 0.0
H854 H 0.05966 0.49488 -0.00146 0.0
C855 C 0.98811 0.57761 0.96204 0.0
C856 C 0.99171 0.51925 0.99192 0.0
H857 H 0.0337 0.51119 0.04371 0.0
C858 C 0.98258 0.49687 0.97139 0.0
C859 C 0.01032 0.52447 0.01838 0.0
C860 C 0.02014 0.54767 0.04212 0.0
C861 C 0.99176 0.47971 0.97634 0.0
C862 C 0.01032 0.4849 0.00283 0.0
C863 C 0.01954 0.50732 0.02329 0.0
C864 C 0.02005 0.46707 0.01045 0.0
C865 C 0.98187 0.45643 0.95273 0.0
C866 C 0.00334 0.44211 0.0229 0.0
C867 C 0.01295 0.42623 0.03351 0.0
C868 C 0.0394 0.43508 0.03179 0.0
C869 C 0.05602 0.45975 0.01839 0.0
C870 C 0.04642 0.47564 0.00784 0.0
H871 H 0.97311 0.45876 0.92812 0.0
H872 H 0.99753 0.4526 0.9454 0.0
H873 H 0.96689 0.43939 0.96709 0.0
H874 H 0.98302 0.43531 0.02588 0.0
H875 H -9e-05 0.40756 0.04476 0.0
H876 H 0.53809 0.6058 0.03756 0.0
H877 H 0.50923 0.56189 0.01664 0.0
H878 H 0.57022 0.54437 0.02818 0.0
H879 H 0.59904 0.58826 0.04951 0.0
H880 H 0.51301 0.5321 0.95995 0.0
H881 H 0.51174 0.49163 0.09277 0.0
H882 H 0.52369 0.52545 0.08561 0.0
H883 H 0.54305 0.51152 0.07387 0.0
C884 C 0.54543 0.59269 0.03478 0.0
C885 C 0.57075 0.60033 0.0447 0.0
C886 C 0.52895 0.56765 0.02303 0.0
C887 C 0.53749 0.5498 0.02141 0.0
C888 C 0.56319 0.55779 0.02971 0.0
H889 H 0.46281 0.38763 0.971 0.0
H890 H 0.49193 0.43143 0.99213 0.0
C891 C 0.5797 0.58288 0.0414 0.0
C892 C 0.51911 0.5226 0.01261 0.0
H893 H 0.48904 0.4619 0.04713 0.0
C894 C 0.50772 0.51674 0.97898 0.0
C895 C 0.51221 0.50265 0.0376 0.0
C896 C 0.5231 0.50803 0.07461 0.0
C897 C 0.4899 0.49134 0.96943 0.0
C898 C 0.4829 0.47139 0.99448 0.0
C899 C 0.49435 0.47725 0.02808 0.0
C900 C 0.46429 0.44421 0.98579 0.0
C901 C 0.47918 0.486 0.93232 0.0
C902 C 0.43881 0.43662 0.97665 0.0
C903 C 0.42218 0.41161 0.96478 0.0
C904 C 0.43075 0.39382 0.96226 0.0
C905 C 0.45577 0.40101 0.97322 0.0
C906 C 0.47239 0.426 0.98507 0.0
H907 H 0.49096 0.5022 0.91408 0.0
H908 H 0.47809 0.46828 0.92161 0.0
H909 H 0.45945 0.48312 0.93276 0.0
H910 H 0.43208 0.45029 0.97756 0.0
H911 H 0.40311 0.40658 0.95585 0.0
H912 H 0.5915 0.98966 0.95545 0.0
H913 H 0.54711 0.97345 0.9755 0.0
H914 H 0.56342 0.05126 0.99123 0.0
H915 H 0.60778 0.0674 0.97149 0.0
H916 H 0.5315 0.01535 0.04498 0.0
H917 H 0.49686 0.9815 0.90831 0.0
H918 H 0.51614 0.96955 0.92774 0.0
H919 H 0.53026 0.00323 0.91835 0.0
C920 C 0.58577 0.00318 0.96441 0.0
C921 C 0.60298 0.02971 0.96245 0.0
C922 C 0.56039 0.99397 0.97535 0.0
C923 C 0.5519 0.0112 0.98424 0.0
C924 C 0.56957 0.03766 0.98439 0.0
H925 H 0.40604 -0.00029 0.0414 0.0
H926 H 0.45053 0.01528 0.02244 0.0
C927 C 0.59489 0.04685 0.97337 0.0
C928 C 0.52433 0.00188 0.99118 0.0
H929 H 0.46524 0.97275 0.95176 0.0
C930 C 0.517 0.00605 0.02464 0.0
C931 C 0.5055 0.98988 0.96447 0.0
C932 C 0.51249 0.98591 0.92757 0.0
C933 C 0.49122 0.99811 0.03234 0.0
C934 C 0.47239 0.98622 0.00557 0.0
C935 C 0.47973 0.98199 0.97214 0.0
C936 C 0.44487 0.97735 0.01226 0.0
C937 C 0.48425 0.00202 0.06928 0.0
C938 C 0.42668 0.95104 0.01086 0.0
C939 C 0.40127 0.94222 0.02115 0.0
C940 C 0.39364 0.9596 0.03266 0.0
C941 C 0.41144 0.98603 0.03204 0.0
C942 C 0.43687 0.99486 0.02175 0.0
H943 H 0.49964 0.00572 0.08864 0.0
H944 H 0.48135 0.01885 0.06943 0.0
H945 H 0.46612 0.98497 0.07819 0.0
H946 H 0.43242 0.93722 0.00348 0.0
H947 H 0.38789 0.92173 0.02194 0.0
H948 H 0.55901 0.94497 0.49736 0.0
H949 H 0.53047 0.96055 0.5186 0.0
H950 H 0.55246 0.01225 0.42954 0.0
H951 H 0.58068 0.99656 0.4083 0.0
H952 H 0.53903 0.01134 0.53453 0.0
H953 H 0.47359 0.96645 0.42011 0.0
H954 H 0.49784 0.95851 0.43225 0.0
H955 H 0.50661 0.98766 0.40848 0.0
C956 C 0.55808 0.96005 0.48292 0.0
C957 C 0.57187 0.96964 0.45133 0.0
C958 C 0.54175 0.96883 0.49487 0.0
C959 C 0.53898 0.98715 0.47519 0.0
C960 C 0.55395 0.99775 0.44471 0.0
H961 H 0.44565 0.05995 0.49229 0.0
H962 H 0.47406 0.04395 0.47208 0.0
C963 C 0.5702 0.989 0.43281 0.0
C964 C 0.51972 0.99448 0.48555 0.0
H965 H 0.46511 0.99323 0.45714 0.0
C966 C 0.52279 0.00727 0.51776 0.0
C967 C 0.49856 0.98914 0.46352 0.0
C968 C 0.49372 0.97449 0.42929 0.0
C969 C 0.50556 0.0154 0.5282 0.0
C970 C 0.48444 0.01013 0.50611 0.0
C971 C 0.48133 0.99726 0.47395 0.0
C972 C 0.46539 0.01782 0.51614 0.0
C973 C 0.51041 0.03008 0.5624 0.0
C974 C 0.45036 0.00763 0.54668 0.0
C975 C 0.43417 0.01662 0.55801 0.0
C976 C 0.43264 0.03582 0.53885 0.0
C977 C 0.44651 0.04502 0.50725 0.0
C978 C 0.46276 0.036 0.49588 0.0
H979 H 0.53051 0.03798 0.57169 0.0
H980 H 0.50645 0.04615 0.55936 0.0
H981 H 0.49742 0.01696 0.58318 0.0
H982 H 0.45171 0.99323 0.56229 0.0
H983 H 0.4236 0.00935 0.58251 0.0
H984 H 0.99627 0.59159 0.45419 0.0
H985 H 0.9794 0.54704 0.47391 0.0
H986 H 0.05669 0.56294 0.49351 0.0
H987 H 0.07344 0.60748 0.47439 0.0
H988 H 0.9911 0.51307 0.44035 0.0
H989 H 0.01886 0.5229 0.5819 0.0
H990 H 0.01821 0.54836 0.55735 0.0
H991 H 0.04493 0.54297 0.55286 0.0
C992 C 0.00949 0.58574 0.46406 0.0
C993 C 0.03606 0.60296 0.46364 0.0
C994 C -9e-05 0.56029 0.47492 0.0
C995 C 0.01677 0.55172 0.48555 0.0
C996 C 0.04329 0.56922 0.48621 0.0
H997 H 0.00089 0.40399 0.54048 0.0
H998 H 0.01739 0.44849 0.52078 0.0
C999 C 0.05285 0.59464 0.47535 0.0
C1000 C 0.00691 0.52407 0.4928 0.0
H1001 H 0.00531 0.48223 0.55526 0.0
C1002 C 0.99403 0.50629 0.46557 0.0
C1003 C 0.01095 0.51529 0.52558 0.0
C1004 C 0.02378 0.53332 0.55623 0.0
C1005 C 0.98543 0.48001 0.47006 0.0
C1006 C 0.98953 0.47125 0.50281 0.0
C1007 C 0.00237 0.48902 0.53005 0.0
C1008 C 0.97985 0.44362 0.50998 0.0
C1009 C 0.97251 0.46194 0.43947 0.0
C1010 C 0.95334 0.42604 0.50975 0.0
C1011 C 0.94399 0.40067 0.52064 0.0
C1012 C 0.96097 0.39247 0.53193 0.0
C1013 C 0.98751 0.40975 0.53098 0.0
C1014 C 0.99689 0.43517 0.52013 0.0
H1015 H 0.97713 0.47234 0.41381 0.0
H1016 H 0.9783 0.44707 0.43811 0.0
H1017 H 0.95138 0.45207 0.44317 0.0
H1018 H 0.93981 0.43224 0.50278 0.0
H1019 H 0.92342 0.38776 0.52197 0.0
H1020 H 0.59037 0.6016 0.54218 0.0
H1021 H 0.54609 0.57369 0.52169 0.0
H1022 H 0.56545 0.51648 0.49015 0.0
H1023 H 0.60958 0.54425 0.51108 0.0
H1024 H 0.52241 0.54783 0.45728 0.0
H1025 H 0.5094 0.48004 0.56594 0.0
H1026 H 0.53672 0.51213 0.56365 0.0
H1027 H 0.53552 0.48705 0.5364 0.0
C1028 C 0.5853 0.58345 0.52971 0.0
C1029 C 0.60324 0.57503 0.52782 0.0
C1030 C 0.56003 0.56745 0.51831 0.0
C1031 C 0.5524 0.54282 0.50513 0.0
C1032 C 0.57085 0.53523 0.50084 0.0
H1033 H 0.40594 0.41255 0.44395 0.0
H1034 H 0.45087 0.4413 0.46105 0.0
C1035 C 0.59607 0.55117 0.51233 0.0
C1036 C 0.52485 0.5244 0.49843 0.0
H1037 H 0.47465 0.467 0.52612 0.0
C1038 C 0.51193 0.53019 0.47234 0.0
C1039 C 0.51122 0.50145 0.51832 0.0
C1040 C 0.5238 0.49482 0.54788 0.0
C1041 C 0.48582 0.51337 0.4651 0.0
C1042 C 0.47222 0.49041 0.48495 0.0
C1043 C 0.48514 0.48462 0.51102 0.0
C1044 C 0.44464 0.47202 0.47859 0.0
C1045 C 0.4731 0.52004 0.43579 0.0
C1046 C 0.42614 0.47938 0.48424 0.0
C1047 C 0.40051 0.46289 0.4749 0.0
C1048 C 0.393 0.43875 0.46009 0.0
C1049 C 0.41124 0.43086 0.45611 0.0
C1050 C 0.43688 0.44734 0.46551 0.0
H1051 H 0.48741 0.53502 0.41785 0.0
H1052 H 0.46028 0.50277 0.41987 0.0
H1053 H 0.46122 0.52753 0.44752 0.0
H1054 H 0.43168 0.4982 0.49483 0.0
H1055 H 0.38676 0.46944 0.47768 0.0
H1056 H 0.09523 0.45597 0.2283 0.0
H1057 H 0.10246 0.49602 0.25516 0.0
H1058 H 0.15032 0.53882 0.16689 0.0
H1059 H 0.14385 0.49878 0.14036 0.0
H1060 H 0.16716 0.56499 0.23206 0.0
H1061 H 0.06344 0.5279 0.20901 0.0
H1062 H 0.0693 0.50669 0.23574 0.0
H1063 H 0.08023 0.51277 0.19054 0.0
C1064 C 0.10773 0.47398 0.215 0.0
C1065 C 0.11869 0.47433 0.18207 0.0
C1066 C 0.1118 0.49678 0.2303 0.0
C1067 C 0.12635 0.5202 0.21249 0.0
C1068 C 0.13889 0.52086 0.18087 0.0
H1069 H 0.09163 0.64027 0.26081 0.0
H1070 H 0.10212 0.61173 0.2279 0.0
C1071 C 0.13518 0.49802 0.16579 0.0
C1072 C 0.12613 0.54332 0.2251 0.0
H1073 H 0.08502 0.56488 0.24545 0.0
C1074 C 0.14929 0.56517 0.23476 0.0
C1075 C 0.10284 0.54369 0.22755 0.0
C1076 C 0.07759 0.52162 0.2148 0.0
C1077 C 0.14961 0.5871 0.2483 0.0
C1078 C 0.12606 0.58675 0.25297 0.0
C1079 C 0.10308 0.56516 0.24209 0.0
C1080 C 0.12422 0.60787 0.2703 0.0
C1081 C 0.17511 0.61038 0.25712 0.0
C1082 C 0.13377 0.61579 0.3047 0.0
C1083 C 0.12824 0.63255 0.32323 0.0
C1084 C 0.11247 0.64101 0.30798 0.0
C1085 C 0.10367 0.63382 0.27319 0.0
C1086 C 0.10971 0.61759 0.25439 0.0
H1087 H 0.1908 0.61107 0.24075 0.0
H1088 H 0.17469 0.62846 0.25302 0.0
H1089 H 0.17977 0.60934 0.28527 0.0
H1090 H 0.14435 0.60801 0.31796 0.0
H1091 H 0.13504 0.63767 0.35018 0.0
H1092 H 0.50925 0.63984 0.15007 0.0
H1093 H 0.46897 0.61108 0.18026 0.0
H1094 H 0.51117 0.61441 0.27447 0.0
H1095 H 0.55155 0.64209 0.24367 0.0
H1096 H 0.48136 0.56759 0.25689 0.0
H1097 H 0.42331 0.61541 0.25276 0.0
H1098 H 0.43413 0.61338 0.20932 0.0
H1099 H 0.45725 0.63225 0.24287 0.0
C1100 C 0.50985 0.63488 0.17748 0.0
C1101 C 0.53342 0.64296 0.19454 0.0
C1102 C 0.4868 0.61862 0.19484 0.0
C1103 C 0.48698 0.61081 0.22982 0.0
C1104 C 0.51055 0.6202 0.2475 0.0
H1105 H 0.35186 0.50217 0.35082 0.0
H1106 H 0.38693 0.54227 0.32652 0.0
C1107 C 0.53359 0.63595 0.2299 0.0
C1108 C 0.46318 0.59003 0.24606 0.0
H1109 H 0.39969 0.5692 0.26106 0.0
C1110 C 0.46365 0.56821 0.25826 0.0
C1111 C 0.44007 0.59082 0.24817 0.0
C1112 C 0.43873 0.61437 0.23792 0.0
C1113 C 0.44156 0.54689 0.27147 0.0
C1114 C 0.41808 0.54695 0.27123 0.0
C1115 C 0.41766 0.56906 0.26039 0.0
C1116 C 0.39395 0.52393 0.28207 0.0
C1117 C 0.44365 0.52449 0.28562 0.0
C1118 C 0.38556 0.50069 0.26405 0.0
C1119 C 0.36592 0.47783 0.27809 0.0
C1120 C 0.35399 0.47798 0.30993 0.0
C1121 C 0.36077 0.50156 0.32621 0.0
C1122 C 0.38077 0.52444 0.31241 0.0
H1123 H 0.46369 0.5304 0.29336 0.0
H1124 H 0.431 0.51569 0.30896 0.0
H1125 H 0.43774 0.50963 0.26471 0.0
H1126 H 0.39518 0.50006 0.24014 0.0
H1127 H 0.3608 0.45993 0.26481 0.0
H1128 H 0.37766 0.921 0.2182 0.0
H1129 H 0.4087 0.91046 0.24296 0.0
H1130 H 0.37058 0.83699 0.19032 0.0
H1131 H 0.33932 0.84742 0.16507 0.0
H1132 H 0.40234 0.86682 0.28463 0.0
H1133 H 0.44599 0.87535 0.15145 0.0
H1134 H 0.42459 0.8876 0.16033 0.0
H1135 H 0.41204 0.85364 0.15645 0.0
C1136 C 0.37562 0.90245 0.21219 0.0
C1137 C 0.35622 0.88515 0.18937 0.0
C1138 C 0.39333 0.89643 0.22647 0.0
C1139 C 0.39201 0.8731 0.2181 0.0
C1140 C 0.37197 0.8552 0.19673 0.0
H1141 H 0.51337 0.85169 0.31583 0.0
H1142 H 0.47121 0.83944 0.29062 0.0
C1143 C 0.35413 0.86118 0.18246 0.0
C1144 C 0.41293 0.86878 0.22986 0.0
H1145 H 0.46834 0.8725 0.20042 0.0
C1146 C 0.41651 0.86743 0.26628 0.0
C1147 C 0.43136 0.86982 0.20565 0.0
C1148 C 0.42855 0.87181 0.16626 0.0
C1149 C 0.43883 0.86844 0.27933 0.0
C1150 C 0.45779 0.87066 0.25518 0.0
C1151 C 0.45359 0.87064 0.2187 0.0
C1152 C 0.48349 0.87671 0.26741 0.0
C1153 C 0.44278 0.86886 0.31882 0.0
C1154 C 0.50434 0.90144 0.26171 0.0
C1155 C 0.52834 0.90852 0.27601 0.0
C1156 C 0.5319 0.89089 0.29614 0.0
C1157 C 0.5112 0.86573 0.30053 0.0
C1158 C 0.48711 0.8587 0.28628 0.0
H1159 H 0.42735 0.8697 0.33389 0.0
H1160 H 0.44307 0.85125 0.32689 0.0
H1161 H 0.46156 0.88566 0.32627 0.0
H1162 H 0.50182 0.91557 0.24715 0.0
H1163 H 0.54391 0.928 0.27202 0.0
H1164 H 0.85931 0.35488 0.64456 0.0
H1165 H 0.85309 0.38856 0.67105 0.0
H1166 H 0.90375 0.39593 0.75677 0.0
H1167 H 0.91081 0.36302 0.72978 0.0
H1168 H 0.83673 0.39733 0.73469 0.0
H1169 H 0.93991 0.46694 0.71307 0.0
H1170 H 0.92436 0.43499 0.69469 0.0
H1171 H 0.93502 0.4403 0.74003 0.0
C1172 C 0.86879 0.36341 0.66935 0.0
C1173 C 0.88587 0.35671 0.68488 0.0
C1174 C 0.86522 0.38262 0.68442 0.0
C1175 C 0.8785 0.39514 0.71533 0.0
C1176 C 0.89391 0.38697 0.73235 0.0
H1177 H 0.86302 0.50175 0.85077 0.0
H1178 H 0.85625 0.46311 0.81997 0.0
C1179 C 0.89784 0.36812 0.71701 0.0
C1180 C 0.87785 0.41797 0.72839 0.0
H1181 H 0.91697 0.48102 0.74911 0.0
C1182 C 0.8542 0.41572 0.73765 0.0
C1183 C 0.90061 0.44208 0.73124 0.0
C1184 C 0.92636 0.44635 0.71886 0.0
C1185 C 0.85284 0.43684 0.75089 0.0
C1186 C 0.87583 0.46053 0.7558 0.0
C1187 C 0.89934 0.46284 0.74557 0.0
C1188 C 0.87647 0.48317 0.77239 0.0
C1189 C 0.8268 0.43358 0.759 0.0
C1190 C 0.89021 0.50735 0.75605 0.0
C1191 C 0.89478 0.52948 0.77405 0.0
C1192 C 0.88527 0.52777 0.80844 0.0
C1193 C 0.87032 0.50351 0.82409 0.0
C1194 C 0.86626 0.48139 0.80638 0.0
H1195 H 0.81157 0.41811 0.74262 0.0
H1196 H 0.82204 0.42803 0.78717 0.0
H1197 H 0.82646 0.45165 0.75434 0.0
H1198 H 0.89829 0.50919 0.72985 0.0
H1199 H 0.90626 0.54798 0.76139 0.0
H1200 H 0.45111 0.37723 0.77167 0.0
H1201 H 0.49171 0.40608 0.74256 0.0
H1202 H 0.52815 0.36985 0.79739 0.0
H1203 H 0.48745 0.3408 0.82694 0.0
H1204 H 0.55339 0.42313 0.80494 0.0
H1205 H 0.53284 0.39601 0.66396 0.0
H1206 H 0.50814 0.40013 0.68421 0.0
H1207 H 0.51371 0.37495 0.69947 0.0
C1208 C 0.46763 0.37508 0.77716 0.0
C1209 C 0.46611 0.3568 0.80169 0.0
C1210 C 0.49077 0.39145 0.76025 0.0
C1211 C 0.51278 0.3898 0.76745 0.0
C1212 C 0.51125 0.37119 0.79127 0.0
H1213 H 0.64955 0.50699 0.65471 0.0
H1214 H 0.62036 0.46511 0.68142 0.0
C1215 C 0.48801 0.35466 0.8081 0.0
C1216 C 0.53778 0.40949 0.75295 0.0
H1217 H 0.56626 0.43985 0.67586 0.0
C1218 C 0.55654 0.42646 0.7767 0.0
C1219 C 0.54198 0.41354 0.71613 0.0
C1220 C 0.52319 0.39501 0.68947 0.0
C1221 C 0.57845 0.44861 0.76458 0.0
C1222 C 0.58139 0.45392 0.72792 0.0
C1223 C 0.56375 0.43586 0.70403 0.0
C1224 C 0.60069 0.47935 0.71418 0.0
C1225 C 0.59773 0.46667 0.79118 0.0
C1226 C 0.59913 0.50106 0.72377 0.0
C1227 C 0.61556 0.52486 0.70849 0.0
C1228 C 0.63383 0.52736 0.68326 0.0
C1229 C 0.63572 0.50567 0.67418 0.0
C1230 C 0.61911 0.48177 0.68937 0.0
H1231 H 0.59733 0.45638 0.81583 0.0
H1232 H 0.61751 0.4763 0.78015 0.0
H1233 H 0.59292 0.48168 0.79833 0.0
H1234 H 0.58465 0.49944 0.74232 0.0
H1235 H 0.61359 0.54118 0.716 0.0
H1236 H 0.64131 0.13226 0.8514 0.0
H1237 H 0.60926 0.1416 0.82646 0.0
H1238 H 0.59739 0.09055 0.73922 0.0
H1239 H 0.62868 0.08043 0.76461 0.0
H1240 H 0.60153 0.15984 0.76306 0.0
H1241 H 0.52705 0.05824 0.78534 0.0
H1242 H 0.55912 0.07188 0.80295 0.0
H1243 H 0.55266 0.06131 0.75761 0.0
C1244 C 0.63212 0.12333 0.82663 0.0
C1245 C 0.63709 0.10528 0.81019 0.0
C1246 C 0.61387 0.1287 0.81243 0.0
C1247 C 0.60058 0.11627 0.78151 0.0
C1248 C 0.607 0.09981 0.76363 0.0
H1249 H 0.4981 0.1387 0.64787 0.0
H1250 H 0.53626 0.14457 0.67918 0.0
C1251 C 0.6249 0.0941 0.77808 0.0
C1252 C 0.5786 0.1188 0.7694 0.0
H1253 H 0.51492 0.08313 0.75004 0.0
C1254 C 0.5825 0.14316 0.76044 0.0
C1255 C 0.5537 0.09709 0.76702 0.0
C1256 C 0.54778 0.07071 0.77911 0.0
C1257 C 0.5622 0.14622 0.74781 0.0
C1258 C 0.53766 0.12422 0.7433 0.0
C1259 C 0.53374 0.10002 0.75333 0.0
C1260 C 0.51577 0.12519 0.72698 0.0
C1261 C 0.56725 0.17293 0.73981 0.0
C1262 C 0.49157 0.11245 0.7434 0.0
C1263 C 0.46972 0.10834 0.72509 0.0
C1264 C 0.47179 0.11742 0.69038 0.0
C1265 C 0.49613 0.13177 0.67481 0.0
C1266 C 0.51797 0.13531 0.69281 0.0
H1267 H 0.58333 0.18752 0.75609 0.0
H1268 H 0.57282 0.17745 0.7116 0.0
H1269 H 0.54995 0.17465 0.74467 0.0
H1270 H 0.48941 0.1045 0.76974 0.0
H1271 H 0.4511 0.09732 0.73764 0.0
H1272 H 0.25275 0.40662 0.3444 0.0
H1273 H 0.21802 0.39522 0.30204 0.0
H1274 H 0.19378 0.315 0.31481 0.0
H1275 H 0.2285 0.32624 0.35766 0.0
H1276 H 0.22038 0.36069 0.23901 0.0
H1277 H 0.12647 0.3269 0.30686 0.0
H1278 H 0.15581 0.35134 0.32713 0.0
H1279 H 0.14987 0.3191 0.32381 0.0
C1280 C 0.23938 0.38648 0.33935 0.0
C1281 C 0.24342 0.36733 0.3541 0.0
C1282 C 0.21964 0.38002 0.31505 0.0
C1283 C 0.20364 0.35434 0.30517 0.0
C1284 C 0.20597 0.33492 0.32232 0.0
H1285 H 0.09192 0.32316 0.13581 0.0
H1286 H 0.11793 0.3129 0.17538 0.0
C1287 C 0.22568 0.34138 0.34696 0.0
C1288 C 0.18765 0.34876 0.27319 0.0
H1289 H 0.12821 0.335 0.24542 0.0
C1290 C 0.20008 0.35456 0.24023 0.0
C1291 C 0.16123 0.3405 0.27504 0.0
C1292 C 0.14734 0.334 0.31002 0.0
C1293 C 0.18704 0.35382 0.20913 0.0
C1294 C 0.16106 0.34741 0.21125 0.0
C1295 C 0.14816 0.33987 0.24391 0.0
C1296 C 0.14818 0.35238 0.18148 0.0
C1297 C 0.20141 0.36092 0.17448 0.0
C1298 C 0.15713 0.37784 0.17089 0.0
C1299 C 0.14232 0.38375 0.14862 0.0
C1300 C 0.11838 0.36426 0.13641 0.0
C1301 C 0.11048 0.33851 0.14448 0.0
C1302 C 0.12517 0.33264 0.16729 0.0
H1303 H 0.21787 0.35739 0.1752 0.0
H1304 H 0.18856 0.34989 0.15219 0.0
H1305 H 0.20913 0.38168 0.16933 0.0
H1306 H 0.17467 0.39339 0.18193 0.0
H1307 H 0.14874 0.40374 0.14297 0.0
H1308 H 0.67756 0.90841 0.34939 0.0
H1309 H 0.68648 0.88214 0.30827 0.0
H1310 H 0.60523 0.83327 0.29048 0.0
H1311 H 0.59621 0.85937 0.33103 0.0
H1312 H 0.6663 0.82512 0.29972 0.0
H1313 H 0.63805 0.86946 0.19304 0.0
H1314 H 0.64657 0.88288 0.23703 0.0
H1315 H 0.61511 0.85605 0.22844 0.0
C1316 C 0.6616 0.89149 0.33772 0.0
C1317 C 0.6362 0.88603 0.34308 0.0
C1318 C 0.66674 0.87667 0.31404 0.0
C1319 C 0.64651 0.85627 0.29576 0.0
C1320 C 0.62109 0.84929 0.30388 0.0
H1321 H 0.59905 0.73705 0.15429 0.0
H1322 H 0.60766 0.7747 0.18918 0.0
C1323 C 0.61597 0.86409 0.32723 0.0
C1324 C 0.65153 0.84351 0.26592 0.0
H1325 H 0.6391 0.83129 0.17774 0.0
C1326 C 0.66096 0.82684 0.27287 0.0
C1327 C 0.64476 0.8461 0.23091 0.0
C1328 C 0.63579 0.86478 0.22173 0.0
C1329 C 0.66196 0.81119 0.24604 0.0
C1330 C 0.65352 0.81255 0.21153 0.0
C1331 C 0.64558 0.83036 0.2042 0.0
C1332 C 0.64899 0.79295 0.18455 0.0
C1333 C 0.67037 0.79207 0.2552 0.0
C1334 C 0.66939 0.79156 0.16875 0.0
C1335 C 0.66448 0.77015 0.14829 0.0
C1336 C 0.63913 0.74985 0.14388 0.0
C1337 C 0.61875 0.75242 0.15732 0.0
C1338 C 0.62365 0.77386 0.17734 0.0
H1339 H 0.67432 0.79201 0.28391 0.0
H1340 H 0.65535 0.77242 0.2473 0.0
H1341 H 0.68813 0.79684 0.24032 0.0
H1342 H 0.68907 0.8063 0.17382 0.0
H1343 H 0.68054 0.76853 0.13847 0.0
H1344 H 0.22724 0.90123 0.13369 0.0
H1345 H 0.19149 0.87396 0.17347 0.0
H1346 H 0.22393 0.82498 0.18983 0.0
H1347 H 0.25958 0.85208 0.15051 0.0
H1348 H 0.167 0.79933 0.18451 0.0
H1349 H 0.21185 0.8796 0.28204 0.0
H1350 H 0.20454 0.8862 0.2384 0.0
H1351 H 0.2293 0.87815 0.24404 0.0
C1352 C 0.22615 0.88406 0.14467 0.0
C1353 C 0.24619 0.87878 0.13921 0.0
C1354 C 0.20592 0.86872 0.16769 0.0
C1355 C 0.20544 0.84782 0.18502 0.0
C1356 C 0.22409 0.84114 0.17683 0.0
H1357 H 0.14546 0.73703 0.34446 0.0
H1358 H 0.17088 0.77068 0.30155 0.0
C1359 C 0.24437 0.85655 0.15426 0.0
C1360 C 0.18742 0.83432 0.21439 0.0
H1361 H 0.17928 0.83965 0.30294 0.0
C1362 C 0.16928 0.80825 0.21022 0.0
C1363 C 0.19058 0.84608 0.24791 0.0
C1364 C 0.21015 0.87402 0.25372 0.0
C1365 C 0.15489 0.79332 0.23906 0.0
C1366 C 0.15918 0.80469 0.27299 0.0
C1367 C 0.17626 0.83107 0.27688 0.0
C1368 C 0.14755 0.7887 0.3048 0.0
C1369 C 0.13577 0.76524 0.23327 0.0
C1370 C 0.12725 0.78901 0.32267 0.0
C1371 C 0.11285 0.76994 0.34772 0.0
C1372 C 0.1186 0.75038 0.35475 0.0
C1373 C 0.14059 0.75185 0.33945 0.0
C1374 C 0.155 0.77092 0.31476 0.0
H1375 H 0.13009 0.76103 0.20501 0.0
H1376 H 0.14457 0.7536 0.24134 0.0
H1377 H 0.11825 0.75908 0.24952 0.0
H1378 H 0.12138 0.80275 0.3154 0.0
H1379 H 0.09585 0.76911 0.35888 0.0
H1380 H 0.89546 0.6704 0.86461 0.0
H1381 H 0.86656 0.67791 0.82699 0.0
H1382 H 0.81976 0.59634 0.80945 0.0
H1383 H 0.84849 0.58876 0.84661 0.0
H1384 H 0.86011 0.66184 0.75427 0.0
H1385 H 0.76679 0.62001 0.82418 0.0
H1386 H 0.79675 0.62981 0.84693 0.0
H1387 H 0.78037 0.59934 0.82453 0.0
C1388 C 0.87841 0.65404 0.85389 0.0
C1389 C 0.87417 0.62899 0.85847 0.0
C1390 C 0.86209 0.65838 0.83218 0.0
C1391 C 0.84105 0.63768 0.81552 0.0
C1392 C 0.8357 0.61255 0.82242 0.0
H1393 H 0.731 0.59214 0.654 0.0
H1394 H 0.76419 0.59817 0.69639 0.0
C1395 C 0.85212 0.60824 0.84365 0.0
C1396 C 0.82657 0.64205 0.78737 0.0
H1397 H 0.76552 0.62326 0.76087 0.0
C1398 C 0.83949 0.65393 0.75585 0.0
C1399 C 0.79974 0.63165 0.78959 0.0
C1400 C 0.78511 0.6197 0.82326 0.0
C1401 C 0.82595 0.65419 0.72568 0.0
C1402 C 0.79894 0.64251 0.72741 0.0
C1403 C 0.78624 0.6319 0.75952 0.0
C1404 C 0.78302 0.63967 0.69602 0.0
C1405 C 0.84038 0.66568 0.69173 0.0
C1406 C 0.78355 0.66109 0.68028 0.0
C1407 C 0.76475 0.65768 0.65553 0.0
C1408 C 0.74504 0.63281 0.64677 0.0
C1409 C 0.74597 0.61151 0.6603 0.0
C1410 C 0.7648 0.61493 0.68469 0.0
H1411 H 0.86066 0.67016 0.69327 0.0
H1412 H 0.83084 0.65235 0.66925 0.0
H1413 H 0.84031 0.68376 0.68603 0.0
H1414 H 0.79731 0.68034 0.68894 0.0
H1415 H 0.76428 0.67442 0.64587 0.0
H1416 H 0.32487 0.09549 0.63833 0.0
H1417 H 0.31608 0.12096 0.68088 0.0
H1418 H 0.3972 0.1752 0.68835 0.0
H1419 H 0.40611 0.14979 0.64636 0.0
H1420 H 0.37031 0.14627 0.75309 0.0
H1421 H 0.323 0.19478 0.68704 0.0
H1422 H 0.31308 0.16197 0.67576 0.0
H1423 H 0.34439 0.18714 0.66319 0.0
C1424 C 0.34069 0.1135 0.64775 0.0
C1425 C 0.36619 0.12063 0.63927 0.0
C1426 C 0.33565 0.12793 0.67222 0.0
C1427 C 0.35604 0.14977 0.68792 0.0
C1428 C 0.38124 0.15832 0.67658 0.0
H1429 H 0.40469 0.26184 0.84261 0.0
H1430 H 0.3969 0.22604 0.80424 0.0
C1431 C 0.38629 0.14388 0.65244 0.0
C1432 C 0.35195 0.16148 0.71983 0.0
H1433 H 0.33232 0.20283 0.74779 0.0
C1434 C 0.36169 0.15838 0.75207 0.0
C1435 C 0.34031 0.17684 0.71844 0.0
C1436 C 0.32959 0.18058 0.68433 0.0
C1437 C 0.36132 0.17134 0.78266 0.0
C1438 C 0.35121 0.18805 0.78079 0.0
C1439 C 0.34002 0.18994 0.74909 0.0
C1440 C 0.35552 0.20649 0.80951 0.0
C1441 C 0.37245 0.16768 0.81646 0.0
C1442 C 0.33485 0.20692 0.82611 0.0
C1443 C 0.33931 0.22727 0.84858 0.0
C1444 C 0.36447 0.24766 0.85396 0.0
C1445 C 0.38514 0.24626 0.8391 0.0
C1446 C 0.38071 0.22583 0.81715 0.0
H1447 H 0.37177 0.14886 0.81678 0.0
H1448 H 0.39288 0.18301 0.81858 0.0
H1449 H 0.36203 0.1689 0.83997 0.0
H1450 H 0.31527 0.1922 0.82033 0.0
H1451 H 0.32303 0.22812 0.85927 0.0
H1452 H 0.85019 0.25827 0.64864 0.0
H1453 H 0.82279 0.22256 0.68775 0.0
H1454 H 0.87047 0.18886 0.66983 0.0
H1455 H 0.89802 0.22462 0.63026 0.0
H1456 H 0.79634 0.16528 0.68134 0.0
H1457 H 0.87664 0.2088 0.77896 0.0
H1458 H 0.87525 0.22668 0.74145 0.0
H1459 H 0.88319 0.20192 0.73504 0.0
C1460 C 0.8543 0.24278 0.652 0.0
C1461 C 0.87625 0.24424 0.63656 0.0
C1462 C 0.83872 0.22247 0.67446 0.0
C1463 C 0.84497 0.20344 0.68213 0.0
C1464 C 0.86557 0.20359 0.66443 0.0
H1465 H 0.76824 0.09194 0.85436 0.0
H1466 H 0.80145 0.11879 0.81109 0.0
C1467 C 0.88107 0.22383 0.64153 0.0
C1468 C 0.83134 0.18526 0.71131 0.0
H1469 H 0.83673 0.17584 0.79942 0.0
C1470 C 0.80526 0.16723 0.70698 0.0
C1471 C 0.8431 0.18797 0.74472 0.0
C1472 C 0.87106 0.20742 0.75067 0.0
C1473 C 0.79035 0.15239 0.73556 0.0
C1474 C 0.80174 0.15616 0.76944 0.0
C1475 C 0.82811 0.17322 0.77344 0.0
C1476 C 0.78585 0.14374 0.80108 0.0
C1477 C 0.76231 0.13323 0.72949 0.0
C1478 C 0.76733 0.15011 0.81139 0.0
C1479 C 0.7485 0.13494 0.83596 0.0
C1480 C 0.74804 0.1133 0.85085 0.0
C1481 C 0.7683 0.10866 0.84352 0.0
C1482 C 0.78711 0.1238 0.81858 0.0
H1483 H 0.75823 0.12783 0.70114 0.0
H1484 H 0.75616 0.11554 0.74539 0.0
H1485 H 0.75057 0.14187 0.73775 0.0
H1486 H 0.76637 0.16573 0.79857 0.0
H1487 H 0.73312 0.13895 0.84122 0.0
loop_
_geom_bond_atom_site_label_1
_geom_bond_atom_site_label_2
_geom_bond_distance
_geom_bond_site_symmetry_2
_ccdc_geom_bond_type
Co0 O3 1.970 . S
Co0 N17 1.989 . S
Co0 O25 1.967 . S
Co0 O32 1.920 . S
Co1 O4 1.966 . S
Co1 N10 2.022 . S
Co1 N18 1.993 . S
Co1 O26 1.941 . S
C2 O3 1.258 . S
C2 O4 1.263 . S
O3 Co0 1.970 . S
O3 C2 1.258 . S
O4 Co1 1.966 . S
O4 C2 1.263 . S
C5 O6 1.235 . S
C5 O32 1.289 . S
O6 C5 1.235 . S
C7 C9 1.400 . S
C7 N10 1.351 . S
C7 C12 1.501 . S
C8 C9 1.387 . S
C8 N11 1.341 . S
C9 C7 1.400 . S
C9 C8 1.387 . S
N10 Co1 2.022 . S
N10 C7 1.351 . S
N10 N11 1.365 . S
N11 C8 1.341 . S
N11 N10 1.365 . S
N11 H31 0.862 . S
C12 C7 1.501 . S
C12 H13 0.961 . S
C12 H14 0.961 . S
C12 H15 0.960 . S
H13 C12 0.961 . S
H14 C12 0.961 . S
H15 C12 0.960 . S
C16 N17 1.342 . S
C16 C20 1.401 . S
C16 C21 1.499 . S
N17 Co0 1.989 . S
N17 C16 1.342 . S
N17 N18 1.388 . S
N18 Co1 1.993 . S
N18 N17 1.388 . S
N18 C19 1.346 . S
C19 N18 1.346 . S
C19 C20 1.396 . S
C19 C29 1.510 . S
C20 C16 1.401 . S
C20 C19 1.396 . S
C21 C16 1.499 . S
C21 H22 0.959 . S
C21 H23 0.960 . S
C21 H24 0.961 . S
H22 C21 0.959 . S
H23 C21 0.960 . S
H24 C21 0.961 . S
O25 Co0 1.967 . S
O25 C33 1.258 . S
O26 Co1 1.941 . S
O26 C33 1.266 . S
H27 C29 0.959 . S
H28 C29 0.987 . S
C29 C19 1.510 . S
C29 H27 0.959 . S
C29 H28 0.987 . S
C29 H30 0.960 . S
H30 C29 0.960 . S
H31 N11 0.862 . S
O32 Co0 1.920 . S
O32 C5 1.289 . S
C33 O25 1.258 . S
C33 O26 1.266 . S
Co34 O37 1.970 . S
Co34 N51 1.989 . S
Co34 O59 1.967 . S
Co34 O66 1.920 . S
Co35 O38 1.966 . S
Co35 N44 2.022 . S
Co35 N52 1.993 . S
Co35 O60 1.941 . S
C36 O37 1.258 . S
C36 O38 1.263 . S
O37 Co34 1.970 . S
O37 C36 1.258 . S
O38 Co35 1.966 . S
O38 C36 1.263 . S
C39 O40 1.235 . S
C39 O66 1.289 . S
O40 C39 1.235 . S
C41 C43 1.400 . S
C41 N44 1.351 . S
C41 C46 1.501 . S
C42 C43 1.387 . S
C42 N45 1.341 . S
C43 C41 1.400 . S
C43 C42 1.387 . S
N44 Co35 2.022 . S
N44 C41 1.351 . S
N44 N45 1.365 . S
N45 C42 1.341 . S
N45 N44 1.365 . S
N45 H65 0.862 . S
C46 C41 1.501 . S
C46 H47 0.961 . S
C46 H48 0.961 . S
C46 H49 0.960 . S
H47 C46 0.961 . S
H48 C46 0.961 . S
H49 C46 0.960 . S
C50 N51 1.342 . S
C50 C54 1.401 . S
C50 C55 1.499 . S
N51 Co34 1.989 . S
N51 C50 1.342 . S
N51 N52 1.388 . S
N52 Co35 1.993 . S
N52 N51 1.388 . S
N52 C53 1.346 . S
C53 N52 1.346 . S
C53 C54 1.396 . S
C53 C63 1.510 . S
C54 C50 1.401 . S
C54 C53 1.396 . S
C55 C50 1.499 . S
C55 H56 0.959 . S
C55 H57 0.960 . S
C55 H58 0.961 . S
H56 C55 0.959 . S
H57 C55 0.960 . S
H58 C55 0.961 . S
O59 Co34 1.967 . S
O59 C67 1.258 . S
O60 Co35 1.941 . S
O60 C67 1.266 . S
H61 C63 0.959 . S
H62 C63 0.986 . S
C63 C53 1.510 . S
C63 H61 0.959 . S
C63 H62 0.986 . S
C63 H64 0.960 . S
H64 C63 0.960 . S
H65 N45 0.862 . S
O66 Co34 1.920 . S
O66 C39 1.289 . S
C67 O59 1.258 . S
C67 O60 1.266 . S
Co68 O71 1.970 . S
Co68 N85 1.989 . S
Co68 O93 1.967 . S
Co68 O100 1.920 . S
Co69 O72 1.966 . S
Co69 N78 2.022 . S
Co69 N86 1.993 . S
Co69 O94 1.941 . S
C70 O71 1.258 . S
C70 O72 1.263 . S
O71 Co68 1.970 . S
O71 C70 1.258 . S
O72 Co69 1.966 . S
O72 C70 1.263 . S
C73 O74 1.235 . S
C73 O100 1.289 . S
O74 C73 1.235 . S
C75 C77 1.400 . S
C75 N78 1.351 . S
C75 C80 1.501 . S
C76 C77 1.387 . S
C76 N79 1.341 . S
C77 C75 1.400 . S
C77 C76 1.387 . S
N78 Co69 2.022 . S
N78 C75 1.351 . S
N78 N79 1.365 . S
N79 C76 1.341 . S
N79 N78 1.365 . S
N79 H99 0.862 . S
C80 C75 1.501 . S
C80 H81 0.961 . S
C80 H82 0.961 . S
C80 H83 0.960 . S
H81 C80 0.961 . S
H82 C80 0.961 . S
H83 C80 0.960 . S
C84 N85 1.342 . S
C84 C88 1.401 . S
C84 C89 1.499 . S
N85 Co68 1.989 . S
N85 C84 1.342 . S
N85 N86 1.388 . S
N86 Co69 1.993 . S
N86 N85 1.388 . S
N86 C87 1.346 . S
C87 N86 1.346 . S
C87 C88 1.396 . S
C87 C97 1.510 . S
C88 C84 1.401 . S
C88 C87 1.396 . S
C89 C84 1.499 . S
C89 H90 0.959 . S
C89 H91 0.960 . S
C89 H92 0.961 . S
H90 C89 0.959 . S
H91 C89 0.960 . S
H92 C89 0.961 . S
O93 Co68 1.967 . S
O93 C101 1.258 . S
O94 Co69 1.941 . S
O94 C101 1.266 . S
H95 C97 0.959 . S
H96 C97 0.986 . S
C97 C87 1.510 . S
C97 H95 0.959 . S
C97 H96 0.986 . S
C97 H98 0.960 . S
H98 C97 0.960 . S
H99 N79 0.862 . S
O100 Co68 1.920 . S
O100 C73 1.289 . S
C101 O93 1.258 . S
C101 O94 1.266 . S
Co102 O105 1.970 . S
Co102 N119 1.989 . S
Co102 O127 1.967 . S
Co102 O134 1.920 . S
Co103 O106 1.966 . S
Co103 N112 2.022 . S
Co103 N120 1.993 . S
Co103 O128 1.941 . S
C104 O105 1.258 . S
C104 O106 1.263 . S
O105 Co102 1.970 . S
O105 C104 1.258 . S
O106 Co103 1.966 . S
O106 C104 1.263 . S
C107 O108 1.235 . S
C107 O134 1.289 . S
O108 C107 1.235 . S
C109 C111 1.400 . S
C109 N112 1.351 . S
C109 C114 1.501 . S
C110 C111 1.387 . S
C110 N113 1.341 . S
C111 C109 1.400 . S
C111 C110 1.387 . S
N112 Co103 2.022 . S
N112 C109 1.351 . S
N112 N113 1.365 . S
N113 C110 1.341 . S
N113 N112 1.365 . S
N113 H133 0.862 . S
C114 C109 1.501 . S
C114 H115 0.961 . S
C114 H116 0.961 . S
C114 H117 0.960 . S
H115 C114 0.961 . S
H116 C114 0.961 . S
H117 C114 0.960 . S
C118 N119 1.342 . S
C118 C122 1.401 . S
C118 C123 1.499 . S
N119 Co102 1.989 . S
N119 C118 1.342 . S
N119 N120 1.388 . S
N120 Co103 1.993 . S
N120 N119 1.388 . S
N120 C121 1.346 . S
C121 N120 1.346 . S
C121 C122 1.396 . S
C121 C131 1.510 . S
C122 C118 1.401 . S
C122 C121 1.396 . S
C123 C118 1.499 . S
C123 H124 0.959 . S
C123 H125 0.960 . S
C123 H126 0.961 . S
H124 C123 0.959 . S
H125 C123 0.960 . S
H126 C123 0.961 . S
O127 Co102 1.967 . S
O127 C135 1.258 . S
O128 Co103 1.941 . S
O128 C135 1.266 . S
H129 C131 0.959 . S
H130 C131 0.961 . S
C131 C121 1.510 . S
C131 H129 0.959 . S
C131 H130 0.961 . S
C131 H132 0.960 . S
H132 C131 0.960 . S
H133 N113 0.862 . S
O134 Co102 1.920 . S
O134 C107 1.289 . S
C135 O127 1.258 . S
C135 O128 1.266 . S
Co136 O139 1.970 . S
Co136 N153 1.989 . S
Co136 O161 1.967 . S
Co136 O168 1.920 . S
Co137 O140 1.966 . S
Co137 N146 2.022 . S
Co137 N154 1.993 . S
Co137 O162 1.941 . S
C138 O139 1.258 . S
C138 O140 1.263 . S
O139 Co136 1.970 . S
O139 C138 1.258 . S
O140 Co137 1.966 . S
O140 C138 1.263 . S
C141 O142 1.235 . S
C141 O168 1.289 . S
O142 C141 1.235 . S
C143 C145 1.400 . S
C143 N146 1.351 . S
C143 C148 1.501 . S
C144 C145 1.387 . S
C144 N147 1.341 . S
C145 C143 1.400 . S
C145 C144 1.387 . S
N146 Co137 2.022 . S
N146 C143 1.351 . S
N146 N147 1.365 . S
N147 C144 1.341 . S
N147 N146 1.365 . S
N147 H167 0.862 . S
C148 C143 1.501 . S
C148 H149 0.961 . S
C148 H150 0.961 . S
C148 H151 0.960 . S
H149 C148 0.961 . S
H150 C148 0.961 . S
H151 C148 0.960 . S
C152 N153 1.342 . S
C152 C156 1.401 . S
C152 C157 1.499 . S
N153 Co136 1.989 . S
N153 C152 1.342 . S
N153 N154 1.388 . S
N154 Co137 1.993 . S
N154 N153 1.388 . S
N154 C155 1.346 . S
C155 N154 1.346 . S
C155 C156 1.396 . S
C155 C165 1.510 . S
C156 C152 1.401 . S
C156 C155 1.396 . S
C157 C152 1.499 . S
C157 H158 0.959 . S
C157 H159 0.960 . S
C157 H160 0.961 . S
H158 C157 0.959 . S
H159 C157 0.960 . S
H160 C157 0.961 . S
O161 Co136 1.967 . S
O161 C169 1.258 . S
O162 Co137 1.941 . S
O162 C169 1.266 . S
H163 C165 0.959 . S
H164 C165 0.961 . S
C165 C155 1.510 . S
C165 H163 0.959 . S
C165 H164 0.961 . S
C165 H166 0.960 . S
H166 C165 0.960 . S
H167 N147 0.862 . S
O168 Co136 1.920 . S
O168 C141 1.289 . S
C169 O161 1.258 . S
C169 O162 1.266 . S
Co170 O173 1.970 . S
Co170 N187 1.989 . S
Co170 O195 1.967 . S
Co170 O202 1.920 . S
Co171 O174 1.966 . S
Co171 N180 2.022 . S
Co171 N188 1.993 . S
Co171 O196 1.941 . S
C172 O173 1.258 . S
C172 O174 1.263 . S
O173 Co170 1.970 . S
O173 C172 1.258 . S
O174 Co171 1.966 . S
O174 C172 1.263 . S
C175 O176 1.235 . S
C175 O202 1.289 . S
O176 C175 1.235 . S
C177 C179 1.400 . S
C177 N180 1.351 . S
C177 C182 1.501 . S
C178 C179 1.387 . S
C178 N181 1.341 . S
C179 C177 1.400 . S
C179 C178 1.387 . S
N180 Co171 2.022 . S
N180 C177 1.351 . S
N180 N181 1.365 . S
N181 C178 1.341 . S
N181 N180 1.365 . S
N181 H201 0.862 . S
C182 C177 1.501 . S
C182 H183 0.961 . S
C182 H184 0.961 . S
C182 H185 0.960 . S
H183 C182 0.961 . S
H184 C182 0.961 . S
H185 C182 0.960 . S
C186 N187 1.342 . S
C186 C190 1.401 . S
C186 C191 1.499 . S
N187 Co170 1.989 . S
N187 C186 1.342 . S
N187 N188 1.388 . S
N188 Co171 1.993 . S
N188 N187 1.388 . S
N188 C189 1.346 . S
C189 N188 1.346 . S
C189 C190 1.396 . S
C189 C199 1.510 . S
C190 C186 1.401 . S
C190 C189 1.396 . S
C191 C186 1.499 . S
C191 H192 0.959 . S
C191 H193 0.960 . S
C191 H194 0.961 . S
H192 C191 0.959 . S
H193 C191 0.960 . S
H194 C191 0.961 . S
O195 Co170 1.967 . S
O195 C203 1.258 . S
O196 Co171 1.941 . S
O196 C203 1.266 . S
H197 C199 0.959 . S
H198 C199 0.961 . S
C199 C189 1.510 . S
C199 H197 0.959 . S
C199 H198 0.961 . S
C199 H200 0.960 . S
H200 C199 0.960 . S
H201 N181 0.862 . S
O202 Co170 1.920 . S
O202 C175 1.289 . S
C203 O195 1.258 . S
C203 O196 1.266 . S
Co204 O207 1.970 . S
Co204 N221 1.989 . S
Co204 O229 1.967 . S
Co204 O236 1.920 . S
Co205 O208 1.966 . S
Co205 N214 2.022 . S
Co205 N222 1.993 . S
Co205 O230 1.941 . S
C206 O207 1.258 . S
C206 O208 1.263 . S
O207 Co204 1.970 . S
O207 C206 1.258 . S
O208 Co205 1.966 . S
O208 C206 1.263 . S
C209 O210 1.235 . S
C209 O236 1.289 . S
O210 C209 1.235 . S
C211 C213 1.400 . S
C211 N214 1.351 . S
C211 C216 1.501 . S
C212 C213 1.387 . S
C212 N215 1.341 . S
C213 C211 1.400 . S
C213 C212 1.387 . S
N214 Co205 2.022 . S
N214 C211 1.351 . S
N214 N215 1.365 . S
N215 C212 1.341 . S
N215 N214 1.365 . S
N215 H235 0.862 . S
C216 C211 1.501 . S
C216 H217 0.961 . S
C216 H218 0.961 . S
C216 H219 0.960 . S
H217 C216 0.961 . S
H218 C216 0.961 . S
H219 C216 0.960 . S
C220 N221 1.342 . S
C220 C224 1.401 . S
C220 C225 1.499 . S
N221 Co204 1.989 . S
N221 C220 1.342 . S
N221 N222 1.388 . S
N222 Co205 1.993 . S
N222 N221 1.388 . S
N222 C223 1.346 . S
C223 N222 1.346 . S
C223 C224 1.396 . S
C223 C233 1.510 . S
C224 C220 1.401 . S
C224 C223 1.396 . S
C225 C220 1.499 . S
C225 H226 0.959 . S
C225 H227 0.960 . S
C225 H228 0.961 . S
H226 C225 0.959 . S
H227 C225 0.960 . S
H228 C225 0.961 . S
O229 Co204 1.967 . S
O229 C237 1.258 . S
O230 Co205 1.941 . S
O230 C237 1.266 . S
H231 C233 0.959 . S
H232 C233 0.987 . S
C233 C223 1.510 . S
C233 H231 0.959 . S
C233 H232 0.987 . S
C233 H234 0.960 . S
H234 C233 0.960 . S
H235 N215 0.862 . S
O236 Co204 1.920 . S
O236 C209 1.289 . S
C237 O229 1.258 . S
C237 O230 1.266 . S
Co238 O241 1.970 . S
Co238 N255 1.989 . S
Co238 O263 1.967 . S
Co238 O270 1.920 . S
Co239 O242 1.966 . S
Co239 N248 2.022 . S
Co239 N256 1.993 . S
Co239 O264 1.941 . S
C240 O241 1.258 . S
C240 O242 1.263 . S
O241 Co238 1.970 . S
O241 C240 1.258 . S
O242 Co239 1.966 . S
O242 C240 1.263 . S
C243 O244 1.235 . S
C243 O270 1.289 . S
O244 C243 1.235 . S
C245 C247 1.400 . S
C245 N248 1.351 . S
C245 C250 1.501 . S
C246 C247 1.387 . S
C246 N249 1.341 . S
C247 C245 1.400 . S
C247 C246 1.387 . S
N248 Co239 2.022 . S
N248 C245 1.351 . S
N248 N249 1.365 . S
N249 C246 1.341 . S
N249 N248 1.365 . S
N249 H269 0.862 . S
C250 C245 1.501 . S
C250 H251 0.961 . S
C250 H252 0.961 . S
C250 H253 0.960 . S
H251 C250 0.961 . S
H252 C250 0.961 . S
H253 C250 0.960 . S
C254 N255 1.342 . S
C254 C258 1.401 . S
C254 C259 1.499 . S
N255 Co238 1.989 . S
N255 C254 1.342 . S
N255 N256 1.388 . S
N256 Co239 1.993 . S
N256 N255 1.388 . S
N256 C257 1.346 . S
C257 N256 1.346 . S
C257 C258 1.396 . S
C257 C267 1.510 . S
C258 C254 1.401 . S
C258 C257 1.396 . S
C259 C254 1.499 . S
C259 H260 0.959 . S
C259 H261 0.960 . S
C259 H262 0.961 . S
H260 C259 0.959 . S
H261 C259 0.960 . S
H262 C259 0.961 . S
O263 Co238 1.967 . S
O263 C271 1.258 . S
O264 Co239 1.941 . S
O264 C271 1.266 . S
H265 C267 0.959 . S
H266 C267 0.986 . S
C267 C257 1.510 . S
C267 H265 0.959 . S
C267 H266 0.986 . S
C267 H268 0.960 . S
H268 C267 0.960 . S
H269 N249 0.862 . S
O270 Co238 1.920 . S
O270 C243 1.289 . S
C271 O263 1.258 . S
C271 O264 1.266 . S
Co272 O275 1.970 . S
Co272 N289 1.989 . S
Co272 O297 1.967 . S
Co272 O304 1.920 . S
Co273 O276 1.966 . S
Co273 N282 2.022 . S
Co273 N290 1.993 . S
Co273 O298 1.941 . S
C274 O275 1.258 . S
C274 O276 1.263 . S
O275 Co272 1.970 . S
O275 C274 1.258 . S
O276 Co273 1.966 . S
O276 C274 1.263 . S
C277 O278 1.235 . S
C277 O304 1.289 . S
O278 C277 1.235 . S
C279 C281 1.400 . S
C279 N282 1.351 . S
C279 C284 1.501 . S
C280 C281 1.387 . S
C280 N283 1.341 . S
C281 C279 1.400 . S
C281 C280 1.387 . S
N282 Co273 2.022 . S
N282 C279 1.351 . S
N282 N283 1.365 . S
N283 C280 1.341 . S
N283 N282 1.365 . S
N283 H303 0.862 . S
C284 C279 1.501 . S
C284 H285 0.961 . S
C284 H286 0.961 . S
C284 H287 0.960 . S
H285 C284 0.961 . S
H286 C284 0.961 . S
H287 C284 0.960 . S
C288 N289 1.342 . S
C288 C292 1.401 . S
C288 C293 1.499 . S
N289 Co272 1.989 . S
N289 C288 1.342 . S
N289 N290 1.388 . S
N290 Co273 1.993 . S
N290 N289 1.388 . S
N290 C291 1.346 . S
C291 N290 1.346 . S
C291 C292 1.396 . S
C291 C301 1.510 . S
C292 C288 1.401 . S
C292 C291 1.396 . S
C293 C288 1.499 . S
C293 H294 0.959 . S
C293 H295 0.960 . S
C293 H296 0.961 . S
H294 C293 0.959 . S
H295 C293 0.960 . S
H296 C293 0.961 . S
O297 Co272 1.967 . S
O297 C305 1.258 . S
O298 Co273 1.941 . S
O298 C305 1.266 . S
H299 C301 0.959 . S
H300 C301 0.986 . S
C301 C291 1.510 . S
C301 H299 0.959 . S
C301 H300 0.986 . S
C301 H302 0.960 . S
H302 C301 0.960 . S
H303 N283 0.862 . S
O304 Co272 1.920 . S
O304 C277 1.289 . S
C305 O297 1.258 . S
C305 O298 1.266 . S
Co306 O309 1.970 . S
Co306 N323 1.989 . S
Co306 O331 1.967 . S
Co306 O338 1.920 . S
Co307 O310 1.966 . S
Co307 N316 2.022 . S
Co307 N324 1.993 . S
Co307 O332 1.941 . S
C308 O309 1.258 . S
C308 O310 1.263 . S
O309 Co306 1.970 . S
O309 C308 1.258 . S
O310 Co307 1.966 . S
O310 C308 1.263 . S
C311 O312 1.235 . S
C311 O338 1.289 . S
O312 C311 1.235 . S
C313 C315 1.400 . S
C313 N316 1.351 . S
C313 C318 1.501 . S
C314 C315 1.387 . S
C314 N317 1.341 . S
C315 C313 1.400 . S
C315 C314 1.387 . S
N316 Co307 2.022 . S
N316 C313 1.351 . S
N316 N317 1.365 . S
N317 C314 1.341 . S
N317 N316 1.365 . S
N317 H337 0.862 . S
C318 C313 1.501 . S
C318 H319 0.961 . S
C318 H320 0.961 . S
C318 H321 0.960 . S
H319 C318 0.961 . S
H320 C318 0.961 . S
H321 C318 0.960 . S
C322 N323 1.342 . S
C322 C326 1.401 . S
C322 C327 1.499 . S
N323 Co306 1.989 . S
N323 C322 1.342 . S
N323 N324 1.388 . S
N324 Co307 1.993 . S
N324 N323 1.388 . S
N324 C325 1.346 . S
C325 N324 1.346 . S
C325 C326 1.396 . S
C325 C335 1.510 . S
C326 C322 1.401 . S
C326 C325 1.396 . S
C327 C322 1.499 . S
C327 H328 0.959 . S
C327 H329 0.960 . S
C327 H330 0.961 . S
H328 C327 0.959 . S
H329 C327 0.960 . S
H330 C327 0.961 . S
O331 Co306 1.967 . S
O331 C339 1.258 . S
O332 Co307 1.941 . S
O332 C339 1.266 . S
H333 C335 0.959 . S
H334 C335 0.961 . S
C335 C325 1.510 . S
C335 H333 0.959 . S
C335 H334 0.961 . S
C335 H336 0.960 . S
H336 C335 0.960 . S
H337 N317 0.862 . S
O338 Co306 1.920 . S
O338 C311 1.289 . S
C339 O331 1.258 . S
C339 O332 1.266 . S
Co340 O343 1.970 . S
Co340 N357 1.989 . S
Co340 O365 1.967 . S
Co340 O372 1.920 . S
Co341 O344 1.966 . S
Co341 N350 2.022 . S
Co341 N358 1.993 . S
Co341 O366 1.941 . S
C342 O343 1.258 . S
C342 O344 1.263 . S
O343 Co340 1.970 . S
O343 C342 1.258 . S
O344 Co341 1.966 . S
O344 C342 1.263 . S
C345 O346 1.235 . S
C345 O372 1.289 . S
O346 C345 1.235 . S
C347 C349 1.400 . S
C347 N350 1.351 . S
C347 C352 1.501 . S
C348 C349 1.387 . S
C348 N351 1.341 . S
C349 C347 1.400 . S
C349 C348 1.387 . S
N350 Co341 2.022 . S
N350 C347 1.351 . S
N350 N351 1.365 . S
N351 C348 1.341 . S
N351 N350 1.365 . S
N351 H371 0.862 . S
C352 C347 1.501 . S
C352 H353 0.961 . S
C352 H354 0.961 . S
C352 H355 0.960 . S
H353 C352 0.961 . S
H354 C352 0.961 . S
H355 C352 0.960 . S
C356 N357 1.342 . S
C356 C360 1.401 . S
C356 C361 1.499 . S
N357 Co340 1.989 . S
N357 C356 1.342 . S
N357 N358 1.388 . S
N358 Co341 1.993 . S
N358 N357 1.388 . S
N358 C359 1.346 . S
C359 N358 1.346 . S
C359 C360 1.396 . S
C359 C369 1.510 . S
C360 C356 1.401 . S
C360 C359 1.396 . S
C361 C356 1.499 . S
C361 H362 0.959 . S
C361 H363 0.960 . S
C361 H364 0.961 . S
H362 C361 0.959 . S
H363 C361 0.960 . S
H364 C361 0.961 . S
O365 Co340 1.967 . S
O365 C373 1.258 . S
O366 Co341 1.941 . S
O366 C373 1.266 . S
H367 C369 0.959 . S
H368 C369 0.961 . S
C369 C359 1.510 . S
C369 H367 0.959 . S
C369 H368 0.961 . S
C369 H370 0.960 . S
H370 C369 0.960 . S
H371 N351 0.862 . S
O372 Co340 1.920 . S
O372 C345 1.289 . S
C373 O365 1.258 . S
C373 O366 1.266 . S
Co374 O377 1.970 . S
Co374 N391 1.989 . S
Co374 O399 1.967 . S
Co374 O406 1.920 . S
Co375 O378 1.966 . S
Co375 N384 2.022 . S
Co375 N392 1.993 . S
Co375 O400 1.941 . S
C376 O377 1.258 . S
C376 O378 1.263 . S
O377 Co374 1.970 . S
O377 C376 1.258 . S
O378 Co375 1.966 . S
O378 C376 1.263 . S
C379 O380 1.235 . S
C379 O406 1.289 . S
O380 C379 1.235 . S
C381 C383 1.400 . S
C381 N384 1.351 . S
C381 C386 1.501 . S
C382 C383 1.387 . S
C382 N385 1.341 . S
C383 C381 1.400 . S
C383 C382 1.387 . S
N384 Co375 2.022 . S
N384 C381 1.351 . S
N384 N385 1.365 . S
N385 C382 1.341 . S
N385 N384 1.365 . S
N385 H405 0.862 . S
C386 C381 1.501 . S
C386 H387 0.961 . S
C386 H388 0.961 . S
C386 H389 0.960 . S
H387 C386 0.961 . S
H388 C386 0.961 . S
H389 C386 0.960 . S
C390 N391 1.342 . S
C390 C394 1.401 . S
C390 C395 1.499 . S
N391 Co374 1.989 . S
N391 C390 1.342 . S
N391 N392 1.388 . S
N392 Co375 1.993 . S
N392 N391 1.388 . S
N392 C393 1.346 . S
C393 N392 1.346 . S
C393 C394 1.396 . S
C393 C403 1.510 . S
C394 C390 1.401 . S
C394 C393 1.396 . S
C395 C390 1.499 . S
C395 H396 0.959 . S
C395 H397 0.960 . S
C395 H398 0.961 . S
H396 C395 0.959 . S
H397 C395 0.960 . S
H398 C395 0.961 . S
O399 Co374 1.967 . S
O399 C407 1.258 . S
O400 Co375 1.941 . S
O400 C407 1.266 . S
H401 C403 0.959 . S
H402 C403 0.961 . S
C403 C393 1.510 . S
C403 H401 0.959 . S
C403 H402 0.961 . S
C403 H404 0.960 . S
H404 C403 0.960 . S
H405 N385 0.862 . S
O406 Co374 1.920 . S
O406 C379 1.289 . S
C407 O399 1.258 . S
C407 O400 1.266 . S
H408 C416 0.929 . S
H409 C418 0.930 . S
H410 C420 0.930 . S
H411 C423 0.929 . S
H412 C426 0.930 . S
H413 C428 0.960 . S
H414 C428 0.960 . S
H415 C428 0.960 . S
C416 H408 0.929 . S
C416 C417 1.377 . S
C416 C418 1.384 . S
C417 C416 1.377 . S
C417 C423 1.390 . S
C418 H409 0.930 . S
C418 C416 1.384 . S
C418 C419 1.372 . S
C419 C418 1.372 . S
C419 C420 1.400 . S
C419 C424 1.490 1_655 S
C420 H410 0.930 . S
C420 C419 1.400 . S
C420 C423 1.386 . S
H421 C437 0.930 . S
H422 C438 0.931 . S
C423 H411 0.929 . S
C423 C417 1.390 . S
C423 C420 1.386 . S
C424 C419 1.490 1_455 S
C424 C426 1.395 . S
C424 C427 1.403 1_455 S
H425 C431 0.924 1_655 S
C426 H412 0.930 . S
C426 C424 1.395 . S
C426 C429 1.403 . S
C427 C424 1.403 1_655 S
C427 C428 1.524 . S
C427 C431 1.395 1_655 S
C428 H413 0.960 . S
C428 H414 0.960 . S
C428 H415 0.960 . S
C428 C427 1.524 . S
C429 C426 1.403 . S
C429 C430 1.392 . S
C429 C433 1.495 . S
C430 C429 1.392 . S
C430 C431 1.396 . S
C430 C432 1.478 . S
C431 H425 0.924 1_455 S
C431 C427 1.395 1_455 S
C431 C430 1.396 . S
C432 C430 1.478 . S
C432 C434 1.381 . S
C432 C438 1.383 . S
C433 C429 1.495 . S
C433 H439 0.959 . S
C433 H440 0.961 . S
C433 H441 0.960 . S
C434 C432 1.381 . S
C434 C435 1.394 . S
C434 H442 0.930 . S
C435 C434 1.394 . S
C435 C436 1.383 . S
C435 H443 0.929 . S
C436 C435 1.383 . S
C436 C437 1.377 . S
C437 H421 0.930 . S
C437 C436 1.377 . S
C437 C438 1.379 . S
C438 H422 0.931 . S
C438 C432 1.383 . S
C438 C437 1.379 . S
H439 C433 0.959 . S
H440 C433 0.961 . S
H441 C433 0.960 . S
H442 C434 0.930 . S
H443 C435 0.929 . S
H444 C452 0.929 . S
H445 C454 0.930 . S
H446 C456 0.930 . S
H447 C459 0.929 . S
H448 C462 0.930 . S
H449 C464 0.960 . S
H450 C464 0.960 . S
H451 C464 0.960 . S
C452 H444 0.929 . S
C452 C453 1.377 . S
C452 C454 1.384 . S
C453 C452 1.377 . S
C453 C459 1.390 . S
C454 H445 0.930 . S
C454 C452 1.384 . S
C454 C455 1.372 . S
C455 C454 1.372 . S
C455 C456 1.400 . S
C455 C460 1.490 . S
C456 H446 0.930 . S
C456 C455 1.400 . S
C456 C459 1.386 . S
H457 C473 0.930 . S
H458 C474 0.931 . S
C459 H447 0.929 . S
C459 C453 1.390 . S
C459 C456 1.386 . S
C460 C455 1.490 . S
C460 C462 1.395 . S
C460 C463 1.403 . S
H461 C467 0.930 . S
C462 H448 0.930 . S
C462 C460 1.395 . S
C462 C465 1.403 . S
C463 C460 1.403 . S
C463 C464 1.524 . S
C463 C467 1.400 . S
C464 H449 0.960 . S
C464 H450 0.960 . S
C464 H451 0.960 . S
C464 C463 1.524 . S
C465 C462 1.403 . S
C465 C466 1.392 . S
C465 C469 1.495 . S
C466 C465 1.392 . S
C466 C467 1.385 . S
C466 C468 1.478 . S
C467 H461 0.930 . S
C467 C463 1.400 . S
C467 C466 1.385 . S
C468 C466 1.478 . S
C468 C470 1.381 . S
C468 C474 1.383 . S
C469 C465 1.495 . S
C469 H475 0.959 . S
C469 H476 0.961 . S
C469 H477 0.960 . S
C470 C468 1.381 . S
C470 C471 1.394 . S
C470 H478 0.930 . S
C471 C470 1.394 . S
C471 C472 1.383 . S
C471 H479 0.929 . S
C472 C471 1.383 . S
C472 C473 1.377 . S
C473 H457 0.930 . S
C473 C472 1.377 . S
C473 C474 1.379 . S
C474 H458 0.931 . S
C474 C468 1.383 . S
C474 C473 1.379 . S
H475 C469 0.959 . S
H476 C469 0.961 . S
H477 C469 0.960 . S
H478 C470 0.930 . S
H479 C471 0.929 . S
H480 C488 0.967 . S
H481 C490 0.930 . S
H482 C492 0.930 . S
H483 C495 0.929 . S
H484 C498 0.930 . S
H485 C500 0.960 . S
H486 C500 0.960 1_565 S
H487 C500 0.960 . S
C488 H480 0.967 . S
C488 C489 1.330 1_565 S
C488 C490 1.396 . S
C489 C488 1.330 1_545 S
C489 C495 1.390 . S
C490 H481 0.930 . S
C490 C488 1.396 . S
C490 C491 1.372 1_565 S
C491 C490 1.372 1_545 S
C491 C492 1.400 . S
C491 C496 1.490 1_545 S
C492 H482 0.930 . S
C492 C491 1.400 . S
C492 C495 1.386 . S
H493 C509 0.930 . S
H494 C510 0.931 1_545 S
C495 H483 0.929 . S
C495 C489 1.390 . S
C495 C492 1.386 . S
C496 C491 1.490 1_565 S
C496 C498 1.395 . S
C496 C499 1.403 . S
H497 C503 0.930 . S
C498 H484 0.930 . S
C498 C496 1.395 . S
C498 C501 1.403 . S
C499 C496 1.403 . S
C499 C500 1.524 1_565 S
C499 C503 1.400 . S
C500 H485 0.960 . S
C500 H486 0.960 1_545 S
C500 H487 0.960 . S
C500 C499 1.524 1_545 S
C501 C498 1.403 . S
C501 C502 1.392 . S
C501 C505 1.495 . S
C502 C501 1.392 . S
C502 C503 1.385 . S
C502 C504 1.478 . S
C503 H497 0.930 . S
C503 C499 1.400 . S
C503 C502 1.385 . S
C504 C502 1.478 . S
C504 C506 1.381 . S
C504 C510 1.383 . S
C505 C501 1.495 . S
C505 H511 0.959 . S
C505 H512 0.961 . S
C505 H513 0.960 . S
C506 C504 1.381 . S
C506 C507 1.394 . S
C506 H514 0.930 . S
C507 C506 1.394 . S
C507 C508 1.383 . S
C507 H515 0.929 . S
C508 C507 1.383 . S
C508 C509 1.377 . S
C509 H493 0.930 . S
C509 C508 1.377 . S
C509 C510 1.379 . S
C510 H494 0.931 1_565 S
C510 C504 1.383 . S
C510 C509 1.379 . S
H511 C505 0.959 . S
H512 C505 0.961 . S
H513 C505 0.960 . S
H514 C506 0.930 . S
H515 C507 0.929 . S
H516 C524 0.929 . S
H517 C526 0.930 . S
H518 C528 0.930 . S
H519 C531 0.929 . S
H520 C534 0.930 . S
H521 C536 0.960 . S
H522 C536 0.960 . S
H523 C536 0.960 . S
C524 H516 0.929 . S
C524 C525 1.377 . S
C524 C526 1.384 . S
C525 C524 1.377 . S
C525 C531 1.390 . S
C526 H517 0.930 . S
C526 C524 1.384 . S
C526 C527 1.372 . S
C527 C526 1.372 . S
C527 C528 1.400 . S
C527 C532 1.490 . S
C528 H518 0.930 . S
C528 C527 1.400 . S
C528 C531 1.386 . S
H529 C545 0.930 . S
H530 C546 0.931 1_565 S
C531 H519 0.929 . S
C531 C525 1.390 . S
C531 C528 1.386 . S
C532 C527 1.490 . S
C532 C534 1.395 . S
C532 C535 1.403 1_565 S
H533 C539 0.930 . S
C534 H520 0.930 . S
C534 C532 1.395 . S
C534 C537 1.403 . S
C535 C532 1.403 1_545 S
C535 C536 1.524 . S
C535 C539 1.400 . S
C536 H521 0.960 . S
C536 H522 0.960 . S
C536 H523 0.960 . S
C536 C535 1.524 . S
C537 C534 1.403 . S
C537 C538 1.392 . S
C537 C541 1.495 . S
C538 C537 1.392 . S
C538 C539 1.385 1_565 S
C538 C540 1.478 1_565 S
C539 H533 0.930 . S
C539 C535 1.400 . S
C539 C538 1.385 1_545 S
C540 C538 1.478 1_545 S
C540 C542 1.381 . S
C540 C546 1.383 . S
C541 C537 1.495 . S
C541 H547 0.959 . S
C541 H548 0.961 . S
C541 H549 0.960 . S
C542 C540 1.381 . S
C542 C543 1.394 . S
C542 H550 0.930 . S
C543 C542 1.394 . S
C543 C544 1.383 . S
C543 H551 0.929 . S
C544 C543 1.383 . S
C544 C545 1.377 . S
C545 H529 0.930 . S
C545 C544 1.377 . S
C545 C546 1.379 . S
C546 H530 0.931 1_545 S
C546 C540 1.383 . S
C546 C545 1.379 . S
H547 C541 0.959 . S
H548 C541 0.961 . S
H549 C541 0.960 . S
H550 C542 0.930 . S
H551 C543 0.929 . S
H552 C560 0.929 . S
H553 C562 0.930 1_655 S
H554 C564 0.930 . S
H555 C567 0.929 . S
H556 C570 0.930 . S
H557 C572 0.960 . S
H558 C572 0.960 . S
H559 C572 0.960 . S
C560 H552 0.929 . S
C560 C561 1.377 . S
C560 C562 1.384 . S
C561 C560 1.377 . S
C561 C567 1.390 . S
C562 H553 0.930 1_455 S
C562 C560 1.384 . S
C562 C563 1.372 . S
C563 C562 1.372 . S
C563 C564 1.400 . S
C563 C568 1.490 . S
C564 H554 0.930 . S
C564 C563 1.400 . S
C564 C567 1.386 . S
H565 C581 0.930 1_455 S
H566 C582 0.931 . S
C567 H555 0.929 . S
C567 C561 1.390 . S
C567 C564 1.386 . S
C568 C563 1.490 . S
C568 C570 1.395 1_455 S
C568 C571 1.403 . S
H569 C575 0.930 . S
C570 H556 0.930 . S
C570 C568 1.395 1_655 S
C570 C573 1.403 . S
C571 C568 1.403 . S
C571 C572 1.524 . S
C571 C575 1.400 . S
C572 H557 0.960 . S
C572 H558 0.960 . S
C572 H559 0.960 . S
C572 C571 1.524 . S
C573 C570 1.403 . S
C573 C574 1.392 . S
C573 C577 1.495 . S
C574 C573 1.392 . S
C574 C575 1.385 1_655 S
C574 C576 1.478 . S
C575 H569 0.930 . S
C575 C571 1.400 . S
C575 C574 1.385 1_455 S
C576 C574 1.478 . S
C576 C578 1.381 . S
C576 C582 1.383 1_655 S
C577 C573 1.495 . S
C577 H583 0.959 . S
C577 H584 0.961 . S
C577 H585 0.960 . S
C578 C576 1.381 . S
C578 C579 1.394 . S
C578 H586 0.930 . S
C579 C578 1.394 . S
C579 C580 1.383 . S
C579 H587 0.929 . S
C580 C579 1.383 . S
C580 C581 1.377 . S
C581 H565 0.930 1_655 S
C581 C580 1.377 . S
C581 C582 1.379 1_655 S
C582 H566 0.931 . S
C582 C576 1.383 1_455 S
C582 C581 1.379 1_455 S
H583 C577 0.959 . S
H584 C577 0.961 . S
H585 C577 0.960 . S
H586 C578 0.930 . S
H587 C579 0.929 . S
H588 C596 0.929 . S
H589 C598 0.930 . S
H590 C600 0.930 . S
H591 C603 0.929 . S
H592 C606 0.930 . S
H593 C608 0.960 . S
H594 C608 0.960 . S
H595 C608 0.960 . S
C596 H588 0.929 . S
C596 C597 1.377 . S
C596 C598 1.384 . S
C597 C596 1.377 . S
C597 C603 1.390 . S
C598 H589 0.930 . S
C598 C596 1.384 . S
C598 C599 1.372 . S
C599 C598 1.372 . S
C599 C600 1.400 . S
C599 C604 1.490 . S
C600 H590 0.930 . S
C600 C599 1.400 . S
C600 C603 1.386 . S
H601 C617 0.930 . S
H602 C618 0.931 . S
C603 H591 0.929 . S
C603 C597 1.390 . S
C603 C600 1.386 . S
C604 C599 1.490 . S
C604 C606 1.395 . S
C604 C607 1.403 . S
H605 C611 0.930 . S
C606 H592 0.930 . S
C606 C604 1.395 . S
C606 C609 1.403 . S
C607 C604 1.403 . S
C607 C608 1.524 . S
C607 C611 1.400 . S
C608 H593 0.960 . S
C608 H594 0.960 . S
C608 H595 0.960 . S
C608 C607 1.524 . S
C609 C606 1.403 . S
C609 C610 1.392 . S
C609 C613 1.495 . S
C610 C609 1.392 . S
C610 C611 1.385 . S
C610 C612 1.478 . S
C611 H605 0.930 . S
C611 C607 1.400 . S
C611 C610 1.385 . S
C612 C610 1.478 . S
C612 C614 1.381 . S
C612 C618 1.383 . S
C613 C609 1.495 . S
C613 H619 0.959 . S
C613 H620 0.961 . S
C613 H621 0.960 . S
C614 C612 1.381 . S
C614 C615 1.394 . S
C614 H622 0.930 . S
C615 C614 1.394 . S
C615 C616 1.383 . S
C615 H623 0.929 . S
C616 C615 1.383 . S
C616 C617 1.377 . S
C617 H601 0.930 . S
C617 C616 1.377 . S
C617 C618 1.379 . S
C618 H602 0.931 . S
C618 C612 1.383 . S
C618 C617 1.379 . S
H619 C613 0.959 . S
H620 C613 0.961 . S
H621 C613 0.960 . S
H622 C614 0.930 . S
H623 C615 0.929 . S
H624 C632 0.929 . S
H625 C634 0.930 . S
H626 C636 0.930 . S
H627 C639 0.929 . S
H628 C642 0.930 . S
H629 C644 0.960 . S
H630 C644 0.960 . S
H631 C644 0.960 . S
C632 H624 0.929 . S
C632 C633 1.377 . S
C632 C634 1.384 . S
C633 C632 1.377 . S
C633 C639 1.390 . S
C634 H625 0.930 . S
C634 C632 1.384 . S
C634 C635 1.372 . S
C635 C634 1.372 . S
C635 C636 1.400 . S
C635 C640 1.490 1_455 S
C636 H626 0.930 . S
C636 C635 1.400 . S
C636 C639 1.386 . S
H637 C653 0.930 . S
H638 C654 0.931 . S
C639 H627 0.929 . S
C639 C633 1.390 . S
C639 C636 1.386 . S
C640 C635 1.490 1_655 S
C640 C642 1.395 . S
C640 C643 1.403 1_655 S
H641 C647 0.930 . S
C642 H628 0.930 . S
C642 C640 1.395 . S
C642 C645 1.403 . S
C643 C640 1.403 1_455 S
C643 C644 1.524 . S
C643 C647 1.400 . S
C644 H629 0.960 . S
C644 H630 0.960 . S
C644 H631 0.960 . S
C644 C643 1.524 . S
C645 C642 1.403 . S
C645 C646 1.392 . S
C645 C649 1.495 . S
C646 C645 1.392 . S
C646 C647 1.385 1_655 S
C646 C648 1.478 . S
C647 H641 0.930 . S
C647 C643 1.400 . S
C647 C646 1.385 1_455 S
C648 C646 1.478 . S
C648 C650 1.381 . S
C648 C654 1.383 . S
C649 C645 1.495 . S
C649 H655 0.959 . S
C649 H656 0.961 . S
C649 H657 0.960 . S
C650 C648 1.381 . S
C650 C651 1.394 . S
C650 H658 0.930 . S
C651 C650 1.394 . S
C651 C652 1.383 . S
C651 H659 0.929 . S
C652 C651 1.383 . S
C652 C653 1.377 . S
C653 H637 0.930 . S
C653 C652 1.377 . S
C653 C654 1.379 . S
C654 H638 0.931 . S
C654 C648 1.383 . S
C654 C653 1.379 . S
H655 C649 0.959 . S
H656 C649 0.961 . S
H657 C649 0.960 . S
H658 C650 0.930 . S
H659 C651 0.929 . S
H660 C668 0.929 . S
H661 C670 0.930 . S
H662 C672 0.930 . S
H663 C675 0.929 . S
H664 C678 0.930 . S
H665 C680 0.960 . S
H666 C680 0.960 . S
H667 C680 0.960 . S
C668 H660 0.929 . S
C668 C669 1.377 . S
C668 C670 1.384 . S
C669 C668 1.377 . S
C669 C675 1.390 . S
C670 H661 0.930 . S
C670 C668 1.384 . S
C670 C671 1.372 . S
C671 C670 1.372 . S
C671 C672 1.400 . S
C671 C676 1.490 . S
C672 H662 0.930 . S
C672 C671 1.400 . S
C672 C675 1.386 . S
H673 C689 0.930 . S
H674 C690 0.931 . S
C675 H663 0.929 . S
C675 C669 1.390 . S
C675 C672 1.386 . S
C676 C671 1.490 . S
C676 C678 1.395 . S
C676 C679 1.403 . S
H677 C683 0.930 . S
C678 H664 0.930 . S
C678 C676 1.395 . S
C678 C681 1.403 . S
C679 C676 1.403 . S
C679 C680 1.524 . S
C679 C683 1.400 . S
C680 H665 0.960 . S
C680 H666 0.960 . S
C680 H667 0.960 . S
C680 C679 1.524 . S
C681 C678 1.403 . S
C681 C682 1.392 . S
C681 C685 1.495 . S
C682 C681 1.392 . S
C682 C683 1.385 . S
C682 C684 1.478 . S
C683 H677 0.930 . S
C683 C679 1.400 . S
C683 C682 1.385 . S
C684 C682 1.478 . S
C684 C686 1.381 . S
C684 C690 1.383 . S
C685 C681 1.495 . S
C685 H691 0.959 . S
C685 H692 0.961 . S
C685 H693 0.960 . S
C686 C684 1.381 . S
C686 C687 1.394 . S
C686 H694 0.930 . S
C687 C686 1.394 . S
C687 C688 1.383 . S
C687 H695 0.929 . S
C688 C687 1.383 . S
C688 C689 1.377 . S
C689 H673 0.930 . S
C689 C688 1.377 . S
C689 C690 1.379 . S
C690 H674 0.931 . S
C690 C684 1.383 . S
C690 C689 1.379 . S
H691 C685 0.959 . S
H692 C685 0.961 . S
H693 C685 0.960 . S
H694 C686 0.930 . S
H695 C687 0.929 . S
H696 C704 0.950 . S
H697 C706 0.930 . S
H698 C708 0.930 . S
H699 C711 0.929 . S
H700 C714 0.930 . S
H701 C716 0.960 . S
H702 C716 0.960 1_545 S
H703 C716 0.960 . S
C704 H696 0.950 . S
C704 C705 1.350 1_545 S
C704 C706 1.392 . S
C705 C704 1.350 1_565 S
C705 C711 1.390 . S
C706 H697 0.930 . S
C706 C704 1.392 . S
C706 C707 1.372 1_545 S
C707 C706 1.372 1_565 S
C707 C708 1.400 . S
C707 C712 1.490 1_565 S
C708 H698 0.930 . S
C708 C707 1.400 . S
C708 C711 1.386 . S
H709 C725 0.930 . S
H710 C726 0.931 1_565 S
C711 H699 0.929 . S
C711 C705 1.390 . S
C711 C708 1.386 . S
C712 C707 1.490 1_545 S
C712 C714 1.395 . S
C712 C715 1.403 . S
H713 C719 0.930 . S
C714 H700 0.930 . S
C714 C712 1.395 . S
C714 C717 1.403 . S
C715 C712 1.403 . S
C715 C716 1.524 1_545 S
C715 C719 1.400 . S
C716 H701 0.960 . S
C716 H702 0.960 1_565 S
C716 H703 0.960 . S
C716 C715 1.524 1_565 S
C717 C714 1.403 . S
C717 C718 1.392 . S
C717 C721 1.495 . S
C718 C717 1.392 . S
C718 C719 1.385 . S
C718 C720 1.478 . S
C719 H713 0.930 . S
C719 C715 1.400 . S
C719 C718 1.385 . S
C720 C718 1.478 . S
C720 C722 1.381 . S
C720 C726 1.383 . S
C721 C717 1.495 . S
C721 H727 0.959 . S
C721 H728 0.961 . S
C721 H729 0.960 . S
C722 C720 1.381 . S
C722 C723 1.394 . S
C722 H730 0.930 . S
C723 C722 1.394 . S
C723 C724 1.383 . S
C723 H731 0.929 . S
C724 C723 1.383 . S
C724 C725 1.377 . S
C725 H709 0.930 . S
C725 C724 1.377 . S
C725 C726 1.379 . S
C726 H710 0.931 1_545 S
C726 C720 1.383 . S
C726 C725 1.379 . S
H727 C721 0.959 . S
H728 C721 0.961 . S
H729 C721 0.960 . S
H730 C722 0.930 . S
H731 C723 0.929 . S
H732 C740 0.929 . S
H733 C742 0.930 1_545 S
H734 C744 0.930 . S
H735 C747 0.929 . S
H736 C750 0.930 . S
H737 C752 0.960 . S
H738 C752 0.960 . S
H739 C752 0.960 . S
C740 H732 0.929 . S
C740 C741 1.377 . S
C740 C742 1.384 . S
C741 C740 1.377 . S
C741 C747 1.390 . S
C742 H733 0.930 1_565 S
C742 C740 1.384 . S
C742 C743 1.372 . S
C743 C742 1.372 . S
C743 C744 1.400 . S
C743 C748 1.490 1_565 S
C744 H734 0.930 . S
C744 C743 1.400 . S
C744 C747 1.386 . S
H745 C761 0.930 . S
H746 C762 0.931 . S
C747 H735 0.929 . S
C747 C741 1.390 . S
C747 C744 1.386 . S
C748 C743 1.490 1_545 S
C748 C750 1.395 . S
C748 C751 1.403 1_545 S
H749 C755 0.930 . S
C750 H736 0.930 . S
C750 C748 1.395 . S
C750 C753 1.403 . S
C751 C748 1.403 1_565 S
C751 C752 1.524 . S
C751 C755 1.400 . S
C752 H737 0.960 . S
C752 H738 0.960 . S
C752 H739 0.960 . S
C752 C751 1.524 . S
C753 C750 1.403 . S
C753 C754 1.392 . S
C753 C757 1.495 . S
C754 C753 1.392 . S
C754 C755 1.385 1_545 S
C754 C756 1.478 . S
C755 H749 0.930 . S
C755 C751 1.400 . S
C755 C754 1.385 1_565 S
C756 C754 1.478 . S
C756 C758 1.381 . S
C756 C762 1.383 . S
C757 C753 1.495 . S
C757 H763 0.959 . S
C757 H764 0.961 . S
C757 H765 0.960 . S
C758 C756 1.381 . S
C758 C759 1.394 . S
C758 H766 0.930 . S
C759 C758 1.394 . S
C759 C760 1.383 . S
C759 H767 0.929 . S
C760 C759 1.383 . S
C760 C761 1.377 . S
C761 H745 0.930 . S
C761 C760 1.377 . S
C761 C762 1.379 . S
C762 H746 0.931 . S
C762 C756 1.383 . S
C762 C761 1.379 . S
H763 C757 0.959 . S
H764 C757 0.961 . S
H765 C757 0.960 . S
H766 C758 0.930 . S
H767 C759 0.929 . S
H768 C776 0.929 . S
H769 C778 0.930 . S
H770 C780 0.930 1_455 S
H771 C783 0.929 . S
H772 C786 0.930 . S
H773 C788 0.960 1_455 S
H774 C788 0.960 . S
H775 C788 0.960 1_455 S
C776 H768 0.929 . S
C776 C777 1.377 . S
C776 C778 1.384 . S
C777 C776 1.377 . S
C777 C783 1.390 . S
C778 H769 0.930 . S
C778 C776 1.384 . S
C778 C779 1.372 . S
C779 C778 1.372 . S
C779 C780 1.400 . S
C779 C784 1.490 . S
C780 H770 0.930 1_655 S
C780 C779 1.400 . S
C780 C783 1.386 . S
H781 C797 0.930 . S
H782 C798 0.931 . S
C783 H771 0.929 . S
C783 C777 1.390 . S
C783 C780 1.386 . S
C784 C779 1.490 . S
C784 C786 1.395 . S
C784 C787 1.403 . S
H785 C791 0.950 . S
C786 H772 0.930 . S
C786 C784 1.395 . S
C786 C789 1.403 . S
C787 C784 1.403 . S
C787 C788 1.524 . S
C787 C791 1.397 1_655 S
C788 H773 0.960 1_655 S
C788 H774 0.960 . S
C788 H775 0.960 1_655 S
C788 C787 1.524 . S
C789 C786 1.403 . S
C789 C790 1.392 . S
C789 C793 1.495 . S
C790 C789 1.392 . S
C790 C791 1.369 1_655 S
C790 C792 1.478 1_655 S
C791 H785 0.950 . S
C791 C787 1.397 1_455 S
C791 C790 1.369 1_455 S
C792 C790 1.478 1_455 S
C792 C794 1.381 1_455 S
C792 C798 1.383 . S
C793 C789 1.495 . S
C793 H799 0.959 . S
C793 H800 0.961 . S
C793 H801 0.960 . S
C794 C792 1.381 1_655 S
C794 C795 1.394 . S
C794 H802 0.930 . S
C795 C794 1.394 . S
C795 C796 1.383 1_655 S
C795 H803 0.929 . S
C796 C795 1.383 1_455 S
C796 C797 1.377 . S
C797 H781 0.930 . S
C797 C796 1.377 . S
C797 C798 1.379 . S
C798 H782 0.931 . S
C798 C792 1.383 . S
C798 C797 1.379 . S
H799 C793 0.959 . S
H800 C793 0.961 . S
H801 C793 0.960 . S
H802 C794 0.930 . S
H803 C795 0.929 . S
H804 C812 0.929 . S
H805 C814 0.930 . S
H806 C816 0.930 . S
H807 C819 0.929 . S
H808 C822 0.930 . S
H809 C824 0.960 . S
H810 C824 0.960 . S
H811 C824 0.960 . S
C812 H804 0.929 . S
C812 C813 1.377 . S
C812 C814 1.384 . S
C813 C812 1.377 . S
C813 C819 1.390 . S
C814 H805 0.930 . S
C814 C812 1.384 . S
C814 C815 1.372 . S
C815 C814 1.372 . S
C815 C816 1.400 . S
C815 C820 1.490 . S
C816 H806 0.930 . S
C816 C815 1.400 . S
C816 C819 1.386 . S
H817 C833 0.930 . S
H818 C834 0.931 . S
C819 H807 0.929 . S
C819 C813 1.390 . S
C819 C816 1.386 . S
C820 C815 1.490 . S
C820 C822 1.395 . S
C820 C823 1.403 . S
H821 C827 0.930 . S
C822 H808 0.930 . S
C822 C820 1.395 . S
C822 C825 1.403 . S
C823 C820 1.403 . S
C823 C824 1.524 . S
C823 C827 1.400 . S
C824 H809 0.960 . S
C824 H810 0.960 . S
C824 H811 0.960 . S
C824 C823 1.524 . S
C825 C822 1.403 . S
C825 C826 1.392 . S
C825 C829 1.495 . S
C826 C825 1.392 . S
C826 C827 1.385 . S
C826 C828 1.478 . S
C827 H821 0.930 . S
C827 C823 1.400 . S
C827 C826 1.385 . S
C828 C826 1.478 . S
C828 C830 1.381 . S
C828 C834 1.383 . S
C829 C825 1.495 . S
C829 H835 0.959 . S
C829 H836 0.961 . S
C829 H837 0.960 . S
C830 C828 1.381 . S
C830 C831 1.394 . S
C830 H838 0.930 . S
C831 C830 1.394 . S
C831 C832 1.383 . S
C831 H839 0.929 . S
C832 C831 1.383 . S
C832 C833 1.377 . S
C833 H817 0.930 . S
C833 C832 1.377 . S
C833 C834 1.379 . S
C834 H818 0.931 . S
C834 C828 1.383 . S
C834 C833 1.379 . S
H835 C829 0.959 . S
H836 C829 0.961 . S
H837 C829 0.960 . S
H838 C830 0.930 . S
H839 C831 0.929 . S
H840 C848 0.929 . S
H841 C850 0.930 . S
H842 C852 0.930 1_455 S
H843 C855 0.930 . S
H844 C858 0.930 . S
H845 C860 0.960 . S
H846 C860 0.960 . S
H847 C860 0.958 1_455 S
C848 H840 0.929 . S
C848 C849 1.377 . S
C848 C850 1.384 . S
C849 C848 1.377 . S
C849 C855 1.390 . S
C850 H841 0.930 . S
C850 C848 1.384 . S
C850 C851 1.372 . S
C851 C850 1.372 . S
C851 C852 1.400 . S
C851 C856 1.490 . S
C852 H842 0.930 1_655 S
C852 C851 1.400 . S
C852 C855 1.386 . S
H853 C869 0.930 . S
H854 C870 0.931 . S
C855 H843 0.930 . S
C855 C849 1.390 . S
C855 C852 1.386 . S
C856 C851 1.490 . S
C856 C858 1.395 . S
C856 C859 1.403 1_556 S
H857 C863 0.930 . S
C858 H844 0.930 . S
C858 C856 1.395 . S
C858 C861 1.403 1_655 S
C859 C856 1.403 1_554 S
C859 C860 1.524 . S
C859 C863 1.400 1_655 S
C860 H845 0.960 . S
C860 H846 0.960 . S
C860 H847 0.958 1_655 S
C860 C859 1.524 . S
C861 C858 1.403 1_455 S
C861 C862 1.392 1_556 S
C861 C865 1.495 . S
C862 C861 1.392 1_554 S
C862 C863 1.385 . S
C862 C864 1.478 . S
C863 H857 0.930 . S
C863 C859 1.400 1_455 S
C863 C862 1.385 . S
C864 C862 1.478 . S
C864 C866 1.381 . S
C864 C870 1.383 . S
C865 C861 1.495 . S
C865 H871 0.959 . S
C865 H872 0.961 . S
C865 H873 0.960 1_455 S
C866 C864 1.381 . S
C866 C867 1.394 . S
C866 H874 0.930 1_455 S
C867 C866 1.394 . S
C867 C868 1.383 . S
C867 H875 0.929 1_455 S
C868 C867 1.383 . S
C868 C869 1.377 . S
C869 H853 0.930 . S
C869 C868 1.377 . S
C869 C870 1.379 . S
C870 H854 0.931 . S
C870 C864 1.383 . S
C870 C869 1.379 . S
H871 C865 0.959 . S
H872 C865 0.961 . S
H873 C865 0.960 1_655 S
H874 C866 0.930 1_655 S
H875 C867 0.929 1_655 S
H876 C884 0.929 . S
H877 C886 0.930 . S
H878 C888 0.913 1_556 S
H879 C891 0.929 . S
H880 C894 0.930 . S
H881 C896 0.960 . S
H882 C896 0.960 . S
H883 C896 0.960 . S
C884 H876 0.929 . S
C884 C885 1.377 . S
C884 C886 1.384 . S
C885 C884 1.377 . S
C885 C891 1.390 . S
C886 H877 0.930 . S
C886 C884 1.384 . S
C886 C887 1.372 . S
C887 C886 1.372 . S
C887 C888 1.400 . S
C887 C892 1.490 . S
C888 H878 0.913 1_554 S
C888 C887 1.400 . S
C888 C891 1.386 . S
H889 C905 0.930 . S
H890 C906 0.931 . S
C891 H879 0.929 . S
C891 C885 1.390 . S
C891 C888 1.386 . S
C892 C887 1.490 . S
C892 C894 1.395 1_554 S
C892 C895 1.403 . S
H893 C899 0.930 . S
C894 H880 0.930 . S
C894 C892 1.395 1_556 S
C894 C897 1.403 . S
C895 C892 1.403 . S
C895 C896 1.524 . S
C895 C899 1.400 . S
C896 H881 0.960 . S
C896 H882 0.960 . S
C896 H883 0.960 . S
C896 C895 1.524 . S
C897 C894 1.403 . S
C897 C898 1.392 . S
C897 C901 1.495 . S
C898 C897 1.392 . S
C898 C899 1.385 1_556 S
C898 C900 1.478 . S
C899 H893 0.930 . S
C899 C895 1.400 . S
C899 C898 1.385 1_554 S
C900 C898 1.478 . S
C900 C902 1.381 . S
C900 C906 1.383 . S
C901 C897 1.495 . S
C901 H907 0.959 . S
C901 H908 0.961 . S
C901 H909 0.960 . S
C902 C900 1.381 . S
C902 C903 1.394 . S
C902 H910 0.930 1_556 S
C903 C902 1.394 . S
C903 C904 1.383 . S
C903 H911 0.929 . S
C904 C903 1.383 . S
C904 C905 1.377 . S
C905 H889 0.930 . S
C905 C904 1.377 . S
C905 C906 1.379 . S
C906 H890 0.931 . S
C906 C900 1.383 . S
C906 C905 1.379 . S
H907 C901 0.959 . S
H908 C901 0.961 . S
H909 C901 0.960 . S
H910 C902 0.930 1_554 S
H911 C903 0.929 . S
H912 C920 0.910 1_554 S
H913 C922 0.930 1_554 S
H914 C924 0.930 . S
H915 C927 0.929 . S
H916 C930 0.930 . S
H917 C932 0.960 . S
H918 C932 0.960 . S
H919 C932 0.960 . S
C920 H912 0.910 1_556 S
C920 C921 1.377 . S
C920 C922 1.384 . S
C921 C920 1.377 . S
C921 C927 1.390 . S
C922 H913 0.930 1_556 S
C922 C920 1.384 . S
C922 C923 1.372 . S
C923 C922 1.372 . S
C923 C924 1.400 . S
C923 C928 1.490 . S
C924 H914 0.930 . S
C924 C923 1.400 . S
C924 C927 1.386 . S
H925 C941 0.930 . S
H926 C942 0.931 1_556 S
C927 H915 0.929 . S
C927 C921 1.390 . S
C927 C924 1.386 . S
C928 C923 1.490 . S
C928 C930 1.395 1_556 S
C928 C931 1.403 1_545 S
H929 C935 0.930 . S
C930 H916 0.930 . S
C930 C928 1.395 1_554 S
C930 C933 1.403 . S
C931 C928 1.403 1_565 S
C931 C932 1.524 . S
C931 C935 1.400 . S
C932 H917 0.960 . S
C932 H918 0.960 . S
C932 H919 0.960 . S
C932 C931 1.524 . S
C933 C930 1.403 . S
C933 C934 1.392 1_545 S
C933 C937 1.495 . S
C934 C933 1.392 1_565 S
C934 C935 1.385 1_554 S
C934 C936 1.478 . S
C935 H929 0.930 . S
C935 C931 1.400 . S
C935 C934 1.385 1_556 S
C936 C934 1.478 . S
C936 C938 1.381 . S
C936 C942 1.383 . S
C937 C933 1.495 . S
C937 H943 0.959 . S
C937 H944 0.961 . S
C937 H945 0.960 . S
C938 C936 1.381 . S
C938 C939 1.394 . S
C938 H946 0.930 . S
C939 C938 1.394 . S
C939 C940 1.383 . S
C939 H947 0.929 . S
C940 C939 1.383 . S
C940 C941 1.377 . S
C941 H925 0.930 . S
C941 C940 1.377 . S
C941 C942 1.379 . S
C942 H926 0.931 1_554 S
C942 C936 1.383 . S
C942 C941 1.379 . S
H943 C937 0.959 . S
H944 C937 0.961 . S
H945 C937 0.960 . S
H946 C938 0.930 . S
H947 C939 0.929 . S
H948 C956 0.929 . S
H949 C958 0.930 . S
H950 C960 0.930 . S
H951 C963 0.929 . S
H952 C966 0.930 . S
H953 C968 0.960 . S
H954 C968 0.960 . S
H955 C968 0.960 . S
C956 H948 0.929 . S
C956 C957 1.377 . S
C956 C958 1.384 . S
C957 C956 1.377 . S
C957 C963 1.390 . S
C958 H949 0.930 . S
C958 C956 1.384 . S
C958 C959 1.372 . S
C959 C958 1.372 . S
C959 C960 1.400 . S
C959 C964 1.490 . S
C960 H950 0.930 . S
C960 C959 1.400 . S
C960 C963 1.386 . S
H961 C977 0.930 . S
H962 C978 0.931 . S
C963 H951 0.929 . S
C963 C957 1.390 . S
C963 C960 1.386 . S
C964 C959 1.490 . S
C964 C966 1.395 1_565 S
C964 C967 1.403 . S
H965 C971 0.930 . S
C966 H952 0.930 . S
C966 C964 1.395 1_545 S
C966 C969 1.403 . S
C967 C964 1.403 . S
C967 C968 1.524 . S
C967 C971 1.400 . S
C968 H953 0.960 . S
C968 H954 0.960 . S
C968 H955 0.960 . S
C968 C967 1.524 . S
C969 C966 1.403 . S
C969 C970 1.392 . S
C969 C973 1.495 . S
C970 C969 1.392 . S
C970 C971 1.385 1_545 S
C970 C972 1.478 . S
C971 H965 0.930 . S
C971 C967 1.400 . S
C971 C970 1.385 1_565 S
C972 C970 1.478 . S
C972 C974 1.381 . S
C972 C978 1.383 . S
C973 C969 1.495 . S
C973 H979 0.959 . S
C973 H980 0.961 . S
C973 H981 0.960 . S
C974 C972 1.381 . S
C974 C975 1.394 . S
C974 H982 0.930 . S
C975 C974 1.394 . S
C975 C976 1.383 . S
C975 H983 0.929 . S
C976 C975 1.383 . S
C976 C977 1.377 . S
C977 H961 0.930 . S
C977 C976 1.377 . S
C977 C978 1.379 . S
C978 H962 0.931 . S
C978 C972 1.383 . S
C978 C977 1.379 . S
H979 C973 0.959 . S
H980 C973 0.961 . S
H981 C973 0.960 . S
H982 C974 0.930 . S
H983 C975 0.929 . S
H984 C992 0.929 . S
H985 C994 0.930 1_655 S
H986 C996 0.930 . S
H987 C999 0.929 . S
H988 C1002 0.930 . S
H989 C1004 0.960 . S
H990 C1004 0.960 . S
H991 C1004 0.960 1_455 S
C992 H984 0.929 . S
C992 C993 1.377 . S
C992 C994 1.384 . S
C993 C992 1.377 . S
C993 C999 1.390 . S
C994 H985 0.930 1_455 S
C994 C992 1.384 . S
C994 C995 1.372 . S
C995 C994 1.372 . S
C995 C996 1.400 . S
C995 C1000 1.490 . S
C996 H986 0.930 . S
C996 C995 1.400 . S
C996 C999 1.386 . S
H997 C1013 0.930 . S
H998 C1014 0.931 1_455 S
C999 H987 0.929 . S
C999 C993 1.390 . S
C999 C996 1.386 . S
C1000 C995 1.490 . S
C1000 C1002 1.395 . S
C1000 C1003 1.403 1_455 S
H1001 C1007 0.930 . S
C1002 H988 0.930 . S
C1002 C1000 1.395 . S
C1002 C1005 1.403 . S
C1003 C1000 1.403 1_655 S
C1003 C1004 1.524 . S
C1003 C1007 1.400 . S
C1004 H989 0.960 . S
C1004 H990 0.960 . S
C1004 H991 0.960 1_655 S
C1004 C1003 1.524 . S
C1005 C1002 1.403 . S
C1005 C1006 1.392 1_455 S
C1005 C1009 1.495 . S
C1006 C1005 1.392 1_655 S
C1006 C1007 1.385 . S
C1006 C1008 1.478 . S
C1007 H1001 0.930 . S
C1007 C1003 1.400 . S
C1007 C1006 1.385 . S
C1008 C1006 1.478 . S
C1008 C1010 1.381 . S
C1008 C1014 1.383 . S
C1009 C1005 1.495 . S
C1009 H1015 0.959 . S
C1009 H1016 0.961 . S
C1009 H1017 0.960 1_455 S
C1010 C1008 1.381 . S
C1010 C1011 1.394 . S
C1010 H1018 0.930 . S
C1011 C1010 1.394 . S
C1011 C1012 1.383 . S
C1011 H1019 0.929 . S
C1012 C1011 1.383 . S
C1012 C1013 1.377 . S
C1013 H997 0.930 . S
C1013 C1012 1.377 . S
C1013 C1014 1.379 . S
C1014 H998 0.931 1_655 S
C1014 C1008 1.383 . S
C1014 C1013 1.379 . S
H1015 C1009 0.959 . S
H1016 C1009 0.961 . S
H1017 C1009 0.960 1_655 S
H1018 C1010 0.930 . S
H1019 C1011 0.929 . S
H1020 C1028 0.929 . S
H1021 C1030 0.930 . S
H1022 C1032 0.930 . S
H1023 C1035 0.929 . S
H1024 C1038 0.930 . S
H1025 C1040 0.960 . S
H1026 C1040 0.960 . S
H1027 C1040 0.960 . S
C1028 H1020 0.929 . S
C1028 C1029 1.377 . S
C1028 C1030 1.384 . S
C1029 C1028 1.377 . S
C1029 C1035 1.390 . S
C1030 H1021 0.930 . S
C1030 C1028 1.384 . S
C1030 C1031 1.372 . S
C1031 C1030 1.372 . S
C1031 C1032 1.400 . S
C1031 C1036 1.490 . S
C1032 H1022 0.930 . S
C1032 C1031 1.400 . S
C1032 C1035 1.386 . S
H1033 C1049 0.930 . S
H1034 C1050 0.931 . S
C1035 H1023 0.929 . S
C1035 C1029 1.390 . S
C1035 C1032 1.386 . S
C1036 C1031 1.490 . S
C1036 C1038 1.395 . S
C1036 C1039 1.403 . S
H1037 C1043 0.930 . S
C1038 H1024 0.930 . S
C1038 C1036 1.395 . S
C1038 C1041 1.403 . S
C1039 C1036 1.403 . S
C1039 C1040 1.524 . S
C1039 C1043 1.400 . S
C1040 H1025 0.960 . S
C1040 H1026 0.960 . S
C1040 H1027 0.960 . S
C1040 C1039 1.524 . S
C1041 C1038 1.403 . S
C1041 C1042 1.392 . S
C1041 C1045 1.495 . S
C1042 C1041 1.392 . S
C1042 C1043 1.385 . S
C1042 C1044 1.478 . S
C1043 H1037 0.930 . S
C1043 C1039 1.400 . S
C1043 C1042 1.385 . S
C1044 C1042 1.478 . S
C1044 C1046 1.381 . S
C1044 C1050 1.383 . S
C1045 C1041 1.495 . S
C1045 H1051 0.959 . S
C1045 H1052 0.961 . S
C1045 H1053 0.960 . S
C1046 C1044 1.381 . S
C1046 C1047 1.394 . S
C1046 H1054 0.930 . S
C1047 C1046 1.394 . S
C1047 C1048 1.383 . S
C1047 H1055 0.929 . S
C1048 C1047 1.383 . S
C1048 C1049 1.377 . S
C1049 H1033 0.930 . S
C1049 C1048 1.377 . S
C1049 C1050 1.379 . S
C1050 H1034 0.931 . S
C1050 C1044 1.383 . S
C1050 C1049 1.379 . S
H1051 C1045 0.959 . S
H1052 C1045 0.961 . S
H1053 C1045 0.960 . S
H1054 C1046 0.930 . S
H1055 C1047 0.929 . S
H1056 C1064 0.929 . S
H1057 C1066 0.930 . S
H1058 C1068 0.930 . S
H1059 C1071 0.929 . S
H1060 C1074 0.930 . S
H1061 C1076 0.960 . S
H1062 C1076 0.960 . S
H1063 C1076 0.960 . S
C1064 H1056 0.929 . S
C1064 C1065 1.377 . S
C1064 C1066 1.384 . S
C1065 C1064 1.377 . S
C1065 C1071 1.390 . S
C1066 H1057 0.930 . S
C1066 C1064 1.384 . S
C1066 C1067 1.372 . S
C1067 C1066 1.372 . S
C1067 C1068 1.400 . S
C1067 C1072 1.490 . S
C1068 H1058 0.930 . S
C1068 C1067 1.400 . S
C1068 C1071 1.386 . S
H1069 C1085 0.930 . S
H1070 C1086 0.931 . S
C1071 H1059 0.929 . S
C1071 C1065 1.390 . S
C1071 C1068 1.386 . S
C1072 C1067 1.490 . S
C1072 C1074 1.395 . S
C1072 C1075 1.403 . S
H1073 C1079 0.930 . S
C1074 H1060 0.930 . S
C1074 C1072 1.395 . S
C1074 C1077 1.403 . S
C1075 C1072 1.403 . S
C1075 C1076 1.524 . S
C1075 C1079 1.400 . S
C1076 H1061 0.960 . S
C1076 H1062 0.960 . S
C1076 H1063 0.960 . S
C1076 C1075 1.524 . S
C1077 C1074 1.403 . S
C1077 C1078 1.392 . S
C1077 C1081 1.495 . S
C1078 C1077 1.392 . S
C1078 C1079 1.385 . S
C1078 C1080 1.478 . S
C1079 H1073 0.930 . S
C1079 C1075 1.400 . S
C1079 C1078 1.385 . S
C1080 C1078 1.478 . S
C1080 C1082 1.381 . S
C1080 C1086 1.383 . S
C1081 C1077 1.495 . S
C1081 H1087 0.959 . S
C1081 H1088 0.961 . S
C1081 H1089 0.960 . S
C1082 C1080 1.381 . S
C1082 C1083 1.394 . S
C1082 H1090 0.930 . S
C1083 C1082 1.394 . S
C1083 C1084 1.383 . S
C1083 H1091 0.929 . S
C1084 C1083 1.383 . S
C1084 C1085 1.377 . S
C1085 H1069 0.930 . S
C1085 C1084 1.377 . S
C1085 C1086 1.379 . S
C1086 H1070 0.931 . S
C1086 C1080 1.383 . S
C1086 C1085 1.379 . S
H1087 C1081 0.959 . S
H1088 C1081 0.961 . S
H1089 C1081 0.960 . S
H1090 C1082 0.930 . S
H1091 C1083 0.929 . S
H1092 C1100 0.929 . S
H1093 C1102 0.930 . S
H1094 C1104 0.930 . S
H1095 C1107 0.929 . S
H1096 C1110 0.930 . S
H1097 C1112 0.960 . S
H1098 C1112 0.960 . S
H1099 C1112 0.960 . S
C1100 H1092 0.929 . S
C1100 C1101 1.377 . S
C1100 C1102 1.384 . S
C1101 C1100 1.377 . S
C1101 C1107 1.390 . S
C1102 H1093 0.930 . S
C1102 C1100 1.384 . S
C1102 C1103 1.372 . S
C1103 C1102 1.372 . S
C1103 C1104 1.400 . S
C1103 C1108 1.490 . S
C1104 H1094 0.930 . S
C1104 C1103 1.400 . S
C1104 C1107 1.386 . S
H1105 C1121 0.930 . S
H1106 C1122 0.931 . S
C1107 H1095 0.929 . S
C1107 C1101 1.390 . S
C1107 C1104 1.386 . S
C1108 C1103 1.490 . S
C1108 C1110 1.395 . S
C1108 C1111 1.403 . S
H1109 C1115 0.930 . S
C1110 H1096 0.930 . S
C1110 C1108 1.395 . S
C1110 C1113 1.403 . S
C1111 C1108 1.403 . S
C1111 C1112 1.524 . S
C1111 C1115 1.400 . S
C1112 H1097 0.960 . S
C1112 H1098 0.960 . S
C1112 H1099 0.960 . S
C1112 C1111 1.524 . S
C1113 C1110 1.403 . S
C1113 C1114 1.392 . S
C1113 C1117 1.495 . S
C1114 C1113 1.392 . S
C1114 C1115 1.385 . S
C1114 C1116 1.478 . S
C1115 H1109 0.930 . S
C1115 C1111 1.400 . S
C1115 C1114 1.385 . S
C1116 C1114 1.478 . S
C1116 C1118 1.381 . S
C1116 C1122 1.383 . S
C1117 C1113 1.495 . S
C1117 H1123 0.959 . S
C1117 H1124 0.961 . S
C1117 H1125 0.960 . S
C1118 C1116 1.381 . S
C1118 C1119 1.394 . S
C1118 H1126 0.930 . S
C1119 C1118 1.394 . S
C1119 C1120 1.383 . S
C1119 H1127 0.929 . S
C1120 C1119 1.383 . S
C1120 C1121 1.377 . S
C1121 H1105 0.930 . S
C1121 C1120 1.377 . S
C1121 C1122 1.379 . S
C1122 H1106 0.931 . S
C1122 C1116 1.383 . S
C1122 C1121 1.379 . S
H1123 C1117 0.959 . S
H1124 C1117 0.961 . S
H1125 C1117 0.960 . S
H1126 C1118 0.930 . S
H1127 C1119 0.929 . S
H1128 C1136 0.929 . S
H1129 C1138 0.930 . S
H1130 C1140 0.930 . S
H1131 C1143 0.929 . S
H1132 C1146 0.930 . S
H1133 C1148 0.960 . S
H1134 C1148 0.960 . S
H1135 C1148 0.960 . S
C1136 H1128 0.929 . S
C1136 C1137 1.377 . S
C1136 C1138 1.384 . S
C1137 C1136 1.377 . S
C1137 C1143 1.390 . S
C1138 H1129 0.930 . S
C1138 C1136 1.384 . S
C1138 C1139 1.372 . S
C1139 C1138 1.372 . S
C1139 C1140 1.400 . S
C1139 C1144 1.490 . S
C1140 H1130 0.930 . S
C1140 C1139 1.400 . S
C1140 C1143 1.386 . S
H1141 C1157 0.930 . S
H1142 C1158 0.931 . S
C1143 H1131 0.929 . S
C1143 C1137 1.390 . S
C1143 C1140 1.386 . S
C1144 C1139 1.490 . S
C1144 C1146 1.395 . S
C1144 C1147 1.403 . S
H1145 C1151 0.930 . S
C1146 H1132 0.930 . S
C1146 C1144 1.395 . S
C1146 C1149 1.403 . S
C1147 C1144 1.403 . S
C1147 C1148 1.524 . S
C1147 C1151 1.400 . S
C1148 H1133 0.960 . S
C1148 H1134 0.960 . S
C1148 H1135 0.960 . S
C1148 C1147 1.524 . S
C1149 C1146 1.403 . S
C1149 C1150 1.392 . S
C1149 C1153 1.495 . S
C1150 C1149 1.392 . S
C1150 C1151 1.385 . S
C1150 C1152 1.478 . S
C1151 H1145 0.930 . S
C1151 C1147 1.400 . S
C1151 C1150 1.385 . S
C1152 C1150 1.478 . S
C1152 C1154 1.381 . S
C1152 C1158 1.383 . S
C1153 C1149 1.495 . S
C1153 H1159 0.959 . S
C1153 H1160 0.961 . S
C1153 H1161 0.960 . S
C1154 C1152 1.381 . S
C1154 C1155 1.394 . S
C1154 H1162 0.930 . S
C1155 C1154 1.394 . S
C1155 C1156 1.383 . S
C1155 H1163 0.929 . S
C1156 C1155 1.383 . S
C1156 C1157 1.377 . S
C1157 H1141 0.930 . S
C1157 C1156 1.377 . S
C1157 C1158 1.379 . S
C1158 H1142 0.931 . S
C1158 C1152 1.383 . S
C1158 C1157 1.379 . S
H1159 C1153 0.959 . S
H1160 C1153 0.961 . S
H1161 C1153 0.960 . S
H1162 C1154 0.930 . S
H1163 C1155 0.929 . S
H1164 C1172 0.929 . S
H1165 C1174 0.930 . S
H1166 C1176 0.930 . S
H1167 C1179 0.929 . S
H1168 C1182 0.930 . S
H1169 C1184 0.960 . S
H1170 C1184 0.960 . S
H1171 C1184 0.960 . S
C1172 H1164 0.929 . S
C1172 C1173 1.377 . S
C1172 C1174 1.384 . S
C1173 C1172 1.377 . S
C1173 C1179 1.390 . S
C1174 H1165 0.930 . S
C1174 C1172 1.384 . S
C1174 C1175 1.372 . S
C1175 C1174 1.372 . S
C1175 C1176 1.400 . S
C1175 C1180 1.490 . S
C1176 H1166 0.930 . S
C1176 C1175 1.400 . S
C1176 C1179 1.386 . S
H1177 C1193 0.930 . S
H1178 C1194 0.931 . S
C1179 H1167 0.929 . S
C1179 C1173 1.390 . S
C1179 C1176 1.386 . S
C1180 C1175 1.490 . S
C1180 C1182 1.395 . S
C1180 C1183 1.403 . S
H1181 C1187 0.930 . S
C1182 H1168 0.930 . S
C1182 C1180 1.395 . S
C1182 C1185 1.403 . S
C1183 C1180 1.403 . S
C1183 C1184 1.524 . S
C1183 C1187 1.400 . S
C1184 H1169 0.960 . S
C1184 H1170 0.960 . S
C1184 H1171 0.960 . S
C1184 C1183 1.524 . S
C1185 C1182 1.403 . S
C1185 C1186 1.392 . S
C1185 C1189 1.495 . S
C1186 C1185 1.392 . S
C1186 C1187 1.385 . S
C1186 C1188 1.478 . S
C1187 H1181 0.930 . S
C1187 C1183 1.400 . S
C1187 C1186 1.385 . S
C1188 C1186 1.478 . S
C1188 C1190 1.381 . S
C1188 C1194 1.383 . S
C1189 C1185 1.495 . S
C1189 H1195 0.959 . S
C1189 H1196 0.961 . S
C1189 H1197 0.960 . S
C1190 C1188 1.381 . S
C1190 C1191 1.394 . S
C1190 H1198 0.930 . S
C1191 C1190 1.394 . S
C1191 C1192 1.383 . S
C1191 H1199 0.929 . S
C1192 C1191 1.383 . S
C1192 C1193 1.377 . S
C1193 H1177 0.930 . S
C1193 C1192 1.377 . S
C1193 C1194 1.379 . S
C1194 H1178 0.931 . S
C1194 C1188 1.383 . S
C1194 C1193 1.379 . S
H1195 C1189 0.959 . S
H1196 C1189 0.961 . S
H1197 C1189 0.960 . S
H1198 C1190 0.930 . S
H1199 C1191 0.929 . S
H1200 C1208 0.929 . S
H1201 C1210 0.930 . S
H1202 C1212 0.930 . S
H1203 C1215 0.929 . S
H1204 C1218 0.930 . S
H1205 C1220 0.960 . S
H1206 C1220 0.960 . S
H1207 C1220 0.960 . S
C1208 H1200 0.929 . S
C1208 C1209 1.377 . S
C1208 C1210 1.384 . S
C1209 C1208 1.377 . S
C1209 C1215 1.390 . S
C1210 H1201 0.930 . S
C1210 C1208 1.384 . S
C1210 C1211 1.372 . S
C1211 C1210 1.372 . S
C1211 C1212 1.400 . S
C1211 C1216 1.490 . S
C1212 H1202 0.930 . S
C1212 C1211 1.400 . S
C1212 C1215 1.386 . S
H1213 C1229 0.930 . S
H1214 C1230 0.931 . S
C1215 H1203 0.929 . S
C1215 C1209 1.390 . S
C1215 C1212 1.386 . S
C1216 C1211 1.490 . S
C1216 C1218 1.395 . S
C1216 C1219 1.403 . S
H1217 C1223 0.930 . S
C1218 H1204 0.930 . S
C1218 C1216 1.395 . S
C1218 C1221 1.403 . S
C1219 C1216 1.403 . S
C1219 C1220 1.524 . S
C1219 C1223 1.400 . S
C1220 H1205 0.960 . S
C1220 H1206 0.960 . S
C1220 H1207 0.960 . S
C1220 C1219 1.524 . S
C1221 C1218 1.403 . S
C1221 C1222 1.392 . S
C1221 C1225 1.495 . S
C1222 C1221 1.392 . S
C1222 C1223 1.385 . S
C1222 C1224 1.478 . S
C1223 H1217 0.930 . S
C1223 C1219 1.400 . S
C1223 C1222 1.385 . S
C1224 C1222 1.478 . S
C1224 C1226 1.381 . S
C1224 C1230 1.383 . S
C1225 C1221 1.495 . S
C1225 H1231 0.959 . S
C1225 H1232 0.961 . S
C1225 H1233 0.960 . S
C1226 C1224 1.381 . S
C1226 C1227 1.394 . S
C1226 H1234 0.930 . S
C1227 C1226 1.394 . S
C1227 C1228 1.383 . S
C1227 H1235 0.929 . S
C1228 C1227 1.383 . S
C1228 C1229 1.377 . S
C1229 H1213 0.930 . S
C1229 C1228 1.377 . S
C1229 C1230 1.379 . S
C1230 H1214 0.931 . S
C1230 C1224 1.383 . S
C1230 C1229 1.379 . S
H1231 C1225 0.959 . S
H1232 C1225 0.961 . S
H1233 C1225 0.960 . S
H1234 C1226 0.930 . S
H1235 C1227 0.929 . S
H1236 C1244 0.929 . S
H1237 C1246 0.930 . S
H1238 C1248 0.930 . S
H1239 C1251 0.929 . S
H1240 C1254 0.930 . S
H1241 C1256 0.960 . S
H1242 C1256 0.960 . S
H1243 C1256 0.960 . S
C1244 H1236 0.929 . S
C1244 C1245 1.377 . S
C1244 C1246 1.384 . S
C1245 C1244 1.377 . S
C1245 C1251 1.390 . S
C1246 H1237 0.930 . S
C1246 C1244 1.384 . S
C1246 C1247 1.372 . S
C1247 C1246 1.372 . S
C1247 C1248 1.400 . S
C1247 C1252 1.490 . S
C1248 H1238 0.930 . S
C1248 C1247 1.400 . S
C1248 C1251 1.386 . S
H1249 C1265 0.930 . S
H1250 C1266 0.931 . S
C1251 H1239 0.929 . S
C1251 C1245 1.390 . S
C1251 C1248 1.386 . S
C1252 C1247 1.490 . S
C1252 C1254 1.395 . S
C1252 C1255 1.403 . S
H1253 C1259 0.930 . S
C1254 H1240 0.930 . S
C1254 C1252 1.395 . S
C1254 C1257 1.403 . S
C1255 C1252 1.403 . S
C1255 C1256 1.524 . S
C1255 C1259 1.400 . S
C1256 H1241 0.960 . S
C1256 H1242 0.960 . S
C1256 H1243 0.960 . S
C1256 C1255 1.524 . S
C1257 C1254 1.403 . S
C1257 C1258 1.392 . S
C1257 C1261 1.495 . S
C1258 C1257 1.392 . S
C1258 C1259 1.385 . S
C1258 C1260 1.478 . S
C1259 H1253 0.930 . S
C1259 C1255 1.400 . S
C1259 C1258 1.385 . S
C1260 C1258 1.478 . S
C1260 C1262 1.381 . S
C1260 C1266 1.383 . S
C1261 C1257 1.495 . S
C1261 H1267 0.959 . S
C1261 H1268 0.961 . S
C1261 H1269 0.960 . S
C1262 C1260 1.381 . S
C1262 C1263 1.394 . S
C1262 H1270 0.930 . S
C1263 C1262 1.394 . S
C1263 C1264 1.383 . S
C1263 H1271 0.929 . S
C1264 C1263 1.383 . S
C1264 C1265 1.377 . S
C1265 H1249 0.930 . S
C1265 C1264 1.377 . S
C1265 C1266 1.379 . S
C1266 H1250 0.931 . S
C1266 C1260 1.383 . S
C1266 C1265 1.379 . S
H1267 C1261 0.959 . S
H1268 C1261 0.961 . S
H1269 C1261 0.960 . S
H1270 C1262 0.930 . S
H1271 C1263 0.929 . S
H1272 C1280 0.929 . S
H1273 C1282 0.930 . S
H1274 C1284 0.930 . S
H1275 C1287 0.929 . S
H1276 C1290 0.930 . S
H1277 C1292 0.960 . S
H1278 C1292 0.960 . S
H1279 C1292 0.960 . S
C1280 H1272 0.929 . S
C1280 C1281 1.377 . S
C1280 C1282 1.384 . S
C1281 C1280 1.377 . S
C1281 C1287 1.390 . S
C1282 H1273 0.930 . S
C1282 C1280 1.384 . S
C1282 C1283 1.372 . S
C1283 C1282 1.372 . S
C1283 C1284 1.400 . S
C1283 C1288 1.490 . S
C1284 H1274 0.930 . S
C1284 C1283 1.400 . S
C1284 C1287 1.386 . S
H1285 C1301 0.930 . S
H1286 C1302 0.931 . S
C1287 H1275 0.929 . S
C1287 C1281 1.390 . S
C1287 C1284 1.386 . S
C1288 C1283 1.490 . S
C1288 C1290 1.395 . S
C1288 C1291 1.403 . S
H1289 C1295 0.930 . S
C1290 H1276 0.930 . S
C1290 C1288 1.395 . S
C1290 C1293 1.403 . S
C1291 C1288 1.403 . S
C1291 C1292 1.524 . S
C1291 C1295 1.400 . S
C1292 H1277 0.960 . S
C1292 H1278 0.960 . S
C1292 H1279 0.960 . S
C1292 C1291 1.524 . S
C1293 C1290 1.403 . S
C1293 C1294 1.392 . S
C1293 C1297 1.495 . S
C1294 C1293 1.392 . S
C1294 C1295 1.385 . S
C1294 C1296 1.478 . S
C1295 H1289 0.930 . S
C1295 C1291 1.400 . S
C1295 C1294 1.385 . S
C1296 C1294 1.478 . S
C1296 C1298 1.381 . S
C1296 C1302 1.383 . S
C1297 C1293 1.495 . S
C1297 H1303 0.959 . S
C1297 H1304 0.961 . S
C1297 H1305 0.960 . S
C1298 C1296 1.381 . S
C1298 C1299 1.394 . S
C1298 H1306 0.930 . S
C1299 C1298 1.394 . S
C1299 C1300 1.383 . S
C1299 H1307 0.929 . S
C1300 C1299 1.383 . S
C1300 C1301 1.377 . S
C1301 H1285 0.930 . S
C1301 C1300 1.377 . S
C1301 C1302 1.379 . S
C1302 H1286 0.931 . S
C1302 C1296 1.383 . S
C1302 C1301 1.379 . S
H1303 C1297 0.959 . S
H1304 C1297 0.961 . S
H1305 C1297 0.960 . S
H1306 C1298 0.930 . S
H1307 C1299 0.929 . S
H1308 C1316 0.929 . S
H1309 C1318 0.930 . S
H1310 C1320 0.930 . S
H1311 C1323 0.929 . S
H1312 C1326 0.930 . S
H1313 C1328 0.960 . S
H1314 C1328 0.960 . S
H1315 C1328 0.960 . S
C1316 H1308 0.929 . S
C1316 C1317 1.377 . S
C1316 C1318 1.384 . S
C1317 C1316 1.377 . S
C1317 C1323 1.390 . S
C1318 H1309 0.930 . S
C1318 C1316 1.384 . S
C1318 C1319 1.372 . S
C1319 C1318 1.372 . S
C1319 C1320 1.400 . S
C1319 C1324 1.490 . S
C1320 H1310 0.930 . S
C1320 C1319 1.400 . S
C1320 C1323 1.386 . S
H1321 C1337 0.930 . S
H1322 C1338 0.931 . S
C1323 H1311 0.929 . S
C1323 C1317 1.390 . S
C1323 C1320 1.386 . S
C1324 C1319 1.490 . S
C1324 C1326 1.395 . S
C1324 C1327 1.403 . S
H1325 C1331 0.930 . S
C1326 H1312 0.930 . S
C1326 C1324 1.395 . S
C1326 C1329 1.403 . S
C1327 C1324 1.403 . S
C1327 C1328 1.524 . S
C1327 C1331 1.400 . S
C1328 H1313 0.960 . S
C1328 H1314 0.960 . S
C1328 H1315 0.960 . S
C1328 C1327 1.524 . S
C1329 C1326 1.403 . S
C1329 C1330 1.392 . S
C1329 C1333 1.495 . S
C1330 C1329 1.392 . S
C1330 C1331 1.385 . S
C1330 C1332 1.478 . S
C1331 H1325 0.930 . S
C1331 C1327 1.400 . S
C1331 C1330 1.385 . S
C1332 C1330 1.478 . S
C1332 C1334 1.381 . S
C1332 C1338 1.383 . S
C1333 C1329 1.495 . S
C1333 H1339 0.959 . S
C1333 H1340 0.961 . S
C1333 H1341 0.960 . S
C1334 C1332 1.381 . S
C1334 C1335 1.394 . S
C1334 H1342 0.930 . S
C1335 C1334 1.394 . S
C1335 C1336 1.383 . S
C1335 H1343 0.929 . S
C1336 C1335 1.383 . S
C1336 C1337 1.377 . S
C1337 H1321 0.930 . S
C1337 C1336 1.377 . S
C1337 C1338 1.379 . S
C1338 H1322 0.931 . S
C1338 C1332 1.383 . S
C1338 C1337 1.379 . S
H1339 C1333 0.959 . S
H1340 C1333 0.961 . S
H1341 C1333 0.960 . S
H1342 C1334 0.930 . S
H1343 C1335 0.929 . S
H1344 C1352 0.929 . S
H1345 C1354 0.930 . S
H1346 C1356 0.930 . S
H1347 C1359 0.929 . S
H1348 C1362 0.930 . S
H1349 C1364 0.960 . S
H1350 C1364 0.960 . S
H1351 C1364 0.960 . S
C1352 H1344 0.929 . S
C1352 C1353 1.377 . S
C1352 C1354 1.384 . S
C1353 C1352 1.377 . S
C1353 C1359 1.390 . S
C1354 H1345 0.930 . S
C1354 C1352 1.384 . S
C1354 C1355 1.372 . S
C1355 C1354 1.372 . S
C1355 C1356 1.400 . S
C1355 C1360 1.490 . S
C1356 H1346 0.930 . S
C1356 C1355 1.400 . S
C1356 C1359 1.386 . S
H1357 C1373 0.930 . S
H1358 C1374 0.931 . S
C1359 H1347 0.929 . S
C1359 C1353 1.390 . S
C1359 C1356 1.386 . S
C1360 C1355 1.490 . S
C1360 C1362 1.395 . S
C1360 C1363 1.403 . S
H1361 C1367 0.930 . S
C1362 H1348 0.930 . S
C1362 C1360 1.395 . S
C1362 C1365 1.403 . S
C1363 C1360 1.403 . S
C1363 C1364 1.524 . S
C1363 C1367 1.400 . S
C1364 H1349 0.960 . S
C1364 H1350 0.960 . S
C1364 H1351 0.960 . S
C1364 C1363 1.524 . S
C1365 C1362 1.403 . S
C1365 C1366 1.392 . S
C1365 C1369 1.495 . S
C1366 C1365 1.392 . S
C1366 C1367 1.385 . S
C1366 C1368 1.478 . S
C1367 H1361 0.930 . S
C1367 C1363 1.400 . S
C1367 C1366 1.385 . S
C1368 C1366 1.478 . S
C1368 C1370 1.381 . S
C1368 C1374 1.383 . S
C1369 C1365 1.495 . S
C1369 H1375 0.959 . S
C1369 H1376 0.961 . S
C1369 H1377 0.960 . S
C1370 C1368 1.381 . S
C1370 C1371 1.394 . S
C1370 H1378 0.930 . S
C1371 C1370 1.394 . S
C1371 C1372 1.383 . S
C1371 H1379 0.929 . S
C1372 C1371 1.383 . S
C1372 C1373 1.377 . S
C1373 H1357 0.930 . S
C1373 C1372 1.377 . S
C1373 C1374 1.379 . S
C1374 H1358 0.931 . S
C1374 C1368 1.383 . S
C1374 C1373 1.379 . S
H1375 C1369 0.959 . S
H1376 C1369 0.961 . S
H1377 C1369 0.960 . S
H1378 C1370 0.930 . S
H1379 C1371 0.929 . S
H1380 C1388 0.929 . S
H1381 C1390 0.930 . S
H1382 C1392 0.930 . S
H1383 C1395 0.929 . S
H1384 C1398 0.930 . S
H1385 C1400 0.960 . S
H1386 C1400 0.960 . S
H1387 C1400 0.960 . S
C1388 H1380 0.929 . S
C1388 C1389 1.377 . S
C1388 C1390 1.384 . S
C1389 C1388 1.377 . S
C1389 C1395 1.390 . S
C1390 H1381 0.930 . S
C1390 C1388 1.384 . S
C1390 C1391 1.372 . S
C1391 C1390 1.372 . S
C1391 C1392 1.400 . S
C1391 C1396 1.490 . S
C1392 H1382 0.930 . S
C1392 C1391 1.400 . S
C1392 C1395 1.386 . S
H1393 C1409 0.930 . S
H1394 C1410 0.931 . S
C1395 H1383 0.929 . S
C1395 C1389 1.390 . S
C1395 C1392 1.386 . S
C1396 C1391 1.490 . S
C1396 C1398 1.395 . S
C1396 C1399 1.403 . S
H1397 C1403 0.930 . S
C1398 H1384 0.930 . S
C1398 C1396 1.395 . S
C1398 C1401 1.403 . S
C1399 C1396 1.403 . S
C1399 C1400 1.524 . S
C1399 C1403 1.400 . S
C1400 H1385 0.960 . S
C1400 H1386 0.960 . S
C1400 H1387 0.960 . S
C1400 C1399 1.524 . S
C1401 C1398 1.403 . S
C1401 C1402 1.392 . S
C1401 C1405 1.495 . S
C1402 C1401 1.392 . S
C1402 C1403 1.385 . S
C1402 C1404 1.478 . S
C1403 H1397 0.930 . S
C1403 C1399 1.400 . S
C1403 C1402 1.385 . S
C1404 C1402 1.478 . S
C1404 C1406 1.381 . S
C1404 C1410 1.383 . S
C1405 C1401 1.495 . S
C1405 H1411 0.959 . S
C1405 H1412 0.961 . S
C1405 H1413 0.960 . S
C1406 C1404 1.381 . S
C1406 C1407 1.394 . S
C1406 H1414 0.930 . S
C1407 C1406 1.394 . S
C1407 C1408 1.383 . S
C1407 H1415 0.929 . S
C1408 C1407 1.383 . S
C1408 C1409 1.377 . S
C1409 H1393 0.930 . S
C1409 C1408 1.377 . S
C1409 C1410 1.379 . S
C1410 H1394 0.931 . S
C1410 C1404 1.383 . S
C1410 C1409 1.379 . S
H1411 C1405 0.959 . S
H1412 C1405 0.961 . S
H1413 C1405 0.960 . S
H1414 C1406 0.930 . S
H1415 C1407 0.929 . S
H1416 C1424 0.929 . S
H1417 C1426 0.930 . S
H1418 C1428 0.930 . S
H1419 C1431 0.929 . S
H1420 C1434 0.930 . S
H1421 C1436 0.960 . S
H1422 C1436 0.960 . S
H1423 C1436 0.960 . S
C1424 H1416 0.929 . S
C1424 C1425 1.377 . S
C1424 C1426 1.384 . S
C1425 C1424 1.377 . S
C1425 C1431 1.390 . S
C1426 H1417 0.930 . S
C1426 C1424 1.384 . S
C1426 C1427 1.372 . S
C1427 C1426 1.372 . S
C1427 C1428 1.400 . S
C1427 C1432 1.490 . S
C1428 H1418 0.930 . S
C1428 C1427 1.400 . S
C1428 C1431 1.386 . S
H1429 C1445 0.930 . S
H1430 C1446 0.931 . S
C1431 H1419 0.929 . S
C1431 C1425 1.390 . S
C1431 C1428 1.386 . S
C1432 C1427 1.490 . S
C1432 C1434 1.395 . S
C1432 C1435 1.403 . S
H1433 C1439 0.930 . S
C1434 H1420 0.930 . S
C1434 C1432 1.395 . S
C1434 C1437 1.403 . S
C1435 C1432 1.403 . S
C1435 C1436 1.524 . S
C1435 C1439 1.400 . S
C1436 H1421 0.960 . S
C1436 H1422 0.960 . S
C1436 H1423 0.960 . S
C1436 C1435 1.524 . S
C1437 C1434 1.403 . S
C1437 C1438 1.392 . S
C1437 C1441 1.495 . S
C1438 C1437 1.392 . S
C1438 C1439 1.385 . S
C1438 C1440 1.478 . S
C1439 H1433 0.930 . S
C1439 C1435 1.400 . S
C1439 C1438 1.385 . S
C1440 C1438 1.478 . S
C1440 C1442 1.381 . S
C1440 C1446 1.383 . S
C1441 C1437 1.495 . S
C1441 H1447 0.959 . S
C1441 H1448 0.961 . S
C1441 H1449 0.960 . S
C1442 C1440 1.381 . S
C1442 C1443 1.394 . S
C1442 H1450 0.930 . S
C1443 C1442 1.394 . S
C1443 C1444 1.383 . S
C1443 H1451 0.929 . S
C1444 C1443 1.383 . S
C1444 C1445 1.377 . S
C1445 H1429 0.930 . S
C1445 C1444 1.377 . S
C1445 C1446 1.379 . S
C1446 H1430 0.931 . S
C1446 C1440 1.383 . S
C1446 C1445 1.379 . S
H1447 C1441 0.959 . S
H1448 C1441 0.961 . S
H1449 C1441 0.960 . S
H1450 C1442 0.930 . S
H1451 C1443 0.929 . S
H1452 C1460 0.929 . S
H1453 C1462 0.930 . S
H1454 C1464 0.930 . S
H1455 C1467 0.929 . S
H1456 C1470 0.930 . S
H1457 C1472 0.960 . S
H1458 C1472 0.960 . S
H1459 C1472 0.960 . S
C1460 H1452 0.929 . S
C1460 C1461 1.377 . S
C1460 C1462 1.384 . S
C1461 C1460 1.377 . S
C1461 C1467 1.390 . S
C1462 H1453 0.930 . S
C1462 C1460 1.384 . S
C1462 C1463 1.372 . S
C1463 C1462 1.372 . S
C1463 C1464 1.400 . S
C1463 C1468 1.490 . S
C1464 H1454 0.930 . S
C1464 C1463 1.400 . S
C1464 C1467 1.386 . S
H1465 C1481 0.930 . S
H1466 C1482 0.931 . S
C1467 H1455 0.929 . S
C1467 C1461 1.390 . S
C1467 C1464 1.386 . S
C1468 C1463 1.490 . S
C1468 C1470 1.395 . S
C1468 C1471 1.403 . S
H1469 C1475 0.930 . S
C1470 H1456 0.930 . S
C1470 C1468 1.395 . S
C1470 C1473 1.403 . S
C1471 C1468 1.403 . S
C1471 C1472 1.524 . S
C1471 C1475 1.400 . S
C1472 H1457 0.960 . S
C1472 H1458 0.960 . S
C1472 H1459 0.960 . S
C1472 C1471 1.524 . S
C1473 C1470 1.403 . S
C1473 C1474 1.392 . S
C1473 C1477 1.495 . S
C1474 C1473 1.392 . S
C1474 C1475 1.385 . S
C1474 C1476 1.478 . S
C1475 H1469 0.930 . S
C1475 C1471 1.400 . S
C1475 C1474 1.385 . S
C1476 C1474 1.478 . S
C1476 C1478 1.381 . S
C1476 C1482 1.383 . S
C1477 C1473 1.495 . S
C1477 H1483 0.959 . S
C1477 H1484 0.961 . S
C1477 H1485 0.960 . S
C1478 C1476 1.381 . S
C1478 C1479 1.394 . S
C1478 H1486 0.930 . S
C1479 C1478 1.394 . S
C1479 C1480 1.383 . S
C1479 H1487 0.929 . S
C1480 C1479 1.383 . S
C1480 C1481 1.377 . S
C1481 H1465 0.930 . S
C1481 C1480 1.377 . S
C1481 C1482 1.379 . S
C1482 H1466 0.931 . S
C1482 C1476 1.383 . S
C1482 C1481 1.379 . S
H1483 C1477 0.959 . S
H1484 C1477 0.961 . S
H1485 C1477 0.960 . S
H1486 C1478 0.930 . S
H1487 C1479 0.929 . S
C417 C373 1.176 . S
C436 C9 1.128 1_556 S
C453 C43 1.085 1_556 S
C472 C407 1.174 . S
C489 C339 1.182 . S
C508 C77 1.042 1_556 S
C525 C111 1.065 . S
C544 C305 1.185 . S
C561 C145 1.082 . S
C580 C237 1.154 . S
C597 C179 1.065 . S
C616 C271 1.196 . S
C633 C169 1.174 . S
C652 C213 1.105 1_554 S
C669 C203 1.178 . S
C688 C247 1.021 1_554 S
C705 C135 1.180 . S
C724 C281 1.119 1_554 S
C741 C101 1.174 . S
C760 C315 1.110 . S
C777 C349 1.087 . S
C796 C33 1.172 . S
C813 C67 1.182 . S
C832 C383 1.098 . S
C849 C224 1.037 . S
C868 C20 1.058 . S
C885 C54 1.033 . S
C904 C258 1.037 . S
C921 C292 1.042 . S
C940 C88 1.031 . S
C957 C122 1.038 . S
C976 C326 1.013 . S
C993 C156 1.041 . S
C1012 C360 1.062 . S
C1029 C394 1.035 . S
C1048 C190 1.010 . S
C1065 C5 0.457 . S
C1084 C141 0.473 . S
C1101 C39 0.437 . S
C1120 C175 0.466 . S
C1137 C73 0.428 . S
C1156 C107 0.361 . S
C1173 C345 0.432 . S
C1192 C209 0.506 . S
C1209 C243 0.452 . S
C1228 C379 0.519 . S
C1245 C277 0.433 . S
C1264 C311 0.512 . S
C1281 C172 1.292 . S
C1300 C2 1.317 . S
C1317 C104 1.283 . S
C1336 C36 1.268 . S
C1353 C70 1.289 . S
C1372 C138 1.254 . S
C1389 C206 1.295 . S
C1408 C376 1.316 . S
C1425 C308 1.291 . S
C1444 C240 1.315 . S
C1461 C342 1.282 . S
C1480 C274 1.261 . S
