# Generated by pormake.
# Topology neb, (4)-cn, num edge types: 1
# Building blocks:
#     Node 0, Type 0, BuildingBlock: TATPOV_clean_sbu_0, # of connection points: 4
#     Node 1, Type 0, BuildingBlock: TATPOV_clean_sbu_0, # of connection points: 4
#     Node 2, Type 0, BuildingBlock: TATPOV_clean_sbu_0, # of connection points: 4
#     Node 3, Type 0, BuildingBlock: TATPOV_clean_sbu_0, # of connection points: 4
#     Node 4, Type 0, BuildingBlock: TATPOV_clean_sbu_0, # of connection points: 4
#     Node 5, Type 0, BuildingBlock: TATPOV_clean_sbu_0, # of connection points: 4
#     Node 6, Type 0, BuildingBlock: TATPOV_clean_sbu_0, # of connection points: 4
#     Node 7, Type 0, BuildingBlock: TATPOV_clean_sbu_0, # of connection points: 4
#     Node 8, Type 0, BuildingBlock: TATPOV_clean_sbu_0, # of connection points: 4
#     Node 9, Type 0, BuildingBlock: TATPOV_clean_sbu_0, # of connection points: 4
#     Node 10, Type 0, BuildingBlock: TATPOV_clean_sbu_0, # of connection points: 4
#     Node 11, Type 0, BuildingBlock: TATPOV_clean_sbu_0, # of connection points: 4
#     Node 12, Type 0, BuildingBlock: TATPOV_clean_sbu_0, # of connection points: 4
#     Node 13, Type 0, BuildingBlock: TATPOV_clean_sbu_0, # of connection points: 4
#     Node 14, Type 0, BuildingBlock: TATPOV_clean_sbu_0, # of connection points: 4
#     Node 15, Type 0, BuildingBlock: TATPOV_clean_sbu_0, # of connection points: 4
#     Edge 16, Type (0, 0), BuildingBlock: EZIPEK_clean_linker_0, # of connection points: 2
#     Edge 17, Type (0, 0), BuildingBlock: EZIPEK_clean_linker_0, # of connection points: 2
#     Edge 18, Type (0, 0), BuildingBlock: EZIPEK_clean_linker_0, # of connection points: 2
#     Edge 19, Type (0, 0), BuildingBlock: EZIPEK_clean_linker_0, # of connection points: 2
#     Edge 20, Type (0, 0), BuildingBlock: EZIPEK_clean_linker_0, # of connection points: 2
#     Edge 21, Type (0, 0), BuildingBlock: EZIPEK_clean_linker_0, # of connection points: 2
#     Edge 22, Type (0, 0), BuildingBlock: EZIPEK_clean_linker_0, # of connection points: 2
#     Edge 23, Type (0, 0), BuildingBlock: EZIPEK_clean_linker_0, # of connection points: 2
#     Edge 24, Type (0, 0), BuildingBlock: EZIPEK_clean_linker_0, # of connection points: 2
#     Edge 25, Type (0, 0), BuildingBlock: EZIPEK_clean_linker_0, # of connection points: 2
#     Edge 26, Type (0, 0), BuildingBlock: EZIPEK_clean_linker_0, # of connection points: 2
#     Edge 27, Type (0, 0), BuildingBlock: EZIPEK_clean_linker_0, # of connection points: 2
#     Edge 28, Type (0, 0), BuildingBlock: EZIPEK_clean_linker_0, # of connection points: 2
#     Edge 29, Type (0, 0), BuildingBlock: EZIPEK_clean_linker_0, # of connection points: 2
#     Edge 30, Type (0, 0), BuildingBlock: EZIPEK_clean_linker_0, # of connection points: 2
#     Edge 31, Type (0, 0), BuildingBlock: EZIPEK_clean_linker_0, # of connection points: 2
#     Edge 32, Type (0, 0), BuildingBlock: EZIPEK_clean_linker_0, # of connection points: 2
#     Edge 33, Type (0, 0), BuildingBlock: EZIPEK_clean_linker_0, # of connection points: 2
#     Edge 34, Type (0, 0), BuildingBlock: EZIPEK_clean_linker_0, # of connection points: 2
#     Edge 35, Type (0, 0), BuildingBlock: EZIPEK_clean_linker_0, # of connection points: 2
#     Edge 36, Type (0, 0), BuildingBlock: EZIPEK_clean_linker_0, # of connection points: 2
#     Edge 37, Type (0, 0), BuildingBlock: EZIPEK_clean_linker_0, # of connection points: 2
#     Edge 38, Type (0, 0), BuildingBlock: EZIPEK_clean_linker_0, # of connection points: 2
#     Edge 39, Type (0, 0), BuildingBlock: EZIPEK_clean_linker_0, # of connection points: 2
#     Edge 40, Type (0, 0), BuildingBlock: EZIPEK_clean_linker_0, # of connection points: 2
#     Edge 41, Type (0, 0), BuildingBlock: EZIPEK_clean_linker_0, # of connection points: 2
#     Edge 42, Type (0, 0), BuildingBlock: EZIPEK_clean_linker_0, # of connection points: 2
#     Edge 43, Type (0, 0), BuildingBlock: EZIPEK_clean_linker_0, # of connection points: 2
#     Edge 44, Type (0, 0), BuildingBlock: EZIPEK_clean_linker_0, # of connection points: 2
#     Edge 45, Type (0, 0), BuildingBlock: EZIPEK_clean_linker_0, # of connection points: 2
#     Edge 46, Type (0, 0), BuildingBlock: EZIPEK_clean_linker_0, # of connection points: 2
#     Edge 47, Type (0, 0), BuildingBlock: EZIPEK_clean_linker_0, # of connection points: 2
# Relax obj value: 0.058
# Max RMSD: 0.116
# Mean RMSD: 0.116
data_MOF--net-neb--node1-TATPOV_clean_sbu_0--edge1-EZIPEK_clean_linker_0
_symmetry_space_group_name_H-M    P1
_symmetry_Int_Tables_number       1
_symmetry_cell_setting            triclinic
loop_
_symmetry_equiv_pos_as_xyz
'x, y, z'
_cell_length_a     34.624262
_cell_length_b     16.147053
_cell_length_c     52.890198
_cell_angle_alpha  89.953763
_cell_angle_beta   94.51486
_cell_angle_gamma 89.969276
loop_
_atom_site_label
_atom_site_type_symbol
_atom_site_fract_x
_atom_site_fract_y
_atom_site_fract_z
_atom_type_partial_charge
Zn0 Zn 0.18759 0.0531 0.40809 0.0
Zn1 Zn 0.12514 0.04114 0.43078 0.0
O2 O 0.16626 0.09399 0.45684 0.0
O3 O 0.21811 0.11072 0.43563 0.0
O4 O 0.07931 0.01216 0.45126 0.0
O5 O 0.19579 0.93458 0.40079 0.0
O6 O 0.13565 0.93196 0.41155 0.0
C7 C 0.20067 0.12133 0.45542 0.0
C8 C 0.12411 0.15367 0.38624 0.0
O9 O 0.1065 0.13075 0.40532 0.0
O10 O 0.15727 0.12492 0.38262 0.0
C11 C 0.05803 0.06629 0.46082 0.0
O12 O 0.06523 0.14525 0.45749 0.0
C13 C 0.16402 0.89699 0.40179 0.0
Zn14 Zn 0.05546 0.07496 0.82423 0.0
Zn15 Zn 0.11385 0.03333 0.79722 0.0
O16 O 0.07497 0.09989 0.77269 0.0
O17 O 0.02766 0.13617 0.79616 0.0
O18 O 0.15722 -0.00678 0.77616 0.0
O19 O 0.04162 0.9593 0.83259 0.0
O20 O 0.09674 0.92961 0.81641 0.0
C21 C 0.04311 0.13784 0.77534 0.0
C22 C 0.1294 0.14564 0.84203 0.0
O23 O 0.14183 0.10992 0.82286 0.0
O24 O 0.09447 0.13776 0.84714 0.0
C25 C 0.18038 0.04423 0.7669 0.0
O26 O 0.17517 0.12408 0.76991 0.0
C27 C 0.06841 0.90852 0.82906 0.0
Zn28 Zn 0.79195 0.93158 0.56502 0.0
Zn29 Zn 0.85423 0.95119 0.53795 0.0
O30 O 0.81215 0.88904 0.5151 0.0
O31 O 0.75917 0.88632 0.5358 0.0
O32 O 0.89822 0.97554 0.5152 0.0
O33 O 0.7923 0.05039 0.57511 0.0
O34 O 0.84399 0.06443 0.55372 0.0
C35 C 0.77676 0.86838 0.5165 0.0
C36 C 0.86021 0.83981 0.58412 0.0
O37 O 0.87657 0.87514 0.56624 0.0
O38 O 0.82462 0.85154 0.58691 0.0
C39 C 0.93393 0.96818 0.52279 0.0
O40 O 0.94349 0.94135 0.54588 0.0
C41 C 0.81986 0.09419 0.56828 0.0
Zn42 Zn 0.94818 0.92369 0.17802 0.0
Zn43 Zn 0.88128 0.94195 0.1954 0.0
O44 O 0.91451 0.8745 0.22289 0.0
O45 O 0.97124 0.85945 0.20718 0.0
O46 O 0.8331 0.97751 0.21243 0.0
O47 O 0.96179 0.04108 0.17205 0.0
O48 O 0.89966 0.04871 0.17794 0.0
C49 C 0.94878 0.84469 0.2243 0.0
C50 C 0.88395 0.83883 0.14962 0.0
O51 O 0.86341 0.86262 0.16718 0.0
O52 O 0.91929 0.85927 0.14972 0.0
C53 C 0.81098 0.92598 0.2224 0.0
O54 O 0.81883 0.84648 0.22169 0.0
C55 C 0.93033 0.08094 0.1703 0.0
Zn56 Zn 0.19197 0.57385 0.91217 0.0
Zn57 Zn 0.13303 0.53161 0.93846 0.0
O58 O 0.17074 0.6009 0.96286 0.0
O59 O 0.21975 0.63374 0.94043 0.0
O60 O 0.09126 0.48681 0.96007 0.0
O61 O 0.20673 0.45944 0.90333 0.0
O62 O 0.15137 0.42945 0.91912 0.0
C63 C 0.20305 0.63754 0.96074 0.0
C64 C 0.11733 0.64385 0.8939 0.0
O65 O 0.10429 0.60716 0.91274 0.0
O66 O 0.1526 0.63706 0.88942 0.0
C67 C 0.06474 0.53307 0.9677 0.0
O68 O 0.0644 0.6123 0.96207 0.0
C69 C 0.17991 0.4086 0.90665 0.0
Zn70 Zn 0.07315 0.49198 0.31736 0.0
Zn71 Zn 0.12033 0.54221 0.28359 0.0
O72 O 0.07053 0.59963 0.26971 0.0
O73 O 0.02949 0.55197 0.29638 0.0
O74 O 0.16132 0.53676 0.25799 0.0
O75 O 0.11187 0.41447 0.29627 0.0
O76 O 0.11203 0.41847 0.29559 0.0
C77 C 0.03662 0.59684 0.27759 0.0
C78 C 0.12799 0.62103 0.33522 0.0
O79 O 0.14133 0.6125 0.31355 0.0
O80 O 0.09998 0.57687 0.34153 0.0
C81 C 0.19563 0.51916 0.26685 0.0
O82 O 0.20268 0.50977 0.29146 0.0
C83 C 0.09245 0.41812 0.31525 0.0
Zn84 Zn 0.80837 0.41317 0.08079 0.0
Zn85 Zn 0.86814 0.43176 0.05137 0.0
O86 O 0.82568 0.36577 0.03013 0.0
O87 O 0.77455 0.36363 0.05267 0.0
O88 O 0.91108 0.45635 0.02796 0.0
O89 O 0.80892 0.53249 0.09005 0.0
O90 O 0.85705 0.54692 0.06548 0.0
C91 C 0.79076 0.34427 0.03292 0.0
C92 C 0.87848 0.32699 0.0989 0.0
O93 O 0.89327 0.36073 0.08014 0.0
O94 O 0.84315 0.33783 0.10261 0.0
C95 C 0.94093 0.41134 0.02601 0.0
O96 O 0.94452 0.34136 0.03865 0.0
C97 C 0.83486 0.57667 0.08131 0.0
Zn98 Zn 0.94722 0.43119 0.65657 0.0
Zn99 Zn 0.88691 0.44916 0.68351 0.0
O100 O 0.92941 0.38551 0.70624 0.0
O101 O 0.97962 0.37235 0.68321 0.0
O102 O 0.84395 0.48118 0.70622 0.0
O103 O 0.95521 0.54982 0.64887 0.0
O104 O 0.89778 0.55642 0.66398 0.0
C105 C 0.96357 0.35866 0.70341 0.0
C106 C 0.87625 0.34629 0.63725 0.0
O107 O 0.86186 0.37094 0.65732 0.0
O108 O 0.9107 0.36421 0.63287 0.0
C109 C 0.81747 0.4312 0.71188 0.0
O110 O 0.81804 0.35438 0.70377 0.0
C111 C 0.92428 0.58886 0.65177 0.0
Zn112 Zn 0.70417 0.04477 0.91548 0.0
Zn113 Zn 0.6409 0.02073 0.93872 0.0
O114 O 0.67916 0.07932 0.96526 0.0
O115 O 0.72909 0.11118 0.94361 0.0
O116 O 0.59435 0.98615 0.95794 0.0
O117 O 0.71685 0.92528 0.91115 0.0
O118 O 0.65579 0.9156 0.9196 0.0
C119 C 0.7117 0.11547 0.96366 0.0
C120 C 0.63612 0.12649 0.89225 0.0
O121 O 0.62063 0.10354 0.91214 0.0
O122 O 0.67034 0.10508 0.88838 0.0
C123 C 0.56322 0.02834 0.95792 0.0
O124 O 0.5602 0.09846 0.94533 0.0
C125 C 0.68564 0.88473 0.91053 0.0
Zn126 Zn 0.54503 0.03215 0.32211 0.0
Zn127 Zn 0.6053 0.01448 0.29877 0.0
O128 O 0.56831 0.08373 0.27409 0.0
O129 O 0.52157 0.11625 0.29836 0.0
O130 O 0.65145 0.98312 0.279 0.0
O131 O 0.52616 0.91622 0.3203 0.0
O132 O 0.58791 0.9038 0.31403 0.0
C133 C 0.5376 0.12428 0.27789 0.0
C134 C 0.61254 0.09992 0.34867 0.0
O135 O 0.62635 0.08974 0.3273 0.0
O136 O 0.57958 0.07072 0.35257 0.0
C137 C 0.67766 0.0345 0.27397 0.0
O138 O 0.67512 0.11187 0.28132 0.0
C139 C 0.55645 0.87274 0.32081 0.0
Zn140 Zn 0.30758 0.94102 0.07402 0.0
Zn141 Zn 0.36421 0.95681 0.04137 0.0
O142 O 0.31952 0.89289 0.02169 0.0
O143 O 0.27164 0.8907 0.04703 0.0
O144 O 0.40643 0.97733 0.01721 0.0
O145 O 0.31092 0.06121 0.08251 0.0
O146 O 0.35575 0.07288 0.05533 0.0
C147 C 0.28523 0.8716 0.02632 0.0
C148 C 0.37812 0.85309 0.08912 0.0
O149 O 0.3907 0.8855 0.06941 0.0
O150 O 0.34369 0.86533 0.09469 0.0
C151 C 0.43208 0.92426 0.01245 0.0
O152 O 0.43054 0.84927 0.02194 0.0
C153 C 0.33601 0.10395 0.0723 0.0
Zn154 Zn 0.44135 0.90723 0.65971 0.0
Zn155 Zn 0.38306 0.94409 0.68793 0.0
O156 O 0.42336 0.87754 0.71136 0.0
O157 O 0.47111 0.84837 0.68739 0.0
O158 O 0.34016 0.98165 0.70989 0.0
O159 O 0.45308 0.02388 0.65142 0.0
O160 O 0.39836 0.04893 0.66872 0.0
C161 C 0.45596 0.84331 0.70825 0.0
C162 C 0.36746 0.83319 0.64287 0.0
O163 O 0.35521 0.86805 0.66223 0.0
O164 O 0.40218 0.8422 0.63742 0.0
C165 C 0.31331 0.93229 0.71536 0.0
O166 O 0.31428 0.85483 0.70788 0.0
C167 C 0.42574 0.07249 0.65561 0.0
Zn168 Zn 0.67969 0.54671 0.40445 0.0
Zn169 Zn 0.62117 0.52954 0.43501 0.0
O170 O 0.66209 0.6024 0.45525 0.0
O171 O 0.70959 0.617 0.43 0.0
O172 O 0.57826 0.50596 0.45846 0.0
O173 O 0.68724 0.42379 0.40183 0.0
O174 O 0.63515 0.41351 0.42292 0.0
C175 C 0.69483 0.63279 0.45055 0.0
C176 C 0.60561 0.61132 0.38338 0.0
O177 O 0.59423 0.59049 0.40479 0.0
O178 O 0.64082 0.60115 0.37909 0.0
C179 C 0.55122 0.55651 0.46257 0.0
O180 O 0.55097 0.6307 0.45237 0.0
C181 C 0.66069 0.38014 0.41013 0.0
Zn182 Zn 0.55875 0.55001 0.8236 0.0
Zn183 Zn 0.61784 0.52924 0.7952 0.0
O184 O 0.57458 0.59152 0.77276 0.0
O185 O 0.52678 0.61142 0.79746 0.0
O186 O 0.66032 0.49779 0.77191 0.0
O187 O 0.54991 0.42996 0.82953 0.0
O188 O 0.60719 0.42122 0.81436 0.0
C189 C 0.54122 0.62112 0.7765 0.0
C190 C 0.63027 0.63348 0.84172 0.0
O191 O 0.6433 0.60732 0.82137 0.0
O192 O 0.5964 0.61499 0.84729 0.0
C193 C 0.69122 0.53986 0.77034 0.0
O194 O 0.69621 0.60882 0.78331 0.0
C195 C 0.58027 0.3893 0.82629 0.0
Zn196 Zn 0.2948 0.40713 0.57463 0.0
Zn197 Zn 0.35348 0.44504 0.54644 0.0
O198 O 0.31329 0.37793 0.52324 0.0
O199 O 0.265 0.34913 0.5468 0.0
O200 O 0.39526 0.48442 0.52373 0.0
O201 O 0.28319 0.52382 0.583 0.0
O202 O 0.33784 0.54927 0.56567 0.0
C203 C 0.28059 0.34389 0.5261 0.0
C204 C 0.36925 0.33371 0.59143 0.0
O205 O 0.38158 0.36938 0.57222 0.0
O206 O 0.33438 0.34182 0.5967 0.0
C207 C 0.42704 0.44545 0.5222 0.0
O208 O 0.43331 0.37642 0.535 0.0
C209 C 0.31044 0.57258 0.57879 0.0
Zn210 Zn 0.46444 0.44926 0.16287 0.0
Zn211 Zn 0.39857 0.46574 0.18442 0.0
O212 O 0.43632 0.40162 0.20992 0.0
O213 O 0.49111 0.38799 0.19162 0.0
O214 O 0.35193 0.49426 0.20426 0.0
O215 O 0.47327 0.56901 0.15663 0.0
O216 O 0.41287 0.57434 0.16688 0.0
C217 C 0.47075 0.37321 0.20988 0.0
C218 C 0.39763 0.36264 0.13795 0.0
O219 O 0.37923 0.38716 0.15644 0.0
O220 O 0.43279 0.38224 0.13634 0.0
C221 C 0.32258 0.44683 0.2046 0.0
O222 O 0.32184 0.37714 0.19178 0.0
C223 C 0.44173 0.60792 0.15735 0.0
C224 C 0.27436 0.20479 0.50587 0.0
C225 C 0.26224 0.2887 0.50656 0.0
C226 C 0.2058 0.25824 0.47724 0.0
C227 C 0.21919 0.17537 0.4753 0.0
N228 N 0.26749 0.07048 0.48549 0.0
N229 N 0.22028 0.39919 0.49104 0.0
C230 C 0.25392 0.1489 0.48896 0.0
C231 C 0.22894 0.31649 0.49175 0.0
N232 N 0.30453 0.17798 0.52211 0.0
N233 N 0.17102 0.28126 0.46519 0.0
H234 H 0.23692 0.44317 0.50143 0.0
H235 H 0.19875 0.42552 0.47874 0.0
H236 H 0.15386 0.24183 0.45347 0.0
H237 H 0.15763 0.33782 0.46802 0.0
H238 H 0.31189 0.11593 0.52481 0.0
H239 H 0.3211 0.2176 0.53416 0.0
H240 H 0.29496 0.05044 0.49226 0.0
H241 H 0.25183 0.02595 0.4747 0.0
C242 C 0.99298 0.05341 0.5157 0.0
C243 C 0.96486 -0.00542 0.50638 0.0
C244 C 0.99559 -0.01072 0.46602 0.0
C245 C 0.02608 0.04069 0.47648 0.0
N246 N 0.05769 0.10794 0.51324 0.0
N247 N 0.94326 0.89558 0.47414 0.0
C248 C 0.02584 0.06902 0.50188 0.0
C249 C 0.96713 0.95959 0.48189 0.0
N250 N 0.98753 0.09727 0.53723 0.0
N251 N 0.9929 0.97126 0.44069 0.0
H252 H 0.9225 0.87109 0.48529 0.0
H253 H 0.9464 0.86176 0.45766 0.0
H254 H 0.01277 -0.00737 0.42838 0.0
H255 H 0.96905 0.9417 0.43147 0.0
H256 H 0.00503 0.14684 0.54344 0.0
H257 H 0.96318 0.09018 0.54745 0.0
H258 H 0.06072 0.12186 0.53253 0.0
H259 H 0.08278 0.11882 0.50406 0.0
C260 C 0.24163 0.95662 0.71617 0.0
C261 C 0.27951 0.96267 0.72851 0.0
C262 C 0.25248 0.02634 0.76551 0.0
C263 C 0.21441 0.01426 0.75393 0.0
N264 N 0.17215 0.95901 0.71963 0.0
N265 N 0.32085 -0.00829 0.76626 0.0
C266 C 0.20884 0.97627 0.72973 0.0
C267 C 0.28495 -0.00505 0.7535 0.0
N268 N 0.2371 0.93634 0.69099 0.0
N269 N 0.25765 0.06771 0.78808 0.0
H270 H 0.34522 0.96875 0.7582 0.0
H271 H 0.3261 0.0054 0.78545 0.0
H272 H 0.23476 0.08608 0.79849 0.0
H273 H 0.28452 0.08802 0.79588 0.0
H274 H 0.21073 0.93947 0.68013 0.0
H275 H 0.26034 0.92371 0.68019 0.0
H276 H 0.16625 0.92234 0.70361 0.0
H277 H 0.14733 0.97664 0.72822 0.0
C278 C 0.00359 0.16048 0.73422 0.0
C279 C 0.02587 0.19345 0.75541 0.0
C280 C 0.00382 0.33406 0.74406 0.0
C281 C 0.98316 0.30174 0.72212 0.0
N282 N 0.96686 0.18668 0.69409 0.0
N283 N 0.05337 0.31107 0.7784 0.0
C284 C 0.98415 0.21558 0.71651 0.0
C285 C 0.02774 0.28023 0.75974 0.0
N286 N -0.00017 0.07655 0.73159 0.0
N287 N 0.00021 0.41596 0.75001 0.0
H288 H 0.07176 0.27336 0.78999 0.0
H289 H 0.05899 0.37392 0.78101 0.0
H290 H 0.98363 0.4574 0.73855 0.0
H291 H 0.0112 0.44174 0.76712 0.0
H292 H 0.98032 0.04831 0.71832 0.0
H293 H 0.01472 0.03457 0.7438 0.0
H294 H 0.97033 0.12661 0.68751 0.0
H295 H 0.95073 0.22422 0.68115 0.0
C296 C 0.76999 0.7258 0.49845 0.0
C297 C 0.75782 0.80992 0.49804 0.0
C298 C 0.70147 0.77498 0.46906 0.0
C299 C 0.71508 0.69206 0.46819 0.0
N300 N 0.76446 0.58991 0.47908 0.0
N301 N 0.71571 0.9179 0.4808 0.0
C302 C 0.7501 0.66801 0.48193 0.0
C303 C 0.7245 0.83543 0.48276 0.0
N304 N 0.79918 0.7001 0.51564 0.0
N305 N 0.66651 0.79576 0.45684 0.0
H306 H 0.73231 0.96347 0.4905 0.0
H307 H 0.69412 0.94211 0.4681 0.0
H308 H 0.64958 0.75425 0.44569 0.0
H309 H 0.65292 0.85254 0.45897 0.0
H310 H 0.80617 0.63814 0.51899 0.0
H311 H 0.8147 0.74005 0.52813 0.0
H312 H 0.79221 0.57194 0.48595 0.0
H313 H 0.74947 0.54399 0.46849 0.0
C314 C 0.70638 0.97392 0.23571 0.0
C315 C 0.71174 0.00674 0.26065 0.0
C316 C 0.78239 -0.0057 0.25937 0.0
C317 C 0.77685 0.95532 0.2353 0.0
N318 N 0.73383 0.89918 0.20155 0.0
N319 N 0.75415 0.03514 0.29802 0.0
C320 C 0.73887 0.94222 0.22382 0.0
C321 C 0.7496 0.01389 0.27293 0.0
N322 N 0.67052 0.97676 0.2229 0.0
N323 N 0.81904 0.01262 0.26932 0.0
H324 H 0.73092 0.04818 0.30879 0.0
H325 H 0.78055 0.03262 0.30886 0.0
H326 H 0.84389 -0.0047 0.26071 0.0
H327 H 0.82486 0.04987 0.28522 0.0
H328 H 0.66538 0.96238 0.20375 0.0
H329 H 0.64615 0.00039 0.2308 0.0
H330 H 0.70696 0.87871 0.19378 0.0
H331 H 0.75685 0.87915 0.19152 0.0
C332 C 0.98886 0.80368 0.26354 0.0
C333 C 0.96135 0.78199 0.2435 0.0
C334 C 0.97847 0.6353 0.24855 0.0
C335 C 0.00731 0.65763 0.26775 0.0
N336 N 0.03117 0.7565 0.29935 0.0
N337 N 0.9214 0.67774 0.22204 0.0
C338 C 0.00963 0.73992 0.27718 0.0
C339 C 0.95317 0.69764 0.23782 0.0
N340 N 0.99606 0.88528 0.26883 0.0
N341 N 0.97634 0.55553 0.23994 0.0
H342 H 0.90214 0.72251 0.21438 0.0
H343 H 0.9121 0.61729 0.21848 0.0
H344 H 0.99381 0.50827 0.24802 0.0
H345 H 0.95885 0.53699 0.22405 0.0
H346 H 0.0191 0.90567 0.28109 0.0
H347 H 0.97967 0.9329 0.25997 0.0
H348 H 0.03151 0.81393 0.30831 0.0
H349 H 0.0458 0.71039 0.31012 0.0
C350 C 0.22846 0.83656 -0.00407 0.0
C351 C 0.26331 0.8117 0.00973 0.0
C352 C 0.25207 0.66749 -0.00361 0.0
C353 C 0.2196 0.69399 0.98057 0.0
N354 N 0.1772 0.80248 0.96365 0.0
N355 N 0.30931 0.70481 0.02336 0.0
C356 C 0.20758 0.77809 0.9801 0.0
C357 C 0.27542 0.7274 0.01006 0.0
N358 N 0.21533 0.91596 -0.00193 0.0
N359 N 0.25985 0.58462 -0.00134 0.0
H360 H 0.32607 0.74535 0.03496 0.0
H361 H 0.32213 0.64685 0.02209 0.0
H362 H 0.24283 0.53973 0.98895 0.0
H363 H 0.28093 0.55944 0.01152 0.0
H364 H 0.188 0.93574 0.99093 0.0
H365 H 0.23105 0.96168 0.0083 0.0
H366 H 0.16986 0.86405 0.95995 0.0
H367 H 0.16017 0.76085 0.95259 0.0
C368 C 0.99512 0.49171 0.97064 0.0
C369 C 0.03347 0.49786 0.98223 0.0
C370 C 0.01066 0.45206 0.02279 0.0
C371 C 0.97283 0.44037 0.01081 0.0
N372 N 0.93043 0.43511 0.97245 0.0
N373 N 0.07918 0.47262 0.01819 0.0
C374 C 0.96538 0.4567 0.98449 0.0
C375 C 0.04169 0.474 0.00792 0.0
N376 N 0.98705 0.51963 0.94638 0.0
N377 N 0.01653 0.44715 0.04863 0.0
H378 H 0.1025 0.49227 0.00838 0.0
H379 H 0.08755 0.44639 0.03576 0.0
H380 H 0.99449 0.43382 0.06034 0.0
H381 H 0.04235 0.4639 0.05875 0.0
H382 H 0.95904 0.52671 0.93797 0.0
H383 H 0.00834 0.54051 0.93502 0.0
H384 H 0.92452 0.43698 0.95286 0.0
H385 H 0.90819 0.40822 0.98183 0.0
C386 C 0.26843 0.54115 0.21629 0.0
C387 C 0.2902 0.46705 0.22049 0.0
C388 C 0.24587 0.42279 0.25187 0.0
C389 C 0.22679 0.50067 0.24981 0.0
N390 N 0.22364 0.63934 0.23276 0.0
N391 N 0.30434 0.34531 0.24609 0.0
C392 C 0.239 0.56137 0.23269 0.0
C393 C 0.28019 0.41002 0.23933 0.0
N394 N 0.27483 0.5907 0.19608 0.0
N395 N 0.23034 0.3596 0.26499 0.0
H396 H 0.33039 0.33496 0.23794 0.0
H397 H 0.30058 0.30701 0.26156 0.0
H398 H 0.20447 0.36527 0.27371 0.0
H399 H 0.24083 0.29913 0.26494 0.0
H400 H 0.2571 0.64057 0.19043 0.0
H401 H 0.29583 0.57777 0.18355 0.0
H402 H 0.2344 0.6887 0.22276 0.0
H403 H 0.20221 0.65664 0.24451 0.0
C404 C 0.76481 0.14585 -0.003 0.0
C405 C 0.72879 0.16862 0.98429 0.0
C406 C 0.73533 0.30915 0.00163 0.0
C407 C 0.77056 0.28539 0.01512 0.0
N408 N 0.81485 0.17712 0.03021 0.0
N409 N 0.67612 0.26624 0.97769 0.0
C410 C 0.7843 0.20261 0.01406 0.0
C411 C 0.71278 0.24844 0.98774 0.0
N412 N 0.78058 0.07012 -0.00751 0.0
N413 N 0.72431 0.39055 0.00126 0.0
H414 H 0.65893 0.22396 0.96706 0.0
H415 H 0.66134 0.3203 0.98162 0.0
H416 H 0.74042 0.43665 0.01105 0.0
H417 H 0.70116 0.41385 0.98965 0.0
H418 H 0.80897 0.05393 -0.00155 0.0
H419 H 0.76579 0.02451 0.98164 0.0
H420 H 0.82336 0.1155 0.03233 0.0
H421 H 0.82992 0.21632 0.04316 0.0
C422 C 0.7301 0.55264 0.73222 0.0
C423 C 0.72251 0.51004 0.75481 0.0
C424 C 0.77935 0.42115 0.75044 0.0
C425 C 0.78524 0.45967 0.72689 0.0
N426 N 0.76234 0.55209 0.6931 0.0
N427 N 0.73679 0.39748 0.78408 0.0
C428 C 0.75967 0.52307 0.71721 0.0
C429 C 0.7461 0.44207 0.76342 0.0
N430 N 0.70908 0.62173 0.72513 0.0
N431 N 0.80666 0.36761 0.76105 0.0
H432 H 0.71403 0.41331 0.79493 0.0
H433 H 0.7499 0.34152 0.78951 0.0
H434 H 0.83169 0.35194 0.75238 0.0
H435 H 0.80643 0.34429 0.77939 0.0
H436 H 0.71628 0.66157 0.71074 0.0
H437 H 0.68565 0.64236 0.73466 0.0
H438 H 0.74198 0.59138 0.68385 0.0
H439 H 0.78315 0.53137 0.68135 0.0
C440 C 0.4936 0.98377 0.95833 0.0
C441 C 0.53007 -0.00139 0.97183 0.0
C442 C 0.50298 0.95749 0.01159 0.0
C443 C 0.46578 0.94939 -0.00162 0.0
N444 N 0.42432 0.9636 0.95983 0.0
N445 N 0.56828 0.01223 0.01174 0.0
C446 C 0.46068 0.96548 0.97194 0.0
C447 C 0.53455 0.98822 -0.00143 0.0
N448 N 0.49084 0.98326 0.93239 0.0
N449 N 0.50816 0.93627 0.03667 0.0
H450 H 0.59188 0.036 0.00301 0.0
H451 H 0.57191 0.01536 0.03144 0.0
H452 H 0.48545 0.91951 0.04745 0.0
H453 H 0.53527 0.93043 0.0465 0.0
H454 H 0.4662 0.96435 0.92136 0.0
H455 H 0.51439 -0.00543 0.92175 0.0
H456 H 0.41795 0.98451 0.94135 0.0
H457 H 0.39982 0.94609 0.9688 0.0
C458 C 0.46818 0.23241 0.22952 0.0
C459 C 0.48556 0.31216 0.22908 0.0
C460 C 0.5399 0.26411 0.2579 0.0
C461 C 0.52142 0.18595 0.25941 0.0
N462 N 0.46605 0.09785 0.2497 0.0
N463 N 0.53406 0.40879 0.2455 0.0
C464 C 0.48491 0.1709 0.24617 0.0
C465 C 0.52044 0.32929 0.24399 0.0
N466 N 0.43692 0.21385 0.21304 0.0
N467 N 0.57602 0.27593 0.26978 0.0
H468 H 0.51996 0.45796 0.23585 0.0
H469 H 0.5572 0.42773 0.25789 0.0
H470 H 0.59057 0.23096 0.28104 0.0
H471 H 0.59285 0.32819 0.26722 0.0
H472 H 0.42629 0.15406 0.21006 0.0
H473 H 0.42289 0.25702 0.2009 0.0
H474 H 0.43723 0.08741 0.24335 0.0
H475 H 0.47854 0.04879 0.26028 0.0
C476 C 0.4677 0.70101 0.72527 0.0
C477 C 0.47457 0.78752 0.72757 0.0
C478 C 0.52862 0.76286 0.75927 0.0
C479 C 0.5207 0.67658 0.75783 0.0
N480 N 0.48051 0.56308 0.74226 0.0
N481 N 0.50695 0.90278 0.74866 0.0
C482 C 0.48956 0.64546 0.74161 0.0
C483 C 0.5037 0.81906 0.74519 0.0
N484 N 0.44097 0.67207 0.70695 0.0
N485 N 0.56034 0.79063 0.77387 0.0
H486 H 0.48899 0.94513 0.7385 0.0
H487 H 0.52511 0.93031 0.76285 0.0
H488 H 0.57883 0.75118 0.78472 0.0
H489 H 0.5701 0.85156 0.77395 0.0
H490 H 0.43781 0.60984 0.70213 0.0
H491 H 0.42293 0.71101 0.69554 0.0
H492 H 0.45551 0.5377 0.73319 0.0
H493 H 0.49717 0.52014 0.7531 0.0
C494 C 0.49454 0.49976 0.51927 0.0
C495 C 0.4579 0.47881 0.50695 0.0
C496 C 0.48143 0.5166 0.46581 0.0
C497 C 0.51903 0.53044 0.4779 0.0
N498 N 0.56278 0.52783 0.51568 0.0
N499 N 0.4175 0.45677 0.46833 0.0
C500 C 0.526 0.5196 0.50451 0.0
C501 C 0.45148 0.48515 0.48018 0.0
N502 N 0.49875 0.50434 0.54517 0.0
N503 N 0.47437 0.53302 0.44051 0.0
H504 H 0.39493 0.43322 0.47813 0.0
H505 H 0.41261 0.45046 0.44876 0.0
H506 H 0.49604 0.54986 0.42891 0.0
H507 H 0.44673 0.53462 0.43122 0.0
H508 H 0.52335 0.52759 0.55532 0.0
H509 H 0.47622 0.49192 0.55659 0.0
H510 H 0.57074 0.51079 0.53436 0.0
H511 H 0.58614 0.54694 0.50583 0.0
C512 C 0.15231 0.67573 0.37797 0.0
C513 C 0.14119 0.6906 0.3519 0.0
C514 C 0.14929 0.83976 0.35861 0.0
C515 C 0.15658 0.82519 0.38502 0.0
N516 N 0.16144 0.73206 0.42063 0.0
N517 N 0.1222 0.78824 0.3183 0.0
C518 C 0.15704 0.74387 0.39497 0.0
C519 C 0.13822 0.7729 0.34235 0.0
N520 N 0.15954 0.59664 0.38625 0.0
N521 N 0.15276 0.91786 0.34894 0.0
H522 H 0.11312 0.74239 0.30538 0.0
H523 H 0.11442 0.84719 0.31171 0.0
H524 H 0.15776 0.97042 0.36013 0.0
H525 H 0.15334 0.93002 0.32963 0.0
H526 H 0.17127 0.58202 0.40444 0.0
H527 H 0.15701 0.54564 0.3742 0.0
H528 H 0.15788 0.675 0.42932 0.0
H529 H 0.1661 0.78083 0.43344 0.0
C530 C 0.07701 0.2236 0.35415 0.0
C531 C 0.11089 0.22617 0.37102 0.0
C532 C 0.13222 0.35266 0.35118 0.0
C533 C 0.09796 0.35193 0.33461 0.0
N534 N 0.0341 0.29798 0.32335 0.0
N535 N 0.16352 0.30613 0.39108 0.0
C536 C 0.06896 0.2912 0.33719 0.0
C537 C 0.13621 0.29494 0.37123 0.0
N538 N 0.05368 0.15533 0.35357 0.0
N539 N 0.16151 0.40706 0.3475 0.0
H540 H 0.16659 0.26588 0.40656 0.0
H541 H 0.18015 0.35971 0.39354 0.0
H542 H 0.15961 0.45343 0.33377 0.0
H543 H 0.18892 0.40267 0.35706 0.0
H544 H 0.03086 0.14575 0.33986 0.0
H545 H 0.05861 0.10574 0.36606 0.0
H546 H 0.0105 0.25994 0.32603 0.0
H547 H 0.02796 0.34577 0.31034 0.0
C548 C 0.16217 0.28155 0.84684 0.0
C549 C 0.15406 0.20367 0.85744 0.0
C550 C 0.17454 0.2554 0.89996 0.0
C551 C 0.17559 0.33633 0.88974 0.0
N552 N 0.16475 0.42889 0.85369 0.0
N553 N 0.15422 0.11244 0.89344 0.0
C554 C 0.16869 0.35011 0.86319 0.0
C555 C 0.16123 0.18912 0.88385 0.0
N556 N 0.16236 0.29101 0.82115 0.0
N557 N 0.18636 0.24243 0.92491 0.0
H558 H 0.14705 0.0617 0.88178 0.0
H559 H 0.15438 0.09949 0.91273 0.0
H560 H 0.19615 0.29044 0.93697 0.0
H561 H 0.18928 0.18405 0.93318 0.0
H562 H 0.17227 0.34447 0.81272 0.0
H563 H 0.15641 0.24317 0.80827 0.0
H564 H 0.15474 0.4418 0.83502 0.0
H565 H 0.16758 0.48215 0.86476 0.0
C566 C 0.08482 0.77999 0.8888 0.0
C567 C 0.09305 0.70214 0.87826 0.0
C568 C 0.0741 0.755 0.83558 0.0
C569 C 0.07285 0.83579 0.84586 0.0
N570 N 0.08327 0.92747 0.8821 0.0
N571 N 0.09414 0.61179 0.84217 0.0
C572 C 0.07914 0.84896 0.87247 0.0
C573 C 0.08682 0.68827 0.85176 0.0
N574 N 0.0837 0.78893 0.91444 0.0
N575 N 0.06299 0.74252 0.81051 0.0
H576 H 0.10089 0.56078 0.85384 0.0
H577 H 0.09469 0.59933 0.8229 0.0
H578 H 0.05367 0.7908 0.79838 0.0
H579 H 0.06018 0.68426 0.80217 0.0
H580 H 0.07383 0.84255 0.92279 0.0
H581 H 0.08877 0.74051 0.92727 0.0
H582 H 0.09275 0.93979 0.9009 0.0
H583 H 0.08128 0.98093 0.87106 0.0
C584 C 0.86327 0.20041 0.62688 0.0
C585 C 0.85593 0.28438 0.62096 0.0
C586 C 0.82128 0.24495 0.58057 0.0
C587 C 0.833 0.16204 0.58532 0.0
N588 N 0.87227 0.06353 0.61051 0.0
N589 N 0.8307 0.38987 0.59196 0.0
C590 C 0.85597 0.14048 0.60779 0.0
C591 C 0.83553 0.30785 0.59773 0.0
N592 N 0.87704 0.17781 0.65085 0.0
N593 N 0.7966 0.26306 0.55989 0.0
H594 H 0.83952 0.43684 0.60468 0.0
H595 H 0.81971 0.41135 0.57427 0.0
H596 H 0.78684 0.21809 0.54674 0.0
H597 H 0.7841 0.32111 0.55659 0.0
H598 H 0.87928 0.11639 0.65685 0.0
H599 H 0.88242 0.2204 0.66552 0.0
H600 H 0.89306 0.04837 0.6251 0.0
H601 H 0.86805 0.01701 0.59696 0.0
C602 C 0.9048 0.73627 0.64424 0.0
C603 C 0.91361 0.65786 0.63441 0.0
C604 C 0.89562 0.70623 0.59114 0.0
C605 C 0.88198 0.7811 0.60124 0.0
N606 N 0.86985 0.86515 0.63766 0.0
N607 N 0.91041 0.5622 0.59899 0.0
C608 C 0.88565 0.79575 0.62788 0.0
C609 C 0.90772 0.64138 0.60796 0.0
N610 N 0.91514 0.75392 0.66912 0.0
N611 N 0.89591 0.69543 0.5655 0.0
H612 H 0.91808 0.51133 0.61039 0.0
H613 H 0.90132 0.54506 0.58049 0.0
H614 H 0.88414 0.73748 0.5521 0.0
H615 H 0.91039 0.64672 0.55744 0.0
H616 H 0.91308 0.81277 0.67694 0.0
H617 H 0.92908 0.71098 0.68148 0.0
H618 H 0.8677 0.87452 0.65697 0.0
H619 H 0.8563 0.9112 0.62642 0.0
C620 C 0.88008 0.63522 0.11518 0.0
C621 C 0.84856 0.64823 0.09669 0.0
C622 C 0.8404 0.78947 0.11235 0.0
C623 C 0.86982 0.77345 0.13194 0.0
N624 N 0.91179 0.6763 0.15547 0.0
N625 N 0.79585 0.73262 0.07895 0.0
C626 C 0.88812 0.69513 0.13426 0.0
C627 C 0.82777 0.72398 0.09565 0.0
N628 N 0.90248 0.56542 0.11471 0.0
N629 N 0.82555 0.86759 0.10929 0.0
H630 H 0.78711 0.68688 0.0658 0.0
H631 H 0.77698 0.78281 0.079 0.0
H632 H 0.83401 0.91632 0.12144 0.0
H633 H 0.80685 0.88552 0.09388 0.0
H634 H 0.92887 0.55886 0.12542 0.0
H635 H 0.89656 0.51578 0.10251 0.0
H636 H 0.92186 0.61677 0.1598 0.0
H637 H 0.91847 0.71819 0.17013 0.0
C638 C 0.91969 0.23117 0.16065 0.0
C639 C 0.92601 0.14987 0.15205 0.0
C640 C 0.91416 0.19484 0.10781 0.0
C641 C 0.90168 0.27247 0.11658 0.0
N642 N 0.89407 0.3684 0.15076 0.0
N643 N 0.92736 0.05113 0.11768 0.0
C644 C 0.90536 0.29213 0.14288 0.0
C645 C 0.92361 0.13117 0.12567 0.0
N646 N 0.92761 0.24956 0.18575 0.0
N647 N 0.91599 0.18091 0.08242 0.0
H648 H 0.93517 0.00213 0.12981 0.0
H649 H 0.92016 0.03164 0.09916 0.0
H650 H 0.9068 0.22338 0.06841 0.0
H651 H 0.92952 0.12948 0.07518 0.0
H652 H 0.92673 0.30909 0.19319 0.0
H653 H 0.93808 0.20535 0.19898 0.0
H654 H 0.8917 0.38416 0.16965 0.0
H655 H 0.88572 0.41592 0.13813 0.0
C656 C 0.66056 0.77228 0.84912 0.0
C657 C 0.65305 0.6918 0.85825 0.0
C658 C 0.67292 0.73443 0.90178 0.0
C659 C 0.68006 0.81502 0.89269 0.0
N660 N 0.68839 0.90747 0.85733 0.0
N661 N 0.66043 0.58982 0.89148 0.0
C662 C 0.67685 0.83252 0.86622 0.0
C663 C 0.66196 0.67083 0.8841 0.0
N664 N 0.64921 0.79342 0.82458 0.0
N665 N 0.67565 0.71959 0.92731 0.0
H666 H 0.65333 0.54204 0.87867 0.0
H667 H 0.66947 0.56895 0.90961 0.0
H668 H 0.68549 0.7641 0.94059 0.0
H669 H 0.66657 0.66488 0.9354 0.0
H670 H 0.6483 0.85409 0.81788 0.0
H671 H 0.63801 0.75134 0.81104 0.0
H672 H 0.69174 0.91902 0.83825 0.0
H673 H 0.6973 0.9571 0.86886 0.0
C674 C 0.61626 0.27261 0.8853 0.0
C675 C 0.61733 0.19065 0.87589 0.0
C676 C 0.59276 0.23766 0.83357 0.0
C677 C 0.59003 0.31896 0.84333 0.0
N678 N 0.59374 0.41298 0.87922 0.0
N679 N 0.60233 0.09108 0.84272 0.0
C680 C 0.59972 0.33592 0.86947 0.0
C681 C 0.60426 0.17186 0.85046 0.0
N682 N 0.63365 0.2912 0.90878 0.0
N683 N 0.58507 0.22403 0.80817 0.0
H684 H 0.61071 0.04188 0.85475 0.0
H685 H 0.58993 0.07208 0.82512 0.0
H686 H 0.57508 0.27058 0.7956 0.0
H687 H 0.59035 0.16813 0.79929 0.0
H688 H 0.63853 0.35137 0.91533 0.0
H689 H 0.64645 0.24698 0.92112 0.0
H690 H 0.59488 0.42523 0.89859 0.0
H691 H 0.58534 0.46444 0.86829 0.0
C692 C 0.65698 0.15993 0.38394 0.0
C693 C 0.62657 0.16972 0.36458 0.0
C694 C 0.62056 0.31612 0.37471 0.0
C695 C 0.64902 0.30573 0.39536 0.0
N696 N 0.69308 0.2195 0.421 0.0
N697 N 0.57646 0.25348 0.34274 0.0
C698 C 0.66706 0.22801 0.40037 0.0
C699 C 0.60751 0.24672 0.36038 0.0
N700 N 0.67622 0.08608 0.38628 0.0
N701 N 0.60729 0.39347 0.36792 0.0
H702 H 0.56792 0.20697 0.32987 0.0
H703 H 0.55745 0.30356 0.34174 0.0
H704 H 0.61553 0.44678 0.37788 0.0
H705 H 0.59048 0.40633 0.3512 0.0
H706 H 0.70067 0.076 0.39862 0.0
H707 H 0.66877 0.03535 0.37469 0.0
H708 H 0.70524 0.16332 0.4271 0.0
H709 H 0.701 0.26896 0.433 0.0
C710 C 0.58824 0.65595 0.33819 0.0
C711 C 0.57925 0.65436 0.36396 0.0
C712 C 0.54577 0.78564 0.35901 0.0
C713 C 0.55773 0.79216 0.33392 0.0
N714 N 0.57868 0.72349 0.29702 0.0
N715 N 0.52963 0.69018 0.39161 0.0
C716 C 0.57506 0.72354 0.32256 0.0
C717 C 0.55121 0.70977 0.37198 0.0
N718 N 0.60968 0.59351 0.32896 0.0
N719 N 0.53251 0.85267 0.37154 0.0
H720 H 0.52978 0.63092 0.39939 0.0
H721 H 0.50733 0.72794 0.39712 0.0
H722 H 0.53052 0.91224 0.36406 0.0
H723 H 0.52739 0.85058 0.3907 0.0
H724 H 0.62144 0.59543 0.31146 0.0
H725 H 0.61586 0.53931 0.3392 0.0
H726 H 0.58862 0.67309 0.28714 0.0
H727 H 0.56842 0.77205 0.28529 0.0
C728 C 0.39767 0.21861 0.12238 0.0
C729 C 0.38086 0.29848 0.12078 0.0
C730 C 0.33359 0.25199 0.08683 0.0
C731 C 0.35265 0.1743 0.08705 0.0
N732 N 0.40645 0.08667 0.10255 0.0
N733 N 0.33616 0.39614 0.10013 0.0
C734 C 0.38591 0.15879 0.10395 0.0
C735 C 0.3496 0.31672 0.10265 0.0
N736 N 0.42348 0.19831 0.1424 0.0
N737 N 0.30009 0.26321 0.07177 0.0
H738 H 0.34717 0.44448 0.11163 0.0
H739 H 0.31603 0.41536 0.08565 0.0
H740 H 0.28874 0.21781 0.05926 0.0
H741 H 0.28251 0.31529 0.07261 0.0
H742 H 0.43272 0.138 0.14643 0.0
H743 H 0.43303 0.24012 0.15653 0.0
H744 H 0.4338 0.07779 0.11184 0.0
H745 H 0.39783 0.03711 0.09091 0.0
C746 C 0.42856 0.75761 0.14838 0.0
C747 C 0.43383 0.67644 0.13936 0.0
C748 C 0.41371 0.72002 0.0959 0.0
C749 C 0.40291 0.79778 0.10552 0.0
N750 N 0.40071 0.89397 0.14027 0.0
N751 N 0.42903 0.57683 0.10503 0.0
C752 C 0.41092 0.81791 0.13159 0.0
C753 C 0.42659 0.65702 0.11317 0.0
N754 N 0.44065 0.77652 0.17293 0.0
N755 N 0.41068 0.70522 0.07035 0.0
H756 H 0.43919 0.52822 0.11664 0.0
H757 H 0.41843 0.55674 0.08712 0.0
H758 H 0.39825 0.74642 0.05694 0.0
H759 H 0.42306 0.65407 0.06213 0.0
H760 H 0.44069 0.83609 0.1804 0.0
H761 H 0.45358 0.73277 0.18544 0.0
H762 H 0.40161 0.90984 0.15937 0.0
H763 H 0.38987 0.9411 0.12823 0.0
C764 C 0.33573 0.69609 0.63844 0.0
C765 C 0.3428 0.77447 0.62779 0.0
C766 C 0.3181 0.72519 0.58577 0.0
C767 C 0.31725 0.64398 0.59577 0.0
N768 N 0.33046 0.54928 0.63105 0.0
N769 N 0.33937 0.8676 0.59214 0.0
C770 C 0.32669 0.62868 0.62204 0.0
C771 C 0.33319 0.79045 0.60166 0.0
N772 N 0.33879 0.68509 0.66417 0.0
N773 N 0.30426 0.73941 0.56123 0.0
H774 H 0.34763 0.91772 0.60378 0.0
H775 H 0.33735 0.88166 0.57288 0.0
H776 H 0.29314 0.69214 0.54933 0.0
H777 H 0.30113 0.7981 0.55319 0.0
H778 H 0.32937 0.63178 0.67293 0.0
H779 H 0.34739 0.73144 0.67706 0.0
H780 H 0.34226 0.53477 0.64924 0.0
H781 H 0.32545 0.49671 0.6199 0.0
C782 C 0.4016 0.19718 0.59594 0.0
C783 C 0.39407 0.27526 0.60659 0.0
C784 C 0.41789 0.22527 0.64875 0.0
C785 C 0.41897 0.14421 0.63869 0.0
N786 N 0.40644 0.05022 0.6032 0.0
N787 N 0.39667 0.36778 0.64231 0.0
C788 C 0.41012 0.12942 0.61234 0.0
C789 C 0.40309 0.29078 0.63279 0.0
N790 N 0.39955 0.18687 0.5702 0.0
N791 N 0.43123 0.23912 0.67339 0.0
H792 H 0.38872 0.41807 0.63063 0.0
H793 H 0.39824 0.38155 0.66158 0.0
H794 H 0.44213 0.19168 0.68533 0.0
H795 H 0.43417 0.2977 0.68149 0.0
H796 H 0.40913 0.13356 0.56153 0.0
H797 H 0.39185 0.23388 0.55731 0.0
H798 H 0.39511 0.03619 0.58488 0.0
H799 H 0.41097 -0.00257 0.61435 0.0
loop_
_geom_bond_atom_site_label_1
_geom_bond_atom_site_label_2
_geom_bond_distance
_geom_bond_site_symmetry_2
_ccdc_geom_bond_type
Zn0 O3 2.031 . S
Zn0 O5 2.040 1_545 S
Zn0 O10 2.067 . S
Zn1 O2 1.962 . S
Zn1 O4 1.986 . S
Zn1 O6 1.996 . S
Zn1 O9 1.943 . S
O2 Zn1 1.962 . S
O2 C7 1.254 . S
O3 Zn0 2.031 . S
O3 C7 1.269 . S
O4 Zn1 1.986 . S
O4 C11 1.262 . S
O5 Zn0 2.040 1_565 S
O5 C13 1.265 . S
O6 Zn1 1.996 . S
O6 C13 1.257 1_545 S
C7 O2 1.254 . S
C7 O3 1.269 . S
C8 O9 1.249 . S
C8 O10 1.270 . S
O9 Zn1 1.943 . S
O9 C8 1.249 . S
O10 Zn0 2.067 . S
O10 C8 1.270 . S
C11 O4 1.262 . S
C11 O12 1.232 . S
O12 C11 1.232 . S
C13 O5 1.265 . S
C13 O6 1.257 1_565 S
Zn14 O17 2.031 . S
Zn14 O19 2.040 1_545 S
Zn14 O24 2.067 . S
Zn15 O16 1.962 . S
Zn15 O18 1.986 . S
Zn15 O20 1.996 . S
Zn15 O23 1.943 . S
O16 Zn15 1.962 . S
O16 C21 1.254 . S
O17 Zn14 2.031 . S
O17 C21 1.269 . S
O18 Zn15 1.986 . S
O18 C25 1.262 . S
O19 Zn14 2.040 1_565 S
O19 C27 1.265 . S
O20 Zn15 1.996 . S
O20 C27 1.257 1_545 S
C21 O16 1.254 . S
C21 O17 1.269 . S
C22 O23 1.249 . S
C22 O24 1.270 . S
O23 Zn15 1.943 . S
O23 C22 1.249 . S
O24 Zn14 2.067 . S
O24 C22 1.270 . S
C25 O18 1.262 . S
C25 O26 1.232 . S
O26 C25 1.232 . S
C27 O19 1.265 . S
C27 O20 1.257 1_565 S
Zn28 O31 2.031 . S
Zn28 O33 2.040 1_565 S
Zn28 O38 2.067 . S
Zn29 O30 1.962 . S
Zn29 O32 1.986 . S
Zn29 O34 1.996 . S
Zn29 O37 1.943 . S
O30 Zn29 1.962 . S
O30 C35 1.254 . S
O31 Zn28 2.031 . S
O31 C35 1.269 . S
O32 Zn29 1.986 . S
O32 C39 1.262 . S
O33 Zn28 2.040 1_545 S
O33 C41 1.265 . S
O34 Zn29 1.996 . S
O34 C41 1.257 1_565 S
C35 O30 1.254 . S
C35 O31 1.269 . S
C36 O37 1.249 . S
C36 O38 1.270 . S
O37 Zn29 1.943 . S
O37 C36 1.249 . S
O38 Zn28 2.067 . S
O38 C36 1.270 . S
C39 O32 1.262 . S
C39 O40 1.232 . S
O40 C39 1.232 . S
C41 O33 1.265 . S
C41 O34 1.257 1_545 S
Zn42 O45 2.031 . S
Zn42 O47 2.040 1_565 S
Zn42 O52 2.067 . S
Zn43 O44 1.962 . S
Zn43 O46 1.986 . S
Zn43 O48 1.996 . S
Zn43 O51 1.943 . S
O44 Zn43 1.962 . S
O44 C49 1.254 . S
O45 Zn42 2.031 . S
O45 C49 1.269 . S
O46 Zn43 1.986 . S
O46 C53 1.262 . S
O47 Zn42 2.040 1_545 S
O47 C55 1.265 . S
O48 Zn43 1.996 . S
O48 C55 1.257 1_565 S
C49 O44 1.254 . S
C49 O45 1.269 . S
C50 O51 1.249 . S
C50 O52 1.270 . S
O51 Zn43 1.943 . S
O51 C50 1.249 . S
O52 Zn42 2.067 . S
O52 C50 1.270 . S
C53 O46 1.262 . S
C53 O54 1.232 . S
O54 C53 1.232 . S
C55 O47 1.265 . S
C55 O48 1.257 1_545 S
Zn56 O59 2.031 . S
Zn56 O61 2.049 . S
Zn56 O66 2.067 . S
Zn57 O58 1.962 . S
Zn57 O60 1.986 . S
Zn57 O62 1.996 . S
Zn57 O65 1.943 . S
O58 Zn57 1.962 . S
O58 C63 1.254 . S
O59 Zn56 2.031 . S
O59 C63 1.269 . S
O60 Zn57 1.986 . S
O60 C67 1.262 . S
O61 Zn56 2.049 . S
O61 C69 1.260 . S
O62 Zn57 1.996 . S
O62 C69 1.257 . S
C63 O58 1.254 . S
C63 O59 1.269 . S
C64 O65 1.249 . S
C64 O66 1.270 . S
O65 Zn57 1.943 . S
O65 C64 1.249 . S
O66 Zn56 2.067 . S
O66 C64 1.270 . S
C67 O60 1.262 . S
C67 O68 1.232 . S
O68 C67 1.232 . S
C69 O61 1.260 . S
C69 O62 1.257 . S
Zn70 O73 2.031 . S
Zn70 O75 2.049 . S
Zn70 O80 2.067 . S
Zn71 O72 1.962 . S
Zn71 O74 1.986 . S
Zn71 O76 1.996 . S
Zn71 O79 1.943 . S
O72 Zn71 1.962 . S
O72 C77 1.254 . S
O73 Zn70 2.031 . S
O73 C77 1.269 . S
O74 Zn71 1.986 . S
O74 C81 1.262 . S
O75 Zn70 2.049 . S
O75 C83 1.260 . S
O76 Zn71 1.996 . S
O76 C83 1.257 . S
C77 O72 1.254 . S
C77 O73 1.269 . S
C78 O79 1.249 . S
C78 O80 1.270 . S
O79 Zn71 1.943 . S
O79 C78 1.249 . S
O80 Zn70 2.067 . S
O80 C78 1.270 . S
C81 O74 1.262 . S
C81 O82 1.232 . S
O82 C81 1.232 . S
C83 O75 1.260 . S
C83 O76 1.257 . S
Zn84 O87 2.031 . S
Zn84 O89 2.049 . S
Zn84 O94 2.067 . S
Zn85 O86 1.962 . S
Zn85 O88 1.986 . S
Zn85 O90 1.996 . S
Zn85 O93 1.943 . S
O86 Zn85 1.962 . S
O86 C91 1.254 . S
O87 Zn84 2.031 . S
O87 C91 1.269 . S
O88 Zn85 1.986 . S
O88 C95 1.262 . S
O89 Zn84 2.049 . S
O89 C97 1.260 . S
O90 Zn85 1.996 . S
O90 C97 1.257 . S
C91 O86 1.254 . S
C91 O87 1.269 . S
C92 O93 1.249 . S
C92 O94 1.270 . S
O93 Zn85 1.943 . S
O93 C92 1.249 . S
O94 Zn84 2.067 . S
O94 C92 1.270 . S
C95 O88 1.262 . S
C95 O96 1.232 . S
O96 C95 1.232 . S
C97 O89 1.260 . S
C97 O90 1.257 . S
Zn98 O101 2.031 . S
Zn98 O103 2.049 . S
Zn98 O108 2.067 . S
Zn99 O100 1.962 . S
Zn99 O102 1.986 . S
Zn99 O104 1.996 . S
Zn99 O107 1.943 . S
O100 Zn99 1.962 . S
O100 C105 1.254 . S
O101 Zn98 2.031 . S
O101 C105 1.269 . S
O102 Zn99 1.986 . S
O102 C109 1.262 . S
O103 Zn98 2.049 . S
O103 C111 1.260 . S
O104 Zn99 1.996 . S
O104 C111 1.257 . S
C105 O100 1.254 . S
C105 O101 1.269 . S
C106 O107 1.249 . S
C106 O108 1.270 . S
O107 Zn99 1.943 . S
O107 C106 1.249 . S
O108 Zn98 2.067 . S
O108 C106 1.270 . S
C109 O102 1.262 . S
C109 O110 1.232 . S
O110 C109 1.232 . S
C111 O103 1.260 . S
C111 O104 1.257 . S
Zn112 O115 2.031 . S
Zn112 O117 2.040 1_545 S
Zn112 O122 2.067 . S
Zn113 O114 1.962 . S
Zn113 O116 1.986 . S
Zn113 O118 1.996 . S
Zn113 O121 1.943 . S
O114 Zn113 1.962 . S
O114 C119 1.254 . S
O115 Zn112 2.031 . S
O115 C119 1.269 . S
O116 Zn113 1.986 . S
O116 C123 1.262 . S
O117 Zn112 2.040 1_565 S
O117 C125 1.265 . S
O118 Zn113 1.996 . S
O118 C125 1.257 1_545 S
C119 O114 1.254 . S
C119 O115 1.269 . S
C120 O121 1.249 . S
C120 O122 1.270 . S
O121 Zn113 1.943 . S
O121 C120 1.249 . S
O122 Zn112 2.067 . S
O122 C120 1.270 . S
C123 O116 1.262 . S
C123 O124 1.232 . S
O124 C123 1.232 . S
C125 O117 1.265 . S
C125 O118 1.257 1_565 S
Zn126 O129 2.031 . S
Zn126 O131 2.040 1_545 S
Zn126 O136 2.067 . S
Zn127 O128 1.962 . S
Zn127 O130 1.986 . S
Zn127 O132 1.996 . S
Zn127 O135 1.943 . S
O128 Zn127 1.962 . S
O128 C133 1.254 . S
O129 Zn126 2.031 . S
O129 C133 1.269 . S
O130 Zn127 1.986 . S
O130 C137 1.262 . S
O131 Zn126 2.040 1_565 S
O131 C139 1.265 . S
O132 Zn127 1.996 . S
O132 C139 1.257 1_545 S
C133 O128 1.254 . S
C133 O129 1.269 . S
C134 O135 1.249 . S
C134 O136 1.270 . S
O135 Zn127 1.943 . S
O135 C134 1.249 . S
O136 Zn126 2.067 . S
O136 C134 1.270 . S
C137 O130 1.262 . S
C137 O138 1.232 . S
O138 C137 1.232 . S
C139 O131 1.265 . S
C139 O132 1.257 1_565 S
Zn140 O143 2.031 . S
Zn140 O145 2.040 1_565 S
Zn140 O150 2.067 . S
Zn141 O142 1.962 . S
Zn141 O144 1.986 . S
Zn141 O146 1.996 . S
Zn141 O149 1.943 . S
O142 Zn141 1.962 . S
O142 C147 1.254 . S
O143 Zn140 2.031 . S
O143 C147 1.269 . S
O144 Zn141 1.986 . S
O144 C151 1.262 . S
O145 Zn140 2.040 1_545 S
O145 C153 1.265 . S
O146 Zn141 1.996 . S
O146 C153 1.257 1_565 S
C147 O142 1.254 . S
C147 O143 1.269 . S
C148 O149 1.249 . S
C148 O150 1.270 . S
O149 Zn141 1.943 . S
O149 C148 1.249 . S
O150 Zn140 2.067 . S
O150 C148 1.270 . S
C151 O144 1.262 . S
C151 O152 1.232 . S
O152 C151 1.232 . S
C153 O145 1.265 . S
C153 O146 1.257 1_545 S
Zn154 O157 2.031 . S
Zn154 O159 2.040 1_565 S
Zn154 O164 2.067 . S
Zn155 O156 1.962 . S
Zn155 O158 1.986 . S
Zn155 O160 1.996 . S
Zn155 O163 1.943 . S
O156 Zn155 1.962 . S
O156 C161 1.254 . S
O157 Zn154 2.031 . S
O157 C161 1.269 . S
O158 Zn155 1.986 . S
O158 C165 1.262 . S
O159 Zn154 2.040 1_545 S
O159 C167 1.265 . S
O160 Zn155 1.996 . S
O160 C167 1.257 1_565 S
C161 O156 1.254 . S
C161 O157 1.269 . S
C162 O163 1.249 . S
C162 O164 1.270 . S
O163 Zn155 1.943 . S
O163 C162 1.249 . S
O164 Zn154 2.067 . S
O164 C162 1.270 . S
C165 O158 1.262 . S
C165 O166 1.232 . S
O166 C165 1.232 . S
C167 O159 1.265 . S
C167 O160 1.257 1_545 S
Zn168 O171 2.031 . S
Zn168 O173 2.049 . S
Zn168 O178 2.067 . S
Zn169 O170 1.962 . S
Zn169 O172 1.986 . S
Zn169 O174 1.996 . S
Zn169 O177 1.943 . S
O170 Zn169 1.962 . S
O170 C175 1.254 . S
O171 Zn168 2.031 . S
O171 C175 1.269 . S
O172 Zn169 1.986 . S
O172 C179 1.262 . S
O173 Zn168 2.049 . S
O173 C181 1.260 . S
O174 Zn169 1.996 . S
O174 C181 1.257 . S
C175 O170 1.254 . S
C175 O171 1.269 . S
C176 O177 1.249 . S
C176 O178 1.270 . S
O177 Zn169 1.943 . S
O177 C176 1.249 . S
O178 Zn168 2.067 . S
O178 C176 1.270 . S
C179 O172 1.262 . S
C179 O180 1.232 . S
O180 C179 1.232 . S
C181 O173 1.260 . S
C181 O174 1.257 . S
Zn182 O185 2.031 . S
Zn182 O187 2.049 . S
Zn182 O192 2.067 . S
Zn183 O184 1.962 . S
Zn183 O186 1.986 . S
Zn183 O188 1.996 . S
Zn183 O191 1.943 . S
O184 Zn183 1.962 . S
O184 C189 1.254 . S
O185 Zn182 2.031 . S
O185 C189 1.269 . S
O186 Zn183 1.986 . S
O186 C193 1.262 . S
O187 Zn182 2.049 . S
O187 C195 1.260 . S
O188 Zn183 1.996 . S
O188 C195 1.257 . S
C189 O184 1.254 . S
C189 O185 1.269 . S
C190 O191 1.249 . S
C190 O192 1.270 . S
O191 Zn183 1.943 . S
O191 C190 1.249 . S
O192 Zn182 2.067 . S
O192 C190 1.270 . S
C193 O186 1.262 . S
C193 O194 1.232 . S
O194 C193 1.232 . S
C195 O187 1.260 . S
C195 O188 1.257 . S
Zn196 O199 2.031 . S
Zn196 O201 2.049 . S
Zn196 O206 2.067 . S
Zn197 O198 1.962 . S
Zn197 O200 1.986 . S
Zn197 O202 1.996 . S
Zn197 O205 1.943 . S
O198 Zn197 1.962 . S
O198 C203 1.254 . S
O199 Zn196 2.031 . S
O199 C203 1.269 . S
O200 Zn197 1.986 . S
O200 C207 1.262 . S
O201 Zn196 2.049 . S
O201 C209 1.260 . S
O202 Zn197 1.996 . S
O202 C209 1.257 . S
C203 O198 1.254 . S
C203 O199 1.269 . S
C204 O205 1.249 . S
C204 O206 1.270 . S
O205 Zn197 1.943 . S
O205 C204 1.249 . S
O206 Zn196 2.067 . S
O206 C204 1.270 . S
C207 O200 1.262 . S
C207 O208 1.232 . S
O208 C207 1.232 . S
C209 O201 1.260 . S
C209 O202 1.257 . S
Zn210 O213 2.031 . S
Zn210 O215 2.049 . S
Zn210 O220 2.067 . S
Zn211 O212 1.962 . S
Zn211 O214 1.986 . S
Zn211 O216 1.996 . S
Zn211 O219 1.943 . S
O212 Zn211 1.962 . S
O212 C217 1.254 . S
O213 Zn210 2.031 . S
O213 C217 1.269 . S
O214 Zn211 1.986 . S
O214 C221 1.262 . S
O215 Zn210 2.049 . S
O215 C223 1.260 . S
O216 Zn211 1.996 . S
O216 C223 1.257 . S
C217 O212 1.254 . S
C217 O213 1.269 . S
C218 O219 1.249 . S
C218 O220 1.270 . S
O219 Zn211 1.943 . S
O219 C218 1.249 . S
O220 Zn210 2.067 . S
O220 C218 1.270 . S
C221 O214 1.262 . S
C221 O222 1.232 . S
O222 C221 1.232 . S
C223 O215 1.260 . S
C223 O216 1.257 . S
C224 C225 1.363 . S
C224 C230 1.379 . S
C224 N232 1.356 . S
C225 C224 1.363 . S
C225 C231 1.363 . S
C226 C227 1.363 . S
C226 C231 1.379 . S
C226 N233 1.356 . S
C227 C226 1.363 . S
C227 C230 1.363 . S
N228 C230 1.356 . S
N228 H240 0.984 . S
N228 H241 0.985 . S
N229 C231 1.356 . S
N229 H234 0.984 . S
N229 H235 0.985 . S
C230 C224 1.379 . S
C230 C227 1.363 . S
C230 N228 1.356 . S
C231 C225 1.363 . S
C231 C226 1.379 . S
C231 N229 1.356 . S
N232 C224 1.356 . S
N232 H238 0.984 . S
N232 H239 0.984 . S
N233 C226 1.356 . S
N233 H236 0.984 . S
N233 H237 0.985 . S
H234 N229 0.984 . S
H235 N229 0.985 . S
H236 N233 0.984 . S
H237 N233 0.985 . S
H238 N232 0.984 . S
H239 N232 0.984 . S
H240 N228 0.984 . S
H241 N228 0.985 . S
C242 C243 1.363 1_445 S
C242 C248 1.379 . S
C242 N250 1.356 1_445 S
C243 C242 1.363 1_665 S
C243 C249 1.363 . S
C244 C245 1.363 1_665 S
C244 C249 1.379 . S
C244 N251 1.356 1_665 S
C245 C244 1.363 1_445 S
C245 C248 1.363 . S
N246 C248 1.356 . S
N246 H258 0.984 . S
N246 H259 0.985 . S
N247 C249 1.356 . S
N247 H252 0.984 . S
N247 H253 0.985 . S
C248 C242 1.379 . S
C248 C245 1.363 . S
C248 N246 1.356 . S
C249 C243 1.363 . S
C249 C244 1.379 . S
C249 N247 1.356 . S
N250 C242 1.356 1_665 S
N250 H256 0.984 1_665 S
N250 H257 0.984 . S
N251 C244 1.356 1_445 S
N251 H254 0.984 . S
N251 H255 0.985 1_445 S
H252 N247 0.984 . S
H253 N247 0.985 . S
H254 N251 0.984 . S
H255 N251 0.985 1_665 S
H256 N250 0.984 1_445 S
H257 N250 0.984 . S
H258 N246 0.984 . S
H259 N246 0.985 . S
C260 C261 1.363 . S
C260 C266 1.379 . S
C260 N268 1.356 . S
C261 C260 1.363 . S
C261 C267 1.363 1_565 S
C262 C263 1.363 . S
C262 C267 1.379 . S
C262 N269 1.356 . S
C263 C262 1.363 . S
C263 C266 1.363 1_545 S
N264 C266 1.356 . S
N264 H276 0.984 . S
N264 H277 0.985 . S
N265 C267 1.356 . S
N265 H270 0.984 . S
N265 H271 0.985 . S
C266 C260 1.379 . S
C266 C263 1.363 1_565 S
C266 N264 1.356 . S
C267 C261 1.363 1_545 S
C267 C262 1.379 . S
C267 N265 1.356 . S
N268 C260 1.356 . S
N268 H274 0.984 . S
N268 H275 0.984 . S
N269 C262 1.356 . S
N269 H272 0.984 . S
N269 H273 0.985 . S
H270 N265 0.984 . S
H271 N265 0.985 . S
H272 N269 0.984 . S
H273 N269 0.985 . S
H274 N268 0.984 . S
H275 N268 0.984 . S
H276 N264 0.984 . S
H277 N264 0.985 . S
C278 C279 1.363 . S
C278 C284 1.379 1_455 S
C278 N286 1.356 . S
C279 C278 1.363 . S
C279 C285 1.363 . S
C280 C281 1.363 . S
C280 C285 1.379 1_655 S
C280 N287 1.356 . S
C281 C280 1.363 . S
C281 C284 1.363 . S
N282 C284 1.356 . S
N282 H294 0.984 . S
N282 H295 0.985 . S
N283 C285 1.356 . S
N283 H288 0.984 . S
N283 H289 0.985 . S
C284 C278 1.379 1_655 S
C284 C281 1.363 . S
C284 N282 1.356 . S
C285 C279 1.363 . S
C285 C280 1.379 1_455 S
C285 N283 1.356 . S
N286 C278 1.356 . S
N286 H292 0.984 . S
N286 H293 0.984 . S
N287 C280 1.356 . S
N287 H290 0.984 . S
N287 H291 0.985 . S
H288 N283 0.984 . S
H289 N283 0.985 . S
H290 N287 0.984 . S
H291 N287 0.985 . S
H292 N286 0.984 . S
H293 N286 0.984 . S
H294 N282 0.984 . S
H295 N282 0.985 . S
C296 C297 1.363 . S
C296 C302 1.379 . S
C296 N304 1.356 . S
C297 C296 1.363 . S
C297 C303 1.363 . S
C298 C299 1.363 . S
C298 C303 1.379 . S
C298 N305 1.356 . S
C299 C298 1.363 . S
C299 C302 1.363 . S
N300 C302 1.356 . S
N300 H312 0.984 . S
N300 H313 0.985 . S
N301 C303 1.356 . S
N301 H306 0.984 . S
N301 H307 0.985 . S
C302 C296 1.379 . S
C302 C299 1.363 . S
C302 N300 1.356 . S
C303 C297 1.363 . S
C303 C298 1.379 . S
C303 N301 1.356 . S
N304 C296 1.356 . S
N304 H310 0.984 . S
N304 H311 0.984 . S
N305 C298 1.356 . S
N305 H308 0.984 . S
N305 H309 0.985 . S
H306 N301 0.984 . S
H307 N301 0.985 . S
H308 N305 0.984 . S
H309 N305 0.985 . S
H310 N304 0.984 . S
H311 N304 0.984 . S
H312 N300 0.984 . S
H313 N300 0.985 . S
C314 C315 1.363 . S
C314 C320 1.379 1_545 S
C314 N322 1.356 . S
C315 C314 1.363 . S
C315 C321 1.363 . S
C316 C317 1.363 . S
C316 C321 1.379 1_565 S
C316 N323 1.356 . S
C317 C316 1.363 . S
C317 C320 1.363 . S
N318 C320 1.356 . S
N318 H330 0.984 . S
N318 H331 0.985 . S
N319 C321 1.356 . S
N319 H324 0.984 . S
N319 H325 0.985 . S
C320 C314 1.379 1_565 S
C320 C317 1.363 . S
C320 N318 1.356 . S
C321 C315 1.363 . S
C321 C316 1.379 1_545 S
C321 N319 1.356 . S
N322 C314 1.356 . S
N322 H328 0.984 . S
N322 H329 0.984 . S
N323 C316 1.356 . S
N323 H326 0.984 . S
N323 H327 0.985 . S
H324 N319 0.984 . S
H325 N319 0.985 . S
H326 N323 0.984 . S
H327 N323 0.985 . S
H328 N322 0.984 . S
H329 N322 0.984 . S
H330 N318 0.984 . S
H331 N318 0.985 . S
C332 C333 1.363 . S
C332 C338 1.379 1_655 S
C332 N340 1.356 . S
C333 C332 1.363 . S
C333 C339 1.363 . S
C334 C335 1.363 . S
C334 C339 1.379 1_455 S
C334 N341 1.356 . S
C335 C334 1.363 . S
C335 C338 1.363 . S
N336 C338 1.356 . S
N336 H348 0.984 . S
N336 H349 0.985 . S
N337 C339 1.356 . S
N337 H342 0.984 . S
N337 H343 0.985 . S
C338 C332 1.379 1_455 S
C338 C335 1.363 . S
C338 N336 1.356 . S
C339 C333 1.363 . S
C339 C334 1.379 1_655 S
C339 N337 1.356 . S
N340 C332 1.356 . S
N340 H346 0.984 . S
N340 H347 0.984 . S
N341 C334 1.356 . S
N341 H344 0.984 . S
N341 H345 0.985 . S
H342 N337 0.984 . S
H343 N337 0.985 . S
H344 N341 0.984 . S
H345 N341 0.985 . S
H346 N340 0.984 . S
H347 N340 0.984 . S
H348 N336 0.984 . S
H349 N336 0.985 . S
C350 C351 1.363 . S
C350 C356 1.379 1_554 S
C350 N358 1.356 . S
C351 C350 1.363 . S
C351 C357 1.363 . S
C352 C353 1.363 . S
C352 C357 1.379 1_556 S
C352 N359 1.356 . S
C353 C352 1.363 . S
C353 C356 1.363 . S
N354 C356 1.356 . S
N354 H366 0.984 . S
N354 H367 0.985 . S
N355 C357 1.356 . S
N355 H360 0.984 . S
N355 H361 0.985 . S
C356 C350 1.379 1_556 S
C356 C353 1.363 . S
C356 N354 1.356 . S
C357 C351 1.363 . S
C357 C352 1.379 1_554 S
C357 N355 1.356 . S
N358 C350 1.356 . S
N358 H364 0.984 . S
N358 H365 0.984 . S
N359 C352 1.356 . S
N359 H362 0.984 . S
N359 H363 0.985 . S
H360 N355 0.984 . S
H361 N355 0.985 . S
H362 N359 0.984 . S
H363 N359 0.985 . S
H364 N358 0.984 . S
H365 N358 0.984 . S
H366 N354 0.984 . S
H367 N354 0.985 . S
C368 C369 1.363 1_655 S
C368 C374 1.392 . S
C368 N376 1.356 . S
C369 C368 1.363 1_455 S
C369 C375 1.351 1_556 S
C370 C371 1.363 1_455 S
C370 C375 1.392 . S
C370 N377 1.356 . S
C371 C370 1.363 1_655 S
C371 C374 1.351 1_554 S
N372 C374 1.350 1_554 S
N372 H384 0.984 1_554 S
N372 H385 0.985 . S
N373 C375 1.350 1_556 S
N373 H378 0.984 . S
N373 H379 0.985 1_556 S
C374 C368 1.392 . S
C374 C371 1.351 1_556 S
C374 N372 1.350 1_556 S
C375 C369 1.351 1_554 S
C375 C370 1.392 . S
C375 N373 1.350 1_554 S
N376 C368 1.356 . S
N376 H382 0.984 . S
N376 H383 0.984 1_655 S
N377 C370 1.356 . S
N377 H380 0.984 1_455 S
N377 H381 0.985 . S
H378 N373 0.984 . S
H379 N373 0.985 1_554 S
H380 N377 0.984 1_655 S
H381 N377 0.985 . S
H382 N376 0.984 . S
H383 N376 0.984 1_455 S
H384 N372 0.984 1_556 S
H385 N372 0.985 . S
C386 C387 1.363 . S
C386 C392 1.379 . S
C386 N394 1.356 . S
C387 C386 1.363 . S
C387 C393 1.363 . S
C388 C389 1.363 . S
C388 C393 1.379 . S
C388 N395 1.356 . S
C389 C388 1.363 . S
C389 C392 1.363 . S
N390 C392 1.356 . S
N390 H402 0.984 . S
N390 H403 0.985 . S
N391 C393 1.356 . S
N391 H396 0.984 . S
N391 H397 0.985 . S
C392 C386 1.379 . S
C392 C389 1.363 . S
C392 N390 1.356 . S
C393 C387 1.363 . S
C393 C388 1.379 . S
C393 N391 1.356 . S
N394 C386 1.356 . S
N394 H400 0.984 . S
N394 H401 0.984 . S
N395 C388 1.356 . S
N395 H398 0.984 . S
N395 H399 0.985 . S
H396 N391 0.984 . S
H397 N391 0.985 . S
H398 N395 0.984 . S
H399 N395 0.985 . S
H400 N394 0.984 . S
H401 N394 0.984 . S
H402 N390 0.984 . S
H403 N390 0.985 . S
C404 C405 1.363 . S
C404 C410 1.379 . S
C404 N412 1.356 . S
C405 C404 1.363 . S
C405 C411 1.363 1_556 S
C406 C407 1.363 . S
C406 C411 1.379 . S
C406 N413 1.356 . S
C407 C406 1.363 . S
C407 C410 1.363 1_554 S
N408 C410 1.356 . S
N408 H420 0.984 . S
N408 H421 0.985 1_556 S
N409 C411 1.356 . S
N409 H414 0.984 1_554 S
N409 H415 0.985 . S
C410 C404 1.379 . S
C410 C407 1.363 1_556 S
C410 N408 1.356 . S
C411 C405 1.363 1_554 S
C411 C406 1.379 . S
C411 N409 1.356 . S
N412 C404 1.356 . S
N412 H418 0.984 . S
N412 H419 0.984 . S
N413 C406 1.356 . S
N413 H416 0.984 . S
N413 H417 0.985 . S
H414 N409 0.984 1_556 S
H415 N409 0.985 . S
H416 N413 0.984 . S
H417 N413 0.985 . S
H418 N412 0.984 . S
H419 N412 0.984 . S
H420 N408 0.984 . S
H421 N408 0.985 1_554 S
C422 C423 1.363 . S
C422 C428 1.379 . S
C422 N430 1.356 . S
C423 C422 1.363 . S
C423 C429 1.363 . S
C424 C425 1.363 . S
C424 C429 1.379 . S
C424 N431 1.356 . S
C425 C424 1.363 . S
C425 C428 1.363 . S
N426 C428 1.356 . S
N426 H438 0.984 . S
N426 H439 0.985 . S
N427 C429 1.356 . S
N427 H432 0.984 . S
N427 H433 0.985 . S
C428 C422 1.379 . S
C428 C425 1.363 . S
C428 N426 1.356 . S
C429 C423 1.363 . S
C429 C424 1.379 . S
C429 N427 1.356 . S
N430 C422 1.356 . S
N430 H436 0.984 . S
N430 H437 0.984 . S
N431 C424 1.356 . S
N431 H434 0.984 . S
N431 H435 0.985 . S
H432 N427 0.984 . S
H433 N427 0.985 . S
H434 N431 0.984 . S
H435 N431 0.985 . S
H436 N430 0.984 . S
H437 N430 0.984 . S
H438 N426 0.984 . S
H439 N426 0.985 . S
C440 C441 1.363 . S
C440 C446 1.379 . S
C440 N448 1.356 . S
C441 C440 1.363 . S
C441 C447 1.363 1_546 S
C442 C443 1.363 . S
C442 C447 1.379 . S
C442 N449 1.356 . S
C443 C442 1.363 . S
C443 C446 1.363 1_564 S
N444 C446 1.356 1_565 S
N444 H456 0.984 1_565 S
N444 H457 0.985 1_556 S
N445 C447 1.356 1_545 S
N445 H450 0.984 1_554 S
N445 H451 0.985 1_545 S
C446 C440 1.379 . S
C446 C443 1.363 1_546 S
C446 N444 1.356 1_545 S
C447 C441 1.363 1_564 S
C447 C442 1.379 . S
C447 N445 1.356 1_565 S
N448 C440 1.356 . S
N448 H454 0.984 . S
N448 H455 0.984 . S
N449 C442 1.356 . S
N449 H452 0.984 . S
N449 H453 0.985 . S
H450 N445 0.984 1_556 S
H451 N445 0.985 1_565 S
H452 N449 0.984 . S
H453 N449 0.985 . S
H454 N448 0.984 . S
H455 N448 0.984 . S
H456 N444 0.984 1_545 S
H457 N444 0.985 1_554 S
C458 C459 1.363 . S
C458 C464 1.379 . S
C458 N466 1.356 . S
C459 C458 1.363 . S
C459 C465 1.363 . S
C460 C461 1.363 . S
C460 C465 1.379 . S
C460 N467 1.356 . S
C461 C460 1.363 . S
C461 C464 1.363 . S
N462 C464 1.356 . S
N462 H474 0.984 . S
N462 H475 0.985 . S
N463 C465 1.356 . S
N463 H468 0.984 . S
N463 H469 0.985 . S
C464 C458 1.379 . S
C464 C461 1.363 . S
C464 N462 1.356 . S
C465 C459 1.363 . S
C465 C460 1.379 . S
C465 N463 1.356 . S
N466 C458 1.356 . S
N466 H472 0.984 . S
N466 H473 0.984 . S
N467 C460 1.356 . S
N467 H470 0.984 . S
N467 H471 0.985 . S
H468 N463 0.984 . S
H469 N463 0.985 . S
H470 N467 0.984 . S
H471 N467 0.985 . S
H472 N466 0.984 . S
H473 N466 0.984 . S
H474 N462 0.984 . S
H475 N462 0.985 . S
C476 C477 1.363 . S
C476 C482 1.379 . S
C476 N484 1.356 . S
C477 C476 1.363 . S
C477 C483 1.363 . S
C478 C479 1.363 . S
C478 C483 1.379 . S
C478 N485 1.356 . S
C479 C478 1.363 . S
C479 C482 1.363 . S
N480 C482 1.356 . S
N480 H492 0.984 . S
N480 H493 0.985 . S
N481 C483 1.356 . S
N481 H486 0.984 . S
N481 H487 0.985 . S
C482 C476 1.379 . S
C482 C479 1.363 . S
C482 N480 1.356 . S
C483 C477 1.363 . S
C483 C478 1.379 . S
C483 N481 1.356 . S
N484 C476 1.356 . S
N484 H490 0.984 . S
N484 H491 0.984 . S
N485 C478 1.356 . S
N485 H488 0.984 . S
N485 H489 0.985 . S
H486 N481 0.984 . S
H487 N481 0.985 . S
H488 N485 0.984 . S
H489 N485 0.985 . S
H490 N484 0.984 . S
H491 N484 0.984 . S
H492 N480 0.984 . S
H493 N480 0.985 . S
C494 C495 1.363 . S
C494 C500 1.379 . S
C494 N502 1.356 . S
C495 C494 1.363 . S
C495 C501 1.363 . S
C496 C497 1.363 . S
C496 C501 1.379 . S
C496 N503 1.356 . S
C497 C496 1.363 . S
C497 C500 1.363 . S
N498 C500 1.356 . S
N498 H510 0.984 . S
N498 H511 0.985 . S
N499 C501 1.356 . S
N499 H504 0.984 . S
N499 H505 0.985 . S
C500 C494 1.379 . S
C500 C497 1.363 . S
C500 N498 1.356 . S
C501 C495 1.363 . S
C501 C496 1.379 . S
C501 N499 1.356 . S
N502 C494 1.356 . S
N502 H508 0.984 . S
N502 H509 0.984 . S
N503 C496 1.356 . S
N503 H506 0.984 . S
N503 H507 0.985 . S
H504 N499 0.984 . S
H505 N499 0.985 . S
H506 N503 0.984 . S
H507 N503 0.985 . S
H508 N502 0.984 . S
H509 N502 0.984 . S
H510 N498 0.984 . S
H511 N498 0.985 . S
C512 C513 1.363 . S
C512 C518 1.379 . S
C512 N520 1.356 . S
C513 C512 1.363 . S
C513 C519 1.363 . S
C514 C515 1.363 . S
C514 C519 1.379 . S
C514 N521 1.356 1_565 S
C515 C514 1.363 . S
C515 C518 1.363 . S
N516 C518 1.356 . S
N516 H528 0.984 . S
N516 H529 0.985 . S
N517 C519 1.356 . S
N517 H522 0.984 . S
N517 H523 0.985 . S
C518 C512 1.379 . S
C518 C515 1.363 . S
C518 N516 1.356 . S
C519 C513 1.363 . S
C519 C514 1.379 . S
C519 N517 1.356 . S
N520 C512 1.356 . S
N520 H526 0.984 . S
N520 H527 0.984 . S
N521 C514 1.356 1_545 S
N521 H524 0.984 . S
N521 H525 0.985 . S
H522 N517 0.984 . S
H523 N517 0.985 . S
H524 N521 0.984 . S
H525 N521 0.985 . S
H526 N520 0.984 . S
H527 N520 0.984 . S
H528 N516 0.984 . S
H529 N516 0.985 . S
C530 C531 1.363 . S
C530 C536 1.379 . S
C530 N538 1.356 . S
C531 C530 1.363 . S
C531 C537 1.363 . S
C532 C533 1.363 . S
C532 C537 1.379 . S
C532 N539 1.356 . S
C533 C532 1.363 . S
C533 C536 1.363 . S
N534 C536 1.356 . S
N534 H546 0.984 . S
N534 H547 0.985 . S
N535 C537 1.356 . S
N535 H540 0.984 . S
N535 H541 0.985 . S
C536 C530 1.379 . S
C536 C533 1.363 . S
C536 N534 1.356 . S
C537 C531 1.363 . S
C537 C532 1.379 . S
C537 N535 1.356 . S
N538 C530 1.356 . S
N538 H544 0.984 . S
N538 H545 0.984 . S
N539 C532 1.356 . S
N539 H542 0.984 . S
N539 H543 0.985 . S
H540 N535 0.984 . S
H541 N535 0.985 . S
H542 N539 0.984 . S
H543 N539 0.985 . S
H544 N538 0.984 . S
H545 N538 0.984 . S
H546 N534 0.984 . S
H547 N534 0.985 . S
C548 C549 1.363 . S
C548 C554 1.379 . S
C548 N556 1.356 . S
C549 C548 1.363 . S
C549 C555 1.363 . S
C550 C551 1.363 . S
C550 C555 1.379 . S
C550 N557 1.356 . S
C551 C550 1.363 . S
C551 C554 1.363 . S
N552 C554 1.356 . S
N552 H564 0.984 . S
N552 H565 0.985 . S
N553 C555 1.356 . S
N553 H558 0.984 . S
N553 H559 0.985 . S
C554 C548 1.379 . S
C554 C551 1.363 . S
C554 N552 1.356 . S
C555 C549 1.363 . S
C555 C550 1.379 . S
C555 N553 1.356 . S
N556 C548 1.356 . S
N556 H562 0.984 . S
N556 H563 0.984 . S
N557 C550 1.356 . S
N557 H560 0.984 . S
N557 H561 0.985 . S
H558 N553 0.984 . S
H559 N553 0.985 . S
H560 N557 0.984 . S
H561 N557 0.985 . S
H562 N556 0.984 . S
H563 N556 0.984 . S
H564 N552 0.984 . S
H565 N552 0.985 . S
C566 C567 1.363 . S
C566 C572 1.379 . S
C566 N574 1.356 . S
C567 C566 1.363 . S
C567 C573 1.363 . S
C568 C569 1.363 . S
C568 C573 1.379 . S
C568 N575 1.356 . S
C569 C568 1.363 . S
C569 C572 1.363 . S
N570 C572 1.356 1_545 S
N570 H582 0.984 . S
N570 H583 0.985 . S
N571 C573 1.356 . S
N571 H576 0.984 . S
N571 H577 0.985 . S
C572 C566 1.379 . S
C572 C569 1.363 . S
C572 N570 1.356 1_565 S
C573 C567 1.363 . S
C573 C568 1.379 . S
C573 N571 1.356 . S
N574 C566 1.356 . S
N574 H580 0.984 . S
N574 H581 0.984 . S
N575 C568 1.356 . S
N575 H578 0.984 . S
N575 H579 0.985 . S
H576 N571 0.984 . S
H577 N571 0.985 . S
H578 N575 0.984 . S
H579 N575 0.985 . S
H580 N574 0.984 . S
H581 N574 0.984 . S
H582 N570 0.984 . S
H583 N570 0.985 . S
C584 C585 1.363 . S
C584 C590 1.379 . S
C584 N592 1.356 . S
C585 C584 1.363 . S
C585 C591 1.363 . S
C586 C587 1.363 . S
C586 C591 1.379 . S
C586 N593 1.356 . S
C587 C586 1.363 . S
C587 C590 1.363 . S
N588 C590 1.356 . S
N588 H600 0.984 . S
N588 H601 0.985 . S
N589 C591 1.356 . S
N589 H594 0.984 . S
N589 H595 0.985 . S
C590 C584 1.379 . S
C590 C587 1.363 . S
C590 N588 1.356 . S
C591 C585 1.363 . S
C591 C586 1.379 . S
C591 N589 1.356 . S
N592 C584 1.356 . S
N592 H598 0.984 . S
N592 H599 0.984 . S
N593 C586 1.356 . S
N593 H596 0.984 . S
N593 H597 0.985 . S
H594 N589 0.984 . S
H595 N589 0.985 . S
H596 N593 0.984 . S
H597 N593 0.985 . S
H598 N592 0.984 . S
H599 N592 0.984 . S
H600 N588 0.984 . S
H601 N588 0.985 . S
C602 C603 1.363 . S
C602 C608 1.379 . S
C602 N610 1.356 . S
C603 C602 1.363 . S
C603 C609 1.363 . S
C604 C605 1.363 . S
C604 C609 1.379 . S
C604 N611 1.356 . S
C605 C604 1.363 . S
C605 C608 1.363 . S
N606 C608 1.356 . S
N606 H618 0.984 . S
N606 H619 0.985 . S
N607 C609 1.356 . S
N607 H612 0.984 . S
N607 H613 0.985 . S
C608 C602 1.379 . S
C608 C605 1.363 . S
C608 N606 1.356 . S
C609 C603 1.363 . S
C609 C604 1.379 . S
C609 N607 1.356 . S
N610 C602 1.356 . S
N610 H616 0.984 . S
N610 H617 0.984 . S
N611 C604 1.356 . S
N611 H614 0.984 . S
N611 H615 0.985 . S
H612 N607 0.984 . S
H613 N607 0.985 . S
H614 N611 0.984 . S
H615 N611 0.985 . S
H616 N610 0.984 . S
H617 N610 0.984 . S
H618 N606 0.984 . S
H619 N606 0.985 . S
C620 C621 1.363 . S
C620 C626 1.379 . S
C620 N628 1.356 . S
C621 C620 1.363 . S
C621 C627 1.363 . S
C622 C623 1.363 . S
C622 C627 1.379 . S
C622 N629 1.356 . S
C623 C622 1.363 . S
C623 C626 1.363 . S
N624 C626 1.356 . S
N624 H636 0.984 . S
N624 H637 0.985 . S
N625 C627 1.356 . S
N625 H630 0.984 . S
N625 H631 0.985 . S
C626 C620 1.379 . S
C626 C623 1.363 . S
C626 N624 1.356 . S
C627 C621 1.363 . S
C627 C622 1.379 . S
C627 N625 1.356 . S
N628 C620 1.356 . S
N628 H634 0.984 . S
N628 H635 0.984 . S
N629 C622 1.356 . S
N629 H632 0.984 . S
N629 H633 0.985 . S
H630 N625 0.984 . S
H631 N625 0.985 . S
H632 N629 0.984 . S
H633 N629 0.985 . S
H634 N628 0.984 . S
H635 N628 0.984 . S
H636 N624 0.984 . S
H637 N624 0.985 . S
C638 C639 1.363 . S
C638 C644 1.379 . S
C638 N646 1.356 . S
C639 C638 1.363 . S
C639 C645 1.363 . S
C640 C641 1.363 . S
C640 C645 1.379 . S
C640 N647 1.356 . S
C641 C640 1.363 . S
C641 C644 1.363 . S
N642 C644 1.356 . S
N642 H654 0.984 . S
N642 H655 0.985 . S
N643 C645 1.356 1_565 S
N643 H648 0.984 . S
N643 H649 0.985 . S
C644 C638 1.379 . S
C644 C641 1.363 . S
C644 N642 1.356 . S
C645 C639 1.363 . S
C645 C640 1.379 . S
C645 N643 1.356 1_545 S
N646 C638 1.356 . S
N646 H652 0.984 . S
N646 H653 0.984 . S
N647 C640 1.356 . S
N647 H650 0.984 . S
N647 H651 0.985 . S
H648 N643 0.984 . S
H649 N643 0.985 . S
H650 N647 0.984 . S
H651 N647 0.985 . S
H652 N646 0.984 . S
H653 N646 0.984 . S
H654 N642 0.984 . S
H655 N642 0.985 . S
C656 C657 1.363 . S
C656 C662 1.379 . S
C656 N664 1.356 . S
C657 C656 1.363 . S
C657 C663 1.363 . S
C658 C659 1.363 . S
C658 C663 1.379 . S
C658 N665 1.356 . S
C659 C658 1.363 . S
C659 C662 1.363 . S
N660 C662 1.356 . S
N660 H672 0.984 1_565 S
N660 H673 0.985 1_565 S
N661 C663 1.356 . S
N661 H666 0.984 . S
N661 H667 0.985 . S
C662 C656 1.379 . S
C662 C659 1.363 . S
C662 N660 1.356 . S
C663 C657 1.363 . S
C663 C658 1.379 . S
C663 N661 1.356 . S
N664 C656 1.356 . S
N664 H670 0.984 . S
N664 H671 0.984 . S
N665 C658 1.356 . S
N665 H668 0.984 . S
N665 H669 0.985 . S
H666 N661 0.984 . S
H667 N661 0.985 . S
H668 N665 0.984 . S
H669 N665 0.985 . S
H670 N664 0.984 . S
H671 N664 0.984 . S
H672 N660 0.984 1_545 S
H673 N660 0.985 1_545 S
C674 C675 1.363 . S
C674 C680 1.379 . S
C674 N682 1.356 . S
C675 C674 1.363 . S
C675 C681 1.363 . S
C676 C677 1.363 . S
C676 C681 1.379 . S
C676 N683 1.356 . S
C677 C676 1.363 . S
C677 C680 1.363 . S
N678 C680 1.356 . S
N678 H690 0.984 . S
N678 H691 0.985 . S
N679 C681 1.356 . S
N679 H684 0.984 . S
N679 H685 0.985 . S
C680 C674 1.379 . S
C680 C677 1.363 . S
C680 N678 1.356 . S
C681 C675 1.363 . S
C681 C676 1.379 . S
C681 N679 1.356 . S
N682 C674 1.356 . S
N682 H688 0.984 . S
N682 H689 0.984 . S
N683 C676 1.356 . S
N683 H686 0.984 . S
N683 H687 0.985 . S
H684 N679 0.984 . S
H685 N679 0.985 . S
H686 N683 0.984 . S
H687 N683 0.985 . S
H688 N682 0.984 . S
H689 N682 0.984 . S
H690 N678 0.984 . S
H691 N678 0.985 . S
C692 C693 1.363 . S
C692 C698 1.379 . S
C692 N700 1.356 . S
C693 C692 1.363 . S
C693 C699 1.363 . S
C694 C695 1.363 . S
C694 C699 1.379 . S
C694 N701 1.356 . S
C695 C694 1.363 . S
C695 C698 1.363 . S
N696 C698 1.356 . S
N696 H708 0.984 . S
N696 H709 0.985 . S
N697 C699 1.356 . S
N697 H702 0.984 . S
N697 H703 0.985 . S
C698 C692 1.379 . S
C698 C695 1.363 . S
C698 N696 1.356 . S
C699 C693 1.363 . S
C699 C694 1.379 . S
C699 N697 1.356 . S
N700 C692 1.356 . S
N700 H706 0.984 . S
N700 H707 0.984 . S
N701 C694 1.356 . S
N701 H704 0.984 . S
N701 H705 0.985 . S
H702 N697 0.984 . S
H703 N697 0.985 . S
H704 N701 0.984 . S
H705 N701 0.985 . S
H706 N700 0.984 . S
H707 N700 0.984 . S
H708 N696 0.984 . S
H709 N696 0.985 . S
C710 C711 1.363 . S
C710 C716 1.379 . S
C710 N718 1.356 . S
C711 C710 1.363 . S
C711 C717 1.363 . S
C712 C713 1.363 . S
C712 C717 1.379 . S
C712 N719 1.356 . S
C713 C712 1.363 . S
C713 C716 1.363 . S
N714 C716 1.356 . S
N714 H726 0.984 . S
N714 H727 0.985 . S
N715 C717 1.356 . S
N715 H720 0.984 . S
N715 H721 0.985 . S
C716 C710 1.379 . S
C716 C713 1.363 . S
C716 N714 1.356 . S
C717 C711 1.363 . S
C717 C712 1.379 . S
C717 N715 1.356 . S
N718 C710 1.356 . S
N718 H724 0.984 . S
N718 H725 0.984 . S
N719 C712 1.356 . S
N719 H722 0.984 1_565 S
N719 H723 0.985 1_565 S
H720 N715 0.984 . S
H721 N715 0.985 . S
H722 N719 0.984 1_545 S
H723 N719 0.985 1_545 S
H724 N718 0.984 . S
H725 N718 0.984 . S
H726 N714 0.984 . S
H727 N714 0.985 . S
C728 C729 1.363 . S
C728 C734 1.379 . S
C728 N736 1.356 . S
C729 C728 1.363 . S
C729 C735 1.363 . S
C730 C731 1.363 . S
C730 C735 1.379 . S
C730 N737 1.356 . S
C731 C730 1.363 . S
C731 C734 1.363 . S
N732 C734 1.356 . S
N732 H744 0.984 . S
N732 H745 0.985 . S
N733 C735 1.356 . S
N733 H738 0.984 . S
N733 H739 0.985 . S
C734 C728 1.379 . S
C734 C731 1.363 . S
C734 N732 1.356 . S
C735 C729 1.363 . S
C735 C730 1.379 . S
C735 N733 1.356 . S
N736 C728 1.356 . S
N736 H742 0.984 . S
N736 H743 0.984 . S
N737 C730 1.356 . S
N737 H740 0.984 . S
N737 H741 0.985 . S
H738 N733 0.984 . S
H739 N733 0.985 . S
H740 N737 0.984 . S
H741 N737 0.985 . S
H742 N736 0.984 . S
H743 N736 0.984 . S
H744 N732 0.984 . S
H745 N732 0.985 . S
C746 C747 1.363 . S
C746 C752 1.379 . S
C746 N754 1.356 . S
C747 C746 1.363 . S
C747 C753 1.363 . S
C748 C749 1.363 . S
C748 C753 1.379 . S
C748 N755 1.356 . S
C749 C748 1.363 . S
C749 C752 1.363 . S
N750 C752 1.356 . S
N750 H762 0.984 . S
N750 H763 0.985 . S
N751 C753 1.356 . S
N751 H756 0.984 . S
N751 H757 0.985 . S
C752 C746 1.379 . S
C752 C749 1.363 . S
C752 N750 1.356 . S
C753 C747 1.363 . S
C753 C748 1.379 . S
C753 N751 1.356 . S
N754 C746 1.356 . S
N754 H760 0.984 . S
N754 H761 0.984 . S
N755 C748 1.356 . S
N755 H758 0.984 . S
N755 H759 0.985 . S
H756 N751 0.984 . S
H757 N751 0.985 . S
H758 N755 0.984 . S
H759 N755 0.985 . S
H760 N754 0.984 . S
H761 N754 0.984 . S
H762 N750 0.984 . S
H763 N750 0.985 . S
C764 C765 1.363 . S
C764 C770 1.379 . S
C764 N772 1.356 . S
C765 C764 1.363 . S
C765 C771 1.363 . S
C766 C767 1.363 . S
C766 C771 1.379 . S
C766 N773 1.356 . S
C767 C766 1.363 . S
C767 C770 1.363 . S
N768 C770 1.356 . S
N768 H780 0.984 . S
N768 H781 0.985 . S
N769 C771 1.356 . S
N769 H774 0.984 . S
N769 H775 0.985 . S
C770 C764 1.379 . S
C770 C767 1.363 . S
C770 N768 1.356 . S
C771 C765 1.363 . S
C771 C766 1.379 . S
C771 N769 1.356 . S
N772 C764 1.356 . S
N772 H778 0.984 . S
N772 H779 0.984 . S
N773 C766 1.356 . S
N773 H776 0.984 . S
N773 H777 0.985 . S
H774 N769 0.984 . S
H775 N769 0.985 . S
H776 N773 0.984 . S
H777 N773 0.985 . S
H778 N772 0.984 . S
H779 N772 0.984 . S
H780 N768 0.984 . S
H781 N768 0.985 . S
C782 C783 1.363 . S
C782 C788 1.379 . S
C782 N790 1.356 . S
C783 C782 1.363 . S
C783 C789 1.363 . S
C784 C785 1.363 . S
C784 C789 1.379 . S
C784 N791 1.356 . S
C785 C784 1.363 . S
C785 C788 1.363 . S
N786 C788 1.356 . S
N786 H798 0.984 1_545 S
N786 H799 0.985 1_545 S
N787 C789 1.356 . S
N787 H792 0.984 . S
N787 H793 0.985 . S
C788 C782 1.379 . S
C788 C785 1.363 . S
C788 N786 1.356 . S
C789 C783 1.363 . S
C789 C784 1.379 . S
C789 N787 1.356 . S
N790 C782 1.356 . S
N790 H796 0.984 . S
N790 H797 0.984 . S
N791 C784 1.356 . S
N791 H794 0.984 . S
N791 H795 0.985 . S
H792 N787 0.984 . S
H793 N787 0.985 . S
H794 N791 0.984 . S
H795 N791 0.985 . S
H796 N790 0.984 . S
H797 N790 0.984 . S
H798 N786 0.984 1_565 S
H799 N786 0.985 1_565 S
C225 C203 1.529 . S
C227 C7 1.529 . S
C243 C39 1.519 . S
C245 C11 1.519 . S
C261 C165 1.519 . S
C263 C25 1.519 . S
C279 C21 1.529 . S
C281 C105 1.529 . S
C297 C35 1.529 . S
C299 C175 1.529 . S
C315 C137 1.519 . S
C317 C53 1.519 . S
C333 C49 1.529 . S
C335 C77 1.529 . S
C351 C147 1.529 . S
C353 C63 1.529 . S
C369 C67 1.519 . S
C371 C95 1.519 . S
C387 C221 1.519 . S
C389 C81 1.519 . S
C405 C119 1.529 . S
C407 C91 1.529 . S
C423 C193 1.519 . S
C425 C109 1.519 . S
C441 C123 1.519 . S
C443 C151 1.519 . S
C459 C217 1.529 . S
C461 C133 1.529 . S
C477 C161 1.529 . S
C479 C189 1.529 . S
C495 C207 1.519 . S
C497 C179 1.519 . S
C513 C78 1.251 . S
C515 C13 1.233 . S
C531 C8 1.251 . S
C533 C83 1.233 . S
C549 C22 1.251 . S
C551 C69 1.233 . S
C567 C64 1.251 . S
C569 C27 1.233 . S
C585 C106 1.251 . S
C587 C41 1.233 . S
C603 C111 1.233 . S
C605 C36 1.251 . S
C621 C97 1.233 . S
C623 C50 1.251 . S
C639 C55 1.233 . S
C641 C92 1.251 . S
C657 C190 1.251 . S
C659 C125 1.234 . S
C675 C120 1.251 . S
C677 C195 1.234 . S
C693 C134 1.251 . S
C695 C181 1.233 . S
C711 C176 1.251 . S
C713 C139 1.233 . S
C729 C218 1.251 . S
C731 C153 1.233 . S
C747 C223 1.233 . S
C749 C148 1.251 . S
C765 C162 1.251 . S
C767 C209 1.233 . S
C783 C204 1.251 . S
C785 C167 1.233 . S
