# Generated by pormake.
# Topology bcu, (8)-cn, num edge types: 1
# Building blocks:
#     Node 0, Type 0, BuildingBlock: LIZSOE_clean_sbu_0, # of connection points: 8
#     Node 1, Type 0, BuildingBlock: LIZSOE_clean_sbu_0, # of connection points: 8
#     Edge 2, Type (0, 0), BuildingBlock: FUNLAD_clean_linker_0, # of connection points: 2
#     Edge 3, Type (0, 0), BuildingBlock: FUNLAD_clean_linker_0, # of connection points: 2
#     Edge 4, Type (0, 0), BuildingBlock: FUNLAD_clean_linker_0, # of connection points: 2
#     Edge 5, Type (0, 0), BuildingBlock: FUNLAD_clean_linker_0, # of connection points: 2
#     Edge 6, Type (0, 0), BuildingBlock: FUNLAD_clean_linker_0, # of connection points: 2
#     Edge 7, Type (0, 0), BuildingBlock: FUNLAD_clean_linker_0, # of connection points: 2
#     Edge 8, Type (0, 0), BuildingBlock: FUNLAD_clean_linker_0, # of connection points: 2
#     Edge 9, Type (0, 0), BuildingBlock: FUNLAD_clean_linker_0, # of connection points: 2
# Relax obj value: 0.006
# Max RMSD: 0.041
# Mean RMSD: 0.041
data_MOF--net-bcu--node1-LIZSOE_clean_sbu_0--edge1-FUNLAD_clean_linker_0
_symmetry_space_group_name_H-M    P1
_symmetry_Int_Tables_number       1
_symmetry_cell_setting            triclinic
loop_
_symmetry_equiv_pos_as_xyz
'x, y, z'
_cell_length_a     23.259126
_cell_length_b     23.012924
_cell_length_c     23.627495
_cell_angle_alpha  112.9223
_cell_angle_beta   67.940116
_cell_angle_gamma 109.01502
loop_
_atom_site_label
_atom_site_type_symbol
_atom_site_fract_x
_atom_site_fract_y
_atom_site_fract_z
_atom_type_partial_charge
Co0 Co 0.08033 0.92836 0.04797 0.0
N1 N 0.08901 0.90575 0.1106 0.0
C2 C 0.05735 0.92297 0.17355 0.0
N3 N 0.12087 0.86316 0.16143 0.0
C4 C 0.12711 0.86883 0.10432 0.0
C5 C 0.07723 0.89736 0.20489 0.0
Co6 Co 0.96678 0.08357 0.94418 0.0
N7 N 0.95786 0.10666 0.8822 0.0
N8 N 0.91428 0.13843 0.83227 0.0
C9 C 0.96944 0.12255 0.79141 0.0
C10 C 0.99582 0.10241 0.82187 0.0
C11 C 0.90834 0.1283 0.8871 0.0
Co12 Co 1.02702 1.00925 0.99673 0.0
C13 C 0.97738 0.13078 0.03297 0.0
H14 H 0.03935 0.0848 0.80077 0.0
O15 O 0.07874 0.94816 0.98456 0.0
O16 O 0.10177 0.04726 0.93392 0.0
O17 O 0.06169 0.07697 0.0675 0.0
O18 O 0.95213 0.97051 0.06005 0.0
O19 O 0.99368 0.90834 0.08067 0.0
O20 O 0.05378 0.09538 0.90479 0.0
O21 O 0.9732 0.0682 0.00808 0.0
O22 O 0.95463 0.99828 0.89399 0.0
O23 O 0.08446 1.01364 0.10335 0.0
O24 O 0.16239 0.94986 0.01109 0.0
O25 O 0.99181 0.94115 0.92544 0.0
O26 O 0.97936 0.16272 0.99705 0.0
C27 C 0.07993 0.06871 0.10788 0.0
C28 C 0.85422 0.14003 0.94705 0.0
H29 H 0.86793 0.14593 0.98942 0.0
H30 H 0.83789 0.18339 0.95445 0.0
H31 H 0.81415 0.09775 0.94249 0.0
C32 C 0.10308 0.08118 0.90165 0.0
C33 C 0.94681 0.92817 0.08544 0.0
H34 H 1.02246 0.95286 0.19535 0.0
H35 H 0.15525 0.83156 0.00128 0.0
H36 H 0.1873 0.79991 0.03908 0.0
H37 H 0.2184 0.88106 0.03652 0.0
C38 C 0.17435 0.84323 0.0419 0.0
C39 C 0.14019 0.95423 0.97023 0.0
C40 C 0.96479 0.94549 0.88931 0.0
H41 H 0.06138 0.90381 0.25589 0.0
H42 H 0.98866 0.1243 0.74252 0.0
Co43 Co 0.57861 0.42954 0.55024 0.0
N44 N 0.58925 0.40933 0.61309 0.0
C45 C 0.56313 0.43135 0.67699 0.0
N46 N 0.62228 0.36594 0.66213 0.0
C47 C 0.62439 0.36894 0.60532 0.0
C48 C 0.58343 0.40478 0.70723 0.0
Co49 Co 0.46582 0.58576 0.44658 0.0
N50 N 0.45539 0.60809 0.38484 0.0
N51 N 0.41318 0.642 0.33525 0.0
C52 C 0.46255 0.61598 0.29176 0.0
C53 C 0.488 0.59473 0.3221 0.0
C54 C 0.40984 0.63653 0.39157 0.0
Co55 Co 0.52561 0.51022 0.49805 0.0
C56 C 0.48122 0.63403 0.53326 0.0
H57 H 0.52689 0.56978 0.29941 0.0
O58 O 0.57522 0.4472 0.48615 0.0
O59 O 0.5998 0.54479 0.43241 0.0
O60 O 0.56385 0.57849 0.56613 0.0
O61 O 0.4512 0.47515 0.56422 0.0
O62 O 0.49254 0.41528 0.58806 0.0
O63 O 0.55209 0.59344 0.40349 0.0
O64 O 0.47388 0.57112 0.50983 0.0
O65 O 0.44914 0.49979 0.39903 0.0
O66 O 0.58862 0.51627 0.60165 0.0
O67 O 0.66004 0.44514 0.50861 0.0
O68 O 0.48673 0.44192 0.42932 0.0
O69 O 0.48325 0.6657 0.49711 0.0
C70 C 0.58461 0.57115 0.60519 0.0
C71 C 0.36191 0.65886 0.45457 0.0
H72 H 0.37866 0.66637 0.49544 0.0
H73 H 0.35098 0.70425 0.45916 0.0
H74 H 0.31763 0.62113 0.45739 0.0
C75 C 0.60104 0.57772 0.39918 0.0
C76 C 0.44603 0.4357 0.59289 0.0
H77 H 0.5315 0.46474 0.70007 0.0
H78 H 0.65975 0.28264 0.54307 0.0
H79 H 0.70672 0.35604 0.52469 0.0
H80 H 0.63275 0.31973 0.50513 0.0
C81 C 0.65757 0.32912 0.5408 0.0
C82 C 0.63651 0.45085 0.46949 0.0
C83 C 0.45812 0.44653 0.39468 0.0
H84 H 0.57178 0.41432 0.75847 0.0
H85 H 0.47826 0.61136 0.24116 0.0
C86 C 0.15414 0.17495 0.13565 0.0
C87 C 0.10789 0.12389 0.15498 0.0
C88 C 0.19496 0.21602 0.17302 0.0
C89 C 0.18961 0.207 0.23065 0.0
C90 C 0.13961 0.15965 0.25247 0.0
C91 C 0.09973 0.11799 0.21468 0.0
C92 C 0.2359 0.2448 0.26844 0.0
C93 C 0.29799 0.26551 0.24112 0.0
C94 C 0.34484 0.30399 0.27819 0.0
C95 C 0.39699 0.34754 0.25267 0.0
C96 C 0.438 0.39018 0.28879 0.0
C97 C 0.42885 0.38904 0.35061 0.0
H98 H 0.29983 0.26523 0.35873 0.0
C99 C 0.38009 0.3419 0.37425 0.0
C100 C 0.3382 0.29973 0.33841 0.0
H101 H 0.37147 0.34082 0.42224 0.0
H102 H 0.16189 0.18011 0.08952 0.0
H103 H 0.23164 0.25356 0.15584 0.0
H104 H 0.13369 0.15233 0.29712 0.0
H105 H 0.06465 0.07877 0.23051 0.0
H106 H 0.21848 0.25322 0.31993 0.0
H107 H 0.31504 0.25655 0.18952 0.0
H108 H 0.40389 0.35132 0.20615 0.0
H109 H 0.47474 0.42677 0.26994 0.0
C110 C 0.9713 0.22899 0.12674 0.0
C111 C 0.95226 0.16164 0.10249 0.0
C112 C 0.92982 0.26531 0.17816 0.0
C113 C 0.86824 0.23487 0.20653 0.0
C114 C 0.85289 0.16695 0.18811 0.0
C115 C 0.89451 0.13057 0.13654 0.0
C116 C 0.81792 0.27172 0.25243 0.0
C117 C 0.81878 0.33237 0.25656 0.0
C118 C 0.76735 0.36743 0.30193 0.0
C119 C 0.78334 0.43348 0.3343 0.0
C120 C 0.73736 0.46516 0.38454 0.0
C121 C 0.67417 0.43189 0.40183 0.0
H122 H 0.68887 0.2855 0.2895 0.0
C123 C 0.65679 0.36811 0.36415 0.0
C124 C 0.70306 0.33587 0.31508 0.0
H125 H 0.60872 0.34081 0.3773 0.0
H126 H 1.01568 0.25424 0.10154 0.0
H127 H 0.94518 0.31726 0.19301 0.0
H128 H 0.80649 0.14195 0.21017 0.0
H129 H 0.87812 0.07883 0.11882 0.0
H130 H 0.77704 0.24665 0.28195 0.0
H131 H 0.85929 0.35873 0.22815 0.0
H132 H 0.83236 0.45928 0.32429 0.0
H133 H 0.7523 0.51382 0.41369 0.0
C134 C 0.86049 0.83349 0.09654 0.0
C135 C 0.88543 0.8991 0.12276 0.0
C136 C 0.82034 0.79585 0.13639 0.0
C137 C 0.80489 0.82313 0.2035 0.0
C138 C 0.825 0.89012 0.22932 0.0
C139 C 0.86551 0.92771 0.18933 0.0
C140 C 0.77033 0.78307 0.24778 0.0
C141 C 0.77267 0.72049 0.23174 0.0
C142 C 0.73846 0.68079 0.27628 0.0
C143 C 0.71524 0.61436 0.25111 0.0
C144 C 0.67579 0.57739 0.29198 0.0
C145 C 0.66049 0.60587 0.35869 0.0
H146 H 0.74587 0.75843 0.36425 0.0
C147 C 0.68824 0.67079 0.38389 0.0
C148 C 0.72697 0.70797 0.34314 0.0
H149 H 0.67573 0.69416 0.43525 0.0
H150 H 0.87632 0.81009 0.04537 0.0
H151 H 0.80376 0.745 0.11443 0.0
H152 H 0.81308 0.91265 0.28079 0.0
H153 H 0.88567 0.97774 0.21078 0.0
H154 H 0.74426 0.80698 0.29602 0.0
H155 H 0.79857 0.69629 0.18357 0.0
H156 H 0.72404 0.59197 0.19978 0.0
H157 H 0.65331 0.52798 0.27152 0.0
C158 C 0.18585 0.86872 0.22527 0.0
C159 C 0.15665 0.83341 0.17614 0.0
C160 C 0.22054 0.84037 0.24035 0.0
C161 C 0.22689 0.77635 0.20603 0.0
C162 C 0.19738 0.74084 0.15723 0.0
C163 C 0.16117 0.76872 0.14343 0.0
C164 C 0.2654 0.74667 0.21982 0.0
C165 C 0.26024 0.75228 0.28011 0.0
C166 C 0.29965 0.72356 0.29376 0.0
C167 C 0.27138 0.68733 0.33673 0.0
C168 C 0.30824 0.65943 0.34965 0.0
C169 C 0.37437 0.66991 0.32204 0.0
H170 H 0.38823 0.76134 0.23197 0.0
C171 C 0.40247 0.70657 0.27919 0.0
C172 C 0.36541 0.73285 0.26481 0.0
H173 H 0.45328 0.71529 0.2572 0.0
H174 H 0.18231 0.9185 0.25141 0.0
H175 H 0.24348 0.86884 0.27783 0.0
H176 H 0.20133 0.69118 0.13074 0.0
H177 H 0.13636 0.73973 0.10759 0.0
H178 H 0.29652 0.71736 0.17966 0.0
H179 H 0.22434 0.77572 0.31999 0.0
H180 H 0.22056 0.67922 0.35898 0.0
H181 H 0.2847 0.62882 0.38022 0.0
C182 C 0.24642 0.95468 0.89105 0.0
C183 C 0.18011 0.93602 0.90298 0.0
C184 C 0.28611 0.91629 0.8397 0.0
C185 C 0.26018 0.85821 0.79904 0.0
C186 C 0.19475 0.84452 0.80594 0.0
C187 C 0.155 0.88307 0.85739 0.0
C188 C 0.29851 0.80919 0.75164 0.0
C189 C 0.355 0.80648 0.75364 0.0
C190 C 0.3908 0.75585 0.70623 0.0
C191 C 0.45683 0.77314 0.68084 0.0
C192 C 0.48997 0.72904 0.62869 0.0
C193 C 0.45795 0.66627 0.60244 0.0
H194 H 0.30943 0.67591 0.70424 0.0
C195 C 0.3935 0.64664 0.63322 0.0
C196 C 0.35998 0.69124 0.68418 0.0
H197 H 0.36729 0.59898 0.61323 0.0
H198 H 0.26716 0.99547 0.92528 0.0
H199 H 0.33651 0.93085 0.83437 0.0
H200 H 0.17347 0.80108 0.7744 0.0
H201 H 0.10413 0.86702 0.86534 0.0
H202 H 0.27783 0.77186 0.71503 0.0
H203 H 0.37752 0.84349 0.7888 0.0
H204 H 0.48193 0.82232 0.6978 0.0
H205 H 0.53929 0.7458 0.60508 0.0
C206 C 0.35475 0.34582 0.60731 0.0
C207 C 0.38496 0.40959 0.63298 0.0
C208 C 0.31521 0.30831 0.64752 0.0
C209 C 0.30551 0.33396 0.71428 0.0
C210 C 0.33077 0.39967 0.74015 0.0
C211 C 0.37084 0.43698 0.6998 0.0
C212 C 0.27184 0.29311 0.75779 0.0
C213 C 0.27294 0.2299 0.73948 0.0
C214 C 0.23958 0.18865 0.78264 0.0
C215 C 0.21672 0.12247 0.75591 0.0
C216 C 0.17784 0.084 0.79542 0.0
C217 C 0.16255 0.11068 0.86233 0.0
H218 H 0.24702 0.26416 0.87193 0.0
C219 C 0.18998 0.17529 0.88903 0.0
C220 C 0.22833 0.21399 0.84962 0.0
H221 H 0.17749 0.1973 0.9406 0.0
H222 H 0.36616 0.3232 0.55584 0.0
H223 H 0.2946 0.25857 0.62596 0.0
H224 H 0.32337 0.42093 0.79144 0.0
H225 H 0.39521 0.48537 0.72061 0.0
H226 H 0.24786 0.31681 0.80703 0.0
H227 H 0.29714 0.20642 0.69023 0.0
H228 H 0.22531 0.10145 0.70446 0.0
H229 H 0.15557 0.03486 0.77384 0.0
C230 C 0.89757 0.20988 0.788 0.0
C231 C 0.87249 0.16193 0.81856 0.0
C232 C 0.85786 0.23197 0.77271 0.0
C233 C 0.79222 0.20583 0.78714 0.0
C234 C 0.76706 0.15841 0.81844 0.0
C235 C 0.80697 0.13606 0.83338 0.0
C236 C 0.74894 0.22841 0.77155 0.0
C237 C 0.76722 0.24818 0.71958 0.0
C238 C 0.72727 0.27527 0.70398 0.0
C239 C 0.75717 0.3095 0.65904 0.0
C240 C 0.72256 0.33838 0.64449 0.0
C241 C 0.65717 0.33299 0.67411 0.0
H242 H 0.63573 0.24167 0.76637 0.0
C243 C 0.62678 0.29808 0.71827 0.0
C244 C 0.66129 0.26895 0.73281 0.0
H245 H 0.57624 0.29339 0.7414 0.0
H246 H 0.94796 0.23064 0.77656 0.0
H247 H 0.87863 0.27015 0.75055 0.0
H248 H 0.71662 0.13774 0.83019 0.0
H249 H 0.78682 0.09769 0.85522 0.0
H250 H 0.70124 0.22801 0.80374 0.0
H251 H 0.81488 0.24632 0.68743 0.0
H252 H 0.80784 0.31525 0.63612 0.0
H253 H 0.7472 0.36653 0.61152 0.0
C254 C 0.66332 0.67485 0.62796 0.0
C255 C 0.61456 0.62687 0.65023 0.0
C256 C 0.70523 0.71567 0.66421 0.0
C257 C 0.69844 0.70943 0.72358 0.0
C258 C 0.6462 0.66529 0.74802 0.0
C259 C 0.60521 0.62387 0.7114 0.0
C260 C 0.74529 0.7468 0.76075 0.0
C261 C 0.80777 0.76521 0.73304 0.0
C262 C 0.85455 0.80309 0.77023 0.0
C263 C 0.90679 0.84699 0.7454 0.0
C264 C 0.94719 0.88953 0.78227 0.0
C265 C 0.93729 0.88782 0.84406 0.0
H266 H 0.80889 0.76323 0.84997 0.0
C267 C 0.88868 0.84005 0.86679 0.0
C268 C 0.84738 0.79807 0.83026 0.0
H269 H 0.87948 0.83853 0.91474 0.0
H270 H 0.67194 0.67762 0.58062 0.0
H271 H 0.74371 0.75078 0.64489 0.0
H272 H 0.63916 0.66019 0.79401 0.0
H273 H 0.56812 0.58703 0.72946 0.0
H274 H 0.72783 0.75696 0.81248 0.0
H275 H 0.82517 0.755 0.6813 0.0
H276 H 0.91405 0.85127 0.699 0.0
H277 H 0.98383 0.92663 0.76414 0.0
loop_
_geom_bond_atom_site_label_1
_geom_bond_atom_site_label_2
_geom_bond_distance
_geom_bond_site_symmetry_2
_ccdc_geom_bond_type
Co0 N1 2.034 . S
Co0 O15 2.262 1_554 S
Co0 O19 1.958 1_455 S
Co0 O23 1.950 1_565 S
Co0 O24 2.057 1_554 S
N1 Co0 2.034 . S
N1 C2 1.366 . S
N1 C4 1.332 . S
C2 N1 1.366 . S
C2 C5 1.377 . S
C2 H34 0.939 . S
N3 C4 1.346 . S
N3 C5 1.337 . S
C4 N1 1.332 . S
C4 N3 1.346 . S
C4 C38 1.361 . S
C5 C2 1.377 . S
C5 N3 1.337 . S
C5 H41 0.930 . S
Co6 N7 2.034 . S
Co6 O20 1.950 1_655 S
Co6 O21 2.262 1_556 S
Co6 O22 1.958 1_545 S
Co6 O26 2.057 1_556 S
N7 Co6 2.034 . S
N7 C10 1.366 . S
N7 C11 1.332 . S
N8 C9 1.337 . S
N8 C11 1.346 . S
C9 N8 1.337 . S
C9 C10 1.377 . S
C9 H42 0.930 . S
C10 N7 1.366 . S
C10 C9 1.377 . S
C10 H14 0.939 . S
C11 N7 1.332 . S
C11 N8 1.346 . S
C11 C28 1.361 . S
Co12 O15 2.097 1_654 S
Co12 O16 2.065 1_664 S
Co12 O17 2.065 1_665 S
Co12 O18 2.042 . S
Co12 O21 2.097 1_565 S
Co12 O25 2.042 1_554 S
C13 O21 1.253 . S
C13 O26 1.263 . S
H14 C10 0.939 . S
O15 Co0 2.262 1_556 S
O15 Co12 2.097 1_456 S
O15 C39 1.253 . S
O16 Co12 2.065 1_446 S
O16 C32 1.221 . S
O17 Co12 2.065 1_445 S
O17 C27 1.221 . S
O18 Co12 2.042 . S
O18 C33 1.237 . S
O19 Co0 1.958 1_655 S
O19 C33 1.278 . S
O20 Co6 1.950 1_455 S
O20 C32 1.277 . S
O21 Co6 2.262 1_554 S
O21 Co12 2.097 1_545 S
O21 C13 1.253 . S
O22 Co6 1.958 1_565 S
O22 C40 1.278 . S
O23 Co0 1.950 1_545 S
O23 C27 1.277 . S
O24 Co0 2.057 1_556 S
O24 C39 1.263 . S
O25 Co12 2.042 1_556 S
O25 C40 1.237 . S
O26 Co6 2.057 1_554 S
O26 C13 1.263 . S
C27 O17 1.221 . S
C27 O23 1.277 . S
C28 C11 1.361 . S
C28 H29 0.960 . S
C28 H30 0.961 . S
C28 H31 0.961 . S
H29 C28 0.960 . S
H30 C28 0.961 . S
H31 C28 0.961 . S
C32 O16 1.221 . S
C32 O20 1.277 . S
C33 O18 1.237 . S
C33 O19 1.278 . S
H34 C2 0.939 . S
H35 C38 0.961 . S
H36 C38 0.961 . S
H37 C38 0.960 . S
C38 C4 1.361 . S
C38 H35 0.961 . S
C38 H36 0.961 . S
C38 H37 0.960 . S
C39 O15 1.253 . S
C39 O24 1.263 . S
C40 O22 1.278 . S
C40 O25 1.237 . S
H41 C5 0.930 . S
H42 C9 0.930 . S
Co43 N44 2.034 . S
Co43 O58 2.262 . S
Co43 O62 1.958 . S
Co43 O66 1.950 . S
Co43 O67 2.057 . S
N44 Co43 2.034 . S
N44 C45 1.366 . S
N44 C47 1.332 . S
C45 N44 1.366 . S
C45 C48 1.377 . S
C45 H77 0.931 . S
N46 C47 1.346 . S
N46 C48 1.337 . S
C47 N44 1.332 . S
C47 N46 1.346 . S
C47 C81 1.361 . S
C48 C45 1.377 . S
C48 N46 1.337 . S
C48 H84 0.930 . S
Co49 N50 2.034 . S
Co49 O63 1.950 . S
Co49 O64 2.262 . S
Co49 O65 1.958 . S
Co49 O69 2.057 . S
N50 Co49 2.034 . S
N50 C53 1.366 . S
N50 C54 1.332 . S
N51 C52 1.337 . S
N51 C54 1.346 . S
C52 N51 1.337 . S
C52 C53 1.377 . S
C52 H85 0.930 . S
C53 N50 1.366 . S
C53 C52 1.377 . S
C53 H57 0.931 . S
C54 N50 1.332 . S
C54 N51 1.346 . S
C54 C71 1.361 . S
Co55 O58 2.097 . S
Co55 O59 2.065 . S
Co55 O60 2.065 . S
Co55 O61 2.042 . S
Co55 O64 2.097 . S
Co55 O68 2.042 . S
C56 O64 1.253 . S
C56 O69 1.263 . S
H57 C53 0.931 . S
O58 Co43 2.262 . S
O58 Co55 2.097 . S
O58 C82 1.253 . S
O59 Co55 2.065 . S
O59 C75 1.221 . S
O60 Co55 2.065 . S
O60 C70 1.221 . S
O61 Co55 2.042 . S
O61 C76 1.237 . S
O62 Co43 1.958 . S
O62 C76 1.278 . S
O63 Co49 1.950 . S
O63 C75 1.277 . S
O64 Co49 2.262 . S
O64 Co55 2.097 . S
O64 C56 1.253 . S
O65 Co49 1.958 . S
O65 C83 1.278 . S
O66 Co43 1.950 . S
O66 C70 1.277 . S
O67 Co43 2.057 . S
O67 C82 1.263 . S
O68 Co55 2.042 . S
O68 C83 1.237 . S
O69 Co49 2.057 . S
O69 C56 1.263 . S
C70 O60 1.221 . S
C70 O66 1.277 . S
C71 C54 1.361 . S
C71 H72 0.960 . S
C71 H73 0.961 . S
C71 H74 0.961 . S
H72 C71 0.960 . S
H73 C71 0.961 . S
H74 C71 0.961 . S
C75 O59 1.221 . S
C75 O63 1.277 . S
C76 O61 1.237 . S
C76 O62 1.278 . S
H77 C45 0.931 . S
H78 C81 0.961 . S
H79 C81 0.961 . S
H80 C81 0.960 . S
C81 C47 1.361 . S
C81 H78 0.961 . S
C81 H79 0.961 . S
C81 H80 0.960 . S
C82 O58 1.253 . S
C82 O67 1.263 . S
C83 O65 1.278 . S
C83 O68 1.237 . S
H84 C48 0.930 . S
H85 C52 0.930 . S
C86 C87 1.386 . S
C86 C88 1.383 . S
C86 H102 0.951 . S
C87 C86 1.386 . S
C87 C91 1.383 . S
C88 C86 1.383 . S
C88 C89 1.402 . S
C88 H103 0.951 . S
C89 C88 1.402 . S
C89 C90 1.375 . S
C89 C92 1.481 . S
C90 C89 1.375 . S
C90 C91 1.367 . S
C90 H104 0.951 . S
C91 C87 1.383 . S
C91 C90 1.367 . S
C91 H105 0.950 . S
C92 C89 1.481 . S
C92 C93 1.297 . S
C92 H106 0.950 . S
C93 C92 1.297 . S
C93 C94 1.479 . S
C93 H107 0.950 . S
C94 C93 1.479 . S
C94 C95 1.375 . S
C94 C100 1.404 . S
C95 C94 1.375 . S
C95 C96 1.369 . S
C95 H108 0.950 . S
C96 C95 1.369 . S
C96 C97 1.392 . S
C96 H109 0.951 . S
C97 C96 1.392 . S
C97 C99 1.384 . S
H98 C100 0.949 . S
C99 C97 1.384 . S
C99 C100 1.385 . S
C99 H101 0.950 . S
C100 C94 1.404 . S
C100 H98 0.949 . S
C100 C99 1.385 . S
H101 C99 0.950 . S
H102 C86 0.951 . S
H103 C88 0.951 . S
H104 C90 0.951 . S
H105 C91 0.950 . S
H106 C92 0.950 . S
H107 C93 0.950 . S
H108 C95 0.950 . S
H109 C96 0.951 . S
C110 C111 1.386 . S
C110 C112 1.383 . S
C110 H126 0.951 . S
C111 C110 1.386 . S
C111 C115 1.383 . S
C112 C110 1.383 . S
C112 C113 1.402 . S
C112 H127 0.951 . S
C113 C112 1.402 . S
C113 C114 1.375 . S
C113 C116 1.481 . S
C114 C113 1.375 . S
C114 C115 1.367 . S
C114 H128 0.951 . S
C115 C111 1.383 . S
C115 C114 1.367 . S
C115 H129 0.950 . S
C116 C113 1.481 . S
C116 C117 1.297 . S
C116 H130 0.950 . S
C117 C116 1.297 . S
C117 C118 1.479 . S
C117 H131 0.950 . S
C118 C117 1.479 . S
C118 C119 1.375 . S
C118 C124 1.404 . S
C119 C118 1.375 . S
C119 C120 1.369 . S
C119 H132 0.950 . S
C120 C119 1.369 . S
C120 C121 1.392 . S
C120 H133 0.951 . S
C121 C120 1.392 . S
C121 C123 1.384 . S
H122 C124 0.949 . S
C123 C121 1.384 . S
C123 C124 1.385 . S
C123 H125 0.950 . S
C124 C118 1.404 . S
C124 H122 0.949 . S
C124 C123 1.385 . S
H125 C123 0.950 . S
H126 C110 0.951 . S
H127 C112 0.951 . S
H128 C114 0.951 . S
H129 C115 0.950 . S
H130 C116 0.950 . S
H131 C117 0.950 . S
H132 C119 0.950 . S
H133 C120 0.951 . S
C134 C135 1.386 . S
C134 C136 1.383 . S
C134 H150 0.951 . S
C135 C134 1.386 . S
C135 C139 1.383 . S
C136 C134 1.383 . S
C136 C137 1.402 . S
C136 H151 0.951 . S
C137 C136 1.402 . S
C137 C138 1.375 . S
C137 C140 1.481 . S
C138 C137 1.375 . S
C138 C139 1.367 . S
C138 H152 0.951 . S
C139 C135 1.383 . S
C139 C138 1.367 . S
C139 H153 0.950 . S
C140 C137 1.481 . S
C140 C141 1.297 . S
C140 H154 0.950 . S
C141 C140 1.297 . S
C141 C142 1.479 . S
C141 H155 0.950 . S
C142 C141 1.479 . S
C142 C143 1.375 . S
C142 C148 1.404 . S
C143 C142 1.375 . S
C143 C144 1.369 . S
C143 H156 0.950 . S
C144 C143 1.369 . S
C144 C145 1.392 . S
C144 H157 0.951 . S
C145 C144 1.392 . S
C145 C147 1.384 . S
H146 C148 0.949 . S
C147 C145 1.384 . S
C147 C148 1.385 . S
C147 H149 0.950 . S
C148 C142 1.404 . S
C148 H146 0.949 . S
C148 C147 1.385 . S
H149 C147 0.950 . S
H150 C134 0.951 . S
H151 C136 0.951 . S
H152 C138 0.951 . S
H153 C139 0.950 . S
H154 C140 0.950 . S
H155 C141 0.950 . S
H156 C143 0.950 . S
H157 C144 0.951 . S
C158 C159 1.386 . S
C158 C160 1.383 . S
C158 H174 0.951 . S
C159 C158 1.386 . S
C159 C163 1.383 . S
C160 C158 1.383 . S
C160 C161 1.402 . S
C160 H175 0.951 . S
C161 C160 1.402 . S
C161 C162 1.375 . S
C161 C164 1.481 . S
C162 C161 1.375 . S
C162 C163 1.367 . S
C162 H176 0.951 . S
C163 C159 1.383 . S
C163 C162 1.367 . S
C163 H177 0.950 . S
C164 C161 1.481 . S
C164 C165 1.297 . S
C164 H178 0.950 . S
C165 C164 1.297 . S
C165 C166 1.479 . S
C165 H179 0.950 . S
C166 C165 1.479 . S
C166 C167 1.375 . S
C166 C172 1.404 . S
C167 C166 1.375 . S
C167 C168 1.369 . S
C167 H180 0.950 . S
C168 C167 1.369 . S
C168 C169 1.392 . S
C168 H181 0.951 . S
C169 C168 1.392 . S
C169 C171 1.384 . S
H170 C172 0.949 . S
C171 C169 1.384 . S
C171 C172 1.385 . S
C171 H173 0.950 . S
C172 C166 1.404 . S
C172 H170 0.949 . S
C172 C171 1.385 . S
H173 C171 0.950 . S
H174 C158 0.951 . S
H175 C160 0.951 . S
H176 C162 0.951 . S
H177 C163 0.950 . S
H178 C164 0.950 . S
H179 C165 0.950 . S
H180 C167 0.950 . S
H181 C168 0.951 . S
C182 C183 1.386 . S
C182 C184 1.383 . S
C182 H198 0.951 . S
C183 C182 1.386 . S
C183 C187 1.383 . S
C184 C182 1.383 . S
C184 C185 1.402 . S
C184 H199 0.951 . S
C185 C184 1.402 . S
C185 C186 1.375 . S
C185 C188 1.481 . S
C186 C185 1.375 . S
C186 C187 1.367 . S
C186 H200 0.951 . S
C187 C183 1.383 . S
C187 C186 1.367 . S
C187 H201 0.950 . S
C188 C185 1.481 . S
C188 C189 1.297 . S
C188 H202 0.950 . S
C189 C188 1.297 . S
C189 C190 1.479 . S
C189 H203 0.950 . S
C190 C189 1.479 . S
C190 C191 1.375 . S
C190 C196 1.404 . S
C191 C190 1.375 . S
C191 C192 1.369 . S
C191 H204 0.950 . S
C192 C191 1.369 . S
C192 C193 1.392 . S
C192 H205 0.951 . S
C193 C192 1.392 . S
C193 C195 1.384 . S
H194 C196 0.949 . S
C195 C193 1.384 . S
C195 C196 1.385 . S
C195 H197 0.950 . S
C196 C190 1.404 . S
C196 H194 0.949 . S
C196 C195 1.385 . S
H197 C195 0.950 . S
H198 C182 0.951 . S
H199 C184 0.951 . S
H200 C186 0.951 . S
H201 C187 0.950 . S
H202 C188 0.950 . S
H203 C189 0.950 . S
H204 C191 0.950 . S
H205 C192 0.951 . S
C206 C207 1.386 . S
C206 C208 1.383 . S
C206 H222 0.951 . S
C207 C206 1.386 . S
C207 C211 1.383 . S
C208 C206 1.383 . S
C208 C209 1.402 . S
C208 H223 0.951 . S
C209 C208 1.402 . S
C209 C210 1.375 . S
C209 C212 1.481 . S
C210 C209 1.375 . S
C210 C211 1.367 . S
C210 H224 0.951 . S
C211 C207 1.383 . S
C211 C210 1.367 . S
C211 H225 0.950 . S
C212 C209 1.481 . S
C212 C213 1.297 . S
C212 H226 0.950 . S
C213 C212 1.297 . S
C213 C214 1.479 . S
C213 H227 0.950 . S
C214 C213 1.479 . S
C214 C215 1.375 . S
C214 C220 1.404 . S
C215 C214 1.375 . S
C215 C216 1.369 . S
C215 H228 0.950 . S
C216 C215 1.369 . S
C216 C217 1.392 . S
C216 H229 0.951 . S
C217 C216 1.392 . S
C217 C219 1.384 . S
H218 C220 0.949 . S
C219 C217 1.384 . S
C219 C220 1.385 . S
C219 H221 0.950 . S
C220 C214 1.404 . S
C220 H218 0.949 . S
C220 C219 1.385 . S
H221 C219 0.950 . S
H222 C206 0.951 . S
H223 C208 0.951 . S
H224 C210 0.951 . S
H225 C211 0.950 . S
H226 C212 0.950 . S
H227 C213 0.950 . S
H228 C215 0.950 . S
H229 C216 0.951 . S
C230 C231 1.386 . S
C230 C232 1.383 . S
C230 H246 0.951 . S
C231 C230 1.386 . S
C231 C235 1.383 . S
C232 C230 1.383 . S
C232 C233 1.402 . S
C232 H247 0.951 . S
C233 C232 1.402 . S
C233 C234 1.375 . S
C233 C236 1.481 . S
C234 C233 1.375 . S
C234 C235 1.367 . S
C234 H248 0.951 . S
C235 C231 1.383 . S
C235 C234 1.367 . S
C235 H249 0.950 . S
C236 C233 1.481 . S
C236 C237 1.297 . S
C236 H250 0.950 . S
C237 C236 1.297 . S
C237 C238 1.479 . S
C237 H251 0.950 . S
C238 C237 1.479 . S
C238 C239 1.375 . S
C238 C244 1.404 . S
C239 C238 1.375 . S
C239 C240 1.369 . S
C239 H252 0.950 . S
C240 C239 1.369 . S
C240 C241 1.392 . S
C240 H253 0.951 . S
C241 C240 1.392 . S
C241 C243 1.384 . S
H242 C244 0.949 . S
C243 C241 1.384 . S
C243 C244 1.385 . S
C243 H245 0.950 . S
C244 C238 1.404 . S
C244 H242 0.949 . S
C244 C243 1.385 . S
H245 C243 0.950 . S
H246 C230 0.951 . S
H247 C232 0.951 . S
H248 C234 0.951 . S
H249 C235 0.950 . S
H250 C236 0.950 . S
H251 C237 0.950 . S
H252 C239 0.950 . S
H253 C240 0.951 . S
C254 C255 1.386 . S
C254 C256 1.383 . S
C254 H270 0.951 . S
C255 C254 1.386 . S
C255 C259 1.383 . S
C256 C254 1.383 . S
C256 C257 1.402 . S
C256 H271 0.951 . S
C257 C256 1.402 . S
C257 C258 1.375 . S
C257 C260 1.481 . S
C258 C257 1.375 . S
C258 C259 1.367 . S
C258 H272 0.951 . S
C259 C255 1.383 . S
C259 C258 1.367 . S
C259 H273 0.950 . S
C260 C257 1.481 . S
C260 C261 1.297 . S
C260 H274 0.950 . S
C261 C260 1.297 . S
C261 C262 1.479 . S
C261 H275 0.950 . S
C262 C261 1.479 . S
C262 C263 1.375 . S
C262 C268 1.404 . S
C263 C262 1.375 . S
C263 C264 1.369 . S
C263 H276 0.950 . S
C264 C263 1.369 . S
C264 C265 1.392 . S
C264 H277 0.951 . S
C265 C264 1.392 . S
C265 C267 1.384 . S
H266 C268 0.949 . S
C267 C265 1.384 . S
C267 C268 1.385 . S
C267 H269 0.950 . S
C268 C262 1.404 . S
C268 H266 0.949 . S
C268 C267 1.385 . S
H269 C267 0.950 . S
H270 C254 0.951 . S
H271 C256 0.951 . S
H272 C258 0.951 . S
H273 C259 0.950 . S
H274 C260 0.950 . S
H275 C261 0.950 . S
H276 C263 0.950 . S
H277 C264 0.951 . S
C87 C27 1.270 . S
C97 C83 1.256 . S
C111 C13 1.309 . S
C121 C82 1.411 . S
C135 C33 1.288 . S
C145 C75 1.340 . S
C159 N3 1.662 . S
C169 N51 1.591 . S
C183 C39 1.318 . S
C193 C56 1.409 . S
C207 C76 1.258 . S
C217 C32 1.306 . S
C231 N8 1.618 . S
C241 N46 1.668 . S
C255 C70 1.283 . S
C265 C40 1.244 . S
