# Generated by pormake.
# Topology upd, (4)-cn, num edge types: 1
# Building blocks:
#     Node 0, Type 0, BuildingBlock: NAWXER_clean_sbu_0, # of connection points: 4
#     Node 1, Type 0, BuildingBlock: NAWXER_clean_sbu_0, # of connection points: 4
#     Node 2, Type 0, BuildingBlock: NAWXER_clean_sbu_0, # of connection points: 4
#     Node 3, Type 0, BuildingBlock: NAWXER_clean_sbu_0, # of connection points: 4
#     Node 4, Type 0, BuildingBlock: NAWXER_clean_sbu_0, # of connection points: 4
#     Node 5, Type 0, BuildingBlock: NAWXER_clean_sbu_0, # of connection points: 4
#     Node 6, Type 0, BuildingBlock: NAWXER_clean_sbu_0, # of connection points: 4
#     Node 7, Type 0, BuildingBlock: NAWXER_clean_sbu_0, # of connection points: 4
#     Node 8, Type 0, BuildingBlock: NAWXER_clean_sbu_0, # of connection points: 4
#     Node 9, Type 0, BuildingBlock: NAWXER_clean_sbu_0, # of connection points: 4
#     Node 10, Type 0, BuildingBlock: NAWXER_clean_sbu_0, # of connection points: 4
#     Node 11, Type 0, BuildingBlock: NAWXER_clean_sbu_0, # of connection points: 4
#     Node 12, Type 0, BuildingBlock: NAWXER_clean_sbu_0, # of connection points: 4
#     Node 13, Type 0, BuildingBlock: NAWXER_clean_sbu_0, # of connection points: 4
#     Node 14, Type 0, BuildingBlock: NAWXER_clean_sbu_0, # of connection points: 4
#     Node 15, Type 0, BuildingBlock: NAWXER_clean_sbu_0, # of connection points: 4
#     Node 16, Type 0, BuildingBlock: NAWXER_clean_sbu_0, # of connection points: 4
#     Node 17, Type 0, BuildingBlock: NAWXER_clean_sbu_0, # of connection points: 4
#     Node 18, Type 0, BuildingBlock: NAWXER_clean_sbu_0, # of connection points: 4
#     Node 19, Type 0, BuildingBlock: NAWXER_clean_sbu_0, # of connection points: 4
#     Node 20, Type 0, BuildingBlock: NAWXER_clean_sbu_0, # of connection points: 4
#     Node 21, Type 0, BuildingBlock: NAWXER_clean_sbu_0, # of connection points: 4
#     Node 22, Type 0, BuildingBlock: NAWXER_clean_sbu_0, # of connection points: 4
#     Node 23, Type 0, BuildingBlock: NAWXER_clean_sbu_0, # of connection points: 4
#     Node 24, Type 0, BuildingBlock: NAWXER_clean_sbu_0, # of connection points: 4
#     Node 25, Type 0, BuildingBlock: NAWXER_clean_sbu_0, # of connection points: 4
#     Node 26, Type 0, BuildingBlock: NAWXER_clean_sbu_0, # of connection points: 4
#     Node 27, Type 0, BuildingBlock: NAWXER_clean_sbu_0, # of connection points: 4
#     Node 28, Type 0, BuildingBlock: NAWXER_clean_sbu_0, # of connection points: 4
#     Node 29, Type 0, BuildingBlock: NAWXER_clean_sbu_0, # of connection points: 4
#     Node 30, Type 0, BuildingBlock: NAWXER_clean_sbu_0, # of connection points: 4
#     Node 31, Type 0, BuildingBlock: NAWXER_clean_sbu_0, # of connection points: 4
#     Edge 32, Type (0, 0), BuildingBlock: EZIPEK_clean_linker_0, # of connection points: 2
#     Edge 33, Type (0, 0), BuildingBlock: EZIPEK_clean_linker_0, # of connection points: 2
#     Edge 34, Type (0, 0), BuildingBlock: EZIPEK_clean_linker_0, # of connection points: 2
#     Edge 35, Type (0, 0), BuildingBlock: EZIPEK_clean_linker_0, # of connection points: 2
#     Edge 36, Type (0, 0), BuildingBlock: EZIPEK_clean_linker_0, # of connection points: 2
#     Edge 37, Type (0, 0), BuildingBlock: EZIPEK_clean_linker_0, # of connection points: 2
#     Edge 38, Type (0, 0), BuildingBlock: EZIPEK_clean_linker_0, # of connection points: 2
#     Edge 39, Type (0, 0), BuildingBlock: EZIPEK_clean_linker_0, # of connection points: 2
#     Edge 40, Type (0, 0), BuildingBlock: EZIPEK_clean_linker_0, # of connection points: 2
#     Edge 41, Type (0, 0), BuildingBlock: EZIPEK_clean_linker_0, # of connection points: 2
#     Edge 42, Type (0, 0), BuildingBlock: EZIPEK_clean_linker_0, # of connection points: 2
#     Edge 43, Type (0, 0), BuildingBlock: EZIPEK_clean_linker_0, # of connection points: 2
#     Edge 44, Type (0, 0), BuildingBlock: EZIPEK_clean_linker_0, # of connection points: 2
#     Edge 45, Type (0, 0), BuildingBlock: EZIPEK_clean_linker_0, # of connection points: 2
#     Edge 46, Type (0, 0), BuildingBlock: EZIPEK_clean_linker_0, # of connection points: 2
#     Edge 47, Type (0, 0), BuildingBlock: EZIPEK_clean_linker_0, # of connection points: 2
#     Edge 48, Type (0, 0), BuildingBlock: EZIPEK_clean_linker_0, # of connection points: 2
#     Edge 49, Type (0, 0), BuildingBlock: EZIPEK_clean_linker_0, # of connection points: 2
#     Edge 50, Type (0, 0), BuildingBlock: EZIPEK_clean_linker_0, # of connection points: 2
#     Edge 51, Type (0, 0), BuildingBlock: EZIPEK_clean_linker_0, # of connection points: 2
#     Edge 52, Type (0, 0), BuildingBlock: EZIPEK_clean_linker_0, # of connection points: 2
#     Edge 53, Type (0, 0), BuildingBlock: EZIPEK_clean_linker_0, # of connection points: 2
#     Edge 54, Type (0, 0), BuildingBlock: EZIPEK_clean_linker_0, # of connection points: 2
#     Edge 55, Type (0, 0), BuildingBlock: EZIPEK_clean_linker_0, # of connection points: 2
#     Edge 56, Type (0, 0), BuildingBlock: EZIPEK_clean_linker_0, # of connection points: 2
#     Edge 57, Type (0, 0), BuildingBlock: EZIPEK_clean_linker_0, # of connection points: 2
#     Edge 58, Type (0, 0), BuildingBlock: EZIPEK_clean_linker_0, # of connection points: 2
#     Edge 59, Type (0, 0), BuildingBlock: EZIPEK_clean_linker_0, # of connection points: 2
#     Edge 60, Type (0, 0), BuildingBlock: EZIPEK_clean_linker_0, # of connection points: 2
#     Edge 61, Type (0, 0), BuildingBlock: EZIPEK_clean_linker_0, # of connection points: 2
#     Edge 62, Type (0, 0), BuildingBlock: EZIPEK_clean_linker_0, # of connection points: 2
#     Edge 63, Type (0, 0), BuildingBlock: EZIPEK_clean_linker_0, # of connection points: 2
#     Edge 64, Type (0, 0), BuildingBlock: EZIPEK_clean_linker_0, # of connection points: 2
#     Edge 65, Type (0, 0), BuildingBlock: EZIPEK_clean_linker_0, # of connection points: 2
#     Edge 66, Type (0, 0), BuildingBlock: EZIPEK_clean_linker_0, # of connection points: 2
#     Edge 67, Type (0, 0), BuildingBlock: EZIPEK_clean_linker_0, # of connection points: 2
#     Edge 68, Type (0, 0), BuildingBlock: EZIPEK_clean_linker_0, # of connection points: 2
#     Edge 69, Type (0, 0), BuildingBlock: EZIPEK_clean_linker_0, # of connection points: 2
#     Edge 70, Type (0, 0), BuildingBlock: EZIPEK_clean_linker_0, # of connection points: 2
#     Edge 71, Type (0, 0), BuildingBlock: EZIPEK_clean_linker_0, # of connection points: 2
#     Edge 72, Type (0, 0), BuildingBlock: EZIPEK_clean_linker_0, # of connection points: 2
#     Edge 73, Type (0, 0), BuildingBlock: EZIPEK_clean_linker_0, # of connection points: 2
#     Edge 74, Type (0, 0), BuildingBlock: EZIPEK_clean_linker_0, # of connection points: 2
#     Edge 75, Type (0, 0), BuildingBlock: EZIPEK_clean_linker_0, # of connection points: 2
#     Edge 76, Type (0, 0), BuildingBlock: EZIPEK_clean_linker_0, # of connection points: 2
#     Edge 77, Type (0, 0), BuildingBlock: EZIPEK_clean_linker_0, # of connection points: 2
#     Edge 78, Type (0, 0), BuildingBlock: EZIPEK_clean_linker_0, # of connection points: 2
#     Edge 79, Type (0, 0), BuildingBlock: EZIPEK_clean_linker_0, # of connection points: 2
#     Edge 80, Type (0, 0), BuildingBlock: EZIPEK_clean_linker_0, # of connection points: 2
#     Edge 81, Type (0, 0), BuildingBlock: EZIPEK_clean_linker_0, # of connection points: 2
#     Edge 82, Type (0, 0), BuildingBlock: EZIPEK_clean_linker_0, # of connection points: 2
#     Edge 83, Type (0, 0), BuildingBlock: EZIPEK_clean_linker_0, # of connection points: 2
#     Edge 84, Type (0, 0), BuildingBlock: EZIPEK_clean_linker_0, # of connection points: 2
#     Edge 85, Type (0, 0), BuildingBlock: EZIPEK_clean_linker_0, # of connection points: 2
#     Edge 86, Type (0, 0), BuildingBlock: EZIPEK_clean_linker_0, # of connection points: 2
#     Edge 87, Type (0, 0), BuildingBlock: EZIPEK_clean_linker_0, # of connection points: 2
#     Edge 88, Type (0, 0), BuildingBlock: EZIPEK_clean_linker_0, # of connection points: 2
#     Edge 89, Type (0, 0), BuildingBlock: EZIPEK_clean_linker_0, # of connection points: 2
#     Edge 90, Type (0, 0), BuildingBlock: EZIPEK_clean_linker_0, # of connection points: 2
#     Edge 91, Type (0, 0), BuildingBlock: EZIPEK_clean_linker_0, # of connection points: 2
#     Edge 92, Type (0, 0), BuildingBlock: EZIPEK_clean_linker_0, # of connection points: 2
#     Edge 93, Type (0, 0), BuildingBlock: EZIPEK_clean_linker_0, # of connection points: 2
#     Edge 94, Type (0, 0), BuildingBlock: EZIPEK_clean_linker_0, # of connection points: 2
#     Edge 95, Type (0, 0), BuildingBlock: EZIPEK_clean_linker_0, # of connection points: 2
# Relax obj value: 0.044
# Max RMSD: 0.097
# Mean RMSD: 0.097
data_MOF--net-upd--node1-NAWXER_clean_sbu_0--edge1-EZIPEK_clean_linker_0
_symmetry_space_group_name_H-M    P1
_symmetry_Int_Tables_number       1
_symmetry_cell_setting            triclinic
loop_
_symmetry_equiv_pos_as_xyz
'x, y, z'
_cell_length_a     29.119526
_cell_length_b     29.21138
_cell_length_c     55.135639
_cell_angle_alpha  90.038247
_cell_angle_beta   89.854436
_cell_angle_gamma 89.815524
loop_
_atom_site_label
_atom_site_type_symbol
_atom_site_fract_x
_atom_site_fract_y
_atom_site_fract_z
_atom_type_partial_charge
C0 C 0.18167 0.07395 0.2989 0.0
C1 C 0.1764 0.18838 0.3641 0.0
O2 O 0.15162 0.10553 0.29537 0.0
Zn3 Zn 0.12779 0.16723 0.31325 0.0
O4 O 0.20622 0.07454 0.31798 0.0
Zn5 Zn 0.1809 0.13022 0.33132 0.0
O6 O 0.11191 0.11003 0.34009 0.0
O7 O 0.06332 0.15387 0.32001 0.0
O8 O 0.20389 0.1547 0.36206 0.0
O9 O 0.14732 0.1962 0.34723 0.0
O10 O 0.14564 0.21492 0.29024 0.0
O11 O 0.20517 0.17734 0.30475 0.0
C12 C 0.07046 0.12195 0.33527 0.0
C13 C 0.18879 0.20779 0.29051 0.0
C14 C 0.03038 0.90939 0.53279 0.0
C15 C 0.11402 0.80769 0.5889 0.0
O16 O 0.05447 0.93038 0.54871 0.0
Zn17 Zn 0.1 0.91458 0.57818 0.0
O18 O 0.03053 0.86575 0.53192 0.0
Zn19 Zn 0.07186 0.85666 0.55907 0.0
O20 O 0.02915 0.88389 0.5868 0.0
O21 O 0.06481 0.93897 0.60613 0.0
O22 O 0.08763 0.79547 0.57173 0.0
O23 O 0.12163 0.85037 0.59216 0.0
O24 O 0.15774 0.9408 0.56645 0.0
O25 O 0.13403 0.88267 0.54418 0.0
C26 C 0.02933 0.91393 0.60366 0.0
C27 C 0.16321 0.91449 0.54821 0.0
C28 C 0.344 0.8151 0.86903 0.0
C29 C 0.32931 0.92833 0.80414 0.0
O30 O 0.37002 0.80625 0.85082 0.0
Zn31 Zn 0.38333 0.83489 0.81554 0.0
O32 O 0.31616 0.84868 0.86818 0.0
Zn33 Zn 0.33386 0.87121 0.83646 0.0
O34 O 0.30519 0.82195 0.8118 0.0
O35 O 0.36327 0.78784 0.79329 0.0
O36 O 0.30792 0.92819 0.82428 0.0
O37 O 0.3574 0.89587 0.79909 0.0
O38 O 0.44795 0.84933 0.81783 0.0
O39 O 0.40453 0.8889 0.84321 0.0
C40 C 0.32025 0.79276 0.7963 0.0
C41 C 0.44444 0.8779 0.83516 0.0
C42 C 0.44312 0.09475 0.11597 0.0
C43 C 0.33475 0.08283 0.04869 0.0
O44 O 0.45198 0.12213 0.09846 0.0
Zn45 Zn 0.42481 0.13924 0.06385 0.0
O46 O 0.4089 0.06798 0.1146 0.0
Zn47 Zn 0.38736 0.08797 0.08285 0.0
O48 O 0.43883 0.06285 0.05781 0.0
O49 O 0.4732 0.123 0.04153 0.0
O50 O 0.33228 0.0614 0.06876 0.0
O51 O 0.36701 0.11179 0.04523 0.0
O52 O 0.40785 0.20284 0.06781 0.0
O53 O 0.3647 0.15727 0.08955 0.0
C54 C 0.4684 0.07985 0.0431 0.0
C55 C 0.37431 0.1979 0.08232 0.0
C56 C 0.18558 0.82859 0.15585 0.0
C57 C 0.18749 0.93691 0.22329 0.0
O58 O 0.15699 0.81823 0.17265 0.0
Zn59 Zn 0.13656 0.84454 0.20756 0.0
O60 O 0.21243 0.86245 0.15854 0.0
Zn61 Zn 0.18872 0.88192 0.18984 0.0
O62 O 0.21336 0.82973 0.21455 0.0
O63 O 0.15209 0.79572 0.22968 0.0
O64 O 0.21229 0.93745 0.2043 0.0
O65 O 0.15847 0.90457 0.22645 0.0
O66 O 0.07268 0.85752 0.20169 0.0
O67 O 0.11909 0.90008 0.17949 0.0
C68 C 0.19547 0.79969 0.22866 0.0
C69 C 0.07832 0.88763 0.18531 0.0
C70 C 0.30622 0.92312 0.47454 0.0
C71 C 0.42104 0.93625 0.40882 0.0
O72 O 0.34151 0.89723 0.47722 0.0
Zn73 Zn 0.40356 0.88032 0.45806 0.0
O74 O 0.30302 0.94825 0.45574 0.0
Zn75 Zn 0.36182 0.93166 0.44121 0.0
O76 O 0.3496 0.86294 0.42945 0.0
O77 O 0.3951 0.81595 0.44965 0.0
O78 O 0.38471 0.96024 0.41121 0.0
O79 O 0.4309 0.90638 0.42496 0.0
O80 O 0.45082 0.89921 0.48043 0.0
O81 O 0.40871 0.95715 0.46764 0.0
C82 C 0.36423 0.82229 0.43369 0.0
C83 C 0.44164 0.94186 0.48067 0.0
C84 C 0.35644 0.1963 0.73425 0.0
C85 C 0.45689 0.09005 0.69089 0.0
O86 O 0.3341 0.16981 0.72001 0.0
Zn87 Zn 0.34905 0.11606 0.69461 0.0
O88 O 0.40002 0.19436 0.7349 0.0
Zn89 Zn 0.40697 0.14457 0.71229 0.0
O90 O 0.38928 0.17608 0.67845 0.0
O91 O 0.3284 0.14088 0.66378 0.0
O92 O 0.46782 0.12109 0.70593 0.0
O93 O 0.41438 0.0859 0.68519 0.0
O94 O 0.31555 0.06596 0.70916 0.0
O95 O 0.37436 0.08897 0.73121 0.0
C96 C 0.35893 0.17166 0.66182 0.0
C97 C 0.33988 0.06236 0.72819 0.0
C98 C 0.15507 0.18238 0.94019 0.0
C99 C 0.06478 0.06763 0.98605 0.0
O100 O 0.16309 0.1404 0.93529 0.0
Zn101 Zn 0.13872 0.07389 0.9428 0.0
O102 O 0.12535 0.19182 0.95651 0.0
Zn103 Zn 0.10775 0.128 0.96487 0.0
O104 O 0.16916 0.09995 0.97835 0.0
O105 O 0.19574 0.0453 0.95419 0.0
O106 O 0.0643 0.11062 0.99005 0.0
O107 O 0.09023 0.05091 0.96922 0.0
O108 O 0.10899 0.06216 0.9111 0.0
O109 O 0.07103 0.11157 0.93357 0.0
C110 C 0.19938 0.0695 0.97336 0.0
C111 C 0.07488 0.08922 0.91379 0.0
C112 C 0.8734 0.91675 0.66874 0.0
C113 C 0.75126 0.84689 0.71817 0.0
O114 O 0.88764 0.89395 0.68705 0.0
Zn115 Zn 0.86093 0.85701 0.7172 0.0
O116 O 0.83045 0.9231 0.66581 0.0
Zn117 Zn 0.80943 0.88657 0.69361 0.0
O118 O 0.82556 0.92725 0.72429 0.0
O119 O 0.8796 0.89275 0.74557 0.0
O120 O 0.74485 0.87219 0.69966 0.0
O121 O 0.79201 0.83962 0.72593 0.0
O122 O 0.88651 0.79654 0.70927 0.0
O123 O 0.83553 0.82153 0.68273 0.0
C124 C 0.85207 0.92627 0.74277 0.0
C125 C 0.86477 0.79132 0.6894 0.0
C126 C 0.8837 0.17859 0.42997 0.0
C127 C 0.93676 0.0403 0.47215 0.0
O128 O 0.9111 0.17778 0.44792 0.0
Zn129 Zn 0.90966 0.11152 0.4529 0.0
O130 O 0.86507 0.14143 0.42261 0.0
Zn131 Zn 0.86519 0.06968 0.43073 0.0
O132 O 0.80293 0.05869 0.44254 0.0
O133 O 0.84406 0.09989 0.46811 0.0
O134 O 0.90532 0.03225 0.45654 0.0
O135 O 0.95006 0.08125 0.47565 0.0
O136 O 0.93743 0.08913 0.41947 0.0
O137 O 0.88873 0.04586 0.39939 0.0
C138 C 0.8067 0.07937 0.46279 0.0
C139 C 0.92747 0.06593 0.40054 0.0
C140 C 0.6952 0.16601 0.15361 0.0
C141 C 0.69056 0.05682 0.22089 0.0
O142 O 0.71799 0.12882 0.15477 0.0
Zn143 Zn 0.69499 0.11072 0.18686 0.0
O144 O 0.67058 0.17875 0.17169 0.0
Zn145 Zn 0.65087 0.15533 0.20677 0.0
O146 O 0.67689 0.20174 0.2274 0.0
O147 O 0.72972 0.15687 0.21133 0.0
O148 O 0.66717 0.09324 0.22485 0.0
O149 O 0.71166 0.05191 0.20082 0.0
O150 O 0.62244 0.10474 0.17894 0.0
O151 O 0.58516 0.15138 0.20369 0.0
C152 C 0.71886 0.19022 0.22538 0.0
C153 C 0.58462 0.12272 0.18634 0.0
C154 C 0.55535 0.95159 0.97743 0.0
C155 C 0.63171 0.82638 0.93414 0.0
O156 O 0.54704 0.90903 0.97902 0.0
Zn157 Zn 0.59292 0.88844 0.95627 0.0
O158 O 0.58591 0.96613 0.96255 0.0
Zn159 Zn 0.63381 0.93693 0.93704 0.0
O160 O 0.61306 0.9593 0.90536 0.0
O161 O 0.56693 0.90783 0.92167 0.0
O162 O 0.64627 0.86618 0.92808 0.0
O163 O 0.60118 0.82369 0.95058 0.0
O164 O 0.65476 0.90776 0.97409 0.0
O165 O 0.69249 0.95608 0.95067 0.0
C166 C 0.57761 0.93406 0.90398 0.0
C167 C 0.68949 0.93364 0.97039 0.0
C168 C 0.82788 0.22194 0.85908 0.0
C169 C 0.83615 0.08247 0.80744 0.0
O170 O 0.80128 0.1874 0.86049 0.0
Zn171 Zn 0.8292 0.14923 0.8346 0.0
O172 O 0.86059 0.22121 0.84361 0.0
Zn173 Zn 0.88495 0.18001 0.81468 0.0
O174 O 0.86929 0.22021 0.78763 0.0
O175 O 0.80846 0.18827 0.80421 0.0
O176 O 0.86502 0.11402 0.80235 0.0
O177 O 0.80789 0.08818 0.82491 0.0
O178 O 0.89635 0.13389 0.84809 0.0
O179 O 0.94754 0.16808 0.82456 0.0
C180 C 0.82585 0.2154 0.78857 0.0
C181 C 0.93822 0.14221 0.84247 0.0
C182 C 0.58096 0.0635 0.61481 0.0
C183 C 0.68045 0.08369 0.54384 0.0
O184 O 0.61799 0.04194 0.61019 0.0
Zn185 Zn 0.63273 0.07336 0.5799 0.0
O186 O 0.56616 0.09349 0.59981 0.0
Zn187 Zn 0.58567 0.12257 0.56584 0.0
O188 O 0.5356 0.10231 0.54558 0.0
O189 O 0.58248 0.0461 0.55565 0.0
O190 O 0.64427 0.1088 0.54314 0.0
O191 O 0.68838 0.05889 0.56233 0.0
O192 O 0.64374 0.14254 0.59184 0.0
O193 O 0.59184 0.18688 0.57449 0.0
C194 C 0.54689 0.06023 0.54431 0.0
C195 C 0.62571 0.18227 0.58881 0.0
C196 C 0.67343 0.92961 0.30025 0.0
C197 C 0.65628 0.82598 0.36893 0.0
O198 O 0.69725 0.92844 0.31953 0.0
Zn199 Zn 0.66561 0.87789 0.33453 0.0
O200 O 0.64007 0.90148 0.29749 0.0
Zn201 Zn 0.60917 0.84588 0.31737 0.0
O202 O 0.54702 0.86807 0.323 0.0
O203 O 0.5989 0.90655 0.34309 0.0
O204 O 0.62641 0.81882 0.35233 0.0
O205 O 0.68655 0.85668 0.36596 0.0
O206 O 0.68393 0.8238 0.30973 0.0
O207 O 0.61956 0.79451 0.29562 0.0
C208 C 0.55659 0.90061 0.33745 0.0
C209 C 0.66322 0.79539 0.29584 0.0
C210 C 0.96003 0.93669 0.04182 0.0
C211 C 0.86381 0.82644 0.08707 0.0
O212 O 0.96218 0.89328 0.03978 0.0
Zn213 Zn 0.91413 0.87889 0.06315 0.0
O214 O 0.93127 0.95514 0.05648 0.0
Zn215 Zn 0.87917 0.93488 0.08146 0.0
O216 O 0.90438 0.95378 0.11343 0.0
O217 O 0.94478 0.89931 0.09578 0.0
O218 O 0.85391 0.86865 0.09011 0.0
O219 O 0.89667 0.81629 0.07268 0.0
O220 O 0.85493 0.90456 0.04518 0.0
O221 O 0.82445 0.96141 0.06639 0.0
C222 C 0.93854 0.92637 0.11369 0.0
C223 C 0.82396 0.93542 0.04778 0.0
C224 C 0.65703 0.59981 0.78508 0.0
C225 C 0.64647 0.70895 0.85174 0.0
O226 O 0.62162 0.62573 0.78278 0.0
Zn227 Zn 0.59148 0.68238 0.80263 0.0
O228 O 0.68347 0.60541 0.80307 0.0
Zn229 Zn 0.65157 0.65607 0.81787 0.0
O230 O 0.58777 0.62789 0.83224 0.0
O231 O 0.53185 0.65923 0.81095 0.0
O232 O 0.67801 0.68013 0.84709 0.0
O233 O 0.61284 0.71397 0.83689 0.0
O234 O 0.59311 0.73227 0.77964 0.0
O235 O 0.6619 0.71071 0.79195 0.0
C236 C 0.54468 0.63314 0.82807 0.0
C237 C 0.63642 0.73627 0.77863 0.0
C238 C 0.57146 0.41753 0.03189 0.0
C239 C 0.65081 0.30107 0.08171 0.0
O240 O 0.5963 0.43455 0.04881 0.0
Zn241 Zn 0.64207 0.41014 0.07642 0.0
O242 O 0.57094 0.3744 0.02861 0.0
Zn243 Zn 0.61168 0.35679 0.05507 0.0
O244 O 0.57296 0.37625 0.08623 0.0
O245 O 0.61178 0.42762 0.10691 0.0
O246 O 0.62251 0.29254 0.06467 0.0
O247 O 0.66104 0.34264 0.08606 0.0
O248 O 0.7025 0.43261 0.06789 0.0
O249 O 0.67893 0.37764 0.04341 0.0
C250 C 0.57704 0.40146 0.10507 0.0
C251 C 0.71016 0.40583 0.0501 0.0
C252 C 0.85579 0.31608 0.35584 0.0
C253 C 0.83326 0.43406 0.29303 0.0
O254 O 0.88509 0.31548 0.33849 0.0
Zn255 Zn 0.89862 0.34887 0.30468 0.0
O256 O 0.82307 0.34513 0.35515 0.0
Zn257 Zn 0.84312 0.37621 0.32541 0.0
O258 O 0.82366 0.3259 0.29926 0.0
O259 O 0.88657 0.29993 0.28164 0.0
O260 O 0.81127 0.43015 0.31289 0.0
O261 O 0.8663 0.4064 0.28837 0.0
O262 O 0.9606 0.36933 0.31001 0.0
O263 O 0.91107 0.39904 0.33615 0.0
C264 C 0.84312 0.29903 0.284 0.0
C265 C 0.95267 0.39277 0.32903 0.0
C266 C 0.94326 0.54602 0.62292 0.0
C267 C 0.82173 0.57397 0.56238 0.0
O268 O 0.95115 0.578 0.60764 0.0
Zn269 Zn 0.91967 0.61263 0.5781 0.0
O270 O 0.90652 0.52254 0.62127 0.0
Zn271 Zn 0.88088 0.55783 0.59392 0.0
O272 O 0.92612 0.53802 0.56468 0.0
O273 O 0.96238 0.60005 0.55205 0.0
O274 O 0.82013 0.54554 0.57985 0.0
O275 O 0.85627 0.60067 0.56044 0.0
O276 O 0.91507 0.67352 0.59223 0.0
O277 O 0.87434 0.6224 0.61237 0.0
C278 C 0.9548 0.55728 0.55027 0.0
C279 C 0.89018 0.66311 0.61041 0.0
C280 C 0.70121 0.31864 0.72702 0.0
C281 C 0.56823 0.38776 0.68821 0.0
O282 O 0.71302 0.34812 0.71099 0.0
Zn283 Zn 0.6789 0.39117 0.68501 0.0
O284 O 0.65886 0.31184 0.73121 0.0
Zn285 Zn 0.63355 0.35475 0.7086 0.0
O286 O 0.64736 0.32213 0.67493 0.0
O287 O 0.69712 0.36287 0.65394 0.0
O288 O 0.56819 0.36229 0.70691 0.0
O289 O 0.60635 0.40097 0.67887 0.0
O290 O 0.69892 0.4525 0.6947 0.0
O291 O 0.65368 0.41983 0.72176 0.0
C292 C 0.67145 0.32778 0.65573 0.0
C293 C 0.67786 0.454 0.71496 0.0
C294 C 0.86859 0.39707 0.98834 0.0
C295 C 0.97894 0.39873 0.92016 0.0
O296 O 0.90486 0.37246 0.98751 0.0
Zn297 Zn 0.92713 0.39545 0.9562 0.0
O298 O 0.85943 0.4246 0.97099 0.0
Zn299 Zn 0.88604 0.44694 0.93739 0.0
O300 O 0.83782 0.42443 0.91543 0.0
O301 O 0.87729 0.36855 0.93227 0.0
O302 O 0.94427 0.42515 0.91763 0.0
O303 O 0.9836 0.37599 0.93976 0.0
O304 O 0.94267 0.46309 0.96616 0.0
O305 O 0.90091 0.51167 0.94499 0.0
C306 C 0.84563 0.38164 0.91779 0.0
C307 C 0.93129 0.50425 0.96118 0.0
C308 C 0.78736 0.70222 0.22904 0.0
C309 C 0.9153 0.63662 0.18173 0.0
O310 O 0.77455 0.67186 0.21368 0.0
Zn311 Zn 0.80515 0.62906 0.18606 0.0
O312 O 0.82966 0.71281 0.23016 0.0
Zn313 Zn 0.85283 0.66925 0.20631 0.0
O314 O 0.83108 0.69894 0.1728 0.0
O315 O 0.78081 0.65323 0.15526 0.0
O316 O 0.91828 0.66249 0.20025 0.0
O317 O 0.87587 0.6215 0.17533 0.0
O318 O 0.78852 0.56851 0.19832 0.0
O319 O 0.83633 0.60519 0.22241 0.0
C320 C 0.80496 0.68952 0.15484 0.0
C321 C 0.81158 0.57009 0.2179 0.0
C322 C 0.69112 0.58974 0.48296 0.0
C323 C 0.57474 0.58918 0.41726 0.0
O324 O 0.65577 0.61462 0.48722 0.0
Zn325 Zn 0.59415 0.63489 0.46951 0.0
O326 O 0.69489 0.56958 0.46254 0.0
Zn327 Zn 0.63518 0.58769 0.44889 0.0
O328 O 0.64355 0.65852 0.43941 0.0
O329 O 0.60187 0.70018 0.4647 0.0
O330 O 0.61066 0.56407 0.41776 0.0
O331 O 0.56632 0.61562 0.43527 0.0
O332 O 0.5475 0.61141 0.49129 0.0
O333 O 0.58928 0.55678 0.47445 0.0
C334 C 0.62835 0.69765 0.44635 0.0
C335 C 0.55726 0.5691 0.48904 0.0
C336 C 0.43848 0.3744 0.17982 0.0
C337 C 0.31521 0.29904 0.22481 0.0
O338 O 0.44241 0.34402 0.19621 0.0
Zn339 Zn 0.37777 0.33725 0.2036 0.0
O340 O 0.39886 0.39121 0.17505 0.0
Zn341 Zn 0.32905 0.38131 0.18667 0.0
O342 O 0.31324 0.43882 0.20262 0.0
O343 O 0.36162 0.39694 0.22395 0.0
O344 O 0.30028 0.33134 0.21117 0.0
O345 O 0.35792 0.28997 0.22551 0.0
O346 O 0.35262 0.31414 0.16927 0.0
O347 O 0.3022 0.36454 0.15552 0.0
C348 C 0.33669 0.43284 0.22181 0.0
C349 C 0.32496 0.3276 0.15274 0.0
C350 C 0.42953 0.57521 0.90684 0.0
C351 C 0.32191 0.57885 0.97563 0.0
O352 O 0.39327 0.55131 0.90888 0.0
Zn353 Zn 0.37748 0.57115 0.94184 0.0
O354 O 0.44323 0.59946 0.92474 0.0
Zn355 Zn 0.42182 0.61611 0.96086 0.0
O356 O 0.46956 0.59094 0.98126 0.0
O357 O 0.42743 0.53681 0.9645 0.0
O358 O 0.35922 0.60068 0.97969 0.0
O359 O 0.31809 0.55594 0.9561 0.0
O360 O 0.36682 0.64321 0.93515 0.0
O361 O 0.41587 0.68201 0.95702 0.0
C362 C 0.46065 0.54876 0.97838 0.0
C363 C 0.38291 0.68194 0.94192 0.0
C364 C 0.19963 0.56198 0.7271 0.0
C365 C 0.17517 0.67786 0.66239 0.0
O366 O 0.22318 0.56515 0.70762 0.0
Zn367 Zn 0.19062 0.61751 0.69374 0.0
O368 O 0.16576 0.58937 0.73068 0.0
Zn369 Zn 0.13336 0.6468 0.71351 0.0
O370 O 0.07142 0.62521 0.70606 0.0
O371 O 0.12497 0.58908 0.68513 0.0
O372 O 0.14709 0.67911 0.6802 0.0
O373 O 0.20766 0.6485 0.66271 0.0
O374 O 0.20935 0.66678 0.72012 0.0
O375 O 0.14708 0.69664 0.73646 0.0
C376 C 0.08237 0.59583 0.68991 0.0
C377 C 0.19076 0.69482 0.73501 0.0
C378 C 0.18444 0.42758 0.47565 0.0
C379 C 0.07755 0.42957 0.40684 0.0
O380 O 0.18481 0.45578 0.45803 0.0
Zn381 Zn 0.13046 0.43294 0.4413 0.0
O382 O 0.15268 0.3976 0.47684 0.0
Zn383 Zn 0.09193 0.37913 0.45824 0.0
O384 O 0.1063 0.31503 0.45119 0.0
O385 O 0.15043 0.36403 0.43215 0.0
O386 O 0.06723 0.40067 0.42347 0.0
O387 O 0.11155 0.4563 0.40968 0.0
O388 O 0.07859 0.45751 0.46502 0.0
O389 O 0.04543 0.39806 0.48201 0.0
C390 C 0.14013 0.32239 0.43699 0.0
C391 C 0.0501 0.44127 0.4804 0.0
C392 C 0.32407 0.68251 0.36338 0.0
C393 C 0.33608 0.56206 0.30155 0.0
O394 O 0.29909 0.64681 0.36267 0.0
Zn395 Zn 0.32837 0.61998 0.33348 0.0
O396 O 0.35402 0.6889 0.34674 0.0
Zn397 Zn 0.38086 0.65887 0.315 0.0
O398 O 0.36121 0.7043 0.29105 0.0
O399 O 0.30329 0.66453 0.30565 0.0
O400 O 0.36317 0.59591 0.29804 0.0
O401 O 0.31086 0.56082 0.32044 0.0
O402 O 0.39716 0.6086 0.34634 0.0
O403 O 0.44515 0.65097 0.32507 0.0
C404 C 0.31833 0.69559 0.29137 0.0
C405 C 0.43814 0.62281 0.34232 0.0
C406 C 0.0475 0.61273 0.10431 0.0
C407 C 0.16537 0.60076 0.041 0.0
O408 O 0.07727 0.58134 0.10137 0.0
Zn409 Zn 0.10496 0.60504 0.07174 0.0
O410 O 0.04429 0.64483 0.08853 0.0
Zn411 Zn 0.07813 0.66426 0.05533 0.0
O412 O 0.0309 0.66051 0.03073 0.0
O413 O 0.05494 0.59282 0.04328 0.0
O414 O 0.13793 0.63468 0.03761 0.0
O415 O 0.15889 0.57421 0.05894 0.0
O416 O 0.13464 0.66921 0.084 0.0
O417 O 0.10062 0.724 0.06374 0.0
C418 C 0.02943 0.61719 0.02932 0.0
C419 C 0.13086 0.71201 0.07905 0.0
C420 C 0.21843 0.3163 0.8712 0.0
C421 C 0.21596 0.43257 0.80589 0.0
O422 O 0.2436 0.35195 0.87079 0.0
Zn423 Zn 0.22061 0.37585 0.83928 0.0
O424 O 0.19286 0.30738 0.853 0.0
Zn425 Zn 0.17232 0.33527 0.81925 0.0
O426 O 0.19461 0.28964 0.7968 0.0
O427 O 0.2504 0.33044 0.81292 0.0
O428 O 0.19043 0.39776 0.80197 0.0
O429 O 0.23859 0.43511 0.82561 0.0
O430 O 0.14998 0.38506 0.84919 0.0
O431 O 0.10737 0.34159 0.82531 0.0
C432 C 0.23709 0.29924 0.7982 0.0
C433 C 0.11074 0.36912 0.84311 0.0
C434 C 0.43058 0.42031 0.61806 0.0
C435 C 0.32202 0.41899 0.55135 0.0
O436 O 0.39432 0.44441 0.61624 0.0
Zn437 Zn 0.37655 0.42005 0.58504 0.0
O438 O 0.44269 0.39336 0.6008 0.0
Zn439 Zn 0.41754 0.37264 0.56568 0.0
O440 O 0.46525 0.39283 0.54423 0.0
O441 O 0.42681 0.45006 0.56105 0.0
O442 O 0.35654 0.3929 0.5471 0.0
O443 O 0.31899 0.44005 0.57143 0.0
O444 O 0.36687 0.34885 0.59484 0.0
O445 O 0.41037 0.30765 0.57026 0.0
C446 C 0.45826 0.43552 0.54662 0.0
C447 C 0.38297 0.30985 0.58819 0.0
C448 C 0.15446 0.23723 0.42748 0.0
C449 C 0.16362 0.28435 0.4231 0.0
C450 C 0.1893 0.2664 0.38208 0.0
C451 C 0.1776 0.21974 0.38543 0.0
N452 N 0.16319 0.15842 0.41378 0.0
N453 N 0.21789 0.33334 0.40244 0.0
C454 C 0.16486 0.20424 0.40899 0.0
C455 C 0.19007 0.29583 0.40238 0.0
N456 N 0.13684 0.22391 0.4493 0.0
N457 N 0.19887 0.28336 0.35959 0.0
H458 H 0.22475 0.3517 0.41825 0.0
H459 H 0.23961 0.34131 0.38799 0.0
H460 H 0.19778 0.26351 0.34397 0.0
H461 H 0.2035 0.31824 0.35638 0.0
H462 H 0.12282 0.19171 0.45245 0.0
H463 H 0.13708 0.24523 0.46447 0.0
H464 H 0.15805 0.1449 0.43103 0.0
H465 H 0.17046 0.13354 0.40077 0.0
C466 C 0.97243 0.96046 0.62957 0.0
C467 C 0.98776 0.91767 0.61983 0.0
C468 C 0.91633 0.88275 0.63457 0.0
C469 C 0.90634 0.92226 0.64837 0.0
N470 N 0.92672 0.99842 0.66067 0.0
N471 N 0.9769 0.83497 0.61914 0.0
C472 C 0.93502 0.9611 0.64642 0.0
C473 C 0.9603 0.87792 0.62388 0.0
N474 N 0.99126 1.00063 0.62182 0.0
N475 N 0.88404 0.84927 0.63206 0.0
H476 H 0.01084 0.82815 0.61447 0.0
H477 H 0.95858 0.80526 0.62291 0.0
H478 H 0.85098 0.85254 0.63917 0.0
H479 H 0.88827 0.82123 0.62055 0.0
H480 H 0.97857 0.03257 0.62702 0.0
H481 H 0.01565 1.00247 0.60803 0.0
H482 H 0.94944 0.0258 0.66201 0.0
H483 H 0.89814 1.00054 0.67209 0.0
C484 C 0.32318 0.72367 0.91697 0.0
C485 C 0.36594 0.72472 0.92949 0.0
C486 C 0.38839 0.79259 0.90613 0.0
C487 C 0.34877 0.78736 0.89141 0.0
N488 N 0.27787 0.74884 0.88251 0.0
N489 N 0.42581 0.77468 0.94411 0.0
C490 C 0.31551 0.75374 0.89705 0.0
C491 C 0.39481 0.76347 0.92655 0.0
N492 N 0.28892 0.69572 0.9251 0.0
N493 N 0.42056 0.82476 0.90025 0.0
H494 H 0.42633 0.75893 0.96102 0.0
H495 H 0.44581 0.80415 0.94365 0.0
H496 H 0.41565 0.84892 0.8866 0.0
H497 H 0.45315 0.82586 0.90798 0.0
H498 H 0.25561 0.696 0.91832 0.0
H499 H 0.29218 0.67585 0.94065 0.0
H500 H 0.2556 0.7211 0.88338 0.0
H501 H 0.27016 0.77143 0.86844 0.0
C502 C 0.49904 0.06106 0.14618 0.0
C503 C 0.47135 0.09811 0.13824 0.0
C504 C 0.51464 0.15097 0.16378 0.0
C505 C 0.54181 0.11385 0.17244 0.0
N506 N 0.55097 0.0322 0.17699 0.0
N507 N 0.44257 0.17421 0.14573 0.0
C508 C 0.53104 0.06835 0.1653 0.0
C509 C 0.47566 0.14162 0.14929 0.0
N510 N 0.49674 0.01972 0.13466 0.0
N511 N 0.52791 0.19531 0.16738 0.0
H512 H 0.41326 0.16812 0.13536 0.0
H513 H 0.44171 0.20502 0.15525 0.0
H514 H 0.55819 0.20479 0.17596 0.0
H515 H 0.51127 0.22297 0.15937 0.0
H516 H 0.51993 0.99317 0.13781 0.0
H517 H 0.4736 0.01301 0.12072 0.0
H518 H 0.54156 0.9983 0.17398 0.0
H519 H 0.57348 0.03647 0.19152 0.0
C520 C 0.15212 0.82065 0.11434 0.0
C521 C 0.18256 0.80415 0.13237 0.0
C522 C 0.19361 0.7331 0.10926 0.0
C523 C 0.15767 0.74697 0.09331 0.0
N524 N 0.12632 0.81328 0.07295 0.0
N525 N 0.23841 0.74917 0.14561 0.0
C526 C 0.14387 0.79366 0.09341 0.0
C527 C 0.20566 0.76184 0.12921 0.0
N528 N 0.12974 0.8614 0.11756 0.0
N529 N 0.21813 0.69424 0.10429 0.0
H530 H 0.25068 0.77181 0.1587 0.0
H531 H 0.25335 0.71685 0.1465 0.0
H532 H 0.21416 0.676 0.08822 0.0
H533 H 0.24562 0.68239 0.11452 0.0
H534 H 0.1025 0.87197 0.10666 0.0
H535 H 0.13656 0.8834 0.132 0.0
H536 H 0.1184 0.848 0.07166 0.0
H537 H 0.12694 0.79684 0.05618 0.0
C538 C 0.43811 0.9295 0.36377 0.0
C539 C 0.45275 0.94106 0.38764 0.0
C540 C 0.53085 0.95131 0.372 0.0
C541 C 0.51929 0.9265 0.35084 0.0
N542 N 0.45948 0.90602 0.32282 0.0
N543 N 0.5149 0.96239 0.41443 0.0
C544 C 0.47193 0.92024 0.34545 0.0
C545 C 0.49959 0.95216 0.39169 0.0
N546 N 0.39226 0.92693 0.35873 0.0
N547 N 0.57047 0.97609 0.37287 0.0
H548 H 0.49332 0.96425 0.42944 0.0
H549 H 0.54966 0.96563 0.41856 0.0
H550 H 0.59085 0.98128 0.35753 0.0
H551 H 0.57895 0.99712 0.38746 0.0
H552 H 0.37896 0.92216 0.34143 0.0
H553 H 0.3668 0.93192 0.37176 0.0
H554 H 0.4269 0.89427 0.31835 0.0
H555 H 0.48215 0.90722 0.30816 0.0
C556 C 0.40509 0.20564 0.62823 0.0
C557 C 0.36198 0.20136 0.63999 0.0
C558 C 0.33019 0.25925 0.61242 0.0
C559 C 0.37517 0.26927 0.60397 0.0
N560 N 0.4573 0.25779 0.60881 0.0
N561 N 0.28414 0.22865 0.64523 0.0
C562 C 0.41321 0.24377 0.61297 0.0
C563 C 0.32441 0.22902 0.63247 0.0
N564 N 0.43833 0.17309 0.63151 0.0
N565 N 0.29301 0.27821 0.60114 0.0
H566 H 0.27869 0.20788 0.66032 0.0
H567 H 0.25758 0.25187 0.64213 0.0
H568 H 0.29608 0.29962 0.58608 0.0
H569 H 0.2593 0.26897 0.60512 0.0
H570 H 0.46895 0.17268 0.62166 0.0
H571 H 0.43307 0.14379 0.64196 0.0
H572 H 0.48558 0.2427 0.61722 0.0
H573 H 0.4657 0.28753 0.59942 0.0
C574 C 0.02745 0.06975 0.87582 0.0
C575 C 0.04252 0.1017 0.89364 0.0
C576 C 0.98464 0.15653 0.87928 0.0
C577 C 0.97462 0.12786 0.85947 0.0
N578 N 0.98954 0.05875 0.83695 0.0
N579 N 0.04405 0.18187 0.90585 0.0
C580 C 0.99727 0.08501 0.85701 0.0
C581 C 0.02353 0.1469 0.89354 0.0
N582 N 0.03914 0.02458 0.87757 0.0
N583 N 0.95699 0.19301 0.88475 0.0
H584 H 0.07701 0.17963 0.91288 0.0
H585 H 0.03105 0.21505 0.90629 0.0
H586 H 0.92917 0.20301 0.87413 0.0
H587 H 0.95906 0.21017 0.9013 0.0
H588 H 0.02553 0.9994 0.86633 0.0
H589 H 0.05849 0.01129 0.89178 0.0
H590 H 0.00841 0.02932 0.83296 0.0
H591 H 0.96656 0.06846 0.82337 0.0
C592 C 0.92383 0.7119 0.64369 0.0
C593 C 0.88452 0.69514 0.63125 0.0
C594 C 0.83526 0.7293 0.66259 0.0
C595 C 0.87366 0.75257 0.67244 0.0
N596 N 0.95468 0.77029 0.67014 0.0
N597 N 0.80208 0.69216 0.62752 0.0
C598 C 0.91814 0.74479 0.66256 0.0
C599 C 0.83999 0.70482 0.64043 0.0
N600 N 0.96653 0.69512 0.63824 0.0
N601 N 0.79437 0.72985 0.67482 0.0
H602 H 0.80415 0.67496 0.61098 0.0
H603 H 0.76887 0.70246 0.63205 0.0
H604 H 0.7904 0.74612 0.69157 0.0
H605 H 0.76616 0.71023 0.66976 0.0
H606 H 0.99557 0.70248 0.64851 0.0
H607 H 0.97236 0.67014 0.62507 0.0
H608 H 0.98673 0.76924 0.66171 0.0
H609 H 0.95235 0.79535 0.68352 0.0
C610 C 0.04062 0.09274 0.375 0.0
C611 C 0.03235 0.10214 0.35016 0.0
C612 C 0.95183 0.07907 0.35634 0.0
C613 C 0.96237 0.06596 0.38061 0.0
N614 N 0.02185 0.04416 0.40869 0.0
N615 N 0.98185 0.09248 0.31581 0.0
C616 C 0.00873 0.06653 0.38814 0.0
C617 C 0.98848 0.09159 0.3403 0.0
N618 N 0.07631 0.11263 0.387 0.0
N619 N 0.90733 0.08222 0.34884 0.0
H620 H 0.00817 0.09965 0.30355 0.0
H621 H 0.95159 0.08136 0.30768 0.0
H622 H 0.87954 0.07261 0.35954 0.0
H623 H 0.89802 0.09705 0.33237 0.0
H624 H 0.08103 0.10902 0.40565 0.0
H625 H 0.09644 0.13817 0.37928 0.0
H626 H 0.05611 0.04153 0.41403 0.0
H627 H 0.99893 0.02438 0.41865 0.0
C628 C 0.68126 0.27686 0.12295 0.0
C629 C 0.66875 0.26493 0.09861 0.0
C630 C 0.68183 0.18396 0.109 0.0
C631 C 0.69704 0.19722 0.1324 0.0
N632 N 0.7287 0.25695 0.15709 0.0
N633 N 0.6735 0.20718 0.06708 0.0
C634 C 0.70332 0.24396 0.13752 0.0
C635 C 0.67405 0.21844 0.0911 0.0
N636 N 0.66878 0.31753 0.13346 0.0
N637 N 0.67291 0.1391 0.10405 0.0
H638 H 0.67201 0.23159 0.05334 0.0
H639 H 0.68051 0.17419 0.06084 0.0
H640 H 0.67879 0.11292 0.1165 0.0
H641 H 0.65688 0.12854 0.08812 0.0
H642 H 0.67453 0.32455 0.15175 0.0
H643 H 0.64702 0.34164 0.12581 0.0
H644 H 0.73738 0.29097 0.16052 0.0
H645 H 0.74515 0.23307 0.16808 0.0
C646 C 0.55801 0.88393 0.86945 0.0
C647 C 0.5529 0.92704 0.88083 0.0
C648 C 0.48672 0.94294 0.85488 0.0
C649 C 0.48568 0.89599 0.84787 0.0
N650 N 0.5181 0.81963 0.85231 0.0
N651 N 0.51233 0.9984 0.88479 0.0
C652 C 0.52117 0.8659 0.85575 0.0
C653 C 0.51757 0.95718 0.87343 0.0
N654 N 0.59793 0.85988 0.87214 0.0
N655 N 0.45867 0.97384 0.84363 0.0
H656 H 0.53545 0.01009 0.89782 0.0
H657 H 0.48398 0.01967 0.88218 0.0
H658 H 0.43706 0.96473 0.82935 0.0
H659 H 0.46034 0.00898 0.84668 0.0
H660 H 0.60501 0.82985 0.8626 0.0
H661 H 0.62586 0.87314 0.88163 0.0
H662 H 0.54097 0.79643 0.86012 0.0
H663 H 0.49038 0.80361 0.84407 0.0
C664 C 0.81557 0.30188 0.91418 0.0
C665 C 0.82256 0.34511 0.9031 0.0
C666 C 0.82169 0.3086 0.86306 0.0
C667 C 0.8211 0.26426 0.87427 0.0
N668 N 0.82164 0.21937 0.91112 0.0
N669 N 0.81102 0.39072 0.86735 0.0
C670 C 0.81787 0.26104 0.89999 0.0
C671 C 0.81902 0.34891 0.87763 0.0
N672 N 0.80592 0.30041 0.93843 0.0
N673 N 0.82712 0.31272 0.83852 0.0
H674 H 0.80524 0.42018 0.87751 0.0
H675 H 0.80357 0.3954 0.84907 0.0
H676 H 0.82674 0.28538 0.82652 0.0
H677 H 0.83518 0.3434 0.82992 0.0
H678 H 0.79618 0.27084 0.94759 0.0
H679 H 0.80278 0.33019 0.94882 0.0
H680 H 0.82509 0.21533 0.92978 0.0
H681 H 0.82553 0.18864 0.90176 0.0
C682 C 0.47932 0.03948 0.65605 0.0
C683 C 0.49294 0.06447 0.67671 0.0
C684 C 0.57167 0.06679 0.66044 0.0
C685 C 0.55374 0.05509 0.63722 0.0
N686 N 0.48935 0.02961 0.61307 0.0
N687 N 0.55555 0.08441 0.70294 0.0
C688 C 0.50739 0.04056 0.63513 0.0
C689 C 0.54054 0.07239 0.68038 0.0
N690 N 0.44051 0.01344 0.65675 0.0
N691 N 0.61779 0.07361 0.66315 0.0
H692 H 0.53458 0.08126 0.71822 0.0
H693 H 0.58865 0.09521 0.70692 0.0
H694 H 0.64112 0.07063 0.6489 0.0
H695 H 0.63372 0.08094 0.67953 0.0
H696 H 0.43066 0.99201 0.64258 0.0
H697 H 0.42218 0.00838 0.67282 0.0
H698 H 0.45442 0.02381 0.61038 0.0
H699 H 0.50864 0.02972 0.5972 0.0
C700 C 0.68926 0.77261 0.40058 0.0
C701 C 0.65255 0.8002 0.39204 0.0
C702 C 0.60028 0.76455 0.42124 0.0
C703 C 0.63734 0.73804 0.43059 0.0
N704 N 0.71915 0.72643 0.4335 0.0
N705 N 0.57795 0.83327 0.39975 0.0
C706 C 0.68257 0.74536 0.42168 0.0
C707 C 0.60969 0.7998 0.40428 0.0
N708 N 0.72949 0.77014 0.38783 0.0
N709 N 0.55573 0.75403 0.42674 0.0
H710 H 0.58427 0.86035 0.38789 0.0
H711 H 0.54775 0.83694 0.40978 0.0
H712 H 0.5461 0.72701 0.43791 0.0
H713 H 0.52783 0.76936 0.41812 0.0
H714 H 0.75535 0.74656 0.39173 0.0
H715 H 0.73565 0.78902 0.37213 0.0
H716 H 0.75316 0.73384 0.42916 0.0
H717 H 0.71533 0.70709 0.44926 0.0
C718 C 0.02514 0.94564 0.16551 0.0
C719 C 0.03957 0.89959 0.16902 0.0
C720 C 0.97923 0.8736 0.14184 0.0
C721 C 0.96869 0.91947 0.13531 0.0
N722 N 0.98609 0.9999 0.13914 0.0
N723 N 0.03888 0.82182 0.15402 0.0
C724 C 0.99251 0.95595 0.14683 0.0
C725 C 0.01894 0.86414 0.15548 0.0
N726 N 0.0424 0.9793 0.18002 0.0
N727 N 0.95085 0.83858 0.13537 0.0
H728 H 0.06847 0.81255 0.1634 0.0
H729 H 0.02905 0.79803 0.14094 0.0
H730 H 0.92007 0.84388 0.12632 0.0
H731 H 0.95544 0.80512 0.14148 0.0
H732 H 0.03017 0.01284 0.17993 0.0
H733 H 0.06655 0.97266 0.19354 0.0
H734 H 0.00604 0.02723 0.14504 0.0
H735 H 0.96302 0.00862 0.12547 0.0
C736 C 0.61328 0.72471 0.89315 0.0
C737 C 0.64702 0.73428 0.87514 0.0
C738 C 0.68243 0.7904 0.90236 0.0
C739 C 0.64457 0.78619 0.91845 0.0
N740 N 0.58968 0.73326 0.93512 0.0
N741 N 0.71331 0.77709 0.86207 0.0
C742 C 0.61434 0.74861 0.91567 0.0
C743 C 0.6821 0.76672 0.8798 0.0
N744 N 0.57985 0.69311 0.88867 0.0
N745 N 0.71969 0.81534 0.9094 0.0
H746 H 0.71405 0.76073 0.84526 0.0
H747 H 0.7362 0.8043 0.86325 0.0
H748 H 0.72193 0.82975 0.92669 0.0
H749 H 0.75019 0.81702 0.89956 0.0
H750 H 0.55063 0.68932 0.8994 0.0
H751 H 0.58003 0.67208 0.87343 0.0
H752 H 0.56911 0.7042 0.93477 0.0
H753 H 0.59535 0.74522 0.95266 0.0
C754 C 0.52444 0.43381 0.13792 0.0
C755 C 0.54337 0.39551 0.12538 0.0
C756 C 0.49063 0.34492 0.14743 0.0
C757 C 0.4763 0.38196 0.16219 0.0
N758 N 0.48311 0.46127 0.17342 0.0
N759 N 0.55095 0.31258 0.12326 0.0
C760 C 0.49439 0.42634 0.15805 0.0
C761 C 0.52838 0.35055 0.1316 0.0
N762 N 0.53268 0.47718 0.12977 0.0
N763 N 0.46668 0.30472 0.1473 0.0
H764 H 0.57964 0.31374 0.11216 0.0
H765 H 0.54403 0.27967 0.12958 0.0
H766 H 0.43863 0.29823 0.15851 0.0
H767 H 0.47172 0.27964 0.13408 0.0
H768 H 0.51612 0.50603 0.13671 0.0
H769 H 0.55242 0.48411 0.11443 0.0
H770 H 0.4988 0.49325 0.1729 0.0
H771 H 0.46076 0.45689 0.18801 0.0
C772 C 0.90067 0.21317 0.39021 0.0
C773 C 0.88141 0.21859 0.41351 0.0
C774 C 0.84999 0.29269 0.40072 0.0
C775 C 0.86151 0.28222 0.37606 0.0
N776 N 0.88662 0.22289 0.34782 0.0
N777 N 0.83341 0.26178 0.44077 0.0
C778 C 0.88365 0.2397 0.37091 0.0
C779 C 0.85462 0.25785 0.41878 0.0
N780 N 0.93593 0.18309 0.3865 0.0
N781 N 0.83749 0.33601 0.40736 0.0
H782 H 0.83766 0.23753 0.45449 0.0
H783 H 0.80953 0.28742 0.44467 0.0
H784 H 0.83732 0.36362 0.39545 0.0
H785 H 0.83256 0.34564 0.42539 0.0
H786 H 0.95335 0.18055 0.36999 0.0
H787 H 0.95159 0.16579 0.4008 0.0
H788 H 0.89961 0.19035 0.34399 0.0
H789 H 0.87089 0.2382 0.33298 0.0
C790 C 0.05608 0.56576 0.64909 0.0
C791 C 0.04678 0.5735 0.6742 0.0
C792 C 0.96691 0.54949 0.66716 0.0
C793 C 0.97779 0.54007 0.64251 0.0
N794 N 0.03644 0.52188 0.61341 0.0
N795 N 0.9962 0.55819 0.70807 0.0
C796 C 0.02403 0.54122 0.635 0.0
C797 C 1.00307 0.56067 0.68362 0.0
N798 N 0.09238 0.58613 0.6377 0.0
N799 N 0.92224 0.5503 0.67466 0.0
H800 H 0.02243 0.56365 0.72057 0.0
H801 H 0.96602 0.54563 0.71576 0.0
H802 H 0.89509 0.54086 0.66349 0.0
H803 H 0.91219 0.56258 0.69162 0.0
H804 H 0.09791 0.58367 0.61905 0.0
H805 H 0.11254 0.61111 0.64578 0.0
H806 H 0.07056 0.5194 0.60773 0.0
H807 H 0.01284 0.5043 0.60264 0.0
C808 C 0.64514 0.21241 0.63001 0.0
C809 C 0.64056 0.22063 0.6048 0.0
C810 C 0.65944 0.30159 0.61191 0.0
C811 C 0.66867 0.29152 0.63671 0.0
N812 N 0.68444 0.23321 0.66666 0.0
N813 N 0.65305 0.27147 0.57096 0.0
C814 C 0.66644 0.24551 0.64476 0.0
C815 C 0.65073 0.26478 0.59544 0.0
N816 N 0.62592 0.17466 0.64045 0.0
N817 N 0.65626 0.34591 0.60423 0.0
H818 H 0.64771 0.24519 0.55848 0.0
H819 H 0.66455 0.30188 0.56321 0.0
H820 H 0.66158 0.37389 0.61556 0.0
H821 H 0.64462 0.35487 0.58701 0.0
H822 H 0.62472 0.16989 0.65919 0.0
H823 H 0.60572 0.15163 0.63086 0.0
H824 H 0.68685 0.19922 0.67231 0.0
H825 H 0.70143 0.25632 0.67784 0.0
C826 C 0.05404 0.33891 0.87328 0.0
C827 C 0.07187 0.37646 0.86 0.0
C828 C 0.02948 0.42963 0.8863 0.0
C829 C 0.01031 0.39169 0.89906 0.0
N830 N 0.99185 0.31125 0.89809 0.0
N831 N 0.06974 0.45663 0.85038 0.0
C832 C 0.01894 0.34663 0.89066 0.0
C833 C 0.05745 0.4216 0.86547 0.0
N834 N 0.07222 0.29603 0.87045 0.0
N835 N 0.02231 0.47328 0.89438 0.0
H836 H 0.08991 0.45154 0.83492 0.0
H837 H 0.05661 0.48972 0.85179 0.0
H838 H 1.00021 0.4814 0.90855 0.0
H839 H 0.04034 0.50149 0.88791 0.0
H840 H 0.06397 0.26898 0.88191 0.0
H841 H 0.09855 0.28813 0.85832 0.0
H842 H 0.99309 0.27938 0.88968 0.0
H843 H 0.9644 0.31518 0.9101 0.0
C844 C 0.81964 0.80207 0.12537 0.0
C845 C 0.83981 0.79075 0.10228 0.0
C846 C 0.82725 0.70918 0.11159 0.0
C847 C 0.80577 0.72139 0.13378 0.0
N848 N 0.76489 0.7789 0.15601 0.0
N849 N 0.8449 0.73327 0.07064 0.0
C850 C 0.79602 0.76772 0.13847 0.0
C851 C 0.83807 0.74417 0.09445 0.0
N852 N 0.82572 0.84369 0.13631 0.0
N853 N 0.83904 0.6647 0.10717 0.0
H854 H 0.84832 0.75799 0.05714 0.0
H855 H 0.84093 0.70014 0.06393 0.0
H856 H 0.83074 0.63813 0.11899 0.0
H857 H 0.85947 0.65492 0.09248 0.0
H858 H 0.81476 0.85027 0.15399 0.0
H859 H 0.84646 0.86988 0.13001 0.0
H860 H 0.75351 0.81233 0.15901 0.0
H861 H 0.74637 0.75376 0.16512 0.0
C862 C 0.55441 0.59244 0.37185 0.0
C863 C 0.54097 0.58932 0.39672 0.0
C864 C 0.4636 0.61387 0.38552 0.0
C865 C 0.47478 0.61166 0.36048 0.0
N866 N 0.5296 0.58923 0.32979 0.0
N867 N 0.47768 0.58245 0.42503 0.0
C868 C 0.51986 0.59795 0.35358 0.0
C869 C 0.49389 0.59491 0.40274 0.0
N870 N 0.59978 0.59289 0.36558 0.0
N871 N 0.42579 0.6374 0.39332 0.0
H872 H 0.49834 0.5673 0.43814 0.0
H873 H 0.44277 0.58254 0.42932 0.0
H874 H 0.40571 0.65696 0.38172 0.0
H875 H 0.41867 0.64307 0.41163 0.0
H876 H 0.61111 0.60006 0.34805 0.0
H877 H 0.62628 0.59012 0.37812 0.0
H878 H 0.56067 0.57502 0.32406 0.0
H879 H 0.50507 0.59202 0.31612 0.0
C880 C 0.3688 0.28292 0.09253 0.0
C881 C 0.34959 0.23833 0.09333 0.0
C882 C 0.2987 0.26268 0.12661 0.0
C883 C 0.32556 0.30262 0.12936 0.0
N884 N 0.38441 0.35317 0.11438 0.0
N885 N 0.28049 0.19624 0.10198 0.0
C886 C 0.35953 0.31388 0.11186 0.0
C887 C 0.30951 0.23127 0.10764 0.0
N888 N 0.39295 0.29683 0.07261 0.0
N889 N 0.26422 0.25407 0.1428 0.0
H890 H 0.28517 0.17612 0.08653 0.0
H891 H 0.2492 0.19059 0.11059 0.0
H892 H 0.25376 0.2782 0.15566 0.0
H893 H 0.24702 0.22297 0.14399 0.0
H894 H 0.40543 0.32993 0.07041 0.0
H895 H 0.39418 0.27768 0.05668 0.0
H896 H 0.41398 0.3601 0.10437 0.0
H897 H 0.3767 0.37793 0.12742 0.0
C898 C 0.48562 0.55397 0.87361 0.0
C899 C 0.45128 0.58363 0.88291 0.0
C900 C 0.4773 0.64489 0.85612 0.0
C901 C 0.51036 0.61478 0.84561 0.0
N902 N 0.53923 0.53776 0.84083 0.0
N903 N 0.4051 0.65134 0.87759 0.0
C904 C 0.51243 0.56828 0.85326 0.0
C905 C 0.44393 0.62699 0.87218 0.0
N906 N 0.49357 0.51294 0.88469 0.0
N907 N 0.4799 0.69119 0.8526 0.0
H908 H 0.37925 0.63821 0.88868 0.0
H909 H 0.39623 0.68175 0.86885 0.0
H910 H 0.506 0.70698 0.84278 0.0
H911 H 0.45932 0.71454 0.86197 0.0
H912 H 0.52158 0.49202 0.88062 0.0
H913 H 0.47318 0.50104 0.89894 0.0
H914 H 0.5392 0.5027 0.84425 0.0
H915 H 0.55833 0.54694 0.82556 0.0
C916 C 0.15375 0.75684 0.64898 0.0
C917 C 0.16793 0.71194 0.64234 0.0
C918 C 0.15427 0.73253 0.59951 0.0
C919 C 0.13268 0.77405 0.60692 0.0
N920 N 0.10285 0.81955 0.6403 0.0
N921 N 0.17592 0.65512 0.61058 0.0
C922 C 0.13009 0.78459 0.63207 0.0
C923 C 0.167 0.69922 0.61736 0.0
N924 N 0.16328 0.77361 0.67153 0.0
N925 N 0.16417 0.72542 0.57558 0.0
H926 H 0.18546 0.62958 0.62272 0.0
H927 H 0.17024 0.64304 0.59306 0.0
H928 H 0.15678 0.74942 0.56214 0.0
H929 H 0.18389 0.69791 0.56945 0.0
H930 H 0.15797 0.80776 0.67633 0.0
H931 H 0.18104 0.75492 0.68452 0.0
H932 H 0.09597 0.82487 0.65865 0.0
H933 H 0.08284 0.84004 0.62909 0.0
C934 C 0.05691 0.38412 0.37048 0.0
C935 C 0.05331 0.42598 0.38327 0.0
C936 C 0.99297 0.45094 0.35519 0.0
C937 C 0.99083 0.40582 0.34554 0.0
N938 N 0.01603 0.3266 0.34803 0.0
N939 N 0.01719 0.49951 0.3886 0.0
C940 C 0.02195 0.37168 0.35396 0.0
C941 C 0.02153 0.45985 0.37566 0.0
N942 N 0.09383 0.35606 0.37425 0.0
N943 N 0.9681 0.48521 0.34459 0.0
H944 H 0.03839 0.50735 0.40325 0.0
H945 H 0.99106 0.5233 0.38571 0.0
H946 H 0.94756 0.47975 0.32938 0.0
H947 H 0.97111 0.51953 0.34942 0.0
H948 H 0.1003 0.32688 0.36389 0.0
H949 H 0.12063 0.36499 0.38583 0.0
H950 H 0.03495 0.30024 0.35595 0.0
H951 H 0.98918 0.31454 0.33739 0.0
C952 C 0.32382 0.70675 0.40814 0.0
C953 C 0.32174 0.71782 0.38295 0.0
C954 C 0.35184 0.79371 0.3917 0.0
C955 C 0.35014 0.785 0.41692 0.0
N956 N 0.32525 0.7359 0.4495 0.0
N957 N 0.31824 0.77798 0.35294 0.0
C958 C 0.33316 0.7423 0.42533 0.0
C959 C 0.32999 0.76353 0.37563 0.0
N960 N 0.3196 0.66248 0.4157 0.0
N961 N 0.37771 0.82868 0.38268 0.0
H962 H 0.30185 0.75677 0.34057 0.0
H963 H 0.32055 0.81214 0.34756 0.0
H964 H 0.39867 0.84874 0.39358 0.0
H965 H 0.38343 0.83314 0.36415 0.0
H966 H 0.32645 0.65218 0.43342 0.0
H967 H 0.31233 0.63543 0.40408 0.0
H968 H 0.30873 0.7071 0.45639 0.0
H969 H 0.33155 0.76124 0.4624 0.0
C970 C 0.98988 0.57889 0.13391 0.0
C971 C 0.01911 0.61534 0.12682 0.0
C972 C 0.98327 0.66511 0.1573 0.0
C973 C 0.95538 0.62818 0.16534 0.0
N974 N 0.9419 0.54676 0.16563 0.0
N975 N 0.05411 0.68726 0.13759 0.0
C976 C 0.96189 0.58398 0.15502 0.0
C977 C 0.01925 0.65649 0.14047 0.0
N978 N 0.98689 0.54042 0.11992 0.0
N979 N 0.97354 0.70912 0.164 0.0
H980 H 0.08179 0.68149 0.12593 0.0
H981 H 0.05827 0.71563 0.14884 0.0
H982 H 0.94539 0.7187 0.1745 0.0
H983 H 0.99072 0.73706 0.15676 0.0
H984 H 0.96242 0.51505 0.12281 0.0
H985 H 0.00625 0.53558 0.10419 0.0
H986 H 0.9486 0.51323 0.16019 0.0
H987 H 0.92258 0.54915 0.18156 0.0
C988 C 0.21518 0.23682 0.88589 0.0
C989 C 0.21611 0.28366 0.89201 0.0
C990 C 0.18774 0.26288 0.93269 0.0
C991 C 0.17667 0.21814 0.92417 0.0
N992 N 0.16887 0.16972 0.88826 0.0
N993 N 0.19898 0.34247 0.92154 0.0
C994 C 0.18774 0.20676 0.89963 0.0
C995 C 0.20163 0.29719 0.91562 0.0
N996 N 0.23883 0.22135 0.86613 0.0
N997 N 0.18657 0.27249 0.95691 0.0
H998 H 0.20955 0.36842 0.90986 0.0
H999 H 0.18361 0.35413 0.93749 0.0
H1000 H 0.17946 0.24783 0.97002 0.0
H1001 H 0.19785 0.30352 0.96404 0.0
H1002 H 0.24175 0.18665 0.86187 0.0
H1003 H 0.25955 0.24298 0.85588 0.0
H1004 H 0.17388 0.16303 0.86985 0.0
H1005 H 0.14301 0.14973 0.89569 0.0
C1006 C 0.48596 0.45313 0.6483 0.0
C1007 C 0.45618 0.41755 0.64105 0.0
C1008 C 0.49498 0.36351 0.66781 0.0
C1009 C 0.52512 0.39899 0.67533 0.0
N1010 N 0.5409 0.47985 0.67812 0.0
N1011 N 0.4213 0.34505 0.65025 0.0
C1012 C 0.5177 0.44471 0.66737 0.0
C1013 C 0.4569 0.37488 0.65312 0.0
N1014 N 0.48557 0.49392 0.63622 0.0
N1015 N 0.50453 0.31857 0.67267 0.0
H1016 H 0.39225 0.35344 0.64014 0.0
H1017 H 0.41825 0.31476 0.66011 0.0
H1018 H 0.53329 0.30753 0.6822 0.0
H1019 H 0.48614 0.29161 0.66505 0.0
H1020 H 0.51021 0.51922 0.63876 0.0
H1021 H 0.46186 0.50136 0.62261 0.0
H1022 H 0.53437 0.51421 0.67441 0.0
H1023 H 0.56351 0.47466 0.69253 0.0
C1024 C 0.24758 0.24742 0.23197 0.0
C1025 C 0.28292 0.27545 0.24141 0.0
C1026 C 0.25906 0.25646 0.28281 0.0
C1027 C 0.22048 0.23213 0.27356 0.0
N1028 N 0.1763 0.20687 0.23889 0.0
N1029 N 0.31619 0.31487 0.27549 0.0
C1030 C 0.21397 0.22874 0.24799 0.0
C1031 C 0.28696 0.28225 0.26673 0.0
N1032 N 0.24763 0.2367 0.20783 0.0
N1033 N 0.2701 0.25438 0.30685 0.0
H1034 H 0.3371 0.33486 0.26438 0.0
H1035 H 0.31645 0.32528 0.29357 0.0
H1036 H 0.2511 0.23654 0.31965 0.0
H1037 H 0.30081 0.26692 0.31382 0.0
H1038 H 0.22597 0.21252 0.20006 0.0
H1039 H 0.27236 0.24903 0.1958 0.0
H1040 H 0.16663 0.2086 0.22074 0.0
H1041 H 0.15325 0.18847 0.24952 0.0
C1042 C 0.00656 0.9359 0.49118 0.0
C1043 C 1.00069 0.93722 0.51667 0.0
C1044 C 0.94965 0.00388 0.51285 0.0
C1045 C 0.95521 1.00231 0.48727 0.0
N1046 N 0.97623 0.95725 0.45204 0.0
N1047 N 0.9569 0.96367 0.55112 0.0
C1048 C 0.97946 0.9652 0.47637 0.0
C1049 C 0.9693 0.96869 0.52733 0.0
N1050 N 0.03975 0.90864 0.48109 0.0
N1051 N 0.9252 0.03875 0.52332 0.0
H1052 H 0.96901 0.93692 0.56188 0.0
H1053 H 0.93116 0.9828 0.55951 0.0
H1054 H 0.9062 0.06247 0.51336 0.0
H1055 H 0.92517 0.04527 0.54189 0.0
H1056 H 0.04927 0.91057 0.46289 0.0
H1057 H 0.06057 0.88683 0.49124 0.0
H1058 H 0.98983 0.9282 0.44368 0.0
H1059 H 0.95564 0.97661 0.44056 0.0
C1060 C 0.21789 0.7201 0.77663 0.0
C1061 C 0.22151 0.72288 0.75086 0.0
C1062 C 0.28852 0.77369 0.75522 0.0
C1063 C 0.28713 0.76767 0.78071 0.0
N1064 N 0.25584 0.72915 0.81554 0.0
N1065 N 0.26549 0.74719 0.71569 0.0
C1066 C 0.25297 0.73959 0.79141 0.0
C1067 C 0.25837 0.74809 0.74021 0.0
N1068 N 0.18169 0.69789 0.78714 0.0
N1069 N 0.31736 0.80548 0.74524 0.0
H1070 H 0.24323 0.73206 0.70343 0.0
H1071 H 0.29549 0.75889 0.70748 0.0
H1072 H 0.34034 0.82496 0.75535 0.0
H1073 H 0.31562 0.81587 0.7272 0.0
H1074 H 0.17388 0.70022 0.80553 0.0
H1075 H 0.15783 0.67873 0.77751 0.0
H1076 H 0.23533 0.70487 0.82409 0.0
H1077 H 0.28186 0.74155 0.82669 0.0
C1078 C 0.52635 0.01804 0.035 0.0
C1079 C 0.49275 0.04894 0.02605 0.0
C1080 C 0.49987 0.01571 0.9852 0.0
C1081 C 0.53293 0.98436 0.99423 0.0
N1082 N 0.5834 0.95936 0.02624 0.0
N1083 N 0.44222 0.07364 0.99393 0.0
C1084 C 0.54753 0.98629 0.0188 0.0
C1085 C 0.4784 0.04718 1.00141 0.0
N1086 N 0.53711 0.01851 0.05915 0.0
N1087 N 0.48971 0.01586 0.96097 0.0
H1088 H 0.42574 0.09741 1.00509 0.0
H1089 H 0.4262 0.07023 0.97719 0.0
H1090 H 0.50281 0.99172 0.94881 0.0
H1091 H 0.47043 0.04123 0.95249 0.0
H1092 H 0.55697 0.99366 0.06767 0.0
H1093 H 0.5243 0.043 0.0712 0.0
H1094 H 0.59935 0.96226 0.04302 0.0
H1095 H 0.59962 0.93555 0.01499 0.0
C1096 C 0.24608 0.74305 0.28501 0.0
C1097 C 0.28547 0.72042 0.27512 0.0
C1098 C 0.26043 0.74335 0.2342 0.0
C1099 C 0.22548 0.77121 0.24453 0.0
N1100 N 0.18991 0.80352 0.28026 0.0
N1101 N 0.33022 0.69921 0.23982 0.0
C1102 C 0.21953 0.77254 0.27004 0.0
C1103 C 0.29289 0.72103 0.24957 0.0
N1104 N 0.23288 0.73598 0.30852 0.0
N1105 N 0.26075 0.7359 0.20973 0.0
H1106 H 0.35175 0.67778 0.24977 0.0
H1107 H 0.34092 0.70373 0.22195 0.0
H1108 H 0.23591 0.74972 0.19828 0.0
H1109 H 0.28232 0.7125 0.20111 0.0
H1110 H 0.20147 0.74724 0.31543 0.0
H1111 H 0.2504 0.71533 0.3207 0.0
H1112 H 0.18879 0.81025 0.29881 0.0
H1113 H 0.16951 0.82582 0.27018 0.0
C1114 C 0.4733 0.96101 0.52162 0.0
C1115 C 0.46735 0.9734 0.49694 0.0
C1116 C 0.51566 0.04138 0.50325 0.0
C1117 C 0.5217 0.02867 0.52787 0.0
N1118 N 0.5175 0.96882 0.55827 0.0
N1119 N 0.47501 0.03124 0.46555 0.0
C1120 C 0.50391 0.98631 0.53644 0.0
C1121 C 0.48617 0.01526 0.4881 0.0
N1122 N 0.44673 0.92723 0.53153 0.0
N1123 N 0.54155 0.07609 0.49371 0.0
H1124 H 0.45528 0.0135 0.45308 0.0
H1125 H 0.48213 0.06436 0.45973 0.0
H1126 H 0.56559 0.09443 0.50375 0.0
H1127 H 0.54344 0.08344 0.47527 0.0
H1128 H 0.4454 0.92039 0.55005 0.0
H1129 H 0.42164 0.90968 0.52182 0.0
H1130 H 0.50985 0.93567 0.56389 0.0
H1131 H 0.54065 0.98478 0.56974 0.0
C1132 C 0.26437 0.27854 0.75619 0.0
C1133 C 0.27091 0.27669 0.78176 0.0
C1134 C 0.33615 0.22431 0.77608 0.0
C1135 C 0.33045 0.22728 0.75058 0.0
N1136 N 0.29712 0.26576 0.71622 0.0
N1137 N 0.32126 0.2578 0.81531 0.0
C1138 C 0.29679 0.25688 0.74059 0.0
C1139 C 0.30954 0.25304 0.79146 0.0
N1140 N 0.22741 0.30124 0.74671 0.0
N1141 N 0.3648 0.19204 0.78585 0.0
H1142 H 0.30281 0.27748 0.82764 0.0
H1143 H 0.35209 0.24566 0.82243 0.0
H1144 H 0.38463 0.16957 0.77551 0.0
H1145 H 0.3656 0.18438 0.80429 0.0
H1146 H 0.21738 0.29838 0.72866 0.0
H1147 H 0.20541 0.32173 0.75699 0.0
H1148 H 0.27657 0.29053 0.70804 0.0
H1149 H 0.32133 0.25159 0.70439 0.0
C1150 C 0.99883 0.01322 0.98987 0.0
C1151 C 0.03675 0.03569 1.0008 0.0
C1152 C 0.02701 0.98966 0.03777 0.0
C1153 C 0.98912 0.9672 0.02685 0.0
N1154 N 0.93526 0.95991 0.99401 0.0
N1155 N 0.09159 0.04152 0.03331 0.0
C1156 C 0.97428 0.97931 1.00318 0.0
C1157 C 0.05193 0.02311 0.02434 0.0
N1158 N 0.987 0.02384 0.96652 0.0
N1159 N 0.03821 0.97979 0.06129 0.0
H1160 H 0.11027 0.06668 0.02423 0.0
H1161 H 0.10779 0.03021 0.049 0.0
H1162 H 0.02246 0.95372 0.07118 0.0
H1163 H 0.06146 0.99858 0.07153 0.0
H1164 H 0.96355 0.00545 0.95623 0.0
H1165 H 1.00214 0.0505 0.95682 0.0
H1166 H 0.9191 0.97054 0.97818 0.0
H1167 H 0.91726 0.93404 1.0029 0.0
C1168 C 0.68719 0.78952 0.7216 0.0
C1169 C 0.71267 0.82602 0.73184 0.0
C1170 C 0.68259 0.80765 0.77234 0.0
C1171 C 0.65806 0.77034 0.76223 0.0
N1172 N 0.62847 0.73156 0.72691 0.0
N1173 N 0.72631 0.87716 0.76525 0.0
C1174 C 0.65728 0.76344 0.7367 0.0
C1175 C 0.7076 0.83738 0.75674 0.0
N1176 N 0.6939 0.77782 0.69783 0.0
N1177 N 0.6826 0.81408 0.79692 0.0
H1178 H 0.74399 0.89993 0.75405 0.0
H1179 H 0.72105 0.88975 0.7827 0.0
H1180 H 0.66204 0.79512 0.80871 0.0
H1181 H 0.70424 0.83681 0.80582 0.0
H1182 H 0.68135 0.74793 0.69003 0.0
H1183 H 0.71449 0.79676 0.68607 0.0
H1184 H 0.62265 0.72823 0.70838 0.0
H1185 H 0.60761 0.71034 0.73736 0.0
C1186 C 0.74749 0.21648 0.26616 0.0
C1187 C 0.75436 0.21311 0.24066 0.0
C1188 C 0.81957 0.26597 0.24359 0.0
C1189 C 0.81418 0.26773 0.26917 0.0
N1190 N 0.77899 0.23659 0.30531 0.0
N1191 N 0.80649 0.22351 0.20675 0.0
C1192 C 0.77976 0.24074 0.2806 0.0
C1193 C 0.79347 0.23408 0.2299 0.0
N1194 N 0.71027 0.19611 0.27677 0.0
N1195 N 0.84738 0.29667 0.23201 0.0
H1196 H 0.78978 0.19958 0.19604 0.0
H1197 H 0.8373 0.23458 0.19913 0.0
H1198 H 0.86592 0.32191 0.24102 0.0
H1199 H 0.84815 0.30038 0.21322 0.0
H1200 H 0.69946 0.20321 0.2944 0.0
H1201 H 0.68893 0.17319 0.26776 0.0
H1202 H 0.75861 0.21309 0.31454 0.0
H1203 H 0.80163 0.25363 0.3167 0.0
C1204 C 0.75735 0.26795 0.78278 0.0
C1205 C 0.79469 0.24248 0.77257 0.0
C1206 C 0.77335 0.2701 0.73185 0.0
C1207 C 0.73627 0.29531 0.74229 0.0
N1208 N 0.70313 0.33 0.77793 0.0
N1209 N 0.83221 0.2118 0.73704 0.0
C1210 C 0.73107 0.29735 0.76779 0.0
C1211 C 0.80154 0.24209 0.74701 0.0
N1212 N 0.74519 0.26323 0.80665 0.0
N1213 N 0.78242 0.27355 0.70758 0.0
H1214 H 0.85205 0.18929 0.74731 0.0
H1215 H 0.83517 0.20542 0.71854 0.0
H1216 H 0.76224 0.29213 0.69557 0.0
H1217 H 0.81214 0.26102 0.6994 0.0
H1218 H 0.71416 0.27529 0.81365 0.0
H1219 H 0.76339 0.24461 0.81943 0.0
H1220 H 0.70269 0.33751 0.7964 0.0
H1221 H 0.68429 0.35351 0.76776 0.0
C1222 C 0.68408 0.77017 0.25337 0.0
C1223 C 0.69095 0.76672 0.27882 0.0
C1224 C 0.76049 0.72035 0.27175 0.0
C1225 C 0.75311 0.72293 0.24623 0.0
N1226 N 0.70143 0.74157 0.21328 0.0
N1227 N 0.72904 0.73022 0.31232 0.0
C1228 C 0.71273 0.74476 0.23726 0.0
C1229 C 0.72738 0.7395 0.28802 0.0
N1230 N 0.65217 0.80009 0.24433 0.0
N1231 N 0.79892 0.69916 0.28057 0.0
H1232 H 0.70461 0.74257 0.32459 0.0
H1233 H 0.7517 0.70688 0.3201 0.0
H1234 H 0.82138 0.68006 0.26983 0.0
H1235 H 0.80962 0.7018 0.29851 0.0
H1236 H 0.64986 0.80864 0.22604 0.0
H1237 H 0.63072 0.82017 0.25513 0.0
H1238 H 0.66951 0.75117 0.20645 0.0
H1239 H 0.72218 0.72604 0.20035 0.0
C1240 C 0.54893 0.45514 0.99236 0.0
C1241 C 0.54109 0.44845 0.01755 0.0
C1242 C 0.48114 0.50805 0.01707 0.0
C1243 C 0.48762 0.51343 0.99169 0.0
N1244 N 0.52275 0.4882 0.95434 0.0
N1245 N 0.49403 0.46161 0.05293 0.0
C1246 C 0.51987 0.48554 0.97906 0.0
C1247 C 0.50563 0.47309 0.02965 0.0
N1248 N 0.5856 0.4342 0.98142 0.0
N1249 N 0.4517 0.53662 0.02921 0.0
H1250 H 0.51052 0.43567 0.06258 0.0
H1251 H 0.4655 0.47472 0.06201 0.0
H1252 H 0.43094 0.56066 0.02051 0.0
H1253 H 0.44971 0.5385 0.04804 0.0
H1254 H 0.59652 0.44148 0.96386 0.0
H1255 H 0.60743 0.41169 0.99052 0.0
H1256 H 0.54157 0.46533 0.94374 0.0
H1257 H 0.50386 0.51164 0.94414 0.0
C1258 C 0.05044 0.50395 0.51228 0.0
C1259 C 0.02526 0.47308 0.49723 0.0
C1260 C 0.9533 0.50342 0.51455 0.0
C1261 C 0.97893 0.52922 0.53165 0.0
N1262 N 0.05195 0.54663 0.54989 0.0
N1263 N 0.95214 0.44233 0.48473 0.0
C1264 C 0.02748 0.52762 0.5313 0.0
C1265 C 0.97649 0.47225 0.49873 0.0
N1266 N 0.0962 0.51163 0.50849 0.0
N1267 N 0.90702 0.51054 0.51253 0.0
H1268 H 0.96706 0.42234 0.47115 0.0
H1269 H 0.91733 0.43578 0.4873 0.0
H1270 H 0.8892 0.53425 0.52314 0.0
H1271 H 0.88694 0.49638 0.49888 0.0
H1272 H 0.11407 0.53793 0.51702 0.0
H1273 H 0.11601 0.49499 0.49552 0.0
H1274 H 0.08708 0.54141 0.5522 0.0
H1275 H 0.03666 0.56372 0.56444 0.0
C1276 C 0.02763 0.57232 0.99078 0.0
C1277 C 1.00308 0.59472 1.00955 0.0
C1278 C 0.93019 0.5699 0.99123 0.0
C1279 C 0.95512 0.54152 0.97479 0.0
N1280 N 0.02837 0.51336 0.96015 0.0
N1281 N 0.93124 0.61422 0.02865 0.0
C1282 C 1.00407 0.54241 0.97481 0.0
C1283 C 0.95433 0.594 1.00984 0.0
N1284 N 0.07354 0.58054 0.98782 0.0
N1285 N 0.8835 0.57308 0.98944 0.0
H1286 H 0.94781 0.63245 0.04234 0.0
H1287 H 0.89615 0.61055 0.03168 0.0
H1288 H 0.86443 0.55455 0.97688 0.0
H1289 H 0.86377 0.59649 0.99921 0.0
H1290 H 0.09249 0.56912 0.97295 0.0
H1291 H 0.09188 0.60277 0.99895 0.0
H1292 H 0.06355 0.50771 0.9618 0.0
H1293 H 0.01299 0.49245 0.9473 0.0
C1294 C 0.5107 0.49652 0.49234 0.0
C1295 C 0.53324 0.53387 0.50387 0.0
C1296 C 0.51177 0.50252 0.54375 0.0
C1297 C 0.48497 0.46866 0.53201 0.0
N1298 N 0.45259 0.43778 0.49526 0.0
N1299 N 0.55547 0.57279 0.54073 0.0
C1300 C 0.48289 0.46668 0.50636 0.0
C1301 C 0.53352 0.53715 0.52965 0.0
N1302 N 0.51619 0.48869 0.46804 0.0
N1303 N 0.5184 0.50004 0.56829 0.0
H1304 H 0.57664 0.59568 0.53153 0.0
H1305 H 0.5515 0.5808 0.55901 0.0
H1306 H 0.50383 0.47463 0.5791 0.0
H1307 H 0.54133 0.52057 0.57777 0.0
H1308 H 0.5054 0.45878 0.45952 0.0
H1309 H 0.53494 0.50967 0.45653 0.0
H1310 H 0.44503 0.43923 0.47682 0.0
H1311 H 0.43154 0.41509 0.50468 0.0
C1312 C 0.18957 0.99136 0.28565 0.0
C1313 C 0.18891 0.03866 0.27982 0.0
C1314 C 0.18828 0.01967 0.23648 0.0
C1315 C 0.19215 0.97255 0.24231 0.0
N1316 N 0.21113 0.91539 0.27225 0.0
N1317 N 0.20302 0.09707 0.24971 0.0
C1318 C 0.19735 0.95894 0.26687 0.0
C1319 C 0.19298 0.05263 0.25521 0.0
N1320 N 0.18042 0.97698 0.30873 0.0
N1321 N 0.17782 0.03316 0.21341 0.0
H1322 H 0.20958 0.12161 0.26298 0.0
H1323 H 0.21026 0.10809 0.23214 0.0
H1324 H 0.17254 0.01025 0.1992 0.0
H1325 H 0.16997 0.06697 0.20897 0.0
H1326 H 0.17597 0.94262 0.3132 0.0
H1327 H 0.17274 0.99932 0.32293 0.0
H1328 H 0.21931 0.90485 0.28978 0.0
H1329 H 0.21952 0.89149 0.25887 0.0
C1330 C 0.22643 0.87869 0.52384 0.0
C1331 C 0.20292 0.91902 0.53123 0.0
C1332 C 0.25139 0.96361 0.50341 0.0
C1333 C 0.26941 0.92236 0.49343 0.0
N1334 N 0.26458 0.83984 0.49078 0.0
N1335 N 0.18743 0.99938 0.52427 0.0
C1336 C 0.25431 0.87962 0.50273 0.0
C1337 C 0.2139 0.96149 0.52006 0.0
N1338 N 0.22315 0.83961 0.53735 0.0
N1339 N 0.27103 0.00471 0.49787 0.0
H1340 H 0.15889 0.99933 0.53569 0.0
H1341 H 0.19125 0.02973 0.51456 0.0
H1342 H 0.2996 0.00781 0.48658 0.0
H1343 H 0.26195 0.03515 0.50655 0.0
H1344 H 0.24284 0.81047 0.53385 0.0
H1345 H 0.20491 0.8381 0.55365 0.0
H1346 H 0.25081 0.80829 0.49573 0.0
H1347 H 0.28223 0.83896 0.47431 0.0
C1348 C 0.32113 0.98204 0.74227 0.0
C1349 C 0.32823 0.02901 0.74761 0.0
C1350 C 0.33032 0.01131 0.79111 0.0
C1351 C 0.32186 0.96464 0.78574 0.0
N1352 N 0.29286 0.9095 0.75718 0.0
N1353 N 0.3228 0.08956 0.7773 0.0
C1354 C 0.31191 0.95131 0.76159 0.0
C1355 C 0.32751 0.04406 0.77213 0.0
N1356 N 0.32603 0.96591 0.71913 0.0
N1357 N 0.34349 0.02431 0.81385 0.0
H1358 H 0.31807 0.11417 0.76383 0.0
H1359 H 0.31809 0.10195 0.79486 0.0
H1360 H 0.3466 1.00149 0.82827 0.0
H1361 H 0.35498 0.05722 0.81784 0.0
H1362 H 0.32583 0.93111 0.71495 0.0
H1363 H 0.33469 0.98661 0.70445 0.0
H1364 H 0.28102 0.89969 0.74013 0.0
H1365 H 0.28418 0.88694 0.77112 0.0
C1366 C 0.28642 0.03241 0.02117 0.0
C1367 C 0.3003 0.07666 0.02915 0.0
C1368 C 0.26111 0.11063 0.99447 0.0
C1369 C 0.24027 0.06813 0.9892 0.0
N1370 N 0.2291 0.98864 0.99934 0.0
N1371 N 0.28996 0.15884 0.02627 0.0
C1372 C 0.25193 0.0288 1.00295 0.0
C1373 C 0.28471 0.1161 0.01655 0.0
N1374 N 0.30724 0.99403 0.0301 0.0
N1375 N 0.2582 0.14595 0.9783 0.0
H1376 H 0.30362 0.16451 0.04345 0.0
H1377 H 0.27549 0.18807 0.01855 0.0
H1378 H 0.24257 0.14232 0.9614 0.0
H1379 H 0.27586 0.17666 0.98053 0.0
H1380 H 0.30118 0.9614 0.02318 0.0
H1381 H 0.33389 0.99509 0.04265 0.0
H1382 H 0.2327 0.96043 1.01074 0.0
H1383 H 0.20428 0.98464 0.98592 0.0
C1384 C 0.84043 0.9962 0.80146 0.0
C1385 C 0.83578 0.041 0.79168 0.0
C1386 C 0.85052 0.01047 0.75099 0.0
C1387 C 0.84993 0.96518 0.76024 0.0
N1388 N 0.83403 0.91471 0.79394 0.0
N1389 N 0.82388 0.08821 0.7563 0.0
C1390 C 0.84203 0.95785 0.78541 0.0
C1391 C 0.83703 0.04731 0.76617 0.0
N1392 N 0.84536 0.99016 0.82587 0.0
N1393 N 0.86567 0.01867 0.72791 0.0
H1394 H 0.81135 0.11533 0.76674 0.0
H1395 H 0.82036 0.09327 0.73769 0.0
H1396 H 0.87822 0.99286 0.71659 0.0
H1397 H 0.87072 0.05154 0.72109 0.0
H1398 H 0.8538 0.95871 0.83361 0.0
H1399 H 0.84508 0.01718 0.83822 0.0
H1400 H 0.82332 0.9082 0.81165 0.0
H1401 H 0.83375 0.88585 0.78282 0.0
C1402 C 0.72062 0.03984 0.51063 0.0
C1403 C 0.71133 0.0822 0.52238 0.0
C1404 C 0.75435 0.12233 0.49063 0.0
C1405 C 0.76926 0.07965 0.48109 0.0
N1406 N 0.77223 0.99721 0.48454 0.0
N1407 N 0.72501 0.16347 0.52554 0.0
C1408 C 0.75374 0.03815 0.49165 0.0
C1409 C 0.72952 0.12348 0.51284 0.0
N1410 N 0.6966 1.00148 0.51691 0.0
N1411 N 0.76327 0.16178 0.47816 0.0
H1412 H 0.70833 0.16558 0.54227 0.0
H1413 H 0.74163 0.19364 0.52068 0.0
H1414 H 0.78048 0.16201 0.46153 0.0
H1415 H 0.74959 0.1935 0.48299 0.0
H1416 H 0.69867 0.97092 0.50721 0.0
H1417 H 0.67111 1.00137 0.53023 0.0
H1418 H 0.76603 0.96661 0.49366 0.0
H1419 H 0.79682 0.9942 0.47086 0.0
C1420 C 0.68573 0.97532 0.23633 0.0
C1421 C 0.69404 0.02242 0.24064 0.0
C1422 C 0.69073 0.00898 0.2845 0.0
C1423 C 0.68492 0.96151 0.28019 0.0
N1424 N 0.6942 0.89868 0.25213 0.0
N1425 N 0.72091 0.07993 0.26868 0.0
C1426 C 0.6878 0.94437 0.25612 0.0
C1427 C 0.70178 0.03797 0.26471 0.0
N1428 N 0.67336 0.96014 0.21385 0.0
N1429 N 0.6834 0.02707 0.30704 0.0
H1430 H 0.73211 0.10087 0.25454 0.0
H1431 H 0.73067 0.09128 0.28583 0.0
H1432 H 0.67342 0.00753 0.32194 0.0
H1433 H 0.68283 0.06221 0.31033 0.0
H1434 H 0.66254 0.92669 0.21065 0.0
H1435 H 0.66959 0.98165 0.19892 0.0
H1436 H 0.70069 0.88512 0.23496 0.0
H1437 H 0.69873 0.8754 0.26626 0.0
C1438 C 0.74105 0.89444 1.00005 0.0
C1439 C 0.72563 0.9359 0.9894 0.0
C1440 C 0.77608 0.97881 0.0169 0.0
C1441 C 0.78683 0.93758 0.02933 0.0
N1442 N 0.76869 0.85806 0.0365 0.0
N1443 N 0.72116 0.01853 0.99149 0.0
C1444 C 0.76599 0.89597 0.02203 0.0
C1445 C 0.7411 0.97849 0.99883 0.0
N1446 N 0.73347 0.8535 0.98874 0.0
N1447 N 0.80033 0.0178 0.02148 0.0
H1448 H 0.69453 0.01992 0.97893 0.0
H1449 H 0.72803 0.04993 0.99967 0.0
H1450 H 0.82664 0.01939 0.03423 0.0
H1451 H 0.79705 0.04737 0.01106 0.0
H1452 H 0.74776 0.82278 0.99474 0.0
H1453 H 0.71753 0.85093 0.97188 0.0
H1454 H 0.75063 0.82806 0.03295 0.0
H1455 H 0.78447 0.85839 0.05346 0.0
C1456 C 0.69094 0.48563 0.75635 0.0
C1457 C 0.68088 0.49398 0.73159 0.0
C1458 C 0.66589 0.57451 0.74151 0.0
C1459 C 0.66717 0.56376 0.76667 0.0
N1460 N 0.6732 0.50566 0.7978 0.0
N1461 N 0.65272 0.54597 0.7009 0.0
C1462 C 0.67799 0.51845 0.77409 0.0
C1463 C 0.66705 0.53843 0.72413 0.0
N1464 N 0.71347 0.44646 0.76288 0.0
N1465 N 0.66522 0.61915 0.73414 0.0
H1466 H 0.65248 0.52059 0.68762 0.0
H1467 H 0.63745 0.57655 0.6954 0.0
H1468 H 0.66686 0.6465 0.74627 0.0
H1469 H 0.66835 0.62887 0.71603 0.0
H1470 H 0.72513 0.44041 0.78045 0.0
H1471 H 0.725 0.42255 0.75015 0.0
H1472 H 0.67642 0.47183 0.80355 0.0
H1473 H 0.66106 0.52759 0.8113 0.0
C1474 C 0.8128 0.35661 0.01618 0.0
C1475 C 0.83636 0.39687 1.00924 0.0
C1476 C 0.77917 0.44391 0.03057 0.0
C1477 C 0.75609 0.40362 0.03812 0.0
N1478 N 0.76156 0.3221 0.0454 0.0
N1479 N 0.851 0.47667 0.01693 0.0
C1480 C 0.77625 0.36005 0.03322 0.0
C1481 C 0.82253 0.4398 0.01893 0.0
N1482 N 0.8233 0.31552 1.00568 0.0
N1483 N 0.75871 0.48586 0.03287 0.0
H1484 H 0.88356 0.47421 1.00905 0.0
H1485 H 0.84448 0.50789 0.02546 0.0
H1486 H 0.72597 0.49059 0.04011 0.0
H1487 H 0.77243 0.51554 0.02533 0.0
H1488 H 0.80328 0.28635 1.00806 0.0
H1489 H 0.84985 0.31128 0.99318 0.0
H1490 H 0.77762 0.29028 0.04389 0.0
H1491 H 0.73715 0.32368 0.05922 0.0
C1492 C 0.81649 0.45373 0.24961 0.0
C1493 C 0.81986 0.46816 0.27421 0.0
C1494 C 0.80195 0.54629 0.26126 0.0
C1495 C 0.80876 0.53346 0.23662 0.0
N1496 N 0.82836 0.47439 0.20761 0.0
N1497 N 0.82148 0.53064 0.30301 0.0
C1498 C 0.81719 0.48691 0.23077 0.0
C1499 C 0.81368 0.51508 0.28002 0.0
N1500 N 0.81122 0.40839 0.24425 0.0
N1501 N 0.78316 0.58793 0.26674 0.0
H1502 H 0.83178 0.50948 0.3172 0.0
H1503 H 0.82201 0.56535 0.30739 0.0
H1504 H 0.77186 0.61062 0.25342 0.0
H1505 H 0.77385 0.59743 0.28431 0.0
H1506 H 0.80475 0.3965 0.22677 0.0
H1507 H 0.80774 0.3834 0.25762 0.0
H1508 H 0.83959 0.44154 0.20312 0.0
H1509 H 0.83054 0.49757 0.19331 0.0
C1510 C 0.73942 0.54044 0.51106 0.0
C1511 C 0.72619 0.58448 0.50253 0.0
C1512 C 0.76735 0.61952 0.53664 0.0
C1513 C 0.78543 0.57615 0.54331 0.0
N1514 N 0.79546 0.49604 0.53341 0.0
N1515 N 0.7359 0.66644 0.50458 0.0
C1516 C 0.7733 0.5367 0.52962 0.0
C1517 C 0.74254 0.62417 0.51461 0.0
N1518 N 0.71828 0.50212 0.50236 0.0
N1519 N 0.77262 0.6562 0.55178 0.0
H1520 H 0.71936 0.67128 0.48804 0.0
H1521 H 0.75108 0.69607 0.51132 0.0
H1522 H 0.78919 0.65382 0.56848 0.0
H1523 H 0.75631 0.68756 0.54901 0.0
H1524 H 0.72316 0.46974 0.50986 0.0
H1525 H 0.6925 0.5031 0.4893 0.0
H1526 H 0.79157 0.4678 0.52205 0.0
H1527 H 0.82099 0.49164 0.54641 0.0
C1528 C 0.29275 0.51473 0.27085 0.0
C1529 C 0.33446 0.52556 0.28285 0.0
C1530 C 0.37735 0.48089 0.25276 0.0
C1531 C 0.33544 0.46626 0.24217 0.0
N1532 N 0.2528 0.46059 0.24532 0.0
N1533 N 0.41504 0.50983 0.28867 0.0
C1534 C 0.29292 0.48069 0.25238 0.0
C1535 C 0.37633 0.50578 0.27485 0.0
N1536 N 0.25337 0.5383 0.27615 0.0
N1537 N 0.41817 0.47286 0.24121 0.0
H1538 H 0.41528 0.52666 0.30537 0.0
H1539 H 0.44546 0.49237 0.28485 0.0
H1540 H 0.42042 0.45638 0.2245 0.0
H1541 H 0.44919 0.48685 0.24692 0.0
H1542 H 0.22341 0.53511 0.266 0.0
H1543 H 0.25166 0.56411 0.28918 0.0
H1544 H 0.22155 0.46666 0.25401 0.0
H1545 H 0.25134 0.43437 0.23252 0.0
C1546 C 0.27009 0.62789 1.00199 0.0
C1547 C 0.28232 0.58381 0.99284 0.0
C1548 C 0.21466 0.55147 0.01341 0.0
C1549 C 0.20576 0.59442 0.02462 0.0
N1550 N 0.23197 0.67105 0.03351 0.0
N1551 N 0.27144 0.50193 0.99468 0.0
C1552 C 0.23548 0.63186 0.02004 0.0
C1553 C 0.25602 0.54506 0.99989 0.0
N1554 N 0.28964 0.66665 0.99274 0.0
N1555 N 0.1828 0.51732 0.01473 0.0
H1556 H 0.30254 0.49558 0.98587 0.0
H1557 H 0.2559 0.47248 1.00144 0.0
H1558 H 0.15149 0.52107 0.02375 0.0
H1559 H 0.18541 0.48706 1.0048 0.0
H1560 H 0.2775 0.69945 0.99663 0.0
H1561 H 0.31477 0.66664 0.97936 0.0
H1562 H 0.25644 0.69699 0.03299 0.0
H1563 H 0.2073 0.67596 0.04693 0.0
C1564 C 0.21205 0.51454 0.79084 0.0
C1565 C 0.22038 0.46749 0.78631 0.0
C1566 C 0.21875 0.48213 0.74239 0.0
C1567 C 0.21225 0.5295 0.74692 0.0
N1568 N 0.21934 0.59172 0.77553 0.0
N1569 N 0.24758 0.41028 0.75809 0.0
C1570 C 0.21411 0.54601 0.77121 0.0
C1571 C 0.22878 0.45248 0.76215 0.0
N1572 N 0.1998 0.52918 0.8135 0.0
N1573 N 0.21293 0.46472 0.71961 0.0
H1574 H 0.25756 0.38869 0.7722 0.0
H1575 H 0.25814 0.39917 0.74099 0.0
H1576 H 0.20434 0.4848 0.70468 0.0
H1577 H 0.21252 0.42969 0.71601 0.0
H1578 H 0.18854 0.56244 0.81702 0.0
H1579 H 0.19693 0.50731 0.82834 0.0
H1580 H 0.22486 0.60513 0.7928 0.0
H1581 H 0.22388 0.61538 0.7616 0.0
C1582 C 0.20605 0.421 0.51989 0.0
C1583 C 0.21956 0.42883 0.4953 0.0
C1584 C 0.29886 0.43935 0.50897 0.0
C1585 C 0.28627 0.42465 0.53257 0.0
N1586 N 0.22898 0.39282 0.55929 0.0
N1587 N 0.2819 0.43455 0.46624 0.0
C1588 C 0.24015 0.4132 0.53775 0.0
C1589 C 0.26681 0.4353 0.48973 0.0
N1590 N 0.16083 0.42231 0.52659 0.0
N1591 N 0.34106 0.45826 0.50501 0.0
H1592 H 0.26051 0.42822 0.45152 0.0
H1593 H 0.31662 0.4348 0.46161 0.0
H1594 H 0.36478 0.46332 0.5189 0.0
H1595 H 0.35036 0.47336 0.48861 0.0
H1596 H 0.15017 0.42209 0.54465 0.0
H1597 H 0.13401 0.42826 0.51462 0.0
H1598 H 0.1967 0.37894 0.56277 0.0
H1599 H 0.25298 0.38564 0.57277 0.0
loop_
_geom_bond_atom_site_label_1
_geom_bond_atom_site_label_2
_geom_bond_distance
_geom_bond_site_symmetry_2
_ccdc_geom_bond_type
C0 O2 1.247 . S
C0 O4 1.258 . S
C1 O8 1.247 . S
C1 O9 1.258 . S
O2 C0 1.247 . S
O2 Zn3 2.028 . S
Zn3 O2 2.028 . S
Zn3 O7 2.035 . S
Zn3 O9 2.035 . S
Zn3 O10 2.028 . S
O4 C0 1.258 . S
O4 Zn5 2.035 . S
Zn5 O4 2.035 . S
Zn5 O6 2.028 . S
Zn5 O8 2.028 . S
Zn5 O11 2.035 . S
O6 Zn5 2.028 . S
O6 C12 1.247 . S
O7 Zn3 2.035 . S
O7 C12 1.258 . S
O8 C1 1.247 . S
O8 Zn5 2.028 . S
O9 C1 1.258 . S
O9 Zn3 2.035 . S
O10 Zn3 2.028 . S
O10 C13 1.247 . S
O11 Zn5 2.035 . S
O11 C13 1.258 . S
C12 O6 1.247 . S
C12 O7 1.258 . S
C13 O10 1.247 . S
C13 O11 1.258 . S
C14 O16 1.247 1_565 S
C14 O18 1.258 . S
C15 O22 1.247 . S
C15 O23 1.258 . S
O16 C14 1.247 1_545 S
O16 Zn17 2.028 1_545 S
Zn17 O16 2.028 1_565 S
Zn17 O21 2.035 . S
Zn17 O23 2.035 . S
Zn17 O24 2.028 . S
O18 C14 1.258 . S
O18 Zn19 2.035 . S
Zn19 O18 2.035 . S
Zn19 O20 2.028 . S
Zn19 O22 2.028 . S
Zn19 O25 2.035 . S
O20 Zn19 2.028 . S
O20 C26 1.247 . S
O21 Zn17 2.035 . S
O21 C26 1.258 . S
O22 C15 1.247 . S
O22 Zn19 2.028 . S
O23 C15 1.258 . S
O23 Zn17 2.035 . S
O24 Zn17 2.028 . S
O24 C27 1.247 . S
O25 Zn19 2.035 . S
O25 C27 1.258 . S
C26 O20 1.247 . S
C26 O21 1.258 . S
C27 O24 1.247 . S
C27 O25 1.258 . S
C28 O30 1.247 . S
C28 O32 1.258 . S
C29 O36 1.247 . S
C29 O37 1.258 . S
O30 C28 1.247 . S
O30 Zn31 2.028 . S
Zn31 O30 2.028 . S
Zn31 O35 2.035 . S
Zn31 O37 2.035 . S
Zn31 O38 2.028 . S
O32 C28 1.258 . S
O32 Zn33 2.035 . S
Zn33 O32 2.035 . S
Zn33 O34 2.028 . S
Zn33 O36 2.028 . S
Zn33 O39 2.035 . S
O34 Zn33 2.028 . S
O34 C40 1.247 . S
O35 Zn31 2.035 . S
O35 C40 1.258 . S
O36 C29 1.247 . S
O36 Zn33 2.028 . S
O37 C29 1.258 . S
O37 Zn31 2.035 . S
O38 Zn31 2.028 . S
O38 C41 1.247 . S
O39 Zn33 2.035 . S
O39 C41 1.258 . S
C40 O34 1.247 . S
C40 O35 1.258 . S
C41 O38 1.247 . S
C41 O39 1.258 . S
C42 O44 1.247 . S
C42 O46 1.258 . S
C43 O50 1.247 . S
C43 O51 1.258 . S
O44 C42 1.247 . S
O44 Zn45 2.028 . S
Zn45 O44 2.028 . S
Zn45 O49 2.035 . S
Zn45 O51 2.035 . S
Zn45 O52 2.028 . S
O46 C42 1.258 . S
O46 Zn47 2.035 . S
Zn47 O46 2.035 . S
Zn47 O48 2.028 1_545 S
Zn47 O50 2.028 . S
Zn47 O53 2.035 . S
O48 Zn47 2.028 1_565 S
O48 C54 1.247 1_565 S
O49 Zn45 2.035 . S
O49 C54 1.258 . S
O50 C43 1.247 . S
O50 Zn47 2.028 . S
O51 C43 1.258 . S
O51 Zn45 2.035 . S
O52 Zn45 2.028 . S
O52 C55 1.247 . S
O53 Zn47 2.035 . S
O53 C55 1.258 . S
C54 O48 1.247 1_545 S
C54 O49 1.258 . S
C55 O52 1.247 . S
C55 O53 1.258 . S
C56 O58 1.247 . S
C56 O60 1.258 . S
C57 O64 1.247 . S
C57 O65 1.258 . S
O58 C56 1.247 . S
O58 Zn59 2.028 . S
Zn59 O58 2.028 . S
Zn59 O63 2.035 . S
Zn59 O65 2.035 . S
Zn59 O66 2.028 . S
O60 C56 1.258 . S
O60 Zn61 2.035 . S
Zn61 O60 2.035 . S
Zn61 O62 2.028 . S
Zn61 O64 2.028 . S
Zn61 O67 2.035 . S
O62 Zn61 2.028 . S
O62 C68 1.247 . S
O63 Zn59 2.035 . S
O63 C68 1.258 . S
O64 C57 1.247 . S
O64 Zn61 2.028 . S
O65 C57 1.258 . S
O65 Zn59 2.035 . S
O66 Zn59 2.028 . S
O66 C69 1.247 . S
O67 Zn61 2.035 . S
O67 C69 1.258 . S
C68 O62 1.247 . S
C68 O63 1.258 . S
C69 O66 1.247 . S
C69 O67 1.258 . S
C70 O72 1.247 . S
C70 O74 1.258 . S
C71 O78 1.247 . S
C71 O79 1.258 . S
O72 C70 1.247 . S
O72 Zn73 2.028 . S
Zn73 O72 2.028 . S
Zn73 O77 2.035 . S
Zn73 O79 2.035 . S
Zn73 O80 2.028 . S
O74 C70 1.258 . S
O74 Zn75 2.035 . S
Zn75 O74 2.035 . S
Zn75 O76 2.028 . S
Zn75 O78 2.028 . S
Zn75 O81 2.035 1_565 S
O76 Zn75 2.028 . S
O76 C82 1.247 . S
O77 Zn73 2.035 . S
O77 C82 1.258 . S
O78 C71 1.247 . S
O78 Zn75 2.028 . S
O79 C71 1.258 . S
O79 Zn73 2.035 . S
O80 Zn73 2.028 . S
O80 C83 1.247 . S
O81 Zn75 2.035 1_545 S
O81 C83 1.258 1_545 S
C82 O76 1.247 . S
C82 O77 1.258 . S
C83 O80 1.247 . S
C83 O81 1.258 1_565 S
C84 O86 1.247 . S
C84 O88 1.258 . S
C85 O92 1.247 . S
C85 O93 1.258 . S
O86 C84 1.247 . S
O86 Zn87 2.028 . S
Zn87 O86 2.028 . S
Zn87 O91 2.035 . S
Zn87 O93 2.035 . S
Zn87 O94 2.028 . S
O88 C84 1.258 . S
O88 Zn89 2.035 . S
Zn89 O88 2.035 . S
Zn89 O90 2.028 . S
Zn89 O92 2.028 . S
Zn89 O95 2.035 . S
O90 Zn89 2.028 . S
O90 C96 1.247 . S
O91 Zn87 2.035 . S
O91 C96 1.258 . S
O92 C85 1.247 . S
O92 Zn89 2.028 . S
O93 C85 1.258 . S
O93 Zn87 2.035 . S
O94 Zn87 2.028 . S
O94 C97 1.247 . S
O95 Zn89 2.035 . S
O95 C97 1.258 . S
C96 O90 1.247 . S
C96 O91 1.258 . S
C97 O94 1.247 . S
C97 O95 1.258 . S
C98 O100 1.247 . S
C98 O102 1.258 . S
C99 O106 1.247 . S
C99 O107 1.258 1_545 S
O100 C98 1.247 . S
O100 Zn101 2.028 . S
Zn101 O100 2.028 . S
Zn101 O105 2.035 . S
Zn101 O107 2.035 1_545 S
Zn101 O108 2.028 . S
O102 C98 1.258 . S
O102 Zn103 2.035 . S
Zn103 O102 2.035 . S
Zn103 O104 2.028 . S
Zn103 O106 2.028 . S
Zn103 O109 2.035 . S
O104 Zn103 2.028 . S
O104 C110 1.247 . S
O105 Zn101 2.035 . S
O105 C110 1.258 . S
O106 C99 1.247 . S
O106 Zn103 2.028 . S
O107 C99 1.258 1_565 S
O107 Zn101 2.035 1_565 S
O108 Zn101 2.028 . S
O108 C111 1.247 . S
O109 Zn103 2.035 . S
O109 C111 1.258 . S
C110 O104 1.247 . S
C110 O105 1.258 . S
C111 O108 1.247 . S
C111 O109 1.258 . S
C112 O114 1.247 . S
C112 O116 1.258 . S
C113 O120 1.247 . S
C113 O121 1.258 . S
O114 C112 1.247 . S
O114 Zn115 2.028 . S
Zn115 O114 2.028 . S
Zn115 O119 2.035 . S
Zn115 O121 2.035 . S
Zn115 O122 2.028 . S
O116 C112 1.258 . S
O116 Zn117 2.035 . S
Zn117 O116 2.035 . S
Zn117 O118 2.028 . S
Zn117 O120 2.028 . S
Zn117 O123 2.035 . S
O118 Zn117 2.028 . S
O118 C124 1.247 . S
O119 Zn115 2.035 . S
O119 C124 1.258 . S
O120 C113 1.247 . S
O120 Zn117 2.028 . S
O121 C113 1.258 . S
O121 Zn115 2.035 . S
O122 Zn115 2.028 . S
O122 C125 1.247 . S
O123 Zn117 2.035 . S
O123 C125 1.258 . S
C124 O118 1.247 . S
C124 O119 1.258 . S
C125 O122 1.247 . S
C125 O123 1.258 . S
C126 O128 1.247 . S
C126 O130 1.258 . S
C127 O134 1.247 1_545 S
C127 O135 1.258 . S
O128 C126 1.247 . S
O128 Zn129 2.028 . S
Zn129 O128 2.028 . S
Zn129 O133 2.035 . S
Zn129 O135 2.035 . S
Zn129 O136 2.028 . S
O130 C126 1.258 . S
O130 Zn131 2.035 . S
Zn131 O130 2.035 . S
Zn131 O132 2.028 . S
Zn131 O134 2.028 1_545 S
Zn131 O137 2.035 . S
O132 Zn131 2.028 . S
O132 C138 1.247 . S
O133 Zn129 2.035 . S
O133 C138 1.258 . S
O134 C127 1.247 1_565 S
O134 Zn131 2.028 1_565 S
O135 C127 1.258 . S
O135 Zn129 2.035 . S
O136 Zn129 2.028 . S
O136 C139 1.247 . S
O137 Zn131 2.035 . S
O137 C139 1.258 . S
C138 O132 1.247 . S
C138 O133 1.258 . S
C139 O136 1.247 . S
C139 O137 1.258 . S
C140 O142 1.247 . S
C140 O144 1.258 . S
C141 O148 1.247 . S
C141 O149 1.258 . S
O142 C140 1.247 . S
O142 Zn143 2.028 . S
Zn143 O142 2.028 . S
Zn143 O147 2.035 . S
Zn143 O149 2.035 . S
Zn143 O150 2.028 . S
O144 C140 1.258 . S
O144 Zn145 2.035 . S
Zn145 O144 2.035 . S
Zn145 O146 2.028 . S
Zn145 O148 2.028 . S
Zn145 O151 2.035 . S
O146 Zn145 2.028 . S
O146 C152 1.247 . S
O147 Zn143 2.035 . S
O147 C152 1.258 . S
O148 C141 1.247 . S
O148 Zn145 2.028 . S
O149 C141 1.258 . S
O149 Zn143 2.035 . S
O150 Zn143 2.028 . S
O150 C153 1.247 . S
O151 Zn145 2.035 . S
O151 C153 1.258 . S
C152 O146 1.247 . S
C152 O147 1.258 . S
C153 O150 1.247 . S
C153 O151 1.258 . S
C154 O156 1.247 . S
C154 O158 1.258 1_565 S
C155 O162 1.247 . S
C155 O163 1.258 . S
O156 C154 1.247 . S
O156 Zn157 2.028 . S
Zn157 O156 2.028 . S
Zn157 O161 2.035 . S
Zn157 O163 2.035 . S
Zn157 O164 2.028 . S
O158 C154 1.258 1_545 S
O158 Zn159 2.035 1_545 S
Zn159 O158 2.035 1_565 S
Zn159 O160 2.028 . S
Zn159 O162 2.028 . S
Zn159 O165 2.035 . S
O160 Zn159 2.028 . S
O160 C166 1.247 . S
O161 Zn157 2.035 . S
O161 C166 1.258 . S
O162 C155 1.247 . S
O162 Zn159 2.028 . S
O163 C155 1.258 . S
O163 Zn157 2.035 . S
O164 Zn157 2.028 . S
O164 C167 1.247 . S
O165 Zn159 2.035 . S
O165 C167 1.258 . S
C166 O160 1.247 . S
C166 O161 1.258 . S
C167 O164 1.247 . S
C167 O165 1.258 . S
C168 O170 1.247 . S
C168 O172 1.258 . S
C169 O176 1.247 . S
C169 O177 1.258 . S
O170 C168 1.247 . S
O170 Zn171 2.028 . S
Zn171 O170 2.028 . S
Zn171 O175 2.035 . S
Zn171 O177 2.035 . S
Zn171 O178 2.028 . S
O172 C168 1.258 . S
O172 Zn173 2.035 . S
Zn173 O172 2.035 . S
Zn173 O174 2.028 . S
Zn173 O176 2.028 . S
Zn173 O179 2.035 . S
O174 Zn173 2.028 . S
O174 C180 1.247 . S
O175 Zn171 2.035 . S
O175 C180 1.258 . S
O176 C169 1.247 . S
O176 Zn173 2.028 . S
O177 C169 1.258 . S
O177 Zn171 2.035 . S
O178 Zn171 2.028 . S
O178 C181 1.247 . S
O179 Zn173 2.035 . S
O179 C181 1.258 . S
C180 O174 1.247 . S
C180 O175 1.258 . S
C181 O178 1.247 . S
C181 O179 1.258 . S
C182 O184 1.247 . S
C182 O186 1.258 . S
C183 O190 1.247 . S
C183 O191 1.258 . S
O184 C182 1.247 . S
O184 Zn185 2.028 . S
Zn185 O184 2.028 . S
Zn185 O189 2.035 1_545 S
Zn185 O191 2.035 . S
Zn185 O192 2.028 . S
O186 C182 1.258 . S
O186 Zn187 2.035 . S
Zn187 O186 2.035 . S
Zn187 O188 2.028 . S
Zn187 O190 2.028 . S
Zn187 O193 2.035 . S
O188 Zn187 2.028 . S
O188 C194 1.247 . S
O189 Zn185 2.035 1_565 S
O189 C194 1.258 1_565 S
O190 C183 1.247 . S
O190 Zn187 2.028 . S
O191 C183 1.258 . S
O191 Zn185 2.035 . S
O192 Zn185 2.028 . S
O192 C195 1.247 . S
O193 Zn187 2.035 . S
O193 C195 1.258 . S
C194 O188 1.247 . S
C194 O189 1.258 1_545 S
C195 O192 1.247 . S
C195 O193 1.258 . S
C196 O198 1.247 . S
C196 O200 1.258 . S
C197 O204 1.247 . S
C197 O205 1.258 . S
O198 C196 1.247 . S
O198 Zn199 2.028 . S
Zn199 O198 2.028 . S
Zn199 O203 2.035 . S
Zn199 O205 2.035 . S
Zn199 O206 2.028 . S
O200 C196 1.258 . S
O200 Zn201 2.035 . S
Zn201 O200 2.035 . S
Zn201 O202 2.028 . S
Zn201 O204 2.028 . S
Zn201 O207 2.035 . S
O202 Zn201 2.028 . S
O202 C208 1.247 . S
O203 Zn199 2.035 . S
O203 C208 1.258 . S
O204 C197 1.247 . S
O204 Zn201 2.028 . S
O205 C197 1.258 . S
O205 Zn199 2.035 . S
O206 Zn199 2.028 . S
O206 C209 1.247 . S
O207 Zn201 2.035 . S
O207 C209 1.258 . S
C208 O202 1.247 . S
C208 O203 1.258 . S
C209 O206 1.247 . S
C209 O207 1.258 . S
C210 O212 1.247 . S
C210 O214 1.258 1_565 S
C211 O218 1.247 . S
C211 O219 1.258 . S
O212 C210 1.247 . S
O212 Zn213 2.028 . S
Zn213 O212 2.028 . S
Zn213 O217 2.035 . S
Zn213 O219 2.035 . S
Zn213 O220 2.028 . S
O214 C210 1.258 1_545 S
O214 Zn215 2.035 1_545 S
Zn215 O214 2.035 1_565 S
Zn215 O216 2.028 . S
Zn215 O218 2.028 . S
Zn215 O221 2.035 . S
O216 Zn215 2.028 . S
O216 C222 1.247 . S
O217 Zn213 2.035 . S
O217 C222 1.258 . S
O218 C211 1.247 . S
O218 Zn215 2.028 . S
O219 C211 1.258 . S
O219 Zn213 2.035 . S
O220 Zn213 2.028 . S
O220 C223 1.247 . S
O221 Zn215 2.035 . S
O221 C223 1.258 . S
C222 O216 1.247 . S
C222 O217 1.258 . S
C223 O220 1.247 . S
C223 O221 1.258 . S
C224 O226 1.247 . S
C224 O228 1.258 . S
C225 O232 1.247 . S
C225 O233 1.258 . S
O226 C224 1.247 . S
O226 Zn227 2.028 . S
Zn227 O226 2.028 . S
Zn227 O231 2.035 . S
Zn227 O233 2.035 . S
Zn227 O234 2.028 . S
O228 C224 1.258 . S
O228 Zn229 2.035 . S
Zn229 O228 2.035 . S
Zn229 O230 2.028 . S
Zn229 O232 2.028 . S
Zn229 O235 2.035 . S
O230 Zn229 2.028 . S
O230 C236 1.247 . S
O231 Zn227 2.035 . S
O231 C236 1.258 . S
O232 C225 1.247 . S
O232 Zn229 2.028 . S
O233 C225 1.258 . S
O233 Zn227 2.035 . S
O234 Zn227 2.028 . S
O234 C237 1.247 . S
O235 Zn229 2.035 . S
O235 C237 1.258 . S
C236 O230 1.247 . S
C236 O231 1.258 . S
C237 O234 1.247 . S
C237 O235 1.258 . S
C238 O240 1.247 . S
C238 O242 1.258 . S
C239 O246 1.247 . S
C239 O247 1.258 . S
O240 C238 1.247 . S
O240 Zn241 2.028 . S
Zn241 O240 2.028 . S
Zn241 O245 2.035 . S
Zn241 O247 2.035 . S
Zn241 O248 2.028 . S
O242 C238 1.258 . S
O242 Zn243 2.035 . S
Zn243 O242 2.035 . S
Zn243 O244 2.028 . S
Zn243 O246 2.028 . S
Zn243 O249 2.035 . S
O244 Zn243 2.028 . S
O244 C250 1.247 . S
O245 Zn241 2.035 . S
O245 C250 1.258 . S
O246 C239 1.247 . S
O246 Zn243 2.028 . S
O247 C239 1.258 . S
O247 Zn241 2.035 . S
O248 Zn241 2.028 . S
O248 C251 1.247 . S
O249 Zn243 2.035 . S
O249 C251 1.258 . S
C250 O244 1.247 . S
C250 O245 1.258 . S
C251 O248 1.247 . S
C251 O249 1.258 . S
C252 O254 1.247 . S
C252 O256 1.258 . S
C253 O260 1.247 . S
C253 O261 1.258 . S
O254 C252 1.247 . S
O254 Zn255 2.028 . S
Zn255 O254 2.028 . S
Zn255 O259 2.035 . S
Zn255 O261 2.035 . S
Zn255 O262 2.028 . S
O256 C252 1.258 . S
O256 Zn257 2.035 . S
Zn257 O256 2.035 . S
Zn257 O258 2.028 . S
Zn257 O260 2.028 . S
Zn257 O263 2.035 . S
O258 Zn257 2.028 . S
O258 C264 1.247 . S
O259 Zn255 2.035 . S
O259 C264 1.258 . S
O260 C253 1.247 . S
O260 Zn257 2.028 . S
O261 C253 1.258 . S
O261 Zn255 2.035 . S
O262 Zn255 2.028 . S
O262 C265 1.247 . S
O263 Zn257 2.035 . S
O263 C265 1.258 . S
C264 O258 1.247 . S
C264 O259 1.258 . S
C265 O262 1.247 . S
C265 O263 1.258 . S
C266 O268 1.247 . S
C266 O270 1.258 . S
C267 O274 1.247 . S
C267 O275 1.258 . S
O268 C266 1.247 . S
O268 Zn269 2.028 . S
Zn269 O268 2.028 . S
Zn269 O273 2.035 . S
Zn269 O275 2.035 . S
Zn269 O276 2.028 . S
O270 C266 1.258 . S
O270 Zn271 2.035 . S
Zn271 O270 2.035 . S
Zn271 O272 2.028 . S
Zn271 O274 2.028 . S
Zn271 O277 2.035 . S
O272 Zn271 2.028 . S
O272 C278 1.247 . S
O273 Zn269 2.035 . S
O273 C278 1.258 . S
O274 C267 1.247 . S
O274 Zn271 2.028 . S
O275 C267 1.258 . S
O275 Zn269 2.035 . S
O276 Zn269 2.028 . S
O276 C279 1.247 . S
O277 Zn271 2.035 . S
O277 C279 1.258 . S
C278 O272 1.247 . S
C278 O273 1.258 . S
C279 O276 1.247 . S
C279 O277 1.258 . S
C280 O282 1.247 . S
C280 O284 1.258 . S
C281 O288 1.247 . S
C281 O289 1.258 . S
O282 C280 1.247 . S
O282 Zn283 2.028 . S
Zn283 O282 2.028 . S
Zn283 O287 2.035 . S
Zn283 O289 2.035 . S
Zn283 O290 2.028 . S
O284 C280 1.258 . S
O284 Zn285 2.035 . S
Zn285 O284 2.035 . S
Zn285 O286 2.028 . S
Zn285 O288 2.028 . S
Zn285 O291 2.035 . S
O286 Zn285 2.028 . S
O286 C292 1.247 . S
O287 Zn283 2.035 . S
O287 C292 1.258 . S
O288 C281 1.247 . S
O288 Zn285 2.028 . S
O289 C281 1.258 . S
O289 Zn283 2.035 . S
O290 Zn283 2.028 . S
O290 C293 1.247 . S
O291 Zn285 2.035 . S
O291 C293 1.258 . S
C292 O286 1.247 . S
C292 O287 1.258 . S
C293 O290 1.247 . S
C293 O291 1.258 . S
C294 O296 1.247 . S
C294 O298 1.258 . S
C295 O302 1.247 . S
C295 O303 1.258 . S
O296 C294 1.247 . S
O296 Zn297 2.028 . S
Zn297 O296 2.028 . S
Zn297 O301 2.035 . S
Zn297 O303 2.035 . S
Zn297 O304 2.028 . S
O298 C294 1.258 . S
O298 Zn299 2.035 . S
Zn299 O298 2.035 . S
Zn299 O300 2.028 . S
Zn299 O302 2.028 . S
Zn299 O305 2.035 . S
O300 Zn299 2.028 . S
O300 C306 1.247 . S
O301 Zn297 2.035 . S
O301 C306 1.258 . S
O302 C295 1.247 . S
O302 Zn299 2.028 . S
O303 C295 1.258 . S
O303 Zn297 2.035 . S
O304 Zn297 2.028 . S
O304 C307 1.247 . S
O305 Zn299 2.035 . S
O305 C307 1.258 . S
C306 O300 1.247 . S
C306 O301 1.258 . S
C307 O304 1.247 . S
C307 O305 1.258 . S
C308 O310 1.247 . S
C308 O312 1.258 . S
C309 O316 1.247 . S
C309 O317 1.258 . S
O310 C308 1.247 . S
O310 Zn311 2.028 . S
Zn311 O310 2.028 . S
Zn311 O315 2.035 . S
Zn311 O317 2.035 . S
Zn311 O318 2.028 . S
O312 C308 1.258 . S
O312 Zn313 2.035 . S
Zn313 O312 2.035 . S
Zn313 O314 2.028 . S
Zn313 O316 2.028 . S
Zn313 O319 2.035 . S
O314 Zn313 2.028 . S
O314 C320 1.247 . S
O315 Zn311 2.035 . S
O315 C320 1.258 . S
O316 C309 1.247 . S
O316 Zn313 2.028 . S
O317 C309 1.258 . S
O317 Zn311 2.035 . S
O318 Zn311 2.028 . S
O318 C321 1.247 . S
O319 Zn313 2.035 . S
O319 C321 1.258 . S
C320 O314 1.247 . S
C320 O315 1.258 . S
C321 O318 1.247 . S
C321 O319 1.258 . S
C322 O324 1.247 . S
C322 O326 1.258 . S
C323 O330 1.247 . S
C323 O331 1.258 . S
O324 C322 1.247 . S
O324 Zn325 2.028 . S
Zn325 O324 2.028 . S
Zn325 O329 2.035 . S
Zn325 O331 2.035 . S
Zn325 O332 2.028 . S
O326 C322 1.258 . S
O326 Zn327 2.035 . S
Zn327 O326 2.035 . S
Zn327 O328 2.028 . S
Zn327 O330 2.028 . S
Zn327 O333 2.035 . S
O328 Zn327 2.028 . S
O328 C334 1.247 . S
O329 Zn325 2.035 . S
O329 C334 1.258 . S
O330 C323 1.247 . S
O330 Zn327 2.028 . S
O331 C323 1.258 . S
O331 Zn325 2.035 . S
O332 Zn325 2.028 . S
O332 C335 1.247 . S
O333 Zn327 2.035 . S
O333 C335 1.258 . S
C334 O328 1.247 . S
C334 O329 1.258 . S
C335 O332 1.247 . S
C335 O333 1.258 . S
C336 O338 1.247 . S
C336 O340 1.258 . S
C337 O344 1.247 . S
C337 O345 1.258 . S
O338 C336 1.247 . S
O338 Zn339 2.028 . S
Zn339 O338 2.028 . S
Zn339 O343 2.035 . S
Zn339 O345 2.035 . S
Zn339 O346 2.028 . S
O340 C336 1.258 . S
O340 Zn341 2.035 . S
Zn341 O340 2.035 . S
Zn341 O342 2.028 . S
Zn341 O344 2.028 . S
Zn341 O347 2.035 . S
O342 Zn341 2.028 . S
O342 C348 1.247 . S
O343 Zn339 2.035 . S
O343 C348 1.258 . S
O344 C337 1.247 . S
O344 Zn341 2.028 . S
O345 C337 1.258 . S
O345 Zn339 2.035 . S
O346 Zn339 2.028 . S
O346 C349 1.247 . S
O347 Zn341 2.035 . S
O347 C349 1.258 . S
C348 O342 1.247 . S
C348 O343 1.258 . S
C349 O346 1.247 . S
C349 O347 1.258 . S
C350 O352 1.247 . S
C350 O354 1.258 . S
C351 O358 1.247 . S
C351 O359 1.258 . S
O352 C350 1.247 . S
O352 Zn353 2.028 . S
Zn353 O352 2.028 . S
Zn353 O357 2.035 . S
Zn353 O359 2.035 . S
Zn353 O360 2.028 . S
O354 C350 1.258 . S
O354 Zn355 2.035 . S
Zn355 O354 2.035 . S
Zn355 O356 2.028 . S
Zn355 O358 2.028 . S
Zn355 O361 2.035 . S
O356 Zn355 2.028 . S
O356 C362 1.247 . S
O357 Zn353 2.035 . S
O357 C362 1.258 . S
O358 C351 1.247 . S
O358 Zn355 2.028 . S
O359 C351 1.258 . S
O359 Zn353 2.035 . S
O360 Zn353 2.028 . S
O360 C363 1.247 . S
O361 Zn355 2.035 . S
O361 C363 1.258 . S
C362 O356 1.247 . S
C362 O357 1.258 . S
C363 O360 1.247 . S
C363 O361 1.258 . S
C364 O366 1.247 . S
C364 O368 1.258 . S
C365 O372 1.247 . S
C365 O373 1.258 . S
O366 C364 1.247 . S
O366 Zn367 2.028 . S
Zn367 O366 2.028 . S
Zn367 O371 2.035 . S
Zn367 O373 2.035 . S
Zn367 O374 2.028 . S
O368 C364 1.258 . S
O368 Zn369 2.035 . S
Zn369 O368 2.035 . S
Zn369 O370 2.028 . S
Zn369 O372 2.028 . S
Zn369 O375 2.035 . S
O370 Zn369 2.028 . S
O370 C376 1.247 . S
O371 Zn367 2.035 . S
O371 C376 1.258 . S
O372 C365 1.247 . S
O372 Zn369 2.028 . S
O373 C365 1.258 . S
O373 Zn367 2.035 . S
O374 Zn367 2.028 . S
O374 C377 1.247 . S
O375 Zn369 2.035 . S
O375 C377 1.258 . S
C376 O370 1.247 . S
C376 O371 1.258 . S
C377 O374 1.247 . S
C377 O375 1.258 . S
C378 O380 1.247 . S
C378 O382 1.258 . S
C379 O386 1.247 . S
C379 O387 1.258 . S
O380 C378 1.247 . S
O380 Zn381 2.028 . S
Zn381 O380 2.028 . S
Zn381 O385 2.035 . S
Zn381 O387 2.035 . S
Zn381 O388 2.028 . S
O382 C378 1.258 . S
O382 Zn383 2.035 . S
Zn383 O382 2.035 . S
Zn383 O384 2.028 . S
Zn383 O386 2.028 . S
Zn383 O389 2.035 . S
O384 Zn383 2.028 . S
O384 C390 1.247 . S
O385 Zn381 2.035 . S
O385 C390 1.258 . S
O386 C379 1.247 . S
O386 Zn383 2.028 . S
O387 C379 1.258 . S
O387 Zn381 2.035 . S
O388 Zn381 2.028 . S
O388 C391 1.247 . S
O389 Zn383 2.035 . S
O389 C391 1.258 . S
C390 O384 1.247 . S
C390 O385 1.258 . S
C391 O388 1.247 . S
C391 O389 1.258 . S
C392 O394 1.247 . S
C392 O396 1.258 . S
C393 O400 1.247 . S
C393 O401 1.258 . S
O394 C392 1.247 . S
O394 Zn395 2.028 . S
Zn395 O394 2.028 . S
Zn395 O399 2.035 . S
Zn395 O401 2.035 . S
Zn395 O402 2.028 . S
O396 C392 1.258 . S
O396 Zn397 2.035 . S
Zn397 O396 2.035 . S
Zn397 O398 2.028 . S
Zn397 O400 2.028 . S
Zn397 O403 2.035 . S
O398 Zn397 2.028 . S
O398 C404 1.247 . S
O399 Zn395 2.035 . S
O399 C404 1.258 . S
O400 C393 1.247 . S
O400 Zn397 2.028 . S
O401 C393 1.258 . S
O401 Zn395 2.035 . S
O402 Zn395 2.028 . S
O402 C405 1.247 . S
O403 Zn397 2.035 . S
O403 C405 1.258 . S
C404 O398 1.247 . S
C404 O399 1.258 . S
C405 O402 1.247 . S
C405 O403 1.258 . S
C406 O408 1.247 . S
C406 O410 1.258 . S
C407 O414 1.247 . S
C407 O415 1.258 . S
O408 C406 1.247 . S
O408 Zn409 2.028 . S
Zn409 O408 2.028 . S
Zn409 O413 2.035 . S
Zn409 O415 2.035 . S
Zn409 O416 2.028 . S
O410 C406 1.258 . S
O410 Zn411 2.035 . S
Zn411 O410 2.035 . S
Zn411 O412 2.028 . S
Zn411 O414 2.028 . S
Zn411 O417 2.035 . S
O412 Zn411 2.028 . S
O412 C418 1.247 . S
O413 Zn409 2.035 . S
O413 C418 1.258 . S
O414 C407 1.247 . S
O414 Zn411 2.028 . S
O415 C407 1.258 . S
O415 Zn409 2.035 . S
O416 Zn409 2.028 . S
O416 C419 1.247 . S
O417 Zn411 2.035 . S
O417 C419 1.258 . S
C418 O412 1.247 . S
C418 O413 1.258 . S
C419 O416 1.247 . S
C419 O417 1.258 . S
C420 O422 1.247 . S
C420 O424 1.258 . S
C421 O428 1.247 . S
C421 O429 1.258 . S
O422 C420 1.247 . S
O422 Zn423 2.028 . S
Zn423 O422 2.028 . S
Zn423 O427 2.035 . S
Zn423 O429 2.035 . S
Zn423 O430 2.028 . S
O424 C420 1.258 . S
O424 Zn425 2.035 . S
Zn425 O424 2.035 . S
Zn425 O426 2.028 . S
Zn425 O428 2.028 . S
Zn425 O431 2.035 . S
O426 Zn425 2.028 . S
O426 C432 1.247 . S
O427 Zn423 2.035 . S
O427 C432 1.258 . S
O428 C421 1.247 . S
O428 Zn425 2.028 . S
O429 C421 1.258 . S
O429 Zn423 2.035 . S
O430 Zn423 2.028 . S
O430 C433 1.247 . S
O431 Zn425 2.035 . S
O431 C433 1.258 . S
C432 O426 1.247 . S
C432 O427 1.258 . S
C433 O430 1.247 . S
C433 O431 1.258 . S
C434 O436 1.247 . S
C434 O438 1.258 . S
C435 O442 1.247 . S
C435 O443 1.258 . S
O436 C434 1.247 . S
O436 Zn437 2.028 . S
Zn437 O436 2.028 . S
Zn437 O441 2.035 . S
Zn437 O443 2.035 . S
Zn437 O444 2.028 . S
O438 C434 1.258 . S
O438 Zn439 2.035 . S
Zn439 O438 2.035 . S
Zn439 O440 2.028 . S
Zn439 O442 2.028 . S
Zn439 O445 2.035 . S
O440 Zn439 2.028 . S
O440 C446 1.247 . S
O441 Zn437 2.035 . S
O441 C446 1.258 . S
O442 C435 1.247 . S
O442 Zn439 2.028 . S
O443 C435 1.258 . S
O443 Zn437 2.035 . S
O444 Zn437 2.028 . S
O444 C447 1.247 . S
O445 Zn439 2.035 . S
O445 C447 1.258 . S
C446 O440 1.247 . S
C446 O441 1.258 . S
C447 O444 1.247 . S
C447 O445 1.258 . S
C448 C449 1.363 . S
C448 C454 1.379 . S
C448 N456 1.356 . S
C449 C448 1.363 . S
C449 C455 1.363 . S
C450 C451 1.363 . S
C450 C455 1.379 . S
C450 N457 1.356 . S
C451 C450 1.363 . S
C451 C454 1.363 . S
N452 C454 1.356 . S
N452 H464 0.984 . S
N452 H465 0.985 . S
N453 C455 1.356 . S
N453 H458 0.984 . S
N453 H459 0.985 . S
C454 C448 1.379 . S
C454 C451 1.363 . S
C454 N452 1.356 . S
C455 C449 1.363 . S
C455 C450 1.379 . S
C455 N453 1.356 . S
N456 C448 1.356 . S
N456 H462 0.984 . S
N456 H463 0.984 . S
N457 C450 1.356 . S
N457 H460 0.984 . S
N457 H461 0.985 . S
H458 N453 0.984 . S
H459 N453 0.985 . S
H460 N457 0.984 . S
H461 N457 0.985 . S
H462 N456 0.984 . S
H463 N456 0.984 . S
H464 N452 0.984 . S
H465 N452 0.985 . S
C466 C467 1.363 . S
C466 C472 1.379 . S
C466 N474 1.356 1_655 S
C467 C466 1.363 . S
C467 C473 1.363 . S
C468 C469 1.363 . S
C468 C473 1.379 . S
C468 N475 1.356 . S
C469 C468 1.363 . S
C469 C472 1.363 . S
N470 C472 1.356 . S
N470 H482 0.984 . S
N470 H483 0.985 . S
N471 C473 1.356 . S
N471 H476 0.984 1_655 S
N471 H477 0.985 . S
C472 C466 1.379 . S
C472 C469 1.363 . S
C472 N470 1.356 . S
C473 C467 1.363 . S
C473 C468 1.379 . S
C473 N471 1.356 . S
N474 C466 1.356 1_455 S
N474 H480 0.984 . S
N474 H481 0.984 . S
N475 C468 1.356 . S
N475 H478 0.984 . S
N475 H479 0.985 . S
H476 N471 0.984 1_455 S
H477 N471 0.985 . S
H478 N475 0.984 . S
H479 N475 0.985 . S
H480 N474 0.984 . S
H481 N474 0.984 . S
H482 N470 0.984 . S
H483 N470 0.985 . S
C484 C485 1.363 . S
C484 C490 1.379 . S
C484 N492 1.356 . S
C485 C484 1.363 . S
C485 C491 1.363 . S
C486 C487 1.363 . S
C486 C491 1.379 . S
C486 N493 1.356 . S
C487 C486 1.363 . S
C487 C490 1.363 . S
N488 C490 1.356 . S
N488 H500 0.984 . S
N488 H501 0.985 . S
N489 C491 1.356 . S
N489 H494 0.984 . S
N489 H495 0.985 . S
C490 C484 1.379 . S
C490 C487 1.363 . S
C490 N488 1.356 . S
C491 C485 1.363 . S
C491 C486 1.379 . S
C491 N489 1.356 . S
N492 C484 1.356 . S
N492 H498 0.984 . S
N492 H499 0.984 . S
N493 C486 1.356 . S
N493 H496 0.984 . S
N493 H497 0.985 . S
H494 N489 0.984 . S
H495 N489 0.985 . S
H496 N493 0.984 . S
H497 N493 0.985 . S
H498 N492 0.984 . S
H499 N492 0.984 . S
H500 N488 0.984 . S
H501 N488 0.985 . S
C502 C503 1.363 . S
C502 C508 1.379 . S
C502 N510 1.356 . S
C503 C502 1.363 . S
C503 C509 1.363 . S
C504 C505 1.363 . S
C504 C509 1.379 . S
C504 N511 1.356 . S
C505 C504 1.363 . S
C505 C508 1.363 . S
N506 C508 1.356 . S
N506 H518 0.982 1_545 S
N506 H519 0.985 . S
N507 C509 1.356 . S
N507 H512 0.984 . S
N507 H513 0.985 . S
C508 C502 1.379 . S
C508 C505 1.363 . S
C508 N506 1.356 . S
C509 C503 1.363 . S
C509 C504 1.379 . S
C509 N507 1.356 . S
N510 C502 1.356 . S
N510 H516 0.984 1_545 S
N510 H517 0.984 . S
N511 C504 1.356 . S
N511 H514 0.984 . S
N511 H515 0.985 . S
H512 N507 0.984 . S
H513 N507 0.985 . S
H514 N511 0.984 . S
H515 N511 0.985 . S
H516 N510 0.984 1_565 S
H517 N510 0.984 . S
H518 N506 0.982 1_565 S
H519 N506 0.985 . S
C520 C521 1.363 . S
C520 C526 1.379 . S
C520 N528 1.356 . S
C521 C520 1.363 . S
C521 C527 1.363 . S
C522 C523 1.363 . S
C522 C527 1.379 . S
C522 N529 1.356 . S
C523 C522 1.363 . S
C523 C526 1.363 . S
N524 C526 1.356 . S
N524 H536 0.984 . S
N524 H537 0.985 . S
N525 C527 1.356 . S
N525 H530 0.984 . S
N525 H531 0.985 . S
C526 C520 1.379 . S
C526 C523 1.363 . S
C526 N524 1.356 . S
C527 C521 1.363 . S
C527 C522 1.379 . S
C527 N525 1.356 . S
N528 C520 1.356 . S
N528 H534 0.984 . S
N528 H535 0.984 . S
N529 C522 1.356 . S
N529 H532 0.984 . S
N529 H533 0.985 . S
H530 N525 0.984 . S
H531 N525 0.985 . S
H532 N529 0.984 . S
H533 N529 0.985 . S
H534 N528 0.984 . S
H535 N528 0.984 . S
H536 N524 0.984 . S
H537 N524 0.985 . S
C538 C539 1.363 . S
C538 C544 1.379 . S
C538 N546 1.356 . S
C539 C538 1.363 . S
C539 C545 1.363 . S
C540 C541 1.363 . S
C540 C545 1.379 . S
C540 N547 1.356 . S
C541 C540 1.363 . S
C541 C544 1.363 . S
N542 C544 1.356 . S
N542 H554 0.984 . S
N542 H555 0.985 . S
N543 C545 1.356 . S
N543 H548 0.984 . S
N543 H549 0.985 . S
C544 C538 1.379 . S
C544 C541 1.363 . S
C544 N542 1.356 . S
C545 C539 1.363 . S
C545 C540 1.379 . S
C545 N543 1.356 . S
N546 C538 1.356 . S
N546 H552 0.984 . S
N546 H553 0.984 . S
N547 C540 1.356 . S
N547 H550 0.984 . S
N547 H551 0.985 . S
H548 N543 0.984 . S
H549 N543 0.985 . S
H550 N547 0.984 . S
H551 N547 0.985 . S
H552 N546 0.984 . S
H553 N546 0.984 . S
H554 N542 0.984 . S
H555 N542 0.985 . S
C556 C557 1.363 . S
C556 C562 1.379 . S
C556 N564 1.356 . S
C557 C556 1.363 . S
C557 C563 1.363 . S
C558 C559 1.363 . S
C558 C563 1.379 . S
C558 N565 1.356 . S
C559 C558 1.363 . S
C559 C562 1.363 . S
N560 C562 1.356 . S
N560 H572 0.984 . S
N560 H573 0.985 . S
N561 C563 1.356 . S
N561 H566 0.984 . S
N561 H567 0.985 . S
C562 C556 1.379 . S
C562 C559 1.363 . S
C562 N560 1.356 . S
C563 C557 1.363 . S
C563 C558 1.379 . S
C563 N561 1.356 . S
N564 C556 1.356 . S
N564 H570 0.984 . S
N564 H571 0.984 . S
N565 C558 1.356 . S
N565 H568 0.984 . S
N565 H569 0.985 . S
H566 N561 0.984 . S
H567 N561 0.985 . S
H568 N565 0.984 . S
H569 N565 0.985 . S
H570 N564 0.984 . S
H571 N564 0.984 . S
H572 N560 0.984 . S
H573 N560 0.985 . S
C574 C575 1.363 . S
C574 C580 1.379 . S
C574 N582 1.356 1_655 S
C575 C574 1.363 . S
C575 C581 1.363 . S
C576 C577 1.363 . S
C576 C581 1.379 . S
C576 N583 1.356 . S
C577 C576 1.363 . S
C577 C580 1.363 . S
N578 C580 1.356 . S
N578 H590 0.984 . S
N578 H591 0.985 . S
N579 C581 1.356 . S
N579 H584 0.984 1_655 S
N579 H585 0.985 . S
C580 C574 1.379 . S
C580 C577 1.363 . S
C580 N578 1.356 . S
C581 C575 1.363 . S
C581 C576 1.379 . S
C581 N579 1.356 . S
N582 C574 1.356 1_455 S
N582 H588 0.984 . S
N582 H589 0.984 . S
N583 C576 1.356 . S
N583 H586 0.984 . S
N583 H587 0.985 . S
H584 N579 0.984 1_455 S
H585 N579 0.985 . S
H586 N583 0.984 . S
H587 N583 0.985 . S
H588 N582 0.984 . S
H589 N582 0.984 . S
H590 N578 0.984 . S
H591 N578 0.985 . S
C592 C593 1.363 . S
C592 C598 1.379 . S
C592 N600 1.356 . S
C593 C592 1.363 . S
C593 C599 1.363 . S
C594 C595 1.363 . S
C594 C599 1.379 . S
C594 N601 1.356 . S
C595 C594 1.363 . S
C595 C598 1.363 . S
N596 C598 1.356 . S
N596 H608 0.984 . S
N596 H609 0.985 . S
N597 C599 1.356 . S
N597 H602 0.984 . S
N597 H603 0.985 . S
C598 C592 1.379 . S
C598 C595 1.363 . S
C598 N596 1.356 . S
C599 C593 1.363 . S
C599 C594 1.379 . S
C599 N597 1.356 . S
N600 C592 1.356 . S
N600 H606 0.984 . S
N600 H607 0.984 . S
N601 C594 1.356 . S
N601 H604 0.984 . S
N601 H605 0.985 . S
H602 N597 0.984 . S
H603 N597 0.985 . S
H604 N601 0.984 . S
H605 N601 0.985 . S
H606 N600 0.984 . S
H607 N600 0.984 . S
H608 N596 0.984 . S
H609 N596 0.985 . S
C610 C611 1.363 . S
C610 C616 1.379 . S
C610 N618 1.356 . S
C611 C610 1.363 . S
C611 C617 1.363 . S
C612 C613 1.363 . S
C612 C617 1.379 . S
C612 N619 1.356 1_455 S
C613 C612 1.363 . S
C613 C616 1.363 . S
N614 C616 1.356 . S
N614 H626 0.984 . S
N614 H627 0.985 1_455 S
N615 C617 1.356 . S
N615 H620 0.984 . S
N615 H621 0.985 . S
C616 C610 1.379 . S
C616 C613 1.363 . S
C616 N614 1.356 . S
C617 C611 1.363 . S
C617 C612 1.379 . S
C617 N615 1.356 . S
N618 C610 1.356 . S
N618 H624 0.984 . S
N618 H625 0.984 . S
N619 C612 1.356 1_655 S
N619 H622 0.984 . S
N619 H623 0.985 . S
H620 N615 0.984 . S
H621 N615 0.985 . S
H622 N619 0.984 . S
H623 N619 0.985 . S
H624 N618 0.984 . S
H625 N618 0.984 . S
H626 N614 0.984 . S
H627 N614 0.985 1_655 S
C628 C629 1.363 . S
C628 C634 1.379 . S
C628 N636 1.356 . S
C629 C628 1.363 . S
C629 C635 1.363 . S
C630 C631 1.363 . S
C630 C635 1.379 . S
C630 N637 1.356 . S
C631 C630 1.363 . S
C631 C634 1.363 . S
N632 C634 1.356 . S
N632 H644 0.984 . S
N632 H645 0.985 . S
N633 C635 1.356 . S
N633 H638 0.984 . S
N633 H639 0.985 . S
C634 C628 1.379 . S
C634 C631 1.363 . S
C634 N632 1.356 . S
C635 C629 1.363 . S
C635 C630 1.379 . S
C635 N633 1.356 . S
N636 C628 1.356 . S
N636 H642 0.984 . S
N636 H643 0.984 . S
N637 C630 1.356 . S
N637 H640 0.984 . S
N637 H641 0.985 . S
H638 N633 0.984 . S
H639 N633 0.985 . S
H640 N637 0.984 . S
H641 N637 0.985 . S
H642 N636 0.984 . S
H643 N636 0.984 . S
H644 N632 0.984 . S
H645 N632 0.985 . S
C646 C647 1.363 . S
C646 C652 1.379 . S
C646 N654 1.356 . S
C647 C646 1.363 . S
C647 C653 1.363 . S
C648 C649 1.363 . S
C648 C653 1.379 . S
C648 N655 1.356 . S
C649 C648 1.363 . S
C649 C652 1.363 . S
N650 C652 1.356 . S
N650 H662 0.984 . S
N650 H663 0.985 . S
N651 C653 1.356 . S
N651 H656 0.984 . S
N651 H657 0.985 1_565 S
C652 C646 1.379 . S
C652 C649 1.363 . S
C652 N650 1.356 . S
C653 C647 1.363 . S
C653 C648 1.379 . S
C653 N651 1.356 . S
N654 C646 1.356 . S
N654 H660 0.984 . S
N654 H661 0.984 . S
N655 C648 1.356 . S
N655 H658 0.984 . S
N655 H659 0.985 1_565 S
H656 N651 0.984 . S
H657 N651 0.985 1_545 S
H658 N655 0.984 . S
H659 N655 0.985 1_545 S
H660 N654 0.984 . S
H661 N654 0.984 . S
H662 N650 0.984 . S
H663 N650 0.985 . S
C664 C665 1.363 . S
C664 C670 1.379 . S
C664 N672 1.356 . S
C665 C664 1.363 . S
C665 C671 1.363 . S
C666 C667 1.363 . S
C666 C671 1.379 . S
C666 N673 1.356 . S
C667 C666 1.363 . S
C667 C670 1.363 . S
N668 C670 1.356 . S
N668 H680 0.984 . S
N668 H681 0.985 . S
N669 C671 1.356 . S
N669 H674 0.984 . S
N669 H675 0.985 . S
C670 C664 1.379 . S
C670 C667 1.363 . S
C670 N668 1.356 . S
C671 C665 1.363 . S
C671 C666 1.379 . S
C671 N669 1.356 . S
N672 C664 1.356 . S
N672 H678 0.984 . S
N672 H679 0.984 . S
N673 C666 1.356 . S
N673 H676 0.984 . S
N673 H677 0.985 . S
H674 N669 0.984 . S
H675 N669 0.985 . S
H676 N673 0.984 . S
H677 N673 0.985 . S
H678 N672 0.984 . S
H679 N672 0.984 . S
H680 N668 0.984 . S
H681 N668 0.985 . S
C682 C683 1.363 . S
C682 C688 1.379 . S
C682 N690 1.356 . S
C683 C682 1.363 . S
C683 C689 1.363 . S
C684 C685 1.363 . S
C684 C689 1.379 . S
C684 N691 1.356 . S
C685 C684 1.363 . S
C685 C688 1.363 . S
N686 C688 1.356 . S
N686 H698 0.984 . S
N686 H699 0.985 . S
N687 C689 1.356 . S
N687 H692 0.984 . S
N687 H693 0.985 . S
C688 C682 1.379 . S
C688 C685 1.363 . S
C688 N686 1.356 . S
C689 C683 1.363 . S
C689 C684 1.379 . S
C689 N687 1.356 . S
N690 C682 1.356 . S
N690 H696 0.984 . S
N690 H697 0.984 . S
N691 C684 1.356 . S
N691 H694 0.984 . S
N691 H695 0.985 . S
H692 N687 0.984 . S
H693 N687 0.985 . S
H694 N691 0.984 . S
H695 N691 0.985 . S
H696 N690 0.984 . S
H697 N690 0.984 . S
H698 N686 0.984 . S
H699 N686 0.985 . S
C700 C701 1.363 . S
C700 C706 1.379 . S
C700 N708 1.356 . S
C701 C700 1.363 . S
C701 C707 1.363 . S
C702 C703 1.363 . S
C702 C707 1.379 . S
C702 N709 1.356 . S
C703 C702 1.363 . S
C703 C706 1.363 . S
N704 C706 1.356 . S
N704 H716 0.984 . S
N704 H717 0.985 . S
N705 C707 1.356 . S
N705 H710 0.984 . S
N705 H711 0.985 . S
C706 C700 1.379 . S
C706 C703 1.363 . S
C706 N704 1.356 . S
C707 C701 1.363 . S
C707 C702 1.379 . S
C707 N705 1.356 . S
N708 C700 1.356 . S
N708 H714 0.984 . S
N708 H715 0.984 . S
N709 C702 1.356 . S
N709 H712 0.984 . S
N709 H713 0.985 . S
H710 N705 0.984 . S
H711 N705 0.985 . S
H712 N709 0.984 . S
H713 N709 0.985 . S
H714 N708 0.984 . S
H715 N708 0.984 . S
H716 N704 0.984 . S
H717 N704 0.985 . S
C718 C719 1.363 . S
C718 C724 1.379 . S
C718 N726 1.356 . S
C719 C718 1.363 . S
C719 C725 1.363 . S
C720 C721 1.363 . S
C720 C725 1.379 . S
C720 N727 1.356 . S
C721 C720 1.363 . S
C721 C724 1.363 . S
N722 C724 1.356 1_655 S
N722 H734 0.984 . S
N722 H735 0.985 . S
N723 C725 1.356 . S
N723 H728 0.984 . S
N723 H729 0.985 . S
C724 C718 1.379 . S
C724 C721 1.363 . S
C724 N722 1.356 1_455 S
C725 C719 1.363 . S
C725 C720 1.379 . S
C725 N723 1.356 . S
N726 C718 1.356 . S
N726 H732 0.984 . S
N726 H733 0.984 . S
N727 C720 1.356 . S
N727 H730 0.984 1_455 S
N727 H731 0.985 . S
H728 N723 0.984 . S
H729 N723 0.985 . S
H730 N727 0.984 1_655 S
H731 N727 0.985 . S
H732 N726 0.984 . S
H733 N726 0.984 . S
H734 N722 0.984 . S
H735 N722 0.985 . S
C736 C737 1.363 . S
C736 C742 1.379 . S
C736 N744 1.356 . S
C737 C736 1.363 . S
C737 C743 1.363 . S
C738 C739 1.363 . S
C738 C743 1.379 . S
C738 N745 1.356 . S
C739 C738 1.363 . S
C739 C742 1.363 . S
N740 C742 1.356 . S
N740 H752 0.984 . S
N740 H753 0.985 . S
N741 C743 1.356 . S
N741 H746 0.984 . S
N741 H747 0.985 . S
C742 C736 1.379 . S
C742 C739 1.363 . S
C742 N740 1.356 . S
C743 C737 1.363 . S
C743 C738 1.379 . S
C743 N741 1.356 . S
N744 C736 1.356 . S
N744 H750 0.984 . S
N744 H751 0.984 . S
N745 C738 1.356 . S
N745 H748 0.984 . S
N745 H749 0.985 . S
H746 N741 0.984 . S
H747 N741 0.985 . S
H748 N745 0.984 . S
H749 N745 0.985 . S
H750 N744 0.984 . S
H751 N744 0.984 . S
H752 N740 0.984 . S
H753 N740 0.985 . S
C754 C755 1.363 . S
C754 C760 1.379 . S
C754 N762 1.356 . S
C755 C754 1.363 . S
C755 C761 1.363 . S
C756 C757 1.363 . S
C756 C761 1.379 . S
C756 N763 1.356 . S
C757 C756 1.363 . S
C757 C760 1.363 . S
N758 C760 1.356 . S
N758 H770 0.984 . S
N758 H771 0.985 . S
N759 C761 1.356 . S
N759 H764 0.984 . S
N759 H765 0.985 . S
C760 C754 1.379 . S
C760 C757 1.363 . S
C760 N758 1.356 . S
C761 C755 1.363 . S
C761 C756 1.379 . S
C761 N759 1.356 . S
N762 C754 1.356 . S
N762 H768 0.984 . S
N762 H769 0.984 . S
N763 C756 1.356 . S
N763 H766 0.984 . S
N763 H767 0.985 . S
H764 N759 0.984 . S
H765 N759 0.985 . S
H766 N763 0.984 . S
H767 N763 0.985 . S
H768 N762 0.984 . S
H769 N762 0.984 . S
H770 N758 0.984 . S
H771 N758 0.985 . S
C772 C773 1.363 . S
C772 C778 1.379 . S
C772 N780 1.356 . S
C773 C772 1.363 . S
C773 C779 1.363 . S
C774 C775 1.363 . S
C774 C779 1.379 . S
C774 N781 1.356 . S
C775 C774 1.363 . S
C775 C778 1.363 . S
N776 C778 1.356 . S
N776 H788 0.984 . S
N776 H789 0.985 . S
N777 C779 1.356 . S
N777 H782 0.984 . S
N777 H783 0.985 . S
C778 C772 1.379 . S
C778 C775 1.363 . S
C778 N776 1.356 . S
C779 C773 1.363 . S
C779 C774 1.379 . S
C779 N777 1.356 . S
N780 C772 1.356 . S
N780 H786 0.984 . S
N780 H787 0.984 . S
N781 C774 1.356 . S
N781 H784 0.984 . S
N781 H785 0.985 . S
H782 N777 0.984 . S
H783 N777 0.985 . S
H784 N781 0.984 . S
H785 N781 0.985 . S
H786 N780 0.984 . S
H787 N780 0.984 . S
H788 N776 0.984 . S
H789 N776 0.985 . S
C790 C791 1.363 . S
C790 C796 1.379 . S
C790 N798 1.356 . S
C791 C790 1.363 . S
C791 C797 1.363 . S
C792 C793 1.363 . S
C792 C797 1.379 . S
C792 N799 1.356 1_455 S
C793 C792 1.363 . S
C793 C796 1.363 . S
N794 C796 1.356 . S
N794 H806 0.984 . S
N794 H807 0.985 1_455 S
N795 C797 1.356 . S
N795 H800 0.984 . S
N795 H801 0.985 . S
C796 C790 1.379 . S
C796 C793 1.363 . S
C796 N794 1.356 . S
C797 C791 1.363 . S
C797 C792 1.379 . S
C797 N795 1.356 . S
N798 C790 1.356 . S
N798 H804 0.984 . S
N798 H805 0.984 . S
N799 C792 1.356 1_655 S
N799 H802 0.984 . S
N799 H803 0.985 . S
H800 N795 0.984 . S
H801 N795 0.985 . S
H802 N799 0.984 . S
H803 N799 0.985 . S
H804 N798 0.984 . S
H805 N798 0.984 . S
H806 N794 0.984 . S
H807 N794 0.985 1_655 S
C808 C809 1.363 . S
C808 C814 1.379 . S
C808 N816 1.356 . S
C809 C808 1.363 . S
C809 C815 1.363 . S
C810 C811 1.363 . S
C810 C815 1.379 . S
C810 N817 1.356 . S
C811 C810 1.363 . S
C811 C814 1.363 . S
N812 C814 1.356 . S
N812 H824 0.984 . S
N812 H825 0.985 . S
N813 C815 1.356 . S
N813 H818 0.984 . S
N813 H819 0.985 . S
C814 C808 1.379 . S
C814 C811 1.363 . S
C814 N812 1.356 . S
C815 C809 1.363 . S
C815 C810 1.379 . S
C815 N813 1.356 . S
N816 C808 1.356 . S
N816 H822 0.984 . S
N816 H823 0.984 . S
N817 C810 1.356 . S
N817 H820 0.984 . S
N817 H821 0.985 . S
H818 N813 0.984 . S
H819 N813 0.985 . S
H820 N817 0.984 . S
H821 N817 0.985 . S
H822 N816 0.984 . S
H823 N816 0.984 . S
H824 N812 0.984 . S
H825 N812 0.985 . S
C826 C827 1.363 . S
C826 C832 1.379 . S
C826 N834 1.356 . S
C827 C826 1.363 . S
C827 C833 1.363 . S
C828 C829 1.363 . S
C828 C833 1.379 . S
C828 N835 1.356 . S
C829 C828 1.363 . S
C829 C832 1.363 . S
N830 C832 1.356 1_655 S
N830 H842 0.984 . S
N830 H843 0.985 . S
N831 C833 1.356 . S
N831 H836 0.984 . S
N831 H837 0.985 . S
C832 C826 1.379 . S
C832 C829 1.363 . S
C832 N830 1.356 1_455 S
C833 C827 1.363 . S
C833 C828 1.379 . S
C833 N831 1.356 . S
N834 C826 1.356 . S
N834 H840 0.984 . S
N834 H841 0.984 . S
N835 C828 1.356 . S
N835 H838 0.984 1_455 S
N835 H839 0.985 . S
H836 N831 0.984 . S
H837 N831 0.985 . S
H838 N835 0.984 1_655 S
H839 N835 0.985 . S
H840 N834 0.984 . S
H841 N834 0.984 . S
H842 N830 0.984 . S
H843 N830 0.985 . S
C844 C845 1.363 . S
C844 C850 1.379 . S
C844 N852 1.356 . S
C845 C844 1.363 . S
C845 C851 1.363 . S
C846 C847 1.363 . S
C846 C851 1.379 . S
C846 N853 1.356 . S
C847 C846 1.363 . S
C847 C850 1.363 . S
N848 C850 1.356 . S
N848 H860 0.984 . S
N848 H861 0.985 . S
N849 C851 1.356 . S
N849 H854 0.984 . S
N849 H855 0.985 . S
C850 C844 1.379 . S
C850 C847 1.363 . S
C850 N848 1.356 . S
C851 C845 1.363 . S
C851 C846 1.379 . S
C851 N849 1.356 . S
N852 C844 1.356 . S
N852 H858 0.984 . S
N852 H859 0.984 . S
N853 C846 1.356 . S
N853 H856 0.984 . S
N853 H857 0.985 . S
H854 N849 0.984 . S
H855 N849 0.985 . S
H856 N853 0.984 . S
H857 N853 0.985 . S
H858 N852 0.984 . S
H859 N852 0.984 . S
H860 N848 0.984 . S
H861 N848 0.985 . S
C862 C863 1.363 . S
C862 C868 1.379 . S
C862 N870 1.356 . S
C863 C862 1.363 . S
C863 C869 1.363 . S
C864 C865 1.363 . S
C864 C869 1.379 . S
C864 N871 1.356 . S
C865 C864 1.363 . S
C865 C868 1.363 . S
N866 C868 1.356 . S
N866 H878 0.984 . S
N866 H879 0.985 . S
N867 C869 1.356 . S
N867 H872 0.984 . S
N867 H873 0.985 . S
C868 C862 1.379 . S
C868 C865 1.363 . S
C868 N866 1.356 . S
C869 C863 1.363 . S
C869 C864 1.379 . S
C869 N867 1.356 . S
N870 C862 1.356 . S
N870 H876 0.984 . S
N870 H877 0.984 . S
N871 C864 1.356 . S
N871 H874 0.984 . S
N871 H875 0.985 . S
H872 N867 0.984 . S
H873 N867 0.985 . S
H874 N871 0.984 . S
H875 N871 0.985 . S
H876 N870 0.984 . S
H877 N870 0.984 . S
H878 N866 0.984 . S
H879 N866 0.985 . S
C880 C881 1.363 . S
C880 C886 1.379 . S
C880 N888 1.356 . S
C881 C880 1.363 . S
C881 C887 1.363 . S
C882 C883 1.363 . S
C882 C887 1.379 . S
C882 N889 1.356 . S
C883 C882 1.363 . S
C883 C886 1.363 . S
N884 C886 1.356 . S
N884 H896 0.984 . S
N884 H897 0.985 . S
N885 C887 1.356 . S
N885 H890 0.984 . S
N885 H891 0.985 . S
C886 C880 1.379 . S
C886 C883 1.363 . S
C886 N884 1.356 . S
C887 C881 1.363 . S
C887 C882 1.379 . S
C887 N885 1.356 . S
N888 C880 1.356 . S
N888 H894 0.984 . S
N888 H895 0.984 . S
N889 C882 1.356 . S
N889 H892 0.984 . S
N889 H893 0.985 . S
H890 N885 0.984 . S
H891 N885 0.985 . S
H892 N889 0.984 . S
H893 N889 0.985 . S
H894 N888 0.984 . S
H895 N888 0.984 . S
H896 N884 0.984 . S
H897 N884 0.985 . S
C898 C899 1.363 . S
C898 C904 1.379 . S
C898 N906 1.356 . S
C899 C898 1.363 . S
C899 C905 1.363 . S
C900 C901 1.363 . S
C900 C905 1.379 . S
C900 N907 1.356 . S
C901 C900 1.363 . S
C901 C904 1.363 . S
N902 C904 1.356 . S
N902 H914 0.984 . S
N902 H915 0.985 . S
N903 C905 1.356 . S
N903 H908 0.984 . S
N903 H909 0.985 . S
C904 C898 1.379 . S
C904 C901 1.363 . S
C904 N902 1.356 . S
C905 C899 1.363 . S
C905 C900 1.379 . S
C905 N903 1.356 . S
N906 C898 1.356 . S
N906 H912 0.984 . S
N906 H913 0.984 . S
N907 C900 1.356 . S
N907 H910 0.984 . S
N907 H911 0.985 . S
H908 N903 0.984 . S
H909 N903 0.985 . S
H910 N907 0.984 . S
H911 N907 0.985 . S
H912 N906 0.984 . S
H913 N906 0.984 . S
H914 N902 0.984 . S
H915 N902 0.985 . S
C916 C917 1.363 . S
C916 C922 1.379 . S
C916 N924 1.356 . S
C917 C916 1.363 . S
C917 C923 1.363 . S
C918 C919 1.363 . S
C918 C923 1.379 . S
C918 N925 1.356 . S
C919 C918 1.363 . S
C919 C922 1.363 . S
N920 C922 1.356 . S
N920 H932 0.984 . S
N920 H933 0.985 . S
N921 C923 1.356 . S
N921 H926 0.984 . S
N921 H927 0.985 . S
C922 C916 1.379 . S
C922 C919 1.363 . S
C922 N920 1.356 . S
C923 C917 1.363 . S
C923 C918 1.379 . S
C923 N921 1.356 . S
N924 C916 1.356 . S
N924 H930 0.984 . S
N924 H931 0.984 . S
N925 C918 1.356 . S
N925 H928 0.984 . S
N925 H929 0.985 . S
H926 N921 0.984 . S
H927 N921 0.985 . S
H928 N925 0.984 . S
H929 N925 0.985 . S
H930 N924 0.984 . S
H931 N924 0.984 . S
H932 N920 0.984 . S
H933 N920 0.985 . S
C934 C935 1.363 . S
C934 C940 1.379 . S
C934 N942 1.356 1_655 S
C935 C934 1.363 . S
C935 C941 1.363 . S
C936 C937 1.363 . S
C936 C941 1.379 . S
C936 N943 1.356 . S
C937 C936 1.363 . S
C937 C940 1.363 . S
N938 C940 1.356 . S
N938 H950 0.984 . S
N938 H951 0.985 . S
N939 C941 1.356 . S
N939 H944 0.984 1_655 S
N939 H945 0.985 . S
C940 C934 1.379 . S
C940 C937 1.363 . S
C940 N938 1.356 . S
C941 C935 1.363 . S
C941 C936 1.379 . S
C941 N939 1.356 . S
N942 C934 1.356 1_455 S
N942 H948 0.984 . S
N942 H949 0.984 . S
N943 C936 1.356 . S
N943 H946 0.984 . S
N943 H947 0.985 . S
H944 N939 0.984 1_455 S
H945 N939 0.985 . S
H946 N943 0.984 . S
H947 N943 0.985 . S
H948 N942 0.984 . S
H949 N942 0.984 . S
H950 N938 0.984 . S
H951 N938 0.985 . S
C952 C953 1.363 . S
C952 C958 1.379 . S
C952 N960 1.356 . S
C953 C952 1.363 . S
C953 C959 1.363 . S
C954 C955 1.363 . S
C954 C959 1.379 . S
C954 N961 1.356 . S
C955 C954 1.363 . S
C955 C958 1.363 . S
N956 C958 1.356 . S
N956 H968 0.984 . S
N956 H969 0.985 . S
N957 C959 1.356 . S
N957 H962 0.984 . S
N957 H963 0.985 . S
C958 C952 1.379 . S
C958 C955 1.363 . S
C958 N956 1.356 . S
C959 C953 1.363 . S
C959 C954 1.379 . S
C959 N957 1.356 . S
N960 C952 1.356 . S
N960 H966 0.984 . S
N960 H967 0.984 . S
N961 C954 1.356 . S
N961 H964 0.984 . S
N961 H965 0.985 . S
H962 N957 0.984 . S
H963 N957 0.985 . S
H964 N961 0.984 . S
H965 N961 0.985 . S
H966 N960 0.984 . S
H967 N960 0.984 . S
H968 N956 0.984 . S
H969 N956 0.985 . S
C970 C971 1.363 . S
C970 C976 1.379 . S
C970 N978 1.356 . S
C971 C970 1.363 . S
C971 C977 1.363 . S
C972 C973 1.363 . S
C972 C977 1.379 . S
C972 N979 1.356 . S
C973 C972 1.363 . S
C973 C976 1.363 . S
N974 C976 1.356 . S
N974 H986 0.984 . S
N974 H987 0.985 . S
N975 C977 1.356 1_455 S
N975 H980 0.984 . S
N975 H981 0.985 . S
C976 C970 1.379 . S
C976 C973 1.363 . S
C976 N974 1.356 . S
C977 C971 1.363 . S
C977 C972 1.379 . S
C977 N975 1.356 1_655 S
N978 C970 1.356 . S
N978 H984 0.984 . S
N978 H985 0.984 1_655 S
N979 C972 1.356 . S
N979 H982 0.984 . S
N979 H983 0.985 . S
H980 N975 0.984 . S
H981 N975 0.985 . S
H982 N979 0.984 . S
H983 N979 0.985 . S
H984 N978 0.984 . S
H985 N978 0.984 1_455 S
H986 N974 0.984 . S
H987 N974 0.985 . S
C988 C989 1.363 . S
C988 C994 1.379 . S
C988 N996 1.356 . S
C989 C988 1.363 . S
C989 C995 1.363 . S
C990 C991 1.363 . S
C990 C995 1.379 . S
C990 N997 1.356 . S
C991 C990 1.363 . S
C991 C994 1.363 . S
N992 C994 1.356 . S
N992 H1004 0.984 . S
N992 H1005 0.985 . S
N993 C995 1.356 . S
N993 H998 0.984 . S
N993 H999 0.985 . S
C994 C988 1.379 . S
C994 C991 1.363 . S
C994 N992 1.356 . S
C995 C989 1.363 . S
C995 C990 1.379 . S
C995 N993 1.356 . S
N996 C988 1.356 . S
N996 H1002 0.984 . S
N996 H1003 0.984 . S
N997 C990 1.356 . S
N997 H1000 0.984 . S
N997 H1001 0.985 . S
H998 N993 0.984 . S
H999 N993 0.985 . S
H1000 N997 0.984 . S
H1001 N997 0.985 . S
H1002 N996 0.984 . S
H1003 N996 0.984 . S
H1004 N992 0.984 . S
H1005 N992 0.985 . S
C1006 C1007 1.363 . S
C1006 C1012 1.379 . S
C1006 N1014 1.356 . S
C1007 C1006 1.363 . S
C1007 C1013 1.363 . S
C1008 C1009 1.363 . S
C1008 C1013 1.379 . S
C1008 N1015 1.356 . S
C1009 C1008 1.363 . S
C1009 C1012 1.363 . S
N1010 C1012 1.356 . S
N1010 H1022 0.984 . S
N1010 H1023 0.985 . S
N1011 C1013 1.356 . S
N1011 H1016 0.984 . S
N1011 H1017 0.985 . S
C1012 C1006 1.379 . S
C1012 C1009 1.363 . S
C1012 N1010 1.356 . S
C1013 C1007 1.363 . S
C1013 C1008 1.379 . S
C1013 N1011 1.356 . S
N1014 C1006 1.356 . S
N1014 H1020 0.984 . S
N1014 H1021 0.984 . S
N1015 C1008 1.356 . S
N1015 H1018 0.984 . S
N1015 H1019 0.985 . S
H1016 N1011 0.984 . S
H1017 N1011 0.985 . S
H1018 N1015 0.984 . S
H1019 N1015 0.985 . S
H1020 N1014 0.984 . S
H1021 N1014 0.984 . S
H1022 N1010 0.984 . S
H1023 N1010 0.985 . S
C1024 C1025 1.363 . S
C1024 C1030 1.379 . S
C1024 N1032 1.356 . S
C1025 C1024 1.363 . S
C1025 C1031 1.363 . S
C1026 C1027 1.363 . S
C1026 C1031 1.379 . S
C1026 N1033 1.356 . S
C1027 C1026 1.363 . S
C1027 C1030 1.363 . S
N1028 C1030 1.356 . S
N1028 H1040 0.984 . S
N1028 H1041 0.985 . S
N1029 C1031 1.356 . S
N1029 H1034 0.984 . S
N1029 H1035 0.985 . S
C1030 C1024 1.379 . S
C1030 C1027 1.363 . S
C1030 N1028 1.356 . S
C1031 C1025 1.363 . S
C1031 C1026 1.379 . S
C1031 N1029 1.356 . S
N1032 C1024 1.356 . S
N1032 H1038 0.984 . S
N1032 H1039 0.984 . S
N1033 C1026 1.356 . S
N1033 H1036 0.984 . S
N1033 H1037 0.985 . S
H1034 N1029 0.984 . S
H1035 N1029 0.985 . S
H1036 N1033 0.984 . S
H1037 N1033 0.985 . S
H1038 N1032 0.984 . S
H1039 N1032 0.984 . S
H1040 N1028 0.984 . S
H1041 N1028 0.985 . S
C1042 C1043 1.363 1_565 S
C1042 C1048 1.374 1_455 S
C1042 N1050 1.356 . S
C1043 C1042 1.363 1_545 S
C1043 C1049 1.368 . S
C1044 C1045 1.363 1_545 S
C1044 C1049 1.374 1_655 S
C1044 N1051 1.356 . S
C1045 C1044 1.363 1_565 S
C1045 C1048 1.368 . S
N1046 C1048 1.358 . S
N1046 H1058 0.984 1_655 S
N1046 H1059 0.985 . S
N1047 C1049 1.358 . S
N1047 H1052 0.984 . S
N1047 H1053 0.985 1_455 S
C1048 C1042 1.374 1_655 S
C1048 C1045 1.368 . S
C1048 N1046 1.358 . S
C1049 C1043 1.368 . S
C1049 C1044 1.374 1_455 S
C1049 N1047 1.358 . S
N1050 C1042 1.356 . S
N1050 H1056 0.984 . S
N1050 H1057 0.984 . S
N1051 C1044 1.356 . S
N1051 H1054 0.984 . S
N1051 H1055 0.985 . S
H1052 N1047 0.984 . S
H1053 N1047 0.985 1_655 S
H1054 N1051 0.984 . S
H1055 N1051 0.985 . S
H1056 N1050 0.984 . S
H1057 N1050 0.984 . S
H1058 N1046 0.984 1_455 S
H1059 N1046 0.985 . S
C1060 C1061 1.363 . S
C1060 C1066 1.379 . S
C1060 N1068 1.356 . S
C1061 C1060 1.363 . S
C1061 C1067 1.363 . S
C1062 C1063 1.363 . S
C1062 C1067 1.379 . S
C1062 N1069 1.356 . S
C1063 C1062 1.363 . S
C1063 C1066 1.363 . S
N1064 C1066 1.356 . S
N1064 H1076 0.984 . S
N1064 H1077 0.985 . S
N1065 C1067 1.356 . S
N1065 H1070 0.984 . S
N1065 H1071 0.985 . S
C1066 C1060 1.379 . S
C1066 C1063 1.363 . S
C1066 N1064 1.356 . S
C1067 C1061 1.363 . S
C1067 C1062 1.379 . S
C1067 N1065 1.356 . S
N1068 C1060 1.356 . S
N1068 H1074 0.984 . S
N1068 H1075 0.984 . S
N1069 C1062 1.356 . S
N1069 H1072 0.984 . S
N1069 H1073 0.985 . S
H1070 N1065 0.984 . S
H1071 N1065 0.985 . S
H1072 N1069 0.984 . S
H1073 N1069 0.985 . S
H1074 N1068 0.984 . S
H1075 N1068 0.984 . S
H1076 N1064 0.984 . S
H1077 N1064 0.985 . S
C1078 C1079 1.363 . S
C1078 C1084 1.350 1_554 S
C1078 N1086 1.356 . S
C1079 C1078 1.363 . S
C1079 C1085 1.392 1_565 S
C1080 C1081 1.363 . S
C1080 C1085 1.350 1_556 S
C1080 N1087 1.356 . S
C1081 C1080 1.363 . S
C1081 C1084 1.391 1_545 S
N1082 C1084 1.368 . S
N1082 H1094 0.984 1_556 S
N1082 H1095 0.985 . S
N1083 C1085 1.368 . S
N1083 H1088 0.984 . S
N1083 H1089 0.985 1_554 S
C1084 C1078 1.350 1_556 S
C1084 C1081 1.391 1_565 S
C1084 N1082 1.368 . S
C1085 C1079 1.392 1_545 S
C1085 C1080 1.350 1_554 S
C1085 N1083 1.368 . S
N1086 C1078 1.356 . S
N1086 H1092 0.984 . S
N1086 H1093 0.984 . S
N1087 C1080 1.356 . S
N1087 H1090 0.984 . S
N1087 H1091 0.985 . S
H1088 N1083 0.984 . S
H1089 N1083 0.985 1_556 S
H1090 N1087 0.984 . S
H1091 N1087 0.985 . S
H1092 N1086 0.984 . S
H1093 N1086 0.984 . S
H1094 N1082 0.984 1_554 S
H1095 N1082 0.985 . S
C1096 C1097 1.363 . S
C1096 C1102 1.379 . S
C1096 N1104 1.356 . S
C1097 C1096 1.363 . S
C1097 C1103 1.363 . S
C1098 C1099 1.363 . S
C1098 C1103 1.379 . S
C1098 N1105 1.356 . S
C1099 C1098 1.363 . S
C1099 C1102 1.363 . S
N1100 C1102 1.356 . S
N1100 H1112 0.984 . S
N1100 H1113 0.985 . S
N1101 C1103 1.356 . S
N1101 H1106 0.984 . S
N1101 H1107 0.985 . S
C1102 C1096 1.379 . S
C1102 C1099 1.363 . S
C1102 N1100 1.356 . S
C1103 C1097 1.363 . S
C1103 C1098 1.379 . S
C1103 N1101 1.356 . S
N1104 C1096 1.356 . S
N1104 H1110 0.984 . S
N1104 H1111 0.984 . S
N1105 C1098 1.356 . S
N1105 H1108 0.984 . S
N1105 H1109 0.985 . S
H1106 N1101 0.984 . S
H1107 N1101 0.985 . S
H1108 N1105 0.984 . S
H1109 N1105 0.985 . S
H1110 N1104 0.984 . S
H1111 N1104 0.984 . S
H1112 N1100 0.984 . S
H1113 N1100 0.985 . S
C1114 C1115 1.363 1_565 S
C1114 C1120 1.379 . S
C1114 N1122 1.356 . S
C1115 C1114 1.363 1_545 S
C1115 C1121 1.363 . S
C1116 C1117 1.363 1_545 S
C1116 C1121 1.379 . S
C1116 N1123 1.356 . S
C1117 C1116 1.363 1_565 S
C1117 C1120 1.363 . S
N1118 C1120 1.356 . S
N1118 H1130 0.984 . S
N1118 H1131 0.985 . S
N1119 C1121 1.356 . S
N1119 H1124 0.984 . S
N1119 H1125 0.985 . S
C1120 C1114 1.379 . S
C1120 C1117 1.363 . S
C1120 N1118 1.356 . S
C1121 C1115 1.363 . S
C1121 C1116 1.379 . S
C1121 N1119 1.356 . S
N1122 C1114 1.356 . S
N1122 H1128 0.984 . S
N1122 H1129 0.984 . S
N1123 C1116 1.356 . S
N1123 H1126 0.984 . S
N1123 H1127 0.985 . S
H1124 N1119 0.984 . S
H1125 N1119 0.985 . S
H1126 N1123 0.984 . S
H1127 N1123 0.985 . S
H1128 N1122 0.984 . S
H1129 N1122 0.984 . S
H1130 N1118 0.984 . S
H1131 N1118 0.985 . S
C1132 C1133 1.363 . S
C1132 C1138 1.379 . S
C1132 N1140 1.356 . S
C1133 C1132 1.363 . S
C1133 C1139 1.363 . S
C1134 C1135 1.363 . S
C1134 C1139 1.379 . S
C1134 N1141 1.356 . S
C1135 C1134 1.363 . S
C1135 C1138 1.363 . S
N1136 C1138 1.356 . S
N1136 H1148 0.984 . S
N1136 H1149 0.985 . S
N1137 C1139 1.356 . S
N1137 H1142 0.984 . S
N1137 H1143 0.985 . S
C1138 C1132 1.379 . S
C1138 C1135 1.363 . S
C1138 N1136 1.356 . S
C1139 C1133 1.363 . S
C1139 C1134 1.379 . S
C1139 N1137 1.356 . S
N1140 C1132 1.356 . S
N1140 H1146 0.984 . S
N1140 H1147 0.984 . S
N1141 C1134 1.356 . S
N1141 H1144 0.984 . S
N1141 H1145 0.985 . S
H1142 N1137 0.984 . S
H1143 N1137 0.985 . S
H1144 N1141 0.984 . S
H1145 N1141 0.985 . S
H1146 N1140 0.984 . S
H1147 N1140 0.984 . S
H1148 N1136 0.984 . S
H1149 N1136 0.985 . S
C1150 C1151 1.361 1_655 S
C1150 C1156 1.355 1_556 S
C1150 N1158 1.356 1_655 S
C1151 C1150 1.361 1_455 S
C1151 C1157 1.389 1_565 S
C1152 C1153 1.361 1_455 S
C1152 C1157 1.355 1_554 S
C1152 N1159 1.356 1_455 S
C1153 C1152 1.361 1_655 S
C1153 C1156 1.389 1_545 S
N1154 C1156 1.367 . S
N1154 H1166 0.984 1_554 S
N1154 H1167 0.985 . S
N1155 C1157 1.367 . S
N1155 H1160 0.984 . S
N1155 H1161 0.985 1_556 S
C1156 C1150 1.355 1_554 S
C1156 C1153 1.389 1_565 S
C1156 N1154 1.367 . S
C1157 C1151 1.389 1_545 S
C1157 C1152 1.355 1_556 S
C1157 N1155 1.367 . S
N1158 C1150 1.356 1_455 S
N1158 H1164 0.984 1_455 S
N1158 H1165 0.984 . S
N1159 C1152 1.356 1_655 S
N1159 H1162 0.984 . S
N1159 H1163 0.985 1_655 S
H1160 N1155 0.984 . S
H1161 N1155 0.985 1_554 S
H1162 N1159 0.984 . S
H1163 N1159 0.985 1_455 S
H1164 N1158 0.984 1_655 S
H1165 N1158 0.984 . S
H1166 N1154 0.984 1_556 S
H1167 N1154 0.985 . S
C1168 C1169 1.363 . S
C1168 C1174 1.379 . S
C1168 N1176 1.356 . S
C1169 C1168 1.363 . S
C1169 C1175 1.363 . S
C1170 C1171 1.363 . S
C1170 C1175 1.379 . S
C1170 N1177 1.356 . S
C1171 C1170 1.363 . S
C1171 C1174 1.363 . S
N1172 C1174 1.356 . S
N1172 H1184 0.984 . S
N1172 H1185 0.985 . S
N1173 C1175 1.356 . S
N1173 H1178 0.984 . S
N1173 H1179 0.985 . S
C1174 C1168 1.379 . S
C1174 C1171 1.363 . S
C1174 N1172 1.356 . S
C1175 C1169 1.363 . S
C1175 C1170 1.379 . S
C1175 N1173 1.356 . S
N1176 C1168 1.356 . S
N1176 H1182 0.984 . S
N1176 H1183 0.984 . S
N1177 C1170 1.356 . S
N1177 H1180 0.984 . S
N1177 H1181 0.985 . S
H1178 N1173 0.984 . S
H1179 N1173 0.985 . S
H1180 N1177 0.984 . S
H1181 N1177 0.985 . S
H1182 N1176 0.984 . S
H1183 N1176 0.984 . S
H1184 N1172 0.984 . S
H1185 N1172 0.985 . S
C1186 C1187 1.363 . S
C1186 C1192 1.379 . S
C1186 N1194 1.356 . S
C1187 C1186 1.363 . S
C1187 C1193 1.363 . S
C1188 C1189 1.363 . S
C1188 C1193 1.379 . S
C1188 N1195 1.356 . S
C1189 C1188 1.363 . S
C1189 C1192 1.363 . S
N1190 C1192 1.356 . S
N1190 H1202 0.984 . S
N1190 H1203 0.985 . S
N1191 C1193 1.356 . S
N1191 H1196 0.984 . S
N1191 H1197 0.985 . S
C1192 C1186 1.379 . S
C1192 C1189 1.363 . S
C1192 N1190 1.356 . S
C1193 C1187 1.363 . S
C1193 C1188 1.379 . S
C1193 N1191 1.356 . S
N1194 C1186 1.356 . S
N1194 H1200 0.984 . S
N1194 H1201 0.984 . S
N1195 C1188 1.356 . S
N1195 H1198 0.984 . S
N1195 H1199 0.985 . S
H1196 N1191 0.984 . S
H1197 N1191 0.985 . S
H1198 N1195 0.984 . S
H1199 N1195 0.985 . S
H1200 N1194 0.984 . S
H1201 N1194 0.984 . S
H1202 N1190 0.984 . S
H1203 N1190 0.985 . S
C1204 C1205 1.363 . S
C1204 C1210 1.379 . S
C1204 N1212 1.356 . S
C1205 C1204 1.363 . S
C1205 C1211 1.363 . S
C1206 C1207 1.363 . S
C1206 C1211 1.379 . S
C1206 N1213 1.356 . S
C1207 C1206 1.363 . S
C1207 C1210 1.363 . S
N1208 C1210 1.356 . S
N1208 H1220 0.984 . S
N1208 H1221 0.985 . S
N1209 C1211 1.356 . S
N1209 H1214 0.984 . S
N1209 H1215 0.985 . S
C1210 C1204 1.379 . S
C1210 C1207 1.363 . S
C1210 N1208 1.356 . S
C1211 C1205 1.363 . S
C1211 C1206 1.379 . S
C1211 N1209 1.356 . S
N1212 C1204 1.356 . S
N1212 H1218 0.984 . S
N1212 H1219 0.984 . S
N1213 C1206 1.356 . S
N1213 H1216 0.984 . S
N1213 H1217 0.985 . S
H1214 N1209 0.984 . S
H1215 N1209 0.985 . S
H1216 N1213 0.984 . S
H1217 N1213 0.985 . S
H1218 N1212 0.984 . S
H1219 N1212 0.984 . S
H1220 N1208 0.984 . S
H1221 N1208 0.985 . S
C1222 C1223 1.363 . S
C1222 C1228 1.379 . S
C1222 N1230 1.356 . S
C1223 C1222 1.363 . S
C1223 C1229 1.363 . S
C1224 C1225 1.363 . S
C1224 C1229 1.379 . S
C1224 N1231 1.356 . S
C1225 C1224 1.363 . S
C1225 C1228 1.363 . S
N1226 C1228 1.356 . S
N1226 H1238 0.984 . S
N1226 H1239 0.985 . S
N1227 C1229 1.356 . S
N1227 H1232 0.984 . S
N1227 H1233 0.985 . S
C1228 C1222 1.379 . S
C1228 C1225 1.363 . S
C1228 N1226 1.356 . S
C1229 C1223 1.363 . S
C1229 C1224 1.379 . S
C1229 N1227 1.356 . S
N1230 C1222 1.356 . S
N1230 H1236 0.984 . S
N1230 H1237 0.984 . S
N1231 C1224 1.356 . S
N1231 H1234 0.984 . S
N1231 H1235 0.985 . S
H1232 N1227 0.984 . S
H1233 N1227 0.985 . S
H1234 N1231 0.984 . S
H1235 N1231 0.985 . S
H1236 N1230 0.984 . S
H1237 N1230 0.984 . S
H1238 N1226 0.984 . S
H1239 N1226 0.985 . S
C1240 C1241 1.363 . S
C1240 C1246 1.379 1_554 S
C1240 N1248 1.356 . S
C1241 C1240 1.363 . S
C1241 C1247 1.363 . S
C1242 C1243 1.363 . S
C1242 C1247 1.379 1_556 S
C1242 N1249 1.356 . S
C1243 C1242 1.363 . S
C1243 C1246 1.363 . S
N1244 C1246 1.356 . S
N1244 H1256 0.984 . S
N1244 H1257 0.985 . S
N1245 C1247 1.356 . S
N1245 H1250 0.984 . S
N1245 H1251 0.985 . S
C1246 C1240 1.379 1_556 S
C1246 C1243 1.363 . S
C1246 N1244 1.356 . S
C1247 C1241 1.363 . S
C1247 C1242 1.379 1_554 S
C1247 N1245 1.356 . S
N1248 C1240 1.356 . S
N1248 H1254 0.964 1_554 S
N1248 H1255 0.984 . S
N1249 C1242 1.356 . S
N1249 H1252 0.984 . S
N1249 H1253 0.965 1_556 S
H1250 N1245 0.984 . S
H1251 N1245 0.985 . S
H1252 N1249 0.984 . S
H1253 N1249 0.965 1_554 S
H1254 N1248 0.964 1_556 S
H1255 N1248 0.984 . S
H1256 N1244 0.984 . S
H1257 N1244 0.985 . S
C1258 C1259 1.363 . S
C1258 C1264 1.379 . S
C1258 N1266 1.356 . S
C1259 C1258 1.363 . S
C1259 C1265 1.363 1_455 S
C1260 C1261 1.363 . S
C1260 C1265 1.379 . S
C1260 N1267 1.356 . S
C1261 C1260 1.363 . S
C1261 C1264 1.363 1_655 S
N1262 C1264 1.356 1_655 S
N1262 H1274 0.984 1_655 S
N1262 H1275 0.985 . S
N1263 C1265 1.356 1_455 S
N1263 H1268 0.984 . S
N1263 H1269 0.985 1_455 S
C1264 C1258 1.379 . S
C1264 C1261 1.363 1_455 S
C1264 N1262 1.356 1_455 S
C1265 C1259 1.363 1_655 S
C1265 C1260 1.379 . S
C1265 N1263 1.356 1_655 S
N1266 C1258 1.356 . S
N1266 H1272 0.984 . S
N1266 H1273 0.984 . S
N1267 C1260 1.356 . S
N1267 H1270 0.984 . S
N1267 H1271 0.985 . S
H1268 N1263 0.984 . S
H1269 N1263 0.985 1_655 S
H1270 N1267 0.984 . S
H1271 N1267 0.985 . S
H1272 N1266 0.984 . S
H1273 N1266 0.984 . S
H1274 N1262 0.984 1_455 S
H1275 N1262 0.985 . S
C1276 C1277 1.352 1_556 S
C1276 C1282 1.387 . S
C1276 N1284 1.353 1_556 S
C1277 C1276 1.352 1_554 S
C1277 C1283 1.365 1_455 S
C1278 C1279 1.352 1_554 S
C1278 C1283 1.387 . S
C1278 N1285 1.353 1_554 S
C1279 C1278 1.352 1_556 S
C1279 C1282 1.365 1_655 S
N1280 C1282 1.357 1_655 S
N1280 H1292 0.984 1_655 S
N1280 H1293 0.985 . S
N1281 C1283 1.357 1_455 S
N1281 H1286 0.984 . S
N1281 H1287 0.985 1_455 S
C1282 C1276 1.387 . S
C1282 C1279 1.365 1_455 S
C1282 N1280 1.357 1_455 S
C1283 C1277 1.365 1_655 S
C1283 C1278 1.387 . S
C1283 N1281 1.357 1_655 S
N1284 C1276 1.353 1_554 S
N1284 H1290 0.984 1_554 S
N1284 H1291 0.984 . S
N1285 C1278 1.353 1_556 S
N1285 H1288 0.984 . S
N1285 H1289 0.985 1_556 S
H1286 N1281 0.984 . S
H1287 N1281 0.985 1_655 S
H1288 N1285 0.984 . S
H1289 N1285 0.985 1_554 S
H1290 N1284 0.984 1_556 S
H1291 N1284 0.984 . S
H1292 N1280 0.984 1_455 S
H1293 N1280 0.985 . S
C1294 C1295 1.363 . S
C1294 C1300 1.379 . S
C1294 N1302 1.356 . S
C1295 C1294 1.363 . S
C1295 C1301 1.363 . S
C1296 C1297 1.363 . S
C1296 C1301 1.379 . S
C1296 N1303 1.356 . S
C1297 C1296 1.363 . S
C1297 C1300 1.363 . S
N1298 C1300 1.356 . S
N1298 H1310 0.984 . S
N1298 H1311 0.985 . S
N1299 C1301 1.356 . S
N1299 H1304 0.984 . S
N1299 H1305 0.985 . S
C1300 C1294 1.379 . S
C1300 C1297 1.363 . S
C1300 N1298 1.356 . S
C1301 C1295 1.363 . S
C1301 C1296 1.379 . S
C1301 N1299 1.356 . S
N1302 C1294 1.356 . S
N1302 H1308 0.984 . S
N1302 H1309 0.984 . S
N1303 C1296 1.356 . S
N1303 H1306 0.984 . S
N1303 H1307 0.985 . S
H1304 N1299 0.984 . S
H1305 N1299 0.985 . S
H1306 N1303 0.984 . S
H1307 N1303 0.985 . S
H1308 N1302 0.984 . S
H1309 N1302 0.984 . S
H1310 N1298 0.984 . S
H1311 N1298 0.985 . S
C1312 C1313 1.363 1_565 S
C1312 C1318 1.379 . S
C1312 N1320 1.356 . S
C1313 C1312 1.363 1_545 S
C1313 C1319 1.363 . S
C1314 C1315 1.363 1_545 S
C1314 C1319 1.379 . S
C1314 N1321 1.356 . S
C1315 C1314 1.363 1_565 S
C1315 C1318 1.363 . S
N1316 C1318 1.356 . S
N1316 H1328 0.984 . S
N1316 H1329 0.985 . S
N1317 C1319 1.356 . S
N1317 H1322 0.984 . S
N1317 H1323 0.985 . S
C1318 C1312 1.379 . S
C1318 C1315 1.363 . S
C1318 N1316 1.356 . S
C1319 C1313 1.363 . S
C1319 C1314 1.379 . S
C1319 N1317 1.356 . S
N1320 C1312 1.356 . S
N1320 H1326 0.984 . S
N1320 H1327 0.984 1_565 S
N1321 C1314 1.356 . S
N1321 H1324 0.984 1_545 S
N1321 H1325 0.985 . S
H1322 N1317 0.984 . S
H1323 N1317 0.985 . S
H1324 N1321 0.984 1_565 S
H1325 N1321 0.985 . S
H1326 N1320 0.984 . S
H1327 N1320 0.984 1_545 S
H1328 N1316 0.984 . S
H1329 N1316 0.985 . S
C1330 C1331 1.363 . S
C1330 C1336 1.379 . S
C1330 N1338 1.356 . S
C1331 C1330 1.363 . S
C1331 C1337 1.363 . S
C1332 C1333 1.363 . S
C1332 C1337 1.379 . S
C1332 N1339 1.356 1_565 S
C1333 C1332 1.363 . S
C1333 C1336 1.363 . S
N1334 C1336 1.356 . S
N1334 H1346 0.984 . S
N1334 H1347 0.985 . S
N1335 C1337 1.356 1_545 S
N1335 H1340 0.984 1_545 S
N1335 H1341 0.985 . S
C1336 C1330 1.379 . S
C1336 C1333 1.363 . S
C1336 N1334 1.356 . S
C1337 C1331 1.363 . S
C1337 C1332 1.379 . S
C1337 N1335 1.356 1_565 S
N1338 C1330 1.356 . S
N1338 H1344 0.984 . S
N1338 H1345 0.984 . S
N1339 C1332 1.356 1_545 S
N1339 H1342 0.984 1_545 S
N1339 H1343 0.985 . S
H1340 N1335 0.984 1_565 S
H1341 N1335 0.985 . S
H1342 N1339 0.984 1_565 S
H1343 N1339 0.985 . S
H1344 N1338 0.984 . S
H1345 N1338 0.984 . S
H1346 N1334 0.984 . S
H1347 N1334 0.985 . S
C1348 C1349 1.363 1_565 S
C1348 C1354 1.379 . S
C1348 N1356 1.356 . S
C1349 C1348 1.363 1_545 S
C1349 C1355 1.363 . S
C1350 C1351 1.363 1_545 S
C1350 C1355 1.379 . S
C1350 N1357 1.356 . S
C1351 C1350 1.363 1_565 S
C1351 C1354 1.363 . S
N1352 C1354 1.356 . S
N1352 H1364 0.984 . S
N1352 H1365 0.985 . S
N1353 C1355 1.356 . S
N1353 H1358 0.984 . S
N1353 H1359 0.985 . S
C1354 C1348 1.379 . S
C1354 C1351 1.363 . S
C1354 N1352 1.356 . S
C1355 C1349 1.363 . S
C1355 C1350 1.379 . S
C1355 N1353 1.356 . S
N1356 C1348 1.356 . S
N1356 H1362 0.984 . S
N1356 H1363 0.984 1_565 S
N1357 C1350 1.356 . S
N1357 H1360 0.984 1_545 S
N1357 H1361 0.985 . S
H1358 N1353 0.984 . S
H1359 N1353 0.985 . S
H1360 N1357 0.984 1_565 S
H1361 N1357 0.985 . S
H1362 N1356 0.984 . S
H1363 N1356 0.984 1_545 S
H1364 N1352 0.984 . S
H1365 N1352 0.985 . S
C1366 C1367 1.363 . S
C1366 C1372 1.379 1_554 S
C1366 N1374 1.356 1_545 S
C1367 C1366 1.363 . S
C1367 C1373 1.363 . S
C1368 C1369 1.363 . S
C1368 C1373 1.379 1_556 S
C1368 N1375 1.356 . S
C1369 C1368 1.363 . S
C1369 C1372 1.363 . S
N1370 C1372 1.356 1_565 S
N1370 H1382 0.984 . S
N1370 H1383 0.985 1_565 S
N1371 C1373 1.356 . S
N1371 H1376 0.984 . S
N1371 H1377 0.985 . S
C1372 C1366 1.379 1_556 S
C1372 C1369 1.363 . S
C1372 N1370 1.356 1_545 S
C1373 C1367 1.363 . S
C1373 C1368 1.379 1_554 S
C1373 N1371 1.356 . S
N1374 C1366 1.356 1_565 S
N1374 H1380 0.992 . S
N1374 H1381 0.984 1_565 S
N1375 C1368 1.356 . S
N1375 H1378 0.984 . S
N1375 H1379 0.992 . S
H1376 N1371 0.984 . S
H1377 N1371 0.985 . S
H1378 N1375 0.984 . S
H1379 N1375 0.992 . S
H1380 N1374 0.992 . S
H1381 N1374 0.984 1_545 S
H1382 N1370 0.984 . S
H1383 N1370 0.985 1_545 S
C1384 C1385 1.363 1_565 S
C1384 C1390 1.379 . S
C1384 N1392 1.356 . S
C1385 C1384 1.363 1_545 S
C1385 C1391 1.363 . S
C1386 C1387 1.363 1_545 S
C1386 C1391 1.379 . S
C1386 N1393 1.356 . S
C1387 C1386 1.363 1_565 S
C1387 C1390 1.363 . S
N1388 C1390 1.356 . S
N1388 H1400 0.984 . S
N1388 H1401 0.985 . S
N1389 C1391 1.356 . S
N1389 H1394 0.984 . S
N1389 H1395 0.985 . S
C1390 C1384 1.379 . S
C1390 C1387 1.363 . S
C1390 N1388 1.356 . S
C1391 C1385 1.363 . S
C1391 C1386 1.379 . S
C1391 N1389 1.356 . S
N1392 C1384 1.356 . S
N1392 H1398 0.984 . S
N1392 H1399 0.984 1_565 S
N1393 C1386 1.356 . S
N1393 H1396 0.984 1_545 S
N1393 H1397 0.985 . S
H1394 N1389 0.984 . S
H1395 N1389 0.985 . S
H1396 N1393 0.984 1_565 S
H1397 N1393 0.985 . S
H1398 N1392 0.984 . S
H1399 N1392 0.984 1_545 S
H1400 N1388 0.984 . S
H1401 N1388 0.985 . S
C1402 C1403 1.363 . S
C1402 C1408 1.379 . S
C1402 N1410 1.356 1_545 S
C1403 C1402 1.363 . S
C1403 C1409 1.363 . S
C1404 C1405 1.363 . S
C1404 C1409 1.379 . S
C1404 N1411 1.356 . S
C1405 C1404 1.363 . S
C1405 C1408 1.363 . S
N1406 C1408 1.356 1_565 S
N1406 H1418 0.984 . S
N1406 H1419 0.985 1_565 S
N1407 C1409 1.356 . S
N1407 H1412 0.984 . S
N1407 H1413 0.985 . S
C1408 C1402 1.379 . S
C1408 C1405 1.363 . S
C1408 N1406 1.356 1_545 S
C1409 C1403 1.363 . S
C1409 C1404 1.379 . S
C1409 N1407 1.356 . S
N1410 C1402 1.356 1_565 S
N1410 H1416 0.984 . S
N1410 H1417 0.984 1_565 S
N1411 C1404 1.356 . S
N1411 H1414 0.984 . S
N1411 H1415 0.985 . S
H1412 N1407 0.984 . S
H1413 N1407 0.985 . S
H1414 N1411 0.984 . S
H1415 N1411 0.985 . S
H1416 N1410 0.984 . S
H1417 N1410 0.984 1_545 S
H1418 N1406 0.984 . S
H1419 N1406 0.985 1_545 S
C1420 C1421 1.363 1_565 S
C1420 C1426 1.379 . S
C1420 N1428 1.356 . S
C1421 C1420 1.363 1_545 S
C1421 C1427 1.363 . S
C1422 C1423 1.363 1_545 S
C1422 C1427 1.379 . S
C1422 N1429 1.356 . S
C1423 C1422 1.363 1_565 S
C1423 C1426 1.363 . S
N1424 C1426 1.356 . S
N1424 H1436 0.984 . S
N1424 H1437 0.985 . S
N1425 C1427 1.356 . S
N1425 H1430 0.984 . S
N1425 H1431 0.985 . S
C1426 C1420 1.379 . S
C1426 C1423 1.363 . S
C1426 N1424 1.356 . S
C1427 C1421 1.363 . S
C1427 C1422 1.379 . S
C1427 N1425 1.356 . S
N1428 C1420 1.356 . S
N1428 H1434 0.984 . S
N1428 H1435 0.984 1_565 S
N1429 C1422 1.356 . S
N1429 H1432 0.984 1_545 S
N1429 H1433 0.985 . S
H1430 N1425 0.984 . S
H1431 N1425 0.985 . S
H1432 N1429 0.984 1_565 S
H1433 N1429 0.985 . S
H1434 N1428 0.984 . S
H1435 N1428 0.984 1_545 S
H1436 N1424 0.984 . S
H1437 N1424 0.985 . S
C1438 C1439 1.363 . S
C1438 C1444 1.379 1_556 S
C1438 N1446 1.356 . S
C1439 C1438 1.363 . S
C1439 C1445 1.363 . S
C1440 C1441 1.363 . S
C1440 C1445 1.379 1_554 S
C1440 N1447 1.356 1_565 S
C1441 C1440 1.363 . S
C1441 C1444 1.363 . S
N1442 C1444 1.356 . S
N1442 H1454 0.984 . S
N1442 H1455 0.985 . S
N1443 C1445 1.356 1_545 S
N1443 H1448 0.984 1_545 S
N1443 H1449 0.985 . S
C1444 C1438 1.379 1_554 S
C1444 C1441 1.363 . S
C1444 N1442 1.356 . S
C1445 C1439 1.363 . S
C1445 C1440 1.379 1_556 S
C1445 N1443 1.356 1_565 S
N1446 C1438 1.356 . S
N1446 H1452 0.992 . S
N1446 H1453 0.984 . S
N1447 C1440 1.356 1_545 S
N1447 H1450 0.984 1_545 S
N1447 H1451 0.992 . S
H1448 N1443 0.984 1_565 S
H1449 N1443 0.985 . S
H1450 N1447 0.984 1_565 S
H1451 N1447 0.992 . S
H1452 N1446 0.992 . S
H1453 N1446 0.984 . S
H1454 N1442 0.984 . S
H1455 N1442 0.985 . S
C1456 C1457 1.363 . S
C1456 C1462 1.379 . S
C1456 N1464 1.356 . S
C1457 C1456 1.363 . S
C1457 C1463 1.363 . S
C1458 C1459 1.363 . S
C1458 C1463 1.379 . S
C1458 N1465 1.356 . S
C1459 C1458 1.363 . S
C1459 C1462 1.363 . S
N1460 C1462 1.356 . S
N1460 H1472 0.984 . S
N1460 H1473 0.985 . S
N1461 C1463 1.356 . S
N1461 H1466 0.984 . S
N1461 H1467 0.985 . S
C1462 C1456 1.379 . S
C1462 C1459 1.363 . S
C1462 N1460 1.356 . S
C1463 C1457 1.363 . S
C1463 C1458 1.379 . S
C1463 N1461 1.356 . S
N1464 C1456 1.356 . S
N1464 H1470 0.984 . S
N1464 H1471 0.984 . S
N1465 C1458 1.356 . S
N1465 H1468 0.984 . S
N1465 H1469 0.985 . S
H1466 N1461 0.984 . S
H1467 N1461 0.985 . S
H1468 N1465 0.984 . S
H1469 N1465 0.985 . S
H1470 N1464 0.984 . S
H1471 N1464 0.984 . S
H1472 N1460 0.984 . S
H1473 N1460 0.985 . S
C1474 C1475 1.363 . S
C1474 C1480 1.379 1_556 S
C1474 N1482 1.356 . S
C1475 C1474 1.363 . S
C1475 C1481 1.363 . S
C1476 C1477 1.363 . S
C1476 C1481 1.379 1_554 S
C1476 N1483 1.356 . S
C1477 C1476 1.363 . S
C1477 C1480 1.363 . S
N1478 C1480 1.356 . S
N1478 H1490 0.992 . S
N1478 H1491 0.985 . S
N1479 C1481 1.356 . S
N1479 H1484 0.984 . S
N1479 H1485 0.992 . S
C1480 C1474 1.379 1_554 S
C1480 C1477 1.363 . S
C1480 N1478 1.356 . S
C1481 C1475 1.363 . S
C1481 C1476 1.379 1_556 S
C1481 N1479 1.356 . S
N1482 C1474 1.356 . S
N1482 H1488 0.984 . S
N1482 H1489 0.984 . S
N1483 C1476 1.356 . S
N1483 H1486 0.984 . S
N1483 H1487 0.985 . S
H1484 N1479 0.984 . S
H1485 N1479 0.992 . S
H1486 N1483 0.984 . S
H1487 N1483 0.985 . S
H1488 N1482 0.984 . S
H1489 N1482 0.984 . S
H1490 N1478 0.992 . S
H1491 N1478 0.985 . S
C1492 C1493 1.363 . S
C1492 C1498 1.379 . S
C1492 N1500 1.356 . S
C1493 C1492 1.363 . S
C1493 C1499 1.363 . S
C1494 C1495 1.363 . S
C1494 C1499 1.379 . S
C1494 N1501 1.356 . S
C1495 C1494 1.363 . S
C1495 C1498 1.363 . S
N1496 C1498 1.356 . S
N1496 H1508 0.984 . S
N1496 H1509 0.985 . S
N1497 C1499 1.356 . S
N1497 H1502 0.984 . S
N1497 H1503 0.985 . S
C1498 C1492 1.379 . S
C1498 C1495 1.363 . S
C1498 N1496 1.356 . S
C1499 C1493 1.363 . S
C1499 C1494 1.379 . S
C1499 N1497 1.356 . S
N1500 C1492 1.356 . S
N1500 H1506 0.984 . S
N1500 H1507 0.984 . S
N1501 C1494 1.356 . S
N1501 H1504 0.984 . S
N1501 H1505 0.985 . S
H1502 N1497 0.984 . S
H1503 N1497 0.985 . S
H1504 N1501 0.984 . S
H1505 N1501 0.985 . S
H1506 N1500 0.984 . S
H1507 N1500 0.984 . S
H1508 N1496 0.984 . S
H1509 N1496 0.985 . S
C1510 C1511 1.363 . S
C1510 C1516 1.379 . S
C1510 N1518 1.356 . S
C1511 C1510 1.363 . S
C1511 C1517 1.363 . S
C1512 C1513 1.363 . S
C1512 C1517 1.379 . S
C1512 N1519 1.356 . S
C1513 C1512 1.363 . S
C1513 C1516 1.363 . S
N1514 C1516 1.356 . S
N1514 H1526 0.984 . S
N1514 H1527 0.985 . S
N1515 C1517 1.356 . S
N1515 H1520 0.984 . S
N1515 H1521 0.985 . S
C1516 C1510 1.379 . S
C1516 C1513 1.363 . S
C1516 N1514 1.356 . S
C1517 C1511 1.363 . S
C1517 C1512 1.379 . S
C1517 N1515 1.356 . S
N1518 C1510 1.356 . S
N1518 H1524 0.984 . S
N1518 H1525 0.984 . S
N1519 C1512 1.356 . S
N1519 H1522 0.984 . S
N1519 H1523 0.985 . S
H1520 N1515 0.984 . S
H1521 N1515 0.985 . S
H1522 N1519 0.984 . S
H1523 N1519 0.985 . S
H1524 N1518 0.984 . S
H1525 N1518 0.984 . S
H1526 N1514 0.984 . S
H1527 N1514 0.985 . S
C1528 C1529 1.363 . S
C1528 C1534 1.379 . S
C1528 N1536 1.356 . S
C1529 C1528 1.363 . S
C1529 C1535 1.363 . S
C1530 C1531 1.363 . S
C1530 C1535 1.379 . S
C1530 N1537 1.356 . S
C1531 C1530 1.363 . S
C1531 C1534 1.363 . S
N1532 C1534 1.356 . S
N1532 H1544 0.984 . S
N1532 H1545 0.985 . S
N1533 C1535 1.356 . S
N1533 H1538 0.984 . S
N1533 H1539 0.985 . S
C1534 C1528 1.379 . S
C1534 C1531 1.363 . S
C1534 N1532 1.356 . S
C1535 C1529 1.363 . S
C1535 C1530 1.379 . S
C1535 N1533 1.356 . S
N1536 C1528 1.356 . S
N1536 H1542 0.984 . S
N1536 H1543 0.984 . S
N1537 C1530 1.356 . S
N1537 H1540 0.984 . S
N1537 H1541 0.985 . S
H1538 N1533 0.984 . S
H1539 N1533 0.985 . S
H1540 N1537 0.984 . S
H1541 N1537 0.985 . S
H1542 N1536 0.984 . S
H1543 N1536 0.984 . S
H1544 N1532 0.984 . S
H1545 N1532 0.985 . S
C1546 C1547 1.363 . S
C1546 C1552 1.379 1_556 S
C1546 N1554 1.356 . S
C1547 C1546 1.363 . S
C1547 C1553 1.363 . S
C1548 C1549 1.363 . S
C1548 C1553 1.379 1_554 S
C1548 N1555 1.356 . S
C1549 C1548 1.363 . S
C1549 C1552 1.363 . S
N1550 C1552 1.356 . S
N1550 H1562 0.984 . S
N1550 H1563 0.985 . S
N1551 C1553 1.356 . S
N1551 H1556 0.984 . S
N1551 H1557 0.985 . S
C1552 C1546 1.379 1_554 S
C1552 C1549 1.363 . S
C1552 N1550 1.356 . S
C1553 C1547 1.363 . S
C1553 C1548 1.379 1_556 S
C1553 N1551 1.356 . S
N1554 C1546 1.356 . S
N1554 H1560 0.992 . S
N1554 H1561 0.984 . S
N1555 C1548 1.356 . S
N1555 H1558 0.984 . S
N1555 H1559 0.992 . S
H1556 N1551 0.984 . S
H1557 N1551 0.985 . S
H1558 N1555 0.984 . S
H1559 N1555 0.992 . S
H1560 N1554 0.992 . S
H1561 N1554 0.984 . S
H1562 N1550 0.984 . S
H1563 N1550 0.985 . S
C1564 C1565 1.363 . S
C1564 C1570 1.379 . S
C1564 N1572 1.356 . S
C1565 C1564 1.363 . S
C1565 C1571 1.363 . S
C1566 C1567 1.363 . S
C1566 C1571 1.379 . S
C1566 N1573 1.356 . S
C1567 C1566 1.363 . S
C1567 C1570 1.363 . S
N1568 C1570 1.356 . S
N1568 H1580 0.984 . S
N1568 H1581 0.985 . S
N1569 C1571 1.356 . S
N1569 H1574 0.984 . S
N1569 H1575 0.985 . S
C1570 C1564 1.379 . S
C1570 C1567 1.363 . S
C1570 N1568 1.356 . S
C1571 C1565 1.363 . S
C1571 C1566 1.379 . S
C1571 N1569 1.356 . S
N1572 C1564 1.356 . S
N1572 H1578 0.984 . S
N1572 H1579 0.984 . S
N1573 C1566 1.356 . S
N1573 H1576 0.984 . S
N1573 H1577 0.985 . S
H1574 N1569 0.984 . S
H1575 N1569 0.985 . S
H1576 N1573 0.984 . S
H1577 N1573 0.985 . S
H1578 N1572 0.984 . S
H1579 N1572 0.984 . S
H1580 N1568 0.984 . S
H1581 N1568 0.985 . S
C1582 C1583 1.363 . S
C1582 C1588 1.379 . S
C1582 N1590 1.356 . S
C1583 C1582 1.363 . S
C1583 C1589 1.363 . S
C1584 C1585 1.363 . S
C1584 C1589 1.379 . S
C1584 N1591 1.356 . S
C1585 C1584 1.363 . S
C1585 C1588 1.363 . S
N1586 C1588 1.356 . S
N1586 H1598 0.984 . S
N1586 H1599 0.985 . S
N1587 C1589 1.356 . S
N1587 H1592 0.984 . S
N1587 H1593 0.985 . S
C1588 C1582 1.379 . S
C1588 C1585 1.363 . S
C1588 N1586 1.356 . S
C1589 C1583 1.363 . S
C1589 C1584 1.379 . S
C1589 N1587 1.356 . S
N1590 C1582 1.356 . S
N1590 H1596 0.984 . S
N1590 H1597 0.984 . S
N1591 C1584 1.356 . S
N1591 H1594 0.984 . S
N1591 H1595 0.985 . S
H1592 N1587 0.984 . S
H1593 N1587 0.985 . S
H1594 N1591 0.984 . S
H1595 N1591 0.985 . S
H1596 N1590 0.984 . S
H1597 N1590 0.984 . S
H1598 N1586 0.984 . S
H1599 N1586 0.985 . S
C449 C390 1.524 . S
C451 C1 1.554 . S
C467 C26 1.553 1_655 S
C469 C112 1.524 . S
C485 C363 1.527 . S
C487 C28 1.553 . S
C503 C42 1.553 . S
C505 C153 1.527 . S
C521 C56 1.553 . S
C523 C419 1.527 . S
C539 C71 1.554 . S
C541 C208 1.524 . S
C557 C96 1.553 . S
C559 C447 1.527 . S
C575 C111 1.554 1_655 S
C577 C181 1.527 . S
C593 C279 1.524 . S
C595 C125 1.553 . S
C611 C12 1.527 . S
C613 C139 1.553 1_455 S
C629 C239 1.524 . S
C631 C140 1.554 . S
C647 C166 1.554 . S
C649 C41 1.524 . S
C665 C306 1.527 . S
C667 C168 1.554 . S
C683 C85 1.524 . S
C685 C182 1.554 . S
C701 C197 1.553 . S
C703 C334 1.527 . S
C719 C69 1.524 . S
C721 C222 1.554 1_455 S
C737 C225 1.554 . S
C739 C155 1.527 . S
C755 C250 1.553 . S
C757 C336 1.524 . S
C773 C126 1.524 . S
C775 C252 1.553 . S
C791 C376 1.524 . S
C793 C266 1.553 1_455 S
C809 C195 1.527 . S
C811 C292 1.553 . S
C827 C433 1.527 . S
C829 C295 1.554 1_455 S
C845 C211 1.527 . S
C847 C320 1.553 . S
C863 C323 1.554 . S
C865 C405 1.527 . S
C881 C55 1.524 . S
C883 C349 1.553 . S
C899 C350 1.554 . S
C901 C236 1.527 . S
C917 C365 1.553 . S
C919 C15 1.524 . S
C935 C379 1.553 1_655 S
C937 C265 1.524 . S
C953 C392 1.554 . S
C955 C82 1.527 . S
C971 C406 1.554 1_655 S
C973 C309 1.524 . S
C989 C420 1.554 . S
C991 C98 1.527 . S
C1007 C434 1.554 . S
C1009 C281 1.524 . S
C1025 C337 1.732 . S
C1027 C13 1.728 . S
C1043 C14 1.732 1_545 S
C1045 C127 1.732 1_565 S
C1061 C377 1.732 . S
C1063 C40 1.732 . S
C1079 C54 1.732 1_565 S
C1081 C154 1.728 1_545 S
C1097 C404 1.728 . S
C1099 C68 1.732 . S
C1115 C83 1.728 1_545 S
C1117 C194 1.728 1_565 S
C1133 C432 1.728 . S
C1135 C84 1.732 . S
C1151 C99 1.728 1_565 S
C1153 C210 1.728 1_545 S
C1169 C113 1.732 . S
C1171 C237 1.728 . S
C1187 C152 1.728 . S
C1189 C264 1.732 . S
C1205 C180 1.728 . S
C1207 C280 1.732 . S
C1223 C209 1.732 . S
C1225 C308 1.732 . S
C1241 C238 1.732 . S
C1243 C362 1.728 . S
C1259 C391 1.732 . S
C1261 C278 1.732 . S
C1277 C418 1.728 . S
C1279 C307 1.728 . S
C1295 C335 1.728 . S
C1297 C446 1.728 . S
C1313 C0 1.830 . S
C1315 C57 1.831 . S
C1331 C27 1.831 . S
C1333 C70 1.830 . S
C1349 C97 1.831 . S
C1351 C29 1.831 . S
C1367 C43 1.831 . S
C1369 C110 1.830 . S
C1385 C169 1.830 . S
C1387 C124 1.831 . S
C1403 C183 1.830 . S
C1405 C138 1.831 . S
C1421 C141 1.830 . S
C1423 C196 1.831 . S
C1439 C167 1.830 . S
C1441 C223 1.830 . S
C1457 C293 1.831 . S
C1459 C224 1.830 . S
C1475 C294 1.830 . S
C1477 C251 1.831 . S
C1493 C253 1.831 . S
C1495 C321 1.831 . S
C1511 C322 1.830 . S
C1513 C267 1.831 . S
C1529 C393 1.830 . S
C1531 C348 1.831 . S
C1547 C351 1.830 . S
C1549 C407 1.830 . S
C1565 C421 1.830 . S
C1567 C364 1.831 . S
C1583 C378 1.831 . S
C1585 C435 1.830 . S
