# Generated by pormake.
# Topology swa, (7)-cn, num edge types: 1
# Building blocks:
#     Node 0, Type 0, BuildingBlock: NUHQUE_clean_sbu_2, # of connection points: 7
#     Node 1, Type 0, BuildingBlock: NUHQUE_clean_sbu_2, # of connection points: 7
#     Node 2, Type 0, BuildingBlock: NUHQUE_clean_sbu_2, # of connection points: 7
#     Node 3, Type 0, BuildingBlock: NUHQUE_clean_sbu_2, # of connection points: 7
#     Node 4, Type 0, BuildingBlock: NUHQUE_clean_sbu_2, # of connection points: 7
#     Node 5, Type 0, BuildingBlock: NUHQUE_clean_sbu_2, # of connection points: 7
#     Node 6, Type 0, BuildingBlock: NUHQUE_clean_sbu_2, # of connection points: 7
#     Node 7, Type 0, BuildingBlock: NUHQUE_clean_sbu_2, # of connection points: 7
#     Node 8, Type 0, BuildingBlock: NUHQUE_clean_sbu_2, # of connection points: 7
#     Node 9, Type 0, BuildingBlock: NUHQUE_clean_sbu_2, # of connection points: 7
#     Node 10, Type 0, BuildingBlock: NUHQUE_clean_sbu_2, # of connection points: 7
#     Node 11, Type 0, BuildingBlock: NUHQUE_clean_sbu_2, # of connection points: 7
#     Node 12, Type 0, BuildingBlock: NUHQUE_clean_sbu_2, # of connection points: 7
#     Node 13, Type 0, BuildingBlock: NUHQUE_clean_sbu_2, # of connection points: 7
#     Node 14, Type 0, BuildingBlock: NUHQUE_clean_sbu_2, # of connection points: 7
#     Node 15, Type 0, BuildingBlock: NUHQUE_clean_sbu_2, # of connection points: 7
#     Node 16, Type 0, BuildingBlock: NUHQUE_clean_sbu_2, # of connection points: 7
#     Node 17, Type 0, BuildingBlock: NUHQUE_clean_sbu_2, # of connection points: 7
#     Node 18, Type 0, BuildingBlock: NUHQUE_clean_sbu_2, # of connection points: 7
#     Node 19, Type 0, BuildingBlock: NUHQUE_clean_sbu_2, # of connection points: 7
#     Node 20, Type 0, BuildingBlock: NUHQUE_clean_sbu_2, # of connection points: 7
#     Node 21, Type 0, BuildingBlock: NUHQUE_clean_sbu_2, # of connection points: 7
#     Node 22, Type 0, BuildingBlock: NUHQUE_clean_sbu_2, # of connection points: 7
#     Node 23, Type 0, BuildingBlock: NUHQUE_clean_sbu_2, # of connection points: 7
#     Node 24, Type 0, BuildingBlock: NUHQUE_clean_sbu_2, # of connection points: 7
#     Node 25, Type 0, BuildingBlock: NUHQUE_clean_sbu_2, # of connection points: 7
#     Node 26, Type 0, BuildingBlock: NUHQUE_clean_sbu_2, # of connection points: 7
#     Node 27, Type 0, BuildingBlock: NUHQUE_clean_sbu_2, # of connection points: 7
#     Node 28, Type 0, BuildingBlock: NUHQUE_clean_sbu_2, # of connection points: 7
#     Node 29, Type 0, BuildingBlock: NUHQUE_clean_sbu_2, # of connection points: 7
#     Node 30, Type 0, BuildingBlock: NUHQUE_clean_sbu_2, # of connection points: 7
#     Node 31, Type 0, BuildingBlock: NUHQUE_clean_sbu_2, # of connection points: 7
#     Node 32, Type 0, BuildingBlock: NUHQUE_clean_sbu_2, # of connection points: 7
#     Node 33, Type 0, BuildingBlock: NUHQUE_clean_sbu_2, # of connection points: 7
#     Node 34, Type 0, BuildingBlock: NUHQUE_clean_sbu_2, # of connection points: 7
#     Node 35, Type 0, BuildingBlock: NUHQUE_clean_sbu_2, # of connection points: 7
#     Node 36, Type 0, BuildingBlock: NUHQUE_clean_sbu_2, # of connection points: 7
#     Node 37, Type 0, BuildingBlock: NUHQUE_clean_sbu_2, # of connection points: 7
#     Node 38, Type 0, BuildingBlock: NUHQUE_clean_sbu_2, # of connection points: 7
#     Node 39, Type 0, BuildingBlock: NUHQUE_clean_sbu_2, # of connection points: 7
#     Node 40, Type 0, BuildingBlock: NUHQUE_clean_sbu_2, # of connection points: 7
#     Node 41, Type 0, BuildingBlock: NUHQUE_clean_sbu_2, # of connection points: 7
#     Node 42, Type 0, BuildingBlock: NUHQUE_clean_sbu_2, # of connection points: 7
#     Node 43, Type 0, BuildingBlock: NUHQUE_clean_sbu_2, # of connection points: 7
#     Node 44, Type 0, BuildingBlock: NUHQUE_clean_sbu_2, # of connection points: 7
#     Node 45, Type 0, BuildingBlock: NUHQUE_clean_sbu_2, # of connection points: 7
#     Node 46, Type 0, BuildingBlock: NUHQUE_clean_sbu_2, # of connection points: 7
#     Node 47, Type 0, BuildingBlock: NUHQUE_clean_sbu_2, # of connection points: 7
#     Edge 48, Type (0, 0), BuildingBlock: OJICUG_clean_linker_0, # of connection points: 2
#     Edge 49, Type (0, 0), BuildingBlock: OJICUG_clean_linker_0, # of connection points: 2
#     Edge 50, Type (0, 0), BuildingBlock: OJICUG_clean_linker_0, # of connection points: 2
#     Edge 51, Type (0, 0), BuildingBlock: OJICUG_clean_linker_0, # of connection points: 2
#     Edge 52, Type (0, 0), BuildingBlock: OJICUG_clean_linker_0, # of connection points: 2
#     Edge 53, Type (0, 0), BuildingBlock: OJICUG_clean_linker_0, # of connection points: 2
#     Edge 54, Type (0, 0), BuildingBlock: OJICUG_clean_linker_0, # of connection points: 2
#     Edge 55, Type (0, 0), BuildingBlock: OJICUG_clean_linker_0, # of connection points: 2
#     Edge 56, Type (0, 0), BuildingBlock: OJICUG_clean_linker_0, # of connection points: 2
#     Edge 57, Type (0, 0), BuildingBlock: OJICUG_clean_linker_0, # of connection points: 2
#     Edge 58, Type (0, 0), BuildingBlock: OJICUG_clean_linker_0, # of connection points: 2
#     Edge 59, Type (0, 0), BuildingBlock: OJICUG_clean_linker_0, # of connection points: 2
#     Edge 60, Type (0, 0), BuildingBlock: OJICUG_clean_linker_0, # of connection points: 2
#     Edge 61, Type (0, 0), BuildingBlock: OJICUG_clean_linker_0, # of connection points: 2
#     Edge 62, Type (0, 0), BuildingBlock: OJICUG_clean_linker_0, # of connection points: 2
#     Edge 63, Type (0, 0), BuildingBlock: OJICUG_clean_linker_0, # of connection points: 2
#     Edge 64, Type (0, 0), BuildingBlock: OJICUG_clean_linker_0, # of connection points: 2
#     Edge 65, Type (0, 0), BuildingBlock: OJICUG_clean_linker_0, # of connection points: 2
#     Edge 66, Type (0, 0), BuildingBlock: OJICUG_clean_linker_0, # of connection points: 2
#     Edge 67, Type (0, 0), BuildingBlock: OJICUG_clean_linker_0, # of connection points: 2
#     Edge 68, Type (0, 0), BuildingBlock: OJICUG_clean_linker_0, # of connection points: 2
#     Edge 69, Type (0, 0), BuildingBlock: OJICUG_clean_linker_0, # of connection points: 2
#     Edge 70, Type (0, 0), BuildingBlock: OJICUG_clean_linker_0, # of connection points: 2
#     Edge 71, Type (0, 0), BuildingBlock: OJICUG_clean_linker_0, # of connection points: 2
#     Edge 72, Type (0, 0), BuildingBlock: OJICUG_clean_linker_0, # of connection points: 2
#     Edge 73, Type (0, 0), BuildingBlock: OJICUG_clean_linker_0, # of connection points: 2
#     Edge 74, Type (0, 0), BuildingBlock: OJICUG_clean_linker_0, # of connection points: 2
#     Edge 75, Type (0, 0), BuildingBlock: OJICUG_clean_linker_0, # of connection points: 2
#     Edge 76, Type (0, 0), BuildingBlock: OJICUG_clean_linker_0, # of connection points: 2
#     Edge 77, Type (0, 0), BuildingBlock: OJICUG_clean_linker_0, # of connection points: 2
#     Edge 78, Type (0, 0), BuildingBlock: OJICUG_clean_linker_0, # of connection points: 2
#     Edge 79, Type (0, 0), BuildingBlock: OJICUG_clean_linker_0, # of connection points: 2
#     Edge 80, Type (0, 0), BuildingBlock: OJICUG_clean_linker_0, # of connection points: 2
#     Edge 81, Type (0, 0), BuildingBlock: OJICUG_clean_linker_0, # of connection points: 2
#     Edge 82, Type (0, 0), BuildingBlock: OJICUG_clean_linker_0, # of connection points: 2
#     Edge 83, Type (0, 0), BuildingBlock: OJICUG_clean_linker_0, # of connection points: 2
#     Edge 84, Type (0, 0), BuildingBlock: OJICUG_clean_linker_0, # of connection points: 2
#     Edge 85, Type (0, 0), BuildingBlock: OJICUG_clean_linker_0, # of connection points: 2
#     Edge 86, Type (0, 0), BuildingBlock: OJICUG_clean_linker_0, # of connection points: 2
#     Edge 87, Type (0, 0), BuildingBlock: OJICUG_clean_linker_0, # of connection points: 2
#     Edge 88, Type (0, 0), BuildingBlock: OJICUG_clean_linker_0, # of connection points: 2
#     Edge 89, Type (0, 0), BuildingBlock: OJICUG_clean_linker_0, # of connection points: 2
#     Edge 90, Type (0, 0), BuildingBlock: OJICUG_clean_linker_0, # of connection points: 2
#     Edge 91, Type (0, 0), BuildingBlock: OJICUG_clean_linker_0, # of connection points: 2
#     Edge 92, Type (0, 0), BuildingBlock: OJICUG_clean_linker_0, # of connection points: 2
#     Edge 93, Type (0, 0), BuildingBlock: OJICUG_clean_linker_0, # of connection points: 2
#     Edge 94, Type (0, 0), BuildingBlock: OJICUG_clean_linker_0, # of connection points: 2
#     Edge 95, Type (0, 0), BuildingBlock: OJICUG_clean_linker_0, # of connection points: 2
#     Edge 96, Type (0, 0), BuildingBlock: OJICUG_clean_linker_0, # of connection points: 2
#     Edge 97, Type (0, 0), BuildingBlock: OJICUG_clean_linker_0, # of connection points: 2
#     Edge 98, Type (0, 0), BuildingBlock: OJICUG_clean_linker_0, # of connection points: 2
#     Edge 99, Type (0, 0), BuildingBlock: OJICUG_clean_linker_0, # of connection points: 2
#     Edge 100, Type (0, 0), BuildingBlock: OJICUG_clean_linker_0, # of connection points: 2
#     Edge 101, Type (0, 0), BuildingBlock: OJICUG_clean_linker_0, # of connection points: 2
#     Edge 102, Type (0, 0), BuildingBlock: OJICUG_clean_linker_0, # of connection points: 2
#     Edge 103, Type (0, 0), BuildingBlock: OJICUG_clean_linker_0, # of connection points: 2
#     Edge 104, Type (0, 0), BuildingBlock: OJICUG_clean_linker_0, # of connection points: 2
#     Edge 105, Type (0, 0), BuildingBlock: OJICUG_clean_linker_0, # of connection points: 2
#     Edge 106, Type (0, 0), BuildingBlock: OJICUG_clean_linker_0, # of connection points: 2
#     Edge 107, Type (0, 0), BuildingBlock: OJICUG_clean_linker_0, # of connection points: 2
#     Edge 108, Type (0, 0), BuildingBlock: OJICUG_clean_linker_0, # of connection points: 2
#     Edge 109, Type (0, 0), BuildingBlock: OJICUG_clean_linker_0, # of connection points: 2
#     Edge 110, Type (0, 0), BuildingBlock: OJICUG_clean_linker_0, # of connection points: 2
#     Edge 111, Type (0, 0), BuildingBlock: OJICUG_clean_linker_0, # of connection points: 2
#     Edge 112, Type (0, 0), BuildingBlock: OJICUG_clean_linker_0, # of connection points: 2
#     Edge 113, Type (0, 0), BuildingBlock: OJICUG_clean_linker_0, # of connection points: 2
#     Edge 114, Type (0, 0), BuildingBlock: OJICUG_clean_linker_0, # of connection points: 2
#     Edge 115, Type (0, 0), BuildingBlock: OJICUG_clean_linker_0, # of connection points: 2
#     Edge 116, Type (0, 0), BuildingBlock: OJICUG_clean_linker_0, # of connection points: 2
#     Edge 117, Type (0, 0), BuildingBlock: OJICUG_clean_linker_0, # of connection points: 2
#     Edge 118, Type (0, 0), BuildingBlock: OJICUG_clean_linker_0, # of connection points: 2
#     Edge 119, Type (0, 0), BuildingBlock: OJICUG_clean_linker_0, # of connection points: 2
#     Edge 120, Type (0, 0), BuildingBlock: OJICUG_clean_linker_0, # of connection points: 2
#     Edge 121, Type (0, 0), BuildingBlock: OJICUG_clean_linker_0, # of connection points: 2
#     Edge 122, Type (0, 0), BuildingBlock: OJICUG_clean_linker_0, # of connection points: 2
#     Edge 123, Type (0, 0), BuildingBlock: OJICUG_clean_linker_0, # of connection points: 2
#     Edge 124, Type (0, 0), BuildingBlock: OJICUG_clean_linker_0, # of connection points: 2
#     Edge 125, Type (0, 0), BuildingBlock: OJICUG_clean_linker_0, # of connection points: 2
#     Edge 126, Type (0, 0), BuildingBlock: OJICUG_clean_linker_0, # of connection points: 2
#     Edge 127, Type (0, 0), BuildingBlock: OJICUG_clean_linker_0, # of connection points: 2
#     Edge 128, Type (0, 0), BuildingBlock: OJICUG_clean_linker_0, # of connection points: 2
#     Edge 129, Type (0, 0), BuildingBlock: OJICUG_clean_linker_0, # of connection points: 2
#     Edge 130, Type (0, 0), BuildingBlock: OJICUG_clean_linker_0, # of connection points: 2
#     Edge 131, Type (0, 0), BuildingBlock: OJICUG_clean_linker_0, # of connection points: 2
#     Edge 132, Type (0, 0), BuildingBlock: OJICUG_clean_linker_0, # of connection points: 2
#     Edge 133, Type (0, 0), BuildingBlock: OJICUG_clean_linker_0, # of connection points: 2
#     Edge 134, Type (0, 0), BuildingBlock: OJICUG_clean_linker_0, # of connection points: 2
#     Edge 135, Type (0, 0), BuildingBlock: OJICUG_clean_linker_0, # of connection points: 2
#     Edge 136, Type (0, 0), BuildingBlock: OJICUG_clean_linker_0, # of connection points: 2
#     Edge 137, Type (0, 0), BuildingBlock: OJICUG_clean_linker_0, # of connection points: 2
#     Edge 138, Type (0, 0), BuildingBlock: OJICUG_clean_linker_0, # of connection points: 2
#     Edge 139, Type (0, 0), BuildingBlock: OJICUG_clean_linker_0, # of connection points: 2
#     Edge 140, Type (0, 0), BuildingBlock: OJICUG_clean_linker_0, # of connection points: 2
#     Edge 141, Type (0, 0), BuildingBlock: OJICUG_clean_linker_0, # of connection points: 2
#     Edge 142, Type (0, 0), BuildingBlock: OJICUG_clean_linker_0, # of connection points: 2
#     Edge 143, Type (0, 0), BuildingBlock: OJICUG_clean_linker_0, # of connection points: 2
#     Edge 144, Type (0, 0), BuildingBlock: OJICUG_clean_linker_0, # of connection points: 2
#     Edge 145, Type (0, 0), BuildingBlock: OJICUG_clean_linker_0, # of connection points: 2
#     Edge 146, Type (0, 0), BuildingBlock: OJICUG_clean_linker_0, # of connection points: 2
#     Edge 147, Type (0, 0), BuildingBlock: OJICUG_clean_linker_0, # of connection points: 2
#     Edge 148, Type (0, 0), BuildingBlock: OJICUG_clean_linker_0, # of connection points: 2
#     Edge 149, Type (0, 0), BuildingBlock: OJICUG_clean_linker_0, # of connection points: 2
#     Edge 150, Type (0, 0), BuildingBlock: OJICUG_clean_linker_0, # of connection points: 2
#     Edge 151, Type (0, 0), BuildingBlock: OJICUG_clean_linker_0, # of connection points: 2
#     Edge 152, Type (0, 0), BuildingBlock: OJICUG_clean_linker_0, # of connection points: 2
#     Edge 153, Type (0, 0), BuildingBlock: OJICUG_clean_linker_0, # of connection points: 2
#     Edge 154, Type (0, 0), BuildingBlock: OJICUG_clean_linker_0, # of connection points: 2
#     Edge 155, Type (0, 0), BuildingBlock: OJICUG_clean_linker_0, # of connection points: 2
#     Edge 156, Type (0, 0), BuildingBlock: OJICUG_clean_linker_0, # of connection points: 2
#     Edge 157, Type (0, 0), BuildingBlock: OJICUG_clean_linker_0, # of connection points: 2
#     Edge 158, Type (0, 0), BuildingBlock: OJICUG_clean_linker_0, # of connection points: 2
#     Edge 159, Type (0, 0), BuildingBlock: OJICUG_clean_linker_0, # of connection points: 2
#     Edge 160, Type (0, 0), BuildingBlock: OJICUG_clean_linker_0, # of connection points: 2
#     Edge 161, Type (0, 0), BuildingBlock: OJICUG_clean_linker_0, # of connection points: 2
#     Edge 162, Type (0, 0), BuildingBlock: OJICUG_clean_linker_0, # of connection points: 2
#     Edge 163, Type (0, 0), BuildingBlock: OJICUG_clean_linker_0, # of connection points: 2
#     Edge 164, Type (0, 0), BuildingBlock: OJICUG_clean_linker_0, # of connection points: 2
#     Edge 165, Type (0, 0), BuildingBlock: OJICUG_clean_linker_0, # of connection points: 2
#     Edge 166, Type (0, 0), BuildingBlock: OJICUG_clean_linker_0, # of connection points: 2
#     Edge 167, Type (0, 0), BuildingBlock: OJICUG_clean_linker_0, # of connection points: 2
#     Edge 168, Type (0, 0), BuildingBlock: OJICUG_clean_linker_0, # of connection points: 2
#     Edge 169, Type (0, 0), BuildingBlock: OJICUG_clean_linker_0, # of connection points: 2
#     Edge 170, Type (0, 0), BuildingBlock: OJICUG_clean_linker_0, # of connection points: 2
#     Edge 171, Type (0, 0), BuildingBlock: OJICUG_clean_linker_0, # of connection points: 2
#     Edge 172, Type (0, 0), BuildingBlock: OJICUG_clean_linker_0, # of connection points: 2
#     Edge 173, Type (0, 0), BuildingBlock: OJICUG_clean_linker_0, # of connection points: 2
#     Edge 174, Type (0, 0), BuildingBlock: OJICUG_clean_linker_0, # of connection points: 2
#     Edge 175, Type (0, 0), BuildingBlock: OJICUG_clean_linker_0, # of connection points: 2
#     Edge 176, Type (0, 0), BuildingBlock: OJICUG_clean_linker_0, # of connection points: 2
#     Edge 177, Type (0, 0), BuildingBlock: OJICUG_clean_linker_0, # of connection points: 2
#     Edge 178, Type (0, 0), BuildingBlock: OJICUG_clean_linker_0, # of connection points: 2
#     Edge 179, Type (0, 0), BuildingBlock: OJICUG_clean_linker_0, # of connection points: 2
#     Edge 180, Type (0, 0), BuildingBlock: OJICUG_clean_linker_0, # of connection points: 2
#     Edge 181, Type (0, 0), BuildingBlock: OJICUG_clean_linker_0, # of connection points: 2
#     Edge 182, Type (0, 0), BuildingBlock: OJICUG_clean_linker_0, # of connection points: 2
#     Edge 183, Type (0, 0), BuildingBlock: OJICUG_clean_linker_0, # of connection points: 2
#     Edge 184, Type (0, 0), BuildingBlock: OJICUG_clean_linker_0, # of connection points: 2
#     Edge 185, Type (0, 0), BuildingBlock: OJICUG_clean_linker_0, # of connection points: 2
#     Edge 186, Type (0, 0), BuildingBlock: OJICUG_clean_linker_0, # of connection points: 2
#     Edge 187, Type (0, 0), BuildingBlock: OJICUG_clean_linker_0, # of connection points: 2
#     Edge 188, Type (0, 0), BuildingBlock: OJICUG_clean_linker_0, # of connection points: 2
#     Edge 189, Type (0, 0), BuildingBlock: OJICUG_clean_linker_0, # of connection points: 2
#     Edge 190, Type (0, 0), BuildingBlock: OJICUG_clean_linker_0, # of connection points: 2
#     Edge 191, Type (0, 0), BuildingBlock: OJICUG_clean_linker_0, # of connection points: 2
#     Edge 192, Type (0, 0), BuildingBlock: OJICUG_clean_linker_0, # of connection points: 2
#     Edge 193, Type (0, 0), BuildingBlock: OJICUG_clean_linker_0, # of connection points: 2
#     Edge 194, Type (0, 0), BuildingBlock: OJICUG_clean_linker_0, # of connection points: 2
#     Edge 195, Type (0, 0), BuildingBlock: OJICUG_clean_linker_0, # of connection points: 2
#     Edge 196, Type (0, 0), BuildingBlock: OJICUG_clean_linker_0, # of connection points: 2
#     Edge 197, Type (0, 0), BuildingBlock: OJICUG_clean_linker_0, # of connection points: 2
#     Edge 198, Type (0, 0), BuildingBlock: OJICUG_clean_linker_0, # of connection points: 2
#     Edge 199, Type (0, 0), BuildingBlock: OJICUG_clean_linker_0, # of connection points: 2
#     Edge 200, Type (0, 0), BuildingBlock: OJICUG_clean_linker_0, # of connection points: 2
#     Edge 201, Type (0, 0), BuildingBlock: OJICUG_clean_linker_0, # of connection points: 2
#     Edge 202, Type (0, 0), BuildingBlock: OJICUG_clean_linker_0, # of connection points: 2
#     Edge 203, Type (0, 0), BuildingBlock: OJICUG_clean_linker_0, # of connection points: 2
#     Edge 204, Type (0, 0), BuildingBlock: OJICUG_clean_linker_0, # of connection points: 2
#     Edge 205, Type (0, 0), BuildingBlock: OJICUG_clean_linker_0, # of connection points: 2
#     Edge 206, Type (0, 0), BuildingBlock: OJICUG_clean_linker_0, # of connection points: 2
#     Edge 207, Type (0, 0), BuildingBlock: OJICUG_clean_linker_0, # of connection points: 2
#     Edge 208, Type (0, 0), BuildingBlock: OJICUG_clean_linker_0, # of connection points: 2
#     Edge 209, Type (0, 0), BuildingBlock: OJICUG_clean_linker_0, # of connection points: 2
#     Edge 210, Type (0, 0), BuildingBlock: OJICUG_clean_linker_0, # of connection points: 2
#     Edge 211, Type (0, 0), BuildingBlock: OJICUG_clean_linker_0, # of connection points: 2
#     Edge 212, Type (0, 0), BuildingBlock: OJICUG_clean_linker_0, # of connection points: 2
#     Edge 213, Type (0, 0), BuildingBlock: OJICUG_clean_linker_0, # of connection points: 2
#     Edge 214, Type (0, 0), BuildingBlock: OJICUG_clean_linker_0, # of connection points: 2
#     Edge 215, Type (0, 0), BuildingBlock: OJICUG_clean_linker_0, # of connection points: 2
# Relax obj value: 0.263
# Max RMSD: 0.247
# Mean RMSD: 0.247
data_MOF--net-swa--node1-NUHQUE_clean_sbu_2--edge1-OJICUG_clean_linker_0
_symmetry_space_group_name_H-M    P1
_symmetry_Int_Tables_number       1
_symmetry_cell_setting            triclinic
loop_
_symmetry_equiv_pos_as_xyz
'x, y, z'
_cell_length_a     55.459816
_cell_length_b     55.497144
_cell_length_c     55.446638
_cell_angle_alpha  90.010221
_cell_angle_beta   90.020032
_cell_angle_gamma 89.996849
loop_
_atom_site_label
_atom_site_type_symbol
_atom_site_fract_x
_atom_site_fract_y
_atom_site_fract_z
_atom_type_partial_charge
O0 O 0.12025 0.64184 0.11885 0.0
Tb1 Tb 0.08697 0.64932 0.09946 0.0
Eu2 Eu 0.07837 0.66724 0.15956 0.0
C3 C 0.1388 0.65569 0.1137 0.0
O4 O 0.1358 0.67323 0.09809 0.0
C5 C 0.09604 0.70035 0.11794 0.0
O6 O 0.04675 0.69291 0.15835 0.0
C7 C 0.09507 0.66254 0.20298 0.0
C8 C 0.03433 0.6952 0.13827 0.0
O9 O 0.0398 0.68147 0.11985 0.0
C10 C 0.04469 0.62801 0.13115 0.0
C11 C 0.08824 0.6501 0.22536 0.0
C12 C 0.10543 0.64707 0.24378 0.0
C13 C 0.09858 0.63724 0.26612 0.0
C14 C 0.07456 0.63022 0.2696 0.0
C15 C 0.05706 0.63433 0.25189 0.0
C16 C 0.06402 0.64388 0.22956 0.0
O17 O 0.08357 0.68794 0.10225 0.0
O18 O 0.1037 0.69012 0.13779 0.0
O19 O 0.09564 0.62495 0.06952 0.0
O20 O 0.089 0.66187 0.06225 0.0
C21 C 0.09444 0.64125 0.05269 0.0
O22 O 0.05575 0.63423 0.1513 0.0
O23 O 0.05243 0.63431 0.10962 0.0
O24 O 0.08064 0.68012 0.19632 0.0
O25 O 0.10225 0.6489 0.18491 0.0
H26 H 0.12371 0.65349 0.24122 0.0
H27 H 0.06886 0.6242 0.28733 0.0
H28 H 0.05046 0.64752 0.21595 0.0
O29 O 0.85818 0.11789 0.12016 0.0
Tb30 Tb 0.84867 0.08678 0.09837 0.0
Eu31 Eu 0.83015 0.07909 0.15916 0.0
C32 C 0.84573 0.13775 0.11683 0.0
O33 O 0.82794 0.1375 0.10118 0.0
C34 C 0.79758 0.09833 0.11722 0.0
O35 O 0.80505 0.04706 0.15799 0.0
C36 C 0.83451 0.09502 0.20298 0.0
C37 C 0.80171 0.03545 0.13759 0.0
O38 O 0.81401 0.04207 0.11854 0.0
C39 C 0.8689 0.04498 0.1308 0.0
C40 C 0.84644 0.08769 0.22554 0.0
C41 C 0.8494 0.10455 0.2443 0.0
C42 C 0.85911 0.09731 0.26658 0.0
C43 C 0.86595 0.07322 0.26973 0.0
C44 C 0.86182 0.05603 0.25175 0.0
C45 C 0.85241 0.06335 0.22947 0.0
O46 O 0.80977 0.08628 0.10097 0.0
O47 O 0.80776 0.105 0.13748 0.0
O48 O 0.87303 0.09866 0.06936 0.0
O49 O 0.8376 0.0876 0.06053 0.0
C50 C 0.8577 0.09576 0.0518 0.0
O51 O 0.86367 0.05742 0.15042 0.0
O52 O 0.86243 0.05185 0.10901 0.0
O53 O 0.81679 0.08102 0.1958 0.0
O54 O 0.84856 0.10217 0.18524 0.0
H55 H 0.84317 0.12292 0.24197 0.0
H56 H 0.87195 0.06724 0.28738 0.0
H57 H 0.84879 0.05001 0.21563 0.0
O58 O 0.37985 0.85788 0.11531 0.0
Tb59 Tb 0.41287 0.84828 0.09633 0.0
Eu60 Eu 0.41926 0.83397 0.15795 0.0
C61 C 0.36109 0.84368 0.11219 0.0
O62 O 0.36366 0.82437 0.09873 0.0
C63 C 0.4053 0.7982 0.11687 0.0
O64 O 0.45502 0.81488 0.15779 0.0
C65 C 0.40313 0.838 0.20165 0.0
C66 C 0.45701 0.7913 0.15614 0.0
O67 O 0.43756 0.77784 0.15556 0.0
C68 C 0.45298 0.87087 0.12879 0.0
C69 C 0.41076 0.8495 0.22432 0.0
C70 C 0.39396 0.85272 0.24308 0.0
C71 C 0.40145 0.86199 0.26546 0.0
C72 C 0.42573 0.86815 0.26872 0.0
C73 C 0.44283 0.86379 0.2507 0.0
C74 C 0.43527 0.85479 0.22833 0.0
O75 O 0.41888 0.81031 0.10187 0.0
O76 O 0.39626 0.80882 0.13598 0.0
O77 O 0.4061 0.83416 0.06012 0.0
O78 O 0.40998 0.87189 0.0647 0.0
C79 C 0.40607 0.85479 0.04908 0.0
O80 O 0.43849 0.86845 0.1475 0.0
O81 O 0.44773 0.86161 0.1076 0.0
O82 O 0.41675 0.82005 0.19432 0.0
O83 O 0.39627 0.85241 0.18405 0.0
H84 H 0.37542 0.84702 0.24067 0.0
H85 H 0.43185 0.87383 0.28643 0.0
H86 H 0.44852 0.851 0.21446 0.0
O87 O 0.63281 0.37715 0.11565 0.0
Tb88 Tb 0.65128 0.40822 0.09981 0.0
Eu89 Eu 0.66619 0.42208 0.16134 0.0
C90 C 0.64299 0.36211 0.13098 0.0
O91 O 0.66255 0.36872 0.14238 0.0
C92 C 0.70294 0.39607 0.12275 0.0
O93 O 0.68473 0.45814 0.16051 0.0
C94 C 0.65964 0.40735 0.20515 0.0
C95 C 0.69846 0.46391 0.14202 0.0
O96 O 0.7 0.44905 0.12368 0.0
C97 C 0.63156 0.45185 0.12863 0.0
C98 C 0.6451 0.4132 0.22651 0.0
C99 C 0.64174 0.39554 0.24434 0.0
C100 C 0.63157 0.40171 0.26671 0.0
C101 C 0.62416 0.42555 0.27068 0.0
C102 C 0.62842 0.44354 0.25348 0.0
C103 C 0.63831 0.43717 0.23112 0.0
O104 O 0.68895 0.39865 0.10376 0.0
O105 O 0.69681 0.40145 0.14498 0.0
O106 O 0.62763 0.40355 0.06835 0.0
O107 O 0.66515 0.40774 0.0629 0.0
C108 C 0.64461 0.40451 0.0522 0.0
O109 O 0.6314 0.4375 0.14739 0.0
O110 O 0.64331 0.44552 0.10911 0.0
O111 O 0.67571 0.42364 0.19903 0.0
O112 O 0.6485 0.39754 0.18661 0.0
H113 H 0.64867 0.37748 0.24152 0.0
H114 H 0.61804 0.4308 0.28851 0.0
H115 H 0.64225 0.45113 0.21801 0.0
O116 O 0.11898 0.85845 0.38243 0.0
Tb117 Tb 0.08553 0.85069 0.40141 0.0
Eu118 Eu 0.07719 0.83224 0.34037 0.0
C119 C 0.13752 0.84461 0.38769 0.0
O120 O 0.13441 0.82697 0.40316 0.0
C121 C 0.09502 0.79988 0.38241 0.0
O122 O 0.04532 0.80686 0.34141 0.0
C123 C 0.0929 0.83647 0.29653 0.0
C124 C 0.03276 0.80392 0.36132 0.0
O125 O 0.03798 0.81708 0.38023 0.0
C126 C 0.04377 0.87136 0.36871 0.0
C127 C 0.08521 0.84788 0.27379 0.0
C128 C 0.10268 0.854 0.25644 0.0
C129 C 0.09562 0.86273 0.23373 0.0
C130 C 0.07101 0.86551 0.22874 0.0
C131 C 0.05338 0.85751 0.24495 0.0
C132 C 0.06053 0.84965 0.26794 0.0
O133 O 0.08229 0.81212 0.39803 0.0
O134 O 0.10284 0.81022 0.36266 0.0
O135 O 0.09332 0.87498 0.43173 0.0
O136 O 0.08788 0.8378 0.43852 0.0
C137 C 0.0927 0.85844 0.44837 0.0
O138 O 0.05586 0.8659 0.34896 0.0
O139 O 0.0508 0.86482 0.39043 0.0
O140 O 0.07955 0.81839 0.30398 0.0
O141 O 0.09989 0.85085 0.31408 0.0
H142 H 0.12161 0.85074 0.26009 0.0
H143 H 0.06551 0.87141 0.21092 0.0
H144 H 0.04706 0.84325 0.28057 0.0
O145 O 0.64144 0.11777 0.38301 0.0
Tb146 Tb 0.64867 0.08421 0.40201 0.0
Eu147 Eu 0.66755 0.07551 0.34145 0.0
C148 C 0.65535 0.13617 0.38855 0.0
O149 O 0.67267 0.13289 0.40437 0.0
C150 C 0.69972 0.09353 0.38354 0.0
O151 O 0.69252 0.04338 0.34324 0.0
C152 C 0.66422 0.09067 0.29738 0.0
C153 C 0.69512 0.031 0.36331 0.0
O154 O 0.68188 0.03655 0.38207 0.0
C155 C 0.62787 0.04271 0.36927 0.0
C156 C 0.65282 0.083 0.27462 0.0
C157 C 0.64577 0.10059 0.25779 0.0
C158 C 0.63692 0.09372 0.23509 0.0
C159 C 0.63495 0.06917 0.22955 0.0
C160 C 0.64377 0.05147 0.24527 0.0
C161 C 0.65179 0.0584 0.26827 0.0
O162 O 0.68732 0.08098 0.39918 0.0
O163 O 0.68952 0.10122 0.36366 0.0
O164 O 0.62403 0.09229 0.43192 0.0
O165 O 0.66102 0.08599 0.43931 0.0
C166 C 0.64029 0.09114 0.44883 0.0
O167 O 0.63333 0.05498 0.34967 0.0
O168 O 0.63445 0.04957 0.39101 0.0
O169 O 0.68191 0.07701 0.30522 0.0
O170 O 0.64984 0.09833 0.31464 0.0
H171 H 0.64838 0.11953 0.26182 0.0
H172 H 0.6289 0.06389 0.21171 0.0
H173 H 0.6588 0.0449 0.28053 0.0
O174 O 0.37932 0.64294 0.382 0.0
Tb175 Tb 0.41208 0.65091 0.40203 0.0
Eu176 Eu 0.42208 0.66834 0.34087 0.0
C177 C 0.36072 0.65711 0.38597 0.0
O178 O 0.36343 0.67538 0.40078 0.0
C179 C 0.40407 0.70186 0.38223 0.0
O180 O 0.45425 0.69328 0.34239 0.0
C181 C 0.40698 0.66415 0.29673 0.0
C182 C 0.46636 0.69635 0.36256 0.0
O183 O 0.4605 0.68361 0.38156 0.0
C184 C 0.45422 0.62931 0.37061 0.0
C185 C 0.41384 0.65162 0.27431 0.0
C186 C 0.39651 0.64834 0.25604 0.0
C187 C 0.40316 0.63831 0.23373 0.0
C188 C 0.42715 0.63131 0.23008 0.0
C189 C 0.44485 0.63568 0.24753 0.0
C190 C 0.43811 0.64554 0.26984 0.0
O191 O 0.41594 0.68943 0.39841 0.0
O192 O 0.39669 0.69161 0.36224 0.0
O193 O 0.40844 0.66402 0.43899 0.0
O194 O 0.40358 0.62676 0.43231 0.0
C195 C 0.40353 0.64341 0.44886 0.0
O196 O 0.4423 0.63424 0.35061 0.0
O197 O 0.44699 0.63652 0.39205 0.0
O198 O 0.42183 0.68111 0.30398 0.0
O199 O 0.39858 0.65083 0.31449 0.0
H200 H 0.37821 0.65468 0.25871 0.0
H201 H 0.43266 0.62504 0.21238 0.0
H202 H 0.45182 0.64939 0.28324 0.0
O203 O 0.85825 0.37754 0.37802 0.0
Tb204 Tb 0.85089 0.41115 0.39684 0.0
Eu205 Eu 0.83214 0.41936 0.33594 0.0
C206 C 0.84419 0.35923 0.38342 0.0
O207 O 0.82654 0.36269 0.39883 0.0
C208 C 0.79978 0.40226 0.3783 0.0
O209 O 0.80634 0.4509 0.33672 0.0
C210 C 0.83699 0.40268 0.29246 0.0
C211 C 0.804 0.46367 0.35658 0.0
O212 O 0.81783 0.45865 0.37507 0.0
C213 C 0.87129 0.45347 0.3643 0.0
C214 C 0.84877 0.41027 0.26987 0.0
C215 C 0.85531 0.39296 0.25244 0.0
C216 C 0.86518 0.40023 0.23019 0.0
C217 C 0.86842 0.4249 0.2258 0.0
C218 C 0.86138 0.44226 0.24266 0.0
C219 C 0.85173 0.43494 0.2648 0.0
O220 O 0.81233 0.415 0.39368 0.0
O221 O 0.80985 0.39418 0.35852 0.0
O222 O 0.87515 0.40333 0.42718 0.0
O223 O 0.83795 0.40884 0.43395 0.0
C224 C 0.85859 0.404 0.44382 0.0
O225 O 0.8649 0.44233 0.34423 0.0
O226 O 0.86557 0.44567 0.386 0.0
O227 O 0.81871 0.41605 0.29943 0.0
O228 O 0.85122 0.39623 0.31036 0.0
H229 H 0.8521 0.374 0.25591 0.0
H230 H 0.87467 0.43085 0.20825 0.0
H231 H 0.846 0.44841 0.27775 0.0
O232 O 0.11697 0.11942 0.64441 0.0
Tb233 Tb 0.09785 0.08609 0.65219 0.0
Eu234 Eu 0.15852 0.07813 0.6698 0.0
C235 C 0.11197 0.13794 0.65835 0.0
O236 O 0.09659 0.1349 0.6761 0.0
C237 C 0.11682 0.09532 0.70312 0.0
O238 O 0.15766 0.04638 0.69527 0.0
C239 C 0.20207 0.09458 0.66543 0.0
C240 C 0.13779 0.03372 0.69789 0.0
O241 O 0.11904 0.03887 0.68448 0.0
C242 C 0.13015 0.04444 0.63075 0.0
C243 C 0.22465 0.08786 0.65321 0.0
C244 C 0.24242 0.10551 0.64927 0.0
C245 C 0.26499 0.09904 0.63972 0.0
C246 C 0.26933 0.07488 0.63378 0.0
C247 C 0.25226 0.05697 0.63868 0.0
C248 C 0.22974 0.06353 0.64809 0.0
O249 O 0.10121 0.08264 0.6908 0.0
O250 O 0.13654 0.10321 0.69278 0.0
O251 O 0.06083 0.08845 0.66531 0.0
O252 O 0.06744 0.09403 0.62808 0.0
C253 C 0.05088 0.09333 0.64471 0.0
O254 O 0.15002 0.05629 0.63634 0.0
O255 O 0.10852 0.05155 0.63747 0.0
O256 O 0.19521 0.08013 0.68291 0.0
O257 O 0.18414 0.10194 0.6517 0.0
H258 H 0.23919 0.12397 0.6548 0.0
H259 H 0.2872 0.06953 0.62788 0.0
H260 H 0.21663 0.04967 0.65234 0.0
O261 O 0.37842 0.12138 0.64482 0.0
Tb262 Tb 0.41113 0.10143 0.65328 0.0
Eu263 Eu 0.42096 0.16129 0.67139 0.0
C264 C 0.35969 0.11766 0.6589 0.0
O265 O 0.36224 0.10321 0.67747 0.0
C266 C 0.40322 0.11962 0.70461 0.0
O267 O 0.45286 0.16019 0.69673 0.0
C268 C 0.40494 0.20487 0.6664 0.0
C269 C 0.4652 0.14012 0.69938 0.0
O270 O 0.45961 0.12143 0.68608 0.0
C271 C 0.45382 0.13227 0.63223 0.0
C272 C 0.41192 0.22686 0.65334 0.0
C273 C 0.39465 0.24497 0.64928 0.0
C274 C 0.40148 0.26696 0.63874 0.0
C275 C 0.42559 0.2704 0.632 0.0
C276 C 0.44319 0.25305 0.63706 0.0
C277 C 0.43624 0.23106 0.64739 0.0
O278 O 0.41551 0.1041 0.69183 0.0
O279 O 0.39586 0.13983 0.69486 0.0
O280 O 0.40463 0.071 0.6288 0.0
O281 O 0.40592 0.06483 0.66652 0.0
C282 C 0.403 0.05474 0.64564 0.0
O283 O 0.44251 0.15242 0.63786 0.0
O284 O 0.44617 0.11091 0.63904 0.0
O285 O 0.41962 0.19823 0.68379 0.0
O286 O 0.39697 0.18673 0.65332 0.0
H287 H 0.37627 0.24248 0.65544 0.0
H288 H 0.43123 0.28792 0.62538 0.0
H289 H 0.44986 0.21773 0.65174 0.0
O290 O 0.38129 0.38136 0.6406 0.0
Tb291 Tb 0.40058 0.41468 0.64793 0.0
Eu292 Eu 0.34014 0.42192 0.66613 0.0
C293 C 0.38686 0.36287 0.65435 0.0
O294 O 0.40296 0.36592 0.67145 0.0
C295 C 0.38234 0.40505 0.69903 0.0
O296 O 0.34046 0.4536 0.69166 0.0
C297 C 0.29683 0.40499 0.66156 0.0
C298 C 0.36027 0.46636 0.69425 0.0
O299 O 0.37898 0.46128 0.68076 0.0
C300 C 0.36787 0.45624 0.62704 0.0
C301 C 0.27431 0.41198 0.64944 0.0
C302 C 0.25612 0.39467 0.64595 0.0
C303 C 0.23368 0.40149 0.63639 0.0
C304 C 0.22984 0.42562 0.63002 0.0
C305 C 0.24729 0.44324 0.6346 0.0
C306 C 0.26973 0.43633 0.64397 0.0
O307 O 0.3977 0.41791 0.68661 0.0
O308 O 0.36257 0.39704 0.68888 0.0
O309 O 0.43778 0.41298 0.6606 0.0
O310 O 0.43066 0.40603 0.62368 0.0
C311 C 0.44744 0.40739 0.64005 0.0
O312 O 0.34813 0.44438 0.63301 0.0
O313 O 0.38966 0.44909 0.63317 0.0
O314 O 0.30357 0.41907 0.67939 0.0
O315 O 0.31481 0.39811 0.64765 0.0
H316 H 0.25894 0.37625 0.65185 0.0
H317 H 0.21203 0.43122 0.62415 0.0
H318 H 0.28315 0.44997 0.64799 0.0
O319 O 0.11954 0.38146 0.64139 0.0
Tb320 Tb 0.08633 0.40088 0.64892 0.0
Eu321 Eu 0.07745 0.34099 0.66768 0.0
C322 C 0.13825 0.38676 0.65497 0.0
O323 O 0.13553 0.4027 0.67228 0.0
C324 C 0.09635 0.38251 0.70002 0.0
O325 O 0.0458 0.34499 0.69303 0.0
C326 C 0.09199 0.29663 0.66571 0.0
C327 C 0.03395 0.36549 0.69438 0.0
O328 O 0.0398 0.38311 0.67983 0.0
C329 C 0.04511 0.36841 0.62696 0.0
C330 C 0.08494 0.27395 0.65391 0.0
C331 C 0.10232 0.25583 0.65033 0.0
C332 C 0.09553 0.23337 0.64081 0.0
C333 C 0.07135 0.2294 0.63467 0.0
C334 C 0.05368 0.2468 0.6393 0.0
C335 C 0.06056 0.26926 0.64858 0.0
O336 O 0.08397 0.39836 0.68772 0.0
O337 O 0.10366 0.36259 0.6897 0.0
O338 O 0.0963 0.43048 0.62467 0.0
O339 O 0.08652 0.43833 0.66079 0.0
C340 C 0.09343 0.44759 0.64047 0.0
O341 O 0.05668 0.34863 0.63333 0.0
O342 O 0.05218 0.3901 0.63341 0.0
O343 O 0.077 0.30479 0.68215 0.0
O344 O 0.10088 0.31366 0.65176 0.0
H345 H 0.1208 0.25876 0.65602 0.0
H346 H 0.06577 0.21159 0.62883 0.0
H347 H 0.04687 0.28265 0.65254 0.0
O348 O 0.11844 0.37922 0.85908 0.0
Tb349 Tb 0.09752 0.41142 0.85116 0.0
Eu350 Eu 0.15837 0.4208 0.83213 0.0
C351 C 0.11439 0.3602 0.84552 0.0
O352 O 0.09867 0.362 0.82789 0.0
C353 C 0.11634 0.40217 0.79988 0.0
O354 O 0.15638 0.45275 0.80695 0.0
C355 C 0.20251 0.40545 0.83536 0.0
C356 C 0.13609 0.46469 0.80408 0.0
O357 O 0.11729 0.45868 0.81706 0.0
C358 C 0.12966 0.45377 0.87145 0.0
C359 C 0.22539 0.41276 0.84671 0.0
C360 C 0.24397 0.3957 0.84969 0.0
C361 C 0.26653 0.40283 0.85882 0.0
C362 C 0.27016 0.42701 0.86507 0.0
C363 C 0.25234 0.44437 0.86093 0.0
C364 C 0.22979 0.43718 0.85206 0.0
O365 O 0.10017 0.41397 0.81237 0.0
O366 O 0.13641 0.39494 0.81003 0.0
O367 O 0.06812 0.40085 0.87565 0.0
O368 O 0.06 0.40934 0.83932 0.0
C369 C 0.0509 0.40247 0.85975 0.0
O370 O 0.14953 0.44184 0.86602 0.0
O371 O 0.10798 0.44638 0.86512 0.0
O372 O 0.19474 0.41956 0.81799 0.0
O373 O 0.1852 0.39793 0.84976 0.0
H374 H 0.24127 0.37723 0.84393 0.0
H375 H 0.28798 0.43286 0.87067 0.0
H376 H 0.21608 0.45064 0.84846 0.0
O377 O 0.1173 0.11885 0.86136 0.0
Tb378 Tb 0.08478 0.09876 0.85285 0.0
Eu379 Eu 0.07708 0.15948 0.83518 0.0
C380 C 0.13629 0.11445 0.84788 0.0
O381 O 0.13417 0.09904 0.83002 0.0
C382 C 0.09436 0.11756 0.80189 0.0
O383 O 0.04503 0.15983 0.81004 0.0
C384 C 0.09439 0.20261 0.84035 0.0
C385 C 0.03263 0.13993 0.80665 0.0
O386 O 0.03836 0.12069 0.81908 0.0
C387 C 0.04254 0.13076 0.8733 0.0
C388 C 0.08765 0.2257 0.85155 0.0
C389 C 0.10564 0.24307 0.85599 0.0
C390 C 0.09925 0.26629 0.86384 0.0
C391 C 0.07485 0.27189 0.86715 0.0
C392 C 0.05683 0.25527 0.86155 0.0
C393 C 0.06318 0.2319 0.85444 0.0
O394 O 0.08181 0.10186 0.81419 0.0
O395 O 0.10209 0.13736 0.8122 0.0
O396 O 0.08814 0.0618 0.83985 0.0
O397 O 0.09302 0.06858 0.87715 0.0
C398 C 0.09295 0.05199 0.86052 0.0
O399 O 0.05447 0.15068 0.86808 0.0
O400 O 0.04985 0.10918 0.86668 0.0
O401 O 0.08102 0.19591 0.82196 0.0
O402 O 0.10013 0.18471 0.85485 0.0
H403 H 0.12434 0.23901 0.85204 0.0
H404 H 0.06966 0.29023 0.87159 0.0
H405 H 0.04916 0.21919 0.84951 0.0
O406 O 0.38086 0.12051 0.85969 0.0
Tb407 Tb 0.3992 0.08673 0.85204 0.0
Eu408 Eu 0.33825 0.08176 0.83903 0.0
C409 C 0.38586 0.13865 0.84525 0.0
O410 O 0.40065 0.13492 0.82713 0.0
C411 C 0.37872 0.09443 0.80218 0.0
O412 O 0.33731 0.04602 0.82008 0.0
C413 C 0.2949 0.09844 0.84335 0.0
C414 C 0.33761 0.04415 0.79643 0.0
O415 O 0.33779 0.06366 0.78305 0.0
C416 C 0.36683 0.04814 0.87684 0.0
C417 C 0.27243 0.09073 0.85507 0.0
C418 C 0.2539 0.10759 0.85879 0.0
C419 C 0.23148 0.10008 0.86782 0.0
C420 C 0.228 0.07571 0.87347 0.0
C421 C 0.24589 0.05855 0.86874 0.0
C422 C 0.26829 0.06616 0.85986 0.0
O423 O 0.39337 0.08036 0.81414 0.0
O424 O 0.36004 0.10399 0.81306 0.0
O425 O 0.4303 0.09224 0.87583 0.0
O426 O 0.43574 0.09096 0.83797 0.0
C427 C 0.4463 0.09365 0.85871 0.0
O428 O 0.34803 0.06235 0.87364 0.0
O429 O 0.38792 0.05276 0.86714 0.0
O430 O 0.30193 0.0849 0.82521 0.0
O431 O 0.31267 0.10518 0.8576 0.0
H432 H 0.25644 0.12621 0.85343 0.0
H433 H 0.21024 0.0696 0.87896 0.0
H434 H 0.28204 0.0529 0.85571 0.0
O435 O 0.38114 0.38155 0.85566 0.0
Tb436 Tb 0.41481 0.40046 0.84848 0.0
Eu437 Eu 0.42321 0.34048 0.83051 0.0
C438 C 0.36272 0.38712 0.84174 0.0
O439 O 0.36609 0.40276 0.82429 0.0
C440 C 0.40575 0.38217 0.79742 0.0
O441 O 0.45463 0.34135 0.80457 0.0
C442 C 0.40622 0.29728 0.8356 0.0
C443 C 0.46733 0.36124 0.80227 0.0
O444 O 0.4622 0.37969 0.81608 0.0
C445 C 0.45738 0.3687 0.86946 0.0
C446 C 0.413 0.27505 0.8483 0.0
C447 C 0.39572 0.25681 0.85173 0.0
C448 C 0.40247 0.23465 0.86197 0.0
C449 C 0.42649 0.23115 0.869 0.0
C450 C 0.44408 0.24867 0.86454 0.0
C451 C 0.43722 0.27082 0.85455 0.0
O452 O 0.41843 0.39767 0.80984 0.0
O453 O 0.39798 0.36238 0.80764 0.0
O454 O 0.41268 0.43755 0.8357 0.0
O455 O 0.40634 0.43053 0.87275 0.0
C456 C 0.40735 0.44723 0.8563 0.0
O457 O 0.44625 0.34861 0.86326 0.0
O458 O 0.44946 0.39025 0.86346 0.0
O459 O 0.42064 0.30367 0.8179 0.0
O460 O 0.39915 0.31551 0.84907 0.0
H461 H 0.37742 0.25938 0.84534 0.0
H462 H 0.4321 0.21353 0.87538 0.0
H463 H 0.45085 0.28428 0.85065 0.0
O464 O 0.63754 0.11755 0.1222 0.0
Tb465 Tb 0.64656 0.09863 0.08907 0.0
Eu466 Eu 0.66507 0.15991 0.0798 0.0
C467 C 0.65156 0.11368 0.14093 0.0
O468 O 0.67021 0.09934 0.13834 0.0
C469 C 0.69748 0.11843 0.09861 0.0
O470 O 0.68998 0.15608 0.04776 0.0
C471 C 0.66276 0.20457 0.09373 0.0
C472 C 0.69171 0.13544 0.03621 0.0
O473 O 0.6777 0.11755 0.04251 0.0
C474 C 0.62506 0.13132 0.04756 0.0
C475 C 0.65166 0.2274 0.08578 0.0
C476 C 0.64551 0.24514 0.10294 0.0
C477 C 0.63635 0.26761 0.09544 0.0
C478 C 0.6334 0.27193 0.07071 0.0
C479 C 0.64009 0.25479 0.05349 0.0
C480 C 0.64906 0.23244 0.06101 0.0
O481 O 0.68525 0.10231 0.08649 0.0
O482 O 0.68698 0.13823 0.10609 0.0
O483 O 0.62289 0.06776 0.09644 0.0
O484 O 0.66015 0.06172 0.0907 0.0
C485 C 0.6397 0.05141 0.09535 0.0
O486 O 0.63069 0.15115 0.05948 0.0
O487 O 0.6317 0.10965 0.05463 0.0
O488 O 0.67988 0.196 0.07977 0.0
O489 O 0.64821 0.18777 0.10207 0.0
H490 H 0.64848 0.24173 0.12195 0.0
H491 H 0.62768 0.2896 0.06461 0.0
H492 H 0.65452 0.21929 0.04763 0.0
O493 O 0.64144 0.38073 0.38024 0.0
Tb494 Tb 0.65069 0.40026 0.41292 0.0
Eu495 Eu 0.66852 0.33934 0.42177 0.0
C496 C 0.65486 0.38495 0.36116 0.0
O497 O 0.67323 0.39973 0.36332 0.0
C498 C 0.70136 0.38073 0.40267 0.0
O499 O 0.69414 0.34133 0.45344 0.0
C500 C 0.66442 0.29524 0.40668 0.0
C501 C 0.69712 0.36161 0.46536 0.0
O502 O 0.684 0.38035 0.45955 0.0
C503 C 0.62971 0.36834 0.45476 0.0
C504 C 0.65194 0.2729 0.41371 0.0
C505 C 0.64866 0.25452 0.39652 0.0
C506 C 0.63857 0.23231 0.40335 0.0
C507 C 0.63155 0.22888 0.42737 0.0
C508 C 0.63592 0.24647 0.44492 0.0
C509 C 0.6458 0.26868 0.43799 0.0
O510 O 0.68937 0.39677 0.41513 0.0
O511 O 0.69091 0.36074 0.39564 0.0
O512 O 0.62615 0.43047 0.40571 0.0
O513 O 0.6635 0.43733 0.40992 0.0
C514 C 0.64267 0.44712 0.40579 0.0
O515 O 0.6346 0.34853 0.44255 0.0
O516 O 0.63701 0.38981 0.44788 0.0
O517 O 0.6815 0.30254 0.42141 0.0
O518 O 0.65097 0.31294 0.39838 0.0
H519 H 0.65501 0.25703 0.3782 0.0
H520 H 0.62526 0.21124 0.43303 0.0
H521 H 0.64963 0.28219 0.45159 0.0
O522 O 0.11784 0.64241 0.38051 0.0
Tb523 Tb 0.09811 0.65015 0.41352 0.0
Eu524 Eu 0.1589 0.66838 0.42257 0.0
C525 C 0.1131 0.65628 0.36186 0.0
O526 O 0.09765 0.67399 0.3646 0.0
C527 C 0.11706 0.70116 0.40456 0.0
O528 O 0.15756 0.6935 0.45465 0.0
C529 C 0.20275 0.66434 0.40682 0.0
C530 C 0.13747 0.69641 0.46693 0.0
O531 O 0.11855 0.68347 0.46121 0.0
C532 C 0.13028 0.62923 0.4554 0.0
C533 C 0.22523 0.652 0.41372 0.0
C534 C 0.24316 0.64814 0.3962 0.0
C535 C 0.26561 0.63843 0.40283 0.0
C536 C 0.26969 0.63224 0.42699 0.0
C537 C 0.25251 0.63714 0.4448 0.0
C538 C 0.23008 0.64669 0.43808 0.0
O539 O 0.10118 0.68876 0.41683 0.0
O540 O 0.13703 0.69099 0.39708 0.0
O541 O 0.06092 0.66266 0.41045 0.0
O542 O 0.06819 0.62551 0.40536 0.0
C543 C 0.05136 0.64188 0.40561 0.0
O544 O 0.15002 0.63433 0.44316 0.0
O545 O 0.10867 0.63612 0.44841 0.0
O546 O 0.19561 0.68156 0.42144 0.0
O547 O 0.18497 0.65076 0.39889 0.0
H548 H 0.24016 0.65386 0.37775 0.0
H549 H 0.28751 0.62625 0.43246 0.0
H550 H 0.21689 0.65095 0.45187 0.0
O551 O 0.85643 0.1167 0.3816 0.0
Tb552 Tb 0.8495 0.0975 0.41515 0.0
Eu553 Eu 0.83093 0.15774 0.42335 0.0
C554 C 0.84263 0.11095 0.36314 0.0
O555 O 0.82556 0.09486 0.36639 0.0
C556 C 0.79841 0.11565 0.40589 0.0
O557 O 0.80504 0.15686 0.45485 0.0
C558 C 0.83545 0.20096 0.4062 0.0
C559 C 0.80262 0.13701 0.4676 0.0
O560 O 0.81632 0.11846 0.46252 0.0
C561 C 0.87004 0.12983 0.45745 0.0
C562 C 0.84778 0.22348 0.41276 0.0
C563 C 0.85127 0.24142 0.39518 0.0
C564 C 0.8612 0.26381 0.40164 0.0
C565 C 0.86782 0.26785 0.42569 0.0
C566 C 0.8633 0.25062 0.44356 0.0
C567 C 0.85363 0.22824 0.43699 0.0
O568 O 0.81084 0.10014 0.41857 0.0
O569 O 0.80859 0.13543 0.39806 0.0
O570 O 0.87398 0.06769 0.40626 0.0
O571 O 0.83713 0.06023 0.41315 0.0
C572 C 0.85774 0.05078 0.40745 0.0
O573 O 0.86402 0.14975 0.4459 0.0
O574 O 0.86407 0.10816 0.44984 0.0
O575 O 0.81786 0.19439 0.42067 0.0
O576 O 0.84918 0.1829 0.39923 0.0
H577 H 0.84521 0.23842 0.37683 0.0
H578 H 0.87397 0.28563 0.43105 0.0
H579 H 0.84971 0.21499 0.45082 0.0
O580 O 0.38148 0.85889 0.38029 0.0
Tb581 Tb 0.4007 0.85158 0.41374 0.0
Eu582 Eu 0.34046 0.83363 0.42243 0.0
C583 C 0.38692 0.84506 0.36178 0.0
O584 O 0.40269 0.82769 0.36492 0.0
C585 C 0.38202 0.80066 0.40442 0.0
O586 O 0.34222 0.80812 0.45414 0.0
C587 C 0.29666 0.8377 0.40654 0.0
C588 C 0.3623 0.80596 0.46659 0.0
O589 O 0.38069 0.81972 0.46116 0.0
C590 C 0.36884 0.87301 0.45591 0.0
C591 C 0.27416 0.84982 0.41361 0.0
C592 C 0.25575 0.85305 0.39643 0.0
C593 C 0.23337 0.8627 0.40337 0.0
C594 C 0.2298 0.86934 0.42748 0.0
C595 C 0.24747 0.86503 0.44498 0.0
C596 C 0.26984 0.85562 0.43794 0.0
O597 O 0.39762 0.81297 0.41711 0.0
O598 O 0.36215 0.81092 0.39684 0.0
O599 O 0.43089 0.87544 0.40451 0.0
O600 O 0.43777 0.83859 0.41183 0.0
C601 C 0.44754 0.85895 0.40586 0.0
O602 O 0.34881 0.86695 0.44455 0.0
O603 O 0.39044 0.86675 0.44829 0.0
O604 O 0.30383 0.8203 0.42094 0.0
O605 O 0.31441 0.85152 0.39895 0.0
H606 H 0.25839 0.84696 0.37804 0.0
H607 H 0.21205 0.87527 0.43321 0.0
H608 H 0.28342 0.85184 0.4515 0.0
O609 O 0.87109 0.3791 0.12088 0.0
Tb610 Tb 0.85293 0.39526 0.08978 0.0
Eu611 Eu 0.83809 0.33378 0.07617 0.0
C612 C 0.86054 0.36395 0.13583 0.0
O613 O 0.84094 0.35279 0.12896 0.0
C614 C 0.801 0.37281 0.10127 0.0
O615 O 0.81985 0.33233 0.03992 0.0
C616 C 0.84551 0.29094 0.09314 0.0
C617 C 0.80472 0.3496 0.03394 0.0
O618 O 0.80166 0.36785 0.04865 0.0
C619 C 0.87172 0.36678 0.04527 0.0
C620 C 0.85929 0.26888 0.08808 0.0
C621 C 0.86349 0.25251 0.10699 0.0
C622 C 0.87199 0.22919 0.10201 0.0
C623 C 0.8767 0.22268 0.07803 0.0
C624 C 0.87132 0.23832 0.05906 0.0
C625 C 0.8636 0.26179 0.06409 0.0
O626 O 0.81521 0.39164 0.09906 0.0
O627 O 0.80701 0.35057 0.09587 0.0
O628 O 0.87658 0.42675 0.09419 0.0
O629 O 0.83895 0.43206 0.09087 0.0
C630 C 0.8595 0.44282 0.09373 0.0
O631 O 0.87219 0.34768 0.05917 0.0
O632 O 0.86022 0.38622 0.05226 0.0
O633 O 0.82854 0.29617 0.07744 0.0
O634 O 0.85737 0.30994 0.10104 0.0
H635 H 0.85819 0.25715 0.12523 0.0
H636 H 0.88146 0.20418 0.07378 0.0
H637 H 0.85861 0.2736 0.04933 0.0
O638 O 0.1164 0.85967 0.12025 0.0
Tb639 Tb 0.09673 0.85028 0.08759 0.0
Eu640 Eu 0.15852 0.83212 0.07789 0.0
C641 C 0.11314 0.84572 0.13915 0.0
O642 O 0.09903 0.82686 0.13696 0.0
C643 C 0.11691 0.79954 0.09659 0.0
O644 O 0.15677 0.8074 0.04551 0.0
C645 C 0.2029 0.83594 0.09236 0.0
C646 C 0.1365 0.80394 0.03366 0.0
O647 O 0.11734 0.81631 0.03977 0.0
C648 C 0.12899 0.87089 0.04568 0.0
C649 C 0.22568 0.84731 0.0846 0.0
C650 C 0.24332 0.85287 0.10201 0.0
C651 C 0.26603 0.86156 0.09488 0.0
C652 C 0.27071 0.86489 0.0703 0.0
C653 C 0.2543 0.85727 0.05267 0.0
C654 C 0.23131 0.84946 0.05987 0.0
O655 O 0.10074 0.81173 0.08447 0.0
O656 O 0.13684 0.80995 0.10393 0.0
O657 O 0.06004 0.83656 0.09194 0.0
O658 O 0.06577 0.87423 0.09393 0.0
C659 C 0.04961 0.85723 0.09511 0.0
O660 O 0.14857 0.86656 0.05847 0.0
O661 O 0.1074 0.86363 0.05241 0.0
O662 O 0.19499 0.81828 0.07872 0.0
O663 O 0.18562 0.85023 0.10013 0.0
H664 H 0.23988 0.84922 0.12091 0.0
H665 H 0.2885 0.87081 0.06473 0.0
H666 H 0.21852 0.84338 0.0464 0.0
O667 O 0.38213 0.6412 0.11924 0.0
Tb668 Tb 0.40134 0.64812 0.0857 0.0
Eu669 Eu 0.34098 0.66691 0.07716 0.0
C670 C 0.38779 0.65508 0.13765 0.0
O671 O 0.40376 0.67223 0.13436 0.0
C672 C 0.38327 0.69935 0.09483 0.0
O673 O 0.34215 0.6925 0.04548 0.0
C674 C 0.29744 0.66279 0.09369 0.0
C675 C 0.36215 0.695 0.03298 0.0
O676 O 0.38076 0.6815 0.03837 0.0
C677 C 0.36892 0.62758 0.04351 0.0
C678 C 0.27488 0.65057 0.08693 0.0
C679 C 0.25675 0.64727 0.10437 0.0
C680 C 0.23433 0.63751 0.09776 0.0
C681 C 0.23043 0.63079 0.07371 0.0
C682 C 0.24781 0.63515 0.05595 0.0
C683 C 0.27024 0.6447 0.06266 0.0
O684 O 0.39893 0.6868 0.08245 0.0
O685 O 0.3633 0.68931 0.10246 0.0
O686 O 0.43089 0.62327 0.0945 0.0
O687 O 0.43879 0.65996 0.0874 0.0
C688 C 0.44802 0.63925 0.09307 0.0
O689 O 0.34902 0.63352 0.05512 0.0
O690 O 0.39059 0.63372 0.051 0.0
O691 O 0.30435 0.6802 0.0792 0.0
O692 O 0.31533 0.64903 0.10107 0.0
H693 H 0.25963 0.65341 0.12271 0.0
H694 H 0.21263 0.62476 0.06824 0.0
H695 H 0.2836 0.64852 0.04891 0.0
O696 O 0.87801 0.36914 0.88059 0.0
Tb697 Tb 0.90795 0.3507 0.89846 0.0
Eu698 Eu 0.92309 0.33496 0.83706 0.0
C699 C 0.86374 0.35887 0.8646 0.0
O700 O 0.87069 0.33895 0.85408 0.0
C701 C 0.89666 0.2986 0.87592 0.0
O702 O 0.95923 0.31649 0.83784 0.0
C703 C 0.90808 0.34109 0.7932 0.0
C704 C 0.96495 0.30279 0.85637 0.0
O705 O 0.95011 0.30146 0.87475 0.0
C706 C 0.95233 0.36985 0.87021 0.0
C707 C 0.91406 0.35527 0.77163 0.0
C708 C 0.89673 0.35798 0.75331 0.0
C709 C 0.90322 0.36799 0.73094 0.0
C710 C 0.92704 0.37569 0.72741 0.0
C711 C 0.94472 0.3719 0.74504 0.0
C712 C 0.93802 0.36235 0.76743 0.0
O713 O 0.89803 0.3131 0.89465 0.0
O714 O 0.90296 0.30424 0.85381 0.0
O715 O 0.89979 0.37447 0.92916 0.0
O716 O 0.90798 0.33786 0.93578 0.0
C717 C 0.90207 0.35813 0.94583 0.0
O718 O 0.93836 0.36977 0.85113 0.0
O719 O 0.94544 0.35882 0.88997 0.0
O720 O 0.92425 0.32496 0.79947 0.0
O721 O 0.89859 0.35262 0.81166 0.0
H722 H 0.87873 0.35078 0.75582 0.0
H723 H 0.93257 0.38163 0.7096 0.0
H724 H 0.95177 0.35882 0.78089 0.0
O725 O 0.1453 0.88056 0.88292 0.0
Tb726 Tb 0.15247 0.91384 0.90245 0.0
Eu727 Eu 0.17029 0.92346 0.8419 0.0
C728 C 0.15919 0.86204 0.8881 0.0
O729 O 0.17674 0.86509 0.90373 0.0
C730 C 0.20343 0.90511 0.88335 0.0
O731 O 0.19517 0.95574 0.84386 0.0
C732 C 0.16645 0.90731 0.79816 0.0
C733 C 0.19766 0.96758 0.86428 0.0
O734 O 0.18472 0.96103 0.88292 0.0
C735 C 0.13062 0.9557 0.8706 0.0
C736 C 0.15394 0.91385 0.77571 0.0
C737 C 0.15082 0.89644 0.7575 0.0
C738 C 0.1406 0.90294 0.73522 0.0
C739 C 0.13335 0.92684 0.73156 0.0
C740 C 0.13754 0.94456 0.74902 0.0
C741 C 0.14745 0.93795 0.7713 0.0
O742 O 0.19124 0.9168 0.89982 0.0
O743 O 0.19276 0.89776 0.8636 0.0
O744 O 0.16373 0.91202 0.94013 0.0
O745 O 0.12727 0.90447 0.93147 0.0
C746 C 0.1429 0.90598 0.94891 0.0
O747 O 0.13616 0.94406 0.85061 0.0
O748 O 0.13767 0.94848 0.89209 0.0
O749 O 0.18345 0.92226 0.80516 0.0
O750 O 0.15294 0.89943 0.81601 0.0
H751 H 0.15738 0.87824 0.7602 0.0
H752 H 0.127 0.93228 0.71386 0.0
H753 H 0.1511 0.9517 0.78472 0.0
O754 O 0.61672 0.14211 0.88433 0.0
Tb755 Tb 0.58382 0.15152 0.90339 0.0
Eu756 Eu 0.57737 0.1693 0.84253 0.0
C757 C 0.63601 0.15483 0.88959 0.0
O758 O 0.63399 0.17252 0.90519 0.0
C759 C 0.59627 0.20187 0.8843 0.0
O760 O 0.54599 0.19526 0.84378 0.0
C761 C 0.59363 0.16498 0.79887 0.0
C762 C 0.53368 0.1982 0.86383 0.0
O763 O 0.5391 0.185 0.88265 0.0
C764 C 0.54267 0.13065 0.87022 0.0
C765 C 0.5864 0.15302 0.77632 0.0
C766 C 0.60347 0.14958 0.75785 0.0
C767 C 0.59636 0.13983 0.73556 0.0
C768 C 0.57218 0.13338 0.73211 0.0
C769 C 0.55481 0.13794 0.74982 0.0
C770 C 0.56201 0.14741 0.77212 0.0
O771 O 0.5831 0.1903 0.90009 0.0
O772 O 0.60349 0.19107 0.86456 0.0
O773 O 0.59215 0.12702 0.93334 0.0
O774 O 0.58465 0.16369 0.94084 0.0
C775 C 0.59029 0.14309 0.95034 0.0
O776 O 0.55505 0.13606 0.85063 0.0
O777 O 0.54922 0.13757 0.89197 0.0
O778 O 0.5796 0.18271 0.80594 0.0
O779 O 0.6007 0.15095 0.81667 0.0
H780 H 0.62193 0.15551 0.76039 0.0
H781 H 0.56633 0.12735 0.71443 0.0
H782 H 0.54854 0.15134 0.78575 0.0
O783 O 0.35805 0.61862 0.87977 0.0
Tb784 Tb 0.35005 0.5856 0.8992 0.0
Eu785 Eu 0.33185 0.57771 0.8383 0.0
C786 C 0.3442 0.63724 0.88454 0.0
O787 O 0.32637 0.63446 0.89988 0.0
C788 C 0.29904 0.59474 0.88047 0.0
O789 O 0.30615 0.54606 0.83886 0.0
C790 C 0.33694 0.59458 0.79493 0.0
C791 C 0.30356 0.53341 0.85876 0.0
O792 O 0.31715 0.53853 0.87739 0.0
C793 C 0.37086 0.54374 0.86681 0.0
C794 C 0.34914 0.58724 0.77249 0.0
C795 C 0.35538 0.60465 0.75505 0.0
C796 C 0.36554 0.59754 0.73287 0.0
C797 C 0.36939 0.57294 0.72858 0.0
C798 C 0.36265 0.55547 0.74543 0.0
C799 C 0.35274 0.56264 0.7675 0.0
O800 O 0.31147 0.58205 0.89597 0.0
O801 O 0.30921 0.60273 0.86069 0.0
O802 O 0.37442 0.59327 0.9295 0.0
O803 O 0.33714 0.58839 0.93628 0.0
C804 C 0.35786 0.59293 0.94613 0.0
O805 O 0.3649 0.55524 0.84682 0.0
O806 O 0.36449 0.55105 0.88847 0.0
O807 O 0.31881 0.58086 0.80163 0.0
O808 O 0.35082 0.60124 0.81302 0.0
H809 H 0.35167 0.62353 0.75844 0.0
H810 H 0.37579 0.5671 0.71104 0.0
H811 H 0.34719 0.54907 0.78044 0.0
O812 O 0.87812 0.14144 0.6213 0.0
Tb813 Tb 0.91142 0.14897 0.60205 0.0
Eu814 Eu 0.91999 0.16784 0.66296 0.0
C815 C 0.8597 0.15561 0.61655 0.0
O816 O 0.86287 0.17358 0.60148 0.0
C817 C 0.90325 0.20031 0.62043 0.0
O818 O 0.95188 0.1932 0.66205 0.0
C819 C 0.90343 0.16334 0.70654 0.0
C820 C 0.96452 0.19548 0.6421 0.0
O821 O 0.95922 0.18179 0.6236 0.0
C822 C 0.95365 0.12849 0.63453 0.0
C823 C 0.91091 0.15151 0.72916 0.0
C824 C 0.89355 0.1454 0.74671 0.0
C825 C 0.90075 0.1355 0.76899 0.0
C826 C 0.92539 0.13179 0.77328 0.0
C827 C 0.94281 0.13843 0.75633 0.0
C828 C 0.93556 0.1481 0.73417 0.0
O829 O 0.91563 0.18749 0.60499 0.0
O830 O 0.89513 0.19049 0.64033 0.0
O831 O 0.90402 0.1245 0.57174 0.0
O832 O 0.90841 0.16181 0.56496 0.0
C833 C 0.90412 0.14106 0.5551 0.0
O834 O 0.94235 0.13469 0.65456 0.0
O835 O 0.94601 0.13444 0.61284 0.0
O836 O 0.9171 0.18136 0.69948 0.0
O837 O 0.89665 0.14922 0.6887 0.0
H838 H 0.87463 0.14897 0.74332 0.0
H839 H 0.9313 0.12553 0.79085 0.0
H840 H 0.94909 0.15354 0.72115 0.0
O841 O 0.35916 0.88218 0.61953 0.0
Tb842 Tb 0.35066 0.9152 0.60027 0.0
Eu843 Eu 0.33145 0.92303 0.6619 0.0
C844 C 0.34555 0.86343 0.61458 0.0
O845 O 0.32782 0.86607 0.5991 0.0
C846 C 0.29981 0.90493 0.61928 0.0
O847 O 0.30659 0.95535 0.66098 0.0
C848 C 0.33565 0.90723 0.70581 0.0
C849 C 0.30362 0.96756 0.64085 0.0
O850 O 0.31629 0.96154 0.62185 0.0
C851 C 0.37015 0.95707 0.63348 0.0
C852 C 0.34555 0.91593 0.72897 0.0
C853 C 0.35442 0.89935 0.7461 0.0
C854 C 0.36238 0.90744 0.76882 0.0
C855 C 0.36098 0.93207 0.7742 0.0
C856 C 0.35095 0.94855 0.75796 0.0
C857 C 0.34403 0.94056 0.73499 0.0
O858 O 0.312 0.91768 0.60362 0.0
O859 O 0.31015 0.89719 0.63908 0.0
O860 O 0.37504 0.90793 0.56985 0.0
O861 O 0.33774 0.91271 0.56316 0.0
C862 C 0.35844 0.9083 0.55323 0.0
O863 O 0.36493 0.94469 0.65314 0.0
O864 O 0.36399 0.95003 0.61165 0.0
O865 O 0.31664 0.91885 0.69776 0.0
O866 O 0.35118 0.9018 0.6887 0.0
H867 H 0.3546 0.88025 0.742 0.0
H868 H 0.36635 0.93832 0.79194 0.0
H869 H 0.33621 0.95323 0.72234 0.0
O870 O 0.61969 0.35673 0.61727 0.0
Tb871 Tb 0.58615 0.34952 0.59816 0.0
Eu872 Eu 0.5775 0.3316 0.65833 0.0
C873 C 0.63811 0.34275 0.61193 0.0
O874 O 0.63482 0.32519 0.5964 0.0
C875 C 0.59473 0.2986 0.61663 0.0
O876 O 0.54568 0.30613 0.65761 0.0
C877 C 0.59446 0.33617 0.70163 0.0
C878 C 0.53292 0.30358 0.63776 0.0
O879 O 0.53813 0.31697 0.61901 0.0
C880 C 0.54411 0.37093 0.63002 0.0
C881 C 0.58769 0.34852 0.72406 0.0
C882 C 0.60519 0.35234 0.74202 0.0
C883 C 0.59856 0.36219 0.76439 0.0
C884 C 0.57441 0.36845 0.7684 0.0
C885 C 0.55664 0.36363 0.75114 0.0
C886 C 0.56338 0.35402 0.72877 0.0
O887 O 0.58218 0.31099 0.60101 0.0
O888 O 0.60268 0.30892 0.6363 0.0
O889 O 0.59449 0.37389 0.56815 0.0
O890 O 0.58847 0.33682 0.56102 0.0
C891 C 0.59362 0.35748 0.5514 0.0
O892 O 0.55542 0.36491 0.65008 0.0
O893 O 0.55161 0.36444 0.60847 0.0
O894 O 0.58008 0.31854 0.695 0.0
O895 O 0.60153 0.34987 0.68358 0.0
H896 H 0.62362 0.34653 0.73907 0.0
H897 H 0.56895 0.37453 0.78619 0.0
H898 H 0.54962 0.34987 0.71549 0.0
O899 O 0.14322 0.61956 0.61859 0.0
Tb900 Tb 0.15093 0.58641 0.59907 0.0
Eu901 Eu 0.16774 0.57626 0.65998 0.0
C902 C 0.15739 0.63803 0.61405 0.0
O903 O 0.17541 0.635 0.59899 0.0
C904 C 0.20147 0.59469 0.61924 0.0
O905 O 0.19299 0.54428 0.65809 0.0
C906 C 0.16339 0.59158 0.70394 0.0
C907 C 0.19592 0.53242 0.63775 0.0
O908 O 0.18294 0.53847 0.61897 0.0
C909 C 0.12871 0.54447 0.63026 0.0
C910 C 0.1505 0.58492 0.72615 0.0
C911 C 0.14693 0.60241 0.74416 0.0
C912 C 0.13681 0.59593 0.76645 0.0
C913 C 0.12989 0.57194 0.77029 0.0
C914 C 0.13443 0.55413 0.753 0.0
C915 C 0.14438 0.56074 0.73071 0.0
O916 O 0.18953 0.58293 0.60264 0.0
O917 O 0.19056 0.60209 0.63883 0.0
O918 O 0.12631 0.5948 0.56925 0.0
O919 O 0.16341 0.58922 0.56185 0.0
C920 C 0.14261 0.59423 0.55238 0.0
O921 O 0.13356 0.55625 0.65033 0.0
O922 O 0.1363 0.55164 0.60897 0.0
O923 O 0.18028 0.57651 0.69694 0.0
O924 O 0.15031 0.60007 0.68604 0.0
H925 H 0.15324 0.62069 0.74135 0.0
H926 H 0.12361 0.56654 0.78802 0.0
H927 H 0.14838 0.54695 0.71745 0.0
O928 O 0.88123 0.87983 0.3538 0.0
Tb929 Tb 0.9002 0.91345 0.34677 0.0
Eu930 Eu 0.83949 0.92202 0.32982 0.0
C931 C 0.88662 0.86154 0.33968 0.0
O932 O 0.90216 0.865 0.32214 0.0
C933 C 0.88085 0.90491 0.29599 0.0
O934 O 0.84047 0.95386 0.30441 0.0
C935 C 0.79605 0.90529 0.33427 0.0
C936 C 0.86048 0.9663 0.30173 0.0
O937 O 0.87922 0.96084 0.31504 0.0
C938 C 0.86818 0.95488 0.36916 0.0
C939 C 0.77365 0.91151 0.34704 0.0
C940 C 0.75557 0.89395 0.34982 0.0
C941 C 0.73316 0.90016 0.35989 0.0
C942 C 0.72927 0.92393 0.36748 0.0
C943 C 0.74661 0.94185 0.36366 0.0
C944 C 0.76902 0.93551 0.35381 0.0
O945 O 0.89704 0.91704 0.30811 0.0
O946 O 0.86139 0.89698 0.30677 0.0
O947 O 0.92975 0.90483 0.37162 0.0
O948 O 0.93766 0.91167 0.33484 0.0
C949 C 0.94687 0.90617 0.35564 0.0
O950 O 0.84819 0.94327 0.36356 0.0
O951 O 0.88966 0.94783 0.36195 0.0
O952 O 0.8026 0.92035 0.31719 0.0
O953 O 0.8142 0.8976 0.34752 0.0
H954 H 0.75843 0.87587 0.34297 0.0
H955 H 0.71147 0.92916 0.3737 0.0
H956 H 0.78233 0.9494 0.35036 0.0
O957 O 0.61916 0.87953 0.35409 0.0
Tb958 Tb 0.58607 0.89924 0.34663 0.0
Eu959 Eu 0.57686 0.83935 0.32843 0.0
C960 C 0.63778 0.88457 0.34028 0.0
O961 O 0.63493 0.90025 0.32277 0.0
C962 C 0.59507 0.8811 0.29543 0.0
O963 O 0.54516 0.8407 0.3028 0.0
C964 C 0.59322 0.79585 0.33321 0.0
C965 C 0.53292 0.86085 0.30024 0.0
O966 O 0.53862 0.87942 0.31368 0.0
C967 C 0.54372 0.86785 0.36777 0.0
C968 C 0.5866 0.77374 0.34625 0.0
C969 C 0.60399 0.75563 0.34977 0.0
C970 C 0.59744 0.73356 0.36034 0.0
C971 C 0.57351 0.73004 0.36763 0.0
C972 C 0.55577 0.74739 0.36305 0.0
C973 C 0.56244 0.76946 0.35273 0.0
O974 O 0.58276 0.89682 0.30795 0.0
O975 O 0.60227 0.86094 0.30541 0.0
O976 O 0.58877 0.93658 0.33472 0.0
O977 O 0.59442 0.92867 0.37171 0.0
C978 C 0.59375 0.94576 0.35565 0.0
O979 O 0.55499 0.84776 0.36188 0.0
O980 O 0.55127 0.88928 0.36108 0.0
O981 O 0.57833 0.80241 0.31597 0.0
O982 O 0.60108 0.81402 0.34632 0.0
H983 H 0.62221 0.75818 0.34318 0.0
H984 H 0.56804 0.71246 0.37423 0.0
H985 H 0.5487 0.78279 0.34874 0.0
O986 O 0.61712 0.61916 0.3576 0.0
Tb987 Tb 0.59764 0.58587 0.35057 0.0
Eu988 Eu 0.65795 0.57661 0.33129 0.0
C989 C 0.61152 0.63765 0.34386 0.0
O990 O 0.59525 0.63464 0.32689 0.0
C991 C 0.61603 0.59558 0.2994 0.0
O992 O 0.6542 0.54469 0.30624 0.0
C993 C 0.70239 0.59111 0.33305 0.0
C994 C 0.6337 0.53285 0.30456 0.0
O995 O 0.61572 0.53893 0.31859 0.0
C996 C 0.6304 0.54441 0.37174 0.0
C997 C 0.72524 0.58397 0.34453 0.0
C998 C 0.74347 0.60129 0.34788 0.0
C999 C 0.76603 0.59446 0.35717 0.0
C1000 C 0.77 0.5703 0.36328 0.0
C1001 C 0.7525 0.55268 0.35887 0.0
C1002 C 0.72994 0.55959 0.3498 0.0
O1003 O 0.60009 0.58337 0.31177 0.0
O1004 O 0.63604 0.60284 0.30963 0.0
O1005 O 0.56823 0.59563 0.37522 0.0
O1006 O 0.56005 0.58664 0.33896 0.0
C1007 C 0.55097 0.59329 0.35947 0.0
O1008 O 0.65008 0.55638 0.36584 0.0
O1009 O 0.60863 0.55146 0.3654 0.0
O1010 O 0.69407 0.5763 0.31652 0.0
O1011 O 0.68548 0.59981 0.34725 0.0
H1012 H 0.74052 0.61977 0.34224 0.0
H1013 H 0.78787 0.5647 0.36899 0.0
H1014 H 0.71646 0.54595 0.34601 0.0
O1015 O 0.88 0.61664 0.35403 0.0
Tb1016 Tb 0.91356 0.59771 0.34664 0.0
Eu1017 Eu 0.92242 0.65855 0.32868 0.0
C1018 C 0.86165 0.61162 0.33983 0.0
O1019 O 0.865 0.59642 0.32199 0.0
C1020 C 0.90482 0.61676 0.29556 0.0
O1021 O 0.9546 0.65665 0.30375 0.0
C1022 C 0.90672 0.70248 0.33215 0.0
C1023 C 0.96698 0.63655 0.30159 0.0
O1024 O 0.96126 0.61806 0.31511 0.0
C1025 C 0.95492 0.63014 0.3686 0.0
C1026 C 0.91329 0.72502 0.34455 0.0
C1027 C 0.89587 0.74326 0.34736 0.0
C1028 C 0.90231 0.76563 0.35736 0.0
C1029 C 0.92617 0.76937 0.36477 0.0
C1030 C 0.94396 0.75193 0.36086 0.0
C1031 C 0.93742 0.72955 0.35107 0.0
O1032 O 0.91727 0.60108 0.30804 0.0
O1033 O 0.89718 0.63668 0.30569 0.0
O1034 O 0.90531 0.56737 0.37072 0.0
O1035 O 0.91156 0.56063 0.33363 0.0
C1036 C 0.90634 0.55075 0.35417 0.0
O1037 O 0.94305 0.64995 0.36288 0.0
O1038 O 0.94793 0.6085 0.3618 0.0
O1039 O 0.9218 0.69522 0.31537 0.0
O1040 O 0.89844 0.68479 0.34564 0.0
H1041 H 0.87769 0.7405 0.34071 0.0
H1042 H 0.93154 0.78712 0.371 0.0
H1043 H 0.95121 0.71614 0.34761 0.0
O1044 O 0.88175 0.61674 0.13841 0.0
Tb1045 Tb 0.9009 0.58351 0.14644 0.0
Eu1046 Eu 0.83999 0.57625 0.16363 0.0
C1047 C 0.88687 0.63534 0.1522 0.0
O1048 O 0.90236 0.6324 0.16988 0.0
C1049 C 0.88181 0.5931 0.19718 0.0
O1050 O 0.83933 0.5445 0.1891 0.0
C1051 C 0.79709 0.59402 0.15796 0.0
C1052 C 0.85911 0.53182 0.19217 0.0
O1053 O 0.87816 0.53714 0.17927 0.0
C1054 C 0.86873 0.54123 0.1256 0.0
C1055 C 0.77396 0.58734 0.14678 0.0
C1056 C 0.75641 0.60524 0.14273 0.0
C1057 C 0.73316 0.59879 0.13496 0.0
C1058 C 0.72771 0.57441 0.13139 0.0
C1059 C 0.74452 0.55646 0.13664 0.0
C1060 C 0.76792 0.56288 0.14361 0.0
O1061 O 0.89733 0.58018 0.18503 0.0
O1062 O 0.86223 0.60112 0.18668 0.0
O1063 O 0.9316 0.59166 0.12277 0.0
O1064 O 0.93773 0.58602 0.16007 0.0
C1065 C 0.94793 0.59104 0.13964 0.0
O1066 O 0.84864 0.55267 0.13135 0.0
O1067 O 0.89035 0.5489 0.1318 0.0
O1068 O 0.80353 0.58089 0.1766 0.0
O1069 O 0.81514 0.59925 0.14344 0.0
H1070 H 0.76037 0.62391 0.14691 0.0
H1071 H 0.70936 0.56914 0.12704 0.0
H1072 H 0.78077 0.54892 0.14829 0.0
O1073 O 0.876 0.88453 0.12712 0.0
Tb1074 Tb 0.90783 0.89967 0.14506 0.0
Eu1075 Eu 0.91944 0.83835 0.16405 0.0
C1076 C 0.86143 0.86791 0.13582 0.0
O1077 O 0.86842 0.85444 0.15381 0.0
C1078 C 0.90062 0.88072 0.19715 0.0
O1079 O 0.95538 0.84032 0.18275 0.0
C1080 C 0.90497 0.79408 0.16059 0.0
C1081 C 0.95744 0.84417 0.2061 0.0
O1082 O 0.93799 0.84625 0.21942 0.0
C1083 C 0.95074 0.86841 0.12624 0.0
C1084 C 0.91259 0.77162 0.14881 0.0
C1085 C 0.89557 0.75326 0.14482 0.0
C1086 C 0.90288 0.73098 0.13531 0.0
C1087 C 0.92722 0.72744 0.12955 0.0
C1088 C 0.94451 0.74512 0.13455 0.0
C1089 C 0.93712 0.7674 0.14386 0.0
O1090 O 0.91263 0.89588 0.18366 0.0
O1091 O 0.8957 0.85894 0.18964 0.0
O1092 O 0.91146 0.93333 0.12445 0.0
O1093 O 0.89596 0.93427 0.15938 0.0
C1094 C 0.90201 0.94719 0.14087 0.0
O1095 O 0.93686 0.8493 0.12879 0.0
O1096 O 0.94398 0.88968 0.13414 0.0
O1097 O 0.91914 0.80191 0.17792 0.0
O1098 O 0.89688 0.81133 0.14645 0.0
H1099 H 0.87696 0.75587 0.1502 0.0
H1100 H 0.93319 0.70976 0.1237 0.0
H1101 H 0.9505 0.781 0.14813 0.0
O1102 O 0.61718 0.87797 0.13778 0.0
Tb1103 Tb 0.59807 0.91096 0.14725 0.0
Eu1104 Eu 0.65995 0.91915 0.16159 0.0
C1105 C 0.61441 0.85944 0.15234 0.0
O1106 O 0.60141 0.86232 0.17192 0.0
C1107 C 0.61912 0.9043 0.1973 0.0
O1108 O 0.65947 0.95473 0.18105 0.0
C1109 C 0.70389 0.90382 0.1568 0.0
C1110 C 0.65788 0.95642 0.20468 0.0
O1111 O 0.65764 0.9368 0.21789 0.0
C1112 C 0.62939 0.95243 0.12533 0.0
C1113 C 0.72643 0.91207 0.14539 0.0
C1114 C 0.74437 0.89522 0.13908 0.0
C1115 C 0.76664 0.90306 0.12975 0.0
C1116 C 0.77054 0.92784 0.12673 0.0
C1117 C 0.75316 0.94478 0.13352 0.0
C1118 C 0.73101 0.93688 0.1427 0.0
O1119 O 0.60382 0.91745 0.1851 0.0
O1120 O 0.63847 0.89566 0.18676 0.0
O1121 O 0.5621 0.90381 0.16166 0.0
O1122 O 0.56631 0.90776 0.12384 0.0
C1123 C 0.5509 0.90372 0.1411 0.0
O1124 O 0.64861 0.93856 0.12744 0.0
O1125 O 0.60838 0.94618 0.1343 0.0
O1126 O 0.69644 0.91675 0.17522 0.0
O1127 O 0.68629 0.89706 0.14232 0.0
H1128 H 0.74126 0.87617 0.1421 0.0
H1129 H 0.78808 0.93422 0.12088 0.0
H1130 H 0.71766 0.95002 0.14831 0.0
O1131 O 0.62006 0.61748 0.1404 0.0
Tb1132 Tb 0.58801 0.59631 0.14834 0.0
Eu1133 Eu 0.57792 0.65727 0.16708 0.0
C1134 C 0.63908 0.61374 0.15408 0.0
O1135 O 0.63729 0.59829 0.17194 0.0
C1136 C 0.59655 0.61547 0.19954 0.0
O1137 O 0.54584 0.6561 0.1922 0.0
C1138 C 0.59311 0.7013 0.16264 0.0
C1139 C 0.53394 0.63591 0.19577 0.0
O1140 O 0.53996 0.61671 0.18339 0.0
C1141 C 0.5451 0.62773 0.12822 0.0
C1142 C 0.58514 0.72414 0.15158 0.0
C1143 C 0.6024 0.74169 0.14538 0.0
C1144 C 0.59504 0.76441 0.13693 0.0
C1145 C 0.57037 0.76925 0.13465 0.0
C1146 C 0.55298 0.75285 0.14279 0.0
C1147 C 0.56039 0.72985 0.15028 0.0
O1148 O 0.58493 0.59918 0.18704 0.0
O1149 O 0.60382 0.63548 0.18931 0.0
O1150 O 0.59825 0.56694 0.12369 0.0
O1151 O 0.59136 0.55897 0.16039 0.0
C1152 C 0.59762 0.54985 0.13977 0.0
O1153 O 0.55682 0.64776 0.13344 0.0
O1154 O 0.55274 0.6062 0.13468 0.0
O1155 O 0.58013 0.69365 0.18092 0.0
O1156 O 0.59991 0.68389 0.14802 0.0
H1157 H 0.62141 0.73813 0.14826 0.0
H1158 H 0.56466 0.78706 0.12893 0.0
H1159 H 0.54711 0.71707 0.15675 0.0
O1160 O 0.37087 0.89094 0.87658 0.0
Tb1161 Tb 0.35411 0.90247 0.91047 0.0
Eu1162 Eu 0.33578 0.83996 0.91894 0.0
C1163 C 0.36502 0.87228 0.86313 0.0
O1164 O 0.3508 0.85555 0.87166 0.0
C1165 C 0.30303 0.88251 0.90121 0.0
O1166 O 0.31682 0.84251 0.95469 0.0
C1167 C 0.33799 0.79551 0.90472 0.0
C1168 C 0.29336 0.84565 0.95662 0.0
O1169 O 0.28002 0.84703 0.9371 0.0
C1170 C 0.37445 0.86845 0.9508 0.0
C1171 C 0.34939 0.77279 0.91209 0.0
C1172 C 0.35308 0.75467 0.89477 0.0
C1173 C 0.36253 0.73224 0.90163 0.0
C1174 C 0.36859 0.72832 0.92584 0.0
C1175 C 0.36396 0.74578 0.94346 0.0
C1176 C 0.35461 0.7682 0.93651 0.0
O1177 O 0.31575 0.89684 0.91495 0.0
O1178 O 0.31148 0.86153 0.89462 0.0
O1179 O 0.37428 0.93613 0.91566 0.0
O1180 O 0.33826 0.93769 0.90302 0.0
C1181 C 0.35698 0.95044 0.9088 0.0
O1182 O 0.37141 0.84994 0.93621 0.0
O1183 O 0.36631 0.89003 0.94542 0.0
O1184 O 0.32105 0.80381 0.91907 0.0
O1185 O 0.35244 0.81236 0.8964 0.0
H1186 H 0.34757 0.7576 0.87623 0.0
H1187 H 0.37444 0.71052 0.93147 0.0
H1188 H 0.35064 0.78166 0.95013 0.0
O1189 O 0.36997 0.61741 0.62368 0.0
Tb1190 Tb 0.35286 0.60222 0.59139 0.0
Eu1191 Eu 0.3313 0.66265 0.57837 0.0
C1192 C 0.3603 0.63339 0.63836 0.0
O1193 O 0.3418 0.64608 0.63123 0.0
C1194 C 0.29989 0.61992 0.59965 0.0
O1195 O 0.30765 0.66092 0.54525 0.0
C1196 C 0.33569 0.70656 0.59364 0.0
C1197 C 0.30304 0.6401 0.53487 0.0
O1198 O 0.3135 0.6206 0.54316 0.0
C1199 C 0.36991 0.63309 0.54697 0.0
C1200 C 0.34897 0.72846 0.58697 0.0
C1201 C 0.35318 0.74625 0.60451 0.0
C1202 C 0.36363 0.76836 0.59799 0.0
C1203 C 0.37026 0.77218 0.57389 0.0
C1204 C 0.36514 0.75506 0.55606 0.0
C1205 C 0.35491 0.73296 0.56273 0.0
O1206 O 0.31391 0.60411 0.58913 0.0
O1207 O 0.30657 0.64225 0.60303 0.0
O1208 O 0.37486 0.56931 0.58882 0.0
O1209 O 0.33878 0.56689 0.6011 0.0
C1210 C 0.35811 0.55469 0.59633 0.0
O1211 O 0.36607 0.65283 0.55954 0.0
O1212 O 0.36318 0.61176 0.55481 0.0
O1213 O 0.31897 0.69963 0.57833 0.0
O1214 O 0.34847 0.68863 0.60245 0.0
H1215 H 0.34707 0.74347 0.62288 0.0
H1216 H 0.37673 0.78982 0.56845 0.0
H1217 H 0.35051 0.71983 0.54893 0.0
O1218 O 0.8827 0.35812 0.61667 0.0
Tb1219 Tb 0.90168 0.34909 0.58356 0.0
Eu1220 Eu 0.84101 0.33133 0.57621 0.0
C1221 C 0.88801 0.3451 0.63577 0.0
O1222 O 0.9035 0.32735 0.63338 0.0
C1223 C 0.88265 0.29867 0.5951 0.0
O1224 O 0.84206 0.30507 0.54504 0.0
C1225 C 0.7975 0.33614 0.59273 0.0
C1226 C 0.86209 0.30211 0.53269 0.0
O1227 O 0.88087 0.3154 0.53799 0.0
C1228 C 0.86933 0.36935 0.54131 0.0
C1229 C 0.77492 0.34822 0.58584 0.0
C1230 C 0.7565 0.35115 0.60305 0.0
C1231 C 0.73408 0.36081 0.59623 0.0
C1232 C 0.73047 0.36773 0.5722 0.0
C1233 C 0.74815 0.36367 0.55466 0.0
C1234 C 0.77056 0.35427 0.56158 0.0
O1235 O 0.8984 0.31037 0.58202 0.0
O1236 O 0.86287 0.30936 0.60232 0.0
O1237 O 0.93187 0.37349 0.5913 0.0
O1238 O 0.93887 0.33638 0.58558 0.0
C1239 C 0.94861 0.35707 0.59044 0.0
O1240 O 0.84945 0.3641 0.55332 0.0
O1241 O 0.89094 0.36277 0.5486 0.0
O1242 O 0.80427 0.31837 0.5786 0.0
O1243 O 0.81547 0.35005 0.5996 0.0
H1244 H 0.75916 0.34485 0.62137 0.0
H1245 H 0.71271 0.37367 0.56654 0.0
H1246 H 0.78414 0.35066 0.54798 0.0
O1247 O 0.14324 0.88179 0.62085 0.0
Tb1248 Tb 0.15022 0.90096 0.58733 0.0
Eu1249 Eu 0.16861 0.84046 0.57834 0.0
C1250 C 0.15724 0.88733 0.63921 0.0
O1251 O 0.17449 0.9032 0.63586 0.0
C1252 C 0.20127 0.88229 0.59642 0.0
O1253 O 0.1943 0.84225 0.54674 0.0
C1254 C 0.16468 0.79669 0.59427 0.0
C1255 C 0.19661 0.86234 0.53436 0.0
O1256 O 0.18281 0.88074 0.53974 0.0
C1257 C 0.12901 0.86881 0.54524 0.0
C1258 C 0.15236 0.77421 0.58745 0.0
C1259 C 0.1491 0.756 0.60481 0.0
C1260 C 0.13922 0.73364 0.59815 0.0
C1261 C 0.13234 0.72991 0.57412 0.0
C1262 C 0.13664 0.74737 0.55643 0.0
C1263 C 0.14633 0.76971 0.5632 0.0
O1264 O 0.18887 0.89802 0.58397 0.0
O1265 O 0.19107 0.86237 0.60395 0.0
O1266 O 0.12566 0.9307 0.59617 0.0
O1267 O 0.16246 0.9383 0.58918 0.0
C1268 C 0.1418 0.94769 0.59486 0.0
O1269 O 0.13504 0.84882 0.55663 0.0
O1270 O 0.13538 0.8904 0.55274 0.0
O1271 O 0.18187 0.80379 0.57959 0.0
O1272 O 0.15104 0.81446 0.6021 0.0
H1273 H 0.15534 0.75875 0.62314 0.0
H1274 H 0.12621 0.71218 0.56858 0.0
H1275 H 0.1501 0.78313 0.54949 0.0
O1276 O 0.61647 0.14168 0.62095 0.0
Tb1277 Tb 0.59723 0.14866 0.58743 0.0
Eu1278 Eu 0.65779 0.16678 0.57832 0.0
C1279 C 0.61127 0.15586 0.63926 0.0
O1280 O 0.59569 0.17337 0.6359 0.0
C1281 C 0.61606 0.19958 0.59565 0.0
O1282 O 0.65657 0.19237 0.54662 0.0
C1283 C 0.70143 0.16277 0.59459 0.0
C1284 C 0.63669 0.19488 0.5339 0.0
O1285 O 0.61809 0.18119 0.53888 0.0
C1286 C 0.62925 0.12711 0.54554 0.0
C1287 C 0.72396 0.15054 0.58781 0.0
C1288 C 0.74197 0.14704 0.60532 0.0
C1289 C 0.76444 0.13738 0.59875 0.0
C1290 C 0.76849 0.13095 0.57465 0.0
C1291 C 0.75117 0.13544 0.55684 0.0
C1292 C 0.72872 0.14492 0.56351 0.0
O1293 O 0.60041 0.18714 0.58318 0.0
O1294 O 0.63574 0.18929 0.60364 0.0
O1295 O 0.56696 0.12468 0.59611 0.0
O1296 O 0.56023 0.16174 0.58974 0.0
C1297 C 0.55038 0.14126 0.59517 0.0
O1298 O 0.64927 0.13312 0.55691 0.0
O1299 O 0.60766 0.1336 0.55295 0.0
O1300 O 0.69442 0.18006 0.57999 0.0
O1301 O 0.68361 0.14907 0.6022 0.0
H1302 H 0.73898 0.15296 0.62372 0.0
H1303 H 0.78632 0.12498 0.56923 0.0
H1304 H 0.71541 0.14886 0.54973 0.0
O1305 O 0.14176 0.61728 0.88041 0.0
Tb1306 Tb 0.14976 0.59785 0.9135 0.0
Eu1307 Eu 0.16813 0.65889 0.92268 0.0
C1308 C 0.15563 0.61251 0.86177 0.0
O1309 O 0.17348 0.59722 0.86461 0.0
C1310 C 0.20068 0.61702 0.9042 0.0
O1311 O 0.19355 0.65712 0.95453 0.0
C1312 C 0.16439 0.70283 0.90704 0.0
C1313 C 0.19636 0.63695 0.96669 0.0
O1314 O 0.18319 0.61821 0.96097 0.0
C1315 C 0.12901 0.63007 0.95548 0.0
C1316 C 0.15222 0.72545 0.91374 0.0
C1317 C 0.14965 0.74383 0.89642 0.0
C1318 C 0.13994 0.76629 0.903 0.0
C1319 C 0.13254 0.76997 0.92686 0.0
C1320 C 0.13624 0.75237 0.94455 0.0
C1321 C 0.14576 0.72992 0.93789 0.0
O1322 O 0.1884 0.60108 0.91651 0.0
O1323 O 0.19041 0.637 0.89689 0.0
O1324 O 0.1251 0.56787 0.90563 0.0
O1325 O 0.16226 0.56064 0.91082 0.0
C1326 C 0.14147 0.55105 0.90609 0.0
O1327 O 0.13414 0.64991 0.94342 0.0
O1328 O 0.13585 0.60851 0.94836 0.0
O1329 O 0.18141 0.69557 0.92184 0.0
O1330 O 0.15071 0.68516 0.89906 0.0
H1331 H 0.1563 0.74111 0.87824 0.0
H1332 H 0.12653 0.78776 0.93236 0.0
H1333 H 0.1491 0.71641 0.95161 0.0
O1334 O 0.88058 0.13051 0.8784 0.0
Tb1335 Tb 0.89703 0.14845 0.90948 0.0
Eu1336 Eu 0.8366 0.16349 0.92452 0.0
C1337 C 0.86525 0.14108 0.86362 0.0
O1338 O 0.85413 0.16065 0.87062 0.0
C1339 C 0.87464 0.20042 0.89814 0.0
O1340 O 0.84007 0.18075 0.9611 0.0
C1341 C 0.79216 0.15845 0.91126 0.0
C1342 C 0.85948 0.19341 0.96622 0.0
O1343 O 0.87685 0.19495 0.95027 0.0
C1344 C 0.86896 0.12812 0.95318 0.0
C1345 C 0.77062 0.14422 0.91713 0.0
C1346 C 0.75277 0.14097 0.89942 0.0
C1347 C 0.7303 0.13105 0.90559 0.0
C1348 C 0.72622 0.12382 0.92948 0.0
C1349 C 0.74341 0.12807 0.94749 0.0
C1350 C 0.76589 0.13761 0.94113 0.0
O1351 O 0.89349 0.18615 0.89996 0.0
O1352 O 0.85254 0.19446 0.90412 0.0
O1353 O 0.92802 0.12449 0.90393 0.0
O1354 O 0.93409 0.16178 0.90922 0.0
C1355 C 0.94442 0.14118 0.90535 0.0
O1356 O 0.85012 0.12814 0.93893 0.0
O1357 O 0.88828 0.14016 0.94685 0.0
O1358 O 0.79924 0.17369 0.92799 0.0
O1359 O 0.81004 0.14728 0.90032 0.0
H1360 H 0.75568 0.1478 0.88133 0.0
H1361 H 0.70832 0.11795 0.93473 0.0
H1362 H 0.77899 0.14149 0.95514 0.0
O1363 O 0.62113 0.35947 0.87816 0.0
Tb1364 Tb 0.60208 0.35205 0.9116 0.0
Eu1365 Eu 0.66338 0.3334 0.91938 0.0
C1366 C 0.61622 0.34525 0.85983 0.0
O1367 O 0.60105 0.32739 0.86315 0.0
C1368 C 0.62067 0.30081 0.90344 0.0
O1369 O 0.66371 0.30825 0.95142 0.0
C1370 C 0.70654 0.33828 0.90188 0.0
C1371 C 0.64389 0.30564 0.96416 0.0
O1372 O 0.62512 0.31895 0.95887 0.0
C1373 C 0.63494 0.37233 0.95389 0.0
C1374 C 0.72995 0.34845 0.90938 0.0
C1375 C 0.74685 0.35575 0.89182 0.0
C1376 C 0.77011 0.36317 0.8988 0.0
C1377 C 0.77636 0.36259 0.92327 0.0
C1378 C 0.76007 0.35469 0.94071 0.0
C1379 C 0.73661 0.34832 0.93391 0.0
O1380 O 0.60528 0.31357 0.91595 0.0
O1381 O 0.64026 0.31086 0.89485 0.0
O1382 O 0.57141 0.37605 0.9041 0.0
O1383 O 0.56515 0.33871 0.90884 0.0
C1384 C 0.55499 0.35927 0.90437 0.0
O1385 O 0.65501 0.36589 0.94276 0.0
O1386 O 0.61319 0.36675 0.94606 0.0
O1387 O 0.69933 0.31931 0.9141 0.0
O1388 O 0.68898 0.35352 0.89707 0.0
H1389 H 0.74219 0.35496 0.87285 0.0
H1390 H 0.79463 0.36699 0.92875 0.0
H1391 H 0.72407 0.34194 0.94749 0.0
C1392 C 0.08907 0.73779 0.09454 0.0
C1393 C 0.10186 0.72564 0.11267 0.0
H1394 H 0.08381 0.77065 0.07537 0.0
C1395 C 0.11988 0.73791 0.12557 0.0
H1396 H 0.075 0.72884 0.08437 0.0
C1397 C 0.12506 0.76199 0.12029 0.0
C1398 C 0.11205 0.77414 0.10228 0.0
H1399 H 0.13004 0.72889 0.13961 0.0
H1400 H 0.13902 0.77114 0.13045 0.0
C1401 C 0.09404 0.76181 0.08947 0.0
C1402 C 0.73549 0.12644 0.12176 0.0
C1403 C 0.72317 0.11397 0.10349 0.0
H1404 H 0.76893 0.13114 0.14065 0.0
C1405 C 0.73559 0.09685 0.0896 0.0
H1406 H 0.72629 0.13972 0.13273 0.0
C1407 C 0.75984 0.09216 0.09392 0.0
C1408 C 0.77216 0.10428 0.1124 0.0
H1409 H 0.72662 0.0871 0.07524 0.0
H1410 H 0.7688 0.07871 0.08295 0.0
C1411 C 0.75982 0.12149 0.12631 0.0
C1412 C 0.41293 0.76037 0.09413 0.0
C1413 C 0.39956 0.77287 0.1116 0.0
H1414 H 0.41828 0.72731 0.07526 0.0
C1415 C 0.38085 0.76097 0.12381 0.0
H1416 H 0.42756 0.76904 0.08452 0.0
C1417 C 0.37543 0.73699 0.1184 0.0
C1418 C 0.38884 0.72454 0.1009 0.0
H1419 H 0.37025 0.77023 0.13736 0.0
H1420 H 0.36085 0.72822 0.12796 0.0
C1421 C 0.40768 0.73642 0.0889 0.0
C1422 C 0.74662 0.39987 0.13134 0.0
C1423 C 0.72787 0.38842 0.11874 0.0
H1424 H 0.78483 0.40408 0.13529 0.0
C1425 C 0.73327 0.37086 0.10142 0.0
H1426 H 0.74278 0.41367 0.14462 0.0
C1427 C 0.75722 0.36497 0.09658 0.0
C1428 C 0.77599 0.37712 0.10848 0.0
H1429 H 0.71902 0.36188 0.09153 0.0
H1430 H 0.76108 0.35165 0.08282 0.0
C1431 C 0.77057 0.39451 0.12597 0.0
C1432 C 0.08808 0.76239 0.40571 0.0
C1433 C 0.10097 0.77464 0.38773 0.0
H1434 H 0.08305 0.72956 0.425 0.0
C1435 C 0.11931 0.76257 0.37512 0.0
H1436 H 0.07374 0.7712 0.41564 0.0
C1437 C 0.12476 0.7386 0.38061 0.0
C1438 C 0.11172 0.72638 0.39855 0.0
H1439 H 0.12955 0.77167 0.3612 0.0
H1440 H 0.13901 0.72963 0.37071 0.0
C1441 C 0.09332 0.73848 0.41099 0.0
C1442 C 0.76103 0.09201 0.41248 0.0
C1443 C 0.77322 0.11018 0.39983 0.0
H1444 H 0.72819 0.07261 0.41726 0.0
C1445 C 0.76111 0.12299 0.38165 0.0
H1446 H 0.76988 0.08192 0.42668 0.0
C1447 C 0.73714 0.11754 0.37613 0.0
C1448 C 0.72495 0.09945 0.38895 0.0
H1449 H 0.77016 0.13706 0.37159 0.0
H1450 H 0.72813 0.12762 0.36203 0.0
C1451 C 0.7371 0.08676 0.40717 0.0
C1452 C 0.37471 0.76337 0.38003 0.0
C1453 C 0.38746 0.77547 0.39828 0.0
H1454 H 0.37015 0.73038 0.36038 0.0
C1455 C 0.40564 0.76325 0.41094 0.0
H1456 H 0.36065 0.77243 0.36994 0.0
C1457 C 0.4109 0.73935 0.40563 0.0
C1458 C 0.39825 0.72718 0.3874 0.0
H1459 H 0.4157 0.77208 0.42517 0.0
H1460 H 0.42503 0.73045 0.41578 0.0
C1461 C 0.3802 0.7394 0.3745 0.0
C1462 C 0.73836 0.3726 0.37805 0.0
C1463 C 0.72649 0.38593 0.39601 0.0
H1464 H 0.77109 0.36746 0.35809 0.0
C1465 C 0.73885 0.40454 0.40788 0.0
H1466 H 0.72919 0.35818 0.36858 0.0
C1467 C 0.76265 0.40969 0.40204 0.0
C1468 C 0.77458 0.39648 0.38406 0.0
H1469 H 0.73022 0.41506 0.42189 0.0
H1470 H 0.77165 0.42418 0.41156 0.0
C1471 C 0.76225 0.37795 0.37199 0.0
C1472 C 0.12408 0.11959 0.74051 0.0
C1473 C 0.11144 0.10129 0.72838 0.0
H1474 H 0.12842 0.13931 0.77348 0.0
C1475 C 0.09337 0.0885 0.7406 0.0
H1476 H 0.13806 0.12976 0.73145 0.0
C1477 C 0.08801 0.09381 0.7645 0.0
C1478 C 0.10047 0.11216 0.77666 0.0
H1479 H 0.08342 0.0742 0.73176 0.0
H1480 H 0.07392 0.0836 0.77338 0.0
C1481 C 0.11851 0.1251 0.76447 0.0
C1482 C 0.37934 0.12683 0.74222 0.0
C1483 C 0.3966 0.11336 0.72951 0.0
H1484 H 0.35993 0.13126 0.77532 0.0
C1485 C 0.40765 0.09358 0.74079 0.0
H1486 H 0.37049 0.14213 0.73391 0.0
C1487 C 0.40172 0.08746 0.76438 0.0
C1488 C 0.3845 0.10089 0.77712 0.0
H1489 H 0.42107 0.08287 0.73148 0.0
H1490 H 0.41061 0.07213 0.77258 0.0
C1491 C 0.37323 0.12056 0.76584 0.0
C1492 C 0.37555 0.38055 0.7363 0.0
C1493 C 0.38805 0.39892 0.72418 0.0
H1494 H 0.37149 0.36064 0.76916 0.0
C1495 C 0.40626 0.41164 0.73631 0.0
H1496 H 0.36146 0.37043 0.72731 0.0
C1497 C 0.41185 0.40618 0.76014 0.0
C1498 C 0.39948 0.38776 0.77227 0.0
H1499 H 0.41612 0.42598 0.72747 0.0
H1500 H 0.42601 0.41632 0.76898 0.0
C1501 C 0.38133 0.3749 0.76017 0.0
C1502 C 0.12473 0.37913 0.76197 0.0
C1503 C 0.11148 0.39679 0.77437 0.0
H1504 H 0.1302 0.36056 0.7285 0.0
C1505 C 0.09347 0.40967 0.76213 0.0
H1506 H 0.1387 0.36892 0.77103 0.0
C1507 C 0.08881 0.40509 0.73791 0.0
C1508 C 0.10189 0.38735 0.72549 0.0
H1509 H 0.08307 0.4235 0.77118 0.0
H1510 H 0.07476 0.41532 0.72901 0.0
C1511 C 0.11984 0.37432 0.73771 0.0
C1512 C 0.87179 0.26809 0.89744 0.0
C1513 C 0.88937 0.2736 0.88017 0.0
H1514 H 0.85293 0.24018 0.91621 0.0
C1515 C 0.9012 0.2549 0.86784 0.0
H1516 H 0.86251 0.28227 0.90713 0.0
C1517 C 0.89617 0.23094 0.87338 0.0
C1518 C 0.87876 0.22542 0.89081 0.0
H1519 H 0.91504 0.2588 0.85461 0.0
H1520 H 0.906 0.21675 0.86424 0.0
C1521 C 0.86627 0.24411 0.90248 0.0
C1522 C 0.24197 0.91211 0.90512 0.0
C1523 C 0.22889 0.89926 0.88769 0.0
H1524 H 0.27578 0.91708 0.92282 0.0
C1525 C 0.24042 0.88109 0.87437 0.0
H1526 H 0.23357 0.92634 0.91551 0.0
C1527 C 0.26462 0.87565 0.87866 0.0
C1528 C 0.2777 0.88853 0.8961 0.0
H1529 H 0.2307 0.8709 0.86083 0.0
H1530 H 0.27306 0.86142 0.8683 0.0
C1531 C 0.2662 0.9069 0.90918 0.0
C1532 C 0.621 0.23862 0.87542 0.0
C1533 C 0.60324 0.22698 0.88924 0.0
H1534 H 0.64068 0.27131 0.8692 0.0
C1535 C 0.59168 0.23968 0.90782 0.0
H1536 H 0.63024 0.22921 0.86102 0.0
C1537 C 0.59749 0.26363 0.91234 0.0
C1538 C 0.61513 0.27537 0.89851 0.0
H1539 H 0.57786 0.23124 0.91874 0.0
H1540 H 0.58815 0.27291 0.92676 0.0
C1541 C 0.62702 0.26264 0.88013 0.0
C1542 C 0.26168 0.61919 0.87383 0.0
C1543 C 0.27386 0.6007 0.88612 0.0
H1544 H 0.22877 0.63909 0.8701 0.0
C1545 C 0.2618 0.58772 0.90416 0.0
H1546 H 0.27064 0.6295 0.85988 0.0
C1547 C 0.23799 0.59305 0.90986 0.0
C1548 C 0.2258 0.61162 0.89777 0.0
H1549 H 0.27068 0.57326 0.91384 0.0
H1550 H 0.22923 0.58271 0.92392 0.0
C1551 C 0.23782 0.62473 0.87974 0.0
C1552 C 0.90632 0.26101 0.59043 0.0
C1553 C 0.88783 0.27366 0.60216 0.0
H1554 H 0.92559 0.22796 0.58703 0.0
C1555 C 0.87444 0.26211 0.62031 0.0
H1556 H 0.9169 0.26939 0.57631 0.0
C1557 C 0.87955 0.23825 0.62659 0.0
C1558 C 0.89788 0.22558 0.61457 0.0
H1559 H 0.86013 0.27151 0.6297 0.0
H1560 H 0.86897 0.22965 0.64058 0.0
C1561 C 0.91123 0.23721 0.59649 0.0
C1562 C 0.23861 0.87487 0.62073 0.0
C1563 C 0.22644 0.88778 0.60264 0.0
H1564 H 0.27159 0.87033 0.64042 0.0
C1565 C 0.23854 0.9062 0.59026 0.0
H1566 H 0.22963 0.86061 0.63059 0.0
C1567 C 0.26238 0.9116 0.59573 0.0
C1568 C 0.2746 0.89883 0.61384 0.0
H1569 H 0.22966 0.91638 0.57615 0.0
H1570 H 0.27117 0.92595 0.58582 0.0
C1571 C 0.26253 0.88047 0.62641 0.0
C1572 C 0.62375 0.23711 0.61931 0.0
C1573 C 0.61089 0.22489 0.60124 0.0
H1574 H 0.62857 0.27024 0.63853 0.0
C1575 C 0.59289 0.23708 0.58831 0.0
H1576 H 0.63769 0.22806 0.62957 0.0
C1577 C 0.58782 0.2611 0.59328 0.0
C1578 C 0.60052 0.27333 0.61143 0.0
H1579 H 0.58278 0.22814 0.57418 0.0
H1580 H 0.57378 0.27 0.58302 0.0
C1581 C 0.61848 0.26116 0.62448 0.0
C1582 C 0.24041 0.58727 0.59852 0.0
C1583 C 0.2268 0.6009 0.61491 0.0
H1584 H 0.27439 0.58246 0.5811 0.0
C1585 C 0.23753 0.62044 0.62686 0.0
H1586 H 0.23257 0.57198 0.58924 0.0
C1587 C 0.26143 0.62661 0.62203 0.0
C1588 C 0.275 0.61304 0.60551 0.0
H1589 H 0.22734 0.63123 0.63956 0.0
H1590 H 0.26927 0.64196 0.63121 0.0
C1591 C 0.26437 0.59317 0.594 0.0
C1592 C 0.90666 0.90683 0.23321 0.0
C1593 C 0.89496 0.88727 0.22223 0.0
H1594 H 0.91146 0.92759 0.26533 0.0
C1595 C 0.87829 0.87368 0.2356 0.0
H1596 H 0.91966 0.91758 0.22338 0.0
C1597 C 0.87344 0.87955 0.25958 0.0
C1598 C 0.88548 0.89886 0.27063 0.0
H1599 H 0.86896 0.85854 0.22754 0.0
H1600 H 0.86058 0.86876 0.26955 0.0
C1601 C 0.90208 0.91247 0.25726 0.0
C1602 C 0.61942 0.87358 0.25816 0.0
C1603 C 0.60177 0.88694 0.27046 0.0
H1604 H 0.63902 0.86876 0.22519 0.0
C1605 C 0.59026 0.90612 0.25865 0.0
H1606 H 0.62864 0.85876 0.26691 0.0
C1607 C 0.59606 0.91171 0.23491 0.0
C1608 C 0.61362 0.89836 0.22254 0.0
H1609 H 0.57653 0.91672 0.26763 0.0
H1610 H 0.58677 0.92657 0.22629 0.0
C1611 C 0.62543 0.87936 0.23438 0.0
C1612 C 0.58874 0.59287 0.23734 0.0
C1613 C 0.60177 0.61075 0.22509 0.0
H1614 H 0.58297 0.57423 0.27047 0.0
C1615 C 0.61948 0.62393 0.23749 0.0
H1616 H 0.57485 0.58254 0.22828 0.0
C1617 C 0.62426 0.61904 0.26175 0.0
C1618 C 0.61113 0.60117 0.27396 0.0
H1619 H 0.62979 0.63781 0.22842 0.0
H1620 H 0.63808 0.62932 0.27096 0.0
C1621 C 0.59329 0.58821 0.26156 0.0
C1622 C 0.88058 0.6239 0.25808 0.0
C1623 C 0.89864 0.61109 0.27039 0.0
H1624 H 0.86086 0.62811 0.22507 0.0
C1625 C 0.91095 0.59249 0.25846 0.0
H1626 H 0.87077 0.63829 0.26691 0.0
C1627 C 0.90543 0.5868 0.23468 0.0
C1628 C 0.88733 0.59946 0.22234 0.0
H1629 H 0.92504 0.58236 0.26744 0.0
H1630 H 0.91527 0.57232 0.22603 0.0
C1631 C 0.87486 0.61802 0.23423 0.0
C1632 C 0.1011 0.65756 0.01138 0.0
C1633 C 0.10052 0.63772 0.02708 0.0
H1634 H 0.11032 0.67074 0.97634 0.0
C1635 C 0.10714 0.61494 0.01841 0.0
H1636 H 0.09599 0.67535 0.01762 0.0
C1637 C 0.11521 0.61222 0.99468 0.0
C1638 C 0.11694 0.63229 0.97922 0.0
H1639 H 0.10677 0.59935 0.03016 0.0
H1640 H 0.12098 0.59453 0.9888 0.0
C1641 C 0.10928 0.6549 0.9877 0.0
C1642 C 0.88315 0.11304 0.01859 0.0
C1643 C 0.8615 0.10241 0.02624 0.0
H1644 H 0.90261 0.12935 0.98947 0.0
C1645 C 0.84284 0.09912 0.0094 0.0
H1646 H 0.89781 0.11582 0.0312 0.0
C1647 C 0.84553 0.10682 0.98553 0.0
C1648 C 0.86696 0.11802 0.97793 0.0
H1649 H 0.82593 0.09097 0.01479 0.0
H1650 H 0.83057 0.10443 0.97319 0.0
C1651 C 0.88587 0.12076 0.99467 0.0
C1652 C 0.39103 0.88471 0.98964 0.0
C1653 C 0.38558 0.86477 0.97489 0.0
H1654 H 0.40192 0.89716 0.0246 0.0
C1655 C 0.38865 0.84146 0.98436 0.0
H1656 H 0.38894 0.90292 0.98296 0.0
C1657 C 0.39599 0.83823 0.00831 0.0
C1658 C 0.40052 0.85821 0.02323 0.0
H1659 H 0.38449 0.82571 0.97359 0.0
H1660 H 0.39749 0.82008 0.01534 0.0
C1661 C 0.39847 0.88145 0.01353 0.0
C1662 C 0.61884 0.39482 0.01645 0.0
C1663 C 0.64168 0.3996 0.02619 0.0
H1664 H 0.59868 0.38288 0.98583 0.0
C1665 C 0.66205 0.39788 0.01124 0.0
H1666 H 0.60284 0.39609 0.02759 0.0
C1667 C 0.65976 0.39025 0.98731 0.0
C1668 C 0.63702 0.38426 0.97779 0.0
H1669 H 0.6799 0.40155 0.01828 0.0
H1670 H 0.67595 0.3882 0.97658 0.0
C1671 C 0.61651 0.38731 0.99248 0.0
C1672 C 0.11399 0.88703 0.50656 0.0
C1673 C 0.11646 0.86676 0.52167 0.0
H1674 H 0.10456 0.90028 0.47144 0.0
C1675 C 0.10905 0.84414 0.51295 0.0
H1676 H 0.11956 0.90473 0.51261 0.0
C1677 C 0.10041 0.84169 0.48939 0.0
C1678 C 0.0991 0.86175 0.474 0.0
H1679 H 0.11063 0.82814 0.52403 0.0
H1680 H 0.09554 0.82391 0.48297 0.0
C1681 C 0.10546 0.88452 0.48293 0.0
C1682 C 0.65653 0.09804 0.49014 0.0
C1683 C 0.63668 0.09732 0.47443 0.0
H1684 H 0.66978 0.10775 0.52503 0.0
C1685 C 0.6139 0.1041 0.48302 0.0
H1686 H 0.67432 0.09281 0.48398 0.0
C1687 C 0.61121 0.11254 0.50665 0.0
C1688 C 0.63133 0.11449 0.52205 0.0
H1689 H 0.5983 0.10364 0.47126 0.0
H1690 H 0.59354 0.11849 0.51244 0.0
C1691 C 0.65391 0.10658 0.51369 0.0
C1692 C 0.39625 0.66016 0.48996 0.0
C1693 C 0.397 0.64014 0.47448 0.0
H1694 H 0.38733 0.67367 0.52497 0.0
C1695 C 0.39037 0.61745 0.48344 0.0
H1696 H 0.40129 0.67789 0.48353 0.0
C1697 C 0.38242 0.61496 0.5073 0.0
C1698 C 0.38089 0.63515 0.52263 0.0
H1699 H 0.39079 0.60172 0.47188 0.0
H1700 H 0.37682 0.59731 0.51347 0.0
C1701 C 0.38826 0.65772 0.51375 0.0
C1702 C 0.84189 0.39669 0.48495 0.0
C1703 C 0.86193 0.39783 0.4695 0.0
H1704 H 0.82845 0.38703 0.5198 0.0
C1705 C 0.88475 0.39165 0.47848 0.0
H1706 H 0.82407 0.40142 0.4785 0.0
C1707 C 0.88733 0.38353 0.50223 0.0
C1708 C 0.8671 0.3813 0.51745 0.0
H1709 H 0.90049 0.39243 0.46695 0.0
H1710 H 0.90509 0.37815 0.50833 0.0
C1711 C 0.84442 0.38846 0.50865 0.0
C1712 C 0.99236 0.11372 0.61626 0.0
C1713 C 0.97735 0.11624 0.63661 0.0
H1714 H 0.02748 0.10454 0.60288 0.0
C1715 C 0.98628 0.1092 0.65927 0.0
H1716 H 0.98615 0.119 0.59851 0.0
C1717 C 0.00995 0.10087 0.66168 0.0
C1718 C 0.02521 0.09951 0.64152 0.0
H1719 H 0.97529 0.11084 0.67533 0.0
H1720 H 0.01653 0.09626 0.67949 0.0
C1721 C 0.01609 0.10551 0.61871 0.0
C1722 C 0.38549 0.99591 0.61606 0.0
C1723 C 0.38168 0.98101 0.63626 0.0
H1724 H 0.39523 0.03105 0.60318 0.0
C1725 C 0.38669 0.9902 0.65936 0.0
H1726 H 0.38181 0.98947 0.59799 0.0
C1727 C 0.39433 0.014 0.66224 0.0
C1728 C 0.39711 0.0291 0.64212 0.0
H1729 H 0.38394 0.97932 0.67534 0.0
H1730 H 0.39739 0.02076 0.68031 0.0
C1731 C 0.39311 0.01976 0.61898 0.0
C1732 C 0.48185 0.3942 0.61408 0.0
C1733 C 0.47303 0.40098 0.63678 0.0
H1734 H 0.51142 0.37976 0.59402 0.0
C1735 C 0.48848 0.40007 0.65683 0.0
H1736 H 0.4703 0.39481 0.59833 0.0
C1737 C 0.51201 0.39138 0.65447 0.0
C1738 C 0.52061 0.38354 0.63195 0.0
H1739 H 0.48213 0.40527 0.67456 0.0
H1740 H 0.52315 0.39008 0.67047 0.0
C1741 C 0.50545 0.38565 0.61166 0.0
C1742 C 0.11584 0.50519 0.61201 0.0
C1743 C 0.11635 0.52087 0.63199 0.0
H1744 H 0.10824 0.46957 0.59908 0.0
C1745 C 0.10722 0.51272 0.65418 0.0
H1746 H 0.12277 0.51082 0.59465 0.0
C1747 C 0.09883 0.48912 0.65661 0.0
C1748 C 0.09954 0.47317 0.63696 0.0
H1749 H 0.10728 0.5243 0.66992 0.0
H1750 H 0.0926 0.48312 0.67412 0.0
C1751 C 0.1076 0.48152 0.61452 0.0
C1752 C 0.01726 0.38616 0.88532 0.0
C1753 C 0.02533 0.39581 0.86335 0.0
H1754 H 0.9878 0.37049 0.90483 0.0
C1755 C 0.00893 0.39806 0.84417 0.0
H1756 H 0.02955 0.3842 0.90038 0.0
C1757 C 0.98509 0.39028 0.84666 0.0
C1758 C 0.97706 0.38002 0.86841 0.0
H1759 H 0.01464 0.40544 0.82701 0.0
H1760 H 0.97311 0.39186 0.83131 0.0
C1761 C 0.99335 0.37834 0.88783 0.0
C1762 C 0.11532 0.99418 0.88895 0.0
C1763 C 0.11784 0.97913 0.86864 0.0
H1764 H 0.10546 0.02912 0.90232 0.0
C1765 C 0.11017 0.98774 0.84606 0.0
H1766 H 0.12106 0.9882 0.90663 0.0
C1767 C 0.10121 0.01116 0.84368 0.0
C1768 C 0.0998 0.0265 0.86379 0.0
H1769 H 0.11179 0.97671 0.83002 0.0
H1770 H 0.09613 0.01751 0.82592 0.0
C1771 C 0.10643 0.01766 0.88653 0.0
C1772 C 0.48116 0.10473 0.885 0.0
C1773 C 0.47189 0.10013 0.86193 0.0
H1774 H 0.51092 0.11767 0.9058 0.0
C1775 C 0.48681 0.10341 0.84174 0.0
H1776 H 0.47004 0.10228 0.90087 0.0
C1777 C 0.51026 0.11224 0.84448 0.0
C1778 C 0.51926 0.11797 0.86751 0.0
H1779 H 0.4801 0.09992 0.82372 0.0
H1780 H 0.52098 0.11538 0.82846 0.0
C1781 C 0.50462 0.11354 0.88778 0.0
C1782 C 0.38583 0.50512 0.88495 0.0
C1783 C 0.38342 0.52025 0.86468 0.0
H1784 H 0.39527 0.47004 0.89815 0.0
C1785 C 0.39096 0.51167 0.84205 0.0
H1786 H 0.38019 0.51108 0.90267 0.0
C1787 C 0.39967 0.48818 0.83958 0.0
C1788 C 0.40089 0.47276 0.85963 0.0
H1789 H 0.38942 0.52279 0.82608 0.0
H1790 H 0.40464 0.48182 0.82179 0.0
C1791 C 0.39441 0.48157 0.88241 0.0
C1792 C 0.6114 0.99197 0.11284 0.0
C1793 C 0.63169 0.97677 0.11448 0.0
H1794 H 0.59803 0.02749 0.10555 0.0
C1795 C 0.65438 0.98602 0.10798 0.0
H1796 H 0.59361 0.98551 0.11766 0.0
C1797 C 0.65682 0.01014 0.10101 0.0
C1798 C 0.63666 0.02548 0.10045 0.0
H1799 H 0.6704 0.97491 0.1091 0.0
H1800 H 0.67463 0.01695 0.09678 0.0
C1801 C 0.61387 0.01607 0.10595 0.0
C1802 C 0.65889 0.48836 0.39836 0.0
C1803 C 0.639 0.47279 0.39994 0.0
H1804 H 0.67182 0.5233 0.38852 0.0
C1805 C 0.61594 0.48164 0.39453 0.0
H1806 H 0.67689 0.482 0.40253 0.0
C1807 C 0.61297 0.50539 0.38662 0.0
C1808 C 0.63303 0.52071 0.38387 0.0
H1809 H 0.6003 0.47 0.39569 0.0
H1810 H 0.59503 0.51138 0.38176 0.0
C1811 C 0.65596 0.51207 0.39037 0.0
C1812 C 0.01728 0.61532 0.39257 0.0
C1813 C 0.02585 0.63822 0.39897 0.0
H1814 H 0.98799 0.59468 0.37831 0.0
C1815 C 0.0102 0.65806 0.39752 0.0
H1816 H 0.02898 0.59972 0.39358 0.0
C1817 C 0.98673 0.65527 0.38875 0.0
C1818 C 0.97837 0.63253 0.38131 0.0
H1819 H 0.01633 0.67594 0.40242 0.0
H1820 H 0.97544 0.67112 0.38707 0.0
C1821 C 0.99375 0.61248 0.38389 0.0
C1822 C 0.88385 0.01687 0.39329 0.0
C1823 C 0.86119 0.02534 0.40059 0.0
H1824 H 0.90397 0.98779 0.37797 0.0
C1825 C 0.84129 0.00971 0.39971 0.0
H1826 H 0.89949 0.02856 0.39385 0.0
C1827 C 0.84375 0.98638 0.39055 0.0
C1828 C 0.86622 0.97815 0.38218 0.0
H1829 H 0.82359 0.01578 0.40531 0.0
H1830 H 0.82785 0.9751 0.38931 0.0
C1831 C 0.88638 0.99347 0.38425 0.0
C1832 C 0.48193 0.88444 0.39182 0.0
C1833 C 0.47303 0.8619 0.39895 0.0
H1834 H 0.51142 0.9041 0.37672 0.0
C1835 C 0.48827 0.84171 0.39788 0.0
H1836 H 0.47055 0.90029 0.39253 0.0
C1837 C 0.51165 0.84378 0.38873 0.0
C1838 C 0.52032 0.86615 0.3806 0.0
H1839 H 0.48184 0.8241 0.40333 0.0
H1840 H 0.52263 0.8277 0.38736 0.0
C1841 C 0.50539 0.88657 0.38282 0.0
C1842 C 0.88736 0.50264 0.11088 0.0
C1843 C 0.86679 0.51726 0.1138 0.0
H1844 H 0.90119 0.46758 0.10224 0.0
C1845 C 0.8441 0.50765 0.10779 0.0
H1846 H 0.90515 0.50937 0.11532 0.0
C1847 C 0.84193 0.4837 0.10026 0.0
C1848 C 0.86235 0.46882 0.09863 0.0
H1849 H 0.82786 0.51831 0.10975 0.0
H1850 H 0.82411 0.47659 0.09657 0.0
C1851 C 0.88515 0.47865 0.10343 0.0
C1852 C 0.01433 0.88337 0.10566 0.0
C1853 C 0.02379 0.86042 0.10093 0.0
H1854 H 0.98378 0.90396 0.11706 0.0
C1855 C 0.00859 0.84024 0.10287 0.0
H1856 H 0.02563 0.89922 0.10426 0.0
C1857 C 0.98457 0.84288 0.11017 0.0
C1858 C 0.97524 0.86578 0.1157 0.0
H1859 H 0.01542 0.8223 0.0993 0.0
H1860 H 0.97358 0.82687 0.11216 0.0
C1861 C 0.99031 0.88603 0.11297 0.0
C1862 C 0.51318 0.65228 0.10771 0.0
C1863 C 0.52134 0.62981 0.11611 0.0
H1864 H 0.48363 0.67273 0.09367 0.0
C1865 C 0.5056 0.60992 0.11499 0.0
H1866 H 0.52477 0.66798 0.10824 0.0
C1867 C 0.4819 0.61273 0.10673 0.0
C1868 C 0.47358 0.63542 0.09933 0.0
H1869 H 0.51122 0.59236 0.12138 0.0
H1870 H 0.46991 0.59732 0.10684 0.0
C1871 C 0.48958 0.65503 0.09936 0.0
C1872 C 0.87999 0.38516 0.00462 0.0
C1873 C 0.88159 0.36534 0.0204 0.0
H1874 H 0.88535 0.39847 0.96866 0.0
C1875 C 0.89137 0.34364 0.01166 0.0
H1876 H 0.87256 0.40215 0.01072 0.0
C1877 C 0.89865 0.34159 0.98759 0.0
C1878 C 0.89638 0.36118 0.97171 0.0
H1879 H 0.89286 0.32799 0.02324 0.0
H1880 H 0.90556 0.32445 0.98128 0.0
C1881 C 0.88732 0.38309 0.98053 0.0
C1882 C 0.11224 0.88382 0.00564 0.0
C1883 C 0.1317 0.88286 0.02193 0.0
H1884 H 0.10056 0.89189 0.96964 0.0
C1885 C 0.15437 0.89136 0.01439 0.0
H1886 H 0.09455 0.87736 0.01078 0.0
C1887 C 0.15772 0.89969 0.99086 0.0
C1888 C 0.13853 0.89961 0.97434 0.0
H1889 H 0.16976 0.89093 0.02641 0.0
H1890 H 0.17555 0.90548 0.98539 0.0
C1891 C 0.11565 0.89207 0.98204 0.0
C1892 C 0.60505 0.15634 0.01555 0.0
C1893 C 0.61279 0.13369 0.02388 0.0
H1894 H 0.59167 0.17696 0.98575 0.0
C1895 C 0.61103 0.11372 0.00828 0.0
H1896 H 0.60611 0.17211 0.02701 0.0
C1897 C 0.60292 0.11659 0.98455 0.0
C1898 C 0.59624 0.13941 0.97602 0.0
H1899 H 0.61686 0.096 0.01401 0.0
H1900 H 0.60258 0.10107 0.9727 0.0
C1901 C 0.5968 0.15914 0.99188 0.0
C1902 C 0.34128 0.60033 0.98726 0.0
C1903 C 0.3613 0.59902 0.97181 0.0
H1904 H 0.32795 0.6101 0.0221 0.0
C1905 C 0.38419 0.60493 0.98078 0.0
H1906 H 0.32341 0.59579 0.98081 0.0
C1907 C 0.38686 0.61301 0.00455 0.0
C1908 C 0.36665 0.61546 0.01974 0.0
H1909 H 0.39992 0.604 0.96924 0.0
H1910 H 0.40467 0.61823 0.01064 0.0
C1911 C 0.34391 0.60851 0.01096 0.0
C1912 C 0.89237 0.11466 0.52037 0.0
C1913 C 0.89814 0.13756 0.52938 0.0
H1914 H 0.87932 0.09413 0.49042 0.0
C1915 C 0.89684 0.15754 0.5139 0.0
H1916 H 0.89329 0.09895 0.53193 0.0
C1917 C 0.88884 0.15488 0.49014 0.0
C1918 C 0.88203 0.13212 0.48131 0.0
H1919 H 0.90128 0.17543 0.52036 0.0
H1920 H 0.88726 0.17082 0.47899 0.0
C1921 C 0.88445 0.11194 0.49654 0.0
C1922 C 0.34414 0.89251 0.48847 0.0
C1923 C 0.3668 0.88536 0.47961 0.0
H1924 H 0.32387 0.90552 0.51864 0.0
C1925 C 0.3871 0.88782 0.49471 0.0
H1926 H 0.32811 0.89092 0.47742 0.0
C1927 C 0.38459 0.89608 0.51845 0.0
C1928 C 0.36178 0.90216 0.52751 0.0
H1929 H 0.40484 0.88246 0.48856 0.0
H1930 H 0.40038 0.89698 0.52992 0.0
C1931 C 0.34168 0.90085 0.51214 0.0
C1932 C 0.60674 0.38369 0.51723 0.0
C1933 C 0.6 0.36093 0.52586 0.0
H1934 H 0.6211 0.40399 0.48782 0.0
C1935 C 0.60088 0.34102 0.51025 0.0
H1936 H 0.60615 0.39932 0.52892 0.0
C1937 C 0.60949 0.34359 0.48672 0.0
C1938 C 0.6173 0.36618 0.47832 0.0
H1939 H 0.59569 0.32326 0.51647 0.0
H1940 H 0.61075 0.32771 0.47543 0.0
C1941 C 0.61526 0.38631 0.49366 0.0
C1942 C 0.11285 0.61512 0.49471 0.0
C1943 C 0.13278 0.61709 0.47909 0.0
H1944 H 0.10037 0.60635 0.53025 0.0
C1945 C 0.15555 0.60959 0.48735 0.0
H1946 H 0.09505 0.62077 0.489 0.0
C1947 C 0.15851 0.60133 0.51096 0.0
C1948 C 0.1388 0.60047 0.52682 0.0
H1949 H 0.17129 0.61082 0.47586 0.0
H1950 H 0.1764 0.59635 0.51702 0.0
C1951 C 0.11586 0.60693 0.51838 0.0
C1952 C 0.9885 0.89948 0.34015 0.0
C1953 C 0.97242 0.90008 0.35968 0.0
H1954 H 0.02376 0.89019 0.32766 0.0
C1955 C 0.98062 0.89341 0.38266 0.0
H1956 H 0.98263 0.9046 0.32223 0.0
C1957 C 0.00428 0.88528 0.38586 0.0
C1958 C 0.02012 0.88352 0.36608 0.0
H1959 H 0.96857 0.8938 0.39802 0.0
H1960 H 0.0098 0.87946 0.40367 0.0
C1961 C 0.0121 0.89124 0.34329 0.0
C1962 C 0.60858 0.01097 0.34355 0.0
C1963 C 0.61585 0.01903 0.36647 0.0
H1964 H 0.59578 0.98145 0.32227 0.0
C1965 C 0.61386 0.00321 0.38622 0.0
H1966 H 0.60983 0.02263 0.32793 0.0
C1967 C 0.60593 0.97951 0.38289 0.0
C1968 C 0.59973 0.97128 0.35981 0.0
H1969 H 0.61934 0.00876 0.40413 0.0
H1970 H 0.60535 0.96747 0.39825 0.0
C1971 C 0.60057 0.98735 0.34028 0.0
C1972 C 0.51729 0.60773 0.38576 0.0
C1973 C 0.52544 0.5997 0.36321 0.0
H1974 H 0.48822 0.62305 0.40594 0.0
C1975 C 0.50933 0.59932 0.34367 0.0
H1976 H 0.52936 0.60815 0.40112 0.0
C1977 C 0.48579 0.60791 0.34632 0.0
C1978 C 0.47784 0.61693 0.36864 0.0
H1979 H 0.51515 0.59315 0.32607 0.0
H1980 H 0.47411 0.60815 0.33066 0.0
C1981 C 0.49368 0.61618 0.38849 0.0
C1982 C 0.89901 0.50975 0.33724 0.0
C1983 C 0.90016 0.52509 0.35737 0.0
H1984 H 0.88923 0.47504 0.3236 0.0
C1985 C 0.89396 0.51602 0.38014 0.0
H1986 H 0.90376 0.51628 0.31946 0.0
C1987 C 0.88579 0.49228 0.38259 0.0
C1988 C 0.88349 0.47721 0.36227 0.0
H1989 H 0.89475 0.52746 0.39595 0.0
H1990 H 0.88036 0.48612 0.40031 0.0
C1991 C 0.8907 0.48609 0.33964 0.0
C1992 C 0.01199 0.60812 0.15535 0.0
C1993 C 0.02116 0.61536 0.13285 0.0
H1994 H 0.98167 0.59455 0.17501 0.0
C1995 C 0.00654 0.61256 0.11224 0.0
H1996 H 0.02269 0.60996 0.17159 0.0
C1997 C 0.98294 0.60387 0.11427 0.0
C1998 C 0.97356 0.59766 0.13689 0.0
H1999 H 0.01294 0.61797 0.0946 0.0
H2000 H 0.97184 0.60271 0.09823 0.0
C2001 C 0.98846 0.5993 0.15732 0.0
C2002 C 0.89727 0.98452 0.11589 0.0
C2003 C 0.89673 0.97313 0.13847 0.0
H2004 H 0.88892 0.01636 0.09567 0.0
C2005 C 0.88934 0.98629 0.15878 0.0
H2006 H 0.90292 0.97473 0.09996 0.0
C2007 C 0.88163 0.01013 0.15645 0.0
C2008 C 0.88083 0.02123 0.13367 0.0
H2009 H 0.88887 0.97795 0.17644 0.0
H2010 H 0.87524 0.01943 0.1724 0.0
C2011 C 0.88924 0.00833 0.11347 0.0
C2012 C 0.48641 0.88632 0.15516 0.0
C2013 C 0.47688 0.88249 0.13197 0.0
H2014 H 0.5174 0.89595 0.17618 0.0
C2015 C 0.49145 0.88752 0.1118 0.0
H2016 H 0.47578 0.88249 0.1711 0.0
C2017 C 0.51528 0.89526 0.11475 0.0
C2018 C 0.52508 0.89798 0.13791 0.0
H2019 H 0.48469 0.88483 0.09367 0.0
H2020 H 0.52625 0.89835 0.09889 0.0
C2021 C 0.5103 0.89391 0.15809 0.0
C2022 C 0.61402 0.51649 0.11392 0.0
C2023 C 0.60464 0.5244 0.13607 0.0
H2024 H 0.62982 0.48731 0.09411 0.0
C2025 C 0.60301 0.50799 0.15528 0.0
H2026 H 0.61552 0.52879 0.09883 0.0
C2027 C 0.6111 0.48427 0.15262 0.0
C2028 C 0.6211 0.47642 0.13068 0.0
H2029 H 0.59584 0.51358 0.17257 0.0
H2030 H 0.60998 0.47228 0.16798 0.0
C2031 C 0.62221 0.49273 0.11126 0.0
C2032 C 0.33857 0.99009 0.89835 0.0
C2033 C 0.35904 0.97661 0.90476 0.0
H2034 H 0.32489 0.02359 0.88494 0.0
C2035 C 0.38167 0.98788 0.90497 0.0
H2036 H 0.32088 0.98181 0.89814 0.0
C2037 C 0.38402 0.01175 0.89724 0.0
C2038 C 0.36372 0.02485 0.88946 0.0
H2039 H 0.39772 0.97789 0.90989 0.0
H2040 H 0.40188 0.01961 0.89644 0.0
C2041 C 0.34086 0.01406 0.89092 0.0
C2042 C 0.34237 0.49091 0.61352 0.0
C2043 C 0.36523 0.48009 0.61525 0.0
H2044 H 0.32236 0.52303 0.60623 0.0
C2045 C 0.38566 0.49349 0.6083 0.0
H2046 H 0.32623 0.48122 0.61871 0.0
C2047 C 0.38336 0.51754 0.60101 0.0
C2048 C 0.36064 0.52862 0.60076 0.0
H2049 H 0.40354 0.48572 0.60935 0.0
H2050 H 0.39942 0.52772 0.59659 0.0
C2051 C 0.34014 0.51494 0.60647 0.0
C2052 C 0.983 0.38345 0.60275 0.0
C2053 C 0.97421 0.36055 0.59672 0.0
H2054 H 0.01248 0.40401 0.61664 0.0
C2055 C 0.98969 0.34058 0.59831 0.0
H2056 H 0.97143 0.39914 0.6016 0.0
C2057 C 0.0132 0.34327 0.607 0.0
C2058 C 0.02174 0.36603 0.61415 0.0
H2059 H 0.98336 0.3227 0.59368 0.0
H2060 H 0.02435 0.32736 0.60889 0.0
C2061 C 0.00657 0.38619 0.6113 0.0
C2062 C 0.11247 0.00527 0.61653 0.0
C2063 C 0.13245 0.02085 0.61835 0.0
H2064 H 0.09979 0.96982 0.60772 0.0
C2065 C 0.15508 0.01261 0.61043 0.0
H2066 H 0.09477 0.01094 0.62251 0.0
C2067 C 0.15786 0.98907 0.60191 0.0
C2068 C 0.13812 0.97323 0.60124 0.0
H2069 H 0.17086 0.02407 0.61151 0.0
H2070 H 0.17566 0.98303 0.59661 0.0
C2071 C 0.11531 0.98167 0.60813 0.0
C2072 C 0.50953 0.15838 0.60265 0.0
C2073 C 0.52483 0.13822 0.60182 0.0
H2074 H 0.47502 0.17234 0.61268 0.0
C2075 C 0.51589 0.11568 0.6089 0.0
H2076 H 0.51597 0.17599 0.59721 0.0
C2077 C 0.49234 0.11351 0.61765 0.0
C2078 C 0.47734 0.13391 0.61961 0.0
H2079 H 0.52733 0.09986 0.60838 0.0
H2080 H 0.48627 0.096 0.62375 0.0
C2081 C 0.48605 0.15627 0.6115 0.0
C2082 C 0.11199 0.49305 0.88551 0.0
C2083 C 0.13203 0.47757 0.88346 0.0
H2084 H 0.09928 0.52852 0.89426 0.0
C2085 C 0.15477 0.48606 0.89079 0.0
H2086 H 0.09421 0.48719 0.87999 0.0
C2087 C 0.15759 0.50971 0.89898 0.0
C2088 C 0.13777 0.52543 0.89994 0.0
H2089 H 0.1706 0.4747 0.88951 0.0
H2090 H 0.17547 0.51591 0.90383 0.0
C2091 C 0.11486 0.51677 0.89362 0.0
C2092 C 0.00357 0.11261 0.88738 0.0
C2093 C 0.01862 0.13292 0.88508 0.0
H2094 H 0.96821 0.09932 0.89561 0.0
C2095 C 0.00954 0.15562 0.89177 0.0
H2096 H 0.0099 0.09483 0.88241 0.0
C2097 C 0.98565 0.1581 0.89938 0.0
C2098 C 0.97034 0.13797 0.90038 0.0
H2099 H 0.02058 0.17165 0.89029 0.0
H2100 H 0.97892 0.17593 0.90361 0.0
C2101 C 0.97964 0.11513 0.89489 0.0
C2102 C 0.49039 0.34426 0.88856 0.0
C2103 C 0.4812 0.36684 0.88163 0.0
H2104 H 0.52087 0.32429 0.90132 0.0
C2105 C 0.49606 0.38729 0.88415 0.0
H2106 H 0.47954 0.32811 0.88691 0.0
C2107 C 0.51987 0.38502 0.89228 0.0
C2108 C 0.52924 0.36231 0.8982 0.0
H2109 H 0.48967 0.40498 0.87893 0.0
H2110 H 0.53113 0.40094 0.89326 0.0
C2111 C 0.51412 0.34204 0.89679 0.0
C2112 C 0.17159 0.62544 0.11838 0.0
C2113 C 0.16362 0.64932 0.12062 0.0
H2114 H 0.20156 0.6026 0.10976 0.0
C2115 C 0.1807 0.66784 0.12305 0.0
H2116 H 0.15875 0.61086 0.11641 0.0
C2117 C 0.20518 0.66308 0.11968 0.0
C2118 C 0.21277 0.6398 0.11334 0.0
H2119 H 0.17491 0.6864 0.12496 0.0
H2120 H 0.21757 0.67815 0.11873 0.0
C2121 C 0.19611 0.6207 0.11463 0.0
C2122 C 0.8861 0.19087 0.12058 0.0
C2123 C 0.86857 0.20917 0.11927 0.0
H2124 H 0.89231 0.15277 0.12123 0.0
C2125 C 0.84478 0.2038 0.12606 0.0
H2126 H 0.90459 0.19463 0.11552 0.0
C2127 C 0.83768 0.17986 0.12883 0.0
C2128 C 0.85444 0.16122 0.12548 0.0
H2129 H 0.83091 0.21753 0.12532 0.0
H2130 H 0.81864 0.17585 0.1306 0.0
C2131 C 0.87903 0.16687 0.1237 0.0
C2132 C 0.30427 0.87961 0.11039 0.0
C2133 C 0.28728 0.86075 0.11108 0.0
H2134 H 0.34181 0.88893 0.11073 0.0
C2135 C 0.2946 0.83811 0.11966 0.0
H2136 H 0.29906 0.89722 0.10375 0.0
C2137 C 0.31906 0.83326 0.12317 0.0
C2138 C 0.33642 0.85114 0.11869 0.0
H2139 H 0.28198 0.82322 0.12027 0.0
H2140 H 0.32456 0.81488 0.12681 0.0
C2141 C 0.32877 0.87483 0.11426 0.0
C2142 C 0.65254 0.29505 0.1274 0.0
C2143 C 0.63344 0.2884 0.11216 0.0
H2144 H 0.67032 0.32382 0.14589 0.0
C2145 C 0.61444 0.30485 0.10858 0.0
H2146 H 0.66746 0.28284 0.13053 0.0
C2147 C 0.61629 0.32855 0.11692 0.0
C2148 C 0.63699 0.33611 0.12939 0.0
H2149 H 0.59923 0.30006 0.09728 0.0
H2150 H 0.60247 0.34139 0.11187 0.0
C2151 C 0.65424 0.3187 0.13606 0.0
C2152 C 0.1704 0.87483 0.38328 0.0
C2153 C 0.16239 0.85098 0.38093 0.0
H2154 H 0.20043 0.89761 0.39185 0.0
C2155 C 0.17944 0.83244 0.37843 0.0
H2156 H 0.15757 0.88942 0.38531 0.0
C2157 C 0.20395 0.83716 0.38172 0.0
C2158 C 0.21161 0.86042 0.38805 0.0
H2159 H 0.17363 0.81389 0.37647 0.0
H2160 H 0.21633 0.82208 0.38257 0.0
C2161 C 0.19494 0.87953 0.38695 0.0
C2162 C 0.66834 0.1778 0.37921 0.0
C2163 C 0.64948 0.16108 0.38152 0.0
H2164 H 0.67924 0.21452 0.38326 0.0
C2165 C 0.62571 0.16949 0.38341 0.0
H2166 H 0.68683 0.17167 0.3776 0.0
C2167 C 0.62135 0.19412 0.38682 0.0
C2168 C 0.64073 0.21047 0.38814 0.0
H2169 H 0.61087 0.15693 0.3853 0.0
H2170 H 0.60327 0.19994 0.39138 0.0
C2171 C 0.66397 0.20239 0.38224 0.0
C2172 C 0.31872 0.66843 0.37611 0.0
C2173 C 0.33601 0.65021 0.37917 0.0
H2174 H 0.28177 0.67848 0.38026 0.0
C2175 C 0.32832 0.62632 0.38224 0.0
H2176 H 0.32428 0.68697 0.37353 0.0
C2177 C 0.30388 0.62145 0.38625 0.0
C2178 C 0.28703 0.64041 0.38701 0.0
H2179 H 0.34133 0.61196 0.38467 0.0
H2180 H 0.29866 0.60346 0.39176 0.0
C2181 C 0.29431 0.66352 0.37977 0.0
C2182 C 0.83621 0.29286 0.37886 0.0
C2183 C 0.85931 0.28519 0.38576 0.0
H2184 H 0.81329 0.32321 0.37245 0.0
C2185 C 0.87861 0.30163 0.38447 0.0
H2186 H 0.821 0.28064 0.37981 0.0
C2187 C 0.8742 0.32607 0.38006 0.0
C2188 C 0.85043 0.33422 0.37716 0.0
H2189 H 0.89659 0.2961 0.38977 0.0
H2190 H 0.88888 0.33881 0.38199 0.0
C2191 C 0.83176 0.31729 0.37482 0.0
C2192 C 0.11217 0.1953 0.62353 0.0
C2193 C 0.11123 0.21188 0.64273 0.0
H2194 H 0.11381 0.15801 0.6135 0.0
C2195 C 0.11805 0.20423 0.66587 0.0
H2196 H 0.10693 0.20081 0.60553 0.0
C2197 C 0.12155 0.17975 0.67048 0.0
C2198 C 0.11877 0.16275 0.65192 0.0
H2199 H 0.11736 0.21657 0.681 0.0
H2200 H 0.12381 0.17391 0.68899 0.0
C2201 C 0.11605 0.17079 0.6281 0.0
C2202 C 0.30325 0.11563 0.62265 0.0
C2203 C 0.28622 0.11516 0.64148 0.0
H2204 H 0.34076 0.11747 0.61348 0.0
C2205 C 0.29317 0.12323 0.66444 0.0
H2206 H 0.29828 0.10953 0.60476 0.0
C2207 C 0.31747 0.12744 0.66948 0.0
C2208 C 0.335 0.12407 0.65152 0.0
H2209 H 0.28048 0.12303 0.6793 0.0
H2210 H 0.32281 0.13066 0.688 0.0
C2211 C 0.32758 0.12016 0.62764 0.0
C2212 C 0.38174 0.32952 0.62485 0.0
C2213 C 0.37945 0.33811 0.64852 0.0
H2214 H 0.39009 0.29889 0.60282 0.0
C2215 C 0.37662 0.32157 0.66747 0.0
H2216 H 0.38402 0.34197 0.60997 0.0
C2217 C 0.37965 0.29696 0.66335 0.0
C2218 C 0.38609 0.2887 0.64031 0.0
H2219 H 0.37469 0.32787 0.68587 0.0
H2220 H 0.38033 0.28496 0.67875 0.0
C2221 C 0.38516 0.30486 0.62076 0.0
C2222 C 0.19532 0.38491 0.61971 0.0
C2223 C 0.21207 0.38604 0.63875 0.0
H2224 H 0.1579 0.38361 0.61003 0.0
C2225 C 0.20453 0.37985 0.6621 0.0
H2226 H 0.20075 0.38968 0.60156 0.0
C2227 C 0.18003 0.37686 0.66699 0.0
C2228 C 0.16291 0.37948 0.64852 0.0
H2229 H 0.21701 0.3807 0.67712 0.0
H2230 H 0.1743 0.37512 0.6856 0.0
C2231 C 0.17078 0.38151 0.62457 0.0
C2232 C 0.11984 0.32826 0.87643 0.0
C2233 C 0.12252 0.33596 0.85249 0.0
H2234 H 0.11088 0.29847 0.89932 0.0
C2235 C 0.12622 0.31873 0.83431 0.0
H2236 H 0.11694 0.34124 0.89074 0.0
C2237 C 0.12331 0.29426 0.83931 0.0
C2238 C 0.11605 0.2869 0.8624 0.0
H2239 H 0.12853 0.32432 0.81572 0.0
H2240 H 0.12302 0.28168 0.82436 0.0
C2241 C 0.11652 0.30375 0.88137 0.0
C2242 C 0.17812 0.12534 0.83709 0.0
C2243 C 0.16069 0.12184 0.8551 0.0
H2244 H 0.2153 0.1222 0.82757 0.0
C2245 C 0.16811 0.11891 0.87911 0.0
H2246 H 0.17273 0.12777 0.81846 0.0
C2247 C 0.19256 0.11549 0.88432 0.0
C2248 C 0.20967 0.11526 0.86559 0.0
H2249 H 0.15496 0.11612 0.89328 0.0
H2250 H 0.19769 0.11006 0.90238 0.0
C2251 C 0.20253 0.12233 0.84236 0.0
C2252 C 0.37718 0.18048 0.83244 0.0
C2253 C 0.37954 0.1637 0.85125 0.0
H2254 H 0.38163 0.21713 0.82153 0.0
C2255 C 0.38196 0.17203 0.87501 0.0
H2256 H 0.37511 0.17441 0.81397 0.0
C2257 C 0.38585 0.19658 0.87934 0.0
C2258 C 0.3871 0.21293 0.85997 0.0
H2259 H 0.38386 0.15943 0.88981 0.0
H2260 H 0.39076 0.20231 0.89737 0.0
C2261 C 0.3807 0.20499 0.8368 0.0
C2262 C 0.3294 0.38271 0.87156 0.0
C2263 C 0.33771 0.38046 0.84777 0.0
H2264 H 0.2991 0.39119 0.89404 0.0
C2265 C 0.32085 0.37814 0.82899 0.0
H2266 H 0.34206 0.38464 0.88632 0.0
C2267 C 0.29627 0.38141 0.83345 0.0
C2268 C 0.28833 0.38754 0.85668 0.0
H2269 H 0.32687 0.3763 0.81049 0.0
H2270 H 0.28405 0.38236 0.81823 0.0
C2271 C 0.3048 0.38638 0.87598 0.0
C2272 C 0.66225 0.12518 0.1826 0.0
C2273 C 0.64423 0.12011 0.16557 0.0
H2274 H 0.67332 0.12185 0.21934 0.0
C2275 C 0.62094 0.11435 0.17357 0.0
H2276 H 0.68032 0.12979 0.17677 0.0
C2277 C 0.61695 0.10957 0.19804 0.0
C2278 C 0.6362 0.11073 0.21455 0.0
H2279 H 0.60678 0.11031 0.16073 0.0
H2280 H 0.59986 0.10181 0.20343 0.0
C2281 C 0.65816 0.12082 0.20704 0.0
C2282 C 0.65843 0.3794 0.29449 0.0
C2283 C 0.63486 0.38621 0.28823 0.0
H2284 H 0.68331 0.37341 0.32334 0.0
C2285 C 0.61667 0.38505 0.3059 0.0
H2286 H 0.67284 0.38016 0.28132 0.0
C2287 C 0.62271 0.38105 0.33009 0.0
C2288 C 0.64699 0.37837 0.3367 0.0
H2289 H 0.59834 0.39015 0.30148 0.0
H2290 H 0.60889 0.38313 0.34373 0.0
C2291 C 0.66449 0.37572 0.31862 0.0
C2292 C 0.11984 0.66319 0.29546 0.0
C2293 C 0.11376 0.63982 0.28795 0.0
H2294 H 0.12458 0.68677 0.32563 0.0
C2295 C 0.11492 0.62086 0.30478 0.0
H2296 H 0.11898 0.67816 0.28294 0.0
C2297 C 0.11828 0.6258 0.32932 0.0
C2298 C 0.12028 0.64975 0.33714 0.0
H2299 H 0.11026 0.60268 0.29938 0.0
H2300 H 0.11624 0.6113 0.34224 0.0
C2301 C 0.12284 0.66816 0.31996 0.0
C2302 C 0.82933 0.12044 0.32158 0.0
C2303 C 0.8483 0.11818 0.33822 0.0
H2304 H 0.81831 0.1167 0.28481 0.0
C2305 C 0.87205 0.11658 0.32967 0.0
H2306 H 0.81086 0.12181 0.32781 0.0
C2307 C 0.87631 0.11346 0.30496 0.0
C2308 C 0.85688 0.11219 0.28865 0.0
H2309 H 0.88696 0.11471 0.34216 0.0
H2310 H 0.8944 0.10912 0.29901 0.0
C2311 C 0.83362 0.11773 0.29691 0.0
C2312 C 0.38561 0.87926 0.30392 0.0
C2313 C 0.38644 0.85996 0.28745 0.0
H2314 H 0.38442 0.88961 0.34118 0.0
C2315 C 0.38023 0.8368 0.29547 0.0
H2316 H 0.39048 0.89727 0.29814 0.0
C2317 C 0.37724 0.83238 0.32008 0.0
C2318 C 0.37991 0.85112 0.33689 0.0
H2319 H 0.38091 0.82159 0.28323 0.0
H2320 H 0.37535 0.8139 0.32614 0.0
C2321 C 0.38221 0.87488 0.32856 0.0
C2322 C 0.8496 0.36805 0.20267 0.0
C2323 C 0.86854 0.38335 0.2096 0.0
H2324 H 0.83247 0.34928 0.17368 0.0
C2325 C 0.88791 0.38676 0.19353 0.0
H2326 H 0.83442 0.36503 0.21458 0.0
C2327 C 0.88657 0.3782 0.16985 0.0
C2328 C 0.86604 0.36568 0.16196 0.0
H2329 H 0.90301 0.39808 0.19855 0.0
H2330 H 0.90066 0.38313 0.15726 0.0
C2331 C 0.84843 0.35916 0.17906 0.0
C2332 C 0.1152 0.87685 0.17137 0.0
C2333 C 0.12005 0.85327 0.16365 0.0
H2334 H 0.1041 0.89886 0.20113 0.0
C2335 C 0.12494 0.83542 0.18091 0.0
H2336 H 0.11133 0.8909 0.15837 0.0
C2337 C 0.12128 0.84009 0.20538 0.0
C2338 C 0.11211 0.86249 0.21274 0.0
H2339 H 0.1289 0.81713 0.17532 0.0
H2340 H 0.12214 0.82514 0.21793 0.0
C2341 C 0.11116 0.88143 0.19587 0.0
C2342 C 0.38628 0.62113 0.19564 0.0
C2343 C 0.38777 0.64049 0.212 0.0
H2344 H 0.38448 0.61064 0.15844 0.0
C2345 C 0.38187 0.66373 0.20395 0.0
H2346 H 0.39085 0.60305 0.20145 0.0
C2347 C 0.37867 0.6681 0.17936 0.0
C2348 C 0.38082 0.64924 0.1626 0.0
H2349 H 0.38301 0.67899 0.21609 0.0
H2350 H 0.37707 0.68658 0.17323 0.0
C2351 C 0.3827 0.62548 0.17102 0.0
C2352 C 0.8297 0.38547 0.87743 0.0
C2353 C 0.83772 0.36504 0.86483 0.0
H2354 H 0.80082 0.40147 0.8974 0.0
C2355 C 0.82058 0.34791 0.85722 0.0
H2356 H 0.84233 0.39923 0.88316 0.0
C2357 C 0.79677 0.34916 0.86552 0.0
C2358 C 0.78982 0.36765 0.8813 0.0
H2359 H 0.82606 0.3321 0.84717 0.0
H2360 H 0.78479 0.33415 0.86198 0.0
C2361 C 0.80587 0.38684 0.88547 0.0
C2362 C 0.1289 0.82933 0.88263 0.0
C2363 C 0.1529 0.83719 0.88116 0.0
H2364 H 0.10563 0.79944 0.89028 0.0
C2365 C 0.17141 0.82002 0.87924 0.0
H2366 H 0.11432 0.84223 0.88419 0.0
C2367 C 0.16641 0.79555 0.88228 0.0
C2368 C 0.14288 0.78803 0.88776 0.0
H2369 H 0.19006 0.82571 0.87792 0.0
H2370 H 0.18137 0.78307 0.88361 0.0
C2371 C 0.12392 0.80482 0.88604 0.0
C2372 C 0.70263 0.15824 0.88367 0.0
C2373 C 0.70882 0.13456 0.8901 0.0
H2374 H 0.67382 0.18331 0.8783 0.0
C2375 C 0.69107 0.11647 0.88879 0.0
H2376 H 0.71586 0.17257 0.88458 0.0
C2377 C 0.66689 0.12266 0.88502 0.0
C2378 C 0.66038 0.14698 0.88274 0.0
H2379 H 0.69545 0.09808 0.89365 0.0
H2380 H 0.6532 0.10888 0.88699 0.0
C2381 C 0.6785 0.16444 0.88026 0.0
C2382 C 0.37965 0.69406 0.88511 0.0
C2383 C 0.36062 0.71082 0.88587 0.0
H2384 H 0.38927 0.65669 0.88336 0.0
C2385 C 0.33752 0.70351 0.87857 0.0
H2386 H 0.39762 0.69934 0.89068 0.0
C2387 C 0.33269 0.67913 0.8748 0.0
C2388 C 0.351 0.66193 0.87779 0.0
H2389 H 0.32252 0.71601 0.87908 0.0
H2390 H 0.31415 0.67351 0.8722 0.0
C2391 C 0.37487 0.66966 0.88095 0.0
C2392 C 0.81762 0.16743 0.62545 0.0
C2393 C 0.83481 0.14902 0.62292 0.0
H2394 H 0.78079 0.17769 0.6207 0.0
C2395 C 0.82697 0.12516 0.62001 0.0
H2396 H 0.8233 0.18596 0.62786 0.0
C2397 C 0.80255 0.12042 0.61572 0.0
C2398 C 0.78584 0.13949 0.61457 0.0
H2399 H 0.8399 0.11067 0.61796 0.0
H2400 H 0.79724 0.1024 0.61039 0.0
C2401 C 0.79323 0.16265 0.62153 0.0
C2402 C 0.3388 0.79725 0.62106 0.0
C2403 C 0.36185 0.78983 0.61373 0.0
H2404 H 0.31551 0.82734 0.6273 0.0
C2405 C 0.38093 0.80655 0.61444 0.0
H2406 H 0.32374 0.78481 0.62064 0.0
C2407 C 0.37621 0.83101 0.61843 0.0
C2408 C 0.35236 0.83881 0.62156 0.0
H2409 H 0.39889 0.80121 0.6089 0.0
H2410 H 0.39063 0.84393 0.61592 0.0
C2411 C 0.33403 0.82166 0.62471 0.0
C2412 C 0.68008 0.33031 0.62077 0.0
C2413 C 0.66306 0.34894 0.61862 0.0
H2414 H 0.71693 0.31991 0.61638 0.0
C2415 C 0.67115 0.3728 0.6166 0.0
H2416 H 0.67421 0.31176 0.62247 0.0
C2417 C 0.69569 0.37747 0.61292 0.0
C2418 C 0.71231 0.35834 0.61151 0.0
H2419 H 0.65837 0.38746 0.61483 0.0
H2420 H 0.70123 0.39562 0.6083 0.0
C2421 C 0.70459 0.33501 0.61748 0.0
C2422 C 0.1647 0.70441 0.62012 0.0
C2423 C 0.14145 0.71201 0.61363 0.0
H2424 H 0.18801 0.67417 0.62556 0.0
C2425 C 0.12234 0.69533 0.61475 0.0
H2426 H 0.17977 0.71681 0.61932 0.0
C2427 C 0.12706 0.67083 0.61846 0.0
C2428 C 0.15094 0.66286 0.62088 0.0
H2429 H 0.10425 0.7008 0.60979 0.0
H2430 H 0.11248 0.658 0.61637 0.0
C2431 C 0.16945 0.67994 0.6235 0.0
C2432 C 0.8815 0.82832 0.36946 0.0
C2433 C 0.8799 0.83655 0.34559 0.0
H2434 H 0.88943 0.79812 0.39224 0.0
C2435 C 0.87806 0.81967 0.32681 0.0
H2436 H 0.88299 0.841 0.38424 0.0
C2437 C 0.88131 0.79514 0.3314 0.0
C2438 C 0.88691 0.78729 0.3548 0.0
H2439 H 0.87665 0.82564 0.30825 0.0
H2440 H 0.88269 0.78291 0.31623 0.0
C2441 C 0.8851 0.80376 0.37404 0.0
C2442 C 0.69475 0.88292 0.37589 0.0
C2443 C 0.7116 0.88467 0.35698 0.0
H2444 H 0.6573 0.88089 0.38532 0.0
C2445 C 0.70425 0.87885 0.33347 0.0
H2446 H 0.70002 0.88735 0.39418 0.0
C2447 C 0.67982 0.87555 0.32838 0.0
C2448 C 0.66255 0.87757 0.34678 0.0
H2449 H 0.71679 0.88015 0.31854 0.0
H2450 H 0.67423 0.87404 0.3097 0.0
C2451 C 0.67028 0.87927 0.37081 0.0
C2452 C 0.6214 0.67904 0.33067 0.0
C2453 C 0.61904 0.66242 0.3496 0.0
H2454 H 0.61748 0.71572 0.31967 0.0
C2455 C 0.61743 0.6709 0.37338 0.0
H2456 H 0.62283 0.67284 0.31219 0.0
C2457 C 0.61421 0.69555 0.37767 0.0
C2458 C 0.61278 0.71182 0.35823 0.0
H2459 H 0.61553 0.65839 0.38826 0.0
H2460 H 0.60978 0.70146 0.39577 0.0
C2461 C 0.61855 0.70365 0.33499 0.0
C2462 C 0.80407 0.61124 0.37444 0.0
C2463 C 0.78753 0.61014 0.3552 0.0
H2464 H 0.84134 0.61327 0.38459 0.0
C2465 C 0.79521 0.61687 0.33206 0.0
H2466 H 0.79854 0.60604 0.39244 0.0
C2467 C 0.81969 0.62056 0.32751 0.0
C2468 C 0.83668 0.61806 0.34614 0.0
H2469 H 0.78291 0.61604 0.31689 0.0
H2470 H 0.82558 0.62282 0.30901 0.0
C2471 C 0.82857 0.61532 0.36994 0.0
C2472 C 0.8832 0.66821 0.12199 0.0
C2473 C 0.87999 0.66009 0.14572 0.0
H2474 H 0.89264 0.69834 0.09972 0.0
C2475 C 0.87676 0.677 0.16427 0.0
H2476 H 0.88582 0.65547 0.10742 0.0
C2477 C 0.88022 0.70151 0.15982 0.0
C2478 C 0.88746 0.70927 0.13685 0.0
H2479 H 0.87416 0.67108 0.18272 0.0
H2480 H 0.8805 0.7138 0.175 0.0
C2481 C 0.88705 0.69275 0.11758 0.0
C2482 C 0.7944 0.87118 0.14562 0.0
C2483 C 0.78764 0.88663 0.12672 0.0
H2484 H 0.82331 0.85256 0.16308 0.0
C2485 C 0.80406 0.89055 0.10775 0.0
H2486 H 0.78222 0.86779 0.1605 0.0
C2487 C 0.8278 0.8823 0.10947 0.0
C2488 C 0.83541 0.86952 0.12995 0.0
H2489 H 0.79919 0.90199 0.09268 0.0
H2490 H 0.84062 0.88758 0.09572 0.0
C2491 C 0.81808 0.86256 0.14714 0.0
C2492 C 0.61011 0.80214 0.11754 0.0
C2493 C 0.61146 0.78549 0.13666 0.0
H2494 H 0.61062 0.83947 0.10751 0.0
C2495 C 0.62124 0.79305 0.15875 0.0
H2496 H 0.60253 0.79674 0.10036 0.0
C2497 C 0.62543 0.81751 0.16296 0.0
C2498 C 0.62039 0.83462 0.14499 0.0
H2499 H 0.62237 0.78069 0.17383 0.0
H2500 H 0.63003 0.82327 0.18107 0.0
C2501 C 0.61466 0.82664 0.12167 0.0
C2502 C 0.70518 0.62248 0.15992 0.0
C2503 C 0.7124 0.61541 0.13672 0.0
H2504 H 0.67526 0.62757 0.18373 0.0
C2505 C 0.6954 0.61596 0.11788 0.0
H2506 H 0.71788 0.62212 0.17477 0.0
C2507 C 0.6709 0.61924 0.123 0.0
C2508 C 0.66335 0.62179 0.14701 0.0
H2509 H 0.70058 0.61048 0.09985 0.0
H2510 H 0.65783 0.61644 0.10874 0.0
C2511 C 0.68072 0.62537 0.16509 0.0
C2512 C 0.35163 0.87367 0.79664 0.0
C2513 C 0.36857 0.89084 0.78892 0.0
H2514 H 0.33747 0.85381 0.82659 0.0
C2515 C 0.38789 0.89667 0.80431 0.0
H2516 H 0.3365 0.8689 0.78523 0.0
C2517 C 0.38815 0.88852 0.82815 0.0
C2518 C 0.36941 0.87393 0.83684 0.0
H2519 H 0.40135 0.90968 0.79872 0.0
H2520 H 0.40189 0.89529 0.84028 0.0
C2521 C 0.35213 0.86515 0.82044 0.0
C2522 C 0.3493 0.62927 0.70519 0.0
C2523 C 0.36855 0.6144 0.71221 0.0
H2524 H 0.33181 0.64751 0.67606 0.0
C2525 C 0.38799 0.61128 0.69616 0.0
H2526 H 0.33405 0.63204 0.71707 0.0
C2527 C 0.38645 0.61961 0.67243 0.0
C2528 C 0.36571 0.63173 0.66449 0.0
H2529 H 0.40333 0.60031 0.70125 0.0
H2530 H 0.40063 0.61489 0.65985 0.0
C2531 C 0.34796 0.638 0.68153 0.0
C2532 C 0.88229 0.3407 0.7025 0.0
C2533 C 0.88822 0.3644 0.70909 0.0
H2534 H 0.87738 0.31596 0.67332 0.0
C2535 C 0.88683 0.38268 0.69153 0.0
H2536 H 0.88332 0.32622 0.71556 0.0
C2537 C 0.88326 0.37678 0.66723 0.0
C2538 C 0.88129 0.35253 0.66035 0.0
H2539 H 0.89134 0.4011 0.69619 0.0
H2540 H 0.88505 0.39078 0.65374 0.0
C2541 C 0.87908 0.33478 0.67825 0.0
C2542 C 0.12338 0.88591 0.69723 0.0
C2543 C 0.14279 0.88749 0.71354 0.0
H2544 H 0.11282 0.88397 0.66006 0.0
C2545 C 0.16603 0.88159 0.70548 0.0
H2546 H 0.10529 0.89045 0.70305 0.0
C2547 C 0.17036 0.8783 0.6809 0.0
C2548 C 0.15145 0.88039 0.66417 0.0
H2549 H 0.18132 0.88279 0.71759 0.0
H2550 H 0.18884 0.87671 0.67475 0.0
C2551 C 0.12769 0.88225 0.67261 0.0
C2552 C 0.61779 0.16475 0.7055 0.0
C2553 C 0.6116 0.14166 0.7137 0.0
H2554 H 0.62269 0.18738 0.67463 0.0
C2555 C 0.61261 0.12219 0.69743 0.0
H2556 H 0.61699 0.18008 0.71758 0.0
C2557 C 0.61606 0.12636 0.67276 0.0
C2558 C 0.61826 0.15005 0.66422 0.0
H2559 H 0.6078 0.10422 0.70336 0.0
H2560 H 0.61395 0.1115 0.66027 0.0
C2561 C 0.62085 0.16896 0.68086 0.0
C2562 C 0.16725 0.62193 0.81977 0.0
C2563 C 0.14891 0.61928 0.83702 0.0
H2564 H 0.17732 0.61755 0.78286 0.0
C2565 C 0.12498 0.61661 0.82927 0.0
H2566 H 0.18583 0.62417 0.8254 0.0
C2567 C 0.12009 0.61265 0.80481 0.0
C2568 C 0.13908 0.61154 0.788 0.0
H2569 H 0.11054 0.61448 0.84225 0.0
H2570 H 0.10199 0.6075 0.79953 0.0
C2571 C 0.16232 0.61832 0.79536 0.0
C2572 C 0.87869 0.11474 0.82952 0.0
C2573 C 0.8667 0.13555 0.83748 0.0
H2574 H 0.89795 0.0978 0.8007 0.0
C2575 C 0.86047 0.15329 0.82039 0.0
H2576 H 0.88339 0.10057 0.8421 0.0
C2577 C 0.86913 0.15187 0.79672 0.0
C2578 C 0.88392 0.13257 0.78969 0.0
H2579 H 0.85102 0.16948 0.82584 0.0
H2580 H 0.86638 0.16709 0.78481 0.0
C2581 C 0.88701 0.11316 0.80577 0.0
C2582 C 0.61544 0.37973 0.80227 0.0
C2583 C 0.61441 0.36046 0.7858 0.0
H2584 H 0.61753 0.38995 0.83951 0.0
C2585 C 0.62148 0.33742 0.79348 0.0
H2586 H 0.61003 0.39766 0.79673 0.0
C2587 C 0.62534 0.33296 0.81794 0.0
C2588 C 0.62268 0.35157 0.83489 0.0
H2589 H 0.62074 0.32223 0.78122 0.0
H2590 H 0.62781 0.31451 0.82386 0.0
C2591 C 0.61969 0.37532 0.82676 0.0
C2592 C 0.00142 0.61339 0.28421 0.0
C2593 C 0.98794 0.63484 0.28523 0.0
H2594 H 0.03383 0.59624 0.27212 0.0
C2595 C 0.99547 0.65473 0.27149 0.0
H2596 H 0.99594 0.5976 0.29428 0.0
C2597 C 0.01706 0.65375 0.25847 0.0
C2598 C 0.03144 0.63291 0.2591 0.0
H2599 H 0.98532 0.6714 0.2717 0.0
H2600 H 0.02336 0.66987 0.24943 0.0
C2601 C 0.02299 0.61247 0.27133 0.0
C2602 C 0.84159 0.99466 0.27188 0.0
C2603 C 0.86186 0.98704 0.28505 0.0
H2604 H 0.82598 0.02261 0.2502 0.0
C2605 C 0.88341 0.00027 0.2832 0.0
H2606 H 0.82482 0.98469 0.27273 0.0
C2607 C 0.8841 0.02175 0.27019 0.0
C2608 C 0.86332 0.03035 0.25862 0.0
H2609 H 0.89949 0.99471 0.2928 0.0
H2610 H 0.90043 0.03246 0.27044 0.0
C2611 C 0.84234 0.01616 0.25872 0.0
C2612 C 0.49916 0.88431 0.28196 0.0
C2613 C 0.51209 0.86257 0.28367 0.0
H2614 H 0.46714 0.90188 0.26945 0.0
C2615 C 0.50404 0.84246 0.27052 0.0
H2616 H 0.50505 0.90027 0.29155 0.0
C2617 C 0.48243 0.84359 0.25749 0.0
C2618 C 0.46857 0.86479 0.25753 0.0
H2619 H 0.51375 0.82555 0.27126 0.0
H2620 H 0.47565 0.82738 0.24896 0.0
C2621 C 0.47759 0.88538 0.2691 0.0
C2622 C 0.60777 0.47741 0.27472 0.0
C2623 C 0.62759 0.46896 0.26147 0.0
H2624 H 0.59416 0.50428 0.29867 0.0
C2625 C 0.64855 0.48317 0.2602 0.0
H2626 H 0.59145 0.46676 0.276 0.0
C2627 C 0.65029 0.50454 0.27345 0.0
C2628 C 0.63106 0.51206 0.28811 0.0
H2629 H 0.66423 0.47691 0.25038 0.0
H2630 H 0.66706 0.51453 0.27306 0.0
C2631 C 0.60946 0.49879 0.28785 0.0
C2632 C 0.00805 0.85941 0.24984 0.0
C2633 C 0.02842 0.85362 0.23595 0.0
H2634 H 0.96938 0.86103 0.25126 0.0
C2635 C 0.02505 0.8436 0.21286 0.0
H2636 H 0.01008 0.86699 0.26773 0.0
C2637 C 0.00203 0.84041 0.20343 0.0
C2638 C 0.98166 0.84675 0.21695 0.0
H2639 H 0.0403 0.83811 0.20196 0.0
H2640 H 0.00027 0.83292 0.18546 0.0
C2641 C 0.98481 0.856 0.2404 0.0
C2642 C 0.64328 0.00606 0.24964 0.0
C2643 C 0.64805 0.02674 0.2358 0.0
H2644 H 0.64266 0.96737 0.25062 0.0
C2645 C 0.65734 0.02389 0.21234 0.0
H2646 H 0.63626 0.00768 0.26779 0.0
C2647 C 0.66074 0.00108 0.20252 0.0
C2648 C 0.65539 0.98041 0.216 0.0
H2649 H 0.66206 0.03938 0.20144 0.0
H2650 H 0.66759 -0.00031 0.18427 0.0
C2651 C 0.64696 0.98305 0.23981 0.0
C2652 C 0.47859 0.61306 0.22833 0.0
C2653 C 0.47037 0.63397 0.23994 0.0
H2654 H 0.50512 0.59727 0.20533 0.0
C2655 C 0.48469 0.65484 0.23929 0.0
H2656 H 0.46777 0.5968 0.22846 0.0
C2657 C 0.50595 0.65531 0.22567 0.0
C2658 C 0.51324 0.63486 0.2126 0.0
H2659 H 0.47855 0.67131 0.24779 0.0
H2660 H 0.51603 0.67198 0.22452 0.0
C2661 C 0.49985 0.61346 0.21487 0.0
C2662 C 0.88206 0.49897 0.21238 0.0
C2663 C 0.86007 0.51108 0.20883 0.0
H2664 H 0.89972 0.46777 0.22657 0.0
C2665 C 0.8392 0.50231 0.22021 0.0
H2666 H 0.89857 0.50546 0.20422 0.0
C2667 C 0.84001 0.48077 0.23334 0.0
C2668 C 0.86169 0.46779 0.23519 0.0
H2669 H 0.82206 0.51139 0.21797 0.0
H2670 H 0.82342 0.47341 0.24056 0.0
C2671 C 0.88283 0.47752 0.22537 0.0
C2672 C 0.27412 0.99628 0.65982 0.0
C2673 C 0.28715 0.98849 0.63952 0.0
H2674 H 0.25214 0.02415 0.6752 0.0
C2675 C 0.28515 0.00156 0.61788 0.0
H2676 H 0.27511 0.98648 0.67667 0.0
C2677 C 0.27192 0.02291 0.61702 0.0
C2678 C 0.26024 0.03156 0.63771 0.0
H2679 H 0.29467 0.9959 0.60179 0.0
H2680 H 0.27189 0.03339 0.60053 0.0
C2681 C 0.26072 0.01765 0.6589 0.0
C2682 C 0.47725 0.2719 0.61465 0.0
C2683 C 0.46878 0.26041 0.63553 0.0
H2684 H 0.50418 0.29446 0.59899 0.0
C2685 C 0.48309 0.26071 0.65645 0.0
H2686 H 0.46649 0.27195 0.59833 0.0
C2687 C 0.5046 0.27392 0.65701 0.0
C2688 C 0.51211 0.28695 0.63662 0.0
H2689 H 0.47679 0.25226 0.67289 0.0
H2690 H 0.51467 0.27487 0.67372 0.0
C2691 C 0.49872 0.28497 0.61516 0.0
C2692 C 0.21446 0.4988 0.61425 0.0
C2693 C 0.21265 0.51172 0.636 0.0
H2694 H 0.22756 0.46706 0.59661 0.0
C2695 C 0.22603 0.50392 0.65607 0.0
H2696 H 0.20468 0.50448 0.59833 0.0
C2697 C 0.23949 0.48261 0.65488 0.0
C2698 C 0.23968 0.46877 0.63366 0.0
H2699 H 0.22521 0.51364 0.67299 0.0
H2700 H 0.24827 0.47606 0.67107 0.0
C2701 C 0.22776 0.4775 0.61313 0.0
C2702 C 0.01423 0.23904 0.65947 0.0
C2703 C 0.02816 0.2392 0.6383 0.0
H2704 H 0.9831 0.2248 0.67745 0.0
C2705 C 0.01948 0.22733 0.61773 0.0
H2706 H 0.02075 0.2478 0.67568 0.0
C2707 C 0.99817 0.21406 0.61877 0.0
C2708 C 0.98517 0.21225 0.64047 0.0
H2709 H 0.02998 0.22714 0.60125 0.0
H2710 H 0.99254 0.20431 0.60281 0.0
C2711 C 0.99288 0.22562 0.66057 0.0
C2712 C 0.26001 0.48385 0.84089 0.0
C2713 C 0.25955 0.46997 0.86208 0.0
H2714 H 0.27459 0.5149 0.82304 0.0
C2715 C 0.2711 0.47869 0.88281 0.0
H2716 H 0.25152 0.47727 0.82456 0.0
C2717 C 0.28441 0.49997 0.88192 0.0
C2718 C 0.28659 0.5129 0.86021 0.0
H2719 H 0.27109 0.4682 0.8993 0.0
H2720 H 0.29395 0.50562 0.89801 0.0
C2721 C 0.27348 0.50518 0.83994 0.0
C2722 C 0.02732 0.28087 0.84 0.0
C2723 C 0.03209 0.26443 0.85865 0.0
H2724 H 0.00236 0.30593 0.82464 0.0
C2725 C 0.01428 0.25961 0.87586 0.0
H2726 H 0.04102 0.28495 0.82668 0.0
C2727 C 0.99222 0.27183 0.8749 0.0
C2728 C 0.9877 0.28895 0.85666 0.0
H2729 H 0.01779 0.24717 0.8905 0.0
H2730 H 0.97889 0.26818 0.8887 0.0
C2731 C 0.00529 0.29295 0.83894 0.0
C2732 C 0.21477 0.00167 0.88816 0.0
C2733 C 0.21362 0.98886 0.86629 0.0
H2734 H 0.22651 0.03372 0.9062 0.0
C2735 C 0.2268 0.99737 0.84639 0.0
H2736 H 0.20511 0.99548 0.90397 0.0
C2737 C 0.23943 0.01918 0.84788 0.0
C2738 C 0.23894 0.03282 0.86924 0.0
H2739 H 0.22647 0.98778 0.82938 0.0
H2740 H 0.24809 0.0262 0.83184 0.0
C2741 C 0.22721 0.02347 0.88958 0.0
C2742 C 0.50554 0.2281 0.84477 0.0
C2743 C 0.51296 0.2149 0.86508 0.0
H2744 H 0.4778 0.24989 0.82894 0.0
C2745 C 0.4995 0.2167 0.88651 0.0
H2746 H 0.51567 0.22728 0.82809 0.0
C2747 C 0.47802 0.22974 0.88702 0.0
C2748 C 0.46965 0.24138 0.86619 0.0
H2749 H 0.50489 0.20705 0.90261 0.0
H2750 H 0.46717 0.22951 0.90327 0.0
C2751 C 0.48405 0.24129 0.84534 0.0
C2752 C 0.66199 0.26392 0.01521 0.0
C2753 C 0.64014 0.26218 0.02791 0.0
H2754 H 0.68046 0.27934 0.9849 0.0
C2755 C 0.61921 0.27226 0.01796 0.0
H2756 H 0.67842 0.25653 0.02276 0.0
C2757 C 0.62037 0.28541 0.99661 0.0
C2758 C 0.64254 0.28885 0.9848 0.0
H2759 H 0.60219 0.27118 0.02752 0.0
H2760 H 0.60402 0.29377 0.98996 0.0
C2761 C 0.66319 0.2772 0.99375 0.0
C2762 C 0.61396 0.21391 0.5 0.0
C2763 C 0.6354 0.21189 0.5134 0.0
H2764 H 0.59715 0.22726 0.4679 0.0
C2765 C 0.65568 0.22527 0.5062 0.0
H2766 H 0.59788 0.20417 0.50525 0.0
C2767 C 0.65507 0.23882 0.48491 0.0
C2768 C 0.63421 0.23913 0.47051 0.0
H2769 H 0.67237 0.22431 0.5163 0.0
H2770 H 0.67146 0.2475 0.47877 0.0
C2771 C 0.6134 0.22735 0.47875 0.0
C2772 C 0.2609 0.65765 0.48394 0.0
C2773 C 0.26041 0.63634 0.47028 0.0
H2774 H 0.2751 0.67572 0.51504 0.0
C2775 C 0.27204 0.61573 0.47921 0.0
H2776 H 0.2524 0.6739 0.47722 0.0
C2777 C 0.2851 0.61677 0.50071 0.0
C2778 C 0.28703 0.63853 0.51357 0.0
H2779 H 0.27206 0.59916 0.46887 0.0
H2780 H 0.29457 0.60076 0.50664 0.0
C2781 C 0.27419 0.65877 0.50538 0.0
C2782 C 0.88487 0.28338 0.49871 0.0
C2783 C 0.86339 0.28525 0.51208 0.0
H2784 H 0.9018 0.27026 0.46659 0.0
C2785 C 0.84313 0.27197 0.50469 0.0
H2786 H 0.90093 0.29309 0.50408 0.0
C2787 C 0.84382 0.25856 0.48332 0.0
C2788 C 0.86475 0.25834 0.46903 0.0
H2789 H 0.82641 0.27285 0.51474 0.0
H2790 H 0.82748 0.24985 0.47708 0.0
C2791 C 0.8855 0.27013 0.47736 0.0
C2792 C 0.21492 0.88573 0.50056 0.0
C2793 C 0.2134 0.86413 0.51373 0.0
H2794 H 0.22765 0.90312 0.46853 0.0
C2795 C 0.22702 0.84416 0.50614 0.0
H2796 H 0.20497 0.90159 0.5061 0.0
C2797 C 0.24034 0.84524 0.48472 0.0
C2798 C 0.24016 0.86626 0.47059 0.0
H2799 H 0.22644 0.82736 0.51605 0.0
H2800 H 0.24925 0.82909 0.47831 0.0
C2801 C 0.22811 0.88676 0.47917 0.0
C2802 C 0.88178 0.23557 0.01513 0.0
C2803 C 0.86796 0.22794 0.03482 0.0
H2804 H 0.89009 0.23025 0.97777 0.0
C2805 C 0.85082 0.20955 0.03168 0.0
H2806 H 0.89501 0.24978 0.01724 0.0
C2807 C 0.84778 0.19859 0.00928 0.0
C2808 C 0.86203 0.20566 0.98966 0.0
H2809 H 0.83984 0.20355 0.04669 0.0
H2810 H 0.83462 0.18428 0.00747 0.0
C2811 C 0.87899 0.22433 0.99271 0.0
C2812 C 0.25894 0.85707 0.98404 0.0
C2813 C 0.28236 0.84777 0.9808 0.0
H2814 H 0.23159 0.86771 0.00946 0.0
C2815 C 0.2957 0.8408 0.00108 0.0
H2816 H 0.24821 0.86255 0.96865 0.0
C2817 C 0.28617 0.84347 0.02411 0.0
C2818 C 0.26319 0.85365 0.02762 0.0
H2819 H 0.3136 0.8332 0.99923 0.0
H2820 H 0.29697 0.83753 0.03928 0.0
C2821 C 0.24941 0.86001 0.00732 0.0
C2822 C 0.2401 0.65468 0.01616 0.0
C2823 C 0.24015 0.63376 0.03044 0.0
H2824 H 0.22594 0.67226 0.98477 0.0
C2825 C 0.22809 0.61316 0.02209 0.0
H2826 H 0.24899 0.67091 0.0224 0.0
C2827 C 0.21478 0.61396 0.00075 0.0
C2828 C 0.21311 0.63544 0.98741 0.0
H2829 H 0.22779 0.59686 0.03285 0.0
H2830 H 0.20487 0.59802 0.99538 0.0
C2831 C 0.22664 0.65554 0.99482 0.0
C2832 C 0.00571 0.34955 0.72586 0.0
C2833 C 0.01336 0.36853 0.71097 0.0
H2834 H 0.97792 0.33607 0.74899 0.0
C2835 C 0.00029 0.39026 0.71104 0.0
H2836 H 0.01556 0.33271 0.72641 0.0
C2837 C 0.97891 0.39225 0.72412 0.0
C2838 C 0.97027 0.37262 0.73748 0.0
H2839 H 0.00591 0.40539 0.70006 0.0
H2840 H 0.96835 0.40862 0.72261 0.0
C2841 C 0.98434 0.35161 0.73906 0.0
C2842 C 0.11488 0.97811 0.72966 0.0
C2843 C 0.1357 0.97004 0.74154 0.0
H2844 H 0.09923 0.00463 0.7066 0.0
C2845 C 0.15642 0.98461 0.74148 0.0
H2846 H 0.09873 0.96713 0.7294 0.0
C2847 C 0.15691 0.00597 0.7281 0.0
C2848 C 0.13663 0.01307 0.71467 0.0
H2849 H 0.17281 0.97858 0.75026 0.0
H2850 H 0.17349 0.01624 0.72734 0.0
C2851 C 0.11531 -0.00054 0.71641 0.0
C2852 C 0.51523 0.15789 0.74242 0.0
C2853 C 0.52918 0.13676 0.74266 0.0
H2854 H 0.48397 0.17569 0.72825 0.0
C2855 C 0.52041 0.11606 0.7311 0.0
H2856 H 0.52182 0.17419 0.75093 0.0
C2857 C 0.49897 0.11695 0.718 0.0
C2858 C 0.48595 0.13861 0.71606 0.0
H2859 H 0.53093 0.09961 0.73097 0.0
H2860 H 0.49326 0.10091 0.70844 0.0
C2861 C 0.49376 0.15883 0.72917 0.0
C2862 C 0.3834 0.49926 0.71421 0.0
C2863 C 0.36148 0.48692 0.7111 0.0
H2864 H 0.40102 0.53055 0.72829 0.0
C2865 C 0.34081 0.49528 0.72315 0.0
H2866 H 0.39976 0.49307 0.70553 0.0
C2867 C 0.34168 0.51669 0.73647 0.0
C2868 C 0.36321 0.52996 0.73787 0.0
H2869 H 0.32374 0.486 0.72128 0.0
H2870 H 0.32517 0.52375 0.74417 0.0
C2871 C 0.38423 0.52059 0.72743 0.0
C2872 C 0.98162 0.15932 0.76548 0.0
C2873 C 0.96836 0.13782 0.76378 0.0
H2874 H 0.0125 0.177 0.78067 0.0
C2875 C 0.97784 0.11664 0.77378 0.0
H2876 H 0.97447 0.17594 0.75814 0.0
C2877 C 0.99935 0.11724 0.78675 0.0
C2878 C 0.01175 0.13908 0.79012 0.0
H2879 H 0.96787 0.09988 0.77272 0.0
H2880 H 0.00564 0.10072 0.79504 0.0
C2881 C 0.0032 0.15996 0.7786 0.0
C2882 C 0.33282 -0.00025 0.79898 0.0
C2883 C 0.33898 0.02006 0.78529 0.0
H2884 H 0.33097 0.96145 0.8007 0.0
C2885 C 0.3475 0.0169 0.76159 0.0
H2886 H 0.32584 0.0016 0.81714 0.0
C2887 C 0.35086 0.99368 0.75221 0.0
C2888 C 0.34564 0.97337 0.7664 0.0
H2889 H 0.35238 0.03231 0.75063 0.0
H2890 H 0.35829 0.99161 0.73426 0.0
C2891 C 0.3359 0.97673 0.78958 0.0
C2892 C 0.50116 0.3844 0.78384 0.0
C2893 C 0.48799 0.3628 0.78552 0.0
H2894 H 0.53314 0.40173 0.77094 0.0
C2895 C 0.49562 0.3427 0.77213 0.0
H2896 H 0.49559 0.40035 0.79361 0.0
C2897 C 0.51705 0.34368 0.75882 0.0
C2898 C 0.53114 0.36474 0.7588 0.0
H2899 H 0.48572 0.3259 0.77287 0.0
H2900 H 0.52347 0.32746 0.75004 0.0
C2901 C 0.52255 0.38532 0.77067 0.0
C2902 C 0.11312 0.49897 0.78603 0.0
C2903 C 0.13456 0.48552 0.7875 0.0
H2904 H 0.0961 0.53118 0.77325 0.0
C2905 C 0.15464 0.49289 0.77392 0.0
H2906 H 0.0972 0.49362 0.79599 0.0
C2907 C 0.15382 0.51428 0.76058 0.0
C2908 C 0.13296 0.52865 0.7607 0.0
H2909 H 0.17132 0.48276 0.77446 0.0
H2910 H 0.17005 0.52044 0.75163 0.0
C2911 C 0.11236 0.52036 0.77283 0.0
C2912 C 0.73918 0.98209 0.3451 0.0
C2913 C 0.73885 0.96727 0.36564 0.0
H2914 H 0.72533 0.01389 0.3281 0.0
C2915 C 0.7264 0.97503 0.38625 0.0
H2916 H 0.74837 0.97633 0.32885 0.0
C2917 C 0.71306 0.99634 0.38578 0.0
C2918 C 0.71179 0.01024 0.36461 0.0
H2919 H 0.72582 0.96385 0.40226 0.0
H2920 H 0.70285 0.00128 0.40168 0.0
C2921 C 0.7257 0.0034 0.34457 0.0
C2922 C 0.4944 0.7263 0.34347 0.0
C2923 C 0.48715 0.71299 0.36377 0.0
H2924 H 0.52187 0.74837 0.3276 0.0
C2925 C 0.50069 0.71482 0.38515 0.0
H2926 H 0.48419 0.72549 0.32683 0.0
C2927 C 0.52207 0.72806 0.38562 0.0
C2928 C 0.53025 0.73986 0.3648 0.0
H2929 H 0.49543 0.70509 0.40124 0.0
H2930 H 0.53298 0.72789 0.40184 0.0
C2931 C 0.51578 0.73968 0.344 0.0
C2932 C 0.77374 0.49181 0.33793 0.0
C2933 C 0.78709 0.48422 0.3581 0.0
H2934 H 0.75155 0.51956 0.32264 0.0
C2935 C 0.78519 0.49731 0.37974 0.0
H2936 H 0.77464 0.48196 0.32109 0.0
C2937 C 0.77186 0.51859 0.38065 0.0
C2938 C 0.76003 0.52716 0.36001 0.0
H2939 H 0.79492 0.49178 0.39575 0.0
H2940 H 0.772 0.52917 0.39709 0.0
C2941 C 0.76026 0.51313 0.3389 0.0
C2942 C 0.00535 0.7735 0.34197 0.0
C2943 C 0.0122 0.78697 0.36232 0.0
H2944 H 0.97829 0.75105 0.32584 0.0
C2945 C 0.99846 0.78501 0.38354 0.0
H2946 H 0.01572 0.7744 0.32544 0.0
C2947 C 0.97726 0.77149 0.38381 0.0
C2948 C 0.96943 0.75954 0.36292 0.0
H2949 H 0.00342 0.79485 0.39967 0.0
H2950 H 0.96615 0.77161 0.39988 0.0
C2951 C 0.98413 0.75984 0.34229 0.0
C2952 C 0.70734 0.50455 0.15914 0.0
C2953 C 0.71191 0.48687 0.14165 0.0
H2954 H 0.71452 0.5405 0.17115 0.0
C2955 C 0.72914 0.49151 0.12355 0.0
H2956 H 0.69425 0.50152 0.17332 0.0
C2957 C 0.74095 0.51378 0.12252 0.0
C2958 C 0.73557 0.53166 0.13948 0.0
H2959 H 0.7332 0.47811 0.10994 0.0
H2960 H 0.75354 0.51736 0.10801 0.0
C2961 C 0.71899 0.52677 0.15799 0.0
C2962 C 0.00087 0.71361 0.11455 0.0
C2963 C 0.01358 0.71181 0.13643 0.0
H2964 H 0.96909 0.72629 0.09667 0.0
C2965 C 0.00538 0.72489 0.15652 0.0
H2966 H 0.00689 0.7041 0.09859 0.0
C2967 C 0.98382 0.73794 0.15523 0.0
C2968 C 0.97017 0.73802 0.13386 0.0
H2969 H 0.01493 0.72405 0.17355 0.0
H2970 H 0.97692 0.74644 0.17141 0.0
C2971 C 0.97935 0.72652 0.11331 0.0
C2972 C 0.78266 0.00234 0.11389 0.0
C2973 C 0.78556 0.01431 0.13606 0.0
H2974 H 0.76946 0.97099 0.09568 0.0
C2975 C 0.77402 0.00506 0.15664 0.0
H2976 H 0.791 0.00915 0.0976 0.0
C2977 C 0.76133 0.98327 0.15538 0.0
C2978 C 0.76011 0.97047 0.13355 0.0
H2979 H 0.77573 0.01401 0.17392 0.0
H2980 H 0.75397 0.97561 0.17177 0.0
C2981 C 0.77014 0.98061 0.11268 0.0
C2982 C 0.50766 0.74757 0.1414 0.0
C2983 C 0.528 0.7616 0.14703 0.0
H2984 H 0.46898 0.74599 0.13987 0.0
C2985 C 0.52456 0.78464 0.15709 0.0
H2986 H 0.50975 0.72971 0.1338 0.0
C2987 C 0.50151 0.79396 0.16031 0.0
C2988 C 0.48119 0.78036 0.154 0.0
H2989 H 0.53977 0.79563 0.1625 0.0
H2990 H 0.49967 0.81194 0.16771 0.0
C2991 C 0.48439 0.75689 0.14489 0.0
C2992 C 0.38514 0.71343 0.99899 0.0
C2993 C 0.3636 0.71169 0.01224 0.0
H2994 H 0.40228 0.72632 0.96689 0.0
C2995 C 0.3434 0.72499 0.00466 0.0
H2996 H 0.40116 0.70372 0.00451 0.0
C2997 C 0.34424 0.73827 0.9832 0.0
C2998 C 0.36524 0.73834 0.96903 0.0
H2999 H 0.32663 0.72422 0.01463 0.0
H3000 H 0.32795 0.74697 0.97681 0.0
C3001 C 0.38592 0.72656 0.97757 0.0
C3002 C 0.3452 0.76254 0.51642 0.0
C3003 C 0.36624 0.76276 0.53056 0.0
H3004 H 0.3273 0.77629 0.48503 0.0
C3005 C 0.38673 0.77482 0.52197 0.0
H3006 H 0.32904 0.75362 0.52281 0.0
C3007 C 0.38569 0.78793 0.50054 0.0
C3008 C 0.36408 0.78934 0.48734 0.0
H3009 H 0.40314 0.77525 0.53257 0.0
H3010 H 0.40155 0.79785 0.49496 0.0
C3011 C 0.34411 0.77577 0.49497 0.0
C3012 C 0.72882 0.38565 0.52063 0.0
C3013 C 0.7408 0.36506 0.52908 0.0
H3014 H 0.7057 0.40071 0.4938 0.0
C3015 C 0.74082 0.34409 0.51488 0.0
H3016 H 0.72847 0.40197 0.53135 0.0
C3017 C 0.72743 0.34316 0.4935 0.0
C3018 C 0.71392 0.36323 0.48601 0.0
H3019 H 0.74965 0.32787 0.52122 0.0
H3020 H 0.72673 0.32639 0.48353 0.0
C3021 C 0.71559 0.38478 0.49925 0.0
C3022 C 0.1559 0.73969 0.51652 0.0
C3023 C 0.13504 0.73987 0.53089 0.0
H3024 H 0.17318 0.72552 0.48497 0.0
C3025 C 0.11426 0.72805 0.5226 0.0
H3026 H 0.17226 0.74838 0.52271 0.0
C3027 C 0.11482 0.71484 0.50121 0.0
C3028 C 0.13623 0.71304 0.48774 0.0
H3029 H 0.09801 0.72786 0.53345 0.0
H3030 H 0.09874 0.70513 0.49587 0.0
C3031 C 0.15651 0.72633 0.49511 0.0
C3032 C 0.77081 0.11344 0.52298 0.0
C3033 C 0.75887 0.13409 0.53133 0.0
H3034 H 0.79389 0.09817 0.49626 0.0
C3035 C 0.75895 0.155 0.51704 0.0
H3036 H 0.77105 0.09714 0.53374 0.0
C3037 C 0.77237 0.15579 0.49566 0.0
C3038 C 0.78581 0.13563 0.48826 0.0
H3039 H 0.75014 0.17127 0.52328 0.0
H3040 H 0.77313 0.1725 0.4856 0.0
C3041 C 0.78408 0.11417 0.50164 0.0
C3042 C 0.15563 0.77376 0.00585 0.0
C3043 C 0.13534 0.78718 0.01294 0.0
H3044 H 0.1715 0.75138 0.9786 0.0
C3045 C 0.11401 0.78529 0.99934 0.0
H3046 H 0.17223 0.7746 0.0161 0.0
C3047 C 0.11356 0.77187 0.97807 0.0
C3048 C 0.13436 0.7599 0.97006 0.0
H3049 H 0.09793 0.79513 0.00447 0.0
H3050 H 0.09741 0.77204 0.96707 0.0
C3051 C 0.15512 0.76016 0.98459 0.0
C3052 C 0.73646 0.1491 0.98659 0.0
C3053 C 0.73529 0.12781 0.97288 0.0
H3054 H 0.72333 0.16838 0.01739 0.0
C3055 C 0.72197 0.10822 0.98166 0.0
H3056 H 0.74634 0.16461 0.98002 0.0
C3057 C 0.70867 0.11043 0.00288 0.0
C3058 C 0.7083 0.13236 0.01563 0.0
H3059 H 0.72077 0.09167 0.97137 0.0
H3060 H 0.69781 0.09527 0.00864 0.0
C3061 C 0.72303 0.15138 0.00779 0.0
C3062 C 0.78836 0.33523 0.96946 0.0
C3063 C 0.76896 0.35101 0.96547 0.0
H3064 H 0.81485 0.32227 0.99437 0.0
C3065 C 0.76023 0.36506 0.98454 0.0
H3066 H 0.79536 0.32427 0.95486 0.0
C3067 C 0.7716 0.36421 0.00703 0.0
C3068 C 0.79164 0.34906 0.01079 0.0
H3069 H 0.74538 0.37743 0.98173 0.0
H3070 H 0.76498 0.37574 0.02134 0.0
C3071 C 0.79952 0.33413 0.99198 0.0
loop_
_geom_bond_atom_site_label_1
_geom_bond_atom_site_label_2
_geom_bond_distance
_geom_bond_site_symmetry_2
_ccdc_geom_bond_type
O0 Tb1 2.292 . S
O0 C3 1.255 . S
Tb1 O0 2.292 . S
Tb1 O17 2.326 . S
Tb1 O19 2.500 . S
Tb1 O20 2.473 . S
Tb1 O23 2.324 . S
Eu2 O6 2.292 . S
Eu2 C7 2.852 . S
Eu2 O18 2.324 . S
Eu2 O22 2.326 . S
Eu2 O24 2.500 . S
Eu2 O25 2.473 . S
C3 O0 1.255 . S
C3 O4 1.247 . S
O4 C3 1.247 . S
C5 O17 1.242 . S
C5 O18 1.258 . S
O6 Eu2 2.292 . S
O6 C8 1.255 . S
C7 Eu2 2.852 . S
C7 C11 1.503 . S
C7 O24 1.273 . S
C7 O25 1.257 . S
C8 O6 1.255 . S
C8 O9 1.247 . S
O9 C8 1.247 . S
C10 O22 1.242 . S
C10 O23 1.258 . S
C11 C7 1.503 . S
C11 C12 1.379 . S
C11 C16 1.392 . S
C12 C11 1.379 . S
C12 C13 1.404 . S
C12 H26 0.929 . S
C13 C12 1.404 . S
C13 C14 1.389 . S
C14 C13 1.389 . S
C14 C15 1.399 . S
C14 H27 0.931 . S
C15 C14 1.399 . S
C15 C16 1.390 . S
C16 C11 1.392 . S
C16 C15 1.390 . S
C16 H28 0.929 . S
O17 Tb1 2.326 . S
O17 C5 1.242 . S
O18 Eu2 2.324 . S
O18 C5 1.258 . S
O19 Tb1 2.500 . S
O19 C21 1.273 . S
O20 Tb1 2.473 . S
O20 C21 1.257 . S
C21 O19 1.273 . S
C21 O20 1.257 . S
O22 Eu2 2.326 . S
O22 C10 1.242 . S
O23 Tb1 2.324 . S
O23 C10 1.258 . S
O24 Eu2 2.500 . S
O24 C7 1.273 . S
O25 Eu2 2.473 . S
O25 C7 1.257 . S
H26 C12 0.929 . S
H27 C14 0.931 . S
H28 C16 0.929 . S
O29 Tb30 2.292 . S
O29 C32 1.255 . S
Tb30 O29 2.292 . S
Tb30 O46 2.326 . S
Tb30 O48 2.500 . S
Tb30 O49 2.473 . S
Tb30 O52 2.324 . S
Eu31 O35 2.292 . S
Eu31 C36 2.852 . S
Eu31 O47 2.324 . S
Eu31 O51 2.326 . S
Eu31 O53 2.500 . S
Eu31 O54 2.473 . S
C32 O29 1.255 . S
C32 O33 1.247 . S
O33 C32 1.247 . S
C34 O46 1.242 . S
C34 O47 1.258 . S
O35 Eu31 2.292 . S
O35 C37 1.255 . S
C36 Eu31 2.852 . S
C36 C40 1.503 . S
C36 O53 1.273 . S
C36 O54 1.257 . S
C37 O35 1.255 . S
C37 O38 1.247 . S
O38 C37 1.247 . S
C39 O51 1.242 . S
C39 O52 1.258 . S
C40 C36 1.503 . S
C40 C41 1.379 . S
C40 C45 1.392 . S
C41 C40 1.379 . S
C41 C42 1.404 . S
C41 H55 0.929 . S
C42 C41 1.404 . S
C42 C43 1.389 . S
C43 C42 1.389 . S
C43 C44 1.399 . S
C43 H56 0.931 . S
C44 C43 1.399 . S
C44 C45 1.390 . S
C45 C40 1.392 . S
C45 C44 1.390 . S
C45 H57 0.929 . S
O46 Tb30 2.326 . S
O46 C34 1.242 . S
O47 Eu31 2.324 . S
O47 C34 1.258 . S
O48 Tb30 2.500 . S
O48 C50 1.273 . S
O49 Tb30 2.473 . S
O49 C50 1.257 . S
C50 O48 1.273 . S
C50 O49 1.257 . S
O51 Eu31 2.326 . S
O51 C39 1.242 . S
O52 Tb30 2.324 . S
O52 C39 1.258 . S
O53 Eu31 2.500 . S
O53 C36 1.273 . S
O54 Eu31 2.473 . S
O54 C36 1.257 . S
H55 C41 0.929 . S
H56 C43 0.931 . S
H57 C45 0.929 . S
O58 Tb59 2.292 . S
O58 C61 1.255 . S
Tb59 O58 2.292 . S
Tb59 O75 2.326 . S
Tb59 O77 2.500 . S
Tb59 O78 2.473 . S
Tb59 O81 2.324 . S
Eu60 O64 2.292 . S
Eu60 C65 2.852 . S
Eu60 O76 2.324 . S
Eu60 O80 2.326 . S
Eu60 O82 2.500 . S
Eu60 O83 2.473 . S
C61 O58 1.255 . S
C61 O62 1.247 . S
O62 C61 1.247 . S
C63 O75 1.242 . S
C63 O76 1.258 . S
O64 Eu60 2.292 . S
O64 C66 1.255 . S
C65 Eu60 2.852 . S
C65 C69 1.503 . S
C65 O82 1.273 . S
C65 O83 1.257 . S
C66 O64 1.255 . S
C66 O67 1.247 . S
O67 C66 1.247 . S
C68 O80 1.242 . S
C68 O81 1.258 . S
C69 C65 1.503 . S
C69 C70 1.379 . S
C69 C74 1.392 . S
C70 C69 1.379 . S
C70 C71 1.404 . S
C70 H84 0.929 . S
C71 C70 1.404 . S
C71 C72 1.389 . S
C72 C71 1.389 . S
C72 C73 1.399 . S
C72 H85 0.931 . S
C73 C72 1.399 . S
C73 C74 1.390 . S
C74 C69 1.392 . S
C74 C73 1.390 . S
C74 H86 0.929 . S
O75 Tb59 2.326 . S
O75 C63 1.242 . S
O76 Eu60 2.324 . S
O76 C63 1.258 . S
O77 Tb59 2.500 . S
O77 C79 1.273 . S
O78 Tb59 2.473 . S
O78 C79 1.257 . S
C79 O77 1.273 . S
C79 O78 1.257 . S
O80 Eu60 2.326 . S
O80 C68 1.242 . S
O81 Tb59 2.324 . S
O81 C68 1.258 . S
O82 Eu60 2.500 . S
O82 C65 1.273 . S
O83 Eu60 2.473 . S
O83 C65 1.257 . S
H84 C70 0.929 . S
H85 C72 0.931 . S
H86 C74 0.929 . S
O87 Tb88 2.292 . S
O87 C90 1.255 . S
Tb88 O87 2.292 . S
Tb88 O104 2.326 . S
Tb88 O106 2.500 . S
Tb88 O107 2.473 . S
Tb88 O110 2.324 . S
Eu89 O93 2.292 . S
Eu89 C94 2.852 . S
Eu89 O105 2.324 . S
Eu89 O109 2.326 . S
Eu89 O111 2.500 . S
Eu89 O112 2.473 . S
C90 O87 1.255 . S
C90 O91 1.247 . S
O91 C90 1.247 . S
C92 O104 1.242 . S
C92 O105 1.258 . S
O93 Eu89 2.292 . S
O93 C95 1.255 . S
C94 Eu89 2.852 . S
C94 C98 1.503 . S
C94 O111 1.273 . S
C94 O112 1.257 . S
C95 O93 1.255 . S
C95 O96 1.247 . S
O96 C95 1.247 . S
C97 O109 1.242 . S
C97 O110 1.258 . S
C98 C94 1.503 . S
C98 C99 1.379 . S
C98 C103 1.392 . S
C99 C98 1.379 . S
C99 C100 1.404 . S
C99 H113 0.929 . S
C100 C99 1.404 . S
C100 C101 1.389 . S
C101 C100 1.389 . S
C101 C102 1.399 . S
C101 H114 0.931 . S
C102 C101 1.399 . S
C102 C103 1.390 . S
C103 C98 1.392 . S
C103 C102 1.390 . S
C103 H115 0.929 . S
O104 Tb88 2.326 . S
O104 C92 1.242 . S
O105 Eu89 2.324 . S
O105 C92 1.258 . S
O106 Tb88 2.500 . S
O106 C108 1.273 . S
O107 Tb88 2.473 . S
O107 C108 1.257 . S
C108 O106 1.273 . S
C108 O107 1.257 . S
O109 Eu89 2.326 . S
O109 C97 1.242 . S
O110 Tb88 2.324 . S
O110 C97 1.258 . S
O111 Eu89 2.500 . S
O111 C94 1.273 . S
O112 Eu89 2.473 . S
O112 C94 1.257 . S
H113 C99 0.929 . S
H114 C101 0.931 . S
H115 C103 0.929 . S
O116 Tb117 2.292 . S
O116 C119 1.255 . S
Tb117 O116 2.292 . S
Tb117 O133 2.326 . S
Tb117 O135 2.500 . S
Tb117 O136 2.473 . S
Tb117 O139 2.324 . S
Eu118 O122 2.292 . S
Eu118 C123 2.852 . S
Eu118 O134 2.324 . S
Eu118 O138 2.326 . S
Eu118 O140 2.500 . S
Eu118 O141 2.473 . S
C119 O116 1.255 . S
C119 O120 1.247 . S
O120 C119 1.247 . S
C121 O133 1.242 . S
C121 O134 1.258 . S
O122 Eu118 2.292 . S
O122 C124 1.255 . S
C123 Eu118 2.852 . S
C123 C127 1.503 . S
C123 O140 1.273 . S
C123 O141 1.257 . S
C124 O122 1.255 . S
C124 O125 1.247 . S
O125 C124 1.247 . S
C126 O138 1.242 . S
C126 O139 1.258 . S
C127 C123 1.503 . S
C127 C128 1.379 . S
C127 C132 1.392 . S
C128 C127 1.379 . S
C128 C129 1.404 . S
C128 H142 0.929 . S
C129 C128 1.404 . S
C129 C130 1.389 . S
C130 C129 1.389 . S
C130 C131 1.399 . S
C130 H143 0.931 . S
C131 C130 1.399 . S
C131 C132 1.390 . S
C132 C127 1.392 . S
C132 C131 1.390 . S
C132 H144 0.929 . S
O133 Tb117 2.326 . S
O133 C121 1.242 . S
O134 Eu118 2.324 . S
O134 C121 1.258 . S
O135 Tb117 2.500 . S
O135 C137 1.273 . S
O136 Tb117 2.473 . S
O136 C137 1.257 . S
C137 O135 1.273 . S
C137 O136 1.257 . S
O138 Eu118 2.326 . S
O138 C126 1.242 . S
O139 Tb117 2.324 . S
O139 C126 1.258 . S
O140 Eu118 2.500 . S
O140 C123 1.273 . S
O141 Eu118 2.473 . S
O141 C123 1.257 . S
H142 C128 0.929 . S
H143 C130 0.931 . S
H144 C132 0.929 . S
O145 Tb146 2.292 . S
O145 C148 1.255 . S
Tb146 O145 2.292 . S
Tb146 O162 2.326 . S
Tb146 O164 2.500 . S
Tb146 O165 2.473 . S
Tb146 O168 2.324 . S
Eu147 O151 2.292 . S
Eu147 C152 2.852 . S
Eu147 O163 2.324 . S
Eu147 O167 2.326 . S
Eu147 O169 2.500 . S
Eu147 O170 2.473 . S
C148 O145 1.255 . S
C148 O149 1.247 . S
O149 C148 1.247 . S
C150 O162 1.242 . S
C150 O163 1.258 . S
O151 Eu147 2.292 . S
O151 C153 1.255 . S
C152 Eu147 2.852 . S
C152 C156 1.503 . S
C152 O169 1.273 . S
C152 O170 1.257 . S
C153 O151 1.255 . S
C153 O154 1.247 . S
O154 C153 1.247 . S
C155 O167 1.242 . S
C155 O168 1.258 . S
C156 C152 1.503 . S
C156 C157 1.379 . S
C156 C161 1.392 . S
C157 C156 1.379 . S
C157 C158 1.404 . S
C157 H171 0.929 . S
C158 C157 1.404 . S
C158 C159 1.389 . S
C159 C158 1.389 . S
C159 C160 1.399 . S
C159 H172 0.931 . S
C160 C159 1.399 . S
C160 C161 1.390 . S
C161 C156 1.392 . S
C161 C160 1.390 . S
C161 H173 0.929 . S
O162 Tb146 2.326 . S
O162 C150 1.242 . S
O163 Eu147 2.324 . S
O163 C150 1.258 . S
O164 Tb146 2.500 . S
O164 C166 1.273 . S
O165 Tb146 2.473 . S
O165 C166 1.257 . S
C166 O164 1.273 . S
C166 O165 1.257 . S
O167 Eu147 2.326 . S
O167 C155 1.242 . S
O168 Tb146 2.324 . S
O168 C155 1.258 . S
O169 Eu147 2.500 . S
O169 C152 1.273 . S
O170 Eu147 2.473 . S
O170 C152 1.257 . S
H171 C157 0.929 . S
H172 C159 0.931 . S
H173 C161 0.929 . S
O174 Tb175 2.292 . S
O174 C177 1.255 . S
Tb175 O174 2.292 . S
Tb175 O191 2.326 . S
Tb175 O193 2.500 . S
Tb175 O194 2.473 . S
Tb175 O197 2.324 . S
Eu176 O180 2.292 . S
Eu176 C181 2.852 . S
Eu176 O192 2.324 . S
Eu176 O196 2.326 . S
Eu176 O198 2.500 . S
Eu176 O199 2.473 . S
C177 O174 1.255 . S
C177 O178 1.247 . S
O178 C177 1.247 . S
C179 O191 1.242 . S
C179 O192 1.258 . S
O180 Eu176 2.292 . S
O180 C182 1.255 . S
C181 Eu176 2.852 . S
C181 C185 1.503 . S
C181 O198 1.273 . S
C181 O199 1.257 . S
C182 O180 1.255 . S
C182 O183 1.247 . S
O183 C182 1.247 . S
C184 O196 1.242 . S
C184 O197 1.258 . S
C185 C181 1.503 . S
C185 C186 1.379 . S
C185 C190 1.392 . S
C186 C185 1.379 . S
C186 C187 1.404 . S
C186 H200 0.929 . S
C187 C186 1.404 . S
C187 C188 1.389 . S
C188 C187 1.389 . S
C188 C189 1.399 . S
C188 H201 0.931 . S
C189 C188 1.399 . S
C189 C190 1.390 . S
C190 C185 1.392 . S
C190 C189 1.390 . S
C190 H202 0.929 . S
O191 Tb175 2.326 . S
O191 C179 1.242 . S
O192 Eu176 2.324 . S
O192 C179 1.258 . S
O193 Tb175 2.500 . S
O193 C195 1.273 . S
O194 Tb175 2.473 . S
O194 C195 1.257 . S
C195 O193 1.273 . S
C195 O194 1.257 . S
O196 Eu176 2.326 . S
O196 C184 1.242 . S
O197 Tb175 2.324 . S
O197 C184 1.258 . S
O198 Eu176 2.500 . S
O198 C181 1.273 . S
O199 Eu176 2.473 . S
O199 C181 1.257 . S
H200 C186 0.929 . S
H201 C188 0.931 . S
H202 C190 0.929 . S
O203 Tb204 2.292 . S
O203 C206 1.255 . S
Tb204 O203 2.292 . S
Tb204 O220 2.326 . S
Tb204 O222 2.500 . S
Tb204 O223 2.473 . S
Tb204 O226 2.324 . S
Eu205 O209 2.292 . S
Eu205 C210 2.852 . S
Eu205 O221 2.324 . S
Eu205 O225 2.326 . S
Eu205 O227 2.500 . S
Eu205 O228 2.473 . S
C206 O203 1.255 . S
C206 O207 1.247 . S
O207 C206 1.247 . S
C208 O220 1.242 . S
C208 O221 1.258 . S
O209 Eu205 2.292 . S
O209 C211 1.255 . S
C210 Eu205 2.852 . S
C210 C214 1.503 . S
C210 O227 1.273 . S
C210 O228 1.257 . S
C211 O209 1.255 . S
C211 O212 1.247 . S
O212 C211 1.247 . S
C213 O225 1.242 . S
C213 O226 1.258 . S
C214 C210 1.503 . S
C214 C215 1.379 . S
C214 C219 1.392 . S
C215 C214 1.379 . S
C215 C216 1.404 . S
C215 H229 0.929 . S
C216 C215 1.404 . S
C216 C217 1.389 . S
C217 C216 1.389 . S
C217 C218 1.399 . S
C217 H230 0.931 . S
C218 C217 1.399 . S
C218 C219 1.390 . S
C219 C214 1.392 . S
C219 C218 1.390 . S
C219 H231 0.929 . S
O220 Tb204 2.326 . S
O220 C208 1.242 . S
O221 Eu205 2.324 . S
O221 C208 1.258 . S
O222 Tb204 2.500 . S
O222 C224 1.273 . S
O223 Tb204 2.473 . S
O223 C224 1.257 . S
C224 O222 1.273 . S
C224 O223 1.257 . S
O225 Eu205 2.326 . S
O225 C213 1.242 . S
O226 Tb204 2.324 . S
O226 C213 1.258 . S
O227 Eu205 2.500 . S
O227 C210 1.273 . S
O228 Eu205 2.473 . S
O228 C210 1.257 . S
H229 C215 0.929 . S
H230 C217 0.931 . S
H231 C219 0.929 . S
O232 Tb233 2.292 . S
O232 C235 1.255 . S
Tb233 O232 2.292 . S
Tb233 O249 2.326 . S
Tb233 O251 2.500 . S
Tb233 O252 2.473 . S
Tb233 O255 2.324 . S
Eu234 O238 2.292 . S
Eu234 C239 2.852 . S
Eu234 O250 2.324 . S
Eu234 O254 2.326 . S
Eu234 O256 2.500 . S
Eu234 O257 2.473 . S
C235 O232 1.255 . S
C235 O236 1.247 . S
O236 C235 1.247 . S
C237 O249 1.242 . S
C237 O250 1.258 . S
O238 Eu234 2.292 . S
O238 C240 1.255 . S
C239 Eu234 2.852 . S
C239 C243 1.503 . S
C239 O256 1.273 . S
C239 O257 1.257 . S
C240 O238 1.255 . S
C240 O241 1.247 . S
O241 C240 1.247 . S
C242 O254 1.242 . S
C242 O255 1.258 . S
C243 C239 1.503 . S
C243 C244 1.379 . S
C243 C248 1.392 . S
C244 C243 1.379 . S
C244 C245 1.404 . S
C244 H258 0.929 . S
C245 C244 1.404 . S
C245 C246 1.389 . S
C246 C245 1.389 . S
C246 C247 1.399 . S
C246 H259 0.931 . S
C247 C246 1.399 . S
C247 C248 1.390 . S
C248 C243 1.392 . S
C248 C247 1.390 . S
C248 H260 0.929 . S
O249 Tb233 2.326 . S
O249 C237 1.242 . S
O250 Eu234 2.324 . S
O250 C237 1.258 . S
O251 Tb233 2.500 . S
O251 C253 1.273 . S
O252 Tb233 2.473 . S
O252 C253 1.257 . S
C253 O251 1.273 . S
C253 O252 1.257 . S
O254 Eu234 2.326 . S
O254 C242 1.242 . S
O255 Tb233 2.324 . S
O255 C242 1.258 . S
O256 Eu234 2.500 . S
O256 C239 1.273 . S
O257 Eu234 2.473 . S
O257 C239 1.257 . S
H258 C244 0.929 . S
H259 C246 0.931 . S
H260 C248 0.929 . S
O261 Tb262 2.292 . S
O261 C264 1.255 . S
Tb262 O261 2.292 . S
Tb262 O278 2.326 . S
Tb262 O280 2.500 . S
Tb262 O281 2.473 . S
Tb262 O284 2.324 . S
Eu263 O267 2.292 . S
Eu263 C268 2.852 . S
Eu263 O279 2.324 . S
Eu263 O283 2.326 . S
Eu263 O285 2.500 . S
Eu263 O286 2.473 . S
C264 O261 1.255 . S
C264 O265 1.247 . S
O265 C264 1.247 . S
C266 O278 1.242 . S
C266 O279 1.258 . S
O267 Eu263 2.292 . S
O267 C269 1.255 . S
C268 Eu263 2.852 . S
C268 C272 1.503 . S
C268 O285 1.273 . S
C268 O286 1.257 . S
C269 O267 1.255 . S
C269 O270 1.247 . S
O270 C269 1.247 . S
C271 O283 1.242 . S
C271 O284 1.258 . S
C272 C268 1.503 . S
C272 C273 1.379 . S
C272 C277 1.392 . S
C273 C272 1.379 . S
C273 C274 1.404 . S
C273 H287 0.929 . S
C274 C273 1.404 . S
C274 C275 1.389 . S
C275 C274 1.389 . S
C275 C276 1.399 . S
C275 H288 0.931 . S
C276 C275 1.399 . S
C276 C277 1.390 . S
C277 C272 1.392 . S
C277 C276 1.390 . S
C277 H289 0.929 . S
O278 Tb262 2.326 . S
O278 C266 1.242 . S
O279 Eu263 2.324 . S
O279 C266 1.258 . S
O280 Tb262 2.500 . S
O280 C282 1.273 . S
O281 Tb262 2.473 . S
O281 C282 1.257 . S
C282 O280 1.273 . S
C282 O281 1.257 . S
O283 Eu263 2.326 . S
O283 C271 1.242 . S
O284 Tb262 2.324 . S
O284 C271 1.258 . S
O285 Eu263 2.500 . S
O285 C268 1.273 . S
O286 Eu263 2.473 . S
O286 C268 1.257 . S
H287 C273 0.929 . S
H288 C275 0.931 . S
H289 C277 0.929 . S
O290 Tb291 2.292 . S
O290 C293 1.255 . S
Tb291 O290 2.292 . S
Tb291 O307 2.326 . S
Tb291 O309 2.500 . S
Tb291 O310 2.473 . S
Tb291 O313 2.324 . S
Eu292 O296 2.292 . S
Eu292 C297 2.852 . S
Eu292 O308 2.324 . S
Eu292 O312 2.326 . S
Eu292 O314 2.500 . S
Eu292 O315 2.473 . S
C293 O290 1.255 . S
C293 O294 1.247 . S
O294 C293 1.247 . S
C295 O307 1.242 . S
C295 O308 1.258 . S
O296 Eu292 2.292 . S
O296 C298 1.255 . S
C297 Eu292 2.852 . S
C297 C301 1.503 . S
C297 O314 1.273 . S
C297 O315 1.257 . S
C298 O296 1.255 . S
C298 O299 1.247 . S
O299 C298 1.247 . S
C300 O312 1.242 . S
C300 O313 1.258 . S
C301 C297 1.503 . S
C301 C302 1.379 . S
C301 C306 1.392 . S
C302 C301 1.379 . S
C302 C303 1.404 . S
C302 H316 0.929 . S
C303 C302 1.404 . S
C303 C304 1.389 . S
C304 C303 1.389 . S
C304 C305 1.399 . S
C304 H317 0.931 . S
C305 C304 1.399 . S
C305 C306 1.390 . S
C306 C301 1.392 . S
C306 C305 1.390 . S
C306 H318 0.929 . S
O307 Tb291 2.326 . S
O307 C295 1.242 . S
O308 Eu292 2.324 . S
O308 C295 1.258 . S
O309 Tb291 2.500 . S
O309 C311 1.273 . S
O310 Tb291 2.473 . S
O310 C311 1.257 . S
C311 O309 1.273 . S
C311 O310 1.257 . S
O312 Eu292 2.326 . S
O312 C300 1.242 . S
O313 Tb291 2.324 . S
O313 C300 1.258 . S
O314 Eu292 2.500 . S
O314 C297 1.273 . S
O315 Eu292 2.473 . S
O315 C297 1.257 . S
H316 C302 0.929 . S
H317 C304 0.931 . S
H318 C306 0.929 . S
O319 Tb320 2.292 . S
O319 C322 1.255 . S
Tb320 O319 2.292 . S
Tb320 O336 2.326 . S
Tb320 O338 2.500 . S
Tb320 O339 2.473 . S
Tb320 O342 2.324 . S
Eu321 O325 2.292 . S
Eu321 C326 2.852 . S
Eu321 O337 2.324 . S
Eu321 O341 2.326 . S
Eu321 O343 2.500 . S
Eu321 O344 2.473 . S
C322 O319 1.255 . S
C322 O323 1.247 . S
O323 C322 1.247 . S
C324 O336 1.242 . S
C324 O337 1.258 . S
O325 Eu321 2.292 . S
O325 C327 1.255 . S
C326 Eu321 2.852 . S
C326 C330 1.503 . S
C326 O343 1.273 . S
C326 O344 1.257 . S
C327 O325 1.255 . S
C327 O328 1.247 . S
O328 C327 1.247 . S
C329 O341 1.242 . S
C329 O342 1.258 . S
C330 C326 1.503 . S
C330 C331 1.379 . S
C330 C335 1.392 . S
C331 C330 1.379 . S
C331 C332 1.404 . S
C331 H345 0.929 . S
C332 C331 1.404 . S
C332 C333 1.389 . S
C333 C332 1.389 . S
C333 C334 1.399 . S
C333 H346 0.931 . S
C334 C333 1.399 . S
C334 C335 1.390 . S
C335 C330 1.392 . S
C335 C334 1.390 . S
C335 H347 0.929 . S
O336 Tb320 2.326 . S
O336 C324 1.242 . S
O337 Eu321 2.324 . S
O337 C324 1.258 . S
O338 Tb320 2.500 . S
O338 C340 1.273 . S
O339 Tb320 2.473 . S
O339 C340 1.257 . S
C340 O338 1.273 . S
C340 O339 1.257 . S
O341 Eu321 2.326 . S
O341 C329 1.242 . S
O342 Tb320 2.324 . S
O342 C329 1.258 . S
O343 Eu321 2.500 . S
O343 C326 1.273 . S
O344 Eu321 2.473 . S
O344 C326 1.257 . S
H345 C331 0.929 . S
H346 C333 0.931 . S
H347 C335 0.929 . S
O348 Tb349 2.292 . S
O348 C351 1.255 . S
Tb349 O348 2.292 . S
Tb349 O365 2.326 . S
Tb349 O367 2.500 . S
Tb349 O368 2.473 . S
Tb349 O371 2.324 . S
Eu350 O354 2.292 . S
Eu350 C355 2.852 . S
Eu350 O366 2.324 . S
Eu350 O370 2.326 . S
Eu350 O372 2.500 . S
Eu350 O373 2.473 . S
C351 O348 1.255 . S
C351 O352 1.247 . S
O352 C351 1.247 . S
C353 O365 1.242 . S
C353 O366 1.258 . S
O354 Eu350 2.292 . S
O354 C356 1.255 . S
C355 Eu350 2.852 . S
C355 C359 1.503 . S
C355 O372 1.273 . S
C355 O373 1.257 . S
C356 O354 1.255 . S
C356 O357 1.247 . S
O357 C356 1.247 . S
C358 O370 1.242 . S
C358 O371 1.258 . S
C359 C355 1.503 . S
C359 C360 1.379 . S
C359 C364 1.392 . S
C360 C359 1.379 . S
C360 C361 1.404 . S
C360 H374 0.929 . S
C361 C360 1.404 . S
C361 C362 1.389 . S
C362 C361 1.389 . S
C362 C363 1.399 . S
C362 H375 0.931 . S
C363 C362 1.399 . S
C363 C364 1.390 . S
C364 C359 1.392 . S
C364 C363 1.390 . S
C364 H376 0.929 . S
O365 Tb349 2.326 . S
O365 C353 1.242 . S
O366 Eu350 2.324 . S
O366 C353 1.258 . S
O367 Tb349 2.500 . S
O367 C369 1.273 . S
O368 Tb349 2.473 . S
O368 C369 1.257 . S
C369 O367 1.273 . S
C369 O368 1.257 . S
O370 Eu350 2.326 . S
O370 C358 1.242 . S
O371 Tb349 2.324 . S
O371 C358 1.258 . S
O372 Eu350 2.500 . S
O372 C355 1.273 . S
O373 Eu350 2.473 . S
O373 C355 1.257 . S
H374 C360 0.929 . S
H375 C362 0.931 . S
H376 C364 0.929 . S
O377 Tb378 2.292 . S
O377 C380 1.255 . S
Tb378 O377 2.292 . S
Tb378 O394 2.326 . S
Tb378 O396 2.500 . S
Tb378 O397 2.473 . S
Tb378 O400 2.324 . S
Eu379 O383 2.292 . S
Eu379 C384 2.852 . S
Eu379 O395 2.324 . S
Eu379 O399 2.326 . S
Eu379 O401 2.500 . S
Eu379 O402 2.473 . S
C380 O377 1.255 . S
C380 O381 1.247 . S
O381 C380 1.247 . S
C382 O394 1.242 . S
C382 O395 1.258 . S
O383 Eu379 2.292 . S
O383 C385 1.255 . S
C384 Eu379 2.852 . S
C384 C388 1.503 . S
C384 O401 1.273 . S
C384 O402 1.257 . S
C385 O383 1.255 . S
C385 O386 1.247 . S
O386 C385 1.247 . S
C387 O399 1.242 . S
C387 O400 1.258 . S
C388 C384 1.503 . S
C388 C389 1.379 . S
C388 C393 1.392 . S
C389 C388 1.379 . S
C389 C390 1.404 . S
C389 H403 0.929 . S
C390 C389 1.404 . S
C390 C391 1.389 . S
C391 C390 1.389 . S
C391 C392 1.399 . S
C391 H404 0.931 . S
C392 C391 1.399 . S
C392 C393 1.390 . S
C393 C388 1.392 . S
C393 C392 1.390 . S
C393 H405 0.929 . S
O394 Tb378 2.326 . S
O394 C382 1.242 . S
O395 Eu379 2.324 . S
O395 C382 1.258 . S
O396 Tb378 2.500 . S
O396 C398 1.273 . S
O397 Tb378 2.473 . S
O397 C398 1.257 . S
C398 O396 1.273 . S
C398 O397 1.257 . S
O399 Eu379 2.326 . S
O399 C387 1.242 . S
O400 Tb378 2.324 . S
O400 C387 1.258 . S
O401 Eu379 2.500 . S
O401 C384 1.273 . S
O402 Eu379 2.473 . S
O402 C384 1.257 . S
H403 C389 0.929 . S
H404 C391 0.931 . S
H405 C393 0.929 . S
O406 Tb407 2.292 . S
O406 C409 1.255 . S
Tb407 O406 2.292 . S
Tb407 O423 2.326 . S
Tb407 O425 2.500 . S
Tb407 O426 2.473 . S
Tb407 O429 2.324 . S
Eu408 O412 2.292 . S
Eu408 C413 2.852 . S
Eu408 O424 2.324 . S
Eu408 O428 2.326 . S
Eu408 O430 2.500 . S
Eu408 O431 2.473 . S
C409 O406 1.255 . S
C409 O410 1.247 . S
O410 C409 1.247 . S
C411 O423 1.242 . S
C411 O424 1.258 . S
O412 Eu408 2.292 . S
O412 C414 1.255 . S
C413 Eu408 2.852 . S
C413 C417 1.503 . S
C413 O430 1.273 . S
C413 O431 1.257 . S
C414 O412 1.255 . S
C414 O415 1.247 . S
O415 C414 1.247 . S
C416 O428 1.242 . S
C416 O429 1.258 . S
C417 C413 1.503 . S
C417 C418 1.379 . S
C417 C422 1.392 . S
C418 C417 1.379 . S
C418 C419 1.404 . S
C418 H432 0.929 . S
C419 C418 1.404 . S
C419 C420 1.389 . S
C420 C419 1.389 . S
C420 C421 1.399 . S
C420 H433 0.931 . S
C421 C420 1.399 . S
C421 C422 1.390 . S
C422 C417 1.392 . S
C422 C421 1.390 . S
C422 H434 0.929 . S
O423 Tb407 2.326 . S
O423 C411 1.242 . S
O424 Eu408 2.324 . S
O424 C411 1.258 . S
O425 Tb407 2.500 . S
O425 C427 1.273 . S
O426 Tb407 2.473 . S
O426 C427 1.257 . S
C427 O425 1.273 . S
C427 O426 1.257 . S
O428 Eu408 2.326 . S
O428 C416 1.242 . S
O429 Tb407 2.324 . S
O429 C416 1.258 . S
O430 Eu408 2.500 . S
O430 C413 1.273 . S
O431 Eu408 2.473 . S
O431 C413 1.257 . S
H432 C418 0.929 . S
H433 C420 0.931 . S
H434 C422 0.929 . S
O435 Tb436 2.292 . S
O435 C438 1.255 . S
Tb436 O435 2.292 . S
Tb436 O452 2.326 . S
Tb436 O454 2.500 . S
Tb436 O455 2.473 . S
Tb436 O458 2.324 . S
Eu437 O441 2.292 . S
Eu437 C442 2.852 . S
Eu437 O453 2.324 . S
Eu437 O457 2.326 . S
Eu437 O459 2.500 . S
Eu437 O460 2.473 . S
C438 O435 1.255 . S
C438 O439 1.247 . S
O439 C438 1.247 . S
C440 O452 1.242 . S
C440 O453 1.258 . S
O441 Eu437 2.292 . S
O441 C443 1.255 . S
C442 Eu437 2.852 . S
C442 C446 1.503 . S
C442 O459 1.273 . S
C442 O460 1.257 . S
C443 O441 1.255 . S
C443 O444 1.247 . S
O444 C443 1.247 . S
C445 O457 1.242 . S
C445 O458 1.258 . S
C446 C442 1.503 . S
C446 C447 1.379 . S
C446 C451 1.392 . S
C447 C446 1.379 . S
C447 C448 1.404 . S
C447 H461 0.929 . S
C448 C447 1.404 . S
C448 C449 1.389 . S
C449 C448 1.389 . S
C449 C450 1.399 . S
C449 H462 0.931 . S
C450 C449 1.399 . S
C450 C451 1.390 . S
C451 C446 1.392 . S
C451 C450 1.390 . S
C451 H463 0.929 . S
O452 Tb436 2.326 . S
O452 C440 1.242 . S
O453 Eu437 2.324 . S
O453 C440 1.258 . S
O454 Tb436 2.500 . S
O454 C456 1.273 . S
O455 Tb436 2.473 . S
O455 C456 1.257 . S
C456 O454 1.273 . S
C456 O455 1.257 . S
O457 Eu437 2.326 . S
O457 C445 1.242 . S
O458 Tb436 2.324 . S
O458 C445 1.258 . S
O459 Eu437 2.500 . S
O459 C442 1.273 . S
O460 Eu437 2.473 . S
O460 C442 1.257 . S
H461 C447 0.929 . S
H462 C449 0.931 . S
H463 C451 0.929 . S
O464 Tb465 2.292 . S
O464 C467 1.255 . S
Tb465 O464 2.292 . S
Tb465 O481 2.326 . S
Tb465 O483 2.500 . S
Tb465 O484 2.473 . S
Tb465 O487 2.324 . S
Eu466 O470 2.292 . S
Eu466 C471 2.852 . S
Eu466 O482 2.324 . S
Eu466 O486 2.326 . S
Eu466 O488 2.500 . S
Eu466 O489 2.473 . S
C467 O464 1.255 . S
C467 O468 1.247 . S
O468 C467 1.247 . S
C469 O481 1.242 . S
C469 O482 1.258 . S
O470 Eu466 2.292 . S
O470 C472 1.255 . S
C471 Eu466 2.852 . S
C471 C475 1.503 . S
C471 O488 1.273 . S
C471 O489 1.257 . S
C472 O470 1.255 . S
C472 O473 1.247 . S
O473 C472 1.247 . S
C474 O486 1.242 . S
C474 O487 1.258 . S
C475 C471 1.503 . S
C475 C476 1.379 . S
C475 C480 1.392 . S
C476 C475 1.379 . S
C476 C477 1.404 . S
C476 H490 0.929 . S
C477 C476 1.404 . S
C477 C478 1.389 . S
C478 C477 1.389 . S
C478 C479 1.399 . S
C478 H491 0.931 . S
C479 C478 1.399 . S
C479 C480 1.390 . S
C480 C475 1.392 . S
C480 C479 1.390 . S
C480 H492 0.929 . S
O481 Tb465 2.326 . S
O481 C469 1.242 . S
O482 Eu466 2.324 . S
O482 C469 1.258 . S
O483 Tb465 2.500 . S
O483 C485 1.273 . S
O484 Tb465 2.473 . S
O484 C485 1.257 . S
C485 O483 1.273 . S
C485 O484 1.257 . S
O486 Eu466 2.326 . S
O486 C474 1.242 . S
O487 Tb465 2.324 . S
O487 C474 1.258 . S
O488 Eu466 2.500 . S
O488 C471 1.273 . S
O489 Eu466 2.473 . S
O489 C471 1.257 . S
H490 C476 0.929 . S
H491 C478 0.931 . S
H492 C480 0.929 . S
O493 Tb494 2.292 . S
O493 C496 1.255 . S
Tb494 O493 2.292 . S
Tb494 O510 2.326 . S
Tb494 O512 2.500 . S
Tb494 O513 2.473 . S
Tb494 O516 2.324 . S
Eu495 O499 2.292 . S
Eu495 C500 2.852 . S
Eu495 O511 2.324 . S
Eu495 O515 2.326 . S
Eu495 O517 2.500 . S
Eu495 O518 2.473 . S
C496 O493 1.255 . S
C496 O497 1.247 . S
O497 C496 1.247 . S
C498 O510 1.242 . S
C498 O511 1.258 . S
O499 Eu495 2.292 . S
O499 C501 1.255 . S
C500 Eu495 2.852 . S
C500 C504 1.503 . S
C500 O517 1.273 . S
C500 O518 1.257 . S
C501 O499 1.255 . S
C501 O502 1.247 . S
O502 C501 1.247 . S
C503 O515 1.242 . S
C503 O516 1.258 . S
C504 C500 1.503 . S
C504 C505 1.379 . S
C504 C509 1.392 . S
C505 C504 1.379 . S
C505 C506 1.404 . S
C505 H519 0.929 . S
C506 C505 1.404 . S
C506 C507 1.389 . S
C507 C506 1.389 . S
C507 C508 1.399 . S
C507 H520 0.931 . S
C508 C507 1.399 . S
C508 C509 1.390 . S
C509 C504 1.392 . S
C509 C508 1.390 . S
C509 H521 0.929 . S
O510 Tb494 2.326 . S
O510 C498 1.242 . S
O511 Eu495 2.324 . S
O511 C498 1.258 . S
O512 Tb494 2.500 . S
O512 C514 1.273 . S
O513 Tb494 2.473 . S
O513 C514 1.257 . S
C514 O512 1.273 . S
C514 O513 1.257 . S
O515 Eu495 2.326 . S
O515 C503 1.242 . S
O516 Tb494 2.324 . S
O516 C503 1.258 . S
O517 Eu495 2.500 . S
O517 C500 1.273 . S
O518 Eu495 2.473 . S
O518 C500 1.257 . S
H519 C505 0.929 . S
H520 C507 0.931 . S
H521 C509 0.929 . S
O522 Tb523 2.292 . S
O522 C525 1.255 . S
Tb523 O522 2.292 . S
Tb523 O539 2.326 . S
Tb523 O541 2.500 . S
Tb523 O542 2.473 . S
Tb523 O545 2.324 . S
Eu524 O528 2.292 . S
Eu524 C529 2.852 . S
Eu524 O540 2.324 . S
Eu524 O544 2.326 . S
Eu524 O546 2.500 . S
Eu524 O547 2.473 . S
C525 O522 1.255 . S
C525 O526 1.247 . S
O526 C525 1.247 . S
C527 O539 1.242 . S
C527 O540 1.258 . S
O528 Eu524 2.292 . S
O528 C530 1.255 . S
C529 Eu524 2.852 . S
C529 C533 1.503 . S
C529 O546 1.273 . S
C529 O547 1.257 . S
C530 O528 1.255 . S
C530 O531 1.247 . S
O531 C530 1.247 . S
C532 O544 1.242 . S
C532 O545 1.258 . S
C533 C529 1.503 . S
C533 C534 1.379 . S
C533 C538 1.392 . S
C534 C533 1.379 . S
C534 C535 1.404 . S
C534 H548 0.929 . S
C535 C534 1.404 . S
C535 C536 1.389 . S
C536 C535 1.389 . S
C536 C537 1.399 . S
C536 H549 0.931 . S
C537 C536 1.399 . S
C537 C538 1.390 . S
C538 C533 1.392 . S
C538 C537 1.390 . S
C538 H550 0.929 . S
O539 Tb523 2.326 . S
O539 C527 1.242 . S
O540 Eu524 2.324 . S
O540 C527 1.258 . S
O541 Tb523 2.500 . S
O541 C543 1.273 . S
O542 Tb523 2.473 . S
O542 C543 1.257 . S
C543 O541 1.273 . S
C543 O542 1.257 . S
O544 Eu524 2.326 . S
O544 C532 1.242 . S
O545 Tb523 2.324 . S
O545 C532 1.258 . S
O546 Eu524 2.500 . S
O546 C529 1.273 . S
O547 Eu524 2.473 . S
O547 C529 1.257 . S
H548 C534 0.929 . S
H549 C536 0.931 . S
H550 C538 0.929 . S
O551 Tb552 2.292 . S
O551 C554 1.255 . S
Tb552 O551 2.292 . S
Tb552 O568 2.326 . S
Tb552 O570 2.500 . S
Tb552 O571 2.473 . S
Tb552 O574 2.324 . S
Eu553 O557 2.292 . S
Eu553 C558 2.852 . S
Eu553 O569 2.324 . S
Eu553 O573 2.326 . S
Eu553 O575 2.500 . S
Eu553 O576 2.473 . S
C554 O551 1.255 . S
C554 O555 1.247 . S
O555 C554 1.247 . S
C556 O568 1.242 . S
C556 O569 1.258 . S
O557 Eu553 2.292 . S
O557 C559 1.255 . S
C558 Eu553 2.852 . S
C558 C562 1.503 . S
C558 O575 1.273 . S
C558 O576 1.257 . S
C559 O557 1.255 . S
C559 O560 1.247 . S
O560 C559 1.247 . S
C561 O573 1.242 . S
C561 O574 1.258 . S
C562 C558 1.503 . S
C562 C563 1.379 . S
C562 C567 1.392 . S
C563 C562 1.379 . S
C563 C564 1.404 . S
C563 H577 0.929 . S
C564 C563 1.404 . S
C564 C565 1.389 . S
C565 C564 1.389 . S
C565 C566 1.399 . S
C565 H578 0.931 . S
C566 C565 1.399 . S
C566 C567 1.390 . S
C567 C562 1.392 . S
C567 C566 1.390 . S
C567 H579 0.929 . S
O568 Tb552 2.326 . S
O568 C556 1.242 . S
O569 Eu553 2.324 . S
O569 C556 1.258 . S
O570 Tb552 2.500 . S
O570 C572 1.273 . S
O571 Tb552 2.473 . S
O571 C572 1.257 . S
C572 O570 1.273 . S
C572 O571 1.257 . S
O573 Eu553 2.326 . S
O573 C561 1.242 . S
O574 Tb552 2.324 . S
O574 C561 1.258 . S
O575 Eu553 2.500 . S
O575 C558 1.273 . S
O576 Eu553 2.473 . S
O576 C558 1.257 . S
H577 C563 0.929 . S
H578 C565 0.931 . S
H579 C567 0.929 . S
O580 Tb581 2.292 . S
O580 C583 1.255 . S
Tb581 O580 2.292 . S
Tb581 O597 2.326 . S
Tb581 O599 2.500 . S
Tb581 O600 2.473 . S
Tb581 O603 2.324 . S
Eu582 O586 2.292 . S
Eu582 C587 2.852 . S
Eu582 O598 2.324 . S
Eu582 O602 2.326 . S
Eu582 O604 2.500 . S
Eu582 O605 2.473 . S
C583 O580 1.255 . S
C583 O584 1.247 . S
O584 C583 1.247 . S
C585 O597 1.242 . S
C585 O598 1.258 . S
O586 Eu582 2.292 . S
O586 C588 1.255 . S
C587 Eu582 2.852 . S
C587 C591 1.503 . S
C587 O604 1.273 . S
C587 O605 1.257 . S
C588 O586 1.255 . S
C588 O589 1.247 . S
O589 C588 1.247 . S
C590 O602 1.242 . S
C590 O603 1.258 . S
C591 C587 1.503 . S
C591 C592 1.379 . S
C591 C596 1.392 . S
C592 C591 1.379 . S
C592 C593 1.404 . S
C592 H606 0.929 . S
C593 C592 1.404 . S
C593 C594 1.389 . S
C594 C593 1.389 . S
C594 C595 1.399 . S
C594 H607 0.931 . S
C595 C594 1.399 . S
C595 C596 1.390 . S
C596 C591 1.392 . S
C596 C595 1.390 . S
C596 H608 0.929 . S
O597 Tb581 2.326 . S
O597 C585 1.242 . S
O598 Eu582 2.324 . S
O598 C585 1.258 . S
O599 Tb581 2.500 . S
O599 C601 1.273 . S
O600 Tb581 2.473 . S
O600 C601 1.257 . S
C601 O599 1.273 . S
C601 O600 1.257 . S
O602 Eu582 2.326 . S
O602 C590 1.242 . S
O603 Tb581 2.324 . S
O603 C590 1.258 . S
O604 Eu582 2.500 . S
O604 C587 1.273 . S
O605 Eu582 2.473 . S
O605 C587 1.257 . S
H606 C592 0.929 . S
H607 C594 0.931 . S
H608 C596 0.929 . S
O609 Tb610 2.292 . S
O609 C612 1.255 . S
Tb610 O609 2.292 . S
Tb610 O626 2.326 . S
Tb610 O628 2.500 . S
Tb610 O629 2.473 . S
Tb610 O632 2.324 . S
Eu611 O615 2.292 . S
Eu611 C616 2.852 . S
Eu611 O627 2.324 . S
Eu611 O631 2.326 . S
Eu611 O633 2.500 . S
Eu611 O634 2.473 . S
C612 O609 1.255 . S
C612 O613 1.247 . S
O613 C612 1.247 . S
C614 O626 1.242 . S
C614 O627 1.258 . S
O615 Eu611 2.292 . S
O615 C617 1.255 . S
C616 Eu611 2.852 . S
C616 C620 1.503 . S
C616 O633 1.273 . S
C616 O634 1.257 . S
C617 O615 1.255 . S
C617 O618 1.247 . S
O618 C617 1.247 . S
C619 O631 1.242 . S
C619 O632 1.258 . S
C620 C616 1.503 . S
C620 C621 1.379 . S
C620 C625 1.392 . S
C621 C620 1.379 . S
C621 C622 1.404 . S
C621 H635 0.929 . S
C622 C621 1.404 . S
C622 C623 1.389 . S
C623 C622 1.389 . S
C623 C624 1.399 . S
C623 H636 0.931 . S
C624 C623 1.399 . S
C624 C625 1.390 . S
C625 C620 1.392 . S
C625 C624 1.390 . S
C625 H637 0.929 . S
O626 Tb610 2.326 . S
O626 C614 1.242 . S
O627 Eu611 2.324 . S
O627 C614 1.258 . S
O628 Tb610 2.500 . S
O628 C630 1.273 . S
O629 Tb610 2.473 . S
O629 C630 1.257 . S
C630 O628 1.273 . S
C630 O629 1.257 . S
O631 Eu611 2.326 . S
O631 C619 1.242 . S
O632 Tb610 2.324 . S
O632 C619 1.258 . S
O633 Eu611 2.500 . S
O633 C616 1.273 . S
O634 Eu611 2.473 . S
O634 C616 1.257 . S
H635 C621 0.929 . S
H636 C623 0.931 . S
H637 C625 0.929 . S
O638 Tb639 2.292 . S
O638 C641 1.255 . S
Tb639 O638 2.292 . S
Tb639 O655 2.326 . S
Tb639 O657 2.500 . S
Tb639 O658 2.473 . S
Tb639 O661 2.324 . S
Eu640 O644 2.292 . S
Eu640 C645 2.852 . S
Eu640 O656 2.324 . S
Eu640 O660 2.326 . S
Eu640 O662 2.500 . S
Eu640 O663 2.473 . S
C641 O638 1.255 . S
C641 O642 1.247 . S
O642 C641 1.247 . S
C643 O655 1.242 . S
C643 O656 1.258 . S
O644 Eu640 2.292 . S
O644 C646 1.255 . S
C645 Eu640 2.852 . S
C645 C649 1.503 . S
C645 O662 1.273 . S
C645 O663 1.257 . S
C646 O644 1.255 . S
C646 O647 1.247 . S
O647 C646 1.247 . S
C648 O660 1.242 . S
C648 O661 1.258 . S
C649 C645 1.503 . S
C649 C650 1.379 . S
C649 C654 1.392 . S
C650 C649 1.379 . S
C650 C651 1.404 . S
C650 H664 0.929 . S
C651 C650 1.404 . S
C651 C652 1.389 . S
C652 C651 1.389 . S
C652 C653 1.399 . S
C652 H665 0.931 . S
C653 C652 1.399 . S
C653 C654 1.390 . S
C654 C649 1.392 . S
C654 C653 1.390 . S
C654 H666 0.929 . S
O655 Tb639 2.326 . S
O655 C643 1.242 . S
O656 Eu640 2.324 . S
O656 C643 1.258 . S
O657 Tb639 2.500 . S
O657 C659 1.273 . S
O658 Tb639 2.473 . S
O658 C659 1.257 . S
C659 O657 1.273 . S
C659 O658 1.257 . S
O660 Eu640 2.326 . S
O660 C648 1.242 . S
O661 Tb639 2.324 . S
O661 C648 1.258 . S
O662 Eu640 2.500 . S
O662 C645 1.273 . S
O663 Eu640 2.473 . S
O663 C645 1.257 . S
H664 C650 0.929 . S
H665 C652 0.931 . S
H666 C654 0.929 . S
O667 Tb668 2.292 . S
O667 C670 1.255 . S
Tb668 O667 2.292 . S
Tb668 O684 2.326 . S
Tb668 O686 2.500 . S
Tb668 O687 2.473 . S
Tb668 O690 2.324 . S
Eu669 O673 2.292 . S
Eu669 C674 2.852 . S
Eu669 O685 2.324 . S
Eu669 O689 2.326 . S
Eu669 O691 2.500 . S
Eu669 O692 2.473 . S
C670 O667 1.255 . S
C670 O671 1.247 . S
O671 C670 1.247 . S
C672 O684 1.242 . S
C672 O685 1.258 . S
O673 Eu669 2.292 . S
O673 C675 1.255 . S
C674 Eu669 2.852 . S
C674 C678 1.503 . S
C674 O691 1.273 . S
C674 O692 1.257 . S
C675 O673 1.255 . S
C675 O676 1.247 . S
O676 C675 1.247 . S
C677 O689 1.242 . S
C677 O690 1.258 . S
C678 C674 1.503 . S
C678 C679 1.379 . S
C678 C683 1.392 . S
C679 C678 1.379 . S
C679 C680 1.404 . S
C679 H693 0.929 . S
C680 C679 1.404 . S
C680 C681 1.389 . S
C681 C680 1.389 . S
C681 C682 1.399 . S
C681 H694 0.931 . S
C682 C681 1.399 . S
C682 C683 1.390 . S
C683 C678 1.392 . S
C683 C682 1.390 . S
C683 H695 0.929 . S
O684 Tb668 2.326 . S
O684 C672 1.242 . S
O685 Eu669 2.324 . S
O685 C672 1.258 . S
O686 Tb668 2.500 . S
O686 C688 1.273 . S
O687 Tb668 2.473 . S
O687 C688 1.257 . S
C688 O686 1.273 . S
C688 O687 1.257 . S
O689 Eu669 2.326 . S
O689 C677 1.242 . S
O690 Tb668 2.324 . S
O690 C677 1.258 . S
O691 Eu669 2.500 . S
O691 C674 1.273 . S
O692 Eu669 2.473 . S
O692 C674 1.257 . S
H693 C679 0.929 . S
H694 C681 0.931 . S
H695 C683 0.929 . S
O696 Tb697 2.292 . S
O696 C699 1.255 . S
Tb697 O696 2.292 . S
Tb697 O713 2.326 . S
Tb697 O715 2.500 . S
Tb697 O716 2.473 . S
Tb697 O719 2.324 . S
Eu698 O702 2.292 . S
Eu698 C703 2.852 . S
Eu698 O714 2.324 . S
Eu698 O718 2.326 . S
Eu698 O720 2.500 . S
Eu698 O721 2.473 . S
C699 O696 1.255 . S
C699 O700 1.247 . S
O700 C699 1.247 . S
C701 O713 1.242 . S
C701 O714 1.258 . S
O702 Eu698 2.292 . S
O702 C704 1.255 . S
C703 Eu698 2.852 . S
C703 C707 1.503 . S
C703 O720 1.273 . S
C703 O721 1.257 . S
C704 O702 1.255 . S
C704 O705 1.247 . S
O705 C704 1.247 . S
C706 O718 1.242 . S
C706 O719 1.258 . S
C707 C703 1.503 . S
C707 C708 1.379 . S
C707 C712 1.392 . S
C708 C707 1.379 . S
C708 C709 1.404 . S
C708 H722 0.929 . S
C709 C708 1.404 . S
C709 C710 1.389 . S
C710 C709 1.389 . S
C710 C711 1.399 . S
C710 H723 0.931 . S
C711 C710 1.399 . S
C711 C712 1.390 . S
C712 C707 1.392 . S
C712 C711 1.390 . S
C712 H724 0.929 . S
O713 Tb697 2.326 . S
O713 C701 1.242 . S
O714 Eu698 2.324 . S
O714 C701 1.258 . S
O715 Tb697 2.500 . S
O715 C717 1.273 . S
O716 Tb697 2.473 . S
O716 C717 1.257 . S
C717 O715 1.273 . S
C717 O716 1.257 . S
O718 Eu698 2.326 . S
O718 C706 1.242 . S
O719 Tb697 2.324 . S
O719 C706 1.258 . S
O720 Eu698 2.500 . S
O720 C703 1.273 . S
O721 Eu698 2.473 . S
O721 C703 1.257 . S
H722 C708 0.929 . S
H723 C710 0.931 . S
H724 C712 0.929 . S
O725 Tb726 2.292 . S
O725 C728 1.255 . S
Tb726 O725 2.292 . S
Tb726 O742 2.326 . S
Tb726 O744 2.500 . S
Tb726 O745 2.473 . S
Tb726 O748 2.324 . S
Eu727 O731 2.292 . S
Eu727 C732 2.852 . S
Eu727 O743 2.324 . S
Eu727 O747 2.326 . S
Eu727 O749 2.500 . S
Eu727 O750 2.473 . S
C728 O725 1.255 . S
C728 O729 1.247 . S
O729 C728 1.247 . S
C730 O742 1.242 . S
C730 O743 1.258 . S
O731 Eu727 2.292 . S
O731 C733 1.255 . S
C732 Eu727 2.852 . S
C732 C736 1.503 . S
C732 O749 1.273 . S
C732 O750 1.257 . S
C733 O731 1.255 . S
C733 O734 1.247 . S
O734 C733 1.247 . S
C735 O747 1.242 . S
C735 O748 1.258 . S
C736 C732 1.503 . S
C736 C737 1.379 . S
C736 C741 1.392 . S
C737 C736 1.379 . S
C737 C738 1.404 . S
C737 H751 0.929 . S
C738 C737 1.404 . S
C738 C739 1.389 . S
C739 C738 1.389 . S
C739 C740 1.399 . S
C739 H752 0.931 . S
C740 C739 1.399 . S
C740 C741 1.390 . S
C741 C736 1.392 . S
C741 C740 1.390 . S
C741 H753 0.929 . S
O742 Tb726 2.326 . S
O742 C730 1.242 . S
O743 Eu727 2.324 . S
O743 C730 1.258 . S
O744 Tb726 2.500 . S
O744 C746 1.273 . S
O745 Tb726 2.473 . S
O745 C746 1.257 . S
C746 O744 1.273 . S
C746 O745 1.257 . S
O747 Eu727 2.326 . S
O747 C735 1.242 . S
O748 Tb726 2.324 . S
O748 C735 1.258 . S
O749 Eu727 2.500 . S
O749 C732 1.273 . S
O750 Eu727 2.473 . S
O750 C732 1.257 . S
H751 C737 0.929 . S
H752 C739 0.931 . S
H753 C741 0.929 . S
O754 Tb755 2.292 . S
O754 C757 1.255 . S
Tb755 O754 2.292 . S
Tb755 O771 2.326 . S
Tb755 O773 2.500 . S
Tb755 O774 2.473 . S
Tb755 O777 2.324 . S
Eu756 O760 2.292 . S
Eu756 C761 2.852 . S
Eu756 O772 2.324 . S
Eu756 O776 2.326 . S
Eu756 O778 2.500 . S
Eu756 O779 2.473 . S
C757 O754 1.255 . S
C757 O758 1.247 . S
O758 C757 1.247 . S
C759 O771 1.242 . S
C759 O772 1.258 . S
O760 Eu756 2.292 . S
O760 C762 1.255 . S
C761 Eu756 2.852 . S
C761 C765 1.503 . S
C761 O778 1.273 . S
C761 O779 1.257 . S
C762 O760 1.255 . S
C762 O763 1.247 . S
O763 C762 1.247 . S
C764 O776 1.242 . S
C764 O777 1.258 . S
C765 C761 1.503 . S
C765 C766 1.379 . S
C765 C770 1.392 . S
C766 C765 1.379 . S
C766 C767 1.404 . S
C766 H780 0.929 . S
C767 C766 1.404 . S
C767 C768 1.389 . S
C768 C767 1.389 . S
C768 C769 1.399 . S
C768 H781 0.931 . S
C769 C768 1.399 . S
C769 C770 1.390 . S
C770 C765 1.392 . S
C770 C769 1.390 . S
C770 H782 0.929 . S
O771 Tb755 2.326 . S
O771 C759 1.242 . S
O772 Eu756 2.324 . S
O772 C759 1.258 . S
O773 Tb755 2.500 . S
O773 C775 1.273 . S
O774 Tb755 2.473 . S
O774 C775 1.257 . S
C775 O773 1.273 . S
C775 O774 1.257 . S
O776 Eu756 2.326 . S
O776 C764 1.242 . S
O777 Tb755 2.324 . S
O777 C764 1.258 . S
O778 Eu756 2.500 . S
O778 C761 1.273 . S
O779 Eu756 2.473 . S
O779 C761 1.257 . S
H780 C766 0.929 . S
H781 C768 0.931 . S
H782 C770 0.929 . S
O783 Tb784 2.292 . S
O783 C786 1.255 . S
Tb784 O783 2.292 . S
Tb784 O800 2.326 . S
Tb784 O802 2.500 . S
Tb784 O803 2.473 . S
Tb784 O806 2.324 . S
Eu785 O789 2.292 . S
Eu785 C790 2.852 . S
Eu785 O801 2.324 . S
Eu785 O805 2.326 . S
Eu785 O807 2.500 . S
Eu785 O808 2.473 . S
C786 O783 1.255 . S
C786 O787 1.247 . S
O787 C786 1.247 . S
C788 O800 1.242 . S
C788 O801 1.258 . S
O789 Eu785 2.292 . S
O789 C791 1.255 . S
C790 Eu785 2.852 . S
C790 C794 1.503 . S
C790 O807 1.273 . S
C790 O808 1.257 . S
C791 O789 1.255 . S
C791 O792 1.247 . S
O792 C791 1.247 . S
C793 O805 1.242 . S
C793 O806 1.258 . S
C794 C790 1.503 . S
C794 C795 1.379 . S
C794 C799 1.392 . S
C795 C794 1.379 . S
C795 C796 1.404 . S
C795 H809 0.929 . S
C796 C795 1.404 . S
C796 C797 1.389 . S
C797 C796 1.389 . S
C797 C798 1.399 . S
C797 H810 0.931 . S
C798 C797 1.399 . S
C798 C799 1.390 . S
C799 C794 1.392 . S
C799 C798 1.390 . S
C799 H811 0.929 . S
O800 Tb784 2.326 . S
O800 C788 1.242 . S
O801 Eu785 2.324 . S
O801 C788 1.258 . S
O802 Tb784 2.500 . S
O802 C804 1.273 . S
O803 Tb784 2.473 . S
O803 C804 1.257 . S
C804 O802 1.273 . S
C804 O803 1.257 . S
O805 Eu785 2.326 . S
O805 C793 1.242 . S
O806 Tb784 2.324 . S
O806 C793 1.258 . S
O807 Eu785 2.500 . S
O807 C790 1.273 . S
O808 Eu785 2.473 . S
O808 C790 1.257 . S
H809 C795 0.929 . S
H810 C797 0.931 . S
H811 C799 0.929 . S
O812 Tb813 2.292 . S
O812 C815 1.255 . S
Tb813 O812 2.292 . S
Tb813 O829 2.326 . S
Tb813 O831 2.500 . S
Tb813 O832 2.473 . S
Tb813 O835 2.324 . S
Eu814 O818 2.292 . S
Eu814 C819 2.852 . S
Eu814 O830 2.324 . S
Eu814 O834 2.326 . S
Eu814 O836 2.500 . S
Eu814 O837 2.473 . S
C815 O812 1.255 . S
C815 O816 1.247 . S
O816 C815 1.247 . S
C817 O829 1.242 . S
C817 O830 1.258 . S
O818 Eu814 2.292 . S
O818 C820 1.255 . S
C819 Eu814 2.852 . S
C819 C823 1.503 . S
C819 O836 1.273 . S
C819 O837 1.257 . S
C820 O818 1.255 . S
C820 O821 1.247 . S
O821 C820 1.247 . S
C822 O834 1.242 . S
C822 O835 1.258 . S
C823 C819 1.503 . S
C823 C824 1.379 . S
C823 C828 1.392 . S
C824 C823 1.379 . S
C824 C825 1.404 . S
C824 H838 0.929 . S
C825 C824 1.404 . S
C825 C826 1.389 . S
C826 C825 1.389 . S
C826 C827 1.399 . S
C826 H839 0.931 . S
C827 C826 1.399 . S
C827 C828 1.390 . S
C828 C823 1.392 . S
C828 C827 1.390 . S
C828 H840 0.929 . S
O829 Tb813 2.326 . S
O829 C817 1.242 . S
O830 Eu814 2.324 . S
O830 C817 1.258 . S
O831 Tb813 2.500 . S
O831 C833 1.273 . S
O832 Tb813 2.473 . S
O832 C833 1.257 . S
C833 O831 1.273 . S
C833 O832 1.257 . S
O834 Eu814 2.326 . S
O834 C822 1.242 . S
O835 Tb813 2.324 . S
O835 C822 1.258 . S
O836 Eu814 2.500 . S
O836 C819 1.273 . S
O837 Eu814 2.473 . S
O837 C819 1.257 . S
H838 C824 0.929 . S
H839 C826 0.931 . S
H840 C828 0.929 . S
O841 Tb842 2.292 . S
O841 C844 1.255 . S
Tb842 O841 2.292 . S
Tb842 O858 2.326 . S
Tb842 O860 2.500 . S
Tb842 O861 2.473 . S
Tb842 O864 2.324 . S
Eu843 O847 2.292 . S
Eu843 C848 2.852 . S
Eu843 O859 2.324 . S
Eu843 O863 2.326 . S
Eu843 O865 2.500 . S
Eu843 O866 2.473 . S
C844 O841 1.255 . S
C844 O845 1.247 . S
O845 C844 1.247 . S
C846 O858 1.242 . S
C846 O859 1.258 . S
O847 Eu843 2.292 . S
O847 C849 1.255 . S
C848 Eu843 2.852 . S
C848 C852 1.503 . S
C848 O865 1.273 . S
C848 O866 1.257 . S
C849 O847 1.255 . S
C849 O850 1.247 . S
O850 C849 1.247 . S
C851 O863 1.242 . S
C851 O864 1.258 . S
C852 C848 1.503 . S
C852 C853 1.379 . S
C852 C857 1.392 . S
C853 C852 1.379 . S
C853 C854 1.404 . S
C853 H867 0.929 . S
C854 C853 1.404 . S
C854 C855 1.389 . S
C855 C854 1.389 . S
C855 C856 1.399 . S
C855 H868 0.931 . S
C856 C855 1.399 . S
C856 C857 1.390 . S
C857 C852 1.392 . S
C857 C856 1.390 . S
C857 H869 0.929 . S
O858 Tb842 2.326 . S
O858 C846 1.242 . S
O859 Eu843 2.324 . S
O859 C846 1.258 . S
O860 Tb842 2.500 . S
O860 C862 1.273 . S
O861 Tb842 2.473 . S
O861 C862 1.257 . S
C862 O860 1.273 . S
C862 O861 1.257 . S
O863 Eu843 2.326 . S
O863 C851 1.242 . S
O864 Tb842 2.324 . S
O864 C851 1.258 . S
O865 Eu843 2.500 . S
O865 C848 1.273 . S
O866 Eu843 2.473 . S
O866 C848 1.257 . S
H867 C853 0.929 . S
H868 C855 0.931 . S
H869 C857 0.929 . S
O870 Tb871 2.292 . S
O870 C873 1.255 . S
Tb871 O870 2.292 . S
Tb871 O887 2.326 . S
Tb871 O889 2.500 . S
Tb871 O890 2.473 . S
Tb871 O893 2.324 . S
Eu872 O876 2.292 . S
Eu872 C877 2.852 . S
Eu872 O888 2.324 . S
Eu872 O892 2.326 . S
Eu872 O894 2.500 . S
Eu872 O895 2.473 . S
C873 O870 1.255 . S
C873 O874 1.247 . S
O874 C873 1.247 . S
C875 O887 1.242 . S
C875 O888 1.258 . S
O876 Eu872 2.292 . S
O876 C878 1.255 . S
C877 Eu872 2.852 . S
C877 C881 1.503 . S
C877 O894 1.273 . S
C877 O895 1.257 . S
C878 O876 1.255 . S
C878 O879 1.247 . S
O879 C878 1.247 . S
C880 O892 1.242 . S
C880 O893 1.258 . S
C881 C877 1.503 . S
C881 C882 1.379 . S
C881 C886 1.392 . S
C882 C881 1.379 . S
C882 C883 1.404 . S
C882 H896 0.929 . S
C883 C882 1.404 . S
C883 C884 1.389 . S
C884 C883 1.389 . S
C884 C885 1.399 . S
C884 H897 0.931 . S
C885 C884 1.399 . S
C885 C886 1.390 . S
C886 C881 1.392 . S
C886 C885 1.390 . S
C886 H898 0.929 . S
O887 Tb871 2.326 . S
O887 C875 1.242 . S
O888 Eu872 2.324 . S
O888 C875 1.258 . S
O889 Tb871 2.500 . S
O889 C891 1.273 . S
O890 Tb871 2.473 . S
O890 C891 1.257 . S
C891 O889 1.273 . S
C891 O890 1.257 . S
O892 Eu872 2.326 . S
O892 C880 1.242 . S
O893 Tb871 2.324 . S
O893 C880 1.258 . S
O894 Eu872 2.500 . S
O894 C877 1.273 . S
O895 Eu872 2.473 . S
O895 C877 1.257 . S
H896 C882 0.929 . S
H897 C884 0.931 . S
H898 C886 0.929 . S
O899 Tb900 2.292 . S
O899 C902 1.255 . S
Tb900 O899 2.292 . S
Tb900 O916 2.326 . S
Tb900 O918 2.500 . S
Tb900 O919 2.473 . S
Tb900 O922 2.324 . S
Eu901 O905 2.292 . S
Eu901 C906 2.852 . S
Eu901 O917 2.324 . S
Eu901 O921 2.326 . S
Eu901 O923 2.500 . S
Eu901 O924 2.473 . S
C902 O899 1.255 . S
C902 O903 1.247 . S
O903 C902 1.247 . S
C904 O916 1.242 . S
C904 O917 1.258 . S
O905 Eu901 2.292 . S
O905 C907 1.255 . S
C906 Eu901 2.852 . S
C906 C910 1.503 . S
C906 O923 1.273 . S
C906 O924 1.257 . S
C907 O905 1.255 . S
C907 O908 1.247 . S
O908 C907 1.247 . S
C909 O921 1.242 . S
C909 O922 1.258 . S
C910 C906 1.503 . S
C910 C911 1.379 . S
C910 C915 1.392 . S
C911 C910 1.379 . S
C911 C912 1.404 . S
C911 H925 0.929 . S
C912 C911 1.404 . S
C912 C913 1.389 . S
C913 C912 1.389 . S
C913 C914 1.399 . S
C913 H926 0.931 . S
C914 C913 1.399 . S
C914 C915 1.390 . S
C915 C910 1.392 . S
C915 C914 1.390 . S
C915 H927 0.929 . S
O916 Tb900 2.326 . S
O916 C904 1.242 . S
O917 Eu901 2.324 . S
O917 C904 1.258 . S
O918 Tb900 2.500 . S
O918 C920 1.273 . S
O919 Tb900 2.473 . S
O919 C920 1.257 . S
C920 O918 1.273 . S
C920 O919 1.257 . S
O921 Eu901 2.326 . S
O921 C909 1.242 . S
O922 Tb900 2.324 . S
O922 C909 1.258 . S
O923 Eu901 2.500 . S
O923 C906 1.273 . S
O924 Eu901 2.473 . S
O924 C906 1.257 . S
H925 C911 0.929 . S
H926 C913 0.931 . S
H927 C915 0.929 . S
O928 Tb929 2.292 . S
O928 C931 1.255 . S
Tb929 O928 2.292 . S
Tb929 O945 2.326 . S
Tb929 O947 2.500 . S
Tb929 O948 2.473 . S
Tb929 O951 2.324 . S
Eu930 O934 2.292 . S
Eu930 C935 2.852 . S
Eu930 O946 2.324 . S
Eu930 O950 2.326 . S
Eu930 O952 2.500 . S
Eu930 O953 2.473 . S
C931 O928 1.255 . S
C931 O932 1.247 . S
O932 C931 1.247 . S
C933 O945 1.242 . S
C933 O946 1.258 . S
O934 Eu930 2.292 . S
O934 C936 1.255 . S
C935 Eu930 2.852 . S
C935 C939 1.503 . S
C935 O952 1.273 . S
C935 O953 1.257 . S
C936 O934 1.255 . S
C936 O937 1.247 . S
O937 C936 1.247 . S
C938 O950 1.242 . S
C938 O951 1.258 . S
C939 C935 1.503 . S
C939 C940 1.379 . S
C939 C944 1.392 . S
C940 C939 1.379 . S
C940 C941 1.404 . S
C940 H954 0.929 . S
C941 C940 1.404 . S
C941 C942 1.389 . S
C942 C941 1.389 . S
C942 C943 1.399 . S
C942 H955 0.931 . S
C943 C942 1.399 . S
C943 C944 1.390 . S
C944 C939 1.392 . S
C944 C943 1.390 . S
C944 H956 0.929 . S
O945 Tb929 2.326 . S
O945 C933 1.242 . S
O946 Eu930 2.324 . S
O946 C933 1.258 . S
O947 Tb929 2.500 . S
O947 C949 1.273 . S
O948 Tb929 2.473 . S
O948 C949 1.257 . S
C949 O947 1.273 . S
C949 O948 1.257 . S
O950 Eu930 2.326 . S
O950 C938 1.242 . S
O951 Tb929 2.324 . S
O951 C938 1.258 . S
O952 Eu930 2.500 . S
O952 C935 1.273 . S
O953 Eu930 2.473 . S
O953 C935 1.257 . S
H954 C940 0.929 . S
H955 C942 0.931 . S
H956 C944 0.929 . S
O957 Tb958 2.292 . S
O957 C960 1.255 . S
Tb958 O957 2.292 . S
Tb958 O974 2.326 . S
Tb958 O976 2.500 . S
Tb958 O977 2.473 . S
Tb958 O980 2.324 . S
Eu959 O963 2.292 . S
Eu959 C964 2.852 . S
Eu959 O975 2.324 . S
Eu959 O979 2.326 . S
Eu959 O981 2.500 . S
Eu959 O982 2.473 . S
C960 O957 1.255 . S
C960 O961 1.247 . S
O961 C960 1.247 . S
C962 O974 1.242 . S
C962 O975 1.258 . S
O963 Eu959 2.292 . S
O963 C965 1.255 . S
C964 Eu959 2.852 . S
C964 C968 1.503 . S
C964 O981 1.273 . S
C964 O982 1.257 . S
C965 O963 1.255 . S
C965 O966 1.247 . S
O966 C965 1.247 . S
C967 O979 1.242 . S
C967 O980 1.258 . S
C968 C964 1.503 . S
C968 C969 1.379 . S
C968 C973 1.392 . S
C969 C968 1.379 . S
C969 C970 1.404 . S
C969 H983 0.929 . S
C970 C969 1.404 . S
C970 C971 1.389 . S
C971 C970 1.389 . S
C971 C972 1.399 . S
C971 H984 0.931 . S
C972 C971 1.399 . S
C972 C973 1.390 . S
C973 C968 1.392 . S
C973 C972 1.390 . S
C973 H985 0.929 . S
O974 Tb958 2.326 . S
O974 C962 1.242 . S
O975 Eu959 2.324 . S
O975 C962 1.258 . S
O976 Tb958 2.500 . S
O976 C978 1.273 . S
O977 Tb958 2.473 . S
O977 C978 1.257 . S
C978 O976 1.273 . S
C978 O977 1.257 . S
O979 Eu959 2.326 . S
O979 C967 1.242 . S
O980 Tb958 2.324 . S
O980 C967 1.258 . S
O981 Eu959 2.500 . S
O981 C964 1.273 . S
O982 Eu959 2.473 . S
O982 C964 1.257 . S
H983 C969 0.929 . S
H984 C971 0.931 . S
H985 C973 0.929 . S
O986 Tb987 2.292 . S
O986 C989 1.255 . S
Tb987 O986 2.292 . S
Tb987 O1003 2.326 . S
Tb987 O1005 2.500 . S
Tb987 O1006 2.473 . S
Tb987 O1009 2.324 . S
Eu988 O992 2.292 . S
Eu988 C993 2.852 . S
Eu988 O1004 2.324 . S
Eu988 O1008 2.326 . S
Eu988 O1010 2.500 . S
Eu988 O1011 2.473 . S
C989 O986 1.255 . S
C989 O990 1.247 . S
O990 C989 1.247 . S
C991 O1003 1.242 . S
C991 O1004 1.258 . S
O992 Eu988 2.292 . S
O992 C994 1.255 . S
C993 Eu988 2.852 . S
C993 C997 1.503 . S
C993 O1010 1.273 . S
C993 O1011 1.257 . S
C994 O992 1.255 . S
C994 O995 1.247 . S
O995 C994 1.247 . S
C996 O1008 1.242 . S
C996 O1009 1.258 . S
C997 C993 1.503 . S
C997 C998 1.379 . S
C997 C1002 1.392 . S
C998 C997 1.379 . S
C998 C999 1.404 . S
C998 H1012 0.929 . S
C999 C998 1.404 . S
C999 C1000 1.389 . S
C1000 C999 1.389 . S
C1000 C1001 1.399 . S
C1000 H1013 0.931 . S
C1001 C1000 1.399 . S
C1001 C1002 1.390 . S
C1002 C997 1.392 . S
C1002 C1001 1.390 . S
C1002 H1014 0.929 . S
O1003 Tb987 2.326 . S
O1003 C991 1.242 . S
O1004 Eu988 2.324 . S
O1004 C991 1.258 . S
O1005 Tb987 2.500 . S
O1005 C1007 1.273 . S
O1006 Tb987 2.473 . S
O1006 C1007 1.257 . S
C1007 O1005 1.273 . S
C1007 O1006 1.257 . S
O1008 Eu988 2.326 . S
O1008 C996 1.242 . S
O1009 Tb987 2.324 . S
O1009 C996 1.258 . S
O1010 Eu988 2.500 . S
O1010 C993 1.273 . S
O1011 Eu988 2.473 . S
O1011 C993 1.257 . S
H1012 C998 0.929 . S
H1013 C1000 0.931 . S
H1014 C1002 0.929 . S
O1015 Tb1016 2.292 . S
O1015 C1018 1.255 . S
Tb1016 O1015 2.292 . S
Tb1016 O1032 2.326 . S
Tb1016 O1034 2.500 . S
Tb1016 O1035 2.473 . S
Tb1016 O1038 2.324 . S
Eu1017 O1021 2.292 . S
Eu1017 C1022 2.852 . S
Eu1017 O1033 2.324 . S
Eu1017 O1037 2.326 . S
Eu1017 O1039 2.500 . S
Eu1017 O1040 2.473 . S
C1018 O1015 1.255 . S
C1018 O1019 1.247 . S
O1019 C1018 1.247 . S
C1020 O1032 1.242 . S
C1020 O1033 1.258 . S
O1021 Eu1017 2.292 . S
O1021 C1023 1.255 . S
C1022 Eu1017 2.852 . S
C1022 C1026 1.503 . S
C1022 O1039 1.273 . S
C1022 O1040 1.257 . S
C1023 O1021 1.255 . S
C1023 O1024 1.247 . S
O1024 C1023 1.247 . S
C1025 O1037 1.242 . S
C1025 O1038 1.258 . S
C1026 C1022 1.503 . S
C1026 C1027 1.379 . S
C1026 C1031 1.392 . S
C1027 C1026 1.379 . S
C1027 C1028 1.404 . S
C1027 H1041 0.929 . S
C1028 C1027 1.404 . S
C1028 C1029 1.389 . S
C1029 C1028 1.389 . S
C1029 C1030 1.399 . S
C1029 H1042 0.931 . S
C1030 C1029 1.399 . S
C1030 C1031 1.390 . S
C1031 C1026 1.392 . S
C1031 C1030 1.390 . S
C1031 H1043 0.929 . S
O1032 Tb1016 2.326 . S
O1032 C1020 1.242 . S
O1033 Eu1017 2.324 . S
O1033 C1020 1.258 . S
O1034 Tb1016 2.500 . S
O1034 C1036 1.273 . S
O1035 Tb1016 2.473 . S
O1035 C1036 1.257 . S
C1036 O1034 1.273 . S
C1036 O1035 1.257 . S
O1037 Eu1017 2.326 . S
O1037 C1025 1.242 . S
O1038 Tb1016 2.324 . S
O1038 C1025 1.258 . S
O1039 Eu1017 2.500 . S
O1039 C1022 1.273 . S
O1040 Eu1017 2.473 . S
O1040 C1022 1.257 . S
H1041 C1027 0.929 . S
H1042 C1029 0.931 . S
H1043 C1031 0.929 . S
O1044 Tb1045 2.292 . S
O1044 C1047 1.255 . S
Tb1045 O1044 2.292 . S
Tb1045 O1061 2.326 . S
Tb1045 O1063 2.500 . S
Tb1045 O1064 2.473 . S
Tb1045 O1067 2.324 . S
Eu1046 O1050 2.292 . S
Eu1046 C1051 2.852 . S
Eu1046 O1062 2.324 . S
Eu1046 O1066 2.326 . S
Eu1046 O1068 2.500 . S
Eu1046 O1069 2.473 . S
C1047 O1044 1.255 . S
C1047 O1048 1.247 . S
O1048 C1047 1.247 . S
C1049 O1061 1.242 . S
C1049 O1062 1.258 . S
O1050 Eu1046 2.292 . S
O1050 C1052 1.255 . S
C1051 Eu1046 2.852 . S
C1051 C1055 1.503 . S
C1051 O1068 1.273 . S
C1051 O1069 1.257 . S
C1052 O1050 1.255 . S
C1052 O1053 1.247 . S
O1053 C1052 1.247 . S
C1054 O1066 1.242 . S
C1054 O1067 1.258 . S
C1055 C1051 1.503 . S
C1055 C1056 1.379 . S
C1055 C1060 1.392 . S
C1056 C1055 1.379 . S
C1056 C1057 1.404 . S
C1056 H1070 0.929 . S
C1057 C1056 1.404 . S
C1057 C1058 1.389 . S
C1058 C1057 1.389 . S
C1058 C1059 1.399 . S
C1058 H1071 0.931 . S
C1059 C1058 1.399 . S
C1059 C1060 1.390 . S
C1060 C1055 1.392 . S
C1060 C1059 1.390 . S
C1060 H1072 0.929 . S
O1061 Tb1045 2.326 . S
O1061 C1049 1.242 . S
O1062 Eu1046 2.324 . S
O1062 C1049 1.258 . S
O1063 Tb1045 2.500 . S
O1063 C1065 1.273 . S
O1064 Tb1045 2.473 . S
O1064 C1065 1.257 . S
C1065 O1063 1.273 . S
C1065 O1064 1.257 . S
O1066 Eu1046 2.326 . S
O1066 C1054 1.242 . S
O1067 Tb1045 2.324 . S
O1067 C1054 1.258 . S
O1068 Eu1046 2.500 . S
O1068 C1051 1.273 . S
O1069 Eu1046 2.473 . S
O1069 C1051 1.257 . S
H1070 C1056 0.929 . S
H1071 C1058 0.931 . S
H1072 C1060 0.929 . S
O1073 Tb1074 2.292 . S
O1073 C1076 1.255 . S
Tb1074 O1073 2.292 . S
Tb1074 O1090 2.326 . S
Tb1074 O1092 2.500 . S
Tb1074 O1093 2.473 . S
Tb1074 O1096 2.324 . S
Eu1075 O1079 2.292 . S
Eu1075 C1080 2.852 . S
Eu1075 O1091 2.324 . S
Eu1075 O1095 2.326 . S
Eu1075 O1097 2.500 . S
Eu1075 O1098 2.473 . S
C1076 O1073 1.255 . S
C1076 O1077 1.247 . S
O1077 C1076 1.247 . S
C1078 O1090 1.242 . S
C1078 O1091 1.258 . S
O1079 Eu1075 2.292 . S
O1079 C1081 1.255 . S
C1080 Eu1075 2.852 . S
C1080 C1084 1.503 . S
C1080 O1097 1.273 . S
C1080 O1098 1.257 . S
C1081 O1079 1.255 . S
C1081 O1082 1.247 . S
O1082 C1081 1.247 . S
C1083 O1095 1.242 . S
C1083 O1096 1.258 . S
C1084 C1080 1.503 . S
C1084 C1085 1.379 . S
C1084 C1089 1.392 . S
C1085 C1084 1.379 . S
C1085 C1086 1.404 . S
C1085 H1099 0.929 . S
C1086 C1085 1.404 . S
C1086 C1087 1.389 . S
C1087 C1086 1.389 . S
C1087 C1088 1.399 . S
C1087 H1100 0.931 . S
C1088 C1087 1.399 . S
C1088 C1089 1.390 . S
C1089 C1084 1.392 . S
C1089 C1088 1.390 . S
C1089 H1101 0.929 . S
O1090 Tb1074 2.326 . S
O1090 C1078 1.242 . S
O1091 Eu1075 2.324 . S
O1091 C1078 1.258 . S
O1092 Tb1074 2.500 . S
O1092 C1094 1.273 . S
O1093 Tb1074 2.473 . S
O1093 C1094 1.257 . S
C1094 O1092 1.273 . S
C1094 O1093 1.257 . S
O1095 Eu1075 2.326 . S
O1095 C1083 1.242 . S
O1096 Tb1074 2.324 . S
O1096 C1083 1.258 . S
O1097 Eu1075 2.500 . S
O1097 C1080 1.273 . S
O1098 Eu1075 2.473 . S
O1098 C1080 1.257 . S
H1099 C1085 0.929 . S
H1100 C1087 0.931 . S
H1101 C1089 0.929 . S
O1102 Tb1103 2.292 . S
O1102 C1105 1.255 . S
Tb1103 O1102 2.292 . S
Tb1103 O1119 2.326 . S
Tb1103 O1121 2.500 . S
Tb1103 O1122 2.473 . S
Tb1103 O1125 2.324 . S
Eu1104 O1108 2.292 . S
Eu1104 C1109 2.852 . S
Eu1104 O1120 2.324 . S
Eu1104 O1124 2.326 . S
Eu1104 O1126 2.500 . S
Eu1104 O1127 2.473 . S
C1105 O1102 1.255 . S
C1105 O1106 1.247 . S
O1106 C1105 1.247 . S
C1107 O1119 1.242 . S
C1107 O1120 1.258 . S
O1108 Eu1104 2.292 . S
O1108 C1110 1.255 . S
C1109 Eu1104 2.852 . S
C1109 C1113 1.503 . S
C1109 O1126 1.273 . S
C1109 O1127 1.257 . S
C1110 O1108 1.255 . S
C1110 O1111 1.247 . S
O1111 C1110 1.247 . S
C1112 O1124 1.242 . S
C1112 O1125 1.258 . S
C1113 C1109 1.503 . S
C1113 C1114 1.379 . S
C1113 C1118 1.392 . S
C1114 C1113 1.379 . S
C1114 C1115 1.404 . S
C1114 H1128 0.929 . S
C1115 C1114 1.404 . S
C1115 C1116 1.389 . S
C1116 C1115 1.389 . S
C1116 C1117 1.399 . S
C1116 H1129 0.931 . S
C1117 C1116 1.399 . S
C1117 C1118 1.390 . S
C1118 C1113 1.392 . S
C1118 C1117 1.390 . S
C1118 H1130 0.929 . S
O1119 Tb1103 2.326 . S
O1119 C1107 1.242 . S
O1120 Eu1104 2.324 . S
O1120 C1107 1.258 . S
O1121 Tb1103 2.500 . S
O1121 C1123 1.273 . S
O1122 Tb1103 2.473 . S
O1122 C1123 1.257 . S
C1123 O1121 1.273 . S
C1123 O1122 1.257 . S
O1124 Eu1104 2.326 . S
O1124 C1112 1.242 . S
O1125 Tb1103 2.324 . S
O1125 C1112 1.258 . S
O1126 Eu1104 2.500 . S
O1126 C1109 1.273 . S
O1127 Eu1104 2.473 . S
O1127 C1109 1.257 . S
H1128 C1114 0.929 . S
H1129 C1116 0.931 . S
H1130 C1118 0.929 . S
O1131 Tb1132 2.292 . S
O1131 C1134 1.255 . S
Tb1132 O1131 2.292 . S
Tb1132 O1148 2.326 . S
Tb1132 O1150 2.500 . S
Tb1132 O1151 2.473 . S
Tb1132 O1154 2.324 . S
Eu1133 O1137 2.292 . S
Eu1133 C1138 2.852 . S
Eu1133 O1149 2.324 . S
Eu1133 O1153 2.326 . S
Eu1133 O1155 2.500 . S
Eu1133 O1156 2.473 . S
C1134 O1131 1.255 . S
C1134 O1135 1.247 . S
O1135 C1134 1.247 . S
C1136 O1148 1.242 . S
C1136 O1149 1.258 . S
O1137 Eu1133 2.292 . S
O1137 C1139 1.255 . S
C1138 Eu1133 2.852 . S
C1138 C1142 1.503 . S
C1138 O1155 1.273 . S
C1138 O1156 1.257 . S
C1139 O1137 1.255 . S
C1139 O1140 1.247 . S
O1140 C1139 1.247 . S
C1141 O1153 1.242 . S
C1141 O1154 1.258 . S
C1142 C1138 1.503 . S
C1142 C1143 1.379 . S
C1142 C1147 1.392 . S
C1143 C1142 1.379 . S
C1143 C1144 1.404 . S
C1143 H1157 0.929 . S
C1144 C1143 1.404 . S
C1144 C1145 1.389 . S
C1145 C1144 1.389 . S
C1145 C1146 1.399 . S
C1145 H1158 0.931 . S
C1146 C1145 1.399 . S
C1146 C1147 1.390 . S
C1147 C1142 1.392 . S
C1147 C1146 1.390 . S
C1147 H1159 0.929 . S
O1148 Tb1132 2.326 . S
O1148 C1136 1.242 . S
O1149 Eu1133 2.324 . S
O1149 C1136 1.258 . S
O1150 Tb1132 2.500 . S
O1150 C1152 1.273 . S
O1151 Tb1132 2.473 . S
O1151 C1152 1.257 . S
C1152 O1150 1.273 . S
C1152 O1151 1.257 . S
O1153 Eu1133 2.326 . S
O1153 C1141 1.242 . S
O1154 Tb1132 2.324 . S
O1154 C1141 1.258 . S
O1155 Eu1133 2.500 . S
O1155 C1138 1.273 . S
O1156 Eu1133 2.473 . S
O1156 C1138 1.257 . S
H1157 C1143 0.929 . S
H1158 C1145 0.931 . S
H1159 C1147 0.929 . S
O1160 Tb1161 2.292 . S
O1160 C1163 1.255 . S
Tb1161 O1160 2.292 . S
Tb1161 O1177 2.326 . S
Tb1161 O1179 2.500 . S
Tb1161 O1180 2.473 . S
Tb1161 O1183 2.324 . S
Eu1162 O1166 2.292 . S
Eu1162 C1167 2.852 . S
Eu1162 O1178 2.324 . S
Eu1162 O1182 2.326 . S
Eu1162 O1184 2.500 . S
Eu1162 O1185 2.473 . S
C1163 O1160 1.255 . S
C1163 O1164 1.247 . S
O1164 C1163 1.247 . S
C1165 O1177 1.242 . S
C1165 O1178 1.258 . S
O1166 Eu1162 2.292 . S
O1166 C1168 1.255 . S
C1167 Eu1162 2.852 . S
C1167 C1171 1.503 . S
C1167 O1184 1.273 . S
C1167 O1185 1.257 . S
C1168 O1166 1.255 . S
C1168 O1169 1.247 . S
O1169 C1168 1.247 . S
C1170 O1182 1.242 . S
C1170 O1183 1.258 . S
C1171 C1167 1.503 . S
C1171 C1172 1.379 . S
C1171 C1176 1.392 . S
C1172 C1171 1.379 . S
C1172 C1173 1.404 . S
C1172 H1186 0.929 . S
C1173 C1172 1.404 . S
C1173 C1174 1.389 . S
C1174 C1173 1.389 . S
C1174 C1175 1.399 . S
C1174 H1187 0.931 . S
C1175 C1174 1.399 . S
C1175 C1176 1.390 . S
C1176 C1171 1.392 . S
C1176 C1175 1.390 . S
C1176 H1188 0.929 . S
O1177 Tb1161 2.326 . S
O1177 C1165 1.242 . S
O1178 Eu1162 2.324 . S
O1178 C1165 1.258 . S
O1179 Tb1161 2.500 . S
O1179 C1181 1.273 . S
O1180 Tb1161 2.473 . S
O1180 C1181 1.257 . S
C1181 O1179 1.273 . S
C1181 O1180 1.257 . S
O1182 Eu1162 2.326 . S
O1182 C1170 1.242 . S
O1183 Tb1161 2.324 . S
O1183 C1170 1.258 . S
O1184 Eu1162 2.500 . S
O1184 C1167 1.273 . S
O1185 Eu1162 2.473 . S
O1185 C1167 1.257 . S
H1186 C1172 0.929 . S
H1187 C1174 0.931 . S
H1188 C1176 0.929 . S
O1189 Tb1190 2.292 . S
O1189 C1192 1.255 . S
Tb1190 O1189 2.292 . S
Tb1190 O1206 2.326 . S
Tb1190 O1208 2.500 . S
Tb1190 O1209 2.473 . S
Tb1190 O1212 2.324 . S
Eu1191 O1195 2.292 . S
Eu1191 C1196 2.852 . S
Eu1191 O1207 2.324 . S
Eu1191 O1211 2.326 . S
Eu1191 O1213 2.500 . S
Eu1191 O1214 2.473 . S
C1192 O1189 1.255 . S
C1192 O1193 1.247 . S
O1193 C1192 1.247 . S
C1194 O1206 1.242 . S
C1194 O1207 1.258 . S
O1195 Eu1191 2.292 . S
O1195 C1197 1.255 . S
C1196 Eu1191 2.852 . S
C1196 C1200 1.503 . S
C1196 O1213 1.273 . S
C1196 O1214 1.257 . S
C1197 O1195 1.255 . S
C1197 O1198 1.247 . S
O1198 C1197 1.247 . S
C1199 O1211 1.242 . S
C1199 O1212 1.258 . S
C1200 C1196 1.503 . S
C1200 C1201 1.379 . S
C1200 C1205 1.392 . S
C1201 C1200 1.379 . S
C1201 C1202 1.404 . S
C1201 H1215 0.929 . S
C1202 C1201 1.404 . S
C1202 C1203 1.389 . S
C1203 C1202 1.389 . S
C1203 C1204 1.399 . S
C1203 H1216 0.931 . S
C1204 C1203 1.399 . S
C1204 C1205 1.390 . S
C1205 C1200 1.392 . S
C1205 C1204 1.390 . S
C1205 H1217 0.929 . S
O1206 Tb1190 2.326 . S
O1206 C1194 1.242 . S
O1207 Eu1191 2.324 . S
O1207 C1194 1.258 . S
O1208 Tb1190 2.500 . S
O1208 C1210 1.273 . S
O1209 Tb1190 2.473 . S
O1209 C1210 1.257 . S
C1210 O1208 1.273 . S
C1210 O1209 1.257 . S
O1211 Eu1191 2.326 . S
O1211 C1199 1.242 . S
O1212 Tb1190 2.324 . S
O1212 C1199 1.258 . S
O1213 Eu1191 2.500 . S
O1213 C1196 1.273 . S
O1214 Eu1191 2.473 . S
O1214 C1196 1.257 . S
H1215 C1201 0.929 . S
H1216 C1203 0.931 . S
H1217 C1205 0.929 . S
O1218 Tb1219 2.292 . S
O1218 C1221 1.255 . S
Tb1219 O1218 2.292 . S
Tb1219 O1235 2.326 . S
Tb1219 O1237 2.500 . S
Tb1219 O1238 2.473 . S
Tb1219 O1241 2.324 . S
Eu1220 O1224 2.292 . S
Eu1220 C1225 2.852 . S
Eu1220 O1236 2.324 . S
Eu1220 O1240 2.326 . S
Eu1220 O1242 2.500 . S
Eu1220 O1243 2.473 . S
C1221 O1218 1.255 . S
C1221 O1222 1.247 . S
O1222 C1221 1.247 . S
C1223 O1235 1.242 . S
C1223 O1236 1.258 . S
O1224 Eu1220 2.292 . S
O1224 C1226 1.255 . S
C1225 Eu1220 2.852 . S
C1225 C1229 1.503 . S
C1225 O1242 1.273 . S
C1225 O1243 1.257 . S
C1226 O1224 1.255 . S
C1226 O1227 1.247 . S
O1227 C1226 1.247 . S
C1228 O1240 1.242 . S
C1228 O1241 1.258 . S
C1229 C1225 1.503 . S
C1229 C1230 1.379 . S
C1229 C1234 1.392 . S
C1230 C1229 1.379 . S
C1230 C1231 1.404 . S
C1230 H1244 0.929 . S
C1231 C1230 1.404 . S
C1231 C1232 1.389 . S
C1232 C1231 1.389 . S
C1232 C1233 1.399 . S
C1232 H1245 0.931 . S
C1233 C1232 1.399 . S
C1233 C1234 1.390 . S
C1234 C1229 1.392 . S
C1234 C1233 1.390 . S
C1234 H1246 0.929 . S
O1235 Tb1219 2.326 . S
O1235 C1223 1.242 . S
O1236 Eu1220 2.324 . S
O1236 C1223 1.258 . S
O1237 Tb1219 2.500 . S
O1237 C1239 1.273 . S
O1238 Tb1219 2.473 . S
O1238 C1239 1.257 . S
C1239 O1237 1.273 . S
C1239 O1238 1.257 . S
O1240 Eu1220 2.326 . S
O1240 C1228 1.242 . S
O1241 Tb1219 2.324 . S
O1241 C1228 1.258 . S
O1242 Eu1220 2.500 . S
O1242 C1225 1.273 . S
O1243 Eu1220 2.473 . S
O1243 C1225 1.257 . S
H1244 C1230 0.929 . S
H1245 C1232 0.931 . S
H1246 C1234 0.929 . S
O1247 Tb1248 2.292 . S
O1247 C1250 1.255 . S
Tb1248 O1247 2.292 . S
Tb1248 O1264 2.326 . S
Tb1248 O1266 2.500 . S
Tb1248 O1267 2.473 . S
Tb1248 O1270 2.324 . S
Eu1249 O1253 2.292 . S
Eu1249 C1254 2.852 . S
Eu1249 O1265 2.324 . S
Eu1249 O1269 2.326 . S
Eu1249 O1271 2.500 . S
Eu1249 O1272 2.473 . S
C1250 O1247 1.255 . S
C1250 O1251 1.247 . S
O1251 C1250 1.247 . S
C1252 O1264 1.242 . S
C1252 O1265 1.258 . S
O1253 Eu1249 2.292 . S
O1253 C1255 1.255 . S
C1254 Eu1249 2.852 . S
C1254 C1258 1.503 . S
C1254 O1271 1.273 . S
C1254 O1272 1.257 . S
C1255 O1253 1.255 . S
C1255 O1256 1.247 . S
O1256 C1255 1.247 . S
C1257 O1269 1.242 . S
C1257 O1270 1.258 . S
C1258 C1254 1.503 . S
C1258 C1259 1.379 . S
C1258 C1263 1.392 . S
C1259 C1258 1.379 . S
C1259 C1260 1.404 . S
C1259 H1273 0.929 . S
C1260 C1259 1.404 . S
C1260 C1261 1.389 . S
C1261 C1260 1.389 . S
C1261 C1262 1.399 . S
C1261 H1274 0.931 . S
C1262 C1261 1.399 . S
C1262 C1263 1.390 . S
C1263 C1258 1.392 . S
C1263 C1262 1.390 . S
C1263 H1275 0.929 . S
O1264 Tb1248 2.326 . S
O1264 C1252 1.242 . S
O1265 Eu1249 2.324 . S
O1265 C1252 1.258 . S
O1266 Tb1248 2.500 . S
O1266 C1268 1.273 . S
O1267 Tb1248 2.473 . S
O1267 C1268 1.257 . S
C1268 O1266 1.273 . S
C1268 O1267 1.257 . S
O1269 Eu1249 2.326 . S
O1269 C1257 1.242 . S
O1270 Tb1248 2.324 . S
O1270 C1257 1.258 . S
O1271 Eu1249 2.500 . S
O1271 C1254 1.273 . S
O1272 Eu1249 2.473 . S
O1272 C1254 1.257 . S
H1273 C1259 0.929 . S
H1274 C1261 0.931 . S
H1275 C1263 0.929 . S
O1276 Tb1277 2.292 . S
O1276 C1279 1.255 . S
Tb1277 O1276 2.292 . S
Tb1277 O1293 2.326 . S
Tb1277 O1295 2.500 . S
Tb1277 O1296 2.473 . S
Tb1277 O1299 2.324 . S
Eu1278 O1282 2.292 . S
Eu1278 C1283 2.852 . S
Eu1278 O1294 2.324 . S
Eu1278 O1298 2.326 . S
Eu1278 O1300 2.500 . S
Eu1278 O1301 2.473 . S
C1279 O1276 1.255 . S
C1279 O1280 1.247 . S
O1280 C1279 1.247 . S
C1281 O1293 1.242 . S
C1281 O1294 1.258 . S
O1282 Eu1278 2.292 . S
O1282 C1284 1.255 . S
C1283 Eu1278 2.852 . S
C1283 C1287 1.503 . S
C1283 O1300 1.273 . S
C1283 O1301 1.257 . S
C1284 O1282 1.255 . S
C1284 O1285 1.247 . S
O1285 C1284 1.247 . S
C1286 O1298 1.242 . S
C1286 O1299 1.258 . S
C1287 C1283 1.503 . S
C1287 C1288 1.379 . S
C1287 C1292 1.392 . S
C1288 C1287 1.379 . S
C1288 C1289 1.404 . S
C1288 H1302 0.929 . S
C1289 C1288 1.404 . S
C1289 C1290 1.389 . S
C1290 C1289 1.389 . S
C1290 C1291 1.399 . S
C1290 H1303 0.931 . S
C1291 C1290 1.399 . S
C1291 C1292 1.390 . S
C1292 C1287 1.392 . S
C1292 C1291 1.390 . S
C1292 H1304 0.929 . S
O1293 Tb1277 2.326 . S
O1293 C1281 1.242 . S
O1294 Eu1278 2.324 . S
O1294 C1281 1.258 . S
O1295 Tb1277 2.500 . S
O1295 C1297 1.273 . S
O1296 Tb1277 2.473 . S
O1296 C1297 1.257 . S
C1297 O1295 1.273 . S
C1297 O1296 1.257 . S
O1298 Eu1278 2.326 . S
O1298 C1286 1.242 . S
O1299 Tb1277 2.324 . S
O1299 C1286 1.258 . S
O1300 Eu1278 2.500 . S
O1300 C1283 1.273 . S
O1301 Eu1278 2.473 . S
O1301 C1283 1.257 . S
H1302 C1288 0.929 . S
H1303 C1290 0.931 . S
H1304 C1292 0.929 . S
O1305 Tb1306 2.292 . S
O1305 C1308 1.255 . S
Tb1306 O1305 2.292 . S
Tb1306 O1322 2.326 . S
Tb1306 O1324 2.500 . S
Tb1306 O1325 2.473 . S
Tb1306 O1328 2.324 . S
Eu1307 O1311 2.292 . S
Eu1307 C1312 2.852 . S
Eu1307 O1323 2.324 . S
Eu1307 O1327 2.326 . S
Eu1307 O1329 2.500 . S
Eu1307 O1330 2.473 . S
C1308 O1305 1.255 . S
C1308 O1309 1.247 . S
O1309 C1308 1.247 . S
C1310 O1322 1.242 . S
C1310 O1323 1.258 . S
O1311 Eu1307 2.292 . S
O1311 C1313 1.255 . S
C1312 Eu1307 2.852 . S
C1312 C1316 1.503 . S
C1312 O1329 1.273 . S
C1312 O1330 1.257 . S
C1313 O1311 1.255 . S
C1313 O1314 1.247 . S
O1314 C1313 1.247 . S
C1315 O1327 1.242 . S
C1315 O1328 1.258 . S
C1316 C1312 1.503 . S
C1316 C1317 1.379 . S
C1316 C1321 1.392 . S
C1317 C1316 1.379 . S
C1317 C1318 1.404 . S
C1317 H1331 0.929 . S
C1318 C1317 1.404 . S
C1318 C1319 1.389 . S
C1319 C1318 1.389 . S
C1319 C1320 1.399 . S
C1319 H1332 0.931 . S
C1320 C1319 1.399 . S
C1320 C1321 1.390 . S
C1321 C1316 1.392 . S
C1321 C1320 1.390 . S
C1321 H1333 0.929 . S
O1322 Tb1306 2.326 . S
O1322 C1310 1.242 . S
O1323 Eu1307 2.324 . S
O1323 C1310 1.258 . S
O1324 Tb1306 2.500 . S
O1324 C1326 1.273 . S
O1325 Tb1306 2.473 . S
O1325 C1326 1.257 . S
C1326 O1324 1.273 . S
C1326 O1325 1.257 . S
O1327 Eu1307 2.326 . S
O1327 C1315 1.242 . S
O1328 Tb1306 2.324 . S
O1328 C1315 1.258 . S
O1329 Eu1307 2.500 . S
O1329 C1312 1.273 . S
O1330 Eu1307 2.473 . S
O1330 C1312 1.257 . S
H1331 C1317 0.929 . S
H1332 C1319 0.931 . S
H1333 C1321 0.929 . S
O1334 Tb1335 2.292 . S
O1334 C1337 1.255 . S
Tb1335 O1334 2.292 . S
Tb1335 O1351 2.326 . S
Tb1335 O1353 2.500 . S
Tb1335 O1354 2.473 . S
Tb1335 O1357 2.324 . S
Eu1336 O1340 2.292 . S
Eu1336 C1341 2.852 . S
Eu1336 O1352 2.324 . S
Eu1336 O1356 2.326 . S
Eu1336 O1358 2.500 . S
Eu1336 O1359 2.473 . S
C1337 O1334 1.255 . S
C1337 O1338 1.247 . S
O1338 C1337 1.247 . S
C1339 O1351 1.242 . S
C1339 O1352 1.258 . S
O1340 Eu1336 2.292 . S
O1340 C1342 1.255 . S
C1341 Eu1336 2.852 . S
C1341 C1345 1.503 . S
C1341 O1358 1.273 . S
C1341 O1359 1.257 . S
C1342 O1340 1.255 . S
C1342 O1343 1.247 . S
O1343 C1342 1.247 . S
C1344 O1356 1.242 . S
C1344 O1357 1.258 . S
C1345 C1341 1.503 . S
C1345 C1346 1.379 . S
C1345 C1350 1.392 . S
C1346 C1345 1.379 . S
C1346 C1347 1.404 . S
C1346 H1360 0.929 . S
C1347 C1346 1.404 . S
C1347 C1348 1.389 . S
C1348 C1347 1.389 . S
C1348 C1349 1.399 . S
C1348 H1361 0.931 . S
C1349 C1348 1.399 . S
C1349 C1350 1.390 . S
C1350 C1345 1.392 . S
C1350 C1349 1.390 . S
C1350 H1362 0.929 . S
O1351 Tb1335 2.326 . S
O1351 C1339 1.242 . S
O1352 Eu1336 2.324 . S
O1352 C1339 1.258 . S
O1353 Tb1335 2.500 . S
O1353 C1355 1.273 . S
O1354 Tb1335 2.473 . S
O1354 C1355 1.257 . S
C1355 O1353 1.273 . S
C1355 O1354 1.257 . S
O1356 Eu1336 2.326 . S
O1356 C1344 1.242 . S
O1357 Tb1335 2.324 . S
O1357 C1344 1.258 . S
O1358 Eu1336 2.500 . S
O1358 C1341 1.273 . S
O1359 Eu1336 2.473 . S
O1359 C1341 1.257 . S
H1360 C1346 0.929 . S
H1361 C1348 0.931 . S
H1362 C1350 0.929 . S
O1363 Tb1364 2.292 . S
O1363 C1366 1.255 . S
Tb1364 O1363 2.292 . S
Tb1364 O1380 2.326 . S
Tb1364 O1382 2.500 . S
Tb1364 O1383 2.473 . S
Tb1364 O1386 2.324 . S
Eu1365 O1369 2.292 . S
Eu1365 C1370 2.852 . S
Eu1365 O1381 2.324 . S
Eu1365 O1385 2.326 . S
Eu1365 O1387 2.500 . S
Eu1365 O1388 2.473 . S
C1366 O1363 1.255 . S
C1366 O1367 1.247 . S
O1367 C1366 1.247 . S
C1368 O1380 1.242 . S
C1368 O1381 1.258 . S
O1369 Eu1365 2.292 . S
O1369 C1371 1.255 . S
C1370 Eu1365 2.852 . S
C1370 C1374 1.503 . S
C1370 O1387 1.273 . S
C1370 O1388 1.257 . S
C1371 O1369 1.255 . S
C1371 O1372 1.247 . S
O1372 C1371 1.247 . S
C1373 O1385 1.242 . S
C1373 O1386 1.258 . S
C1374 C1370 1.503 . S
C1374 C1375 1.379 . S
C1374 C1379 1.392 . S
C1375 C1374 1.379 . S
C1375 C1376 1.404 . S
C1375 H1389 0.929 . S
C1376 C1375 1.404 . S
C1376 C1377 1.389 . S
C1377 C1376 1.389 . S
C1377 C1378 1.399 . S
C1377 H1390 0.931 . S
C1378 C1377 1.399 . S
C1378 C1379 1.390 . S
C1379 C1374 1.392 . S
C1379 C1378 1.390 . S
C1379 H1391 0.929 . S
O1380 Tb1364 2.326 . S
O1380 C1368 1.242 . S
O1381 Eu1365 2.324 . S
O1381 C1368 1.258 . S
O1382 Tb1364 2.500 . S
O1382 C1384 1.273 . S
O1383 Tb1364 2.473 . S
O1383 C1384 1.257 . S
C1384 O1382 1.273 . S
C1384 O1383 1.257 . S
O1385 Eu1365 2.326 . S
O1385 C1373 1.242 . S
O1386 Tb1364 2.324 . S
O1386 C1373 1.258 . S
O1387 Eu1365 2.500 . S
O1387 C1370 1.273 . S
O1388 Eu1365 2.473 . S
O1388 C1370 1.257 . S
H1389 C1375 0.929 . S
H1390 C1377 0.931 . S
H1391 C1379 0.929 . S
C1392 C1393 1.387 . S
C1392 H1396 0.950 . S
C1392 C1401 1.390 . S
C1393 C1392 1.387 . S
C1393 C1395 1.387 . S
H1394 C1401 0.950 . S
C1395 C1393 1.387 . S
C1395 C1397 1.390 . S
C1395 H1399 0.950 . S
H1396 C1392 0.950 . S
C1397 C1395 1.390 . S
C1397 C1398 1.387 . S
C1397 H1400 0.950 . S
C1398 C1397 1.387 . S
C1398 C1401 1.387 . S
H1399 C1395 0.950 . S
H1400 C1397 0.950 . S
C1401 C1392 1.390 . S
C1401 H1394 0.950 . S
C1401 C1398 1.387 . S
C1402 C1403 1.387 . S
C1402 H1406 0.950 . S
C1402 C1411 1.390 . S
C1403 C1402 1.387 . S
C1403 C1405 1.387 . S
H1404 C1411 0.950 . S
C1405 C1403 1.387 . S
C1405 C1407 1.390 . S
C1405 H1409 0.950 . S
H1406 C1402 0.950 . S
C1407 C1405 1.390 . S
C1407 C1408 1.387 . S
C1407 H1410 0.950 . S
C1408 C1407 1.387 . S
C1408 C1411 1.387 . S
H1409 C1405 0.950 . S
H1410 C1407 0.950 . S
C1411 C1402 1.390 . S
C1411 H1404 0.950 . S
C1411 C1408 1.387 . S
C1412 C1413 1.387 . S
C1412 H1416 0.950 . S
C1412 C1421 1.390 . S
C1413 C1412 1.387 . S
C1413 C1415 1.387 . S
H1414 C1421 0.950 . S
C1415 C1413 1.387 . S
C1415 C1417 1.390 . S
C1415 H1419 0.950 . S
H1416 C1412 0.950 . S
C1417 C1415 1.390 . S
C1417 C1418 1.387 . S
C1417 H1420 0.950 . S
C1418 C1417 1.387 . S
C1418 C1421 1.387 . S
H1419 C1415 0.950 . S
H1420 C1417 0.950 . S
C1421 C1412 1.390 . S
C1421 H1414 0.950 . S
C1421 C1418 1.387 . S
C1422 C1423 1.387 . S
C1422 H1426 0.950 . S
C1422 C1431 1.390 . S
C1423 C1422 1.387 . S
C1423 C1425 1.387 . S
H1424 C1431 0.950 . S
C1425 C1423 1.387 . S
C1425 C1427 1.390 . S
C1425 H1429 0.950 . S
H1426 C1422 0.950 . S
C1427 C1425 1.390 . S
C1427 C1428 1.387 . S
C1427 H1430 0.950 . S
C1428 C1427 1.387 . S
C1428 C1431 1.387 . S
H1429 C1425 0.950 . S
H1430 C1427 0.950 . S
C1431 C1422 1.390 . S
C1431 H1424 0.950 . S
C1431 C1428 1.387 . S
C1432 C1433 1.387 . S
C1432 H1436 0.950 . S
C1432 C1441 1.390 . S
C1433 C1432 1.387 . S
C1433 C1435 1.387 . S
H1434 C1441 0.950 . S
C1435 C1433 1.387 . S
C1435 C1437 1.390 . S
C1435 H1439 0.950 . S
H1436 C1432 0.950 . S
C1437 C1435 1.390 . S
C1437 C1438 1.387 . S
C1437 H1440 0.950 . S
C1438 C1437 1.387 . S
C1438 C1441 1.387 . S
H1439 C1435 0.950 . S
H1440 C1437 0.950 . S
C1441 C1432 1.390 . S
C1441 H1434 0.950 . S
C1441 C1438 1.387 . S
C1442 C1443 1.387 . S
C1442 H1446 0.950 . S
C1442 C1451 1.390 . S
C1443 C1442 1.387 . S
C1443 C1445 1.387 . S
H1444 C1451 0.950 . S
C1445 C1443 1.387 . S
C1445 C1447 1.390 . S
C1445 H1449 0.950 . S
H1446 C1442 0.950 . S
C1447 C1445 1.390 . S
C1447 C1448 1.387 . S
C1447 H1450 0.950 . S
C1448 C1447 1.387 . S
C1448 C1451 1.387 . S
H1449 C1445 0.950 . S
H1450 C1447 0.950 . S
C1451 C1442 1.390 . S
C1451 H1444 0.950 . S
C1451 C1448 1.387 . S
C1452 C1453 1.387 . S
C1452 H1456 0.950 . S
C1452 C1461 1.390 . S
C1453 C1452 1.387 . S
C1453 C1455 1.387 . S
H1454 C1461 0.950 . S
C1455 C1453 1.387 . S
C1455 C1457 1.390 . S
C1455 H1459 0.950 . S
H1456 C1452 0.950 . S
C1457 C1455 1.390 . S
C1457 C1458 1.387 . S
C1457 H1460 0.950 . S
C1458 C1457 1.387 . S
C1458 C1461 1.387 . S
H1459 C1455 0.950 . S
H1460 C1457 0.950 . S
C1461 C1452 1.390 . S
C1461 H1454 0.950 . S
C1461 C1458 1.387 . S
C1462 C1463 1.387 . S
C1462 H1466 0.950 . S
C1462 C1471 1.390 . S
C1463 C1462 1.387 . S
C1463 C1465 1.387 . S
H1464 C1471 0.950 . S
C1465 C1463 1.387 . S
C1465 C1467 1.390 . S
C1465 H1469 0.950 . S
H1466 C1462 0.950 . S
C1467 C1465 1.390 . S
C1467 C1468 1.387 . S
C1467 H1470 0.950 . S
C1468 C1467 1.387 . S
C1468 C1471 1.387 . S
H1469 C1465 0.950 . S
H1470 C1467 0.950 . S
C1471 C1462 1.390 . S
C1471 H1464 0.950 . S
C1471 C1468 1.387 . S
C1472 C1473 1.387 . S
C1472 H1476 0.950 . S
C1472 C1481 1.390 . S
C1473 C1472 1.387 . S
C1473 C1475 1.387 . S
H1474 C1481 0.950 . S
C1475 C1473 1.387 . S
C1475 C1477 1.390 . S
C1475 H1479 0.950 . S
H1476 C1472 0.950 . S
C1477 C1475 1.390 . S
C1477 C1478 1.387 . S
C1477 H1480 0.950 . S
C1478 C1477 1.387 . S
C1478 C1481 1.387 . S
H1479 C1475 0.950 . S
H1480 C1477 0.950 . S
C1481 C1472 1.390 . S
C1481 H1474 0.950 . S
C1481 C1478 1.387 . S
C1482 C1483 1.387 . S
C1482 H1486 0.950 . S
C1482 C1491 1.390 . S
C1483 C1482 1.387 . S
C1483 C1485 1.387 . S
H1484 C1491 0.950 . S
C1485 C1483 1.387 . S
C1485 C1487 1.390 . S
C1485 H1489 0.950 . S
H1486 C1482 0.950 . S
C1487 C1485 1.390 . S
C1487 C1488 1.387 . S
C1487 H1490 0.950 . S
C1488 C1487 1.387 . S
C1488 C1491 1.387 . S
H1489 C1485 0.950 . S
H1490 C1487 0.950 . S
C1491 C1482 1.390 . S
C1491 H1484 0.950 . S
C1491 C1488 1.387 . S
C1492 C1493 1.387 . S
C1492 H1496 0.950 . S
C1492 C1501 1.390 . S
C1493 C1492 1.387 . S
C1493 C1495 1.387 . S
H1494 C1501 0.950 . S
C1495 C1493 1.387 . S
C1495 C1497 1.390 . S
C1495 H1499 0.950 . S
H1496 C1492 0.950 . S
C1497 C1495 1.390 . S
C1497 C1498 1.387 . S
C1497 H1500 0.950 . S
C1498 C1497 1.387 . S
C1498 C1501 1.387 . S
H1499 C1495 0.950 . S
H1500 C1497 0.950 . S
C1501 C1492 1.390 . S
C1501 H1494 0.950 . S
C1501 C1498 1.387 . S
C1502 C1503 1.387 . S
C1502 H1506 0.950 . S
C1502 C1511 1.390 . S
C1503 C1502 1.387 . S
C1503 C1505 1.387 . S
H1504 C1511 0.950 . S
C1505 C1503 1.387 . S
C1505 C1507 1.390 . S
C1505 H1509 0.950 . S
H1506 C1502 0.950 . S
C1507 C1505 1.390 . S
C1507 C1508 1.387 . S
C1507 H1510 0.950 . S
C1508 C1507 1.387 . S
C1508 C1511 1.387 . S
H1509 C1505 0.950 . S
H1510 C1507 0.950 . S
C1511 C1502 1.390 . S
C1511 H1504 0.950 . S
C1511 C1508 1.387 . S
C1512 C1513 1.387 . S
C1512 H1516 0.950 . S
C1512 C1521 1.390 . S
C1513 C1512 1.387 . S
C1513 C1515 1.387 . S
H1514 C1521 0.950 . S
C1515 C1513 1.387 . S
C1515 C1517 1.390 . S
C1515 H1519 0.950 . S
H1516 C1512 0.950 . S
C1517 C1515 1.390 . S
C1517 C1518 1.387 . S
C1517 H1520 0.950 . S
C1518 C1517 1.387 . S
C1518 C1521 1.387 . S
H1519 C1515 0.950 . S
H1520 C1517 0.950 . S
C1521 C1512 1.390 . S
C1521 H1514 0.950 . S
C1521 C1518 1.387 . S
C1522 C1523 1.387 . S
C1522 H1526 0.950 . S
C1522 C1531 1.390 . S
C1523 C1522 1.387 . S
C1523 C1525 1.387 . S
H1524 C1531 0.950 . S
C1525 C1523 1.387 . S
C1525 C1527 1.390 . S
C1525 H1529 0.950 . S
H1526 C1522 0.950 . S
C1527 C1525 1.390 . S
C1527 C1528 1.387 . S
C1527 H1530 0.950 . S
C1528 C1527 1.387 . S
C1528 C1531 1.387 . S
H1529 C1525 0.950 . S
H1530 C1527 0.950 . S
C1531 C1522 1.390 . S
C1531 H1524 0.950 . S
C1531 C1528 1.387 . S
C1532 C1533 1.387 . S
C1532 H1536 0.950 . S
C1532 C1541 1.390 . S
C1533 C1532 1.387 . S
C1533 C1535 1.387 . S
H1534 C1541 0.950 . S
C1535 C1533 1.387 . S
C1535 C1537 1.390 . S
C1535 H1539 0.950 . S
H1536 C1532 0.950 . S
C1537 C1535 1.390 . S
C1537 C1538 1.387 . S
C1537 H1540 0.950 . S
C1538 C1537 1.387 . S
C1538 C1541 1.387 . S
H1539 C1535 0.950 . S
H1540 C1537 0.950 . S
C1541 C1532 1.390 . S
C1541 H1534 0.950 . S
C1541 C1538 1.387 . S
C1542 C1543 1.387 . S
C1542 H1546 0.950 . S
C1542 C1551 1.390 . S
C1543 C1542 1.387 . S
C1543 C1545 1.387 . S
H1544 C1551 0.950 . S
C1545 C1543 1.387 . S
C1545 C1547 1.390 . S
C1545 H1549 0.950 . S
H1546 C1542 0.950 . S
C1547 C1545 1.390 . S
C1547 C1548 1.387 . S
C1547 H1550 0.950 . S
C1548 C1547 1.387 . S
C1548 C1551 1.387 . S
H1549 C1545 0.950 . S
H1550 C1547 0.950 . S
C1551 C1542 1.390 . S
C1551 H1544 0.950 . S
C1551 C1548 1.387 . S
C1552 C1553 1.387 . S
C1552 H1556 0.950 . S
C1552 C1561 1.390 . S
C1553 C1552 1.387 . S
C1553 C1555 1.387 . S
H1554 C1561 0.950 . S
C1555 C1553 1.387 . S
C1555 C1557 1.390 . S
C1555 H1559 0.950 . S
H1556 C1552 0.950 . S
C1557 C1555 1.390 . S
C1557 C1558 1.387 . S
C1557 H1560 0.950 . S
C1558 C1557 1.387 . S
C1558 C1561 1.387 . S
H1559 C1555 0.950 . S
H1560 C1557 0.950 . S
C1561 C1552 1.390 . S
C1561 H1554 0.950 . S
C1561 C1558 1.387 . S
C1562 C1563 1.387 . S
C1562 H1566 0.950 . S
C1562 C1571 1.390 . S
C1563 C1562 1.387 . S
C1563 C1565 1.387 . S
H1564 C1571 0.950 . S
C1565 C1563 1.387 . S
C1565 C1567 1.390 . S
C1565 H1569 0.950 . S
H1566 C1562 0.950 . S
C1567 C1565 1.390 . S
C1567 C1568 1.387 . S
C1567 H1570 0.950 . S
C1568 C1567 1.387 . S
C1568 C1571 1.387 . S
H1569 C1565 0.950 . S
H1570 C1567 0.950 . S
C1571 C1562 1.390 . S
C1571 H1564 0.950 . S
C1571 C1568 1.387 . S
C1572 C1573 1.387 . S
C1572 H1576 0.950 . S
C1572 C1581 1.390 . S
C1573 C1572 1.387 . S
C1573 C1575 1.387 . S
H1574 C1581 0.950 . S
C1575 C1573 1.387 . S
C1575 C1577 1.390 . S
C1575 H1579 0.950 . S
H1576 C1572 0.950 . S
C1577 C1575 1.390 . S
C1577 C1578 1.387 . S
C1577 H1580 0.950 . S
C1578 C1577 1.387 . S
C1578 C1581 1.387 . S
H1579 C1575 0.950 . S
H1580 C1577 0.950 . S
C1581 C1572 1.390 . S
C1581 H1574 0.950 . S
C1581 C1578 1.387 . S
C1582 C1583 1.387 . S
C1582 H1586 0.950 . S
C1582 C1591 1.390 . S
C1583 C1582 1.387 . S
C1583 C1585 1.387 . S
H1584 C1591 0.950 . S
C1585 C1583 1.387 . S
C1585 C1587 1.390 . S
C1585 H1589 0.950 . S
H1586 C1582 0.950 . S
C1587 C1585 1.390 . S
C1587 C1588 1.387 . S
C1587 H1590 0.950 . S
C1588 C1587 1.387 . S
C1588 C1591 1.387 . S
H1589 C1585 0.950 . S
H1590 C1587 0.950 . S
C1591 C1582 1.390 . S
C1591 H1584 0.950 . S
C1591 C1588 1.387 . S
C1592 C1593 1.387 . S
C1592 H1596 0.950 . S
C1592 C1601 1.390 . S
C1593 C1592 1.387 . S
C1593 C1595 1.387 . S
H1594 C1601 0.950 . S
C1595 C1593 1.387 . S
C1595 C1597 1.390 . S
C1595 H1599 0.950 . S
H1596 C1592 0.950 . S
C1597 C1595 1.390 . S
C1597 C1598 1.387 . S
C1597 H1600 0.950 . S
C1598 C1597 1.387 . S
C1598 C1601 1.387 . S
H1599 C1595 0.950 . S
H1600 C1597 0.950 . S
C1601 C1592 1.390 . S
C1601 H1594 0.950 . S
C1601 C1598 1.387 . S
C1602 C1603 1.387 . S
C1602 H1606 0.950 . S
C1602 C1611 1.390 . S
C1603 C1602 1.387 . S
C1603 C1605 1.387 . S
H1604 C1611 0.950 . S
C1605 C1603 1.387 . S
C1605 C1607 1.390 . S
C1605 H1609 0.950 . S
H1606 C1602 0.950 . S
C1607 C1605 1.390 . S
C1607 C1608 1.387 . S
C1607 H1610 0.950 . S
C1608 C1607 1.387 . S
C1608 C1611 1.387 . S
H1609 C1605 0.950 . S
H1610 C1607 0.950 . S
C1611 C1602 1.390 . S
C1611 H1604 0.950 . S
C1611 C1608 1.387 . S
C1612 C1613 1.387 . S
C1612 H1616 0.950 . S
C1612 C1621 1.390 . S
C1613 C1612 1.387 . S
C1613 C1615 1.387 . S
H1614 C1621 0.950 . S
C1615 C1613 1.387 . S
C1615 C1617 1.390 . S
C1615 H1619 0.950 . S
H1616 C1612 0.950 . S
C1617 C1615 1.390 . S
C1617 C1618 1.387 . S
C1617 H1620 0.950 . S
C1618 C1617 1.387 . S
C1618 C1621 1.387 . S
H1619 C1615 0.950 . S
H1620 C1617 0.950 . S
C1621 C1612 1.390 . S
C1621 H1614 0.950 . S
C1621 C1618 1.387 . S
C1622 C1623 1.387 . S
C1622 H1626 0.950 . S
C1622 C1631 1.390 . S
C1623 C1622 1.387 . S
C1623 C1625 1.387 . S
H1624 C1631 0.950 . S
C1625 C1623 1.387 . S
C1625 C1627 1.390 . S
C1625 H1629 0.950 . S
H1626 C1622 0.950 . S
C1627 C1625 1.390 . S
C1627 C1628 1.387 . S
C1627 H1630 0.950 . S
C1628 C1627 1.387 . S
C1628 C1631 1.387 . S
H1629 C1625 0.950 . S
H1630 C1627 0.950 . S
C1631 C1622 1.390 . S
C1631 H1624 0.950 . S
C1631 C1628 1.387 . S
C1632 C1633 1.387 . S
C1632 H1636 0.950 . S
C1632 C1641 1.390 1_554 S
C1633 C1632 1.387 . S
C1633 C1635 1.387 . S
H1634 C1641 0.950 . S
C1635 C1633 1.387 . S
C1635 C1637 1.390 1_554 S
C1635 H1639 0.950 . S
H1636 C1632 0.950 . S
C1637 C1635 1.390 1_556 S
C1637 C1638 1.387 . S
C1637 H1640 0.950 . S
C1638 C1637 1.387 . S
C1638 C1641 1.387 . S
H1639 C1635 0.950 . S
H1640 C1637 0.950 . S
C1641 C1632 1.390 1_556 S
C1641 H1634 0.950 . S
C1641 C1638 1.387 . S
C1642 C1643 1.387 . S
C1642 H1646 0.950 . S
C1642 C1651 1.390 1_554 S
C1643 C1642 1.387 . S
C1643 C1645 1.387 . S
H1644 C1651 0.950 . S
C1645 C1643 1.387 . S
C1645 C1647 1.390 1_554 S
C1645 H1649 0.950 . S
H1646 C1642 0.950 . S
C1647 C1645 1.390 1_556 S
C1647 C1648 1.387 . S
C1647 H1650 0.950 . S
C1648 C1647 1.387 . S
C1648 C1651 1.387 . S
H1649 C1645 0.950 . S
H1650 C1647 0.950 . S
C1651 C1642 1.390 1_556 S
C1651 H1644 0.950 . S
C1651 C1648 1.387 . S
C1652 C1653 1.387 . S
C1652 H1656 0.950 . S
C1652 C1661 1.390 1_556 S
C1653 C1652 1.387 . S
C1653 C1655 1.387 . S
H1654 C1661 0.950 . S
C1655 C1653 1.387 . S
C1655 C1657 1.390 1_556 S
C1655 H1659 0.950 . S
H1656 C1652 0.950 . S
C1657 C1655 1.390 1_554 S
C1657 C1658 1.387 . S
C1657 H1660 0.950 . S
C1658 C1657 1.387 . S
C1658 C1661 1.387 . S
H1659 C1655 0.950 . S
H1660 C1657 0.950 . S
C1661 C1652 1.390 1_554 S
C1661 H1654 0.950 . S
C1661 C1658 1.387 . S
C1662 C1663 1.387 . S
C1662 H1666 0.950 . S
C1662 C1671 1.390 1_554 S
C1663 C1662 1.387 . S
C1663 C1665 1.387 . S
H1664 C1671 0.950 . S
C1665 C1663 1.387 . S
C1665 C1667 1.390 1_554 S
C1665 H1669 0.950 . S
H1666 C1662 0.950 . S
C1667 C1665 1.390 1_556 S
C1667 C1668 1.387 . S
C1667 H1670 0.950 . S
C1668 C1667 1.387 . S
C1668 C1671 1.387 . S
H1669 C1665 0.950 . S
H1670 C1667 0.950 . S
C1671 C1662 1.390 1_556 S
C1671 H1664 0.950 . S
C1671 C1668 1.387 . S
C1672 C1673 1.387 . S
C1672 H1676 0.950 . S
C1672 C1681 1.390 . S
C1673 C1672 1.387 . S
C1673 C1675 1.387 . S
H1674 C1681 0.950 . S
C1675 C1673 1.387 . S
C1675 C1677 1.390 . S
C1675 H1679 0.950 . S
H1676 C1672 0.950 . S
C1677 C1675 1.390 . S
C1677 C1678 1.387 . S
C1677 H1680 0.950 . S
C1678 C1677 1.387 . S
C1678 C1681 1.387 . S
H1679 C1675 0.950 . S
H1680 C1677 0.950 . S
C1681 C1672 1.390 . S
C1681 H1674 0.950 . S
C1681 C1678 1.387 . S
C1682 C1683 1.387 . S
C1682 H1686 0.950 . S
C1682 C1691 1.390 . S
C1683 C1682 1.387 . S
C1683 C1685 1.387 . S
H1684 C1691 0.950 . S
C1685 C1683 1.387 . S
C1685 C1687 1.390 . S
C1685 H1689 0.950 . S
H1686 C1682 0.950 . S
C1687 C1685 1.390 . S
C1687 C1688 1.387 . S
C1687 H1690 0.950 . S
C1688 C1687 1.387 . S
C1688 C1691 1.387 . S
H1689 C1685 0.950 . S
H1690 C1687 0.950 . S
C1691 C1682 1.390 . S
C1691 H1684 0.950 . S
C1691 C1688 1.387 . S
C1692 C1693 1.387 . S
C1692 H1696 0.950 . S
C1692 C1701 1.390 . S
C1693 C1692 1.387 . S
C1693 C1695 1.387 . S
H1694 C1701 0.950 . S
C1695 C1693 1.387 . S
C1695 C1697 1.390 . S
C1695 H1699 0.950 . S
H1696 C1692 0.950 . S
C1697 C1695 1.390 . S
C1697 C1698 1.387 . S
C1697 H1700 0.950 . S
C1698 C1697 1.387 . S
C1698 C1701 1.387 . S
H1699 C1695 0.950 . S
H1700 C1697 0.950 . S
C1701 C1692 1.390 . S
C1701 H1694 0.950 . S
C1701 C1698 1.387 . S
C1702 C1703 1.387 . S
C1702 H1706 0.950 . S
C1702 C1711 1.390 . S
C1703 C1702 1.387 . S
C1703 C1705 1.387 . S
H1704 C1711 0.950 . S
C1705 C1703 1.387 . S
C1705 C1707 1.390 . S
C1705 H1709 0.950 . S
H1706 C1702 0.950 . S
C1707 C1705 1.390 . S
C1707 C1708 1.387 . S
C1707 H1710 0.950 . S
C1708 C1707 1.387 . S
C1708 C1711 1.387 . S
H1709 C1705 0.950 . S
H1710 C1707 0.950 . S
C1711 C1702 1.390 . S
C1711 H1704 0.950 . S
C1711 C1708 1.387 . S
C1712 C1713 1.387 . S
C1712 H1716 0.950 . S
C1712 C1721 1.390 1_655 S
C1713 C1712 1.387 . S
C1713 C1715 1.387 . S
H1714 C1721 0.950 . S
C1715 C1713 1.387 . S
C1715 C1717 1.390 1_655 S
C1715 H1719 0.950 . S
H1716 C1712 0.950 . S
C1717 C1715 1.390 1_455 S
C1717 C1718 1.387 . S
C1717 H1720 0.950 . S
C1718 C1717 1.387 . S
C1718 C1721 1.387 . S
H1719 C1715 0.950 . S
H1720 C1717 0.950 . S
C1721 C1712 1.390 1_455 S
C1721 H1714 0.950 . S
C1721 C1718 1.387 . S
C1722 C1723 1.387 . S
C1722 H1726 0.950 . S
C1722 C1731 1.390 1_565 S
C1723 C1722 1.387 . S
C1723 C1725 1.387 . S
H1724 C1731 0.950 . S
C1725 C1723 1.387 . S
C1725 C1727 1.390 1_565 S
C1725 H1729 0.950 . S
H1726 C1722 0.950 . S
C1727 C1725 1.390 1_545 S
C1727 C1728 1.387 . S
C1727 H1730 0.950 . S
C1728 C1727 1.387 . S
C1728 C1731 1.387 . S
H1729 C1725 0.950 . S
H1730 C1727 0.950 . S
C1731 C1722 1.390 1_545 S
C1731 H1724 0.950 . S
C1731 C1728 1.387 . S
C1732 C1733 1.387 . S
C1732 H1736 0.950 . S
C1732 C1741 1.390 . S
C1733 C1732 1.387 . S
C1733 C1735 1.387 . S
H1734 C1741 0.950 . S
C1735 C1733 1.387 . S
C1735 C1737 1.390 . S
C1735 H1739 0.950 . S
H1736 C1732 0.950 . S
C1737 C1735 1.390 . S
C1737 C1738 1.387 . S
C1737 H1740 0.950 . S
C1738 C1737 1.387 . S
C1738 C1741 1.387 . S
H1739 C1735 0.950 . S
H1740 C1737 0.950 . S
C1741 C1732 1.390 . S
C1741 H1734 0.950 . S
C1741 C1738 1.387 . S
C1742 C1743 1.387 . S
C1742 H1746 0.950 . S
C1742 C1751 1.390 . S
C1743 C1742 1.387 . S
C1743 C1745 1.387 . S
H1744 C1751 0.950 . S
C1745 C1743 1.387 . S
C1745 C1747 1.390 . S
C1745 H1749 0.950 . S
H1746 C1742 0.950 . S
C1747 C1745 1.390 . S
C1747 C1748 1.387 . S
C1747 H1750 0.950 . S
C1748 C1747 1.387 . S
C1748 C1751 1.387 . S
H1749 C1745 0.950 . S
H1750 C1747 0.950 . S
C1751 C1742 1.390 . S
C1751 H1744 0.950 . S
C1751 C1748 1.387 . S
C1752 C1753 1.387 . S
C1752 H1756 0.950 . S
C1752 C1761 1.390 1_455 S
C1753 C1752 1.387 . S
C1753 C1755 1.387 . S
H1754 C1761 0.950 . S
C1755 C1753 1.387 . S
C1755 C1757 1.390 1_455 S
C1755 H1759 0.950 . S
H1756 C1752 0.950 . S
C1757 C1755 1.390 1_655 S
C1757 C1758 1.387 . S
C1757 H1760 0.950 . S
C1758 C1757 1.387 . S
C1758 C1761 1.387 . S
H1759 C1755 0.950 . S
H1760 C1757 0.950 . S
C1761 C1752 1.390 1_655 S
C1761 H1754 0.950 . S
C1761 C1758 1.387 . S
C1762 C1763 1.387 . S
C1762 H1766 0.950 . S
C1762 C1771 1.390 1_565 S
C1763 C1762 1.387 . S
C1763 C1765 1.387 . S
H1764 C1771 0.950 . S
C1765 C1763 1.387 . S
C1765 C1767 1.390 1_565 S
C1765 H1769 0.950 . S
H1766 C1762 0.950 . S
C1767 C1765 1.390 1_545 S
C1767 C1768 1.387 . S
C1767 H1770 0.950 . S
C1768 C1767 1.387 . S
C1768 C1771 1.387 . S
H1769 C1765 0.950 . S
H1770 C1767 0.950 . S
C1771 C1762 1.390 1_545 S
C1771 H1764 0.950 . S
C1771 C1768 1.387 . S
C1772 C1773 1.387 . S
C1772 H1776 0.950 . S
C1772 C1781 1.390 . S
C1773 C1772 1.387 . S
C1773 C1775 1.387 . S
H1774 C1781 0.950 . S
C1775 C1773 1.387 . S
C1775 C1777 1.390 . S
C1775 H1779 0.950 . S
H1776 C1772 0.950 . S
C1777 C1775 1.390 . S
C1777 C1778 1.387 . S
C1777 H1780 0.950 . S
C1778 C1777 1.387 . S
C1778 C1781 1.387 . S
H1779 C1775 0.950 . S
H1780 C1777 0.950 . S
C1781 C1772 1.390 . S
C1781 H1774 0.950 . S
C1781 C1778 1.387 . S
C1782 C1783 1.387 . S
C1782 H1786 0.950 . S
C1782 C1791 1.390 . S
C1783 C1782 1.387 . S
C1783 C1785 1.387 . S
H1784 C1791 0.950 . S
C1785 C1783 1.387 . S
C1785 C1787 1.390 . S
C1785 H1789 0.950 . S
H1786 C1782 0.950 . S
C1787 C1785 1.390 . S
C1787 C1788 1.387 . S
C1787 H1790 0.950 . S
C1788 C1787 1.387 . S
C1788 C1791 1.387 . S
H1789 C1785 0.950 . S
H1790 C1787 0.950 . S
C1791 C1782 1.390 . S
C1791 H1784 0.950 . S
C1791 C1788 1.387 . S
C1792 C1793 1.387 . S
C1792 H1796 0.950 . S
C1792 C1801 1.390 1_565 S
C1793 C1792 1.387 . S
C1793 C1795 1.387 . S
H1794 C1801 0.950 . S
C1795 C1793 1.387 . S
C1795 C1797 1.390 1_565 S
C1795 H1799 0.950 . S
H1796 C1792 0.950 . S
C1797 C1795 1.390 1_545 S
C1797 C1798 1.387 . S
C1797 H1800 0.950 . S
C1798 C1797 1.387 . S
C1798 C1801 1.387 . S
H1799 C1795 0.950 . S
H1800 C1797 0.950 . S
C1801 C1792 1.390 1_545 S
C1801 H1794 0.950 . S
C1801 C1798 1.387 . S
C1802 C1803 1.387 . S
C1802 H1806 0.950 . S
C1802 C1811 1.390 . S
C1803 C1802 1.387 . S
C1803 C1805 1.387 . S
H1804 C1811 0.950 . S
C1805 C1803 1.387 . S
C1805 C1807 1.390 . S
C1805 H1809 0.950 . S
H1806 C1802 0.950 . S
C1807 C1805 1.390 . S
C1807 C1808 1.387 . S
C1807 H1810 0.950 . S
C1808 C1807 1.387 . S
C1808 C1811 1.387 . S
H1809 C1805 0.950 . S
H1810 C1807 0.950 . S
C1811 C1802 1.390 . S
C1811 H1804 0.950 . S
C1811 C1808 1.387 . S
C1812 C1813 1.387 . S
C1812 H1816 0.950 . S
C1812 C1821 1.390 1_455 S
C1813 C1812 1.387 . S
C1813 C1815 1.387 . S
H1814 C1821 0.950 . S
C1815 C1813 1.387 . S
C1815 C1817 1.390 1_455 S
C1815 H1819 0.950 . S
H1816 C1812 0.950 . S
C1817 C1815 1.390 1_655 S
C1817 C1818 1.387 . S
C1817 H1820 0.950 . S
C1818 C1817 1.387 . S
C1818 C1821 1.387 . S
H1819 C1815 0.950 . S
H1820 C1817 0.950 . S
C1821 C1812 1.390 1_655 S
C1821 H1814 0.950 . S
C1821 C1818 1.387 . S
C1822 C1823 1.387 . S
C1822 H1826 0.950 . S
C1822 C1831 1.390 1_545 S
C1823 C1822 1.387 . S
C1823 C1825 1.387 . S
H1824 C1831 0.950 . S
C1825 C1823 1.387 . S
C1825 C1827 1.390 1_545 S
C1825 H1829 0.950 . S
H1826 C1822 0.950 . S
C1827 C1825 1.390 1_565 S
C1827 C1828 1.387 . S
C1827 H1830 0.950 . S
C1828 C1827 1.387 . S
C1828 C1831 1.387 . S
H1829 C1825 0.950 . S
H1830 C1827 0.950 . S
C1831 C1822 1.390 1_565 S
C1831 H1824 0.950 . S
C1831 C1828 1.387 . S
C1832 C1833 1.387 . S
C1832 H1836 0.950 . S
C1832 C1841 1.390 . S
C1833 C1832 1.387 . S
C1833 C1835 1.387 . S
H1834 C1841 0.950 . S
C1835 C1833 1.387 . S
C1835 C1837 1.390 . S
C1835 H1839 0.950 . S
H1836 C1832 0.950 . S
C1837 C1835 1.390 . S
C1837 C1838 1.387 . S
C1837 H1840 0.950 . S
C1838 C1837 1.387 . S
C1838 C1841 1.387 . S
H1839 C1835 0.950 . S
H1840 C1837 0.950 . S
C1841 C1832 1.390 . S
C1841 H1834 0.950 . S
C1841 C1838 1.387 . S
C1842 C1843 1.387 . S
C1842 H1846 0.950 . S
C1842 C1851 1.390 . S
C1843 C1842 1.387 . S
C1843 C1845 1.387 . S
H1844 C1851 0.950 . S
C1845 C1843 1.387 . S
C1845 C1847 1.390 . S
C1845 H1849 0.950 . S
H1846 C1842 0.950 . S
C1847 C1845 1.390 . S
C1847 C1848 1.387 . S
C1847 H1850 0.950 . S
C1848 C1847 1.387 . S
C1848 C1851 1.387 . S
H1849 C1845 0.950 . S
H1850 C1847 0.950 . S
C1851 C1842 1.390 . S
C1851 H1844 0.950 . S
C1851 C1848 1.387 . S
C1852 C1853 1.387 . S
C1852 H1856 0.950 . S
C1852 C1861 1.390 1_455 S
C1853 C1852 1.387 . S
C1853 C1855 1.387 . S
H1854 C1861 0.950 . S
C1855 C1853 1.387 . S
C1855 C1857 1.390 1_455 S
C1855 H1859 0.950 . S
H1856 C1852 0.950 . S
C1857 C1855 1.390 1_655 S
C1857 C1858 1.387 . S
C1857 H1860 0.950 . S
C1858 C1857 1.387 . S
C1858 C1861 1.387 . S
H1859 C1855 0.950 . S
H1860 C1857 0.950 . S
C1861 C1852 1.390 1_655 S
C1861 H1854 0.950 . S
C1861 C1858 1.387 . S
C1862 C1863 1.387 . S
C1862 H1866 0.950 . S
C1862 C1871 1.390 . S
C1863 C1862 1.387 . S
C1863 C1865 1.387 . S
H1864 C1871 0.950 . S
C1865 C1863 1.387 . S
C1865 C1867 1.390 . S
C1865 H1869 0.950 . S
H1866 C1862 0.950 . S
C1867 C1865 1.390 . S
C1867 C1868 1.387 . S
C1867 H1870 0.950 . S
C1868 C1867 1.387 . S
C1868 C1871 1.387 . S
H1869 C1865 0.950 . S
H1870 C1867 0.950 . S
C1871 C1862 1.390 . S
C1871 H1864 0.950 . S
C1871 C1868 1.387 . S
C1872 C1873 1.387 . S
C1872 H1876 0.950 . S
C1872 C1881 1.390 1_554 S
C1873 C1872 1.387 . S
C1873 C1875 1.387 . S
H1874 C1881 0.950 . S
C1875 C1873 1.387 . S
C1875 C1877 1.390 1_554 S
C1875 H1879 0.950 . S
H1876 C1872 0.950 . S
C1877 C1875 1.390 1_556 S
C1877 C1878 1.387 . S
C1877 H1880 0.950 . S
C1878 C1877 1.387 . S
C1878 C1881 1.387 . S
H1879 C1875 0.950 . S
H1880 C1877 0.950 . S
C1881 C1872 1.390 1_556 S
C1881 H1874 0.950 . S
C1881 C1878 1.387 . S
C1882 C1883 1.387 . S
C1882 H1886 0.950 . S
C1882 C1891 1.390 1_554 S
C1883 C1882 1.387 . S
C1883 C1885 1.387 . S
H1884 C1891 0.950 . S
C1885 C1883 1.387 . S
C1885 C1887 1.390 1_554 S
C1885 H1889 0.950 . S
H1886 C1882 0.950 . S
C1887 C1885 1.390 1_556 S
C1887 C1888 1.387 . S
C1887 H1890 0.950 . S
C1888 C1887 1.387 . S
C1888 C1891 1.387 . S
H1889 C1885 0.950 . S
H1890 C1887 0.950 . S
C1891 C1882 1.390 1_556 S
C1891 H1884 0.950 . S
C1891 C1888 1.387 . S
C1892 C1893 1.387 . S
C1892 H1896 0.950 . S
C1892 C1901 1.390 1_554 S
C1893 C1892 1.387 . S
C1893 C1895 1.387 . S
H1894 C1901 0.950 . S
C1895 C1893 1.387 . S
C1895 C1897 1.390 1_554 S
C1895 H1899 0.950 . S
H1896 C1892 0.950 . S
C1897 C1895 1.390 1_556 S
C1897 C1898 1.387 . S
C1897 H1900 0.950 . S
C1898 C1897 1.387 . S
C1898 C1901 1.387 . S
H1899 C1895 0.950 . S
H1900 C1897 0.950 . S
C1901 C1892 1.390 1_556 S
C1901 H1894 0.950 . S
C1901 C1898 1.387 . S
C1902 C1903 1.387 . S
C1902 H1906 0.950 . S
C1902 C1911 1.390 1_556 S
C1903 C1902 1.387 . S
C1903 C1905 1.387 . S
H1904 C1911 0.950 . S
C1905 C1903 1.387 . S
C1905 C1907 1.390 1_556 S
C1905 H1909 0.950 . S
H1906 C1902 0.950 . S
C1907 C1905 1.390 1_554 S
C1907 C1908 1.387 . S
C1907 H1910 0.950 . S
C1908 C1907 1.387 . S
C1908 C1911 1.387 . S
H1909 C1905 0.950 . S
H1910 C1907 0.950 . S
C1911 C1902 1.390 1_554 S
C1911 H1904 0.950 . S
C1911 C1908 1.387 . S
C1912 C1913 1.387 . S
C1912 H1916 0.950 . S
C1912 C1921 1.390 . S
C1913 C1912 1.387 . S
C1913 C1915 1.387 . S
H1914 C1921 0.950 . S
C1915 C1913 1.387 . S
C1915 C1917 1.390 . S
C1915 H1919 0.950 . S
H1916 C1912 0.950 . S
C1917 C1915 1.390 . S
C1917 C1918 1.387 . S
C1917 H1920 0.950 . S
C1918 C1917 1.387 . S
C1918 C1921 1.387 . S
H1919 C1915 0.950 . S
H1920 C1917 0.950 . S
C1921 C1912 1.390 . S
C1921 H1914 0.950 . S
C1921 C1918 1.387 . S
C1922 C1923 1.387 . S
C1922 H1926 0.950 . S
C1922 C1931 1.390 . S
C1923 C1922 1.387 . S
C1923 C1925 1.387 . S
H1924 C1931 0.950 . S
C1925 C1923 1.387 . S
C1925 C1927 1.390 . S
C1925 H1929 0.950 . S
H1926 C1922 0.950 . S
C1927 C1925 1.390 . S
C1927 C1928 1.387 . S
C1927 H1930 0.950 . S
C1928 C1927 1.387 . S
C1928 C1931 1.387 . S
H1929 C1925 0.950 . S
H1930 C1927 0.950 . S
C1931 C1922 1.390 . S
C1931 H1924 0.950 . S
C1931 C1928 1.387 . S
C1932 C1933 1.387 . S
C1932 H1936 0.950 . S
C1932 C1941 1.390 . S
C1933 C1932 1.387 . S
C1933 C1935 1.387 . S
H1934 C1941 0.950 . S
C1935 C1933 1.387 . S
C1935 C1937 1.390 . S
C1935 H1939 0.950 . S
H1936 C1932 0.950 . S
C1937 C1935 1.390 . S
C1937 C1938 1.387 . S
C1937 H1940 0.950 . S
C1938 C1937 1.387 . S
C1938 C1941 1.387 . S
H1939 C1935 0.950 . S
H1940 C1937 0.950 . S
C1941 C1932 1.390 . S
C1941 H1934 0.950 . S
C1941 C1938 1.387 . S
C1942 C1943 1.387 . S
C1942 H1946 0.950 . S
C1942 C1951 1.390 . S
C1943 C1942 1.387 . S
C1943 C1945 1.387 . S
H1944 C1951 0.950 . S
C1945 C1943 1.387 . S
C1945 C1947 1.390 . S
C1945 H1949 0.950 . S
H1946 C1942 0.950 . S
C1947 C1945 1.390 . S
C1947 C1948 1.387 . S
C1947 H1950 0.950 . S
C1948 C1947 1.387 . S
C1948 C1951 1.387 . S
H1949 C1945 0.950 . S
H1950 C1947 0.950 . S
C1951 C1942 1.390 . S
C1951 H1944 0.950 . S
C1951 C1948 1.387 . S
C1952 C1953 1.387 . S
C1952 H1956 0.950 . S
C1952 C1961 1.390 1_655 S
C1953 C1952 1.387 . S
C1953 C1955 1.387 . S
H1954 C1961 0.950 . S
C1955 C1953 1.387 . S
C1955 C1957 1.390 1_655 S
C1955 H1959 0.950 . S
H1956 C1952 0.950 . S
C1957 C1955 1.390 1_455 S
C1957 C1958 1.387 . S
C1957 H1960 0.950 . S
C1958 C1957 1.387 . S
C1958 C1961 1.387 . S
H1959 C1955 0.950 . S
H1960 C1957 0.950 . S
C1961 C1952 1.390 1_455 S
C1961 H1954 0.950 . S
C1961 C1958 1.387 . S
C1962 C1963 1.387 . S
C1962 H1966 0.950 . S
C1962 C1971 1.390 1_545 S
C1963 C1962 1.387 . S
C1963 C1965 1.387 . S
H1964 C1971 0.950 . S
C1965 C1963 1.387 . S
C1965 C1967 1.390 1_545 S
C1965 H1969 0.950 . S
H1966 C1962 0.950 . S
C1967 C1965 1.390 1_565 S
C1967 C1968 1.387 . S
C1967 H1970 0.950 . S
C1968 C1967 1.387 . S
C1968 C1971 1.387 . S
H1969 C1965 0.950 . S
H1970 C1967 0.950 . S
C1971 C1962 1.390 1_565 S
C1971 H1964 0.950 . S
C1971 C1968 1.387 . S
C1972 C1973 1.387 . S
C1972 H1976 0.950 . S
C1972 C1981 1.390 . S
C1973 C1972 1.387 . S
C1973 C1975 1.387 . S
H1974 C1981 0.950 . S
C1975 C1973 1.387 . S
C1975 C1977 1.390 . S
C1975 H1979 0.950 . S
H1976 C1972 0.950 . S
C1977 C1975 1.390 . S
C1977 C1978 1.387 . S
C1977 H1980 0.950 . S
C1978 C1977 1.387 . S
C1978 C1981 1.387 . S
H1979 C1975 0.950 . S
H1980 C1977 0.950 . S
C1981 C1972 1.390 . S
C1981 H1974 0.950 . S
C1981 C1978 1.387 . S
C1982 C1983 1.387 . S
C1982 H1986 0.950 . S
C1982 C1991 1.390 . S
C1983 C1982 1.387 . S
C1983 C1985 1.387 . S
H1984 C1991 0.950 . S
C1985 C1983 1.387 . S
C1985 C1987 1.390 . S
C1985 H1989 0.950 . S
H1986 C1982 0.950 . S
C1987 C1985 1.390 . S
C1987 C1988 1.387 . S
C1987 H1990 0.950 . S
C1988 C1987 1.387 . S
C1988 C1991 1.387 . S
H1989 C1985 0.950 . S
H1990 C1987 0.950 . S
C1991 C1982 1.390 . S
C1991 H1984 0.950 . S
C1991 C1988 1.387 . S
C1992 C1993 1.387 . S
C1992 H1996 0.950 . S
C1992 C2001 1.390 1_455 S
C1993 C1992 1.387 . S
C1993 C1995 1.387 . S
H1994 C2001 0.950 . S
C1995 C1993 1.387 . S
C1995 C1997 1.390 1_455 S
C1995 H1999 0.950 . S
H1996 C1992 0.950 . S
C1997 C1995 1.390 1_655 S
C1997 C1998 1.387 . S
C1997 H2000 0.950 . S
C1998 C1997 1.387 . S
C1998 C2001 1.387 . S
H1999 C1995 0.950 . S
H2000 C1997 0.950 . S
C2001 C1992 1.390 1_655 S
C2001 H1994 0.950 . S
C2001 C1998 1.387 . S
C2002 C2003 1.387 . S
C2002 H2006 0.950 . S
C2002 C2011 1.390 1_565 S
C2003 C2002 1.387 . S
C2003 C2005 1.387 . S
H2004 C2011 0.950 . S
C2005 C2003 1.387 . S
C2005 C2007 1.390 1_565 S
C2005 H2009 0.950 . S
H2006 C2002 0.950 . S
C2007 C2005 1.390 1_545 S
C2007 C2008 1.387 . S
C2007 H2010 0.950 . S
C2008 C2007 1.387 . S
C2008 C2011 1.387 . S
H2009 C2005 0.950 . S
H2010 C2007 0.950 . S
C2011 C2002 1.390 1_545 S
C2011 H2004 0.950 . S
C2011 C2008 1.387 . S
C2012 C2013 1.387 . S
C2012 H2016 0.950 . S
C2012 C2021 1.390 . S
C2013 C2012 1.387 . S
C2013 C2015 1.387 . S
H2014 C2021 0.950 . S
C2015 C2013 1.387 . S
C2015 C2017 1.390 . S
C2015 H2019 0.950 . S
H2016 C2012 0.950 . S
C2017 C2015 1.390 . S
C2017 C2018 1.387 . S
C2017 H2020 0.950 . S
C2018 C2017 1.387 . S
C2018 C2021 1.387 . S
H2019 C2015 0.950 . S
H2020 C2017 0.950 . S
C2021 C2012 1.390 . S
C2021 H2014 0.950 . S
C2021 C2018 1.387 . S
C2022 C2023 1.387 . S
C2022 H2026 0.950 . S
C2022 C2031 1.390 . S
C2023 C2022 1.387 . S
C2023 C2025 1.387 . S
H2024 C2031 0.950 . S
C2025 C2023 1.387 . S
C2025 C2027 1.390 . S
C2025 H2029 0.950 . S
H2026 C2022 0.950 . S
C2027 C2025 1.390 . S
C2027 C2028 1.387 . S
C2027 H2030 0.950 . S
C2028 C2027 1.387 . S
C2028 C2031 1.387 . S
H2029 C2025 0.950 . S
H2030 C2027 0.950 . S
C2031 C2022 1.390 . S
C2031 H2024 0.950 . S
C2031 C2028 1.387 . S
C2032 C2033 1.387 . S
C2032 H2036 0.950 . S
C2032 C2041 1.390 1_565 S
C2033 C2032 1.387 . S
C2033 C2035 1.387 . S
H2034 C2041 0.950 . S
C2035 C2033 1.387 . S
C2035 C2037 1.390 1_565 S
C2035 H2039 0.950 . S
H2036 C2032 0.950 . S
C2037 C2035 1.390 1_545 S
C2037 C2038 1.387 . S
C2037 H2040 0.950 . S
C2038 C2037 1.387 . S
C2038 C2041 1.387 . S
H2039 C2035 0.950 . S
H2040 C2037 0.950 . S
C2041 C2032 1.390 1_545 S
C2041 H2034 0.950 . S
C2041 C2038 1.387 . S
C2042 C2043 1.387 . S
C2042 H2046 0.950 . S
C2042 C2051 1.390 . S
C2043 C2042 1.387 . S
C2043 C2045 1.387 . S
H2044 C2051 0.950 . S
C2045 C2043 1.387 . S
C2045 C2047 1.390 . S
C2045 H2049 0.950 . S
H2046 C2042 0.950 . S
C2047 C2045 1.390 . S
C2047 C2048 1.387 . S
C2047 H2050 0.950 . S
C2048 C2047 1.387 . S
C2048 C2051 1.387 . S
H2049 C2045 0.950 . S
H2050 C2047 0.950 . S
C2051 C2042 1.390 . S
C2051 H2044 0.950 . S
C2051 C2048 1.387 . S
C2052 C2053 1.387 . S
C2052 H2056 0.950 . S
C2052 C2061 1.343 1_655 S
C2053 C2052 1.387 . S
C2053 C2055 1.387 . S
H2054 C2061 0.967 . S
C2055 C2053 1.387 . S
C2055 C2057 1.390 1_655 S
C2055 H2059 0.950 . S
H2056 C2052 0.950 . S
C2057 C2055 1.390 1_455 S
C2057 C2058 1.387 . S
C2057 H2060 0.950 . S
C2058 C2057 1.387 . S
C2058 C2061 1.418 . S
H2059 C2055 0.950 . S
H2060 C2057 0.950 . S
C2061 C2052 1.343 1_455 S
C2061 H2054 0.967 . S
C2061 C2058 1.418 . S
C2062 C2063 1.387 . S
C2062 H2066 0.950 . S
C2062 C2071 1.390 1_545 S
C2063 C2062 1.387 . S
C2063 C2065 1.387 . S
H2064 C2071 0.950 . S
C2065 C2063 1.387 . S
C2065 C2067 1.390 1_545 S
C2065 H2069 0.950 . S
H2066 C2062 0.950 . S
C2067 C2065 1.390 1_565 S
C2067 C2068 1.387 . S
C2067 H2070 0.950 . S
C2068 C2067 1.387 . S
C2068 C2071 1.387 . S
H2069 C2065 0.950 . S
H2070 C2067 0.950 . S
C2071 C2062 1.390 1_565 S
C2071 H2064 0.950 . S
C2071 C2068 1.387 . S
C2072 C2073 1.387 . S
C2072 H2076 0.950 . S
C2072 C2081 1.390 . S
C2073 C2072 1.387 . S
C2073 C2075 1.387 . S
H2074 C2081 0.950 . S
C2075 C2073 1.387 . S
C2075 C2077 1.390 . S
C2075 H2079 0.950 . S
H2076 C2072 0.950 . S
C2077 C2075 1.390 . S
C2077 C2078 1.387 . S
C2077 H2080 0.950 . S
C2078 C2077 1.387 . S
C2078 C2081 1.387 . S
H2079 C2075 0.950 . S
H2080 C2077 0.950 . S
C2081 C2072 1.390 . S
C2081 H2074 0.950 . S
C2081 C2078 1.387 . S
C2082 C2083 1.387 . S
C2082 H2086 0.950 . S
C2082 C2091 1.390 . S
C2083 C2082 1.387 . S
C2083 C2085 1.387 . S
H2084 C2091 0.950 . S
C2085 C2083 1.387 . S
C2085 C2087 1.390 . S
C2085 H2089 0.950 . S
H2086 C2082 0.950 . S
C2087 C2085 1.390 . S
C2087 C2088 1.387 . S
C2087 H2090 0.950 . S
C2088 C2087 1.387 . S
C2088 C2091 1.387 . S
H2089 C2085 0.950 . S
H2090 C2087 0.950 . S
C2091 C2082 1.390 . S
C2091 H2084 0.950 . S
C2091 C2088 1.387 . S
C2092 C2093 1.387 . S
C2092 H2096 0.950 . S
C2092 C2101 1.390 1_455 S
C2093 C2092 1.387 . S
C2093 C2095 1.387 . S
H2094 C2101 0.950 . S
C2095 C2093 1.387 . S
C2095 C2097 1.390 1_455 S
C2095 H2099 0.950 . S
H2096 C2092 0.950 . S
C2097 C2095 1.390 1_655 S
C2097 C2098 1.387 . S
C2097 H2100 0.950 . S
C2098 C2097 1.387 . S
C2098 C2101 1.387 . S
H2099 C2095 0.950 . S
H2100 C2097 0.950 . S
C2101 C2092 1.390 1_655 S
C2101 H2094 0.950 . S
C2101 C2098 1.387 . S
C2102 C2103 1.387 . S
C2102 H2106 0.950 . S
C2102 C2111 1.390 . S
C2103 C2102 1.387 . S
C2103 C2105 1.387 . S
H2104 C2111 0.950 . S
C2105 C2103 1.387 . S
C2105 C2107 1.390 . S
C2105 H2109 0.950 . S
H2106 C2102 0.950 . S
C2107 C2105 1.390 . S
C2107 C2108 1.387 . S
C2107 H2110 0.950 . S
C2108 C2107 1.387 . S
C2108 C2111 1.387 . S
H2109 C2105 0.950 . S
H2110 C2107 0.950 . S
C2111 C2102 1.390 . S
C2111 H2104 0.950 . S
C2111 C2108 1.387 . S
C2112 C2113 1.387 . S
C2112 H2116 0.950 . S
C2112 C2121 1.390 . S
C2113 C2112 1.387 . S
C2113 C2115 1.387 . S
H2114 C2121 0.950 . S
C2115 C2113 1.387 . S
C2115 C2117 1.390 . S
C2115 H2119 0.950 . S
H2116 C2112 0.950 . S
C2117 C2115 1.390 . S
C2117 C2118 1.387 . S
C2117 H2120 0.950 . S
C2118 C2117 1.387 . S
C2118 C2121 1.387 . S
H2119 C2115 0.950 . S
H2120 C2117 0.950 . S
C2121 C2112 1.390 . S
C2121 H2114 0.950 . S
C2121 C2118 1.387 . S
C2122 C2123 1.387 . S
C2122 H2126 0.950 . S
C2122 C2131 1.390 . S
C2123 C2122 1.387 . S
C2123 C2125 1.387 . S
H2124 C2131 0.950 . S
C2125 C2123 1.387 . S
C2125 C2127 1.390 . S
C2125 H2129 0.950 . S
H2126 C2122 0.950 . S
C2127 C2125 1.390 . S
C2127 C2128 1.387 . S
C2127 H2130 0.950 . S
C2128 C2127 1.387 . S
C2128 C2131 1.387 . S
H2129 C2125 0.950 . S
H2130 C2127 0.950 . S
C2131 C2122 1.390 . S
C2131 H2124 0.950 . S
C2131 C2128 1.387 . S
C2132 C2133 1.387 . S
C2132 H2136 0.950 . S
C2132 C2141 1.390 . S
C2133 C2132 1.387 . S
C2133 C2135 1.387 . S
H2134 C2141 0.950 . S
C2135 C2133 1.387 . S
C2135 C2137 1.390 . S
C2135 H2139 0.950 . S
H2136 C2132 0.950 . S
C2137 C2135 1.390 . S
C2137 C2138 1.387 . S
C2137 H2140 0.950 . S
C2138 C2137 1.387 . S
C2138 C2141 1.387 . S
H2139 C2135 0.950 . S
H2140 C2137 0.950 . S
C2141 C2132 1.390 . S
C2141 H2134 0.950 . S
C2141 C2138 1.387 . S
C2142 C2143 1.387 . S
C2142 H2146 0.950 . S
C2142 C2151 1.390 . S
C2143 C2142 1.387 . S
C2143 C2145 1.387 . S
H2144 C2151 0.950 . S
C2145 C2143 1.387 . S
C2145 C2147 1.390 . S
C2145 H2149 0.950 . S
H2146 C2142 0.950 . S
C2147 C2145 1.390 . S
C2147 C2148 1.387 . S
C2147 H2150 0.950 . S
C2148 C2147 1.387 . S
C2148 C2151 1.387 . S
H2149 C2145 0.950 . S
H2150 C2147 0.950 . S
C2151 C2142 1.390 . S
C2151 H2144 0.950 . S
C2151 C2148 1.387 . S
C2152 C2153 1.387 . S
C2152 H2156 0.950 . S
C2152 C2161 1.390 . S
C2153 C2152 1.387 . S
C2153 C2155 1.387 . S
H2154 C2161 0.950 . S
C2155 C2153 1.387 . S
C2155 C2157 1.390 . S
C2155 H2159 0.950 . S
H2156 C2152 0.950 . S
C2157 C2155 1.390 . S
C2157 C2158 1.387 . S
C2157 H2160 0.950 . S
C2158 C2157 1.387 . S
C2158 C2161 1.387 . S
H2159 C2155 0.950 . S
H2160 C2157 0.950 . S
C2161 C2152 1.390 . S
C2161 H2154 0.950 . S
C2161 C2158 1.387 . S
C2162 C2163 1.387 . S
C2162 H2166 0.950 . S
C2162 C2171 1.390 . S
C2163 C2162 1.387 . S
C2163 C2165 1.387 . S
H2164 C2171 0.950 . S
C2165 C2163 1.387 . S
C2165 C2167 1.390 . S
C2165 H2169 0.950 . S
H2166 C2162 0.950 . S
C2167 C2165 1.390 . S
C2167 C2168 1.387 . S
C2167 H2170 0.950 . S
C2168 C2167 1.387 . S
C2168 C2171 1.387 . S
H2169 C2165 0.950 . S
H2170 C2167 0.950 . S
C2171 C2162 1.390 . S
C2171 H2164 0.950 . S
C2171 C2168 1.387 . S
C2172 C2173 1.387 . S
C2172 H2176 0.950 . S
C2172 C2181 1.390 . S
C2173 C2172 1.387 . S
C2173 C2175 1.387 . S
H2174 C2181 0.950 . S
C2175 C2173 1.387 . S
C2175 C2177 1.390 . S
C2175 H2179 0.950 . S
H2176 C2172 0.950 . S
C2177 C2175 1.390 . S
C2177 C2178 1.387 . S
C2177 H2180 0.950 . S
C2178 C2177 1.387 . S
C2178 C2181 1.387 . S
H2179 C2175 0.950 . S
H2180 C2177 0.950 . S
C2181 C2172 1.390 . S
C2181 H2174 0.950 . S
C2181 C2178 1.387 . S
C2182 C2183 1.387 . S
C2182 H2186 0.950 . S
C2182 C2191 1.390 . S
C2183 C2182 1.387 . S
C2183 C2185 1.387 . S
H2184 C2191 0.950 . S
C2185 C2183 1.387 . S
C2185 C2187 1.390 . S
C2185 H2189 0.950 . S
H2186 C2182 0.950 . S
C2187 C2185 1.390 . S
C2187 C2188 1.387 . S
C2187 H2190 0.950 . S
C2188 C2187 1.387 . S
C2188 C2191 1.387 . S
H2189 C2185 0.950 . S
H2190 C2187 0.950 . S
C2191 C2182 1.390 . S
C2191 H2184 0.950 . S
C2191 C2188 1.387 . S
C2192 C2193 1.387 . S
C2192 H2196 0.950 . S
C2192 C2201 1.390 . S
C2193 C2192 1.387 . S
C2193 C2195 1.387 . S
H2194 C2201 0.950 . S
C2195 C2193 1.387 . S
C2195 C2197 1.390 . S
C2195 H2199 0.950 . S
H2196 C2192 0.950 . S
C2197 C2195 1.390 . S
C2197 C2198 1.387 . S
C2197 H2200 0.950 . S
C2198 C2197 1.387 . S
C2198 C2201 1.387 . S
H2199 C2195 0.950 . S
H2200 C2197 0.950 . S
C2201 C2192 1.390 . S
C2201 H2194 0.950 . S
C2201 C2198 1.387 . S
C2202 C2203 1.387 . S
C2202 H2206 0.950 . S
C2202 C2211 1.390 . S
C2203 C2202 1.387 . S
C2203 C2205 1.387 . S
H2204 C2211 0.950 . S
C2205 C2203 1.387 . S
C2205 C2207 1.390 . S
C2205 H2209 0.950 . S
H2206 C2202 0.950 . S
C2207 C2205 1.390 . S
C2207 C2208 1.387 . S
C2207 H2210 0.950 . S
C2208 C2207 1.387 . S
C2208 C2211 1.387 . S
H2209 C2205 0.950 . S
H2210 C2207 0.950 . S
C2211 C2202 1.390 . S
C2211 H2204 0.950 . S
C2211 C2208 1.387 . S
C2212 C2213 1.387 . S
C2212 H2216 0.950 . S
C2212 C2221 1.390 . S
C2213 C2212 1.387 . S
C2213 C2215 1.387 . S
H2214 C2221 0.950 . S
C2215 C2213 1.387 . S
C2215 C2217 1.390 . S
C2215 H2219 0.950 . S
H2216 C2212 0.950 . S
C2217 C2215 1.390 . S
C2217 C2218 1.387 . S
C2217 H2220 0.950 . S
C2218 C2217 1.387 . S
C2218 C2221 1.387 . S
H2219 C2215 0.950 . S
H2220 C2217 0.950 . S
C2221 C2212 1.390 . S
C2221 H2214 0.950 . S
C2221 C2218 1.387 . S
C2222 C2223 1.387 . S
C2222 H2226 0.950 . S
C2222 C2231 1.390 . S
C2223 C2222 1.387 . S
C2223 C2225 1.387 . S
H2224 C2231 0.950 . S
C2225 C2223 1.387 . S
C2225 C2227 1.390 . S
C2225 H2229 0.950 . S
H2226 C2222 0.950 . S
C2227 C2225 1.390 . S
C2227 C2228 1.387 . S
C2227 H2230 0.950 . S
C2228 C2227 1.387 . S
C2228 C2231 1.387 . S
H2229 C2225 0.950 . S
H2230 C2227 0.950 . S
C2231 C2222 1.390 . S
C2231 H2224 0.950 . S
C2231 C2228 1.387 . S
C2232 C2233 1.387 . S
C2232 H2236 0.950 . S
C2232 C2241 1.390 . S
C2233 C2232 1.387 . S
C2233 C2235 1.387 . S
H2234 C2241 0.950 . S
C2235 C2233 1.387 . S
C2235 C2237 1.390 . S
C2235 H2239 0.950 . S
H2236 C2232 0.950 . S
C2237 C2235 1.390 . S
C2237 C2238 1.387 . S
C2237 H2240 0.950 . S
C2238 C2237 1.387 . S
C2238 C2241 1.387 . S
H2239 C2235 0.950 . S
H2240 C2237 0.950 . S
C2241 C2232 1.390 . S
C2241 H2234 0.950 . S
C2241 C2238 1.387 . S
C2242 C2243 1.387 . S
C2242 H2246 0.950 . S
C2242 C2251 1.390 . S
C2243 C2242 1.387 . S
C2243 C2245 1.387 . S
H2244 C2251 0.950 . S
C2245 C2243 1.387 . S
C2245 C2247 1.390 . S
C2245 H2249 0.950 . S
H2246 C2242 0.950 . S
C2247 C2245 1.390 . S
C2247 C2248 1.387 . S
C2247 H2250 0.950 . S
C2248 C2247 1.387 . S
C2248 C2251 1.387 . S
H2249 C2245 0.950 . S
H2250 C2247 0.950 . S
C2251 C2242 1.390 . S
C2251 H2244 0.950 . S
C2251 C2248 1.387 . S
C2252 C2253 1.387 . S
C2252 H2256 0.950 . S
C2252 C2261 1.390 . S
C2253 C2252 1.387 . S
C2253 C2255 1.387 . S
H2254 C2261 0.950 . S
C2255 C2253 1.387 . S
C2255 C2257 1.390 . S
C2255 H2259 0.950 . S
H2256 C2252 0.950 . S
C2257 C2255 1.390 . S
C2257 C2258 1.387 . S
C2257 H2260 0.950 . S
C2258 C2257 1.387 . S
C2258 C2261 1.387 . S
H2259 C2255 0.950 . S
H2260 C2257 0.950 . S
C2261 C2252 1.390 . S
C2261 H2254 0.950 . S
C2261 C2258 1.387 . S
C2262 C2263 1.387 . S
C2262 H2266 0.950 . S
C2262 C2271 1.390 . S
C2263 C2262 1.387 . S
C2263 C2265 1.387 . S
H2264 C2271 0.950 . S
C2265 C2263 1.387 . S
C2265 C2267 1.390 . S
C2265 H2269 0.950 . S
H2266 C2262 0.950 . S
C2267 C2265 1.390 . S
C2267 C2268 1.387 . S
C2267 H2270 0.950 . S
C2268 C2267 1.387 . S
C2268 C2271 1.387 . S
H2269 C2265 0.950 . S
H2270 C2267 0.950 . S
C2271 C2262 1.390 . S
C2271 H2264 0.950 . S
C2271 C2268 1.387 . S
C2272 C2273 1.387 . S
C2272 H2276 0.950 . S
C2272 C2281 1.390 . S
C2273 C2272 1.387 . S
C2273 C2275 1.387 . S
H2274 C2281 0.950 . S
C2275 C2273 1.387 . S
C2275 C2277 1.390 . S
C2275 H2279 0.950 . S
H2276 C2272 0.950 . S
C2277 C2275 1.390 . S
C2277 C2278 1.387 . S
C2277 H2280 0.950 . S
C2278 C2277 1.387 . S
C2278 C2281 1.387 . S
H2279 C2275 0.950 . S
H2280 C2277 0.950 . S
C2281 C2272 1.390 . S
C2281 H2274 0.950 . S
C2281 C2278 1.387 . S
C2282 C2283 1.387 . S
C2282 H2286 0.950 . S
C2282 C2291 1.390 . S
C2283 C2282 1.387 . S
C2283 C2285 1.387 . S
H2284 C2291 0.950 . S
C2285 C2283 1.387 . S
C2285 C2287 1.390 . S
C2285 H2289 0.950 . S
H2286 C2282 0.950 . S
C2287 C2285 1.390 . S
C2287 C2288 1.387 . S
C2287 H2290 0.950 . S
C2288 C2287 1.387 . S
C2288 C2291 1.387 . S
H2289 C2285 0.950 . S
H2290 C2287 0.950 . S
C2291 C2282 1.390 . S
C2291 H2284 0.950 . S
C2291 C2288 1.387 . S
C2292 C2293 1.387 . S
C2292 H2296 0.950 . S
C2292 C2301 1.390 . S
C2293 C2292 1.387 . S
C2293 C2295 1.387 . S
H2294 C2301 0.950 . S
C2295 C2293 1.387 . S
C2295 C2297 1.390 . S
C2295 H2299 0.950 . S
H2296 C2292 0.950 . S
C2297 C2295 1.390 . S
C2297 C2298 1.387 . S
C2297 H2300 0.950 . S
C2298 C2297 1.387 . S
C2298 C2301 1.387 . S
H2299 C2295 0.950 . S
H2300 C2297 0.950 . S
C2301 C2292 1.390 . S
C2301 H2294 0.950 . S
C2301 C2298 1.387 . S
C2302 C2303 1.387 . S
C2302 H2306 0.950 . S
C2302 C2311 1.390 . S
C2303 C2302 1.387 . S
C2303 C2305 1.387 . S
H2304 C2311 0.950 . S
C2305 C2303 1.387 . S
C2305 C2307 1.390 . S
C2305 H2309 0.950 . S
H2306 C2302 0.950 . S
C2307 C2305 1.390 . S
C2307 C2308 1.387 . S
C2307 H2310 0.950 . S
C2308 C2307 1.387 . S
C2308 C2311 1.387 . S
H2309 C2305 0.950 . S
H2310 C2307 0.950 . S
C2311 C2302 1.390 . S
C2311 H2304 0.950 . S
C2311 C2308 1.387 . S
C2312 C2313 1.387 . S
C2312 H2316 0.950 . S
C2312 C2321 1.390 . S
C2313 C2312 1.387 . S
C2313 C2315 1.387 . S
H2314 C2321 0.950 . S
C2315 C2313 1.387 . S
C2315 C2317 1.390 . S
C2315 H2319 0.950 . S
H2316 C2312 0.950 . S
C2317 C2315 1.390 . S
C2317 C2318 1.387 . S
C2317 H2320 0.950 . S
C2318 C2317 1.387 . S
C2318 C2321 1.387 . S
H2319 C2315 0.950 . S
H2320 C2317 0.950 . S
C2321 C2312 1.390 . S
C2321 H2314 0.950 . S
C2321 C2318 1.387 . S
C2322 C2323 1.387 . S
C2322 H2326 0.950 . S
C2322 C2331 1.390 . S
C2323 C2322 1.387 . S
C2323 C2325 1.387 . S
H2324 C2331 0.950 . S
C2325 C2323 1.387 . S
C2325 C2327 1.390 . S
C2325 H2329 0.950 . S
H2326 C2322 0.950 . S
C2327 C2325 1.390 . S
C2327 C2328 1.387 . S
C2327 H2330 0.950 . S
C2328 C2327 1.387 . S
C2328 C2331 1.387 . S
H2329 C2325 0.950 . S
H2330 C2327 0.950 . S
C2331 C2322 1.390 . S
C2331 H2324 0.950 . S
C2331 C2328 1.387 . S
C2332 C2333 1.387 . S
C2332 H2336 0.950 . S
C2332 C2341 1.390 . S
C2333 C2332 1.387 . S
C2333 C2335 1.387 . S
H2334 C2341 0.950 . S
C2335 C2333 1.387 . S
C2335 C2337 1.390 . S
C2335 H2339 0.950 . S
H2336 C2332 0.950 . S
C2337 C2335 1.390 . S
C2337 C2338 1.387 . S
C2337 H2340 0.950 . S
C2338 C2337 1.387 . S
C2338 C2341 1.387 . S
H2339 C2335 0.950 . S
H2340 C2337 0.950 . S
C2341 C2332 1.390 . S
C2341 H2334 0.950 . S
C2341 C2338 1.387 . S
C2342 C2343 1.387 . S
C2342 H2346 0.950 . S
C2342 C2351 1.390 . S
C2343 C2342 1.387 . S
C2343 C2345 1.387 . S
H2344 C2351 0.950 . S
C2345 C2343 1.387 . S
C2345 C2347 1.390 . S
C2345 H2349 0.950 . S
H2346 C2342 0.950 . S
C2347 C2345 1.390 . S
C2347 C2348 1.387 . S
C2347 H2350 0.950 . S
C2348 C2347 1.387 . S
C2348 C2351 1.387 . S
H2349 C2345 0.950 . S
H2350 C2347 0.950 . S
C2351 C2342 1.390 . S
C2351 H2344 0.950 . S
C2351 C2348 1.387 . S
C2352 C2353 1.387 . S
C2352 H2356 0.950 . S
C2352 C2361 1.390 . S
C2353 C2352 1.387 . S
C2353 C2355 1.387 . S
H2354 C2361 0.950 . S
C2355 C2353 1.387 . S
C2355 C2357 1.390 . S
C2355 H2359 0.950 . S
H2356 C2352 0.950 . S
C2357 C2355 1.390 . S
C2357 C2358 1.387 . S
C2357 H2360 0.950 . S
C2358 C2357 1.387 . S
C2358 C2361 1.387 . S
H2359 C2355 0.950 . S
H2360 C2357 0.950 . S
C2361 C2352 1.390 . S
C2361 H2354 0.950 . S
C2361 C2358 1.387 . S
C2362 C2363 1.387 . S
C2362 H2366 0.950 . S
C2362 C2371 1.390 . S
C2363 C2362 1.387 . S
C2363 C2365 1.387 . S
H2364 C2371 0.950 . S
C2365 C2363 1.387 . S
C2365 C2367 1.390 . S
C2365 H2369 0.950 . S
H2366 C2362 0.950 . S
C2367 C2365 1.390 . S
C2367 C2368 1.387 . S
C2367 H2370 0.950 . S
C2368 C2367 1.387 . S
C2368 C2371 1.387 . S
H2369 C2365 0.950 . S
H2370 C2367 0.950 . S
C2371 C2362 1.390 . S
C2371 H2364 0.950 . S
C2371 C2368 1.387 . S
C2372 C2373 1.387 . S
C2372 H2376 0.950 . S
C2372 C2381 1.390 . S
C2373 C2372 1.387 . S
C2373 C2375 1.387 . S
H2374 C2381 0.950 . S
C2375 C2373 1.387 . S
C2375 C2377 1.390 . S
C2375 H2379 0.950 . S
H2376 C2372 0.950 . S
C2377 C2375 1.390 . S
C2377 C2378 1.387 . S
C2377 H2380 0.950 . S
C2378 C2377 1.387 . S
C2378 C2381 1.387 . S
H2379 C2375 0.950 . S
H2380 C2377 0.950 . S
C2381 C2372 1.390 . S
C2381 H2374 0.950 . S
C2381 C2378 1.387 . S
C2382 C2383 1.387 . S
C2382 H2386 0.950 . S
C2382 C2391 1.390 . S
C2383 C2382 1.387 . S
C2383 C2385 1.387 . S
H2384 C2391 0.950 . S
C2385 C2383 1.387 . S
C2385 C2387 1.390 . S
C2385 H2389 0.950 . S
H2386 C2382 0.950 . S
C2387 C2385 1.390 . S
C2387 C2388 1.387 . S
C2387 H2390 0.950 . S
C2388 C2387 1.387 . S
C2388 C2391 1.387 . S
H2389 C2385 0.950 . S
H2390 C2387 0.950 . S
C2391 C2382 1.390 . S
C2391 H2384 0.950 . S
C2391 C2388 1.387 . S
C2392 C2393 1.387 . S
C2392 H2396 0.950 . S
C2392 C2401 1.390 . S
C2393 C2392 1.387 . S
C2393 C2395 1.387 . S
H2394 C2401 0.950 . S
C2395 C2393 1.387 . S
C2395 C2397 1.390 . S
C2395 H2399 0.950 . S
H2396 C2392 0.950 . S
C2397 C2395 1.390 . S
C2397 C2398 1.387 . S
C2397 H2400 0.950 . S
C2398 C2397 1.387 . S
C2398 C2401 1.387 . S
H2399 C2395 0.950 . S
H2400 C2397 0.950 . S
C2401 C2392 1.390 . S
C2401 H2394 0.950 . S
C2401 C2398 1.387 . S
C2402 C2403 1.387 . S
C2402 H2406 0.950 . S
C2402 C2411 1.390 . S
C2403 C2402 1.387 . S
C2403 C2405 1.387 . S
H2404 C2411 0.950 . S
C2405 C2403 1.387 . S
C2405 C2407 1.390 . S
C2405 H2409 0.950 . S
H2406 C2402 0.950 . S
C2407 C2405 1.390 . S
C2407 C2408 1.387 . S
C2407 H2410 0.950 . S
C2408 C2407 1.387 . S
C2408 C2411 1.387 . S
H2409 C2405 0.950 . S
H2410 C2407 0.950 . S
C2411 C2402 1.390 . S
C2411 H2404 0.950 . S
C2411 C2408 1.387 . S
C2412 C2413 1.387 . S
C2412 H2416 0.950 . S
C2412 C2421 1.390 . S
C2413 C2412 1.387 . S
C2413 C2415 1.387 . S
H2414 C2421 0.950 . S
C2415 C2413 1.387 . S
C2415 C2417 1.390 . S
C2415 H2419 0.950 . S
H2416 C2412 0.950 . S
C2417 C2415 1.390 . S
C2417 C2418 1.387 . S
C2417 H2420 0.950 . S
C2418 C2417 1.387 . S
C2418 C2421 1.387 . S
H2419 C2415 0.950 . S
H2420 C2417 0.950 . S
C2421 C2412 1.390 . S
C2421 H2414 0.950 . S
C2421 C2418 1.387 . S
C2422 C2423 1.387 . S
C2422 H2426 0.950 . S
C2422 C2431 1.390 . S
C2423 C2422 1.387 . S
C2423 C2425 1.387 . S
H2424 C2431 0.950 . S
C2425 C2423 1.387 . S
C2425 C2427 1.390 . S
C2425 H2429 0.950 . S
H2426 C2422 0.950 . S
C2427 C2425 1.390 . S
C2427 C2428 1.387 . S
C2427 H2430 0.950 . S
C2428 C2427 1.387 . S
C2428 C2431 1.387 . S
H2429 C2425 0.950 . S
H2430 C2427 0.950 . S
C2431 C2422 1.390 . S
C2431 H2424 0.950 . S
C2431 C2428 1.387 . S
C2432 C2433 1.387 . S
C2432 H2436 0.950 . S
C2432 C2441 1.390 . S
C2433 C2432 1.387 . S
C2433 C2435 1.387 . S
H2434 C2441 0.950 . S
C2435 C2433 1.387 . S
C2435 C2437 1.390 . S
C2435 H2439 0.950 . S
H2436 C2432 0.950 . S
C2437 C2435 1.390 . S
C2437 C2438 1.387 . S
C2437 H2440 0.950 . S
C2438 C2437 1.387 . S
C2438 C2441 1.387 . S
H2439 C2435 0.950 . S
H2440 C2437 0.950 . S
C2441 C2432 1.390 . S
C2441 H2434 0.950 . S
C2441 C2438 1.387 . S
C2442 C2443 1.387 . S
C2442 H2446 0.950 . S
C2442 C2451 1.390 . S
C2443 C2442 1.387 . S
C2443 C2445 1.387 . S
H2444 C2451 0.950 . S
C2445 C2443 1.387 . S
C2445 C2447 1.390 . S
C2445 H2449 0.950 . S
H2446 C2442 0.950 . S
C2447 C2445 1.390 . S
C2447 C2448 1.387 . S
C2447 H2450 0.950 . S
C2448 C2447 1.387 . S
C2448 C2451 1.387 . S
H2449 C2445 0.950 . S
H2450 C2447 0.950 . S
C2451 C2442 1.390 . S
C2451 H2444 0.950 . S
C2451 C2448 1.387 . S
C2452 C2453 1.387 . S
C2452 H2456 0.950 . S
C2452 C2461 1.390 . S
C2453 C2452 1.387 . S
C2453 C2455 1.387 . S
H2454 C2461 0.950 . S
C2455 C2453 1.387 . S
C2455 C2457 1.390 . S
C2455 H2459 0.950 . S
H2456 C2452 0.950 . S
C2457 C2455 1.390 . S
C2457 C2458 1.387 . S
C2457 H2460 0.950 . S
C2458 C2457 1.387 . S
C2458 C2461 1.387 . S
H2459 C2455 0.950 . S
H2460 C2457 0.950 . S
C2461 C2452 1.390 . S
C2461 H2454 0.950 . S
C2461 C2458 1.387 . S
C2462 C2463 1.387 . S
C2462 H2466 0.950 . S
C2462 C2471 1.390 . S
C2463 C2462 1.387 . S
C2463 C2465 1.387 . S
H2464 C2471 0.950 . S
C2465 C2463 1.387 . S
C2465 C2467 1.390 . S
C2465 H2469 0.950 . S
H2466 C2462 0.950 . S
C2467 C2465 1.390 . S
C2467 C2468 1.387 . S
C2467 H2470 0.950 . S
C2468 C2467 1.387 . S
C2468 C2471 1.387 . S
H2469 C2465 0.950 . S
H2470 C2467 0.950 . S
C2471 C2462 1.390 . S
C2471 H2464 0.950 . S
C2471 C2468 1.387 . S
C2472 C2473 1.387 . S
C2472 H2476 0.950 . S
C2472 C2481 1.390 . S
C2473 C2472 1.387 . S
C2473 C2475 1.387 . S
H2474 C2481 0.950 . S
C2475 C2473 1.387 . S
C2475 C2477 1.390 . S
C2475 H2479 0.950 . S
H2476 C2472 0.950 . S
C2477 C2475 1.390 . S
C2477 C2478 1.387 . S
C2477 H2480 0.950 . S
C2478 C2477 1.387 . S
C2478 C2481 1.387 . S
H2479 C2475 0.950 . S
H2480 C2477 0.950 . S
C2481 C2472 1.390 . S
C2481 H2474 0.950 . S
C2481 C2478 1.387 . S
C2482 C2483 1.387 . S
C2482 H2486 0.950 . S
C2482 C2491 1.390 . S
C2483 C2482 1.387 . S
C2483 C2485 1.387 . S
H2484 C2491 0.950 . S
C2485 C2483 1.387 . S
C2485 C2487 1.390 . S
C2485 H2489 0.950 . S
H2486 C2482 0.950 . S
C2487 C2485 1.390 . S
C2487 C2488 1.387 . S
C2487 H2490 0.950 . S
C2488 C2487 1.387 . S
C2488 C2491 1.387 . S
H2489 C2485 0.950 . S
H2490 C2487 0.950 . S
C2491 C2482 1.390 . S
C2491 H2484 0.950 . S
C2491 C2488 1.387 . S
C2492 C2493 1.387 . S
C2492 H2496 0.950 . S
C2492 C2501 1.390 . S
C2493 C2492 1.387 . S
C2493 C2495 1.387 . S
H2494 C2501 0.950 . S
C2495 C2493 1.387 . S
C2495 C2497 1.390 . S
C2495 H2499 0.950 . S
H2496 C2492 0.950 . S
C2497 C2495 1.390 . S
C2497 C2498 1.387 . S
C2497 H2500 0.950 . S
C2498 C2497 1.387 . S
C2498 C2501 1.387 . S
H2499 C2495 0.950 . S
H2500 C2497 0.950 . S
C2501 C2492 1.390 . S
C2501 H2494 0.950 . S
C2501 C2498 1.387 . S
C2502 C2503 1.387 . S
C2502 H2506 0.950 . S
C2502 C2511 1.390 . S
C2503 C2502 1.387 . S
C2503 C2505 1.387 . S
H2504 C2511 0.950 . S
C2505 C2503 1.387 . S
C2505 C2507 1.390 . S
C2505 H2509 0.950 . S
H2506 C2502 0.950 . S
C2507 C2505 1.390 . S
C2507 C2508 1.387 . S
C2507 H2510 0.950 . S
C2508 C2507 1.387 . S
C2508 C2511 1.387 . S
H2509 C2505 0.950 . S
H2510 C2507 0.950 . S
C2511 C2502 1.390 . S
C2511 H2504 0.950 . S
C2511 C2508 1.387 . S
C2512 C2513 1.387 . S
C2512 H2516 0.950 . S
C2512 C2521 1.390 . S
C2513 C2512 1.387 . S
C2513 C2515 1.387 . S
H2514 C2521 0.950 . S
C2515 C2513 1.387 . S
C2515 C2517 1.390 . S
C2515 H2519 0.950 . S
H2516 C2512 0.950 . S
C2517 C2515 1.390 . S
C2517 C2518 1.387 . S
C2517 H2520 0.950 . S
C2518 C2517 1.387 . S
C2518 C2521 1.387 . S
H2519 C2515 0.950 . S
H2520 C2517 0.950 . S
C2521 C2512 1.390 . S
C2521 H2514 0.950 . S
C2521 C2518 1.387 . S
C2522 C2523 1.387 . S
C2522 H2526 0.950 . S
C2522 C2531 1.390 . S
C2523 C2522 1.387 . S
C2523 C2525 1.387 . S
H2524 C2531 0.950 . S
C2525 C2523 1.387 . S
C2525 C2527 1.390 . S
C2525 H2529 0.950 . S
H2526 C2522 0.950 . S
C2527 C2525 1.390 . S
C2527 C2528 1.387 . S
C2527 H2530 0.950 . S
C2528 C2527 1.387 . S
C2528 C2531 1.387 . S
H2529 C2525 0.950 . S
H2530 C2527 0.950 . S
C2531 C2522 1.390 . S
C2531 H2524 0.950 . S
C2531 C2528 1.387 . S
C2532 C2533 1.387 . S
C2532 H2536 0.950 . S
C2532 C2541 1.390 . S
C2533 C2532 1.387 . S
C2533 C2535 1.387 . S
H2534 C2541 0.950 . S
C2535 C2533 1.387 . S
C2535 C2537 1.390 . S
C2535 H2539 0.950 . S
H2536 C2532 0.950 . S
C2537 C2535 1.390 . S
C2537 C2538 1.387 . S
C2537 H2540 0.950 . S
C2538 C2537 1.387 . S
C2538 C2541 1.387 . S
H2539 C2535 0.950 . S
H2540 C2537 0.950 . S
C2541 C2532 1.390 . S
C2541 H2534 0.950 . S
C2541 C2538 1.387 . S
C2542 C2543 1.387 . S
C2542 H2546 0.950 . S
C2542 C2551 1.390 . S
C2543 C2542 1.387 . S
C2543 C2545 1.387 . S
H2544 C2551 0.950 . S
C2545 C2543 1.387 . S
C2545 C2547 1.390 . S
C2545 H2549 0.950 . S
H2546 C2542 0.950 . S
C2547 C2545 1.390 . S
C2547 C2548 1.387 . S
C2547 H2550 0.950 . S
C2548 C2547 1.387 . S
C2548 C2551 1.387 . S
H2549 C2545 0.950 . S
H2550 C2547 0.950 . S
C2551 C2542 1.390 . S
C2551 H2544 0.950 . S
C2551 C2548 1.387 . S
C2552 C2553 1.387 . S
C2552 H2556 0.950 . S
C2552 C2561 1.390 . S
C2553 C2552 1.387 . S
C2553 C2555 1.387 . S
H2554 C2561 0.950 . S
C2555 C2553 1.387 . S
C2555 C2557 1.390 . S
C2555 H2559 0.950 . S
H2556 C2552 0.950 . S
C2557 C2555 1.390 . S
C2557 C2558 1.387 . S
C2557 H2560 0.950 . S
C2558 C2557 1.387 . S
C2558 C2561 1.387 . S
H2559 C2555 0.950 . S
H2560 C2557 0.950 . S
C2561 C2552 1.390 . S
C2561 H2554 0.950 . S
C2561 C2558 1.387 . S
C2562 C2563 1.387 . S
C2562 H2566 0.950 . S
C2562 C2571 1.390 . S
C2563 C2562 1.387 . S
C2563 C2565 1.387 . S
H2564 C2571 0.950 . S
C2565 C2563 1.387 . S
C2565 C2567 1.390 . S
C2565 H2569 0.950 . S
H2566 C2562 0.950 . S
C2567 C2565 1.390 . S
C2567 C2568 1.387 . S
C2567 H2570 0.950 . S
C2568 C2567 1.387 . S
C2568 C2571 1.387 . S
H2569 C2565 0.950 . S
H2570 C2567 0.950 . S
C2571 C2562 1.390 . S
C2571 H2564 0.950 . S
C2571 C2568 1.387 . S
C2572 C2573 1.387 . S
C2572 H2576 0.950 . S
C2572 C2581 1.390 . S
C2573 C2572 1.387 . S
C2573 C2575 1.387 . S
H2574 C2581 0.950 . S
C2575 C2573 1.387 . S
C2575 C2577 1.390 . S
C2575 H2579 0.950 . S
H2576 C2572 0.950 . S
C2577 C2575 1.390 . S
C2577 C2578 1.387 . S
C2577 H2580 0.950 . S
C2578 C2577 1.387 . S
C2578 C2581 1.387 . S
H2579 C2575 0.950 . S
H2580 C2577 0.950 . S
C2581 C2572 1.390 . S
C2581 H2574 0.950 . S
C2581 C2578 1.387 . S
C2582 C2583 1.387 . S
C2582 H2586 0.950 . S
C2582 C2591 1.390 . S
C2583 C2582 1.387 . S
C2583 C2585 1.387 . S
H2584 C2591 0.950 . S
C2585 C2583 1.387 . S
C2585 C2587 1.390 . S
C2585 H2589 0.950 . S
H2586 C2582 0.950 . S
C2587 C2585 1.390 . S
C2587 C2588 1.387 . S
C2587 H2590 0.950 . S
C2588 C2587 1.387 . S
C2588 C2591 1.387 . S
H2589 C2585 0.950 . S
H2590 C2587 0.950 . S
C2591 C2582 1.390 . S
C2591 H2584 0.950 . S
C2591 C2588 1.387 . S
C2592 C2593 1.387 . S
C2592 H2596 0.950 . S
C2592 C2601 1.390 . S
C2593 C2592 1.387 . S
C2593 C2595 1.387 . S
H2594 C2601 0.950 . S
C2595 C2593 1.387 . S
C2595 C2597 1.390 . S
C2595 H2599 0.950 . S
H2596 C2592 0.950 . S
C2597 C2595 1.390 . S
C2597 C2598 1.387 . S
C2597 H2600 0.950 . S
C2598 C2597 1.387 . S
C2598 C2601 1.387 . S
H2599 C2595 0.950 . S
H2600 C2597 0.950 . S
C2601 C2592 1.390 . S
C2601 H2594 0.950 . S
C2601 C2598 1.387 . S
C2602 C2603 1.387 . S
C2602 H2606 0.950 . S
C2602 C2611 1.390 . S
C2603 C2602 1.387 . S
C2603 C2605 1.387 . S
H2604 C2611 0.950 . S
C2605 C2603 1.387 . S
C2605 C2607 1.390 . S
C2605 H2609 0.950 . S
H2606 C2602 0.950 . S
C2607 C2605 1.390 . S
C2607 C2608 1.387 . S
C2607 H2610 0.950 . S
C2608 C2607 1.387 . S
C2608 C2611 1.387 . S
H2609 C2605 0.950 . S
H2610 C2607 0.950 . S
C2611 C2602 1.390 . S
C2611 H2604 0.950 . S
C2611 C2608 1.387 . S
C2612 C2613 1.387 . S
C2612 H2616 0.950 . S
C2612 C2621 1.390 . S
C2613 C2612 1.387 . S
C2613 C2615 1.387 . S
H2614 C2621 0.950 . S
C2615 C2613 1.387 . S
C2615 C2617 1.390 . S
C2615 H2619 0.950 . S
H2616 C2612 0.950 . S
C2617 C2615 1.390 . S
C2617 C2618 1.387 . S
C2617 H2620 0.950 . S
C2618 C2617 1.387 . S
C2618 C2621 1.387 . S
H2619 C2615 0.950 . S
H2620 C2617 0.950 . S
C2621 C2612 1.390 . S
C2621 H2614 0.950 . S
C2621 C2618 1.387 . S
C2622 C2623 1.387 . S
C2622 H2626 0.950 . S
C2622 C2631 1.390 . S
C2623 C2622 1.387 . S
C2623 C2625 1.387 . S
H2624 C2631 0.950 . S
C2625 C2623 1.387 . S
C2625 C2627 1.390 . S
C2625 H2629 0.950 . S
H2626 C2622 0.950 . S
C2627 C2625 1.390 . S
C2627 C2628 1.387 . S
C2627 H2630 0.950 . S
C2628 C2627 1.387 . S
C2628 C2631 1.387 . S
H2629 C2625 0.950 . S
H2630 C2627 0.950 . S
C2631 C2622 1.390 . S
C2631 H2624 0.950 . S
C2631 C2628 1.387 . S
C2632 C2633 1.387 . S
C2632 H2636 0.950 . S
C2632 C2641 1.380 1_455 S
C2633 C2632 1.387 . S
C2633 C2635 1.387 . S
H2634 C2641 0.973 . S
C2635 C2633 1.387 . S
C2635 C2637 1.390 . S
C2635 H2639 0.950 . S
H2636 C2632 0.950 . S
C2637 C2635 1.390 . S
C2637 C2638 1.387 . S
C2637 H2640 0.950 . S
C2638 C2637 1.387 . S
C2638 C2641 1.375 1_455 S
H2639 C2635 0.950 . S
H2640 C2637 0.950 . S
C2641 C2632 1.380 1_655 S
C2641 H2634 0.973 . S
C2641 C2638 1.375 1_655 S
C2642 C2643 1.387 . S
C2642 H2646 0.950 . S
C2642 C2651 1.381 1_545 S
C2643 C2642 1.387 . S
C2643 C2645 1.387 . S
H2644 C2651 0.970 . S
C2645 C2643 1.387 . S
C2645 C2647 1.390 . S
C2645 H2649 0.950 . S
H2646 C2642 0.950 . S
C2647 C2645 1.390 . S
C2647 C2648 1.387 . S
C2647 H2650 0.950 . S
C2648 C2647 1.387 . S
C2648 C2651 1.377 1_545 S
H2649 C2645 0.950 . S
H2650 C2647 0.950 . S
C2651 C2642 1.381 1_565 S
C2651 H2644 0.970 . S
C2651 C2648 1.377 1_565 S
C2652 C2653 1.387 . S
C2652 H2656 0.950 . S
C2652 C2661 1.390 . S
C2653 C2652 1.387 . S
C2653 C2655 1.387 . S
H2654 C2661 0.950 . S
C2655 C2653 1.387 . S
C2655 C2657 1.390 . S
C2655 H2659 0.950 . S
H2656 C2652 0.950 . S
C2657 C2655 1.390 . S
C2657 C2658 1.387 . S
C2657 H2660 0.950 . S
C2658 C2657 1.387 . S
C2658 C2661 1.387 . S
H2659 C2655 0.950 . S
H2660 C2657 0.950 . S
C2661 C2652 1.390 . S
C2661 H2654 0.950 . S
C2661 C2658 1.387 . S
C2662 C2663 1.387 . S
C2662 H2666 0.950 . S
C2662 C2671 1.390 . S
C2663 C2662 1.387 . S
C2663 C2665 1.387 . S
H2664 C2671 0.950 . S
C2665 C2663 1.387 . S
C2665 C2667 1.390 . S
C2665 H2669 0.950 . S
H2666 C2662 0.950 . S
C2667 C2665 1.390 . S
C2667 C2668 1.387 . S
C2667 H2670 0.950 . S
C2668 C2667 1.387 . S
C2668 C2671 1.387 . S
H2669 C2665 0.950 . S
H2670 C2667 0.950 . S
C2671 C2662 1.390 . S
C2671 H2664 0.950 . S
C2671 C2668 1.387 . S
C2672 C2673 1.387 . S
C2672 H2676 0.950 . S
C2672 C2681 1.390 . S
C2673 C2672 1.387 . S
C2673 C2675 1.387 . S
H2674 C2681 0.950 . S
C2675 C2673 1.387 . S
C2675 C2677 1.390 . S
C2675 H2679 0.950 . S
H2676 C2672 0.950 . S
C2677 C2675 1.390 . S
C2677 C2678 1.387 . S
C2677 H2680 0.950 . S
C2678 C2677 1.387 . S
C2678 C2681 1.387 . S
H2679 C2675 0.950 . S
H2680 C2677 0.950 . S
C2681 C2672 1.390 . S
C2681 H2674 0.950 . S
C2681 C2678 1.387 . S
C2682 C2683 1.387 . S
C2682 H2686 0.950 . S
C2682 C2691 1.390 . S
C2683 C2682 1.387 . S
C2683 C2685 1.387 . S
H2684 C2691 0.950 . S
C2685 C2683 1.387 . S
C2685 C2687 1.390 . S
C2685 H2689 0.950 . S
H2686 C2682 0.950 . S
C2687 C2685 1.390 . S
C2687 C2688 1.387 . S
C2687 H2690 0.950 . S
C2688 C2687 1.387 . S
C2688 C2691 1.387 . S
H2689 C2685 0.950 . S
H2690 C2687 0.950 . S
C2691 C2682 1.390 . S
C2691 H2684 0.950 . S
C2691 C2688 1.387 . S
C2692 C2693 1.387 . S
C2692 H2696 0.950 . S
C2692 C2701 1.390 . S
C2693 C2692 1.387 . S
C2693 C2695 1.387 . S
H2694 C2701 0.950 . S
C2695 C2693 1.387 . S
C2695 C2697 1.390 . S
C2695 H2699 0.950 . S
H2696 C2692 0.950 . S
C2697 C2695 1.390 . S
C2697 C2698 1.387 . S
C2697 H2700 0.950 . S
C2698 C2697 1.387 . S
C2698 C2701 1.387 . S
H2699 C2695 0.950 . S
H2700 C2697 0.950 . S
C2701 C2692 1.390 . S
C2701 H2694 0.950 . S
C2701 C2698 1.387 . S
C2702 C2703 1.387 . S
C2702 H2706 0.950 . S
C2702 C2711 1.390 . S
C2703 C2702 1.387 . S
C2703 C2705 1.387 . S
H2704 C2711 0.950 . S
C2705 C2703 1.387 . S
C2705 C2707 1.390 . S
C2705 H2709 0.950 . S
H2706 C2702 0.950 . S
C2707 C2705 1.390 . S
C2707 C2708 1.387 . S
C2707 H2710 0.950 . S
C2708 C2707 1.387 . S
C2708 C2711 1.387 . S
H2709 C2705 0.950 . S
H2710 C2707 0.950 . S
C2711 C2702 1.390 . S
C2711 H2704 0.950 . S
C2711 C2708 1.387 . S
C2712 C2713 1.387 . S
C2712 H2716 0.950 . S
C2712 C2721 1.390 . S
C2713 C2712 1.387 . S
C2713 C2715 1.387 . S
H2714 C2721 0.950 . S
C2715 C2713 1.387 . S
C2715 C2717 1.390 . S
C2715 H2719 0.950 . S
H2716 C2712 0.950 . S
C2717 C2715 1.390 . S
C2717 C2718 1.387 . S
C2717 H2720 0.950 . S
C2718 C2717 1.387 . S
C2718 C2721 1.387 . S
H2719 C2715 0.950 . S
H2720 C2717 0.950 . S
C2721 C2712 1.390 . S
C2721 H2714 0.950 . S
C2721 C2718 1.387 . S
C2722 C2723 1.387 . S
C2722 H2726 0.950 . S
C2722 C2731 1.390 . S
C2723 C2722 1.387 . S
C2723 C2725 1.387 . S
H2724 C2731 0.950 . S
C2725 C2723 1.387 . S
C2725 C2727 1.380 1_455 S
C2725 H2729 0.950 . S
H2726 C2722 0.950 . S
C2727 C2725 1.380 1_655 S
C2727 C2728 1.375 1_655 S
C2727 H2730 0.973 . S
C2728 C2727 1.375 1_455 S
C2728 C2731 1.387 . S
H2729 C2725 0.950 . S
H2730 C2727 0.973 . S
C2731 C2722 1.390 . S
C2731 H2724 0.950 . S
C2731 C2728 1.387 . S
C2732 C2733 1.387 . S
C2732 H2736 0.950 1_545 S
C2732 C2741 1.390 . S
C2733 C2732 1.387 . S
C2733 C2735 1.387 . S
H2734 C2741 0.950 . S
C2735 C2733 1.387 . S
C2735 C2737 1.390 . S
C2735 H2739 0.950 . S
H2736 C2732 0.950 1_565 S
C2737 C2735 1.390 . S
C2737 C2738 1.387 . S
C2737 H2740 0.950 . S
C2738 C2737 1.387 . S
C2738 C2741 1.387 . S
H2739 C2735 0.950 . S
H2740 C2737 0.950 . S
C2741 C2732 1.390 . S
C2741 H2734 0.950 . S
C2741 C2738 1.387 . S
C2742 C2743 1.387 . S
C2742 H2746 0.950 . S
C2742 C2751 1.390 . S
C2743 C2742 1.387 . S
C2743 C2745 1.387 . S
H2744 C2751 0.950 . S
C2745 C2743 1.387 . S
C2745 C2747 1.390 . S
C2745 H2749 0.950 . S
H2746 C2742 0.950 . S
C2747 C2745 1.390 . S
C2747 C2748 1.387 . S
C2747 H2750 0.950 . S
C2748 C2747 1.387 . S
C2748 C2751 1.387 . S
H2749 C2745 0.950 . S
H2750 C2747 0.950 . S
C2751 C2742 1.390 . S
C2751 H2744 0.950 . S
C2751 C2748 1.387 . S
C2752 C2753 1.387 . S
C2752 H2756 0.950 . S
C2752 C2761 1.390 . S
C2753 C2752 1.387 . S
C2753 C2755 1.387 . S
H2754 C2761 0.950 . S
C2755 C2753 1.387 . S
C2755 C2757 1.390 . S
C2755 H2759 0.950 . S
H2756 C2752 0.950 . S
C2757 C2755 1.390 . S
C2757 C2758 1.387 . S
C2757 H2760 0.950 . S
C2758 C2757 1.387 . S
C2758 C2761 1.387 . S
H2759 C2755 0.950 . S
H2760 C2757 0.950 . S
C2761 C2752 1.390 . S
C2761 H2754 0.950 . S
C2761 C2758 1.387 . S
C2762 C2763 1.387 . S
C2762 H2766 0.950 . S
C2762 C2771 1.390 . S
C2763 C2762 1.387 . S
C2763 C2765 1.387 . S
H2764 C2771 0.950 . S
C2765 C2763 1.387 . S
C2765 C2767 1.390 . S
C2765 H2769 0.950 . S
H2766 C2762 0.950 . S
C2767 C2765 1.390 . S
C2767 C2768 1.387 . S
C2767 H2770 0.950 . S
C2768 C2767 1.387 . S
C2768 C2771 1.387 . S
H2769 C2765 0.950 . S
H2770 C2767 0.950 . S
C2771 C2762 1.390 . S
C2771 H2764 0.950 . S
C2771 C2768 1.387 . S
C2772 C2773 1.387 . S
C2772 H2776 0.950 . S
C2772 C2781 1.390 . S
C2773 C2772 1.387 . S
C2773 C2775 1.387 . S
H2774 C2781 0.950 . S
C2775 C2773 1.387 . S
C2775 C2777 1.390 . S
C2775 H2779 0.950 . S
H2776 C2772 0.950 . S
C2777 C2775 1.390 . S
C2777 C2778 1.387 . S
C2777 H2780 0.950 . S
C2778 C2777 1.387 . S
C2778 C2781 1.387 . S
H2779 C2775 0.950 . S
H2780 C2777 0.950 . S
C2781 C2772 1.390 . S
C2781 H2774 0.950 . S
C2781 C2778 1.387 . S
C2782 C2783 1.387 . S
C2782 H2786 0.950 . S
C2782 C2791 1.390 . S
C2783 C2782 1.387 . S
C2783 C2785 1.387 . S
H2784 C2791 0.950 . S
C2785 C2783 1.387 . S
C2785 C2787 1.390 . S
C2785 H2789 0.950 . S
H2786 C2782 0.950 . S
C2787 C2785 1.390 . S
C2787 C2788 1.387 . S
C2787 H2790 0.950 . S
C2788 C2787 1.387 . S
C2788 C2791 1.387 . S
H2789 C2785 0.950 . S
H2790 C2787 0.950 . S
C2791 C2782 1.390 . S
C2791 H2784 0.950 . S
C2791 C2788 1.387 . S
C2792 C2793 1.387 . S
C2792 H2796 0.950 . S
C2792 C2801 1.390 . S
C2793 C2792 1.387 . S
C2793 C2795 1.387 . S
H2794 C2801 0.950 . S
C2795 C2793 1.387 . S
C2795 C2797 1.390 . S
C2795 H2799 0.950 . S
H2796 C2792 0.950 . S
C2797 C2795 1.390 . S
C2797 C2798 1.387 . S
C2797 H2800 0.950 . S
C2798 C2797 1.387 . S
C2798 C2801 1.387 . S
H2799 C2795 0.950 . S
H2800 C2797 0.950 . S
C2801 C2792 1.390 . S
C2801 H2794 0.950 . S
C2801 C2798 1.387 . S
C2802 C2803 1.387 . S
C2802 H2806 0.950 . S
C2802 C2811 1.381 1_554 S
C2803 C2802 1.387 . S
C2803 C2805 1.387 . S
H2804 C2811 0.970 . S
C2805 C2803 1.387 . S
C2805 C2807 1.390 . S
C2805 H2809 0.950 . S
H2806 C2802 0.950 . S
C2807 C2805 1.390 . S
C2807 C2808 1.387 . S
C2807 H2810 0.950 . S
C2808 C2807 1.387 . S
C2808 C2811 1.377 1_554 S
H2809 C2805 0.950 . S
H2810 C2807 0.950 . S
C2811 C2802 1.381 1_556 S
C2811 H2804 0.970 . S
C2811 C2808 1.377 1_556 S
C2812 C2813 1.387 1_556 S
C2812 H2816 0.951 . S
C2812 C2821 1.390 1_556 S
C2813 C2812 1.387 1_554 S
C2813 C2815 1.387 . S
H2814 C2821 0.950 . S
C2815 C2813 1.387 . S
C2815 C2817 1.390 . S
C2815 H2819 0.950 . S
H2816 C2812 0.951 . S
C2817 C2815 1.390 . S
C2817 C2818 1.387 . S
C2817 H2820 0.950 . S
C2818 C2817 1.387 . S
C2818 C2821 1.387 . S
H2819 C2815 0.950 . S
H2820 C2817 0.950 . S
C2821 C2812 1.390 1_554 S
C2821 H2814 0.950 . S
C2821 C2818 1.387 . S
C2822 C2823 1.387 . S
C2822 H2826 0.950 . S
C2822 C2831 1.390 . S
C2823 C2822 1.387 . S
C2823 C2825 1.387 . S
H2824 C2831 0.950 . S
C2825 C2823 1.387 . S
C2825 C2827 1.390 . S
C2825 H2829 0.950 . S
H2826 C2822 0.950 . S
C2827 C2825 1.390 . S
C2827 C2828 1.387 . S
C2827 H2830 0.950 . S
C2828 C2827 1.387 . S
C2828 C2831 1.387 . S
H2829 C2825 0.950 . S
H2830 C2827 0.950 . S
C2831 C2822 1.390 . S
C2831 H2824 0.950 . S
C2831 C2828 1.387 . S
C2832 C2833 1.387 . S
C2832 H2836 0.950 . S
C2832 C2841 1.390 . S
C2833 C2832 1.387 . S
C2833 C2835 1.387 . S
H2834 C2841 0.950 . S
C2835 C2833 1.387 . S
C2835 C2837 1.390 . S
C2835 H2839 0.950 . S
H2836 C2832 0.950 . S
C2837 C2835 1.390 . S
C2837 C2838 1.387 . S
C2837 H2840 0.950 . S
C2838 C2837 1.387 . S
C2838 C2841 1.387 . S
H2839 C2835 0.950 . S
H2840 C2837 0.950 . S
C2841 C2832 1.390 . S
C2841 H2834 0.950 . S
C2841 C2838 1.387 . S
C2842 C2843 1.387 . S
C2842 H2846 0.950 . S
C2842 C2851 1.390 . S
C2843 C2842 1.387 . S
C2843 C2845 1.387 . S
H2844 C2851 0.950 . S
C2845 C2843 1.387 . S
C2845 C2847 1.390 . S
C2845 H2849 0.950 . S
H2846 C2842 0.950 . S
C2847 C2845 1.390 . S
C2847 C2848 1.387 . S
C2847 H2850 0.950 . S
C2848 C2847 1.387 . S
C2848 C2851 1.387 . S
H2849 C2845 0.950 . S
H2850 C2847 0.950 . S
C2851 C2842 1.390 . S
C2851 H2844 0.950 . S
C2851 C2848 1.387 . S
C2852 C2853 1.387 . S
C2852 H2856 0.950 . S
C2852 C2861 1.390 . S
C2853 C2852 1.387 . S
C2853 C2855 1.387 . S
H2854 C2861 0.950 . S
C2855 C2853 1.387 . S
C2855 C2857 1.390 . S
C2855 H2859 0.950 . S
H2856 C2852 0.950 . S
C2857 C2855 1.390 . S
C2857 C2858 1.387 . S
C2857 H2860 0.950 . S
C2858 C2857 1.387 . S
C2858 C2861 1.387 . S
H2859 C2855 0.950 . S
H2860 C2857 0.950 . S
C2861 C2852 1.390 . S
C2861 H2854 0.950 . S
C2861 C2858 1.387 . S
C2862 C2863 1.387 . S
C2862 H2866 0.950 . S
C2862 C2871 1.390 . S
C2863 C2862 1.387 . S
C2863 C2865 1.387 . S
H2864 C2871 0.950 . S
C2865 C2863 1.387 . S
C2865 C2867 1.390 . S
C2865 H2869 0.950 . S
H2866 C2862 0.950 . S
C2867 C2865 1.390 . S
C2867 C2868 1.387 . S
C2867 H2870 0.950 . S
C2868 C2867 1.387 . S
C2868 C2871 1.387 . S
H2869 C2865 0.950 . S
H2870 C2867 0.950 . S
C2871 C2862 1.390 . S
C2871 H2864 0.950 . S
C2871 C2868 1.387 . S
C2872 C2873 1.387 . S
C2872 H2876 0.950 . S
C2872 C2881 1.390 . S
C2873 C2872 1.387 . S
C2873 C2875 1.387 . S
H2874 C2881 0.950 . S
C2875 C2873 1.387 . S
C2875 C2877 1.390 . S
C2875 H2879 0.950 . S
H2876 C2872 0.950 . S
C2877 C2875 1.390 . S
C2877 C2878 1.387 . S
C2877 H2880 0.950 . S
C2878 C2877 1.387 . S
C2878 C2881 1.387 . S
H2879 C2875 0.950 . S
H2880 C2877 0.950 . S
C2881 C2872 1.390 . S
C2881 H2874 0.950 . S
C2881 C2878 1.387 . S
C2882 C2883 1.387 . S
C2882 H2886 0.950 . S
C2882 C2891 1.390 . S
C2883 C2882 1.387 . S
C2883 C2885 1.377 1_565 S
H2884 C2891 0.950 . S
C2885 C2883 1.377 1_545 S
C2885 C2887 1.381 1_545 S
C2885 H2889 0.970 . S
H2886 C2882 0.950 . S
C2887 C2885 1.381 1_565 S
C2887 C2888 1.387 . S
C2887 H2890 0.950 . S
C2888 C2887 1.387 . S
C2888 C2891 1.387 . S
H2889 C2885 0.970 . S
H2890 C2887 0.950 . S
C2891 C2882 1.390 . S
C2891 H2884 0.950 . S
C2891 C2888 1.387 . S
C2892 C2893 1.387 . S
C2892 H2896 0.950 . S
C2892 C2901 1.390 . S
C2893 C2892 1.387 . S
C2893 C2895 1.387 . S
H2894 C2901 0.950 . S
C2895 C2893 1.387 . S
C2895 C2897 1.390 . S
C2895 H2899 0.950 . S
H2896 C2892 0.950 . S
C2897 C2895 1.390 . S
C2897 C2898 1.387 . S
C2897 H2900 0.950 . S
C2898 C2897 1.387 . S
C2898 C2901 1.387 . S
H2899 C2895 0.950 . S
H2900 C2897 0.950 . S
C2901 C2892 1.390 . S
C2901 H2894 0.950 . S
C2901 C2898 1.387 . S
C2902 C2903 1.387 . S
C2902 H2906 0.950 . S
C2902 C2911 1.390 . S
C2903 C2902 1.387 . S
C2903 C2905 1.387 . S
H2904 C2911 0.950 . S
C2905 C2903 1.387 . S
C2905 C2907 1.390 . S
C2905 H2909 0.950 . S
H2906 C2902 0.950 . S
C2907 C2905 1.390 . S
C2907 C2908 1.387 . S
C2907 H2910 0.950 . S
C2908 C2907 1.387 . S
C2908 C2911 1.387 . S
H2909 C2905 0.950 . S
H2910 C2907 0.950 . S
C2911 C2902 1.390 . S
C2911 H2904 0.950 . S
C2911 C2908 1.387 . S
C2912 C2913 1.387 . S
C2912 H2916 0.950 . S
C2912 C2921 1.390 . S
C2913 C2912 1.387 . S
C2913 C2915 1.387 . S
H2914 C2921 0.950 . S
C2915 C2913 1.387 . S
C2915 C2917 1.390 . S
C2915 H2919 0.950 . S
H2916 C2912 0.950 . S
C2917 C2915 1.390 . S
C2917 C2918 1.387 . S
C2917 H2920 0.950 . S
C2918 C2917 1.387 . S
C2918 C2921 1.387 . S
H2919 C2915 0.950 . S
H2920 C2917 0.950 . S
C2921 C2912 1.390 . S
C2921 H2914 0.950 . S
C2921 C2918 1.387 . S
C2922 C2923 1.387 . S
C2922 H2926 0.950 . S
C2922 C2931 1.390 . S
C2923 C2922 1.387 . S
C2923 C2925 1.387 . S
H2924 C2931 0.950 . S
C2925 C2923 1.387 . S
C2925 C2927 1.390 . S
C2925 H2929 0.950 . S
H2926 C2922 0.950 . S
C2927 C2925 1.390 . S
C2927 C2928 1.387 . S
C2927 H2930 0.950 . S
C2928 C2927 1.387 . S
C2928 C2931 1.387 . S
H2929 C2925 0.950 . S
H2930 C2927 0.950 . S
C2931 C2922 1.390 . S
C2931 H2924 0.950 . S
C2931 C2928 1.387 . S
C2932 C2933 1.387 . S
C2932 H2936 0.950 . S
C2932 C2941 1.390 . S
C2933 C2932 1.387 . S
C2933 C2935 1.387 . S
H2934 C2941 0.950 . S
C2935 C2933 1.387 . S
C2935 C2937 1.390 . S
C2935 H2939 0.950 . S
H2936 C2932 0.950 . S
C2937 C2935 1.390 . S
C2937 C2938 1.387 . S
C2937 H2940 0.950 . S
C2938 C2937 1.387 . S
C2938 C2941 1.387 . S
H2939 C2935 0.950 . S
H2940 C2937 0.950 . S
C2941 C2932 1.390 . S
C2941 H2934 0.950 . S
C2941 C2938 1.387 . S
C2942 C2943 1.387 . S
C2942 H2946 0.950 . S
C2942 C2951 1.390 . S
C2943 C2942 1.387 . S
C2943 C2945 1.387 . S
H2944 C2951 0.950 . S
C2945 C2943 1.387 . S
C2945 C2947 1.390 . S
C2945 H2949 0.950 . S
H2946 C2942 0.950 . S
C2947 C2945 1.390 . S
C2947 C2948 1.387 . S
C2947 H2950 0.950 . S
C2948 C2947 1.387 . S
C2948 C2951 1.387 . S
H2949 C2945 0.950 . S
H2950 C2947 0.950 . S
C2951 C2942 1.390 . S
C2951 H2944 0.950 . S
C2951 C2948 1.387 . S
C2952 C2953 1.387 . S
C2952 H2956 0.950 . S
C2952 C2961 1.390 . S
C2953 C2952 1.387 . S
C2953 C2955 1.387 . S
H2954 C2961 0.950 . S
C2955 C2953 1.387 . S
C2955 C2957 1.390 . S
C2955 H2959 0.950 . S
H2956 C2952 0.950 . S
C2957 C2955 1.390 . S
C2957 C2958 1.387 . S
C2957 H2960 0.950 . S
C2958 C2957 1.387 . S
C2958 C2961 1.387 . S
H2959 C2955 0.950 . S
H2960 C2957 0.950 . S
C2961 C2952 1.390 . S
C2961 H2954 0.950 . S
C2961 C2958 1.387 . S
C2962 C2963 1.387 . S
C2962 H2966 0.950 . S
C2962 C2971 1.390 . S
C2963 C2962 1.387 . S
C2963 C2965 1.387 . S
H2964 C2971 0.950 . S
C2965 C2963 1.387 . S
C2965 C2967 1.390 . S
C2965 H2969 0.950 . S
H2966 C2962 0.950 . S
C2967 C2965 1.390 . S
C2967 C2968 1.387 . S
C2967 H2970 0.950 . S
C2968 C2967 1.387 . S
C2968 C2971 1.387 . S
H2969 C2965 0.950 . S
H2970 C2967 0.950 . S
C2971 C2962 1.390 . S
C2971 H2964 0.950 . S
C2971 C2968 1.387 . S
C2972 C2973 1.387 . S
C2972 H2976 0.950 . S
C2972 C2981 1.390 . S
C2973 C2972 1.387 . S
C2973 C2975 1.387 . S
H2974 C2981 0.950 . S
C2975 C2973 1.387 . S
C2975 C2977 1.390 . S
C2975 H2979 0.950 . S
H2976 C2972 0.950 . S
C2977 C2975 1.390 . S
C2977 C2978 1.387 . S
C2977 H2980 0.950 . S
C2978 C2977 1.387 . S
C2978 C2981 1.387 . S
H2979 C2975 0.950 . S
H2980 C2977 0.950 . S
C2981 C2972 1.390 . S
C2981 H2974 0.950 . S
C2981 C2978 1.387 . S
C2982 C2983 1.387 . S
C2982 H2986 0.950 . S
C2982 C2991 1.390 . S
C2983 C2982 1.387 . S
C2983 C2985 1.387 . S
H2984 C2991 0.950 . S
C2985 C2983 1.387 . S
C2985 C2987 1.390 . S
C2985 H2989 0.950 . S
H2986 C2982 0.950 . S
C2987 C2985 1.390 . S
C2987 C2988 1.387 . S
C2987 H2990 0.950 . S
C2988 C2987 1.387 . S
C2988 C2991 1.387 . S
H2989 C2985 0.950 . S
H2990 C2987 0.950 . S
C2991 C2982 1.390 . S
C2991 H2984 0.950 . S
C2991 C2988 1.387 . S
C2992 C2993 1.387 . S
C2992 H2996 0.950 . S
C2992 C3001 1.390 . S
C2993 C2992 1.387 . S
C2993 C2995 1.387 . S
H2994 C3001 0.950 . S
C2995 C2993 1.387 . S
C2995 C2997 1.390 . S
C2995 H2999 0.950 . S
H2996 C2992 0.950 . S
C2997 C2995 1.390 . S
C2997 C2998 1.387 . S
C2997 H3000 0.950 . S
C2998 C2997 1.387 . S
C2998 C3001 1.387 . S
H2999 C2995 0.950 . S
H3000 C2997 0.950 . S
C3001 C2992 1.390 . S
C3001 H2994 0.950 . S
C3001 C2998 1.387 . S
C3002 C3003 1.387 . S
C3002 H3006 0.950 . S
C3002 C3011 1.390 . S
C3003 C3002 1.387 . S
C3003 C3005 1.387 . S
H3004 C3011 0.950 . S
C3005 C3003 1.387 . S
C3005 C3007 1.390 . S
C3005 H3009 0.950 . S
H3006 C3002 0.950 . S
C3007 C3005 1.390 . S
C3007 C3008 1.387 . S
C3007 H3010 0.950 . S
C3008 C3007 1.387 . S
C3008 C3011 1.387 . S
H3009 C3005 0.950 . S
H3010 C3007 0.950 . S
C3011 C3002 1.390 . S
C3011 H3004 0.950 . S
C3011 C3008 1.387 . S
C3012 C3013 1.387 . S
C3012 H3016 0.950 . S
C3012 C3021 1.390 . S
C3013 C3012 1.387 . S
C3013 C3015 1.387 . S
H3014 C3021 0.950 . S
C3015 C3013 1.387 . S
C3015 C3017 1.390 . S
C3015 H3019 0.950 . S
H3016 C3012 0.950 . S
C3017 C3015 1.390 . S
C3017 C3018 1.387 . S
C3017 H3020 0.950 . S
C3018 C3017 1.387 . S
C3018 C3021 1.387 . S
H3019 C3015 0.950 . S
H3020 C3017 0.950 . S
C3021 C3012 1.390 . S
C3021 H3014 0.950 . S
C3021 C3018 1.387 . S
C3022 C3023 1.387 . S
C3022 H3026 0.950 . S
C3022 C3031 1.390 . S
C3023 C3022 1.387 . S
C3023 C3025 1.387 . S
H3024 C3031 0.950 . S
C3025 C3023 1.387 . S
C3025 C3027 1.390 . S
C3025 H3029 0.950 . S
H3026 C3022 0.950 . S
C3027 C3025 1.390 . S
C3027 C3028 1.387 . S
C3027 H3030 0.950 . S
C3028 C3027 1.387 . S
C3028 C3031 1.387 . S
H3029 C3025 0.950 . S
H3030 C3027 0.950 . S
C3031 C3022 1.390 . S
C3031 H3024 0.950 . S
C3031 C3028 1.387 . S
C3032 C3033 1.387 . S
C3032 H3036 0.950 . S
C3032 C3041 1.390 . S
C3033 C3032 1.387 . S
C3033 C3035 1.387 . S
H3034 C3041 0.950 . S
C3035 C3033 1.387 . S
C3035 C3037 1.390 . S
C3035 H3039 0.950 . S
H3036 C3032 0.950 . S
C3037 C3035 1.390 . S
C3037 C3038 1.387 . S
C3037 H3040 0.950 . S
C3038 C3037 1.387 . S
C3038 C3041 1.387 . S
H3039 C3035 0.950 . S
H3040 C3037 0.950 . S
C3041 C3032 1.390 . S
C3041 H3034 0.950 . S
C3041 C3038 1.387 . S
C3042 C3043 1.387 . S
C3042 H3046 0.950 . S
C3042 C3051 1.390 . S
C3043 C3042 1.387 . S
C3043 C3045 1.387 . S
H3044 C3051 0.950 . S
C3045 C3043 1.387 . S
C3045 C3047 1.390 . S
C3045 H3049 0.950 . S
H3046 C3042 0.950 . S
C3047 C3045 1.390 . S
C3047 C3048 1.387 . S
C3047 H3050 0.950 . S
C3048 C3047 1.387 . S
C3048 C3051 1.387 . S
H3049 C3045 0.950 . S
H3050 C3047 0.950 . S
C3051 C3042 1.390 . S
C3051 H3044 0.950 . S
C3051 C3048 1.387 . S
C3052 C3053 1.387 . S
C3052 H3056 0.950 . S
C3052 C3061 1.390 . S
C3053 C3052 1.387 . S
C3053 C3055 1.387 . S
H3054 C3061 0.950 . S
C3055 C3053 1.387 . S
C3055 C3057 1.390 . S
C3055 H3059 0.950 . S
H3056 C3052 0.950 . S
C3057 C3055 1.390 . S
C3057 C3058 1.387 . S
C3057 H3060 0.950 . S
C3058 C3057 1.387 . S
C3058 C3061 1.387 . S
H3059 C3055 0.950 . S
H3060 C3057 0.950 . S
C3061 C3052 1.390 . S
C3061 H3054 0.950 . S
C3061 C3058 1.387 . S
C3062 C3063 1.387 . S
C3062 H3066 0.950 . S
C3062 C3071 1.390 . S
C3063 C3062 1.387 . S
C3063 C3065 1.387 . S
H3064 C3071 0.950 . S
C3065 C3063 1.387 . S
C3065 C3067 1.380 1_556 S
C3065 H3069 0.950 . S
H3066 C3062 0.950 . S
C3067 C3065 1.380 1_554 S
C3067 C3068 1.375 1_554 S
C3067 H3070 0.973 . S
C3068 C3067 1.375 1_556 S
C3068 C3071 1.387 . S
H3069 C3065 0.950 . S
H3070 C3067 0.973 . S
C3071 C3062 1.390 . S
C3071 H3064 0.950 . S
C3071 C3068 1.387 . S
C1393 C5 2.924 . S
C1398 C643 2.924 . S
C1403 C469 2.921 . S
C1408 C34 2.922 . S
C1413 C63 2.924 . S
C1418 C672 2.923 . S
C1423 C92 2.923 . S
C1428 C614 2.924 . S
C1433 C121 2.924 . S
C1438 C527 2.924 . S
C1443 C556 2.924 . S
C1448 C150 2.924 . S
C1453 C585 2.923 . S
C1458 C179 2.922 . S
C1463 C498 2.922 . S
C1468 C208 2.922 . S
C1473 C237 2.922 . S
C1478 C382 2.921 . S
C1483 C266 2.922 . S
C1488 C411 2.921 . S
C1493 C295 2.923 . S
C1498 C440 2.921 . S
C1503 C353 2.923 . S
C1508 C324 2.922 . S
C1513 C701 2.922 . S
C1518 C1339 2.923 . S
C1523 C730 2.921 . S
C1528 C1165 2.922 . S
C1533 C759 2.924 . S
C1538 C1368 2.923 . S
C1543 C788 2.924 . S
C1548 C1310 2.924 . S
C1553 C1223 2.923 . S
C1558 C817 2.922 . S
C1563 C1252 2.924 . S
C1568 C846 2.924 . S
C1573 C1281 2.923 . S
C1578 C875 2.924 . S
C1583 C904 2.922 . S
C1588 C1194 2.923 . S
C1593 C1078 2.921 . S
C1598 C933 2.922 . S
C1603 C962 2.924 . S
C1608 C1107 2.924 . S
C1613 C1136 2.921 . S
C1618 C991 2.922 . S
C1623 C1020 2.924 . S
C1628 C1049 2.924 . S
C1633 C21 1.812 . S
C1638 C1315 1.883 . S
C1643 C50 1.811 . S
C1648 C1344 1.884 . S
C1653 C1170 1.884 . S
C1658 C79 1.810 . S
C1663 C108 1.810 . S
C1668 C1373 1.884 . S
C1673 C1257 1.884 . S
C1678 C137 1.811 . S
C1683 C166 1.811 . S
C1688 C1286 1.883 . S
C1693 C195 1.813 . S
C1698 C1199 1.883 . S
C1703 C224 1.812 . S
C1708 C1228 1.883 . S
C1713 C822 1.884 . S
C1718 C253 1.810 . S
C1723 C851 1.884 . S
C1728 C282 1.811 . S
C1733 C311 1.810 . S
C1738 C880 1.884 . S
C1743 C909 1.884 . S
C1748 C340 1.811 . S
C1753 C369 1.811 . S
C1758 C706 1.884 . S
C1763 C735 1.884 . S
C1768 C398 1.810 . S
C1773 C427 1.811 . S
C1778 C764 1.884 . S
C1783 C793 1.884 . S
C1788 C456 1.810 . S
C1793 C1112 1.884 . S
C1798 C485 1.810 . S
C1803 C514 1.811 . S
C1808 C996 1.883 . S
C1813 C543 1.810 . S
C1818 C1025 1.884 . S
C1823 C572 1.811 . S
C1828 C938 1.884 . S
C1833 C601 1.810 . S
C1838 C967 1.884 . S
C1843 C1054 1.884 . S
C1848 C630 1.811 . S
C1853 C659 1.810 . S
C1858 C1083 1.884 . S
C1863 C1141 1.883 . S
C1868 C688 1.812 . S
C1873 C619 1.883 . S
C1878 C717 1.812 . S
C1883 C648 1.883 . S
C1888 C746 1.813 . S
C1893 C474 1.884 . S
C1898 C775 1.811 . S
C1903 C804 1.811 . S
C1908 C677 1.884 . S
C1913 C833 1.812 . S
C1918 C561 1.883 . S
C1923 C590 1.884 . S
C1928 C862 1.811 . S
C1933 C891 1.812 . S
C1938 C503 1.883 . S
C1943 C532 1.883 . S
C1948 C920 1.812 . S
C1953 C949 1.811 . S
C1958 C126 1.884 . S
C1963 C155 1.884 . S
C1968 C978 1.810 . S
C1973 C1007 1.812 . S
C1978 C184 1.883 . S
C1983 C1036 1.811 . S
C1988 C213 1.884 . S
C1993 C10 1.884 . S
C1998 C1065 1.811 . S
C2003 C1094 1.812 . S
C2008 C39 1.883 . S
C2013 C68 1.884 . S
C2018 C1123 1.810 . S
C2023 C1152 1.812 . S
C2028 C97 1.883 . S
C2033 C1181 1.811 . S
C2038 C416 1.884 . S
C2043 C300 1.884 . S
C2048 C1210 1.811 . S
C2053 C1239 1.810 . S
C2058 C329 1.883 . S
C2063 C242 1.883 . S
C2068 C1268 1.812 . S
C2073 C1297 1.811 . S
C2078 C271 1.884 . S
C2083 C358 1.883 . S
C2088 C1326 1.812 . S
C2093 C387 1.883 . S
C2098 C1355 1.812 . S
C2103 C445 1.884 . S
C2108 C1384 1.811 . S
C2113 C3 1.675 . S
C2118 C680 1.418 . S
C2123 C622 1.417 . S
C2128 C32 1.674 . S
C2133 C651 1.417 . S
C2138 C61 1.674 . S
C2143 C477 1.422 . S
C2148 C90 1.674 . S
C2153 C119 1.674 . S
C2158 C593 1.417 . S
C2163 C148 1.674 . S
C2168 C506 1.422 . S
C2173 C177 1.674 . S
C2178 C535 1.422 . S
C2183 C564 1.422 . S
C2188 C206 1.674 . S
C2193 C332 1.417 . S
C2198 C235 1.674 . S
C2203 C245 1.417 . S
C2208 C264 1.674 . S
C2213 C293 1.674 . S
C2218 C274 1.417 . S
C2223 C303 1.418 . S
C2228 C322 1.675 . S
C2233 C351 1.674 . S
C2238 C390 1.417 . S
C2243 C380 1.674 . S
C2248 C419 1.421 . S
C2253 C409 1.674 . S
C2258 C448 1.422 . S
C2263 C438 1.674 . S
C2268 C361 1.417 . S
C2273 C467 1.674 . S
C2278 C158 1.422 . S
C2283 C100 1.422 . S
C2288 C496 1.674 . S
C2293 C13 1.422 . S
C2298 C525 1.674 . S
C2303 C554 1.674 . S
C2308 C42 1.422 . S
C2313 C71 1.417 . S
C2318 C583 1.674 . S
C2323 C216 1.422 . S
C2328 C612 1.674 . S
C2333 C641 1.674 . S
C2338 C129 1.417 . S
C2343 C187 1.417 . S
C2348 C670 1.674 . S
C2353 C699 1.674 . S
C2358 C1376 1.422 . S
C2363 C728 1.674 . S
C2368 C1318 1.422 . S
C2373 C1347 1.418 . S
C2378 C757 1.675 . S
C2383 C1173 1.422 . S
C2388 C786 1.674 . S
C2393 C815 1.675 . S
C2398 C1289 1.418 . S
C2403 C1202 1.417 . S
C2408 C844 1.674 . S
C2413 C873 1.675 . S
C2418 C1231 1.418 . S
C2423 C1260 1.417 . S
C2428 C902 1.674 . S
C2433 C931 1.674 . S
C2438 C1028 1.422 . S
C2443 C941 1.421 . S
C2448 C960 1.674 . S
C2453 C989 1.674 . S
C2458 C970 1.417 . S
C2463 C999 1.422 . S
C2468 C1018 1.674 . S
C2473 C1047 1.674 . S
C2478 C1086 1.422 . S
C2483 C1115 1.417 . S
C2488 C1076 1.674 . S
C2493 C1144 1.422 . S
C2498 C1105 1.674 . S
C2503 C1057 1.418 . S
C2508 C1134 1.675 . S
C2513 C854 1.417 . S
C2518 C1163 1.674 . S
C2523 C796 1.417 . S
C2528 C1192 1.674 . S
C2533 C709 1.417 . S
C2538 C1221 1.674 . S
C2543 C738 1.422 . S
C2548 C1250 1.674 . S
C2553 C767 1.417 . S
C2558 C1279 1.674 . S
C2563 C1308 1.674 . S
C2568 C912 1.417 . S
C2573 C1337 1.674 . S
C2578 C825 1.422 . S
C2583 C883 1.421 . S
C2588 C1366 1.674 . S
C2593 C1023 1.001 1_455 S
C2598 C15 1.092 . S
C2603 C936 0.995 1_545 S
C2608 C44 1.088 . S
C2613 C965 1.002 . S
C2618 C73 1.092 . S
C2623 C102 1.092 . S
C2628 C994 1.001 . S
C2633 C131 1.089 . S
C2638 C1081 0.996 1_455 S
C2643 C160 1.089 . S
C2648 C1110 0.997 1_545 S
C2653 C189 1.092 . S
C2658 C1139 1.001 . S
C2663 C1052 1.001 . S
C2668 C218 1.092 . S
C2673 C849 0.995 1_545 S
C2678 C247 1.088 . S
C2683 C276 1.092 . S
C2688 C878 1.001 . S
C2693 C907 1.001 . S
C2698 C305 1.092 . S
C2703 C334 1.088 . S
C2708 C820 0.995 1_455 S
C2713 C363 1.088 . S
C2718 C791 0.995 . S
C2723 C392 1.091 . S
C2728 C704 0.999 1_455 S
C2733 C733 1.000 1_545 S
C2738 C421 1.091 . S
C2743 C762 0.994 . S
C2748 C450 1.088 . S
C2753 C479 1.088 . S
C2758 C1371 0.994 1_554 S
C2763 C1284 1.001 . S
C2768 C508 1.092 . S
C2773 C537 1.088 . S
C2778 C1197 0.995 . S
C2783 C1226 1.002 . S
C2788 C566 1.092 . S
C2793 C1255 1.001 . S
C2798 C595 1.092 . S
C2803 C624 1.089 . S
C2808 C1342 0.997 1_554 S
C2813 C1168 0.996 1_554 S
C2818 C653 1.089 . S
C2823 C682 1.088 . S
C2828 C1313 0.995 1_554 S
C2833 C327 1.001 1_655 S
C2838 C711 1.092 . S
C2843 C740 1.089 . S
C2848 C240 0.995 1_565 S
C2853 C769 1.089 . S
C2858 C269 0.996 . S
C2863 C298 0.995 . S
C2868 C798 1.089 . S
C2873 C827 1.092 . S
C2878 C385 1.001 1_655 S
C2883 C414 0.997 1_565 S
C2888 C856 1.089 . S
C2893 C443 0.994 . S
C2898 C885 1.088 . S
C2903 C356 0.995 . S
C2908 C914 1.089 . S
C2913 C943 1.092 . S
C2918 C153 1.001 1_565 S
C2923 C182 1.001 . S
C2928 C972 1.092 . S
C2933 C211 1.001 . S
C2938 C1001 1.092 . S
C2943 C124 1.001 1_655 S
C2948 C1030 1.092 . S
C2953 C95 0.996 . S
C2958 C1059 1.089 . S
C2963 C8 0.995 1_655 S
C2968 C1088 1.088 . S
C2973 C37 0.994 1_565 S
C2978 C1117 1.088 . S
C2983 C1146 1.091 . S
C2988 C66 0.999 . S
C2993 C675 0.994 1_556 S
C2998 C1175 1.088 . S
C3003 C1204 1.092 . S
C3008 C588 1.001 . S
C3013 C1233 1.088 . S
C3018 C501 0.995 . S
C3023 C1262 1.089 . S
C3028 C530 0.997 . S
C3033 C1291 1.088 . S
C3038 C559 0.995 . S
C3043 C646 1.001 1_556 S
C3048 C1320 1.092 . S
C3053 C1349 1.092 . S
C3058 C472 1.001 1_556 S
C3063 C1378 1.089 . S
C3068 C617 0.996 1_556 S
