# Generated by pormake.
# Topology ure, (4)-cn, num edge types: 1
# Building blocks:
#     Node 0, Type 0, BuildingBlock: CEKHIL_clean_sbu_0, # of connection points: 4
#     Node 1, Type 0, BuildingBlock: CEKHIL_clean_sbu_0, # of connection points: 4
#     Node 2, Type 0, BuildingBlock: CEKHIL_clean_sbu_0, # of connection points: 4
#     Node 3, Type 0, BuildingBlock: CEKHIL_clean_sbu_0, # of connection points: 4
#     Node 4, Type 0, BuildingBlock: CEKHIL_clean_sbu_0, # of connection points: 4
#     Node 5, Type 0, BuildingBlock: CEKHIL_clean_sbu_0, # of connection points: 4
#     Node 6, Type 0, BuildingBlock: CEKHIL_clean_sbu_0, # of connection points: 4
#     Node 7, Type 0, BuildingBlock: CEKHIL_clean_sbu_0, # of connection points: 4
#     Node 8, Type 0, BuildingBlock: CEKHIL_clean_sbu_0, # of connection points: 4
#     Node 9, Type 0, BuildingBlock: CEKHIL_clean_sbu_0, # of connection points: 4
#     Node 10, Type 0, BuildingBlock: CEKHIL_clean_sbu_0, # of connection points: 4
#     Node 11, Type 0, BuildingBlock: CEKHIL_clean_sbu_0, # of connection points: 4
#     Node 12, Type 0, BuildingBlock: CEKHIL_clean_sbu_0, # of connection points: 4
#     Node 13, Type 0, BuildingBlock: CEKHIL_clean_sbu_0, # of connection points: 4
#     Node 14, Type 0, BuildingBlock: CEKHIL_clean_sbu_0, # of connection points: 4
#     Node 15, Type 0, BuildingBlock: CEKHIL_clean_sbu_0, # of connection points: 4
#     Edge 16, Type (0, 0), BuildingBlock: KIFKEQ_clean_linker_1, # of connection points: 2
#     Edge 17, Type (0, 0), BuildingBlock: KIFKEQ_clean_linker_1, # of connection points: 2
#     Edge 18, Type (0, 0), BuildingBlock: KIFKEQ_clean_linker_1, # of connection points: 2
#     Edge 19, Type (0, 0), BuildingBlock: KIFKEQ_clean_linker_1, # of connection points: 2
#     Edge 20, Type (0, 0), BuildingBlock: KIFKEQ_clean_linker_1, # of connection points: 2
#     Edge 21, Type (0, 0), BuildingBlock: KIFKEQ_clean_linker_1, # of connection points: 2
#     Edge 22, Type (0, 0), BuildingBlock: KIFKEQ_clean_linker_1, # of connection points: 2
#     Edge 23, Type (0, 0), BuildingBlock: KIFKEQ_clean_linker_1, # of connection points: 2
#     Edge 24, Type (0, 0), BuildingBlock: KIFKEQ_clean_linker_1, # of connection points: 2
#     Edge 25, Type (0, 0), BuildingBlock: KIFKEQ_clean_linker_1, # of connection points: 2
#     Edge 26, Type (0, 0), BuildingBlock: KIFKEQ_clean_linker_1, # of connection points: 2
#     Edge 27, Type (0, 0), BuildingBlock: KIFKEQ_clean_linker_1, # of connection points: 2
#     Edge 28, Type (0, 0), BuildingBlock: KIFKEQ_clean_linker_1, # of connection points: 2
#     Edge 29, Type (0, 0), BuildingBlock: KIFKEQ_clean_linker_1, # of connection points: 2
#     Edge 30, Type (0, 0), BuildingBlock: KIFKEQ_clean_linker_1, # of connection points: 2
#     Edge 31, Type (0, 0), BuildingBlock: KIFKEQ_clean_linker_1, # of connection points: 2
#     Edge 32, Type (0, 0), BuildingBlock: KIFKEQ_clean_linker_1, # of connection points: 2
#     Edge 33, Type (0, 0), BuildingBlock: KIFKEQ_clean_linker_1, # of connection points: 2
#     Edge 34, Type (0, 0), BuildingBlock: KIFKEQ_clean_linker_1, # of connection points: 2
#     Edge 35, Type (0, 0), BuildingBlock: KIFKEQ_clean_linker_1, # of connection points: 2
#     Edge 36, Type (0, 0), BuildingBlock: KIFKEQ_clean_linker_1, # of connection points: 2
#     Edge 37, Type (0, 0), BuildingBlock: KIFKEQ_clean_linker_1, # of connection points: 2
#     Edge 38, Type (0, 0), BuildingBlock: KIFKEQ_clean_linker_1, # of connection points: 2
#     Edge 39, Type (0, 0), BuildingBlock: KIFKEQ_clean_linker_1, # of connection points: 2
#     Edge 40, Type (0, 0), BuildingBlock: KIFKEQ_clean_linker_1, # of connection points: 2
#     Edge 41, Type (0, 0), BuildingBlock: KIFKEQ_clean_linker_1, # of connection points: 2
#     Edge 42, Type (0, 0), BuildingBlock: KIFKEQ_clean_linker_1, # of connection points: 2
#     Edge 43, Type (0, 0), BuildingBlock: KIFKEQ_clean_linker_1, # of connection points: 2
#     Edge 44, Type (0, 0), BuildingBlock: KIFKEQ_clean_linker_1, # of connection points: 2
#     Edge 45, Type (0, 0), BuildingBlock: KIFKEQ_clean_linker_1, # of connection points: 2
#     Edge 46, Type (0, 0), BuildingBlock: KIFKEQ_clean_linker_1, # of connection points: 2
#     Edge 47, Type (0, 0), BuildingBlock: KIFKEQ_clean_linker_1, # of connection points: 2
# Relax obj value: 0.224
# Max RMSD: 0.160
# Mean RMSD: 0.160
data_MOF--net-ure--node1-CEKHIL_clean_sbu_0--edge1-KIFKEQ_clean_linker_1
_symmetry_space_group_name_H-M    P1
_symmetry_Int_Tables_number       1
_symmetry_cell_setting            triclinic
loop_
_symmetry_equiv_pos_as_xyz
'x, y, z'
_cell_length_a     34.347221
_cell_length_b     29.318624
_cell_length_c     29.382672
_cell_angle_alpha  89.97566
_cell_angle_beta   90.007717
_cell_angle_gamma 89.944258
loop_
_atom_site_label
_atom_site_type_symbol
_atom_site_fract_x
_atom_site_fract_y
_atom_site_fract_z
_atom_type_partial_charge
Co0 Co 0.28758 0.23946 0.28095 0.0
O1 O 0.2332 0.22621 0.26878 0.0
O2 O 0.27926 0.2236 0.21687 0.0
C3 C 0.29065 0.1964 0.34498 0.0
O4 O 0.34748 0.24913 0.28126 0.0
Co5 Co 0.31173 0.28792 0.37169 0.0
O6 O 0.36536 0.2789 0.34897 0.0
C7 C 0.27292 0.34021 0.29874 0.0
C8 C 0.24276 0.21722 0.22708 0.0
C9 C 0.37367 0.264 0.30937 0.0
O10 O 0.27824 0.30738 0.26987 0.0
O11 O 0.27995 0.33623 0.34134 0.0
O12 O 0.29424 0.17708 0.30543 0.0
O13 O 0.28278 0.23918 0.34421 0.0
Co14 Co 0.99463 0.03602 0.48846 0.0
O15 O 0.04927 0.02204 0.47879 0.0
O16 O 1.00221 0.97151 0.47343 0.0
C17 C 0.99544 0.09988 0.44495 0.0
O18 O 0.93431 0.03821 0.49375 0.0
Co19 Co 0.96891 0.12766 0.53375 0.0
O20 O 0.91671 0.11017 0.51132 0.0
C21 C 1.00411 0.05434 0.58965 0.0
C22 C 0.03915 0.98059 0.46915 0.0
C23 C 0.90814 0.0696 0.49945 0.0
O24 O 1.00063 0.02519 0.55675 0.0
O25 O 0.99671 0.09691 0.58509 0.0
O26 O 0.99165 0.06022 0.42579 0.0
O27 O 1.00092 0.09932 0.48818 0.0
Co28 Co 0.25352 0.76742 0.78125 0.0
O29 O 0.30741 0.77721 0.76468 0.0
O30 O 0.25865 0.78285 0.7165 0.0
C31 C 0.25784 0.81116 0.84462 0.0
O32 O 0.19351 0.76149 0.78676 0.0
Co33 Co 0.23211 0.72299 0.87423 0.0
O34 O 0.17903 0.74488 0.85962 0.0
C35 C 0.26225 0.66574 0.79888 0.0
C36 C 0.2959 0.78707 0.72391 0.0
C37 C 0.16861 0.7557 0.81939 0.0
O38 O 0.25902 0.69903 0.7701 0.0
O39 O 0.25652 0.67039 0.84169 0.0
O40 O 0.25079 0.83018 0.80556 0.0
O41 O 0.26335 0.76785 0.84376 0.0
Co42 Co 0.53577 0.98027 0.98676 0.0
O43 O 0.48095 0.99145 0.97489 0.0
O44 O 0.52628 0.04424 0.97094 0.0
C45 C 0.53891 0.9161 0.94402 0.0
O46 O 0.59578 0.98132 0.99456 0.0
Co47 Co 0.56323 0.89045 0.03461 0.0
O48 O 0.61626 0.91482 0.0251 0.0
C49 C 0.52344 0.96219 0.08748 0.0
C50 C 0.48983 0.03336 0.96543 0.0
C51 C 0.62306 0.95447 0.00921 0.0
O52 O 0.52765 0.99132 0.05469 0.0
O53 O 0.53132 0.91973 0.08331 0.0
O54 O 0.54146 0.95575 0.9245 0.0
O55 O 0.53205 0.91674 0.98695 0.0
Co56 Co 0.27678 0.77283 0.2315 0.0
O57 O 0.22241 0.7824 0.24657 0.0
O58 O 0.27029 0.78923 0.29577 0.0
C59 C 0.27316 0.81537 0.16726 0.0
O60 O 0.337 0.76785 0.22817 0.0
Co61 Co 0.30223 0.72797 0.14028 0.0
O62 O 0.35435 0.75203 0.15599 0.0
C63 C 0.26902 0.67126 0.21447 0.0
C64 C 0.23318 0.79313 0.28741 0.0
C65 C 0.36308 0.76314 0.19665 0.0
O66 O 0.27152 0.70453 0.24336 0.0
O67 O 0.27639 0.6758 0.17199 0.0
O68 O 0.27921 0.83518 0.20615 0.0
O69 O 0.26852 0.77195 0.16864 0.0
Co70 Co 0.52913 0.03122 0.51878 0.0
O71 O 0.47509 0.01465 0.52777 0.0
O72 O 0.52392 0.96667 0.53527 0.0
C73 C 0.52359 0.09569 0.56083 0.0
O74 O 0.58931 0.03648 0.5142 0.0
Co75 Co 0.55206 0.12324 0.47342 0.0
O76 O 0.60454 0.10922 0.49744 0.0
C77 C 0.52074 0.04748 0.41744 0.0
C78 C 0.4866 0.974 0.53853 0.0
C79 C 0.61449 0.06898 0.50907 0.0
O80 O 0.52442 0.0188 0.45073 0.0
O81 O 0.52672 0.09037 0.42171 0.0
O82 O 0.53059 0.05704 0.58089 0.0
O83 O 0.51925 0.09383 0.51748 0.0
Co84 Co 0.2452 0.23282 0.72886 0.0
O85 O 0.30015 0.2243 0.74198 0.0
O86 O 0.25363 0.21691 0.79286 0.0
C87 C 0.24638 0.19028 0.66449 0.0
O88 O 0.18481 0.23661 0.7277 0.0
Co89 Co 0.21711 0.2785 0.63849 0.0
O90 O 0.16573 0.25384 0.6563 0.0
C91 C 0.25211 0.33463 0.71175 0.0
C92 C 0.29055 0.21364 0.78329 0.0
C93 C 0.15808 0.24159 0.69693 0.0
O94 O 0.24991 0.30122 0.74053 0.0
O95 O 0.24405 0.33038 0.66942 0.0
O96 O 0.24329 0.17035 0.70381 0.0
O97 O 0.25084 0.23374 0.66559 0.0
Co98 Co 1.00086 0.98237 0.02057 0.0
O99 O 0.05563 0.99429 0.0319 0.0
O100 O 1.00954 0.04613 0.03757 0.0
C101 C 0.99904 0.91729 0.06211 0.0
O102 O 0.94079 0.98251 0.01365 0.0
Co103 Co 0.9743 0.89317 0.97123 0.0
O104 O 0.921 0.91624 0.9822 0.0
C105 C 1.0121 0.96693 0.91914 0.0
C106 C 0.0462 0.0358 0.04238 0.0
C107 C 0.91376 0.95543 0.99894 0.0
O108 O 1.008 0.99514 0.95274 0.0
O109 O 1.00492 0.92423 0.92245 0.0
O110 O 0.99614 0.9565 0.08238 0.0
O111 O 1.00553 0.91887 0.01911 0.0
Co112 Co 0.77989 0.26336 0.73312 0.0
O113 O 0.72628 0.27454 0.75043 0.0
O114 O 0.77625 0.28669 0.79559 0.0
C115 C 0.77296 0.29833 0.66455 0.0
O116 O 0.83986 0.25757 0.72652 0.0
Co117 Co 0.80036 0.20809 0.64571 0.0
O118 O 0.85367 0.2313 0.65636 0.0
C119 C 0.77016 0.16104 0.72777 0.0
C120 C 0.73876 0.28935 0.78927 0.0
C121 C 0.86444 0.24756 0.69457 0.0
O122 O 0.77539 0.19686 0.75283 0.0
O123 O 0.77449 0.161 0.68449 0.0
O124 O 0.78089 0.32246 0.70047 0.0
O125 O 0.76867 0.25543 0.67151 0.0
Co126 Co 0.03556 0.53265 0.01305 0.0
O127 O 0.98066 0.5212 0.02422 0.0
O128 O 0.02627 0.46859 0.02812 0.0
C129 C 0.03837 0.5965 0.05626 0.0
O130 O 0.09563 0.53162 0.0063 0.0
Co131 Co 0.06366 0.62254 0.96611 0.0
O132 O 0.11662 0.59829 0.9768 0.0
C133 C 0.02382 0.55161 0.91236 0.0
C134 C 0.98973 0.47924 0.03339 0.0
C135 C 0.12316 0.55855 0.99266 0.0
O136 O 0.02801 0.52214 0.94489 0.0
O137 O 0.03175 0.59399 0.917 0.0
O138 O 0.04065 0.55671 0.07554 0.0
O139 O 0.03188 0.5962 0.01322 0.0
Co140 Co 0.74239 0.73691 0.22551 0.0
O141 O 0.79718 0.72446 0.23623 0.0
O142 O 0.75256 0.72335 0.28984 0.0
C143 C 0.73812 0.69129 0.1634 0.0
O144 O 0.68238 0.74622 0.22679 0.0
Co145 Co 0.71558 0.7815 0.13372 0.0
O146 O 0.66259 0.77278 0.1584 0.0
C147 C 0.75511 0.83738 0.20347 0.0
C148 C 0.7888 0.7167 0.27851 0.0
C149 C 0.6554 0.75953 0.19885 0.0
O150 O 0.75146 0.80535 0.23361 0.0
O151 O 0.74677 0.83183 0.16137 0.0
O152 O 0.73565 0.67358 0.2038 0.0
O153 O 0.74562 0.73415 0.16216 0.0
Co154 Co 0.03719 0.48575 0.48134 0.0
O155 O 0.9822 0.49645 0.46971 0.0
O156 O 0.02734 0.54924 0.46383 0.0
C157 C 0.04025 0.42032 0.44043 0.0
O158 O 0.09737 0.48719 0.48843 0.0
Co159 Co 0.06539 0.39755 0.53153 0.0
O160 O 0.11831 0.42162 0.52058 0.0
C161 C 0.02483 0.47021 0.58236 0.0
C162 C 0.99086 0.53814 0.45908 0.0
C163 C 0.12486 0.46075 0.50336 0.0
O164 O 0.02939 0.49868 0.54904 0.0
O165 O 0.0328 0.42769 0.57913 0.0
O166 O 0.04247 0.45941 0.41976 0.0
O167 O 0.03374 0.42221 0.4834 0.0
Co168 Co 0.50087 0.53236 0.99277 0.0
O169 O 0.55573 0.52086 0.98142 0.0
O170 O 0.51012 0.46835 0.97752 0.0
C171 C 0.49805 0.59637 0.94974 0.0
O172 O 0.44081 0.53151 0.9997 0.0
Co173 Co 0.47303 0.62205 0.04019 0.0
O174 O 0.42 0.59822 0.02931 0.0
C175 C 0.51288 0.55064 0.09349 0.0
C176 C 0.54664 0.47895 0.97222 0.0
C177 C 0.41334 0.55857 0.01339 0.0
O178 O 0.50858 0.52143 0.06081 0.0
O179 O 0.5049 0.59307 0.08918 0.0
O180 O 0.49567 0.55664 0.93039 0.0
O181 O 0.50464 0.59592 0.99276 0.0
Co182 Co 0.7889 0.73024 0.78914 0.0
O183 O 0.73383 0.72301 0.77606 0.0
O184 O 0.77993 0.71921 0.72426 0.0
C185 C 0.78789 0.68293 0.8501 0.0
O186 O 0.84931 0.73365 0.78984 0.0
Co187 Co 0.81804 0.76834 0.88239 0.0
O188 O 0.86899 0.74428 0.86222 0.0
C189 C 0.78363 0.83082 0.81378 0.0
C190 C 0.7431 0.71528 0.73401 0.0
C191 C 0.87631 0.73565 0.8206 0.0
O192 O 0.78437 0.79938 0.78274 0.0
O193 O 0.79249 0.82335 0.85544 0.0
O194 O 0.79074 0.66601 0.8094 0.0
O195 O 0.78369 0.72639 0.8523 0.0
Co196 Co 0.75233 0.27103 0.27175 0.0
O197 O 0.8065 0.28159 0.25651 0.0
O198 O 0.75828 0.28879 0.20777 0.0
C199 C 0.75488 0.31223 0.33686 0.0
O200 O 0.69223 0.26527 0.2757 0.0
Co201 Co 0.72895 0.22273 0.36233 0.0
O202 O 0.67635 0.2462 0.34762 0.0
C203 C 0.76188 0.16898 0.28605 0.0
C204 C 0.7954 0.2929 0.21591 0.0
C205 C 0.6668 0.25896 0.30767 0.0
O206 O 0.75822 0.20302 0.25821 0.0
O207 O 0.75542 0.17211 0.32885 0.0
O208 O 0.74913 0.3328 0.2983 0.0
O209 O 0.76063 0.26902 0.33457 0.0
Co210 Co 0.50254 0.48363 0.52371 0.0
O211 O 0.55664 0.49697 0.53692 0.0
O212 O 0.50969 0.54785 0.54059 0.0
C213 C 0.50207 0.41899 0.56606 0.0
O214 O 0.44264 0.48202 0.51427 0.0
Co215 Co 0.4791 0.39324 0.47538 0.0
O216 O 0.42495 0.41432 0.4844 0.0
C217 C 0.51686 0.46704 0.42317 0.0
C218 C 0.5464 0.53834 0.54664 0.0
C219 C 0.41645 0.45382 0.49954 0.0
O220 O 0.51154 0.49575 0.45611 0.0
O221 O 0.51016 0.42428 0.427 0.0
O222 O 0.49623 0.45817 0.58553 0.0
O223 O 0.50945 0.42038 0.52326 0.0
H224 H 0.16429 0.20732 0.23928 0.0
H225 H 0.2554 0.18038 0.14185 0.0
H226 H 0.11762 0.16782 0.19095 0.0
H227 H 0.20841 0.14106 0.0929 0.0
H228 H 0.1248 0.02305 0.05148 0.0
H229 H 0.17172 0.07054 0.09173 0.0
H230 H 0.08118 0.1686 0.12058 0.0
H231 H 0.034 0.12055 0.08058 0.0
C232 C 0.17433 0.19351 0.20717 0.0
C233 C 0.2138 0.19713 0.19464 0.0
C234 C 0.14737 0.17093 0.1792 0.0
C235 C 0.15896 0.1509 0.13779 0.0
C236 C 0.19832 0.15548 0.12471 0.0
C237 C 0.2253 0.1784 0.15264 0.0
C238 C 0.11488 0.05501 0.0659 0.0
C239 C 0.07542 0.06778 0.06271 0.0
C240 C 0.14198 0.08248 0.08892 0.0
C241 C 0.13051 0.12359 0.10982 0.0
C242 C 0.09118 0.13698 0.10555 0.0
C243 C 0.06408 0.10956 0.08223 0.0
H244 H 0.02614 0.89452 0.43431 0.0
H245 H 0.11778 0.99185 0.45942 0.0
H246 H 0.0728 0.84445 0.3959 0.0
H247 H 0.16411 0.94254 0.4205 0.0
H248 H 0.24728 0.83255 0.37121 0.0
H249 H 0.20091 0.87289 0.42017 0.0
H250 H 0.10832 0.84138 0.32587 0.0
H251 H 0.15431 0.80065 0.27779 0.0
C252 C 0.05629 0.90506 0.43211 0.0
C253 C 0.06802 0.94737 0.45004 0.0
C254 C 0.08311 0.87648 0.40968 0.0
C255 C 0.1225 0.88927 0.40462 0.0
C256 C 0.13434 0.93096 0.42399 0.0
C257 C 0.10756 0.95951 0.44623 0.0
C258 C 0.21691 0.83362 0.36135 0.0
C259 C 0.2047 0.81323 0.32042 0.0
C260 C 0.19026 0.85716 0.38925 0.0
C261 C 0.15058 0.86086 0.37714 0.0
C262 C 0.13832 0.83903 0.33693 0.0
C263 C 0.16491 0.81572 0.30907 0.0
H264 H 0.40775 0.98272 0.54658 0.0
H265 H 0.50149 0.88887 0.57507 0.0
H266 H 0.36228 0.933 0.58596 0.0
H267 H 0.45559 0.83811 0.61379 0.0
H268 H 0.37467 0.79523 0.73243 0.0
H269 H 0.41998 0.83517 0.68309 0.0
H270 H 0.32663 0.86341 0.58864 0.0
H271 H 0.28082 0.82407 0.63909 0.0
C272 C 0.41862 0.95099 0.56058 0.0
C273 C 0.4585 0.94005 0.55769 0.0
C274 C 0.39232 0.92216 0.58307 0.0
C275 C 0.40494 0.8813 0.60353 0.0
C276 C 0.44467 0.86953 0.5992 0.0
C277 C 0.47106 0.89848 0.5766 0.0
C278 C 0.36374 0.80942 0.70087 0.0
C279 C 0.32388 0.80643 0.68997 0.0
C280 C 0.38996 0.83224 0.67224 0.0
C281 C 0.3773 0.85297 0.63162 0.0
C282 C 0.33758 0.84858 0.61988 0.0
C283 C 0.31125 0.82561 0.64863 0.0
H284 H 0.41153 0.01936 0.95544 0.0
H285 H 0.50093 0.11921 0.9291 0.0
H286 H 0.36408 0.06684 0.91597 0.0
H287 H 0.45316 0.16731 0.88992 0.0
H288 H 0.27854 0.175 0.86778 0.0
H289 H 0.32622 0.13618 0.91622 0.0
H290 H 0.41686 0.16816 0.81957 0.0
H291 H 0.36946 0.2073 0.77176 0.0
C292 C 0.42102 0.05183 0.9418 0.0
C293 C 0.46026 0.06527 0.94554 0.0
C294 C 0.39361 0.07932 0.91924 0.0
C295 C 0.40449 0.12114 0.89938 0.0
C296 C 0.4436 0.13516 0.90416 0.0
C297 C 0.47103 0.10769 0.92701 0.0
C298 C 0.30874 0.17433 0.85721 0.0
C299 C 0.31997 0.19437 0.81571 0.0
C300 C 0.33614 0.15167 0.88485 0.0
C301 C 0.37565 0.14857 0.87195 0.0
C302 C 0.38698 0.17006 0.83116 0.0
C303 C 0.35961 0.19245 0.80349 0.0
H304 H 0.65955 0.29419 0.78384 0.0
H305 H 0.75561 0.33566 0.86889 0.0
H306 H 0.61464 0.3363 0.83197 0.0
H307 H 0.71027 0.37746 0.91806 0.0
H308 H 0.62425 0.49404 0.95686 0.0
H309 H 0.67077 0.44517 0.91754 0.0
H310 H 0.58247 0.34134 0.90364 0.0
H311 H 0.53565 0.39086 0.94224 0.0
C312 C 0.67112 0.31177 0.8133 0.0
C313 C 0.7114 0.31142 0.82229 0.0
C314 C 0.64515 0.33586 0.84123 0.0
C315 C 0.65849 0.36061 0.87921 0.0
C316 C 0.69876 0.35937 0.8889 0.0
C317 C 0.72483 0.33504 0.8609 0.0
C318 C 0.61479 0.46058 0.94589 0.0
C319 C 0.57598 0.44661 0.9527 0.0
C320 C 0.64167 0.4323 0.92343 0.0
C321 C 0.63065 0.3891 0.90692 0.0
C322 C 0.59209 0.37457 0.91507 0.0
C323 C 0.56519 0.40288 0.93761 0.0
H324 H 1.00122 0.39215 0.06609 0.0
H325 H 0.9116 0.49338 0.04599 0.0
H326 H 0.95422 0.3429 0.10477 0.0
H327 H 0.86485 0.4447 0.08516 0.0
H328 H 0.78047 0.33486 0.13348 0.0
H329 H 0.8266 0.3756 0.08452 0.0
H330 H 0.92019 0.33996 0.17604 0.0
H331 H 0.87444 0.29899 0.22418 0.0
C332 C 0.97142 0.40376 0.06948 0.0
C333 C 0.96038 0.4469 0.05286 0.0
C334 C 0.94442 0.37562 0.09204 0.0
C335 C 0.9055 0.38967 0.09857 0.0
C336 C 0.89426 0.43222 0.08053 0.0
C337 C 0.92126 0.46038 0.05816 0.0
C338 C 0.81099 0.33515 0.14273 0.0
C339 C 0.82357 0.31351 0.18289 0.0
C340 C 0.83749 0.3589 0.11483 0.0
C341 C 0.87739 0.36147 0.12615 0.0
C342 C 0.88999 0.33849 0.16561 0.0
C343 C 0.86355 0.31504 0.1935 0.0
H344 H 1.00149 0.62279 0.41991 0.0
H345 H 0.91226 0.52432 0.45156 0.0
H346 H 0.95312 0.67013 0.38082 0.0
H347 H 0.86412 0.57118 0.41231 0.0
H348 H 0.7784 0.68037 0.36445 0.0
H349 H 0.82676 0.6416 0.41214 0.0
H350 H 0.91517 0.66875 0.31131 0.0
H351 H 0.86712 0.70762 0.26418 0.0
C352 C 0.97151 0.61142 0.41901 0.0
C353 C 0.96097 0.56958 0.439 0.0
C354 C 0.94371 0.63845 0.39622 0.0
C355 C 0.90444 0.62465 0.39301 0.0
C356 C 0.89379 0.58344 0.41431 0.0
C357 C 0.92159 0.55633 0.43675 0.0
C358 C 0.80827 0.67863 0.35278 0.0
C359 C 0.81868 0.69727 0.31034 0.0
C360 C 0.83605 0.656 0.37999 0.0
C361 C 0.87515 0.65166 0.36576 0.0
C362 C 0.88565 0.67166 0.32393 0.0
C363 C 0.85789 0.69389 0.29666 0.0
H364 H 0.53281 0.62215 0.58679 0.0
H365 H 0.62509 0.52769 0.55433 0.0
H366 H 0.57961 0.67051 0.6273 0.0
H367 H 0.67148 0.57525 0.59497 0.0
H368 H 0.66439 0.7069 0.74627 0.0
H369 H 0.61713 0.66947 0.69702 0.0
H370 H 0.70708 0.64579 0.59714 0.0
H371 H 0.75461 0.68278 0.64698 0.0
C372 C 0.5631 0.61194 0.58777 0.0
C373 C 0.57501 0.5709 0.5672 0.0
C374 C 0.58999 0.63951 0.61136 0.0
C375 C 0.6296 0.62697 0.61476 0.0
C376 C 0.64153 0.58662 0.59282 0.0
C377 C 0.61471 0.55905 0.56958 0.0
C378 C 0.67409 0.69431 0.71353 0.0
C379 C 0.71353 0.69786 0.70082 0.0
C380 C 0.64679 0.67291 0.68505 0.0
C381 C 0.65803 0.6541 0.64294 0.0
C382 C 0.69726 0.65913 0.62952 0.0
C383 C 0.72457 0.68076 0.65798 0.0
H384 H 0.23892 0.13307 0.37449 0.0
H385 H 0.34093 0.20853 0.41447 0.0
H386 H 0.22708 0.11261 0.45439 0.0
H387 H 0.32999 0.18721 0.49381 0.0
H388 H 0.19406 0.19083 0.59568 0.0
H389 H 0.20782 0.17305 0.51607 0.0
H390 H 0.32137 0.12265 0.55416 0.0
H391 H 0.307 0.13967 0.63421 0.0
C392 C 0.25985 0.14326 0.40013 0.0
C393 C 0.2911 0.17181 0.38857 0.0
C394 C 0.25293 0.13191 0.44578 0.0
C395 C 0.27761 0.1483 0.4803 0.0
C396 C 0.31077 0.17353 0.46796 0.0
C397 C 0.31712 0.18572 0.42258 0.0
C398 C 0.22114 0.17389 0.58723 0.0
C399 C 0.24927 0.16597 0.6209 0.0
C400 C 0.22908 0.16371 0.54167 0.0
C401 C 0.26574 0.14656 0.5289 0.0
C402 C 0.29286 0.1357 0.5631 0.0
C403 C 0.28455 0.14506 0.60885 0.0
H404 H 0.04562 0.9183 0.85081 0.0
H405 H 0.99959 0.05186 0.88177 0.0
H406 H 0.05014 0.93858 0.7708 0.0
H407 H 1.00359 0.07211 0.80112 0.0
H408 H 0.03604 0.10609 0.65671 0.0
H409 H 0.04495 0.08669 0.73635 0.0
H410 H 1.00462 0.94984 0.70912 0.0
H411 H 0.99619 0.96926 0.62869 0.0
C412 C 0.03692 0.95233 0.8406 0.0
C413 C 0.02194 0.98341 0.87274 0.0
C414 C 0.03923 0.96378 0.79455 0.0
C415 C 0.02662 0.00665 0.77922 0.0
C416 C 1.01377 0.03879 0.81171 0.0
C417 C 1.01155 0.02732 0.85803 0.0
C418 C 0.02941 0.07163 0.6675 0.0
C419 C 1.01498 0.0393 0.63627 0.0
C420 C 0.03434 0.06063 0.71337 0.0
C421 C 0.02499 0.01694 0.72948 0.0
C422 C 1.01238 0.98381 0.69789 0.0
C423 C 1.00753 0.99484 0.65172 0.0
H424 H 0.32086 0.81078 0.89825 0.0
H425 H 0.20443 0.86482 0.8886 0.0
H426 H 0.32414 0.833 0.97784 0.0
H427 H 0.20734 0.88727 0.96917 0.0
H428 H 0.20994 0.81344 0.11405 0.0
H429 H 0.20639 0.83339 0.03386 0.0
H430 H 0.32277 0.88884 0.04076 0.0
H431 H 0.326 0.86858 0.12191 0.0
C432 C 0.29648 0.82907 0.91297 0.0
C433 C 0.26244 0.8362 0.8876 0.0
C434 C 0.2984 0.84209 0.95855 0.0
C435 C 0.26592 0.8617 0.98007 0.0
C436 C 0.2328 0.87206 0.95357 0.0
C437 C 0.23114 0.85954 0.90749 0.0
C438 C 0.23413 0.83157 0.09879 0.0
C439 C 0.26817 0.83963 0.12387 0.0
C440 C 0.23207 0.84326 0.05285 0.0
C441 C 0.26439 0.86248 0.03071 0.0
C442 C 0.29744 0.87389 0.05684 0.0
C443 C 0.29927 0.86265 0.10325 0.0
H444 H 0.53366 0.9631 0.37879 0.0
H445 H 0.4872 0.09697 0.34982 0.0
H446 H 0.52804 0.94345 0.29807 0.0
H447 H 0.48104 0.07729 0.26992 0.0
H448 H 0.53142 0.04722 0.12615 0.0
H449 H 0.52488 0.06624 0.20682 0.0
H450 H 0.4847 0.92944 0.23475 0.0
H451 H 0.49171 0.91038 0.15475 0.0
C452 C 0.52143 0.98789 0.35547 0.0
C453 C 0.51131 0.03168 0.37072 0.0
C454 C 0.51821 0.97674 0.30915 0.0
C455 C 0.50459 0.0091 0.27728 0.0
C456 C 0.49249 0.05193 0.29318 0.0
C457 C 0.49582 0.06305 0.33918 0.0
C458 C 0.52036 0.02161 0.14936 0.0
C459 C 0.51244 0.97727 0.13398 0.0
C460 C 0.51666 0.03239 0.19568 0.0
C461 C 0.50478 0.9991 0.2275 0.0
C462 C 0.49477 0.95558 0.21151 0.0
C463 C 0.49852 0.94483 0.16545 0.0
H464 H 0.4196 0.20214 0.2615 0.0
H465 H 0.42279 0.33311 0.3282 0.0
H466 H 0.49113 0.20423 0.25369 0.0
H467 H 0.49304 0.33577 0.3196 0.0
H468 H 0.61309 0.28955 0.3676 0.0
H469 H 0.54288 0.29244 0.35965 0.0
H470 H 0.55239 0.24442 0.22122 0.0
H471 H 0.6239 0.24155 0.2294 0.0
C472 C 0.43537 0.23179 0.27339 0.0
C473 C 0.41553 0.26713 0.29608 0.0
C474 C 0.47634 0.23306 0.26892 0.0
C475 C 0.49805 0.26981 0.28683 0.0
C476 C 0.47758 0.3064 0.30642 0.0
C477 C 0.43715 0.30494 0.3112 0.0
C478 C 0.60043 0.28006 0.33518 0.0
C479 C 0.62429 0.26548 0.29912 0.0
C480 C 0.55999 0.28187 0.33053 0.0
C481 C 0.5417 0.26878 0.28972 0.0
C482 C 0.56545 0.25458 0.25319 0.0
C483 C 0.6064 0.25342 0.25768 0.0
H484 H 0.98661 0.38909 0.38033 0.0
H485 H 0.09096 0.35096 0.4524 0.0
H486 H 0.97406 0.30849 0.3629 0.0
H487 H 0.07932 0.27086 0.43393 0.0
H488 H 0.94383 0.16956 0.4475 0.0
H489 H 0.95715 0.24879 0.42705 0.0
H490 H 0.06806 0.20849 0.37083 0.0
H491 H 0.05406 0.12874 0.39047 0.0
C492 C 1.00786 0.36365 0.39034 0.0
C493 C 0.03999 0.37597 0.41714 0.0
C494 C 1.00054 0.31761 0.38072 0.0
C495 C 0.02572 0.28345 0.39703 0.0
C496 C 0.05969 0.29643 0.42036 0.0
C497 C 0.06644 0.34223 0.4309 0.0
C498 C 0.97017 0.1774 0.42882 0.0
C499 C 0.9977 0.14321 0.41994 0.0
C500 C 0.97784 0.22273 0.41709 0.0
C501 C 1.01369 0.2348 0.3974 0.0
C502 C 0.04016 0.20006 0.3858 0.0
C503 C 0.03205 0.1545 0.39669 0.0
H504 H 0.93138 0.69156 0.86936 0.0
H505 H 0.91664 0.77017 0.74644 0.0
H506 H 1.00169 0.69732 0.86206 0.0
H507 H 0.98802 0.77664 0.73934 0.0
H508 H 0.12706 0.742 0.73911 0.0
H509 H 0.05583 0.73382 0.7315 0.0
H510 H 0.04249 0.76663 0.87377 0.0
H511 H 0.11238 0.77457 0.88136 0.0
C512 C 0.94324 0.70941 0.84019 0.0
C513 C 0.91832 0.73068 0.8087 0.0
C514 C 0.98365 0.71304 0.83618 0.0
C515 C 1.00062 0.73848 0.80078 0.0
C516 C 0.97592 0.75696 0.76713 0.0
C517 C 0.93505 0.75308 0.77106 0.0
C518 C 0.10876 0.74828 0.76845 0.0
C519 C 0.12567 0.75833 0.81101 0.0
C520 C 0.06797 0.74343 0.76412 0.0
C521 C 0.04345 0.74839 0.80232 0.0
C522 C 0.06042 0.76123 0.84391 0.0
C523 C 0.10069 0.76605 0.84819 0.0
H524 H 0.55166 0.62552 0.88859 0.0
H525 H 0.44721 0.66596 0.95916 0.0
H526 H 0.56388 0.70544 0.86787 0.0
H527 H 0.45849 0.7453 0.93731 0.0
H528 H 0.48272 0.88523 0.88734 0.0
H529 H 0.47004 0.80471 0.86989 0.0
H530 H 0.57967 0.76784 0.93163 0.0
H531 H 0.59153 0.84791 0.95023 0.0
C532 C 0.53033 0.65123 0.89758 0.0
C533 C 0.49826 0.63985 0.9249 0.0
C534 C 0.53744 0.69687 0.88603 0.0
C535 C 0.51208 0.73148 0.90089 0.0
C536 C 0.4782 0.71929 0.92481 0.0
C537 C 0.47168 0.67395 0.9373 0.0
C538 C 0.50485 0.86004 0.89513 0.0
C539 C 0.53833 0.87252 0.91947 0.0
C540 C 0.49748 0.81405 0.88549 0.0
C541 C 0.52389 0.78012 0.89938 0.0
C542 C 0.55909 0.7933 0.91994 0.0
C543 C 0.56596 0.83908 0.93051 0.0
H544 H 0.60774 0.69543 0.24065 0.0
H545 H 0.60899 0.83268 0.18792 0.0
H546 H 0.53626 0.69967 0.24796 0.0
H547 H 0.53864 0.83743 0.19605 0.0
H548 H 0.41785 0.79958 0.14139 0.0
H549 H 0.48804 0.80052 0.15109 0.0
H550 H 0.47578 0.73823 0.28347 0.0
H551 H 0.40443 0.73766 0.27362 0.0
C552 C 0.59294 0.72691 0.23203 0.0
C553 C 0.61398 0.76362 0.21346 0.0
C554 C 0.55199 0.72939 0.23612 0.0
C555 C 0.53148 0.76867 0.22183 0.0
C556 C 0.55316 0.80629 0.20643 0.0
C557 C 0.59362 0.80367 0.20205 0.0
C558 C 0.42994 0.7867 0.17294 0.0
C559 C 0.40539 0.76883 0.20681 0.0
C560 C 0.47035 0.78732 0.17861 0.0
C561 C 0.48785 0.76949 0.21814 0.0
C562 C 0.46336 0.75208 0.25253 0.0
C563 C 0.42249 0.75222 0.24714 0.0
H564 H 0.57112 0.1405 0.62129 0.0
H565 H 0.46087 0.14904 0.55169 0.0
H566 H 0.56485 0.22101 0.64388 0.0
H567 H 0.45432 0.22841 0.57393 0.0
H568 H 0.44533 0.37123 0.6107 0.0
H569 H 0.44849 0.28982 0.63033 0.0
H570 H 0.57007 0.28755 0.59256 0.0
H571 H 0.56661 0.36816 0.57333 0.0
C572 C 0.54494 0.15913 0.61241 0.0
C573 C 0.5165 0.13897 0.58475 0.0
C574 C 0.54139 0.20516 0.62503 0.0
C575 C 0.50913 0.23127 0.61056 0.0
C576 C 0.47926 0.20944 0.58627 0.0
C577 C 0.48311 0.16398 0.57319 0.0
C578 C 0.47299 0.35354 0.60862 0.0
C579 C 0.50576 0.37558 0.5907 0.0
C580 C 0.47482 0.30698 0.61948 0.0
C581 C 0.50948 0.28203 0.61263 0.0
C582 C 0.54306 0.30559 0.5988 0.0
C583 C 0.54108 0.35177 0.58755 0.0
H584 H 0.10596 0.19371 0.64771 0.0
H585 H 0.11496 0.27631 0.76856 0.0
H586 H 0.03535 0.1957 0.65301 0.0
H587 H 0.04335 0.27961 0.77338 0.0
H588 H 0.90702 0.2446 0.77515 0.0
H589 H 0.9784 0.23974 0.78271 0.0
H590 H 0.98979 0.25572 0.63726 0.0
H591 H 0.91969 0.25972 0.62979 0.0
C592 C 0.09273 0.21168 0.67599 0.0
C593 C 0.1161 0.23486 0.70765 0.0
C594 C 0.05213 0.21331 0.67879 0.0
C595 C 0.03336 0.23892 0.71289 0.0
C596 C 0.05669 0.25968 0.74656 0.0
C597 C 0.09773 0.25762 0.74398 0.0
C598 C 0.92493 0.24774 0.74498 0.0
C599 C 0.90742 0.25196 0.70178 0.0
C600 C 0.96585 0.2448 0.74928 0.0
C601 C 0.99003 0.24604 0.71045 0.0
C602 C 0.97232 0.253 0.66783 0.0
C603 C 0.93189 0.25571 0.66357 0.0
H604 H 0.05636 0.88549 0.11682 0.0
H605 H 0.94633 0.84919 0.05647 0.0
H606 H 0.06891 0.80486 0.13412 0.0
H607 H 0.95809 0.76898 0.07492 0.0
H608 H 0.08967 0.66531 0.04588 0.0
H609 H 0.07918 0.74489 0.0673 0.0
H610 H 0.97428 0.70672 0.13859 0.0
H611 H 0.98571 0.62652 0.11823 0.0
C612 C 0.03402 0.86049 0.10948 0.0
C613 C 1.00017 0.87328 0.08595 0.0
C614 C 0.04129 0.81444 0.11906 0.0
C615 C 1.01444 0.78074 0.10593 0.0
C616 C 0.97902 0.79425 0.08604 0.0
C617 C 0.97222 0.84009 0.07552 0.0
C618 C 0.06549 0.67371 0.06804 0.0
C619 C 0.0388 0.64 0.08103 0.0
C620 C 0.05942 0.71921 0.08028 0.0
C621 C 0.02587 0.73194 0.10457 0.0
C622 C 1.00046 0.69772 0.12009 0.0
C623 C 1.00712 0.65192 0.10877 0.0
H624 H 0.23838 0.40684 0.349 0.0
H625 H 0.28308 0.37935 0.21435 0.0
H626 H 0.23085 0.48695 0.32983 0.0
H627 H 0.27611 0.46013 0.19524 0.0
H628 H 0.23848 0.60309 0.16307 0.0
H629 H 0.23249 0.52288 0.1821 0.0
H630 H 0.27339 0.55125 0.31826 0.0
H631 H 0.27881 0.63231 0.29923 0.0
C632 C 0.24618 0.41781 0.31498 0.0
C633 C 0.26163 0.38661 0.28324 0.0
C634 C 0.24214 0.46395 0.30417 0.0
C635 C 0.25344 0.48032 0.26129 0.0
C636 C 0.26687 0.44873 0.22858 0.0
C637 C 0.27081 0.40232 0.23941 0.0
C638 C 0.24576 0.59244 0.19735 0.0
C639 C 0.25949 0.6242 0.22959 0.0
C640 C 0.24256 0.54624 0.20811 0.0
C641 C 0.25302 0.53029 0.25144 0.0
C642 C 0.26483 0.56233 0.28455 0.0
C643 C 0.26793 0.60886 0.27376 0.0
H644 H 0.72584 0.0942 0.69131 0.0
H645 H 0.79651 0.12521 0.80874 0.0
H646 H 0.72376 0.01432 0.71344 0.0
H647 H 0.79493 0.04459 0.83084 0.0
H648 H 0.76543 0.89965 0.87241 0.0
H649 H 0.75601 0.97996 0.85587 0.0
H650 H 0.77086 0.95256 0.71249 0.0
H651 H 0.77999 0.87145 0.72903 0.0
C652 C 0.74037 0.084 0.72244 0.0
C653 C 0.76156 0.11596 0.74819 0.0
C654 C 0.73951 0.03807 0.73481 0.0
C655 C 0.75988 0.02275 0.77329 0.0
C656 C 0.77885 0.05523 0.80095 0.0
C657 C 0.77962 0.1015 0.78854 0.0
C658 C 0.76654 0.9105 0.83721 0.0
C659 C 0.77387 0.87888 0.802 0.0
C660 C 0.76127 0.95678 0.82784 0.0
C661 C 0.763 0.97293 0.78298 0.0
C662 C 0.76898 0.94122 0.7475 0.0
C663 C 0.77429 0.89469 0.7569 0.0
H664 H 0.37383 0.51321 0.94523 0.0
H665 H 0.35856 0.57296 0.07815 0.0
H666 H 0.30297 0.50206 0.93954 0.0
H667 H 0.28845 0.56114 0.07301 0.0
H668 H 0.16278 0.51454 0.06161 0.0
H669 H 0.23366 0.50345 0.06736 0.0
H670 H 0.24786 0.55943 0.93247 0.0
H671 H 0.1777 0.57121 0.92728 0.0
C672 C 0.3555 0.52282 0.97365 0.0
C673 C 0.37179 0.5441 0.01204 0.0
C674 C 0.31492 0.51671 0.97035 0.0
C675 C 0.28992 0.53073 0.00586 0.0
C676 C 0.30667 0.5495 0.04524 0.0
C677 C 0.34692 0.55651 0.04807 0.0
C678 C 0.18104 0.52344 0.0329 0.0
C679 C 0.16467 0.54386 0.99407 0.0
C680 C 0.22164 0.51738 0.03623 0.0
C681 C 0.24655 0.5306 1.00036 0.0
C682 C 0.2297 0.54843 0.96055 0.0
C683 C 0.18944 0.55541 0.95768 0.0
H684 H 0.74559 0.13053 0.20256 0.0
H685 H 0.79858 0.10162 0.33269 0.0
H686 H 0.74992 0.04952 0.18279 0.0
H687 H 0.80355 0.02141 0.31285 0.0
H688 H 0.75134 0.8776 0.28819 0.0
H689 H 0.75901 0.95862 0.30568 0.0
H690 H 0.79111 0.98503 0.16595 0.0
H691 H 0.78298 0.90471 0.14845 0.0
C692 C 0.7591 0.10716 0.22637 0.0
C693 C 0.77138 0.1225 0.26928 0.0
C694 C 0.76153 0.06065 0.21519 0.0
C695 C 0.7765 0.02866 0.24661 0.0
C696 C 0.79095 0.04471 0.2883 0.0
C697 C 0.78838 0.09088 0.29948 0.0
C698 C 0.7608 0.90054 0.2615 0.0
C699 C 0.76621 0.88454 0.21693 0.0
C700 C 0.76518 0.9471 0.27142 0.0
C701 C 0.77525 0.97863 0.23704 0.0
C702 C 0.78253 0.96208 0.19305 0.0
C703 C 0.77811 0.91579 0.18316 0.0
H704 H 0.87228 0.99878 0.06699 0.0
H705 H 0.86069 0.94244 0.9321 0.0
H706 H 0.80125 0.00979 0.07033 0.0
H707 H 0.79051 0.95406 0.93499 0.0
H708 H 0.66453 0.99918 0.94215 0.0
H709 H 0.73548 0.01063 0.93942 0.0
H710 H 0.74594 0.95342 0.07428 0.0
H711 H 0.67575 0.94147 0.07655 0.0
C712 C 0.85473 0.98985 0.0377 0.0
C713 C 0.87209 0.96959 0.99939 0.0
C714 C 0.81405 0.99589 0.03963 0.0
C715 C 0.79005 0.98279 1.00286 0.0
C716 C 0.80792 0.96499 0.96368 0.0
C717 C 0.84822 0.95807 0.96217 0.0
C718 C 0.68197 0.99007 0.97149 0.0
C719 C 0.66455 0.96926 0.00945 0.0
C720 C 0.72262 0.99633 0.96989 0.0
C721 C 0.74653 0.98283 0.00663 0.0
C722 C 0.72859 0.96462 0.04557 0.0
C723 C 0.68829 0.95752 0.04674 0.0
H724 H 0.29243 0.59585 0.84861 0.0
H725 H 0.2489 0.62805 0.71443 0.0
H726 H 0.29573 0.51565 0.8286 0.0
H727 H 0.25146 0.54712 0.69451 0.0
H728 H 0.28318 0.40246 0.6603 0.0
H729 H 0.29166 0.48217 0.68006 0.0
H730 H 0.25145 0.45382 0.81653 0.0
H731 H 0.24374 0.37322 0.79681 0.0
C732 C 0.28387 0.58586 0.81455 0.0
C733 C 0.27014 0.61848 0.78314 0.0
C734 C 0.28548 0.53965 0.80325 0.0
C735 C 0.27333 0.52459 0.76021 0.0
C736 C 0.26135 0.55745 0.72794 0.0
C737 C 0.2599 0.60393 0.73924 0.0
C738 C 0.27652 0.41302 0.69477 0.0
C739 C 0.26245 0.38141 0.72695 0.0
C740 C 0.28115 0.45895 0.70596 0.0
C741 C 0.27172 0.47479 0.74965 0.0
C742 C 0.2593 0.44284 0.78257 0.0
C743 C 0.25486 0.39657 0.77137 0.0
H744 H 0.17535 0.46035 0.57397 0.0
H745 H 0.16854 0.49137 0.43079 0.0
H746 H 0.24599 0.46912 0.57185 0.0
H747 H 0.23982 0.49951 0.42824 0.0
H748 H 0.363 0.42826 0.43647 0.0
H749 H 0.29305 0.44139 0.43617 0.0
H750 H 0.30348 0.52116 0.55899 0.0
H751 H 0.37436 0.5084 0.55888 0.0
C752 C 0.18898 0.4702 0.5422 0.0
C753 C 0.16634 0.47546 0.50261 0.0
C754 C 0.22954 0.47534 0.54101 0.0
C755 C 0.24881 0.48488 0.49989 0.0
C756 C 0.22597 0.492 0.4605 0.0
C757 C 0.18512 0.48775 0.46195 0.0
C758 C 0.35058 0.44917 0.46318 0.0
C759 C 0.37441 0.46701 0.49792 0.0
C760 C 0.31036 0.45702 0.46275 0.0
C761 C 0.29241 0.48234 0.49751 0.0
C762 C 0.31631 0.50136 0.53172 0.0
C763 C 0.35693 0.49425 0.53161 0.0
H764 H 0.83967 0.67702 0.91912 0.0
H765 H 0.72606 0.63221 0.87609 0.0
H766 H 0.82375 0.65757 0.99772 0.0
H767 H 0.70955 0.61347 0.95511 0.0
H768 H 0.68967 0.70321 0.09219 0.0
H769 H 0.7015 0.67856 0.01413 0.0
H770 H 0.80041 0.59966 0.05937 0.0
H771 H 0.7876 0.62355 0.1381 0.0
C772 C 0.81201 0.66082 0.92628 0.0
C773 C 0.78425 0.65554 0.89172 0.0
C774 C 0.80281 0.64971 0.97129 0.0
C775 C 0.76528 0.63426 0.9826 0.0
C776 C 0.73869 0.62524 0.94733 0.0
C777 C 0.74822 0.63557 0.90213 0.0
C778 C 0.7127 0.67878 0.08568 0.0
C779 C 0.73747 0.66482 0.12095 0.0
C780 C 0.71953 0.66461 0.04101 0.0
C781 C 0.75198 0.63726 0.03062 0.0
C782 C 0.77512 0.62059 0.06648 0.0
C783 C 0.76765 0.63394 0.11147 0.0
H784 H 0.50578 0.55163 0.38439 0.0
H785 H 0.55137 0.41716 0.35638 0.0
H786 H 0.51161 0.57077 0.30362 0.0
H787 H 0.55764 0.43634 0.27631 0.0
H788 H 0.50501 0.46588 0.13298 0.0
H789 H 0.51294 0.44725 0.21364 0.0
H790 H 0.55443 0.58386 0.23961 0.0
H791 H 0.54603 0.60251 0.15967 0.0
C792 C 0.51802 0.52664 0.3613 0.0
C793 C 0.52774 0.48281 0.37685 0.0
C794 C 0.52131 0.53749 0.31493 0.0
C795 C 0.53455 0.50477 0.28324 0.0
C796 C 0.54649 0.46197 0.29944 0.0
C797 C 0.54316 0.45117 0.34554 0.0
C798 C 0.51663 0.49152 0.15575 0.0
C799 C 0.52448 0.53573 0.13989 0.0
C800 C 0.52116 0.48096 0.20206 0.0
C801 C 0.53381 0.51434 0.23335 0.0
C802 C 0.54379 0.55767 0.21681 0.0
C803 C 0.5392 0.5682 0.17078 0.0
H804 H 0.81804 0.33326 0.38681 0.0
H805 H 0.69268 0.33788 0.38789 0.0
H806 H 0.81926 0.34614 0.46895 0.0
H807 H 0.69358 0.35083 0.47032 0.0
H808 H 0.80983 0.37014 0.62141 0.0
H809 H 0.80269 0.39179 0.54066 0.0
H810 H 0.71307 0.28974 0.52491 0.0
H811 H 0.72059 0.26813 0.60405 0.0
C812 C 0.79082 0.33927 0.40448 0.0
C813 C 0.7553 0.33515 0.38128 0.0
C814 C 0.79148 0.34665 0.4515 0.0
C815 C 0.75652 0.34912 0.47622 0.0
C816 C 0.721 0.34885 0.45219 0.0
C817 C 0.7204 0.34184 0.40504 0.0
C818 C 0.78813 0.35324 0.60068 0.0
C819 C 0.76598 0.31729 0.6187 0.0
C820 C 0.78407 0.36548 0.55461 0.0
C821 C 0.75711 0.34267 0.52646 0.0
C822 C 0.7336 0.30858 0.54564 0.0
C823 C 0.73821 0.29585 0.59096 0.0
H824 H 0.03568 0.55459 0.62169 0.0
H825 H 0.98857 0.42061 0.64784 0.0
H826 H 0.02845 0.57338 0.70246 0.0
H827 H 0.98095 0.43939 0.72788 0.0
H828 H 0.03203 0.46714 0.87237 0.0
H829 H 0.02522 0.44932 0.79141 0.0
H830 H 0.98425 0.58631 0.76578 0.0
H831 H 0.99137 0.60412 0.84609 0.0
C832 C 0.0228 0.52967 0.64435 0.0
C833 C 1.01309 0.48603 0.62836 0.0
C834 C 0.01873 0.54029 0.69071 0.0
C835 C 1.0047 0.50754 0.7219 0.0
C836 C 0.99271 0.46501 0.70516 0.0
C837 C 0.99682 0.45443 0.6591 0.0
C838 C 0.02072 0.49303 0.84961 0.0
C839 C 1.01265 0.5371 0.86571 0.0
C840 C 0.01686 0.48294 0.80313 0.0
C841 C 1.00471 0.51667 0.77187 0.0
C842 C 0.99451 0.55986 0.78859 0.0
C843 C 0.99837 0.56991 0.83481 0.0
H844 H 0.86614 0.99239 0.52414 0.0
H845 H 0.8538 0.12574 0.46377 0.0
H846 H 0.79459 0.98596 0.52882 0.0
H847 H 0.78346 0.11916 0.46754 0.0
H848 H 0.6692 0.12936 0.5367 0.0
H849 H 0.73947 0.12273 0.53249 0.0
H850 H 0.72855 0.9836 0.48632 0.0
H851 H 0.65705 0.99015 0.4913 0.0
C852 C 0.84824 0.01972 0.51078 0.0
C853 C 0.86573 0.0598 0.49401 0.0
C854 C 0.80725 0.01615 0.51363 0.0
C855 C 0.78312 0.05259 0.49971 0.0
C856 C 0.80092 0.09099 0.47995 0.0
C857 C 0.8414 0.09462 0.4774 0.0
C858 C 0.68158 0.09704 0.52614 0.0
C859 C 0.65725 0.06049 0.51385 0.0
C860 C 0.72206 0.09332 0.52339 0.0
C861 C 0.7399 0.05303 0.50781 0.0
C862 C 0.71585 0.01525 0.49819 0.0
C863 C 0.67487 0.01894 0.50119 0.0
loop_
_geom_bond_atom_site_label_1
_geom_bond_atom_site_label_2
_geom_bond_distance
_geom_bond_site_symmetry_2
_ccdc_geom_bond_type
Co0 O1 2.216 . S
Co0 O2 2.091 . S
Co0 O4 2.004 . S
Co0 O10 2.021 . S
Co0 O12 2.137 . S
Co0 O13 2.244 . S
O1 Co0 2.216 . S
O1 C8 1.247 . S
O2 Co0 2.091 . S
O2 C8 1.261 . S
C3 O12 1.247 . S
C3 O13 1.272 . S
O4 Co0 2.004 . S
O4 C9 1.259 . S
Co5 O6 2.061 . S
Co5 O11 2.052 . S
Co5 O13 2.135 . S
O6 Co5 2.061 . S
O6 C9 1.235 . S
C7 O10 1.238 . S
C7 O11 1.241 . S
C8 O1 1.247 . S
C8 O2 1.261 . S
C9 O4 1.259 . S
C9 O6 1.235 . S
O10 Co0 2.021 . S
O10 C7 1.238 . S
O11 Co5 2.052 . S
O11 C7 1.241 . S
O12 Co0 2.137 . S
O12 C3 1.247 . S
O13 Co0 2.244 . S
O13 C3 1.272 . S
O13 Co5 2.135 . S
Co14 O15 2.216 1_655 S
Co14 O16 2.091 1_545 S
Co14 O18 2.004 . S
Co14 O24 2.021 1_545 S
Co14 O26 2.137 . S
Co14 O27 2.244 . S
O15 Co14 2.216 1_455 S
O15 C22 1.247 1_545 S
O16 Co14 2.091 1_565 S
O16 C22 1.261 1_655 S
C17 O26 1.247 . S
C17 O27 1.272 . S
O18 Co14 2.004 . S
O18 C23 1.259 . S
Co19 O20 2.061 . S
Co19 O25 2.052 . S
Co19 O27 2.135 . S
O20 Co19 2.061 . S
O20 C23 1.235 . S
C21 O24 1.238 1_545 S
C21 O25 1.241 . S
C22 O15 1.247 1_565 S
C22 O16 1.261 1_455 S
C23 O18 1.259 . S
C23 O20 1.235 . S
O24 Co14 2.021 1_565 S
O24 C21 1.238 1_565 S
O25 Co19 2.052 . S
O25 C21 1.241 . S
O26 Co14 2.137 . S
O26 C17 1.247 . S
O27 Co14 2.244 . S
O27 C17 1.272 . S
O27 Co19 2.135 . S
Co28 O29 2.216 . S
Co28 O30 2.091 . S
Co28 O32 2.004 . S
Co28 O38 2.021 . S
Co28 O40 2.137 . S
Co28 O41 2.244 . S
O29 Co28 2.216 . S
O29 C36 1.247 . S
O30 Co28 2.091 . S
O30 C36 1.261 . S
C31 O40 1.247 . S
C31 O41 1.272 . S
O32 Co28 2.004 . S
O32 C37 1.259 . S
Co33 O34 2.061 . S
Co33 O39 2.052 . S
Co33 O41 2.135 . S
O34 Co33 2.061 . S
O34 C37 1.235 . S
C35 O38 1.238 . S
C35 O39 1.241 . S
C36 O29 1.247 . S
C36 O30 1.261 . S
C37 O32 1.259 . S
C37 O34 1.235 . S
O38 Co28 2.021 . S
O38 C35 1.238 . S
O39 Co33 2.052 . S
O39 C35 1.241 . S
O40 Co28 2.137 . S
O40 C31 1.247 . S
O41 Co28 2.244 . S
O41 C31 1.272 . S
O41 Co33 2.135 . S
Co42 O43 2.216 . S
Co42 O44 2.091 1_565 S
Co42 O46 2.004 . S
Co42 O52 2.021 1_566 S
Co42 O54 2.137 . S
Co42 O55 2.244 1_556 S
O43 Co42 2.216 . S
O43 C50 1.247 1_565 S
O44 Co42 2.091 1_545 S
O44 C50 1.261 . S
C45 O54 1.247 . S
C45 O55 1.272 1_556 S
O46 Co42 2.004 . S
O46 C51 1.259 . S
Co47 O48 2.061 . S
Co47 O53 2.052 . S
Co47 O55 2.135 . S
O48 Co47 2.061 . S
O48 C51 1.235 1_554 S
C49 O52 1.238 1_565 S
C49 O53 1.241 . S
C50 O43 1.247 1_545 S
C50 O44 1.261 . S
C51 O46 1.259 . S
C51 O48 1.235 1_556 S
O52 Co42 2.021 1_544 S
O52 C49 1.238 1_545 S
O53 Co47 2.052 . S
O53 C49 1.241 . S
O54 Co42 2.137 . S
O54 C45 1.247 . S
O55 Co42 2.244 1_554 S
O55 C45 1.272 1_554 S
O55 Co47 2.135 . S
Co56 O57 2.216 . S
Co56 O58 2.091 . S
Co56 O60 2.004 . S
Co56 O66 2.021 . S
Co56 O68 2.137 . S
Co56 O69 2.244 . S
O57 Co56 2.216 . S
O57 C64 1.247 . S
O58 Co56 2.091 . S
O58 C64 1.261 . S
C59 O68 1.247 . S
C59 O69 1.272 . S
O60 Co56 2.004 . S
O60 C65 1.259 . S
Co61 O62 2.061 . S
Co61 O67 2.052 . S
Co61 O69 2.135 . S
O62 Co61 2.061 . S
O62 C65 1.235 . S
C63 O66 1.238 . S
C63 O67 1.241 . S
C64 O57 1.247 . S
C64 O58 1.261 . S
C65 O60 1.259 . S
C65 O62 1.235 . S
O66 Co56 2.021 . S
O66 C63 1.238 . S
O67 Co61 2.052 . S
O67 C63 1.241 . S
O68 Co56 2.137 . S
O68 C59 1.247 . S
O69 Co56 2.244 . S
O69 C59 1.272 . S
O69 Co61 2.135 . S
Co70 O71 2.216 . S
Co70 O72 2.091 1_545 S
Co70 O74 2.004 . S
Co70 O80 2.021 1_545 S
Co70 O82 2.137 . S
Co70 O83 2.244 . S
O71 Co70 2.216 . S
O71 C78 1.247 1_545 S
O72 Co70 2.091 1_565 S
O72 C78 1.261 . S
C73 O82 1.247 . S
C73 O83 1.272 . S
O74 Co70 2.004 . S
O74 C79 1.259 . S
Co75 O76 2.061 . S
Co75 O81 2.052 . S
Co75 O83 2.135 . S
O76 Co75 2.061 . S
O76 C79 1.235 . S
C77 O80 1.238 1_545 S
C77 O81 1.241 . S
C78 O71 1.247 1_565 S
C78 O72 1.261 . S
C79 O74 1.259 . S
C79 O76 1.235 . S
O80 Co70 2.021 1_565 S
O80 C77 1.238 1_565 S
O81 Co75 2.052 . S
O81 C77 1.241 . S
O82 Co70 2.137 . S
O82 C73 1.247 . S
O83 Co70 2.244 . S
O83 C73 1.272 . S
O83 Co75 2.135 . S
Co84 O85 2.216 . S
Co84 O86 2.091 . S
Co84 O88 2.004 . S
Co84 O94 2.021 . S
Co84 O96 2.137 . S
Co84 O97 2.244 . S
O85 Co84 2.216 . S
O85 C92 1.247 . S
O86 Co84 2.091 . S
O86 C92 1.261 . S
C87 O96 1.247 . S
C87 O97 1.272 . S
O88 Co84 2.004 . S
O88 C93 1.259 . S
Co89 O90 2.061 . S
Co89 O95 2.052 . S
Co89 O97 2.135 . S
O90 Co89 2.061 . S
O90 C93 1.235 . S
C91 O94 1.238 . S
C91 O95 1.241 . S
C92 O85 1.247 . S
C92 O86 1.261 . S
C93 O88 1.259 . S
C93 O90 1.235 . S
O94 Co84 2.021 . S
O94 C91 1.238 . S
O95 Co89 2.052 . S
O95 C91 1.241 . S
O96 Co84 2.137 . S
O96 C87 1.247 . S
O97 Co84 2.244 . S
O97 C87 1.272 . S
O97 Co89 2.135 . S
Co98 O99 2.216 1_655 S
Co98 O100 2.091 1_565 S
Co98 O102 2.004 . S
Co98 O108 2.021 1_564 S
Co98 O110 2.137 . S
Co98 O111 2.244 1_554 S
O99 Co98 2.216 1_455 S
O99 C106 1.247 1_565 S
O100 Co98 2.091 1_545 S
O100 C106 1.261 1_655 S
C101 O110 1.247 . S
C101 O111 1.272 1_554 S
O102 Co98 2.004 . S
O102 C107 1.259 . S
Co103 O104 2.061 . S
Co103 O109 2.052 . S
Co103 O111 2.135 . S
O104 Co103 2.061 . S
O104 C107 1.235 1_556 S
C105 O108 1.238 1_565 S
C105 O109 1.241 . S
C106 O99 1.247 1_545 S
C106 O100 1.261 1_455 S
C107 O102 1.259 . S
C107 O104 1.235 1_554 S
O108 Co98 2.021 1_546 S
O108 C105 1.238 1_545 S
O109 Co103 2.052 . S
O109 C105 1.241 . S
O110 Co98 2.137 . S
O110 C101 1.247 . S
O111 Co98 2.244 1_556 S
O111 C101 1.272 1_556 S
O111 Co103 2.135 . S
Co112 O113 2.216 . S
Co112 O114 2.091 . S
Co112 O116 2.004 . S
Co112 O122 2.021 . S
Co112 O124 2.137 . S
Co112 O125 2.244 . S
O113 Co112 2.216 . S
O113 C120 1.247 . S
O114 Co112 2.091 . S
O114 C120 1.261 . S
C115 O124 1.247 . S
C115 O125 1.272 . S
O116 Co112 2.004 . S
O116 C121 1.259 . S
Co117 O118 2.061 . S
Co117 O123 2.052 . S
Co117 O125 2.135 . S
O118 Co117 2.061 . S
O118 C121 1.235 . S
C119 O122 1.238 . S
C119 O123 1.241 . S
C120 O113 1.247 . S
C120 O114 1.261 . S
C121 O116 1.259 . S
C121 O118 1.235 . S
O122 Co112 2.021 . S
O122 C119 1.238 . S
O123 Co117 2.052 . S
O123 C119 1.241 . S
O124 Co112 2.137 . S
O124 C115 1.247 . S
O125 Co112 2.244 . S
O125 C115 1.272 . S
O125 Co117 2.135 . S
Co126 O127 2.216 1_455 S
Co126 O128 2.091 . S
Co126 O130 2.004 . S
Co126 O136 2.021 1_554 S
Co126 O138 2.137 . S
Co126 O139 2.244 1_554 S
O127 Co126 2.216 1_655 S
O127 C134 1.247 . S
O128 Co126 2.091 . S
O128 C134 1.261 1_455 S
C129 O138 1.247 . S
C129 O139 1.272 1_554 S
O130 Co126 2.004 . S
O130 C135 1.259 . S
Co131 O132 2.061 . S
Co131 O137 2.052 . S
Co131 O139 2.135 . S
O132 Co131 2.061 . S
O132 C135 1.235 1_556 S
C133 O136 1.238 . S
C133 O137 1.241 . S
C134 O127 1.247 . S
C134 O128 1.261 1_655 S
C135 O130 1.259 . S
C135 O132 1.235 1_554 S
O136 Co126 2.021 1_556 S
O136 C133 1.238 . S
O137 Co131 2.052 . S
O137 C133 1.241 . S
O138 Co126 2.137 . S
O138 C129 1.247 . S
O139 Co126 2.244 1_556 S
O139 C129 1.272 1_556 S
O139 Co131 2.135 . S
Co140 O141 2.216 . S
Co140 O142 2.091 . S
Co140 O144 2.004 . S
Co140 O150 2.021 . S
Co140 O152 2.137 . S
Co140 O153 2.244 . S
O141 Co140 2.216 . S
O141 C148 1.247 . S
O142 Co140 2.091 . S
O142 C148 1.261 . S
C143 O152 1.247 . S
C143 O153 1.272 . S
O144 Co140 2.004 . S
O144 C149 1.259 . S
Co145 O146 2.061 . S
Co145 O151 2.052 . S
Co145 O153 2.135 . S
O146 Co145 2.061 . S
O146 C149 1.235 . S
C147 O150 1.238 . S
C147 O151 1.241 . S
C148 O141 1.247 . S
C148 O142 1.261 . S
C149 O144 1.259 . S
C149 O146 1.235 . S
O150 Co140 2.021 . S
O150 C147 1.238 . S
O151 Co145 2.052 . S
O151 C147 1.241 . S
O152 Co140 2.137 . S
O152 C143 1.247 . S
O153 Co140 2.244 . S
O153 C143 1.272 . S
O153 Co145 2.135 . S
Co154 O155 2.216 1_455 S
Co154 O156 2.091 . S
Co154 O158 2.004 . S
Co154 O164 2.021 . S
Co154 O166 2.137 . S
Co154 O167 2.244 . S
O155 Co154 2.216 1_655 S
O155 C162 1.247 . S
O156 Co154 2.091 . S
O156 C162 1.261 1_455 S
C157 O166 1.247 . S
C157 O167 1.272 . S
O158 Co154 2.004 . S
O158 C163 1.259 . S
Co159 O160 2.061 . S
Co159 O165 2.052 . S
Co159 O167 2.135 . S
O160 Co159 2.061 . S
O160 C163 1.235 . S
C161 O164 1.238 . S
C161 O165 1.241 . S
C162 O155 1.247 . S
C162 O156 1.261 1_655 S
C163 O158 1.259 . S
C163 O160 1.235 . S
O164 Co154 2.021 . S
O164 C161 1.238 . S
O165 Co159 2.052 . S
O165 C161 1.241 . S
O166 Co154 2.137 . S
O166 C157 1.247 . S
O167 Co154 2.244 . S
O167 C157 1.272 . S
O167 Co159 2.135 . S
Co168 O169 2.216 . S
Co168 O170 2.091 . S
Co168 O172 2.004 . S
Co168 O178 2.021 1_556 S
Co168 O180 2.137 . S
Co168 O181 2.244 1_556 S
O169 Co168 2.216 . S
O169 C176 1.247 . S
O170 Co168 2.091 . S
O170 C176 1.261 . S
C171 O180 1.247 . S
C171 O181 1.272 1_556 S
O172 Co168 2.004 . S
O172 C177 1.259 . S
Co173 O174 2.061 . S
Co173 O179 2.052 . S
Co173 O181 2.135 . S
O174 Co173 2.061 . S
O174 C177 1.235 1_554 S
C175 O178 1.238 . S
C175 O179 1.241 . S
C176 O169 1.247 . S
C176 O170 1.261 . S
C177 O172 1.259 . S
C177 O174 1.235 1_556 S
O178 Co168 2.021 1_554 S
O178 C175 1.238 . S
O179 Co173 2.052 . S
O179 C175 1.241 . S
O180 Co168 2.137 . S
O180 C171 1.247 . S
O181 Co168 2.244 1_554 S
O181 C171 1.272 1_554 S
O181 Co173 2.135 . S
Co182 O183 2.216 . S
Co182 O184 2.091 . S
Co182 O186 2.004 . S
Co182 O192 2.021 . S
Co182 O194 2.137 . S
Co182 O195 2.244 . S
O183 Co182 2.216 . S
O183 C190 1.247 . S
O184 Co182 2.091 . S
O184 C190 1.261 . S
C185 O194 1.247 . S
C185 O195 1.272 . S
O186 Co182 2.004 . S
O186 C191 1.259 . S
Co187 O188 2.061 . S
Co187 O193 2.052 . S
Co187 O195 2.135 . S
O188 Co187 2.061 . S
O188 C191 1.235 . S
C189 O192 1.238 . S
C189 O193 1.241 . S
C190 O183 1.247 . S
C190 O184 1.261 . S
C191 O186 1.259 . S
C191 O188 1.235 . S
O192 Co182 2.021 . S
O192 C189 1.238 . S
O193 Co187 2.052 . S
O193 C189 1.241 . S
O194 Co182 2.137 . S
O194 C185 1.247 . S
O195 Co182 2.244 . S
O195 C185 1.272 . S
O195 Co187 2.135 . S
Co196 O197 2.216 . S
Co196 O198 2.091 . S
Co196 O200 2.004 . S
Co196 O206 2.021 . S
Co196 O208 2.137 . S
Co196 O209 2.244 . S
O197 Co196 2.216 . S
O197 C204 1.247 . S
O198 Co196 2.091 . S
O198 C204 1.261 . S
C199 O208 1.247 . S
C199 O209 1.272 . S
O200 Co196 2.004 . S
O200 C205 1.259 . S
Co201 O202 2.061 . S
Co201 O207 2.052 . S
Co201 O209 2.135 . S
O202 Co201 2.061 . S
O202 C205 1.235 . S
C203 O206 1.238 . S
C203 O207 1.241 . S
C204 O197 1.247 . S
C204 O198 1.261 . S
C205 O200 1.259 . S
C205 O202 1.235 . S
O206 Co196 2.021 . S
O206 C203 1.238 . S
O207 Co201 2.052 . S
O207 C203 1.241 . S
O208 Co196 2.137 . S
O208 C199 1.247 . S
O209 Co196 2.244 . S
O209 C199 1.272 . S
O209 Co201 2.135 . S
Co210 O211 2.216 . S
Co210 O212 2.091 . S
Co210 O214 2.004 . S
Co210 O220 2.021 . S
Co210 O222 2.137 . S
Co210 O223 2.244 . S
O211 Co210 2.216 . S
O211 C218 1.247 . S
O212 Co210 2.091 . S
O212 C218 1.261 . S
C213 O222 1.247 . S
C213 O223 1.272 . S
O214 Co210 2.004 . S
O214 C219 1.259 . S
Co215 O216 2.061 . S
Co215 O221 2.052 . S
Co215 O223 2.135 . S
O216 Co215 2.061 . S
O216 C219 1.235 . S
C217 O220 1.238 . S
C217 O221 1.241 . S
C218 O211 1.247 . S
C218 O212 1.261 . S
C219 O214 1.259 . S
C219 O216 1.235 . S
O220 Co210 2.021 . S
O220 C217 1.238 . S
O221 Co215 2.052 . S
O221 C217 1.241 . S
O222 Co210 2.137 . S
O222 C213 1.247 . S
O223 Co210 2.244 . S
O223 C213 1.272 . S
O223 Co215 2.135 . S
H224 C232 0.950 . S
H225 C237 0.950 . S
H226 C234 0.950 . S
H227 C236 0.950 . S
H228 C238 0.950 1_565 S
H229 C240 0.950 . S
H230 C242 0.950 . S
H231 C243 0.950 . S
C232 H224 0.950 . S
C232 C233 1.386 . S
C232 C234 1.391 . S
C233 C232 1.386 . S
C233 C237 1.393 . S
C234 H226 0.950 . S
C234 C232 1.391 . S
C234 C235 1.400 . S
C235 C234 1.400 . S
C235 C236 1.398 . S
C235 C241 1.491 . S
C236 H227 0.950 . S
C236 C235 1.398 . S
C236 C237 1.391 . S
C237 H225 0.950 . S
C237 C233 1.393 . S
C237 C236 1.391 . S
C238 H228 0.950 1_545 S
C238 C239 1.386 . S
C238 C240 1.391 . S
C239 C238 1.386 . S
C239 C243 1.393 . S
C240 H229 0.950 . S
C240 C238 1.391 . S
C240 C241 1.400 . S
C241 C235 1.491 . S
C241 C240 1.400 . S
C241 C242 1.398 . S
C242 H230 0.950 . S
C242 C241 1.398 . S
C242 C243 1.391 . S
C243 H231 0.950 . S
C243 C239 1.393 . S
C243 C242 1.391 . S
H244 C252 0.950 . S
H245 C257 0.950 . S
H246 C254 0.950 . S
H247 C256 0.950 . S
H248 C258 0.950 . S
H249 C260 0.950 . S
H250 C262 0.950 . S
H251 C263 0.950 . S
C252 H244 0.950 . S
C252 C253 1.386 . S
C252 C254 1.391 . S
C253 C252 1.386 . S
C253 C257 1.393 . S
C254 H246 0.950 . S
C254 C252 1.391 . S
C254 C255 1.400 . S
C255 C254 1.400 . S
C255 C256 1.398 . S
C255 C261 1.491 . S
C256 H247 0.950 . S
C256 C255 1.398 . S
C256 C257 1.391 . S
C257 H245 0.950 . S
C257 C253 1.393 . S
C257 C256 1.391 . S
C258 H248 0.950 . S
C258 C259 1.386 . S
C258 C260 1.391 . S
C259 C258 1.386 . S
C259 C263 1.393 . S
C260 H249 0.950 . S
C260 C258 1.391 . S
C260 C261 1.400 . S
C261 C255 1.491 . S
C261 C260 1.400 . S
C261 C262 1.398 . S
C262 H250 0.950 . S
C262 C261 1.398 . S
C262 C263 1.391 . S
C263 H251 0.950 . S
C263 C259 1.393 . S
C263 C262 1.391 . S
H264 C272 0.950 . S
H265 C277 0.950 . S
H266 C274 0.950 . S
H267 C276 0.950 . S
H268 C278 0.950 . S
H269 C280 0.950 . S
H270 C282 0.950 . S
H271 C283 0.950 . S
C272 H264 0.950 . S
C272 C273 1.386 . S
C272 C274 1.391 . S
C273 C272 1.386 . S
C273 C277 1.393 . S
C274 H266 0.950 . S
C274 C272 1.391 . S
C274 C275 1.400 . S
C275 C274 1.400 . S
C275 C276 1.398 . S
C275 C281 1.491 . S
C276 H267 0.950 . S
C276 C275 1.398 . S
C276 C277 1.391 . S
C277 H265 0.950 . S
C277 C273 1.393 . S
C277 C276 1.391 . S
C278 H268 0.950 . S
C278 C279 1.386 . S
C278 C280 1.391 . S
C279 C278 1.386 . S
C279 C283 1.393 . S
C280 H269 0.950 . S
C280 C278 1.391 . S
C280 C281 1.400 . S
C281 C275 1.491 . S
C281 C280 1.400 . S
C281 C282 1.398 . S
C282 H270 0.950 . S
C282 C281 1.398 . S
C282 C283 1.391 . S
C283 H271 0.950 . S
C283 C279 1.393 . S
C283 C282 1.391 . S
H284 C292 0.950 . S
H285 C297 0.950 . S
H286 C294 0.950 . S
H287 C296 0.950 . S
H288 C298 0.950 . S
H289 C300 0.950 . S
H290 C302 0.950 . S
H291 C303 0.950 . S
C292 H284 0.950 . S
C292 C293 1.386 . S
C292 C294 1.391 . S
C293 C292 1.386 . S
C293 C297 1.393 . S
C294 H286 0.950 . S
C294 C292 1.391 . S
C294 C295 1.400 . S
C295 C294 1.400 . S
C295 C296 1.398 . S
C295 C301 1.491 . S
C296 H287 0.950 . S
C296 C295 1.398 . S
C296 C297 1.391 . S
C297 H285 0.950 . S
C297 C293 1.393 . S
C297 C296 1.391 . S
C298 H288 0.950 . S
C298 C299 1.386 . S
C298 C300 1.391 . S
C299 C298 1.386 . S
C299 C303 1.393 . S
C300 H289 0.950 . S
C300 C298 1.391 . S
C300 C301 1.400 . S
C301 C295 1.491 . S
C301 C300 1.400 . S
C301 C302 1.398 . S
C302 H290 0.950 . S
C302 C301 1.398 . S
C302 C303 1.391 . S
C303 H291 0.950 . S
C303 C299 1.393 . S
C303 C302 1.391 . S
H304 C312 0.950 . S
H305 C317 0.950 . S
H306 C314 0.950 . S
H307 C316 0.950 . S
H308 C318 0.950 . S
H309 C320 0.950 . S
H310 C322 0.950 . S
H311 C323 0.950 . S
C312 H304 0.950 . S
C312 C313 1.386 . S
C312 C314 1.391 . S
C313 C312 1.386 . S
C313 C317 1.393 . S
C314 H306 0.950 . S
C314 C312 1.391 . S
C314 C315 1.400 . S
C315 C314 1.400 . S
C315 C316 1.398 . S
C315 C321 1.491 . S
C316 H307 0.950 . S
C316 C315 1.398 . S
C316 C317 1.391 . S
C317 H305 0.950 . S
C317 C313 1.393 . S
C317 C316 1.391 . S
C318 H308 0.950 . S
C318 C319 1.386 . S
C318 C320 1.391 . S
C319 C318 1.386 . S
C319 C323 1.393 . S
C320 H309 0.950 . S
C320 C318 1.391 . S
C320 C321 1.400 . S
C321 C315 1.491 . S
C321 C320 1.400 . S
C321 C322 1.398 . S
C322 H310 0.950 . S
C322 C321 1.398 . S
C322 C323 1.391 . S
C323 H311 0.950 . S
C323 C319 1.393 . S
C323 C322 1.391 . S
H324 C332 0.950 . S
H325 C337 0.950 . S
H326 C334 0.950 . S
H327 C336 0.950 . S
H328 C338 0.950 . S
H329 C340 0.950 . S
H330 C342 0.950 . S
H331 C343 0.950 . S
C332 H324 0.950 . S
C332 C333 1.386 . S
C332 C334 1.391 . S
C333 C332 1.386 . S
C333 C337 1.393 . S
C334 H326 0.950 . S
C334 C332 1.391 . S
C334 C335 1.400 . S
C335 C334 1.400 . S
C335 C336 1.398 . S
C335 C341 1.491 . S
C336 H327 0.950 . S
C336 C335 1.398 . S
C336 C337 1.391 . S
C337 H325 0.950 . S
C337 C333 1.393 . S
C337 C336 1.391 . S
C338 H328 0.950 . S
C338 C339 1.386 . S
C338 C340 1.391 . S
C339 C338 1.386 . S
C339 C343 1.393 . S
C340 H329 0.950 . S
C340 C338 1.391 . S
C340 C341 1.400 . S
C341 C335 1.491 . S
C341 C340 1.400 . S
C341 C342 1.398 . S
C342 H330 0.950 . S
C342 C341 1.398 . S
C342 C343 1.391 . S
C343 H331 0.950 . S
C343 C339 1.393 . S
C343 C342 1.391 . S
H344 C352 0.950 . S
H345 C357 0.950 . S
H346 C354 0.950 . S
H347 C356 0.950 . S
H348 C358 0.950 . S
H349 C360 0.950 . S
H350 C362 0.950 . S
H351 C363 0.950 . S
C352 H344 0.950 . S
C352 C353 1.386 . S
C352 C354 1.391 . S
C353 C352 1.386 . S
C353 C357 1.393 . S
C354 H346 0.950 . S
C354 C352 1.391 . S
C354 C355 1.400 . S
C355 C354 1.400 . S
C355 C356 1.398 . S
C355 C361 1.491 . S
C356 H347 0.950 . S
C356 C355 1.398 . S
C356 C357 1.391 . S
C357 H345 0.950 . S
C357 C353 1.393 . S
C357 C356 1.391 . S
C358 H348 0.950 . S
C358 C359 1.386 . S
C358 C360 1.391 . S
C359 C358 1.386 . S
C359 C363 1.393 . S
C360 H349 0.950 . S
C360 C358 1.391 . S
C360 C361 1.400 . S
C361 C355 1.491 . S
C361 C360 1.400 . S
C361 C362 1.398 . S
C362 H350 0.950 . S
C362 C361 1.398 . S
C362 C363 1.391 . S
C363 H351 0.950 . S
C363 C359 1.393 . S
C363 C362 1.391 . S
H364 C372 0.950 . S
H365 C377 0.950 . S
H366 C374 0.950 . S
H367 C376 0.950 . S
H368 C378 0.950 . S
H369 C380 0.950 . S
H370 C382 0.950 . S
H371 C383 0.950 . S
C372 H364 0.950 . S
C372 C373 1.386 . S
C372 C374 1.391 . S
C373 C372 1.386 . S
C373 C377 1.393 . S
C374 H366 0.950 . S
C374 C372 1.391 . S
C374 C375 1.400 . S
C375 C374 1.400 . S
C375 C376 1.398 . S
C375 C381 1.491 . S
C376 H367 0.950 . S
C376 C375 1.398 . S
C376 C377 1.391 . S
C377 H365 0.950 . S
C377 C373 1.393 . S
C377 C376 1.391 . S
C378 H368 0.950 . S
C378 C379 1.386 . S
C378 C380 1.391 . S
C379 C378 1.386 . S
C379 C383 1.393 . S
C380 H369 0.950 . S
C380 C378 1.391 . S
C380 C381 1.400 . S
C381 C375 1.491 . S
C381 C380 1.400 . S
C381 C382 1.398 . S
C382 H370 0.950 . S
C382 C381 1.398 . S
C382 C383 1.391 . S
C383 H371 0.950 . S
C383 C379 1.393 . S
C383 C382 1.391 . S
H384 C392 0.950 . S
H385 C397 0.950 . S
H386 C394 0.950 . S
H387 C396 0.950 . S
H388 C398 0.950 . S
H389 C400 0.950 . S
H390 C402 0.950 . S
H391 C403 0.950 . S
C392 H384 0.950 . S
C392 C393 1.386 . S
C392 C394 1.391 . S
C393 C392 1.386 . S
C393 C397 1.393 . S
C394 H386 0.950 . S
C394 C392 1.391 . S
C394 C395 1.400 . S
C395 C394 1.400 . S
C395 C396 1.398 . S
C395 C401 1.491 . S
C396 H387 0.950 . S
C396 C395 1.398 . S
C396 C397 1.391 . S
C397 H385 0.950 . S
C397 C393 1.393 . S
C397 C396 1.391 . S
C398 H388 0.950 . S
C398 C399 1.386 . S
C398 C400 1.391 . S
C399 C398 1.386 . S
C399 C403 1.393 . S
C400 H389 0.950 . S
C400 C398 1.391 . S
C400 C401 1.400 . S
C401 C395 1.491 . S
C401 C400 1.400 . S
C401 C402 1.398 . S
C402 H390 0.950 . S
C402 C401 1.398 . S
C402 C403 1.391 . S
C403 H391 0.950 . S
C403 C399 1.393 . S
C403 C402 1.391 . S
H404 C412 0.950 . S
H405 C417 0.950 1_455 S
H406 C414 0.950 . S
H407 C416 0.950 1_455 S
H408 C418 0.950 1_455 S
H409 C420 0.950 1_455 S
H410 C422 0.950 . S
H411 C423 0.950 . S
C412 H404 0.950 . S
C412 C413 1.386 1_565 S
C412 C414 1.391 . S
C413 C412 1.386 1_545 S
C413 C417 1.393 . S
C414 H406 0.950 . S
C414 C412 1.391 . S
C414 C415 1.400 1_565 S
C415 C414 1.400 1_545 S
C415 C416 1.398 . S
C415 C421 1.491 1_545 S
C416 H407 0.950 1_655 S
C416 C415 1.398 . S
C416 C417 1.391 . S
C417 H405 0.950 1_655 S
C417 C413 1.393 . S
C417 C416 1.391 . S
C418 H408 0.950 1_655 S
C418 C419 1.386 1_545 S
C418 C420 1.391 . S
C419 C418 1.386 1_565 S
C419 C423 1.393 . S
C420 H409 0.950 1_655 S
C420 C418 1.391 . S
C420 C421 1.400 1_545 S
C421 C415 1.491 1_565 S
C421 C420 1.400 1_565 S
C421 C422 1.398 . S
C422 H410 0.950 . S
C422 C421 1.398 . S
C422 C423 1.391 . S
C423 H411 0.950 . S
C423 C419 1.393 . S
C423 C422 1.391 . S
H424 C432 0.950 . S
H425 C437 0.950 . S
H426 C434 0.950 . S
H427 C436 0.950 . S
H428 C438 0.950 . S
H429 C440 0.950 . S
H430 C442 0.950 . S
H431 C443 0.950 . S
C432 H424 0.950 . S
C432 C433 1.386 . S
C432 C434 1.391 . S
C433 C432 1.386 . S
C433 C437 1.393 . S
C434 H426 0.950 . S
C434 C432 1.391 . S
C434 C435 1.400 . S
C435 C434 1.400 . S
C435 C436 1.398 . S
C435 C441 1.491 1_556 S
C436 H427 0.950 . S
C436 C435 1.398 . S
C436 C437 1.391 . S
C437 H425 0.950 . S
C437 C433 1.393 . S
C437 C436 1.391 . S
C438 H428 0.950 . S
C438 C439 1.386 . S
C438 C440 1.391 . S
C439 C438 1.386 . S
C439 C443 1.393 . S
C440 H429 0.950 . S
C440 C438 1.391 . S
C440 C441 1.400 . S
C441 C435 1.491 1_554 S
C441 C440 1.400 . S
C441 C442 1.398 . S
C442 H430 0.950 . S
C442 C441 1.398 . S
C442 C443 1.391 . S
C443 H431 0.950 . S
C443 C439 1.393 . S
C443 C442 1.391 . S
H444 C452 0.950 . S
H445 C457 0.950 . S
H446 C454 0.950 . S
H447 C456 0.950 . S
H448 C458 0.950 . S
H449 C460 0.950 . S
H450 C462 0.950 . S
H451 C463 0.950 . S
C452 H444 0.950 . S
C452 C453 1.386 . S
C452 C454 1.391 . S
C453 C452 1.386 . S
C453 C457 1.393 1_565 S
C454 H446 0.950 . S
C454 C452 1.391 . S
C454 C455 1.400 . S
C455 C454 1.400 . S
C455 C456 1.398 1_565 S
C455 C461 1.491 1_565 S
C456 H447 0.950 . S
C456 C455 1.398 1_545 S
C456 C457 1.391 . S
C457 H445 0.950 . S
C457 C453 1.393 1_545 S
C457 C456 1.391 . S
C458 H448 0.950 . S
C458 C459 1.386 . S
C458 C460 1.391 . S
C459 C458 1.386 . S
C459 C463 1.393 1_545 S
C460 H449 0.950 . S
C460 C458 1.391 . S
C460 C461 1.400 . S
C461 C455 1.491 1_545 S
C461 C460 1.400 . S
C461 C462 1.398 1_545 S
C462 H450 0.950 . S
C462 C461 1.398 1_565 S
C462 C463 1.391 . S
C463 H451 0.950 . S
C463 C459 1.393 1_565 S
C463 C462 1.391 . S
H464 C472 0.950 . S
H465 C477 0.950 . S
H466 C474 0.950 . S
H467 C476 0.950 . S
H468 C478 0.950 . S
H469 C480 0.950 . S
H470 C482 0.950 . S
H471 C483 0.950 . S
C472 H464 0.950 . S
C472 C473 1.386 . S
C472 C474 1.391 . S
C473 C472 1.386 . S
C473 C477 1.393 . S
C474 H466 0.950 . S
C474 C472 1.391 . S
C474 C475 1.400 . S
C475 C474 1.400 . S
C475 C476 1.398 . S
C475 C481 1.491 . S
C476 H467 0.950 . S
C476 C475 1.398 . S
C476 C477 1.391 . S
C477 H465 0.950 . S
C477 C473 1.393 . S
C477 C476 1.391 . S
C478 H468 0.950 . S
C478 C479 1.386 . S
C478 C480 1.391 . S
C479 C478 1.386 . S
C479 C483 1.393 . S
C480 H469 0.950 . S
C480 C478 1.391 . S
C480 C481 1.400 . S
C481 C475 1.491 . S
C481 C480 1.400 . S
C481 C482 1.398 . S
C482 H470 0.950 . S
C482 C481 1.398 . S
C482 C483 1.391 . S
C483 H471 0.950 . S
C483 C479 1.393 . S
C483 C482 1.391 . S
H484 C492 0.950 . S
H485 C497 0.950 . S
H486 C494 0.950 . S
H487 C496 0.950 . S
H488 C498 0.950 . S
H489 C500 0.950 . S
H490 C502 0.950 . S
H491 C503 0.950 . S
C492 H484 0.950 . S
C492 C493 1.386 . S
C492 C494 1.391 . S
C493 C492 1.386 . S
C493 C497 1.393 . S
C494 H486 0.950 . S
C494 C492 1.391 . S
C494 C495 1.400 . S
C495 C494 1.400 . S
C495 C496 1.398 . S
C495 C501 1.491 1_455 S
C496 H487 0.950 . S
C496 C495 1.398 . S
C496 C497 1.391 . S
C497 H485 0.950 . S
C497 C493 1.393 . S
C497 C496 1.391 . S
C498 H488 0.950 . S
C498 C499 1.386 . S
C498 C500 1.391 . S
C499 C498 1.386 . S
C499 C503 1.393 . S
C500 H489 0.950 . S
C500 C498 1.391 . S
C500 C501 1.400 . S
C501 C495 1.491 1_655 S
C501 C500 1.400 . S
C501 C502 1.398 . S
C502 H490 0.950 . S
C502 C501 1.398 . S
C502 C503 1.391 . S
C503 H491 0.950 . S
C503 C499 1.393 . S
C503 C502 1.391 . S
H504 C512 0.950 . S
H505 C517 0.950 . S
H506 C514 0.950 . S
H507 C516 0.950 . S
H508 C518 0.950 . S
H509 C520 0.950 . S
H510 C522 0.950 . S
H511 C523 0.950 . S
C512 H504 0.950 . S
C512 C513 1.386 . S
C512 C514 1.391 . S
C513 C512 1.386 . S
C513 C517 1.393 . S
C514 H506 0.950 . S
C514 C512 1.391 . S
C514 C515 1.400 . S
C515 C514 1.400 . S
C515 C516 1.398 . S
C515 C521 1.491 1_655 S
C516 H507 0.950 . S
C516 C515 1.398 . S
C516 C517 1.391 . S
C517 H505 0.950 . S
C517 C513 1.393 . S
C517 C516 1.391 . S
C518 H508 0.950 . S
C518 C519 1.386 . S
C518 C520 1.391 . S
C519 C518 1.386 . S
C519 C523 1.393 . S
C520 H509 0.950 . S
C520 C518 1.391 . S
C520 C521 1.400 . S
C521 C515 1.491 1_455 S
C521 C520 1.400 . S
C521 C522 1.398 . S
C522 H510 0.950 . S
C522 C521 1.398 . S
C522 C523 1.391 . S
C523 H511 0.950 . S
C523 C519 1.393 . S
C523 C522 1.391 . S
H524 C532 0.950 . S
H525 C537 0.950 . S
H526 C534 0.950 . S
H527 C536 0.950 . S
H528 C538 0.950 . S
H529 C540 0.950 . S
H530 C542 0.950 . S
H531 C543 0.950 . S
C532 H524 0.950 . S
C532 C533 1.386 . S
C532 C534 1.391 . S
C533 C532 1.386 . S
C533 C537 1.393 . S
C534 H526 0.950 . S
C534 C532 1.391 . S
C534 C535 1.400 . S
C535 C534 1.400 . S
C535 C536 1.398 . S
C535 C541 1.491 . S
C536 H527 0.950 . S
C536 C535 1.398 . S
C536 C537 1.391 . S
C537 H525 0.950 . S
C537 C533 1.393 . S
C537 C536 1.391 . S
C538 H528 0.950 . S
C538 C539 1.386 . S
C538 C540 1.391 . S
C539 C538 1.386 . S
C539 C543 1.393 . S
C540 H529 0.950 . S
C540 C538 1.391 . S
C540 C541 1.400 . S
C541 C535 1.491 . S
C541 C540 1.400 . S
C541 C542 1.398 . S
C542 H530 0.950 . S
C542 C541 1.398 . S
C542 C543 1.391 . S
C543 H531 0.950 . S
C543 C539 1.393 . S
C543 C542 1.391 . S
H544 C552 0.950 . S
H545 C557 0.950 . S
H546 C554 0.950 . S
H547 C556 0.950 . S
H548 C558 0.950 . S
H549 C560 0.950 . S
H550 C562 0.950 . S
H551 C563 0.950 . S
C552 H544 0.950 . S
C552 C553 1.386 . S
C552 C554 1.391 . S
C553 C552 1.386 . S
C553 C557 1.393 . S
C554 H546 0.950 . S
C554 C552 1.391 . S
C554 C555 1.400 . S
C555 C554 1.400 . S
C555 C556 1.398 . S
C555 C561 1.491 . S
C556 H547 0.950 . S
C556 C555 1.398 . S
C556 C557 1.391 . S
C557 H545 0.950 . S
C557 C553 1.393 . S
C557 C556 1.391 . S
C558 H548 0.950 . S
C558 C559 1.386 . S
C558 C560 1.391 . S
C559 C558 1.386 . S
C559 C563 1.393 . S
C560 H549 0.950 . S
C560 C558 1.391 . S
C560 C561 1.400 . S
C561 C555 1.491 . S
C561 C560 1.400 . S
C561 C562 1.398 . S
C562 H550 0.950 . S
C562 C561 1.398 . S
C562 C563 1.391 . S
C563 H551 0.950 . S
C563 C559 1.393 . S
C563 C562 1.391 . S
H564 C572 0.950 . S
H565 C577 0.950 . S
H566 C574 0.950 . S
H567 C576 0.950 . S
H568 C578 0.950 . S
H569 C580 0.950 . S
H570 C582 0.950 . S
H571 C583 0.950 . S
C572 H564 0.950 . S
C572 C573 1.386 . S
C572 C574 1.391 . S
C573 C572 1.386 . S
C573 C577 1.393 . S
C574 H566 0.950 . S
C574 C572 1.391 . S
C574 C575 1.400 . S
C575 C574 1.400 . S
C575 C576 1.398 . S
C575 C581 1.491 . S
C576 H567 0.950 . S
C576 C575 1.398 . S
C576 C577 1.391 . S
C577 H565 0.950 . S
C577 C573 1.393 . S
C577 C576 1.391 . S
C578 H568 0.950 . S
C578 C579 1.386 . S
C578 C580 1.391 . S
C579 C578 1.386 . S
C579 C583 1.393 . S
C580 H569 0.950 . S
C580 C578 1.391 . S
C580 C581 1.400 . S
C581 C575 1.491 . S
C581 C580 1.400 . S
C581 C582 1.398 . S
C582 H570 0.950 . S
C582 C581 1.398 . S
C582 C583 1.391 . S
C583 H571 0.950 . S
C583 C579 1.393 . S
C583 C582 1.391 . S
H584 C592 0.950 . S
H585 C597 0.950 . S
H586 C594 0.950 . S
H587 C596 0.950 . S
H588 C598 0.950 . S
H589 C600 0.950 . S
H590 C602 0.950 . S
H591 C603 0.950 . S
C592 H584 0.950 . S
C592 C593 1.386 . S
C592 C594 1.391 . S
C593 C592 1.386 . S
C593 C597 1.393 . S
C594 H586 0.950 . S
C594 C592 1.391 . S
C594 C595 1.400 . S
C595 C594 1.400 . S
C595 C596 1.398 . S
C595 C601 1.491 1_455 S
C596 H587 0.950 . S
C596 C595 1.398 . S
C596 C597 1.391 . S
C597 H585 0.950 . S
C597 C593 1.393 . S
C597 C596 1.391 . S
C598 H588 0.950 . S
C598 C599 1.386 . S
C598 C600 1.391 . S
C599 C598 1.386 . S
C599 C603 1.393 . S
C600 H589 0.950 . S
C600 C598 1.391 . S
C600 C601 1.400 . S
C601 C595 1.491 1_655 S
C601 C600 1.400 . S
C601 C602 1.398 . S
C602 H590 0.950 . S
C602 C601 1.398 . S
C602 C603 1.391 . S
C603 H591 0.950 . S
C603 C599 1.393 . S
C603 C602 1.391 . S
H604 C612 0.947 1_455 S
H605 C617 0.950 . S
H606 C614 0.950 . S
H607 C616 0.950 . S
H608 C618 0.947 1_655 S
H609 C620 0.950 . S
H610 C622 0.950 . S
H611 C623 0.950 . S
C612 H604 0.947 1_655 S
C612 C613 1.386 . S
C612 C614 1.391 1_655 S
C613 C612 1.386 . S
C613 C617 1.393 1_554 S
C614 H606 0.950 . S
C614 C612 1.391 1_455 S
C614 C615 1.400 1_455 S
C615 C614 1.400 1_655 S
C615 C616 1.398 1_554 S
C615 C621 1.491 1_655 S
C616 H607 0.950 . S
C616 C615 1.398 1_556 S
C616 C617 1.391 . S
C617 H605 0.950 . S
C617 C613 1.393 1_556 S
C617 C616 1.391 . S
C618 H608 0.947 1_455 S
C618 C619 1.386 1_556 S
C618 C620 1.391 1_455 S
C619 C618 1.386 1_554 S
C619 C623 1.393 . S
C620 H609 0.950 . S
C620 C618 1.391 1_655 S
C620 C621 1.400 1_656 S
C621 C615 1.491 1_455 S
C621 C620 1.400 1_454 S
C621 C622 1.398 . S
C622 H610 0.950 . S
C622 C621 1.398 . S
C622 C623 1.391 . S
C623 H611 0.950 . S
C623 C619 1.393 . S
C623 C622 1.391 . S
H624 C632 0.950 . S
H625 C637 0.950 . S
H626 C634 0.950 . S
H627 C636 0.950 . S
H628 C638 0.950 . S
H629 C640 0.950 . S
H630 C642 0.950 . S
H631 C643 0.950 . S
C632 H624 0.950 . S
C632 C633 1.386 . S
C632 C634 1.391 . S
C633 C632 1.386 . S
C633 C637 1.393 . S
C634 H626 0.950 . S
C634 C632 1.391 . S
C634 C635 1.400 . S
C635 C634 1.400 . S
C635 C636 1.398 . S
C635 C641 1.491 . S
C636 H627 0.950 . S
C636 C635 1.398 . S
C636 C637 1.391 . S
C637 H625 0.950 . S
C637 C633 1.393 . S
C637 C636 1.391 . S
C638 H628 0.950 . S
C638 C639 1.386 . S
C638 C640 1.391 . S
C639 C638 1.386 . S
C639 C643 1.393 . S
C640 H629 0.950 . S
C640 C638 1.391 . S
C640 C641 1.400 . S
C641 C635 1.491 . S
C641 C640 1.400 . S
C641 C642 1.398 . S
C642 H630 0.950 . S
C642 C641 1.398 . S
C642 C643 1.391 . S
C643 H631 0.950 . S
C643 C639 1.393 . S
C643 C642 1.391 . S
H644 C652 0.950 . S
H645 C657 0.950 . S
H646 C654 0.950 . S
H647 C656 0.950 . S
H648 C658 0.950 . S
H649 C660 0.950 . S
H650 C662 0.950 . S
H651 C663 0.950 . S
C652 H644 0.950 . S
C652 C653 1.386 . S
C652 C654 1.391 . S
C653 C652 1.386 . S
C653 C657 1.393 . S
C654 H646 0.950 . S
C654 C652 1.391 . S
C654 C655 1.400 . S
C655 C654 1.400 . S
C655 C656 1.398 . S
C655 C661 1.491 1_545 S
C656 H647 0.950 . S
C656 C655 1.398 . S
C656 C657 1.391 . S
C657 H645 0.950 . S
C657 C653 1.393 . S
C657 C656 1.391 . S
C658 H648 0.950 . S
C658 C659 1.386 . S
C658 C660 1.391 . S
C659 C658 1.386 . S
C659 C663 1.393 . S
C660 H649 0.950 . S
C660 C658 1.391 . S
C660 C661 1.400 . S
C661 C655 1.491 1_565 S
C661 C660 1.400 . S
C661 C662 1.398 . S
C662 H650 0.950 . S
C662 C661 1.398 . S
C662 C663 1.391 . S
C663 H651 0.950 . S
C663 C659 1.393 . S
C663 C662 1.391 . S
H664 C672 0.950 . S
H665 C677 0.950 . S
H666 C674 0.950 . S
H667 C676 0.950 . S
H668 C678 0.950 . S
H669 C680 0.950 . S
H670 C682 0.950 . S
H671 C683 0.950 . S
C672 H664 0.950 . S
C672 C673 1.386 . S
C672 C674 1.391 . S
C673 C672 1.386 . S
C673 C677 1.393 1_556 S
C674 H666 0.950 . S
C674 C672 1.391 . S
C674 C675 1.400 . S
C675 C674 1.400 . S
C675 C676 1.398 1_556 S
C675 C681 1.491 1_556 S
C676 H667 0.950 . S
C676 C675 1.398 1_554 S
C676 C677 1.391 . S
C677 H665 0.950 . S
C677 C673 1.393 1_554 S
C677 C676 1.391 . S
C678 H668 0.950 . S
C678 C679 1.386 . S
C678 C680 1.391 . S
C679 C678 1.386 . S
C679 C683 1.393 1_554 S
C680 H669 0.950 . S
C680 C678 1.391 . S
C680 C681 1.400 . S
C681 C675 1.491 1_554 S
C681 C680 1.400 . S
C681 C682 1.398 1_554 S
C682 H670 0.950 . S
C682 C681 1.398 1_556 S
C682 C683 1.391 . S
C683 H671 0.950 . S
C683 C679 1.393 1_556 S
C683 C682 1.391 . S
H684 C692 0.950 . S
H685 C697 0.950 . S
H686 C694 0.950 . S
H687 C696 0.950 . S
H688 C698 0.950 . S
H689 C700 0.950 . S
H690 C702 0.950 . S
H691 C703 0.950 . S
C692 H684 0.950 . S
C692 C693 1.386 . S
C692 C694 1.391 . S
C693 C692 1.386 . S
C693 C697 1.393 . S
C694 H686 0.950 . S
C694 C692 1.391 . S
C694 C695 1.400 . S
C695 C694 1.400 . S
C695 C696 1.398 . S
C695 C701 1.491 1_545 S
C696 H687 0.950 . S
C696 C695 1.398 . S
C696 C697 1.391 . S
C697 H685 0.950 . S
C697 C693 1.393 . S
C697 C696 1.391 . S
C698 H688 0.950 . S
C698 C699 1.386 . S
C698 C700 1.391 . S
C699 C698 1.386 . S
C699 C703 1.393 . S
C700 H689 0.950 . S
C700 C698 1.391 . S
C700 C701 1.400 . S
C701 C695 1.491 1_565 S
C701 C700 1.400 . S
C701 C702 1.398 . S
C702 H690 0.950 . S
C702 C701 1.398 . S
C702 C703 1.391 . S
C703 H691 0.950 . S
C703 C699 1.393 . S
C703 C702 1.391 . S
H704 C712 0.950 1_545 S
H705 C717 0.950 . S
H706 C714 0.950 1_545 S
H707 C716 0.950 . S
H708 C718 0.950 . S
H709 C720 0.950 . S
H710 C722 0.950 1_545 S
H711 C723 0.950 1_545 S
C712 H704 0.950 1_565 S
C712 C713 1.386 . S
C712 C714 1.391 . S
C713 C712 1.386 . S
C713 C717 1.393 1_554 S
C714 H706 0.950 1_565 S
C714 C712 1.391 . S
C714 C715 1.400 . S
C715 C714 1.400 . S
C715 C716 1.398 1_554 S
C715 C721 1.491 1_554 S
C716 H707 0.950 . S
C716 C715 1.398 1_556 S
C716 C717 1.391 . S
C717 H705 0.950 . S
C717 C713 1.393 1_556 S
C717 C716 1.391 . S
C718 H708 0.950 . S
C718 C719 1.386 . S
C718 C720 1.391 . S
C719 C718 1.386 . S
C719 C723 1.393 1_556 S
C720 H709 0.950 . S
C720 C718 1.391 . S
C720 C721 1.400 . S
C721 C715 1.491 1_556 S
C721 C720 1.400 . S
C721 C722 1.398 1_556 S
C722 H710 0.950 1_565 S
C722 C721 1.398 1_554 S
C722 C723 1.391 . S
C723 H711 0.950 1_565 S
C723 C719 1.393 1_554 S
C723 C722 1.391 . S
H724 C732 0.950 . S
H725 C737 0.950 . S
H726 C734 0.950 . S
H727 C736 0.950 . S
H728 C738 0.950 . S
H729 C740 0.950 . S
H730 C742 0.950 . S
H731 C743 0.950 . S
C732 H724 0.950 . S
C732 C733 1.386 . S
C732 C734 1.391 . S
C733 C732 1.386 . S
C733 C737 1.393 . S
C734 H726 0.950 . S
C734 C732 1.391 . S
C734 C735 1.400 . S
C735 C734 1.400 . S
C735 C736 1.398 . S
C735 C741 1.491 . S
C736 H727 0.950 . S
C736 C735 1.398 . S
C736 C737 1.391 . S
C737 H725 0.950 . S
C737 C733 1.393 . S
C737 C736 1.391 . S
C738 H728 0.950 . S
C738 C739 1.386 . S
C738 C740 1.391 . S
C739 C738 1.386 . S
C739 C743 1.393 . S
C740 H729 0.950 . S
C740 C738 1.391 . S
C740 C741 1.400 . S
C741 C735 1.491 . S
C741 C740 1.400 . S
C741 C742 1.398 . S
C742 H730 0.950 . S
C742 C741 1.398 . S
C742 C743 1.391 . S
C743 H731 0.950 . S
C743 C739 1.393 . S
C743 C742 1.391 . S
H744 C752 0.950 . S
H745 C757 0.950 . S
H746 C754 0.950 . S
H747 C756 0.950 . S
H748 C758 0.950 . S
H749 C760 0.950 . S
H750 C762 0.950 . S
H751 C763 0.950 . S
C752 H744 0.950 . S
C752 C753 1.386 . S
C752 C754 1.391 . S
C753 C752 1.386 . S
C753 C757 1.393 . S
C754 H746 0.950 . S
C754 C752 1.391 . S
C754 C755 1.400 . S
C755 C754 1.400 . S
C755 C756 1.398 . S
C755 C761 1.491 . S
C756 H747 0.950 . S
C756 C755 1.398 . S
C756 C757 1.391 . S
C757 H745 0.950 . S
C757 C753 1.393 . S
C757 C756 1.391 . S
C758 H748 0.950 . S
C758 C759 1.386 . S
C758 C760 1.391 . S
C759 C758 1.386 . S
C759 C763 1.393 . S
C760 H749 0.950 . S
C760 C758 1.391 . S
C760 C761 1.400 . S
C761 C755 1.491 . S
C761 C760 1.400 . S
C761 C762 1.398 . S
C762 H750 0.950 . S
C762 C761 1.398 . S
C762 C763 1.391 . S
C763 H751 0.950 . S
C763 C759 1.393 . S
C763 C762 1.391 . S
H764 C772 0.950 . S
H765 C777 0.950 . S
H766 C774 0.950 . S
H767 C776 0.950 . S
H768 C778 0.950 . S
H769 C780 0.950 . S
H770 C782 0.950 . S
H771 C783 0.950 . S
C772 H764 0.950 . S
C772 C773 1.386 . S
C772 C774 1.391 . S
C773 C772 1.386 . S
C773 C777 1.393 . S
C774 H766 0.950 . S
C774 C772 1.391 . S
C774 C775 1.400 . S
C775 C774 1.400 . S
C775 C776 1.398 . S
C775 C781 1.491 1_556 S
C776 H767 0.950 . S
C776 C775 1.398 . S
C776 C777 1.391 . S
C777 H765 0.950 . S
C777 C773 1.393 . S
C777 C776 1.391 . S
C778 H768 0.950 . S
C778 C779 1.386 . S
C778 C780 1.391 . S
C779 C778 1.386 . S
C779 C783 1.393 . S
C780 H769 0.950 . S
C780 C778 1.391 . S
C780 C781 1.400 . S
C781 C775 1.491 1_554 S
C781 C780 1.400 . S
C781 C782 1.398 . S
C782 H770 0.950 . S
C782 C781 1.398 . S
C782 C783 1.391 . S
C783 H771 0.950 . S
C783 C779 1.393 . S
C783 C782 1.391 . S
H784 C792 0.950 . S
H785 C797 0.950 . S
H786 C794 0.950 . S
H787 C796 0.950 . S
H788 C798 0.950 . S
H789 C800 0.950 . S
H790 C802 0.950 . S
H791 C803 0.950 . S
C792 H784 0.950 . S
C792 C793 1.386 . S
C792 C794 1.391 . S
C793 C792 1.386 . S
C793 C797 1.393 . S
C794 H786 0.950 . S
C794 C792 1.391 . S
C794 C795 1.400 . S
C795 C794 1.400 . S
C795 C796 1.398 . S
C795 C801 1.491 . S
C796 H787 0.950 . S
C796 C795 1.398 . S
C796 C797 1.391 . S
C797 H785 0.950 . S
C797 C793 1.393 . S
C797 C796 1.391 . S
C798 H788 0.950 . S
C798 C799 1.386 . S
C798 C800 1.391 . S
C799 C798 1.386 . S
C799 C803 1.393 . S
C800 H789 0.950 . S
C800 C798 1.391 . S
C800 C801 1.400 . S
C801 C795 1.491 . S
C801 C800 1.400 . S
C801 C802 1.398 . S
C802 H790 0.950 . S
C802 C801 1.398 . S
C802 C803 1.391 . S
C803 H791 0.950 . S
C803 C799 1.393 . S
C803 C802 1.391 . S
H804 C812 0.950 . S
H805 C817 0.950 . S
H806 C814 0.950 . S
H807 C816 0.950 . S
H808 C818 0.950 . S
H809 C820 0.950 . S
H810 C822 0.950 . S
H811 C823 0.950 . S
C812 H804 0.950 . S
C812 C813 1.386 . S
C812 C814 1.391 . S
C813 C812 1.386 . S
C813 C817 1.393 . S
C814 H806 0.950 . S
C814 C812 1.391 . S
C814 C815 1.400 . S
C815 C814 1.400 . S
C815 C816 1.398 . S
C815 C821 1.491 . S
C816 H807 0.950 . S
C816 C815 1.398 . S
C816 C817 1.391 . S
C817 H805 0.950 . S
C817 C813 1.393 . S
C817 C816 1.391 . S
C818 H808 0.950 . S
C818 C819 1.386 . S
C818 C820 1.391 . S
C819 C818 1.386 . S
C819 C823 1.393 . S
C820 H809 0.950 . S
C820 C818 1.391 . S
C820 C821 1.400 . S
C821 C815 1.491 . S
C821 C820 1.400 . S
C821 C822 1.398 . S
C822 H810 0.950 . S
C822 C821 1.398 . S
C822 C823 1.391 . S
C823 H811 0.950 . S
C823 C819 1.393 . S
C823 C822 1.391 . S
H824 C832 0.950 1_655 S
H825 C837 0.950 . S
H826 C834 0.938 1_655 S
H827 C836 0.950 . S
H828 C838 0.950 . S
H829 C840 0.950 . S
H830 C842 0.950 . S
H831 C843 0.950 . S
C832 H824 0.950 1_455 S
C832 C833 1.386 . S
C832 C834 1.391 . S
C833 C832 1.386 . S
C833 C837 1.393 . S
C834 H826 0.938 1_455 S
C834 C832 1.391 . S
C834 C835 1.400 . S
C835 C834 1.400 . S
C835 C836 1.398 . S
C835 C841 1.491 . S
C836 H827 0.950 . S
C836 C835 1.398 . S
C836 C837 1.391 . S
C837 H825 0.950 . S
C837 C833 1.393 . S
C837 C836 1.391 . S
C838 H828 0.950 . S
C838 C839 1.386 . S
C838 C840 1.391 . S
C839 C838 1.386 . S
C839 C843 1.393 . S
C840 H829 0.950 . S
C840 C838 1.391 . S
C840 C841 1.400 . S
C841 C835 1.491 . S
C841 C840 1.400 . S
C841 C842 1.398 . S
C842 H830 0.950 . S
C842 C841 1.398 . S
C842 C843 1.391 . S
C843 H831 0.950 . S
C843 C839 1.393 . S
C843 C842 1.391 . S
H844 C852 0.950 . S
H845 C857 0.950 . S
H846 C854 0.950 . S
H847 C856 0.950 . S
H848 C858 0.950 . S
H849 C860 0.950 . S
H850 C862 0.950 . S
H851 C863 0.950 . S
C852 H844 0.950 . S
C852 C853 1.386 1_565 S
C852 C854 1.391 . S
C853 C852 1.386 1_545 S
C853 C857 1.393 . S
C854 H846 0.950 . S
C854 C852 1.391 . S
C854 C855 1.400 1_565 S
C855 C854 1.400 1_545 S
C855 C856 1.398 . S
C855 C861 1.491 . S
C856 H847 0.950 . S
C856 C855 1.398 . S
C856 C857 1.391 . S
C857 H845 0.950 . S
C857 C853 1.393 . S
C857 C856 1.391 . S
C858 H848 0.950 . S
C858 C859 1.386 . S
C858 C860 1.391 . S
C859 C858 1.386 . S
C859 C863 1.393 1_545 S
C860 H849 0.950 . S
C860 C858 1.391 . S
C860 C861 1.400 . S
C861 C855 1.491 . S
C861 C860 1.400 . S
C861 C862 1.398 1_545 S
C862 H850 0.950 . S
C862 C861 1.398 1_565 S
C862 C863 1.391 . S
C863 H851 0.950 . S
C863 C859 1.393 1_565 S
C863 C862 1.391 . S
C233 C8 1.760 . S
C239 C106 1.757 . S
C253 C22 1.762 . S
C259 C64 1.765 . S
C273 C78 1.761 . S
C279 C36 1.758 . S
C293 C50 1.764 . S
C299 C92 1.764 . S
C313 C120 1.761 . S
C319 C176 1.758 . S
C333 C134 1.760 . S
C339 C204 1.764 . S
C353 C162 1.760 . S
C359 C148 1.764 . S
C373 C218 1.759 . S
C379 C190 1.758 . S
C393 C3 0.759 . S
C399 C87 0.769 . S
C413 C105 1.458 1_545 S
C419 C21 1.468 1_565 S
C433 C31 0.771 . S
C439 C59 0.757 . S
C453 C77 1.443 1_565 S
C459 C49 1.432 1_545 S
C473 C9 1.379 . S
C479 C205 1.370 . S
C493 C157 0.763 . S
C499 C17 0.765 . S
C513 C191 1.390 . S
C519 C37 1.386 . S
C533 C171 0.773 . S
C539 C45 0.756 . S
C553 C149 1.379 . S
C559 C65 1.370 . S
C573 C73 0.756 . S
C579 C213 0.772 . S
C593 C93 1.390 . S
C599 C121 1.384 . S
C613 C101 0.766 . S
C619 C129 0.762 . S
C633 C7 1.440 . S
C639 C63 1.454 . S
C653 C119 1.436 . S
C659 C189 1.430 . S
C673 C177 1.376 . S
C679 C135 1.369 . S
C693 C203 1.466 . S
C699 C147 1.456 . S
C713 C107 1.376 . S
C719 C51 1.369 . S
C733 C35 1.448 . S
C739 C91 1.461 . S
C753 C163 1.369 . S
C759 C219 1.377 . S
C773 C185 0.756 . S
C779 C143 0.773 . S
C793 C217 1.450 . S
C799 C175 1.437 . S
C813 C199 0.768 . S
C819 C115 0.762 . S
C833 C161 1.445 . S
C839 C133 1.433 . S
C853 C23 1.369 . S
C859 C79 1.374 . S
