# Generated by pormake.
# Topology wir, (6)-cn, num edge types: 1
# Building blocks:
#     Node 0, Type 0, BuildingBlock: VOLQOD_clean_sbu_1, # of connection points: 6
#     Node 1, Type 0, BuildingBlock: VOLQOD_clean_sbu_1, # of connection points: 6
#     Node 2, Type 0, BuildingBlock: VOLQOD_clean_sbu_1, # of connection points: 6
#     Node 3, Type 0, BuildingBlock: VOLQOD_clean_sbu_1, # of connection points: 6
#     Node 4, Type 0, BuildingBlock: VOLQOD_clean_sbu_1, # of connection points: 6
#     Node 5, Type 0, BuildingBlock: VOLQOD_clean_sbu_1, # of connection points: 6
#     Node 6, Type 0, BuildingBlock: VOLQOD_clean_sbu_1, # of connection points: 6
#     Node 7, Type 0, BuildingBlock: VOLQOD_clean_sbu_1, # of connection points: 6
#     Node 8, Type 0, BuildingBlock: VOLQOD_clean_sbu_1, # of connection points: 6
#     Node 9, Type 0, BuildingBlock: VOLQOD_clean_sbu_1, # of connection points: 6
#     Node 10, Type 0, BuildingBlock: VOLQOD_clean_sbu_1, # of connection points: 6
#     Node 11, Type 0, BuildingBlock: VOLQOD_clean_sbu_1, # of connection points: 6
#     Node 12, Type 0, BuildingBlock: VOLQOD_clean_sbu_1, # of connection points: 6
#     Node 13, Type 0, BuildingBlock: VOLQOD_clean_sbu_1, # of connection points: 6
#     Node 14, Type 0, BuildingBlock: VOLQOD_clean_sbu_1, # of connection points: 6
#     Node 15, Type 0, BuildingBlock: VOLQOD_clean_sbu_1, # of connection points: 6
#     Node 16, Type 0, BuildingBlock: VOLQOD_clean_sbu_1, # of connection points: 6
#     Node 17, Type 0, BuildingBlock: VOLQOD_clean_sbu_1, # of connection points: 6
#     Node 18, Type 0, BuildingBlock: VOLQOD_clean_sbu_1, # of connection points: 6
#     Node 19, Type 0, BuildingBlock: VOLQOD_clean_sbu_1, # of connection points: 6
#     Node 20, Type 0, BuildingBlock: VOLQOD_clean_sbu_1, # of connection points: 6
#     Node 21, Type 0, BuildingBlock: VOLQOD_clean_sbu_1, # of connection points: 6
#     Node 22, Type 0, BuildingBlock: VOLQOD_clean_sbu_1, # of connection points: 6
#     Node 23, Type 0, BuildingBlock: VOLQOD_clean_sbu_1, # of connection points: 6
#     Node 24, Type 0, BuildingBlock: VOLQOD_clean_sbu_1, # of connection points: 6
#     Node 25, Type 0, BuildingBlock: VOLQOD_clean_sbu_1, # of connection points: 6
#     Node 26, Type 0, BuildingBlock: VOLQOD_clean_sbu_1, # of connection points: 6
#     Node 27, Type 0, BuildingBlock: VOLQOD_clean_sbu_1, # of connection points: 6
#     Node 28, Type 0, BuildingBlock: VOLQOD_clean_sbu_1, # of connection points: 6
#     Node 29, Type 0, BuildingBlock: VOLQOD_clean_sbu_1, # of connection points: 6
#     Node 30, Type 0, BuildingBlock: VOLQOD_clean_sbu_1, # of connection points: 6
#     Node 31, Type 0, BuildingBlock: VOLQOD_clean_sbu_1, # of connection points: 6
#     Edge 32, Type (0, 0), None
#     Edge 33, Type (0, 0), None
#     Edge 34, Type (0, 0), None
#     Edge 35, Type (0, 0), None
#     Edge 36, Type (0, 0), None
#     Edge 37, Type (0, 0), None
#     Edge 38, Type (0, 0), None
#     Edge 39, Type (0, 0), None
#     Edge 40, Type (0, 0), None
#     Edge 41, Type (0, 0), None
#     Edge 42, Type (0, 0), None
#     Edge 43, Type (0, 0), None
#     Edge 44, Type (0, 0), None
#     Edge 45, Type (0, 0), None
#     Edge 46, Type (0, 0), None
#     Edge 47, Type (0, 0), None
#     Edge 48, Type (0, 0), None
#     Edge 49, Type (0, 0), None
#     Edge 50, Type (0, 0), None
#     Edge 51, Type (0, 0), None
#     Edge 52, Type (0, 0), None
#     Edge 53, Type (0, 0), None
#     Edge 54, Type (0, 0), None
#     Edge 55, Type (0, 0), None
#     Edge 56, Type (0, 0), None
#     Edge 57, Type (0, 0), None
#     Edge 58, Type (0, 0), None
#     Edge 59, Type (0, 0), None
#     Edge 60, Type (0, 0), None
#     Edge 61, Type (0, 0), None
#     Edge 62, Type (0, 0), None
#     Edge 63, Type (0, 0), None
#     Edge 64, Type (0, 0), None
#     Edge 65, Type (0, 0), None
#     Edge 66, Type (0, 0), None
#     Edge 67, Type (0, 0), None
#     Edge 68, Type (0, 0), None
#     Edge 69, Type (0, 0), None
#     Edge 70, Type (0, 0), None
#     Edge 71, Type (0, 0), None
#     Edge 72, Type (0, 0), None
#     Edge 73, Type (0, 0), None
#     Edge 74, Type (0, 0), None
#     Edge 75, Type (0, 0), None
#     Edge 76, Type (0, 0), None
#     Edge 77, Type (0, 0), None
#     Edge 78, Type (0, 0), None
#     Edge 79, Type (0, 0), None
#     Edge 80, Type (0, 0), None
#     Edge 81, Type (0, 0), None
#     Edge 82, Type (0, 0), None
#     Edge 83, Type (0, 0), None
#     Edge 84, Type (0, 0), None
#     Edge 85, Type (0, 0), None
#     Edge 86, Type (0, 0), None
#     Edge 87, Type (0, 0), None
#     Edge 88, Type (0, 0), None
#     Edge 89, Type (0, 0), None
#     Edge 90, Type (0, 0), None
#     Edge 91, Type (0, 0), None
#     Edge 92, Type (0, 0), None
#     Edge 93, Type (0, 0), None
#     Edge 94, Type (0, 0), None
#     Edge 95, Type (0, 0), None
#     Edge 96, Type (0, 0), None
#     Edge 97, Type (0, 0), None
#     Edge 98, Type (0, 0), None
#     Edge 99, Type (0, 0), None
#     Edge 100, Type (0, 0), None
#     Edge 101, Type (0, 0), None
#     Edge 102, Type (0, 0), None
#     Edge 103, Type (0, 0), None
#     Edge 104, Type (0, 0), None
#     Edge 105, Type (0, 0), None
#     Edge 106, Type (0, 0), None
#     Edge 107, Type (0, 0), None
#     Edge 108, Type (0, 0), None
#     Edge 109, Type (0, 0), None
#     Edge 110, Type (0, 0), None
#     Edge 111, Type (0, 0), None
#     Edge 112, Type (0, 0), None
#     Edge 113, Type (0, 0), None
#     Edge 114, Type (0, 0), None
#     Edge 115, Type (0, 0), None
#     Edge 116, Type (0, 0), None
#     Edge 117, Type (0, 0), None
#     Edge 118, Type (0, 0), None
#     Edge 119, Type (0, 0), None
#     Edge 120, Type (0, 0), None
#     Edge 121, Type (0, 0), None
#     Edge 122, Type (0, 0), None
#     Edge 123, Type (0, 0), None
#     Edge 124, Type (0, 0), None
#     Edge 125, Type (0, 0), None
#     Edge 126, Type (0, 0), None
#     Edge 127, Type (0, 0), None
# Relax obj value: 0.349
# Max RMSD: 0.208
# Mean RMSD: 0.208
data_MOF--net-wir--node1-VOLQOD_clean_sbu_1--edge1-none
_symmetry_space_group_name_H-M    P1
_symmetry_Int_Tables_number       1
_symmetry_cell_setting            triclinic
loop_
_symmetry_equiv_pos_as_xyz
'x, y, z'
_cell_length_a     22.580957
_cell_length_b     22.58183
_cell_length_c     44.044977
_cell_angle_alpha  90.0
_cell_angle_beta   90.0
_cell_angle_gamma 89.999979
loop_
_atom_site_label
_atom_site_type_symbol
_atom_site_fract_x
_atom_site_fract_y
_atom_site_fract_z
_atom_type_partial_charge
O0 O 0.02564 0.04414 0.31801 0.0
Zn1 Zn 0.06736 0.08665 0.28539 0.0
O2 O 0.13941 0.11682 0.30357 0.0
Zn3 Zn 0.21164 0.088 0.28619 0.0
Zn4 Zn 0.14559 0.1079 0.34675 0.0
Zn5 Zn 0.13038 0.20022 0.29786 0.0
O6 O 0.23868 0.15895 0.25809 0.0
O7 O 0.16388 0.22379 0.26003 0.0
O8 O 0.08921 0.02425 0.25339 0.0
O9 O 0.18781 0.01812 0.25793 0.0
O10 O 0.26847 0.05494 0.32242 0.0
O11 O 0.21475 0.06813 0.36394 0.0
O12 O 0.14646 0.18453 0.36671 0.0
O13 O 0.0048 0.15306 0.27482 0.0
O14 O 0.17533 0.24234 0.32911 0.0
O15 O 0.04671 0.23084 0.29667 0.0
C16 C 0.03359 0.0408 0.3465 0.0
C17 C 0.21172 0.20597 0.24853 0.0
C18 C 0.26181 0.05047 0.35157 0.0
C19 C 0.1387 -0.00039 0.24669 0.0
C20 C 0.16743 0.23304 0.35714 0.0
C21 C 0.00235 0.20718 0.28374 0.0
O22 O 0.07719 0.06443 0.35991 0.0
O23 O 0.15345 0.77563 0.56801 0.0
Zn24 Zn 0.11094 0.81736 0.53539 0.0
O25 O 0.08077 0.8894 0.55357 0.0
Zn26 Zn 0.10959 0.96163 0.53619 0.0
Zn27 Zn 0.0897 0.89558 0.59675 0.0
Zn28 Zn -0.00263 0.88038 0.54786 0.0
O29 O 0.03864 -0.01132 0.50809 0.0
O30 O 0.9738 0.91387 0.51003 0.0
O31 O 0.17335 0.8392 0.50339 0.0
O32 O 0.17948 0.93781 0.50793 0.0
O33 O 0.14265 0.01846 0.57242 0.0
O34 O 0.12947 0.96473 0.61394 0.0
O35 O 0.01306 0.89645 0.6167 0.0
O36 O 0.04453 0.7548 0.52481 0.0
O37 O 0.95525 0.92533 0.57911 0.0
O38 O 0.96675 0.79671 0.54667 0.0
C39 C 0.15679 0.78357 0.5965 0.0
C40 C -0.00837 0.96172 0.49853 0.0
C41 C 0.14713 0.0118 0.60157 0.0
C42 C 0.19798 0.8887 0.49669 0.0
C43 C 0.96455 0.91742 0.60714 0.0
C44 C -0.0096 0.75236 0.53374 0.0
O45 O 0.13316 0.82717 0.60991 0.0
O46 O 0.42197 0.90344 0.81801 0.0
Zn47 Zn 0.38025 0.86092 0.78539 0.0
O48 O 0.3082 0.83076 0.80357 0.0
Zn49 Zn 0.23597 0.85957 0.78619 0.0
Zn50 Zn 0.30202 0.83968 0.84675 0.0
Zn51 Zn 0.31723 0.74736 0.79786 0.0
O52 O 0.20893 0.78862 0.75809 0.0
O53 O 0.28373 0.72378 0.76003 0.0
O54 O 0.3584 0.92333 0.75339 0.0
O55 O 0.2598 0.92946 0.75793 0.0
O56 O 0.17914 0.89264 0.82242 0.0
O57 O 0.23287 0.87945 0.86394 0.0
O58 O 0.30115 0.76304 0.86671 0.0
O59 O 0.44281 0.79452 0.77482 0.0
O60 O 0.27228 0.70524 0.82911 0.0
O61 O 0.4009 0.71674 0.79667 0.0
C62 C 0.41403 0.90678 0.8465 0.0
C63 C 0.23589 0.74161 0.74853 0.0
C64 C 0.1858 0.8971 0.85157 0.0
C65 C 0.30891 0.94796 0.74669 0.0
C66 C 0.28018 0.71453 0.85714 0.0
C67 C 0.44526 0.74039 0.78374 0.0
O68 O 0.37043 0.88314 0.85991 0.0
O69 O 0.29416 0.17194 0.06801 0.0
Zn70 Zn 0.33668 0.13022 0.03539 0.0
O71 O 0.36684 0.05817 0.05357 0.0
Zn72 Zn 0.33802 -0.01405 0.03619 0.0
Zn73 Zn 0.35791 0.052 0.09675 0.0
Zn74 Zn 0.45024 0.0672 0.04786 0.0
O75 O 0.40897 0.9589 0.00809 0.0
O76 O 0.47382 0.0337 0.01003 0.0
O77 O 0.27427 0.10837 0.00339 0.0
O78 O 0.26814 0.00977 0.00793 0.0
O79 O 0.30496 0.92911 0.07242 0.0
O80 O 0.31814 -0.01716 0.11394 0.0
O81 O 0.43455 0.05112 0.1167 0.0
O82 O 0.40309 0.19277 0.02481 0.0
O83 O 0.49236 0.02225 0.07911 0.0
O84 O 0.48086 0.15086 0.04667 0.0
C85 C 0.29082 0.164 0.0965 0.0
C86 C 0.45598 -0.01415 -0.00147 0.0
C87 C 0.30049 0.93578 0.10157 0.0
C88 C 0.24963 0.05888 -0.00331 0.0
C89 C 0.48306 0.03015 0.10714 0.0
C90 C 0.45721 0.19522 0.03374 0.0
O91 O 0.31445 0.1204 0.10991 0.0
O92 O 0.02565 0.90344 0.15427 0.0
Zn93 Zn 0.06736 0.86092 0.18689 0.0
O94 O 0.13941 0.83076 0.16871 0.0
Zn95 Zn 0.21164 0.85957 0.18609 0.0
Zn96 Zn 0.14559 0.83967 0.12553 0.0
Zn97 Zn 0.13038 0.74736 0.17441 0.0
O98 O 0.23869 0.78862 0.21419 0.0
O99 O 0.16388 0.72378 0.21225 0.0
O100 O 0.08921 0.92333 0.21888 0.0
O101 O 0.18782 0.92946 0.21435 0.0
O102 O 0.26848 0.89264 0.14986 0.0
O103 O 0.21475 0.87944 0.10834 0.0
O104 O 0.14646 0.76304 0.10557 0.0
O105 O 0.0048 0.79452 0.19746 0.0
O106 O 0.17533 0.70524 0.14317 0.0
O107 O 0.04671 0.71674 0.17561 0.0
C108 C 0.03359 0.90678 0.12578 0.0
C109 C 0.21172 0.74161 0.22375 0.0
C110 C 0.26181 0.89709 0.12071 0.0
C111 C 0.1387 0.94796 0.22559 0.0
C112 C 0.16743 0.71453 0.11514 0.0
C113 C 0.00235 0.74039 0.18854 0.0
O114 O 0.07719 0.88314 0.11237 0.0
O115 O 0.29416 0.77564 0.40427 0.0
Zn116 Zn 0.33668 0.81736 0.43689 0.0
O117 O 0.36684 0.88941 0.41871 0.0
Zn118 Zn 0.33802 0.96163 0.43609 0.0
Zn119 Zn 0.35792 0.89558 0.37553 0.0
Zn120 Zn 0.45024 0.88038 0.42441 0.0
O121 O 0.40897 -0.01132 0.46419 0.0
O122 O 0.47381 0.91387 0.46225 0.0
O123 O 0.27427 0.83921 0.46888 0.0
O124 O 0.26814 0.93781 0.46435 0.0
O125 O 0.30496 0.01847 0.39985 0.0
O126 O 0.31815 0.96473 0.35834 0.0
O127 O 0.43455 0.89645 0.35557 0.0
O128 O 0.40309 0.7548 0.44746 0.0
O129 O 0.49236 0.92533 0.39317 0.0
O130 O 0.48086 0.79672 0.4256 0.0
C131 C 0.29082 0.78357 0.37578 0.0
C132 C 0.45598 0.96172 0.47375 0.0
C133 C 0.3005 0.01179 0.37071 0.0
C134 C 0.24963 0.8887 0.47559 0.0
C135 C 0.48306 0.91743 0.36514 0.0
C136 C 0.45721 0.75236 0.43854 0.0
O137 O 0.31445 0.82717 0.36237 0.0
O138 O 0.42197 0.04414 0.65427 0.0
Zn139 Zn 0.38025 0.08665 0.68689 0.0
O140 O 0.3082 0.11682 0.66871 0.0
Zn141 Zn 0.23597 0.088 0.68609 0.0
Zn142 Zn 0.30202 0.1079 0.62553 0.0
Zn143 Zn 0.31723 0.20022 0.67441 0.0
O144 O 0.20893 0.15895 0.71419 0.0
O145 O 0.28373 0.22379 0.71225 0.0
O146 O 0.3584 0.02425 0.71888 0.0
O147 O 0.2598 0.01812 0.71435 0.0
O148 O 0.17914 0.05494 0.64986 0.0
O149 O 0.23287 0.06814 0.60834 0.0
O150 O 0.30115 0.18454 0.60557 0.0
O151 O 0.44281 0.15306 0.69746 0.0
O152 O 0.27228 0.24234 0.64317 0.0
O153 O 0.4009 0.23084 0.67561 0.0
C154 C 0.41402 0.0408 0.62578 0.0
C155 C 0.23589 0.20597 0.72375 0.0
C156 C 0.18581 0.05048 0.62071 0.0
C157 C 0.30891 -0.00039 0.72559 0.0
C158 C 0.28018 0.23304 0.61514 0.0
C159 C 0.44526 0.20718 0.68854 0.0
O160 O 0.37042 0.06443 0.61237 0.0
O161 O 0.15345 0.17194 0.90427 0.0
Zn162 Zn 0.11094 0.13022 0.93689 0.0
O163 O 0.08077 0.05817 0.91871 0.0
Zn164 Zn 0.10959 -0.01406 0.93609 0.0
Zn165 Zn 0.0897 0.052 0.87553 0.0
Zn166 Zn -0.00263 0.06719 0.92441 0.0
O167 O 0.03864 0.9589 0.96419 0.0
O168 O 0.9738 0.0337 0.96225 0.0
O169 O 0.17334 0.10837 0.96888 0.0
O170 O 0.17948 0.00977 0.96435 0.0
O171 O 0.14266 0.92911 0.89985 0.0
O172 O 0.12947 -0.01716 0.85834 0.0
O173 O 0.01306 0.05113 0.85557 0.0
O174 O 0.04453 0.19277 0.94746 0.0
O175 O 0.95525 0.02225 0.89317 0.0
O176 O 0.96675 0.15086 0.9256 0.0
C177 C 0.15679 0.164 0.87578 0.0
C178 C -0.00837 -0.01415 0.97375 0.0
C179 C 0.14712 0.93578 0.87071 0.0
C180 C 0.19798 0.05888 0.97559 0.0
C181 C 0.96455 0.03015 0.86514 0.0
C182 C -0.0096 0.19522 0.93854 0.0
O183 O 0.13316 0.1204 0.86237 0.0
O184 O 0.92196 0.90346 0.65426 0.0
Zn185 Zn 0.88026 0.86093 0.68688 0.0
O186 O 0.8082 0.83076 0.66871 0.0
Zn187 Zn 0.73598 0.85958 0.68609 0.0
Zn188 Zn 0.80201 0.83968 0.62553 0.0
Zn189 Zn 0.81723 0.74736 0.67441 0.0
O190 O 0.70893 0.78863 0.71419 0.0
O191 O 0.78373 0.72378 0.71225 0.0
O192 O 0.85841 0.92333 0.71888 0.0
O193 O 0.75981 0.92946 0.71435 0.0
O194 O 0.67914 0.89264 0.64986 0.0
O195 O 0.73284 0.87941 0.60834 0.0
O196 O 0.80119 0.76305 0.60557 0.0
O197 O 0.94282 0.79452 0.69745 0.0
O198 O 0.77228 0.70525 0.64316 0.0
O199 O 0.9009 0.71674 0.6756 0.0
C200 C 0.91396 0.90686 0.62578 0.0
C201 C 0.73589 0.74161 0.72375 0.0
C202 C 0.68579 0.89708 0.62071 0.0
C203 C 0.80892 0.94796 0.72559 0.0
C204 C 0.7802 0.71454 0.61513 0.0
C205 C 0.94526 0.7404 0.68853 0.0
O206 O 0.87038 0.88321 0.61237 0.0
O207 O 0.79416 0.17194 0.40427 0.0
Zn208 Zn 0.83667 0.13022 0.43689 0.0
O209 O 0.86684 0.05817 0.41871 0.0
Zn210 Zn 0.83803 -0.01406 0.43609 0.0
Zn211 Zn 0.85789 0.05199 0.37553 0.0
Zn212 Zn 0.95025 0.06719 0.42441 0.0
O213 O 0.90898 0.9589 0.46419 0.0
O214 O -0.02617 0.0337 0.46225 0.0
O215 O 0.77427 0.10837 0.46888 0.0
O216 O 0.76814 0.00976 0.46435 0.0
O217 O 0.80497 0.9291 0.39985 0.0
O218 O 0.81813 -0.01716 0.35834 0.0
O219 O 0.93452 0.05112 0.35557 0.0
O220 O 0.90309 0.19277 0.44746 0.0
O221 O -0.00764 0.02225 0.39316 0.0
O222 O -0.01913 0.15086 0.4256 0.0
C223 C 0.7908 0.164 0.37578 0.0
C224 C 0.95599 -0.01414 0.47374 0.0
C225 C 0.8005 0.93577 0.37071 0.0
C226 C 0.74963 0.05888 0.47559 0.0
C227 C -0.01699 0.03011 0.36513 0.0
C228 C 0.95721 0.19522 0.43853 0.0
O229 O 0.81442 0.12039 0.36237 0.0
O230 O 0.52565 0.04412 0.15426 0.0
Zn231 Zn 0.56735 0.08665 0.18688 0.0
O232 O 0.63941 0.11681 0.16871 0.0
Zn233 Zn 0.71163 0.088 0.18609 0.0
Zn234 Zn 0.6456 0.1079 0.12553 0.0
Zn235 Zn 0.63038 0.20021 0.17441 0.0
O236 O 0.73868 0.15895 0.21419 0.0
O237 O 0.66388 0.22379 0.21225 0.0
O238 O 0.5892 0.02424 0.21888 0.0
O239 O 0.68781 0.01812 0.21435 0.0
O240 O 0.76847 0.05494 0.14986 0.0
O241 O 0.71478 0.06817 0.10834 0.0
O242 O 0.64642 0.18453 0.10557 0.0
O243 O 0.50479 0.15305 0.19745 0.0
O244 O 0.67533 0.24233 0.14316 0.0
O245 O 0.54671 0.23084 0.1756 0.0
C246 C 0.53365 0.04072 0.12578 0.0
C247 C 0.71172 0.20596 0.22375 0.0
C248 C 0.76183 0.05049 0.12071 0.0
C249 C 0.63869 -0.00039 0.22559 0.0
C250 C 0.66741 0.23303 0.11513 0.0
C251 C 0.50235 0.20718 0.18853 0.0
O252 O 0.57724 0.06437 0.11237 0.0
O253 O 0.65346 0.77563 0.90427 0.0
Zn254 Zn 0.61094 0.81736 0.93689 0.0
O255 O 0.58077 0.88941 0.91871 0.0
Zn256 Zn 0.60959 0.96163 0.93609 0.0
Zn257 Zn 0.58972 0.89558 0.87553 0.0
Zn258 Zn 0.49737 0.88038 0.92441 0.0
O259 O 0.53863 -0.01133 0.96419 0.0
O260 O 0.47378 0.91388 0.96225 0.0
O261 O 0.67335 0.83921 0.96888 0.0
O262 O 0.67948 0.93781 0.96435 0.0
O263 O 0.64264 0.01848 0.89985 0.0
O264 O 0.62948 0.96474 0.85834 0.0
O265 O 0.5131 0.89646 0.85557 0.0
O266 O 0.54453 0.7548 0.94746 0.0
O267 O 0.45525 0.92533 0.89316 0.0
O268 O 0.46675 0.79671 0.9256 0.0
C269 C 0.65681 0.78358 0.87578 0.0
C270 C 0.49162 0.96172 0.97374 0.0
C271 C 0.64712 0.01181 0.87071 0.0
C272 C 0.69798 0.8887 0.97559 0.0
C273 C 0.46461 0.91746 0.86513 0.0
C274 C 0.4904 0.75236 0.93853 0.0
O275 O 0.6332 0.82718 0.86237 0.0
O276 O 0.92196 0.04412 0.81802 0.0
Zn277 Zn 0.88026 0.08665 0.7854 0.0
O278 O 0.8082 0.11681 0.80357 0.0
Zn279 Zn 0.73598 0.088 0.78619 0.0
Zn280 Zn 0.80201 0.1079 0.84676 0.0
Zn281 Zn 0.81723 0.20021 0.79787 0.0
O282 O 0.70893 0.15895 0.75809 0.0
O283 O 0.78373 0.22379 0.76003 0.0
O284 O 0.85841 0.02425 0.7534 0.0
O285 O 0.75981 0.01812 0.75793 0.0
O286 O 0.67914 0.05493 0.82242 0.0
O287 O 0.73284 0.06817 0.86394 0.0
O288 O 0.80119 0.18453 0.86671 0.0
O289 O 0.94282 0.15305 0.77483 0.0
O290 O 0.77228 0.24233 0.82912 0.0
O291 O 0.9009 0.23084 0.79668 0.0
C292 C 0.91396 0.04071 0.8465 0.0
C293 C 0.73589 0.20596 0.74853 0.0
C294 C 0.68579 0.0505 0.85157 0.0
C295 C 0.80892 -0.00039 0.74669 0.0
C296 C 0.7802 0.23304 0.85715 0.0
C297 C 0.94526 0.20718 0.78375 0.0
O298 O 0.87037 0.06437 0.85991 0.0
O299 O 0.65346 0.17194 0.56801 0.0
Zn300 Zn 0.61094 0.13022 0.53539 0.0
O301 O 0.58077 0.05817 0.55357 0.0
Zn302 Zn 0.60959 -0.01406 0.53619 0.0
Zn303 Zn 0.58972 0.05199 0.59675 0.0
Zn304 Zn 0.49737 0.06719 0.54787 0.0
O305 O 0.53863 0.9589 0.50809 0.0
O306 O 0.47378 0.0337 0.51003 0.0
O307 O 0.67334 0.10837 0.50339 0.0
O308 O 0.67948 0.00976 0.50793 0.0
O309 O 0.64264 0.9291 0.57242 0.0
O310 O 0.62948 -0.01716 0.61394 0.0
O311 O 0.51309 0.05112 0.61671 0.0
O312 O 0.54453 0.19277 0.52482 0.0
O313 O 0.45525 0.02224 0.57912 0.0
O314 O 0.46675 0.15086 0.54668 0.0
C315 C 0.65682 0.16399 0.5965 0.0
C316 C 0.49162 -0.01414 0.49853 0.0
C317 C 0.64711 0.93577 0.60157 0.0
C318 C 0.69798 0.05887 0.49669 0.0
C319 C 0.4646 0.03011 0.60715 0.0
C320 C 0.4904 0.19522 0.53375 0.0
O321 O 0.63319 0.12039 0.60991 0.0
O322 O 0.52565 0.90346 0.31802 0.0
Zn323 Zn 0.56735 0.86093 0.2854 0.0
O324 O 0.63941 0.83076 0.30357 0.0
Zn325 Zn 0.71164 0.85958 0.28619 0.0
Zn326 Zn 0.6456 0.83968 0.34676 0.0
Zn327 Zn 0.63038 0.74736 0.29787 0.0
O328 O 0.73868 0.78863 0.25809 0.0
O329 O 0.66388 0.72378 0.26003 0.0
O330 O 0.5892 0.92333 0.2534 0.0
O331 O 0.68781 0.92946 0.25793 0.0
O332 O 0.76848 0.89264 0.32242 0.0
O333 O 0.71478 0.8794 0.36394 0.0
O334 O 0.64642 0.76304 0.36671 0.0
O335 O 0.50479 0.79452 0.27483 0.0
O336 O 0.67533 0.70525 0.32912 0.0
O337 O 0.54672 0.71674 0.29668 0.0
C338 C 0.53366 0.90686 0.3465 0.0
C339 C 0.71172 0.74161 0.24853 0.0
C340 C 0.76182 0.89707 0.35157 0.0
C341 C 0.63869 0.94796 0.24669 0.0
C342 C 0.66741 0.71454 0.35715 0.0
C343 C 0.50235 0.7404 0.28375 0.0
O344 O 0.57724 0.8832 0.35991 0.0
O345 O 0.79415 0.77564 0.06801 0.0
Zn346 Zn 0.83668 0.81736 0.03539 0.0
O347 O 0.86684 0.88941 0.05357 0.0
Zn348 Zn 0.83802 0.96163 0.03619 0.0
Zn349 Zn 0.85789 0.89558 0.09675 0.0
Zn350 Zn 0.95025 0.88038 0.04787 0.0
O351 O 0.90898 -0.01133 0.00809 0.0
O352 O -0.02617 0.91388 0.01003 0.0
O353 O 0.77427 0.83921 0.00339 0.0
O354 O 0.76814 0.93781 0.00793 0.0
O355 O 0.80497 0.01848 0.07242 0.0
O356 O 0.81814 0.96474 0.11394 0.0
O357 O 0.93452 0.89645 0.11671 0.0
O358 O 0.90309 0.7548 0.02482 0.0
O359 O -0.00764 0.92533 0.07912 0.0
O360 O -0.01913 0.79671 0.04668 0.0
C361 C 0.7908 0.78358 0.0965 0.0
C362 C 0.95599 0.96172 -0.00147 0.0
C363 C 0.8005 0.01181 0.10157 0.0
C364 C 0.74963 0.8887 -0.00331 0.0
C365 C -0.01699 0.91747 0.10715 0.0
C366 C 0.95721 0.75236 0.03375 0.0
O367 O 0.81442 0.82718 0.10991 0.0
O368 O 0.52565 0.54417 0.81801 0.0
Zn369 Zn 0.56739 0.58667 0.78539 0.0
O370 O 0.63944 0.61683 0.80357 0.0
Zn371 Zn 0.71166 0.58801 0.78619 0.0
Zn372 Zn 0.64561 0.60789 0.84675 0.0
Zn373 Zn 0.63042 0.70024 0.79787 0.0
O374 O 0.73871 0.65896 0.75809 0.0
O375 O 0.66392 0.72382 0.76003 0.0
O376 O 0.58923 0.52425 0.75339 0.0
O377 O 0.68784 0.51812 0.75793 0.0
O378 O 0.7685 0.55496 0.82242 0.0
O379 O 0.71476 0.56811 0.86394 0.0
O380 O 0.64649 0.68451 0.86671 0.0
O381 O 0.50484 0.65308 0.77481 0.0
O382 O 0.67537 0.74235 0.82912 0.0
O383 O 0.54675 0.73086 0.79668 0.0
C384 C 0.53359 0.54082 0.8465 0.0
C385 C 0.71175 0.70598 0.74853 0.0
C386 C 0.76183 0.55048 0.85157 0.0
C387 C 0.63873 0.49961 0.74669 0.0
C388 C 0.6675 0.733 0.85715 0.0
C389 C 0.50239 0.70721 0.78374 0.0
O390 O 0.5772 0.56443 0.8599 0.0
O391 O 0.65346 0.27563 0.06802 0.0
Zn392 Zn 0.61094 0.31734 0.03539 0.0
O393 O 0.58077 0.3894 0.05357 0.0
Zn394 Zn 0.60959 0.46162 0.03619 0.0
Zn395 Zn 0.58969 0.39558 0.09675 0.0
Zn396 Zn 0.49737 0.38038 0.04787 0.0
O397 O 0.53864 0.48867 0.00809 0.0
O398 O 0.47379 0.41388 0.01003 0.0
O399 O 0.67335 0.33919 0.0034 0.0
O400 O 0.67948 0.43779 0.00793 0.0
O401 O 0.64265 0.51846 0.07242 0.0
O402 O 0.62943 0.46475 0.11394 0.0
O403 O 0.51306 0.39642 0.11671 0.0
O404 O 0.54453 0.25479 0.02482 0.0
O405 O 0.45525 0.42531 0.07912 0.0
O406 O 0.46674 0.29671 0.04667 0.0
C407 C 0.65685 0.28363 0.0965 0.0
C408 C 0.49163 0.46172 -0.00147 0.0
C409 C 0.6471 0.51181 0.10157 0.0
C410 C 0.69798 0.38868 -0.00331 0.0
C411 C 0.46455 0.4174 0.10715 0.0
C412 C 0.4904 0.25235 0.03374 0.0
O413 O 0.63321 0.32721 0.10991 0.0
O414 O 0.92196 0.4034 0.31801 0.0
Zn415 Zn 0.88023 0.3609 0.28539 0.0
O416 O 0.80817 0.33074 0.30357 0.0
Zn417 Zn 0.73595 0.35956 0.28619 0.0
Zn418 Zn 0.802 0.33969 0.34675 0.0
Zn419 Zn 0.8172 0.24734 0.29787 0.0
O420 O 0.7089 0.28861 0.25809 0.0
O421 O 0.7837 0.22376 0.26003 0.0
O422 O 0.85838 0.42332 0.25339 0.0
O423 O 0.75977 0.42945 0.25793 0.0
O424 O 0.67911 0.39262 0.32242 0.0
O425 O 0.73285 0.37946 0.36394 0.0
O426 O 0.80112 0.26307 0.36671 0.0
O427 O 0.94278 0.29449 0.27481 0.0
O428 O 0.77225 0.20523 0.32912 0.0
O429 O 0.90087 0.21672 0.29668 0.0
C430 C 0.91402 0.40676 0.3465 0.0
C431 C 0.73586 0.2416 0.24853 0.0
C432 C 0.68578 0.3971 0.35157 0.0
C433 C 0.80889 0.44796 0.24669 0.0
C434 C 0.78011 0.21458 0.35715 0.0
C435 C 0.94522 0.24037 0.28374 0.0
O436 O 0.87041 0.38315 0.3599 0.0
O437 O 0.79416 0.67195 0.56802 0.0
Zn438 Zn 0.83668 0.63023 0.53539 0.0
O439 O 0.86684 0.55818 0.55357 0.0
Zn440 Zn 0.83802 0.48596 0.53619 0.0
Zn441 Zn 0.85792 0.55199 0.59675 0.0
Zn442 Zn 0.95024 0.5672 0.54787 0.0
O443 O 0.90897 0.45891 0.50809 0.0
O444 O -0.02618 0.5337 0.51003 0.0
O445 O 0.77427 0.60839 0.5034 0.0
O446 O 0.76814 0.50978 0.50793 0.0
O447 O 0.80496 0.42912 0.57242 0.0
O448 O 0.81818 0.48282 0.61394 0.0
O449 O 0.93456 0.55116 0.61671 0.0
O450 O 0.90308 0.69279 0.52482 0.0
O451 O -0.00764 0.52226 0.57912 0.0
O452 O -0.01913 0.65087 0.54667 0.0
C453 C 0.79076 0.66395 0.5965 0.0
C454 C 0.95598 0.48585 0.49853 0.0
C455 C 0.80051 0.43577 0.60157 0.0
C456 C 0.74963 0.5589 0.49669 0.0
C457 C -0.01694 0.53018 0.60715 0.0
C458 C 0.95721 0.69523 0.53374 0.0
O459 O 0.81441 0.62036 0.60991 0.0
O460 O 0.52565 0.40341 0.65427 0.0
Zn461 Zn 0.56739 0.3609 0.68689 0.0
O462 O 0.63944 0.33074 0.66871 0.0
Zn463 Zn 0.71167 0.35957 0.68609 0.0
Zn464 Zn 0.64561 0.33968 0.62553 0.0
Zn465 Zn 0.63042 0.24734 0.67441 0.0
O466 O 0.73871 0.28861 0.71419 0.0
O467 O 0.66392 0.22376 0.71224 0.0
O468 O 0.58923 0.42332 0.71889 0.0
O469 O 0.68784 0.42945 0.71435 0.0
O470 O 0.76851 0.39262 0.64986 0.0
O471 O 0.71476 0.37945 0.60834 0.0
O472 O 0.64649 0.26306 0.60557 0.0
O473 O 0.50484 0.29449 0.69747 0.0
O474 O 0.67537 0.20523 0.64316 0.0
O475 O 0.54675 0.21672 0.6756 0.0
C476 C 0.5336 0.40676 0.62578 0.0
C477 C 0.71175 0.2416 0.72375 0.0
C478 C 0.76183 0.39709 0.62071 0.0
C479 C 0.63873 0.44796 0.72559 0.0
C480 C 0.6675 0.21457 0.61513 0.0
C481 C 0.50239 0.24037 0.68854 0.0
O482 O 0.5772 0.38314 0.61237 0.0
O483 O 0.79416 0.27563 0.90426 0.0
Zn484 Zn 0.83668 0.31734 0.93688 0.0
O485 O 0.86684 0.3894 0.91871 0.0
Zn486 Zn 0.83802 0.46162 0.93609 0.0
Zn487 Zn 0.85792 0.39558 0.87552 0.0
Zn488 Zn 0.95024 0.38038 0.92441 0.0
O489 O 0.90897 0.48867 0.96419 0.0
O490 O -0.02618 0.41388 0.96225 0.0
O491 O 0.77427 0.33919 0.96888 0.0
O492 O 0.76814 0.43779 0.96435 0.0
O493 O 0.80496 0.51846 0.89986 0.0
O494 O 0.81819 0.46475 0.85833 0.0
O495 O 0.93456 0.39641 0.85557 0.0
O496 O 0.90308 0.25479 0.94746 0.0
O497 O -0.00764 0.42532 0.89316 0.0
O498 O -0.01913 0.29671 0.92561 0.0
C499 C 0.79076 0.28363 0.87578 0.0
C500 C 0.95598 0.46172 0.97375 0.0
C501 C 0.80052 0.5118 0.87071 0.0
C502 C 0.74963 0.38868 0.97559 0.0
C503 C -0.01693 0.4174 0.86513 0.0
C504 C 0.95721 0.25235 0.93854 0.0
O505 O 0.81441 0.32721 0.86237 0.0
O506 O 0.92196 0.54417 0.15427 0.0
Zn507 Zn 0.88022 0.58667 0.18689 0.0
O508 O 0.80817 0.61683 0.16871 0.0
Zn509 Zn 0.73595 0.58801 0.18609 0.0
Zn510 Zn 0.802 0.60789 0.12553 0.0
Zn511 Zn 0.81719 0.70024 0.17441 0.0
O512 O 0.7089 0.65896 0.21419 0.0
O513 O 0.7837 0.72382 0.21224 0.0
O514 O 0.85838 0.52425 0.21889 0.0
O515 O 0.75977 0.51812 0.21435 0.0
O516 O 0.67911 0.55495 0.14986 0.0
O517 O 0.73285 0.56812 0.10834 0.0
O518 O 0.80112 0.68451 0.10557 0.0
O519 O 0.94278 0.65308 0.19747 0.0
O520 O 0.77224 0.74235 0.14316 0.0
O521 O 0.90087 0.73086 0.1756 0.0
C522 C 0.91402 0.54082 0.12578 0.0
C523 C 0.73586 0.70598 0.22375 0.0
C524 C 0.68578 0.55049 0.12071 0.0
C525 C 0.80889 0.49962 0.22559 0.0
C526 C 0.78011 0.733 0.11513 0.0
C527 C 0.94522 0.70721 0.18854 0.0
O528 O 0.87041 0.56443 0.11237 0.0
O529 O 0.65346 0.67194 0.40426 0.0
Zn530 Zn 0.61094 0.63023 0.43688 0.0
O531 O 0.58077 0.55818 0.41871 0.0
Zn532 Zn 0.60959 0.48595 0.43609 0.0
Zn533 Zn 0.58969 0.55199 0.37552 0.0
Zn534 Zn 0.49737 0.5672 0.42441 0.0
O535 O 0.53864 0.4589 0.46419 0.0
O536 O 0.47379 0.5337 0.46225 0.0
O537 O 0.67335 0.60839 0.46888 0.0
O538 O 0.67948 0.50978 0.46435 0.0
O539 O 0.64265 0.42912 0.39986 0.0
O540 O 0.62942 0.48282 0.35833 0.0
O541 O 0.51305 0.55116 0.35557 0.0
O542 O 0.54453 0.69279 0.44746 0.0
O543 O 0.45525 0.52226 0.39316 0.0
O544 O 0.46674 0.65087 0.42561 0.0
C545 C 0.65685 0.66394 0.37578 0.0
C546 C 0.49163 0.48585 0.47375 0.0
C547 C 0.64709 0.43577 0.37071 0.0
C548 C 0.69798 0.5589 0.47559 0.0
C549 C 0.46455 0.53018 0.36513 0.0
C550 C 0.4904 0.69523 0.43854 0.0
O551 O 0.6332 0.62036 0.36237 0.0
O552 O 0.42196 0.40343 0.15426 0.0
Zn553 Zn 0.38023 0.36091 0.18689 0.0
O554 O 0.30818 0.33075 0.16871 0.0
Zn555 Zn 0.23595 0.35957 0.18609 0.0
Zn556 Zn 0.30199 0.33969 0.12553 0.0
Zn557 Zn 0.3172 0.24734 0.1744 0.0
O558 O 0.20891 0.28862 0.21419 0.0
O559 O 0.2837 0.22376 0.21224 0.0
O560 O 0.35839 0.42333 0.21888 0.0
O561 O 0.25978 0.42946 0.21435 0.0
O562 O 0.17911 0.39262 0.14986 0.0
O563 O 0.23282 0.37942 0.10834 0.0
O564 O 0.30116 0.26307 0.10556 0.0
O565 O 0.44278 0.2945 0.19746 0.0
O566 O 0.27225 0.20524 0.14315 0.0
O567 O 0.40086 0.21672 0.1756 0.0
C568 C 0.41395 0.40684 0.12578 0.0
C569 C 0.23587 0.2416 0.22374 0.0
C570 C 0.18576 0.39708 0.12071 0.0
C571 C 0.3089 0.44796 0.22559 0.0
C572 C 0.28013 0.21458 0.11512 0.0
C573 C 0.44522 0.24037 0.18853 0.0
O574 O 0.37036 0.38321 0.11237 0.0
O575 O 0.29415 0.67195 0.90426 0.0
Zn576 Zn 0.33667 0.63023 0.93688 0.0
O577 O 0.36684 0.55818 0.91871 0.0
Zn578 Zn 0.33803 0.48595 0.93609 0.0
Zn579 Zn 0.3579 0.55199 0.87552 0.0
Zn580 Zn 0.45025 0.5672 0.92441 0.0
O581 O 0.40897 0.45891 0.96419 0.0
O582 O 0.47384 0.53369 0.96224 0.0
O583 O 0.27427 0.60838 0.96888 0.0
O584 O 0.26814 0.50978 0.96435 0.0
O585 O 0.30498 0.42911 0.89986 0.0
O586 O 0.31817 0.48282 0.85834 0.0
O587 O 0.43452 0.55116 0.85556 0.0
O588 O 0.40308 0.69279 0.94745 0.0
O589 O 0.49236 0.52226 0.89315 0.0
O590 O 0.48087 0.65087 0.9256 0.0
C591 C 0.29074 0.66394 0.87578 0.0
C592 C 0.45599 0.48586 0.97374 0.0
C593 C 0.30052 0.43576 0.87071 0.0
C594 C 0.24963 0.55889 0.97559 0.0
C595 C 0.48301 0.53014 0.86512 0.0
C596 C 0.45721 0.69523 0.93853 0.0
O597 O 0.31437 0.62035 0.86237 0.0
O598 O 0.02566 0.54415 0.65426 0.0
Zn599 Zn 0.06738 0.58666 0.68689 0.0
O600 O 0.13943 0.61683 0.66871 0.0
Zn601 Zn 0.21166 0.58801 0.68609 0.0
Zn602 Zn 0.14562 0.60788 0.62553 0.0
Zn603 Zn 0.13042 0.70023 0.6744 0.0
O604 O 0.2387 0.65896 0.71419 0.0
O605 O 0.16392 0.72382 0.71224 0.0
O606 O 0.08923 0.52425 0.71888 0.0
O607 O 0.18783 0.51812 0.71435 0.0
O608 O 0.2685 0.55495 0.64986 0.0
O609 O 0.21479 0.56815 0.60834 0.0
O610 O 0.14646 0.6845 0.60556 0.0
O611 O 0.00483 0.65308 0.69746 0.0
O612 O 0.17537 0.74234 0.64315 0.0
O613 O 0.04675 0.73086 0.6756 0.0
C614 C 0.03366 0.54073 0.62578 0.0
C615 C 0.21175 0.70598 0.72374 0.0
C616 C 0.26185 0.5505 0.62071 0.0
C617 C 0.13872 0.49961 0.72559 0.0
C618 C 0.16748 0.73299 0.61512 0.0
C619 C 0.00239 0.7072 0.68853 0.0
O620 O 0.07725 0.56437 0.61237 0.0
O621 O 0.15346 0.27563 0.40426 0.0
Zn622 Zn 0.11094 0.31734 0.43688 0.0
O623 O 0.08077 0.3894 0.41871 0.0
Zn624 Zn 0.10959 0.46162 0.43609 0.0
Zn625 Zn 0.08971 0.39559 0.37552 0.0
Zn626 Zn -0.00264 0.38038 0.42441 0.0
O627 O 0.03864 0.48867 0.46419 0.0
O628 O 0.97377 0.41388 0.46224 0.0
O629 O 0.17335 0.33919 0.46888 0.0
O630 O 0.17948 0.4378 0.46435 0.0
O631 O 0.14264 0.51847 0.39986 0.0
O632 O 0.12944 0.46476 0.35834 0.0
O633 O 0.01309 0.39642 0.35556 0.0
O634 O 0.04453 0.25479 0.44745 0.0
O635 O 0.95525 0.42532 0.39315 0.0
O636 O 0.96674 0.29671 0.4256 0.0
C637 C 0.15688 0.28364 0.37578 0.0
C638 C -0.00838 0.46172 0.47374 0.0
C639 C 0.14709 0.51182 0.37071 0.0
C640 C 0.19798 0.38869 0.47559 0.0
C641 C 0.9646 0.41744 0.36512 0.0
C642 C -0.0096 0.25235 0.43853 0.0
O643 O 0.13324 0.32723 0.36237 0.0
O644 O 0.42195 0.54415 0.31802 0.0
Zn645 Zn 0.38023 0.58666 0.28539 0.0
O646 O 0.30818 0.61683 0.30357 0.0
Zn647 Zn 0.23595 0.58801 0.28619 0.0
Zn648 Zn 0.30199 0.60789 0.34675 0.0
Zn649 Zn 0.31719 0.70023 0.29787 0.0
O650 O 0.20891 0.65896 0.25809 0.0
O651 O 0.2837 0.72382 0.26004 0.0
O652 O 0.35839 0.52425 0.25339 0.0
O653 O 0.25978 0.51812 0.25793 0.0
O654 O 0.17911 0.55495 0.32242 0.0
O655 O 0.23282 0.56816 0.36394 0.0
O656 O 0.30116 0.68451 0.36671 0.0
O657 O 0.44278 0.65308 0.27482 0.0
O658 O 0.27224 0.74234 0.32913 0.0
O659 O 0.40086 0.73086 0.29668 0.0
C660 C 0.41395 0.54073 0.3465 0.0
C661 C 0.23587 0.70598 0.24853 0.0
C662 C 0.18576 0.55051 0.35157 0.0
C663 C 0.30889 0.49961 0.24669 0.0
C664 C 0.28013 0.73299 0.35715 0.0
C665 C 0.44522 0.7072 0.28375 0.0
O666 O 0.37036 0.56437 0.35991 0.0
O667 O 0.15347 0.67194 0.06802 0.0
Zn668 Zn 0.11094 0.63023 0.0354 0.0
O669 O 0.08077 0.55818 0.05357 0.0
Zn670 Zn 0.10959 0.48595 0.03619 0.0
Zn671 Zn 0.08971 0.55199 0.09676 0.0
Zn672 Zn -0.00264 0.5672 0.04787 0.0
O673 O 0.03864 0.45891 0.00809 0.0
O674 O 0.97377 0.53369 0.01004 0.0
O675 O 0.17335 0.60838 0.0034 0.0
O676 O 0.17948 0.50978 0.00793 0.0
O677 O 0.14264 0.4291 0.07242 0.0
O678 O 0.12943 0.48282 0.11394 0.0
O679 O 0.01309 0.55116 0.11672 0.0
O680 O 0.04453 0.69279 0.02483 0.0
O681 O 0.95525 0.52226 0.07913 0.0
O682 O 0.96674 0.65087 0.04668 0.0
C683 C 0.15688 0.66394 0.0965 0.0
C684 C -0.00838 0.48586 -0.00147 0.0
C685 C 0.14708 0.43576 0.10157 0.0
C686 C 0.19798 0.55889 -0.00331 0.0
C687 C 0.9646 0.53014 0.10716 0.0
C688 C -0.0096 0.69523 0.03375 0.0
O689 O 0.13324 0.62035 0.10991 0.0
O690 O 0.02566 0.40343 0.81802 0.0
Zn691 Zn 0.06738 0.36091 0.78539 0.0
O692 O 0.13944 0.33075 0.80357 0.0
Zn693 Zn 0.21166 0.35957 0.78619 0.0
Zn694 Zn 0.14562 0.33969 0.84675 0.0
Zn695 Zn 0.13042 0.24734 0.79787 0.0
O696 O 0.23871 0.28862 0.75809 0.0
O697 O 0.16392 0.22376 0.76004 0.0
O698 O 0.08923 0.42332 0.75339 0.0
O699 O 0.18783 0.42946 0.75793 0.0
O700 O 0.26851 0.39263 0.82242 0.0
O701 O 0.21479 0.37942 0.86394 0.0
O702 O 0.14645 0.26307 0.86671 0.0
O703 O 0.00483 0.2945 0.77482 0.0
O704 O 0.17537 0.20524 0.82913 0.0
O705 O 0.04675 0.21672 0.79668 0.0
C706 C 0.03366 0.40684 0.8465 0.0
C707 C 0.21175 0.2416 0.74853 0.0
C708 C 0.26185 0.39707 0.85157 0.0
C709 C 0.13872 0.44796 0.74669 0.0
C710 C 0.16748 0.21458 0.85715 0.0
C711 C 0.00239 0.24037 0.78375 0.0
O712 O 0.07725 0.38321 0.85991 0.0
O713 O 0.29415 0.27563 0.56802 0.0
Zn714 Zn 0.33667 0.31735 0.5354 0.0
O715 O 0.36684 0.3894 0.55357 0.0
Zn716 Zn 0.33802 0.46162 0.53619 0.0
Zn717 Zn 0.3579 0.39559 0.59676 0.0
Zn718 Zn 0.45025 0.38038 0.54787 0.0
O719 O 0.40898 0.48867 0.50809 0.0
O720 O 0.47384 0.41388 0.51004 0.0
O721 O 0.27427 0.3392 0.5034 0.0
O722 O 0.26814 0.4378 0.50793 0.0
O723 O 0.30497 0.51847 0.57242 0.0
O724 O 0.31818 0.46476 0.61394 0.0
O725 O 0.43452 0.39642 0.61672 0.0
O726 O 0.40308 0.25479 0.52483 0.0
O727 O 0.49236 0.42532 0.57913 0.0
O728 O 0.48087 0.29671 0.54668 0.0
C729 C 0.29073 0.28364 0.5965 0.0
C730 C 0.45599 0.46172 0.49853 0.0
C731 C 0.30053 0.51182 0.60157 0.0
C732 C 0.24963 0.38869 0.49669 0.0
C733 C 0.48301 0.41744 0.60716 0.0
C734 C 0.45721 0.25235 0.53375 0.0
O735 O 0.31437 0.32723 0.60991 0.0
loop_
_geom_bond_atom_site_label_1
_geom_bond_atom_site_label_2
_geom_bond_distance
_geom_bond_site_symmetry_2
_ccdc_geom_bond_type
O0 Zn1 1.953 . S
O0 C16 1.225 . S
Zn1 O0 1.953 . S
Zn1 O2 1.949 . S
Zn1 O8 1.919 . S
Zn1 O13 1.924 . S
O2 Zn1 1.949 . S
O2 Zn3 1.923 . S
O2 Zn4 1.950 . S
O2 Zn5 1.945 . S
Zn3 O2 1.923 . S
Zn3 O6 1.933 . S
Zn3 O9 1.941 . S
Zn3 O10 1.965 . S
Zn4 O2 1.950 . S
Zn4 O11 1.938 . S
Zn4 O12 1.906 . S
Zn4 O22 1.953 . S
Zn5 O2 1.945 . S
Zn5 O7 1.932 . S
Zn5 O14 1.977 . S
Zn5 O15 1.910 . S
O6 Zn3 1.933 . S
O6 C17 1.226 . S
O7 Zn5 1.932 . S
O7 C17 1.307 . S
O8 Zn1 1.919 . S
O8 C19 1.253 . S
O9 Zn3 1.941 . S
O9 C19 1.283 . S
O10 Zn3 1.965 . S
O10 C18 1.303 . S
O11 Zn4 1.938 . S
O11 C18 1.247 . S
O12 Zn4 1.906 . S
O12 C20 1.304 . S
O13 Zn1 1.924 . S
O13 C21 1.311 . S
O14 Zn5 1.977 . S
O14 C20 1.272 . S
O15 Zn5 1.910 . S
O15 C21 1.231 . S
C16 O0 1.225 . S
C16 O22 1.298 . S
C17 O6 1.226 . S
C17 O7 1.307 . S
C18 O10 1.303 . S
C18 O11 1.247 . S
C19 O8 1.253 . S
C19 O9 1.283 . S
C20 O12 1.304 . S
C20 O14 1.272 . S
C21 O13 1.311 . S
C21 O15 1.231 . S
O22 Zn4 1.953 . S
O22 C16 1.298 . S
O23 Zn24 1.953 . S
O23 C39 1.225 . S
Zn24 O23 1.953 . S
Zn24 O25 1.949 . S
Zn24 O31 1.919 . S
Zn24 O36 1.924 . S
O25 Zn24 1.949 . S
O25 Zn26 1.923 . S
O25 Zn27 1.950 . S
O25 Zn28 1.945 . S
Zn26 O25 1.923 . S
Zn26 O29 1.933 1_565 S
Zn26 O32 1.941 . S
Zn26 O33 1.965 1_565 S
Zn27 O25 1.950 . S
Zn27 O34 1.938 . S
Zn27 O35 1.906 . S
Zn27 O45 1.953 . S
Zn28 O25 1.945 . S
Zn28 O30 1.932 . S
Zn28 O37 1.977 1_455 S
Zn28 O38 1.914 . S
O29 Zn26 1.933 1_545 S
O29 C40 1.226 . S
O30 Zn28 1.932 . S
O30 C40 1.307 1_565 S
O31 Zn24 1.919 . S
O31 C42 1.253 . S
O32 Zn26 1.941 . S
O32 C42 1.283 . S
O33 Zn26 1.965 1_545 S
O33 C41 1.303 . S
O34 Zn27 1.938 . S
O34 C41 1.247 1_565 S
O35 Zn27 1.906 . S
O35 C43 1.304 1_455 S
O36 Zn24 1.924 . S
O36 C44 1.311 . S
O37 Zn28 1.977 1_655 S
O37 C43 1.272 . S
O38 Zn28 1.914 . S
O38 C44 1.239 . S
C39 O23 1.225 . S
C39 O45 1.298 . S
C40 O29 1.226 . S
C40 O30 1.307 1_545 S
C41 O33 1.303 . S
C41 O34 1.247 1_545 S
C42 O31 1.253 . S
C42 O32 1.283 . S
C43 O35 1.304 1_655 S
C43 O37 1.272 . S
C44 O36 1.311 . S
C44 O38 1.239 . S
O45 Zn27 1.953 . S
O45 C39 1.298 . S
O46 Zn47 1.953 . S
O46 C62 1.225 . S
Zn47 O46 1.953 . S
Zn47 O48 1.949 . S
Zn47 O54 1.919 . S
Zn47 O59 1.924 . S
O48 Zn47 1.949 . S
O48 Zn49 1.923 . S
O48 Zn50 1.950 . S
O48 Zn51 1.945 . S
Zn49 O48 1.923 . S
Zn49 O52 1.933 . S
Zn49 O55 1.941 . S
Zn49 O56 1.965 . S
Zn50 O48 1.950 . S
Zn50 O57 1.938 . S
Zn50 O58 1.906 . S
Zn50 O68 1.953 . S
Zn51 O48 1.945 . S
Zn51 O53 1.932 . S
Zn51 O60 1.977 . S
Zn51 O61 1.910 . S
O52 Zn49 1.933 . S
O52 C63 1.226 . S
O53 Zn51 1.932 . S
O53 C63 1.307 . S
O54 Zn47 1.919 . S
O54 C65 1.253 . S
O55 Zn49 1.941 . S
O55 C65 1.283 . S
O56 Zn49 1.965 . S
O56 C64 1.303 . S
O57 Zn50 1.938 . S
O57 C64 1.247 . S
O58 Zn50 1.906 . S
O58 C66 1.304 . S
O59 Zn47 1.924 . S
O59 C67 1.311 . S
O60 Zn51 1.977 . S
O60 C66 1.272 . S
O61 Zn51 1.910 . S
O61 C67 1.231 . S
C62 O46 1.225 . S
C62 O68 1.298 . S
C63 O52 1.226 . S
C63 O53 1.307 . S
C64 O56 1.303 . S
C64 O57 1.247 . S
C65 O54 1.253 . S
C65 O55 1.283 . S
C66 O58 1.304 . S
C66 O60 1.272 . S
C67 O59 1.311 . S
C67 O61 1.231 . S
O68 Zn50 1.953 . S
O68 C62 1.298 . S
O69 Zn70 1.953 . S
O69 C85 1.225 . S
Zn70 O69 1.953 . S
Zn70 O71 1.949 . S
Zn70 O77 1.919 . S
Zn70 O82 1.924 . S
O71 Zn70 1.949 . S
O71 Zn72 1.923 . S
O71 Zn73 1.950 . S
O71 Zn74 1.945 . S
Zn72 O71 1.923 . S
Zn72 O75 1.933 1_545 S
Zn72 O78 1.941 . S
Zn72 O79 1.965 1_545 S
Zn73 O71 1.950 . S
Zn73 O80 1.938 . S
Zn73 O81 1.906 . S
Zn73 O91 1.953 . S
Zn74 O71 1.945 . S
Zn74 O76 1.932 . S
Zn74 O83 1.977 . S
Zn74 O84 1.910 . S
O75 Zn72 1.933 1_565 S
O75 C86 1.226 . S
O76 Zn74 1.932 . S
O76 C86 1.307 1_545 S
O77 Zn70 1.919 . S
O77 C88 1.253 . S
O78 Zn72 1.941 . S
O78 C88 1.283 . S
O79 Zn72 1.965 1_565 S
O79 C87 1.303 . S
O80 Zn73 1.938 . S
O80 C87 1.247 1_545 S
O81 Zn73 1.906 . S
O81 C89 1.304 . S
O82 Zn70 1.924 . S
O82 C90 1.311 . S
O83 Zn74 1.977 . S
O83 C89 1.272 . S
O84 Zn74 1.910 . S
O84 C90 1.231 . S
C85 O69 1.225 . S
C85 O91 1.298 . S
C86 O75 1.226 . S
C86 O76 1.307 1_565 S
C87 O79 1.303 . S
C87 O80 1.247 1_565 S
C88 O77 1.253 . S
C88 O78 1.283 . S
C89 O81 1.304 . S
C89 O83 1.272 . S
C90 O82 1.311 . S
C90 O84 1.231 . S
O91 Zn73 1.953 . S
O91 C85 1.298 . S
O92 Zn93 1.953 . S
O92 C108 1.225 . S
Zn93 O92 1.953 . S
Zn93 O94 1.949 . S
Zn93 O100 1.919 . S
Zn93 O105 1.924 . S
O94 Zn93 1.949 . S
O94 Zn95 1.923 . S
O94 Zn96 1.950 . S
O94 Zn97 1.945 . S
Zn95 O94 1.923 . S
Zn95 O98 1.933 . S
Zn95 O101 1.941 . S
Zn95 O102 1.965 . S
Zn96 O94 1.950 . S
Zn96 O103 1.938 . S
Zn96 O104 1.906 . S
Zn96 O114 1.953 . S
Zn97 O94 1.945 . S
Zn97 O99 1.932 . S
Zn97 O106 1.977 . S
Zn97 O107 1.910 . S
O98 Zn95 1.933 . S
O98 C109 1.226 . S
O99 Zn97 1.932 . S
O99 C109 1.307 . S
O100 Zn93 1.919 . S
O100 C111 1.253 . S
O101 Zn95 1.941 . S
O101 C111 1.283 . S
O102 Zn95 1.965 . S
O102 C110 1.303 . S
O103 Zn96 1.938 . S
O103 C110 1.247 . S
O104 Zn96 1.906 . S
O104 C112 1.304 . S
O105 Zn93 1.924 . S
O105 C113 1.311 . S
O106 Zn97 1.977 . S
O106 C112 1.272 . S
O107 Zn97 1.910 . S
O107 C113 1.231 . S
C108 O92 1.225 . S
C108 O114 1.298 . S
C109 O98 1.226 . S
C109 O99 1.307 . S
C110 O102 1.303 . S
C110 O103 1.247 . S
C111 O100 1.253 . S
C111 O101 1.283 . S
C112 O104 1.304 . S
C112 O106 1.272 . S
C113 O105 1.311 . S
C113 O107 1.231 . S
O114 Zn96 1.953 . S
O114 C108 1.298 . S
O115 Zn116 1.953 . S
O115 C131 1.225 . S
Zn116 O115 1.953 . S
Zn116 O117 1.949 . S
Zn116 O123 1.919 . S
Zn116 O128 1.924 . S
O117 Zn116 1.949 . S
O117 Zn118 1.923 . S
O117 Zn119 1.950 . S
O117 Zn120 1.945 . S
Zn118 O117 1.923 . S
Zn118 O121 1.933 1_565 S
Zn118 O124 1.941 . S
Zn118 O125 1.965 1_565 S
Zn119 O117 1.950 . S
Zn119 O126 1.938 . S
Zn119 O127 1.906 . S
Zn119 O137 1.953 . S
Zn120 O117 1.945 . S
Zn120 O122 1.932 . S
Zn120 O129 1.977 . S
Zn120 O130 1.910 . S
O121 Zn118 1.933 1_545 S
O121 C132 1.226 . S
O122 Zn120 1.932 . S
O122 C132 1.307 1_565 S
O123 Zn116 1.919 . S
O123 C134 1.253 . S
O124 Zn118 1.941 . S
O124 C134 1.283 . S
O125 Zn118 1.965 1_545 S
O125 C133 1.303 . S
O126 Zn119 1.938 . S
O126 C133 1.247 1_565 S
O127 Zn119 1.906 . S
O127 C135 1.304 . S
O128 Zn116 1.924 . S
O128 C136 1.311 . S
O129 Zn120 1.977 . S
O129 C135 1.272 . S
O130 Zn120 1.910 . S
O130 C136 1.231 . S
C131 O115 1.225 . S
C131 O137 1.298 . S
C132 O121 1.226 . S
C132 O122 1.307 1_545 S
C133 O125 1.303 . S
C133 O126 1.247 1_545 S
C134 O123 1.253 . S
C134 O124 1.283 . S
C135 O127 1.304 . S
C135 O129 1.272 . S
C136 O128 1.311 . S
C136 O130 1.231 . S
O137 Zn119 1.953 . S
O137 C131 1.298 . S
O138 Zn139 1.953 . S
O138 C154 1.225 . S
Zn139 O138 1.953 . S
Zn139 O140 1.949 . S
Zn139 O146 1.919 . S
Zn139 O151 1.924 . S
O140 Zn139 1.949 . S
O140 Zn141 1.923 . S
O140 Zn142 1.950 . S
O140 Zn143 1.945 . S
Zn141 O140 1.923 . S
Zn141 O144 1.933 . S
Zn141 O147 1.941 . S
Zn141 O148 1.965 . S
Zn142 O140 1.950 . S
Zn142 O149 1.938 . S
Zn142 O150 1.906 . S
Zn142 O160 1.953 . S
Zn143 O140 1.945 . S
Zn143 O145 1.932 . S
Zn143 O152 1.977 . S
Zn143 O153 1.910 . S
O144 Zn141 1.933 . S
O144 C155 1.226 . S
O145 Zn143 1.932 . S
O145 C155 1.307 . S
O146 Zn139 1.919 . S
O146 C157 1.253 . S
O147 Zn141 1.941 . S
O147 C157 1.283 . S
O148 Zn141 1.965 . S
O148 C156 1.303 . S
O149 Zn142 1.938 . S
O149 C156 1.247 . S
O150 Zn142 1.906 . S
O150 C158 1.304 . S
O151 Zn139 1.924 . S
O151 C159 1.311 . S
O152 Zn143 1.977 . S
O152 C158 1.272 . S
O153 Zn143 1.910 . S
O153 C159 1.231 . S
C154 O138 1.225 . S
C154 O160 1.298 . S
C155 O144 1.226 . S
C155 O145 1.307 . S
C156 O148 1.303 . S
C156 O149 1.247 . S
C157 O146 1.253 . S
C157 O147 1.283 . S
C158 O150 1.304 . S
C158 O152 1.272 . S
C159 O151 1.311 . S
C159 O153 1.231 . S
O160 Zn142 1.953 . S
O160 C154 1.298 . S
O161 Zn162 1.953 . S
O161 C177 1.225 . S
Zn162 O161 1.953 . S
Zn162 O163 1.949 . S
Zn162 O169 1.919 . S
Zn162 O174 1.924 . S
O163 Zn162 1.949 . S
O163 Zn164 1.923 . S
O163 Zn165 1.950 . S
O163 Zn166 1.945 . S
Zn164 O163 1.923 . S
Zn164 O167 1.933 1_545 S
Zn164 O170 1.941 . S
Zn164 O171 1.965 1_545 S
Zn165 O163 1.950 . S
Zn165 O172 1.938 . S
Zn165 O173 1.906 . S
Zn165 O183 1.953 . S
Zn166 O163 1.945 . S
Zn166 O168 1.932 . S
Zn166 O175 1.977 1_455 S
Zn166 O176 1.914 . S
O167 Zn164 1.933 1_565 S
O167 C178 1.226 . S
O168 Zn166 1.932 . S
O168 C178 1.307 1_545 S
O169 Zn162 1.919 . S
O169 C180 1.253 . S
O170 Zn164 1.941 . S
O170 C180 1.283 . S
O171 Zn164 1.965 1_565 S
O171 C179 1.303 . S
O172 Zn165 1.938 . S
O172 C179 1.247 1_545 S
O173 Zn165 1.906 . S
O173 C181 1.304 1_455 S
O174 Zn162 1.924 . S
O174 C182 1.311 . S
O175 Zn166 1.977 1_655 S
O175 C181 1.272 . S
O176 Zn166 1.914 . S
O176 C182 1.239 . S
C177 O161 1.225 . S
C177 O183 1.298 . S
C178 O167 1.226 . S
C178 O168 1.307 1_565 S
C179 O171 1.303 . S
C179 O172 1.247 1_565 S
C180 O169 1.253 . S
C180 O170 1.283 . S
C181 O173 1.304 1_655 S
C181 O175 1.272 . S
C182 O174 1.311 . S
C182 O176 1.239 . S
O183 Zn165 1.953 . S
O183 C177 1.298 . S
O184 Zn185 1.953 . S
O184 C200 1.225 . S
Zn185 O184 1.953 . S
Zn185 O186 1.949 . S
Zn185 O192 1.919 . S
Zn185 O197 1.924 . S
O186 Zn185 1.949 . S
O186 Zn187 1.923 . S
O186 Zn188 1.950 . S
O186 Zn189 1.945 . S
Zn187 O186 1.923 . S
Zn187 O190 1.933 . S
Zn187 O193 1.941 . S
Zn187 O194 1.965 . S
Zn188 O186 1.950 . S
Zn188 O195 1.938 . S
Zn188 O196 1.906 . S
Zn188 O206 1.953 . S
Zn189 O186 1.945 . S
Zn189 O191 1.932 . S
Zn189 O198 1.977 . S
Zn189 O199 1.910 . S
O190 Zn187 1.933 . S
O190 C201 1.226 . S
O191 Zn189 1.932 . S
O191 C201 1.307 . S
O192 Zn185 1.919 . S
O192 C203 1.253 . S
O193 Zn187 1.941 . S
O193 C203 1.283 . S
O194 Zn187 1.965 . S
O194 C202 1.303 . S
O195 Zn188 1.938 . S
O195 C202 1.247 . S
O196 Zn188 1.906 . S
O196 C204 1.304 . S
O197 Zn185 1.924 . S
O197 C205 1.311 . S
O198 Zn189 1.977 . S
O198 C204 1.272 . S
O199 Zn189 1.910 . S
O199 C205 1.231 . S
C200 O184 1.225 . S
C200 O206 1.298 . S
C201 O190 1.226 . S
C201 O191 1.307 . S
C202 O194 1.303 . S
C202 O195 1.247 . S
C203 O192 1.253 . S
C203 O193 1.283 . S
C204 O196 1.304 . S
C204 O198 1.272 . S
C205 O197 1.311 . S
C205 O199 1.231 . S
O206 Zn188 1.953 . S
O206 C200 1.298 . S
O207 Zn208 1.953 . S
O207 C223 1.225 . S
Zn208 O207 1.953 . S
Zn208 O209 1.949 . S
Zn208 O215 1.919 . S
Zn208 O220 1.924 . S
O209 Zn208 1.949 . S
O209 Zn210 1.923 . S
O209 Zn211 1.950 . S
O209 Zn212 1.945 . S
Zn210 O209 1.923 . S
Zn210 O213 1.933 1_545 S
Zn210 O216 1.941 . S
Zn210 O217 1.965 1_545 S
Zn211 O209 1.950 . S
Zn211 O218 1.938 . S
Zn211 O219 1.906 . S
Zn211 O229 1.953 . S
Zn212 O209 1.945 . S
Zn212 O214 1.932 . S
Zn212 O221 1.977 1_655 S
Zn212 O222 1.914 . S
O213 Zn210 1.933 1_565 S
O213 C224 1.226 . S
O214 Zn212 1.932 . S
O214 C224 1.307 1_545 S
O215 Zn208 1.919 . S
O215 C226 1.253 . S
O216 Zn210 1.941 . S
O216 C226 1.283 . S
O217 Zn210 1.965 1_565 S
O217 C225 1.303 . S
O218 Zn211 1.938 . S
O218 C225 1.247 1_545 S
O219 Zn211 1.906 . S
O219 C227 1.304 1_655 S
O220 Zn208 1.924 . S
O220 C228 1.311 . S
O221 Zn212 1.977 1_455 S
O221 C227 1.272 . S
O222 Zn212 1.914 . S
O222 C228 1.239 . S
C223 O207 1.225 . S
C223 O229 1.298 . S
C224 O213 1.226 . S
C224 O214 1.307 1_565 S
C225 O217 1.303 . S
C225 O218 1.247 1_565 S
C226 O215 1.253 . S
C226 O216 1.283 . S
C227 O219 1.304 1_455 S
C227 O221 1.272 . S
C228 O220 1.311 . S
C228 O222 1.239 . S
O229 Zn211 1.953 . S
O229 C223 1.298 . S
O230 Zn231 1.953 . S
O230 C246 1.225 . S
Zn231 O230 1.953 . S
Zn231 O232 1.949 . S
Zn231 O238 1.919 . S
Zn231 O243 1.924 . S
O232 Zn231 1.949 . S
O232 Zn233 1.923 . S
O232 Zn234 1.950 . S
O232 Zn235 1.945 . S
Zn233 O232 1.923 . S
Zn233 O236 1.933 . S
Zn233 O239 1.941 . S
Zn233 O240 1.965 . S
Zn234 O232 1.950 . S
Zn234 O241 1.938 . S
Zn234 O242 1.906 . S
Zn234 O252 1.953 . S
Zn235 O232 1.945 . S
Zn235 O237 1.932 . S
Zn235 O244 1.977 . S
Zn235 O245 1.910 . S
O236 Zn233 1.933 . S
O236 C247 1.226 . S
O237 Zn235 1.932 . S
O237 C247 1.307 . S
O238 Zn231 1.919 . S
O238 C249 1.253 . S
O239 Zn233 1.941 . S
O239 C249 1.283 . S
O240 Zn233 1.965 . S
O240 C248 1.303 . S
O241 Zn234 1.938 . S
O241 C248 1.247 . S
O242 Zn234 1.906 . S
O242 C250 1.304 . S
O243 Zn231 1.924 . S
O243 C251 1.311 . S
O244 Zn235 1.977 . S
O244 C250 1.272 . S
O245 Zn235 1.910 . S
O245 C251 1.231 . S
C246 O230 1.225 . S
C246 O252 1.298 . S
C247 O236 1.226 . S
C247 O237 1.307 . S
C248 O240 1.303 . S
C248 O241 1.247 . S
C249 O238 1.253 . S
C249 O239 1.283 . S
C250 O242 1.304 . S
C250 O244 1.272 . S
C251 O243 1.311 . S
C251 O245 1.231 . S
O252 Zn234 1.953 . S
O252 C246 1.298 . S
O253 Zn254 1.953 . S
O253 C269 1.225 . S
Zn254 O253 1.953 . S
Zn254 O255 1.949 . S
Zn254 O261 1.919 . S
Zn254 O266 1.924 . S
O255 Zn254 1.949 . S
O255 Zn256 1.923 . S
O255 Zn257 1.950 . S
O255 Zn258 1.945 . S
Zn256 O255 1.923 . S
Zn256 O259 1.933 1_565 S
Zn256 O262 1.941 . S
Zn256 O263 1.965 1_565 S
Zn257 O255 1.950 . S
Zn257 O264 1.938 . S
Zn257 O265 1.906 . S
Zn257 O275 1.953 . S
Zn258 O255 1.945 . S
Zn258 O260 1.932 . S
Zn258 O267 1.977 . S
Zn258 O268 1.910 . S
O259 Zn256 1.933 1_545 S
O259 C270 1.226 . S
O260 Zn258 1.932 . S
O260 C270 1.307 1_565 S
O261 Zn254 1.919 . S
O261 C272 1.253 . S
O262 Zn256 1.941 . S
O262 C272 1.283 . S
O263 Zn256 1.965 1_545 S
O263 C271 1.303 . S
O264 Zn257 1.938 . S
O264 C271 1.247 1_565 S
O265 Zn257 1.906 . S
O265 C273 1.304 . S
O266 Zn254 1.924 . S
O266 C274 1.311 . S
O267 Zn258 1.977 . S
O267 C273 1.272 . S
O268 Zn258 1.910 . S
O268 C274 1.231 . S
C269 O253 1.225 . S
C269 O275 1.298 . S
C270 O259 1.226 . S
C270 O260 1.307 1_545 S
C271 O263 1.303 . S
C271 O264 1.247 1_545 S
C272 O261 1.253 . S
C272 O262 1.283 . S
C273 O265 1.304 . S
C273 O267 1.272 . S
C274 O266 1.311 . S
C274 O268 1.231 . S
O275 Zn257 1.953 . S
O275 C269 1.298 . S
O276 Zn277 1.953 . S
O276 C292 1.225 . S
Zn277 O276 1.953 . S
Zn277 O278 1.949 . S
Zn277 O284 1.919 . S
Zn277 O289 1.924 . S
O278 Zn277 1.949 . S
O278 Zn279 1.923 . S
O278 Zn280 1.950 . S
O278 Zn281 1.945 . S
Zn279 O278 1.923 . S
Zn279 O282 1.933 . S
Zn279 O285 1.941 . S
Zn279 O286 1.965 . S
Zn280 O278 1.950 . S
Zn280 O287 1.938 . S
Zn280 O288 1.906 . S
Zn280 O298 1.953 . S
Zn281 O278 1.945 . S
Zn281 O283 1.932 . S
Zn281 O290 1.977 . S
Zn281 O291 1.910 . S
O282 Zn279 1.933 . S
O282 C293 1.226 . S
O283 Zn281 1.932 . S
O283 C293 1.307 . S
O284 Zn277 1.919 . S
O284 C295 1.253 . S
O285 Zn279 1.941 . S
O285 C295 1.283 . S
O286 Zn279 1.965 . S
O286 C294 1.303 . S
O287 Zn280 1.938 . S
O287 C294 1.247 . S
O288 Zn280 1.906 . S
O288 C296 1.304 . S
O289 Zn277 1.924 . S
O289 C297 1.311 . S
O290 Zn281 1.977 . S
O290 C296 1.272 . S
O291 Zn281 1.910 . S
O291 C297 1.231 . S
C292 O276 1.225 . S
C292 O298 1.298 . S
C293 O282 1.226 . S
C293 O283 1.307 . S
C294 O286 1.303 . S
C294 O287 1.247 . S
C295 O284 1.253 . S
C295 O285 1.283 . S
C296 O288 1.304 . S
C296 O290 1.272 . S
C297 O289 1.311 . S
C297 O291 1.231 . S
O298 Zn280 1.953 . S
O298 C292 1.298 . S
O299 Zn300 1.953 . S
O299 C315 1.225 . S
Zn300 O299 1.953 . S
Zn300 O301 1.949 . S
Zn300 O307 1.919 . S
Zn300 O312 1.924 . S
O301 Zn300 1.949 . S
O301 Zn302 1.923 . S
O301 Zn303 1.950 . S
O301 Zn304 1.945 . S
Zn302 O301 1.923 . S
Zn302 O305 1.933 1_545 S
Zn302 O308 1.941 . S
Zn302 O309 1.965 1_545 S
Zn303 O301 1.950 . S
Zn303 O310 1.938 . S
Zn303 O311 1.906 . S
Zn303 O321 1.953 . S
Zn304 O301 1.945 . S
Zn304 O306 1.932 . S
Zn304 O313 1.977 . S
Zn304 O314 1.910 . S
O305 Zn302 1.933 1_565 S
O305 C316 1.226 . S
O306 Zn304 1.932 . S
O306 C316 1.307 1_545 S
O307 Zn300 1.919 . S
O307 C318 1.253 . S
O308 Zn302 1.941 . S
O308 C318 1.283 . S
O309 Zn302 1.965 1_565 S
O309 C317 1.303 . S
O310 Zn303 1.938 . S
O310 C317 1.247 1_545 S
O311 Zn303 1.906 . S
O311 C319 1.304 . S
O312 Zn300 1.924 . S
O312 C320 1.311 . S
O313 Zn304 1.977 . S
O313 C319 1.272 . S
O314 Zn304 1.910 . S
O314 C320 1.231 . S
C315 O299 1.225 . S
C315 O321 1.298 . S
C316 O305 1.226 . S
C316 O306 1.307 1_565 S
C317 O309 1.303 . S
C317 O310 1.247 1_565 S
C318 O307 1.253 . S
C318 O308 1.283 . S
C319 O311 1.304 . S
C319 O313 1.272 . S
C320 O312 1.311 . S
C320 O314 1.231 . S
O321 Zn303 1.953 . S
O321 C315 1.298 . S
O322 Zn323 1.953 . S
O322 C338 1.225 . S
Zn323 O322 1.953 . S
Zn323 O324 1.949 . S
Zn323 O330 1.919 . S
Zn323 O335 1.924 . S
O324 Zn323 1.949 . S
O324 Zn325 1.923 . S
O324 Zn326 1.950 . S
O324 Zn327 1.945 . S
Zn325 O324 1.923 . S
Zn325 O328 1.933 . S
Zn325 O331 1.941 . S
Zn325 O332 1.965 . S
Zn326 O324 1.950 . S
Zn326 O333 1.938 . S
Zn326 O334 1.906 . S
Zn326 O344 1.953 . S
Zn327 O324 1.945 . S
Zn327 O329 1.932 . S
Zn327 O336 1.977 . S
Zn327 O337 1.910 . S
O328 Zn325 1.933 . S
O328 C339 1.226 . S
O329 Zn327 1.932 . S
O329 C339 1.307 . S
O330 Zn323 1.919 . S
O330 C341 1.253 . S
O331 Zn325 1.941 . S
O331 C341 1.283 . S
O332 Zn325 1.965 . S
O332 C340 1.303 . S
O333 Zn326 1.938 . S
O333 C340 1.247 . S
O334 Zn326 1.906 . S
O334 C342 1.304 . S
O335 Zn323 1.924 . S
O335 C343 1.311 . S
O336 Zn327 1.977 . S
O336 C342 1.272 . S
O337 Zn327 1.910 . S
O337 C343 1.231 . S
C338 O322 1.225 . S
C338 O344 1.298 . S
C339 O328 1.226 . S
C339 O329 1.307 . S
C340 O332 1.303 . S
C340 O333 1.247 . S
C341 O330 1.253 . S
C341 O331 1.283 . S
C342 O334 1.304 . S
C342 O336 1.272 . S
C343 O335 1.311 . S
C343 O337 1.231 . S
O344 Zn326 1.953 . S
O344 C338 1.298 . S
O345 Zn346 1.953 . S
O345 C361 1.225 . S
Zn346 O345 1.953 . S
Zn346 O347 1.949 . S
Zn346 O353 1.919 . S
Zn346 O358 1.924 . S
O347 Zn346 1.949 . S
O347 Zn348 1.923 . S
O347 Zn349 1.950 . S
O347 Zn350 1.945 . S
Zn348 O347 1.923 . S
Zn348 O351 1.933 1_565 S
Zn348 O354 1.941 . S
Zn348 O355 1.965 1_565 S
Zn349 O347 1.950 . S
Zn349 O356 1.938 . S
Zn349 O357 1.906 . S
Zn349 O367 1.953 . S
Zn350 O347 1.945 . S
Zn350 O352 1.932 . S
Zn350 O359 1.977 1_655 S
Zn350 O360 1.914 . S
O351 Zn348 1.933 1_545 S
O351 C362 1.226 . S
O352 Zn350 1.932 . S
O352 C362 1.307 1_565 S
O353 Zn346 1.919 . S
O353 C364 1.253 . S
O354 Zn348 1.941 . S
O354 C364 1.283 . S
O355 Zn348 1.965 1_545 S
O355 C363 1.303 . S
O356 Zn349 1.938 . S
O356 C363 1.247 1_565 S
O357 Zn349 1.906 . S
O357 C365 1.304 1_655 S
O358 Zn346 1.924 . S
O358 C366 1.311 . S
O359 Zn350 1.977 1_455 S
O359 C365 1.272 . S
O360 Zn350 1.914 . S
O360 C366 1.239 . S
C361 O345 1.225 . S
C361 O367 1.298 . S
C362 O351 1.226 . S
C362 O352 1.307 1_545 S
C363 O355 1.303 . S
C363 O356 1.247 1_545 S
C364 O353 1.253 . S
C364 O354 1.283 . S
C365 O357 1.304 1_455 S
C365 O359 1.272 . S
C366 O358 1.311 . S
C366 O360 1.239 . S
O367 Zn349 1.953 . S
O367 C361 1.298 . S
O368 Zn369 1.953 . S
O368 C384 1.225 . S
Zn369 O368 1.953 . S
Zn369 O370 1.949 . S
Zn369 O376 1.919 . S
Zn369 O381 1.924 . S
O370 Zn369 1.949 . S
O370 Zn371 1.923 . S
O370 Zn372 1.950 . S
O370 Zn373 1.945 . S
Zn371 O370 1.923 . S
Zn371 O374 1.933 . S
Zn371 O377 1.941 . S
Zn371 O378 1.965 . S
Zn372 O370 1.950 . S
Zn372 O379 1.938 . S
Zn372 O380 1.906 . S
Zn372 O390 1.953 . S
Zn373 O370 1.945 . S
Zn373 O375 1.932 . S
Zn373 O382 1.977 . S
Zn373 O383 1.910 . S
O374 Zn371 1.933 . S
O374 C385 1.226 . S
O375 Zn373 1.932 . S
O375 C385 1.307 . S
O376 Zn369 1.919 . S
O376 C387 1.253 . S
O377 Zn371 1.941 . S
O377 C387 1.283 . S
O378 Zn371 1.965 . S
O378 C386 1.303 . S
O379 Zn372 1.938 . S
O379 C386 1.247 . S
O380 Zn372 1.906 . S
O380 C388 1.304 . S
O381 Zn369 1.924 . S
O381 C389 1.311 . S
O382 Zn373 1.977 . S
O382 C388 1.272 . S
O383 Zn373 1.910 . S
O383 C389 1.231 . S
C384 O368 1.225 . S
C384 O390 1.298 . S
C385 O374 1.226 . S
C385 O375 1.307 . S
C386 O378 1.303 . S
C386 O379 1.247 . S
C387 O376 1.253 . S
C387 O377 1.283 . S
C388 O380 1.304 . S
C388 O382 1.272 . S
C389 O381 1.311 . S
C389 O383 1.231 . S
O390 Zn372 1.953 . S
O390 C384 1.298 . S
O391 Zn392 1.953 . S
O391 C407 1.225 . S
Zn392 O391 1.953 . S
Zn392 O393 1.949 . S
Zn392 O399 1.919 . S
Zn392 O404 1.924 . S
O393 Zn392 1.949 . S
O393 Zn394 1.923 . S
O393 Zn395 1.950 . S
O393 Zn396 1.945 . S
Zn394 O393 1.923 . S
Zn394 O397 1.933 . S
Zn394 O400 1.941 . S
Zn394 O401 1.965 . S
Zn395 O393 1.950 . S
Zn395 O402 1.938 . S
Zn395 O403 1.906 . S
Zn395 O413 1.953 . S
Zn396 O393 1.945 . S
Zn396 O398 1.932 . S
Zn396 O405 1.977 . S
Zn396 O406 1.910 . S
O397 Zn394 1.933 . S
O397 C408 1.226 . S
O398 Zn396 1.932 . S
O398 C408 1.307 . S
O399 Zn392 1.919 . S
O399 C410 1.253 . S
O400 Zn394 1.941 . S
O400 C410 1.283 . S
O401 Zn394 1.965 . S
O401 C409 1.303 . S
O402 Zn395 1.938 . S
O402 C409 1.247 . S
O403 Zn395 1.906 . S
O403 C411 1.304 . S
O404 Zn392 1.924 . S
O404 C412 1.311 . S
O405 Zn396 1.977 . S
O405 C411 1.272 . S
O406 Zn396 1.910 . S
O406 C412 1.231 . S
C407 O391 1.225 . S
C407 O413 1.298 . S
C408 O397 1.226 . S
C408 O398 1.307 . S
C409 O401 1.303 . S
C409 O402 1.247 . S
C410 O399 1.253 . S
C410 O400 1.283 . S
C411 O403 1.304 . S
C411 O405 1.272 . S
C412 O404 1.311 . S
C412 O406 1.231 . S
O413 Zn395 1.953 . S
O413 C407 1.298 . S
O414 Zn415 1.953 . S
O414 C430 1.225 . S
Zn415 O414 1.953 . S
Zn415 O416 1.949 . S
Zn415 O422 1.919 . S
Zn415 O427 1.924 . S
O416 Zn415 1.949 . S
O416 Zn417 1.923 . S
O416 Zn418 1.950 . S
O416 Zn419 1.945 . S
Zn417 O416 1.923 . S
Zn417 O420 1.933 . S
Zn417 O423 1.941 . S
Zn417 O424 1.965 . S
Zn418 O416 1.950 . S
Zn418 O425 1.938 . S
Zn418 O426 1.906 . S
Zn418 O436 1.953 . S
Zn419 O416 1.945 . S
Zn419 O421 1.932 . S
Zn419 O428 1.977 . S
Zn419 O429 1.910 . S
O420 Zn417 1.933 . S
O420 C431 1.226 . S
O421 Zn419 1.932 . S
O421 C431 1.307 . S
O422 Zn415 1.919 . S
O422 C433 1.253 . S
O423 Zn417 1.941 . S
O423 C433 1.283 . S
O424 Zn417 1.965 . S
O424 C432 1.303 . S
O425 Zn418 1.938 . S
O425 C432 1.247 . S
O426 Zn418 1.906 . S
O426 C434 1.304 . S
O427 Zn415 1.924 . S
O427 C435 1.311 . S
O428 Zn419 1.977 . S
O428 C434 1.272 . S
O429 Zn419 1.910 . S
O429 C435 1.231 . S
C430 O414 1.225 . S
C430 O436 1.298 . S
C431 O420 1.226 . S
C431 O421 1.307 . S
C432 O424 1.303 . S
C432 O425 1.247 . S
C433 O422 1.253 . S
C433 O423 1.283 . S
C434 O426 1.304 . S
C434 O428 1.272 . S
C435 O427 1.311 . S
C435 O429 1.231 . S
O436 Zn418 1.953 . S
O436 C430 1.298 . S
O437 Zn438 1.953 . S
O437 C453 1.225 . S
Zn438 O437 1.953 . S
Zn438 O439 1.949 . S
Zn438 O445 1.919 . S
Zn438 O450 1.924 . S
O439 Zn438 1.949 . S
O439 Zn440 1.923 . S
O439 Zn441 1.950 . S
O439 Zn442 1.945 . S
Zn440 O439 1.923 . S
Zn440 O443 1.933 . S
Zn440 O446 1.941 . S
Zn440 O447 1.965 . S
Zn441 O439 1.950 . S
Zn441 O448 1.938 . S
Zn441 O449 1.906 . S
Zn441 O459 1.953 . S
Zn442 O439 1.945 . S
Zn442 O444 1.932 . S
Zn442 O451 1.977 1_655 S
Zn442 O452 1.914 . S
O443 Zn440 1.933 . S
O443 C454 1.226 . S
O444 Zn442 1.932 . S
O444 C454 1.307 . S
O445 Zn438 1.919 . S
O445 C456 1.253 . S
O446 Zn440 1.941 . S
O446 C456 1.283 . S
O447 Zn440 1.965 . S
O447 C455 1.303 . S
O448 Zn441 1.938 . S
O448 C455 1.247 . S
O449 Zn441 1.906 . S
O449 C457 1.304 1_655 S
O450 Zn438 1.924 . S
O450 C458 1.311 . S
O451 Zn442 1.977 1_455 S
O451 C457 1.272 . S
O452 Zn442 1.914 . S
O452 C458 1.239 . S
C453 O437 1.225 . S
C453 O459 1.298 . S
C454 O443 1.226 . S
C454 O444 1.307 . S
C455 O447 1.303 . S
C455 O448 1.247 . S
C456 O445 1.253 . S
C456 O446 1.283 . S
C457 O449 1.304 1_455 S
C457 O451 1.272 . S
C458 O450 1.311 . S
C458 O452 1.239 . S
O459 Zn441 1.953 . S
O459 C453 1.298 . S
O460 Zn461 1.953 . S
O460 C476 1.225 . S
Zn461 O460 1.953 . S
Zn461 O462 1.949 . S
Zn461 O468 1.919 . S
Zn461 O473 1.924 . S
O462 Zn461 1.949 . S
O462 Zn463 1.923 . S
O462 Zn464 1.950 . S
O462 Zn465 1.945 . S
Zn463 O462 1.923 . S
Zn463 O466 1.933 . S
Zn463 O469 1.941 . S
Zn463 O470 1.965 . S
Zn464 O462 1.950 . S
Zn464 O471 1.938 . S
Zn464 O472 1.906 . S
Zn464 O482 1.953 . S
Zn465 O462 1.945 . S
Zn465 O467 1.932 . S
Zn465 O474 1.977 . S
Zn465 O475 1.910 . S
O466 Zn463 1.933 . S
O466 C477 1.226 . S
O467 Zn465 1.932 . S
O467 C477 1.307 . S
O468 Zn461 1.919 . S
O468 C479 1.253 . S
O469 Zn463 1.941 . S
O469 C479 1.283 . S
O470 Zn463 1.965 . S
O470 C478 1.303 . S
O471 Zn464 1.938 . S
O471 C478 1.247 . S
O472 Zn464 1.906 . S
O472 C480 1.304 . S
O473 Zn461 1.924 . S
O473 C481 1.311 . S
O474 Zn465 1.977 . S
O474 C480 1.272 . S
O475 Zn465 1.910 . S
O475 C481 1.231 . S
C476 O460 1.225 . S
C476 O482 1.298 . S
C477 O466 1.226 . S
C477 O467 1.307 . S
C478 O470 1.303 . S
C478 O471 1.247 . S
C479 O468 1.253 . S
C479 O469 1.283 . S
C480 O472 1.304 . S
C480 O474 1.272 . S
C481 O473 1.311 . S
C481 O475 1.231 . S
O482 Zn464 1.953 . S
O482 C476 1.298 . S
O483 Zn484 1.953 . S
O483 C499 1.225 . S
Zn484 O483 1.953 . S
Zn484 O485 1.949 . S
Zn484 O491 1.919 . S
Zn484 O496 1.924 . S
O485 Zn484 1.949 . S
O485 Zn486 1.923 . S
O485 Zn487 1.950 . S
O485 Zn488 1.945 . S
Zn486 O485 1.923 . S
Zn486 O489 1.933 . S
Zn486 O492 1.941 . S
Zn486 O493 1.965 . S
Zn487 O485 1.950 . S
Zn487 O494 1.938 . S
Zn487 O495 1.906 . S
Zn487 O505 1.953 . S
Zn488 O485 1.945 . S
Zn488 O490 1.932 . S
Zn488 O497 1.977 1_655 S
Zn488 O498 1.914 . S
O489 Zn486 1.933 . S
O489 C500 1.226 . S
O490 Zn488 1.932 . S
O490 C500 1.307 . S
O491 Zn484 1.919 . S
O491 C502 1.253 . S
O492 Zn486 1.941 . S
O492 C502 1.283 . S
O493 Zn486 1.965 . S
O493 C501 1.303 . S
O494 Zn487 1.938 . S
O494 C501 1.247 . S
O495 Zn487 1.906 . S
O495 C503 1.304 1_655 S
O496 Zn484 1.924 . S
O496 C504 1.311 . S
O497 Zn488 1.977 1_455 S
O497 C503 1.272 . S
O498 Zn488 1.914 . S
O498 C504 1.239 . S
C499 O483 1.225 . S
C499 O505 1.298 . S
C500 O489 1.226 . S
C500 O490 1.307 . S
C501 O493 1.303 . S
C501 O494 1.247 . S
C502 O491 1.253 . S
C502 O492 1.283 . S
C503 O495 1.304 1_455 S
C503 O497 1.272 . S
C504 O496 1.311 . S
C504 O498 1.239 . S
O505 Zn487 1.953 . S
O505 C499 1.298 . S
O506 Zn507 1.953 . S
O506 C522 1.225 . S
Zn507 O506 1.953 . S
Zn507 O508 1.949 . S
Zn507 O514 1.919 . S
Zn507 O519 1.924 . S
O508 Zn507 1.949 . S
O508 Zn509 1.923 . S
O508 Zn510 1.950 . S
O508 Zn511 1.945 . S
Zn509 O508 1.923 . S
Zn509 O512 1.933 . S
Zn509 O515 1.941 . S
Zn509 O516 1.965 . S
Zn510 O508 1.950 . S
Zn510 O517 1.938 . S
Zn510 O518 1.906 . S
Zn510 O528 1.953 . S
Zn511 O508 1.945 . S
Zn511 O513 1.932 . S
Zn511 O520 1.977 . S
Zn511 O521 1.910 . S
O512 Zn509 1.933 . S
O512 C523 1.226 . S
O513 Zn511 1.932 . S
O513 C523 1.307 . S
O514 Zn507 1.919 . S
O514 C525 1.253 . S
O515 Zn509 1.941 . S
O515 C525 1.283 . S
O516 Zn509 1.965 . S
O516 C524 1.303 . S
O517 Zn510 1.938 . S
O517 C524 1.247 . S
O518 Zn510 1.906 . S
O518 C526 1.304 . S
O519 Zn507 1.924 . S
O519 C527 1.311 . S
O520 Zn511 1.977 . S
O520 C526 1.272 . S
O521 Zn511 1.910 . S
O521 C527 1.231 . S
C522 O506 1.225 . S
C522 O528 1.298 . S
C523 O512 1.226 . S
C523 O513 1.307 . S
C524 O516 1.303 . S
C524 O517 1.247 . S
C525 O514 1.253 . S
C525 O515 1.283 . S
C526 O518 1.304 . S
C526 O520 1.272 . S
C527 O519 1.311 . S
C527 O521 1.231 . S
O528 Zn510 1.953 . S
O528 C522 1.298 . S
O529 Zn530 1.953 . S
O529 C545 1.225 . S
Zn530 O529 1.953 . S
Zn530 O531 1.949 . S
Zn530 O537 1.919 . S
Zn530 O542 1.924 . S
O531 Zn530 1.949 . S
O531 Zn532 1.923 . S
O531 Zn533 1.950 . S
O531 Zn534 1.945 . S
Zn532 O531 1.923 . S
Zn532 O535 1.933 . S
Zn532 O538 1.941 . S
Zn532 O539 1.965 . S
Zn533 O531 1.950 . S
Zn533 O540 1.938 . S
Zn533 O541 1.906 . S
Zn533 O551 1.953 . S
Zn534 O531 1.945 . S
Zn534 O536 1.932 . S
Zn534 O543 1.977 . S
Zn534 O544 1.910 . S
O535 Zn532 1.933 . S
O535 C546 1.226 . S
O536 Zn534 1.932 . S
O536 C546 1.307 . S
O537 Zn530 1.919 . S
O537 C548 1.253 . S
O538 Zn532 1.941 . S
O538 C548 1.283 . S
O539 Zn532 1.965 . S
O539 C547 1.303 . S
O540 Zn533 1.938 . S
O540 C547 1.247 . S
O541 Zn533 1.906 . S
O541 C549 1.304 . S
O542 Zn530 1.924 . S
O542 C550 1.311 . S
O543 Zn534 1.977 . S
O543 C549 1.272 . S
O544 Zn534 1.910 . S
O544 C550 1.231 . S
C545 O529 1.225 . S
C545 O551 1.298 . S
C546 O535 1.226 . S
C546 O536 1.307 . S
C547 O539 1.303 . S
C547 O540 1.247 . S
C548 O537 1.253 . S
C548 O538 1.283 . S
C549 O541 1.304 . S
C549 O543 1.272 . S
C550 O542 1.311 . S
C550 O544 1.231 . S
O551 Zn533 1.953 . S
O551 C545 1.298 . S
O552 Zn553 1.953 . S
O552 C568 1.225 . S
Zn553 O552 1.953 . S
Zn553 O554 1.949 . S
Zn553 O560 1.919 . S
Zn553 O565 1.924 . S
O554 Zn553 1.949 . S
O554 Zn555 1.923 . S
O554 Zn556 1.950 . S
O554 Zn557 1.945 . S
Zn555 O554 1.923 . S
Zn555 O558 1.933 . S
Zn555 O561 1.941 . S
Zn555 O562 1.965 . S
Zn556 O554 1.950 . S
Zn556 O563 1.938 . S
Zn556 O564 1.906 . S
Zn556 O574 1.953 . S
Zn557 O554 1.945 . S
Zn557 O559 1.932 . S
Zn557 O566 1.977 . S
Zn557 O567 1.910 . S
O558 Zn555 1.933 . S
O558 C569 1.226 . S
O559 Zn557 1.932 . S
O559 C569 1.307 . S
O560 Zn553 1.919 . S
O560 C571 1.253 . S
O561 Zn555 1.941 . S
O561 C571 1.283 . S
O562 Zn555 1.965 . S
O562 C570 1.303 . S
O563 Zn556 1.938 . S
O563 C570 1.247 . S
O564 Zn556 1.906 . S
O564 C572 1.304 . S
O565 Zn553 1.924 . S
O565 C573 1.311 . S
O566 Zn557 1.977 . S
O566 C572 1.272 . S
O567 Zn557 1.910 . S
O567 C573 1.231 . S
C568 O552 1.225 . S
C568 O574 1.298 . S
C569 O558 1.226 . S
C569 O559 1.307 . S
C570 O562 1.303 . S
C570 O563 1.247 . S
C571 O560 1.253 . S
C571 O561 1.283 . S
C572 O564 1.304 . S
C572 O566 1.272 . S
C573 O565 1.311 . S
C573 O567 1.231 . S
O574 Zn556 1.953 . S
O574 C568 1.298 . S
O575 Zn576 1.953 . S
O575 C591 1.225 . S
Zn576 O575 1.953 . S
Zn576 O577 1.949 . S
Zn576 O583 1.919 . S
Zn576 O588 1.924 . S
O577 Zn576 1.949 . S
O577 Zn578 1.923 . S
O577 Zn579 1.950 . S
O577 Zn580 1.945 . S
Zn578 O577 1.923 . S
Zn578 O581 1.933 . S
Zn578 O584 1.941 . S
Zn578 O585 1.965 . S
Zn579 O577 1.950 . S
Zn579 O586 1.938 . S
Zn579 O587 1.906 . S
Zn579 O597 1.953 . S
Zn580 O577 1.945 . S
Zn580 O582 1.932 . S
Zn580 O589 1.977 . S
Zn580 O590 1.910 . S
O581 Zn578 1.933 . S
O581 C592 1.226 . S
O582 Zn580 1.932 . S
O582 C592 1.307 . S
O583 Zn576 1.919 . S
O583 C594 1.253 . S
O584 Zn578 1.941 . S
O584 C594 1.283 . S
O585 Zn578 1.965 . S
O585 C593 1.303 . S
O586 Zn579 1.938 . S
O586 C593 1.247 . S
O587 Zn579 1.906 . S
O587 C595 1.304 . S
O588 Zn576 1.924 . S
O588 C596 1.311 . S
O589 Zn580 1.977 . S
O589 C595 1.272 . S
O590 Zn580 1.910 . S
O590 C596 1.231 . S
C591 O575 1.225 . S
C591 O597 1.298 . S
C592 O581 1.226 . S
C592 O582 1.307 . S
C593 O585 1.303 . S
C593 O586 1.247 . S
C594 O583 1.253 . S
C594 O584 1.283 . S
C595 O587 1.304 . S
C595 O589 1.272 . S
C596 O588 1.311 . S
C596 O590 1.231 . S
O597 Zn579 1.953 . S
O597 C591 1.298 . S
O598 Zn599 1.953 . S
O598 C614 1.225 . S
Zn599 O598 1.953 . S
Zn599 O600 1.949 . S
Zn599 O606 1.919 . S
Zn599 O611 1.924 . S
O600 Zn599 1.949 . S
O600 Zn601 1.923 . S
O600 Zn602 1.950 . S
O600 Zn603 1.945 . S
Zn601 O600 1.923 . S
Zn601 O604 1.933 . S
Zn601 O607 1.941 . S
Zn601 O608 1.965 . S
Zn602 O600 1.950 . S
Zn602 O609 1.938 . S
Zn602 O610 1.906 . S
Zn602 O620 1.953 . S
Zn603 O600 1.945 . S
Zn603 O605 1.932 . S
Zn603 O612 1.977 . S
Zn603 O613 1.910 . S
O604 Zn601 1.933 . S
O604 C615 1.226 . S
O605 Zn603 1.932 . S
O605 C615 1.307 . S
O606 Zn599 1.919 . S
O606 C617 1.253 . S
O607 Zn601 1.941 . S
O607 C617 1.283 . S
O608 Zn601 1.965 . S
O608 C616 1.303 . S
O609 Zn602 1.938 . S
O609 C616 1.247 . S
O610 Zn602 1.906 . S
O610 C618 1.304 . S
O611 Zn599 1.924 . S
O611 C619 1.311 . S
O612 Zn603 1.977 . S
O612 C618 1.272 . S
O613 Zn603 1.910 . S
O613 C619 1.231 . S
C614 O598 1.225 . S
C614 O620 1.298 . S
C615 O604 1.226 . S
C615 O605 1.307 . S
C616 O608 1.303 . S
C616 O609 1.247 . S
C617 O606 1.253 . S
C617 O607 1.283 . S
C618 O610 1.304 . S
C618 O612 1.272 . S
C619 O611 1.311 . S
C619 O613 1.231 . S
O620 Zn602 1.953 . S
O620 C614 1.298 . S
O621 Zn622 1.953 . S
O621 C637 1.225 . S
Zn622 O621 1.953 . S
Zn622 O623 1.949 . S
Zn622 O629 1.919 . S
Zn622 O634 1.924 . S
O623 Zn622 1.949 . S
O623 Zn624 1.923 . S
O623 Zn625 1.950 . S
O623 Zn626 1.945 . S
Zn624 O623 1.923 . S
Zn624 O627 1.933 . S
Zn624 O630 1.941 . S
Zn624 O631 1.965 . S
Zn625 O623 1.950 . S
Zn625 O632 1.938 . S
Zn625 O633 1.906 . S
Zn625 O643 1.953 . S
Zn626 O623 1.945 . S
Zn626 O628 1.932 . S
Zn626 O635 1.977 1_455 S
Zn626 O636 1.914 . S
O627 Zn624 1.933 . S
O627 C638 1.226 . S
O628 Zn626 1.932 . S
O628 C638 1.307 . S
O629 Zn622 1.919 . S
O629 C640 1.253 . S
O630 Zn624 1.941 . S
O630 C640 1.283 . S
O631 Zn624 1.965 . S
O631 C639 1.303 . S
O632 Zn625 1.938 . S
O632 C639 1.247 . S
O633 Zn625 1.906 . S
O633 C641 1.304 1_455 S
O634 Zn622 1.924 . S
O634 C642 1.311 . S
O635 Zn626 1.977 1_655 S
O635 C641 1.272 . S
O636 Zn626 1.914 . S
O636 C642 1.239 . S
C637 O621 1.225 . S
C637 O643 1.298 . S
C638 O627 1.226 . S
C638 O628 1.307 . S
C639 O631 1.303 . S
C639 O632 1.247 . S
C640 O629 1.253 . S
C640 O630 1.283 . S
C641 O633 1.304 1_655 S
C641 O635 1.272 . S
C642 O634 1.311 . S
C642 O636 1.239 . S
O643 Zn625 1.953 . S
O643 C637 1.298 . S
O644 Zn645 1.953 . S
O644 C660 1.225 . S
Zn645 O644 1.953 . S
Zn645 O646 1.949 . S
Zn645 O652 1.919 . S
Zn645 O657 1.924 . S
O646 Zn645 1.949 . S
O646 Zn647 1.923 . S
O646 Zn648 1.950 . S
O646 Zn649 1.945 . S
Zn647 O646 1.923 . S
Zn647 O650 1.933 . S
Zn647 O653 1.941 . S
Zn647 O654 1.965 . S
Zn648 O646 1.950 . S
Zn648 O655 1.938 . S
Zn648 O656 1.906 . S
Zn648 O666 1.953 . S
Zn649 O646 1.945 . S
Zn649 O651 1.932 . S
Zn649 O658 1.977 . S
Zn649 O659 1.910 . S
O650 Zn647 1.933 . S
O650 C661 1.226 . S
O651 Zn649 1.932 . S
O651 C661 1.307 . S
O652 Zn645 1.919 . S
O652 C663 1.253 . S
O653 Zn647 1.941 . S
O653 C663 1.283 . S
O654 Zn647 1.965 . S
O654 C662 1.303 . S
O655 Zn648 1.938 . S
O655 C662 1.247 . S
O656 Zn648 1.906 . S
O656 C664 1.304 . S
O657 Zn645 1.924 . S
O657 C665 1.311 . S
O658 Zn649 1.977 . S
O658 C664 1.272 . S
O659 Zn649 1.910 . S
O659 C665 1.231 . S
C660 O644 1.225 . S
C660 O666 1.298 . S
C661 O650 1.226 . S
C661 O651 1.307 . S
C662 O654 1.303 . S
C662 O655 1.247 . S
C663 O652 1.253 . S
C663 O653 1.283 . S
C664 O656 1.304 . S
C664 O658 1.272 . S
C665 O657 1.311 . S
C665 O659 1.231 . S
O666 Zn648 1.953 . S
O666 C660 1.298 . S
O667 Zn668 1.953 . S
O667 C683 1.225 . S
Zn668 O667 1.953 . S
Zn668 O669 1.949 . S
Zn668 O675 1.919 . S
Zn668 O680 1.924 . S
O669 Zn668 1.949 . S
O669 Zn670 1.923 . S
O669 Zn671 1.950 . S
O669 Zn672 1.945 . S
Zn670 O669 1.923 . S
Zn670 O673 1.933 . S
Zn670 O676 1.941 . S
Zn670 O677 1.965 . S
Zn671 O669 1.950 . S
Zn671 O678 1.938 . S
Zn671 O679 1.906 . S
Zn671 O689 1.953 . S
Zn672 O669 1.945 . S
Zn672 O674 1.932 . S
Zn672 O681 1.977 1_455 S
Zn672 O682 1.914 . S
O673 Zn670 1.933 . S
O673 C684 1.226 . S
O674 Zn672 1.932 . S
O674 C684 1.307 . S
O675 Zn668 1.919 . S
O675 C686 1.253 . S
O676 Zn670 1.941 . S
O676 C686 1.283 . S
O677 Zn670 1.965 . S
O677 C685 1.303 . S
O678 Zn671 1.938 . S
O678 C685 1.247 . S
O679 Zn671 1.906 . S
O679 C687 1.304 1_455 S
O680 Zn668 1.924 . S
O680 C688 1.311 . S
O681 Zn672 1.977 1_655 S
O681 C687 1.272 . S
O682 Zn672 1.914 . S
O682 C688 1.239 . S
C683 O667 1.225 . S
C683 O689 1.298 . S
C684 O673 1.226 . S
C684 O674 1.307 . S
C685 O677 1.303 . S
C685 O678 1.247 . S
C686 O675 1.253 . S
C686 O676 1.283 . S
C687 O679 1.304 1_655 S
C687 O681 1.272 . S
C688 O680 1.311 . S
C688 O682 1.239 . S
O689 Zn671 1.953 . S
O689 C683 1.298 . S
O690 Zn691 1.953 . S
O690 C706 1.225 . S
Zn691 O690 1.953 . S
Zn691 O692 1.949 . S
Zn691 O698 1.919 . S
Zn691 O703 1.924 . S
O692 Zn691 1.949 . S
O692 Zn693 1.923 . S
O692 Zn694 1.950 . S
O692 Zn695 1.945 . S
Zn693 O692 1.923 . S
Zn693 O696 1.933 . S
Zn693 O699 1.941 . S
Zn693 O700 1.965 . S
Zn694 O692 1.950 . S
Zn694 O701 1.938 . S
Zn694 O702 1.906 . S
Zn694 O712 1.953 . S
Zn695 O692 1.945 . S
Zn695 O697 1.932 . S
Zn695 O704 1.977 . S
Zn695 O705 1.910 . S
O696 Zn693 1.933 . S
O696 C707 1.226 . S
O697 Zn695 1.932 . S
O697 C707 1.307 . S
O698 Zn691 1.919 . S
O698 C709 1.253 . S
O699 Zn693 1.941 . S
O699 C709 1.283 . S
O700 Zn693 1.965 . S
O700 C708 1.303 . S
O701 Zn694 1.938 . S
O701 C708 1.247 . S
O702 Zn694 1.906 . S
O702 C710 1.304 . S
O703 Zn691 1.924 . S
O703 C711 1.311 . S
O704 Zn695 1.977 . S
O704 C710 1.272 . S
O705 Zn695 1.910 . S
O705 C711 1.231 . S
C706 O690 1.225 . S
C706 O712 1.298 . S
C707 O696 1.226 . S
C707 O697 1.307 . S
C708 O700 1.303 . S
C708 O701 1.247 . S
C709 O698 1.253 . S
C709 O699 1.283 . S
C710 O702 1.304 . S
C710 O704 1.272 . S
C711 O703 1.311 . S
C711 O705 1.231 . S
O712 Zn694 1.953 . S
O712 C706 1.298 . S
O713 Zn714 1.953 . S
O713 C729 1.225 . S
Zn714 O713 1.953 . S
Zn714 O715 1.949 . S
Zn714 O721 1.919 . S
Zn714 O726 1.924 . S
O715 Zn714 1.949 . S
O715 Zn716 1.923 . S
O715 Zn717 1.950 . S
O715 Zn718 1.945 . S
Zn716 O715 1.923 . S
Zn716 O719 1.933 . S
Zn716 O722 1.941 . S
Zn716 O723 1.965 . S
Zn717 O715 1.950 . S
Zn717 O724 1.938 . S
Zn717 O725 1.906 . S
Zn717 O735 1.953 . S
Zn718 O715 1.945 . S
Zn718 O720 1.932 . S
Zn718 O727 1.977 . S
Zn718 O728 1.910 . S
O719 Zn716 1.933 . S
O719 C730 1.226 . S
O720 Zn718 1.932 . S
O720 C730 1.307 . S
O721 Zn714 1.919 . S
O721 C732 1.253 . S
O722 Zn716 1.941 . S
O722 C732 1.283 . S
O723 Zn716 1.965 . S
O723 C731 1.303 . S
O724 Zn717 1.938 . S
O724 C731 1.247 . S
O725 Zn717 1.906 . S
O725 C733 1.304 . S
O726 Zn714 1.924 . S
O726 C734 1.311 . S
O727 Zn718 1.977 . S
O727 C733 1.272 . S
O728 Zn718 1.910 . S
O728 C734 1.231 . S
C729 O713 1.225 . S
C729 O735 1.298 . S
C730 O719 1.226 . S
C730 O720 1.307 . S
C731 O723 1.303 . S
C731 O724 1.247 . S
C732 O721 1.253 . S
C732 O722 1.283 . S
C733 O725 1.304 . S
C733 O727 1.272 . S
C734 O726 1.311 . S
C734 O728 1.231 . S
O735 Zn717 1.953 . S
O735 C729 1.298 . S
C20 C637 0.806 . S
C43 C200 0.806 . S
C66 C591 0.806 . S
C246 C89 0.806 . S
C112 C683 0.806 . S
C338 C135 0.806 . S
C729 C158 0.806 . S
C181 C292 0.806 . S
C204 C453 0.806 . S
C227 C16 0.806 . S
C407 C250 0.806 . S
C62 C273 0.806 . S
C296 C499 0.806 . S
C319 C154 0.806 . S
C342 C545 0.806 . S
C108 C365 0.806 . S
C269 C388 0.806 . S
C568 C411 0.806 . S
C223 C434 0.806 . S
C457 C614 0.806 . S
C315 C480 0.806 . S
C706 C503 0.806 . S
C361 C526 0.806 . S
C549 C660 0.806 . S
C572 C85 0.806 . S
C595 C384 0.806 . S
C618 C39 0.806 . S
C641 C430 0.806 . S
C131 C664 0.806 . S
C522 C687 0.806 . S
C710 C177 0.806 . S
C733 C476 0.806 . S
C21 C435 1.683 1_455 S
C458 C44 1.683 1_655 S
C67 C389 1.683 . S
C90 C412 1.683 . S
C527 C113 1.683 1_655 S
C136 C550 1.683 . S
C481 C159 1.683 . S
C182 C504 1.683 1_455 S
C619 C205 1.683 1_455 S
C228 C642 1.683 1_655 S
C251 C573 1.683 . S
C274 C596 1.683 . S
C711 C297 1.683 1_455 S
C734 C320 1.683 . S
C343 C665 1.683 . S
C366 C688 1.683 1_655 S
C17 C569 2.023 . S
C224 C40 2.023 1_665 S
C63 C615 2.023 . S
C86 C270 2.023 1_564 S
C661 C109 2.023 . S
C316 C132 2.023 1_565 S
C155 C707 2.023 . S
C178 C362 2.023 1_466 S
C385 C201 2.023 . S
C431 C247 2.023 . S
C477 C293 2.023 . S
C339 C523 2.023 . S
C408 C592 2.023 1_554 S
C454 C638 2.023 1_655 S
C684 C500 2.023 1_454 S
C730 C546 2.023 . S
C18 C133 1.782 . S
C156 C41 1.782 . S
C179 C64 1.782 . S
C110 C87 1.782 . S
C202 C317 1.782 . S
C225 C340 1.782 . S
C363 C248 1.782 . S
C271 C294 1.782 . S
C386 C501 1.782 . S
C409 C524 1.782 . S
C432 C547 1.782 . S
C478 C455 1.782 . S
C570 C685 1.782 . S
C593 C708 1.782 . S
C731 C616 1.782 . S
C639 C662 1.782 . S
C19 C111 1.419 1_545 S
C42 C134 1.419 . S
C157 C65 1.419 1_545 S
C180 C88 1.419 1_556 S
C203 C295 1.419 1_565 S
C318 C226 1.419 . S
C341 C249 1.419 1_565 S
C364 C272 1.419 1_554 S
C387 C479 1.419 . S
C502 C410 1.420 1_556 S
C433 C525 1.419 . S
C548 C456 1.420 . S
C663 C571 1.419 . S
C594 C686 1.420 1_556 S
C617 C709 1.419 . S
C640 C732 1.420 . S
