# Generated by pormake.
# Topology wgm, (5)-cn, num edge types: 1
# Building blocks:
#     Node 0, Type 0, BuildingBlock: XOMCOT_clean_sbu_0, # of connection points: 5
#     Node 1, Type 0, BuildingBlock: XOMCOT_clean_sbu_0, # of connection points: 5
#     Node 2, Type 0, BuildingBlock: XOMCOT_clean_sbu_0, # of connection points: 5
#     Node 3, Type 0, BuildingBlock: XOMCOT_clean_sbu_0, # of connection points: 5
#     Node 4, Type 0, BuildingBlock: XOMCOT_clean_sbu_0, # of connection points: 5
#     Node 5, Type 0, BuildingBlock: XOMCOT_clean_sbu_0, # of connection points: 5
#     Node 6, Type 0, BuildingBlock: XOMCOT_clean_sbu_0, # of connection points: 5
#     Node 7, Type 0, BuildingBlock: XOMCOT_clean_sbu_0, # of connection points: 5
#     Node 8, Type 0, BuildingBlock: XOMCOT_clean_sbu_0, # of connection points: 5
#     Node 9, Type 0, BuildingBlock: XOMCOT_clean_sbu_0, # of connection points: 5
#     Node 10, Type 0, BuildingBlock: XOMCOT_clean_sbu_0, # of connection points: 5
#     Node 11, Type 0, BuildingBlock: XOMCOT_clean_sbu_0, # of connection points: 5
#     Node 12, Type 0, BuildingBlock: XOMCOT_clean_sbu_0, # of connection points: 5
#     Node 13, Type 0, BuildingBlock: XOMCOT_clean_sbu_0, # of connection points: 5
#     Node 14, Type 0, BuildingBlock: XOMCOT_clean_sbu_0, # of connection points: 5
#     Node 15, Type 0, BuildingBlock: XOMCOT_clean_sbu_0, # of connection points: 5
#     Node 16, Type 0, BuildingBlock: XOMCOT_clean_sbu_0, # of connection points: 5
#     Node 17, Type 0, BuildingBlock: XOMCOT_clean_sbu_0, # of connection points: 5
#     Node 18, Type 0, BuildingBlock: XOMCOT_clean_sbu_0, # of connection points: 5
#     Node 19, Type 0, BuildingBlock: XOMCOT_clean_sbu_0, # of connection points: 5
#     Node 20, Type 0, BuildingBlock: XOMCOT_clean_sbu_0, # of connection points: 5
#     Node 21, Type 0, BuildingBlock: XOMCOT_clean_sbu_0, # of connection points: 5
#     Node 22, Type 0, BuildingBlock: XOMCOT_clean_sbu_0, # of connection points: 5
#     Node 23, Type 0, BuildingBlock: XOMCOT_clean_sbu_0, # of connection points: 5
#     Node 24, Type 0, BuildingBlock: XOMCOT_clean_sbu_0, # of connection points: 5
#     Node 25, Type 0, BuildingBlock: XOMCOT_clean_sbu_0, # of connection points: 5
#     Node 26, Type 0, BuildingBlock: XOMCOT_clean_sbu_0, # of connection points: 5
#     Node 27, Type 0, BuildingBlock: XOMCOT_clean_sbu_0, # of connection points: 5
#     Node 28, Type 0, BuildingBlock: XOMCOT_clean_sbu_0, # of connection points: 5
#     Node 29, Type 0, BuildingBlock: XOMCOT_clean_sbu_0, # of connection points: 5
#     Node 30, Type 0, BuildingBlock: XOMCOT_clean_sbu_0, # of connection points: 5
#     Node 31, Type 0, BuildingBlock: XOMCOT_clean_sbu_0, # of connection points: 5
#     Edge 32, Type (0, 0), BuildingBlock: CIFDUS_clean_linker_0, # of connection points: 2
#     Edge 33, Type (0, 0), BuildingBlock: CIFDUS_clean_linker_0, # of connection points: 2
#     Edge 34, Type (0, 0), BuildingBlock: CIFDUS_clean_linker_0, # of connection points: 2
#     Edge 35, Type (0, 0), BuildingBlock: CIFDUS_clean_linker_0, # of connection points: 2
#     Edge 36, Type (0, 0), BuildingBlock: CIFDUS_clean_linker_0, # of connection points: 2
#     Edge 37, Type (0, 0), BuildingBlock: CIFDUS_clean_linker_0, # of connection points: 2
#     Edge 38, Type (0, 0), BuildingBlock: CIFDUS_clean_linker_0, # of connection points: 2
#     Edge 39, Type (0, 0), BuildingBlock: CIFDUS_clean_linker_0, # of connection points: 2
#     Edge 40, Type (0, 0), BuildingBlock: CIFDUS_clean_linker_0, # of connection points: 2
#     Edge 41, Type (0, 0), BuildingBlock: CIFDUS_clean_linker_0, # of connection points: 2
#     Edge 42, Type (0, 0), BuildingBlock: CIFDUS_clean_linker_0, # of connection points: 2
#     Edge 43, Type (0, 0), BuildingBlock: CIFDUS_clean_linker_0, # of connection points: 2
#     Edge 44, Type (0, 0), BuildingBlock: CIFDUS_clean_linker_0, # of connection points: 2
#     Edge 45, Type (0, 0), BuildingBlock: CIFDUS_clean_linker_0, # of connection points: 2
#     Edge 46, Type (0, 0), BuildingBlock: CIFDUS_clean_linker_0, # of connection points: 2
#     Edge 47, Type (0, 0), BuildingBlock: CIFDUS_clean_linker_0, # of connection points: 2
#     Edge 48, Type (0, 0), BuildingBlock: CIFDUS_clean_linker_0, # of connection points: 2
#     Edge 49, Type (0, 0), BuildingBlock: CIFDUS_clean_linker_0, # of connection points: 2
#     Edge 50, Type (0, 0), BuildingBlock: CIFDUS_clean_linker_0, # of connection points: 2
#     Edge 51, Type (0, 0), BuildingBlock: CIFDUS_clean_linker_0, # of connection points: 2
#     Edge 52, Type (0, 0), BuildingBlock: CIFDUS_clean_linker_0, # of connection points: 2
#     Edge 53, Type (0, 0), BuildingBlock: CIFDUS_clean_linker_0, # of connection points: 2
#     Edge 54, Type (0, 0), BuildingBlock: CIFDUS_clean_linker_0, # of connection points: 2
#     Edge 55, Type (0, 0), BuildingBlock: CIFDUS_clean_linker_0, # of connection points: 2
#     Edge 56, Type (0, 0), BuildingBlock: CIFDUS_clean_linker_0, # of connection points: 2
#     Edge 57, Type (0, 0), BuildingBlock: CIFDUS_clean_linker_0, # of connection points: 2
#     Edge 58, Type (0, 0), BuildingBlock: CIFDUS_clean_linker_0, # of connection points: 2
#     Edge 59, Type (0, 0), BuildingBlock: CIFDUS_clean_linker_0, # of connection points: 2
#     Edge 60, Type (0, 0), BuildingBlock: CIFDUS_clean_linker_0, # of connection points: 2
#     Edge 61, Type (0, 0), BuildingBlock: CIFDUS_clean_linker_0, # of connection points: 2
#     Edge 62, Type (0, 0), BuildingBlock: CIFDUS_clean_linker_0, # of connection points: 2
#     Edge 63, Type (0, 0), BuildingBlock: CIFDUS_clean_linker_0, # of connection points: 2
#     Edge 64, Type (0, 0), BuildingBlock: CIFDUS_clean_linker_0, # of connection points: 2
#     Edge 65, Type (0, 0), BuildingBlock: CIFDUS_clean_linker_0, # of connection points: 2
#     Edge 66, Type (0, 0), BuildingBlock: CIFDUS_clean_linker_0, # of connection points: 2
#     Edge 67, Type (0, 0), BuildingBlock: CIFDUS_clean_linker_0, # of connection points: 2
#     Edge 68, Type (0, 0), BuildingBlock: CIFDUS_clean_linker_0, # of connection points: 2
#     Edge 69, Type (0, 0), BuildingBlock: CIFDUS_clean_linker_0, # of connection points: 2
#     Edge 70, Type (0, 0), BuildingBlock: CIFDUS_clean_linker_0, # of connection points: 2
#     Edge 71, Type (0, 0), BuildingBlock: CIFDUS_clean_linker_0, # of connection points: 2
#     Edge 72, Type (0, 0), BuildingBlock: CIFDUS_clean_linker_0, # of connection points: 2
#     Edge 73, Type (0, 0), BuildingBlock: CIFDUS_clean_linker_0, # of connection points: 2
#     Edge 74, Type (0, 0), BuildingBlock: CIFDUS_clean_linker_0, # of connection points: 2
#     Edge 75, Type (0, 0), BuildingBlock: CIFDUS_clean_linker_0, # of connection points: 2
#     Edge 76, Type (0, 0), BuildingBlock: CIFDUS_clean_linker_0, # of connection points: 2
#     Edge 77, Type (0, 0), BuildingBlock: CIFDUS_clean_linker_0, # of connection points: 2
#     Edge 78, Type (0, 0), BuildingBlock: CIFDUS_clean_linker_0, # of connection points: 2
#     Edge 79, Type (0, 0), BuildingBlock: CIFDUS_clean_linker_0, # of connection points: 2
#     Edge 80, Type (0, 0), BuildingBlock: CIFDUS_clean_linker_0, # of connection points: 2
#     Edge 81, Type (0, 0), BuildingBlock: CIFDUS_clean_linker_0, # of connection points: 2
#     Edge 82, Type (0, 0), BuildingBlock: CIFDUS_clean_linker_0, # of connection points: 2
#     Edge 83, Type (0, 0), BuildingBlock: CIFDUS_clean_linker_0, # of connection points: 2
#     Edge 84, Type (0, 0), BuildingBlock: CIFDUS_clean_linker_0, # of connection points: 2
#     Edge 85, Type (0, 0), BuildingBlock: CIFDUS_clean_linker_0, # of connection points: 2
#     Edge 86, Type (0, 0), BuildingBlock: CIFDUS_clean_linker_0, # of connection points: 2
#     Edge 87, Type (0, 0), BuildingBlock: CIFDUS_clean_linker_0, # of connection points: 2
#     Edge 88, Type (0, 0), BuildingBlock: CIFDUS_clean_linker_0, # of connection points: 2
#     Edge 89, Type (0, 0), BuildingBlock: CIFDUS_clean_linker_0, # of connection points: 2
#     Edge 90, Type (0, 0), BuildingBlock: CIFDUS_clean_linker_0, # of connection points: 2
#     Edge 91, Type (0, 0), BuildingBlock: CIFDUS_clean_linker_0, # of connection points: 2
#     Edge 92, Type (0, 0), BuildingBlock: CIFDUS_clean_linker_0, # of connection points: 2
#     Edge 93, Type (0, 0), BuildingBlock: CIFDUS_clean_linker_0, # of connection points: 2
#     Edge 94, Type (0, 0), BuildingBlock: CIFDUS_clean_linker_0, # of connection points: 2
#     Edge 95, Type (0, 0), BuildingBlock: CIFDUS_clean_linker_0, # of connection points: 2
#     Edge 96, Type (0, 0), BuildingBlock: CIFDUS_clean_linker_0, # of connection points: 2
#     Edge 97, Type (0, 0), BuildingBlock: CIFDUS_clean_linker_0, # of connection points: 2
#     Edge 98, Type (0, 0), BuildingBlock: CIFDUS_clean_linker_0, # of connection points: 2
#     Edge 99, Type (0, 0), BuildingBlock: CIFDUS_clean_linker_0, # of connection points: 2
#     Edge 100, Type (0, 0), BuildingBlock: CIFDUS_clean_linker_0, # of connection points: 2
#     Edge 101, Type (0, 0), BuildingBlock: CIFDUS_clean_linker_0, # of connection points: 2
#     Edge 102, Type (0, 0), BuildingBlock: CIFDUS_clean_linker_0, # of connection points: 2
#     Edge 103, Type (0, 0), BuildingBlock: CIFDUS_clean_linker_0, # of connection points: 2
#     Edge 104, Type (0, 0), BuildingBlock: CIFDUS_clean_linker_0, # of connection points: 2
#     Edge 105, Type (0, 0), BuildingBlock: CIFDUS_clean_linker_0, # of connection points: 2
#     Edge 106, Type (0, 0), BuildingBlock: CIFDUS_clean_linker_0, # of connection points: 2
#     Edge 107, Type (0, 0), BuildingBlock: CIFDUS_clean_linker_0, # of connection points: 2
#     Edge 108, Type (0, 0), BuildingBlock: CIFDUS_clean_linker_0, # of connection points: 2
#     Edge 109, Type (0, 0), BuildingBlock: CIFDUS_clean_linker_0, # of connection points: 2
#     Edge 110, Type (0, 0), BuildingBlock: CIFDUS_clean_linker_0, # of connection points: 2
#     Edge 111, Type (0, 0), BuildingBlock: CIFDUS_clean_linker_0, # of connection points: 2
# Relax obj value: 0.095
# Max RMSD: 0.192
# Mean RMSD: 0.192
data_MOF--net-wgm--node1-XOMCOT_clean_sbu_0--edge1-CIFDUS_clean_linker_0
_symmetry_space_group_name_H-M    P1
_symmetry_Int_Tables_number       1
_symmetry_cell_setting            triclinic
loop_
_symmetry_equiv_pos_as_xyz
'x, y, z'
_cell_length_a     42.761858
_cell_length_b     42.824204
_cell_length_c     69.224256
_cell_angle_alpha  90.138591
_cell_angle_beta   89.983573
_cell_angle_gamma 89.986688
loop_
_atom_site_label
_atom_site_type_symbol
_atom_site_fract_x
_atom_site_fract_y
_atom_site_fract_z
_atom_type_partial_charge
Co0 Co 0.17599 0.13332 0.34176 0.0
C1 C 0.17881 0.19065 0.36522 0.0
C2 C 0.19309 0.1506 0.38162 0.0
C3 C 0.1922 0.17622 0.39375 0.0
N4 N 0.18468 0.15976 0.36377 0.0
N5 N 0.18322 0.20134 0.38339 0.0
H6 H 0.17 0.20466 0.35342 0.0
H7 H 0.19831 0.12678 0.38568 0.0
C8 C 0.2398 0.10142 0.33881 0.0
O9 O 0.24256 0.11002 0.32068 0.0
N10 N 0.16574 0.10683 0.31929 0.0
C11 C 0.14082 0.11156 0.3076 0.0
C12 C 0.14084 0.0901 0.29298 0.0
C13 C 0.17984 0.08111 0.31173 0.0
N14 N 0.16552 0.07108 0.29535 0.0
C15 C 0.18374 0.17429 0.3095 0.0
C16 C 0.24506 0.19098 0.31658 0.0
C17 C 0.23074 0.20098 0.29942 0.0
C18 C 0.19936 0.19319 0.2963 0.0
C19 C 0.22831 0.1723 0.32957 0.0
N20 N 0.19874 0.16237 0.32523 0.0
H21 H 0.15947 0.16926 0.30695 0.0
H22 H 0.23946 0.16501 0.34282 0.0
H23 H 0.12341 0.12962 0.30925 0.0
H24 H 0.19983 0.06962 0.31797 0.0
O25 O 0.13492 0.15208 0.34024 0.0
O26 O 0.14653 0.10979 0.3572 0.0
O27 O 0.21492 0.10798 0.34828 0.0
C28 C 0.12549 0.12977 0.35157 0.0
H29 H 0.19725 0.17625 0.40908 0.0
H30 H 0.12357 0.08838 0.28159 0.0
H31 H 0.26896 0.19742 0.31988 0.0
H32 H 0.18711 0.2009 0.28348 0.0
Co33 Co 0.13242 0.92619 0.59272 0.0
C34 C 0.07503 0.93137 0.61587 0.0
C35 C 0.11504 0.92354 0.63387 0.0
C36 C 0.08852 0.92088 0.64505 0.0
N37 N 0.10659 0.93052 0.61559 0.0
N38 N 0.06342 0.92571 0.63366 0.0
H39 H 0.06071 0.93327 0.60305 0.0
H40 H 0.13875 0.9191 0.63855 0.0
C41 C 0.15864 0.98272 0.61431 0.0
O42 O 0.13368 0.98452 0.62528 0.0
N43 N 0.15738 0.92044 0.56941 0.0
C44 C 0.15513 0.89622 0.55692 0.0
C45 C 0.17415 0.90159 0.54135 0.0
C46 C 0.17803 0.94027 0.5611 0.0
N47 N 0.18849 0.92924 0.54394 0.0
C48 C 0.08828 0.93624 0.5629 0.0
C49 C 0.0764 0.99877 0.56946 0.0
C50 C 0.06141 0.98368 0.55399 0.0
C51 C 0.06752 0.95198 0.55089 0.0
C52 C 0.09748 0.98214 0.58107 0.0
N53 N 0.1033 0.95124 0.57764 0.0
H54 H 0.09236 0.91176 0.56025 0.0
H55 H 0.10874 0.99421 0.59277 0.0
H56 H 0.14031 0.876 0.55863 0.0
H57 H 0.18483 0.96252 0.56717 0.0
O58 O 0.11334 0.88556 0.58918 0.0
O59 O 0.15694 0.89442 0.60555 0.0
O60 O 0.15979 0.96335 0.60013 0.0
C61 C 0.13633 0.87442 0.59937 0.0
H62 H 0.08771 0.91457 0.66017 0.0
H63 H 0.17765 0.88602 0.5292 0.0
H64 H 0.07223 0.02328 0.57236 0.0
H65 H 0.05602 0.93925 0.53936 0.0
Co66 Co 0.34084 0.88819 0.85255 0.0
C67 C 0.34569 0.83636 0.88076 0.0
C68 C 0.30003 0.85688 0.8808 0.0
C69 C 0.29918 0.83018 0.89172 0.0
N70 N 0.32929 0.8611 0.87397 0.0
N71 N 0.32779 0.81697 0.89145 0.0
H72 H 0.36924 0.83065 0.8763 0.0
H73 H 0.27975 0.87031 0.87666 0.0
C74 C 0.2986 0.93002 0.87376 0.0
O75 O 0.31855 0.9262 0.88799 0.0
N76 N 0.35221 0.91337 0.83043 0.0
C77 C 0.3697 0.90229 0.81571 0.0
C78 C 0.36902 0.92316 0.8008 0.0
C79 C 0.34092 0.94108 0.82418 0.0
N80 N 0.35079 0.94741 0.806 0.0
C81 C 0.32876 0.83193 0.83201 0.0
C82 C 0.28116 0.85475 0.80894 0.0
C83 C 0.29374 0.82519 0.80489 0.0
C84 C 0.3173 0.81355 0.81693 0.0
C85 C 0.29361 0.87264 0.82408 0.0
N86 N 0.31752 0.86133 0.83513 0.0
H87 H 0.34781 0.82306 0.84063 0.0
H88 H 0.28516 0.89617 0.82617 0.0
H89 H 0.38099 0.8797 0.81539 0.0
H90 H 0.32474 0.9555 0.83225 0.0
O91 O 0.38154 0.86833 0.85083 0.0
O92 O 0.37127 0.91016 0.86846 0.0
O93 O 0.30317 0.91571 0.85773 0.0
C94 C 0.39181 0.89005 0.86233 0.0
H95 H 0.27844 0.82003 0.8981 0.0
H96 H 0.38071 0.92048 0.78702 0.0
H97 H 0.26306 0.8646 0.79987 0.0
H98 H 0.32739 0.79069 0.8144 0.0
Co99 Co 0.39852 0.09241 0.09545 0.0
C100 C 0.44334 0.11421 0.12564 0.0
C101 C 0.42436 0.06918 0.13228 0.0
C102 C 0.44718 0.07609 0.14557 0.0
N103 N 0.42179 0.09305 0.11969 0.0
N104 N 0.45937 0.10424 0.14127 0.0
H105 H 0.44927 0.13516 0.11775 0.0
H106 H 0.41245 0.04705 0.13117 0.0
C107 C 0.35304 0.03639 0.10015 0.0
O108 O 0.34522 0.03513 0.08184 0.0
N109 N 0.37646 0.09248 0.07091 0.0
C110 C 0.39075 0.09429 0.0536 0.0
C111 C 0.36857 0.09592 0.03937 0.0
C112 C 0.34556 0.09461 0.06696 0.0
N113 N 0.33998 0.09567 0.04765 0.0
C114 C 0.46057 0.07811 0.08325 0.0
C115 C 0.44674 0.02333 0.06387 0.0
C116 C 0.47678 0.03603 0.06224 0.0
C117 C 0.48392 0.06321 0.07255 0.0
C118 C 0.42426 0.03853 0.07517 0.0
N119 N 0.43101 0.06612 0.0842 0.0
H120 H 0.46589 0.10023 0.08996 0.0
H121 H 0.40104 0.02911 0.07549 0.0
H122 H 0.41578 0.09503 0.05143 0.0
H123 H 0.3277 0.09475 0.07802 0.0
O124 O 0.41496 0.13311 0.08858 0.0
O125 O 0.37138 0.12476 0.10513 0.0
O126 O 0.37386 0.05561 0.1061 0.0
C127 C 0.39094 0.14467 0.09772 0.0
H128 H 0.4555 0.06066 0.15682 0.0
H129 H 0.37343 0.0978 0.0241 0.0
H130 H 0.44046 1.00232 0.05603 0.0
H131 H 0.50685 0.07382 0.07146 0.0
Co132 Co 0.18219 0.88311 0.16672 0.0
C133 C 0.16552 0.83585 0.13679 0.0
C134 C 0.20796 0.85982 0.12981 0.0
C135 C 0.20478 0.83488 0.11747 0.0
N136 N 0.18344 0.86056 0.14213 0.0
N137 N 0.17834 0.81958 0.12201 0.0
H138 H 0.14536 0.82783 0.14481 0.0
H139 H 0.22866 0.87406 0.13077 0.0
C140 C 0.23855 0.92908 0.16361 0.0
O141 O 0.23917 0.93704 0.18192 0.0
N142 N 0.1806 0.90394 0.19175 0.0
C143 C 0.17821 0.88836 0.2086 0.0
C144 C 0.17677 0.90927 0.22353 0.0
C145 C 0.17888 0.93452 0.19672 0.0
N146 N 0.17757 0.93836 0.21619 0.0
C147 C 0.19469 0.82135 0.18007 0.0
C148 C 0.24967 0.83527 0.19921 0.0
C149 C 0.2356 0.80617 0.20213 0.0
C150 C 0.20847 0.79879 0.19184 0.0
C151 C 0.23555 0.8569 0.18691 0.0
N152 N 0.20771 0.8503 0.17813 0.0
H153 H 0.17231 0.81619 0.17368 0.0
H154 H 0.24586 0.87964 0.1858 0.0
H155 H 0.17704 0.86327 0.21002 0.0
H156 H 0.1792 0.95344 0.18638 0.0
O157 O 0.14058 0.86679 0.17208 0.0
O158 O 0.15079 0.91108 0.15686 0.0
O159 O 0.21965 0.90814 0.15744 0.0
C160 C 0.13004 0.89173 0.16351 0.0
H161 H 0.22197 0.82707 0.10703 0.0
H162 H 0.17451 0.90341 0.23867 0.0
H163 H 0.27072 0.84168 0.20698 0.0
H164 H 0.19683 0.77658 0.19391 0.0
Co165 Co 0.38136 0.94252 0.42092 0.0
C166 C 0.43877 0.95001 0.39672 0.0
C167 C 0.39873 0.9389 0.37951 0.0
C168 C 0.42484 0.939 0.36774 0.0
N169 N 0.40748 0.94557 0.3978 0.0
N170 N 0.44997 0.94602 0.37866 0.0
H171 H 0.45368 0.95483 0.40884 0.0
H172 H 0.37514 0.93328 0.37507 0.0
C173 C 0.36325 1.00292 0.40146 0.0
O174 O 0.39201 1.00621 0.39515 0.0
N175 N 0.35648 0.93857 0.44412 0.0
C176 C 0.36765 0.92684 0.4608 0.0
C177 C 0.34529 0.92977 0.47483 0.0
C178 C 0.32703 0.94808 0.44814 0.0
N179 N 0.31984 0.94315 0.46695 0.0
C180 C 0.43683 0.94997 0.44331 0.0
C181 C 0.42219 1.00741 0.45908 0.0
C182 C 0.44798 0.99092 0.46639 0.0
C183 C 0.45555 0.96217 0.45796 0.0
C184 C 0.40416 0.99446 0.44415 0.0
N185 N 0.41148 0.96593 0.43646 0.0
H186 H 0.44222 0.92694 0.4379 0.0
H187 H 0.38323 1.00659 0.4398 0.0
H188 H 0.39069 0.91694 0.46271 0.0
H189 H 0.31144 0.95866 0.43772 0.0
O190 O 0.3969 0.90039 0.42503 0.0
O191 O 0.35494 0.91249 0.40792 0.0
O192 O 0.35643 0.98082 0.41314 0.0
C193 C 0.37339 0.89099 0.41461 0.0
H194 H 0.42535 0.93366 0.35245 0.0
H195 H 0.34729 0.92199 0.48965 0.0
H196 H 0.41537 0.02964 0.46527 0.0
H197 H 0.47477 0.94824 0.46337 0.0
Co198 Co 0.33791 0.13176 0.67746 0.0
C199 C 0.33989 0.1836 0.64917 0.0
C200 C 0.29637 0.15897 0.64814 0.0
C201 C 0.29329 0.186 0.63773 0.0
N202 N 0.32567 0.15718 0.65538 0.0
N203 N 0.32052 0.2016 0.63855 0.0
H204 H 0.36245 0.19155 0.65424 0.0
H205 H 0.27707 0.14399 0.65197 0.0
C206 C 0.29862 0.08625 0.65745 0.0
O207 O 0.3212 0.08719 0.64462 0.0
N208 N 0.34958 0.10821 0.70014 0.0
C209 C 0.36638 0.12048 0.71478 0.0
C210 C 0.36619 0.10011 0.72999 0.0
C211 C 0.33922 0.08035 0.7067 0.0
N212 N 0.34899 0.07501 0.72501 0.0
C213 C 0.3244 0.18896 0.69704 0.0
C214 C 0.27549 0.16647 0.71916 0.0
C215 C 0.28661 0.19678 0.7227 0.0
C216 C 0.31105 0.20813 0.71116 0.0
C217 C 0.2896 0.14798 0.70492 0.0
N218 N 0.31394 0.15922 0.69421 0.0
H219 H 0.344 0.19767 0.68883 0.0
H220 H 0.28187 0.12414 0.70322 0.0
H221 H 0.37693 0.14342 0.71475 0.0
H222 H 0.32383 0.06503 0.69867 0.0
O223 O 0.37898 0.15225 0.67834 0.0
O224 O 0.36833 0.10904 0.66234 0.0
O225 O 0.30065 0.10332 0.67266 0.0
C226 C 0.38902 0.12946 0.66752 0.0
H227 H 0.27176 0.19503 0.63169 0.0
H228 H 0.37762 0.10365 0.74378 0.0
H229 H 0.25696 0.15659 0.72789 0.0
H230 H 0.32016 0.2315 0.71324 0.0
Co231 Co 0.13488 0.09952 0.92964 0.0
C232 C 0.08157 0.08937 0.90202 0.0
C233 C 0.11834 0.11614 0.88926 0.0
C234 C 0.09324 0.11613 0.87689 0.0
N235 N 0.11118 0.09958 0.90527 0.0
N236 N 0.06983 0.09976 0.88503 0.0
H237 H 0.06803 0.07608 0.91226 0.0
H238 H 0.13983 0.12881 0.88688 0.0
C239 C 0.16853 0.05205 0.90757 0.0
O240 O 0.16965 0.07395 0.89439 0.0
N241 N 0.15699 0.10057 0.95401 0.0
C242 C 0.14555 0.11444 0.96997 0.0
C243 C 0.16756 0.11314 0.98428 0.0
C244 C 0.1861 0.09102 0.95879 0.0
N245 N 0.19319 0.09837 0.97741 0.0
C246 C 0.07403 0.09988 0.94709 0.0
C247 C 0.08037 0.04337 0.96595 0.0
C248 C 0.05433 0.06213 0.97008 0.0
C249 C 0.05087 0.09035 0.96009 0.0
C250 C 0.10269 0.05346 0.95259 0.0
N251 N 0.09957 0.08157 0.94349 0.0
H252 H 0.0719 0.12242 0.94023 0.0
H253 H 0.1234 0.03944 0.95054 0.0
H254 H 0.12295 0.12564 0.97096 0.0
H255 H 0.20171 0.07947 0.94877 0.0
O256 O 0.12581 0.14394 0.93276 0.0
O257 O 0.16767 0.12424 0.91841 0.0
O258 O 0.1536 0.05714 0.92333 0.0
C259 C 0.15243 0.14879 0.92411 0.0
H260 H 0.09204 0.12839 0.86326 0.0
H261 H 0.16504 0.12355 0.99844 0.0
H262 H 0.08389 0.02142 0.97338 0.0
H263 H 0.03125 0.10565 0.963 0.0
Co264 Co 0.84207 0.86754 0.67523 0.0
C265 C 0.83396 0.81271 0.64891 0.0
C266 C 0.84615 0.85407 0.6334 0.0
C267 C 0.84813 0.82892 0.62095 0.0
N268 N 0.83768 0.84392 0.65113 0.0
N269 N 0.84053 0.80295 0.63081 0.0
H270 H 0.82845 0.79674 0.66036 0.0
H271 H 0.85236 0.87788 0.62993 0.0
C272 C 0.78181 0.89156 0.65687 0.0
O273 O 0.77972 0.86683 0.64572 0.0
N274 N 0.8476 0.89005 0.69918 0.0
C275 C 0.86089 0.87816 0.71518 0.0
C276 C 0.86043 0.90043 0.72945 0.0
C277 C 0.83941 0.91956 0.70383 0.0
N278 N 0.84684 0.92645 0.72238 0.0
C279 C 0.83524 0.80978 0.69534 0.0
C280 C 0.77769 0.82203 0.71183 0.0
C281 C 0.79369 0.79473 0.71697 0.0
C282 C 0.82257 0.78853 0.70838 0.0
C283 C 0.79086 0.84241 0.69822 0.0
N284 N 0.81927 0.83604 0.68998 0.0
H285 H 0.85821 0.80506 0.68956 0.0
H286 H 0.77878 0.86393 0.69514 0.0
H287 H 0.87049 0.8549 0.71638 0.0
H288 H 0.82822 0.93551 0.69391 0.0
O289 O 0.88421 0.85125 0.67777 0.0
O290 O 0.87173 0.89514 0.66286 0.0
O291 O 0.80334 0.89349 0.66969 0.0
C292 C 0.8934 0.87578 0.66829 0.0
H293 H 0.85582 0.82951 0.60606 0.0
H294 H 0.87011 0.89784 0.7438 0.0
H295 H 0.75541 0.82769 0.71842 0.0
H296 H 0.83577 0.76784 0.7122 0.0
Co297 Co 0.88054 0.10201 0.4278 0.0
C298 C 0.94122 0.09712 0.4081 0.0
C299 C 0.90341 0.08655 0.38873 0.0
C300 C 0.93103 0.08653 0.37838 0.0
N301 N 0.90995 0.09319 0.40732 0.0
N302 N 0.95465 0.09303 0.39066 0.0
H303 H 0.95372 0.10416 0.42099 0.0
H304 H 0.88013 0.08314 0.38299 0.0
C305 C 0.84731 0.03673 0.42361 0.0
O306 O 0.85921 0.02259 0.43873 0.0
N307 N 0.85107 0.11149 0.44862 0.0
C308 C 0.84653 0.13963 0.45711 0.0
C309 C 0.8273 0.13614 0.47285 0.0
C310 C 0.83417 0.09132 0.45946 0.0
N311 N 0.81961 0.1058 0.47432 0.0
C312 C 0.91544 0.09407 0.46244 0.0
C313 C 0.94033 0.03614 0.45383 0.0
C314 C 0.94955 0.05106 0.47104 0.0
C315 C 0.93668 0.08047 0.47521 0.0
C316 C 0.91929 0.05082 0.44131 0.0
N317 N 0.90667 0.07916 0.44587 0.0
H318 H 0.90675 0.11722 0.46557 0.0
H319 H 0.91374 0.03974 0.4277 0.0
H320 H 0.85708 0.16139 0.45275 0.0
H321 H 0.83327 0.06647 0.4571 0.0
O322 O 0.89914 0.14344 0.43019 0.0
O323 O 0.85951 0.13085 0.41106 0.0
O324 O 0.8546 0.0649 0.41949 0.0
C325 C 0.87893 0.15201 0.41707 0.0
H326 H 0.93355 0.0825 0.36302 0.0
H327 H 0.8194 0.15454 0.48243 0.0
H328 H 0.94944 0.01342 0.44989 0.0
H329 H 0.94368 0.09349 0.48791 0.0
Co330 Co 0.6816 0.15587 0.18482 0.0
C331 C 0.69172 0.21145 0.1595 0.0
C332 C 0.68 0.17068 0.14311 0.0
C333 C 0.67988 0.19606 0.13089 0.0
N334 N 0.68708 0.1803 0.16121 0.0
N335 N 0.68717 0.22165 0.14128 0.0
H336 H 0.69676 0.227 0.17131 0.0
H337 H 0.67389 0.14704 0.13911 0.0
C338 C 0.74353 0.13446 0.16761 0.0
O339 O 0.74525 0.15939 0.15669 0.0
N340 N 0.67474 0.13242 0.2082 0.0
C341 C 0.65996 0.14339 0.22399 0.0
C342 C 0.65793 0.1199 0.23736 0.0
C343 C 0.68127 0.10225 0.21204 0.0
N344 N 0.6712 0.09396 0.22987 0.0
C345 C 0.6841 0.21376 0.20593 0.0
C346 C 0.74105 0.20333 0.22368 0.0
C347 C 0.72394 0.23004 0.22871 0.0
C348 C 0.6953 0.23533 0.21947 0.0
C349 C 0.72941 0.18273 0.20965 0.0
N350 N 0.70134 0.18815 0.20077 0.0
H351 H 0.66137 0.2176 0.19956 0.0
H352 H 0.74254 0.16177 0.20668 0.0
H353 H 0.651 0.16684 0.22564 0.0
H354 H 0.69258 0.08666 0.20189 0.0
O355 O 0.63785 0.16927 0.18561 0.0
O356 O 0.65576 0.12662 0.17123 0.0
O357 O 0.72205 0.132 0.18043 0.0
C358 C 0.63195 0.14379 0.17591 0.0
H359 H 0.67391 0.19586 0.11569 0.0
H360 H 0.64785 0.12203 0.25164 0.0
H361 H 0.76318 0.19833 0.23062 0.0
H362 H 0.68121 0.25554 0.22312 0.0
Co363 Co 0.64512 0.92081 0.92933 0.0
C364 C 0.58159 0.92431 0.91291 0.0
C365 C 0.6167 0.93336 0.89143 0.0
C366 C 0.58786 0.93247 0.88252 0.0
N367 N 0.61268 0.9282 0.91045 0.0
N368 N 0.5659 0.92686 0.89607 0.0
H369 H 0.57087 0.91822 0.92656 0.0
H370 H 0.63912 0.93624 0.88442 0.0
C371 C 0.69172 0.96043 0.90987 0.0
O372 O 0.70465 0.93389 0.90474 0.0
N373 N 0.67753 0.91319 0.94862 0.0
C374 C 0.68509 0.88539 0.9566 0.0
C375 C 0.7044 0.89031 0.97213 0.0
C376 C 0.6928 0.93468 0.9595 0.0
N377 N 0.70912 0.9212 0.97401 0.0
C378 C 0.61416 0.92927 0.96529 0.0
C379 C 0.59066 0.98827 0.95805 0.0
C380 C 0.5827 0.97327 0.97539 0.0
C381 C 0.5951 0.9436 0.97904 0.0
C382 C 0.61037 0.9733 0.94479 0.0
N383 N 0.62149 0.94402 0.94845 0.0
H384 H 0.62261 0.90589 0.96798 0.0
H385 H 0.6158 0.98472 0.93129 0.0
H386 H 0.67631 0.86286 0.95221 0.0
H387 H 0.69074 0.95966 0.95748 0.0
O388 O 0.6275 0.87971 0.93374 0.0
O389 O 0.66374 0.89017 0.91196 0.0
O390 O 0.66742 0.96013 0.92066 0.0
C391 C 0.64549 0.8696 0.91993 0.0
H392 H 0.58339 0.93517 0.86722 0.0
H393 H 0.71405 0.87253 0.98149 0.0
H394 H 0.5815 1.01122 0.95472 0.0
H395 H 0.58918 0.93106 0.99211 0.0
Co396 Co 0.84313 0.12917 0.84092 0.0
C397 C 0.83804 0.18373 0.8667 0.0
C398 C 0.84422 0.14158 0.88285 0.0
C399 C 0.84671 0.16665 0.89535 0.0
N400 N 0.83871 0.15237 0.86486 0.0
N401 N 0.84279 0.19305 0.88508 0.0
H402 H 0.83665 0.19972 0.85474 0.0
H403 H 0.84792 0.1173 0.88646 0.0
C404 C 0.78541 0.10228 0.86064 0.0
O405 O 0.77971 0.12905 0.86924 0.0
N406 N 0.84863 0.10693 0.81686 0.0
C407 C 0.86204 0.11882 0.80088 0.0
C408 C 0.86141 0.09668 0.78653 0.0
C409 C 0.84016 0.07756 0.81208 0.0
N410 N 0.84757 0.07075 0.79351 0.0
C411 C 0.83139 0.18416 0.8186 0.0
C412 C 0.76868 0.1747 0.8112 0.0
C413 C 0.78389 0.19992 0.80234 0.0
C414 C 0.81557 0.20456 0.80631 0.0
C415 C 0.78561 0.15427 0.82318 0.0
N416 N 0.81667 0.15921 0.82694 0.0
H417 H 0.85589 0.18838 0.82109 0.0
H418 H 0.77368 0.1341 0.82873 0.0
H419 H 0.87194 0.14196 0.79973 0.0
H420 H 0.82876 0.06162 0.82189 0.0
O421 O 0.88379 0.14868 0.83746 0.0
O422 O 0.87595 0.10416 0.85267 0.0
O423 O 0.80723 0.10019 0.84799 0.0
C424 C 0.89561 0.12533 0.84695 0.0
H425 H 0.85211 0.1656 0.91061 0.0
H426 H 0.87116 0.09929 0.7722 0.0
H427 H 0.74423 0.17009 0.80827 0.0
H428 H 0.8282 0.22382 0.79984 0.0
Co429 Co 0.63164 0.07605 0.59985 0.0
C430 C 0.5789 0.0867 0.62703 0.0
C431 C 0.6019 0.0432 0.63262 0.0
C432 C 0.57494 0.04443 0.6434 0.0
N433 N 0.60461 0.06973 0.62226 0.0
N434 N 0.5603 0.07162 0.63974 0.0
H435 H 0.57209 0.10808 0.61989 0.0
H436 H 0.61648 0.02278 0.63119 0.0
C437 C 0.67503 0.03431 0.62054 0.0
O438 O 0.67821 0.05796 0.63248 0.0
N439 N 0.65684 0.08243 0.57698 0.0
C440 C 0.64466 0.09204 0.56004 0.0
C441 C 0.66768 0.09212 0.54631 0.0
C442 C 0.68756 0.0774 0.57344 0.0
N443 N 0.69454 0.08292 0.55466 0.0
C444 C 0.57396 0.06655 0.58005 0.0
C445 C 0.59235 0.01437 0.55943 0.0
C446 C 0.56444 0.02952 0.55416 0.0
C447 C 0.55493 0.05539 0.56518 0.0
C448 C 0.61095 0.02656 0.57427 0.0
N449 N 0.60206 0.05288 0.58401 0.0
H450 H 0.56708 0.08767 0.58742 0.0
H451 H 0.63342 0.01594 0.57696 0.0
H452 H 0.62047 0.09834 0.55777 0.0
H453 H 0.7042 0.06956 0.58417 0.0
O454 O 0.61517 0.11798 0.59637 0.0
O455 O 0.65659 0.10629 0.61397 0.0
O456 O 0.65627 0.03678 0.60619 0.0
C457 C 0.63796 0.12761 0.60727 0.0
H458 H 0.56548 0.0256 0.65203 0.0
H459 H 0.6651 0.099 0.53135 0.0
H460 H 0.60047 0.99393 0.55168 0.0
H461 H 0.53394 0.06828 0.56165 0.0
Co462 Co 0.67653 0.89219 0.34876 0.0
C463 C 0.66205 0.83318 0.36876 0.0
C464 C 0.66588 0.87159 0.38862 0.0
C465 C 0.65913 0.84493 0.39894 0.0
N466 N 0.66771 0.86409 0.36976 0.0
N467 N 0.65688 0.82083 0.38641 0.0
H468 H 0.66165 0.82002 0.3554 0.0
H469 H 0.66945 0.89478 0.39445 0.0
C470 C 0.71773 0.93688 0.36706 0.0
O471 O 0.69631 0.95661 0.3611 0.0
N472 N 0.68654 0.92009 0.32759 0.0
C473 C 0.7157 0.92346 0.3205 0.0
C474 C 0.71514 0.94446 0.30563 0.0
C475 C 0.66846 0.93924 0.31681 0.0
N476 N 0.68548 0.95439 0.30322 0.0
C477 C 0.68832 0.85011 0.31816 0.0
C478 C 0.74429 0.82575 0.33121 0.0
C479 C 0.73289 0.8163 0.31302 0.0
C480 C 0.7041 0.82834 0.30687 0.0
C481 C 0.72738 0.84753 0.3423 0.0
N482 N 0.70006 0.85979 0.33547 0.0
H483 H 0.66681 0.85988 0.31269 0.0
H484 H 0.73645 0.85479 0.35617 0.0
H485 H 0.7362 0.91162 0.32596 0.0
H486 H 0.64354 0.94206 0.31878 0.0
O487 O 0.63544 0.8835 0.33812 0.0
O488 O 0.64558 0.92103 0.35911 0.0
O489 O 0.71459 0.90785 0.36315 0.0
C490 C 0.62491 0.906 0.34893 0.0
H491 H 0.65691 0.84325 0.41447 0.0
H492 H 0.73532 0.95249 0.29763 0.0
H493 H 0.76638 0.81704 0.33662 0.0
H494 H 0.69372 0.82121 0.29329 0.0
Co495 Co 0.88818 0.95103 0.10424 0.0
C496 C 0.9395 0.94084 0.13242 0.0
C497 C 0.91714 0.985 0.1369 0.0
C498 C 0.94383 0.98403 0.14792 0.0
N499 N 0.91418 0.95787 0.12708 0.0
N500 N 0.95819 0.95646 0.14487 0.0
H501 H 0.94618 0.91901 0.12572 0.0
H502 H 0.90304 1.00561 0.13482 0.0
C503 C 0.84438 0.99148 0.12542 0.0
O504 O 0.84212 0.96754 0.13715 0.0
N505 N 0.8641 0.94431 0.0809 0.0
C506 C 0.87736 0.93494 0.06419 0.0
C507 C 0.85532 0.93532 0.04986 0.0
C508 C 0.8337 0.94977 0.07658 0.0
N509 N 0.82797 0.94466 0.05756 0.0
C510 C 0.94706 0.9636 0.08657 0.0
C511 C 0.92884 0.01574 0.06594 0.0
C512 C 0.95891 1.00342 0.06284 0.0
C513 C 0.96795 0.97723 0.07363 0.0
C514 C 0.90857 1.00136 0.07913 0.0
N515 N 0.91772 0.9754 0.0891 0.0
H516 H 0.95407 0.94256 0.09391 0.0
H517 H 0.88505 1.01026 0.08062 0.0
H518 H 0.90172 0.92876 0.06248 0.0
H519 H 0.81644 0.95777 0.0869 0.0
O520 O 0.90606 0.90961 0.10076 0.0
O521 O 0.86366 0.91973 0.11782 0.0
O522 O 0.86242 0.98953 0.11068 0.0
C523 C 0.88346 0.89911 0.1115 0.0
H524 H 0.95331 1.00325 0.15624 0.0
H525 H 0.85893 0.92876 0.0349 0.0
H526 H 0.92083 0.03599 0.05802 0.0
H527 H 0.99057 0.96638 0.0715 0.0
Co528 Co 0.69411 0.61819 0.84986 0.0
C529 C 0.68023 0.68056 0.86663 0.0
C530 C 0.68846 0.64602 0.8885 0.0
C531 C 0.68239 0.67421 0.8974 0.0
N532 N 0.68711 0.65006 0.86924 0.0
N533 N 0.67738 0.6959 0.88363 0.0
H534 H 0.67739 0.69131 0.8526 0.0
H535 H 0.6938 0.62416 0.89556 0.0
C536 C 0.73931 0.57848 0.86843 0.0
O537 O 0.71781 0.55746 0.86462 0.0
N538 N 0.70228 0.58659 0.83019 0.0
C539 C 0.73112 0.58126 0.82303 0.0
C540 C 0.72928 0.55961 0.80851 0.0
C541 C 0.683 0.56828 0.81953 0.0
N542 N 0.6991 0.55131 0.80623 0.0
C543 C 0.69983 0.65268 0.81537 0.0
C544 C 0.75142 0.68814 0.82531 0.0
C545 C 0.73773 0.69225 0.80701 0.0
C546 C 0.71158 0.67417 0.80221 0.0
C547 C 0.73903 0.66591 0.83811 0.0
N548 N 0.71353 0.64861 0.83297 0.0
H549 H 0.67961 0.63898 0.81139 0.0
H550 H 0.74957 0.66287 0.85217 0.0
H551 H 0.75212 0.59321 0.82762 0.0
H552 H 0.65785 0.56778 0.82114 0.0
O553 O 0.65081 0.62281 0.84151 0.0
O554 O 0.66709 0.59042 0.86415 0.0
O555 O 0.73497 0.60674 0.86299 0.0
C556 C 0.64382 0.60218 0.8546 0.0
H557 H 0.68253 0.67859 0.91281 0.0
H558 H 0.74863 0.55179 0.79966 0.0
H559 H 0.77167 0.70168 0.82958 0.0
H560 H 0.69994 0.67687 0.78841 0.0
Co561 Co 0.6421 0.44642 0.10135 0.0
C562 C 0.59475 0.42952 0.13103 0.0
C563 C 0.61254 0.47574 0.13547 0.0
C564 C 0.58845 0.47075 0.14827 0.0
N565 N 0.61676 0.44981 0.12468 0.0
N566 N 0.57708 0.44174 0.14537 0.0
H567 H 0.58993 0.40722 0.12432 0.0
H568 H 0.62447 0.4977 0.1334 0.0
C569 C 0.6857 0.48521 0.12379 0.0
O570 O 0.68833 0.46047 0.13485 0.0
N571 N 0.66594 0.44316 0.07775 0.0
C572 C 0.65309 0.43757 0.06031 0.0
C573 C 0.67613 0.43813 0.04658 0.0
C574 C 0.69692 0.44637 0.07451 0.0
N575 N 0.70361 0.44368 0.05546 0.0
C576 C 0.58284 0.46006 0.08423 0.0
C577 C 0.60132 0.51427 0.06578 0.0
C578 C 0.57217 0.50124 0.06115 0.0
C579 C 0.56268 0.47419 0.07094 0.0
C580 C 0.62092 0.49924 0.07898 0.0
N581 N 0.61188 0.47206 0.08765 0.0
H582 H 0.5758 0.43847 0.09099 0.0
H583 H 0.64418 0.50839 0.08113 0.0
H584 H 0.62852 0.4333 0.05774 0.0
H585 H 0.71406 0.4506 0.08572 0.0
O586 O 0.62518 0.40505 0.09608 0.0
O587 O 0.6678 0.41454 0.11312 0.0
O588 O 0.66719 0.48441 0.10928 0.0
C589 C 0.64857 0.39409 0.10601 0.0
H590 H 0.57904 0.4878 0.15827 0.0
H591 H 0.67313 0.43378 0.03128 0.0
H592 H 0.60972 0.53492 0.05842 0.0
H593 H 0.54021 0.46355 0.06796 0.0
Co594 Co 0.83878 0.40434 0.35873 0.0
C595 C 0.85641 0.34537 0.37859 0.0
C596 C 0.8438 0.38199 0.39838 0.0
C597 C 0.85263 0.35623 0.40888 0.0
N598 N 0.84619 0.37517 0.37945 0.0
N599 N 0.86052 0.33323 0.39644 0.0
H600 H 0.86117 0.33304 0.36524 0.0
H601 H 0.8364 0.4043 0.40414 0.0
C602 C 0.79217 0.44475 0.37589 0.0
O603 O 0.81261 0.46642 0.37137 0.0
N604 N 0.83017 0.43377 0.33797 0.0
C605 C 0.80176 0.43657 0.32974 0.0
C606 C 0.8032 0.45825 0.31527 0.0
C607 C 0.84871 0.454 0.32825 0.0
N608 N 0.83265 0.46944 0.31427 0.0
C609 C 0.83165 0.36693 0.32519 0.0
C610 C 0.78011 0.33283 0.33683 0.0
C611 C 0.7918 0.32854 0.31801 0.0
C612 C 0.81806 0.34576 0.31237 0.0
C613 C 0.79413 0.3549 0.34919 0.0
N614 N 0.81935 0.37183 0.34313 0.0
H615 H 0.85172 0.38023 0.32049 0.0
H616 H 0.78469 0.35851 0.36351 0.0
H617 H 0.78134 0.4232 0.33379 0.0
H618 H 0.87329 0.45727 0.33126 0.0
O619 O 0.88183 0.39891 0.35036 0.0
O620 O 0.86607 0.4338 0.37183 0.0
O621 O 0.79783 0.41632 0.37139 0.0
C622 C 0.88922 0.42058 0.36276 0.0
H623 H 0.85275 0.35439 0.42447 0.0
H624 H 0.78405 0.4644 0.30581 0.0
H625 H 0.75993 0.31981 0.34177 0.0
H626 H 0.82813 0.34284 0.29812 0.0
Co627 Co 0.89775 0.58 0.59151 0.0
C628 C 0.95105 0.57385 0.61898 0.0
C629 C 0.90748 0.58034 0.6337 0.0
C630 C 0.9313 0.58106 0.64716 0.0
N631 N 0.91988 0.57586 0.61597 0.0
N632 N 0.95863 0.57691 0.63781 0.0
H633 H 0.9683 0.57199 0.60773 0.0
H634 H 0.8829 0.58403 0.6366 0.0
C635 C 0.87213 0.5202 0.60954 0.0
O636 O 0.8982 0.51517 0.61906 0.0
N637 N 0.87606 0.58482 0.56727 0.0
C638 C 0.88886 0.59338 0.55031 0.0
C639 C 0.86574 0.59447 0.53655 0.0
C640 C 0.84527 0.58125 0.56373 0.0
N641 N 0.83836 0.58685 0.54499 0.0
C642 C 0.95593 0.5707 0.57182 0.0
C643 C 0.94454 0.51105 0.55837 0.0
C644 C 0.9715 0.52669 0.55197 0.0
C645 C 0.97721 0.55672 0.55919 0.0
C646 C 0.92371 0.52594 0.5711 0.0
N647 N 0.92952 0.55547 0.57776 0.0
H648 H 0.96047 0.59431 0.57649 0.0
H649 H 0.90227 0.51408 0.57466 0.0
H650 H 0.9132 0.59911 0.54812 0.0
H651 H 0.82833 0.57496 0.57465 0.0
O652 O 0.91512 0.62177 0.58855 0.0
O653 O 0.87046 0.61087 0.60307 0.0
O654 O 0.87024 0.5427 0.59744 0.0
C655 C 0.8904 0.63192 0.59758 0.0
H656 H 0.92878 0.5851 0.66252 0.0
H657 H 0.86867 0.60147 0.52165 0.0
H658 H 0.93881 0.48803 0.55292 0.0
H659 H 0.99782 0.56967 0.55489 0.0
Co660 Co 0.6819 0.38091 0.66952 0.0
C661 C 0.68343 0.31629 0.65486 0.0
C662 C 0.6986 0.34908 0.63337 0.0
C663 C 0.69673 0.31988 0.62498 0.0
N664 N 0.69016 0.34673 0.65205 0.0
N665 N 0.68728 0.29941 0.63855 0.0
H666 H 0.67422 0.30699 0.66822 0.0
H667 H 0.70425 0.37071 0.62614 0.0
C668 C 0.72565 0.42587 0.65245 0.0
O669 O 0.70015 0.44074 0.64733 0.0
N670 N 0.67333 0.41562 0.68715 0.0
C671 C 0.65336 0.43955 0.68411 0.0
C672 C 0.65341 0.45889 0.69995 0.0
C673 C 0.68561 0.42124 0.70486 0.0
N674 N 0.67356 0.44736 0.71309 0.0
C675 C 0.68205 0.3437 0.70409 0.0
C676 C 0.74518 0.3301 0.70412 0.0
C677 C 0.72606 0.31533 0.71791 0.0
C678 C 0.69404 0.32287 0.71785 0.0
C679 C 0.73218 0.35014 0.69036 0.0
N680 N 0.70094 0.35675 0.69039 0.0
H681 H 0.6573 0.34873 0.70414 0.0
H682 H 0.74739 0.35947 0.67937 0.0
H683 H 0.63968 0.44328 0.67121 0.0
H684 H 0.70289 0.40651 0.71166 0.0
O685 O 0.63857 0.36695 0.67184 0.0
O686 O 0.65585 0.39966 0.64975 0.0
O687 O 0.72337 0.4008 0.66238 0.0
C688 C 0.63242 0.38434 0.65693 0.0
H689 H 0.70127 0.31422 0.60999 0.0
H690 H 0.64011 0.48026 0.70142 0.0
H691 H 0.77014 0.32598 0.70366 0.0
H692 H 0.67799 0.31207 0.72791 0.0
Co693 Co 0.89498 0.41193 0.93255 0.0
C694 C 0.95454 0.40565 0.91134 0.0
C695 C 0.92165 0.43349 0.89546 0.0
C696 C 0.94879 0.43104 0.88481 0.0
N697 N 0.92543 0.41779 0.91216 0.0
N698 N 0.96927 0.41338 0.89478 0.0
H699 H 0.9648 0.39157 0.92265 0.0
H700 H 0.90059 0.44555 0.89113 0.0
C701 C 0.86556 0.47842 0.92624 0.0
O702 O 0.87748 0.49267 0.94135 0.0
N703 N 0.86426 0.40541 0.95312 0.0
C704 C 0.85814 0.37813 0.96222 0.0
C705 C 0.83834 0.38353 0.97743 0.0
C706 C 0.84763 0.42703 0.96308 0.0
N707 N 0.83185 0.41421 0.978 0.0
C708 C 0.92675 0.42278 0.96813 0.0
C709 C 0.95501 0.47844 0.95813 0.0
C710 C 0.95956 0.46666 0.97686 0.0
C711 C 0.94533 0.43823 0.98166 0.0
C712 C 0.93608 0.46221 0.94501 0.0
N713 N 0.92133 0.4353 0.95033 0.0
H714 H 0.91661 0.40058 0.97201 0.0
H715 H 0.93306 0.47143 0.93062 0.0
H716 H 0.868 0.35563 0.95872 0.0
H717 H 0.84779 0.45169 0.96007 0.0
O718 O 0.91166 0.3702 0.93671 0.0
O719 O 0.87336 0.38238 0.9165 0.0
O720 O 0.87107 0.44954 0.92293 0.0
C721 C 0.89133 0.361 0.92382 0.0
H722 H 0.9529 0.44084 0.87063 0.0
H723 H 0.82929 0.36618 0.98732 0.0
H724 H 0.96621 0.49987 0.95356 0.0
H725 H 0.94814 0.42809 0.99587 0.0
Co726 Co 0.85637 0.64758 0.18164 0.0
C727 C 0.84766 0.71062 0.16457 0.0
C728 C 0.84811 0.67455 0.14304 0.0
C729 C 0.84898 0.70296 0.13387 0.0
N730 N 0.84675 0.67917 0.16233 0.0
N731 N 0.8489 0.72565 0.14738 0.0
H732 H 0.84998 0.72215 0.17842 0.0
H733 H 0.84996 0.65195 0.13612 0.0
C734 C 0.7959 0.62319 0.1629 0.0
O735 O 0.79127 0.64917 0.15332 0.0
N736 N 0.86723 0.61577 0.20081 0.0
C737 C 0.89318 0.59775 0.20108 0.0
C738 C 0.89185 0.57789 0.21654 0.0
C739 C 0.85022 0.60592 0.21616 0.0
N740 N 0.86497 0.58303 0.22619 0.0
C741 C 0.85021 0.68077 0.21718 0.0
C742 C 0.78891 0.69962 0.21238 0.0
C743 C 0.80549 0.7101 0.22865 0.0
C744 C 0.83637 0.69997 0.23113 0.0
C745 C 0.80351 0.6801 0.19889 0.0
N746 N 0.83388 0.67116 0.20129 0.0
H747 H 0.87435 0.67386 0.21897 0.0
H748 H 0.79065 0.67326 0.18624 0.0
H749 H 0.91192 0.59809 0.19066 0.0
H750 H 0.82756 0.6154 0.2199 0.0
O751 O 0.89698 0.66688 0.18457 0.0
O752 O 0.88564 0.62922 0.16366 0.0
O753 O 0.81854 0.62079 0.17495 0.0
C754 C 0.90629 0.64851 0.17071 0.0
H755 H 0.85075 0.7066 0.11844 0.0
H756 H 0.90916 0.56035 0.21997 0.0
H757 H 0.76495 0.70681 0.20994 0.0
H758 H 0.85013 0.70777 0.24336 0.0
Co759 Co 0.6212 0.60034 0.43634 0.0
C760 C 0.56103 0.59767 0.41599 0.0
C761 C 0.5994 0.58783 0.39687 0.0
C762 C 0.57232 0.58946 0.38612 0.0
N763 N 0.59219 0.59305 0.41554 0.0
N764 N 0.54834 0.5956 0.39821 0.0
H765 H 0.54821 0.60421 0.42887 0.0
H766 H 0.62286 0.58461 0.39137 0.0
C767 C 0.65675 0.53696 0.43152 0.0
O768 O 0.64985 0.5251 0.44848 0.0
N769 N 0.65055 0.60858 0.4574 0.0
C770 C 0.648 0.63205 0.47043 0.0
C771 C 0.6722 0.63038 0.48332 0.0
C772 C 0.67724 0.59358 0.46236 0.0
N773 N 0.69051 0.60615 0.47831 0.0
C774 C 0.58357 0.59011 0.46963 0.0
C775 C 0.56415 0.5302 0.46105 0.0
C776 C 0.55317 0.54451 0.47807 0.0
C777 C 0.56307 0.57499 0.48211 0.0
C778 C 0.58478 0.54634 0.44884 0.0
N779 N 0.59498 0.57563 0.45353 0.0
H780 H 0.58932 0.61407 0.47264 0.0
H781 H 0.59198 0.53558 0.43543 0.0
H782 H 0.62982 0.64955 0.47074 0.0
H783 H 0.6871 0.5741 0.45461 0.0
O784 O 0.60217 0.6411 0.44025 0.0
O785 O 0.64214 0.63112 0.42081 0.0
O786 O 0.64682 0.56395 0.42665 0.0
C787 C 0.62266 0.65144 0.42787 0.0
H788 H 0.57047 0.58714 0.37058 0.0
H789 H 0.67639 0.64622 0.49526 0.0
H790 H 0.55679 0.50684 0.45712 0.0
H791 H 0.55424 0.58764 0.49453 0.0
Co792 Co 0.35276 0.38425 0.17785 0.0
C793 C 0.36015 0.32777 0.15386 0.0
C794 C 0.35939 0.36898 0.13634 0.0
C795 C 0.36225 0.34321 0.12438 0.0
N796 N 0.35802 0.35914 0.15481 0.0
N797 N 0.3624 0.31743 0.13552 0.0
H798 H 0.36003 0.31256 0.16628 0.0
H799 H 0.35791 0.39312 0.13187 0.0
C800 C 0.28907 0.41601 0.17169 0.0
O801 O 0.28107 0.41496 0.19 0.0
N802 N 0.34794 0.40908 0.20126 0.0
C803 C 0.3536 0.399 0.21939 0.0
C804 C 0.34772 0.42258 0.2322 0.0
C805 C 0.34025 0.4396 0.20334 0.0
N806 N 0.33913 0.44801 0.22219 0.0
C807 C 0.34688 0.331 0.20263 0.0
C808 C 0.28318 0.32308 0.1991 0.0
C809 C 0.29892 0.30724 0.21398 0.0
C810 C 0.33152 0.31041 0.21499 0.0
C811 C 0.2995 0.34392 0.18724 0.0
N812 N 0.33056 0.34958 0.19019 0.0
H813 H 0.37188 0.33352 0.20405 0.0
H814 H 0.28682 0.35555 0.17594 0.0
H815 H 0.36292 0.37663 0.22337 0.0
H816 H 0.33555 0.45521 0.19141 0.0
O817 O 0.39597 0.37498 0.18516 0.0
O818 O 0.3805 0.41533 0.16765 0.0
O819 O 0.31411 0.40281 0.16576 0.0
C820 C 0.40329 0.4002 0.17566 0.0
H821 H 0.36311 0.34331 0.10876 0.0
H822 H 0.35103 0.4216 0.24769 0.0
H823 H 0.25832 0.31998 0.19684 0.0
H824 H 0.34513 0.29851 0.2259 0.0
Co825 Co 0.40138 0.59774 0.92476 0.0
C826 C 0.4551 0.59063 0.89766 0.0
C827 C 0.4112 0.59237 0.88281 0.0
C828 C 0.43488 0.59227 0.86928 0.0
N829 N 0.42387 0.59122 0.90065 0.0
N830 N 0.46244 0.59116 0.87868 0.0
H831 H 0.47238 0.59166 0.90895 0.0
H832 H 0.38644 0.59425 0.87985 0.0
C833 C 0.37755 0.53605 0.90887 0.0
O834 O 0.40465 0.53031 0.90067 0.0
N835 N 0.37945 0.60529 0.94869 0.0
C836 C 0.39165 0.61972 0.96425 0.0
C837 C 0.36951 0.62051 0.9786 0.0
C838 C 0.34995 0.59763 0.95368 0.0
N839 N 0.34325 0.60665 0.97199 0.0
C840 C 0.45886 0.5885 0.94543 0.0
C841 C 0.44313 0.53179 0.96166 0.0
C842 C 0.47052 0.5467 0.96791 0.0
C843 C 0.47853 0.57523 0.95932 0.0
C844 C 0.42412 0.54584 0.94773 0.0
N845 N 0.43205 0.57385 0.93962 0.0
H846 H 0.46466 0.61133 0.93992 0.0
H847 H 0.40205 0.53487 0.94463 0.0
H848 H 0.41521 0.62873 0.9652 0.0
H849 H 0.33379 0.58584 0.94412 0.0
O850 O 0.41936 0.63952 0.92646 0.0
O851 O 0.37469 0.62745 0.91214 0.0
O852 O 0.37386 0.56015 0.9196 0.0
C853 C 0.39458 0.64886 0.91717 0.0
H854 H 0.43205 0.59366 0.85377 0.0
H855 H 0.37293 0.62974 0.99301 0.0
H856 H 0.43542 0.5102 0.96823 0.0
H857 H 0.49947 0.58765 0.96361 0.0
Co858 Co 0.17467 0.64125 0.68245 0.0
C859 C 0.17945 0.69272 0.65347 0.0
C860 C 0.15459 0.65344 0.64208 0.0
C861 C 0.15343 0.67722 0.62876 0.0
N862 N 0.17024 0.66337 0.65791 0.0
N863 N 0.16888 0.70198 0.63604 0.0
H864 H 0.19263 0.70776 0.66294 0.0
H865 H 0.14367 0.63085 0.6404 0.0
C866 C 0.23651 0.60494 0.67743 0.0
O867 O 0.2389 0.59793 0.6958 0.0
N868 N 0.17814 0.61984 0.70706 0.0
C869 C 0.17432 0.63387 0.72436 0.0
C870 C 0.17548 0.61189 0.73862 0.0
C871 C 0.18007 0.589 0.71109 0.0
N872 N 0.17953 0.58361 0.7304 0.0
C873 C 0.17655 0.70257 0.69866 0.0
C874 C 0.23585 0.6987 0.71425 0.0
C875 C 0.21646 0.72364 0.71989 0.0
C876 C 0.18695 0.72603 0.71113 0.0
C877 C 0.22481 0.6761 0.70128 0.0
N878 N 0.19503 0.67751 0.69422 0.0
H879 H 0.15307 0.70404 0.69299 0.0
H880 H 0.2396 0.65649 0.69817 0.0
H881 H 0.16985 0.65842 0.7266 0.0
H882 H 0.18221 0.57109 0.70012 0.0
O883 O 0.13161 0.65094 0.68899 0.0
O884 O 0.14702 0.60873 0.67316 0.0
O885 O 0.21493 0.62327 0.67146 0.0
C886 C 0.12406 0.62515 0.6802 0.0
H887 H 0.14139 0.67659 0.61501 0.0
H888 H 0.17249 0.6165 0.75388 0.0
H889 H 0.25872 0.69543 0.72061 0.0
H890 H 0.1714 0.74528 0.71438 0.0
Co891 Co 0.15136 0.43247 0.41622 0.0
C892 C 0.08671 0.43172 0.39798 0.0
C893 C 0.12422 0.43867 0.37789 0.0
C894 C 0.09679 0.43652 0.36768 0.0
N895 N 0.11817 0.4358 0.39693 0.0
N896 N 0.07322 0.43215 0.38027 0.0
H897 H 0.0739 0.42704 0.41107 0.0
H898 H 0.14732 0.44147 0.37176 0.0
C899 C 0.15939 0.49748 0.39907 0.0
O900 O 0.12923 0.50036 0.39595 0.0
N901 N 0.1857 0.42918 0.43441 0.0
C902 C 0.21585 0.43102 0.42896 0.0
C903 C 0.2345 0.4298 0.44504 0.0
C904 C 0.18637 0.42686 0.45392 0.0
N905 N 0.21612 0.42744 0.46082 0.0
C906 C 0.10217 0.43467 0.44434 0.0
C907 C 0.11271 0.49455 0.45766 0.0
C908 C 0.08776 0.47747 0.4656 0.0
C909 C 0.0829 0.44698 0.45879 0.0
C910 C 0.13136 0.48139 0.44309 0.0
N911 N 0.12534 0.4521 0.43611 0.0
H912 H 0.09809 0.411 0.4396 0.0
H913 H 0.15105 0.49463 0.43789 0.0
H914 H 0.22376 0.43355 0.4142 0.0
H915 H 0.16566 0.42563 0.46287 0.0
O916 O 0.14073 0.38875 0.42043 0.0
O917 O 0.17407 0.4059 0.39848 0.0
O918 O 0.17031 0.47333 0.40751 0.0
C919 C 0.16001 0.38232 0.40641 0.0
H920 H 0.09438 0.43759 0.35213 0.0
H921 H 0.25979 0.4305 0.445 0.0
H922 H 0.11822 0.51776 0.46287 0.0
H923 H 0.06404 0.43273 0.46435 0.0
Co924 Co 0.33383 0.64562 0.34297 0.0
C925 C 0.33051 0.70677 0.36206 0.0
C926 C 0.31635 0.67021 0.38135 0.0
C927 C 0.31743 0.69799 0.39154 0.0
N928 N 0.3245 0.67589 0.36288 0.0
N929 N 0.32616 0.72081 0.37928 0.0
H930 H 0.33926 0.71848 0.34931 0.0
H931 H 0.3113 0.64733 0.38715 0.0
C932 C 0.26741 0.61824 0.34125 0.0
O933 O 0.26246 0.62927 0.32383 0.0
N934 N 0.34471 0.61499 0.32281 0.0
C935 C 0.37314 0.61249 0.31426 0.0
C936 C 0.3716 0.59169 0.29927 0.0
C937 C 0.32651 0.59452 0.31293 0.0
N938 N 0.34231 0.58057 0.29835 0.0
C939 C 0.33017 0.67783 0.30702 0.0
C940 C 0.27427 0.70847 0.3135 0.0
C941 C 0.28971 0.71265 0.29582 0.0
C942 C 0.31812 0.69726 0.29276 0.0
C943 C 0.287 0.68835 0.32735 0.0
N944 N 0.31416 0.67245 0.32374 0.0
H945 H 0.35287 0.66763 0.30468 0.0
H946 H 0.27487 0.68527 0.34092 0.0
H947 H 0.39377 0.62574 0.31788 0.0
H948 H 0.3023 0.5899 0.31591 0.0
O949 O 0.37563 0.66265 0.34175 0.0
O950 O 0.36072 0.6239 0.36087 0.0
O951 O 0.29376 0.62243 0.34965 0.0
C952 C 0.38299 0.64221 0.3549 0.0
H953 H 0.31264 0.70114 0.40677 0.0
H954 H 0.39062 0.58518 0.28976 0.0
H955 H 0.25244 0.72036 0.31651 0.0
H956 H 0.33138 0.70082 0.27961 0.0
Co957 Co 0.14932 0.58792 0.09609 0.0
C958 C 0.08974 0.60356 0.1149 0.0
C959 C 0.12626 0.59652 0.13575 0.0
C960 C 0.09909 0.6041 0.14542 0.0
N961 N 0.12021 0.59618 0.11667 0.0
N962 N 0.07622 0.60834 0.13225 0.0
H963 H 0.07777 0.60557 0.10118 0.0
H964 H 0.1488 0.59153 0.14213 0.0
C965 C 0.19195 0.54393 0.11391 0.0
O966 O 0.21329 0.56383 0.10805 0.0
N967 N 0.17821 0.57871 0.07519 0.0
C968 C 0.18226 0.54989 0.06771 0.0
C969 C 0.20307 0.55147 0.0527 0.0
C970 C 0.19663 0.5976 0.06446 0.0
N971 N 0.21207 0.58144 0.05057 0.0
C972 C 0.10994 0.57706 0.06395 0.0
C973 C 0.08134 0.52331 0.07719 0.0
C974 C 0.07415 0.53419 0.05854 0.0
C975 C 0.08866 0.56161 0.0521 0.0
C976 C 0.10299 0.53955 0.08864 0.0
N977 N 0.11724 0.56579 0.08179 0.0
H978 H 0.12147 0.59771 0.05855 0.0
H979 H 0.10837 0.531 0.10294 0.0
H980 H 0.1707 0.52904 0.07284 0.0
H981 H 0.19841 0.62256 0.06651 0.0
O982 O 0.14181 0.62984 0.08648 0.0
O983 O 0.17842 0.61703 0.10768 0.0
O984 O 0.16321 0.54888 0.10994 0.0
C985 C 0.16412 0.63876 0.09801 0.0
H986 H 0.09618 0.60566 0.16093 0.0
H987 H 0.21133 0.53185 0.04424 0.0
H988 H 0.07038 0.50248 0.08287 0.0
H989 H 0.08441 0.57064 0.03774 0.0
Co990 Co 0.19531 0.38494 0.85108 0.0
C991 C 0.18218 0.34124 0.88323 0.0
C992 C 0.23007 0.35588 0.88311 0.0
C993 C 0.2267 0.33226 0.89638 0.0
N994 N 0.20209 0.36173 0.87486 0.0
N995 N 0.19662 0.32285 0.89629 0.0
H996 H 0.1584 0.33742 0.87853 0.0
H997 H 0.25208 0.36593 0.87864 0.0
C998 C 0.23741 0.42772 0.87101 0.0
O999 O 0.21437 0.42908 0.88352 0.0
N1000 N 0.18842 0.40637 0.82698 0.0
C1001 C 0.17402 0.39328 0.81171 0.0
C1002 C 0.1729 0.41456 0.797 0.0
C1003 C 0.19609 0.43552 0.82139 0.0
N1004 N 0.18688 0.44119 0.80295 0.0
C1005 C 0.20654 0.32382 0.83567 0.0
C1006 C 0.25764 0.3404 0.8134 0.0
C1007 C 0.24518 0.31026 0.81137 0.0
C1008 C 0.21959 0.3019 0.82298 0.0
C1009 C 0.24384 0.3616 0.82617 0.0
N1010 N 0.21839 0.35333 0.83691 0.0
H1011 H 0.18614 0.31749 0.844 0.0
H1012 H 0.25263 0.38523 0.82657 0.0
H1013 H 0.16481 0.36977 0.81134 0.0
H1014 H 0.2082 0.45199 0.83059 0.0
O1015 O 0.15289 0.36821 0.84916 0.0
O1016 O 0.16592 0.41253 0.86355 0.0
O1017 O 0.23463 0.41013 0.85612 0.0
C1018 C 0.14413 0.39318 0.85848 0.0
H1019 H 0.24543 0.32136 0.90442 0.0
H1020 H 0.16191 0.41066 0.78315 0.0
H1021 H 0.27698 0.34812 0.80451 0.0
H1022 H 0.20938 0.27881 0.82201 0.0
Co1023 Co 0.37229 0.4273 0.60492 0.0
C1024 C 0.43638 0.41508 0.62062 0.0
C1025 C 0.4039 0.43178 0.64198 0.0
C1026 C 0.43142 0.42432 0.65106 0.0
N1027 N 0.40688 0.42601 0.62294 0.0
N1028 N 0.45179 0.41375 0.6377 0.0
H1029 H 0.44575 0.40683 0.607 0.0
H1030 H 0.38263 0.43952 0.64894 0.0
C1031 C 0.34062 0.48933 0.61285 0.0
O1032 O 0.33567 0.4932 0.59428 0.0
N1033 N 0.33617 0.42827 0.58763 0.0
C1034 C 0.30641 0.42722 0.59405 0.0
C1035 C 0.2863 0.4279 0.57857 0.0
C1036 C 0.33362 0.42941 0.56812 0.0
N1037 N 0.30336 0.42929 0.56223 0.0
C1038 C 0.40928 0.43577 0.57107 0.0
C1039 C 0.42992 0.49557 0.57873 0.0
C1040 C 0.44066 0.48038 0.56196 0.0
C1041 C 0.43005 0.45001 0.55833 0.0
C1042 C 0.40901 0.48036 0.59119 0.0
N1043 N 0.39817 0.4511 0.58698 0.0
H1044 H 0.40224 0.41207 0.56807 0.0
H1045 H 0.40245 0.49185 0.60447 0.0
H1046 H 0.29971 0.42644 0.60911 0.0
H1047 H 0.35311 0.43004 0.5583 0.0
O1048 O 0.38284 0.38566 0.59614 0.0
O1049 O 0.35088 0.39636 0.62043 0.0
O1050 O 0.35598 0.46563 0.61884 0.0
C1051 C 0.36479 0.37543 0.60982 0.0
H1052 H 0.43594 0.42589 0.66642 0.0
H1053 H 0.26103 0.42806 0.57936 0.0
H1054 H 0.43778 0.5189 0.58233 0.0
H1055 H 0.43842 0.43682 0.546 0.0
H1056 H 0.19289 0.2552 0.36441 0.0
H1057 H 0.16011 0.21757 0.4184 0.0
H1058 H 0.14914 0.2703 0.43031 0.0
H1059 H 0.1488 0.32747 0.42531 0.0
H1060 H 0.184 0.36484 0.37174 0.0
H1061 H 0.19382 0.31213 0.35971 0.0
C1062 C 0.18321 0.2586 0.37874 0.0
C1063 C 0.17727 0.23252 0.39048 0.0
C1064 C 0.17733 0.28902 0.38557 0.0
C1065 C 0.16517 0.23727 0.40915 0.0
C1066 C 0.15873 0.26742 0.41593 0.0
C1067 C 0.15852 0.324 0.41099 0.0
C1068 C 0.16556 0.35005 0.39942 0.0
C1069 C 0.1647 0.29352 0.40427 0.0
C1070 C 0.17845 0.34521 0.38097 0.0
C1071 C 0.18405 0.31505 0.37405 0.0
H1072 H 0.04004 0.88366 0.65865 0.0
H1073 H 0.01395 0.95715 0.61941 0.0
H1074 H 0.95863 0.94845 0.62681 0.0
H1075 H 0.91776 0.9195 0.64423 0.0
H1076 H 0.94395 0.84479 0.68269 0.0
H1077 H 0.99919 0.85445 0.67588 0.0
C1078 C 0.02225 0.89801 0.65192 0.0
C1079 C 0.03102 0.92119 0.63861 0.0
C1080 C 0.99055 0.89254 0.65605 0.0
C1081 C 1.00769 0.93913 0.62965 0.0
C1082 C 0.97612 0.93419 0.63391 0.0
C1083 C 0.93557 0.90538 0.65115 0.0
C1084 C 0.92678 0.8815 0.66398 0.0
C1085 C 0.96727 0.91086 0.64702 0.0
C1086 C 0.9501 0.86326 0.67273 0.0
C1087 C 0.98169 0.86881 0.66887 0.0
H1088 H 0.33911 0.67356 0.90714 0.0
H1089 H 0.4348 0.69891 0.91894 0.0
H1090 H 0.42249 0.75389 0.91233 0.0
H1091 H 0.38409 0.79461 0.90273 0.0
H1092 H 0.2885 0.76759 0.89172 0.0
H1093 H 0.30112 0.71353 0.89877 0.0
C1094 C 0.35738 0.69105 0.90822 0.0
C1095 C 0.38789 0.68216 0.91333 0.0
C1096 C 0.35003 0.7224 0.90469 0.0
C1097 C 0.41114 0.70519 0.91495 0.0
C1098 C 0.40409 0.73659 0.91118 0.0
C1099 C 0.3661 0.77684 0.90194 0.0
C1100 C 0.33534 0.78531 0.89683 0.0
C1101 C 0.37357 0.74547 0.90598 0.0
C1102 C 0.31219 0.76202 0.89597 0.0
C1103 C 0.31945 0.73095 0.89982 0.0
H1104 H 0.57937 0.17854 0.16787 0.0
H1105 H 0.61335 0.08412 0.17363 0.0
H1106 H 0.56241 0.06367 0.16451 0.0
H1107 H 0.50933 0.07207 0.15333 0.0
H1108 H 0.47436 0.16548 0.14544 0.0
H1109 H 0.52446 0.18695 0.15675 0.0
C1110 C 0.57537 0.15355 0.16727 0.0
C1111 C 0.60005 0.13285 0.17137 0.0
C1112 C 0.54596 0.14178 0.1615 0.0
C1113 C 0.59478 0.10051 0.17038 0.0
C1114 C 0.56564 0.08876 0.1652 0.0
C1115 C 0.51239 0.09714 0.15441 0.0
C1116 C 0.48806 0.11716 0.14878 0.0
C1117 C 0.54122 0.10911 0.16052 0.0
C1118 C 0.49281 0.14962 0.14971 0.0
C1119 C 0.52141 0.16185 0.15619 0.0
H1120 H 0.12435 0.68828 0.09818 0.0
H1121 H 0.22139 0.6633 0.10496 0.0
H1122 H 0.23458 0.71772 0.11203 0.0
H1123 H 0.21823 0.77184 0.11769 0.0
H1124 H 0.12091 0.79676 0.11384 0.0
H1125 H 0.10782 0.74292 0.10439 0.0
C1126 C 0.14841 0.69495 0.10096 0.0
C1127 C 0.17199 0.67201 0.10086 0.0
C1128 C 0.15561 0.72614 0.10571 0.0
C1129 C 0.20295 0.68065 0.10492 0.0
C1130 C 0.21046 0.71171 0.10898 0.0
C1131 C 0.19422 0.76554 0.11451 0.0
C1132 C 0.17056 0.78822 0.11614 0.0
C1133 C 0.18696 0.73456 0.10961 0.0
C1134 C 0.13942 0.77962 0.11257 0.0
C1135 C 0.13203 0.74892 0.10716 0.0
H1136 H 0.47723 0.90997 0.3513 0.0
H1137 H 0.49644 0.98095 0.39394 0.0
H1138 H 0.55244 0.97615 0.38773 0.0
H1139 H 0.59625 0.94933 0.37175 0.0
H1140 H 0.5772 0.87781 0.32936 0.0
H1141 H 0.52104 0.88557 0.33369 0.0
C1142 C 0.49362 0.92479 0.35896 0.0
C1143 C 0.48259 0.94561 0.37319 0.0
C1144 C 0.52592 0.92168 0.35544 0.0
C1145 C 0.50428 0.96439 0.38314 0.0
C1146 C 0.53634 0.96172 0.37956 0.0
C1147 C 0.57982 0.93566 0.36331 0.0
C1148 C 0.59097 0.91291 0.35033 0.0
C1149 C 0.54749 0.94001 0.36602 0.0
C1150 C 0.56931 0.89542 0.33951 0.0
C1151 C 0.53713 0.89981 0.34199 0.0
H1152 H 0.36839 0.22858 0.61979 0.0
H1153 H 0.2814 0.24775 0.64881 0.0
H1154 H 0.28759 0.30361 0.64276 0.0
H1155 H 0.31773 0.34706 0.6292 0.0
H1156 H 0.4034 0.3282 0.59844 0.0
H1157 H 0.39787 0.27236 0.60504 0.0
C1158 C 0.35093 0.24516 0.6247 0.0
C1159 C 0.32445 0.23428 0.63459 0.0
C1160 C 0.3544 0.27723 0.62084 0.0
C1161 C 0.30176 0.25572 0.64093 0.0
C1162 C 0.30536 0.28761 0.63755 0.0
C1163 C 0.33518 0.3307 0.62396 0.0
C1164 C 0.36096 0.34168 0.61343 0.0
C1165 C 0.33155 0.29863 0.6275 0.0
C1166 C 0.38325 0.32024 0.60654 0.0
C1167 C 0.38016 0.28833 0.61035 0.0
H1168 H 0.92623 0.08078 0.86795 0.0
H1169 H 0.94113 0.16638 0.83648 0.0
H1170 H 0.99648 0.16533 0.84493 0.0
H1171 H 0.04014 0.14144 0.86217 0.0
H1172 H 0.02617 0.05579 0.89371 0.0
H1173 H 0.97095 0.0557 0.88446 0.0
C1174 C 0.94164 0.0991 0.86286 0.0
C1175 C 0.92946 0.12365 0.85159 0.0
C1176 C 0.97359 0.09845 0.86787 0.0
C1177 C 0.94978 0.14723 0.84516 0.0
C1178 C 0.98149 0.14666 0.85001 0.0
C1179 C 0.02532 0.12237 0.86678 0.0
C1180 C 0.03759 0.09857 0.87861 0.0
C1181 C 0.99361 0.12251 0.86144 0.0
C1182 C 0.01748 0.07455 0.88475 0.0
C1183 C 0.98586 0.07444 0.87941 0.0
H1184 H 0.88534 0.77897 0.60762 0.0
H1185 H 0.80371 0.75463 0.64083 0.0
H1186 H 0.81164 0.69939 0.63317 0.0
H1187 H 0.84277 0.6579 0.61801 0.0
H1188 H 0.92551 0.6817 0.58556 0.0
H1189 H 0.91621 0.7372 0.5919 0.0
C1190 C 0.86904 0.76159 0.61289 0.0
C1191 C 0.84385 0.77087 0.6247 0.0
C1192 C 0.87413 0.72977 0.60871 0.0
C1193 C 0.82328 0.74802 0.63177 0.0
C1194 C 0.82783 0.71646 0.6274 0.0
C1195 C 0.85877 0.6752 0.61227 0.0
C1196 C 0.88485 0.6656 0.60135 0.0
C1197 C 0.85338 0.70703 0.61608 0.0
C1198 C 0.90532 0.6884 0.59407 0.0
C1199 C 0.89997 0.72017 0.59765 0.0
H1200 H 0.97854 0.12349 0.36023 0.0
H1201 H 1.00365 0.07149 0.41105 0.0
H1202 H 0.05931 0.07785 0.40342 0.0
H1203 H 0.1008 0.09821 0.38206 0.0
H1204 H 0.07535 0.15347 0.33248 0.0
H1205 H 0.01996 0.14602 0.3398 0.0
C1206 C 0.9963 0.11345 0.36951 0.0
C1207 C 0.98722 0.09679 0.38604 0.0
C1208 C 0.02813 0.11793 0.36528 0.0
C1209 C 1.01028 0.08438 0.39824 0.0
C1210 C 0.04201 0.088 0.39387 0.0
C1211 C 0.08308 0.10863 0.37291 0.0
C1212 C 0.09212 0.12625 0.35672 0.0
C1213 C 0.05123 0.10474 0.37741 0.0
C1214 C 0.06897 0.13991 0.34507 0.0
C1215 C 0.03729 0.13556 0.3492 0.0
H1216 H 0.64704 0.24712 0.11567 0.0
H1217 H 0.72399 0.26872 0.1536 0.0
H1218 H 0.71944 0.3241 0.14553 0.0
H1219 H 0.69236 0.36655 0.12868 0.0
H1220 H 0.61417 0.34551 0.09149 0.0
H1221 H 0.62049 0.28976 0.09817 0.0
C1222 C 0.6631 0.26392 0.12191 0.0
C1223 C 0.6859 0.25383 0.13518 0.0
C1224 C 0.65996 0.29583 0.11743 0.0
C1225 C 0.70617 0.27595 0.14345 0.0
C1226 C 0.70357 0.30759 0.13882 0.0
C1227 C 0.67676 0.34979 0.12195 0.0
C1228 C 0.6528 0.36022 0.1096 0.0
C1229 C 0.68033 0.31784 0.12602 0.0
C1230 C 0.63277 0.33814 0.10107 0.0
C1231 C 0.63638 0.30624 0.10488 0.0
H1232 H 0.41896 0.92173 0.89228 0.0
H1233 H 0.44037 0.86468 0.84255 0.0
H1234 H 0.49623 0.87143 0.84842 0.0
H1235 H 0.53925 0.89446 0.86725 0.0
H1236 H 0.51864 0.94859 0.91815 0.0
H1237 H 0.46235 0.94209 0.9124 0.0
C1238 C 0.4359 0.9107 0.8828 0.0
C1239 C 0.42552 0.89285 0.86695 0.0
C1240 C 0.46814 0.91426 0.88646 0.0
C1241 C 0.44772 0.87845 0.85489 0.0
C1242 C 0.4797 0.88239 0.85818 0.0
C1243 C 0.52235 0.90487 0.87701 0.0
C1244 C 0.53291 0.92227 0.89296 0.0
C1245 C 0.49019 0.90042 0.87382 0.0
C1246 C 0.51091 0.93513 0.90578 0.0
C1247 C 0.47881 0.93146 0.90246 0.0
H1248 H 0.88396 0.21456 0.91158 0.0
H1249 H 0.8111 0.24309 0.87238 0.0
H1250 H 0.82014 0.29775 0.88078 0.0
H1251 H 0.84923 0.33734 0.89866 0.0
H1252 H 0.92267 0.30988 0.93782 0.0
H1253 H 0.91308 0.25483 0.93001 0.0
C1254 C 0.86983 0.23277 0.90512 0.0
C1255 C 0.84683 0.22485 0.8914 0.0
C1256 C 0.87548 0.26426 0.90986 0.0
C1257 C 0.82902 0.24868 0.88288 0.0
C1258 C 0.83419 0.27989 0.88767 0.0
C1259 C 0.86324 0.31937 0.90549 0.0
C1260 C 0.8867 0.32771 0.91876 0.0
C1261 C 0.85753 0.28795 0.90099 0.0
C1262 C 0.90455 0.30408 0.92749 0.0
C1263 C 0.899 0.27261 0.92307 0.0
H1264 H 0.5353 0.12705 0.65073 0.0
H1265 H 0.51243 0.03128 0.63769 0.0
H1266 H 0.45745 0.04135 0.64445 0.0
H1267 H 0.41594 0.07667 0.65445 0.0
H1268 H 0.43728 0.17205 0.66949 0.0
H1269 H 0.49262 0.16304 0.66157 0.0
C1270 C 0.51813 0.10855 0.6494 0.0
C1271 C 0.52793 0.07838 0.64389 0.0
C1272 C 0.48633 0.11444 0.65364 0.0
C1273 C 0.50556 0.0545 0.64222 0.0
C1274 C 0.47408 0.06029 0.64598 0.0
C1275 C 0.4326 0.09563 0.6559 0.0
C1276 C 0.42245 0.12506 0.66241 0.0
C1277 C 0.46423 0.09007 0.65176 0.0
C1278 C 0.4445 0.14919 0.66446 0.0
C1279 C 0.47612 0.14401 0.65994 0.0
H1280 H 0.65432 0.67568 0.39762 0.0
H1281 H 0.59475 0.7016 0.44534 0.0
H1282 H 0.59976 0.75675 0.43653 0.0
H1283 H 0.62224 0.79764 0.41559 0.0
H1284 H 0.68102 0.77101 0.36768 0.0
H1285 H 0.67493 0.71604 0.37611 0.0
C1286 C 0.64239 0.69339 0.40609 0.0
C1287 C 0.62436 0.68463 0.42218 0.0
C1288 C 0.64521 0.72489 0.40087 0.0
C1289 C 0.60876 0.70778 0.43288 0.0
C1290 C 0.61169 0.7393 0.42788 0.0
C1291 C 0.63374 0.77977 0.40706 0.0
C1292 C 0.65212 0.7884 0.39106 0.0
C1293 C 0.63005 0.74814 0.41198 0.0
C1294 C 0.6665 0.76498 0.37992 0.0
C1295 C 0.66319 0.73355 0.38481 0.0
H1296 H 0.9829 0.89973 0.1528 0.0
H1297 H 1.00631 0.99709 0.14631 0.0
H1298 H 0.06127 0.98549 0.15178 0.0
H1299 H 0.10314 0.94781 0.15739 0.0
H1300 H 0.08106 0.85043 0.16509 0.0
H1301 H 0.02534 0.86176 0.16018 0.0
C1302 C 1.00011 0.91831 0.1527 0.0
C1303 C 0.9904 0.94926 0.14928 0.0
C1304 C 0.03195 0.91146 0.15597 0.0
C1305 C 1.01294 0.97318 0.14924 0.0
C1306 C 0.04449 0.96654 0.15221 0.0
C1307 C 0.08614 0.92903 0.15801 0.0
C1308 C 0.0962 0.8983 0.16143 0.0
C1309 C 0.05429 0.93579 0.15545 0.0
C1310 C 0.07386 0.8743 0.16247 0.0
C1311 C 0.04203 0.88077 0.15962 0.0
H1312 H 0.64535 0.72249 0.91278 0.0
H1313 H 0.69781 0.74352 0.86129 0.0
H1314 H 0.69202 0.79952 0.86761 0.0
H1315 H 0.67385 0.8426 0.88868 0.0
H1316 H 0.6202 0.82101 0.93973 0.0
H1317 H 0.6247 0.76532 0.93275 0.0
C1318 C 0.6555 0.73936 0.90297 0.0
C1319 C 0.67215 0.72886 0.88667 0.0
C1320 C 0.65195 0.77147 0.90666 0.0
C1321 C 0.68471 0.751 0.87386 0.0
C1322 C 0.68156 0.78302 0.87754 0.0
C1323 C 0.66304 0.82569 0.89822 0.0
C1324 C 0.64688 0.83599 0.91477 0.0
C1325 C 0.6655 0.79355 0.89402 0.0
C1326 C 0.63277 0.81378 0.92689 0.0
C1327 C 0.63539 0.78187 0.92294 0.0
H1328 H 0.45728 0.36655 0.17088 0.0
H1329 H 0.4212 0.46034 0.17526 0.0
H1330 H 0.47263 0.4816 0.16772 0.0
H1331 H 0.52636 0.47378 0.15714 0.0
H1332 H 0.56304 0.38057 0.1508 0.0
H1333 H 0.513 0.3588 0.16162 0.0
C1334 C 0.46098 0.3916 0.17052 0.0
C1335 C 0.4356 0.4119 0.17366 0.0
C1336 C 0.49059 0.40375 0.16553 0.0
C1337 C 0.44043 0.4443 0.17285 0.0
C1338 C 0.4698 0.45648 0.16849 0.0
C1339 C 0.52374 0.44872 0.15849 0.0
C1340 C 0.54852 0.42888 0.15319 0.0
C1341 C 0.49486 0.43646 0.1644 0.0
C1342 C 0.54427 0.39638 0.15463 0.0
C1343 C 0.51568 0.38393 0.16087 0.0
H1344 H 0.90107 0.20571 0.43356 0.0
H1345 H 0.85144 0.1706 0.3838 0.0
H1346 H 0.84342 0.22366 0.37215 0.0
H1347 H 0.84726 0.28031 0.37713 0.0
H1348 H 0.8947 0.31593 0.42745 0.0
H1349 H 0.90682 0.26273 0.43782 0.0
C1350 C 0.88885 0.20974 0.42007 0.0
C1351 C 0.87678 0.18428 0.40962 0.0
C1352 C 0.88369 0.24049 0.4136 0.0
C1353 C 0.86077 0.18982 0.39221 0.0
C1354 C 0.85616 0.22018 0.38551 0.0
C1355 C 0.86068 0.27639 0.39018 0.0
C1356 C 0.86995 0.30199 0.40153 0.0
C1357 C 0.86706 0.24572 0.39623 0.0
C1358 C 0.88697 0.29656 0.41859 0.0
C1359 C 0.89397 0.26615 0.4245 0.0
H1360 H 0.97834 0.61435 0.66678 0.0
H1361 H 1.00933 0.54476 0.62598 0.0
H1362 H 0.06336 0.55177 0.63666 0.0
H1363 H 0.10216 0.58016 0.65603 0.0
H1364 H 0.07167 0.65156 0.69587 0.0
H1365 H 0.01714 0.64112 0.68738 0.0
C1366 C 0.99687 0.60036 0.6605 0.0
C1367 C 0.98986 0.5791 0.64557 0.0
C1368 C 0.028 0.60496 0.66649 0.0
C1369 C 0.01421 0.56147 0.63735 0.0
C1370 C 0.04508 0.56544 0.64348 0.0
C1371 C 0.08357 0.59316 0.66306 0.0
C1372 C 0.091 0.61661 0.67656 0.0
C1373 C 0.05233 0.58751 0.65779 0.0
C1374 C 0.06661 0.6334 0.68541 0.0
C1375 C 0.03541 0.62749 0.68052 0.0
H1376 H 0.6552 0.27412 0.60914 0.0
H1377 H 0.70306 0.25196 0.66204 0.0
H1378 H 0.69217 0.19623 0.65711 0.0
H1379 H 0.66967 0.15379 0.63728 0.0
H1380 H 0.61841 0.17669 0.58557 0.0
H1381 H 0.62978 0.23211 0.59044 0.0
C1382 C 0.66327 0.25697 0.6195 0.0
C1383 C 0.68021 0.26686 0.63579 0.0
C1384 C 0.65622 0.2252 0.61678 0.0
C1385 C 0.69003 0.24468 0.64939 0.0
C1386 C 0.68385 0.21292 0.64654 0.0
C1387 C 0.66093 0.17097 0.62713 0.0
C1388 C 0.64338 0.16119 0.61103 0.0
C1389 C 0.66706 0.20288 0.63024 0.0
C1390 C 0.63189 0.18367 0.5981 0.0
C1391 C 0.63849 0.21534 0.60084 0.0
H1392 H 0.0998 0.35452 0.87357 0.0
H1393 H 0.11534 0.44838 0.85343 0.0
H1394 H 0.06183 0.46275 0.86214 0.0
H1395 H 1.01119 0.44923 0.8766 0.0
H1396 H 0.99661 0.35705 0.89954 0.0
H1397 H 0.04906 0.34133 0.88892 0.0
C1398 C 0.0912 0.37795 0.87094 0.0
C1399 C 0.11116 0.40034 0.86272 0.0
C1400 C 0.06073 0.38639 0.87669 0.0
C1401 C 0.1002 0.43083 0.85971 0.0
C1402 C 0.06968 0.43906 0.8647 0.0
C1403 C 0.01953 0.42568 0.87913 0.0
C1404 C 1.00017 0.40427 0.88874 0.0
C1405 C 0.04984 0.41714 0.87338 0.0
C1406 C 1.01129 0.37394 0.89228 0.0
C1407 C 0.04117 0.36494 0.88612 0.0
H1408 H 0.88413 0.75216 0.1197 0.0
H1409 H 0.82312 0.77348 0.16746 0.0
H1410 H 0.82804 0.82948 0.16057 0.0
H1411 H 0.84896 0.87233 0.1403 0.0
H1412 H 0.91174 0.85025 0.09341 0.0
H1413 H 0.9067 0.79464 0.10049 0.0
C1414 C 0.87177 0.76906 0.12854 0.0
C1415 C 0.85296 0.75867 0.14394 0.0
C1416 C 0.87499 0.80108 0.12458 0.0
C1417 C 0.83774 0.78091 0.15556 0.0
C1418 C 0.84046 0.81289 0.15155 0.0
C1419 C 0.86149 0.85531 0.13163 0.0
C1420 C 0.88053 0.86545 0.11624 0.0
C1421 C 0.85887 0.82326 0.136 0.0
C1422 C 0.89693 0.84313 0.10531 0.0
C1423 C 0.89404 0.81129 0.10934 0.0
H1424 H 0.40363 0.60989 0.38616 0.0
H1425 H 0.43564 0.66495 0.33792 0.0
H1426 H 0.48992 0.65479 0.34688 0.0
H1427 H 0.5284 0.6292 0.36801 0.0
H1428 H 0.49684 0.57649 0.41716 0.0
H1429 H 0.44223 0.5867 0.40835 0.0
C1430 C 0.42252 0.61978 0.37769 0.0
C1431 C 0.41565 0.63801 0.36136 0.0
C1432 C 0.4537 0.6141 0.38304 0.0
C1433 C 0.44031 0.6509 0.35059 0.0
C1434 C 0.47136 0.64499 0.35565 0.0
C1435 C 0.50948 0.61986 0.37667 0.0
C1436 C 0.5164 0.60182 0.39304 0.0
C1437 C 0.47832 0.62639 0.37172 0.0
C1438 C 0.49186 0.59039 0.40448 0.0
C1439 C 0.46075 0.5962 0.39943 0.0
H1440 H 0.39652 0.29173 0.10681 0.0
H1441 H 0.32831 0.27095 0.15076 0.0
H1442 H 0.32969 0.21571 0.14201 0.0
H1443 H 0.35184 0.17305 0.12293 0.0
H1444 H 0.4224 0.19246 0.08008 0.0
H1445 H 0.41847 0.24841 0.08716 0.0
C1446 C 0.38181 0.27503 0.11427 0.0
C1447 C 0.36244 0.28527 0.12944 0.0
C1448 C 0.38321 0.24311 0.10939 0.0
C1449 C 0.34366 0.26348 0.1392 0.0
C1450 C 0.34437 0.23195 0.13416 0.0
C1451 C 0.36616 0.18953 0.11499 0.0
C1452 C 0.38729 0.17864 0.10096 0.0
C1453 C 0.3643 0.22145 0.11944 0.0
C1454 C 0.40592 0.20027 0.09095 0.0
C1455 C 0.40371 0.23226 0.09501 0.0
H1456 H 0.58978 0.62291 0.83771 0.0
H1457 H 0.6244 0.56356 0.88327 0.0
H1458 H 0.57119 0.554 0.89429 0.0
H1459 H 0.51491 0.5646 0.89222 0.0
H1460 H 0.47963 0.62339 0.84675 0.0
H1461 H 0.53272 0.63073 0.83436 0.0
C1462 C 0.58563 0.60764 0.84992 0.0
C1463 C 0.61112 0.59415 0.8597 0.0
C1464 C 0.55479 0.60219 0.85627 0.0
C1465 C 0.60529 0.57433 0.87547 0.0
C1466 C 0.57482 0.56888 0.88185 0.0
C1467 C 0.51889 0.57898 0.87959 0.0
C1468 C 0.4934 0.59359 0.87052 0.0
C1469 C 0.54944 0.58308 0.87257 0.0
C1470 C 0.49881 0.61171 0.85394 0.0
C1471 C 0.52921 0.61607 0.84691 0.0
H1472 H 0.12474 0.72966 0.61419 0.0
H1473 H 0.21391 0.74547 0.6416 0.0
H1474 H 0.21198 0.80048 0.63238 0.0
H1475 H 0.18377 0.84457 0.61783 0.0
H1476 H 0.09457 0.82857 0.59039 0.0
H1477 H 0.09783 0.77308 0.59818 0.0
C1478 C 0.14405 0.74496 0.61782 0.0
C1479 C 0.16939 0.73343 0.62863 0.0
C1480 C 0.14265 0.7766 0.6126 0.0
C1481 C 0.19396 0.75381 0.63349 0.0
C1482 C 0.19289 0.78526 0.6282 0.0
C1483 C 0.16509 0.82892 0.61351 0.0
C1484 C 0.13888 0.84071 0.60365 0.0
C1485 C 0.16711 0.79702 0.61803 0.0
C1486 C 0.11496 0.82011 0.59805 0.0
C1487 C 0.1168 0.78836 0.60248 0.0
H1488 H 0.94187 0.39817 0.3454 0.0
H1489 H 0.91096 0.45817 0.39176 0.0
H1490 H 0.96513 0.46606 0.40196 0.0
H1491 H 0.02183 0.4553 0.39796 0.0
H1492 H 0.05222 0.39671 0.35091 0.0
H1493 H 0.99804 0.38869 0.34086 0.0
C1494 C 0.94697 0.41318 0.35765 0.0
C1495 C 0.9223 0.42758 0.36775 0.0
C1496 C 0.97823 0.41765 0.36344 0.0
C1497 C 0.92944 0.44691 0.38362 0.0
C1498 C 0.96046 0.45131 0.38955 0.0
C1499 C 0.01642 0.44063 0.38562 0.0
C1500 C 0.04095 0.42654 0.37522 0.0
C1501 C 0.98508 0.43661 0.37967 0.0
C1502 C 0.03374 0.40792 0.35907 0.0
C1503 C 1.00276 0.40332 0.35332 0.0
H1504 H 0.35759 0.74427 0.40963 0.0
H1505 H 0.30704 0.76978 0.35828 0.0
H1506 H 0.31665 0.8252 0.36488 0.0
H1507 H 0.33988 0.86626 0.38515 0.0
H1508 H 0.39392 0.84084 0.43529 0.0
H1509 H 0.38275 0.78555 0.42933 0.0
C1510 C 0.34856 0.76211 0.40005 0.0
C1511 C 0.3314 0.75323 0.38362 0.0
C1512 C 0.35498 0.79381 0.40367 0.0
C1513 C 0.32027 0.7763 0.371 0.0
C1514 C 0.32576 0.80787 0.37478 0.0
C1515 C 0.34917 0.84859 0.39478 0.0
C1516 C 0.36753 0.85756 0.41068 0.0
C1517 C 0.34316 0.8169 0.39104 0.0
C1518 C 0.37977 0.83445 0.42291 0.0
C1519 C 0.37331 0.80287 0.41955 0.0
H1520 H 0.93053 0.61748 0.13999 0.0
H1521 H 0.95638 0.67597 0.18824 0.0
H1522 H 1.01167 0.66918 0.18033 0.0
H1523 H 0.05279 0.64445 0.16058 0.0
H1524 H 0.02676 0.58667 0.11213 0.0
H1525 H 0.97143 0.59546 0.11913 0.0
C1526 C 0.94827 0.62893 0.14868 0.0
C1527 C 0.93941 0.64702 0.16474 0.0
C1528 C 0.97997 0.62493 0.14406 0.0
C1529 C 0.9626 0.66193 0.17579 0.0
C1530 C 0.99423 0.65795 0.17133 0.0
C1531 C 0.03493 0.63382 0.15161 0.0
C1532 C 0.04376 0.61481 0.13595 0.0
C1533 C 1.00319 0.63911 0.15568 0.0
C1534 C 0.02049 0.60156 0.12418 0.0
C1535 C 0.98888 0.60646 0.12823 0.0
H1536 H 0.1215 0.20488 0.92405 0.0
H1537 H 0.21252 0.16315 0.91616 0.0
H1538 H 0.23471 0.21389 0.9084 0.0
H1539 H 0.22795 0.26926 0.9018 0.0
H1540 H 0.13721 0.31188 0.90803 0.0
H1541 H 0.11518 0.26179 0.91845 0.0
C1542 C 0.14621 0.20706 0.9208 0.0
C1543 C 0.1653 0.18029 0.9206 0.0
C1544 C 0.15885 0.23642 0.91596 0.0
C1545 C 0.19726 0.18335 0.91626 0.0
C1546 C 0.21002 0.21238 0.91184 0.0
C1547 C 0.20351 0.26783 0.90583 0.0
C1548 C 0.1843 0.29432 0.90427 0.0
C1549 C 0.191 0.23896 0.9114 0.0
C1550 C 0.15245 0.29176 0.90908 0.0
C1551 C 0.13987 0.26314 0.91503 0.0
H1552 H 0.50485 0.42479 0.61774 0.0
H1553 H 0.46787 0.37617 0.66708 0.0
H1554 H 0.52055 0.3606 0.67676 0.0
H1555 H 0.57753 0.3641 0.6726 0.0
H1556 H 0.61507 0.41482 0.6241 0.0
H1557 H 0.56223 0.42607 0.61267 0.0
C1558 C 0.50845 0.41035 0.63039 0.0
C1559 C 0.4826 0.40173 0.64173 0.0
C1560 C 0.53902 0.40209 0.63614 0.0
C1561 C 0.48749 0.38331 0.65825 0.0
C1562 C 0.5176 0.37441 0.66378 0.0
C1563 C 0.57415 0.37731 0.65942 0.0
C1564 C 0.60026 0.38866 0.64928 0.0
C1565 C 0.54362 0.3842 0.65308 0.0
C1566 C 0.59541 0.40587 0.63225 0.0
C1567 C 0.56515 0.41236 0.62568 0.0
H1568 H 0.15415 0.06703 0.25712 0.0
H1569 H 0.19615 0.01768 0.30478 0.0
H1570 H 0.20592 0.97274 0.28371 0.0
H1571 H 0.19922 0.9464 0.25244 0.0
H1572 H 0.15479 0.99478 0.20524 0.0
H1573 H 0.14942 0.04146 0.22546 0.0
C1574 C 0.16527 0.0464 0.26297 0.0
C1575 C 0.17391 0.04558 0.28265 0.0
C1576 C 0.1703 0.02053 0.25086 0.0
C1577 C 0.18927 0.019 0.28976 0.0
C1578 C 0.19467 0.99323 0.27773 0.0
C1579 C 0.18818 0.96707 0.24656 0.0
C1580 C 0.17691 0.96686 0.22739 0.0
C1581 C 0.18472 0.99355 0.25837 0.0
C1582 C 0.16365 0.99425 0.21988 0.0
C1583 C 0.16041 0.02087 0.23149 0.0
H1584 H 0.18937 0.92708 0.50518 0.0
H1585 H 0.24091 0.95975 0.55473 0.0
H1586 H 0.28588 0.97164 0.53411 0.0
H1587 H 0.31279 0.96509 0.50289 0.0
H1588 H 0.26179 0.93139 0.45345 0.0
H1589 H 0.214 0.92797 0.47295 0.0
C1590 C 0.21033 0.93725 0.51136 0.0
C1591 C 0.21214 0.94204 0.53146 0.0
C1592 C 0.23611 0.94359 0.49944 0.0
C1593 C 0.23905 0.95586 0.53932 0.0
C1594 C 0.2648 0.96241 0.52754 0.0
C1595 C 0.29099 0.9576 0.49636 0.0
C1596 C 0.29073 0.94805 0.4769 0.0
C1597 C 0.26395 0.95524 0.50774 0.0
C1598 C 0.26241 0.93887 0.4684 0.0
C1599 C 0.23524 0.93664 0.4796 0.0
H1600 H 0.34143 0.0756 0.76358 0.0
H1601 H 0.34242 0.01486 0.71384 0.0
H1602 H 0.33944 0.96916 0.73498 0.0
H1603 H 0.34232 0.94676 0.76758 0.0
H1604 H 0.34301 1.00736 0.81736 0.0
H1605 H 0.33915 0.05311 0.79625 0.0
C1606 C 0.34087 0.05234 0.75738 0.0
C1607 C 0.34274 0.04851 0.73719 0.0
C1608 C 0.33959 0.02631 0.76963 0.0
C1609 C 0.34106 0.01834 0.72931 0.0
C1610 C 0.33956 0.99227 0.7414 0.0
C1611 C 0.34147 0.97 0.77379 0.0
C1612 C 0.34356 0.97381 0.79397 0.0
C1613 C 0.33973 0.996 0.76157 0.0
C1614 C 0.3415 1.00392 0.80189 0.0
C1615 C 0.33952 0.03001 0.78981 0.0
H1616 H 0.32952 0.08337 1.00966 0.0
H1617 H 0.28236 0.10759 0.06288 0.0
H1618 H 0.23251 0.108 0.04593 0.0
H1619 H 0.20262 0.10301 0.01611 0.0
H1620 H 0.25026 0.08329 0.96236 0.0
H1621 H 0.29968 0.07927 0.97967 0.0
C1622 C 0.30859 0.0892 0.01766 0.0
C1623 C 0.31019 0.09576 0.03766 0.0
C1624 C 0.27996 0.09006 1.00774 0.0
C1625 C 0.28224 0.10231 0.0476 0.0
C1626 C 0.25359 0.10267 0.03787 0.0
C1627 C 0.22368 0.09824 1.00796 0.0
C1628 C 0.22234 0.09395 0.98773 0.0
C1629 C 0.25224 0.09686 0.01792 0.0
C1630 C 0.25017 0.08669 0.97783 0.0
C1631 C 0.27861 0.08457 0.98775 0.0
H1632 H 0.84108 0.93434 0.76086 0.0
H1633 H 0.84319 0.98449 0.70688 0.0
H1634 H 0.841 0.03403 0.72437 0.0
H1635 H 0.84214 0.06298 0.75498 0.0
H1636 H 0.84306 0.01273 0.80895 0.0
H1637 H 0.84021 0.96327 0.79144 0.0
C1638 C 0.84124 0.95607 0.75288 0.0
C1639 C 0.84277 0.95561 0.73255 0.0
C1640 C 0.84057 0.98445 0.76304 0.0
C1641 C 0.84195 0.98406 0.72248 0.0
C1642 C 0.8409 0.01243 0.7325 0.0
C1643 C 0.84189 0.04124 0.76294 0.0
C1644 C 0.84325 0.04166 0.78328 0.0
C1645 C 0.84084 0.01288 0.75277 0.0
C1646 C 0.84193 0.01321 0.79334 0.0
C1647 C 0.84051 0.98488 0.78332 0.0
H1648 H 0.81687 0.11991 0.51215 0.0
H1649 H 0.77559 0.06196 0.46807 0.0
H1650 H 0.73461 0.04567 0.49062 0.0
H1651 H 0.70675 0.0539 0.52141 0.0
H1652 H 0.74787 0.11134 0.56566 0.0
H1653 H 0.79319 0.12155 0.54478 0.0
C1654 C 0.79909 0.10339 0.50764 0.0
C1655 C 0.79882 0.09249 0.48843 0.0
C1656 C 0.7757 0.09417 0.52071 0.0
C1657 C 0.77615 0.07063 0.48277 0.0
C1658 C 0.75268 0.06148 0.49563 0.0
C1659 C 0.72616 0.0679 0.52659 0.0
C1660 C 0.72417 0.082 0.54491 0.0
C1661 C 0.7517 0.07387 0.51442 0.0
C1662 C 0.74922 0.1001 0.55165 0.0
C1663 C 0.77485 0.10619 0.53963 0.0
H1664 H 0.63541 0.07117 0.25872 0.0
H1665 H 0.71516 0.04964 0.22281 0.0
H1666 H 0.72444 1.00214 0.24135 0.0
H1667 H 0.71263 0.96928 0.26932 0.0
H1668 H 0.6354 0.99301 0.30673 0.0
H1669 H 0.6222 0.03698 0.28587 0.0
C1670 C 0.65494 0.05623 0.25496 0.0
C1671 C 0.67485 0.06436 0.23953 0.0
C1672 C 0.6606 0.02936 0.26597 0.0
C1673 C 0.6994 0.04405 0.23454 0.0
C1674 C 0.70486 0.01695 0.24523 0.0
C1675 C 0.69297 0.98409 0.27299 0.0
C1676 C 0.67537 0.97806 0.2898 0.0
C1677 C 0.68605 1.00981 0.26124 0.0
C1678 C 0.64933 0.99697 0.29392 0.0
C1679 C 0.64192 0.0223 0.28206 0.0
H1680 H 0.70828 0.90866 1.01193 0.0
H1681 H 0.75284 0.96565 0.96884 0.0
H1682 H 0.7924 0.98209 0.99246 0.0
H1683 H 0.81832 0.97364 0.02394 0.0
H1684 H 0.77349 0.9172 0.06717 0.0
H1685 H 0.72947 0.90746 0.04519 0.0
C1686 C 0.72634 0.92518 1.00791 0.0
C1687 C 0.72807 0.93569 0.98868 0.0
C1688 C 0.74887 0.93439 0.02157 0.0
C1689 C 0.75118 0.95738 0.98357 0.0
C1690 C 0.77384 0.96654 0.99704 0.0
C1691 C 0.79839 0.95998 0.02866 0.0
C1692 C 0.79902 0.94597 0.04703 0.0
C1693 C 0.77351 0.95432 0.01586 0.0
C1694 C 0.77324 0.92835 0.05315 0.0
C1695 C 0.74833 0.92253 0.0405 0.0
H1696 H 0.72986 0.50373 0.78923 0.0
H1697 H 0.64194 0.55313 0.78905 0.0
H1698 H 0.62521 0.52325 0.7607 0.0
H1699 H 0.63737 0.48613 0.73454 0.0
H1700 H 0.72691 0.4395 0.73379 0.0
H1701 H 0.74116 0.4653 0.76395 0.0
C1702 C 0.70704 0.50808 0.78299 0.0
C1703 C 0.6874 0.53106 0.79114 0.0
C1704 C 0.69796 0.49142 0.76643 0.0
C1705 C 0.65752 0.5356 0.78317 0.0
C1706 C 0.64806 0.51869 0.76684 0.0
C1707 C 0.66009 0.48168 0.74086 0.0
C1708 C 0.68115 0.46106 0.73164 0.0
C1709 C 0.6684 0.49708 0.75808 0.0
C1710 C 0.71012 0.45503 0.74048 0.0
C1711 C 0.71839 0.46995 0.75772 0.0
H1712 H 0.82746 0.40268 0.01595 0.0
H1713 H 0.78954 0.45908 0.97016 0.0
H1714 H 0.74771 0.47724 0.99164 0.0
H1715 H 0.71808 0.47082 0.02192 0.0
H1716 H 0.7557 0.4142 0.06765 0.0
H1717 H 0.802 0.40266 0.04795 0.0
C1718 C 0.81024 0.41931 1.01084 0.0
C1719 C 0.81109 0.42918 0.99147 0.0
C1720 C 0.78629 0.42939 0.02323 0.0
C1721 C 0.7892 0.4512 0.98501 0.0
C1722 C 0.76524 0.46138 0.99724 0.0
C1723 C 0.73683 0.45652 0.02765 0.0
C1724 C 0.73352 0.44301 0.04603 0.0
C1725 C 0.76297 0.44974 0.01614 0.0
C1726 C 0.75793 0.42485 0.05355 0.0
C1727 C 0.78417 0.41804 0.04222 0.0
H1728 H 0.9006 0.55019 0.2514 0.0
H1729 H 0.8054 0.57819 0.23981 0.0
H1730 H 0.78748 0.54747 0.26728 0.0
H1731 H 0.79839 0.51058 0.29337 0.0
H1732 H 0.89302 0.47907 0.30318 0.0
H1733 H 0.91156 0.51356 0.27764 0.0
C1734 C 0.87586 0.54945 0.25464 0.0
C1735 C 0.85442 0.56637 0.24319 0.0
C1736 C 0.86558 0.53108 0.27019 0.0
C1737 C 0.82257 0.56567 0.24824 0.0
C1738 C 0.81224 0.54789 0.26394 0.0
C1739 C 0.82306 0.51086 0.2899 0.0
C1740 C 0.84413 0.49165 0.30018 0.0
C1741 C 0.83349 0.53012 0.27481 0.0
C1742 C 0.87616 0.49346 0.29571 0.0
C1743 C 0.88679 0.51308 0.28095 0.0
H1744 H 0.70132 0.60871 0.5164 0.0
H1745 H 0.74299 0.58234 0.46208 0.0
H1746 H 0.7927 0.57172 0.4784 0.0
H1747 H 0.8251 0.57385 0.50782 0.0
H1748 H 0.78321 0.60122 0.56195 0.0
H1749 H 0.7326 0.60731 0.54607 0.0
C1750 C 0.7213 0.60061 0.50816 0.0
C1751 C 0.7187 0.59675 0.48805 0.0
C1752 C 0.74969 0.59483 0.51761 0.0
C1753 C 0.74447 0.58545 0.47757 0.0
C1754 C 0.77289 0.57958 0.48689 0.0
C1755 C 0.80487 0.58111 0.51612 0.0
C1756 C 0.808 0.58742 0.536 0.0
C1757 C 0.77592 0.58482 0.50684 0.0
C1758 C 0.78143 0.59609 0.54668 0.0
C1759 C 0.75253 0.59978 0.53757 0.0
H1760 H 0.35688 0.57751 0.26074 0.0
H1761 H 0.30318 0.5325 0.30536 0.0
H1762 H 0.29267 0.48837 0.28371 0.0
H1763 H 0.30593 0.45952 0.25404 0.0
H1764 H 0.3611 0.50361 0.20981 0.0
H1765 H 0.36342 0.55172 0.22909 0.0
C1766 C 0.34252 0.55818 0.26557 0.0
C1767 C 0.33129 0.55779 0.28468 0.0
C1768 C 0.33701 0.53287 0.25313 0.0
C1769 C 0.31209 0.53313 0.29072 0.0
C1770 C 0.30628 0.5079 0.2784 0.0
C1771 C 0.31781 0.48 0.2485 0.0
C1772 C 0.33371 0.47811 0.23074 0.0
C1773 C 0.31963 0.50705 0.25986 0.0
C1774 C 0.34869 0.5047 0.22344 0.0
C1775 C 0.35028 0.53199 0.23455 0.0
H1776 H 0.32221 0.63919 1.00284 0.0
H1777 H 0.30064 0.56066 0.96595 0.0
H1778 H 0.256 0.5477 0.98632 0.0
H1779 H 0.22555 0.55628 0.01582 0.0
H1780 H 0.24911 0.63262 0.05391 0.0
H1781 H 0.29043 0.64897 0.03175 0.0
C1782 C 0.30788 0.61915 0.99926 0.0
C1783 C 0.31516 0.60073 0.98296 0.0
C1784 C 0.28263 0.61139 1.01129 0.0
C1785 C 0.29565 0.57538 0.97829 0.0
C1786 C 0.27019 0.5678 0.99004 0.0
C1787 C 0.23978 0.57641 0.01936 0.0
C1788 C 0.23446 0.5929 0.03669 0.0
C1789 C 0.26389 0.58525 1.00677 0.0
C1790 C 0.25256 0.61953 0.04069 0.0
C1791 C 0.27635 0.62876 0.02807 0.0
H1792 H 0.19582 0.57555 0.76778 0.0
H1793 H 0.17038 0.52504 0.71603 0.0
H1794 H 0.17305 0.47598 0.7338 0.0
H1795 H 0.18012 0.44799 0.76419 0.0
H1796 H 0.20067 0.49935 0.81652 0.0
H1797 H 0.2025 0.54767 0.79815 0.0
C1798 C 0.19037 0.55399 0.76032 0.0
C1799 C 0.18239 0.5543 0.74055 0.0
C1800 C 0.19112 0.52598 0.77074 0.0
C1801 C 0.17663 0.52573 0.73116 0.0
C1802 C 0.17798 0.49762 0.74137 0.0
C1803 C 0.18464 0.46964 0.77177 0.0
C1804 C 0.18982 0.4697 0.79193 0.0
C1805 C 0.18476 0.49756 0.76122 0.0
C1806 C 0.19668 0.49822 0.80112 0.0
C1807 C 0.19754 0.52602 0.79061 0.0
H1808 H 0.24747 0.40834 0.54894 0.0
H1809 H 0.3322 0.45501 0.53122 0.0
H1810 H 0.31214 0.4591 0.49837 0.0
H1811 H 0.27064 0.45007 0.47479 0.0
H1812 H 0.18591 0.40295 0.49192 0.0
H1813 H 0.20544 0.39948 0.52509 0.0
C1814 C 0.26149 0.41963 0.53796 0.0
C1815 C 0.29147 0.43125 0.54268 0.0
C1816 C 0.24969 0.4221 0.51902 0.0
C1817 C 0.30936 0.4454 0.52807 0.0
C1818 C 0.29777 0.44798 0.50926 0.0
C1819 C 0.25646 0.43867 0.48564 0.0
C1820 C 0.22686 0.42649 0.48066 0.0
C1821 C 0.26802 0.43638 0.50458 0.0
C1822 C 0.20863 0.41269 0.49524 0.0
C1823 C 0.21992 0.41051 0.51421 0.0
H1824 H 0.36404 0.03591 0.36788 0.0
H1825 H 0.30472 0.01338 0.41628 0.0
H1826 H 0.26154 0.04227 0.40149 0.0
H1827 H 0.24002 0.07266 0.37422 0.0
H1828 H 0.29907 0.09264 0.32518 0.0
H1829 H 0.34268 0.06601 0.34075 0.0
C1830 C 0.3418 0.03762 0.37534 0.0
C1831 C 0.3378 0.02264 0.39328 0.0
C1832 C 0.31681 0.05361 0.36651 0.0
C1833 C 0.30855 0.02472 0.40251 0.0
C1834 C 0.28379 0.04119 0.39402 0.0
C1835 C 0.26243 0.07122 0.36693 0.0
C1836 C 0.26607 0.08467 0.34847 0.0
C1837 C 0.28752 0.05548 0.37591 0.0
C1838 C 0.29536 0.08243 0.3393 0.0
C1839 C 0.32044 0.06725 0.34824 0.0
H1840 H 0.28827 0.05103 0.6255 0.0
H1841 H 0.244 0.08119 0.6784 0.0
H1842 H 0.19637 0.05282 0.66931 0.0
H1843 H 0.16754 0.01927 0.64631 0.0
H1844 H 0.21285 0.98927 0.59366 0.0
H1845 H 0.25975 0.01819 0.60265 0.0
C1846 C 0.26829 0.05146 0.63514 0.0
C1847 C 0.26984 0.06826 0.65268 0.0
C1848 C 0.24106 0.0353 0.62978 0.0
C1849 C 0.24357 0.06842 0.66488 0.0
C1850 C 0.21629 0.05227 0.65964 0.0
C1851 C 0.18756 0.01923 0.63669 0.0
C1852 C 0.18644 1.00212 0.61922 0.0
C1853 C 0.21475 0.03568 0.64209 0.0
C1854 C 0.21283 1.00222 0.6071 0.0
C1855 C 0.23977 0.0187 0.61229 0.0
H1856 H 0.18729 0.02709 0.87349 0.0
H1857 H 0.19526 0.01445 0.93509 0.0
H1858 H 0.23554 0.9745 0.92996 0.0
H1859 H 0.27168 0.94662 0.90798 0.0
H1860 H 0.2626 0.95861 0.84637 0.0
H1861 H 0.21954 0.99538 0.85148 0.0
C1862 C 0.19751 0.01527 0.88581 0.0
C1863 C 0.18839 0.02391 0.90468 0.0
C1864 C 0.22072 0.99249 0.88273 0.0
C1865 C 0.20167 1.00815 0.92044 0.0
C1866 C 0.22492 0.98551 0.9175 0.0
C1867 C 0.26016 0.95714 0.89566 0.0
C1868 C 0.27068 0.95017 0.87679 0.0
C1869 C 0.23517 0.97806 0.89872 0.0
C1870 C 0.2551 0.96361 0.861 0.0
C1871 C 0.2305 0.9847 0.86394 0.0
H1872 H 0.2877 0.96862 0.17087 0.0
H1873 H 0.23492 0.92724 0.12422 0.0
H1874 H 0.26674 0.95481 0.10072 0.0
H1875 H 0.30808 0.99249 0.09312 0.0
H1876 H 0.35941 0.03607 0.13961 0.0
H1877 H 0.32986 1.00593 0.16318 0.0
C1878 C 0.28327 0.96546 0.15556 0.0
C1879 C 0.25913 0.94534 0.14945 0.0
C1880 C 0.30142 0.98195 0.14196 0.0
C1881 C 0.25372 0.94184 0.12949 0.0
C1882 C 0.27178 0.95789 0.11594 0.0
C1883 C 0.31304 0.99528 0.10839 0.0
C1884 C 0.33626 0.01647 0.11444 0.0
C1885 C 0.29555 0.97819 0.12199 0.0
C1886 C 0.34207 0.01974 0.13437 0.0
C1887 C 0.32498 1.0026 0.14795 0.0
H1888 H 0.71027 0.02059 0.65211 0.0
H1889 H 0.6777 0.98079 0.59844 0.0
H1890 H 0.70639 0.93253 0.60537 0.0
H1891 H 0.74227 0.90222 0.6263 0.0
H1892 H 0.77442 0.94299 0.67983 0.0
H1893 H 0.74421 0.99004 0.67334 0.0
C1894 C 0.70933 1.00141 0.64187 0.0
C1895 C 0.69187 1.00454 0.62469 0.0
C1896 C 0.72584 0.97376 0.64596 0.0
C1897 C 0.69093 0.97918 0.61174 0.0
C1898 C 0.70736 0.95154 0.61571 0.0
C1899 C 0.74243 0.92125 0.63666 0.0
C1900 C 0.76084 0.9189 0.65354 0.0
C1901 C 0.72507 0.9486 0.63274 0.0
C1902 C 0.76075 0.94401 0.66669 0.0
C1903 C 0.74344 0.97104 0.66298 0.0
H1904 H 0.73794 0.99634 0.36791 0.0
H1905 H 0.75865 0.90518 0.39088 0.0
H1906 H 0.80084 0.9277 0.41063 0.0
H1907 H 0.83074 0.97432 0.42211 0.0
H1908 H 0.80903 0.06452 0.39761 0.0
H1909 H 0.7684 0.0413 0.37789 0.0
C1910 C 0.75166 0.98126 0.37721 0.0
C1911 C 0.74495 0.94916 0.37803 0.0
C1912 C 0.77571 0.9943 0.38837 0.0
C1913 C 0.76334 0.92999 0.38996 0.0
C1914 C 0.78736 0.94291 0.40131 0.0
C1915 C 0.8171 0.98883 0.41245 0.0
C1916 C 0.82303 0.02124 0.41151 0.0
C1917 C 0.79359 0.97518 0.40079 0.0
C1918 C 0.80523 0.03958 0.39873 0.0
C1919 C 0.78184 0.02634 0.38739 0.0
H1920 H 0.78128 0.12474 0.13613 0.0
H1921 H 0.75112 0.08178 0.18934 0.0
H1922 H 0.77961 0.0343 0.18094 0.0
H1923 H 0.8112 1.00407 0.15807 0.0
H1924 H 0.84143 0.04615 0.10464 0.0
H1925 H 0.81471 0.09474 0.11354 0.0
C1926 C 0.78125 0.10517 0.14603 0.0
C1927 C 0.76396 0.10702 0.1634 0.0
C1928 C 0.79743 0.07758 0.14097 0.0
C1929 C 0.76409 0.08118 0.1759 0.0
C1930 C 0.78034 0.0539 0.17107 0.0
C1931 C 0.81202 0.02381 0.1483 0.0
C1932 C 0.82823 0.02124 0.1306 0.0
C1933 C 0.7967 0.05167 0.15354 0.0
C1934 C 0.82908 0.0473 0.11829 0.0
C1935 C 0.81383 0.07515 0.12341 0.0
H1936 H 0.73389 0.96773 0.88086 0.0
H1937 H 0.67933 0.02047 0.92197 0.0
H1938 H 0.70234 0.06911 0.9099 0.0
H1939 H 0.73935 0.09655 0.88818 0.0
H1940 H 0.79283 0.04285 0.84688 0.0
H1941 H 0.76864 0.99497 0.8584 0.0
C1942 C 0.72698 0.98983 0.88724 0.0
C1943 C 0.70505 0.99029 0.90247 0.0
C1944 C 0.74007 0.01767 0.88011 0.0
C1945 C 0.69619 0.01931 0.91031 0.0
C1946 C 0.70937 0.04716 0.90339 0.0
C1947 C 0.74553 0.07443 0.88156 0.0
C1948 C 0.76808 0.07357 0.86663 0.0
C1949 C 0.73149 0.04665 0.88834 0.0
C1950 C 0.77565 0.04451 0.85832 0.0
C1951 C 0.76187 0.01695 0.86497 0.0
H1952 H 0.84717 0.54055 0.92648 0.0
H1953 H 0.83541 0.45365 0.89534 0.0
H1954 H 0.79823 0.47816 0.87386 0.0
H1955 H 0.76624 0.52252 0.86495 0.0
H1956 H 0.77587 0.61018 0.89498 0.0
H1957 H 0.81707 0.58743 0.91548 0.0
C1958 C 0.83657 0.52706 0.91494 0.0
C1959 C 0.84401 0.49506 0.91282 0.0
C1960 C 0.81486 0.54144 0.90234 0.0
C1961 C 0.83017 0.47814 0.89759 0.0
C1962 C 0.80881 0.49215 0.88518 0.0
C1963 C 0.77759 0.53683 0.87585 0.0
C1964 C 0.76791 0.56787 0.87856 0.0
C1965 C 0.80065 0.52353 0.8876 0.0
C1966 C 0.78308 0.58624 0.89255 0.0
C1967 C 0.80639 0.5731 0.90438 0.0
H1968 H 0.7259 0.49386 0.15383 0.0
H1969 H 0.68509 0.54173 0.10516 0.0
H1970 H 0.71442 0.58893 0.11348 0.0
H1971 H 0.7526 0.61626 0.13416 0.0
H1972 H 0.79388 0.56776 0.18247 0.0
H1973 H 0.76321 0.52131 0.17474 0.0
C1974 C 0.72331 0.5146 0.14502 0.0
C1975 C 0.70327 0.51411 0.12883 0.0
C1976 C 0.74031 0.54163 0.14986 0.0
C1977 C 0.70033 0.54132 0.11765 0.0
C1978 C 0.7171 0.56837 0.12243 0.0
C1979 C 0.75473 0.59564 0.14312 0.0
C1980 C 0.7756 0.59566 0.15892 0.0
C1981 C 0.73725 0.56877 0.13846 0.0
C1982 C 0.77811 0.56854 0.17024 0.0
C1983 C 0.76059 0.54189 0.1658 0.0
H1984 H 0.68108 0.477 0.43324 0.0
H1985 H 0.68459 0.56235 0.40006 0.0
H1986 H 0.72479 0.54044 0.37952 0.0
H1987 H 0.76146 0.49888 0.37185 0.0
H1988 H 0.75862 0.41228 0.40328 0.0
H1989 H 0.71555 0.43254 0.42332 0.0
C1990 C 0.69053 0.49067 0.42145 0.0
C1991 C 0.67982 0.5215 0.41847 0.0
C1992 C 0.71383 0.47773 0.4093 0.0
C1993 C 0.69221 0.53868 0.40291 0.0
C1994 C 0.71537 0.5262 0.39107 0.0
C1995 C 0.75122 0.48428 0.38297 0.0
C1996 C 0.76332 0.45427 0.3862 0.0
C1997 C 0.72666 0.49602 0.39428 0.0
C1998 C 0.74957 0.43545 0.40048 0.0
C1999 C 0.72512 0.44715 0.41202 0.0
H2000 H 0.86399 0.47414 0.6369 0.0
H2001 H 0.81494 0.52509 0.59244 0.0
H2002 H 0.76617 0.50015 0.60165 0.0
H2003 H 0.73655 0.46609 0.62314 0.0
H2004 H 0.78426 0.41347 0.66723 0.0
H2005 H 0.83426 0.43668 0.65731 0.0
C2006 C 0.84271 0.47953 0.62908 0.0
C2007 C 0.84337 0.5018 0.61404 0.0
C2008 C 0.81434 0.46496 0.63448 0.0
C2009 C 0.8154 0.50831 0.60411 0.0
C2010 C 0.78733 0.49406 0.6094 0.0
C2011 C 0.75785 0.4596 0.63062 0.0
C2012 C 0.75652 0.43831 0.64609 0.0
C2013 C 0.78641 0.47278 0.62474 0.0
C2014 C 0.78453 0.42986 0.65534 0.0
C2015 C 0.81314 0.44318 0.64967 0.0
H2016 H 0.24278 0.50879 0.10736 0.0
H2017 H 0.16403 0.51796 0.14572 0.0
H2018 H 0.18621 0.47771 0.16699 0.0
H2019 H 0.23083 0.44312 0.1759 0.0
H2020 H 0.30776 0.43333 0.13582 0.0
H2021 H 0.28337 0.47024 0.11405 0.0
C2022 C 0.23028 0.50163 0.12025 0.0
C2023 C 0.20205 0.51638 0.1251 0.0
C2024 C 0.24299 0.47846 0.1322 0.0
C2025 C 0.1858 0.50675 0.14169 0.0
C2026 C 0.1986 0.48392 0.1539 0.0
C2027 C 0.24203 0.4488 0.16231 0.0
C2028 C 0.27135 0.43559 0.15773 0.0
C2029 C 0.22761 0.47008 0.14952 0.0
C2030 C 0.28531 0.44305 0.13989 0.0
C2031 C 0.27143 0.46432 0.12736 0.0
H2032 H 0.36932 0.49484 0.87892 0.0
H2033 H 0.32407 0.53138 0.92997 0.0
H2034 H 0.27734 0.50107 0.92269 0.0
H2035 H 0.24864 0.46562 0.9016 0.0
H2036 H 0.29231 0.4291 0.85007 0.0
H2037 H 0.34025 0.45805 0.85774 0.0
C2038 C 0.34934 0.49589 0.88856 0.0
C2039 C 0.35029 0.51543 0.905 0.0
C2040 C 0.32215 0.47862 0.88412 0.0
C2041 C 0.32403 0.51673 0.91719 0.0
C2042 C 0.29723 0.49938 0.91303 0.0
C2043 C 0.26859 0.46385 0.89198 0.0
C2044 C 0.26674 0.44518 0.87522 0.0
C2045 C 0.29591 0.48054 0.89646 0.0
C2046 C 0.29297 0.44332 0.86302 0.0
C2047 C 0.32043 0.45985 0.86744 0.0
H2048 H 0.28199 0.56136 0.68409 0.0
H2049 H 0.23751 0.61292 0.63816 0.0
H2050 H 0.267 0.58313 0.61422 0.0
H2051 H 0.30277 0.53985 0.6061 0.0
H2052 H 0.34666 0.48805 0.65215 0.0
H2053 H 0.32025 0.52053 0.67605 0.0
C2054 C 0.27898 0.56641 0.66887 0.0
C2055 C 0.25733 0.58936 0.66305 0.0
C2056 C 0.29581 0.54891 0.65507 0.0
C2057 C 0.25388 0.59542 0.64317 0.0
C2058 C 0.27071 0.57829 0.6294 0.0
C2059 C 0.30684 0.53584 0.62135 0.0
C2060 C 0.32662 0.51127 0.62721 0.0
C2061 C 0.29133 0.55456 0.63515 0.0
C2062 C 0.33153 0.50659 0.64711 0.0
C2063 C 0.31637 0.52519 0.66086 0.0
H2064 H 0.27298 0.5824 0.37366 0.0
H2065 H 0.20648 0.61051 0.33015 0.0
H2066 H 0.16654 0.57758 0.34497 0.0
H2067 H 0.15094 0.53888 0.36953 0.0
H2068 H 0.21843 0.50899 0.41197 0.0
H2069 H 0.25722 0.54461 0.39846 0.0
C2070 C 0.24972 0.58149 0.36745 0.0
C2071 C 0.24289 0.59893 0.35074 0.0
C2072 C 0.2269 0.56212 0.37589 0.0
C2073 C 0.21256 0.59728 0.34292 0.0
C2074 C 0.18961 0.57845 0.35142 0.0
C2075 C 0.17401 0.54048 0.37597 0.0
C2076 C 0.18168 0.52133 0.39179 0.0
C2077 C 0.19657 0.56054 0.36782 0.0
C2078 C 0.21186 0.5234 0.39978 0.0
C2079 C 0.23412 0.54375 0.39204 0.0
H2080 H 0.31772 0.25479 0.23374 0.0
H2081 H 0.24071 0.31971 0.22874 0.0
H2082 H 0.21325 0.2929 0.25459 0.0
H2083 H 0.21144 0.25206 0.27936 0.0
H2084 H 0.28939 0.18898 0.2857 0.0
H2085 H 0.31673 0.21512 0.25924 0.0
C2086 C 0.2951 0.26342 0.23837 0.0
C2087 C 0.28145 0.28933 0.22904 0.0
C2088 C 0.27975 0.24856 0.25378 0.0
C2089 C 0.2517 0.29947 0.23517 0.0
C2090 C 0.23605 0.28439 0.2502 0.0
C2091 C 0.23441 0.24402 0.27493 0.0
C2092 C 0.24834 0.21859 0.28447 0.0
C2093 C 0.24992 0.25905 0.25968 0.0
C2094 C 0.2783 0.20873 0.27875 0.0
C2095 C 0.29381 0.22348 0.2635 0.0
H2096 H 0.05961 0.98206 0.51485 0.0
H2097 H 0.01341 0.02257 0.56429 0.0
H2098 H 0.97454 0.04676 0.54306 0.0
H2099 H 0.95255 0.0544 0.51059 0.0
H2100 H 1.00068 0.01574 0.4611 0.0
H2101 H 0.03927 0.992 0.48231 0.0
C2102 C 0.04101 0.9962 0.52097 0.0
C2103 C 0.03926 1.00039 0.54111 0.0
C2104 C 0.01882 1.00996 0.5087 0.0
C2105 C 0.01537 0.01917 0.54882 0.0
C2106 C 0.99303 0.03281 0.5367 0.0
C2107 C 0.97166 0.04115 0.50435 0.0
C2108 C 0.97328 0.03673 0.48416 0.0
C2109 C 0.99438 0.02813 0.51662 0.0
C2110 C 0.99815 0.019 0.47653 0.0
C2111 C 0.02053 1.00564 0.48866 0.0
H2112 H 0.2345 0.81035 0.79359 0.0
H2113 H 0.33124 0.7999 0.77731 0.0
H2114 H 0.316 0.76931 0.74898 0.0
H2115 H 0.27532 0.74473 0.72916 0.0
H2116 H 0.17873 0.75144 0.7471 0.0
H2117 H 0.19371 0.78492 0.77391 0.0
C2118 C 0.25215 0.80149 0.78374 0.0
C2119 C 0.28392 0.80724 0.78755 0.0
C2120 C 0.24325 0.78342 0.76764 0.0
C2121 C 0.30663 0.79546 0.77478 0.0
C2122 C 0.29793 0.77808 0.75854 0.0
C2123 C 0.25747 0.75322 0.73897 0.0
C2124 C 0.22584 0.74547 0.7358 0.0
C2125 C 0.26632 0.77166 0.75491 0.0
C2126 C 0.20318 0.7574 0.74867 0.0
C2127 C 0.21174 0.77636 0.76426 0.0
H2128 H 0.47066 0.03007 0.02362 0.0
H2129 H 0.53467 0.01315 0.07047 0.0
H2130 H 0.57347 0.9924 0.04769 0.0
H2131 H 0.58899 0.97913 0.01433 0.0
H2132 H 0.52586 0.99878 0.96734 0.0
H2133 H 0.48702 0.01885 0.99017 0.0
C2134 C 0.49306 0.02159 0.02877 0.0
C2135 C 0.49981 0.02261 0.04862 0.0
C2136 C 0.51543 1.01053 0.01555 0.0
C2137 C 0.52905 1.01228 0.05522 0.0
C2138 C 0.55118 1.00052 0.04221 0.0
C2139 C 0.56673 0.98788 1.00914 0.0
C2140 C 0.56025 0.98747 0.98921 0.0
C2141 C 0.54463 0.99957 0.02234 0.0
C2142 C 0.53148 0.99916 0.9826 0.0
C2143 C 0.5092 1.01041 0.99565 0.0
H2144 H 0.24133 0.81884 0.24013 0.0
H2145 H 0.25442 0.74578 0.19799 0.0
H2146 H 0.27187 0.71004 0.22345 0.0
H2147 H 0.28342 0.69986 0.25768 0.0
H2148 H 0.26804 0.77224 0.30004 0.0
H2149 H 0.25091 0.80797 0.27458 0.0
C2150 C 0.2483 0.79514 0.23658 0.0
C2151 C 0.24717 0.78491 0.21729 0.0
C2152 C 0.2575 0.77465 0.25132 0.0
C2153 C 0.25544 0.75405 0.21278 0.0
C2154 C 0.2653 0.73369 0.22731 0.0
C2155 C 0.27629 0.72348 0.26129 0.0
C2156 C 0.2771 0.73352 0.28065 0.0
C2157 C 0.2664 0.74375 0.24662 0.0
C2158 C 0.26739 0.76397 0.28524 0.0
C2159 C 0.25783 0.78443 0.27069 0.0
H2160 H 0.50101 0.03153 0.54789 0.0
H2161 H 0.58812 1.00725 0.51997 0.0
H2162 H 0.56006 0.994 0.49052 0.0
H2163 H 0.51097 0.98991 0.47233 0.0
H2164 H 0.42408 0.01594 0.49965 0.0
H2165 H 0.45211 0.0293 0.5293 0.0
C2166 C 0.514 0.02364 0.53535 0.0
C2167 C 0.54678 0.02019 0.53641 0.0
C2168 C 0.4978 0.01686 0.51815 0.0
C2169 C 0.5629 1.00944 0.51994 0.0
C2170 C 0.5469 1.00221 0.50292 0.0
C2171 C 0.49816 0.99854 0.48477 0.0
C2172 C 0.46545 1.00193 0.48373 0.0
C2173 C 0.51438 1.00588 0.50184 0.0
C2174 C 0.44929 0.01352 0.49992 0.0
C2175 C 0.46528 0.02085 0.51697 0.0
H2176 H 0.21253 0.27258 0.78671 0.0
H2177 H 0.30648 0.29941 0.8023 0.0
H2178 H 0.32741 0.26696 0.77628 0.0
H2179 H 0.31909 0.23164 0.74877 0.0
H2180 H 0.22529 0.20457 0.73311 0.0
H2181 H 0.2043 0.23597 0.75968 0.0
C2182 C 0.23761 0.27096 0.78461 0.0
C2183 C 0.25788 0.28852 0.79646 0.0
C2184 C 0.24952 0.25227 0.76956 0.0
C2185 C 0.29031 0.28647 0.79329 0.0
C2186 C 0.30231 0.26785 0.77843 0.0
C2187 C 0.29403 0.23282 0.75106 0.0
C2188 C 0.27379 0.21593 0.73885 0.0
C2189 C 0.28214 0.25091 0.76636 0.0
C2190 C 0.24141 0.2172 0.74232 0.0
C2191 C 0.22939 0.23523 0.75748 0.0
H2192 H 0.94415 0.02534 0.02679 0.0
H2193 H 0.02235 1.01083 0.06519 0.0
H2194 H 0.05843 0.02702 0.03987 0.0
H2195 H 0.06817 0.04403 1.00657 0.0
H2196 H 0.9904 0.06084 0.9684 0.0
H2197 H 0.95378 0.0455 0.99393 0.0
C2198 C 0.96902 0.02622 0.02975 0.0
C2199 C 0.98041 0.0165 0.04789 0.0
C2200 C 0.98978 0.03582 0.01511 0.0
C2201 C 1.01285 0.01754 0.0513 0.0
C2202 C 0.03357 0.02693 0.03684 0.0
C2203 C 0.04319 0.04416 1.00383 0.0
C2204 C 0.03199 0.05317 0.98557 0.0
C2205 C 0.02235 0.0357 0.01862 0.0
C2206 C 0.99956 0.05393 0.98234 0.0
C2207 C 0.97865 0.04513 0.99692 0.0
H2208 H 0.78348 0.80546 0.7552 0.0
H2209 H 0.77714 0.7345 0.71115 0.0
H2210 H 0.75994 0.69635 0.7352 0.0
H2211 H 0.74756 0.683 0.76872 0.0
H2212 H 0.75535 0.75301 0.81332 0.0
H2213 H 0.77185 0.79157 0.78926 0.0
C2214 C 0.77794 0.78171 0.75094 0.0
C2215 C 0.78107 0.77275 0.73147 0.0
C2216 C 0.76884 0.75971 0.76496 0.0
C2217 C 0.77456 0.74183 0.72606 0.0
C2218 C 0.7649 0.72005 0.7398 0.0
C2219 C 0.75277 0.70674 0.77318 0.0
C2220 C 0.75007 0.71517 0.79278 0.0
C2221 C 0.76212 0.72868 0.75929 0.0
C2222 C 0.75748 0.74586 0.79836 0.0
C2223 C 0.76666 0.76797 0.78458 0.0
H2224 H 0.77389 0.34049 0.28115 0.0
H2225 H 0.77689 0.26703 0.32354 0.0
H2226 H 0.75674 0.22976 0.29962 0.0
H2227 H 0.73965 0.2178 0.26614 0.0
H2228 H 0.73412 0.29224 0.2245 0.0
H2229 H 0.75402 0.32935 0.24849 0.0
C2230 C 0.77002 0.31632 0.28515 0.0
C2231 C 0.77704 0.30647 0.30406 0.0
C2232 C 0.75818 0.29518 0.27138 0.0
C2233 C 0.77152 0.2752 0.30912 0.0
C2234 C 0.76019 0.25387 0.2954 0.0
C2235 C 0.7429 0.24216 0.26238 0.0
C2236 C 0.73573 0.25229 0.24354 0.0
C2237 C 0.75371 0.26352 0.27642 0.0
C2238 C 0.73953 0.28396 0.23889 0.0
C2239 C 0.75091 0.30514 0.2526 0.0
H2240 H 0.80089 0.21295 0.76556 0.0
H2241 H 0.73046 0.23402 0.80812 0.0
H2242 H 0.70633 0.27181 0.78602 0.0
H2243 H 0.70688 0.30044 0.75504 0.0
H2244 H 0.77517 0.27507 0.71164 0.0
H2245 H 0.79873 0.23813 0.73376 0.0
C2246 C 0.78015 0.22575 0.76994 0.0
C2247 C 0.76757 0.22089 0.78847 0.0
C2248 C 0.76626 0.24706 0.75709 0.0
C2249 C 0.7405 0.23731 0.7939 0.0
C2250 C 0.72683 0.25901 0.7813 0.0
C2251 C 0.72662 0.28663 0.75021 0.0
C2252 C 0.73942 0.29152 0.7316 0.0
C2253 C 0.73968 0.26431 0.76288 0.0
C2254 C 0.76524 0.27312 0.72597 0.0
C2255 C 0.77865 0.2515 0.73858 0.0
H2256 H 0.73804 0.81888 0.2739 0.0
H2257 H 0.76794 0.76472 0.32305 0.0
H2258 H 0.79404 0.72766 0.3014 0.0
H2259 H 0.80616 0.70926 0.26822 0.0
H2260 H 0.7732 0.76265 0.21951 0.0
H2261 H 0.74963 0.8008 0.24129 0.0
C2262 C 0.74988 0.79878 0.27997 0.0
C2263 C 0.7506 0.79452 0.30015 0.0
C2264 C 0.76402 0.77717 0.26746 0.0
C2265 C 0.76709 0.76881 0.30763 0.0
C2266 C 0.78181 0.74743 0.29523 0.0
C2267 C 0.79391 0.72933 0.26243 0.0
C2268 C 0.79123 0.73296 0.24225 0.0
C2269 C 0.78013 0.75118 0.27509 0.0
C2270 C 0.77516 0.75901 0.23495 0.0
C2271 C 0.76185 0.78096 0.2474 0.0
H2272 H 0.4983 0.57797 0.99781 0.0
H2273 H 0.48509 0.48532 0.9745 0.0
H2274 H 0.51396 0.46316 1.00162 0.0
H2275 H 0.54357 0.47001 0.03181 0.0
H2276 H 0.5581 0.56265 0.05466 0.0
H2277 H 0.5285 0.58489 0.02775 0.0
C2278 C 0.50208 0.55296 0.99848 0.0
C2279 C 0.48947 0.5334 0.98404 0.0
C2280 C 0.51891 0.54033 0.0141 0.0
C2281 C 0.49416 0.50096 0.98546 0.0
C2282 C 0.51079 0.48825 1.00095 0.0
C2283 C 0.53993 0.49504 0.03102 0.0
C2284 C 0.55286 0.51462 0.0453 0.0
C2285 C 0.52317 0.50768 0.01539 0.0
C2286 C 0.54848 0.54707 0.04384 0.0
C2287 C 0.53154 0.55979 0.02846 0.0
H2288 H 0.06096 0.44855 0.49692 0.0
H2289 H 0.0669 0.53785 0.46829 0.0
H2290 H 0.03221 0.5607 0.49242 0.0
H2291 H 0.9991 0.55533 0.52119 0.0
H2292 H 0.99201 0.46603 0.54958 0.0
H2293 H 0.02738 0.44307 0.52565 0.0
C2294 C 0.05449 0.47295 0.4958 0.0
C2295 C 0.0668 0.49135 0.4807 0.0
C2296 C 0.03404 0.48595 0.50963 0.0
C2297 C 0.05839 0.52311 0.47984 0.0
C2298 C 0.03827 0.5362 0.49358 0.0
C2299 C 1.00552 0.53091 0.5223 0.0
C2300 C 0.99294 0.51252 0.5373 0.0
C2301 C 0.02592 0.51786 0.50852 0.0
C2302 C 1.00107 0.48073 0.53816 0.0
C2303 C 0.02146 0.46761 0.52452 0.0
H2304 H 0.03068 0.55804 0.03377 0.0
H2305 H 0.06974 0.47084 0.05356 0.0
H2306 H 0.03766 0.44236 0.03025 0.0
H2307 H 1.00046 0.44238 1.0032 0.0
H2308 H 0.9618 0.5297 0.98327 0.0
H2309 H 0.99276 0.558 1.0072 0.0
C2310 C 0.03233 0.53281 0.03295 0.0
C2311 C 0.05275 0.51668 0.04541 0.0
C2312 C 0.01425 0.5166 0.01927 0.0
C2313 C 0.054 0.4839 0.04436 0.0
C2314 C 0.03587 0.46759 0.03089 0.0
C2315 C 0.99851 0.46758 1.0042 0.0
C2316 C 0.97881 0.48383 0.99135 0.0
C2317 C 0.01615 0.48372 0.01814 0.0
C2318 C 0.97709 0.51656 0.99271 0.0
C2319 C 0.9946 0.53277 1.00652 0.0
H2320 H 0.55164 0.54652 0.51746 0.0
H2321 H 0.50321 0.50738 0.46835 0.0
H2322 H 0.46417 0.48453 0.48986 0.0
H2323 H 0.44276 0.47716 0.52252 0.0
H2324 H 0.49121 0.51658 0.57155 0.0
H2325 H 0.53046 0.53894 0.55005 0.0
C2326 C 0.53244 0.53317 0.5114 0.0
C2327 C 0.53045 0.5288 0.49124 0.0
C2328 C 0.50975 0.52056 0.52383 0.0
C2329 C 0.50569 0.51083 0.48377 0.0
C2330 C 0.48313 0.498 0.49607 0.0
C2331 C 0.46201 0.49045 0.52856 0.0
C2332 C 0.46386 0.49517 0.54871 0.0
C2333 C 0.48481 0.5029 0.51611 0.0
C2334 C 0.48878 0.51294 0.55614 0.0
C2335 C 0.51146 0.52549 0.54385 0.0
loop_
_geom_bond_atom_site_label_1
_geom_bond_atom_site_label_2
_geom_bond_distance
_geom_bond_site_symmetry_2
_ccdc_geom_bond_type
Co0 N4 2.148 . S
Co0 N10 2.128 . S
Co0 N20 2.194 . S
Co0 O25 2.351 . S
Co0 O26 2.155 . S
Co0 O27 2.096 . S
C1 N4 1.301 . S
C1 N5 1.328 . S
C1 H6 0.930 . S
C2 C3 1.333 . S
C2 N4 1.317 . S
C2 H7 0.930 . S
C3 C2 1.333 . S
C3 N5 1.350 . S
C3 H29 0.931 . S
N4 Co0 2.148 . S
N4 C1 1.301 . S
N4 C2 1.317 . S
N5 C1 1.328 . S
N5 C3 1.350 . S
H6 C1 0.930 . S
H7 C2 0.930 . S
C8 O9 1.224 . S
C8 O27 1.247 . S
O9 C8 1.224 . S
N10 Co0 2.128 . S
N10 C11 1.355 . S
N10 C13 1.311 . S
C11 N10 1.355 . S
C11 C12 1.363 . S
C11 H23 0.929 . S
C12 C11 1.363 . S
C12 N14 1.375 . S
C12 H30 0.931 . S
C13 N10 1.311 . S
C13 N14 1.347 . S
C13 H24 0.929 . S
N14 C12 1.375 . S
N14 C13 1.347 . S
C15 C18 1.365 . S
C15 N20 1.328 . S
C15 H21 0.929 . S
C16 C17 1.362 . S
C16 C19 1.378 . S
C16 H31 0.929 . S
C17 C16 1.362 . S
C17 C18 1.366 . S
C18 C15 1.365 . S
C18 C17 1.366 . S
C18 H32 0.930 . S
C19 C16 1.378 . S
C19 N20 1.315 . S
C19 H22 0.930 . S
N20 Co0 2.194 . S
N20 C15 1.328 . S
N20 C19 1.315 . S
H21 C15 0.929 . S
H22 C19 0.930 . S
H23 C11 0.929 . S
H24 C13 0.929 . S
O25 Co0 2.351 . S
O25 C28 1.244 . S
O26 Co0 2.155 . S
O26 C28 1.240 . S
O27 Co0 2.096 . S
O27 C8 1.247 . S
C28 O25 1.244 . S
C28 O26 1.240 . S
H29 C3 0.931 . S
H30 C12 0.931 . S
H31 C16 0.929 . S
H32 C18 0.930 . S
Co33 N37 2.148 . S
Co33 N43 2.128 . S
Co33 N53 2.194 . S
Co33 O58 2.351 . S
Co33 O59 2.155 . S
Co33 O60 2.096 . S
C34 N37 1.301 . S
C34 N38 1.328 . S
C34 H39 0.930 . S
C35 C36 1.333 . S
C35 N37 1.317 . S
C35 H40 0.930 . S
C36 C35 1.333 . S
C36 N38 1.350 . S
C36 H62 0.931 . S
N37 Co33 2.148 . S
N37 C34 1.301 . S
N37 C35 1.317 . S
N38 C34 1.328 . S
N38 C36 1.350 . S
H39 C34 0.930 . S
H40 C35 0.930 . S
C41 O42 1.224 . S
C41 O60 1.247 . S
O42 C41 1.224 . S
N43 Co33 2.128 . S
N43 C44 1.355 . S
N43 C46 1.311 . S
C44 N43 1.355 . S
C44 C45 1.363 . S
C44 H56 0.929 . S
C45 C44 1.363 . S
C45 N47 1.375 . S
C45 H63 0.931 . S
C46 N43 1.311 . S
C46 N47 1.347 . S
C46 H57 0.929 . S
N47 C45 1.375 . S
N47 C46 1.347 . S
C48 C51 1.365 . S
C48 N53 1.328 . S
C48 H54 0.929 . S
C49 C50 1.362 . S
C49 C52 1.378 . S
C49 H64 0.929 . S
C50 C49 1.362 . S
C50 C51 1.366 . S
C51 C48 1.365 . S
C51 C50 1.366 . S
C51 H65 0.930 . S
C52 C49 1.378 . S
C52 N53 1.315 . S
C52 H55 0.930 . S
N53 Co33 2.194 . S
N53 C48 1.328 . S
N53 C52 1.315 . S
H54 C48 0.929 . S
H55 C52 0.930 . S
H56 C44 0.929 . S
H57 C46 0.929 . S
O58 Co33 2.351 . S
O58 C61 1.244 . S
O59 Co33 2.155 . S
O59 C61 1.240 . S
O60 Co33 2.096 . S
O60 C41 1.247 . S
C61 O58 1.244 . S
C61 O59 1.240 . S
H62 C36 0.931 . S
H63 C45 0.931 . S
H64 C49 0.929 . S
H65 C51 0.930 . S
Co66 N70 2.148 . S
Co66 N76 2.128 . S
Co66 N86 2.194 . S
Co66 O91 2.351 . S
Co66 O92 2.155 . S
Co66 O93 2.096 . S
C67 N70 1.301 . S
C67 N71 1.328 . S
C67 H72 0.930 . S
C68 C69 1.333 . S
C68 N70 1.317 . S
C68 H73 0.930 . S
C69 C68 1.333 . S
C69 N71 1.350 . S
C69 H95 0.931 . S
N70 Co66 2.148 . S
N70 C67 1.301 . S
N70 C68 1.317 . S
N71 C67 1.328 . S
N71 C69 1.350 . S
H72 C67 0.930 . S
H73 C68 0.930 . S
C74 O75 1.224 . S
C74 O93 1.247 . S
O75 C74 1.224 . S
N76 Co66 2.128 . S
N76 C77 1.355 . S
N76 C79 1.311 . S
C77 N76 1.355 . S
C77 C78 1.363 . S
C77 H89 0.929 . S
C78 C77 1.363 . S
C78 N80 1.375 . S
C78 H96 0.931 . S
C79 N76 1.311 . S
C79 N80 1.347 . S
C79 H90 0.929 . S
N80 C78 1.375 . S
N80 C79 1.347 . S
C81 C84 1.365 . S
C81 N86 1.328 . S
C81 H87 0.929 . S
C82 C83 1.362 . S
C82 C85 1.378 . S
C82 H97 0.929 . S
C83 C82 1.362 . S
C83 C84 1.366 . S
C84 C81 1.365 . S
C84 C83 1.366 . S
C84 H98 0.930 . S
C85 C82 1.378 . S
C85 N86 1.315 . S
C85 H88 0.930 . S
N86 Co66 2.194 . S
N86 C81 1.328 . S
N86 C85 1.315 . S
H87 C81 0.929 . S
H88 C85 0.930 . S
H89 C77 0.929 . S
H90 C79 0.929 . S
O91 Co66 2.351 . S
O91 C94 1.244 . S
O92 Co66 2.155 . S
O92 C94 1.240 . S
O93 Co66 2.096 . S
O93 C74 1.247 . S
C94 O91 1.244 . S
C94 O92 1.240 . S
H95 C69 0.931 . S
H96 C78 0.931 . S
H97 C82 0.929 . S
H98 C84 0.930 . S
Co99 N103 2.148 . S
Co99 N109 2.128 . S
Co99 N119 2.194 . S
Co99 O124 2.351 . S
Co99 O125 2.155 . S
Co99 O126 2.096 . S
C100 N103 1.301 . S
C100 N104 1.328 . S
C100 H105 0.930 . S
C101 C102 1.333 . S
C101 N103 1.317 . S
C101 H106 0.930 . S
C102 C101 1.333 . S
C102 N104 1.350 . S
C102 H128 0.931 . S
N103 Co99 2.148 . S
N103 C100 1.301 . S
N103 C101 1.317 . S
N104 C100 1.328 . S
N104 C102 1.350 . S
H105 C100 0.930 . S
H106 C101 0.930 . S
C107 O108 1.224 . S
C107 O126 1.247 . S
O108 C107 1.224 . S
N109 Co99 2.128 . S
N109 C110 1.355 . S
N109 C112 1.311 . S
C110 N109 1.355 . S
C110 C111 1.363 . S
C110 H122 0.929 . S
C111 C110 1.363 . S
C111 N113 1.375 . S
C111 H129 0.931 . S
C112 N109 1.311 . S
C112 N113 1.347 . S
C112 H123 0.929 . S
N113 C111 1.375 . S
N113 C112 1.347 . S
C114 C117 1.365 . S
C114 N119 1.328 . S
C114 H120 0.929 . S
C115 C116 1.362 . S
C115 C118 1.378 . S
C115 H130 0.929 . S
C116 C115 1.362 . S
C116 C117 1.366 . S
C117 C114 1.365 . S
C117 C116 1.366 . S
C117 H131 0.930 . S
C118 C115 1.378 . S
C118 N119 1.315 . S
C118 H121 0.930 . S
N119 Co99 2.194 . S
N119 C114 1.328 . S
N119 C118 1.315 . S
H120 C114 0.929 . S
H121 C118 0.930 . S
H122 C110 0.929 . S
H123 C112 0.929 . S
O124 Co99 2.351 . S
O124 C127 1.244 . S
O125 Co99 2.155 . S
O125 C127 1.240 . S
O126 Co99 2.096 . S
O126 C107 1.247 . S
C127 O124 1.244 . S
C127 O125 1.240 . S
H128 C102 0.931 . S
H129 C111 0.931 . S
H130 C115 0.929 . S
H131 C117 0.930 . S
Co132 N136 2.148 . S
Co132 N142 2.128 . S
Co132 N152 2.194 . S
Co132 O157 2.351 . S
Co132 O158 2.155 . S
Co132 O159 2.096 . S
C133 N136 1.301 . S
C133 N137 1.328 . S
C133 H138 0.930 . S
C134 C135 1.333 . S
C134 N136 1.317 . S
C134 H139 0.930 . S
C135 C134 1.333 . S
C135 N137 1.350 . S
C135 H161 0.931 . S
N136 Co132 2.148 . S
N136 C133 1.301 . S
N136 C134 1.317 . S
N137 C133 1.328 . S
N137 C135 1.350 . S
H138 C133 0.930 . S
H139 C134 0.930 . S
C140 O141 1.224 . S
C140 O159 1.247 . S
O141 C140 1.224 . S
N142 Co132 2.128 . S
N142 C143 1.355 . S
N142 C145 1.311 . S
C143 N142 1.355 . S
C143 C144 1.363 . S
C143 H155 0.929 . S
C144 C143 1.363 . S
C144 N146 1.375 . S
C144 H162 0.931 . S
C145 N142 1.311 . S
C145 N146 1.347 . S
C145 H156 0.929 . S
N146 C144 1.375 . S
N146 C145 1.347 . S
C147 C150 1.365 . S
C147 N152 1.328 . S
C147 H153 0.929 . S
C148 C149 1.362 . S
C148 C151 1.378 . S
C148 H163 0.929 . S
C149 C148 1.362 . S
C149 C150 1.366 . S
C150 C147 1.365 . S
C150 C149 1.366 . S
C150 H164 0.930 . S
C151 C148 1.378 . S
C151 N152 1.315 . S
C151 H154 0.930 . S
N152 Co132 2.194 . S
N152 C147 1.328 . S
N152 C151 1.315 . S
H153 C147 0.929 . S
H154 C151 0.930 . S
H155 C143 0.929 . S
H156 C145 0.929 . S
O157 Co132 2.351 . S
O157 C160 1.244 . S
O158 Co132 2.155 . S
O158 C160 1.240 . S
O159 Co132 2.096 . S
O159 C140 1.247 . S
C160 O157 1.244 . S
C160 O158 1.240 . S
H161 C135 0.931 . S
H162 C144 0.931 . S
H163 C148 0.929 . S
H164 C150 0.930 . S
Co165 N169 2.148 . S
Co165 N175 2.128 . S
Co165 N185 2.194 . S
Co165 O190 2.351 . S
Co165 O191 2.155 . S
Co165 O192 2.096 . S
C166 N169 1.301 . S
C166 N170 1.328 . S
C166 H171 0.930 . S
C167 C168 1.333 . S
C167 N169 1.317 . S
C167 H172 0.930 . S
C168 C167 1.333 . S
C168 N170 1.350 . S
C168 H194 0.931 . S
N169 Co165 2.148 . S
N169 C166 1.301 . S
N169 C167 1.317 . S
N170 C166 1.328 . S
N170 C168 1.350 . S
H171 C166 0.930 . S
H172 C167 0.930 . S
C173 O174 1.224 . S
C173 O192 1.247 . S
O174 C173 1.224 . S
N175 Co165 2.128 . S
N175 C176 1.355 . S
N175 C178 1.311 . S
C176 N175 1.355 . S
C176 C177 1.363 . S
C176 H188 0.929 . S
C177 C176 1.363 . S
C177 N179 1.375 . S
C177 H195 0.931 . S
C178 N175 1.311 . S
C178 N179 1.347 . S
C178 H189 0.929 . S
N179 C177 1.375 . S
N179 C178 1.347 . S
C180 C183 1.365 . S
C180 N185 1.328 . S
C180 H186 0.929 . S
C181 C182 1.362 . S
C181 C184 1.378 . S
C181 H196 0.929 . S
C182 C181 1.362 . S
C182 C183 1.366 . S
C183 C180 1.365 . S
C183 C182 1.366 . S
C183 H197 0.930 . S
C184 C181 1.378 . S
C184 N185 1.315 . S
C184 H187 0.930 . S
N185 Co165 2.194 . S
N185 C180 1.328 . S
N185 C184 1.315 . S
H186 C180 0.929 . S
H187 C184 0.930 . S
H188 C176 0.929 . S
H189 C178 0.929 . S
O190 Co165 2.351 . S
O190 C193 1.244 . S
O191 Co165 2.155 . S
O191 C193 1.240 . S
O192 Co165 2.096 . S
O192 C173 1.247 . S
C193 O190 1.244 . S
C193 O191 1.240 . S
H194 C168 0.931 . S
H195 C177 0.931 . S
H196 C181 0.929 . S
H197 C183 0.930 . S
Co198 N202 2.148 . S
Co198 N208 2.128 . S
Co198 N218 2.194 . S
Co198 O223 2.351 . S
Co198 O224 2.155 . S
Co198 O225 2.096 . S
C199 N202 1.301 . S
C199 N203 1.328 . S
C199 H204 0.930 . S
C200 C201 1.333 . S
C200 N202 1.317 . S
C200 H205 0.930 . S
C201 C200 1.333 . S
C201 N203 1.350 . S
C201 H227 0.931 . S
N202 Co198 2.148 . S
N202 C199 1.301 . S
N202 C200 1.317 . S
N203 C199 1.328 . S
N203 C201 1.350 . S
H204 C199 0.930 . S
H205 C200 0.930 . S
C206 O207 1.224 . S
C206 O225 1.247 . S
O207 C206 1.224 . S
N208 Co198 2.128 . S
N208 C209 1.355 . S
N208 C211 1.311 . S
C209 N208 1.355 . S
C209 C210 1.363 . S
C209 H221 0.929 . S
C210 C209 1.363 . S
C210 N212 1.375 . S
C210 H228 0.931 . S
C211 N208 1.311 . S
C211 N212 1.347 . S
C211 H222 0.929 . S
N212 C210 1.375 . S
N212 C211 1.347 . S
C213 C216 1.365 . S
C213 N218 1.328 . S
C213 H219 0.929 . S
C214 C215 1.362 . S
C214 C217 1.378 . S
C214 H229 0.929 . S
C215 C214 1.362 . S
C215 C216 1.366 . S
C216 C213 1.365 . S
C216 C215 1.366 . S
C216 H230 0.930 . S
C217 C214 1.378 . S
C217 N218 1.315 . S
C217 H220 0.930 . S
N218 Co198 2.194 . S
N218 C213 1.328 . S
N218 C217 1.315 . S
H219 C213 0.929 . S
H220 C217 0.930 . S
H221 C209 0.929 . S
H222 C211 0.929 . S
O223 Co198 2.351 . S
O223 C226 1.244 . S
O224 Co198 2.155 . S
O224 C226 1.240 . S
O225 Co198 2.096 . S
O225 C206 1.247 . S
C226 O223 1.244 . S
C226 O224 1.240 . S
H227 C201 0.931 . S
H228 C210 0.931 . S
H229 C214 0.929 . S
H230 C216 0.930 . S
Co231 N235 2.148 . S
Co231 N241 2.128 . S
Co231 N251 2.194 . S
Co231 O256 2.351 . S
Co231 O257 2.155 . S
Co231 O258 2.096 . S
C232 N235 1.301 . S
C232 N236 1.328 . S
C232 H237 0.930 . S
C233 C234 1.333 . S
C233 N235 1.317 . S
C233 H238 0.930 . S
C234 C233 1.333 . S
C234 N236 1.350 . S
C234 H260 0.931 . S
N235 Co231 2.148 . S
N235 C232 1.301 . S
N235 C233 1.317 . S
N236 C232 1.328 . S
N236 C234 1.350 . S
H237 C232 0.930 . S
H238 C233 0.930 . S
C239 O240 1.224 . S
C239 O258 1.247 . S
O240 C239 1.224 . S
N241 Co231 2.128 . S
N241 C242 1.355 . S
N241 C244 1.311 . S
C242 N241 1.355 . S
C242 C243 1.363 . S
C242 H254 0.929 . S
C243 C242 1.363 . S
C243 N245 1.375 . S
C243 H261 0.931 . S
C244 N241 1.311 . S
C244 N245 1.347 . S
C244 H255 0.929 . S
N245 C243 1.375 . S
N245 C244 1.347 . S
C246 C249 1.365 . S
C246 N251 1.328 . S
C246 H252 0.929 . S
C247 C248 1.362 . S
C247 C250 1.378 . S
C247 H262 0.929 . S
C248 C247 1.362 . S
C248 C249 1.366 . S
C249 C246 1.365 . S
C249 C248 1.366 . S
C249 H263 0.930 . S
C250 C247 1.378 . S
C250 N251 1.315 . S
C250 H253 0.930 . S
N251 Co231 2.194 . S
N251 C246 1.328 . S
N251 C250 1.315 . S
H252 C246 0.929 . S
H253 C250 0.930 . S
H254 C242 0.929 . S
H255 C244 0.929 . S
O256 Co231 2.351 . S
O256 C259 1.244 . S
O257 Co231 2.155 . S
O257 C259 1.240 . S
O258 Co231 2.096 . S
O258 C239 1.247 . S
C259 O256 1.244 . S
C259 O257 1.240 . S
H260 C234 0.931 . S
H261 C243 0.931 . S
H262 C247 0.929 . S
H263 C249 0.930 . S
Co264 N268 2.148 . S
Co264 N274 2.128 . S
Co264 N284 2.194 . S
Co264 O289 2.351 . S
Co264 O290 2.155 . S
Co264 O291 2.096 . S
C265 N268 1.301 . S
C265 N269 1.328 . S
C265 H270 0.930 . S
C266 C267 1.333 . S
C266 N268 1.317 . S
C266 H271 0.930 . S
C267 C266 1.333 . S
C267 N269 1.350 . S
C267 H293 0.931 . S
N268 Co264 2.148 . S
N268 C265 1.301 . S
N268 C266 1.317 . S
N269 C265 1.328 . S
N269 C267 1.350 . S
H270 C265 0.930 . S
H271 C266 0.930 . S
C272 O273 1.224 . S
C272 O291 1.247 . S
O273 C272 1.224 . S
N274 Co264 2.128 . S
N274 C275 1.355 . S
N274 C277 1.311 . S
C275 N274 1.355 . S
C275 C276 1.363 . S
C275 H287 0.929 . S
C276 C275 1.363 . S
C276 N278 1.375 . S
C276 H294 0.931 . S
C277 N274 1.311 . S
C277 N278 1.347 . S
C277 H288 0.929 . S
N278 C276 1.375 . S
N278 C277 1.347 . S
C279 C282 1.365 . S
C279 N284 1.328 . S
C279 H285 0.929 . S
C280 C281 1.362 . S
C280 C283 1.378 . S
C280 H295 0.929 . S
C281 C280 1.362 . S
C281 C282 1.366 . S
C282 C279 1.365 . S
C282 C281 1.366 . S
C282 H296 0.930 . S
C283 C280 1.378 . S
C283 N284 1.315 . S
C283 H286 0.930 . S
N284 Co264 2.194 . S
N284 C279 1.328 . S
N284 C283 1.315 . S
H285 C279 0.929 . S
H286 C283 0.930 . S
H287 C275 0.929 . S
H288 C277 0.929 . S
O289 Co264 2.351 . S
O289 C292 1.244 . S
O290 Co264 2.155 . S
O290 C292 1.240 . S
O291 Co264 2.096 . S
O291 C272 1.247 . S
C292 O289 1.244 . S
C292 O290 1.240 . S
H293 C267 0.931 . S
H294 C276 0.931 . S
H295 C280 0.929 . S
H296 C282 0.930 . S
Co297 N301 2.148 . S
Co297 N307 2.128 . S
Co297 N317 2.194 . S
Co297 O322 2.351 . S
Co297 O323 2.155 . S
Co297 O324 2.096 . S
C298 N301 1.301 . S
C298 N302 1.328 . S
C298 H303 0.930 . S
C299 C300 1.333 . S
C299 N301 1.317 . S
C299 H304 0.930 . S
C300 C299 1.333 . S
C300 N302 1.350 . S
C300 H326 0.931 . S
N301 Co297 2.148 . S
N301 C298 1.301 . S
N301 C299 1.317 . S
N302 C298 1.328 . S
N302 C300 1.350 . S
H303 C298 0.930 . S
H304 C299 0.930 . S
C305 O306 1.224 . S
C305 O324 1.247 . S
O306 C305 1.224 . S
N307 Co297 2.128 . S
N307 C308 1.355 . S
N307 C310 1.311 . S
C308 N307 1.355 . S
C308 C309 1.363 . S
C308 H320 0.929 . S
C309 C308 1.363 . S
C309 N311 1.375 . S
C309 H327 0.931 . S
C310 N307 1.311 . S
C310 N311 1.347 . S
C310 H321 0.929 . S
N311 C309 1.375 . S
N311 C310 1.347 . S
C312 C315 1.365 . S
C312 N317 1.328 . S
C312 H318 0.929 . S
C313 C314 1.362 . S
C313 C316 1.378 . S
C313 H328 0.929 . S
C314 C313 1.362 . S
C314 C315 1.366 . S
C315 C312 1.365 . S
C315 C314 1.366 . S
C315 H329 0.930 . S
C316 C313 1.378 . S
C316 N317 1.315 . S
C316 H319 0.930 . S
N317 Co297 2.194 . S
N317 C312 1.328 . S
N317 C316 1.315 . S
H318 C312 0.929 . S
H319 C316 0.930 . S
H320 C308 0.929 . S
H321 C310 0.929 . S
O322 Co297 2.351 . S
O322 C325 1.244 . S
O323 Co297 2.155 . S
O323 C325 1.240 . S
O324 Co297 2.096 . S
O324 C305 1.247 . S
C325 O322 1.244 . S
C325 O323 1.240 . S
H326 C300 0.931 . S
H327 C309 0.931 . S
H328 C313 0.929 . S
H329 C315 0.930 . S
Co330 N334 2.148 . S
Co330 N340 2.128 . S
Co330 N350 2.194 . S
Co330 O355 2.351 . S
Co330 O356 2.155 . S
Co330 O357 2.096 . S
C331 N334 1.301 . S
C331 N335 1.328 . S
C331 H336 0.930 . S
C332 C333 1.333 . S
C332 N334 1.317 . S
C332 H337 0.930 . S
C333 C332 1.333 . S
C333 N335 1.350 . S
C333 H359 0.931 . S
N334 Co330 2.148 . S
N334 C331 1.301 . S
N334 C332 1.317 . S
N335 C331 1.328 . S
N335 C333 1.350 . S
H336 C331 0.930 . S
H337 C332 0.930 . S
C338 O339 1.224 . S
C338 O357 1.247 . S
O339 C338 1.224 . S
N340 Co330 2.128 . S
N340 C341 1.355 . S
N340 C343 1.311 . S
C341 N340 1.355 . S
C341 C342 1.363 . S
C341 H353 0.929 . S
C342 C341 1.363 . S
C342 N344 1.375 . S
C342 H360 0.931 . S
C343 N340 1.311 . S
C343 N344 1.347 . S
C343 H354 0.929 . S
N344 C342 1.375 . S
N344 C343 1.347 . S
C345 C348 1.365 . S
C345 N350 1.328 . S
C345 H351 0.929 . S
C346 C347 1.362 . S
C346 C349 1.378 . S
C346 H361 0.929 . S
C347 C346 1.362 . S
C347 C348 1.366 . S
C348 C345 1.365 . S
C348 C347 1.366 . S
C348 H362 0.930 . S
C349 C346 1.378 . S
C349 N350 1.315 . S
C349 H352 0.930 . S
N350 Co330 2.194 . S
N350 C345 1.328 . S
N350 C349 1.315 . S
H351 C345 0.929 . S
H352 C349 0.930 . S
H353 C341 0.929 . S
H354 C343 0.929 . S
O355 Co330 2.351 . S
O355 C358 1.244 . S
O356 Co330 2.155 . S
O356 C358 1.240 . S
O357 Co330 2.096 . S
O357 C338 1.247 . S
C358 O355 1.244 . S
C358 O356 1.240 . S
H359 C333 0.931 . S
H360 C342 0.931 . S
H361 C346 0.929 . S
H362 C348 0.930 . S
Co363 N367 2.148 . S
Co363 N373 2.128 . S
Co363 N383 2.194 . S
Co363 O388 2.351 . S
Co363 O389 2.155 . S
Co363 O390 2.096 . S
C364 N367 1.301 . S
C364 N368 1.328 . S
C364 H369 0.930 . S
C365 C366 1.333 . S
C365 N367 1.317 . S
C365 H370 0.930 . S
C366 C365 1.333 . S
C366 N368 1.350 . S
C366 H392 0.931 . S
N367 Co363 2.148 . S
N367 C364 1.301 . S
N367 C365 1.317 . S
N368 C364 1.328 . S
N368 C366 1.350 . S
H369 C364 0.930 . S
H370 C365 0.930 . S
C371 O372 1.224 . S
C371 O390 1.247 . S
O372 C371 1.224 . S
N373 Co363 2.128 . S
N373 C374 1.355 . S
N373 C376 1.311 . S
C374 N373 1.355 . S
C374 C375 1.363 . S
C374 H386 0.929 . S
C375 C374 1.363 . S
C375 N377 1.375 . S
C375 H393 0.931 . S
C376 N373 1.311 . S
C376 N377 1.347 . S
C376 H387 0.929 . S
N377 C375 1.375 . S
N377 C376 1.347 . S
C378 C381 1.365 . S
C378 N383 1.328 . S
C378 H384 0.929 . S
C379 C380 1.362 . S
C379 C382 1.378 . S
C379 H394 0.929 . S
C380 C379 1.362 . S
C380 C381 1.366 . S
C381 C378 1.365 . S
C381 C380 1.366 . S
C381 H395 0.930 . S
C382 C379 1.378 . S
C382 N383 1.315 . S
C382 H385 0.930 . S
N383 Co363 2.194 . S
N383 C378 1.328 . S
N383 C382 1.315 . S
H384 C378 0.929 . S
H385 C382 0.930 . S
H386 C374 0.929 . S
H387 C376 0.929 . S
O388 Co363 2.351 . S
O388 C391 1.244 . S
O389 Co363 2.155 . S
O389 C391 1.240 . S
O390 Co363 2.096 . S
O390 C371 1.247 . S
C391 O388 1.244 . S
C391 O389 1.240 . S
H392 C366 0.931 . S
H393 C375 0.931 . S
H394 C379 0.929 . S
H395 C381 0.930 . S
Co396 N400 2.148 . S
Co396 N406 2.128 . S
Co396 N416 2.194 . S
Co396 O421 2.351 . S
Co396 O422 2.155 . S
Co396 O423 2.096 . S
C397 N400 1.301 . S
C397 N401 1.328 . S
C397 H402 0.930 . S
C398 C399 1.333 . S
C398 N400 1.317 . S
C398 H403 0.930 . S
C399 C398 1.333 . S
C399 N401 1.350 . S
C399 H425 0.931 . S
N400 Co396 2.148 . S
N400 C397 1.301 . S
N400 C398 1.317 . S
N401 C397 1.328 . S
N401 C399 1.350 . S
H402 C397 0.930 . S
H403 C398 0.930 . S
C404 O405 1.224 . S
C404 O423 1.247 . S
O405 C404 1.224 . S
N406 Co396 2.128 . S
N406 C407 1.355 . S
N406 C409 1.311 . S
C407 N406 1.355 . S
C407 C408 1.363 . S
C407 H419 0.929 . S
C408 C407 1.363 . S
C408 N410 1.375 . S
C408 H426 0.931 . S
C409 N406 1.311 . S
C409 N410 1.347 . S
C409 H420 0.929 . S
N410 C408 1.375 . S
N410 C409 1.347 . S
C411 C414 1.365 . S
C411 N416 1.328 . S
C411 H417 0.929 . S
C412 C413 1.362 . S
C412 C415 1.378 . S
C412 H427 0.929 . S
C413 C412 1.362 . S
C413 C414 1.366 . S
C414 C411 1.365 . S
C414 C413 1.366 . S
C414 H428 0.930 . S
C415 C412 1.378 . S
C415 N416 1.315 . S
C415 H418 0.930 . S
N416 Co396 2.194 . S
N416 C411 1.328 . S
N416 C415 1.315 . S
H417 C411 0.929 . S
H418 C415 0.930 . S
H419 C407 0.929 . S
H420 C409 0.929 . S
O421 Co396 2.351 . S
O421 C424 1.244 . S
O422 Co396 2.155 . S
O422 C424 1.240 . S
O423 Co396 2.096 . S
O423 C404 1.247 . S
C424 O421 1.244 . S
C424 O422 1.240 . S
H425 C399 0.931 . S
H426 C408 0.931 . S
H427 C412 0.929 . S
H428 C414 0.930 . S
Co429 N433 2.148 . S
Co429 N439 2.128 . S
Co429 N449 2.194 . S
Co429 O454 2.351 . S
Co429 O455 2.155 . S
Co429 O456 2.096 . S
C430 N433 1.301 . S
C430 N434 1.328 . S
C430 H435 0.930 . S
C431 C432 1.333 . S
C431 N433 1.317 . S
C431 H436 0.930 . S
C432 C431 1.333 . S
C432 N434 1.350 . S
C432 H458 0.931 . S
N433 Co429 2.148 . S
N433 C430 1.301 . S
N433 C431 1.317 . S
N434 C430 1.328 . S
N434 C432 1.350 . S
H435 C430 0.930 . S
H436 C431 0.930 . S
C437 O438 1.224 . S
C437 O456 1.247 . S
O438 C437 1.224 . S
N439 Co429 2.128 . S
N439 C440 1.355 . S
N439 C442 1.311 . S
C440 N439 1.355 . S
C440 C441 1.363 . S
C440 H452 0.929 . S
C441 C440 1.363 . S
C441 N443 1.375 . S
C441 H459 0.931 . S
C442 N439 1.311 . S
C442 N443 1.347 . S
C442 H453 0.929 . S
N443 C441 1.375 . S
N443 C442 1.347 . S
C444 C447 1.365 . S
C444 N449 1.328 . S
C444 H450 0.929 . S
C445 C446 1.362 . S
C445 C448 1.378 . S
C445 H460 0.929 . S
C446 C445 1.362 . S
C446 C447 1.366 . S
C447 C444 1.365 . S
C447 C446 1.366 . S
C447 H461 0.930 . S
C448 C445 1.378 . S
C448 N449 1.315 . S
C448 H451 0.930 . S
N449 Co429 2.194 . S
N449 C444 1.328 . S
N449 C448 1.315 . S
H450 C444 0.929 . S
H451 C448 0.930 . S
H452 C440 0.929 . S
H453 C442 0.929 . S
O454 Co429 2.351 . S
O454 C457 1.244 . S
O455 Co429 2.155 . S
O455 C457 1.240 . S
O456 Co429 2.096 . S
O456 C437 1.247 . S
C457 O454 1.244 . S
C457 O455 1.240 . S
H458 C432 0.931 . S
H459 C441 0.931 . S
H460 C445 0.929 . S
H461 C447 0.930 . S
Co462 N466 2.148 . S
Co462 N472 2.128 . S
Co462 N482 2.194 . S
Co462 O487 2.351 . S
Co462 O488 2.155 . S
Co462 O489 2.096 . S
C463 N466 1.301 . S
C463 N467 1.328 . S
C463 H468 0.930 . S
C464 C465 1.333 . S
C464 N466 1.317 . S
C464 H469 0.930 . S
C465 C464 1.333 . S
C465 N467 1.350 . S
C465 H491 0.931 . S
N466 Co462 2.148 . S
N466 C463 1.301 . S
N466 C464 1.317 . S
N467 C463 1.328 . S
N467 C465 1.350 . S
H468 C463 0.930 . S
H469 C464 0.930 . S
C470 O471 1.224 . S
C470 O489 1.247 . S
O471 C470 1.224 . S
N472 Co462 2.128 . S
N472 C473 1.355 . S
N472 C475 1.311 . S
C473 N472 1.355 . S
C473 C474 1.363 . S
C473 H485 0.929 . S
C474 C473 1.363 . S
C474 N476 1.375 . S
C474 H492 0.931 . S
C475 N472 1.311 . S
C475 N476 1.347 . S
C475 H486 0.929 . S
N476 C474 1.375 . S
N476 C475 1.347 . S
C477 C480 1.365 . S
C477 N482 1.328 . S
C477 H483 0.929 . S
C478 C479 1.362 . S
C478 C481 1.378 . S
C478 H493 0.929 . S
C479 C478 1.362 . S
C479 C480 1.366 . S
C480 C477 1.365 . S
C480 C479 1.366 . S
C480 H494 0.930 . S
C481 C478 1.378 . S
C481 N482 1.315 . S
C481 H484 0.930 . S
N482 Co462 2.194 . S
N482 C477 1.328 . S
N482 C481 1.315 . S
H483 C477 0.929 . S
H484 C481 0.930 . S
H485 C473 0.929 . S
H486 C475 0.929 . S
O487 Co462 2.351 . S
O487 C490 1.244 . S
O488 Co462 2.155 . S
O488 C490 1.240 . S
O489 Co462 2.096 . S
O489 C470 1.247 . S
C490 O487 1.244 . S
C490 O488 1.240 . S
H491 C465 0.931 . S
H492 C474 0.931 . S
H493 C478 0.929 . S
H494 C480 0.930 . S
Co495 N499 2.148 . S
Co495 N505 2.128 . S
Co495 N515 2.194 . S
Co495 O520 2.351 . S
Co495 O521 2.155 . S
Co495 O522 2.096 . S
C496 N499 1.301 . S
C496 N500 1.328 . S
C496 H501 0.930 . S
C497 C498 1.333 . S
C497 N499 1.317 . S
C497 H502 0.930 . S
C498 C497 1.333 . S
C498 N500 1.350 . S
C498 H524 0.931 . S
N499 Co495 2.148 . S
N499 C496 1.301 . S
N499 C497 1.317 . S
N500 C496 1.328 . S
N500 C498 1.350 . S
H501 C496 0.930 . S
H502 C497 0.930 . S
C503 O504 1.224 . S
C503 O522 1.247 . S
O504 C503 1.224 . S
N505 Co495 2.128 . S
N505 C506 1.355 . S
N505 C508 1.311 . S
C506 N505 1.355 . S
C506 C507 1.363 . S
C506 H518 0.929 . S
C507 C506 1.363 . S
C507 N509 1.375 . S
C507 H525 0.931 . S
C508 N505 1.311 . S
C508 N509 1.347 . S
C508 H519 0.929 . S
N509 C507 1.375 . S
N509 C508 1.347 . S
C510 C513 1.365 . S
C510 N515 1.328 . S
C510 H516 0.929 . S
C511 C512 1.362 . S
C511 C514 1.378 . S
C511 H526 0.929 . S
C512 C511 1.362 . S
C512 C513 1.366 . S
C513 C510 1.365 . S
C513 C512 1.366 . S
C513 H527 0.930 . S
C514 C511 1.378 . S
C514 N515 1.315 . S
C514 H517 0.930 . S
N515 Co495 2.194 . S
N515 C510 1.328 . S
N515 C514 1.315 . S
H516 C510 0.929 . S
H517 C514 0.930 . S
H518 C506 0.929 . S
H519 C508 0.929 . S
O520 Co495 2.351 . S
O520 C523 1.244 . S
O521 Co495 2.155 . S
O521 C523 1.240 . S
O522 Co495 2.096 . S
O522 C503 1.247 . S
C523 O520 1.244 . S
C523 O521 1.240 . S
H524 C498 0.931 . S
H525 C507 0.931 . S
H526 C511 0.929 . S
H527 C513 0.930 . S
Co528 N532 2.148 . S
Co528 N538 2.128 . S
Co528 N548 2.194 . S
Co528 O553 2.351 . S
Co528 O554 2.155 . S
Co528 O555 2.096 . S
C529 N532 1.301 . S
C529 N533 1.328 . S
C529 H534 0.930 . S
C530 C531 1.333 . S
C530 N532 1.317 . S
C530 H535 0.930 . S
C531 C530 1.333 . S
C531 N533 1.350 . S
C531 H557 0.931 . S
N532 Co528 2.148 . S
N532 C529 1.301 . S
N532 C530 1.317 . S
N533 C529 1.328 . S
N533 C531 1.350 . S
H534 C529 0.930 . S
H535 C530 0.930 . S
C536 O537 1.224 . S
C536 O555 1.247 . S
O537 C536 1.224 . S
N538 Co528 2.128 . S
N538 C539 1.355 . S
N538 C541 1.311 . S
C539 N538 1.355 . S
C539 C540 1.363 . S
C539 H551 0.929 . S
C540 C539 1.363 . S
C540 N542 1.375 . S
C540 H558 0.931 . S
C541 N538 1.311 . S
C541 N542 1.347 . S
C541 H552 0.929 . S
N542 C540 1.375 . S
N542 C541 1.347 . S
C543 C546 1.365 . S
C543 N548 1.328 . S
C543 H549 0.929 . S
C544 C545 1.362 . S
C544 C547 1.378 . S
C544 H559 0.929 . S
C545 C544 1.362 . S
C545 C546 1.366 . S
C546 C543 1.365 . S
C546 C545 1.366 . S
C546 H560 0.930 . S
C547 C544 1.378 . S
C547 N548 1.315 . S
C547 H550 0.930 . S
N548 Co528 2.194 . S
N548 C543 1.328 . S
N548 C547 1.315 . S
H549 C543 0.929 . S
H550 C547 0.930 . S
H551 C539 0.929 . S
H552 C541 0.929 . S
O553 Co528 2.351 . S
O553 C556 1.244 . S
O554 Co528 2.155 . S
O554 C556 1.240 . S
O555 Co528 2.096 . S
O555 C536 1.247 . S
C556 O553 1.244 . S
C556 O554 1.240 . S
H557 C531 0.931 . S
H558 C540 0.931 . S
H559 C544 0.929 . S
H560 C546 0.930 . S
Co561 N565 2.148 . S
Co561 N571 2.128 . S
Co561 N581 2.194 . S
Co561 O586 2.351 . S
Co561 O587 2.155 . S
Co561 O588 2.096 . S
C562 N565 1.301 . S
C562 N566 1.328 . S
C562 H567 0.930 . S
C563 C564 1.333 . S
C563 N565 1.317 . S
C563 H568 0.930 . S
C564 C563 1.333 . S
C564 N566 1.350 . S
C564 H590 0.931 . S
N565 Co561 2.148 . S
N565 C562 1.301 . S
N565 C563 1.317 . S
N566 C562 1.328 . S
N566 C564 1.350 . S
H567 C562 0.930 . S
H568 C563 0.930 . S
C569 O570 1.224 . S
C569 O588 1.247 . S
O570 C569 1.224 . S
N571 Co561 2.128 . S
N571 C572 1.355 . S
N571 C574 1.311 . S
C572 N571 1.355 . S
C572 C573 1.363 . S
C572 H584 0.929 . S
C573 C572 1.363 . S
C573 N575 1.375 . S
C573 H591 0.931 . S
C574 N571 1.311 . S
C574 N575 1.347 . S
C574 H585 0.929 . S
N575 C573 1.375 . S
N575 C574 1.347 . S
C576 C579 1.365 . S
C576 N581 1.328 . S
C576 H582 0.929 . S
C577 C578 1.362 . S
C577 C580 1.378 . S
C577 H592 0.929 . S
C578 C577 1.362 . S
C578 C579 1.366 . S
C579 C576 1.365 . S
C579 C578 1.366 . S
C579 H593 0.930 . S
C580 C577 1.378 . S
C580 N581 1.315 . S
C580 H583 0.930 . S
N581 Co561 2.194 . S
N581 C576 1.328 . S
N581 C580 1.315 . S
H582 C576 0.929 . S
H583 C580 0.930 . S
H584 C572 0.929 . S
H585 C574 0.929 . S
O586 Co561 2.351 . S
O586 C589 1.244 . S
O587 Co561 2.155 . S
O587 C589 1.240 . S
O588 Co561 2.096 . S
O588 C569 1.247 . S
C589 O586 1.244 . S
C589 O587 1.240 . S
H590 C564 0.931 . S
H591 C573 0.931 . S
H592 C577 0.929 . S
H593 C579 0.930 . S
Co594 N598 2.148 . S
Co594 N604 2.128 . S
Co594 N614 2.194 . S
Co594 O619 2.351 . S
Co594 O620 2.155 . S
Co594 O621 2.096 . S
C595 N598 1.301 . S
C595 N599 1.328 . S
C595 H600 0.930 . S
C596 C597 1.333 . S
C596 N598 1.317 . S
C596 H601 0.930 . S
C597 C596 1.333 . S
C597 N599 1.350 . S
C597 H623 0.931 . S
N598 Co594 2.148 . S
N598 C595 1.301 . S
N598 C596 1.317 . S
N599 C595 1.328 . S
N599 C597 1.350 . S
H600 C595 0.930 . S
H601 C596 0.930 . S
C602 O603 1.224 . S
C602 O621 1.247 . S
O603 C602 1.224 . S
N604 Co594 2.128 . S
N604 C605 1.355 . S
N604 C607 1.311 . S
C605 N604 1.355 . S
C605 C606 1.363 . S
C605 H617 0.929 . S
C606 C605 1.363 . S
C606 N608 1.375 . S
C606 H624 0.931 . S
C607 N604 1.311 . S
C607 N608 1.347 . S
C607 H618 0.929 . S
N608 C606 1.375 . S
N608 C607 1.347 . S
C609 C612 1.365 . S
C609 N614 1.328 . S
C609 H615 0.929 . S
C610 C611 1.362 . S
C610 C613 1.378 . S
C610 H625 0.929 . S
C611 C610 1.362 . S
C611 C612 1.366 . S
C612 C609 1.365 . S
C612 C611 1.366 . S
C612 H626 0.930 . S
C613 C610 1.378 . S
C613 N614 1.315 . S
C613 H616 0.930 . S
N614 Co594 2.194 . S
N614 C609 1.328 . S
N614 C613 1.315 . S
H615 C609 0.929 . S
H616 C613 0.930 . S
H617 C605 0.929 . S
H618 C607 0.929 . S
O619 Co594 2.351 . S
O619 C622 1.244 . S
O620 Co594 2.155 . S
O620 C622 1.240 . S
O621 Co594 2.096 . S
O621 C602 1.247 . S
C622 O619 1.244 . S
C622 O620 1.240 . S
H623 C597 0.931 . S
H624 C606 0.931 . S
H625 C610 0.929 . S
H626 C612 0.930 . S
Co627 N631 2.148 . S
Co627 N637 2.128 . S
Co627 N647 2.194 . S
Co627 O652 2.351 . S
Co627 O653 2.155 . S
Co627 O654 2.096 . S
C628 N631 1.301 . S
C628 N632 1.328 . S
C628 H633 0.930 . S
C629 C630 1.333 . S
C629 N631 1.317 . S
C629 H634 0.930 . S
C630 C629 1.333 . S
C630 N632 1.350 . S
C630 H656 0.931 . S
N631 Co627 2.148 . S
N631 C628 1.301 . S
N631 C629 1.317 . S
N632 C628 1.328 . S
N632 C630 1.350 . S
H633 C628 0.930 . S
H634 C629 0.930 . S
C635 O636 1.224 . S
C635 O654 1.247 . S
O636 C635 1.224 . S
N637 Co627 2.128 . S
N637 C638 1.355 . S
N637 C640 1.311 . S
C638 N637 1.355 . S
C638 C639 1.363 . S
C638 H650 0.929 . S
C639 C638 1.363 . S
C639 N641 1.375 . S
C639 H657 0.931 . S
C640 N637 1.311 . S
C640 N641 1.347 . S
C640 H651 0.929 . S
N641 C639 1.375 . S
N641 C640 1.347 . S
C642 C645 1.365 . S
C642 N647 1.328 . S
C642 H648 0.929 . S
C643 C644 1.362 . S
C643 C646 1.378 . S
C643 H658 0.929 . S
C644 C643 1.362 . S
C644 C645 1.366 . S
C645 C642 1.365 . S
C645 C644 1.366 . S
C645 H659 0.930 . S
C646 C643 1.378 . S
C646 N647 1.315 . S
C646 H649 0.930 . S
N647 Co627 2.194 . S
N647 C642 1.328 . S
N647 C646 1.315 . S
H648 C642 0.929 . S
H649 C646 0.930 . S
H650 C638 0.929 . S
H651 C640 0.929 . S
O652 Co627 2.351 . S
O652 C655 1.244 . S
O653 Co627 2.155 . S
O653 C655 1.240 . S
O654 Co627 2.096 . S
O654 C635 1.247 . S
C655 O652 1.244 . S
C655 O653 1.240 . S
H656 C630 0.931 . S
H657 C639 0.931 . S
H658 C643 0.929 . S
H659 C645 0.930 . S
Co660 N664 2.148 . S
Co660 N670 2.128 . S
Co660 N680 2.194 . S
Co660 O685 2.351 . S
Co660 O686 2.155 . S
Co660 O687 2.096 . S
C661 N664 1.301 . S
C661 N665 1.328 . S
C661 H666 0.930 . S
C662 C663 1.333 . S
C662 N664 1.317 . S
C662 H667 0.930 . S
C663 C662 1.333 . S
C663 N665 1.350 . S
C663 H689 0.931 . S
N664 Co660 2.148 . S
N664 C661 1.301 . S
N664 C662 1.317 . S
N665 C661 1.328 . S
N665 C663 1.350 . S
H666 C661 0.930 . S
H667 C662 0.930 . S
C668 O669 1.224 . S
C668 O687 1.247 . S
O669 C668 1.224 . S
N670 Co660 2.128 . S
N670 C671 1.355 . S
N670 C673 1.311 . S
C671 N670 1.355 . S
C671 C672 1.363 . S
C671 H683 0.929 . S
C672 C671 1.363 . S
C672 N674 1.375 . S
C672 H690 0.931 . S
C673 N670 1.311 . S
C673 N674 1.347 . S
C673 H684 0.929 . S
N674 C672 1.375 . S
N674 C673 1.347 . S
C675 C678 1.365 . S
C675 N680 1.328 . S
C675 H681 0.929 . S
C676 C677 1.362 . S
C676 C679 1.378 . S
C676 H691 0.929 . S
C677 C676 1.362 . S
C677 C678 1.366 . S
C678 C675 1.365 . S
C678 C677 1.366 . S
C678 H692 0.930 . S
C679 C676 1.378 . S
C679 N680 1.315 . S
C679 H682 0.930 . S
N680 Co660 2.194 . S
N680 C675 1.328 . S
N680 C679 1.315 . S
H681 C675 0.929 . S
H682 C679 0.930 . S
H683 C671 0.929 . S
H684 C673 0.929 . S
O685 Co660 2.351 . S
O685 C688 1.244 . S
O686 Co660 2.155 . S
O686 C688 1.240 . S
O687 Co660 2.096 . S
O687 C668 1.247 . S
C688 O685 1.244 . S
C688 O686 1.240 . S
H689 C663 0.931 . S
H690 C672 0.931 . S
H691 C676 0.929 . S
H692 C678 0.930 . S
Co693 N697 2.148 . S
Co693 N703 2.128 . S
Co693 N713 2.194 . S
Co693 O718 2.351 . S
Co693 O719 2.155 . S
Co693 O720 2.096 . S
C694 N697 1.301 . S
C694 N698 1.328 . S
C694 H699 0.930 . S
C695 C696 1.333 . S
C695 N697 1.317 . S
C695 H700 0.930 . S
C696 C695 1.333 . S
C696 N698 1.350 . S
C696 H722 0.931 . S
N697 Co693 2.148 . S
N697 C694 1.301 . S
N697 C695 1.317 . S
N698 C694 1.328 . S
N698 C696 1.350 . S
H699 C694 0.930 . S
H700 C695 0.930 . S
C701 O702 1.224 . S
C701 O720 1.247 . S
O702 C701 1.224 . S
N703 Co693 2.128 . S
N703 C704 1.355 . S
N703 C706 1.311 . S
C704 N703 1.355 . S
C704 C705 1.363 . S
C704 H716 0.929 . S
C705 C704 1.363 . S
C705 N707 1.375 . S
C705 H723 0.931 . S
C706 N703 1.311 . S
C706 N707 1.347 . S
C706 H717 0.929 . S
N707 C705 1.375 . S
N707 C706 1.347 . S
C708 C711 1.365 . S
C708 N713 1.328 . S
C708 H714 0.929 . S
C709 C710 1.362 . S
C709 C712 1.378 . S
C709 H724 0.929 . S
C710 C709 1.362 . S
C710 C711 1.366 . S
C711 C708 1.365 . S
C711 C710 1.366 . S
C711 H725 0.930 . S
C712 C709 1.378 . S
C712 N713 1.315 . S
C712 H715 0.930 . S
N713 Co693 2.194 . S
N713 C708 1.328 . S
N713 C712 1.315 . S
H714 C708 0.929 . S
H715 C712 0.930 . S
H716 C704 0.929 . S
H717 C706 0.929 . S
O718 Co693 2.351 . S
O718 C721 1.244 . S
O719 Co693 2.155 . S
O719 C721 1.240 . S
O720 Co693 2.096 . S
O720 C701 1.247 . S
C721 O718 1.244 . S
C721 O719 1.240 . S
H722 C696 0.931 . S
H723 C705 0.931 . S
H724 C709 0.929 . S
H725 C711 0.930 . S
Co726 N730 2.148 . S
Co726 N736 2.128 . S
Co726 N746 2.194 . S
Co726 O751 2.351 . S
Co726 O752 2.155 . S
Co726 O753 2.096 . S
C727 N730 1.301 . S
C727 N731 1.328 . S
C727 H732 0.930 . S
C728 C729 1.333 . S
C728 N730 1.317 . S
C728 H733 0.930 . S
C729 C728 1.333 . S
C729 N731 1.350 . S
C729 H755 0.931 . S
N730 Co726 2.148 . S
N730 C727 1.301 . S
N730 C728 1.317 . S
N731 C727 1.328 . S
N731 C729 1.350 . S
H732 C727 0.930 . S
H733 C728 0.930 . S
C734 O735 1.224 . S
C734 O753 1.247 . S
O735 C734 1.224 . S
N736 Co726 2.128 . S
N736 C737 1.355 . S
N736 C739 1.311 . S
C737 N736 1.355 . S
C737 C738 1.363 . S
C737 H749 0.929 . S
C738 C737 1.363 . S
C738 N740 1.375 . S
C738 H756 0.931 . S
C739 N736 1.311 . S
C739 N740 1.347 . S
C739 H750 0.929 . S
N740 C738 1.375 . S
N740 C739 1.347 . S
C741 C744 1.365 . S
C741 N746 1.328 . S
C741 H747 0.929 . S
C742 C743 1.362 . S
C742 C745 1.378 . S
C742 H757 0.929 . S
C743 C742 1.362 . S
C743 C744 1.366 . S
C744 C741 1.365 . S
C744 C743 1.366 . S
C744 H758 0.930 . S
C745 C742 1.378 . S
C745 N746 1.315 . S
C745 H748 0.930 . S
N746 Co726 2.194 . S
N746 C741 1.328 . S
N746 C745 1.315 . S
H747 C741 0.929 . S
H748 C745 0.930 . S
H749 C737 0.929 . S
H750 C739 0.929 . S
O751 Co726 2.351 . S
O751 C754 1.244 . S
O752 Co726 2.155 . S
O752 C754 1.240 . S
O753 Co726 2.096 . S
O753 C734 1.247 . S
C754 O751 1.244 . S
C754 O752 1.240 . S
H755 C729 0.931 . S
H756 C738 0.931 . S
H757 C742 0.929 . S
H758 C744 0.930 . S
Co759 N763 2.148 . S
Co759 N769 2.128 . S
Co759 N779 2.194 . S
Co759 O784 2.351 . S
Co759 O785 2.155 . S
Co759 O786 2.096 . S
C760 N763 1.301 . S
C760 N764 1.328 . S
C760 H765 0.930 . S
C761 C762 1.333 . S
C761 N763 1.317 . S
C761 H766 0.930 . S
C762 C761 1.333 . S
C762 N764 1.350 . S
C762 H788 0.931 . S
N763 Co759 2.148 . S
N763 C760 1.301 . S
N763 C761 1.317 . S
N764 C760 1.328 . S
N764 C762 1.350 . S
H765 C760 0.930 . S
H766 C761 0.930 . S
C767 O768 1.224 . S
C767 O786 1.247 . S
O768 C767 1.224 . S
N769 Co759 2.128 . S
N769 C770 1.355 . S
N769 C772 1.311 . S
C770 N769 1.355 . S
C770 C771 1.363 . S
C770 H782 0.929 . S
C771 C770 1.363 . S
C771 N773 1.375 . S
C771 H789 0.931 . S
C772 N769 1.311 . S
C772 N773 1.347 . S
C772 H783 0.929 . S
N773 C771 1.375 . S
N773 C772 1.347 . S
C774 C777 1.365 . S
C774 N779 1.328 . S
C774 H780 0.929 . S
C775 C776 1.362 . S
C775 C778 1.378 . S
C775 H790 0.929 . S
C776 C775 1.362 . S
C776 C777 1.366 . S
C777 C774 1.365 . S
C777 C776 1.366 . S
C777 H791 0.930 . S
C778 C775 1.378 . S
C778 N779 1.315 . S
C778 H781 0.930 . S
N779 Co759 2.194 . S
N779 C774 1.328 . S
N779 C778 1.315 . S
H780 C774 0.929 . S
H781 C778 0.930 . S
H782 C770 0.929 . S
H783 C772 0.929 . S
O784 Co759 2.351 . S
O784 C787 1.244 . S
O785 Co759 2.155 . S
O785 C787 1.240 . S
O786 Co759 2.096 . S
O786 C767 1.247 . S
C787 O784 1.244 . S
C787 O785 1.240 . S
H788 C762 0.931 . S
H789 C771 0.931 . S
H790 C775 0.929 . S
H791 C777 0.930 . S
Co792 N796 2.148 . S
Co792 N802 2.128 . S
Co792 N812 2.194 . S
Co792 O817 2.351 . S
Co792 O818 2.155 . S
Co792 O819 2.096 . S
C793 N796 1.301 . S
C793 N797 1.328 . S
C793 H798 0.930 . S
C794 C795 1.333 . S
C794 N796 1.317 . S
C794 H799 0.930 . S
C795 C794 1.333 . S
C795 N797 1.350 . S
C795 H821 0.931 . S
N796 Co792 2.148 . S
N796 C793 1.301 . S
N796 C794 1.317 . S
N797 C793 1.328 . S
N797 C795 1.350 . S
H798 C793 0.930 . S
H799 C794 0.930 . S
C800 O801 1.224 . S
C800 O819 1.247 . S
O801 C800 1.224 . S
N802 Co792 2.128 . S
N802 C803 1.355 . S
N802 C805 1.311 . S
C803 N802 1.355 . S
C803 C804 1.363 . S
C803 H815 0.929 . S
C804 C803 1.363 . S
C804 N806 1.375 . S
C804 H822 0.931 . S
C805 N802 1.311 . S
C805 N806 1.347 . S
C805 H816 0.929 . S
N806 C804 1.375 . S
N806 C805 1.347 . S
C807 C810 1.365 . S
C807 N812 1.328 . S
C807 H813 0.929 . S
C808 C809 1.362 . S
C808 C811 1.378 . S
C808 H823 0.929 . S
C809 C808 1.362 . S
C809 C810 1.366 . S
C810 C807 1.365 . S
C810 C809 1.366 . S
C810 H824 0.930 . S
C811 C808 1.378 . S
C811 N812 1.315 . S
C811 H814 0.930 . S
N812 Co792 2.194 . S
N812 C807 1.328 . S
N812 C811 1.315 . S
H813 C807 0.929 . S
H814 C811 0.930 . S
H815 C803 0.929 . S
H816 C805 0.929 . S
O817 Co792 2.351 . S
O817 C820 1.244 . S
O818 Co792 2.155 . S
O818 C820 1.240 . S
O819 Co792 2.096 . S
O819 C800 1.247 . S
C820 O817 1.244 . S
C820 O818 1.240 . S
H821 C795 0.931 . S
H822 C804 0.931 . S
H823 C808 0.929 . S
H824 C810 0.930 . S
Co825 N829 2.148 . S
Co825 N835 2.128 . S
Co825 N845 2.194 . S
Co825 O850 2.351 . S
Co825 O851 2.155 . S
Co825 O852 2.096 . S
C826 N829 1.301 . S
C826 N830 1.328 . S
C826 H831 0.930 . S
C827 C828 1.333 . S
C827 N829 1.317 . S
C827 H832 0.930 . S
C828 C827 1.333 . S
C828 N830 1.350 . S
C828 H854 0.931 . S
N829 Co825 2.148 . S
N829 C826 1.301 . S
N829 C827 1.317 . S
N830 C826 1.328 . S
N830 C828 1.350 . S
H831 C826 0.930 . S
H832 C827 0.930 . S
C833 O834 1.224 . S
C833 O852 1.247 . S
O834 C833 1.224 . S
N835 Co825 2.128 . S
N835 C836 1.355 . S
N835 C838 1.311 . S
C836 N835 1.355 . S
C836 C837 1.363 . S
C836 H848 0.929 . S
C837 C836 1.363 . S
C837 N839 1.375 . S
C837 H855 0.931 . S
C838 N835 1.311 . S
C838 N839 1.347 . S
C838 H849 0.929 . S
N839 C837 1.375 . S
N839 C838 1.347 . S
C840 C843 1.365 . S
C840 N845 1.328 . S
C840 H846 0.929 . S
C841 C842 1.362 . S
C841 C844 1.378 . S
C841 H856 0.929 . S
C842 C841 1.362 . S
C842 C843 1.366 . S
C843 C840 1.365 . S
C843 C842 1.366 . S
C843 H857 0.930 . S
C844 C841 1.378 . S
C844 N845 1.315 . S
C844 H847 0.930 . S
N845 Co825 2.194 . S
N845 C840 1.328 . S
N845 C844 1.315 . S
H846 C840 0.929 . S
H847 C844 0.930 . S
H848 C836 0.929 . S
H849 C838 0.929 . S
O850 Co825 2.351 . S
O850 C853 1.244 . S
O851 Co825 2.155 . S
O851 C853 1.240 . S
O852 Co825 2.096 . S
O852 C833 1.247 . S
C853 O850 1.244 . S
C853 O851 1.240 . S
H854 C828 0.931 . S
H855 C837 0.931 . S
H856 C841 0.929 . S
H857 C843 0.930 . S
Co858 N862 2.148 . S
Co858 N868 2.128 . S
Co858 N878 2.194 . S
Co858 O883 2.351 . S
Co858 O884 2.155 . S
Co858 O885 2.096 . S
C859 N862 1.301 . S
C859 N863 1.328 . S
C859 H864 0.930 . S
C860 C861 1.333 . S
C860 N862 1.317 . S
C860 H865 0.930 . S
C861 C860 1.333 . S
C861 N863 1.350 . S
C861 H887 0.931 . S
N862 Co858 2.148 . S
N862 C859 1.301 . S
N862 C860 1.317 . S
N863 C859 1.328 . S
N863 C861 1.350 . S
H864 C859 0.930 . S
H865 C860 0.930 . S
C866 O867 1.224 . S
C866 O885 1.247 . S
O867 C866 1.224 . S
N868 Co858 2.128 . S
N868 C869 1.355 . S
N868 C871 1.311 . S
C869 N868 1.355 . S
C869 C870 1.363 . S
C869 H881 0.929 . S
C870 C869 1.363 . S
C870 N872 1.375 . S
C870 H888 0.931 . S
C871 N868 1.311 . S
C871 N872 1.347 . S
C871 H882 0.929 . S
N872 C870 1.375 . S
N872 C871 1.347 . S
C873 C876 1.365 . S
C873 N878 1.328 . S
C873 H879 0.929 . S
C874 C875 1.362 . S
C874 C877 1.378 . S
C874 H889 0.929 . S
C875 C874 1.362 . S
C875 C876 1.366 . S
C876 C873 1.365 . S
C876 C875 1.366 . S
C876 H890 0.930 . S
C877 C874 1.378 . S
C877 N878 1.315 . S
C877 H880 0.930 . S
N878 Co858 2.194 . S
N878 C873 1.328 . S
N878 C877 1.315 . S
H879 C873 0.929 . S
H880 C877 0.930 . S
H881 C869 0.929 . S
H882 C871 0.929 . S
O883 Co858 2.351 . S
O883 C886 1.244 . S
O884 Co858 2.155 . S
O884 C886 1.240 . S
O885 Co858 2.096 . S
O885 C866 1.247 . S
C886 O883 1.244 . S
C886 O884 1.240 . S
H887 C861 0.931 . S
H888 C870 0.931 . S
H889 C874 0.929 . S
H890 C876 0.930 . S
Co891 N895 2.148 . S
Co891 N901 2.128 . S
Co891 N911 2.194 . S
Co891 O916 2.351 . S
Co891 O917 2.155 . S
Co891 O918 2.096 . S
C892 N895 1.301 . S
C892 N896 1.328 . S
C892 H897 0.930 . S
C893 C894 1.333 . S
C893 N895 1.317 . S
C893 H898 0.930 . S
C894 C893 1.333 . S
C894 N896 1.350 . S
C894 H920 0.931 . S
N895 Co891 2.148 . S
N895 C892 1.301 . S
N895 C893 1.317 . S
N896 C892 1.328 . S
N896 C894 1.350 . S
H897 C892 0.930 . S
H898 C893 0.930 . S
C899 O900 1.224 . S
C899 O918 1.247 . S
O900 C899 1.224 . S
N901 Co891 2.128 . S
N901 C902 1.355 . S
N901 C904 1.311 . S
C902 N901 1.355 . S
C902 C903 1.363 . S
C902 H914 0.929 . S
C903 C902 1.363 . S
C903 N905 1.375 . S
C903 H921 0.931 . S
C904 N901 1.311 . S
C904 N905 1.347 . S
C904 H915 0.929 . S
N905 C903 1.375 . S
N905 C904 1.347 . S
C906 C909 1.365 . S
C906 N911 1.328 . S
C906 H912 0.929 . S
C907 C908 1.362 . S
C907 C910 1.378 . S
C907 H922 0.929 . S
C908 C907 1.362 . S
C908 C909 1.366 . S
C909 C906 1.365 . S
C909 C908 1.366 . S
C909 H923 0.930 . S
C910 C907 1.378 . S
C910 N911 1.315 . S
C910 H913 0.930 . S
N911 Co891 2.194 . S
N911 C906 1.328 . S
N911 C910 1.315 . S
H912 C906 0.929 . S
H913 C910 0.930 . S
H914 C902 0.929 . S
H915 C904 0.929 . S
O916 Co891 2.351 . S
O916 C919 1.244 . S
O917 Co891 2.155 . S
O917 C919 1.240 . S
O918 Co891 2.096 . S
O918 C899 1.247 . S
C919 O916 1.244 . S
C919 O917 1.240 . S
H920 C894 0.931 . S
H921 C903 0.931 . S
H922 C907 0.929 . S
H923 C909 0.930 . S
Co924 N928 2.148 . S
Co924 N934 2.128 . S
Co924 N944 2.194 . S
Co924 O949 2.351 . S
Co924 O950 2.155 . S
Co924 O951 2.096 . S
C925 N928 1.301 . S
C925 N929 1.328 . S
C925 H930 0.930 . S
C926 C927 1.333 . S
C926 N928 1.317 . S
C926 H931 0.930 . S
C927 C926 1.333 . S
C927 N929 1.350 . S
C927 H953 0.931 . S
N928 Co924 2.148 . S
N928 C925 1.301 . S
N928 C926 1.317 . S
N929 C925 1.328 . S
N929 C927 1.350 . S
H930 C925 0.930 . S
H931 C926 0.930 . S
C932 O933 1.224 . S
C932 O951 1.247 . S
O933 C932 1.224 . S
N934 Co924 2.128 . S
N934 C935 1.355 . S
N934 C937 1.311 . S
C935 N934 1.355 . S
C935 C936 1.363 . S
C935 H947 0.929 . S
C936 C935 1.363 . S
C936 N938 1.375 . S
C936 H954 0.931 . S
C937 N934 1.311 . S
C937 N938 1.347 . S
C937 H948 0.929 . S
N938 C936 1.375 . S
N938 C937 1.347 . S
C939 C942 1.365 . S
C939 N944 1.328 . S
C939 H945 0.929 . S
C940 C941 1.362 . S
C940 C943 1.378 . S
C940 H955 0.929 . S
C941 C940 1.362 . S
C941 C942 1.366 . S
C942 C939 1.365 . S
C942 C941 1.366 . S
C942 H956 0.930 . S
C943 C940 1.378 . S
C943 N944 1.315 . S
C943 H946 0.930 . S
N944 Co924 2.194 . S
N944 C939 1.328 . S
N944 C943 1.315 . S
H945 C939 0.929 . S
H946 C943 0.930 . S
H947 C935 0.929 . S
H948 C937 0.929 . S
O949 Co924 2.351 . S
O949 C952 1.244 . S
O950 Co924 2.155 . S
O950 C952 1.240 . S
O951 Co924 2.096 . S
O951 C932 1.247 . S
C952 O949 1.244 . S
C952 O950 1.240 . S
H953 C927 0.931 . S
H954 C936 0.931 . S
H955 C940 0.929 . S
H956 C942 0.930 . S
Co957 N961 2.148 . S
Co957 N967 2.128 . S
Co957 N977 2.194 . S
Co957 O982 2.351 . S
Co957 O983 2.155 . S
Co957 O984 2.096 . S
C958 N961 1.301 . S
C958 N962 1.328 . S
C958 H963 0.930 . S
C959 C960 1.333 . S
C959 N961 1.317 . S
C959 H964 0.930 . S
C960 C959 1.333 . S
C960 N962 1.350 . S
C960 H986 0.931 . S
N961 Co957 2.148 . S
N961 C958 1.301 . S
N961 C959 1.317 . S
N962 C958 1.328 . S
N962 C960 1.350 . S
H963 C958 0.930 . S
H964 C959 0.930 . S
C965 O966 1.224 . S
C965 O984 1.247 . S
O966 C965 1.224 . S
N967 Co957 2.128 . S
N967 C968 1.355 . S
N967 C970 1.311 . S
C968 N967 1.355 . S
C968 C969 1.363 . S
C968 H980 0.929 . S
C969 C968 1.363 . S
C969 N971 1.375 . S
C969 H987 0.931 . S
C970 N967 1.311 . S
C970 N971 1.347 . S
C970 H981 0.929 . S
N971 C969 1.375 . S
N971 C970 1.347 . S
C972 C975 1.365 . S
C972 N977 1.328 . S
C972 H978 0.929 . S
C973 C974 1.362 . S
C973 C976 1.378 . S
C973 H988 0.929 . S
C974 C973 1.362 . S
C974 C975 1.366 . S
C975 C972 1.365 . S
C975 C974 1.366 . S
C975 H989 0.930 . S
C976 C973 1.378 . S
C976 N977 1.315 . S
C976 H979 0.930 . S
N977 Co957 2.194 . S
N977 C972 1.328 . S
N977 C976 1.315 . S
H978 C972 0.929 . S
H979 C976 0.930 . S
H980 C968 0.929 . S
H981 C970 0.929 . S
O982 Co957 2.351 . S
O982 C985 1.244 . S
O983 Co957 2.155 . S
O983 C985 1.240 . S
O984 Co957 2.096 . S
O984 C965 1.247 . S
C985 O982 1.244 . S
C985 O983 1.240 . S
H986 C960 0.931 . S
H987 C969 0.931 . S
H988 C973 0.929 . S
H989 C975 0.930 . S
Co990 N994 2.148 . S
Co990 N1000 2.128 . S
Co990 N1010 2.194 . S
Co990 O1015 2.351 . S
Co990 O1016 2.155 . S
Co990 O1017 2.096 . S
C991 N994 1.301 . S
C991 N995 1.328 . S
C991 H996 0.930 . S
C992 C993 1.333 . S
C992 N994 1.317 . S
C992 H997 0.930 . S
C993 C992 1.333 . S
C993 N995 1.350 . S
C993 H1019 0.931 . S
N994 Co990 2.148 . S
N994 C991 1.301 . S
N994 C992 1.317 . S
N995 C991 1.328 . S
N995 C993 1.350 . S
H996 C991 0.930 . S
H997 C992 0.930 . S
C998 O999 1.224 . S
C998 O1017 1.247 . S
O999 C998 1.224 . S
N1000 Co990 2.128 . S
N1000 C1001 1.355 . S
N1000 C1003 1.311 . S
C1001 N1000 1.355 . S
C1001 C1002 1.363 . S
C1001 H1013 0.929 . S
C1002 C1001 1.363 . S
C1002 N1004 1.375 . S
C1002 H1020 0.931 . S
C1003 N1000 1.311 . S
C1003 N1004 1.347 . S
C1003 H1014 0.929 . S
N1004 C1002 1.375 . S
N1004 C1003 1.347 . S
C1005 C1008 1.365 . S
C1005 N1010 1.328 . S
C1005 H1011 0.929 . S
C1006 C1007 1.362 . S
C1006 C1009 1.378 . S
C1006 H1021 0.929 . S
C1007 C1006 1.362 . S
C1007 C1008 1.366 . S
C1008 C1005 1.365 . S
C1008 C1007 1.366 . S
C1008 H1022 0.930 . S
C1009 C1006 1.378 . S
C1009 N1010 1.315 . S
C1009 H1012 0.930 . S
N1010 Co990 2.194 . S
N1010 C1005 1.328 . S
N1010 C1009 1.315 . S
H1011 C1005 0.929 . S
H1012 C1009 0.930 . S
H1013 C1001 0.929 . S
H1014 C1003 0.929 . S
O1015 Co990 2.351 . S
O1015 C1018 1.244 . S
O1016 Co990 2.155 . S
O1016 C1018 1.240 . S
O1017 Co990 2.096 . S
O1017 C998 1.247 . S
C1018 O1015 1.244 . S
C1018 O1016 1.240 . S
H1019 C993 0.931 . S
H1020 C1002 0.931 . S
H1021 C1006 0.929 . S
H1022 C1008 0.930 . S
Co1023 N1027 2.148 . S
Co1023 N1033 2.128 . S
Co1023 N1043 2.194 . S
Co1023 O1048 2.351 . S
Co1023 O1049 2.155 . S
Co1023 O1050 2.096 . S
C1024 N1027 1.301 . S
C1024 N1028 1.328 . S
C1024 H1029 0.930 . S
C1025 C1026 1.333 . S
C1025 N1027 1.317 . S
C1025 H1030 0.930 . S
C1026 C1025 1.333 . S
C1026 N1028 1.350 . S
C1026 H1052 0.931 . S
N1027 Co1023 2.148 . S
N1027 C1024 1.301 . S
N1027 C1025 1.317 . S
N1028 C1024 1.328 . S
N1028 C1026 1.350 . S
H1029 C1024 0.930 . S
H1030 C1025 0.930 . S
C1031 O1032 1.224 . S
C1031 O1050 1.247 . S
O1032 C1031 1.224 . S
N1033 Co1023 2.128 . S
N1033 C1034 1.355 . S
N1033 C1036 1.311 . S
C1034 N1033 1.355 . S
C1034 C1035 1.363 . S
C1034 H1046 0.929 . S
C1035 C1034 1.363 . S
C1035 N1037 1.375 . S
C1035 H1053 0.931 . S
C1036 N1033 1.311 . S
C1036 N1037 1.347 . S
C1036 H1047 0.929 . S
N1037 C1035 1.375 . S
N1037 C1036 1.347 . S
C1038 C1041 1.365 . S
C1038 N1043 1.328 . S
C1038 H1044 0.929 . S
C1039 C1040 1.362 . S
C1039 C1042 1.378 . S
C1039 H1054 0.929 . S
C1040 C1039 1.362 . S
C1040 C1041 1.366 . S
C1041 C1038 1.365 . S
C1041 C1040 1.366 . S
C1041 H1055 0.930 . S
C1042 C1039 1.378 . S
C1042 N1043 1.315 . S
C1042 H1045 0.930 . S
N1043 Co1023 2.194 . S
N1043 C1038 1.328 . S
N1043 C1042 1.315 . S
H1044 C1038 0.929 . S
H1045 C1042 0.930 . S
H1046 C1034 0.929 . S
H1047 C1036 0.929 . S
O1048 Co1023 2.351 . S
O1048 C1051 1.244 . S
O1049 Co1023 2.155 . S
O1049 C1051 1.240 . S
O1050 Co1023 2.096 . S
O1050 C1031 1.247 . S
C1051 O1048 1.244 . S
C1051 O1049 1.240 . S
H1052 C1026 0.931 . S
H1053 C1035 0.931 . S
H1054 C1039 0.929 . S
H1055 C1041 0.930 . S
H1056 C1062 0.930 . S
H1057 C1065 0.930 . S
H1058 C1066 0.930 . S
H1059 C1067 0.930 . S
H1060 C1070 0.930 . S
H1061 C1071 0.930 . S
C1062 H1056 0.930 . S
C1062 C1063 1.355 . S
C1062 C1064 1.415 . S
C1063 C1062 1.355 . S
C1063 C1065 1.419 . S
C1064 C1062 1.415 . S
C1064 C1069 1.425 . S
C1064 C1071 1.409 . S
C1065 H1057 0.930 . S
C1065 C1063 1.419 . S
C1065 C1066 1.362 . S
C1066 H1058 0.930 . S
C1066 C1065 1.362 . S
C1066 C1069 1.409 . S
C1067 H1059 0.930 . S
C1067 C1068 1.355 . S
C1067 C1069 1.415 . S
C1068 C1067 1.355 . S
C1068 C1070 1.419 . S
C1069 C1064 1.425 . S
C1069 C1066 1.409 . S
C1069 C1067 1.415 . S
C1070 H1060 0.930 . S
C1070 C1068 1.419 . S
C1070 C1071 1.362 . S
C1071 H1061 0.930 . S
C1071 C1064 1.409 . S
C1071 C1070 1.362 . S
H1072 C1078 0.930 . S
H1073 C1081 0.930 . S
H1074 C1082 0.930 . S
H1075 C1083 0.930 . S
H1076 C1086 0.930 . S
H1077 C1087 0.930 . S
C1078 H1072 0.930 . S
C1078 C1079 1.355 . S
C1078 C1080 1.415 1_455 S
C1079 C1078 1.355 . S
C1079 C1081 1.419 1_455 S
C1080 C1078 1.415 1_655 S
C1080 C1085 1.425 . S
C1080 C1087 1.409 . S
C1081 H1073 0.930 . S
C1081 C1079 1.419 1_655 S
C1081 C1082 1.362 . S
C1082 H1074 0.930 . S
C1082 C1081 1.362 . S
C1082 C1085 1.409 . S
C1083 H1075 0.930 . S
C1083 C1084 1.355 . S
C1083 C1085 1.415 . S
C1084 C1083 1.355 . S
C1084 C1086 1.419 . S
C1085 C1080 1.425 . S
C1085 C1082 1.409 . S
C1085 C1083 1.415 . S
C1086 H1076 0.930 . S
C1086 C1084 1.419 . S
C1086 C1087 1.362 . S
C1087 H1077 0.930 . S
C1087 C1080 1.409 . S
C1087 C1086 1.362 . S
H1088 C1094 0.930 . S
H1089 C1097 0.930 . S
H1090 C1098 0.930 . S
H1091 C1099 0.930 . S
H1092 C1102 0.930 . S
H1093 C1103 0.930 . S
C1094 H1088 0.930 . S
C1094 C1095 1.355 . S
C1094 C1096 1.415 . S
C1095 C1094 1.355 . S
C1095 C1097 1.419 . S
C1096 C1094 1.415 . S
C1096 C1101 1.425 . S
C1096 C1103 1.409 . S
C1097 H1089 0.930 . S
C1097 C1095 1.419 . S
C1097 C1098 1.362 . S
C1098 H1090 0.930 . S
C1098 C1097 1.362 . S
C1098 C1101 1.409 . S
C1099 H1091 0.930 . S
C1099 C1100 1.355 . S
C1099 C1101 1.415 . S
C1100 C1099 1.355 . S
C1100 C1102 1.419 . S
C1101 C1096 1.425 . S
C1101 C1098 1.409 . S
C1101 C1099 1.415 . S
C1102 H1092 0.930 . S
C1102 C1100 1.419 . S
C1102 C1103 1.362 . S
C1103 H1093 0.930 . S
C1103 C1096 1.409 . S
C1103 C1102 1.362 . S
H1104 C1110 0.930 . S
H1105 C1113 0.930 . S
H1106 C1114 0.930 . S
H1107 C1115 0.930 . S
H1108 C1118 0.930 . S
H1109 C1119 0.930 . S
C1110 H1104 0.930 . S
C1110 C1111 1.355 . S
C1110 C1112 1.415 . S
C1111 C1110 1.355 . S
C1111 C1113 1.419 . S
C1112 C1110 1.415 . S
C1112 C1117 1.425 . S
C1112 C1119 1.409 . S
C1113 H1105 0.930 . S
C1113 C1111 1.419 . S
C1113 C1114 1.362 . S
C1114 H1106 0.930 . S
C1114 C1113 1.362 . S
C1114 C1117 1.409 . S
C1115 H1107 0.930 . S
C1115 C1116 1.355 . S
C1115 C1117 1.415 . S
C1116 C1115 1.355 . S
C1116 C1118 1.419 . S
C1117 C1112 1.425 . S
C1117 C1114 1.409 . S
C1117 C1115 1.415 . S
C1118 H1108 0.930 . S
C1118 C1116 1.419 . S
C1118 C1119 1.362 . S
C1119 H1109 0.930 . S
C1119 C1112 1.409 . S
C1119 C1118 1.362 . S
H1120 C1126 0.930 . S
H1121 C1129 0.930 . S
H1122 C1130 0.930 . S
H1123 C1131 0.930 . S
H1124 C1134 0.930 . S
H1125 C1135 0.930 . S
C1126 H1120 0.930 . S
C1126 C1127 1.355 . S
C1126 C1128 1.415 . S
C1127 C1126 1.355 . S
C1127 C1129 1.419 . S
C1128 C1126 1.415 . S
C1128 C1133 1.425 . S
C1128 C1135 1.409 . S
C1129 H1121 0.930 . S
C1129 C1127 1.419 . S
C1129 C1130 1.362 . S
C1130 H1122 0.930 . S
C1130 C1129 1.362 . S
C1130 C1133 1.409 . S
C1131 H1123 0.930 . S
C1131 C1132 1.355 . S
C1131 C1133 1.415 . S
C1132 C1131 1.355 . S
C1132 C1134 1.419 . S
C1133 C1128 1.425 . S
C1133 C1130 1.409 . S
C1133 C1131 1.415 . S
C1134 H1124 0.930 . S
C1134 C1132 1.419 . S
C1134 C1135 1.362 . S
C1135 H1125 0.930 . S
C1135 C1128 1.409 . S
C1135 C1134 1.362 . S
H1136 C1142 0.930 . S
H1137 C1145 0.930 . S
H1138 C1146 0.930 . S
H1139 C1147 0.930 . S
H1140 C1150 0.930 . S
H1141 C1151 0.930 . S
C1142 H1136 0.930 . S
C1142 C1143 1.355 . S
C1142 C1144 1.415 . S
C1143 C1142 1.355 . S
C1143 C1145 1.419 . S
C1144 C1142 1.415 . S
C1144 C1149 1.425 . S
C1144 C1151 1.409 . S
C1145 H1137 0.930 . S
C1145 C1143 1.419 . S
C1145 C1146 1.362 . S
C1146 H1138 0.930 . S
C1146 C1145 1.362 . S
C1146 C1149 1.409 . S
C1147 H1139 0.930 . S
C1147 C1148 1.355 . S
C1147 C1149 1.415 . S
C1148 C1147 1.355 . S
C1148 C1150 1.419 . S
C1149 C1144 1.425 . S
C1149 C1146 1.409 . S
C1149 C1147 1.415 . S
C1150 H1140 0.930 . S
C1150 C1148 1.419 . S
C1150 C1151 1.362 . S
C1151 H1141 0.930 . S
C1151 C1144 1.409 . S
C1151 C1150 1.362 . S
H1152 C1158 0.930 . S
H1153 C1161 0.930 . S
H1154 C1162 0.930 . S
H1155 C1163 0.930 . S
H1156 C1166 0.930 . S
H1157 C1167 0.930 . S
C1158 H1152 0.930 . S
C1158 C1159 1.355 . S
C1158 C1160 1.415 . S
C1159 C1158 1.355 . S
C1159 C1161 1.419 . S
C1160 C1158 1.415 . S
C1160 C1165 1.425 . S
C1160 C1167 1.409 . S
C1161 H1153 0.930 . S
C1161 C1159 1.419 . S
C1161 C1162 1.362 . S
C1162 H1154 0.930 . S
C1162 C1161 1.362 . S
C1162 C1165 1.409 . S
C1163 H1155 0.930 . S
C1163 C1164 1.355 . S
C1163 C1165 1.415 . S
C1164 C1163 1.355 . S
C1164 C1166 1.419 . S
C1165 C1160 1.425 . S
C1165 C1162 1.409 . S
C1165 C1163 1.415 . S
C1166 H1156 0.930 . S
C1166 C1164 1.419 . S
C1166 C1167 1.362 . S
C1167 H1157 0.930 . S
C1167 C1160 1.409 . S
C1167 C1166 1.362 . S
H1168 C1174 0.930 . S
H1169 C1177 0.930 . S
H1170 C1178 0.930 . S
H1171 C1179 0.930 . S
H1172 C1182 0.930 . S
H1173 C1183 0.930 . S
C1174 H1168 0.930 . S
C1174 C1175 1.355 . S
C1174 C1176 1.415 . S
C1175 C1174 1.355 . S
C1175 C1177 1.419 . S
C1176 C1174 1.415 . S
C1176 C1181 1.425 . S
C1176 C1183 1.409 . S
C1177 H1169 0.930 . S
C1177 C1175 1.419 . S
C1177 C1178 1.362 . S
C1178 H1170 0.930 . S
C1178 C1177 1.362 . S
C1178 C1181 1.409 . S
C1179 H1171 0.930 . S
C1179 C1180 1.355 . S
C1179 C1181 1.415 1_455 S
C1180 C1179 1.355 . S
C1180 C1182 1.419 1_455 S
C1181 C1176 1.425 . S
C1181 C1178 1.409 . S
C1181 C1179 1.415 1_655 S
C1182 H1172 0.930 . S
C1182 C1180 1.419 1_655 S
C1182 C1183 1.362 . S
C1183 H1173 0.930 . S
C1183 C1176 1.409 . S
C1183 C1182 1.362 . S
H1184 C1190 0.930 . S
H1185 C1193 0.930 . S
H1186 C1194 0.930 . S
H1187 C1195 0.930 . S
H1188 C1198 0.930 . S
H1189 C1199 0.930 . S
C1190 H1184 0.930 . S
C1190 C1191 1.355 . S
C1190 C1192 1.415 . S
C1191 C1190 1.355 . S
C1191 C1193 1.419 . S
C1192 C1190 1.415 . S
C1192 C1197 1.425 . S
C1192 C1199 1.409 . S
C1193 H1185 0.930 . S
C1193 C1191 1.419 . S
C1193 C1194 1.362 . S
C1194 H1186 0.930 . S
C1194 C1193 1.362 . S
C1194 C1197 1.409 . S
C1195 H1187 0.930 . S
C1195 C1196 1.355 . S
C1195 C1197 1.415 . S
C1196 C1195 1.355 . S
C1196 C1198 1.419 . S
C1197 C1192 1.425 . S
C1197 C1194 1.409 . S
C1197 C1195 1.415 . S
C1198 H1188 0.930 . S
C1198 C1196 1.419 . S
C1198 C1199 1.362 . S
C1199 H1189 0.930 . S
C1199 C1192 1.409 . S
C1199 C1198 1.362 . S
H1200 C1206 0.930 . S
H1201 C1209 0.930 . S
H1202 C1210 0.930 . S
H1203 C1211 0.930 . S
H1204 C1214 0.930 . S
H1205 C1215 0.930 . S
C1206 H1200 0.930 . S
C1206 C1207 1.355 . S
C1206 C1208 1.415 1_655 S
C1207 C1206 1.355 . S
C1207 C1209 1.419 1_655 S
C1208 C1206 1.415 1_455 S
C1208 C1213 1.425 . S
C1208 C1215 1.409 . S
C1209 H1201 0.930 . S
C1209 C1207 1.419 1_455 S
C1209 C1210 1.362 . S
C1210 H1202 0.930 . S
C1210 C1209 1.362 . S
C1210 C1213 1.409 . S
C1211 H1203 0.930 . S
C1211 C1212 1.355 . S
C1211 C1213 1.415 . S
C1212 C1211 1.355 . S
C1212 C1214 1.419 . S
C1213 C1208 1.425 . S
C1213 C1210 1.409 . S
C1213 C1211 1.415 . S
C1214 H1204 0.930 . S
C1214 C1212 1.419 . S
C1214 C1215 1.362 . S
C1215 H1205 0.930 . S
C1215 C1208 1.409 . S
C1215 C1214 1.362 . S
H1216 C1222 0.930 . S
H1217 C1225 0.930 . S
H1218 C1226 0.930 . S
H1219 C1227 0.930 . S
H1220 C1230 0.930 . S
H1221 C1231 0.930 . S
C1222 H1216 0.930 . S
C1222 C1223 1.355 . S
C1222 C1224 1.415 . S
C1223 C1222 1.355 . S
C1223 C1225 1.419 . S
C1224 C1222 1.415 . S
C1224 C1229 1.425 . S
C1224 C1231 1.409 . S
C1225 H1217 0.930 . S
C1225 C1223 1.419 . S
C1225 C1226 1.362 . S
C1226 H1218 0.930 . S
C1226 C1225 1.362 . S
C1226 C1229 1.409 . S
C1227 H1219 0.930 . S
C1227 C1228 1.355 . S
C1227 C1229 1.415 . S
C1228 C1227 1.355 . S
C1228 C1230 1.419 . S
C1229 C1224 1.425 . S
C1229 C1226 1.409 . S
C1229 C1227 1.415 . S
C1230 H1220 0.930 . S
C1230 C1228 1.419 . S
C1230 C1231 1.362 . S
C1231 H1221 0.930 . S
C1231 C1224 1.409 . S
C1231 C1230 1.362 . S
H1232 C1238 0.930 . S
H1233 C1241 0.930 . S
H1234 C1242 0.930 . S
H1235 C1243 0.930 . S
H1236 C1246 0.930 . S
H1237 C1247 0.930 . S
C1238 H1232 0.930 . S
C1238 C1239 1.355 . S
C1238 C1240 1.415 . S
C1239 C1238 1.355 . S
C1239 C1241 1.419 . S
C1240 C1238 1.415 . S
C1240 C1245 1.425 . S
C1240 C1247 1.409 . S
C1241 H1233 0.930 . S
C1241 C1239 1.419 . S
C1241 C1242 1.362 . S
C1242 H1234 0.930 . S
C1242 C1241 1.362 . S
C1242 C1245 1.409 . S
C1243 H1235 0.930 . S
C1243 C1244 1.355 . S
C1243 C1245 1.415 . S
C1244 C1243 1.355 . S
C1244 C1246 1.419 . S
C1245 C1240 1.425 . S
C1245 C1242 1.409 . S
C1245 C1243 1.415 . S
C1246 H1236 0.930 . S
C1246 C1244 1.419 . S
C1246 C1247 1.362 . S
C1247 H1237 0.930 . S
C1247 C1240 1.409 . S
C1247 C1246 1.362 . S
H1248 C1254 0.930 . S
H1249 C1257 0.930 . S
H1250 C1258 0.930 . S
H1251 C1259 0.930 . S
H1252 C1262 0.930 . S
H1253 C1263 0.930 . S
C1254 H1248 0.930 . S
C1254 C1255 1.355 . S
C1254 C1256 1.415 . S
C1255 C1254 1.355 . S
C1255 C1257 1.419 . S
C1256 C1254 1.415 . S
C1256 C1261 1.425 . S
C1256 C1263 1.409 . S
C1257 H1249 0.930 . S
C1257 C1255 1.419 . S
C1257 C1258 1.362 . S
C1258 H1250 0.930 . S
C1258 C1257 1.362 . S
C1258 C1261 1.409 . S
C1259 H1251 0.930 . S
C1259 C1260 1.355 . S
C1259 C1261 1.415 . S
C1260 C1259 1.355 . S
C1260 C1262 1.419 . S
C1261 C1256 1.425 . S
C1261 C1258 1.409 . S
C1261 C1259 1.415 . S
C1262 H1252 0.930 . S
C1262 C1260 1.419 . S
C1262 C1263 1.362 . S
C1263 H1253 0.930 . S
C1263 C1256 1.409 . S
C1263 C1262 1.362 . S
H1264 C1270 0.930 . S
H1265 C1273 0.930 . S
H1266 C1274 0.930 . S
H1267 C1275 0.930 . S
H1268 C1278 0.930 . S
H1269 C1279 0.930 . S
C1270 H1264 0.930 . S
C1270 C1271 1.355 . S
C1270 C1272 1.415 . S
C1271 C1270 1.355 . S
C1271 C1273 1.419 . S
C1272 C1270 1.415 . S
C1272 C1277 1.425 . S
C1272 C1279 1.409 . S
C1273 H1265 0.930 . S
C1273 C1271 1.419 . S
C1273 C1274 1.362 . S
C1274 H1266 0.930 . S
C1274 C1273 1.362 . S
C1274 C1277 1.409 . S
C1275 H1267 0.930 . S
C1275 C1276 1.355 . S
C1275 C1277 1.415 . S
C1276 C1275 1.355 . S
C1276 C1278 1.419 . S
C1277 C1272 1.425 . S
C1277 C1274 1.409 . S
C1277 C1275 1.415 . S
C1278 H1268 0.930 . S
C1278 C1276 1.419 . S
C1278 C1279 1.362 . S
C1279 H1269 0.930 . S
C1279 C1272 1.409 . S
C1279 C1278 1.362 . S
H1280 C1286 0.930 . S
H1281 C1289 0.930 . S
H1282 C1290 0.930 . S
H1283 C1291 0.930 . S
H1284 C1294 0.930 . S
H1285 C1295 0.930 . S
C1286 H1280 0.930 . S
C1286 C1287 1.355 . S
C1286 C1288 1.415 . S
C1287 C1286 1.355 . S
C1287 C1289 1.419 . S
C1288 C1286 1.415 . S
C1288 C1293 1.425 . S
C1288 C1295 1.409 . S
C1289 H1281 0.930 . S
C1289 C1287 1.419 . S
C1289 C1290 1.362 . S
C1290 H1282 0.930 . S
C1290 C1289 1.362 . S
C1290 C1293 1.409 . S
C1291 H1283 0.930 . S
C1291 C1292 1.355 . S
C1291 C1293 1.415 . S
C1292 C1291 1.355 . S
C1292 C1294 1.419 . S
C1293 C1288 1.425 . S
C1293 C1290 1.409 . S
C1293 C1291 1.415 . S
C1294 H1284 0.930 . S
C1294 C1292 1.419 . S
C1294 C1295 1.362 . S
C1295 H1285 0.930 . S
C1295 C1288 1.409 . S
C1295 C1294 1.362 . S
H1296 C1302 0.930 . S
H1297 C1305 0.930 1_655 S
H1298 C1306 0.930 . S
H1299 C1307 0.930 . S
H1300 C1310 0.930 . S
H1301 C1311 0.930 . S
C1302 H1296 0.930 . S
C1302 C1303 1.355 . S
C1302 C1304 1.415 1_655 S
C1303 C1302 1.355 . S
C1303 C1305 1.419 1_655 S
C1304 C1302 1.415 1_455 S
C1304 C1309 1.425 . S
C1304 C1311 1.409 . S
C1305 H1297 0.930 1_455 S
C1305 C1303 1.419 1_455 S
C1305 C1306 1.362 . S
C1306 H1298 0.930 . S
C1306 C1305 1.362 . S
C1306 C1309 1.409 . S
C1307 H1299 0.930 . S
C1307 C1308 1.355 . S
C1307 C1309 1.415 . S
C1308 C1307 1.355 . S
C1308 C1310 1.419 . S
C1309 C1304 1.425 . S
C1309 C1306 1.409 . S
C1309 C1307 1.415 . S
C1310 H1300 0.930 . S
C1310 C1308 1.419 . S
C1310 C1311 1.362 . S
C1311 H1301 0.930 . S
C1311 C1304 1.409 . S
C1311 C1310 1.362 . S
H1312 C1318 0.930 . S
H1313 C1321 0.930 . S
H1314 C1322 0.930 . S
H1315 C1323 0.930 . S
H1316 C1326 0.930 . S
H1317 C1327 0.930 . S
C1318 H1312 0.930 . S
C1318 C1319 1.355 . S
C1318 C1320 1.415 . S
C1319 C1318 1.355 . S
C1319 C1321 1.419 . S
C1320 C1318 1.415 . S
C1320 C1325 1.425 . S
C1320 C1327 1.409 . S
C1321 H1313 0.930 . S
C1321 C1319 1.419 . S
C1321 C1322 1.362 . S
C1322 H1314 0.930 . S
C1322 C1321 1.362 . S
C1322 C1325 1.409 . S
C1323 H1315 0.930 . S
C1323 C1324 1.355 . S
C1323 C1325 1.415 . S
C1324 C1323 1.355 . S
C1324 C1326 1.419 . S
C1325 C1320 1.425 . S
C1325 C1322 1.409 . S
C1325 C1323 1.415 . S
C1326 H1316 0.930 . S
C1326 C1324 1.419 . S
C1326 C1327 1.362 . S
C1327 H1317 0.930 . S
C1327 C1320 1.409 . S
C1327 C1326 1.362 . S
H1328 C1334 0.930 . S
H1329 C1337 0.930 . S
H1330 C1338 0.930 . S
H1331 C1339 0.930 . S
H1332 C1342 0.930 . S
H1333 C1343 0.930 . S
C1334 H1328 0.930 . S
C1334 C1335 1.355 . S
C1334 C1336 1.415 . S
C1335 C1334 1.355 . S
C1335 C1337 1.419 . S
C1336 C1334 1.415 . S
C1336 C1341 1.425 . S
C1336 C1343 1.409 . S
C1337 H1329 0.930 . S
C1337 C1335 1.419 . S
C1337 C1338 1.362 . S
C1338 H1330 0.930 . S
C1338 C1337 1.362 . S
C1338 C1341 1.409 . S
C1339 H1331 0.930 . S
C1339 C1340 1.355 . S
C1339 C1341 1.415 . S
C1340 C1339 1.355 . S
C1340 C1342 1.419 . S
C1341 C1336 1.425 . S
C1341 C1338 1.409 . S
C1341 C1339 1.415 . S
C1342 H1332 0.930 . S
C1342 C1340 1.419 . S
C1342 C1343 1.362 . S
C1343 H1333 0.930 . S
C1343 C1336 1.409 . S
C1343 C1342 1.362 . S
H1344 C1350 0.930 . S
H1345 C1353 0.930 . S
H1346 C1354 0.930 . S
H1347 C1355 0.930 . S
H1348 C1358 0.930 . S
H1349 C1359 0.930 . S
C1350 H1344 0.930 . S
C1350 C1351 1.355 . S
C1350 C1352 1.415 . S
C1351 C1350 1.355 . S
C1351 C1353 1.419 . S
C1352 C1350 1.415 . S
C1352 C1357 1.425 . S
C1352 C1359 1.409 . S
C1353 H1345 0.930 . S
C1353 C1351 1.419 . S
C1353 C1354 1.362 . S
C1354 H1346 0.930 . S
C1354 C1353 1.362 . S
C1354 C1357 1.409 . S
C1355 H1347 0.930 . S
C1355 C1356 1.355 . S
C1355 C1357 1.415 . S
C1356 C1355 1.355 . S
C1356 C1358 1.419 . S
C1357 C1352 1.425 . S
C1357 C1354 1.409 . S
C1357 C1355 1.415 . S
C1358 H1348 0.930 . S
C1358 C1356 1.419 . S
C1358 C1359 1.362 . S
C1359 H1349 0.930 . S
C1359 C1352 1.409 . S
C1359 C1358 1.362 . S
H1360 C1366 0.930 . S
H1361 C1369 0.930 . S
H1362 C1370 0.932 . S
H1363 C1371 0.930 . S
H1364 C1374 0.930 . S
H1365 C1375 0.930 . S
C1366 H1360 0.930 . S
C1366 C1367 1.355 1_455 S
C1366 C1368 1.415 . S
C1367 C1366 1.355 1_655 S
C1367 C1369 1.419 . S
C1368 C1366 1.415 . S
C1368 C1373 1.425 . S
C1368 C1375 1.409 . S
C1369 H1361 0.930 . S
C1369 C1367 1.419 . S
C1369 C1370 1.362 1_655 S
C1370 H1362 0.932 . S
C1370 C1369 1.362 1_455 S
C1370 C1373 1.409 . S
C1371 H1363 0.930 . S
C1371 C1372 1.355 . S
C1371 C1373 1.415 . S
C1372 C1371 1.355 . S
C1372 C1374 1.419 . S
C1373 C1368 1.425 . S
C1373 C1370 1.409 . S
C1373 C1371 1.415 . S
C1374 H1364 0.930 . S
C1374 C1372 1.419 . S
C1374 C1375 1.362 . S
C1375 H1365 0.930 . S
C1375 C1368 1.409 . S
C1375 C1374 1.362 . S
H1376 C1382 0.930 . S
H1377 C1385 0.930 . S
H1378 C1386 0.930 . S
H1379 C1387 0.930 . S
H1380 C1390 0.930 . S
H1381 C1391 0.930 . S
C1382 H1376 0.930 . S
C1382 C1383 1.355 . S
C1382 C1384 1.415 . S
C1383 C1382 1.355 . S
C1383 C1385 1.419 . S
C1384 C1382 1.415 . S
C1384 C1389 1.425 . S
C1384 C1391 1.409 . S
C1385 H1377 0.930 . S
C1385 C1383 1.419 . S
C1385 C1386 1.362 . S
C1386 H1378 0.930 . S
C1386 C1385 1.362 . S
C1386 C1389 1.409 . S
C1387 H1379 0.930 . S
C1387 C1388 1.355 . S
C1387 C1389 1.415 . S
C1388 C1387 1.355 . S
C1388 C1390 1.419 . S
C1389 C1384 1.425 . S
C1389 C1386 1.409 . S
C1389 C1387 1.415 . S
C1390 H1380 0.930 . S
C1390 C1388 1.419 . S
C1390 C1391 1.362 . S
C1391 H1381 0.930 . S
C1391 C1384 1.409 . S
C1391 C1390 1.362 . S
H1392 C1398 0.930 . S
H1393 C1401 0.930 . S
H1394 C1402 0.930 . S
H1395 C1403 0.930 . S
H1396 C1406 0.930 . S
H1397 C1407 0.930 . S
C1398 H1392 0.930 . S
C1398 C1399 1.355 . S
C1398 C1400 1.415 . S
C1399 C1398 1.355 . S
C1399 C1401 1.419 . S
C1400 C1398 1.415 . S
C1400 C1405 1.425 . S
C1400 C1407 1.409 . S
C1401 H1393 0.930 . S
C1401 C1399 1.419 . S
C1401 C1402 1.362 . S
C1402 H1394 0.930 . S
C1402 C1401 1.362 . S
C1402 C1405 1.409 . S
C1403 H1395 0.930 . S
C1403 C1404 1.355 1_455 S
C1403 C1405 1.415 . S
C1404 C1403 1.355 1_655 S
C1404 C1406 1.419 . S
C1405 C1400 1.425 . S
C1405 C1402 1.409 . S
C1405 C1403 1.415 . S
C1406 H1396 0.930 . S
C1406 C1404 1.419 . S
C1406 C1407 1.362 1_655 S
C1407 H1397 0.930 . S
C1407 C1400 1.409 . S
C1407 C1406 1.362 1_455 S
H1408 C1414 0.930 . S
H1409 C1417 0.930 . S
H1410 C1418 0.930 . S
H1411 C1419 0.930 . S
H1412 C1422 0.930 . S
H1413 C1423 0.930 . S
C1414 H1408 0.930 . S
C1414 C1415 1.355 . S
C1414 C1416 1.415 . S
C1415 C1414 1.355 . S
C1415 C1417 1.419 . S
C1416 C1414 1.415 . S
C1416 C1421 1.425 . S
C1416 C1423 1.409 . S
C1417 H1409 0.930 . S
C1417 C1415 1.419 . S
C1417 C1418 1.362 . S
C1418 H1410 0.930 . S
C1418 C1417 1.362 . S
C1418 C1421 1.409 . S
C1419 H1411 0.930 . S
C1419 C1420 1.355 . S
C1419 C1421 1.415 . S
C1420 C1419 1.355 . S
C1420 C1422 1.419 . S
C1421 C1416 1.425 . S
C1421 C1418 1.409 . S
C1421 C1419 1.415 . S
C1422 H1412 0.930 . S
C1422 C1420 1.419 . S
C1422 C1423 1.362 . S
C1423 H1413 0.930 . S
C1423 C1416 1.409 . S
C1423 C1422 1.362 . S
H1424 C1430 0.930 . S
H1425 C1433 0.930 . S
H1426 C1434 0.930 . S
H1427 C1435 0.930 . S
H1428 C1438 0.930 . S
H1429 C1439 0.930 . S
C1430 H1424 0.930 . S
C1430 C1431 1.355 . S
C1430 C1432 1.415 . S
C1431 C1430 1.355 . S
C1431 C1433 1.419 . S
C1432 C1430 1.415 . S
C1432 C1437 1.425 . S
C1432 C1439 1.409 . S
C1433 H1425 0.930 . S
C1433 C1431 1.419 . S
C1433 C1434 1.362 . S
C1434 H1426 0.930 . S
C1434 C1433 1.362 . S
C1434 C1437 1.409 . S
C1435 H1427 0.930 . S
C1435 C1436 1.355 . S
C1435 C1437 1.415 . S
C1436 C1435 1.355 . S
C1436 C1438 1.419 . S
C1437 C1432 1.425 . S
C1437 C1434 1.409 . S
C1437 C1435 1.415 . S
C1438 H1428 0.930 . S
C1438 C1436 1.419 . S
C1438 C1439 1.362 . S
C1439 H1429 0.930 . S
C1439 C1432 1.409 . S
C1439 C1438 1.362 . S
H1440 C1446 0.930 . S
H1441 C1449 0.930 . S
H1442 C1450 0.930 . S
H1443 C1451 0.930 . S
H1444 C1454 0.930 . S
H1445 C1455 0.930 . S
C1446 H1440 0.930 . S
C1446 C1447 1.355 . S
C1446 C1448 1.415 . S
C1447 C1446 1.355 . S
C1447 C1449 1.419 . S
C1448 C1446 1.415 . S
C1448 C1453 1.425 . S
C1448 C1455 1.409 . S
C1449 H1441 0.930 . S
C1449 C1447 1.419 . S
C1449 C1450 1.362 . S
C1450 H1442 0.930 . S
C1450 C1449 1.362 . S
C1450 C1453 1.409 . S
C1451 H1443 0.930 . S
C1451 C1452 1.355 . S
C1451 C1453 1.415 . S
C1452 C1451 1.355 . S
C1452 C1454 1.419 . S
C1453 C1448 1.425 . S
C1453 C1450 1.409 . S
C1453 C1451 1.415 . S
C1454 H1444 0.930 . S
C1454 C1452 1.419 . S
C1454 C1455 1.362 . S
C1455 H1445 0.930 . S
C1455 C1448 1.409 . S
C1455 C1454 1.362 . S
H1456 C1462 0.930 . S
H1457 C1465 0.930 . S
H1458 C1466 0.930 . S
H1459 C1467 0.930 . S
H1460 C1470 0.930 . S
H1461 C1471 0.930 . S
C1462 H1456 0.930 . S
C1462 C1463 1.355 . S
C1462 C1464 1.415 . S
C1463 C1462 1.355 . S
C1463 C1465 1.419 . S
C1464 C1462 1.415 . S
C1464 C1469 1.425 . S
C1464 C1471 1.409 . S
C1465 H1457 0.930 . S
C1465 C1463 1.419 . S
C1465 C1466 1.362 . S
C1466 H1458 0.930 . S
C1466 C1465 1.362 . S
C1466 C1469 1.409 . S
C1467 H1459 0.930 . S
C1467 C1468 1.355 . S
C1467 C1469 1.415 . S
C1468 C1467 1.355 . S
C1468 C1470 1.419 . S
C1469 C1464 1.425 . S
C1469 C1466 1.409 . S
C1469 C1467 1.415 . S
C1470 H1460 0.930 . S
C1470 C1468 1.419 . S
C1470 C1471 1.362 . S
C1471 H1461 0.930 . S
C1471 C1464 1.409 . S
C1471 C1470 1.362 . S
H1472 C1478 0.930 . S
H1473 C1481 0.930 . S
H1474 C1482 0.930 . S
H1475 C1483 0.930 . S
H1476 C1486 0.930 . S
H1477 C1487 0.930 . S
C1478 H1472 0.930 . S
C1478 C1479 1.355 . S
C1478 C1480 1.415 . S
C1479 C1478 1.355 . S
C1479 C1481 1.419 . S
C1480 C1478 1.415 . S
C1480 C1485 1.425 . S
C1480 C1487 1.409 . S
C1481 H1473 0.930 . S
C1481 C1479 1.419 . S
C1481 C1482 1.362 . S
C1482 H1474 0.930 . S
C1482 C1481 1.362 . S
C1482 C1485 1.409 . S
C1483 H1475 0.930 . S
C1483 C1484 1.355 . S
C1483 C1485 1.415 . S
C1484 C1483 1.355 . S
C1484 C1486 1.419 . S
C1485 C1480 1.425 . S
C1485 C1482 1.409 . S
C1485 C1483 1.415 . S
C1486 H1476 0.930 . S
C1486 C1484 1.419 . S
C1486 C1487 1.362 . S
C1487 H1477 0.930 . S
C1487 C1480 1.409 . S
C1487 C1486 1.362 . S
H1488 C1494 0.930 . S
H1489 C1497 0.930 . S
H1490 C1498 0.930 . S
H1491 C1499 0.930 . S
H1492 C1502 0.930 . S
H1493 C1503 0.930 . S
C1494 H1488 0.930 . S
C1494 C1495 1.355 . S
C1494 C1496 1.415 . S
C1495 C1494 1.355 . S
C1495 C1497 1.419 . S
C1496 C1494 1.415 . S
C1496 C1501 1.425 . S
C1496 C1503 1.409 . S
C1497 H1489 0.930 . S
C1497 C1495 1.419 . S
C1497 C1498 1.362 . S
C1498 H1490 0.930 . S
C1498 C1497 1.362 . S
C1498 C1501 1.409 . S
C1499 H1491 0.930 . S
C1499 C1500 1.355 1_655 S
C1499 C1501 1.415 . S
C1500 C1499 1.355 1_455 S
C1500 C1502 1.419 . S
C1501 C1496 1.425 . S
C1501 C1498 1.409 . S
C1501 C1499 1.415 . S
C1502 H1492 0.930 . S
C1502 C1500 1.419 . S
C1502 C1503 1.362 1_455 S
C1503 H1493 0.930 . S
C1503 C1496 1.409 . S
C1503 C1502 1.362 1_655 S
H1504 C1510 0.930 . S
H1505 C1513 0.930 . S
H1506 C1514 0.930 . S
H1507 C1515 0.930 . S
H1508 C1518 0.930 . S
H1509 C1519 0.930 . S
C1510 H1504 0.930 . S
C1510 C1511 1.355 . S
C1510 C1512 1.415 . S
C1511 C1510 1.355 . S
C1511 C1513 1.419 . S
C1512 C1510 1.415 . S
C1512 C1517 1.425 . S
C1512 C1519 1.409 . S
C1513 H1505 0.930 . S
C1513 C1511 1.419 . S
C1513 C1514 1.362 . S
C1514 H1506 0.930 . S
C1514 C1513 1.362 . S
C1514 C1517 1.409 . S
C1515 H1507 0.930 . S
C1515 C1516 1.355 . S
C1515 C1517 1.415 . S
C1516 C1515 1.355 . S
C1516 C1518 1.419 . S
C1517 C1512 1.425 . S
C1517 C1514 1.409 . S
C1517 C1515 1.415 . S
C1518 H1508 0.930 . S
C1518 C1516 1.419 . S
C1518 C1519 1.362 . S
C1519 H1509 0.930 . S
C1519 C1512 1.409 . S
C1519 C1518 1.362 . S
H1520 C1526 0.930 . S
H1521 C1529 0.930 . S
H1522 C1530 0.930 . S
H1523 C1531 0.930 . S
H1524 C1534 0.919 1_455 S
H1525 C1535 0.930 . S
C1526 H1520 0.930 . S
C1526 C1527 1.355 . S
C1526 C1528 1.415 . S
C1527 C1526 1.355 . S
C1527 C1529 1.419 . S
C1528 C1526 1.415 . S
C1528 C1533 1.425 . S
C1528 C1535 1.409 . S
C1529 H1521 0.930 . S
C1529 C1527 1.419 . S
C1529 C1530 1.362 . S
C1530 H1522 0.930 . S
C1530 C1529 1.362 . S
C1530 C1533 1.409 . S
C1531 H1523 0.930 . S
C1531 C1532 1.355 . S
C1531 C1533 1.415 1_455 S
C1532 C1531 1.355 . S
C1532 C1534 1.419 1_455 S
C1533 C1528 1.425 . S
C1533 C1530 1.409 . S
C1533 C1531 1.415 1_655 S
C1534 H1524 0.919 1_655 S
C1534 C1532 1.419 1_655 S
C1534 C1535 1.362 . S
C1535 H1525 0.930 . S
C1535 C1528 1.409 . S
C1535 C1534 1.362 . S
H1536 C1542 0.930 . S
H1537 C1545 0.930 . S
H1538 C1546 0.930 . S
H1539 C1547 0.930 . S
H1540 C1550 0.930 . S
H1541 C1551 0.930 . S
C1542 H1536 0.930 . S
C1542 C1543 1.355 . S
C1542 C1544 1.415 . S
C1543 C1542 1.355 . S
C1543 C1545 1.419 . S
C1544 C1542 1.415 . S
C1544 C1549 1.425 . S
C1544 C1551 1.409 . S
C1545 H1537 0.930 . S
C1545 C1543 1.419 . S
C1545 C1546 1.362 . S
C1546 H1538 0.930 . S
C1546 C1545 1.362 . S
C1546 C1549 1.409 . S
C1547 H1539 0.930 . S
C1547 C1548 1.355 . S
C1547 C1549 1.415 . S
C1548 C1547 1.355 . S
C1548 C1550 1.419 . S
C1549 C1544 1.425 . S
C1549 C1546 1.409 . S
C1549 C1547 1.415 . S
C1550 H1540 0.930 . S
C1550 C1548 1.419 . S
C1550 C1551 1.362 . S
C1551 H1541 0.930 . S
C1551 C1544 1.409 . S
C1551 C1550 1.362 . S
H1552 C1558 0.930 . S
H1553 C1561 0.930 . S
H1554 C1562 0.930 . S
H1555 C1563 0.930 . S
H1556 C1566 0.930 . S
H1557 C1567 0.930 . S
C1558 H1552 0.930 . S
C1558 C1559 1.355 . S
C1558 C1560 1.415 . S
C1559 C1558 1.355 . S
C1559 C1561 1.419 . S
C1560 C1558 1.415 . S
C1560 C1565 1.425 . S
C1560 C1567 1.409 . S
C1561 H1553 0.930 . S
C1561 C1559 1.419 . S
C1561 C1562 1.362 . S
C1562 H1554 0.930 . S
C1562 C1561 1.362 . S
C1562 C1565 1.409 . S
C1563 H1555 0.930 . S
C1563 C1564 1.355 . S
C1563 C1565 1.415 . S
C1564 C1563 1.355 . S
C1564 C1566 1.419 . S
C1565 C1560 1.425 . S
C1565 C1562 1.409 . S
C1565 C1563 1.415 . S
C1566 H1556 0.930 . S
C1566 C1564 1.419 . S
C1566 C1567 1.362 . S
C1567 H1557 0.930 . S
C1567 C1560 1.409 . S
C1567 C1566 1.362 . S
H1568 C1574 0.930 . S
H1569 C1577 0.933 . S
H1570 C1578 0.930 . S
H1571 C1579 0.930 . S
H1572 C1582 0.933 . S
H1573 C1583 0.930 . S
C1574 H1568 0.930 . S
C1574 C1575 1.355 . S
C1574 C1576 1.415 . S
C1575 C1574 1.355 . S
C1575 C1577 1.408 1_545 S
C1576 C1574 1.415 . S
C1576 C1581 1.425 1_545 S
C1576 C1583 1.409 . S
C1577 H1569 0.933 . S
C1577 C1575 1.408 1_565 S
C1577 C1578 1.370 . S
C1578 H1570 0.930 . S
C1578 C1577 1.370 . S
C1578 C1581 1.409 . S
C1579 H1571 0.930 . S
C1579 C1580 1.355 . S
C1579 C1581 1.415 . S
C1580 C1579 1.355 . S
C1580 C1582 1.408 1_565 S
C1581 C1576 1.425 1_565 S
C1581 C1578 1.409 . S
C1581 C1579 1.415 . S
C1582 H1572 0.933 . S
C1582 C1580 1.408 1_545 S
C1582 C1583 1.370 . S
C1583 H1573 0.930 . S
C1583 C1576 1.409 . S
C1583 C1582 1.370 . S
H1584 C1590 0.930 . S
H1585 C1593 0.930 . S
H1586 C1594 0.930 . S
H1587 C1595 0.930 . S
H1588 C1598 0.930 . S
H1589 C1599 0.930 . S
C1590 H1584 0.930 . S
C1590 C1591 1.355 . S
C1590 C1592 1.415 . S
C1591 C1590 1.355 . S
C1591 C1593 1.419 . S
C1592 C1590 1.415 . S
C1592 C1597 1.425 . S
C1592 C1599 1.409 . S
C1593 H1585 0.930 . S
C1593 C1591 1.419 . S
C1593 C1594 1.362 . S
C1594 H1586 0.930 . S
C1594 C1593 1.362 . S
C1594 C1597 1.409 . S
C1595 H1587 0.930 . S
C1595 C1596 1.355 . S
C1595 C1597 1.415 . S
C1596 C1595 1.355 . S
C1596 C1598 1.419 . S
C1597 C1592 1.425 . S
C1597 C1594 1.409 . S
C1597 C1595 1.415 . S
C1598 H1588 0.930 . S
C1598 C1596 1.419 . S
C1598 C1599 1.362 . S
C1599 H1589 0.930 . S
C1599 C1592 1.409 . S
C1599 C1598 1.362 . S
H1600 C1606 0.930 . S
H1601 C1609 0.930 . S
H1602 C1610 0.930 . S
H1603 C1611 0.930 . S
H1604 C1614 0.930 . S
H1605 C1615 0.930 . S
C1606 H1600 0.930 . S
C1606 C1607 1.355 . S
C1606 C1608 1.415 1_545 S
C1607 C1606 1.355 . S
C1607 C1609 1.419 . S
C1608 C1606 1.415 1_565 S
C1608 C1613 1.425 1_565 S
C1608 C1615 1.409 . S
C1609 H1601 0.930 . S
C1609 C1607 1.419 . S
C1609 C1610 1.362 . S
C1610 H1602 0.930 . S
C1610 C1609 1.362 . S
C1610 C1613 1.409 . S
C1611 H1603 0.930 . S
C1611 C1612 1.355 . S
C1611 C1613 1.415 1_565 S
C1612 C1611 1.355 . S
C1612 C1614 1.419 . S
C1613 C1608 1.425 1_545 S
C1613 C1610 1.409 . S
C1613 C1611 1.415 1_545 S
C1614 H1604 0.930 . S
C1614 C1612 1.419 . S
C1614 C1615 1.362 . S
C1615 H1605 0.930 . S
C1615 C1608 1.409 . S
C1615 C1614 1.362 . S
H1616 C1622 0.930 . S
H1617 C1625 0.930 . S
H1618 C1626 0.930 . S
H1619 C1627 0.930 . S
H1620 C1630 0.930 . S
H1621 C1631 0.930 . S
C1622 H1616 0.930 . S
C1622 C1623 1.355 . S
C1622 C1624 1.405 1_554 S
C1623 C1622 1.355 . S
C1623 C1625 1.419 . S
C1624 C1622 1.405 1_556 S
C1624 C1629 1.425 1_556 S
C1624 C1631 1.419 . S
C1625 H1617 0.930 . S
C1625 C1623 1.419 . S
C1625 C1626 1.362 . S
C1626 H1618 0.930 . S
C1626 C1625 1.362 . S
C1626 C1629 1.419 . S
C1627 H1619 0.930 . S
C1627 C1628 1.355 . S
C1627 C1629 1.405 1_556 S
C1628 C1627 1.355 . S
C1628 C1630 1.419 . S
C1629 C1624 1.425 1_554 S
C1629 C1626 1.419 . S
C1629 C1627 1.405 1_554 S
C1630 H1620 0.930 . S
C1630 C1628 1.419 . S
C1630 C1631 1.362 . S
C1631 H1621 0.930 . S
C1631 C1624 1.419 . S
C1631 C1630 1.362 . S
H1632 C1638 0.930 . S
H1633 C1641 0.930 . S
H1634 C1642 0.930 . S
H1635 C1643 0.930 . S
H1636 C1646 0.930 . S
H1637 C1647 0.930 . S
C1638 H1632 0.930 . S
C1638 C1639 1.355 . S
C1638 C1640 1.415 . S
C1639 C1638 1.355 . S
C1639 C1641 1.419 . S
C1640 C1638 1.415 . S
C1640 C1645 1.425 1_565 S
C1640 C1647 1.409 . S
C1641 H1633 0.930 . S
C1641 C1639 1.419 . S
C1641 C1642 1.362 1_565 S
C1642 H1634 0.930 . S
C1642 C1641 1.362 1_545 S
C1642 C1645 1.409 . S
C1643 H1635 0.930 . S
C1643 C1644 1.355 . S
C1643 C1645 1.415 . S
C1644 C1643 1.355 . S
C1644 C1646 1.419 . S
C1645 C1640 1.425 1_545 S
C1645 C1642 1.409 . S
C1645 C1643 1.415 . S
C1646 H1636 0.930 . S
C1646 C1644 1.419 . S
C1646 C1647 1.362 1_545 S
C1647 H1637 0.930 . S
C1647 C1640 1.409 . S
C1647 C1646 1.362 1_565 S
H1648 C1654 0.930 . S
H1649 C1657 0.930 . S
H1650 C1658 0.930 . S
H1651 C1659 0.930 . S
H1652 C1662 0.930 . S
H1653 C1663 0.930 . S
C1654 H1648 0.930 . S
C1654 C1655 1.355 . S
C1654 C1656 1.415 . S
C1655 C1654 1.355 . S
C1655 C1657 1.419 . S
C1656 C1654 1.415 . S
C1656 C1661 1.425 . S
C1656 C1663 1.409 . S
C1657 H1649 0.930 . S
C1657 C1655 1.419 . S
C1657 C1658 1.362 . S
C1658 H1650 0.930 . S
C1658 C1657 1.362 . S
C1658 C1661 1.409 . S
C1659 H1651 0.930 . S
C1659 C1660 1.355 . S
C1659 C1661 1.415 . S
C1660 C1659 1.355 . S
C1660 C1662 1.419 . S
C1661 C1656 1.425 . S
C1661 C1658 1.409 . S
C1661 C1659 1.415 . S
C1662 H1652 0.930 . S
C1662 C1660 1.419 . S
C1662 C1663 1.362 . S
C1663 H1653 0.930 . S
C1663 C1656 1.409 . S
C1663 C1662 1.362 . S
H1664 C1670 0.930 . S
H1665 C1673 0.930 . S
H1666 C1674 0.930 . S
H1667 C1675 0.930 . S
H1668 C1678 0.930 . S
H1669 C1679 0.930 . S
C1670 H1664 0.930 . S
C1670 C1671 1.355 . S
C1670 C1672 1.415 1_545 S
C1671 C1670 1.355 . S
C1671 C1673 1.419 . S
C1672 C1670 1.415 1_565 S
C1672 C1677 1.425 1_565 S
C1672 C1679 1.409 . S
C1673 H1665 0.930 . S
C1673 C1671 1.419 . S
C1673 C1674 1.362 . S
C1674 H1666 0.930 . S
C1674 C1673 1.362 . S
C1674 C1677 1.409 . S
C1675 H1667 0.930 . S
C1675 C1676 1.355 . S
C1675 C1677 1.415 1_565 S
C1676 C1675 1.355 . S
C1676 C1678 1.419 . S
C1677 C1672 1.425 1_545 S
C1677 C1674 1.409 . S
C1677 C1675 1.415 1_545 S
C1678 H1668 0.930 . S
C1678 C1676 1.419 . S
C1678 C1679 1.362 . S
C1679 H1669 0.930 . S
C1679 C1672 1.409 . S
C1679 C1678 1.362 . S
H1680 C1686 0.930 . S
H1681 C1689 0.930 . S
H1682 C1690 0.930 . S
H1683 C1691 0.930 . S
H1684 C1694 0.930 . S
H1685 C1695 0.930 . S
C1686 H1680 0.930 . S
C1686 C1687 1.355 . S
C1686 C1688 1.374 1_556 S
C1687 C1686 1.355 . S
C1687 C1689 1.419 . S
C1688 C1686 1.374 1_554 S
C1688 C1693 1.420 1_554 S
C1688 C1695 1.456 . S
C1689 H1681 0.930 . S
C1689 C1687 1.419 . S
C1689 C1690 1.362 . S
C1690 H1682 0.930 . S
C1690 C1689 1.362 . S
C1690 C1693 1.456 . S
C1691 H1683 0.930 . S
C1691 C1692 1.355 . S
C1691 C1693 1.374 1_554 S
C1692 C1691 1.355 . S
C1692 C1694 1.419 . S
C1693 C1688 1.420 1_556 S
C1693 C1690 1.456 . S
C1693 C1691 1.374 1_556 S
C1694 H1684 0.930 . S
C1694 C1692 1.419 . S
C1694 C1695 1.362 . S
C1695 H1685 0.930 . S
C1695 C1688 1.456 . S
C1695 C1694 1.362 . S
H1696 C1702 0.930 . S
H1697 C1705 0.930 . S
H1698 C1706 0.930 . S
H1699 C1707 0.930 . S
H1700 C1710 0.930 . S
H1701 C1711 0.930 . S
C1702 H1696 0.930 . S
C1702 C1703 1.355 . S
C1702 C1704 1.415 . S
C1703 C1702 1.355 . S
C1703 C1705 1.419 . S
C1704 C1702 1.415 . S
C1704 C1709 1.425 . S
C1704 C1711 1.409 . S
C1705 H1697 0.930 . S
C1705 C1703 1.419 . S
C1705 C1706 1.362 . S
C1706 H1698 0.930 . S
C1706 C1705 1.362 . S
C1706 C1709 1.409 . S
C1707 H1699 0.930 . S
C1707 C1708 1.355 . S
C1707 C1709 1.415 . S
C1708 C1707 1.355 . S
C1708 C1710 1.419 . S
C1709 C1704 1.425 . S
C1709 C1706 1.409 . S
C1709 C1707 1.415 . S
C1710 H1700 0.930 . S
C1710 C1708 1.419 . S
C1710 C1711 1.362 . S
C1711 H1701 0.930 . S
C1711 C1704 1.409 . S
C1711 C1710 1.362 . S
H1712 C1718 0.930 . S
H1713 C1721 0.930 . S
H1714 C1722 0.930 . S
H1715 C1723 0.930 . S
H1716 C1726 0.930 . S
H1717 C1727 0.930 . S
C1718 H1712 0.930 . S
C1718 C1719 1.355 . S
C1718 C1720 1.421 . S
C1719 C1718 1.355 . S
C1719 C1721 1.419 . S
C1720 C1718 1.421 . S
C1720 C1725 1.425 1_556 S
C1720 C1727 1.403 1_556 S
C1721 H1713 0.930 . S
C1721 C1719 1.419 . S
C1721 C1722 1.362 . S
C1722 H1714 0.930 . S
C1722 C1721 1.362 . S
C1722 C1725 1.403 1_556 S
C1723 H1715 0.930 . S
C1723 C1724 1.355 . S
C1723 C1725 1.421 . S
C1724 C1723 1.355 . S
C1724 C1726 1.419 . S
C1725 C1720 1.425 1_554 S
C1725 C1722 1.403 1_554 S
C1725 C1723 1.421 . S
C1726 H1716 0.930 . S
C1726 C1724 1.419 . S
C1726 C1727 1.362 . S
C1727 H1717 0.930 . S
C1727 C1720 1.403 1_554 S
C1727 C1726 1.362 . S
H1728 C1734 0.930 . S
H1729 C1737 0.930 . S
H1730 C1738 0.930 . S
H1731 C1739 0.930 . S
H1732 C1742 0.930 . S
H1733 C1743 0.930 . S
C1734 H1728 0.930 . S
C1734 C1735 1.355 . S
C1734 C1736 1.415 . S
C1735 C1734 1.355 . S
C1735 C1737 1.419 . S
C1736 C1734 1.415 . S
C1736 C1741 1.425 . S
C1736 C1743 1.409 . S
C1737 H1729 0.930 . S
C1737 C1735 1.419 . S
C1737 C1738 1.362 . S
C1738 H1730 0.930 . S
C1738 C1737 1.362 . S
C1738 C1741 1.409 . S
C1739 H1731 0.930 . S
C1739 C1740 1.355 . S
C1739 C1741 1.415 . S
C1740 C1739 1.355 . S
C1740 C1742 1.419 . S
C1741 C1736 1.425 . S
C1741 C1738 1.409 . S
C1741 C1739 1.415 . S
C1742 H1732 0.930 . S
C1742 C1740 1.419 . S
C1742 C1743 1.362 . S
C1743 H1733 0.930 . S
C1743 C1736 1.409 . S
C1743 C1742 1.362 . S
H1744 C1750 0.930 . S
H1745 C1753 0.930 . S
H1746 C1754 0.930 . S
H1747 C1755 0.930 . S
H1748 C1758 0.930 . S
H1749 C1759 0.930 . S
C1750 H1744 0.930 . S
C1750 C1751 1.355 . S
C1750 C1752 1.415 . S
C1751 C1750 1.355 . S
C1751 C1753 1.419 . S
C1752 C1750 1.415 . S
C1752 C1757 1.425 . S
C1752 C1759 1.409 . S
C1753 H1745 0.930 . S
C1753 C1751 1.419 . S
C1753 C1754 1.362 . S
C1754 H1746 0.930 . S
C1754 C1753 1.362 . S
C1754 C1757 1.409 . S
C1755 H1747 0.930 . S
C1755 C1756 1.355 . S
C1755 C1757 1.415 . S
C1756 C1755 1.355 . S
C1756 C1758 1.419 . S
C1757 C1752 1.425 . S
C1757 C1754 1.409 . S
C1757 C1755 1.415 . S
C1758 H1748 0.930 . S
C1758 C1756 1.419 . S
C1758 C1759 1.362 . S
C1759 H1749 0.930 . S
C1759 C1752 1.409 . S
C1759 C1758 1.362 . S
H1760 C1766 0.930 . S
H1761 C1769 0.930 . S
H1762 C1770 0.930 . S
H1763 C1771 0.930 . S
H1764 C1774 0.930 . S
H1765 C1775 0.930 . S
C1766 H1760 0.930 . S
C1766 C1767 1.355 . S
C1766 C1768 1.415 . S
C1767 C1766 1.355 . S
C1767 C1769 1.419 . S
C1768 C1766 1.415 . S
C1768 C1773 1.425 . S
C1768 C1775 1.409 . S
C1769 H1761 0.930 . S
C1769 C1767 1.419 . S
C1769 C1770 1.362 . S
C1770 H1762 0.930 . S
C1770 C1769 1.362 . S
C1770 C1773 1.409 . S
C1771 H1763 0.930 . S
C1771 C1772 1.355 . S
C1771 C1773 1.415 . S
C1772 C1771 1.355 . S
C1772 C1774 1.419 . S
C1773 C1768 1.425 . S
C1773 C1770 1.409 . S
C1773 C1771 1.415 . S
C1774 H1764 0.930 . S
C1774 C1772 1.419 . S
C1774 C1775 1.362 . S
C1775 H1765 0.930 . S
C1775 C1768 1.409 . S
C1775 C1774 1.362 . S
H1776 C1782 0.930 . S
H1777 C1785 0.930 . S
H1778 C1786 0.924 1_554 S
H1779 C1787 0.930 . S
H1780 C1790 0.930 . S
H1781 C1791 0.924 1_556 S
C1782 H1776 0.930 . S
C1782 C1783 1.355 . S
C1782 C1784 1.415 . S
C1783 C1782 1.355 . S
C1783 C1785 1.419 . S
C1784 C1782 1.415 . S
C1784 C1789 1.425 1_556 S
C1784 C1791 1.406 1_556 S
C1785 H1777 0.930 . S
C1785 C1783 1.419 . S
C1785 C1786 1.371 . S
C1786 H1778 0.924 1_556 S
C1786 C1785 1.371 . S
C1786 C1789 1.406 1_556 S
C1787 H1779 0.930 . S
C1787 C1788 1.355 . S
C1787 C1789 1.415 . S
C1788 C1787 1.355 . S
C1788 C1790 1.419 . S
C1789 C1784 1.425 1_554 S
C1789 C1786 1.406 1_554 S
C1789 C1787 1.415 . S
C1790 H1780 0.930 . S
C1790 C1788 1.419 . S
C1790 C1791 1.371 . S
C1791 H1781 0.924 1_554 S
C1791 C1784 1.406 1_554 S
C1791 C1790 1.371 . S
H1792 C1798 0.930 . S
H1793 C1801 0.930 . S
H1794 C1802 0.930 . S
H1795 C1803 0.930 . S
H1796 C1806 0.930 . S
H1797 C1807 0.930 . S
C1798 H1792 0.930 . S
C1798 C1799 1.355 . S
C1798 C1800 1.415 . S
C1799 C1798 1.355 . S
C1799 C1801 1.419 . S
C1800 C1798 1.415 . S
C1800 C1805 1.425 . S
C1800 C1807 1.409 . S
C1801 H1793 0.930 . S
C1801 C1799 1.419 . S
C1801 C1802 1.362 . S
C1802 H1794 0.930 . S
C1802 C1801 1.362 . S
C1802 C1805 1.409 . S
C1803 H1795 0.930 . S
C1803 C1804 1.355 . S
C1803 C1805 1.415 . S
C1804 C1803 1.355 . S
C1804 C1806 1.419 . S
C1805 C1800 1.425 . S
C1805 C1802 1.409 . S
C1805 C1803 1.415 . S
C1806 H1796 0.930 . S
C1806 C1804 1.419 . S
C1806 C1807 1.362 . S
C1807 H1797 0.930 . S
C1807 C1800 1.409 . S
C1807 C1806 1.362 . S
H1808 C1814 0.930 . S
H1809 C1817 0.930 . S
H1810 C1818 0.930 . S
H1811 C1819 0.930 . S
H1812 C1822 0.930 . S
H1813 C1823 0.930 . S
C1814 H1808 0.930 . S
C1814 C1815 1.355 . S
C1814 C1816 1.415 . S
C1815 C1814 1.355 . S
C1815 C1817 1.419 . S
C1816 C1814 1.415 . S
C1816 C1821 1.425 . S
C1816 C1823 1.409 . S
C1817 H1809 0.930 . S
C1817 C1815 1.419 . S
C1817 C1818 1.362 . S
C1818 H1810 0.930 . S
C1818 C1817 1.362 . S
C1818 C1821 1.409 . S
C1819 H1811 0.930 . S
C1819 C1820 1.355 . S
C1819 C1821 1.415 . S
C1820 C1819 1.355 . S
C1820 C1822 1.419 . S
C1821 C1816 1.425 . S
C1821 C1818 1.409 . S
C1821 C1819 1.415 . S
C1822 H1812 0.930 . S
C1822 C1820 1.419 . S
C1822 C1823 1.362 . S
C1823 H1813 0.930 . S
C1823 C1816 1.409 . S
C1823 C1822 1.362 . S
H1824 C1830 0.930 . S
H1825 C1833 0.930 1_565 S
H1826 C1834 0.930 . S
H1827 C1835 0.930 . S
H1828 C1838 0.930 . S
H1829 C1839 0.930 . S
C1830 H1824 0.930 . S
C1830 C1831 1.355 . S
C1830 C1832 1.415 . S
C1831 C1830 1.355 . S
C1831 C1833 1.419 . S
C1832 C1830 1.415 . S
C1832 C1837 1.425 . S
C1832 C1839 1.409 . S
C1833 H1825 0.930 1_545 S
C1833 C1831 1.419 . S
C1833 C1834 1.362 . S
C1834 H1826 0.930 . S
C1834 C1833 1.362 . S
C1834 C1837 1.409 . S
C1835 H1827 0.930 . S
C1835 C1836 1.355 . S
C1835 C1837 1.415 . S
C1836 C1835 1.355 . S
C1836 C1838 1.419 . S
C1837 C1832 1.425 . S
C1837 C1834 1.409 . S
C1837 C1835 1.415 . S
C1838 H1828 0.930 . S
C1838 C1836 1.419 . S
C1838 C1839 1.362 . S
C1839 H1829 0.930 . S
C1839 C1832 1.409 . S
C1839 C1838 1.362 . S
H1840 C1846 0.930 . S
H1841 C1849 0.930 . S
H1842 C1850 0.930 . S
H1843 C1851 0.930 . S
H1844 C1854 0.930 . S
H1845 C1855 0.930 . S
C1846 H1840 0.930 . S
C1846 C1847 1.355 . S
C1846 C1848 1.415 . S
C1847 C1846 1.355 . S
C1847 C1849 1.419 . S
C1848 C1846 1.415 . S
C1848 C1853 1.425 . S
C1848 C1855 1.409 . S
C1849 H1841 0.930 . S
C1849 C1847 1.419 . S
C1849 C1850 1.362 . S
C1850 H1842 0.930 . S
C1850 C1849 1.362 . S
C1850 C1853 1.409 . S
C1851 H1843 0.930 . S
C1851 C1852 1.355 . S
C1851 C1853 1.415 . S
C1852 C1851 1.355 . S
C1852 C1854 1.419 1_545 S
C1853 C1848 1.425 . S
C1853 C1850 1.409 . S
C1853 C1851 1.415 . S
C1854 H1844 0.930 . S
C1854 C1852 1.419 1_565 S
C1854 C1855 1.362 1_565 S
C1855 H1845 0.930 . S
C1855 C1848 1.409 . S
C1855 C1854 1.362 1_545 S
H1856 C1862 0.930 . S
H1857 C1865 0.930 . S
H1858 C1866 0.928 1_545 S
H1859 C1867 0.930 . S
H1860 C1870 0.930 . S
H1861 C1871 0.930 . S
C1862 H1856 0.930 . S
C1862 C1863 1.355 . S
C1862 C1864 1.415 . S
C1863 C1862 1.355 . S
C1863 C1865 1.419 1_565 S
C1864 C1862 1.415 . S
C1864 C1869 1.425 . S
C1864 C1871 1.409 . S
C1865 H1857 0.930 . S
C1865 C1863 1.419 1_545 S
C1865 C1866 1.360 1_545 S
C1866 H1858 0.928 1_565 S
C1866 C1865 1.360 1_565 S
C1866 C1869 1.413 . S
C1867 H1859 0.930 . S
C1867 C1868 1.355 . S
C1867 C1869 1.415 . S
C1868 C1867 1.355 . S
C1868 C1870 1.419 . S
C1869 C1864 1.425 . S
C1869 C1866 1.413 . S
C1869 C1867 1.415 . S
C1870 H1860 0.930 . S
C1870 C1868 1.419 . S
C1870 C1871 1.362 . S
C1871 H1861 0.930 . S
C1871 C1864 1.409 . S
C1871 C1870 1.362 . S
H1872 C1878 0.930 . S
H1873 C1881 0.930 . S
H1874 C1882 0.930 . S
H1875 C1883 0.930 . S
H1876 C1886 0.930 . S
H1877 C1887 0.930 1_545 S
C1878 H1872 0.930 . S
C1878 C1879 1.355 . S
C1878 C1880 1.415 . S
C1879 C1878 1.355 . S
C1879 C1881 1.419 . S
C1880 C1878 1.415 . S
C1880 C1885 1.425 . S
C1880 C1887 1.409 . S
C1881 H1873 0.930 . S
C1881 C1879 1.419 . S
C1881 C1882 1.362 . S
C1882 H1874 0.930 . S
C1882 C1881 1.362 . S
C1882 C1885 1.409 . S
C1883 H1875 0.930 . S
C1883 C1884 1.355 . S
C1883 C1885 1.415 . S
C1884 C1883 1.355 . S
C1884 C1886 1.419 1_565 S
C1885 C1880 1.425 . S
C1885 C1882 1.409 . S
C1885 C1883 1.415 . S
C1886 H1876 0.930 . S
C1886 C1884 1.419 1_545 S
C1886 C1887 1.362 1_545 S
C1887 H1877 0.930 1_565 S
C1887 C1880 1.409 . S
C1887 C1886 1.362 1_565 S
H1888 C1894 0.930 1_545 S
H1889 C1897 0.930 . S
H1890 C1898 0.930 . S
H1891 C1899 0.930 . S
H1892 C1902 0.930 . S
H1893 C1903 0.930 . S
C1894 H1888 0.930 1_565 S
C1894 C1895 1.355 . S
C1894 C1896 1.415 . S
C1895 C1894 1.355 . S
C1895 C1897 1.419 . S
C1896 C1894 1.415 . S
C1896 C1901 1.425 . S
C1896 C1903 1.409 . S
C1897 H1889 0.930 . S
C1897 C1895 1.419 . S
C1897 C1898 1.362 . S
C1898 H1890 0.930 . S
C1898 C1897 1.362 . S
C1898 C1901 1.409 . S
C1899 H1891 0.930 . S
C1899 C1900 1.355 . S
C1899 C1901 1.415 . S
C1900 C1899 1.355 . S
C1900 C1902 1.419 . S
C1901 C1896 1.425 . S
C1901 C1898 1.409 . S
C1901 C1899 1.415 . S
C1902 H1892 0.930 . S
C1902 C1900 1.419 . S
C1902 C1903 1.362 . S
C1903 H1893 0.930 . S
C1903 C1896 1.409 . S
C1903 C1902 1.362 . S
H1904 C1910 0.930 . S
H1905 C1913 0.930 . S
H1906 C1914 0.930 . S
H1907 C1915 0.930 . S
H1908 C1918 0.930 . S
H1909 C1919 0.930 . S
C1910 H1904 0.930 . S
C1910 C1911 1.355 . S
C1910 C1912 1.415 . S
C1911 C1910 1.355 . S
C1911 C1913 1.419 . S
C1912 C1910 1.415 . S
C1912 C1917 1.425 . S
C1912 C1919 1.409 . S
C1913 H1905 0.930 . S
C1913 C1911 1.419 . S
C1913 C1914 1.362 . S
C1914 H1906 0.930 . S
C1914 C1913 1.362 . S
C1914 C1917 1.409 . S
C1915 H1907 0.930 . S
C1915 C1916 1.355 . S
C1915 C1917 1.415 . S
C1916 C1915 1.355 . S
C1916 C1918 1.419 . S
C1917 C1912 1.425 . S
C1917 C1914 1.409 . S
C1917 C1915 1.415 . S
C1918 H1908 0.930 . S
C1918 C1916 1.419 . S
C1918 C1919 1.362 . S
C1919 H1909 0.930 . S
C1919 C1912 1.409 . S
C1919 C1918 1.362 . S
H1920 C1926 0.930 . S
H1921 C1929 0.930 . S
H1922 C1930 0.930 . S
H1923 C1931 0.930 1_565 S
H1924 C1934 0.930 . S
H1925 C1935 0.930 . S
C1926 H1920 0.930 . S
C1926 C1927 1.355 . S
C1926 C1928 1.415 . S
C1927 C1926 1.355 . S
C1927 C1929 1.419 . S
C1928 C1926 1.415 . S
C1928 C1933 1.425 . S
C1928 C1935 1.409 . S
C1929 H1921 0.930 . S
C1929 C1927 1.419 . S
C1929 C1930 1.362 . S
C1930 H1922 0.930 . S
C1930 C1929 1.362 . S
C1930 C1933 1.409 . S
C1931 H1923 0.930 1_545 S
C1931 C1932 1.355 . S
C1931 C1933 1.415 . S
C1932 C1931 1.355 . S
C1932 C1934 1.419 . S
C1933 C1928 1.425 . S
C1933 C1930 1.409 . S
C1933 C1931 1.415 . S
C1934 H1924 0.930 . S
C1934 C1932 1.419 . S
C1934 C1935 1.362 . S
C1935 H1925 0.930 . S
C1935 C1928 1.409 . S
C1935 C1934 1.362 . S
H1936 C1942 0.930 1_565 S
H1937 C1945 0.930 . S
H1938 C1946 0.930 . S
H1939 C1947 0.930 . S
H1940 C1950 0.930 . S
H1941 C1951 0.930 . S
C1942 H1936 0.930 1_545 S
C1942 C1943 1.355 . S
C1942 C1944 1.415 . S
C1943 C1942 1.355 . S
C1943 C1945 1.419 . S
C1944 C1942 1.415 . S
C1944 C1949 1.425 . S
C1944 C1951 1.409 . S
C1945 H1937 0.930 . S
C1945 C1943 1.419 . S
C1945 C1946 1.362 . S
C1946 H1938 0.930 . S
C1946 C1945 1.362 . S
C1946 C1949 1.409 . S
C1947 H1939 0.930 . S
C1947 C1948 1.355 . S
C1947 C1949 1.415 . S
C1948 C1947 1.355 . S
C1948 C1950 1.419 . S
C1949 C1944 1.425 . S
C1949 C1946 1.409 . S
C1949 C1947 1.415 . S
C1950 H1940 0.930 . S
C1950 C1948 1.419 . S
C1950 C1951 1.362 . S
C1951 H1941 0.930 . S
C1951 C1944 1.409 . S
C1951 C1950 1.362 . S
H1952 C1958 0.930 . S
H1953 C1961 0.930 . S
H1954 C1962 0.930 . S
H1955 C1963 0.930 . S
H1956 C1966 0.930 . S
H1957 C1967 0.930 . S
C1958 H1952 0.930 . S
C1958 C1959 1.355 . S
C1958 C1960 1.415 . S
C1959 C1958 1.355 . S
C1959 C1961 1.419 . S
C1960 C1958 1.415 . S
C1960 C1965 1.425 . S
C1960 C1967 1.409 . S
C1961 H1953 0.930 . S
C1961 C1959 1.419 . S
C1961 C1962 1.362 . S
C1962 H1954 0.930 . S
C1962 C1961 1.362 . S
C1962 C1965 1.409 . S
C1963 H1955 0.930 . S
C1963 C1964 1.355 . S
C1963 C1965 1.415 . S
C1964 C1963 1.355 . S
C1964 C1966 1.419 . S
C1965 C1960 1.425 . S
C1965 C1962 1.409 . S
C1965 C1963 1.415 . S
C1966 H1956 0.930 . S
C1966 C1964 1.419 . S
C1966 C1967 1.362 . S
C1967 H1957 0.930 . S
C1967 C1960 1.409 . S
C1967 C1966 1.362 . S
H1968 C1974 0.930 . S
H1969 C1977 0.930 . S
H1970 C1978 0.930 . S
H1971 C1979 0.930 . S
H1972 C1982 0.930 . S
H1973 C1983 0.930 . S
C1974 H1968 0.930 . S
C1974 C1975 1.355 . S
C1974 C1976 1.415 . S
C1975 C1974 1.355 . S
C1975 C1977 1.419 . S
C1976 C1974 1.415 . S
C1976 C1981 1.425 . S
C1976 C1983 1.409 . S
C1977 H1969 0.930 . S
C1977 C1975 1.419 . S
C1977 C1978 1.362 . S
C1978 H1970 0.930 . S
C1978 C1977 1.362 . S
C1978 C1981 1.409 . S
C1979 H1971 0.930 . S
C1979 C1980 1.355 . S
C1979 C1981 1.415 . S
C1980 C1979 1.355 . S
C1980 C1982 1.419 . S
C1981 C1976 1.425 . S
C1981 C1978 1.409 . S
C1981 C1979 1.415 . S
C1982 H1972 0.930 . S
C1982 C1980 1.419 . S
C1982 C1983 1.362 . S
C1983 H1973 0.930 . S
C1983 C1976 1.409 . S
C1983 C1982 1.362 . S
H1984 C1990 0.930 . S
H1985 C1993 0.930 . S
H1986 C1994 0.930 . S
H1987 C1995 0.930 . S
H1988 C1998 0.930 . S
H1989 C1999 0.930 . S
C1990 H1984 0.930 . S
C1990 C1991 1.355 . S
C1990 C1992 1.415 . S
C1991 C1990 1.355 . S
C1991 C1993 1.419 . S
C1992 C1990 1.415 . S
C1992 C1997 1.425 . S
C1992 C1999 1.409 . S
C1993 H1985 0.930 . S
C1993 C1991 1.419 . S
C1993 C1994 1.362 . S
C1994 H1986 0.930 . S
C1994 C1993 1.362 . S
C1994 C1997 1.409 . S
C1995 H1987 0.930 . S
C1995 C1996 1.355 . S
C1995 C1997 1.415 . S
C1996 C1995 1.355 . S
C1996 C1998 1.419 . S
C1997 C1992 1.425 . S
C1997 C1994 1.409 . S
C1997 C1995 1.415 . S
C1998 H1988 0.930 . S
C1998 C1996 1.419 . S
C1998 C1999 1.362 . S
C1999 H1989 0.930 . S
C1999 C1992 1.409 . S
C1999 C1998 1.362 . S
H2000 C2006 0.930 . S
H2001 C2009 0.930 . S
H2002 C2010 0.930 . S
H2003 C2011 0.930 . S
H2004 C2014 0.930 . S
H2005 C2015 0.930 . S
C2006 H2000 0.930 . S
C2006 C2007 1.355 . S
C2006 C2008 1.415 . S
C2007 C2006 1.355 . S
C2007 C2009 1.419 . S
C2008 C2006 1.415 . S
C2008 C2013 1.425 . S
C2008 C2015 1.409 . S
C2009 H2001 0.930 . S
C2009 C2007 1.419 . S
C2009 C2010 1.362 . S
C2010 H2002 0.930 . S
C2010 C2009 1.362 . S
C2010 C2013 1.409 . S
C2011 H2003 0.930 . S
C2011 C2012 1.355 . S
C2011 C2013 1.415 . S
C2012 C2011 1.355 . S
C2012 C2014 1.419 . S
C2013 C2008 1.425 . S
C2013 C2010 1.409 . S
C2013 C2011 1.415 . S
C2014 H2004 0.930 . S
C2014 C2012 1.419 . S
C2014 C2015 1.362 . S
C2015 H2005 0.930 . S
C2015 C2008 1.409 . S
C2015 C2014 1.362 . S
H2016 C2022 0.930 . S
H2017 C2025 0.930 . S
H2018 C2026 0.930 . S
H2019 C2027 0.930 . S
H2020 C2030 0.930 . S
H2021 C2031 0.930 . S
C2022 H2016 0.930 . S
C2022 C2023 1.355 . S
C2022 C2024 1.415 . S
C2023 C2022 1.355 . S
C2023 C2025 1.419 . S
C2024 C2022 1.415 . S
C2024 C2029 1.425 . S
C2024 C2031 1.409 . S
C2025 H2017 0.930 . S
C2025 C2023 1.419 . S
C2025 C2026 1.362 . S
C2026 H2018 0.930 . S
C2026 C2025 1.362 . S
C2026 C2029 1.409 . S
C2027 H2019 0.930 . S
C2027 C2028 1.355 . S
C2027 C2029 1.415 . S
C2028 C2027 1.355 . S
C2028 C2030 1.419 . S
C2029 C2024 1.425 . S
C2029 C2026 1.409 . S
C2029 C2027 1.415 . S
C2030 H2020 0.930 . S
C2030 C2028 1.419 . S
C2030 C2031 1.362 . S
C2031 H2021 0.930 . S
C2031 C2024 1.409 . S
C2031 C2030 1.362 . S
H2032 C2038 0.930 . S
H2033 C2041 0.930 . S
H2034 C2042 0.930 . S
H2035 C2043 0.930 . S
H2036 C2046 0.930 . S
H2037 C2047 0.930 . S
C2038 H2032 0.930 . S
C2038 C2039 1.355 . S
C2038 C2040 1.415 . S
C2039 C2038 1.355 . S
C2039 C2041 1.419 . S
C2040 C2038 1.415 . S
C2040 C2045 1.425 . S
C2040 C2047 1.409 . S
C2041 H2033 0.930 . S
C2041 C2039 1.419 . S
C2041 C2042 1.362 . S
C2042 H2034 0.930 . S
C2042 C2041 1.362 . S
C2042 C2045 1.409 . S
C2043 H2035 0.930 . S
C2043 C2044 1.355 . S
C2043 C2045 1.415 . S
C2044 C2043 1.355 . S
C2044 C2046 1.419 . S
C2045 C2040 1.425 . S
C2045 C2042 1.409 . S
C2045 C2043 1.415 . S
C2046 H2036 0.930 . S
C2046 C2044 1.419 . S
C2046 C2047 1.362 . S
C2047 H2037 0.930 . S
C2047 C2040 1.409 . S
C2047 C2046 1.362 . S
H2048 C2054 0.930 . S
H2049 C2057 0.930 . S
H2050 C2058 0.930 . S
H2051 C2059 0.930 . S
H2052 C2062 0.930 . S
H2053 C2063 0.930 . S
C2054 H2048 0.930 . S
C2054 C2055 1.355 . S
C2054 C2056 1.415 . S
C2055 C2054 1.355 . S
C2055 C2057 1.419 . S
C2056 C2054 1.415 . S
C2056 C2061 1.425 . S
C2056 C2063 1.409 . S
C2057 H2049 0.930 . S
C2057 C2055 1.419 . S
C2057 C2058 1.362 . S
C2058 H2050 0.930 . S
C2058 C2057 1.362 . S
C2058 C2061 1.409 . S
C2059 H2051 0.930 . S
C2059 C2060 1.355 . S
C2059 C2061 1.415 . S
C2060 C2059 1.355 . S
C2060 C2062 1.419 . S
C2061 C2056 1.425 . S
C2061 C2058 1.409 . S
C2061 C2059 1.415 . S
C2062 H2052 0.930 . S
C2062 C2060 1.419 . S
C2062 C2063 1.362 . S
C2063 H2053 0.930 . S
C2063 C2056 1.409 . S
C2063 C2062 1.362 . S
H2064 C2070 0.930 . S
H2065 C2073 0.930 . S
H2066 C2074 0.930 . S
H2067 C2075 0.930 . S
H2068 C2078 0.930 . S
H2069 C2079 0.930 . S
C2070 H2064 0.930 . S
C2070 C2071 1.355 . S
C2070 C2072 1.415 . S
C2071 C2070 1.355 . S
C2071 C2073 1.419 . S
C2072 C2070 1.415 . S
C2072 C2077 1.425 . S
C2072 C2079 1.409 . S
C2073 H2065 0.930 . S
C2073 C2071 1.419 . S
C2073 C2074 1.362 . S
C2074 H2066 0.930 . S
C2074 C2073 1.362 . S
C2074 C2077 1.409 . S
C2075 H2067 0.930 . S
C2075 C2076 1.355 . S
C2075 C2077 1.415 . S
C2076 C2075 1.355 . S
C2076 C2078 1.419 . S
C2077 C2072 1.425 . S
C2077 C2074 1.409 . S
C2077 C2075 1.415 . S
C2078 H2068 0.930 . S
C2078 C2076 1.419 . S
C2078 C2079 1.362 . S
C2079 H2069 0.930 . S
C2079 C2072 1.409 . S
C2079 C2078 1.362 . S
H2080 C2086 0.930 . S
H2081 C2089 0.930 . S
H2082 C2090 0.930 . S
H2083 C2091 0.930 . S
H2084 C2094 0.930 . S
H2085 C2095 0.930 . S
C2086 H2080 0.930 . S
C2086 C2087 1.355 . S
C2086 C2088 1.415 . S
C2087 C2086 1.355 . S
C2087 C2089 1.419 . S
C2088 C2086 1.415 . S
C2088 C2093 1.425 . S
C2088 C2095 1.409 . S
C2089 H2081 0.930 . S
C2089 C2087 1.419 . S
C2089 C2090 1.362 . S
C2090 H2082 0.930 . S
C2090 C2089 1.362 . S
C2090 C2093 1.409 . S
C2091 H2083 0.930 . S
C2091 C2092 1.355 . S
C2091 C2093 1.415 . S
C2092 C2091 1.355 . S
C2092 C2094 1.419 . S
C2093 C2088 1.425 . S
C2093 C2090 1.409 . S
C2093 C2091 1.415 . S
C2094 H2084 0.930 . S
C2094 C2092 1.419 . S
C2094 C2095 1.362 . S
C2095 H2085 0.930 . S
C2095 C2088 1.409 . S
C2095 C2094 1.362 . S
H2096 C2102 0.930 . S
H2097 C2105 0.930 . S
H2098 C2106 0.917 1_545 S
H2099 C2107 0.930 . S
H2100 C2110 0.930 . S
H2101 C2111 0.917 1_565 S
C2102 H2096 0.930 . S
C2102 C2103 1.355 . S
C2102 C2104 1.415 . S
C2103 C2102 1.355 . S
C2103 C2105 1.419 . S
C2104 C2102 1.415 . S
C2104 C2109 1.425 1_465 S
C2104 C2111 1.402 1_565 S
C2105 H2097 0.930 . S
C2105 C2103 1.419 . S
C2105 C2106 1.384 1_455 S
C2106 H2098 0.917 1_565 S
C2106 C2105 1.384 1_655 S
C2106 C2109 1.402 1_565 S
C2107 H2099 0.930 . S
C2107 C2108 1.355 . S
C2107 C2109 1.415 . S
C2108 C2107 1.355 . S
C2108 C2110 1.419 . S
C2109 C2104 1.425 1_645 S
C2109 C2106 1.402 1_545 S
C2109 C2107 1.415 . S
C2110 H2100 0.930 . S
C2110 C2108 1.419 . S
C2110 C2111 1.384 1_655 S
C2111 H2101 0.917 1_545 S
C2111 C2104 1.402 1_545 S
C2111 C2110 1.384 1_455 S
H2112 C2118 0.930 . S
H2113 C2121 0.930 . S
H2114 C2122 0.930 . S
H2115 C2123 0.930 . S
H2116 C2126 0.930 . S
H2117 C2127 0.930 . S
C2118 H2112 0.930 . S
C2118 C2119 1.355 . S
C2118 C2120 1.415 . S
C2119 C2118 1.355 . S
C2119 C2121 1.419 . S
C2120 C2118 1.415 . S
C2120 C2125 1.425 . S
C2120 C2127 1.409 . S
C2121 H2113 0.930 . S
C2121 C2119 1.419 . S
C2121 C2122 1.362 . S
C2122 H2114 0.930 . S
C2122 C2121 1.362 . S
C2122 C2125 1.409 . S
C2123 H2115 0.930 . S
C2123 C2124 1.355 . S
C2123 C2125 1.415 . S
C2124 C2123 1.355 . S
C2124 C2126 1.419 . S
C2125 C2120 1.425 . S
C2125 C2122 1.409 . S
C2125 C2123 1.415 . S
C2126 H2116 0.930 . S
C2126 C2124 1.419 . S
C2126 C2127 1.362 . S
C2127 H2117 0.930 . S
C2127 C2120 1.409 . S
C2127 C2126 1.362 . S
H2128 C2134 0.947 . S
H2129 C2137 0.930 . S
H2130 C2138 0.930 . S
H2131 C2139 0.947 . S
H2132 C2142 0.930 . S
H2133 C2143 0.930 . S
C2134 H2128 0.947 . S
C2134 C2135 1.355 . S
C2134 C2136 1.410 1_544 S
C2135 C2134 1.355 . S
C2135 C2137 1.419 . S
C2136 C2134 1.410 1_566 S
C2136 C2141 1.425 1_566 S
C2136 C2143 1.414 . S
C2137 H2129 0.930 . S
C2137 C2135 1.419 . S
C2137 C2138 1.362 . S
C2138 H2130 0.930 . S
C2138 C2137 1.362 . S
C2138 C2141 1.414 . S
C2139 H2131 0.947 . S
C2139 C2140 1.355 . S
C2139 C2141 1.410 1_566 S
C2140 C2139 1.355 . S
C2140 C2142 1.419 . S
C2141 C2136 1.425 1_544 S
C2141 C2138 1.414 . S
C2141 C2139 1.410 1_544 S
C2142 H2132 0.930 . S
C2142 C2140 1.419 . S
C2142 C2143 1.362 . S
C2143 H2133 0.930 . S
C2143 C2136 1.414 . S
C2143 C2142 1.362 . S
H2144 C2150 0.930 . S
H2145 C2153 0.930 . S
H2146 C2154 0.930 . S
H2147 C2155 0.930 . S
H2148 C2158 0.930 . S
H2149 C2159 0.930 . S
C2150 H2144 0.930 . S
C2150 C2151 1.355 . S
C2150 C2152 1.415 . S
C2151 C2150 1.355 . S
C2151 C2153 1.419 . S
C2152 C2150 1.415 . S
C2152 C2157 1.425 . S
C2152 C2159 1.409 . S
C2153 H2145 0.930 . S
C2153 C2151 1.419 . S
C2153 C2154 1.362 . S
C2154 H2146 0.930 . S
C2154 C2153 1.362 . S
C2154 C2157 1.409 . S
C2155 H2147 0.930 . S
C2155 C2156 1.355 . S
C2155 C2157 1.415 . S
C2156 C2155 1.355 . S
C2156 C2158 1.419 . S
C2157 C2152 1.425 . S
C2157 C2154 1.409 . S
C2157 C2155 1.415 . S
C2158 H2148 0.930 . S
C2158 C2156 1.419 . S
C2158 C2159 1.362 . S
C2159 H2149 0.930 . S
C2159 C2152 1.409 . S
C2159 C2158 1.362 . S
H2160 C2166 0.930 . S
H2161 C2169 0.930 1_565 S
H2162 C2170 0.930 . S
H2163 C2171 0.930 . S
H2164 C2174 0.930 1_545 S
H2165 C2175 0.930 . S
C2166 H2160 0.930 . S
C2166 C2167 1.355 . S
C2166 C2168 1.415 . S
C2167 C2166 1.355 . S
C2167 C2169 1.419 . S
C2168 C2166 1.415 . S
C2168 C2173 1.425 1_545 S
C2168 C2175 1.409 . S
C2169 H2161 0.930 1_545 S
C2169 C2167 1.419 . S
C2169 C2170 1.362 1_545 S
C2170 H2162 0.930 . S
C2170 C2169 1.362 1_565 S
C2170 C2173 1.409 . S
C2171 H2163 0.930 . S
C2171 C2172 1.355 . S
C2171 C2173 1.415 . S
C2172 C2171 1.355 . S
C2172 C2174 1.419 . S
C2173 C2168 1.425 1_565 S
C2173 C2170 1.409 . S
C2173 C2171 1.415 . S
C2174 H2164 0.930 1_565 S
C2174 C2172 1.419 . S
C2174 C2175 1.362 1_565 S
C2175 H2165 0.930 . S
C2175 C2168 1.409 . S
C2175 C2174 1.362 1_545 S
H2176 C2182 0.930 . S
H2177 C2185 0.930 . S
H2178 C2186 0.930 . S
H2179 C2187 0.930 . S
H2180 C2190 0.930 . S
H2181 C2191 0.930 . S
C2182 H2176 0.930 . S
C2182 C2183 1.355 . S
C2182 C2184 1.415 . S
C2183 C2182 1.355 . S
C2183 C2185 1.419 . S
C2184 C2182 1.415 . S
C2184 C2189 1.425 . S
C2184 C2191 1.409 . S
C2185 H2177 0.930 . S
C2185 C2183 1.419 . S
C2185 C2186 1.362 . S
C2186 H2178 0.930 . S
C2186 C2185 1.362 . S
C2186 C2189 1.409 . S
C2187 H2179 0.930 . S
C2187 C2188 1.355 . S
C2187 C2189 1.415 . S
C2188 C2187 1.355 . S
C2188 C2190 1.419 . S
C2189 C2184 1.425 . S
C2189 C2186 1.409 . S
C2189 C2187 1.415 . S
C2190 H2180 0.930 . S
C2190 C2188 1.419 . S
C2190 C2191 1.362 . S
C2191 H2181 0.930 . S
C2191 C2184 1.409 . S
C2191 C2190 1.362 . S
H2192 C2198 0.930 . S
H2193 C2201 0.930 1_455 S
H2194 C2202 0.930 . S
H2195 C2203 0.930 . S
H2196 C2206 0.930 1_655 S
H2197 C2207 0.930 . S
C2198 H2192 0.930 . S
C2198 C2199 1.355 . S
C2198 C2200 1.415 1_564 S
C2199 C2198 1.355 . S
C2199 C2201 1.419 . S
C2200 C2198 1.415 1_546 S
C2200 C2205 1.425 1_646 S
C2200 C2207 1.409 . S
C2201 H2193 0.930 1_655 S
C2201 C2199 1.419 . S
C2201 C2202 1.362 1_655 S
C2202 H2194 0.930 . S
C2202 C2201 1.362 1_455 S
C2202 C2205 1.409 . S
C2203 H2195 0.930 . S
C2203 C2204 1.355 . S
C2203 C2205 1.415 1_546 S
C2204 C2203 1.355 . S
C2204 C2206 1.419 . S
C2205 C2200 1.425 1_464 S
C2205 C2202 1.409 . S
C2205 C2203 1.415 1_564 S
C2206 H2196 0.930 1_455 S
C2206 C2204 1.419 . S
C2206 C2207 1.362 1_455 S
C2207 H2197 0.930 . S
C2207 C2200 1.409 . S
C2207 C2206 1.362 1_655 S
H2208 C2214 0.930 . S
H2209 C2217 0.930 . S
H2210 C2218 0.930 . S
H2211 C2219 0.930 . S
H2212 C2222 0.930 . S
H2213 C2223 0.930 . S
C2214 H2208 0.930 . S
C2214 C2215 1.355 . S
C2214 C2216 1.415 . S
C2215 C2214 1.355 . S
C2215 C2217 1.419 . S
C2216 C2214 1.415 . S
C2216 C2221 1.425 . S
C2216 C2223 1.409 . S
C2217 H2209 0.930 . S
C2217 C2215 1.419 . S
C2217 C2218 1.362 . S
C2218 H2210 0.930 . S
C2218 C2217 1.362 . S
C2218 C2221 1.409 . S
C2219 H2211 0.930 . S
C2219 C2220 1.355 . S
C2219 C2221 1.415 . S
C2220 C2219 1.355 . S
C2220 C2222 1.419 . S
C2221 C2216 1.425 . S
C2221 C2218 1.409 . S
C2221 C2219 1.415 . S
C2222 H2212 0.930 . S
C2222 C2220 1.419 . S
C2222 C2223 1.362 . S
C2223 H2213 0.930 . S
C2223 C2216 1.409 . S
C2223 C2222 1.362 . S
H2224 C2230 0.930 . S
H2225 C2233 0.930 . S
H2226 C2234 0.930 . S
H2227 C2235 0.930 . S
H2228 C2238 0.930 . S
H2229 C2239 0.930 . S
C2230 H2224 0.930 . S
C2230 C2231 1.355 . S
C2230 C2232 1.415 . S
C2231 C2230 1.355 . S
C2231 C2233 1.419 . S
C2232 C2230 1.415 . S
C2232 C2237 1.425 . S
C2232 C2239 1.409 . S
C2233 H2225 0.930 . S
C2233 C2231 1.419 . S
C2233 C2234 1.362 . S
C2234 H2226 0.930 . S
C2234 C2233 1.362 . S
C2234 C2237 1.409 . S
C2235 H2227 0.930 . S
C2235 C2236 1.355 . S
C2235 C2237 1.415 . S
C2236 C2235 1.355 . S
C2236 C2238 1.419 . S
C2237 C2232 1.425 . S
C2237 C2234 1.409 . S
C2237 C2235 1.415 . S
C2238 H2228 0.930 . S
C2238 C2236 1.419 . S
C2238 C2239 1.362 . S
C2239 H2229 0.930 . S
C2239 C2232 1.409 . S
C2239 C2238 1.362 . S
H2240 C2246 0.930 . S
H2241 C2249 0.930 . S
H2242 C2250 0.930 . S
H2243 C2251 0.930 . S
H2244 C2254 0.930 . S
H2245 C2255 0.930 . S
C2246 H2240 0.930 . S
C2246 C2247 1.355 . S
C2246 C2248 1.415 . S
C2247 C2246 1.355 . S
C2247 C2249 1.419 . S
C2248 C2246 1.415 . S
C2248 C2253 1.425 . S
C2248 C2255 1.409 . S
C2249 H2241 0.930 . S
C2249 C2247 1.419 . S
C2249 C2250 1.362 . S
C2250 H2242 0.930 . S
C2250 C2249 1.362 . S
C2250 C2253 1.409 . S
C2251 H2243 0.930 . S
C2251 C2252 1.355 . S
C2251 C2253 1.415 . S
C2252 C2251 1.355 . S
C2252 C2254 1.419 . S
C2253 C2248 1.425 . S
C2253 C2250 1.409 . S
C2253 C2251 1.415 . S
C2254 H2244 0.930 . S
C2254 C2252 1.419 . S
C2254 C2255 1.362 . S
C2255 H2245 0.930 . S
C2255 C2248 1.409 . S
C2255 C2254 1.362 . S
H2256 C2262 0.930 . S
H2257 C2265 0.930 . S
H2258 C2266 0.930 . S
H2259 C2267 0.930 . S
H2260 C2270 0.930 . S
H2261 C2271 0.930 . S
C2262 H2256 0.930 . S
C2262 C2263 1.355 . S
C2262 C2264 1.415 . S
C2263 C2262 1.355 . S
C2263 C2265 1.419 . S
C2264 C2262 1.415 . S
C2264 C2269 1.425 . S
C2264 C2271 1.409 . S
C2265 H2257 0.930 . S
C2265 C2263 1.419 . S
C2265 C2266 1.362 . S
C2266 H2258 0.930 . S
C2266 C2265 1.362 . S
C2266 C2269 1.409 . S
C2267 H2259 0.930 . S
C2267 C2268 1.355 . S
C2267 C2269 1.415 . S
C2268 C2267 1.355 . S
C2268 C2270 1.419 . S
C2269 C2264 1.425 . S
C2269 C2266 1.409 . S
C2269 C2267 1.415 . S
C2270 H2260 0.930 . S
C2270 C2268 1.419 . S
C2270 C2271 1.362 . S
C2271 H2261 0.930 . S
C2271 C2264 1.409 . S
C2271 C2270 1.362 . S
H2272 C2278 0.930 . S
H2273 C2281 0.930 . S
H2274 C2282 0.930 . S
H2275 C2283 0.930 . S
H2276 C2286 0.930 . S
H2277 C2287 0.930 . S
C2278 H2272 0.930 . S
C2278 C2279 1.355 . S
C2278 C2280 1.415 1_556 S
C2279 C2278 1.355 . S
C2279 C2281 1.419 . S
C2280 C2278 1.415 1_554 S
C2280 C2285 1.425 1_554 S
C2280 C2287 1.409 . S
C2281 H2273 0.930 . S
C2281 C2279 1.419 . S
C2281 C2282 1.362 . S
C2282 H2274 0.930 . S
C2282 C2281 1.362 . S
C2282 C2285 1.409 . S
C2283 H2275 0.930 . S
C2283 C2284 1.355 . S
C2283 C2285 1.415 1_554 S
C2284 C2283 1.355 . S
C2284 C2286 1.419 . S
C2285 C2280 1.425 1_556 S
C2285 C2282 1.409 . S
C2285 C2283 1.415 1_556 S
C2286 H2276 0.930 . S
C2286 C2284 1.419 . S
C2286 C2287 1.362 . S
C2287 H2277 0.930 . S
C2287 C2280 1.409 . S
C2287 C2286 1.362 . S
H2288 C2294 0.930 . S
H2289 C2297 0.930 . S
H2290 C2298 0.930 . S
H2291 C2299 0.930 . S
H2292 C2302 0.930 . S
H2293 C2303 0.930 . S
C2294 H2288 0.930 . S
C2294 C2295 1.355 . S
C2294 C2296 1.415 1_455 S
C2295 C2294 1.355 . S
C2295 C2297 1.419 . S
C2296 C2294 1.415 1_655 S
C2296 C2301 1.425 1_655 S
C2296 C2303 1.409 . S
C2297 H2289 0.930 . S
C2297 C2295 1.419 . S
C2297 C2298 1.362 . S
C2298 H2290 0.930 . S
C2298 C2297 1.362 . S
C2298 C2301 1.409 . S
C2299 H2291 0.930 . S
C2299 C2300 1.355 . S
C2299 C2301 1.415 1_655 S
C2300 C2299 1.355 . S
C2300 C2302 1.419 . S
C2301 C2296 1.425 1_455 S
C2301 C2298 1.409 . S
C2301 C2299 1.415 1_455 S
C2302 H2292 0.930 . S
C2302 C2300 1.419 . S
C2302 C2303 1.362 . S
C2303 H2293 0.930 . S
C2303 C2296 1.409 . S
C2303 C2302 1.362 . S
H2304 C2310 0.930 1_655 S
H2305 C2313 0.930 . S
H2306 C2314 0.930 . S
H2307 C2315 0.930 1_455 S
H2308 C2318 0.930 . S
H2309 C2319 0.930 . S
C2310 H2304 0.930 1_455 S
C2310 C2311 1.355 . S
C2310 C2312 1.415 1_455 S
C2311 C2310 1.355 . S
C2311 C2313 1.419 . S
C2312 C2310 1.415 1_655 S
C2312 C2317 1.425 1_654 S
C2312 C2319 1.409 . S
C2313 H2305 0.930 . S
C2313 C2311 1.419 . S
C2313 C2314 1.362 1_554 S
C2314 H2306 0.930 . S
C2314 C2313 1.362 1_556 S
C2314 C2317 1.409 . S
C2315 H2307 0.930 1_655 S
C2315 C2316 1.355 . S
C2315 C2317 1.415 1_655 S
C2316 C2315 1.355 . S
C2316 C2318 1.419 . S
C2317 C2312 1.425 1_456 S
C2317 C2314 1.409 . S
C2317 C2315 1.415 1_455 S
C2318 H2308 0.930 . S
C2318 C2316 1.419 . S
C2318 C2319 1.362 1_556 S
C2319 H2309 0.930 . S
C2319 C2312 1.409 . S
C2319 C2318 1.362 1_554 S
H2320 C2326 0.930 . S
H2321 C2329 0.930 . S
H2322 C2330 0.930 . S
H2323 C2331 0.930 . S
H2324 C2334 0.930 . S
H2325 C2335 0.930 . S
C2326 H2320 0.930 . S
C2326 C2327 1.355 . S
C2326 C2328 1.415 . S
C2327 C2326 1.355 . S
C2327 C2329 1.419 . S
C2328 C2326 1.415 . S
C2328 C2333 1.425 . S
C2328 C2335 1.409 . S
C2329 H2321 0.930 . S
C2329 C2327 1.419 . S
C2329 C2330 1.362 . S
C2330 H2322 0.930 . S
C2330 C2329 1.362 . S
C2330 C2333 1.409 . S
C2331 H2323 0.930 . S
C2331 C2332 1.355 . S
C2331 C2333 1.415 . S
C2332 C2331 1.355 . S
C2332 C2334 1.419 . S
C2333 C2328 1.425 . S
C2333 C2330 1.409 . S
C2333 C2331 1.415 . S
C2334 H2324 0.930 . S
C2334 C2332 1.419 . S
C2334 C2335 1.362 . S
C2335 H2325 0.930 . S
C2335 C2328 1.409 . S
C2335 C2334 1.362 . S
C1063 N5 1.519 . S
C1068 C919 1.480 . S
C1079 N38 1.521 . S
C1084 C292 1.517 . S
C1095 C853 1.516 . S
C1100 N71 1.519 . S
C1111 C358 1.470 . S
C1116 N104 1.521 . S
C1127 C985 1.470 . S
C1132 N137 1.521 . S
C1143 N170 1.522 . S
C1148 C490 1.510 . S
C1159 N203 1.521 . S
C1164 C1051 1.519 . S
C1175 C424 1.516 . S
C1180 N236 1.522 . S
C1191 N269 1.519 . S
C1196 C655 1.515 . S
C1207 N302 1.522 . S
C1212 C28 1.510 . S
C1223 N335 1.519 . S
C1228 C589 1.506 . S
C1239 C94 1.502 . S
C1244 N368 1.523 . S
C1255 N401 1.523 . S
C1260 C721 1.487 . S
C1271 N434 1.519 . S
C1276 C226 1.501 . S
C1287 C787 1.495 . S
C1292 N467 1.523 . S
C1303 N500 1.519 . S
C1308 C160 1.510 . S
C1319 N533 1.520 . S
C1324 C391 1.519 . S
C1335 C820 1.486 . S
C1340 N566 1.523 . S
C1351 C325 1.488 . S
C1356 N599 1.519 . S
C1367 N632 1.520 . S
C1372 C886 1.472 . S
C1383 N665 1.523 . S
C1388 C457 1.501 . S
C1399 C1018 1.476 . S
C1404 N698 1.522 . S
C1415 N731 1.522 . S
C1420 C523 1.475 . S
C1431 C952 1.494 . S
C1436 N764 1.523 . S
C1447 N797 1.519 . S
C1452 C127 1.512 . S
C1463 C556 1.500 . S
C1468 N830 1.519 . S
C1479 N863 1.523 . S
C1484 C61 1.494 . S
C1495 C622 1.500 . S
C1500 N896 1.519 . S
C1511 N929 1.520 . S
C1516 C193 1.517 . S
C1527 C754 1.519 . S
C1532 N962 1.520 . S
C1543 C259 1.473 . S
C1548 N995 1.522 . S
C1559 N1028 1.522 . S
C1564 C688 1.474 . S
C1575 N14 1.514 . S
C1580 N146 1.510 . S
C1591 N47 1.480 . S
C1596 N179 1.435 . S
C1607 N212 1.427 . S
C1612 N80 1.464 . S
C1623 N113 1.462 . S
C1628 N245 1.507 . S
C1639 N278 1.493 . S
C1644 N410 1.518 . S
C1655 N311 1.515 . S
C1660 N443 1.479 . S
C1671 N344 1.451 . S
C1676 N476 1.425 . S
C1687 N377 1.511 . S
C1692 N509 1.469 . S
C1703 N542 1.518 . S
C1708 N674 1.501 . S
C1719 N707 1.456 . S
C1724 N575 1.503 . S
C1735 N740 1.501 . S
C1740 N608 1.518 . S
C1751 N773 1.518 . S
C1756 N641 1.498 . S
C1767 N938 1.504 . S
C1772 N806 1.517 . S
C1783 N839 1.452 . S
C1788 N971 1.425 . S
C1799 N872 1.458 . S
C1804 N1004 1.504 . S
C1815 N1037 1.429 . S
C1820 N905 1.435 . S
C1831 C173 1.867 1_545 S
C1836 C8 1.870 . S
C1847 C206 1.874 . S
C1852 C41 1.864 1_545 S
C1863 C239 1.864 1_565 S
C1868 C74 1.874 . S
C1879 C140 1.870 . S
C1884 C107 1.869 1_565 S
C1895 C437 1.874 1_565 S
C1900 C272 1.864 . S
C1911 C470 1.868 . S
C1916 C305 1.872 1_565 S
C1927 C338 1.865 . S
C1932 C503 1.874 1_545 S
C1943 C371 1.874 1_545 S
C1948 C404 1.865 . S
C1959 C701 1.867 . S
C1964 C536 1.872 . S
C1975 C569 1.874 . S
C1980 C734 1.865 . S
C1991 C767 1.870 . S
C1996 C602 1.870 . S
C2007 C635 1.864 . S
C2012 C668 1.874 . S
C2023 C965 1.873 . S
C2028 C800 1.866 . S
C2039 C833 1.870 . S
C2044 C998 1.870 . S
C2055 C866 1.869 . S
C2060 C1031 1.870 . S
C2071 C932 1.872 . S
C2076 C899 1.866 . S
C2087 C809 1.114 . S
C2092 C17 1.114 . S
C2103 C50 1.112 . S
C2108 C314 1.112 . S
C2119 C83 1.161 . S
C2124 C875 1.161 . S
C2135 C116 1.122 . S
C2140 C380 1.122 . S
C2151 C149 1.124 . S
C2156 C941 1.124 . S
C2167 C446 1.120 . S
C2172 C182 1.120 . S
C2183 C1007 1.111 . S
C2188 C215 1.111 . S
C2199 C512 1.148 . S
C2204 C248 1.148 . S
C2215 C281 1.169 . S
C2220 C545 1.169 . S
C2231 C611 1.151 . S
C2236 C347 1.151 . S
C2247 C413 1.111 . S
C2252 C677 1.111 . S
C2263 C479 1.157 . S
C2268 C743 1.157 . S
C2279 C842 1.111 . S
C2284 C578 1.111 . S
C2295 C908 1.114 . S
C2300 C644 1.114 . S
C2311 C974 1.136 . S
C2316 C710 1.136 . S
C2327 C776 1.112 . S
C2332 C1040 1.112 . S
