# Generated by pormake.
# Topology unj, (4)-cn, num edge types: 1
# Building blocks:
#     Node 0, Type 0, BuildingBlock: GALJAG_clean_sbu_0, # of connection points: 4
#     Node 1, Type 0, BuildingBlock: GALJAG_clean_sbu_0, # of connection points: 4
#     Node 2, Type 0, BuildingBlock: GALJAG_clean_sbu_0, # of connection points: 4
#     Node 3, Type 0, BuildingBlock: GALJAG_clean_sbu_0, # of connection points: 4
#     Node 4, Type 0, BuildingBlock: GALJAG_clean_sbu_0, # of connection points: 4
#     Node 5, Type 0, BuildingBlock: GALJAG_clean_sbu_0, # of connection points: 4
#     Edge 6, Type (0, 0), BuildingBlock: XIVTED_clean_linker_0, # of connection points: 2
#     Edge 7, Type (0, 0), BuildingBlock: XIVTED_clean_linker_0, # of connection points: 2
#     Edge 8, Type (0, 0), BuildingBlock: XIVTED_clean_linker_0, # of connection points: 2
#     Edge 9, Type (0, 0), BuildingBlock: XIVTED_clean_linker_0, # of connection points: 2
#     Edge 10, Type (0, 0), BuildingBlock: XIVTED_clean_linker_0, # of connection points: 2
#     Edge 11, Type (0, 0), BuildingBlock: XIVTED_clean_linker_0, # of connection points: 2
#     Edge 12, Type (0, 0), BuildingBlock: XIVTED_clean_linker_0, # of connection points: 2
#     Edge 13, Type (0, 0), BuildingBlock: XIVTED_clean_linker_0, # of connection points: 2
#     Edge 14, Type (0, 0), BuildingBlock: XIVTED_clean_linker_0, # of connection points: 2
#     Edge 15, Type (0, 0), BuildingBlock: XIVTED_clean_linker_0, # of connection points: 2
#     Edge 16, Type (0, 0), BuildingBlock: XIVTED_clean_linker_0, # of connection points: 2
#     Edge 17, Type (0, 0), BuildingBlock: XIVTED_clean_linker_0, # of connection points: 2
# Relax obj value: 0.013
# Max RMSD: 0.059
# Mean RMSD: 0.059
data_MOF--net-unj--node1-GALJAG_clean_sbu_0--edge1-XIVTED_clean_linker_0
_symmetry_space_group_name_H-M    P1
_symmetry_Int_Tables_number       1
_symmetry_cell_setting            triclinic
loop_
_symmetry_equiv_pos_as_xyz
'x, y, z'
_cell_length_a     31.560307
_cell_length_b     31.57668
_cell_length_c     40.228697
_cell_angle_alpha  90.010481
_cell_angle_beta   89.971601
_cell_angle_gamma 120.3474
loop_
_atom_site_label
_atom_site_type_symbol
_atom_site_fract_x
_atom_site_fract_y
_atom_site_fract_z
_atom_type_partial_charge
In0 In 0.48442 0.23681 0.58438 0.0
O1 O 0.55166 0.29329 0.55469 0.0
O2 O 0.48394 0.25233 0.52916 0.0
C3 C 0.52704 0.23446 0.64219 0.0
C4 C 0.43854 0.14272 0.56376 0.0
C5 C 0.43767 0.28369 0.60494 0.0
O6 O 0.55074 0.24828 0.61523 0.0
O7 O 0.4822 0.22103 0.6397 0.0
O8 O 0.41543 0.23827 0.59888 0.0
O9 O 0.48334 0.30575 0.59967 0.0
C10 C 0.5288 0.28441 0.52746 0.0
O11 O 0.41615 0.16574 0.569 0.0
O12 O 0.48404 0.16681 0.56968 0.0
In13 In 0.23903 0.4949 0.75278 0.0
O14 O 0.23529 0.42671 0.72988 0.0
O15 O 0.30545 0.49015 0.73629 0.0
C16 C 0.14927 0.45214 0.78046 0.0
C17 C 0.23491 0.54071 0.6973 0.0
C18 C 0.28796 0.53872 0.80899 0.0
O19 O 0.17017 0.42835 0.77267 0.0
O20 O 0.17323 0.49736 0.77353 0.0
O21 O 0.28769 0.56298 0.78411 0.0
O22 O 0.26455 0.4928 0.8052 0.0
C23 C 0.28107 0.44667 0.72587 0.0
O24 O 0.27028 0.56061 0.71749 0.0
O25 O 0.20107 0.49857 0.70566 0.0
In26 In 0.73115 0.25059 0.9188 0.0
O27 O 0.67566 0.26072 0.88771 0.0
O28 O 0.71692 0.2333 0.86378 0.0
C29 C 0.73454 0.29655 0.97637 0.0
C30 C 0.8253 0.29856 0.89818 0.0
C31 C 0.68297 0.1566 0.93959 0.0
O32 O 0.7203 0.30601 0.94947 0.0
O33 O 0.74759 0.26503 0.97389 0.0
O34 O 0.72853 0.17997 0.93394 0.0
O35 O 0.6613 0.18025 0.93393 0.0
C36 C 0.68517 0.24604 0.86102 0.0
O37 O 0.80203 0.25318 0.90437 0.0
O38 O 0.80148 0.32022 0.90325 0.0
In39 In 0.48174 0.74195 0.08355 0.0
O40 O 0.41426 0.6936 0.05163 0.0
O41 O 0.48485 0.71637 0.03131 0.0
C42 C 0.43432 0.74554 0.13838 0.0
C43 C 0.52544 0.83176 0.05605 0.0
C44 C 0.52986 0.70043 0.11139 0.0
O45 O 0.41564 0.70964 0.11858 0.0
O46 O 0.476 0.78016 0.12992 0.0
O47 O 0.54955 0.74619 0.10756 0.0
O48 O 0.48675 0.67584 0.10032 0.0
C49 C 0.43899 0.69314 0.02708 0.0
O50 O 0.54896 0.81081 0.06438 0.0
O51 O 0.47997 0.80778 0.0623 0.0
In52 In 0.73158 0.48999 0.2537 0.0
O53 O 0.72077 0.42442 0.22228 0.0
O54 O 0.74811 0.49337 0.19843 0.0
C55 C 0.68404 0.44437 0.31036 0.0
C56 C 0.68454 0.5367 0.23346 0.0
C57 C 0.82556 0.53568 0.2746 0.0
O58 O 0.67526 0.42205 0.28291 0.0
O59 O 0.71586 0.48933 0.30897 0.0
O60 O 0.80221 0.55793 0.27022 0.0
O61 O 0.80185 0.49049 0.26772 0.0
C62 C 0.73499 0.44868 0.19556 0.0
O63 O 0.72999 0.55893 0.23945 0.0
O64 O 0.66249 0.49104 0.23867 0.0
In65 In 0.2407 0.72931 0.41798 0.0
O66 O 0.17545 0.7332 0.39718 0.0
O67 O 0.17249 0.66434 0.39627 0.0
C68 C 0.28256 0.81795 0.4474 0.0
C69 C 0.29093 0.7349 0.36229 0.0
C70 C 0.23538 0.67811 0.47307 0.0
O71 O 0.23744 0.79419 0.44016 0.0
O72 O 0.30643 0.79739 0.43919 0.0
O73 O 0.27224 0.6963 0.45405 0.0
O74 O 0.20087 0.68446 0.46375 0.0
C75 C 0.1517 0.68838 0.38915 0.0
O76 O 0.27387 0.69836 0.38155 0.0
O77 O 0.2839 0.76895 0.37165 0.0
H78 H 0.34156 0.08463 0.54803 0.0
H79 H 0.3782 0.87393 0.46659 0.0
H80 H 0.4798 0.08768 0.54665 0.0
H81 H 0.23932 0.86956 0.46871 0.0
H82 H 0.41562 0.95151 0.4969 0.0
H83 H 0.30275 0.00461 0.52061 0.0
C84 C 0.36367 0.06827 0.54216 0.0
C85 C 0.41399 0.09282 0.54954 0.0
C86 C 0.37696 0.93364 0.49076 0.0
C87 C 0.36995 0.0015 0.51794 0.0
C88 C 0.3556 0.88939 0.47338 0.0
C89 C 0.30562 0.86539 0.46505 0.0
C90 C 0.34816 0.95411 0.49989 0.0
C91 C 0.27803 0.88696 0.47457 0.0
C92 C 0.34152 0.02265 0.52643 0.0
C93 C 0.4409 0.07 0.54138 0.0
N94 N 0.2997 0.93016 0.49147 0.0
N95 N 0.41858 0.0257 0.52589 0.0
H96 H 0.34017 0.24358 0.61944 0.0
H97 H 0.37812 0.48505 0.71151 0.0
H98 H 0.47906 0.37912 0.62496 0.0
H99 H 0.23678 0.35358 0.70029 0.0
H100 H 0.41571 0.4462 0.68033 0.0
H101 H 0.30125 0.28302 0.64862 0.0
C102 C 0.36238 0.28178 0.62655 0.0
C103 C 0.41292 0.30815 0.61984 0.0
C104 C 0.37648 0.42577 0.68469 0.0
C105 C 0.3688 0.35331 0.6535 0.0
C106 C 0.35502 0.44786 0.70262 0.0
C107 C 0.30428 0.42242 0.70853 0.0
C108 C 0.34701 0.37779 0.67262 0.0
C109 C 0.27608 0.37443 0.69632 0.0
C110 C 0.34018 0.30422 0.64329 0.0
C111 C 0.43998 0.35746 0.62964 0.0
N112 N 0.29785 0.35363 0.67892 0.0
N113 N 0.41762 0.37838 0.64613 0.0
H114 H 0.88178 0.39491 0.87984 0.0
H115 H 0.09298 0.3568 0.80036 0.0
H116 H 0.88153 0.25817 0.88286 0.0
H117 H 0.09731 0.49561 0.80033 0.0
H118 H 0.01544 0.32024 0.8308 0.0
H119 H 0.96141 0.43316 0.85163 0.0
C120 C 0.89868 0.37307 0.87479 0.0
C121 C 0.87503 0.3233 0.88362 0.0
C122 C 0.03328 0.35869 0.82414 0.0
C123 C 0.96577 0.36658 0.85115 0.0
C124 C 0.07748 0.37954 0.80666 0.0
C125 C 0.1015 0.42926 0.79775 0.0
C126 C 0.01288 0.38776 0.83276 0.0
C127 C 0.0799 0.45707 0.80666 0.0
C128 C 0.94404 0.39485 0.85862 0.0
C129 C 0.89848 0.29665 0.87645 0.0
N130 N 0.03677 0.43593 0.82367 0.0
N131 N 0.94243 0.31857 0.86052 0.0
H132 H 0.6216 0.8884 0.0379 0.0
H133 H 0.58597 0.09978 0.95633 0.0
H134 H 0.48261 0.88373 0.03496 0.0
H135 H 0.7232 0.10075 0.95641 0.0
H136 H 0.54685 0.02001 0.98427 0.0
H137 H 0.65931 0.96629 0.00789 0.0
C138 C 0.59906 0.90389 0.03103 0.0
C139 C 0.54895 0.87967 0.03897 0.0
C140 C 0.58547 0.03756 0.97804 0.0
C141 C 0.59176 0.96868 0.00446 0.0
C142 C 0.60776 0.08301 0.96201 0.0
C143 C 0.65789 0.10688 0.95411 0.0
C144 C 0.61359 0.01597 0.98629 0.0
C145 C 0.68444 0.08361 0.96208 0.0
C146 C 0.62056 0.94829 0.0138 0.0
C147 C 0.52142 0.90128 0.02937 0.0
N148 N 0.66201 0.03955 0.97784 0.0
N149 N 0.5432 0.94459 0.01262 0.0
H150 H 0.58876 0.49553 0.21418 0.0
H151 H 0.6225 0.7451 0.13777 0.0
H152 H 0.7249 0.63399 0.21841 0.0
H153 H 0.49148 0.60355 0.12608 0.0
H154 H 0.65974 0.70615 0.16961 0.0
H155 H 0.55088 0.53585 0.18499 0.0
C156 C 0.61055 0.53453 0.20922 0.0
C157 C 0.66005 0.56146 0.21863 0.0
C158 C 0.62288 0.68362 0.16001 0.0
C159 C 0.61715 0.60779 0.18498 0.0
C160 C 0.60169 0.70581 0.14178 0.0
C161 C 0.55393 0.67745 0.12921 0.0
C162 C 0.59598 0.63277 0.1658 0.0
C163 C 0.52848 0.62675 0.13523 0.0
C164 C 0.58899 0.5575 0.19242 0.0
C165 C 0.68662 0.61187 0.21154 0.0
N166 N 0.54979 0.60605 0.15314 0.0
N167 N 0.66487 0.63339 0.19502 0.0
H168 H 0.09596 0.59368 0.36813 0.0
H169 H 0.88276 0.63178 0.2928 0.0
H170 H 0.09919 0.73192 0.37055 0.0
H171 H 0.88149 0.49455 0.28923 0.0
H172 H 0.96301 0.66984 0.31994 0.0
H173 H 0.01789 0.55716 0.33845 0.0
C174 C 0.08014 0.61633 0.36247 0.0
C175 C 0.10397 0.66587 0.37187 0.0
C176 C 0.9453 0.63147 0.31309 0.0
C177 C 0.01467 0.62436 0.33777 0.0
C178 C 0.89956 0.60975 0.29753 0.0
C179 C 0.87546 0.55992 0.28882 0.0
C180 C 0.96704 0.60309 0.32007 0.0
C181 C 0.89881 0.53308 0.29555 0.0
C182 C 0.03561 0.59548 0.34545 0.0
C183 C 0.08194 0.69354 0.36381 0.0
N184 N 0.94323 0.55497 0.31089 0.0
N185 N 0.03846 0.67238 0.34723 0.0
H186 H 0.62046 0.36453 0.518 0.0
H187 H 0.60476 0.35203 0.31948 0.0
H188 H 0.49093 0.2591 0.46488 0.0
H189 H 0.70952 0.48129 0.37313 0.0
H190 H 0.56689 0.31275 0.37252 0.0
H191 H 0.65842 0.4035 0.46493 0.0
C192 C 0.60006 0.3496 0.49518 0.0
C193 C 0.55246 0.30867 0.49581 0.0
C194 C 0.5981 0.34976 0.37263 0.0
C195 C 0.59569 0.35266 0.43512 0.0
C196 C 0.61975 0.37211 0.34241 0.0
C197 C 0.6602 0.42 0.34193 0.0
C198 C 0.6175 0.37528 0.40257 0.0
C199 C 0.67822 0.44437 0.37236 0.0
C200 C 0.62165 0.37189 0.46494 0.0
C201 C 0.52764 0.29077 0.46551 0.0
N202 N 0.65691 0.42168 0.40144 0.0
N203 N 0.54961 0.31272 0.43639 0.0
H204 H 0.15545 0.62148 0.51191 0.0
H205 H 0.31182 0.61882 0.66642 0.0
H206 H 0.31234 0.68266 0.50733 0.0
H207 H 0.15776 0.51275 0.65489 0.0
H208 H 0.31192 0.65116 0.61103 0.0
H209 H 0.15476 0.58833 0.56706 0.0
C210 C 0.18969 0.62764 0.52245 0.0
C211 C 0.23401 0.6547 0.50507 0.0
C212 C 0.27812 0.62087 0.6207 0.0
C213 C 0.23359 0.61779 0.56824 0.0
C214 C 0.27793 0.60267 0.65235 0.0
C215 C 0.2347 0.56309 0.66518 0.0
C216 C 0.2346 0.59975 0.60201 0.0
C217 C 0.19188 0.54329 0.64586 0.0
C218 C 0.18926 0.60876 0.55388 0.0
C219 C 0.27735 0.66173 0.51985 0.0
N220 N 0.19285 0.56194 0.61525 0.0
N221 N 0.27614 0.64375 0.55076 0.0
H222 H 0.71301 0.23271 0.79964 0.0
H223 H 0.4869 0.22271 0.70394 0.0
H224 H 0.60487 0.25579 0.84891 0.0
H225 H 0.619 0.24879 0.65401 0.0
H226 H 0.52527 0.22603 0.75743 0.0
H227 H 0.67486 0.23001 0.74623 0.0
C228 C 0.68113 0.23712 0.79921 0.0
C229 C 0.66201 0.24444 0.82875 0.0
C230 C 0.54587 0.23107 0.73478 0.0
C231 C 0.61802 0.24109 0.76768 0.0
C232 C 0.52395 0.22895 0.70423 0.0
C233 C 0.54983 0.23543 0.67449 0.0
C234 C 0.59383 0.2391 0.73563 0.0
C235 C 0.59779 0.24364 0.67636 0.0
C236 C 0.65952 0.23575 0.7687 0.0
C237 C 0.62079 0.25014 0.82672 0.0
N238 N 0.61819 0.24501 0.70642 0.0
N239 N 0.59997 0.24807 0.79668 0.0
H240 H 0.36186 0.63313 0.81958 0.0
H241 H 0.34482 0.61905 0.01606 0.0
H242 H 0.2676 0.4968 0.87038 0.0
H243 H 0.48195 0.71312 0.96599 0.0
H244 H 0.3083 0.58063 0.96247 0.0
H245 H 0.39955 0.67066 0.87315 0.0
C246 C 0.34916 0.61119 0.84201 0.0
C247 C 0.31181 0.56184 0.84068 0.0
C248 C 0.34641 0.60961 0.96335 0.0
C249 C 0.35379 0.60451 0.90165 0.0
C250 C 0.36714 0.63157 0.99379 0.0
C251 C 0.41643 0.66905 0.99533 0.0
C252 C 0.3749 0.62622 0.93431 0.0
C253 C 0.44387 0.68404 0.96582 0.0
C254 C 0.3707 0.6325 0.87243 0.0
C255 C 0.29658 0.5349 0.87038 0.0
N256 N 0.4226 0.66287 0.9364 0.0
N257 N 0.31732 0.55673 0.89976 0.0
H258 H 0.74674 0.26847 0.03792 0.0
H259 H 0.74785 0.48988 0.13409 0.0
H260 H 0.72286 0.37575 0.98829 0.0
H261 H 0.72249 0.35761 0.18323 0.0
H262 H 0.74735 0.45311 0.08045 0.0
H263 H 0.74656 0.30515 0.09136 0.0
C264 C 0.74159 0.29988 0.03827 0.0
C265 C 0.73485 0.31916 0.00862 0.0
C266 C 0.74183 0.43212 0.10296 0.0
C267 C 0.73483 0.36144 0.06976 0.0
C268 C 0.74231 0.45311 0.13359 0.0
C269 C 0.73526 0.42672 0.16315 0.0
C270 C 0.73488 0.3846 0.10187 0.0
C271 C 0.72804 0.37919 0.16103 0.0
C272 C 0.74129 0.32064 0.06881 0.0
C273 C 0.72812 0.35974 0.01057 0.0
N274 N 0.72828 0.35972 0.13091 0.0
N275 N 0.72854 0.37974 0.04065 0.0
H276 H 0.28967 0.65887 0.32891 0.0
H277 H 0.45881 0.82323 0.17961 0.0
H278 H 0.34416 0.81443 0.32237 0.0
H279 H 0.35861 0.66748 0.17014 0.0
H280 H 0.42467 0.82109 0.23467 0.0
H281 H 0.3235 0.66158 0.27357 0.0
C282 C 0.30915 0.69364 0.31594 0.0
C283 C 0.31418 0.7365 0.33015 0.0
C284 C 0.40998 0.78747 0.22043 0.0
C285 C 0.35278 0.73983 0.26706 0.0
C286 C 0.42939 0.78866 0.18905 0.0
C287 C 0.41136 0.74548 0.17033 0.0
C288 C 0.37291 0.74263 0.23338 0.0
C289 C 0.37332 0.70164 0.18373 0.0
C290 C 0.32808 0.69509 0.28431 0.0
C291 C 0.33944 0.78054 0.31223 0.0
N292 N 0.35561 0.70124 0.2146 0.0
N293 N 0.35797 0.78112 0.28164 0.0
loop_
_geom_bond_atom_site_label_1
_geom_bond_atom_site_label_2
_geom_bond_distance
_geom_bond_site_symmetry_2
_ccdc_geom_bond_type
In0 O1 2.294 . S
In0 O2 2.326 . S
In0 O6 2.266 . S
In0 O7 2.326 . S
In0 O8 2.266 . S
In0 O9 2.326 . S
In0 O11 2.294 . S
In0 O12 2.326 . S
O1 In0 2.294 . S
O1 C10 1.240 . S
O2 In0 2.326 . S
O2 C10 1.252 . S
C3 O6 1.252 . S
C3 O7 1.260 . S
C4 O11 1.240 . S
C4 O12 1.252 . S
C5 O8 1.252 . S
C5 O9 1.260 . S
O6 In0 2.266 . S
O6 C3 1.252 . S
O7 In0 2.326 . S
O7 C3 1.260 . S
O8 In0 2.266 . S
O8 C5 1.252 . S
O9 In0 2.326 . S
O9 C5 1.260 . S
C10 O1 1.240 . S
C10 O2 1.252 . S
O11 In0 2.294 . S
O11 C4 1.240 . S
O12 In0 2.326 . S
O12 C4 1.252 . S
In13 O14 2.294 . S
In13 O15 2.326 . S
In13 O19 2.266 . S
In13 O20 2.326 . S
In13 O21 2.266 . S
In13 O22 2.326 . S
In13 O24 2.294 . S
In13 O25 2.326 . S
O14 In13 2.294 . S
O14 C23 1.240 . S
O15 In13 2.326 . S
O15 C23 1.252 . S
C16 O19 1.252 . S
C16 O20 1.260 . S
C17 O24 1.240 . S
C17 O25 1.252 . S
C18 O21 1.252 . S
C18 O22 1.260 . S
O19 In13 2.266 . S
O19 C16 1.252 . S
O20 In13 2.326 . S
O20 C16 1.260 . S
O21 In13 2.266 . S
O21 C18 1.252 . S
O22 In13 2.326 . S
O22 C18 1.260 . S
C23 O14 1.240 . S
C23 O15 1.252 . S
O24 In13 2.294 . S
O24 C17 1.240 . S
O25 In13 2.326 . S
O25 C17 1.252 . S
In26 O27 2.294 . S
In26 O28 2.326 . S
In26 O32 2.266 . S
In26 O33 2.326 . S
In26 O34 2.266 . S
In26 O35 2.326 . S
In26 O37 2.294 . S
In26 O38 2.326 . S
O27 In26 2.294 . S
O27 C36 1.240 . S
O28 In26 2.326 . S
O28 C36 1.252 . S
C29 O32 1.252 . S
C29 O33 1.260 . S
C30 O37 1.240 . S
C30 O38 1.252 . S
C31 O34 1.252 . S
C31 O35 1.260 . S
O32 In26 2.266 . S
O32 C29 1.252 . S
O33 In26 2.326 . S
O33 C29 1.260 . S
O34 In26 2.266 . S
O34 C31 1.252 . S
O35 In26 2.326 . S
O35 C31 1.260 . S
C36 O27 1.240 . S
C36 O28 1.252 . S
O37 In26 2.294 . S
O37 C30 1.240 . S
O38 In26 2.326 . S
O38 C30 1.252 . S
In39 O40 2.294 . S
In39 O41 2.326 . S
In39 O45 2.266 . S
In39 O46 2.326 . S
In39 O47 2.266 . S
In39 O48 2.326 . S
In39 O50 2.294 . S
In39 O51 2.326 . S
O40 In39 2.294 . S
O40 C49 1.240 . S
O41 In39 2.326 . S
O41 C49 1.252 . S
C42 O45 1.252 . S
C42 O46 1.260 . S
C43 O50 1.240 . S
C43 O51 1.252 . S
C44 O47 1.252 . S
C44 O48 1.260 . S
O45 In39 2.266 . S
O45 C42 1.252 . S
O46 In39 2.326 . S
O46 C42 1.260 . S
O47 In39 2.266 . S
O47 C44 1.252 . S
O48 In39 2.326 . S
O48 C44 1.260 . S
C49 O40 1.240 . S
C49 O41 1.252 . S
O50 In39 2.294 . S
O50 C43 1.240 . S
O51 In39 2.326 . S
O51 C43 1.252 . S
In52 O53 2.294 . S
In52 O54 2.326 . S
In52 O58 2.266 . S
In52 O59 2.326 . S
In52 O60 2.266 . S
In52 O61 2.326 . S
In52 O63 2.294 . S
In52 O64 2.326 . S
O53 In52 2.294 . S
O53 C62 1.240 . S
O54 In52 2.326 . S
O54 C62 1.252 . S
C55 O58 1.252 . S
C55 O59 1.260 . S
C56 O63 1.240 . S
C56 O64 1.252 . S
C57 O60 1.252 . S
C57 O61 1.260 . S
O58 In52 2.266 . S
O58 C55 1.252 . S
O59 In52 2.326 . S
O59 C55 1.260 . S
O60 In52 2.266 . S
O60 C57 1.252 . S
O61 In52 2.326 . S
O61 C57 1.260 . S
C62 O53 1.240 . S
C62 O54 1.252 . S
O63 In52 2.294 . S
O63 C56 1.240 . S
O64 In52 2.326 . S
O64 C56 1.252 . S
In65 O66 2.294 . S
In65 O67 2.326 . S
In65 O71 2.266 . S
In65 O72 2.326 . S
In65 O73 2.266 . S
In65 O74 2.326 . S
In65 O76 2.294 . S
In65 O77 2.326 . S
O66 In65 2.294 . S
O66 C75 1.240 . S
O67 In65 2.326 . S
O67 C75 1.252 . S
C68 O71 1.252 . S
C68 O72 1.260 . S
C69 O76 1.240 . S
C69 O77 1.252 . S
C70 O73 1.252 . S
C70 O74 1.260 . S
O71 In65 2.266 . S
O71 C68 1.252 . S
O72 In65 2.326 . S
O72 C68 1.260 . S
O73 In65 2.266 . S
O73 C70 1.252 . S
O74 In65 2.326 . S
O74 C70 1.260 . S
C75 O66 1.240 . S
C75 O67 1.252 . S
O76 In65 2.294 . S
O76 C69 1.240 . S
O77 In65 2.326 . S
O77 C69 1.252 . S
H78 C84 0.930 . S
H79 C88 0.930 . S
H80 C93 0.929 . S
H81 C91 0.929 . S
H82 C86 0.929 . S
H83 C92 0.929 . S
C84 H78 0.930 . S
C84 C85 1.367 . S
C84 C92 1.378 . S
C85 C84 1.367 . S
C85 C93 1.433 . S
C86 H82 0.929 . S
C86 C88 1.378 . S
C86 C90 1.350 . S
C87 C90 1.463 1_545 S
C87 C92 1.350 . S
C87 N95 1.427 . S
C88 H79 0.930 . S
C88 C86 1.378 . S
C88 C89 1.367 . S
C89 C88 1.367 . S
C89 C91 1.433 . S
C90 C86 1.350 . S
C90 C87 1.463 1_565 S
C90 N94 1.427 . S
C91 H81 0.929 . S
C91 C89 1.433 . S
C91 N94 1.384 . S
C92 H83 0.929 . S
C92 C84 1.378 . S
C92 C87 1.350 . S
C93 H80 0.929 . S
C93 C85 1.433 . S
C93 N95 1.384 . S
N94 C90 1.427 . S
N94 C91 1.384 . S
N95 C87 1.427 . S
N95 C93 1.384 . S
H96 C102 0.930 . S
H97 C106 0.930 . S
H98 C111 0.929 . S
H99 C109 0.929 . S
H100 C104 0.929 . S
H101 C110 0.929 . S
C102 H96 0.930 . S
C102 C103 1.367 . S
C102 C110 1.378 . S
C103 C102 1.367 . S
C103 C111 1.433 . S
C104 H100 0.929 . S
C104 C106 1.378 . S
C104 C108 1.350 . S
C105 C108 1.463 . S
C105 C110 1.350 . S
C105 N113 1.427 . S
C106 H97 0.930 . S
C106 C104 1.378 . S
C106 C107 1.367 . S
C107 C106 1.367 . S
C107 C109 1.433 . S
C108 C104 1.350 . S
C108 C105 1.463 . S
C108 N112 1.427 . S
C109 H99 0.929 . S
C109 C107 1.433 . S
C109 N112 1.384 . S
C110 H101 0.929 . S
C110 C102 1.378 . S
C110 C105 1.350 . S
C111 H98 0.929 . S
C111 C103 1.433 . S
C111 N113 1.384 . S
N112 C108 1.427 . S
N112 C109 1.384 . S
N113 C105 1.427 . S
N113 C111 1.384 . S
H114 C120 0.930 . S
H115 C124 0.930 . S
H116 C129 0.929 . S
H117 C127 0.929 . S
H118 C122 0.929 . S
H119 C128 0.929 . S
C120 H114 0.930 . S
C120 C121 1.367 . S
C120 C128 1.378 . S
C121 C120 1.367 . S
C121 C129 1.433 . S
C122 H118 0.929 . S
C122 C124 1.378 . S
C122 C126 1.350 . S
C123 C126 1.463 1_655 S
C123 C128 1.350 . S
C123 N131 1.427 . S
C124 H115 0.930 . S
C124 C122 1.378 . S
C124 C125 1.367 . S
C125 C124 1.367 . S
C125 C127 1.433 . S
C126 C122 1.350 . S
C126 C123 1.463 1_455 S
C126 N130 1.427 . S
C127 H117 0.929 . S
C127 C125 1.433 . S
C127 N130 1.384 . S
C128 H119 0.929 . S
C128 C120 1.378 . S
C128 C123 1.350 . S
C129 H116 0.929 . S
C129 C121 1.433 . S
C129 N131 1.384 . S
N130 C126 1.427 . S
N130 C127 1.384 . S
N131 C123 1.427 . S
N131 C129 1.384 . S
H132 C138 0.930 . S
H133 C142 0.930 . S
H134 C147 0.929 . S
H135 C145 0.929 . S
H136 C140 0.929 . S
H137 C146 0.929 . S
C138 H132 0.930 . S
C138 C139 1.367 . S
C138 C146 1.378 . S
C139 C138 1.367 . S
C139 C147 1.433 . S
C140 H136 0.929 . S
C140 C142 1.378 . S
C140 C144 1.350 . S
C141 C144 1.463 1_564 S
C141 C146 1.350 . S
C141 N149 1.427 . S
C142 H133 0.930 . S
C142 C140 1.378 . S
C142 C143 1.367 . S
C143 C142 1.367 . S
C143 C145 1.433 . S
C144 C140 1.350 . S
C144 C141 1.463 1_546 S
C144 N148 1.427 . S
C145 H135 0.929 . S
C145 C143 1.433 . S
C145 N148 1.384 . S
C146 H137 0.929 . S
C146 C138 1.378 . S
C146 C141 1.350 . S
C147 H134 0.929 . S
C147 C139 1.433 . S
C147 N149 1.384 . S
N148 C144 1.427 . S
N148 C145 1.384 . S
N149 C141 1.427 . S
N149 C147 1.384 . S
H150 C156 0.930 . S
H151 C160 0.930 . S
H152 C165 0.929 . S
H153 C163 0.929 . S
H154 C158 0.929 . S
H155 C164 0.929 . S
C156 H150 0.930 . S
C156 C157 1.367 . S
C156 C164 1.378 . S
C157 C156 1.367 . S
C157 C165 1.433 . S
C158 H154 0.929 . S
C158 C160 1.378 . S
C158 C162 1.350 . S
C159 C162 1.463 . S
C159 C164 1.350 . S
C159 N167 1.427 . S
C160 H151 0.930 . S
C160 C158 1.378 . S
C160 C161 1.367 . S
C161 C160 1.367 . S
C161 C163 1.433 . S
C162 C158 1.350 . S
C162 C159 1.463 . S
C162 N166 1.427 . S
C163 H153 0.929 . S
C163 C161 1.433 . S
C163 N166 1.384 . S
C164 H155 0.929 . S
C164 C156 1.378 . S
C164 C159 1.350 . S
C165 H152 0.929 . S
C165 C157 1.433 . S
C165 N167 1.384 . S
N166 C162 1.427 . S
N166 C163 1.384 . S
N167 C159 1.427 . S
N167 C165 1.384 . S
H168 C174 0.930 . S
H169 C178 0.930 . S
H170 C183 0.929 . S
H171 C181 0.929 . S
H172 C176 0.929 . S
H173 C182 0.929 . S
C174 H168 0.930 . S
C174 C175 1.367 . S
C174 C182 1.378 . S
C175 C174 1.367 . S
C175 C183 1.433 . S
C176 H172 0.929 . S
C176 C178 1.378 . S
C176 C180 1.350 . S
C177 C180 1.463 1_455 S
C177 C182 1.350 . S
C177 N185 1.427 . S
C178 H169 0.930 . S
C178 C176 1.378 . S
C178 C179 1.367 . S
C179 C178 1.367 . S
C179 C181 1.433 . S
C180 C176 1.350 . S
C180 C177 1.463 1_655 S
C180 N184 1.427 . S
C181 H171 0.929 . S
C181 C179 1.433 . S
C181 N184 1.384 . S
C182 H173 0.929 . S
C182 C174 1.378 . S
C182 C177 1.350 . S
C183 H170 0.929 . S
C183 C175 1.433 . S
C183 N185 1.384 . S
N184 C180 1.427 . S
N184 C181 1.384 . S
N185 C177 1.427 . S
N185 C183 1.384 . S
H186 C192 0.930 . S
H187 C196 0.930 . S
H188 C201 0.929 . S
H189 C199 0.929 . S
H190 C194 0.929 . S
H191 C200 0.929 . S
C192 H186 0.930 . S
C192 C193 1.367 . S
C192 C200 1.378 . S
C193 C192 1.367 . S
C193 C201 1.433 . S
C194 H190 0.929 . S
C194 C196 1.378 . S
C194 C198 1.350 . S
C195 C198 1.463 . S
C195 C200 1.350 . S
C195 N203 1.427 . S
C196 H187 0.930 . S
C196 C194 1.378 . S
C196 C197 1.367 . S
C197 C196 1.367 . S
C197 C199 1.433 . S
C198 C194 1.350 . S
C198 C195 1.463 . S
C198 N202 1.427 . S
C199 H189 0.929 . S
C199 C197 1.433 . S
C199 N202 1.384 . S
C200 H191 0.929 . S
C200 C192 1.378 . S
C200 C195 1.350 . S
C201 H188 0.929 . S
C201 C193 1.433 . S
C201 N203 1.384 . S
N202 C198 1.427 . S
N202 C199 1.384 . S
N203 C195 1.427 . S
N203 C201 1.384 . S
H204 C210 0.930 . S
H205 C214 0.930 . S
H206 C219 0.929 . S
H207 C217 0.929 . S
H208 C212 0.929 . S
H209 C218 0.929 . S
C210 H204 0.930 . S
C210 C211 1.367 . S
C210 C218 1.378 . S
C211 C210 1.367 . S
C211 C219 1.433 . S
C212 H208 0.929 . S
C212 C214 1.378 . S
C212 C216 1.350 . S
C213 C216 1.463 . S
C213 C218 1.350 . S
C213 N221 1.427 . S
C214 H205 0.930 . S
C214 C212 1.378 . S
C214 C215 1.367 . S
C215 C214 1.367 . S
C215 C217 1.433 . S
C216 C212 1.350 . S
C216 C213 1.463 . S
C216 N220 1.427 . S
C217 H207 0.929 . S
C217 C215 1.433 . S
C217 N220 1.384 . S
C218 H209 0.929 . S
C218 C210 1.378 . S
C218 C213 1.350 . S
C219 H206 0.929 . S
C219 C211 1.433 . S
C219 N221 1.384 . S
N220 C216 1.427 . S
N220 C217 1.384 . S
N221 C213 1.427 . S
N221 C219 1.384 . S
H222 C228 0.930 . S
H223 C232 0.930 . S
H224 C237 0.929 . S
H225 C235 0.929 . S
H226 C230 0.929 . S
H227 C236 0.929 . S
C228 H222 0.930 . S
C228 C229 1.367 . S
C228 C236 1.378 . S
C229 C228 1.367 . S
C229 C237 1.433 . S
C230 H226 0.929 . S
C230 C232 1.378 . S
C230 C234 1.350 . S
C231 C234 1.463 . S
C231 C236 1.350 . S
C231 N239 1.427 . S
C232 H223 0.930 . S
C232 C230 1.378 . S
C232 C233 1.367 . S
C233 C232 1.367 . S
C233 C235 1.433 . S
C234 C230 1.350 . S
C234 C231 1.463 . S
C234 N238 1.427 . S
C235 H225 0.929 . S
C235 C233 1.433 . S
C235 N238 1.384 . S
C236 H227 0.929 . S
C236 C228 1.378 . S
C236 C231 1.350 . S
C237 H224 0.929 . S
C237 C229 1.433 . S
C237 N239 1.384 . S
N238 C234 1.427 . S
N238 C235 1.384 . S
N239 C231 1.427 . S
N239 C237 1.384 . S
H240 C246 0.930 . S
H241 C250 0.930 1_554 S
H242 C255 0.929 . S
H243 C253 0.929 . S
H244 C248 0.929 . S
H245 C254 0.929 . S
C246 H240 0.930 . S
C246 C247 1.367 . S
C246 C254 1.378 . S
C247 C246 1.367 . S
C247 C255 1.433 . S
C248 H244 0.929 . S
C248 C250 1.378 . S
C248 C252 1.350 . S
C249 C252 1.463 . S
C249 C254 1.350 . S
C249 N257 1.427 . S
C250 H241 0.930 1_556 S
C250 C248 1.378 . S
C250 C251 1.367 . S
C251 C250 1.367 . S
C251 C253 1.433 . S
C252 C248 1.350 . S
C252 C249 1.463 . S
C252 N256 1.427 . S
C253 H243 0.929 . S
C253 C251 1.433 . S
C253 N256 1.384 . S
C254 H245 0.929 . S
C254 C246 1.378 . S
C254 C249 1.350 . S
C255 H242 0.929 . S
C255 C247 1.433 . S
C255 N257 1.384 . S
N256 C252 1.427 . S
N256 C253 1.384 . S
N257 C249 1.427 . S
N257 C255 1.384 . S
H258 C264 0.930 . S
H259 C268 0.930 . S
H260 C273 0.929 1_556 S
H261 C271 0.929 . S
H262 C266 0.929 . S
H263 C272 0.929 . S
C264 H258 0.930 . S
C264 C265 1.367 . S
C264 C272 1.378 . S
C265 C264 1.367 . S
C265 C273 1.433 . S
C266 H262 0.929 . S
C266 C268 1.378 . S
C266 C270 1.350 . S
C267 C270 1.463 . S
C267 C272 1.350 . S
C267 N275 1.427 . S
C268 H259 0.930 . S
C268 C266 1.378 . S
C268 C269 1.367 . S
C269 C268 1.367 . S
C269 C271 1.433 . S
C270 C266 1.350 . S
C270 C267 1.463 . S
C270 N274 1.427 . S
C271 H261 0.929 . S
C271 C269 1.433 . S
C271 N274 1.384 . S
C272 H263 0.929 . S
C272 C264 1.378 . S
C272 C267 1.350 . S
C273 H260 0.929 1_554 S
C273 C265 1.433 . S
C273 N275 1.384 . S
N274 C270 1.427 . S
N274 C271 1.384 . S
N275 C267 1.427 . S
N275 C273 1.384 . S
H276 C282 0.930 . S
H277 C286 0.930 . S
H278 C291 0.929 . S
H279 C289 0.929 . S
H280 C284 0.929 . S
H281 C290 0.929 . S
C282 H276 0.930 . S
C282 C283 1.367 . S
C282 C290 1.378 . S
C283 C282 1.367 . S
C283 C291 1.433 . S
C284 H280 0.929 . S
C284 C286 1.378 . S
C284 C288 1.350 . S
C285 C288 1.463 . S
C285 C290 1.350 . S
C285 N293 1.427 . S
C286 H277 0.930 . S
C286 C284 1.378 . S
C286 C287 1.367 . S
C287 C286 1.367 . S
C287 C289 1.433 . S
C288 C284 1.350 . S
C288 C285 1.463 . S
C288 N292 1.427 . S
C289 H279 0.929 . S
C289 C287 1.433 . S
C289 N292 1.384 . S
C290 H281 0.929 . S
C290 C282 1.378 . S
C290 C285 1.350 . S
C291 H278 0.929 . S
C291 C283 1.433 . S
C291 N293 1.384 . S
N292 C288 1.427 . S
N292 C289 1.384 . S
N293 C285 1.427 . S
N293 C291 1.384 . S
C85 C4 1.612 . S
C89 C68 1.614 . S
C103 C5 1.613 . S
C107 C23 1.612 . S
C121 C30 1.612 . S
C125 C16 1.613 . S
C139 C43 1.612 . S
C143 C31 1.614 . S
C157 C56 1.614 . S
C161 C44 1.613 . S
C175 C75 1.612 . S
C179 C57 1.613 . S
C193 C10 1.459 . S
C197 C55 1.460 . S
C211 C70 1.460 . S
C215 C17 1.458 . S
C229 C36 1.457 . S
C233 C3 1.459 . S
C247 C18 1.459 . S
C251 C49 1.459 1_556 S
C265 C29 1.459 1_554 S
C269 C62 1.458 . S
C283 C69 1.457 . S
C287 C42 1.459 . S
