# Generated by pormake.
# Topology snl, (6)-cn, num edge types: 1
# Building blocks:
#     Node 0, Type 0, BuildingBlock: BETDEL_clean_sbu_0, # of connection points: 6
#     Node 1, Type 0, BuildingBlock: BETDEL_clean_sbu_0, # of connection points: 6
#     Node 2, Type 0, BuildingBlock: BETDEL_clean_sbu_0, # of connection points: 6
#     Node 3, Type 0, BuildingBlock: BETDEL_clean_sbu_0, # of connection points: 6
#     Node 4, Type 0, BuildingBlock: BETDEL_clean_sbu_0, # of connection points: 6
#     Node 5, Type 0, BuildingBlock: BETDEL_clean_sbu_0, # of connection points: 6
#     Node 6, Type 0, BuildingBlock: BETDEL_clean_sbu_0, # of connection points: 6
#     Node 7, Type 0, BuildingBlock: BETDEL_clean_sbu_0, # of connection points: 6
#     Node 8, Type 0, BuildingBlock: BETDEL_clean_sbu_0, # of connection points: 6
#     Node 9, Type 0, BuildingBlock: BETDEL_clean_sbu_0, # of connection points: 6
#     Node 10, Type 0, BuildingBlock: BETDEL_clean_sbu_0, # of connection points: 6
#     Node 11, Type 0, BuildingBlock: BETDEL_clean_sbu_0, # of connection points: 6
#     Node 12, Type 0, BuildingBlock: BETDEL_clean_sbu_0, # of connection points: 6
#     Node 13, Type 0, BuildingBlock: BETDEL_clean_sbu_0, # of connection points: 6
#     Node 14, Type 0, BuildingBlock: BETDEL_clean_sbu_0, # of connection points: 6
#     Node 15, Type 0, BuildingBlock: BETDEL_clean_sbu_0, # of connection points: 6
#     Edge 16, Type (0, 0), BuildingBlock: CIFDUS_clean_linker_0, # of connection points: 2
#     Edge 17, Type (0, 0), BuildingBlock: CIFDUS_clean_linker_0, # of connection points: 2
#     Edge 18, Type (0, 0), BuildingBlock: CIFDUS_clean_linker_0, # of connection points: 2
#     Edge 19, Type (0, 0), BuildingBlock: CIFDUS_clean_linker_0, # of connection points: 2
#     Edge 20, Type (0, 0), BuildingBlock: CIFDUS_clean_linker_0, # of connection points: 2
#     Edge 21, Type (0, 0), BuildingBlock: CIFDUS_clean_linker_0, # of connection points: 2
#     Edge 22, Type (0, 0), BuildingBlock: CIFDUS_clean_linker_0, # of connection points: 2
#     Edge 23, Type (0, 0), BuildingBlock: CIFDUS_clean_linker_0, # of connection points: 2
#     Edge 24, Type (0, 0), BuildingBlock: CIFDUS_clean_linker_0, # of connection points: 2
#     Edge 25, Type (0, 0), BuildingBlock: CIFDUS_clean_linker_0, # of connection points: 2
#     Edge 26, Type (0, 0), BuildingBlock: CIFDUS_clean_linker_0, # of connection points: 2
#     Edge 27, Type (0, 0), BuildingBlock: CIFDUS_clean_linker_0, # of connection points: 2
#     Edge 28, Type (0, 0), BuildingBlock: CIFDUS_clean_linker_0, # of connection points: 2
#     Edge 29, Type (0, 0), BuildingBlock: CIFDUS_clean_linker_0, # of connection points: 2
#     Edge 30, Type (0, 0), BuildingBlock: CIFDUS_clean_linker_0, # of connection points: 2
#     Edge 31, Type (0, 0), BuildingBlock: CIFDUS_clean_linker_0, # of connection points: 2
#     Edge 32, Type (0, 0), BuildingBlock: CIFDUS_clean_linker_0, # of connection points: 2
#     Edge 33, Type (0, 0), BuildingBlock: CIFDUS_clean_linker_0, # of connection points: 2
#     Edge 34, Type (0, 0), BuildingBlock: CIFDUS_clean_linker_0, # of connection points: 2
#     Edge 35, Type (0, 0), BuildingBlock: CIFDUS_clean_linker_0, # of connection points: 2
#     Edge 36, Type (0, 0), BuildingBlock: CIFDUS_clean_linker_0, # of connection points: 2
#     Edge 37, Type (0, 0), BuildingBlock: CIFDUS_clean_linker_0, # of connection points: 2
#     Edge 38, Type (0, 0), BuildingBlock: CIFDUS_clean_linker_0, # of connection points: 2
#     Edge 39, Type (0, 0), BuildingBlock: CIFDUS_clean_linker_0, # of connection points: 2
#     Edge 40, Type (0, 0), BuildingBlock: CIFDUS_clean_linker_0, # of connection points: 2
#     Edge 41, Type (0, 0), BuildingBlock: CIFDUS_clean_linker_0, # of connection points: 2
#     Edge 42, Type (0, 0), BuildingBlock: CIFDUS_clean_linker_0, # of connection points: 2
#     Edge 43, Type (0, 0), BuildingBlock: CIFDUS_clean_linker_0, # of connection points: 2
#     Edge 44, Type (0, 0), BuildingBlock: CIFDUS_clean_linker_0, # of connection points: 2
#     Edge 45, Type (0, 0), BuildingBlock: CIFDUS_clean_linker_0, # of connection points: 2
#     Edge 46, Type (0, 0), BuildingBlock: CIFDUS_clean_linker_0, # of connection points: 2
#     Edge 47, Type (0, 0), BuildingBlock: CIFDUS_clean_linker_0, # of connection points: 2
#     Edge 48, Type (0, 0), BuildingBlock: CIFDUS_clean_linker_0, # of connection points: 2
#     Edge 49, Type (0, 0), BuildingBlock: CIFDUS_clean_linker_0, # of connection points: 2
#     Edge 50, Type (0, 0), BuildingBlock: CIFDUS_clean_linker_0, # of connection points: 2
#     Edge 51, Type (0, 0), BuildingBlock: CIFDUS_clean_linker_0, # of connection points: 2
#     Edge 52, Type (0, 0), BuildingBlock: CIFDUS_clean_linker_0, # of connection points: 2
#     Edge 53, Type (0, 0), BuildingBlock: CIFDUS_clean_linker_0, # of connection points: 2
#     Edge 54, Type (0, 0), BuildingBlock: CIFDUS_clean_linker_0, # of connection points: 2
#     Edge 55, Type (0, 0), BuildingBlock: CIFDUS_clean_linker_0, # of connection points: 2
#     Edge 56, Type (0, 0), BuildingBlock: CIFDUS_clean_linker_0, # of connection points: 2
#     Edge 57, Type (0, 0), BuildingBlock: CIFDUS_clean_linker_0, # of connection points: 2
#     Edge 58, Type (0, 0), BuildingBlock: CIFDUS_clean_linker_0, # of connection points: 2
#     Edge 59, Type (0, 0), BuildingBlock: CIFDUS_clean_linker_0, # of connection points: 2
#     Edge 60, Type (0, 0), BuildingBlock: CIFDUS_clean_linker_0, # of connection points: 2
#     Edge 61, Type (0, 0), BuildingBlock: CIFDUS_clean_linker_0, # of connection points: 2
#     Edge 62, Type (0, 0), BuildingBlock: CIFDUS_clean_linker_0, # of connection points: 2
#     Edge 63, Type (0, 0), BuildingBlock: CIFDUS_clean_linker_0, # of connection points: 2
# Relax obj value: 0.147
# Max RMSD: 0.205
# Mean RMSD: 0.177
data_MOF--net-snl--node1-BETDEL_clean_sbu_0--edge1-CIFDUS_clean_linker_0
_symmetry_space_group_name_H-M    P1
_symmetry_Int_Tables_number       1
_symmetry_cell_setting            triclinic
loop_
_symmetry_equiv_pos_as_xyz
'x, y, z'
_cell_length_a     50.516377
_cell_length_b     50.690693
_cell_length_c     16.267788
_cell_angle_alpha  99.605131
_cell_angle_beta   89.906342
_cell_angle_gamma 89.948947
loop_
_atom_site_label
_atom_site_type_symbol
_atom_site_fract_x
_atom_site_fract_y
_atom_site_fract_z
_atom_type_partial_charge
Dy0 Dy 0.1521 0.63304 0.09309 0.0
C1 C 0.13744 0.62796 0.43414 0.0
C2 C 0.15576 0.63109 0.9237 0.0
Dy3 Dy 0.14074 0.62804 0.26554 0.0
O4 O 0.14209 0.61457 0.95991 0.0
O5 O 0.16763 0.64807 0.97981 0.0
O6 O 0.16857 0.67372 0.13389 0.0
O7 O 0.1363 0.66216 0.19846 0.0
C8 C 0.15242 0.68102 0.1952 0.0
C9 C 0.14109 0.58103 0.15914 0.0
O10 O 0.10164 0.64329 0.23462 0.0
O11 O 0.10691 0.62989 0.09329 0.0
O12 O 0.15292 0.64321 0.39893 0.0
O13 O 0.1235 0.61323 0.37746 0.0
O14 O 0.12449 0.58691 0.21992 0.0
O15 O 0.15739 0.59977 0.15994 0.0
O16 O 0.1931 0.62271 0.13196 0.0
O17 O 0.18409 0.63639 0.27136 0.0
C18 C 0.09145 0.63772 0.15908 0.0
C19 C 0.2012 0.63025 0.20977 0.0
Dy20 Dy 0.64471 0.8884 0.43218 0.0
C21 C 0.63748 0.88343 0.07829 0.0
C22 C 0.64414 0.90089 0.60177 0.0
Dy23 Dy 0.64104 0.88715 0.2475 0.0
O24 O 0.62687 0.88627 0.55642 0.0
O25 O 0.66174 0.90965 0.55412 0.0
O26 O 0.65067 0.84625 0.4443 0.0
O27 O 0.64625 0.85541 0.32318 0.0
C28 C 0.64925 0.83677 0.36575 0.0
C29 C 0.6462 0.93625 0.34074 0.0
O30 O 0.59858 0.88019 0.27092 0.0
O31 O 0.60023 0.89023 0.41514 0.0
O32 O 0.65694 0.89394 0.12392 0.0
O33 O 0.61997 0.87423 0.12481 0.0
O34 O 0.65694 0.92936 0.26838 0.0
O35 O 0.63216 0.91746 0.35714 0.0
O36 O 0.68714 0.89543 0.3925 0.0
O37 O 0.68098 0.87102 0.26197 0.0
C38 C 0.58676 0.88409 0.34445 0.0
C39 C 0.69695 0.88315 0.32019 0.0
Dy40 Dy 0.38841 0.39825 0.73736 0.0
C41 C 0.38517 0.37717 0.37924 0.0
C42 C 0.3845 0.40237 0.90704 0.0
Dy43 Dy 0.38185 0.38099 0.54898 0.0
O44 O 0.4047 0.3929 0.86223 0.0
O45 O 0.36661 0.41044 0.85935 0.0
O46 O 0.42716 0.41675 0.72041 0.0
O47 O 0.41568 0.38235 0.63506 0.0
C48 C 0.43286 0.40077 0.65158 0.0
C49 C 0.33724 0.38257 0.64039 0.0
O50 O 0.38714 0.3403 0.57896 0.0
O51 O 0.3807 0.35353 0.72152 0.0
O52 O 0.36539 0.38721 0.42505 0.0
O53 O 0.4029 0.36837 0.42596 0.0
O54 O 0.34089 0.36555 0.57208 0.0
O55 O 0.35624 0.39871 0.65117 0.0
O56 O 0.38096 0.4388 0.70116 0.0
O57 O 0.39004 0.42466 0.5608 0.0
C58 C 0.38327 0.3347 0.6546 0.0
C59 C 0.38534 0.44393 0.62453 0.0
Dy60 Dy 0.88392 0.12254 0.80443 0.0
C61 C 0.88693 0.14152 0.16148 0.0
C62 C 0.87647 0.12009 0.63625 0.0
Dy63 Dy 0.8819 0.13954 0.99261 0.0
O64 O 0.89888 0.11671 0.67199 0.0
O65 O 0.85789 0.12397 0.69224 0.0
O66 O 0.9213 0.10033 0.81539 0.0
O67 O 0.91398 0.13587 0.90025 0.0
C68 C 0.92958 0.11618 0.88145 0.0
C69 C 0.83637 0.14447 0.91178 0.0
O70 O 0.89612 0.17815 0.96213 0.0
O71 O 0.88503 0.16787 0.82194 0.0
O72 O 0.86485 0.14366 0.12257 0.0
O73 O 0.9064 0.13936 0.10846 0.0
O74 O 0.84372 0.161 0.97769 0.0
O75 O 0.85266 0.12546 0.89622 0.0
O76 O 0.87206 0.08289 0.83825 0.0
O77 O 0.88313 0.09504 0.97779 0.0
C78 C 0.89252 0.18523 0.88817 0.0
C79 C 0.87626 0.07679 0.91362 0.0
Dy80 Dy 0.14521 0.38187 0.95937 0.0
C81 C 0.13429 0.39256 0.62124 0.0
C82 C 0.14514 0.37974 0.1265 0.0
Dy83 Dy 0.13374 0.38869 0.7871 0.0
O84 O 0.13888 0.36042 0.06746 0.0
O85 O 0.15201 0.40061 0.0945 0.0
O86 O 0.16255 0.34192 0.91279 0.0
O87 O 0.12952 0.35411 0.85179 0.0
C88 C 0.14592 0.33522 0.85237 0.0
C89 C 0.13071 0.43392 0.89808 0.0
O90 O 0.09273 0.37917 0.82031 0.0
O91 O 0.10089 0.38999 0.96166 0.0
O92 O 0.14231 0.41076 0.68139 0.0
O93 O 0.12546 0.37206 0.65154 0.0
O94 O 0.11436 0.4278 0.83667 0.0
O95 O 0.14849 0.41632 0.89635 0.0
O96 O 0.18726 0.38707 0.9189 0.0
O97 O 0.17613 0.37605 0.77979 0.0
C98 C 0.08418 0.38443 0.89818 0.0
C99 C 0.19405 0.38022 0.83943 0.0
Dy100 Dy 0.88699 0.89408 0.20414 0.0
C101 C 0.89095 0.86959 0.83406 0.0
C102 C 0.87793 0.89972 0.3712 0.0
Dy103 Dy 0.88336 0.87508 1.00159 0.0
O104 O 0.88925 0.91762 0.33411 0.0
O105 O 0.87048 0.87947 0.31636 0.0
O106 O 0.93179 0.8978 0.20941 0.0
O107 O 0.91284 0.88475 0.09796 0.0
C108 C 0.93524 0.88948 0.13021 0.0
C109 C 0.8349 0.88001 0.07693 0.0
O110 O 0.89787 0.83791 0.04291 0.0
O111 O 0.88702 0.84894 0.18485 0.0
O112 O 0.88002 0.85161 0.87178 0.0
O113 O 0.89896 0.88972 0.88845 0.0
O114 O 0.83852 0.87234 0.99748 0.0
O115 O 0.8574 0.88409 0.10888 0.0
O116 O 0.87482 0.93214 0.15908 0.0
O117 O 0.88567 0.91941 0.01789 0.0
C118 C 0.89433 0.83147 0.11813 0.0
C119 C 0.87874 0.93765 0.08248 0.0
Dy120 Dy 0.38837 0.62697 0.3287 0.0
C121 C 0.38603 0.6478 0.6912 0.0
C122 C 0.38093 0.62509 0.16247 0.0
Dy123 Dy 0.38488 0.64507 0.52319 0.0
O124 O 0.39567 0.64201 0.21016 0.0
O125 O 0.36981 0.60857 0.20559 0.0
O126 O 0.43202 0.61754 0.31781 0.0
O127 O 0.4154 0.63327 0.43194 0.0
C128 C 0.43687 0.62603 0.39603 0.0
C129 C 0.3406 0.6515 0.43674 0.0
O130 O 0.40152 0.6818 0.48592 0.0
O131 O 0.38485 0.67221 0.35152 0.0
O132 O 0.3686 0.63483 0.64179 0.0
O133 O 0.40278 0.65985 0.64905 0.0
O134 O 0.34698 0.66674 0.50619 0.0
O135 O 0.35683 0.63246 0.42141 0.0
O136 O 0.38195 0.58668 0.36708 0.0
O137 O 0.39043 0.60091 0.50866 0.0
C138 C 0.39534 0.68918 0.41399 0.0
C139 C 0.38578 0.58176 0.4443 0.0
Dy140 Dy 0.64839 0.12305 0.55821 0.0
C141 C 0.63747 0.1298 0.90778 0.0
C142 C 0.64896 0.11746 0.38815 0.0
Dy143 Dy 0.63771 0.12503 0.73793 0.0
O144 O 0.64061 0.1382 0.43884 0.0
O145 O 0.6572 0.09937 0.43024 0.0
O146 O 0.66924 0.16174 0.58491 0.0
O147 O 0.63599 0.15601 0.65751 0.0
C148 C 0.65388 0.1725 0.64521 0.0
C149 C 0.63271 0.07622 0.64508 0.0
O150 O 0.59713 0.13482 0.70162 0.0
O151 O 0.60383 0.11743 0.56261 0.0
O152 O 0.64736 0.10999 0.85645 0.0
O153 O 0.62754 0.14731 0.86643 0.0
O154 O 0.61755 0.08498 0.70811 0.0
O155 O 0.6504 0.0931 0.63788 0.0
O156 O 0.68991 0.11592 0.59999 0.0
O157 O 0.68086 0.1344 0.73672 0.0
C158 C 0.58785 0.12682 0.6257 0.0
C159 C 0.69792 0.12564 0.67673 0.0
Dy160 Dy 0.8766 0.38933 0.76458 0.0
C161 C 0.86353 0.40077 0.11939 0.0
C162 C 0.87777 0.38747 0.59643 0.0
Dy163 Dy 0.86792 0.38756 0.9508 0.0
O164 O 0.85854 0.39729 0.64511 0.0
O165 O 0.8962 0.37817 0.63934 0.0
O166 O 0.89378 0.43101 0.80088 0.0
O167 O 0.86431 0.41796 0.87365 0.0
C168 C 0.88021 0.43656 0.8691 0.0
C169 C 0.87302 0.33689 0.87539 0.0
O170 O 0.82594 0.39102 0.90505 0.0
O171 O 0.8349 0.37576 0.76527 0.0
O172 O 0.84414 0.39263 0.06928 0.0
O173 O 0.88513 0.40247 0.07722 0.0
O174 O 0.86842 0.34406 0.95425 0.0
O175 O 0.87386 0.35719 0.83942 0.0
O176 O 0.91518 0.3738 0.79656 0.0
O177 O 0.91264 0.39158 0.93674 0.0
C178 C 0.818 0.38199 0.82757 0.0
C179 C 0.92652 0.38078 0.86984 0.0
Dy180 Dy 0.38136 0.12968 0.76978 0.0
C181 C 0.36699 0.12881 0.42637 0.0
C182 C 0.38505 0.13137 0.93925 0.0
Dy183 Dy 0.37088 0.13162 0.59626 0.0
O184 O 0.40166 0.11979 0.88412 0.0
O185 O 0.36656 0.14273 0.90207 0.0
O186 O 0.39892 0.08858 0.7354 0.0
O187 O 0.36719 0.0989 0.6657 0.0
C188 C 0.38414 0.08111 0.67117 0.0
C189 C 0.36721 0.18073 0.69044 0.0
O190 O 0.33057 0.11867 0.63499 0.0
O191 O 0.33775 0.1363 0.77263 0.0
O192 O 0.35265 0.14355 0.48187 0.0
O193 O 0.38338 0.11488 0.46339 0.0
O194 O 0.35154 0.17107 0.63035 0.0
O195 O 0.38462 0.16335 0.6991 0.0
O196 O 0.41984 0.14633 0.73847 0.0
O197 O 0.41605 0.12962 0.59892 0.0
C198 C 0.3214 0.12744 0.71109 0.0
C199 C 0.43083 0.13931 0.66446 0.0
Dy200 Dy 0.64102 0.63657 0.48926 0.0
C201 C 0.63875 0.61602 0.13117 0.0
C202 C 0.63589 0.64016 0.65834 0.0
Dy203 Dy 0.63336 0.62019 0.30047 0.0
O204 O 0.65784 0.63541 0.61686 0.0
O205 O 0.6169 0.64397 0.60772 0.0
O206 O 0.68261 0.64943 0.46598 0.0
O207 O 0.66536 0.61717 0.38605 0.0
C208 C 0.68526 0.63224 0.39748 0.0
C209 C 0.58885 0.62369 0.3906 0.0
O210 O 0.63854 0.57908 0.33337 0.0
O211 O 0.63195 0.59296 0.47535 0.0
O212 O 0.61661 0.62016 0.17202 0.0
O213 O 0.65779 0.61323 0.18259 0.0
O214 O 0.59257 0.60631 0.3231 0.0
O215 O 0.60831 0.63955 0.4032 0.0
O216 O 0.63777 0.67746 0.45992 0.0
O217 O 0.64257 0.6646 0.31629 0.0
C218 C 0.63479 0.57381 0.41 0.0
C219 C 0.64173 0.68318 0.38436 0.0
Dy220 Dy 0.13851 0.87534 0.0236 0.0
C221 C 0.14687 0.89682 0.38589 0.0
C222 C 0.13433 0.87345 0.85573 0.0
Dy223 Dy 0.13498 0.89275 0.22114 0.0
O224 O 0.15638 0.87512 0.89713 0.0
O225 O 0.11447 0.8719 0.90577 0.0
O226 O 0.17679 0.85484 0.04189 0.0
O227 O 0.16593 0.88924 0.12646 0.0
C228 C 0.18279 0.87062 0.11093 0.0
C229 C 0.08638 0.88986 0.151 0.0
O230 O 0.14382 0.93277 0.18401 0.0
O231 O 0.13685 0.91994 0.04083 0.0
O232 O 0.12766 0.90944 0.35606 0.0
O233 O 0.16011 0.88268 0.32553 0.0
O234 O 0.09043 0.89787 0.23004 0.0
O235 O 0.10852 0.88427 0.11735 0.0
O236 O 0.12426 0.83704 0.05779 0.0
O237 O 0.13446 0.84756 0.19967 0.0
C238 C 0.14119 0.93845 0.10724 0.0
C239 C 0.12764 0.83016 0.13242 0.0
Dy240 Dy 0.88592 0.63002 0.23884 0.0
C241 C 0.87127 0.62773 0.89053 0.0
C242 C 0.88775 0.63389 0.40787 0.0
Dy243 Dy 0.87367 0.63302 0.05982 0.0
O244 O 0.87595 0.6151 0.35741 0.0
O245 O 0.89887 0.6506 0.36601 0.0
O246 O 0.90268 0.5886 0.20091 0.0
O247 O 0.8712 0.60149 0.13322 0.0
C248 C 0.88781 0.58315 0.13543 0.0
C249 C 0.87275 0.68087 0.1603 0.0
O250 O 0.83204 0.62921 0.10619 0.0
O251 O 0.84364 0.64282 0.24446 0.0
O252 O 0.88133 0.64788 0.93995 0.0
O253 O 0.86211 0.61031 0.93357 0.0
O254 O 0.85711 0.67392 0.09721 0.0
O255 O 0.8891 0.66216 0.16375 0.0
O256 O 0.92659 0.63779 0.19903 0.0
O257 O 0.91798 0.62496 0.05817 0.0
C258 C 0.82561 0.63755 0.18537 0.0
C259 C 0.9348 0.63139 0.12107 0.0
Dy260 Dy 0.13578 0.14252 0.02124 0.0
C261 C 0.1402 0.11761 0.65889 0.0
C262 C 0.13354 0.14653 0.19138 0.0
Dy263 Dy 0.13131 0.12368 0.82687 0.0
O264 O 0.14702 0.16218 0.15142 0.0
O265 O 0.12038 0.12948 0.13845 0.0
O266 O 0.17459 0.16161 1.00179 0.0
O267 O 0.16336 0.12747 0.91821 0.0
C268 C 0.18036 0.14589 0.93269 0.0
C269 C 0.08246 0.12928 0.89518 0.0
O270 O 0.14079 0.08417 0.86682 0.0
O271 O 0.13843 0.09814 1.01091 0.0
O272 O 0.12746 0.1007 0.69637 0.0
O273 O 0.14917 0.13712 0.71386 0.0
O274 O 0.08678 0.12063 0.81678 0.0
O275 O 0.10439 0.13352 0.93128 0.0
O276 O 0.11722 0.17848 0.98272 0.0
O277 O 0.13251 0.16871 0.84616 0.0
C278 C 0.14077 0.07913 0.94471 0.0
C279 C 0.12279 0.18579 0.90994 0.0
Dy280 Dy 0.63601 0.37215 0.49962 0.0
C281 C 0.6355 0.39153 0.85628 0.0
C282 C 0.63204 0.36941 0.3307 0.0
Dy283 Dy 0.63184 0.38789 0.68674 0.0
O284 O 0.65172 0.3796 0.37625 0.0
O285 O 0.6146 0.36001 0.37723 0.0
O286 O 0.67585 0.35395 0.5106 0.0
O287 O 0.66434 0.38715 0.59894 0.0
C288 C 0.68182 0.36929 0.58022 0.0
C289 C 0.58578 0.38953 0.60586 0.0
O290 O 0.6395 0.42866 0.65418 0.0
O291 O 0.6278 0.41583 0.51589 0.0
O292 O 0.61577 0.38139 0.81084 0.0
O293 O 0.65315 0.40031 0.8093 0.0
O294 O 0.59247 0.40635 0.67174 0.0
O295 O 0.60346 0.37178 0.58877 0.0
O296 O 0.62988 0.3314 0.52764 0.0
O297 O 0.63962 0.34335 0.66854 0.0
C298 C 0.63397 0.43453 0.57946 0.0
C299 C 0.63543 0.32508 0.60135 0.0
Dy300 Dy 0.37769 0.89001 0.27916 0.0
C301 C 0.36752 0.90705 0.64556 0.0
C302 C 0.37956 0.8803 0.11026 0.0
Dy303 Dy 0.37017 0.89305 0.4772 0.0
O304 O 0.3584 0.88652 0.15463 0.0
O305 O 0.39977 0.87816 0.15841 0.0
O306 O 0.37681 0.93551 0.28307 0.0
O307 O 0.37357 0.9196 0.38936 0.0
C308 C 0.37414 0.94131 0.3632 0.0
C309 C 0.37489 0.84159 0.40324 0.0
O310 O 0.32839 0.89696 0.42951 0.0
O311 O 0.33641 0.8762 0.29289 0.0
O312 O 0.38914 0.90239 0.60249 0.0
O313 O 0.34717 0.90537 0.596 0.0
O314 O 0.37138 0.84925 0.48252 0.0
O315 O 0.37493 0.86198 0.36796 0.0
O316 O 0.4188 0.88312 0.3189 0.0
O317 O 0.41388 0.90076 0.46021 0.0
C318 C 0.31995 0.88545 0.35442 0.0
C319 C 0.42887 0.89184 0.39377 0.0
H320 H 0.12501 0.60336 0.80101 0.0
H321 H 0.18716 0.66228 0.84479 0.0
H322 H 0.18678 0.66694 0.69783 0.0
H323 H 0.1685 0.65468 0.55658 0.0
H324 H 0.10601 0.5962 0.51218 0.0
H325 H 0.10662 0.59111 0.65908 0.0
C326 C 0.13857 0.61705 0.77806 0.0
C327 C 0.15616 0.63235 0.83352 0.0
C328 C 0.13803 0.61988 0.69337 0.0
C329 C 0.17347 0.65021 0.80323 0.0
C330 C 0.17323 0.65295 0.71921 0.0
C331 C 0.15496 0.64093 0.57926 0.0
C332 C 0.13719 0.62591 0.52379 0.0
C333 C 0.1555 0.63802 0.66376 0.0
C334 C 0.11983 0.60805 0.55382 0.0
C335 C 0.12021 0.60507 0.63778 0.0
H336 H 0.67043 0.90773 0.98328 0.0
H337 H 0.59837 0.86171 0.97329 0.0
H338 H 0.59335 0.86467 0.82544 0.0
H339 H 0.60984 0.87971 0.69934 0.0
H340 H 0.68202 0.92547 0.70803 0.0
H341 H 0.68643 0.92372 0.85717 0.0
C342 C 0.65367 0.89829 0.94857 0.0
C343 C 0.63485 0.88436 0.98864 0.0
C344 C 0.65084 0.9003 0.86401 0.0
C345 C 0.61314 0.87239 0.94344 0.0
C346 C 0.61024 0.87418 0.85915 0.0
C347 C 0.62641 0.88954 0.73405 0.0
C348 C 0.64558 0.90277 0.69308 0.0
C349 C 0.62897 0.88807 0.81893 0.0
C350 C 0.66697 0.91532 0.73854 0.0
C351 C 0.66956 0.91416 0.82352 0.0
H352 H 0.35211 0.40082 0.28185 0.0
H353 H 0.42574 0.35744 0.27638 0.0
H354 H 0.43244 0.36221 0.13053 0.0
H355 H 0.41749 0.37896 1.00476 0.0
H356 H 0.34372 0.42204 1.00952 0.0
H357 H 0.33705 0.41744 0.15565 0.0
C358 C 0.36953 0.39226 0.24848 0.0
C359 C 0.38836 0.37866 0.28964 0.0
C360 C 0.37333 0.39528 0.16482 0.0
C361 C 0.41092 0.36786 0.24592 0.0
C362 C 0.4148 0.37068 0.16264 0.0
C363 C 0.40004 0.38749 0.038 0.0
C364 C 0.38119 0.40097 0.99665 0.0
C365 C 0.39621 0.38446 0.12159 0.0
C366 C 0.35857 0.41171 0.04019 0.0
C367 C 0.35471 0.40899 0.12361 0.0
H368 H 0.91516 0.11804 0.52021 0.0
H369 H 0.83105 0.12951 0.55468 0.0
H370 H 0.82678 0.13788 0.41115 0.0
H371 H 0.8473 0.14254 0.276 0.0
H372 H 0.93161 0.13171 0.24395 0.0
H373 H 0.93552 0.12267 0.38632 0.0
C374 C 0.89587 0.12216 0.49607 0.0
C375 C 0.87344 0.12302 0.54773 0.0
C376 C 0.89366 0.12733 0.4141 0.0
C377 C 0.84859 0.12858 0.51587 0.0
C378 C 0.84617 0.13349 0.43396 0.0
C379 C 0.86653 0.1384 0.30054 0.0
C380 C 0.88919 0.138 0.24974 0.0
C381 C 0.86862 0.13312 0.38264 0.0
C382 C 0.91394 0.13238 0.28203 0.0
C383 C 0.91616 0.12708 0.36332 0.0
H384 H 0.15434 0.41895 0.2601 0.0
H385 H 0.13002 0.33663 0.19297 0.0
H386 H 0.12375 0.33334 0.33955 0.0
H387 H 0.12497 0.35382 0.48756 0.0
H388 H 0.14981 0.4359 0.55563 0.0
H389 H 0.15592 0.43937 0.4088 0.0
C390 C 0.14779 0.40031 0.27783 0.0
C391 C 0.1427 0.37809 0.21597 0.0
C392 C 0.14415 0.39853 0.36255 0.0
C393 C 0.13414 0.35404 0.23956 0.0
C394 C 0.13047 0.35213 0.32339 0.0
C395 C 0.13157 0.37247 0.47004 0.0
C396 C 0.1368 0.39458 0.53208 0.0
C397 C 0.13531 0.37426 0.38548 0.0
C398 C 0.14556 0.4186 0.50879 0.0
C399 C 0.14913 0.4206 0.42485 0.0
H400 H 0.90122 0.91148 0.75573 0.0
H401 H 0.87472 0.82947 0.71163 0.0
H402 H 0.8665 0.83225 0.56501 0.0
H403 H 0.86667 0.85812 0.44991 0.0
H404 H 0.89328 0.94009 0.49405 0.0
H405 H 0.90103 0.93746 0.64099 0.0
C406 C 0.89396 0.89411 0.71373 0.0
C407 C 0.88886 0.87019 0.74397 0.0
C408 C 0.88882 0.89605 0.63016 0.0
C409 C 0.87905 0.84799 0.68938 0.0
C410 C 0.87416 0.84965 0.60583 0.0
C411 C 0.87384 0.87551 0.49199 0.0
C412 C 0.87924 0.89933 0.46156 0.0
C413 C 0.87878 0.87364 0.57574 0.0
C414 C 0.88881 0.92161 0.51636 0.0
C415 C 0.89343 0.92004 0.6001 0.0
H416 H 0.35806 0.61599 0.77755 0.0
H417 H 0.41746 0.67797 0.80524 0.0
H418 H 0.4207 0.67621 0.95415 0.0
H419 H 0.40706 0.65693 0.07487 0.0
H420 H 0.34859 0.59415 0.04945 0.0
H421 H 0.34455 0.59618 0.90005 0.0
C422 C 0.3716 0.62919 0.81646 0.0
C423 C 0.38743 0.64722 0.78108 0.0
C424 C 0.37356 0.6278 0.90166 0.0
C425 C 0.40508 0.66402 0.83147 0.0
C426 C 0.40694 0.66299 0.91637 0.0
C427 C 0.39339 0.64367 0.03674 0.0
C428 C 0.37809 0.62542 0.07268 0.0
C429 C 0.39135 0.64492 0.95185 0.0
C430 C 0.36055 0.60831 0.02274 0.0
C431 C 0.35825 0.60953 0.93764 0.0
H432 H 0.65613 0.09303 0.99566 0.0
H433 H 0.61921 0.1708 0.02424 0.0
H434 H 0.61967 0.17372 0.17604 0.0
H435 H 0.63054 0.1541 0.29994 0.0
H436 H 0.66704 0.07615 0.27182 0.0
H437 H 0.6668 0.07326 0.11987 0.0
C438 C 0.64819 0.11061 0.03521 0.0
C439 C 0.63764 0.1317 0.99917 0.0
C440 C 0.64845 0.11206 0.12211 0.0
C441 C 0.6274 0.15435 0.0508 0.0
C442 C 0.62767 0.15601 0.13743 0.0
C443 C 0.63844 0.13647 0.26051 0.0
C444 C 0.64883 0.11535 0.29668 0.0
C445 C 0.63814 0.13498 0.17365 0.0
C446 C 0.65896 0.09262 0.24514 0.0
C447 C 0.65882 0.091 0.15845 0.0
H448 H 0.90356 0.39214 0.22047 0.0
H449 H 0.82052 0.41167 0.21984 0.0
H450 H 0.81763 0.4097 0.36912 0.0
H451 H 0.83854 0.40075 0.49818 0.0
H452 H 0.92078 0.37767 0.49543 0.0
H453 H 0.92421 0.38228 0.3485 0.0
C454 C 0.88496 0.39635 0.25351 0.0
C455 C 0.86234 0.4024 0.21023 0.0
C456 C 0.88327 0.3941 0.33808 0.0
C457 C 0.83818 0.4072 0.25265 0.0
C458 C 0.83652 0.40593 0.33762 0.0
C459 C 0.85717 0.3967 0.46519 0.0
C460 C 0.87939 0.38891 0.50707 0.0
C461 C 0.85887 0.39906 0.38066 0.0
C462 C 0.90341 0.38358 0.46402 0.0
C463 C 0.9054 0.38634 0.38029 0.0
H464 H 0.40218 0.10776 0.30537 0.0
H465 H 0.33016 0.15384 0.34611 0.0
H466 H 0.32951 0.1593 0.19983 0.0
H467 H 0.34962 0.15142 0.05989 0.0
H468 H 0.42204 0.10603 0.01903 0.0
H469 H 0.42248 0.10007 0.16508 0.0
C470 C 0.38627 0.11878 0.28186 0.0
C471 C 0.36618 0.13023 0.33629 0.0
C472 C 0.38622 0.1222 0.19763 0.0
C473 C 0.34581 0.14474 0.30533 0.0
C474 C 0.34546 0.14796 0.2217 0.0
C475 C 0.36555 0.14036 0.0832 0.0
C476 C 0.38579 0.12927 0.02888 0.0
C477 C 0.36563 0.13693 0.16732 0.0
C478 C 0.40626 0.11487 0.05975 0.0
C479 C 0.40649 0.11136 0.14323 0.0
H480 H 0.60111 0.62635 0.02193 0.0
H481 H 0.68471 0.6114 0.0421 0.0
H482 H 0.69143 0.61845 0.89834 0.0
H483 H 0.67353 0.62928 0.767 0.0
H484 H 0.58997 0.64452 0.74738 0.0
H485 H 0.58324 0.63714 0.89074 0.0
C486 C 0.62075 0.62443 0.99454 0.0
C487 C 0.64235 0.6182 0.04229 0.0
C488 C 0.6245 0.62882 0.91218 0.0
C489 C 0.66773 0.61597 1.00633 0.0
C490 C 0.6716 0.62014 0.92429 0.0
C491 C 0.6539 0.63118 0.79443 0.0
C492 C 0.6323 0.63763 0.74696 0.0
C493 C 0.65016 0.62673 0.87676 0.0
C494 C 0.60694 0.63982 0.78295 0.0
C495 C 0.60306 0.63546 0.86476 0.0
H496 H 0.10787 0.90005 0.50011 0.0
H497 H 0.19164 0.88592 0.4666 0.0
H498 H 0.1952 0.87711 0.60993 0.0
H499 H 0.17411 0.87259 0.74359 0.0
H500 H 0.0897 0.8833 0.77253 0.0
H501 H 0.08656 0.89382 0.63146 0.0
C502 C 0.12694 0.8954 0.5248 0.0
C503 C 0.14957 0.89406 0.47401 0.0
C504 C 0.12857 0.8893 0.60567 0.0
C505 C 0.17406 0.88732 0.50537 0.0
C506 C 0.17604 0.88214 0.58692 0.0
C507 C 0.15502 0.87704 0.71863 0.0
C508 C 0.13215 0.87716 0.76804 0.0
C509 C 0.15337 0.88283 0.63733 0.0
C510 C 0.10753 0.88291 0.73526 0.0
C511 C 0.10576 0.88911 0.65493 0.0
H512 H 0.89374 0.66135 0.79915 0.0
H513 H 0.84969 0.58767 0.77761 0.0
H514 H 0.85108 0.58301 0.62525 0.0
H515 H 0.865 0.6 0.49876 0.0
H516 H 0.90956 0.67341 0.52117 0.0
H517 H 0.90794 0.67808 0.67323 0.0
C518 C 0.88439 0.6443 0.76104 0.0
C519 C 0.87155 0.62491 0.79907 0.0
C520 C 0.88548 0.64171 0.67401 0.0
C521 C 0.85963 0.60286 0.74935 0.0
C522 C 0.86046 0.60019 0.66245 0.0
C523 C 0.8744 0.61697 0.53706 0.0
C524 C 0.88741 0.63634 0.49926 0.0
C525 C 0.87338 0.61948 0.62419 0.0
C526 C 0.89949 0.65825 0.54918 0.0
C527 C 0.89852 0.66094 0.63595 0.0
H528 H 0.15834 0.15631 0.57609 0.0
H529 H 0.11945 0.07955 0.53823 0.0
H530 H 0.11311 0.08211 0.39071 0.0
H531 H 0.1174 0.10685 0.27314 0.0
H532 H 0.15669 0.18338 0.31053 0.0
H533 H 0.16377 0.18046 0.45759 0.0
C534 C 0.14878 0.14 0.53525 0.0
C535 C 0.13947 0.11771 0.56794 0.0
C536 C 0.14488 0.14179 0.45069 0.0
C537 C 0.12693 0.09684 0.51447 0.0
C538 C 0.12313 0.09838 0.43022 0.0
C539 C 0.1273 0.12298 0.31374 0.0
C540 C 0.13622 0.14547 0.28137 0.0
C541 C 0.1317 0.12093 0.39788 0.0
C542 C 0.14943 0.166 0.33424 0.0
C543 C 0.1536 0.16426 0.4182 0.0
H544 H 0.66531 0.39287 0.23388 0.0
H545 H 0.59187 0.34924 0.22727 0.0
H546 H 0.58612 0.35297 0.08023 0.0
H547 H 0.602 0.36866 0.95371 0.0
H548 H 0.67558 0.41202 0.95983 0.0
H549 H 0.68118 0.40863 0.10726 0.0
C550 C 0.64812 0.38407 0.20006 0.0
C551 C 0.62908 0.37067 0.24108 0.0
C552 C 0.6449 0.38644 0.11578 0.0
C553 C 0.60683 0.35953 0.19684 0.0
C554 C 0.60351 0.36174 0.1129 0.0
C555 C 0.61919 0.37749 0.9875 0.0
C556 C 0.63831 0.39068 0.94622 0.0
C557 C 0.62238 0.3752 0.07183 0.0
C558 C 0.66056 0.40188 0.99046 0.0
C559 C 0.66379 0.39986 0.0746 0.0
H560 H 0.34067 0.89503 0.01437 0.0
H561 H 0.4225 0.87032 1.00801 0.0
H562 H 0.42645 0.87865 0.86448 0.0
H563 H 0.4067 0.89346 0.74236 0.0
H564 H 0.32469 0.91753 0.74791 0.0
H565 H 0.32089 0.90976 0.89211 0.0
C566 C 0.35929 0.89119 0.9812 0.0
C567 C 0.38125 0.88193 0.02108 0.0
C568 C 0.36149 0.8965 0.89973 0.0
C569 C 0.40531 0.87725 0.97801 0.0
C570 C 0.40762 0.88224 0.89642 0.0
C571 C 0.3881 0.89739 0.77559 0.0
C572 C 0.36603 0.90629 0.7353 0.0
C573 C 0.38591 0.89214 0.85714 0.0
C574 C 0.34195 0.91091 0.77829 0.0
C575 C 0.33974 0.90624 0.86024 0.0
H576 H 0.12365 0.7044 0.09029 0.0
H577 H 0.1636 0.72027 0.32686 0.0
H578 H 0.15687 0.7686 0.33247 0.0
H579 H 0.14414 0.80607 0.26161 0.0
H580 H 0.10694 0.78948 0.01955 0.0
H581 H 0.10803 0.74168 0.02438 0.0
C582 C 0.13025 0.71852 0.14397 0.0
C583 C 0.14378 0.70908 0.20863 0.0
C584 C 0.12718 0.74607 0.14491 0.0
C585 C 0.15279 0.72728 0.27719 0.0
C586 C 0.14915 0.75483 0.27984 0.0
C587 C 0.13589 0.79206 0.21041 0.0
C588 C 0.12565 0.80144 0.13995 0.0
C589 C 0.13706 0.76446 0.21281 0.0
C590 C 0.11515 0.7829 0.07418 0.0
C591 C 0.11573 0.75552 0.0769 0.0
H592 H 0.55206 0.90246 0.47256 0.0
H593 H 0.55522 0.86124 0.2178 0.0
H594 H 0.50727 0.85961 0.21222 0.0
H595 H 0.46448 0.87084 0.27613 0.0
H596 H 0.45953 0.91238 0.52984 0.0
H597 H 0.50798 0.9128 0.53917 0.0
C598 C 0.54222 0.89298 0.41612 0.0
C599 C 0.55739 0.88218 0.34554 0.0
C600 C 0.51427 0.89225 0.41278 0.0
C601 C 0.54423 0.86999 0.27289 0.0
C602 C 0.5167 0.86899 0.2695 0.0
C603 C 0.47384 0.88005 0.33376 0.0
C604 C 0.45822 0.89173 0.40195 0.0
C605 C 0.50155 0.88029 0.33855 0.0
C606 C 0.47096 0.90329 0.47614 0.0
C607 C 0.49872 0.90355 0.4815 0.0
H608 H 0.40747 0.30114 0.74835 0.0
H609 H 0.34368 0.30619 0.57582 0.0
H610 H 0.33111 0.2601 0.58136 0.0
H611 H 0.33937 0.21802 0.6282 0.0
H612 H 0.40593 0.2094 0.78725 0.0
H613 H 0.41605 0.25729 0.79582 0.0
C614 C 0.39082 0.292 0.71242 0.0
C615 C 0.37652 0.30685 0.66136 0.0
C616 C 0.38418 0.26498 0.71384 0.0
C617 C 0.35505 0.29497 0.61475 0.0
C618 C 0.34781 0.26869 0.61819 0.0
C619 C 0.35603 0.22652 0.66547 0.0
C620 C 0.37189 0.21008 0.70699 0.0
C621 C 0.36239 0.25345 0.66658 0.0
C622 C 0.39335 0.22161 0.75493 0.0
C623 C 0.39922 0.24894 0.75927 0.0
H624 H 0.96298 0.15748 0.94477 0.0
H625 H 0.95807 0.07157 0.88071 0.0
H626 H 1.00579 0.06778 0.89683 0.0
H627 H 0.04925 0.08905 0.90329 0.0
H628 H 0.05568 0.17473 0.96057 0.0
H629 H 1.0073 0.17865 0.97431 0.0
C630 C 0.97236 0.13797 0.93682 0.0
C631 C 0.95715 0.11481 0.9106 0.0
C632 C 1.00014 0.13596 0.94411 0.0
C633 C 0.96947 0.08964 0.89999 0.0
C634 C 0.99676 0.08745 0.90902 0.0
C635 C 0.04004 0.10847 0.92217 0.0
C636 C 0.05579 0.13152 0.932 0.0
C637 C 0.01237 0.11048 0.9274 0.0
C638 C 0.04383 0.1567 0.95458 0.0
C639 C 0.01617 0.15891 0.96119 0.0
H640 H 0.11341 0.31114 0.94604 0.0
H641 H 0.16235 0.29648 0.72627 0.0
H642 H 0.15696 0.24801 0.71954 0.0
H643 H 0.14281 0.21031 0.78663 0.0
H644 H 0.09701 0.22555 0.01408 0.0
H645 H 0.09663 0.27333 1.00763 0.0
C646 C 0.12217 0.29722 0.89532 0.0
C647 C 0.13778 0.30707 0.83565 0.0
C648 C 0.11997 0.26958 0.89443 0.0
C649 C 0.1498 0.28914 0.7716 0.0
C650 C 0.14695 0.26152 0.76847 0.0
C651 C 0.13239 0.22399 0.83419 0.0
C652 C 0.12011 0.21432 0.90118 0.0
C653 C 0.13276 0.25154 0.83111 0.0
C654 C 0.10681 0.23242 0.9623 0.0
C655 C 0.10655 0.25977 0.95859 0.0
H656 H 0.05157 0.85171 0.08024 0.0
H657 H 0.06378 0.93683 0.13901 0.0
H658 H 0.01667 0.94473 0.12014 0.0
H659 H 0.97142 0.92713 0.1177 0.0
H660 H 0.95816 0.8422 0.06312 0.0
H661 H 1.00601 0.83431 0.04801 0.0
C662 C 0.04398 0.87193 0.08504 0.0
C663 C 0.06099 0.89373 0.11037 0.0
C664 C 0.01657 0.87628 0.07641 0.0
C665 C 0.05098 0.91985 0.11866 0.0
C666 C 0.02401 0.92435 0.10871 0.0
C667 C 0.97903 0.907 0.09876 0.0
C668 C 0.96149 0.88529 0.09081 0.0
C669 C 1.00648 0.90271 0.09196 0.0
C670 C 0.97138 0.85921 0.06794 0.0
C671 C 0.99876 0.85472 0.06048 0.0
H672 H 0.3708 0.71725 0.30464 0.0
H673 H 0.42749 0.72538 0.5058 0.0
H674 H 0.42988 0.77333 0.5067 0.0
H675 H 0.41165 0.81339 0.46467 0.0
H676 H 0.35281 0.80737 0.27153 0.0
H677 H 0.35599 0.75817 0.2509 0.0
C678 C 0.38397 0.72949 0.34767 0.0
C679 C 0.39865 0.71774 0.40608 0.0
C680 C 0.3849 0.75741 0.34899 0.0
C681 C 0.41565 0.73389 0.46127 0.0
C682 C 0.41712 0.76134 0.46164 0.0
C683 C 0.40014 0.80127 0.41613 0.0
C684 C 0.3822 0.81378 0.36921 0.0
C685 C 0.40128 0.77336 0.40771 0.0
C686 C 0.36713 0.79807 0.30718 0.0
C687 C 0.36867 0.76998 0.29655 0.0
H688 H 0.55265 0.15711 0.72446 0.0
H689 H 0.55789 0.09973 0.49737 0.0
H690 H 0.50948 0.09996 0.48421 0.0
H691 H 0.46524 0.1143 0.5442 0.0
H692 H 0.46185 0.1719 0.77189 0.0
H693 H 0.5098 0.17383 0.77721 0.0
C694 C 0.54328 0.14466 0.67182 0.0
C695 C 0.55885 0.12815 0.61268 0.0
C696 C 0.51563 0.14492 0.66478 0.0
C697 C 0.54634 0.11256 0.54406 0.0
C698 C 0.51865 0.11265 0.53663 0.0
C699 C 0.47505 0.12757 0.59406 0.0
C700 C 0.45988 0.14268 0.65802 0.0
C701 C 0.503 0.12846 0.59746 0.0
C702 C 0.47293 0.15976 0.72235 0.0
C703 C 0.50043 0.16091 0.72563 0.0
H704 H 0.87048 0.21294 0.7744 0.0
H705 H 0.92371 0.2212 0.98461 0.0
H706 H 0.92662 0.26915 0.98541 0.0
H707 H 0.90914 0.30912 0.94094 0.0
H708 H 0.85304 0.30287 0.73988 0.0
H709 H 0.85673 0.25372 0.71853 0.0
C710 C 0.88306 0.22523 0.81932 0.0
C711 C 0.89654 0.2136 0.88029 0.0
C712 C 0.88413 0.25309 0.82078 0.0
C713 C 0.91277 0.22971 0.93808 0.0
C714 C 0.91454 0.25713 0.93839 0.0
C715 C 0.89835 0.29694 0.89069 0.0
C716 C 0.88093 0.30931 0.84185 0.0
C717 C 0.89963 0.26908 0.88205 0.0
C718 C 0.86688 0.29362 0.77726 0.0
C719 C 0.8687 0.26558 0.76616 0.0
H720 H 0.67689 0.80287 0.43797 0.0
H721 H 0.62446 0.80567 0.23121 0.0
H722 H 0.61921 0.75663 0.21235 0.0
H723 H 0.62521 0.71384 0.26912 0.0
H724 H 0.67441 0.71459 0.4862 0.0
H725 H 0.68515 0.76137 0.48727 0.0
C726 C 0.66469 0.7927 0.38757 0.0
C727 C 0.65098 0.8077 0.33628 0.0
C728 C 0.6608 0.76517 0.38039 0.0
C729 C 0.6354 0.7944 0.27091 0.0
C730 C 0.63213 0.76646 0.2611 0.0
C731 C 0.63843 0.72434 0.31591 0.0
C732 C 0.6487 0.71103 0.37845 0.0
C733 C 0.64398 0.75175 0.31765 0.0
C734 C 0.66587 0.72463 0.43867 0.0
C735 C 0.67216 0.75131 0.43901 0.0
H736 H 0.90639 0.70653 0.07515 0.0
H737 H 0.85379 0.71815 0.28648 0.0
H738 H 0.85848 0.76691 0.29876 0.0
H739 H 0.87306 0.8058 0.23717 0.0
H740 H 0.92254 0.79321 0.01736 0.0
H741 H 0.92366 0.7453 0.02036 0.0
C742 C 0.89664 0.71985 0.12532 0.0
C743 C 0.88017 0.70912 0.18082 0.0
C744 C 0.8985 0.74762 0.12924 0.0
C745 C 0.86694 0.72624 0.24426 0.0
C746 C 0.86943 0.75401 0.25057 0.0
C747 C 0.88446 0.79262 0.19082 0.0
C748 C 0.89749 0.80304 0.12664 0.0
C749 C 0.88447 0.76492 0.19163 0.0
C750 C 0.91206 0.78568 0.06678 0.0
C751 C 0.91277 0.75827 0.06853 0.0
H752 H 0.6761 0.20715 0.55809 0.0
H753 H 0.62203 0.20343 0.76131 0.0
H754 H 0.61244 0.25148 0.77016 0.0
H755 H 0.61781 0.29398 0.71265 0.0
H756 H 0.66798 0.29392 0.49779 0.0
H757 H 0.68059 0.24768 0.50018 0.0
C758 C 0.66235 0.21675 0.60506 0.0
C759 C 0.64983 0.20179 0.65924 0.0
C760 C 0.65601 0.24364 0.60665 0.0
C761 C 0.63196 0.21462 0.71915 0.0
C762 C 0.6264 0.24199 0.72378 0.0
C763 C 0.63145 0.28366 0.66663 0.0
C764 C 0.64186 0.29704 0.60466 0.0
C765 C 0.63797 0.25661 0.66669 0.0
C766 C 0.65949 0.28374 0.54512 0.0
C767 C 0.66682 0.25742 0.54679 0.0
H768 H 0.96264 0.40261 0.9904 0.0
H769 H 0.95598 0.34897 0.75507 0.0
H770 H 1.00358 0.34486 0.74554 0.0
H771 H 0.04727 0.35821 0.79743 0.0
H772 H 0.05619 0.41076 0.03283 0.0
H773 H 1.00784 0.41328 0.04927 0.0
C774 C 0.97165 0.3898 0.93775 0.0
C775 C 0.95558 0.37654 0.87299 0.0
C776 C 0.99953 0.38738 0.93216 0.0
C777 C 0.96767 0.35987 0.80532 0.0
C778 C 0.99502 0.35739 0.7996 0.0
C779 C 0.03869 0.37018 0.85258 0.0
C780 C 0.05525 0.38453 0.91321 0.0
C781 C 0.01112 0.37144 0.86155 0.0
C782 C 0.04381 0.39954 0.98505 0.0
C783 C 0.01617 0.40106 0.9943 0.0
H784 H 0.47275 0.66428 0.45321 0.0
H785 H 0.45902 0.57929 0.41404 0.0
H786 H 0.5065 0.57097 0.42225 0.0
H787 H 0.5517 0.58761 0.41097 0.0
H788 H 0.56622 0.67245 0.44633 0.0
H789 H 0.51884 0.68131 0.4702 0.0
C790 C 0.4802 0.64407 0.45061 0.0
C791 C 0.46263 0.62238 0.43395 0.0
C792 C 0.50769 0.63946 0.45239 0.0
C793 C 0.47232 0.59621 0.42814 0.0
C794 C 0.49946 0.59146 0.43169 0.0
C795 C 0.5445 0.60802 0.42628 0.0
C796 C 0.56215 0.62934 0.42575 0.0
C797 C 0.51734 0.61286 0.4392 0.0
C798 C 0.55286 0.65574 0.44631 0.0
C799 C 0.52577 0.66078 0.45941 0.0
H800 H 0.46564 0.35884 0.58917 0.0
H801 H 0.4593 0.44487 0.6323 0.0
H802 H 0.50659 0.4489 0.60781 0.0
H803 H 0.55047 0.42845 0.60011 0.0
H804 H 0.55831 0.34268 0.56072 0.0
H805 H 0.50995 0.3379 0.55657 0.0
C806 C 0.47457 0.37834 0.59021 0.0
C807 C 0.45921 0.40157 0.61319 0.0
C808 C 0.50213 0.38055 0.57834 0.0
C809 C 0.4709 0.42677 0.61526 0.0
C810 C 0.49795 0.42911 0.60174 0.0
C811 C 0.54153 0.40872 0.58834 0.0
C812 C 0.55772 0.386 0.58169 0.0
C813 C 0.5139 0.40622 0.58729 0.0
C814 C 0.54612 0.36048 0.56593 0.0
C815 C 0.51847 0.35776 0.56425 0.0
H816 H 0.0568 0.61334 0.03879 0.0
H817 H 0.06155 0.67259 0.26234 0.0
H818 H 0.01377 0.67686 0.26632 0.0
H819 H 0.97063 0.66148 0.21492 0.0
H820 H 0.96361 0.60239 0.99259 0.0
H821 H 0.01211 0.60057 0.97882 0.0
C822 C 0.0473 0.62746 0.08732 0.0
C823 C 0.06273 0.64231 0.15084 0.0
C824 C 0.01941 0.6297 0.09003 0.0
C825 C 0.05017 0.66056 0.21345 0.0
C826 C 0.0228 0.66309 0.2159 0.0
C827 C 0.97966 0.64824 0.16311 0.0
C828 C 0.96364 0.6318 0.10565 0.0
C829 C 1.00724 0.64729 0.15599 0.0
C830 C 0.9756 0.6152 0.03787 0.0
C831 C 1.00331 0.61409 0.03023 0.0
H832 H 0.1039 0.54238 0.13235 0.0
H833 H 0.18461 0.55953 0.07316 0.0
H834 H 0.18948 0.51435 0.99312 0.0
H835 H 0.17025 0.47005 0.93719 0.0
H836 H 0.08821 0.45502 0.98501 0.0
H837 H 0.08436 0.49899 0.07327 0.0
C838 C 0.12255 0.53616 0.10199 0.0
C839 C 0.1439 0.5541 0.10885 0.0
C840 C 0.12497 0.51044 0.05461 0.0
C841 C 0.16788 0.546 0.06855 0.0
C842 C 0.1707 0.52016 0.02308 0.0
C843 C 0.15171 0.47641 0.96802 0.0
C844 C 0.12962 0.45942 0.95615 0.0
C845 C 0.14936 0.50219 0.01557 0.0
C846 C 0.10545 0.46788 0.99422 0.0
C847 C 0.10324 0.49299 0.04428 0.0
H848 H 0.71427 0.88432 0.1663 0.0
H849 H 0.74282 0.88817 0.41744 0.0
H850 H 0.78886 0.88888 0.36619 0.0
H851 H 0.82098 0.88589 0.24542 0.0
H852 H 0.7891 0.88159 0.99726 0.0
H853 H 0.74447 0.88363 0.0521 0.0
C854 C 0.73047 0.8852 0.21041 0.0
C855 C 0.72509 0.88565 0.29541 0.0
C856 C 0.75641 0.88551 0.18063 0.0
C857 C 0.74641 0.88763 0.35154 0.0
C858 C 0.77271 0.88794 0.32206 0.0
C859 C 0.8042 0.88559 0.2039 0.0
C860 C 0.80844 0.88331 0.11703 0.0
C861 C 0.77801 0.88652 0.23616 0.0
C862 C 0.7865 0.88303 0.064 0.0
C863 C 0.76087 0.88423 0.09526 0.0
H864 H 0.3857 0.45884 0.4717 0.0
H865 H 0.38342 0.49154 0.73449 0.0
H866 H 0.38311 0.53689 0.70067 0.0
H867 H 0.38391 0.56684 0.5971 0.0
H868 H 0.38577 0.53412 0.33427 0.0
H869 H 0.38571 0.48878 0.36809 0.0
C870 C 0.3852 0.47581 0.52205 0.0
C871 C 0.38475 0.47169 0.60595 0.0
C872 C 0.38492 0.5017 0.50207 0.0
C873 C 0.38381 0.49405 0.66967 0.0
C874 C 0.38366 0.51996 0.65024 0.0
C875 C 0.38437 0.54988 0.54675 0.0
C876 C 0.38501 0.554 0.46285 0.0
C877 C 0.38429 0.52398 0.56671 0.0
C878 C 0.38527 0.53163 0.39909 0.0
C879 C 0.38529 0.50571 0.41852 0.0
H880 H 0.81683 0.1101 0.77779 0.0
H881 H 0.79808 0.18184 0.951 0.0
H882 H 0.75439 0.18335 0.88845 0.0
H883 H 0.72067 0.16302 0.791 0.0
H884 H 0.73873 0.09222 0.61355 0.0
H885 H 0.78397 0.09208 0.66919 0.0
C886 C 0.80332 0.12628 0.80082 0.0
C887 C 0.81066 0.14581 0.86921 0.0
C888 C 0.77822 0.12723 0.76363 0.0
C889 C 0.79288 0.16653 0.89882 0.0
C890 C 0.7679 0.16743 0.863 0.0
C891 C 0.73458 0.14767 0.76387 0.0
C892 C 0.72634 0.12746 0.69899 0.0
C893 C 0.76025 0.1477 0.79634 0.0
C894 C 0.74466 0.10799 0.66348 0.0
C895 C 0.77041 0.10781 0.6958 0.0
H896 H 0.87378 0.53435 0.16467 0.0
H897 H 0.90335 0.57606 0.97375 0.0
H898 H 0.90527 0.53398 0.8746 0.0
H899 H 0.89801 0.48509 0.84227 0.0
H900 H 0.86299 0.44482 0.02875 0.0
H901 H 0.86397 0.48617 0.12998 0.0
C902 C 0.88066 0.53405 0.1013 0.0
C903 C 0.88859 0.55795 0.07611 0.0
C904 C 0.88088 0.50998 0.04424 0.0
C905 C 0.89718 0.55772 0.99398 0.0
C906 C 0.89831 0.5337 0.9375 0.0
C907 C 0.89076 0.48544 0.90524 0.0
C908 C 0.88102 0.46185 0.9289 0.0
C909 C 0.89019 0.50967 0.96191 0.0
C910 C 0.87109 0.46262 1.00989 0.0
C911 C 0.87148 0.4863 0.06759 0.0
H912 H 0.20065 0.11117 0.79787 0.0
H913 H 0.21782 0.18349 0.9705 0.0
H914 H 0.26199 0.18488 0.91258 0.0
H915 H 0.29688 0.16435 0.82127 0.0
H916 H 0.28173 0.09263 0.64512 0.0
H917 H 0.23562 0.09236 0.6948 0.0
C918 C 0.21406 0.12729 0.82206 0.0
C919 C 0.20606 0.14698 0.88941 0.0
C920 C 0.23979 0.12805 0.78806 0.0
C921 C 0.22351 0.16792 0.91953 0.0
C922 C 0.24884 0.16877 0.88642 0.0
C923 C 0.28346 0.1487 0.79323 0.0
C924 C 0.29273 0.12834 0.73055 0.0
C925 C 0.25734 0.14872 0.82207 0.0
C926 C 0.27501 0.10852 0.69362 0.0
C927 C 0.24873 0.10831 0.72243 0.0
H928 H 0.63725 0.55787 0.56096 0.0
H929 H 0.63211 0.52697 0.29735 0.0
H930 H 0.63138 0.48127 0.32788 0.0
H931 H 0.63201 0.45054 0.4288 0.0
H932 H 0.63789 0.48131 0.69231 0.0
H933 H 0.63856 0.52706 0.66189 0.0
C934 C 0.63587 0.54122 0.5098 0.0
C935 C 0.63456 0.54591 0.42667 0.0
C936 C 0.63562 0.51511 0.52784 0.0
C937 C 0.63312 0.52398 0.36166 0.0
C938 C 0.63267 0.49787 0.37918 0.0
C939 C 0.63335 0.46718 0.48003 0.0
C940 C 0.63472 0.46245 0.5631 0.0
C941 C 0.63386 0.49327 0.462 0.0
C942 C 0.63677 0.48434 0.62806 0.0
C943 C 0.63712 0.51047 0.6106 0.0
H944 H 0.29621 0.84799 0.24214 0.0
H945 H 0.27956 0.91963 0.41763 0.0
H946 H 0.23461 0.92095 0.36059 0.0
H947 H 0.20178 0.90403 0.24963 0.0
H948 H 0.21985 0.83202 0.0766 0.0
H949 H 0.26258 0.82883 0.14297 0.0
C950 C 0.28265 0.86375 0.26882 0.0
C951 C 0.29131 0.88382 0.33354 0.0
C952 C 0.2572 0.86456 0.23498 0.0
C953 C 0.27337 0.90386 0.36805 0.0
C954 C 0.24776 0.90476 0.33478 0.0
C955 C 0.21495 0.88746 0.22741 0.0
C956 C 0.20767 0.86838 0.15769 0.0
C957 C 0.2397 0.88561 0.26653 0.0
C958 C 0.22498 0.84707 0.12957 0.0
C959 C 0.24945 0.84518 0.16761 0.0
H960 H 0.61725 0.95553 0.47846 0.0
H961 H 0.67731 0.97763 0.31393 0.0
H962 H 0.67863 0.02293 0.39412 0.0
H963 H 0.66261 0.05626 0.51078 0.0
H964 H 0.6012 0.03491 0.67193 0.0
H965 H 0.60052 0.98928 0.59363 0.0
C966 C 0.63064 0.97029 0.4604 0.0
C967 C 0.64718 0.96334 0.39057 0.0
C968 C 0.63102 0.99638 0.50612 0.0
C969 C 0.66439 0.98259 0.3675 0.0
C970 C 0.66514 1.00846 0.41327 0.0
C971 C 0.649 0.04163 0.52842 0.0
C972 C 0.63196 0.04887 0.59682 0.0
C973 C 0.64851 0.0156 0.48254 0.0
C974 C 0.61447 0.02976 0.61932 0.0
C975 C 0.6141 1.00369 0.57467 0.0
H976 H 0.23769 0.41209 0.87451 0.0
H977 H 0.21175 0.33579 0.74188 0.0
H978 H 0.25449 0.32882 0.67147 0.0
H979 H 0.29756 0.3464 0.63637 0.0
H980 H 0.32348 0.42333 0.76445 0.0
H981 H 0.28283 0.4281 0.84756 0.0
C982 C 0.24179 0.39369 0.83195 0.0
C983 C 0.22175 0.37442 0.81352 0.0
C984 C 0.26627 0.39015 0.78953 0.0
C985 C 0.227 0.35085 0.75703 0.0
C986 C 0.25135 0.34692 0.71631 0.0
C987 C 0.29433 0.36411 0.68283 0.0
C988 C 0.31333 0.38456 0.69372 0.0
C989 C 0.27083 0.36678 0.73003 0.0
C990 C 0.30907 0.4073 0.75478 0.0
C991 C 0.2858 0.41007 0.80232 0.0
H992 H 0.87623 0.95345 0.93107 0.0
H993 H 0.87443 0.98435 0.1952 0.0
H994 H 0.87221 0.03002 0.16486 0.0
H995 H 0.87266 0.06084 0.06404 0.0
H996 H 0.87491 0.03007 0.80001 0.0
H997 H 0.87492 0.98426 0.83007 0.0
C998 C 0.87532 0.9701 0.98241 0.0
C999 C 0.87571 0.9654 0.06565 0.0
C1000 C 0.87413 0.9962 0.96446 0.0
C1001 C 0.87416 0.98731 0.1308 0.0
C1002 C 0.87297 0.01342 0.1134 0.0
C1003 C 0.87307 0.04417 1.0127 0.0
C1004 C 0.87395 0.04892 0.9296 0.0
C1005 C 0.87322 0.01805 0.03053 0.0
C1006 C 0.87415 0.02701 0.86429 0.0
C1007 C 0.87427 1.00085 0.88157 0.0
H1008 H 0.22287 0.66594 0.33026 0.0
H1009 H 0.24306 0.59985 0.13759 0.0
H1010 H 0.28902 0.6013 0.18826 0.0
H1011 H 0.32234 0.61948 0.29575 0.0
H1012 H 0.30088 0.68637 0.48479 0.0
H1013 H 0.25645 0.68651 0.42714 0.0
C1014 C 0.23737 0.65192 0.29895 0.0
C1015 C 0.22961 0.63256 0.2312 0.0
C1016 C 0.26343 0.65295 0.32825 0.0
C1017 C 0.24864 0.61489 0.19005 0.0
C1018 C 0.27482 0.61565 0.21934 0.0
C1019 C 0.30797 0.63422 0.32354 0.0
C1020 C 0.31476 0.65269 0.39509 0.0
C1021 C 0.2823 0.63428 0.28961 0.0
C1022 C 0.29608 0.67183 0.43018 0.0
C1023 C 0.27065 0.67192 0.39732 0.0
H1024 H 0.38856 0.95743 0.52481 0.0
H1025 H 0.3566 0.98606 0.31052 0.0
H1026 H 0.35534 0.03177 0.38813 0.0
H1027 H 0.36469 0.06397 0.51601 0.0
H1028 H 0.40109 0.03603 0.72506 0.0
H1029 H 0.39933 0.9899 0.65114 0.0
C1030 C 0.38114 0.97371 0.49564 0.0
C1031 C 0.37246 0.96848 0.41252 0.0
C1032 C 0.38143 1.00011 0.53969 0.0
C1033 C 0.36331 0.9897 0.37463 0.0
C1034 C 0.36262 0.01581 0.41891 0.0
C1035 C 0.37213 0.04772 0.54524 0.0
C1036 C 0.38286 0.05331 0.62586 0.0
C1037 C 0.37183 0.02132 0.50127 0.0
C1038 C 0.39276 0.03219 0.66289 0.0
C1039 C 0.39172 1.0058 0.62074 0.0
H1040 H 0.78295 0.6042 0.15504 0.0
H1041 H 0.80708 0.68225 0.27935 0.0
H1042 H 0.76486 0.68827 0.35304 0.0
H1043 H 0.72327 0.66942 0.39423 0.0
H1044 H 0.69886 0.59098 0.27428 0.0
H1045 H 0.73872 0.58695 0.18698 0.0
C1046 C 0.77852 0.62277 0.19639 0.0
C1047 C 0.79793 0.6428 0.21177 0.0
C1048 C 0.75438 0.62578 0.24074 0.0
C1049 C 0.7923 0.66662 0.26663 0.0
C1050 C 0.76827 0.66999 0.30924 0.0
C1051 C 0.72665 0.65152 0.34866 0.0
C1052 C 0.70843 0.63041 0.34135 0.0
C1053 C 0.74956 0.64936 0.29901 0.0
C1054 C 0.71277 0.60746 0.28126 0.0
C1055 C 0.73554 0.60515 0.23134 0.0
H1056 H 0.14368 0.06247 0.09542 0.0
H1057 H 0.14273 0.03266 0.83054 0.0
H1058 H 0.14362 0.98676 0.85851 0.0
H1059 H 0.14308 0.95536 0.95733 0.0
H1060 H 0.14353 0.98489 0.2223 0.0
H1061 H 0.14452 0.03092 0.19457 0.0
C1062 C 0.14379 0.04602 0.04343 0.0
C1063 C 0.14304 0.05116 0.96066 0.0
C1064 C 0.14413 0.01968 0.05999 0.0
C1065 C 0.1433 0.02942 0.89466 0.0
C1066 C 0.14375 1.00314 0.91068 0.0
C1067 C 0.14342 0.97177 1.00947 0.0
C1068 C 0.14306 0.96654 0.09212 0.0
C1069 C 0.14389 0.99808 0.99303 0.0
C1070 C 0.14377 0.98822 0.15826 0.0
C1071 C 0.14429 0.01455 0.14235 0.0
H1072 H 0.69965 0.40008 0.72537 0.0
H1073 H 0.72035 0.33293 0.53619 0.0
H1074 H 0.76306 0.32925 0.60192 0.0
H1075 H 0.79581 0.34678 0.706 0.0
H1076 H 0.77661 0.41344 0.89784 0.0
H1077 H 0.73176 0.41511 0.84024 0.0
C1078 C 0.71344 0.38452 0.69929 0.0
C1079 C 0.70694 0.36702 0.62532 0.0
C1080 C 0.73816 0.38232 0.73812 0.0
C1081 C 0.72494 0.34686 0.59239 0.0
C1082 C 0.74939 0.34466 0.63008 0.0
C1083 C 0.78171 0.36148 0.736 0.0
C1084 C 0.78955 0.38011 0.80552 0.0
C1085 C 0.75636 0.36252 0.70194 0.0
C1086 C 0.77098 0.3988 0.84441 0.0
C1087 C 0.74545 0.39992 0.81089 0.0
loop_
_geom_bond_atom_site_label_1
_geom_bond_atom_site_label_2
_geom_bond_distance
_geom_bond_site_symmetry_2
_ccdc_geom_bond_type
Dy0 O4 2.398 1_554 S
Dy0 O5 2.491 1_554 S
Dy0 O6 2.403 . S
Dy0 O7 2.664 . S
Dy0 O11 2.326 . S
Dy0 O15 2.310 . S
Dy0 O16 2.351 . S
C1 O12 1.185 . S
C1 O13 1.355 . S
C2 O4 1.185 . S
C2 O5 1.355 . S
Dy3 O7 2.310 . S
Dy3 O10 2.351 . S
Dy3 O12 2.398 . S
Dy3 O13 2.491 . S
Dy3 O14 2.403 . S
Dy3 O15 2.664 . S
Dy3 O17 2.326 . S
O4 Dy0 2.398 1_556 S
O4 C2 1.185 . S
O5 Dy0 2.491 1_556 S
O5 C2 1.355 . S
O6 Dy0 2.403 . S
O6 C8 1.254 . S
O7 Dy0 2.664 . S
O7 Dy3 2.310 . S
O7 C8 1.268 . S
C8 O6 1.254 . S
C8 O7 1.268 . S
C9 O14 1.254 . S
C9 O15 1.268 . S
O10 Dy3 2.351 . S
O10 C18 1.249 . S
O11 Dy0 2.326 . S
O11 C18 1.267 . S
O12 C1 1.185 . S
O12 Dy3 2.398 . S
O13 C1 1.355 . S
O13 Dy3 2.491 . S
O14 Dy3 2.403 . S
O14 C9 1.254 . S
O15 Dy0 2.310 . S
O15 Dy3 2.664 . S
O15 C9 1.268 . S
O16 Dy0 2.351 . S
O16 C19 1.249 . S
O17 Dy3 2.326 . S
O17 C19 1.267 . S
C18 O10 1.249 . S
C18 O11 1.267 . S
C19 O16 1.249 . S
C19 O17 1.267 . S
Dy20 O24 2.398 . S
Dy20 O25 2.491 . S
Dy20 O26 2.403 . S
Dy20 O27 2.664 . S
Dy20 O31 2.326 . S
Dy20 O35 2.310 . S
Dy20 O36 2.351 . S
C21 O32 1.185 . S
C21 O33 1.355 . S
C22 O24 1.185 . S
C22 O25 1.355 . S
Dy23 O27 2.310 . S
Dy23 O30 2.351 . S
Dy23 O32 2.398 . S
Dy23 O33 2.491 . S
Dy23 O34 2.403 . S
Dy23 O35 2.664 . S
Dy23 O37 2.326 . S
O24 Dy20 2.398 . S
O24 C22 1.185 . S
O25 Dy20 2.491 . S
O25 C22 1.355 . S
O26 Dy20 2.403 . S
O26 C28 1.254 . S
O27 Dy20 2.664 . S
O27 Dy23 2.310 . S
O27 C28 1.268 . S
C28 O26 1.254 . S
C28 O27 1.268 . S
C29 O34 1.254 . S
C29 O35 1.268 . S
O30 Dy23 2.351 . S
O30 C38 1.249 . S
O31 Dy20 2.326 . S
O31 C38 1.267 . S
O32 C21 1.185 . S
O32 Dy23 2.398 . S
O33 C21 1.355 . S
O33 Dy23 2.491 . S
O34 Dy23 2.403 . S
O34 C29 1.254 . S
O35 Dy20 2.310 . S
O35 Dy23 2.664 . S
O35 C29 1.268 . S
O36 Dy20 2.351 . S
O36 C39 1.249 . S
O37 Dy23 2.326 . S
O37 C39 1.267 . S
C38 O30 1.249 . S
C38 O31 1.267 . S
C39 O36 1.249 . S
C39 O37 1.267 . S
Dy40 O44 2.398 . S
Dy40 O45 2.491 . S
Dy40 O46 2.403 . S
Dy40 O47 2.664 . S
Dy40 O51 2.326 . S
Dy40 O55 2.310 . S
Dy40 O56 2.351 . S
C41 O52 1.185 . S
C41 O53 1.355 . S
C42 O44 1.185 . S
C42 O45 1.355 . S
Dy43 O47 2.310 . S
Dy43 O50 2.351 . S
Dy43 O52 2.398 . S
Dy43 O53 2.491 . S
Dy43 O54 2.403 . S
Dy43 O55 2.664 . S
Dy43 O57 2.326 . S
O44 Dy40 2.398 . S
O44 C42 1.185 . S
O45 Dy40 2.491 . S
O45 C42 1.355 . S
O46 Dy40 2.403 . S
O46 C48 1.254 . S
O47 Dy40 2.664 . S
O47 Dy43 2.310 . S
O47 C48 1.268 . S
C48 O46 1.254 . S
C48 O47 1.268 . S
C49 O54 1.254 . S
C49 O55 1.268 . S
O50 Dy43 2.351 . S
O50 C58 1.249 . S
O51 Dy40 2.326 . S
O51 C58 1.267 . S
O52 C41 1.185 . S
O52 Dy43 2.398 . S
O53 C41 1.355 . S
O53 Dy43 2.491 . S
O54 Dy43 2.403 . S
O54 C49 1.254 . S
O55 Dy40 2.310 . S
O55 Dy43 2.664 . S
O55 C49 1.268 . S
O56 Dy40 2.351 . S
O56 C59 1.249 . S
O57 Dy43 2.326 . S
O57 C59 1.267 . S
C58 O50 1.249 . S
C58 O51 1.267 . S
C59 O56 1.249 . S
C59 O57 1.267 . S
Dy60 O64 2.398 . S
Dy60 O65 2.491 . S
Dy60 O66 2.403 . S
Dy60 O67 2.664 . S
Dy60 O71 2.326 . S
Dy60 O75 2.310 . S
Dy60 O76 2.351 . S
C61 O72 1.185 . S
C61 O73 1.355 . S
C62 O64 1.185 . S
C62 O65 1.355 . S
Dy63 O67 2.310 . S
Dy63 O70 2.351 . S
Dy63 O72 2.398 1_556 S
Dy63 O73 2.491 1_556 S
Dy63 O74 2.403 . S
Dy63 O75 2.664 . S
Dy63 O77 2.326 . S
O64 Dy60 2.398 . S
O64 C62 1.185 . S
O65 Dy60 2.491 . S
O65 C62 1.355 . S
O66 Dy60 2.403 . S
O66 C68 1.254 . S
O67 Dy60 2.664 . S
O67 Dy63 2.310 . S
O67 C68 1.268 . S
C68 O66 1.254 . S
C68 O67 1.268 . S
C69 O74 1.254 . S
C69 O75 1.268 . S
O70 Dy63 2.351 . S
O70 C78 1.249 . S
O71 Dy60 2.326 . S
O71 C78 1.267 . S
O72 C61 1.185 . S
O72 Dy63 2.398 1_554 S
O73 C61 1.355 . S
O73 Dy63 2.491 1_554 S
O74 Dy63 2.403 . S
O74 C69 1.254 . S
O75 Dy60 2.310 . S
O75 Dy63 2.664 . S
O75 C69 1.268 . S
O76 Dy60 2.351 . S
O76 C79 1.249 . S
O77 Dy63 2.326 . S
O77 C79 1.267 . S
C78 O70 1.249 . S
C78 O71 1.267 . S
C79 O76 1.249 . S
C79 O77 1.267 . S
Dy80 O84 2.398 1_556 S
Dy80 O85 2.491 1_556 S
Dy80 O86 2.403 . S
Dy80 O87 2.664 . S
Dy80 O91 2.326 . S
Dy80 O95 2.310 . S
Dy80 O96 2.351 . S
C81 O92 1.185 . S
C81 O93 1.355 . S
C82 O84 1.185 . S
C82 O85 1.355 . S
Dy83 O87 2.310 . S
Dy83 O90 2.351 . S
Dy83 O92 2.398 . S
Dy83 O93 2.491 . S
Dy83 O94 2.403 . S
Dy83 O95 2.664 . S
Dy83 O97 2.326 . S
O84 Dy80 2.398 1_554 S
O84 C82 1.185 . S
O85 Dy80 2.491 1_554 S
O85 C82 1.355 . S
O86 Dy80 2.403 . S
O86 C88 1.254 . S
O87 Dy80 2.664 . S
O87 Dy83 2.310 . S
O87 C88 1.268 . S
C88 O86 1.254 . S
C88 O87 1.268 . S
C89 O94 1.254 . S
C89 O95 1.268 . S
O90 Dy83 2.351 . S
O90 C98 1.249 . S
O91 Dy80 2.326 . S
O91 C98 1.267 . S
O92 C81 1.185 . S
O92 Dy83 2.398 . S
O93 C81 1.355 . S
O93 Dy83 2.491 . S
O94 Dy83 2.403 . S
O94 C89 1.254 . S
O95 Dy80 2.310 . S
O95 Dy83 2.664 . S
O95 C89 1.268 . S
O96 Dy80 2.351 . S
O96 C99 1.249 . S
O97 Dy83 2.326 . S
O97 C99 1.267 . S
C98 O90 1.249 . S
C98 O91 1.267 . S
C99 O96 1.249 . S
C99 O97 1.267 . S
Dy100 O104 2.398 . S
Dy100 O105 2.491 . S
Dy100 O106 2.403 . S
Dy100 O107 2.664 . S
Dy100 O111 2.326 . S
Dy100 O115 2.310 . S
Dy100 O116 2.351 . S
C101 O112 1.185 . S
C101 O113 1.355 . S
C102 O104 1.185 . S
C102 O105 1.355 . S
Dy103 O107 2.310 . S
Dy103 O110 2.351 . S
Dy103 O112 2.398 1_554 S
Dy103 O113 2.491 1_554 S
Dy103 O114 2.403 . S
Dy103 O115 2.664 . S
Dy103 O117 2.326 . S
O104 Dy100 2.398 . S
O104 C102 1.185 . S
O105 Dy100 2.491 . S
O105 C102 1.355 . S
O106 Dy100 2.403 . S
O106 C108 1.254 . S
O107 Dy100 2.664 . S
O107 Dy103 2.310 . S
O107 C108 1.268 . S
C108 O106 1.254 . S
C108 O107 1.268 . S
C109 O114 1.254 . S
C109 O115 1.268 . S
O110 Dy103 2.351 . S
O110 C118 1.249 . S
O111 Dy100 2.326 . S
O111 C118 1.267 . S
O112 C101 1.185 . S
O112 Dy103 2.398 1_556 S
O113 C101 1.355 . S
O113 Dy103 2.491 1_556 S
O114 Dy103 2.403 . S
O114 C109 1.254 . S
O115 Dy100 2.310 . S
O115 Dy103 2.664 . S
O115 C109 1.268 . S
O116 Dy100 2.351 . S
O116 C119 1.249 . S
O117 Dy103 2.326 . S
O117 C119 1.267 . S
C118 O110 1.249 . S
C118 O111 1.267 . S
C119 O116 1.249 . S
C119 O117 1.267 . S
Dy120 O124 2.398 . S
Dy120 O125 2.491 . S
Dy120 O126 2.403 . S
Dy120 O127 2.664 . S
Dy120 O131 2.326 . S
Dy120 O135 2.310 . S
Dy120 O136 2.351 . S
C121 O132 1.185 . S
C121 O133 1.355 . S
C122 O124 1.185 . S
C122 O125 1.355 . S
Dy123 O127 2.310 . S
Dy123 O130 2.351 . S
Dy123 O132 2.398 . S
Dy123 O133 2.491 . S
Dy123 O134 2.403 . S
Dy123 O135 2.664 . S
Dy123 O137 2.326 . S
O124 Dy120 2.398 . S
O124 C122 1.185 . S
O125 Dy120 2.491 . S
O125 C122 1.355 . S
O126 Dy120 2.403 . S
O126 C128 1.254 . S
O127 Dy120 2.664 . S
O127 Dy123 2.310 . S
O127 C128 1.268 . S
C128 O126 1.254 . S
C128 O127 1.268 . S
C129 O134 1.254 . S
C129 O135 1.268 . S
O130 Dy123 2.351 . S
O130 C138 1.249 . S
O131 Dy120 2.326 . S
O131 C138 1.267 . S
O132 C121 1.185 . S
O132 Dy123 2.398 . S
O133 C121 1.355 . S
O133 Dy123 2.491 . S
O134 Dy123 2.403 . S
O134 C129 1.254 . S
O135 Dy120 2.310 . S
O135 Dy123 2.664 . S
O135 C129 1.268 . S
O136 Dy120 2.351 . S
O136 C139 1.249 . S
O137 Dy123 2.326 . S
O137 C139 1.267 . S
C138 O130 1.249 . S
C138 O131 1.267 . S
C139 O136 1.249 . S
C139 O137 1.267 . S
Dy140 O144 2.398 . S
Dy140 O145 2.491 . S
Dy140 O146 2.403 . S
Dy140 O147 2.664 . S
Dy140 O151 2.326 . S
Dy140 O155 2.310 . S
Dy140 O156 2.351 . S
C141 O152 1.185 . S
C141 O153 1.355 . S
C142 O144 1.185 . S
C142 O145 1.355 . S
Dy143 O147 2.310 . S
Dy143 O150 2.351 . S
Dy143 O152 2.398 . S
Dy143 O153 2.491 . S
Dy143 O154 2.403 . S
Dy143 O155 2.664 . S
Dy143 O157 2.326 . S
O144 Dy140 2.398 . S
O144 C142 1.185 . S
O145 Dy140 2.491 . S
O145 C142 1.355 . S
O146 Dy140 2.403 . S
O146 C148 1.254 . S
O147 Dy140 2.664 . S
O147 Dy143 2.310 . S
O147 C148 1.268 . S
C148 O146 1.254 . S
C148 O147 1.268 . S
C149 O154 1.254 . S
C149 O155 1.268 . S
O150 Dy143 2.351 . S
O150 C158 1.249 . S
O151 Dy140 2.326 . S
O151 C158 1.267 . S
O152 C141 1.185 . S
O152 Dy143 2.398 . S
O153 C141 1.355 . S
O153 Dy143 2.491 . S
O154 Dy143 2.403 . S
O154 C149 1.254 . S
O155 Dy140 2.310 . S
O155 Dy143 2.664 . S
O155 C149 1.268 . S
O156 Dy140 2.351 . S
O156 C159 1.249 . S
O157 Dy143 2.326 . S
O157 C159 1.267 . S
C158 O150 1.249 . S
C158 O151 1.267 . S
C159 O156 1.249 . S
C159 O157 1.267 . S
Dy160 O164 2.398 . S
Dy160 O165 2.491 . S
Dy160 O166 2.403 . S
Dy160 O167 2.664 . S
Dy160 O171 2.326 . S
Dy160 O175 2.310 . S
Dy160 O176 2.351 . S
C161 O172 1.185 . S
C161 O173 1.355 . S
C162 O164 1.185 . S
C162 O165 1.355 . S
Dy163 O167 2.310 . S
Dy163 O170 2.351 . S
Dy163 O172 2.398 1_556 S
Dy163 O173 2.491 1_556 S
Dy163 O174 2.403 . S
Dy163 O175 2.664 . S
Dy163 O177 2.326 . S
O164 Dy160 2.398 . S
O164 C162 1.185 . S
O165 Dy160 2.491 . S
O165 C162 1.355 . S
O166 Dy160 2.403 . S
O166 C168 1.254 . S
O167 Dy160 2.664 . S
O167 Dy163 2.310 . S
O167 C168 1.268 . S
C168 O166 1.254 . S
C168 O167 1.268 . S
C169 O174 1.254 . S
C169 O175 1.268 . S
O170 Dy163 2.351 . S
O170 C178 1.249 . S
O171 Dy160 2.326 . S
O171 C178 1.267 . S
O172 C161 1.185 . S
O172 Dy163 2.398 1_554 S
O173 C161 1.355 . S
O173 Dy163 2.491 1_554 S
O174 Dy163 2.403 . S
O174 C169 1.254 . S
O175 Dy160 2.310 . S
O175 Dy163 2.664 . S
O175 C169 1.268 . S
O176 Dy160 2.351 . S
O176 C179 1.249 . S
O177 Dy163 2.326 . S
O177 C179 1.267 . S
C178 O170 1.249 . S
C178 O171 1.267 . S
C179 O176 1.249 . S
C179 O177 1.267 . S
Dy180 O184 2.398 . S
Dy180 O185 2.491 . S
Dy180 O186 2.403 . S
Dy180 O187 2.664 . S
Dy180 O191 2.326 . S
Dy180 O195 2.310 . S
Dy180 O196 2.351 . S
C181 O192 1.185 . S
C181 O193 1.355 . S
C182 O184 1.185 . S
C182 O185 1.355 . S
Dy183 O187 2.310 . S
Dy183 O190 2.351 . S
Dy183 O192 2.398 . S
Dy183 O193 2.491 . S
Dy183 O194 2.403 . S
Dy183 O195 2.664 . S
Dy183 O197 2.326 . S
O184 Dy180 2.398 . S
O184 C182 1.185 . S
O185 Dy180 2.491 . S
O185 C182 1.355 . S
O186 Dy180 2.403 . S
O186 C188 1.254 . S
O187 Dy180 2.664 . S
O187 Dy183 2.310 . S
O187 C188 1.268 . S
C188 O186 1.254 . S
C188 O187 1.268 . S
C189 O194 1.254 . S
C189 O195 1.268 . S
O190 Dy183 2.351 . S
O190 C198 1.249 . S
O191 Dy180 2.326 . S
O191 C198 1.267 . S
O192 C181 1.185 . S
O192 Dy183 2.398 . S
O193 C181 1.355 . S
O193 Dy183 2.491 . S
O194 Dy183 2.403 . S
O194 C189 1.254 . S
O195 Dy180 2.310 . S
O195 Dy183 2.664 . S
O195 C189 1.268 . S
O196 Dy180 2.351 . S
O196 C199 1.249 . S
O197 Dy183 2.326 . S
O197 C199 1.267 . S
C198 O190 1.249 . S
C198 O191 1.267 . S
C199 O196 1.249 . S
C199 O197 1.267 . S
Dy200 O204 2.398 . S
Dy200 O205 2.491 . S
Dy200 O206 2.403 . S
Dy200 O207 2.664 . S
Dy200 O211 2.326 . S
Dy200 O215 2.310 . S
Dy200 O216 2.351 . S
C201 O212 1.185 . S
C201 O213 1.355 . S
C202 O204 1.185 . S
C202 O205 1.355 . S
Dy203 O207 2.310 . S
Dy203 O210 2.351 . S
Dy203 O212 2.398 . S
Dy203 O213 2.491 . S
Dy203 O214 2.403 . S
Dy203 O215 2.664 . S
Dy203 O217 2.326 . S
O204 Dy200 2.398 . S
O204 C202 1.185 . S
O205 Dy200 2.491 . S
O205 C202 1.355 . S
O206 Dy200 2.403 . S
O206 C208 1.254 . S
O207 Dy200 2.664 . S
O207 Dy203 2.310 . S
O207 C208 1.268 . S
C208 O206 1.254 . S
C208 O207 1.268 . S
C209 O214 1.254 . S
C209 O215 1.268 . S
O210 Dy203 2.351 . S
O210 C218 1.249 . S
O211 Dy200 2.326 . S
O211 C218 1.267 . S
O212 C201 1.185 . S
O212 Dy203 2.398 . S
O213 C201 1.355 . S
O213 Dy203 2.491 . S
O214 Dy203 2.403 . S
O214 C209 1.254 . S
O215 Dy200 2.310 . S
O215 Dy203 2.664 . S
O215 C209 1.268 . S
O216 Dy200 2.351 . S
O216 C219 1.249 . S
O217 Dy203 2.326 . S
O217 C219 1.267 . S
C218 O210 1.249 . S
C218 O211 1.267 . S
C219 O216 1.249 . S
C219 O217 1.267 . S
Dy220 O224 2.398 1_554 S
Dy220 O225 2.491 1_554 S
Dy220 O226 2.403 . S
Dy220 O227 2.664 . S
Dy220 O231 2.326 . S
Dy220 O235 2.310 . S
Dy220 O236 2.351 . S
C221 O232 1.185 . S
C221 O233 1.355 . S
C222 O224 1.185 . S
C222 O225 1.355 . S
Dy223 O227 2.310 . S
Dy223 O230 2.351 . S
Dy223 O232 2.398 . S
Dy223 O233 2.491 . S
Dy223 O234 2.403 . S
Dy223 O235 2.664 . S
Dy223 O237 2.326 . S
O224 Dy220 2.398 1_556 S
O224 C222 1.185 . S
O225 Dy220 2.491 1_556 S
O225 C222 1.355 . S
O226 Dy220 2.403 . S
O226 C228 1.254 . S
O227 Dy220 2.664 . S
O227 Dy223 2.310 . S
O227 C228 1.268 . S
C228 O226 1.254 . S
C228 O227 1.268 . S
C229 O234 1.254 . S
C229 O235 1.268 . S
O230 Dy223 2.351 . S
O230 C238 1.249 . S
O231 Dy220 2.326 . S
O231 C238 1.267 . S
O232 C221 1.185 . S
O232 Dy223 2.398 . S
O233 C221 1.355 . S
O233 Dy223 2.491 . S
O234 Dy223 2.403 . S
O234 C229 1.254 . S
O235 Dy220 2.310 . S
O235 Dy223 2.664 . S
O235 C229 1.268 . S
O236 Dy220 2.351 . S
O236 C239 1.249 . S
O237 Dy223 2.326 . S
O237 C239 1.267 . S
C238 O230 1.249 . S
C238 O231 1.267 . S
C239 O236 1.249 . S
C239 O237 1.267 . S
Dy240 O244 2.398 . S
Dy240 O245 2.491 . S
Dy240 O246 2.403 . S
Dy240 O247 2.664 . S
Dy240 O251 2.326 . S
Dy240 O255 2.310 . S
Dy240 O256 2.351 . S
C241 O252 1.185 . S
C241 O253 1.355 . S
C242 O244 1.185 . S
C242 O245 1.355 . S
Dy243 O247 2.310 . S
Dy243 O250 2.351 . S
Dy243 O252 2.398 1_554 S
Dy243 O253 2.491 1_554 S
Dy243 O254 2.403 . S
Dy243 O255 2.664 . S
Dy243 O257 2.326 . S
O244 Dy240 2.398 . S
O244 C242 1.185 . S
O245 Dy240 2.491 . S
O245 C242 1.355 . S
O246 Dy240 2.403 . S
O246 C248 1.254 . S
O247 Dy240 2.664 . S
O247 Dy243 2.310 . S
O247 C248 1.268 . S
C248 O246 1.254 . S
C248 O247 1.268 . S
C249 O254 1.254 . S
C249 O255 1.268 . S
O250 Dy243 2.351 . S
O250 C258 1.249 . S
O251 Dy240 2.326 . S
O251 C258 1.267 . S
O252 C241 1.185 . S
O252 Dy243 2.398 1_556 S
O253 C241 1.355 . S
O253 Dy243 2.491 1_556 S
O254 Dy243 2.403 . S
O254 C249 1.254 . S
O255 Dy240 2.310 . S
O255 Dy243 2.664 . S
O255 C249 1.268 . S
O256 Dy240 2.351 . S
O256 C259 1.249 . S
O257 Dy243 2.326 . S
O257 C259 1.267 . S
C258 O250 1.249 . S
C258 O251 1.267 . S
C259 O256 1.249 . S
C259 O257 1.267 . S
Dy260 O264 2.398 1_556 S
Dy260 O265 2.491 1_556 S
Dy260 O266 2.403 . S
Dy260 O267 2.664 . S
Dy260 O271 2.326 . S
Dy260 O275 2.310 . S
Dy260 O276 2.351 . S
C261 O272 1.185 . S
C261 O273 1.355 . S
C262 O264 1.185 . S
C262 O265 1.355 . S
Dy263 O267 2.310 . S
Dy263 O270 2.351 . S
Dy263 O272 2.398 . S
Dy263 O273 2.491 . S
Dy263 O274 2.403 . S
Dy263 O275 2.664 . S
Dy263 O277 2.326 . S
O264 Dy260 2.398 1_554 S
O264 C262 1.185 . S
O265 Dy260 2.491 1_554 S
O265 C262 1.355 . S
O266 Dy260 2.403 . S
O266 C268 1.254 . S
O267 Dy260 2.664 . S
O267 Dy263 2.310 . S
O267 C268 1.268 . S
C268 O266 1.254 . S
C268 O267 1.268 . S
C269 O274 1.254 . S
C269 O275 1.268 . S
O270 Dy263 2.351 . S
O270 C278 1.249 . S
O271 Dy260 2.326 . S
O271 C278 1.267 . S
O272 C261 1.185 . S
O272 Dy263 2.398 . S
O273 C261 1.355 . S
O273 Dy263 2.491 . S
O274 Dy263 2.403 . S
O274 C269 1.254 . S
O275 Dy260 2.310 . S
O275 Dy263 2.664 . S
O275 C269 1.268 . S
O276 Dy260 2.351 . S
O276 C279 1.249 . S
O277 Dy263 2.326 . S
O277 C279 1.267 . S
C278 O270 1.249 . S
C278 O271 1.267 . S
C279 O276 1.249 . S
C279 O277 1.267 . S
Dy280 O284 2.398 . S
Dy280 O285 2.491 . S
Dy280 O286 2.403 . S
Dy280 O287 2.664 . S
Dy280 O291 2.326 . S
Dy280 O295 2.310 . S
Dy280 O296 2.351 . S
C281 O292 1.185 . S
C281 O293 1.355 . S
C282 O284 1.185 . S
C282 O285 1.355 . S
Dy283 O287 2.310 . S
Dy283 O290 2.351 . S
Dy283 O292 2.398 . S
Dy283 O293 2.491 . S
Dy283 O294 2.403 . S
Dy283 O295 2.664 . S
Dy283 O297 2.326 . S
O284 Dy280 2.398 . S
O284 C282 1.185 . S
O285 Dy280 2.491 . S
O285 C282 1.355 . S
O286 Dy280 2.403 . S
O286 C288 1.254 . S
O287 Dy280 2.664 . S
O287 Dy283 2.310 . S
O287 C288 1.268 . S
C288 O286 1.254 . S
C288 O287 1.268 . S
C289 O294 1.254 . S
C289 O295 1.268 . S
O290 Dy283 2.351 . S
O290 C298 1.249 . S
O291 Dy280 2.326 . S
O291 C298 1.267 . S
O292 C281 1.185 . S
O292 Dy283 2.398 . S
O293 C281 1.355 . S
O293 Dy283 2.491 . S
O294 Dy283 2.403 . S
O294 C289 1.254 . S
O295 Dy280 2.310 . S
O295 Dy283 2.664 . S
O295 C289 1.268 . S
O296 Dy280 2.351 . S
O296 C299 1.249 . S
O297 Dy283 2.326 . S
O297 C299 1.267 . S
C298 O290 1.249 . S
C298 O291 1.267 . S
C299 O296 1.249 . S
C299 O297 1.267 . S
Dy300 O304 2.398 . S
Dy300 O305 2.491 . S
Dy300 O306 2.403 . S
Dy300 O307 2.664 . S
Dy300 O311 2.326 . S
Dy300 O315 2.310 . S
Dy300 O316 2.351 . S
C301 O312 1.185 . S
C301 O313 1.355 . S
C302 O304 1.185 . S
C302 O305 1.355 . S
Dy303 O307 2.310 . S
Dy303 O310 2.351 . S
Dy303 O312 2.398 . S
Dy303 O313 2.491 . S
Dy303 O314 2.403 . S
Dy303 O315 2.664 . S
Dy303 O317 2.326 . S
O304 Dy300 2.398 . S
O304 C302 1.185 . S
O305 Dy300 2.491 . S
O305 C302 1.355 . S
O306 Dy300 2.403 . S
O306 C308 1.254 . S
O307 Dy300 2.664 . S
O307 Dy303 2.310 . S
O307 C308 1.268 . S
C308 O306 1.254 . S
C308 O307 1.268 . S
C309 O314 1.254 . S
C309 O315 1.268 . S
O310 Dy303 2.351 . S
O310 C318 1.249 . S
O311 Dy300 2.326 . S
O311 C318 1.267 . S
O312 C301 1.185 . S
O312 Dy303 2.398 . S
O313 C301 1.355 . S
O313 Dy303 2.491 . S
O314 Dy303 2.403 . S
O314 C309 1.254 . S
O315 Dy300 2.310 . S
O315 Dy303 2.664 . S
O315 C309 1.268 . S
O316 Dy300 2.351 . S
O316 C319 1.249 . S
O317 Dy303 2.326 . S
O317 C319 1.267 . S
C318 O310 1.249 . S
C318 O311 1.267 . S
C319 O316 1.249 . S
C319 O317 1.267 . S
H320 C326 0.930 . S
H321 C329 0.930 . S
H322 C330 0.930 . S
H323 C331 0.930 . S
H324 C334 0.930 . S
H325 C335 0.930 . S
C326 H320 0.930 . S
C326 C327 1.355 . S
C326 C328 1.415 . S
C327 C326 1.355 . S
C327 C329 1.419 . S
C328 C326 1.415 . S
C328 C333 1.425 . S
C328 C335 1.409 . S
C329 H321 0.930 . S
C329 C327 1.419 . S
C329 C330 1.362 . S
C330 H322 0.930 . S
C330 C329 1.362 . S
C330 C333 1.409 . S
C331 H323 0.930 . S
C331 C332 1.355 . S
C331 C333 1.415 . S
C332 C331 1.355 . S
C332 C334 1.419 . S
C333 C328 1.425 . S
C333 C330 1.409 . S
C333 C331 1.415 . S
C334 H324 0.930 . S
C334 C332 1.419 . S
C334 C335 1.362 . S
C335 H325 0.930 . S
C335 C328 1.409 . S
C335 C334 1.362 . S
H336 C342 0.930 . S
H337 C345 0.930 . S
H338 C346 0.930 . S
H339 C347 0.930 . S
H340 C350 0.930 . S
H341 C351 0.930 . S
C342 H336 0.930 . S
C342 C343 1.355 1_556 S
C342 C344 1.415 . S
C343 C342 1.355 1_554 S
C343 C345 1.419 . S
C344 C342 1.415 . S
C344 C349 1.425 . S
C344 C351 1.409 . S
C345 H337 0.930 . S
C345 C343 1.419 . S
C345 C346 1.362 1_554 S
C346 H338 0.930 . S
C346 C345 1.362 1_556 S
C346 C349 1.409 . S
C347 H339 0.930 . S
C347 C348 1.355 . S
C347 C349 1.415 . S
C348 C347 1.355 . S
C348 C350 1.419 . S
C349 C344 1.425 . S
C349 C346 1.409 . S
C349 C347 1.415 . S
C350 H340 0.930 . S
C350 C348 1.419 . S
C350 C351 1.362 . S
C351 H341 0.930 . S
C351 C344 1.409 . S
C351 C350 1.362 . S
H352 C358 0.930 . S
H353 C361 0.930 . S
H354 C362 0.930 . S
H355 C363 0.930 . S
H356 C366 0.930 . S
H357 C367 0.930 . S
C358 H352 0.930 . S
C358 C359 1.355 . S
C358 C360 1.415 . S
C359 C358 1.355 . S
C359 C361 1.419 . S
C360 C358 1.415 . S
C360 C365 1.425 . S
C360 C367 1.409 . S
C361 H353 0.930 . S
C361 C359 1.419 . S
C361 C362 1.362 . S
C362 H354 0.930 . S
C362 C361 1.362 . S
C362 C365 1.409 . S
C363 H355 0.930 . S
C363 C364 1.355 1_554 S
C363 C365 1.415 . S
C364 C363 1.355 1_556 S
C364 C366 1.419 . S
C365 C360 1.425 . S
C365 C362 1.409 . S
C365 C363 1.415 . S
C366 H356 0.930 . S
C366 C364 1.419 . S
C366 C367 1.362 1_556 S
C367 H357 0.930 . S
C367 C360 1.409 . S
C367 C366 1.362 1_554 S
H368 C374 0.930 . S
H369 C377 0.930 . S
H370 C378 0.930 . S
H371 C379 0.930 . S
H372 C382 0.930 . S
H373 C383 0.930 . S
C374 H368 0.930 . S
C374 C375 1.355 . S
C374 C376 1.415 . S
C375 C374 1.355 . S
C375 C377 1.419 . S
C376 C374 1.415 . S
C376 C381 1.425 . S
C376 C383 1.409 . S
C377 H369 0.930 . S
C377 C375 1.419 . S
C377 C378 1.362 . S
C378 H370 0.930 . S
C378 C377 1.362 . S
C378 C381 1.409 . S
C379 H371 0.930 . S
C379 C380 1.355 . S
C379 C381 1.415 . S
C380 C379 1.355 . S
C380 C382 1.419 . S
C381 C376 1.425 . S
C381 C378 1.409 . S
C381 C379 1.415 . S
C382 H372 0.930 . S
C382 C380 1.419 . S
C382 C383 1.362 . S
C383 H373 0.930 . S
C383 C376 1.409 . S
C383 C382 1.362 . S
H384 C390 0.930 . S
H385 C393 0.930 . S
H386 C394 0.930 . S
H387 C395 0.930 . S
H388 C398 0.930 . S
H389 C399 0.930 . S
C390 H384 0.930 . S
C390 C391 1.355 . S
C390 C392 1.415 . S
C391 C390 1.355 . S
C391 C393 1.419 . S
C392 C390 1.415 . S
C392 C397 1.425 . S
C392 C399 1.409 . S
C393 H385 0.930 . S
C393 C391 1.419 . S
C393 C394 1.362 . S
C394 H386 0.930 . S
C394 C393 1.362 . S
C394 C397 1.409 . S
C395 H387 0.930 . S
C395 C396 1.355 . S
C395 C397 1.415 . S
C396 C395 1.355 . S
C396 C398 1.419 . S
C397 C392 1.425 . S
C397 C394 1.409 . S
C397 C395 1.415 . S
C398 H388 0.930 . S
C398 C396 1.419 . S
C398 C399 1.362 . S
C399 H389 0.930 . S
C399 C392 1.409 . S
C399 C398 1.362 . S
H400 C406 0.930 . S
H401 C409 0.930 . S
H402 C410 0.930 . S
H403 C411 0.930 . S
H404 C414 0.930 . S
H405 C415 0.930 . S
C406 H400 0.930 . S
C406 C407 1.355 . S
C406 C408 1.415 . S
C407 C406 1.355 . S
C407 C409 1.419 . S
C408 C406 1.415 . S
C408 C413 1.425 . S
C408 C415 1.409 . S
C409 H401 0.930 . S
C409 C407 1.419 . S
C409 C410 1.362 . S
C410 H402 0.930 . S
C410 C409 1.362 . S
C410 C413 1.409 . S
C411 H403 0.930 . S
C411 C412 1.355 . S
C411 C413 1.415 . S
C412 C411 1.355 . S
C412 C414 1.419 . S
C413 C408 1.425 . S
C413 C410 1.409 . S
C413 C411 1.415 . S
C414 H404 0.930 . S
C414 C412 1.419 . S
C414 C415 1.362 . S
C415 H405 0.930 . S
C415 C408 1.409 . S
C415 C414 1.362 . S
H416 C422 0.930 . S
H417 C425 0.930 . S
H418 C426 0.930 . S
H419 C427 0.930 . S
H420 C430 0.930 1_554 S
H421 C431 0.930 . S
C422 H416 0.930 . S
C422 C423 1.355 . S
C422 C424 1.415 . S
C423 C422 1.355 . S
C423 C425 1.419 . S
C424 C422 1.415 . S
C424 C429 1.425 . S
C424 C431 1.409 . S
C425 H417 0.930 . S
C425 C423 1.419 . S
C425 C426 1.362 . S
C426 H418 0.930 . S
C426 C425 1.362 . S
C426 C429 1.409 . S
C427 H419 0.930 . S
C427 C428 1.355 1_556 S
C427 C429 1.415 . S
C428 C427 1.355 1_554 S
C428 C430 1.419 1_554 S
C429 C424 1.425 . S
C429 C426 1.409 . S
C429 C427 1.415 . S
C430 H420 0.930 1_556 S
C430 C428 1.419 1_556 S
C430 C431 1.362 . S
C431 H421 0.930 . S
C431 C424 1.409 . S
C431 C430 1.362 . S
H432 C438 0.930 1_556 S
H433 C441 0.930 . S
H434 C442 0.930 . S
H435 C443 0.930 . S
H436 C446 0.930 . S
H437 C447 0.930 . S
C438 H432 0.930 1_554 S
C438 C439 1.355 1_554 S
C438 C440 1.415 . S
C439 C438 1.355 1_556 S
C439 C441 1.419 1_556 S
C440 C438 1.415 . S
C440 C445 1.425 . S
C440 C447 1.409 . S
C441 H433 0.930 . S
C441 C439 1.419 1_554 S
C441 C442 1.362 . S
C442 H434 0.930 . S
C442 C441 1.362 . S
C442 C445 1.409 . S
C443 H435 0.930 . S
C443 C444 1.355 . S
C443 C445 1.415 . S
C444 C443 1.355 . S
C444 C446 1.419 . S
C445 C440 1.425 . S
C445 C442 1.409 . S
C445 C443 1.415 . S
C446 H436 0.930 . S
C446 C444 1.419 . S
C446 C447 1.362 . S
C447 H437 0.930 . S
C447 C440 1.409 . S
C447 C446 1.362 . S
H448 C454 0.930 . S
H449 C457 0.930 . S
H450 C458 0.930 . S
H451 C459 0.930 . S
H452 C462 0.930 . S
H453 C463 0.930 . S
C454 H448 0.930 . S
C454 C455 1.355 . S
C454 C456 1.415 . S
C455 C454 1.355 . S
C455 C457 1.419 . S
C456 C454 1.415 . S
C456 C461 1.425 . S
C456 C463 1.409 . S
C457 H449 0.930 . S
C457 C455 1.419 . S
C457 C458 1.362 . S
C458 H450 0.930 . S
C458 C457 1.362 . S
C458 C461 1.409 . S
C459 H451 0.930 . S
C459 C460 1.355 . S
C459 C461 1.415 . S
C460 C459 1.355 . S
C460 C462 1.419 . S
C461 C456 1.425 . S
C461 C458 1.409 . S
C461 C459 1.415 . S
C462 H452 0.930 . S
C462 C460 1.419 . S
C462 C463 1.362 . S
C463 H453 0.930 . S
C463 C456 1.409 . S
C463 C462 1.362 . S
H464 C470 0.930 . S
H465 C473 0.930 . S
H466 C474 0.930 . S
H467 C475 0.930 . S
H468 C478 0.930 . S
H469 C479 0.930 . S
C470 H464 0.930 . S
C470 C471 1.355 . S
C470 C472 1.415 . S
C471 C470 1.355 . S
C471 C473 1.419 . S
C472 C470 1.415 . S
C472 C477 1.425 . S
C472 C479 1.409 . S
C473 H465 0.930 . S
C473 C471 1.419 . S
C473 C474 1.362 . S
C474 H466 0.930 . S
C474 C473 1.362 . S
C474 C477 1.409 . S
C475 H467 0.930 . S
C475 C476 1.355 1_554 S
C475 C477 1.415 . S
C476 C475 1.355 1_556 S
C476 C478 1.419 . S
C477 C472 1.425 . S
C477 C474 1.409 . S
C477 C475 1.415 . S
C478 H468 0.930 . S
C478 C476 1.419 . S
C478 C479 1.362 1_556 S
C479 H469 0.930 . S
C479 C472 1.409 . S
C479 C478 1.362 1_554 S
H480 C486 0.930 . S
H481 C489 0.930 1_554 S
H482 C490 0.930 . S
H483 C491 0.930 . S
H484 C494 0.930 . S
H485 C495 0.930 . S
C486 H480 0.930 . S
C486 C487 1.355 1_556 S
C486 C488 1.415 . S
C487 C486 1.355 1_554 S
C487 C489 1.419 1_554 S
C488 C486 1.415 . S
C488 C493 1.425 . S
C488 C495 1.409 . S
C489 H481 0.930 1_556 S
C489 C487 1.419 1_556 S
C489 C490 1.362 . S
C490 H482 0.930 . S
C490 C489 1.362 . S
C490 C493 1.409 . S
C491 H483 0.930 . S
C491 C492 1.355 . S
C491 C493 1.415 . S
C492 C491 1.355 . S
C492 C494 1.419 . S
C493 C488 1.425 . S
C493 C490 1.409 . S
C493 C491 1.415 . S
C494 H484 0.930 . S
C494 C492 1.419 . S
C494 C495 1.362 . S
C495 H485 0.930 . S
C495 C488 1.409 . S
C495 C494 1.362 . S
H496 C502 0.930 . S
H497 C505 0.930 . S
H498 C506 0.930 . S
H499 C507 0.930 . S
H500 C510 0.930 . S
H501 C511 0.930 . S
C502 H496 0.930 . S
C502 C503 1.355 . S
C502 C504 1.415 . S
C503 C502 1.355 . S
C503 C505 1.419 . S
C504 C502 1.415 . S
C504 C509 1.425 . S
C504 C511 1.409 . S
C505 H497 0.930 . S
C505 C503 1.419 . S
C505 C506 1.362 . S
C506 H498 0.930 . S
C506 C505 1.362 . S
C506 C509 1.409 . S
C507 H499 0.930 . S
C507 C508 1.355 . S
C507 C509 1.415 . S
C508 C507 1.355 . S
C508 C510 1.419 . S
C509 C504 1.425 . S
C509 C506 1.409 . S
C509 C507 1.415 . S
C510 H500 0.930 . S
C510 C508 1.419 . S
C510 C511 1.362 . S
C511 H501 0.930 . S
C511 C504 1.409 . S
C511 C510 1.362 . S
H512 C518 0.930 . S
H513 C521 0.930 . S
H514 C522 0.930 . S
H515 C523 0.930 . S
H516 C526 0.930 . S
H517 C527 0.930 . S
C518 H512 0.930 . S
C518 C519 1.355 . S
C518 C520 1.415 . S
C519 C518 1.355 . S
C519 C521 1.419 . S
C520 C518 1.415 . S
C520 C525 1.425 . S
C520 C527 1.409 . S
C521 H513 0.930 . S
C521 C519 1.419 . S
C521 C522 1.362 . S
C522 H514 0.930 . S
C522 C521 1.362 . S
C522 C525 1.409 . S
C523 H515 0.930 . S
C523 C524 1.355 . S
C523 C525 1.415 . S
C524 C523 1.355 . S
C524 C526 1.419 . S
C525 C520 1.425 . S
C525 C522 1.409 . S
C525 C523 1.415 . S
C526 H516 0.930 . S
C526 C524 1.419 . S
C526 C527 1.362 . S
C527 H517 0.930 . S
C527 C520 1.409 . S
C527 C526 1.362 . S
H528 C534 0.930 . S
H529 C537 0.930 . S
H530 C538 0.930 . S
H531 C539 0.930 . S
H532 C542 0.930 . S
H533 C543 0.930 . S
C534 H528 0.930 . S
C534 C535 1.355 . S
C534 C536 1.415 . S
C535 C534 1.355 . S
C535 C537 1.419 . S
C536 C534 1.415 . S
C536 C541 1.425 . S
C536 C543 1.409 . S
C537 H529 0.930 . S
C537 C535 1.419 . S
C537 C538 1.362 . S
C538 H530 0.930 . S
C538 C537 1.362 . S
C538 C541 1.409 . S
C539 H531 0.930 . S
C539 C540 1.355 . S
C539 C541 1.415 . S
C540 C539 1.355 . S
C540 C542 1.419 . S
C541 C536 1.425 . S
C541 C538 1.409 . S
C541 C539 1.415 . S
C542 H532 0.930 . S
C542 C540 1.419 . S
C542 C543 1.362 . S
C543 H533 0.930 . S
C543 C536 1.409 . S
C543 C542 1.362 . S
H544 C550 0.930 . S
H545 C553 0.930 . S
H546 C554 0.930 . S
H547 C555 0.930 . S
H548 C558 0.930 1_556 S
H549 C559 0.930 . S
C550 H544 0.930 . S
C550 C551 1.355 . S
C550 C552 1.415 . S
C551 C550 1.355 . S
C551 C553 1.419 . S
C552 C550 1.415 . S
C552 C557 1.425 . S
C552 C559 1.409 . S
C553 H545 0.930 . S
C553 C551 1.419 . S
C553 C554 1.362 . S
C554 H546 0.930 . S
C554 C553 1.362 . S
C554 C557 1.409 . S
C555 H547 0.930 . S
C555 C556 1.355 1_554 S
C555 C557 1.415 . S
C556 C555 1.355 1_556 S
C556 C558 1.419 1_556 S
C557 C552 1.425 . S
C557 C554 1.409 . S
C557 C555 1.415 . S
C558 H548 0.930 1_554 S
C558 C556 1.419 1_554 S
C558 C559 1.362 . S
C559 H549 0.930 . S
C559 C552 1.409 . S
C559 C558 1.362 . S
H560 C566 0.930 . S
H561 C569 0.930 . S
H562 C570 0.930 . S
H563 C571 0.930 . S
H564 C574 0.930 . S
H565 C575 0.930 . S
C566 H560 0.930 . S
C566 C567 1.355 1_556 S
C566 C568 1.415 . S
C567 C566 1.355 1_554 S
C567 C569 1.419 . S
C568 C566 1.415 . S
C568 C573 1.425 . S
C568 C575 1.409 . S
C569 H561 0.930 . S
C569 C567 1.419 . S
C569 C570 1.362 1_554 S
C570 H562 0.930 . S
C570 C569 1.362 1_556 S
C570 C573 1.409 . S
C571 H563 0.930 . S
C571 C572 1.355 . S
C571 C573 1.415 . S
C572 C571 1.355 . S
C572 C574 1.419 . S
C573 C568 1.425 . S
C573 C570 1.409 . S
C573 C571 1.415 . S
C574 H564 0.930 . S
C574 C572 1.419 . S
C574 C575 1.362 . S
C575 H565 0.930 . S
C575 C568 1.409 . S
C575 C574 1.362 . S
H576 C582 0.930 . S
H577 C585 0.930 . S
H578 C586 0.930 . S
H579 C587 0.930 . S
H580 C590 0.930 . S
H581 C591 0.930 . S
C582 H576 0.930 . S
C582 C583 1.355 . S
C582 C584 1.415 . S
C583 C582 1.355 . S
C583 C585 1.419 . S
C584 C582 1.415 . S
C584 C589 1.425 . S
C584 C591 1.409 . S
C585 H577 0.930 . S
C585 C583 1.419 . S
C585 C586 1.362 . S
C586 H578 0.930 . S
C586 C585 1.362 . S
C586 C589 1.409 . S
C587 H579 0.930 . S
C587 C588 1.355 . S
C587 C589 1.415 . S
C588 C587 1.355 . S
C588 C590 1.419 . S
C589 C584 1.425 . S
C589 C586 1.409 . S
C589 C587 1.415 . S
C590 H580 0.930 . S
C590 C588 1.419 . S
C590 C591 1.362 . S
C591 H581 0.930 . S
C591 C584 1.409 . S
C591 C590 1.362 . S
H592 C598 0.930 . S
H593 C601 0.930 . S
H594 C602 0.930 . S
H595 C603 0.930 . S
H596 C606 0.930 . S
H597 C607 0.930 . S
C598 H592 0.930 . S
C598 C599 1.355 . S
C598 C600 1.415 . S
C599 C598 1.355 . S
C599 C601 1.419 . S
C600 C598 1.415 . S
C600 C605 1.425 . S
C600 C607 1.409 . S
C601 H593 0.930 . S
C601 C599 1.419 . S
C601 C602 1.362 . S
C602 H594 0.930 . S
C602 C601 1.362 . S
C602 C605 1.409 . S
C603 H595 0.930 . S
C603 C604 1.355 . S
C603 C605 1.415 . S
C604 C603 1.355 . S
C604 C606 1.419 . S
C605 C600 1.425 . S
C605 C602 1.409 . S
C605 C603 1.415 . S
C606 H596 0.930 . S
C606 C604 1.419 . S
C606 C607 1.362 . S
C607 H597 0.930 . S
C607 C600 1.409 . S
C607 C606 1.362 . S
H608 C614 0.930 . S
H609 C617 0.930 . S
H610 C618 0.930 . S
H611 C619 0.930 . S
H612 C622 0.930 . S
H613 C623 0.930 . S
C614 H608 0.930 . S
C614 C615 1.355 . S
C614 C616 1.415 . S
C615 C614 1.355 . S
C615 C617 1.419 . S
C616 C614 1.415 . S
C616 C621 1.425 . S
C616 C623 1.409 . S
C617 H609 0.930 . S
C617 C615 1.419 . S
C617 C618 1.362 . S
C618 H610 0.930 . S
C618 C617 1.362 . S
C618 C621 1.409 . S
C619 H611 0.930 . S
C619 C620 1.355 . S
C619 C621 1.415 . S
C620 C619 1.355 . S
C620 C622 1.419 . S
C621 C616 1.425 . S
C621 C618 1.409 . S
C621 C619 1.415 . S
C622 H612 0.930 . S
C622 C620 1.419 . S
C622 C623 1.362 . S
C623 H613 0.930 . S
C623 C616 1.409 . S
C623 C622 1.362 . S
H624 C630 0.930 . S
H625 C633 0.930 . S
H626 C634 0.930 . S
H627 C635 0.930 . S
H628 C638 0.930 1_554 S
H629 C639 0.930 1_554 S
C630 H624 0.930 . S
C630 C631 1.355 . S
C630 C632 1.415 . S
C631 C630 1.355 . S
C631 C633 1.419 . S
C632 C630 1.415 . S
C632 C637 1.425 1_655 S
C632 C639 1.409 1_655 S
C633 H625 0.930 . S
C633 C631 1.419 . S
C633 C634 1.362 . S
C634 H626 0.930 . S
C634 C633 1.362 . S
C634 C637 1.409 1_655 S
C635 H627 0.930 . S
C635 C636 1.355 . S
C635 C637 1.415 . S
C636 C635 1.355 . S
C636 C638 1.419 . S
C637 C632 1.425 1_455 S
C637 C634 1.409 1_455 S
C637 C635 1.415 . S
C638 H628 0.930 1_556 S
C638 C636 1.419 . S
C638 C639 1.362 . S
C639 H629 0.930 1_556 S
C639 C632 1.409 1_455 S
C639 C638 1.362 . S
H640 C646 0.930 . S
H641 C649 0.930 . S
H642 C650 0.930 . S
H643 C651 0.930 . S
H644 C654 0.930 . S
H645 C655 0.930 . S
C646 H640 0.930 . S
C646 C647 1.355 . S
C646 C648 1.415 . S
C647 C646 1.355 . S
C647 C649 1.419 . S
C648 C646 1.415 . S
C648 C653 1.425 . S
C648 C655 1.409 . S
C649 H641 0.930 . S
C649 C647 1.419 . S
C649 C650 1.362 . S
C650 H642 0.930 . S
C650 C649 1.362 . S
C650 C653 1.409 . S
C651 H643 0.930 . S
C651 C652 1.355 . S
C651 C653 1.415 . S
C652 C651 1.355 . S
C652 C654 1.419 . S
C653 C648 1.425 . S
C653 C650 1.409 . S
C653 C651 1.415 . S
C654 H644 0.930 . S
C654 C652 1.419 . S
C654 C655 1.362 . S
C655 H645 0.930 . S
C655 C648 1.409 . S
C655 C654 1.362 . S
H656 C662 0.930 . S
H657 C665 0.930 . S
H658 C666 0.930 . S
H659 C667 0.930 . S
H660 C670 0.930 . S
H661 C671 0.930 . S
C662 H656 0.930 . S
C662 C663 1.355 . S
C662 C664 1.415 . S
C663 C662 1.355 . S
C663 C665 1.419 . S
C664 C662 1.415 . S
C664 C669 1.425 1_455 S
C664 C671 1.409 1_455 S
C665 H657 0.930 . S
C665 C663 1.419 . S
C665 C666 1.362 . S
C666 H658 0.930 . S
C666 C665 1.362 . S
C666 C669 1.409 1_455 S
C667 H659 0.930 . S
C667 C668 1.355 . S
C667 C669 1.415 . S
C668 C667 1.355 . S
C668 C670 1.419 . S
C669 C664 1.425 1_655 S
C669 C666 1.409 1_655 S
C669 C667 1.415 . S
C670 H660 0.930 . S
C670 C668 1.419 . S
C670 C671 1.362 . S
C671 H661 0.930 . S
C671 C664 1.409 1_655 S
C671 C670 1.362 . S
H672 C678 0.930 . S
H673 C681 0.930 . S
H674 C682 0.930 . S
H675 C683 0.930 . S
H676 C686 0.930 . S
H677 C687 0.930 . S
C678 H672 0.930 . S
C678 C679 1.355 . S
C678 C680 1.415 . S
C679 C678 1.355 . S
C679 C681 1.419 . S
C680 C678 1.415 . S
C680 C685 1.425 . S
C680 C687 1.409 . S
C681 H673 0.930 . S
C681 C679 1.419 . S
C681 C682 1.362 . S
C682 H674 0.930 . S
C682 C681 1.362 . S
C682 C685 1.409 . S
C683 H675 0.930 . S
C683 C684 1.355 . S
C683 C685 1.415 . S
C684 C683 1.355 . S
C684 C686 1.419 . S
C685 C680 1.425 . S
C685 C682 1.409 . S
C685 C683 1.415 . S
C686 H676 0.930 . S
C686 C684 1.419 . S
C686 C687 1.362 . S
C687 H677 0.930 . S
C687 C680 1.409 . S
C687 C686 1.362 . S
H688 C694 0.930 . S
H689 C697 0.930 . S
H690 C698 0.930 . S
H691 C699 0.930 . S
H692 C702 0.930 . S
H693 C703 0.930 . S
C694 H688 0.930 . S
C694 C695 1.355 . S
C694 C696 1.415 . S
C695 C694 1.355 . S
C695 C697 1.419 . S
C696 C694 1.415 . S
C696 C701 1.425 . S
C696 C703 1.409 . S
C697 H689 0.930 . S
C697 C695 1.419 . S
C697 C698 1.362 . S
C698 H690 0.930 . S
C698 C697 1.362 . S
C698 C701 1.409 . S
C699 H691 0.930 . S
C699 C700 1.355 . S
C699 C701 1.415 . S
C700 C699 1.355 . S
C700 C702 1.419 . S
C701 C696 1.425 . S
C701 C698 1.409 . S
C701 C699 1.415 . S
C702 H692 0.930 . S
C702 C700 1.419 . S
C702 C703 1.362 . S
C703 H693 0.930 . S
C703 C696 1.409 . S
C703 C702 1.362 . S
H704 C710 0.930 . S
H705 C713 0.930 . S
H706 C714 0.930 . S
H707 C715 0.930 . S
H708 C718 0.930 . S
H709 C719 0.930 . S
C710 H704 0.930 . S
C710 C711 1.355 . S
C710 C712 1.415 . S
C711 C710 1.355 . S
C711 C713 1.419 . S
C712 C710 1.415 . S
C712 C717 1.425 . S
C712 C719 1.409 . S
C713 H705 0.930 . S
C713 C711 1.419 . S
C713 C714 1.362 . S
C714 H706 0.930 . S
C714 C713 1.362 . S
C714 C717 1.409 . S
C715 H707 0.930 . S
C715 C716 1.355 . S
C715 C717 1.415 . S
C716 C715 1.355 . S
C716 C718 1.419 . S
C717 C712 1.425 . S
C717 C714 1.409 . S
C717 C715 1.415 . S
C718 H708 0.930 . S
C718 C716 1.419 . S
C718 C719 1.362 . S
C719 H709 0.930 . S
C719 C712 1.409 . S
C719 C718 1.362 . S
H720 C726 0.930 . S
H721 C729 0.930 . S
H722 C730 0.930 . S
H723 C731 0.930 . S
H724 C734 0.930 . S
H725 C735 0.930 . S
C726 H720 0.930 . S
C726 C727 1.355 . S
C726 C728 1.415 . S
C727 C726 1.355 . S
C727 C729 1.419 . S
C728 C726 1.415 . S
C728 C733 1.425 . S
C728 C735 1.409 . S
C729 H721 0.930 . S
C729 C727 1.419 . S
C729 C730 1.362 . S
C730 H722 0.930 . S
C730 C729 1.362 . S
C730 C733 1.409 . S
C731 H723 0.930 . S
C731 C732 1.355 . S
C731 C733 1.415 . S
C732 C731 1.355 . S
C732 C734 1.419 . S
C733 C728 1.425 . S
C733 C730 1.409 . S
C733 C731 1.415 . S
C734 H724 0.930 . S
C734 C732 1.419 . S
C734 C735 1.362 . S
C735 H725 0.930 . S
C735 C728 1.409 . S
C735 C734 1.362 . S
H736 C742 0.930 . S
H737 C745 0.930 . S
H738 C746 0.930 . S
H739 C747 0.930 . S
H740 C750 0.930 . S
H741 C751 0.930 . S
C742 H736 0.930 . S
C742 C743 1.355 . S
C742 C744 1.415 . S
C743 C742 1.355 . S
C743 C745 1.419 . S
C744 C742 1.415 . S
C744 C749 1.425 . S
C744 C751 1.409 . S
C745 H737 0.930 . S
C745 C743 1.419 . S
C745 C746 1.362 . S
C746 H738 0.930 . S
C746 C745 1.362 . S
C746 C749 1.409 . S
C747 H739 0.930 . S
C747 C748 1.355 . S
C747 C749 1.415 . S
C748 C747 1.355 . S
C748 C750 1.419 . S
C749 C744 1.425 . S
C749 C746 1.409 . S
C749 C747 1.415 . S
C750 H740 0.930 . S
C750 C748 1.419 . S
C750 C751 1.362 . S
C751 H741 0.930 . S
C751 C744 1.409 . S
C751 C750 1.362 . S
H752 C758 0.930 . S
H753 C761 0.930 . S
H754 C762 0.930 . S
H755 C763 0.930 . S
H756 C766 0.930 . S
H757 C767 0.930 . S
C758 H752 0.930 . S
C758 C759 1.355 . S
C758 C760 1.415 . S
C759 C758 1.355 . S
C759 C761 1.419 . S
C760 C758 1.415 . S
C760 C765 1.425 . S
C760 C767 1.409 . S
C761 H753 0.930 . S
C761 C759 1.419 . S
C761 C762 1.362 . S
C762 H754 0.930 . S
C762 C761 1.362 . S
C762 C765 1.409 . S
C763 H755 0.930 . S
C763 C764 1.355 . S
C763 C765 1.415 . S
C764 C763 1.355 . S
C764 C766 1.419 . S
C765 C760 1.425 . S
C765 C762 1.409 . S
C765 C763 1.415 . S
C766 H756 0.930 . S
C766 C764 1.419 . S
C766 C767 1.362 . S
C767 H757 0.930 . S
C767 C760 1.409 . S
C767 C766 1.362 . S
H768 C774 0.930 1_554 S
H769 C777 0.930 . S
H770 C778 0.930 . S
H771 C779 0.930 . S
H772 C782 0.930 . S
H773 C783 0.930 . S
C774 H768 0.930 1_556 S
C774 C775 1.355 . S
C774 C776 1.415 . S
C775 C774 1.355 . S
C775 C777 1.419 . S
C776 C774 1.415 . S
C776 C781 1.425 1_655 S
C776 C783 1.409 1_656 S
C777 H769 0.930 . S
C777 C775 1.419 . S
C777 C778 1.362 . S
C778 H770 0.930 . S
C778 C777 1.362 . S
C778 C781 1.409 1_655 S
C779 H771 0.930 . S
C779 C780 1.355 . S
C779 C781 1.415 . S
C780 C779 1.355 . S
C780 C782 1.419 1_556 S
C781 C776 1.425 1_455 S
C781 C778 1.409 1_455 S
C781 C779 1.415 . S
C782 H772 0.930 . S
C782 C780 1.419 1_554 S
C782 C783 1.362 . S
C783 H773 0.930 . S
C783 C776 1.409 1_454 S
C783 C782 1.362 . S
H784 C790 0.930 . S
H785 C793 0.930 . S
H786 C794 0.930 . S
H787 C795 0.930 . S
H788 C798 0.930 . S
H789 C799 0.930 . S
C790 H784 0.930 . S
C790 C791 1.355 . S
C790 C792 1.415 . S
C791 C790 1.355 . S
C791 C793 1.419 . S
C792 C790 1.415 . S
C792 C797 1.425 . S
C792 C799 1.409 . S
C793 H785 0.930 . S
C793 C791 1.419 . S
C793 C794 1.362 . S
C794 H786 0.930 . S
C794 C793 1.362 . S
C794 C797 1.409 . S
C795 H787 0.930 . S
C795 C796 1.355 . S
C795 C797 1.415 . S
C796 C795 1.355 . S
C796 C798 1.419 . S
C797 C792 1.425 . S
C797 C794 1.409 . S
C797 C795 1.415 . S
C798 H788 0.930 . S
C798 C796 1.419 . S
C798 C799 1.362 . S
C799 H789 0.930 . S
C799 C792 1.409 . S
C799 C798 1.362 . S
H800 C806 0.930 . S
H801 C809 0.930 . S
H802 C810 0.930 . S
H803 C811 0.930 . S
H804 C814 0.930 . S
H805 C815 0.930 . S
C806 H800 0.930 . S
C806 C807 1.355 . S
C806 C808 1.415 . S
C807 C806 1.355 . S
C807 C809 1.419 . S
C808 C806 1.415 . S
C808 C813 1.425 . S
C808 C815 1.409 . S
C809 H801 0.930 . S
C809 C807 1.419 . S
C809 C810 1.362 . S
C810 H802 0.930 . S
C810 C809 1.362 . S
C810 C813 1.409 . S
C811 H803 0.930 . S
C811 C812 1.355 . S
C811 C813 1.415 . S
C812 C811 1.355 . S
C812 C814 1.419 . S
C813 C808 1.425 . S
C813 C810 1.409 . S
C813 C811 1.415 . S
C814 H804 0.930 . S
C814 C812 1.419 . S
C814 C815 1.362 . S
C815 H805 0.930 . S
C815 C808 1.409 . S
C815 C814 1.362 . S
H816 C822 0.930 . S
H817 C825 0.930 . S
H818 C826 0.930 . S
H819 C827 0.930 . S
H820 C830 0.930 . S
H821 C831 0.930 . S
C822 H816 0.930 . S
C822 C823 1.355 . S
C822 C824 1.415 . S
C823 C822 1.355 . S
C823 C825 1.419 . S
C824 C822 1.415 . S
C824 C829 1.425 1_455 S
C824 C831 1.409 1_455 S
C825 H817 0.930 . S
C825 C823 1.419 . S
C825 C826 1.362 . S
C826 H818 0.930 . S
C826 C825 1.362 . S
C826 C829 1.409 1_455 S
C827 H819 0.930 . S
C827 C828 1.355 . S
C827 C829 1.415 . S
C828 C827 1.355 . S
C828 C830 1.419 . S
C829 C824 1.425 1_655 S
C829 C826 1.409 1_655 S
C829 C827 1.415 . S
C830 H820 0.930 . S
C830 C828 1.419 . S
C830 C831 1.362 . S
C831 H821 0.930 . S
C831 C824 1.409 1_655 S
C831 C830 1.362 . S
H832 C838 0.930 . S
H833 C841 0.930 . S
H834 C842 0.930 . S
H835 C843 0.930 . S
H836 C846 0.930 . S
H837 C847 0.930 . S
C838 H832 0.930 . S
C838 C839 1.355 . S
C838 C840 1.415 1_554 S
C839 C838 1.355 . S
C839 C841 1.419 . S
C840 C838 1.415 1_556 S
C840 C845 1.425 1_556 S
C840 C847 1.409 . S
C841 H833 0.930 . S
C841 C839 1.419 . S
C841 C842 1.362 . S
C842 H834 0.930 . S
C842 C841 1.362 . S
C842 C845 1.409 . S
C843 H835 0.930 . S
C843 C844 1.355 . S
C843 C845 1.415 1_556 S
C844 C843 1.355 . S
C844 C846 1.419 . S
C845 C840 1.425 1_554 S
C845 C842 1.409 . S
C845 C843 1.415 1_554 S
C846 H836 0.930 . S
C846 C844 1.419 . S
C846 C847 1.362 . S
C847 H837 0.930 . S
C847 C840 1.409 . S
C847 C846 1.362 . S
H848 C854 0.930 . S
H849 C857 0.930 . S
H850 C858 0.930 . S
H851 C859 0.930 . S
H852 C862 0.930 . S
H853 C863 0.930 . S
C854 H848 0.930 . S
C854 C855 1.355 . S
C854 C856 1.415 . S
C855 C854 1.355 . S
C855 C857 1.419 . S
C856 C854 1.415 . S
C856 C861 1.425 . S
C856 C863 1.409 . S
C857 H849 0.930 . S
C857 C855 1.419 . S
C857 C858 1.362 . S
C858 H850 0.930 . S
C858 C857 1.362 . S
C858 C861 1.409 . S
C859 H851 0.930 . S
C859 C860 1.355 . S
C859 C861 1.415 . S
C860 C859 1.355 . S
C860 C862 1.419 . S
C861 C856 1.425 . S
C861 C858 1.409 . S
C861 C859 1.415 . S
C862 H852 0.930 . S
C862 C860 1.419 . S
C862 C863 1.362 . S
C863 H853 0.930 . S
C863 C856 1.409 . S
C863 C862 1.362 . S
H864 C870 0.930 . S
H865 C873 0.930 . S
H866 C874 0.930 . S
H867 C875 0.930 . S
H868 C878 0.930 . S
H869 C879 0.930 . S
C870 H864 0.930 . S
C870 C871 1.355 . S
C870 C872 1.415 . S
C871 C870 1.355 . S
C871 C873 1.419 . S
C872 C870 1.415 . S
C872 C877 1.425 . S
C872 C879 1.409 . S
C873 H865 0.930 . S
C873 C871 1.419 . S
C873 C874 1.362 . S
C874 H866 0.930 . S
C874 C873 1.362 . S
C874 C877 1.409 . S
C875 H867 0.930 . S
C875 C876 1.355 . S
C875 C877 1.415 . S
C876 C875 1.355 . S
C876 C878 1.419 . S
C877 C872 1.425 . S
C877 C874 1.409 . S
C877 C875 1.415 . S
C878 H868 0.930 . S
C878 C876 1.419 . S
C878 C879 1.362 . S
C879 H869 0.930 . S
C879 C872 1.409 . S
C879 C878 1.362 . S
H880 C886 0.930 . S
H881 C889 0.930 . S
H882 C890 0.930 . S
H883 C891 0.930 . S
H884 C894 0.930 . S
H885 C895 0.930 . S
C886 H880 0.930 . S
C886 C887 1.355 . S
C886 C888 1.415 . S
C887 C886 1.355 . S
C887 C889 1.419 . S
C888 C886 1.415 . S
C888 C893 1.425 . S
C888 C895 1.409 . S
C889 H881 0.930 . S
C889 C887 1.419 . S
C889 C890 1.362 . S
C890 H882 0.930 . S
C890 C889 1.362 . S
C890 C893 1.409 . S
C891 H883 0.930 . S
C891 C892 1.355 . S
C891 C893 1.415 . S
C892 C891 1.355 . S
C892 C894 1.419 . S
C893 C888 1.425 . S
C893 C890 1.409 . S
C893 C891 1.415 . S
C894 H884 0.930 . S
C894 C892 1.419 . S
C894 C895 1.362 . S
C895 H885 0.930 . S
C895 C888 1.409 . S
C895 C894 1.362 . S
H896 C902 0.930 . S
H897 C905 0.930 . S
H898 C906 0.930 . S
H899 C907 0.930 . S
H900 C910 0.930 . S
H901 C911 0.930 . S
C902 H896 0.930 . S
C902 C903 1.355 . S
C902 C904 1.415 . S
C903 C902 1.355 . S
C903 C905 1.419 1_554 S
C904 C902 1.415 . S
C904 C909 1.425 1_554 S
C904 C911 1.409 . S
C905 H897 0.930 . S
C905 C903 1.419 1_556 S
C905 C906 1.362 . S
C906 H898 0.930 . S
C906 C905 1.362 . S
C906 C909 1.409 . S
C907 H899 0.930 . S
C907 C908 1.355 . S
C907 C909 1.415 . S
C908 C907 1.355 . S
C908 C910 1.419 1_556 S
C909 C904 1.425 1_556 S
C909 C906 1.409 . S
C909 C907 1.415 . S
C910 H900 0.930 . S
C910 C908 1.419 1_554 S
C910 C911 1.362 . S
C911 H901 0.930 . S
C911 C904 1.409 . S
C911 C910 1.362 . S
H912 C918 0.930 . S
H913 C921 0.930 . S
H914 C922 0.930 . S
H915 C923 0.930 . S
H916 C926 0.930 . S
H917 C927 0.930 . S
C918 H912 0.930 . S
C918 C919 1.355 . S
C918 C920 1.415 . S
C919 C918 1.355 . S
C919 C921 1.419 . S
C920 C918 1.415 . S
C920 C925 1.425 . S
C920 C927 1.409 . S
C921 H913 0.930 . S
C921 C919 1.419 . S
C921 C922 1.362 . S
C922 H914 0.930 . S
C922 C921 1.362 . S
C922 C925 1.409 . S
C923 H915 0.930 . S
C923 C924 1.355 . S
C923 C925 1.415 . S
C924 C923 1.355 . S
C924 C926 1.419 . S
C925 C920 1.425 . S
C925 C922 1.409 . S
C925 C923 1.415 . S
C926 H916 0.930 . S
C926 C924 1.419 . S
C926 C927 1.362 . S
C927 H917 0.930 . S
C927 C920 1.409 . S
C927 C926 1.362 . S
H928 C934 0.930 . S
H929 C937 0.930 . S
H930 C938 0.930 . S
H931 C939 0.930 . S
H932 C942 0.930 . S
H933 C943 0.930 . S
C934 H928 0.930 . S
C934 C935 1.355 . S
C934 C936 1.415 . S
C935 C934 1.355 . S
C935 C937 1.419 . S
C936 C934 1.415 . S
C936 C941 1.425 . S
C936 C943 1.409 . S
C937 H929 0.930 . S
C937 C935 1.419 . S
C937 C938 1.362 . S
C938 H930 0.930 . S
C938 C937 1.362 . S
C938 C941 1.409 . S
C939 H931 0.930 . S
C939 C940 1.355 . S
C939 C941 1.415 . S
C940 C939 1.355 . S
C940 C942 1.419 . S
C941 C936 1.425 . S
C941 C938 1.409 . S
C941 C939 1.415 . S
C942 H932 0.930 . S
C942 C940 1.419 . S
C942 C943 1.362 . S
C943 H933 0.930 . S
C943 C936 1.409 . S
C943 C942 1.362 . S
H944 C950 0.930 . S
H945 C953 0.930 . S
H946 C954 0.930 . S
H947 C955 0.930 . S
H948 C958 0.930 . S
H949 C959 0.930 . S
C950 H944 0.930 . S
C950 C951 1.355 . S
C950 C952 1.415 . S
C951 C950 1.355 . S
C951 C953 1.419 . S
C952 C950 1.415 . S
C952 C957 1.425 . S
C952 C959 1.409 . S
C953 H945 0.930 . S
C953 C951 1.419 . S
C953 C954 1.362 . S
C954 H946 0.930 . S
C954 C953 1.362 . S
C954 C957 1.409 . S
C955 H947 0.930 . S
C955 C956 1.355 . S
C955 C957 1.415 . S
C956 C955 1.355 . S
C956 C958 1.419 . S
C957 C952 1.425 . S
C957 C954 1.409 . S
C957 C955 1.415 . S
C958 H948 0.930 . S
C958 C956 1.419 . S
C958 C959 1.362 . S
C959 H949 0.930 . S
C959 C952 1.409 . S
C959 C958 1.362 . S
H960 C966 0.930 . S
H961 C969 0.930 . S
H962 C970 0.930 1_545 S
H963 C971 0.930 . S
H964 C974 0.930 . S
H965 C975 0.930 1_565 S
C966 H960 0.930 . S
C966 C967 1.355 . S
C966 C968 1.415 . S
C967 C966 1.355 . S
C967 C969 1.419 . S
C968 C966 1.415 . S
C968 C973 1.425 1_565 S
C968 C975 1.409 1_565 S
C969 H961 0.930 . S
C969 C967 1.419 . S
C969 C970 1.362 . S
C970 H962 0.930 1_565 S
C970 C969 1.362 . S
C970 C973 1.409 1_565 S
C971 H963 0.930 . S
C971 C972 1.355 . S
C971 C973 1.415 . S
C972 C971 1.355 . S
C972 C974 1.419 . S
C973 C968 1.425 1_545 S
C973 C970 1.409 1_545 S
C973 C971 1.415 . S
C974 H964 0.930 . S
C974 C972 1.419 . S
C974 C975 1.362 . S
C975 H965 0.930 1_545 S
C975 C968 1.409 1_545 S
C975 C974 1.362 . S
H976 C982 0.930 . S
H977 C985 0.930 . S
H978 C986 0.930 . S
H979 C987 0.930 . S
H980 C990 0.930 . S
H981 C991 0.930 . S
C982 H976 0.930 . S
C982 C983 1.355 . S
C982 C984 1.415 . S
C983 C982 1.355 . S
C983 C985 1.419 . S
C984 C982 1.415 . S
C984 C989 1.425 . S
C984 C991 1.409 . S
C985 H977 0.930 . S
C985 C983 1.419 . S
C985 C986 1.362 . S
C986 H978 0.930 . S
C986 C985 1.362 . S
C986 C989 1.409 . S
C987 H979 0.930 . S
C987 C988 1.355 . S
C987 C989 1.415 . S
C988 C987 1.355 . S
C988 C990 1.419 . S
C989 C984 1.425 . S
C989 C986 1.409 . S
C989 C987 1.415 . S
C990 H980 0.930 . S
C990 C988 1.419 . S
C990 C991 1.362 . S
C991 H981 0.930 . S
C991 C984 1.409 . S
C991 C990 1.362 . S
H992 C998 0.930 . S
H993 C1001 0.930 . S
H994 C1002 0.930 . S
H995 C1003 0.930 . S
H996 C1006 0.930 . S
H997 C1007 0.930 . S
C998 H992 0.930 . S
C998 C999 1.355 1_556 S
C998 C1000 1.415 . S
C999 C998 1.355 1_554 S
C999 C1001 1.419 . S
C1000 C998 1.415 . S
C1000 C1005 1.425 1_566 S
C1000 C1007 1.409 . S
C1001 H993 0.930 . S
C1001 C999 1.419 . S
C1001 C1002 1.362 1_565 S
C1002 H994 0.930 . S
C1002 C1001 1.362 1_545 S
C1002 C1005 1.409 . S
C1003 H995 0.930 . S
C1003 C1004 1.355 1_554 S
C1003 C1005 1.415 . S
C1004 C1003 1.355 1_556 S
C1004 C1006 1.419 . S
C1005 C1000 1.425 1_544 S
C1005 C1002 1.409 . S
C1005 C1003 1.415 . S
C1006 H996 0.930 . S
C1006 C1004 1.419 . S
C1006 C1007 1.362 1_545 S
C1007 H997 0.930 . S
C1007 C1000 1.409 . S
C1007 C1006 1.362 1_565 S
H1008 C1014 0.930 . S
H1009 C1017 0.930 . S
H1010 C1018 0.930 . S
H1011 C1019 0.930 . S
H1012 C1022 0.930 . S
H1013 C1023 0.930 . S
C1014 H1008 0.930 . S
C1014 C1015 1.355 . S
C1014 C1016 1.415 . S
C1015 C1014 1.355 . S
C1015 C1017 1.419 . S
C1016 C1014 1.415 . S
C1016 C1021 1.425 . S
C1016 C1023 1.409 . S
C1017 H1009 0.930 . S
C1017 C1015 1.419 . S
C1017 C1018 1.362 . S
C1018 H1010 0.930 . S
C1018 C1017 1.362 . S
C1018 C1021 1.409 . S
C1019 H1011 0.930 . S
C1019 C1020 1.355 . S
C1019 C1021 1.415 . S
C1020 C1019 1.355 . S
C1020 C1022 1.419 . S
C1021 C1016 1.425 . S
C1021 C1018 1.409 . S
C1021 C1019 1.415 . S
C1022 H1012 0.930 . S
C1022 C1020 1.419 . S
C1022 C1023 1.362 . S
C1023 H1013 0.930 . S
C1023 C1016 1.409 . S
C1023 C1022 1.362 . S
H1024 C1030 0.930 . S
H1025 C1033 0.930 . S
H1026 C1034 0.930 1_545 S
H1027 C1035 0.930 . S
H1028 C1038 0.930 . S
H1029 C1039 0.930 1_565 S
C1030 H1024 0.930 . S
C1030 C1031 1.355 . S
C1030 C1032 1.415 . S
C1031 C1030 1.355 . S
C1031 C1033 1.419 . S
C1032 C1030 1.415 . S
C1032 C1037 1.425 1_565 S
C1032 C1039 1.409 1_565 S
C1033 H1025 0.930 . S
C1033 C1031 1.419 . S
C1033 C1034 1.362 . S
C1034 H1026 0.930 1_565 S
C1034 C1033 1.362 . S
C1034 C1037 1.409 1_565 S
C1035 H1027 0.930 . S
C1035 C1036 1.355 . S
C1035 C1037 1.415 . S
C1036 C1035 1.355 . S
C1036 C1038 1.419 . S
C1037 C1032 1.425 1_545 S
C1037 C1034 1.409 1_545 S
C1037 C1035 1.415 . S
C1038 H1028 0.930 . S
C1038 C1036 1.419 . S
C1038 C1039 1.362 . S
C1039 H1029 0.930 1_545 S
C1039 C1032 1.409 1_545 S
C1039 C1038 1.362 . S
H1040 C1046 0.930 . S
H1041 C1049 0.930 . S
H1042 C1050 0.930 . S
H1043 C1051 0.930 . S
H1044 C1054 0.930 . S
H1045 C1055 0.930 . S
C1046 H1040 0.930 . S
C1046 C1047 1.355 . S
C1046 C1048 1.415 . S
C1047 C1046 1.355 . S
C1047 C1049 1.419 . S
C1048 C1046 1.415 . S
C1048 C1053 1.425 . S
C1048 C1055 1.409 . S
C1049 H1041 0.930 . S
C1049 C1047 1.419 . S
C1049 C1050 1.362 . S
C1050 H1042 0.930 . S
C1050 C1049 1.362 . S
C1050 C1053 1.409 . S
C1051 H1043 0.930 . S
C1051 C1052 1.355 . S
C1051 C1053 1.415 . S
C1052 C1051 1.355 . S
C1052 C1054 1.419 . S
C1053 C1048 1.425 . S
C1053 C1050 1.409 . S
C1053 C1051 1.415 . S
C1054 H1044 0.930 . S
C1054 C1052 1.419 . S
C1054 C1055 1.362 . S
C1055 H1045 0.930 . S
C1055 C1048 1.409 . S
C1055 C1054 1.362 . S
H1056 C1062 0.930 . S
H1057 C1065 0.930 . S
H1058 C1066 0.930 . S
H1059 C1067 0.930 . S
H1060 C1070 0.930 . S
H1061 C1071 0.930 . S
C1062 H1056 0.930 . S
C1062 C1063 1.355 1_554 S
C1062 C1064 1.415 . S
C1063 C1062 1.355 1_556 S
C1063 C1065 1.419 . S
C1064 C1062 1.415 . S
C1064 C1069 1.425 1_544 S
C1064 C1071 1.409 . S
C1065 H1057 0.930 . S
C1065 C1063 1.419 . S
C1065 C1066 1.362 1_545 S
C1066 H1058 0.930 . S
C1066 C1065 1.362 1_565 S
C1066 C1069 1.409 . S
C1067 H1059 0.930 . S
C1067 C1068 1.355 1_556 S
C1067 C1069 1.415 . S
C1068 C1067 1.355 1_554 S
C1068 C1070 1.419 . S
C1069 C1064 1.425 1_566 S
C1069 C1066 1.409 . S
C1069 C1067 1.415 . S
C1070 H1060 0.930 . S
C1070 C1068 1.419 . S
C1070 C1071 1.362 1_565 S
C1071 H1061 0.930 . S
C1071 C1064 1.409 . S
C1071 C1070 1.362 1_545 S
H1072 C1078 0.930 . S
H1073 C1081 0.930 . S
H1074 C1082 0.930 . S
H1075 C1083 0.930 . S
H1076 C1086 0.930 . S
H1077 C1087 0.930 . S
C1078 H1072 0.930 . S
C1078 C1079 1.355 . S
C1078 C1080 1.415 . S
C1079 C1078 1.355 . S
C1079 C1081 1.419 . S
C1080 C1078 1.415 . S
C1080 C1085 1.425 . S
C1080 C1087 1.409 . S
C1081 H1073 0.930 . S
C1081 C1079 1.419 . S
C1081 C1082 1.362 . S
C1082 H1074 0.930 . S
C1082 C1081 1.362 . S
C1082 C1085 1.409 . S
C1083 H1075 0.930 . S
C1083 C1084 1.355 . S
C1083 C1085 1.415 . S
C1084 C1083 1.355 . S
C1084 C1086 1.419 . S
C1085 C1080 1.425 . S
C1085 C1082 1.409 . S
C1085 C1083 1.415 . S
C1086 H1076 0.930 . S
C1086 C1084 1.419 . S
C1086 C1087 1.362 . S
C1087 H1077 0.930 . S
C1087 C1080 1.409 . S
C1087 C1086 1.362 . S
C327 C2 1.517 . S
C332 C1 1.517 . S
C343 C21 1.516 . S
C348 C22 1.516 . S
C359 C41 1.498 . S
C364 C42 1.498 . S
C375 C62 1.486 . S
C380 C61 1.486 . S
C391 C82 1.560 . S
C396 C81 1.560 . S
C407 C101 1.471 . S
C412 C102 1.471 . S
C423 C121 1.437 . S
C428 C122 1.437 . S
C439 C141 1.569 . S
C444 C142 1.569 . S
C455 C161 1.528 . S
C460 C162 1.528 . S
C471 C181 1.544 . S
C476 C182 1.544 . S
C487 C201 1.442 . S
C492 C202 1.442 . S
C503 C221 1.496 . S
C508 C222 1.496 . S
C519 C241 1.522 . S
C524 C242 1.522 . S
C535 C261 1.442 . S
C540 C262 1.442 . S
C551 C282 1.451 . S
C556 C281 1.451 . S
C567 C302 1.530 . S
C572 C301 1.530 . S
C583 C8 1.533 . S
C588 C239 1.597 . S
C599 C38 1.591 . S
C604 C319 1.605 . S
C615 C58 1.628 . S
C620 C189 1.525 . S
C631 C68 1.569 . S
C636 C269 1.638 . S
C647 C88 1.537 . S
C652 C279 1.594 . S
C663 C229 1.621 . S
C668 C108 1.587 . S
C679 C138 1.595 . S
C684 C309 1.536 . S
C695 C158 1.612 . S
C700 C199 1.584 . S
C711 C78 1.619 . S
C716 C169 1.508 . S
C727 C28 1.586 . S
C732 C219 1.583 . S
C743 C249 1.588 . S
C748 C118 1.587 . S
C759 C148 1.540 . S
C764 C299 1.625 . S
C775 C179 1.581 . S
C780 C98 1.615 . S
C791 C128 1.581 . S
C796 C209 1.627 . S
C807 C48 1.584 . S
C812 C289 1.624 . S
C823 C18 1.592 . S
C828 C259 1.604 . S
C839 C9 1.370 . S
C844 C89 1.350 . S
C855 C39 1.603 . S
C860 C109 1.597 . S
C871 C59 1.777 . S
C876 C139 1.760 . S
C887 C69 1.567 . S
C892 C159 1.571 . S
C903 C248 1.383 . S
C908 C168 1.387 . S
C919 C268 1.586 . S
C924 C198 1.581 . S
C935 C218 1.764 . S
C940 C298 1.775 . S
C951 C318 1.573 . S
C956 C228 1.567 . S
C967 C29 1.349 . S
C972 C149 1.363 . S
C983 C99 1.591 . S
C988 C49 1.596 . S
C999 C119 1.776 . S
C1004 C79 1.762 . S
C1015 C19 1.575 . S
C1020 C129 1.567 . S
C1031 C308 1.358 . S
C1036 C188 1.350 . S
C1047 C258 1.600 . S
C1052 C208 1.602 . S
C1063 C278 1.771 . S
C1068 C238 1.768 . S
C1079 C288 1.570 . S
C1084 C178 1.571 . S
