# Generated by pormake.
# Topology uou, (4)-cn, num edge types: 1
# Building blocks:
#     Node 0, Type 0, BuildingBlock: CEKHIL_clean_sbu_0, # of connection points: 4
#     Node 1, Type 0, BuildingBlock: CEKHIL_clean_sbu_0, # of connection points: 4
#     Node 2, Type 0, BuildingBlock: CEKHIL_clean_sbu_0, # of connection points: 4
#     Node 3, Type 0, BuildingBlock: CEKHIL_clean_sbu_0, # of connection points: 4
#     Node 4, Type 0, BuildingBlock: CEKHIL_clean_sbu_0, # of connection points: 4
#     Node 5, Type 0, BuildingBlock: CEKHIL_clean_sbu_0, # of connection points: 4
#     Node 6, Type 0, BuildingBlock: CEKHIL_clean_sbu_0, # of connection points: 4
#     Node 7, Type 0, BuildingBlock: CEKHIL_clean_sbu_0, # of connection points: 4
#     Node 8, Type 0, BuildingBlock: CEKHIL_clean_sbu_0, # of connection points: 4
#     Node 9, Type 0, BuildingBlock: CEKHIL_clean_sbu_0, # of connection points: 4
#     Node 10, Type 0, BuildingBlock: CEKHIL_clean_sbu_0, # of connection points: 4
#     Node 11, Type 0, BuildingBlock: CEKHIL_clean_sbu_0, # of connection points: 4
#     Node 12, Type 0, BuildingBlock: CEKHIL_clean_sbu_0, # of connection points: 4
#     Node 13, Type 0, BuildingBlock: CEKHIL_clean_sbu_0, # of connection points: 4
#     Node 14, Type 0, BuildingBlock: CEKHIL_clean_sbu_0, # of connection points: 4
#     Node 15, Type 0, BuildingBlock: CEKHIL_clean_sbu_0, # of connection points: 4
#     Edge 16, Type (0, 0), BuildingBlock: CIFDUS_clean_linker_0, # of connection points: 2
#     Edge 17, Type (0, 0), BuildingBlock: CIFDUS_clean_linker_0, # of connection points: 2
#     Edge 18, Type (0, 0), BuildingBlock: CIFDUS_clean_linker_0, # of connection points: 2
#     Edge 19, Type (0, 0), BuildingBlock: CIFDUS_clean_linker_0, # of connection points: 2
#     Edge 20, Type (0, 0), BuildingBlock: CIFDUS_clean_linker_0, # of connection points: 2
#     Edge 21, Type (0, 0), BuildingBlock: CIFDUS_clean_linker_0, # of connection points: 2
#     Edge 22, Type (0, 0), BuildingBlock: CIFDUS_clean_linker_0, # of connection points: 2
#     Edge 23, Type (0, 0), BuildingBlock: CIFDUS_clean_linker_0, # of connection points: 2
#     Edge 24, Type (0, 0), BuildingBlock: CIFDUS_clean_linker_0, # of connection points: 2
#     Edge 25, Type (0, 0), BuildingBlock: CIFDUS_clean_linker_0, # of connection points: 2
#     Edge 26, Type (0, 0), BuildingBlock: CIFDUS_clean_linker_0, # of connection points: 2
#     Edge 27, Type (0, 0), BuildingBlock: CIFDUS_clean_linker_0, # of connection points: 2
#     Edge 28, Type (0, 0), BuildingBlock: CIFDUS_clean_linker_0, # of connection points: 2
#     Edge 29, Type (0, 0), BuildingBlock: CIFDUS_clean_linker_0, # of connection points: 2
#     Edge 30, Type (0, 0), BuildingBlock: CIFDUS_clean_linker_0, # of connection points: 2
#     Edge 31, Type (0, 0), BuildingBlock: CIFDUS_clean_linker_0, # of connection points: 2
#     Edge 32, Type (0, 0), BuildingBlock: CIFDUS_clean_linker_0, # of connection points: 2
#     Edge 33, Type (0, 0), BuildingBlock: CIFDUS_clean_linker_0, # of connection points: 2
#     Edge 34, Type (0, 0), BuildingBlock: CIFDUS_clean_linker_0, # of connection points: 2
#     Edge 35, Type (0, 0), BuildingBlock: CIFDUS_clean_linker_0, # of connection points: 2
#     Edge 36, Type (0, 0), BuildingBlock: CIFDUS_clean_linker_0, # of connection points: 2
#     Edge 37, Type (0, 0), BuildingBlock: CIFDUS_clean_linker_0, # of connection points: 2
#     Edge 38, Type (0, 0), BuildingBlock: CIFDUS_clean_linker_0, # of connection points: 2
#     Edge 39, Type (0, 0), BuildingBlock: CIFDUS_clean_linker_0, # of connection points: 2
#     Edge 40, Type (0, 0), BuildingBlock: CIFDUS_clean_linker_0, # of connection points: 2
#     Edge 41, Type (0, 0), BuildingBlock: CIFDUS_clean_linker_0, # of connection points: 2
#     Edge 42, Type (0, 0), BuildingBlock: CIFDUS_clean_linker_0, # of connection points: 2
#     Edge 43, Type (0, 0), BuildingBlock: CIFDUS_clean_linker_0, # of connection points: 2
#     Edge 44, Type (0, 0), BuildingBlock: CIFDUS_clean_linker_0, # of connection points: 2
#     Edge 45, Type (0, 0), BuildingBlock: CIFDUS_clean_linker_0, # of connection points: 2
#     Edge 46, Type (0, 0), BuildingBlock: CIFDUS_clean_linker_0, # of connection points: 2
#     Edge 47, Type (0, 0), BuildingBlock: CIFDUS_clean_linker_0, # of connection points: 2
# Relax obj value: 0.038
# Max RMSD: 0.066
# Mean RMSD: 0.066
data_MOF--net-uou--node1-CEKHIL_clean_sbu_0--edge1-CIFDUS_clean_linker_0
_symmetry_space_group_name_H-M    P1
_symmetry_Int_Tables_number       1
_symmetry_cell_setting            triclinic
loop_
_symmetry_equiv_pos_as_xyz
'x, y, z'
_cell_length_a     33.003597
_cell_length_b     34.995994
_cell_length_c     46.523553
_cell_angle_alpha  89.933385
_cell_angle_beta   90.065599
_cell_angle_gamma 90.171795
loop_
_atom_site_label
_atom_site_type_symbol
_atom_site_fract_x
_atom_site_fract_y
_atom_site_fract_z
_atom_type_partial_charge
Co0 Co 0.0759 0.07664 0.12205 0.0
O1 O 0.10776 0.03057 0.1249 0.0
O2 O 0.13181 0.08512 0.10863 0.0
C3 C 0.04886 0.07273 0.16657 0.0
O4 O 0.04996 0.13049 0.11747 0.0
Co5 Co 0.98164 0.06719 0.12556 0.0
O6 O 0.98362 0.12348 0.12823 0.0
C7 C 0.02447 0.04549 0.07254 0.0
C8 C 0.13848 0.04934 0.11494 0.0
C9 C 0.01406 0.14447 0.12206 0.0
O10 O 0.05747 0.06076 0.08214 0.0
O11 O 0.99227 0.0423 0.08767 0.0
O12 O 0.08479 0.08717 0.16296 0.0
O13 O 0.03284 0.05774 0.14397 0.0
Co14 Co 0.42994 0.94366 0.13061 0.0
O15 O 0.39888 0.99038 0.13173 0.0
O16 O 0.37356 0.93491 0.11846 0.0
C17 C 0.45988 0.95046 0.17392 0.0
O18 O 0.45448 0.88917 0.12816 0.0
Co19 Co 0.52481 0.95054 0.13176 0.0
O20 O 0.52059 0.8953 0.14005 0.0
C21 C 0.47978 0.96938 0.07904 0.0
C22 C 0.36767 0.97129 0.12283 0.0
C23 C 0.48947 0.87473 0.13489 0.0
O24 O 0.44685 0.95568 0.08986 0.0
O25 O 0.51278 0.97283 0.09326 0.0
O26 O 0.4233 0.93673 0.17222 0.0
O27 O 0.47455 0.96335 0.15021 0.0
Co28 Co 0.59179 0.93579 0.37214 0.0
O29 O 0.62241 0.98303 0.36878 0.0
O30 O 0.64775 0.92931 0.38549 0.0
C31 C 0.56279 0.93774 0.32824 0.0
O32 O 0.56922 0.88097 0.37765 0.0
Co33 Co 0.49663 0.93759 0.36921 0.0
O34 O 0.50148 0.88133 0.36999 0.0
C35 C 0.53927 0.96627 0.42042 0.0
C36 C 0.6536 0.96514 0.37904 0.0
C37 C 0.53448 0.86386 0.37513 0.0
O38 O 0.57294 0.95152 0.41178 0.0
O39 O 0.50716 0.96716 0.40502 0.0
O40 O 0.5997 0.92531 0.33098 0.0
O41 O 0.54691 0.95182 0.35108 0.0
Co42 Co 0.94685 0.06813 0.37397 0.0
O43 O 0.91379 0.02248 0.3715 0.0
O44 O 0.89234 0.07661 0.38989 0.0
C45 C 0.97024 0.06607 0.3283 0.0
O46 O 0.9737 0.12165 0.3786 0.0
Co47 Co 0.04063 0.05907 0.36592 0.0
O48 O 0.0393 0.11553 0.36562 0.0
C49 C 1.00199 0.03234 0.4192 0.0
C50 C 0.8843 0.04128 0.38301 0.0
C51 C 0.00927 0.13605 0.37318 0.0
O52 O 0.96898 0.05017 0.41262 0.0
O53 O 0.03193 0.02916 0.40193 0.0
O54 O 0.93478 0.08045 0.33357 0.0
O55 O 0.98773 0.05016 0.34993 0.0
Co56 Co 0.91867 0.93604 0.86764 0.0
O57 O 0.89025 0.98415 0.86545 0.0
O58 O 0.86388 0.93101 0.88297 0.0
C59 C 0.94309 0.93724 0.82241 0.0
O60 O 0.93878 0.88063 0.87213 0.0
Co61 Co 0.01238 0.93513 0.86246 0.0
O62 O 1.00533 0.87895 0.86147 0.0
C63 C 0.97516 0.96263 0.91585 0.0
C64 C 0.85918 0.96699 0.87662 0.0
C65 C 0.9722 0.86219 0.86789 0.0
O66 O 0.94049 0.95066 0.90672 0.0
O67 O 1.00722 0.96196 0.90041 0.0
O68 O 0.90632 0.92576 0.82744 0.0
O69 O 0.96236 0.95108 0.84427 0.0
Co70 Co 0.57077 0.07619 0.87047 0.0
O71 O 0.60096 0.02925 0.86777 0.0
O72 O 0.62662 0.08367 0.88345 0.0
C73 C 0.5419 0.0732 0.82685 0.0
O74 O 0.5478 0.13058 0.8751 0.0
Co75 Co 0.47582 0.07116 0.86875 0.0
O76 O 0.47987 0.12751 0.86895 0.0
C77 C 0.52008 0.04667 0.92034 0.0
C78 C 0.63211 0.04763 0.87763 0.0
C79 C 0.51245 0.14638 0.87315 0.0
O80 O 0.55295 0.06159 0.91043 0.0
O81 O 0.48727 0.04425 0.90576 0.0
O82 O 0.57874 0.08595 0.82949 0.0
O83 O 0.526 0.05895 0.84974 0.0
Co84 Co 0.4293 0.07876 0.62325 0.0
O85 O 0.39114 0.03652 0.62298 0.0
O86 O 0.37678 0.09485 0.60829 0.0
C87 C 0.45282 0.06927 0.66817 0.0
O88 O 0.46081 0.12993 0.62162 0.0
Co89 Co 0.52213 0.06315 0.63052 0.0
O90 O 0.52505 0.11905 0.63589 0.0
C91 C 0.48201 0.04727 0.57521 0.0
C92 C 0.36434 0.06003 0.61295 0.0
C93 C 0.49668 0.14182 0.62878 0.0
O94 O 0.4492 0.06382 0.58367 0.0
O95 O 0.51243 0.04132 0.59164 0.0
O96 O 0.41892 0.08735 0.66424 0.0
O97 O 0.46857 0.05448 0.6455 0.0
Co98 Co 0.08222 0.93891 0.6276 0.0
O99 O 0.11935 0.98202 0.62775 0.0
O100 O 0.13269 0.92612 0.60818 0.0
C101 C 0.06513 0.94206 0.67457 0.0
O102 O 0.05204 0.88725 0.62454 0.0
Co103 Co 0.99069 0.95135 0.64129 0.0
O104 O 0.9885 0.89479 0.64127 0.0
C105 C 0.023 0.97554 0.58524 0.0
C106 C 0.14517 0.96043 0.61453 0.0
C107 C 0.0169 0.87369 0.63173 0.0
O108 O 0.05658 0.95794 0.59051 0.0
O109 O 0.99483 0.97936 0.60389 0.0
O110 O 0.09863 0.92563 0.66689 0.0
O111 O 0.04566 0.95914 0.65425 0.0
Co112 Co 0.57931 0.58074 0.11952 0.0
O113 O 0.61579 0.53688 0.11966 0.0
O114 O 0.63265 0.59434 0.10451 0.0
C115 C 0.55518 0.57314 0.1646 0.0
O116 O 0.5511 0.63349 0.11729 0.0
Co117 Co 0.48522 0.57084 0.12736 0.0
O118 O 0.48424 0.62722 0.12671 0.0
C119 C 0.52293 0.55423 0.07143 0.0
C120 C 0.64378 0.55934 0.10963 0.0
C121 C 0.51519 0.64761 0.12097 0.0
O122 O 0.55805 0.56618 0.07994 0.0
O123 O 0.49183 0.55146 0.08761 0.0
O124 O 0.5902 0.58934 0.16056 0.0
O125 O 0.53834 0.55896 0.14205 0.0
Co126 Co 0.92723 0.43833 0.12457 0.0
O127 O 0.88951 0.48102 0.12523 0.0
O128 O 0.87666 0.42578 0.10459 0.0
C129 C 0.94342 0.44026 0.17192 0.0
O130 O 0.95824 0.38707 0.12085 0.0
Co131 Co 0.01841 0.45177 0.13977 0.0
O132 O 0.0219 0.39538 0.13749 0.0
C133 C 0.98709 0.47751 0.08377 0.0
C134 C 0.86374 0.45965 0.11162 0.0
C135 C 0.99384 0.37405 0.12751 0.0
O136 O 0.9536 0.45901 0.08801 0.0
O137 O 0.01445 0.48135 0.10307 0.0
O138 O 0.91028 0.42358 0.16353 0.0
O139 O 0.9631 0.45816 0.15211 0.0
Co140 Co 0.0847 0.43446 0.36764 0.0
O141 O 0.11704 0.48037 0.36407 0.0
O142 O 0.13949 0.42719 0.38353 0.0
C143 C 0.06105 0.43477 0.32197 0.0
O144 O 0.05862 0.38094 0.37371 0.0
Co145 Co 0.99133 0.44275 0.36148 0.0
O146 O 0.99238 0.38627 0.36231 0.0
C147 C 0.03036 0.4676 0.41503 0.0
C148 C 0.14684 0.46247 0.37605 0.0
C149 C 0.02287 0.36621 0.36968 0.0
O150 O 0.06387 0.45289 0.40614 0.0
O151 O 0.99845 0.46923 0.39942 0.0
O152 O 0.09652 0.42085 0.32786 0.0
O153 O 0.04309 0.45153 0.34314 0.0
Co154 Co 0.43841 0.56892 0.36726 0.0
O155 O 0.40773 0.52167 0.36699 0.0
O156 O 0.38256 0.57697 0.38047 0.0
C157 C 0.46597 0.56228 0.32326 0.0
O158 O 0.46184 0.62395 0.369 0.0
Co159 Co 0.53323 0.56543 0.36354 0.0
O160 O 0.52699 0.62028 0.35434 0.0
C161 C 0.49186 0.5452 0.41758 0.0
C162 C 0.37664 0.54058 0.37611 0.0
C163 C 0.49562 0.63957 0.3608 0.0
O164 O 0.45781 0.55747 0.40757 0.0
O165 O 0.52423 0.54314 0.40255 0.0
O166 O 0.42935 0.57537 0.32594 0.0
O167 O 0.48246 0.55009 0.34661 0.0
Co168 Co 0.43513 0.43893 0.86875 0.0
O169 O 0.39642 0.48084 0.87034 0.0
O170 O 0.38252 0.4214 0.88254 0.0
C171 C 0.45962 0.45177 0.82436 0.0
O172 O 0.46554 0.38748 0.86884 0.0
Co173 Co 0.52863 0.45139 0.86155 0.0
O174 O 0.52927 0.39621 0.8529 0.0
C175 C 0.49042 0.46118 0.91849 0.0
C176 C 0.36958 0.45616 0.87896 0.0
C177 C 0.5002 0.37439 0.8604 0.0
O178 O 0.45515 0.45092 0.90907 0.0
O179 O 0.5219 0.46475 0.90274 0.0
O180 O 0.42553 0.43345 0.82729 0.0
O181 O 0.47535 0.46448 0.8478 0.0
Co182 Co 0.08053 0.56783 0.87348 0.0
O183 O 0.11736 0.52419 0.87152 0.0
O184 O 0.13345 0.58068 0.88901 0.0
C185 C 0.05571 0.5638 0.82803 0.0
O186 O 0.05388 0.62061 0.87768 0.0
Co187 Co 0.98689 0.56209 0.86635 0.0
O188 O 0.98801 0.61872 0.86537 0.0
C189 C 0.02562 0.53311 0.91911 0.0
C190 C 0.14508 0.54637 0.88241 0.0
C191 C 0.01971 0.63727 0.87251 0.0
O192 O 0.05932 0.55008 0.91259 0.0
O193 O 0.99534 0.53132 0.90198 0.0
O194 O 0.09096 0.5793 0.83269 0.0
O195 O 0.03882 0.54841 0.85017 0.0
Co196 Co 0.93755 0.57846 0.62435 0.0
O197 O 0.90067 0.53507 0.62658 0.0
O198 O 0.88323 0.59254 0.61179 0.0
C199 C 0.96608 0.57125 0.66837 0.0
O200 O 0.96644 0.63074 0.62044 0.0
Co201 Co 0.03118 0.5665 0.62627 0.0
O202 O 0.03309 0.62285 0.62911 0.0
C203 C 0.98598 0.54764 0.57337 0.0
C204 C 0.87226 0.55757 0.61743 0.0
C205 C 1.00268 0.64423 0.62415 0.0
O206 O 0.95362 0.56305 0.58376 0.0
O207 O 0.01854 0.54347 0.58799 0.0
O208 O 0.93111 0.58783 0.66567 0.0
O209 O 0.98027 0.55628 0.64517 0.0
Co210 Co 0.58793 0.43469 0.6251 0.0
O211 O 0.62522 0.47766 0.62791 0.0
O212 O 0.64202 0.4205 0.61219 0.0
C213 C 0.55949 0.44088 0.66885 0.0
O214 O 0.55819 0.383 0.62028 0.0
Co215 Co 0.49396 0.44817 0.62757 0.0
O216 O 0.49092 0.39182 0.62585 0.0
C217 C 0.53995 0.46908 0.57568 0.0
C218 C 0.65332 0.45525 0.61825 0.0
C219 C 0.52135 0.37021 0.62171 0.0
O220 O 0.57164 0.45148 0.58506 0.0
O221 O 0.50811 0.47421 0.59082 0.0
O222 O 0.59438 0.4241 0.66629 0.0
O223 O 0.54557 0.45659 0.64589 0.0
H224 H 0.29162 0.93972 0.11517 0.0
H225 H 0.35409 0.04787 0.12079 0.0
H226 H 0.29 0.08184 0.11658 0.0
H227 H 0.21501 0.0814 0.11393 0.0
H228 H 0.1524 0.9732 0.1105 0.0
H229 H 0.21685 0.93931 0.11094 0.0
C230 C 0.29123 0.97069 0.11523 0.0
C231 C 0.32791 0.99099 0.11841 0.0
C232 C 0.25385 0.99036 0.11324 0.0
C233 C 0.32652 0.03126 0.11855 0.0
C234 C 0.28973 0.05088 0.11612 0.0
C235 C 0.21553 0.05045 0.11288 0.0
C236 C 0.17868 0.03004 0.11217 0.0
C237 C 0.25303 0.03082 0.1138 0.0
C238 C 0.18013 0.98982 0.11116 0.0
C239 C 0.21711 0.97027 0.11145 0.0
H240 H 0.72907 0.93367 0.38748 0.0
H241 H 0.66838 0.04187 0.3779 0.0
H242 H 0.73323 0.07545 0.38075 0.0
H243 H 0.80839 0.07431 0.38343 0.0
H244 H 0.86895 0.96569 0.39001 0.0
H245 H 0.80379 0.93259 0.39116 0.0
C246 C 0.72998 0.96461 0.38627 0.0
C247 C 0.6936 0.98504 0.38246 0.0
C248 C 0.76775 0.98391 0.38736 0.0
C249 C 0.6957 0.0252 0.38072 0.0
C250 C 0.73293 0.04455 0.38237 0.0
C251 C 0.80726 0.04347 0.38555 0.0
C252 C 0.84375 0.02265 0.38677 0.0
C253 C 0.76933 0.02427 0.38538 0.0
C254 C 0.84152 0.98256 0.38903 0.0
C255 C 0.80413 0.96349 0.38962 0.0
H256 H 0.7832 0.9367 0.88323 0.0
H257 H 0.84742 0.04395 0.87797 0.0
H258 H 0.78346 0.07876 0.88005 0.0
H259 H 0.70847 0.07889 0.88038 0.0
H260 H 0.64449 0.9713 0.88266 0.0
H261 H 0.70855 0.93686 0.88488 0.0
C262 C 0.7832 0.96769 0.88289 0.0
C263 C 0.82014 0.98759 0.88046 0.0
C264 C 0.74609 0.98764 0.88339 0.0
C265 C 0.81947 0.02781 0.87975 0.0
C266 C 0.78283 0.04782 0.88091 0.0
C267 C 0.70861 0.04795 0.8817 0.0
C268 C 0.67163 0.02779 0.88132 0.0
C269 C 0.74583 0.02807 0.88229 0.0
C270 C 0.67244 0.98762 0.88276 0.0
C271 C 0.70913 0.96781 0.88404 0.0
H272 H 0.17423 0.03368 0.61317 0.0
H273 H 0.21199 0.91633 0.60499 0.0
H274 H 0.28288 0.93675 0.60264 0.0
H275 H 0.33466 0.98771 0.60623 0.0
H276 H 0.29692 0.1053 0.61183 0.0
H277 H 0.2258 0.08516 0.61163 0.0
C278 C 0.19795 0.01259 0.61055 0.0
C279 C 0.18768 0.97343 0.60948 0.0
C280 C 0.23878 0.02462 0.60889 0.0
C281 C 0.21887 0.9466 0.60582 0.0
C282 C 0.25951 0.95827 0.60462 0.0
C283 C 0.31086 0.00897 0.60711 0.0
C284 C 0.32123 0.04801 0.60928 0.0
C285 C 0.26991 0.99715 0.60664 0.0
C286 C 0.28993 0.07513 0.6101 0.0
C287 C 0.24918 0.06358 0.61013 0.0
H288 H 0.83424 0.53269 0.10999 0.0
H289 H 0.79634 0.41505 0.10347 0.0
H290 H 0.72531 0.43505 0.10175 0.0
H291 H 0.67326 0.4861 0.10485 0.0
H292 H 0.71178 0.60386 0.10815 0.0
H293 H 0.78268 0.58383 0.1082 0.0
C294 C 0.81048 0.51142 0.10788 0.0
C295 C 0.82087 0.4723 0.10702 0.0
C296 C 0.76952 0.52322 0.10646 0.0
C297 C 0.78948 0.44529 0.10406 0.0
C298 C 0.74871 0.45675 0.10324 0.0
C299 C 0.69718 0.5074 0.10532 0.0
C300 C 0.68691 0.54655 0.10669 0.0
C301 C 0.73825 0.49563 0.10484 0.0
C302 C 0.71851 0.57363 0.10702 0.0
C303 C 0.75922 0.56215 0.10717 0.0
H304 H 0.30045 0.57232 0.37904 0.0
H305 H 0.36266 0.46422 0.38154 0.0
H306 H 0.298 0.43036 0.38405 0.0
H307 H 0.22287 0.43078 0.3826 0.0
H308 H 0.16094 0.53888 0.37742 0.0
H309 H 0.22551 0.57285 0.37908 0.0
C310 C 0.29986 0.54139 0.38048 0.0
C311 C 0.33662 0.52101 0.38009 0.0
C312 C 0.26224 0.52181 0.38129 0.0
C313 C 0.33501 0.48082 0.38169 0.0
C314 C 0.29791 0.4613 0.38312 0.0
C315 C 0.22352 0.46176 0.38222 0.0
C316 C 0.18685 0.48209 0.37989 0.0
C317 C 0.26118 0.48138 0.38251 0.0
C318 C 0.18852 0.52232 0.3791 0.0
C319 C 0.22557 0.5419 0.38003 0.0
H320 H 0.17772 0.47393 0.88089 0.0
H321 H 0.21078 0.59274 0.8892 0.0
H322 H 0.28242 0.57571 0.88942 0.0
H323 H 0.33645 0.52737 0.8852 0.0
H324 H 0.30398 0.4082 0.87974 0.0
H325 H 0.23205 0.42493 0.88067 0.0
C326 C 0.20059 0.49605 0.88297 0.0
C327 C 0.18857 0.53467 0.88487 0.0
C328 C 0.24215 0.48598 0.88353 0.0
C329 C 0.21885 0.56283 0.88775 0.0
C330 C 0.26001 0.55312 0.88778 0.0
C331 C 0.31365 0.50502 0.88443 0.0
C332 C 0.32585 0.46653 0.88224 0.0
C333 C 0.27212 0.51484 0.88539 0.0
C334 C 0.29569 0.43802 0.88151 0.0
C335 C 0.2544 0.44761 0.88192 0.0
H336 H 0.68211 0.52864 0.61638 0.0
H337 H 0.72152 0.41131 0.61442 0.0
H338 H 0.79231 0.4323 0.61362 0.0
H339 H 0.84349 0.48412 0.6153 0.0
H340 H 0.80397 0.60146 0.61458 0.0
H341 H 0.7332 0.58045 0.61445 0.0
C342 C 0.70618 0.50764 0.61563 0.0
C343 C 0.69632 0.46835 0.61566 0.0
C344 C 0.747 0.51998 0.61474 0.0
C345 C 0.72804 0.44166 0.61439 0.0
C346 C 0.76863 0.45368 0.61402 0.0
C347 C 0.81939 0.50511 0.61495 0.0
C348 C 0.82924 0.54441 0.61513 0.0
C349 C 0.77855 0.49277 0.61447 0.0
C350 C 0.79748 0.5711 0.6144 0.0
C351 C 0.75689 0.55907 0.61443 0.0
H352 H 0.93499 0.0708 0.27562 0.0
H353 H 0.0512 0.06859 0.31806 0.0
H354 H 0.08561 0.07313 0.27191 0.0
H355 H 0.08299 0.07563 0.21927 0.0
H356 H 0.96738 0.07108 0.17619 0.0
H357 H 0.93243 0.07128 0.22254 0.0
C358 C 0.96782 0.07157 0.27467 0.0
C359 C 0.99051 0.06966 0.30019 0.0
C360 C 0.98752 0.07281 0.24789 0.0
C361 C 0.03302 0.07006 0.29874 0.0
C362 C 0.05278 0.07266 0.27233 0.0
C363 C 0.05014 0.07494 0.22009 0.0
C364 C 0.02775 0.07361 0.19446 0.0
C365 C 0.03037 0.07377 0.24676 0.0
C366 C 0.98524 0.07211 0.1957 0.0
C367 C 0.96526 0.07225 0.22219 0.0
H368 H 0.43493 0.93306 0.22791 0.0
H369 H 0.54147 0.96124 0.17851 0.0
H370 H 0.58354 0.9557 0.22133 0.0
H371 H 0.58986 0.94561 0.27357 0.0
H372 H 0.48225 0.92358 0.32338 0.0
H373 H 0.44111 0.92352 0.27996 0.0
C374 C 0.46736 0.93785 0.22655 0.0
C375 C 0.48499 0.94735 0.20007 0.0
C376 C 0.49131 0.93563 0.25143 0.0
C377 C 0.52704 0.9538 0.19862 0.0
C378 C 0.55122 0.95061 0.22312 0.0
C379 C 0.5575 0.94033 0.27474 0.0
C380 C 0.53914 0.93443 0.30153 0.0
C381 C 0.53368 0.94182 0.24971 0.0
C382 C 0.4971 0.92825 0.30299 0.0
C383 C 0.47348 0.92827 0.27815 0.0
H384 H 0.98661 0.94489 0.69086 0.0
H385 H 0.10772 0.93313 0.7244 0.0
H386 H 0.08094 0.93121 0.77354 0.0
H387 H 0.02263 0.93394 0.80694 0.0
H388 H 0.90154 0.94019 0.7723 0.0
H389 H 0.92866 0.94301 0.72356 0.0
C390 C 1.00715 0.94189 0.7089 0.0
C391 C 0.04905 0.93954 0.70411 0.0
C392 C 0.99147 0.93979 0.73687 0.0
C393 C 0.07529 0.93504 0.72765 0.0
C394 C 0.06 0.93402 0.7557 0.0
C395 C 1.00231 0.93588 0.78867 0.0
C396 C 0.96021 0.93718 0.79314 0.0
C397 C 0.01811 0.93655 0.76058 0.0
C398 C 0.93407 0.93911 0.76935 0.0
C399 C 0.94954 0.94084 0.74149 0.0
H400 H 0.42209 0.08173 0.7215 0.0
H401 H 0.53333 0.05727 0.67654 0.0
H402 H 0.57094 0.05945 0.72134 0.0
H403 H 0.57246 0.06684 0.7736 0.0
H404 H 0.46083 0.0838 0.81973 0.0
H405 H 0.42318 0.08613 0.77444 0.0
C406 C 0.45456 0.077 0.7216 0.0
C407 C 0.4749 0.06986 0.69569 0.0
C408 C 0.47596 0.07692 0.7477 0.0
C409 C 0.51687 0.06315 0.69609 0.0
C410 C 0.53853 0.06435 0.72176 0.0
C411 C 0.53993 0.07129 0.77362 0.0
C412 C 0.51938 0.07547 0.79971 0.0
C413 C 0.5184 0.07111 0.74768 0.0
C414 C 0.47719 0.08053 0.79974 0.0
C415 C 0.45568 0.08186 0.77389 0.0
H416 H 0.5871 0.56805 0.21827 0.0
H417 H 0.47416 0.58086 0.17264 0.0
H418 H 0.43693 0.58054 0.21761 0.0
H419 H 0.43581 0.57436 0.26997 0.0
H420 H 0.54766 0.5555 0.3158 0.0
H421 H 0.58575 0.56031 0.27104 0.0
C422 C 0.55439 0.57105 0.21832 0.0
C423 C 0.53347 0.57459 0.19221 0.0
C424 C 0.53287 0.56951 0.24436 0.0
C425 C 0.49105 0.57793 0.1924 0.0
C426 C 0.46963 0.57778 0.21816 0.0
C427 C 0.46852 0.57143 0.27014 0.0
C428 C 0.48885 0.56484 0.29613 0.0
C429 C 0.49014 0.57317 0.24425 0.0
C430 C 0.53123 0.56069 0.29605 0.0
C431 C 0.5531 0.56345 0.27045 0.0
H432 H 0.98171 0.43517 0.30522 0.0
H433 H 0.10391 0.43343 0.2725 0.0
H434 H 0.0784 0.43567 0.22327 0.0
H435 H 0.02156 0.4394 0.18947 0.0
H436 H 0.89903 0.43502 0.22118 0.0
H437 H 0.92424 0.43382 0.27081 0.0
C438 C 1.00261 0.43526 0.28725 0.0
C439 C 0.0446 0.43451 0.29243 0.0
C440 C 0.98766 0.43549 0.25886 0.0
C441 C 0.07145 0.434 0.26903 0.0
C442 C 0.05691 0.43538 0.24087 0.0
C443 C 1.0004 0.43815 0.20724 0.0
C444 C 0.95855 0.43771 0.20176 0.0
C445 C 0.01512 0.43635 0.23553 0.0
C446 C 0.93143 0.43541 0.22495 0.0
C447 C 0.94583 0.43482 0.25329 0.0
H448 H 0.58613 0.45355 0.72278 0.0
H449 H 0.47879 0.42676 0.674 0.0
H450 H 0.43826 0.42611 0.71784 0.0
H451 H 0.43317 0.43436 0.77037 0.0
H452 H 0.53925 0.47029 0.81762 0.0
H453 H 0.58008 0.46642 0.77444 0.0
C454 C 0.55392 0.44731 0.72191 0.0
C455 C 0.53553 0.43959 0.69543 0.0
C456 C 0.53046 0.44884 0.74702 0.0
C457 C 0.49365 0.43245 0.69426 0.0
C458 C 0.47042 0.43219 0.71932 0.0
C459 C 0.46519 0.44135 0.77114 0.0
C460 C 0.48316 0.45173 0.79736 0.0
C461 C 0.48845 0.44056 0.74585 0.0
C462 C 0.52459 0.46144 0.79794 0.0
C463 C 0.54813 0.45936 0.77317 0.0
H464 H 0.08754 0.5672 0.77391 0.0
H465 H 0.97425 0.56758 0.82 0.0
H466 H 0.93692 0.57237 0.77509 0.0
H467 H 0.93582 0.57466 0.72237 0.0
H468 H 0.0481 0.56734 0.67553 0.0
H469 H 0.08624 0.56702 0.72064 0.0
C470 C 0.05471 0.56855 0.77403 0.0
C471 C 0.03381 0.56735 0.80034 0.0
C472 C 0.03314 0.56989 0.74785 0.0
C473 C 0.99122 0.5685 0.80017 0.0
C474 C 0.96973 0.57125 0.77441 0.0
C475 C 0.96865 0.57317 0.72208 0.0
C476 C 0.9891 0.57128 0.69569 0.0
C477 C 0.99029 0.57171 0.74811 0.0
C478 C 0.03161 0.5688 0.69559 0.0
C479 C 0.05347 0.56865 0.7214 0.0
H480 H 0.06748 0.20619 0.12149 0.0
H481 H 0.94005 0.17795 0.1179 0.0
H482 H 0.92254 0.24501 0.11799 0.0
H483 H 0.94218 0.31265 0.12121 0.0
H484 H 0.06912 0.3419 0.12539 0.0
H485 H 0.08735 0.27465 0.12268 0.0
C486 C 0.03596 0.2147 0.12046 0.0
C487 C 1.00543 0.18647 0.11994 0.0
C488 C 0.02558 0.25401 0.1207 0.0
C489 C 0.96461 0.19853 0.11865 0.0
C490 C 0.95428 0.23718 0.11864 0.0
C491 C 0.97382 0.30439 0.12126 0.0
C492 C 1.00398 0.33266 0.12371 0.0
C493 C 0.98438 0.26529 0.12 0.0
C494 C 0.04494 0.32101 0.12384 0.0
C495 C 0.05557 0.28235 0.12225 0.0
H496 H 0.44938 0.8165 0.10618 0.0
H497 H 0.54597 0.83807 0.16672 0.0
H498 H 0.56501 0.77113 0.16586 0.0
H499 H 0.55521 0.70567 0.14785 0.0
H500 H 0.45698 0.68238 0.08943 0.0
H501 H 0.43831 0.75004 0.0891 0.0
C502 C 0.47421 0.80642 0.11943 0.0
C503 C 0.49621 0.83261 0.13633 0.0
C504 C 0.48539 0.76739 0.11883 0.0
C505 C 0.52857 0.81884 0.15324 0.0
C506 C 0.5397 0.78042 0.15275 0.0
C507 C 0.53022 0.71564 0.13469 0.0
C508 C 0.508 0.68926 0.11829 0.0
C509 C 0.51874 0.75444 0.13538 0.0
C510 C 0.47486 0.70233 0.10198 0.0
C511 C 0.46397 0.74098 0.10195 0.0
H512 H 0.48023 0.69416 0.40166 0.0
H513 H 0.52462 0.67861 0.31541 0.0
H514 H 0.54452 0.74581 0.31299 0.0
H515 H 0.55008 0.80939 0.33546 0.0
H516 H 0.50621 0.82572 0.4216 0.0
H517 H 0.4862 0.75825 0.42436 0.0
C518 C 0.49343 0.70582 0.38219 0.0
C519 C 0.5002 0.68164 0.35853 0.0
C520 C 0.50601 0.74449 0.38123 0.0
C521 C 0.51851 0.69684 0.33372 0.0
C522 C 0.5303 0.73518 0.33241 0.0
C523 C 0.53717 0.79778 0.35506 0.0
C524 C 0.5309 0.82201 0.37866 0.0
C525 C 0.52476 0.7592 0.35615 0.0
C526 C 0.51254 0.80717 0.40353 0.0
C527 C 0.50056 0.76874 0.40494 0.0
H528 H 0.07729 0.30627 0.37142 0.0
H529 H 0.94964 0.33147 0.37728 0.0
H530 H 0.93376 0.26379 0.38022 0.0
H531 H 0.95526 0.1962 0.37866 0.0
H532 H 0.08305 0.17129 0.37258 0.0
H533 H 0.099 0.23889 0.37232 0.0
C534 C 0.04607 0.297 0.37361 0.0
C535 C 0.01493 0.32437 0.37381 0.0
C536 C 0.03676 0.25752 0.37509 0.0
C537 C 0.97453 0.3114 0.37665 0.0
C538 C 0.96521 0.27245 0.3784 0.0
C539 C 0.98658 0.20552 0.37754 0.0
C540 C 0.01758 0.17813 0.37539 0.0
C541 C 0.99597 0.24506 0.37723 0.0
C542 C 0.05811 0.19124 0.37396 0.0
C543 C 0.06753 0.2302 0.37384 0.0
H544 H 0.95158 0.6819 0.87109 0.0
H545 H 0.08199 0.68873 0.87749 0.0
H546 H 0.07832 0.75835 0.87733 0.0
H547 H 0.03873 0.81717 0.87375 0.0
H548 H 0.9083 0.81131 0.86811 0.0
H549 H 0.91146 0.74137 0.86978 0.0
C550 C 0.97926 0.69854 0.87256 0.0
C551 C 0.0171 0.67979 0.87415 0.0
C552 C 0.97696 0.73877 0.87253 0.0
C553 C 0.05248 0.7021 0.87626 0.0
C554 C 0.05042 0.74202 0.87609 0.0
C555 C 0.01084 0.80074 0.8729 0.0
C556 C 0.97327 0.81971 0.87054 0.0
C557 C 0.0129 0.76063 0.87396 0.0
C558 C 0.93761 0.79766 0.86989 0.0
C559 C 0.93943 0.75761 0.87077 0.0
H560 H 0.45424 0.3173 0.88433 0.0
H561 H 0.56505 0.33704 0.83728 0.0
H562 H 0.58069 0.26916 0.83909 0.0
H563 H 0.56234 0.20314 0.85301 0.0
H564 H 0.45076 0.18359 0.89891 0.0
H565 H 0.43658 0.2519 0.89894 0.0
C566 C 0.48172 0.30679 0.87436 0.0
C567 C 0.50822 0.33251 0.86066 0.0
C568 C 0.49077 0.26749 0.8755 0.0
C569 C 0.5439 0.31812 0.84804 0.0
C570 C 0.55305 0.27917 0.84909 0.0
C571 C 0.53533 0.214 0.8634 0.0
C572 C 0.50775 0.18833 0.87599 0.0
C573 C 0.52676 0.25349 0.86277 0.0
C574 C 0.47247 0.20277 0.889 0.0
C575 C 0.46421 0.24185 0.88895 0.0
H576 H 0.44962 0.20263 0.61137 0.0
H577 H 0.56798 0.17508 0.64516 0.0
H578 H 0.58711 0.24203 0.64417 0.0
H579 H 0.57035 0.30947 0.63492 0.0
H580 H 0.45168 0.33751 0.60236 0.0
H581 H 0.4332 0.27007 0.60143 0.0
C582 C 0.47956 0.21123 0.61854 0.0
C583 C 0.50705 0.18342 0.62832 0.0
C584 C 0.49068 0.25024 0.61804 0.0
C585 C 0.54586 0.19548 0.63746 0.0
C586 C 0.55707 0.23398 0.63689 0.0
C587 C 0.54067 0.30075 0.62729 0.0
C588 C 0.51257 0.32865 0.61876 0.0
C589 C 0.52978 0.26172 0.62728 0.0
C590 C 0.47397 0.31675 0.60924 0.0
C591 C 0.46325 0.27808 0.60871 0.0
H592 H 0.06971 0.81439 0.62166 0.0
H593 H 0.94303 0.83865 0.6355 0.0
H594 H 0.92694 0.77092 0.63305 0.0
H595 H 0.94865 0.70377 0.62872 0.0
H596 H 0.07552 0.67949 0.61602 0.0
H597 H 0.09117 0.74742 0.61614 0.0
C598 C 0.03857 0.80492 0.62397 0.0
C599 C 0.00786 0.83196 0.62889 0.0
C600 C 0.02928 0.76551 0.62282 0.0
C601 C 0.96761 0.81879 0.63189 0.0
C602 C 0.95819 0.77986 0.63045 0.0
C603 C 0.97965 0.71334 0.62574 0.0
C604 C 0.01071 0.68622 0.62251 0.0
C605 C 0.98878 0.75282 0.62618 0.0
C606 C 0.05081 0.69943 0.61882 0.0
C607 C 0.05994 0.73846 0.61884 0.0
H608 H 0.04243 0.99005 0.94363 0.0
H609 H 0.91445 0.96866 0.95548 0.0
H610 H 0.91887 0.99227 0.00457 0.0
H611 H 0.95846 0.01858 0.04406 0.0
H612 H 0.08635 0.04066 0.03304 0.0
H613 H 0.08235 0.01713 0.98359 0.0
C614 C 0.01545 0.99053 0.9569 0.0
C615 C 0.97815 0.97742 0.94571 0.0
C616 C 0.01812 1.00423 0.98526 0.0
C617 C 0.94359 0.97842 0.96336 0.0
C618 C 0.94605 0.99194 0.99151 0.0
C619 C 0.98563 0.01827 0.03098 0.0
C620 C 0.02271 0.03137 0.04243 0.0
C621 C 0.98312 1.00483 0.00267 0.0
C622 C 0.05739 0.03081 0.02489 0.0
C623 C 0.05513 0.01733 0.99659 0.0
H624 H 0.45562 0.01782 0.94967 0.0
H625 H 0.58327 0.04352 0.95839 0.0
H626 H 0.5817 0.02142 0.0081 0.0
H627 H 0.54428 0.99589 0.04889 0.0
H628 H 0.41656 0.9704 0.04063 0.0
H629 H 0.41821 0.99146 0.99055 0.0
C630 C 0.48321 0.01855 0.96234 0.0
C631 C 0.51951 0.03245 0.95026 0.0
C632 C 0.48211 1.00594 0.99091 0.0
C633 C 0.55488 0.03311 0.96711 0.0
C634 C 0.55403 0.02048 0.99554 0.0
C635 C 0.51666 0.99486 0.03626 0.0
C636 C 0.48029 0.98162 0.04861 0.0
C637 C 0.51779 0.00703 0.00764 0.0
C638 C 0.44497 0.98045 0.03172 0.0
C639 C 0.44588 0.99251 0.0031 0.0
H640 H 0.54914 0.01872 0.54955 0.0
H641 H 0.42418 0.04805 0.53268 0.0
H642 H 0.43176 0.02663 0.48298 0.0
H643 H 0.47322 0.99862 0.4451 0.0
H644 H 0.598 0.9688 0.4622 0.0
H645 H 0.59091 0.99185 0.51148 0.0
C646 C 0.52337 0.02047 0.53513 0.0
C647 C 0.48599 0.03484 0.54496 0.0
C648 C 0.52792 0.00813 0.50674 0.0
C649 C 0.45323 0.03708 0.52576 0.0
C650 C 0.45755 0.02484 0.49735 0.0
C651 C 0.49906 0.99716 0.45947 0.0
C652 C 0.53613 0.98177 0.44991 0.0
C653 C 0.49471 0.01018 0.48772 0.0
C654 C 0.56914 0.98038 0.46895 0.0
C655 C 0.56508 0.9935 0.49713 0.0
H656 H 0.05918 0.95501 0.53494 0.0
H657 H 0.96793 0.02988 0.56974 0.0
H658 H 0.95146 0.0526 0.52156 0.0
H659 H 0.96328 0.05174 0.4692 0.0
H660 H 0.05433 0.97625 0.4348 0.0
H661 H 0.06994 0.95312 0.48285 0.0
C662 C 0.03593 0.97651 0.53201 0.0
C663 C 0.01503 0.99075 0.55599 0.0
C664 C 0.02615 0.98918 0.50416 0.0
C665 C 0.98456 0.0183 0.55169 0.0
C666 C 0.97499 0.03132 0.5241 0.0
C667 C 0.98617 0.02992 0.47221 0.0
C668 C 0.00763 0.01596 0.44836 0.0
C669 C 0.99546 0.01686 0.50011 0.0
C670 C 0.03746 0.98782 0.45274 0.0
C671 C 0.04655 0.97454 0.48026 0.0
H672 H 0.56023 0.4989 0.04066 0.0
H673 H 0.46753 0.58508 0.0362 0.0
H674 H 0.44546 0.56113 0.98939 0.0
H675 H 0.45218 0.51507 0.94975 0.0
H676 H 0.54513 0.42915 0.9539 0.0
H677 H 0.56671 0.45253 0.00104 0.0
C678 C 0.53588 0.51281 0.029 0.0
C679 C 0.51602 0.54405 0.04129 0.0
C680 C 0.52258 0.49815 0.0025 0.0
C681 C 0.48363 0.56133 0.02664 0.0
C682 C 0.47069 0.54739 0.00012 0.0
C683 C 0.4764 0.501 0.96144 0.0
C684 C 0.49654 0.47008 0.94894 0.0
C685 C 0.48954 0.51547 0.98801 0.0
C686 C 0.5288 0.45264 0.96363 0.0
C687 C 0.54148 0.46628 0.99032 0.0
H688 H 0.96106 0.45211 0.03142 0.0
H689 H 0.03611 0.53804 0.0714 0.0
H690 H 0.05769 0.56111 0.0243 0.0
H691 H 0.05496 0.55737 0.97124 0.0
H692 H 0.98013 0.4709 0.93165 0.0
H693 H 0.95965 0.4473 0.97873 0.0
C694 C 0.98174 0.47616 0.02979 0.0
C695 C 0.99661 0.49344 0.05493 0.0
C696 C 0.99473 0.4889 0.00257 0.0
C697 C 0.02404 0.5242 0.0524 0.0
C698 C 0.03661 0.53736 0.02544 0.0
C699 C 0.03479 0.53295 0.97299 0.0
C700 C 0.01922 0.51594 0.94794 0.0
C701 C 0.0224 0.51979 0.00031 0.0
C702 C 0.99256 0.48462 0.9506 0.0
C703 C 0.98059 0.47117 0.97753 0.0
H704 H 0.05078 0.52085 0.54373 0.0
H705 H 0.92319 0.54498 0.5342 0.0
H706 H 0.92579 0.52294 0.48427 0.0
H707 H 0.96436 0.49617 0.44355 0.0
H708 H 0.092 0.47253 0.45414 0.0
H709 H 0.08904 0.49519 0.50353 0.0
C710 C 0.02334 0.52133 0.5309 0.0
C711 C 0.98675 0.53453 0.54293 0.0
C712 C 0.02506 0.50871 0.50232 0.0
C713 C 0.95177 0.53501 0.52564 0.0
C714 C 0.95325 0.52238 0.49706 0.0
C715 C 0.99161 0.49604 0.45659 0.0
C716 C 0.02837 0.48247 0.44496 0.0
C717 C 0.98975 0.5091 0.48519 0.0
C718 C 0.06326 0.48261 0.46235 0.0
C719 C 0.06162 0.49559 0.49068 0.0
H720 H 0.47551 0.49973 0.54793 0.0
H721 H 0.60114 0.46933 0.53561 0.0
H722 H 0.59711 0.49061 0.48558 0.0
H723 H 0.55769 0.5168 0.44557 0.0
H724 H 0.4318 0.5462 0.45817 0.0
H725 H 0.43641 0.52606 0.50828 0.0
C726 C 0.50223 0.49781 0.53447 0.0
C727 C 0.53866 0.48291 0.54561 0.0
C728 C 0.49962 0.50976 0.50584 0.0
C729 C 0.57274 0.48062 0.52764 0.0
C730 C 0.57043 0.49276 0.49904 0.0
C731 C 0.53115 0.5189 0.45919 0.0
C732 C 0.49439 0.53305 0.44801 0.0
C733 C 0.53396 0.50719 0.48793 0.0
C734 C 0.46045 0.53545 0.46611 0.0
C735 C 0.46306 0.52396 0.49478 0.0
loop_
_geom_bond_atom_site_label_1
_geom_bond_atom_site_label_2
_geom_bond_distance
_geom_bond_site_symmetry_2
_ccdc_geom_bond_type
Co0 O1 2.216 . S
Co0 O2 2.091 . S
Co0 O4 2.004 . S
Co0 O10 2.021 . S
Co0 O12 2.137 . S
Co0 O13 2.244 . S
O1 Co0 2.216 . S
O1 C8 1.247 . S
O2 Co0 2.091 . S
O2 C8 1.261 . S
C3 O12 1.247 . S
C3 O13 1.272 . S
O4 Co0 2.004 . S
O4 C9 1.259 . S
Co5 O6 2.061 . S
Co5 O11 2.052 . S
Co5 O13 2.135 1_655 S
O6 Co5 2.061 . S
O6 C9 1.235 1_655 S
C7 O10 1.238 . S
C7 O11 1.241 1_455 S
C8 O1 1.247 . S
C8 O2 1.261 . S
C9 O4 1.259 . S
C9 O6 1.235 1_455 S
O10 Co0 2.021 . S
O10 C7 1.238 . S
O11 Co5 2.052 . S
O11 C7 1.241 1_655 S
O12 Co0 2.137 . S
O12 C3 1.247 . S
O13 Co0 2.244 . S
O13 C3 1.272 . S
O13 Co5 2.135 1_455 S
Co14 O15 2.216 . S
Co14 O16 2.091 . S
Co14 O18 2.004 . S
Co14 O24 2.021 . S
Co14 O26 2.137 . S
Co14 O27 2.244 . S
O15 Co14 2.216 . S
O15 C22 1.247 . S
O16 Co14 2.091 . S
O16 C22 1.261 . S
C17 O26 1.247 . S
C17 O27 1.272 . S
O18 Co14 2.004 . S
O18 C23 1.259 . S
Co19 O20 2.061 . S
Co19 O25 2.052 . S
Co19 O27 2.135 . S
O20 Co19 2.061 . S
O20 C23 1.235 . S
C21 O24 1.238 . S
C21 O25 1.241 . S
C22 O15 1.247 . S
C22 O16 1.261 . S
C23 O18 1.259 . S
C23 O20 1.235 . S
O24 Co14 2.021 . S
O24 C21 1.238 . S
O25 Co19 2.052 . S
O25 C21 1.241 . S
O26 Co14 2.137 . S
O26 C17 1.247 . S
O27 Co14 2.244 . S
O27 C17 1.272 . S
O27 Co19 2.135 . S
Co28 O29 2.216 . S
Co28 O30 2.091 . S
Co28 O32 2.004 . S
Co28 O38 2.021 . S
Co28 O40 2.137 . S
Co28 O41 2.244 . S
O29 Co28 2.216 . S
O29 C36 1.247 . S
O30 Co28 2.091 . S
O30 C36 1.261 . S
C31 O40 1.247 . S
C31 O41 1.272 . S
O32 Co28 2.004 . S
O32 C37 1.259 . S
Co33 O34 2.061 . S
Co33 O39 2.052 . S
Co33 O41 2.135 . S
O34 Co33 2.061 . S
O34 C37 1.235 . S
C35 O38 1.238 . S
C35 O39 1.241 . S
C36 O29 1.247 . S
C36 O30 1.261 . S
C37 O32 1.259 . S
C37 O34 1.235 . S
O38 Co28 2.021 . S
O38 C35 1.238 . S
O39 Co33 2.052 . S
O39 C35 1.241 . S
O40 Co28 2.137 . S
O40 C31 1.247 . S
O41 Co28 2.244 . S
O41 C31 1.272 . S
O41 Co33 2.135 . S
Co42 O43 2.216 . S
Co42 O44 2.091 . S
Co42 O46 2.004 . S
Co42 O52 2.021 . S
Co42 O54 2.137 . S
Co42 O55 2.244 . S
O43 Co42 2.216 . S
O43 C50 1.247 . S
O44 Co42 2.091 . S
O44 C50 1.261 . S
C45 O54 1.247 . S
C45 O55 1.272 . S
O46 Co42 2.004 . S
O46 C51 1.259 . S
Co47 O48 2.061 . S
Co47 O53 2.052 . S
Co47 O55 2.135 1_455 S
O48 Co47 2.061 . S
O48 C51 1.235 1_455 S
C49 O52 1.238 . S
C49 O53 1.241 1_655 S
C50 O43 1.247 . S
C50 O44 1.261 . S
C51 O46 1.259 . S
C51 O48 1.235 1_655 S
O52 Co42 2.021 . S
O52 C49 1.238 . S
O53 Co47 2.052 . S
O53 C49 1.241 1_455 S
O54 Co42 2.137 . S
O54 C45 1.247 . S
O55 Co42 2.244 . S
O55 C45 1.272 . S
O55 Co47 2.135 1_655 S
Co56 O57 2.216 . S
Co56 O58 2.091 . S
Co56 O60 2.004 . S
Co56 O66 2.021 . S
Co56 O68 2.137 . S
Co56 O69 2.244 . S
O57 Co56 2.216 . S
O57 C64 1.247 . S
O58 Co56 2.091 . S
O58 C64 1.261 . S
C59 O68 1.247 . S
C59 O69 1.272 . S
O60 Co56 2.004 . S
O60 C65 1.259 . S
Co61 O62 2.061 . S
Co61 O67 2.052 . S
Co61 O69 2.135 1_455 S
O62 Co61 2.061 . S
O62 C65 1.235 1_455 S
C63 O66 1.238 . S
C63 O67 1.241 1_655 S
C64 O57 1.247 . S
C64 O58 1.261 . S
C65 O60 1.259 . S
C65 O62 1.235 1_655 S
O66 Co56 2.021 . S
O66 C63 1.238 . S
O67 Co61 2.052 . S
O67 C63 1.241 1_455 S
O68 Co56 2.137 . S
O68 C59 1.247 . S
O69 Co56 2.244 . S
O69 C59 1.272 . S
O69 Co61 2.135 1_655 S
Co70 O71 2.216 . S
Co70 O72 2.091 . S
Co70 O74 2.004 . S
Co70 O80 2.021 . S
Co70 O82 2.137 . S
Co70 O83 2.244 . S
O71 Co70 2.216 . S
O71 C78 1.247 . S
O72 Co70 2.091 . S
O72 C78 1.261 . S
C73 O82 1.247 . S
C73 O83 1.272 . S
O74 Co70 2.004 . S
O74 C79 1.259 . S
Co75 O76 2.061 . S
Co75 O81 2.052 . S
Co75 O83 2.135 . S
O76 Co75 2.061 . S
O76 C79 1.235 . S
C77 O80 1.238 . S
C77 O81 1.241 . S
C78 O71 1.247 . S
C78 O72 1.261 . S
C79 O74 1.259 . S
C79 O76 1.235 . S
O80 Co70 2.021 . S
O80 C77 1.238 . S
O81 Co75 2.052 . S
O81 C77 1.241 . S
O82 Co70 2.137 . S
O82 C73 1.247 . S
O83 Co70 2.244 . S
O83 C73 1.272 . S
O83 Co75 2.135 . S
Co84 O85 2.216 . S
Co84 O86 2.091 . S
Co84 O88 2.004 . S
Co84 O94 2.021 . S
Co84 O96 2.137 . S
Co84 O97 2.244 . S
O85 Co84 2.216 . S
O85 C92 1.247 . S
O86 Co84 2.091 . S
O86 C92 1.261 . S
C87 O96 1.247 . S
C87 O97 1.272 . S
O88 Co84 2.004 . S
O88 C93 1.259 . S
Co89 O90 2.061 . S
Co89 O95 2.052 . S
Co89 O97 2.135 . S
O90 Co89 2.061 . S
O90 C93 1.235 . S
C91 O94 1.238 . S
C91 O95 1.241 . S
C92 O85 1.247 . S
C92 O86 1.261 . S
C93 O88 1.259 . S
C93 O90 1.235 . S
O94 Co84 2.021 . S
O94 C91 1.238 . S
O95 Co89 2.052 . S
O95 C91 1.241 . S
O96 Co84 2.137 . S
O96 C87 1.247 . S
O97 Co84 2.244 . S
O97 C87 1.272 . S
O97 Co89 2.135 . S
Co98 O99 2.216 . S
Co98 O100 2.091 . S
Co98 O102 2.004 . S
Co98 O108 2.021 . S
Co98 O110 2.137 . S
Co98 O111 2.244 . S
O99 Co98 2.216 . S
O99 C106 1.247 . S
O100 Co98 2.091 . S
O100 C106 1.261 . S
C101 O110 1.247 . S
C101 O111 1.272 . S
O102 Co98 2.004 . S
O102 C107 1.259 . S
Co103 O104 2.061 . S
Co103 O109 2.052 . S
Co103 O111 2.135 1_655 S
O104 Co103 2.061 . S
O104 C107 1.235 1_655 S
C105 O108 1.238 . S
C105 O109 1.241 1_455 S
C106 O99 1.247 . S
C106 O100 1.261 . S
C107 O102 1.259 . S
C107 O104 1.235 1_455 S
O108 Co98 2.021 . S
O108 C105 1.238 . S
O109 Co103 2.052 . S
O109 C105 1.241 1_655 S
O110 Co98 2.137 . S
O110 C101 1.247 . S
O111 Co98 2.244 . S
O111 C101 1.272 . S
O111 Co103 2.135 1_455 S
Co112 O113 2.216 . S
Co112 O114 2.091 . S
Co112 O116 2.004 . S
Co112 O122 2.021 . S
Co112 O124 2.137 . S
Co112 O125 2.244 . S
O113 Co112 2.216 . S
O113 C120 1.247 . S
O114 Co112 2.091 . S
O114 C120 1.261 . S
C115 O124 1.247 . S
C115 O125 1.272 . S
O116 Co112 2.004 . S
O116 C121 1.259 . S
Co117 O118 2.061 . S
Co117 O123 2.052 . S
Co117 O125 2.135 . S
O118 Co117 2.061 . S
O118 C121 1.235 . S
C119 O122 1.238 . S
C119 O123 1.241 . S
C120 O113 1.247 . S
C120 O114 1.261 . S
C121 O116 1.259 . S
C121 O118 1.235 . S
O122 Co112 2.021 . S
O122 C119 1.238 . S
O123 Co117 2.052 . S
O123 C119 1.241 . S
O124 Co112 2.137 . S
O124 C115 1.247 . S
O125 Co112 2.244 . S
O125 C115 1.272 . S
O125 Co117 2.135 . S
Co126 O127 2.216 . S
Co126 O128 2.091 . S
Co126 O130 2.004 . S
Co126 O136 2.021 . S
Co126 O138 2.137 . S
Co126 O139 2.244 . S
O127 Co126 2.216 . S
O127 C134 1.247 . S
O128 Co126 2.091 . S
O128 C134 1.261 . S
C129 O138 1.247 . S
C129 O139 1.272 . S
O130 Co126 2.004 . S
O130 C135 1.259 . S
Co131 O132 2.061 . S
Co131 O137 2.052 . S
Co131 O139 2.135 1_455 S
O132 Co131 2.061 . S
O132 C135 1.235 1_455 S
C133 O136 1.238 . S
C133 O137 1.241 1_655 S
C134 O127 1.247 . S
C134 O128 1.261 . S
C135 O130 1.259 . S
C135 O132 1.235 1_655 S
O136 Co126 2.021 . S
O136 C133 1.238 . S
O137 Co131 2.052 . S
O137 C133 1.241 1_455 S
O138 Co126 2.137 . S
O138 C129 1.247 . S
O139 Co126 2.244 . S
O139 C129 1.272 . S
O139 Co131 2.135 1_655 S
Co140 O141 2.216 . S
Co140 O142 2.091 . S
Co140 O144 2.004 . S
Co140 O150 2.021 . S
Co140 O152 2.137 . S
Co140 O153 2.244 . S
O141 Co140 2.216 . S
O141 C148 1.247 . S
O142 Co140 2.091 . S
O142 C148 1.261 . S
C143 O152 1.247 . S
C143 O153 1.272 . S
O144 Co140 2.004 . S
O144 C149 1.259 . S
Co145 O146 2.061 . S
Co145 O151 2.052 . S
Co145 O153 2.135 1_655 S
O146 Co145 2.061 . S
O146 C149 1.235 1_655 S
C147 O150 1.238 . S
C147 O151 1.241 1_455 S
C148 O141 1.247 . S
C148 O142 1.261 . S
C149 O144 1.259 . S
C149 O146 1.235 1_455 S
O150 Co140 2.021 . S
O150 C147 1.238 . S
O151 Co145 2.052 . S
O151 C147 1.241 1_655 S
O152 Co140 2.137 . S
O152 C143 1.247 . S
O153 Co140 2.244 . S
O153 C143 1.272 . S
O153 Co145 2.135 1_455 S
Co154 O155 2.216 . S
Co154 O156 2.091 . S
Co154 O158 2.004 . S
Co154 O164 2.021 . S
Co154 O166 2.137 . S
Co154 O167 2.244 . S
O155 Co154 2.216 . S
O155 C162 1.247 . S
O156 Co154 2.091 . S
O156 C162 1.261 . S
C157 O166 1.247 . S
C157 O167 1.272 . S
O158 Co154 2.004 . S
O158 C163 1.259 . S
Co159 O160 2.061 . S
Co159 O165 2.052 . S
Co159 O167 2.135 . S
O160 Co159 2.061 . S
O160 C163 1.235 . S
C161 O164 1.238 . S
C161 O165 1.241 . S
C162 O155 1.247 . S
C162 O156 1.261 . S
C163 O158 1.259 . S
C163 O160 1.235 . S
O164 Co154 2.021 . S
O164 C161 1.238 . S
O165 Co159 2.052 . S
O165 C161 1.241 . S
O166 Co154 2.137 . S
O166 C157 1.247 . S
O167 Co154 2.244 . S
O167 C157 1.272 . S
O167 Co159 2.135 . S
Co168 O169 2.216 . S
Co168 O170 2.091 . S
Co168 O172 2.004 . S
Co168 O178 2.021 . S
Co168 O180 2.137 . S
Co168 O181 2.244 . S
O169 Co168 2.216 . S
O169 C176 1.247 . S
O170 Co168 2.091 . S
O170 C176 1.261 . S
C171 O180 1.247 . S
C171 O181 1.272 . S
O172 Co168 2.004 . S
O172 C177 1.259 . S
Co173 O174 2.061 . S
Co173 O179 2.052 . S
Co173 O181 2.135 . S
O174 Co173 2.061 . S
O174 C177 1.235 . S
C175 O178 1.238 . S
C175 O179 1.241 . S
C176 O169 1.247 . S
C176 O170 1.261 . S
C177 O172 1.259 . S
C177 O174 1.235 . S
O178 Co168 2.021 . S
O178 C175 1.238 . S
O179 Co173 2.052 . S
O179 C175 1.241 . S
O180 Co168 2.137 . S
O180 C171 1.247 . S
O181 Co168 2.244 . S
O181 C171 1.272 . S
O181 Co173 2.135 . S
Co182 O183 2.216 . S
Co182 O184 2.091 . S
Co182 O186 2.004 . S
Co182 O192 2.021 . S
Co182 O194 2.137 . S
Co182 O195 2.244 . S
O183 Co182 2.216 . S
O183 C190 1.247 . S
O184 Co182 2.091 . S
O184 C190 1.261 . S
C185 O194 1.247 . S
C185 O195 1.272 . S
O186 Co182 2.004 . S
O186 C191 1.259 . S
Co187 O188 2.061 . S
Co187 O193 2.052 . S
Co187 O195 2.135 1_655 S
O188 Co187 2.061 . S
O188 C191 1.235 1_655 S
C189 O192 1.238 . S
C189 O193 1.241 1_455 S
C190 O183 1.247 . S
C190 O184 1.261 . S
C191 O186 1.259 . S
C191 O188 1.235 1_455 S
O192 Co182 2.021 . S
O192 C189 1.238 . S
O193 Co187 2.052 . S
O193 C189 1.241 1_655 S
O194 Co182 2.137 . S
O194 C185 1.247 . S
O195 Co182 2.244 . S
O195 C185 1.272 . S
O195 Co187 2.135 1_455 S
Co196 O197 2.216 . S
Co196 O198 2.091 . S
Co196 O200 2.004 . S
Co196 O206 2.021 . S
Co196 O208 2.137 . S
Co196 O209 2.244 . S
O197 Co196 2.216 . S
O197 C204 1.247 . S
O198 Co196 2.091 . S
O198 C204 1.261 . S
C199 O208 1.247 . S
C199 O209 1.272 . S
O200 Co196 2.004 . S
O200 C205 1.259 . S
Co201 O202 2.061 . S
Co201 O207 2.052 . S
Co201 O209 2.135 1_455 S
O202 Co201 2.061 . S
O202 C205 1.235 1_455 S
C203 O206 1.238 . S
C203 O207 1.241 1_655 S
C204 O197 1.247 . S
C204 O198 1.261 . S
C205 O200 1.259 . S
C205 O202 1.235 1_655 S
O206 Co196 2.021 . S
O206 C203 1.238 . S
O207 Co201 2.052 . S
O207 C203 1.241 1_455 S
O208 Co196 2.137 . S
O208 C199 1.247 . S
O209 Co196 2.244 . S
O209 C199 1.272 . S
O209 Co201 2.135 1_655 S
Co210 O211 2.216 . S
Co210 O212 2.091 . S
Co210 O214 2.004 . S
Co210 O220 2.021 . S
Co210 O222 2.137 . S
Co210 O223 2.244 . S
O211 Co210 2.216 . S
O211 C218 1.247 . S
O212 Co210 2.091 . S
O212 C218 1.261 . S
C213 O222 1.247 . S
C213 O223 1.272 . S
O214 Co210 2.004 . S
O214 C219 1.259 . S
Co215 O216 2.061 . S
Co215 O221 2.052 . S
Co215 O223 2.135 . S
O216 Co215 2.061 . S
O216 C219 1.235 . S
C217 O220 1.238 . S
C217 O221 1.241 . S
C218 O211 1.247 . S
C218 O212 1.261 . S
C219 O214 1.259 . S
C219 O216 1.235 . S
O220 Co210 2.021 . S
O220 C217 1.238 . S
O221 Co215 2.052 . S
O221 C217 1.241 . S
O222 Co210 2.137 . S
O222 C213 1.247 . S
O223 Co210 2.244 . S
O223 C213 1.272 . S
O223 Co215 2.135 . S
H224 C230 0.930 . S
H225 C233 0.930 . S
H226 C234 0.930 . S
H227 C235 0.930 . S
H228 C238 0.930 . S
H229 C239 0.930 . S
C230 H224 0.930 . S
C230 C231 1.355 . S
C230 C232 1.415 . S
C231 C230 1.355 . S
C231 C233 1.419 1_565 S
C232 C230 1.415 . S
C232 C237 1.425 1_565 S
C232 C239 1.409 . S
C233 H225 0.930 . S
C233 C231 1.419 1_545 S
C233 C234 1.362 . S
C234 H226 0.930 . S
C234 C233 1.362 . S
C234 C237 1.409 . S
C235 H227 0.930 . S
C235 C236 1.355 . S
C235 C237 1.415 . S
C236 C235 1.355 . S
C236 C238 1.419 1_545 S
C237 C232 1.425 1_545 S
C237 C234 1.409 . S
C237 C235 1.415 . S
C238 H228 0.930 . S
C238 C236 1.419 1_565 S
C238 C239 1.362 . S
C239 H229 0.930 . S
C239 C232 1.409 . S
C239 C238 1.362 . S
H240 C246 0.930 . S
H241 C249 0.930 . S
H242 C250 0.930 . S
H243 C251 0.930 . S
H244 C254 0.930 . S
H245 C255 0.930 . S
C246 H240 0.930 . S
C246 C247 1.355 . S
C246 C248 1.415 . S
C247 C246 1.355 . S
C247 C249 1.419 1_565 S
C248 C246 1.415 . S
C248 C253 1.425 1_565 S
C248 C255 1.409 . S
C249 H241 0.930 . S
C249 C247 1.419 1_545 S
C249 C250 1.362 . S
C250 H242 0.930 . S
C250 C249 1.362 . S
C250 C253 1.409 . S
C251 H243 0.930 . S
C251 C252 1.355 . S
C251 C253 1.415 . S
C252 C251 1.355 . S
C252 C254 1.419 1_545 S
C253 C248 1.425 1_545 S
C253 C250 1.409 . S
C253 C251 1.415 . S
C254 H244 0.930 . S
C254 C252 1.419 1_565 S
C254 C255 1.362 . S
C255 H245 0.930 . S
C255 C248 1.409 . S
C255 C254 1.362 . S
H256 C262 0.930 . S
H257 C265 0.930 . S
H258 C266 0.930 . S
H259 C267 0.930 . S
H260 C270 0.930 . S
H261 C271 0.930 . S
C262 H256 0.930 . S
C262 C263 1.355 . S
C262 C264 1.415 . S
C263 C262 1.355 . S
C263 C265 1.419 1_565 S
C264 C262 1.415 . S
C264 C269 1.425 1_565 S
C264 C271 1.409 . S
C265 H257 0.930 . S
C265 C263 1.419 1_545 S
C265 C266 1.362 . S
C266 H258 0.930 . S
C266 C265 1.362 . S
C266 C269 1.409 . S
C267 H259 0.930 . S
C267 C268 1.355 . S
C267 C269 1.415 . S
C268 C267 1.355 . S
C268 C270 1.419 1_545 S
C269 C264 1.425 1_545 S
C269 C266 1.409 . S
C269 C267 1.415 . S
C270 H260 0.930 . S
C270 C268 1.419 1_565 S
C270 C271 1.362 . S
C271 H261 0.930 . S
C271 C264 1.409 . S
C271 C270 1.362 . S
H272 C278 0.930 . S
H273 C281 0.930 . S
H274 C282 0.930 . S
H275 C283 0.930 . S
H276 C286 0.930 . S
H277 C287 0.930 . S
C278 H272 0.930 . S
C278 C279 1.355 1_545 S
C278 C280 1.415 . S
C279 C278 1.355 1_565 S
C279 C281 1.419 . S
C280 C278 1.415 . S
C280 C285 1.425 1_545 S
C280 C287 1.409 . S
C281 H273 0.930 . S
C281 C279 1.419 . S
C281 C282 1.362 . S
C282 H274 0.930 . S
C282 C281 1.362 . S
C282 C285 1.409 . S
C283 H275 0.930 . S
C283 C284 1.355 1_565 S
C283 C285 1.415 . S
C284 C283 1.355 1_545 S
C284 C286 1.419 . S
C285 C280 1.425 1_565 S
C285 C282 1.409 . S
C285 C283 1.415 . S
C286 H276 0.930 . S
C286 C284 1.419 . S
C286 C287 1.362 . S
C287 H277 0.930 . S
C287 C280 1.409 . S
C287 C286 1.362 . S
H288 C294 0.930 . S
H289 C297 0.930 . S
H290 C298 0.930 . S
H291 C299 0.930 . S
H292 C302 0.930 . S
H293 C303 0.930 . S
C294 H288 0.930 . S
C294 C295 1.355 . S
C294 C296 1.415 . S
C295 C294 1.355 . S
C295 C297 1.419 . S
C296 C294 1.415 . S
C296 C301 1.425 . S
C296 C303 1.409 . S
C297 H289 0.930 . S
C297 C295 1.419 . S
C297 C298 1.362 . S
C298 H290 0.930 . S
C298 C297 1.362 . S
C298 C301 1.409 . S
C299 H291 0.930 . S
C299 C300 1.355 . S
C299 C301 1.415 . S
C300 C299 1.355 . S
C300 C302 1.419 . S
C301 C296 1.425 . S
C301 C298 1.409 . S
C301 C299 1.415 . S
C302 H292 0.930 . S
C302 C300 1.419 . S
C302 C303 1.362 . S
C303 H293 0.930 . S
C303 C296 1.409 . S
C303 C302 1.362 . S
H304 C310 0.930 . S
H305 C313 0.930 . S
H306 C314 0.930 . S
H307 C315 0.930 . S
H308 C318 0.930 . S
H309 C319 0.930 . S
C310 H304 0.930 . S
C310 C311 1.355 . S
C310 C312 1.415 . S
C311 C310 1.355 . S
C311 C313 1.419 . S
C312 C310 1.415 . S
C312 C317 1.425 . S
C312 C319 1.409 . S
C313 H305 0.930 . S
C313 C311 1.419 . S
C313 C314 1.362 . S
C314 H306 0.930 . S
C314 C313 1.362 . S
C314 C317 1.409 . S
C315 H307 0.930 . S
C315 C316 1.355 . S
C315 C317 1.415 . S
C316 C315 1.355 . S
C316 C318 1.419 . S
C317 C312 1.425 . S
C317 C314 1.409 . S
C317 C315 1.415 . S
C318 H308 0.930 . S
C318 C316 1.419 . S
C318 C319 1.362 . S
C319 H309 0.930 . S
C319 C312 1.409 . S
C319 C318 1.362 . S
H320 C326 0.930 . S
H321 C329 0.930 . S
H322 C330 0.930 . S
H323 C331 0.930 . S
H324 C334 0.930 . S
H325 C335 0.930 . S
C326 H320 0.930 . S
C326 C327 1.355 . S
C326 C328 1.415 . S
C327 C326 1.355 . S
C327 C329 1.419 . S
C328 C326 1.415 . S
C328 C333 1.425 . S
C328 C335 1.409 . S
C329 H321 0.930 . S
C329 C327 1.419 . S
C329 C330 1.362 . S
C330 H322 0.930 . S
C330 C329 1.362 . S
C330 C333 1.409 . S
C331 H323 0.930 . S
C331 C332 1.355 . S
C331 C333 1.415 . S
C332 C331 1.355 . S
C332 C334 1.419 . S
C333 C328 1.425 . S
C333 C330 1.409 . S
C333 C331 1.415 . S
C334 H324 0.930 . S
C334 C332 1.419 . S
C334 C335 1.362 . S
C335 H325 0.930 . S
C335 C328 1.409 . S
C335 C334 1.362 . S
H336 C342 0.930 . S
H337 C345 0.930 . S
H338 C346 0.930 . S
H339 C347 0.930 . S
H340 C350 0.930 . S
H341 C351 0.930 . S
C342 H336 0.930 . S
C342 C343 1.355 . S
C342 C344 1.415 . S
C343 C342 1.355 . S
C343 C345 1.419 . S
C344 C342 1.415 . S
C344 C349 1.425 . S
C344 C351 1.409 . S
C345 H337 0.930 . S
C345 C343 1.419 . S
C345 C346 1.362 . S
C346 H338 0.930 . S
C346 C345 1.362 . S
C346 C349 1.409 . S
C347 H339 0.930 . S
C347 C348 1.355 . S
C347 C349 1.415 . S
C348 C347 1.355 . S
C348 C350 1.419 . S
C349 C344 1.425 . S
C349 C346 1.409 . S
C349 C347 1.415 . S
C350 H340 0.930 . S
C350 C348 1.419 . S
C350 C351 1.362 . S
C351 H341 0.930 . S
C351 C344 1.409 . S
C351 C350 1.362 . S
H352 C358 0.930 . S
H353 C361 0.930 . S
H354 C362 0.930 . S
H355 C363 0.930 . S
H356 C366 0.930 . S
H357 C367 0.930 . S
C358 H352 0.930 . S
C358 C359 1.355 . S
C358 C360 1.415 . S
C359 C358 1.355 . S
C359 C361 1.419 1_655 S
C360 C358 1.415 . S
C360 C365 1.425 1_655 S
C360 C367 1.409 . S
C361 H353 0.930 . S
C361 C359 1.419 1_455 S
C361 C362 1.362 . S
C362 H354 0.930 . S
C362 C361 1.362 . S
C362 C365 1.409 . S
C363 H355 0.930 . S
C363 C364 1.355 . S
C363 C365 1.415 . S
C364 C363 1.355 . S
C364 C366 1.419 1_455 S
C365 C360 1.425 1_455 S
C365 C362 1.409 . S
C365 C363 1.415 . S
C366 H356 0.930 . S
C366 C364 1.419 1_655 S
C366 C367 1.362 . S
C367 H357 0.930 . S
C367 C360 1.409 . S
C367 C366 1.362 . S
H368 C374 0.930 . S
H369 C377 0.930 . S
H370 C378 0.930 . S
H371 C379 0.930 . S
H372 C382 0.930 . S
H373 C383 0.930 . S
C374 H368 0.930 . S
C374 C375 1.355 . S
C374 C376 1.415 . S
C375 C374 1.355 . S
C375 C377 1.419 . S
C376 C374 1.415 . S
C376 C381 1.425 . S
C376 C383 1.409 . S
C377 H369 0.930 . S
C377 C375 1.419 . S
C377 C378 1.362 . S
C378 H370 0.930 . S
C378 C377 1.362 . S
C378 C381 1.409 . S
C379 H371 0.930 . S
C379 C380 1.355 . S
C379 C381 1.415 . S
C380 C379 1.355 . S
C380 C382 1.419 . S
C381 C376 1.425 . S
C381 C378 1.409 . S
C381 C379 1.415 . S
C382 H372 0.930 . S
C382 C380 1.419 . S
C382 C383 1.362 . S
C383 H373 0.930 . S
C383 C376 1.409 . S
C383 C382 1.362 . S
H384 C390 0.930 . S
H385 C393 0.930 . S
H386 C394 0.930 . S
H387 C395 0.930 . S
H388 C398 0.930 . S
H389 C399 0.930 . S
C390 H384 0.930 . S
C390 C391 1.355 1_655 S
C390 C392 1.415 . S
C391 C390 1.355 1_455 S
C391 C393 1.419 . S
C392 C390 1.415 . S
C392 C397 1.425 1_655 S
C392 C399 1.409 . S
C393 H385 0.930 . S
C393 C391 1.419 . S
C393 C394 1.362 . S
C394 H386 0.930 . S
C394 C393 1.362 . S
C394 C397 1.409 . S
C395 H387 0.930 . S
C395 C396 1.355 1_455 S
C395 C397 1.415 . S
C396 C395 1.355 1_655 S
C396 C398 1.419 . S
C397 C392 1.425 1_455 S
C397 C394 1.409 . S
C397 C395 1.415 . S
C398 H388 0.930 . S
C398 C396 1.419 . S
C398 C399 1.362 . S
C399 H389 0.930 . S
C399 C392 1.409 . S
C399 C398 1.362 . S
H400 C406 0.930 . S
H401 C409 0.930 . S
H402 C410 0.930 . S
H403 C411 0.930 . S
H404 C414 0.930 . S
H405 C415 0.930 . S
C406 H400 0.930 . S
C406 C407 1.355 . S
C406 C408 1.415 . S
C407 C406 1.355 . S
C407 C409 1.419 . S
C408 C406 1.415 . S
C408 C413 1.425 . S
C408 C415 1.409 . S
C409 H401 0.930 . S
C409 C407 1.419 . S
C409 C410 1.362 . S
C410 H402 0.930 . S
C410 C409 1.362 . S
C410 C413 1.409 . S
C411 H403 0.930 . S
C411 C412 1.355 . S
C411 C413 1.415 . S
C412 C411 1.355 . S
C412 C414 1.419 . S
C413 C408 1.425 . S
C413 C410 1.409 . S
C413 C411 1.415 . S
C414 H404 0.930 . S
C414 C412 1.419 . S
C414 C415 1.362 . S
C415 H405 0.930 . S
C415 C408 1.409 . S
C415 C414 1.362 . S
H416 C422 0.930 . S
H417 C425 0.930 . S
H418 C426 0.930 . S
H419 C427 0.930 . S
H420 C430 0.930 . S
H421 C431 0.930 . S
C422 H416 0.930 . S
C422 C423 1.355 . S
C422 C424 1.415 . S
C423 C422 1.355 . S
C423 C425 1.419 . S
C424 C422 1.415 . S
C424 C429 1.425 . S
C424 C431 1.409 . S
C425 H417 0.930 . S
C425 C423 1.419 . S
C425 C426 1.362 . S
C426 H418 0.930 . S
C426 C425 1.362 . S
C426 C429 1.409 . S
C427 H419 0.930 . S
C427 C428 1.355 . S
C427 C429 1.415 . S
C428 C427 1.355 . S
C428 C430 1.419 . S
C429 C424 1.425 . S
C429 C426 1.409 . S
C429 C427 1.415 . S
C430 H420 0.930 . S
C430 C428 1.419 . S
C430 C431 1.362 . S
C431 H421 0.930 . S
C431 C424 1.409 . S
C431 C430 1.362 . S
H432 C438 0.930 . S
H433 C441 0.930 . S
H434 C442 0.930 . S
H435 C443 0.930 . S
H436 C446 0.930 . S
H437 C447 0.930 . S
C438 H432 0.930 . S
C438 C439 1.355 . S
C438 C440 1.415 1_455 S
C439 C438 1.355 . S
C439 C441 1.419 . S
C440 C438 1.415 1_655 S
C440 C445 1.425 1_655 S
C440 C447 1.409 . S
C441 H433 0.930 . S
C441 C439 1.419 . S
C441 C442 1.362 . S
C442 H434 0.930 . S
C442 C441 1.362 . S
C442 C445 1.409 . S
C443 H435 0.930 . S
C443 C444 1.355 . S
C443 C445 1.415 1_655 S
C444 C443 1.355 . S
C444 C446 1.419 . S
C445 C440 1.425 1_455 S
C445 C442 1.409 . S
C445 C443 1.415 1_455 S
C446 H436 0.930 . S
C446 C444 1.419 . S
C446 C447 1.362 . S
C447 H437 0.930 . S
C447 C440 1.409 . S
C447 C446 1.362 . S
H448 C454 0.930 . S
H449 C457 0.930 . S
H450 C458 0.930 . S
H451 C459 0.930 . S
H452 C462 0.930 . S
H453 C463 0.930 . S
C454 H448 0.930 . S
C454 C455 1.355 . S
C454 C456 1.415 . S
C455 C454 1.355 . S
C455 C457 1.419 . S
C456 C454 1.415 . S
C456 C461 1.425 . S
C456 C463 1.409 . S
C457 H449 0.930 . S
C457 C455 1.419 . S
C457 C458 1.362 . S
C458 H450 0.930 . S
C458 C457 1.362 . S
C458 C461 1.409 . S
C459 H451 0.930 . S
C459 C460 1.355 . S
C459 C461 1.415 . S
C460 C459 1.355 . S
C460 C462 1.419 . S
C461 C456 1.425 . S
C461 C458 1.409 . S
C461 C459 1.415 . S
C462 H452 0.930 . S
C462 C460 1.419 . S
C462 C463 1.362 . S
C463 H453 0.930 . S
C463 C456 1.409 . S
C463 C462 1.362 . S
H464 C470 0.930 . S
H465 C473 0.930 . S
H466 C474 0.930 . S
H467 C475 0.930 . S
H468 C478 0.930 . S
H469 C479 0.930 . S
C470 H464 0.930 . S
C470 C471 1.355 . S
C470 C472 1.415 . S
C471 C470 1.355 . S
C471 C473 1.419 1_455 S
C472 C470 1.415 . S
C472 C477 1.425 1_455 S
C472 C479 1.409 . S
C473 H465 0.930 . S
C473 C471 1.419 1_655 S
C473 C474 1.362 . S
C474 H466 0.930 . S
C474 C473 1.362 . S
C474 C477 1.409 . S
C475 H467 0.930 . S
C475 C476 1.355 . S
C475 C477 1.415 . S
C476 C475 1.355 . S
C476 C478 1.419 1_655 S
C477 C472 1.425 1_655 S
C477 C474 1.409 . S
C477 C475 1.415 . S
C478 H468 0.930 . S
C478 C476 1.419 1_455 S
C478 C479 1.362 . S
C479 H469 0.930 . S
C479 C472 1.409 . S
C479 C478 1.362 . S
H480 C486 0.930 . S
H481 C489 0.930 . S
H482 C490 0.930 . S
H483 C491 0.930 . S
H484 C494 0.930 . S
H485 C495 0.930 . S
C486 H480 0.930 . S
C486 C487 1.355 . S
C486 C488 1.415 . S
C487 C486 1.355 . S
C487 C489 1.419 1_455 S
C488 C486 1.415 . S
C488 C493 1.425 1_455 S
C488 C495 1.409 . S
C489 H481 0.930 . S
C489 C487 1.419 1_655 S
C489 C490 1.362 . S
C490 H482 0.930 . S
C490 C489 1.362 . S
C490 C493 1.409 . S
C491 H483 0.930 . S
C491 C492 1.355 . S
C491 C493 1.415 . S
C492 C491 1.355 . S
C492 C494 1.419 1_655 S
C493 C488 1.425 1_655 S
C493 C490 1.409 . S
C493 C491 1.415 . S
C494 H484 0.930 . S
C494 C492 1.419 1_455 S
C494 C495 1.362 . S
C495 H485 0.930 . S
C495 C488 1.409 . S
C495 C494 1.362 . S
H496 C502 0.930 . S
H497 C505 0.930 . S
H498 C506 0.930 . S
H499 C507 0.930 . S
H500 C510 0.930 . S
H501 C511 0.930 . S
C502 H496 0.930 . S
C502 C503 1.355 . S
C502 C504 1.415 . S
C503 C502 1.355 . S
C503 C505 1.419 . S
C504 C502 1.415 . S
C504 C509 1.425 . S
C504 C511 1.409 . S
C505 H497 0.930 . S
C505 C503 1.419 . S
C505 C506 1.362 . S
C506 H498 0.930 . S
C506 C505 1.362 . S
C506 C509 1.409 . S
C507 H499 0.930 . S
C507 C508 1.355 . S
C507 C509 1.415 . S
C508 C507 1.355 . S
C508 C510 1.419 . S
C509 C504 1.425 . S
C509 C506 1.409 . S
C509 C507 1.415 . S
C510 H500 0.930 . S
C510 C508 1.419 . S
C510 C511 1.362 . S
C511 H501 0.930 . S
C511 C504 1.409 . S
C511 C510 1.362 . S
H512 C518 0.930 . S
H513 C521 0.930 . S
H514 C522 0.930 . S
H515 C523 0.930 . S
H516 C526 0.930 . S
H517 C527 0.930 . S
C518 H512 0.930 . S
C518 C519 1.355 . S
C518 C520 1.415 . S
C519 C518 1.355 . S
C519 C521 1.419 . S
C520 C518 1.415 . S
C520 C525 1.425 . S
C520 C527 1.409 . S
C521 H513 0.930 . S
C521 C519 1.419 . S
C521 C522 1.362 . S
C522 H514 0.930 . S
C522 C521 1.362 . S
C522 C525 1.409 . S
C523 H515 0.930 . S
C523 C524 1.355 . S
C523 C525 1.415 . S
C524 C523 1.355 . S
C524 C526 1.419 . S
C525 C520 1.425 . S
C525 C522 1.409 . S
C525 C523 1.415 . S
C526 H516 0.930 . S
C526 C524 1.419 . S
C526 C527 1.362 . S
C527 H517 0.930 . S
C527 C520 1.409 . S
C527 C526 1.362 . S
H528 C534 0.930 . S
H529 C537 0.930 . S
H530 C538 0.930 . S
H531 C539 0.930 . S
H532 C542 0.930 . S
H533 C543 0.930 . S
C534 H528 0.930 . S
C534 C535 1.355 . S
C534 C536 1.415 . S
C535 C534 1.355 . S
C535 C537 1.419 1_455 S
C536 C534 1.415 . S
C536 C541 1.425 1_455 S
C536 C543 1.409 . S
C537 H529 0.930 . S
C537 C535 1.419 1_655 S
C537 C538 1.362 . S
C538 H530 0.930 . S
C538 C537 1.362 . S
C538 C541 1.409 . S
C539 H531 0.930 . S
C539 C540 1.355 . S
C539 C541 1.415 . S
C540 C539 1.355 . S
C540 C542 1.419 1_655 S
C541 C536 1.425 1_655 S
C541 C538 1.409 . S
C541 C539 1.415 . S
C542 H532 0.930 . S
C542 C540 1.419 1_455 S
C542 C543 1.362 . S
C543 H533 0.930 . S
C543 C536 1.409 . S
C543 C542 1.362 . S
H544 C550 0.930 . S
H545 C553 0.930 . S
H546 C554 0.930 . S
H547 C555 0.930 . S
H548 C558 0.930 . S
H549 C559 0.930 . S
C550 H544 0.930 . S
C550 C551 1.355 . S
C550 C552 1.415 1_455 S
C551 C550 1.355 . S
C551 C553 1.419 . S
C552 C550 1.415 1_655 S
C552 C557 1.425 1_655 S
C552 C559 1.409 . S
C553 H545 0.930 . S
C553 C551 1.419 . S
C553 C554 1.362 . S
C554 H546 0.930 . S
C554 C553 1.362 . S
C554 C557 1.409 . S
C555 H547 0.930 . S
C555 C556 1.355 . S
C555 C557 1.415 1_655 S
C556 C555 1.355 . S
C556 C558 1.419 . S
C557 C552 1.425 1_455 S
C557 C554 1.409 . S
C557 C555 1.415 1_455 S
C558 H548 0.930 . S
C558 C556 1.419 . S
C558 C559 1.362 . S
C559 H549 0.930 . S
C559 C552 1.409 . S
C559 C558 1.362 . S
H560 C566 0.930 . S
H561 C569 0.930 . S
H562 C570 0.930 . S
H563 C571 0.930 . S
H564 C574 0.930 . S
H565 C575 0.930 . S
C566 H560 0.930 . S
C566 C567 1.355 . S
C566 C568 1.415 . S
C567 C566 1.355 . S
C567 C569 1.419 . S
C568 C566 1.415 . S
C568 C573 1.425 . S
C568 C575 1.409 . S
C569 H561 0.930 . S
C569 C567 1.419 . S
C569 C570 1.362 . S
C570 H562 0.930 . S
C570 C569 1.362 . S
C570 C573 1.409 . S
C571 H563 0.930 . S
C571 C572 1.355 . S
C571 C573 1.415 . S
C572 C571 1.355 . S
C572 C574 1.419 . S
C573 C568 1.425 . S
C573 C570 1.409 . S
C573 C571 1.415 . S
C574 H564 0.930 . S
C574 C572 1.419 . S
C574 C575 1.362 . S
C575 H565 0.930 . S
C575 C568 1.409 . S
C575 C574 1.362 . S
H576 C582 0.930 . S
H577 C585 0.930 . S
H578 C586 0.930 . S
H579 C587 0.930 . S
H580 C590 0.930 . S
H581 C591 0.930 . S
C582 H576 0.930 . S
C582 C583 1.355 . S
C582 C584 1.415 . S
C583 C582 1.355 . S
C583 C585 1.419 . S
C584 C582 1.415 . S
C584 C589 1.425 . S
C584 C591 1.409 . S
C585 H577 0.930 . S
C585 C583 1.419 . S
C585 C586 1.362 . S
C586 H578 0.930 . S
C586 C585 1.362 . S
C586 C589 1.409 . S
C587 H579 0.930 . S
C587 C588 1.355 . S
C587 C589 1.415 . S
C588 C587 1.355 . S
C588 C590 1.419 . S
C589 C584 1.425 . S
C589 C586 1.409 . S
C589 C587 1.415 . S
C590 H580 0.930 . S
C590 C588 1.419 . S
C590 C591 1.362 . S
C591 H581 0.930 . S
C591 C584 1.409 . S
C591 C590 1.362 . S
H592 C598 0.930 . S
H593 C601 0.930 . S
H594 C602 0.930 . S
H595 C603 0.930 . S
H596 C606 0.930 . S
H597 C607 0.930 . S
C598 H592 0.930 . S
C598 C599 1.355 . S
C598 C600 1.415 . S
C599 C598 1.355 . S
C599 C601 1.419 1_455 S
C600 C598 1.415 . S
C600 C605 1.425 1_455 S
C600 C607 1.409 . S
C601 H593 0.930 . S
C601 C599 1.419 1_655 S
C601 C602 1.362 . S
C602 H594 0.930 . S
C602 C601 1.362 . S
C602 C605 1.409 . S
C603 H595 0.930 . S
C603 C604 1.355 . S
C603 C605 1.415 . S
C604 C603 1.355 . S
C604 C606 1.419 1_655 S
C605 C600 1.425 1_655 S
C605 C602 1.409 . S
C605 C603 1.415 . S
C606 H596 0.930 . S
C606 C604 1.419 1_455 S
C606 C607 1.362 . S
C607 H597 0.930 . S
C607 C600 1.409 . S
C607 C606 1.362 . S
H608 C614 0.941 . S
H609 C617 0.930 . S
H610 C618 0.930 . S
H611 C619 0.941 . S
H612 C622 0.930 . S
H613 C623 0.930 . S
C614 H608 0.941 . S
C614 C615 1.339 1_455 S
C614 C616 1.420 . S
C615 C614 1.339 1_655 S
C615 C617 1.419 1_565 S
C616 C614 1.420 . S
C616 C621 1.425 1_466 S
C616 C623 1.409 1_556 S
C617 H609 0.930 . S
C617 C615 1.419 1_545 S
C617 C618 1.362 . S
C618 H610 0.930 . S
C618 C617 1.362 . S
C618 C621 1.409 1_556 S
C619 H611 0.941 . S
C619 C620 1.339 1_655 S
C619 C621 1.420 . S
C620 C619 1.339 1_455 S
C620 C622 1.419 1_545 S
C621 C616 1.425 1_644 S
C621 C618 1.409 1_554 S
C621 C619 1.420 . S
C622 H612 0.930 . S
C622 C620 1.419 1_565 S
C622 C623 1.362 . S
C623 H613 0.930 . S
C623 C616 1.409 1_554 S
C623 C622 1.362 . S
H624 C630 0.930 . S
H625 C633 0.930 . S
H626 C634 0.930 . S
H627 C635 0.930 . S
H628 C638 0.930 . S
H629 C639 0.930 . S
C630 H624 0.930 . S
C630 C631 1.354 1_565 S
C630 C632 1.415 . S
C631 C630 1.354 1_545 S
C631 C633 1.419 . S
C632 C630 1.415 . S
C632 C637 1.425 1_566 S
C632 C639 1.409 . S
C633 H625 0.930 . S
C633 C631 1.419 . S
C633 C634 1.362 1_556 S
C634 H626 0.930 . S
C634 C633 1.362 1_554 S
C634 C637 1.409 . S
C635 H627 0.930 . S
C635 C636 1.354 1_545 S
C635 C637 1.415 . S
C636 C635 1.354 1_565 S
C636 C638 1.419 . S
C637 C632 1.425 1_544 S
C637 C634 1.409 . S
C637 C635 1.415 . S
C638 H628 0.930 . S
C638 C636 1.419 . S
C638 C639 1.362 1_554 S
C639 H629 0.930 . S
C639 C632 1.409 . S
C639 C638 1.362 1_556 S
H640 C646 0.932 . S
H641 C649 0.930 . S
H642 C650 0.930 . S
H643 C651 0.932 . S
H644 C654 0.930 . S
H645 C655 0.930 . S
C646 H640 0.932 . S
C646 C647 1.355 . S
C646 C648 1.415 1_545 S
C647 C646 1.355 . S
C647 C649 1.419 . S
C648 C646 1.415 1_565 S
C648 C653 1.425 1_565 S
C648 C655 1.409 . S
C649 H641 0.930 . S
C649 C647 1.419 . S
C649 C650 1.362 . S
C650 H642 0.930 . S
C650 C649 1.362 . S
C650 C653 1.409 . S
C651 H643 0.932 . S
C651 C652 1.355 . S
C651 C653 1.415 1_565 S
C652 C651 1.355 . S
C652 C654 1.419 . S
C653 C648 1.425 1_545 S
C653 C650 1.409 . S
C653 C651 1.415 1_545 S
C654 H644 0.930 . S
C654 C652 1.419 . S
C654 C655 1.362 . S
C655 H645 0.930 . S
C655 C648 1.409 . S
C655 C654 1.362 . S
H656 C662 0.930 . S
H657 C665 0.930 . S
H658 C666 0.930 . S
H659 C667 0.930 . S
H660 C670 0.930 . S
H661 C671 0.930 . S
C662 H656 0.930 . S
C662 C663 1.355 . S
C662 C664 1.415 . S
C663 C662 1.355 . S
C663 C665 1.419 1_565 S
C664 C662 1.415 . S
C664 C669 1.425 1_465 S
C664 C671 1.409 . S
C665 H657 0.930 . S
C665 C663 1.419 1_545 S
C665 C666 1.362 1_455 S
C666 H658 0.930 . S
C666 C665 1.362 1_655 S
C666 C669 1.409 . S
C667 H659 0.930 . S
C667 C668 1.355 . S
C667 C669 1.415 . S
C668 C667 1.355 . S
C668 C670 1.419 1_545 S
C669 C664 1.425 1_645 S
C669 C666 1.409 . S
C669 C667 1.415 . S
C670 H660 0.930 . S
C670 C668 1.419 1_565 S
C670 C671 1.362 1_655 S
C671 H661 0.930 . S
C671 C664 1.409 . S
C671 C670 1.362 1_455 S
H672 C678 0.930 . S
H673 C681 0.930 . S
H674 C682 0.930 . S
H675 C683 0.930 . S
H676 C686 0.930 . S
H677 C687 0.930 . S
C678 H672 0.930 . S
C678 C679 1.355 . S
C678 C680 1.415 . S
C679 C678 1.355 . S
C679 C681 1.419 . S
C680 C678 1.415 . S
C680 C685 1.425 1_554 S
C680 C687 1.409 1_554 S
C681 H673 0.930 . S
C681 C679 1.419 . S
C681 C682 1.362 . S
C682 H674 0.930 . S
C682 C681 1.362 . S
C682 C685 1.409 1_554 S
C683 H675 0.930 . S
C683 C684 1.355 . S
C683 C685 1.415 . S
C684 C683 1.355 . S
C684 C686 1.419 . S
C685 C680 1.425 1_556 S
C685 C682 1.409 1_556 S
C685 C683 1.415 . S
C686 H676 0.930 . S
C686 C684 1.419 . S
C686 C687 1.362 . S
C687 H677 0.930 . S
C687 C680 1.409 1_556 S
C687 C686 1.362 . S
H688 C694 0.930 . S
H689 C697 0.930 . S
H690 C698 0.930 . S
H691 C699 0.930 . S
H692 C702 0.930 . S
H693 C703 0.930 . S
C694 H688 0.930 . S
C694 C695 1.355 . S
C694 C696 1.415 1_554 S
C695 C694 1.355 . S
C695 C697 1.419 1_655 S
C696 C694 1.415 1_556 S
C696 C701 1.425 1_656 S
C696 C703 1.409 . S
C697 H689 0.930 . S
C697 C695 1.419 1_455 S
C697 C698 1.362 . S
C698 H690 0.930 . S
C698 C697 1.362 . S
C698 C701 1.409 . S
C699 H691 0.930 . S
C699 C700 1.355 . S
C699 C701 1.415 1_556 S
C700 C699 1.355 . S
C700 C702 1.419 1_455 S
C701 C696 1.425 1_454 S
C701 C698 1.409 . S
C701 C699 1.415 1_554 S
C702 H692 0.930 . S
C702 C700 1.419 1_655 S
C702 C703 1.362 . S
C703 H693 0.930 . S
C703 C696 1.409 . S
C703 C702 1.362 . S
H704 C710 0.930 . S
H705 C713 0.930 . S
H706 C714 0.930 . S
H707 C715 0.930 . S
H708 C718 0.930 . S
H709 C719 0.930 . S
C710 H704 0.930 . S
C710 C711 1.355 1_455 S
C710 C712 1.415 . S
C711 C710 1.355 1_655 S
C711 C713 1.419 . S
C712 C710 1.415 . S
C712 C717 1.425 1_455 S
C712 C719 1.409 . S
C713 H705 0.930 . S
C713 C711 1.419 . S
C713 C714 1.362 . S
C714 H706 0.930 . S
C714 C713 1.362 . S
C714 C717 1.409 . S
C715 H707 0.930 . S
C715 C716 1.355 1_655 S
C715 C717 1.415 . S
C716 C715 1.355 1_455 S
C716 C718 1.419 . S
C717 C712 1.425 1_655 S
C717 C714 1.409 . S
C717 C715 1.415 . S
C718 H708 0.930 . S
C718 C716 1.419 . S
C718 C719 1.362 . S
C719 H709 0.930 . S
C719 C712 1.409 . S
C719 C718 1.362 . S
H720 C726 0.930 . S
H721 C729 0.930 . S
H722 C730 0.930 . S
H723 C731 0.930 . S
H724 C734 0.930 . S
H725 C735 0.930 . S
C726 H720 0.930 . S
C726 C727 1.355 . S
C726 C728 1.415 . S
C727 C726 1.355 . S
C727 C729 1.419 . S
C728 C726 1.415 . S
C728 C733 1.425 . S
C728 C735 1.409 . S
C729 H721 0.930 . S
C729 C727 1.419 . S
C729 C730 1.362 . S
C730 H722 0.930 . S
C730 C729 1.362 . S
C730 C733 1.409 . S
C731 H723 0.930 . S
C731 C732 1.355 . S
C731 C733 1.415 . S
C732 C731 1.355 . S
C732 C734 1.419 . S
C733 C728 1.425 . S
C733 C730 1.409 . S
C733 C731 1.415 . S
C734 H724 0.930 . S
C734 C732 1.419 . S
C734 C735 1.362 . S
C735 H725 0.930 . S
C735 C728 1.409 . S
C735 C734 1.362 . S
C231 C22 1.508 . S
C236 C8 1.511 . S
C247 C36 1.512 . S
C252 C50 1.510 . S
C263 C64 1.511 . S
C268 C78 1.512 . S
C279 C106 1.487 . S
C284 C92 1.487 . S
C295 C134 1.487 . S
C300 C120 1.489 . S
C311 C162 1.512 . S
C316 C148 1.511 . S
C327 C190 1.498 . S
C332 C176 1.493 . S
C343 C218 1.497 . S
C348 C204 1.492 . S
C359 C45 1.422 . S
C364 C3 1.421 . S
C375 C17 1.421 . S
C380 C31 1.423 . S
C391 C101 1.405 . S
C396 C59 1.409 . S
C407 C87 1.426 . S
C412 C73 1.417 . S
C423 C115 1.418 . S
C428 C157 1.425 . S
C439 C143 1.401 . S
C444 C129 1.428 . S
C455 C213 1.409 . S
C460 C171 1.430 . S
C471 C185 1.427 . S
C476 C199 1.415 . S
C487 C9 1.469 . S
C492 C135 1.488 . S
C503 C23 1.470 . S
C508 C121 1.491 . S
C519 C163 1.469 . S
C524 C37 1.488 . S
C535 C149 1.473 . S
C540 C51 1.472 . S
C551 C191 1.473 . S
C556 C65 1.497 . S
C567 C177 1.471 . S
C572 C79 1.474 . S
C583 C93 1.470 . S
C588 C219 1.475 . S
C599 C107 1.475 . S
C604 C205 1.470 . S
C615 C63 1.379 . S
C620 C7 1.379 . S
C631 C77 1.354 . S
C636 C21 1.354 . S
C647 C91 1.363 . S
C652 C35 1.363 . S
C663 C105 1.366 . S
C668 C49 1.366 . S
C679 C119 1.333 . S
C684 C175 1.333 . S
C695 C133 1.338 . S
C700 C189 1.338 . S
C711 C203 1.379 . S
C716 C147 1.379 . S
C727 C217 1.378 . S
C732 C161 1.378 . S
