# Generated by pormake.
# Topology gsi, (4)-cn, num edge types: 1
# Building blocks:
#     Node 0, Type 0, BuildingBlock: QUQFOY_clean_sbu_1, # of connection points: 4
#     Node 1, Type 0, BuildingBlock: QUQFOY_clean_sbu_1, # of connection points: 4
#     Node 2, Type 0, BuildingBlock: QUQFOY_clean_sbu_1, # of connection points: 4
#     Node 3, Type 0, BuildingBlock: QUQFOY_clean_sbu_1, # of connection points: 4
#     Node 4, Type 0, BuildingBlock: QUQFOY_clean_sbu_1, # of connection points: 4
#     Node 5, Type 0, BuildingBlock: QUQFOY_clean_sbu_1, # of connection points: 4
#     Node 6, Type 0, BuildingBlock: QUQFOY_clean_sbu_1, # of connection points: 4
#     Node 7, Type 0, BuildingBlock: QUQFOY_clean_sbu_1, # of connection points: 4
#     Node 8, Type 0, BuildingBlock: QUQFOY_clean_sbu_1, # of connection points: 4
#     Node 9, Type 0, BuildingBlock: QUQFOY_clean_sbu_1, # of connection points: 4
#     Node 10, Type 0, BuildingBlock: QUQFOY_clean_sbu_1, # of connection points: 4
#     Node 11, Type 0, BuildingBlock: QUQFOY_clean_sbu_1, # of connection points: 4
#     Node 12, Type 0, BuildingBlock: QUQFOY_clean_sbu_1, # of connection points: 4
#     Node 13, Type 0, BuildingBlock: QUQFOY_clean_sbu_1, # of connection points: 4
#     Node 14, Type 0, BuildingBlock: QUQFOY_clean_sbu_1, # of connection points: 4
#     Node 15, Type 0, BuildingBlock: QUQFOY_clean_sbu_1, # of connection points: 4
#     Edge 16, Type (0, 0), BuildingBlock: MIFKUJ_clean_linker_0, # of connection points: 2
#     Edge 17, Type (0, 0), BuildingBlock: MIFKUJ_clean_linker_0, # of connection points: 2
#     Edge 18, Type (0, 0), BuildingBlock: MIFKUJ_clean_linker_0, # of connection points: 2
#     Edge 19, Type (0, 0), BuildingBlock: MIFKUJ_clean_linker_0, # of connection points: 2
#     Edge 20, Type (0, 0), BuildingBlock: MIFKUJ_clean_linker_0, # of connection points: 2
#     Edge 21, Type (0, 0), BuildingBlock: MIFKUJ_clean_linker_0, # of connection points: 2
#     Edge 22, Type (0, 0), BuildingBlock: MIFKUJ_clean_linker_0, # of connection points: 2
#     Edge 23, Type (0, 0), BuildingBlock: MIFKUJ_clean_linker_0, # of connection points: 2
#     Edge 24, Type (0, 0), BuildingBlock: MIFKUJ_clean_linker_0, # of connection points: 2
#     Edge 25, Type (0, 0), BuildingBlock: MIFKUJ_clean_linker_0, # of connection points: 2
#     Edge 26, Type (0, 0), BuildingBlock: MIFKUJ_clean_linker_0, # of connection points: 2
#     Edge 27, Type (0, 0), BuildingBlock: MIFKUJ_clean_linker_0, # of connection points: 2
#     Edge 28, Type (0, 0), BuildingBlock: MIFKUJ_clean_linker_0, # of connection points: 2
#     Edge 29, Type (0, 0), BuildingBlock: MIFKUJ_clean_linker_0, # of connection points: 2
#     Edge 30, Type (0, 0), BuildingBlock: MIFKUJ_clean_linker_0, # of connection points: 2
#     Edge 31, Type (0, 0), BuildingBlock: MIFKUJ_clean_linker_0, # of connection points: 2
#     Edge 32, Type (0, 0), BuildingBlock: MIFKUJ_clean_linker_0, # of connection points: 2
#     Edge 33, Type (0, 0), BuildingBlock: MIFKUJ_clean_linker_0, # of connection points: 2
#     Edge 34, Type (0, 0), BuildingBlock: MIFKUJ_clean_linker_0, # of connection points: 2
#     Edge 35, Type (0, 0), BuildingBlock: MIFKUJ_clean_linker_0, # of connection points: 2
#     Edge 36, Type (0, 0), BuildingBlock: MIFKUJ_clean_linker_0, # of connection points: 2
#     Edge 37, Type (0, 0), BuildingBlock: MIFKUJ_clean_linker_0, # of connection points: 2
#     Edge 38, Type (0, 0), BuildingBlock: MIFKUJ_clean_linker_0, # of connection points: 2
#     Edge 39, Type (0, 0), BuildingBlock: MIFKUJ_clean_linker_0, # of connection points: 2
#     Edge 40, Type (0, 0), BuildingBlock: MIFKUJ_clean_linker_0, # of connection points: 2
#     Edge 41, Type (0, 0), BuildingBlock: MIFKUJ_clean_linker_0, # of connection points: 2
#     Edge 42, Type (0, 0), BuildingBlock: MIFKUJ_clean_linker_0, # of connection points: 2
#     Edge 43, Type (0, 0), BuildingBlock: MIFKUJ_clean_linker_0, # of connection points: 2
#     Edge 44, Type (0, 0), BuildingBlock: MIFKUJ_clean_linker_0, # of connection points: 2
#     Edge 45, Type (0, 0), BuildingBlock: MIFKUJ_clean_linker_0, # of connection points: 2
#     Edge 46, Type (0, 0), BuildingBlock: MIFKUJ_clean_linker_0, # of connection points: 2
#     Edge 47, Type (0, 0), BuildingBlock: MIFKUJ_clean_linker_0, # of connection points: 2
# Relax obj value: 0.160
# Max RMSD: 0.219
# Mean RMSD: 0.173
data_MOF--net-gsi--node1-QUQFOY_clean_sbu_1--edge1-MIFKUJ_clean_linker_0
_symmetry_space_group_name_H-M    P1
_symmetry_Int_Tables_number       1
_symmetry_cell_setting            triclinic
loop_
_symmetry_equiv_pos_as_xyz
'x, y, z'
_cell_length_a     46.665292
_cell_length_b     59.549688
_cell_length_c     61.8221
_cell_angle_alpha  90.005986
_cell_angle_beta   90.002406
_cell_angle_gamma 101.11487
loop_
_atom_site_label
_atom_site_type_symbol
_atom_site_fract_x
_atom_site_fract_y
_atom_site_fract_z
_atom_type_partial_charge
O0 O 0.1168 0.17762 0.1273 0.0
Cd1 Cd 0.15366 0.1638 0.13232 0.0
Cd2 Cd 0.11966 0.14325 0.16502 0.0
O3 O 0.08709 0.15724 0.15085 0.0
O4 O 0.17734 0.17321 0.10592 0.0
O5 O 0.16073 0.137 0.11427 0.0
C6 C 0.17497 0.15191 0.10106 0.0
C7 C 0.11401 0.10526 0.17617 0.0
C8 C 0.09176 0.17238 0.13609 0.0
C9 C 0.17355 0.17688 0.17733 0.0
O10 O 0.14918 0.16523 0.18338 0.0
O11 O 0.18081 0.17736 0.15749 0.0
O12 O 0.10109 0.11958 0.18606 0.0
O13 O 0.12871 0.11217 0.15889 0.0
O14 O 0.87468 0.32612 0.12532 0.0
Cd15 Cd 0.83732 0.3396 0.12907 0.0
Cd16 Cd 0.8706 0.36057 0.16268 0.0
O17 O 0.90365 0.34655 0.14928 0.0
O18 O 0.81568 0.32995 0.10183 0.0
O19 O 0.8309 0.36625 0.11053 0.0
C20 C 0.81814 0.35122 0.09681 0.0
C21 C 0.87744 0.39778 0.17635 0.0
C22 C 0.89944 0.33138 0.13453 0.0
C23 C 0.81575 0.32637 0.1734 0.0
O24 O 0.8398 0.3383 0.17976 0.0
O25 O 0.809 0.32572 0.15346 0.0
O26 O 0.88838 0.38208 0.1858 0.0
O27 O 0.86422 0.3928 0.1581 0.0
O28 O 0.1522 0.8389 0.35289 0.0
Cd29 Cd 0.19357 0.85791 0.34869 0.0
Cd30 Cd 0.16341 0.87223 0.3114 0.0
O31 O 0.12801 0.85275 0.32695 0.0
O32 O 0.21393 0.84793 0.37428 0.0
O33 O 0.20897 0.88367 0.36977 0.0
C34 C 0.21824 0.86856 0.38142 0.0
C35 C 0.15588 0.90536 0.29339 0.0
C36 C 0.1285 0.83945 0.34297 0.0
C37 C 0.21192 0.84557 0.30414 0.0
O38 O 0.19127 0.85416 0.29628 0.0
O39 O 0.21751 0.84695 0.32426 0.0
O40 O 0.14514 0.88519 0.28629 0.0
O41 O 0.17089 0.9069 0.31107 0.0
O42 O 0.8598 0.65805 0.36365 0.0
Cd43 Cd 0.81601 0.64404 0.36071 0.0
Cd44 Cd 0.84116 0.62842 0.32044 0.0
O45 O 0.87919 0.64538 0.33454 0.0
O46 O 0.80176 0.6575 0.3872 0.0
O47 O 0.7953 0.62031 0.38221 0.0
C48 C 0.79183 0.63724 0.3943 0.0
C49 C 0.844 0.59552 0.30023 0.0
C50 C 0.88186 0.65704 0.35189 0.0
C51 C 0.79716 0.66003 0.31735 0.0
O52 O 0.81461 0.64919 0.30801 0.0
O53 O 0.7937 0.65898 0.33774 0.0
O54 O 0.85488 0.61571 0.29327 0.0
O55 O 0.8315 0.59378 0.31895 0.0
O56 O 0.36467 0.82169 0.62409 0.0
Cd57 Cd 0.33095 0.83915 0.62869 0.0
Cd58 Cd 0.36825 0.8607 0.65756 0.0
O59 O 0.39869 0.84579 0.64147 0.0
O60 O 0.30509 0.83154 0.60305 0.0
O61 O 0.32881 0.86663 0.6101 0.0
C62 C 0.31162 0.85279 0.59755 0.0
C63 C 0.37502 0.89917 0.66721 0.0
C64 C 0.39118 0.82806 0.62976 0.0
C65 C 0.3147 0.82992 0.67445 0.0
O66 O 0.34077 0.83987 0.67842 0.0
O67 O 0.30475 0.82963 0.6553 0.0
O68 O 0.38965 0.88551 0.67638 0.0
O69 O 0.35796 0.89132 0.65134 0.0
O70 O 0.85271 0.8981 0.84819 0.0
Cd71 Cd 0.84101 0.8673 0.86441 0.0
Cd72 Cd 0.88915 0.85952 0.84323 0.0
O73 O 0.89473 0.8936 0.8342 0.0
O74 O 0.81212 0.87345 0.88632 0.0
O75 O 0.85389 0.86357 0.89516 0.0
C76 C 0.82973 0.86923 0.90117 0.0
C77 C 0.92552 0.84147 0.85689 0.0
C78 C 0.87544 0.90578 0.8371 0.0
C79 C 0.83149 0.83048 0.83091 0.0
O80 O 0.85826 0.83722 0.82625 0.0
O81 O 0.82017 0.83938 0.84666 0.0
O82 O 0.92597 0.84843 0.83712 0.0
O83 O 0.90559 0.84649 0.86953 0.0
O84 O 0.15342 0.6076 0.84448 0.0
Cd85 Cd 0.1585 0.63761 0.86215 0.0
Cd86 Cd 0.10813 0.63876 0.84317 0.0
O87 O 0.10675 0.60443 0.83657 0.0
O88 O 0.19046 0.63618 0.8832 0.0
O89 O 0.14504 0.63652 0.8932 0.0
C90 C 0.17159 0.63567 0.89851 0.0
C91 C 0.07192 0.65516 0.85911 0.0
C92 C 0.13002 0.59625 0.83634 0.0
C93 C 0.1592 0.67307 0.82848 0.0
O94 O 0.13428 0.66169 0.82327 0.0
O95 O 0.17192 0.66778 0.84537 0.0
O96 O 0.06868 0.64645 0.83993 0.0
O97 O 0.09464 0.65252 0.87009 0.0
O98 O 0.88011 0.14914 0.66754 0.0
Cd99 Cd 0.84391 0.13201 0.68395 0.0
Cd100 Cd 0.81486 0.14784 0.64456 0.0
O101 O 0.85823 0.16192 0.63964 0.0
O102 O 0.86168 0.12026 0.71006 0.0
O103 O 0.83505 0.09735 0.68662 0.0
C104 C 0.85023 0.09977 0.70422 0.0
C105 C 0.78768 0.14067 0.61224 0.0
C106 C 0.88125 0.16083 0.65024 0.0
C107 C 0.79924 0.16296 0.68935 0.0
O108 O 0.79458 0.16219 0.66908 0.0
O109 O 0.81755 0.15227 0.69782 0.0
O110 O 0.79803 0.16104 0.6189 0.0
O111 O 0.79238 0.12391 0.62408 0.0
O112 O 0.12796 0.35336 0.66632 0.0
Cd113 Cd 0.16308 0.37013 0.68407 0.0
Cd114 Cd 0.19473 0.35407 0.64657 0.0
O115 O 0.15186 0.33991 0.63999 0.0
O116 O 0.14288 0.38288 0.70839 0.0
O117 O 0.17429 0.40466 0.6869 0.0
C118 C 0.15668 0.40298 0.70317 0.0
C119 C 0.22356 0.36018 0.61496 0.0
C120 C 0.12807 0.34127 0.64939 0.0
C121 C 0.20615 0.33864 0.69218 0.0
O122 O 0.21285 0.33973 0.67222 0.0
O123 O 0.18712 0.34927 0.69964 0.0
O124 O 0.2128 0.34005 0.62201 0.0
O125 O 0.21868 0.37733 0.62615 0.0
O126 O 0.64724 0.10207 0.34597 0.0
Cd127 Cd 0.65637 0.13338 0.36158 0.0
Cd128 Cd 0.60589 0.13679 0.3434 0.0
O129 O 0.60159 0.10223 0.33686 0.0
O130 O 0.68782 0.13111 0.38289 0.0
O131 O 0.64365 0.13561 0.39254 0.0
C132 C 0.66954 0.13309 0.39808 0.0
C133 C 0.57204 0.15499 0.3603 0.0
C134 C 0.62323 0.0921 0.3376 0.0
C135 C 0.65879 0.16778 0.32639 0.0
O136 O 0.63248 0.15829 0.32271 0.0
O137 O 0.67216 0.16179 0.34268 0.0
O138 O 0.56741 0.14641 0.34115 0.0
O139 O 0.5948 0.15137 0.37066 0.0
O140 O 0.61501 0.67859 0.63016 0.0
Cd141 Cd 0.64973 0.66239 0.6358 0.0
Cd142 Cd 0.61167 0.64171 0.66494 0.0
O143 O 0.58076 0.65538 0.6482 0.0
O144 O 0.67589 0.67207 0.61069 0.0
O145 O 0.65549 0.63598 0.61674 0.0
C146 C 0.67171 0.65099 0.60465 0.0
C147 C 0.60676 0.6037 0.67565 0.0
C148 C 0.58841 0.67247 0.63572 0.0
C149 C 0.66442 0.67379 0.68146 0.0
O150 O 0.63831 0.66387 0.68522 0.0
O151 O 0.67509 0.67319 0.66261 0.0
O152 O 0.59208 0.61731 0.68487 0.0
O153 O 0.62265 0.61125 0.65908 0.0
O154 O 0.64398 0.33918 0.85312 0.0
Cd155 Cd 0.68654 0.35631 0.85006 0.0
Cd156 Cd 0.65868 0.37181 0.8112 0.0
O157 O 0.62207 0.35273 0.82567 0.0
O158 O 0.70387 0.34417 0.876 0.0
O159 O 0.70413 0.38089 0.87181 0.0
C160 C 0.71072 0.36463 0.88345 0.0
C161 C 0.65249 0.40486 0.79239 0.0
C162 C 0.62111 0.33991 0.8422 0.0
C163 C 0.7065 0.34378 0.80588 0.0
O164 O 0.68724 0.35344 0.79735 0.0
O165 O 0.7105 0.34436 0.82622 0.0
O166 O 0.64278 0.38466 0.78493 0.0
O167 O 0.66568 0.4065 0.81085 0.0
O168 O 0.35101 0.15803 0.85744 0.0
Cd169 Cd 0.30814 0.14156 0.85491 0.0
Cd170 Cd 0.33468 0.12661 0.81455 0.0
O171 O 0.37152 0.1455 0.8288 0.0
O172 O 0.29287 0.15469 0.88118 0.0
O173 O 0.29037 0.11767 0.87728 0.0
C174 C 0.28558 0.13445 0.88905 0.0
C175 C 0.34126 0.09462 0.79417 0.0
C176 C 0.37334 0.15773 0.84578 0.0
C177 C 0.28705 0.15495 0.81112 0.0
O178 O 0.30574 0.14526 0.80185 0.0
O179 O 0.28394 0.15414 0.83155 0.0
O180 O 0.35153 0.11519 0.78794 0.0
O181 O 0.32709 0.09198 0.81222 0.0
O182 O 0.36028 0.3976 0.34672 0.0
Cd183 Cd 0.35087 0.36638 0.36245 0.0
Cd184 Cd 0.39958 0.36154 0.34214 0.0
O185 O 0.40441 0.39596 0.33489 0.0
O186 O 0.32016 0.36966 0.38402 0.0
O187 O 0.36381 0.36375 0.39335 0.0
C188 C 0.33831 0.36702 0.39908 0.0
C189 C 0.43391 0.34325 0.35831 0.0
C190 C 0.38358 0.4068 0.33693 0.0
C191 C 0.34467 0.33144 0.32733 0.0
O192 O 0.37099 0.34004 0.32271 0.0
O193 O 0.33276 0.33818 0.34398 0.0
O194 O 0.43738 0.35107 0.33881 0.0
O195 O 0.41203 0.34758 0.36931 0.0
O196 O 0.38066 0.64832 0.16945 0.0
Cd197 Cd 0.34351 0.63097 0.18449 0.0
Cd198 Cd 0.31774 0.64679 0.14397 0.0
O199 O 0.36161 0.65968 0.13957 0.0
O200 O 0.35958 0.61909 0.21121 0.0
O201 O 0.33512 0.59631 0.18663 0.0
C202 C 0.34906 0.59863 0.20478 0.0
C203 C 0.29095 0.63919 0.11158 0.0
C204 C 0.38357 0.65902 0.15154 0.0
C205 C 0.29971 0.66253 0.18806 0.0
O206 O 0.2972 0.66228 0.16759 0.0
O207 O 0.31634 0.65101 0.19746 0.0
O208 O 0.30177 0.65964 0.11779 0.0
O209 O 0.29522 0.62259 0.12382 0.0
O210 O 0.63328 0.85023 0.16752 0.0
Cd211 Cd 0.66618 0.8689 0.18612 0.0
Cd212 Cd 0.70115 0.85266 0.1518 0.0
O213 O 0.66038 0.8332 0.14599 0.0
O214 O 0.64327 0.87983 0.20991 0.0
O215 O 0.67296 0.90354 0.18888 0.0
C216 C 0.65496 0.90053 0.20494 0.0
C217 C 0.72883 0.86283 0.1203 0.0
C218 C 0.63554 0.83542 0.15311 0.0
C219 C 0.71358 0.84212 0.19795 0.0
O220 O 0.72252 0.84349 0.1785 0.0
O221 O 0.69142 0.85029 0.20348 0.0
O222 O 0.7247 0.84244 0.12806 0.0
O223 O 0.71776 0.87793 0.13067 0.0
H224 H 0.22849 0.20244 0.17117 0.0
H225 H 0.25867 0.22695 0.19764 0.0
H226 H 0.19221 0.20726 0.24619 0.0
H227 H 0.16195 0.1828 0.21998 0.0
H228 H 0.21119 0.25397 0.24357 0.0
H229 H 0.25302 0.18628 0.24853 0.0
H230 H 0.27576 0.15526 0.23418 0.0
H231 H 0.34809 0.20473 0.2102 0.0
H232 H 0.32557 0.23608 0.22414 0.0
H233 H 0.29038 0.30521 0.33418 0.0
H234 H 0.26229 0.27718 0.30954 0.0
H235 H 0.33237 0.29061 0.26295 0.0
H236 H 0.36086 0.3181 0.28766 0.0
H237 H 0.31147 0.24648 0.26471 0.0
H238 H 0.27045 0.31401 0.25788 0.0
H239 H 0.24826 0.34597 0.2707 0.0
H240 H 0.1752 0.29826 0.29615 0.0
H241 H 0.19716 0.26599 0.28373 0.0
C242 C 0.2204 0.20319 0.18752 0.0
C243 C 0.19279 0.19069 0.19344 0.0
C244 C 0.23769 0.21715 0.20262 0.0
C245 C 0.22765 0.21883 0.22386 0.0
C246 C 0.2003 0.2062 0.22986 0.0
C247 C 0.1831 0.19217 0.21485 0.0
C248 C 0.24513 0.2344 0.23967 0.0
C249 C 0.23296 0.25216 0.24845 0.0
C250 C 0.27381 0.23236 0.24549 0.0
C251 C 0.28746 0.21353 0.2372 0.0
C252 C 0.27366 0.19055 0.24004 0.0
C253 C 0.28653 0.17291 0.23201 0.0
C254 C 0.31332 0.17802 0.22123 0.0
C255 C 0.32733 0.2008 0.21852 0.0
C256 C 0.31453 0.21851 0.2265 0.0
C257 C 0.29984 0.30213 0.31872 0.0
C258 C 0.32779 0.31397 0.31284 0.0
C259 C 0.28373 0.28617 0.30462 0.0
C260 C 0.29506 0.28205 0.28426 0.0
C261 C 0.32318 0.29352 0.27856 0.0
C262 C 0.3394 0.30929 0.29271 0.0
C263 C 0.27751 0.26608 0.2687 0.0
C264 C 0.28967 0.24827 0.25991 0.0
C265 C 0.2489 0.26822 0.26265 0.0
C266 C 0.23559 0.28759 0.27007 0.0
C267 C 0.24975 0.31033 0.26635 0.0
C268 C 0.2372 0.3285 0.27353 0.0
C269 C 0.21037 0.32414 0.28429 0.0
C270 C 0.196 0.3016 0.28784 0.0
C271 C 0.20848 0.28337 0.28073 0.0
H272 H 0.20069 0.33823 0.28983 0.0
H273 H 0.32325 0.16434 0.21503 0.0
H274 H 0.82748 0.32025 0.21592 0.0
H275 H 0.79843 0.29447 0.24167 0.0
H276 H 0.73186 0.27443 0.1933 0.0
H277 H 0.76102 0.30022 0.1671 0.0
H278 H 0.71088 0.28283 0.23665 0.0
H279 H 0.77424 0.23985 0.20057 0.0
H280 H 0.82157 0.23314 0.18702 0.0
H281 H 0.8554 0.23718 0.25179 0.0
H282 H 0.80839 0.24428 0.2657 0.0
H283 H 0.63777 0.18177 0.28853 0.0
H284 H 0.66277 0.21016 0.26308 0.0
H285 H 0.73847 0.22275 0.30462 0.0
H286 H 0.71379 0.1939 0.33006 0.0
H287 H 0.7541 0.21838 0.26401 0.0
H288 H 0.69213 0.26119 0.30069 0.0
H289 H 0.64584 0.26911 0.31515 0.0
H290 H 0.61035 0.26678 0.25093 0.0
H291 H 0.65631 0.25854 0.2361 0.0
C292 C 0.80656 0.31056 0.2107 0.0
C293 C 0.79667 0.31218 0.18936 0.0
C294 C 0.79002 0.29581 0.22548 0.0
C295 C 0.76321 0.28245 0.21928 0.0
C296 C 0.75258 0.28464 0.19831 0.0
C297 C 0.76929 0.2993 0.18338 0.0
C298 C 0.74717 0.26547 0.23455 0.0
C299 C 0.72002 0.26851 0.24243 0.0
C300 C 0.75964 0.24724 0.24245 0.0
C301 C 0.78788 0.24282 0.23415 0.0
C302 C 0.79185 0.23951 0.2119 0.0
C303 C 0.81861 0.2356 0.20416 0.0
C304 C 0.8415 0.23479 0.21852 0.0
C305 C 0.83766 0.23784 0.24067 0.0
C306 C 0.81095 0.24179 0.2485 0.0
C307 C 0.65969 0.19063 0.29235 0.0
C308 C 0.67379 0.18557 0.31136 0.0
C309 C 0.6739 0.20696 0.27781 0.0
C310 C 0.70234 0.21879 0.28207 0.0
C311 C 0.71648 0.21384 0.30105 0.0
C312 C 0.70233 0.19739 0.31558 0.0
C313 C 0.7177 0.2357 0.26632 0.0
C314 C 0.7448 0.23265 0.25829 0.0
C315 C 0.70525 0.25402 0.25845 0.0
C316 C 0.67758 0.25902 0.2673 0.0
C317 C 0.67438 0.26218 0.28966 0.0
C318 C 0.64821 0.26676 0.29792 0.0
C319 C 0.62514 0.26838 0.28397 0.0
C320 C 0.62823 0.26549 0.26172 0.0
C321 C 0.65434 0.26089 0.25337 0.0
H322 H 0.60491 0.27193 0.2904 0.0
H323 H 0.8622 0.23176 0.2125 0.0
H324 H 0.26311 0.69007 0.17351 0.0
H325 H 0.24775 0.72139 0.19299 0.0
H326 H 0.29089 0.7039 0.25054 0.0
H327 H 0.30604 0.67229 0.23131 0.0
H328 H 0.23966 0.71656 0.26011 0.0
H329 H 0.32485 0.74593 0.21735 0.0
H330 H 0.35389 0.75198 0.1838 0.0
H331 H 0.2899 0.78569 0.15497 0.0
H332 H 0.26025 0.77955 0.18826 0.0
H333 H 0.25198 0.82005 0.31651 0.0
H334 H 0.26767 0.78964 0.29586 0.0
H335 H 0.21996 0.80629 0.24031 0.0
H336 H 0.20415 0.83687 0.26077 0.0
H337 H 0.273 0.79426 0.22939 0.0
H338 H 0.18801 0.7651 0.27213 0.0
H339 H 0.15899 0.75922 0.3057 0.0
H340 H 0.22263 0.72513 0.33451 0.0
H341 H 0.25229 0.73113 0.30121 0.0
C342 C 0.26894 0.69259 0.19042 0.0
C343 C 0.28612 0.6788 0.20077 0.0
C344 C 0.26027 0.71061 0.20149 0.0
C345 C 0.26878 0.71528 0.22305 0.0
C346 C 0.28429 0.70068 0.23384 0.0
C347 C 0.29291 0.6826 0.22281 0.0
C348 C 0.26284 0.73605 0.23401 0.0
C349 C 0.24724 0.73356 0.25352 0.0
C350 C 0.27228 0.75821 0.22518 0.0
C351 C 0.2902 0.76208 0.20522 0.0
C352 C 0.31687 0.75449 0.2038 0.0
C353 C 0.33346 0.75795 0.18484 0.0
C354 C 0.32372 0.76916 0.16725 0.0
C355 C 0.2974 0.77698 0.1686 0.0
C356 C 0.2807 0.77353 0.18752 0.0
C357 C 0.24531 0.81764 0.29975 0.0
C358 C 0.22645 0.83072 0.2904 0.0
C359 C 0.2542 0.80015 0.28802 0.0
C360 C 0.24443 0.79544 0.26674 0.0
C361 C 0.22754 0.80958 0.25678 0.0
C362 C 0.21853 0.82705 0.26852 0.0
C363 C 0.24998 0.77474 0.25551 0.0
C364 C 0.26545 0.77725 0.23595 0.0
C365 C 0.24043 0.75259 0.26428 0.0
C366 C 0.22252 0.74878 0.28426 0.0
C367 C 0.19594 0.75651 0.28569 0.0
C368 C 0.17935 0.75313 0.30465 0.0
C369 C 0.189 0.74187 0.32224 0.0
C370 C 0.21521 0.73389 0.32088 0.0
C371 C 0.23191 0.73726 0.30196 0.0
H372 H 0.17612 0.73927 0.33691 0.0
H373 H 0.33659 0.77182 0.15258 0.0
H374 H 0.81101 0.67533 0.27633 0.0
H375 H 0.79629 0.70774 0.25826 0.0
H376 H 0.73976 0.71546 0.31178 0.0
H377 H 0.75461 0.68312 0.33022 0.0
H378 H 0.71546 0.72072 0.26985 0.0
H379 H 0.80095 0.74917 0.31164 0.0
H380 H 0.85128 0.75166 0.32491 0.0
H381 H 0.88433 0.7657 0.26051 0.0
H382 H 0.83411 0.76294 0.24677 0.0
H383 H 0.69571 0.83072 0.23938 0.0
H384 H 0.71036 0.80132 0.26208 0.0
H385 H 0.7742 0.79131 0.21443 0.0
H386 H 0.75991 0.82079 0.19165 0.0
H387 H 0.79411 0.78817 0.25593 0.0
H388 H 0.70839 0.7576 0.21392 0.0
H389 H 0.65817 0.75609 0.20076 0.0
H390 H 0.62561 0.74615 0.26571 0.0
H391 H 0.67574 0.74795 0.27931 0.0
C392 C 0.79501 0.68359 0.28413 0.0
C393 C 0.78412 0.67671 0.30481 0.0
C394 C 0.78679 0.70221 0.27382 0.0
C395 C 0.76734 0.71416 0.28388 0.0
C396 C 0.75496 0.70649 0.30386 0.0
C397 C 0.76344 0.68801 0.31434 0.0
C398 C 0.76107 0.73525 0.27389 0.0
C399 C 0.73252 0.73561 0.2671 0.0
C400 C 0.78352 0.75449 0.27005 0.0
C401 C 0.81372 0.75564 0.27814 0.0
C402 C 0.81891 0.75251 0.30025 0.0
C403 C 0.84743 0.75404 0.30787 0.0
C404 C 0.87098 0.75886 0.29357 0.0
C405 C 0.86605 0.762 0.27158 0.0
C406 C 0.83756 0.76046 0.26387 0.0
C407 C 0.71331 0.82265 0.2339 0.0
C408 C 0.72636 0.82791 0.21353 0.0
C409 C 0.72154 0.80576 0.24687 0.0
C410 C 0.74291 0.79383 0.2397 0.0
C411 C 0.75751 0.80022 0.22017 0.0
C412 C 0.74928 0.81708 0.20716 0.0
C413 C 0.74854 0.77358 0.25168 0.0
C414 C 0.77699 0.77335 0.25882 0.0
C415 C 0.72601 0.75444 0.25581 0.0
C416 C 0.69584 0.75317 0.24766 0.0
C417 C 0.69055 0.75527 0.22542 0.0
C418 C 0.6621 0.75433 0.21788 0.0
C419 C 0.63872 0.75109 0.2324 0.0
C420 C 0.64374 0.7487 0.25449 0.0
C421 C 0.67217 0.74967 0.26212 0.0
H422 H 0.61671 0.75036 0.22653 0.0
H423 H 0.89305 0.76027 0.29954 0.0
H424 H 0.25841 0.80593 0.67198 0.0
H425 H 0.23055 0.78269 0.70031 0.0
H426 H 0.30221 0.80246 0.74477 0.0
H427 H 0.33028 0.8256 0.7166 0.0
H428 H 0.28342 0.75649 0.74347 0.0
H429 H 0.24035 0.82303 0.75095 0.0
H430 H 0.21571 0.85372 0.73837 0.0
H431 H 0.14207 0.80362 0.71739 0.0
H432 H 0.16646 0.7726 0.72957 0.0
H433 H 0.21139 0.70225 0.8353 0.0
H434 H 0.23632 0.73215 0.81105 0.0
H435 H 0.16505 0.71644 0.76565 0.0
H436 H 0.1397 0.68686 0.78995 0.0
H437 H 0.18395 0.76176 0.76859 0.0
H438 H 0.22716 0.69556 0.75835 0.0
H439 H 0.25125 0.66408 0.76967 0.0
H440 H 0.32406 0.71271 0.79423 0.0
H441 H 0.30019 0.7445 0.78331 0.0
C442 C 0.26812 0.80556 0.68785 0.0
C443 C 0.29664 0.81754 0.69199 0.0
C444 C 0.25212 0.79234 0.70405 0.0
C445 C 0.26431 0.79094 0.72465 0.0
C446 C 0.29244 0.80331 0.72897 0.0
C447 C 0.30842 0.81656 0.71283 0.0
C448 C 0.24854 0.77539 0.74126 0.0
C449 C 0.26188 0.75789 0.74925 0.0
C450 C 0.22011 0.77685 0.74829 0.0
C451 C 0.20536 0.79548 0.741 0.0
C452 C 0.21901 0.81854 0.74349 0.0
C453 C 0.20507 0.83601 0.73646 0.0
C454 C 0.17737 0.83063 0.72704 0.0
C455 C 0.16354 0.80777 0.72467 0.0
C456 C 0.1774 0.79024 0.73165 0.0
C457 C 0.20092 0.70524 0.82022 0.0
C458 C 0.17369 0.69201 0.81446 0.0
C459 C 0.21523 0.7223 0.80637 0.0
C460 C 0.20271 0.72627 0.78641 0.0
C461 C 0.1751 0.71363 0.78096 0.0
C462 C 0.16072 0.69666 0.79484 0.0
C463 C 0.21889 0.74291 0.77081 0.0
C464 C 0.2056 0.76052 0.76293 0.0
C465 C 0.2473 0.74146 0.76371 0.0
C466 C 0.26174 0.72239 0.77023 0.0
C467 C 0.2482 0.69953 0.76632 0.0
C468 C 0.26183 0.68164 0.77263 0.0
C469 C 0.28913 0.68639 0.78272 0.0
C470 C 0.30289 0.70906 0.78645 0.0
C471 C 0.28933 0.72702 0.78019 0.0
H472 H 0.29966 0.67252 0.7876 0.0
H473 H 0.16661 0.84417 0.72161 0.0
H474 H 0.72277 0.69291 0.68132 0.0
H475 H 0.75029 0.71672 0.70952 0.0
H476 H 0.67271 0.70874 0.74891 0.0
H477 H 0.64508 0.68486 0.72096 0.0
H478 H 0.70112 0.75403 0.7443 0.0
H479 H 0.72389 0.6817 0.76369 0.0
H480 H 0.74065 0.64546 0.75732 0.0
H481 H 0.82516 0.68273 0.73865 0.0
H482 H 0.80877 0.71923 0.74462 0.0
H483 H 0.77363 0.81079 0.83596 0.0
H484 H 0.74432 0.78149 0.81308 0.0
H485 H 0.81951 0.78012 0.77286 0.0
H486 H 0.849 0.80895 0.79574 0.0
H487 H 0.79018 0.73777 0.77996 0.0
H488 H 0.76686 0.80967 0.7577 0.0
H489 H 0.75036 0.84624 0.76284 0.0
H490 H 0.66728 0.81009 0.78567 0.0
H491 H 0.68344 0.7733 0.78093 0.0
C492 C 0.71163 0.69606 0.69606 0.0
C493 C 0.68174 0.68702 0.69888 0.0
C494 C 0.72739 0.70959 0.71217 0.0
C495 C 0.71349 0.71439 0.73129 0.0
C496 C 0.68378 0.70521 0.73425 0.0
C497 C 0.66809 0.69151 0.71828 0.0
C498 C 0.72966 0.72983 0.74778 0.0
C499 C 0.72032 0.75033 0.7524 0.0
C500 C 0.755 0.72513 0.75793 0.0
C501 C 0.765 0.70321 0.75441 0.0
C502 C 0.74597 0.68218 0.75805 0.0
C503 C 0.75542 0.66158 0.75454 0.0
C504 C 0.78393 0.66179 0.74752 0.0
C505 C 0.80307 0.6826 0.74406 0.0
C506 C 0.79372 0.70325 0.74753 0.0
C507 C 0.78394 0.80419 0.82229 0.0
C508 C 0.81361 0.81234 0.8176 0.0
C509 C 0.76715 0.78748 0.80921 0.0
C510 C 0.77968 0.77881 0.79113 0.0
C511 C 0.80941 0.78656 0.78673 0.0
C512 C 0.8262 0.80315 0.7998 0.0
C513 C 0.7618 0.76212 0.77637 0.0
C514 C 0.77084 0.7414 0.77203 0.0
C515 C 0.73624 0.76667 0.76636 0.0
C516 C 0.72648 0.78876 0.7692 0.0
C517 C 0.74516 0.80953 0.76399 0.0
C518 C 0.73586 0.8303 0.7668 0.0
C519 C 0.70782 0.83049 0.77464 0.0
C520 C 0.68901 0.80992 0.77964 0.0
C521 C 0.69822 0.78911 0.77688 0.0
H522 H 0.70065 0.84658 0.7768 0.0
H523 H 0.7912 0.64582 0.74481 0.0
H524 H 0.747 0.31882 0.81877 0.0
H525 H 0.76409 0.28889 0.79837 0.0
H526 H 0.71648 0.30453 0.74233 0.0
H527 H 0.69898 0.33438 0.76266 0.0
H528 H 0.70352 0.25964 0.75204 0.0
H529 H 0.79065 0.31624 0.74295 0.0
H530 H 0.83258 0.34559 0.75454 0.0
H531 H 0.86447 0.29576 0.7932 0.0
H532 H 0.82249 0.26616 0.78207 0.0
H533 H 0.76014 0.1892 0.67665 0.0
H534 H 0.7446 0.21982 0.69698 0.0
H535 H 0.79289 0.20393 0.75257 0.0
H536 H 0.80893 0.17337 0.73225 0.0
H537 H 0.80566 0.24889 0.74328 0.0
H538 H 0.71856 0.19233 0.75247 0.0
H539 H 0.67661 0.16295 0.74095 0.0
H540 H 0.64462 0.21271 0.70226 0.0
H541 H 0.68661 0.24233 0.71332 0.0
C542 C 0.74063 0.31626 0.80197 0.0
C543 C 0.72142 0.32892 0.79242 0.0
C544 C 0.75047 0.29913 0.79031 0.0
C545 C 0.74148 0.29443 0.76885 0.0
C546 C 0.72355 0.30781 0.75892 0.0
C547 C 0.71371 0.32496 0.77055 0.0
C548 C 0.74887 0.27443 0.75737 0.0
C549 C 0.72588 0.25746 0.7498 0.0
C550 C 0.77798 0.27126 0.75509 0.0
C551 C 0.80325 0.28903 0.76183 0.0
C552 C 0.80646 0.31158 0.75407 0.0
C553 C 0.83027 0.32825 0.76053 0.0
C554 C 0.85113 0.32255 0.77464 0.0
C555 C 0.84827 0.30015 0.78229 0.0
C556 C 0.82448 0.28341 0.77589 0.0
C557 C 0.76708 0.1919 0.69332 0.0
C558 C 0.78591 0.17885 0.70277 0.0
C559 C 0.75811 0.20943 0.70495 0.0
C560 C 0.76758 0.21417 0.7263 0.0
C561 C 0.78542 0.20061 0.73608 0.0
C562 C 0.79441 0.18304 0.72446 0.0
C563 C 0.76031 0.23414 0.73791 0.0
C564 C 0.7833 0.25108 0.74552 0.0
C565 C 0.73119 0.23728 0.74025 0.0
C566 C 0.70589 0.2195 0.73357 0.0
C567 C 0.70272 0.19697 0.74136 0.0
C568 C 0.6789 0.18028 0.73494 0.0
C569 C 0.658 0.18594 0.72084 0.0
C570 C 0.66084 0.20834 0.71316 0.0
C571 C 0.68463 0.22509 0.71952 0.0
H572 H 0.63958 0.173 0.71589 0.0
H573 H 0.86956 0.33549 0.77962 0.0
H574 H 0.2415 0.30904 0.68049 0.0
H575 H 0.25332 0.27763 0.70186 0.0
H576 H 0.20852 0.29916 0.7568 0.0
H577 H 0.19643 0.33074 0.73554 0.0
H578 H 0.26121 0.28486 0.76747 0.0
H579 H 0.17285 0.25788 0.72764 0.0
H580 H 0.14204 0.25198 0.69494 0.0
H581 H 0.20058 0.21326 0.66591 0.0
H582 H 0.232 0.2192 0.69832 0.0
H583 H 0.25046 0.18236 0.82599 0.0
H584 H 0.23386 0.21298 0.80624 0.0
H585 H 0.27337 0.19342 0.74789 0.0
H586 H 0.28992 0.16262 0.76742 0.0
H587 H 0.22118 0.20678 0.73988 0.0
H588 H 0.31057 0.23495 0.77822 0.0
H589 H 0.34258 0.24104 0.81028 0.0
H590 H 0.28343 0.27776 0.84145 0.0
H591 H 0.25082 0.27158 0.80967 0.0
C592 C 0.23456 0.30742 0.69723 0.0
C593 C 0.21773 0.32231 0.70622 0.0
C594 C 0.24123 0.28936 0.70937 0.0
C595 C 0.23131 0.28587 0.73074 0.0
C596 C 0.21619 0.30152 0.74027 0.0
C597 C 0.20933 0.31955 0.72808 0.0
C598 C 0.23539 0.26518 0.74266 0.0
C599 C 0.2521 0.26779 0.76165 0.0
C600 C 0.22391 0.24294 0.73478 0.0
C601 C 0.20492 0.23917 0.71533 0.0
C602 C 0.17928 0.24826 0.71422 0.0
C603 C 0.16169 0.24488 0.69575 0.0
C604 C 0.16939 0.23231 0.67834 0.0
C605 C 0.19466 0.22302 0.67939 0.0
C606 C 0.21236 0.22637 0.69782 0.0
C607 C 0.25511 0.18421 0.80885 0.0
C608 C 0.27189 0.1702 0.79836 0.0
C609 C 0.24571 0.20181 0.79762 0.0
C610 C 0.25295 0.20574 0.77574 0.0
C611 C 0.26774 0.19075 0.76482 0.0
C612 C 0.2772 0.17315 0.77603 0.0
C613 C 0.2471 0.22645 0.76467 0.0
C614 C 0.2301 0.22385 0.74581 0.0
C615 C 0.25845 0.24871 0.77261 0.0
C616 C 0.2781 0.25258 0.79167 0.0
C617 C 0.30427 0.24417 0.79198 0.0
C618 C 0.32254 0.24766 0.81008 0.0
C619 C 0.315 0.25972 0.82791 0.0
C620 C 0.28921 0.26838 0.82764 0.0
C621 C 0.27084 0.2649 0.80958 0.0
H622 H 0.32917 0.26241 0.84191 0.0
H623 H 0.15574 0.22972 0.66406 0.0
H624 H 0.17367 0.95062 0.30437 0.0
H625 H 0.16508 0.98417 0.28419 0.0
H626 H 0.11954 0.93991 0.23485 0.0
H627 H 0.12752 0.90648 0.25499 0.0
H628 H 0.18128 1.00049 0.24493 0.0
H629 H 0.06441 0.9627 0.21434 0.0
H630 H 0.02097 0.93486 0.22609 0.0
H631 H 0.04722 0.94589 0.29242 0.0
H632 H 0.09058 0.974 0.2811 0.0
H633 H 0.14499 0.07303 0.16275 0.0
H634 H 0.15059 0.03814 0.18193 0.0
H635 H 0.09031 0.05168 0.2309 0.0
H636 H 0.08425 0.08625 0.21173 0.0
H637 H 0.08123 0.00734 0.22245 0.0
H638 H 0.16382 0.06631 0.23877 0.0
H639 H 0.20661 0.09636 0.23038 0.0
H640 H 0.24789 0.04681 0.19872 0.0
H641 H 0.20514 0.0165 0.20668 0.0
C642 C 0.16177 0.94806 0.28925 0.0
C643 C 0.15112 0.92587 0.28138 0.0
C644 C 0.15696 0.96724 0.2777 0.0
C645 C 0.14136 0.96456 0.25812 0.0
C646 C 0.13116 0.94242 0.25009 0.0
C647 C 0.13585 0.9233 0.26163 0.0
C648 C 0.13567 0.98483 0.24601 0.0
C649 C 0.15941 0.00196 0.24 0.0
C650 C 0.10708 0.98698 0.23983 0.0
C651 C 0.08089 0.97028 0.24683 0.0
C652 C 0.06084 0.95924 0.23144 0.0
C653 C 0.03625 0.9434 0.23802 0.0
C654 C 0.03139 0.93856 0.25998 0.0
C655 C 0.05107 0.94959 0.27541 0.0
C656 C 0.07568 0.96545 0.26892 0.0
C657 C 0.13254 0.06836 0.17739 0.0
C658 C 0.11431 0.0825 0.18577 0.0
C659 C 0.13592 0.0485 0.18843 0.0
C660 C 0.12126 0.0425 0.20807 0.0
C661 C 0.10193 0.05598 0.21584 0.0
C662 C 0.09852 0.07579 0.20484 0.0
C663 C 0.12688 0.0228 0.22107 0.0
C664 C 0.10312 0.00579 0.22726 0.0
C665 C 0.15537 0.02104 0.22785 0.0
C666 C 0.18116 0.03919 0.22313 0.0
C667 C 0.18193 0.06186 0.22988 0.0
C668 C 0.20619 0.07893 0.22522 0.0
C669 C 0.22992 0.07351 0.21397 0.0
C670 C 0.22947 0.05099 0.20741 0.0
C671 C 0.20524 0.03385 0.212 0.0
H672 H 0.24869 0.08675 0.21039 0.0
H673 H 0.01235 0.92628 0.26504 0.0
H674 H 0.86352 0.43705 0.15949 0.0
H675 H 0.8587 0.47187 0.17941 0.0
H676 H 0.88498 0.44257 0.23818 0.0
H677 H 0.89058 0.40816 0.21847 0.0
H678 H 0.82895 0.46022 0.23889 0.0
H679 H 0.93171 0.48084 0.21959 0.0
H680 H 0.97262 0.48745 0.19365 0.0
H681 H 0.93459 0.53828 0.16109 0.0
H682 H 0.89321 0.53172 0.18667 0.0
H683 H 0.84218 0.55151 0.31385 0.0
H684 H 0.84828 0.51864 0.29175 0.0
H685 H 0.85517 0.5608 0.23444 0.0
H686 H 0.8508 0.59385 0.25664 0.0
H687 H 0.89311 0.53653 0.23116 0.0
H688 H 0.79176 0.51844 0.24846 0.0
H689 H 0.74789 0.51204 0.27159 0.0
H690 H 0.77795 0.45717 0.30405 0.0
H691 H 0.8222 0.46343 0.2813 0.0
C692 C 0.86871 0.4382 0.17657 0.0
C693 C 0.87749 0.41987 0.18738 0.0
C694 C 0.86589 0.45805 0.18792 0.0
C695 C 0.87135 0.45966 0.21025 0.0
C696 C 0.8806 0.44159 0.22096 0.0
C697 C 0.88394 0.422 0.20961 0.0
C698 C 0.86645 0.47978 0.22277 0.0
C699 C 0.84308 0.47691 0.23741 0.0
C700 C 0.8843 0.50161 0.22019 0.0
C701 C 0.90921 0.5056 0.20488 0.0
C702 C 0.93192 0.49326 0.20677 0.0
C703 C 0.95523 0.49704 0.19216 0.0
C704 C 0.95616 0.51322 0.17569 0.0
C705 C 0.93382 0.52572 0.17383 0.0
C706 C 0.91045 0.52199 0.18838 0.0
C707 C 0.84486 0.55367 0.29652 0.0
C708 C 0.846 0.57521 0.28697 0.0
C709 C 0.84818 0.53485 0.28385 0.0
C710 C 0.85176 0.53704 0.26128 0.0
C711 C 0.85255 0.55857 0.25177 0.0
C712 C 0.84994 0.57747 0.26448 0.0
C713 C 0.85553 0.51715 0.24762 0.0
C714 C 0.87871 0.51998 0.23269 0.0
C715 C 0.83701 0.49537 0.24956 0.0
C716 C 0.81044 0.49156 0.26331 0.0
C717 C 0.78913 0.50512 0.26064 0.0
C718 C 0.76417 0.5015 0.27367 0.0
C719 C 0.76017 0.48425 0.28932 0.0
C720 C 0.78109 0.47055 0.29194 0.0
C721 C 0.8061 0.47411 0.27897 0.0
H722 H 0.74083 0.48148 0.29938 0.0
H723 H 0.97422 0.51613 0.1644 0.0
H724 H 0.26499 0.09408 0.91081 0.0
H725 H 0.24688 0.08988 0.9483 0.0
H726 H 0.26105 0.16332 0.95457 0.0
H727 H 0.2788 0.16765 0.91756 0.0
H728 H 0.28447 0.1423 0.98857 0.0
H729 H 0.19396 0.13345 0.94715 0.0
H730 H 0.15828 0.11438 0.92033 0.0
H731 H 0.14882 0.0514 0.95583 0.0
H732 H 0.18477 0.07006 0.98273 0.0
H733 H 0.20554 0.18014 0.07103 0.0
H734 H 0.22538 0.1699 0.03688 0.0
H735 H 0.19354 0.09836 0.05029 0.0
H736 H 0.17298 0.10858 0.08472 0.0
H737 H 0.1822 0.10896 0.00872 0.0
H738 H 0.26605 0.11972 0.05367 0.0
H739 H 0.3014 0.13876 0.0807 0.0
H740 H 0.32436 0.1971 0.03899 0.0
H741 H 0.28885 0.17858 0.01183 0.0
C742 C 0.26406 0.10928 0.92019 0.0
C743 C 0.27336 0.13119 0.9112 0.0
C744 C 0.25372 0.10686 0.94156 0.0
C745 C 0.25274 0.12631 0.95421 0.0
C746 C 0.2618 0.14809 0.94515 0.0
C747 C 0.27184 0.15051 0.92391 0.0
C748 C 0.24271 0.12453 0.97702 0.0
C749 C 0.26212 0.135 0.99301 0.0
C750 C 0.21389 0.11422 0.98293 0.0
C751 C 0.19232 0.10306 0.96677 0.0
C752 C 0.18448 0.11548 0.94912 0.0
C753 C 0.16416 0.10477 0.93393 0.0
C754 C 0.15137 0.08167 0.93633 0.0
C755 C 0.1588 0.06927 0.95396 0.0
C756 C 0.17913 0.07991 0.96918 0.0
C757 C 0.20282 0.16219 0.06687 0.0
C758 C 0.18777 0.14517 0.08069 0.0
C759 C 0.21433 0.15635 0.04733 0.0
C760 C 0.21139 0.13334 0.04115 0.0
C761 C 0.19622 0.11622 0.0548 0.0
C762 C 0.18458 0.12208 0.07448 0.0
C763 C 0.22366 0.12766 0.02011 0.0
C764 C 0.20477 0.11575 0.00447 0.0
C765 C 0.25307 0.13656 0.0145 0.0
C766 C 0.27466 0.14776 0.03073 0.0
C767 C 0.2785 0.13667 0.0503 0.0
C768 C 0.29859 0.14737 0.06565 0.0
C769 C 0.3151 0.16913 0.06157 0.0
C770 C 0.31158 0.18023 0.04212 0.0
C771 C 0.2915 0.16962 0.02673 0.0
H772 H 0.33063 0.17739 0.07348 0.0
H773 H 0.13564 0.07341 0.92456 0.0
H774 H 0.798 0.32288 0.06342 0.0
H775 H 0.7837 0.33316 0.02744 0.0
H776 H 0.80023 0.40443 0.04545 0.0
H777 H 0.81506 0.39427 0.08182 0.0
H778 H 0.74534 0.38747 0.02123 0.0
H779 H 0.84821 0.39124 0.01576 0.0
H780 H 0.8945 0.37788 0.02129 0.0
H781 H 0.86218 0.31772 0.98366 0.0
H782 H 0.8155 0.33054 0.97818 0.0
H783 H 0.72278 0.40473 0.90693 0.0
H784 H 0.7448 0.41013 0.94318 0.0
H785 H 0.7526 0.33912 0.94432 0.0
H786 H 0.7311 0.33369 0.90844 0.0
H787 H 0.80144 0.36585 0.95897 0.0
H788 H 0.69691 0.35795 0.97025 0.0
H789 H 0.64903 0.36909 0.96562 0.0
H790 H 0.68333 0.43525 0.99264 0.0
H791 H 0.73154 0.42457 0.99717 0.0
C792 C 0.79848 0.34077 0.05988 0.0
C793 C 0.8078 0.35778 0.07549 0.0
C794 C 0.79035 0.3466 0.03925 0.0
C795 C 0.79117 0.36955 0.03375 0.0
C796 C 0.79955 0.38662 0.04942 0.0
C797 C 0.80805 0.38079 0.07013 0.0
C798 C 0.78382 0.37524 0.01134 0.0
C799 C 0.75796 0.38334 0.00757 0.0
C800 C 0.80013 0.36953 0.99358 0.0
C801 C 0.82828 0.36181 0.99666 0.0
C802 C 0.85089 0.37508 0.00879 0.0
C803 C 0.87721 0.36762 0.0119 0.0
C804 C 0.88126 0.34695 0.00286 0.0
C805 C 0.85901 0.33373 0.99065 0.0
C806 C 0.83263 0.34111 0.98751 0.0
C807 C 0.7294 0.39036 0.9149 0.0
C808 C 0.72511 0.36877 0.90483 0.0
C809 C 0.74186 0.39344 0.93562 0.0
C810 C 0.75022 0.37499 0.94651 0.0
C811 C 0.74644 0.35363 0.93623 0.0
C812 C 0.73399 0.35054 0.9157 0.0
C813 C 0.76237 0.37731 0.96879 0.0
C814 C 0.7892 0.37065 0.97256 0.0
C815 C 0.74682 0.38418 0.9865 0.0
C816 C 0.7179 0.39059 0.98377 0.0
C817 C 0.6943 0.37494 0.97502 0.0
C818 C 0.66709 0.38115 0.97245 0.0
C819 C 0.66317 0.40289 0.97876 0.0
C820 C 0.68642 0.41844 0.98771 0.0
C821 C 0.71369 0.41232 0.99028 0.0
H822 H 0.64209 0.40767 0.97677 0.0
H823 H 0.90166 0.3412 0.00529 0.0
H824 H 0.2694 0.82903 0.57148 0.0
H825 H 0.25472 0.83974 0.53568 0.0
H826 H 0.31439 0.90456 0.54069 0.0
H827 H 0.32934 0.89388 0.57674 0.0
H828 H 0.23073 0.87446 0.5194 0.0
H829 H 0.34504 0.91534 0.48933 0.0
H830 H 0.39681 0.91521 0.49748 0.0
H831 H 0.37333 0.84667 0.52205 0.0
H832 H 0.32153 0.84632 0.51379 0.0
H833 H 0.21461 0.9047 0.40825 0.0
H834 H 0.23263 0.91016 0.44564 0.0
H835 H 0.27082 0.84998 0.43998 0.0
H836 H 0.2528 0.84435 0.40298 0.0
H837 H 0.30672 0.88499 0.46216 0.0
H838 H 0.20562 0.84483 0.46149 0.0
H839 H 0.15326 0.84071 0.45284 0.0
H840 H 0.14935 0.90146 0.48926 0.0
H841 H 0.20183 0.90608 0.49789 0.0
C842 C 0.27921 0.84569 0.56512 0.0
C843 C 0.30071 0.86054 0.57689 0.0
C844 C 0.27065 0.85183 0.54468 0.0
C845 C 0.28358 0.87287 0.53545 0.0
C846 C 0.30427 0.88817 0.54747 0.0
C847 C 0.31273 0.88207 0.56807 0.0
C848 C 0.27666 0.87777 0.51269 0.0
C849 C 0.24742 0.87716 0.50694 0.0
C850 C 0.29835 0.88105 0.49637 0.0
C851 C 0.32943 0.88095 0.50121 0.0
C852 C 0.35097 0.90025 0.49644 0.0
C853 C 0.3803 0.90025 0.50107 0.0
C854 C 0.38834 0.88098 0.51036 0.0
C855 C 0.36707 0.86162 0.51495 0.0
C856 C 0.33772 0.86153 0.51031 0.0
C857 C 0.22731 0.89291 0.41489 0.0
C858 C 0.23214 0.87401 0.40277 0.0
C859 C 0.2375 0.896 0.43624 0.0
C860 C 0.25294 0.88039 0.4456 0.0
C861 C 0.25905 0.86226 0.43307 0.0
C862 C 0.24859 0.859 0.41195 0.0
C863 C 0.26079 0.88151 0.46888 0.0
C864 C 0.29018 0.88312 0.47472 0.0
C865 C 0.23918 0.87875 0.48524 0.0
C866 C 0.20768 0.87597 0.48008 0.0
C867 C 0.19364 0.85742 0.46749 0.0
C868 C 0.16394 0.85497 0.46262 0.0
C869 C 0.14801 0.87086 0.47043 0.0
C870 C 0.16173 0.8892 0.48318 0.0
C871 C 0.19145 0.89174 0.48806 0.0
H872 H 0.12502 0.86893 0.46665 0.0
H873 H 0.41105 0.88102 0.51395 0.0
H874 H 0.70549 0.67957 0.57643 0.0
H875 H 0.72221 0.67055 0.54075 0.0
H876 H 0.68264 0.59953 0.54964 0.0
H877 H 0.6656 0.60844 0.58573 0.0
H878 H 0.74007 0.60742 0.52968 0.0
H879 H 0.64695 0.6282 0.5199 0.0
H880 H 0.60953 0.65181 0.52516 0.0
H881 H 0.66614 0.70932 0.49614 0.0
H882 H 0.70409 0.68615 0.49101 0.0
H883 H 0.76659 0.59698 0.41459 0.0
H884 H 0.74249 0.59286 0.45015 0.0
H885 H 0.76078 0.66627 0.45772 0.0
H886 H 0.78419 0.67049 0.4225 0.0
H887 H 0.70602 0.6493 0.46841 0.0
H888 H 0.8012 0.63104 0.4834 0.0
H889 H 0.84024 0.60874 0.4791 0.0
H890 H 0.78106 0.54762 0.49852 0.0
H891 H 0.74156 0.56954 0.50268 0.0
C892 C 0.70048 0.66196 0.57097 0.0
C893 C 0.68398 0.64475 0.58388 0.0
C894 C 0.71004 0.65685 0.55052 0.0
C895 C 0.70332 0.63445 0.54245 0.0
C896 C 0.68794 0.61696 0.55558 0.0
C897 C 0.6782 0.62209 0.57614 0.0
C898 C 0.71146 0.62993 0.5199 0.0
C899 C 0.73219 0.61614 0.51617 0.0
C900 C 0.70134 0.6415 0.50235 0.0
C901 C 0.67843 0.65544 0.50518 0.0
C902 C 0.65149 0.64592 0.51477 0.0
C903 C 0.63018 0.65922 0.51771 0.0
C904 C 0.63546 0.68206 0.51102 0.0
C905 C 0.66207 0.69162 0.50132 0.0
C906 C 0.68347 0.6784 0.49836 0.0
C907 C 0.7654 0.61219 0.42388 0.0
C908 C 0.77726 0.63405 0.41569 0.0
C909 C 0.75173 0.60982 0.44421 0.0
C910 C 0.74989 0.62927 0.45664 0.0
C911 C 0.76176 0.65101 0.44841 0.0
C912 C 0.77525 0.65338 0.42822 0.0
C913 C 0.73558 0.62753 0.47822 0.0
C914 C 0.71352 0.64014 0.48178 0.0
C915 C 0.74464 0.61499 0.49556 0.0
C916 C 0.76836 0.60185 0.49307 0.0
C917 C 0.79646 0.61281 0.48657 0.0
C918 C 0.81868 0.60025 0.48419 0.0
C919 C 0.81311 0.57677 0.48846 0.0
C920 C 0.78532 0.5658 0.49517 0.0
C921 C 0.76302 0.57828 0.49755 0.0
H922 H 0.83034 0.56707 0.48661 0.0
H923 H 0.61894 0.69233 0.51332 0.0
H924 H 0.94983 0.33028 0.15695 0.0
H925 H 0.98289 0.30349 0.15199 0.0
H926 H 0.9335 0.27483 0.09617 0.0
H927 H 0.89998 0.30119 0.1013 0.0
H928 H 0.9417 0.24187 0.12162 0.0
H929 H 0.00326 0.30749 0.09143 0.0
H930 H 0.02951 0.34757 0.08979 0.0
H931 H 0.07911 0.33695 0.14609 0.0
H932 H 0.05287 0.29688 0.14825 0.0
H933 H 0.09198 0.20248 0.10266 0.0
H934 H 0.0586 0.22887 0.09696 0.0
H935 H 0.00816 0.20049 0.15242 0.0
H936 H 0.04099 0.17366 0.15788 0.0
H937 H 0.04989 0.26196 0.12185 0.0
H938 H 0.93848 0.20724 0.14833 0.0
H939 H 0.91224 0.16715 0.14643 0.0
H940 H 0.96228 0.15594 0.09055 0.0
H941 H 0.98854 0.19603 0.09192 0.0
C942 C 0.94631 0.31858 0.14337 0.0
C943 C 0.92217 0.31784 0.12958 0.0
C944 C 0.96527 0.30326 0.14053 0.0
C945 C 0.96074 0.28713 0.12366 0.0
C946 C 0.93736 0.28701 0.10936 0.0
C947 C 0.91829 0.30219 0.11227 0.0
C948 C 0.97917 0.26944 0.12181 0.0
C949 C 0.96536 0.24628 0.12156 0.0
C950 C 0.01004 0.27513 0.12134 0.0
C951 C 0.02592 0.29922 0.12009 0.0
C952 C 0.01961 0.31375 0.10355 0.0
C953 C 0.03452 0.33646 0.10252 0.0
C954 C 0.05592 0.34482 0.11785 0.0
C955 C 0.06251 0.33046 0.13423 0.0
C956 C 0.04765 0.30773 0.13535 0.0
C957 C 0.07345 0.20154 0.11341 0.0
C958 C 0.06919 0.18595 0.13075 0.0
C959 C 0.05447 0.21674 0.11019 0.0
C960 C 0.03082 0.21671 0.12423 0.0
C961 C 0.02596 0.20065 0.14114 0.0
C962 C 0.0448 0.1853 0.14427 0.0
C963 C 0.01241 0.23439 0.12206 0.0
C964 C 0.02622 0.25755 0.12168 0.0
C965 C 0.98154 0.2287 0.12146 0.0
C966 C 0.96565 0.2046 0.12036 0.0
C967 C 0.94379 0.19625 0.13558 0.0
C968 C 0.92894 0.17352 0.13461 0.0
C969 C 0.93565 0.15899 0.11842 0.0
C970 C 0.95717 0.16718 0.10312 0.0
C971 C 0.97208 0.1899 0.10401 0.0
H972 H 0.92413 0.14139 0.1177 0.0
H973 H 0.06744 0.3624 0.11702 0.0
H974 H 0.89212 0.69134 0.38184 0.0
H975 H 0.93478 0.72205 0.3841 0.0
H976 H 0.97824 0.68861 0.33562 0.0
H977 H 0.93507 0.65813 0.33263 0.0
H978 H 0.99031 0.72912 0.39281 0.0
H979 H 0.01449 0.72884 0.30072 0.0
H980 H 0.98869 0.71596 0.26677 0.0
H981 H 0.90686 0.72119 0.2961 0.0
H982 H 0.93223 0.73488 0.32998 0.0
H983 H 0.12504 0.80127 0.3679 0.0
H984 H 0.08283 0.7707 0.37321 0.0
H985 H 0.02945 0.80874 0.33661 0.0
H986 H 0.07208 0.8391 0.33045 0.0
H987 H 0.01987 0.76759 0.32289 0.0
H988 H 0.02258 0.80051 0.39314 0.0
H989 H 0.04448 0.81588 0.42768 0.0
H990 H 0.06509 0.75051 0.44313 0.0
H991 H 0.04367 0.73482 0.40854 0.0
C992 C 0.91093 0.69022 0.37193 0.0
C993 C 0.90997 0.67248 0.35674 0.0
C994 C 0.93538 0.70783 0.37329 0.0
C995 C 0.9594 0.70794 0.35963 0.0
C996 C 0.95961 0.68915 0.34592 0.0
C997 C 0.93498 0.67168 0.34432 0.0
C998 C 0.98287 0.72862 0.35841 0.0
C999 C 0.99688 0.7375 0.37752 0.0
C1000 C 0.99073 0.74002 0.33855 0.0
C1001 C 0.97527 0.73262 0.31799 0.0
C1002 C 0.99102 0.72744 0.29987 0.0
C1003 C 0.97647 0.72005 0.28062 0.0
C1004 C 0.94616 0.71777 0.27929 0.0
C1005 C 0.93035 0.72304 0.29715 0.0
C1006 C 0.94481 0.73065 0.31637 0.0
C1007 C 0.10423 0.80336 0.36127 0.0
C1008 C 0.10193 0.82263 0.34871 0.0
C1009 C 0.08003 0.78585 0.3644 0.0
C1010 C 0.05284 0.78745 0.35548 0.0
C1011 C 0.05023 0.80708 0.3436 0.0
C1012 C 0.07457 0.82447 0.34017 0.0
C1013 C 0.02774 0.76796 0.35726 0.0
C1014 C 0.01337 0.75927 0.33822 0.0
C1015 C 0.01894 0.75721 0.37727 0.0
C1016 C 0.03171 0.76654 0.39816 0.0
C1017 C 0.03196 0.78945 0.40384 0.0
C1018 C 0.04426 0.79822 0.42343 0.0
C1019 C 0.05623 0.7842 0.43757 0.0
C1020 C 0.05584 0.76136 0.43216 0.0
C1021 C 0.04358 0.75251 0.41257 0.0
H1022 H 0.06576 0.79102 0.45273 0.0
H1023 H 0.93492 0.71193 0.26441 0.0
H1024 H 0.60051 0.71563 0.61907 0.0
H1025 H 0.56676 0.74175 0.61366 0.0
H1026 H 0.49472 0.68882 0.63288 0.0
H1027 H 0.52852 0.66251 0.63893 0.0
H1028 H 0.48928 0.72099 0.59216 0.0
H1029 H 0.51155 0.71886 0.66952 0.0
H1030 H 0.54613 0.7209 0.69996 0.0
H1031 H 0.58855 0.78814 0.67986 0.0
H1032 H 0.55447 0.78631 0.64908 0.0
H1033 H 0.3794 0.78328 0.61757 0.0
H1034 H 0.41352 0.75736 0.6141 0.0
H1035 H 0.48546 0.81324 0.6267 0.0
H1036 H 0.45102 0.83912 0.63136 0.0
H1037 H 0.49308 0.7799 0.64943 0.0
H1038 H 0.47092 0.78563 0.5749 0.0
H1039 H 0.44029 0.78532 0.54236 0.0
H1040 H 0.40242 0.71465 0.55346 0.0
H1041 H 0.43253 0.71461 0.58625 0.0
C1042 C 0.57744 0.70932 0.62183 0.0
C1043 C 0.56722 0.68697 0.62956 0.0
C1044 C 0.55822 0.72432 0.61872 0.0
C1045 C 0.52837 0.71718 0.62293 0.0
C1046 C 0.51774 0.69455 0.6295 0.0
C1047 C 0.53707 0.6796 0.633 0.0
C1048 C 0.50886 0.734 0.62223 0.0
C1049 C 0.48969 0.73374 0.60476 0.0
C1050 C 0.51047 0.75112 0.63824 0.0
C1051 C 0.5307 0.75233 0.65688 0.0
C1052 C 0.52843 0.73398 0.67148 0.0
C1053 C 0.5479 0.73512 0.68881 0.0
C1054 C 0.56958 0.75461 0.6918 0.0
C1055 C 0.57178 0.77304 0.6775 0.0
C1056 C 0.55238 0.77196 0.66012 0.0
C1057 C 0.40252 0.79018 0.61926 0.0
C1058 C 0.41249 0.81329 0.62474 0.0
C1059 C 0.42211 0.77531 0.61714 0.0
C1060 C 0.45224 0.7833 0.61983 0.0
C1061 C 0.46234 0.80659 0.62457 0.0
C1062 C 0.44266 0.82141 0.62714 0.0
C1063 C 0.47282 0.76701 0.61935 0.0
C1064 C 0.49243 0.76733 0.63665 0.0
C1065 C 0.47197 0.75026 0.60288 0.0
C1066 C 0.45382 0.75018 0.58315 0.0
C1067 C 0.4559 0.77007 0.5705 0.0
C1068 C 0.43866 0.76994 0.55199 0.0
C1069 C 0.41937 0.74999 0.54588 0.0
C1070 C 0.41735 0.7301 0.55823 0.0
C1071 C 0.43452 0.73013 0.57677 0.0
H1072 H 0.40604 0.74993 0.53154 0.0
H1073 H 0.58464 0.75546 0.70523 0.0
H1074 H 0.83279 0.05392 0.69532 0.0
H1075 H 0.8396 0.02155 0.71795 0.0
H1076 H 0.88321 0.06849 0.76609 0.0
H1077 H 0.87716 0.10074 0.74342 0.0
H1078 H 0.91121 0.03495 0.76191 0.0
H1079 H 0.81087 0.04073 0.77167 0.0
H1080 H 0.76067 0.04234 0.76022 0.0
H1081 H 0.7518 0.97564 0.73162 0.0
H1082 H 0.8021 0.97376 0.74267 0.0
H1083 H 0.843 0.93864 0.84424 0.0
H1084 H 0.84162 0.97261 0.8225 0.0
H1085 H 0.90991 0.95666 0.78161 0.0
H1086 H 0.91191 0.92289 0.80366 0.0
H1087 H 0.82627 0.97509 0.7825 0.0
H1088 H 0.9475 0.00535 0.75813 0.0
H1089 H 0.99666 0.00629 0.77324 0.0
H1090 H 0.96202 0.0053 0.83766 0.0
H1091 H 0.91276 0.00465 0.82294 0.0
C1092 C 0.84388 0.05732 0.7107 0.0
C1093 C 0.85433 0.07992 0.71758 0.0
C1094 C 0.84769 0.0388 0.72367 0.0
C1095 C 0.86168 0.04254 0.74388 0.0
C1096 C 0.87243 0.06511 0.75058 0.0
C1097 C 0.86882 0.08357 0.7376 0.0
C1098 C 0.86483 0.02309 0.75827 0.0
C1099 C 0.89263 0.02182 0.76634 0.0
C1100 C 0.84058 0.00613 0.76445 0.0
C1101 C 0.81034 0.00721 0.75779 0.0
C1102 C 0.79829 0.02649 0.76279 0.0
C1103 C 0.76981 0.02743 0.7564 0.0
C1104 C 0.75309 0.00913 0.74515 0.0
C1105 C 0.76479 0.98982 0.74031 0.0
C1106 C 0.79328 0.9888 0.74664 0.0
C1107 C 0.85809 0.94254 0.83084 0.0
C1108 C 0.87757 0.928 0.82571 0.0
C1109 C 0.85716 0.96193 0.81833 0.0
C1110 C 0.8756 0.96725 0.80035 0.0
C1111 C 0.89569 0.95314 0.79554 0.0
C1112 C 0.89683 0.93381 0.80819 0.0
C1113 C 0.87267 0.98689 0.78612 0.0
C1114 C 0.84489 0.98815 0.778 0.0
C1115 C 0.89682 0.00414 0.78037 0.0
C1116 C 0.9264 0.0047 0.7894 0.0
C1117 C 0.9504 0.0054 0.77551 0.0
C1118 C 0.97828 0.00587 0.78401 0.0
C1119 C 0.98244 0.00577 0.8064 0.0
C1120 C 0.95875 0.00528 0.82033 0.0
C1121 C 0.93084 0.00482 0.81191 0.0
H1122 H 0.00403 0.00613 0.81294 0.0
H1123 H 0.73104 0.0099 0.74022 0.0
H1124 H 0.17832 0.58074 0.82291 0.0
H1125 H 0.1804 0.5474 0.80043 0.0
H1126 H 0.08643 0.52925 0.80063 0.0
H1127 H 0.08399 0.56308 0.82284 0.0
H1128 H 0.12268 0.49158 0.80887 0.0
H1129 H 0.10872 0.55143 0.75889 0.0
H1130 H 0.12074 0.59054 0.74402 0.0
H1131 H 0.2077 0.58126 0.72951 0.0
H1132 H 0.1963 0.5422 0.74463 0.0
H1133 H 0.10962 0.40733 0.72761 0.0
H1134 H 0.10319 0.43974 0.74998 0.0
H1135 H 0.18853 0.47621 0.73086 0.0
H1136 H 0.19428 0.44417 0.70743 0.0
H1137 H 0.1552 0.505 0.73272 0.0
H1138 H 0.17301 0.44754 0.78201 0.0
H1139 H 0.16597 0.40937 0.79895 0.0
H1140 H 0.07868 0.41452 0.81718 0.0
H1141 H 0.08507 0.45261 0.8001 0.0
C1142 C 0.15802 0.56957 0.81843 0.0
C1143 C 0.13094 0.57462 0.82466 0.0
C1144 C 0.1593 0.55056 0.80551 0.0
C1145 C 0.13359 0.536 0.79881 0.0
C1146 C 0.10651 0.54036 0.80566 0.0
C1147 C 0.10517 0.55968 0.81831 0.0
C1148 C 0.13524 0.51674 0.78398 0.0
C1149 C 0.12928 0.49437 0.7921 0.0
C1150 C 0.14498 0.52061 0.76241 0.0
C1151 C 0.15174 0.54398 0.75308 0.0
C1152 C 0.13048 0.55781 0.75271 0.0
C1153 C 0.13716 0.57995 0.7442 0.0
C1154 C 0.16499 0.5884 0.73588 0.0
C1155 C 0.18616 0.5747 0.73599 0.0
C1156 C 0.17959 0.55255 0.7445 0.0
C1157 C 0.12696 0.42232 0.7281 0.0
C1158 C 0.15254 0.42318 0.71588 0.0
C1159 C 0.12336 0.4408 0.74105 0.0
C1160 C 0.14567 0.46029 0.74266 0.0
C1161 C 0.17101 0.46138 0.73003 0.0
C1162 C 0.17432 0.44305 0.71665 0.0
C1163 C 0.14255 0.47948 0.75746 0.0
C1164 C 0.14838 0.50197 0.74941 0.0
C1165 C 0.13334 0.47573 0.77929 0.0
C1166 C 0.12942 0.45283 0.78958 0.0
C1167 C 0.15224 0.44046 0.78949 0.0
C1168 C 0.14838 0.41885 0.79914 0.0
C1169 C 0.12187 0.4095 0.80908 0.0
C1170 C 0.09919 0.42177 0.80945 0.0
C1171 C 0.10292 0.44338 0.7998 0.0
H1172 H 0.11893 0.39278 0.81654 0.0
H1173 H 0.17013 0.60555 0.7293 0.0
H1174 H 0.72357 0.89637 0.0911 0.0
H1175 H 0.7442 0.90096 0.05444 0.0
H1176 H 0.78956 0.84551 0.06599 0.0
H1177 H 0.76856 0.84048 0.10234 0.0
H1178 H 0.82307 0.88567 0.04289 0.0
H1179 H 0.73085 0.83143 0.04156 0.0
H1180 H 0.67816 0.81941 0.04882 0.0
H1181 H 0.66036 0.87495 0.01003 0.0
H1182 H 0.71305 0.8875 0.00282 0.0
H1183 H 0.85398 0.85193 0.93635 0.0
H1184 H 0.83985 0.85395 0.97434 0.0
H1185 H 0.77515 0.8934 0.95617 0.0
H1186 H 0.78831 0.89056 0.91823 0.0
H1187 H 0.75194 0.86351 0.98335 0.0
H1188 H 0.8424 0.91715 0.98224 0.0
H1189 H 0.89484 0.93108 0.97529 0.0
H1190 H 0.91626 0.88022 0.01838 0.0
H1191 H 0.86389 0.86578 0.02538 0.0
C1192 C 0.73836 0.88545 0.08594 0.0
C1193 C 0.74435 0.86799 0.0995 0.0
C1194 C 0.75005 0.88805 0.06502 0.0
C1195 C 0.76829 0.87349 0.05754 0.0
C1196 C 0.77558 0.85692 0.0715 0.0
C1197 C 0.76348 0.85403 0.09221 0.0
C1198 C 0.77785 0.87419 0.03465 0.0
C1199 C 0.80765 0.88071 0.02982 0.0
C1200 C 0.75756 0.86818 0.01766 0.0
C1201 C 0.72589 0.86056 0.02187 0.0
C1202 C 0.71572 0.8412 0.03475 0.0
C1203 C 0.68586 0.83427 0.03882 0.0
C1204 C 0.66593 0.84645 0.02995 0.0
C1205 C 0.67583 0.86556 0.01693 0.0
C1206 C 0.70568 0.87258 0.01284 0.0
C1207 C 0.83683 0.8611 0.94051 0.0
C1208 C 0.82222 0.87104 0.9243 0.0
C1209 C 0.82888 0.86239 0.96226 0.0
C1210 C 0.80664 0.87411 0.96826 0.0
C1211 C 0.7923 0.88422 0.95204 0.0
C1212 C 0.79989 0.88261 0.93032 0.0
C1213 C 0.79743 0.87512 0.99128 0.0
C1214 C 0.76757 0.86876 0.99624 0.0
C1215 C 0.81769 0.88161 0.00832 0.0
C1216 C 0.8492 0.89025 0.00417 0.0
C1217 C 0.85828 0.90882 0.99011 0.0
C1218 C 0.88799 0.91683 0.98618 0.0
C1219 C 0.90887 0.90651 0.99634 0.0
C1220 C 0.90006 0.88818 0.0105 0.0
C1221 C 0.87037 0.88009 0.01447 0.0
H1222 H 0.93186 0.91273 0.99329 0.0
H1223 H 0.64281 0.84105 0.03311 0.0
H1224 H 0.22675 0.64375 0.91492 0.0
H1225 H 0.24172 0.63994 0.95229 0.0
H1226 H 0.1515 0.61865 0.97112 0.0
H1227 H 0.1363 0.6234 0.93371 0.0
H1228 H 0.1775 0.64588 1.00005 0.0
H1229 H 0.19982 0.57973 0.9662 0.0
H1230 H 0.22052 0.55757 0.93859 0.0
H1231 H 0.30695 0.59335 0.9543 0.0
H1232 H 0.28675 0.61596 0.9818 0.0
H1233 H 0.26683 0.59826 0.09219 0.0
H1234 H 0.24044 0.5928 0.0576 0.0
H1235 H 0.25224 0.666 0.04987 0.0
H1236 H 0.27804 0.67156 0.08421 0.0
H1237 H 0.25786 0.60511 0.01747 0.0
H1238 H 0.19518 0.68066 0.02496 0.0
H1239 H 0.17132 0.6996 0.05338 0.0
H1240 H 0.15918 0.63854 0.09194 0.0
H1241 H 0.18256 0.61911 0.06364 0.0
C1242 C 0.21006 0.63826 0.927 0.0
C1243 C 0.18034 0.63378 0.92135 0.0
C1244 C 0.21868 0.6359 0.94838 0.0
C1245 C 0.19782 0.62846 0.96452 0.0
C1246 C 0.16805 0.62428 0.95897 0.0
C1247 C 0.15937 0.627 0.93758 0.0
C1248 C 0.20724 0.6257 0.98723 0.0
C1249 C 0.19493 0.63684 0.00385 0.0
C1250 C 0.22943 0.61332 0.99241 0.0
C1251 C 0.24172 0.59963 0.976 0.0
C1252 C 0.22322 0.58296 0.96369 0.0
C1253 C 0.23488 0.57031 0.94807 0.0
C1254 C 0.26503 0.57407 0.94468 0.0
C1255 C 0.2836 0.59045 0.95694 0.0
C1256 C 0.27206 0.60317 0.97258 0.0
C1257 C 0.26359 0.61315 0.08316 0.0
C1258 C 0.27447 0.63533 0.09099 0.0
C1259 C 0.24857 0.61001 0.0634 0.0
C1260 C 0.244 0.62899 0.05128 0.0
C1261 C 0.25495 0.65108 0.05911 0.0
C1262 C 0.26988 0.65423 0.07874 0.0
C1263 C 0.22889 0.62605 0.03001 0.0
C1264 C 0.24013 0.61386 0.01369 0.0
C1265 C 0.20524 0.63696 0.0252 0.0
C1266 C 0.19083 0.64848 0.04221 0.0
C1267 C 0.18728 0.67122 0.03945 0.0
C1268 C 0.17387 0.68206 0.05555 0.0
C1269 C 0.16381 0.6703 0.07447 0.0
C1270 C 0.16707 0.64766 0.07731 0.0
C1271 C 0.18044 0.63673 0.06125 0.0
H1272 H 0.15344 0.67873 0.08692 0.0
H1273 H 0.274 0.56426 0.93256 0.0
H1274 H 0.72427 0.13493 0.41428 0.0
H1275 H 0.73864 0.13253 0.45199 0.0
H1276 H 0.64869 0.12576 0.47174 0.0
H1277 H 0.63425 0.12895 0.43392 0.0
H1278 H 0.68081 0.15295 0.49817 0.0
H1279 H 0.68441 0.07907 0.47144 0.0
H1280 H 0.6972 0.05018 0.44656 0.0
H1281 H 0.78831 0.07464 0.45936 0.0
H1282 H 0.77609 0.10391 0.48409 0.0
H1283 H 0.75742 0.10039 0.59495 0.0
H1284 H 0.7309 0.09536 0.56042 0.0
H1285 H 0.75616 0.16778 0.54798 0.0
H1286 H 0.78169 0.17297 0.58242 0.0
H1287 H 0.74757 0.10157 0.52035 0.0
H1288 H 0.70657 0.18823 0.51992 0.0
H1289 H 0.68917 0.21387 0.54607 0.0
H1290 H 0.66388 0.15766 0.58996 0.0
H1291 H 0.68074 0.13162 0.56396 0.0
C1292 C 0.7075 0.13293 0.42663 0.0
C1293 C 0.67809 0.13205 0.42109 0.0
C1294 C 0.71574 0.13138 0.44822 0.0
C1295 C 0.6947 0.12847 0.46476 0.0
C1296 C 0.66532 0.12789 0.45929 0.0
C1297 C 0.65709 0.1297 0.43767 0.0
C1298 C 0.70368 0.12672 0.48772 0.0
C1299 C 0.69527 0.14162 0.50303 0.0
C1300 C 0.72182 0.11143 0.49433 0.0
C1301 C 0.72932 0.09379 0.47953 0.0
C1302 C 0.70718 0.07839 0.46885 0.0
C1303 C 0.71433 0.06193 0.45478 0.0
C1304 C 0.74355 0.0606 0.45135 0.0
C1305 C 0.76568 0.0757 0.46202 0.0
C1306 C 0.75865 0.09221 0.47609 0.0
C1307 C 0.7571 0.11522 0.58488 0.0
C1308 C 0.77149 0.13709 0.59151 0.0
C1309 C 0.74199 0.11233 0.56515 0.0
C1310 C 0.74105 0.13125 0.55172 0.0
C1311 C 0.75583 0.15299 0.55824 0.0
C1312 C 0.77062 0.15591 0.57795 0.0
C1313 C 0.72563 0.12845 0.53052 0.0
C1314 C 0.73282 0.1127 0.51555 0.0
C1315 C 0.70567 0.14248 0.52439 0.0
C1316 C 0.69512 0.158 0.54002 0.0
C1317 C 0.69714 0.18131 0.5351 0.0
C1318 C 0.68741 0.19592 0.54991 0.0
C1319 C 0.67549 0.18741 0.56968 0.0
C1320 C 0.6732 0.16425 0.57466 0.0
C1321 C 0.68288 0.14956 0.5599 0.0
H1322 H 0.66799 0.19876 0.58114 0.0
H1323 H 0.74904 0.04784 0.44045 0.0
H1324 H 0.25707 0.3993 0.59782 0.0
H1325 H 0.28239 0.40324 0.56281 0.0
H1326 H 0.2506 0.33148 0.55009 0.0
H1327 H 0.22656 0.32731 0.58511 0.0
H1328 H 0.303 0.34133 0.53681 0.0
H1329 H 0.21839 0.37634 0.52842 0.0
H1330 H 0.18657 0.40377 0.53696 0.0
H1331 H 0.25712 0.45987 0.52356 0.0
H1332 H 0.28944 0.43273 0.51518 0.0
H1333 H 0.28427 0.36783 0.41531 0.0
H1334 H 0.26986 0.36915 0.4531 0.0
H1335 H 0.35885 0.37051 0.47293 0.0
H1336 H 0.37329 0.36847 0.43497 0.0
H1337 H 0.28277 0.39882 0.48383 0.0
H1338 H 0.35902 0.34396 0.52185 0.0
H1339 H 0.3844 0.31277 0.51171 0.0
H1340 H 0.31968 0.29003 0.46301 0.0
H1341 H 0.29375 0.32089 0.47304 0.0
C1342 C 0.25571 0.38439 0.58757 0.0
C1343 C 0.23977 0.36302 0.59422 0.0
C1344 C 0.27007 0.38665 0.56753 0.0
C1345 C 0.26818 0.3677 0.55362 0.0
C1346 C 0.2526 0.34635 0.56049 0.0
C1347 C 0.23871 0.34401 0.58055 0.0
C1348 C 0.28151 0.36985 0.53163 0.0
C1349 C 0.29874 0.35405 0.5253 0.0
C1350 C 0.27579 0.38622 0.51642 0.0
C1351 C 0.2564 0.40253 0.52143 0.0
C1352 C 0.22715 0.39453 0.52745 0.0
C1353 C 0.20903 0.41002 0.53223 0.0
C1354 C 0.21984 0.43355 0.53087 0.0
C1355 C 0.24879 0.44164 0.52465 0.0
C1356 C 0.26701 0.42621 0.51988 0.0
C1357 C 0.30082 0.36836 0.42769 0.0
C1358 C 0.32991 0.36791 0.42213 0.0
C1359 C 0.29255 0.36925 0.44932 0.0
C1360 C 0.31318 0.36981 0.46594 0.0
C1361 C 0.34241 0.36974 0.46044 0.0
C1362 C 0.35066 0.36862 0.43873 0.0
C1363 C 0.30368 0.36999 0.48892 0.0
C1364 C 0.28737 0.38633 0.49545 0.0
C1365 C 0.30938 0.3536 0.5041 0.0
C1366 C 0.3247 0.33491 0.49802 0.0
C1367 C 0.3502 0.33227 0.50901 0.0
C1368 C 0.36467 0.31465 0.50328 0.0
C1369 C 0.35373 0.29949 0.48667 0.0
C1370 C 0.32821 0.30185 0.47581 0.0
C1371 C 0.31365 0.31941 0.48149 0.0
H1372 H 0.36497 0.28587 0.48225 0.0
H1373 H 0.20578 0.44552 0.53458 0.0
H1374 H 0.02142 0.66233 0.84047 0.0
H1375 H 0.99622 0.69383 0.84767 0.0
H1376 H 0.05363 0.71512 0.90162 0.0
H1377 H 0.07927 0.68369 0.89435 0.0
H1378 H 0.96708 0.71015 0.8797 0.0
H1379 H 0.07314 0.77391 0.89934 0.0
H1380 H 0.12628 0.77837 0.89349 0.0
H1381 H 0.11083 0.73805 0.83556 0.0
H1382 H 0.05765 0.73365 0.8409 0.0
H1383 H 0.92352 0.81691 0.89466 0.0
H1384 H 0.94939 0.78571 0.9025 0.0
H1385 H 0.99607 0.79855 0.84215 0.0
H1386 H 0.97077 0.82982 0.8344 0.0
H1387 H 0.03096 0.78668 0.87216 0.0
H1388 H 0.93322 0.75823 0.84596 0.0
H1389 H 0.87951 0.7533 0.8466 0.0
H1390 H 0.87735 0.72217 0.90938 0.0
H1391 H 0.93112 0.72722 0.90922 0.0
C1392 C 0.02829 0.67335 0.8542 0.0
C1393 C 0.05259 0.67062 0.86668 0.0
C1394 C 0.01379 0.69137 0.85833 0.0
C1395 C 0.02334 0.7071 0.87494 0.0
C1396 C 0.04613 0.70337 0.88852 0.0
C1397 C 0.06065 0.6853 0.88442 0.0
C1398 C 0.01138 0.72849 0.87644 0.0
C1399 C 0.98109 0.7269 0.87839 0.0
C1400 C 0.02955 0.75037 0.87427 0.0
C1401 C 0.06147 0.75322 0.8707 0.0
C1402 C 0.08112 0.76606 0.88533 0.0
C1403 C 0.11123 0.76857 0.8821 0.0
C1404 C 0.12192 0.75842 0.86421 0.0
C1405 C 0.10252 0.74583 0.84945 0.0
C1406 C 0.0724 0.74331 0.85258 0.0
C1407 C 0.93982 0.81345 0.88332 0.0
C1408 C 0.94489 0.82575 0.86381 0.0
C1409 C 0.95446 0.7955 0.88776 0.0
C1410 C 0.97432 0.7895 0.87274 0.0
C1411 C 0.98081 0.80278 0.85398 0.0
C1412 C 0.96624 0.82067 0.84954 0.0
C1413 C 0.98663 0.76838 0.87545 0.0
C1414 C 0.017 0.77 0.87414 0.0
C1415 C 0.96846 0.74649 0.87761 0.0
C1416 C 0.93617 0.74335 0.87769 0.0
C1417 C 0.92129 0.75049 0.85996 0.0
C1418 C 0.89085 0.74765 0.86023 0.0
C1419 C 0.87504 0.73749 0.87805 0.0
C1420 C 0.88964 0.73009 0.89561 0.0
C1421 C 0.92009 0.73293 0.89544 0.0
H1422 H 0.85147 0.7353 0.87823 0.0
H1423 H 0.14524 0.76035 0.86176 0.0
H1424 H 0.07253 0.33911 0.66488 0.0
H1425 H 0.03076 0.30787 0.65951 0.0
H1426 H 0.08085 0.276 0.61424 0.0
H1427 H 0.1223 0.30743 0.61893 0.0
H1428 H 0.02586 0.26761 0.60241 0.0
H1429 H 0.07839 0.26127 0.6676 0.0
H1430 H 0.10125 0.27416 0.70256 0.0
H1431 H 0.01768 0.28055 0.72819 0.0
H1432 H 0.99438 0.26809 0.69323 0.0
H1433 H 0.93654 0.15931 0.66435 0.0
H1434 H 0.98082 0.18812 0.65836 0.0
H1435 H 0.93234 0.22617 0.61741 0.0
H1436 H 0.88862 0.19704 0.62248 0.0
H1437 H 0.99055 0.22903 0.67119 0.0
H1438 H 0.97483 0.26157 0.58369 0.0
H1439 H 0.95693 0.24566 0.54828 0.0
H1440 H 0.97526 0.18026 0.56635 0.0
H1441 H 0.99364 0.19584 0.60175 0.0
C1442 C 0.07442 0.32577 0.65335 0.0
C1443 C 0.10094 0.32559 0.64263 0.0
C1444 C 0.05058 0.30785 0.65039 0.0
C1445 C 0.05301 0.28928 0.63695 0.0
C1446 C 0.07856 0.29005 0.62483 0.0
C1447 C 0.10229 0.30807 0.62758 0.0
C1448 C 0.03014 0.26818 0.63709 0.0
C1449 C 0.01802 0.25917 0.61742 0.0
C1450 C 0.0208 0.25664 0.65662 0.0
C1451 C 0.03469 0.26395 0.67773 0.0
C1452 C 0.06492 0.26557 0.68064 0.0
C1453 C 0.07795 0.27278 0.70046 0.0
C1454 C 0.06094 0.2782 0.71757 0.0
C1455 C 0.03084 0.27637 0.71491 0.0
C1456 C 0.0177 0.26923 0.6951 0.0
C1457 C 0.93554 0.17352 0.65363 0.0
C1458 C 0.90904 0.1759 0.64395 0.0
C1459 C 0.96083 0.19004 0.65028 0.0
C1460 C 0.96003 0.20936 0.63739 0.0
C1461 C 0.93381 0.21125 0.62705 0.0
C1462 C 0.9087 0.19456 0.63006 0.0
C1463 C 0.98559 0.22859 0.63649 0.0
C1464 C 0.99831 0.23732 0.65609 0.0
C1465 C 0.99615 0.23932 0.61682 0.0
C1466 C 0.98539 0.22985 0.59546 0.0
C1467 C 0.97517 0.24382 0.58008 0.0
C1468 C 0.96491 0.23485 0.56001 0.0
C1469 C 0.96488 0.21195 0.55509 0.0
C1470 C 0.97519 0.19798 0.57021 0.0
C1471 C 0.9855 0.20686 0.5903 0.0
H1472 H 0.95691 0.20503 0.53956 0.0
H1473 H 0.07107 0.28377 0.7329 0.0
H1474 H 0.58173 0.18225 0.39635 0.0
H1475 H 0.55754 0.21396 0.40576 0.0
H1476 H 0.49872 0.19672 0.35185 0.0
H1477 H 0.52239 0.16495 0.34259 0.0
H1478 H 0.55703 0.25051 0.38183 0.0
H1479 H 0.43548 0.21365 0.36002 0.0
H1480 H 0.4001 0.1773 0.36353 0.0
H1481 H 0.44855 0.15795 0.41715 0.0
H1482 H 0.484 0.19431 0.41417 0.0
H1483 H 0.48127 0.33134 0.33881 0.0
H1484 H 0.50546 0.30004 0.3486 0.0
H1485 H 0.45207 0.28714 0.40591 0.0
H1486 H 0.42726 0.31836 0.39595 0.0
H1487 H 0.45041 0.24882 0.38455 0.0
H1488 H 0.52667 0.30749 0.40948 0.0
H1489 H 0.5623 0.34389 0.40833 0.0
H1490 H 0.60473 0.31982 0.3538 0.0
H1491 H 0.56912 0.2834 0.35441 0.0
C1492 C 0.56312 0.18482 0.38687 0.0
C1493 C 0.55404 0.17108 0.36868 0.0
C1494 C 0.54943 0.20307 0.39219 0.0
C1495 C 0.52625 0.20776 0.37956 0.0
C1496 C 0.51624 0.19331 0.36207 0.0
C1497 C 0.5299 0.17513 0.35674 0.0
C1498 C 0.51433 0.22893 0.38314 0.0
C1499 C 0.53372 0.25013 0.38266 0.0
C1500 C 0.48396 0.22851 0.38471 0.0
C1501 C 0.46251 0.20668 0.38678 0.0
C1502 C 0.4385 0.20171 0.37264 0.0
C1503 C 0.41845 0.18108 0.37452 0.0
C1504 C 0.42211 0.16531 0.39052 0.0
C1505 C 0.44579 0.17015 0.40472 0.0
C1506 C 0.4659 0.19076 0.40292 0.0
C1507 C 0.47506 0.32222 0.35376 0.0
C1508 C 0.45224 0.32735 0.36656 0.0
C1509 C 0.48903 0.30431 0.3594 0.0
C1510 C 0.48073 0.29122 0.37807 0.0
C1511 C 0.45886 0.29697 0.39143 0.0
C1512 C 0.44482 0.31493 0.38578 0.0
C1513 C 0.49306 0.27037 0.38235 0.0
C1514 C 0.47374 0.24922 0.38419 0.0
C1515 C 0.52352 0.27085 0.38237 0.0
C1516 C 0.5451 0.29273 0.38194 0.0
C1517 C 0.54348 0.31001 0.39715 0.0
C1518 C 0.5637 0.33065 0.39661 0.0
C1519 C 0.58574 0.33418 0.38099 0.0
C1520 C 0.58765 0.31706 0.3659 0.0
C1521 C 0.56748 0.2964 0.36636 0.0
H1522 H 0.60137 0.35017 0.38059 0.0
H1523 H 0.40657 0.14934 0.39194 0.0
H1524 H 0.58856 0.58876 0.71587 0.0
H1525 H 0.5963 0.55403 0.73411 0.0
H1526 H 0.63507 0.53279 0.67621 0.0
H1527 H 0.62822 0.56801 0.65787 0.0
H1528 H 0.5846 0.4987 0.70636 0.0
H1529 H 0.68261 0.54712 0.702 0.0
H1530 H 0.71631 0.58419 0.70649 0.0
H1531 H 0.6927 0.58564 0.77354 0.0
H1532 H 0.65847 0.54872 0.76932 0.0
H1533 H 0.64186 0.40721 0.74931 0.0
H1534 H 0.63408 0.44027 0.72849 0.0
H1535 H 0.64501 0.48149 0.78644 0.0
H1536 H 0.65431 0.44854 0.8072 0.0
H1537 H 0.67005 0.50603 0.75549 0.0
H1538 H 0.57563 0.45892 0.76281 0.0
H1539 H 0.53802 0.42367 0.76091 0.0
H1540 H 0.54928 0.42115 0.69207 0.0
H1541 H 0.58726 0.45624 0.6936 0.0
C1542 C 0.59835 0.57659 0.70685 0.0
C1543 C 0.6078 0.58115 0.6854 0.0
C1544 C 0.60284 0.5568 0.71735 0.0
C1545 C 0.61639 0.54102 0.70652 0.0
C1546 C 0.62462 0.54488 0.6848 0.0
C1547 C 0.62066 0.56495 0.67437 0.0
C1548 C 0.623 0.52106 0.71837 0.0
C1549 C 0.60354 0.50007 0.71681 0.0
C1550 C 0.64699 0.5233 0.73267 0.0
C1551 C 0.66775 0.54533 0.73527 0.0
C1552 C 0.68437 0.55547 0.71763 0.0
C1553 C 0.70362 0.57642 0.72015 0.0
C1554 C 0.70658 0.5873 0.74027 0.0
C1555 C 0.69035 0.57721 0.75795 0.0
C1556 C 0.67104 0.55627 0.75551 0.0
C1557 C 0.64265 0.42333 0.75763 0.0
C1558 C 0.64848 0.42525 0.77993 0.0
C1559 C 0.63801 0.44222 0.74572 0.0
C1560 C 0.63821 0.46333 0.75592 0.0
C1561 C 0.64459 0.4654 0.77816 0.0
C1562 C 0.64985 0.44656 0.79004 0.0
C1563 C 0.63186 0.48317 0.74333 0.0
C1564 C 0.65121 0.50434 0.74491 0.0
C1565 C 0.60734 0.48118 0.72936 0.0
C1566 C 0.5845 0.46008 0.72836 0.0
C1567 C 0.57024 0.45076 0.74729 0.0
C1568 C 0.54884 0.43082 0.74627 0.0
C1569 C 0.54132 0.42014 0.72639 0.0
C1570 C 0.55515 0.42942 0.70747 0.0
C1571 C 0.5766 0.44934 0.7084 0.0
H1572 H 0.52474 0.40471 0.72563 0.0
H1573 H 0.7215 0.60351 0.74219 0.0
H1574 H 0.3141 0.04958 0.79779 0.0
H1575 H 0.321 0.01757 0.77473 0.0
H1576 H 0.3859 0.06319 0.73769 0.0
H1577 H 0.37834 0.09523 0.7601 0.0
H1578 H 0.35352 0.03647 0.71122 0.0
H1579 H 0.40388 0.02497 0.7766 0.0
H1580 H 0.40964 0.02004 0.81587 0.0
H1581 H 0.34244 0.95961 0.81475 0.0
H1582 H 0.33603 0.96434 0.7755 0.0
H1583 H 0.41493 0.92298 0.69512 0.0
H1584 H 0.41161 0.95801 0.71468 0.0
H1585 H 0.33154 0.96149 0.68103 0.0
H1586 H 0.33537 0.92689 0.66085 0.0
H1587 H 0.37355 0.96443 0.7426 0.0
H1588 H 0.31967 0.01566 0.67971 0.0
H1589 H 0.32019 0.02236 0.64032 0.0
H1590 H 0.406 0.00659 0.63609 0.0
H1591 H 0.40616 1.00009 0.67548 0.0
C1592 C 0.32987 0.05274 0.78475 0.0
C1593 C 0.34571 0.07492 0.78081 0.0
C1594 C 0.33388 0.03442 0.77161 0.0
C1595 C 0.35423 0.03787 0.75456 0.0
C1596 C 0.37 0.06005 0.75065 0.0
C1597 C 0.36573 0.07836 0.76356 0.0
C1598 C 0.35919 0.0185 0.74071 0.0
C1599 C 0.35789 0.02071 0.7181 0.0
C1600 C 0.36546 0.99806 0.74957 0.0
C1601 C 0.36928 0.99514 0.77316 0.0
C1602 C 0.39019 0.01072 0.78476 0.0
C1603 C 0.3936 0.00795 0.80701 0.0
C1604 C 0.37637 0.98956 0.81781 0.0
C1605 C 0.35575 0.97387 0.80637 0.0
C1606 C 0.35223 0.97657 0.78412 0.0
C1607 C 0.39695 0.93149 0.69154 0.0
C1608 C 0.37544 0.92219 0.6764 0.0
C1609 C 0.39497 0.95145 0.70285 0.0
C1610 C 0.37132 0.96247 0.69941 0.0
C1611 C 0.35027 0.95359 0.68378 0.0
C1612 C 0.35247 0.93377 0.67223 0.0
C1613 C 0.36784 0.98236 0.7131 0.0
C1614 C 0.36924 0.98019 0.73569 0.0
C1615 C 0.36254 0.00309 0.7042 0.0
C1616 C 0.36278 0.00717 0.68052 0.0
C1617 C 0.33869 0.01371 0.67038 0.0
C1618 C 0.33886 0.01745 0.64805 0.0
C1619 C 0.36307 0.01483 0.6357 0.0
C1620 C 0.38721 0.00853 0.64566 0.0
C1621 C 0.38716 0.00478 0.66798 0.0
H1622 H 0.36315 0.01773 0.61841 0.0
H1623 H 0.37904 0.98744 0.83503 0.0
H1624 H 0.38251 0.19071 0.87714 0.0
H1625 H 0.4239 0.2225 0.88021 0.0
H1626 H 0.46759 0.19419 0.82833 0.0
H1627 H 0.42588 0.16258 0.82472 0.0
H1628 H 0.4801 0.22966 0.88815 0.0
H1629 H 0.49976 0.23637 0.79527 0.0
H1630 H 0.47166 0.22737 0.76152 0.0
H1631 H 0.39257 0.2326 0.79495 0.0
H1632 H 0.42023 0.24194 0.82882 0.0
H1633 H 0.61565 0.30051 0.86539 0.0
H1634 H 0.57223 0.27093 0.86978 0.0
H1635 H 0.52115 0.31288 0.83575 0.0
H1636 H 0.56517 0.34216 0.83024 0.0
H1637 H 0.50807 0.27326 0.82053 0.0
H1638 H 0.51454 0.30089 0.89267 0.0
H1639 H 0.53765 0.31332 0.92765 0.0
H1640 H 0.55578 0.24615 0.93808 0.0
H1641 H 0.53313 0.23339 0.90302 0.0
C1642 C 0.40111 0.19098 0.8666 0.0
C1643 C 0.40067 0.17425 0.85044 0.0
C1644 C 0.42479 0.2092 0.86841 0.0
C1645 C 0.44852 0.211 0.85418 0.0
C1646 C 0.44917 0.19341 0.83916 0.0
C1647 C 0.42538 0.17526 0.8372 0.0
C1648 C 0.47158 0.23198 0.85408 0.0
C1649 C 0.4863 0.23921 0.87339 0.0
C1650 C 0.47883 0.24496 0.835 0.0
C1651 C 0.46206 0.23962 0.81462 0.0
C1652 C 0.4764 0.23568 0.79539 0.0
C1653 C 0.46054 0.23051 0.77625 0.0
C1654 C 0.43034 0.22934 0.77611 0.0
C1655 C 0.41594 0.23343 0.7951 0.0
C1656 C 0.4317 0.23864 0.81428 0.0
C1657 C 0.5951 0.30365 0.85914 0.0
C1658 C 0.59383 0.32369 0.84745 0.0
C1659 C 0.57017 0.28671 0.86178 0.0
C1660 C 0.54321 0.2897 0.85335 0.0
C1661 C 0.54169 0.31012 0.84237 0.0
C1662 C 0.56681 0.32689 0.8393 0.0
C1663 C 0.51729 0.27078 0.85454 0.0
C1664 C 0.50193 0.26387 0.83538 0.0
C1665 C 0.50875 0.25866 0.87397 0.0
C1666 C 0.52231 0.26623 0.89513 0.0
C1667 C 0.52362 0.2888 0.90235 0.0
C1668 C 0.53662 0.29591 0.92221 0.0
C1669 C 0.54822 0.28055 0.93506 0.0
C1670 C 0.54679 0.25804 0.92811 0.0
C1671 C 0.53384 0.25085 0.90826 0.0
H1672 H 0.55828 0.28608 0.95043 0.0
H1673 H 0.4181 0.22531 0.76128 0.0
H1674 H 0.36907 0.59898 0.24619 0.0
H1675 H 0.37694 0.5666 0.26795 0.0
H1676 H 0.34725 0.52079 0.215 0.0
H1677 H 0.33839 0.55323 0.19327 0.0
H1678 H 0.32563 0.50209 0.25081 0.0
H1679 H 0.42133 0.53729 0.22818 0.0
H1680 H 0.46343 0.5688 0.22252 0.0
H1681 H 0.47087 0.57983 0.2911 0.0
H1682 H 0.42855 0.54859 0.29716 0.0
H1683 H 0.42319 0.42712 0.3066 0.0
H1684 H 0.41957 0.45999 0.28371 0.0
H1685 H 0.34278 0.46941 0.31867 0.0
H1686 H 0.34587 0.43639 0.34129 0.0
H1687 H 0.41991 0.5043 0.2887 0.0
H1688 H 0.29326 0.48353 0.28406 0.0
H1689 H 0.25318 0.44989 0.28649 0.0
H1690 H 0.31138 0.4062 0.26622 0.0
H1691 H 0.35167 0.4396 0.26337 0.0
C1692 C 0.36419 0.58202 0.23912 0.0
C1693 C 0.35323 0.57869 0.21793 0.0
C1694 C 0.36888 0.5635 0.25158 0.0
C1695 C 0.36327 0.54125 0.24302 0.0
C1696 C 0.35188 0.5378 0.22195 0.0
C1697 C 0.34685 0.55635 0.20953 0.0
C1698 C 0.36892 0.52164 0.25622 0.0
C1699 C 0.34628 0.5026 0.25904 0.0
C1700 C 0.39607 0.52197 0.26667 0.0
C1701 C 0.42162 0.54071 0.2631 0.0
C1702 C 0.43182 0.54654 0.24205 0.0
C1703 C 0.45574 0.56434 0.23877 0.0
C1704 C 0.46978 0.57634 0.25644 0.0
C1705 C 0.45996 0.57053 0.27743 0.0
C1706 C 0.43603 0.55276 0.28079 0.0
C1707 C 0.40581 0.43641 0.30967 0.0
C1708 C 0.38464 0.42894 0.32564 0.0
C1709 C 0.40375 0.45519 0.29653 0.0
C1710 C 0.38052 0.46685 0.29914 0.0
C1711 C 0.36049 0.46035 0.316 0.0
C1712 C 0.36241 0.44152 0.32902 0.0
C1713 C 0.37638 0.48511 0.28368 0.0
C1714 C 0.3993 0.50384 0.28043 0.0
C1715 C 0.34977 0.48422 0.27237 0.0
C1716 C 0.32554 0.46406 0.27371 0.0
C1717 C 0.29746 0.46676 0.28003 0.0
C1718 C 0.27471 0.44773 0.2815 0.0
C1719 C 0.27975 0.42591 0.27658 0.0
C1720 C 0.30752 0.42309 0.2701 0.0
C1721 C 0.33033 0.44206 0.26858 0.0
H1722 H 0.26213 0.4112 0.27775 0.0
H1723 H 0.48829 0.59012 0.25387 0.0
H1724 H 0.57873 0.0682 0.31279 0.0
H1725 H 0.57946 0.03383 0.29119 0.0
H1726 H 0.66563 0.03161 0.31524 0.0
H1727 H 0.66494 0.06559 0.33703 0.0
H1728 H 0.6151 0.02831 0.25867 0.0
H1729 H 0.67601 0.97718 0.31708 0.0
H1730 H 0.67979 0.97051 0.35627 0.0
H1731 H 0.59455 0.98594 0.366 0.0
H1732 H 0.59009 0.9924 0.32685 0.0
H1733 H 0.67929 0.94626 0.2015 0.0
H1734 H 0.66966 0.97756 0.22445 0.0
H1735 H 0.60585 0.9298 0.26034 0.0
H1736 H 0.61567 0.89855 0.23782 0.0
H1737 H 0.63983 0.95657 0.28727 0.0
H1738 H 0.5853 0.96752 0.22395 0.0
H1739 H 0.57721 0.97289 0.18503 0.0
H1740 H 0.64137 0.03516 0.18562 0.0
H1741 H 0.65013 0.03 0.2245 0.0
C1742 C 0.59762 0.06016 0.31379 0.0
C1743 C 0.62177 0.06969 0.32668 0.0
C1744 C 0.59808 0.0406 0.30131 0.0
C1745 C 0.62256 0.03008 0.30161 0.0
C1746 C 0.64633 0.03921 0.31492 0.0
C1747 C 0.64591 0.05872 0.32737 0.0
C1748 C 0.62398 0.01022 0.28733 0.0
C1749 C 0.6204 0.01258 0.26493 0.0
C1750 C 0.63051 0.98957 0.29548 0.0
C1751 C 0.63285 0.98547 0.31904 0.0
C1752 C 0.65802 0.97905 0.32757 0.0
C1753 C 0.66029 0.97533 0.34978 0.0
C1754 C 0.63746 0.97787 0.36362 0.0
C1755 C 0.61227 0.98406 0.35527 0.0
C1756 C 0.60988 0.98779 0.33308 0.0
C1757 C 0.66308 0.94248 0.21418 0.0
C1758 C 0.64829 0.9199 0.21783 0.0
C1759 C 0.65751 0.96039 0.22726 0.0
C1760 C 0.63688 0.95607 0.24408 0.0
C1761 C 0.62192 0.93357 0.24754 0.0
C1762 C 0.62752 0.91571 0.23457 0.0
C1763 C 0.63145 0.97479 0.25855 0.0
C1764 C 0.6344 0.97224 0.28099 0.0
C1765 C 0.62379 0.99508 0.25046 0.0
C1766 C 0.61855 0.99826 0.2271 0.0
C1767 C 0.59784 0.98227 0.21575 0.0
C1768 C 0.59311 0.98529 0.1937 0.0
C1769 C 0.60882 0.00433 0.18285 0.0
C1770 C 0.62924 0.02041 0.19404 0.0
C1771 C 0.63408 0.01746 0.21609 0.0
H1772 H 0.60512 0.00664 0.16578 0.0
H1773 H 0.63928 0.97499 0.38081 0.0
H1774 H 0.6333 0.79327 0.1353 0.0
H1775 H 0.5902 0.76351 0.12975 0.0
H1776 H 0.53512 0.81021 0.14987 0.0
H1777 H 0.57843 0.83978 0.15647 0.0
H1778 H 0.51955 0.77311 0.17026 0.0
H1779 H 0.53832 0.79004 0.09565 0.0
H1780 H 0.56771 0.79675 0.06229 0.0
H1781 H 0.5836 0.72815 0.06505 0.0
H1782 H 0.55465 0.72112 0.09859 0.0
H1783 H 0.39678 0.68755 0.11671 0.0
H1784 H 0.44048 0.7171 0.11186 0.0
H1785 H 0.47865 0.69314 0.16883 0.0
H1786 H 0.43493 0.66372 0.17403 0.0
H1787 H 0.49944 0.72068 0.10734 0.0
H1788 H 0.50696 0.73949 0.19939 0.0
H1789 H 0.47464 0.73513 0.23133 0.0
H1790 H 0.40073 0.73722 0.19055 0.0
H1791 H 0.43265 0.74203 0.15844 0.0
C1792 C 0.61199 0.79737 0.13815 0.0
C1793 C 0.60925 0.81886 0.1464 0.0
C1794 C 0.58729 0.78033 0.13486 0.0
C1795 C 0.5593 0.78461 0.13922 0.0
C1796 C 0.55648 0.80645 0.14647 0.0
C1797 C 0.58122 0.82337 0.15017 0.0
C1798 C 0.53332 0.76577 0.13815 0.0
C1799 C 0.51516 0.76178 0.15641 0.0
C1800 C 0.52726 0.75102 0.12003 0.0
C1801 C 0.54447 0.75512 0.09973 0.0
C1802 C 0.54823 0.77643 0.08922 0.0
C1803 C 0.56479 0.78028 0.07026 0.0
C1804 C 0.57756 0.7629 0.06158 0.0
C1805 C 0.57371 0.7416 0.0718 0.0
C1806 C 0.55719 0.73766 0.09077 0.0
C1807 C 0.41469 0.68822 0.12797 0.0
C1808 C 0.41212 0.6735 0.14599 0.0
C1809 C 0.4397 0.70511 0.12512 0.0
C1810 C 0.46249 0.70758 0.14023 0.0
C1811 C 0.46103 0.69173 0.1572 0.0
C1812 C 0.43604 0.67488 0.1601 0.0
C1813 C 0.48633 0.72798 0.13956 0.0
C1814 C 0.50396 0.73218 0.12106 0.0
C1815 C 0.49151 0.74334 0.15722 0.0
C1816 C 0.47218 0.74086 0.1765 0.0
C1817 C 0.48384 0.73913 0.19726 0.0
C1818 C 0.46558 0.73658 0.21539 0.0
C1819 C 0.43564 0.73583 0.21296 0.0
C1820 C 0.42391 0.73774 0.19241 0.0
C1821 C 0.44207 0.74037 0.17423 0.0
H1822 H 0.42154 0.73382 0.22701 0.0
H1823 H 0.59039 0.76592 0.04692 0.0
loop_
_geom_bond_atom_site_label_1
_geom_bond_atom_site_label_2
_geom_bond_distance
_geom_bond_site_symmetry_2
_ccdc_geom_bond_type
O0 Cd1 2.223 . S
O0 C8 1.315 . S
Cd1 O0 2.223 . S
Cd1 O4 2.297 . S
Cd1 O5 2.439 . S
Cd1 O11 2.240 . S
Cd2 O3 2.240 . S
Cd2 O10 2.223 . S
Cd2 O12 2.297 . S
Cd2 O13 2.439 . S
O3 Cd2 2.240 . S
O3 C8 1.279 . S
O4 Cd1 2.297 . S
O4 C6 1.247 . S
O5 Cd1 2.439 . S
O5 C6 1.208 . S
C6 O4 1.247 . S
C6 O5 1.208 . S
C7 O12 1.247 . S
C7 O13 1.208 . S
C8 O0 1.315 . S
C8 O3 1.279 . S
C9 O10 1.315 . S
C9 O11 1.279 . S
O10 Cd2 2.223 . S
O10 C9 1.315 . S
O11 Cd1 2.240 . S
O11 C9 1.279 . S
O12 Cd2 2.297 . S
O12 C7 1.247 . S
O13 Cd2 2.439 . S
O13 C7 1.208 . S
O14 Cd15 2.223 . S
O14 C22 1.315 . S
Cd15 O14 2.223 . S
Cd15 O18 2.297 . S
Cd15 O19 2.439 . S
Cd15 O25 2.240 . S
Cd16 O17 2.240 . S
Cd16 O24 2.223 . S
Cd16 O26 2.297 . S
Cd16 O27 2.439 . S
O17 Cd16 2.240 . S
O17 C22 1.279 . S
O18 Cd15 2.297 . S
O18 C20 1.247 . S
O19 Cd15 2.439 . S
O19 C20 1.208 . S
C20 O18 1.247 . S
C20 O19 1.208 . S
C21 O26 1.247 . S
C21 O27 1.208 . S
C22 O14 1.315 . S
C22 O17 1.279 . S
C23 O24 1.315 . S
C23 O25 1.279 . S
O24 Cd16 2.223 . S
O24 C23 1.315 . S
O25 Cd15 2.240 . S
O25 C23 1.279 . S
O26 Cd16 2.297 . S
O26 C21 1.247 . S
O27 Cd16 2.439 . S
O27 C21 1.208 . S
O28 Cd29 2.223 . S
O28 C36 1.315 . S
Cd29 O28 2.223 . S
Cd29 O32 2.297 . S
Cd29 O33 2.439 . S
Cd29 O39 2.240 . S
Cd30 O31 2.240 . S
Cd30 O38 2.223 . S
Cd30 O40 2.297 . S
Cd30 O41 2.439 . S
O31 Cd30 2.240 . S
O31 C36 1.279 . S
O32 Cd29 2.297 . S
O32 C34 1.247 . S
O33 Cd29 2.439 . S
O33 C34 1.208 . S
C34 O32 1.247 . S
C34 O33 1.208 . S
C35 O40 1.247 . S
C35 O41 1.208 . S
C36 O28 1.315 . S
C36 O31 1.279 . S
C37 O38 1.315 . S
C37 O39 1.279 . S
O38 Cd30 2.223 . S
O38 C37 1.315 . S
O39 Cd29 2.240 . S
O39 C37 1.279 . S
O40 Cd30 2.297 . S
O40 C35 1.247 . S
O41 Cd30 2.439 . S
O41 C35 1.208 . S
O42 Cd43 2.223 . S
O42 C50 1.315 . S
Cd43 O42 2.223 . S
Cd43 O46 2.297 . S
Cd43 O47 2.439 . S
Cd43 O53 2.240 . S
Cd44 O45 2.240 . S
Cd44 O52 2.223 . S
Cd44 O54 2.297 . S
Cd44 O55 2.439 . S
O45 Cd44 2.240 . S
O45 C50 1.279 . S
O46 Cd43 2.297 . S
O46 C48 1.247 . S
O47 Cd43 2.439 . S
O47 C48 1.208 . S
C48 O46 1.247 . S
C48 O47 1.208 . S
C49 O54 1.247 . S
C49 O55 1.208 . S
C50 O42 1.315 . S
C50 O45 1.279 . S
C51 O52 1.315 . S
C51 O53 1.279 . S
O52 Cd44 2.223 . S
O52 C51 1.315 . S
O53 Cd43 2.240 . S
O53 C51 1.279 . S
O54 Cd44 2.297 . S
O54 C49 1.247 . S
O55 Cd44 2.439 . S
O55 C49 1.208 . S
O56 Cd57 2.223 . S
O56 C64 1.315 . S
Cd57 O56 2.223 . S
Cd57 O60 2.297 . S
Cd57 O61 2.439 . S
Cd57 O67 2.240 . S
Cd58 O59 2.240 . S
Cd58 O66 2.223 . S
Cd58 O68 2.297 . S
Cd58 O69 2.439 . S
O59 Cd58 2.240 . S
O59 C64 1.279 . S
O60 Cd57 2.297 . S
O60 C62 1.247 . S
O61 Cd57 2.439 . S
O61 C62 1.208 . S
C62 O60 1.247 . S
C62 O61 1.208 . S
C63 O68 1.247 . S
C63 O69 1.208 . S
C64 O56 1.315 . S
C64 O59 1.279 . S
C65 O66 1.315 . S
C65 O67 1.279 . S
O66 Cd58 2.223 . S
O66 C65 1.315 . S
O67 Cd57 2.240 . S
O67 C65 1.279 . S
O68 Cd58 2.297 . S
O68 C63 1.247 . S
O69 Cd58 2.439 . S
O69 C63 1.208 . S
O70 Cd71 2.223 . S
O70 C78 1.315 . S
Cd71 O70 2.223 . S
Cd71 O74 2.297 . S
Cd71 O75 2.439 . S
Cd71 O81 2.240 . S
Cd72 O73 2.240 . S
Cd72 O80 2.223 . S
Cd72 O82 2.297 . S
Cd72 O83 2.439 . S
O73 Cd72 2.240 . S
O73 C78 1.279 . S
O74 Cd71 2.297 . S
O74 C76 1.247 . S
O75 Cd71 2.439 . S
O75 C76 1.208 . S
C76 O74 1.247 . S
C76 O75 1.208 . S
C77 O82 1.247 . S
C77 O83 1.208 . S
C78 O70 1.315 . S
C78 O73 1.279 . S
C79 O80 1.315 . S
C79 O81 1.279 . S
O80 Cd72 2.223 . S
O80 C79 1.315 . S
O81 Cd71 2.240 . S
O81 C79 1.279 . S
O82 Cd72 2.297 . S
O82 C77 1.247 . S
O83 Cd72 2.439 . S
O83 C77 1.208 . S
O84 Cd85 2.223 . S
O84 C92 1.315 . S
Cd85 O84 2.223 . S
Cd85 O88 2.297 . S
Cd85 O89 2.439 . S
Cd85 O95 2.240 . S
Cd86 O87 2.240 . S
Cd86 O94 2.223 . S
Cd86 O96 2.297 . S
Cd86 O97 2.439 . S
O87 Cd86 2.240 . S
O87 C92 1.279 . S
O88 Cd85 2.297 . S
O88 C90 1.247 . S
O89 Cd85 2.439 . S
O89 C90 1.208 . S
C90 O88 1.247 . S
C90 O89 1.208 . S
C91 O96 1.247 . S
C91 O97 1.208 . S
C92 O84 1.315 . S
C92 O87 1.279 . S
C93 O94 1.315 . S
C93 O95 1.279 . S
O94 Cd86 2.223 . S
O94 C93 1.315 . S
O95 Cd85 2.240 . S
O95 C93 1.279 . S
O96 Cd86 2.297 . S
O96 C91 1.247 . S
O97 Cd86 2.439 . S
O97 C91 1.208 . S
O98 Cd99 2.223 . S
O98 C106 1.315 . S
Cd99 O98 2.223 . S
Cd99 O102 2.297 . S
Cd99 O103 2.439 . S
Cd99 O109 2.240 . S
Cd100 O101 2.240 . S
Cd100 O108 2.223 . S
Cd100 O110 2.297 . S
Cd100 O111 2.439 . S
O101 Cd100 2.240 . S
O101 C106 1.279 . S
O102 Cd99 2.297 . S
O102 C104 1.247 . S
O103 Cd99 2.439 . S
O103 C104 1.208 . S
C104 O102 1.247 . S
C104 O103 1.208 . S
C105 O110 1.247 . S
C105 O111 1.208 . S
C106 O98 1.315 . S
C106 O101 1.279 . S
C107 O108 1.315 . S
C107 O109 1.279 . S
O108 Cd100 2.223 . S
O108 C107 1.315 . S
O109 Cd99 2.240 . S
O109 C107 1.279 . S
O110 Cd100 2.297 . S
O110 C105 1.247 . S
O111 Cd100 2.439 . S
O111 C105 1.208 . S
O112 Cd113 2.223 . S
O112 C120 1.315 . S
Cd113 O112 2.223 . S
Cd113 O116 2.297 . S
Cd113 O117 2.439 . S
Cd113 O123 2.240 . S
Cd114 O115 2.240 . S
Cd114 O122 2.223 . S
Cd114 O124 2.297 . S
Cd114 O125 2.439 . S
O115 Cd114 2.240 . S
O115 C120 1.279 . S
O116 Cd113 2.297 . S
O116 C118 1.247 . S
O117 Cd113 2.439 . S
O117 C118 1.208 . S
C118 O116 1.247 . S
C118 O117 1.208 . S
C119 O124 1.247 . S
C119 O125 1.208 . S
C120 O112 1.315 . S
C120 O115 1.279 . S
C121 O122 1.315 . S
C121 O123 1.279 . S
O122 Cd114 2.223 . S
O122 C121 1.315 . S
O123 Cd113 2.240 . S
O123 C121 1.279 . S
O124 Cd114 2.297 . S
O124 C119 1.247 . S
O125 Cd114 2.439 . S
O125 C119 1.208 . S
O126 Cd127 2.223 . S
O126 C134 1.315 . S
Cd127 O126 2.223 . S
Cd127 O130 2.297 . S
Cd127 O131 2.439 . S
Cd127 O137 2.240 . S
Cd128 O129 2.240 . S
Cd128 O136 2.223 . S
Cd128 O138 2.297 . S
Cd128 O139 2.439 . S
O129 Cd128 2.240 . S
O129 C134 1.279 . S
O130 Cd127 2.297 . S
O130 C132 1.247 . S
O131 Cd127 2.439 . S
O131 C132 1.208 . S
C132 O130 1.247 . S
C132 O131 1.208 . S
C133 O138 1.247 . S
C133 O139 1.208 . S
C134 O126 1.315 . S
C134 O129 1.279 . S
C135 O136 1.315 . S
C135 O137 1.279 . S
O136 Cd128 2.223 . S
O136 C135 1.315 . S
O137 Cd127 2.240 . S
O137 C135 1.279 . S
O138 Cd128 2.297 . S
O138 C133 1.247 . S
O139 Cd128 2.439 . S
O139 C133 1.208 . S
O140 Cd141 2.223 . S
O140 C148 1.315 . S
Cd141 O140 2.223 . S
Cd141 O144 2.297 . S
Cd141 O145 2.439 . S
Cd141 O151 2.240 . S
Cd142 O143 2.240 . S
Cd142 O150 2.223 . S
Cd142 O152 2.297 . S
Cd142 O153 2.439 . S
O143 Cd142 2.240 . S
O143 C148 1.279 . S
O144 Cd141 2.297 . S
O144 C146 1.247 . S
O145 Cd141 2.439 . S
O145 C146 1.208 . S
C146 O144 1.247 . S
C146 O145 1.208 . S
C147 O152 1.247 . S
C147 O153 1.208 . S
C148 O140 1.315 . S
C148 O143 1.279 . S
C149 O150 1.315 . S
C149 O151 1.279 . S
O150 Cd142 2.223 . S
O150 C149 1.315 . S
O151 Cd141 2.240 . S
O151 C149 1.279 . S
O152 Cd142 2.297 . S
O152 C147 1.247 . S
O153 Cd142 2.439 . S
O153 C147 1.208 . S
O154 Cd155 2.223 . S
O154 C162 1.315 . S
Cd155 O154 2.223 . S
Cd155 O158 2.297 . S
Cd155 O159 2.439 . S
Cd155 O165 2.240 . S
Cd156 O157 2.240 . S
Cd156 O164 2.223 . S
Cd156 O166 2.297 . S
Cd156 O167 2.439 . S
O157 Cd156 2.240 . S
O157 C162 1.279 . S
O158 Cd155 2.297 . S
O158 C160 1.247 . S
O159 Cd155 2.439 . S
O159 C160 1.208 . S
C160 O158 1.247 . S
C160 O159 1.208 . S
C161 O166 1.247 . S
C161 O167 1.208 . S
C162 O154 1.315 . S
C162 O157 1.279 . S
C163 O164 1.315 . S
C163 O165 1.279 . S
O164 Cd156 2.223 . S
O164 C163 1.315 . S
O165 Cd155 2.240 . S
O165 C163 1.279 . S
O166 Cd156 2.297 . S
O166 C161 1.247 . S
O167 Cd156 2.439 . S
O167 C161 1.208 . S
O168 Cd169 2.223 . S
O168 C176 1.315 . S
Cd169 O168 2.223 . S
Cd169 O172 2.297 . S
Cd169 O173 2.439 . S
Cd169 O179 2.240 . S
Cd170 O171 2.240 . S
Cd170 O178 2.223 . S
Cd170 O180 2.297 . S
Cd170 O181 2.439 . S
O171 Cd170 2.240 . S
O171 C176 1.279 . S
O172 Cd169 2.297 . S
O172 C174 1.247 . S
O173 Cd169 2.439 . S
O173 C174 1.208 . S
C174 O172 1.247 . S
C174 O173 1.208 . S
C175 O180 1.247 . S
C175 O181 1.208 . S
C176 O168 1.315 . S
C176 O171 1.279 . S
C177 O178 1.315 . S
C177 O179 1.279 . S
O178 Cd170 2.223 . S
O178 C177 1.315 . S
O179 Cd169 2.240 . S
O179 C177 1.279 . S
O180 Cd170 2.297 . S
O180 C175 1.247 . S
O181 Cd170 2.439 . S
O181 C175 1.208 . S
O182 Cd183 2.223 . S
O182 C190 1.315 . S
Cd183 O182 2.223 . S
Cd183 O186 2.297 . S
Cd183 O187 2.439 . S
Cd183 O193 2.240 . S
Cd184 O185 2.240 . S
Cd184 O192 2.223 . S
Cd184 O194 2.297 . S
Cd184 O195 2.439 . S
O185 Cd184 2.240 . S
O185 C190 1.279 . S
O186 Cd183 2.297 . S
O186 C188 1.247 . S
O187 Cd183 2.439 . S
O187 C188 1.208 . S
C188 O186 1.247 . S
C188 O187 1.208 . S
C189 O194 1.247 . S
C189 O195 1.208 . S
C190 O182 1.315 . S
C190 O185 1.279 . S
C191 O192 1.315 . S
C191 O193 1.279 . S
O192 Cd184 2.223 . S
O192 C191 1.315 . S
O193 Cd183 2.240 . S
O193 C191 1.279 . S
O194 Cd184 2.297 . S
O194 C189 1.247 . S
O195 Cd184 2.439 . S
O195 C189 1.208 . S
O196 Cd197 2.223 . S
O196 C204 1.315 . S
Cd197 O196 2.223 . S
Cd197 O200 2.297 . S
Cd197 O201 2.439 . S
Cd197 O207 2.240 . S
Cd198 O199 2.240 . S
Cd198 O206 2.223 . S
Cd198 O208 2.297 . S
Cd198 O209 2.439 . S
O199 Cd198 2.240 . S
O199 C204 1.279 . S
O200 Cd197 2.297 . S
O200 C202 1.247 . S
O201 Cd197 2.439 . S
O201 C202 1.208 . S
C202 O200 1.247 . S
C202 O201 1.208 . S
C203 O208 1.247 . S
C203 O209 1.208 . S
C204 O196 1.315 . S
C204 O199 1.279 . S
C205 O206 1.315 . S
C205 O207 1.279 . S
O206 Cd198 2.223 . S
O206 C205 1.315 . S
O207 Cd197 2.240 . S
O207 C205 1.279 . S
O208 Cd198 2.297 . S
O208 C203 1.247 . S
O209 Cd198 2.439 . S
O209 C203 1.208 . S
O210 Cd211 2.223 . S
O210 C218 1.315 . S
Cd211 O210 2.223 . S
Cd211 O214 2.297 . S
Cd211 O215 2.439 . S
Cd211 O221 2.240 . S
Cd212 O213 2.240 . S
Cd212 O220 2.223 . S
Cd212 O222 2.297 . S
Cd212 O223 2.439 . S
O213 Cd212 2.240 . S
O213 C218 1.279 . S
O214 Cd211 2.297 . S
O214 C216 1.247 . S
O215 Cd211 2.439 . S
O215 C216 1.208 . S
C216 O214 1.247 . S
C216 O215 1.208 . S
C217 O222 1.247 . S
C217 O223 1.208 . S
C218 O210 1.315 . S
C218 O213 1.279 . S
C219 O220 1.315 . S
C219 O221 1.279 . S
O220 Cd212 2.223 . S
O220 C219 1.315 . S
O221 Cd211 2.240 . S
O221 C219 1.279 . S
O222 Cd212 2.297 . S
O222 C217 1.247 . S
O223 Cd212 2.439 . S
O223 C217 1.208 . S
H224 C242 0.951 . S
H225 C244 0.951 . S
H226 C246 0.950 . S
H227 C247 0.950 . S
H228 C249 0.950 . S
H229 C252 0.950 . S
H230 C253 0.950 . S
H231 C255 0.950 . S
H232 C256 0.950 . S
H233 C257 0.951 . S
H234 C259 0.951 . S
H235 C261 0.950 . S
H236 C262 0.950 . S
H237 C264 0.950 . S
H238 C267 0.950 . S
H239 C268 0.950 . S
H240 C270 0.950 . S
H241 C271 0.950 . S
C242 H224 0.951 . S
C242 C243 1.366 . S
C242 C244 1.388 . S
C243 C242 1.366 . S
C243 C247 1.385 . S
C244 H225 0.951 . S
C244 C242 1.388 . S
C244 C245 1.366 . S
C245 C244 1.366 . S
C245 C246 1.414 . S
C245 C248 1.499 . S
C246 H226 0.950 . S
C246 C245 1.414 . S
C246 C247 1.374 . S
C247 H227 0.950 . S
C247 C243 1.385 . S
C247 C246 1.374 . S
C248 C245 1.499 . S
C248 C249 1.373 . S
C248 C250 1.389 . S
C249 H228 0.950 . S
C249 C248 1.373 . S
C249 C265 1.377 . S
C250 C248 1.389 . S
C250 C251 1.524 . S
C250 C264 1.377 . S
C251 C250 1.524 . S
C251 C252 1.397 . S
C251 C256 1.363 . S
C252 H229 0.950 . S
C252 C251 1.397 . S
C252 C253 1.334 . S
C253 H230 0.950 . S
C253 C252 1.334 . S
C253 C254 1.287 . S
C254 C253 1.287 . S
C254 C255 1.524 . S
C254 H273 0.913 . S
C255 H231 0.950 . S
C255 C254 1.524 . S
C255 C256 1.415 . S
C256 H232 0.950 . S
C256 C251 1.363 . S
C256 C255 1.415 . S
C257 H233 0.951 . S
C257 C258 1.366 . S
C257 C259 1.388 . S
C258 C257 1.366 . S
C258 C262 1.385 . S
C259 H234 0.951 . S
C259 C257 1.388 . S
C259 C260 1.366 . S
C260 C259 1.366 . S
C260 C261 1.414 . S
C260 C263 1.499 . S
C261 H235 0.950 . S
C261 C260 1.414 . S
C261 C262 1.374 . S
C262 H236 0.950 . S
C262 C258 1.385 . S
C262 C261 1.374 . S
C263 C260 1.499 . S
C263 C264 1.373 . S
C263 C265 1.389 . S
C264 H237 0.950 . S
C264 C250 1.377 . S
C264 C263 1.373 . S
C265 C249 1.377 . S
C265 C263 1.389 . S
C265 C266 1.524 . S
C266 C265 1.524 . S
C266 C267 1.397 . S
C266 C271 1.363 . S
C267 H238 0.950 . S
C267 C266 1.397 . S
C267 C268 1.334 . S
C268 H239 0.950 . S
C268 C267 1.334 . S
C268 C269 1.287 . S
C269 C268 1.287 . S
C269 C270 1.524 . S
C269 H272 0.999 . S
C270 H240 0.950 . S
C270 C269 1.524 . S
C270 C271 1.415 . S
C271 H241 0.950 . S
C271 C266 1.363 . S
C271 C270 1.415 . S
H272 C269 0.999 . S
H273 C254 0.913 . S
H274 C292 0.951 . S
H275 C294 0.951 . S
H276 C296 0.950 . S
H277 C297 0.950 . S
H278 C299 0.950 . S
H279 C302 0.950 . S
H280 C303 0.950 . S
H281 C305 0.950 . S
H282 C306 0.950 . S
H283 C307 0.951 . S
H284 C309 0.951 . S
H285 C311 0.950 . S
H286 C312 0.950 . S
H287 C314 0.950 . S
H288 C317 0.950 . S
H289 C318 0.950 . S
H290 C320 0.950 . S
H291 C321 0.950 . S
C292 H274 0.951 . S
C292 C293 1.366 . S
C292 C294 1.388 . S
C293 C292 1.366 . S
C293 C297 1.385 . S
C294 H275 0.951 . S
C294 C292 1.388 . S
C294 C295 1.366 . S
C295 C294 1.366 . S
C295 C296 1.414 . S
C295 C298 1.499 . S
C296 H276 0.950 . S
C296 C295 1.414 . S
C296 C297 1.374 . S
C297 H277 0.950 . S
C297 C293 1.385 . S
C297 C296 1.374 . S
C298 C295 1.499 . S
C298 C299 1.373 . S
C298 C300 1.389 . S
C299 H278 0.950 . S
C299 C298 1.373 . S
C299 C315 1.377 . S
C300 C298 1.389 . S
C300 C301 1.524 . S
C300 C314 1.377 . S
C301 C300 1.524 . S
C301 C302 1.397 . S
C301 C306 1.363 . S
C302 H279 0.950 . S
C302 C301 1.397 . S
C302 C303 1.334 . S
C303 H280 0.950 . S
C303 C302 1.334 . S
C303 C304 1.287 . S
C304 C303 1.287 . S
C304 C305 1.524 . S
C304 H323 0.913 . S
C305 H281 0.950 . S
C305 C304 1.524 . S
C305 C306 1.415 . S
C306 H282 0.950 . S
C306 C301 1.363 . S
C306 C305 1.415 . S
C307 H283 0.951 . S
C307 C308 1.366 . S
C307 C309 1.388 . S
C308 C307 1.366 . S
C308 C312 1.385 . S
C309 H284 0.951 . S
C309 C307 1.388 . S
C309 C310 1.366 . S
C310 C309 1.366 . S
C310 C311 1.414 . S
C310 C313 1.499 . S
C311 H285 0.950 . S
C311 C310 1.414 . S
C311 C312 1.374 . S
C312 H286 0.950 . S
C312 C308 1.385 . S
C312 C311 1.374 . S
C313 C310 1.499 . S
C313 C314 1.373 . S
C313 C315 1.389 . S
C314 H287 0.950 . S
C314 C300 1.377 . S
C314 C313 1.373 . S
C315 C299 1.377 . S
C315 C313 1.389 . S
C315 C316 1.524 . S
C316 C315 1.524 . S
C316 C317 1.397 . S
C316 C321 1.363 . S
C317 H288 0.950 . S
C317 C316 1.397 . S
C317 C318 1.334 . S
C318 H289 0.950 . S
C318 C317 1.334 . S
C318 C319 1.287 . S
C319 C318 1.287 . S
C319 C320 1.524 . S
C319 H322 0.999 . S
C320 H290 0.950 . S
C320 C319 1.524 . S
C320 C321 1.415 . S
C321 H291 0.950 . S
C321 C316 1.363 . S
C321 C320 1.415 . S
H322 C319 0.999 . S
H323 C304 0.913 . S
H324 C342 0.951 . S
H325 C344 0.951 . S
H326 C346 0.950 . S
H327 C347 0.950 . S
H328 C349 0.950 . S
H329 C352 0.950 . S
H330 C353 0.950 . S
H331 C355 0.950 . S
H332 C356 0.950 . S
H333 C357 0.951 . S
H334 C359 0.951 . S
H335 C361 0.950 . S
H336 C362 0.950 . S
H337 C364 0.950 . S
H338 C367 0.950 . S
H339 C368 0.950 . S
H340 C370 0.950 . S
H341 C371 0.950 . S
C342 H324 0.951 . S
C342 C343 1.366 . S
C342 C344 1.388 . S
C343 C342 1.366 . S
C343 C347 1.385 . S
C344 H325 0.951 . S
C344 C342 1.388 . S
C344 C345 1.366 . S
C345 C344 1.366 . S
C345 C346 1.414 . S
C345 C348 1.499 . S
C346 H326 0.950 . S
C346 C345 1.414 . S
C346 C347 1.374 . S
C347 H327 0.950 . S
C347 C343 1.385 . S
C347 C346 1.374 . S
C348 C345 1.499 . S
C348 C349 1.373 . S
C348 C350 1.389 . S
C349 H328 0.950 . S
C349 C348 1.373 . S
C349 C365 1.377 . S
C350 C348 1.389 . S
C350 C351 1.524 . S
C350 C364 1.377 . S
C351 C350 1.524 . S
C351 C352 1.397 . S
C351 C356 1.363 . S
C352 H329 0.950 . S
C352 C351 1.397 . S
C352 C353 1.334 . S
C353 H330 0.950 . S
C353 C352 1.334 . S
C353 C354 1.287 . S
C354 C353 1.287 . S
C354 C355 1.524 . S
C354 H373 0.913 . S
C355 H331 0.950 . S
C355 C354 1.524 . S
C355 C356 1.415 . S
C356 H332 0.950 . S
C356 C351 1.363 . S
C356 C355 1.415 . S
C357 H333 0.951 . S
C357 C358 1.366 . S
C357 C359 1.388 . S
C358 C357 1.366 . S
C358 C362 1.385 . S
C359 H334 0.951 . S
C359 C357 1.388 . S
C359 C360 1.366 . S
C360 C359 1.366 . S
C360 C361 1.414 . S
C360 C363 1.499 . S
C361 H335 0.950 . S
C361 C360 1.414 . S
C361 C362 1.374 . S
C362 H336 0.950 . S
C362 C358 1.385 . S
C362 C361 1.374 . S
C363 C360 1.499 . S
C363 C364 1.373 . S
C363 C365 1.389 . S
C364 H337 0.950 . S
C364 C350 1.377 . S
C364 C363 1.373 . S
C365 C349 1.377 . S
C365 C363 1.389 . S
C365 C366 1.524 . S
C366 C365 1.524 . S
C366 C367 1.397 . S
C366 C371 1.363 . S
C367 H338 0.950 . S
C367 C366 1.397 . S
C367 C368 1.334 . S
C368 H339 0.950 . S
C368 C367 1.334 . S
C368 C369 1.287 . S
C369 C368 1.287 . S
C369 C370 1.524 . S
C369 H372 0.999 . S
C370 H340 0.950 . S
C370 C369 1.524 . S
C370 C371 1.415 . S
C371 H341 0.950 . S
C371 C366 1.363 . S
C371 C370 1.415 . S
H372 C369 0.999 . S
H373 C354 0.913 . S
H374 C392 0.951 . S
H375 C394 0.951 . S
H376 C396 0.950 . S
H377 C397 0.950 . S
H378 C399 0.950 . S
H379 C402 0.950 . S
H380 C403 0.950 . S
H381 C405 0.950 . S
H382 C406 0.950 . S
H383 C407 0.951 . S
H384 C409 0.951 . S
H385 C411 0.950 . S
H386 C412 0.950 . S
H387 C414 0.950 . S
H388 C417 0.950 . S
H389 C418 0.950 . S
H390 C420 0.950 . S
H391 C421 0.950 . S
C392 H374 0.951 . S
C392 C393 1.366 . S
C392 C394 1.388 . S
C393 C392 1.366 . S
C393 C397 1.385 . S
C394 H375 0.951 . S
C394 C392 1.388 . S
C394 C395 1.366 . S
C395 C394 1.366 . S
C395 C396 1.414 . S
C395 C398 1.499 . S
C396 H376 0.950 . S
C396 C395 1.414 . S
C396 C397 1.374 . S
C397 H377 0.950 . S
C397 C393 1.385 . S
C397 C396 1.374 . S
C398 C395 1.499 . S
C398 C399 1.373 . S
C398 C400 1.389 . S
C399 H378 0.950 . S
C399 C398 1.373 . S
C399 C415 1.377 . S
C400 C398 1.389 . S
C400 C401 1.524 . S
C400 C414 1.377 . S
C401 C400 1.524 . S
C401 C402 1.397 . S
C401 C406 1.363 . S
C402 H379 0.950 . S
C402 C401 1.397 . S
C402 C403 1.334 . S
C403 H380 0.950 . S
C403 C402 1.334 . S
C403 C404 1.287 . S
C404 C403 1.287 . S
C404 C405 1.524 . S
C404 H423 0.913 . S
C405 H381 0.950 . S
C405 C404 1.524 . S
C405 C406 1.415 . S
C406 H382 0.950 . S
C406 C401 1.363 . S
C406 C405 1.415 . S
C407 H383 0.951 . S
C407 C408 1.366 . S
C407 C409 1.388 . S
C408 C407 1.366 . S
C408 C412 1.385 . S
C409 H384 0.951 . S
C409 C407 1.388 . S
C409 C410 1.366 . S
C410 C409 1.366 . S
C410 C411 1.414 . S
C410 C413 1.499 . S
C411 H385 0.950 . S
C411 C410 1.414 . S
C411 C412 1.374 . S
C412 H386 0.950 . S
C412 C408 1.385 . S
C412 C411 1.374 . S
C413 C410 1.499 . S
C413 C414 1.373 . S
C413 C415 1.389 . S
C414 H387 0.950 . S
C414 C400 1.377 . S
C414 C413 1.373 . S
C415 C399 1.377 . S
C415 C413 1.389 . S
C415 C416 1.524 . S
C416 C415 1.524 . S
C416 C417 1.397 . S
C416 C421 1.363 . S
C417 H388 0.950 . S
C417 C416 1.397 . S
C417 C418 1.334 . S
C418 H389 0.950 . S
C418 C417 1.334 . S
C418 C419 1.287 . S
C419 C418 1.287 . S
C419 C420 1.524 . S
C419 H422 0.999 . S
C420 H390 0.950 . S
C420 C419 1.524 . S
C420 C421 1.415 . S
C421 H391 0.950 . S
C421 C416 1.363 . S
C421 C420 1.415 . S
H422 C419 0.999 . S
H423 C404 0.913 . S
H424 C442 0.951 . S
H425 C444 0.951 . S
H426 C446 0.950 . S
H427 C447 0.950 . S
H428 C449 0.950 . S
H429 C452 0.950 . S
H430 C453 0.950 . S
H431 C455 0.950 . S
H432 C456 0.950 . S
H433 C457 0.951 . S
H434 C459 0.951 . S
H435 C461 0.950 . S
H436 C462 0.950 . S
H437 C464 0.950 . S
H438 C467 0.950 . S
H439 C468 0.950 . S
H440 C470 0.950 . S
H441 C471 0.950 . S
C442 H424 0.951 . S
C442 C443 1.366 . S
C442 C444 1.388 . S
C443 C442 1.366 . S
C443 C447 1.385 . S
C444 H425 0.951 . S
C444 C442 1.388 . S
C444 C445 1.366 . S
C445 C444 1.366 . S
C445 C446 1.414 . S
C445 C448 1.499 . S
C446 H426 0.950 . S
C446 C445 1.414 . S
C446 C447 1.374 . S
C447 H427 0.950 . S
C447 C443 1.385 . S
C447 C446 1.374 . S
C448 C445 1.499 . S
C448 C449 1.373 . S
C448 C450 1.389 . S
C449 H428 0.950 . S
C449 C448 1.373 . S
C449 C465 1.377 . S
C450 C448 1.389 . S
C450 C451 1.524 . S
C450 C464 1.377 . S
C451 C450 1.524 . S
C451 C452 1.397 . S
C451 C456 1.363 . S
C452 H429 0.950 . S
C452 C451 1.397 . S
C452 C453 1.334 . S
C453 H430 0.950 . S
C453 C452 1.334 . S
C453 C454 1.287 . S
C454 C453 1.287 . S
C454 C455 1.524 . S
C454 H473 0.913 . S
C455 H431 0.950 . S
C455 C454 1.524 . S
C455 C456 1.415 . S
C456 H432 0.950 . S
C456 C451 1.363 . S
C456 C455 1.415 . S
C457 H433 0.951 . S
C457 C458 1.366 . S
C457 C459 1.388 . S
C458 C457 1.366 . S
C458 C462 1.385 . S
C459 H434 0.951 . S
C459 C457 1.388 . S
C459 C460 1.366 . S
C460 C459 1.366 . S
C460 C461 1.414 . S
C460 C463 1.499 . S
C461 H435 0.950 . S
C461 C460 1.414 . S
C461 C462 1.374 . S
C462 H436 0.950 . S
C462 C458 1.385 . S
C462 C461 1.374 . S
C463 C460 1.499 . S
C463 C464 1.373 . S
C463 C465 1.389 . S
C464 H437 0.950 . S
C464 C450 1.377 . S
C464 C463 1.373 . S
C465 C449 1.377 . S
C465 C463 1.389 . S
C465 C466 1.524 . S
C466 C465 1.524 . S
C466 C467 1.397 . S
C466 C471 1.363 . S
C467 H438 0.950 . S
C467 C466 1.397 . S
C467 C468 1.334 . S
C468 H439 0.950 . S
C468 C467 1.334 . S
C468 C469 1.287 . S
C469 C468 1.287 . S
C469 C470 1.524 . S
C469 H472 0.999 . S
C470 H440 0.950 . S
C470 C469 1.524 . S
C470 C471 1.415 . S
C471 H441 0.950 . S
C471 C466 1.363 . S
C471 C470 1.415 . S
H472 C469 0.999 . S
H473 C454 0.913 . S
H474 C492 0.951 . S
H475 C494 0.951 . S
H476 C496 0.950 . S
H477 C497 0.950 . S
H478 C499 0.950 . S
H479 C502 0.950 . S
H480 C503 0.950 . S
H481 C505 0.950 . S
H482 C506 0.950 . S
H483 C507 0.951 . S
H484 C509 0.951 . S
H485 C511 0.950 . S
H486 C512 0.950 . S
H487 C514 0.950 . S
H488 C517 0.950 . S
H489 C518 0.950 . S
H490 C520 0.950 . S
H491 C521 0.950 . S
C492 H474 0.951 . S
C492 C493 1.366 . S
C492 C494 1.388 . S
C493 C492 1.366 . S
C493 C497 1.385 . S
C494 H475 0.951 . S
C494 C492 1.388 . S
C494 C495 1.366 . S
C495 C494 1.366 . S
C495 C496 1.414 . S
C495 C498 1.499 . S
C496 H476 0.950 . S
C496 C495 1.414 . S
C496 C497 1.374 . S
C497 H477 0.950 . S
C497 C493 1.385 . S
C497 C496 1.374 . S
C498 C495 1.499 . S
C498 C499 1.373 . S
C498 C500 1.389 . S
C499 H478 0.950 . S
C499 C498 1.373 . S
C499 C515 1.377 . S
C500 C498 1.389 . S
C500 C501 1.524 . S
C500 C514 1.377 . S
C501 C500 1.524 . S
C501 C502 1.397 . S
C501 C506 1.363 . S
C502 H479 0.950 . S
C502 C501 1.397 . S
C502 C503 1.334 . S
C503 H480 0.950 . S
C503 C502 1.334 . S
C503 C504 1.287 . S
C504 C503 1.287 . S
C504 C505 1.524 . S
C504 H523 0.913 . S
C505 H481 0.950 . S
C505 C504 1.524 . S
C505 C506 1.415 . S
C506 H482 0.950 . S
C506 C501 1.363 . S
C506 C505 1.415 . S
C507 H483 0.951 . S
C507 C508 1.366 . S
C507 C509 1.388 . S
C508 C507 1.366 . S
C508 C512 1.385 . S
C509 H484 0.951 . S
C509 C507 1.388 . S
C509 C510 1.366 . S
C510 C509 1.366 . S
C510 C511 1.414 . S
C510 C513 1.499 . S
C511 H485 0.950 . S
C511 C510 1.414 . S
C511 C512 1.374 . S
C512 H486 0.950 . S
C512 C508 1.385 . S
C512 C511 1.374 . S
C513 C510 1.499 . S
C513 C514 1.373 . S
C513 C515 1.389 . S
C514 H487 0.950 . S
C514 C500 1.377 . S
C514 C513 1.373 . S
C515 C499 1.377 . S
C515 C513 1.389 . S
C515 C516 1.524 . S
C516 C515 1.524 . S
C516 C517 1.397 . S
C516 C521 1.363 . S
C517 H488 0.950 . S
C517 C516 1.397 . S
C517 C518 1.334 . S
C518 H489 0.950 . S
C518 C517 1.334 . S
C518 C519 1.287 . S
C519 C518 1.287 . S
C519 C520 1.524 . S
C519 H522 0.999 . S
C520 H490 0.950 . S
C520 C519 1.524 . S
C520 C521 1.415 . S
C521 H491 0.950 . S
C521 C516 1.363 . S
C521 C520 1.415 . S
H522 C519 0.999 . S
H523 C504 0.913 . S
H524 C542 0.951 . S
H525 C544 0.951 . S
H526 C546 0.950 . S
H527 C547 0.950 . S
H528 C549 0.950 . S
H529 C552 0.950 . S
H530 C553 0.950 . S
H531 C555 0.950 . S
H532 C556 0.950 . S
H533 C557 0.951 . S
H534 C559 0.951 . S
H535 C561 0.950 . S
H536 C562 0.950 . S
H537 C564 0.950 . S
H538 C567 0.950 . S
H539 C568 0.950 . S
H540 C570 0.950 . S
H541 C571 0.950 . S
C542 H524 0.951 . S
C542 C543 1.366 . S
C542 C544 1.388 . S
C543 C542 1.366 . S
C543 C547 1.385 . S
C544 H525 0.951 . S
C544 C542 1.388 . S
C544 C545 1.366 . S
C545 C544 1.366 . S
C545 C546 1.414 . S
C545 C548 1.499 . S
C546 H526 0.950 . S
C546 C545 1.414 . S
C546 C547 1.374 . S
C547 H527 0.950 . S
C547 C543 1.385 . S
C547 C546 1.374 . S
C548 C545 1.499 . S
C548 C549 1.373 . S
C548 C550 1.389 . S
C549 H528 0.950 . S
C549 C548 1.373 . S
C549 C565 1.377 . S
C550 C548 1.389 . S
C550 C551 1.524 . S
C550 C564 1.377 . S
C551 C550 1.524 . S
C551 C552 1.397 . S
C551 C556 1.363 . S
C552 H529 0.950 . S
C552 C551 1.397 . S
C552 C553 1.334 . S
C553 H530 0.950 . S
C553 C552 1.334 . S
C553 C554 1.287 . S
C554 C553 1.287 . S
C554 C555 1.524 . S
C554 H573 0.913 . S
C555 H531 0.950 . S
C555 C554 1.524 . S
C555 C556 1.415 . S
C556 H532 0.950 . S
C556 C551 1.363 . S
C556 C555 1.415 . S
C557 H533 0.951 . S
C557 C558 1.366 . S
C557 C559 1.388 . S
C558 C557 1.366 . S
C558 C562 1.385 . S
C559 H534 0.951 . S
C559 C557 1.388 . S
C559 C560 1.366 . S
C560 C559 1.366 . S
C560 C561 1.414 . S
C560 C563 1.499 . S
C561 H535 0.950 . S
C561 C560 1.414 . S
C561 C562 1.374 . S
C562 H536 0.950 . S
C562 C558 1.385 . S
C562 C561 1.374 . S
C563 C560 1.499 . S
C563 C564 1.373 . S
C563 C565 1.389 . S
C564 H537 0.950 . S
C564 C550 1.377 . S
C564 C563 1.373 . S
C565 C549 1.377 . S
C565 C563 1.389 . S
C565 C566 1.524 . S
C566 C565 1.524 . S
C566 C567 1.397 . S
C566 C571 1.363 . S
C567 H538 0.950 . S
C567 C566 1.397 . S
C567 C568 1.334 . S
C568 H539 0.950 . S
C568 C567 1.334 . S
C568 C569 1.287 . S
C569 C568 1.287 . S
C569 C570 1.524 . S
C569 H572 0.999 . S
C570 H540 0.950 . S
C570 C569 1.524 . S
C570 C571 1.415 . S
C571 H541 0.950 . S
C571 C566 1.363 . S
C571 C570 1.415 . S
H572 C569 0.999 . S
H573 C554 0.913 . S
H574 C592 0.951 . S
H575 C594 0.951 . S
H576 C596 0.950 . S
H577 C597 0.950 . S
H578 C599 0.950 . S
H579 C602 0.950 . S
H580 C603 0.950 . S
H581 C605 0.950 . S
H582 C606 0.950 . S
H583 C607 0.951 . S
H584 C609 0.951 . S
H585 C611 0.950 . S
H586 C612 0.950 . S
H587 C614 0.950 . S
H588 C617 0.950 . S
H589 C618 0.950 . S
H590 C620 0.950 . S
H591 C621 0.950 . S
C592 H574 0.951 . S
C592 C593 1.366 . S
C592 C594 1.388 . S
C593 C592 1.366 . S
C593 C597 1.385 . S
C594 H575 0.951 . S
C594 C592 1.388 . S
C594 C595 1.366 . S
C595 C594 1.366 . S
C595 C596 1.414 . S
C595 C598 1.499 . S
C596 H576 0.950 . S
C596 C595 1.414 . S
C596 C597 1.374 . S
C597 H577 0.950 . S
C597 C593 1.385 . S
C597 C596 1.374 . S
C598 C595 1.499 . S
C598 C599 1.373 . S
C598 C600 1.389 . S
C599 H578 0.950 . S
C599 C598 1.373 . S
C599 C615 1.377 . S
C600 C598 1.389 . S
C600 C601 1.524 . S
C600 C614 1.377 . S
C601 C600 1.524 . S
C601 C602 1.397 . S
C601 C606 1.363 . S
C602 H579 0.950 . S
C602 C601 1.397 . S
C602 C603 1.334 . S
C603 H580 0.950 . S
C603 C602 1.334 . S
C603 C604 1.287 . S
C604 C603 1.287 . S
C604 C605 1.524 . S
C604 H623 0.913 . S
C605 H581 0.950 . S
C605 C604 1.524 . S
C605 C606 1.415 . S
C606 H582 0.950 . S
C606 C601 1.363 . S
C606 C605 1.415 . S
C607 H583 0.951 . S
C607 C608 1.366 . S
C607 C609 1.388 . S
C608 C607 1.366 . S
C608 C612 1.385 . S
C609 H584 0.951 . S
C609 C607 1.388 . S
C609 C610 1.366 . S
C610 C609 1.366 . S
C610 C611 1.414 . S
C610 C613 1.499 . S
C611 H585 0.950 . S
C611 C610 1.414 . S
C611 C612 1.374 . S
C612 H586 0.950 . S
C612 C608 1.385 . S
C612 C611 1.374 . S
C613 C610 1.499 . S
C613 C614 1.373 . S
C613 C615 1.389 . S
C614 H587 0.950 . S
C614 C600 1.377 . S
C614 C613 1.373 . S
C615 C599 1.377 . S
C615 C613 1.389 . S
C615 C616 1.524 . S
C616 C615 1.524 . S
C616 C617 1.397 . S
C616 C621 1.363 . S
C617 H588 0.950 . S
C617 C616 1.397 . S
C617 C618 1.334 . S
C618 H589 0.950 . S
C618 C617 1.334 . S
C618 C619 1.287 . S
C619 C618 1.287 . S
C619 C620 1.524 . S
C619 H622 0.999 . S
C620 H590 0.950 . S
C620 C619 1.524 . S
C620 C621 1.415 . S
C621 H591 0.950 . S
C621 C616 1.363 . S
C621 C620 1.415 . S
H622 C619 0.999 . S
H623 C604 0.913 . S
H624 C642 0.951 . S
H625 C644 0.951 . S
H626 C646 0.950 . S
H627 C647 0.950 . S
H628 C649 0.950 . S
H629 C652 0.950 . S
H630 C653 0.950 . S
H631 C655 0.950 . S
H632 C656 0.950 1_545 S
H633 C657 0.951 . S
H634 C659 0.951 . S
H635 C661 0.950 . S
H636 C662 0.950 . S
H637 C664 0.950 . S
H638 C667 0.950 . S
H639 C668 0.950 . S
H640 C670 0.950 . S
H641 C671 0.950 . S
C642 H624 0.951 . S
C642 C643 1.366 . S
C642 C644 1.388 . S
C643 C642 1.366 . S
C643 C647 1.385 . S
C644 H625 0.951 . S
C644 C642 1.388 . S
C644 C645 1.366 . S
C645 C644 1.366 . S
C645 C646 1.414 . S
C645 C648 1.499 . S
C646 H626 0.950 . S
C646 C645 1.414 . S
C646 C647 1.374 . S
C647 H627 0.950 . S
C647 C643 1.385 . S
C647 C646 1.374 . S
C648 C645 1.499 . S
C648 C649 1.373 1_565 S
C648 C650 1.389 . S
C649 H628 0.950 . S
C649 C648 1.373 1_545 S
C649 C665 1.377 . S
C650 C648 1.389 . S
C650 C651 1.524 . S
C650 C664 1.377 1_565 S
C651 C650 1.524 . S
C651 C652 1.397 . S
C651 C656 1.363 . S
C652 H629 0.950 . S
C652 C651 1.397 . S
C652 C653 1.334 . S
C653 H630 0.950 . S
C653 C652 1.334 . S
C653 C654 1.287 . S
C654 C653 1.287 . S
C654 C655 1.524 . S
C654 H673 0.913 . S
C655 H631 0.950 . S
C655 C654 1.524 . S
C655 C656 1.415 . S
C656 H632 0.950 1_565 S
C656 C651 1.363 . S
C656 C655 1.415 . S
C657 H633 0.951 . S
C657 C658 1.366 . S
C657 C659 1.388 . S
C658 C657 1.366 . S
C658 C662 1.385 . S
C659 H634 0.951 . S
C659 C657 1.388 . S
C659 C660 1.366 . S
C660 C659 1.366 . S
C660 C661 1.414 . S
C660 C663 1.499 . S
C661 H635 0.950 . S
C661 C660 1.414 . S
C661 C662 1.374 . S
C662 H636 0.950 . S
C662 C658 1.385 . S
C662 C661 1.374 . S
C663 C660 1.499 . S
C663 C664 1.373 . S
C663 C665 1.389 . S
C664 H637 0.950 . S
C664 C650 1.377 1_545 S
C664 C663 1.373 . S
C665 C649 1.377 . S
C665 C663 1.389 . S
C665 C666 1.524 . S
C666 C665 1.524 . S
C666 C667 1.397 . S
C666 C671 1.363 . S
C667 H638 0.950 . S
C667 C666 1.397 . S
C667 C668 1.334 . S
C668 H639 0.950 . S
C668 C667 1.334 . S
C668 C669 1.287 . S
C669 C668 1.287 . S
C669 C670 1.524 . S
C669 H672 0.999 . S
C670 H640 0.950 . S
C670 C669 1.524 . S
C670 C671 1.415 . S
C671 H641 0.950 . S
C671 C666 1.363 . S
C671 C670 1.415 . S
H672 C669 0.999 . S
H673 C654 0.913 . S
H674 C692 0.951 . S
H675 C694 0.951 . S
H676 C696 0.950 . S
H677 C697 0.950 . S
H678 C699 0.950 . S
H679 C702 0.950 . S
H680 C703 0.950 . S
H681 C705 0.950 . S
H682 C706 0.950 . S
H683 C707 0.951 . S
H684 C709 0.951 . S
H685 C711 0.950 . S
H686 C712 0.950 . S
H687 C714 0.950 . S
H688 C717 0.950 . S
H689 C718 0.950 . S
H690 C720 0.950 . S
H691 C721 0.950 . S
C692 H674 0.951 . S
C692 C693 1.366 . S
C692 C694 1.388 . S
C693 C692 1.366 . S
C693 C697 1.385 . S
C694 H675 0.951 . S
C694 C692 1.388 . S
C694 C695 1.366 . S
C695 C694 1.366 . S
C695 C696 1.414 . S
C695 C698 1.499 . S
C696 H676 0.950 . S
C696 C695 1.414 . S
C696 C697 1.374 . S
C697 H677 0.950 . S
C697 C693 1.385 . S
C697 C696 1.374 . S
C698 C695 1.499 . S
C698 C699 1.373 . S
C698 C700 1.389 . S
C699 H678 0.950 . S
C699 C698 1.373 . S
C699 C715 1.377 . S
C700 C698 1.389 . S
C700 C701 1.524 . S
C700 C714 1.377 . S
C701 C700 1.524 . S
C701 C702 1.397 . S
C701 C706 1.363 . S
C702 H679 0.950 . S
C702 C701 1.397 . S
C702 C703 1.334 . S
C703 H680 0.950 . S
C703 C702 1.334 . S
C703 C704 1.287 . S
C704 C703 1.287 . S
C704 C705 1.524 . S
C704 H723 0.913 . S
C705 H681 0.950 . S
C705 C704 1.524 . S
C705 C706 1.415 . S
C706 H682 0.950 . S
C706 C701 1.363 . S
C706 C705 1.415 . S
C707 H683 0.951 . S
C707 C708 1.366 . S
C707 C709 1.388 . S
C708 C707 1.366 . S
C708 C712 1.385 . S
C709 H684 0.951 . S
C709 C707 1.388 . S
C709 C710 1.366 . S
C710 C709 1.366 . S
C710 C711 1.414 . S
C710 C713 1.499 . S
C711 H685 0.950 . S
C711 C710 1.414 . S
C711 C712 1.374 . S
C712 H686 0.950 . S
C712 C708 1.385 . S
C712 C711 1.374 . S
C713 C710 1.499 . S
C713 C714 1.373 . S
C713 C715 1.389 . S
C714 H687 0.950 . S
C714 C700 1.377 . S
C714 C713 1.373 . S
C715 C699 1.377 . S
C715 C713 1.389 . S
C715 C716 1.524 . S
C716 C715 1.524 . S
C716 C717 1.397 . S
C716 C721 1.363 . S
C717 H688 0.950 . S
C717 C716 1.397 . S
C717 C718 1.334 . S
C718 H689 0.950 . S
C718 C717 1.334 . S
C718 C719 1.287 . S
C719 C718 1.287 . S
C719 C720 1.524 . S
C719 H722 0.999 . S
C720 H690 0.950 . S
C720 C719 1.524 . S
C720 C721 1.415 . S
C721 H691 0.950 . S
C721 C716 1.363 . S
C721 C720 1.415 . S
H722 C719 0.999 . S
H723 C704 0.913 . S
H724 C742 0.951 . S
H725 C744 0.951 . S
H726 C746 0.950 . S
H727 C747 0.950 . S
H728 C749 0.950 . S
H729 C752 0.950 . S
H730 C753 0.950 . S
H731 C755 0.950 . S
H732 C756 0.950 . S
H733 C757 0.951 . S
H734 C759 0.951 . S
H735 C761 0.950 . S
H736 C762 0.950 . S
H737 C764 0.950 . S
H738 C767 0.950 . S
H739 C768 0.950 . S
H740 C770 0.950 . S
H741 C771 0.950 . S
C742 H724 0.951 . S
C742 C743 1.366 . S
C742 C744 1.388 . S
C743 C742 1.366 . S
C743 C747 1.385 . S
C744 H725 0.951 . S
C744 C742 1.388 . S
C744 C745 1.366 . S
C745 C744 1.366 . S
C745 C746 1.414 . S
C745 C748 1.499 . S
C746 H726 0.950 . S
C746 C745 1.414 . S
C746 C747 1.374 . S
C747 H727 0.950 . S
C747 C743 1.385 . S
C747 C746 1.374 . S
C748 C745 1.499 . S
C748 C749 1.373 . S
C748 C750 1.389 . S
C749 H728 0.950 . S
C749 C748 1.373 . S
C749 C765 1.377 . S
C750 C748 1.389 . S
C750 C751 1.524 . S
C750 C764 1.377 . S
C751 C750 1.524 . S
C751 C752 1.397 . S
C751 C756 1.363 . S
C752 H729 0.950 . S
C752 C751 1.397 . S
C752 C753 1.334 . S
C753 H730 0.950 . S
C753 C752 1.334 . S
C753 C754 1.287 . S
C754 C753 1.287 . S
C754 C755 1.524 . S
C754 H773 0.913 . S
C755 H731 0.950 . S
C755 C754 1.524 . S
C755 C756 1.415 . S
C756 H732 0.950 . S
C756 C751 1.363 . S
C756 C755 1.415 . S
C757 H733 0.951 . S
C757 C758 1.366 . S
C757 C759 1.388 . S
C758 C757 1.366 . S
C758 C762 1.385 . S
C759 H734 0.951 . S
C759 C757 1.388 . S
C759 C760 1.366 . S
C760 C759 1.366 . S
C760 C761 1.414 . S
C760 C763 1.499 . S
C761 H735 0.950 . S
C761 C760 1.414 . S
C761 C762 1.374 . S
C762 H736 0.950 . S
C762 C758 1.385 . S
C762 C761 1.374 . S
C763 C760 1.499 . S
C763 C764 1.373 1_554 S
C763 C765 1.389 1_554 S
C764 H737 0.950 . S
C764 C750 1.377 . S
C764 C763 1.373 1_556 S
C765 C749 1.377 . S
C765 C763 1.389 1_556 S
C765 C766 1.524 1_556 S
C766 C765 1.524 1_554 S
C766 C767 1.397 . S
C766 C771 1.363 1_554 S
C767 H738 0.950 . S
C767 C766 1.397 . S
C767 C768 1.334 . S
C768 H739 0.950 . S
C768 C767 1.334 . S
C768 C769 1.287 . S
C769 C768 1.287 . S
C769 C770 1.524 . S
C769 H772 0.999 . S
C770 H740 0.950 . S
C770 C769 1.524 . S
C770 C771 1.415 1_554 S
C771 H741 0.950 . S
C771 C766 1.363 1_556 S
C771 C770 1.415 1_556 S
H772 C769 0.999 . S
H773 C754 0.913 . S
H774 C792 0.951 . S
H775 C794 0.951 . S
H776 C796 0.950 . S
H777 C797 0.950 . S
H778 C799 0.950 . S
H779 C802 0.948 . S
H780 C803 0.950 . S
H781 C805 0.950 . S
H782 C806 0.950 . S
H783 C807 0.951 . S
H784 C809 0.951 . S
H785 C811 0.950 . S
H786 C812 0.950 . S
H787 C814 0.950 . S
H788 C817 0.950 . S
H789 C818 0.950 . S
H790 C820 0.950 1_554 S
H791 C821 0.950 1_554 S
C792 H774 0.951 . S
C792 C793 1.366 . S
C792 C794 1.388 . S
C793 C792 1.366 . S
C793 C797 1.385 . S
C794 H775 0.951 . S
C794 C792 1.388 . S
C794 C795 1.366 . S
C795 C794 1.366 . S
C795 C796 1.414 . S
C795 C798 1.499 . S
C796 H776 0.950 . S
C796 C795 1.414 . S
C796 C797 1.374 . S
C797 H777 0.950 . S
C797 C793 1.385 . S
C797 C796 1.374 . S
C798 C795 1.499 . S
C798 C799 1.373 . S
C798 C800 1.389 1_554 S
C799 H778 0.950 . S
C799 C798 1.373 . S
C799 C815 1.377 1_554 S
C800 C798 1.389 1_556 S
C800 C801 1.524 . S
C800 C814 1.377 . S
C801 C800 1.524 . S
C801 C802 1.398 1_556 S
C801 C806 1.363 . S
C802 H779 0.948 . S
C802 C801 1.398 1_554 S
C802 C803 1.334 . S
C803 H780 0.950 . S
C803 C802 1.334 . S
C803 C804 1.287 1_554 S
C804 C803 1.287 1_556 S
C804 C805 1.524 . S
C804 H823 0.913 . S
C805 H781 0.950 . S
C805 C804 1.524 . S
C805 C806 1.415 . S
C806 H782 0.950 . S
C806 C801 1.363 . S
C806 C805 1.415 . S
C807 H783 0.951 . S
C807 C808 1.366 . S
C807 C809 1.388 . S
C808 C807 1.366 . S
C808 C812 1.385 . S
C809 H784 0.951 . S
C809 C807 1.388 . S
C809 C810 1.366 . S
C810 C809 1.366 . S
C810 C811 1.414 . S
C810 C813 1.499 . S
C811 H785 0.950 . S
C811 C810 1.414 . S
C811 C812 1.374 . S
C812 H786 0.950 . S
C812 C808 1.385 . S
C812 C811 1.374 . S
C813 C810 1.499 . S
C813 C814 1.373 . S
C813 C815 1.389 . S
C814 H787 0.950 . S
C814 C800 1.377 . S
C814 C813 1.373 . S
C815 C799 1.377 1_556 S
C815 C813 1.389 . S
C815 C816 1.524 . S
C816 C815 1.524 . S
C816 C817 1.397 . S
C816 C821 1.363 . S
C817 H788 0.950 . S
C817 C816 1.397 . S
C817 C818 1.334 . S
C818 H789 0.950 . S
C818 C817 1.334 . S
C818 C819 1.287 . S
C819 C818 1.287 . S
C819 C820 1.524 . S
C819 H822 0.999 . S
C820 H790 0.950 1_556 S
C820 C819 1.524 . S
C820 C821 1.415 . S
C821 H791 0.950 1_556 S
C821 C816 1.363 . S
C821 C820 1.415 . S
H822 C819 0.999 . S
H823 C804 0.913 . S
H824 C842 0.951 . S
H825 C844 0.951 . S
H826 C846 0.950 . S
H827 C847 0.950 . S
H828 C849 0.950 . S
H829 C852 0.950 . S
H830 C853 0.950 . S
H831 C855 0.950 . S
H832 C856 0.950 . S
H833 C857 0.951 . S
H834 C859 0.951 . S
H835 C861 0.950 . S
H836 C862 0.950 . S
H837 C864 0.950 . S
H838 C867 0.950 . S
H839 C868 0.950 . S
H840 C870 0.950 . S
H841 C871 0.950 . S
C842 H824 0.951 . S
C842 C843 1.366 . S
C842 C844 1.388 . S
C843 C842 1.366 . S
C843 C847 1.385 . S
C844 H825 0.951 . S
C844 C842 1.388 . S
C844 C845 1.366 . S
C845 C844 1.366 . S
C845 C846 1.414 . S
C845 C848 1.499 . S
C846 H826 0.950 . S
C846 C845 1.414 . S
C846 C847 1.374 . S
C847 H827 0.950 . S
C847 C843 1.385 . S
C847 C846 1.374 . S
C848 C845 1.499 . S
C848 C849 1.373 . S
C848 C850 1.389 . S
C849 H828 0.950 . S
C849 C848 1.373 . S
C849 C865 1.377 . S
C850 C848 1.389 . S
C850 C851 1.524 . S
C850 C864 1.377 . S
C851 C850 1.524 . S
C851 C852 1.397 . S
C851 C856 1.363 . S
C852 H829 0.950 . S
C852 C851 1.397 . S
C852 C853 1.334 . S
C853 H830 0.950 . S
C853 C852 1.334 . S
C853 C854 1.287 . S
C854 C853 1.287 . S
C854 C855 1.524 . S
C854 H873 0.913 . S
C855 H831 0.950 . S
C855 C854 1.524 . S
C855 C856 1.415 . S
C856 H832 0.950 . S
C856 C851 1.363 . S
C856 C855 1.415 . S
C857 H833 0.951 . S
C857 C858 1.366 . S
C857 C859 1.388 . S
C858 C857 1.366 . S
C858 C862 1.385 . S
C859 H834 0.951 . S
C859 C857 1.388 . S
C859 C860 1.366 . S
C860 C859 1.366 . S
C860 C861 1.414 . S
C860 C863 1.499 . S
C861 H835 0.950 . S
C861 C860 1.414 . S
C861 C862 1.374 . S
C862 H836 0.950 . S
C862 C858 1.385 . S
C862 C861 1.374 . S
C863 C860 1.499 . S
C863 C864 1.373 . S
C863 C865 1.389 . S
C864 H837 0.950 . S
C864 C850 1.377 . S
C864 C863 1.373 . S
C865 C849 1.377 . S
C865 C863 1.389 . S
C865 C866 1.524 . S
C866 C865 1.524 . S
C866 C867 1.397 . S
C866 C871 1.363 . S
C867 H838 0.950 . S
C867 C866 1.397 . S
C867 C868 1.334 . S
C868 H839 0.950 . S
C868 C867 1.334 . S
C868 C869 1.287 . S
C869 C868 1.287 . S
C869 C870 1.524 . S
C869 H872 0.999 . S
C870 H840 0.950 . S
C870 C869 1.524 . S
C870 C871 1.415 . S
C871 H841 0.950 . S
C871 C866 1.363 . S
C871 C870 1.415 . S
H872 C869 0.999 . S
H873 C854 0.913 . S
H874 C892 0.951 . S
H875 C894 0.951 . S
H876 C896 0.950 . S
H877 C897 0.950 . S
H878 C899 0.950 . S
H879 C902 0.950 . S
H880 C903 0.950 . S
H881 C905 0.950 . S
H882 C906 0.950 . S
H883 C907 0.951 . S
H884 C909 0.951 . S
H885 C911 0.950 . S
H886 C912 0.950 . S
H887 C914 0.950 . S
H888 C917 0.950 . S
H889 C918 0.950 . S
H890 C920 0.950 . S
H891 C921 0.950 . S
C892 H874 0.951 . S
C892 C893 1.366 . S
C892 C894 1.388 . S
C893 C892 1.366 . S
C893 C897 1.385 . S
C894 H875 0.951 . S
C894 C892 1.388 . S
C894 C895 1.366 . S
C895 C894 1.366 . S
C895 C896 1.414 . S
C895 C898 1.499 . S
C896 H876 0.950 . S
C896 C895 1.414 . S
C896 C897 1.374 . S
C897 H877 0.950 . S
C897 C893 1.385 . S
C897 C896 1.374 . S
C898 C895 1.499 . S
C898 C899 1.373 . S
C898 C900 1.389 . S
C899 H878 0.950 . S
C899 C898 1.373 . S
C899 C915 1.377 . S
C900 C898 1.389 . S
C900 C901 1.524 . S
C900 C914 1.377 . S
C901 C900 1.524 . S
C901 C902 1.397 . S
C901 C906 1.363 . S
C902 H879 0.950 . S
C902 C901 1.397 . S
C902 C903 1.334 . S
C903 H880 0.950 . S
C903 C902 1.334 . S
C903 C904 1.287 . S
C904 C903 1.287 . S
C904 C905 1.524 . S
C904 H923 0.913 . S
C905 H881 0.950 . S
C905 C904 1.524 . S
C905 C906 1.415 . S
C906 H882 0.950 . S
C906 C901 1.363 . S
C906 C905 1.415 . S
C907 H883 0.951 . S
C907 C908 1.366 . S
C907 C909 1.388 . S
C908 C907 1.366 . S
C908 C912 1.385 . S
C909 H884 0.951 . S
C909 C907 1.388 . S
C909 C910 1.366 . S
C910 C909 1.366 . S
C910 C911 1.414 . S
C910 C913 1.499 . S
C911 H885 0.950 . S
C911 C910 1.414 . S
C911 C912 1.374 . S
C912 H886 0.950 . S
C912 C908 1.385 . S
C912 C911 1.374 . S
C913 C910 1.499 . S
C913 C914 1.373 . S
C913 C915 1.389 . S
C914 H887 0.950 . S
C914 C900 1.377 . S
C914 C913 1.373 . S
C915 C899 1.377 . S
C915 C913 1.389 . S
C915 C916 1.524 . S
C916 C915 1.524 . S
C916 C917 1.397 . S
C916 C921 1.363 . S
C917 H888 0.950 . S
C917 C916 1.397 . S
C917 C918 1.334 . S
C918 H889 0.950 . S
C918 C917 1.334 . S
C918 C919 1.287 . S
C919 C918 1.287 . S
C919 C920 1.524 . S
C919 H922 0.999 . S
C920 H890 0.950 . S
C920 C919 1.524 . S
C920 C921 1.415 . S
C921 H891 0.950 . S
C921 C916 1.363 . S
C921 C920 1.415 . S
H922 C919 0.999 . S
H923 C904 0.913 . S
H924 C942 0.951 . S
H925 C944 0.951 . S
H926 C946 0.950 . S
H927 C947 0.950 . S
H928 C949 0.950 . S
H929 C952 0.950 1_655 S
H930 C953 0.950 . S
H931 C955 0.950 . S
H932 C956 0.950 . S
H933 C957 0.951 . S
H934 C959 0.951 . S
H935 C961 0.950 . S
H936 C962 0.950 . S
H937 C964 0.950 . S
H938 C967 0.950 1_455 S
H939 C968 0.950 . S
H940 C970 0.950 . S
H941 C971 0.950 . S
C942 H924 0.951 . S
C942 C943 1.366 . S
C942 C944 1.388 . S
C943 C942 1.366 . S
C943 C947 1.385 . S
C944 H925 0.951 . S
C944 C942 1.388 . S
C944 C945 1.366 . S
C945 C944 1.366 . S
C945 C946 1.414 . S
C945 C948 1.499 . S
C946 H926 0.950 . S
C946 C945 1.414 . S
C946 C947 1.374 . S
C947 H927 0.950 . S
C947 C943 1.385 . S
C947 C946 1.374 . S
C948 C945 1.499 . S
C948 C949 1.373 . S
C948 C950 1.389 1_655 S
C949 H928 0.950 . S
C949 C948 1.373 . S
C949 C965 1.377 . S
C950 C948 1.389 1_455 S
C950 C951 1.524 . S
C950 C964 1.377 . S
C951 C950 1.524 . S
C951 C952 1.397 . S
C951 C956 1.363 . S
C952 H929 0.950 1_455 S
C952 C951 1.397 . S
C952 C953 1.334 . S
C953 H930 0.950 . S
C953 C952 1.334 . S
C953 C954 1.287 . S
C954 C953 1.287 . S
C954 C955 1.524 . S
C954 H973 0.913 . S
C955 H931 0.950 . S
C955 C954 1.524 . S
C955 C956 1.415 . S
C956 H932 0.950 . S
C956 C951 1.363 . S
C956 C955 1.415 . S
C957 H933 0.951 . S
C957 C958 1.366 . S
C957 C959 1.388 . S
C958 C957 1.366 . S
C958 C962 1.385 . S
C959 H934 0.951 . S
C959 C957 1.388 . S
C959 C960 1.366 . S
C960 C959 1.366 . S
C960 C961 1.414 . S
C960 C963 1.499 . S
C961 H935 0.950 . S
C961 C960 1.414 . S
C961 C962 1.374 . S
C962 H936 0.950 . S
C962 C958 1.385 . S
C962 C961 1.374 . S
C963 C960 1.499 . S
C963 C964 1.373 . S
C963 C965 1.389 1_455 S
C964 H937 0.950 . S
C964 C950 1.377 . S
C964 C963 1.373 . S
C965 C949 1.377 . S
C965 C963 1.389 1_655 S
C965 C966 1.524 . S
C966 C965 1.524 . S
C966 C967 1.397 . S
C966 C971 1.363 . S
C967 H938 0.950 1_655 S
C967 C966 1.397 . S
C967 C968 1.334 . S
C968 H939 0.950 . S
C968 C967 1.334 . S
C968 C969 1.287 . S
C969 C968 1.287 . S
C969 C970 1.524 . S
C969 H972 0.999 . S
C970 H940 0.950 . S
C970 C969 1.524 . S
C970 C971 1.415 . S
C971 H941 0.950 . S
C971 C966 1.363 . S
C971 C970 1.415 . S
H972 C969 0.999 . S
H973 C954 0.913 . S
H974 C992 0.951 . S
H975 C994 0.951 . S
H976 C996 0.950 . S
H977 C997 0.950 . S
H978 C999 0.950 . S
H979 C1002 0.950 . S
H980 C1003 0.950 . S
H981 C1005 0.950 . S
H982 C1006 0.950 . S
H983 C1007 0.951 . S
H984 C1009 0.951 . S
H985 C1011 0.950 . S
H986 C1012 0.950 . S
H987 C1014 0.950 . S
H988 C1017 0.950 . S
H989 C1018 0.950 . S
H990 C1020 0.950 . S
H991 C1021 0.950 . S
C992 H974 0.951 . S
C992 C993 1.366 . S
C992 C994 1.388 . S
C993 C992 1.366 . S
C993 C997 1.385 . S
C994 H975 0.951 . S
C994 C992 1.388 . S
C994 C995 1.366 . S
C995 C994 1.366 . S
C995 C996 1.414 . S
C995 C998 1.499 . S
C996 H976 0.950 . S
C996 C995 1.414 . S
C996 C997 1.374 . S
C997 H977 0.950 . S
C997 C993 1.385 . S
C997 C996 1.374 . S
C998 C995 1.499 . S
C998 C999 1.373 . S
C998 C1000 1.389 . S
C999 H978 0.950 . S
C999 C998 1.373 . S
C999 C1015 1.377 1_655 S
C1000 C998 1.389 . S
C1000 C1001 1.524 . S
C1000 C1014 1.377 1_655 S
C1001 C1000 1.524 . S
C1001 C1002 1.397 . S
C1001 C1006 1.363 . S
C1002 H979 0.950 . S
C1002 C1001 1.397 . S
C1002 C1003 1.334 . S
C1003 H980 0.950 . S
C1003 C1002 1.334 . S
C1003 C1004 1.287 . S
C1004 C1003 1.287 . S
C1004 C1005 1.524 . S
C1004 H1023 0.913 . S
C1005 H981 0.950 . S
C1005 C1004 1.524 . S
C1005 C1006 1.415 . S
C1006 H982 0.950 . S
C1006 C1001 1.363 . S
C1006 C1005 1.415 . S
C1007 H983 0.951 . S
C1007 C1008 1.366 . S
C1007 C1009 1.388 . S
C1008 C1007 1.366 . S
C1008 C1012 1.385 . S
C1009 H984 0.951 . S
C1009 C1007 1.388 . S
C1009 C1010 1.366 . S
C1010 C1009 1.366 . S
C1010 C1011 1.414 . S
C1010 C1013 1.499 . S
C1011 H985 0.950 . S
C1011 C1010 1.414 . S
C1011 C1012 1.374 . S
C1012 H986 0.950 . S
C1012 C1008 1.385 . S
C1012 C1011 1.374 . S
C1013 C1010 1.499 . S
C1013 C1014 1.373 . S
C1013 C1015 1.389 . S
C1014 H987 0.950 . S
C1014 C1000 1.377 1_455 S
C1014 C1013 1.373 . S
C1015 C999 1.377 1_455 S
C1015 C1013 1.389 . S
C1015 C1016 1.524 . S
C1016 C1015 1.524 . S
C1016 C1017 1.397 . S
C1016 C1021 1.363 . S
C1017 H988 0.950 . S
C1017 C1016 1.397 . S
C1017 C1018 1.334 . S
C1018 H989 0.950 . S
C1018 C1017 1.334 . S
C1018 C1019 1.287 . S
C1019 C1018 1.287 . S
C1019 C1020 1.524 . S
C1019 H1022 0.999 . S
C1020 H990 0.950 . S
C1020 C1019 1.524 . S
C1020 C1021 1.415 . S
C1021 H991 0.950 . S
C1021 C1016 1.363 . S
C1021 C1020 1.415 . S
H1022 C1019 0.999 . S
H1023 C1004 0.913 . S
H1024 C1042 0.951 . S
H1025 C1044 0.951 . S
H1026 C1046 0.950 . S
H1027 C1047 0.950 . S
H1028 C1049 0.950 . S
H1029 C1052 0.950 . S
H1030 C1053 0.950 . S
H1031 C1055 0.950 . S
H1032 C1056 0.950 . S
H1033 C1057 0.951 . S
H1034 C1059 0.951 . S
H1035 C1061 0.950 . S
H1036 C1062 0.950 . S
H1037 C1064 0.950 . S
H1038 C1067 0.950 . S
H1039 C1068 0.950 . S
H1040 C1070 0.950 . S
H1041 C1071 0.950 . S
C1042 H1024 0.951 . S
C1042 C1043 1.366 . S
C1042 C1044 1.388 . S
C1043 C1042 1.366 . S
C1043 C1047 1.385 . S
C1044 H1025 0.951 . S
C1044 C1042 1.388 . S
C1044 C1045 1.366 . S
C1045 C1044 1.366 . S
C1045 C1046 1.414 . S
C1045 C1048 1.499 . S
C1046 H1026 0.950 . S
C1046 C1045 1.414 . S
C1046 C1047 1.374 . S
C1047 H1027 0.950 . S
C1047 C1043 1.385 . S
C1047 C1046 1.374 . S
C1048 C1045 1.499 . S
C1048 C1049 1.373 . S
C1048 C1050 1.389 . S
C1049 H1028 0.950 . S
C1049 C1048 1.373 . S
C1049 C1065 1.377 . S
C1050 C1048 1.389 . S
C1050 C1051 1.524 . S
C1050 C1064 1.377 . S
C1051 C1050 1.524 . S
C1051 C1052 1.397 . S
C1051 C1056 1.363 . S
C1052 H1029 0.950 . S
C1052 C1051 1.397 . S
C1052 C1053 1.334 . S
C1053 H1030 0.950 . S
C1053 C1052 1.334 . S
C1053 C1054 1.287 . S
C1054 C1053 1.287 . S
C1054 C1055 1.524 . S
C1054 H1073 0.913 . S
C1055 H1031 0.950 . S
C1055 C1054 1.524 . S
C1055 C1056 1.415 . S
C1056 H1032 0.950 . S
C1056 C1051 1.363 . S
C1056 C1055 1.415 . S
C1057 H1033 0.951 . S
C1057 C1058 1.366 . S
C1057 C1059 1.388 . S
C1058 C1057 1.366 . S
C1058 C1062 1.385 . S
C1059 H1034 0.951 . S
C1059 C1057 1.388 . S
C1059 C1060 1.366 . S
C1060 C1059 1.366 . S
C1060 C1061 1.414 . S
C1060 C1063 1.499 . S
C1061 H1035 0.950 . S
C1061 C1060 1.414 . S
C1061 C1062 1.374 . S
C1062 H1036 0.950 . S
C1062 C1058 1.385 . S
C1062 C1061 1.374 . S
C1063 C1060 1.499 . S
C1063 C1064 1.373 . S
C1063 C1065 1.389 . S
C1064 H1037 0.950 . S
C1064 C1050 1.377 . S
C1064 C1063 1.373 . S
C1065 C1049 1.377 . S
C1065 C1063 1.389 . S
C1065 C1066 1.524 . S
C1066 C1065 1.524 . S
C1066 C1067 1.397 . S
C1066 C1071 1.363 . S
C1067 H1038 0.950 . S
C1067 C1066 1.397 . S
C1067 C1068 1.334 . S
C1068 H1039 0.950 . S
C1068 C1067 1.334 . S
C1068 C1069 1.287 . S
C1069 C1068 1.287 . S
C1069 C1070 1.524 . S
C1069 H1072 0.999 . S
C1070 H1040 0.950 . S
C1070 C1069 1.524 . S
C1070 C1071 1.415 . S
C1071 H1041 0.950 . S
C1071 C1066 1.363 . S
C1071 C1070 1.415 . S
H1072 C1069 0.999 . S
H1073 C1054 0.913 . S
H1074 C1092 0.951 . S
H1075 C1094 0.951 . S
H1076 C1096 0.950 . S
H1077 C1097 0.950 . S
H1078 C1099 0.950 . S
H1079 C1102 0.950 . S
H1080 C1103 0.950 . S
H1081 C1105 0.950 . S
H1082 C1106 0.950 . S
H1083 C1107 0.951 . S
H1084 C1109 0.951 . S
H1085 C1111 0.950 . S
H1086 C1112 0.950 . S
H1087 C1114 0.950 . S
H1088 C1117 0.950 . S
H1089 C1118 0.950 . S
H1090 C1120 0.950 . S
H1091 C1121 0.950 . S
C1092 H1074 0.951 . S
C1092 C1093 1.366 . S
C1092 C1094 1.388 . S
C1093 C1092 1.366 . S
C1093 C1097 1.385 . S
C1094 H1075 0.951 . S
C1094 C1092 1.388 . S
C1094 C1095 1.366 . S
C1095 C1094 1.366 . S
C1095 C1096 1.414 . S
C1095 C1098 1.499 . S
C1096 H1076 0.950 . S
C1096 C1095 1.414 . S
C1096 C1097 1.374 . S
C1097 H1077 0.950 . S
C1097 C1093 1.385 . S
C1097 C1096 1.374 . S
C1098 C1095 1.499 . S
C1098 C1099 1.373 . S
C1098 C1100 1.389 1_545 S
C1099 H1078 0.950 . S
C1099 C1098 1.373 . S
C1099 C1115 1.377 1_545 S
C1100 C1098 1.389 1_565 S
C1100 C1101 1.524 . S
C1100 C1114 1.377 . S
C1101 C1100 1.524 . S
C1101 C1102 1.397 1_565 S
C1101 C1106 1.363 . S
C1102 H1079 0.950 . S
C1102 C1101 1.397 1_545 S
C1102 C1103 1.334 . S
C1103 H1080 0.950 . S
C1103 C1102 1.334 . S
C1103 C1104 1.287 1_545 S
C1104 C1103 1.287 1_565 S
C1104 C1105 1.524 . S
C1104 H1123 0.913 . S
C1105 H1081 0.950 . S
C1105 C1104 1.524 . S
C1105 C1106 1.415 . S
C1106 H1082 0.950 . S
C1106 C1101 1.363 . S
C1106 C1105 1.415 . S
C1107 H1083 0.951 . S
C1107 C1108 1.366 . S
C1107 C1109 1.388 . S
C1108 C1107 1.366 . S
C1108 C1112 1.385 . S
C1109 H1084 0.951 . S
C1109 C1107 1.388 . S
C1109 C1110 1.366 . S
C1110 C1109 1.366 . S
C1110 C1111 1.414 . S
C1110 C1113 1.499 . S
C1111 H1085 0.950 . S
C1111 C1110 1.414 . S
C1111 C1112 1.374 . S
C1112 H1086 0.950 . S
C1112 C1108 1.385 . S
C1112 C1111 1.374 . S
C1113 C1110 1.499 . S
C1113 C1114 1.373 . S
C1113 C1115 1.389 . S
C1114 H1087 0.950 . S
C1114 C1100 1.377 . S
C1114 C1113 1.373 . S
C1115 C1099 1.377 1_565 S
C1115 C1113 1.389 . S
C1115 C1116 1.524 . S
C1116 C1115 1.524 . S
C1116 C1117 1.397 . S
C1116 C1121 1.363 1_565 S
C1117 H1088 0.950 . S
C1117 C1116 1.397 . S
C1117 C1118 1.334 . S
C1118 H1089 0.950 . S
C1118 C1117 1.334 . S
C1118 C1119 1.287 . S
C1119 C1118 1.287 . S
C1119 C1120 1.524 1_565 S
C1119 H1122 0.999 . S
C1120 H1090 0.950 . S
C1120 C1119 1.524 1_545 S
C1120 C1121 1.415 . S
C1121 H1091 0.950 . S
C1121 C1116 1.363 1_545 S
C1121 C1120 1.415 . S
H1122 C1119 0.999 . S
H1123 C1104 0.913 . S
H1124 C1142 0.951 . S
H1125 C1144 0.951 . S
H1126 C1146 0.950 . S
H1127 C1147 0.950 . S
H1128 C1149 0.950 . S
H1129 C1152 0.950 . S
H1130 C1153 0.950 . S
H1131 C1155 0.950 . S
H1132 C1156 0.950 . S
H1133 C1157 0.951 . S
H1134 C1159 0.951 . S
H1135 C1161 0.950 . S
H1136 C1162 0.950 . S
H1137 C1164 0.950 . S
H1138 C1167 0.950 . S
H1139 C1168 0.950 . S
H1140 C1170 0.950 . S
H1141 C1171 0.950 . S
C1142 H1124 0.951 . S
C1142 C1143 1.366 . S
C1142 C1144 1.388 . S
C1143 C1142 1.366 . S
C1143 C1147 1.385 . S
C1144 H1125 0.951 . S
C1144 C1142 1.388 . S
C1144 C1145 1.366 . S
C1145 C1144 1.366 . S
C1145 C1146 1.414 . S
C1145 C1148 1.499 . S
C1146 H1126 0.950 . S
C1146 C1145 1.414 . S
C1146 C1147 1.374 . S
C1147 H1127 0.950 . S
C1147 C1143 1.385 . S
C1147 C1146 1.374 . S
C1148 C1145 1.499 . S
C1148 C1149 1.373 . S
C1148 C1150 1.389 . S
C1149 H1128 0.950 . S
C1149 C1148 1.373 . S
C1149 C1165 1.377 . S
C1150 C1148 1.389 . S
C1150 C1151 1.524 . S
C1150 C1164 1.377 . S
C1151 C1150 1.524 . S
C1151 C1152 1.397 . S
C1151 C1156 1.363 . S
C1152 H1129 0.950 . S
C1152 C1151 1.397 . S
C1152 C1153 1.334 . S
C1153 H1130 0.950 . S
C1153 C1152 1.334 . S
C1153 C1154 1.287 . S
C1154 C1153 1.287 . S
C1154 C1155 1.524 . S
C1154 H1173 0.913 . S
C1155 H1131 0.950 . S
C1155 C1154 1.524 . S
C1155 C1156 1.415 . S
C1156 H1132 0.950 . S
C1156 C1151 1.363 . S
C1156 C1155 1.415 . S
C1157 H1133 0.951 . S
C1157 C1158 1.366 . S
C1157 C1159 1.388 . S
C1158 C1157 1.366 . S
C1158 C1162 1.385 . S
C1159 H1134 0.951 . S
C1159 C1157 1.388 . S
C1159 C1160 1.366 . S
C1160 C1159 1.366 . S
C1160 C1161 1.414 . S
C1160 C1163 1.499 . S
C1161 H1135 0.950 . S
C1161 C1160 1.414 . S
C1161 C1162 1.374 . S
C1162 H1136 0.950 . S
C1162 C1158 1.385 . S
C1162 C1161 1.374 . S
C1163 C1160 1.499 . S
C1163 C1164 1.373 . S
C1163 C1165 1.389 . S
C1164 H1137 0.950 . S
C1164 C1150 1.377 . S
C1164 C1163 1.373 . S
C1165 C1149 1.377 . S
C1165 C1163 1.389 . S
C1165 C1166 1.524 . S
C1166 C1165 1.524 . S
C1166 C1167 1.397 . S
C1166 C1171 1.363 . S
C1167 H1138 0.950 . S
C1167 C1166 1.397 . S
C1167 C1168 1.334 . S
C1168 H1139 0.950 . S
C1168 C1167 1.334 . S
C1168 C1169 1.287 . S
C1169 C1168 1.287 . S
C1169 C1170 1.524 . S
C1169 H1172 0.999 . S
C1170 H1140 0.950 . S
C1170 C1169 1.524 . S
C1170 C1171 1.415 . S
C1171 H1141 0.950 . S
C1171 C1166 1.363 . S
C1171 C1170 1.415 . S
H1172 C1169 0.999 . S
H1173 C1154 0.913 . S
H1174 C1192 0.951 . S
H1175 C1194 0.951 . S
H1176 C1196 0.950 . S
H1177 C1197 0.950 . S
H1178 C1199 0.950 . S
H1179 C1202 0.950 . S
H1180 C1203 0.950 . S
H1181 C1205 0.950 . S
H1182 C1206 0.950 . S
H1183 C1207 0.951 . S
H1184 C1209 0.951 . S
H1185 C1211 0.950 . S
H1186 C1212 0.950 . S
H1187 C1214 0.950 1_556 S
H1188 C1217 0.950 . S
H1189 C1218 0.950 . S
H1190 C1220 0.950 . S
H1191 C1221 0.950 . S
C1192 H1174 0.951 . S
C1192 C1193 1.366 . S
C1192 C1194 1.388 . S
C1193 C1192 1.366 . S
C1193 C1197 1.385 . S
C1194 H1175 0.951 . S
C1194 C1192 1.388 . S
C1194 C1195 1.366 . S
C1195 C1194 1.366 . S
C1195 C1196 1.414 . S
C1195 C1198 1.499 . S
C1196 H1176 0.950 . S
C1196 C1195 1.414 . S
C1196 C1197 1.374 . S
C1197 H1177 0.950 . S
C1197 C1193 1.385 . S
C1197 C1196 1.374 . S
C1198 C1195 1.499 . S
C1198 C1199 1.373 . S
C1198 C1200 1.389 . S
C1199 H1178 0.950 . S
C1199 C1198 1.373 . S
C1199 C1215 1.377 . S
C1200 C1198 1.389 . S
C1200 C1201 1.524 . S
C1200 C1214 1.377 . S
C1201 C1200 1.524 . S
C1201 C1202 1.397 . S
C1201 C1206 1.363 . S
C1202 H1179 0.950 . S
C1202 C1201 1.397 . S
C1202 C1203 1.334 . S
C1203 H1180 0.950 . S
C1203 C1202 1.334 . S
C1203 C1204 1.287 . S
C1204 C1203 1.287 . S
C1204 C1205 1.524 . S
C1204 H1223 0.913 . S
C1205 H1181 0.950 . S
C1205 C1204 1.524 . S
C1205 C1206 1.415 . S
C1206 H1182 0.950 . S
C1206 C1201 1.363 . S
C1206 C1205 1.415 . S
C1207 H1183 0.951 . S
C1207 C1208 1.366 . S
C1207 C1209 1.388 . S
C1208 C1207 1.366 . S
C1208 C1212 1.385 . S
C1209 H1184 0.951 . S
C1209 C1207 1.388 . S
C1209 C1210 1.366 . S
C1210 C1209 1.366 . S
C1210 C1211 1.414 . S
C1210 C1213 1.499 . S
C1211 H1185 0.950 . S
C1211 C1210 1.414 . S
C1211 C1212 1.374 . S
C1212 H1186 0.950 . S
C1212 C1208 1.385 . S
C1212 C1211 1.374 . S
C1213 C1210 1.499 . S
C1213 C1214 1.373 1_556 S
C1213 C1215 1.389 1_556 S
C1214 H1187 0.950 1_554 S
C1214 C1200 1.377 . S
C1214 C1213 1.373 1_554 S
C1215 C1199 1.377 . S
C1215 C1213 1.389 1_554 S
C1215 C1216 1.524 . S
C1216 C1215 1.524 . S
C1216 C1217 1.397 1_554 S
C1216 C1221 1.363 . S
C1217 H1188 0.950 . S
C1217 C1216 1.397 1_556 S
C1217 C1218 1.334 . S
C1218 H1189 0.950 . S
C1218 C1217 1.334 . S
C1218 C1219 1.287 1_556 S
C1219 C1218 1.287 1_554 S
C1219 C1220 1.524 . S
C1219 H1222 0.999 . S
C1220 H1190 0.950 . S
C1220 C1219 1.524 . S
C1220 C1221 1.415 . S
C1221 H1191 0.950 . S
C1221 C1216 1.363 . S
C1221 C1220 1.415 . S
H1222 C1219 0.999 . S
H1223 C1204 0.913 . S
H1224 C1242 0.951 . S
H1225 C1244 0.951 . S
H1226 C1246 0.950 . S
H1227 C1247 0.950 . S
H1228 C1249 0.950 . S
H1229 C1252 0.950 . S
H1230 C1253 0.950 . S
H1231 C1255 0.950 . S
H1232 C1256 0.950 . S
H1233 C1257 0.951 . S
H1234 C1259 0.951 . S
H1235 C1261 0.950 . S
H1236 C1262 0.950 . S
H1237 C1264 0.950 . S
H1238 C1267 0.950 . S
H1239 C1268 0.950 . S
H1240 C1270 0.950 . S
H1241 C1271 0.950 . S
C1242 H1224 0.951 . S
C1242 C1243 1.366 . S
C1242 C1244 1.388 . S
C1243 C1242 1.366 . S
C1243 C1247 1.385 . S
C1244 H1225 0.951 . S
C1244 C1242 1.388 . S
C1244 C1245 1.366 . S
C1245 C1244 1.366 . S
C1245 C1246 1.414 . S
C1245 C1248 1.499 . S
C1246 H1226 0.950 . S
C1246 C1245 1.414 . S
C1246 C1247 1.374 . S
C1247 H1227 0.950 . S
C1247 C1243 1.385 . S
C1247 C1246 1.374 . S
C1248 C1245 1.499 . S
C1248 C1249 1.373 1_556 S
C1248 C1250 1.389 1_556 S
C1249 H1228 0.950 . S
C1249 C1248 1.373 1_554 S
C1249 C1265 1.377 . S
C1250 C1248 1.389 1_554 S
C1250 C1251 1.524 1_554 S
C1250 C1264 1.377 . S
C1251 C1250 1.524 1_556 S
C1251 C1252 1.397 . S
C1251 C1256 1.363 . S
C1252 H1229 0.950 . S
C1252 C1251 1.397 . S
C1252 C1253 1.334 . S
C1253 H1230 0.950 . S
C1253 C1252 1.334 . S
C1253 C1254 1.287 . S
C1254 C1253 1.287 . S
C1254 C1255 1.524 . S
C1254 H1273 0.913 . S
C1255 H1231 0.950 . S
C1255 C1254 1.524 . S
C1255 C1256 1.415 . S
C1256 H1232 0.950 . S
C1256 C1251 1.363 . S
C1256 C1255 1.415 . S
C1257 H1233 0.951 . S
C1257 C1258 1.366 . S
C1257 C1259 1.388 . S
C1258 C1257 1.366 . S
C1258 C1262 1.385 . S
C1259 H1234 0.951 . S
C1259 C1257 1.388 . S
C1259 C1260 1.366 . S
C1260 C1259 1.366 . S
C1260 C1261 1.414 . S
C1260 C1263 1.499 . S
C1261 H1235 0.950 . S
C1261 C1260 1.414 . S
C1261 C1262 1.374 . S
C1262 H1236 0.950 . S
C1262 C1258 1.385 . S
C1262 C1261 1.374 . S
C1263 C1260 1.499 . S
C1263 C1264 1.373 . S
C1263 C1265 1.389 . S
C1264 H1237 0.950 . S
C1264 C1250 1.377 . S
C1264 C1263 1.373 . S
C1265 C1249 1.377 . S
C1265 C1263 1.389 . S
C1265 C1266 1.524 . S
C1266 C1265 1.524 . S
C1266 C1267 1.397 . S
C1266 C1271 1.363 . S
C1267 H1238 0.950 . S
C1267 C1266 1.397 . S
C1267 C1268 1.334 . S
C1268 H1239 0.950 . S
C1268 C1267 1.334 . S
C1268 C1269 1.287 . S
C1269 C1268 1.287 . S
C1269 C1270 1.524 . S
C1269 H1272 0.999 . S
C1270 H1240 0.950 . S
C1270 C1269 1.524 . S
C1270 C1271 1.415 . S
C1271 H1241 0.950 . S
C1271 C1266 1.363 . S
C1271 C1270 1.415 . S
H1272 C1269 0.999 . S
H1273 C1254 0.913 . S
H1274 C1292 0.951 . S
H1275 C1294 0.951 . S
H1276 C1296 0.950 . S
H1277 C1297 0.950 . S
H1278 C1299 0.950 . S
H1279 C1302 0.950 . S
H1280 C1303 0.950 . S
H1281 C1305 0.950 . S
H1282 C1306 0.950 . S
H1283 C1307 0.951 . S
H1284 C1309 0.951 . S
H1285 C1311 0.950 . S
H1286 C1312 0.950 . S
H1287 C1314 0.950 . S
H1288 C1317 0.950 . S
H1289 C1318 0.950 . S
H1290 C1320 0.950 . S
H1291 C1321 0.950 . S
C1292 H1274 0.951 . S
C1292 C1293 1.366 . S
C1292 C1294 1.388 . S
C1293 C1292 1.366 . S
C1293 C1297 1.385 . S
C1294 H1275 0.951 . S
C1294 C1292 1.388 . S
C1294 C1295 1.366 . S
C1295 C1294 1.366 . S
C1295 C1296 1.414 . S
C1295 C1298 1.499 . S
C1296 H1276 0.950 . S
C1296 C1295 1.414 . S
C1296 C1297 1.374 . S
C1297 H1277 0.950 . S
C1297 C1293 1.385 . S
C1297 C1296 1.374 . S
C1298 C1295 1.499 . S
C1298 C1299 1.373 . S
C1298 C1300 1.389 . S
C1299 H1278 0.950 . S
C1299 C1298 1.373 . S
C1299 C1315 1.377 . S
C1300 C1298 1.389 . S
C1300 C1301 1.524 . S
C1300 C1314 1.377 . S
C1301 C1300 1.524 . S
C1301 C1302 1.397 . S
C1301 C1306 1.363 . S
C1302 H1279 0.950 . S
C1302 C1301 1.397 . S
C1302 C1303 1.334 . S
C1303 H1280 0.950 . S
C1303 C1302 1.334 . S
C1303 C1304 1.287 . S
C1304 C1303 1.287 . S
C1304 C1305 1.524 . S
C1304 H1323 0.913 . S
C1305 H1281 0.950 . S
C1305 C1304 1.524 . S
C1305 C1306 1.415 . S
C1306 H1282 0.950 . S
C1306 C1301 1.363 . S
C1306 C1305 1.415 . S
C1307 H1283 0.951 . S
C1307 C1308 1.366 . S
C1307 C1309 1.388 . S
C1308 C1307 1.366 . S
C1308 C1312 1.385 . S
C1309 H1284 0.951 . S
C1309 C1307 1.388 . S
C1309 C1310 1.366 . S
C1310 C1309 1.366 . S
C1310 C1311 1.414 . S
C1310 C1313 1.499 . S
C1311 H1285 0.950 . S
C1311 C1310 1.414 . S
C1311 C1312 1.374 . S
C1312 H1286 0.950 . S
C1312 C1308 1.385 . S
C1312 C1311 1.374 . S
C1313 C1310 1.499 . S
C1313 C1314 1.373 . S
C1313 C1315 1.389 . S
C1314 H1287 0.950 . S
C1314 C1300 1.377 . S
C1314 C1313 1.373 . S
C1315 C1299 1.377 . S
C1315 C1313 1.389 . S
C1315 C1316 1.524 . S
C1316 C1315 1.524 . S
C1316 C1317 1.397 . S
C1316 C1321 1.363 . S
C1317 H1288 0.950 . S
C1317 C1316 1.397 . S
C1317 C1318 1.334 . S
C1318 H1289 0.950 . S
C1318 C1317 1.334 . S
C1318 C1319 1.287 . S
C1319 C1318 1.287 . S
C1319 C1320 1.524 . S
C1319 H1322 0.999 . S
C1320 H1290 0.950 . S
C1320 C1319 1.524 . S
C1320 C1321 1.415 . S
C1321 H1291 0.950 . S
C1321 C1316 1.363 . S
C1321 C1320 1.415 . S
H1322 C1319 0.999 . S
H1323 C1304 0.913 . S
H1324 C1342 0.951 . S
H1325 C1344 0.951 . S
H1326 C1346 0.950 . S
H1327 C1347 0.950 . S
H1328 C1349 0.950 . S
H1329 C1352 0.950 . S
H1330 C1353 0.950 . S
H1331 C1355 0.950 . S
H1332 C1356 0.950 . S
H1333 C1357 0.951 . S
H1334 C1359 0.951 . S
H1335 C1361 0.950 . S
H1336 C1362 0.950 . S
H1337 C1364 0.950 . S
H1338 C1367 0.950 . S
H1339 C1368 0.950 . S
H1340 C1370 0.950 . S
H1341 C1371 0.950 . S
C1342 H1324 0.951 . S
C1342 C1343 1.366 . S
C1342 C1344 1.388 . S
C1343 C1342 1.366 . S
C1343 C1347 1.385 . S
C1344 H1325 0.951 . S
C1344 C1342 1.388 . S
C1344 C1345 1.366 . S
C1345 C1344 1.366 . S
C1345 C1346 1.414 . S
C1345 C1348 1.499 . S
C1346 H1326 0.950 . S
C1346 C1345 1.414 . S
C1346 C1347 1.374 . S
C1347 H1327 0.950 . S
C1347 C1343 1.385 . S
C1347 C1346 1.374 . S
C1348 C1345 1.499 . S
C1348 C1349 1.373 . S
C1348 C1350 1.389 . S
C1349 H1328 0.950 . S
C1349 C1348 1.373 . S
C1349 C1365 1.377 . S
C1350 C1348 1.389 . S
C1350 C1351 1.524 . S
C1350 C1364 1.377 . S
C1351 C1350 1.524 . S
C1351 C1352 1.397 . S
C1351 C1356 1.363 . S
C1352 H1329 0.950 . S
C1352 C1351 1.397 . S
C1352 C1353 1.334 . S
C1353 H1330 0.950 . S
C1353 C1352 1.334 . S
C1353 C1354 1.287 . S
C1354 C1353 1.287 . S
C1354 C1355 1.524 . S
C1354 H1373 0.913 . S
C1355 H1331 0.950 . S
C1355 C1354 1.524 . S
C1355 C1356 1.415 . S
C1356 H1332 0.950 . S
C1356 C1351 1.363 . S
C1356 C1355 1.415 . S
C1357 H1333 0.951 . S
C1357 C1358 1.366 . S
C1357 C1359 1.388 . S
C1358 C1357 1.366 . S
C1358 C1362 1.385 . S
C1359 H1334 0.951 . S
C1359 C1357 1.388 . S
C1359 C1360 1.366 . S
C1360 C1359 1.366 . S
C1360 C1361 1.414 . S
C1360 C1363 1.499 . S
C1361 H1335 0.950 . S
C1361 C1360 1.414 . S
C1361 C1362 1.374 . S
C1362 H1336 0.950 . S
C1362 C1358 1.385 . S
C1362 C1361 1.374 . S
C1363 C1360 1.499 . S
C1363 C1364 1.373 . S
C1363 C1365 1.389 . S
C1364 H1337 0.950 . S
C1364 C1350 1.377 . S
C1364 C1363 1.373 . S
C1365 C1349 1.377 . S
C1365 C1363 1.389 . S
C1365 C1366 1.524 . S
C1366 C1365 1.524 . S
C1366 C1367 1.397 . S
C1366 C1371 1.363 . S
C1367 H1338 0.950 . S
C1367 C1366 1.397 . S
C1367 C1368 1.334 . S
C1368 H1339 0.950 . S
C1368 C1367 1.334 . S
C1368 C1369 1.287 . S
C1369 C1368 1.287 . S
C1369 C1370 1.524 . S
C1369 H1372 0.999 . S
C1370 H1340 0.950 . S
C1370 C1369 1.524 . S
C1370 C1371 1.415 . S
C1371 H1341 0.950 . S
C1371 C1366 1.363 . S
C1371 C1370 1.415 . S
H1372 C1369 0.999 . S
H1373 C1354 0.913 . S
H1374 C1392 0.951 . S
H1375 C1394 0.951 . S
H1376 C1396 0.950 . S
H1377 C1397 0.950 . S
H1378 C1399 0.950 . S
H1379 C1402 0.950 . S
H1380 C1403 0.950 . S
H1381 C1405 0.950 . S
H1382 C1406 0.950 . S
H1383 C1407 0.951 . S
H1384 C1409 0.951 . S
H1385 C1411 0.950 . S
H1386 C1412 0.950 . S
H1387 C1414 0.950 . S
H1388 C1417 0.950 . S
H1389 C1418 0.950 . S
H1390 C1420 0.950 . S
H1391 C1421 0.950 . S
C1392 H1374 0.951 . S
C1392 C1393 1.366 . S
C1392 C1394 1.388 . S
C1393 C1392 1.366 . S
C1393 C1397 1.385 . S
C1394 H1375 0.951 . S
C1394 C1392 1.388 . S
C1394 C1395 1.366 . S
C1395 C1394 1.366 . S
C1395 C1396 1.414 . S
C1395 C1398 1.499 . S
C1396 H1376 0.950 . S
C1396 C1395 1.414 . S
C1396 C1397 1.374 . S
C1397 H1377 0.950 . S
C1397 C1393 1.385 . S
C1397 C1396 1.374 . S
C1398 C1395 1.499 . S
C1398 C1399 1.373 1_455 S
C1398 C1400 1.389 . S
C1399 H1378 0.950 . S
C1399 C1398 1.373 1_655 S
C1399 C1415 1.377 . S
C1400 C1398 1.389 . S
C1400 C1401 1.524 . S
C1400 C1414 1.377 . S
C1401 C1400 1.524 . S
C1401 C1402 1.397 . S
C1401 C1406 1.363 . S
C1402 H1379 0.950 . S
C1402 C1401 1.397 . S
C1402 C1403 1.334 . S
C1403 H1380 0.950 . S
C1403 C1402 1.334 . S
C1403 C1404 1.287 . S
C1404 C1403 1.287 . S
C1404 C1405 1.524 . S
C1404 H1423 0.913 . S
C1405 H1381 0.950 . S
C1405 C1404 1.524 . S
C1405 C1406 1.415 . S
C1406 H1382 0.950 . S
C1406 C1401 1.363 . S
C1406 C1405 1.415 . S
C1407 H1383 0.951 . S
C1407 C1408 1.366 . S
C1407 C1409 1.388 . S
C1408 C1407 1.366 . S
C1408 C1412 1.385 . S
C1409 H1384 0.951 . S
C1409 C1407 1.388 . S
C1409 C1410 1.366 . S
C1410 C1409 1.366 . S
C1410 C1411 1.414 . S
C1410 C1413 1.499 . S
C1411 H1385 0.950 . S
C1411 C1410 1.414 . S
C1411 C1412 1.374 . S
C1412 H1386 0.950 . S
C1412 C1408 1.385 . S
C1412 C1411 1.374 . S
C1413 C1410 1.499 . S
C1413 C1414 1.373 1_655 S
C1413 C1415 1.389 . S
C1414 H1387 0.950 . S
C1414 C1400 1.377 . S
C1414 C1413 1.373 1_455 S
C1415 C1399 1.377 . S
C1415 C1413 1.389 . S
C1415 C1416 1.524 . S
C1416 C1415 1.524 . S
C1416 C1417 1.397 . S
C1416 C1421 1.363 . S
C1417 H1388 0.950 . S
C1417 C1416 1.397 . S
C1417 C1418 1.334 . S
C1418 H1389 0.950 . S
C1418 C1417 1.334 . S
C1418 C1419 1.287 . S
C1419 C1418 1.287 . S
C1419 C1420 1.524 . S
C1419 H1422 0.999 . S
C1420 H1390 0.950 . S
C1420 C1419 1.524 . S
C1420 C1421 1.415 . S
C1421 H1391 0.950 . S
C1421 C1416 1.363 . S
C1421 C1420 1.415 . S
H1422 C1419 0.999 . S
H1423 C1404 0.913 . S
H1424 C1442 0.951 . S
H1425 C1444 0.951 . S
H1426 C1446 0.950 . S
H1427 C1447 0.950 . S
H1428 C1449 0.950 . S
H1429 C1452 0.950 . S
H1430 C1453 0.950 . S
H1431 C1455 0.950 . S
H1432 C1456 0.950 . S
H1433 C1457 0.951 . S
H1434 C1459 0.951 . S
H1435 C1461 0.950 . S
H1436 C1462 0.950 . S
H1437 C1464 0.950 . S
H1438 C1467 0.950 . S
H1439 C1468 0.950 . S
H1440 C1470 0.950 . S
H1441 C1471 0.950 . S
C1442 H1424 0.951 . S
C1442 C1443 1.366 . S
C1442 C1444 1.388 . S
C1443 C1442 1.366 . S
C1443 C1447 1.385 . S
C1444 H1425 0.951 . S
C1444 C1442 1.388 . S
C1444 C1445 1.366 . S
C1445 C1444 1.366 . S
C1445 C1446 1.414 . S
C1445 C1448 1.499 . S
C1446 H1426 0.950 . S
C1446 C1445 1.414 . S
C1446 C1447 1.374 . S
C1447 H1427 0.950 . S
C1447 C1443 1.385 . S
C1447 C1446 1.374 . S
C1448 C1445 1.499 . S
C1448 C1449 1.373 . S
C1448 C1450 1.389 . S
C1449 H1428 0.950 . S
C1449 C1448 1.373 . S
C1449 C1465 1.377 1_455 S
C1450 C1448 1.389 . S
C1450 C1451 1.524 . S
C1450 C1464 1.377 1_455 S
C1451 C1450 1.524 . S
C1451 C1452 1.397 . S
C1451 C1456 1.363 1_455 S
C1452 H1429 0.950 . S
C1452 C1451 1.397 . S
C1452 C1453 1.334 . S
C1453 H1430 0.950 . S
C1453 C1452 1.334 . S
C1453 C1454 1.287 . S
C1454 C1453 1.287 . S
C1454 C1455 1.524 1_455 S
C1454 H1473 0.913 . S
C1455 H1431 0.950 . S
C1455 C1454 1.524 1_655 S
C1455 C1456 1.415 . S
C1456 H1432 0.950 . S
C1456 C1451 1.363 1_655 S
C1456 C1455 1.415 . S
C1457 H1433 0.951 . S
C1457 C1458 1.366 . S
C1457 C1459 1.388 . S
C1458 C1457 1.366 . S
C1458 C1462 1.385 . S
C1459 H1434 0.951 . S
C1459 C1457 1.388 . S
C1459 C1460 1.366 . S
C1460 C1459 1.366 . S
C1460 C1461 1.414 . S
C1460 C1463 1.499 . S
C1461 H1435 0.950 . S
C1461 C1460 1.414 . S
C1461 C1462 1.374 . S
C1462 H1436 0.950 . S
C1462 C1458 1.385 . S
C1462 C1461 1.374 . S
C1463 C1460 1.499 . S
C1463 C1464 1.373 . S
C1463 C1465 1.389 . S
C1464 H1437 0.950 . S
C1464 C1450 1.377 1_655 S
C1464 C1463 1.373 . S
C1465 C1449 1.377 1_655 S
C1465 C1463 1.389 . S
C1465 C1466 1.524 . S
C1466 C1465 1.524 . S
C1466 C1467 1.397 . S
C1466 C1471 1.363 1_655 S
C1467 H1438 0.950 . S
C1467 C1466 1.397 . S
C1467 C1468 1.334 . S
C1468 H1439 0.950 . S
C1468 C1467 1.334 . S
C1468 C1469 1.287 . S
C1469 C1468 1.287 . S
C1469 C1470 1.524 1_655 S
C1469 H1472 0.999 . S
C1470 H1440 0.950 . S
C1470 C1469 1.524 1_455 S
C1470 C1471 1.415 . S
C1471 H1441 0.950 . S
C1471 C1466 1.363 1_455 S
C1471 C1470 1.415 . S
H1472 C1469 0.999 . S
H1473 C1454 0.913 . S
H1474 C1492 0.951 . S
H1475 C1494 0.951 . S
H1476 C1496 0.950 . S
H1477 C1497 0.950 . S
H1478 C1499 0.950 . S
H1479 C1502 0.950 . S
H1480 C1503 0.950 . S
H1481 C1505 0.950 . S
H1482 C1506 0.950 . S
H1483 C1507 0.951 . S
H1484 C1509 0.951 . S
H1485 C1511 0.950 . S
H1486 C1512 0.950 . S
H1487 C1514 0.950 . S
H1488 C1517 0.950 . S
H1489 C1518 0.950 . S
H1490 C1520 0.950 . S
H1491 C1521 0.950 . S
C1492 H1474 0.951 . S
C1492 C1493 1.366 . S
C1492 C1494 1.388 . S
C1493 C1492 1.366 . S
C1493 C1497 1.385 . S
C1494 H1475 0.951 . S
C1494 C1492 1.388 . S
C1494 C1495 1.366 . S
C1495 C1494 1.366 . S
C1495 C1496 1.414 . S
C1495 C1498 1.499 . S
C1496 H1476 0.950 . S
C1496 C1495 1.414 . S
C1496 C1497 1.374 . S
C1497 H1477 0.950 . S
C1497 C1493 1.385 . S
C1497 C1496 1.374 . S
C1498 C1495 1.499 . S
C1498 C1499 1.373 . S
C1498 C1500 1.389 . S
C1499 H1478 0.950 . S
C1499 C1498 1.373 . S
C1499 C1515 1.377 . S
C1500 C1498 1.389 . S
C1500 C1501 1.524 . S
C1500 C1514 1.377 . S
C1501 C1500 1.524 . S
C1501 C1502 1.397 . S
C1501 C1506 1.363 . S
C1502 H1479 0.950 . S
C1502 C1501 1.397 . S
C1502 C1503 1.334 . S
C1503 H1480 0.950 . S
C1503 C1502 1.334 . S
C1503 C1504 1.287 . S
C1504 C1503 1.287 . S
C1504 C1505 1.524 . S
C1504 H1523 0.913 . S
C1505 H1481 0.950 . S
C1505 C1504 1.524 . S
C1505 C1506 1.415 . S
C1506 H1482 0.950 . S
C1506 C1501 1.363 . S
C1506 C1505 1.415 . S
C1507 H1483 0.951 . S
C1507 C1508 1.366 . S
C1507 C1509 1.388 . S
C1508 C1507 1.366 . S
C1508 C1512 1.385 . S
C1509 H1484 0.951 . S
C1509 C1507 1.388 . S
C1509 C1510 1.366 . S
C1510 C1509 1.366 . S
C1510 C1511 1.414 . S
C1510 C1513 1.499 . S
C1511 H1485 0.950 . S
C1511 C1510 1.414 . S
C1511 C1512 1.374 . S
C1512 H1486 0.950 . S
C1512 C1508 1.385 . S
C1512 C1511 1.374 . S
C1513 C1510 1.499 . S
C1513 C1514 1.373 . S
C1513 C1515 1.389 . S
C1514 H1487 0.950 . S
C1514 C1500 1.377 . S
C1514 C1513 1.373 . S
C1515 C1499 1.377 . S
C1515 C1513 1.389 . S
C1515 C1516 1.524 . S
C1516 C1515 1.524 . S
C1516 C1517 1.397 . S
C1516 C1521 1.363 . S
C1517 H1488 0.950 . S
C1517 C1516 1.397 . S
C1517 C1518 1.334 . S
C1518 H1489 0.950 . S
C1518 C1517 1.334 . S
C1518 C1519 1.287 . S
C1519 C1518 1.287 . S
C1519 C1520 1.524 . S
C1519 H1522 0.999 . S
C1520 H1490 0.950 . S
C1520 C1519 1.524 . S
C1520 C1521 1.415 . S
C1521 H1491 0.950 . S
C1521 C1516 1.363 . S
C1521 C1520 1.415 . S
H1522 C1519 0.999 . S
H1523 C1504 0.913 . S
H1524 C1542 0.951 . S
H1525 C1544 0.951 . S
H1526 C1546 0.950 . S
H1527 C1547 0.950 . S
H1528 C1549 0.950 . S
H1529 C1552 0.950 . S
H1530 C1553 0.950 . S
H1531 C1555 0.950 . S
H1532 C1556 0.950 . S
H1533 C1557 0.951 . S
H1534 C1559 0.951 . S
H1535 C1561 0.950 . S
H1536 C1562 0.950 . S
H1537 C1564 0.950 . S
H1538 C1567 0.950 . S
H1539 C1568 0.950 . S
H1540 C1570 0.950 . S
H1541 C1571 0.950 . S
C1542 H1524 0.951 . S
C1542 C1543 1.366 . S
C1542 C1544 1.388 . S
C1543 C1542 1.366 . S
C1543 C1547 1.385 . S
C1544 H1525 0.951 . S
C1544 C1542 1.388 . S
C1544 C1545 1.366 . S
C1545 C1544 1.366 . S
C1545 C1546 1.414 . S
C1545 C1548 1.499 . S
C1546 H1526 0.950 . S
C1546 C1545 1.414 . S
C1546 C1547 1.374 . S
C1547 H1527 0.950 . S
C1547 C1543 1.385 . S
C1547 C1546 1.374 . S
C1548 C1545 1.499 . S
C1548 C1549 1.373 . S
C1548 C1550 1.389 . S
C1549 H1528 0.950 . S
C1549 C1548 1.373 . S
C1549 C1565 1.377 . S
C1550 C1548 1.389 . S
C1550 C1551 1.524 . S
C1550 C1564 1.377 . S
C1551 C1550 1.524 . S
C1551 C1552 1.397 . S
C1551 C1556 1.363 . S
C1552 H1529 0.950 . S
C1552 C1551 1.397 . S
C1552 C1553 1.334 . S
C1553 H1530 0.950 . S
C1553 C1552 1.334 . S
C1553 C1554 1.287 . S
C1554 C1553 1.287 . S
C1554 C1555 1.524 . S
C1554 H1573 0.913 . S
C1555 H1531 0.950 . S
C1555 C1554 1.524 . S
C1555 C1556 1.415 . S
C1556 H1532 0.950 . S
C1556 C1551 1.363 . S
C1556 C1555 1.415 . S
C1557 H1533 0.951 . S
C1557 C1558 1.366 . S
C1557 C1559 1.388 . S
C1558 C1557 1.366 . S
C1558 C1562 1.385 . S
C1559 H1534 0.951 . S
C1559 C1557 1.388 . S
C1559 C1560 1.366 . S
C1560 C1559 1.366 . S
C1560 C1561 1.414 . S
C1560 C1563 1.499 . S
C1561 H1535 0.950 . S
C1561 C1560 1.414 . S
C1561 C1562 1.374 . S
C1562 H1536 0.950 . S
C1562 C1558 1.385 . S
C1562 C1561 1.374 . S
C1563 C1560 1.499 . S
C1563 C1564 1.373 . S
C1563 C1565 1.389 . S
C1564 H1537 0.950 . S
C1564 C1550 1.377 . S
C1564 C1563 1.373 . S
C1565 C1549 1.377 . S
C1565 C1563 1.389 . S
C1565 C1566 1.524 . S
C1566 C1565 1.524 . S
C1566 C1567 1.397 . S
C1566 C1571 1.363 . S
C1567 H1538 0.950 . S
C1567 C1566 1.397 . S
C1567 C1568 1.334 . S
C1568 H1539 0.950 . S
C1568 C1567 1.334 . S
C1568 C1569 1.287 . S
C1569 C1568 1.287 . S
C1569 C1570 1.524 . S
C1569 H1572 0.999 . S
C1570 H1540 0.950 . S
C1570 C1569 1.524 . S
C1570 C1571 1.415 . S
C1571 H1541 0.950 . S
C1571 C1566 1.363 . S
C1571 C1570 1.415 . S
H1572 C1569 0.999 . S
H1573 C1554 0.913 . S
H1574 C1592 0.951 . S
H1575 C1594 0.951 . S
H1576 C1596 0.950 . S
H1577 C1597 0.950 . S
H1578 C1599 0.950 . S
H1579 C1602 0.950 . S
H1580 C1603 0.950 . S
H1581 C1605 0.950 . S
H1582 C1606 0.950 . S
H1583 C1607 0.951 . S
H1584 C1609 0.951 . S
H1585 C1611 0.950 . S
H1586 C1612 0.950 . S
H1587 C1614 0.950 . S
H1588 C1617 0.950 . S
H1589 C1618 0.950 . S
H1590 C1620 0.950 . S
H1591 C1621 0.950 . S
C1592 H1574 0.951 . S
C1592 C1593 1.366 . S
C1592 C1594 1.388 . S
C1593 C1592 1.366 . S
C1593 C1597 1.385 . S
C1594 H1575 0.951 . S
C1594 C1592 1.388 . S
C1594 C1595 1.366 . S
C1595 C1594 1.366 . S
C1595 C1596 1.414 . S
C1595 C1598 1.499 . S
C1596 H1576 0.950 . S
C1596 C1595 1.414 . S
C1596 C1597 1.374 . S
C1597 H1577 0.950 . S
C1597 C1593 1.385 . S
C1597 C1596 1.374 . S
C1598 C1595 1.499 . S
C1598 C1599 1.373 . S
C1598 C1600 1.389 1_545 S
C1599 H1578 0.950 . S
C1599 C1598 1.373 . S
C1599 C1615 1.377 1_545 S
C1600 C1598 1.389 1_565 S
C1600 C1601 1.524 . S
C1600 C1614 1.377 . S
C1601 C1600 1.524 . S
C1601 C1602 1.397 . S
C1601 C1606 1.363 . S
C1602 H1579 0.950 . S
C1602 C1601 1.397 . S
C1602 C1603 1.334 . S
C1603 H1580 0.950 . S
C1603 C1602 1.334 . S
C1603 C1604 1.287 . S
C1604 C1603 1.287 . S
C1604 C1605 1.524 . S
C1604 H1623 0.913 . S
C1605 H1581 0.950 . S
C1605 C1604 1.524 . S
C1605 C1606 1.415 . S
C1606 H1582 0.950 . S
C1606 C1601 1.363 . S
C1606 C1605 1.415 . S
C1607 H1583 0.951 . S
C1607 C1608 1.366 . S
C1607 C1609 1.388 . S
C1608 C1607 1.366 . S
C1608 C1612 1.385 . S
C1609 H1584 0.951 . S
C1609 C1607 1.388 . S
C1609 C1610 1.366 . S
C1610 C1609 1.366 . S
C1610 C1611 1.414 . S
C1610 C1613 1.499 . S
C1611 H1585 0.950 . S
C1611 C1610 1.414 . S
C1611 C1612 1.374 . S
C1612 H1586 0.950 . S
C1612 C1608 1.385 . S
C1612 C1611 1.374 . S
C1613 C1610 1.499 . S
C1613 C1614 1.373 . S
C1613 C1615 1.389 . S
C1614 H1587 0.950 . S
C1614 C1600 1.377 . S
C1614 C1613 1.373 . S
C1615 C1599 1.377 1_565 S
C1615 C1613 1.389 . S
C1615 C1616 1.524 . S
C1616 C1615 1.524 . S
C1616 C1617 1.397 . S
C1616 C1621 1.363 1_565 S
C1617 H1588 0.950 . S
C1617 C1616 1.397 . S
C1617 C1618 1.334 . S
C1618 H1589 0.950 . S
C1618 C1617 1.334 . S
C1618 C1619 1.287 1_565 S
C1619 C1618 1.287 1_545 S
C1619 C1620 1.524 . S
C1619 H1622 0.999 . S
C1620 H1590 0.950 . S
C1620 C1619 1.524 . S
C1620 C1621 1.415 . S
C1621 H1591 0.950 . S
C1621 C1616 1.363 1_545 S
C1621 C1620 1.415 . S
H1622 C1619 0.999 . S
H1623 C1604 0.913 . S
H1624 C1642 0.951 . S
H1625 C1644 0.951 . S
H1626 C1646 0.950 . S
H1627 C1647 0.950 . S
H1628 C1649 0.950 . S
H1629 C1652 0.950 . S
H1630 C1653 0.950 . S
H1631 C1655 0.950 . S
H1632 C1656 0.950 . S
H1633 C1657 0.951 . S
H1634 C1659 0.951 . S
H1635 C1661 0.950 . S
H1636 C1662 0.950 . S
H1637 C1664 0.950 . S
H1638 C1667 0.950 . S
H1639 C1668 0.950 . S
H1640 C1670 0.950 . S
H1641 C1671 0.950 . S
C1642 H1624 0.951 . S
C1642 C1643 1.366 . S
C1642 C1644 1.388 . S
C1643 C1642 1.366 . S
C1643 C1647 1.385 . S
C1644 H1625 0.951 . S
C1644 C1642 1.388 . S
C1644 C1645 1.366 . S
C1645 C1644 1.366 . S
C1645 C1646 1.414 . S
C1645 C1648 1.499 . S
C1646 H1626 0.950 . S
C1646 C1645 1.414 . S
C1646 C1647 1.374 . S
C1647 H1627 0.950 . S
C1647 C1643 1.385 . S
C1647 C1646 1.374 . S
C1648 C1645 1.499 . S
C1648 C1649 1.373 . S
C1648 C1650 1.389 . S
C1649 H1628 0.950 . S
C1649 C1648 1.373 . S
C1649 C1665 1.377 . S
C1650 C1648 1.389 . S
C1650 C1651 1.524 . S
C1650 C1664 1.377 . S
C1651 C1650 1.524 . S
C1651 C1652 1.397 . S
C1651 C1656 1.363 . S
C1652 H1629 0.950 . S
C1652 C1651 1.397 . S
C1652 C1653 1.334 . S
C1653 H1630 0.950 . S
C1653 C1652 1.334 . S
C1653 C1654 1.287 . S
C1654 C1653 1.287 . S
C1654 C1655 1.524 . S
C1654 H1673 0.913 . S
C1655 H1631 0.950 . S
C1655 C1654 1.524 . S
C1655 C1656 1.415 . S
C1656 H1632 0.950 . S
C1656 C1651 1.363 . S
C1656 C1655 1.415 . S
C1657 H1633 0.951 . S
C1657 C1658 1.366 . S
C1657 C1659 1.388 . S
C1658 C1657 1.366 . S
C1658 C1662 1.385 . S
C1659 H1634 0.951 . S
C1659 C1657 1.388 . S
C1659 C1660 1.366 . S
C1660 C1659 1.366 . S
C1660 C1661 1.414 . S
C1660 C1663 1.499 . S
C1661 H1635 0.950 . S
C1661 C1660 1.414 . S
C1661 C1662 1.374 . S
C1662 H1636 0.950 . S
C1662 C1658 1.385 . S
C1662 C1661 1.374 . S
C1663 C1660 1.499 . S
C1663 C1664 1.373 . S
C1663 C1665 1.389 . S
C1664 H1637 0.950 . S
C1664 C1650 1.377 . S
C1664 C1663 1.373 . S
C1665 C1649 1.377 . S
C1665 C1663 1.389 . S
C1665 C1666 1.524 . S
C1666 C1665 1.524 . S
C1666 C1667 1.397 . S
C1666 C1671 1.363 . S
C1667 H1638 0.950 . S
C1667 C1666 1.397 . S
C1667 C1668 1.334 . S
C1668 H1639 0.950 . S
C1668 C1667 1.334 . S
C1668 C1669 1.287 . S
C1669 C1668 1.287 . S
C1669 C1670 1.524 . S
C1669 H1672 0.999 . S
C1670 H1640 0.950 . S
C1670 C1669 1.524 . S
C1670 C1671 1.415 . S
C1671 H1641 0.950 . S
C1671 C1666 1.363 . S
C1671 C1670 1.415 . S
H1672 C1669 0.999 . S
H1673 C1654 0.913 . S
H1674 C1692 0.951 . S
H1675 C1694 0.951 . S
H1676 C1696 0.950 . S
H1677 C1697 0.950 . S
H1678 C1699 0.950 . S
H1679 C1702 0.950 . S
H1680 C1703 0.950 . S
H1681 C1705 0.950 . S
H1682 C1706 0.950 . S
H1683 C1707 0.951 . S
H1684 C1709 0.951 . S
H1685 C1711 0.950 . S
H1686 C1712 0.950 . S
H1687 C1714 0.950 . S
H1688 C1717 0.950 . S
H1689 C1718 0.950 . S
H1690 C1720 0.950 . S
H1691 C1721 0.950 . S
C1692 H1674 0.951 . S
C1692 C1693 1.366 . S
C1692 C1694 1.388 . S
C1693 C1692 1.366 . S
C1693 C1697 1.385 . S
C1694 H1675 0.951 . S
C1694 C1692 1.388 . S
C1694 C1695 1.366 . S
C1695 C1694 1.366 . S
C1695 C1696 1.414 . S
C1695 C1698 1.499 . S
C1696 H1676 0.950 . S
C1696 C1695 1.414 . S
C1696 C1697 1.374 . S
C1697 H1677 0.950 . S
C1697 C1693 1.385 . S
C1697 C1696 1.374 . S
C1698 C1695 1.499 . S
C1698 C1699 1.373 . S
C1698 C1700 1.389 . S
C1699 H1678 0.950 . S
C1699 C1698 1.373 . S
C1699 C1715 1.377 . S
C1700 C1698 1.389 . S
C1700 C1701 1.524 . S
C1700 C1714 1.377 . S
C1701 C1700 1.524 . S
C1701 C1702 1.397 . S
C1701 C1706 1.363 . S
C1702 H1679 0.950 . S
C1702 C1701 1.397 . S
C1702 C1703 1.334 . S
C1703 H1680 0.950 . S
C1703 C1702 1.334 . S
C1703 C1704 1.287 . S
C1704 C1703 1.287 . S
C1704 C1705 1.524 . S
C1704 H1723 0.913 . S
C1705 H1681 0.950 . S
C1705 C1704 1.524 . S
C1705 C1706 1.415 . S
C1706 H1682 0.950 . S
C1706 C1701 1.363 . S
C1706 C1705 1.415 . S
C1707 H1683 0.951 . S
C1707 C1708 1.366 . S
C1707 C1709 1.388 . S
C1708 C1707 1.366 . S
C1708 C1712 1.385 . S
C1709 H1684 0.951 . S
C1709 C1707 1.388 . S
C1709 C1710 1.366 . S
C1710 C1709 1.366 . S
C1710 C1711 1.414 . S
C1710 C1713 1.499 . S
C1711 H1685 0.950 . S
C1711 C1710 1.414 . S
C1711 C1712 1.374 . S
C1712 H1686 0.950 . S
C1712 C1708 1.385 . S
C1712 C1711 1.374 . S
C1713 C1710 1.499 . S
C1713 C1714 1.373 . S
C1713 C1715 1.389 . S
C1714 H1687 0.950 . S
C1714 C1700 1.377 . S
C1714 C1713 1.373 . S
C1715 C1699 1.377 . S
C1715 C1713 1.389 . S
C1715 C1716 1.524 . S
C1716 C1715 1.524 . S
C1716 C1717 1.397 . S
C1716 C1721 1.363 . S
C1717 H1688 0.950 . S
C1717 C1716 1.397 . S
C1717 C1718 1.334 . S
C1718 H1689 0.950 . S
C1718 C1717 1.334 . S
C1718 C1719 1.287 . S
C1719 C1718 1.287 . S
C1719 C1720 1.524 . S
C1719 H1722 0.999 . S
C1720 H1690 0.950 . S
C1720 C1719 1.524 . S
C1720 C1721 1.415 . S
C1721 H1691 0.950 . S
C1721 C1716 1.363 . S
C1721 C1720 1.415 . S
H1722 C1719 0.999 . S
H1723 C1704 0.913 . S
H1724 C1742 0.951 . S
H1725 C1744 0.951 . S
H1726 C1746 0.950 . S
H1727 C1747 0.950 . S
H1728 C1749 0.950 . S
H1729 C1752 0.950 . S
H1730 C1753 0.950 . S
H1731 C1755 0.950 . S
H1732 C1756 0.950 . S
H1733 C1757 0.951 . S
H1734 C1759 0.951 . S
H1735 C1761 0.950 . S
H1736 C1762 0.950 . S
H1737 C1764 0.950 . S
H1738 C1767 0.950 . S
H1739 C1768 0.950 . S
H1740 C1770 0.950 . S
H1741 C1771 0.950 . S
C1742 H1724 0.951 . S
C1742 C1743 1.366 . S
C1742 C1744 1.388 . S
C1743 C1742 1.366 . S
C1743 C1747 1.385 . S
C1744 H1725 0.951 . S
C1744 C1742 1.388 . S
C1744 C1745 1.366 . S
C1745 C1744 1.366 . S
C1745 C1746 1.414 . S
C1745 C1748 1.499 . S
C1746 H1726 0.950 . S
C1746 C1745 1.414 . S
C1746 C1747 1.374 . S
C1747 H1727 0.950 . S
C1747 C1743 1.385 . S
C1747 C1746 1.374 . S
C1748 C1745 1.499 . S
C1748 C1749 1.373 . S
C1748 C1750 1.389 . S
C1749 H1728 0.950 . S
C1749 C1748 1.373 . S
C1749 C1765 1.377 . S
C1750 C1748 1.389 . S
C1750 C1751 1.524 1_545 S
C1750 C1764 1.377 1_545 S
C1751 C1750 1.524 1_565 S
C1751 C1752 1.397 1_565 S
C1751 C1756 1.363 . S
C1752 H1729 0.950 . S
C1752 C1751 1.397 1_545 S
C1752 C1753 1.334 . S
C1753 H1730 0.950 . S
C1753 C1752 1.334 . S
C1753 C1754 1.287 1_545 S
C1754 C1753 1.287 1_565 S
C1754 C1755 1.524 . S
C1754 H1773 0.913 . S
C1755 H1731 0.950 . S
C1755 C1754 1.524 . S
C1755 C1756 1.415 . S
C1756 H1732 0.950 . S
C1756 C1751 1.363 . S
C1756 C1755 1.415 . S
C1757 H1733 0.951 . S
C1757 C1758 1.366 . S
C1757 C1759 1.388 . S
C1758 C1757 1.366 . S
C1758 C1762 1.385 . S
C1759 H1734 0.951 . S
C1759 C1757 1.388 . S
C1759 C1760 1.366 . S
C1760 C1759 1.366 . S
C1760 C1761 1.414 . S
C1760 C1763 1.499 . S
C1761 H1735 0.950 . S
C1761 C1760 1.414 . S
C1761 C1762 1.374 . S
C1762 H1736 0.950 . S
C1762 C1758 1.385 . S
C1762 C1761 1.374 . S
C1763 C1760 1.499 . S
C1763 C1764 1.373 . S
C1763 C1765 1.389 1_565 S
C1764 H1737 0.950 . S
C1764 C1750 1.377 1_565 S
C1764 C1763 1.373 . S
C1765 C1749 1.377 . S
C1765 C1763 1.389 1_545 S
C1765 C1766 1.524 . S
C1766 C1765 1.524 . S
C1766 C1767 1.397 1_545 S
C1766 C1771 1.363 . S
C1767 H1738 0.950 . S
C1767 C1766 1.397 1_565 S
C1767 C1768 1.334 . S
C1768 H1739 0.950 . S
C1768 C1767 1.334 . S
C1768 C1769 1.287 1_565 S
C1769 C1768 1.287 1_545 S
C1769 C1770 1.524 . S
C1769 H1772 0.999 . S
C1770 H1740 0.950 . S
C1770 C1769 1.524 . S
C1770 C1771 1.415 . S
C1771 H1741 0.950 . S
C1771 C1766 1.363 . S
C1771 C1770 1.415 . S
H1772 C1769 0.999 . S
H1773 C1754 0.913 . S
H1774 C1792 0.951 . S
H1775 C1794 0.951 . S
H1776 C1796 0.950 . S
H1777 C1797 0.950 . S
H1778 C1799 0.950 . S
H1779 C1802 0.950 . S
H1780 C1803 0.950 . S
H1781 C1805 0.950 . S
H1782 C1806 0.950 . S
H1783 C1807 0.951 . S
H1784 C1809 0.951 . S
H1785 C1811 0.950 . S
H1786 C1812 0.950 . S
H1787 C1814 0.950 . S
H1788 C1817 0.950 . S
H1789 C1818 0.950 . S
H1790 C1820 0.950 . S
H1791 C1821 0.950 . S
C1792 H1774 0.951 . S
C1792 C1793 1.366 . S
C1792 C1794 1.388 . S
C1793 C1792 1.366 . S
C1793 C1797 1.385 . S
C1794 H1775 0.951 . S
C1794 C1792 1.388 . S
C1794 C1795 1.366 . S
C1795 C1794 1.366 . S
C1795 C1796 1.414 . S
C1795 C1798 1.499 . S
C1796 H1776 0.950 . S
C1796 C1795 1.414 . S
C1796 C1797 1.374 . S
C1797 H1777 0.950 . S
C1797 C1793 1.385 . S
C1797 C1796 1.374 . S
C1798 C1795 1.499 . S
C1798 C1799 1.373 . S
C1798 C1800 1.389 . S
C1799 H1778 0.950 . S
C1799 C1798 1.373 . S
C1799 C1815 1.377 . S
C1800 C1798 1.389 . S
C1800 C1801 1.524 . S
C1800 C1814 1.377 . S
C1801 C1800 1.524 . S
C1801 C1802 1.397 . S
C1801 C1806 1.363 . S
C1802 H1779 0.950 . S
C1802 C1801 1.397 . S
C1802 C1803 1.334 . S
C1803 H1780 0.950 . S
C1803 C1802 1.334 . S
C1803 C1804 1.287 . S
C1804 C1803 1.287 . S
C1804 C1805 1.524 . S
C1804 H1823 0.913 . S
C1805 H1781 0.950 . S
C1805 C1804 1.524 . S
C1805 C1806 1.415 . S
C1806 H1782 0.950 . S
C1806 C1801 1.363 . S
C1806 C1805 1.415 . S
C1807 H1783 0.951 . S
C1807 C1808 1.366 . S
C1807 C1809 1.388 . S
C1808 C1807 1.366 . S
C1808 C1812 1.385 . S
C1809 H1784 0.951 . S
C1809 C1807 1.388 . S
C1809 C1810 1.366 . S
C1810 C1809 1.366 . S
C1810 C1811 1.414 . S
C1810 C1813 1.499 . S
C1811 H1785 0.950 . S
C1811 C1810 1.414 . S
C1811 C1812 1.374 . S
C1812 H1786 0.950 . S
C1812 C1808 1.385 . S
C1812 C1811 1.374 . S
C1813 C1810 1.499 . S
C1813 C1814 1.373 . S
C1813 C1815 1.389 . S
C1814 H1787 0.950 . S
C1814 C1800 1.377 . S
C1814 C1813 1.373 . S
C1815 C1799 1.377 . S
C1815 C1813 1.389 . S
C1815 C1816 1.524 . S
C1816 C1815 1.524 . S
C1816 C1817 1.397 . S
C1816 C1821 1.363 . S
C1817 H1788 0.950 . S
C1817 C1816 1.397 . S
C1817 C1818 1.334 . S
C1818 H1789 0.950 . S
C1818 C1817 1.334 . S
C1818 C1819 1.287 . S
C1819 C1818 1.287 . S
C1819 C1820 1.524 . S
C1819 H1822 0.999 . S
C1820 H1790 0.950 . S
C1820 C1819 1.524 . S
C1820 C1821 1.415 . S
C1821 H1791 0.950 . S
C1821 C1816 1.363 . S
C1821 C1820 1.415 . S
H1822 C1819 0.999 . S
H1823 C1804 0.913 . S
C243 C9 1.497 . S
C258 C191 1.486 . S
C293 C23 1.497 . S
C308 C135 1.487 . S
C343 C205 1.059 . S
C358 C37 1.063 . S
C393 C51 1.063 . S
C408 C219 1.060 . S
C443 C65 1.498 . S
C458 C93 1.486 . S
C493 C149 1.498 . S
C508 C79 1.487 . S
C543 C163 1.063 . S
C558 C107 1.059 . S
C593 C121 1.060 . S
C608 C177 1.063 . S
C643 C35 1.391 . S
C658 C7 1.429 . S
C693 C21 1.429 . S
C708 C49 1.390 . S
C743 C174 1.344 . S
C758 C6 1.404 . S
C793 C20 1.402 . S
C808 C160 1.345 . S
C843 C62 1.402 . S
C858 C34 1.345 . S
C893 C146 1.403 . S
C908 C48 1.344 . S
C943 C22 2.508 . S
C958 C8 2.508 . S
C993 C50 1.506 . S
C1008 C36 1.506 . S
C1043 C148 2.508 . S
C1058 C64 2.508 . S
C1093 C104 1.756 . S
C1108 C78 1.830 . S
C1143 C92 1.831 . S
C1158 C118 1.756 . S
C1193 C217 1.679 . S
C1208 C76 1.719 . S
C1243 C90 1.720 . S
C1258 C203 1.678 . S
C1293 C132 1.720 . S
C1308 C105 1.679 . S
C1343 C119 1.678 . S
C1358 C188 1.720 . S
C1393 C91 0.849 . S
C1408 C77 0.849 . S
C1443 C120 1.886 . S
C1458 C106 1.886 . S
C1493 C133 0.849 . S
C1508 C189 0.849 . S
C1543 C147 1.429 . S
C1558 C161 1.391 . S
C1593 C175 1.390 . S
C1608 C63 1.428 . S
C1643 C176 1.506 . S
C1658 C162 1.506 . S
C1693 C202 1.756 . S
C1708 C190 1.831 . S
C1743 C134 1.831 . S
C1758 C216 1.755 . S
C1793 C218 1.886 . S
C1808 C204 1.886 . S
