# Generated by pormake.
# Topology ukf, (4)-cn, num edge types: 1
# Building blocks:
#     Node 0, Type 0, BuildingBlock: AZAVOO_clean_sbu_0, # of connection points: 4
#     Node 1, Type 0, BuildingBlock: AZAVOO_clean_sbu_0, # of connection points: 4
#     Node 2, Type 0, BuildingBlock: AZAVOO_clean_sbu_0, # of connection points: 4
#     Node 3, Type 0, BuildingBlock: AZAVOO_clean_sbu_0, # of connection points: 4
#     Node 4, Type 0, BuildingBlock: AZAVOO_clean_sbu_0, # of connection points: 4
#     Node 5, Type 0, BuildingBlock: AZAVOO_clean_sbu_0, # of connection points: 4
#     Node 6, Type 0, BuildingBlock: AZAVOO_clean_sbu_0, # of connection points: 4
#     Node 7, Type 0, BuildingBlock: AZAVOO_clean_sbu_0, # of connection points: 4
#     Node 8, Type 0, BuildingBlock: AZAVOO_clean_sbu_0, # of connection points: 4
#     Node 9, Type 0, BuildingBlock: AZAVOO_clean_sbu_0, # of connection points: 4
#     Node 10, Type 0, BuildingBlock: AZAVOO_clean_sbu_0, # of connection points: 4
#     Node 11, Type 0, BuildingBlock: AZAVOO_clean_sbu_0, # of connection points: 4
#     Edge 12, Type (0, 0), BuildingBlock: AJUNOK_clean_linker_0, # of connection points: 2
#     Edge 13, Type (0, 0), BuildingBlock: AJUNOK_clean_linker_0, # of connection points: 2
#     Edge 14, Type (0, 0), BuildingBlock: AJUNOK_clean_linker_0, # of connection points: 2
#     Edge 15, Type (0, 0), BuildingBlock: AJUNOK_clean_linker_0, # of connection points: 2
#     Edge 16, Type (0, 0), BuildingBlock: AJUNOK_clean_linker_0, # of connection points: 2
#     Edge 17, Type (0, 0), BuildingBlock: AJUNOK_clean_linker_0, # of connection points: 2
#     Edge 18, Type (0, 0), BuildingBlock: AJUNOK_clean_linker_0, # of connection points: 2
#     Edge 19, Type (0, 0), BuildingBlock: AJUNOK_clean_linker_0, # of connection points: 2
#     Edge 20, Type (0, 0), BuildingBlock: AJUNOK_clean_linker_0, # of connection points: 2
#     Edge 21, Type (0, 0), BuildingBlock: AJUNOK_clean_linker_0, # of connection points: 2
#     Edge 22, Type (0, 0), BuildingBlock: AJUNOK_clean_linker_0, # of connection points: 2
#     Edge 23, Type (0, 0), BuildingBlock: AJUNOK_clean_linker_0, # of connection points: 2
#     Edge 24, Type (0, 0), BuildingBlock: AJUNOK_clean_linker_0, # of connection points: 2
#     Edge 25, Type (0, 0), BuildingBlock: AJUNOK_clean_linker_0, # of connection points: 2
#     Edge 26, Type (0, 0), BuildingBlock: AJUNOK_clean_linker_0, # of connection points: 2
#     Edge 27, Type (0, 0), BuildingBlock: AJUNOK_clean_linker_0, # of connection points: 2
#     Edge 28, Type (0, 0), BuildingBlock: AJUNOK_clean_linker_0, # of connection points: 2
#     Edge 29, Type (0, 0), BuildingBlock: AJUNOK_clean_linker_0, # of connection points: 2
#     Edge 30, Type (0, 0), BuildingBlock: AJUNOK_clean_linker_0, # of connection points: 2
#     Edge 31, Type (0, 0), BuildingBlock: AJUNOK_clean_linker_0, # of connection points: 2
#     Edge 32, Type (0, 0), BuildingBlock: AJUNOK_clean_linker_0, # of connection points: 2
#     Edge 33, Type (0, 0), BuildingBlock: AJUNOK_clean_linker_0, # of connection points: 2
#     Edge 34, Type (0, 0), BuildingBlock: AJUNOK_clean_linker_0, # of connection points: 2
#     Edge 35, Type (0, 0), BuildingBlock: AJUNOK_clean_linker_0, # of connection points: 2
# Relax obj value: 0.209
# Max RMSD: 0.202
# Mean RMSD: 0.201
data_MOF--net-ukf--node1-AZAVOO_clean_sbu_0--edge1-AJUNOK_clean_linker_0
_symmetry_space_group_name_H-M    P1
_symmetry_Int_Tables_number       1
_symmetry_cell_setting            triclinic
loop_
_symmetry_equiv_pos_as_xyz
'x, y, z'
_cell_length_a     24.070832
_cell_length_b     23.994031
_cell_length_c     46.985354
_cell_angle_alpha  90.211543
_cell_angle_beta   89.735872
_cell_angle_gamma 120.12636
loop_
_atom_site_label
_atom_site_type_symbol
_atom_site_fract_x
_atom_site_fract_y
_atom_site_fract_z
_atom_type_partial_charge
Mg0 Mg 0.378 0.23844 0.05091 0.0
O1 O 0.47966 0.26339 0.03603 0.0
O2 O 0.54652 0.36365 0.05104 0.0
Mg3 Mg 0.4909 0.40019 0.07697 0.0
C4 C 0.53593 0.31297 0.03755 0.0
C5 C 0.27541 0.10216 0.03991 0.0
O6 O 0.24539 0.13224 0.04855 0.0
O7 O 0.39886 0.22161 0.09668 0.0
O8 O 0.46776 0.32264 0.11064 0.0
O9 O 0.3692 0.28525 0.01116 0.0
O10 O 0.40561 0.33403 0.05272 0.0
C11 C 0.43519 0.26216 0.11545 0.0
C12 C 0.39484 0.33748 0.02624 0.0
O13 O 0.33638 0.13363 0.03873 0.0
Mg14 Mg 0.12469 0.39777 0.37722 0.0
O15 O 0.20616 0.49658 0.36193 0.0
O16 O 0.18508 0.57147 0.37858 0.0
Mg17 Mg 0.09428 0.52243 0.40582 0.0
C18 C 0.21963 0.55518 0.36404 0.0
C19 C 0.15609 0.29023 0.36377 0.0
O20 O 0.09703 0.25636 0.37349 0.0
O21 O 0.16611 0.41592 0.42233 0.0
O22 O 0.14488 0.49163 0.438 0.0
O23 O 0.06711 0.394 0.33884 0.0
O24 O 0.06428 0.43464 0.38091 0.0
C25 C 0.16743 0.45408 0.44174 0.0
C26 C 0.04741 0.42494 0.35467 0.0
O27 O 0.18231 0.35121 0.36301 0.0
Mg28 Mg 0.72834 0.12677 0.71986 0.0
O29 O 0.70781 0.20704 0.70779 0.0
O30 O 0.61102 0.18023 0.72517 0.0
Mg31 Mg 0.57099 0.08459 0.74931 0.0
C32 C 0.66183 0.21844 0.71128 0.0
C33 C 0.84992 0.206 0.68168 0.0
O34 O 0.80523 0.18652 0.66208 0.0
O35 O 0.74917 0.16378 0.76564 0.0
O36 O 0.65068 0.13142 0.78282 0.0
O37 O 0.67607 0.07312 0.68011 0.0
O38 O 0.63159 0.06167 0.72263 0.0
C39 C 0.71141 0.15819 0.78604 0.0
C40 C 0.62515 0.04826 0.69598 0.0
O41 O 0.83316 0.19036 0.70741 0.0
Mg42 Mg 0.57332 0.71265 0.04959 0.0
O43 O 0.47996 0.7065 0.03549 0.0
O44 O 0.39828 0.62352 0.05798 0.0
Mg45 Mg 0.44014 0.57132 0.08335 0.0
C46 C 0.42021 0.67113 0.04083 0.0
C47 C 0.65711 0.83144 0.01051 0.0
O48 O 0.6603 0.78718 0.99521 0.0
O49 O 0.56521 0.74661 0.09434 0.0
O50 O 0.4897 0.65541 0.11458 0.0
O51 O 0.56452 0.65102 0.01177 0.0
O52 O 0.52389 0.61419 0.05458 0.0
C53 C 0.53195 0.7151 0.11593 0.0
C54 C 0.52808 0.60289 0.02809 0.0
O55 O 0.62696 0.81566 0.03401 0.0
Mg56 Mg 0.84803 0.58945 0.39235 0.0
O57 O 0.75771 0.4981 0.37704 0.0
O58 O 0.76247 0.41289 0.3932 0.0
Mg59 Mg 0.85885 0.4495 0.41543 0.0
C60 C 0.734 0.4374 0.37971 0.0
C61 C 0.77474 0.64526 0.35959 0.0
O62 O 0.77656 0.6069 0.34004 0.0
O63 O 0.81269 0.57235 0.43864 0.0
O64 O 0.82406 0.4889 0.45151 0.0
O65 O 0.8966 0.58972 0.35138 0.0
O66 O 0.89674 0.5394 0.39085 0.0
C67 C 0.8093 0.53192 0.4572 0.0
C68 C 0.91053 0.5507 0.36423 0.0
O69 O 0.80031 0.64884 0.38362 0.0
Mg70 Mg 0.24881 0.85468 0.72117 0.0
O71 O 0.25289 0.76657 0.70588 0.0
O72 O 0.3359 0.76654 0.72711 0.0
Mg73 Mg 0.39079 0.86079 0.75266 0.0
C74 C 0.28747 0.74114 0.71049 0.0
C75 C 0.12452 0.83678 0.69136 0.0
O76 O 0.1639 0.89763 0.68519 0.0
O77 O 0.21652 0.81205 0.7661 0.0
O78 O 0.30883 0.82798 0.78476 0.0
O79 O 0.31036 0.90884 0.6833 0.0
O80 O 0.3475 0.90312 0.72552 0.0
C81 C 0.24964 0.81114 0.78711 0.0
C82 C 0.3586 0.92003 0.69925 0.0
O83 O 0.14519 0.80672 0.70607 0.0
Mg84 Mg 0.72594 0.58564 0.63619 0.0
O85 O 0.70788 0.48635 0.65129 0.0
O86 O 0.61265 0.41231 0.63377 0.0
Mg87 Mg 0.57316 0.46185 0.60578 0.0
C88 C 0.66259 0.42791 0.64869 0.0
C89 C 0.8606 0.69566 0.65 0.0
O90 O 0.83135 0.72506 0.63983 0.0
O91 O 0.75305 0.56915 0.59143 0.0
O92 O 0.65735 0.49394 0.57457 0.0
O93 O 0.66855 0.58881 0.67366 0.0
O94 O 0.62907 0.54905 0.6311 0.0
C95 C 0.71776 0.5317 0.57157 0.0
C96 C 0.6195 0.55923 0.65698 0.0
O97 O 0.82952 0.63449 0.65139 0.0
Mg98 Mg 0.11162 0.71587 0.96574 0.0
O99 O 0.19813 0.70768 0.97904 0.0
O100 O 0.19225 0.62223 0.95681 0.0
Mg101 Mg 0.09476 0.56903 0.93396 0.0
C102 C 0.22086 0.67107 0.97324 0.0
C103 C 0.13545 0.83873 0.99732 0.0
O104 O 0.07633 0.79763 1.00524 0.0
O105 O 0.15072 0.74455 0.92027 0.0
O106 O 0.1288 0.65015 0.90109 0.0
O107 O 0.05998 0.65901 1.00464 0.0
O108 O 0.0587 0.61705 0.96236 0.0
C109 C 0.14872 0.7103 0.89895 0.0
C110 C 0.04412 0.60877 0.98898 0.0
O111 O 0.16378 0.81989 0.98029 0.0
Mg112 Mg 0.38932 0.13089 0.29405 0.0
O113 O 0.47984 0.21875 0.31104 0.0
O114 O 0.56588 0.21777 0.29342 0.0
Mg115 Mg 0.5298 0.12469 0.26778 0.0
C116 C 0.54043 0.24357 0.3084 0.0
C117 C 0.28576 0.15445 0.32369 0.0
O118 O 0.26609 0.0959 0.33305 0.0
O119 O 0.40608 0.17259 0.24887 0.0
O120 O 0.49008 0.16393 0.23419 0.0
O121 O 0.39008 0.07616 0.33274 0.0
O122 O 0.43876 0.08134 0.29187 0.0
C123 C 0.44709 0.17915 0.22985 0.0
C124 C 0.42799 0.06346 0.31803 0.0
O125 O 0.33336 0.18029 0.30676 0.0
Mg126 Mg 0.25066 0.40082 0.61948 0.0
O127 O 0.25286 0.49074 0.63755 0.0
O128 O 0.34165 0.57781 0.62147 0.0
Mg129 Mg 0.39799 0.54315 0.59463 0.0
C130 C 0.28985 0.55163 0.63606 0.0
C131 C 0.12346 0.34359 0.65482 0.0
O132 O 0.16485 0.37653 0.67497 0.0
O133 O 0.22756 0.41913 0.57449 0.0
O134 O 0.32001 0.50436 0.56037 0.0
O135 O 0.30395 0.39978 0.65845 0.0
O136 O 0.34956 0.45166 0.61845 0.0
C137 C 0.26208 0.46056 0.55567 0.0
C138 C 0.35526 0.43996 0.64465 0.0
O139 O 0.14421 0.34232 0.63006 0.0
Mg140 Mg 0.8321 0.24063 0.96568 0.0
O141 O 0.75328 0.26411 0.97774 0.0
O142 O 0.78399 0.3617 0.9599 0.0
Mg143 Mg 0.87941 0.3991 0.93604 0.0
C144 C 0.74471 0.31203 0.97417 0.0
C145 C 0.78351 0.09617 0.96998 0.0
O146 O 0.83313 0.11588 0.95282 0.0
O147 O 0.79648 0.21933 0.91971 0.0
O148 O 0.83339 0.31879 0.90257 0.0
O149 O 0.88457 0.29115 1.0056 0.0
O150 O 0.89865 0.33716 0.96332 0.0
C151 C 0.80547 0.2578 0.89918 0.0
C152 C 0.91041 0.34267 0.99012 0.0
O153 O 0.76821 0.13679 0.97875 0.0
Mg154 Mg 0.58907 0.85439 0.29414 0.0
O155 O 0.48743 0.77316 0.30494 0.0
O156 O 0.41847 0.79953 0.28625 0.0
Mg157 Mg 0.47543 0.89663 0.26333 0.0
C158 C 0.43024 0.76139 0.30052 0.0
C159 C 0.65682 0.79901 0.33124 0.0
O160 O 0.66068 0.8446 0.34809 0.0
O161 O 0.57692 0.81911 0.24796 0.0
O162 O 0.51277 0.85291 0.23013 0.0
O163 O 0.58692 0.90584 0.3341 0.0
O164 O 0.55596 0.91866 0.29155 0.0
C165 C 0.54731 0.82668 0.22715 0.0
C166 C 0.56034 0.93007 0.3184 0.0
O167 O 0.62946 0.7905 0.30726 0.0
C168 C 0.23653 0.94388 1.0049 0.0
C169 C 0.16965 0.90539 0.00867 0.0
C170 C 0.2704 0.00692 0.01551 0.0
C171 C 0.23871 0.0343 0.0301 0.0
H172 H 0.26325 0.92521 0.99375 0.0
H173 H 0.32176 0.03458 0.01188 0.0
S174 S 0.06386 0.95375 0.04583 0.0
N175 N 0.07292 0.89916 0.02825 0.0
N176 N 0.1364 0.01762 0.04809 0.0
C177 C 0.17182 -0.00373 0.03415 0.0
C178 C 0.13736 0.93188 0.02348 0.0
C179 C 0.16301 0.19038 0.357 0.0
C180 C 0.19073 0.25738 0.35341 0.0
C181 C 0.19405 0.15769 0.34731 0.0
C182 C 0.2539 0.19048 0.3334 0.0
H183 H 0.11689 0.16267 0.36747 0.0
H184 H 0.1706 0.10613 0.35065 0.0
S185 S 0.34773 0.36636 0.31887 0.0
N186 N 0.28218 0.35565 0.33513 0.0
N187 N 0.34028 0.29423 0.31681 0.0
C188 C 0.28229 0.25756 0.32963 0.0
C189 C 0.25084 0.29098 0.33967 0.0
C190 C 0.96585 0.26517 0.69563 0.0
C191 C 0.91916 0.24282 0.674 0.0
C192 C 0.03158 0.29791 0.6892 0.0
C193 C 0.05351 0.30928 0.66086 0.0
H194 H 0.95169 0.25711 0.71783 0.0
H195 H 0.06542 0.31371 0.70665 0.0
S196 S 0.95145 0.26355 0.59623 0.0
N197 N 0.89984 0.23654 0.62296 0.0
N198 N 0.02332 0.29771 0.6109 0.0
C199 C 0.0075 0.28801 0.63897 0.0
C200 C 0.94043 0.25499 0.64553 0.0
C201 C 0.73261 0.91951 0.97799 0.0
C202 C 0.68754 0.89882 1.00032 0.0
C203 C 0.76276 0.98316 0.96817 0.0
C204 C 0.74865 0.02856 0.9801 0.0
H205 H 0.74544 0.88657 0.96818 0.0
H206 H 0.79765 -0.00321 0.95113 0.0
S207 S 0.63194 -0.00193 0.03839 0.0
N208 N 0.62881 0.92838 0.03364 0.0
N209 N 0.68515 0.04778 0.0151 0.0
C210 C 0.70278 0.00822 1.00215 0.0
C211 C 0.6724 0.94349 0.0123 0.0
C212 C 0.68668 0.71534 0.31995 0.0
C213 C 0.68575 0.75943 0.33951 0.0
C214 C 0.71519 0.67859 0.32674 0.0
C215 C 0.74391 0.68417 0.35341 0.0
H216 H 0.6657 0.70937 0.29902 0.0
H217 H 0.71485 0.64574 0.31077 0.0
S218 S 0.75264 0.79111 0.41274 0.0
N219 N 0.7149 0.80548 0.3871 0.0
N220 N 0.76836 0.73642 0.39986 0.0
C221 C 0.74264 0.72747 0.37338 0.0
C222 C 0.71364 0.76505 0.36644 0.0
C223 C 0.95659 0.70114 0.67334 0.0
C224 C 0.92801 0.7331 0.66018 0.0
C225 C 0.01979 0.73513 0.68345 0.0
C226 C 0.05737 0.80257 0.68072 0.0
H227 H 0.92995 0.64931 0.676 0.0
H228 H 0.03935 0.70801 0.69335 0.0
S229 S 0.00536 0.9096 0.64804 0.0
N230 N 0.94237 0.83655 0.64507 0.0
N231 N 0.06105 0.90023 0.664 0.0
C232 C 0.0295 0.83526 0.66759 0.0
C233 C 0.96494 0.80063 0.65737 0.0
C234 C 0.63339 0.25557 0.99499 0.0
C235 C 0.69125 0.31305 0.98953 0.0
C236 C 0.58345 0.25581 0.01053 0.0
C237 C 0.59008 0.31336 0.02184 0.0
H238 H 0.62641 0.21008 0.98701 0.0
H239 H 0.5395 0.2104 0.01383 0.0
S240 S 0.73437 0.47658 0.01494 0.0
N241 N 0.75304 0.42884 0.99715 0.0
N242 N 0.66104 0.42928 0.02721 0.0
C243 C 0.64852 0.37103 0.01697 0.0
C244 C 0.69852 0.37089 1.00058 0.0
C245 C 0.27178 0.66073 0.3388 0.0
C246 C 0.274 0.60577 0.34743 0.0
C247 C 0.32152 0.70943 0.32282 0.0
C248 C 0.37619 0.70585 0.31514 0.0
H249 H 0.23097 0.66615 0.34427 0.0
H250 H 0.31769 0.75109 0.31711 0.0
S251 S 0.40525 0.57151 0.33186 0.0
N252 N 0.33471 0.54972 0.34646 0.0
N253 N 0.42915 0.64219 0.31687 0.0
C254 C 0.37901 0.65097 0.32341 0.0
C255 C 0.32767 0.60069 0.33937 0.0
C256 C 0.60729 0.27361 0.69014 0.0
C257 C 0.66475 0.2746 0.69664 0.0
C258 C 0.60744 0.3229 0.6743 0.0
C259 C 0.66513 0.37648 0.66501 0.0
H260 H 0.5614 0.23362 0.69676 0.0
H261 H 0.56172 0.31901 0.66945 0.0
S262 S 0.82922 0.40406 0.6772 0.0
N263 N 0.78141 0.3343 0.69276 0.0
N264 N 0.78161 0.42841 0.66385 0.0
C265 C 0.72321 0.37916 0.6719 0.0
C266 C 0.72304 0.32794 0.68749 0.0
C267 C 0.27605 0.6845 0.01945 0.0
C268 C 0.27647 0.67926 0.9896 0.0
C269 C 0.32368 0.68336 0.0361 0.0
C270 C 0.37427 0.6792 0.02332 0.0
H271 H 0.23696 0.68636 0.03007 0.0
H272 H 0.32045 0.6848 0.05908 0.0
S273 S 0.39862 0.66728 0.94604 0.0
N274 N 0.3318 0.67063 0.94799 0.0
N275 N 0.42315 0.67157 0.97918 0.0
C276 C 0.37657 0.6765 0.99347 0.0
C277 C 0.3271 0.67568 0.9766 0.0
C278 C 0.6326 0.35482 0.31541 0.0
C279 C 0.5826 0.29762 0.32699 0.0
C280 C 0.67885 0.40272 0.3331 0.0
C281 C 0.67753 0.39364 0.36272 0.0
H282 H 0.637 0.36166 0.29255 0.0
H283 H 0.71818 0.4452 0.32338 0.0
S284 S 0.55561 0.25273 0.40325 0.0
N285 N 0.53252 0.23565 0.36974 0.0
N286 N 0.62143 0.32435 0.40285 0.0
C287 C 0.62686 0.33738 0.37453 0.0
C288 C 0.57879 0.28961 0.35665 0.0
C289 C 0.27282 0.64451 0.64452 0.0
C290 C 0.27827 0.59306 0.65534 0.0
C291 C 0.27135 0.68996 0.66288 0.0
C292 C 0.27764 0.68653 0.69251 0.0
H293 H 0.27138 0.65053 0.62174 0.0
H294 H 0.26902 0.7301 0.6537 0.0
S295 S 0.29147 0.55989 0.73122 0.0
N296 N 0.28694 0.53925 0.69736 0.0
N297 N 0.28731 0.62657 0.73182 0.0
C298 C 0.28165 0.63446 0.70357 0.0
C299 C 0.28115 0.58716 0.68495 0.0
C300 C 0.38269 0.19507 0.15864 0.0
C301 C 0.43886 0.23973 0.14421 0.0
C302 C 0.3852 0.17747 0.1869 0.0
C303 C 0.44415 0.20274 0.20127 0.0
H304 H 0.33644 0.17469 0.14824 0.0
H305 H 0.34102 0.14274 0.19732 0.0
S306 S 0.60476 0.32043 0.17266 0.0
N307 N 0.55479 0.30899 0.14637 0.0
N308 N 0.55975 0.2742 0.199 0.0
C309 C 0.50056 0.24688 0.18693 0.0
C310 C 0.49786 0.26583 0.15851 0.0
C311 C 0.23045 0.51269 0.48454 0.0
C312 C 0.19335 0.45398 0.47012 0.0
C313 C 0.25222 0.51422 0.51227 0.0
C314 C 0.23593 0.45701 0.52693 0.0
H315 H 0.24302 0.55787 0.47423 0.0
H316 H 0.2814 0.56057 0.52246 0.0
S317 S 0.13897 0.29075 0.49876 0.0
N318 N 0.14137 0.33726 0.47237 0.0
N319 N 0.1806 0.33998 0.52498 0.0
C320 C 0.19833 0.3979 0.51287 0.0
C321 C 0.17757 0.39644 0.4843 0.0
C322 C 0.72534 0.174 0.86641 0.0
C323 C 0.78381 0.23161 0.87028 0.0
C324 C 0.70243 0.15057 0.83902 0.0
C325 C 0.73802 0.18299 0.81459 0.0
H326 H 0.69629 0.14778 0.88462 0.0
H327 H 0.65651 0.10658 0.83696 0.0
S328 S 0.89582 0.33396 0.81338 0.0
N329 N 0.8778 0.31964 0.84753 0.0
N330 N 0.83548 0.27448 0.7961 0.0
C331 C 0.79746 0.23958 0.81822 0.0
C332 C 0.82011 0.26422 0.84606 0.0
C333 C 0.53915 0.71376 0.16881 0.0
C334 C 0.54234 0.74748 0.1438 0.0
C335 C 0.54403 0.74103 0.19577 0.0
C336 C 0.55046 0.80224 0.19866 0.0
H337 H 0.53221 0.66557 0.16752 0.0
H338 H 0.54005 0.71292 0.21446 0.0
S339 S 0.56409 0.91148 0.13993 0.0
N340 N 0.55574 0.84659 0.12364 0.0
N341 N 0.56263 0.89711 0.17437 0.0
C342 C 0.55513 0.83708 0.17385 0.0
C343 C 0.55176 0.80992 0.14639 0.0
C344 C 0.7262 0.47564 0.52855 0.0
C345 C 0.74588 0.53353 0.54338 0.0
C346 C 0.74741 0.47578 0.50073 0.0
C347 C 0.78743 0.5339 0.48641 0.0
H348 H 0.69401 0.42981 0.53852 0.0
H349 H 0.73132 0.43 0.49016 0.0
S350 S 0.85233 0.69857 0.51583 0.0
N351 N 0.8084 0.6505 0.54196 0.0
N352 N 0.84665 0.65085 0.48918 0.0
C353 C 0.80739 0.59219 0.50095 0.0
C354 C 0.78713 0.59198 0.5296 0.0
C355 C 0.13937 0.70595 0.84595 0.0
C356 C 0.17106 0.74049 0.8707 0.0
C357 C 0.16285 0.73075 0.81872 0.0
C358 C 0.21976 0.79008 0.81543 0.0
H359 H 0.09659 0.65891 0.84764 0.0
H360 H 0.13808 0.70201 0.80023 0.0
S361 S 0.31915 0.90059 0.8732 0.0
N362 N 0.26025 0.83858 0.89001 0.0
N363 N 0.30568 0.88418 0.8389 0.0
C364 C 0.25092 0.82583 0.83993 0.0
C365 C 0.22619 0.80134 0.86758 0.0
C366 C 0.42304 0.50271 0.02548 0.0
C367 C 0.48771 0.53733 0.01699 0.0
C368 C 0.38848 0.43556 0.02421 0.0
C369 C 0.41743 0.40123 0.01409 0.0
H370 H 0.40049 0.52712 0.03531 0.0
H371 H 0.34124 0.4103 0.03395 0.0
S372 S 0.58009 0.47005 0.9828 0.0
N373 N 0.57559 0.53353 0.99327 0.0
N374 N 0.50998 0.40628 0.99068 0.0
C375 C 0.47896 0.43544 1.00193 0.0
C376 C 0.51442 0.50412 1.00336 0.0
C377 C 0.00788 0.55408 0.34531 0.0
C378 C 0.9412 0.51921 0.34951 0.0
C379 C 0.04264 0.52191 0.34227 0.0
C380 C 0.0115 0.45431 0.34349 0.0
H381 H 0.03397 0.60609 0.3474 0.0
H382 H 0.09456 0.55014 0.34198 0.0
S383 S 0.83631 0.34187 0.34755 0.0
N384 N 0.84422 0.4143 0.34927 0.0
N385 N 0.9099 0.35378 0.34435 0.0
C386 C 0.94433 0.41922 0.34403 0.0
C387 C 0.90896 0.45188 0.34696 0.0
C388 C 0.52451 0.94531 0.6931 0.0
C389 C 0.56002 0.00995 0.68468 0.0
C390 C 0.45752 0.91367 0.69454 0.0
C391 C 0.42406 0.94592 0.68793 0.0
H392 H 0.54882 0.921 0.70123 0.0
H393 H 0.43225 0.86529 0.703 0.0
S394 S 0.49457 0.11175 0.6599 0.0
N395 N 0.55711 0.10243 0.66572 0.0
N396 N 0.43038 0.04266 0.66865 0.0
C397 C 0.45844 0.00808 0.6764 0.0
C398 C 0.52693 0.04035 0.6748 0.0
C399 C 0.5244 0.57104 0.65734 0.0
C400 C 0.55341 0.53602 0.66627 0.0
C401 C 0.45798 0.5405 0.65338 0.0
C402 C 0.41879 0.47404 0.65813 0.0
H403 H 0.55373 0.62072 0.65061 0.0
H404 H 0.43797 0.56811 0.6445 0.0
S405 S 0.47049 0.36398 0.68682 0.0
N406 N 0.53771 0.43401 0.68372 0.0
N407 N 0.41208 0.37635 0.67639 0.0
C408 C 0.44623 0.44024 0.67029 0.0
C409 C 0.51407 0.47139 0.67425 0.0
C410 C 0.94611 0.50952 1.00409 0.0
C411 C 0.01309 0.54361 1.00086 0.0
C412 C 0.91246 0.44204 1.00499 0.0
C413 C 0.94499 0.40734 1.00238 0.0
H414 H 0.91921 0.5346 1.00315 0.0
H415 H 0.86054 0.41688 1.00489 0.0
S416 S 0.12084 0.47515 0.99943 0.0
N417 N 0.11136 0.53872 1.00022 0.0
N418 N 0.04773 0.41162 1.00072 0.0
C419 C 0.01215 0.44109 1.00237 0.0
C420 C 0.04641 0.50963 1.00183 0.0
C421 C 0.46026 0.92938 0.3306 0.0
C422 C 0.52777 0.96251 0.33041 0.0
C423 C 0.42663 0.96303 0.3304 0.0
C424 C 0.45981 0.0306 0.33019 0.0
H425 H 0.43348 0.87753 0.32826 0.0
H426 H 0.37501 0.93624 0.32753 0.0
S427 S 0.63572 0.13887 0.33562 0.0
N428 N 0.62609 0.06568 0.33423 0.0
N429 N 0.56271 0.12902 0.3347 0.0
C430 C 0.52676 0.0638 0.33346 0.0
C431 C 0.56097 0.02961 0.33342 0.0
loop_
_geom_bond_atom_site_label_1
_geom_bond_atom_site_label_2
_geom_bond_distance
_geom_bond_site_symmetry_2
_ccdc_geom_bond_type
Mg0 O1 2.028 . S
Mg0 O7 1.986 . S
Mg0 O9 2.114 . S
Mg0 O10 2.251 . S
Mg0 O13 2.010 . S
O1 Mg0 2.028 . S
O1 C4 1.250 . S
O2 Mg3 2.028 . S
O2 C4 1.248 . S
Mg3 O2 2.028 . S
Mg3 O8 2.032 . S
Mg3 O10 2.079 . S
C4 O1 1.250 . S
C4 O2 1.248 . S
C5 O6 1.264 . S
C5 O13 1.249 . S
O6 C5 1.264 . S
O7 Mg0 1.986 . S
O7 C11 1.246 . S
O8 Mg3 2.032 . S
O8 C11 1.259 . S
O9 Mg0 2.114 . S
O9 C12 1.252 . S
O10 Mg0 2.251 . S
O10 Mg3 2.079 . S
O10 C12 1.273 . S
C11 O7 1.246 . S
C11 O8 1.259 . S
C12 O9 1.252 . S
C12 O10 1.273 . S
O13 Mg0 2.010 . S
O13 C5 1.249 . S
Mg14 O15 2.028 . S
Mg14 O21 1.986 . S
Mg14 O23 2.114 . S
Mg14 O24 2.251 . S
Mg14 O27 2.010 . S
O15 Mg14 2.028 . S
O15 C18 1.250 . S
O16 Mg17 2.028 . S
O16 C18 1.248 . S
Mg17 O16 2.028 . S
Mg17 O22 2.032 . S
Mg17 O24 2.079 . S
C18 O15 1.250 . S
C18 O16 1.248 . S
C19 O20 1.264 . S
C19 O27 1.249 . S
O20 C19 1.264 . S
O21 Mg14 1.986 . S
O21 C25 1.246 . S
O22 Mg17 2.032 . S
O22 C25 1.259 . S
O23 Mg14 2.114 . S
O23 C26 1.252 . S
O24 Mg14 2.251 . S
O24 Mg17 2.079 . S
O24 C26 1.273 . S
C25 O21 1.246 . S
C25 O22 1.259 . S
C26 O23 1.252 . S
C26 O24 1.273 . S
O27 Mg14 2.010 . S
O27 C19 1.249 . S
Mg28 O29 2.028 . S
Mg28 O35 1.986 . S
Mg28 O37 2.114 . S
Mg28 O38 2.251 . S
Mg28 O41 2.010 . S
O29 Mg28 2.028 . S
O29 C32 1.250 . S
O30 Mg31 2.028 . S
O30 C32 1.248 . S
Mg31 O30 2.028 . S
Mg31 O36 2.032 . S
Mg31 O38 2.079 . S
C32 O29 1.250 . S
C32 O30 1.248 . S
C33 O34 1.264 . S
C33 O41 1.249 . S
O34 C33 1.264 . S
O35 Mg28 1.986 . S
O35 C39 1.246 . S
O36 Mg31 2.032 . S
O36 C39 1.259 . S
O37 Mg28 2.114 . S
O37 C40 1.252 . S
O38 Mg28 2.251 . S
O38 Mg31 2.079 . S
O38 C40 1.273 . S
C39 O35 1.246 . S
C39 O36 1.259 . S
C40 O37 1.252 . S
C40 O38 1.273 . S
O41 Mg28 2.010 . S
O41 C33 1.249 . S
Mg42 O43 2.028 . S
Mg42 O49 1.986 . S
Mg42 O51 2.114 . S
Mg42 O52 2.251 . S
Mg42 O55 2.010 . S
O43 Mg42 2.028 . S
O43 C46 1.250 . S
O44 Mg45 2.028 . S
O44 C46 1.248 . S
Mg45 O44 2.028 . S
Mg45 O50 2.032 . S
Mg45 O52 2.079 . S
C46 O43 1.250 . S
C46 O44 1.248 . S
C47 O48 1.264 . S
C47 O55 1.249 . S
O48 C47 1.264 . S
O49 Mg42 1.986 . S
O49 C53 1.246 . S
O50 Mg45 2.032 . S
O50 C53 1.259 . S
O51 Mg42 2.114 . S
O51 C54 1.252 . S
O52 Mg42 2.251 . S
O52 Mg45 2.079 . S
O52 C54 1.273 . S
C53 O49 1.246 . S
C53 O50 1.259 . S
C54 O51 1.252 . S
C54 O52 1.273 . S
O55 Mg42 2.010 . S
O55 C47 1.249 . S
Mg56 O57 2.028 . S
Mg56 O63 1.986 . S
Mg56 O65 2.114 . S
Mg56 O66 2.251 . S
Mg56 O69 2.010 . S
O57 Mg56 2.028 . S
O57 C60 1.250 . S
O58 Mg59 2.028 . S
O58 C60 1.248 . S
Mg59 O58 2.028 . S
Mg59 O64 2.032 . S
Mg59 O66 2.079 . S
C60 O57 1.250 . S
C60 O58 1.248 . S
C61 O62 1.264 . S
C61 O69 1.249 . S
O62 C61 1.264 . S
O63 Mg56 1.986 . S
O63 C67 1.246 . S
O64 Mg59 2.032 . S
O64 C67 1.259 . S
O65 Mg56 2.114 . S
O65 C68 1.252 . S
O66 Mg56 2.251 . S
O66 Mg59 2.079 . S
O66 C68 1.273 . S
C67 O63 1.246 . S
C67 O64 1.259 . S
C68 O65 1.252 . S
C68 O66 1.273 . S
O69 Mg56 2.010 . S
O69 C61 1.249 . S
Mg70 O71 2.028 . S
Mg70 O77 1.986 . S
Mg70 O79 2.114 . S
Mg70 O80 2.251 . S
Mg70 O83 2.010 . S
O71 Mg70 2.028 . S
O71 C74 1.250 . S
O72 Mg73 2.028 . S
O72 C74 1.248 . S
Mg73 O72 2.028 . S
Mg73 O78 2.032 . S
Mg73 O80 2.079 . S
C74 O71 1.250 . S
C74 O72 1.248 . S
C75 O76 1.264 . S
C75 O83 1.249 . S
O76 C75 1.264 . S
O77 Mg70 1.986 . S
O77 C81 1.246 . S
O78 Mg73 2.032 . S
O78 C81 1.259 . S
O79 Mg70 2.114 . S
O79 C82 1.252 . S
O80 Mg70 2.251 . S
O80 Mg73 2.079 . S
O80 C82 1.273 . S
C81 O77 1.246 . S
C81 O78 1.259 . S
C82 O79 1.252 . S
C82 O80 1.273 . S
O83 Mg70 2.010 . S
O83 C75 1.249 . S
Mg84 O85 2.028 . S
Mg84 O91 1.986 . S
Mg84 O93 2.114 . S
Mg84 O94 2.251 . S
Mg84 O97 2.010 . S
O85 Mg84 2.028 . S
O85 C88 1.250 . S
O86 Mg87 2.028 . S
O86 C88 1.248 . S
Mg87 O86 2.028 . S
Mg87 O92 2.032 . S
Mg87 O94 2.079 . S
C88 O85 1.250 . S
C88 O86 1.248 . S
C89 O90 1.264 . S
C89 O97 1.249 . S
O90 C89 1.264 . S
O91 Mg84 1.986 . S
O91 C95 1.246 . S
O92 Mg87 2.032 . S
O92 C95 1.259 . S
O93 Mg84 2.114 . S
O93 C96 1.252 . S
O94 Mg84 2.251 . S
O94 Mg87 2.079 . S
O94 C96 1.273 . S
C95 O91 1.246 . S
C95 O92 1.259 . S
C96 O93 1.252 . S
C96 O94 1.273 . S
O97 Mg84 2.010 . S
O97 C89 1.249 . S
Mg98 O99 2.028 . S
Mg98 O105 1.986 . S
Mg98 O107 2.114 . S
Mg98 O108 2.251 . S
Mg98 O111 2.010 . S
O99 Mg98 2.028 . S
O99 C102 1.250 . S
O100 Mg101 2.028 . S
O100 C102 1.248 . S
Mg101 O100 2.028 . S
Mg101 O106 2.032 . S
Mg101 O108 2.079 . S
C102 O99 1.250 . S
C102 O100 1.248 . S
C103 O104 1.264 . S
C103 O111 1.249 . S
O104 C103 1.264 . S
O105 Mg98 1.986 . S
O105 C109 1.246 . S
O106 Mg101 2.032 . S
O106 C109 1.259 . S
O107 Mg98 2.114 . S
O107 C110 1.252 . S
O108 Mg98 2.251 . S
O108 Mg101 2.079 . S
O108 C110 1.273 . S
C109 O105 1.246 . S
C109 O106 1.259 . S
C110 O107 1.252 . S
C110 O108 1.273 . S
O111 Mg98 2.010 . S
O111 C103 1.249 . S
Mg112 O113 2.028 . S
Mg112 O119 1.986 . S
Mg112 O121 2.114 . S
Mg112 O122 2.251 . S
Mg112 O125 2.010 . S
O113 Mg112 2.028 . S
O113 C116 1.250 . S
O114 Mg115 2.028 . S
O114 C116 1.248 . S
Mg115 O114 2.028 . S
Mg115 O120 2.032 . S
Mg115 O122 2.079 . S
C116 O113 1.250 . S
C116 O114 1.248 . S
C117 O118 1.264 . S
C117 O125 1.249 . S
O118 C117 1.264 . S
O119 Mg112 1.986 . S
O119 C123 1.246 . S
O120 Mg115 2.032 . S
O120 C123 1.259 . S
O121 Mg112 2.114 . S
O121 C124 1.252 . S
O122 Mg112 2.251 . S
O122 Mg115 2.079 . S
O122 C124 1.273 . S
C123 O119 1.246 . S
C123 O120 1.259 . S
C124 O121 1.252 . S
C124 O122 1.273 . S
O125 Mg112 2.010 . S
O125 C117 1.249 . S
Mg126 O127 2.028 . S
Mg126 O133 1.986 . S
Mg126 O135 2.114 . S
Mg126 O136 2.251 . S
Mg126 O139 2.010 . S
O127 Mg126 2.028 . S
O127 C130 1.250 . S
O128 Mg129 2.028 . S
O128 C130 1.248 . S
Mg129 O128 2.028 . S
Mg129 O134 2.032 . S
Mg129 O136 2.079 . S
C130 O127 1.250 . S
C130 O128 1.248 . S
C131 O132 1.264 . S
C131 O139 1.249 . S
O132 C131 1.264 . S
O133 Mg126 1.986 . S
O133 C137 1.246 . S
O134 Mg129 2.032 . S
O134 C137 1.259 . S
O135 Mg126 2.114 . S
O135 C138 1.252 . S
O136 Mg126 2.251 . S
O136 Mg129 2.079 . S
O136 C138 1.273 . S
C137 O133 1.246 . S
C137 O134 1.259 . S
C138 O135 1.252 . S
C138 O136 1.273 . S
O139 Mg126 2.010 . S
O139 C131 1.249 . S
Mg140 O141 2.028 . S
Mg140 O147 1.986 . S
Mg140 O149 2.114 . S
Mg140 O150 2.251 . S
Mg140 O153 2.010 . S
O141 Mg140 2.028 . S
O141 C144 1.250 . S
O142 Mg143 2.028 . S
O142 C144 1.248 . S
Mg143 O142 2.028 . S
Mg143 O148 2.032 . S
Mg143 O150 2.079 . S
C144 O141 1.250 . S
C144 O142 1.248 . S
C145 O146 1.264 . S
C145 O153 1.249 . S
O146 C145 1.264 . S
O147 Mg140 1.986 . S
O147 C151 1.246 . S
O148 Mg143 2.032 . S
O148 C151 1.259 . S
O149 Mg140 2.114 . S
O149 C152 1.252 . S
O150 Mg140 2.251 . S
O150 Mg143 2.079 . S
O150 C152 1.273 . S
C151 O147 1.246 . S
C151 O148 1.259 . S
C152 O149 1.252 . S
C152 O150 1.273 . S
O153 Mg140 2.010 . S
O153 C145 1.249 . S
Mg154 O155 2.028 . S
Mg154 O161 1.986 . S
Mg154 O163 2.114 . S
Mg154 O164 2.251 . S
Mg154 O167 2.010 . S
O155 Mg154 2.028 . S
O155 C158 1.250 . S
O156 Mg157 2.028 . S
O156 C158 1.248 . S
Mg157 O156 2.028 . S
Mg157 O162 2.032 . S
Mg157 O164 2.079 . S
C158 O155 1.250 . S
C158 O156 1.248 . S
C159 O160 1.264 . S
C159 O167 1.249 . S
O160 C159 1.264 . S
O161 Mg154 1.986 . S
O161 C165 1.246 . S
O162 Mg157 2.032 . S
O162 C165 1.259 . S
O163 Mg154 2.114 . S
O163 C166 1.252 . S
O164 Mg154 2.251 . S
O164 Mg157 2.079 . S
O164 C166 1.273 . S
C165 O161 1.246 . S
C165 O162 1.259 . S
C166 O163 1.252 . S
C166 O164 1.273 . S
O167 Mg154 2.010 . S
O167 C159 1.249 . S
C168 C169 1.369 . S
C168 C170 1.414 1_566 S
C168 H172 0.930 . S
C169 C168 1.369 . S
C169 C178 1.429 . S
C170 C168 1.414 1_544 S
C170 C171 1.368 . S
C170 H173 0.929 . S
C171 C170 1.368 . S
C171 C177 1.428 . S
H172 C168 0.930 . S
H173 C170 0.929 . S
S174 N175 1.614 1_554 S
S174 N176 1.614 1_565 S
N175 S174 1.614 1_556 S
N175 C178 1.350 . S
N176 S174 1.614 1_545 S
N176 C177 1.351 . S
C177 C171 1.428 . S
C177 N176 1.351 . S
C177 C178 1.434 1_544 S
C178 C169 1.429 . S
C178 N175 1.350 . S
C178 C177 1.434 1_566 S
C179 C180 1.369 . S
C179 C181 1.419 . S
C179 H183 0.930 . S
C180 C179 1.369 . S
C180 C189 1.429 . S
C181 C179 1.419 . S
C181 C182 1.363 . S
C181 H184 0.929 . S
C182 C181 1.363 . S
C182 C188 1.428 . S
H183 C179 0.930 . S
H184 C181 0.929 . S
S185 N186 1.613 . S
S185 N187 1.610 . S
N186 S185 1.613 . S
N186 C189 1.350 . S
N187 S185 1.610 . S
N187 C188 1.351 . S
C188 C182 1.428 . S
C188 N187 1.351 . S
C188 C189 1.434 . S
C189 C180 1.429 . S
C189 N186 1.350 . S
C189 C188 1.434 . S
C190 C191 1.369 . S
C190 C192 1.419 1_655 S
C190 H194 0.930 . S
C191 C190 1.369 . S
C191 C200 1.429 . S
C192 C190 1.419 1_455 S
C192 C193 1.363 . S
C192 H195 0.929 . S
C193 C192 1.363 . S
C193 C199 1.428 . S
H194 C190 0.930 . S
H195 C192 0.929 . S
S196 N197 1.613 . S
S196 N198 1.610 1_655 S
N197 S196 1.613 . S
N197 C200 1.350 . S
N198 S196 1.610 1_455 S
N198 C199 1.351 . S
C199 C193 1.428 . S
C199 N198 1.351 . S
C199 C200 1.434 1_455 S
C200 C191 1.429 . S
C200 N197 1.350 . S
C200 C199 1.434 1_655 S
C201 C202 1.369 1_556 S
C201 C203 1.419 1_565 S
C201 H205 0.930 . S
C202 C201 1.369 1_554 S
C202 C211 1.429 . S
C203 C201 1.419 1_545 S
C203 C204 1.363 . S
C203 H206 0.929 . S
C204 C203 1.363 . S
C204 C210 1.428 1_556 S
H205 C201 0.930 . S
H206 C203 0.929 . S
S207 N208 1.613 1_545 S
S207 N209 1.610 . S
N208 S207 1.613 1_565 S
N208 C211 1.350 . S
N209 S207 1.610 . S
N209 C210 1.351 . S
C210 C204 1.428 1_554 S
C210 N209 1.351 . S
C210 C211 1.434 1_545 S
C211 C202 1.429 . S
C211 N208 1.350 . S
C211 C210 1.434 1_565 S
C212 C213 1.369 . S
C212 C214 1.419 . S
C212 H216 0.930 . S
C213 C212 1.369 . S
C213 C222 1.429 . S
C214 C212 1.419 . S
C214 C215 1.363 . S
C214 H217 0.929 . S
C215 C214 1.363 . S
C215 C221 1.428 . S
H216 C212 0.930 . S
H217 C214 0.929 . S
S218 N219 1.613 . S
S218 N220 1.610 . S
N219 S218 1.613 . S
N219 C222 1.350 . S
N220 S218 1.610 . S
N220 C221 1.351 . S
C221 C215 1.428 . S
C221 N220 1.351 . S
C221 C222 1.434 . S
C222 C213 1.429 . S
C222 N219 1.350 . S
C222 C221 1.434 . S
C223 C224 1.369 . S
C223 C225 1.419 1_655 S
C223 H227 0.930 . S
C224 C223 1.369 . S
C224 C233 1.429 . S
C225 C223 1.419 1_455 S
C225 C226 1.363 . S
C225 H228 0.929 . S
C226 C225 1.363 . S
C226 C232 1.428 . S
H227 C223 0.930 . S
H228 C225 0.929 . S
S229 N230 1.613 1_455 S
S229 N231 1.610 . S
N230 S229 1.613 1_655 S
N230 C233 1.350 . S
N231 S229 1.610 . S
N231 C232 1.351 . S
C232 C226 1.428 . S
C232 N231 1.351 . S
C232 C233 1.434 1_455 S
C233 C224 1.429 . S
C233 N230 1.350 . S
C233 C232 1.434 1_655 S
C234 C235 1.369 . S
C234 C236 1.419 1_556 S
C234 H238 0.930 . S
C235 C234 1.369 . S
C235 C244 1.429 . S
C236 C234 1.419 1_554 S
C236 C237 1.363 . S
C236 H239 0.929 . S
C237 C236 1.363 . S
C237 C243 1.428 . S
H238 C234 0.930 . S
H239 C236 0.929 . S
S240 N241 1.613 . S
S240 N242 1.610 1_556 S
N241 S240 1.613 . S
N241 C244 1.350 . S
N242 S240 1.610 1_554 S
N242 C243 1.351 . S
C243 C237 1.428 . S
C243 N242 1.351 . S
C243 C244 1.434 1_554 S
C244 C235 1.429 . S
C244 N241 1.350 . S
C244 C243 1.434 1_556 S
C245 C246 1.369 . S
C245 C247 1.419 . S
C245 H249 0.930 . S
C246 C245 1.369 . S
C246 C255 1.429 . S
C247 C245 1.419 . S
C247 C248 1.363 . S
C247 H250 0.929 . S
C248 C247 1.363 . S
C248 C254 1.428 . S
H249 C245 0.930 . S
H250 C247 0.929 . S
S251 N252 1.613 . S
S251 N253 1.610 . S
N252 S251 1.613 . S
N252 C255 1.350 . S
N253 S251 1.610 . S
N253 C254 1.351 . S
C254 C248 1.428 . S
C254 N253 1.351 . S
C254 C255 1.434 . S
C255 C246 1.429 . S
C255 N252 1.350 . S
C255 C254 1.434 . S
C256 C257 1.369 . S
C256 C258 1.419 . S
C256 H260 0.930 . S
C257 C256 1.369 . S
C257 C266 1.429 . S
C258 C256 1.419 . S
C258 C259 1.363 . S
C258 H261 0.929 . S
C259 C258 1.363 . S
C259 C265 1.428 . S
H260 C256 0.930 . S
H261 C258 0.929 . S
S262 N263 1.613 . S
S262 N264 1.610 . S
N263 S262 1.613 . S
N263 C266 1.350 . S
N264 S262 1.610 . S
N264 C265 1.351 . S
C265 C259 1.428 . S
C265 N264 1.351 . S
C265 C266 1.434 . S
C266 C257 1.429 . S
C266 N263 1.350 . S
C266 C265 1.434 . S
C267 C268 1.369 1_554 S
C267 C269 1.419 . S
C267 H271 0.930 . S
C268 C267 1.369 1_556 S
C268 C277 1.429 . S
C269 C267 1.419 . S
C269 C270 1.363 . S
C269 H272 0.929 . S
C270 C269 1.363 . S
C270 C276 1.428 1_554 S
H271 C267 0.930 . S
H272 C269 0.929 . S
S273 N274 1.613 . S
S273 N275 1.610 . S
N274 S273 1.613 . S
N274 C277 1.350 . S
N275 S273 1.610 . S
N275 C276 1.351 . S
C276 C270 1.428 1_556 S
C276 N275 1.351 . S
C276 C277 1.434 . S
C277 C268 1.429 . S
C277 N274 1.350 . S
C277 C276 1.434 . S
C278 C279 1.369 . S
C278 C280 1.419 . S
C278 H282 0.930 . S
C279 C278 1.369 . S
C279 C288 1.429 . S
C280 C278 1.419 . S
C280 C281 1.363 . S
C280 H283 0.929 . S
C281 C280 1.363 . S
C281 C287 1.428 . S
H282 C278 0.930 . S
H283 C280 0.929 . S
S284 N285 1.613 . S
S284 N286 1.610 . S
N285 S284 1.613 . S
N285 C288 1.350 . S
N286 S284 1.610 . S
N286 C287 1.351 . S
C287 C281 1.428 . S
C287 N286 1.351 . S
C287 C288 1.434 . S
C288 C279 1.429 . S
C288 N285 1.350 . S
C288 C287 1.434 . S
C289 C290 1.369 . S
C289 C291 1.419 . S
C289 H293 0.930 . S
C290 C289 1.369 . S
C290 C299 1.429 . S
C291 C289 1.419 . S
C291 C292 1.363 . S
C291 H294 0.929 . S
C292 C291 1.363 . S
C292 C298 1.428 . S
H293 C289 0.930 . S
H294 C291 0.929 . S
S295 N296 1.613 . S
S295 N297 1.610 . S
N296 S295 1.613 . S
N296 C299 1.350 . S
N297 S295 1.610 . S
N297 C298 1.351 . S
C298 C292 1.428 . S
C298 N297 1.351 . S
C298 C299 1.434 . S
C299 C290 1.429 . S
C299 N296 1.350 . S
C299 C298 1.434 . S
C300 C301 1.369 . S
C300 C302 1.419 . S
C300 H304 0.930 . S
C301 C300 1.369 . S
C301 C310 1.429 . S
C302 C300 1.419 . S
C302 C303 1.363 . S
C302 H305 0.929 . S
C303 C302 1.363 . S
C303 C309 1.428 . S
H304 C300 0.930 . S
H305 C302 0.929 . S
S306 N307 1.613 . S
S306 N308 1.610 . S
N307 S306 1.613 . S
N307 C310 1.350 . S
N308 S306 1.610 . S
N308 C309 1.351 . S
C309 C303 1.428 . S
C309 N308 1.351 . S
C309 C310 1.434 . S
C310 C301 1.429 . S
C310 N307 1.350 . S
C310 C309 1.434 . S
C311 C312 1.369 . S
C311 C313 1.419 . S
C311 H315 0.930 . S
C312 C311 1.369 . S
C312 C321 1.429 . S
C313 C311 1.419 . S
C313 C314 1.363 . S
C313 H316 0.929 . S
C314 C313 1.363 . S
C314 C320 1.428 . S
H315 C311 0.930 . S
H316 C313 0.929 . S
S317 N318 1.613 . S
S317 N319 1.610 . S
N318 S317 1.613 . S
N318 C321 1.350 . S
N319 S317 1.610 . S
N319 C320 1.351 . S
C320 C314 1.428 . S
C320 N319 1.351 . S
C320 C321 1.434 . S
C321 C312 1.429 . S
C321 N318 1.350 . S
C321 C320 1.434 . S
C322 C323 1.369 . S
C322 C324 1.419 . S
C322 H326 0.930 . S
C323 C322 1.369 . S
C323 C332 1.429 . S
C324 C322 1.419 . S
C324 C325 1.363 . S
C324 H327 0.929 . S
C325 C324 1.363 . S
C325 C331 1.428 . S
H326 C322 0.930 . S
H327 C324 0.929 . S
S328 N329 1.613 . S
S328 N330 1.610 . S
N329 S328 1.613 . S
N329 C332 1.350 . S
N330 S328 1.610 . S
N330 C331 1.351 . S
C331 C325 1.428 . S
C331 N330 1.351 . S
C331 C332 1.434 . S
C332 C323 1.429 . S
C332 N329 1.350 . S
C332 C331 1.434 . S
C333 C334 1.369 . S
C333 C335 1.419 . S
C333 H337 0.930 . S
C334 C333 1.369 . S
C334 C343 1.429 . S
C335 C333 1.419 . S
C335 C336 1.363 . S
C335 H338 0.929 . S
C336 C335 1.363 . S
C336 C342 1.428 . S
H337 C333 0.930 . S
H338 C335 0.929 . S
S339 N340 1.613 . S
S339 N341 1.610 . S
N340 S339 1.613 . S
N340 C343 1.350 . S
N341 S339 1.610 . S
N341 C342 1.351 . S
C342 C336 1.428 . S
C342 N341 1.351 . S
C342 C343 1.434 . S
C343 C334 1.429 . S
C343 N340 1.350 . S
C343 C342 1.434 . S
C344 C345 1.369 . S
C344 C346 1.419 . S
C344 H348 0.930 . S
C345 C344 1.369 . S
C345 C354 1.429 . S
C346 C344 1.419 . S
C346 C347 1.363 . S
C346 H349 0.929 . S
C347 C346 1.363 . S
C347 C353 1.428 . S
H348 C344 0.930 . S
H349 C346 0.929 . S
S350 N351 1.613 . S
S350 N352 1.610 . S
N351 S350 1.613 . S
N351 C354 1.350 . S
N352 S350 1.610 . S
N352 C353 1.351 . S
C353 C347 1.428 . S
C353 N352 1.351 . S
C353 C354 1.434 . S
C354 C345 1.429 . S
C354 N351 1.350 . S
C354 C353 1.434 . S
C355 C356 1.369 . S
C355 C357 1.419 . S
C355 H359 0.930 . S
C356 C355 1.369 . S
C356 C365 1.429 . S
C357 C355 1.419 . S
C357 C358 1.363 . S
C357 H360 0.929 . S
C358 C357 1.363 . S
C358 C364 1.428 . S
H359 C355 0.930 . S
H360 C357 0.929 . S
S361 N362 1.613 . S
S361 N363 1.610 . S
N362 S361 1.613 . S
N362 C365 1.350 . S
N363 S361 1.610 . S
N363 C364 1.351 . S
C364 C358 1.428 . S
C364 N363 1.351 . S
C364 C365 1.434 . S
C365 C356 1.429 . S
C365 N362 1.350 . S
C365 C364 1.434 . S
C366 C367 1.369 . S
C366 C368 1.419 . S
C366 H370 0.930 . S
C367 C366 1.369 . S
C367 C376 1.429 . S
C368 C366 1.419 . S
C368 C369 1.363 . S
C368 H371 0.929 . S
C369 C368 1.363 . S
C369 C375 1.428 . S
H370 C366 0.930 . S
H371 C368 0.929 . S
S372 N373 1.613 . S
S372 N374 1.610 . S
N373 S372 1.613 . S
N373 C376 1.350 1_556 S
N374 S372 1.610 . S
N374 C375 1.351 1_556 S
C375 C369 1.428 . S
C375 N374 1.351 1_554 S
C375 C376 1.434 . S
C376 C367 1.429 . S
C376 N373 1.350 1_554 S
C376 C375 1.434 . S
C377 C378 1.369 1_455 S
C377 C379 1.419 . S
C377 H381 0.930 . S
C378 C377 1.369 1_655 S
C378 C387 1.429 . S
C379 C377 1.419 . S
C379 C380 1.363 . S
C379 H382 0.929 . S
C380 C379 1.363 . S
C380 C386 1.428 1_455 S
H381 C377 0.930 . S
H382 C379 0.929 . S
S383 N384 1.613 . S
S383 N385 1.610 . S
N384 S383 1.613 . S
N384 C387 1.350 . S
N385 S383 1.610 . S
N385 C386 1.351 . S
C386 C380 1.428 1_655 S
C386 N385 1.351 . S
C386 C387 1.434 . S
C387 C378 1.429 . S
C387 N384 1.350 . S
C387 C386 1.434 . S
C388 C389 1.369 1_565 S
C388 C390 1.419 . S
C388 H392 0.930 . S
C389 C388 1.369 1_545 S
C389 C398 1.429 . S
C390 C388 1.419 . S
C390 C391 1.363 . S
C390 H393 0.929 . S
C391 C390 1.363 . S
C391 C397 1.428 1_565 S
H392 C388 0.930 . S
H393 C390 0.929 . S
S394 N395 1.613 . S
S394 N396 1.610 . S
N395 S394 1.613 . S
N395 C398 1.350 . S
N396 S394 1.610 . S
N396 C397 1.351 . S
C397 C391 1.428 1_545 S
C397 N396 1.351 . S
C397 C398 1.434 . S
C398 C389 1.429 . S
C398 N395 1.350 . S
C398 C397 1.434 . S
C399 C400 1.369 . S
C399 C401 1.419 . S
C399 H403 0.930 . S
C400 C399 1.369 . S
C400 C409 1.429 . S
C401 C399 1.419 . S
C401 C402 1.363 . S
C401 H404 0.929 . S
C402 C401 1.363 . S
C402 C408 1.428 . S
H403 C399 0.930 . S
H404 C401 0.929 . S
S405 N406 1.613 . S
S405 N407 1.610 . S
N406 S405 1.613 . S
N406 C409 1.350 . S
N407 S405 1.610 . S
N407 C408 1.351 . S
C408 C402 1.428 . S
C408 N407 1.351 . S
C408 C409 1.434 . S
C409 C400 1.429 . S
C409 N406 1.350 . S
C409 C408 1.434 . S
C410 C411 1.369 1_655 S
C410 C412 1.419 . S
C410 H414 0.930 1_556 S
C411 C410 1.369 1_455 S
C411 C420 1.429 . S
C412 C410 1.419 . S
C412 C413 1.363 . S
C412 H415 0.929 1_556 S
C413 C412 1.363 . S
C413 C419 1.428 1_655 S
H414 C410 0.930 1_554 S
H415 C412 0.929 1_554 S
S416 N417 1.613 . S
S416 N418 1.610 . S
N417 S416 1.613 . S
N417 C420 1.350 . S
N418 S416 1.610 . S
N418 C419 1.351 . S
C419 C413 1.428 1_455 S
C419 N418 1.351 . S
C419 C420 1.434 . S
C420 C411 1.429 . S
C420 N417 1.350 . S
C420 C419 1.434 . S
C421 C422 1.369 . S
C421 C423 1.419 . S
C421 H425 0.930 . S
C422 C421 1.369 . S
C422 C431 1.429 1_565 S
C423 C421 1.419 . S
C423 C424 1.363 1_565 S
C423 H426 0.929 . S
C424 C423 1.363 1_545 S
C424 C430 1.428 . S
H425 C421 0.930 . S
H426 C423 0.929 . S
S427 N428 1.613 . S
S427 N429 1.610 . S
N428 S427 1.613 . S
N428 C431 1.350 . S
N429 S427 1.610 . S
N429 C430 1.351 . S
C430 C424 1.428 . S
C430 N429 1.351 . S
C430 C431 1.434 . S
C431 C422 1.429 1_545 S
C431 N428 1.350 . S
C431 C430 1.434 . S
C169 C103 1.245 . S
C171 C5 1.250 . S
C180 C19 1.262 . S
C182 C117 1.257 . S
C191 C33 1.259 . S
C193 C131 1.250 . S
C202 C47 1.258 . S
C204 C145 1.260 . S
C213 C159 1.255 . S
C215 C61 1.247 . S
C224 C89 1.245 . S
C226 C75 1.253 . S
C235 C144 1.363 . S
C237 C4 1.363 . S
C246 C18 1.364 . S
C248 C158 1.366 . S
C257 C32 1.366 . S
C259 C88 1.364 . S
C268 C102 1.363 . S
C270 C46 1.363 . S
C279 C116 1.365 . S
C281 C60 1.363 . S
C290 C130 1.367 . S
C292 C74 1.365 . S
C301 C11 1.551 . S
C303 C123 1.551 . S
C312 C25 1.553 . S
C314 C137 1.555 . S
C323 C151 1.550 . S
C325 C39 1.553 . S
C334 C53 1.555 . S
C336 C165 1.552 . S
C345 C95 1.553 . S
C347 C67 1.555 . S
C356 C109 1.555 . S
C358 C81 1.552 . S
C367 C54 1.334 . S
C369 C12 1.331 . S
C378 C68 1.325 . S
C380 C26 1.335 . S
C389 C40 1.327 . S
C391 C82 1.332 . S
C400 C96 1.326 . S
C402 C138 1.334 . S
C411 C110 1.329 . S
C413 C152 1.330 . S
C422 C166 1.337 . S
C424 C124 1.328 . S
