# Generated by pormake.
# Topology uob, (4)-cn, num edge types: 1
# Building blocks:
#     Node 0, Type 0, BuildingBlock: KOZSID_clean_sbu_0, # of connection points: 4
#     Node 1, Type 0, BuildingBlock: KOZSID_clean_sbu_0, # of connection points: 4
#     Node 2, Type 0, BuildingBlock: KOZSID_clean_sbu_0, # of connection points: 4
#     Node 3, Type 0, BuildingBlock: KOZSID_clean_sbu_0, # of connection points: 4
#     Node 4, Type 0, BuildingBlock: KOZSID_clean_sbu_0, # of connection points: 4
#     Node 5, Type 0, BuildingBlock: KOZSID_clean_sbu_0, # of connection points: 4
#     Node 6, Type 0, BuildingBlock: KOZSID_clean_sbu_0, # of connection points: 4
#     Node 7, Type 0, BuildingBlock: KOZSID_clean_sbu_0, # of connection points: 4
#     Node 8, Type 0, BuildingBlock: KOZSID_clean_sbu_0, # of connection points: 4
#     Node 9, Type 0, BuildingBlock: KOZSID_clean_sbu_0, # of connection points: 4
#     Node 10, Type 0, BuildingBlock: KOZSID_clean_sbu_0, # of connection points: 4
#     Node 11, Type 0, BuildingBlock: KOZSID_clean_sbu_0, # of connection points: 4
#     Node 12, Type 0, BuildingBlock: KOZSID_clean_sbu_0, # of connection points: 4
#     Node 13, Type 0, BuildingBlock: KOZSID_clean_sbu_0, # of connection points: 4
#     Node 14, Type 0, BuildingBlock: KOZSID_clean_sbu_0, # of connection points: 4
#     Node 15, Type 0, BuildingBlock: KOZSID_clean_sbu_0, # of connection points: 4
#     Edge 16, Type (0, 0), BuildingBlock: XIVTED_clean_linker_0, # of connection points: 2
#     Edge 17, Type (0, 0), BuildingBlock: XIVTED_clean_linker_0, # of connection points: 2
#     Edge 18, Type (0, 0), BuildingBlock: XIVTED_clean_linker_0, # of connection points: 2
#     Edge 19, Type (0, 0), BuildingBlock: XIVTED_clean_linker_0, # of connection points: 2
#     Edge 20, Type (0, 0), BuildingBlock: XIVTED_clean_linker_0, # of connection points: 2
#     Edge 21, Type (0, 0), BuildingBlock: XIVTED_clean_linker_0, # of connection points: 2
#     Edge 22, Type (0, 0), BuildingBlock: XIVTED_clean_linker_0, # of connection points: 2
#     Edge 23, Type (0, 0), BuildingBlock: XIVTED_clean_linker_0, # of connection points: 2
#     Edge 24, Type (0, 0), BuildingBlock: XIVTED_clean_linker_0, # of connection points: 2
#     Edge 25, Type (0, 0), BuildingBlock: XIVTED_clean_linker_0, # of connection points: 2
#     Edge 26, Type (0, 0), BuildingBlock: XIVTED_clean_linker_0, # of connection points: 2
#     Edge 27, Type (0, 0), BuildingBlock: XIVTED_clean_linker_0, # of connection points: 2
#     Edge 28, Type (0, 0), BuildingBlock: XIVTED_clean_linker_0, # of connection points: 2
#     Edge 29, Type (0, 0), BuildingBlock: XIVTED_clean_linker_0, # of connection points: 2
#     Edge 30, Type (0, 0), BuildingBlock: XIVTED_clean_linker_0, # of connection points: 2
#     Edge 31, Type (0, 0), BuildingBlock: XIVTED_clean_linker_0, # of connection points: 2
#     Edge 32, Type (0, 0), BuildingBlock: XIVTED_clean_linker_0, # of connection points: 2
#     Edge 33, Type (0, 0), BuildingBlock: XIVTED_clean_linker_0, # of connection points: 2
#     Edge 34, Type (0, 0), BuildingBlock: XIVTED_clean_linker_0, # of connection points: 2
#     Edge 35, Type (0, 0), BuildingBlock: XIVTED_clean_linker_0, # of connection points: 2
#     Edge 36, Type (0, 0), BuildingBlock: XIVTED_clean_linker_0, # of connection points: 2
#     Edge 37, Type (0, 0), BuildingBlock: XIVTED_clean_linker_0, # of connection points: 2
#     Edge 38, Type (0, 0), BuildingBlock: XIVTED_clean_linker_0, # of connection points: 2
#     Edge 39, Type (0, 0), BuildingBlock: XIVTED_clean_linker_0, # of connection points: 2
#     Edge 40, Type (0, 0), BuildingBlock: XIVTED_clean_linker_0, # of connection points: 2
#     Edge 41, Type (0, 0), BuildingBlock: XIVTED_clean_linker_0, # of connection points: 2
#     Edge 42, Type (0, 0), BuildingBlock: XIVTED_clean_linker_0, # of connection points: 2
#     Edge 43, Type (0, 0), BuildingBlock: XIVTED_clean_linker_0, # of connection points: 2
#     Edge 44, Type (0, 0), BuildingBlock: XIVTED_clean_linker_0, # of connection points: 2
#     Edge 45, Type (0, 0), BuildingBlock: XIVTED_clean_linker_0, # of connection points: 2
#     Edge 46, Type (0, 0), BuildingBlock: XIVTED_clean_linker_0, # of connection points: 2
#     Edge 47, Type (0, 0), BuildingBlock: XIVTED_clean_linker_0, # of connection points: 2
# Relax obj value: 0.100
# Max RMSD: 0.277
# Mean RMSD: 0.244
data_MOF--net-uob--node1-KOZSID_clean_sbu_0--edge1-XIVTED_clean_linker_0
_symmetry_space_group_name_H-M    P1
_symmetry_Int_Tables_number       1
_symmetry_cell_setting            triclinic
loop_
_symmetry_equiv_pos_as_xyz
'x, y, z'
_cell_length_a     55.968449
_cell_length_b     70.064209
_cell_length_c     34.430359
_cell_angle_alpha  89.983093
_cell_angle_beta   90.013699
_cell_angle_gamma 89.970572
loop_
_atom_site_label
_atom_site_type_symbol
_atom_site_fract_x
_atom_site_fract_y
_atom_site_fract_z
_atom_type_partial_charge
C0 C 0.18764 0.07718 0.32625 0.0
C1 C 0.20773 0.06556 0.32511 0.0
C2 C 0.20087 0.04886 0.30751 0.0
C3 C 0.17706 0.05116 0.29902 0.0
N4 N 0.16862 0.06829 0.31007 0.0
Co5 Co 0.13528 0.07728 0.30469 0.0
N6 N 0.12318 0.0508 0.3012 0.0
C7 C 0.13624 0.03532 0.29188 0.0
C8 C 0.12303 0.01884 0.29147 0.0
C9 C 0.10023 0.02434 0.30074 0.0
C10 C 0.10078 0.044 0.30625 0.0
N11 N 0.10198 0.08625 0.29875 0.0
C12 C 0.08116 0.07649 0.30265 0.0
C13 C 0.06187 0.08825 0.29435 0.0
C14 C 0.07114 0.10585 0.28467 0.0
C15 C 0.09554 0.10392 0.28751 0.0
N16 N 0.14804 0.10355 0.30908 0.0
C17 C 0.13691 0.11953 0.29727 0.0
C18 C 0.14981 0.13566 0.3064 0.0
C19 C 0.17015 0.12928 0.32505 0.0
C20 C 0.16854 0.10956 0.32641 0.0
N21 N 0.13834 0.07843 0.2474 0.0
C22 C 0.1334 0.08889 0.16843 0.0
C23 C 0.15302 0.09514 0.19066 0.0
C24 C 0.15537 0.0895 0.22982 0.0
C25 C 0.11751 0.07609 0.18603 0.0
C26 C 0.12026 0.07109 0.22509 0.0
N27 N 0.13093 0.07698 0.36116 0.0
C28 C 0.11548 0.09363 0.4167 0.0
C29 C 0.12148 0.07848 0.44108 0.0
C30 C 0.13219 0.06222 0.42456 0.0
C31 C 0.13696 0.06182 0.38429 0.0
C32 C 0.12028 0.09261 0.37738 0.0
H33 H 0.14531 0.04934 0.37182 0.0
H34 H 0.11499 0.10462 0.36007 0.0
H35 H 0.1702 0.09502 0.24647 0.0
H36 H 0.10651 0.06237 0.23776 0.0
C37 C 0.1612 0.03642 0.28973 0.0
C38 C 0.18713 0.09666 0.342 0.0
C39 C 0.07941 0.05592 0.31157 0.0
C40 C 0.11261 0.11878 0.28623 0.0
H41 H 0.22536 0.06862 0.33636 0.0
H42 H 0.21159 0.03614 0.30376 0.0
H43 H 0.12931 1.00446 0.28618 0.0
H44 H 0.08488 0.01499 0.30245 0.0
H45 H 0.04313 0.08447 0.29498 0.0
H46 H 0.06119 0.11864 0.27768 0.0
H47 H 0.14449 0.15036 0.30207 0.0
H48 H 0.18441 0.13805 0.33652 0.0
H49 H 0.16616 0.10468 0.17821 0.0
H50 H 0.10203 0.07083 0.17051 0.0
H51 H 0.10671 0.10629 0.42787 0.0
H52 H 0.13704 0.05015 0.44253 0.0
C53 C 0.89978 0.63368 0.48562 0.0
C54 C 0.87717 0.63211 0.46943 0.0
C55 C 0.86151 0.63031 0.49988 0.0
C56 C 0.87543 0.63088 0.53275 0.0
N57 N 0.89879 0.63301 0.52476 0.0
Co58 Co 0.92508 0.6344 0.56296 0.0
N59 N 0.90565 0.62098 0.60235 0.0
C60 C 0.88165 0.61935 0.60213 0.0
C61 C 0.87304 0.60929 0.63324 0.0
C62 C 0.8928 0.6045 0.65455 0.0
C63 C 0.91256 0.61199 0.63521 0.0
N64 N 0.95116 0.63612 0.60135 0.0
C65 C 0.954 0.62673 0.63549 0.0
C66 C 0.9746 0.63286 0.65415 0.0
C67 C 0.9847 0.64665 0.63089 0.0
C68 C 0.96978 0.64824 0.59932 0.0
N69 N 0.94403 0.64738 0.52217 0.0
C70 C 0.96348 0.65823 0.52796 0.0
C71 C 0.97353 0.66413 0.49345 0.0
C72 C 0.95946 0.6564 0.46449 0.0
C73 C 0.94161 0.64618 0.48296 0.0
N74 N 0.91328 0.6595 0.58261 0.0
C75 C 0.90737 0.6965 0.61625 0.0
C76 C 0.90921 0.69387 0.57559 0.0
C77 C 0.91169 0.67537 0.55946 0.0
C78 C 0.90677 0.67977 0.63875 0.0
C79 C 0.9102 0.66181 0.62183 0.0
N80 N 0.93823 0.60969 0.54539 0.0
C81 C 0.97393 0.5911 0.53446 0.0
C82 C 0.96104 0.57403 0.53589 0.0
C83 C 0.936 0.5753 0.53937 0.0
C84 C 0.92493 0.5933 0.54404 0.0
C85 C 0.96235 0.60854 0.53924 0.0
H86 H 0.90582 0.5939 0.54825 0.0
H87 H 0.97338 0.62108 0.53989 0.0
H88 H 0.91346 0.67405 0.52833 0.0
H89 H 0.91151 0.6499 0.64139 0.0
C90 C 0.86827 0.62497 0.56972 0.0
C91 C 0.92181 0.63616 0.4634 0.0
C92 C 0.93675 0.61299 0.65198 0.0
C93 C 0.97436 0.6586 0.56491 0.0
H94 H 0.87254 0.632 0.43891 0.0
H95 H 0.84249 0.62766 0.4981 0.0
H96 H 0.85466 0.60553 0.63933 0.0
H97 H 0.89246 0.59692 0.68192 0.0
H98 H 0.98151 0.62795 0.68177 0.0
H99 H 1.00129 0.65418 0.6359 0.0
H100 H 0.98992 0.6721 0.48964 0.0
H101 H 0.96212 0.65793 0.43351 0.0
H102 H 0.90961 0.70594 0.55605 0.0
H103 H 0.90423 0.68023 0.66984 0.0
H104 H 0.99314 0.59103 0.53066 0.0
H105 H 0.92517 0.56251 0.54024 0.0
C106 C 0.3285 0.44771 0.82634 0.0
C107 C 0.30845 0.45936 0.82503 0.0
C108 C 0.31536 0.47601 0.8073 0.0
C109 C 0.33917 0.47367 0.79893 0.0
N110 N 0.34757 0.45655 0.81016 0.0
Co111 Co 0.38092 0.44755 0.80509 0.0
N112 N 0.39305 0.47401 0.80145 0.0
C113 C 0.38003 0.48948 0.79193 0.0
C114 C 0.39325 0.50596 0.79147 0.0
C115 C 0.41603 0.50046 0.80091 0.0
C116 C 0.41545 0.48081 0.80657 0.0
N117 N 0.41423 0.43855 0.79946 0.0
C118 C 0.43505 0.4483 0.80338 0.0
C119 C 0.45434 0.43652 0.7953 0.0
C120 C 0.44508 0.41891 0.78574 0.0
C121 C 0.42068 0.42085 0.78843 0.0
N122 N 0.36813 0.42129 0.80962 0.0
C123 C 0.37927 0.40529 0.79804 0.0
C124 C 0.36635 0.38917 0.80726 0.0
C125 C 0.34597 0.39561 0.82574 0.0
C126 C 0.34759 0.41532 0.82692 0.0
N127 N 0.378 0.4463 0.74778 0.0
C128 C 0.38302 0.4358 0.66885 0.0
C129 C 0.36337 0.42958 0.69102 0.0
C130 C 0.36098 0.43523 0.73017 0.0
C131 C 0.39892 0.44858 0.6865 0.0
C132 C 0.39613 0.4536 0.72553 0.0
N133 N 0.38513 0.44795 0.86158 0.0
C134 C 0.40015 0.43132 0.91749 0.0
C135 C 0.39399 0.4465 0.94164 0.0
C136 C 0.38347 0.46276 0.92487 0.0
C137 C 0.37898 0.46314 0.88452 0.0
C138 C 0.39568 0.43233 0.87806 0.0
H139 H 0.37071 0.4756 0.87184 0.0
H140 H 0.40105 0.4203 0.8609 0.0
H141 H 0.34612 0.42974 0.74676 0.0
H142 H 0.40987 0.46231 0.73824 0.0
C143 C 0.35508 0.48839 0.78963 0.0
C144 C 0.32897 0.42826 0.84228 0.0
C145 C 0.43681 0.4689 0.81208 0.0
C146 C 0.40359 0.406 0.78716 0.0
H147 H 0.2908 0.45636 0.83625 0.0
H148 H 0.30467 0.48875 0.80343 0.0
H149 H 0.38698 0.52033 0.78602 0.0
H150 H 0.43138 0.50981 0.80263 0.0
H151 H 0.47308 0.4403 0.79598 0.0
H152 H 0.45503 0.40609 0.7789 0.0
H153 H 0.37167 0.37446 0.80311 0.0
H154 H 0.33169 0.38686 0.83722 0.0
H155 H 0.35022 0.42005 0.67854 0.0
H156 H 0.41443 0.45381 0.67103 0.0
H157 H 0.40871 0.41864 0.929 0.0
H158 H 0.37848 0.47485 0.94272 0.0
C159 C 0.61773 0.8924 0.98842 0.0
C160 C 0.6406 0.89378 0.97318 0.0
C161 C 0.65589 0.89486 1.0043 0.0
C162 C 0.64151 0.89406 0.03662 0.0
N163 N 0.61822 0.8925 0.02765 0.0
Co164 Co 0.59146 0.89098 0.06492 0.0
N165 N 0.61068 0.90359 0.10565 0.0
C166 C 0.63474 0.90419 0.10681 0.0
C167 C 0.64335 0.91272 0.13975 0.0
C168 C 0.6235 0.91764 0.16072 0.0
C169 C 0.60367 0.91196 0.13914 0.0
N170 N 0.56485 0.88932 0.10234 0.0
C171 C 0.56135 0.89905 0.13595 0.0
C172 C 0.53968 0.89387 0.15251 0.0
C173 C 0.52981 0.88013 0.12883 0.0
C174 C 0.54577 0.87774 0.09889 0.0
N175 N 0.57289 0.87858 0.0229 0.0
C176 C 0.55321 0.86788 0.02767 0.0
C177 C 0.54356 0.86231 0.99263 0.0
C178 C 0.55815 0.87008 0.96442 0.0
C179 C 0.57591 0.88001 0.9838 0.0
N180 N 0.60252 0.86555 0.08391 0.0
C181 C 0.60825 0.82818 0.116 0.0
C182 C 0.60721 0.83131 0.07539 0.0
C183 C 0.60479 0.84999 0.06005 0.0
C184 C 0.60797 0.84462 0.13936 0.0
C185 C 0.6046 0.86274 0.12317 0.0
N186 N 0.57894 0.91601 0.04799 0.0
C187 C 0.54353 0.93485 0.03633 0.0
C188 C 0.55637 0.95184 0.03996 0.0
C189 C 0.58132 0.9505 0.04487 0.0
C190 C 0.59228 0.9324 0.04882 0.0
C191 C 0.55499 0.91733 0.04037 0.0
H192 H 0.61127 0.93168 0.05427 0.0
H193 H 0.54389 0.90485 0.03941 0.0
H194 H 0.60367 0.85171 0.02892 0.0
H195 H 0.60257 0.87436 0.14324 0.0
C196 C 0.64837 0.89892 0.07441 0.0
C197 C 0.59601 0.89016 0.96518 0.0
C198 C 0.57888 0.91235 0.15355 0.0
C199 C 0.54164 0.8676 0.06407 0.0
H200 H 0.64565 0.89409 0.94284 0.0
H201 H 0.67502 0.89707 1.00337 0.0
H202 H 0.66183 0.91532 0.1474 0.0
H203 H 0.62382 0.92407 0.18926 0.0
H204 H 0.53174 0.89943 0.17881 0.0
H205 H 0.51257 0.87335 0.13223 0.0
H206 H 0.52706 0.8546 0.98799 0.0
H207 H 0.55581 0.86883 0.93333 0.0
H208 H 0.60746 0.81948 0.05525 0.0
H209 H 0.60982 0.8438 0.17055 0.0
H210 H 0.52441 0.93503 0.03147 0.0
H211 H 0.59208 0.96327 0.04743 0.0
C212 C 0.1881 0.44787 0.03537 0.0
C213 C 0.20818 0.45949 0.03658 0.0
C214 C 0.2013 0.47617 0.05424 0.0
C215 C 0.17749 0.47387 0.06268 0.0
N216 N 0.16907 0.45676 0.05156 0.0
Co217 Co 0.13571 0.44781 0.05679 0.0
N218 N 0.12361 0.47429 0.06036 0.0
C219 C 0.13667 0.48975 0.06977 0.0
C220 C 0.12346 0.50625 0.07021 0.0
C221 C 0.10066 0.50077 0.06086 0.0
C222 C 0.10122 0.48112 0.05528 0.0
N223 N 0.1024 0.43886 0.06259 0.0
C224 C 0.08159 0.44864 0.05869 0.0
C225 C 0.06229 0.4369 0.06689 0.0
C226 C 0.07154 0.41928 0.07651 0.0
C227 C 0.09595 0.42119 0.07373 0.0
N228 N 0.14847 0.42152 0.05231 0.0
C229 C 0.13733 0.40555 0.064 0.0
C230 C 0.15022 0.38941 0.05482 0.0
C231 C 0.17058 0.39579 0.03626 0.0
C232 C 0.16898 0.41551 0.03499 0.0
N233 N 0.13871 0.44658 0.11409 0.0
C234 C 0.1337 0.43608 0.19304 0.0
C235 C 0.15331 0.4298 0.17084 0.0
C236 C 0.15571 0.43547 0.13169 0.0
C237 C 0.11784 0.44892 0.17543 0.0
C238 C 0.12063 0.45394 0.13638 0.0
N239 N 0.13141 0.44817 1.00031 0.0
C240 C 0.11601 0.4316 0.94463 0.0
C241 C 0.12205 0.44677 0.92034 0.0
C242 C 0.13274 0.46299 0.93697 0.0
C243 C 0.13747 0.46335 0.97726 0.0
C244 C 0.12076 0.43257 0.98398 0.0
H245 H 0.14582 0.4758 0.98982 0.0
H246 H 0.11545 0.42055 1.00122 0.0
H247 H 0.17054 0.42993 0.11507 0.0
H248 H 0.1069 0.4627 0.1237 0.0
C249 C 0.16162 0.48863 0.07198 0.0
C250 C 0.18761 0.42841 0.01954 0.0
C251 C 0.07984 0.46923 0.04987 0.0
C252 C 0.11302 0.40631 0.07498 0.0
H253 H 0.22581 0.45646 0.02534 0.0
H254 H 0.21201 0.4889 0.05804 0.0
H255 H 0.12974 0.52062 0.07557 0.0
H256 H 0.08532 0.51015 0.05915 0.0
H257 H 0.04355 0.4407 0.06624 0.0
H258 H 0.06159 0.40648 0.08343 0.0
H259 H 0.14489 0.37471 0.05907 0.0
H260 H 0.18484 0.38702 0.02479 0.0
H261 H 0.16643 0.42022 0.1833 0.0
H262 H 0.10236 0.4542 0.19092 0.0
H263 H 0.10724 0.41896 0.93338 0.0
H264 H 0.13763 0.47508 0.91907 0.0
C265 C 0.61657 0.63333 0.37576 0.0
C266 C 0.63919 0.63175 0.39195 0.0
C267 C 0.65486 0.63002 0.3615 0.0
C268 C 0.64094 0.63064 0.32863 0.0
N269 N 0.61758 0.63273 0.33661 0.0
Co270 Co 0.59131 0.6342 0.2984 0.0
N271 N 0.61078 0.62088 0.25892 0.0
C272 C 0.63479 0.61929 0.25913 0.0
C273 C 0.64343 0.60933 0.22792 0.0
C274 C 0.62369 0.60456 0.20656 0.0
C275 C 0.6039 0.61196 0.22599 0.0
N276 N 0.56523 0.63597 0.26 0.0
C277 C 0.56241 0.62663 0.22582 0.0
C278 C 0.54179 0.63277 0.20719 0.0
C279 C 0.53167 0.64653 0.23052 0.0
C280 C 0.54659 0.64808 0.26209 0.0
N281 N 0.5723 0.64708 0.33927 0.0
C282 C 0.55285 0.65794 0.33352 0.0
C283 C 0.54277 0.66378 0.36806 0.0
C284 C 0.55685 0.65601 0.39698 0.0
C285 C 0.57472 0.64582 0.37847 0.0
N286 N 0.60305 0.65933 0.27899 0.0
C287 C 0.60902 0.69646 0.24592 0.0
C288 C 0.6072 0.69365 0.28655 0.0
C289 C 0.60471 0.67509 0.30238 0.0
C290 C 0.60952 0.67981 0.22314 0.0
C291 C 0.60607 0.66179 0.23979 0.0
N292 N 0.5782 0.60945 0.31579 0.0
C293 C 0.54255 0.59083 0.32672 0.0
C294 C 0.55549 0.57377 0.3253 0.0
C295 C 0.58052 0.57506 0.32179 0.0
C296 C 0.59155 0.59307 0.3171 0.0
C297 C 0.55409 0.60828 0.32193 0.0
H298 H 0.61066 0.59369 0.31288 0.0
H299 H 0.54302 0.62081 0.32128 0.0
H300 H 0.60299 0.67365 0.33349 0.0
H301 H 0.60471 0.64995 0.22008 0.0
C302 C 0.64814 0.62484 0.2916 0.0
C303 C 0.59454 0.63577 0.39798 0.0
C304 C 0.57969 0.61291 0.2093 0.0
C305 C 0.54198 0.65838 0.29657 0.0
H306 H 0.64381 0.63158 0.42247 0.0
H307 H 0.67388 0.62738 0.36328 0.0
H308 H 0.66182 0.60561 0.2218 0.0
H309 H 0.62405 0.59705 0.17914 0.0
H310 H 0.53489 0.62789 0.17955 0.0
H311 H 0.51506 0.65405 0.22554 0.0
H312 H 0.52638 0.67174 0.3719 0.0
H313 H 0.55418 0.65749 0.42797 0.0
H314 H 0.60685 0.7056 0.30635 0.0
H315 H 0.61201 0.68038 0.19206 0.0
H316 H 0.52334 0.59075 0.33053 0.0
H317 H 0.59138 0.56227 0.32092 0.0
C318 C 0.32923 0.07735 0.53404 0.0
C319 C 0.30937 0.06551 0.53574 0.0
C320 C 0.31657 0.04906 0.55396 0.0
C321 C 0.34035 0.0517 0.56219 0.0
N322 N 0.34847 0.0688 0.55036 0.0
Co323 Co 0.38168 0.07816 0.55522 0.0
N324 N 0.3942 0.05184 0.56002 0.0
C325 C 0.38142 0.03639 0.57044 0.0
C326 C 0.39489 0.02004 0.57179 0.0
C327 C 0.41756 0.02561 0.56193 0.0
C328 C 0.41666 0.04517 0.55509 0.0
N329 N 0.41485 0.08749 0.56025 0.0
C330 C 0.43579 0.07787 0.55631 0.0
C331 C 0.45496 0.08991 0.56341 0.0
C332 C 0.4455 0.10755 0.57236 0.0
C333 C 0.4211 0.10536 0.57027 0.0
N334 N 0.36842 0.10426 0.55004 0.0
C335 C 0.37933 0.12044 0.56124 0.0
C336 C 0.36607 0.13637 0.55194 0.0
C337 C 0.34572 0.12965 0.53385 0.0
C338 C 0.34769 0.10995 0.53295 0.0
N339 N 0.37879 0.07986 0.6126 0.0
C340 C 0.38323 0.09022 0.69189 0.0
C341 C 0.36357 0.09628 0.66944 0.0
C342 C 0.36149 0.0907 0.63014 0.0
C343 C 0.39958 0.07784 0.67415 0.0
C344 C 0.3971 0.07291 0.63499 0.0
N345 N 0.38614 0.07725 0.49859 0.0
C346 C 0.40328 0.09295 0.44306 0.0
C347 C 0.40217 0.0762 0.42121 0.0
C348 C 0.39111 0.06017 0.43809 0.0
C349 C 0.3831 0.06102 0.47697 0.0
C350 C 0.39553 0.09312 0.48126 0.0
H351 H 0.37539 0.04842 0.48999 0.0
H352 H 0.3984 0.10607 0.49719 0.0
H353 H 0.34655 0.096 0.61344 0.0
H354 H 0.41114 0.06446 0.62238 0.0
C355 C 0.35645 0.03726 0.57243 0.0
C356 C 0.32925 0.09678 0.51794 0.0
C357 C 0.43778 0.05719 0.54844 0.0
C358 C 0.40377 0.12003 0.57149 0.0
H359 H 0.29164 0.06827 0.52459 0.0
H360 H 0.30607 0.03627 0.5584 0.0
H361 H 0.38885 1.00569 0.57801 0.0
H362 H 0.43304 0.01637 0.56067 0.0
H363 H 0.47375 0.0863 0.56247 0.0
H364 H 0.4553 0.12052 0.57842 0.0
H365 H 0.37117 0.15115 0.55573 0.0
H366 H 0.33124 0.13821 0.52241 0.0
H367 H 0.35011 0.10554 0.6819 0.0
H368 H 0.41515 0.07279 0.68974 0.0
H369 H 0.4108 0.10593 0.43111 0.0
H370 H 0.38952 0.04694 0.42204 0.0
C371 C 0.89991 0.89152 0.87519 0.0
C372 C 0.87728 0.89318 0.89127 0.0
C373 C 0.86167 0.89501 0.86075 0.0
C374 C 0.87564 0.89436 0.82794 0.0
N375 N 0.89897 0.89215 0.83603 0.0
Co376 Co 0.9253 0.89061 0.79794 0.0
N377 N 0.90598 0.90407 0.7584 0.0
C378 C 0.88198 0.90576 0.75852 0.0
C379 C 0.87342 0.91573 0.72724 0.0
C380 C 0.89321 0.92038 0.70591 0.0
C381 C 0.91295 0.91294 0.72543 0.0
N382 N 0.95143 0.88876 0.75967 0.0
C383 C 0.95437 0.89809 0.7255 0.0
C384 C 0.97502 0.89192 0.70705 0.0
C385 C 0.98502 0.87812 0.73044 0.0
C386 C 0.97002 0.8766 0.76189 0.0
N387 N 0.94414 0.8776 0.83888 0.0
C388 C 0.96354 0.86667 0.83322 0.0
C389 C 0.9735 0.86075 0.8678 0.0
C390 C 0.95943 0.86855 0.89666 0.0
C391 C 0.94166 0.87883 0.87807 0.0
N392 N 0.91342 0.86554 0.77834 0.0
C393 C 0.90744 0.82853 0.74478 0.0
C394 C 0.90924 0.83118 0.78544 0.0
C395 C 0.91175 0.84969 0.80153 0.0
C396 C 0.90691 0.84525 0.72223 0.0
C397 C 0.91037 0.86321 0.73912 0.0
N398 N 0.93855 0.9153 0.81545 0.0
C399 C 0.97437 0.93374 0.82621 0.0
C400 C 0.96161 0.95087 0.8244 0.0
C401 C 0.93657 0.94973 0.82091 0.0
C402 C 0.92536 0.93177 0.8165 0.0
C403 C 0.96267 0.91634 0.82172 0.0
H404 H 0.90626 0.93125 0.81221 0.0
H405 H 0.97362 0.90375 0.82129 0.0
H406 H 0.91349 0.85102 0.83266 0.0
H407 H 0.91174 0.87509 0.71952 0.0
C408 C 0.86854 0.90024 0.79091 0.0
C409 C 0.92188 0.88895 0.89751 0.0
C410 C 0.93714 0.9118 0.70872 0.0
C411 C 0.97448 0.86624 0.79634 0.0
H412 H 0.87261 0.89334 0.92177 0.0
H413 H 0.84266 0.89774 0.86244 0.0
H414 H 0.85505 0.91949 0.72102 0.0
H415 H 0.89288 0.92783 0.6784 0.0
H416 H 0.98202 0.89678 0.67947 0.0
H417 H 1.00161 0.87056 0.72558 0.0
H418 H 0.98985 0.85272 0.8717 0.0
H419 H 0.96203 0.86703 0.92765 0.0
H420 H 0.90959 0.81912 0.80501 0.0
H421 H 0.90439 0.84477 0.69114 0.0
H422 H 0.99359 0.93373 0.82999 0.0
H423 H 0.92585 0.96258 0.81976 0.0
C424 C 0.68844 0.57656 0.82493 0.0
C425 C 0.70857 0.565 0.82335 0.0
C426 C 0.70173 0.54838 0.80544 0.0
C427 C 0.67787 0.55065 0.79723 0.0
N428 N 0.6694 0.5677 0.80874 0.0
Co429 Co 0.63597 0.57656 0.80406 0.0
N430 N 0.624 0.55006 0.80033 0.0
C431 C 0.6371 0.53468 0.79045 0.0
C432 C 0.62398 0.51816 0.78973 0.0
C433 C 0.60118 0.52352 0.7994 0.0
C434 C 0.60166 0.54314 0.8055 0.0
N435 N 0.60258 0.58544 0.79881 0.0
C436 C 0.58184 0.57559 0.80275 0.0
C437 C 0.56245 0.58733 0.79501 0.0
C438 C 0.57157 0.605 0.78557 0.0
C439 C 0.59599 0.60314 0.78802 0.0
N440 N 0.64861 0.60286 0.80874 0.0
C441 C 0.63733 0.61885 0.79743 0.0
C442 C 0.65015 0.63499 0.80682 0.0
C443 C 0.67061 0.62859 0.82513 0.0
C444 C 0.66913 0.60886 0.82605 0.0
N445 N 0.63865 0.57796 0.74674 0.0
C446 C 0.63318 0.58858 0.66796 0.0
C447 C 0.65285 0.59491 0.68996 0.0
C448 C 0.65547 0.58918 0.72903 0.0
C449 C 0.61749 0.57567 0.68566 0.0
C450 C 0.6205 0.57059 0.72463 0.0
N451 N 0.632 0.57601 0.86057 0.0
C452 C 0.61725 0.59249 0.91682 0.0
C453 C 0.62378 0.57733 0.94076 0.0
C454 C 0.63431 0.56114 0.92376 0.0
C455 C 0.63848 0.56083 0.88333 0.0
C456 C 0.6214 0.59154 0.8773 0.0
H457 H 0.64678 0.54844 0.87044 0.0
H458 H 0.61579 0.60356 0.86029 0.0
H459 H 0.67034 0.59475 0.74552 0.0
H460 H 0.6069 0.56176 0.73739 0.0
C461 C 0.66203 0.53589 0.7879 0.0
C462 C 0.68786 0.59595 0.84119 0.0
C463 C 0.58022 0.55495 0.81124 0.0
C464 C 0.61298 0.61807 0.78676 0.0
H465 H 0.72622 0.56803 0.83453 0.0
H466 H 0.71249 0.5357 0.80135 0.0
H467 H 0.6303 0.50384 0.7839 0.0
H468 H 0.58589 0.51411 0.80088 0.0
H469 H 0.54373 0.5835 0.79585 0.0
H470 H 0.56152 0.61781 0.77899 0.0
H471 H 0.64471 0.64969 0.80293 0.0
H472 H 0.68484 0.63736 0.83669 0.0
H473 H 0.66584 0.60455 0.67741 0.0
H474 H 0.60197 0.57035 0.67032 0.0
H475 H 0.60871 0.60511 0.92858 0.0
H476 H 0.63956 0.54908 0.94149 0.0
C477 C 0.39777 0.1334 0.98897 0.0
C478 C 0.37476 0.13212 0.97423 0.0
C479 C 0.35972 0.13128 1.0057 0.0
C480 C 0.37437 0.13208 0.03771 0.0
N481 N 0.39759 0.13341 0.02822 0.0
Co482 Co 0.42471 0.13467 0.06487 0.0
N483 N 0.40563 0.12246 0.10621 0.0
C484 C 0.38158 0.12228 0.10804 0.0
C485 C 0.37311 0.11403 0.14137 0.0
C486 C 0.39306 0.10884 0.16187 0.0
C487 C 0.41278 0.1141 0.13961 0.0
N488 N 0.45178 0.13593 0.10156 0.0
C489 C 0.45544 0.12606 0.13498 0.0
C490 C 0.47737 0.13094 0.15101 0.0
C491 C 0.48726 0.14461 0.12716 0.0
C492 C 0.47103 0.14727 0.09767 0.0
N493 N 0.44308 0.14688 0.02246 0.0
C494 C 0.46294 0.15742 0.02678 0.0
C495 C 0.47234 0.1629 0.99151 0.0
C496 C 0.4574 0.15525 0.96365 0.0
C497 C 0.43971 0.14546 0.98345 0.0
N498 N 0.41423 0.16016 0.08393 0.0
C499 C 0.40734 0.19747 0.11454 0.0
C500 C 0.40676 0.19397 0.07418 0.0
C501 C 0.40998 0.17525 0.05953 0.0
C502 C 0.41062 0.18165 0.13884 0.0
C503 C 0.41406 0.16342 0.12321 0.0
N504 N 0.43656 0.10949 0.04766 0.0
C505 C 0.47122 0.09023 0.03306 0.0
C506 C 0.45804 0.07337 0.03642 0.0
C507 C 0.43336 0.07509 0.04399 0.0
C508 C 0.42293 0.09329 0.04916 0.0
C509 C 0.46031 0.10788 0.03874 0.0
H510 H 0.40409 0.09423 0.05577 0.0
H511 H 0.4717 0.1202 0.03788 0.0
H512 H 0.40981 0.17309 0.02846 0.0
H513 H 0.41771 0.15208 0.14342 0.0
C514 C 0.36776 0.12753 0.0758 0.0
C515 C 0.41934 0.13547 0.96531 0.0
C516 C 0.43775 0.11305 0.15302 0.0
C517 C 0.47493 0.15748 0.06284 0.0
H518 H 0.36946 0.13174 0.94402 0.0
H519 H 0.34055 0.12925 1.00521 0.0
H520 H 0.35466 0.11173 0.14955 0.0
H521 H 0.39292 0.10245 0.19045 0.0
H522 H 0.48544 0.12525 0.17711 0.0
H523 H 0.50465 0.15118 0.13017 0.0
H524 H 0.48891 0.17046 0.98647 0.0
H525 H 0.45945 0.15647 0.93249 0.0
H526 H 0.40401 0.20561 0.05397 0.0
H527 H 0.41165 0.18336 0.17005 0.0
H528 H 0.49032 0.08991 0.02805 0.0
H529 H 0.42225 0.0625 0.04645 0.0
C530 C 0.82791 0.94823 0.32428 0.0
C531 C 0.80779 0.9598 0.32262 0.0
C532 C 0.81466 0.97641 0.30464 0.0
C533 C 0.83851 0.97412 0.29648 0.0
N534 N 0.84696 0.95708 0.30808 0.0
Co535 Co 0.88039 0.94819 0.30351 0.0
N536 N 0.89238 0.97468 0.29968 0.0
C537 C 0.8793 0.99006 0.28969 0.0
C538 C 0.89244 1.00657 0.28894 0.0
C539 C 0.91522 1.0012 0.2987 0.0
C540 C 0.91472 0.98159 0.30488 0.0
N541 N 0.91377 0.93929 0.29835 0.0
C542 C 0.93452 0.94913 0.30232 0.0
C543 C 0.9539 0.93736 0.29469 0.0
C544 C 0.94477 0.91969 0.28529 0.0
C545 C 0.92035 0.92157 0.28765 0.0
N546 N 0.86772 0.9219 0.30828 0.0
C547 C 0.87899 0.90589 0.29709 0.0
C548 C 0.86618 0.88977 0.30664 0.0
C549 C 0.84574 0.89621 0.32493 0.0
C550 C 0.84722 0.91594 0.32568 0.0
N551 N 0.87773 0.94674 0.24619 0.0
C552 C 0.88322 0.93609 0.16744 0.0
C553 C 0.86353 0.92978 0.18944 0.0
C554 C 0.8609 0.93552 0.22849 0.0
C555 C 0.89891 0.949 0.18514 0.0
C556 C 0.89589 0.9541 0.22408 0.0
N557 N 0.88435 0.94878 0.36003 0.0
C558 C 0.89932 0.9324 0.41626 0.0
C559 C 0.89299 0.94763 0.44017 0.0
C560 C 0.8824 0.96379 0.4231 0.0
C561 C 0.87802 0.96402 0.38272 0.0
C562 C 0.89494 0.93326 0.3768 0.0
H563 H 0.86972 0.97641 0.36979 0.0
H564 H 0.90046 0.9212 0.35985 0.0
H565 H 0.84603 0.92997 0.24498 0.0
H566 H 0.9095 0.96292 0.23684 0.0
C567 C 0.85437 0.98886 0.28711 0.0
C568 C 0.8285 0.92888 0.34068 0.0
C569 C 0.93614 0.96977 0.31075 0.0
C570 C 0.90335 0.90665 0.28644 0.0
H571 H 0.79014 0.95681 0.33381 0.0
H572 H 0.80391 0.98909 0.30049 0.0
H573 H 0.88613 0.02089 0.28303 0.0
H574 H 0.93053 1.01061 0.30019 0.0
H575 H 0.97263 0.94118 0.29558 0.0
H576 H 0.95481 0.90688 0.2788 0.0
H577 H 0.87162 0.87507 0.30287 0.0
H578 H 0.83152 0.88746 0.33659 0.0
H579 H 0.85054 0.92013 0.1769 0.0
H580 H 0.91444 0.9543 0.16981 0.0
H581 H 0.90798 0.9198 0.42795 0.0
H582 H 0.87731 0.97592 0.44074 0.0
C583 C 0.11727 0.39086 0.48641 0.0
C584 C 0.14013 0.39218 0.47114 0.0
C585 C 0.15539 0.39359 0.50224 0.0
C586 C 0.14099 0.39304 0.53456 0.0
N587 N 0.11772 0.3913 0.52561 0.0
Co588 Co 0.09082 0.39022 0.56268 0.0
N589 N 0.10994 0.40318 0.60308 0.0
C590 C 0.13399 0.40426 0.60397 0.0
C591 C 0.14242 0.41388 0.63576 0.0
C592 C 0.12248 0.41896 0.65633 0.0
C593 C 0.10278 0.41211 0.63585 0.0
N594 N 0.06402 0.38895 0.59983 0.0
C595 C 0.06077 0.39845 0.63374 0.0
C596 C 0.03962 0.39275 0.65129 0.0
C597 C 0.02962 0.37908 0.6276 0.0
C598 C 0.04511 0.37716 0.59689 0.0
N599 N 0.0723 0.3775 0.52108 0.0
C600 C 0.05259 0.36687 0.52602 0.0
C601 C 0.04296 0.36113 0.49107 0.0
C602 C 0.0576 0.36874 0.46274 0.0
C603 C 0.07533 0.37874 0.482 0.0
N604 N 0.10175 0.36499 0.58269 0.0
C605 C 0.10753 0.32791 0.61525 0.0
C606 C 0.10808 0.3309 0.57469 0.0
C607 C 0.10529 0.3495 0.55906 0.0
C608 C 0.1056 0.34421 0.63866 0.0
C609 C 0.10265 0.3623 0.62211 0.0
N610 N 0.07859 0.41513 0.54459 0.0
C611 C 0.04372 0.43431 0.53074 0.0
C612 C 0.05707 0.45117 0.53242 0.0
C613 C 0.08189 0.44944 0.53859 0.0
C614 C 0.09232 0.43129 0.54426 0.0
C615 C 0.05467 0.41668 0.53683 0.0
H616 H 0.11128 0.43038 0.54981 0.0
H617 H 0.04328 0.40434 0.5372 0.0
H618 H 0.10501 0.35121 0.52787 0.0
H619 H 0.09996 0.37399 0.64182 0.0
C620 C 0.14772 0.39859 0.57198 0.0
C621 C 0.09551 0.38868 0.46333 0.0
C622 C 0.07824 0.4117 0.65134 0.0
C623 C 0.04099 0.36676 0.56239 0.0
H624 H 0.14519 0.39237 0.4408 0.0
H625 H 0.17449 0.39597 0.50125 0.0
H626 H 0.16081 0.41717 0.6428 0.0
H627 H 0.12266 0.42632 0.68393 0.0
H628 H 0.03232 0.39779 0.67852 0.0
H629 H 0.01273 0.37184 0.6318 0.0
H630 H 0.02646 0.3534 0.48654 0.0
H631 H 0.05535 0.36733 0.43166 0.0
H632 H 0.10971 0.31894 0.555 0.0
H633 H 0.10588 0.34309 0.67002 0.0
H634 H 0.02454 0.43466 0.52674 0.0
H635 H 0.09314 0.462 0.53961 0.0
C636 C 0.68744 0.94827 0.53508 0.0
C637 C 0.70743 0.95995 0.53702 0.0
C638 C 0.70037 0.97642 0.5553 0.0
C639 C 0.67654 0.97395 0.56332 0.0
N640 N 0.66825 0.95694 0.55131 0.0
Co641 Co 0.6349 0.94785 0.55566 0.0
N642 N 0.6227 0.97427 0.56039 0.0
C643 C 0.63563 0.98962 0.57089 0.0
C644 C 0.62238 1.0061 0.57183 0.0
C645 C 0.59969 1.00071 0.56163 0.0
C646 C 0.60035 0.98113 0.55508 0.0
N647 N 0.60159 0.93879 0.56024 0.0
C648 C 0.5808 0.94858 0.55611 0.0
C649 C 0.56145 0.9367 0.56302 0.0
C650 C 0.57064 0.91898 0.57199 0.0
C651 C 0.59507 0.92096 0.57014 0.0
N652 N 0.64783 0.92165 0.55043 0.0
C653 C 0.63667 0.90554 0.56133 0.0
C654 C 0.6497 0.88952 0.55179 0.0
C655 C 0.67016 0.89613 0.53386 0.0
C656 C 0.66848 0.91585 0.53327 0.0
N657 N 0.63749 0.94603 0.61308 0.0
C658 C 0.63252 0.93587 0.69237 0.0
C659 C 0.65201 0.92936 0.67014 0.0
C660 C 0.6544 0.93487 0.63083 0.0
C661 C 0.61658 0.94851 0.67444 0.0
C662 C 0.61929 0.95331 0.63525 0.0
N663 N 0.63073 0.94889 0.49899 0.0
C664 C 0.61368 0.93344 0.44313 0.0
C665 C 0.61532 0.95018 0.4213 0.0
C666 C 0.62656 0.96606 0.43842 0.0
C667 C 0.63425 0.96509 0.47747 0.0
C668 C 0.62112 0.93316 0.48148 0.0
H669 H 0.64213 0.97758 0.49066 0.0
H670 H 0.61788 0.92024 0.49734 0.0
H671 H 0.66925 0.92929 0.61431 0.0
H672 H 0.60549 0.96196 0.62248 0.0
C673 C 0.66057 0.98854 0.57327 0.0
C674 C 0.68715 0.92892 0.51861 0.0
C675 C 0.5791 0.96928 0.54826 0.0
C676 C 0.61221 0.90613 0.57139 0.0
H677 H 0.72514 0.95712 0.52593 0.0
H678 H 0.711 0.98913 0.55984 0.0
H679 H 0.6286 0.02041 0.57795 0.0
H680 H 0.58437 1.0101 0.5599 0.0
H681 H 0.54271 0.94048 0.56194 0.0
H682 H 0.56065 0.90608 0.57792 0.0
H683 H 0.64438 0.87478 0.55529 0.0
H684 H 0.68453 0.88749 0.5223 0.0
H685 H 0.66513 0.91984 0.6828 0.0
H686 H 0.60116 0.95391 0.68994 0.0
H687 H 0.60601 0.92055 0.43101 0.0
H688 H 0.62858 0.97926 0.4224 0.0
C689 C 0.11707 0.13393 0.87489 0.0
C690 C 0.13993 0.13239 0.89012 0.0
C691 C 0.15515 0.13098 0.85899 0.0
C692 C 0.14074 0.13175 0.82669 0.0
N693 N 0.11749 0.1336 0.83568 0.0
Co694 Co 0.0906 0.13503 0.79863 0.0
N695 N 0.10959 0.12214 0.75799 0.0
C696 C 0.13362 0.12096 0.75703 0.0
C697 C 0.14197 0.11146 0.72501 0.0
C698 C 0.12198 0.10658 0.70438 0.0
C699 C 0.10234 0.11341 0.72506 0.0
N700 N 0.06379 0.13663 0.76151 0.0
C701 C 0.06042 0.12723 0.72751 0.0
C702 C 0.03929 0.13311 0.71008 0.0
C703 C 0.02944 0.14678 0.73393 0.0
C704 C 0.045 0.14853 0.76463 0.0
N705 N 0.0722 0.14772 0.84042 0.0
C706 C 0.0526 0.15852 0.83563 0.0
C707 C 0.04308 0.16425 0.87065 0.0
C708 C 0.05765 0.15646 0.89887 0.0
C709 C 0.07526 0.14637 0.87948 0.0
N710 N 0.10179 0.16025 0.77911 0.0
C711 C 0.10886 0.1974 0.74773 0.0
C712 C 0.109 0.19413 0.78819 0.0
C713 C 0.1057 0.1755 0.80322 0.0
C714 C 0.10611 0.18139 0.72375 0.0
C715 C 0.1026 0.16323 0.73975 0.0
N716 N 0.07813 0.11013 0.81631 0.0
C717 C 0.04315 0.09119 0.83046 0.0
C718 C 0.05634 0.07424 0.82872 0.0
C719 C 0.08114 0.07579 0.82219 0.0
C720 C 0.09171 0.09387 0.81642 0.0
C721 C 0.05422 0.10874 0.82421 0.0
H722 H 0.11066 0.09466 0.8107 0.0
H723 H 0.04295 0.12115 0.82396 0.0
H724 H 0.10548 0.17354 0.83435 0.0
H725 H 0.09935 0.15175 0.71974 0.0
C726 C 0.14742 0.12636 0.78914 0.0
C727 C 0.09536 0.13624 0.89803 0.0
C728 C 0.07775 0.11391 0.70975 0.0
C729 C 0.04099 0.15884 0.79927 0.0
H730 H 0.14501 0.13209 0.92045 0.0
H731 H 0.17424 0.12851 0.85992 0.0
H732 H 0.16033 0.10812 0.71788 0.0
H733 H 0.12207 0.09935 0.67664 0.0
H734 H 0.03191 0.12817 0.68282 0.0
H735 H 0.01261 0.15412 0.72987 0.0
H736 H 0.02667 0.1721 0.87528 0.0
H737 H 0.05546 0.15783 0.92997 0.0
H738 H 0.11141 0.20589 0.80819 0.0
H739 H 0.10549 0.1829 0.69247 0.0
H740 H 0.02398 0.09096 0.83472 0.0
H741 H 0.09225 0.06315 0.82105 0.0
C742 C 0.82805 0.57678 0.03652 0.0
C743 C 0.80796 0.5652 0.03818 0.0
C744 C 0.81486 0.5486 0.05617 0.0
C745 C 0.83871 0.55091 0.06435 0.0
N746 N 0.84712 0.56795 0.05275 0.0
Co747 Co 0.88053 0.57686 0.05735 0.0
N748 N 0.89258 0.55038 0.06118 0.0
C749 C 0.87954 0.53499 0.07116 0.0
C750 C 0.89271 0.51848 0.07193 0.0
C751 C 0.91548 0.52387 0.06221 0.0
C752 C 0.91494 0.54348 0.05602 0.0
N753 N 0.91389 0.58578 0.06251 0.0
C754 C 0.93466 0.57595 0.05859 0.0
C755 C 0.95402 0.58773 0.06625 0.0
C756 C 0.94485 0.6054 0.07561 0.0
C757 C 0.92043 0.6035 0.07321 0.0
N758 N 0.8678 0.60314 0.05256 0.0
C759 C 0.87903 0.61916 0.06377 0.0
C760 C 0.86615 0.63527 0.05431 0.0
C761 C 0.84572 0.62882 0.03604 0.0
C762 C 0.84726 0.6091 0.03523 0.0
N763 N 0.87787 0.57831 0.11466 0.0
C764 C 0.88333 0.58896 0.19343 0.0
C765 C 0.86363 0.59526 0.17141 0.0
C766 C 0.86102 0.58952 0.13235 0.0
C767 C 0.89905 0.57606 0.17574 0.0
C768 C 0.89605 0.57097 0.13679 0.0
N769 N 0.88447 0.57627 1.00083 0.0
C770 C 0.89914 0.59271 0.94449 0.0
C771 C 0.89267 0.57752 0.92062 0.0
C772 C 0.8822 0.56133 0.93772 0.0
C773 C 0.87804 0.56106 0.97816 0.0
C774 C 0.89501 0.5918 0.98401 0.0
H775 H 0.86979 0.54866 0.99111 0.0
H776 H 0.90058 0.60384 1.00096 0.0
H777 H 0.84613 0.59506 0.11586 0.0
H778 H 0.90968 0.56215 0.12404 0.0
C779 C 0.8546 0.53617 0.07373 0.0
C780 C 0.82857 0.59615 0.02016 0.0
C781 C 0.93635 0.55531 0.05021 0.0
C782 C 0.90339 0.61841 0.07441 0.0
H783 H 0.7903 0.56819 0.02698 0.0
H784 H 0.80414 0.53591 0.06032 0.0
H785 H 0.88643 0.50416 0.07784 0.0
H786 H 0.93081 0.51447 0.06076 0.0
H787 H 0.97275 0.58392 0.06541 0.0
H788 H 0.95485 0.61822 0.08212 0.0
H789 H 0.87156 0.64998 0.05812 0.0
H790 H 0.83146 0.63756 0.02444 0.0
H791 H 0.85062 0.60489 0.18395 0.0
H792 H 0.9146 0.57077 0.19108 0.0
H793 H 0.90763 0.60534 0.93265 0.0
H794 H 0.87699 0.54925 0.92005 0.0
C795 C 0.3992 0.39075 0.37553 0.0
C796 C 0.37636 0.39209 0.3909 0.0
C797 C 0.36106 0.39361 0.35986 0.0
C798 C 0.37542 0.3931 0.32749 0.0
N799 N 0.39869 0.39128 0.33634 0.0
Co800 Co 0.42554 0.39023 0.29916 0.0
N801 N 0.40639 0.40331 0.25894 0.0
C802 C 0.38235 0.40448 0.25815 0.0
C803 C 0.37392 0.41429 0.22657 0.0
C804 C 0.39386 0.4194 0.20604 0.0
C805 C 0.41354 0.41236 0.2263 0.0
N806 N 0.45228 0.38898 0.26189 0.0
C807 C 0.45549 0.39853 0.22803 0.0
C808 C 0.47655 0.39277 0.21026 0.0
C809 C 0.48656 0.37903 0.2338 0.0
C810 C 0.47114 0.37712 0.26463 0.0
N811 N 0.4441 0.3774 0.34058 0.0
C812 C 0.46379 0.36673 0.33548 0.0
C813 C 0.47346 0.36091 0.37035 0.0
C814 C 0.45888 0.36849 0.39879 0.0
C815 C 0.44114 0.37856 0.37968 0.0
N816 N 0.41453 0.36507 0.27903 0.0
C817 C 0.40866 0.32806 0.2463 0.0
C818 C 0.40818 0.33099 0.28688 0.0
C819 C 0.41101 0.34955 0.3026 0.0
C820 C 0.41057 0.34439 0.22297 0.0
C821 C 0.41355 0.36245 0.2396 0.0
N822 N 0.43784 0.41508 0.31737 0.0
C823 C 0.47276 0.43417 0.3311 0.0
C824 C 0.45943 0.45106 0.32953 0.0
C825 C 0.43459 0.44938 0.32353 0.0
C826 C 0.42412 0.43126 0.31787 0.0
C827 C 0.46178 0.41657 0.32501 0.0
H828 H 0.40515 0.43038 0.31243 0.0
H829 H 0.47315 0.40421 0.32452 0.0
H830 H 0.41134 0.35121 0.33379 0.0
H831 H 0.41622 0.37418 0.21995 0.0
C832 C 0.36864 0.39877 0.29014 0.0
C833 C 0.42099 0.38849 0.3985 0.0
C834 C 0.43806 0.41192 0.21072 0.0
C835 C 0.47531 0.36665 0.29905 0.0
H836 H 0.37135 0.39223 0.42125 0.0
H837 H 0.34197 0.39603 0.36094 0.0
H838 H 0.35554 0.41771 0.21969 0.0
H839 H 0.39371 0.42693 0.17861 0.0
H840 H 0.48378 0.39784 0.183 0.0
H841 H 0.5034 0.37174 0.22943 0.0
H842 H 0.48995 0.35312 0.37475 0.0
H843 H 0.46117 0.367 0.42986 0.0
H844 H 0.40657 0.31899 0.30652 0.0
H845 H 0.41022 0.34332 0.19161 0.0
H846 H 0.49195 0.43449 0.33499 0.0
H847 H 0.42336 0.46195 0.3226 0.0
H848 H 0.28362 0.10664 0.53971 0.0
H849 H 0.23229 0.10801 0.3209 0.0
H850 H 0.32804 0.10006 0.43863 0.0
H851 H 0.18816 0.09873 0.42143 0.0
H852 H 0.26723 0.11184 0.36365 0.0
H853 H 0.24856 0.11045 0.49722 0.0
C854 C 0.28605 0.10649 0.5085 0.0
C855 C 0.30881 0.10313 0.49267 0.0
C856 C 0.24986 0.1093 0.37649 0.0
C857 C 0.26864 0.10728 0.44364 0.0
C858 C 0.22987 0.10732 0.35208 0.0
C859 C 0.20724 0.10323 0.36765 0.0
C860 C 0.24728 0.10731 0.41697 0.0
C861 C 0.20522 0.10209 0.40825 0.0
C862 C 0.266 0.10849 0.48423 0.0
C863 C 0.31087 0.10278 0.45202 0.0
N864 N 0.22492 0.10402 0.43142 0.0
N865 N 0.29111 0.10472 0.42898 0.0
H866 H 0.91877 0.81831 0.66829 0.0
H867 H 0.91859 0.70666 0.69282 0.0
H868 H 0.89563 0.79268 0.77628 0.0
H869 H 0.89568 0.73238 0.58475 0.0
H870 H 0.91676 0.73775 0.72354 0.0
H871 H 0.9169 0.78723 0.63759 0.0
C872 C 0.91288 0.80646 0.68589 0.0
C873 C 0.90684 0.80887 0.72554 0.0
C874 C 0.91201 0.73652 0.69315 0.0
C875 C 0.90605 0.77227 0.68964 0.0
C876 C 0.91276 0.71854 0.67521 0.0
C877 C 0.90678 0.71615 0.63552 0.0
C878 C 0.90603 0.75274 0.67145 0.0
C879 C 0.90067 0.73297 0.61503 0.0
C880 C 0.91211 0.78848 0.66796 0.0
C881 C 0.90066 0.79208 0.74602 0.0
N882 N 0.90067 0.7504 0.63305 0.0
N883 N 0.90063 0.77464 0.72802 0.0
H884 H 0.28355 0.4175 0.82129 0.0
H885 H 0.233 0.41755 0.04056 0.0
H886 H 0.32818 0.4256 0.92169 0.0
H887 H 0.1884 0.42574 0.94014 0.0
H888 H 0.26784 0.41366 0.99763 0.0
H889 H 0.24872 0.41367 0.86424 0.0
C890 C 0.28609 0.41795 0.85247 0.0
C891 C 0.30884 0.42173 0.86795 0.0
C892 C 0.25039 0.41598 0.98487 0.0
C893 C 0.26891 0.41761 0.9175 0.0
C894 C 0.23047 0.418 1.00938 0.0
C895 C 0.20773 0.42182 0.99389 0.0
C896 C 0.24765 0.41763 0.94435 0.0
C897 C 0.20555 0.42262 0.95328 0.0
C898 C 0.26617 0.41596 0.87699 0.0
C899 C 0.31103 0.42252 0.90856 0.0
N900 N 0.22519 0.42064 0.92999 0.0
N901 N 0.29138 0.42057 0.93185 0.0
H902 H 0.62174 0.79296 0.0835 0.0
H903 H 0.62017 0.73216 0.27863 0.0
H904 H 0.59572 0.81691 0.19136 0.0
H905 H 0.59892 0.70709 0.16904 0.0
H906 H 0.61989 0.76347 0.24742 0.0
H907 H 0.62197 0.76148 0.11433 0.0
C908 C 0.61609 0.79192 0.11344 0.0
C909 C 0.60897 0.80832 0.13434 0.0
C910 C 0.61548 0.75098 0.23034 0.0
C911 C 0.61013 0.77177 0.17046 0.0
C912 C 0.61545 0.73289 0.24824 0.0
C913 C 0.60973 0.71623 0.22708 0.0
C914 C 0.61035 0.7527 0.19052 0.0
C915 C 0.60426 0.71889 0.18718 0.0
C916 C 0.61641 0.77377 0.13113 0.0
C917 C 0.60225 0.80534 0.1736 0.0
N918 N 0.60494 0.73655 0.1704 0.0
N919 N 0.60325 0.78766 0.19022 0.0
H920 H 0.73338 0.6067 0.82071 0.0
H921 H 0.78302 0.60687 0.04056 0.0
H922 H 0.68834 0.59861 0.92061 0.0
H923 H 0.82808 0.59871 0.94072 0.0
H924 H 0.74835 0.61064 0.9972 0.0
H925 H 0.76803 0.61056 0.86404 0.0
C926 C 0.73071 0.60625 0.85186 0.0
C927 C 0.7079 0.60246 0.86708 0.0
C928 C 0.76586 0.60834 0.98466 0.0
C929 C 0.74762 0.60663 0.91708 0.0
C930 C 0.78569 0.60639 1.00942 0.0
C931 C 0.80851 0.6026 0.99423 0.0
C932 C 0.76878 0.60667 0.94419 0.0
C933 C 0.81086 0.60179 0.95364 0.0
C934 C 0.75053 0.60826 0.8766 0.0
C935 C 0.70555 0.60169 0.90767 0.0
N936 N 0.79131 0.6037 0.93011 0.0
N937 N 0.7251 0.60366 0.93118 0.0
H938 H 0.38459 0.29524 0.27027 0.0
H939 H 0.42638 0.23142 0.08711 0.0
H940 H 0.43142 0.31553 0.17969 0.0
H941 H 0.38478 0.20904 0.18219 0.0
H942 H 0.42632 0.26277 0.11883 0.0
H943 H 0.38328 0.264 0.23794 0.0
C944 C 0.39467 0.29323 0.24376 0.0
C945 C 0.40792 0.30842 0.2278 0.0
C946 C 0.41713 0.25102 0.13275 0.0
C947 C 0.40625 0.27238 0.19003 0.0
C948 C 0.41697 0.23307 0.11438 0.0
C949 C 0.40567 0.2173 0.13181 0.0
C950 C 0.40578 0.25348 0.16896 0.0
C951 C 0.39409 0.22054 0.16766 0.0
C952 C 0.39378 0.27533 0.2251 0.0
C953 C 0.42042 0.30465 0.19297 0.0
N954 N 0.39448 0.23811 0.1849 0.0
N955 N 0.41922 0.2872 0.17544 0.0
H956 H 0.82917 0.92615 0.41996 0.0
H957 H 0.68664 0.92527 0.43946 0.0
H958 H 0.78249 0.91852 0.32191 0.0
H959 H 0.73345 0.91952 0.53789 0.0
H960 H 0.72117 0.92123 0.39596 0.0
H961 H 0.79474 0.92217 0.4637 0.0
C962 C 0.81174 0.92315 0.4077 0.0
C963 C 0.80874 0.92251 0.36725 0.0
C964 C 0.72391 0.92053 0.42706 0.0
C965 C 0.76892 0.91853 0.41712 0.0
C966 C 0.70413 0.9227 0.45188 0.0
C967 C 0.70714 0.92263 0.49235 0.0
C968 C 0.74706 0.91855 0.44272 0.0
C969 C 0.73032 0.91956 0.50687 0.0
C970 C 0.79201 0.92102 0.43265 0.0
C971 C 0.78563 0.91896 0.35292 0.0
N972 N 0.74934 0.91791 0.48221 0.0
N973 N 0.76664 0.91736 0.37768 0.0
H974 H 0.13166 0.29507 0.59138 0.0
H975 H 0.08935 0.23133 0.77436 0.0
H976 H 0.08454 0.31534 0.6816 0.0
H977 H 0.1316 0.2089 0.68008 0.0
H978 H 0.08937 0.26259 0.74237 0.0
H979 H 0.13291 0.26381 0.62373 0.0
C980 C 0.1215 0.29305 0.61781 0.0
C981 C 0.1082 0.30825 0.63368 0.0
C982 C 0.09871 0.25085 0.72867 0.0
C983 C 0.10978 0.27218 0.67146 0.0
C984 C 0.09888 0.23294 0.7472 0.0
C985 C 0.1104 0.21717 0.73011 0.0
C986 C 0.11024 0.25329 0.69262 0.0
C987 C 0.12213 0.22038 0.69436 0.0
C988 C 0.12235 0.27514 0.63648 0.0
C989 C 0.09559 0.30446 0.6684 0.0
N990 N 0.12171 0.23793 0.67696 0.0
N991 N 0.09675 0.287 0.68593 0.0
H992 H 0.05665 0.042 0.37581 0.0
H993 H 0.96666 0.97745 0.25105 0.0
H994 H 0.05036 0.04571 0.25147 0.0
H995 H 0.95737 0.9864 0.37378 0.0
H996 H 1.00063 0.99963 0.25175 0.0
H997 H 0.02245 0.01992 0.377 0.0
C998 C 0.0476 0.03853 0.34891 0.0
C999 C 0.05587 0.04599 0.3136 0.0
C1000 C 0.99139 0.99658 0.27867 0.0
C1001 C 0.01757 0.02012 0.31439 0.0
C1002 C 0.97228 0.98371 0.27833 0.0
C1003 C 0.95962 0.97981 0.31257 0.0
C1004 C 0.99796 1.00565 0.31353 0.0
C1005 C 0.96704 0.98876 0.34697 0.0
C1006 C 0.02829 0.02579 0.34951 0.0
C1007 C 0.04411 0.04059 0.27934 0.0
N1008 N 0.98573 1.00125 0.34663 0.0
N1009 N 0.02571 0.02787 0.28054 0.0
H1010 H 0.94997 0.54049 0.49698 0.0
H1011 H 0.06656 0.48429 0.57315 0.0
H1012 H 1.00248 0.56487 0.57405 0.0
H1013 H 0.01844 0.46148 0.48693 0.0
H1014 H 0.04318 0.51383 0.57385 0.0
H1015 H 0.97381 0.511 0.49447 0.0
C1016 C 0.96639 0.53964 0.51354 0.0
C1017 C 0.97426 0.55536 0.53541 0.0
C1018 C 0.03777 0.50238 0.55465 0.0
C1019 C 1.00181 0.5216 0.53254 0.0
C1020 C 0.05131 0.48552 0.55395 0.0
C1021 C 0.04454 0.47015 0.53011 0.0
C1022 C 0.01717 0.50405 0.53139 0.0
C1023 C 0.02423 0.47269 0.50637 0.0
C1024 C 0.98011 0.52283 0.51189 0.0
C1025 C 0.99583 0.55334 0.55615 0.0
N1026 N 0.01128 0.48917 0.50777 0.0
N1027 N 0.00875 0.5369 0.55417 0.0
H1028 H 0.45958 0.48284 0.8763 0.0
H1029 H 0.54978 0.54719 0.75144 0.0
H1030 H 0.46588 0.47905 0.75198 0.0
H1031 H 0.55891 0.53837 0.87426 0.0
H1032 H 0.51578 0.52503 0.75214 0.0
H1033 H 0.49383 0.50488 0.87746 0.0
C1034 C 0.46864 0.48629 0.8494 0.0
C1035 C 0.46036 0.47882 0.81411 0.0
C1036 C 0.52499 0.5281 0.77907 0.0
C1037 C 0.49872 0.50464 0.81485 0.0
C1038 C 0.54413 0.54096 0.77874 0.0
C1039 C 0.55674 0.54489 0.813 0.0
C1040 C 0.51836 0.51908 0.81397 0.0
C1041 C 0.54927 0.53598 0.84743 0.0
C1042 C 0.48798 0.49901 0.84997 0.0
C1043 C 0.47214 0.48419 0.77984 0.0
N1044 N 0.53056 0.52351 0.84708 0.0
N1045 N 0.49057 0.49688 0.78102 0.0
H1046 H 0.56704 0.98566 1.00194 0.0
H1047 H 0.45004 0.04071 0.07959 0.0
H1048 H 0.51507 0.96039 0.07874 0.0
H1049 H 0.49559 0.0628 0.98901 0.0
H1050 H 0.47413 1.01151 0.08078 0.0
H1051 H 0.54253 0.01483 0.99957 0.0
C1052 C 0.55062 0.98629 0.01854 0.0
C1053 C 0.54307 0.97043 0.04026 0.0
C1054 C 0.47881 0.02273 0.06053 0.0
C1055 C 0.51477 1.00376 0.03757 0.0
C1056 C 0.46486 0.03938 0.05956 0.0
C1057 C 0.47073 0.05446 0.03435 0.0
C1058 C 0.49895 0.02103 0.03624 0.0
C1059 C 0.49052 0.05182 1.00954 0.0
C1060 C 0.53651 1.00289 0.01695 0.0
C1061 C 0.52149 0.9721 0.06106 0.0
N1062 N 0.50391 0.03559 1.01128 0.0
N1063 N 0.50819 0.98835 0.05918 0.0
H1064 H 0.05706 0.48311 0.98557 0.0
H1065 H 0.96683 0.54766 0.11003 0.0
H1066 H 0.05079 0.47951 0.10992 0.0
H1067 H 0.95768 0.53867 0.98728 0.0
H1068 H 1.00087 0.52552 0.10947 0.0
H1069 H 0.02281 0.50518 0.98428 0.0
C1070 C 0.04801 0.48661 1.01245 0.0
C1071 C 0.0563 0.47919 0.0478 0.0
C1072 C 0.99165 0.52855 0.08251 0.0
C1073 C 0.01793 0.50503 0.04689 0.0
C1074 C 0.97249 0.5414 0.08277 0.0
C1075 C 0.95986 0.54528 0.04849 0.0
C1076 C 0.99828 0.51948 0.04768 0.0
C1077 C 0.96733 0.53632 1.01412 0.0
C1078 C 0.02867 0.49934 1.0118 0.0
C1079 C 0.04453 0.48461 0.08203 0.0
N1080 N 0.98606 0.52386 1.01454 0.0
N1081 N 0.0261 0.49731 0.08077 0.0
H1082 H 0.44992 0.48416 0.28873 0.0
H1083 H 0.56658 0.54029 0.36442 0.0
H1084 H 0.49814 0.46131 0.37484 0.0
H1085 H 0.51412 0.56458 0.28708 0.0
H1086 H 0.54275 0.51081 0.36712 0.0
H1087 H 0.47333 0.51365 0.28782 0.0
C1088 C 0.4652 0.48537 0.30786 0.0
C1089 C 0.47198 0.47001 0.33174 0.0
C1090 C 0.53646 0.52262 0.34959 0.0
C1091 C 0.4994 0.50385 0.33021 0.0
C1092 C 0.55018 0.53941 0.34783 0.0
C1093 C 0.54231 0.55511 0.32583 0.0
C1094 C 0.51477 0.52138 0.32893 0.0
C1095 C 0.52076 0.55307 0.30507 0.0
C1096 C 0.47876 0.50221 0.30705 0.0
C1097 C 0.49233 0.47252 0.35538 0.0
N1098 N 0.50784 0.53665 0.30716 0.0
N1099 N 0.5053 0.48898 0.35387 0.0
H1100 H 0.46865 0.0497 0.60777 0.0
H1101 H 0.55719 0.98367 0.48367 0.0
H1102 H 0.45878 0.04063 0.48519 0.0
H1103 H 0.54947 0.97927 0.6077 0.0
H1104 H 0.52363 1.00641 0.48213 0.0
H1105 H 0.5021 0.02699 0.60703 0.0
C1106 C 0.47408 0.04335 0.58048 0.0
C1107 C 0.46138 0.04733 0.54632 0.0
C1108 C 0.529 1.00023 0.50961 0.0
C1109 C 0.49907 0.02086 0.54535 0.0
C1110 C 0.54792 0.98711 0.5104 0.0
C1111 C 0.55563 0.97928 0.54573 0.0
C1112 C 0.51814 1.00594 0.54459 0.0
C1113 C 0.54363 0.98466 0.57979 0.0
C1114 C 0.49287 0.03015 0.58014 0.0
C1115 C 0.46853 0.03822 0.51192 0.0
N1116 N 0.52567 0.99778 0.57844 0.0
N1117 N 0.48689 0.02542 0.51227 0.0
H1118 H 0.0183 0.0643 0.87562 0.0
H1119 H 1.00262 0.95957 0.78488 0.0
H1120 H 0.06489 0.04098 0.7878 0.0
H1121 H 0.95141 0.98461 0.86337 0.0
H1122 H 0.02622 0.98879 0.78767 0.0
H1123 H 0.99483 0.0349 0.87417 0.0
C1124 C 0.02369 0.05302 0.85602 0.0
C1125 C 0.04366 0.05536 0.83152 0.0
C1126 C 0.00985 0.98797 0.80432 0.0
C1127 C 0.01664 0.02131 0.82998 0.0
C1128 C 0.99632 0.97121 0.80287 0.0
C1129 C 0.97501 0.96943 0.82428 0.0
C1130 C 1.00222 1.0033 0.82745 0.0
C1131 C 0.96764 0.98527 0.84632 0.0
C1132 C 0.01022 0.03617 0.85529 0.0
C1133 C 0.04987 0.03991 0.80747 0.0
N1134 N 0.98127 1.00145 0.84752 0.0
N1135 N 0.0364 0.02367 0.8072 0.0
H1136 H 0.07807 0.13624 0.64576 0.0
H1137 H 0.09775 0.05347 0.48991 0.0
H1138 H 0.07377 0.07743 0.68145 0.0
H1139 H 0.13212 0.10853 0.48747 0.0
H1140 H 0.08203 0.06104 0.55526 0.0
H1141 H 0.08783 0.12585 0.57992 0.0
C1142 C 0.07818 0.12111 0.63922 0.0
C1143 C 0.07488 0.10765 0.66877 0.0
C1144 C 0.09318 0.07133 0.54033 0.0
C1145 C 0.08706 0.09561 0.59403 0.0
C1146 C 0.10237 0.06693 0.5034 0.0
C1147 C 0.11607 0.08047 0.48315 0.0
C1148 C 0.09749 0.08944 0.55646 0.0
C1149 C 0.12133 0.09779 0.50176 0.0
C1150 C 0.08423 0.11517 0.6019 0.0
C1151 C 0.07591 0.08817 0.65912 0.0
N1152 N 0.1118 0.10186 0.53696 0.0
N1153 N 0.0822 0.08267 0.62253 0.0
H1154 H 0.9429 0.57663 0.67979 0.0
H1155 H 0.87787 0.60626 0.87415 0.0
H1156 H 0.93262 0.63484 0.71626 0.0
H1157 H 0.91859 0.55404 0.87184 0.0
H1158 H 0.89299 0.61424 0.80981 0.0
H1159 H 0.93224 0.56582 0.74577 0.0
C1160 C 0.93938 0.58711 0.70219 0.0
C1161 C 0.93894 0.60664 0.69299 0.0
C1162 C 0.89855 0.60096 0.82316 0.0
C1163 C 0.92559 0.59446 0.76715 0.0
C1164 C 0.88968 0.59629 0.85964 0.0
C1165 C 0.89712 0.57953 0.87837 0.0
C1166 C 0.91487 0.58874 0.80481 0.0
C1167 C 0.91236 0.56705 0.85821 0.0
C1168 C 0.93299 0.58096 0.73952 0.0
C1169 C 0.93354 0.6197 0.72248 0.0
N1170 N 0.92089 0.57194 0.8224 0.0
N1171 N 0.92666 0.61336 0.758 0.0
H1172 H 0.44313 0.44843 0.18316 0.0
H1173 H 0.38066 0.41723 0.98801 0.0
H1174 H 0.43603 0.38999 0.14627 0.0
H1175 H 0.41922 0.47047 0.99054 0.0
H1176 H 0.39614 0.40956 0.05225 0.0
H1177 H 0.43277 0.45897 0.11687 0.0
C1178 C 0.44041 0.43787 0.16063 0.0
C1179 C 0.44073 0.41833 0.16981 0.0
C1180 C 0.40118 0.42298 0.03895 0.0
C1181 C 0.42771 0.43018 0.09523 0.0
C1182 C 0.39212 0.42747 1.00249 0.0
C1183 C 0.39885 0.44443 0.98382 0.0
C1184 C 0.41694 0.43561 0.05741 0.0
C1185 C 0.41356 0.45727 1.00406 0.0
C1186 C 0.43418 0.44386 0.1231 0.0
C1187 C 0.43634 0.40515 0.14011 0.0
N1188 N 0.42227 0.45257 0.0399 0.0
N1189 N 0.42957 0.41132 0.10439 0.0
H1190 H 0.63333 0.96591 0.35342 0.0
H1191 H 0.56734 0.89473 0.22202 0.0
H1192 H 0.57284 0.93474 0.39827 0.0
H1193 H 0.58419 0.94986 0.17371 0.0
H1194 H 0.57125 0.90813 0.28724 0.0
H1195 H 0.61839 0.96016 0.28705 0.0
C1196 C 0.61674 0.95822 0.34945 0.0
C1197 C 0.6047 0.95037 0.38149 0.0
C1198 C 0.57347 0.91743 0.26236 0.0
C1199 C 0.58789 0.94347 0.30604 0.0
C1200 C 0.57087 0.90985 0.22511 0.0
C1201 C 0.57487 0.92131 0.19237 0.0
C1202 C 0.58109 0.9364 0.26698 0.0
C1203 C 0.58061 0.94065 0.1983 0.0
C1204 C 0.60826 0.95491 0.31163 0.0
C1205 C 0.58321 0.94051 0.37447 0.0
N1206 N 0.58417 0.9475 0.2349 0.0
N1207 N 0.57583 0.93696 0.33762 0.0
H1208 H 0.07876 0.3893 0.71523 0.0
H1209 H 0.09839 0.47186 0.87153 0.0
H1210 H 0.0744 0.44817 0.67988 0.0
H1211 H 0.13271 0.41675 0.87385 0.0
H1212 H 0.08275 0.46439 0.80609 0.0
H1213 H 0.08859 0.3996 0.7811 0.0
C1214 C 0.07889 0.40442 0.72184 0.0
C1215 C 0.07553 0.41793 0.69238 0.0
C1216 C 0.09387 0.45407 0.82101 0.0
C1217 C 0.08779 0.42985 0.76717 0.0
C1218 C 0.10302 0.45841 0.858 0.0
C1219 C 0.11668 0.44483 0.87824 0.0
C1220 C 0.09819 0.43597 0.80481 0.0
C1221 C 0.12196 0.42752 0.85956 0.0
C1222 C 0.08498 0.41031 0.75918 0.0
C1223 C 0.07658 0.43739 0.70213 0.0
N1224 N 0.11246 0.42351 0.8243 0.0
N1225 N 0.0829 0.44283 0.73875 0.0
H1226 H 0.57371 0.57652 0.18168 0.0
H1227 H 0.63841 0.60616 0.98707 0.0
H1228 H 0.58358 0.63472 0.14489 0.0
H1229 H 0.59799 0.55382 0.98969 0.0
H1230 H 0.62326 0.61416 0.05137 0.0
H1231 H 0.58436 0.56568 0.11573 0.0
C1232 C 0.57713 0.587 0.15922 0.0
C1233 C 0.57746 0.60653 0.16832 0.0
C1234 C 0.61777 0.60085 0.0381 0.0
C1235 C 0.5908 0.59432 0.09418 0.0
C1236 C 0.62666 0.59617 1.00164 0.0
C1237 C 0.61931 0.57937 0.98301 0.0
C1238 C 0.60153 0.5886 0.05653 0.0
C1239 C 0.60415 0.56686 1.00324 0.0
C1240 C 0.58352 0.58082 0.1219 0.0
C1241 C 0.58274 0.61958 0.13875 0.0
N1242 N 0.5956 0.57177 0.03904 0.0
N1243 N 0.58962 0.61323 0.10324 0.0
H1244 H 0.44465 0.09208 0.39948 0.0
H1245 H 0.43167 0.07547 0.17162 0.0
H1246 H 0.38526 0.06022 0.35272 0.0
H1247 H 0.45069 0.12969 0.22194 0.0
H1248 H 0.42656 0.06231 0.2375 0.0
H1249 H 0.45888 0.098 0.33361 0.0
C1250 C 0.43468 0.08613 0.37537 0.0
C1251 C 0.41323 0.07613 0.38171 0.0
C1252 C 0.43256 0.0769 0.23392 0.0
C1253 C 0.43007 0.08242 0.30612 0.0
C1254 C 0.43579 0.08434 0.19652 0.0
C1255 C 0.442 0.10362 0.19132 0.0
C1256 C 0.43623 0.08871 0.26624 0.0
C1257 C 0.44653 0.11466 0.22449 0.0
C1258 C 0.44295 0.08948 0.33783 0.0
C1259 C 0.4017 0.06817 0.34926 0.0
N1260 N 0.44351 0.10705 0.26051 0.0
N1261 N 0.41013 0.07167 0.31271 0.0
H1262 H 0.93434 0.88937 0.64511 0.0
H1263 H 0.91758 0.97222 0.48858 0.0
H1264 H 0.94219 0.94809 0.67973 0.0
H1265 H 0.88066 0.91823 0.48704 0.0
H1266 H 0.93303 0.96442 0.55399 0.0
H1267 H 0.92408 0.89988 0.57954 0.0
C1268 C 0.93485 0.90447 0.63836 0.0
C1269 C 0.93935 0.9179 0.66753 0.0
C1270 C 0.92134 0.95444 0.5393 0.0
C1271 C 0.92663 0.9301 0.59313 0.0
C1272 C 0.9123 0.95898 0.50234 0.0
C1273 C 0.89796 0.94578 0.48236 0.0
C1274 C 0.91623 0.93651 0.5557 0.0
C1275 C 0.89189 0.92871 0.50124 0.0
C1276 C 0.92852 0.9105 0.60121 0.0
C1277 C 0.93913 0.93736 0.65767 0.0
N1278 N 0.9013 0.92447 0.53647 0.0
N1279 N 0.93257 0.94296 0.62124 0.0
H1280 H 0.08934 0.10043 0.9264 0.0
H1281 H 0.13865 0.12554 0.1399 0.0
H1282 H 0.10478 0.15779 0.96313 0.0
H1283 H 0.11618 0.06924 0.10486 0.0
H1284 H 0.1271 0.13767 0.07568 0.0
H1285 H 0.09839 0.08896 0.99212 0.0
C1286 C 0.09402 0.11066 0.94873 0.0
C1287 C 0.09574 0.13012 0.93963 0.0
C1288 C 0.12472 0.12266 0.08203 0.0
C1289 C 0.10717 0.11706 1.01481 0.0
C1290 C 0.13157 0.11565 0.11865 0.0
C1291 C 0.12845 0.09627 0.12816 0.0
C1292 C 0.11474 0.11022 0.05432 0.0
C1293 C 0.11874 0.08431 0.09931 0.0
C1294 C 0.09946 0.10411 0.98616 0.0
C1295 C 0.10267 0.14273 0.96927 0.0
N1296 N 0.1123 0.09144 0.06397 0.0
N1297 N 0.10827 0.13599 1.00541 0.0
H1298 H 0.92855 0.60049 0.43479 0.0
H1299 H 0.87845 0.62568 0.22179 0.0
H1300 H 0.91274 0.65786 0.39836 0.0
H1301 H 0.90077 0.56932 0.25688 0.0
H1302 H 0.89043 0.63784 0.28578 0.0
H1303 H 0.91953 0.58909 0.36905 0.0
C1304 C 0.92386 0.61075 0.4125 0.0
C1305 C 0.92199 0.63019 0.42172 0.0
C1306 C 0.89269 0.62281 0.27948 0.0
C1307 C 0.91053 0.61719 0.34652 0.0
C1308 C 0.88559 0.61579 0.243 0.0
C1309 C 0.88854 0.59638 0.23358 0.0
C1310 C 0.90275 0.61036 0.30712 0.0
C1311 C 0.89834 0.58441 0.26236 0.0
C1312 C 0.9184 0.60423 0.37505 0.0
C1313 C 0.91499 0.64282 0.39212 0.0
N1314 N 0.90502 0.59156 0.29756 0.0
N1315 N 0.90936 0.63611 0.35599 0.0
H1316 H 0.37766 0.39918 0.64028 0.0
H1317 H 0.42734 0.42424 0.42697 0.0
H1318 H 0.40039 0.45543 0.60534 0.0
H1319 H 0.41143 0.36693 0.46354 0.0
H1320 H 0.41833 0.4357 0.4927 0.0
H1321 H 0.38923 0.38704 0.57609 0.0
C1322 C 0.38481 0.40905 0.61907 0.0
C1323 C 0.388 0.42842 0.62859 0.0
C1324 C 0.41715 0.42056 0.48671 0.0
C1325 C 0.40173 0.41446 0.5548 0.0
C1326 C 0.42257 0.41401 0.44927 0.0
C1327 C 0.42071 0.39457 0.44012 0.0
C1328 C 0.40931 0.40762 0.5153 0.0
C1329 C 0.41365 0.38197 0.46972 0.0
C1330 C 0.39167 0.40205 0.58246 0.0
C1331 C 0.39778 0.44037 0.59979 0.0
N1332 N 0.40807 0.38871 0.50586 0.0
N1333 N 0.40423 0.43324 0.56446 0.0
H1334 H 0.61736 0.9569 0.75527 0.0
H1335 H 0.60159 0.86749 0.90026 0.0
H1336 H 0.63631 0.89941 0.72296 0.0
H1337 H 0.59444 0.92611 0.93557 0.0
H1338 H 0.6107 0.87827 0.83367 0.0
H1339 H 0.60622 0.94547 0.81984 0.0
C1340 C 0.61925 0.94185 0.7617 0.0
C1341 C 0.62785 0.92916 0.73326 0.0
C1342 C 0.6068 0.88878 0.85582 0.0
C1343 C 0.61481 0.9158 0.80791 0.0
C1344 C 0.60127 0.8826 0.89368 0.0
C1345 C 0.59667 0.89592 0.92324 0.0
C1346 C 0.60782 0.90845 0.8474 0.0
C1347 C 0.59737 0.91537 0.91346 0.0
C1348 C 0.61287 0.93531 0.79876 0.0
C1349 C 0.63005 0.90981 0.74386 0.0
N1350 N 0.60281 0.92102 0.87658 0.0
N1351 N 0.62346 0.90373 0.78009 0.0
H1352 H 0.0897 0.42455 0.4351 0.0
H1353 H 0.13881 0.3994 0.2215 0.0
H1354 H 0.10471 0.36714 0.39812 0.0
H1355 H 0.11653 0.45575 0.25663 0.0
H1356 H 0.12721 0.38727 0.28569 0.0
H1357 H 0.09878 0.43603 0.36941 0.0
C1358 C 0.09429 0.41431 0.41272 0.0
C1359 C 0.09587 0.39484 0.42174 0.0
C1360 C 0.12488 0.40229 0.27936 0.0
C1361 C 0.10734 0.40791 0.34659 0.0
C1362 C 0.13176 0.4093 0.24276 0.0
C1363 C 0.1287 0.4287 0.23329 0.0
C1364 C 0.11494 0.41474 0.30709 0.0
C1365 C 0.11903 0.44067 0.26215 0.0
C1366 C 0.09975 0.42087 0.3753 0.0
C1367 C 0.1027 0.38222 0.39204 0.0
N1368 N 0.11257 0.43354 0.29748 0.0
N1369 N 0.10832 0.38897 0.35592 0.0
H1370 H 0.63792 0.62531 0.63957 0.0
H1371 H 0.58797 0.60008 0.42656 0.0
H1372 H 0.61582 0.56892 0.60452 0.0
H1373 H 0.60348 0.65747 0.46303 0.0
H1374 H 0.59703 0.58868 0.49231 0.0
H1375 H 0.62589 0.63746 0.57558 0.0
C1376 C 0.63082 0.61541 0.61837 0.0
C1377 C 0.62794 0.59599 0.6278 0.0
C1378 C 0.59809 0.60382 0.48631 0.0
C1379 C 0.61368 0.60996 0.55426 0.0
C1380 C 0.59261 0.61034 0.44887 0.0
C1381 C 0.59437 0.62978 0.43966 0.0
C1382 C 0.60588 0.61679 0.51485 0.0
C1383 C 0.6013 0.64242 0.46926 0.0
C1384 C 0.62369 0.62242 0.58189 0.0
C1385 C 0.61819 0.58401 0.59903 0.0
N1386 N 0.60696 0.63571 0.5054 0.0
N1387 N 0.61149 0.59115 0.56383 0.0
H1388 H 0.37664 0.12647 0.72213 0.0
H1389 H 0.4252 0.09981 0.93565 0.0
H1390 H 0.40057 0.07022 0.75501 0.0
H1391 H 0.40928 0.15739 0.90081 0.0
H1392 H 0.41644 0.08887 0.86943 0.0
H1393 H 0.38733 0.13805 0.78721 0.0
C1394 C 0.38387 0.11647 0.74306 0.0
C1395 C 0.38767 0.09727 0.73265 0.0
C1396 C 0.41515 0.10396 0.87593 0.0
C1397 C 0.40034 0.1106 0.80757 0.0
C1398 C 0.42041 0.11021 0.91368 0.0
C1399 C 0.41852 0.12958 0.92348 0.0
C1400 C 0.40747 0.11711 0.84761 0.0
C1401 C 0.41149 0.14239 0.8942 0.0
C1402 C 0.39022 0.12317 0.78019 0.0
C1403 C 0.3975 0.08516 0.76119 0.0
N1404 N 0.4061 0.13594 0.85774 0.0
N1405 N 0.40342 0.09199 0.79704 0.0
H1406 H 0.87842 0.89936 0.13908 0.0
H1407 H 0.92861 0.92459 0.92621 0.0
H1408 H 0.90063 0.95573 0.10402 0.0
H1409 H 0.91274 0.86723 0.96249 0.0
H1410 H 0.91954 0.93597 0.99194 0.0
H1411 H 0.89044 0.88721 0.07511 0.0
C1412 C 0.88554 0.90926 0.11788 0.0
C1413 C 0.88845 0.92867 0.1273 0.0
C1414 C 0.91841 0.92083 0.98591 0.0
C1415 C 0.90271 0.91469 0.05379 0.0
C1416 C 0.92389 0.91433 0.94847 0.0
C1417 C 0.92203 0.8949 0.93921 0.0
C1418 C 0.91051 0.90787 1.0144 0.0
C1419 C 0.915 0.88226 0.96876 0.0
C1420 C 0.89267 0.90224 0.08141 0.0
C1421 C 0.89823 0.94065 0.09854 0.0
N1422 N 0.90934 0.88896 1.00489 0.0
N1423 N 0.90493 0.9335 0.06335 0.0
loop_
_geom_bond_atom_site_label_1
_geom_bond_atom_site_label_2
_geom_bond_distance
_geom_bond_site_symmetry_2
_ccdc_geom_bond_type
C0 C1 1.443 . S
C0 N4 1.376 . S
C0 C38 1.389 . S
C1 C0 1.443 . S
C1 C2 1.340 . S
C1 H41 0.951 . S
C2 C1 1.340 . S
C2 C3 1.439 . S
C2 H42 0.950 . S
C3 C2 1.439 . S
C3 N4 1.374 . S
C3 C37 1.395 . S
N4 C0 1.376 . S
N4 C3 1.374 . S
N4 Co5 2.008 . S
Co5 N4 2.008 . S
Co5 N6 1.995 . S
Co5 N11 2.008 . S
Co5 N16 1.995 . S
Co5 N21 2.282 . S
Co5 N27 2.282 . S
N6 Co5 1.995 . S
N6 C7 1.376 . S
N6 C10 1.383 . S
C7 N6 1.376 . S
C7 C8 1.446 . S
C7 C37 1.391 . S
C8 C7 1.446 . S
C8 C9 1.339 . S
C8 H43 0.949 . S
C9 C8 1.339 . S
C9 C10 1.439 . S
C9 H44 0.950 . S
C10 N6 1.383 . S
C10 C9 1.439 . S
C10 C39 1.392 . S
N11 Co5 2.008 . S
N11 C12 1.376 . S
N11 C15 1.374 . S
C12 N11 1.376 . S
C12 C13 1.443 . S
C12 C39 1.389 . S
C13 C12 1.443 . S
C13 C14 1.340 . S
C13 H45 0.951 . S
C14 C13 1.340 . S
C14 C15 1.439 . S
C14 H46 0.950 . S
C15 N11 1.374 . S
C15 C14 1.439 . S
C15 C40 1.395 . S
N16 Co5 1.995 . S
N16 C17 1.376 . S
N16 C20 1.383 . S
C17 N16 1.376 . S
C17 C18 1.446 . S
C17 C40 1.391 . S
C18 C17 1.446 . S
C18 C19 1.339 . S
C18 H47 0.949 . S
C19 C18 1.339 . S
C19 C20 1.439 . S
C19 H48 0.950 . S
C20 N16 1.383 . S
C20 C19 1.439 . S
C20 C38 1.392 . S
N21 Co5 2.282 . S
N21 C24 1.332 . S
N21 C26 1.332 . S
C22 C23 1.386 . S
C22 C25 1.388 . S
C23 C22 1.386 . S
C23 C24 1.382 . S
C23 H49 0.950 . S
C24 N21 1.332 . S
C24 C23 1.382 . S
C24 H35 0.952 . S
C25 C22 1.388 . S
C25 C26 1.382 . S
C25 H50 0.950 . S
C26 N21 1.332 . S
C26 C25 1.382 . S
C26 H36 0.948 . S
N27 Co5 2.282 . S
N27 C31 1.332 . S
N27 C32 1.332 . S
C28 C29 1.388 . S
C28 C32 1.382 . S
C28 H51 0.950 . S
C29 C28 1.388 . S
C29 C30 1.386 . S
C30 C29 1.386 . S
C30 C31 1.382 . S
C30 H52 0.950 . S
C31 N27 1.332 . S
C31 C30 1.382 . S
C31 H33 0.952 . S
C32 N27 1.332 . S
C32 C28 1.382 . S
C32 H34 0.948 . S
H33 C31 0.952 . S
H34 C32 0.948 . S
H35 C24 0.952 . S
H36 C26 0.948 . S
C37 C3 1.395 . S
C37 C7 1.391 . S
C38 C0 1.389 . S
C38 C20 1.392 . S
C39 C10 1.392 . S
C39 C12 1.389 . S
C40 C15 1.395 . S
C40 C17 1.391 . S
H41 C1 0.951 . S
H42 C2 0.950 . S
H43 C8 0.949 . S
H44 C9 0.950 . S
H45 C13 0.951 . S
H46 C14 0.950 . S
H47 C18 0.949 . S
H48 C19 0.950 . S
H49 C23 0.950 . S
H50 C25 0.950 . S
H51 C28 0.950 . S
H52 C30 0.950 . S
C53 C54 1.443 . S
C53 N57 1.376 . S
C53 C91 1.389 . S
C54 C53 1.443 . S
C54 C55 1.340 . S
C54 H94 0.951 . S
C55 C54 1.340 . S
C55 C56 1.439 . S
C55 H95 0.950 . S
C56 C55 1.439 . S
C56 N57 1.374 . S
C56 C90 1.395 . S
N57 C53 1.376 . S
N57 C56 1.374 . S
N57 Co58 2.008 . S
Co58 N57 2.008 . S
Co58 N59 1.995 . S
Co58 N64 2.008 . S
Co58 N69 1.995 . S
Co58 N74 2.282 . S
Co58 N80 2.282 . S
N59 Co58 1.995 . S
N59 C60 1.376 . S
N59 C63 1.383 . S
C60 N59 1.376 . S
C60 C61 1.446 . S
C60 C90 1.391 . S
C61 C60 1.446 . S
C61 C62 1.339 . S
C61 H96 0.949 . S
C62 C61 1.339 . S
C62 C63 1.439 . S
C62 H97 0.950 . S
C63 N59 1.383 . S
C63 C62 1.439 . S
C63 C92 1.392 . S
N64 Co58 2.008 . S
N64 C65 1.376 . S
N64 C68 1.374 . S
C65 N64 1.376 . S
C65 C66 1.443 . S
C65 C92 1.389 . S
C66 C65 1.443 . S
C66 C67 1.340 . S
C66 H98 0.951 . S
C67 C66 1.340 . S
C67 C68 1.439 . S
C67 H99 0.950 . S
C68 N64 1.374 . S
C68 C67 1.439 . S
C68 C93 1.395 . S
N69 Co58 1.995 . S
N69 C70 1.376 . S
N69 C73 1.383 . S
C70 N69 1.376 . S
C70 C71 1.446 . S
C70 C93 1.391 . S
C71 C70 1.446 . S
C71 C72 1.339 . S
C71 H100 0.949 . S
C72 C71 1.339 . S
C72 C73 1.439 . S
C72 H101 0.950 . S
C73 N69 1.383 . S
C73 C72 1.439 . S
C73 C91 1.392 . S
N74 Co58 2.282 . S
N74 C77 1.332 . S
N74 C79 1.332 . S
C75 C76 1.386 . S
C75 C78 1.388 . S
C76 C75 1.386 . S
C76 C77 1.382 . S
C76 H102 0.950 . S
C77 N74 1.332 . S
C77 C76 1.382 . S
C77 H88 0.952 . S
C78 C75 1.388 . S
C78 C79 1.382 . S
C78 H103 0.950 . S
C79 N74 1.332 . S
C79 C78 1.382 . S
C79 H89 0.948 . S
N80 Co58 2.282 . S
N80 C84 1.332 . S
N80 C85 1.332 . S
C81 C82 1.388 . S
C81 C85 1.382 . S
C81 H104 0.950 . S
C82 C81 1.388 . S
C82 C83 1.386 . S
C83 C82 1.386 . S
C83 C84 1.382 . S
C83 H105 0.950 . S
C84 N80 1.332 . S
C84 C83 1.382 . S
C84 H86 0.952 . S
C85 N80 1.332 . S
C85 C81 1.382 . S
C85 H87 0.948 . S
H86 C84 0.952 . S
H87 C85 0.948 . S
H88 C77 0.952 . S
H89 C79 0.948 . S
C90 C56 1.395 . S
C90 C60 1.391 . S
C91 C53 1.389 . S
C91 C73 1.392 . S
C92 C63 1.392 . S
C92 C65 1.389 . S
C93 C68 1.395 . S
C93 C70 1.391 . S
H94 C54 0.951 . S
H95 C55 0.950 . S
H96 C61 0.949 . S
H97 C62 0.950 . S
H98 C66 0.951 . S
H99 C67 0.950 . S
H100 C71 0.949 . S
H101 C72 0.950 . S
H102 C76 0.950 . S
H103 C78 0.950 . S
H104 C81 0.950 . S
H105 C83 0.950 . S
C106 C107 1.443 . S
C106 N110 1.376 . S
C106 C144 1.389 . S
C107 C106 1.443 . S
C107 C108 1.340 . S
C107 H147 0.951 . S
C108 C107 1.340 . S
C108 C109 1.439 . S
C108 H148 0.950 . S
C109 C108 1.439 . S
C109 N110 1.374 . S
C109 C143 1.395 . S
N110 C106 1.376 . S
N110 C109 1.374 . S
N110 Co111 2.008 . S
Co111 N110 2.008 . S
Co111 N112 1.995 . S
Co111 N117 2.008 . S
Co111 N122 1.995 . S
Co111 N127 2.282 . S
Co111 N133 2.282 . S
N112 Co111 1.995 . S
N112 C113 1.376 . S
N112 C116 1.383 . S
C113 N112 1.376 . S
C113 C114 1.446 . S
C113 C143 1.391 . S
C114 C113 1.446 . S
C114 C115 1.339 . S
C114 H149 0.949 . S
C115 C114 1.339 . S
C115 C116 1.439 . S
C115 H150 0.950 . S
C116 N112 1.383 . S
C116 C115 1.439 . S
C116 C145 1.392 . S
N117 Co111 2.008 . S
N117 C118 1.376 . S
N117 C121 1.374 . S
C118 N117 1.376 . S
C118 C119 1.443 . S
C118 C145 1.389 . S
C119 C118 1.443 . S
C119 C120 1.340 . S
C119 H151 0.951 . S
C120 C119 1.340 . S
C120 C121 1.439 . S
C120 H152 0.950 . S
C121 N117 1.374 . S
C121 C120 1.439 . S
C121 C146 1.395 . S
N122 Co111 1.995 . S
N122 C123 1.376 . S
N122 C126 1.383 . S
C123 N122 1.376 . S
C123 C124 1.446 . S
C123 C146 1.391 . S
C124 C123 1.446 . S
C124 C125 1.339 . S
C124 H153 0.949 . S
C125 C124 1.339 . S
C125 C126 1.439 . S
C125 H154 0.950 . S
C126 N122 1.383 . S
C126 C125 1.439 . S
C126 C144 1.392 . S
N127 Co111 2.282 . S
N127 C130 1.332 . S
N127 C132 1.332 . S
C128 C129 1.386 . S
C128 C131 1.388 . S
C129 C128 1.386 . S
C129 C130 1.382 . S
C129 H155 0.950 . S
C130 N127 1.332 . S
C130 C129 1.382 . S
C130 H141 0.952 . S
C131 C128 1.388 . S
C131 C132 1.382 . S
C131 H156 0.950 . S
C132 N127 1.332 . S
C132 C131 1.382 . S
C132 H142 0.948 . S
N133 Co111 2.282 . S
N133 C137 1.332 . S
N133 C138 1.332 . S
C134 C135 1.388 . S
C134 C138 1.382 . S
C134 H157 0.950 . S
C135 C134 1.388 . S
C135 C136 1.386 . S
C136 C135 1.386 . S
C136 C137 1.382 . S
C136 H158 0.950 . S
C137 N133 1.332 . S
C137 C136 1.382 . S
C137 H139 0.952 . S
C138 N133 1.332 . S
C138 C134 1.382 . S
C138 H140 0.948 . S
H139 C137 0.952 . S
H140 C138 0.948 . S
H141 C130 0.952 . S
H142 C132 0.948 . S
C143 C109 1.395 . S
C143 C113 1.391 . S
C144 C106 1.389 . S
C144 C126 1.392 . S
C145 C116 1.392 . S
C145 C118 1.389 . S
C146 C121 1.395 . S
C146 C123 1.391 . S
H147 C107 0.951 . S
H148 C108 0.950 . S
H149 C114 0.949 . S
H150 C115 0.950 . S
H151 C119 0.951 . S
H152 C120 0.950 . S
H153 C124 0.949 . S
H154 C125 0.950 . S
H155 C129 0.950 . S
H156 C131 0.950 . S
H157 C134 0.950 . S
H158 C136 0.950 . S
C159 C160 1.443 . S
C159 N163 1.376 1_556 S
C159 C197 1.389 . S
C160 C159 1.443 . S
C160 C161 1.340 . S
C160 H200 0.951 . S
C161 C160 1.340 . S
C161 C162 1.439 1_556 S
C161 H201 0.950 . S
C162 C161 1.439 1_554 S
C162 N163 1.374 . S
C162 C196 1.395 . S
N163 C159 1.376 1_554 S
N163 C162 1.374 . S
N163 Co164 2.008 . S
Co164 N163 2.008 . S
Co164 N165 1.995 . S
Co164 N170 2.008 . S
Co164 N175 1.995 . S
Co164 N180 2.282 . S
Co164 N186 2.282 . S
N165 Co164 1.995 . S
N165 C166 1.376 . S
N165 C169 1.383 . S
C166 N165 1.376 . S
C166 C167 1.446 . S
C166 C196 1.391 . S
C167 C166 1.446 . S
C167 C168 1.339 . S
C167 H202 0.949 . S
C168 C167 1.339 . S
C168 C169 1.439 . S
C168 H203 0.950 . S
C169 N165 1.383 . S
C169 C168 1.439 . S
C169 C198 1.392 . S
N170 Co164 2.008 . S
N170 C171 1.376 . S
N170 C174 1.374 . S
C171 N170 1.376 . S
C171 C172 1.443 . S
C171 C198 1.389 . S
C172 C171 1.443 . S
C172 C173 1.340 . S
C172 H204 0.951 . S
C173 C172 1.340 . S
C173 C174 1.439 . S
C173 H205 0.950 . S
C174 N170 1.374 . S
C174 C173 1.439 . S
C174 C199 1.395 . S
N175 Co164 1.995 . S
N175 C176 1.376 . S
N175 C179 1.383 1_554 S
C176 N175 1.376 . S
C176 C177 1.446 1_554 S
C176 C199 1.391 . S
C177 C176 1.446 1_556 S
C177 C178 1.339 . S
C177 H206 0.949 . S
C178 C177 1.339 . S
C178 C179 1.439 . S
C178 H207 0.950 . S
C179 N175 1.383 1_556 S
C179 C178 1.439 . S
C179 C197 1.392 . S
N180 Co164 2.282 . S
N180 C183 1.332 . S
N180 C185 1.332 . S
C181 C182 1.386 . S
C181 C184 1.388 . S
C182 C181 1.386 . S
C182 C183 1.382 . S
C182 H208 0.950 . S
C183 N180 1.332 . S
C183 C182 1.382 . S
C183 H194 0.952 . S
C184 C181 1.388 . S
C184 C185 1.382 . S
C184 H209 0.950 . S
C185 N180 1.332 . S
C185 C184 1.382 . S
C185 H195 0.948 . S
N186 Co164 2.282 . S
N186 C190 1.332 . S
N186 C191 1.332 . S
C187 C188 1.388 . S
C187 C191 1.382 . S
C187 H210 0.950 1_554 S
C188 C187 1.388 . S
C188 C189 1.386 . S
C189 C188 1.386 . S
C189 C190 1.382 . S
C189 H211 0.950 . S
C190 N186 1.332 . S
C190 C189 1.382 . S
C190 H192 0.952 . S
C191 N186 1.332 . S
C191 C187 1.382 . S
C191 H193 0.948 . S
H192 C190 0.952 . S
H193 C191 0.948 . S
H194 C183 0.952 . S
H195 C185 0.948 . S
C196 C162 1.395 . S
C196 C166 1.391 . S
C197 C159 1.389 . S
C197 C179 1.392 . S
C198 C169 1.392 . S
C198 C171 1.389 . S
C199 C174 1.395 . S
C199 C176 1.391 . S
H200 C160 0.951 . S
H201 C161 0.950 . S
H202 C167 0.949 . S
H203 C168 0.950 . S
H204 C172 0.951 . S
H205 C173 0.950 . S
H206 C177 0.949 . S
H207 C178 0.950 . S
H208 C182 0.950 . S
H209 C184 0.950 . S
H210 C187 0.950 1_556 S
H211 C189 0.950 . S
C212 C213 1.436 1_554 S
C212 N216 1.384 . S
C212 C250 1.388 1_554 S
C213 C212 1.436 1_556 S
C213 C214 1.340 . S
C213 H253 0.951 . S
C214 C213 1.340 . S
C214 C215 1.439 1_556 S
C214 H254 0.950 . S
C215 C214 1.439 1_554 S
C215 N216 1.374 . S
C215 C249 1.395 . S
N216 C212 1.384 . S
N216 C215 1.374 . S
N216 Co217 2.008 . S
Co217 N216 2.008 . S
Co217 N218 1.995 . S
Co217 N223 2.008 . S
Co217 N228 1.995 . S
Co217 N233 2.282 . S
Co217 N239 2.282 1_554 S
N218 Co217 1.995 . S
N218 C219 1.376 . S
N218 C222 1.383 . S
C219 N218 1.376 . S
C219 C220 1.446 . S
C219 C249 1.391 . S
C220 C219 1.446 . S
C220 C221 1.339 . S
C220 H255 0.949 . S
C221 C220 1.339 . S
C221 C222 1.439 . S
C221 H256 0.950 . S
C222 N218 1.383 . S
C222 C221 1.439 . S
C222 C251 1.392 . S
N223 Co217 2.008 . S
N223 C224 1.376 . S
N223 C227 1.374 . S
C224 N223 1.376 . S
C224 C225 1.443 . S
C224 C251 1.389 . S
C225 C224 1.443 . S
C225 C226 1.340 . S
C225 H257 0.951 . S
C226 C225 1.340 . S
C226 C227 1.439 . S
C226 H258 0.950 . S
C227 N223 1.374 . S
C227 C226 1.439 . S
C227 C252 1.395 . S
N228 Co217 1.995 . S
N228 C229 1.376 . S
N228 C232 1.383 . S
C229 N228 1.376 . S
C229 C230 1.446 . S
C229 C252 1.391 . S
C230 C229 1.446 . S
C230 C231 1.339 . S
C230 H259 0.949 . S
C231 C230 1.339 . S
C231 C232 1.439 . S
C231 H260 0.958 . S
C232 N228 1.383 . S
C232 C231 1.439 . S
C232 C250 1.389 1_554 S
N233 Co217 2.282 . S
N233 C236 1.332 . S
N233 C238 1.332 . S
C234 C235 1.386 . S
C234 C237 1.388 . S
C235 C234 1.386 . S
C235 C236 1.382 . S
C235 H261 0.950 . S
C236 N233 1.332 . S
C236 C235 1.382 . S
C236 H247 0.952 . S
C237 C234 1.388 . S
C237 C238 1.382 . S
C237 H262 0.950 . S
C238 N233 1.332 . S
C238 C237 1.382 . S
C238 H248 0.948 . S
N239 Co217 2.282 1_556 S
N239 C243 1.332 . S
N239 C244 1.332 . S
C240 C241 1.388 . S
C240 C244 1.382 . S
C240 H263 0.950 . S
C241 C240 1.388 . S
C241 C242 1.386 . S
C242 C241 1.386 . S
C242 C243 1.382 . S
C242 H264 0.950 . S
C243 N239 1.332 . S
C243 C242 1.382 . S
C243 H245 0.952 . S
C244 N239 1.332 . S
C244 C240 1.382 . S
C244 H246 0.948 . S
H245 C243 0.952 . S
H246 C244 0.948 . S
H247 C236 0.952 . S
H248 C238 0.948 . S
C249 C215 1.395 . S
C249 C219 1.391 . S
C250 C212 1.388 1_556 S
C250 C232 1.389 1_556 S
C251 C222 1.392 . S
C251 C224 1.389 . S
C252 C227 1.395 . S
C252 C229 1.391 . S
H253 C213 0.951 . S
H254 C214 0.950 . S
H255 C220 0.949 . S
H256 C221 0.950 . S
H257 C225 0.951 . S
H258 C226 0.950 . S
H259 C230 0.949 . S
H260 C231 0.958 . S
H261 C235 0.950 . S
H262 C237 0.950 . S
H263 C240 0.950 . S
H264 C242 0.950 . S
C265 C266 1.443 . S
C265 N269 1.376 . S
C265 C303 1.389 . S
C266 C265 1.443 . S
C266 C267 1.340 . S
C266 H306 0.951 . S
C267 C266 1.340 . S
C267 C268 1.439 . S
C267 H307 0.950 . S
C268 C267 1.439 . S
C268 N269 1.374 . S
C268 C302 1.395 . S
N269 C265 1.376 . S
N269 C268 1.374 . S
N269 Co270 2.008 . S
Co270 N269 2.008 . S
Co270 N271 1.995 . S
Co270 N276 2.008 . S
Co270 N281 1.995 . S
Co270 N286 2.282 . S
Co270 N292 2.282 . S
N271 Co270 1.995 . S
N271 C272 1.376 . S
N271 C275 1.383 . S
C272 N271 1.376 . S
C272 C273 1.446 . S
C272 C302 1.391 . S
C273 C272 1.446 . S
C273 C274 1.339 . S
C273 H308 0.949 . S
C274 C273 1.339 . S
C274 C275 1.439 . S
C274 H309 0.950 . S
C275 N271 1.383 . S
C275 C274 1.439 . S
C275 C304 1.392 . S
N276 Co270 2.008 . S
N276 C277 1.376 . S
N276 C280 1.374 . S
C277 N276 1.376 . S
C277 C278 1.443 . S
C277 C304 1.389 . S
C278 C277 1.443 . S
C278 C279 1.340 . S
C278 H310 0.951 . S
C279 C278 1.340 . S
C279 C280 1.439 . S
C279 H311 0.950 . S
C280 N276 1.374 . S
C280 C279 1.439 . S
C280 C305 1.395 . S
N281 Co270 1.995 . S
N281 C282 1.376 . S
N281 C285 1.383 . S
C282 N281 1.376 . S
C282 C283 1.446 . S
C282 C305 1.391 . S
C283 C282 1.446 . S
C283 C284 1.339 . S
C283 H312 0.949 . S
C284 C283 1.339 . S
C284 C285 1.439 . S
C284 H313 0.950 . S
C285 N281 1.383 . S
C285 C284 1.439 . S
C285 C303 1.392 . S
N286 Co270 2.282 . S
N286 C289 1.332 . S
N286 C291 1.332 . S
C287 C288 1.386 . S
C287 C290 1.388 . S
C288 C287 1.386 . S
C288 C289 1.382 . S
C288 H314 0.950 . S
C289 N286 1.332 . S
C289 C288 1.382 . S
C289 H300 0.952 . S
C290 C287 1.388 . S
C290 C291 1.382 . S
C290 H315 0.950 . S
C291 N286 1.332 . S
C291 C290 1.382 . S
C291 H301 0.948 . S
N292 Co270 2.282 . S
N292 C296 1.332 . S
N292 C297 1.332 . S
C293 C294 1.388 . S
C293 C297 1.382 . S
C293 H316 0.950 . S
C294 C293 1.388 . S
C294 C295 1.386 . S
C295 C294 1.386 . S
C295 C296 1.382 . S
C295 H317 0.950 . S
C296 N292 1.332 . S
C296 C295 1.382 . S
C296 H298 0.952 . S
C297 N292 1.332 . S
C297 C293 1.382 . S
C297 H299 0.948 . S
H298 C296 0.952 . S
H299 C297 0.948 . S
H300 C289 0.952 . S
H301 C291 0.948 . S
C302 C268 1.395 . S
C302 C272 1.391 . S
C303 C265 1.389 . S
C303 C285 1.392 . S
C304 C275 1.392 . S
C304 C277 1.389 . S
C305 C280 1.395 . S
C305 C282 1.391 . S
H306 C266 0.951 . S
H307 C267 0.950 . S
H308 C273 0.949 . S
H309 C274 0.950 . S
H310 C278 0.951 . S
H311 C279 0.950 . S
H312 C283 0.949 . S
H313 C284 0.950 . S
H314 C288 0.950 . S
H315 C290 0.950 . S
H316 C293 0.950 . S
H317 C295 0.950 . S
C318 C319 1.443 . S
C318 N322 1.376 . S
C318 C356 1.389 . S
C319 C318 1.443 . S
C319 C320 1.340 . S
C319 H359 0.951 . S
C320 C319 1.340 . S
C320 C321 1.439 . S
C320 H360 0.950 . S
C321 C320 1.439 . S
C321 N322 1.374 . S
C321 C355 1.395 . S
N322 C318 1.376 . S
N322 C321 1.374 . S
N322 Co323 2.008 . S
Co323 N322 2.008 . S
Co323 N324 1.995 . S
Co323 N329 2.008 . S
Co323 N334 1.995 . S
Co323 N339 2.282 . S
Co323 N345 2.282 . S
N324 Co323 1.995 . S
N324 C325 1.376 . S
N324 C328 1.383 . S
C325 N324 1.376 . S
C325 C326 1.446 . S
C325 C355 1.391 . S
C326 C325 1.446 . S
C326 C327 1.339 . S
C326 H361 0.949 . S
C327 C326 1.339 . S
C327 C328 1.439 . S
C327 H362 0.950 . S
C328 N324 1.383 . S
C328 C327 1.439 . S
C328 C357 1.392 . S
N329 Co323 2.008 . S
N329 C330 1.376 . S
N329 C333 1.374 . S
C330 N329 1.376 . S
C330 C331 1.443 . S
C330 C357 1.389 . S
C331 C330 1.443 . S
C331 C332 1.340 . S
C331 H363 0.951 . S
C332 C331 1.340 . S
C332 C333 1.439 . S
C332 H364 0.950 . S
C333 N329 1.374 . S
C333 C332 1.439 . S
C333 C358 1.395 . S
N334 Co323 1.995 . S
N334 C335 1.376 . S
N334 C338 1.383 . S
C335 N334 1.376 . S
C335 C336 1.446 . S
C335 C358 1.391 . S
C336 C335 1.446 . S
C336 C337 1.339 . S
C336 H365 0.949 . S
C337 C336 1.339 . S
C337 C338 1.439 . S
C337 H366 0.950 . S
C338 N334 1.383 . S
C338 C337 1.439 . S
C338 C356 1.392 . S
N339 Co323 2.282 . S
N339 C342 1.332 . S
N339 C344 1.332 . S
C340 C341 1.386 . S
C340 C343 1.388 . S
C341 C340 1.386 . S
C341 C342 1.382 . S
C341 H367 0.950 . S
C342 N339 1.332 . S
C342 C341 1.382 . S
C342 H353 0.952 . S
C343 C340 1.388 . S
C343 C344 1.382 . S
C343 H368 0.950 . S
C344 N339 1.332 . S
C344 C343 1.382 . S
C344 H354 0.948 . S
N345 Co323 2.282 . S
N345 C349 1.332 . S
N345 C350 1.332 . S
C346 C347 1.388 . S
C346 C350 1.382 . S
C346 H369 0.950 . S
C347 C346 1.388 . S
C347 C348 1.386 . S
C348 C347 1.386 . S
C348 C349 1.382 . S
C348 H370 0.950 . S
C349 N345 1.332 . S
C349 C348 1.382 . S
C349 H351 0.952 . S
C350 N345 1.332 . S
C350 C346 1.382 . S
C350 H352 0.948 . S
H351 C349 0.952 . S
H352 C350 0.948 . S
H353 C342 0.952 . S
H354 C344 0.948 . S
C355 C321 1.395 . S
C355 C325 1.391 . S
C356 C318 1.389 . S
C356 C338 1.392 . S
C357 C328 1.392 . S
C357 C330 1.389 . S
C358 C333 1.395 . S
C358 C335 1.391 . S
H359 C319 0.951 . S
H360 C320 0.950 . S
H361 C326 0.949 . S
H362 C327 0.950 . S
H363 C331 0.951 . S
H364 C332 0.950 . S
H365 C336 0.949 . S
H366 C337 0.950 . S
H367 C341 0.950 . S
H368 C343 0.950 . S
H369 C346 0.950 . S
H370 C348 0.950 . S
C371 C372 1.443 . S
C371 N375 1.376 . S
C371 C409 1.389 . S
C372 C371 1.443 . S
C372 C373 1.340 . S
C372 H412 0.951 . S
C373 C372 1.340 . S
C373 C374 1.439 . S
C373 H413 0.950 . S
C374 C373 1.439 . S
C374 N375 1.374 . S
C374 C408 1.395 . S
N375 C371 1.376 . S
N375 C374 1.374 . S
N375 Co376 2.008 . S
Co376 N375 2.008 . S
Co376 N377 1.995 . S
Co376 N382 2.008 . S
Co376 N387 1.995 . S
Co376 N392 2.282 . S
Co376 N398 2.282 . S
N377 Co376 1.995 . S
N377 C378 1.376 . S
N377 C381 1.383 . S
C378 N377 1.376 . S
C378 C379 1.446 . S
C378 C408 1.391 . S
C379 C378 1.446 . S
C379 C380 1.339 . S
C379 H414 0.949 . S
C380 C379 1.339 . S
C380 C381 1.439 . S
C380 H415 0.950 . S
C381 N377 1.383 . S
C381 C380 1.439 . S
C381 C410 1.392 . S
N382 Co376 2.008 . S
N382 C383 1.376 . S
N382 C386 1.374 . S
C383 N382 1.376 . S
C383 C384 1.443 . S
C383 C410 1.389 . S
C384 C383 1.443 . S
C384 C385 1.340 . S
C384 H416 0.951 . S
C385 C384 1.340 . S
C385 C386 1.439 . S
C385 H417 0.950 . S
C386 N382 1.374 . S
C386 C385 1.439 . S
C386 C411 1.395 . S
N387 Co376 1.995 . S
N387 C388 1.376 . S
N387 C391 1.383 . S
C388 N387 1.376 . S
C388 C389 1.446 . S
C388 C411 1.391 . S
C389 C388 1.446 . S
C389 C390 1.339 . S
C389 H418 0.949 . S
C390 C389 1.339 . S
C390 C391 1.439 . S
C390 H419 0.950 . S
C391 N387 1.383 . S
C391 C390 1.439 . S
C391 C409 1.392 . S
N392 Co376 2.282 . S
N392 C395 1.332 . S
N392 C397 1.332 . S
C393 C394 1.386 . S
C393 C396 1.388 . S
C394 C393 1.386 . S
C394 C395 1.382 . S
C394 H420 0.950 . S
C395 N392 1.332 . S
C395 C394 1.382 . S
C395 H406 0.952 . S
C396 C393 1.388 . S
C396 C397 1.382 . S
C396 H421 0.950 . S
C397 N392 1.332 . S
C397 C396 1.382 . S
C397 H407 0.948 . S
N398 Co376 2.282 . S
N398 C402 1.332 . S
N398 C403 1.332 . S
C399 C400 1.388 . S
C399 C403 1.382 . S
C399 H422 0.950 . S
C400 C399 1.388 . S
C400 C401 1.386 . S
C401 C400 1.386 . S
C401 C402 1.382 . S
C401 H423 0.950 . S
C402 N398 1.332 . S
C402 C401 1.382 . S
C402 H404 0.952 . S
C403 N398 1.332 . S
C403 C399 1.382 . S
C403 H405 0.948 . S
H404 C402 0.952 . S
H405 C403 0.948 . S
H406 C395 0.952 . S
H407 C397 0.948 . S
C408 C374 1.395 . S
C408 C378 1.391 . S
C409 C371 1.389 . S
C409 C391 1.392 . S
C410 C381 1.392 . S
C410 C383 1.389 . S
C411 C386 1.395 . S
C411 C388 1.391 . S
H412 C372 0.951 . S
H413 C373 0.950 . S
H414 C379 0.949 . S
H415 C380 0.950 . S
H416 C384 0.951 . S
H417 C385 0.950 . S
H418 C389 0.949 . S
H419 C390 0.950 . S
H420 C394 0.950 . S
H421 C396 0.950 . S
H422 C399 0.950 . S
H423 C401 0.950 . S
C424 C425 1.443 . S
C424 N428 1.376 . S
C424 C462 1.389 . S
C425 C424 1.443 . S
C425 C426 1.340 . S
C425 H465 0.951 . S
C426 C425 1.340 . S
C426 C427 1.439 . S
C426 H466 0.950 . S
C427 C426 1.439 . S
C427 N428 1.374 . S
C427 C461 1.395 . S
N428 C424 1.376 . S
N428 C427 1.374 . S
N428 Co429 2.008 . S
Co429 N428 2.008 . S
Co429 N430 1.995 . S
Co429 N435 2.008 . S
Co429 N440 1.995 . S
Co429 N445 2.282 . S
Co429 N451 2.282 . S
N430 Co429 1.995 . S
N430 C431 1.376 . S
N430 C434 1.383 . S
C431 N430 1.376 . S
C431 C432 1.446 . S
C431 C461 1.391 . S
C432 C431 1.446 . S
C432 C433 1.339 . S
C432 H467 0.949 . S
C433 C432 1.339 . S
C433 C434 1.439 . S
C433 H468 0.950 . S
C434 N430 1.383 . S
C434 C433 1.439 . S
C434 C463 1.392 . S
N435 Co429 2.008 . S
N435 C436 1.376 . S
N435 C439 1.374 . S
C436 N435 1.376 . S
C436 C437 1.443 . S
C436 C463 1.389 . S
C437 C436 1.443 . S
C437 C438 1.340 . S
C437 H469 0.951 . S
C438 C437 1.340 . S
C438 C439 1.439 . S
C438 H470 0.950 . S
C439 N435 1.374 . S
C439 C438 1.439 . S
C439 C464 1.395 . S
N440 Co429 1.995 . S
N440 C441 1.376 . S
N440 C444 1.383 . S
C441 N440 1.376 . S
C441 C442 1.446 . S
C441 C464 1.391 . S
C442 C441 1.446 . S
C442 C443 1.339 . S
C442 H471 0.949 . S
C443 C442 1.339 . S
C443 C444 1.439 . S
C443 H472 0.950 . S
C444 N440 1.383 . S
C444 C443 1.439 . S
C444 C462 1.392 . S
N445 Co429 2.282 . S
N445 C448 1.332 . S
N445 C450 1.332 . S
C446 C447 1.386 . S
C446 C449 1.388 . S
C447 C446 1.386 . S
C447 C448 1.382 . S
C447 H473 0.950 . S
C448 N445 1.332 . S
C448 C447 1.382 . S
C448 H459 0.952 . S
C449 C446 1.388 . S
C449 C450 1.382 . S
C449 H474 0.950 . S
C450 N445 1.332 . S
C450 C449 1.382 . S
C450 H460 0.948 . S
N451 Co429 2.282 . S
N451 C455 1.332 . S
N451 C456 1.332 . S
C452 C453 1.388 . S
C452 C456 1.382 . S
C452 H475 0.950 . S
C453 C452 1.388 . S
C453 C454 1.386 . S
C454 C453 1.386 . S
C454 C455 1.382 . S
C454 H476 0.950 . S
C455 N451 1.332 . S
C455 C454 1.382 . S
C455 H457 0.952 . S
C456 N451 1.332 . S
C456 C452 1.382 . S
C456 H458 0.948 . S
H457 C455 0.952 . S
H458 C456 0.948 . S
H459 C448 0.952 . S
H460 C450 0.948 . S
C461 C427 1.395 . S
C461 C431 1.391 . S
C462 C424 1.389 . S
C462 C444 1.392 . S
C463 C434 1.392 . S
C463 C436 1.389 . S
C464 C439 1.395 . S
C464 C441 1.391 . S
H465 C425 0.951 . S
H466 C426 0.950 . S
H467 C432 0.949 . S
H468 C433 0.950 . S
H469 C437 0.951 . S
H470 C438 0.950 . S
H471 C442 0.949 . S
H472 C443 0.950 . S
H473 C447 0.950 . S
H474 C449 0.950 . S
H475 C452 0.950 . S
H476 C454 0.950 . S
C477 C478 1.443 . S
C477 N481 1.376 1_556 S
C477 C515 1.389 . S
C478 C477 1.443 . S
C478 C479 1.340 . S
C478 H518 0.951 . S
C479 C478 1.340 . S
C479 C480 1.439 1_556 S
C479 H519 0.950 . S
C480 C479 1.439 1_554 S
C480 N481 1.374 . S
C480 C514 1.395 . S
N481 C477 1.376 1_554 S
N481 C480 1.374 . S
N481 Co482 2.008 . S
Co482 N481 2.008 . S
Co482 N483 1.995 . S
Co482 N488 2.008 . S
Co482 N493 1.995 . S
Co482 N498 2.282 . S
Co482 N504 2.282 . S
N483 Co482 1.995 . S
N483 C484 1.376 . S
N483 C487 1.383 . S
C484 N483 1.376 . S
C484 C485 1.446 . S
C484 C514 1.391 . S
C485 C484 1.446 . S
C485 C486 1.339 . S
C485 H520 0.949 . S
C486 C485 1.339 . S
C486 C487 1.439 . S
C486 H521 0.950 . S
C487 N483 1.383 . S
C487 C486 1.439 . S
C487 C516 1.392 . S
N488 Co482 2.008 . S
N488 C489 1.376 . S
N488 C492 1.374 . S
C489 N488 1.376 . S
C489 C490 1.443 . S
C489 C516 1.389 . S
C490 C489 1.443 . S
C490 C491 1.340 . S
C490 H522 0.951 . S
C491 C490 1.340 . S
C491 C492 1.439 . S
C491 H523 0.950 . S
C492 N488 1.374 . S
C492 C491 1.439 . S
C492 C517 1.395 . S
N493 Co482 1.995 . S
N493 C494 1.376 . S
N493 C497 1.383 1_554 S
C494 N493 1.376 . S
C494 C495 1.446 1_554 S
C494 C517 1.391 . S
C495 C494 1.446 1_556 S
C495 C496 1.339 . S
C495 H524 0.949 . S
C496 C495 1.339 . S
C496 C497 1.439 . S
C496 H525 0.950 . S
C497 N493 1.383 1_556 S
C497 C496 1.439 . S
C497 C515 1.392 . S
N498 Co482 2.282 . S
N498 C501 1.332 . S
N498 C503 1.332 . S
C499 C500 1.386 . S
C499 C502 1.388 . S
C500 C499 1.386 . S
C500 C501 1.382 . S
C500 H526 0.950 . S
C501 N498 1.332 . S
C501 C500 1.382 . S
C501 H512 0.952 . S
C502 C499 1.388 . S
C502 C503 1.382 . S
C502 H527 0.950 . S
C503 N498 1.332 . S
C503 C502 1.382 . S
C503 H513 0.948 . S
N504 Co482 2.282 . S
N504 C508 1.332 . S
N504 C509 1.332 . S
C505 C506 1.388 . S
C505 C509 1.382 . S
C505 H528 0.950 1_554 S
C506 C505 1.388 . S
C506 C507 1.386 . S
C507 C506 1.386 . S
C507 C508 1.382 . S
C507 H529 0.950 . S
C508 N504 1.332 . S
C508 C507 1.382 . S
C508 H510 0.952 . S
C509 N504 1.332 . S
C509 C505 1.382 . S
C509 H511 0.948 . S
H510 C508 0.952 . S
H511 C509 0.948 . S
H512 C501 0.952 . S
H513 C503 0.948 . S
C514 C480 1.395 . S
C514 C484 1.391 . S
C515 C477 1.389 . S
C515 C497 1.392 . S
C516 C487 1.392 . S
C516 C489 1.389 . S
C517 C492 1.395 . S
C517 C494 1.391 . S
H518 C478 0.951 . S
H519 C479 0.950 . S
H520 C485 0.949 . S
H521 C486 0.950 . S
H522 C490 0.951 . S
H523 C491 0.950 . S
H524 C495 0.949 . S
H525 C496 0.950 . S
H526 C500 0.950 . S
H527 C502 0.950 . S
H528 C505 0.950 1_556 S
H529 C507 0.950 . S
C530 C531 1.443 . S
C530 N534 1.376 . S
C530 C568 1.389 . S
C531 C530 1.443 . S
C531 C532 1.340 . S
C531 H571 0.951 . S
C532 C531 1.340 . S
C532 C533 1.439 . S
C532 H572 0.950 . S
C533 C532 1.439 . S
C533 N534 1.374 . S
C533 C567 1.395 . S
N534 C530 1.376 . S
N534 C533 1.374 . S
N534 Co535 2.008 . S
Co535 N534 2.008 . S
Co535 N536 1.995 . S
Co535 N541 2.008 . S
Co535 N546 1.995 . S
Co535 N551 2.282 . S
Co535 N557 2.282 . S
N536 Co535 1.995 . S
N536 C537 1.376 . S
N536 C540 1.383 . S
C537 N536 1.376 . S
C537 C538 1.446 . S
C537 C567 1.391 . S
C538 C537 1.446 . S
C538 C539 1.339 . S
C538 H573 0.949 . S
C539 C538 1.339 . S
C539 C540 1.439 . S
C539 H574 0.950 . S
C540 N536 1.383 . S
C540 C539 1.439 . S
C540 C569 1.392 . S
N541 Co535 2.008 . S
N541 C542 1.376 . S
N541 C545 1.374 . S
C542 N541 1.376 . S
C542 C543 1.443 . S
C542 C569 1.389 . S
C543 C542 1.443 . S
C543 C544 1.340 . S
C543 H575 0.951 . S
C544 C543 1.340 . S
C544 C545 1.439 . S
C544 H576 0.950 . S
C545 N541 1.374 . S
C545 C544 1.439 . S
C545 C570 1.395 . S
N546 Co535 1.995 . S
N546 C547 1.376 . S
N546 C550 1.383 . S
C547 N546 1.376 . S
C547 C548 1.446 . S
C547 C570 1.391 . S
C548 C547 1.446 . S
C548 C549 1.339 . S
C548 H577 0.949 . S
C549 C548 1.339 . S
C549 C550 1.439 . S
C549 H578 0.950 . S
C550 N546 1.383 . S
C550 C549 1.439 . S
C550 C568 1.392 . S
N551 Co535 2.282 . S
N551 C554 1.332 . S
N551 C556 1.332 . S
C552 C553 1.386 . S
C552 C555 1.388 . S
C553 C552 1.386 . S
C553 C554 1.382 . S
C553 H579 0.950 . S
C554 N551 1.332 . S
C554 C553 1.382 . S
C554 H565 0.952 . S
C555 C552 1.388 . S
C555 C556 1.382 . S
C555 H580 0.950 . S
C556 N551 1.332 . S
C556 C555 1.382 . S
C556 H566 0.948 . S
N557 Co535 2.282 . S
N557 C561 1.332 . S
N557 C562 1.332 . S
C558 C559 1.388 . S
C558 C562 1.382 . S
C558 H581 0.950 . S
C559 C558 1.388 . S
C559 C560 1.386 . S
C560 C559 1.386 . S
C560 C561 1.382 . S
C560 H582 0.950 . S
C561 N557 1.332 . S
C561 C560 1.382 . S
C561 H563 0.952 . S
C562 N557 1.332 . S
C562 C558 1.382 . S
C562 H564 0.948 . S
H563 C561 0.952 . S
H564 C562 0.948 . S
H565 C554 0.952 . S
H566 C556 0.948 . S
C567 C533 1.395 . S
C567 C537 1.391 . S
C568 C530 1.389 . S
C568 C550 1.392 . S
C569 C540 1.392 . S
C569 C542 1.389 . S
C570 C545 1.395 . S
C570 C547 1.391 . S
H571 C531 0.951 . S
H572 C532 0.950 . S
H573 C538 0.949 . S
H574 C539 0.950 . S
H575 C543 0.951 . S
H576 C544 0.950 . S
H577 C548 0.949 . S
H578 C549 0.950 . S
H579 C553 0.950 . S
H580 C555 0.950 . S
H581 C558 0.950 . S
H582 C560 0.950 . S
C583 C584 1.443 . S
C583 N587 1.376 . S
C583 C621 1.389 . S
C584 C583 1.443 . S
C584 C585 1.340 . S
C584 H624 0.951 . S
C585 C584 1.340 . S
C585 C586 1.439 . S
C585 H625 0.950 . S
C586 C585 1.439 . S
C586 N587 1.374 . S
C586 C620 1.395 . S
N587 C583 1.376 . S
N587 C586 1.374 . S
N587 Co588 2.008 . S
Co588 N587 2.008 . S
Co588 N589 1.995 . S
Co588 N594 2.008 . S
Co588 N599 1.995 . S
Co588 N604 2.282 . S
Co588 N610 2.282 . S
N589 Co588 1.995 . S
N589 C590 1.376 . S
N589 C593 1.383 . S
C590 N589 1.376 . S
C590 C591 1.446 . S
C590 C620 1.391 . S
C591 C590 1.446 . S
C591 C592 1.339 . S
C591 H626 0.949 . S
C592 C591 1.339 . S
C592 C593 1.439 . S
C592 H627 0.950 . S
C593 N589 1.383 . S
C593 C592 1.439 . S
C593 C622 1.392 . S
N594 Co588 2.008 . S
N594 C595 1.376 . S
N594 C598 1.374 . S
C595 N594 1.376 . S
C595 C596 1.443 . S
C595 C622 1.389 . S
C596 C595 1.443 . S
C596 C597 1.340 . S
C596 H628 0.951 . S
C597 C596 1.340 . S
C597 C598 1.439 . S
C597 H629 0.950 . S
C598 N594 1.374 . S
C598 C597 1.439 . S
C598 C623 1.395 . S
N599 Co588 1.995 . S
N599 C600 1.376 . S
N599 C603 1.383 . S
C600 N599 1.376 . S
C600 C601 1.446 . S
C600 C623 1.391 . S
C601 C600 1.446 . S
C601 C602 1.339 . S
C601 H630 0.949 . S
C602 C601 1.339 . S
C602 C603 1.439 . S
C602 H631 0.950 . S
C603 N599 1.383 . S
C603 C602 1.439 . S
C603 C621 1.392 . S
N604 Co588 2.282 . S
N604 C607 1.332 . S
N604 C609 1.332 . S
C605 C606 1.386 . S
C605 C608 1.388 . S
C606 C605 1.386 . S
C606 C607 1.382 . S
C606 H632 0.950 . S
C607 N604 1.332 . S
C607 C606 1.382 . S
C607 H618 0.952 . S
C608 C605 1.388 . S
C608 C609 1.382 . S
C608 H633 0.950 . S
C609 N604 1.332 . S
C609 C608 1.382 . S
C609 H619 0.948 . S
N610 Co588 2.282 . S
N610 C614 1.332 . S
N610 C615 1.332 . S
C611 C612 1.388 . S
C611 C615 1.382 . S
C611 H634 0.950 . S
C612 C611 1.388 . S
C612 C613 1.386 . S
C613 C612 1.386 . S
C613 C614 1.382 . S
C613 H635 0.950 . S
C614 N610 1.332 . S
C614 C613 1.382 . S
C614 H616 0.952 . S
C615 N610 1.332 . S
C615 C611 1.382 . S
C615 H617 0.948 . S
H616 C614 0.952 . S
H617 C615 0.948 . S
H618 C607 0.952 . S
H619 C609 0.948 . S
C620 C586 1.395 . S
C620 C590 1.391 . S
C621 C583 1.389 . S
C621 C603 1.392 . S
C622 C593 1.392 . S
C622 C595 1.389 . S
C623 C598 1.395 . S
C623 C600 1.391 . S
H624 C584 0.951 . S
H625 C585 0.950 . S
H626 C591 0.949 . S
H627 C592 0.950 . S
H628 C596 0.951 . S
H629 C597 0.950 . S
H630 C601 0.949 . S
H631 C602 0.950 . S
H632 C606 0.950 . S
H633 C608 0.950 . S
H634 C611 0.950 . S
H635 C613 0.950 . S
C636 C637 1.443 . S
C636 N640 1.376 . S
C636 C674 1.389 . S
C637 C636 1.443 . S
C637 C638 1.340 . S
C637 H677 0.951 . S
C638 C637 1.340 . S
C638 C639 1.439 . S
C638 H678 0.950 . S
C639 C638 1.439 . S
C639 N640 1.374 . S
C639 C673 1.395 . S
N640 C636 1.376 . S
N640 C639 1.374 . S
N640 Co641 2.008 . S
Co641 N640 2.008 . S
Co641 N642 1.995 . S
Co641 N647 2.008 . S
Co641 N652 1.995 . S
Co641 N657 2.282 . S
Co641 N663 2.282 . S
N642 Co641 1.995 . S
N642 C643 1.376 . S
N642 C646 1.383 . S
C643 N642 1.376 . S
C643 C644 1.446 . S
C643 C673 1.391 . S
C644 C643 1.446 . S
C644 C645 1.339 . S
C644 H679 0.949 . S
C645 C644 1.339 . S
C645 C646 1.439 . S
C645 H680 0.950 . S
C646 N642 1.383 . S
C646 C645 1.439 . S
C646 C675 1.392 . S
N647 Co641 2.008 . S
N647 C648 1.376 . S
N647 C651 1.374 . S
C648 N647 1.376 . S
C648 C649 1.443 . S
C648 C675 1.389 . S
C649 C648 1.443 . S
C649 C650 1.340 . S
C649 H681 0.951 . S
C650 C649 1.340 . S
C650 C651 1.439 . S
C650 H682 0.950 . S
C651 N647 1.374 . S
C651 C650 1.439 . S
C651 C676 1.395 . S
N652 Co641 1.995 . S
N652 C653 1.376 . S
N652 C656 1.383 . S
C653 N652 1.376 . S
C653 C654 1.446 . S
C653 C676 1.391 . S
C654 C653 1.446 . S
C654 C655 1.339 . S
C654 H683 0.949 . S
C655 C654 1.339 . S
C655 C656 1.439 . S
C655 H684 0.950 . S
C656 N652 1.383 . S
C656 C655 1.439 . S
C656 C674 1.392 . S
N657 Co641 2.282 . S
N657 C660 1.332 . S
N657 C662 1.332 . S
C658 C659 1.386 . S
C658 C661 1.388 . S
C659 C658 1.386 . S
C659 C660 1.382 . S
C659 H685 0.950 . S
C660 N657 1.332 . S
C660 C659 1.382 . S
C660 H671 0.952 . S
C661 C658 1.388 . S
C661 C662 1.382 . S
C661 H686 0.950 . S
C662 N657 1.332 . S
C662 C661 1.382 . S
C662 H672 0.948 . S
N663 Co641 2.282 . S
N663 C667 1.332 . S
N663 C668 1.332 . S
C664 C665 1.388 . S
C664 C668 1.382 . S
C664 H687 0.950 . S
C665 C664 1.388 . S
C665 C666 1.386 . S
C666 C665 1.386 . S
C666 C667 1.382 . S
C666 H688 0.950 . S
C667 N663 1.332 . S
C667 C666 1.382 . S
C667 H669 0.952 . S
C668 N663 1.332 . S
C668 C664 1.382 . S
C668 H670 0.948 . S
H669 C667 0.952 . S
H670 C668 0.948 . S
H671 C660 0.952 . S
H672 C662 0.948 . S
C673 C639 1.395 . S
C673 C643 1.391 . S
C674 C636 1.389 . S
C674 C656 1.392 . S
C675 C646 1.392 . S
C675 C648 1.389 . S
C676 C651 1.395 . S
C676 C653 1.391 . S
H677 C637 0.951 . S
H678 C638 0.950 . S
H679 C644 0.949 . S
H680 C645 0.950 . S
H681 C649 0.951 . S
H682 C650 0.950 . S
H683 C654 0.949 . S
H684 C655 0.950 . S
H685 C659 0.950 . S
H686 C661 0.950 . S
H687 C664 0.950 . S
H688 C666 0.950 . S
C689 C690 1.443 . S
C689 N693 1.376 . S
C689 C727 1.389 . S
C690 C689 1.443 . S
C690 C691 1.340 . S
C690 H730 0.951 . S
C691 C690 1.340 . S
C691 C692 1.439 . S
C691 H731 0.950 . S
C692 C691 1.439 . S
C692 N693 1.374 . S
C692 C726 1.395 . S
N693 C689 1.376 . S
N693 C692 1.374 . S
N693 Co694 2.008 . S
Co694 N693 2.008 . S
Co694 N695 1.995 . S
Co694 N700 2.008 . S
Co694 N705 1.995 . S
Co694 N710 2.282 . S
Co694 N716 2.282 . S
N695 Co694 1.995 . S
N695 C696 1.376 . S
N695 C699 1.383 . S
C696 N695 1.376 . S
C696 C697 1.446 . S
C696 C726 1.391 . S
C697 C696 1.446 . S
C697 C698 1.339 . S
C697 H732 0.949 . S
C698 C697 1.339 . S
C698 C699 1.439 . S
C698 H733 0.950 . S
C699 N695 1.383 . S
C699 C698 1.439 . S
C699 C728 1.392 . S
N700 Co694 2.008 . S
N700 C701 1.376 . S
N700 C704 1.374 . S
C701 N700 1.376 . S
C701 C702 1.443 . S
C701 C728 1.389 . S
C702 C701 1.443 . S
C702 C703 1.340 . S
C702 H734 0.951 . S
C703 C702 1.340 . S
C703 C704 1.439 . S
C703 H735 0.950 . S
C704 N700 1.374 . S
C704 C703 1.439 . S
C704 C729 1.395 . S
N705 Co694 1.995 . S
N705 C706 1.376 . S
N705 C709 1.383 . S
C706 N705 1.376 . S
C706 C707 1.446 . S
C706 C729 1.391 . S
C707 C706 1.446 . S
C707 C708 1.339 . S
C707 H736 0.949 . S
C708 C707 1.339 . S
C708 C709 1.439 . S
C708 H737 0.950 . S
C709 N705 1.383 . S
C709 C708 1.439 . S
C709 C727 1.392 . S
N710 Co694 2.282 . S
N710 C713 1.332 . S
N710 C715 1.332 . S
C711 C712 1.386 . S
C711 C714 1.388 . S
C712 C711 1.386 . S
C712 C713 1.382 . S
C712 H738 0.950 . S
C713 N710 1.332 . S
C713 C712 1.382 . S
C713 H724 0.952 . S
C714 C711 1.388 . S
C714 C715 1.382 . S
C714 H739 0.950 . S
C715 N710 1.332 . S
C715 C714 1.382 . S
C715 H725 0.948 . S
N716 Co694 2.282 . S
N716 C720 1.332 . S
N716 C721 1.332 . S
C717 C718 1.388 . S
C717 C721 1.382 . S
C717 H740 0.950 . S
C718 C717 1.388 . S
C718 C719 1.386 . S
C719 C718 1.386 . S
C719 C720 1.382 . S
C719 H741 0.950 . S
C720 N716 1.332 . S
C720 C719 1.382 . S
C720 H722 0.952 . S
C721 N716 1.332 . S
C721 C717 1.382 . S
C721 H723 0.948 . S
H722 C720 0.952 . S
H723 C721 0.948 . S
H724 C713 0.952 . S
H725 C715 0.948 . S
C726 C692 1.395 . S
C726 C696 1.391 . S
C727 C689 1.389 . S
C727 C709 1.392 . S
C728 C699 1.392 . S
C728 C701 1.389 . S
C729 C704 1.395 . S
C729 C706 1.391 . S
H730 C690 0.951 . S
H731 C691 0.950 . S
H732 C697 0.949 . S
H733 C698 0.950 . S
H734 C702 0.951 . S
H735 C703 0.950 . S
H736 C707 0.949 . S
H737 C708 0.950 . S
H738 C712 0.950 . S
H739 C714 0.950 . S
H740 C717 0.950 . S
H741 C719 0.950 . S
C742 C743 1.436 1_554 S
C742 N746 1.384 . S
C742 C780 1.388 1_554 S
C743 C742 1.436 1_556 S
C743 C744 1.340 . S
C743 H783 0.951 . S
C744 C743 1.340 . S
C744 C745 1.439 1_556 S
C744 H784 0.950 . S
C745 C744 1.439 1_554 S
C745 N746 1.374 . S
C745 C779 1.395 . S
N746 C742 1.384 . S
N746 C745 1.374 . S
N746 Co747 2.008 . S
Co747 N746 2.008 . S
Co747 N748 1.995 . S
Co747 N753 2.008 . S
Co747 N758 1.995 . S
Co747 N763 2.282 . S
Co747 N769 2.282 1_554 S
N748 Co747 1.995 . S
N748 C749 1.376 . S
N748 C752 1.383 . S
C749 N748 1.376 . S
C749 C750 1.446 . S
C749 C779 1.391 . S
C750 C749 1.446 . S
C750 C751 1.339 . S
C750 H785 0.949 . S
C751 C750 1.339 . S
C751 C752 1.439 . S
C751 H786 0.950 . S
C752 N748 1.383 . S
C752 C751 1.439 . S
C752 C781 1.392 . S
N753 Co747 2.008 . S
N753 C754 1.376 . S
N753 C757 1.374 . S
C754 N753 1.376 . S
C754 C755 1.443 . S
C754 C781 1.389 . S
C755 C754 1.443 . S
C755 C756 1.340 . S
C755 H787 0.951 . S
C756 C755 1.340 . S
C756 C757 1.439 . S
C756 H788 0.950 . S
C757 N753 1.374 . S
C757 C756 1.439 . S
C757 C782 1.395 . S
N758 Co747 1.995 . S
N758 C759 1.376 . S
N758 C762 1.383 . S
C759 N758 1.376 . S
C759 C760 1.446 . S
C759 C782 1.391 . S
C760 C759 1.446 . S
C760 C761 1.339 . S
C760 H789 0.949 . S
C761 C760 1.339 . S
C761 C762 1.439 . S
C761 H790 0.958 . S
C762 N758 1.383 . S
C762 C761 1.439 . S
C762 C780 1.389 1_554 S
N763 Co747 2.282 . S
N763 C766 1.332 . S
N763 C768 1.332 . S
C764 C765 1.386 . S
C764 C767 1.388 . S
C765 C764 1.386 . S
C765 C766 1.382 . S
C765 H791 0.950 . S
C766 N763 1.332 . S
C766 C765 1.382 . S
C766 H777 0.952 . S
C767 C764 1.388 . S
C767 C768 1.382 . S
C767 H792 0.950 . S
C768 N763 1.332 . S
C768 C767 1.382 . S
C768 H778 0.948 . S
N769 Co747 2.282 1_556 S
N769 C773 1.332 . S
N769 C774 1.332 . S
C770 C771 1.388 . S
C770 C774 1.382 . S
C770 H793 0.950 . S
C771 C770 1.388 . S
C771 C772 1.386 . S
C772 C771 1.386 . S
C772 C773 1.382 . S
C772 H794 0.950 . S
C773 N769 1.332 . S
C773 C772 1.382 . S
C773 H775 0.952 . S
C774 N769 1.332 . S
C774 C770 1.382 . S
C774 H776 0.948 . S
H775 C773 0.952 . S
H776 C774 0.948 . S
H777 C766 0.952 . S
H778 C768 0.948 . S
C779 C745 1.395 . S
C779 C749 1.391 . S
C780 C742 1.388 1_556 S
C780 C762 1.389 1_556 S
C781 C752 1.392 . S
C781 C754 1.389 . S
C782 C757 1.395 . S
C782 C759 1.391 . S
H783 C743 0.951 . S
H784 C744 0.950 . S
H785 C750 0.949 . S
H786 C751 0.950 . S
H787 C755 0.951 . S
H788 C756 0.950 . S
H789 C760 0.949 . S
H790 C761 0.958 . S
H791 C765 0.950 . S
H792 C767 0.950 . S
H793 C770 0.950 . S
H794 C772 0.950 . S
C795 C796 1.443 . S
C795 N799 1.376 . S
C795 C833 1.389 . S
C796 C795 1.443 . S
C796 C797 1.340 . S
C796 H836 0.951 . S
C797 C796 1.340 . S
C797 C798 1.439 . S
C797 H837 0.950 . S
C798 C797 1.439 . S
C798 N799 1.374 . S
C798 C832 1.395 . S
N799 C795 1.376 . S
N799 C798 1.374 . S
N799 Co800 2.008 . S
Co800 N799 2.008 . S
Co800 N801 1.995 . S
Co800 N806 2.008 . S
Co800 N811 1.995 . S
Co800 N816 2.282 . S
Co800 N822 2.282 . S
N801 Co800 1.995 . S
N801 C802 1.376 . S
N801 C805 1.383 . S
C802 N801 1.376 . S
C802 C803 1.446 . S
C802 C832 1.391 . S
C803 C802 1.446 . S
C803 C804 1.339 . S
C803 H838 0.949 . S
C804 C803 1.339 . S
C804 C805 1.439 . S
C804 H839 0.950 . S
C805 N801 1.383 . S
C805 C804 1.439 . S
C805 C834 1.392 . S
N806 Co800 2.008 . S
N806 C807 1.376 . S
N806 C810 1.374 . S
C807 N806 1.376 . S
C807 C808 1.443 . S
C807 C834 1.389 . S
C808 C807 1.443 . S
C808 C809 1.340 . S
C808 H840 0.951 . S
C809 C808 1.340 . S
C809 C810 1.439 . S
C809 H841 0.950 . S
C810 N806 1.374 . S
C810 C809 1.439 . S
C810 C835 1.395 . S
N811 Co800 1.995 . S
N811 C812 1.376 . S
N811 C815 1.383 . S
C812 N811 1.376 . S
C812 C813 1.446 . S
C812 C835 1.391 . S
C813 C812 1.446 . S
C813 C814 1.339 . S
C813 H842 0.949 . S
C814 C813 1.339 . S
C814 C815 1.439 . S
C814 H843 0.950 . S
C815 N811 1.383 . S
C815 C814 1.439 . S
C815 C833 1.392 . S
N816 Co800 2.282 . S
N816 C819 1.332 . S
N816 C821 1.332 . S
C817 C818 1.386 . S
C817 C820 1.388 . S
C818 C817 1.386 . S
C818 C819 1.382 . S
C818 H844 0.950 . S
C819 N816 1.332 . S
C819 C818 1.382 . S
C819 H830 0.952 . S
C820 C817 1.388 . S
C820 C821 1.382 . S
C820 H845 0.950 . S
C821 N816 1.332 . S
C821 C820 1.382 . S
C821 H831 0.948 . S
N822 Co800 2.282 . S
N822 C826 1.332 . S
N822 C827 1.332 . S
C823 C824 1.388 . S
C823 C827 1.382 . S
C823 H846 0.950 . S
C824 C823 1.388 . S
C824 C825 1.386 . S
C825 C824 1.386 . S
C825 C826 1.382 . S
C825 H847 0.950 . S
C826 N822 1.332 . S
C826 C825 1.382 . S
C826 H828 0.952 . S
C827 N822 1.332 . S
C827 C823 1.382 . S
C827 H829 0.948 . S
H828 C826 0.952 . S
H829 C827 0.948 . S
H830 C819 0.952 . S
H831 C821 0.948 . S
C832 C798 1.395 . S
C832 C802 1.391 . S
C833 C795 1.389 . S
C833 C815 1.392 . S
C834 C805 1.392 . S
C834 C807 1.389 . S
C835 C810 1.395 . S
C835 C812 1.391 . S
H836 C796 0.951 . S
H837 C797 0.950 . S
H838 C803 0.949 . S
H839 C804 0.950 . S
H840 C808 0.951 . S
H841 C809 0.950 . S
H842 C813 0.949 . S
H843 C814 0.950 . S
H844 C818 0.950 . S
H845 C820 0.950 . S
H846 C823 0.950 . S
H847 C825 0.950 . S
H848 C854 0.930 . S
H849 C858 0.930 . S
H850 C863 0.929 . S
H851 C861 0.929 . S
H852 C856 0.929 . S
H853 C862 0.929 . S
C854 H848 0.930 . S
C854 C855 1.367 . S
C854 C862 1.378 . S
C855 C854 1.367 . S
C855 C863 1.433 . S
C856 H852 0.929 . S
C856 C858 1.378 . S
C856 C860 1.350 . S
C857 C860 1.463 . S
C857 C862 1.350 . S
C857 N865 1.427 . S
C858 H849 0.930 . S
C858 C856 1.378 . S
C858 C859 1.367 . S
C859 C858 1.367 . S
C859 C861 1.433 . S
C860 C856 1.350 . S
C860 C857 1.463 . S
C860 N864 1.427 . S
C861 H851 0.929 . S
C861 C859 1.433 . S
C861 N864 1.384 . S
C862 H853 0.929 . S
C862 C854 1.378 . S
C862 C857 1.350 . S
C863 H850 0.929 . S
C863 C855 1.433 . S
C863 N865 1.384 . S
N864 C860 1.427 . S
N864 C861 1.384 . S
N865 C857 1.427 . S
N865 C863 1.384 . S
H866 C872 0.930 . S
H867 C876 0.930 . S
H868 C881 0.929 . S
H869 C879 0.929 . S
H870 C874 0.929 . S
H871 C880 0.929 . S
C872 H866 0.930 . S
C872 C873 1.367 . S
C872 C880 1.378 . S
C873 C872 1.367 . S
C873 C881 1.433 . S
C874 H870 0.929 . S
C874 C876 1.378 . S
C874 C878 1.350 . S
C875 C878 1.463 . S
C875 C880 1.350 . S
C875 N883 1.427 . S
C876 H867 0.930 . S
C876 C874 1.378 . S
C876 C877 1.367 . S
C877 C876 1.367 . S
C877 C879 1.433 . S
C878 C874 1.350 . S
C878 C875 1.463 . S
C878 N882 1.427 . S
C879 H869 0.929 . S
C879 C877 1.433 . S
C879 N882 1.384 . S
C880 H871 0.929 . S
C880 C872 1.378 . S
C880 C875 1.350 . S
C881 H868 0.929 . S
C881 C873 1.433 . S
C881 N883 1.384 . S
N882 C878 1.427 . S
N882 C879 1.384 . S
N883 C875 1.427 . S
N883 C881 1.384 . S
H884 C890 0.930 . S
H885 C894 0.930 1_554 S
H886 C899 0.929 . S
H887 C897 0.929 . S
H888 C892 0.929 . S
H889 C898 0.929 . S
C890 H884 0.930 . S
C890 C891 1.367 . S
C890 C898 1.378 . S
C891 C890 1.367 . S
C891 C899 1.433 . S
C892 H888 0.929 . S
C892 C894 1.378 . S
C892 C896 1.350 . S
C893 C896 1.463 . S
C893 C898 1.350 . S
C893 N901 1.427 . S
C894 H885 0.930 1_556 S
C894 C892 1.378 . S
C894 C895 1.367 . S
C895 C894 1.367 . S
C895 C897 1.433 . S
C896 C892 1.350 . S
C896 C893 1.463 . S
C896 N900 1.427 . S
C897 H887 0.929 . S
C897 C895 1.433 . S
C897 N900 1.384 . S
C898 H889 0.929 . S
C898 C890 1.378 . S
C898 C893 1.350 . S
C899 H886 0.929 . S
C899 C891 1.433 . S
C899 N901 1.384 . S
N900 C896 1.427 . S
N900 C897 1.384 . S
N901 C893 1.427 . S
N901 C899 1.384 . S
H902 C908 0.930 . S
H903 C912 0.930 . S
H904 C917 0.929 . S
H905 C915 0.929 . S
H906 C910 0.929 . S
H907 C916 0.929 . S
C908 H902 0.930 . S
C908 C909 1.367 . S
C908 C916 1.378 . S
C909 C908 1.367 . S
C909 C917 1.433 . S
C910 H906 0.929 . S
C910 C912 1.378 . S
C910 C914 1.350 . S
C911 C914 1.463 . S
C911 C916 1.350 . S
C911 N919 1.427 . S
C912 H903 0.930 . S
C912 C910 1.378 . S
C912 C913 1.367 . S
C913 C912 1.367 . S
C913 C915 1.433 . S
C914 C910 1.350 . S
C914 C911 1.463 . S
C914 N918 1.427 . S
C915 H905 0.929 . S
C915 C913 1.433 . S
C915 N918 1.384 . S
C916 H907 0.929 . S
C916 C908 1.378 . S
C916 C911 1.350 . S
C917 H904 0.929 . S
C917 C909 1.433 . S
C917 N919 1.384 . S
N918 C914 1.427 . S
N918 C915 1.384 . S
N919 C911 1.427 . S
N919 C917 1.384 . S
H920 C926 0.930 . S
H921 C930 0.930 . S
H922 C935 0.929 . S
H923 C933 0.929 . S
H924 C928 0.929 . S
H925 C934 0.929 . S
C926 H920 0.930 . S
C926 C927 1.367 . S
C926 C934 1.378 . S
C927 C926 1.367 . S
C927 C935 1.433 . S
C928 H924 0.929 . S
C928 C930 1.378 . S
C928 C932 1.350 . S
C929 C932 1.463 . S
C929 C934 1.350 . S
C929 N937 1.427 . S
C930 H921 0.930 . S
C930 C928 1.378 . S
C930 C931 1.367 . S
C931 C930 1.367 . S
C931 C933 1.433 . S
C932 C928 1.350 . S
C932 C929 1.463 . S
C932 N936 1.427 . S
C933 H923 0.929 . S
C933 C931 1.433 . S
C933 N936 1.384 . S
C934 H925 0.929 . S
C934 C926 1.378 . S
C934 C929 1.350 . S
C935 H922 0.929 . S
C935 C927 1.433 . S
C935 N937 1.384 . S
N936 C932 1.427 . S
N936 C933 1.384 . S
N937 C929 1.427 . S
N937 C935 1.384 . S
H938 C944 0.930 . S
H939 C948 0.930 . S
H940 C953 0.929 . S
H941 C951 0.929 . S
H942 C946 0.929 . S
H943 C952 0.929 . S
C944 H938 0.930 . S
C944 C945 1.367 . S
C944 C952 1.378 . S
C945 C944 1.367 . S
C945 C953 1.433 . S
C946 H942 0.929 . S
C946 C948 1.378 . S
C946 C950 1.350 . S
C947 C950 1.463 . S
C947 C952 1.350 . S
C947 N955 1.427 . S
C948 H939 0.930 . S
C948 C946 1.378 . S
C948 C949 1.367 . S
C949 C948 1.367 . S
C949 C951 1.433 . S
C950 C946 1.350 . S
C950 C947 1.463 . S
C950 N954 1.427 . S
C951 H941 0.929 . S
C951 C949 1.433 . S
C951 N954 1.384 . S
C952 H943 0.929 . S
C952 C944 1.378 . S
C952 C947 1.350 . S
C953 H940 0.929 . S
C953 C945 1.433 . S
C953 N955 1.384 . S
N954 C950 1.427 . S
N954 C951 1.384 . S
N955 C947 1.427 . S
N955 C953 1.384 . S
H956 C962 0.930 . S
H957 C966 0.930 . S
H958 C971 0.929 . S
H959 C969 0.929 . S
H960 C964 0.929 . S
H961 C970 0.929 . S
C962 H956 0.930 . S
C962 C963 1.367 . S
C962 C970 1.378 . S
C963 C962 1.367 . S
C963 C971 1.433 . S
C964 H960 0.929 . S
C964 C966 1.378 . S
C964 C968 1.350 . S
C965 C968 1.463 . S
C965 C970 1.350 . S
C965 N973 1.427 . S
C966 H957 0.930 . S
C966 C964 1.378 . S
C966 C967 1.367 . S
C967 C966 1.367 . S
C967 C969 1.433 . S
C968 C964 1.350 . S
C968 C965 1.463 . S
C968 N972 1.427 . S
C969 H959 0.929 . S
C969 C967 1.433 . S
C969 N972 1.384 . S
C970 H961 0.929 . S
C970 C962 1.378 . S
C970 C965 1.350 . S
C971 H958 0.929 . S
C971 C963 1.433 . S
C971 N973 1.384 . S
N972 C968 1.427 . S
N972 C969 1.384 . S
N973 C965 1.427 . S
N973 C971 1.384 . S
H974 C980 0.930 . S
H975 C984 0.930 . S
H976 C989 0.929 . S
H977 C987 0.929 . S
H978 C982 0.929 . S
H979 C988 0.929 . S
C980 H974 0.930 . S
C980 C981 1.367 . S
C980 C988 1.378 . S
C981 C980 1.367 . S
C981 C989 1.433 . S
C982 H978 0.929 . S
C982 C984 1.378 . S
C982 C986 1.350 . S
C983 C986 1.463 . S
C983 C988 1.350 . S
C983 N991 1.427 . S
C984 H975 0.930 . S
C984 C982 1.378 . S
C984 C985 1.367 . S
C985 C984 1.367 . S
C985 C987 1.433 . S
C986 C982 1.350 . S
C986 C983 1.463 . S
C986 N990 1.427 . S
C987 H977 0.929 . S
C987 C985 1.433 . S
C987 N990 1.384 . S
C988 H979 0.929 . S
C988 C980 1.378 . S
C988 C983 1.350 . S
C989 H976 0.929 . S
C989 C981 1.433 . S
C989 N991 1.384 . S
N990 C986 1.427 . S
N990 C987 1.384 . S
N991 C983 1.427 . S
N991 C989 1.384 . S
H992 C998 0.930 . S
H993 C1002 0.930 . S
H994 C1007 0.929 . S
H995 C1005 0.929 . S
H996 C1000 0.929 1_455 S
H997 C1006 0.929 1_655 S
C998 H992 0.930 . S
C998 C999 1.367 . S
C998 C1006 1.378 . S
C999 C998 1.367 . S
C999 C1007 1.433 . S
C1000 H996 0.929 1_655 S
C1000 C1002 1.378 . S
C1000 C1004 1.350 . S
C1001 C1004 1.463 1_445 S
C1001 C1006 1.350 . S
C1001 N1009 1.427 . S
C1002 H993 0.930 . S
C1002 C1000 1.378 . S
C1002 C1003 1.367 . S
C1003 C1002 1.367 . S
C1003 C1005 1.433 . S
C1004 C1000 1.350 . S
C1004 C1001 1.463 1_665 S
C1004 N1008 1.427 . S
C1005 H995 0.929 . S
C1005 C1003 1.433 . S
C1005 N1008 1.384 . S
C1006 H997 0.929 1_455 S
C1006 C998 1.378 . S
C1006 C1001 1.350 . S
C1007 H994 0.929 . S
C1007 C999 1.433 . S
C1007 N1009 1.384 . S
N1008 C1004 1.427 . S
N1008 C1005 1.384 . S
N1009 C1001 1.427 . S
N1009 C1007 1.384 . S
H1010 C1016 0.930 . S
H1011 C1020 0.930 . S
H1012 C1025 0.929 . S
H1013 C1023 0.929 . S
H1014 C1018 0.929 . S
H1015 C1024 0.929 . S
C1016 H1010 0.930 . S
C1016 C1017 1.367 . S
C1016 C1024 1.378 . S
C1017 C1016 1.367 . S
C1017 C1025 1.433 . S
C1018 H1014 0.929 . S
C1018 C1020 1.378 . S
C1018 C1022 1.350 . S
C1019 C1022 1.463 1_655 S
C1019 C1024 1.350 . S
C1019 N1027 1.427 . S
C1020 H1011 0.930 . S
C1020 C1018 1.378 . S
C1020 C1021 1.367 . S
C1021 C1020 1.367 . S
C1021 C1023 1.433 . S
C1022 C1018 1.350 . S
C1022 C1019 1.463 1_455 S
C1022 N1026 1.427 . S
C1023 H1013 0.929 . S
C1023 C1021 1.433 . S
C1023 N1026 1.384 . S
C1024 H1015 0.929 . S
C1024 C1016 1.378 . S
C1024 C1019 1.350 . S
C1025 H1012 0.929 . S
C1025 C1017 1.433 . S
C1025 N1027 1.384 . S
N1026 C1022 1.427 . S
N1026 C1023 1.384 . S
N1027 C1019 1.427 . S
N1027 C1025 1.384 . S
H1028 C1034 0.930 . S
H1029 C1038 0.930 . S
H1030 C1043 0.929 . S
H1031 C1041 0.929 . S
H1032 C1036 0.929 . S
H1033 C1042 0.929 . S
C1034 H1028 0.930 . S
C1034 C1035 1.367 . S
C1034 C1042 1.378 . S
C1035 C1034 1.367 . S
C1035 C1043 1.433 . S
C1036 H1032 0.929 . S
C1036 C1038 1.378 . S
C1036 C1040 1.350 . S
C1037 C1040 1.463 . S
C1037 C1042 1.350 . S
C1037 N1045 1.427 . S
C1038 H1029 0.930 . S
C1038 C1036 1.378 . S
C1038 C1039 1.367 . S
C1039 C1038 1.367 . S
C1039 C1041 1.433 . S
C1040 C1036 1.350 . S
C1040 C1037 1.463 . S
C1040 N1044 1.427 . S
C1041 H1031 0.929 . S
C1041 C1039 1.433 . S
C1041 N1044 1.384 . S
C1042 H1033 0.929 . S
C1042 C1034 1.378 . S
C1042 C1037 1.350 . S
C1043 H1030 0.929 . S
C1043 C1035 1.433 . S
C1043 N1045 1.384 . S
N1044 C1040 1.427 . S
N1044 C1041 1.384 . S
N1045 C1037 1.427 . S
N1045 C1043 1.384 . S
H1046 C1052 0.930 . S
H1047 C1056 0.930 . S
H1048 C1061 0.929 . S
H1049 C1059 0.929 . S
H1050 C1054 0.929 1_565 S
H1051 C1060 0.929 1_545 S
C1052 H1046 0.930 . S
C1052 C1053 1.372 . S
C1052 C1060 1.378 . S
C1053 C1052 1.372 . S
C1053 C1061 1.428 1_556 S
C1054 H1050 0.929 1_545 S
C1054 C1056 1.378 . S
C1054 C1058 1.356 . S
C1055 C1058 1.462 1_566 S
C1055 C1060 1.358 . S
C1055 N1063 1.419 1_556 S
C1056 H1047 0.930 . S
C1056 C1054 1.378 . S
C1056 C1057 1.370 . S
C1057 C1056 1.370 . S
C1057 C1059 1.430 1_554 S
C1058 C1054 1.356 . S
C1058 C1055 1.462 1_544 S
C1058 N1062 1.422 1_554 S
C1059 H1049 0.929 . S
C1059 C1057 1.430 1_556 S
C1059 N1062 1.384 . S
C1060 H1051 0.929 1_565 S
C1060 C1052 1.378 . S
C1060 C1055 1.358 . S
C1061 H1048 0.929 . S
C1061 C1053 1.428 1_554 S
C1061 N1063 1.384 . S
N1062 C1058 1.422 1_556 S
N1062 C1059 1.384 . S
N1063 C1055 1.419 1_554 S
N1063 C1061 1.384 . S
H1064 C1070 0.930 1_556 S
H1065 C1074 0.930 . S
H1066 C1079 0.929 . S
H1067 C1077 0.929 1_556 S
H1068 C1072 0.929 . S
H1069 C1078 0.929 1_556 S
C1070 H1064 0.930 1_554 S
C1070 C1071 1.367 . S
C1070 C1078 1.378 . S
C1071 C1070 1.367 . S
C1071 C1079 1.433 . S
C1072 H1068 0.929 . S
C1072 C1074 1.378 . S
C1072 C1076 1.350 . S
C1073 C1076 1.463 1_455 S
C1073 C1078 1.350 . S
C1073 N1081 1.427 . S
C1074 H1065 0.930 . S
C1074 C1072 1.378 . S
C1074 C1075 1.367 . S
C1075 C1074 1.367 . S
C1075 C1077 1.433 . S
C1076 C1072 1.350 . S
C1076 C1073 1.463 1_655 S
C1076 N1080 1.427 . S
C1077 H1067 0.929 1_554 S
C1077 C1075 1.433 . S
C1077 N1080 1.384 . S
C1078 H1069 0.929 1_554 S
C1078 C1070 1.378 . S
C1078 C1073 1.350 . S
C1079 H1066 0.929 . S
C1079 C1071 1.433 . S
C1079 N1081 1.384 . S
N1080 C1076 1.427 . S
N1080 C1077 1.384 . S
N1081 C1073 1.427 . S
N1081 C1079 1.384 . S
H1082 C1088 0.930 . S
H1083 C1092 0.930 . S
H1084 C1097 0.929 . S
H1085 C1095 0.929 . S
H1086 C1090 0.929 . S
H1087 C1096 0.929 . S
C1088 H1082 0.930 . S
C1088 C1089 1.367 . S
C1088 C1096 1.378 . S
C1089 C1088 1.367 . S
C1089 C1097 1.433 . S
C1090 H1086 0.929 . S
C1090 C1092 1.378 . S
C1090 C1094 1.350 . S
C1091 C1094 1.463 . S
C1091 C1096 1.350 . S
C1091 N1099 1.427 . S
C1092 H1083 0.930 . S
C1092 C1090 1.378 . S
C1092 C1093 1.367 . S
C1093 C1092 1.367 . S
C1093 C1095 1.433 . S
C1094 C1090 1.350 . S
C1094 C1091 1.463 . S
C1094 N1098 1.427 . S
C1095 H1085 0.929 . S
C1095 C1093 1.433 . S
C1095 N1098 1.384 . S
C1096 H1087 0.929 . S
C1096 C1088 1.378 . S
C1096 C1091 1.350 . S
C1097 H1084 0.929 . S
C1097 C1089 1.433 . S
C1097 N1099 1.384 . S
N1098 C1094 1.427 . S
N1098 C1095 1.384 . S
N1099 C1091 1.427 . S
N1099 C1097 1.384 . S
H1100 C1106 0.930 . S
H1101 C1110 0.930 . S
H1102 C1115 0.929 . S
H1103 C1113 0.929 . S
H1104 C1108 0.929 . S
H1105 C1114 0.929 . S
C1106 H1100 0.930 . S
C1106 C1107 1.367 . S
C1106 C1114 1.378 . S
C1107 C1106 1.367 . S
C1107 C1115 1.433 . S
C1108 H1104 0.929 . S
C1108 C1110 1.378 . S
C1108 C1112 1.350 . S
C1109 C1112 1.463 1_545 S
C1109 C1114 1.350 . S
C1109 N1117 1.427 . S
C1110 H1101 0.930 . S
C1110 C1108 1.378 . S
C1110 C1111 1.367 . S
C1111 C1110 1.367 . S
C1111 C1113 1.433 . S
C1112 C1108 1.350 . S
C1112 C1109 1.463 1_565 S
C1112 N1116 1.427 . S
C1113 H1103 0.929 . S
C1113 C1111 1.433 . S
C1113 N1116 1.384 . S
C1114 H1105 0.929 . S
C1114 C1106 1.378 . S
C1114 C1109 1.350 . S
C1115 H1102 0.929 . S
C1115 C1107 1.433 . S
C1115 N1117 1.384 . S
N1116 C1112 1.427 . S
N1116 C1113 1.384 . S
N1117 C1109 1.427 . S
N1117 C1115 1.384 . S
H1118 C1124 0.930 . S
H1119 C1128 0.930 . S
H1120 C1133 0.929 . S
H1121 C1131 0.929 . S
H1122 C1126 0.906 1_455 S
H1123 C1132 0.906 1_655 S
C1124 H1118 0.930 . S
C1124 C1125 1.367 . S
C1124 C1132 1.378 . S
C1125 C1124 1.367 . S
C1125 C1133 1.433 . S
C1126 H1122 0.906 1_655 S
C1126 C1128 1.378 . S
C1126 C1130 1.350 . S
C1127 C1130 1.463 1_445 S
C1127 C1132 1.350 . S
C1127 N1135 1.427 . S
C1128 H1119 0.930 . S
C1128 C1126 1.378 . S
C1128 C1129 1.367 . S
C1129 C1128 1.367 . S
C1129 C1131 1.433 . S
C1130 C1126 1.350 . S
C1130 C1127 1.463 1_665 S
C1130 N1134 1.427 . S
C1131 H1121 0.929 . S
C1131 C1129 1.433 . S
C1131 N1134 1.384 . S
C1132 H1123 0.906 1_455 S
C1132 C1124 1.378 . S
C1132 C1127 1.350 . S
C1133 H1120 0.929 . S
C1133 C1125 1.433 . S
C1133 N1135 1.384 . S
N1134 C1130 1.427 . S
N1134 C1131 1.384 . S
N1135 C1127 1.427 . S
N1135 C1133 1.384 . S
H1136 C1142 0.930 . S
H1137 C1146 0.930 . S
H1138 C1151 0.929 . S
H1139 C1149 0.929 . S
H1140 C1144 0.929 . S
H1141 C1150 0.929 . S
C1142 H1136 0.930 . S
C1142 C1143 1.367 . S
C1142 C1150 1.378 . S
C1143 C1142 1.367 . S
C1143 C1151 1.433 . S
C1144 H1140 0.929 . S
C1144 C1146 1.378 . S
C1144 C1148 1.350 . S
C1145 C1148 1.463 . S
C1145 C1150 1.350 . S
C1145 N1153 1.427 . S
C1146 H1137 0.930 . S
C1146 C1144 1.378 . S
C1146 C1147 1.367 . S
C1147 C1146 1.367 . S
C1147 C1149 1.433 . S
C1148 C1144 1.350 . S
C1148 C1145 1.463 . S
C1148 N1152 1.427 . S
C1149 H1139 0.929 . S
C1149 C1147 1.433 . S
C1149 N1152 1.384 . S
C1150 H1141 0.929 . S
C1150 C1142 1.378 . S
C1150 C1145 1.350 . S
C1151 H1138 0.929 . S
C1151 C1143 1.433 . S
C1151 N1153 1.384 . S
N1152 C1148 1.427 . S
N1152 C1149 1.384 . S
N1153 C1145 1.427 . S
N1153 C1151 1.384 . S
H1154 C1160 0.930 . S
H1155 C1164 0.930 . S
H1156 C1169 0.929 . S
H1157 C1167 0.929 . S
H1158 C1162 0.929 . S
H1159 C1168 0.929 . S
C1160 H1154 0.930 . S
C1160 C1161 1.367 . S
C1160 C1168 1.378 . S
C1161 C1160 1.367 . S
C1161 C1169 1.433 . S
C1162 H1158 0.929 . S
C1162 C1164 1.378 . S
C1162 C1166 1.350 . S
C1163 C1166 1.463 . S
C1163 C1168 1.350 . S
C1163 N1171 1.427 . S
C1164 H1155 0.930 . S
C1164 C1162 1.378 . S
C1164 C1165 1.367 . S
C1165 C1164 1.367 . S
C1165 C1167 1.433 . S
C1166 C1162 1.350 . S
C1166 C1163 1.463 . S
C1166 N1170 1.427 . S
C1167 H1157 0.929 . S
C1167 C1165 1.433 . S
C1167 N1170 1.384 . S
C1168 H1159 0.929 . S
C1168 C1160 1.378 . S
C1168 C1163 1.350 . S
C1169 H1156 0.929 . S
C1169 C1161 1.433 . S
C1169 N1171 1.384 . S
N1170 C1166 1.427 . S
N1170 C1167 1.384 . S
N1171 C1163 1.427 . S
N1171 C1169 1.384 . S
H1172 C1178 0.930 . S
H1173 C1182 0.930 . S
H1174 C1187 0.929 . S
H1175 C1185 0.929 . S
H1176 C1180 0.929 . S
H1177 C1186 0.929 . S
C1178 H1172 0.930 . S
C1178 C1179 1.367 . S
C1178 C1186 1.378 . S
C1179 C1178 1.367 . S
C1179 C1187 1.433 . S
C1180 H1176 0.929 . S
C1180 C1182 1.378 1_554 S
C1180 C1184 1.350 . S
C1181 C1184 1.463 . S
C1181 C1186 1.350 . S
C1181 N1189 1.427 . S
C1182 H1173 0.930 . S
C1182 C1180 1.378 1_556 S
C1182 C1183 1.367 . S
C1183 C1182 1.367 . S
C1183 C1185 1.433 . S
C1184 C1180 1.350 . S
C1184 C1181 1.463 . S
C1184 N1188 1.427 . S
C1185 H1175 0.929 . S
C1185 C1183 1.433 . S
C1185 N1188 1.384 1_556 S
C1186 H1177 0.929 . S
C1186 C1178 1.378 . S
C1186 C1181 1.350 . S
C1187 H1174 0.929 . S
C1187 C1179 1.433 . S
C1187 N1189 1.384 . S
N1188 C1184 1.427 . S
N1188 C1185 1.384 1_554 S
N1189 C1181 1.427 . S
N1189 C1187 1.384 . S
H1190 C1196 0.930 . S
H1191 C1200 0.930 . S
H1192 C1205 0.929 . S
H1193 C1203 0.929 . S
H1194 C1198 0.929 . S
H1195 C1204 0.929 . S
C1196 H1190 0.930 . S
C1196 C1197 1.367 . S
C1196 C1204 1.378 . S
C1197 C1196 1.367 . S
C1197 C1205 1.433 . S
C1198 H1194 0.929 . S
C1198 C1200 1.378 . S
C1198 C1202 1.350 . S
C1199 C1202 1.463 . S
C1199 C1204 1.350 . S
C1199 N1207 1.427 . S
C1200 H1191 0.930 . S
C1200 C1198 1.378 . S
C1200 C1201 1.367 . S
C1201 C1200 1.367 . S
C1201 C1203 1.433 . S
C1202 C1198 1.350 . S
C1202 C1199 1.463 . S
C1202 N1206 1.427 . S
C1203 H1193 0.929 . S
C1203 C1201 1.433 . S
C1203 N1206 1.384 . S
C1204 H1195 0.929 . S
C1204 C1196 1.378 . S
C1204 C1199 1.350 . S
C1205 H1192 0.929 . S
C1205 C1197 1.433 . S
C1205 N1207 1.384 . S
N1206 C1202 1.427 . S
N1206 C1203 1.384 . S
N1207 C1199 1.427 . S
N1207 C1205 1.384 . S
H1208 C1214 0.930 . S
H1209 C1218 0.930 . S
H1210 C1223 0.929 . S
H1211 C1221 0.929 . S
H1212 C1216 0.929 . S
H1213 C1222 0.929 . S
C1214 H1208 0.930 . S
C1214 C1215 1.367 . S
C1214 C1222 1.378 . S
C1215 C1214 1.367 . S
C1215 C1223 1.433 . S
C1216 H1212 0.929 . S
C1216 C1218 1.378 . S
C1216 C1220 1.350 . S
C1217 C1220 1.463 . S
C1217 C1222 1.350 . S
C1217 N1225 1.427 . S
C1218 H1209 0.930 . S
C1218 C1216 1.378 . S
C1218 C1219 1.367 . S
C1219 C1218 1.367 . S
C1219 C1221 1.433 . S
C1220 C1216 1.350 . S
C1220 C1217 1.463 . S
C1220 N1224 1.427 . S
C1221 H1211 0.929 . S
C1221 C1219 1.433 . S
C1221 N1224 1.384 . S
C1222 H1213 0.929 . S
C1222 C1214 1.378 . S
C1222 C1217 1.350 . S
C1223 H1210 0.929 . S
C1223 C1215 1.433 . S
C1223 N1225 1.384 . S
N1224 C1220 1.427 . S
N1224 C1221 1.384 . S
N1225 C1217 1.427 . S
N1225 C1223 1.384 . S
H1226 C1232 0.930 . S
H1227 C1236 0.930 . S
H1228 C1241 0.929 . S
H1229 C1239 0.929 1_556 S
H1230 C1234 0.929 . S
H1231 C1240 0.929 . S
C1232 H1226 0.930 . S
C1232 C1233 1.367 . S
C1232 C1240 1.378 . S
C1233 C1232 1.367 . S
C1233 C1241 1.433 . S
C1234 H1230 0.929 . S
C1234 C1236 1.378 1_554 S
C1234 C1238 1.350 . S
C1235 C1238 1.463 . S
C1235 C1240 1.350 . S
C1235 N1243 1.427 . S
C1236 H1227 0.930 . S
C1236 C1234 1.378 1_556 S
C1236 C1237 1.367 . S
C1237 C1236 1.367 . S
C1237 C1239 1.433 1_556 S
C1238 C1234 1.350 . S
C1238 C1235 1.463 . S
C1238 N1242 1.427 . S
C1239 H1229 0.929 1_554 S
C1239 C1237 1.433 1_554 S
C1239 N1242 1.384 . S
C1240 H1231 0.929 . S
C1240 C1232 1.378 . S
C1240 C1235 1.350 . S
C1241 H1228 0.929 . S
C1241 C1233 1.433 . S
C1241 N1243 1.384 . S
N1242 C1238 1.427 . S
N1242 C1239 1.384 . S
N1243 C1235 1.427 . S
N1243 C1241 1.384 . S
H1244 C1250 0.930 . S
H1245 C1254 0.930 . S
H1246 C1259 0.929 . S
H1247 C1257 0.929 . S
H1248 C1252 0.929 . S
H1249 C1258 0.929 . S
C1250 H1244 0.930 . S
C1250 C1251 1.367 . S
C1250 C1258 1.378 . S
C1251 C1250 1.367 . S
C1251 C1259 1.433 . S
C1252 H1248 0.929 . S
C1252 C1254 1.378 . S
C1252 C1256 1.350 . S
C1253 C1256 1.463 . S
C1253 C1258 1.350 . S
C1253 N1261 1.427 . S
C1254 H1245 0.930 . S
C1254 C1252 1.378 . S
C1254 C1255 1.367 . S
C1255 C1254 1.367 . S
C1255 C1257 1.433 . S
C1256 C1252 1.350 . S
C1256 C1253 1.463 . S
C1256 N1260 1.427 . S
C1257 H1247 0.929 . S
C1257 C1255 1.433 . S
C1257 N1260 1.384 . S
C1258 H1249 0.929 . S
C1258 C1250 1.378 . S
C1258 C1253 1.350 . S
C1259 H1246 0.929 . S
C1259 C1251 1.433 . S
C1259 N1261 1.384 . S
N1260 C1256 1.427 . S
N1260 C1257 1.384 . S
N1261 C1253 1.427 . S
N1261 C1259 1.384 . S
H1262 C1268 0.930 . S
H1263 C1272 0.930 . S
H1264 C1277 0.929 . S
H1265 C1275 0.929 . S
H1266 C1270 0.929 . S
H1267 C1276 0.929 . S
C1268 H1262 0.930 . S
C1268 C1269 1.367 . S
C1268 C1276 1.378 . S
C1269 C1268 1.367 . S
C1269 C1277 1.433 . S
C1270 H1266 0.929 . S
C1270 C1272 1.378 . S
C1270 C1274 1.350 . S
C1271 C1274 1.463 . S
C1271 C1276 1.350 . S
C1271 N1279 1.427 . S
C1272 H1263 0.930 . S
C1272 C1270 1.378 . S
C1272 C1273 1.367 . S
C1273 C1272 1.367 . S
C1273 C1275 1.433 . S
C1274 C1270 1.350 . S
C1274 C1271 1.463 . S
C1274 N1278 1.427 . S
C1275 H1265 0.929 . S
C1275 C1273 1.433 . S
C1275 N1278 1.384 . S
C1276 H1267 0.929 . S
C1276 C1268 1.378 . S
C1276 C1271 1.350 . S
C1277 H1264 0.929 . S
C1277 C1269 1.433 . S
C1277 N1279 1.384 . S
N1278 C1274 1.427 . S
N1278 C1275 1.384 . S
N1279 C1271 1.427 . S
N1279 C1277 1.384 . S
H1280 C1286 0.930 . S
H1281 C1290 0.930 . S
H1282 C1295 0.929 . S
H1283 C1293 0.929 . S
H1284 C1288 0.929 . S
H1285 C1294 0.929 1_554 S
C1286 H1280 0.930 . S
C1286 C1287 1.367 . S
C1286 C1294 1.378 . S
C1287 C1286 1.367 . S
C1287 C1295 1.433 . S
C1288 H1284 0.929 . S
C1288 C1290 1.378 . S
C1288 C1292 1.350 . S
C1289 C1292 1.463 . S
C1289 C1294 1.350 1_554 S
C1289 N1297 1.427 1_554 S
C1290 H1281 0.930 . S
C1290 C1288 1.378 . S
C1290 C1291 1.367 . S
C1291 C1290 1.367 . S
C1291 C1293 1.433 . S
C1292 C1288 1.350 . S
C1292 C1289 1.463 . S
C1292 N1296 1.427 . S
C1293 H1283 0.929 . S
C1293 C1291 1.433 . S
C1293 N1296 1.384 . S
C1294 H1285 0.929 1_556 S
C1294 C1286 1.378 . S
C1294 C1289 1.350 1_556 S
C1295 H1282 0.929 . S
C1295 C1287 1.433 . S
C1295 N1297 1.384 . S
N1296 C1292 1.427 . S
N1296 C1293 1.384 . S
N1297 C1289 1.427 1_556 S
N1297 C1295 1.384 . S
H1298 C1304 0.930 . S
H1299 C1308 0.930 . S
H1300 C1313 0.929 . S
H1301 C1311 0.929 . S
H1302 C1306 0.929 . S
H1303 C1312 0.929 . S
C1304 H1298 0.930 . S
C1304 C1305 1.367 . S
C1304 C1312 1.378 . S
C1305 C1304 1.367 . S
C1305 C1313 1.433 . S
C1306 H1302 0.929 . S
C1306 C1308 1.378 . S
C1306 C1310 1.350 . S
C1307 C1310 1.463 . S
C1307 C1312 1.350 . S
C1307 N1315 1.427 . S
C1308 H1299 0.930 . S
C1308 C1306 1.378 . S
C1308 C1309 1.367 . S
C1309 C1308 1.367 . S
C1309 C1311 1.433 . S
C1310 C1306 1.350 . S
C1310 C1307 1.463 . S
C1310 N1314 1.427 . S
C1311 H1301 0.929 . S
C1311 C1309 1.433 . S
C1311 N1314 1.384 . S
C1312 H1303 0.929 . S
C1312 C1304 1.378 . S
C1312 C1307 1.350 . S
C1313 H1300 0.929 . S
C1313 C1305 1.433 . S
C1313 N1315 1.384 . S
N1314 C1310 1.427 . S
N1314 C1311 1.384 . S
N1315 C1307 1.427 . S
N1315 C1313 1.384 . S
H1316 C1322 0.930 . S
H1317 C1326 0.930 . S
H1318 C1331 0.929 . S
H1319 C1329 0.929 . S
H1320 C1324 0.929 . S
H1321 C1330 0.929 . S
C1322 H1316 0.930 . S
C1322 C1323 1.367 . S
C1322 C1330 1.378 . S
C1323 C1322 1.367 . S
C1323 C1331 1.433 . S
C1324 H1320 0.929 . S
C1324 C1326 1.378 . S
C1324 C1328 1.350 . S
C1325 C1328 1.463 . S
C1325 C1330 1.350 . S
C1325 N1333 1.427 . S
C1326 H1317 0.930 . S
C1326 C1324 1.378 . S
C1326 C1327 1.367 . S
C1327 C1326 1.367 . S
C1327 C1329 1.433 . S
C1328 C1324 1.350 . S
C1328 C1325 1.463 . S
C1328 N1332 1.427 . S
C1329 H1319 0.929 . S
C1329 C1327 1.433 . S
C1329 N1332 1.384 . S
C1330 H1321 0.929 . S
C1330 C1322 1.378 . S
C1330 C1325 1.350 . S
C1331 H1318 0.929 . S
C1331 C1323 1.433 . S
C1331 N1333 1.384 . S
N1332 C1328 1.427 . S
N1332 C1329 1.384 . S
N1333 C1325 1.427 . S
N1333 C1331 1.384 . S
H1334 C1340 0.930 . S
H1335 C1344 0.930 . S
H1336 C1349 0.929 . S
H1337 C1347 0.929 . S
H1338 C1342 0.929 . S
H1339 C1348 0.929 . S
C1340 H1334 0.930 . S
C1340 C1341 1.367 . S
C1340 C1348 1.378 . S
C1341 C1340 1.367 . S
C1341 C1349 1.433 . S
C1342 H1338 0.929 . S
C1342 C1344 1.378 . S
C1342 C1346 1.350 . S
C1343 C1346 1.463 . S
C1343 C1348 1.350 . S
C1343 N1351 1.427 . S
C1344 H1335 0.930 . S
C1344 C1342 1.378 . S
C1344 C1345 1.367 . S
C1345 C1344 1.367 . S
C1345 C1347 1.433 . S
C1346 C1342 1.350 . S
C1346 C1343 1.463 . S
C1346 N1350 1.427 . S
C1347 H1337 0.929 . S
C1347 C1345 1.433 . S
C1347 N1350 1.384 . S
C1348 H1339 0.929 . S
C1348 C1340 1.378 . S
C1348 C1343 1.350 . S
C1349 H1336 0.929 . S
C1349 C1341 1.433 . S
C1349 N1351 1.384 . S
N1350 C1346 1.427 . S
N1350 C1347 1.384 . S
N1351 C1343 1.427 . S
N1351 C1349 1.384 . S
H1352 C1358 0.930 . S
H1353 C1362 0.930 . S
H1354 C1367 0.929 . S
H1355 C1365 0.929 . S
H1356 C1360 0.929 . S
H1357 C1366 0.929 . S
C1358 H1352 0.930 . S
C1358 C1359 1.367 . S
C1358 C1366 1.378 . S
C1359 C1358 1.367 . S
C1359 C1367 1.433 . S
C1360 H1356 0.929 . S
C1360 C1362 1.378 . S
C1360 C1364 1.350 . S
C1361 C1364 1.463 . S
C1361 C1366 1.350 . S
C1361 N1369 1.427 . S
C1362 H1353 0.930 . S
C1362 C1360 1.378 . S
C1362 C1363 1.367 . S
C1363 C1362 1.367 . S
C1363 C1365 1.433 . S
C1364 C1360 1.350 . S
C1364 C1361 1.463 . S
C1364 N1368 1.427 . S
C1365 H1355 0.929 . S
C1365 C1363 1.433 . S
C1365 N1368 1.384 . S
C1366 H1357 0.929 . S
C1366 C1358 1.378 . S
C1366 C1361 1.350 . S
C1367 H1354 0.929 . S
C1367 C1359 1.433 . S
C1367 N1369 1.384 . S
N1368 C1364 1.427 . S
N1368 C1365 1.384 . S
N1369 C1361 1.427 . S
N1369 C1367 1.384 . S
H1370 C1376 0.930 . S
H1371 C1380 0.930 . S
H1372 C1385 0.929 . S
H1373 C1383 0.929 . S
H1374 C1378 0.929 . S
H1375 C1384 0.929 . S
C1376 H1370 0.930 . S
C1376 C1377 1.367 . S
C1376 C1384 1.378 . S
C1377 C1376 1.367 . S
C1377 C1385 1.433 . S
C1378 H1374 0.929 . S
C1378 C1380 1.378 . S
C1378 C1382 1.350 . S
C1379 C1382 1.463 . S
C1379 C1384 1.350 . S
C1379 N1387 1.427 . S
C1380 H1371 0.930 . S
C1380 C1378 1.378 . S
C1380 C1381 1.367 . S
C1381 C1380 1.367 . S
C1381 C1383 1.433 . S
C1382 C1378 1.350 . S
C1382 C1379 1.463 . S
C1382 N1386 1.427 . S
C1383 H1373 0.929 . S
C1383 C1381 1.433 . S
C1383 N1386 1.384 . S
C1384 H1375 0.929 . S
C1384 C1376 1.378 . S
C1384 C1379 1.350 . S
C1385 H1372 0.929 . S
C1385 C1377 1.433 . S
C1385 N1387 1.384 . S
N1386 C1382 1.427 . S
N1386 C1383 1.384 . S
N1387 C1379 1.427 . S
N1387 C1385 1.384 . S
H1388 C1394 0.930 . S
H1389 C1398 0.930 . S
H1390 C1403 0.929 . S
H1391 C1401 0.929 . S
H1392 C1396 0.929 . S
H1393 C1402 0.929 . S
C1394 H1388 0.930 . S
C1394 C1395 1.367 . S
C1394 C1402 1.378 . S
C1395 C1394 1.367 . S
C1395 C1403 1.433 . S
C1396 H1392 0.929 . S
C1396 C1398 1.378 . S
C1396 C1400 1.350 . S
C1397 C1400 1.463 . S
C1397 C1402 1.350 . S
C1397 N1405 1.427 . S
C1398 H1389 0.930 . S
C1398 C1396 1.378 . S
C1398 C1399 1.367 . S
C1399 C1398 1.367 . S
C1399 C1401 1.433 . S
C1400 C1396 1.350 . S
C1400 C1397 1.463 . S
C1400 N1404 1.427 . S
C1401 H1391 0.929 . S
C1401 C1399 1.433 . S
C1401 N1404 1.384 . S
C1402 H1393 0.929 . S
C1402 C1394 1.378 . S
C1402 C1397 1.350 . S
C1403 H1390 0.929 . S
C1403 C1395 1.433 . S
C1403 N1405 1.384 . S
N1404 C1400 1.427 . S
N1404 C1401 1.384 . S
N1405 C1397 1.427 . S
N1405 C1403 1.384 . S
H1406 C1412 0.930 . S
H1407 C1416 0.930 . S
H1408 C1421 0.929 . S
H1409 C1419 0.929 . S
H1410 C1414 0.929 . S
H1411 C1420 0.929 . S
C1412 H1406 0.930 . S
C1412 C1413 1.367 . S
C1412 C1420 1.378 . S
C1413 C1412 1.367 . S
C1413 C1421 1.433 . S
C1414 H1410 0.929 . S
C1414 C1416 1.378 . S
C1414 C1418 1.350 1_556 S
C1415 C1418 1.463 . S
C1415 C1420 1.350 . S
C1415 N1423 1.427 . S
C1416 H1407 0.930 . S
C1416 C1414 1.378 . S
C1416 C1417 1.367 . S
C1417 C1416 1.367 . S
C1417 C1419 1.433 . S
C1418 C1414 1.350 1_554 S
C1418 C1415 1.463 . S
C1418 N1422 1.427 1_554 S
C1419 H1409 0.929 . S
C1419 C1417 1.433 . S
C1419 N1422 1.384 . S
C1420 H1411 0.929 . S
C1420 C1412 1.378 . S
C1420 C1415 1.350 . S
C1421 H1408 0.929 . S
C1421 C1413 1.433 . S
C1421 N1423 1.384 . S
N1422 C1418 1.427 1_556 S
N1422 C1419 1.384 . S
N1423 C1415 1.427 . S
N1423 C1421 1.384 . S
C855 C356 2.313 . S
C859 C38 2.319 . S
C873 C393 2.214 . S
C877 C75 2.215 . S
C891 C144 2.318 . S
C895 C250 2.322 . S
C909 C181 2.221 . S
C913 C287 2.219 . S
C927 C462 2.313 . S
C931 C780 2.326 . S
C945 C817 2.220 . S
C949 C499 2.215 . S
C963 C568 2.317 . S
C967 C674 2.311 . S
C981 C605 2.221 . S
C985 C711 2.218 . S
C999 C39 2.716 . S
C1003 C569 2.721 . S
C1017 C82 2.008 . S
C1021 C612 2.004 . S
C1035 C145 2.716 . S
C1039 C463 2.720 . S
C1053 C188 2.007 1_556 S
C1057 C506 2.006 . S
C1071 C251 2.715 . S
C1075 C781 2.720 . S
C1089 C824 1.999 . S
C1093 C294 2.005 . S
C1107 C357 2.721 . S
C1111 C675 2.718 . S
C1125 C718 2.001 . S
C1129 C400 1.996 . S
C1143 C728 1.053 . S
C1147 C29 1.053 . S
C1161 C92 1.045 . S
C1165 C771 1.051 . S
C1179 C834 1.048 . S
C1183 C135 1.054 . S
C1197 C665 1.059 . S
C1201 C198 1.056 . S
C1215 C622 1.056 . S
C1219 C241 1.056 . S
C1233 C304 1.043 . S
C1237 C453 1.048 . S
C1251 C347 1.047 . S
C1255 C516 1.044 . S
C1269 C410 1.049 . S
C1273 C559 1.049 . S
C1287 C727 1.715 . S
C1291 C22 1.710 . S
C1305 C91 1.710 . S
C1309 C764 1.706 . S
C1323 C128 1.712 . S
C1327 C833 1.716 . S
C1341 C658 1.712 . S
C1345 C197 1.713 . S
C1359 C621 1.710 . S
C1363 C234 1.707 . S
C1377 C446 1.706 . S
C1381 C303 1.711 . S
C1395 C340 1.707 . S
C1399 C515 1.712 . S
C1413 C552 1.706 . S
C1417 C409 1.712 . S
