# Generated by pormake.
# Topology gsi, (4)-cn, num edge types: 1
# Building blocks:
#     Node 0, Type 0, BuildingBlock: QUQFOY_clean_sbu_3, # of connection points: 4
#     Node 1, Type 0, BuildingBlock: QUQFOY_clean_sbu_3, # of connection points: 4
#     Node 2, Type 0, BuildingBlock: QUQFOY_clean_sbu_3, # of connection points: 4
#     Node 3, Type 0, BuildingBlock: QUQFOY_clean_sbu_3, # of connection points: 4
#     Node 4, Type 0, BuildingBlock: QUQFOY_clean_sbu_3, # of connection points: 4
#     Node 5, Type 0, BuildingBlock: QUQFOY_clean_sbu_3, # of connection points: 4
#     Node 6, Type 0, BuildingBlock: QUQFOY_clean_sbu_3, # of connection points: 4
#     Node 7, Type 0, BuildingBlock: QUQFOY_clean_sbu_3, # of connection points: 4
#     Node 8, Type 0, BuildingBlock: QUQFOY_clean_sbu_3, # of connection points: 4
#     Node 9, Type 0, BuildingBlock: QUQFOY_clean_sbu_3, # of connection points: 4
#     Node 10, Type 0, BuildingBlock: QUQFOY_clean_sbu_3, # of connection points: 4
#     Node 11, Type 0, BuildingBlock: QUQFOY_clean_sbu_3, # of connection points: 4
#     Node 12, Type 0, BuildingBlock: QUQFOY_clean_sbu_3, # of connection points: 4
#     Node 13, Type 0, BuildingBlock: QUQFOY_clean_sbu_3, # of connection points: 4
#     Node 14, Type 0, BuildingBlock: QUQFOY_clean_sbu_3, # of connection points: 4
#     Node 15, Type 0, BuildingBlock: QUQFOY_clean_sbu_3, # of connection points: 4
#     Edge 16, Type (0, 0), BuildingBlock: OJICUG_clean_linker_0, # of connection points: 2
#     Edge 17, Type (0, 0), BuildingBlock: OJICUG_clean_linker_0, # of connection points: 2
#     Edge 18, Type (0, 0), BuildingBlock: OJICUG_clean_linker_0, # of connection points: 2
#     Edge 19, Type (0, 0), BuildingBlock: OJICUG_clean_linker_0, # of connection points: 2
#     Edge 20, Type (0, 0), BuildingBlock: OJICUG_clean_linker_0, # of connection points: 2
#     Edge 21, Type (0, 0), BuildingBlock: OJICUG_clean_linker_0, # of connection points: 2
#     Edge 22, Type (0, 0), BuildingBlock: OJICUG_clean_linker_0, # of connection points: 2
#     Edge 23, Type (0, 0), BuildingBlock: OJICUG_clean_linker_0, # of connection points: 2
#     Edge 24, Type (0, 0), BuildingBlock: OJICUG_clean_linker_0, # of connection points: 2
#     Edge 25, Type (0, 0), BuildingBlock: OJICUG_clean_linker_0, # of connection points: 2
#     Edge 26, Type (0, 0), BuildingBlock: OJICUG_clean_linker_0, # of connection points: 2
#     Edge 27, Type (0, 0), BuildingBlock: OJICUG_clean_linker_0, # of connection points: 2
#     Edge 28, Type (0, 0), BuildingBlock: OJICUG_clean_linker_0, # of connection points: 2
#     Edge 29, Type (0, 0), BuildingBlock: OJICUG_clean_linker_0, # of connection points: 2
#     Edge 30, Type (0, 0), BuildingBlock: OJICUG_clean_linker_0, # of connection points: 2
#     Edge 31, Type (0, 0), BuildingBlock: OJICUG_clean_linker_0, # of connection points: 2
#     Edge 32, Type (0, 0), BuildingBlock: OJICUG_clean_linker_0, # of connection points: 2
#     Edge 33, Type (0, 0), BuildingBlock: OJICUG_clean_linker_0, # of connection points: 2
#     Edge 34, Type (0, 0), BuildingBlock: OJICUG_clean_linker_0, # of connection points: 2
#     Edge 35, Type (0, 0), BuildingBlock: OJICUG_clean_linker_0, # of connection points: 2
#     Edge 36, Type (0, 0), BuildingBlock: OJICUG_clean_linker_0, # of connection points: 2
#     Edge 37, Type (0, 0), BuildingBlock: OJICUG_clean_linker_0, # of connection points: 2
#     Edge 38, Type (0, 0), BuildingBlock: OJICUG_clean_linker_0, # of connection points: 2
#     Edge 39, Type (0, 0), BuildingBlock: OJICUG_clean_linker_0, # of connection points: 2
#     Edge 40, Type (0, 0), BuildingBlock: OJICUG_clean_linker_0, # of connection points: 2
#     Edge 41, Type (0, 0), BuildingBlock: OJICUG_clean_linker_0, # of connection points: 2
#     Edge 42, Type (0, 0), BuildingBlock: OJICUG_clean_linker_0, # of connection points: 2
#     Edge 43, Type (0, 0), BuildingBlock: OJICUG_clean_linker_0, # of connection points: 2
#     Edge 44, Type (0, 0), BuildingBlock: OJICUG_clean_linker_0, # of connection points: 2
#     Edge 45, Type (0, 0), BuildingBlock: OJICUG_clean_linker_0, # of connection points: 2
#     Edge 46, Type (0, 0), BuildingBlock: OJICUG_clean_linker_0, # of connection points: 2
#     Edge 47, Type (0, 0), BuildingBlock: OJICUG_clean_linker_0, # of connection points: 2
# Relax obj value: 0.136
# Max RMSD: 0.121
# Mean RMSD: 0.120
data_MOF--net-gsi--node1-QUQFOY_clean_sbu_3--edge1-OJICUG_clean_linker_0
_symmetry_space_group_name_H-M    P1
_symmetry_Int_Tables_number       1
_symmetry_cell_setting            triclinic
loop_
_symmetry_equiv_pos_as_xyz
'x, y, z'
_cell_length_a     36.23945
_cell_length_b     28.028458
_cell_length_c     34.331272
_cell_angle_alpha  89.982782
_cell_angle_beta   90.0485
_cell_angle_gamma 90.07688
loop_
_atom_site_label
_atom_site_type_symbol
_atom_site_fract_x
_atom_site_fract_y
_atom_site_fract_z
_atom_type_partial_charge
C0 C 0.02907 0.21073 0.1232 0.0
O1 O 0.03668 0.22456 0.15746 0.0
Cd2 Cd 0.08801 0.20358 0.19673 0.0
O3 O 0.05061 0.183 0.10442 0.0
Cd4 Cd 0.11416 0.15021 0.1177 0.0
C5 C 0.08617 0.08023 0.19279 0.0
O6 O 0.13801 0.2168 0.15458 0.0
O7 O 0.1702 0.15257 0.15805 0.0
O8 O 0.13868 0.17842 0.05655 0.0
C9 C 0.16694 0.19634 0.1665 0.0
O10 O 0.08417 0.11868 0.21248 0.0
C11 C 0.15288 0.13919 0.04591 0.0
O12 O 0.09391 0.0812 0.15652 0.0
O13 O 0.1461 0.10293 0.06701 0.0
C14 C 0.88296 0.26801 0.1234 0.0
O15 O 0.87524 0.25422 0.15765 0.0
Cd16 Cd 0.82395 0.27559 0.19676 0.0
O17 O 0.86157 0.29591 0.10455 0.0
Cd18 Cd 0.7981 0.32912 0.11749 0.0
C19 C 0.82611 0.39897 0.19269 0.0
O20 O 0.77411 0.26266 0.15428 0.0
O21 O 0.74184 0.32682 0.15746 0.0
O22 O 0.77397 0.30088 0.05617 0.0
C23 C 0.74514 0.28308 0.16603 0.0
O24 O 0.82799 0.36051 0.2124 0.0
C25 C 0.75981 0.34009 0.04538 0.0
O26 O 0.81843 0.39804 0.15638 0.0
O27 O 0.76641 0.37636 0.06652 0.0
C28 C 0.0294 0.76836 0.34296 0.0
O29 O 0.03702 0.7545 0.30872 0.0
Cd30 Cd 0.08829 0.77575 0.2695 0.0
O31 O 0.05091 0.79624 0.36173 0.0
Cd32 Cd 0.11444 0.82931 0.34854 0.0
C33 C 0.08632 0.8991 0.2734 0.0
O34 O 0.1383 0.7628 0.31174 0.0
O35 O 0.17049 0.82714 0.30829 0.0
O36 O 0.13886 0.8012 0.40977 0.0
C37 C 0.16722 0.78335 0.29986 0.0
O38 O 0.08435 0.86063 0.25373 0.0
C39 C 0.15312 0.84045 0.42041 0.0
O40 O 0.09409 0.8982 0.30968 0.0
O41 O 0.14642 0.87668 0.39927 0.0
C42 C 0.88324 0.711 0.34262 0.0
O43 O 0.87567 0.72477 0.30833 0.0
Cd44 Cd 0.82442 0.70354 0.26898 0.0
O45 O 0.86169 0.68319 0.36139 0.0
Cd46 Cd 0.79814 0.65015 0.34815 0.0
C47 C 0.82617 0.58016 0.27316 0.0
O48 O 0.7745 0.71664 0.31119 0.0
O49 O 0.74203 0.65254 0.30785 0.0
O50 O 0.77389 0.67857 0.4093 0.0
C51 C 0.7455 0.69627 0.29929 0.0
O52 O 0.82824 0.6186 0.25344 0.0
C53 C 0.75958 0.63941 0.42008 0.0
O54 O 0.81836 0.58113 0.30942 0.0
O55 O 0.76613 0.60308 0.39903 0.0
C56 C 0.38417 0.76998 0.6237 0.0
O57 O 0.37624 0.7559 0.65781 0.0
Cd58 Cd 0.32429 0.77634 0.6963 0.0
O59 O 0.36269 0.79759 0.60469 0.0
Cd60 Cd 0.29882 0.82987 0.61707 0.0
C61 C 0.32575 0.89971 0.69267 0.0
O62 O 0.27476 0.76298 0.65345 0.0
O63 O 0.24234 0.82702 0.65657 0.0
O64 O 0.27536 0.80182 0.55538 0.0
C65 C 0.24563 0.78324 0.66498 0.0
O66 O 0.32767 0.86119 0.7123 0.0
C67 C 0.2609 0.84092 0.54476 0.0
O68 O 0.31841 0.89885 0.65629 0.0
O69 O 0.26709 0.87709 0.56615 0.0
C70 C 0.8788 0.75579 0.86683 0.0
O71 O 0.85782 0.71957 0.86532 0.0
Cd72 Cd 0.79474 0.72141 0.84682 0.0
O73 O 0.86626 0.79735 0.85892 0.0
Cd74 Cd 0.8056 0.8329 0.83705 0.0
C75 C 0.7546 0.79777 0.91433 0.0
O76 O 0.79281 0.76911 0.78993 0.0
O77 O 0.74816 0.81713 0.80307 0.0
O78 O 0.84264 0.88475 0.79362 0.0
C79 C 0.76083 0.78417 0.78181 0.0
O80 O 0.7589 0.75711 0.89849 0.0
C81 C 0.82011 0.9193 0.79429 0.0
O82 O 0.77125 0.83433 0.90064 0.0
O83 O 0.79339 0.91589 0.81803 0.0
C84 C 0.03605 0.72524 0.8662 0.0
O85 O 0.05704 0.76142 0.86437 0.0
Cd86 Cd 0.12011 0.75931 0.84607 0.0
O87 O 0.04852 0.68358 0.85855 0.0
Cd88 Cd 0.10907 0.64769 0.83676 0.0
C89 C 0.15956 0.68321 0.91436 0.0
O90 O 0.12197 0.71113 0.78947 0.0
O91 O 0.16661 0.66317 0.80286 0.0
O92 O 0.07195 0.59577 0.79343 0.0
C93 C 0.15394 0.69602 0.78145 0.0
O94 O 0.1554 0.72382 0.89835 0.0
C95 C 0.09442 0.56115 0.79428 0.0
O96 O 0.14313 0.64656 0.90053 0.0
O97 O 0.12112 0.56458 0.81809 0.0
C98 C 0.87873 0.22465 0.5995 0.0
O99 O 0.85786 0.26089 0.60112 0.0
Cd100 Cd 0.79472 0.25899 0.61917 0.0
O101 O 0.86609 0.18305 0.6072 0.0
Cd102 Cd 0.80539 0.14726 0.62883 0.0
C103 C 0.75514 0.18265 0.55102 0.0
O104 O 0.79251 0.21097 0.67587 0.0
O105 O 0.74786 0.16283 0.66257 0.0
O106 O 0.84247 0.09558 0.67231 0.0
C107 C 0.76048 0.19588 0.68383 0.0
O108 O 0.7595 0.2233 0.56691 0.0
C109 C 0.81995 0.06092 0.67162 0.0
O110 O 0.77133 0.14595 0.56502 0.0
O111 O 0.79321 0.06422 0.64787 0.0
C112 C 0.03606 0.25512 0.59999 0.0
O113 O 0.05696 0.21892 0.60181 0.0
Cd114 Cd 0.12004 0.22102 0.62023 0.0
O115 O 0.04863 0.29676 0.60767 0.0
Cd116 Cd 0.10922 0.33272 0.62951 0.0
C117 C 0.15969 0.29716 0.55203 0.0
O118 O 0.12191 0.26924 0.67681 0.0
O119 O 0.16666 0.31726 0.66367 0.0
O120 O 0.07203 0.38463 0.6726 0.0
C121 C 0.15389 0.28435 0.68497 0.0
O122 O 0.15542 0.25656 0.56804 0.0
C123 C 0.09459 0.41923 0.67193 0.0
O124 O 0.14333 0.33382 0.56582 0.0
O125 O 0.1214 0.4158 0.64832 0.0
C126 C 0.53512 0.22445 0.3659 0.0
O127 O 0.55606 0.26072 0.3645 0.0
Cd128 Cd 0.61939 0.2588 0.34742 0.0
O129 O 0.54779 0.18284 0.3584 0.0
Cd130 Cd 0.60864 0.14691 0.33746 0.0
C131 C 0.65754 0.18227 0.41631 0.0
O132 O 0.62182 0.21079 0.29075 0.0
O133 O 0.66642 0.16273 0.30406 0.0
O134 O 0.57173 0.09511 0.29381 0.0
C135 C 0.65386 0.19583 0.28284 0.0
O136 O 0.65335 0.22302 0.40054 0.0
C137 C 0.5943 0.0606 0.2945 0.0
O138 O 0.64196 0.14548 0.40166 0.0
O139 O 0.62099 0.064 0.31832 0.0
C140 C 0.5306 0.7127 0.62447 0.0
O141 O 0.53874 0.72633 0.65866 0.0
Cd142 Cd 0.59036 0.70429 0.6971 0.0
O143 O 0.55168 0.6847 0.60537 0.0
Cd144 Cd 0.61519 0.65098 0.61757 0.0
C145 C 0.58759 0.58094 0.69278 0.0
O146 O 0.63973 0.71734 0.65407 0.0
O147 O 0.67196 0.65315 0.657 0.0
O148 O 0.6385 0.67896 0.55581 0.0
C149 C 0.66883 0.69692 0.66551 0.0
O150 O 0.58605 0.61931 0.71261 0.0
C151 C 0.65268 0.63975 0.54508 0.0
O152 O 0.59497 0.58201 0.65642 0.0
O153 O 0.64643 0.60361 0.56648 0.0
C154 C 0.53032 0.26756 0.84126 0.0
O155 O 0.53825 0.25394 0.80703 0.0
Cd156 Cd 0.58973 0.27603 0.76841 0.0
O157 O 0.55158 0.29553 0.86027 0.0
Cd158 Cd 0.61509 0.32918 0.84781 0.0
C159 C 0.58738 0.39937 0.77277 0.0
O160 O 0.63933 0.26282 0.81117 0.0
O161 O 0.67167 0.32705 0.80822 0.0
O162 O 0.63859 0.30101 0.90943 0.0
C163 C 0.66843 0.28329 0.79969 0.0
O164 O 0.58562 0.36101 0.75293 0.0
C165 C 0.65289 0.34018 0.92022 0.0
O166 O 0.59491 0.39825 0.8091 0.0
O167 O 0.64664 0.37639 0.89891 0.0
C168 C 0.38382 0.21028 0.84273 0.0
O169 O 0.37581 0.22441 0.80865 0.0
Cd170 Cd 0.32379 0.20392 0.77016 0.0
O171 O 0.36239 0.18257 0.86174 0.0
Cd172 Cd 0.29845 0.15016 0.84942 0.0
C173 C 0.3254 0.08054 0.77377 0.0
O174 O 0.27445 0.21705 0.81315 0.0
O175 O 0.24188 0.15303 0.80991 0.0
O176 O 0.27521 0.17803 0.9112 0.0
C177 C 0.24526 0.19683 0.80157 0.0
O178 O 0.32726 0.11908 0.75417 0.0
C179 C 0.26065 0.13892 0.92174 0.0
O180 O 0.31805 0.08132 0.81014 0.0
O181 O 0.26669 0.10282 0.90026 0.0
C182 C 0.37774 0.25479 0.36561 0.0
O183 O 0.35676 0.21856 0.3642 0.0
Cd184 Cd 0.29334 0.22071 0.34744 0.0
O185 O 0.3651 0.29644 0.35817 0.0
Cd186 Cd 0.30429 0.33268 0.33729 0.0
C187 C 0.25613 0.29748 0.41664 0.0
O188 O 0.29073 0.2688 0.29077 0.0
O189 O 0.2463 0.31708 0.30406 0.0
O190 O 0.34125 0.38439 0.29365 0.0
C191 C 0.25869 0.28383 0.28292 0.0
O192 O 0.2601 0.25667 0.40095 0.0
C193 C 0.31875 0.41898 0.29434 0.0
O194 O 0.27149 0.33423 0.40168 0.0
O195 O 0.29207 0.41562 0.31813 0.0
C196 C 0.37781 0.72538 0.10084 0.0
O197 O 0.35691 0.76161 0.10237 0.0
Cd198 Cd 0.29353 0.75941 0.11918 0.0
O199 O 0.36512 0.68371 0.10823 0.0
Cd200 Cd 0.30432 0.6474 0.12915 0.0
C201 C 0.25606 0.68274 0.04989 0.0
O202 O 0.29092 0.71117 0.17576 0.0
O203 O 0.24641 0.66287 0.16237 0.0
O204 O 0.34128 0.59571 0.17277 0.0
C205 C 0.25887 0.69609 0.18356 0.0
O206 O 0.26013 0.72352 0.06564 0.0
C207 C 0.31876 0.56106 0.17202 0.0
O208 O 0.2714 0.64597 0.06477 0.0
O209 O 0.29206 0.56439 0.14821 0.0
C210 C 0.53527 0.75567 0.09999 0.0
O211 O 0.55614 0.7194 0.10115 0.0
Cd212 Cd 0.6196 0.72137 0.11773 0.0
O213 O 0.54807 0.79725 0.10755 0.0
Cd214 Cd 0.60903 0.83332 0.12831 0.0
C215 C 0.65705 0.7985 0.0488 0.0
O216 O 0.62235 0.76909 0.17458 0.0
O217 O 0.66691 0.81747 0.1616 0.0
O218 O 0.57204 0.88473 0.17203 0.0
C219 C 0.65441 0.78406 0.18256 0.0
O220 O 0.65286 0.75759 0.06429 0.0
C221 C 0.59464 0.9193 0.17163 0.0
O222 O 0.64192 0.83523 0.06395 0.0
O223 O 0.62143 0.9161 0.14798 0.0
C224 C 0.22445 0.19754 0.20656 0.0
C225 C 0.19148 0.21956 0.19485 0.0
H226 H 0.27186 0.20091 0.2437 0.0
C227 C 0.1813 0.2633 0.21159 0.0
H228 H 0.23294 0.16385 0.194 0.0
C229 C 0.20326 0.28415 0.24021 0.0
C230 C 0.23599 0.26191 0.25228 0.0
H231 H 0.15599 0.28106 0.20315 0.0
H232 H 0.19454 0.31767 0.25291 0.0
C233 C 0.24667 0.21872 0.23494 0.0
C234 C 0.7309 0.21621 0.21123 0.0
C235 C 0.72066 0.25991 0.19444 0.0
H236 H 0.71783 0.16193 0.25269 0.0
C237 C 0.68773 0.28194 0.20617 0.0
H238 H 0.75618 0.19843 0.20276 0.0
C239 C 0.66562 0.26082 0.23465 0.0
C240 C 0.67638 0.21768 0.25207 0.0
H241 H 0.67919 0.31561 0.19358 0.0
H242 H 0.64046 0.27864 0.24345 0.0
C243 C 0.70906 0.19542 0.23995 0.0
C244 C 0.20348 0.69562 0.22622 0.0
C245 C 0.23621 0.71794 0.21418 0.0
H246 H 0.15624 0.69859 0.26323 0.0
C247 C 0.24692 0.76117 0.23153 0.0
H248 H 0.19474 0.66207 0.21352 0.0
C249 C 0.22472 0.7823 0.25988 0.0
C250 C 0.19175 0.76019 0.27155 0.0
H251 H 0.27211 0.77904 0.2228 0.0
H252 H 0.23323 0.81602 0.27244 0.0
C253 C 0.18155 0.71642 0.25481 0.0
C254 C 0.68815 0.69754 0.25895 0.0
C255 C 0.72113 0.71951 0.27082 0.0
H256 H 0.64089 0.70104 0.22162 0.0
C257 C 0.7315 0.76326 0.25414 0.0
H258 H 0.67952 0.66384 0.27146 0.0
C259 C 0.7097 0.78419 0.22544 0.0
C260 C 0.67696 0.76201 0.21323 0.0
H261 H 0.75681 0.78099 0.2627 0.0
H262 H 0.71856 0.81772 0.21281 0.0
C263 C 0.6661 0.71879 0.23049 0.0
C264 C 0.23109 0.71615 0.70989 0.0
C265 C 0.22094 0.75989 0.69309 0.0
H266 H 0.21788 0.66191 0.75133 0.0
C267 C 0.18792 0.78187 0.70464 0.0
H268 H 0.25641 0.6984 0.70155 0.0
C269 C 0.1657 0.76076 0.73303 0.0
C270 C 0.17643 0.71766 0.75054 0.0
H271 H 0.17944 0.81555 0.69202 0.0
H272 H 0.14052 0.77859 0.74174 0.0
C273 C 0.20913 0.69537 0.73852 0.0
C274 C 0.6837 0.76409 0.71015 0.0
C275 C 0.69364 0.72015 0.6936 0.0
H276 H 0.69714 0.81853 0.7513 0.0
C277 C 0.72654 0.69797 0.70536 0.0
H278 H 0.65849 0.78202 0.70165 0.0
C279 C 0.74885 0.71912 0.73369 0.0
C280 C 0.73832 0.76244 0.75093 0.0
H281 H 0.73486 0.66412 0.69294 0.0
H282 H 0.77393 0.70115 0.74258 0.0
C283 C 0.70574 0.7849 0.73871 0.0
C284 C 0.68318 0.21612 0.75507 0.0
C285 C 0.6932 0.26005 0.77165 0.0
H286 H 0.69658 0.16163 0.71401 0.0
C287 C 0.72617 0.2822 0.76003 0.0
H288 H 0.65789 0.19822 0.76347 0.0
C289 C 0.7485 0.26102 0.7318 0.0
C290 C 0.73791 0.21768 0.71455 0.0
H291 H 0.73455 0.31604 0.77247 0.0
H292 H 0.77365 0.27895 0.72303 0.0
C293 C 0.70523 0.19526 0.72662 0.0
C294 C 0.209 0.2849 0.72811 0.0
C295 C 0.17628 0.26262 0.71593 0.0
H296 H 0.25622 0.28179 0.76522 0.0
C297 C 0.16546 0.21946 0.73331 0.0
H298 H 0.21783 0.31841 0.7154 0.0
C299 C 0.1876 0.19827 0.76173 0.0
C300 C 0.22063 0.22024 0.77344 0.0
H301 H 0.14026 0.20164 0.72447 0.0
H302 H 0.17904 0.16455 0.77424 0.0
C303 C 0.23088 0.26404 0.75676 0.0
C304 C 0.08159 0.98847 0.27384 0.0
C305 C 0.08227 0.94541 0.25294 0.0
H306 H 0.08178 0.06466 0.27131 0.0
C307 C 0.08143 0.94712 0.21195 0.0
H308 H 0.08204 0.98848 0.30539 0.0
C309 C 0.08157 -0.00916 0.19234 0.0
C310 C 0.08219 0.03389 0.21324 0.0
H311 H 0.08189 0.91464 0.19487 0.0
H312 H 0.08202 -0.00917 0.16079 0.0
C313 C 0.08137 0.03218 0.25423 0.0
C314 C 0.83086 0.44703 0.25411 0.0
C315 C 0.83013 0.44531 0.21312 0.0
H316 H 0.83014 0.49076 0.30524 0.0
C317 C 0.8309 0.48835 0.19219 0.0
H318 H 0.83032 0.41456 0.27122 0.0
C319 C 0.83109 0.53208 0.21178 0.0
C320 C 0.83015 0.53381 0.25276 0.0
H321 H 0.83053 0.48835 0.16065 0.0
H322 H 0.83075 0.56455 0.19467 0.0
C323 C 0.83068 0.49076 0.2737 0.0
C324 C 0.22103 0.18065 0.97004 0.0
C325 C 0.23435 0.13754 0.95471 0.0
H326 H 0.18438 0.2148 0.00974 0.0
C327 C 0.21995 0.0943 0.96897 0.0
H328 H 0.23116 0.21465 0.95946 0.0
C329 C 0.19296 0.09439 -0.00169 0.0
C330 C 0.17946 0.13773 0.0132 0.0
H331 H 0.22946 0.06052 0.95746 0.0
H332 H 0.18266 0.06066 0.00924 0.0
C333 C 0.19378 0.18075 -0.00138 0.0
C334 C 0.71949 0.29846 -0.00247 0.0
C335 C 0.73349 0.34152 0.0124 0.0
H336 H 0.68256 0.26448 0.95789 0.0
C337 C 0.71989 0.38483 -0.0025 0.0
H338 H 0.72898 0.26443 0.00863 0.0
C339 C 0.69312 0.38486 0.96791 0.0
C340 C 0.67903 0.34158 0.95336 0.0
H341 H 0.72994 0.41858 0.00865 0.0
H342 H 0.68351 0.41863 0.95642 0.0
C343 C 0.69246 0.29849 0.96868 0.0
C344 C 0.22031 0.88547 0.49739 0.0
C345 C 0.23457 0.84225 0.51177 0.0
H346 H 0.18314 0.91906 0.45697 0.0
C347 C 0.2211 0.79911 0.49652 0.0
H348 H 0.22994 0.91928 0.50883 0.0
C349 C 0.19385 0.79897 0.46789 0.0
C350 C 0.17967 0.84198 0.45319 0.0
H351 H 0.23112 0.76514 0.5072 0.0
H352 H 0.18434 0.76491 0.45684 0.0
C353 C 0.19332 0.88534 0.46801 0.0
C354 C 0.69221 0.68127 0.49648 0.0
C355 C 0.67874 0.63823 0.51192 0.0
H356 H 0.72877 0.7152 0.45648 0.0
C357 C 0.69276 0.5949 0.49752 0.0
H358 H 0.68236 0.71531 0.50715 0.0
C359 C 0.71953 0.59483 0.46797 0.0
C360 C 0.73319 0.6381 0.45297 0.0
H361 H 0.68313 0.56117 0.5091 0.0
H362 H 0.72955 0.56105 0.45695 0.0
C363 C 0.71924 0.6812 0.46767 0.0
C364 C 0.94712 0.28777 0.10477 0.0
C365 C 0.91893 0.2537 0.10771 0.0
H366 H 0.00548 0.30013 0.10724 0.0
C367 C 0.92787 0.20498 0.10628 0.0
H368 H 0.9408 0.32548 0.10662 0.0
C369 C -0.03524 0.19047 0.10566 0.0
C370 C -0.00701 0.2246 0.10748 0.0
H371 H 0.90645 0.17819 0.10915 0.0
H372 H -0.02891 0.15282 0.10822 0.0
C373 C -0.01598 0.27327 0.10518 0.0
C374 C 0.92826 0.77386 0.36023 0.0
C375 C 0.91924 0.72514 0.35845 0.0
H376 H -0.02844 0.82608 0.35855 0.0
C377 C 0.94739 0.69107 0.36104 0.0
H378 H 0.90687 0.80065 0.35762 0.0
C379 C -0.01569 0.7056 0.36063 0.0
C380 C -0.00666 0.75431 0.35865 0.0
H381 H 0.94101 0.65338 0.35891 0.0
H382 H 0.00571 0.67879 0.3583 0.0
C383 C -0.03482 0.7884 0.36085 0.0
C384 C 0.46643 0.69346 0.60512 0.0
C385 C 0.49457 0.72744 0.60908 0.0
H386 H 0.40804 0.68101 0.60654 0.0
C387 C 0.48561 0.77619 0.60858 0.0
H388 H 0.47275 0.6557 0.60623 0.0
C389 C 0.44872 0.7907 0.60777 0.0
C390 C 0.42049 0.75651 0.60845 0.0
H391 H 0.50698 0.8029 0.61222 0.0
H392 H 0.44234 0.82825 0.61098 0.0
C393 C 0.4295 0.70792 0.60535 0.0
C394 C 0.78775 0.00595 0.71729 0.0
C395 C 0.82105 0.02297 0.70164 0.0
H396 H 0.76158 0.96159 0.75986 0.0
C397 C 0.85454 0.00693 0.7177 0.0
H398 H 0.76151 0.01831 0.70601 0.0
C399 C 0.85457 0.97346 0.74821 0.0
C400 C 0.82113 0.95724 0.76426 0.0
H401 H 0.88059 0.01995 0.70646 0.0
H402 H 0.88066 0.96059 0.75946 0.0
C403 C 0.78779 0.97409 0.74859 0.0
C404 C 0.05995 0.50697 0.74819 0.0
C405 C 0.09339 0.52312 0.76435 0.0
H406 H 0.03394 0.46046 0.70643 0.0
C407 C 0.12674 0.50614 0.74886 0.0
H408 H 0.03387 0.51995 0.75931 0.0
C409 C 0.12678 0.47421 0.71762 0.0
C410 C 0.09348 0.45726 0.70186 0.0
H411 H 0.15294 0.51859 0.76021 0.0
H412 H 0.15302 0.46175 0.70648 0.0
C413 C 0.05999 0.47343 0.71776 0.0
C414 C 0.6964 0.84416 -0.00028 0.0
C415 C 0.68031 0.80138 0.01312 0.0
H416 H 0.73306 0.87703 0.95805 0.0
C417 C 0.68842 0.75887 -0.00673 0.0
H418 H 0.69083 0.87752 0.01448 0.0
C419 C 0.71234 0.75852 0.96169 0.0
C420 C 0.72923 0.80071 0.94845 0.0
H421 H 0.67647 0.72519 0.00232 0.0
H422 H 0.71766 0.72454 0.94777 0.0
C423 C 0.72077 0.84381 0.96763 0.0
C424 C 0.19389 0.6372 0.96737 0.0
C425 C 0.18437 0.68047 0.94898 0.0
H426 H 0.2245 0.6034 0.01374 0.0
C427 C 0.19975 0.72302 0.96342 0.0
H428 H 0.18274 0.60372 0.95686 0.0
C429 C 0.2234 0.72279 -0.00473 0.0
C430 C 0.23273 0.68003 0.0142 0.0
H431 H 0.19348 0.75716 0.95021 0.0
H432 H 0.23423 0.75673 0.00519 0.0
C433 C 0.21799 0.63697 -0.00028 0.0
C434 C 0.69194 0.22248 0.46971 0.0
C435 C 0.68138 0.17961 0.45164 0.0
H436 H 0.72305 0.25688 0.51388 0.0
C437 C 0.69533 0.13641 0.46666 0.0
H438 H 0.68183 0.25655 0.45934 0.0
C439 C 0.71971 0.13658 0.49879 0.0
C440 C 0.73032 0.17994 0.51641 0.0
H441 H 0.68789 0.10275 0.45331 0.0
H442 H 0.73013 0.10299 0.50981 0.0
C443 C 0.71587 0.22265 0.50132 0.0
C444 C 0.20002 0.25735 0.50325 0.0
C445 C 0.18454 0.29988 0.51749 0.0
H446 H 0.23454 0.22363 0.46165 0.0
C447 C 0.19398 0.34311 0.49895 0.0
H448 H 0.19382 0.22324 0.51658 0.0
C449 C 0.21806 0.34331 0.46663 0.0
C450 C 0.23288 0.30025 0.45233 0.0
H451 H 0.18277 0.37657 0.50931 0.0
H452 H 0.2245 0.37683 0.45248 0.0
C453 C 0.22365 0.25755 0.47142 0.0
C454 C -0.01847 0.77942 0.87409 0.0
C455 C -0.00398 0.7328 0.87288 0.0
H456 H 0.93324 0.8234 0.87324 0.0
C457 C -0.0285 0.69404 0.87439 0.0
H458 H -0.00041 0.81023 0.87321 0.0
C459 C 0.93338 0.70171 0.87476 0.0
C460 C 0.91888 0.74832 0.87327 0.0
H461 H -0.01833 0.65772 0.87377 0.0
H462 H 0.91532 0.6709 0.87437 0.0
C463 C 0.94341 0.78709 0.87411 0.0
C464 C -0.0186 0.20097 0.59209 0.0
C465 C -0.004 0.24758 0.59333 0.0
H466 H 0.933 0.15702 0.59297 0.0
C467 C -0.02843 0.28636 0.59193 0.0
H468 H -0.00062 0.17015 0.5929 0.0
C469 C 0.93344 0.27871 0.59163 0.0
C470 C 0.91882 0.23211 0.59308 0.0
H471 H -0.01817 0.32267 0.59258 0.0
H472 H 0.91545 0.30953 0.59208 0.0
C473 C 0.94326 0.19332 0.59214 0.0
C474 C 0.47051 0.19308 0.37293 0.0
C475 C 0.495 0.23188 0.372 0.0
H476 H 0.41435 0.16986 0.37229 0.0
C477 C 0.48046 0.27848 0.37333 0.0
H478 H 0.48072 0.15678 0.37217 0.0
C479 C 0.44234 0.28609 0.37306 0.0
C480 C 0.41785 0.24729 0.3718 0.0
H481 H 0.49849 0.30932 0.37286 0.0
H482 H 0.43213 0.32239 0.37242 0.0
C483 C 0.43239 0.20069 0.37301 0.0
C484 C 0.58268 0.49157 0.69204 0.0
C485 C 0.58349 0.53451 0.71309 0.0
H486 H 0.58278 0.41535 0.6943 0.0
C487 C 0.58275 0.53259 0.75407 0.0
H488 H 0.58306 0.49171 0.66049 0.0
C489 C 0.58287 0.48876 0.77353 0.0
C490 C 0.58338 0.44581 0.75248 0.0
H491 H 0.58331 0.56497 0.77127 0.0
H492 H 0.5834 0.48861 0.80508 0.0
C493 C 0.58245 0.44774 0.7115 0.0
C494 C 0.32997 -0.00885 0.77398 0.0
C495 C 0.32926 0.0343 0.75319 0.0
H496 H 0.32989 0.91497 0.77126 0.0
C497 C 0.33006 0.03278 0.7122 0.0
H498 H 0.32953 -0.00901 0.80553 0.0
C499 C 0.32999 0.98915 0.69247 0.0
C500 C 0.32947 0.94599 0.71326 0.0
H501 H 0.32958 0.06533 0.69519 0.0
H502 H 0.32956 0.9893 0.66092 0.0
C503 C 0.33024 0.94752 0.75425 0.0
C504 C 0.4484 0.18952 0.85836 0.0
C505 C 0.42024 0.2237 0.85789 0.0
H506 H 0.5066 0.17732 0.85353 0.0
C507 C 0.42937 0.27229 0.86101 0.0
H508 H 0.44192 0.15197 0.85513 0.0
C509 C 0.46633 0.28676 0.86102 0.0
C510 C 0.49437 0.25278 0.85683 0.0
H511 H 0.40795 0.29919 0.85998 0.0
H512 H 0.47271 0.32451 0.85993 0.0
C513 C 0.48531 0.20403 0.85733 0.0
C514 C 0.35328 0.50686 0.21799 0.0
C515 C 0.31982 0.52303 0.20196 0.0
H516 H 0.37935 0.46029 0.25962 0.0
C517 C 0.28649 0.50597 0.21754 0.0
H518 H 0.37935 0.51989 0.2068 0.0
C519 C 0.28649 0.47396 0.24875 0.0
C520 C 0.31982 0.457 0.26438 0.0
H521 H 0.26027 0.5184 0.20628 0.0
H522 H 0.26027 0.46145 0.25997 0.0
C523 C 0.35328 0.47324 0.24839 0.0
C524 C 0.55991 0.00657 0.24821 0.0
C525 C 0.59333 0.0227 0.26444 0.0
H526 H 0.53396 0.96024 0.20628 0.0
C527 C 0.62669 0.0058 0.24894 0.0
H528 H 0.53381 0.01948 0.25934 0.0
C529 C 0.62678 0.974 0.21761 0.0
C530 C 0.59351 0.95709 0.20176 0.0
H531 H 0.65289 0.01822 0.26035 0.0
H532 H 0.65304 0.96162 0.20644 0.0
C533 C 0.56 0.97316 0.21768 0.0
C534 C 0.48044 0.70169 0.0927 0.0
C535 C 0.4951 0.74827 0.09408 0.0
H536 H 0.43202 0.65779 0.09369 0.0
C537 C 0.47069 0.78709 0.09336 0.0
H538 H 0.49841 0.67084 0.09302 0.0
C539 C 0.43255 0.77949 0.09342 0.0
C540 C 0.41791 0.73289 0.09455 0.0
H541 H 0.48098 0.82338 0.09416 0.0
H542 H 0.41459 0.81033 0.09428 0.0
C543 C 0.4423 0.69408 0.09311 0.0
loop_
_geom_bond_atom_site_label_1
_geom_bond_atom_site_label_2
_geom_bond_distance
_geom_bond_site_symmetry_2
_ccdc_geom_bond_type
C0 O1 1.306 . S
C0 O3 1.160 . S
O1 C0 1.306 . S
O1 Cd2 2.228 . S
Cd2 O1 2.228 . S
Cd2 O6 2.273 . S
Cd2 O10 2.277 . S
O3 C0 1.160 . S
O3 Cd4 2.203 . S
Cd4 O3 2.203 . S
Cd4 O6 2.411 . S
Cd4 O7 2.333 . S
Cd4 O8 2.352 . S
Cd4 O12 2.277 . S
Cd4 O13 2.356 . S
C5 O10 1.209 . S
C5 O12 1.226 . S
O6 Cd2 2.273 . S
O6 Cd4 2.411 . S
O6 C9 1.320 . S
O7 Cd4 2.333 . S
O7 C9 1.214 . S
O8 Cd4 2.352 . S
O8 C11 1.258 . S
C9 O6 1.320 . S
C9 O7 1.214 . S
O10 Cd2 2.277 . S
O10 C5 1.209 . S
C11 O8 1.258 . S
C11 O13 1.282 . S
O12 Cd4 2.277 . S
O12 C5 1.226 . S
O13 Cd4 2.356 . S
O13 C11 1.282 . S
C14 O15 1.306 . S
C14 O17 1.160 . S
O15 C14 1.306 . S
O15 Cd16 2.228 . S
Cd16 O15 2.228 . S
Cd16 O20 2.273 . S
Cd16 O24 2.277 . S
O17 C14 1.160 . S
O17 Cd18 2.203 . S
Cd18 O17 2.203 . S
Cd18 O20 2.411 . S
Cd18 O21 2.333 . S
Cd18 O22 2.352 . S
Cd18 O26 2.277 . S
Cd18 O27 2.356 . S
C19 O24 1.209 . S
C19 O26 1.226 . S
O20 Cd16 2.273 . S
O20 Cd18 2.411 . S
O20 C23 1.320 . S
O21 Cd18 2.333 . S
O21 C23 1.214 . S
O22 Cd18 2.352 . S
O22 C25 1.258 . S
C23 O20 1.320 . S
C23 O21 1.214 . S
O24 Cd16 2.277 . S
O24 C19 1.209 . S
C25 O22 1.258 . S
C25 O27 1.282 . S
O26 Cd18 2.277 . S
O26 C19 1.226 . S
O27 Cd18 2.356 . S
O27 C25 1.282 . S
C28 O29 1.306 . S
C28 O31 1.160 . S
O29 C28 1.306 . S
O29 Cd30 2.228 . S
Cd30 O29 2.228 . S
Cd30 O34 2.273 . S
Cd30 O38 2.277 . S
O31 C28 1.160 . S
O31 Cd32 2.203 . S
Cd32 O31 2.203 . S
Cd32 O34 2.411 . S
Cd32 O35 2.333 . S
Cd32 O36 2.352 . S
Cd32 O40 2.277 . S
Cd32 O41 2.356 . S
C33 O38 1.209 . S
C33 O40 1.226 . S
O34 Cd30 2.273 . S
O34 Cd32 2.411 . S
O34 C37 1.320 . S
O35 Cd32 2.333 . S
O35 C37 1.214 . S
O36 Cd32 2.352 . S
O36 C39 1.258 . S
C37 O34 1.320 . S
C37 O35 1.214 . S
O38 Cd30 2.277 . S
O38 C33 1.209 . S
C39 O36 1.258 . S
C39 O41 1.282 . S
O40 Cd32 2.277 . S
O40 C33 1.226 . S
O41 Cd32 2.356 . S
O41 C39 1.282 . S
C42 O43 1.306 . S
C42 O45 1.160 . S
O43 C42 1.306 . S
O43 Cd44 2.228 . S
Cd44 O43 2.228 . S
Cd44 O48 2.273 . S
Cd44 O52 2.277 . S
O45 C42 1.160 . S
O45 Cd46 2.203 . S
Cd46 O45 2.203 . S
Cd46 O48 2.411 . S
Cd46 O49 2.333 . S
Cd46 O50 2.352 . S
Cd46 O54 2.277 . S
Cd46 O55 2.356 . S
C47 O52 1.209 . S
C47 O54 1.226 . S
O48 Cd44 2.273 . S
O48 Cd46 2.411 . S
O48 C51 1.320 . S
O49 Cd46 2.333 . S
O49 C51 1.214 . S
O50 Cd46 2.352 . S
O50 C53 1.258 . S
C51 O48 1.320 . S
C51 O49 1.214 . S
O52 Cd44 2.277 . S
O52 C47 1.209 . S
C53 O50 1.258 . S
C53 O55 1.282 . S
O54 Cd46 2.277 . S
O54 C47 1.226 . S
O55 Cd46 2.356 . S
O55 C53 1.282 . S
C56 O57 1.306 . S
C56 O59 1.160 . S
O57 C56 1.306 . S
O57 Cd58 2.228 . S
Cd58 O57 2.228 . S
Cd58 O62 2.273 . S
Cd58 O66 2.277 . S
O59 C56 1.160 . S
O59 Cd60 2.203 . S
Cd60 O59 2.203 . S
Cd60 O62 2.411 . S
Cd60 O63 2.333 . S
Cd60 O64 2.352 . S
Cd60 O68 2.277 . S
Cd60 O69 2.356 . S
C61 O66 1.209 . S
C61 O68 1.226 . S
O62 Cd58 2.273 . S
O62 Cd60 2.411 . S
O62 C65 1.320 . S
O63 Cd60 2.333 . S
O63 C65 1.214 . S
O64 Cd60 2.352 . S
O64 C67 1.258 . S
C65 O62 1.320 . S
C65 O63 1.214 . S
O66 Cd58 2.277 . S
O66 C61 1.209 . S
C67 O64 1.258 . S
C67 O69 1.282 . S
O68 Cd60 2.277 . S
O68 C61 1.226 . S
O69 Cd60 2.356 . S
O69 C67 1.282 . S
C70 O71 1.306 . S
C70 O73 1.160 . S
O71 C70 1.306 . S
O71 Cd72 2.228 . S
Cd72 O71 2.228 . S
Cd72 O76 2.273 . S
Cd72 O80 2.277 . S
O73 C70 1.160 . S
O73 Cd74 2.203 . S
Cd74 O73 2.203 . S
Cd74 O76 2.411 . S
Cd74 O77 2.333 . S
Cd74 O78 2.352 . S
Cd74 O82 2.277 . S
Cd74 O83 2.356 . S
C75 O80 1.209 . S
C75 O82 1.226 . S
O76 Cd72 2.273 . S
O76 Cd74 2.411 . S
O76 C79 1.320 . S
O77 Cd74 2.333 . S
O77 C79 1.214 . S
O78 Cd74 2.352 . S
O78 C81 1.258 . S
C79 O76 1.320 . S
C79 O77 1.214 . S
O80 Cd72 2.277 . S
O80 C75 1.209 . S
C81 O78 1.258 . S
C81 O83 1.282 . S
O82 Cd74 2.277 . S
O82 C75 1.226 . S
O83 Cd74 2.356 . S
O83 C81 1.282 . S
C84 O85 1.306 . S
C84 O87 1.160 . S
O85 C84 1.306 . S
O85 Cd86 2.228 . S
Cd86 O85 2.228 . S
Cd86 O90 2.273 . S
Cd86 O94 2.277 . S
O87 C84 1.160 . S
O87 Cd88 2.203 . S
Cd88 O87 2.203 . S
Cd88 O90 2.411 . S
Cd88 O91 2.333 . S
Cd88 O92 2.352 . S
Cd88 O96 2.277 . S
Cd88 O97 2.356 . S
C89 O94 1.209 . S
C89 O96 1.226 . S
O90 Cd86 2.273 . S
O90 Cd88 2.411 . S
O90 C93 1.320 . S
O91 Cd88 2.333 . S
O91 C93 1.214 . S
O92 Cd88 2.352 . S
O92 C95 1.258 . S
C93 O90 1.320 . S
C93 O91 1.214 . S
O94 Cd86 2.277 . S
O94 C89 1.209 . S
C95 O92 1.258 . S
C95 O97 1.282 . S
O96 Cd88 2.277 . S
O96 C89 1.226 . S
O97 Cd88 2.356 . S
O97 C95 1.282 . S
C98 O99 1.306 . S
C98 O101 1.160 . S
O99 C98 1.306 . S
O99 Cd100 2.228 . S
Cd100 O99 2.228 . S
Cd100 O104 2.273 . S
Cd100 O108 2.277 . S
O101 C98 1.160 . S
O101 Cd102 2.203 . S
Cd102 O101 2.203 . S
Cd102 O104 2.411 . S
Cd102 O105 2.333 . S
Cd102 O106 2.352 . S
Cd102 O110 2.277 . S
Cd102 O111 2.356 . S
C103 O108 1.209 . S
C103 O110 1.226 . S
O104 Cd100 2.273 . S
O104 Cd102 2.411 . S
O104 C107 1.320 . S
O105 Cd102 2.333 . S
O105 C107 1.214 . S
O106 Cd102 2.352 . S
O106 C109 1.258 . S
C107 O104 1.320 . S
C107 O105 1.214 . S
O108 Cd100 2.277 . S
O108 C103 1.209 . S
C109 O106 1.258 . S
C109 O111 1.282 . S
O110 Cd102 2.277 . S
O110 C103 1.226 . S
O111 Cd102 2.356 . S
O111 C109 1.282 . S
C112 O113 1.306 . S
C112 O115 1.160 . S
O113 C112 1.306 . S
O113 Cd114 2.228 . S
Cd114 O113 2.228 . S
Cd114 O118 2.273 . S
Cd114 O122 2.277 . S
O115 C112 1.160 . S
O115 Cd116 2.203 . S
Cd116 O115 2.203 . S
Cd116 O118 2.411 . S
Cd116 O119 2.333 . S
Cd116 O120 2.352 . S
Cd116 O124 2.277 . S
Cd116 O125 2.356 . S
C117 O122 1.209 . S
C117 O124 1.226 . S
O118 Cd114 2.273 . S
O118 Cd116 2.411 . S
O118 C121 1.320 . S
O119 Cd116 2.333 . S
O119 C121 1.214 . S
O120 Cd116 2.352 . S
O120 C123 1.258 . S
C121 O118 1.320 . S
C121 O119 1.214 . S
O122 Cd114 2.277 . S
O122 C117 1.209 . S
C123 O120 1.258 . S
C123 O125 1.282 . S
O124 Cd116 2.277 . S
O124 C117 1.226 . S
O125 Cd116 2.356 . S
O125 C123 1.282 . S
C126 O127 1.306 . S
C126 O129 1.160 . S
O127 C126 1.306 . S
O127 Cd128 2.228 . S
Cd128 O127 2.228 . S
Cd128 O132 2.273 . S
Cd128 O136 2.277 . S
O129 C126 1.160 . S
O129 Cd130 2.203 . S
Cd130 O129 2.203 . S
Cd130 O132 2.411 . S
Cd130 O133 2.333 . S
Cd130 O134 2.352 . S
Cd130 O138 2.277 . S
Cd130 O139 2.356 . S
C131 O136 1.209 . S
C131 O138 1.226 . S
O132 Cd128 2.273 . S
O132 Cd130 2.411 . S
O132 C135 1.320 . S
O133 Cd130 2.333 . S
O133 C135 1.214 . S
O134 Cd130 2.352 . S
O134 C137 1.258 . S
C135 O132 1.320 . S
C135 O133 1.214 . S
O136 Cd128 2.277 . S
O136 C131 1.209 . S
C137 O134 1.258 . S
C137 O139 1.282 . S
O138 Cd130 2.277 . S
O138 C131 1.226 . S
O139 Cd130 2.356 . S
O139 C137 1.282 . S
C140 O141 1.306 . S
C140 O143 1.160 . S
O141 C140 1.306 . S
O141 Cd142 2.228 . S
Cd142 O141 2.228 . S
Cd142 O146 2.273 . S
Cd142 O150 2.277 . S
O143 C140 1.160 . S
O143 Cd144 2.203 . S
Cd144 O143 2.203 . S
Cd144 O146 2.411 . S
Cd144 O147 2.333 . S
Cd144 O148 2.352 . S
Cd144 O152 2.277 . S
Cd144 O153 2.356 . S
C145 O150 1.209 . S
C145 O152 1.226 . S
O146 Cd142 2.273 . S
O146 Cd144 2.411 . S
O146 C149 1.320 . S
O147 Cd144 2.333 . S
O147 C149 1.214 . S
O148 Cd144 2.352 . S
O148 C151 1.258 . S
C149 O146 1.320 . S
C149 O147 1.214 . S
O150 Cd142 2.277 . S
O150 C145 1.209 . S
C151 O148 1.258 . S
C151 O153 1.282 . S
O152 Cd144 2.277 . S
O152 C145 1.226 . S
O153 Cd144 2.356 . S
O153 C151 1.282 . S
C154 O155 1.306 . S
C154 O157 1.160 . S
O155 C154 1.306 . S
O155 Cd156 2.228 . S
Cd156 O155 2.228 . S
Cd156 O160 2.273 . S
Cd156 O164 2.277 . S
O157 C154 1.160 . S
O157 Cd158 2.203 . S
Cd158 O157 2.203 . S
Cd158 O160 2.411 . S
Cd158 O161 2.333 . S
Cd158 O162 2.352 . S
Cd158 O166 2.277 . S
Cd158 O167 2.356 . S
C159 O164 1.209 . S
C159 O166 1.226 . S
O160 Cd156 2.273 . S
O160 Cd158 2.411 . S
O160 C163 1.320 . S
O161 Cd158 2.333 . S
O161 C163 1.214 . S
O162 Cd158 2.352 . S
O162 C165 1.258 . S
C163 O160 1.320 . S
C163 O161 1.214 . S
O164 Cd156 2.277 . S
O164 C159 1.209 . S
C165 O162 1.258 . S
C165 O167 1.282 . S
O166 Cd158 2.277 . S
O166 C159 1.226 . S
O167 Cd158 2.356 . S
O167 C165 1.282 . S
C168 O169 1.306 . S
C168 O171 1.160 . S
O169 C168 1.306 . S
O169 Cd170 2.228 . S
Cd170 O169 2.228 . S
Cd170 O174 2.273 . S
Cd170 O178 2.277 . S
O171 C168 1.160 . S
O171 Cd172 2.203 . S
Cd172 O171 2.203 . S
Cd172 O174 2.411 . S
Cd172 O175 2.333 . S
Cd172 O176 2.352 . S
Cd172 O180 2.277 . S
Cd172 O181 2.356 . S
C173 O178 1.209 . S
C173 O180 1.226 . S
O174 Cd170 2.273 . S
O174 Cd172 2.411 . S
O174 C177 1.320 . S
O175 Cd172 2.333 . S
O175 C177 1.214 . S
O176 Cd172 2.352 . S
O176 C179 1.258 . S
C177 O174 1.320 . S
C177 O175 1.214 . S
O178 Cd170 2.277 . S
O178 C173 1.209 . S
C179 O176 1.258 . S
C179 O181 1.282 . S
O180 Cd172 2.277 . S
O180 C173 1.226 . S
O181 Cd172 2.356 . S
O181 C179 1.282 . S
C182 O183 1.306 . S
C182 O185 1.160 . S
O183 C182 1.306 . S
O183 Cd184 2.228 . S
Cd184 O183 2.228 . S
Cd184 O188 2.273 . S
Cd184 O192 2.277 . S
O185 C182 1.160 . S
O185 Cd186 2.203 . S
Cd186 O185 2.203 . S
Cd186 O188 2.411 . S
Cd186 O189 2.333 . S
Cd186 O190 2.352 . S
Cd186 O194 2.277 . S
Cd186 O195 2.356 . S
C187 O192 1.209 . S
C187 O194 1.226 . S
O188 Cd184 2.273 . S
O188 Cd186 2.411 . S
O188 C191 1.320 . S
O189 Cd186 2.333 . S
O189 C191 1.214 . S
O190 Cd186 2.352 . S
O190 C193 1.258 . S
C191 O188 1.320 . S
C191 O189 1.214 . S
O192 Cd184 2.277 . S
O192 C187 1.209 . S
C193 O190 1.258 . S
C193 O195 1.282 . S
O194 Cd186 2.277 . S
O194 C187 1.226 . S
O195 Cd186 2.356 . S
O195 C193 1.282 . S
C196 O197 1.306 . S
C196 O199 1.160 . S
O197 C196 1.306 . S
O197 Cd198 2.228 . S
Cd198 O197 2.228 . S
Cd198 O202 2.273 . S
Cd198 O206 2.277 . S
O199 C196 1.160 . S
O199 Cd200 2.203 . S
Cd200 O199 2.203 . S
Cd200 O202 2.411 . S
Cd200 O203 2.333 . S
Cd200 O204 2.352 . S
Cd200 O208 2.277 . S
Cd200 O209 2.356 . S
C201 O206 1.209 . S
C201 O208 1.226 . S
O202 Cd198 2.273 . S
O202 Cd200 2.411 . S
O202 C205 1.320 . S
O203 Cd200 2.333 . S
O203 C205 1.214 . S
O204 Cd200 2.352 . S
O204 C207 1.258 . S
C205 O202 1.320 . S
C205 O203 1.214 . S
O206 Cd198 2.277 . S
O206 C201 1.209 . S
C207 O204 1.258 . S
C207 O209 1.282 . S
O208 Cd200 2.277 . S
O208 C201 1.226 . S
O209 Cd200 2.356 . S
O209 C207 1.282 . S
C210 O211 1.306 . S
C210 O213 1.160 . S
O211 C210 1.306 . S
O211 Cd212 2.228 . S
Cd212 O211 2.228 . S
Cd212 O216 2.273 . S
Cd212 O220 2.277 . S
O213 C210 1.160 . S
O213 Cd214 2.203 . S
Cd214 O213 2.203 . S
Cd214 O216 2.411 . S
Cd214 O217 2.333 . S
Cd214 O218 2.352 . S
Cd214 O222 2.277 . S
Cd214 O223 2.356 . S
C215 O220 1.209 . S
C215 O222 1.226 . S
O216 Cd212 2.273 . S
O216 Cd214 2.411 . S
O216 C219 1.320 . S
O217 Cd214 2.333 . S
O217 C219 1.214 . S
O218 Cd214 2.352 . S
O218 C221 1.258 . S
C219 O216 1.320 . S
C219 O217 1.214 . S
O220 Cd212 2.277 . S
O220 C215 1.209 . S
C221 O218 1.258 . S
C221 O223 1.282 . S
O222 Cd214 2.277 . S
O222 C215 1.226 . S
O223 Cd214 2.356 . S
O223 C221 1.282 . S
C224 C225 1.387 . S
C224 H228 0.950 . S
C224 C233 1.390 . S
C225 C224 1.387 . S
C225 C227 1.387 . S
H226 C233 0.950 . S
C227 C225 1.387 . S
C227 C229 1.390 . S
C227 H231 0.950 . S
H228 C224 0.950 . S
C229 C227 1.390 . S
C229 C230 1.387 . S
C229 H232 0.950 . S
C230 C229 1.387 . S
C230 C233 1.387 . S
H231 C227 0.950 . S
H232 C229 0.950 . S
C233 C224 1.390 . S
C233 H226 0.950 . S
C233 C230 1.387 . S
C234 C235 1.387 . S
C234 H238 0.950 . S
C234 C243 1.390 . S
C235 C234 1.387 . S
C235 C237 1.387 . S
H236 C243 0.950 . S
C237 C235 1.387 . S
C237 C239 1.390 . S
C237 H241 0.950 . S
H238 C234 0.950 . S
C239 C237 1.390 . S
C239 C240 1.387 . S
C239 H242 0.950 . S
C240 C239 1.387 . S
C240 C243 1.387 . S
H241 C237 0.950 . S
H242 C239 0.950 . S
C243 C234 1.390 . S
C243 H236 0.950 . S
C243 C240 1.387 . S
C244 C245 1.387 . S
C244 H248 0.950 . S
C244 C253 1.390 . S
C245 C244 1.387 . S
C245 C247 1.387 . S
H246 C253 0.950 . S
C247 C245 1.387 . S
C247 C249 1.390 . S
C247 H251 0.950 . S
H248 C244 0.950 . S
C249 C247 1.390 . S
C249 C250 1.387 . S
C249 H252 0.950 . S
C250 C249 1.387 . S
C250 C253 1.387 . S
H251 C247 0.950 . S
H252 C249 0.950 . S
C253 C244 1.390 . S
C253 H246 0.950 . S
C253 C250 1.387 . S
C254 C255 1.387 . S
C254 H258 0.950 . S
C254 C263 1.390 . S
C255 C254 1.387 . S
C255 C257 1.387 . S
H256 C263 0.950 . S
C257 C255 1.387 . S
C257 C259 1.390 . S
C257 H261 0.950 . S
H258 C254 0.950 . S
C259 C257 1.390 . S
C259 C260 1.387 . S
C259 H262 0.950 . S
C260 C259 1.387 . S
C260 C263 1.387 . S
H261 C257 0.950 . S
H262 C259 0.950 . S
C263 C254 1.390 . S
C263 H256 0.950 . S
C263 C260 1.387 . S
C264 C265 1.387 . S
C264 H268 0.950 . S
C264 C273 1.390 . S
C265 C264 1.387 . S
C265 C267 1.387 . S
H266 C273 0.950 . S
C267 C265 1.387 . S
C267 C269 1.390 . S
C267 H271 0.950 . S
H268 C264 0.950 . S
C269 C267 1.390 . S
C269 C270 1.387 . S
C269 H272 0.950 . S
C270 C269 1.387 . S
C270 C273 1.387 . S
H271 C267 0.950 . S
H272 C269 0.950 . S
C273 C264 1.390 . S
C273 H266 0.950 . S
C273 C270 1.387 . S
C274 C275 1.387 . S
C274 H278 0.950 . S
C274 C283 1.390 . S
C275 C274 1.387 . S
C275 C277 1.387 . S
H276 C283 0.950 . S
C277 C275 1.387 . S
C277 C279 1.390 . S
C277 H281 0.950 . S
H278 C274 0.950 . S
C279 C277 1.390 . S
C279 C280 1.387 . S
C279 H282 0.950 . S
C280 C279 1.387 . S
C280 C283 1.387 . S
H281 C277 0.950 . S
H282 C279 0.950 . S
C283 C274 1.390 . S
C283 H276 0.950 . S
C283 C280 1.387 . S
C284 C285 1.387 . S
C284 H288 0.950 . S
C284 C293 1.390 . S
C285 C284 1.387 . S
C285 C287 1.387 . S
H286 C293 0.950 . S
C287 C285 1.387 . S
C287 C289 1.390 . S
C287 H291 0.950 . S
H288 C284 0.950 . S
C289 C287 1.390 . S
C289 C290 1.387 . S
C289 H292 0.950 . S
C290 C289 1.387 . S
C290 C293 1.387 . S
H291 C287 0.950 . S
H292 C289 0.950 . S
C293 C284 1.390 . S
C293 H286 0.950 . S
C293 C290 1.387 . S
C294 C295 1.387 . S
C294 H298 0.950 . S
C294 C303 1.390 . S
C295 C294 1.387 . S
C295 C297 1.387 . S
H296 C303 0.950 . S
C297 C295 1.387 . S
C297 C299 1.390 . S
C297 H301 0.950 . S
H298 C294 0.950 . S
C299 C297 1.390 . S
C299 C300 1.387 . S
C299 H302 0.950 . S
C300 C299 1.387 . S
C300 C303 1.387 . S
H301 C297 0.950 . S
H302 C299 0.950 . S
C303 C294 1.390 . S
C303 H296 0.950 . S
C303 C300 1.387 . S
C304 C305 1.387 . S
C304 H308 0.950 . S
C304 C313 1.390 1_565 S
C305 C304 1.387 . S
C305 C307 1.387 . S
H306 C313 0.950 . S
C307 C305 1.387 . S
C307 C309 1.390 1_565 S
C307 H311 0.950 . S
H308 C304 0.950 . S
C309 C307 1.390 1_545 S
C309 C310 1.387 . S
C309 H312 0.950 . S
C310 C309 1.387 . S
C310 C313 1.387 . S
H311 C307 0.950 . S
H312 C309 0.950 . S
C313 C304 1.390 1_545 S
C313 H306 0.950 . S
C313 C310 1.387 . S
C314 C315 1.387 . S
C314 H318 0.950 . S
C314 C323 1.390 . S
C315 C314 1.387 . S
C315 C317 1.387 . S
H316 C323 0.950 . S
C317 C315 1.387 . S
C317 C319 1.390 . S
C317 H321 0.950 . S
H318 C314 0.950 . S
C319 C317 1.390 . S
C319 C320 1.387 . S
C319 H322 0.950 . S
C320 C319 1.387 . S
C320 C323 1.387 . S
H321 C317 0.950 . S
H322 C319 0.950 . S
C323 C314 1.390 . S
C323 H316 0.950 . S
C323 C320 1.387 . S
C324 C325 1.387 . S
C324 H328 0.950 . S
C324 C333 1.390 1_556 S
C325 C324 1.387 . S
C325 C327 1.387 . S
H326 C333 0.950 . S
C327 C325 1.387 . S
C327 C329 1.390 1_556 S
C327 H331 0.950 . S
H328 C324 0.950 . S
C329 C327 1.390 1_554 S
C329 C330 1.387 . S
C329 H332 0.950 . S
C330 C329 1.387 . S
C330 C333 1.387 . S
H331 C327 0.950 . S
H332 C329 0.950 . S
C333 C324 1.390 1_554 S
C333 H326 0.950 . S
C333 C330 1.387 . S
C334 C335 1.387 . S
C334 H338 0.950 . S
C334 C343 1.390 1_554 S
C335 C334 1.387 . S
C335 C337 1.387 . S
H336 C343 0.950 . S
C337 C335 1.387 . S
C337 C339 1.390 1_554 S
C337 H341 0.950 . S
H338 C334 0.950 . S
C339 C337 1.390 1_556 S
C339 C340 1.387 . S
C339 H342 0.950 . S
C340 C339 1.387 . S
C340 C343 1.387 . S
H341 C337 0.950 . S
H342 C339 0.950 . S
C343 C334 1.390 1_556 S
C343 H336 0.950 . S
C343 C340 1.387 . S
C344 C345 1.387 . S
C344 H348 0.950 . S
C344 C353 1.390 . S
C345 C344 1.387 . S
C345 C347 1.387 . S
H346 C353 0.950 . S
C347 C345 1.387 . S
C347 C349 1.390 . S
C347 H351 0.950 . S
H348 C344 0.950 . S
C349 C347 1.390 . S
C349 C350 1.387 . S
C349 H352 0.950 . S
C350 C349 1.387 . S
C350 C353 1.387 . S
H351 C347 0.950 . S
H352 C349 0.950 . S
C353 C344 1.390 . S
C353 H346 0.950 . S
C353 C350 1.387 . S
C354 C355 1.387 . S
C354 H358 0.950 . S
C354 C363 1.390 . S
C355 C354 1.387 . S
C355 C357 1.387 . S
H356 C363 0.950 . S
C357 C355 1.387 . S
C357 C359 1.390 . S
C357 H361 0.950 . S
H358 C354 0.950 . S
C359 C357 1.390 . S
C359 C360 1.387 . S
C359 H362 0.950 . S
C360 C359 1.387 . S
C360 C363 1.387 . S
H361 C357 0.950 . S
H362 C359 0.950 . S
C363 C354 1.390 . S
C363 H356 0.950 . S
C363 C360 1.387 . S
C364 C365 1.387 . S
C364 H368 0.950 . S
C364 C373 1.390 1_655 S
C365 C364 1.387 . S
C365 C367 1.387 . S
H366 C373 0.950 . S
C367 C365 1.387 . S
C367 C369 1.390 1_655 S
C367 H371 0.950 . S
H368 C364 0.950 . S
C369 C367 1.390 1_455 S
C369 C370 1.387 . S
C369 H372 0.950 . S
C370 C369 1.387 . S
C370 C373 1.387 . S
H371 C367 0.950 . S
H372 C369 0.950 . S
C373 C364 1.390 1_455 S
C373 H366 0.950 . S
C373 C370 1.387 . S
C374 C375 1.387 . S
C374 H378 0.950 . S
C374 C383 1.390 1_655 S
C375 C374 1.387 . S
C375 C377 1.387 . S
H376 C383 0.950 . S
C377 C375 1.387 . S
C377 C379 1.390 1_655 S
C377 H381 0.950 . S
H378 C374 0.950 . S
C379 C377 1.390 1_455 S
C379 C380 1.387 . S
C379 H382 0.950 . S
C380 C379 1.387 . S
C380 C383 1.387 . S
H381 C377 0.950 . S
H382 C379 0.950 . S
C383 C374 1.390 1_455 S
C383 H376 0.950 . S
C383 C380 1.387 . S
C384 C385 1.387 . S
C384 H388 0.950 . S
C384 C393 1.390 . S
C385 C384 1.387 . S
C385 C387 1.387 . S
H386 C393 0.950 . S
C387 C385 1.387 . S
C387 C389 1.390 . S
C387 H391 0.950 . S
H388 C384 0.950 . S
C389 C387 1.390 . S
C389 C390 1.387 . S
C389 H392 0.950 . S
C390 C389 1.387 . S
C390 C393 1.387 . S
H391 C387 0.950 . S
H392 C389 0.950 . S
C393 C384 1.390 . S
C393 H386 0.950 . S
C393 C390 1.387 . S
C394 C395 1.387 . S
C394 H398 0.950 . S
C394 C403 1.390 1_545 S
C395 C394 1.387 . S
C395 C397 1.387 . S
H396 C403 0.950 . S
C397 C395 1.387 . S
C397 C399 1.390 1_545 S
C397 H401 0.950 . S
H398 C394 0.950 . S
C399 C397 1.390 1_565 S
C399 C400 1.387 . S
C399 H402 0.950 . S
C400 C399 1.387 . S
C400 C403 1.387 . S
H401 C397 0.950 . S
H402 C399 0.950 . S
C403 C394 1.390 1_565 S
C403 H396 0.950 . S
C403 C400 1.387 . S
C404 C405 1.387 . S
C404 H408 0.950 . S
C404 C413 1.390 . S
C405 C404 1.387 . S
C405 C407 1.387 . S
H406 C413 0.950 . S
C407 C405 1.387 . S
C407 C409 1.390 . S
C407 H411 0.950 . S
H408 C404 0.950 . S
C409 C407 1.390 . S
C409 C410 1.387 . S
C409 H412 0.950 . S
C410 C409 1.387 . S
C410 C413 1.387 . S
H411 C407 0.950 . S
H412 C409 0.950 . S
C413 C404 1.390 . S
C413 H406 0.950 . S
C413 C410 1.387 . S
C414 C415 1.387 . S
C414 H418 0.950 . S
C414 C423 1.390 1_554 S
C415 C414 1.387 . S
C415 C417 1.387 . S
H416 C423 0.950 . S
C417 C415 1.387 . S
C417 C419 1.390 1_554 S
C417 H421 0.950 . S
H418 C414 0.950 . S
C419 C417 1.390 1_556 S
C419 C420 1.387 . S
C419 H422 0.950 . S
C420 C419 1.387 . S
C420 C423 1.387 . S
H421 C417 0.950 . S
H422 C419 0.950 . S
C423 C414 1.390 1_556 S
C423 H416 0.950 . S
C423 C420 1.387 . S
C424 C425 1.387 . S
C424 H428 0.950 . S
C424 C433 1.390 1_556 S
C425 C424 1.387 . S
C425 C427 1.387 . S
H426 C433 0.950 . S
C427 C425 1.387 . S
C427 C429 1.390 1_556 S
C427 H431 0.950 . S
H428 C424 0.950 . S
C429 C427 1.390 1_554 S
C429 C430 1.387 . S
C429 H432 0.950 . S
C430 C429 1.387 . S
C430 C433 1.387 . S
H431 C427 0.950 . S
H432 C429 0.950 . S
C433 C424 1.390 1_554 S
C433 H426 0.950 . S
C433 C430 1.387 . S
C434 C435 1.387 . S
C434 H438 0.950 . S
C434 C443 1.390 . S
C435 C434 1.387 . S
C435 C437 1.387 . S
H436 C443 0.950 . S
C437 C435 1.387 . S
C437 C439 1.390 . S
C437 H441 0.950 . S
H438 C434 0.950 . S
C439 C437 1.390 . S
C439 C440 1.387 . S
C439 H442 0.950 . S
C440 C439 1.387 . S
C440 C443 1.387 . S
H441 C437 0.950 . S
H442 C439 0.950 . S
C443 C434 1.390 . S
C443 H436 0.950 . S
C443 C440 1.387 . S
C444 C445 1.387 . S
C444 H448 0.950 . S
C444 C453 1.390 . S
C445 C444 1.387 . S
C445 C447 1.387 . S
H446 C453 0.950 . S
C447 C445 1.387 . S
C447 C449 1.390 . S
C447 H451 0.950 . S
H448 C444 0.950 . S
C449 C447 1.390 . S
C449 C450 1.387 . S
C449 H452 0.950 . S
C450 C449 1.387 . S
C450 C453 1.387 . S
H451 C447 0.950 . S
H452 C449 0.950 . S
C453 C444 1.390 . S
C453 H446 0.950 . S
C453 C450 1.387 . S
C454 C455 1.387 . S
C454 H458 0.950 . S
C454 C463 1.390 1_455 S
C455 C454 1.387 . S
C455 C457 1.387 . S
H456 C463 0.950 . S
C457 C455 1.387 . S
C457 C459 1.390 1_455 S
C457 H461 0.950 . S
H458 C454 0.950 . S
C459 C457 1.390 1_655 S
C459 C460 1.387 . S
C459 H462 0.950 . S
C460 C459 1.387 . S
C460 C463 1.387 . S
H461 C457 0.950 . S
H462 C459 0.950 . S
C463 C454 1.390 1_655 S
C463 H456 0.950 . S
C463 C460 1.387 . S
C464 C465 1.387 . S
C464 H468 0.950 . S
C464 C473 1.390 1_455 S
C465 C464 1.387 . S
C465 C467 1.387 . S
H466 C473 0.950 . S
C467 C465 1.387 . S
C467 C469 1.390 1_455 S
C467 H471 0.950 . S
H468 C464 0.950 . S
C469 C467 1.390 1_655 S
C469 C470 1.387 . S
C469 H472 0.950 . S
C470 C469 1.387 . S
C470 C473 1.387 . S
H471 C467 0.950 . S
H472 C469 0.950 . S
C473 C464 1.390 1_655 S
C473 H466 0.950 . S
C473 C470 1.387 . S
C474 C475 1.387 . S
C474 H478 0.950 . S
C474 C483 1.390 . S
C475 C474 1.387 . S
C475 C477 1.387 . S
H476 C483 0.950 . S
C477 C475 1.387 . S
C477 C479 1.390 . S
C477 H481 0.950 . S
H478 C474 0.950 . S
C479 C477 1.390 . S
C479 C480 1.387 . S
C479 H482 0.950 . S
C480 C479 1.387 . S
C480 C483 1.387 . S
H481 C477 0.950 . S
H482 C479 0.950 . S
C483 C474 1.390 . S
C483 H476 0.950 . S
C483 C480 1.387 . S
C484 C485 1.387 . S
C484 H488 0.950 . S
C484 C493 1.390 . S
C485 C484 1.387 . S
C485 C487 1.387 . S
H486 C493 0.950 . S
C487 C485 1.387 . S
C487 C489 1.390 . S
C487 H491 0.950 . S
H488 C484 0.950 . S
C489 C487 1.390 . S
C489 C490 1.387 . S
C489 H492 0.950 . S
C490 C489 1.387 . S
C490 C493 1.387 . S
H491 C487 0.950 . S
H492 C489 0.950 . S
C493 C484 1.390 . S
C493 H486 0.950 . S
C493 C490 1.387 . S
C494 C495 1.387 . S
C494 H498 0.950 . S
C494 C503 1.390 1_545 S
C495 C494 1.387 . S
C495 C497 1.387 . S
H496 C503 0.950 . S
C497 C495 1.387 . S
C497 C499 1.390 1_545 S
C497 H501 0.950 . S
H498 C494 0.950 . S
C499 C497 1.390 1_565 S
C499 C500 1.387 . S
C499 H502 0.950 . S
C500 C499 1.387 . S
C500 C503 1.387 . S
H501 C497 0.950 . S
H502 C499 0.950 . S
C503 C494 1.390 1_565 S
C503 H496 0.950 . S
C503 C500 1.387 . S
C504 C505 1.387 . S
C504 H508 0.950 . S
C504 C513 1.390 . S
C505 C504 1.387 . S
C505 C507 1.387 . S
H506 C513 0.950 . S
C507 C505 1.387 . S
C507 C509 1.390 . S
C507 H511 0.950 . S
H508 C504 0.950 . S
C509 C507 1.390 . S
C509 C510 1.387 . S
C509 H512 0.950 . S
C510 C509 1.387 . S
C510 C513 1.387 . S
H511 C507 0.950 . S
H512 C509 0.950 . S
C513 C504 1.390 . S
C513 H506 0.950 . S
C513 C510 1.387 . S
C514 C515 1.387 . S
C514 H518 0.950 . S
C514 C523 1.390 . S
C515 C514 1.387 . S
C515 C517 1.387 . S
H516 C523 0.950 . S
C517 C515 1.387 . S
C517 C519 1.390 . S
C517 H521 0.950 . S
H518 C514 0.950 . S
C519 C517 1.390 . S
C519 C520 1.387 . S
C519 H522 0.950 . S
C520 C519 1.387 . S
C520 C523 1.387 . S
H521 C517 0.950 . S
H522 C519 0.950 . S
C523 C514 1.390 . S
C523 H516 0.950 . S
C523 C520 1.387 . S
C524 C525 1.387 . S
C524 H528 0.950 . S
C524 C533 1.390 1_545 S
C525 C524 1.387 . S
C525 C527 1.387 . S
H526 C533 0.950 . S
C527 C525 1.387 . S
C527 C529 1.390 1_545 S
C527 H531 0.950 . S
H528 C524 0.950 . S
C529 C527 1.390 1_565 S
C529 C530 1.387 . S
C529 H532 0.950 . S
C530 C529 1.387 . S
C530 C533 1.387 . S
H531 C527 0.950 . S
H532 C529 0.950 . S
C533 C524 1.390 1_565 S
C533 H526 0.950 . S
C533 C530 1.387 . S
C534 C535 1.387 . S
C534 H538 0.950 . S
C534 C543 1.390 . S
C535 C534 1.387 . S
C535 C537 1.387 . S
H536 C543 0.950 . S
C537 C535 1.387 . S
C537 C539 1.390 . S
C537 H541 0.950 . S
H538 C534 0.950 . S
C539 C537 1.390 . S
C539 C540 1.387 . S
C539 H542 0.950 . S
C540 C539 1.387 . S
C540 C543 1.387 . S
H541 C537 0.950 . S
H542 C539 0.950 . S
C543 C534 1.390 . S
C543 H536 0.950 . S
C543 C540 1.387 . S
C225 C9 1.228 . S
C230 C191 1.208 . S
C235 C23 1.228 . S
C240 C135 1.208 . S
C245 C205 1.209 . S
C250 C37 1.228 . S
C255 C51 1.227 . S
C260 C219 1.207 . S
C265 C65 1.228 . S
C270 C93 1.209 . S
C275 C149 1.228 . S
C280 C79 1.210 . S
C285 C163 1.228 . S
C290 C107 1.209 . S
C295 C121 1.209 . S
C300 C177 1.228 . S
C305 C33 1.620 . S
C310 C5 1.620 . S
C315 C19 1.620 . S
C320 C47 1.620 . S
C325 C179 1.699 . S
C330 C11 1.699 . S
C335 C25 1.699 . S
C340 C165 1.699 . S
C345 C67 1.697 . S
C350 C39 1.697 . S
C355 C151 1.699 . S
C360 C53 1.699 . S
C365 C14 1.457 . S
C370 C0 1.457 . S
C375 C42 1.459 . S
C380 C28 1.459 . S
C385 C140 1.457 . S
C390 C56 1.457 . S
C395 C109 1.561 . S
C400 C81 1.561 . S
C405 C95 1.561 . S
C410 C123 1.561 . S
C415 C215 1.775 . S
C420 C75 1.775 . S
C425 C89 1.775 . S
C430 C201 1.775 . S
C435 C131 1.773 . S
C440 C103 1.773 . S
C445 C117 1.773 . S
C450 C187 1.773 . S
C455 C84 1.502 . S
C460 C70 1.502 . S
C465 C112 1.502 . S
C470 C98 1.502 . S
C475 C126 1.504 . S
C480 C182 1.504 . S
C485 C145 1.620 . S
C490 C159 1.620 . S
C495 C173 1.620 . S
C500 C61 1.620 . S
C505 C168 1.459 . S
C510 C154 1.459 . S
C515 C207 1.561 . S
C520 C193 1.561 . S
C525 C137 1.561 . S
C530 C221 1.561 . S
C535 C210 1.502 . S
C540 C196 1.502 . S
