# Generated by pormake.
# Topology bcu-i, (5)-cn, num edge types: 1
# Building blocks:
#     Node 0, Type 0, BuildingBlock: XOMCOT_clean_sbu_0, # of connection points: 5
#     Node 1, Type 0, BuildingBlock: XOMCOT_clean_sbu_0, # of connection points: 5
#     Node 2, Type 0, BuildingBlock: XOMCOT_clean_sbu_0, # of connection points: 5
#     Node 3, Type 0, BuildingBlock: XOMCOT_clean_sbu_0, # of connection points: 5
#     Node 4, Type 0, BuildingBlock: XOMCOT_clean_sbu_0, # of connection points: 5
#     Node 5, Type 0, BuildingBlock: XOMCOT_clean_sbu_0, # of connection points: 5
#     Node 6, Type 0, BuildingBlock: XOMCOT_clean_sbu_0, # of connection points: 5
#     Node 7, Type 0, BuildingBlock: XOMCOT_clean_sbu_0, # of connection points: 5
#     Node 8, Type 0, BuildingBlock: XOMCOT_clean_sbu_0, # of connection points: 5
#     Node 9, Type 0, BuildingBlock: XOMCOT_clean_sbu_0, # of connection points: 5
#     Node 10, Type 0, BuildingBlock: XOMCOT_clean_sbu_0, # of connection points: 5
#     Node 11, Type 0, BuildingBlock: XOMCOT_clean_sbu_0, # of connection points: 5
#     Node 12, Type 0, BuildingBlock: XOMCOT_clean_sbu_0, # of connection points: 5
#     Node 13, Type 0, BuildingBlock: XOMCOT_clean_sbu_0, # of connection points: 5
#     Node 14, Type 0, BuildingBlock: XOMCOT_clean_sbu_0, # of connection points: 5
#     Node 15, Type 0, BuildingBlock: XOMCOT_clean_sbu_0, # of connection points: 5
#     Edge 16, Type (0, 0), BuildingBlock: UVAHIK_clean_linker_0, # of connection points: 2
#     Edge 17, Type (0, 0), BuildingBlock: UVAHIK_clean_linker_0, # of connection points: 2
#     Edge 18, Type (0, 0), BuildingBlock: UVAHIK_clean_linker_0, # of connection points: 2
#     Edge 19, Type (0, 0), BuildingBlock: UVAHIK_clean_linker_0, # of connection points: 2
#     Edge 20, Type (0, 0), BuildingBlock: UVAHIK_clean_linker_0, # of connection points: 2
#     Edge 21, Type (0, 0), BuildingBlock: UVAHIK_clean_linker_0, # of connection points: 2
#     Edge 22, Type (0, 0), BuildingBlock: UVAHIK_clean_linker_0, # of connection points: 2
#     Edge 23, Type (0, 0), BuildingBlock: UVAHIK_clean_linker_0, # of connection points: 2
#     Edge 24, Type (0, 0), BuildingBlock: UVAHIK_clean_linker_0, # of connection points: 2
#     Edge 25, Type (0, 0), BuildingBlock: UVAHIK_clean_linker_0, # of connection points: 2
#     Edge 26, Type (0, 0), BuildingBlock: UVAHIK_clean_linker_0, # of connection points: 2
#     Edge 27, Type (0, 0), BuildingBlock: UVAHIK_clean_linker_0, # of connection points: 2
#     Edge 28, Type (0, 0), BuildingBlock: UVAHIK_clean_linker_0, # of connection points: 2
#     Edge 29, Type (0, 0), BuildingBlock: UVAHIK_clean_linker_0, # of connection points: 2
#     Edge 30, Type (0, 0), BuildingBlock: UVAHIK_clean_linker_0, # of connection points: 2
#     Edge 31, Type (0, 0), BuildingBlock: UVAHIK_clean_linker_0, # of connection points: 2
#     Edge 32, Type (0, 0), BuildingBlock: UVAHIK_clean_linker_0, # of connection points: 2
#     Edge 33, Type (0, 0), BuildingBlock: UVAHIK_clean_linker_0, # of connection points: 2
#     Edge 34, Type (0, 0), BuildingBlock: UVAHIK_clean_linker_0, # of connection points: 2
#     Edge 35, Type (0, 0), BuildingBlock: UVAHIK_clean_linker_0, # of connection points: 2
#     Edge 36, Type (0, 0), BuildingBlock: UVAHIK_clean_linker_0, # of connection points: 2
#     Edge 37, Type (0, 0), BuildingBlock: UVAHIK_clean_linker_0, # of connection points: 2
#     Edge 38, Type (0, 0), BuildingBlock: UVAHIK_clean_linker_0, # of connection points: 2
#     Edge 39, Type (0, 0), BuildingBlock: UVAHIK_clean_linker_0, # of connection points: 2
#     Edge 40, Type (0, 0), BuildingBlock: UVAHIK_clean_linker_0, # of connection points: 2
#     Edge 41, Type (0, 0), BuildingBlock: UVAHIK_clean_linker_0, # of connection points: 2
#     Edge 42, Type (0, 0), BuildingBlock: UVAHIK_clean_linker_0, # of connection points: 2
#     Edge 43, Type (0, 0), BuildingBlock: UVAHIK_clean_linker_0, # of connection points: 2
#     Edge 44, Type (0, 0), BuildingBlock: UVAHIK_clean_linker_0, # of connection points: 2
#     Edge 45, Type (0, 0), BuildingBlock: UVAHIK_clean_linker_0, # of connection points: 2
#     Edge 46, Type (0, 0), BuildingBlock: UVAHIK_clean_linker_0, # of connection points: 2
#     Edge 47, Type (0, 0), BuildingBlock: UVAHIK_clean_linker_0, # of connection points: 2
#     Edge 48, Type (0, 0), BuildingBlock: UVAHIK_clean_linker_0, # of connection points: 2
#     Edge 49, Type (0, 0), BuildingBlock: UVAHIK_clean_linker_0, # of connection points: 2
#     Edge 50, Type (0, 0), BuildingBlock: UVAHIK_clean_linker_0, # of connection points: 2
#     Edge 51, Type (0, 0), BuildingBlock: UVAHIK_clean_linker_0, # of connection points: 2
#     Edge 52, Type (0, 0), BuildingBlock: UVAHIK_clean_linker_0, # of connection points: 2
#     Edge 53, Type (0, 0), BuildingBlock: UVAHIK_clean_linker_0, # of connection points: 2
#     Edge 54, Type (0, 0), BuildingBlock: UVAHIK_clean_linker_0, # of connection points: 2
#     Edge 55, Type (0, 0), BuildingBlock: UVAHIK_clean_linker_0, # of connection points: 2
# Relax obj value: 0.514
# Max RMSD: 0.244
# Mean RMSD: 0.244
data_MOF--net-bcu-i--node1-XOMCOT_clean_sbu_0--edge1-UVAHIK_clean_linker_0
_symmetry_space_group_name_H-M    P1
_symmetry_Int_Tables_number       1
_symmetry_cell_setting            triclinic
loop_
_symmetry_equiv_pos_as_xyz
'x, y, z'
_cell_length_a     56.036421
_cell_length_b     56.060747
_cell_length_c     62.937772
_cell_angle_alpha  90.022489
_cell_angle_beta   89.981315
_cell_angle_gamma 90.071928
loop_
_atom_site_label
_atom_site_type_symbol
_atom_site_fract_x
_atom_site_fract_y
_atom_site_fract_z
_atom_type_partial_charge
Co0 Co 0.23387 0.07775 0.39645 0.0
C1 C 0.1855 0.09647 0.39037 0.0
C2 C 0.1847 0.0614 0.4041 0.0
C3 C 0.16161 0.06953 0.40223 0.0
N4 N 0.19955 0.07831 0.39658 0.0
N5 N 0.16222 0.09161 0.3937 0.0
H6 H 0.19225 0.11296 0.38375 0.0
H7 H 0.19026 0.04462 0.41095 0.0
C8 C 0.24343 0.02766 0.38124 0.0
O9 O 0.2589 0.03584 0.36732 0.0
N10 N 0.26858 0.07717 0.39688 0.0
C11 C 0.2842 0.09518 0.39347 0.0
C12 C 0.30698 0.0873 0.3978 0.0
C13 C 0.28208 0.05906 0.40413 0.0
N14 N 0.30552 0.06447 0.40425 0.0
C15 C 0.2428 0.10218 0.35742 0.0
C16 C 0.22152 0.06901 0.33093 0.0
C17 C 0.23341 0.08856 0.32206 0.0
C18 C 0.24344 0.10567 0.33557 0.0
C19 C 0.22085 0.06653 0.353 0.0
N20 N 0.23308 0.08201 0.36584 0.0
H21 H 0.24991 0.1159 0.36753 0.0
H22 H 0.21076 0.05194 0.35972 0.0
H23 H 0.27958 0.11329 0.38945 0.0
H24 H 0.27484 0.04266 0.41047 0.0
O25 O 0.23418 0.11077 0.40496 0.0
O26 O 0.23368 0.07994 0.42704 0.0
O27 O 0.23262 0.04189 0.39385 0.0
C28 C 0.23325 0.10298 0.42441 0.0
H29 H 0.14569 0.06029 0.40747 0.0
H30 H 0.32321 0.09774 0.39695 0.0
H31 H 0.21288 0.05586 0.32092 0.0
H32 H 0.25231 0.12135 0.32929 0.0
Co33 Co 0.90356 0.2454 0.37963 0.0
C34 C 0.87891 0.19813 0.37752 0.0
C35 C 0.90528 0.20233 0.3531 0.0
C36 C 0.89459 0.18038 0.35064 0.0
N37 N 0.89533 0.21358 0.36986 0.0
N38 N 0.8781 0.17782 0.36606 0.0
H39 H 0.86744 0.20155 0.39096 0.0
H40 H 0.91932 0.20965 0.34326 0.0
C41 C 0.95803 0.24458 0.38222 0.0
O42 O 0.95956 0.26708 0.38777 0.0
N43 N 0.91128 0.27741 0.38923 0.0
C44 C 0.90601 0.29825 0.37951 0.0
C45 C 0.91195 0.31685 0.39279 0.0
C46 C 0.91921 0.28368 0.40867 0.0
N47 N 0.92011 0.30755 0.4111 0.0
C48 C 0.88279 0.255 0.33942 0.0
C49 C 0.9221 0.27752 0.32181 0.0
C50 C 0.90038 0.27778 0.31088 0.0
C51 C 0.88077 0.26562 0.31949 0.0
C52 C 0.92343 0.26645 0.34156 0.0
N53 N 0.90368 0.25619 0.35044 0.0
H54 H 0.86731 0.24663 0.34647 0.0
H55 H 0.93987 0.26781 0.35024 0.0
H56 H 0.89761 0.30001 0.36414 0.0
H57 H 0.92456 0.27099 0.42072 0.0
O58 O 0.87064 0.25186 0.38709 0.0
O59 O 0.89781 0.23605 0.40852 0.0
O60 O 0.93792 0.23504 0.37787 0.0
C61 C 0.8761 0.24368 0.40585 0.0
H62 H 0.89885 0.16718 0.33868 0.0
H63 H 0.90977 0.33568 0.38954 0.0
H64 H 0.93758 0.28678 0.31559 0.0
H65 H 0.86362 0.26563 0.31156 0.0
Co66 Co 0.76452 0.90687 0.40723 0.0
C67 C 0.81301 0.88874 0.40072 0.0
C68 C 0.81355 0.92245 0.41696 0.0
C69 C 0.83673 0.91477 0.41432 0.0
N70 N 0.79883 0.90612 0.40832 0.0
N71 N 0.83629 0.89355 0.40416 0.0
H72 H 0.80637 0.87302 0.39266 0.0
H73 H 0.80786 0.93866 0.42477 0.0
C74 C 0.7554 0.95695 0.39246 0.0
O75 O 0.74031 0.94859 0.37829 0.0
N76 N 0.72979 0.9075 0.40675 0.0
C77 C 0.71429 0.88937 0.4033 0.0
C78 C 0.69142 0.89706 0.40765 0.0
C79 C 0.71611 0.92548 0.41403 0.0
N80 N 0.69273 0.91989 0.4141 0.0
C81 C 0.75627 0.88419 0.36719 0.0
C82 C 0.77921 0.91796 0.34244 0.0
C83 C 0.76683 0.89934 0.3326 0.0
C84 C 0.75601 0.88184 0.34521 0.0
C85 C 0.77951 0.91925 0.36459 0.0
N86 N 0.76645 0.90359 0.37656 0.0
H87 H 0.74834 0.87032 0.37663 0.0
H88 H 0.78978 0.93325 0.37207 0.0
H89 H 0.71909 0.87128 0.39936 0.0
H90 H 0.72315 0.94188 0.42055 0.0
O91 O 0.76387 0.87362 0.41485 0.0
O92 O 0.76328 0.90379 0.43775 0.0
O93 O 0.76592 0.94282 0.40535 0.0
C94 C 0.7635 0.88084 0.43449 0.0
H95 H 0.85261 0.92383 0.41987 0.0
H96 H 0.67526 0.8865 0.40687 0.0
H97 H 0.78839 0.93138 0.33312 0.0
H98 H 0.74672 0.86686 0.33812 0.0
Co99 Co 0.09306 0.74049 0.38364 0.0
C100 C 0.11886 0.78663 0.37703 0.0
C101 C 0.0942 0.77893 0.3519 0.0
C102 C 0.10537 0.80025 0.34747 0.0
N103 N 0.10275 0.77029 0.3704 0.0
N104 N 0.12078 0.80504 0.36335 0.0
H105 H 0.12928 0.78519 0.39139 0.0
H106 H 0.08076 0.77026 0.34227 0.0
C107 C 0.03828 0.74107 0.37874 0.0
O108 O 0.0354 0.71852 0.38365 0.0
N109 N 0.08375 0.71081 0.39692 0.0
C110 C 0.09285 0.68894 0.39309 0.0
C111 C 0.08242 0.67287 0.40682 0.0
C112 C 0.06893 0.70797 0.41355 0.0
N113 N 0.06719 0.68491 0.41943 0.0
C114 C 0.11836 0.72594 0.34693 0.0
C115 C 0.0841 0.69508 0.33116 0.0
C116 C 0.10669 0.69567 0.32181 0.0
C117 C 0.12371 0.71185 0.32934 0.0
C118 C 0.07929 0.70994 0.34839 0.0
N119 N 0.09659 0.72449 0.35653 0.0
H120 H 0.13209 0.73733 0.35349 0.0
H121 H 0.06229 0.70829 0.356 0.0
H122 H 0.10615 0.68493 0.38116 0.0
H123 H 0.05924 0.72248 0.42092 0.0
O124 O 0.12482 0.73539 0.39462 0.0
O125 O 0.09585 0.75476 0.41139 0.0
O126 O 0.05906 0.75041 0.37748 0.0
C127 C 0.11768 0.7468 0.4115 0.0
H128 H 0.10208 0.81158 0.33386 0.0
H129 H 0.08533 0.65379 0.40714 0.0
H130 H 0.07065 0.68258 0.32574 0.0
H131 H 0.14147 0.7125 0.32255 0.0
Co132 Co 0.24914 0.91572 0.57901 0.0
C133 C 0.20029 0.89445 0.58316 0.0
C134 C 0.20401 0.92761 0.59984 0.0
C135 C 0.18124 0.9192 0.60298 0.0
N136 N 0.21596 0.9122 0.58731 0.0
N137 N 0.17892 0.89836 0.59249 0.0
H138 H 0.20423 0.87899 0.57357 0.0
H139 H 0.21147 0.94369 0.60663 0.0
C140 C 0.2539 0.97003 0.57251 0.0
O141 O 0.27694 0.96978 0.56877 0.0
N142 N 0.28242 0.91894 0.57111 0.0
C143 C 0.30157 0.91218 0.58264 0.0
C144 C 0.32191 0.9159 0.57084 0.0
C145 C 0.29129 0.92554 0.55209 0.0
N146 N 0.31533 0.92421 0.55166 0.0
C147 C 0.2529 0.8993 0.62149 0.0
C148 C 0.2774 0.93828 0.63741 0.0
C149 C 0.27405 0.91827 0.65037 0.0
C150 C 0.26103 0.89885 0.64239 0.0
C151 C 0.26901 0.93796 0.6166 0.0
N152 N 0.25751 0.91838 0.60873 0.0
H153 H 0.24361 0.88393 0.61521 0.0
H154 H 0.27318 0.9529 0.60661 0.0
H155 H 0.30094 0.90465 0.59844 0.0
H156 H 0.2804 0.93182 0.53904 0.0
O157 O 0.25242 0.88164 0.5753 0.0
O158 O 0.24135 0.90718 0.55023 0.0
O159 O 0.24256 0.9509 0.57686 0.0
C160 C 0.24598 0.88527 0.55567 0.0
H161 H 0.16768 0.92752 0.61271 0.0
H162 H 0.34007 0.91251 0.57583 0.0
H163 H 0.28722 0.95369 0.64303 0.0
H164 H 0.25826 0.88291 0.65179 0.0
Co165 Co 0.08323 0.24194 0.60644 0.0
C166 C 0.10977 0.19603 0.60874 0.0
C167 C 0.0813 0.19742 0.63143 0.0
C168 C 0.09272 0.17575 0.63337 0.0
N169 N 0.09191 0.21009 0.61584 0.0
N170 N 0.11052 0.17494 0.61897 0.0
H171 H 0.12246 0.20109 0.59667 0.0
H172 H 0.06634 0.20351 0.64083 0.0
C173 C 0.02898 0.24454 0.6141 0.0
O174 O 0.0279 0.26778 0.61187 0.0
N175 N 0.07518 0.27372 0.59699 0.0
C176 C 0.08544 0.29443 0.60304 0.0
C177 C 0.07548 0.3128 0.59153 0.0
C178 C 0.06008 0.27958 0.58124 0.0
N179 N 0.05934 0.30335 0.57808 0.0
C180 C 0.11242 0.25074 0.64228 0.0
C181 C 0.08063 0.27942 0.66409 0.0
C182 C 0.10422 0.27778 0.67116 0.0
C183 C 0.11999 0.26251 0.66059 0.0
C184 C 0.0737 0.26704 0.64592 0.0
N185 N 0.0898 0.25376 0.63476 0.0
H186 H 0.12511 0.24014 0.63346 0.0
H187 H 0.05594 0.26968 0.6402 0.0
H188 H 0.09926 0.29611 0.61495 0.0
H189 H 0.04944 0.26671 0.57257 0.0
O190 O 0.11441 0.24657 0.59398 0.0
O191 O 0.08306 0.23117 0.57737 0.0
O192 O 0.04894 0.23348 0.61344 0.0
C193 C 0.10544 0.2374 0.5767 0.0
H194 H 0.08804 0.16158 0.64429 0.0
H195 H 0.07936 0.33163 0.59322 0.0
H196 H 0.06797 0.291 0.672 0.0
H197 H 0.13842 0.26092 0.66559 0.0
Co198 Co 0.74712 0.08779 0.58336 0.0
C199 C 0.79565 0.10763 0.59225 0.0
C200 C 0.78905 0.07465 0.6085 0.0
C201 C 0.81113 0.08296 0.61447 0.0
N202 N 0.7793 0.09007 0.59454 0.0
N203 N 0.81523 0.10369 0.60426 0.0
H204 H 0.79306 0.12346 0.58274 0.0
H205 H 0.78038 0.05879 0.61451 0.0
C206 C 0.76023 0.03934 0.56958 0.0
O207 O 0.76695 0.04892 0.55151 0.0
N208 N 0.71497 0.0854 0.57266 0.0
C209 C 0.69555 0.09681 0.58024 0.0
C210 C 0.67595 0.08993 0.56854 0.0
C211 C 0.70716 0.07227 0.55617 0.0
N212 N 0.68343 0.07469 0.55341 0.0
C213 C 0.73957 0.10594 0.62497 0.0
C214 C 0.70805 0.07059 0.63766 0.0
C215 C 0.71163 0.09048 0.65073 0.0
C216 C 0.7282 0.10791 0.64457 0.0
C217 C 0.72003 0.06915 0.61832 0.0
N218 N 0.73491 0.08709 0.61197 0.0
H219 H 0.75137 0.12004 0.61974 0.0
H220 H 0.71608 0.0544 0.60783 0.0
H221 H 0.69562 0.10913 0.59347 0.0
H222 H 0.7185 0.06098 0.54656 0.0
O223 O 0.74611 0.12182 0.57807 0.0
O224 O 0.75839 0.09453 0.55509 0.0
O225 O 0.75039 0.0522 0.58378 0.0
C226 C 0.75409 0.11683 0.55916 0.0
H227 H 0.82316 0.07449 0.6256 0.0
H228 H 0.65773 0.09581 0.57075 0.0
H229 H 0.69535 0.05682 0.64195 0.0
H230 H 0.73119 0.12368 0.65417 0.0
Co231 Co 0.9121 0.7596 0.6138 0.0
C232 C 0.89052 0.80819 0.61298 0.0
C233 C 0.91814 0.80534 0.63637 0.0
C234 C 0.90876 0.82805 0.63726 0.0
N235 N 0.90649 0.79277 0.62129 0.0
N236 N 0.89148 0.82972 0.62245 0.0
H237 H 0.87809 0.80398 0.60046 0.0
H238 H 0.93245 0.79845 0.64613 0.0
C239 C 0.96582 0.75728 0.60524 0.0
O240 O 0.96575 0.73404 0.60287 0.0
N241 N 0.91721 0.72643 0.60629 0.0
C242 C 0.91295 0.7068 0.61816 0.0
C243 C 0.91735 0.68682 0.606 0.0
C244 C 0.92284 0.71809 0.58685 0.0
N245 N 0.92344 0.69407 0.58634 0.0
C246 C 0.8971 0.75512 0.65658 0.0
C247 C 0.93732 0.73195 0.67149 0.0
C248 C 0.91692 0.73296 0.6843 0.0
C249 C 0.89703 0.74571 0.67705 0.0
C250 C 0.93671 0.74181 0.65117 0.0
N251 N 0.91634 0.75213 0.64361 0.0
H252 H 0.88117 0.76367 0.65065 0.0
H253 H 0.95195 0.73924 0.64112 0.0
H254 H 0.90671 0.70682 0.63441 0.0
H255 H 0.92732 0.72945 0.57352 0.0
O256 O 0.87816 0.75385 0.61138 0.0
O257 O 0.90184 0.76569 0.58511 0.0
O258 O 0.9468 0.76852 0.61026 0.0
C259 C 0.88059 0.75954 0.59145 0.0
H260 H 0.91437 0.84229 0.64775 0.0
H261 H 0.91594 0.66843 0.61111 0.0
H262 H 0.95305 0.72233 0.67662 0.0
H263 H 0.88083 0.74677 0.6864 0.0
Co264 Co 0.7316 0.59579 0.88478 0.0
C265 C 0.68543 0.61856 0.87303 0.0
C266 C 0.69183 0.58638 0.85552 0.0
C267 C 0.67078 0.59626 0.8485 0.0
N268 N 0.70099 0.60031 0.87097 0.0
N269 N 0.66681 0.61648 0.85955 0.0
H270 H 0.68793 0.63356 0.88357 0.0
H271 H 0.70015 0.57041 0.84937 0.0
C272 C 0.73747 0.54154 0.88751 0.0
O273 O 0.75933 0.5429 0.89485 0.0
N274 N 0.76246 0.59207 0.89837 0.0
C275 C 0.78364 0.6006 0.89142 0.0
C276 C 0.8007 0.59661 0.9067 0.0
C277 C 0.76675 0.58419 0.91824 0.0
N278 N 0.78998 0.58638 0.92352 0.0
C279 C 0.74554 0.61839 0.8464 0.0
C280 C 0.77617 0.58286 0.83272 0.0
C281 C 0.77653 0.60504 0.82258 0.0
C282 C 0.76023 0.62259 0.8289 0.0
C283 C 0.76101 0.57931 0.84996 0.0
N284 N 0.74689 0.59739 0.85724 0.0
H285 H 0.73409 0.63252 0.85208 0.0
H286 H 0.76237 0.56275 0.8584 0.0
H287 H 0.78653 0.6098 0.87656 0.0
H288 H 0.75322 0.57651 0.92845 0.0
O289 O 0.73289 0.62914 0.8928 0.0
O290 O 0.71705 0.6 0.91214 0.0
O291 O 0.72595 0.5603 0.88224 0.0
C292 C 0.7225 0.62246 0.91036 0.0
H293 H 0.65933 0.58911 0.8362 0.0
H294 H 0.81942 0.60131 0.90574 0.0
H295 H 0.78845 0.56887 0.82812 0.0
H296 H 0.76006 0.63999 0.82143 0.0
Co297 Co 0.406 0.75617 0.87914 0.0
C298 C 0.37395 0.71425 0.8737 0.0
C299 C 0.4018 0.71477 0.85036 0.0
C300 C 0.38834 0.69449 0.84742 0.0
N301 N 0.39286 0.72716 0.86693 0.0
N302 N 0.37096 0.69415 0.86221 0.0
H303 H 0.36264 0.71914 0.88688 0.0
H304 H 0.41744 0.71962 0.84131 0.0
C305 C 0.45614 0.75916 0.8609 0.0
O306 O 0.45482 0.78246 0.85893 0.0
N307 N 0.41911 0.785 0.89142 0.0
C308 C 0.40916 0.80688 0.89282 0.0
C309 C 0.42441 0.8217 0.90377 0.0
C310 C 0.43984 0.78666 0.90213 0.0
N311 N 0.44375 0.80895 0.90935 0.0
C312 C 0.3759 0.78677 0.85507 0.0
C313 C 0.40254 0.78765 0.81818 0.0
C314 C 0.38326 0.80332 0.82037 0.0
C315 C 0.36934 0.8021 0.83876 0.0
C316 C 0.40853 0.77257 0.835 0.0
N317 N 0.39623 0.77348 0.85376 0.0
H318 H 0.36499 0.78649 0.86916 0.0
H319 H 0.42311 0.76043 0.8327 0.0
H320 H 0.39183 0.81187 0.88692 0.0
H321 H 0.45172 0.77174 0.90479 0.0
O322 O 0.37771 0.76049 0.89633 0.0
O323 O 0.40986 0.74042 0.9062 0.0
O324 O 0.4382 0.7471 0.86738 0.0
C325 C 0.38862 0.74812 0.91085 0.0
H326 H 0.39178 0.68056 0.83591 0.0
H327 H 0.4215 0.84035 0.90739 0.0
H328 H 0.41326 0.78748 0.80386 0.0
H329 H 0.35361 0.81312 0.84066 0.0
Co330 Co 0.26025 0.42011 0.89301 0.0
C331 C 0.30781 0.39859 0.88501 0.0
C332 C 0.30623 0.43452 0.87358 0.0
C333 C 0.32869 0.4256 0.86959 0.0
N334 N 0.29319 0.41764 0.88351 0.0
N335 N 0.32966 0.40298 0.87687 0.0
H336 H 0.30249 0.38157 0.89146 0.0
H337 H 0.29994 0.45209 0.86932 0.0
C338 C 0.25038 0.47369 0.89619 0.0
O339 O 0.2275 0.47064 0.89969 0.0
N340 N 0.22739 0.42191 0.90254 0.0
C341 C 0.20737 0.41473 0.89239 0.0
C342 C 0.18803 0.41834 0.90557 0.0
C343 C 0.22007 0.42853 0.92206 0.0
N344 N 0.19621 0.42684 0.92419 0.0
C345 C 0.25534 0.3991 0.85236 0.0
C346 C 0.22673 0.43393 0.83456 0.0
C347 C 0.23053 0.41263 0.82349 0.0
C348 C 0.24576 0.39546 0.83221 0.0
C349 C 0.23692 0.43699 0.85458 0.0
N350 N 0.25017 0.41924 0.86359 0.0
H351 H 0.26607 0.3852 0.85942 0.0
H352 H 0.23258 0.45288 0.86322 0.0
H353 H 0.20671 0.40712 0.87662 0.0
H354 H 0.23188 0.43543 0.93421 0.0
O355 O 0.25929 0.38638 0.89931 0.0
O356 O 0.27043 0.41478 0.92184 0.0
O357 O 0.26413 0.45595 0.89264 0.0
C358 C 0.26693 0.3922 0.91817 0.0
H359 H 0.34319 0.43519 0.86209 0.0
H360 H 0.16949 0.41485 0.90187 0.0
H361 H 0.21507 0.4476 0.82824 0.0
H362 H 0.24896 0.37866 0.82419 0.0
Co363 Co 0.58916 0.252 0.87932 0.0
C364 C 0.61223 0.29994 0.87515 0.0
C365 C 0.58515 0.29381 0.85169 0.0
C366 C 0.59508 0.31588 0.8481 0.0
N367 N 0.59592 0.28374 0.86861 0.0
N368 N 0.61207 0.31968 0.86287 0.0
H369 H 0.6244 0.29734 0.88825 0.0
H370 H 0.57119 0.28552 0.84238 0.0
C371 C 0.53466 0.25027 0.88119 0.0
O372 O 0.53426 0.22902 0.88984 0.0
N373 N 0.58306 0.21993 0.88982 0.0
C374 C 0.5897 0.19911 0.88073 0.0
C375 C 0.5844 0.18063 0.89431 0.0
C376 C 0.57515 0.21381 0.90933 0.0
N377 N 0.57532 0.18998 0.91226 0.0
C378 C 0.61241 0.24159 0.84029 0.0
C379 C 0.57497 0.21647 0.82224 0.0
C380 C 0.59714 0.21675 0.81205 0.0
C381 C 0.6158 0.23017 0.82085 0.0
C382 C 0.57225 0.22836 0.84151 0.0
N383 N 0.59111 0.23992 0.85063 0.0
H384 H 0.62715 0.25101 0.84754 0.0
H385 H 0.55551 0.22663 0.84974 0.0
H386 H 0.59852 0.19728 0.86555 0.0
H387 H 0.56878 0.22652 0.92096 0.0
O388 O 0.62198 0.24794 0.88829 0.0
O389 O 0.59275 0.26302 0.908 0.0
O390 O 0.5543 0.26007 0.87571 0.0
C391 C 0.61495 0.25647 0.90652 0.0
H392 H 0.59006 0.32826 0.83568 0.0
H393 H 0.58744 0.16184 0.89144 0.0
H394 H 0.56017 0.2063 0.81583 0.0
H395 H 0.63324 0.23066 0.81343 0.0
Co396 Co 0.71976 0.40123 0.10292 0.0
C397 C 0.67443 0.37533 0.11263 0.0
C398 C 0.67963 0.40615 0.13232 0.0
C399 C 0.65904 0.39485 0.13867 0.0
N400 N 0.68931 0.39394 0.116 0.0
N401 N 0.65583 0.37548 0.12629 0.0
H402 H 0.67741 0.36146 0.101 0.0
H403 H 0.68733 0.42193 0.13946 0.0
C404 C 0.69639 0.4469 0.0949 0.0
O405 O 0.68342 0.43516 0.08103 0.0
N406 N 0.75029 0.40864 0.09045 0.0
C407 C 0.7706 0.39605 0.09275 0.0
C408 C 0.78909 0.40883 0.08387 0.0
C409 C 0.75654 0.42873 0.08022 0.0
N410 N 0.7802 0.42945 0.07619 0.0
C411 C 0.73425 0.38123 0.14238 0.0
C412 C 0.76301 0.41927 0.15411 0.0
C413 C 0.76398 0.39808 0.16577 0.0
C414 C 0.74874 0.3792 0.1603 0.0
C415 C 0.74808 0.42068 0.13651 0.0
N416 N 0.73466 0.4015 0.13047 0.0
H417 H 0.72363 0.36614 0.13736 0.0
H418 H 0.74867 0.4366 0.12687 0.0
H419 H 0.772 0.37924 0.10108 0.0
H420 H 0.74408 0.44268 0.0761 0.0
O421 O 0.72444 0.36805 0.09522 0.0
O422 O 0.70712 0.3954 0.07501 0.0
O423 O 0.71229 0.43602 0.10562 0.0
C424 C 0.71461 0.37361 0.07714 0.0
H425 H 0.64736 0.40042 0.15144 0.0
H426 H 0.80772 0.40377 0.08383 0.0
H427 H 0.77456 0.43418 0.15795 0.0
H428 H 0.74922 0.36246 0.16888 0.0
Co429 Co 0.60766 0.75713 0.11637 0.0
C430 C 0.62552 0.70701 0.11958 0.0
C431 C 0.60901 0.71918 0.14835 0.0
C432 C 0.61666 0.69613 0.1514 0.0
N433 N 0.61472 0.7261 0.12846 0.0
N434 N 0.62695 0.68856 0.13327 0.0
H435 H 0.63238 0.70644 0.10355 0.0
H436 H 0.59978 0.73014 0.15986 0.0
C437 C 0.55455 0.76369 0.12564 0.0
O438 O 0.55383 0.78521 0.11751 0.0
N439 N 0.60094 0.78827 0.10435 0.0
C440 C 0.6124 0.80899 0.10862 0.0
C441 C 0.60659 0.82557 0.09332 0.0
C442 C 0.58897 0.79242 0.08616 0.0
N443 N 0.59189 0.81497 0.07937 0.0
C444 C 0.64132 0.76831 0.14787 0.0
C445 C 0.61398 0.80083 0.17024 0.0
C446 C 0.63831 0.79845 0.17506 0.0
C447 C 0.65179 0.78139 0.16409 0.0
C448 C 0.60408 0.7871 0.15391 0.0
N449 N 0.61807 0.77183 0.14249 0.0
H450 H 0.6522 0.756 0.1389 0.0
H451 H 0.58572 0.79 0.14952 0.0
H452 H 0.62566 0.81147 0.12089 0.0
H453 H 0.57941 0.77886 0.07734 0.0
O454 O 0.63757 0.75762 0.10115 0.0
O455 O 0.60358 0.74287 0.08868 0.0
O456 O 0.57421 0.75237 0.12721 0.0
C457 C 0.62604 0.74774 0.08551 0.0
H458 H 0.61436 0.68558 0.16565 0.0
H459 H 0.61405 0.84329 0.0916 0.0
H460 H 0.60297 0.81371 0.17849 0.0
H461 H 0.67068 0.77911 0.1671 0.0
Co462 Co 0.28312 0.58951 0.10691 0.0
C463 C 0.32955 0.61253 0.11693 0.0
C464 C 0.33031 0.57508 0.1236 0.0
C465 C 0.3521 0.58471 0.12882 0.0
N466 N 0.31612 0.59251 0.11605 0.0
N467 N 0.35174 0.60833 0.12455 0.0
H468 H 0.32326 0.62982 0.11196 0.0
H469 H 0.3253 0.55661 0.12553 0.0
C470 C 0.27143 0.53721 0.11265 0.0
O471 O 0.25017 0.5427 0.11999 0.0
N472 N 0.25023 0.58672 0.09753 0.0
C473 C 0.23114 0.60026 0.10267 0.0
C474 C 0.21138 0.59169 0.09208 0.0
C475 C 0.24197 0.57088 0.08321 0.0
N476 N 0.21826 0.57302 0.08013 0.0
C477 C 0.26347 0.61197 0.14377 0.0
C478 C 0.26682 0.57311 0.17062 0.0
C479 C 0.25402 0.59316 0.17712 0.0
C480 C 0.25336 0.61321 0.16395 0.0
C481 C 0.27721 0.57291 0.15048 0.0
N482 N 0.27344 0.59129 0.13659 0.0
H483 H 0.26237 0.62743 0.13363 0.0
H484 H 0.28782 0.55769 0.14616 0.0
H485 H 0.23124 0.61543 0.11317 0.0
H486 H 0.25308 0.55774 0.07541 0.0
O487 O 0.28229 0.62301 0.09963 0.0
O488 O 0.29267 0.59376 0.07778 0.0
O489 O 0.28624 0.55361 0.10753 0.0
C490 C 0.28936 0.61646 0.08082 0.0
H491 H 0.36691 0.57486 0.13543 0.0
H492 H 0.1933 0.59829 0.09346 0.0
H493 H 0.26841 0.55765 0.18084 0.0
H494 H 0.24404 0.62925 0.16876 0.0
Co495 Co 0.39477 0.23729 0.1068 0.0
C496 C 0.37138 0.28468 0.11371 0.0
C497 C 0.39521 0.27502 0.13892 0.0
C498 C 0.38545 0.29686 0.14356 0.0
N499 N 0.38655 0.2674 0.12013 0.0
N500 N 0.37043 0.30295 0.12771 0.0
H501 H 0.3609 0.28383 0.09934 0.0
H502 H 0.40773 0.2653 0.1487 0.0
C503 C 0.44703 0.2295 0.12057 0.0
O504 O 0.44737 0.2067 0.11589 0.0
N505 N 0.40293 0.20733 0.09355 0.0
C506 C 0.39153 0.1862 0.09518 0.0
C507 C 0.40326 0.16971 0.08271 0.0
C508 C 0.4206 0.20375 0.07946 0.0
N509 N 0.4217 0.18081 0.07312 0.0
C510 C 0.35954 0.22492 0.13647 0.0
C511 C 0.38454 0.1903 0.15835 0.0
C512 C 0.36016 0.19346 0.16256 0.0
C513 C 0.34784 0.21145 0.15175 0.0
C514 C 0.39567 0.20438 0.1429 0.0
N515 N 0.38293 0.22091 0.13176 0.0
H516 H 0.34947 0.23805 0.1277 0.0
H517 H 0.41403 0.20097 0.13925 0.0
H518 H 0.37588 0.18293 0.10481 0.0
H519 H 0.43277 0.21763 0.07437 0.0
O520 O 0.36564 0.23718 0.09059 0.0
O521 O 0.39977 0.25334 0.07996 0.0
O522 O 0.42796 0.24183 0.11873 0.0
C523 C 0.37745 0.24857 0.07597 0.0
H524 H 0.38948 0.30755 0.15742 0.0
H525 H 0.39893 0.15096 0.08123 0.0
H526 H 0.39474 0.17671 0.16652 0.0
H527 H 0.32894 0.21436 0.15425 0.0
C528 C 0.23795 0.98893 0.36205 0.0
C529 C 0.23605 0.00239 0.38078 0.0
C530 C 0.2279 0.9661 0.36088 0.0
C531 C 0.18139 0.92948 0.38741 0.0
H532 H 0.20677 0.87889 0.352 0.0
C533 C 0.14073 0.83506 0.3859 0.0
C534 C 0.13569 0.82582 0.36564 0.0
C535 C 0.1546 0.85562 0.38815 0.0
C536 C 0.19948 0.89293 0.36188 0.0
H537 H 0.22362 0.00206 0.41339 0.0
H538 H 0.20709 0.96196 0.41171 0.0
H539 H 0.22907 0.91615 0.35585 0.0
H540 H 0.14177 0.83042 0.3319 0.0
H541 H 0.16624 0.86639 0.33584 0.0
H542 H 0.152 0.90609 0.39364 0.0
C543 C 0.21543 0.96924 0.39761 0.0
C544 C 0.21218 0.9143 0.36405 0.0
C545 C 0.2251 0.99216 0.39865 0.0
C546 C 0.1452 0.8373 0.34768 0.0
C547 C 0.15935 0.85771 0.34994 0.0
C548 C 0.1689 0.90804 0.38546 0.0
C549 C 0.21605 0.95616 0.37853 0.0
C550 C 0.20323 0.93292 0.37678 0.0
C551 C 0.16396 0.8672 0.3702 0.0
C552 C 0.17774 0.88961 0.3726 0.0
H553 H 0.24616 0.99645 0.34798 0.0
H554 H 0.22856 0.95672 0.34585 0.0
H555 H 0.17356 0.94355 0.39691 0.0
H556 H 0.1335 0.82671 0.40001 0.0
H557 H 0.158 0.8625 0.40395 0.0
C558 C 0.14514 0.13216 0.39222 0.0
C559 C 0.14231 0.10734 0.39034 0.0
C560 C 0.12558 0.14736 0.3899 0.0
C561 C 0.05982 0.14724 0.39293 0.0
H562 H 0.06553 0.20859 0.36488 0.0
C563 C 0.97802 0.20547 0.37556 0.0
C564 C 0.9798 0.22978 0.38085 0.0
C565 C 0.99821 0.19097 0.37547 0.0
C566 C 0.06375 0.19158 0.37289 0.0
H567 H 0.11701 0.07904 0.38382 0.0
H568 H 0.08288 0.10554 0.37947 0.0
H569 H 0.10011 0.18216 0.36673 0.0
H570 H 0.00438 0.25806 0.38962 0.0
H571 H 0.03976 0.23261 0.38946 0.0
H572 H 0.02348 0.1566 0.39902 0.0
C573 C 0.1001 0.11325 0.38323 0.0
C574 C 0.08353 0.17645 0.37398 0.0
C575 C 0.11963 0.09806 0.38568 0.0
C576 C 0.00239 0.23941 0.38549 0.0
C577 C 0.02266 0.22487 0.38532 0.0
C578 C 0.04006 0.16228 0.39175 0.0
C579 C 0.10279 0.13807 0.38554 0.0
C580 C 0.08178 0.1541 0.38402 0.0
C581 C 0.02069 0.20044 0.38061 0.0
C582 C 0.0418 0.18459 0.38171 0.0
H583 H 0.16233 0.13981 0.39612 0.0
H584 H 0.12823 0.16634 0.3921 0.0
H585 H 0.05797 0.13039 0.40118 0.0
H586 H 0.96093 0.19745 0.37177 0.0
H587 H 0.99622 0.17228 0.37146 0.0
C588 C 0.76085 0.99531 0.37286 0.0
C589 C 0.76276 0.98221 0.39178 0.0
C590 C 0.77066 0.01819 0.37139 0.0
C591 C 0.81636 0.0562 0.39758 0.0
H592 H 0.79136 0.10456 0.35962 0.0
C593 C 0.85707 0.15064 0.39058 0.0
C594 C 0.86298 0.15749 0.36975 0.0
C595 C 0.84298 0.13048 0.39421 0.0
C596 C 0.7985 0.09117 0.37026 0.0
H597 H 0.77508 0.98321 0.42439 0.0
H598 H 0.79116 0.02351 0.42223 0.0
H599 H 0.76902 0.06763 0.36505 0.0
H600 H 0.85823 0.14915 0.33643 0.0
H601 H 0.83323 0.11398 0.34277 0.0
H602 H 0.84563 0.08005 0.40299 0.0
C603 C 0.78297 0.01588 0.4082 0.0
C604 C 0.7858 0.06995 0.37332 0.0
C605 C 0.77357 0.99285 0.40953 0.0
C606 C 0.8541 0.1441 0.35262 0.0
C607 C 0.83967 0.12416 0.35624 0.0
C608 C 0.82881 0.07756 0.39479 0.0
C609 C 0.78225 0.02863 0.38894 0.0
C610 C 0.79473 0.05202 0.38681 0.0
C611 C 0.8342 0.11704 0.37707 0.0
C612 C 0.82016 0.09509 0.38091 0.0
H613 H 0.75279 0.98747 0.35885 0.0
H614 H 0.77 0.02721 0.3562 0.0
H615 H 0.82416 0.0427 0.40772 0.0
H616 H 0.86382 0.16057 0.40406 0.0
H617 H 0.83894 0.12536 0.41042 0.0
C618 C 0.85393 0.85383 0.39782 0.0
C619 C 0.85636 0.87876 0.39868 0.0
C620 C 0.87351 0.83941 0.39302 0.0
C621 C 0.93938 0.83989 0.39346 0.0
H622 H 0.9322 0.78223 0.35996 0.0
C623 C 0.01996 0.78116 0.37239 0.0
C624 C 0.01712 0.75661 0.3763 0.0
C625 C 0.00024 0.79636 0.37243 0.0
C626 C 0.93443 0.79823 0.36941 0.0
H627 H 0.88106 0.90816 0.39458 0.0
H628 H 0.91525 0.88305 0.38597 0.0
H629 H 0.89798 0.80854 0.36515 0.0
H630 H 0.99115 0.72867 0.38235 0.0
H631 H 0.95674 0.75528 0.38242 0.0
H632 H 0.97576 0.82953 0.39781 0.0
C633 C 0.8983 0.87458 0.38943 0.0
C634 C 0.91484 0.81328 0.37243 0.0
C635 C 0.87873 0.88899 0.39436 0.0
C636 C 0.99398 0.74748 0.37931 0.0
C637 C 0.97424 0.76271 0.37927 0.0
C638 C 0.95896 0.82493 0.39034 0.0
C639 C 0.89598 0.8496 0.38887 0.0
C640 C 0.91703 0.83418 0.38467 0.0
C641 C 0.97724 0.78738 0.37628 0.0
C642 C 0.95666 0.80384 0.37844 0.0
H643 H 0.83701 0.84539 0.40138 0.0
H644 H 0.87115 0.82024 0.3931 0.0
H645 H 0.94163 0.8556 0.40328 0.0
H646 H 0.03749 0.7888 0.36986 0.0
H647 H 0.00306 0.81524 0.36975 0.0
C648 C 0.13641 0.15245 0.59432 0.0
C649 C 0.12671 0.15556 0.61475 0.0
C650 C 0.15192 0.13359 0.59006 0.0
C651 C 0.16849 0.07408 0.60981 0.0
H652 H 0.22194 0.08132 0.57113 0.0
C653 C 0.21586 0.99271 0.57535 0.0
C654 C 0.24094 0.99285 0.57476 0.0
C655 C 0.20322 0.01348 0.57981 0.0
C656 C 0.20722 0.07907 0.58211 0.0
H657 H 0.12613 0.14158 0.64682 0.0
H658 H 0.15335 0.10863 0.63945 0.0
H659 H 0.19812 0.11614 0.58086 0.0
H660 H 0.2724 0.01518 0.57754 0.0
H661 H 0.25017 0.0517 0.58554 0.0
H662 H 0.17768 0.03717 0.61133 0.0
C663 C 0.14864 0.12061 0.62663 0.0
C664 C 0.19342 0.09896 0.58752 0.0
C665 C 0.13303 0.13946 0.63087 0.0
C666 C 0.25308 0.01452 0.57786 0.0
C667 C 0.24036 0.03541 0.58243 0.0
C668 C 0.18226 0.05427 0.60444 0.0
C669 C 0.15815 0.11737 0.60613 0.0
C670 C 0.17374 0.09663 0.60127 0.0
C671 C 0.21529 0.03496 0.58391 0.0
C672 C 0.20158 0.05645 0.5903 0.0
H673 H 0.1316 0.16429 0.58143 0.0
H674 H 0.15853 0.13138 0.57401 0.0
H675 H 0.15334 0.07157 0.62027 0.0
H676 H 0.20591 0.97639 0.57272 0.0
H677 H 0.18391 0.01264 0.58026 0.0
C678 C 0.84834 0.11978 0.62582 0.0
C679 C 0.83579 0.11892 0.60652 0.0
C680 C 0.86851 0.13423 0.62798 0.0
C681 C 0.90037 0.18528 0.60317 0.0
H682 H 0.954 0.16082 0.63536 0.0
C683 C 0.98451 0.24229 0.61814 0.0
C684 C 0.00662 0.23067 0.61631 0.0
C685 C 0.96327 0.22918 0.61856 0.0
C686 C 0.93926 0.16788 0.62619 0.0
H687 H 0.83453 0.13249 0.57433 0.0
H688 H 0.87004 0.1574 0.57788 0.0
H689 H 0.91795 0.13694 0.63206 0.0
H690 H 0.02377 0.19607 0.6139 0.0
H691 H 0.98684 0.17331 0.61419 0.0
H692 H 0.92208 0.21577 0.59654 0.0
C693 C 0.86403 0.14731 0.59154 0.0
C694 C 0.91843 0.1543 0.62454 0.0
C695 C 0.84371 0.13299 0.58945 0.0
C696 C 0.00706 0.20561 0.61541 0.0
C697 C 0.98584 0.19253 0.61569 0.0
C698 C 0.92128 0.19879 0.60471 0.0
C699 C 0.87675 0.14804 0.61082 0.0
C700 C 0.89874 0.16278 0.61293 0.0
C701 C 0.96365 0.20414 0.61703 0.0
C702 C 0.94104 0.19021 0.61615 0.0
H703 H 0.8424 0.10949 0.63937 0.0
H704 H 0.87752 0.13472 0.64319 0.0
H705 H 0.88547 0.19252 0.59434 0.0
H706 H 0.98353 0.26156 0.61898 0.0
H707 H 0.94654 0.23869 0.62001 0.0
C708 C 0.86911 0.8542 0.59677 0.0
C709 C 0.8767 0.84999 0.61769 0.0
C710 C 0.85429 0.8735 0.5921 0.0
C711 C 0.83333 0.93131 0.61418 0.0
H712 H 0.78637 0.92605 0.56913 0.0
C713 C 0.76703 0.00678 0.59607 0.0
C714 C 0.76765 0.01474 0.57488 0.0
C715 C 0.77757 0.98514 0.60172 0.0
C716 C 0.79941 0.92772 0.58174 0.0
H717 H 0.87447 0.86235 0.65019 0.0
H718 H 0.84803 0.89573 0.64227 0.0
H719 H 0.81042 0.89138 0.57865 0.0
H720 H 0.77833 0.00543 0.5428 0.0
H721 H 0.79633 0.96733 0.55268 0.0
H722 H 0.82198 0.96758 0.61739 0.0
C723 C 0.85402 0.88456 0.6293 0.0
C724 C 0.81333 0.90794 0.58714 0.0
C725 C 0.86914 0.86542 0.63389 0.0
C726 C 0.77766 -0.00014 0.55927 0.0
C727 C 0.7879 0.97803 0.5649 0.0
C728 C 0.81917 0.95093 0.609 0.0
C729 C 0.84642 0.88889 0.60831 0.0
C730 C 0.83071 0.90956 0.60326 0.0
C731 C 0.78857 0.97082 0.58626 0.0
C732 C 0.80226 0.9494 0.59259 0.0
H733 H 0.87493 0.84275 0.58393 0.0
H734 H 0.84932 0.87651 0.5757 0.0
H735 H 0.84677 0.93345 0.62639 0.0
H736 H 0.75936 0.01774 0.60849 0.0
H737 H 0.77762 0.97983 0.61827 0.0
C738 C 0.98862 0.79568 0.60529 0.0
C739 C 0.98841 0.77074 0.60293 0.0
C740 C 0.00977 0.80854 0.60279 0.0
C741 C 0.07505 0.80268 0.60434 0.0
H742 H 0.07349 0.86272 0.57377 0.0
C743 C 0.16013 0.85859 0.5884 0.0
C744 C 0.15806 0.8833 0.59179 0.0
C745 C 0.13986 0.84401 0.58831 0.0
C746 C 0.07419 0.84608 0.58249 0.0
H747 H 0.01033 0.73976 0.59617 0.0
H748 H 0.0473 0.76233 0.59176 0.0
H749 H 0.03732 0.83875 0.57656 0.0
H750 H 0.13294 0.91208 0.5972 0.0
H751 H 0.09777 0.88669 0.59749 0.0
H752 H 0.11187 0.8102 0.61052 0.0
C753 C 0.03108 0.77185 0.59569 0.0
C754 C 0.05347 0.83235 0.58408 0.0
C755 C 0.00988 0.75895 0.59813 0.0
C756 C 0.13524 0.89311 0.59482 0.0
C757 C 0.11502 0.87857 0.59471 0.0
C758 C 0.0958 0.81644 0.60277 0.0
C759 C 0.03121 0.7968 0.59789 0.0
C760 C 0.05359 0.81065 0.59525 0.0
C761 C 0.11708 0.85385 0.59154 0.0
C762 C 0.09551 0.83845 0.59206 0.0
H763 H 0.97244 0.80535 0.60905 0.0
H764 H 0.00936 0.82771 0.60492 0.0
H765 H 0.07565 0.78614 0.61321 0.0
H766 H 0.17743 0.8504 0.5862 0.0
H767 H 0.14203 0.82505 0.58565 0.0
C768 C 0.70164 0.51647 0.87956 0.0
C769 C 0.72605 0.51796 0.8845 0.0
C770 C 0.69059 0.49435 0.87698 0.0
C771 C 0.69751 0.43005 0.88917 0.0
H772 H 0.64819 0.42369 0.84635 0.0
C773 C 0.63365 0.35364 0.84696 0.0
C774 C 0.62692 0.34052 0.86499 0.0
C775 C 0.64734 0.37434 0.84899 0.0
C776 C 0.66213 0.42499 0.85821 0.0
H777 H 0.75805 0.4973 0.89049 0.0
H778 H 0.73886 0.4586 0.88546 0.0
H779 H 0.66943 0.46121 0.84995 0.0
H780 H 0.62937 0.33867 0.89929 0.0
H781 H 0.6528 0.37515 0.90297 0.0
H782 H 0.69062 0.39353 0.89699 0.0
C783 C 0.72815 0.47458 0.88399 0.0
C784 C 0.67408 0.44668 0.8605 0.0
C785 C 0.73919 0.49677 0.88675 0.0
C786 C 0.63449 0.34832 0.8851 0.0
C787 C 0.64799 0.36919 0.88718 0.0
C788 C 0.68565 0.40824 0.88677 0.0
C789 C 0.7037 0.4731 0.87906 0.0
C790 C 0.69176 0.4496 0.87614 0.0
C791 C 0.6544 0.38259 0.86915 0.0
C792 C 0.66769 0.40548 0.87135 0.0
H793 H 0.69091 0.53242 0.87792 0.0
H794 H 0.67164 0.49393 0.87364 0.0
H795 H 0.71087 0.43169 0.90151 0.0
H796 H 0.62845 0.3478 0.83123 0.0
H797 H 0.65239 0.38386 0.83471 0.0
C798 C 0.50007 0.75889 0.85272 0.0
C799 C 0.47865 0.74642 0.85621 0.0
C800 C 0.52156 0.7465 0.8501 0.0
C801 C 0.54608 0.68626 0.8385 0.0
H802 H 0.60111 0.70872 0.87005 0.0
C803 C 0.63935 0.64662 0.87447 0.0
C804 C 0.64714 0.6328 0.85718 0.0
C805 C 0.62003 0.66215 0.8723 0.0
C806 C 0.58588 0.70217 0.8612 0.0
H807 H 0.46292 0.71113 0.85905 0.0
H808 H 0.50016 0.68973 0.85473 0.0
H809 H 0.56477 0.7326 0.86945 0.0
H810 H 0.64118 0.62503 0.82386 0.0
H811 H 0.60755 0.65224 0.82 0.0
H812 H 0.56672 0.65534 0.83105 0.0
C813 C 0.50046 0.70902 0.85376 0.0
C814 C 0.56515 0.71602 0.86062 0.0
C815 C 0.47908 0.72134 0.85641 0.0
C816 C 0.63536 0.63511 0.83758 0.0
C817 C 0.6161 0.65073 0.83537 0.0
C818 C 0.56676 0.6724 0.83913 0.0
C819 C 0.52202 0.72141 0.85082 0.0
C820 C 0.54486 0.70802 0.84957 0.0
C821 C 0.60808 0.66432 0.85275 0.0
C822 C 0.58678 0.67999 0.85077 0.0
H823 H 0.50034 0.77821 0.85252 0.0
H824 H 0.53785 0.75656 0.84766 0.0
H825 H 0.53088 0.67972 0.8296 0.0
H826 H 0.64783 0.64502 0.88985 0.0
H827 H 0.61408 0.672 0.88613 0.0
C828 C 0.28508 0.50166 0.89509 0.0
C829 C 0.26026 0.49808 0.89466 0.0
C830 C 0.29462 0.52454 0.89314 0.0
C831 C 0.28201 0.58334 0.87121 0.0
H832 H 0.33467 0.60326 0.90708 0.0
C833 C 0.34691 0.65985 0.84997 0.0
C834 C 0.35454 0.67495 0.86644 0.0
C835 C 0.33251 0.64009 0.85434 0.0
C836 C 0.3198 0.59809 0.8971 0.0
H837 H 0.22595 0.51573 0.89201 0.0
H838 H 0.24275 0.55583 0.88838 0.0
H839 H 0.31508 0.56509 0.91368 0.0
H840 H 0.35261 0.68141 0.9004 0.0
H841 H 0.32739 0.647 0.90799 0.0
H842 H 0.28706 0.6162 0.85438 0.0
C843 C 0.25474 0.54084 0.89023 0.0
C844 C 0.30874 0.57616 0.90076 0.0
C845 C 0.24516 0.51792 0.89241 0.0
C846 C 0.34688 0.67027 0.88731 0.0
C847 C 0.33263 0.65043 0.8917 0.0
C848 C 0.29322 0.60522 0.86742 0.0
C849 C 0.27956 0.54434 0.89055 0.0
C850 C 0.28995 0.56842 0.88768 0.0
C851 C 0.32559 0.63494 0.87531 0.0
C852 C 0.31241 0.61268 0.88019 0.0
H853 H 0.29721 0.48677 0.89693 0.0
H854 H 0.31383 0.52669 0.89322 0.0
H855 H 0.26765 0.57774 0.86081 0.0
H856 H 0.35232 0.66315 0.83372 0.0
H857 H 0.3275 0.62836 0.8414 0.0
C858 C 0.3688 0.39046 0.86222 0.0
C859 C 0.3497 0.3868 0.87636 0.0
C860 C 0.38818 0.37477 0.86186 0.0
C861 C 0.41815 0.32849 0.89447 0.0
H862 H 0.449 0.31241 0.8412 0.0
C863 C 0.49123 0.25648 0.88881 0.0
C864 C 0.51216 0.2636 0.87824 0.0
C865 C 0.47058 0.27036 0.88753 0.0
C866 C 0.44057 0.31682 0.85619 0.0
H867 H 0.33645 0.36368 0.90148 0.0
H868 H 0.36949 0.33602 0.90018 0.0
H869 H 0.4146 0.3391 0.84118 0.0
H870 H 0.52754 0.29034 0.85737 0.0
H871 H 0.49141 0.31435 0.855 0.0
H872 H 0.44401 0.30599 0.9094 0.0
C873 C 0.36975 0.35124 0.8896 0.0
C874 C 0.42096 0.3322 0.85621 0.0
C875 C 0.35052 0.36701 0.8901 0.0
C876 C 0.51174 0.28439 0.86576 0.0
C877 C 0.49102 0.2981 0.8643 0.0
C878 C 0.43758 0.31295 0.8944 0.0
C879 C 0.38888 0.35495 0.87554 0.0
C880 C 0.40957 0.33833 0.87538 0.0
C881 C 0.47037 0.29144 0.87546 0.0
C882 C 0.44906 0.30705 0.87528 0.0
H883 H 0.36878 0.40533 0.85129 0.0
H884 H 0.40274 0.37838 0.85101 0.0
H885 H 0.41015 0.33315 0.90958 0.0
H886 H 0.49098 0.24057 0.89857 0.0
H887 H 0.4548 0.26471 0.89614 0.0
C888 C 0.64794 0.65245 0.1455 0.0
C889 C 0.63673 0.6653 0.12919 0.0
C890 C 0.65688 0.6296 0.1417 0.0
C891 C 0.67277 0.58749 0.09809 0.0
H892 H 0.66486 0.53998 0.14232 0.0
C893 C 0.67877 0.48586 0.08377 0.0
C894 C 0.69219 0.47258 0.09843 0.0
C895 C 0.67425 0.51002 0.08734 0.0
C896 C 0.66742 0.55314 0.12993 0.0
H897 H 0.62596 0.66437 0.09616 0.0
H898 H 0.64089 0.62426 0.08959 0.0
H899 H 0.65247 0.58094 0.1489 0.0
H900 H 0.71163 0.4742 0.12821 0.0
H901 H 0.7033 0.5164 0.13462 0.0
H902 H 0.68689 0.55924 0.0789 0.0
C903 C 0.64345 0.63199 0.10519 0.0
C904 C 0.66042 0.57665 0.13369 0.0
C905 C 0.6348 0.65496 0.10894 0.0
C906 C 0.70121 0.48398 0.11664 0.0
C907 C 0.69639 0.50807 0.12035 0.0
C908 C 0.67949 0.56389 0.09425 0.0
C909 C 0.65451 0.61895 0.12156 0.0
C910 C 0.66288 0.59413 0.11779 0.0
C911 C 0.6828 0.52127 0.10577 0.0
C912 C 0.67676 0.54649 0.1101 0.0
H913 H 0.64997 0.66018 0.16116 0.0
H914 H 0.66572 0.62033 0.15457 0.0
H915 H 0.67537 0.60053 0.08561 0.0
H916 H 0.67168 0.4776 0.06955 0.0
H917 H 0.66357 0.51978 0.07594 0.0
C918 C 0.53323 0.72748 0.13891 0.0
C919 C 0.53215 0.75077 0.13065 0.0
C920 C 0.51268 0.71354 0.14044 0.0
C921 C 0.44714 0.71361 0.14073 0.0
H922 H 0.45478 0.65099 0.11542 0.0
C923 C 0.36738 0.64996 0.12427 0.0
C924 C 0.37111 0.62527 0.12702 0.0
C925 C 0.38634 0.66612 0.12583 0.0
C926 C 0.45236 0.66823 0.12287 0.0
H927 H 0.50828 0.77818 0.11886 0.0
H928 H 0.4722 0.7537 0.12174 0.0
H929 H 0.48872 0.67791 0.11726 0.0
H930 H 0.39828 0.59875 0.13411 0.0
H931 H 0.43074 0.62678 0.1375 0.0
H932 H 0.41075 0.70376 0.14657 0.0
C933 C 0.48908 0.74632 0.1269 0.0
C934 C 0.47183 0.6837 0.12385 0.0
C935 C 0.50975 0.76031 0.12525 0.0
C936 C 0.39434 0.61743 0.13187 0.0
C937 C 0.41321 0.63359 0.13359 0.0
C938 C 0.42761 0.69799 0.13993 0.0
C939 C 0.49052 0.72254 0.13387 0.0
C940 C 0.46949 0.70648 0.1329 0.0
C941 C 0.40955 0.65811 0.13032 0.0
C942 C 0.43004 0.67504 0.13108 0.0
H943 H 0.55011 0.71959 0.14345 0.0
H944 H 0.51424 0.69541 0.14625 0.0
H945 H 0.44488 0.73107 0.14783 0.0
H946 H 0.34989 0.65702 0.12079 0.0
H947 H 0.38287 0.68486 0.12304 0.0
C948 C 0.26336 0.49338 0.11686 0.0
C949 C 0.27931 0.51204 0.1122 0.0
C950 C 0.27137 0.46975 0.11753 0.0
C951 C 0.32525 0.43568 0.12829 0.0
H952 H 0.29343 0.38277 0.10036 0.0
C953 C 0.34891 0.33299 0.10604 0.0
C954 C 0.3569 0.32476 0.12594 0.0
C955 C 0.33717 0.35491 0.10428 0.0
C956 C 0.30245 0.39742 0.10822 0.0
H957 H 0.31599 0.52039 0.10379 0.0
H958 H 0.3299 0.47936 0.10536 0.0
H959 H 0.27728 0.42328 0.09681 0.0
H960 H 0.35747 0.33272 0.15972 0.0
H961 H 0.33759 0.37106 0.1565 0.0
H962 H 0.35039 0.41006 0.13971 0.0
C963 C 0.31127 0.48302 0.1086 0.0
C964 C 0.29316 0.42049 0.1063 0.0
C965 C 0.30325 0.50652 0.10768 0.0
C966 C 0.35217 0.33866 0.14407 0.0
C967 C 0.34065 0.36061 0.14227 0.0
C968 C 0.33432 0.41267 0.13043 0.0
C969 C 0.29551 0.46445 0.1138 0.0
C970 C 0.30464 0.43984 0.11617 0.0
C971 C 0.33337 0.36911 0.12234 0.0
C972 C 0.3231 0.39333 0.12035 0.0
H973 H 0.24477 0.49702 0.12025 0.0
H974 H 0.25888 0.45571 0.12162 0.0
H975 H 0.33432 0.45026 0.13621 0.0
H976 H 0.35238 0.32295 0.09169 0.0
H977 H 0.33188 0.36115 0.08869 0.0
C978 C 0.46949 0.26675 0.12954 0.0
C979 C 0.46955 0.24199 0.12598 0.0
C980 C 0.49086 0.27919 0.13221 0.0
C981 C 0.55493 0.27505 0.11938 0.0
H982 H 0.55856 0.33097 0.15548 0.0
C983 C 0.62613 0.35326 0.14747 0.0
C984 C 0.63681 0.35827 0.12777 0.0
C985 C 0.6072 0.33711 0.14888 0.0
C986 C 0.55806 0.31523 0.14552 0.0
H987 H 0.49216 0.21074 0.12336 0.0
H988 H 0.52951 0.23245 0.1285 0.0
H989 H 0.5232 0.3059 0.15656 0.0
H990 H 0.63615 0.35019 0.09413 0.0
H991 H 0.60274 0.32239 0.09643 0.0
H992 H 0.58999 0.28419 0.10861 0.0
C993 C 0.5129 0.2423 0.12878 0.0
C994 C 0.5376 0.30099 0.14595 0.0
C995 C 0.49147 0.22982 0.12601 0.0
C996 C 0.62841 0.3465 0.10955 0.0
C997 C 0.6093 0.3305 0.11091 0.0
C998 C 0.57549 0.28921 0.11906 0.0
C999 C 0.51287 0.26721 0.13154 0.0
C1000 C 0.53558 0.28096 0.13261 0.0
C1001 C 0.59833 0.32574 0.13058 0.0
C1002 C 0.57717 0.3097 0.13189 0.0
H1003 H 0.45297 0.27676 0.12959 0.0
H1004 H 0.4901 0.29839 0.134 0.0
H1005 H 0.55394 0.2599 0.10874 0.0
H1006 H 0.63253 0.36172 0.16184 0.0
H1007 H 0.59954 0.33353 0.16435 0.0
C1008 C 0.22518 0.14386 0.43837 0.0
C1009 C 0.2283 0.11937 0.44222 0.0
C1010 C 0.21596 0.15873 0.45416 0.0
C1011 C 0.20167 0.18814 0.49303 0.0
H1012 H 0.14586 0.16035 0.51986 0.0
C1013 C 0.14575 0.2331 0.56006 0.0
C1014 C 0.12088 0.23002 0.55888 0.0
C1015 C 0.16075 0.22186 0.54539 0.0
C1016 C 0.16133 0.16841 0.5124 0.0
H1017 H 0.22599 0.09159 0.46609 0.0
H1018 H 0.2101 0.11762 0.49376 0.0
H1019 H 0.17053 0.13594 0.49669 0.0
H1020 H 0.09213 0.2142 0.54058 0.0
H1021 H 0.11828 0.1948 0.51494 0.0
H1022 H 0.19198 0.22081 0.50857 0.0
C1023 C 0.2144 0.12523 0.47841 0.0
C1024 C 0.17568 0.15432 0.4994 0.0
C1025 C 0.22364 0.11036 0.46261 0.0
C1026 C 0.11122 0.21682 0.54198 0.0
C1027 C 0.12619 0.20554 0.5274 0.0
C1028 C 0.18733 0.20224 0.50621 0.0
C1029 C 0.20966 0.14938 0.4741 0.0
C1030 C 0.19589 0.16405 0.4894 0.0
C1031 C 0.15111 0.2073 0.52938 0.0
C1032 C 0.16682 0.19257 0.51575 0.0
H1033 H 0.22865 0.15134 0.4228 0.0
H1034 H 0.21241 0.17721 0.45031 0.0
H1035 H 0.2172 0.19608 0.4856 0.0
H1036 H 0.15371 0.24315 0.57294 0.0
H1037 H 0.17989 0.22351 0.54729 0.0
C1038 C 0.83365 0.2421 0.41832 0.0
C1039 C 0.85817 0.24071 0.42279 0.0
C1040 C 0.81687 0.23572 0.43379 0.0
C1041 C 0.81008 0.22077 0.49126 0.0
H1042 H 0.76522 0.17345 0.4706 0.0
C1043 C 0.76653 0.1291 0.52279 0.0
C1044 C 0.75924 0.13553 0.54333 0.0
C1045 C 0.77295 0.14654 0.50807 0.0
C1046 C 0.77752 0.18675 0.47661 0.0
H1047 H 0.88436 0.23323 0.44724 0.0
H1048 H 0.85531 0.22195 0.47401 0.0
H1049 H 0.78764 0.1975 0.44531 0.0
H1050 H 0.75215 0.16528 0.56443 0.0
H1051 H 0.76346 0.19591 0.5386 0.0
H1052 H 0.8012 0.2088 0.52253 0.0
C1053 C 0.84887 0.22807 0.45873 0.0
C1054 C 0.79017 0.20075 0.46212 0.0
C1055 C 0.86557 0.23432 0.4433 0.0
C1056 C 0.75779 0.15982 0.5487 0.0
C1057 C 0.76431 0.17733 0.53396 0.0
C1058 C 0.79748 0.20671 0.50575 0.0
C1059 C 0.82436 0.22802 0.45399 0.0
C1060 C 0.80729 0.21724 0.46927 0.0
C1061 C 0.77225 0.17083 0.51356 0.0
C1062 C 0.78178 0.18889 0.49854 0.0
H1063 H 0.82747 0.24704 0.40263 0.0
H1064 H 0.79809 0.23607 0.42974 0.0
H1065 H 0.82289 0.2336 0.49725 0.0
H1066 H 0.76779 0.11053 0.51816 0.0
H1067 H 0.77938 0.14087 0.49265 0.0
C1068 C 0.86273 0.76125 0.55534 0.0
C1069 C 0.85986 0.76271 0.57744 0.0
C1070 C 0.84446 0.76868 0.54182 0.0
C1071 C 0.80315 0.81546 0.5389 0.0
H1072 H 0.77818 0.78369 0.48891 0.0
C1073 C 0.75916 0.87035 0.4729 0.0
C1074 C 0.76544 0.86376 0.45215 0.0
C1075 C 0.76347 0.85486 0.48988 0.0
C1076 C 0.78509 0.79291 0.50271 0.0
H1077 H 0.83549 0.77197 0.60288 0.0
H1078 H 0.8038 0.78593 0.5791 0.0
H1079 H 0.79966 0.76065 0.5157 0.0
H1080 H 0.78045 0.83567 0.43265 0.0
H1081 H 0.78917 0.8093 0.46209 0.0
H1082 H 0.79086 0.848 0.52535 0.0
C1083 C 0.81995 0.77852 0.57233 0.0
C1084 C 0.79713 0.77962 0.51812 0.0
C1085 C 0.838 0.77048 0.58586 0.0
C1086 C 0.77528 0.84114 0.44851 0.0
C1087 C 0.7801 0.8259 0.46547 0.0
C1088 C 0.79164 0.82885 0.5233 0.0
C1089 C 0.82331 0.7782 0.55024 0.0
C1090 C 0.80673 0.79092 0.53605 0.0
C1091 C 0.77472 0.83271 0.48647 0.0
C1092 C 0.78309 0.81788 0.50465 0.0
H1093 H 0.87946 0.75532 0.54852 0.0
H1094 H 0.8475 0.76852 0.52482 0.0
H1095 H 0.81071 0.82459 0.55252 0.0
H1096 H 0.75128 0.88764 0.47607 0.0
H1097 H 0.75853 0.86055 0.50571 0.0
C1098 C 0.15884 0.74817 0.42682 0.0
C1099 C 0.13433 0.75292 0.42882 0.0
C1100 C 0.17497 0.75668 0.44198 0.0
C1101 C 0.17935 0.78281 0.49602 0.0
H1102 H 0.23244 0.81836 0.47225 0.0
C1103 C 0.23606 0.87002 0.51956 0.0
C1104 C 0.24109 0.86535 0.541 0.0
C1105 C 0.22793 0.85183 0.50626 0.0
C1106 C 0.21782 0.80835 0.47914 0.0
H1107 H 0.10732 0.7692 0.44877 0.0
H1108 H 0.13539 0.78411 0.47514 0.0
H1109 H 0.20767 0.79382 0.44904 0.0
H1110 H 0.24277 0.83781 0.56513 0.0
H1111 H 0.22846 0.80594 0.54182 0.0
H1112 H 0.1887 0.79839 0.52592 0.0
C1113 C 0.1422 0.77369 0.46197 0.0
C1114 C 0.20376 0.79412 0.4659 0.0
C1115 C 0.12611 0.76529 0.44678 0.0
C1116 C 0.23903 0.8419 0.54865 0.0
C1117 C 0.23071 0.82371 0.53536 0.0
C1118 C 0.19345 0.79699 0.50928 0.0
C1119 C 0.16685 0.76996 0.45949 0.0
C1120 C 0.18394 0.78177 0.47409 0.0
C1121 C 0.22454 0.82863 0.51417 0.0
C1122 C 0.21238 0.81048 0.50085 0.0
H1123 H 0.16569 0.73862 0.41315 0.0
H1124 H 0.19384 0.75334 0.43976 0.0
H1125 H 0.16436 0.77328 0.50282 0.0
H1126 H 0.23755 0.88792 0.51322 0.0
H1127 H 0.22309 0.85628 0.49008 0.0
C1128 C 0.71132 0.63084 0.94783 0.0
C1129 C 0.71655 0.63943 0.92741 0.0
C1130 C 0.70481 0.64651 0.96399 0.0
C1131 C 0.67614 0.70348 0.97313 0.0
H1132 H 0.70041 0.69513 0.03037 0.0
C1133 C 0.66314 0.74282 0.06395 0.0
C1134 C 0.63821 0.74099 0.06563 0.0
C1135 C 0.67487 0.73461 0.04579 0.0
C1136 C 0.6937 0.69797 0.01443 0.0
H1137 H 0.71932 0.6711 0.90783 0.0
H1138 H 0.70744 0.69868 0.93621 0.0
H1139 H 0.71813 0.67273 0.00115 0.0
H1140 H 0.60588 0.73022 0.0493 0.0
H1141 H 0.62637 0.71579 0.01761 0.0
H1142 H 0.6512 0.72823 0.98657 0.0
C1143 C 0.70855 0.67978 0.93963 0.0
C1144 C 0.70371 0.685 -0.00224 0.0
C1145 C 0.71542 0.66406 0.92347 0.0
C1146 C 0.62513 0.73173 0.04849 0.0
C1147 C 0.63684 0.72366 0.03027 0.0
C1148 C 0.66597 0.71634 0.98987 0.0
C1149 C 0.70314 0.6711 0.96003 0.0
C1150 C 0.69469 0.68723 0.97704 0.0
C1151 C 0.66186 0.72458 0.02892 0.0
C1152 C 0.67434 0.71333 0.01075 0.0
H1153 H 0.71216 0.61193 0.95133 0.0
H1154 H 0.70044 0.6393 0.97948 0.0
H1155 H 0.66877 0.70543 0.95732 0.0
H1156 H 0.67368 0.75 0.07689 0.0
H1157 H 0.69415 0.73574 0.04508 0.0
C1158 C 0.38916 0.72913 0.9467 0.0
C1159 C 0.3765 0.74098 0.93063 0.0
C1160 C 0.37722 0.72016 0.96445 0.0
C1161 C 0.31924 0.69673 0.9795 0.0
H1162 H 0.34524 0.69847 0.03659 0.0
C1163 C 0.29838 0.62632 0.04307 0.0
C1164 C 0.29476 0.63397 0.06406 0.0
C1165 C 0.30515 0.64256 0.0274 0.0
C1166 C 0.33758 0.69811 0.0208 0.0
H1167 H 0.34159 0.75351 0.92082 0.0
H1168 H 0.32069 0.73764 0.95182 0.0
H1169 H 0.36378 0.72237 0.00859 0.0
H1170 H 0.29485 0.6646 0.08511 0.0
H1171 H 0.30702 0.69303 0.05765 0.0
H1172 H 0.29349 0.67193 0.99154 0.0
C1173 C 0.33983 0.73528 0.95064 0.0
C1174 C 0.34829 0.71161 0.00476 0.0
C1175 C 0.35181 0.74445 0.93297 0.0
C1176 C 0.29749 0.65825 0.06902 0.0
C1177 C 0.30455 0.67447 0.05337 0.0
C1178 C 0.30867 0.68308 -0.00452 0.0
C1179 C 0.35237 0.72272 0.96637 0.0
C1180 C 0.33948 0.7107 0.98389 0.0
C1181 C 0.30866 0.66671 0.03247 0.0
C1182 C 0.31801 0.68329 0.01618 0.0
H1183 H 0.40821 0.72623 0.94531 0.0
H1184 H 0.3873 0.71035 0.97624 0.0
H1185 H 0.3122 0.69554 0.9635 0.0
H1186 H 0.29635 0.6077 0.0388 0.0
H1187 H 0.30846 0.63604 0.01147 0.0
C1188 C 0.27832 0.38066 0.95502 0.0
C1189 C 0.27383 0.37403 0.93389 0.0
C1190 C 0.28721 0.36404 0.96948 0.0
C1191 C 0.32329 0.31021 0.97174 0.0
H1192 H 0.30024 0.30659 0.02976 0.0
C1193 C 0.37767 0.27147 0.04183 0.0
C1194 C 0.36522 0.25792 0.05698 0.0
C1195 C 0.36541 0.28255 0.02521 0.0
C1196 C 0.30671 0.30719 0.01355 0.0
H1197 H 0.27458 0.34477 0.91135 0.0
H1198 H 0.29037 0.31569 0.93668 0.0
H1199 H 0.27951 0.33179 0.00413 0.0
H1200 H 0.33036 0.24445 0.06611 0.0
H1201 H 0.30904 0.2638 0.03715 0.0
H1202 H 0.3508 0.28595 0.98133 0.0
C1203 C 0.28698 0.33374 0.942 0.0
C1204 C 0.29497 0.32175 -0.00105 0.0
C1205 C 0.27779 0.35032 0.92759 0.0
C1206 C 0.34046 0.25486 0.05473 0.0
C1207 C 0.32821 0.26603 0.03822 0.0
C1208 C 0.33519 0.29579 0.98642 0.0
C1209 C 0.29201 0.34054 0.96301 0.0
C1210 C 0.30329 0.32361 0.97798 0.0
C1211 C 0.34048 0.28037 0.02355 0.0
C1212 C 0.32713 0.29432 0.00751 0.0
H1213 H 0.27543 0.39882 0.96029 0.0
H1214 H 0.29112 0.3698 0.98553 0.0
H1215 H 0.3302 0.31149 0.9557 0.0
H1216 H 0.39676 0.27413 0.04317 0.0
H1217 H 0.3753 0.29364 0.0142 0.0
C1218 C 0.65619 0.25965 0.92168 0.0
C1219 C 0.63135 0.25969 0.92458 0.0
C1220 C 0.67137 0.26522 0.93865 0.0
C1221 C 0.67288 0.27375 -0.00268 0.0
H1222 H 0.71576 0.32607 0.98433 0.0
C1223 C 0.70471 0.36409 0.0396 0.0
C1224 C 0.71176 0.35619 0.05979 0.0
C1225 C 0.70119 0.34787 0.02314 0.0
C1226 C 0.70407 0.31128 0.98819 0.0
H1227 H 0.60289 0.26402 0.94761 0.0
H1228 H 0.62916 0.27379 0.97701 0.0
H1229 H 0.69733 0.30372 0.95544 0.0
H1230 H 0.72118 0.32518 0.07855 0.0
H1231 H 0.71462 0.29656 0.04964 0.0
H1232 H 0.67833 0.28245 0.03007 0.0
C1233 C 0.63708 0.2694 0.9618 0.0
C1234 C 0.6937 0.29832 0.97165 0.0
C1235 C 0.62198 0.26408 0.94488 0.0
C1236 C 0.71568 0.33173 0.06313 0.0
C1237 C 0.71193 0.31539 0.04663 0.0
C1238 C 0.68327 0.28671 0.01387 0.0
C1239 C 0.66189 0.27058 0.95879 0.0
C1240 C 0.67716 0.28013 0.97605 0.0
C1241 C 0.70451 0.32333 0.0265 0.0
C1242 C 0.6981 0.30629 0.00942 0.0
H1243 H 0.66385 0.25625 0.90617 0.0
H1244 H 0.69044 0.2659 0.93591 0.0
H1245 H 0.66045 0.25957 0.00116 0.0
H1246 H 0.70164 0.38285 0.03651 0.0
H1247 H 0.69504 0.35452 0.00794 0.0
C1248 C 0.23249 0.11272 0.28897 0.0
C1249 C 0.23685 0.09081 0.29895 0.0
C1250 C 0.24135 0.11708 0.26867 0.0
C1251 C 0.29389 0.10096 0.2389 0.0
H1252 H 0.26828 0.14762 0.19963 0.0
C1253 C 0.32883 0.18632 0.19004 0.0
C1254 C 0.34689 0.17722 0.17687 0.0
C1255 C 0.31386 0.17095 0.20117 0.0
C1256 C 0.27559 0.13441 0.21036 0.0
H1257 H 0.25182 0.05548 0.29505 0.0
H1258 H 0.26739 0.06309 0.25932 0.0
H1259 H 0.24148 0.12711 0.22417 0.0
H1260 H 0.36407 0.14487 0.16573 0.0
H1261 H 0.3382 0.11789 0.18596 0.0
H1262 H 0.32817 0.10912 0.22566 0.0
C1263 C 0.25728 0.07693 0.26727 0.0
C1264 C 0.26028 0.12265 0.22434 0.0
C1265 C 0.24824 0.07252 0.28759 0.0
C1266 C 0.35044 0.1524 0.17592 0.0
C1267 C 0.33554 0.13697 0.18729 0.0
C1268 C 0.30919 0.11262 0.22479 0.0
C1269 C 0.25485 0.09963 0.25804 0.0
C1270 C 0.26945 0.1067 0.23946 0.0
C1271 C 0.31676 0.14615 0.19956 0.0
C1272 C 0.30028 0.13025 0.21115 0.0
H1273 H 0.22361 0.12701 0.29743 0.0
H1274 H 0.2393 0.13482 0.26213 0.0
H1275 H 0.30156 0.08891 0.25048 0.0
H1276 H 0.32597 0.20536 0.19144 0.0
H1277 H 0.29992 0.17847 0.21104 0.0
C1278 C 0.77773 0.38442 0.20148 0.0
C1279 C 0.78296 0.39442 0.1816 0.0
C1280 C 0.79619 0.37786 0.21514 0.0
C1281 C 0.85477 0.35348 0.21231 0.0
H1282 H 0.85543 0.36322 0.27331 0.0
C1283 C 0.88472 0.28518 0.27434 0.0
C1284 C 0.89708 0.29339 0.29228 0.0
C1285 C 0.87757 0.30121 0.25865 0.0
C1286 C 0.8558 0.36071 0.25624 0.0
H1287 H 0.8113 0.40611 0.16054 0.0
H1288 H 0.84362 0.39416 0.18435 0.0
H1289 H 0.82849 0.38681 0.25118 0.0
H1290 H 0.91288 0.32435 0.30747 0.0
H1291 H 0.90001 0.35244 0.28012 0.0
H1292 H 0.8809 0.32621 0.21756 0.0
C1293 C 0.8253 0.39174 0.18942 0.0
C1294 C 0.84032 0.37407 0.24366 0.0
C1295 C 0.80685 0.39865 0.17592 0.0
C1296 C 0.90352 0.31757 0.29367 0.0
C1297 C 0.89609 0.33364 0.27813 0.0
C1298 C 0.86999 0.33984 0.22494 0.0
C1299 C 0.82009 0.38085 0.20892 0.0
C1300 C 0.83925 0.37008 0.2217 0.0
C1301 C 0.88241 0.32568 0.26087 0.0
C1302 C 0.87013 0.34294 0.24705 0.0
H1303 H 0.75943 0.38101 0.20613 0.0
H1304 H 0.79179 0.36925 0.23005 0.0
H1305 H 0.85408 0.35 0.19539 0.0
H1306 H 0.87963 0.2666 0.27296 0.0
H1307 H 0.86684 0.29471 0.24555 0.0
C1308 C 0.75176 0.91765 0.29921 0.0
C1309 C 0.76337 0.89869 0.30944 0.0
C1310 C 0.74223 0.91448 0.27889 0.0
C1311 C 0.73755 0.87102 0.23422 0.0
H1312 H 0.66959 0.88312 0.23918 0.0
C1313 C 0.6465 0.83966 0.18873 0.0
C1314 C 0.65053 0.81492 0.18986 0.0
C1315 C 0.66118 0.85549 0.19992 0.0
C1316 C 0.68856 0.88007 0.23731 0.0
H1317 H 0.77657 0.86266 0.30594 0.0
H1318 H 0.76013 0.85701 0.27058 0.0
H1319 H 0.69732 0.90308 0.26323 0.0
H1320 H 0.6718 0.7873 0.20475 0.0
H1321 H 0.69751 0.81488 0.224 0.0
H1322 H 0.72847 0.84654 0.2094 0.0
C1323 C 0.75827 0.87435 0.278 0.0
C1324 C 0.70449 0.8916 0.25095 0.0
C1325 C 0.76757 0.87746 0.29831 0.0
C1326 C 0.66858 0.80627 0.20325 0.0
C1327 C 0.68335 0.82202 0.21416 0.0
C1328 C 0.72163 0.85938 0.22074 0.0
C1329 C 0.74442 0.89236 0.26855 0.0
C1330 C 0.72902 0.88621 0.25024 0.0
C1331 C 0.68019 0.84673 0.21212 0.0
C1332 C 0.69696 0.86297 0.22291 0.0
H1333 H 0.74828 0.93417 0.3076 0.0
H1334 H 0.73185 0.92872 0.27187 0.0
H1335 H 0.75639 0.86687 0.23307 0.0
H1336 H 0.63284 0.84684 0.17839 0.0
H1337 H 0.65832 0.87451 0.19834 0.0
C1338 C 0.1226 0.68438 0.2863 0.0
C1339 C 0.11374 0.67753 0.30619 0.0
C1340 C 0.13306 0.66747 0.27298 0.0
C1341 C 0.17141 0.61834 0.27697 0.0
H1342 H 0.16072 0.61043 0.21649 0.0
C1343 C 0.21969 0.57718 0.19749 0.0
C1344 C 0.23938 0.59264 0.19646 0.0
C1345 C 0.20256 0.58007 0.21338 0.0
C1346 C 0.16363 0.61203 0.23345 0.0
H1347 H 0.108 0.64796 0.32774 0.0
H1348 H 0.12718 0.61839 0.30462 0.0
H1349 H 0.13055 0.63045 0.23828 0.0
H1350 H 0.25775 0.622 0.21165 0.0
H1351 H 0.22815 0.62658 0.24 0.0
H1352 H 0.20545 0.60188 0.27178 0.0
C1353 C 0.12549 0.63664 0.29919 0.0
C1354 C 0.14647 0.62352 0.24582 0.0
C1355 C 0.11453 0.65346 0.31229 0.0
C1356 C 0.24273 0.60983 0.21234 0.0
C1357 C 0.2259 0.61236 0.2285 0.0
C1358 C 0.1888 0.60731 0.26451 0.0
C1359 C 0.13525 0.64367 0.27965 0.0
C1360 C 0.15058 0.62732 0.26752 0.0
C1361 C 0.20528 0.5981 0.22864 0.0
C1362 C 0.18528 0.6047 0.24258 0.0
H1363 H 0.12226 0.70292 0.28145 0.0
H1364 H 0.14078 0.67327 0.25806 0.0
H1365 H 0.17499 0.62135 0.29367 0.0
H1366 H 0.21673 0.56399 0.18518 0.0
H1367 H 0.18669 0.56902 0.21319 0.0
C1368 C 0.3715 0.84444 0.80956 0.0
C1369 C 0.37747 0.82098 0.80378 0.0
C1370 C 0.36404 0.86074 0.79425 0.0
C1371 C 0.36108 0.87159 0.73641 0.0
H1372 H 0.30194 0.90404 0.75025 0.0
C1373 C 0.27518 0.90529 0.68841 0.0
C1374 C 0.28636 0.91641 0.67108 0.0
C1375 C 0.28819 0.89985 0.70665 0.0
C1376 C 0.31854 0.89524 0.74623 0.0
H1377 H 0.38129 0.79639 0.77744 0.0
H1378 H 0.36802 0.82482 0.7506 0.0
H1379 H 0.32284 0.88159 0.77767 0.0
H1380 H 0.31955 0.93188 0.65974 0.0
H1381 H 0.34209 0.92279 0.69178 0.0
H1382 H 0.35607 0.88406 0.70468 0.0
C1383 C 0.36938 0.8307 0.76695 0.0
C1384 C 0.33063 0.88257 0.76194 0.0
C1385 C 0.3769 0.8144 0.78228 0.0
C1386 C 0.31037 0.92344 0.67289 0.0
C1387 C 0.32336 0.91802 0.69113 0.0
C1388 C 0.34901 0.88427 0.72071 0.0
C1389 C 0.36242 0.85387 0.77286 0.0
C1390 C 0.35165 0.87007 0.75703 0.0
C1391 C 0.31261 0.90545 0.70788 0.0
C1392 C 0.32727 0.89564 0.72533 0.0
H1393 H 0.37229 0.8501 0.82601 0.0
H1394 H 0.35915 0.87858 0.7992 0.0
H1395 H 0.3774 0.86236 0.73227 0.0
H1396 H 0.25662 0.89994 0.68753 0.0
H1397 H 0.27945 0.89 0.71925 0.0
C1398 C 0.2265 0.39579 0.78685 0.0
C1399 C 0.21604 0.40664 0.80467 0.0
C1400 C 0.21215 0.38608 0.77091 0.0
C1401 C 0.15629 0.35573 0.76652 0.0
H1402 H 0.16423 0.3618 0.70554 0.0
C1403 C 0.12657 0.28538 0.70484 0.0
C1404 C 0.11313 0.29405 0.68772 0.0
C1405 C 0.13677 0.30124 0.71935 0.0
C1406 C 0.16176 0.36012 0.72255 0.0
H1407 H 0.18259 0.41686 0.81943 0.0
H1408 H 0.15755 0.39961 0.79164 0.0
H1409 H 0.18702 0.38785 0.72944 0.0
H1410 H 0.09969 0.32582 0.67217 0.0
H1411 H 0.11797 0.3536 0.69739 0.0
H1412 H 0.1318 0.32736 0.75969 0.0
C1413 C 0.17678 0.39881 0.78997 0.0
C1414 C 0.17479 0.37489 0.73613 0.0
C1415 C 0.1911 0.40881 0.80573 0.0
C1416 C 0.10976 0.31874 0.68544 0.0
C1417 C 0.12031 0.33459 0.69969 0.0
C1418 C 0.14362 0.34068 0.75297 0.0
C1419 C 0.1872 0.38679 0.77278 0.0
C1420 C 0.17221 0.37271 0.75821 0.0
C1421 C 0.13404 0.32595 0.71662 0.0
C1422 C 0.14639 0.34268 0.73091 0.0
H1423 H 0.2457 0.39396 0.78572 0.0
H1424 H 0.22053 0.37677 0.7578 0.0
H1425 H 0.15426 0.35356 0.78354 0.0
H1426 H 0.12942 0.2664 0.70681 0.0
H1427 H 0.14744 0.29425 0.73227 0.0
C1428 C 0.5959 0.17658 0.79528 0.0
C1429 C 0.60169 0.20092 0.79381 0.0
C1430 C 0.60299 0.16077 0.7794 0.0
C1431 C 0.62302 0.15608 0.72437 0.0
H1432 H 0.66392 0.10504 0.74455 0.0
C1433 C 0.70558 0.10281 0.6885 0.0
C1434 C 0.69601 0.09475 0.66918 0.0
C1435 C 0.69049 0.11071 0.70466 0.0
C1436 C 0.65229 0.11902 0.73876 0.0
H1437 H 0.61829 0.2281 0.77433 0.0
H1438 H 0.63041 0.2004 0.74625 0.0
H1439 H 0.6425 0.12999 0.77016 0.0
H1440 H 0.66333 0.08762 0.65183 0.0
H1441 H 0.63695 0.10174 0.68007 0.0
H1442 H 0.63337 0.14562 0.69301 0.0
C1443 C 0.62045 0.19362 0.75972 0.0
C1444 C 0.63999 0.13317 0.75333 0.0
C1445 C 0.61367 0.2094 0.77576 0.0
C1446 C 0.67112 0.09354 0.66668 0.0
C1447 C 0.65606 0.10174 0.68272 0.0
C1448 C 0.63503 0.1417 0.7098 0.0
C1449 C 0.61566 0.16912 0.76169 0.0
C1450 C 0.62577 0.15219 0.74623 0.0
C1451 C 0.66566 0.11097 0.70158 0.0
C1452 C 0.65022 0.12347 0.71691 0.0
H1453 H 0.58689 0.1696 0.80919 0.0
H1454 H 0.5991 0.14194 0.78119 0.0
H1455 H 0.61209 0.17063 0.71859 0.0
H1456 H 0.72471 0.10384 0.69076 0.0
H1457 H 0.69828 0.11793 0.71904 0.0
C1458 C 0.79104 0.62256 0.78841 0.0
C1459 C 0.79593 0.61105 0.8077 0.0
C1460 C 0.80973 0.63091 0.77576 0.0
C1461 C 0.86831 0.65592 0.78084 0.0
H1462 H 0.87107 0.6486 0.71963 0.0
C1463 C 0.90289 0.72553 0.72146 0.0
C1464 C 0.91457 0.71738 0.70311 0.0
C1465 C 0.89519 0.70932 0.73684 0.0
C1466 C 0.87085 0.65046 0.73676 0.0
H1467 H 0.82394 0.59884 0.82883 0.0
H1468 H 0.85662 0.61386 0.8068 0.0
H1469 H 0.84292 0.62462 0.74018 0.0
H1470 H 0.92907 0.68624 0.68722 0.0
H1471 H 0.91552 0.65798 0.71408 0.0
H1472 H 0.89526 0.68283 0.77724 0.0
C1473 C 0.8384 0.6161 0.80139 0.0
C1474 C 0.85463 0.63691 0.74844 0.0
C1475 C 0.81976 0.6074 0.81386 0.0
C1476 C 0.92026 0.69305 0.7013 0.0
C1477 C 0.91237 0.67685 0.71655 0.0
C1478 C 0.8843 0.66978 0.7691 0.0
C1479 C 0.83351 0.62824 0.78243 0.0
C1480 C 0.85287 0.63993 0.77049 0.0
C1481 C 0.89887 0.68474 0.73395 0.0
C1482 C 0.88532 0.6675 0.74692 0.0
H1483 H 0.7728 0.62559 0.78341 0.0
H1484 H 0.80556 0.64044 0.76125 0.0
H1485 H 0.86711 0.65864 0.79785 0.0
H1486 H 0.89841 0.74422 0.72326 0.0
H1487 H 0.8847 0.71583 0.75009 0.0
C1488 C 0.32217 0.02455 0.40996 0.0
C1489 C 0.32424 0.04936 0.41208 0.0
C1490 C 0.33723 0.00941 0.4212 0.0
C1491 C 0.36546 0.01123 0.47274 0.0
H1492 H 0.36933 0.94349 0.46086 0.0
C1493 C 0.35173 0.94471 0.53935 0.0
C1494 C 0.33069 0.93204 0.5348 0.0
C1495 C 0.36454 0.95577 0.52302 0.0
C1496 C 0.36894 0.9624 0.4644 0.0
H1497 H 0.34547 0.0779 0.42557 0.0
H1498 H 0.37217 0.05138 0.44518 0.0
H1499 H 0.36935 0.97195 0.43151 0.0
H1500 H 0.30776 0.91899 0.50972 0.0
H1501 H 0.33004 0.93818 0.48116 0.0
H1502 H 0.3635 0.00164 0.5055 0.0
C1503 C 0.35854 0.04361 0.43512 0.0
C1504 C 0.36883 0.97871 0.44762 0.0
C1505 C 0.34334 0.05881 0.42383 0.0
C1506 C 0.32377 0.92893 0.51358 0.0
C1507 C 0.33673 0.93964 0.49726 0.0
C1508 C 0.36591 0.99497 0.48949 0.0
C1509 C 0.35481 0.01876 0.43483 0.0
C1510 C 0.36504 0.00313 0.45158 0.0
C1511 C 0.35669 0.95395 0.50189 0.0
C1512 C 0.36579 0.97036 0.48537 0.0
H1513 H 0.30793 0.01684 0.40055 0.0
H1514 H 0.33358 0.99046 0.42056 0.0
H1515 H 0.36261 0.02985 0.47652 0.0
H1516 H 0.35737 0.94737 0.55563 0.0
H1517 H 0.3798 0.96678 0.527 0.0
C1518 C 0.92451 0.31098 0.44977 0.0
C1519 C 0.92858 0.32022 0.42941 0.0
C1520 C 0.93524 0.3214 0.46744 0.0
C1521 C 0.99057 0.3499 0.48033 0.0
H1522 H 0.96374 0.34735 0.53708 0.0
C1523 C 0.05029 0.33644 0.55347 0.0
C1524 C 0.04308 0.31589 0.5645 0.0
C1525 C 0.03474 0.34746 0.53911 0.0
C1526 C 0.97147 0.34854 0.52133 0.0
H1527 H 0.94586 0.34832 0.41149 0.0
H1528 H 0.96517 0.36646 0.44253 0.0
H1529 H 0.93718 0.34856 0.50634 0.0
H1530 H 0.01367 0.29172 0.57046 0.0
H1531 H 0.98668 0.31065 0.54546 0.0
H1532 H 0.0248 0.34793 0.49519 0.0
C1533 C 0.95352 0.35124 0.44479 0.0
C1534 C 0.95629 0.34925 0.50378 0.0
C1535 C 0.94247 0.34093 0.42709 0.0
C1536 C 0.01977 0.30729 0.56185 0.0
C1537 C 0.0042 0.31841 0.54779 0.0
C1538 C 0.00575 0.34917 0.49789 0.0
C1539 C 0.95047 0.34117 0.46505 0.0
C1540 C 0.96573 0.34844 0.48312 0.0
C1541 C 0.01165 0.3383 0.53594 0.0
C1542 C 0.99629 0.34697 0.51847 0.0
H1543 H 0.91359 0.29521 0.45194 0.0
H1544 H 0.93279 0.31301 0.48279 0.0
H1545 H 0.99836 0.34921 0.46459 0.0
H1546 H 0.06821 0.34338 0.55535 0.0
H1547 H 0.04093 0.36274 0.53013 0.0
C1548 C 0.65589 0.92577 0.43504 0.0
C1549 C 0.67398 0.93493 0.42193 0.0
C1550 C 0.64102 0.94131 0.44636 0.0
C1551 C 0.62941 0.00662 0.45569 0.0
H1552 H 0.63892 0.9886 0.51452 0.0
C1553 C 0.67701 0.06209 0.51658 0.0
C1554 C 0.66912 0.06303 0.53767 0.0
C1555 C 0.66441 0.04887 0.50156 0.0
C1556 C 0.63536 0.99382 0.49825 0.0
H1557 H 0.68891 0.96699 0.40821 0.0
H1558 H 0.66368 0.99401 0.42801 0.0
H1559 H 0.63909 0.95808 0.48723 0.0
H1560 H 0.64168 0.05181 0.5597 0.0
H1561 H 0.62004 0.02745 0.53343 0.0
H1562 H 0.62872 0.04277 0.46676 0.0
C1563 C 0.66055 0.97505 0.42974 0.0
C1564 C 0.63538 0.97627 0.48251 0.0
C1565 C 0.67534 0.95959 0.41856 0.0
C1566 C 0.64792 0.05131 0.54342 0.0
C1567 C 0.63558 0.03752 0.52848 0.0
C1568 C 0.62982 0.0242 0.4714 0.0
C1569 C 0.64403 0.96618 0.44462 0.0
C1570 C 0.63425 0.9827 0.46092 0.0
C1571 C 0.64397 0.03594 0.5075 0.0
C1572 C 0.6344 0.01799 0.4926 0.0
H1573 H 0.65444 0.90676 0.43778 0.0
H1574 H 0.62825 0.93389 0.45746 0.0
H1575 H 0.62772 0.01207 0.43925 0.0
H1576 H 0.69326 0.07115 0.51189 0.0
H1577 H 0.67149 0.04759 0.48558 0.0
C1578 C 0.92679 0.6871 0.54796 0.0
C1579 C 0.93143 0.67974 0.56884 0.0
C1580 C 0.93808 0.676 0.53091 0.0
C1581 C 0.9952 0.64903 0.52034 0.0
H1582 H 0.97034 0.64854 0.46286 0.0
C1583 C 0.05694 0.65542 0.44715 0.0
C1584 C 0.05066 0.67507 0.4345 0.0
C1585 C 0.04096 0.64658 0.46233 0.0
C1586 C 0.97751 0.64825 0.47884 0.0
H1587 H 0.95001 0.65388 0.58828 0.0
H1588 H 0.96999 0.63437 0.55833 0.0
H1589 H 0.94273 0.64835 0.49289 0.0
H1590 H 0.02245 0.70001 0.42684 0.0
H1591 H 0.99467 0.68476 0.45324 0.0
H1592 H 0.02994 0.65045 0.50628 0.0
C1593 C 0.95765 0.64881 0.5552 0.0
C1594 C 0.96174 0.64815 0.496 0.0
C1595 C 0.94615 0.65985 0.57229 0.0
C1596 C 0.02787 0.68511 0.43665 0.0
C1597 C 0.01184 0.67611 0.45153 0.0
C1598 C 0.01098 0.64903 0.50317 0.0
C1599 C 0.95437 0.65736 0.5344 0.0
C1600 C 0.97042 0.64993 0.51689 0.0
C1601 C 0.01831 0.65698 0.46472 0.0
C1602 C 0.00222 0.65 0.48229 0.0
H1603 H 0.91524 0.70219 0.54492 0.0
H1604 H 0.93531 0.68323 0.51515 0.0
H1605 H 0.00249 0.65053 0.53622 0.0
H1606 H 0.07444 0.64741 0.44573 0.0
H1607 H 0.04638 0.63187 0.47237 0.0
C1608 C 0.78867 0.57877 0.96196 0.0
C1609 C 0.8011 0.578 0.94264 0.0
C1610 C 0.79795 0.56764 0.97993 0.0
C1611 C 0.82364 0.54575 0.0175 0.0
H1612 H 0.83043 0.47892 0.00289 0.0
C1613 C 0.81443 0.44439 0.05522 0.0
C1614 C 0.79318 0.44871 0.06644 0.0
C1615 C 0.82561 0.4628 0.04399 0.0
C1616 C 0.8294 0.49752 0.00745 0.0
H1617 H 0.83357 0.56635 0.92713 0.0
H1618 H 0.84968 0.54633 0.95859 0.0
H1619 H 0.8324 0.50881 0.97516 0.0
H1620 H 0.76828 0.47615 0.07633 0.0
H1621 H 0.78696 0.5078 0.05618 0.0
H1622 H 0.81937 0.5343 0.0497 0.0
C1623 C 0.83287 0.55575 0.95983 0.0
C1624 C 0.83051 0.5147 0.99147 0.0
C1625 C 0.82369 0.5672 0.9419 0.0
C1626 C 0.78423 0.47207 0.06735 0.0
C1627 C 0.7953 0.49038 0.05612 0.0
C1628 C 0.82278 0.52857 0.03355 0.0
C1629 C 0.81973 0.55528 0.97883 0.0
C1630 C 0.82621 0.53879 -0.0038 0.0
C1631 C 0.81572 0.48585 0.04378 0.0
C1632 C 0.82412 0.50416 0.02847 0.0
H1633 H 0.77137 0.58729 0.96294 0.0
H1634 H 0.78728 0.56733 -0.00572 0.0
H1635 H 0.82065 0.56428 0.02157 0.0
H1636 H 0.82183 0.42661 0.05431 0.0
H1637 H 0.84147 0.45878 0.03484 0.0
C1638 C 0.46156 0.83367 0.93755 0.0
C1639 C 0.46415 0.81704 0.92107 0.0
C1640 C 0.48098 0.83949 0.95044 0.0
C1641 C 0.53564 0.81128 0.96914 0.0
H1642 H 0.54403 0.87102 -0.00066 0.0
C1643 C 0.59639 0.81406 0.04084 0.0
C1644 C 0.58535 0.82357 0.05889 0.0
C1645 C 0.58739 0.81904 0.0207 0.0
C1646 C 0.54197 0.85428 0.99094 0.0
H1647 H 0.48929 0.79508 0.90377 0.0
H1648 H 0.5234 0.80549 0.92602 0.0
H1649 H 0.51699 0.86918 0.96886 0.0
H1650 H 0.55746 0.84655 0.07061 0.0
H1651 H 0.54094 0.85487 0.03532 0.0
H1652 H 0.55954 0.79601 0.99158 0.0
C1653 C 0.50626 0.81353 0.92944 0.0
C1654 C 0.5265 0.85321 0.97353 0.0
C1655 C 0.48678 0.80752 0.91675 0.0
C1656 C 0.56615 0.83927 0.05667 0.0
C1657 C 0.55689 0.84407 0.03652 0.0
C1658 C 0.55104 0.81235 0.98642 0.0
C1659 C 0.50339 0.82893 0.94689 0.0
C1660 C 0.52266 0.8315 0.96285 0.0
C1661 C 0.56688 0.83324 0.01839 0.0
C1662 C 0.55388 0.83366 -0.00209 0.0
H1663 H 0.44425 0.8412 0.94118 0.0
H1664 H 0.47807 0.85118 0.96389 0.0
H1665 H 0.53281 0.79416 0.96157 0.0
H1666 H 0.61131 0.80192 0.04248 0.0
H1667 H 0.59572 0.81077 0.00702 0.0
C1668 C 0.20883 0.5328 0.06711 0.0
C1669 C 0.20331 0.55717 0.0681 0.0
C1670 C 0.19524 0.51742 0.05464 0.0
C1671 C 0.16213 0.51808 0.00572 0.0
H1672 H 0.15567 0.45086 0.0191 0.0
C1673 C 0.1628 0.44991 0.93911 0.0
C1674 C 0.18268 0.43507 0.94206 0.0
C1675 C 0.15306 0.4623 0.95635 0.0
C1676 C 0.15689 0.46963 0.01518 0.0
H1677 H 0.17868 0.58448 0.05764 0.0
H1678 H 0.15495 0.55747 0.03531 0.0
H1679 H 0.1615 0.4797 0.04773 0.0
H1680 H 0.20646 0.41949 0.96522 0.0
H1681 H 0.18955 0.44081 -0.00468 0.0
H1682 H 0.15945 0.5079 0.97311 0.0
C1683 C 0.16978 0.55034 0.04432 0.0
C1684 C 0.16029 0.48612 0.03153 0.0
C1685 C 0.1833 0.56574 0.05705 0.0
C1686 C 0.19123 0.43101 0.96265 0.0
C1687 C 0.18134 0.44306 0.97987 0.0
C1688 C 0.15871 0.5016 0.98937 0.0
C1689 C 0.17586 0.52607 0.04276 0.0
C1690 C 0.1645 0.51027 0.02682 0.0
C1691 C 0.16289 0.45968 0.97677 0.0
C1692 C 0.15764 0.47706 0.99387 0.0
H1693 H 0.22387 0.52566 0.07581 0.0
H1694 H 0.20067 0.49892 0.05354 0.0
H1695 H 0.16532 0.53656 0.00157 0.0
H1696 H 0.15602 0.45331 0.92329 0.0
H1697 H 0.13881 0.47495 0.95354 0.0
C1698 C 0.56792 0.18718 0.95067 0.0
C1699 C 0.56605 0.17731 0.93026 0.0
C1700 C 0.55618 0.17662 0.96778 0.0
C1701 C 0.50135 0.14568 0.97749 0.0
H1702 H 0.52356 0.14735 0.0358 0.0
C1703 C 0.43474 0.15111 0.04648 0.0
C1704 C 0.43991 0.17035 0.06003 0.0
C1705 C 0.45217 0.14237 0.0326 0.0
C1706 C 0.51711 0.14657 0.01959 0.0
H1707 H 0.55159 0.14804 0.91183 0.0
H1708 H 0.5306 0.12968 0.94182 0.0
H1709 H 0.55242 0.14921 0.00676 0.0
H1710 H 0.46777 0.19425 0.07091 0.0
H1711 H 0.49781 0.17964 0.0465 0.0
H1712 H 0.466 0.14502 0.99015 0.0
C1713 C 0.54131 0.14549 0.94455 0.0
C1714 C 0.53362 0.14756 0.00302 0.0
C1715 C 0.55334 0.15592 0.92746 0.0
C1716 C 0.46311 0.17979 0.06029 0.0
C1717 C 0.48048 0.17106 0.04655 0.0
C1718 C 0.48482 0.14488 0.99406 0.0
C1719 C 0.54213 0.15612 0.96474 0.0
C1720 C 0.52579 0.14834 0.98185 0.0
C1721 C 0.4751 0.15262 0.03219 0.0
C1722 C 0.49249 0.14661 0.01526 0.0
H1723 H 0.57787 0.20351 0.95324 0.0
H1724 H 0.55692 0.18538 0.98311 0.0
H1725 H 0.49479 0.14638 0.96131 0.0
H1726 H 0.417 0.14346 0.04604 0.0
H1727 H 0.44754 0.12805 0.02179 0.0
loop_
_geom_bond_atom_site_label_1
_geom_bond_atom_site_label_2
_geom_bond_distance
_geom_bond_site_symmetry_2
_ccdc_geom_bond_type
Co0 N4 2.148 . S
Co0 N10 2.128 . S
Co0 N20 2.194 . S
Co0 O25 2.351 . S
Co0 O26 2.155 . S
Co0 O27 2.096 . S
C1 N4 1.301 . S
C1 N5 1.328 . S
C1 H6 0.930 . S
C2 C3 1.333 . S
C2 N4 1.317 . S
C2 H7 0.930 . S
C3 C2 1.333 . S
C3 N5 1.350 . S
C3 H29 0.931 . S
N4 Co0 2.148 . S
N4 C1 1.301 . S
N4 C2 1.317 . S
N5 C1 1.328 . S
N5 C3 1.350 . S
H6 C1 0.930 . S
H7 C2 0.930 . S
C8 O9 1.224 . S
C8 O27 1.247 . S
O9 C8 1.224 . S
N10 Co0 2.128 . S
N10 C11 1.355 . S
N10 C13 1.311 . S
C11 N10 1.355 . S
C11 C12 1.363 . S
C11 H23 0.929 . S
C12 C11 1.363 . S
C12 N14 1.375 . S
C12 H30 0.931 . S
C13 N10 1.311 . S
C13 N14 1.347 . S
C13 H24 0.929 . S
N14 C12 1.375 . S
N14 C13 1.347 . S
C15 C18 1.365 . S
C15 N20 1.328 . S
C15 H21 0.929 . S
C16 C17 1.362 . S
C16 C19 1.378 . S
C16 H31 0.929 . S
C17 C16 1.362 . S
C17 C18 1.366 . S
C18 C15 1.365 . S
C18 C17 1.366 . S
C18 H32 0.930 . S
C19 C16 1.378 . S
C19 N20 1.315 . S
C19 H22 0.930 . S
N20 Co0 2.194 . S
N20 C15 1.328 . S
N20 C19 1.315 . S
H21 C15 0.929 . S
H22 C19 0.930 . S
H23 C11 0.929 . S
H24 C13 0.929 . S
O25 Co0 2.351 . S
O25 C28 1.244 . S
O26 Co0 2.155 . S
O26 C28 1.240 . S
O27 Co0 2.096 . S
O27 C8 1.247 . S
C28 O25 1.244 . S
C28 O26 1.240 . S
H29 C3 0.931 . S
H30 C12 0.931 . S
H31 C16 0.929 . S
H32 C18 0.930 . S
Co33 N37 2.148 . S
Co33 N43 2.128 . S
Co33 N53 2.194 . S
Co33 O58 2.351 . S
Co33 O59 2.155 . S
Co33 O60 2.096 . S
C34 N37 1.301 . S
C34 N38 1.328 . S
C34 H39 0.930 . S
C35 C36 1.333 . S
C35 N37 1.317 . S
C35 H40 0.930 . S
C36 C35 1.333 . S
C36 N38 1.350 . S
C36 H62 0.931 . S
N37 Co33 2.148 . S
N37 C34 1.301 . S
N37 C35 1.317 . S
N38 C34 1.328 . S
N38 C36 1.350 . S
H39 C34 0.930 . S
H40 C35 0.930 . S
C41 O42 1.224 . S
C41 O60 1.247 . S
O42 C41 1.224 . S
N43 Co33 2.128 . S
N43 C44 1.355 . S
N43 C46 1.311 . S
C44 N43 1.355 . S
C44 C45 1.363 . S
C44 H56 0.929 . S
C45 C44 1.363 . S
C45 N47 1.375 . S
C45 H63 0.931 . S
C46 N43 1.311 . S
C46 N47 1.347 . S
C46 H57 0.929 . S
N47 C45 1.375 . S
N47 C46 1.347 . S
C48 C51 1.365 . S
C48 N53 1.328 . S
C48 H54 0.929 . S
C49 C50 1.362 . S
C49 C52 1.378 . S
C49 H64 0.929 . S
C50 C49 1.362 . S
C50 C51 1.366 . S
C51 C48 1.365 . S
C51 C50 1.366 . S
C51 H65 0.930 . S
C52 C49 1.378 . S
C52 N53 1.315 . S
C52 H55 0.930 . S
N53 Co33 2.194 . S
N53 C48 1.328 . S
N53 C52 1.315 . S
H54 C48 0.929 . S
H55 C52 0.930 . S
H56 C44 0.929 . S
H57 C46 0.929 . S
O58 Co33 2.351 . S
O58 C61 1.244 . S
O59 Co33 2.155 . S
O59 C61 1.240 . S
O60 Co33 2.096 . S
O60 C41 1.247 . S
C61 O58 1.244 . S
C61 O59 1.240 . S
H62 C36 0.931 . S
H63 C45 0.931 . S
H64 C49 0.929 . S
H65 C51 0.930 . S
Co66 N70 2.148 . S
Co66 N76 2.128 . S
Co66 N86 2.194 . S
Co66 O91 2.351 . S
Co66 O92 2.155 . S
Co66 O93 2.096 . S
C67 N70 1.301 . S
C67 N71 1.328 . S
C67 H72 0.930 . S
C68 C69 1.333 . S
C68 N70 1.317 . S
C68 H73 0.930 . S
C69 C68 1.333 . S
C69 N71 1.350 . S
C69 H95 0.931 . S
N70 Co66 2.148 . S
N70 C67 1.301 . S
N70 C68 1.317 . S
N71 C67 1.328 . S
N71 C69 1.350 . S
H72 C67 0.930 . S
H73 C68 0.930 . S
C74 O75 1.224 . S
C74 O93 1.247 . S
O75 C74 1.224 . S
N76 Co66 2.128 . S
N76 C77 1.355 . S
N76 C79 1.311 . S
C77 N76 1.355 . S
C77 C78 1.363 . S
C77 H89 0.929 . S
C78 C77 1.363 . S
C78 N80 1.375 . S
C78 H96 0.931 . S
C79 N76 1.311 . S
C79 N80 1.347 . S
C79 H90 0.929 . S
N80 C78 1.375 . S
N80 C79 1.347 . S
C81 C84 1.365 . S
C81 N86 1.328 . S
C81 H87 0.929 . S
C82 C83 1.362 . S
C82 C85 1.378 . S
C82 H97 0.929 . S
C83 C82 1.362 . S
C83 C84 1.366 . S
C84 C81 1.365 . S
C84 C83 1.366 . S
C84 H98 0.930 . S
C85 C82 1.378 . S
C85 N86 1.315 . S
C85 H88 0.930 . S
N86 Co66 2.194 . S
N86 C81 1.328 . S
N86 C85 1.315 . S
H87 C81 0.929 . S
H88 C85 0.930 . S
H89 C77 0.929 . S
H90 C79 0.929 . S
O91 Co66 2.351 . S
O91 C94 1.244 . S
O92 Co66 2.155 . S
O92 C94 1.240 . S
O93 Co66 2.096 . S
O93 C74 1.247 . S
C94 O91 1.244 . S
C94 O92 1.240 . S
H95 C69 0.931 . S
H96 C78 0.931 . S
H97 C82 0.929 . S
H98 C84 0.930 . S
Co99 N103 2.148 . S
Co99 N109 2.128 . S
Co99 N119 2.194 . S
Co99 O124 2.351 . S
Co99 O125 2.155 . S
Co99 O126 2.096 . S
C100 N103 1.301 . S
C100 N104 1.328 . S
C100 H105 0.930 . S
C101 C102 1.333 . S
C101 N103 1.317 . S
C101 H106 0.930 . S
C102 C101 1.333 . S
C102 N104 1.350 . S
C102 H128 0.931 . S
N103 Co99 2.148 . S
N103 C100 1.301 . S
N103 C101 1.317 . S
N104 C100 1.328 . S
N104 C102 1.350 . S
H105 C100 0.930 . S
H106 C101 0.930 . S
C107 O108 1.224 . S
C107 O126 1.247 . S
O108 C107 1.224 . S
N109 Co99 2.128 . S
N109 C110 1.355 . S
N109 C112 1.311 . S
C110 N109 1.355 . S
C110 C111 1.363 . S
C110 H122 0.929 . S
C111 C110 1.363 . S
C111 N113 1.375 . S
C111 H129 0.931 . S
C112 N109 1.311 . S
C112 N113 1.347 . S
C112 H123 0.929 . S
N113 C111 1.375 . S
N113 C112 1.347 . S
C114 C117 1.365 . S
C114 N119 1.328 . S
C114 H120 0.929 . S
C115 C116 1.362 . S
C115 C118 1.378 . S
C115 H130 0.929 . S
C116 C115 1.362 . S
C116 C117 1.366 . S
C117 C114 1.365 . S
C117 C116 1.366 . S
C117 H131 0.930 . S
C118 C115 1.378 . S
C118 N119 1.315 . S
C118 H121 0.930 . S
N119 Co99 2.194 . S
N119 C114 1.328 . S
N119 C118 1.315 . S
H120 C114 0.929 . S
H121 C118 0.930 . S
H122 C110 0.929 . S
H123 C112 0.929 . S
O124 Co99 2.351 . S
O124 C127 1.244 . S
O125 Co99 2.155 . S
O125 C127 1.240 . S
O126 Co99 2.096 . S
O126 C107 1.247 . S
C127 O124 1.244 . S
C127 O125 1.240 . S
H128 C102 0.931 . S
H129 C111 0.931 . S
H130 C115 0.929 . S
H131 C117 0.930 . S
Co132 N136 2.148 . S
Co132 N142 2.128 . S
Co132 N152 2.194 . S
Co132 O157 2.351 . S
Co132 O158 2.155 . S
Co132 O159 2.096 . S
C133 N136 1.301 . S
C133 N137 1.328 . S
C133 H138 0.930 . S
C134 C135 1.333 . S
C134 N136 1.317 . S
C134 H139 0.930 . S
C135 C134 1.333 . S
C135 N137 1.350 . S
C135 H161 0.931 . S
N136 Co132 2.148 . S
N136 C133 1.301 . S
N136 C134 1.317 . S
N137 C133 1.328 . S
N137 C135 1.350 . S
H138 C133 0.930 . S
H139 C134 0.930 . S
C140 O141 1.224 . S
C140 O159 1.247 . S
O141 C140 1.224 . S
N142 Co132 2.128 . S
N142 C143 1.355 . S
N142 C145 1.311 . S
C143 N142 1.355 . S
C143 C144 1.363 . S
C143 H155 0.929 . S
C144 C143 1.363 . S
C144 N146 1.375 . S
C144 H162 0.931 . S
C145 N142 1.311 . S
C145 N146 1.347 . S
C145 H156 0.929 . S
N146 C144 1.375 . S
N146 C145 1.347 . S
C147 C150 1.365 . S
C147 N152 1.328 . S
C147 H153 0.929 . S
C148 C149 1.362 . S
C148 C151 1.378 . S
C148 H163 0.929 . S
C149 C148 1.362 . S
C149 C150 1.366 . S
C150 C147 1.365 . S
C150 C149 1.366 . S
C150 H164 0.930 . S
C151 C148 1.378 . S
C151 N152 1.315 . S
C151 H154 0.930 . S
N152 Co132 2.194 . S
N152 C147 1.328 . S
N152 C151 1.315 . S
H153 C147 0.929 . S
H154 C151 0.930 . S
H155 C143 0.929 . S
H156 C145 0.929 . S
O157 Co132 2.351 . S
O157 C160 1.244 . S
O158 Co132 2.155 . S
O158 C160 1.240 . S
O159 Co132 2.096 . S
O159 C140 1.247 . S
C160 O157 1.244 . S
C160 O158 1.240 . S
H161 C135 0.931 . S
H162 C144 0.931 . S
H163 C148 0.929 . S
H164 C150 0.930 . S
Co165 N169 2.148 . S
Co165 N175 2.128 . S
Co165 N185 2.194 . S
Co165 O190 2.351 . S
Co165 O191 2.155 . S
Co165 O192 2.096 . S
C166 N169 1.301 . S
C166 N170 1.328 . S
C166 H171 0.930 . S
C167 C168 1.333 . S
C167 N169 1.317 . S
C167 H172 0.930 . S
C168 C167 1.333 . S
C168 N170 1.350 . S
C168 H194 0.931 . S
N169 Co165 2.148 . S
N169 C166 1.301 . S
N169 C167 1.317 . S
N170 C166 1.328 . S
N170 C168 1.350 . S
H171 C166 0.930 . S
H172 C167 0.930 . S
C173 O174 1.224 . S
C173 O192 1.247 . S
O174 C173 1.224 . S
N175 Co165 2.128 . S
N175 C176 1.355 . S
N175 C178 1.311 . S
C176 N175 1.355 . S
C176 C177 1.363 . S
C176 H188 0.929 . S
C177 C176 1.363 . S
C177 N179 1.375 . S
C177 H195 0.931 . S
C178 N175 1.311 . S
C178 N179 1.347 . S
C178 H189 0.929 . S
N179 C177 1.375 . S
N179 C178 1.347 . S
C180 C183 1.365 . S
C180 N185 1.328 . S
C180 H186 0.929 . S
C181 C182 1.362 . S
C181 C184 1.378 . S
C181 H196 0.929 . S
C182 C181 1.362 . S
C182 C183 1.366 . S
C183 C180 1.365 . S
C183 C182 1.366 . S
C183 H197 0.930 . S
C184 C181 1.378 . S
C184 N185 1.315 . S
C184 H187 0.930 . S
N185 Co165 2.194 . S
N185 C180 1.328 . S
N185 C184 1.315 . S
H186 C180 0.929 . S
H187 C184 0.930 . S
H188 C176 0.929 . S
H189 C178 0.929 . S
O190 Co165 2.351 . S
O190 C193 1.244 . S
O191 Co165 2.155 . S
O191 C193 1.240 . S
O192 Co165 2.096 . S
O192 C173 1.247 . S
C193 O190 1.244 . S
C193 O191 1.240 . S
H194 C168 0.931 . S
H195 C177 0.931 . S
H196 C181 0.929 . S
H197 C183 0.930 . S
Co198 N202 2.148 . S
Co198 N208 2.128 . S
Co198 N218 2.194 . S
Co198 O223 2.351 . S
Co198 O224 2.155 . S
Co198 O225 2.096 . S
C199 N202 1.301 . S
C199 N203 1.328 . S
C199 H204 0.930 . S
C200 C201 1.333 . S
C200 N202 1.317 . S
C200 H205 0.930 . S
C201 C200 1.333 . S
C201 N203 1.350 . S
C201 H227 0.931 . S
N202 Co198 2.148 . S
N202 C199 1.301 . S
N202 C200 1.317 . S
N203 C199 1.328 . S
N203 C201 1.350 . S
H204 C199 0.930 . S
H205 C200 0.930 . S
C206 O207 1.224 . S
C206 O225 1.247 . S
O207 C206 1.224 . S
N208 Co198 2.128 . S
N208 C209 1.355 . S
N208 C211 1.311 . S
C209 N208 1.355 . S
C209 C210 1.363 . S
C209 H221 0.929 . S
C210 C209 1.363 . S
C210 N212 1.375 . S
C210 H228 0.931 . S
C211 N208 1.311 . S
C211 N212 1.347 . S
C211 H222 0.929 . S
N212 C210 1.375 . S
N212 C211 1.347 . S
C213 C216 1.365 . S
C213 N218 1.328 . S
C213 H219 0.929 . S
C214 C215 1.362 . S
C214 C217 1.378 . S
C214 H229 0.929 . S
C215 C214 1.362 . S
C215 C216 1.366 . S
C216 C213 1.365 . S
C216 C215 1.366 . S
C216 H230 0.930 . S
C217 C214 1.378 . S
C217 N218 1.315 . S
C217 H220 0.930 . S
N218 Co198 2.194 . S
N218 C213 1.328 . S
N218 C217 1.315 . S
H219 C213 0.929 . S
H220 C217 0.930 . S
H221 C209 0.929 . S
H222 C211 0.929 . S
O223 Co198 2.351 . S
O223 C226 1.244 . S
O224 Co198 2.155 . S
O224 C226 1.240 . S
O225 Co198 2.096 . S
O225 C206 1.247 . S
C226 O223 1.244 . S
C226 O224 1.240 . S
H227 C201 0.931 . S
H228 C210 0.931 . S
H229 C214 0.929 . S
H230 C216 0.930 . S
Co231 N235 2.148 . S
Co231 N241 2.128 . S
Co231 N251 2.194 . S
Co231 O256 2.351 . S
Co231 O257 2.155 . S
Co231 O258 2.096 . S
C232 N235 1.301 . S
C232 N236 1.328 . S
C232 H237 0.930 . S
C233 C234 1.333 . S
C233 N235 1.317 . S
C233 H238 0.930 . S
C234 C233 1.333 . S
C234 N236 1.350 . S
C234 H260 0.931 . S
N235 Co231 2.148 . S
N235 C232 1.301 . S
N235 C233 1.317 . S
N236 C232 1.328 . S
N236 C234 1.350 . S
H237 C232 0.930 . S
H238 C233 0.930 . S
C239 O240 1.224 . S
C239 O258 1.247 . S
O240 C239 1.224 . S
N241 Co231 2.128 . S
N241 C242 1.355 . S
N241 C244 1.311 . S
C242 N241 1.355 . S
C242 C243 1.363 . S
C242 H254 0.929 . S
C243 C242 1.363 . S
C243 N245 1.375 . S
C243 H261 0.931 . S
C244 N241 1.311 . S
C244 N245 1.347 . S
C244 H255 0.929 . S
N245 C243 1.375 . S
N245 C244 1.347 . S
C246 C249 1.365 . S
C246 N251 1.328 . S
C246 H252 0.929 . S
C247 C248 1.362 . S
C247 C250 1.378 . S
C247 H262 0.929 . S
C248 C247 1.362 . S
C248 C249 1.366 . S
C249 C246 1.365 . S
C249 C248 1.366 . S
C249 H263 0.930 . S
C250 C247 1.378 . S
C250 N251 1.315 . S
C250 H253 0.930 . S
N251 Co231 2.194 . S
N251 C246 1.328 . S
N251 C250 1.315 . S
H252 C246 0.929 . S
H253 C250 0.930 . S
H254 C242 0.929 . S
H255 C244 0.929 . S
O256 Co231 2.351 . S
O256 C259 1.244 . S
O257 Co231 2.155 . S
O257 C259 1.240 . S
O258 Co231 2.096 . S
O258 C239 1.247 . S
C259 O256 1.244 . S
C259 O257 1.240 . S
H260 C234 0.931 . S
H261 C243 0.931 . S
H262 C247 0.929 . S
H263 C249 0.930 . S
Co264 N268 2.148 . S
Co264 N274 2.128 . S
Co264 N284 2.194 . S
Co264 O289 2.351 . S
Co264 O290 2.155 . S
Co264 O291 2.096 . S
C265 N268 1.301 . S
C265 N269 1.328 . S
C265 H270 0.930 . S
C266 C267 1.333 . S
C266 N268 1.317 . S
C266 H271 0.930 . S
C267 C266 1.333 . S
C267 N269 1.350 . S
C267 H293 0.931 . S
N268 Co264 2.148 . S
N268 C265 1.301 . S
N268 C266 1.317 . S
N269 C265 1.328 . S
N269 C267 1.350 . S
H270 C265 0.930 . S
H271 C266 0.930 . S
C272 O273 1.224 . S
C272 O291 1.247 . S
O273 C272 1.224 . S
N274 Co264 2.128 . S
N274 C275 1.355 . S
N274 C277 1.311 . S
C275 N274 1.355 . S
C275 C276 1.363 . S
C275 H287 0.929 . S
C276 C275 1.363 . S
C276 N278 1.375 . S
C276 H294 0.931 . S
C277 N274 1.311 . S
C277 N278 1.347 . S
C277 H288 0.929 . S
N278 C276 1.375 . S
N278 C277 1.347 . S
C279 C282 1.365 . S
C279 N284 1.328 . S
C279 H285 0.929 . S
C280 C281 1.362 . S
C280 C283 1.378 . S
C280 H295 0.929 . S
C281 C280 1.362 . S
C281 C282 1.366 . S
C282 C279 1.365 . S
C282 C281 1.366 . S
C282 H296 0.930 . S
C283 C280 1.378 . S
C283 N284 1.315 . S
C283 H286 0.930 . S
N284 Co264 2.194 . S
N284 C279 1.328 . S
N284 C283 1.315 . S
H285 C279 0.929 . S
H286 C283 0.930 . S
H287 C275 0.929 . S
H288 C277 0.929 . S
O289 Co264 2.351 . S
O289 C292 1.244 . S
O290 Co264 2.155 . S
O290 C292 1.240 . S
O291 Co264 2.096 . S
O291 C272 1.247 . S
C292 O289 1.244 . S
C292 O290 1.240 . S
H293 C267 0.931 . S
H294 C276 0.931 . S
H295 C280 0.929 . S
H296 C282 0.930 . S
Co297 N301 2.148 . S
Co297 N307 2.128 . S
Co297 N317 2.194 . S
Co297 O322 2.351 . S
Co297 O323 2.155 . S
Co297 O324 2.096 . S
C298 N301 1.301 . S
C298 N302 1.328 . S
C298 H303 0.930 . S
C299 C300 1.333 . S
C299 N301 1.317 . S
C299 H304 0.930 . S
C300 C299 1.333 . S
C300 N302 1.350 . S
C300 H326 0.931 . S
N301 Co297 2.148 . S
N301 C298 1.301 . S
N301 C299 1.317 . S
N302 C298 1.328 . S
N302 C300 1.350 . S
H303 C298 0.930 . S
H304 C299 0.930 . S
C305 O306 1.224 . S
C305 O324 1.247 . S
O306 C305 1.224 . S
N307 Co297 2.128 . S
N307 C308 1.355 . S
N307 C310 1.311 . S
C308 N307 1.355 . S
C308 C309 1.363 . S
C308 H320 0.929 . S
C309 C308 1.363 . S
C309 N311 1.375 . S
C309 H327 0.931 . S
C310 N307 1.311 . S
C310 N311 1.347 . S
C310 H321 0.929 . S
N311 C309 1.375 . S
N311 C310 1.347 . S
C312 C315 1.365 . S
C312 N317 1.328 . S
C312 H318 0.929 . S
C313 C314 1.362 . S
C313 C316 1.378 . S
C313 H328 0.929 . S
C314 C313 1.362 . S
C314 C315 1.366 . S
C315 C312 1.365 . S
C315 C314 1.366 . S
C315 H329 0.930 . S
C316 C313 1.378 . S
C316 N317 1.315 . S
C316 H319 0.930 . S
N317 Co297 2.194 . S
N317 C312 1.328 . S
N317 C316 1.315 . S
H318 C312 0.929 . S
H319 C316 0.930 . S
H320 C308 0.929 . S
H321 C310 0.929 . S
O322 Co297 2.351 . S
O322 C325 1.244 . S
O323 Co297 2.155 . S
O323 C325 1.240 . S
O324 Co297 2.096 . S
O324 C305 1.247 . S
C325 O322 1.244 . S
C325 O323 1.240 . S
H326 C300 0.931 . S
H327 C309 0.931 . S
H328 C313 0.929 . S
H329 C315 0.930 . S
Co330 N334 2.148 . S
Co330 N340 2.128 . S
Co330 N350 2.194 . S
Co330 O355 2.351 . S
Co330 O356 2.155 . S
Co330 O357 2.096 . S
C331 N334 1.301 . S
C331 N335 1.328 . S
C331 H336 0.930 . S
C332 C333 1.333 . S
C332 N334 1.317 . S
C332 H337 0.930 . S
C333 C332 1.333 . S
C333 N335 1.350 . S
C333 H359 0.931 . S
N334 Co330 2.148 . S
N334 C331 1.301 . S
N334 C332 1.317 . S
N335 C331 1.328 . S
N335 C333 1.350 . S
H336 C331 0.930 . S
H337 C332 0.930 . S
C338 O339 1.224 . S
C338 O357 1.247 . S
O339 C338 1.224 . S
N340 Co330 2.128 . S
N340 C341 1.355 . S
N340 C343 1.311 . S
C341 N340 1.355 . S
C341 C342 1.363 . S
C341 H353 0.929 . S
C342 C341 1.363 . S
C342 N344 1.375 . S
C342 H360 0.931 . S
C343 N340 1.311 . S
C343 N344 1.347 . S
C343 H354 0.929 . S
N344 C342 1.375 . S
N344 C343 1.347 . S
C345 C348 1.365 . S
C345 N350 1.328 . S
C345 H351 0.929 . S
C346 C347 1.362 . S
C346 C349 1.378 . S
C346 H361 0.929 . S
C347 C346 1.362 . S
C347 C348 1.366 . S
C348 C345 1.365 . S
C348 C347 1.366 . S
C348 H362 0.930 . S
C349 C346 1.378 . S
C349 N350 1.315 . S
C349 H352 0.930 . S
N350 Co330 2.194 . S
N350 C345 1.328 . S
N350 C349 1.315 . S
H351 C345 0.929 . S
H352 C349 0.930 . S
H353 C341 0.929 . S
H354 C343 0.929 . S
O355 Co330 2.351 . S
O355 C358 1.244 . S
O356 Co330 2.155 . S
O356 C358 1.240 . S
O357 Co330 2.096 . S
O357 C338 1.247 . S
C358 O355 1.244 . S
C358 O356 1.240 . S
H359 C333 0.931 . S
H360 C342 0.931 . S
H361 C346 0.929 . S
H362 C348 0.930 . S
Co363 N367 2.148 . S
Co363 N373 2.128 . S
Co363 N383 2.194 . S
Co363 O388 2.351 . S
Co363 O389 2.155 . S
Co363 O390 2.096 . S
C364 N367 1.301 . S
C364 N368 1.328 . S
C364 H369 0.930 . S
C365 C366 1.333 . S
C365 N367 1.317 . S
C365 H370 0.930 . S
C366 C365 1.333 . S
C366 N368 1.350 . S
C366 H392 0.931 . S
N367 Co363 2.148 . S
N367 C364 1.301 . S
N367 C365 1.317 . S
N368 C364 1.328 . S
N368 C366 1.350 . S
H369 C364 0.930 . S
H370 C365 0.930 . S
C371 O372 1.224 . S
C371 O390 1.247 . S
O372 C371 1.224 . S
N373 Co363 2.128 . S
N373 C374 1.355 . S
N373 C376 1.311 . S
C374 N373 1.355 . S
C374 C375 1.363 . S
C374 H386 0.929 . S
C375 C374 1.363 . S
C375 N377 1.375 . S
C375 H393 0.931 . S
C376 N373 1.311 . S
C376 N377 1.347 . S
C376 H387 0.929 . S
N377 C375 1.375 . S
N377 C376 1.347 . S
C378 C381 1.365 . S
C378 N383 1.328 . S
C378 H384 0.929 . S
C379 C380 1.362 . S
C379 C382 1.378 . S
C379 H394 0.929 . S
C380 C379 1.362 . S
C380 C381 1.366 . S
C381 C378 1.365 . S
C381 C380 1.366 . S
C381 H395 0.930 . S
C382 C379 1.378 . S
C382 N383 1.315 . S
C382 H385 0.930 . S
N383 Co363 2.194 . S
N383 C378 1.328 . S
N383 C382 1.315 . S
H384 C378 0.929 . S
H385 C382 0.930 . S
H386 C374 0.929 . S
H387 C376 0.929 . S
O388 Co363 2.351 . S
O388 C391 1.244 . S
O389 Co363 2.155 . S
O389 C391 1.240 . S
O390 Co363 2.096 . S
O390 C371 1.247 . S
C391 O388 1.244 . S
C391 O389 1.240 . S
H392 C366 0.931 . S
H393 C375 0.931 . S
H394 C379 0.929 . S
H395 C381 0.930 . S
Co396 N400 2.148 . S
Co396 N406 2.128 . S
Co396 N416 2.194 . S
Co396 O421 2.351 . S
Co396 O422 2.155 . S
Co396 O423 2.096 . S
C397 N400 1.301 . S
C397 N401 1.328 . S
C397 H402 0.930 . S
C398 C399 1.333 . S
C398 N400 1.317 . S
C398 H403 0.930 . S
C399 C398 1.333 . S
C399 N401 1.350 . S
C399 H425 0.931 . S
N400 Co396 2.148 . S
N400 C397 1.301 . S
N400 C398 1.317 . S
N401 C397 1.328 . S
N401 C399 1.350 . S
H402 C397 0.930 . S
H403 C398 0.930 . S
C404 O405 1.224 . S
C404 O423 1.247 . S
O405 C404 1.224 . S
N406 Co396 2.128 . S
N406 C407 1.355 . S
N406 C409 1.311 . S
C407 N406 1.355 . S
C407 C408 1.363 . S
C407 H419 0.929 . S
C408 C407 1.363 . S
C408 N410 1.375 . S
C408 H426 0.931 . S
C409 N406 1.311 . S
C409 N410 1.347 . S
C409 H420 0.929 . S
N410 C408 1.375 . S
N410 C409 1.347 . S
C411 C414 1.365 . S
C411 N416 1.328 . S
C411 H417 0.929 . S
C412 C413 1.362 . S
C412 C415 1.378 . S
C412 H427 0.929 . S
C413 C412 1.362 . S
C413 C414 1.366 . S
C414 C411 1.365 . S
C414 C413 1.366 . S
C414 H428 0.930 . S
C415 C412 1.378 . S
C415 N416 1.315 . S
C415 H418 0.930 . S
N416 Co396 2.194 . S
N416 C411 1.328 . S
N416 C415 1.315 . S
H417 C411 0.929 . S
H418 C415 0.930 . S
H419 C407 0.929 . S
H420 C409 0.929 . S
O421 Co396 2.351 . S
O421 C424 1.244 . S
O422 Co396 2.155 . S
O422 C424 1.240 . S
O423 Co396 2.096 . S
O423 C404 1.247 . S
C424 O421 1.244 . S
C424 O422 1.240 . S
H425 C399 0.931 . S
H426 C408 0.931 . S
H427 C412 0.929 . S
H428 C414 0.930 . S
Co429 N433 2.148 . S
Co429 N439 2.128 . S
Co429 N449 2.194 . S
Co429 O454 2.351 . S
Co429 O455 2.155 . S
Co429 O456 2.096 . S
C430 N433 1.301 . S
C430 N434 1.328 . S
C430 H435 0.930 . S
C431 C432 1.333 . S
C431 N433 1.317 . S
C431 H436 0.930 . S
C432 C431 1.333 . S
C432 N434 1.350 . S
C432 H458 0.931 . S
N433 Co429 2.148 . S
N433 C430 1.301 . S
N433 C431 1.317 . S
N434 C430 1.328 . S
N434 C432 1.350 . S
H435 C430 0.930 . S
H436 C431 0.930 . S
C437 O438 1.224 . S
C437 O456 1.247 . S
O438 C437 1.224 . S
N439 Co429 2.128 . S
N439 C440 1.355 . S
N439 C442 1.311 . S
C440 N439 1.355 . S
C440 C441 1.363 . S
C440 H452 0.929 . S
C441 C440 1.363 . S
C441 N443 1.375 . S
C441 H459 0.931 . S
C442 N439 1.311 . S
C442 N443 1.347 . S
C442 H453 0.929 . S
N443 C441 1.375 . S
N443 C442 1.347 . S
C444 C447 1.365 . S
C444 N449 1.328 . S
C444 H450 0.929 . S
C445 C446 1.362 . S
C445 C448 1.378 . S
C445 H460 0.929 . S
C446 C445 1.362 . S
C446 C447 1.366 . S
C447 C444 1.365 . S
C447 C446 1.366 . S
C447 H461 0.930 . S
C448 C445 1.378 . S
C448 N449 1.315 . S
C448 H451 0.930 . S
N449 Co429 2.194 . S
N449 C444 1.328 . S
N449 C448 1.315 . S
H450 C444 0.929 . S
H451 C448 0.930 . S
H452 C440 0.929 . S
H453 C442 0.929 . S
O454 Co429 2.351 . S
O454 C457 1.244 . S
O455 Co429 2.155 . S
O455 C457 1.240 . S
O456 Co429 2.096 . S
O456 C437 1.247 . S
C457 O454 1.244 . S
C457 O455 1.240 . S
H458 C432 0.931 . S
H459 C441 0.931 . S
H460 C445 0.929 . S
H461 C447 0.930 . S
Co462 N466 2.148 . S
Co462 N472 2.128 . S
Co462 N482 2.194 . S
Co462 O487 2.351 . S
Co462 O488 2.155 . S
Co462 O489 2.096 . S
C463 N466 1.301 . S
C463 N467 1.328 . S
C463 H468 0.930 . S
C464 C465 1.333 . S
C464 N466 1.317 . S
C464 H469 0.930 . S
C465 C464 1.333 . S
C465 N467 1.350 . S
C465 H491 0.931 . S
N466 Co462 2.148 . S
N466 C463 1.301 . S
N466 C464 1.317 . S
N467 C463 1.328 . S
N467 C465 1.350 . S
H468 C463 0.930 . S
H469 C464 0.930 . S
C470 O471 1.224 . S
C470 O489 1.247 . S
O471 C470 1.224 . S
N472 Co462 2.128 . S
N472 C473 1.355 . S
N472 C475 1.311 . S
C473 N472 1.355 . S
C473 C474 1.363 . S
C473 H485 0.929 . S
C474 C473 1.363 . S
C474 N476 1.375 . S
C474 H492 0.931 . S
C475 N472 1.311 . S
C475 N476 1.347 . S
C475 H486 0.929 . S
N476 C474 1.375 . S
N476 C475 1.347 . S
C477 C480 1.365 . S
C477 N482 1.328 . S
C477 H483 0.929 . S
C478 C479 1.362 . S
C478 C481 1.378 . S
C478 H493 0.929 . S
C479 C478 1.362 . S
C479 C480 1.366 . S
C480 C477 1.365 . S
C480 C479 1.366 . S
C480 H494 0.930 . S
C481 C478 1.378 . S
C481 N482 1.315 . S
C481 H484 0.930 . S
N482 Co462 2.194 . S
N482 C477 1.328 . S
N482 C481 1.315 . S
H483 C477 0.929 . S
H484 C481 0.930 . S
H485 C473 0.929 . S
H486 C475 0.929 . S
O487 Co462 2.351 . S
O487 C490 1.244 . S
O488 Co462 2.155 . S
O488 C490 1.240 . S
O489 Co462 2.096 . S
O489 C470 1.247 . S
C490 O487 1.244 . S
C490 O488 1.240 . S
H491 C465 0.931 . S
H492 C474 0.931 . S
H493 C478 0.929 . S
H494 C480 0.930 . S
Co495 N499 2.148 . S
Co495 N505 2.128 . S
Co495 N515 2.194 . S
Co495 O520 2.351 . S
Co495 O521 2.155 . S
Co495 O522 2.096 . S
C496 N499 1.301 . S
C496 N500 1.328 . S
C496 H501 0.930 . S
C497 C498 1.333 . S
C497 N499 1.317 . S
C497 H502 0.930 . S
C498 C497 1.333 . S
C498 N500 1.350 . S
C498 H524 0.931 . S
N499 Co495 2.148 . S
N499 C496 1.301 . S
N499 C497 1.317 . S
N500 C496 1.328 . S
N500 C498 1.350 . S
H501 C496 0.930 . S
H502 C497 0.930 . S
C503 O504 1.224 . S
C503 O522 1.247 . S
O504 C503 1.224 . S
N505 Co495 2.128 . S
N505 C506 1.355 . S
N505 C508 1.311 . S
C506 N505 1.355 . S
C506 C507 1.363 . S
C506 H518 0.929 . S
C507 C506 1.363 . S
C507 N509 1.375 . S
C507 H525 0.931 . S
C508 N505 1.311 . S
C508 N509 1.347 . S
C508 H519 0.929 . S
N509 C507 1.375 . S
N509 C508 1.347 . S
C510 C513 1.365 . S
C510 N515 1.328 . S
C510 H516 0.929 . S
C511 C512 1.362 . S
C511 C514 1.378 . S
C511 H526 0.929 . S
C512 C511 1.362 . S
C512 C513 1.366 . S
C513 C510 1.365 . S
C513 C512 1.366 . S
C513 H527 0.930 . S
C514 C511 1.378 . S
C514 N515 1.315 . S
C514 H517 0.930 . S
N515 Co495 2.194 . S
N515 C510 1.328 . S
N515 C514 1.315 . S
H516 C510 0.929 . S
H517 C514 0.930 . S
H518 C506 0.929 . S
H519 C508 0.929 . S
O520 Co495 2.351 . S
O520 C523 1.244 . S
O521 Co495 2.155 . S
O521 C523 1.240 . S
O522 Co495 2.096 . S
O522 C503 1.247 . S
C523 O520 1.244 . S
C523 O521 1.240 . S
H524 C498 0.931 . S
H525 C507 0.931 . S
H526 C511 0.929 . S
H527 C513 0.930 . S
C528 C529 1.349 . S
C528 C530 1.327 1_545 S
C528 H553 0.950 . S
C529 C528 1.349 . S
C529 C545 1.349 . S
C530 C528 1.327 1_565 S
C530 C549 1.429 . S
C530 H554 0.950 . S
C531 C548 1.574 . S
C531 C550 1.368 . S
C531 H555 0.949 . S
H532 C536 0.949 . S
C533 C534 1.349 . S
C533 C535 1.327 . S
C533 H556 0.950 . S
C534 C533 1.349 . S
C534 C546 1.349 . S
C535 C533 1.327 . S
C535 C551 1.429 . S
C535 H557 0.950 . S
C536 H532 0.949 . S
C536 C544 1.574 . S
C536 C552 1.368 . S
H537 C545 0.950 . S
H538 C543 0.950 . S
H539 C544 0.949 . S
H540 C546 0.950 . S
H541 C547 0.950 . S
H542 C548 0.949 . S
C543 H538 0.950 . S
C543 C545 1.327 1_565 S
C543 C549 1.429 . S
C544 C536 1.574 . S
C544 H539 0.949 . S
C544 C550 1.368 . S
C545 C529 1.349 . S
C545 H537 0.950 . S
C545 C543 1.327 1_545 S
C546 C534 1.349 . S
C546 H540 0.950 . S
C546 C547 1.327 . S
C547 H541 0.950 . S
C547 C546 1.327 . S
C547 C551 1.429 . S
C548 C531 1.574 . S
C548 H542 0.949 . S
C548 C552 1.368 . S
C549 C530 1.429 . S
C549 C543 1.429 . S
C549 C550 1.523 . S
C550 C531 1.368 . S
C550 C544 1.368 . S
C550 C549 1.523 . S
C551 C535 1.429 . S
C551 C547 1.429 . S
C551 C552 1.523 . S
C552 C536 1.368 . S
C552 C548 1.368 . S
C552 C551 1.523 . S
H553 C528 0.950 . S
H554 C530 0.950 . S
H555 C531 0.949 . S
H556 C533 0.950 . S
H557 C535 0.950 . S
C558 C559 1.349 . S
C558 C560 1.327 . S
C558 H583 0.950 . S
C559 C558 1.349 . S
C559 C575 1.349 . S
C560 C558 1.327 . S
C560 C579 1.429 . S
C560 H584 0.950 . S
C561 C578 1.574 . S
C561 C580 1.368 . S
C561 H585 0.949 . S
H562 C566 0.949 . S
C563 C564 1.349 . S
C563 C565 1.327 1_655 S
C563 H586 0.950 . S
C564 C563 1.349 . S
C564 C576 1.349 . S
C565 C563 1.327 1_455 S
C565 C581 1.429 . S
C565 H587 0.950 . S
C566 H562 0.949 . S
C566 C574 1.574 . S
C566 C582 1.368 . S
H567 C575 0.950 . S
H568 C573 0.950 . S
H569 C574 0.949 . S
H570 C576 0.950 . S
H571 C577 0.950 . S
H572 C578 0.949 . S
C573 H568 0.950 . S
C573 C575 1.327 . S
C573 C579 1.429 . S
C574 C566 1.574 . S
C574 H569 0.949 . S
C574 C580 1.368 . S
C575 C559 1.349 . S
C575 H567 0.950 . S
C575 C573 1.327 . S
C576 C564 1.349 . S
C576 H570 0.950 . S
C576 C577 1.327 1_655 S
C577 H571 0.950 . S
C577 C576 1.327 1_455 S
C577 C581 1.429 . S
C578 C561 1.574 . S
C578 H572 0.949 . S
C578 C582 1.368 . S
C579 C560 1.429 . S
C579 C573 1.429 . S
C579 C580 1.523 . S
C580 C561 1.368 . S
C580 C574 1.368 . S
C580 C579 1.523 . S
C581 C565 1.429 . S
C581 C577 1.429 . S
C581 C582 1.523 . S
C582 C566 1.368 . S
C582 C578 1.368 . S
C582 C581 1.523 . S
H583 C558 0.950 . S
H584 C560 0.950 . S
H585 C561 0.949 . S
H586 C563 0.950 . S
H587 C565 0.950 . S
C588 C589 1.349 . S
C588 C590 1.327 1_565 S
C588 H613 0.950 . S
C589 C588 1.349 . S
C589 C605 1.349 . S
C590 C588 1.327 1_545 S
C590 C609 1.429 . S
C590 H614 0.950 . S
C591 C608 1.574 . S
C591 C610 1.368 . S
C591 H615 0.949 . S
H592 C596 0.949 . S
C593 C594 1.349 . S
C593 C595 1.327 . S
C593 H616 0.950 . S
C594 C593 1.349 . S
C594 C606 1.349 . S
C595 C593 1.327 . S
C595 C611 1.429 . S
C595 H617 0.950 . S
C596 H592 0.949 . S
C596 C604 1.574 . S
C596 C612 1.368 . S
H597 C605 0.950 . S
H598 C603 0.950 . S
H599 C604 0.949 . S
H600 C606 0.950 . S
H601 C607 0.950 . S
H602 C608 0.949 . S
C603 H598 0.950 . S
C603 C605 1.327 1_545 S
C603 C609 1.429 . S
C604 C596 1.574 . S
C604 H599 0.949 . S
C604 C610 1.368 . S
C605 C589 1.349 . S
C605 H597 0.950 . S
C605 C603 1.327 1_565 S
C606 C594 1.349 . S
C606 H600 0.950 . S
C606 C607 1.327 . S
C607 H601 0.950 . S
C607 C606 1.327 . S
C607 C611 1.429 . S
C608 C591 1.574 . S
C608 H602 0.949 . S
C608 C612 1.368 . S
C609 C590 1.429 . S
C609 C603 1.429 . S
C609 C610 1.523 . S
C610 C591 1.368 . S
C610 C604 1.368 . S
C610 C609 1.523 . S
C611 C595 1.429 . S
C611 C607 1.429 . S
C611 C612 1.523 . S
C612 C596 1.368 . S
C612 C608 1.368 . S
C612 C611 1.523 . S
H613 C588 0.950 . S
H614 C590 0.950 . S
H615 C591 0.949 . S
H616 C593 0.950 . S
H617 C595 0.950 . S
C618 C619 1.349 . S
C618 C620 1.327 . S
C618 H643 0.950 . S
C619 C618 1.349 . S
C619 C635 1.349 . S
C620 C618 1.327 . S
C620 C639 1.429 . S
C620 H644 0.950 . S
C621 C638 1.574 . S
C621 C640 1.368 . S
C621 H645 0.949 . S
H622 C626 0.949 . S
C623 C624 1.349 . S
C623 C625 1.285 1_455 S
C623 H646 0.950 . S
C624 C623 1.349 . S
C624 C636 1.349 . S
C625 C623 1.285 1_655 S
C625 C641 1.463 . S
C625 H647 0.959 . S
C626 H622 0.949 . S
C626 C634 1.574 . S
C626 C642 1.368 . S
H627 C635 0.950 . S
H628 C633 0.950 . S
H629 C634 0.949 . S
H630 C636 0.950 . S
H631 C637 0.950 . S
H632 C638 0.949 . S
C633 H628 0.950 . S
C633 C635 1.327 . S
C633 C639 1.429 . S
C634 C626 1.574 . S
C634 H629 0.949 . S
C634 C640 1.368 . S
C635 C619 1.349 . S
C635 H627 0.950 . S
C635 C633 1.327 . S
C636 C624 1.349 . S
C636 H630 0.950 . S
C636 C637 1.327 1_455 S
C637 H631 0.950 . S
C637 C636 1.327 1_655 S
C637 C641 1.429 . S
C638 C621 1.574 . S
C638 H632 0.949 . S
C638 C642 1.368 . S
C639 C620 1.429 . S
C639 C633 1.429 . S
C639 C640 1.523 . S
C640 C621 1.368 . S
C640 C634 1.368 . S
C640 C639 1.523 . S
C641 C625 1.463 . S
C641 C637 1.429 . S
C641 C642 1.523 . S
C642 C626 1.368 . S
C642 C638 1.368 . S
C642 C641 1.523 . S
H643 C618 0.950 . S
H644 C620 0.950 . S
H645 C621 0.949 . S
H646 C623 0.950 . S
H647 C625 0.959 . S
C648 C649 1.349 . S
C648 C650 1.327 . S
C648 H673 0.950 . S
C649 C648 1.349 . S
C649 C665 1.349 . S
C650 C648 1.327 . S
C650 C669 1.429 . S
C650 H674 0.950 . S
C651 C668 1.574 . S
C651 C670 1.368 . S
C651 H675 0.949 . S
H652 C656 0.949 . S
C653 C654 1.349 . S
C653 C655 1.327 1_565 S
C653 H676 0.950 . S
C654 C653 1.349 . S
C654 C666 1.349 . S
C655 C653 1.327 1_545 S
C655 C671 1.429 . S
C655 H677 0.950 . S
C656 H652 0.949 . S
C656 C664 1.574 . S
C656 C672 1.368 . S
H657 C665 0.950 . S
H658 C663 0.950 . S
H659 C664 0.949 . S
H660 C666 0.950 . S
H661 C667 0.950 . S
H662 C668 0.949 . S
C663 H658 0.950 . S
C663 C665 1.327 . S
C663 C669 1.429 . S
C664 C656 1.574 . S
C664 H659 0.949 . S
C664 C670 1.368 . S
C665 C649 1.349 . S
C665 H657 0.950 . S
C665 C663 1.327 . S
C666 C654 1.349 . S
C666 H660 0.950 . S
C666 C667 1.327 1_565 S
C667 H661 0.950 . S
C667 C666 1.327 1_545 S
C667 C671 1.429 . S
C668 C651 1.574 . S
C668 H662 0.949 . S
C668 C672 1.368 . S
C669 C650 1.429 . S
C669 C663 1.429 . S
C669 C670 1.523 . S
C670 C651 1.368 . S
C670 C664 1.368 . S
C670 C669 1.523 . S
C671 C655 1.429 . S
C671 C667 1.429 . S
C671 C672 1.523 . S
C672 C656 1.368 . S
C672 C668 1.368 . S
C672 C671 1.523 . S
H673 C648 0.950 . S
H674 C650 0.950 . S
H675 C651 0.949 . S
H676 C653 0.950 . S
H677 C655 0.950 . S
C678 C679 1.349 . S
C678 C680 1.327 . S
C678 H703 0.950 . S
C679 C678 1.349 . S
C679 C695 1.349 . S
C680 C678 1.327 . S
C680 C699 1.429 . S
C680 H704 0.950 . S
C681 C698 1.574 . S
C681 C700 1.368 . S
C681 H705 0.949 . S
H682 C686 0.949 . S
C683 C684 1.349 . S
C683 C685 1.327 1_455 S
C683 H706 0.950 . S
C684 C683 1.349 . S
C684 C696 1.349 . S
C685 C683 1.327 1_655 S
C685 C701 1.429 . S
C685 H707 0.950 . S
C686 H682 0.949 . S
C686 C694 1.574 . S
C686 C702 1.368 . S
H687 C695 0.950 . S
H688 C693 0.950 . S
H689 C694 0.949 . S
H690 C696 0.950 . S
H691 C697 0.950 . S
H692 C698 0.949 . S
C693 H688 0.950 . S
C693 C695 1.327 . S
C693 C699 1.429 . S
C694 C686 1.574 . S
C694 H689 0.949 . S
C694 C700 1.368 . S
C695 C679 1.349 . S
C695 H687 0.950 . S
C695 C693 1.327 . S
C696 C684 1.349 . S
C696 H690 0.950 . S
C696 C697 1.327 1_455 S
C697 H691 0.950 . S
C697 C696 1.327 1_655 S
C697 C701 1.429 . S
C698 C681 1.574 . S
C698 H692 0.949 . S
C698 C702 1.368 . S
C699 C680 1.429 . S
C699 C693 1.429 . S
C699 C700 1.523 . S
C700 C681 1.368 . S
C700 C694 1.368 . S
C700 C699 1.523 . S
C701 C685 1.429 . S
C701 C697 1.429 . S
C701 C702 1.523 . S
C702 C686 1.368 . S
C702 C698 1.368 . S
C702 C701 1.523 . S
H703 C678 0.950 . S
H704 C680 0.950 . S
H705 C681 0.949 . S
H706 C683 0.950 . S
H707 C685 0.950 . S
C708 C709 1.349 . S
C708 C710 1.327 . S
C708 H733 0.950 . S
C709 C708 1.349 . S
C709 C725 1.349 . S
C710 C708 1.327 . S
C710 C729 1.429 . S
C710 H734 0.950 . S
C711 C728 1.574 . S
C711 C730 1.368 . S
C711 H735 0.949 . S
H712 C716 0.949 . S
C713 C714 1.349 . S
C713 C715 1.288 1_545 S
C713 H736 0.950 . S
C714 C713 1.349 . S
C714 C726 1.349 . S
C715 C713 1.288 1_565 S
C715 C731 1.460 . S
C715 H737 0.958 . S
C716 H712 0.949 . S
C716 C724 1.574 . S
C716 C732 1.368 . S
H717 C725 0.950 . S
H718 C723 0.950 . S
H719 C724 0.949 . S
H720 C726 0.950 . S
H721 C727 0.950 . S
H722 C728 0.949 . S
C723 H718 0.950 . S
C723 C725 1.327 . S
C723 C729 1.429 . S
C724 C716 1.574 . S
C724 H719 0.949 . S
C724 C730 1.368 . S
C725 C709 1.349 . S
C725 H717 0.950 . S
C725 C723 1.327 . S
C726 C714 1.349 . S
C726 H720 0.950 . S
C726 C727 1.327 1_545 S
C727 H721 0.950 . S
C727 C726 1.327 1_565 S
C727 C731 1.429 . S
C728 C711 1.574 . S
C728 H722 0.949 . S
C728 C732 1.368 . S
C729 C710 1.429 . S
C729 C723 1.429 . S
C729 C730 1.523 . S
C730 C711 1.368 . S
C730 C724 1.368 . S
C730 C729 1.523 . S
C731 C715 1.460 . S
C731 C727 1.429 . S
C731 C732 1.523 . S
C732 C716 1.368 . S
C732 C728 1.368 . S
C732 C731 1.523 . S
H733 C708 0.950 . S
H734 C710 0.950 . S
H735 C711 0.949 . S
H736 C713 0.950 . S
H737 C715 0.958 . S
C738 C739 1.349 . S
C738 C740 1.322 1_655 S
C738 H763 0.950 . S
C739 C738 1.349 . S
C739 C755 1.349 . S
C740 C738 1.322 1_455 S
C740 C759 1.432 . S
C740 H764 0.950 . S
C741 C758 1.574 . S
C741 C760 1.368 . S
C741 H765 0.949 . S
H742 C746 0.949 . S
C743 C744 1.349 . S
C743 C745 1.327 . S
C743 H766 0.950 . S
C744 C743 1.349 . S
C744 C756 1.349 . S
C745 C743 1.327 . S
C745 C761 1.429 . S
C745 H767 0.950 . S
C746 H742 0.949 . S
C746 C754 1.574 . S
C746 C762 1.368 . S
H747 C755 0.950 . S
H748 C753 0.950 . S
H749 C754 0.949 . S
H750 C756 0.950 . S
H751 C757 0.950 . S
H752 C758 0.949 . S
C753 H748 0.950 . S
C753 C755 1.327 1_455 S
C753 C759 1.429 . S
C754 C746 1.574 . S
C754 H749 0.949 . S
C754 C760 1.368 . S
C755 C739 1.349 . S
C755 H747 0.950 . S
C755 C753 1.327 1_655 S
C756 C744 1.349 . S
C756 H750 0.950 . S
C756 C757 1.327 . S
C757 H751 0.950 . S
C757 C756 1.327 . S
C757 C761 1.429 . S
C758 C741 1.574 . S
C758 H752 0.949 . S
C758 C762 1.368 . S
C759 C740 1.432 . S
C759 C753 1.429 . S
C759 C760 1.523 . S
C760 C741 1.368 . S
C760 C754 1.368 . S
C760 C759 1.523 . S
C761 C745 1.429 . S
C761 C757 1.429 . S
C761 C762 1.523 . S
C762 C746 1.368 . S
C762 C758 1.368 . S
C762 C761 1.523 . S
H763 C738 0.950 . S
H764 C740 0.950 . S
H765 C741 0.949 . S
H766 C743 0.950 . S
H767 C745 0.950 . S
C768 C769 1.349 . S
C768 C770 1.327 . S
C768 H793 0.950 . S
C769 C768 1.349 . S
C769 C785 1.349 . S
C770 C768 1.327 . S
C770 C789 1.429 . S
C770 H794 0.950 . S
C771 C788 1.574 . S
C771 C790 1.368 . S
C771 H795 0.949 . S
H772 C776 0.949 . S
C773 C774 1.349 . S
C773 C775 1.327 . S
C773 H796 0.950 . S
C774 C773 1.349 . S
C774 C786 1.349 . S
C775 C773 1.327 . S
C775 C791 1.429 . S
C775 H797 0.950 . S
C776 H772 0.949 . S
C776 C784 1.574 . S
C776 C792 1.368 . S
H777 C785 0.950 . S
H778 C783 0.950 . S
H779 C784 0.949 . S
H780 C786 0.950 . S
H781 C787 0.950 . S
H782 C788 0.949 . S
C783 H778 0.950 . S
C783 C785 1.327 . S
C783 C789 1.429 . S
C784 C776 1.574 . S
C784 H779 0.949 . S
C784 C790 1.368 . S
C785 C769 1.349 . S
C785 H777 0.950 . S
C785 C783 1.327 . S
C786 C774 1.349 . S
C786 H780 0.950 . S
C786 C787 1.327 . S
C787 H781 0.950 . S
C787 C786 1.327 . S
C787 C791 1.429 . S
C788 C771 1.574 . S
C788 H782 0.949 . S
C788 C792 1.368 . S
C789 C770 1.429 . S
C789 C783 1.429 . S
C789 C790 1.523 . S
C790 C771 1.368 . S
C790 C784 1.368 . S
C790 C789 1.523 . S
C791 C775 1.429 . S
C791 C787 1.429 . S
C791 C792 1.523 . S
C792 C776 1.368 . S
C792 C788 1.368 . S
C792 C791 1.523 . S
H793 C768 0.950 . S
H794 C770 0.950 . S
H795 C771 0.949 . S
H796 C773 0.950 . S
H797 C775 0.950 . S
C798 C799 1.349 . S
C798 C800 1.327 . S
C798 H823 0.950 . S
C799 C798 1.349 . S
C799 C815 1.349 . S
C800 C798 1.327 . S
C800 C819 1.429 . S
C800 H824 0.950 . S
C801 C818 1.574 . S
C801 C820 1.368 . S
C801 H825 0.949 . S
H802 C806 0.949 . S
C803 C804 1.349 . S
C803 C805 1.327 . S
C803 H826 0.950 . S
C804 C803 1.349 . S
C804 C816 1.349 . S
C805 C803 1.327 . S
C805 C821 1.429 . S
C805 H827 0.950 . S
C806 H802 0.949 . S
C806 C814 1.574 . S
C806 C822 1.368 . S
H807 C815 0.950 . S
H808 C813 0.950 . S
H809 C814 0.949 . S
H810 C816 0.950 . S
H811 C817 0.950 . S
H812 C818 0.949 . S
C813 H808 0.950 . S
C813 C815 1.327 . S
C813 C819 1.429 . S
C814 C806 1.574 . S
C814 H809 0.949 . S
C814 C820 1.368 . S
C815 C799 1.349 . S
C815 H807 0.950 . S
C815 C813 1.327 . S
C816 C804 1.349 . S
C816 H810 0.950 . S
C816 C817 1.327 . S
C817 H811 0.950 . S
C817 C816 1.327 . S
C817 C821 1.429 . S
C818 C801 1.574 . S
C818 H812 0.949 . S
C818 C822 1.368 . S
C819 C800 1.429 . S
C819 C813 1.429 . S
C819 C820 1.523 . S
C820 C801 1.368 . S
C820 C814 1.368 . S
C820 C819 1.523 . S
C821 C805 1.429 . S
C821 C817 1.429 . S
C821 C822 1.523 . S
C822 C806 1.368 . S
C822 C818 1.368 . S
C822 C821 1.523 . S
H823 C798 0.950 . S
H824 C800 0.950 . S
H825 C801 0.949 . S
H826 C803 0.950 . S
H827 C805 0.950 . S
C828 C829 1.349 . S
C828 C830 1.327 . S
C828 H853 0.950 . S
C829 C828 1.349 . S
C829 C845 1.349 . S
C830 C828 1.327 . S
C830 C849 1.429 . S
C830 H854 0.950 . S
C831 C848 1.574 . S
C831 C850 1.368 . S
C831 H855 0.949 . S
H832 C836 0.949 . S
C833 C834 1.349 . S
C833 C835 1.327 . S
C833 H856 0.950 . S
C834 C833 1.349 . S
C834 C846 1.349 . S
C835 C833 1.327 . S
C835 C851 1.429 . S
C835 H857 0.950 . S
C836 H832 0.949 . S
C836 C844 1.574 . S
C836 C852 1.368 . S
H837 C845 0.950 . S
H838 C843 0.950 . S
H839 C844 0.949 . S
H840 C846 0.950 . S
H841 C847 0.950 . S
H842 C848 0.949 . S
C843 H838 0.950 . S
C843 C845 1.327 . S
C843 C849 1.429 . S
C844 C836 1.574 . S
C844 H839 0.949 . S
C844 C850 1.368 . S
C845 C829 1.349 . S
C845 H837 0.950 . S
C845 C843 1.327 . S
C846 C834 1.349 . S
C846 H840 0.950 . S
C846 C847 1.327 . S
C847 H841 0.950 . S
C847 C846 1.327 . S
C847 C851 1.429 . S
C848 C831 1.574 . S
C848 H842 0.949 . S
C848 C852 1.368 . S
C849 C830 1.429 . S
C849 C843 1.429 . S
C849 C850 1.523 . S
C850 C831 1.368 . S
C850 C844 1.368 . S
C850 C849 1.523 . S
C851 C835 1.429 . S
C851 C847 1.429 . S
C851 C852 1.523 . S
C852 C836 1.368 . S
C852 C848 1.368 . S
C852 C851 1.523 . S
H853 C828 0.950 . S
H854 C830 0.950 . S
H855 C831 0.949 . S
H856 C833 0.950 . S
H857 C835 0.950 . S
C858 C859 1.349 . S
C858 C860 1.327 . S
C858 H883 0.950 . S
C859 C858 1.349 . S
C859 C875 1.349 . S
C860 C858 1.327 . S
C860 C879 1.429 . S
C860 H884 0.950 . S
C861 C878 1.574 . S
C861 C880 1.368 . S
C861 H885 0.949 . S
H862 C866 0.949 . S
C863 C864 1.349 . S
C863 C865 1.327 . S
C863 H886 0.950 . S
C864 C863 1.349 . S
C864 C876 1.349 . S
C865 C863 1.327 . S
C865 C881 1.429 . S
C865 H887 0.950 . S
C866 H862 0.949 . S
C866 C874 1.574 . S
C866 C882 1.368 . S
H867 C875 0.950 . S
H868 C873 0.950 . S
H869 C874 0.949 . S
H870 C876 0.950 . S
H871 C877 0.950 . S
H872 C878 0.949 . S
C873 H868 0.950 . S
C873 C875 1.327 . S
C873 C879 1.429 . S
C874 C866 1.574 . S
C874 H869 0.949 . S
C874 C880 1.368 . S
C875 C859 1.349 . S
C875 H867 0.950 . S
C875 C873 1.327 . S
C876 C864 1.349 . S
C876 H870 0.950 . S
C876 C877 1.327 . S
C877 H871 0.950 . S
C877 C876 1.327 . S
C877 C881 1.429 . S
C878 C861 1.574 . S
C878 H872 0.949 . S
C878 C882 1.368 . S
C879 C860 1.429 . S
C879 C873 1.429 . S
C879 C880 1.523 . S
C880 C861 1.368 . S
C880 C874 1.368 . S
C880 C879 1.523 . S
C881 C865 1.429 . S
C881 C877 1.429 . S
C881 C882 1.523 . S
C882 C866 1.368 . S
C882 C878 1.368 . S
C882 C881 1.523 . S
H883 C858 0.950 . S
H884 C860 0.950 . S
H885 C861 0.949 . S
H886 C863 0.950 . S
H887 C865 0.950 . S
C888 C889 1.349 . S
C888 C890 1.327 . S
C888 H913 0.950 . S
C889 C888 1.349 . S
C889 C905 1.349 . S
C890 C888 1.327 . S
C890 C909 1.429 . S
C890 H914 0.950 . S
C891 C908 1.574 . S
C891 C910 1.368 . S
C891 H915 0.949 . S
H892 C896 0.949 . S
C893 C894 1.349 . S
C893 C895 1.327 . S
C893 H916 0.950 . S
C894 C893 1.349 . S
C894 C906 1.349 . S
C895 C893 1.327 . S
C895 C911 1.429 . S
C895 H917 0.950 . S
C896 H892 0.949 . S
C896 C904 1.574 . S
C896 C912 1.368 . S
H897 C905 0.950 . S
H898 C903 0.950 . S
H899 C904 0.949 . S
H900 C906 0.950 . S
H901 C907 0.950 . S
H902 C908 0.949 . S
C903 H898 0.950 . S
C903 C905 1.327 . S
C903 C909 1.429 . S
C904 C896 1.574 . S
C904 H899 0.949 . S
C904 C910 1.368 . S
C905 C889 1.349 . S
C905 H897 0.950 . S
C905 C903 1.327 . S
C906 C894 1.349 . S
C906 H900 0.950 . S
C906 C907 1.327 . S
C907 H901 0.950 . S
C907 C906 1.327 . S
C907 C911 1.429 . S
C908 C891 1.574 . S
C908 H902 0.949 . S
C908 C912 1.368 . S
C909 C890 1.429 . S
C909 C903 1.429 . S
C909 C910 1.523 . S
C910 C891 1.368 . S
C910 C904 1.368 . S
C910 C909 1.523 . S
C911 C895 1.429 . S
C911 C907 1.429 . S
C911 C912 1.523 . S
C912 C896 1.368 . S
C912 C908 1.368 . S
C912 C911 1.523 . S
H913 C888 0.950 . S
H914 C890 0.950 . S
H915 C891 0.949 . S
H916 C893 0.950 . S
H917 C895 0.950 . S
C918 C919 1.349 . S
C918 C920 1.327 . S
C918 H943 0.950 . S
C919 C918 1.349 . S
C919 C935 1.349 . S
C920 C918 1.327 . S
C920 C939 1.429 . S
C920 H944 0.950 . S
C921 C938 1.574 . S
C921 C940 1.368 . S
C921 H945 0.949 . S
H922 C926 0.949 . S
C923 C924 1.349 . S
C923 C925 1.327 . S
C923 H946 0.950 . S
C924 C923 1.349 . S
C924 C936 1.349 . S
C925 C923 1.327 . S
C925 C941 1.429 . S
C925 H947 0.950 . S
C926 H922 0.949 . S
C926 C934 1.574 . S
C926 C942 1.368 . S
H927 C935 0.950 . S
H928 C933 0.950 . S
H929 C934 0.949 . S
H930 C936 0.950 . S
H931 C937 0.950 . S
H932 C938 0.949 . S
C933 H928 0.950 . S
C933 C935 1.327 . S
C933 C939 1.429 . S
C934 C926 1.574 . S
C934 H929 0.949 . S
C934 C940 1.368 . S
C935 C919 1.349 . S
C935 H927 0.950 . S
C935 C933 1.327 . S
C936 C924 1.349 . S
C936 H930 0.950 . S
C936 C937 1.327 . S
C937 H931 0.950 . S
C937 C936 1.327 . S
C937 C941 1.429 . S
C938 C921 1.574 . S
C938 H932 0.949 . S
C938 C942 1.368 . S
C939 C920 1.429 . S
C939 C933 1.429 . S
C939 C940 1.523 . S
C940 C921 1.368 . S
C940 C934 1.368 . S
C940 C939 1.523 . S
C941 C925 1.429 . S
C941 C937 1.429 . S
C941 C942 1.523 . S
C942 C926 1.368 . S
C942 C938 1.368 . S
C942 C941 1.523 . S
H943 C918 0.950 . S
H944 C920 0.950 . S
H945 C921 0.949 . S
H946 C923 0.950 . S
H947 C925 0.950 . S
C948 C949 1.349 . S
C948 C950 1.327 . S
C948 H973 0.950 . S
C949 C948 1.349 . S
C949 C965 1.349 . S
C950 C948 1.327 . S
C950 C969 1.429 . S
C950 H974 0.950 . S
C951 C968 1.574 . S
C951 C970 1.368 . S
C951 H975 0.949 . S
H952 C956 0.949 . S
C953 C954 1.349 . S
C953 C955 1.327 . S
C953 H976 0.950 . S
C954 C953 1.349 . S
C954 C966 1.349 . S
C955 C953 1.327 . S
C955 C971 1.429 . S
C955 H977 0.950 . S
C956 H952 0.949 . S
C956 C964 1.574 . S
C956 C972 1.368 . S
H957 C965 0.950 . S
H958 C963 0.950 . S
H959 C964 0.949 . S
H960 C966 0.950 . S
H961 C967 0.950 . S
H962 C968 0.949 . S
C963 H958 0.950 . S
C963 C965 1.327 . S
C963 C969 1.429 . S
C964 C956 1.574 . S
C964 H959 0.949 . S
C964 C970 1.368 . S
C965 C949 1.349 . S
C965 H957 0.950 . S
C965 C963 1.327 . S
C966 C954 1.349 . S
C966 H960 0.950 . S
C966 C967 1.327 . S
C967 H961 0.950 . S
C967 C966 1.327 . S
C967 C971 1.429 . S
C968 C951 1.574 . S
C968 H962 0.949 . S
C968 C972 1.368 . S
C969 C950 1.429 . S
C969 C963 1.429 . S
C969 C970 1.523 . S
C970 C951 1.368 . S
C970 C964 1.368 . S
C970 C969 1.523 . S
C971 C955 1.429 . S
C971 C967 1.429 . S
C971 C972 1.523 . S
C972 C956 1.368 . S
C972 C968 1.368 . S
C972 C971 1.523 . S
H973 C948 0.950 . S
H974 C950 0.950 . S
H975 C951 0.949 . S
H976 C953 0.950 . S
H977 C955 0.950 . S
C978 C979 1.349 . S
C978 C980 1.327 . S
C978 H1003 0.950 . S
C979 C978 1.349 . S
C979 C995 1.349 . S
C980 C978 1.327 . S
C980 C999 1.429 . S
C980 H1004 0.950 . S
C981 C998 1.574 . S
C981 C1000 1.368 . S
C981 H1005 0.949 . S
H982 C986 0.949 . S
C983 C984 1.349 . S
C983 C985 1.327 . S
C983 H1006 0.950 . S
C984 C983 1.349 . S
C984 C996 1.349 . S
C985 C983 1.327 . S
C985 C1001 1.429 . S
C985 H1007 0.950 . S
C986 H982 0.949 . S
C986 C994 1.574 . S
C986 C1002 1.368 . S
H987 C995 0.950 . S
H988 C993 0.950 . S
H989 C994 0.949 . S
H990 C996 0.950 . S
H991 C997 0.950 . S
H992 C998 0.949 . S
C993 H988 0.950 . S
C993 C995 1.327 . S
C993 C999 1.429 . S
C994 C986 1.574 . S
C994 H989 0.949 . S
C994 C1000 1.368 . S
C995 C979 1.349 . S
C995 H987 0.950 . S
C995 C993 1.327 . S
C996 C984 1.349 . S
C996 H990 0.950 . S
C996 C997 1.327 . S
C997 H991 0.950 . S
C997 C996 1.327 . S
C997 C1001 1.429 . S
C998 C981 1.574 . S
C998 H992 0.949 . S
C998 C1002 1.368 . S
C999 C980 1.429 . S
C999 C993 1.429 . S
C999 C1000 1.523 . S
C1000 C981 1.368 . S
C1000 C994 1.368 . S
C1000 C999 1.523 . S
C1001 C985 1.429 . S
C1001 C997 1.429 . S
C1001 C1002 1.523 . S
C1002 C986 1.368 . S
C1002 C998 1.368 . S
C1002 C1001 1.523 . S
H1003 C978 0.950 . S
H1004 C980 0.950 . S
H1005 C981 0.949 . S
H1006 C983 0.950 . S
H1007 C985 0.950 . S
C1008 C1009 1.349 . S
C1008 C1010 1.327 . S
C1008 H1033 0.950 . S
C1009 C1008 1.349 . S
C1009 C1025 1.349 . S
C1010 C1008 1.327 . S
C1010 C1029 1.429 . S
C1010 H1034 0.950 . S
C1011 C1028 1.574 . S
C1011 C1030 1.368 . S
C1011 H1035 0.949 . S
H1012 C1016 0.949 . S
C1013 C1014 1.349 . S
C1013 C1015 1.327 . S
C1013 H1036 0.950 . S
C1014 C1013 1.349 . S
C1014 C1026 1.349 . S
C1015 C1013 1.327 . S
C1015 C1031 1.429 . S
C1015 H1037 0.950 . S
C1016 H1012 0.949 . S
C1016 C1024 1.574 . S
C1016 C1032 1.368 . S
H1017 C1025 0.950 . S
H1018 C1023 0.950 . S
H1019 C1024 0.949 . S
H1020 C1026 0.950 . S
H1021 C1027 0.950 . S
H1022 C1028 0.949 . S
C1023 H1018 0.950 . S
C1023 C1025 1.327 . S
C1023 C1029 1.429 . S
C1024 C1016 1.574 . S
C1024 H1019 0.949 . S
C1024 C1030 1.368 . S
C1025 C1009 1.349 . S
C1025 H1017 0.950 . S
C1025 C1023 1.327 . S
C1026 C1014 1.349 . S
C1026 H1020 0.950 . S
C1026 C1027 1.327 . S
C1027 H1021 0.950 . S
C1027 C1026 1.327 . S
C1027 C1031 1.429 . S
C1028 C1011 1.574 . S
C1028 H1022 0.949 . S
C1028 C1032 1.368 . S
C1029 C1010 1.429 . S
C1029 C1023 1.429 . S
C1029 C1030 1.523 . S
C1030 C1011 1.368 . S
C1030 C1024 1.368 . S
C1030 C1029 1.523 . S
C1031 C1015 1.429 . S
C1031 C1027 1.429 . S
C1031 C1032 1.523 . S
C1032 C1016 1.368 . S
C1032 C1028 1.368 . S
C1032 C1031 1.523 . S
H1033 C1008 0.950 . S
H1034 C1010 0.950 . S
H1035 C1011 0.949 . S
H1036 C1013 0.950 . S
H1037 C1015 0.950 . S
C1038 C1039 1.349 . S
C1038 C1040 1.327 . S
C1038 H1063 0.950 . S
C1039 C1038 1.349 . S
C1039 C1055 1.349 . S
C1040 C1038 1.327 . S
C1040 C1059 1.429 . S
C1040 H1064 0.950 . S
C1041 C1058 1.574 . S
C1041 C1060 1.368 . S
C1041 H1065 0.949 . S
H1042 C1046 0.949 . S
C1043 C1044 1.349 . S
C1043 C1045 1.327 . S
C1043 H1066 0.950 . S
C1044 C1043 1.349 . S
C1044 C1056 1.349 . S
C1045 C1043 1.327 . S
C1045 C1061 1.429 . S
C1045 H1067 0.950 . S
C1046 H1042 0.949 . S
C1046 C1054 1.574 . S
C1046 C1062 1.368 . S
H1047 C1055 0.950 . S
H1048 C1053 0.950 . S
H1049 C1054 0.949 . S
H1050 C1056 0.950 . S
H1051 C1057 0.950 . S
H1052 C1058 0.949 . S
C1053 H1048 0.950 . S
C1053 C1055 1.327 . S
C1053 C1059 1.429 . S
C1054 C1046 1.574 . S
C1054 H1049 0.949 . S
C1054 C1060 1.368 . S
C1055 C1039 1.349 . S
C1055 H1047 0.950 . S
C1055 C1053 1.327 . S
C1056 C1044 1.349 . S
C1056 H1050 0.950 . S
C1056 C1057 1.327 . S
C1057 H1051 0.950 . S
C1057 C1056 1.327 . S
C1057 C1061 1.429 . S
C1058 C1041 1.574 . S
C1058 H1052 0.949 . S
C1058 C1062 1.368 . S
C1059 C1040 1.429 . S
C1059 C1053 1.429 . S
C1059 C1060 1.523 . S
C1060 C1041 1.368 . S
C1060 C1054 1.368 . S
C1060 C1059 1.523 . S
C1061 C1045 1.429 . S
C1061 C1057 1.429 . S
C1061 C1062 1.523 . S
C1062 C1046 1.368 . S
C1062 C1058 1.368 . S
C1062 C1061 1.523 . S
H1063 C1038 0.950 . S
H1064 C1040 0.950 . S
H1065 C1041 0.949 . S
H1066 C1043 0.950 . S
H1067 C1045 0.950 . S
C1068 C1069 1.349 . S
C1068 C1070 1.327 . S
C1068 H1093 0.950 . S
C1069 C1068 1.349 . S
C1069 C1085 1.349 . S
C1070 C1068 1.327 . S
C1070 C1089 1.429 . S
C1070 H1094 0.950 . S
C1071 C1088 1.574 . S
C1071 C1090 1.368 . S
C1071 H1095 0.949 . S
H1072 C1076 0.949 . S
C1073 C1074 1.349 . S
C1073 C1075 1.327 . S
C1073 H1096 0.950 . S
C1074 C1073 1.349 . S
C1074 C1086 1.349 . S
C1075 C1073 1.327 . S
C1075 C1091 1.429 . S
C1075 H1097 0.950 . S
C1076 H1072 0.949 . S
C1076 C1084 1.574 . S
C1076 C1092 1.368 . S
H1077 C1085 0.950 . S
H1078 C1083 0.950 . S
H1079 C1084 0.949 . S
H1080 C1086 0.950 . S
H1081 C1087 0.950 . S
H1082 C1088 0.949 . S
C1083 H1078 0.950 . S
C1083 C1085 1.327 . S
C1083 C1089 1.429 . S
C1084 C1076 1.574 . S
C1084 H1079 0.949 . S
C1084 C1090 1.368 . S
C1085 C1069 1.349 . S
C1085 H1077 0.950 . S
C1085 C1083 1.327 . S
C1086 C1074 1.349 . S
C1086 H1080 0.950 . S
C1086 C1087 1.327 . S
C1087 H1081 0.950 . S
C1087 C1086 1.327 . S
C1087 C1091 1.429 . S
C1088 C1071 1.574 . S
C1088 H1082 0.949 . S
C1088 C1092 1.368 . S
C1089 C1070 1.429 . S
C1089 C1083 1.429 . S
C1089 C1090 1.523 . S
C1090 C1071 1.368 . S
C1090 C1084 1.368 . S
C1090 C1089 1.523 . S
C1091 C1075 1.429 . S
C1091 C1087 1.429 . S
C1091 C1092 1.523 . S
C1092 C1076 1.368 . S
C1092 C1088 1.368 . S
C1092 C1091 1.523 . S
H1093 C1068 0.950 . S
H1094 C1070 0.950 . S
H1095 C1071 0.949 . S
H1096 C1073 0.950 . S
H1097 C1075 0.950 . S
C1098 C1099 1.349 . S
C1098 C1100 1.327 . S
C1098 H1123 0.950 . S
C1099 C1098 1.349 . S
C1099 C1115 1.349 . S
C1100 C1098 1.327 . S
C1100 C1119 1.429 . S
C1100 H1124 0.950 . S
C1101 C1118 1.574 . S
C1101 C1120 1.368 . S
C1101 H1125 0.949 . S
H1102 C1106 0.949 . S
C1103 C1104 1.349 . S
C1103 C1105 1.327 . S
C1103 H1126 0.950 . S
C1104 C1103 1.349 . S
C1104 C1116 1.349 . S
C1105 C1103 1.327 . S
C1105 C1121 1.429 . S
C1105 H1127 0.950 . S
C1106 H1102 0.949 . S
C1106 C1114 1.574 . S
C1106 C1122 1.368 . S
H1107 C1115 0.950 . S
H1108 C1113 0.950 . S
H1109 C1114 0.949 . S
H1110 C1116 0.950 . S
H1111 C1117 0.950 . S
H1112 C1118 0.949 . S
C1113 H1108 0.950 . S
C1113 C1115 1.327 . S
C1113 C1119 1.429 . S
C1114 C1106 1.574 . S
C1114 H1109 0.949 . S
C1114 C1120 1.368 . S
C1115 C1099 1.349 . S
C1115 H1107 0.950 . S
C1115 C1113 1.327 . S
C1116 C1104 1.349 . S
C1116 H1110 0.950 . S
C1116 C1117 1.327 . S
C1117 H1111 0.950 . S
C1117 C1116 1.327 . S
C1117 C1121 1.429 . S
C1118 C1101 1.574 . S
C1118 H1112 0.949 . S
C1118 C1122 1.368 . S
C1119 C1100 1.429 . S
C1119 C1113 1.429 . S
C1119 C1120 1.523 . S
C1120 C1101 1.368 . S
C1120 C1114 1.368 . S
C1120 C1119 1.523 . S
C1121 C1105 1.429 . S
C1121 C1117 1.429 . S
C1121 C1122 1.523 . S
C1122 C1106 1.368 . S
C1122 C1118 1.368 . S
C1122 C1121 1.523 . S
H1123 C1098 0.950 . S
H1124 C1100 0.950 . S
H1125 C1101 0.949 . S
H1126 C1103 0.950 . S
H1127 C1105 0.950 . S
C1128 C1129 1.349 . S
C1128 C1130 1.327 . S
C1128 H1153 0.950 . S
C1129 C1128 1.349 . S
C1129 C1145 1.349 . S
C1130 C1128 1.327 . S
C1130 C1149 1.429 . S
C1130 H1154 0.950 . S
C1131 C1148 1.574 1_556 S
C1131 C1150 1.368 . S
C1131 H1155 0.949 . S
H1132 C1136 0.949 . S
C1133 C1134 1.349 . S
C1133 C1135 1.327 . S
C1133 H1156 0.950 . S
C1134 C1133 1.349 . S
C1134 C1146 1.349 . S
C1135 C1133 1.327 . S
C1135 C1151 1.429 . S
C1135 H1157 0.950 . S
C1136 H1132 0.949 . S
C1136 C1144 1.574 1_554 S
C1136 C1152 1.368 . S
H1137 C1145 0.950 . S
H1138 C1143 0.950 . S
H1139 C1144 0.949 . S
H1140 C1146 0.950 . S
H1141 C1147 0.950 . S
H1142 C1148 0.949 . S
C1143 H1138 0.950 . S
C1143 C1145 1.327 . S
C1143 C1149 1.429 . S
C1144 C1136 1.574 1_556 S
C1144 H1139 0.949 . S
C1144 C1150 1.368 . S
C1145 C1129 1.349 . S
C1145 H1137 0.950 . S
C1145 C1143 1.327 . S
C1146 C1134 1.349 . S
C1146 H1140 0.950 . S
C1146 C1147 1.327 . S
C1147 H1141 0.950 . S
C1147 C1146 1.327 . S
C1147 C1151 1.429 . S
C1148 C1131 1.574 1_554 S
C1148 H1142 0.949 . S
C1148 C1152 1.368 . S
C1149 C1130 1.429 . S
C1149 C1143 1.429 . S
C1149 C1150 1.523 . S
C1150 C1131 1.368 . S
C1150 C1144 1.368 . S
C1150 C1149 1.523 . S
C1151 C1135 1.429 . S
C1151 C1147 1.429 . S
C1151 C1152 1.523 . S
C1152 C1136 1.368 . S
C1152 C1148 1.368 . S
C1152 C1151 1.523 . S
H1153 C1128 0.950 . S
H1154 C1130 0.950 . S
H1155 C1131 0.949 . S
H1156 C1133 0.950 . S
H1157 C1135 0.950 . S
C1158 C1159 1.349 . S
C1158 C1160 1.327 . S
C1158 H1183 0.950 . S
C1159 C1158 1.349 . S
C1159 C1175 1.349 . S
C1160 C1158 1.327 . S
C1160 C1179 1.429 . S
C1160 H1184 0.950 . S
C1161 C1178 1.574 . S
C1161 C1180 1.368 . S
C1161 H1185 0.949 . S
H1162 C1166 0.949 . S
C1163 C1164 1.349 . S
C1163 C1165 1.327 . S
C1163 H1186 0.950 . S
C1164 C1163 1.349 . S
C1164 C1176 1.349 . S
C1165 C1163 1.327 . S
C1165 C1181 1.429 . S
C1165 H1187 0.950 . S
C1166 H1162 0.949 . S
C1166 C1174 1.574 . S
C1166 C1182 1.368 . S
H1167 C1175 0.950 . S
H1168 C1173 0.950 . S
H1169 C1174 0.949 . S
H1170 C1176 0.950 . S
H1171 C1177 0.950 . S
H1172 C1178 0.949 . S
C1173 H1168 0.950 . S
C1173 C1175 1.327 . S
C1173 C1179 1.429 . S
C1174 C1166 1.574 . S
C1174 H1169 0.949 . S
C1174 C1180 1.368 1_554 S
C1175 C1159 1.349 . S
C1175 H1167 0.950 . S
C1175 C1173 1.327 . S
C1176 C1164 1.349 . S
C1176 H1170 0.950 . S
C1176 C1177 1.327 . S
C1177 H1171 0.950 . S
C1177 C1176 1.327 . S
C1177 C1181 1.429 . S
C1178 C1161 1.574 . S
C1178 H1172 0.949 . S
C1178 C1182 1.368 1_556 S
C1179 C1160 1.429 . S
C1179 C1173 1.429 . S
C1179 C1180 1.523 . S
C1180 C1161 1.368 . S
C1180 C1174 1.368 1_556 S
C1180 C1179 1.523 . S
C1181 C1165 1.429 . S
C1181 C1177 1.429 . S
C1181 C1182 1.523 . S
C1182 C1166 1.368 . S
C1182 C1178 1.368 1_554 S
C1182 C1181 1.523 . S
H1183 C1158 0.950 . S
H1184 C1160 0.950 . S
H1185 C1161 0.949 . S
H1186 C1163 0.950 . S
H1187 C1165 0.950 . S
C1188 C1189 1.349 . S
C1188 C1190 1.327 . S
C1188 H1213 0.950 . S
C1189 C1188 1.349 . S
C1189 C1205 1.349 . S
C1190 C1188 1.327 . S
C1190 C1209 1.429 . S
C1190 H1214 0.950 . S
C1191 C1208 1.574 . S
C1191 C1210 1.368 . S
C1191 H1215 0.949 . S
H1192 C1196 0.949 . S
C1193 C1194 1.349 . S
C1193 C1195 1.327 . S
C1193 H1216 0.950 . S
C1194 C1193 1.349 . S
C1194 C1206 1.349 . S
C1195 C1193 1.327 . S
C1195 C1211 1.429 . S
C1195 H1217 0.950 . S
C1196 H1192 0.949 . S
C1196 C1204 1.574 . S
C1196 C1212 1.368 . S
H1197 C1205 0.950 . S
H1198 C1203 0.950 . S
H1199 C1204 0.949 . S
H1200 C1206 0.950 . S
H1201 C1207 0.950 . S
H1202 C1208 0.949 . S
C1203 H1198 0.950 . S
C1203 C1205 1.327 . S
C1203 C1209 1.429 . S
C1204 C1196 1.574 . S
C1204 H1199 0.949 . S
C1204 C1210 1.368 1_554 S
C1205 C1189 1.349 . S
C1205 H1197 0.950 . S
C1205 C1203 1.327 . S
C1206 C1194 1.349 . S
C1206 H1200 0.950 . S
C1206 C1207 1.327 . S
C1207 H1201 0.950 . S
C1207 C1206 1.327 . S
C1207 C1211 1.429 . S
C1208 C1191 1.574 . S
C1208 H1202 0.949 . S
C1208 C1212 1.368 1_556 S
C1209 C1190 1.429 . S
C1209 C1203 1.429 . S
C1209 C1210 1.523 . S
C1210 C1191 1.368 . S
C1210 C1204 1.368 1_556 S
C1210 C1209 1.523 . S
C1211 C1195 1.429 . S
C1211 C1207 1.429 . S
C1211 C1212 1.523 . S
C1212 C1196 1.368 . S
C1212 C1208 1.368 1_554 S
C1212 C1211 1.523 . S
H1213 C1188 0.950 . S
H1214 C1190 0.950 . S
H1215 C1191 0.949 . S
H1216 C1193 0.950 . S
H1217 C1195 0.950 . S
C1218 C1219 1.349 . S
C1218 C1220 1.327 . S
C1218 H1243 0.950 . S
C1219 C1218 1.349 . S
C1219 C1235 1.349 . S
C1220 C1218 1.327 . S
C1220 C1239 1.429 . S
C1220 H1244 0.950 . S
C1221 C1238 1.574 1_556 S
C1221 C1240 1.368 . S
C1221 H1245 0.949 . S
H1222 C1226 0.949 . S
C1223 C1224 1.349 . S
C1223 C1225 1.327 . S
C1223 H1246 0.950 . S
C1224 C1223 1.349 . S
C1224 C1236 1.349 . S
C1225 C1223 1.327 . S
C1225 C1241 1.429 . S
C1225 H1247 0.950 . S
C1226 H1222 0.949 . S
C1226 C1234 1.574 1_554 S
C1226 C1242 1.368 . S
H1227 C1235 0.950 . S
H1228 C1233 0.950 . S
H1229 C1234 0.949 . S
H1230 C1236 0.950 . S
H1231 C1237 0.950 . S
H1232 C1238 0.949 . S
C1233 H1228 0.950 . S
C1233 C1235 1.327 . S
C1233 C1239 1.429 . S
C1234 C1226 1.574 1_556 S
C1234 H1229 0.949 . S
C1234 C1240 1.368 . S
C1235 C1219 1.349 . S
C1235 H1227 0.950 . S
C1235 C1233 1.327 . S
C1236 C1224 1.349 . S
C1236 H1230 0.950 . S
C1236 C1237 1.327 . S
C1237 H1231 0.950 . S
C1237 C1236 1.327 . S
C1237 C1241 1.429 . S
C1238 C1221 1.574 1_554 S
C1238 H1232 0.949 . S
C1238 C1242 1.368 . S
C1239 C1220 1.429 . S
C1239 C1233 1.429 . S
C1239 C1240 1.523 . S
C1240 C1221 1.368 . S
C1240 C1234 1.368 . S
C1240 C1239 1.523 . S
C1241 C1225 1.429 . S
C1241 C1237 1.429 . S
C1241 C1242 1.523 . S
C1242 C1226 1.368 . S
C1242 C1238 1.368 . S
C1242 C1241 1.523 . S
H1243 C1218 0.950 . S
H1244 C1220 0.950 . S
H1245 C1221 0.949 . S
H1246 C1223 0.950 . S
H1247 C1225 0.950 . S
C1248 C1249 1.349 . S
C1248 C1250 1.327 . S
C1248 H1273 0.950 . S
C1249 C1248 1.349 . S
C1249 C1265 1.349 . S
C1250 C1248 1.327 . S
C1250 C1269 1.429 . S
C1250 H1274 0.950 . S
C1251 C1268 1.574 . S
C1251 C1270 1.368 . S
C1251 H1275 0.949 . S
H1252 C1256 0.949 . S
C1253 C1254 1.349 . S
C1253 C1255 1.327 . S
C1253 H1276 0.950 . S
C1254 C1253 1.349 . S
C1254 C1266 1.349 . S
C1255 C1253 1.327 . S
C1255 C1271 1.429 . S
C1255 H1277 0.950 . S
C1256 H1252 0.949 . S
C1256 C1264 1.574 . S
C1256 C1272 1.368 . S
H1257 C1265 0.950 . S
H1258 C1263 0.950 . S
H1259 C1264 0.949 . S
H1260 C1266 0.950 . S
H1261 C1267 0.950 . S
H1262 C1268 0.949 . S
C1263 H1258 0.950 . S
C1263 C1265 1.327 . S
C1263 C1269 1.429 . S
C1264 C1256 1.574 . S
C1264 H1259 0.949 . S
C1264 C1270 1.368 . S
C1265 C1249 1.349 . S
C1265 H1257 0.950 . S
C1265 C1263 1.327 . S
C1266 C1254 1.349 . S
C1266 H1260 0.950 . S
C1266 C1267 1.327 . S
C1267 H1261 0.950 . S
C1267 C1266 1.327 . S
C1267 C1271 1.429 . S
C1268 C1251 1.574 . S
C1268 H1262 0.949 . S
C1268 C1272 1.368 . S
C1269 C1250 1.429 . S
C1269 C1263 1.429 . S
C1269 C1270 1.523 . S
C1270 C1251 1.368 . S
C1270 C1264 1.368 . S
C1270 C1269 1.523 . S
C1271 C1255 1.429 . S
C1271 C1267 1.429 . S
C1271 C1272 1.523 . S
C1272 C1256 1.368 . S
C1272 C1268 1.368 . S
C1272 C1271 1.523 . S
H1273 C1248 0.950 . S
H1274 C1250 0.950 . S
H1275 C1251 0.949 . S
H1276 C1253 0.950 . S
H1277 C1255 0.950 . S
C1278 C1279 1.349 . S
C1278 C1280 1.327 . S
C1278 H1303 0.950 . S
C1279 C1278 1.349 . S
C1279 C1295 1.349 . S
C1280 C1278 1.327 . S
C1280 C1299 1.429 . S
C1280 H1304 0.950 . S
C1281 C1298 1.574 . S
C1281 C1300 1.368 . S
C1281 H1305 0.949 . S
H1282 C1286 0.949 . S
C1283 C1284 1.349 . S
C1283 C1285 1.327 . S
C1283 H1306 0.950 . S
C1284 C1283 1.349 . S
C1284 C1296 1.349 . S
C1285 C1283 1.327 . S
C1285 C1301 1.429 . S
C1285 H1307 0.950 . S
C1286 H1282 0.949 . S
C1286 C1294 1.574 . S
C1286 C1302 1.368 . S
H1287 C1295 0.950 . S
H1288 C1293 0.950 . S
H1289 C1294 0.949 . S
H1290 C1296 0.950 . S
H1291 C1297 0.950 . S
H1292 C1298 0.949 . S
C1293 H1288 0.950 . S
C1293 C1295 1.327 . S
C1293 C1299 1.429 . S
C1294 C1286 1.574 . S
C1294 H1289 0.949 . S
C1294 C1300 1.368 . S
C1295 C1279 1.349 . S
C1295 H1287 0.950 . S
C1295 C1293 1.327 . S
C1296 C1284 1.349 . S
C1296 H1290 0.950 . S
C1296 C1297 1.327 . S
C1297 H1291 0.950 . S
C1297 C1296 1.327 . S
C1297 C1301 1.429 . S
C1298 C1281 1.574 . S
C1298 H1292 0.949 . S
C1298 C1302 1.368 . S
C1299 C1280 1.429 . S
C1299 C1293 1.429 . S
C1299 C1300 1.523 . S
C1300 C1281 1.368 . S
C1300 C1294 1.368 . S
C1300 C1299 1.523 . S
C1301 C1285 1.429 . S
C1301 C1297 1.429 . S
C1301 C1302 1.523 . S
C1302 C1286 1.368 . S
C1302 C1298 1.368 . S
C1302 C1301 1.523 . S
H1303 C1278 0.950 . S
H1304 C1280 0.950 . S
H1305 C1281 0.949 . S
H1306 C1283 0.950 . S
H1307 C1285 0.950 . S
C1308 C1309 1.349 . S
C1308 C1310 1.327 . S
C1308 H1333 0.950 . S
C1309 C1308 1.349 . S
C1309 C1325 1.349 . S
C1310 C1308 1.327 . S
C1310 C1329 1.429 . S
C1310 H1334 0.950 . S
C1311 C1328 1.574 . S
C1311 C1330 1.368 . S
C1311 H1335 0.949 . S
H1312 C1316 0.949 . S
C1313 C1314 1.349 . S
C1313 C1315 1.327 . S
C1313 H1336 0.950 . S
C1314 C1313 1.349 . S
C1314 C1326 1.349 . S
C1315 C1313 1.327 . S
C1315 C1331 1.429 . S
C1315 H1337 0.950 . S
C1316 H1312 0.949 . S
C1316 C1324 1.574 . S
C1316 C1332 1.368 . S
H1317 C1325 0.950 . S
H1318 C1323 0.950 . S
H1319 C1324 0.949 . S
H1320 C1326 0.950 . S
H1321 C1327 0.950 . S
H1322 C1328 0.949 . S
C1323 H1318 0.950 . S
C1323 C1325 1.327 . S
C1323 C1329 1.429 . S
C1324 C1316 1.574 . S
C1324 H1319 0.949 . S
C1324 C1330 1.368 . S
C1325 C1309 1.349 . S
C1325 H1317 0.950 . S
C1325 C1323 1.327 . S
C1326 C1314 1.349 . S
C1326 H1320 0.950 . S
C1326 C1327 1.327 . S
C1327 H1321 0.950 . S
C1327 C1326 1.327 . S
C1327 C1331 1.429 . S
C1328 C1311 1.574 . S
C1328 H1322 0.949 . S
C1328 C1332 1.368 . S
C1329 C1310 1.429 . S
C1329 C1323 1.429 . S
C1329 C1330 1.523 . S
C1330 C1311 1.368 . S
C1330 C1324 1.368 . S
C1330 C1329 1.523 . S
C1331 C1315 1.429 . S
C1331 C1327 1.429 . S
C1331 C1332 1.523 . S
C1332 C1316 1.368 . S
C1332 C1328 1.368 . S
C1332 C1331 1.523 . S
H1333 C1308 0.950 . S
H1334 C1310 0.950 . S
H1335 C1311 0.949 . S
H1336 C1313 0.950 . S
H1337 C1315 0.950 . S
C1338 C1339 1.349 . S
C1338 C1340 1.327 . S
C1338 H1363 0.950 . S
C1339 C1338 1.349 . S
C1339 C1355 1.349 . S
C1340 C1338 1.327 . S
C1340 C1359 1.429 . S
C1340 H1364 0.950 . S
C1341 C1358 1.574 . S
C1341 C1360 1.368 . S
C1341 H1365 0.949 . S
H1342 C1346 0.949 . S
C1343 C1344 1.349 . S
C1343 C1345 1.327 . S
C1343 H1366 0.950 . S
C1344 C1343 1.349 . S
C1344 C1356 1.349 . S
C1345 C1343 1.327 . S
C1345 C1361 1.429 . S
C1345 H1367 0.950 . S
C1346 H1342 0.949 . S
C1346 C1354 1.574 . S
C1346 C1362 1.368 . S
H1347 C1355 0.950 . S
H1348 C1353 0.950 . S
H1349 C1354 0.949 . S
H1350 C1356 0.950 . S
H1351 C1357 0.950 . S
H1352 C1358 0.949 . S
C1353 H1348 0.950 . S
C1353 C1355 1.327 . S
C1353 C1359 1.429 . S
C1354 C1346 1.574 . S
C1354 H1349 0.949 . S
C1354 C1360 1.368 . S
C1355 C1339 1.349 . S
C1355 H1347 0.950 . S
C1355 C1353 1.327 . S
C1356 C1344 1.349 . S
C1356 H1350 0.950 . S
C1356 C1357 1.327 . S
C1357 H1351 0.950 . S
C1357 C1356 1.327 . S
C1357 C1361 1.429 . S
C1358 C1341 1.574 . S
C1358 H1352 0.949 . S
C1358 C1362 1.368 . S
C1359 C1340 1.429 . S
C1359 C1353 1.429 . S
C1359 C1360 1.523 . S
C1360 C1341 1.368 . S
C1360 C1354 1.368 . S
C1360 C1359 1.523 . S
C1361 C1345 1.429 . S
C1361 C1357 1.429 . S
C1361 C1362 1.523 . S
C1362 C1346 1.368 . S
C1362 C1358 1.368 . S
C1362 C1361 1.523 . S
H1363 C1338 0.950 . S
H1364 C1340 0.950 . S
H1365 C1341 0.949 . S
H1366 C1343 0.950 . S
H1367 C1345 0.950 . S
C1368 C1369 1.349 . S
C1368 C1370 1.327 . S
C1368 H1393 0.950 . S
C1369 C1368 1.349 . S
C1369 C1385 1.349 . S
C1370 C1368 1.327 . S
C1370 C1389 1.429 . S
C1370 H1394 0.950 . S
C1371 C1388 1.574 . S
C1371 C1390 1.368 . S
C1371 H1395 0.949 . S
H1372 C1376 0.949 . S
C1373 C1374 1.349 . S
C1373 C1375 1.327 . S
C1373 H1396 0.950 . S
C1374 C1373 1.349 . S
C1374 C1386 1.349 . S
C1375 C1373 1.327 . S
C1375 C1391 1.429 . S
C1375 H1397 0.950 . S
C1376 H1372 0.949 . S
C1376 C1384 1.574 . S
C1376 C1392 1.368 . S
H1377 C1385 0.950 . S
H1378 C1383 0.950 . S
H1379 C1384 0.949 . S
H1380 C1386 0.950 . S
H1381 C1387 0.950 . S
H1382 C1388 0.949 . S
C1383 H1378 0.950 . S
C1383 C1385 1.327 . S
C1383 C1389 1.429 . S
C1384 C1376 1.574 . S
C1384 H1379 0.949 . S
C1384 C1390 1.368 . S
C1385 C1369 1.349 . S
C1385 H1377 0.950 . S
C1385 C1383 1.327 . S
C1386 C1374 1.349 . S
C1386 H1380 0.950 . S
C1386 C1387 1.327 . S
C1387 H1381 0.950 . S
C1387 C1386 1.327 . S
C1387 C1391 1.429 . S
C1388 C1371 1.574 . S
C1388 H1382 0.949 . S
C1388 C1392 1.368 . S
C1389 C1370 1.429 . S
C1389 C1383 1.429 . S
C1389 C1390 1.523 . S
C1390 C1371 1.368 . S
C1390 C1384 1.368 . S
C1390 C1389 1.523 . S
C1391 C1375 1.429 . S
C1391 C1387 1.429 . S
C1391 C1392 1.523 . S
C1392 C1376 1.368 . S
C1392 C1388 1.368 . S
C1392 C1391 1.523 . S
H1393 C1368 0.950 . S
H1394 C1370 0.950 . S
H1395 C1371 0.949 . S
H1396 C1373 0.950 . S
H1397 C1375 0.950 . S
C1398 C1399 1.349 . S
C1398 C1400 1.327 . S
C1398 H1423 0.950 . S
C1399 C1398 1.349 . S
C1399 C1415 1.349 . S
C1400 C1398 1.327 . S
C1400 C1419 1.429 . S
C1400 H1424 0.950 . S
C1401 C1418 1.574 . S
C1401 C1420 1.368 . S
C1401 H1425 0.949 . S
H1402 C1406 0.949 . S
C1403 C1404 1.349 . S
C1403 C1405 1.327 . S
C1403 H1426 0.950 . S
C1404 C1403 1.349 . S
C1404 C1416 1.349 . S
C1405 C1403 1.327 . S
C1405 C1421 1.429 . S
C1405 H1427 0.950 . S
C1406 H1402 0.949 . S
C1406 C1414 1.574 . S
C1406 C1422 1.368 . S
H1407 C1415 0.950 . S
H1408 C1413 0.950 . S
H1409 C1414 0.949 . S
H1410 C1416 0.950 . S
H1411 C1417 0.950 . S
H1412 C1418 0.949 . S
C1413 H1408 0.950 . S
C1413 C1415 1.327 . S
C1413 C1419 1.429 . S
C1414 C1406 1.574 . S
C1414 H1409 0.949 . S
C1414 C1420 1.368 . S
C1415 C1399 1.349 . S
C1415 H1407 0.950 . S
C1415 C1413 1.327 . S
C1416 C1404 1.349 . S
C1416 H1410 0.950 . S
C1416 C1417 1.327 . S
C1417 H1411 0.950 . S
C1417 C1416 1.327 . S
C1417 C1421 1.429 . S
C1418 C1401 1.574 . S
C1418 H1412 0.949 . S
C1418 C1422 1.368 . S
C1419 C1400 1.429 . S
C1419 C1413 1.429 . S
C1419 C1420 1.523 . S
C1420 C1401 1.368 . S
C1420 C1414 1.368 . S
C1420 C1419 1.523 . S
C1421 C1405 1.429 . S
C1421 C1417 1.429 . S
C1421 C1422 1.523 . S
C1422 C1406 1.368 . S
C1422 C1418 1.368 . S
C1422 C1421 1.523 . S
H1423 C1398 0.950 . S
H1424 C1400 0.950 . S
H1425 C1401 0.949 . S
H1426 C1403 0.950 . S
H1427 C1405 0.950 . S
C1428 C1429 1.349 . S
C1428 C1430 1.327 . S
C1428 H1453 0.950 . S
C1429 C1428 1.349 . S
C1429 C1445 1.349 . S
C1430 C1428 1.327 . S
C1430 C1449 1.429 . S
C1430 H1454 0.950 . S
C1431 C1448 1.574 . S
C1431 C1450 1.368 . S
C1431 H1455 0.949 . S
H1432 C1436 0.949 . S
C1433 C1434 1.349 . S
C1433 C1435 1.327 . S
C1433 H1456 0.950 . S
C1434 C1433 1.349 . S
C1434 C1446 1.349 . S
C1435 C1433 1.327 . S
C1435 C1451 1.429 . S
C1435 H1457 0.950 . S
C1436 H1432 0.949 . S
C1436 C1444 1.574 . S
C1436 C1452 1.368 . S
H1437 C1445 0.950 . S
H1438 C1443 0.950 . S
H1439 C1444 0.949 . S
H1440 C1446 0.950 . S
H1441 C1447 0.950 . S
H1442 C1448 0.949 . S
C1443 H1438 0.950 . S
C1443 C1445 1.327 . S
C1443 C1449 1.429 . S
C1444 C1436 1.574 . S
C1444 H1439 0.949 . S
C1444 C1450 1.368 . S
C1445 C1429 1.349 . S
C1445 H1437 0.950 . S
C1445 C1443 1.327 . S
C1446 C1434 1.349 . S
C1446 H1440 0.950 . S
C1446 C1447 1.327 . S
C1447 H1441 0.950 . S
C1447 C1446 1.327 . S
C1447 C1451 1.429 . S
C1448 C1431 1.574 . S
C1448 H1442 0.949 . S
C1448 C1452 1.368 . S
C1449 C1430 1.429 . S
C1449 C1443 1.429 . S
C1449 C1450 1.523 . S
C1450 C1431 1.368 . S
C1450 C1444 1.368 . S
C1450 C1449 1.523 . S
C1451 C1435 1.429 . S
C1451 C1447 1.429 . S
C1451 C1452 1.523 . S
C1452 C1436 1.368 . S
C1452 C1448 1.368 . S
C1452 C1451 1.523 . S
H1453 C1428 0.950 . S
H1454 C1430 0.950 . S
H1455 C1431 0.949 . S
H1456 C1433 0.950 . S
H1457 C1435 0.950 . S
C1458 C1459 1.349 . S
C1458 C1460 1.327 . S
C1458 H1483 0.950 . S
C1459 C1458 1.349 . S
C1459 C1475 1.349 . S
C1460 C1458 1.327 . S
C1460 C1479 1.429 . S
C1460 H1484 0.950 . S
C1461 C1478 1.574 . S
C1461 C1480 1.368 . S
C1461 H1485 0.949 . S
H1462 C1466 0.949 . S
C1463 C1464 1.349 . S
C1463 C1465 1.327 . S
C1463 H1486 0.950 . S
C1464 C1463 1.349 . S
C1464 C1476 1.349 . S
C1465 C1463 1.327 . S
C1465 C1481 1.429 . S
C1465 H1487 0.950 . S
C1466 H1462 0.949 . S
C1466 C1474 1.574 . S
C1466 C1482 1.368 . S
H1467 C1475 0.950 . S
H1468 C1473 0.950 . S
H1469 C1474 0.949 . S
H1470 C1476 0.950 . S
H1471 C1477 0.950 . S
H1472 C1478 0.949 . S
C1473 H1468 0.950 . S
C1473 C1475 1.327 . S
C1473 C1479 1.429 . S
C1474 C1466 1.574 . S
C1474 H1469 0.949 . S
C1474 C1480 1.368 . S
C1475 C1459 1.349 . S
C1475 H1467 0.950 . S
C1475 C1473 1.327 . S
C1476 C1464 1.349 . S
C1476 H1470 0.950 . S
C1476 C1477 1.327 . S
C1477 H1471 0.950 . S
C1477 C1476 1.327 . S
C1477 C1481 1.429 . S
C1478 C1461 1.574 . S
C1478 H1472 0.949 . S
C1478 C1482 1.368 . S
C1479 C1460 1.429 . S
C1479 C1473 1.429 . S
C1479 C1480 1.523 . S
C1480 C1461 1.368 . S
C1480 C1474 1.368 . S
C1480 C1479 1.523 . S
C1481 C1465 1.429 . S
C1481 C1477 1.429 . S
C1481 C1482 1.523 . S
C1482 C1466 1.368 . S
C1482 C1478 1.368 . S
C1482 C1481 1.523 . S
H1483 C1458 0.950 . S
H1484 C1460 0.950 . S
H1485 C1461 0.949 . S
H1486 C1463 0.950 . S
H1487 C1465 0.950 . S
C1488 C1489 1.349 . S
C1488 C1490 1.327 . S
C1488 H1513 0.950 . S
C1489 C1488 1.349 . S
C1489 C1505 1.349 . S
C1490 C1488 1.327 . S
C1490 C1509 1.429 . S
C1490 H1514 0.950 . S
C1491 C1508 1.574 . S
C1491 C1510 1.368 . S
C1491 H1515 0.949 . S
H1492 C1496 0.949 . S
C1493 C1494 1.349 . S
C1493 C1495 1.327 . S
C1493 H1516 0.950 . S
C1494 C1493 1.349 . S
C1494 C1506 1.349 . S
C1495 C1493 1.327 . S
C1495 C1511 1.429 . S
C1495 H1517 0.950 . S
C1496 H1492 0.949 . S
C1496 C1504 1.574 . S
C1496 C1512 1.368 . S
H1497 C1505 0.950 . S
H1498 C1503 0.950 . S
H1499 C1504 0.949 . S
H1500 C1506 0.950 . S
H1501 C1507 0.950 . S
H1502 C1508 0.949 . S
C1503 H1498 0.950 . S
C1503 C1505 1.327 . S
C1503 C1509 1.429 . S
C1504 C1496 1.574 . S
C1504 H1499 0.949 . S
C1504 C1510 1.368 1_565 S
C1505 C1489 1.349 . S
C1505 H1497 0.950 . S
C1505 C1503 1.327 . S
C1506 C1494 1.349 . S
C1506 H1500 0.950 . S
C1506 C1507 1.327 . S
C1507 H1501 0.950 . S
C1507 C1506 1.327 . S
C1507 C1511 1.429 . S
C1508 C1491 1.574 . S
C1508 H1502 0.949 . S
C1508 C1512 1.368 1_545 S
C1509 C1490 1.429 . S
C1509 C1503 1.429 . S
C1509 C1510 1.523 . S
C1510 C1491 1.368 . S
C1510 C1504 1.368 1_545 S
C1510 C1509 1.523 . S
C1511 C1495 1.429 . S
C1511 C1507 1.429 . S
C1511 C1512 1.523 . S
C1512 C1496 1.368 . S
C1512 C1508 1.368 1_565 S
C1512 C1511 1.523 . S
H1513 C1488 0.950 . S
H1514 C1490 0.950 . S
H1515 C1491 0.949 . S
H1516 C1493 0.950 . S
H1517 C1495 0.950 . S
C1518 C1519 1.349 . S
C1518 C1520 1.327 . S
C1518 H1543 0.950 . S
C1519 C1518 1.349 . S
C1519 C1535 1.349 . S
C1520 C1518 1.327 . S
C1520 C1539 1.429 . S
C1520 H1544 0.950 . S
C1521 C1538 1.574 . S
C1521 C1540 1.368 1_455 S
C1521 H1545 0.949 . S
H1522 C1526 0.949 . S
C1523 C1524 1.349 . S
C1523 C1525 1.327 . S
C1523 H1546 0.950 . S
C1524 C1523 1.349 . S
C1524 C1536 1.349 . S
C1525 C1523 1.327 . S
C1525 C1541 1.429 . S
C1525 H1547 0.950 . S
C1526 H1522 0.949 . S
C1526 C1534 1.574 . S
C1526 C1542 1.368 1_655 S
H1527 C1535 0.950 . S
H1528 C1533 0.950 . S
H1529 C1534 0.949 . S
H1530 C1536 0.950 . S
H1531 C1537 0.950 . S
H1532 C1538 0.949 . S
C1533 H1528 0.950 . S
C1533 C1535 1.327 . S
C1533 C1539 1.429 . S
C1534 C1526 1.574 . S
C1534 H1529 0.949 . S
C1534 C1540 1.368 . S
C1535 C1519 1.349 . S
C1535 H1527 0.950 . S
C1535 C1533 1.327 . S
C1536 C1524 1.349 . S
C1536 H1530 0.950 . S
C1536 C1537 1.327 . S
C1537 H1531 0.950 . S
C1537 C1536 1.327 . S
C1537 C1541 1.429 . S
C1538 C1521 1.574 . S
C1538 H1532 0.949 . S
C1538 C1542 1.368 . S
C1539 C1520 1.429 . S
C1539 C1533 1.429 . S
C1539 C1540 1.523 . S
C1540 C1521 1.368 1_655 S
C1540 C1534 1.368 . S
C1540 C1539 1.523 . S
C1541 C1525 1.429 . S
C1541 C1537 1.429 . S
C1541 C1542 1.523 . S
C1542 C1526 1.368 1_455 S
C1542 C1538 1.368 . S
C1542 C1541 1.523 . S
H1543 C1518 0.950 . S
H1544 C1520 0.950 . S
H1545 C1521 0.949 . S
H1546 C1523 0.950 . S
H1547 C1525 0.950 . S
C1548 C1549 1.349 . S
C1548 C1550 1.327 . S
C1548 H1573 0.950 . S
C1549 C1548 1.349 . S
C1549 C1565 1.349 . S
C1550 C1548 1.327 . S
C1550 C1569 1.429 . S
C1550 H1574 0.950 . S
C1551 C1568 1.574 . S
C1551 C1570 1.368 1_545 S
C1551 H1575 0.949 . S
H1552 C1556 0.949 . S
C1553 C1554 1.349 . S
C1553 C1555 1.327 . S
C1553 H1576 0.950 . S
C1554 C1553 1.349 . S
C1554 C1566 1.349 . S
C1555 C1553 1.327 . S
C1555 C1571 1.429 . S
C1555 H1577 0.950 . S
C1556 H1552 0.949 . S
C1556 C1564 1.574 . S
C1556 C1572 1.368 1_565 S
H1557 C1565 0.950 . S
H1558 C1563 0.950 . S
H1559 C1564 0.949 . S
H1560 C1566 0.950 . S
H1561 C1567 0.950 . S
H1562 C1568 0.949 . S
C1563 H1558 0.950 . S
C1563 C1565 1.327 . S
C1563 C1569 1.429 . S
C1564 C1556 1.574 . S
C1564 H1559 0.949 . S
C1564 C1570 1.368 . S
C1565 C1549 1.349 . S
C1565 H1557 0.950 . S
C1565 C1563 1.327 . S
C1566 C1554 1.349 . S
C1566 H1560 0.950 . S
C1566 C1567 1.327 . S
C1567 H1561 0.950 . S
C1567 C1566 1.327 . S
C1567 C1571 1.429 . S
C1568 C1551 1.574 . S
C1568 H1562 0.949 . S
C1568 C1572 1.368 . S
C1569 C1550 1.429 . S
C1569 C1563 1.429 . S
C1569 C1570 1.523 . S
C1570 C1551 1.368 1_565 S
C1570 C1564 1.368 . S
C1570 C1569 1.523 . S
C1571 C1555 1.429 . S
C1571 C1567 1.429 . S
C1571 C1572 1.523 . S
C1572 C1556 1.368 1_545 S
C1572 C1568 1.368 . S
C1572 C1571 1.523 . S
H1573 C1548 0.950 . S
H1574 C1550 0.950 . S
H1575 C1551 0.949 . S
H1576 C1553 0.950 . S
H1577 C1555 0.950 . S
C1578 C1579 1.349 . S
C1578 C1580 1.327 . S
C1578 H1603 0.950 . S
C1579 C1578 1.349 . S
C1579 C1595 1.349 . S
C1580 C1578 1.327 . S
C1580 C1599 1.429 . S
C1580 H1604 0.950 . S
C1581 C1598 1.574 . S
C1581 C1600 1.368 1_455 S
C1581 H1605 0.949 . S
H1582 C1586 0.949 . S
C1583 C1584 1.349 . S
C1583 C1585 1.327 . S
C1583 H1606 0.950 . S
C1584 C1583 1.349 . S
C1584 C1596 1.349 . S
C1585 C1583 1.327 . S
C1585 C1601 1.429 . S
C1585 H1607 0.950 . S
C1586 H1582 0.949 . S
C1586 C1594 1.574 . S
C1586 C1602 1.368 1_655 S
H1587 C1595 0.950 . S
H1588 C1593 0.950 . S
H1589 C1594 0.949 . S
H1590 C1596 0.950 . S
H1591 C1597 0.950 . S
H1592 C1598 0.949 . S
C1593 H1588 0.950 . S
C1593 C1595 1.327 . S
C1593 C1599 1.429 . S
C1594 C1586 1.574 . S
C1594 H1589 0.949 . S
C1594 C1600 1.368 . S
C1595 C1579 1.349 . S
C1595 H1587 0.950 . S
C1595 C1593 1.327 . S
C1596 C1584 1.349 . S
C1596 H1590 0.950 . S
C1596 C1597 1.327 . S
C1597 H1591 0.950 . S
C1597 C1596 1.327 . S
C1597 C1601 1.429 . S
C1598 C1581 1.574 . S
C1598 H1592 0.949 . S
C1598 C1602 1.368 . S
C1599 C1580 1.429 . S
C1599 C1593 1.429 . S
C1599 C1600 1.523 . S
C1600 C1581 1.368 1_655 S
C1600 C1594 1.368 . S
C1600 C1599 1.523 . S
C1601 C1585 1.429 . S
C1601 C1597 1.429 . S
C1601 C1602 1.523 . S
C1602 C1586 1.368 1_455 S
C1602 C1598 1.368 . S
C1602 C1601 1.523 . S
H1603 C1578 0.950 . S
H1604 C1580 0.950 . S
H1605 C1581 0.949 . S
H1606 C1583 0.950 . S
H1607 C1585 0.950 . S
C1608 C1609 1.349 . S
C1608 C1610 1.327 . S
C1608 H1633 0.950 . S
C1609 C1608 1.349 . S
C1609 C1625 1.349 . S
C1610 C1608 1.327 . S
C1610 C1629 1.429 . S
C1610 H1634 0.950 . S
C1611 C1628 1.574 1_556 S
C1611 C1630 1.368 . S
C1611 H1635 0.949 . S
H1612 C1616 0.949 . S
C1613 C1614 1.349 . S
C1613 C1615 1.327 . S
C1613 H1636 0.950 . S
C1614 C1613 1.349 . S
C1614 C1626 1.349 . S
C1615 C1613 1.327 . S
C1615 C1631 1.429 . S
C1615 H1637 0.950 . S
C1616 H1612 0.949 . S
C1616 C1624 1.574 1_554 S
C1616 C1632 1.368 . S
H1617 C1625 0.950 . S
H1618 C1623 0.950 . S
H1619 C1624 0.949 . S
H1620 C1626 0.950 . S
H1621 C1627 0.950 . S
H1622 C1628 0.949 . S
C1623 H1618 0.950 . S
C1623 C1625 1.327 . S
C1623 C1629 1.429 . S
C1624 C1616 1.574 1_556 S
C1624 H1619 0.949 . S
C1624 C1630 1.368 . S
C1625 C1609 1.349 . S
C1625 H1617 0.950 . S
C1625 C1623 1.327 . S
C1626 C1614 1.349 . S
C1626 H1620 0.950 . S
C1626 C1627 1.327 . S
C1627 H1621 0.950 . S
C1627 C1626 1.327 . S
C1627 C1631 1.429 . S
C1628 C1611 1.574 1_554 S
C1628 H1622 0.949 . S
C1628 C1632 1.368 . S
C1629 C1610 1.429 . S
C1629 C1623 1.429 . S
C1629 C1630 1.523 . S
C1630 C1611 1.368 . S
C1630 C1624 1.368 . S
C1630 C1629 1.523 . S
C1631 C1615 1.429 . S
C1631 C1627 1.429 . S
C1631 C1632 1.523 . S
C1632 C1616 1.368 . S
C1632 C1628 1.368 . S
C1632 C1631 1.523 . S
H1633 C1608 0.950 . S
H1634 C1610 0.950 . S
H1635 C1611 0.949 . S
H1636 C1613 0.950 . S
H1637 C1615 0.950 . S
C1638 C1639 1.349 . S
C1638 C1640 1.327 . S
C1638 H1663 0.950 . S
C1639 C1638 1.349 . S
C1639 C1655 1.349 . S
C1640 C1638 1.327 . S
C1640 C1659 1.429 . S
C1640 H1664 0.950 . S
C1641 C1658 1.574 1_556 S
C1641 C1660 1.368 . S
C1641 H1665 0.949 . S
H1642 C1646 0.949 . S
C1643 C1644 1.349 . S
C1643 C1645 1.327 . S
C1643 H1666 0.950 . S
C1644 C1643 1.349 . S
C1644 C1656 1.349 . S
C1645 C1643 1.327 . S
C1645 C1661 1.429 . S
C1645 H1667 0.950 . S
C1646 H1642 0.949 . S
C1646 C1654 1.574 1_554 S
C1646 C1662 1.368 . S
H1647 C1655 0.950 . S
H1648 C1653 0.950 . S
H1649 C1654 0.949 . S
H1650 C1656 0.950 . S
H1651 C1657 0.950 . S
H1652 C1658 0.949 . S
C1653 H1648 0.950 . S
C1653 C1655 1.327 . S
C1653 C1659 1.429 . S
C1654 C1646 1.574 1_556 S
C1654 H1649 0.949 . S
C1654 C1660 1.368 . S
C1655 C1639 1.349 . S
C1655 H1647 0.950 . S
C1655 C1653 1.327 . S
C1656 C1644 1.349 . S
C1656 H1650 0.950 . S
C1656 C1657 1.327 . S
C1657 H1651 0.950 . S
C1657 C1656 1.327 . S
C1657 C1661 1.429 . S
C1658 C1641 1.574 1_554 S
C1658 H1652 0.949 . S
C1658 C1662 1.368 . S
C1659 C1640 1.429 . S
C1659 C1653 1.429 . S
C1659 C1660 1.523 . S
C1660 C1641 1.368 . S
C1660 C1654 1.368 . S
C1660 C1659 1.523 . S
C1661 C1645 1.429 . S
C1661 C1657 1.429 . S
C1661 C1662 1.523 . S
C1662 C1646 1.368 . S
C1662 C1658 1.368 . S
C1662 C1661 1.523 . S
H1663 C1638 0.950 . S
H1664 C1640 0.950 . S
H1665 C1641 0.949 . S
H1666 C1643 0.950 . S
H1667 C1645 0.950 . S
C1668 C1669 1.349 . S
C1668 C1670 1.327 . S
C1668 H1693 0.950 . S
C1669 C1668 1.349 . S
C1669 C1685 1.349 . S
C1670 C1668 1.327 . S
C1670 C1689 1.429 . S
C1670 H1694 0.950 . S
C1671 C1688 1.591 . S
C1671 C1690 1.351 1_556 S
C1671 H1695 0.949 . S
H1672 C1676 0.949 . S
C1673 C1674 1.349 . S
C1673 C1675 1.327 . S
C1673 H1696 0.950 . S
C1674 C1673 1.349 . S
C1674 C1686 1.349 . S
C1675 C1673 1.327 . S
C1675 C1691 1.429 . S
C1675 H1697 0.950 . S
C1676 H1672 0.949 . S
C1676 C1684 1.591 . S
C1676 C1692 1.351 1_554 S
H1677 C1685 0.950 . S
H1678 C1683 0.950 . S
H1679 C1684 0.949 . S
H1680 C1686 0.950 . S
H1681 C1687 0.950 . S
H1682 C1688 0.949 . S
C1683 H1678 0.950 . S
C1683 C1685 1.327 . S
C1683 C1689 1.429 . S
C1684 C1676 1.591 . S
C1684 H1679 0.949 . S
C1684 C1690 1.368 . S
C1685 C1669 1.349 . S
C1685 H1677 0.950 . S
C1685 C1683 1.327 . S
C1686 C1674 1.349 . S
C1686 H1680 0.950 . S
C1686 C1687 1.327 . S
C1687 H1681 0.950 . S
C1687 C1686 1.327 . S
C1687 C1691 1.429 . S
C1688 C1671 1.591 . S
C1688 H1682 0.949 . S
C1688 C1692 1.368 . S
C1689 C1670 1.429 . S
C1689 C1683 1.429 . S
C1689 C1690 1.523 . S
C1690 C1671 1.351 1_554 S
C1690 C1684 1.368 . S
C1690 C1689 1.523 . S
C1691 C1675 1.429 . S
C1691 C1687 1.429 . S
C1691 C1692 1.523 . S
C1692 C1676 1.351 1_556 S
C1692 C1688 1.368 . S
C1692 C1691 1.523 . S
H1693 C1668 0.950 . S
H1694 C1670 0.950 . S
H1695 C1671 0.949 . S
H1696 C1673 0.950 . S
H1697 C1675 0.950 . S
C1698 C1699 1.349 . S
C1698 C1700 1.327 . S
C1698 H1723 0.950 . S
C1699 C1698 1.349 . S
C1699 C1715 1.349 . S
C1700 C1698 1.327 . S
C1700 C1719 1.429 . S
C1700 H1724 0.950 . S
C1701 C1718 1.574 1_556 S
C1701 C1720 1.368 . S
C1701 H1725 0.949 . S
H1702 C1706 0.949 . S
C1703 C1704 1.349 . S
C1703 C1705 1.327 . S
C1703 H1726 0.950 . S
C1704 C1703 1.349 . S
C1704 C1716 1.349 . S
C1705 C1703 1.327 . S
C1705 C1721 1.429 . S
C1705 H1727 0.950 . S
C1706 H1702 0.949 . S
C1706 C1714 1.574 1_554 S
C1706 C1722 1.368 . S
H1707 C1715 0.950 . S
H1708 C1713 0.950 . S
H1709 C1714 0.949 . S
H1710 C1716 0.950 . S
H1711 C1717 0.950 . S
H1712 C1718 0.949 . S
C1713 H1708 0.950 . S
C1713 C1715 1.327 . S
C1713 C1719 1.429 . S
C1714 C1706 1.574 1_556 S
C1714 H1709 0.949 . S
C1714 C1720 1.368 . S
C1715 C1699 1.349 . S
C1715 H1707 0.950 . S
C1715 C1713 1.327 . S
C1716 C1704 1.349 . S
C1716 H1710 0.950 . S
C1716 C1717 1.327 . S
C1717 H1711 0.950 . S
C1717 C1716 1.327 . S
C1717 C1721 1.429 . S
C1718 C1701 1.574 1_554 S
C1718 H1712 0.949 . S
C1718 C1722 1.368 . S
C1719 C1700 1.429 . S
C1719 C1713 1.429 . S
C1719 C1720 1.523 . S
C1720 C1701 1.368 . S
C1720 C1714 1.368 . S
C1720 C1719 1.523 . S
C1721 C1705 1.429 . S
C1721 C1717 1.429 . S
C1721 C1722 1.523 . S
C1722 C1706 1.368 . S
C1722 C1718 1.368 . S
C1722 C1721 1.523 . S
H1723 C1698 0.950 . S
H1724 C1700 0.950 . S
H1725 C1701 0.949 . S
H1726 C1703 0.950 . S
H1727 C1705 0.950 . S
C529 C8 2.056 . S
C534 N104 1.905 . S
C559 N5 1.905 . S
C564 C41 2.056 . S
C589 C74 2.056 . S
C594 N38 1.905 . S
C619 N71 1.905 . S
C624 C107 2.056 . S
C649 N170 1.905 . S
C654 C140 2.056 . S
C679 N203 1.905 . S
C684 C173 2.056 . S
C709 N236 1.905 . S
C714 C206 2.056 . S
C739 C239 2.056 . S
C744 N137 1.905 . S
C769 C272 2.056 . S
C774 N368 1.905 . S
C799 C305 2.056 . S
C804 N269 1.905 . S
C829 C338 2.056 . S
C834 N302 1.905 . S
C859 N335 1.905 . S
C864 C371 2.056 . S
C889 N434 1.905 . S
C894 C404 2.056 . S
C919 C437 2.056 . S
C924 N467 1.905 . S
C949 C470 2.056 . S
C954 N500 1.905 . S
C979 C503 2.056 . S
C984 N401 1.905 . S
C1009 C28 0.360 . S
C1014 C193 0.360 . S
C1039 C61 0.360 . S
C1044 C226 0.360 . S
C1069 C259 0.360 . S
C1074 C94 0.360 . S
C1099 C127 0.360 . S
C1104 C160 0.360 . S
C1129 C292 0.360 . S
C1134 C457 0.360 . S
C1159 C325 0.360 . S
C1164 C490 0.360 . S
C1189 C358 0.360 . S
C1194 C523 0.360 . S
C1219 C391 0.360 . S
C1224 C424 0.360 . S
C1249 C17 0.747 . S
C1254 C512 0.747 . S
C1279 C413 0.747 . S
C1284 C50 0.747 . S
C1309 C83 0.747 . S
C1314 C446 0.747 . S
C1339 C116 0.747 . S
C1344 C479 0.747 . S
C1369 C314 0.747 . S
C1374 C149 0.747 . S
C1399 C347 0.747 . S
C1404 C182 0.747 . S
C1429 C380 0.747 . S
C1434 C215 0.747 . S
C1459 C281 0.747 . S
C1464 C248 0.747 . S
C1489 N14 0.583 . S
C1494 N146 0.583 . S
C1519 N47 0.583 . S
C1524 N179 0.583 . S
C1549 N80 0.583 . S
C1554 N212 0.583 . S
C1579 N245 0.583 . S
C1584 N113 0.583 . S
C1609 N278 0.583 . S
C1614 N410 0.583 . S
C1639 N311 0.583 . S
C1644 N443 0.583 . S
C1669 N476 0.583 . S
C1674 N344 0.583 . S
C1699 N377 0.583 . S
C1704 N509 0.583 . S
