# Generated by pormake.
# Topology wkd, (5)-cn, num edge types: 1
# Building blocks:
#     Node 0, Type 0, BuildingBlock: XOMCOT_clean_sbu_1, # of connection points: 5
#     Node 1, Type 0, BuildingBlock: XOMCOT_clean_sbu_1, # of connection points: 5
#     Node 2, Type 0, BuildingBlock: XOMCOT_clean_sbu_1, # of connection points: 5
#     Node 3, Type 0, BuildingBlock: XOMCOT_clean_sbu_1, # of connection points: 5
#     Node 4, Type 0, BuildingBlock: XOMCOT_clean_sbu_1, # of connection points: 5
#     Node 5, Type 0, BuildingBlock: XOMCOT_clean_sbu_1, # of connection points: 5
#     Node 6, Type 0, BuildingBlock: XOMCOT_clean_sbu_1, # of connection points: 5
#     Node 7, Type 0, BuildingBlock: XOMCOT_clean_sbu_1, # of connection points: 5
#     Node 8, Type 0, BuildingBlock: XOMCOT_clean_sbu_1, # of connection points: 5
#     Node 9, Type 0, BuildingBlock: XOMCOT_clean_sbu_1, # of connection points: 5
#     Node 10, Type 0, BuildingBlock: XOMCOT_clean_sbu_1, # of connection points: 5
#     Node 11, Type 0, BuildingBlock: XOMCOT_clean_sbu_1, # of connection points: 5
#     Edge 12, Type (0, 0), BuildingBlock: KIFKEQ_clean_linker_1, # of connection points: 2
#     Edge 13, Type (0, 0), BuildingBlock: KIFKEQ_clean_linker_1, # of connection points: 2
#     Edge 14, Type (0, 0), BuildingBlock: KIFKEQ_clean_linker_1, # of connection points: 2
#     Edge 15, Type (0, 0), BuildingBlock: KIFKEQ_clean_linker_1, # of connection points: 2
#     Edge 16, Type (0, 0), BuildingBlock: KIFKEQ_clean_linker_1, # of connection points: 2
#     Edge 17, Type (0, 0), BuildingBlock: KIFKEQ_clean_linker_1, # of connection points: 2
#     Edge 18, Type (0, 0), BuildingBlock: KIFKEQ_clean_linker_1, # of connection points: 2
#     Edge 19, Type (0, 0), BuildingBlock: KIFKEQ_clean_linker_1, # of connection points: 2
#     Edge 20, Type (0, 0), BuildingBlock: KIFKEQ_clean_linker_1, # of connection points: 2
#     Edge 21, Type (0, 0), BuildingBlock: KIFKEQ_clean_linker_1, # of connection points: 2
#     Edge 22, Type (0, 0), BuildingBlock: KIFKEQ_clean_linker_1, # of connection points: 2
#     Edge 23, Type (0, 0), BuildingBlock: KIFKEQ_clean_linker_1, # of connection points: 2
#     Edge 24, Type (0, 0), BuildingBlock: KIFKEQ_clean_linker_1, # of connection points: 2
#     Edge 25, Type (0, 0), BuildingBlock: KIFKEQ_clean_linker_1, # of connection points: 2
#     Edge 26, Type (0, 0), BuildingBlock: KIFKEQ_clean_linker_1, # of connection points: 2
#     Edge 27, Type (0, 0), BuildingBlock: KIFKEQ_clean_linker_1, # of connection points: 2
#     Edge 28, Type (0, 0), BuildingBlock: KIFKEQ_clean_linker_1, # of connection points: 2
#     Edge 29, Type (0, 0), BuildingBlock: KIFKEQ_clean_linker_1, # of connection points: 2
#     Edge 30, Type (0, 0), BuildingBlock: KIFKEQ_clean_linker_1, # of connection points: 2
#     Edge 31, Type (0, 0), BuildingBlock: KIFKEQ_clean_linker_1, # of connection points: 2
#     Edge 32, Type (0, 0), BuildingBlock: KIFKEQ_clean_linker_1, # of connection points: 2
#     Edge 33, Type (0, 0), BuildingBlock: KIFKEQ_clean_linker_1, # of connection points: 2
#     Edge 34, Type (0, 0), BuildingBlock: KIFKEQ_clean_linker_1, # of connection points: 2
#     Edge 35, Type (0, 0), BuildingBlock: KIFKEQ_clean_linker_1, # of connection points: 2
#     Edge 36, Type (0, 0), BuildingBlock: KIFKEQ_clean_linker_1, # of connection points: 2
#     Edge 37, Type (0, 0), BuildingBlock: KIFKEQ_clean_linker_1, # of connection points: 2
#     Edge 38, Type (0, 0), BuildingBlock: KIFKEQ_clean_linker_1, # of connection points: 2
#     Edge 39, Type (0, 0), BuildingBlock: KIFKEQ_clean_linker_1, # of connection points: 2
#     Edge 40, Type (0, 0), BuildingBlock: KIFKEQ_clean_linker_1, # of connection points: 2
#     Edge 41, Type (0, 0), BuildingBlock: KIFKEQ_clean_linker_1, # of connection points: 2
# Relax obj value: 0.113
# Max RMSD: 0.171
# Mean RMSD: 0.171
data_MOF--net-wkd--node1-XOMCOT_clean_sbu_1--edge1-KIFKEQ_clean_linker_1
_symmetry_space_group_name_H-M    P1
_symmetry_Int_Tables_number       1
_symmetry_cell_setting            triclinic
loop_
_symmetry_equiv_pos_as_xyz
'x, y, z'
_cell_length_a     25.634509
_cell_length_b     25.629137
_cell_length_c     110.10609
_cell_angle_alpha  89.996043
_cell_angle_beta   89.990825
_cell_angle_gamma 120.03141
loop_
_atom_site_label
_atom_site_type_symbol
_atom_site_fract_x
_atom_site_fract_y
_atom_site_fract_z
_atom_type_partial_charge
C0 C 0.07448 0.29419 0.08275 0.0
C1 C 0.07432 0.25503 0.0913 0.0
N2 N 1.02062 0.20385 0.09091 0.0
N3 N 1.02134 0.26793 0.07677 0.0
C4 C 0.98876 0.21357 0.0823 0.0
H5 H 0.11176 0.33877 0.08099 0.0
Co6 Co 0.999 0.30162 0.06373 0.0
C7 C 0.95652 0.17504 0.05489 0.0
O8 O 1.00455 0.17627 0.05944 0.0
N9 N 0.97678 0.33493 0.05099 0.0
C10 C 0.95074 0.3489 0.03258 0.0
C11 C 0.96457 0.3133 0.03955 0.0
C12 C 0.97032 0.38428 0.05073 0.0
N13 N 0.95389 0.39351 0.03958 0.0
O14 O 0.93153 0.29297 0.07319 0.0
H15 H 0.9661 0.27429 0.03633 0.0
H16 H 0.97701 0.41242 0.05856 0.0
O17 O 0.94952 0.22086 0.05622 0.0
C18 C 0.95204 0.33495 0.08115 0.0
O19 O 1.01054 0.3714 0.0818 0.0
N20 N 0.06939 0.31928 0.05495 0.0
C21 C 0.18283 0.37264 0.04377 0.0
C22 C 0.136 0.31625 0.0399 0.0
C23 C 0.0792 0.29076 0.04546 0.0
C24 C 0.11353 0.37523 0.05835 0.0
C25 C 0.1704 0.40239 0.05303 0.0
H26 H 0.04346 0.24958 0.04172 0.0
H27 H 0.10408 0.39942 0.06525 0.0
H28 H 0.94303 0.18082 0.07978 0.0
H29 H 0.11201 0.26265 0.09697 0.0
H30 H 0.94027 0.3428 0.02299 0.0
H31 H 0.14291 0.29211 0.03258 0.0
H32 H 0.20391 0.4471 0.05599 0.0
C33 C 0.81866 0.08311 0.24264 0.0
C34 C 0.87119 0.09382 0.24815 0.0
N35 N 0.87257 0.042 0.24835 0.0
N36 N 0.78703 0.02488 0.23918 0.0
C37 C 0.82075 1.00062 0.24293 0.0
H38 H 0.80461 0.11596 0.24115 0.0
Co39 Co 0.71349 0.99095 0.23068 0.0
C40 C 0.72887 0.92589 0.21019 0.0
O41 O 0.70276 0.94872 0.20348 0.0
N42 N 0.63802 0.95493 0.22248 0.0
C43 C 0.54901 0.87836 0.21672 0.0
C44 C 0.60387 0.89421 0.2217 0.0
C45 C 0.60192 0.97487 0.21786 0.0
N46 N 0.5477 0.92904 0.21432 0.0
O47 O 0.67327 0.93239 0.24346 0.0
H48 H 0.61755 0.86291 0.22487 0.0
H49 H 0.61323 0.02141 0.21752 0.0
O50 O 0.73596 0.93767 0.22161 0.0
C51 C 0.66186 0.95567 0.25262 0.0
O52 O 0.68896 1.01467 0.25337 0.0
N53 N 0.75085 0.05326 0.21899 0.0
C54 C 0.80525 0.15776 0.20473 0.0
C55 C 0.8274 0.1175 0.2047 0.0
C56 C 0.80017 0.06592 0.21207 0.0
C57 C 0.73185 0.09418 0.21973 0.0
C58 C 0.75714 0.14568 0.21248 0.0
H59 H 0.82011 0.03751 0.21248 0.0
H60 H 0.69839 0.08808 0.22642 0.0
H61 H 0.80828 0.95403 0.24148 0.0
H62 H 0.90573 0.13648 0.25181 0.0
H63 H 0.5126 0.83294 0.21506 0.0
H64 H 0.86586 0.12616 0.19917 0.0
H65 H 0.74076 0.17713 0.21334 0.0
C66 C 0.75245 0.7886 0.41647 0.0
C67 C 0.79487 0.83472 0.42345 0.0
N68 N 0.84951 0.84398 0.42029 0.0
N69 N 0.78004 0.76901 0.4088 0.0
C70 C 0.83957 0.80366 0.41139 0.0
H71 H 0.70452 0.77216 0.4166 0.0
Co72 Co 0.73843 0.71273 0.39647 0.0
C73 C 0.83584 0.70877 0.38291 0.0
O74 O 0.80747 0.64981 0.38399 0.0
N75 N 0.69609 0.65746 0.38404 0.0
C76 C 0.66165 0.62119 0.3656 0.0
C77 C 0.70449 0.66952 0.37201 0.0
C78 C 0.64797 0.60106 0.38469 0.0
N79 N 0.62623 0.57828 0.37357 0.0
O80 O 0.74468 0.65104 0.40543 0.0
H81 H 0.73912 0.71131 0.36811 0.0
H82 H 0.62798 0.57786 0.39311 0.0
O83 O 0.8137 0.7386 0.38781 0.0
C84 C 0.70445 0.63078 0.41374 0.0
O85 O 0.66946 0.65429 0.41486 0.0
N86 N 0.72577 0.76972 0.3885 0.0
C87 C 0.68246 0.83722 0.37699 0.0
C88 C 0.74139 0.84911 0.37476 0.0
C89 C 0.76274 0.81515 0.3808 0.0
C90 C 0.66898 0.75844 0.39085 0.0
C91 C 0.64654 0.79172 0.38526 0.0
H92 H 0.80795 0.82427 0.379 0.0
H93 H 0.64041 0.72207 0.39693 0.0
H94 H 0.87508 0.80179 0.40645 0.0
H95 H 0.78653 0.861 0.43006 0.0
H96 H 0.65696 0.61758 0.35581 0.0
H97 H 0.77039 0.88403 0.36844 0.0
H98 H 0.60058 0.78055 0.38711 0.0
C99 C 0.97379 0.74346 0.58003 0.0
C100 C 0.9629 0.78329 0.58629 0.0
N101 N 1.01009 0.83942 0.58473 0.0
N102 N 0.02767 0.77371 0.57446 0.0
C103 C 0.04905 0.83223 0.57753 0.0
H104 H 0.94448 0.69511 0.57967 0.0
Co105 Co 0.06049 0.73529 0.5653 0.0
C106 C 0.11853 0.81429 0.5442 0.0
O107 O 0.09451 0.76471 0.53766 0.0
N108 N 0.09513 0.69644 0.55649 0.0
C109 C 0.1704 0.68376 0.54995 0.0
C110 C 0.15558 0.72328 0.55508 0.0
C111 C 0.07427 0.63986 0.5521 0.0
N112 N 0.11931 0.63131 0.5481 0.0
O113 O 0.1229 0.75623 0.57732 0.0
H114 H 0.18743 0.76867 0.55796 0.0
H115 H 0.02778 0.60437 0.55229 0.0
O116 O 0.10975 0.81057 0.55574 0.0
C117 C 0.10142 0.71817 0.58602 0.0
O118 O 0.04313 0.68026 0.58624 0.0
N119 N 0.99441 0.70769 0.55452 0.0
C120 C 0.88357 0.65289 0.54236 0.0
C121 C 0.9241 0.71491 0.54108 0.0
C122 C 0.97869 0.74185 0.54753 0.0
C123 C 0.95428 0.64809 0.55621 0.0
C124 C 0.89944 0.61957 0.55007 0.0
H125 H 1.00685 0.79026 0.54723 0.0
H126 H 0.96392 0.62285 0.56282 0.0
H127 H 0.09211 0.86873 0.57451 0.0
H128 H 0.92348 0.7713 0.59178 0.0
H129 H 0.2154 0.6926 0.54788 0.0
H130 H 0.91249 0.74278 0.53562 0.0
H131 H 0.86916 0.57189 0.55156 0.0
C132 C 0.28199 0.99623 0.75144 0.0
C133 C 0.23957 0.99449 0.75934 0.0
N134 N 0.2144 0.02476 0.75435 0.0
N135 N 0.28432 0.02764 0.74145 0.0
C136 C 0.24245 0.0443 0.74347 0.0
H137 H 0.30798 0.97405 0.75276 0.0
Co138 Co 0.3317 0.03688 0.72768 0.0
C139 C 0.3354 0.14145 0.71527 0.0
O140 O 0.39458 0.16997 0.71509 0.0
N141 N 0.37822 0.04491 0.71368 0.0
C142 C 0.40448 0.05066 0.69424 0.0
C143 C 0.36172 0.04747 0.70213 0.0
C144 C 0.4315 0.04622 0.71247 0.0
N145 N 0.44845 0.04979 0.70073 0.0
O146 O 0.4011 0.10306 0.73556 0.0
H147 H 0.32127 0.04765 0.69949 0.0
H148 H 0.45721 0.04368 0.71997 0.0
O149 O 0.30635 0.08977 0.72033 0.0
C150 C 0.42913 0.08059 0.74112 0.0
O151 O 0.40727 0.02209 0.74051 0.0
N152 N 0.26721 0.96848 0.72082 0.0
C153 C 0.1924 0.85752 0.70993 0.0
C154 C 0.18833 0.90836 0.70669 0.0
C155 C 0.22568 0.96373 0.71245 0.0
C156 C 0.26988 0.91905 0.72436 0.0
C157 C 0.23262 0.86309 0.71912 0.0
H158 H 0.22331 1.00292 0.70969 0.0
H159 H 0.30326 0.92382 0.73095 0.0
H160 H 0.23205 0.06947 0.737 0.0
H161 H 0.22683 0.97055 0.76789 0.0
H162 H 0.40383 0.05479 0.68446 0.0
H163 H 0.15757 0.90553 0.69963 0.0
H164 H 0.23753 0.82509 0.7218 0.0
C165 C 0.3127 0.25249 0.9162 0.0
C166 C 0.27763 0.21035 0.92474 0.0
N167 N 0.2207 0.19954 0.92373 0.0
N168 N 0.27852 0.26816 0.90953 0.0
C169 C 0.22318 0.23715 0.9148 0.0
H170 H 0.36039 0.27013 0.91501 0.0
Co171 Co 0.3072 0.32228 0.896 0.0
C172 C 0.17998 0.23516 0.88774 0.0
O173 O 0.18441 0.18878 0.89147 0.0
N174 N 0.33609 0.37623 0.88279 0.0
C175 C 0.34355 0.41547 0.86444 0.0
C176 C 0.3091 0.36744 0.87186 0.0
C177 C 0.38755 0.43012 0.88169 0.0
N178 N 0.39291 0.45539 0.87061 0.0
O179 O 0.30069 0.38203 0.90567 0.0
H180 H 0.26728 0.3282 0.86924 0.0
H181 H 0.42036 0.45053 0.88887 0.0
O182 O 0.22413 0.28871 0.88945 0.0
C183 C 0.3515 0.41174 0.91109 0.0
O184 O 0.39148 0.39454 0.90957 0.0
N185 N 0.32336 0.26899 0.88696 0.0
C186 C 0.37453 0.2082 0.87521 0.0
C187 C 0.31941 0.20156 0.87126 0.0
C188 C 0.29514 0.23335 0.8771 0.0
C189 C 0.3786 0.2786 0.89033 0.0
C190 C 0.40448 0.24826 0.88477 0.0
H191 H 0.25522 0.2306 0.87329 0.0
H192 H 0.40396 0.31183 0.89719 0.0
H193 H 0.1847 0.24047 0.91189 0.0
H194 H 0.29312 0.18889 0.9311 0.0
H195 H 0.33323 0.41976 0.85509 0.0
H196 H 0.29549 0.17261 0.86366 0.0
H197 H 0.44864 0.25769 0.88773 0.0
C198 C 0.74921 0.9803 0.79281 0.0
C199 C 0.79005 0.97778 0.78509 0.0
N200 N 0.8462 0.01591 0.78917 0.0
N201 N 0.77889 0.01981 0.80179 0.0
C202 C 0.83799 0.04086 0.79934 0.0
H203 H 0.7007 0.95373 0.79208 0.0
Co204 Co 0.74032 0.03415 0.8148 0.0
C205 C 0.84263 0.13449 0.8277 0.0
O206 O 0.81645 0.16716 0.8267 0.0
N207 N 0.70112 0.04737 0.82797 0.0
C208 C 0.67403 0.05345 0.8469 0.0
C209 C 0.71363 0.04551 0.83984 0.0
C210 C 0.65347 0.05654 0.82811 0.0
N211 N 0.63628 0.06048 0.83951 0.0
O212 O 0.74612 0.10314 0.80623 0.0
H213 H 0.74931 0.03865 0.84322 0.0
H214 H 0.63052 0.05871 0.82009 0.0
O215 O 0.8176 0.08187 0.82301 0.0
C216 C 0.69876 0.08353 0.79967 0.0
O217 O 0.65913 0.02566 0.79995 0.0
N218 N 0.72755 0.96323 0.82225 0.0
C219 C 0.68298 0.85008 0.83291 0.0
C220 C 0.74119 0.8972 0.83571 0.0
C221 C 0.76319 0.95369 0.83012 0.0
C222 C 0.67157 0.91772 0.81933 0.0
C223 C 0.64854 0.86089 0.82448 0.0
H224 H 0.80768 0.98978 0.83242 0.0
H225 H 0.64391 0.92629 0.81315 0.0
H226 H 0.87429 0.07353 0.80495 0.0
H227 H 0.77877 0.94838 0.7773 0.0
H228 H 0.67353 0.05479 0.85673 0.0
H229 H 0.76912 0.89048 0.84218 0.0
H230 H 0.60311 0.82621 0.8222 0.0
C231 C 0.7743 0.7457 0.95918 0.0
C232 C 0.82016 0.78604 0.95183 0.0
N233 N 0.8492 0.83972 0.95753 0.0
N234 N 0.77364 0.7734 0.96954 0.0
C235 C 0.81999 0.83081 0.96826 0.0
H236 H 0.74442 0.6986 0.95719 0.0
Co237 Co 0.7221 0.73472 0.98281 0.0
C238 C 0.72135 0.83775 0.9949 0.0
O239 O 0.66239 0.81066 0.99398 0.0
N240 N 0.67129 0.69605 0.99632 0.0
C241 C 0.63877 0.67333 1.01543 0.0
C242 C 0.68554 0.71204 1.00809 0.0
C243 C 0.61523 0.64713 0.99684 0.0
N244 N 0.59448 0.63263 1.00832 0.0
O245 O 0.65596 0.73564 0.97425 0.0
H246 H 0.72708 0.75009 1.01124 0.0
H247 H 0.58999 0.62167 0.98905 0.0
O248 O 0.74937 0.81263 0.99049 0.0
C249 C 0.62738 0.68579 0.96844 0.0
O250 O 0.64691 0.6473 0.96923 0.0
N251 N 0.7829 0.72623 0.99027 0.0
C252 C 0.85259 0.68445 1.0015 0.0
C253 C 0.85907 0.74045 1.00475 0.0
C254 C 0.82418 0.76114 0.99886 0.0
C255 C 0.77772 0.67299 0.98676 0.0
C256 C 0.81217 0.6514 0.99219 0.0
H257 H 0.82845 0.80349 1.00164 0.0
H258 H 0.74463 0.64591 0.97998 0.0
H259 H 0.8337 0.86487 0.97525 0.0
H260 H 0.83148 0.77625 0.94297 0.0
H261 H 0.63682 0.67587 0.02522 0.0
H262 H 0.88998 0.76737 1.01188 0.0
H263 H 0.80505 0.60766 0.98949 0.0
C264 C 0.05787 0.78593 0.12812 0.0
C265 C 0.05744 0.82946 0.1209 0.0
N266 N 1.01523 0.84136 0.12516 0.0
N267 N 1.01565 0.76955 0.13685 0.0
C268 C 0.99061 0.80455 0.13486 0.0
H269 H 0.08832 0.76846 0.12724 0.0
Co270 Co 1.00321 0.71342 0.14911 0.0
C271 C 0.90165 0.70666 0.16333 0.0
O272 O 0.87374 0.64748 0.16315 0.0
N273 N 0.99196 0.65776 0.16145 0.0
C274 C 0.98642 0.61823 0.17972 0.0
C275 C 0.99709 0.66906 0.17351 0.0
C276 C 0.97828 0.59953 0.16059 0.0
N277 N 0.97447 0.57438 0.1716 0.0
O278 O 0.93572 0.65063 0.14014 0.0
H279 H 1.00698 0.71139 0.17759 0.0
H280 H 0.97176 0.57603 0.15209 0.0
O281 O 0.95209 0.73696 0.15788 0.0
C282 C 0.95599 0.6306 0.13184 0.0
O283 O 1.01456 0.65426 0.13081 0.0
N284 N 0.07231 0.772 0.15703 0.0
C285 C 0.18204 0.84378 0.16873 0.0
C286 C 0.13323 0.8534 0.17061 0.0
C287 C 0.07861 0.81735 0.16451 0.0
C288 C 0.11974 0.76351 0.15481 0.0
C289 C 0.17498 0.79889 0.16053 0.0
H290 H 0.04132 0.82487 0.1661 0.0
H291 H 0.11387 0.72758 0.1488 0.0
H292 H 0.95533 0.80351 0.14043 0.0
H293 H 0.08749 0.85224 0.11337 0.0
H294 H 0.98581 0.61345 0.1895 0.0
H295 H 0.13706 0.88791 0.17682 0.0
H296 H 0.21105 0.78933 0.15891 0.0
C297 C 0.31496 0.07289 0.29578 0.0
C298 C 0.27919 0.08252 0.28785 0.0
N299 N 0.22166 0.03811 0.28932 0.0
N300 N 0.28035 0.02283 0.30236 0.0
C301 C 0.22365 1.00199 0.29806 0.0
H302 H 0.3629 0.10205 0.29708 0.0
Co303 Co 0.30909 0.99678 0.31547 0.0
C304 C 0.19368 0.95441 0.32991 0.0
O305 O 0.2178 1.00376 0.33643 0.0
N306 N 0.33732 0.96874 0.32842 0.0
C307 C 0.34906 0.93719 0.34648 0.0
C308 C 0.31519 0.95443 0.33982 0.0
C309 C 0.38542 0.96012 0.32846 0.0
N310 N 0.39327 0.94052 0.33935 0.0
O311 O 0.30222 0.93087 0.30565 0.0
H312 H 0.27814 0.95795 0.34342 0.0
H313 H 0.4146 0.96893 0.32072 0.0
O314 O 0.22482 0.94606 0.3218 0.0
C315 C 0.3485 0.95192 0.29873 0.0
O316 O 0.38728 1.00999 0.29908 0.0
N317 N 0.3255 0.06773 0.32454 0.0
C318 C 0.36431 0.17641 0.33697 0.0
C319 C 0.31288 0.15249 0.32962 0.0
C320 C 0.29448 0.0983 0.32338 0.0
C321 C 0.37859 0.09412 0.33086 0.0
C322 C 0.39754 0.14692 0.33745 0.0
H323 H 0.2542 0.08023 0.3179 0.0
H324 H 0.40819 0.07563 0.33065 0.0
H325 H 0.18415 0.96304 0.3017 0.0
H326 H 0.29421 0.12018 0.28166 0.0
H327 H 0.34268 0.9251 0.356 0.0
H328 H 0.28709 0.17527 0.32876 0.0
H329 H 0.43932 0.16588 0.34252 0.0
C330 C 0.26087 0.29613 0.4633 0.0
C331 C 0.2147 0.2565 0.45595 0.0
N332 N 0.20306 0.20033 0.45851 0.0
N333 N 0.27847 0.2654 0.47055 0.0
C334 C 0.24256 0.20681 0.46736 0.0
H335 H 0.27883 0.3443 0.46368 0.0
Co336 Co 0.33407 0.30275 0.48319 0.0
C337 C 0.33605 0.20162 0.49565 0.0
O338 O 0.3952 0.2311 0.49511 0.0
N339 N 0.38907 0.34114 0.49595 0.0
C340 C 0.42529 0.36772 0.51467 0.0
C341 C 0.37595 0.32957 0.50787 0.0
C342 C 0.44701 0.38687 0.49575 0.0
N343 N 0.47004 0.40391 0.50706 0.0
O344 O 0.39562 0.29805 0.47385 0.0
H345 H 0.33305 0.29536 0.51145 0.0
H346 H 0.47144 0.40817 0.48752 0.0
O347 O 0.30664 0.22452 0.49089 0.0
C348 C 0.41728 0.34099 0.46611 0.0
O349 O 0.39562 0.37779 0.46579 0.0
N350 N 0.27679 0.31364 0.49155 0.0
C351 C 0.20477 0.35076 0.50339 0.0
C352 C 0.19273 0.2911 0.50451 0.0
C353 C 0.22895 0.273 0.49833 0.0
C354 C 0.28834 0.37123 0.49023 0.0
C355 C 0.25281 0.39067 0.496 0.0
H356 H 0.21917 0.227 0.49921 0.0
H357 H 0.32627 0.40258 0.48477 0.0
H358 H 0.24301 0.16944 0.47183 0.0
H359 H 0.19036 0.26792 0.44944 0.0
H360 H 0.42824 0.36818 0.52448 0.0
H361 H 0.15588 0.25898 0.51012 0.0
H362 H 0.26419 0.43726 0.49502 0.0
C363 C 0.994 0.27296 0.62546 0.0
C364 C 0.99008 0.23114 0.61722 0.0
N365 N 1.02322 0.20706 0.62123 0.0
N366 N 0.03024 0.27682 0.63467 0.0
C367 C 0.04774 0.23626 0.63183 0.0
H368 H 0.97001 0.29757 0.62495 0.0
Co369 Co 0.04224 0.32643 0.64824 0.0
C370 C 0.07608 0.25618 0.6659 0.0
O371 O 1.02146 0.22726 0.67038 0.0
N372 N 0.0548 0.37768 0.66186 0.0
C373 C 0.0587 0.41051 0.68077 0.0
C374 C 0.04638 0.36177 0.67372 0.0
C375 C 0.07112 0.43695 0.66204 0.0
N376 N 0.07451 0.45804 0.67345 0.0
O377 O 0.11573 0.38984 0.64093 0.0
H378 H 0.02919 0.31714 0.67722 0.0
H379 H 0.07967 0.46414 0.65401 0.0
O380 O 0.08866 0.29345 0.65706 0.0
C381 C 0.10011 0.41857 0.63366 0.0
O382 O 0.04274 0.40182 0.63286 0.0
N383 N 0.96515 0.26808 0.65426 0.0
C384 C 0.84701 0.19446 0.66227 0.0
C385 C 0.8811 0.16897 0.65821 0.0
C386 C 0.93948 0.20666 0.65373 0.0
C387 C 0.93012 0.2925 0.6572 0.0
C388 C 0.87152 0.25677 0.66142 0.0
H389 H 0.96485 0.18647 0.65033 0.0
H390 H 0.94741 0.34034 0.65621 0.0
H391 H 0.07544 0.22632 0.63772 0.0
H392 H 0.96361 0.21898 0.60898 0.0
H393 H 0.05411 0.41033 0.69055 0.0
H394 H 0.86253 0.1206 0.65833 0.0
H395 H 0.84564 0.27781 0.66408 0.0
H396 H 0.84313 0.90593 0.99846 0.0
H397 H 0.67481 0.89288 1.00913 0.0
H398 H 0.89666 0.98752 1.01293 0.0
H399 H 0.72871 0.97484 0.02368 0.0
H400 H 0.96156 0.07341 0.04996 0.0
H401 H 0.9038 0.99541 0.03511 0.0
H402 H 0.80382 0.08429 0.02586 0.0
H403 H 0.86179 0.16288 0.04089 0.0
C404 C 0.81745 0.92054 1.00385 0.0
C405 C 0.75444 0.89214 1.0027 0.0
C406 C 0.8482 0.96726 1.01221 0.0
C407 C 0.81693 0.98722 1.01962 0.0
C408 C 0.75423 0.9607 1.01811 0.0
C409 C 0.72333 0.91362 1.00976 0.0
C410 C 0.92709 0.07641 0.04484 0.0
C411 C 0.91668 0.12481 0.04661 0.0
C412 C 0.89421 0.03176 0.03623 0.0
C413 C 0.84972 0.03394 0.02914 0.0
C414 C 0.83771 0.08117 0.03117 0.0
C415 C 0.87096 0.12624 0.03979 0.0
H416 H 0.81349 0.65948 0.1808 0.0
H417 H 0.93506 0.82612 0.16255 0.0
H418 H 0.77424 0.71241 0.19292 0.0
H419 H 0.89533 0.87854 0.17457 0.0
H420 H 0.75042 0.92537 0.18607 0.0
H421 H 0.7934 0.87279 0.17542 0.0
H422 H 0.81028 0.79796 0.20931 0.0
H423 H 0.76739 0.85184 0.22018 0.0
C424 C 0.83173 0.7073 0.17934 0.0
C425 C 0.87711 0.73841 0.17061 0.0
C426 C 0.8096 0.73767 0.18637 0.0
C427 C 0.83165 0.79961 0.1847 0.0
C428 C 0.87716 0.83071 0.17602 0.0
C429 C 0.89992 0.80062 0.16913 0.0
C430 C 0.76313 0.89775 0.19133 0.0
C431 C 0.75521 0.89274 0.20401 0.0
C432 C 0.7882 0.86789 0.18519 0.0
C433 C 0.80544 0.83138 0.19151 0.0
C434 C 0.79716 0.82566 0.20419 0.0
C435 C 0.77285 0.8566 0.21042 0.0
H436 H 0.88088 0.65834 0.36702 0.0
H437 H 0.91018 0.82999 0.38 0.0
H438 H 0.96205 0.71027 0.35221 0.0
H439 H 0.99146 0.8816 0.36544 0.0
H440 H 0.0942 0.96358 0.33206 0.0
H441 H 1.00486 0.89895 0.34404 0.0
H442 H 0.0711 0.77557 0.34992 0.0
H443 H 0.15997 0.84004 0.33747 0.0
C444 C 0.90497 0.70713 0.36681 0.0
C445 C 0.88859 0.73995 0.37465 0.0
C446 C 0.95153 0.73689 0.3583 0.0
C447 C 0.98274 0.80016 0.35744 0.0
C448 C 0.96739 0.8328 0.36557 0.0
C449 C 0.92096 0.80317 0.37402 0.0
C450 C 0.08845 0.92145 0.33554 0.0
C451 C 0.13348 0.90638 0.33375 0.0
C452 C 0.0378 0.88488 0.34259 0.0
C453 C 0.03144 0.8328 0.34825 0.0
C454 C 0.07444 0.8153 0.3457 0.0
C455 C 0.12511 0.85186 0.33849 0.0
H456 H 0.21538 0.11867 0.49575 0.0
H457 H 0.38382 0.15804 0.51238 0.0
H458 H 0.16248 0.0277 0.50817 0.0
H459 H 0.33065 0.06725 0.52487 0.0
H460 H 0.19772 0.92733 0.55341 0.0
H461 H 0.25052 0.02272 0.54203 0.0
H462 H 0.16196 0.9288 0.50911 0.0
H463 H 0.11032 0.83453 0.52027 0.0
C464 C 0.24115 0.10796 0.50205 0.0
C465 C 0.30395 0.14546 0.50298 0.0
C466 C 0.21083 0.05583 0.50917 0.0
C467 C 0.24237 0.04033 0.51753 0.0
C468 C 0.30501 0.07824 0.5186 0.0
C469 C 0.33551 0.12993 0.51134 0.0
C470 C 0.18958 0.92728 0.54375 0.0
C471 C 0.15004 0.87321 0.53776 0.0
C472 C 0.21993 0.98174 0.53724 0.0
C473 C 0.21027 0.98328 0.52467 0.0
C474 C 0.17001 0.92934 0.51878 0.0
C475 C 0.14069 0.87513 0.52521 0.0
H476 H 0.214 0.09742 0.71483 0.0
H477 H 0.38059 0.23663 0.69922 0.0
H478 H 0.15785 0.13047 0.70236 0.0
H479 H 0.32382 0.27053 0.68677 0.0
H480 H 0.18075 0.26089 0.65749 0.0
H481 H 0.24833 0.23756 0.66935 0.0
H482 H 0.14405 0.21746 0.70161 0.0
H483 H 0.07736 0.23938 0.68996 0.0
C484 C 0.2388 0.13543 0.7088 0.0
C485 C 0.30194 0.16455 0.70812 0.0
C486 C 0.20653 0.15457 0.70165 0.0
C487 C 0.23632 0.2035 0.6936 0.0
C488 C 0.29949 0.23255 0.69282 0.0
C489 C 0.33199 0.21346 0.70006 0.0
C490 C 0.17309 0.25222 0.66714 0.0
C491 C 0.12311 0.25083 0.67273 0.0
C492 C 0.21163 0.23887 0.67394 0.0
C493 C 0.20071 0.22425 0.68639 0.0
C494 C 0.15282 0.22664 0.692 0.0
C495 C 0.11462 0.23947 0.68528 0.0
H496 H 0.89538 0.23369 0.8426 0.0
H497 H 0.91071 0.08066 0.8312 0.0
H498 H 0.97605 0.26049 0.85735 0.0
H499 H 0.99154 0.10775 0.84583 0.0
H500 H 0.16269 0.31777 0.8749 0.0
H501 H 0.08372 0.29677 0.85999 0.0
H502 H 1.00193 0.10649 0.86762 0.0
H503 H 0.08081 0.12718 0.88228 0.0
C504 C 0.91637 0.20612 0.84313 0.0
C505 C 0.89596 0.15458 0.83577 0.0
C506 C 0.96279 0.22161 0.85159 0.0
C507 C 0.98992 0.18589 0.85293 0.0
C508 C 0.97083 0.13557 0.84527 0.0
C509 C 0.92458 0.12016 0.83681 0.0
C510 C 0.12753 0.27152 0.87347 0.0
C511 C 0.12855 0.22419 0.87975 0.0
C512 C 0.08217 0.25946 0.86492 0.0
C513 C 0.03681 0.19979 0.86244 0.0
C514 C 0.03683 0.15285 0.86906 0.0
C515 C 0.08194 0.16485 0.87757 0.0
H516 H 0.95205 0.09048 0.08208 0.0
H517 H 0.05701 0.19017 0.11317 0.0
H518 H 0.93967 0.9974 0.09092 0.0
H519 H 0.04535 0.09737 0.12196 0.0
H520 H 0.9835 0.91135 0.13816 0.0
H521 H 0.97359 0.99591 0.13051 0.0
H522 H 1.01103 0.96012 0.09419 0.0
H523 H 1.02037 0.87585 0.10181 0.0
C524 C 0.97137 0.09235 0.09092 0.0
C525 C 1.00576 0.14785 0.0969 0.0
C526 C 0.96481 0.03909 0.09594 0.0
C527 C 0.99191 0.03991 0.10712 0.0
C528 C 0.02355 0.09493 0.11338 0.0
C529 C 0.03063 0.14823 0.10831 0.0
C530 C 0.98853 0.921 0.12852 0.0
C531 C 1.0031 0.88715 0.1206 0.0
C532 C 0.98334 0.9697 0.12415 0.0
C533 C 0.99165 0.98496 0.11173 0.0
C534 C 1.00377 0.94941 0.10377 0.0
C535 C 1.0097 0.90141 0.10816 0.0
H536 H 0.99116 0.11819 0.24544 0.0
H537 H 0.8638 0.95004 0.26217 0.0
H538 H 0.07404 0.11296 0.2549 0.0
H539 H 0.94682 0.94559 0.27232 0.0
H540 H 0.11864 0.93752 0.28226 0.0
H541 H 0.03259 0.93352 0.27161 0.0
H542 H 0.1195 0.12779 0.2736 0.0
H543 H 0.20531 0.13123 0.28364 0.0
C544 C 0.98105 0.08008 0.25122 0.0
C545 C 0.92107 0.03482 0.25315 0.0
C546 C 0.02857 0.0772 0.25677 0.0
C547 C 1.01764 0.02957 0.26469 0.0
C548 C 0.95743 0.98294 0.26628 0.0
C549 C 0.9097 0.98537 0.26049 0.0
C550 C 0.11896 0.97915 0.28039 0.0
C551 C 0.16919 0.03473 0.28362 0.0
C552 C 0.06958 0.97699 0.27431 0.0
C553 C 0.06898 0.03041 0.27148 0.0
C554 C 0.11865 0.08567 0.27516 0.0
C555 C 0.16804 0.08779 0.28102 0.0
H556 H 0.08967 0.1768 0.45512 0.0
H557 H 0.20471 0.10026 0.45096 0.0
H558 H 1.00709 0.08869 0.44563 0.0
H559 H 0.12248 1.01206 0.44077 0.0
H560 H 0.93855 0.83824 0.43231 0.0
H561 H 0.0267 0.92284 0.44202 0.0
H562 H 0.97511 0.04591 0.42669 0.0
H563 H 0.88623 0.96104 0.41775 0.0
C564 C 0.09724 0.14098 0.45205 0.0
C565 C 0.15366 0.14556 0.45366 0.0
C566 C 0.05003 0.0905 0.44648 0.0
C567 C 0.05806 0.04339 0.44208 0.0
C568 C 0.11428 0.04715 0.44403 0.0
C569 C 0.16148 0.0976 0.44985 0.0
C570 C 0.94703 0.88369 0.43097 0.0
C571 C 0.90593 0.89354 0.42437 0.0
C572 C 0.99742 0.93223 0.4365 0.0
C573 C 1.00781 0.99156 0.4354 0.0
C574 C 0.96794 1.00101 0.42816 0.0
C575 C 0.91735 0.95261 0.42287 0.0
H576 H 0.948 0.1291 0.60405 0.0
H577 H 0.10419 0.16902 0.62578 0.0
H578 H 0.95078 0.04539 0.59492 0.0
H579 H 0.10485 0.08168 0.61686 0.0
H580 H 0.11334 0.94643 0.58915 0.0
H581 H 0.1209 0.03803 0.59793 0.0
H582 H 0.92703 0.94721 0.60093 0.0
H583 H 0.91942 0.85805 0.59178 0.0
C584 C 0.9834 0.12066 0.60691 0.0
C585 C 0.02601 0.15687 0.61574 0.0
C586 C 0.98439 0.07151 0.60171 0.0
C587 C 0.0275 0.05593 0.60523 0.0
C588 C 0.07104 0.09242 0.61389 0.0
C589 C 0.07025 0.14223 0.61911 0.0
C590 C 0.0724 0.94635 0.59158 0.0
C591 C 1.01576 0.8944 0.58974 0.0
C592 C 0.07676 0.99867 0.59674 0.0
C593 C 0.02458 1.00035 0.60011 0.0
C594 C 0.96826 0.94826 0.5983 0.0
C595 C 0.96392 0.89645 0.59316 0.0
H596 H 0.13916 0.05409 0.74234 0.0
H597 H 0.17714 1.01004 0.77792 0.0
H598 H 0.05446 0.05995 0.75071 0.0
H599 H 0.09063 1.0124 0.7861 0.0
H600 H 0.95576 0.06165 0.80032 0.0
H601 H 0.04795 0.07156 0.79179 0.0
H602 H 0.95582 0.99721 0.75786 0.0
H603 H 0.86514 0.99064 0.76611 0.0
C604 C 0.12987 0.04579 0.75194 0.0
C605 C 0.16534 0.031 0.75936 0.0
C606 C 0.08052 0.04844 0.75674 0.0
C607 C 0.06488 0.03615 0.76911 0.0
C608 C 0.10122 0.02278 0.77658 0.0
C609 C 0.15069 0.02051 0.7718 0.0
C610 C 0.95526 0.04831 0.79098 0.0
C611 C 0.90222 0.02478 0.784 0.0
C612 C 1.00821 0.05331 0.78611 0.0
C613 C 1.00972 0.03477 0.77412 0.0
C614 C 0.95707 1.01262 0.76707 0.0
C615 C 0.90437 1.00796 0.77191 0.0
H616 H 0.93501 0.84517 0.94237 0.0
H617 H 0.88491 0.95683 0.9629 0.0
H618 H 0.02336 0.9345 0.93469 0.0
H619 H 0.97494 0.04721 0.95532 0.0
H620 H 0.11092 0.19107 0.92715 0.0
H621 H 1.02021 0.10575 0.93586 0.0
H622 H 0.11964 1.01373 0.94255 0.0
H623 H 0.20883 0.0971 0.93367 0.0
C624 C 0.94263 0.88883 0.94522 0.0
C625 C 0.90243 0.89353 0.95324 0.0
C626 C 0.99386 0.94026 0.9409 0.0
C627 C 1.00663 0.99825 0.94441 0.0
C628 C 0.96634 1.00328 0.95237 0.0
C629 C 0.91506 0.95149 0.95681 0.0
C630 C 0.11344 0.1527 0.93049 0.0
C631 C 0.16771 0.1515 0.92965 0.0
C632 C 0.0615 0.10394 0.93558 0.0
C633 C 0.06239 0.05254 0.93983 0.0
C634 C 0.11692 0.05209 0.93923 0.0
C635 C 0.1686 0.10062 0.93424 0.0
H636 H 0.56932 0.56472 0.0285 0.0
H637 H 0.48752 0.59541 0.99716 0.0
H638 H 0.47004 0.49274 0.03639 0.0
H639 H 0.3876 0.52543 1.00523 0.0
H640 H 0.21235 0.3725 1.01968 0.0
H641 H 0.31215 0.4264 1.01041 0.0
H642 H 0.39035 0.49621 0.04566 0.0
H643 H 0.29191 0.43939 0.05493 0.0
C644 C 0.52986 0.55593 0.02332 0.0
C645 C 0.536 0.58597 1.0123 0.0
C646 C 0.47285 0.51494 0.02785 0.0
C647 C 0.42036 0.50379 1.02159 0.0
C648 C 0.42674 0.53221 1.01028 0.0
C649 C 0.48399 0.57253 1.00565 0.0
C650 C 0.25105 0.39828 0.02548 0.0
C651 C 0.24381 0.40187 0.03806 0.0
C652 C 0.30831 0.42994 1.02013 0.0
C653 C 0.35968 0.46614 0.02723 0.0
C654 C 0.35234 0.46831 0.03986 0.0
C655 C 0.29544 0.43635 0.04519 0.0
H656 H 0.89811 0.47366 0.15896 0.0
H657 H 1.01207 0.53549 0.19068 0.0
H658 H 0.86143 0.36905 0.16506 0.0
H659 H 0.97489 0.43154 0.19689 0.0
H660 H 0.92583 0.23803 0.20182 0.0
H661 H 0.97221 0.33663 0.19191 0.0
H662 H 0.79599 0.30485 0.18171 0.0
H663 H 0.74986 0.20604 0.19139 0.0
C664 C 0.91601 0.46493 0.16712 0.0
C665 C 0.95758 0.51286 0.1744 0.0
C666 C 0.89466 0.40505 0.17067 0.0
C667 C 0.91498 0.39188 0.1815 0.0
C668 C 0.95861 0.43993 0.18846 0.0
C669 C 0.97947 0.49959 0.18497 0.0
C670 C 0.89713 0.25157 0.19722 0.0
C671 C 0.83413 0.21438 0.19746 0.0
C672 C 0.92365 0.30829 0.19164 0.0
C673 C 0.8878 0.32885 0.18608 0.0
C674 C 0.825 0.29034 0.18581 0.0
C675 C 0.79851 0.23391 0.19147 0.0
H676 H 0.50759 0.98836 0.33038 0.0
H677 H 0.38425 0.86286 0.35685 0.0
H678 H 0.58833 0.97318 0.33859 0.0
H679 H 0.46421 0.84911 0.36509 0.0
H680 H 0.62468 0.891 0.38699 0.0
H681 H 0.56046 0.9218 0.37662 0.0
H682 H 0.61384 0.88472 0.34197 0.0
H683 H 0.6787 0.85369 0.35245 0.0
C684 C 0.49751 0.95724 0.33784 0.0
C685 C 0.43972 0.9278 0.34313 0.0
C686 C 0.54373 0.94879 0.34255 0.0
C687 C 0.53281 0.91116 0.35266 0.0
C688 C 0.47441 0.87975 0.35752 0.0
C689 C 0.42854 0.88774 0.3528 0.0
C690 C 0.62377 0.8907 0.37715 0.0
C691 C 0.65596 0.86923 0.37053 0.0
C692 C 0.5869 0.9081 0.37122 0.0
C693 C 0.58127 0.90442 0.35851 0.0
C694 C 0.61735 0.88789 0.35178 0.0
C695 C 0.6545 0.87034 0.35776 0.0
H696 H 0.85488 0.66403 0.51875 0.0
H697 H 0.77562 0.57467 0.55265 0.0
H698 H 0.7551 0.61094 0.50911 0.0
H699 H 0.67727 0.52117 0.54307 0.0
H700 H 0.50016 0.47354 0.52708 0.0
H701 H 0.601 0.54078 0.5348 0.0
H702 H 0.67732 0.50576 0.50299 0.0
H703 H 0.57544 0.43835 0.49519 0.0
C704 C 0.81618 0.63337 0.52414 0.0
C705 C 0.82322 0.62325 0.53644 0.0
C706 C 0.75922 0.60264 0.5186 0.0
C707 C 0.70813 0.56192 0.52532 0.0
C708 C 0.71537 0.55275 0.53765 0.0
C709 C 0.77199 0.58296 0.54312 0.0
C710 C 0.53841 0.48038 0.5217 0.0
C711 C 0.52983 0.44976 0.51064 0.0
C712 C 0.59626 0.51892 0.52612 0.0
C713 C 0.64729 0.52777 0.51964 0.0
C714 C 0.63896 0.5 0.5082 0.0
C715 C 0.58069 0.46139 0.50373 0.0
H716 H 0.05563 0.5403 0.66146 0.0
H717 H 0.1293 0.51161 0.69437 0.0
H718 H 0.0745 0.63798 0.66937 0.0
H719 H 0.14794 0.60782 0.70219 0.0
H720 H 0.12133 0.74642 0.7196 0.0
H721 H 0.08703 0.64965 0.70965 0.0
H722 H 0.15811 0.74082 0.6755 0.0
H723 H 0.1913 0.838 0.6855 0.0
C724 C 0.07629 0.55505 0.67031 0.0
C725 C 0.09001 0.51778 0.67739 0.0
C726 C 0.08687 0.61077 0.67485 0.0
C727 C 0.11128 0.62995 0.68654 0.0
C728 C 0.12715 0.59358 0.69333 0.0
C729 C 0.11665 0.5384 0.68883 0.0
C730 C 0.12817 0.74559 0.70991 0.0
C731 C 0.15928 0.79953 0.70333 0.0
C732 C 0.10906 0.6903 0.70422 0.0
C733 C 0.12124 0.68767 0.69184 0.0
C734 C 0.14812 0.74134 0.68504 0.0
C735 C 0.16695 0.79691 0.69075 0.0
H736 H 0.43548 0.15895 0.88608 0.0
H737 H 0.37809 0.18512 0.85084 0.0
H738 H 0.49221 0.11792 0.87656 0.0
H739 H 0.4322 0.14013 0.84123 0.0
H740 H 0.60379 0.13514 0.82887 0.0
H741 H 0.53243 0.16365 0.83681 0.0
H742 H 0.48846 0.03677 0.86628 0.0
H743 H 0.56168 1.01086 0.85858 0.0
C744 C 0.43443 0.15535 0.87628 0.0
C745 C 0.40277 0.17617 0.86925 0.0
C746 C 0.46637 0.13084 0.87078 0.0
C747 C 0.46704 0.12551 0.85807 0.0
C748 C 0.43347 0.14422 0.85103 0.0
C749 C 0.40172 0.1693 0.85655 0.0
C750 C 0.57815 0.11298 0.83695 0.0
C751 C 0.58881 0.07153 0.84323 0.0
C752 C 0.53704 0.12905 0.8415 0.0
C753 C 0.50512 0.10328 0.85233 0.0
C754 C 0.51339 0.05901 0.85814 0.0
C755 C 0.55511 0.04383 0.85371 0.0
H756 H 0.62436 0.73967 0.82226 0.0
H757 H 0.67829 0.82586 0.85731 0.0
H758 H 0.56042 0.64301 0.83213 0.0
H759 H 0.61376 0.72844 0.86726 0.0
H760 H 0.50868 0.52224 0.87896 0.0
H761 H 0.58885 0.61727 0.87042 0.0
H762 H 0.46452 0.6132 0.84351 0.0
H763 H 0.38499 0.52049 0.85205 0.0
C764 C 0.62335 0.73767 0.8321 0.0
C765 C 0.6556 0.79041 0.83901 0.0
C766 C 0.58661 0.68238 0.83774 0.0
C767 C 0.58113 0.67841 0.85046 0.0
C768 C 0.6171 0.73019 0.85744 0.0
C769 C 0.6541 0.78585 0.85176 0.0
C770 C 0.49836 0.54187 0.87129 0.0
C771 C 0.44031 0.51271 0.86609 0.0
C772 C 0.54436 0.5962 0.86638 0.0
C773 C 0.53327 0.62196 0.85613 0.0
C774 C 0.47501 0.59362 0.85119 0.0
C775 C 0.42926 0.5401 0.85611 0.0
H776 H 0.99749 0.50643 0.04911 0.0
H777 H 0.8821 0.38686 1.02098 0.0
H778 H 0.98281 0.58741 0.04083 0.0
H779 H 0.86921 0.4671 1.01267 0.0
H780 H 0.91181 0.63102 0.99178 0.0
H781 H 0.94222 0.56652 1.00218 0.0
H782 H 0.89334 0.61028 0.03662 0.0
H783 H 0.86237 0.67508 0.02615 0.0
C784 C 0.96886 0.49722 0.04125 0.0
C785 C 0.94208 0.44036 0.03556 0.0
C786 C 0.96068 0.5436 0.03649 0.0
C787 C 0.92608 0.5339 0.02593 0.0
C788 C 0.89757 0.47648 1.02061 0.0
C789 C 0.90515 0.43041 0.02538 0.0
C790 C 0.90858 0.62783 1.0016 0.0
C791 C 0.88383 0.65736 1.00813 0.0
C792 C 0.9259 0.59084 1.00754 0.0
C793 C 0.91903 0.5825 1.02018 0.0
C794 C 0.89908 0.61591 0.02688 0.0
C795 C 0.88153 0.65307 1.02088 0.0
H796 H 0.55076 1.00867 0.19774 0.0
H797 H 0.43062 0.85515 0.21952 0.0
H798 H 0.46368 1.00378 0.18728 0.0
H799 H 0.34413 0.84979 0.20916 0.0
H800 H 0.29801 0.89431 0.1605 0.0
H801 H 0.38901 0.92871 0.17266 0.0
H802 H 0.28517 0.90057 0.20537 0.0
H803 H 0.19386 0.86516 0.19318 0.0
C804 C 0.50572 0.97475 0.20044 0.0
C805 C 0.49728 0.9319 0.20932 0.0
C806 C 0.45597 0.97165 0.19442 0.0
C807 C 0.39696 0.92629 0.19737 0.0
C808 C 0.3888 0.88567 0.20674 0.0
C809 C 0.43833 0.88829 0.2126 0.0
C810 C 0.29486 0.89655 0.17028 0.0
C811 C 0.23866 0.87633 0.17589 0.0
C812 C 0.3471 0.91675 0.17725 0.0
C813 C 0.34423 0.91678 0.18999 0.0
C814 C 0.2887 0.90042 0.19557 0.0
C815 C 0.23649 0.88063 0.18859 0.0
H816 H 0.53771 0.55532 0.35772 0.0
H817 H 0.60361 0.47069 0.38227 0.0
H818 H 0.46103 0.45687 0.35025 0.0
H819 H 0.5299 0.37187 0.37433 0.0
H820 H 0.38122 0.19566 0.36127 0.0
H821 H 0.43307 0.29249 0.37177 0.0
H822 H 0.45577 0.38372 0.33742 0.0
H823 H 0.40053 0.28667 0.32725 0.0
C824 C 0.53527 0.51521 0.36153 0.0
C825 C 0.57642 0.52017 0.37049 0.0
C826 C 0.49182 0.45876 0.35719 0.0
C827 C 0.48957 0.40589 0.36146 0.0
C828 C 0.52933 0.41109 0.37087 0.0
C829 C 0.57188 0.46767 0.37542 0.0
C830 C 0.39611 0.23668 0.3561 0.0
C831 C 0.38683 0.23408 0.3435 0.0
C832 C 0.42649 0.29224 0.36206 0.0
C833 C 0.44964 0.34652 0.35549 0.0
C834 C 0.43798 0.34334 0.3429 0.0
C835 C 0.40645 0.2877 0.337 0.0
H836 H 0.19228 0.58752 0.55351 0.0
H837 H 0.03857 0.55383 0.53182 0.0
H838 H 0.19631 0.50493 0.54343 0.0
H839 H 0.04239 0.47049 0.52157 0.0
H840 H 0.15564 0.41676 0.49496 0.0
H841 H 0.11972 0.47243 0.50702 0.0
H842 H 0.143 0.39358 0.53976 0.0
H843 H 0.17937 0.33808 0.52765 0.0
C844 C 0.15878 0.56163 0.54668 0.0
C845 C 0.11551 0.57724 0.54333 0.0
C846 C 0.16065 0.51396 0.54099 0.0
C847 C 0.11971 0.48119 0.53169 0.0
C848 C 0.07464 0.49511 0.52869 0.0
C849 C 0.07221 0.54242 0.53456 0.0
C850 C 0.15171 0.41029 0.50471 0.0
C851 C 0.17086 0.37362 0.51039 0.0
C852 C 0.13073 0.44182 0.51161 0.0
C853 C 0.12906 0.43783 0.52435 0.0
C854 C 0.14431 0.39793 0.52996 0.0
C855 C 0.1647 0.36583 0.52304 0.0
H856 H 0.55777 0.09909 0.71179 0.0
H857 H 0.46384 1.0131 0.67867 0.0
H858 H 0.65316 0.12135 0.70236 0.0
H859 H 0.55889 0.03584 0.66925 0.0
H860 H 0.74367 0.18291 0.65321 0.0
H861 H 0.64494 0.13572 0.66296 0.0
H862 H 0.71421 0.07828 0.6927 0.0
H863 H 0.81346 0.12553 0.68277 0.0
C864 C 0.55725 0.0838 0.70261 0.0
C865 C 0.50335 0.05537 0.6959 0.0
C866 C 0.61187 0.09649 0.6972 0.0
C867 C 0.61351 0.08101 0.68501 0.0
C868 C 0.55914 0.04928 0.67858 0.0
C869 C 0.50474 0.0365 0.68397 0.0
C870 C 0.73727 0.15896 0.66169 0.0
C871 C 0.78567 0.15736 0.66724 0.0
C872 C 0.68085 0.13185 0.66727 0.0
C873 C 0.67186 0.10332 0.67861 0.0
C874 C 0.71996 0.10015 0.68399 0.0
C875 C 0.7764 0.12659 0.67829 0.0
H876 H 0.87824 0.51501 0.13918 0.0
H877 H 0.95337 0.62619 0.10744 0.0
H878 H 0.84898 0.42472 0.12684 0.0
H879 H 0.92371 0.53697 0.09508 0.0
H880 H 0.94675 0.33362 0.10559 0.0
H881 H 0.91929 0.39483 0.11801 0.0
H882 H 0.85061 0.43871 0.08616 0.0
H883 H 0.87815 0.37667 0.07375 0.0
C884 C 0.88569 0.51988 0.12946 0.0
C885 C 0.91764 0.57748 0.12423 0.0
C886 C 0.86956 0.46826 0.1224 0.0
C887 C 0.88443 0.47342 0.10995 0.0
C888 C 0.91082 0.53087 0.10457 0.0
C889 C 0.92777 0.58223 0.11165 0.0
C890 C 0.92273 0.35366 0.10137 0.0
C891 C 0.91372 0.34966 0.08876 0.0
C892 C 0.90711 0.38905 0.10849 0.0
C893 C 0.88326 0.4224 0.10309 0.0
C894 C 0.86923 0.41396 0.0906 0.0
C895 C 0.88419 0.37775 0.08351 0.0
H896 H 0.54773 0.87307 0.24533 0.0
H897 H 0.65285 0.96524 0.27692 0.0
H898 H 0.45502 0.84589 0.25657 0.0
H899 H 0.56067 0.937 0.28825 0.0
H900 H 0.39018 0.88048 0.30762 0.0
H901 H 0.4593 0.85684 0.29677 0.0
H902 H 0.42223 0.92064 0.26341 0.0
H903 H 0.35477 0.94562 0.27434 0.0
C904 C 0.55096 0.88486 0.25485 0.0
C905 C 0.60762 0.92089 0.26028 0.0
C906 C 0.49783 0.86985 0.26126 0.0
C907 C 0.50032 0.8895 0.27331 0.0
C908 C 0.55687 0.92051 0.27905 0.0
C909 C 0.60984 0.93662 0.27257 0.0
C910 C 0.39451 0.88655 0.29786 0.0
C911 C 0.36639 0.91407 0.29178 0.0
C912 C 0.43467 0.87367 0.29166 0.0
C913 C 0.44672 0.88725 0.27923 0.0
C914 C 0.41362 0.90895 0.27294 0.0
C915 C 0.37453 0.92292 0.27918 0.0
H916 H 0.41748 0.33983 0.44168 0.0
H917 H 0.5339 0.38097 0.47271 0.0
H918 H 0.5045 0.39895 0.42872 0.0
H919 H 0.62194 0.44101 0.45975 0.0
H920 H 0.66153 0.51455 0.40643 0.0
H921 H 0.60151 0.42541 0.41912 0.0
H922 H 0.64946 0.53958 0.45082 0.0
H923 H 0.70853 0.6277 0.43813 0.0
C924 C 0.46214 0.35907 0.4456 0.0
C925 C 0.46904 0.35517 0.45815 0.0
C926 C 0.51223 0.39322 0.43817 0.0
C927 C 0.57046 0.42543 0.44318 0.0
C928 C 0.57775 0.41714 0.4556 0.0
C929 C 0.52744 0.38214 0.46301 0.0
C930 C 0.66165 0.51998 0.41619 0.0
C931 C 0.69022 0.57786 0.42134 0.0
C932 C 0.62665 0.46906 0.42346 0.0
C933 C 0.62001 0.47519 0.43601 0.0
C934 C 0.65385 0.53273 0.44125 0.0
C935 C 0.68799 0.58344 0.43398 0.0
H936 H 0.18685 0.69 0.57929 0.0
H937 H 0.095 0.70752 0.61043 0.0
H938 H 0.21655 0.62852 0.5913 0.0
H939 H 0.12495 0.64719 0.62247 0.0
H940 H 0.17096 0.53117 0.64301 0.0
H941 H 0.1993 0.62423 0.63184 0.0
H942 H 0.14673 0.52367 0.59828 0.0
H943 H 0.11779 0.43123 0.6095 0.0
C944 C 0.17592 0.68358 0.58888 0.0
C945 C 0.13923 0.70416 0.59398 0.0
C946 C 0.19222 0.64764 0.59573 0.0
C947 C 0.17277 0.63234 0.60785 0.0
C948 C 0.14142 0.65841 0.61324 0.0
C949 C 0.12433 0.6933 0.60635 0.0
C950 C 0.16858 0.5296 0.63319 0.0
C951 C 0.14272 0.474 0.62711 0.0
C952 C 0.1841 0.58284 0.62679 0.0
C953 C 0.17454 0.58149 0.61416 0.0
C954 C 0.15529 0.52681 0.60796 0.0
C955 C 0.13903 0.47364 0.61438 0.0
H956 H 0.53141 0.07805 0.73748 0.0
H957 H 0.45459 0.15946 0.76012 0.0
H958 H 0.61298 0.10688 0.75181 0.0
H959 H 0.53766 0.18995 0.77463 0.0
H960 H 0.60698 0.104 0.80391 0.0
H961 H 0.55536 0.13017 0.78878 0.0
H962 H 0.69947 0.17228 0.76332 0.0
H963 H 0.75044 0.14413 0.77862 0.0
C964 C 0.53359 0.10465 0.74531 0.0
C965 C 0.48677 0.11665 0.74766 0.0
C966 C 0.58069 0.12146 0.75358 0.0
C967 C 0.58202 0.15025 0.76455 0.0
C968 C 0.53783 0.16708 0.76638 0.0
C969 C 0.4906 0.15043 0.758 0.0
C970 C 0.62912 0.12159 0.79528 0.0
C971 C 0.68304 0.12248 0.7925 0.0
C972 C 0.59934 0.13667 0.78653 0.0
C973 C 0.6224 0.15244 0.77466 0.0
C974 C 0.67967 0.1593 0.77227 0.0
C975 C 0.70955 0.14417 0.7811 0.0
H976 H 0.60646 0.73637 0.94835 0.0
H977 H 0.52097 0.58604 0.973 0.0
H978 H 0.52322 0.68269 0.93393 0.0
H979 H 0.43943 0.53219 0.95879 0.0
H980 H 0.30182 0.42798 0.93189 0.0
H981 H 0.35522 0.51012 0.94656 0.0
H982 H 0.50208 0.60062 0.92106 0.0
H983 H 0.44817 0.52004 0.90657 0.0
C984 C 0.56861 0.69312 0.95092 0.0
C985 C 0.57006 0.66568 0.96184 0.0
C986 C 0.52124 0.66177 0.94259 0.0
C987 C 0.4746 0.60229 0.94503 0.0
C988 C 0.47365 0.57779 0.95651 0.0
C989 C 0.5208 0.60888 0.96474 0.0
C990 C 0.34411 0.46699 0.92927 0.0
C991 C 0.3707 0.4678 0.91808 0.0
C992 C 0.37533 0.51375 0.93772 0.0
C993 C 0.43384 0.56197 0.93516 0.0
C994 C 0.45725 0.56509 0.92345 0.0
C995 C 0.42623 0.51856 0.91508 0.0
loop_
_geom_bond_atom_site_label_1
_geom_bond_atom_site_label_2
_geom_bond_distance
_geom_bond_site_symmetry_2
_ccdc_geom_bond_type
C0 C1 1.351 . S
C0 N3 1.368 . S
C0 H5 0.931 . S
C1 C0 1.351 . S
C1 N2 1.373 . S
C1 H29 0.930 . S
N2 C1 1.373 . S
N2 C4 1.340 . S
N3 C0 1.368 . S
N3 C4 1.321 . S
N3 Co6 2.135 1_455 S
C4 N2 1.340 . S
C4 N3 1.321 . S
C4 H28 0.930 1_455 S
H5 C0 0.931 . S
Co6 N3 2.135 1_655 S
Co6 N9 2.121 . S
Co6 O14 2.055 . S
Co6 O17 2.039 . S
Co6 N20 2.140 1_655 S
C7 O8 1.227 . S
C7 O17 1.265 . S
O8 C7 1.227 . S
N9 Co6 2.121 . S
N9 C11 1.375 . S
N9 C12 1.313 . S
C10 C11 1.338 . S
C10 N13 1.377 . S
C10 H30 0.930 1_554 S
C11 N9 1.375 . S
C11 C10 1.338 . S
C11 H15 0.931 . S
C12 N9 1.313 . S
C12 N13 1.344 . S
C12 H16 0.930 . S
N13 C10 1.377 . S
N13 C12 1.344 . S
O14 Co6 2.055 . S
O14 C18 1.253 . S
H15 C11 0.931 . S
H16 C12 0.930 . S
O17 Co6 2.039 . S
O17 C7 1.265 . S
C18 O14 1.253 . S
C18 O19 1.227 1_655 S
O19 C18 1.227 1_455 S
N20 Co6 2.140 1_455 S
N20 C23 1.346 . S
N20 C24 1.345 . S
C21 C22 1.387 . S
C21 C25 1.391 . S
C22 C21 1.387 . S
C22 C23 1.369 . S
C22 H31 0.929 . S
C23 N20 1.346 . S
C23 C22 1.369 . S
C23 H26 0.928 . S
C24 N20 1.345 . S
C24 C25 1.371 . S
C24 H27 0.931 . S
C25 C21 1.391 . S
C25 C24 1.371 . S
C25 H32 0.930 . S
H26 C23 0.928 . S
H27 C24 0.931 . S
H28 C4 0.930 1_655 S
H29 C1 0.930 . S
H30 C10 0.930 1_556 S
H31 C22 0.929 . S
H32 C25 0.930 . S
C33 C34 1.351 . S
C33 N36 1.368 . S
C33 H38 0.931 . S
C34 C33 1.351 . S
C34 N35 1.373 . S
C34 H62 0.930 . S
N35 C34 1.373 . S
N35 C37 1.340 . S
N36 C33 1.368 . S
N36 C37 1.321 . S
N36 Co39 2.135 1_545 S
C37 N35 1.340 . S
C37 N36 1.321 . S
C37 H61 0.930 1_545 S
H38 C33 0.931 . S
Co39 N36 2.135 1_565 S
Co39 N42 2.121 . S
Co39 O47 2.055 . S
Co39 O50 2.039 . S
Co39 N53 2.140 1_565 S
C40 O41 1.227 . S
C40 O50 1.265 . S
O41 C40 1.227 . S
N42 Co39 2.121 . S
N42 C44 1.375 . S
N42 C45 1.313 . S
C43 C44 1.338 . S
C43 N46 1.377 . S
C43 H63 0.930 . S
C44 N42 1.375 . S
C44 C43 1.338 . S
C44 H48 0.931 . S
C45 N42 1.313 . S
C45 N46 1.344 . S
C45 H49 0.930 . S
N46 C43 1.377 . S
N46 C45 1.344 . S
O47 Co39 2.055 . S
O47 C51 1.253 . S
H48 C44 0.931 . S
H49 C45 0.930 . S
O50 Co39 2.039 . S
O50 C40 1.265 . S
C51 O47 1.253 . S
C51 O52 1.227 1_565 S
O52 C51 1.227 1_545 S
N53 Co39 2.140 1_545 S
N53 C56 1.346 . S
N53 C57 1.345 . S
C54 C55 1.387 . S
C54 C58 1.391 . S
C55 C54 1.387 . S
C55 C56 1.369 . S
C55 H64 0.929 . S
C56 N53 1.346 . S
C56 C55 1.369 . S
C56 H59 0.928 . S
C57 N53 1.345 . S
C57 C58 1.371 . S
C57 H60 0.931 . S
C58 C54 1.391 . S
C58 C57 1.371 . S
C58 H65 0.930 . S
H59 C56 0.928 . S
H60 C57 0.931 . S
H61 C37 0.930 1_565 S
H62 C34 0.930 . S
H63 C43 0.930 . S
H64 C55 0.929 . S
H65 C58 0.930 . S
C66 C67 1.351 . S
C66 N69 1.368 . S
C66 H71 0.931 . S
C67 C66 1.351 . S
C67 N68 1.373 . S
C67 H95 0.930 . S
N68 C67 1.373 . S
N68 C70 1.340 . S
N69 C66 1.368 . S
N69 C70 1.321 . S
N69 Co72 2.135 . S
C70 N68 1.340 . S
C70 N69 1.321 . S
C70 H94 0.930 . S
H71 C66 0.931 . S
Co72 N69 2.135 . S
Co72 N75 2.121 . S
Co72 O80 2.055 . S
Co72 O83 2.039 . S
Co72 N86 2.140 . S
C73 O74 1.227 . S
C73 O83 1.265 . S
O74 C73 1.227 . S
N75 Co72 2.121 . S
N75 C77 1.375 . S
N75 C78 1.313 . S
C76 C77 1.338 . S
C76 N79 1.377 . S
C76 H96 0.930 . S
C77 N75 1.375 . S
C77 C76 1.338 . S
C77 H81 0.931 . S
C78 N75 1.313 . S
C78 N79 1.344 . S
C78 H82 0.930 . S
N79 C76 1.377 . S
N79 C78 1.344 . S
O80 Co72 2.055 . S
O80 C84 1.253 . S
H81 C77 0.931 . S
H82 C78 0.930 . S
O83 Co72 2.039 . S
O83 C73 1.265 . S
C84 O80 1.253 . S
C84 O85 1.227 . S
O85 C84 1.227 . S
N86 Co72 2.140 . S
N86 C89 1.346 . S
N86 C90 1.345 . S
C87 C88 1.387 . S
C87 C91 1.391 . S
C88 C87 1.387 . S
C88 C89 1.369 . S
C88 H97 0.929 . S
C89 N86 1.346 . S
C89 C88 1.369 . S
C89 H92 0.928 . S
C90 N86 1.345 . S
C90 C91 1.371 . S
C90 H93 0.931 . S
C91 C87 1.391 . S
C91 C90 1.371 . S
C91 H98 0.930 . S
H92 C89 0.928 . S
H93 C90 0.931 . S
H94 C70 0.930 . S
H95 C67 0.930 . S
H96 C76 0.930 . S
H97 C88 0.929 . S
H98 C91 0.930 . S
C99 C100 1.351 . S
C99 N102 1.368 . S
C99 H104 0.931 . S
C100 C99 1.351 . S
C100 N101 1.373 . S
C100 H128 0.930 . S
N101 C100 1.373 . S
N101 C103 1.340 . S
N102 C99 1.368 . S
N102 C103 1.321 . S
N102 Co105 2.135 1_655 S
C103 N101 1.340 . S
C103 N102 1.321 . S
C103 H127 0.930 1_655 S
H104 C99 0.931 . S
Co105 N102 2.135 1_455 S
Co105 N108 2.121 . S
Co105 O113 2.055 . S
Co105 O116 2.039 . S
Co105 N119 2.140 1_455 S
C106 O107 1.227 . S
C106 O116 1.265 . S
O107 C106 1.227 . S
N108 Co105 2.121 . S
N108 C110 1.375 . S
N108 C111 1.313 . S
C109 C110 1.338 . S
C109 N112 1.377 . S
C109 H129 0.930 . S
C110 N108 1.375 . S
C110 C109 1.338 . S
C110 H114 0.931 . S
C111 N108 1.313 . S
C111 N112 1.344 . S
C111 H115 0.930 . S
N112 C109 1.377 . S
N112 C111 1.344 . S
O113 Co105 2.055 . S
O113 C117 1.253 . S
H114 C110 0.931 . S
H115 C111 0.930 . S
O116 Co105 2.039 . S
O116 C106 1.265 . S
C117 O113 1.253 . S
C117 O118 1.227 1_455 S
O118 C117 1.227 1_655 S
N119 Co105 2.140 1_655 S
N119 C122 1.346 . S
N119 C123 1.345 . S
C120 C121 1.387 . S
C120 C124 1.391 . S
C121 C120 1.387 . S
C121 C122 1.369 . S
C121 H130 0.929 . S
C122 N119 1.346 . S
C122 C121 1.369 . S
C122 H125 0.928 . S
C123 N119 1.345 . S
C123 C124 1.371 . S
C123 H126 0.931 . S
C124 C120 1.391 . S
C124 C123 1.371 . S
C124 H131 0.930 . S
H125 C122 0.928 . S
H126 C123 0.931 . S
H127 C103 0.930 1_455 S
H128 C100 0.930 . S
H129 C109 0.930 . S
H130 C121 0.929 . S
H131 C124 0.930 . S
C132 C133 1.351 . S
C132 N135 1.368 . S
C132 H137 0.931 . S
C133 C132 1.351 . S
C133 N134 1.373 . S
C133 H161 0.930 . S
N134 C133 1.373 . S
N134 C136 1.340 . S
N135 C132 1.368 . S
N135 C136 1.321 . S
N135 Co138 2.135 1_565 S
C136 N134 1.340 . S
C136 N135 1.321 . S
C136 H160 0.930 1_565 S
H137 C132 0.931 . S
Co138 N135 2.135 1_545 S
Co138 N141 2.121 . S
Co138 O146 2.055 . S
Co138 O149 2.039 . S
Co138 N152 2.140 1_545 S
C139 O140 1.227 . S
C139 O149 1.265 . S
O140 C139 1.227 . S
N141 Co138 2.121 . S
N141 C143 1.375 . S
N141 C144 1.313 . S
C142 C143 1.338 . S
C142 N145 1.377 . S
C142 H162 0.930 . S
C143 N141 1.375 . S
C143 C142 1.338 . S
C143 H147 0.931 . S
C144 N141 1.313 . S
C144 N145 1.344 . S
C144 H148 0.930 . S
N145 C142 1.377 . S
N145 C144 1.344 . S
O146 Co138 2.055 . S
O146 C150 1.253 . S
H147 C143 0.931 . S
H148 C144 0.930 . S
O149 Co138 2.039 . S
O149 C139 1.265 . S
C150 O146 1.253 . S
C150 O151 1.227 1_545 S
O151 C150 1.227 1_565 S
N152 Co138 2.140 1_565 S
N152 C155 1.346 . S
N152 C156 1.345 . S
C153 C154 1.387 . S
C153 C157 1.391 . S
C154 C153 1.387 . S
C154 C155 1.369 . S
C154 H163 0.929 . S
C155 N152 1.346 . S
C155 C154 1.369 . S
C155 H158 0.928 . S
C156 N152 1.345 . S
C156 C157 1.371 . S
C156 H159 0.931 . S
C157 C153 1.391 . S
C157 C156 1.371 . S
C157 H164 0.930 . S
H158 C155 0.928 . S
H159 C156 0.931 . S
H160 C136 0.930 1_545 S
H161 C133 0.930 . S
H162 C142 0.930 . S
H163 C154 0.929 . S
H164 C157 0.930 . S
C165 C166 1.351 . S
C165 N168 1.368 . S
C165 H170 0.931 . S
C166 C165 1.351 . S
C166 N167 1.373 . S
C166 H194 0.930 . S
N167 C166 1.373 . S
N167 C169 1.340 . S
N168 C165 1.368 . S
N168 C169 1.321 . S
N168 Co171 2.135 . S
C169 N167 1.340 . S
C169 N168 1.321 . S
C169 H193 0.930 . S
H170 C165 0.931 . S
Co171 N168 2.135 . S
Co171 N174 2.121 . S
Co171 O179 2.055 . S
Co171 O182 2.039 . S
Co171 N185 2.140 . S
C172 O173 1.227 . S
C172 O182 1.265 . S
O173 C172 1.227 . S
N174 Co171 2.121 . S
N174 C176 1.375 . S
N174 C177 1.313 . S
C175 C176 1.338 . S
C175 N178 1.377 . S
C175 H195 0.930 . S
C176 N174 1.375 . S
C176 C175 1.338 . S
C176 H180 0.931 . S
C177 N174 1.313 . S
C177 N178 1.344 . S
C177 H181 0.930 . S
N178 C175 1.377 . S
N178 C177 1.344 . S
O179 Co171 2.055 . S
O179 C183 1.253 . S
H180 C176 0.931 . S
H181 C177 0.930 . S
O182 Co171 2.039 . S
O182 C172 1.265 . S
C183 O179 1.253 . S
C183 O184 1.227 . S
O184 C183 1.227 . S
N185 Co171 2.140 . S
N185 C188 1.346 . S
N185 C189 1.345 . S
C186 C187 1.387 . S
C186 C190 1.391 . S
C187 C186 1.387 . S
C187 C188 1.369 . S
C187 H196 0.929 . S
C188 N185 1.346 . S
C188 C187 1.369 . S
C188 H191 0.928 . S
C189 N185 1.345 . S
C189 C190 1.371 . S
C189 H192 0.931 . S
C190 C186 1.391 . S
C190 C189 1.371 . S
C190 H197 0.930 . S
H191 C188 0.928 . S
H192 C189 0.931 . S
H193 C169 0.930 . S
H194 C166 0.930 . S
H195 C175 0.930 . S
H196 C187 0.929 . S
H197 C190 0.930 . S
C198 C199 1.351 . S
C198 N201 1.368 . S
C198 H203 0.931 . S
C199 C198 1.351 . S
C199 N200 1.373 . S
C199 H227 0.930 . S
N200 C199 1.373 . S
N200 C202 1.340 . S
N201 C198 1.368 . S
N201 C202 1.321 . S
N201 Co204 2.135 1_565 S
C202 N200 1.340 . S
C202 N201 1.321 . S
C202 H226 0.930 1_565 S
H203 C198 0.931 . S
Co204 N201 2.135 1_545 S
Co204 N207 2.121 . S
Co204 O212 2.055 . S
Co204 O215 2.039 . S
Co204 N218 2.140 1_545 S
C205 O206 1.227 . S
C205 O215 1.265 . S
O206 C205 1.227 . S
N207 Co204 2.121 . S
N207 C209 1.375 . S
N207 C210 1.313 . S
C208 C209 1.338 . S
C208 N211 1.377 . S
C208 H228 0.930 . S
C209 N207 1.375 . S
C209 C208 1.338 . S
C209 H213 0.931 . S
C210 N207 1.313 . S
C210 N211 1.344 . S
C210 H214 0.930 . S
N211 C208 1.377 . S
N211 C210 1.344 . S
O212 Co204 2.055 . S
O212 C216 1.253 . S
H213 C209 0.931 . S
H214 C210 0.930 . S
O215 Co204 2.039 . S
O215 C205 1.265 . S
C216 O212 1.253 . S
C216 O217 1.227 1_545 S
O217 C216 1.227 1_565 S
N218 Co204 2.140 1_565 S
N218 C221 1.346 . S
N218 C222 1.345 . S
C219 C220 1.387 . S
C219 C223 1.391 . S
C220 C219 1.387 . S
C220 C221 1.369 . S
C220 H229 0.929 . S
C221 N218 1.346 . S
C221 C220 1.369 . S
C221 H224 0.928 . S
C222 N218 1.345 . S
C222 C223 1.371 . S
C222 H225 0.931 . S
C223 C219 1.391 . S
C223 C222 1.371 . S
C223 H230 0.930 . S
H224 C221 0.928 . S
H225 C222 0.931 . S
H226 C202 0.930 1_545 S
H227 C199 0.930 . S
H228 C208 0.930 . S
H229 C220 0.929 . S
H230 C223 0.930 . S
C231 C232 1.351 . S
C231 N234 1.368 . S
C231 H236 0.931 . S
C232 C231 1.351 . S
C232 N233 1.373 . S
C232 H260 0.930 . S
N233 C232 1.373 . S
N233 C235 1.340 . S
N234 C231 1.368 . S
N234 C235 1.321 . S
N234 Co237 2.135 . S
C235 N233 1.340 . S
C235 N234 1.321 . S
C235 H259 0.930 . S
H236 C231 0.931 . S
Co237 N234 2.135 . S
Co237 N240 2.121 . S
Co237 O245 2.055 . S
Co237 O248 2.039 . S
Co237 N251 2.140 . S
C238 O239 1.227 . S
C238 O248 1.265 . S
O239 C238 1.227 . S
N240 Co237 2.121 . S
N240 C242 1.375 . S
N240 C243 1.313 . S
C241 C242 1.338 . S
C241 N244 1.377 . S
C241 H261 0.930 1_556 S
C242 N240 1.375 . S
C242 C241 1.338 . S
C242 H246 0.931 . S
C243 N240 1.313 . S
C243 N244 1.344 . S
C243 H247 0.930 . S
N244 C241 1.377 . S
N244 C243 1.344 . S
O245 Co237 2.055 . S
O245 C249 1.253 . S
H246 C242 0.931 . S
H247 C243 0.930 . S
O248 Co237 2.039 . S
O248 C238 1.265 . S
C249 O245 1.253 . S
C249 O250 1.227 . S
O250 C249 1.227 . S
N251 Co237 2.140 . S
N251 C254 1.346 . S
N251 C255 1.345 . S
C252 C253 1.387 . S
C252 C256 1.391 . S
C253 C252 1.387 . S
C253 C254 1.369 . S
C253 H262 0.929 . S
C254 N251 1.346 . S
C254 C253 1.369 . S
C254 H257 0.928 . S
C255 N251 1.345 . S
C255 C256 1.371 . S
C255 H258 0.931 . S
C256 C252 1.391 . S
C256 C255 1.371 . S
C256 H263 0.930 . S
H257 C254 0.928 . S
H258 C255 0.931 . S
H259 C235 0.930 . S
H260 C232 0.930 . S
H261 C241 0.930 1_554 S
H262 C253 0.929 . S
H263 C256 0.930 . S
C264 C265 1.351 . S
C264 N267 1.368 . S
C264 H269 0.931 . S
C265 C264 1.351 . S
C265 N266 1.373 . S
C265 H293 0.930 . S
N266 C265 1.373 . S
N266 C268 1.340 . S
N267 C264 1.368 . S
N267 C268 1.321 . S
N267 Co270 2.135 1_455 S
C268 N266 1.340 . S
C268 N267 1.321 . S
C268 H292 0.930 1_455 S
H269 C264 0.931 . S
Co270 N267 2.135 1_655 S
Co270 N273 2.121 . S
Co270 O278 2.055 . S
Co270 O281 2.039 . S
Co270 N284 2.140 1_655 S
C271 O272 1.227 . S
C271 O281 1.265 . S
O272 C271 1.227 . S
N273 Co270 2.121 . S
N273 C275 1.375 . S
N273 C276 1.313 . S
C274 C275 1.338 . S
C274 N277 1.377 . S
C274 H294 0.930 . S
C275 N273 1.375 . S
C275 C274 1.338 . S
C275 H279 0.931 . S
C276 N273 1.313 . S
C276 N277 1.344 . S
C276 H280 0.930 . S
N277 C274 1.377 . S
N277 C276 1.344 . S
O278 Co270 2.055 . S
O278 C282 1.253 . S
H279 C275 0.931 . S
H280 C276 0.930 . S
O281 Co270 2.039 . S
O281 C271 1.265 . S
C282 O278 1.253 . S
C282 O283 1.227 1_655 S
O283 C282 1.227 1_455 S
N284 Co270 2.140 1_455 S
N284 C287 1.346 . S
N284 C288 1.345 . S
C285 C286 1.387 . S
C285 C289 1.391 . S
C286 C285 1.387 . S
C286 C287 1.369 . S
C286 H295 0.929 . S
C287 N284 1.346 . S
C287 C286 1.369 . S
C287 H290 0.928 . S
C288 N284 1.345 . S
C288 C289 1.371 . S
C288 H291 0.931 . S
C289 C285 1.391 . S
C289 C288 1.371 . S
C289 H296 0.930 . S
H290 C287 0.928 . S
H291 C288 0.931 . S
H292 C268 0.930 1_655 S
H293 C265 0.930 . S
H294 C274 0.930 . S
H295 C286 0.929 . S
H296 C289 0.930 . S
C297 C298 1.351 . S
C297 N300 1.368 . S
C297 H302 0.931 . S
C298 C297 1.351 . S
C298 N299 1.373 . S
C298 H326 0.930 . S
N299 C298 1.373 . S
N299 C301 1.340 . S
N300 C297 1.368 . S
N300 C301 1.321 . S
N300 Co303 2.135 1_545 S
C301 N299 1.340 . S
C301 N300 1.321 . S
C301 H325 0.930 1_545 S
H302 C297 0.931 . S
Co303 N300 2.135 1_565 S
Co303 N306 2.121 . S
Co303 O311 2.055 . S
Co303 O314 2.039 . S
Co303 N317 2.140 1_565 S
C304 O305 1.227 . S
C304 O314 1.265 . S
O305 C304 1.227 . S
N306 Co303 2.121 . S
N306 C308 1.375 . S
N306 C309 1.313 . S
C307 C308 1.338 . S
C307 N310 1.377 . S
C307 H327 0.930 . S
C308 N306 1.375 . S
C308 C307 1.338 . S
C308 H312 0.931 . S
C309 N306 1.313 . S
C309 N310 1.344 . S
C309 H313 0.930 . S
N310 C307 1.377 . S
N310 C309 1.344 . S
O311 Co303 2.055 . S
O311 C315 1.253 . S
H312 C308 0.931 . S
H313 C309 0.930 . S
O314 Co303 2.039 . S
O314 C304 1.265 . S
C315 O311 1.253 . S
C315 O316 1.227 1_565 S
O316 C315 1.227 1_545 S
N317 Co303 2.140 1_545 S
N317 C320 1.346 . S
N317 C321 1.345 . S
C318 C319 1.387 . S
C318 C322 1.391 . S
C319 C318 1.387 . S
C319 C320 1.369 . S
C319 H328 0.929 . S
C320 N317 1.346 . S
C320 C319 1.369 . S
C320 H323 0.928 . S
C321 N317 1.345 . S
C321 C322 1.371 . S
C321 H324 0.931 . S
C322 C318 1.391 . S
C322 C321 1.371 . S
C322 H329 0.930 . S
H323 C320 0.928 . S
H324 C321 0.931 . S
H325 C301 0.930 1_565 S
H326 C298 0.930 . S
H327 C307 0.930 . S
H328 C319 0.929 . S
H329 C322 0.930 . S
C330 C331 1.351 . S
C330 N333 1.368 . S
C330 H335 0.931 . S
C331 C330 1.351 . S
C331 N332 1.373 . S
C331 H359 0.930 . S
N332 C331 1.373 . S
N332 C334 1.340 . S
N333 C330 1.368 . S
N333 C334 1.321 . S
N333 Co336 2.135 . S
C334 N332 1.340 . S
C334 N333 1.321 . S
C334 H358 0.930 . S
H335 C330 0.931 . S
Co336 N333 2.135 . S
Co336 N339 2.121 . S
Co336 O344 2.055 . S
Co336 O347 2.039 . S
Co336 N350 2.140 . S
C337 O338 1.227 . S
C337 O347 1.265 . S
O338 C337 1.227 . S
N339 Co336 2.121 . S
N339 C341 1.375 . S
N339 C342 1.313 . S
C340 C341 1.338 . S
C340 N343 1.377 . S
C340 H360 0.930 . S
C341 N339 1.375 . S
C341 C340 1.338 . S
C341 H345 0.931 . S
C342 N339 1.313 . S
C342 N343 1.344 . S
C342 H346 0.930 . S
N343 C340 1.377 . S
N343 C342 1.344 . S
O344 Co336 2.055 . S
O344 C348 1.253 . S
H345 C341 0.931 . S
H346 C342 0.930 . S
O347 Co336 2.039 . S
O347 C337 1.265 . S
C348 O344 1.253 . S
C348 O349 1.227 . S
O349 C348 1.227 . S
N350 Co336 2.140 . S
N350 C353 1.346 . S
N350 C354 1.345 . S
C351 C352 1.387 . S
C351 C355 1.391 . S
C352 C351 1.387 . S
C352 C353 1.369 . S
C352 H361 0.929 . S
C353 N350 1.346 . S
C353 C352 1.369 . S
C353 H356 0.928 . S
C354 N350 1.345 . S
C354 C355 1.371 . S
C354 H357 0.931 . S
C355 C351 1.391 . S
C355 C354 1.371 . S
C355 H362 0.930 . S
H356 C353 0.928 . S
H357 C354 0.931 . S
H358 C334 0.930 . S
H359 C331 0.930 . S
H360 C340 0.930 . S
H361 C352 0.929 . S
H362 C355 0.930 . S
C363 C364 1.351 . S
C363 N366 1.368 . S
C363 H368 0.931 . S
C364 C363 1.351 . S
C364 N365 1.373 . S
C364 H392 0.930 . S
N365 C364 1.373 . S
N365 C367 1.340 . S
N366 C363 1.368 . S
N366 C367 1.321 . S
N366 Co369 2.135 1_655 S
C367 N365 1.340 . S
C367 N366 1.321 . S
C367 H391 0.930 1_655 S
H368 C363 0.931 . S
Co369 N366 2.135 1_455 S
Co369 N372 2.121 . S
Co369 O377 2.055 . S
Co369 O380 2.039 . S
Co369 N383 2.140 1_455 S
C370 O371 1.227 . S
C370 O380 1.265 . S
O371 C370 1.227 . S
N372 Co369 2.121 . S
N372 C374 1.375 . S
N372 C375 1.313 . S
C373 C374 1.338 . S
C373 N376 1.377 . S
C373 H393 0.930 . S
C374 N372 1.375 . S
C374 C373 1.338 . S
C374 H378 0.931 . S
C375 N372 1.313 . S
C375 N376 1.344 . S
C375 H379 0.930 . S
N376 C373 1.377 . S
N376 C375 1.344 . S
O377 Co369 2.055 . S
O377 C381 1.253 . S
H378 C374 0.931 . S
H379 C375 0.930 . S
O380 Co369 2.039 . S
O380 C370 1.265 . S
C381 O377 1.253 . S
C381 O382 1.227 1_455 S
O382 C381 1.227 1_655 S
N383 Co369 2.140 1_655 S
N383 C386 1.346 . S
N383 C387 1.345 . S
C384 C385 1.387 . S
C384 C388 1.391 . S
C385 C384 1.387 . S
C385 C386 1.369 . S
C385 H394 0.929 . S
C386 N383 1.346 . S
C386 C385 1.369 . S
C386 H389 0.928 . S
C387 N383 1.345 . S
C387 C388 1.371 . S
C387 H390 0.931 . S
C388 C384 1.391 . S
C388 C387 1.371 . S
C388 H395 0.930 . S
H389 C386 0.928 . S
H390 C387 0.931 . S
H391 C367 0.930 1_455 S
H392 C364 0.930 . S
H393 C373 0.930 . S
H394 C385 0.929 . S
H395 C388 0.930 . S
H396 C404 0.950 . S
H397 C409 0.950 . S
H398 C406 0.950 1_545 S
H399 C408 0.905 1_554 S
H400 C410 0.950 . S
H401 C412 0.950 1_565 S
H402 C414 0.905 1_556 S
H403 C415 0.950 . S
C404 H396 0.950 . S
C404 C405 1.386 . S
C404 C406 1.391 . S
C405 C404 1.386 . S
C405 C409 1.393 . S
C406 H398 0.950 1_565 S
C406 C404 1.391 . S
C406 C407 1.400 . S
C407 C406 1.400 . S
C407 C408 1.414 . S
C407 C413 1.491 1_566 S
C408 H399 0.905 1_556 S
C408 C407 1.414 . S
C408 C409 1.422 . S
C409 H397 0.950 . S
C409 C405 1.393 . S
C409 C408 1.422 . S
C410 H400 0.950 . S
C410 C411 1.386 . S
C410 C412 1.391 . S
C411 C410 1.386 . S
C411 C415 1.393 . S
C412 H401 0.950 1_545 S
C412 C410 1.391 . S
C412 C413 1.400 . S
C413 C407 1.491 1_544 S
C413 C412 1.400 . S
C413 C414 1.414 . S
C414 H402 0.905 1_554 S
C414 C413 1.414 . S
C414 C415 1.422 . S
C415 H403 0.950 . S
C415 C411 1.393 . S
C415 C414 1.422 . S
H416 C424 0.950 . S
H417 C429 0.950 . S
H418 C426 0.950 . S
H419 C428 0.950 . S
H420 C430 0.950 . S
H421 C432 0.950 . S
H422 C434 0.950 . S
H423 C435 0.950 . S
C424 H416 0.950 . S
C424 C425 1.386 . S
C424 C426 1.391 . S
C425 C424 1.386 . S
C425 C429 1.393 . S
C426 H418 0.950 . S
C426 C424 1.391 . S
C426 C427 1.400 . S
C427 C426 1.400 . S
C427 C428 1.398 . S
C427 C433 1.491 . S
C428 H419 0.950 . S
C428 C427 1.398 . S
C428 C429 1.391 . S
C429 H417 0.950 . S
C429 C425 1.393 . S
C429 C428 1.391 . S
C430 H420 0.950 . S
C430 C431 1.386 . S
C430 C432 1.391 . S
C431 C430 1.386 . S
C431 C435 1.393 . S
C432 H421 0.950 . S
C432 C430 1.391 . S
C432 C433 1.400 . S
C433 C427 1.491 . S
C433 C432 1.400 . S
C433 C434 1.398 . S
C434 H422 0.950 . S
C434 C433 1.398 . S
C434 C435 1.391 . S
C435 H423 0.950 . S
C435 C431 1.393 . S
C435 C434 1.391 . S
H436 C444 0.950 . S
H437 C449 0.950 . S
H438 C446 0.950 . S
H439 C448 0.950 . S
H440 C450 0.950 . S
H441 C452 0.950 . S
H442 C454 0.950 . S
H443 C455 0.950 . S
C444 H436 0.950 . S
C444 C445 1.386 . S
C444 C446 1.391 . S
C445 C444 1.386 . S
C445 C449 1.393 . S
C446 H438 0.950 . S
C446 C444 1.391 . S
C446 C447 1.400 . S
C447 C446 1.400 . S
C447 C448 1.398 . S
C447 C453 1.491 1_655 S
C448 H439 0.950 . S
C448 C447 1.398 . S
C448 C449 1.391 . S
C449 H437 0.950 . S
C449 C445 1.393 . S
C449 C448 1.391 . S
C450 H440 0.950 . S
C450 C451 1.386 . S
C450 C452 1.391 . S
C451 C450 1.386 . S
C451 C455 1.393 . S
C452 H441 0.950 . S
C452 C450 1.391 . S
C452 C453 1.400 . S
C453 C447 1.491 1_455 S
C453 C452 1.400 . S
C453 C454 1.398 . S
C454 H442 0.950 . S
C454 C453 1.398 . S
C454 C455 1.391 . S
C455 H443 0.950 . S
C455 C451 1.393 . S
C455 C454 1.391 . S
H456 C464 0.950 . S
H457 C469 0.950 . S
H458 C466 0.950 1_565 S
H459 C468 0.950 . S
H460 C470 0.950 . S
H461 C472 0.950 1_545 S
H462 C474 0.950 . S
H463 C475 0.950 . S
C464 H456 0.950 . S
C464 C465 1.386 . S
C464 C466 1.391 . S
C465 C464 1.386 . S
C465 C469 1.393 . S
C466 H458 0.950 1_545 S
C466 C464 1.391 . S
C466 C467 1.400 . S
C467 C466 1.400 . S
C467 C468 1.398 . S
C467 C473 1.491 1_545 S
C468 H459 0.950 . S
C468 C467 1.398 . S
C468 C469 1.391 . S
C469 H457 0.950 . S
C469 C465 1.393 . S
C469 C468 1.391 . S
C470 H460 0.950 . S
C470 C471 1.386 . S
C470 C472 1.391 . S
C471 C470 1.386 . S
C471 C475 1.393 . S
C472 H461 0.950 1_565 S
C472 C470 1.391 . S
C472 C473 1.400 . S
C473 C467 1.491 1_565 S
C473 C472 1.400 . S
C473 C474 1.398 . S
C474 H462 0.950 . S
C474 C473 1.398 . S
C474 C475 1.391 . S
C475 H463 0.950 . S
C475 C471 1.393 . S
C475 C474 1.391 . S
H476 C484 0.950 . S
H477 C489 0.950 . S
H478 C486 0.950 . S
H479 C488 0.950 . S
H480 C490 0.950 . S
H481 C492 0.950 . S
H482 C494 0.950 . S
H483 C495 0.950 . S
C484 H476 0.950 . S
C484 C485 1.386 . S
C484 C486 1.391 . S
C485 C484 1.386 . S
C485 C489 1.393 . S
C486 H478 0.950 . S
C486 C484 1.391 . S
C486 C487 1.400 . S
C487 C486 1.400 . S
C487 C488 1.398 . S
C487 C493 1.491 . S
C488 H479 0.950 . S
C488 C487 1.398 . S
C488 C489 1.391 . S
C489 H477 0.950 . S
C489 C485 1.393 . S
C489 C488 1.391 . S
C490 H480 0.950 . S
C490 C491 1.386 . S
C490 C492 1.391 . S
C491 C490 1.386 . S
C491 C495 1.393 . S
C492 H481 0.950 . S
C492 C490 1.391 . S
C492 C493 1.400 . S
C493 C487 1.491 . S
C493 C492 1.400 . S
C493 C494 1.398 . S
C494 H482 0.950 . S
C494 C493 1.398 . S
C494 C495 1.391 . S
C495 H483 0.950 . S
C495 C491 1.393 . S
C495 C494 1.391 . S
H496 C504 0.950 . S
H497 C509 0.950 . S
H498 C506 0.950 . S
H499 C508 0.950 1_455 S
H500 C510 0.950 . S
H501 C512 0.950 . S
H502 C514 0.950 1_655 S
H503 C515 0.950 . S
C504 H496 0.950 . S
C504 C505 1.386 . S
C504 C506 1.391 . S
C505 C504 1.386 . S
C505 C509 1.393 . S
C506 H498 0.950 . S
C506 C504 1.391 . S
C506 C507 1.400 . S
C507 C506 1.400 . S
C507 C508 1.398 . S
C507 C513 1.491 1_655 S
C508 H499 0.950 1_655 S
C508 C507 1.398 . S
C508 C509 1.391 . S
C509 H497 0.950 . S
C509 C505 1.393 . S
C509 C508 1.391 . S
C510 H500 0.950 . S
C510 C511 1.386 . S
C510 C512 1.391 . S
C511 C510 1.386 . S
C511 C515 1.393 . S
C512 H501 0.950 . S
C512 C510 1.391 . S
C512 C513 1.400 . S
C513 C507 1.491 1_455 S
C513 C512 1.400 . S
C513 C514 1.398 . S
C514 H502 0.950 1_455 S
C514 C513 1.398 . S
C514 C515 1.391 . S
C515 H503 0.950 . S
C515 C511 1.393 . S
C515 C514 1.391 . S
H516 C524 0.950 1_655 S
H517 C529 0.950 . S
H518 C526 0.950 1_665 S
H519 C528 0.950 . S
H520 C530 0.950 . S
H521 C532 0.950 . S
H522 C534 0.950 1_655 S
H523 C535 0.950 1_655 S
C524 H516 0.950 1_455 S
C524 C525 1.386 . S
C524 C526 1.391 . S
C525 C524 1.386 . S
C525 C529 1.393 . S
C526 H518 0.950 1_445 S
C526 C524 1.391 . S
C526 C527 1.400 . S
C527 C526 1.400 . S
C527 C528 1.398 . S
C527 C533 1.491 . S
C528 H519 0.950 . S
C528 C527 1.398 . S
C528 C529 1.391 . S
C529 H517 0.950 . S
C529 C525 1.393 . S
C529 C528 1.391 . S
C530 H520 0.950 . S
C530 C531 1.386 . S
C530 C532 1.391 1_565 S
C531 C530 1.386 . S
C531 C535 1.393 . S
C532 H521 0.950 . S
C532 C530 1.391 1_545 S
C532 C533 1.400 . S
C533 C527 1.491 . S
C533 C532 1.400 . S
C533 C534 1.398 1_545 S
C534 H522 0.950 1_455 S
C534 C533 1.398 1_565 S
C534 C535 1.391 . S
C535 H523 0.950 1_455 S
C535 C531 1.393 . S
C535 C534 1.391 . S
H536 C544 0.950 . S
H537 C549 0.950 1_565 S
H538 C546 0.950 . S
H539 C548 0.950 1_565 S
H540 C550 0.950 1_565 S
H541 C552 0.950 1_665 S
H542 C554 0.950 . S
H543 C555 0.950 . S
C544 H536 0.950 . S
C544 C545 1.386 . S
C544 C546 1.391 1_655 S
C545 C544 1.386 . S
C545 C549 1.393 . S
C546 H538 0.950 . S
C546 C544 1.391 1_455 S
C546 C547 1.400 . S
C547 C546 1.400 . S
C547 C548 1.398 1_455 S
C547 C553 1.491 . S
C548 H539 0.950 1_545 S
C548 C547 1.398 1_655 S
C548 C549 1.391 . S
C549 H537 0.950 1_545 S
C549 C545 1.393 . S
C549 C548 1.391 . S
C550 H540 0.950 1_545 S
C550 C551 1.386 . S
C550 C552 1.391 . S
C551 C550 1.386 . S
C551 C555 1.393 . S
C552 H541 0.950 1_445 S
C552 C550 1.391 . S
C552 C553 1.400 . S
C553 C547 1.491 . S
C553 C552 1.400 . S
C553 C554 1.398 . S
C554 H542 0.950 . S
C554 C553 1.398 . S
C554 C555 1.391 . S
C555 H543 0.950 . S
C555 C551 1.393 . S
C555 C554 1.391 . S
H556 C564 0.950 . S
H557 C569 0.950 . S
H558 C566 0.950 1_655 S
H559 C568 0.950 1_565 S
H560 C570 0.950 . S
H561 C572 0.950 . S
H562 C574 0.950 . S
H563 C575 0.950 . S
C564 H556 0.950 . S
C564 C565 1.386 . S
C564 C566 1.391 . S
C565 C564 1.386 . S
C565 C569 1.393 . S
C566 H558 0.950 1_455 S
C566 C564 1.391 . S
C566 C567 1.403 1_455 S
C567 C566 1.403 1_655 S
C567 C568 1.390 1_655 S
C567 C573 1.495 . S
C568 H559 0.950 1_545 S
C568 C567 1.390 1_455 S
C568 C569 1.391 . S
C569 H557 0.950 . S
C569 C565 1.393 . S
C569 C568 1.391 . S
C570 H560 0.950 . S
C570 C571 1.386 . S
C570 C572 1.391 . S
C571 C570 1.386 . S
C571 C575 1.393 . S
C572 H561 0.950 . S
C572 C570 1.391 . S
C572 C573 1.400 1_565 S
C573 C567 1.495 . S
C573 C572 1.400 1_545 S
C573 C574 1.398 . S
C574 H562 0.950 . S
C574 C573 1.398 . S
C574 C575 1.391 1_545 S
C575 H563 0.950 . S
C575 C571 1.393 . S
C575 C574 1.391 1_565 S
H576 C584 0.950 . S
H577 C589 0.950 . S
H578 C586 0.950 . S
H579 C588 0.950 . S
H580 C590 0.950 . S
H581 C592 0.950 . S
H582 C594 0.950 . S
H583 C595 0.950 . S
C584 H576 0.950 . S
C584 C585 1.386 . S
C584 C586 1.391 1_545 S
C585 C584 1.386 . S
C585 C589 1.393 1_655 S
C586 H578 0.950 . S
C586 C584 1.391 1_565 S
C586 C587 1.393 . S
C587 C586 1.393 . S
C587 C588 1.393 1_665 S
C587 C593 1.502 . S
C588 H579 0.950 . S
C588 C587 1.393 1_445 S
C588 C589 1.391 . S
C589 H577 0.950 . S
C589 C585 1.393 1_455 S
C589 C588 1.391 . S
C590 H580 0.950 . S
C590 C591 1.386 1_455 S
C590 C592 1.391 . S
C591 C590 1.386 1_655 S
C591 C595 1.393 . S
C592 H581 0.950 . S
C592 C590 1.391 . S
C592 C593 1.400 1_455 S
C593 C587 1.502 . S
C593 C592 1.400 1_655 S
C593 C594 1.398 . S
C594 H582 0.950 . S
C594 C593 1.398 . S
C594 C595 1.391 . S
C595 H583 0.950 . S
C595 C591 1.393 . S
C595 C594 1.391 . S
H596 C604 0.950 . S
H597 C609 0.950 . S
H598 C606 0.950 . S
H599 C608 0.950 . S
H600 C610 0.950 . S
H601 C612 0.948 . S
H602 C614 0.950 . S
H603 C615 0.950 . S
C604 H596 0.950 . S
C604 C605 1.386 . S
C604 C606 1.391 1_455 S
C605 C604 1.386 . S
C605 C609 1.393 . S
C606 H598 0.950 . S
C606 C604 1.391 1_655 S
C606 C607 1.400 . S
C607 C606 1.400 . S
C607 C608 1.398 1_655 S
C607 C613 1.491 . S
C608 H599 0.950 . S
C608 C607 1.398 1_455 S
C608 C609 1.391 . S
C609 H597 0.950 . S
C609 C605 1.393 . S
C609 C608 1.391 . S
C610 H600 0.950 . S
C610 C611 1.386 . S
C610 C612 1.391 . S
C611 C610 1.386 . S
C611 C615 1.393 . S
C612 H601 0.948 . S
C612 C610 1.391 . S
C612 C613 1.400 . S
C613 C607 1.491 . S
C613 C612 1.400 . S
C613 C614 1.398 . S
C614 H602 0.950 . S
C614 C613 1.398 . S
C614 C615 1.391 . S
C615 H603 0.950 . S
C615 C611 1.393 . S
C615 C614 1.391 . S
H616 C624 0.950 . S
H617 C629 0.950 . S
H618 C626 0.950 1_455 S
H619 C628 0.950 1_545 S
H620 C630 0.950 . S
H621 C632 0.950 . S
H622 C634 0.950 . S
H623 C635 0.950 . S
C624 H616 0.950 . S
C624 C625 1.386 . S
C624 C626 1.391 . S
C625 C624 1.386 . S
C625 C629 1.393 . S
C626 H618 0.950 1_655 S
C626 C624 1.391 . S
C626 C627 1.403 1_655 S
C627 C626 1.403 1_455 S
C627 C628 1.392 1_455 S
C627 C633 1.495 . S
C628 H619 0.950 1_565 S
C628 C627 1.392 1_655 S
C628 C629 1.391 . S
C629 H617 0.950 . S
C629 C625 1.393 . S
C629 C628 1.391 . S
C630 H620 0.950 . S
C630 C631 1.386 . S
C630 C632 1.391 . S
C631 C630 1.386 . S
C631 C635 1.393 . S
C632 H621 0.950 . S
C632 C630 1.391 . S
C632 C633 1.400 1_545 S
C633 C627 1.495 . S
C633 C632 1.400 1_565 S
C633 C634 1.398 . S
C634 H622 0.950 . S
C634 C633 1.398 . S
C634 C635 1.391 1_565 S
C635 H623 0.950 . S
C635 C631 1.393 . S
C635 C634 1.391 1_545 S
H636 C644 0.950 1_554 S
H637 C649 0.950 . S
H638 C646 0.950 . S
H639 C648 0.950 . S
H640 C650 0.961 . S
H641 C652 0.950 . S
H642 C654 0.950 . S
H643 C655 0.950 . S
C644 H636 0.950 1_556 S
C644 C645 1.386 . S
C644 C646 1.391 1_556 S
C645 C644 1.386 . S
C645 C649 1.393 . S
C646 H638 0.950 . S
C646 C644 1.391 1_554 S
C646 C647 1.400 1_554 S
C647 C646 1.400 1_556 S
C647 C648 1.398 . S
C647 C653 1.491 1_556 S
C648 H639 0.950 . S
C648 C647 1.398 . S
C648 C649 1.391 . S
C649 H637 0.950 . S
C649 C645 1.393 . S
C649 C648 1.391 . S
C650 H640 0.961 . S
C650 C651 1.386 . S
C650 C652 1.391 1_554 S
C651 C650 1.386 . S
C651 C655 1.393 . S
C652 H641 0.950 . S
C652 C650 1.391 1_556 S
C652 C653 1.400 1_556 S
C653 C647 1.491 1_554 S
C653 C652 1.400 1_554 S
C653 C654 1.398 . S
C654 H642 0.950 . S
C654 C653 1.398 . S
C654 C655 1.391 . S
C655 H643 0.950 . S
C655 C651 1.393 . S
C655 C654 1.391 . S
H656 C664 0.950 . S
H657 C669 0.950 . S
H658 C666 0.950 . S
H659 C668 0.950 . S
H660 C670 0.950 . S
H661 C672 0.950 . S
H662 C674 0.950 . S
H663 C675 0.950 . S
C664 H656 0.950 . S
C664 C665 1.386 . S
C664 C666 1.391 . S
C665 C664 1.386 . S
C665 C669 1.393 . S
C666 H658 0.950 . S
C666 C664 1.391 . S
C666 C667 1.400 . S
C667 C666 1.400 . S
C667 C668 1.398 . S
C667 C673 1.491 . S
C668 H659 0.950 . S
C668 C667 1.398 . S
C668 C669 1.391 . S
C669 H657 0.950 . S
C669 C665 1.393 . S
C669 C668 1.391 . S
C670 H660 0.950 . S
C670 C671 1.386 . S
C670 C672 1.391 . S
C671 C670 1.386 . S
C671 C675 1.393 . S
C672 H661 0.950 . S
C672 C670 1.391 . S
C672 C673 1.400 . S
C673 C667 1.491 . S
C673 C672 1.400 . S
C673 C674 1.398 . S
C674 H662 0.950 . S
C674 C673 1.398 . S
C674 C675 1.391 . S
C675 H663 0.950 . S
C675 C671 1.393 . S
C675 C674 1.391 . S
H676 C684 0.950 . S
H677 C689 0.950 . S
H678 C686 0.950 . S
H679 C688 0.950 . S
H680 C690 0.950 . S
H681 C692 0.950 . S
H682 C694 0.950 . S
H683 C695 0.950 . S
C684 H676 0.950 . S
C684 C685 1.386 . S
C684 C686 1.391 . S
C685 C684 1.386 . S
C685 C689 1.393 . S
C686 H678 0.950 . S
C686 C684 1.391 . S
C686 C687 1.400 . S
C687 C686 1.400 . S
C687 C688 1.398 . S
C687 C693 1.491 . S
C688 H679 0.950 . S
C688 C687 1.398 . S
C688 C689 1.391 . S
C689 H677 0.950 . S
C689 C685 1.393 . S
C689 C688 1.391 . S
C690 H680 0.950 . S
C690 C691 1.386 . S
C690 C692 1.391 . S
C691 C690 1.386 . S
C691 C695 1.393 . S
C692 H681 0.950 . S
C692 C690 1.391 . S
C692 C693 1.400 . S
C693 C687 1.491 . S
C693 C692 1.400 . S
C693 C694 1.398 . S
C694 H682 0.950 . S
C694 C693 1.398 . S
C694 C695 1.391 . S
C695 H683 0.950 . S
C695 C691 1.393 . S
C695 C694 1.391 . S
H696 C704 0.950 . S
H697 C709 0.950 . S
H698 C706 0.950 . S
H699 C708 0.950 . S
H700 C710 0.950 . S
H701 C712 0.950 . S
H702 C714 0.950 . S
H703 C715 0.950 . S
C704 H696 0.950 . S
C704 C705 1.386 . S
C704 C706 1.391 . S
C705 C704 1.386 . S
C705 C709 1.393 . S
C706 H698 0.950 . S
C706 C704 1.391 . S
C706 C707 1.400 . S
C707 C706 1.400 . S
C707 C708 1.398 . S
C707 C713 1.491 . S
C708 H699 0.950 . S
C708 C707 1.398 . S
C708 C709 1.391 . S
C709 H697 0.950 . S
C709 C705 1.393 . S
C709 C708 1.391 . S
C710 H700 0.950 . S
C710 C711 1.386 . S
C710 C712 1.391 . S
C711 C710 1.386 . S
C711 C715 1.393 . S
C712 H701 0.950 . S
C712 C710 1.391 . S
C712 C713 1.400 . S
C713 C707 1.491 . S
C713 C712 1.400 . S
C713 C714 1.398 . S
C714 H702 0.950 . S
C714 C713 1.398 . S
C714 C715 1.391 . S
C715 H703 0.950 . S
C715 C711 1.393 . S
C715 C714 1.391 . S
H716 C724 0.950 . S
H717 C729 0.950 . S
H718 C726 0.950 . S
H719 C728 0.950 . S
H720 C730 0.950 . S
H721 C732 0.950 . S
H722 C734 0.950 . S
H723 C735 0.950 . S
C724 H716 0.950 . S
C724 C725 1.386 . S
C724 C726 1.391 . S
C725 C724 1.386 . S
C725 C729 1.393 . S
C726 H718 0.950 . S
C726 C724 1.391 . S
C726 C727 1.400 . S
C727 C726 1.400 . S
C727 C728 1.398 . S
C727 C733 1.491 . S
C728 H719 0.950 . S
C728 C727 1.398 . S
C728 C729 1.391 . S
C729 H717 0.950 . S
C729 C725 1.393 . S
C729 C728 1.391 . S
C730 H720 0.950 . S
C730 C731 1.386 . S
C730 C732 1.391 . S
C731 C730 1.386 . S
C731 C735 1.393 . S
C732 H721 0.950 . S
C732 C730 1.391 . S
C732 C733 1.400 . S
C733 C727 1.491 . S
C733 C732 1.400 . S
C733 C734 1.398 . S
C734 H722 0.950 . S
C734 C733 1.398 . S
C734 C735 1.391 . S
C735 H723 0.950 . S
C735 C731 1.393 . S
C735 C734 1.391 . S
H736 C744 0.950 . S
H737 C749 0.950 . S
H738 C746 0.950 . S
H739 C748 0.950 . S
H740 C750 0.950 . S
H741 C752 0.950 . S
H742 C754 0.950 . S
H743 C755 0.950 . S
C744 H736 0.950 . S
C744 C745 1.386 . S
C744 C746 1.391 . S
C745 C744 1.386 . S
C745 C749 1.393 . S
C746 H738 0.950 . S
C746 C744 1.391 . S
C746 C747 1.400 . S
C747 C746 1.400 . S
C747 C748 1.398 . S
C747 C753 1.491 . S
C748 H739 0.950 . S
C748 C747 1.398 . S
C748 C749 1.391 . S
C749 H737 0.950 . S
C749 C745 1.393 . S
C749 C748 1.391 . S
C750 H740 0.950 . S
C750 C751 1.386 . S
C750 C752 1.391 . S
C751 C750 1.386 . S
C751 C755 1.393 . S
C752 H741 0.950 . S
C752 C750 1.391 . S
C752 C753 1.400 . S
C753 C747 1.491 . S
C753 C752 1.400 . S
C753 C754 1.398 . S
C754 H742 0.950 . S
C754 C753 1.398 . S
C754 C755 1.391 . S
C755 H743 0.950 . S
C755 C751 1.393 . S
C755 C754 1.391 . S
H756 C764 0.950 . S
H757 C769 0.950 . S
H758 C766 0.950 . S
H759 C768 0.950 . S
H760 C770 0.950 . S
H761 C772 0.950 . S
H762 C774 0.950 . S
H763 C775 0.950 . S
C764 H756 0.950 . S
C764 C765 1.386 . S
C764 C766 1.391 . S
C765 C764 1.386 . S
C765 C769 1.393 . S
C766 H758 0.950 . S
C766 C764 1.391 . S
C766 C767 1.400 . S
C767 C766 1.400 . S
C767 C768 1.398 . S
C767 C773 1.491 . S
C768 H759 0.950 . S
C768 C767 1.398 . S
C768 C769 1.391 . S
C769 H757 0.950 . S
C769 C765 1.393 . S
C769 C768 1.391 . S
C770 H760 0.950 . S
C770 C771 1.386 . S
C770 C772 1.391 . S
C771 C770 1.386 . S
C771 C775 1.393 . S
C772 H761 0.950 . S
C772 C770 1.391 . S
C772 C773 1.400 . S
C773 C767 1.491 . S
C773 C772 1.400 . S
C773 C774 1.398 . S
C774 H762 0.950 . S
C774 C773 1.398 . S
C774 C775 1.391 . S
C775 H763 0.950 . S
C775 C771 1.393 . S
C775 C774 1.391 . S
H776 C784 0.950 1_455 S
H777 C789 0.950 . S
H778 C786 0.950 . S
H779 C788 0.924 1_556 S
H780 C790 0.950 . S
H781 C792 0.950 . S
H782 C794 0.950 . S
H783 C795 0.950 . S
C784 H776 0.950 1_655 S
C784 C785 1.386 . S
C784 C786 1.391 . S
C785 C784 1.386 . S
C785 C789 1.393 . S
C786 H778 0.950 . S
C786 C784 1.391 . S
C786 C787 1.400 . S
C787 C786 1.400 . S
C787 C788 1.398 . S
C787 C793 1.491 1_554 S
C788 H779 0.924 1_554 S
C788 C787 1.398 . S
C788 C789 1.391 . S
C789 H777 0.950 . S
C789 C785 1.393 . S
C789 C788 1.391 . S
C790 H780 0.950 . S
C790 C791 1.386 . S
C790 C792 1.391 . S
C791 C790 1.386 . S
C791 C795 1.393 . S
C792 H781 0.950 . S
C792 C790 1.391 . S
C792 C793 1.400 . S
C793 C787 1.491 1_556 S
C793 C792 1.400 . S
C793 C794 1.398 . S
C794 H782 0.950 . S
C794 C793 1.398 . S
C794 C795 1.391 . S
C795 H783 0.950 . S
C795 C791 1.393 . S
C795 C794 1.391 . S
H796 C804 0.950 1_545 S
H797 C809 0.950 . S
H798 C806 0.950 . S
H799 C808 0.950 . S
H800 C810 0.950 . S
H801 C812 0.950 . S
H802 C814 0.950 . S
H803 C815 0.950 . S
C804 H796 0.950 1_565 S
C804 C805 1.386 . S
C804 C806 1.391 . S
C805 C804 1.386 . S
C805 C809 1.393 . S
C806 H798 0.950 . S
C806 C804 1.391 . S
C806 C807 1.400 . S
C807 C806 1.400 . S
C807 C808 1.398 . S
C807 C813 1.491 . S
C808 H799 0.950 . S
C808 C807 1.398 . S
C808 C809 1.391 . S
C809 H797 0.950 . S
C809 C805 1.393 . S
C809 C808 1.391 . S
C810 H800 0.950 . S
C810 C811 1.386 . S
C810 C812 1.391 . S
C811 C810 1.386 . S
C811 C815 1.393 . S
C812 H801 0.950 . S
C812 C810 1.391 . S
C812 C813 1.400 . S
C813 C807 1.491 . S
C813 C812 1.400 . S
C813 C814 1.398 . S
C814 H802 0.950 . S
C814 C813 1.398 . S
C814 C815 1.391 . S
C815 H803 0.950 . S
C815 C811 1.393 . S
C815 C814 1.391 . S
H816 C824 0.950 . S
H817 C829 0.950 . S
H818 C826 0.950 . S
H819 C828 0.950 . S
H820 C830 0.950 . S
H821 C832 0.950 . S
H822 C834 0.950 . S
H823 C835 0.950 . S
C824 H816 0.950 . S
C824 C825 1.386 . S
C824 C826 1.391 . S
C825 C824 1.386 . S
C825 C829 1.393 . S
C826 H818 0.950 . S
C826 C824 1.391 . S
C826 C827 1.400 . S
C827 C826 1.400 . S
C827 C828 1.398 . S
C827 C833 1.491 . S
C828 H819 0.950 . S
C828 C827 1.398 . S
C828 C829 1.391 . S
C829 H817 0.950 . S
C829 C825 1.393 . S
C829 C828 1.391 . S
C830 H820 0.950 . S
C830 C831 1.386 . S
C830 C832 1.391 . S
C831 C830 1.386 . S
C831 C835 1.393 . S
C832 H821 0.950 . S
C832 C830 1.391 . S
C832 C833 1.400 . S
C833 C827 1.491 . S
C833 C832 1.400 . S
C833 C834 1.398 . S
C834 H822 0.950 . S
C834 C833 1.398 . S
C834 C835 1.391 . S
C835 H823 0.950 . S
C835 C831 1.393 . S
C835 C834 1.391 . S
H836 C844 0.950 . S
H837 C849 0.950 . S
H838 C846 0.950 . S
H839 C848 0.950 . S
H840 C850 0.950 . S
H841 C852 0.950 . S
H842 C854 0.950 . S
H843 C855 0.950 . S
C844 H836 0.950 . S
C844 C845 1.386 . S
C844 C846 1.391 . S
C845 C844 1.386 . S
C845 C849 1.393 . S
C846 H838 0.950 . S
C846 C844 1.391 . S
C846 C847 1.400 . S
C847 C846 1.400 . S
C847 C848 1.398 . S
C847 C853 1.491 . S
C848 H839 0.950 . S
C848 C847 1.398 . S
C848 C849 1.391 . S
C849 H837 0.950 . S
C849 C845 1.393 . S
C849 C848 1.391 . S
C850 H840 0.950 . S
C850 C851 1.386 . S
C850 C852 1.391 . S
C851 C850 1.386 . S
C851 C855 1.393 . S
C852 H841 0.950 . S
C852 C850 1.391 . S
C852 C853 1.400 . S
C853 C847 1.491 . S
C853 C852 1.400 . S
C853 C854 1.398 . S
C854 H842 0.950 . S
C854 C853 1.398 . S
C854 C855 1.391 . S
C855 H843 0.950 . S
C855 C851 1.393 . S
C855 C854 1.391 . S
H856 C864 0.950 . S
H857 C869 0.950 . S
H858 C866 0.950 . S
H859 C868 0.950 . S
H860 C870 0.950 . S
H861 C872 0.950 . S
H862 C874 0.950 . S
H863 C875 0.950 . S
C864 H856 0.950 . S
C864 C865 1.386 . S
C864 C866 1.391 . S
C865 C864 1.386 . S
C865 C869 1.393 . S
C866 H858 0.950 . S
C866 C864 1.391 . S
C866 C867 1.400 . S
C867 C866 1.400 . S
C867 C868 1.398 . S
C867 C873 1.491 . S
C868 H859 0.950 . S
C868 C867 1.398 . S
C868 C869 1.391 . S
C869 H857 0.950 . S
C869 C865 1.393 . S
C869 C868 1.391 . S
C870 H860 0.950 . S
C870 C871 1.386 . S
C870 C872 1.391 . S
C871 C870 1.386 . S
C871 C875 1.393 . S
C872 H861 0.950 . S
C872 C870 1.391 . S
C872 C873 1.400 . S
C873 C867 1.491 . S
C873 C872 1.400 . S
C873 C874 1.398 . S
C874 H862 0.950 . S
C874 C873 1.398 . S
C874 C875 1.391 . S
C875 H863 0.950 . S
C875 C871 1.393 . S
C875 C874 1.391 . S
H876 C884 0.950 . S
H877 C889 0.950 . S
H878 C886 0.950 . S
H879 C888 0.950 . S
H880 C890 0.950 . S
H881 C892 0.950 . S
H882 C894 0.950 . S
H883 C895 0.950 . S
C884 H876 0.950 . S
C884 C885 1.386 . S
C884 C886 1.391 . S
C885 C884 1.386 . S
C885 C889 1.393 1_655 S
C886 H878 0.950 . S
C886 C884 1.391 . S
C886 C887 1.400 . S
C887 C886 1.400 . S
C887 C888 1.398 1_655 S
C887 C893 1.491 . S
C888 H879 0.950 . S
C888 C887 1.398 1_455 S
C888 C889 1.391 . S
C889 H877 0.950 . S
C889 C885 1.393 1_455 S
C889 C888 1.391 . S
C890 H880 0.950 . S
C890 C891 1.386 1_455 S
C890 C892 1.391 . S
C891 C890 1.386 1_655 S
C891 C895 1.393 . S
C892 H881 0.950 . S
C892 C890 1.391 . S
C892 C893 1.400 1_455 S
C893 C887 1.491 . S
C893 C892 1.400 1_655 S
C893 C894 1.398 . S
C894 H882 0.950 . S
C894 C893 1.398 . S
C894 C895 1.391 . S
C895 H883 0.950 . S
C895 C891 1.393 . S
C895 C894 1.391 . S
H896 C904 0.950 . S
H897 C909 0.950 1_545 S
H898 C906 0.950 . S
H899 C908 0.950 1_545 S
H900 C910 0.947 1_545 S
H901 C912 0.950 1_545 S
H902 C914 0.950 . S
H903 C915 0.950 . S
C904 H896 0.950 . S
C904 C905 1.386 . S
C904 C906 1.391 . S
C905 C904 1.386 . S
C905 C909 1.393 . S
C906 H898 0.950 . S
C906 C904 1.391 . S
C906 C907 1.400 . S
C907 C906 1.400 . S
C907 C908 1.398 . S
C907 C913 1.491 . S
C908 H899 0.950 1_565 S
C908 C907 1.398 . S
C908 C909 1.391 . S
C909 H897 0.950 1_565 S
C909 C905 1.393 . S
C909 C908 1.391 . S
C910 H900 0.947 1_565 S
C910 C911 1.385 . S
C910 C912 1.395 . S
C911 C910 1.385 . S
C911 C915 1.393 . S
C912 H901 0.950 1_565 S
C912 C910 1.395 . S
C912 C913 1.400 . S
C913 C907 1.491 . S
C913 C912 1.400 . S
C913 C914 1.398 . S
C914 H902 0.950 . S
C914 C913 1.398 . S
C914 C915 1.391 . S
C915 H903 0.950 . S
C915 C911 1.393 . S
C915 C914 1.391 . S
H916 C924 0.950 . S
H917 C929 0.950 . S
H918 C926 0.950 . S
H919 C928 0.950 . S
H920 C930 0.950 . S
H921 C932 0.950 . S
H922 C934 0.950 . S
H923 C935 0.950 . S
C924 H916 0.950 . S
C924 C925 1.386 . S
C924 C926 1.391 . S
C925 C924 1.386 . S
C925 C929 1.393 . S
C926 H918 0.950 . S
C926 C924 1.391 . S
C926 C927 1.400 . S
C927 C926 1.400 . S
C927 C928 1.398 . S
C927 C933 1.491 . S
C928 H919 0.950 . S
C928 C927 1.398 . S
C928 C929 1.391 . S
C929 H917 0.950 . S
C929 C925 1.393 . S
C929 C928 1.391 . S
C930 H920 0.950 . S
C930 C931 1.386 . S
C930 C932 1.391 . S
C931 C930 1.386 . S
C931 C935 1.393 . S
C932 H921 0.950 . S
C932 C930 1.391 . S
C932 C933 1.400 . S
C933 C927 1.491 . S
C933 C932 1.400 . S
C933 C934 1.398 . S
C934 H922 0.950 . S
C934 C933 1.398 . S
C934 C935 1.391 . S
C935 H923 0.950 . S
C935 C931 1.393 . S
C935 C934 1.391 . S
H936 C944 0.950 . S
H937 C949 0.950 . S
H938 C946 0.950 . S
H939 C948 0.950 . S
H940 C950 0.950 . S
H941 C952 0.950 . S
H942 C954 0.950 . S
H943 C955 0.950 . S
C944 H936 0.950 . S
C944 C945 1.386 . S
C944 C946 1.391 . S
C945 C944 1.386 . S
C945 C949 1.393 1_455 S
C946 H938 0.950 . S
C946 C944 1.391 . S
C946 C947 1.400 . S
C947 C946 1.400 . S
C947 C948 1.398 1_455 S
C947 C953 1.491 . S
C948 H939 0.950 . S
C948 C947 1.398 1_655 S
C948 C949 1.391 . S
C949 H937 0.950 . S
C949 C945 1.393 1_655 S
C949 C948 1.391 . S
C950 H940 0.950 . S
C950 C951 1.386 1_655 S
C950 C952 1.391 . S
C951 C950 1.386 1_455 S
C951 C955 1.393 . S
C952 H941 0.950 . S
C952 C950 1.391 . S
C952 C953 1.400 1_655 S
C953 C947 1.491 . S
C953 C952 1.400 1_455 S
C953 C954 1.398 . S
C954 H942 0.950 . S
C954 C953 1.398 . S
C954 C955 1.391 . S
C955 H943 0.950 . S
C955 C951 1.393 . S
C955 C954 1.391 . S
H956 C964 0.950 . S
H957 C969 0.950 . S
H958 C966 0.950 . S
H959 C968 0.950 . S
H960 C970 0.952 . S
H961 C972 0.950 . S
H962 C974 0.950 . S
H963 C975 0.950 . S
C964 H956 0.950 . S
C964 C965 1.386 . S
C964 C966 1.391 . S
C965 C964 1.386 . S
C965 C969 1.393 . S
C966 H958 0.950 . S
C966 C964 1.391 . S
C966 C967 1.400 . S
C967 C966 1.400 . S
C967 C968 1.398 . S
C967 C973 1.491 . S
C968 H959 0.950 . S
C968 C967 1.398 . S
C968 C969 1.391 . S
C969 H957 0.950 . S
C969 C965 1.393 . S
C969 C968 1.391 . S
C970 H960 0.952 . S
C970 C971 1.386 . S
C970 C972 1.391 . S
C971 C970 1.386 . S
C971 C975 1.393 . S
C972 H961 0.950 . S
C972 C970 1.391 . S
C972 C973 1.400 . S
C973 C967 1.491 . S
C973 C972 1.400 . S
C973 C974 1.398 . S
C974 H962 0.950 . S
C974 C973 1.398 . S
C974 C975 1.391 . S
C975 H963 0.950 . S
C975 C971 1.393 . S
C975 C974 1.391 . S
H976 C984 0.950 . S
H977 C989 0.950 . S
H978 C986 0.950 . S
H979 C988 0.950 . S
H980 C990 0.950 . S
H981 C992 0.950 . S
H982 C994 0.950 . S
H983 C995 0.950 . S
C984 H976 0.950 . S
C984 C985 1.386 . S
C984 C986 1.391 . S
C985 C984 1.386 . S
C985 C989 1.393 . S
C986 H978 0.950 . S
C986 C984 1.391 . S
C986 C987 1.400 . S
C987 C986 1.400 . S
C987 C988 1.398 . S
C987 C993 1.491 . S
C988 H979 0.950 . S
C988 C987 1.398 . S
C988 C989 1.391 . S
C989 H977 0.950 . S
C989 C985 1.393 . S
C989 C988 1.391 . S
C990 H980 0.950 . S
C990 C991 1.386 . S
C990 C992 1.391 . S
C991 C990 1.386 . S
C991 C995 1.393 . S
C992 H981 0.950 . S
C992 C990 1.391 . S
C992 C993 1.400 . S
C993 C987 1.491 . S
C993 C992 1.400 . S
C993 C994 1.398 . S
C994 H982 0.950 . S
C994 C993 1.398 . S
C994 C995 1.391 . S
C995 H983 0.950 . S
C995 C991 1.393 . S
C995 C994 1.391 . S
C405 C238 1.454 . S
C411 C7 1.436 . S
C425 C271 1.434 . S
C431 C40 1.454 . S
C445 C73 1.438 . S
C451 C304 1.447 . S
C465 C337 1.453 . S
C471 C106 1.434 . S
C485 C139 1.454 . S
C491 C370 1.434 . S
C505 C205 1.434 . S
C511 C172 1.452 . S
C525 N2 1.754 . S
C531 N266 1.748 . S
C545 N35 1.739 . S
C551 N299 1.735 . S
C565 N332 1.736 . S
C571 N68 1.741 . S
C585 N365 1.735 . S
C591 N101 1.737 . S
C605 N134 1.746 . S
C611 N200 1.739 . S
C625 N233 1.736 . S
C631 N167 1.741 . S
C645 N244 1.142 . S
C651 C21 1.168 . S
C665 N277 1.161 . S
C671 C54 1.162 . S
C685 N310 1.145 . S
C691 C87 1.162 . S
C705 C120 1.161 . S
C711 N343 1.158 . S
C725 N376 1.145 . S
C731 C153 1.162 . S
C745 C186 1.169 . S
C751 N211 1.143 . S
C765 C219 1.168 . S
C771 N178 1.156 . S
C785 N13 1.142 . S
C791 C252 1.163 . S
C805 N46 1.141 . S
C811 C285 1.164 . S
C825 N79 1.140 . S
C831 C318 1.167 . S
C845 N112 1.155 . S
C851 C351 1.161 . S
C865 N145 1.156 . S
C871 C384 1.161 . S
C885 C282 1.456 . S
C891 C18 1.458 . S
C905 C51 1.460 . S
C911 C315 1.450 . S
C925 C348 1.449 . S
C931 C84 1.447 . S
C945 C117 1.460 . S
C951 C381 1.453 . S
C965 C150 1.460 . S
C971 C216 1.448 . S
C985 C249 1.446 . S
C991 C183 1.457 . S
