# Generated by pormake.
# Topology sxb, (6)-cn, num edge types: 1
# Building blocks:
#     Node 0, Type 0, BuildingBlock: BETDEL_clean_sbu_0, # of connection points: 6
#     Node 1, Type 0, BuildingBlock: BETDEL_clean_sbu_0, # of connection points: 6
#     Node 2, Type 0, BuildingBlock: BETDEL_clean_sbu_0, # of connection points: 6
#     Node 3, Type 0, BuildingBlock: BETDEL_clean_sbu_0, # of connection points: 6
#     Edge 4, Type (0, 0), BuildingBlock: MIFKUJ_clean_linker_0, # of connection points: 2
#     Edge 5, Type (0, 0), BuildingBlock: MIFKUJ_clean_linker_0, # of connection points: 2
#     Edge 6, Type (0, 0), BuildingBlock: MIFKUJ_clean_linker_0, # of connection points: 2
#     Edge 7, Type (0, 0), BuildingBlock: MIFKUJ_clean_linker_0, # of connection points: 2
#     Edge 8, Type (0, 0), BuildingBlock: MIFKUJ_clean_linker_0, # of connection points: 2
#     Edge 9, Type (0, 0), BuildingBlock: MIFKUJ_clean_linker_0, # of connection points: 2
#     Edge 10, Type (0, 0), BuildingBlock: MIFKUJ_clean_linker_0, # of connection points: 2
#     Edge 11, Type (0, 0), BuildingBlock: MIFKUJ_clean_linker_0, # of connection points: 2
#     Edge 12, Type (0, 0), BuildingBlock: MIFKUJ_clean_linker_0, # of connection points: 2
#     Edge 13, Type (0, 0), BuildingBlock: MIFKUJ_clean_linker_0, # of connection points: 2
#     Edge 14, Type (0, 0), BuildingBlock: MIFKUJ_clean_linker_0, # of connection points: 2
#     Edge 15, Type (0, 0), BuildingBlock: MIFKUJ_clean_linker_0, # of connection points: 2
# Relax obj value: 0.037
# Max RMSD: 0.029
# Mean RMSD: 0.029
data_MOF--net-sxb--node1-BETDEL_clean_sbu_0--edge1-MIFKUJ_clean_linker_0
_symmetry_space_group_name_H-M    P1
_symmetry_Int_Tables_number       1
_symmetry_cell_setting            triclinic
loop_
_symmetry_equiv_pos_as_xyz
'x, y, z'
_cell_length_a     20.453826
_cell_length_b     36.604728
_cell_length_c     38.098462
_cell_angle_alpha  92.065154
_cell_angle_beta   94.169244
_cell_angle_gamma 84.773654
loop_
_atom_site_label
_atom_site_type_symbol
_atom_site_fract_x
_atom_site_fract_y
_atom_site_fract_z
_atom_type_partial_charge
Dy0 Dy 0.95414 0.99112 0.01129 0.0
C1 C 0.18165 0.05371 0.96757 0.0
C2 C 0.84158 0.9671 0.03233 0.0
Dy3 Dy 0.07924 0.02998 0.99911 0.0
O4 O 0.87135 0.95508 1.00475 0.0
O5 O 0.87408 0.99215 0.04881 0.0
O6 O 0.95902 0.96551 0.95691 0.0
O7 O 0.99099 0.01781 0.96682 0.0
C8 C 0.98659 0.9921 0.94406 0.0
C9 C 0.07227 0.02053 0.06894 0.0
O10 O 1.00377 0.07845 0.99536 0.0
O11 O 0.91295 0.05056 0.01185 0.0
O12 O 0.15264 0.07071 0.99354 0.0
O13 O 0.15319 0.02415 0.9584 0.0
O14 O 0.11999 0.03564 0.05607 0.0
O15 O 0.03383 0.0113 0.04363 0.0
O16 O 0.03321 0.94695 0.02606 0.0
O17 O 0.11231 0.9696 0.9942 0.0
C18 C 0.94164 0.08012 1.00387 0.0
C19 C 0.08978 0.94253 0.0108 0.0
Dy20 Dy 0.03845 0.96518 0.50735 0.0
C21 C 0.06522 0.11516 0.48166 0.0
C22 C 1.00374 0.89563 0.51634 0.0
Dy23 Dy 0.03215 0.04976 0.5045 0.0
O24 O 1.02311 0.90776 0.48763 0.0
O25 O 1.00749 0.92096 0.54105 0.0
O26 O 0.08277 0.962 0.45538 0.0
O27 O 1.01187 1.00562 0.4661 0.0
C28 C 0.05102 0.99201 0.44383 0.0
C29 C 0.04411 0.03117 0.57276 0.0
O30 O 0.92164 0.04502 0.4975 0.0
O31 O 0.92854 0.98206 0.50613 0.0
O32 O 1.02069 0.11172 0.50386 0.0
O33 O 0.08713 0.08286 0.47013 0.0
O34 O 0.03857 0.06472 0.5623 0.0
O35 O 0.04201 1.00987 0.54593 0.0
O36 O 0.147 0.97049 0.52123 0.0
O37 O 0.14121 0.03104 0.50411 0.0
C38 C 0.89309 0.01409 0.5013 0.0
C39 C 0.17621 1.00019 0.51387 0.0
Dy40 Dy 0.45673 0.49348 0.01128 0.0
C41 C 0.68543 0.55466 0.98364 0.0
C42 C 0.34354 0.46643 0.02743 0.0
Dy43 Dy 0.57363 0.52936 1.00352 0.0
O44 O 0.37731 0.4559 1.00093 0.0
O45 O 0.37159 0.4923 0.04529 0.0
O46 O 0.46443 0.46719 0.95745 0.0
O47 O 0.49088 0.52075 0.96613 0.0
C48 C 0.48838 0.49449 0.94388 0.0
C49 C 0.5412 0.52889 0.07069 0.0
O50 O 0.50224 0.57752 0.99101 0.0
O51 O 0.41773 0.55351 0.01659 0.0
O52 O 0.66226 0.56041 0.01426 0.0
O53 O 0.64817 0.53429 0.96396 0.0
O54 O 0.56427 0.55643 0.05686 0.0
O55 O 0.53939 0.50225 0.04876 0.0
O56 O 0.52892 0.44625 0.0258 0.0
O57 O 0.61222 0.46932 0.9986 0.0
C58 C 0.44378 0.58179 1.00386 0.0
C59 C 0.58668 0.44138 0.01221 0.0
Dy60 Dy 0.52922 0.46983 0.51212 0.0
C61 C 0.54425 0.62243 0.48163 0.0
C62 C 0.49916 0.40115 0.52843 0.0
Dy63 Dy 0.52138 0.55513 0.50451 0.0
O64 O 0.53176 0.4086 0.50198 0.0
O65 O 0.48663 0.431 0.5471 0.0
O66 O 0.56377 0.46169 0.4582 0.0
O67 O 0.49991 0.50833 0.4691 0.0
C68 C 0.53524 0.49227 0.44615 0.0
C69 C 0.53964 0.53795 0.57339 0.0
O70 O 0.41121 0.54867 0.49937 0.0
O71 O 0.41928 0.48639 0.51174 0.0
O72 O 0.5043 0.61678 0.50558 0.0
O73 O 0.56755 0.59106 0.46845 0.0
O74 O 0.53272 0.57132 0.56252 0.0
O75 O 0.53594 0.51691 0.54668 0.0
O76 O 0.63702 0.4787 0.52564 0.0
O77 O 0.62955 0.53626 0.50102 0.0
C78 C 0.38336 0.51809 0.50571 0.0
C79 C 0.66544 0.50714 0.51426 0.0
H80 H 0.35735 0.61054 0.05084 0.0
H81 H 0.29756 0.672 0.05168 0.0
H82 H 0.39556 0.69982 0.96123 0.0
H83 H 0.45347 0.63808 0.95962 0.0
H84 H 0.39282 0.75518 0.0155 0.0
H85 H 0.24678 0.68114 0.94849 0.0
H86 H 0.17713 0.63057 0.9335 0.0
H87 H 0.06034 0.66286 0.02041 0.0
H88 H 0.13061 0.71298 0.03669 0.0
H89 H 0.19056 0.91765 0.97007 0.0
H90 H 0.25184 0.85719 0.96966 0.0
H91 H 0.13666 0.82351 0.05124 0.0
H92 H 0.0746 0.88395 0.05158 0.0
H93 H 0.14897 0.77103 1.00118 0.0
H94 H 0.29692 0.84554 0.06828 0.0
H95 H 0.36081 0.89931 0.07905 0.0
H96 H 0.47093 0.86783 0.98941 0.0
H97 H 0.40692 0.81417 0.9777 0.0
C98 C 0.3646 0.62949 0.03061 0.0
C99 C 0.40808 0.61903 1.00445 0.0
C100 C 0.33108 0.66466 0.03132 0.0
C101 C 0.34127 0.69036 0.00621 0.0
C102 C 0.38655 0.68042 0.98077 0.0
C103 C 0.41948 0.6451 0.97983 0.0
C104 C 0.30439 0.72746 0.00649 0.0
C105 C 0.33953 0.75867 0.01202 0.0
C106 C 0.23474 0.73205 1.00259 0.0
C107 C 0.19457 0.70064 0.99408 0.0
C108 C 0.20705 0.67709 0.96485 0.0
C109 C 0.16726 0.64859 0.95602 0.0
C110 C 0.11422 0.64361 0.97591 0.0
C111 C 0.10134 0.66684 1.00496 0.0
C112 C 0.14132 0.69521 0.01409 0.0
C113 C 0.17857 0.89754 0.9882 0.0
C114 C 0.12799 0.9059 0.01114 0.0
C115 C 0.2138 0.8629 0.98795 0.0
C116 C 0.19967 0.83578 0.01076 0.0
C117 C 0.14872 0.84392 0.03344 0.0
C118 C 0.11331 0.87857 0.03365 0.0
C119 C 0.2372 0.79878 0.01057 0.0
C120 C 0.20223 0.76755 1.00498 0.0
C121 C 0.30693 0.79421 0.01442 0.0
C122 C 0.34674 0.82593 0.02195 0.0
C123 C 0.33454 0.85015 0.05075 0.0
C124 C 0.3708 0.88061 0.05703 0.0
C125 C 0.41987 0.88698 0.03492 0.0
C126 C 0.4329 0.86285 0.00652 0.0
C127 C 0.39669 0.83238 1.00006 0.0
H128 H 0.44784 0.91059 0.03981 0.0
H129 H 0.08314 0.62173 0.96883 0.0
H130 H 0.56196 0.38146 0.04876 0.0
H131 H 0.61814 0.31973 0.04658 0.0
H132 H 0.74856 0.35483 0.97293 0.0
H133 H 0.68821 0.41587 0.97283 0.0
H134 H 0.72167 0.29152 0.95319 0.0
H135 H 0.79148 0.34073 0.06687 0.0
H136 H 0.77703 0.36959 0.12565 0.0
H137 H 0.67388 0.27928 0.1543 0.0
H138 H 0.68688 0.25013 0.09552 0.0
H139 H 0.97277 0.14443 0.97713 0.0
H140 H 0.91001 0.2045 0.97855 0.0
H141 H 0.75968 0.15917 0.0328 0.0
H142 H 0.82222 0.09881 0.03153 0.0
H143 H 0.79551 0.22619 0.06286 0.0
H144 H 0.73174 0.17669 0.94807 0.0
H145 H 0.7522 0.14835 0.88975 0.0
H146 H 0.85244 0.24089 0.86399 0.0
H147 H 0.83346 0.26955 0.9224 0.0
C148 C 0.60272 0.37609 0.03214 0.0
C149 C 0.62226 0.40404 0.01183 0.0
C150 C 0.63536 0.34072 0.03115 0.0
C151 C 0.68935 0.33253 0.01042 0.0
C152 C 0.70782 0.36029 0.98954 0.0
C153 C 0.67418 0.39544 0.98997 0.0
C154 C 0.72574 0.29503 0.00993 0.0
C155 C 0.73852 0.27761 0.97729 0.0
C156 C 0.74694 0.27608 0.0412 0.0
C157 C 0.73965 0.29341 0.07668 0.0
C158 C 0.76538 0.32713 0.08564 0.0
C159 C 0.75748 0.34354 0.11895 0.0
C160 C 0.72444 0.32631 0.14365 0.0
C161 C 0.69939 0.29261 0.13512 0.0
C162 C 0.70706 0.27612 0.10183 0.0
C163 C 0.92631 0.14709 0.98934 0.0
C164 C 0.90258 0.11657 1.0041 0.0
C165 C 0.89033 0.18154 0.99003 0.0
C166 C 0.82984 0.18642 0.0056 0.0
C167 C 0.80618 0.15613 0.02062 0.0
C168 C 0.8419 0.12154 0.01969 0.0
C169 C 0.7916 0.22317 0.00627 0.0
C170 C 0.77853 0.24031 0.03889 0.0
C171 C 0.77101 0.24209 0.97506 0.0
C172 C 0.78166 0.22512 0.93974 0.0
C173 C 0.75854 0.19089 0.93007 0.0
C174 C 0.76982 0.17478 0.89698 0.0
C175 C 0.80372 0.19277 0.8732 0.0
C176 C 0.82623 0.22697 0.88244 0.0
C177 C 0.81518 0.24318 0.91552 0.0
H178 H 0.81243 0.18025 0.8476 0.0
H179 H 0.71839 0.33902 0.16943 0.0
H180 H 0.18093 0.11929 0.45166 0.0
H181 H 0.25541 0.16782 0.46102 0.0
H182 H 0.11023 0.23318 0.51842 0.0
H183 H 0.03573 0.18415 0.50982 0.0
H184 H 0.17615 0.27499 0.47483 0.0
H185 H 0.22276 0.18693 0.56188 0.0
H186 H 0.25012 0.12755 0.59013 0.0
H187 H 0.4371 0.11612 0.54474 0.0
H188 H 0.40974 0.17471 0.51476 0.0
H189 H 0.39419 0.39231 0.56633 0.0
H190 H 0.32087 0.34286 0.55905 0.0
H191 H 0.44888 0.28583 0.48611 0.0
H192 H 0.52178 0.33574 0.49262 0.0
H193 H 0.39093 0.24054 0.53982 0.0
H194 H 0.33145 0.33124 0.44941 0.0
H195 H 0.30298 0.39492 0.43076 0.0
H196 H 0.13783 0.40437 0.49487 0.0
H197 H 0.16549 0.34099 0.51406 0.0
C198 C 0.16411 0.14433 0.46558 0.0
C199 C 0.10241 0.14789 0.48009 0.0
C200 C 0.20704 0.17194 0.47114 0.0
C201 C 0.18883 0.20387 0.49091 0.0
C202 C 0.12538 0.20867 0.50323 0.0
C203 C 0.08273 0.18075 0.49816 0.0
C204 C 0.23732 0.23121 0.50023 0.0
C205 C 0.22286 0.2674 0.48922 0.0
C206 C 0.29834 0.22146 0.51924 0.0
C207 C 0.31357 0.18504 0.53545 0.0
C208 C 0.26907 0.1714 0.55713 0.0
C209 C 0.28468 0.13791 0.57358 0.0
C210 C 0.34525 0.11806 0.56915 0.0
C211 C 0.39009 0.1315 0.548 0.0
C212 C 0.37437 0.16475 0.53109 0.0
C213 C 0.40767 0.36879 0.54944 0.0
C214 C 0.46376 0.36783 0.53005 0.0
C215 C 0.36551 0.34068 0.54516 0.0
C216 C 0.37921 0.31088 0.52182 0.0
C217 C 0.4375 0.30861 0.50424 0.0
C218 C 0.47913 0.33706 0.50805 0.0
C219 C 0.33019 0.28371 0.51366 0.0
C220 C 0.34445 0.24772 0.52506 0.0
C221 C 0.26852 0.29373 0.49571 0.0
C222 C 0.25081 0.3315 0.48335 0.0
C223 C 0.28919 0.347 0.45962 0.0
C224 C 0.2731 0.38303 0.44889 0.0
C225 C 0.21848 0.40371 0.46155 0.0
C226 C 0.17982 0.38835 0.4849 0.0
C227 C 0.19564 0.35236 0.4957 0.0
H228 H 0.20611 0.43162 0.45327 0.0
H229 H 0.35749 0.09227 0.58214 0.0
H230 H 0.99101 0.84221 0.4656 0.0
H231 H 0.90933 0.7972 0.46025 0.0
H232 H 0.84233 0.83322 0.56161 0.0
H233 H 0.9249 0.87815 0.5673 0.0
H234 H 0.84414 0.75798 0.55147 0.0
H235 H 0.75831 0.86529 0.48833 0.0
H236 H 0.76015 0.91413 0.44551 0.0
H237 H 0.77856 0.83327 0.36163 0.0
H238 H 0.77771 0.78385 0.40391 0.0
H239 H 0.53694 0.682 0.52663 0.0
H240 H 0.61249 0.73041 0.53245 0.0
H241 H 0.70371 0.68781 0.43915 0.0
H242 H 0.62916 0.63873 0.43362 0.0
H243 H 0.68556 0.76821 0.44647 0.0
H244 H 0.77768 0.66141 0.50918 0.0
H245 H 0.77624 0.61175 0.55108 0.0
H246 H 0.74592 0.69137 0.6352 0.0
H247 H 0.74638 0.74157 0.59366 0.0
C248 C 0.95995 0.83997 0.48713 0.0
C249 C 0.96439 0.86368 0.51687 0.0
C250 C 0.91284 0.81445 0.48389 0.0
C251 C 0.86873 0.81233 0.51018 0.0
C252 C 0.87563 0.83446 0.54092 0.0
C253 C 0.92305 0.85999 0.54423 0.0
C254 C 0.81385 0.78817 0.50469 0.0
C255 C 0.80891 0.76063 0.52881 0.0
C256 C 0.76834 0.79113 0.47479 0.0
C257 C 0.76854 0.82085 0.44933 0.0
C258 C 0.76325 0.8579 0.4608 0.0
C259 C 0.76402 0.88569 0.43664 0.0
C260 C 0.76963 0.87681 0.40095 0.0
C261 C 0.77429 0.84011 0.3893 0.0
C262 C 0.77359 0.81219 0.41332 0.0
C263 C 0.57177 0.68356 0.50675 0.0
C264 C 0.57716 0.65658 0.47964 0.0
C265 C 0.61524 0.71107 0.51028 0.0
C266 C 0.66418 0.7124 0.48648 0.0
C267 C 0.66635 0.68721 0.45782 0.0
C268 C 0.62358 0.6593 0.45461 0.0
C269 C 0.71627 0.73806 0.49312 0.0
C270 C 0.72059 0.76583 0.46924 0.0
C271 C 0.76122 0.7353 0.52318 0.0
C272 C 0.76126 0.70523 0.54825 0.0
C273 C 0.77009 0.66833 0.53655 0.0
C274 C 0.76959 0.64008 0.56023 0.0
C275 C 0.76073 0.6484 0.59575 0.0
C276 C 0.75263 0.68498 0.60767 0.0
C277 C 0.75307 0.71334 0.58407 0.0
H278 H 0.76033 0.62649 0.61405 0.0
H279 H 0.77023 0.89839 0.38232 0.0
H280 H 0.25419 0.01648 0.91855 0.0
H281 H 0.37365 1.00318 0.92607 0.0
H282 H 0.38242 0.08498 0.01016 0.0
H283 H 0.26359 0.09911 1.00228 0.0
H284 H 0.50225 0.04662 0.94256 0.0
H285 H 0.42437 0.02475 0.08026 0.0
H286 H 0.3253 0.01277 0.10992 0.0
H287 H 0.25264 0.95479 0.01743 0.0
H288 H 0.35172 0.9656 0.98758 0.0
H289 H 0.76251 1.00262 0.07959 0.0
H290 H 0.64318 0.01494 0.06923 0.0
H291 H 0.64461 0.93681 0.98179 0.0
H292 H 0.76336 0.92389 0.99226 0.0
H293 H 0.51953 0.97268 0.05046 0.0
H294 H 0.59724 0.99503 0.9126 0.0
H295 H 0.69701 1.00632 0.8833 0.0
H296 H 0.77075 0.06323 0.97629 0.0
H297 H 0.67093 0.05291 0.00585 0.0
C298 C 0.28208 0.03308 0.93724 0.0
C299 C 0.24993 0.05803 0.96055 0.0
C300 C 0.35021 0.02542 0.94152 0.0
C301 C 0.38582 0.04251 0.96924 0.0
C302 C 0.3551 0.07139 0.98885 0.0
C303 C 0.28726 0.07945 0.98424 0.0
C304 C 0.44953 0.02499 0.98285 0.0
C305 C 0.50611 0.0302 0.96589 0.0
C306 C 0.454 1.0039 0.01353 0.0
C307 C 0.39485 0.99658 0.03152 0.0
C308 C 0.38724 1.00937 0.06632 0.0
C309 C 0.33114 1.00272 0.08317 0.0
C310 C 0.28253 0.98315 0.06548 0.0
C311 C 0.29008 0.97006 0.031 0.0
C312 C 0.34613 0.97651 0.0141 0.0
C313 C 0.73686 0.9867 0.05935 0.0
C314 C 0.77188 0.9631 0.03607 0.0
C315 C 0.66882 0.99376 0.05348 0.0
C316 C 0.63613 0.97737 0.02426 0.0
C317 C 0.66965 0.94988 1.00424 0.0
C318 C 0.73739 0.94256 0.01029 0.0
C319 C 0.57228 0.9943 0.01017 0.0
C320 C 0.51568 0.98904 0.02708 0.0
C321 C 0.56782 0.01534 0.97946 0.0
C322 C 0.62708 0.02273 0.96155 0.0
C323 C 0.63466 1.01008 0.92671 0.0
C324 C 0.6912 0.01632 0.91007 0.0
C325 C 0.74033 0.03534 0.92799 0.0
C326 C 0.73281 0.04837 0.96251 0.0
C327 C 0.6763 0.0423 0.97922 0.0
H328 H 0.78413 0.04006 0.91511 0.0
H329 H 0.23915 0.97797 0.07851 0.0
H330 H 0.25018 0.05917 0.52016 0.0
H331 H 0.36829 0.06084 0.51783 0.0
H332 H 0.39154 0.94305 0.50584 0.0
H333 H 0.27225 0.94109 0.50963 0.0
H334 H 0.49244 0.9596 0.54217 0.0
H335 H 0.39558 0.01255 0.43547 0.0
H336 H 0.31972 0.05508 0.39975 0.0
H337 H 0.4099 0.14699 0.4491 0.0
H338 H 0.48597 0.10508 0.48531 0.0
H339 H 0.8197 0.95503 0.49091 0.0
H340 H 0.70128 0.95254 0.49126 0.0
H341 H 0.67678 0.06942 0.51123 0.0
H342 H 0.79627 0.07229 0.50912 0.0
H343 H 0.57711 0.05247 0.46984 0.0
H344 H 0.66972 0.99745 0.57869 0.0
H345 H 0.74704 0.95361 0.61213 0.0
H346 H 0.66633 0.86352 0.55397 0.0
H347 H 0.5886 0.90687 0.52015 0.0
C348 C 0.28007 0.0334 0.5172 0.0
C349 C 0.25051 0.99994 0.51495 0.0
C350 C 0.34844 0.03447 0.51558 0.0
C351 C 0.39057 1.0023 0.51065 0.0
C352 C 0.36138 0.96861 0.50939 0.0
C353 C 0.29262 0.96743 0.51161 0.0
C354 C 0.46426 1.00407 0.50709 0.0
C355 C 0.51034 0.97969 0.52587 0.0
C356 C 0.48984 0.03047 0.48635 0.0
C357 C 0.44594 0.05564 0.46349 0.0
C358 C 0.39913 0.04183 0.43878 0.0
C359 C 0.35608 0.06583 0.41845 0.0
C360 C 0.3598 0.10371 0.42231 0.0
C361 C 0.40698 0.11764 0.44624 0.0
C362 C 0.45014 0.09377 0.46663 0.0
C363 C 0.78949 0.98043 0.49525 0.0
C364 C 0.81876 0.0139 0.50016 0.0
C365 C 0.72099 0.97888 0.49582 0.0
C366 C 0.67853 0.01054 0.50238 0.0
C367 C 0.70738 0.04428 0.50639 0.0
C368 C 0.77624 0.04596 0.50521 0.0
C369 C 0.60483 1.00825 0.50509 0.0
C370 C 0.55888 0.03247 0.48612 0.0
C371 C 0.57931 0.98147 0.52527 0.0
C372 C 0.62355 0.95539 0.54685 0.0
C373 C 0.66835 0.96828 0.57314 0.0
C374 C 0.71228 0.94353 0.59213 0.0
C375 C 0.71163 0.90581 0.58516 0.0
C376 C 0.66668 0.89274 0.55939 0.0
C377 C 0.62252 0.91738 0.5404 0.0
H378 H 0.74594 0.8867 0.59972 0.0
H379 H 0.3263 0.12227 0.40671 0.0
H380 H 0.74626 0.53829 0.92317 0.0
H381 H 0.86584 0.52956 0.91948 0.0
H382 H 0.89301 0.57437 0.02536 0.0
H383 H 0.77486 0.5854 0.02812 0.0
H384 H 0.99602 0.58211 0.99348 0.0
H385 H 0.87758 0.46872 0.0134 0.0
H386 H 0.79461 0.42613 0.99531 0.0
H387 H 0.85721 0.42112 0.88977 0.0
H388 H 0.94294 0.46279 0.90804 0.0
H389 H 0.26068 0.48902 0.07846 0.0
H390 H 0.14167 0.50184 0.06703 0.0
H391 H 0.15321 0.44681 0.96518 0.0
H392 H 0.27 0.43109 0.97783 0.0
H393 H 0.03674 0.44642 0.98376 0.0
H394 H 0.18964 0.54235 0.98339 0.0
H395 H 0.27327 0.5788 0.01344 0.0
H396 H 0.13729 0.6184 0.08995 0.0
H397 H 0.05304 0.58156 0.06048 0.0
C398 C 0.77812 0.54781 0.94487 0.0
C399 C 0.75221 0.5613 0.97634 0.0
C400 C 0.8461 0.54251 0.94288 0.0
C401 C 0.8878 0.54958 0.97274 0.0
C402 C 0.86168 0.56813 1.00215 0.0
C403 C 0.79403 0.57426 1.00381 0.0
C404 C 0.9552 0.53167 0.97679 0.0
C405 C 1.00534 0.5525 0.99088 0.0
C406 C 0.96743 0.49305 0.97342 0.0
C407 C 0.91553 0.46903 0.96189 0.0
C408 C 0.87329 0.45859 0.98633 0.0
C409 C 0.82593 0.43452 0.97602 0.0
C410 C 0.81978 0.42118 0.94117 0.0
C411 C 0.86181 0.43156 0.9167 0.0
C412 C 0.91014 0.45516 0.92708 0.0
C413 C 0.23694 0.478 0.05454 0.0
C414 C 0.27419 0.46045 0.02836 0.0
C415 C 0.16933 0.48575 0.04778 0.0
C416 C 0.13997 0.47737 0.01432 0.0
C417 C 0.17539 0.45448 0.99077 0.0
C418 C 0.24227 0.44552 0.99806 0.0
C419 C 0.077 0.49676 1.00147 0.0
C420 C 0.02834 0.47613 0.9854 0.0
C421 C 0.06594 0.53555 1.00352 0.0
C422 C 0.11544 0.55907 0.01993 0.0
C423 C 0.17768 0.55888 0.00659 0.0
C424 C 0.22522 0.57958 0.02363 0.0
C425 C 0.21071 0.60087 0.05377 0.0
C426 C 0.14848 0.60178 0.06672 0.0
C427 C 0.10083 0.58105 0.04984 0.0
H428 H 0.24742 0.61666 0.06731 0.0
H429 H 0.78284 0.40265 0.93312 0.0
H430 H 0.28455 0.57418 0.49018 0.0
H431 H 0.16489 0.57282 0.49195 0.0
H432 H 0.19349 0.46112 0.52583 0.0
H433 H 0.31194 0.46187 0.523 0.0
H434 H 0.09277 0.46508 0.48057 0.0
H435 H 0.15145 0.53951 0.58227 0.0
H436 H 0.19916 0.59137 0.61475 0.0
H437 H 0.06861 0.66754 0.55415 0.0
H438 H 1.02072 0.61609 0.52097 0.0
H439 H 0.76417 0.45204 0.53327 0.0
H440 H 0.88407 0.45381 0.53306 0.0
H441 H 0.85586 0.56471 0.49692 0.0
H442 H 0.73716 0.5633 0.49754 0.0
H443 H 0.95594 0.5615 0.54314 0.0
H444 H 0.90275 0.48559 0.43992 0.0
H445 H 0.85574 0.43306 0.40806 0.0
H446 H 0.97636 0.35832 0.47506 0.0
H447 H 1.02302 0.41047 0.50771 0.0
C448 C 0.26551 0.54926 0.49793 0.0
C449 C 0.30915 0.5182 0.5064 0.0
C450 C 0.19653 0.54853 0.49917 0.0
C451 C 0.16866 0.51688 0.50934 0.0
C452 C 0.21237 0.48592 0.51764 0.0
C453 C 0.28093 0.48651 0.51614 0.0
C454 C 0.09466 0.51554 0.51126 0.0
C455 C 0.0635 0.48588 0.49495 0.0
C456 C 0.05439 0.54299 0.52896 0.0
C457 C 0.08302 0.57395 0.54887 0.0
C458 C 0.13327 0.56732 0.57569 0.0
C459 C 0.16029 0.59664 0.59425 0.0
C460 C 0.13707 0.63273 0.58644 0.0
C461 C 0.08664 0.63957 0.56012 0.0
C462 C 0.05952 0.61034 0.54144 0.0
C463 C 0.78337 0.47684 0.52531 0.0
C464 C 0.73977 0.50738 0.51527 0.0
C465 C 0.85246 0.4778 0.52495 0.0
C466 C 0.88047 0.50928 0.51444 0.0
C467 C 0.83683 0.53993 0.50509 0.0
C468 C 0.76814 0.53896 0.50536 0.0
C469 C 0.9545 0.51065 0.51298 0.0
C470 C 0.98553 0.54043 0.52917 0.0
C471 C 0.99485 0.48313 0.49552 0.0
C472 C 0.96642 0.45185 0.47617 0.0
C473 C 0.91899 0.45794 0.44791 0.0
C474 C 0.89236 0.42825 0.42975 0.0
C475 C 0.91307 0.39237 0.43951 0.0
C476 C 0.96043 0.38611 0.46748 0.0
C477 C 0.98706 0.4157 0.48577 0.0
H478 H 0.89243 0.36943 0.4254 0.0
H479 H 0.15804 0.6554 0.60085 0.0
H480 H 0.14714 0.97657 0.39904 0.0
H481 H 0.14191 0.98647 0.33565 0.0
H482 H 0.94402 0.0374 0.33981 0.0
H483 H 0.94971 0.0284 0.40383 0.0
H484 H 0.96943 0.97652 0.28442 0.0
H485 H 0.04301 0.09214 0.32753 0.0
H486 H 0.11452 0.1304 0.36517 0.0
H487 H 0.28425 0.08019 0.31626 0.0
H488 H 0.21383 0.04118 0.27867 0.0
H489 H 0.95786 0.01971 0.10214 0.0
H490 H 0.94573 0.02019 0.1657 0.0
H491 H 0.1572 0.01322 0.18485 0.0
H492 H 0.16859 0.01567 0.12167 0.0
H493 H 0.11386 0.05694 0.23005 0.0
H494 H 0.04948 0.9375 0.19208 0.0
H495 H 0.98484 0.89379 0.15679 0.0
H496 H 0.80691 0.94433 0.19735 0.0
H497 H 0.87046 0.98861 0.23258 0.0
C498 C 0.1028 0.99033 0.38654 0.0
C499 C 0.04892 1.00183 0.40635 0.0
C500 C 0.09982 0.99587 0.35032 0.0
C501 C 0.04249 0.01249 0.33296 0.0
C502 C 0.98866 0.02441 0.3527 0.0
C503 C 0.99214 0.01954 0.38924 0.0
C504 C 0.03944 0.01673 0.29413 0.0
C505 C 0.99997 0.99459 0.27238 0.0
C506 C 0.08083 0.03944 0.27856 0.0
C507 C 0.12314 0.06358 0.30042 0.0
C508 C 0.09562 0.0891 0.32492 0.0
C509 C 0.13594 0.11094 0.34624 0.0
C510 C 0.20386 0.10771 0.34311 0.0
C511 C 0.2316 0.08268 0.31862 0.0
C512 C 0.19149 0.06073 0.29726 0.0
C513 C 1.00158 0.01791 0.12002 0.0
C514 C 0.06416 0.01727 0.107 0.0
C515 C 0.99476 0.01805 0.15646 0.0
C516 C 0.05057 0.01611 0.18059 0.0
C517 C 0.11312 0.0149 0.16721 0.0
C518 C 0.11973 0.01596 0.13097 0.0
C519 C 0.04458 0.01604 0.21967 0.0
C520 C 0.08259 0.03899 0.24169 0.0
C521 C 1.00278 0.99343 0.2355 0.0
C522 C 0.96463 0.96659 0.21465 0.0
C523 C 0.99653 0.9394 0.19331 0.0
C524 C 0.9601 0.91452 0.17334 0.0
C525 C 0.89179 0.91635 0.17475 0.0
C526 C 0.85981 0.94298 0.19624 0.0
C527 C 0.896 0.96795 0.21624 0.0
H528 H 0.86367 0.89709 0.15924 0.0
H529 H 0.23493 0.12469 0.35959 0.0
H530 H 0.98973 0.93631 0.89492 0.0
H531 H 1.00561 0.93936 0.83202 0.0
H532 H 0.02824 0.05514 0.84492 0.0
H533 H 1.01322 0.0521 0.90817 0.0
H534 H 0.93896 0.03793 0.78848 0.0
H535 H 0.15863 0.99892 0.83219 0.0
H536 H 0.24403 0.95957 0.86535 0.0
H537 H 0.19571 0.86649 0.79992 0.0
H538 H 0.10917 0.90521 0.76671 0.0
H539 H 0.05522 0.0782 0.62838 0.0
H540 H 0.04989 0.06672 0.6905 0.0
H541 H 0.03082 0.95213 0.66585 0.0
H542 H 0.03663 0.9636 0.60266 0.0
H543 H 0.11551 0.9647 0.72742 0.0
H544 H 0.89723 1.00415 0.6828 0.0
H545 H 0.81144 0.04367 0.65006 0.0
H546 H 0.85637 0.1357 0.71775 0.0
H547 H 0.94317 0.09685 0.75059 0.0
C548 C 0.99861 0.96237 0.88441 0.0
C549 C 1.00009 0.99399 0.90645 0.0
C550 C 1.00784 0.96405 0.84845 0.0
C551 C 1.01824 0.99745 0.83367 0.0
C552 C 1.02023 0.02906 0.85571 0.0
C553 C 1.01187 0.02729 0.89184 0.0
C554 C 0.02476 0.99955 0.79504 0.0
C555 C 0.97804 0.02225 0.77524 0.0
C556 C 0.0745 0.97819 0.77749 0.0
C557 C 0.1269 0.9549 0.79719 0.0
C558 C 0.16579 0.97 0.82506 0.0
C559 C 0.21448 0.94782 0.84384 0.0
C560 C 0.22516 0.91053 0.83482 0.0
C561 C 0.1873 0.89537 0.80692 0.0
C562 C 0.13844 0.91743 0.78809 0.0
C563 C 0.05025 0.05041 0.636 0.0
C564 C 0.04572 0.02185 0.61047 0.0
C565 C 0.0471 0.04393 0.67166 0.0
C566 C 0.03889 1.00871 0.68295 0.0
C567 C 0.03688 0.9796 0.65775 0.0
C568 C 0.04007 0.98615 0.62169 0.0
C569 C 0.03003 1.00339 0.72096 0.0
C570 C 0.07618 0.98015 0.74065 0.0
C571 C 0.97961 0.02419 0.73852 0.0
C572 C 0.9271 0.04763 0.71899 0.0
C573 C 0.88917 0.03288 0.69055 0.0
C574 C 0.8403 0.05515 0.67199 0.0
C575 C 0.82855 0.09219 0.68177 0.0
C576 C 0.86556 0.10701 0.71019 0.0
C577 C 0.91456 0.08486 0.72881 0.0
H578 H 0.7907 0.1094 0.66737 0.0
H579 H 0.26288 0.89339 0.84939 0.0
H580 H 0.50259 0.55769 0.41239 0.0
H581 H 0.4996 0.56748 0.34874 0.0
H582 H 0.54509 0.45112 0.33036 0.0
H583 H 0.55281 0.44197 0.39333 0.0
H584 H 0.61278 0.48135 0.29156 0.0
H585 H 0.38351 0.50244 0.31298 0.0
H586 H 0.28639 0.53177 0.3411 0.0
H587 H 0.3248 0.63649 0.30377 0.0
H588 H 0.42267 0.60784 0.27578 0.0
H589 H 0.5241 0.46814 0.10781 0.0
H590 H 0.51642 0.46472 0.17161 0.0
H591 H 0.5289 0.58154 0.18317 0.0
H592 H 0.53718 0.58506 0.11953 0.0
H593 H 0.43299 0.55466 0.22449 0.0
H594 H 0.66205 0.52764 0.2 0.0
H595 H 0.75265 0.4936 0.16995 0.0
H596 H 0.70513 0.39293 0.21231 0.0
H597 H 0.6134 0.42626 0.24201 0.0
C598 C 0.512 0.53437 0.39462 0.0
C599 C 0.52845 0.49916 0.40788 0.0
C600 C 0.50974 0.53985 0.35816 0.0
C601 C 0.5216 0.50999 0.33428 0.0
C602 C 0.5364 0.47479 0.34784 0.0
C603 C 0.54052 0.46954 0.38404 0.0
C604 C 0.52086 0.5148 0.29532 0.0
C605 C 0.57274 0.49702 0.27705 0.0
C606 C 0.46967 0.5358 0.27594 0.0
C607 C 0.4108 0.55307 0.29263 0.0
C608 C 0.37149 0.53177 0.31098 0.0
C609 C 0.31628 0.54826 0.32686 0.0
C610 C 0.29955 0.58599 0.32431 0.0
C611 C 0.33789 0.60728 0.30578 0.0
C612 C 0.39321 0.59093 0.28988 0.0
C613 C 0.52474 0.4931 0.12394 0.0
C614 C 0.53189 0.52681 0.10876 0.0
C615 C 0.52038 0.49113 0.16037 0.0
C616 C 0.52257 0.52286 0.18222 0.0
C617 C 0.52711 0.55674 0.16687 0.0
C618 C 0.53217 0.55866 0.13053 0.0
C619 C 0.52376 0.52046 0.22121 0.0
C620 C 0.47253 0.53892 0.23931 0.0
C621 C 0.5746 0.49932 0.24043 0.0
C622 C 0.63046 0.47941 0.22296 0.0
C623 C 0.67059 0.4982 0.20267 0.0
C624 C 0.72216 0.47902 0.18569 0.0
C625 C 0.73447 0.44109 0.18907 0.0
C626 C 0.6954 0.42228 0.20957 0.0
C627 C 0.64364 0.4413 0.2265 0.0
H628 H 0.7744 0.42628 0.17591 0.0
H629 H 0.25679 0.5987 0.33663 0.0
H630 H 0.52922 0.47076 0.60228 0.0
H631 H 0.52766 0.458 0.66524 0.0
H632 H 0.55727 0.57115 0.69175 0.0
H633 H 0.55852 0.58386 0.62943 0.0
H634 H 0.63365 0.52457 0.73522 0.0
H635 H 0.40573 0.54186 0.69018 0.0
H636 H 0.31074 0.52777 0.64992 0.0
H637 H 0.32775 0.41719 0.68576 0.0
H638 H 0.42343 0.43053 0.72593 0.0
H639 H 0.52742 0.55216 0.90889 0.0
H640 H 0.54409 0.55464 0.8459 0.0
H641 H 0.49451 0.44281 0.83087 0.0
H642 H 0.47696 0.44046 0.89352 0.0
H643 H 0.43302 0.48263 0.78081 0.0
H644 H 0.65495 0.46622 0.82964 0.0
H645 H 0.75537 0.47799 0.86663 0.0
H646 H 0.75382 0.5844 0.82258 0.0
H647 H 0.65282 0.57357 0.78576 0.0
C648 C 0.53577 0.49272 0.62162 0.0
C649 C 0.54348 0.52832 0.61095 0.0
C650 C 0.53471 0.48549 0.65754 0.0
C651 C 0.54182 0.51373 0.68327 0.0
C652 C 0.55171 0.54892 0.6725 0.0
C653 C 0.55219 0.55616 0.63681 0.0
C654 C 0.53703 0.50747 0.7214 0.0
C655 C 0.58961 0.51566 0.74528 0.0
C656 C 0.48028 0.49493 0.73445 0.0
C657 C 0.42212 0.48708 0.71077 0.0
C658 C 0.38945 0.51448 0.68931 0.0
C659 C 0.33547 0.50664 0.66653 0.0
C660 C 0.31336 0.47158 0.6652 0.0
C661 C 0.34501 0.44432 0.68677 0.0
C662 C 0.39908 0.45201 0.70957 0.0
C663 C 0.52033 0.52811 0.89212 0.0
C664 C 0.50065 0.49617 0.90611 0.0
C665 C 0.53022 0.52945 0.85614 0.0
C666 C 0.52109 0.49878 0.8335 0.0
C667 C 0.50179 0.46685 0.84763 0.0
C668 C 0.49188 0.46552 0.88351 0.0
C669 C 0.52947 0.50031 0.79495 0.0
C670 C 0.47743 0.49126 0.77093 0.0
C671 C 0.58695 0.51194 0.78176 0.0
C672 C 0.64598 0.51917 0.8051 0.0
C673 C 0.67552 0.49231 0.82816 0.0
C674 C 0.73269 0.49876 0.849 0.0
C675 C 0.76102 0.53185 0.84682 0.0
C676 C 0.73187 0.55874 0.82415 0.0
C677 C 0.67468 0.55247 0.8033 0.0
H678 H 0.80567 0.53667 0.86259 0.0
H679 H 0.2716 0.46555 0.64752 0.0
loop_
_geom_bond_atom_site_label_1
_geom_bond_atom_site_label_2
_geom_bond_distance
_geom_bond_site_symmetry_2
_ccdc_geom_bond_type
Dy0 O4 2.398 . S
Dy0 O5 2.491 1_566 S
Dy0 O6 2.403 . S
Dy0 O7 2.677 1_655 S
Dy0 O11 2.326 1_565 S
Dy0 O15 2.310 1_566 S
Dy0 O16 2.351 1_655 S
C1 O12 1.185 . S
C1 O13 1.355 1_544 S
C2 O4 1.185 . S
C2 O5 1.355 1_566 S
Dy3 O7 2.296 1_544 S
Dy3 O10 2.351 1_455 S
Dy3 O12 2.398 . S
Dy3 O13 2.491 1_544 S
Dy3 O14 2.403 . S
Dy3 O15 2.664 1_455 S
Dy3 O17 2.326 1_545 S
O4 Dy0 2.398 . S
O4 C2 1.185 . S
O5 Dy0 2.491 1_544 S
O5 C2 1.355 1_544 S
O6 Dy0 2.403 . S
O6 C8 1.254 . S
O7 Dy0 2.677 1_455 S
O7 Dy3 2.296 1_566 S
O7 C8 1.274 1_455 S
C8 O6 1.254 . S
C8 O7 1.274 1_655 S
C9 O14 1.254 . S
C9 O15 1.268 1_455 S
O10 Dy3 2.351 1_655 S
O10 C18 1.249 1_554 S
O11 Dy0 2.326 1_545 S
O11 C18 1.267 . S
O12 C1 1.185 . S
O12 Dy3 2.398 . S
O13 C1 1.355 1_566 S
O13 Dy3 2.491 1_566 S
O14 Dy3 2.403 . S
O14 C9 1.254 . S
O15 Dy0 2.310 1_544 S
O15 Dy3 2.664 1_655 S
O15 C9 1.268 1_655 S
O16 Dy0 2.351 1_455 S
O16 C19 1.249 1_556 S
O17 Dy3 2.326 1_565 S
O17 C19 1.267 . S
C18 O10 1.249 1_556 S
C18 O11 1.267 . S
C19 O16 1.249 1_554 S
C19 O17 1.267 . S
Dy20 O24 2.398 1_455 S
Dy20 O25 2.491 1_455 S
Dy20 O26 2.403 1_455 S
Dy20 O27 2.664 1_565 S
Dy20 O31 2.326 1_455 S
Dy20 O35 2.310 1_455 S
Dy20 O36 2.351 . S
C21 O32 1.185 . S
C21 O33 1.355 . S
C22 O24 1.185 . S
C22 O25 1.355 . S
Dy23 O27 2.310 1_655 S
Dy23 O30 2.351 . S
Dy23 O32 2.398 1_655 S
Dy23 O33 2.491 1_655 S
Dy23 O34 2.403 1_655 S
Dy23 O35 2.664 1_545 S
Dy23 O37 2.326 1_655 S
O24 Dy20 2.398 1_655 S
O24 C22 1.185 . S
O25 Dy20 2.491 1_655 S
O25 C22 1.355 . S
O26 Dy20 2.403 1_655 S
O26 C28 1.250 1_655 S
O27 Dy20 2.664 1_545 S
O27 Dy23 2.310 1_455 S
O27 C28 1.270 1_545 S
C28 O26 1.250 1_455 S
C28 O27 1.270 1_565 S
C29 O34 1.251 1_655 S
C29 O35 1.269 1_545 S
O30 Dy23 2.351 . S
O30 C38 1.249 . S
O31 Dy20 2.326 1_655 S
O31 C38 1.267 1_565 S
O32 C21 1.185 . S
O32 Dy23 2.398 1_455 S
O33 C21 1.355 . S
O33 Dy23 2.491 1_455 S
O34 Dy23 2.403 1_455 S
O34 C29 1.251 1_455 S
O35 Dy20 2.310 1_655 S
O35 Dy23 2.664 1_565 S
O35 C29 1.269 1_565 S
O36 Dy20 2.351 . S
O36 C39 1.249 . S
O37 Dy23 2.326 1_455 S
O37 C39 1.267 1_545 S
C38 O30 1.249 . S
C38 O31 1.267 1_545 S
C39 O36 1.249 . S
C39 O37 1.267 1_565 S
Dy40 O44 2.398 . S
Dy40 O45 2.491 1_556 S
Dy40 O46 2.403 . S
Dy40 O47 2.664 . S
Dy40 O51 2.326 . S
Dy40 O55 2.310 1_556 S
Dy40 O56 2.351 . S
C41 O52 1.185 . S
C41 O53 1.355 1_554 S
C42 O44 1.185 . S
C42 O45 1.355 1_556 S
Dy43 O47 2.310 1_554 S
Dy43 O50 2.351 . S
Dy43 O52 2.398 . S
Dy43 O53 2.491 1_554 S
Dy43 O54 2.403 . S
Dy43 O55 2.664 . S
Dy43 O57 2.326 . S
O44 Dy40 2.398 . S
O44 C42 1.185 . S
O45 Dy40 2.491 1_554 S
O45 C42 1.355 1_554 S
O46 Dy40 2.403 . S
O46 C48 1.254 . S
O47 Dy40 2.664 . S
O47 Dy43 2.310 1_556 S
O47 C48 1.268 . S
C48 O46 1.254 . S
C48 O47 1.268 . S
C49 O54 1.254 . S
C49 O55 1.268 . S
O50 Dy43 2.351 . S
O50 C58 1.249 1_554 S
O51 Dy40 2.326 . S
O51 C58 1.267 . S
O52 C41 1.185 . S
O52 Dy43 2.398 . S
O53 C41 1.355 1_556 S
O53 Dy43 2.491 1_556 S
O54 Dy43 2.403 . S
O54 C49 1.254 . S
O55 Dy40 2.310 1_554 S
O55 Dy43 2.664 . S
O55 C49 1.268 . S
O56 Dy40 2.351 . S
O56 C59 1.249 1_556 S
O57 Dy43 2.326 . S
O57 C59 1.267 . S
C58 O50 1.249 1_556 S
C58 O51 1.267 . S
C59 O56 1.249 1_554 S
C59 O57 1.267 . S
Dy60 O64 2.398 . S
Dy60 O65 2.491 . S
Dy60 O66 2.403 . S
Dy60 O67 2.664 . S
Dy60 O71 2.326 . S
Dy60 O75 2.310 . S
Dy60 O76 2.351 . S
C61 O72 1.185 . S
C61 O73 1.355 . S
C62 O64 1.185 . S
C62 O65 1.355 . S
Dy63 O67 2.310 . S
Dy63 O70 2.351 . S
Dy63 O72 2.398 . S
Dy63 O73 2.491 . S
Dy63 O74 2.403 . S
Dy63 O75 2.664 . S
Dy63 O77 2.326 . S
O64 Dy60 2.398 . S
O64 C62 1.185 . S
O65 Dy60 2.491 . S
O65 C62 1.355 . S
O66 Dy60 2.403 . S
O66 C68 1.254 . S
O67 Dy60 2.664 . S
O67 Dy63 2.310 . S
O67 C68 1.268 . S
C68 O66 1.254 . S
C68 O67 1.268 . S
C69 O74 1.254 . S
C69 O75 1.268 . S
O70 Dy63 2.351 . S
O70 C78 1.249 . S
O71 Dy60 2.326 . S
O71 C78 1.267 . S
O72 C61 1.185 . S
O72 Dy63 2.398 . S
O73 C61 1.355 . S
O73 Dy63 2.491 . S
O74 Dy63 2.403 . S
O74 C69 1.254 . S
O75 Dy60 2.310 . S
O75 Dy63 2.664 . S
O75 C69 1.268 . S
O76 Dy60 2.351 . S
O76 C79 1.249 . S
O77 Dy63 2.326 . S
O77 C79 1.267 . S
C78 O70 1.249 . S
C78 O71 1.267 . S
C79 O76 1.249 . S
C79 O77 1.267 . S
H80 C98 0.951 . S
H81 C100 0.951 . S
H82 C102 0.950 . S
H83 C103 0.950 . S
H84 C105 0.950 . S
H85 C108 0.950 . S
H86 C109 0.950 . S
H87 C111 0.950 . S
H88 C112 0.950 . S
H89 C113 0.951 . S
H90 C115 0.951 . S
H91 C117 0.950 . S
H92 C118 0.950 . S
H93 C120 0.950 . S
H94 C123 0.950 . S
H95 C124 0.950 . S
H96 C126 0.950 . S
H97 C127 0.950 . S
C98 H80 0.951 . S
C98 C99 1.366 1_556 S
C98 C100 1.388 . S
C99 C98 1.366 1_554 S
C99 C103 1.385 . S
C100 H81 0.951 . S
C100 C98 1.388 . S
C100 C101 1.366 . S
C101 C100 1.366 . S
C101 C102 1.414 1_556 S
C101 C104 1.499 . S
C102 H82 0.950 . S
C102 C101 1.414 1_554 S
C102 C103 1.374 . S
C103 H83 0.950 . S
C103 C99 1.385 . S
C103 C102 1.374 . S
C104 C101 1.499 . S
C104 C105 1.373 1_556 S
C104 C106 1.389 . S
C105 H84 0.950 . S
C105 C104 1.373 1_554 S
C105 C121 1.377 . S
C106 C104 1.389 . S
C106 C107 1.524 . S
C106 C120 1.377 . S
C107 C106 1.524 . S
C107 C108 1.397 . S
C107 C112 1.363 . S
C108 H85 0.950 . S
C108 C107 1.397 . S
C108 C109 1.334 . S
C109 H86 0.950 . S
C109 C108 1.334 . S
C109 C110 1.287 . S
C110 C109 1.287 . S
C110 C111 1.524 . S
C110 H129 0.913 . S
C111 H87 0.950 . S
C111 C110 1.524 . S
C111 C112 1.415 . S
C112 H88 0.950 . S
C112 C107 1.363 . S
C112 C111 1.415 . S
C113 H89 0.951 . S
C113 C114 1.366 1_554 S
C113 C115 1.388 . S
C114 C113 1.366 1_556 S
C114 C118 1.385 . S
C115 H90 0.951 . S
C115 C113 1.388 . S
C115 C116 1.366 . S
C116 C115 1.366 . S
C116 C117 1.414 1_554 S
C116 C119 1.499 . S
C117 H91 0.950 . S
C117 C116 1.414 1_556 S
C117 C118 1.374 . S
C118 H92 0.950 . S
C118 C114 1.385 . S
C118 C117 1.374 . S
C119 C116 1.499 . S
C119 C120 1.373 1_554 S
C119 C121 1.389 . S
C120 H93 0.950 . S
C120 C106 1.377 . S
C120 C119 1.373 1_556 S
C121 C105 1.377 . S
C121 C119 1.389 . S
C121 C122 1.524 . S
C122 C121 1.524 . S
C122 C123 1.397 . S
C122 C127 1.363 . S
C123 H94 0.950 . S
C123 C122 1.397 . S
C123 C124 1.334 . S
C124 H95 0.950 . S
C124 C123 1.334 . S
C124 C125 1.287 . S
C125 C124 1.287 . S
C125 C126 1.524 . S
C125 H128 0.999 . S
C126 H96 0.950 . S
C126 C125 1.524 . S
C126 C127 1.415 . S
C127 H97 0.950 . S
C127 C122 1.363 . S
C127 C126 1.415 . S
H128 C125 0.999 . S
H129 C110 0.913 . S
H130 C148 0.951 . S
H131 C150 0.951 . S
H132 C152 0.950 . S
H133 C153 0.950 . S
H134 C155 0.950 . S
H135 C158 0.950 . S
H136 C159 0.950 . S
H137 C161 0.950 . S
H138 C162 0.950 . S
H139 C163 0.951 . S
H140 C165 0.951 . S
H141 C167 0.950 . S
H142 C168 0.950 . S
H143 C170 0.950 . S
H144 C173 0.950 . S
H145 C174 0.950 . S
H146 C176 0.950 . S
H147 C177 0.950 . S
C148 H130 0.951 . S
C148 C149 1.366 1_554 S
C148 C150 1.388 . S
C149 C148 1.366 1_556 S
C149 C153 1.385 . S
C150 H131 0.951 . S
C150 C148 1.388 . S
C150 C151 1.366 . S
C151 C150 1.366 . S
C151 C152 1.414 1_554 S
C151 C154 1.499 . S
C152 H132 0.950 . S
C152 C151 1.414 1_556 S
C152 C153 1.374 . S
C153 H133 0.950 . S
C153 C149 1.385 . S
C153 C152 1.374 . S
C154 C151 1.499 . S
C154 C155 1.373 1_554 S
C154 C156 1.389 . S
C155 H134 0.950 . S
C155 C154 1.373 1_556 S
C155 C171 1.377 . S
C156 C154 1.389 . S
C156 C157 1.524 . S
C156 C170 1.377 . S
C157 C156 1.524 . S
C157 C158 1.397 . S
C157 C162 1.363 . S
C158 H135 0.950 . S
C158 C157 1.397 . S
C158 C159 1.334 . S
C159 H136 0.950 . S
C159 C158 1.334 . S
C159 C160 1.287 . S
C160 C159 1.287 . S
C160 C161 1.524 . S
C160 H179 0.913 . S
C161 H137 0.950 . S
C161 C160 1.524 . S
C161 C162 1.415 . S
C162 H138 0.950 . S
C162 C157 1.363 . S
C162 C161 1.415 . S
C163 H139 0.951 . S
C163 C164 1.366 1_556 S
C163 C165 1.388 . S
C164 C163 1.366 1_554 S
C164 C168 1.385 . S
C165 H140 0.951 . S
C165 C163 1.388 . S
C165 C166 1.366 . S
C166 C165 1.366 . S
C166 C167 1.414 1_556 S
C166 C169 1.499 . S
C167 H141 0.950 . S
C167 C166 1.414 1_554 S
C167 C168 1.374 . S
C168 H142 0.950 . S
C168 C164 1.385 . S
C168 C167 1.374 . S
C169 C166 1.499 . S
C169 C170 1.373 1_556 S
C169 C171 1.389 . S
C170 H143 0.950 . S
C170 C156 1.377 . S
C170 C169 1.373 1_554 S
C171 C155 1.377 . S
C171 C169 1.389 . S
C171 C172 1.524 . S
C172 C171 1.524 . S
C172 C173 1.397 . S
C172 C177 1.363 . S
C173 H144 0.950 . S
C173 C172 1.397 . S
C173 C174 1.334 . S
C174 H145 0.950 . S
C174 C173 1.334 . S
C174 C175 1.287 . S
C175 C174 1.287 . S
C175 C176 1.524 . S
C175 H178 0.999 . S
C176 H146 0.950 . S
C176 C175 1.524 . S
C176 C177 1.415 . S
C177 H147 0.950 . S
C177 C172 1.363 . S
C177 C176 1.415 . S
H178 C175 0.999 . S
H179 C160 0.913 . S
H180 C198 0.951 . S
H181 C200 0.951 . S
H182 C202 0.950 . S
H183 C203 0.950 . S
H184 C205 0.950 . S
H185 C208 0.950 . S
H186 C209 0.950 . S
H187 C211 0.950 . S
H188 C212 0.950 . S
H189 C213 0.951 . S
H190 C215 0.951 . S
H191 C217 0.950 . S
H192 C218 0.950 . S
H193 C220 0.950 . S
H194 C223 0.950 . S
H195 C224 0.950 . S
H196 C226 0.950 . S
H197 C227 0.950 . S
C198 H180 0.951 . S
C198 C199 1.366 . S
C198 C200 1.388 . S
C199 C198 1.366 . S
C199 C203 1.385 . S
C200 H181 0.951 . S
C200 C198 1.388 . S
C200 C201 1.366 . S
C201 C200 1.366 . S
C201 C202 1.414 . S
C201 C204 1.499 . S
C202 H182 0.950 . S
C202 C201 1.414 . S
C202 C203 1.374 . S
C203 H183 0.950 . S
C203 C199 1.385 . S
C203 C202 1.374 . S
C204 C201 1.499 . S
C204 C205 1.373 . S
C204 C206 1.389 . S
C205 H184 0.950 . S
C205 C204 1.373 . S
C205 C221 1.377 . S
C206 C204 1.389 . S
C206 C207 1.524 . S
C206 C220 1.377 . S
C207 C206 1.524 . S
C207 C208 1.397 . S
C207 C212 1.363 . S
C208 H185 0.950 . S
C208 C207 1.397 . S
C208 C209 1.334 . S
C209 H186 0.950 . S
C209 C208 1.334 . S
C209 C210 1.287 . S
C210 C209 1.287 . S
C210 C211 1.524 . S
C210 H229 0.913 . S
C211 H187 0.950 . S
C211 C210 1.524 . S
C211 C212 1.415 . S
C212 H188 0.950 . S
C212 C207 1.363 . S
C212 C211 1.415 . S
C213 H189 0.951 . S
C213 C214 1.366 . S
C213 C215 1.388 . S
C214 C213 1.366 . S
C214 C218 1.385 . S
C215 H190 0.951 . S
C215 C213 1.388 . S
C215 C216 1.366 . S
C216 C215 1.366 . S
C216 C217 1.414 . S
C216 C219 1.499 . S
C217 H191 0.950 . S
C217 C216 1.414 . S
C217 C218 1.374 . S
C218 H192 0.950 . S
C218 C214 1.385 . S
C218 C217 1.374 . S
C219 C216 1.499 . S
C219 C220 1.373 . S
C219 C221 1.389 . S
C220 H193 0.950 . S
C220 C206 1.377 . S
C220 C219 1.373 . S
C221 C205 1.377 . S
C221 C219 1.389 . S
C221 C222 1.524 . S
C222 C221 1.524 . S
C222 C223 1.397 . S
C222 C227 1.363 . S
C223 H194 0.950 . S
C223 C222 1.397 . S
C223 C224 1.334 . S
C224 H195 0.950 . S
C224 C223 1.334 . S
C224 C225 1.287 . S
C225 C224 1.287 . S
C225 C226 1.524 . S
C225 H228 0.999 . S
C226 H196 0.950 . S
C226 C225 1.524 . S
C226 C227 1.415 . S
C227 H197 0.950 . S
C227 C222 1.363 . S
C227 C226 1.415 . S
H228 C225 0.999 . S
H229 C210 0.913 . S
H230 C248 0.951 . S
H231 C250 0.951 . S
H232 C252 0.950 . S
H233 C253 0.950 . S
H234 C255 0.950 . S
H235 C258 0.950 . S
H236 C259 0.950 . S
H237 C261 0.950 . S
H238 C262 0.950 . S
H239 C263 0.951 . S
H240 C265 0.951 . S
H241 C267 0.950 . S
H242 C268 0.950 . S
H243 C270 0.950 . S
H244 C273 0.950 . S
H245 C274 0.950 . S
H246 C276 0.950 . S
H247 C277 0.950 . S
C248 H230 0.951 . S
C248 C249 1.366 . S
C248 C250 1.388 . S
C249 C248 1.366 . S
C249 C253 1.385 . S
C250 H231 0.951 . S
C250 C248 1.388 . S
C250 C251 1.366 . S
C251 C250 1.366 . S
C251 C252 1.414 . S
C251 C254 1.499 . S
C252 H232 0.950 . S
C252 C251 1.414 . S
C252 C253 1.374 . S
C253 H233 0.950 . S
C253 C249 1.385 . S
C253 C252 1.374 . S
C254 C251 1.499 . S
C254 C255 1.373 . S
C254 C256 1.389 . S
C255 H234 0.950 . S
C255 C254 1.373 . S
C255 C271 1.377 . S
C256 C254 1.389 . S
C256 C257 1.524 . S
C256 C270 1.377 . S
C257 C256 1.524 . S
C257 C258 1.397 . S
C257 C262 1.363 . S
C258 H235 0.950 . S
C258 C257 1.397 . S
C258 C259 1.334 . S
C259 H236 0.950 . S
C259 C258 1.334 . S
C259 C260 1.287 . S
C260 C259 1.287 . S
C260 C261 1.524 . S
C260 H279 0.913 . S
C261 H237 0.950 . S
C261 C260 1.524 . S
C261 C262 1.415 . S
C262 H238 0.950 . S
C262 C257 1.363 . S
C262 C261 1.415 . S
C263 H239 0.951 . S
C263 C264 1.366 . S
C263 C265 1.388 . S
C264 C263 1.366 . S
C264 C268 1.385 . S
C265 H240 0.951 . S
C265 C263 1.388 . S
C265 C266 1.366 . S
C266 C265 1.366 . S
C266 C267 1.414 . S
C266 C269 1.499 . S
C267 H241 0.950 . S
C267 C266 1.414 . S
C267 C268 1.374 . S
C268 H242 0.950 . S
C268 C264 1.385 . S
C268 C267 1.374 . S
C269 C266 1.499 . S
C269 C270 1.373 . S
C269 C271 1.389 . S
C270 H243 0.950 . S
C270 C256 1.377 . S
C270 C269 1.373 . S
C271 C255 1.377 . S
C271 C269 1.389 . S
C271 C272 1.524 . S
C272 C271 1.524 . S
C272 C273 1.397 . S
C272 C277 1.363 . S
C273 H244 0.950 . S
C273 C272 1.397 . S
C273 C274 1.334 . S
C274 H245 0.950 . S
C274 C273 1.334 . S
C274 C275 1.287 . S
C275 C274 1.287 . S
C275 C276 1.524 . S
C275 H278 0.999 . S
C276 H246 0.950 . S
C276 C275 1.524 . S
C276 C277 1.415 . S
C277 H247 0.950 . S
C277 C272 1.363 . S
C277 C276 1.415 . S
H278 C275 0.999 . S
H279 C260 0.913 . S
H280 C298 0.951 . S
H281 C300 0.951 . S
H282 C302 0.950 . S
H283 C303 0.950 . S
H284 C305 0.950 . S
H285 C308 0.950 . S
H286 C309 0.950 . S
H287 C311 0.950 . S
H288 C312 0.950 . S
H289 C313 0.951 . S
H290 C315 0.951 . S
H291 C317 0.950 . S
H292 C318 0.950 . S
H293 C320 0.950 . S
H294 C323 0.950 . S
H295 C324 0.950 . S
H296 C326 0.950 . S
H297 C327 0.950 . S
C298 H280 0.951 . S
C298 C299 1.376 . S
C298 C300 1.388 . S
C299 C298 1.376 . S
C299 C303 1.373 1_564 S
C300 H281 0.951 . S
C300 C298 1.388 . S
C300 C301 1.391 . S
C301 C300 1.391 . S
C301 C302 1.394 1_564 S
C301 C304 1.495 1_565 S
C302 H282 0.950 . S
C302 C301 1.394 1_546 S
C302 C303 1.374 . S
C303 H283 0.950 . S
C303 C299 1.373 1_546 S
C303 C302 1.374 . S
C304 C301 1.495 1_545 S
C304 C305 1.373 1_554 S
C304 C306 1.389 1_545 S
C305 H284 0.950 . S
C305 C304 1.373 1_556 S
C305 C321 1.377 . S
C306 C304 1.389 1_565 S
C306 C307 1.524 . S
C306 C320 1.377 . S
C307 C306 1.524 . S
C307 C308 1.397 1_565 S
C307 C312 1.363 . S
C308 H285 0.950 . S
C308 C307 1.397 1_545 S
C308 C309 1.334 . S
C309 H286 0.950 . S
C309 C308 1.334 . S
C309 C310 1.287 . S
C310 C309 1.287 . S
C310 C311 1.524 1_545 S
C310 H329 0.913 . S
C311 H287 0.950 . S
C311 C310 1.524 1_565 S
C311 C312 1.415 . S
C312 H288 0.950 . S
C312 C307 1.363 . S
C312 C311 1.415 . S
C313 H289 0.951 . S
C313 C314 1.372 . S
C313 C315 1.388 . S
C314 C313 1.372 . S
C314 C318 1.377 1_546 S
C315 H290 0.951 . S
C315 C313 1.388 . S
C315 C316 1.366 . S
C316 C315 1.366 . S
C316 C317 1.414 1_546 S
C316 C319 1.494 1_545 S
C317 H291 0.950 . S
C317 C316 1.414 1_564 S
C317 C318 1.374 . S
C318 H292 0.950 . S
C318 C314 1.377 1_564 S
C318 C317 1.374 . S
C319 C316 1.494 1_565 S
C319 C320 1.378 1_556 S
C319 C321 1.388 1_565 S
C320 H293 0.950 . S
C320 C306 1.377 . S
C320 C319 1.378 1_554 S
C321 C305 1.377 . S
C321 C319 1.388 1_545 S
C321 C322 1.524 . S
C322 C321 1.524 . S
C322 C323 1.397 1_545 S
C322 C327 1.363 . S
C323 H294 0.950 . S
C323 C322 1.397 1_565 S
C323 C324 1.334 . S
C324 H295 0.950 . S
C324 C323 1.334 . S
C324 C325 1.287 . S
C325 C324 1.287 . S
C325 C326 1.524 1_565 S
C325 H328 0.999 . S
C326 H296 0.950 . S
C326 C325 1.524 1_545 S
C326 C327 1.415 . S
C327 H297 0.950 . S
C327 C322 1.363 . S
C327 C326 1.415 . S
H328 C325 0.999 . S
H329 C310 0.913 . S
H330 C348 0.951 . S
H331 C350 0.951 . S
H332 C352 0.950 . S
H333 C353 0.950 . S
H334 C355 0.950 . S
H335 C358 0.950 . S
H336 C359 0.950 . S
H337 C361 0.950 . S
H338 C362 0.950 . S
H339 C363 0.951 . S
H340 C365 0.951 . S
H341 C367 0.950 . S
H342 C368 0.950 . S
H343 C370 0.950 . S
H344 C373 0.950 . S
H345 C374 0.950 . S
H346 C376 0.950 . S
H347 C377 0.950 . S
C348 H330 0.951 . S
C348 C349 1.366 1_545 S
C348 C350 1.388 . S
C349 C348 1.366 1_565 S
C349 C353 1.385 . S
C350 H331 0.951 . S
C350 C348 1.388 . S
C350 C351 1.372 . S
C351 C350 1.372 . S
C351 C352 1.405 1_545 S
C351 C354 1.499 . S
C352 H332 0.950 . S
C352 C351 1.405 1_565 S
C352 C353 1.374 . S
C353 H333 0.950 . S
C353 C349 1.385 . S
C353 C352 1.374 . S
C354 C351 1.499 . S
C354 C355 1.360 1_545 S
C354 C356 1.404 . S
C355 H334 0.950 . S
C355 C354 1.360 1_565 S
C355 C371 1.377 . S
C356 C354 1.404 . S
C356 C357 1.524 . S
C356 C370 1.377 . S
C357 C356 1.524 . S
C357 C358 1.397 . S
C357 C362 1.363 . S
C358 H335 0.950 . S
C358 C357 1.397 . S
C358 C359 1.334 . S
C359 H336 0.950 . S
C359 C358 1.334 . S
C359 C360 1.287 . S
C360 C359 1.287 . S
C360 C361 1.524 . S
C360 H379 0.913 . S
C361 H337 0.950 . S
C361 C360 1.524 . S
C361 C362 1.415 . S
C362 H338 0.950 . S
C362 C357 1.363 . S
C362 C361 1.415 . S
C363 H339 0.951 . S
C363 C364 1.366 1_565 S
C363 C365 1.388 . S
C364 C363 1.366 1_545 S
C364 C368 1.385 . S
C365 H340 0.951 . S
C365 C363 1.388 . S
C365 C366 1.369 . S
C366 C365 1.369 . S
C366 C367 1.409 1_565 S
C366 C369 1.499 . S
C367 H341 0.950 . S
C367 C366 1.409 1_545 S
C367 C368 1.374 . S
C368 H342 0.950 . S
C368 C364 1.385 . S
C368 C367 1.374 . S
C369 C366 1.499 . S
C369 C370 1.366 1_565 S
C369 C371 1.397 . S
C370 H343 0.950 . S
C370 C356 1.377 . S
C370 C369 1.366 1_545 S
C371 C355 1.377 . S
C371 C369 1.397 . S
C371 C372 1.524 . S
C372 C371 1.524 . S
C372 C373 1.397 . S
C372 C377 1.363 . S
C373 H344 0.950 . S
C373 C372 1.397 . S
C373 C374 1.334 . S
C374 H345 0.950 . S
C374 C373 1.334 . S
C374 C375 1.287 . S
C375 C374 1.287 . S
C375 C376 1.524 . S
C375 H378 0.999 . S
C376 H346 0.950 . S
C376 C375 1.524 . S
C376 C377 1.415 . S
C377 H347 0.950 . S
C377 C372 1.363 . S
C377 C376 1.415 . S
H378 C375 0.999 . S
H379 C360 0.913 . S
H380 C398 0.951 . S
H381 C400 0.951 . S
H382 C402 0.950 . S
H383 C403 0.950 . S
H384 C405 0.950 . S
H385 C408 0.950 . S
H386 C409 0.950 1_554 S
H387 C411 0.950 . S
H388 C412 0.950 . S
H389 C413 0.951 . S
H390 C415 0.951 . S
H391 C417 0.950 . S
H392 C418 0.950 . S
H393 C420 0.950 . S
H394 C423 0.950 . S
H395 C424 0.950 1_556 S
H396 C426 0.950 . S
H397 C427 0.950 . S
C398 H380 0.951 . S
C398 C399 1.345 1_556 S
C398 C400 1.388 . S
C399 C398 1.345 1_554 S
C399 C403 1.404 . S
C400 H381 0.951 . S
C400 C398 1.388 . S
C400 C401 1.366 1_556 S
C401 C400 1.366 1_554 S
C401 C402 1.414 . S
C401 C404 1.499 . S
C402 H382 0.950 . S
C402 C401 1.414 . S
C402 C403 1.374 . S
C403 H383 0.950 . S
C403 C399 1.404 . S
C403 C402 1.374 . S
C404 C401 1.499 . S
C404 C405 1.373 . S
C404 C406 1.389 1_554 S
C405 H384 0.950 . S
C405 C404 1.373 . S
C405 C421 1.377 1_655 S
C406 C404 1.389 1_556 S
C406 C407 1.524 . S
C406 C420 1.377 1_655 S
C407 C406 1.524 . S
C407 C408 1.397 1_556 S
C407 C412 1.363 . S
C408 H385 0.950 . S
C408 C407 1.397 1_554 S
C408 C409 1.334 1_554 S
C409 H386 0.950 1_556 S
C409 C408 1.334 1_556 S
C409 C410 1.287 . S
C410 C409 1.287 . S
C410 C411 1.524 . S
C410 H429 0.913 . S
C411 H387 0.950 . S
C411 C410 1.524 . S
C411 C412 1.415 . S
C412 H388 0.950 . S
C412 C407 1.363 . S
C412 C411 1.415 . S
C413 H389 0.951 . S
C413 C414 1.352 1_554 S
C413 C415 1.388 . S
C414 C413 1.352 1_556 S
C414 C418 1.398 . S
C415 H390 0.951 . S
C415 C413 1.388 . S
C415 C416 1.342 1_554 S
C416 C415 1.342 1_556 S
C416 C417 1.439 . S
C416 C419 1.497 . S
C417 H391 0.950 . S
C417 C416 1.439 . S
C417 C418 1.374 . S
C418 H392 0.950 . S
C418 C414 1.398 . S
C418 C417 1.374 . S
C419 C416 1.497 . S
C419 C420 1.373 . S
C419 C421 1.389 1_556 S
C420 H393 0.950 . S
C420 C406 1.377 1_455 S
C420 C419 1.373 . S
C421 C405 1.377 1_455 S
C421 C419 1.389 1_554 S
C421 C422 1.524 . S
C422 C421 1.524 . S
C422 C423 1.397 1_554 S
C422 C427 1.363 . S
C423 H394 0.950 . S
C423 C422 1.397 1_556 S
C423 C424 1.334 1_556 S
C424 H395 0.950 1_554 S
C424 C423 1.334 1_554 S
C424 C425 1.287 . S
C425 C424 1.287 . S
C425 C426 1.524 . S
C425 H428 0.999 . S
C426 H396 0.950 . S
C426 C425 1.524 . S
C426 C427 1.415 . S
C427 H397 0.950 . S
C427 C422 1.363 . S
C427 C426 1.415 . S
H428 C425 0.999 . S
H429 C410 0.913 . S
H430 C448 0.951 . S
H431 C450 0.951 . S
H432 C452 0.950 . S
H433 C453 0.950 . S
H434 C455 0.950 . S
H435 C458 0.950 . S
H436 C459 0.950 . S
H437 C461 0.950 . S
H438 C462 0.950 1_655 S
H439 C463 0.951 . S
H440 C465 0.951 . S
H441 C467 0.950 . S
H442 C468 0.950 . S
H443 C470 0.950 . S
H444 C473 0.950 . S
H445 C474 0.950 . S
H446 C476 0.950 . S
H447 C477 0.950 1_455 S
C448 H430 0.951 . S
C448 C449 1.366 . S
C448 C450 1.388 . S
C449 C448 1.366 . S
C449 C453 1.385 . S
C450 H431 0.951 . S
C450 C448 1.388 . S
C450 C451 1.366 . S
C451 C450 1.366 . S
C451 C452 1.414 . S
C451 C454 1.499 . S
C452 H432 0.950 . S
C452 C451 1.414 . S
C452 C453 1.374 . S
C453 H433 0.950 . S
C453 C449 1.385 . S
C453 C452 1.374 . S
C454 C451 1.499 . S
C454 C455 1.373 . S
C454 C456 1.389 . S
C455 H434 0.950 . S
C455 C454 1.373 . S
C455 C471 1.377 1_455 S
C456 C454 1.389 . S
C456 C457 1.524 . S
C456 C470 1.377 1_455 S
C457 C456 1.524 . S
C457 C458 1.397 . S
C457 C462 1.363 . S
C458 H435 0.950 . S
C458 C457 1.397 . S
C458 C459 1.334 . S
C459 H436 0.950 . S
C459 C458 1.334 . S
C459 C460 1.287 . S
C460 C459 1.287 . S
C460 C461 1.524 . S
C460 H479 0.913 . S
C461 H437 0.950 . S
C461 C460 1.524 . S
C461 C462 1.415 . S
C462 H438 0.950 1_455 S
C462 C457 1.363 . S
C462 C461 1.415 . S
C463 H439 0.951 . S
C463 C464 1.366 . S
C463 C465 1.388 . S
C464 C463 1.366 . S
C464 C468 1.385 . S
C465 H440 0.951 . S
C465 C463 1.388 . S
C465 C466 1.366 . S
C466 C465 1.366 . S
C466 C467 1.414 . S
C466 C469 1.499 . S
C467 H441 0.950 . S
C467 C466 1.414 . S
C467 C468 1.374 . S
C468 H442 0.950 . S
C468 C464 1.385 . S
C468 C467 1.374 . S
C469 C466 1.499 . S
C469 C470 1.373 . S
C469 C471 1.389 . S
C470 H443 0.950 . S
C470 C456 1.377 1_655 S
C470 C469 1.373 . S
C471 C455 1.377 1_655 S
C471 C469 1.389 . S
C471 C472 1.524 . S
C472 C471 1.524 . S
C472 C473 1.397 . S
C472 C477 1.363 . S
C473 H444 0.950 . S
C473 C472 1.397 . S
C473 C474 1.334 . S
C474 H445 0.950 . S
C474 C473 1.334 . S
C474 C475 1.287 . S
C475 C474 1.287 . S
C475 C476 1.524 . S
C475 H478 0.999 . S
C476 H446 0.950 . S
C476 C475 1.524 . S
C476 C477 1.415 . S
C477 H447 0.950 1_655 S
C477 C472 1.363 . S
C477 C476 1.415 . S
H478 C475 0.999 . S
H479 C460 0.913 . S
H480 C498 0.951 . S
H481 C500 0.951 . S
H482 C502 0.950 . S
H483 C503 0.950 . S
H484 C505 0.950 . S
H485 C508 0.950 . S
H486 C509 0.950 . S
H487 C511 0.950 . S
H488 C512 0.950 . S
H489 C513 0.951 . S
H490 C515 0.951 . S
H491 C517 0.950 . S
H492 C518 0.950 . S
H493 C520 0.951 1_565 S
H494 C523 0.950 . S
H495 C524 0.950 . S
H496 C526 0.950 . S
H497 C527 0.950 . S
C498 H480 0.951 . S
C498 C499 1.366 1_465 S
C498 C500 1.388 . S
C499 C498 1.366 1_645 S
C499 C503 1.385 . S
C500 H481 0.951 . S
C500 C498 1.388 . S
C500 C501 1.366 1_565 S
C501 C500 1.366 1_545 S
C501 C502 1.414 1_455 S
C501 C504 1.499 . S
C502 H482 0.950 . S
C502 C501 1.414 1_655 S
C502 C503 1.374 . S
C503 H483 0.950 . S
C503 C499 1.385 . S
C503 C502 1.374 . S
C504 C501 1.499 . S
C504 C505 1.373 1_455 S
C504 C506 1.390 . S
C505 H484 0.950 . S
C505 C504 1.373 1_655 S
C505 C521 1.376 1_545 S
C506 C504 1.390 . S
C506 C507 1.524 . S
C506 C520 1.377 . S
C507 C506 1.524 . S
C507 C508 1.397 . S
C507 C512 1.363 1_545 S
C508 H485 0.950 . S
C508 C507 1.397 . S
C508 C509 1.334 . S
C509 H486 0.950 . S
C509 C508 1.334 . S
C509 C510 1.287 . S
C510 C509 1.287 . S
C510 C511 1.524 1_545 S
C510 H529 0.913 . S
C511 H487 0.950 . S
C511 C510 1.524 1_565 S
C511 C512 1.415 . S
C512 H488 0.950 . S
C512 C507 1.363 1_565 S
C512 C511 1.415 . S
C513 H489 0.951 . S
C513 C514 1.369 . S
C513 C515 1.388 . S
C514 C513 1.369 . S
C514 C518 1.382 1_645 S
C515 H490 0.951 . S
C515 C513 1.388 . S
C515 C516 1.365 1_545 S
C516 C515 1.365 1_565 S
C516 C517 1.414 1_655 S
C516 C519 1.499 . S
C517 H491 0.950 . S
C517 C516 1.414 1_455 S
C517 C518 1.374 . S
C518 H492 0.950 . S
C518 C514 1.382 1_465 S
C518 C517 1.374 . S
C519 C516 1.499 . S
C519 C520 1.372 1_665 S
C519 C521 1.388 . S
C520 H493 0.951 1_545 S
C520 C506 1.377 . S
C520 C519 1.372 1_445 S
C521 C505 1.376 1_565 S
C521 C519 1.388 . S
C521 C522 1.527 . S
C522 C521 1.527 . S
C522 C523 1.397 . S
C522 C527 1.363 1_565 S
C523 H494 0.950 . S
C523 C522 1.397 . S
C523 C524 1.334 . S
C524 H495 0.950 . S
C524 C523 1.334 . S
C524 C525 1.287 . S
C525 C524 1.287 . S
C525 C526 1.524 1_565 S
C525 H528 0.999 . S
C526 H496 0.950 . S
C526 C525 1.524 1_545 S
C526 C527 1.415 . S
C527 H497 0.950 . S
C527 C522 1.363 1_545 S
C527 C526 1.415 . S
H528 C525 0.999 . S
H529 C510 0.913 . S
H530 C548 0.951 . S
H531 C550 0.951 . S
H532 C552 0.950 . S
H533 C553 0.950 . S
H534 C555 0.950 . S
H535 C558 0.948 1_545 S
H536 C559 0.950 . S
H537 C561 0.950 . S
H538 C562 0.950 . S
H539 C563 0.951 . S
H540 C565 0.951 . S
H541 C567 0.950 . S
H542 C568 0.950 . S
H543 C570 0.950 . S
H544 C573 0.950 1_565 S
H545 C574 0.950 . S
H546 C576 0.950 . S
H547 C577 0.950 . S
C548 H530 0.951 . S
C548 C549 1.366 . S
C548 C550 1.388 . S
C549 C548 1.366 . S
C549 C553 1.385 1_465 S
C550 H531 0.951 . S
C550 C548 1.388 . S
C550 C551 1.394 . S
C551 C550 1.394 . S
C551 C552 1.386 1_465 S
C551 C554 1.497 1_565 S
C552 H532 0.950 . S
C552 C551 1.386 1_645 S
C552 C553 1.374 . S
C553 H533 0.950 . S
C553 C549 1.385 1_645 S
C553 C552 1.374 . S
C554 C551 1.497 1_545 S
C554 C555 1.374 1_455 S
C554 C556 1.389 1_545 S
C555 H534 0.950 . S
C555 C554 1.374 1_655 S
C555 C571 1.377 . S
C556 C554 1.389 1_565 S
C556 C557 1.524 . S
C556 C570 1.377 . S
C557 C556 1.524 . S
C557 C558 1.397 . S
C557 C562 1.363 . S
C558 H535 0.948 1_565 S
C558 C557 1.397 . S
C558 C559 1.334 . S
C559 H536 0.950 . S
C559 C558 1.334 . S
C559 C560 1.287 . S
C560 C559 1.287 . S
C560 C561 1.524 . S
C560 H579 0.913 . S
C561 H537 0.950 . S
C561 C560 1.524 . S
C561 C562 1.415 . S
C562 H538 0.950 . S
C562 C557 1.363 . S
C562 C561 1.415 . S
C563 H539 0.951 . S
C563 C564 1.366 1_645 S
C563 C565 1.388 . S
C564 C563 1.366 1_465 S
C564 C568 1.385 . S
C565 H540 0.951 . S
C565 C563 1.388 . S
C565 C566 1.366 1_545 S
C566 C565 1.366 1_565 S
C566 C567 1.414 1_655 S
C566 C569 1.499 . S
C567 H541 0.950 . S
C567 C566 1.414 1_455 S
C567 C568 1.374 . S
C568 H542 0.950 . S
C568 C564 1.385 . S
C568 C567 1.374 . S
C569 C566 1.499 . S
C569 C570 1.373 1_655 S
C569 C571 1.389 1_565 S
C570 H543 0.950 . S
C570 C556 1.377 . S
C570 C569 1.373 1_455 S
C571 C555 1.377 . S
C571 C569 1.389 1_545 S
C571 C572 1.524 . S
C572 C571 1.524 . S
C572 C573 1.397 . S
C572 C577 1.363 . S
C573 H544 0.950 1_545 S
C573 C572 1.397 . S
C573 C574 1.334 . S
C574 H545 0.950 . S
C574 C573 1.334 . S
C574 C575 1.287 . S
C575 C574 1.287 . S
C575 C576 1.524 . S
C575 H578 0.999 . S
C576 H546 0.950 . S
C576 C575 1.524 . S
C576 C577 1.415 . S
C577 H547 0.950 . S
C577 C572 1.363 . S
C577 C576 1.415 . S
H578 C575 0.999 . S
H579 C560 0.913 . S
H580 C598 0.951 . S
H581 C600 0.951 . S
H582 C602 0.950 . S
H583 C603 0.950 . S
H584 C605 0.950 . S
H585 C608 0.950 . S
H586 C609 0.950 . S
H587 C611 0.950 . S
H588 C612 0.950 . S
H589 C613 0.951 . S
H590 C615 0.951 . S
H591 C617 0.950 . S
H592 C618 0.950 . S
H593 C620 0.950 . S
H594 C623 0.950 . S
H595 C624 0.950 . S
H596 C626 0.950 . S
H597 C627 0.950 . S
C598 H580 0.951 . S
C598 C599 1.366 . S
C598 C600 1.388 . S
C599 C598 1.366 . S
C599 C603 1.385 . S
C600 H581 0.951 . S
C600 C598 1.388 . S
C600 C601 1.366 . S
C601 C600 1.366 . S
C601 C602 1.414 . S
C601 C604 1.499 . S
C602 H582 0.950 . S
C602 C601 1.414 . S
C602 C603 1.374 . S
C603 H583 0.950 . S
C603 C599 1.385 . S
C603 C602 1.374 . S
C604 C601 1.499 . S
C604 C605 1.373 . S
C604 C606 1.389 . S
C605 H584 0.950 . S
C605 C604 1.373 . S
C605 C621 1.377 . S
C606 C604 1.389 . S
C606 C607 1.524 . S
C606 C620 1.377 . S
C607 C606 1.524 . S
C607 C608 1.397 . S
C607 C612 1.363 . S
C608 H585 0.950 . S
C608 C607 1.397 . S
C608 C609 1.334 . S
C609 H586 0.950 . S
C609 C608 1.334 . S
C609 C610 1.287 . S
C610 C609 1.287 . S
C610 C611 1.524 . S
C610 H629 0.913 . S
C611 H587 0.950 . S
C611 C610 1.524 . S
C611 C612 1.415 . S
C612 H588 0.950 . S
C612 C607 1.363 . S
C612 C611 1.415 . S
C613 H589 0.951 . S
C613 C614 1.366 . S
C613 C615 1.388 . S
C614 C613 1.366 . S
C614 C618 1.385 . S
C615 H590 0.951 . S
C615 C613 1.388 . S
C615 C616 1.366 . S
C616 C615 1.366 . S
C616 C617 1.414 . S
C616 C619 1.499 . S
C617 H591 0.950 . S
C617 C616 1.414 . S
C617 C618 1.374 . S
C618 H592 0.950 . S
C618 C614 1.385 . S
C618 C617 1.374 . S
C619 C616 1.499 . S
C619 C620 1.373 . S
C619 C621 1.389 . S
C620 H593 0.950 . S
C620 C606 1.377 . S
C620 C619 1.373 . S
C621 C605 1.377 . S
C621 C619 1.389 . S
C621 C622 1.524 . S
C622 C621 1.524 . S
C622 C623 1.397 . S
C622 C627 1.363 . S
C623 H594 0.950 . S
C623 C622 1.397 . S
C623 C624 1.334 . S
C624 H595 0.950 . S
C624 C623 1.334 . S
C624 C625 1.287 . S
C625 C624 1.287 . S
C625 C626 1.524 . S
C625 H628 0.999 . S
C626 H596 0.950 . S
C626 C625 1.524 . S
C626 C627 1.415 . S
C627 H597 0.950 . S
C627 C622 1.363 . S
C627 C626 1.415 . S
H628 C625 0.999 . S
H629 C610 0.913 . S
H630 C648 0.951 . S
H631 C650 0.951 . S
H632 C652 0.950 . S
H633 C653 0.950 . S
H634 C655 0.950 . S
H635 C658 0.950 . S
H636 C659 0.950 . S
H637 C661 0.950 . S
H638 C662 0.950 . S
H639 C663 0.951 . S
H640 C665 0.951 . S
H641 C667 0.950 . S
H642 C668 0.950 . S
H643 C670 0.950 . S
H644 C673 0.950 . S
H645 C674 0.950 . S
H646 C676 0.950 . S
H647 C677 0.950 . S
C648 H630 0.951 . S
C648 C649 1.366 . S
C648 C650 1.388 . S
C649 C648 1.366 . S
C649 C653 1.385 . S
C650 H631 0.951 . S
C650 C648 1.388 . S
C650 C651 1.366 . S
C651 C650 1.366 . S
C651 C652 1.414 . S
C651 C654 1.499 . S
C652 H632 0.950 . S
C652 C651 1.414 . S
C652 C653 1.374 . S
C653 H633 0.950 . S
C653 C649 1.385 . S
C653 C652 1.374 . S
C654 C651 1.499 . S
C654 C655 1.373 . S
C654 C656 1.389 . S
C655 H634 0.950 . S
C655 C654 1.373 . S
C655 C671 1.377 . S
C656 C654 1.389 . S
C656 C657 1.524 . S
C656 C670 1.377 . S
C657 C656 1.524 . S
C657 C658 1.397 . S
C657 C662 1.363 . S
C658 H635 0.950 . S
C658 C657 1.397 . S
C658 C659 1.334 . S
C659 H636 0.950 . S
C659 C658 1.334 . S
C659 C660 1.287 . S
C660 C659 1.287 . S
C660 C661 1.524 . S
C660 H679 0.913 . S
C661 H637 0.950 . S
C661 C660 1.524 . S
C661 C662 1.415 . S
C662 H638 0.950 . S
C662 C657 1.363 . S
C662 C661 1.415 . S
C663 H639 0.951 . S
C663 C664 1.366 . S
C663 C665 1.388 . S
C664 C663 1.366 . S
C664 C668 1.385 . S
C665 H640 0.951 . S
C665 C663 1.388 . S
C665 C666 1.366 . S
C666 C665 1.366 . S
C666 C667 1.414 . S
C666 C669 1.499 . S
C667 H641 0.950 . S
C667 C666 1.414 . S
C667 C668 1.374 . S
C668 H642 0.950 . S
C668 C664 1.385 . S
C668 C667 1.374 . S
C669 C666 1.499 . S
C669 C670 1.373 . S
C669 C671 1.389 . S
C670 H643 0.950 . S
C670 C656 1.377 . S
C670 C669 1.373 . S
C671 C655 1.377 . S
C671 C669 1.389 . S
C671 C672 1.524 . S
C672 C671 1.524 . S
C672 C673 1.397 . S
C672 C677 1.363 . S
C673 H644 0.950 . S
C673 C672 1.397 . S
C673 C674 1.334 . S
C674 H645 0.950 . S
C674 C673 1.334 . S
C674 C675 1.287 . S
C675 C674 1.287 . S
C675 C676 1.524 . S
C675 H678 0.999 . S
C676 H646 0.950 . S
C676 C675 1.524 . S
C676 C677 1.415 . S
C677 H647 0.950 . S
C677 C672 1.363 . S
C677 C676 1.415 . S
H678 C675 0.999 . S
H679 C660 0.913 . S
C99 C58 2.029 1_554 S
C114 C19 2.030 1_556 S
C149 C59 2.029 1_556 S
C164 C18 2.028 1_554 S
C199 C21 1.017 . S
C214 C62 1.015 . S
C249 C22 1.017 . S
C264 C61 1.020 . S
C299 C1 0.646 1_565 S
C314 C2 0.644 1_545 S
C349 C39 2.407 . S
C364 C38 2.407 . S
C399 C41 0.645 . S
C414 C42 0.643 . S
C449 C78 2.407 . S
C464 C79 2.407 . S
C499 C28 1.456 1_645 S
C514 C9 1.456 1_655 S
C549 C8 1.456 1_455 S
C564 C29 1.458 1_465 S
C599 C68 1.455 . S
C614 C49 1.458 . S
C649 C69 1.455 . S
C664 C48 1.460 . S
