# Generated by pormake.
# Topology vbm, (6)-cn, num edge types: 1
# Building blocks:
#     Node 0, Type 0, BuildingBlock: MIFKUJ_clean_sbu_0, # of connection points: 6
#     Node 1, Type 0, BuildingBlock: MIFKUJ_clean_sbu_0, # of connection points: 6
#     Node 2, Type 0, BuildingBlock: MIFKUJ_clean_sbu_0, # of connection points: 6
#     Node 3, Type 0, BuildingBlock: MIFKUJ_clean_sbu_0, # of connection points: 6
#     Node 4, Type 0, BuildingBlock: MIFKUJ_clean_sbu_0, # of connection points: 6
#     Node 5, Type 0, BuildingBlock: MIFKUJ_clean_sbu_0, # of connection points: 6
#     Node 6, Type 0, BuildingBlock: MIFKUJ_clean_sbu_0, # of connection points: 6
#     Node 7, Type 0, BuildingBlock: MIFKUJ_clean_sbu_0, # of connection points: 6
#     Node 8, Type 0, BuildingBlock: MIFKUJ_clean_sbu_0, # of connection points: 6
#     Node 9, Type 0, BuildingBlock: MIFKUJ_clean_sbu_0, # of connection points: 6
#     Node 10, Type 0, BuildingBlock: MIFKUJ_clean_sbu_0, # of connection points: 6
#     Node 11, Type 0, BuildingBlock: MIFKUJ_clean_sbu_0, # of connection points: 6
#     Node 12, Type 0, BuildingBlock: MIFKUJ_clean_sbu_0, # of connection points: 6
#     Node 13, Type 0, BuildingBlock: MIFKUJ_clean_sbu_0, # of connection points: 6
#     Node 14, Type 0, BuildingBlock: MIFKUJ_clean_sbu_0, # of connection points: 6
#     Node 15, Type 0, BuildingBlock: MIFKUJ_clean_sbu_0, # of connection points: 6
#     Edge 16, Type (0, 0), BuildingBlock: ZUJKAS_clean_linker_0, # of connection points: 2
#     Edge 17, Type (0, 0), BuildingBlock: ZUJKAS_clean_linker_0, # of connection points: 2
#     Edge 18, Type (0, 0), BuildingBlock: ZUJKAS_clean_linker_0, # of connection points: 2
#     Edge 19, Type (0, 0), BuildingBlock: ZUJKAS_clean_linker_0, # of connection points: 2
#     Edge 20, Type (0, 0), BuildingBlock: ZUJKAS_clean_linker_0, # of connection points: 2
#     Edge 21, Type (0, 0), BuildingBlock: ZUJKAS_clean_linker_0, # of connection points: 2
#     Edge 22, Type (0, 0), BuildingBlock: ZUJKAS_clean_linker_0, # of connection points: 2
#     Edge 23, Type (0, 0), BuildingBlock: ZUJKAS_clean_linker_0, # of connection points: 2
#     Edge 24, Type (0, 0), BuildingBlock: ZUJKAS_clean_linker_0, # of connection points: 2
#     Edge 25, Type (0, 0), BuildingBlock: ZUJKAS_clean_linker_0, # of connection points: 2
#     Edge 26, Type (0, 0), BuildingBlock: ZUJKAS_clean_linker_0, # of connection points: 2
#     Edge 27, Type (0, 0), BuildingBlock: ZUJKAS_clean_linker_0, # of connection points: 2
#     Edge 28, Type (0, 0), BuildingBlock: ZUJKAS_clean_linker_0, # of connection points: 2
#     Edge 29, Type (0, 0), BuildingBlock: ZUJKAS_clean_linker_0, # of connection points: 2
#     Edge 30, Type (0, 0), BuildingBlock: ZUJKAS_clean_linker_0, # of connection points: 2
#     Edge 31, Type (0, 0), BuildingBlock: ZUJKAS_clean_linker_0, # of connection points: 2
#     Edge 32, Type (0, 0), BuildingBlock: ZUJKAS_clean_linker_0, # of connection points: 2
#     Edge 33, Type (0, 0), BuildingBlock: ZUJKAS_clean_linker_0, # of connection points: 2
#     Edge 34, Type (0, 0), BuildingBlock: ZUJKAS_clean_linker_0, # of connection points: 2
#     Edge 35, Type (0, 0), BuildingBlock: ZUJKAS_clean_linker_0, # of connection points: 2
#     Edge 36, Type (0, 0), BuildingBlock: ZUJKAS_clean_linker_0, # of connection points: 2
#     Edge 37, Type (0, 0), BuildingBlock: ZUJKAS_clean_linker_0, # of connection points: 2
#     Edge 38, Type (0, 0), BuildingBlock: ZUJKAS_clean_linker_0, # of connection points: 2
#     Edge 39, Type (0, 0), BuildingBlock: ZUJKAS_clean_linker_0, # of connection points: 2
#     Edge 40, Type (0, 0), BuildingBlock: ZUJKAS_clean_linker_0, # of connection points: 2
#     Edge 41, Type (0, 0), BuildingBlock: ZUJKAS_clean_linker_0, # of connection points: 2
#     Edge 42, Type (0, 0), BuildingBlock: ZUJKAS_clean_linker_0, # of connection points: 2
#     Edge 43, Type (0, 0), BuildingBlock: ZUJKAS_clean_linker_0, # of connection points: 2
#     Edge 44, Type (0, 0), BuildingBlock: ZUJKAS_clean_linker_0, # of connection points: 2
#     Edge 45, Type (0, 0), BuildingBlock: ZUJKAS_clean_linker_0, # of connection points: 2
#     Edge 46, Type (0, 0), BuildingBlock: ZUJKAS_clean_linker_0, # of connection points: 2
#     Edge 47, Type (0, 0), BuildingBlock: ZUJKAS_clean_linker_0, # of connection points: 2
#     Edge 48, Type (0, 0), BuildingBlock: ZUJKAS_clean_linker_0, # of connection points: 2
#     Edge 49, Type (0, 0), BuildingBlock: ZUJKAS_clean_linker_0, # of connection points: 2
#     Edge 50, Type (0, 0), BuildingBlock: ZUJKAS_clean_linker_0, # of connection points: 2
#     Edge 51, Type (0, 0), BuildingBlock: ZUJKAS_clean_linker_0, # of connection points: 2
#     Edge 52, Type (0, 0), BuildingBlock: ZUJKAS_clean_linker_0, # of connection points: 2
#     Edge 53, Type (0, 0), BuildingBlock: ZUJKAS_clean_linker_0, # of connection points: 2
#     Edge 54, Type (0, 0), BuildingBlock: ZUJKAS_clean_linker_0, # of connection points: 2
#     Edge 55, Type (0, 0), BuildingBlock: ZUJKAS_clean_linker_0, # of connection points: 2
#     Edge 56, Type (0, 0), BuildingBlock: ZUJKAS_clean_linker_0, # of connection points: 2
#     Edge 57, Type (0, 0), BuildingBlock: ZUJKAS_clean_linker_0, # of connection points: 2
#     Edge 58, Type (0, 0), BuildingBlock: ZUJKAS_clean_linker_0, # of connection points: 2
#     Edge 59, Type (0, 0), BuildingBlock: ZUJKAS_clean_linker_0, # of connection points: 2
#     Edge 60, Type (0, 0), BuildingBlock: ZUJKAS_clean_linker_0, # of connection points: 2
#     Edge 61, Type (0, 0), BuildingBlock: ZUJKAS_clean_linker_0, # of connection points: 2
#     Edge 62, Type (0, 0), BuildingBlock: ZUJKAS_clean_linker_0, # of connection points: 2
#     Edge 63, Type (0, 0), BuildingBlock: ZUJKAS_clean_linker_0, # of connection points: 2
# Relax obj value: 0.052
# Max RMSD: 0.105
# Mean RMSD: 0.105
data_MOF--net-vbm--node1-MIFKUJ_clean_sbu_0--edge1-ZUJKAS_clean_linker_0
_symmetry_space_group_name_H-M    P1
_symmetry_Int_Tables_number       1
_symmetry_cell_setting            triclinic
loop_
_symmetry_equiv_pos_as_xyz
'x, y, z'
_cell_length_a     84.637448
_cell_length_b     23.360539
_cell_length_c     73.593401
_cell_angle_alpha  90.042058
_cell_angle_beta   89.932393
_cell_angle_gamma 90.035733
loop_
_atom_site_label
_atom_site_type_symbol
_atom_site_fract_x
_atom_site_fract_y
_atom_site_fract_z
_atom_type_partial_charge
Zn0 Zn 0.13387 0.1874 0.12194 0.0
Zn1 Zn 0.11825 0.03296 0.11831 0.0
C2 C 0.16634 0.19384 0.12917 0.0
O3 O 0.16013 0.20414 0.14521 0.0
C4 C 0.08591 0.01892 0.10565 0.0
O5 O 0.09244 0.9888 0.09256 0.0
O6 O 0.1289 0.27128 0.12415 0.0
O7 O 0.12054 0.1556 0.10173 0.0
O8 O 0.12905 0.06822 0.09685 0.0
C9 C 0.13395 0.30494 0.11187 0.0
O10 O 0.14172 0.28351 0.09798 0.0
O11 O 0.15718 0.1834 0.11588 0.0
C12 C 0.11639 0.91491 0.12902 0.0
O13 O 0.10759 0.93676 0.14201 0.0
O14 O 0.12243 0.94818 0.11724 0.0
O15 O 0.12429 0.05999 0.14292 0.0
O16 O 0.13107 0.15155 0.14651 0.0
O17 O 0.09469 0.04329 0.1173 0.0
C18 C 0.12702 0.11912 0.09137 0.0
C19 C 0.12822 0.10207 0.15283 0.0
Zn20 Zn 0.86698 0.82152 0.12339 0.0
Zn21 Zn 0.8852 0.97614 0.12155 0.0
C22 C 0.83499 0.81193 0.13763 0.0
O23 O 0.8421 0.79735 0.1528 0.0
C24 C 0.91764 0.97332 0.1146 0.0
O25 O 0.91158 0.98806 0.09887 0.0
O26 O 0.87233 0.73723 0.12262 0.0
O27 O 0.87308 0.85525 0.09913 0.0
O28 O 0.88199 0.94459 0.09647 0.0
C29 C 0.86299 0.7025 0.11474 0.0
O30 O 0.85022 0.72241 0.10683 0.0
O31 O 0.84327 0.82628 0.12398 0.0
C32 C 0.89098 0.09796 0.12679 0.0
O33 O 0.90418 0.08003 0.13421 0.0
O34 O 0.88115 0.06157 0.12064 0.0
O35 O 0.87008 0.94301 0.13971 0.0
O36 O 0.87607 0.85461 0.14664 0.0
O37 O 0.90835 0.96393 0.12789 0.0
C38 C 0.87791 0.89702 0.08953 0.0
C39 C 0.87511 0.90694 0.15117 0.0
Zn40 Zn 0.1355 0.81744 0.36467 0.0
Zn41 Zn 0.11984 0.97278 0.37008 0.0
C42 C 0.16754 0.80678 0.357 0.0
O43 O 0.16067 0.79276 0.34162 0.0
C44 C 0.08754 0.01043 0.37473 0.0
O45 O 0.09435 0.06067 0.37628 0.0
O46 O 0.13119 0.73311 0.36201 0.0
O47 O 0.1221 0.84784 0.38518 0.0
O48 O 0.13096 0.93452 0.39073 0.0
C49 C 0.12903 0.70159 0.37586 0.0
O50 O 0.12875 0.72516 0.39207 0.0
O51 O 0.15889 0.82198 0.37032 0.0
C52 C 0.12749 0.08831 0.35721 0.0
O53 O 0.12733 0.06494 0.34097 0.0
O54 O 0.12536 0.05697 0.37112 0.0
O55 O 0.12447 0.94387 0.34526 0.0
O56 O 0.13221 0.85412 0.34032 0.0
O57 O 0.09608 0.96597 0.37292 0.0
C58 C 0.12878 0.8832 0.39575 0.0
C59 C 0.1284 0.90352 0.33466 0.0
Zn60 Zn 0.86414 0.19076 0.3626 0.0
Zn61 Zn 0.88739 0.02766 0.36194 0.0
C62 C 0.83078 0.17804 0.35456 0.0
O63 O 0.83586 0.15441 0.33945 0.0
C64 C 0.91884 0.99666 0.36762 0.0
O65 O 0.9117 0.96361 0.37951 0.0
O66 O 0.87239 0.27158 0.36602 0.0
O67 O 0.87316 0.13424 0.3815 0.0
O68 O 0.88449 0.05131 0.38786 0.0
C69 C 0.86423 0.30668 0.37538 0.0
O70 O 0.85161 0.2881 0.38393 0.0
O71 O 0.84068 0.19446 0.36641 0.0
C72 C 0.88736 0.91096 0.3495 0.0
O73 O 0.89993 0.92914 0.34076 0.0
O74 O 0.87901 0.94679 0.35833 0.0
O75 O 0.87754 0.09091 0.34842 0.0
O76 O 0.86771 0.16633 0.33613 0.0
O77 O 0.91063 0.02951 0.35768 0.0
C78 C 0.87876 0.09904 0.3931 0.0
C79 C 0.8736 0.11692 0.3341 0.0
Zn80 Zn 0.88876 0.97322 0.86861 0.0
Zn81 Zn 0.86876 0.81859 0.86304 0.0
C82 C 0.92115 0.01189 0.87478 0.0
O83 O 0.91411 0.0596 0.87961 0.0
C84 C 0.8353 0.83672 0.85734 0.0
O85 O 0.84018 0.85344 0.84125 0.0
O86 O 0.88225 0.05665 0.86949 0.0
O87 O 0.88278 0.94315 0.84416 0.0
O88 O 0.87267 0.85714 0.83876 0.0
C89 C 0.88557 0.09002 0.85639 0.0
O90 O 0.89297 0.06926 0.84214 0.0
O91 O 0.91277 0.96893 0.87019 0.0
C92 C 0.86813 0.70078 0.87238 0.0
O93 O 0.8615 0.72303 0.88691 0.0
O94 O 0.87274 0.73406 0.85976 0.0
O95 O 0.8819 0.84271 0.8847 0.0
O96 O 0.87916 0.93508 0.89039 0.0
O97 O 0.84545 0.82287 0.86927 0.0
C98 C 0.87764 0.90547 0.83322 0.0
C99 C 0.8782 0.88321 0.8954 0.0
Zn100 Zn 0.12379 0.03664 0.86857 0.0
Zn101 Zn 0.13124 0.1826 0.86515 0.0
C102 C 0.09126 0.0153 0.87473 0.0
O103 O 0.09805 0.98017 0.88626 0.0
C104 C 0.16409 0.1841 0.85478 0.0
O105 O 0.1578 0.19336 0.83874 0.0
O106 O 0.12651 0.95007 0.87078 0.0
O107 O 0.13627 0.06233 0.84695 0.0
O108 O 0.12416 0.14429 0.84176 0.0
C109 C 0.13115 0.91741 0.85799 0.0
O110 O 0.13542 0.93998 0.8424 0.0
O111 O 0.09998 0.04824 0.86522 0.0
C112 C 0.12421 0.30193 0.87494 0.0
O113 O 0.12068 0.27999 0.89086 0.0
O114 O 0.12833 0.26871 0.86205 0.0
O115 O 0.1207 0.15843 0.88863 0.0
O116 O 0.1307 0.07146 0.89203 0.0
O117 O 0.15502 0.17497 0.86827 0.0
C118 C 0.1307 0.09884 0.83595 0.0
C119 C 0.12584 0.11839 0.89874 0.0
Zn120 Zn 0.88641 0.03111 0.61684 0.0
Zn121 Zn 0.87021 0.18635 0.62115 0.0
C122 C 0.91895 0.99885 0.61933 0.0
O123 O 0.91314 0.95588 0.60997 0.0
C124 C 0.83724 0.18229 0.63419 0.0
O125 O 0.84345 0.17524 0.65038 0.0
O126 O 0.88157 0.94677 0.61418 0.0
O127 O 0.87067 0.06098 0.63498 0.0
O128 O 0.87799 0.14632 0.64399 0.0
C129 C 0.88166 0.91467 0.62813 0.0
O130 O 0.88454 0.93738 0.64411 0.0
O131 O 0.90968 0.03877 0.62447 0.0
C132 C 0.87324 0.30346 0.61005 0.0
O133 O 0.8679 0.28201 0.59473 0.0
O134 O 0.87576 0.27008 0.62337 0.0
O135 O 0.87698 0.15817 0.59618 0.0
O136 O 0.8842 0.06722 0.59239 0.0
O137 O 0.84628 0.18598 0.62044 0.0
C138 C 0.87541 0.09393 0.6475 0.0
C139 C 0.88128 0.11673 0.58605 0.0
Zn140 Zn 0.12121 0.9728 0.61809 0.0
Zn141 Zn 0.13043 0.82572 0.62142 0.0
C142 C 0.08841 0.9922 0.60839 0.0
O143 O 0.09497 0.0287 0.59709 0.0
C144 C 0.16274 0.82515 0.63232 0.0
O145 O 0.15589 0.8105 0.64765 0.0
O146 O 0.12512 0.0586 0.61647 0.0
O147 O 0.12946 0.95069 0.64236 0.0
O148 O 0.12347 0.85839 0.64556 0.0
C149 C 0.11661 0.09299 0.62567 0.0
O150 O 0.10539 0.07232 0.63614 0.0
O151 O 0.09729 0.96096 0.61821 0.0
C152 C 0.13752 0.70505 0.6157 0.0
O153 O 0.15002 0.72627 0.60754 0.0
O154 O 0.12732 0.73909 0.6225 0.0
O155 O 0.11929 0.85289 0.59879 0.0
O156 O 0.13129 0.93639 0.59625 0.0
O157 O 0.1541 0.83753 0.61874 0.0
C158 C 0.1265 0.90743 0.6522 0.0
C159 C 0.12586 0.89104 0.58908 0.0
Zn160 Zn 0.63719 0.6832 0.12328 0.0
Zn161 Zn 0.61864 0.52812 0.11934 0.0
C162 C 0.66895 0.69564 0.13703 0.0
O163 O 0.66153 0.70899 0.15213 0.0
C164 C 0.58566 0.53112 0.11431 0.0
O165 O 0.59078 0.52445 0.09759 0.0
O166 O 0.63173 0.767 0.12434 0.0
O167 O 0.63054 0.65328 0.09878 0.0
O168 O 0.62118 0.56505 0.09496 0.0
C169 C 0.63603 0.79947 0.11139 0.0
O170 O 0.64337 0.77697 0.09735 0.0
O171 O 0.66094 0.68067 0.12324 0.0
C172 C 0.61728 0.40873 0.12803 0.0
O173 O 0.60925 0.42873 0.14193 0.0
O174 O 0.62269 0.44362 0.11631 0.0
O175 O 0.63398 0.55787 0.13784 0.0
O176 O 0.62851 0.6459 0.14595 0.0
O177 O 0.59571 0.53583 0.12708 0.0
C178 C 0.62532 0.61342 0.08864 0.0
C179 C 0.62917 0.59297 0.14975 0.0
Zn180 Zn 0.36426 0.32085 0.12375 0.0
Zn181 Zn 0.38551 0.47474 0.12109 0.0
C182 C 0.33224 0.3038 0.13582 0.0
O183 O 0.33942 0.28226 0.15008 0.0
C184 C 0.41771 0.49146 0.11717 0.0
O185 O 0.4116 0.51821 0.10313 0.0
O186 O 0.36905 0.23626 0.12511 0.0
O187 O 0.37186 0.35085 0.09938 0.0
O188 O 0.38293 0.43701 0.09682 0.0
C189 C 0.37026 0.20439 0.11117 0.0
O190 O 0.36896 0.22725 0.09493 0.0
O191 O 0.3405 0.32562 0.12317 0.0
C192 C 0.37872 0.59234 0.13108 0.0
O193 O 0.37711 0.56986 0.14732 0.0
O194 O 0.38183 0.55976 0.1177 0.0
O195 O 0.37057 0.44678 0.14027 0.0
O196 O 0.37282 0.35559 0.147 0.0
O197 O 0.40843 0.46613 0.12816 0.0
C198 C 0.37807 0.3904 0.08985 0.0
C199 C 0.37434 0.40784 0.15143 0.0
Zn200 Zn 0.63496 0.32217 0.36203 0.0
Zn201 Zn 0.61771 0.47606 0.36583 0.0
C202 C 0.66653 0.30509 0.34905 0.0
O203 O 0.65912 0.27748 0.33603 0.0
C204 C 0.58539 0.49117 0.37004 0.0
O205 O 0.59142 0.51403 0.38481 0.0
O206 O 0.63054 0.23742 0.36144 0.0
O207 O 0.62876 0.35137 0.38669 0.0
O208 O 0.61973 0.44022 0.39036 0.0
C209 C 0.6374 0.20485 0.3728 0.0
O210 O 0.64687 0.22762 0.38496 0.0
O211 O 0.65849 0.33008 0.36126 0.0
C212 C 0.61704 0.59547 0.3569 0.0
O213 O 0.60863 0.57595 0.34324 0.0
O214 O 0.62248 0.56025 0.36848 0.0
O215 O 0.63276 0.44417 0.3474 0.0
O216 O 0.62553 0.35773 0.33955 0.0
O217 O 0.59475 0.46922 0.35842 0.0
C218 C 0.62373 0.3918 0.3967 0.0
C219 C 0.62724 0.4102 0.33558 0.0
Zn220 Zn 0.36611 0.68626 0.36358 0.0
Zn221 Zn 0.38394 0.5329 0.36749 0.0
C222 C 0.33352 0.69172 0.35101 0.0
O223 O 0.34006 0.70565 0.33543 0.0
C224 C 0.417 0.53538 0.37212 0.0
O225 O 0.4119 0.52888 0.38886 0.0
O226 O 0.3696 0.7717 0.36111 0.0
O227 O 0.37349 0.66142 0.38854 0.0
O228 O 0.38176 0.57163 0.39176 0.0
C229 C 0.37527 0.80296 0.37367 0.0
O230 O 0.38006 0.77899 0.38883 0.0
O231 O 0.34233 0.67871 0.36435 0.0
C232 C 0.37686 0.41586 0.35798 0.0
O233 O 0.37516 0.4386 0.3418 0.0
O234 O 0.38038 0.44808 0.37132 0.0
O235 O 0.36843 0.56038 0.3486 0.0
O236 O 0.37508 0.64798 0.34093 0.0
O237 O 0.40691 0.5399 0.35938 0.0
C238 C 0.37847 0.62049 0.39839 0.0
C239 C 0.37325 0.59563 0.33673 0.0
Zn240 Zn 0.38515 0.47971 0.86309 0.0
Zn241 Zn 0.36187 0.32585 0.86181 0.0
C242 C 0.41804 0.46887 0.86908 0.0
O243 O 0.4127 0.47654 0.88566 0.0
C244 C 0.32992 0.30326 0.84996 0.0
O245 O 0.33746 0.27701 0.83675 0.0
O246 O 0.3811 0.56518 0.86408 0.0
O247 O 0.36928 0.44529 0.84622 0.0
O248 O 0.37072 0.35582 0.838 0.0
C249 C 0.39169 0.60201 0.86032 0.0
O250 O 0.40583 0.58459 0.85547 0.0
O251 O 0.40819 0.46656 0.85601 0.0
C252 C 0.35874 0.20542 0.8705 0.0
O253 O 0.3455 0.2226 0.87806 0.0
O254 O 0.3678 0.24203 0.86307 0.0
O255 O 0.36969 0.36329 0.88512 0.0
O256 O 0.3819 0.44734 0.8881 0.0
O257 O 0.3379 0.32992 0.86191 0.0
C258 C 0.37308 0.40826 0.83444 0.0
C259 C 0.37612 0.40182 0.89492 0.0
Zn260 Zn 0.61874 0.52651 0.86413 0.0
Zn261 Zn 0.63891 0.68433 0.86199 0.0
C262 C 0.58655 0.51412 0.86923 0.0
O263 O 0.59291 0.49062 0.8837 0.0
C264 C 0.6705 0.71108 0.85071 0.0
O265 O 0.66283 0.74084 0.83841 0.0
O266 O 0.62412 0.4427 0.8644 0.0
O267 O 0.63407 0.56916 0.8489 0.0
O268 O 0.63055 0.65451 0.83817 0.0
C269 C 0.61671 0.40773 0.85427 0.0
O270 O 0.60595 0.42728 0.84303 0.0
O271 O 0.59568 0.53549 0.85725 0.0
C272 C 0.64072 0.80191 0.87327 0.0
O273 O 0.65255 0.78239 0.88299 0.0
O274 O 0.63278 0.76724 0.86358 0.0
O275 O 0.63145 0.64332 0.88486 0.0
O276 O 0.62077 0.55735 0.88932 0.0
O277 O 0.66268 0.68119 0.86198 0.0
C278 C 0.62931 0.60091 0.83614 0.0
C279 C 0.62577 0.6051 0.89537 0.0
Zn280 Zn 0.38656 0.52661 0.62372 0.0
Zn281 Zn 0.36066 0.68611 0.62391 0.0
C282 C 0.41928 0.51874 0.61598 0.0
O283 O 0.41352 0.50871 0.59973 0.0
C284 C 0.32848 0.70354 0.63383 0.0
O285 O 0.33538 0.71833 0.64912 0.0
O286 O 0.37808 0.44554 0.62615 0.0
O287 O 0.37577 0.58741 0.63719 0.0
O288 O 0.36501 0.66006 0.65009 0.0
C289 C 0.38644 0.40808 0.63423 0.0
O290 O 0.39946 0.42434 0.64245 0.0
O291 O 0.40985 0.52824 0.62908 0.0
C292 C 0.36035 0.80358 0.61171 0.0
O293 O 0.3483 0.78472 0.6022 0.0
O294 O 0.36803 0.76848 0.62154 0.0
O295 O 0.37064 0.63495 0.60375 0.0
O296 O 0.38356 0.55388 0.5982 0.0
O297 O 0.33697 0.68648 0.62064 0.0
C298 C 0.37196 0.61239 0.65172 0.0
C299 C 0.37716 0.60007 0.59259 0.0
Zn300 Zn 0.61953 0.47781 0.62148 0.0
Zn301 Zn 0.63952 0.32252 0.62404 0.0
C302 C 0.5873 0.48503 0.61638 0.0
O303 O 0.59331 0.50569 0.60127 0.0
C304 C 0.67114 0.3011 0.6363 0.0
O305 O 0.66352 0.27946 0.65027 0.0
O306 O 0.62329 0.56289 0.61857 0.0
O307 O 0.63493 0.44798 0.63986 0.0
O308 O 0.63131 0.35792 0.64725 0.0
C309 C 0.6164 0.59874 0.62891 0.0
O310 O 0.60682 0.57993 0.64162 0.0
O311 O 0.59668 0.46756 0.62867 0.0
C312 C 0.63737 0.2067 0.6113 0.0
O313 O 0.64456 0.2291 0.59715 0.0
O314 O 0.63364 0.23898 0.62454 0.0
O315 O 0.63236 0.35472 0.60003 0.0
O316 O 0.622 0.44178 0.59704 0.0
O317 O 0.66329 0.32442 0.62361 0.0
C318 C 0.63084 0.41062 0.65143 0.0
C319 C 0.62658 0.3945 0.59031 0.0
H320 H 0.1887 0.18877 0.15548 0.0
H321 H 0.21706 0.20489 0.15237 0.0
H322 H 0.21162 0.22611 0.09452 0.0
H323 H 0.18301 0.20963 0.0975 0.0
H324 H 0.24004 0.14396 0.12831 0.0
H325 H 0.2335 0.37752 0.1147 0.0
H326 H 0.21794 0.33611 0.12519 0.0
H327 H 0.22199 0.32792 0.10142 0.0
C328 C 0.19351 0.19647 0.14205 0.0
C329 C 0.18363 0.1983 0.12674 0.0
C330 C 0.20972 0.20556 0.14031 0.0
C331 C 0.21636 0.21728 0.12327 0.0
C332 C 0.20664 0.2176 0.10782 0.0
H333 H 0.31442 0.32642 0.10558 0.0
H334 H 0.2864 0.30488 0.10092 0.0
C335 C 0.19036 0.20788 0.10952 0.0
C336 C 0.23341 0.23063 0.12206 0.0
H337 H 0.25929 0.34222 0.11843 0.0
C338 C 0.24429 0.18713 0.12594 0.0
C339 C 0.23886 0.28696 0.1189 0.0
C340 C 0.22753 0.33514 0.11489 0.0
C341 C 0.26052 0.19873 0.12716 0.0
C342 C 0.26593 0.25566 0.12492 0.0
C343 C 0.2551 0.29875 0.12031 0.0
C344 C 0.28269 0.27146 0.12799 0.0
C345 C 0.27172 0.14988 0.13087 0.0
C346 C 0.28976 0.26155 0.14495 0.0
C347 C 0.30576 0.27361 0.14765 0.0
C348 C 0.31497 0.29646 0.1335 0.0
C349 C 0.30768 0.30872 0.11676 0.0
C350 C 0.29167 0.29636 0.11405 0.0
H351 H 0.26653 0.10813 0.12677 0.0
H352 H 0.28309 0.15583 0.12358 0.0
H353 H 0.2742 0.14794 0.14566 0.0
H354 H 0.28293 0.24383 0.15606 0.0
H355 H 0.31095 0.26418 0.16076 0.0
H356 H 0.81323 0.79517 0.16456 0.0
H357 H 0.78484 0.778 0.16107 0.0
H358 H 0.78925 0.79581 0.103 0.0
H359 H 0.81764 0.81337 0.1063 0.0
H360 H 0.76142 0.85423 0.14109 0.0
H361 H 0.76788 0.63344 0.11321 0.0
H362 H 0.78341 0.66725 0.12621 0.0
H363 H 0.77951 0.69021 0.10342 0.0
C364 C 0.80816 0.79577 0.15105 0.0
C365 C 0.81768 0.80555 0.13572 0.0
C366 C 0.79196 0.78596 0.14909 0.0
C367 C 0.78506 0.78509 0.13178 0.0
C368 C 0.79443 0.79584 0.11645 0.0
H369 H 0.68714 0.69096 0.10623 0.0
H370 H 0.71525 0.71408 0.10335 0.0
C371 C 0.81062 0.80617 0.1184 0.0
C372 C 0.76802 0.77256 0.12992 0.0
H373 H 0.74204 0.66654 0.11862 0.0
C374 C 0.75714 0.81337 0.13609 0.0
C375 C 0.76255 0.71961 0.12306 0.0
C376 C 0.77387 0.67476 0.11613 0.0
C377 C 0.74087 0.80203 0.13604 0.0
C378 C 0.73542 0.74773 0.13022 0.0
C379 C 0.74627 0.70781 0.1233 0.0
C380 C 0.7186 0.73097 0.132 0.0
C381 C 0.72967 0.84842 0.14217 0.0
C382 C 0.7113 0.73106 0.14913 0.0
C383 C 0.69525 0.71812 0.15083 0.0
C384 C 0.68623 0.70413 0.13544 0.0
C385 C 0.69374 0.70167 0.11837 0.0
C386 C 0.7098 0.71495 0.11668 0.0
H387 H 0.73502 0.8916 0.14065 0.0
H388 H 0.71846 0.84711 0.13434 0.0
H389 H 0.72684 0.84215 0.15676 0.0
H390 H 0.71799 0.74178 0.1612 0.0
H391 H 0.68988 0.71985 0.16419 0.0
H392 H 0.31083 0.70561 0.32495 0.0
H393 H 0.2826 0.72375 0.32955 0.0
H394 H 0.28887 0.71146 0.38752 0.0
H395 H 0.3171 0.69283 0.3831 0.0
H396 H 0.25956 0.65088 0.35107 0.0
H397 H 0.26753 0.87352 0.37679 0.0
H398 H 0.28242 0.83803 0.36326 0.0
H399 H 0.27949 0.81763 0.3865 0.0
C400 C 0.3062 0.70635 0.33868 0.0
C401 C 0.31623 0.6979 0.35365 0.0
C402 C 0.29008 0.71676 0.34127 0.0
C403 C 0.28374 0.71963 0.35887 0.0
C404 C 0.29361 0.70999 0.37384 0.0
H405 H 0.18561 0.8094 0.38813 0.0
H406 H 0.21399 0.78806 0.39063 0.0
C407 C 0.30971 0.699 0.37127 0.0
C408 C 0.26678 0.73293 0.36144 0.0
H409 H 0.24141 0.84009 0.37365 0.0
C410 C 0.25557 0.69205 0.35613 0.0
C411 C 0.26166 0.78646 0.36824 0.0
C412 C 0.27333 0.8318 0.37398 0.0
C413 C 0.23934 0.70374 0.35707 0.0
C414 C 0.23421 0.75828 0.36304 0.0
C415 C 0.24539 0.79845 0.36901 0.0
C416 C 0.21738 0.77541 0.36176 0.0
C417 C 0.22778 0.6577 0.35154 0.0
C418 C 0.21009 0.77732 0.34469 0.0
C419 C 0.19401 0.78932 0.34323 0.0
C420 C 0.18486 0.80017 0.35881 0.0
C421 C 0.19233 0.80102 0.37589 0.0
C422 C 0.20851 0.78877 0.37734 0.0
H423 H 0.23313 0.61439 0.3525 0.0
H424 H 0.217 0.65891 0.36014 0.0
H425 H 0.22421 0.66468 0.33721 0.0
H426 H 0.2168 0.76849 0.33246 0.0
H427 H 0.1887 0.78907 0.32984 0.0
H428 H 0.81663 0.23426 0.38287 0.0
H429 H 0.78862 0.25868 0.38599 0.0
H430 H 0.77876 0.17468 0.33505 0.0
H431 H 0.80661 0.14979 0.33182 0.0
H432 H 0.7703 0.32427 0.3605 0.0
H433 H 0.74619 0.10618 0.371 0.0
H434 H 0.76675 0.12364 0.37456 0.0
H435 H 0.75943 0.11108 0.35198 0.0
C436 C 0.80847 0.22042 0.37243 0.0
C437 C 0.81381 0.18984 0.35712 0.0
C438 C 0.79251 0.23456 0.37423 0.0
C439 C 0.78167 0.21782 0.36086 0.0
C440 C 0.78695 0.18703 0.34566 0.0
H441 H 0.68727 0.25432 0.32563 0.0
H442 H 0.71551 0.23841 0.33026 0.0
C443 C 0.80287 0.17302 0.34382 0.0
C444 C 0.76491 0.23435 0.3622 0.0
H445 H 0.72777 0.17806 0.36156 0.0
C446 C 0.76095 0.29255 0.36103 0.0
C447 C 0.75283 0.1927 0.36305 0.0
C448 C 0.75648 0.12992 0.3654 0.0
C449 C 0.74514 0.30997 0.35955 0.0
C450 C 0.73312 0.26795 0.35937 0.0
C451 C 0.73707 0.21002 0.36145 0.0
C452 C 0.7164 0.2825 0.3561 0.0
C453 C 0.74142 0.37272 0.35735 0.0
C454 C 0.70767 0.31323 0.36902 0.0
C455 C 0.69153 0.32257 0.36639 0.0
C456 C 0.68387 0.30091 0.35086 0.0
C457 C 0.69279 0.27149 0.33773 0.0
C458 C 0.70891 0.26228 0.34036 0.0
H459 H 0.75221 0.39872 0.35491 0.0
H460 H 0.7331 0.37929 0.34589 0.0
H461 H 0.73563 0.38874 0.3699 0.0
H462 H 0.71323 0.32846 0.38136 0.0
H463 H 0.68498 0.34518 0.37681 0.0
H464 H 0.69039 0.77651 0.83015 0.0
H465 H 0.71856 0.7934 0.835 0.0
H466 H 0.71798 0.67864 0.88085 0.0
H467 H 0.68977 0.66101 0.87604 0.0
H468 H 0.73186 0.83879 0.86768 0.0
H469 H 0.75634 0.62433 0.85033 0.0
H470 H 0.73683 0.64658 0.84338 0.0
H471 H 0.74039 0.62603 0.8665 0.0
C472 C 0.69627 0.75427 0.84114 0.0
C473 C 0.68782 0.7174 0.8527 0.0
C474 C 0.71236 0.76411 0.84391 0.0
C475 C 0.72035 0.73705 0.85821 0.0
C476 C 0.71207 0.69934 0.86959 0.0
H477 H 0.82126 0.77597 0.8849 0.0
H478 H 0.79311 0.75243 0.88802 0.0
C479 C 0.69594 0.68948 0.86684 0.0
C480 C 0.73718 0.75071 0.86158 0.0
H481 H 0.77447 0.69528 0.85951 0.0
C482 C 0.74117 0.80734 0.86601 0.0
C483 C 0.74927 0.70939 0.85961 0.0
C484 C 0.7456 0.64819 0.85458 0.0
C485 C 0.75698 0.82418 0.86802 0.0
C486 C 0.76909 0.7835 0.86528 0.0
C487 C 0.76511 0.72631 0.8616 0.0
C488 C 0.7859 0.80071 0.86438 0.0
C489 C 0.76064 0.88553 0.87284 0.0
C490 C 0.79109 0.83579 0.85012 0.0
C491 C 0.80709 0.84903 0.84824 0.0
C492 C 0.81823 0.82752 0.86062 0.0
C493 C 0.81295 0.79355 0.87521 0.0
C494 C 0.79691 0.77984 0.87698 0.0
H495 H 0.75032 0.90716 0.87917 0.0
H496 H 0.77082 0.88803 0.88232 0.0
H497 H 0.7638 0.90925 0.86029 0.0
H498 H 0.78279 0.85168 0.84012 0.0
H499 H 0.81076 0.87518 0.83684 0.0
H500 H 0.3108 0.3435 0.87737 0.0
H501 H 0.28268 0.32282 0.88214 0.0
H502 H 0.28183 0.22436 0.83259 0.0
H503 H 0.30982 0.24442 0.82774 0.0
H504 H 0.25597 0.34447 0.85939 0.0
H505 H 0.26461 0.11245 0.87131 0.0
H506 H 0.28059 0.1636 0.87247 0.0
H507 H 0.27386 0.13751 0.85082 0.0
C508 C 0.3046 0.31774 0.86742 0.0
C509 C 0.31261 0.29534 0.85221 0.0
C510 C 0.28854 0.30589 0.8702 0.0
C511 C 0.28025 0.27109 0.85791 0.0
C512 C 0.28809 0.25026 0.84245 0.0
H513 H 0.18695 0.18019 0.8287 0.0
H514 H 0.21516 0.2006 0.83214 0.0
C515 C 0.30409 0.26213 0.83964 0.0
C516 C 0.26338 0.25648 0.86102 0.0
H517 H 0.23817 0.14262 0.8646 0.0
C518 C 0.25208 0.30046 0.86083 0.0
C519 C 0.25833 0.19905 0.86312 0.0
C520 C 0.26998 0.15044 0.86464 0.0
C521 C 0.23583 0.28811 0.86162 0.0
C522 C 0.23081 0.2305 0.86264 0.0
C523 C 0.24209 0.18673 0.86368 0.0
C524 C 0.21391 0.21488 0.86112 0.0
C525 C 0.22403 0.33632 0.86068 0.0
C526 C 0.20397 0.21499 0.87639 0.0
C527 C 0.18783 0.20273 0.87451 0.0
C528 C 0.18139 0.19077 0.85729 0.0
C529 C 0.19151 0.18945 0.84213 0.0
C530 C 0.20763 0.20111 0.84406 0.0
H531 H 0.22982 0.37898 0.86012 0.0
H532 H 0.2165 0.33105 0.84844 0.0
H533 H 0.21615 0.33481 0.87274 0.0
H534 H 0.20865 0.22552 0.88968 0.0
H535 H 0.18032 0.20448 0.88643 0.0
H536 H 0.69154 0.2588 0.66165 0.0
H537 H 0.71975 0.23977 0.65807 0.0
H538 H 0.71809 0.30487 0.60328 0.0
H539 H 0.68987 0.32499 0.60684 0.0
H540 H 0.73345 0.16675 0.63234 0.0
H541 H 0.7561 0.38923 0.62488 0.0
H542 H 0.7366 0.37392 0.63359 0.0
H543 H 0.7405 0.3688 0.60965 0.0
C544 C 0.69718 0.26969 0.6489 0.0
C545 C 0.68845 0.29353 0.63455 0.0
C546 C 0.71331 0.25866 0.64686 0.0
C547 C 0.72104 0.27131 0.63047 0.0
C548 C 0.71242 0.29572 0.61616 0.0
H549 H 0.82114 0.21714 0.60387 0.0
H550 H 0.79277 0.23568 0.60102 0.0
C551 C 0.69628 0.30702 0.61821 0.0
C552 C 0.73799 0.25657 0.6283 0.0
H553 H 0.77475 0.31449 0.62275 0.0
C554 C 0.74248 0.19904 0.63019 0.0
C555 C 0.74971 0.29868 0.62523 0.0
C556 C 0.74558 0.36121 0.62333 0.0
C557 C 0.75841 0.18262 0.62954 0.0
C558 C 0.77018 0.22495 0.62724 0.0
C559 C 0.76568 0.2822 0.62462 0.0
C560 C 0.78723 0.21115 0.62863 0.0
C561 C 0.76254 0.12008 0.63135 0.0
C562 C 0.7935 0.19134 0.64511 0.0
C563 C 0.8097 0.18099 0.64683 0.0
C564 C 0.81995 0.19017 0.63207 0.0
C565 C 0.81358 0.20933 0.61548 0.0
C566 C 0.79738 0.22011 0.61382 0.0
H567 H 0.75232 0.09212 0.62801 0.0
H568 H 0.77259 0.10862 0.62235 0.0
H569 H 0.76607 0.1112 0.64559 0.0
H570 H 0.78588 0.18497 0.65678 0.0
H571 H 0.8142 0.16639 0.6598 0.0
H572 H 0.18451 0.81567 0.65934 0.0
H573 H 0.21259 0.79386 0.65639 0.0
H574 H 0.20822 0.79475 0.598 0.0
H575 H 0.18009 0.81803 0.60085 0.0
H576 H 0.22501 0.69791 0.64088 0.0
H577 H 0.24749 0.89147 0.6053 0.0
H578 H 0.22823 0.88917 0.61582 0.0
H579 H 0.23143 0.85553 0.59416 0.0
C580 C 0.18955 0.81217 0.64585 0.0
C581 C 0.18007 0.81873 0.63033 0.0
C582 C 0.20561 0.79952 0.64419 0.0
C583 C 0.21256 0.79298 0.62698 0.0
C584 C 0.20321 0.80069 0.61141 0.0
H585 H 0.31094 0.69787 0.60257 0.0
H586 H 0.28244 0.71424 0.59936 0.0
C587 C 0.18712 0.81389 0.61307 0.0
C588 C 0.22935 0.775 0.6256 0.0
H589 H 0.26577 0.817 0.61056 0.0
C590 C 0.2339 0.72393 0.6342 0.0
C591 C 0.24093 0.80859 0.61669 0.0
C592 C 0.23686 0.86448 0.60758 0.0
C593 C 0.24973 0.70625 0.63452 0.0
C594 C 0.26136 0.74081 0.62617 0.0
C595 C 0.25679 0.7907 0.61697 0.0
C596 C 0.27842 0.72815 0.62805 0.0
C597 C 0.25393 0.65091 0.6439 0.0
C598 C 0.28554 0.73073 0.64523 0.0
C599 C 0.30176 0.72173 0.6471 0.0
C600 C 0.31118 0.70991 0.63181 0.0
C601 C 0.30398 0.7066 0.61462 0.0
C602 C 0.28773 0.71607 0.61274 0.0
H603 H 0.24352 0.62221 0.64521 0.0
H604 H 0.2634 0.62789 0.63642 0.0
H605 H 0.25833 0.66049 0.65778 0.0
H606 H 0.27858 0.74081 0.65717 0.0
H607 H 0.30692 0.72462 0.66053 0.0
H608 H 0.10489 0.9509 0.3152 0.0
H609 H 0.10611 0.98343 0.28366 0.0
H610 H 0.15409 0.92166 0.27967 0.0
H611 H 0.15245 0.88572 0.31092 0.0
H612 H 0.12452 0.06386 0.27142 0.0
H613 H 0.1371 0.865 0.23268 0.0
H614 H 0.13106 0.86381 0.25619 0.0
H615 H 0.15129 0.87871 0.25022 0.0
C616 C 0.11551 0.94301 0.30735 0.0
C617 C 0.12853 0.91558 0.31521 0.0
C618 C 0.11625 0.96178 0.28943 0.0
C619 C 0.13015 0.95465 0.27927 0.0
C620 C 0.1431 0.92624 0.28707 0.0
H621 H 0.15331 0.11751 0.1753 0.0
H622 H 0.15503 0.08711 0.20731 0.0
C623 C 0.1422 0.90594 0.30489 0.0
C624 C 0.13134 0.98095 0.26108 0.0
H625 H 0.13894 0.95254 0.21644 0.0
C626 C 0.1277 0.03944 0.25941 0.0
C627 C 0.13551 0.94902 0.24544 0.0
C628 C 0.13881 0.88557 0.24616 0.0
C629 C 0.12783 0.06658 0.24248 0.0
C630 C 0.13197 0.03463 0.22698 0.0
C631 C 0.13597 0.97669 0.22857 0.0
C632 C 0.1307 0.05899 0.2087 0.0
C633 C 0.12311 0.12865 0.24105 0.0
C634 C 0.11642 0.05357 0.1993 0.0
C635 C 0.1155 0.06995 0.18116 0.0
C636 C 0.12879 0.09274 0.17239 0.0
C637 C 0.14291 0.10066 0.18202 0.0
C638 C 0.14391 0.08326 0.20014 0.0
H639 H 0.12143 0.14882 0.25459 0.0
H640 H 0.13224 0.15293 0.23342 0.0
H641 H 0.11189 0.13198 0.23333 0.0
H642 H 0.10616 0.03482 0.20582 0.0
H643 H 0.10453 0.06359 0.17384 0.0
H644 H 0.88116 0.00668 0.32542 0.0
H645 H 0.88403 0.96486 0.29501 0.0
H646 H 0.8739 0.12929 0.27112 0.0
H647 H 0.87119 0.17118 0.3014 0.0
H648 H 0.86076 0.96234 0.26739 0.0
H649 H 0.91443 0.07834 0.2448 0.0
H650 H 0.90857 0.07419 0.26837 0.0
H651 H 0.89921 0.12457 0.25338 0.0
C652 C 0.87982 0.03396 0.31368 0.0
C653 C 0.87613 0.09221 0.31581 0.0
C654 C 0.88137 0.01004 0.29633 0.0
C655 C 0.87941 0.04419 0.28082 0.0
C656 C 0.87577 0.10242 0.28291 0.0
H657 H 0.87281 0.01449 0.1654 0.0
H658 H 0.87449 0.04282 0.19726 0.0
C659 C 0.87415 0.12623 0.30023 0.0
C660 C 0.88041 0.01875 0.2624 0.0
H661 H 0.89943 0.0315 0.22167 0.0
C662 C 0.86934 0.97681 0.25743 0.0
C663 C 0.89162 0.03777 0.24948 0.0
C664 C 0.90424 0.08081 0.25429 0.0
C665 C 0.86872 0.95522 0.23962 0.0
C666 C 0.87968 0.97544 0.22656 0.0
C667 C 0.89102 0.01618 0.23169 0.0
C668 C 0.87904 0.95734 0.20725 0.0
C669 C 0.85595 0.91283 0.23473 0.0
C670 C 0.88131 0.89992 0.20225 0.0
C671 C 0.88031 0.88344 0.18399 0.0
C672 C 0.87708 0.9242 0.17042 0.0
C673 C 0.87521 0.98189 0.17549 0.0
C674 C 0.87619 0.99823 0.1937 0.0
H675 H 0.84646 0.91126 0.24517 0.0
H676 H 0.85056 0.92369 0.22142 0.0
H677 H 0.86119 0.86946 0.23362 0.0
H678 H 0.88384 0.86786 0.21246 0.0
H679 H 0.8819 0.83873 0.18054 0.0
H680 H 0.86091 0.99851 0.66086 0.0
H681 H 0.86043 0.9645 0.69219 0.0
H682 H 0.88877 0.10895 0.70866 0.0
H683 H 0.8892 0.14371 0.67725 0.0
H684 H 0.885 0.93324 0.71422 0.0
H685 H 0.85208 0.11532 0.74434 0.0
H686 H 0.85337 0.10393 0.72013 0.0
H687 H 0.86949 0.13674 0.73218 0.0
C688 C 0.86711 0.02303 0.67111 0.0
C689 C 0.87517 0.07374 0.66655 0.0
C690 C 0.86676 0.00357 0.68903 0.0
C691 C 0.87438 0.03454 0.70279 0.0
C692 C 0.88253 0.08503 0.69831 0.0
H693 H 0.8934 0.9915 0.81607 0.0
H694 H 0.89187 0.01914 0.78423 0.0
C695 C 0.88283 0.10469 0.68035 0.0
C696 C 0.87408 0.0131 0.72174 0.0
H697 H 0.86376 0.0496 0.76507 0.0
C698 C 0.88024 0.95845 0.72533 0.0
C699 C 0.86775 0.04593 0.73618 0.0
C700 C 0.86015 0.1035 0.73303 0.0
C701 C 0.88074 0.93654 0.74308 0.0
C702 C 0.87478 0.96999 0.75754 0.0
C703 C 0.86836 0.02416 0.75392 0.0
C704 C 0.87584 0.95108 0.77668 0.0
C705 C 0.88809 0.87862 0.74634 0.0
C706 C 0.86735 0.90338 0.78299 0.0
C707 C 0.86815 0.88744 0.80131 0.0
C708 C 0.87737 0.91931 0.81359 0.0
C709 C 0.886 0.96652 0.80708 0.0
C710 C 0.88519 0.98233 0.78885 0.0
H711 H 0.89474 0.86304 0.73429 0.0
H712 H 0.89622 0.88017 0.75816 0.0
H713 H 0.87864 0.84717 0.74945 0.0
H714 H 0.8599 0.87915 0.77382 0.0
H715 H 0.86129 0.85107 0.80592 0.0
H716 H 0.11022 0.13485 0.80963 0.0
H717 H 0.1091 0.10121 0.77806 0.0
H718 H 0.15127 1.00123 0.78672 0.0
H719 H 0.15214 0.03302 0.8183 0.0
H720 H 0.12963 0.106 0.74921 0.0
H721 H 0.12021 0.88054 0.77021 0.0
H722 H 0.11898 0.93947 0.786 0.0
H723 H 0.13791 0.91116 0.77942 0.0
C724 C 0.11931 0.10615 0.8047 0.0
C725 C 0.13111 0.08568 0.81642 0.0
C726 C 0.11865 0.08689 0.78673 0.0
C727 C 0.12984 0.04741 0.78028 0.0
C728 C 0.14222 0.03014 0.79164 0.0
H729 H 0.14742 0.87529 0.67822 0.0
H730 H 0.14763 0.90804 0.70999 0.0
C731 C 0.14276 0.04859 0.80962 0.0
C732 C 0.12839 0.02302 0.76184 0.0
H733 H 0.12533 0.89655 0.73882 0.0
C734 C 0.12858 0.06028 0.74691 0.0
C735 C 0.12698 0.96328 0.75895 0.0
C736 C 0.12585 0.92133 0.7745 0.0
C737 C 0.1278 0.03926 0.7291 0.0
C738 C 0.12659 0.97951 0.72624 0.0
C739 C 0.12631 0.94228 0.74114 0.0
C740 C 0.12565 0.95495 0.70781 0.0
C741 C 0.12864 0.08104 0.71348 0.0
C742 C 0.11295 0.96882 0.69644 0.0
C743 C 0.11288 0.95047 0.67843 0.0
C744 C 0.12532 0.91699 0.67173 0.0
C745 C 0.13761 0.90036 0.68331 0.0
C746 C 0.13777 0.91927 0.70133 0.0
H747 H 0.13334 0.12331 0.71782 0.0
H748 H 0.1362 0.06414 0.70236 0.0
H749 H 0.11659 0.08781 0.70796 0.0
H750 H 0.10334 0.99532 0.70134 0.0
H751 H 0.10337 0.96391 0.66954 0.0
H752 H 0.61889 0.34625 0.30585 0.0
H753 H 0.618 0.37751 0.27412 0.0
H754 H 0.63071 0.54868 0.29052 0.0
H755 H 0.63186 0.51787 0.32218 0.0
H756 H 0.60001 0.46527 0.2572 0.0
H757 H 0.66458 0.506 0.25262 0.0
H758 H 0.65581 0.46496 0.27081 0.0
H759 H 0.65491 0.54182 0.27115 0.0
C760 C 0.62143 0.39061 0.30272 0.0
C761 C 0.62557 0.42947 0.31654 0.0
C762 C 0.62091 0.40836 0.2846 0.0
C763 C 0.62455 0.46511 0.27999 0.0
C764 C 0.62816 0.50441 0.29378 0.0
H765 H 0.62308 0.65886 0.17979 0.0
H766 H 0.62107 0.62691 0.21141 0.0
C767 C 0.62871 0.48676 0.31188 0.0
C768 C 0.62478 0.48315 0.26074 0.0
H769 H 0.64898 0.53618 0.22761 0.0
C770 C 0.61071 0.4806 0.25069 0.0
C771 C 0.63882 0.50273 0.2523 0.0
C772 C 0.65443 0.50364 0.26219 0.0
C773 C 0.61026 0.49825 0.23247 0.0
C774 C 0.62421 0.51872 0.22421 0.0
C775 C 0.6383 0.52082 0.23415 0.0
C776 C 0.62448 0.53739 0.2051 0.0
C777 C 0.59494 0.49536 0.22208 0.0
C778 C 0.62703 0.49736 0.19124 0.0
C779 C 0.62831 0.51538 0.17321 0.0
C780 C 0.62698 0.57375 0.16875 0.0
C781 C 0.62412 0.6136 0.18273 0.0
C782 C 0.62296 0.59552 0.20078 0.0
H783 H 0.58496 0.48042 0.23068 0.0
H784 H 0.59204 0.53827 0.21653 0.0
H785 H 0.59628 0.46571 0.21038 0.0
H786 H 0.6283 0.45232 0.19442 0.0
H787 H 0.63062 0.48364 0.16282 0.0
H788 H 0.39127 0.64334 0.30975 0.0
H789 H 0.39323 0.612 0.2779 0.0
H790 H 0.36003 0.47618 0.28859 0.0
H791 H 0.35794 0.5071 0.32026 0.0
H792 H 0.39975 0.48007 0.26547 0.0
H793 H 0.34396 0.58571 0.24346 0.0
H794 H 0.35571 0.61263 0.2621 0.0
H795 H 0.34404 0.54924 0.26504 0.0
C796 C 0.3844 0.6068 0.30528 0.0
C797 C 0.37457 0.57733 0.31753 0.0
C798 C 0.38559 0.58887 0.28715 0.0
C799 C 0.37679 0.54179 0.281 0.0
C800 C 0.36695 0.51248 0.29316 0.0
H801 H 0.36083 0.35742 0.18105 0.0
H802 H 0.36256 0.38945 0.21282 0.0
C803 C 0.36585 0.53003 0.31125 0.0
C804 C 0.37756 0.52347 0.26179 0.0
H805 H 0.35648 0.52466 0.22227 0.0
C806 C 0.39039 0.49014 0.25595 0.0
C807 C 0.36527 0.53662 0.24952 0.0
C808 C 0.35145 0.57325 0.25519 0.0
C809 C 0.39106 0.46868 0.23811 0.0
C810 C 0.37864 0.48116 0.22594 0.0
C811 C 0.36593 0.51507 0.23173 0.0
C812 C 0.37859 0.4593 0.2071 0.0
C813 C 0.40481 0.43188 0.23237 0.0
C814 C 0.38718 0.48775 0.19353 0.0
C815 C 0.38612 0.46981 0.17544 0.0
C816 C 0.37651 0.42315 0.1707 0.0
C817 C 0.36836 0.39343 0.1844 0.0
C818 C 0.36929 0.41175 0.20248 0.0
H819 H 0.41307 0.42321 0.24377 0.0
H820 H 0.40042 0.39048 0.22692 0.0
H821 H 0.41142 0.45354 0.22129 0.0
H822 H 0.39444 0.52446 0.19689 0.0
H823 H 0.39279 0.49244 0.16514 0.0
H824 H 0.37927 0.51642 0.82198 0.0
H825 H 0.38216 0.54718 0.79032 0.0
H826 H 0.37769 0.37213 0.77248 0.0
H827 H 0.37474 0.3409 0.80401 0.0
H828 H 0.40413 0.51132 0.76158 0.0
H829 H 0.34124 0.46089 0.74661 0.0
H830 H 0.34867 0.46814 0.76948 0.0
H831 H 0.35243 0.4039 0.75678 0.0
C832 C 0.37902 0.48438 0.81133 0.0
C833 C 0.37656 0.42627 0.81552 0.0
C834 C 0.38072 0.50204 0.79326 0.0
C835 C 0.3799 0.462 0.77908 0.0
C836 C 0.37814 0.40376 0.78324 0.0
H837 H 0.37651 0.50045 0.66103 0.0
H838 H 0.3803 0.46133 0.69169 0.0
C839 C 0.37652 0.386 0.80129 0.0
C840 C 0.38011 0.48136 0.75989 0.0
H841 H 0.35704 0.49096 0.72196 0.0
C842 C 0.39386 0.50682 0.75289 0.0
C843 C 0.36666 0.47562 0.74864 0.0
C844 C 0.35135 0.45112 0.75572 0.0
C845 C 0.39452 0.52632 0.73483 0.0
C846 C 0.38107 0.52054 0.72362 0.0
C847 C 0.36738 0.49475 0.73058 0.0
C848 C 0.38054 0.54402 0.70495 0.0
C849 C 0.40956 0.55281 0.72776 0.0
C850 C 0.37948 0.60332 0.70231 0.0
C851 C 0.37707 0.62558 0.68491 0.0
C852 C 0.37588 0.58892 0.66981 0.0
C853 C 0.37753 0.52963 0.6724 0.0
C854 C 0.37966 0.50729 0.68988 0.0
H855 H 0.41975 0.54445 0.73689 0.0
H856 H 0.41237 0.53606 0.714 0.0
H857 H 0.40796 0.59982 0.72661 0.0
H858 H 0.37999 0.63228 0.7138 0.0
H859 H 0.3759 0.67148 0.6833 0.0
H860 H 0.61671 0.65639 0.80694 0.0
H861 H 0.61416 0.62003 0.77593 0.0
H862 H 0.63155 0.45543 0.79333 0.0
H863 H 0.63374 0.49097 0.82445 0.0
H864 H 0.63916 0.58317 0.75578 0.0
H865 H 0.59485 0.40896 0.7615 0.0
H866 H 0.59763 0.46189 0.7791 0.0
H867 H 0.61103 0.40251 0.77709 0.0
C868 C 0.61966 0.61207 0.80424 0.0
C869 C 0.62547 0.5766 0.81813 0.0
C870 C 0.61823 0.5914 0.78651 0.0
C871 C 0.62256 0.53492 0.78233 0.0
C872 C 0.62781 0.49876 0.7963 0.0
H873 H 0.63521 0.3453 0.68188 0.0
H874 H 0.63314 0.37621 0.71358 0.0
C875 C 0.62912 0.51926 0.81408 0.0
C876 C 0.62299 0.5158 0.76313 0.0
H877 H 0.60924 0.41429 0.73374 0.0
C878 C 0.63251 0.54651 0.75091 0.0
C879 C 0.61449 0.46752 0.75689 0.0
C880 C 0.60382 0.43357 0.76928 0.0
C881 C 0.63396 0.52988 0.73268 0.0
C882 C 0.62531 0.48195 0.72635 0.0
C883 C 0.61582 0.45111 0.73859 0.0
C884 C 0.62605 0.4629 0.70713 0.0
C885 C 0.64514 0.56293 0.72058 0.0
C886 C 0.62246 0.50095 0.69297 0.0
C887 C 0.62398 0.48374 0.67488 0.0
C888 C 0.62862 0.42766 0.67059 0.0
C889 C 0.63156 0.38881 0.68477 0.0
C890 C 0.63038 0.40642 0.70288 0.0
H891 H 0.65425 0.58599 0.72862 0.0
H892 H 0.6512 0.5343 0.71076 0.0
H893 H 0.63836 0.59541 0.71284 0.0
H894 H 0.61859 0.54417 0.69589 0.0
H895 H 0.62152 0.51432 0.66425 0.0
H896 H 0.14153 0.05304 0.92347 0.0
H897 H 0.14259 0.06627 0.95637 0.0
H898 H 0.11264 0.21479 0.95194 0.0
H899 H 0.1115 0.20218 0.9189 0.0
H900 H 0.15196 0.17806 0.97635 0.0
H901 H 0.09134 0.09266 0.9887 0.0
H902 H 0.10264 0.07395 0.96874 0.0
H903 H 0.09405 0.14379 0.97063 0.0
C904 C 0.13514 0.08853 0.92945 0.0
C905 C 0.12638 0.12649 0.9186 0.0
C906 C 0.13585 0.09613 0.94821 0.0
C907 C 0.12769 0.1414 0.95642 0.0
C908 C 0.11899 0.17961 0.94572 0.0
H909 H 0.11464 0.20825 0.07197 0.0
H910 H 0.11588 0.22204 0.039 0.0
C911 C 0.11837 0.17233 0.9269 0.0
C912 C 0.12797 0.14735 0.9763 0.0
H913 H 0.10601 0.12131 0.01425 0.0
C914 C 0.1419 0.1662 0.98469 0.0
C915 C 0.11481 0.13144 0.98697 0.0
C916 C 0.09984 0.109 0.97842 0.0
C917 C 0.14305 0.16906 0.00367 0.0
C918 C 0.12997 0.15233 0.01432 0.0
C919 C 0.11594 0.13456 0.00592 0.0
C920 C 0.1309 0.14871 0.03423 0.0
C921 C 0.1582 0.1893 0.0123 0.0
C922 C 0.13908 0.10326 0.04227 0.0
C923 C 0.13824 0.09477 0.06099 0.0
C924 C 0.12924 0.13183 0.07193 0.0
C925 C 0.12164 0.17895 0.06389 0.0
C926 C 0.12234 0.18696 0.0451 0.0
H927 H 0.16624 0.20967 0.00226 0.0
H928 H 0.15564 0.22039 0.02334 0.0
H929 H 0.16439 0.15221 0.01845 0.0
H930 H 0.14563 0.07312 0.03398 0.0
H931 H 0.14432 0.0584 0.06684 0.0
H932 H 0.90239 0.90385 0.91826 0.0
H933 H 0.90211 0.89721 0.95152 0.0
H934 H 0.85405 0.83562 0.94981 0.0
H935 H 0.85446 0.84128 0.91639 0.0
H936 H 0.87948 0.96019 0.97285 0.0
H937 H 0.87679 0.72569 0.98598 0.0
H938 H 0.88383 0.75478 0.96471 0.0
H939 H 0.86308 0.75443 0.9697 0.0
C940 C 0.89191 0.88788 0.92504 0.0
C941 C 0.87848 0.87277 0.915 0.0
C942 C 0.89174 0.88416 0.94395 0.0
C943 C 0.87811 0.86552 0.95306 0.0
C944 C 0.86477 0.84907 0.94298 0.0
H945 H 0.85701 0.8386 0.06848 0.0
H946 H 0.85669 0.83199 0.03527 0.0
C947 C 0.86498 0.85243 0.92399 0.0
C948 C 0.87752 0.86836 0.97311 0.0
H949 H 0.87552 0.78682 0.01145 0.0
C950 C 0.87862 0.92235 0.98134 0.0
C951 C 0.87618 0.81894 0.98402 0.0
C952 C 0.87499 0.76001 0.97575 0.0
C953 C 0.87836 0.92844 0.00028 0.0
C954 C 0.87756 0.87884 0.01131 0.0
C955 C 0.87625 0.82479 0.00302 0.0
C956 C 0.87798 0.88213 0.03146 0.0
C957 C 0.87855 0.98817 0.00815 0.0
C958 C 0.89019 0.91161 0.0404 0.0
C959 C 0.89012 0.91681 0.05931 0.0
C960 C 0.87817 0.89072 0.06963 0.0
C961 C 0.86635 0.85909 0.06078 0.0
C962 C 0.86618 0.85526 0.04184 0.0
H963 H 0.87388 0.02001 -0.00169 0.0
H964 H 0.87143 0.99082 0.0208 0.0
H965 H 0.89091 1.00046 0.01131 0.0
H966 H 0.89976 0.93081 0.03277 0.0
H967 H 0.89951 0.94056 0.06586 0.0
H968 H 0.15119 0.92336 0.41859 0.0
H969 H 0.15208 0.91258 0.45161 0.0
H970 H 0.11039 0.80621 0.44966 0.0
H971 H 0.10991 0.81479 0.41652 0.0
H972 H 0.1292 0.95221 0.47307 0.0
H973 H 0.13659 0.71966 0.48583 0.0
H974 H 0.14 0.75124 0.46379 0.0
H975 H 0.12019 0.73647 0.47137 0.0
C976 C 0.14245 0.8966 0.42522 0.0
C977 C 0.13047 0.87 0.41514 0.0
C978 C 0.14297 0.89045 0.44403 0.0
C979 C 0.13137 0.85828 0.45308 0.0
C980 C 0.11968 0.83002 0.44294 0.0
H981 H 0.10636 0.82849 0.56724 0.0
H982 H 0.1076 0.82003 0.53407 0.0
C983 C 0.11936 0.83521 0.42404 0.0
C984 C 0.13054 0.8601 0.47313 0.0
H985 H 0.12989 0.7776 0.51135 0.0
C986 C 0.12947 0.91402 0.48145 0.0
C987 C 0.13064 0.81017 0.48397 0.0
C988 C 0.13205 0.75114 0.47581 0.0
C989 C 0.12846 0.91957 0.50034 0.0
C990 C 0.12884 0.86975 0.51123 0.0
C991 C 0.12969 0.81569 0.50293 0.0
C992 C 0.12845 0.87306 0.53128 0.0
C993 C 0.12666 0.97877 0.50835 0.0
C994 C 0.13993 0.9047 0.54066 0.0
C995 C 0.13906 0.91053 0.55949 0.0
C996 C 0.12693 0.88347 0.56928 0.0
C997 C 0.11582 0.84981 0.55997 0.0
C998 C 0.11652 0.84491 0.54108 0.0
H999 H 0.12178 0.00944 0.49828 0.0
H1000 H 0.11881 0.97833 0.52044 0.0
H1001 H 0.13844 0.99489 0.51255 0.0
H1002 H 0.14952 0.92526 0.53341 0.0
H1003 H 0.14794 0.93589 0.56639 0.0
H1004 H 0.8823 0.21793 0.56718 0.0
H1005 H 0.88126 0.23076 0.5341 0.0
H1006 H 0.87961 0.04776 0.5269 0.0
H1007 H 0.88078 0.0343 0.55978 0.0
H1008 H 0.904 0.1651 0.50571 0.0
H1009 H 0.83909 0.13098 0.50021 0.0
H1010 H 0.84833 0.15801 0.52063 0.0
H1011 H 0.84984 0.08351 0.51499 0.0
C1012 C 0.88176 0.18043 0.55855 0.0
C1013 C 0.88159 0.12509 0.56612 0.0
C1014 C 0.88119 0.18788 0.5397 0.0
C1015 C 0.88023 0.14018 0.52819 0.0
C1016 C 0.88027 0.08502 0.53564 0.0
H1017 H 0.88402 0.02503 0.42096 0.0
H1018 H 0.88412 0.04545 0.45345 0.0
C1019 C 0.88102 0.07747 0.55443 0.0
C1020 C 0.87916 0.14724 0.50832 0.0
H1021 H 0.85388 0.12823 0.47273 0.0
C1022 C 0.89301 0.15824 0.49846 0.0
C1023 C 0.86478 0.1382 0.49902 0.0
C1024 C 0.84959 0.12734 0.50918 0.0
C1025 C 0.89297 0.15753 0.47938 0.0
C1026 C 0.87873 0.14587 0.47011 0.0
C1027 C 0.86474 0.13748 0.47996 0.0
C1028 C 0.87856 0.13516 0.45035 0.0
C1029 C 0.90822 0.16657 0.46917 0.0
C1030 C 0.87524 0.17905 0.43794 0.0
C1031 C 0.8751 0.16754 0.41924 0.0
C1032 C 0.87833 0.11199 0.4128 0.0
C1033 C 0.88156 0.06832 0.42541 0.0
C1034 C 0.88162 0.07981 0.44399 0.0
H1035 H 0.91801 0.17998 0.47828 0.0
H1036 H 0.91165 0.12614 0.46228 0.0
H1037 H 0.90657 0.1996 0.4585 0.0
H1038 H 0.87285 0.22206 0.44271 0.0
H1039 H 0.87266 0.20211 0.40985 0.0
H1040 H 0.64147 0.69344 0.06891 0.0
H1041 H 0.6418 0.7047 0.03581 0.0
H1042 H 0.60853 0.56596 0.0305 0.0
H1043 H 0.60819 0.55386 0.06355 0.0
H1044 H 0.64633 0.58459 0.00993 0.0
H1045 H 0.59539 0.73284 0.0005 0.0
H1046 H 0.60779 0.73562 0.02047 0.0
H1047 H 0.59418 0.67758 0.01759 0.0
C1048 C 0.63408 0.66575 0.06073 0.0
C1049 C 0.62482 0.62264 0.06882 0.0
C1050 C 0.63432 0.67222 0.04187 0.0
C1051 C 0.62515 0.63625 0.0309 0.0
C1052 C 0.61564 0.5941 0.03888 0.0
H1053 H 0.60998 0.54381 0.9212 0.0
H1054 H 0.61057 0.55789 0.95411 0.0
C1055 C 0.6155 0.58718 0.05771 0.0
C1056 C 0.6261 0.64026 0.01099 0.0
H1057 H 0.60678 0.69287 0.97395 0.0
C1058 C 0.63784 0.6088 0.00202 0.0
C1059 C 0.61497 0.67199 0.00091 0.0
C1060 C 0.60235 0.70675 0.01024 0.0
C1061 C 0.63841 0.60681 0.983 0.0
C1062 C 0.62697 0.63702 0.9729 0.0
C1063 C 0.61552 0.6699 0.98187 0.0
C1064 C 0.62611 0.63124 0.95303 0.0
C1065 C 0.65089 0.57114 0.97372 0.0
C1066 C 0.63456 0.66842 0.94169 0.0
C1067 C 0.63424 0.66067 0.92286 0.0
C1068 C 0.62554 0.61536 0.91518 0.0
C1069 C 0.61689 0.57884 0.92668 0.0
C1070 C 0.61716 0.58685 0.94545 0.0
H1071 H 0.65936 0.55211 0.98353 0.0
H1072 H 0.64516 0.53604 0.96596 0.0
H1073 H 0.65754 0.59788 0.96386 0.0
H1074 H 0.64157 0.70278 0.94743 0.0
H1075 H 0.64106 0.68942 0.91437 0.0
H1076 H 0.39581 0.45511 0.9189 0.0
H1077 H 0.39667 0.44397 0.95185 0.0
H1078 H 0.35868 0.32105 0.94914 0.0
H1079 H 0.35811 0.33049 0.91602 0.0
H1080 H 0.37338 0.46879 0.97535 0.0
H1081 H 0.38908 0.23906 0.98221 0.0
H1082 H 0.39078 0.277 0.96093 0.0
H1083 H 0.37182 0.25217 0.9687 0.0
C1084 C 0.38771 0.42533 0.92528 0.0
C1085 C 0.37688 0.39373 0.91484 0.0
C1086 C 0.38824 0.41893 0.94412 0.0
C1087 C 0.37788 0.38113 0.95296 0.0
C1088 C 0.36707 0.34934 0.94259 0.0
H1089 H 0.36007 0.32096 0.06819 0.0
H1090 H 0.36004 0.31679 0.03491 0.0
C1091 C 0.36667 0.35513 0.92367 0.0
C1092 C 0.3778 0.3783 0.9731 0.0
H1093 H 0.3823 0.28839 0.00933 0.0
C1094 C 0.3754 0.42935 0.98277 0.0
C1095 C 0.38025 0.32668 0.98276 0.0
C1096 C 0.38326 0.27067 0.97314 0.0
C1097 C 0.37538 0.4304 0.00181 0.0
C1098 C 0.37816 0.37907 0.01149 0.0
C1099 C 0.38028 0.32772 0.00186 0.0
C1100 C 0.37898 0.37824 0.03162 0.0
C1101 C 0.3721 0.48644 0.01132 0.0
C1102 C 0.38995 0.41278 0.0408 0.0
C1103 C 0.38984 0.4159 0.05975 0.0
C1104 C 0.37898 0.38347 0.0699 0.0
C1105 C 0.36857 0.34649 0.06073 0.0
C1106 C 0.36853 0.34407 0.04173 0.0
H1107 H 0.3657 0.51683 0.00235 0.0
H1108 H 0.36499 0.47982 0.02384 0.0
H1109 H 0.38347 0.5067 0.01519 0.0
H1110 H 0.39845 0.43817 0.03329 0.0
H1111 H 0.39819 0.44405 0.06644 0.0
H1112 H 0.64658 0.34227 0.41709 0.0
H1113 H 0.64735 0.33437 0.45036 0.0
H1114 H 0.60156 0.41457 0.45381 0.0
H1115 H 0.60089 0.42382 0.42056 0.0
H1116 H 0.63196 0.4614 0.47539 0.0
H1117 H 0.61539 0.23214 0.4848 0.0
H1118 H 0.62763 0.25376 0.46591 0.0
H1119 H 0.60721 0.27377 0.46638 0.0
C1120 C 0.6366 0.35742 0.42499 0.0
C1121 C 0.62365 0.38356 0.41644 0.0
C1122 C 0.63706 0.3529 0.44389 0.0
C1123 C 0.62445 0.37349 0.45435 0.0
C1124 C 0.61136 0.39847 0.44583 0.0
H1125 H 0.60641 0.44636 0.56672 0.0
H1126 H 0.60608 0.43769 0.5336 0.0
C1127 C 0.611 0.40383 0.42695 0.0
C1128 C 0.62536 0.37254 0.47429 0.0
H1129 H 0.6197 0.28703 0.51126 0.0
C1130 C 0.62932 0.42338 0.48328 0.0
C1131 C 0.62211 0.32249 0.48434 0.0
C1132 C 0.61782 0.26718 0.47499 0.0
C1133 C 0.62992 0.42574 0.50227 0.0
C1134 C 0.6261 0.37623 0.51241 0.0
C1135 C 0.62251 0.32492 0.50338 0.0
C1136 C 0.62551 0.37762 0.53243 0.0
C1137 C 0.63479 0.48098 0.51134 0.0
C1138 C 0.63613 0.34484 0.54268 0.0
C1139 C 0.63621 0.34914 0.5616 0.0
C1140 C 0.62574 0.38658 0.57049 0.0
C1141 C 0.61478 0.41792 0.56019 0.0
C1142 C 0.61459 0.41307 0.54131 0.0
H1143 H 0.64096 0.51014 0.50175 0.0
H1144 H 0.62411 0.50335 0.51646 0.0
H1145 H 0.64268 0.47252 0.52308 0.0
H1146 H 0.6446 0.31714 0.536 0.0
H1147 H 0.6448 0.3246 0.56922 0.0
H1148 H 0.36368 0.69057 0.57413 0.0
H1149 H 0.36335 0.7058 0.54104 0.0
H1150 H 0.39075 0.55215 0.53344 0.0
H1151 H 0.3911 0.53633 0.56607 0.0
H1152 H 0.39006 0.71258 0.51474 0.0
H1153 H 0.35005 0.52839 0.50261 0.0
H1154 H 0.35228 0.56129 0.52468 0.0
H1155 H 0.36684 0.51148 0.5165 0.0
C1156 C 0.36964 0.66012 0.56539 0.0
C1157 C 0.37723 0.61182 0.57277 0.0
C1158 C 0.36948 0.66899 0.54653 0.0
C1159 C 0.37683 0.62959 0.53484 0.0
C1160 C 0.38479 0.58252 0.54222 0.0
H1161 H 0.39209 0.54917 0.4233 0.0
H1162 H 0.39191 0.55858 0.45634 0.0
C1163 C 0.38497 0.57363 0.56093 0.0
C1164 C 0.37598 0.63583 0.51484 0.0
H1165 H 0.36375 0.56501 0.47681 0.0
C1166 C 0.38412 0.68093 0.50639 0.0
C1167 C 0.36821 0.59441 0.50404 0.0
C1168 C 0.35872 0.54642 0.51239 0.0
C1169 C 0.38533 0.68405 0.48734 0.0
C1170 C 0.37805 0.64127 0.4766 0.0
C1171 C 0.36945 0.59744 0.48509 0.0
C1172 C 0.37952 0.63956 0.45654 0.0
C1173 C 0.3949 0.73153 0.47886 0.0
C1174 C 0.37278 0.68239 0.44569 0.0
C1175 C 0.37288 0.67721 0.42674 0.0
C1176 C 0.37959 0.62879 0.41833 0.0
C1177 C 0.38671 0.5868 0.42929 0.0
C1178 C 0.38665 0.59214 0.44818 0.0
H1179 H 0.40223 0.75446 0.48904 0.0
H1180 H 0.40274 0.71439 0.46804 0.0
H1181 H 0.38679 0.76297 0.4725 0.0
H1182 H 0.36697 0.71883 0.45187 0.0
H1183 H 0.36722 0.71022 0.41873 0.0
H1184 H 0.93928 0.96006 0.08789 0.0
H1185 H 0.96787 0.96962 0.09001 0.0
H1186 H 0.96401 0.99808 0.14778 0.0
H1187 H 0.93518 0.98687 0.14579 0.0
H1188 H 0.98336 0.06531 0.10061 0.0
H1189 H 0.99982 0.88264 0.14522 0.0
H1190 H 0.9806 0.88822 0.13476 0.0
H1191 H 0.98531 0.93089 0.15434 0.0
C1192 C 0.94451 0.9675 0.10112 0.0
C1193 C 0.935 0.97273 0.11668 0.0
C1194 C 0.96086 0.97308 0.1023 0.0
C1195 C 0.96811 0.9844 0.11904 0.0
C1196 C 0.95871 0.98834 0.13476 0.0
H1197 H 0.06912 0.05453 0.13534 0.0
H1198 H 0.04047 0.05041 0.13986 0.0
C1199 C 0.94225 0.98204 0.13361 0.0
C1200 C 0.9854 0.99519 0.11948 0.0
H1201 H 0.02049 0.94301 0.1353 0.0
C1202 C 0.99146 0.03869 0.10827 0.0
C1203 C 0.99595 0.96078 0.12961 0.0
C1204 C 0.99016 0.91269 0.14157 0.0
C1205 C 0.00777 0.04753 0.10648 0.0
C1206 C 0.0183 0.01189 0.11608 0.0
C1207 C 0.01231 0.97001 0.1279 0.0
C1208 C 0.03556 0.0156 0.11324 0.0
C1209 C 0.01368 0.09445 0.09413 0.0
C1210 C 0.04222 0.99736 0.09676 0.0
C1211 C 0.05858 0.99928 0.09414 0.0
C1212 C 0.06854 0.01987 0.10795 0.0
C1213 C 0.06177 0.03882 0.12438 0.0
C1214 C 0.04542 0.03629 0.12704 0.0
H1215 H 0.0042 0.12546 0.09067 0.0
H1216 H 0.02362 0.11792 0.10057 0.0
H1217 H 0.01811 0.07518 0.08132 0.0
H1218 H 0.03476 0.98091 0.086 0.0
H1219 H 0.06341 0.98429 0.08137 0.0
H1220 H 0.9389 0.91429 0.37979 0.0
H1221 H 0.96781 0.91524 0.37858 0.0
H1222 H 0.96676 0.07725 0.35061 0.0
H1223 H 0.93779 0.07659 0.35158 0.0
H1224 H 0.98958 0.95391 0.34026 0.0
H1225 H 0.99236 0.0718 0.40616 0.0
H1226 H 0.97655 0.02189 0.40159 0.0
H1227 H 0.97732 0.08851 0.38961 0.0
C1228 C 0.94482 0.94993 0.37327 0.0
C1229 C 0.93615 0.99558 0.3659 0.0
C1230 C 0.96127 0.9502 0.37252 0.0
C1231 C 0.96924 0.99626 0.36451 0.0
C1232 C 0.96068 0.04126 0.35673 0.0
H1233 H 0.06664 0.09895 0.37419 0.0
H1234 H 0.03806 0.09429 0.37058 0.0
C1235 C 0.9442 0.04082 0.35734 0.0
C1236 C 0.98655 0.9991 0.3655 0.0
H1237 H 0.01646 0.04541 0.3927 0.0
C1238 C 0.99555 0.97393 0.35166 0.0
C1239 C 0.99408 0.0256 0.38036 0.0
C1240 C 0.98468 0.05362 0.39536 0.0
C1241 C 0.01212 0.97457 0.35234 0.0
C1242 C 0.01971 0.99999 0.36747 0.0
C1243 C 0.0106 0.02562 0.3812 0.0
C1244 C 0.0371 1.00183 0.36924 0.0
C1245 C 0.0213 0.94909 0.33674 0.0
C1246 C 0.04602 0.95124 0.36993 0.0
C1247 C 0.06244 0.95371 0.37193 0.0
C1248 C 0.07014 0.00684 0.37348 0.0
C1249 C 0.06109 0.05729 0.37309 0.0
C1250 C 0.04475 0.05478 0.37098 0.0
H1251 H 0.01399 0.94578 0.32425 0.0
H1252 H 0.03196 0.97505 0.33363 0.0
H1253 H 0.0252 0.90531 0.34046 0.0
H1254 H 0.04028 0.90988 0.36905 0.0
H1255 H 0.06908 0.91409 0.37224 0.0
H1256 H 0.07111 0.93322 0.88693 0.0
H1257 H 0.04244 0.93024 0.88458 0.0
H1258 H 0.04286 0.09189 0.85629 0.0
H1259 H 0.07183 0.09417 0.85806 0.0
H1260 H 0.02158 0.99953 0.899 0.0
H1261 H 0.01357 1.00211 0.82425 0.0
H1262 H 0.03257 0.99043 0.8347 0.0
H1263 H 0.02485 0.06184 0.83242 0.0
C1264 C 0.06516 0.96809 0.88008 0.0
C1265 C 0.0738 0.01407 0.87271 0.0
C1266 C 0.04872 0.96625 0.87873 0.0
C1267 C 0.04041 0.01045 0.87009 0.0
C1268 C 0.04898 0.05652 0.86265 0.0
H1269 H 0.94169 0.10178 0.87522 0.0
H1270 H 0.97053 0.09896 0.87339 0.0
C1271 C 0.06554 0.05805 0.86379 0.0
C1272 C 0.0228 0.00925 0.86989 0.0
H1273 H 0.99036 0.01567 0.84223 0.0
C1274 C 0.0148 0.0027 0.88654 0.0
C1275 C 0.01387 0.01295 0.85364 0.0
C1276 C 0.02164 0.01664 0.83523 0.0
C1277 C 0.99824 1.00071 0.8874 0.0
C1278 C 0.98939 0.0058 0.87125 0.0
C1279 C 0.99725 0.01194 0.85458 0.0
C1280 C 0.97191 0.00677 0.87166 0.0
C1281 C 0.99018 0.99361 0.90555 0.0
C1282 C 0.96319 0.9557 0.87124 0.0
C1283 C 0.94665 0.95707 0.87222 0.0
C1284 C 0.93863 0.00959 0.87379 0.0
C1285 C 0.94748 0.06059 0.87417 0.0
C1286 C 0.96396 0.05916 0.87304 0.0
H1287 H 0.99875 0.99092 0.91694 0.0
H1288 H 0.9821 0.03024 0.90803 0.0
H1289 H 0.98289 0.95408 0.90542 0.0
H1290 H 0.96918 0.91484 0.87028 0.0
H1291 H 0.94017 0.91708 0.87192 0.0
H1292 H 0.93876 0.90847 0.62246 0.0
H1293 H 0.96753 0.9093 0.62395 0.0
H1294 H 0.9672 0.09401 0.62377 0.0
H1295 H 0.93819 0.09321 0.62306 0.0
H1296 H 0.98661 0.94658 0.59897 0.0
H1297 H 0.99963 0.06695 0.66213 0.0
H1298 H 0.98006 0.04126 0.65681 0.0
H1299 H 0.98737 0.10625 0.64669 0.0
C1300 C 0.94479 0.94933 0.62311 0.0
C1301 C 0.93621 1.0008 0.62266 0.0
C1302 C 0.96127 0.94975 0.62392 0.0
C1303 C 0.96965 1.00165 0.62408 0.0
C1304 C 0.96108 0.05333 0.6241 0.0
H1305 H 0.06702 0.06807 0.5946 0.0
H1306 H 0.03841 0.07001 0.59932 0.0
C1307 C 0.94448 0.0529 0.62362 0.0
C1308 C 0.98725 1.00084 0.62268 0.0
H1309 H 0.02142 0.05 0.64211 0.0
C1310 C 0.99416 0.96891 0.60853 0.0
C1311 C 0.99723 0.02986 0.63513 0.0
C1312 C 0.99071 0.06254 0.65115 0.0
C1313 C 0.01063 0.96568 0.60639 0.0
C1314 C 0.02051 0.99544 0.61859 0.0
C1315 C 0.01374 0.02729 0.63277 0.0
C1316 C 0.03792 0.99481 0.61638 0.0
C1317 C 0.01747 0.93067 0.59106 0.0
C1318 C 0.0471 0.95169 0.62441 0.0
C1319 C 0.0635 0.95035 0.62174 0.0
C1320 C 0.07098 0.99196 0.61089 0.0
C1321 C 0.06167 0.03504 0.60289 0.0
C1322 C 0.04532 0.0365 0.60565 0.0
H1323 H 0.00818 0.91007 0.58264 0.0
H1324 H 0.02484 0.95842 0.5822 0.0
H1325 H 0.02527 0.89686 0.59668 0.0
H1326 H 0.04154 0.91895 0.63265 0.0
H1327 H 0.07031 0.9167 0.62814 0.0
H1328 H 0.43528 0.42911 0.14159 0.0
H1329 H 0.46415 0.43134 0.14554 0.0
H1330 H 0.46792 0.55773 0.10312 0.0
H1331 H 0.43934 0.55553 0.09894 0.0
H1332 H 0.48857 0.41682 0.11283 0.0
H1333 H 0.4912 0.62034 0.15205 0.0
H1334 H 0.474 0.57438 0.1521 0.0
H1335 H 0.47816 0.6185 0.13274 0.0
C1336 C 0.44228 0.45742 0.13315 0.0
C1337 C 0.43502 0.49219 0.11997 0.0
C1338 C 0.45872 0.45857 0.13541 0.0
C1339 C 0.46806 0.49506 0.12471 0.0
C1340 C 0.46086 0.52966 0.11159 0.0
H1341 H 0.56194 0.54743 0.09007 0.0
H1342 H 0.53359 0.53563 0.095 0.0
C1343 C 0.44452 0.52817 0.1092 0.0
C1344 C 0.48541 0.49693 0.12681 0.0
H1345 H 0.51545 0.58528 0.14003 0.0
C1346 C 0.49449 0.45305 0.11906 0.0
C1347 C 0.49301 0.54439 0.1349 0.0
C1348 C 0.48365 0.5921 0.14356 0.0
C1349 C 0.51104 0.45674 0.1185 0.0
C1350 C 0.51861 0.5054 0.12591 0.0
C1351 C 0.50957 0.54803 0.13439 0.0
C1352 C 0.53576 0.51486 0.12351 0.0
C1353 C 0.52037 0.40949 0.10954 0.0
C1354 C 0.54629 0.50866 0.13809 0.0
C1355 C 0.56258 0.51568 0.13535 0.0
C1356 C 0.56848 0.52893 0.11797 0.0
C1357 C 0.55778 0.53669 0.10358 0.0
C1358 C 0.54159 0.52989 0.10634 0.0
H1359 H 0.51307 0.37061 0.10721 0.0
H1360 H 0.52485 0.42469 0.09621 0.0
H1361 H 0.53073 0.39784 0.118 0.0
H1362 H 0.54194 0.49722 0.15145 0.0
H1363 H 0.57054 0.5091 0.14666 0.0
H1364 H 0.43241 0.50984 0.34011 0.0
H1365 H 0.46102 0.49623 0.33589 0.0
H1366 H 0.46888 0.54461 0.39172 0.0
H1367 H 0.44055 0.55662 0.39613 0.0
H1368 H 0.48713 0.56678 0.34005 0.0
H1369 H 0.48986 0.38946 0.38967 0.0
H1370 H 0.47139 0.41655 0.38099 0.0
H1371 H 0.48127 0.45249 0.39943 0.0
C1372 C 0.44028 0.51795 0.35141 0.0
C1373 C 0.43422 0.53354 0.36852 0.0
C1374 C 0.4566 0.51003 0.34901 0.0
C1375 C 0.46705 0.51779 0.36365 0.0
C1376 C 0.46103 0.5365 0.38039 0.0
H1377 H 0.56306 0.53042 0.39351 0.0
H1378 H 0.53452 0.53268 0.38942 0.0
C1379 C 0.44481 0.54372 0.38286 0.0
C1380 C 0.48423 0.50597 0.36177 0.0
H1381 H 0.51457 0.43449 0.38224 0.0
C1382 C 0.49312 0.53713 0.34903 0.0
C1383 C 0.49203 0.46676 0.37338 0.0
C1384 C 0.48311 0.42898 0.38649 0.0
C1385 C 0.50971 0.53276 0.34842 0.0
C1386 C 0.51751 0.49605 0.36076 0.0
C1387 C 0.50855 0.46293 0.37287 0.0
C1388 C 0.53495 0.49505 0.36257 0.0
C1389 C 0.51885 0.56941 0.33522 0.0
C1390 C 0.5447 0.47276 0.34882 0.0
C1391 C 0.56114 0.47122 0.35113 0.0
C1392 C 0.56805 0.49197 0.36724 0.0
C1393 C 0.55818 0.51414 0.38092 0.0
C1394 C 0.54183 0.51547 0.37863 0.0
H1395 H 0.51119 0.60104 0.32821 0.0
H1396 H 0.52846 0.59266 0.34237 0.0
H1397 H 0.52441 0.54162 0.32478 0.0
H1398 H 0.53958 0.45607 0.33642 0.0
H1399 H 0.56842 0.45381 0.34036 0.0
H1400 H 0.44102 0.4475 0.89384 0.0
H1401 H 0.46957 0.45647 0.88992 0.0
H1402 H 0.46291 0.50153 0.83367 0.0
H1403 H 0.43411 0.49214 0.83742 0.0
H1404 H 0.48962 0.39653 0.86045 0.0
H1405 H 0.49013 0.63521 0.86059 0.0
H1406 H 0.47445 0.59477 0.87123 0.0
H1407 H 0.47568 0.59814 0.84695 0.0
C1408 C 0.44559 0.45886 0.88057 0.0
C1409 C 0.43531 0.46909 0.86593 0.0
C1410 C 0.46191 0.464 0.87838 0.0
C1411 C 0.46828 0.48014 0.86157 0.0
C1412 C 0.45814 0.48935 0.84677 0.0
H1413 H 0.56885 0.55213 0.84024 0.0
H1414 H 0.54004 0.54497 0.83656 0.0
C1415 C 0.44175 0.48358 0.84891 0.0
C1416 C 0.48559 0.4874 0.8598 0.0
H1417 H 0.51477 0.58854 0.85969 0.0
C1418 C 0.49514 0.43844 0.86005 0.0
C1419 C 0.49268 0.54217 0.85936 0.0
C1420 C 0.4828 0.59587 0.85958 0.0
C1421 C 0.51168 0.4428 0.86013 0.0
C1422 C 0.51881 0.49761 0.86031 0.0
C1423 C 0.50925 0.54663 0.85951 0.0
C1424 C 0.53611 0.50451 0.86261 0.0
C1425 C 0.52139 0.38865 0.86024 0.0
C1426 C 0.54332 0.48548 0.87863 0.0
C1427 C 0.55965 0.48948 0.88076 0.0
C1428 C 0.56916 0.51295 0.86695 0.0
C1429 C 0.56187 0.53361 0.85108 0.0
C1430 C 0.54543 0.52958 0.84897 0.0
H1431 H 0.51454 0.35151 0.85504 0.0
H1432 H 0.53224 0.39364 0.8519 0.0
H1433 H 0.525 0.37891 0.8744 0.0
H1434 H 0.5363 0.46708 0.88948 0.0
H1435 H 0.56482 0.47364 0.89324 0.0
H1436 H 0.43516 0.50875 0.64823 0.0
H1437 H 0.46391 0.50396 0.65258 0.0
H1438 H 0.47086 0.52224 0.59483 0.0
H1439 H 0.44228 0.52637 0.5903 0.0
H1440 H 0.48569 0.41797 0.63078 0.0
H1441 H 0.49864 0.65027 0.62327 0.0
H1442 H 0.47971 0.6238 0.63101 0.0
H1443 H 0.48484 0.61962 0.60739 0.0
C1444 C 0.44284 0.51206 0.63649 0.0
C1445 C 0.43651 0.51787 0.61892 0.0
C1446 C 0.4592 0.50917 0.639 0.0
C1447 C 0.46938 0.51302 0.62402 0.0
C1448 C 0.46311 0.51947 0.60653 0.0
H1449 H 0.56493 0.51445 0.59163 0.0
H1450 H 0.53643 0.51887 0.59587 0.0
C1451 C 0.44681 0.52165 0.60398 0.0
C1452 C 0.48663 0.50891 0.62634 0.0
H1453 H 0.52047 0.58671 0.62183 0.0
C1454 C 0.49337 0.45484 0.62916 0.0
C1455 C 0.49644 0.55722 0.62411 0.0
C1456 C 0.48961 0.61622 0.62139 0.0
C1457 C 0.50983 0.44738 0.62892 0.0
C1458 C 0.51967 0.49552 0.62611 0.0
C1459 C 0.51287 0.54991 0.62399 0.0
C1460 C 0.53696 0.49004 0.62378 0.0
C1461 C 0.51653 0.38783 0.63069 0.0
C1462 C 0.54671 0.472 0.63809 0.0
C1463 C 0.56312 0.46927 0.63571 0.0
C1464 C 0.56997 0.48486 0.619 0.0
C1465 C 0.56008 0.50229 0.60469 0.0
C1466 C 0.54377 0.50492 0.60708 0.0
H1467 H 0.50725 0.35436 0.62964 0.0
H1468 H 0.52556 0.37998 0.62001 0.0
H1469 H 0.52238 0.38348 0.6441 0.0
H1470 H 0.54167 0.46105 0.65117 0.0
H1471 H 0.57043 0.4559 0.647 0.0
H1472 H 0.10518 0.83216 0.15195 0.0
H1473 H 0.10874 0.72853 0.14947 0.0
H1474 H 0.13637 0.75209 0.10077 0.0
H1475 H 0.13306 0.85574 0.10325 0.0
H1476 H 0.09947 0.65803 0.1208 0.0
H1477 H 0.16433 0.64698 0.13136 0.0
H1478 H 0.15287 0.7098 0.13689 0.0
H1479 H 0.15837 0.69544 0.11373 0.0
C1480 C 0.11211 0.81537 0.14078 0.0
C1481 C 0.11887 0.85227 0.12782 0.0
C1482 C 0.11412 0.75614 0.13938 0.0
C1483 C 0.12299 0.73271 0.12508 0.0
C1484 C 0.12975 0.76936 0.11212 0.0
H1485 H 0.1447 0.3884 0.08896 0.0
H1486 H 0.14159 0.49201 0.09216 0.0
C1487 C 0.12776 0.82859 0.11351 0.0
C1488 C 0.12461 0.66979 0.1233 0.0
H1489 H 0.15168 0.56156 0.12157 0.0
C1490 C 0.11087 0.63685 0.12108 0.0
C1491 C 0.13951 0.64238 0.12361 0.0
C1492 C 0.15462 0.67532 0.12669 0.0
C1493 C 0.11164 0.57725 0.11883 0.0
C1494 C 0.12654 0.54988 0.1191 0.0
C1495 C 0.14028 0.58277 0.12134 0.0
C1496 C 0.12812 0.48707 0.1171 0.0
C1497 C 0.09655 0.5442 0.11577 0.0
C1498 C 0.12164 0.45005 0.13014 0.0
C1499 C 0.12338 0.39081 0.12836 0.0
C1500 C 0.13169 0.36756 0.11353 0.0
C1501 C 0.13818 0.40486 0.10051 0.0
C1502 C 0.13645 0.46408 0.10232 0.0
H1503 H 0.08671 0.57261 0.11152 0.0
H1504 H 0.09823 0.51062 0.10526 0.0
H1505 H 0.09305 0.52284 0.12862 0.0
H1506 H 0.1154 0.46702 0.14181 0.0
H1507 H 0.11832 0.3633 0.13868 0.0
H1508 H 0.91214 0.18547 0.12985 0.0
H1509 H 0.90696 0.28826 0.12733 0.0
H1510 H 0.85757 0.2538 0.11817 0.0
H1511 H 0.86264 0.15064 0.12044 0.0
H1512 H 0.88953 0.34536 0.09468 0.0
H1513 H 0.86261 0.37283 0.16329 0.0
H1514 H 0.87623 0.31547 0.15819 0.0
H1515 H 0.8564 0.31257 0.14974 0.0
C1516 C 0.90016 0.1997 0.12734 0.0
C1517 C 0.88778 0.16 0.12536 0.0
C1518 C 0.89725 0.25836 0.12586 0.0
C1519 C 0.8819 0.27831 0.12265 0.0
C1520 C 0.86949 0.23898 0.12072 0.0
H1521 H 0.84223 0.61651 0.10701 0.0
H1522 H 0.84696 0.51321 0.10843 0.0
C1523 C 0.87242 0.18019 0.12197 0.0
C1524 C 0.87892 0.3404 0.12122 0.0
H1525 H 0.86344 0.45418 0.14429 0.0
C1526 C 0.88384 0.36927 0.10549 0.0
C1527 C 0.87151 0.3711 0.13541 0.0
C1528 C 0.86641 0.34179 0.15271 0.0
C1529 C 0.88141 0.42838 0.10355 0.0
C1530 C 0.87405 0.45905 0.11775 0.0
C1531 C 0.86909 0.43021 0.13346 0.0
C1532 C 0.8714 0.52134 0.11652 0.0
C1533 C 0.88659 0.45795 0.08634 0.0
C1534 C 0.88362 0.55972 0.12065 0.0
C1535 C 0.88094 0.61876 0.12001 0.0
C1536 C 0.86603 0.64018 0.11508 0.0
C1537 C 0.85388 0.60138 0.11076 0.0
C1538 C 0.85652 0.54242 0.11159 0.0
H1539 H 0.89109 0.42729 0.07601 0.0
H1540 H 0.87655 0.48222 0.08045 0.0
H1541 H 0.89608 0.48919 0.08954 0.0
H1542 H 0.89517 0.54393 0.1245 0.0
H1543 H 0.89055 0.64757 0.12335 0.0
H1544 H 0.12017 0.15201 0.38717 0.0
H1545 H 0.12006 0.2562 0.38996 0.0
H1546 H 0.13713 0.27129 0.33491 0.0
H1547 H 0.13679 0.16695 0.33182 0.0
H1548 H 0.14376 0.33329 0.38729 0.0
H1549 H 0.09922 0.3757 0.33372 0.0
H1550 H 0.1029 0.3048 0.34245 0.0
H1551 H 0.11595 0.33569 0.3258 0.0
C1552 C 0.12395 0.17745 0.37566 0.0
C1553 C 0.12845 0.15123 0.35924 0.0
C1554 C 0.12384 0.23703 0.37727 0.0
C1555 C 0.12829 0.2716 0.36254 0.0
C1556 C 0.13323 0.24553 0.34629 0.0
H1557 H 0.13633 0.63751 0.34595 0.0
H1558 H 0.13624 0.53322 0.34325 0.0
C1559 C 0.13316 0.18589 0.34459 0.0
C1560 C 0.12799 0.33485 0.36436 0.0
H1561 H 0.11238 0.45656 0.34604 0.0
C1562 C 0.13685 0.36027 0.37832 0.0
C1563 C 0.11895 0.36996 0.35265 0.0
C1564 C 0.1086 0.34519 0.33792 0.0
C1565 C 0.13719 0.41989 0.38068 0.0
C1566 C 0.12818 0.45501 0.36894 0.0
C1567 C 0.11929 0.42958 0.35501 0.0
C1568 C 0.12797 0.51829 0.37068 0.0
C1569 C 0.1475 0.44464 0.39545 0.0
C1570 C 0.12306 0.54462 0.3869 0.0
C1571 C 0.12325 0.60426 0.38854 0.0
C1572 C 0.12807 0.63866 0.37388 0.0
C1573 C 0.13252 0.61223 0.35748 0.0
C1574 C 0.13249 0.55262 0.35592 0.0
H1575 H 0.15684 0.41408 0.39972 0.0
H1576 H 0.15323 0.48497 0.39094 0.0
H1577 H 0.14011 0.45426 0.40754 0.0
H1578 H 0.11909 0.51907 0.39829 0.0
H1579 H 0.11962 0.62337 0.40129 0.0
H1580 H 0.89184 0.36012 0.36566 0.0
H1581 H 0.89646 0.46341 0.36284 0.0
H1582 H 0.84843 0.49602 0.37958 0.0
H1583 H 0.84397 0.39362 0.38312 0.0
H1584 H 0.88225 0.53665 0.34047 0.0
H1585 H 0.87111 0.6082 0.41106 0.0
H1586 H 0.8736 0.53372 0.40522 0.0
H1587 H 0.85484 0.56851 0.4019 0.0
C1588 C 0.88237 0.38946 0.36902 0.0
C1589 C 0.8676 0.36878 0.37478 0.0
C1590 C 0.88501 0.44841 0.36739 0.0
C1591 C 0.87288 0.48763 0.37134 0.0
C1592 C 0.85813 0.46689 0.37705 0.0
H1593 H 0.86027 0.85582 0.36028 0.0
H1594 H 0.85669 0.75257 0.36501 0.0
C1595 C 0.85557 0.40817 0.37896 0.0
C1596 C 0.87527 0.5499 0.3683 0.0
H1597 H 0.87165 0.68122 0.38835 0.0
C1598 C 0.88007 0.56822 0.35099 0.0
C1599 C 0.87232 0.59117 0.382 0.0
C1600 C 0.86783 0.57438 0.40112 0.0
C1601 C 0.88165 0.62658 0.34685 0.0
C1602 C 0.8786 0.66787 0.3605 0.0
C1603 C 0.87388 0.64959 0.37785 0.0
C1604 C 0.88057 0.73016 0.35718 0.0
C1605 C 0.88619 0.6433 0.32773 0.0
C1606 C 0.89518 0.75184 0.35134 0.0
C1607 C 0.89713 0.81036 0.34829 0.0
C1608 C 0.88463 0.84873 0.35145 0.0
C1609 C 0.87006 0.82721 0.35759 0.0
C1610 C 0.86804 0.76834 0.36036 0.0
H1611 H 0.88332 0.60891 0.31783 0.0
H1612 H 0.88012 0.68318 0.32345 0.0
H1613 H 0.89913 0.65068 0.32712 0.0
H1614 H 0.90517 0.72359 0.34939 0.0
H1615 H 0.90861 0.82566 0.34396 0.0
H1616 H 0.89222 0.17275 0.83129 0.0
H1617 H 0.88862 0.2761 0.83432 0.0
H1618 H 0.86809 0.25184 0.88742 0.0
H1619 H 0.87187 0.14833 0.88465 0.0
H1620 H 0.8614 0.34059 0.83988 0.0
H1621 H 0.90346 0.36709 0.89715 0.0
H1622 H 0.90248 0.30248 0.88374 0.0
H1623 H 0.88806 0.31571 0.9012 0.0
C1624 C 0.88692 0.18929 0.84362 0.0
C1625 C 0.88245 0.15227 0.85779 0.0
C1626 C 0.88486 0.24841 0.84531 0.0
C1627 C 0.87835 0.27171 0.86122 0.0
C1628 C 0.87345 0.23482 0.87519 0.0
H1629 H 0.85922 0.61904 0.89687 0.0
H1630 H 0.86134 0.51514 0.89379 0.0
C1631 C 0.87553 0.17564 0.87352 0.0
C1632 C 0.87673 0.33464 0.86312 0.0
H1633 H 0.88866 0.44883 0.88869 0.0
C1634 C 0.86738 0.36432 0.85052 0.0
C1635 C 0.88457 0.36546 0.87701 0.0
C1636 C 0.89533 0.33625 0.89046 0.0
C1637 C 0.86548 0.42395 0.85158 0.0
C1638 C 0.87334 0.45474 0.86544 0.0
C1639 C 0.88264 0.42506 0.87808 0.0
C1640 C 0.87205 0.51781 0.86711 0.0
C1641 C 0.85483 0.45335 0.83807 0.0
C1642 C 0.87758 0.5538 0.85322 0.0
C1643 C 0.87639 0.6133 0.85492 0.0
C1644 C 0.86973 0.63786 0.87061 0.0
C1645 C 0.86439 0.6016 0.88459 0.0
C1646 C 0.86559 0.54218 0.88287 0.0
H1647 H 0.84671 0.42264 0.8313 0.0
H1648 H 0.84768 0.48718 0.84477 0.0
H1649 H 0.86217 0.47391 0.82741 0.0
H1650 H 0.8829 0.53587 0.84109 0.0
H1651 H 0.88068 0.63999 0.84394 0.0
H1652 H 0.10987 0.38265 0.89615 0.0
H1653 H 0.11078 0.48674 0.89276 0.0
H1654 H 0.14056 0.46813 0.84552 0.0
H1655 H 0.13917 0.36394 0.84843 0.0
H1656 H 0.13501 0.55832 0.8945 0.0
H1657 H 0.10845 0.57674 0.82598 0.0
H1658 H 0.10815 0.51074 0.83867 0.0
H1659 H 0.12558 0.53169 0.82629 0.0
C1660 C 0.11646 0.40071 0.88491 0.0
C1661 C 0.1243 0.36496 0.87244 0.0
C1662 C 0.117 0.46028 0.883 0.0
C1663 C 0.12549 0.48553 0.86868 0.0
C1664 C 0.13351 0.44987 0.85634 0.0
H1665 H 0.14584 0.83679 0.83699 0.0
H1666 H 0.14483 0.73261 0.84027 0.0
C1667 C 0.13277 0.39022 0.85808 0.0
C1668 C 0.1264 0.5491 0.86712 0.0
H1669 H 0.12012 0.66103 0.83812 0.0
C1670 C 0.13167 0.58077 0.88219 0.0
C1671 C 0.12208 0.57858 0.85107 0.0
C1672 C 0.1156 0.54775 0.83465 0.0
C1673 C 0.13301 0.64074 0.88157 0.0
C1674 C 0.12873 0.67019 0.86549 0.0
C1675 C 0.12346 0.63854 0.85043 0.0
C1676 C 0.12963 0.73372 0.86394 0.0
C1677 C 0.13936 0.67171 0.89802 0.0
C1678 C 0.12135 0.76926 0.87607 0.0
C1679 C 0.12211 0.82891 0.87439 0.0
C1680 C 0.1309 0.85429 0.86029 0.0
C1681 C 0.139 0.81865 0.84802 0.0
C1682 C 0.13841 0.75904 0.84986 0.0
H1683 H 0.14636 0.64273 0.90686 0.0
H1684 H 0.14692 0.70847 0.89403 0.0
H1685 H 0.12932 0.68822 0.90619 0.0
H1686 H 0.11411 0.75091 0.88671 0.0
H1687 H 0.11551 0.85509 0.88389 0.0
H1688 H 0.88299 0.85089 0.59702 0.0
H1689 H 0.88117 0.7466 0.59424 0.0
H1690 H 0.87425 0.73249 0.6521 0.0
H1691 H 0.87616 0.83673 0.65507 0.0
H1692 H 0.9017 0.6645 0.61433 0.0
H1693 H 0.83732 0.63783 0.62736 0.0
H1694 H 0.8458 0.70458 0.61967 0.0
H1695 H 0.84802 0.68298 0.64292 0.0
C1696 C 0.88093 0.82567 0.60913 0.0
C1697 C 0.8797 0.85203 0.62626 0.0
C1698 C 0.87995 0.76615 0.60752 0.0
C1699 C 0.87748 0.73209 0.62295 0.0
C1700 C 0.87602 0.75822 0.64003 0.0
H1701 H 0.87547 0.36495 0.6416 0.0
H1702 H 0.87688 0.46932 0.64487 0.0
C1703 C 0.87717 0.8177 0.64169 0.0
C1704 C 0.87701 0.66903 0.62125 0.0
H1705 H 0.85257 0.55323 0.62489 0.0
C1706 C 0.89097 0.64011 0.61658 0.0
C1707 C 0.86298 0.6376 0.62424 0.0
C1708 C 0.84761 0.6671 0.62871 0.0
C1709 C 0.89127 0.58025 0.61498 0.0
C1710 C 0.87725 0.54886 0.61799 0.0
C1711 C 0.8633 0.57768 0.62267 0.0
C1712 C 0.87682 0.48596 0.61598 0.0
C1713 C 0.90656 0.55059 0.61029 0.0
C1714 C 0.87635 0.46116 0.59865 0.0
C1715 C 0.87542 0.40172 0.59671 0.0
C1716 C 0.8751 0.36611 0.61211 0.0
C1717 C 0.87583 0.3912 0.62948 0.0
C1718 C 0.87656 0.45072 0.63139 0.0
H1719 H 0.91678 0.58044 0.61044 0.0
H1720 H 0.90884 0.51528 0.62004 0.0
H1721 H 0.90561 0.5314 0.59653 0.0
H1722 H 0.87651 0.48789 0.58662 0.0
H1723 H 0.87489 0.3837 0.58316 0.0
H1724 H 0.14364 0.15071 0.61661 0.0
H1725 H 0.14758 0.25468 0.61563 0.0
H1726 H 0.09861 0.28015 0.62985 0.0
H1727 H 0.09486 0.17663 0.63172 0.0
H1728 H 0.1351 0.33524 0.59515 0.0
H1729 H 0.11863 0.38186 0.66645 0.0
H1730 H 0.12162 0.30983 0.65834 0.0
H1731 H 0.10312 0.34594 0.65445 0.0
C1732 C 0.13376 0.1786 0.61961 0.0
C1733 C 0.119 0.15562 0.62444 0.0
C1734 C 0.13601 0.23799 0.61906 0.0
C1735 C 0.1235 0.27548 0.62311 0.0
C1736 C 0.10861 0.25237 0.62734 0.0
H1737 H 0.11049 0.64462 0.62313 0.0
H1738 H 0.10738 0.54035 0.62439 0.0
C1739 C 0.10645 0.19311 0.62826 0.0
C1740 C 0.12588 0.33862 0.62242 0.0
H1741 H 0.12083 0.46214 0.64667 0.0
C1742 C 0.13208 0.36292 0.60647 0.0
C1743 C 0.12196 0.37492 0.63719 0.0
C1744 C 0.11612 0.35174 0.65513 0.0
C1745 C 0.13409 0.42239 0.60471 0.0
C1746 C 0.12998 0.45867 0.6194 0.0
C1747 C 0.12388 0.43439 0.63538 0.0
C1748 C 0.13193 0.52191 0.61853 0.0
C1749 C 0.14025 0.44572 0.58694 0.0
C1750 C 0.1468 0.54632 0.61511 0.0
C1751 C 0.14855 0.60576 0.61416 0.0
C1752 C 0.13553 0.64215 0.61698 0.0
C1753 C 0.12074 0.61774 0.62088 0.0
C1754 C 0.11895 0.55818 0.6216 0.0
H1755 H 0.13844 0.41497 0.5756 0.0
H1756 H 0.13441 0.48675 0.58338 0.0
H1757 H 0.15314 0.45358 0.58816 0.0
H1758 H 0.15709 0.51942 0.61328 0.0
H1759 H 0.16017 0.62321 0.61139 0.0
H1760 H 0.64133 0.87924 0.0849 0.0
H1761 H 0.63856 0.98328 0.08729 0.0
H1762 H 0.62263 0.96559 0.14267 0.0
H1763 H 0.6254 0.86158 0.14046 0.0
H1764 H 0.6111 0.04913 0.0964 0.0
H1765 H 0.66003 0.08005 0.14569 0.0
H1766 H 0.65773 0.01536 0.1325 0.0
H1767 H 0.64565 0.02727 0.15223 0.0
C1768 C 0.63722 0.89744 0.09759 0.0
C1769 C 0.63366 0.86214 0.11253 0.0
C1770 C 0.63564 0.95687 0.09891 0.0
C1771 C 0.63063 0.98206 0.11523 0.0
C1772 C 0.62678 0.94696 0.13005 0.0
H1773 H 0.61038 0.32454 0.15252 0.0
H1774 H 0.6139 0.22122 0.14882 0.0
C1775 C 0.62827 0.88753 0.12872 0.0
C1776 C 0.62932 0.04507 0.11674 0.0
H1777 H 0.64374 0.1607 0.13982 0.0
C1778 C 0.61829 0.07364 0.10579 0.0
C1779 C 0.63877 0.07679 0.12898 0.0
C1780 C 0.65132 0.04852 0.14043 0.0
C1781 C 0.61618 0.13311 0.10711 0.0
C1782 C 0.62548 0.16466 0.11953 0.0
C1783 C 0.63661 0.1362 0.13035 0.0
C1784 C 0.62362 0.22723 0.1217 0.0
C1785 C 0.60378 0.16172 0.09556 0.0
C1786 C 0.62813 0.26469 0.10774 0.0
C1787 C 0.62622 0.32379 0.10983 0.0
C1788 C 0.61971 0.34634 0.12591 0.0
C1789 C 0.61536 0.30857 0.13993 0.0
C1790 C 0.61738 0.24956 0.13787 0.0
H1791 H 0.59575 0.13018 0.08904 0.0
H1792 H 0.59661 0.19173 0.10388 0.0
H1793 H 0.60964 0.18693 0.0847 0.0
H1794 H 0.63315 0.24817 0.09525 0.0
H1795 H 0.62972 0.35172 0.09879 0.0
H1796 H 0.3723 0.67321 0.1569 0.0
H1797 H 0.37118 0.77704 0.15302 0.0
H1798 H 0.38204 0.75778 0.09608 0.0
H1799 H 0.38297 0.65376 0.09975 0.0
H1800 H 0.39497 0.85049 0.14097 0.0
H1801 H 0.34276 0.85945 0.09545 0.0
H1802 H 0.34789 0.79617 0.10819 0.0
H1803 H 0.35832 0.81336 0.08761 0.0
C1804 C 0.37433 0.69095 0.14351 0.0
C1805 C 0.37762 0.65512 0.1286 0.0
C1806 C 0.37372 0.75033 0.14134 0.0
C1807 C 0.37631 0.77506 0.12423 0.0
C1808 C 0.37968 0.73951 0.10933 0.0
H1809 H 0.37647 0.1255 0.08461 0.0
H1810 H 0.37887 0.02167 0.088 0.0
C1811 C 0.38027 0.68007 0.11148 0.0
C1812 C 0.37585 0.83814 0.1221 0.0
H1813 H 0.3567 0.94623 0.10005 0.0
C1814 C 0.38658 0.87151 0.13207 0.0
C1815 C 0.36492 0.86536 0.11044 0.0
C1816 C 0.35271 0.83188 0.09992 0.0
C1817 C 0.38683 0.93141 0.1305 0.0
C1818 C 0.37584 0.9587 0.1189 0.0
C1819 C 0.36514 0.92525 0.1089 0.0
C1820 C 0.37506 0.02191 0.11708 0.0
C1821 C 0.39907 0.96473 0.14101 0.0
C1822 C 0.37205 0.05653 0.13229 0.0
C1823 C 0.3708 0.1159 0.13043 0.0
C1824 C 0.3723 0.14177 0.11325 0.0
C1825 C 0.37527 0.10696 0.09803 0.0
C1826 C 0.37663 0.04761 0.09993 0.0
H1827 H 0.40927 0.9374 0.14485 0.0
H1828 H 0.4035 1.00175 0.13304 0.0
H1829 H 0.39367 0.98123 0.15373 0.0
H1830 H 0.37039 0.03757 0.14558 0.0
H1831 H 0.36835 0.14138 0.1424 0.0
H1832 H 0.65011 0.12364 0.39523 0.0
H1833 H 0.64728 0.01958 0.39302 0.0
H1834 H 0.617 0.03968 0.34639 0.0
H1835 H 0.61985 0.14365 0.34835 0.0
H1836 H 0.61951 0.9519 0.39408 0.0
H1837 H 0.65134 0.92845 0.32851 0.0
H1838 H 0.65249 0.99258 0.34215 0.0
H1839 H 0.63552 0.97962 0.32807 0.0
C1840 C 0.64285 0.10598 0.38449 0.0
C1841 C 0.63527 0.14197 0.37189 0.0
C1842 C 0.64125 0.04651 0.38327 0.0
C1843 C 0.63215 0.02198 0.36938 0.0
C1844 C 0.62433 0.05776 0.357 0.0
H1845 H 0.60585 0.68171 0.33545 0.0
H1846 H 0.60977 0.78463 0.3393 0.0
C1847 C 0.6259 0.1172 0.35821 0.0
C1848 C 0.63069 0.95894 0.36789 0.0
H1849 H 0.63776 0.84638 0.33942 0.0
C1850 C 0.62359 0.92867 0.3822 0.0
C1851 C 0.63606 0.92889 0.35238 0.0
C1852 C 0.64441 0.95887 0.33696 0.0
C1853 C 0.62127 0.86921 0.38117 0.0
C1854 C 0.62646 0.83926 0.36555 0.0
C1855 C 0.63375 0.8695 0.35135 0.0
C1856 C 0.62416 0.77669 0.36344 0.0
C1857 C 0.61285 0.83929 0.39656 0.0
C1858 C 0.63114 0.73802 0.37561 0.0
C1859 C 0.62889 0.67907 0.37348 0.0
C1860 C 0.61972 0.65775 0.35904 0.0
C1861 C 0.61296 0.69664 0.34673 0.0
C1862 C 0.61518 0.75551 0.3489 0.0
H1863 H 0.60622 0.86989 0.40526 0.0
H1864 H 0.60449 0.80659 0.39131 0.0
H1865 H 0.62168 0.81727 0.40522 0.0
H1866 H 0.6384 0.7534 0.38669 0.0
H1867 H 0.63435 0.65026 0.38314 0.0
H1868 H 0.36157 0.86789 0.34702 0.0
H1869 H 0.36142 0.97248 0.34449 0.0
H1870 H 0.38937 0.98534 0.39324 0.0
H1871 H 0.38954 0.88093 0.39599 0.0
H1872 H 0.35052 0.05463 0.37354 0.0
H1873 H 0.41328 0.0803 0.35242 0.0
H1874 H 0.40251 0.01421 0.34935 0.0
H1875 H 0.40958 0.03386 0.37146 0.0
C1876 C 0.36778 0.89291 0.35715 0.0
C1877 C 0.37564 0.86604 0.37166 0.0
C1878 C 0.36762 0.95262 0.35571 0.0
C1879 C 0.37547 0.9864 0.36861 0.0
C1880 C 0.38336 0.95984 0.38307 0.0
H1881 H 0.38727 0.35102 0.38652 0.0
H1882 H 0.38626 0.24648 0.38944 0.0
C1883 C 0.38342 0.90021 0.38461 0.0
C1884 C 0.3753 0.04955 0.36711 0.0
H1885 H 0.399 0.16497 0.3588 0.0
C1886 C 0.36108 0.07883 0.37025 0.0
C1887 C 0.38911 0.08075 0.36281 0.0
C1888 C 0.4045 0.05092 0.35867 0.0
C1889 C 0.3604 0.13887 0.36947 0.0
C1890 C 0.37424 0.17001 0.3653 0.0
C1891 C 0.38844 0.14075 0.36209 0.0
C1892 C 0.37418 0.23313 0.36392 0.0
C1893 C 0.345 0.16893 0.37334 0.0
C1894 C 0.36772 0.25986 0.34859 0.0
C1895 C 0.36841 0.31937 0.34679 0.0
C1896 C 0.37547 0.35316 0.36037 0.0
C1897 C 0.38168 0.3262 0.37588 0.0
C1898 C 0.38115 0.26658 0.37756 0.0
H1899 H 0.33583 0.13917 0.37861 0.0
H1900 H 0.34685 0.20374 0.3834 0.0
H1901 H 0.34054 0.18883 0.36065 0.0
H1902 H 0.36237 0.23457 0.33789 0.0
H1903 H 0.36349 0.33887 0.3347 0.0
H1904 H 0.4128 0.69026 0.85922 0.0
H1905 H 0.40729 0.79265 0.86154 0.0
H1906 H 0.35744 0.75672 0.86593 0.0
H1907 H 0.36288 0.65399 0.86407 0.0
H1908 H 0.38943 0.86068 0.83935 0.0
H1909 H 0.36466 0.86093 0.9092 0.0
H1910 H 0.37515 0.80032 0.89992 0.0
H1911 H 0.35484 0.81275 0.89393 0.0
C1912 C 0.40066 0.70407 0.86075 0.0
C1913 C 0.38828 0.66398 0.86158 0.0
C1914 C 0.39753 0.76262 0.86207 0.0
C1915 C 0.38199 0.78227 0.86422 0.0
C1916 C 0.36956 0.74243 0.86475 0.0
H1917 H 0.33843 0.11567 0.87403 0.0
H1918 H 0.3445 0.01365 0.87193 0.0
C1919 C 0.37268 0.68376 0.86358 0.0
C1920 C 0.3788 0.84455 0.86543 0.0
H1921 H 0.36252 0.94743 0.89255 0.0
C1922 C 0.38361 0.87978 0.851 0.0
C1923 C 0.37119 0.86926 0.88065 0.0
C1924 C 0.36628 0.83399 0.89689 0.0
C1925 C 0.3807 0.93894 0.85118 0.0
C1926 C 0.37308 0.96372 0.86641 0.0
C1927 C 0.36835 0.92843 0.88088 0.0
C1928 C 0.36957 0.0259 0.86752 0.0
C1929 C 0.38545 0.97385 0.8348 0.0
C1930 C 0.38167 0.06684 0.86596 0.0
C1931 C 0.37818 0.1253 0.86686 0.0
C1932 C 0.36259 0.14377 0.86981 0.0
C1933 C 0.35057 0.10274 0.87183 0.0
C1934 C 0.35402 0.04441 0.87061 0.0
H1935 H 0.38677 0.94668 0.82249 0.0
H1936 H 0.37665 0.00784 0.83189 0.0
H1937 H 0.39702 0.99451 0.83746 0.0
H1938 H 0.39383 0.05363 0.86413 0.0
H1939 H 0.3877 0.15598 0.86545 0.0
H1940 H 0.5992 0.32112 0.8396 0.0
H1941 H 0.60294 0.21818 0.84367 0.0
H1942 H 0.64422 0.25052 0.87644 0.0
H1943 H 0.64034 0.3536 0.87284 0.0
H1944 H 0.62769 0.15015 0.83423 0.0
H1945 H 0.61905 0.14468 0.90896 0.0
H1946 H 0.61416 0.20653 0.89541 0.0
H1947 H 0.63433 0.19298 0.9018 0.0
C1948 C 0.60908 0.30636 0.84768 0.0
C1949 C 0.61943 0.34549 0.85599 0.0
C1950 C 0.61118 0.24753 0.85001 0.0
C1951 C 0.62367 0.22676 0.86065 0.0
C1952 C 0.63425 0.26567 0.86858 0.0
H1953 H 0.65822 0.88885 0.88784 0.0
H1954 H 0.65381 0.99178 0.88459 0.0
C1955 C 0.63209 0.32454 0.86639 0.0
C1956 C 0.62579 0.1643 0.86307 0.0
H1957 H 0.6283 0.05907 0.89511 0.0
C1958 C 0.62774 0.13015 0.84753 0.0
C1959 C 0.62585 0.13839 0.88045 0.0
C1960 C 0.62309 0.17242 0.8976 0.0
C1961 C 0.63006 0.07086 0.8489 0.0
C1962 C 0.63019 0.04502 0.86628 0.0
C1963 C 0.62822 0.07911 0.88182 0.0
C1964 C 0.63249 0.98267 0.86864 0.0
C1965 C 0.63272 0.03669 0.83175 0.0
C1966 C 0.62177 0.94354 0.86108 0.0
C1967 C 0.62429 0.88472 0.86284 0.0
C1968 C 0.63749 0.86403 0.87238 0.0
C1969 C 0.64794 0.90339 0.88041 0.0
C1970 C 0.64545 0.9622 0.87856 0.0
H1971 H 0.63635 0.06443 0.82022 0.0
H1972 H 0.6419 0.0034 0.83382 0.0
H1973 H 0.62154 0.01499 0.82791 0.0
H1974 H 0.61149 0.9585 0.85375 0.0
H1975 H 0.61595 0.85552 0.85661 0.0
H1976 H 0.34308 0.89069 0.59703 0.0
H1977 H 0.34772 0.99358 0.59988 0.0
H1978 H 0.39001 0.96071 0.63073 0.0
H1979 H 0.38547 0.85743 0.62799 0.0
H1980 H 0.35011 0.0543 0.63384 0.0
H1981 H 0.40387 0.07789 0.59105 0.0
H1982 H 0.39084 0.01682 0.58939 0.0
H1983 H 0.40465 0.02202 0.60782 0.0
C1984 C 0.35348 0.90519 0.60425 0.0
C1985 C 0.36391 0.86575 0.61228 0.0
C1986 C 0.35608 0.96406 0.60589 0.0
C1987 C 0.36926 0.98473 0.61539 0.0
C1988 C 0.37988 0.9456 0.62314 0.0
H1989 H 0.40361 0.31822 0.64723 0.0
H1990 H 0.39881 0.21617 0.64263 0.0
C1991 C 0.37722 0.88661 0.62162 0.0
C1992 C 0.37141 0.04722 0.61798 0.0
H1993 H 0.39609 0.15888 0.60833 0.0
C1994 C 0.36011 0.0773 0.62818 0.0
C1995 C 0.38447 0.07696 0.61059 0.0
C1996 C 0.39662 0.04705 0.59896 0.0
C1997 C 0.3617 0.13623 0.63153 0.0
C1998 C 0.3748 0.16596 0.62422 0.0
C1999 C 0.38605 0.13593 0.61392 0.0
C2000 C 0.37722 0.22804 0.62743 0.0
C2001 C 0.34959 0.16599 0.64326 0.0
C2002 C 0.36661 0.26865 0.62046 0.0
C2003 C 0.36931 0.32726 0.62306 0.0
C2004 C 0.38269 0.34622 0.63267 0.0
C2005 C 0.39315 0.30524 0.63984 0.0
C2006 C 0.39048 0.24681 0.63716 0.0
H2007 H 0.34221 0.13504 0.65098 0.0
H2008 H 0.35542 0.19546 0.65303 0.0
H2009 H 0.34166 0.19181 0.6345 0.0
H2010 H 0.35641 0.25505 0.6127 0.0
H2011 H 0.36108 0.35765 0.61726 0.0
H2012 H 0.63007 0.65415 0.6001 0.0
H2013 H 0.63391 0.75757 0.59639 0.0
H2014 H 0.61246 0.78712 0.64871 0.0
H2015 H 0.60846 0.68411 0.65252 0.0
H2016 H 0.60851 0.84666 0.5987 0.0
H2017 H 0.65662 0.87202 0.64949 0.0
H2018 H 0.65195 0.80405 0.63906 0.0
H2019 H 0.63961 0.83197 0.65682 0.0
C2020 C 0.62623 0.68266 0.61085 0.0
C2021 C 0.61899 0.66097 0.62663 0.0
C2022 C 0.6284 0.74164 0.60868 0.0
C2023 C 0.62359 0.77971 0.62235 0.0
C2024 C 0.61639 0.75825 0.6381 0.0
H2025 H 0.62562 0.14524 0.63992 0.0
H2026 H 0.62192 0.04155 0.64182 0.0
C2027 C 0.61406 0.69942 0.64021 0.0
C2028 C 0.6258 0.8421 0.62007 0.0
H2029 H 0.64569 0.95701 0.63733 0.0
C2030 C 0.61671 0.87087 0.60703 0.0
C2031 C 0.63646 0.8733 0.63103 0.0
C2032 C 0.64684 0.84392 0.64482 0.0
C2033 C 0.61774 0.93052 0.60496 0.0
C2034 C 0.62834 0.96182 0.616 0.0
C2035 C 0.63753 0.93287 0.62893 0.0
C2036 C 0.63005 0.02474 0.61446 0.0
C2037 C 0.60717 0.95979 0.59134 0.0
C2038 C 0.63589 0.04956 0.59845 0.0
C2039 C 0.63804 0.1088 0.59731 0.0
C2040 C 0.63443 0.14427 0.61221 0.0
C2041 C 0.62847 0.11921 0.62818 0.0
C2042 C 0.62637 0.05997 0.62931 0.0
H2043 H 0.59721 0.93186 0.58706 0.0
H2044 H 0.60227 1.00009 0.59704 0.0
H2045 H 0.61417 0.97081 0.57907 0.0
H2046 H 0.63903 0.023 0.58693 0.0
H2047 H 0.64269 0.12668 0.58483 0.0
loop_
_geom_bond_atom_site_label_1
_geom_bond_atom_site_label_2
_geom_bond_distance
_geom_bond_site_symmetry_2
_ccdc_geom_bond_type
Zn0 O6 1.969 . S
Zn0 O7 1.965 . S
Zn0 O11 2.024 . S
Zn0 O16 1.969 . S
Zn1 O8 1.969 . S
Zn1 O14 1.969 1_545 S
Zn1 O15 1.965 . S
Zn1 O17 2.024 . S
C2 O3 1.229 . S
C2 O11 1.058 . S
O3 C2 1.229 . S
C4 O5 1.229 1_545 S
C4 O17 1.058 . S
O5 C4 1.229 1_565 S
O6 Zn0 1.969 . S
O6 C9 1.267 . S
O7 Zn0 1.965 . S
O7 C18 1.260 . S
O8 Zn1 1.969 . S
O8 C18 1.258 . S
C9 O6 1.267 . S
C9 O10 1.228 . S
O10 C9 1.228 . S
O11 Zn0 2.024 . S
O11 C2 1.058 . S
C12 O13 1.228 . S
C12 O14 1.267 . S
O13 C12 1.228 . S
O14 Zn1 1.969 1_565 S
O14 C12 1.267 . S
O15 Zn1 1.965 . S
O15 C19 1.260 . S
O16 Zn0 1.969 . S
O16 C19 1.258 . S
O17 Zn1 2.024 . S
O17 C4 1.058 . S
C18 O7 1.260 . S
C18 O8 1.258 . S
C19 O15 1.260 . S
C19 O16 1.258 . S
Zn20 O26 1.969 . S
Zn20 O27 1.965 . S
Zn20 O31 2.024 . S
Zn20 O36 1.969 . S
Zn21 O28 1.969 . S
Zn21 O34 1.969 1_565 S
Zn21 O35 1.965 . S
Zn21 O37 2.024 . S
C22 O23 1.229 . S
C22 O31 1.058 . S
O23 C22 1.229 . S
C24 O25 1.229 1_565 S
C24 O37 1.058 . S
O25 C24 1.229 1_545 S
O26 Zn20 1.969 . S
O26 C29 1.267 . S
O27 Zn20 1.965 . S
O27 C38 1.260 . S
O28 Zn21 1.969 . S
O28 C38 1.258 . S
C29 O26 1.267 . S
C29 O30 1.228 . S
O30 C29 1.228 . S
O31 Zn20 2.024 . S
O31 C22 1.058 . S
C32 O33 1.228 . S
C32 O34 1.267 . S
O33 C32 1.228 . S
O34 Zn21 1.969 1_545 S
O34 C32 1.267 . S
O35 Zn21 1.965 . S
O35 C39 1.260 . S
O36 Zn20 1.969 . S
O36 C39 1.258 . S
O37 Zn21 2.024 . S
O37 C24 1.058 . S
C38 O27 1.260 . S
C38 O28 1.258 . S
C39 O35 1.260 . S
C39 O36 1.258 . S
Zn40 O46 1.969 . S
Zn40 O47 1.965 . S
Zn40 O51 2.024 . S
Zn40 O56 1.969 . S
Zn41 O48 1.969 . S
Zn41 O54 1.969 1_565 S
Zn41 O55 1.965 . S
Zn41 O57 2.024 . S
C42 O43 1.229 . S
C42 O51 1.058 . S
O43 C42 1.229 . S
C44 O45 1.229 1_565 S
C44 O57 1.058 . S
O45 C44 1.229 1_545 S
O46 Zn40 1.969 . S
O46 C49 1.267 . S
O47 Zn40 1.965 . S
O47 C58 1.260 . S
O48 Zn41 1.969 . S
O48 C58 1.258 . S
C49 O46 1.267 . S
C49 O50 1.228 . S
O50 C49 1.228 . S
O51 Zn40 2.024 . S
O51 C42 1.058 . S
C52 O53 1.228 . S
C52 O54 1.267 . S
O53 C52 1.228 . S
O54 Zn41 1.969 1_545 S
O54 C52 1.267 . S
O55 Zn41 1.965 . S
O55 C59 1.260 . S
O56 Zn40 1.969 . S
O56 C59 1.258 . S
O57 Zn41 2.024 . S
O57 C44 1.058 . S
C58 O47 1.260 . S
C58 O48 1.258 . S
C59 O55 1.260 . S
C59 O56 1.258 . S
Zn60 O66 1.969 . S
Zn60 O67 1.965 . S
Zn60 O71 2.024 . S
Zn60 O76 1.969 . S
Zn61 O68 1.969 . S
Zn61 O74 1.969 1_545 S
Zn61 O75 1.965 . S
Zn61 O77 2.024 . S
C62 O63 1.229 . S
C62 O71 1.058 . S
O63 C62 1.229 . S
C64 O65 1.229 1_545 S
C64 O77 1.058 . S
O65 C64 1.229 1_565 S
O66 Zn60 1.969 . S
O66 C69 1.267 . S
O67 Zn60 1.965 . S
O67 C78 1.260 . S
O68 Zn61 1.969 . S
O68 C78 1.258 . S
C69 O66 1.267 . S
C69 O70 1.228 . S
O70 C69 1.228 . S
O71 Zn60 2.024 . S
O71 C62 1.058 . S
C72 O73 1.228 . S
C72 O74 1.267 . S
O73 C72 1.228 . S
O74 Zn61 1.969 1_565 S
O74 C72 1.267 . S
O75 Zn61 1.965 . S
O75 C79 1.260 . S
O76 Zn60 1.969 . S
O76 C79 1.258 . S
O77 Zn61 2.024 . S
O77 C64 1.058 . S
C78 O67 1.260 . S
C78 O68 1.258 . S
C79 O75 1.260 . S
C79 O76 1.258 . S
Zn80 O86 1.969 1_565 S
Zn80 O87 1.965 . S
Zn80 O91 2.024 . S
Zn80 O96 1.969 . S
Zn81 O88 1.969 . S
Zn81 O94 1.969 . S
Zn81 O95 1.965 . S
Zn81 O97 2.024 . S
C82 O83 1.229 1_565 S
C82 O91 1.058 . S
O83 C82 1.229 1_545 S
C84 O85 1.229 . S
C84 O97 1.058 . S
O85 C84 1.229 . S
O86 Zn80 1.969 1_545 S
O86 C89 1.267 . S
O87 Zn80 1.965 . S
O87 C98 1.260 . S
O88 Zn81 1.969 . S
O88 C98 1.258 . S
C89 O86 1.267 . S
C89 O90 1.228 . S
O90 C89 1.228 . S
O91 Zn80 2.024 . S
O91 C82 1.058 . S
C92 O93 1.228 . S
C92 O94 1.267 . S
O93 C92 1.228 . S
O94 Zn81 1.969 . S
O94 C92 1.267 . S
O95 Zn81 1.965 . S
O95 C99 1.260 . S
O96 Zn80 1.969 . S
O96 C99 1.258 . S
O97 Zn81 2.024 . S
O97 C84 1.058 . S
C98 O87 1.260 . S
C98 O88 1.258 . S
C99 O95 1.260 . S
C99 O96 1.258 . S
Zn100 O106 1.969 1_545 S
Zn100 O107 1.965 . S
Zn100 O111 2.024 . S
Zn100 O116 1.969 . S
Zn101 O108 1.969 . S
Zn101 O114 1.969 . S
Zn101 O115 1.965 . S
Zn101 O117 2.024 . S
C102 O103 1.229 1_545 S
C102 O111 1.058 . S
O103 C102 1.229 1_565 S
C104 O105 1.229 . S
C104 O117 1.058 . S
O105 C104 1.229 . S
O106 Zn100 1.969 1_565 S
O106 C109 1.267 . S
O107 Zn100 1.965 . S
O107 C118 1.260 . S
O108 Zn101 1.969 . S
O108 C118 1.258 . S
C109 O106 1.267 . S
C109 O110 1.228 . S
O110 C109 1.228 . S
O111 Zn100 2.024 . S
O111 C102 1.058 . S
C112 O113 1.228 . S
C112 O114 1.267 . S
O113 C112 1.228 . S
O114 Zn101 1.969 . S
O114 C112 1.267 . S
O115 Zn101 1.965 . S
O115 C119 1.260 . S
O116 Zn100 1.969 . S
O116 C119 1.258 . S
O117 Zn101 2.024 . S
O117 C104 1.058 . S
C118 O107 1.260 . S
C118 O108 1.258 . S
C119 O115 1.260 . S
C119 O116 1.258 . S
Zn120 O126 1.969 1_545 S
Zn120 O127 1.965 . S
Zn120 O131 2.024 . S
Zn120 O136 1.969 . S
Zn121 O128 1.969 . S
Zn121 O134 1.969 . S
Zn121 O135 1.965 . S
Zn121 O137 2.024 . S
C122 O123 1.229 1_545 S
C122 O131 1.058 . S
O123 C122 1.229 1_565 S
C124 O125 1.229 . S
C124 O137 1.058 . S
O125 C124 1.229 . S
O126 Zn120 1.969 1_565 S
O126 C129 1.267 . S
O127 Zn120 1.965 . S
O127 C138 1.260 . S
O128 Zn121 1.969 . S
O128 C138 1.258 . S
C129 O126 1.267 . S
C129 O130 1.228 . S
O130 C129 1.228 . S
O131 Zn120 2.024 . S
O131 C122 1.058 . S
C132 O133 1.228 . S
C132 O134 1.267 . S
O133 C132 1.228 . S
O134 Zn121 1.969 . S
O134 C132 1.267 . S
O135 Zn121 1.965 . S
O135 C139 1.260 . S
O136 Zn120 1.969 . S
O136 C139 1.258 . S
O137 Zn121 2.024 . S
O137 C124 1.058 . S
C138 O127 1.260 . S
C138 O128 1.258 . S
C139 O135 1.260 . S
C139 O136 1.258 . S
Zn140 O146 1.969 1_565 S
Zn140 O147 1.965 . S
Zn140 O151 2.024 . S
Zn140 O156 1.969 . S
Zn141 O148 1.969 . S
Zn141 O154 1.969 . S
Zn141 O155 1.965 . S
Zn141 O157 2.024 . S
C142 O143 1.229 1_565 S
C142 O151 1.058 . S
O143 C142 1.229 1_545 S
C144 O145 1.229 . S
C144 O157 1.058 . S
O145 C144 1.229 . S
O146 Zn140 1.969 1_545 S
O146 C149 1.267 . S
O147 Zn140 1.965 . S
O147 C158 1.260 . S
O148 Zn141 1.969 . S
O148 C158 1.258 . S
C149 O146 1.267 . S
C149 O150 1.228 . S
O150 C149 1.228 . S
O151 Zn140 2.024 . S
O151 C142 1.058 . S
C152 O153 1.228 . S
C152 O154 1.267 . S
O153 C152 1.228 . S
O154 Zn141 1.969 . S
O154 C152 1.267 . S
O155 Zn141 1.965 . S
O155 C159 1.260 . S
O156 Zn140 1.969 . S
O156 C159 1.258 . S
O157 Zn141 2.024 . S
O157 C144 1.058 . S
C158 O147 1.260 . S
C158 O148 1.258 . S
C159 O155 1.260 . S
C159 O156 1.258 . S
Zn160 O166 1.969 . S
Zn160 O167 1.965 . S
Zn160 O171 2.024 . S
Zn160 O176 1.969 . S
Zn161 O168 1.969 . S
Zn161 O174 1.969 . S
Zn161 O175 1.965 . S
Zn161 O177 2.024 . S
C162 O163 1.229 . S
C162 O171 1.058 . S
O163 C162 1.229 . S
C164 O165 1.229 . S
C164 O177 1.058 . S
O165 C164 1.229 . S
O166 Zn160 1.969 . S
O166 C169 1.267 . S
O167 Zn160 1.965 . S
O167 C178 1.260 . S
O168 Zn161 1.969 . S
O168 C178 1.258 . S
C169 O166 1.267 . S
C169 O170 1.228 . S
O170 C169 1.228 . S
O171 Zn160 2.024 . S
O171 C162 1.058 . S
C172 O173 1.228 . S
C172 O174 1.267 . S
O173 C172 1.228 . S
O174 Zn161 1.969 . S
O174 C172 1.267 . S
O175 Zn161 1.965 . S
O175 C179 1.260 . S
O176 Zn160 1.969 . S
O176 C179 1.258 . S
O177 Zn161 2.024 . S
O177 C164 1.058 . S
C178 O167 1.260 . S
C178 O168 1.258 . S
C179 O175 1.260 . S
C179 O176 1.258 . S
Zn180 O186 1.969 . S
Zn180 O187 1.965 . S
Zn180 O191 2.024 . S
Zn180 O196 1.969 . S
Zn181 O188 1.969 . S
Zn181 O194 1.969 . S
Zn181 O195 1.965 . S
Zn181 O197 2.024 . S
C182 O183 1.229 . S
C182 O191 1.058 . S
O183 C182 1.229 . S
C184 O185 1.229 . S
C184 O197 1.058 . S
O185 C184 1.229 . S
O186 Zn180 1.969 . S
O186 C189 1.267 . S
O187 Zn180 1.965 . S
O187 C198 1.260 . S
O188 Zn181 1.969 . S
O188 C198 1.258 . S
C189 O186 1.267 . S
C189 O190 1.228 . S
O190 C189 1.228 . S
O191 Zn180 2.024 . S
O191 C182 1.058 . S
C192 O193 1.228 . S
C192 O194 1.267 . S
O193 C192 1.228 . S
O194 Zn181 1.969 . S
O194 C192 1.267 . S
O195 Zn181 1.965 . S
O195 C199 1.260 . S
O196 Zn180 1.969 . S
O196 C199 1.258 . S
O197 Zn181 2.024 . S
O197 C184 1.058 . S
C198 O187 1.260 . S
C198 O188 1.258 . S
C199 O195 1.260 . S
C199 O196 1.258 . S
Zn200 O206 1.969 . S
Zn200 O207 1.965 . S
Zn200 O211 2.024 . S
Zn200 O216 1.969 . S
Zn201 O208 1.969 . S
Zn201 O214 1.969 . S
Zn201 O215 1.965 . S
Zn201 O217 2.024 . S
C202 O203 1.229 . S
C202 O211 1.058 . S
O203 C202 1.229 . S
C204 O205 1.229 . S
C204 O217 1.058 . S
O205 C204 1.229 . S
O206 Zn200 1.969 . S
O206 C209 1.267 . S
O207 Zn200 1.965 . S
O207 C218 1.260 . S
O208 Zn201 1.969 . S
O208 C218 1.258 . S
C209 O206 1.267 . S
C209 O210 1.228 . S
O210 C209 1.228 . S
O211 Zn200 2.024 . S
O211 C202 1.058 . S
C212 O213 1.228 . S
C212 O214 1.267 . S
O213 C212 1.228 . S
O214 Zn201 1.969 . S
O214 C212 1.267 . S
O215 Zn201 1.965 . S
O215 C219 1.260 . S
O216 Zn200 1.969 . S
O216 C219 1.258 . S
O217 Zn201 2.024 . S
O217 C204 1.058 . S
C218 O207 1.260 . S
C218 O208 1.258 . S
C219 O215 1.260 . S
C219 O216 1.258 . S
Zn220 O226 1.969 . S
Zn220 O227 1.965 . S
Zn220 O231 2.024 . S
Zn220 O236 1.969 . S
Zn221 O228 1.969 . S
Zn221 O234 1.969 . S
Zn221 O235 1.965 . S
Zn221 O237 2.024 . S
C222 O223 1.229 . S
C222 O231 1.058 . S
O223 C222 1.229 . S
C224 O225 1.229 . S
C224 O237 1.058 . S
O225 C224 1.229 . S
O226 Zn220 1.969 . S
O226 C229 1.267 . S
O227 Zn220 1.965 . S
O227 C238 1.260 . S
O228 Zn221 1.969 . S
O228 C238 1.258 . S
C229 O226 1.267 . S
C229 O230 1.228 . S
O230 C229 1.228 . S
O231 Zn220 2.024 . S
O231 C222 1.058 . S
C232 O233 1.228 . S
C232 O234 1.267 . S
O233 C232 1.228 . S
O234 Zn221 1.969 . S
O234 C232 1.267 . S
O235 Zn221 1.965 . S
O235 C239 1.260 . S
O236 Zn220 1.969 . S
O236 C239 1.258 . S
O237 Zn221 2.024 . S
O237 C224 1.058 . S
C238 O227 1.260 . S
C238 O228 1.258 . S
C239 O235 1.260 . S
C239 O236 1.258 . S
Zn240 O246 1.969 . S
Zn240 O247 1.965 . S
Zn240 O251 2.024 . S
Zn240 O256 1.969 . S
Zn241 O248 1.969 . S
Zn241 O254 1.969 . S
Zn241 O255 1.965 . S
Zn241 O257 2.024 . S
C242 O243 1.229 . S
C242 O251 1.058 . S
O243 C242 1.229 . S
C244 O245 1.229 . S
C244 O257 1.058 . S
O245 C244 1.229 . S
O246 Zn240 1.969 . S
O246 C249 1.267 . S
O247 Zn240 1.965 . S
O247 C258 1.260 . S
O248 Zn241 1.969 . S
O248 C258 1.258 . S
C249 O246 1.267 . S
C249 O250 1.228 . S
O250 C249 1.228 . S
O251 Zn240 2.024 . S
O251 C242 1.058 . S
C252 O253 1.228 . S
C252 O254 1.267 . S
O253 C252 1.228 . S
O254 Zn241 1.969 . S
O254 C252 1.267 . S
O255 Zn241 1.965 . S
O255 C259 1.260 . S
O256 Zn240 1.969 . S
O256 C259 1.258 . S
O257 Zn241 2.024 . S
O257 C244 1.058 . S
C258 O247 1.260 . S
C258 O248 1.258 . S
C259 O255 1.260 . S
C259 O256 1.258 . S
Zn260 O266 1.969 . S
Zn260 O267 1.965 . S
Zn260 O271 2.024 . S
Zn260 O276 1.969 . S
Zn261 O268 1.969 . S
Zn261 O274 1.969 . S
Zn261 O275 1.965 . S
Zn261 O277 2.024 . S
C262 O263 1.229 . S
C262 O271 1.058 . S
O263 C262 1.229 . S
C264 O265 1.229 . S
C264 O277 1.058 . S
O265 C264 1.229 . S
O266 Zn260 1.969 . S
O266 C269 1.267 . S
O267 Zn260 1.965 . S
O267 C278 1.260 . S
O268 Zn261 1.969 . S
O268 C278 1.258 . S
C269 O266 1.267 . S
C269 O270 1.228 . S
O270 C269 1.228 . S
O271 Zn260 2.024 . S
O271 C262 1.058 . S
C272 O273 1.228 . S
C272 O274 1.267 . S
O273 C272 1.228 . S
O274 Zn261 1.969 . S
O274 C272 1.267 . S
O275 Zn261 1.965 . S
O275 C279 1.260 . S
O276 Zn260 1.969 . S
O276 C279 1.258 . S
O277 Zn261 2.024 . S
O277 C264 1.058 . S
C278 O267 1.260 . S
C278 O268 1.258 . S
C279 O275 1.260 . S
C279 O276 1.258 . S
Zn280 O286 1.969 . S
Zn280 O287 1.965 . S
Zn280 O291 2.024 . S
Zn280 O296 1.969 . S
Zn281 O288 1.969 . S
Zn281 O294 1.969 . S
Zn281 O295 1.965 . S
Zn281 O297 2.024 . S
C282 O283 1.229 . S
C282 O291 1.058 . S
O283 C282 1.229 . S
C284 O285 1.229 . S
C284 O297 1.058 . S
O285 C284 1.229 . S
O286 Zn280 1.969 . S
O286 C289 1.267 . S
O287 Zn280 1.965 . S
O287 C298 1.260 . S
O288 Zn281 1.969 . S
O288 C298 1.258 . S
C289 O286 1.267 . S
C289 O290 1.228 . S
O290 C289 1.228 . S
O291 Zn280 2.024 . S
O291 C282 1.058 . S
C292 O293 1.228 . S
C292 O294 1.267 . S
O293 C292 1.228 . S
O294 Zn281 1.969 . S
O294 C292 1.267 . S
O295 Zn281 1.965 . S
O295 C299 1.260 . S
O296 Zn280 1.969 . S
O296 C299 1.258 . S
O297 Zn281 2.024 . S
O297 C284 1.058 . S
C298 O287 1.260 . S
C298 O288 1.258 . S
C299 O295 1.260 . S
C299 O296 1.258 . S
Zn300 O306 1.969 . S
Zn300 O307 1.965 . S
Zn300 O311 2.024 . S
Zn300 O316 1.969 . S
Zn301 O308 1.969 . S
Zn301 O314 1.969 . S
Zn301 O315 1.965 . S
Zn301 O317 2.024 . S
C302 O303 1.229 . S
C302 O311 1.058 . S
O303 C302 1.229 . S
C304 O305 1.229 . S
C304 O317 1.058 . S
O305 C304 1.229 . S
O306 Zn300 1.969 . S
O306 C309 1.267 . S
O307 Zn300 1.965 . S
O307 C318 1.260 . S
O308 Zn301 1.969 . S
O308 C318 1.258 . S
C309 O306 1.267 . S
C309 O310 1.228 . S
O310 C309 1.228 . S
O311 Zn300 2.024 . S
O311 C302 1.058 . S
C312 O313 1.228 . S
C312 O314 1.267 . S
O313 C312 1.228 . S
O314 Zn301 1.969 . S
O314 C312 1.267 . S
O315 Zn301 1.965 . S
O315 C319 1.260 . S
O316 Zn300 1.969 . S
O316 C319 1.258 . S
O317 Zn301 2.024 . S
O317 C304 1.058 . S
C318 O307 1.260 . S
C318 O308 1.258 . S
C319 O315 1.260 . S
C319 O316 1.258 . S
H320 C328 0.929 . S
H321 C330 0.930 . S
H322 C332 0.930 . S
H323 C335 0.929 . S
H324 C338 0.930 . S
H325 C340 0.960 . S
H326 C340 0.960 . S
H327 C340 0.960 . S
C328 H320 0.929 . S
C328 C329 1.377 . S
C328 C330 1.384 . S
C329 C328 1.377 . S
C329 C335 1.390 . S
C330 H321 0.930 . S
C330 C328 1.384 . S
C330 C331 1.372 . S
C331 C330 1.372 . S
C331 C332 1.400 . S
C331 C336 1.490 . S
C332 H322 0.930 . S
C332 C331 1.400 . S
C332 C335 1.386 . S
H333 C349 0.930 . S
H334 C350 0.931 . S
C335 H323 0.929 . S
C335 C329 1.390 . S
C335 C332 1.386 . S
C336 C331 1.490 . S
C336 C338 1.395 . S
C336 C339 1.403 . S
H337 C343 0.930 . S
C338 H324 0.930 . S
C338 C336 1.395 . S
C338 C341 1.403 . S
C339 C336 1.403 . S
C339 C340 1.524 . S
C339 C343 1.400 . S
C340 H325 0.960 . S
C340 H326 0.960 . S
C340 H327 0.960 . S
C340 C339 1.524 . S
C341 C338 1.403 . S
C341 C342 1.392 . S
C341 C345 1.495 . S
C342 C341 1.392 . S
C342 C343 1.385 . S
C342 C344 1.478 . S
C343 H337 0.930 . S
C343 C339 1.400 . S
C343 C342 1.385 . S
C344 C342 1.478 . S
C344 C346 1.381 . S
C344 C350 1.383 . S
C345 C341 1.495 . S
C345 H351 0.959 . S
C345 H352 0.961 . S
C345 H353 0.960 . S
C346 C344 1.381 . S
C346 C347 1.394 . S
C346 H354 0.930 . S
C347 C346 1.394 . S
C347 C348 1.383 . S
C347 H355 0.929 . S
C348 C347 1.383 . S
C348 C349 1.377 . S
C349 H333 0.930 . S
C349 C348 1.377 . S
C349 C350 1.379 . S
C350 H334 0.931 . S
C350 C344 1.383 . S
C350 C349 1.379 . S
H351 C345 0.959 . S
H352 C345 0.961 . S
H353 C345 0.960 . S
H354 C346 0.930 . S
H355 C347 0.929 . S
H356 C364 0.929 . S
H357 C366 0.930 . S
H358 C368 0.930 . S
H359 C371 0.929 . S
H360 C374 0.930 . S
H361 C376 0.960 . S
H362 C376 0.960 . S
H363 C376 0.960 . S
C364 H356 0.929 . S
C364 C365 1.377 . S
C364 C366 1.384 . S
C365 C364 1.377 . S
C365 C371 1.390 . S
C366 H357 0.930 . S
C366 C364 1.384 . S
C366 C367 1.372 . S
C367 C366 1.372 . S
C367 C368 1.400 . S
C367 C372 1.490 . S
C368 H358 0.930 . S
C368 C367 1.400 . S
C368 C371 1.386 . S
H369 C385 0.930 . S
H370 C386 0.931 . S
C371 H359 0.929 . S
C371 C365 1.390 . S
C371 C368 1.386 . S
C372 C367 1.490 . S
C372 C374 1.395 . S
C372 C375 1.403 . S
H373 C379 0.930 . S
C374 H360 0.930 . S
C374 C372 1.395 . S
C374 C377 1.403 . S
C375 C372 1.403 . S
C375 C376 1.524 . S
C375 C379 1.400 . S
C376 H361 0.960 . S
C376 H362 0.960 . S
C376 H363 0.960 . S
C376 C375 1.524 . S
C377 C374 1.403 . S
C377 C378 1.392 . S
C377 C381 1.495 . S
C378 C377 1.392 . S
C378 C379 1.385 . S
C378 C380 1.478 . S
C379 H373 0.930 . S
C379 C375 1.400 . S
C379 C378 1.385 . S
C380 C378 1.478 . S
C380 C382 1.381 . S
C380 C386 1.383 . S
C381 C377 1.495 . S
C381 H387 0.959 . S
C381 H388 0.961 . S
C381 H389 0.960 . S
C382 C380 1.381 . S
C382 C383 1.394 . S
C382 H390 0.930 . S
C383 C382 1.394 . S
C383 C384 1.383 . S
C383 H391 0.929 . S
C384 C383 1.383 . S
C384 C385 1.377 . S
C385 H369 0.930 . S
C385 C384 1.377 . S
C385 C386 1.379 . S
C386 H370 0.931 . S
C386 C380 1.383 . S
C386 C385 1.379 . S
H387 C381 0.959 . S
H388 C381 0.961 . S
H389 C381 0.960 . S
H390 C382 0.930 . S
H391 C383 0.929 . S
H392 C400 0.929 . S
H393 C402 0.930 . S
H394 C404 0.930 . S
H395 C407 0.929 . S
H396 C410 0.930 . S
H397 C412 0.960 . S
H398 C412 0.960 . S
H399 C412 0.960 . S
C400 H392 0.929 . S
C400 C401 1.377 . S
C400 C402 1.384 . S
C401 C400 1.377 . S
C401 C407 1.390 . S
C402 H393 0.930 . S
C402 C400 1.384 . S
C402 C403 1.372 . S
C403 C402 1.372 . S
C403 C404 1.400 . S
C403 C408 1.490 . S
C404 H394 0.930 . S
C404 C403 1.400 . S
C404 C407 1.386 . S
H405 C421 0.930 . S
H406 C422 0.931 . S
C407 H395 0.929 . S
C407 C401 1.390 . S
C407 C404 1.386 . S
C408 C403 1.490 . S
C408 C410 1.395 . S
C408 C411 1.403 . S
H409 C415 0.930 . S
C410 H396 0.930 . S
C410 C408 1.395 . S
C410 C413 1.403 . S
C411 C408 1.403 . S
C411 C412 1.524 . S
C411 C415 1.400 . S
C412 H397 0.960 . S
C412 H398 0.960 . S
C412 H399 0.960 . S
C412 C411 1.524 . S
C413 C410 1.403 . S
C413 C414 1.392 . S
C413 C417 1.495 . S
C414 C413 1.392 . S
C414 C415 1.385 . S
C414 C416 1.478 . S
C415 H409 0.930 . S
C415 C411 1.400 . S
C415 C414 1.385 . S
C416 C414 1.478 . S
C416 C418 1.381 . S
C416 C422 1.383 . S
C417 C413 1.495 . S
C417 H423 0.959 . S
C417 H424 0.961 . S
C417 H425 0.960 . S
C418 C416 1.381 . S
C418 C419 1.394 . S
C418 H426 0.930 . S
C419 C418 1.394 . S
C419 C420 1.383 . S
C419 H427 0.929 . S
C420 C419 1.383 . S
C420 C421 1.377 . S
C421 H405 0.930 . S
C421 C420 1.377 . S
C421 C422 1.379 . S
C422 H406 0.931 . S
C422 C416 1.383 . S
C422 C421 1.379 . S
H423 C417 0.959 . S
H424 C417 0.961 . S
H425 C417 0.960 . S
H426 C418 0.930 . S
H427 C419 0.929 . S
H428 C436 0.929 . S
H429 C438 0.930 . S
H430 C440 0.930 . S
H431 C443 0.929 . S
H432 C446 0.930 . S
H433 C448 0.960 . S
H434 C448 0.960 . S
H435 C448 0.960 . S
C436 H428 0.929 . S
C436 C437 1.377 . S
C436 C438 1.384 . S
C437 C436 1.377 . S
C437 C443 1.390 . S
C438 H429 0.930 . S
C438 C436 1.384 . S
C438 C439 1.372 . S
C439 C438 1.372 . S
C439 C440 1.400 . S
C439 C444 1.490 . S
C440 H430 0.930 . S
C440 C439 1.400 . S
C440 C443 1.386 . S
H441 C457 0.930 . S
H442 C458 0.931 . S
C443 H431 0.929 . S
C443 C437 1.390 . S
C443 C440 1.386 . S
C444 C439 1.490 . S
C444 C446 1.395 . S
C444 C447 1.403 . S
H445 C451 0.930 . S
C446 H432 0.930 . S
C446 C444 1.395 . S
C446 C449 1.403 . S
C447 C444 1.403 . S
C447 C448 1.524 . S
C447 C451 1.400 . S
C448 H433 0.960 . S
C448 H434 0.960 . S
C448 H435 0.960 . S
C448 C447 1.524 . S
C449 C446 1.403 . S
C449 C450 1.392 . S
C449 C453 1.495 . S
C450 C449 1.392 . S
C450 C451 1.385 . S
C450 C452 1.478 . S
C451 H445 0.930 . S
C451 C447 1.400 . S
C451 C450 1.385 . S
C452 C450 1.478 . S
C452 C454 1.381 . S
C452 C458 1.383 . S
C453 C449 1.495 . S
C453 H459 0.959 . S
C453 H460 0.961 . S
C453 H461 0.960 . S
C454 C452 1.381 . S
C454 C455 1.394 . S
C454 H462 0.930 . S
C455 C454 1.394 . S
C455 C456 1.383 . S
C455 H463 0.929 . S
C456 C455 1.383 . S
C456 C457 1.377 . S
C457 H441 0.930 . S
C457 C456 1.377 . S
C457 C458 1.379 . S
C458 H442 0.931 . S
C458 C452 1.383 . S
C458 C457 1.379 . S
H459 C453 0.959 . S
H460 C453 0.961 . S
H461 C453 0.960 . S
H462 C454 0.930 . S
H463 C455 0.929 . S
H464 C472 0.929 . S
H465 C474 0.930 . S
H466 C476 0.930 . S
H467 C479 0.929 . S
H468 C482 0.930 . S
H469 C484 0.960 . S
H470 C484 0.960 . S
H471 C484 0.960 . S
C472 H464 0.929 . S
C472 C473 1.377 . S
C472 C474 1.384 . S
C473 C472 1.377 . S
C473 C479 1.390 . S
C474 H465 0.930 . S
C474 C472 1.384 . S
C474 C475 1.372 . S
C475 C474 1.372 . S
C475 C476 1.400 . S
C475 C480 1.490 . S
C476 H466 0.930 . S
C476 C475 1.400 . S
C476 C479 1.386 . S
H477 C493 0.930 . S
H478 C494 0.931 . S
C479 H467 0.929 . S
C479 C473 1.390 . S
C479 C476 1.386 . S
C480 C475 1.490 . S
C480 C482 1.395 . S
C480 C483 1.403 . S
H481 C487 0.930 . S
C482 H468 0.930 . S
C482 C480 1.395 . S
C482 C485 1.403 . S
C483 C480 1.403 . S
C483 C484 1.524 . S
C483 C487 1.400 . S
C484 H469 0.960 . S
C484 H470 0.960 . S
C484 H471 0.960 . S
C484 C483 1.524 . S
C485 C482 1.403 . S
C485 C486 1.392 . S
C485 C489 1.495 . S
C486 C485 1.392 . S
C486 C487 1.385 . S
C486 C488 1.478 . S
C487 H481 0.930 . S
C487 C483 1.400 . S
C487 C486 1.385 . S
C488 C486 1.478 . S
C488 C490 1.381 . S
C488 C494 1.383 . S
C489 C485 1.495 . S
C489 H495 0.959 . S
C489 H496 0.961 . S
C489 H497 0.960 . S
C490 C488 1.381 . S
C490 C491 1.394 . S
C490 H498 0.930 . S
C491 C490 1.394 . S
C491 C492 1.383 . S
C491 H499 0.929 . S
C492 C491 1.383 . S
C492 C493 1.377 . S
C493 H477 0.930 . S
C493 C492 1.377 . S
C493 C494 1.379 . S
C494 H478 0.931 . S
C494 C488 1.383 . S
C494 C493 1.379 . S
H495 C489 0.959 . S
H496 C489 0.961 . S
H497 C489 0.960 . S
H498 C490 0.930 . S
H499 C491 0.929 . S
H500 C508 0.929 . S
H501 C510 0.930 . S
H502 C512 0.930 . S
H503 C515 0.929 . S
H504 C518 0.930 . S
H505 C520 0.960 . S
H506 C520 0.960 . S
H507 C520 0.960 . S
C508 H500 0.929 . S
C508 C509 1.377 . S
C508 C510 1.384 . S
C509 C508 1.377 . S
C509 C515 1.390 . S
C510 H501 0.930 . S
C510 C508 1.384 . S
C510 C511 1.372 . S
C511 C510 1.372 . S
C511 C512 1.400 . S
C511 C516 1.490 . S
C512 H502 0.930 . S
C512 C511 1.400 . S
C512 C515 1.386 . S
H513 C529 0.930 . S
H514 C530 0.931 . S
C515 H503 0.929 . S
C515 C509 1.390 . S
C515 C512 1.386 . S
C516 C511 1.490 . S
C516 C518 1.395 . S
C516 C519 1.403 . S
H517 C523 0.930 . S
C518 H504 0.930 . S
C518 C516 1.395 . S
C518 C521 1.403 . S
C519 C516 1.403 . S
C519 C520 1.524 . S
C519 C523 1.400 . S
C520 H505 0.960 . S
C520 H506 0.960 . S
C520 H507 0.960 . S
C520 C519 1.524 . S
C521 C518 1.403 . S
C521 C522 1.392 . S
C521 C525 1.495 . S
C522 C521 1.392 . S
C522 C523 1.385 . S
C522 C524 1.478 . S
C523 H517 0.930 . S
C523 C519 1.400 . S
C523 C522 1.385 . S
C524 C522 1.478 . S
C524 C526 1.381 . S
C524 C530 1.383 . S
C525 C521 1.495 . S
C525 H531 0.959 . S
C525 H532 0.961 . S
C525 H533 0.960 . S
C526 C524 1.381 . S
C526 C527 1.394 . S
C526 H534 0.930 . S
C527 C526 1.394 . S
C527 C528 1.383 . S
C527 H535 0.929 . S
C528 C527 1.383 . S
C528 C529 1.377 . S
C529 H513 0.930 . S
C529 C528 1.377 . S
C529 C530 1.379 . S
C530 H514 0.931 . S
C530 C524 1.383 . S
C530 C529 1.379 . S
H531 C525 0.959 . S
H532 C525 0.961 . S
H533 C525 0.960 . S
H534 C526 0.930 . S
H535 C527 0.929 . S
H536 C544 0.929 . S
H537 C546 0.930 . S
H538 C548 0.930 . S
H539 C551 0.929 . S
H540 C554 0.930 . S
H541 C556 0.960 . S
H542 C556 0.960 . S
H543 C556 0.960 . S
C544 H536 0.929 . S
C544 C545 1.377 . S
C544 C546 1.384 . S
C545 C544 1.377 . S
C545 C551 1.390 . S
C546 H537 0.930 . S
C546 C544 1.384 . S
C546 C547 1.372 . S
C547 C546 1.372 . S
C547 C548 1.400 . S
C547 C552 1.490 . S
C548 H538 0.930 . S
C548 C547 1.400 . S
C548 C551 1.386 . S
H549 C565 0.930 . S
H550 C566 0.931 . S
C551 H539 0.929 . S
C551 C545 1.390 . S
C551 C548 1.386 . S
C552 C547 1.490 . S
C552 C554 1.395 . S
C552 C555 1.403 . S
H553 C559 0.930 . S
C554 H540 0.930 . S
C554 C552 1.395 . S
C554 C557 1.403 . S
C555 C552 1.403 . S
C555 C556 1.524 . S
C555 C559 1.400 . S
C556 H541 0.960 . S
C556 H542 0.960 . S
C556 H543 0.960 . S
C556 C555 1.524 . S
C557 C554 1.403 . S
C557 C558 1.392 . S
C557 C561 1.495 . S
C558 C557 1.392 . S
C558 C559 1.385 . S
C558 C560 1.478 . S
C559 H553 0.930 . S
C559 C555 1.400 . S
C559 C558 1.385 . S
C560 C558 1.478 . S
C560 C562 1.381 . S
C560 C566 1.383 . S
C561 C557 1.495 . S
C561 H567 0.959 . S
C561 H568 0.961 . S
C561 H569 0.960 . S
C562 C560 1.381 . S
C562 C563 1.394 . S
C562 H570 0.930 . S
C563 C562 1.394 . S
C563 C564 1.383 . S
C563 H571 0.929 . S
C564 C563 1.383 . S
C564 C565 1.377 . S
C565 H549 0.930 . S
C565 C564 1.377 . S
C565 C566 1.379 . S
C566 H550 0.931 . S
C566 C560 1.383 . S
C566 C565 1.379 . S
H567 C561 0.959 . S
H568 C561 0.961 . S
H569 C561 0.960 . S
H570 C562 0.930 . S
H571 C563 0.929 . S
H572 C580 0.929 . S
H573 C582 0.930 . S
H574 C584 0.930 . S
H575 C587 0.929 . S
H576 C590 0.930 . S
H577 C592 0.960 . S
H578 C592 0.960 . S
H579 C592 0.960 . S
C580 H572 0.929 . S
C580 C581 1.377 . S
C580 C582 1.384 . S
C581 C580 1.377 . S
C581 C587 1.390 . S
C582 H573 0.930 . S
C582 C580 1.384 . S
C582 C583 1.372 . S
C583 C582 1.372 . S
C583 C584 1.400 . S
C583 C588 1.490 . S
C584 H574 0.930 . S
C584 C583 1.400 . S
C584 C587 1.386 . S
H585 C601 0.930 . S
H586 C602 0.931 . S
C587 H575 0.929 . S
C587 C581 1.390 . S
C587 C584 1.386 . S
C588 C583 1.490 . S
C588 C590 1.395 . S
C588 C591 1.403 . S
H589 C595 0.930 . S
C590 H576 0.930 . S
C590 C588 1.395 . S
C590 C593 1.403 . S
C591 C588 1.403 . S
C591 C592 1.524 . S
C591 C595 1.400 . S
C592 H577 0.960 . S
C592 H578 0.960 . S
C592 H579 0.960 . S
C592 C591 1.524 . S
C593 C590 1.403 . S
C593 C594 1.392 . S
C593 C597 1.495 . S
C594 C593 1.392 . S
C594 C595 1.385 . S
C594 C596 1.478 . S
C595 H589 0.930 . S
C595 C591 1.400 . S
C595 C594 1.385 . S
C596 C594 1.478 . S
C596 C598 1.381 . S
C596 C602 1.383 . S
C597 C593 1.495 . S
C597 H603 0.959 . S
C597 H604 0.961 . S
C597 H605 0.960 . S
C598 C596 1.381 . S
C598 C599 1.394 . S
C598 H606 0.930 . S
C599 C598 1.394 . S
C599 C600 1.383 . S
C599 H607 0.929 . S
C600 C599 1.383 . S
C600 C601 1.377 . S
C601 H585 0.930 . S
C601 C600 1.377 . S
C601 C602 1.379 . S
C602 H586 0.931 . S
C602 C596 1.383 . S
C602 C601 1.379 . S
H603 C597 0.959 . S
H604 C597 0.961 . S
H605 C597 0.960 . S
H606 C598 0.930 . S
H607 C599 0.929 . S
H608 C616 0.929 . S
H609 C618 0.930 . S
H610 C620 0.930 . S
H611 C623 0.929 . S
H612 C626 0.930 . S
H613 C628 0.960 . S
H614 C628 0.960 . S
H615 C628 0.960 . S
C616 H608 0.929 . S
C616 C617 1.377 . S
C616 C618 1.384 . S
C617 C616 1.377 . S
C617 C623 1.390 . S
C618 H609 0.930 . S
C618 C616 1.384 . S
C618 C619 1.372 . S
C619 C618 1.372 . S
C619 C620 1.400 . S
C619 C624 1.490 . S
C620 H610 0.930 . S
C620 C619 1.400 . S
C620 C623 1.386 . S
H621 C637 0.930 . S
H622 C638 0.931 . S
C623 H611 0.929 . S
C623 C617 1.390 . S
C623 C620 1.386 . S
C624 C619 1.490 . S
C624 C626 1.395 1_565 S
C624 C627 1.403 . S
H625 C631 0.930 . S
C626 H612 0.930 . S
C626 C624 1.395 1_545 S
C626 C629 1.403 . S
C627 C624 1.403 . S
C627 C628 1.524 . S
C627 C631 1.400 . S
C628 H613 0.960 . S
C628 H614 0.960 . S
C628 H615 0.960 . S
C628 C627 1.524 . S
C629 C626 1.403 . S
C629 C630 1.392 . S
C629 C633 1.495 . S
C630 C629 1.392 . S
C630 C631 1.385 1_545 S
C630 C632 1.478 . S
C631 H625 0.930 . S
C631 C627 1.400 . S
C631 C630 1.385 1_565 S
C632 C630 1.478 . S
C632 C634 1.381 . S
C632 C638 1.383 . S
C633 C629 1.495 . S
C633 H639 0.959 . S
C633 H640 0.961 . S
C633 H641 0.960 . S
C634 C632 1.381 . S
C634 C635 1.394 . S
C634 H642 0.930 . S
C635 C634 1.394 . S
C635 C636 1.383 . S
C635 H643 0.929 . S
C636 C635 1.383 . S
C636 C637 1.377 . S
C637 H621 0.930 . S
C637 C636 1.377 . S
C637 C638 1.379 . S
C638 H622 0.931 . S
C638 C632 1.383 . S
C638 C637 1.379 . S
H639 C633 0.959 . S
H640 C633 0.961 . S
H641 C633 0.960 . S
H642 C634 0.930 . S
H643 C635 0.929 . S
H644 C652 0.929 1_565 S
H645 C654 0.936 . S
H646 C656 0.930 . S
H647 C659 0.929 . S
H648 C662 0.930 . S
H649 C664 0.960 . S
H650 C664 0.960 . S
H651 C664 0.960 . S
C652 H644 0.929 1_545 S
C652 C653 1.377 . S
C652 C654 1.382 1_545 S
C653 C652 1.377 . S
C653 C659 1.390 . S
C654 H645 0.936 . S
C654 C652 1.382 1_565 S
C654 C655 1.368 1_565 S
C655 C654 1.368 1_545 S
C655 C656 1.400 . S
C655 C660 1.490 . S
C656 H646 0.930 . S
C656 C655 1.400 . S
C656 C659 1.386 . S
H657 C673 0.923 1_545 S
H658 C674 0.931 1_545 S
C659 H647 0.929 . S
C659 C653 1.390 . S
C659 C656 1.386 . S
C660 C655 1.490 . S
C660 C662 1.395 1_545 S
C660 C663 1.403 . S
H661 C667 0.930 . S
C662 H648 0.930 . S
C662 C660 1.395 1_565 S
C662 C665 1.403 . S
C663 C660 1.403 . S
C663 C664 1.524 . S
C663 C667 1.400 . S
C664 H649 0.960 . S
C664 H650 0.960 . S
C664 H651 0.960 . S
C664 C663 1.524 . S
C665 C662 1.403 . S
C665 C666 1.392 . S
C665 C669 1.495 . S
C666 C665 1.392 . S
C666 C667 1.385 1_565 S
C666 C668 1.478 . S
C667 H661 0.930 . S
C667 C663 1.400 . S
C667 C666 1.385 1_545 S
C668 C666 1.478 . S
C668 C670 1.381 . S
C668 C674 1.383 . S
C669 C665 1.495 . S
C669 H675 0.959 . S
C669 H676 0.961 . S
C669 H677 0.960 . S
C670 C668 1.381 . S
C670 C671 1.394 . S
C670 H678 0.930 . S
C671 C670 1.394 . S
C671 C672 1.383 . S
C671 H679 0.929 . S
C672 C671 1.383 . S
C672 C673 1.377 . S
C673 H657 0.923 1_565 S
C673 C672 1.377 . S
C673 C674 1.379 . S
C674 H658 0.931 1_565 S
C674 C668 1.383 . S
C674 C673 1.379 . S
H675 C669 0.959 . S
H676 C669 0.961 . S
H677 C669 0.960 . S
H678 C670 0.930 . S
H679 C671 0.929 . S
H680 C688 0.929 . S
H681 C690 0.930 1_565 S
H682 C692 0.930 . S
H683 C695 0.929 . S
H684 C698 0.930 . S
H685 C700 0.960 . S
H686 C700 0.960 . S
H687 C700 0.960 . S
C688 H680 0.929 . S
C688 C689 1.377 . S
C688 C690 1.384 . S
C689 C688 1.377 . S
C689 C695 1.390 . S
C690 H681 0.930 1_545 S
C690 C688 1.384 . S
C690 C691 1.372 . S
C691 C690 1.372 . S
C691 C692 1.400 . S
C691 C696 1.490 . S
C692 H682 0.930 . S
C692 C691 1.400 . S
C692 C695 1.386 . S
H693 C709 0.930 . S
H694 C710 0.931 1_545 S
C695 H683 0.929 . S
C695 C689 1.390 . S
C695 C692 1.386 . S
C696 C691 1.490 . S
C696 C698 1.395 1_545 S
C696 C699 1.403 . S
H697 C703 0.930 . S
C698 H684 0.930 . S
C698 C696 1.395 1_565 S
C698 C701 1.403 . S
C699 C696 1.403 . S
C699 C700 1.524 . S
C699 C703 1.400 . S
C700 H685 0.960 . S
C700 H686 0.960 . S
C700 H687 0.960 . S
C700 C699 1.524 . S
C701 C698 1.403 . S
C701 C702 1.392 . S
C701 C705 1.495 . S
C702 C701 1.392 . S
C702 C703 1.385 1_565 S
C702 C704 1.478 . S
C703 H697 0.930 . S
C703 C699 1.400 . S
C703 C702 1.385 1_545 S
C704 C702 1.478 . S
C704 C706 1.381 . S
C704 C710 1.383 . S
C705 C701 1.495 . S
C705 H711 0.959 . S
C705 H712 0.961 . S
C705 H713 0.960 . S
C706 C704 1.381 . S
C706 C707 1.394 . S
C706 H714 0.930 . S
C707 C706 1.394 . S
C707 C708 1.383 . S
C707 H715 0.929 . S
C708 C707 1.383 . S
C708 C709 1.377 . S
C709 H693 0.930 . S
C709 C708 1.377 . S
C709 C710 1.379 . S
C710 H694 0.931 1_565 S
C710 C704 1.383 . S
C710 C709 1.379 . S
H711 C705 0.959 . S
H712 C705 0.961 . S
H713 C705 0.960 . S
H714 C706 0.930 . S
H715 C707 0.929 . S
H716 C724 0.929 . S
H717 C726 0.930 . S
H718 C728 0.930 . S
H719 C731 0.929 . S
H720 C734 0.930 . S
H721 C736 0.960 . S
H722 C736 0.960 . S
H723 C736 0.960 . S
C724 H716 0.929 . S
C724 C725 1.377 . S
C724 C726 1.384 . S
C725 C724 1.377 . S
C725 C731 1.390 . S
C726 H717 0.930 . S
C726 C724 1.384 . S
C726 C727 1.372 . S
C727 C726 1.372 . S
C727 C728 1.400 . S
C727 C732 1.490 . S
C728 H718 0.930 . S
C728 C727 1.400 . S
C728 C731 1.386 . S
H729 C745 0.930 . S
H730 C746 0.931 . S
C731 H719 0.929 . S
C731 C725 1.390 . S
C731 C728 1.386 . S
C732 C727 1.490 . S
C732 C734 1.395 . S
C732 C735 1.403 1_545 S
H733 C739 0.930 . S
C734 H720 0.930 . S
C734 C732 1.395 . S
C734 C737 1.403 . S
C735 C732 1.403 1_565 S
C735 C736 1.524 . S
C735 C739 1.400 . S
C736 H721 0.960 . S
C736 H722 0.960 . S
C736 H723 0.960 . S
C736 C735 1.524 . S
C737 C734 1.403 . S
C737 C738 1.392 1_545 S
C737 C741 1.495 . S
C738 C737 1.392 1_565 S
C738 C739 1.385 . S
C738 C740 1.478 . S
C739 H733 0.930 . S
C739 C735 1.400 . S
C739 C738 1.385 . S
C740 C738 1.478 . S
C740 C742 1.381 . S
C740 C746 1.383 . S
C741 C737 1.495 . S
C741 H747 0.959 . S
C741 H748 0.961 . S
C741 H749 0.960 . S
C742 C740 1.381 . S
C742 C743 1.394 . S
C742 H750 0.930 . S
C743 C742 1.394 . S
C743 C744 1.383 . S
C743 H751 0.929 . S
C744 C743 1.383 . S
C744 C745 1.377 . S
C745 H729 0.930 . S
C745 C744 1.377 . S
C745 C746 1.379 . S
C746 H730 0.931 . S
C746 C740 1.383 . S
C746 C745 1.379 . S
H747 C741 0.959 . S
H748 C741 0.961 . S
H749 C741 0.960 . S
H750 C742 0.930 . S
H751 C743 0.929 . S
H752 C760 0.929 . S
H753 C762 0.930 . S
H754 C764 0.930 . S
H755 C767 0.929 . S
H756 C770 0.930 . S
H757 C772 0.960 . S
H758 C772 0.960 . S
H759 C772 0.960 . S
C760 H752 0.929 . S
C760 C761 1.377 . S
C760 C762 1.384 . S
C761 C760 1.377 . S
C761 C767 1.390 . S
C762 H753 0.930 . S
C762 C760 1.384 . S
C762 C763 1.372 . S
C763 C762 1.372 . S
C763 C764 1.400 . S
C763 C768 1.490 . S
C764 H754 0.930 . S
C764 C763 1.400 . S
C764 C767 1.386 . S
H765 C781 0.930 . S
H766 C782 0.931 . S
C767 H755 0.929 . S
C767 C761 1.390 . S
C767 C764 1.386 . S
C768 C763 1.490 . S
C768 C770 1.395 . S
C768 C771 1.403 . S
H769 C775 0.930 . S
C770 H756 0.930 . S
C770 C768 1.395 . S
C770 C773 1.403 . S
C771 C768 1.403 . S
C771 C772 1.524 . S
C771 C775 1.400 . S
C772 H757 0.960 . S
C772 H758 0.960 . S
C772 H759 0.960 . S
C772 C771 1.524 . S
C773 C770 1.403 . S
C773 C774 1.392 . S
C773 C777 1.495 . S
C774 C773 1.392 . S
C774 C775 1.385 . S
C774 C776 1.478 . S
C775 H769 0.930 . S
C775 C771 1.400 . S
C775 C774 1.385 . S
C776 C774 1.478 . S
C776 C778 1.381 . S
C776 C782 1.383 . S
C777 C773 1.495 . S
C777 H783 0.959 . S
C777 H784 0.961 . S
C777 H785 0.960 . S
C778 C776 1.381 . S
C778 C779 1.394 . S
C778 H786 0.930 . S
C779 C778 1.394 . S
C779 C780 1.383 . S
C779 H787 0.929 . S
C780 C779 1.383 . S
C780 C781 1.377 . S
C781 H765 0.930 . S
C781 C780 1.377 . S
C781 C782 1.379 . S
C782 H766 0.931 . S
C782 C776 1.383 . S
C782 C781 1.379 . S
H783 C777 0.959 . S
H784 C777 0.961 . S
H785 C777 0.960 . S
H786 C778 0.930 . S
H787 C779 0.929 . S
H788 C796 0.929 . S
H789 C798 0.930 . S
H790 C800 0.930 . S
H791 C803 0.929 . S
H792 C806 0.930 . S
H793 C808 0.960 . S
H794 C808 0.960 . S
H795 C808 0.960 . S
C796 H788 0.929 . S
C796 C797 1.377 . S
C796 C798 1.384 . S
C797 C796 1.377 . S
C797 C803 1.390 . S
C798 H789 0.930 . S
C798 C796 1.384 . S
C798 C799 1.372 . S
C799 C798 1.372 . S
C799 C800 1.400 . S
C799 C804 1.490 . S
C800 H790 0.930 . S
C800 C799 1.400 . S
C800 C803 1.386 . S
H801 C817 0.930 . S
H802 C818 0.931 . S
C803 H791 0.929 . S
C803 C797 1.390 . S
C803 C800 1.386 . S
C804 C799 1.490 . S
C804 C806 1.395 . S
C804 C807 1.403 . S
H805 C811 0.930 . S
C806 H792 0.930 . S
C806 C804 1.395 . S
C806 C809 1.403 . S
C807 C804 1.403 . S
C807 C808 1.524 . S
C807 C811 1.400 . S
C808 H793 0.960 . S
C808 H794 0.960 . S
C808 H795 0.960 . S
C808 C807 1.524 . S
C809 C806 1.403 . S
C809 C810 1.392 . S
C809 C813 1.495 . S
C810 C809 1.392 . S
C810 C811 1.385 . S
C810 C812 1.478 . S
C811 H805 0.930 . S
C811 C807 1.400 . S
C811 C810 1.385 . S
C812 C810 1.478 . S
C812 C814 1.381 . S
C812 C818 1.383 . S
C813 C809 1.495 . S
C813 H819 0.959 . S
C813 H820 0.961 . S
C813 H821 0.960 . S
C814 C812 1.381 . S
C814 C815 1.394 . S
C814 H822 0.930 . S
C815 C814 1.394 . S
C815 C816 1.383 . S
C815 H823 0.929 . S
C816 C815 1.383 . S
C816 C817 1.377 . S
C817 H801 0.930 . S
C817 C816 1.377 . S
C817 C818 1.379 . S
C818 H802 0.931 . S
C818 C812 1.383 . S
C818 C817 1.379 . S
H819 C813 0.959 . S
H820 C813 0.961 . S
H821 C813 0.960 . S
H822 C814 0.930 . S
H823 C815 0.929 . S
H824 C832 0.929 . S
H825 C834 0.930 . S
H826 C836 0.930 . S
H827 C839 0.929 . S
H828 C842 0.930 . S
H829 C844 0.960 . S
H830 C844 0.960 . S
H831 C844 0.960 . S
C832 H824 0.929 . S
C832 C833 1.377 . S
C832 C834 1.384 . S
C833 C832 1.377 . S
C833 C839 1.390 . S
C834 H825 0.930 . S
C834 C832 1.384 . S
C834 C835 1.372 . S
C835 C834 1.372 . S
C835 C836 1.400 . S
C835 C840 1.490 . S
C836 H826 0.930 . S
C836 C835 1.400 . S
C836 C839 1.386 . S
H837 C853 0.930 . S
H838 C854 0.931 . S
C839 H827 0.929 . S
C839 C833 1.390 . S
C839 C836 1.386 . S
C840 C835 1.490 . S
C840 C842 1.395 . S
C840 C843 1.403 . S
H841 C847 0.930 . S
C842 H828 0.930 . S
C842 C840 1.395 . S
C842 C845 1.403 . S
C843 C840 1.403 . S
C843 C844 1.524 . S
C843 C847 1.400 . S
C844 H829 0.960 . S
C844 H830 0.960 . S
C844 H831 0.960 . S
C844 C843 1.524 . S
C845 C842 1.403 . S
C845 C846 1.392 . S
C845 C849 1.495 . S
C846 C845 1.392 . S
C846 C847 1.385 . S
C846 C848 1.478 . S
C847 H841 0.930 . S
C847 C843 1.400 . S
C847 C846 1.385 . S
C848 C846 1.478 . S
C848 C850 1.381 . S
C848 C854 1.383 . S
C849 C845 1.495 . S
C849 H855 0.959 . S
C849 H856 0.961 . S
C849 H857 0.960 . S
C850 C848 1.381 . S
C850 C851 1.394 . S
C850 H858 0.930 . S
C851 C850 1.394 . S
C851 C852 1.383 . S
C851 H859 0.929 . S
C852 C851 1.383 . S
C852 C853 1.377 . S
C853 H837 0.930 . S
C853 C852 1.377 . S
C853 C854 1.379 . S
C854 H838 0.931 . S
C854 C848 1.383 . S
C854 C853 1.379 . S
H855 C849 0.959 . S
H856 C849 0.961 . S
H857 C849 0.960 . S
H858 C850 0.930 . S
H859 C851 0.929 . S
H860 C868 0.929 . S
H861 C870 0.930 . S
H862 C872 0.930 . S
H863 C875 0.929 . S
H864 C878 0.930 . S
H865 C880 0.960 . S
H866 C880 0.960 . S
H867 C880 0.960 . S
C868 H860 0.929 . S
C868 C869 1.377 . S
C868 C870 1.384 . S
C869 C868 1.377 . S
C869 C875 1.390 . S
C870 H861 0.930 . S
C870 C868 1.384 . S
C870 C871 1.372 . S
C871 C870 1.372 . S
C871 C872 1.400 . S
C871 C876 1.490 . S
C872 H862 0.930 . S
C872 C871 1.400 . S
C872 C875 1.386 . S
H873 C889 0.930 . S
H874 C890 0.931 . S
C875 H863 0.929 . S
C875 C869 1.390 . S
C875 C872 1.386 . S
C876 C871 1.490 . S
C876 C878 1.395 . S
C876 C879 1.403 . S
H877 C883 0.930 . S
C878 H864 0.930 . S
C878 C876 1.395 . S
C878 C881 1.403 . S
C879 C876 1.403 . S
C879 C880 1.524 . S
C879 C883 1.400 . S
C880 H865 0.960 . S
C880 H866 0.960 . S
C880 H867 0.960 . S
C880 C879 1.524 . S
C881 C878 1.403 . S
C881 C882 1.392 . S
C881 C885 1.495 . S
C882 C881 1.392 . S
C882 C883 1.385 . S
C882 C884 1.478 . S
C883 H877 0.930 . S
C883 C879 1.400 . S
C883 C882 1.385 . S
C884 C882 1.478 . S
C884 C886 1.381 . S
C884 C890 1.383 . S
C885 C881 1.495 . S
C885 H891 0.959 . S
C885 H892 0.961 . S
C885 H893 0.960 . S
C886 C884 1.381 . S
C886 C887 1.394 . S
C886 H894 0.930 . S
C887 C886 1.394 . S
C887 C888 1.383 . S
C887 H895 0.929 . S
C888 C887 1.383 . S
C888 C889 1.377 . S
C889 H873 0.930 . S
C889 C888 1.377 . S
C889 C890 1.379 . S
C890 H874 0.931 . S
C890 C884 1.383 . S
C890 C889 1.379 . S
H891 C885 0.959 . S
H892 C885 0.961 . S
H893 C885 0.960 . S
H894 C886 0.930 . S
H895 C887 0.929 . S
H896 C904 0.929 . S
H897 C906 0.930 . S
H898 C908 0.930 . S
H899 C911 0.929 . S
H900 C914 0.930 . S
H901 C916 0.960 . S
H902 C916 0.960 . S
H903 C916 0.960 . S
C904 H896 0.929 . S
C904 C905 1.377 . S
C904 C906 1.384 . S
C905 C904 1.377 . S
C905 C911 1.390 . S
C906 H897 0.930 . S
C906 C904 1.384 . S
C906 C907 1.372 . S
C907 C906 1.372 . S
C907 C908 1.400 . S
C907 C912 1.490 . S
C908 H898 0.930 . S
C908 C907 1.400 . S
C908 C911 1.386 . S
H909 C925 0.930 . S
H910 C926 0.931 . S
C911 H899 0.929 . S
C911 C905 1.390 . S
C911 C908 1.386 . S
C912 C907 1.490 . S
C912 C914 1.395 . S
C912 C915 1.403 . S
H913 C919 0.930 . S
C914 H900 0.930 . S
C914 C912 1.395 . S
C914 C917 1.403 1_556 S
C915 C912 1.403 . S
C915 C916 1.524 . S
C915 C919 1.400 1_556 S
C916 H901 0.960 . S
C916 H902 0.960 . S
C916 H903 0.960 . S
C916 C915 1.524 . S
C917 C914 1.403 1_554 S
C917 C918 1.392 . S
C917 C921 1.495 . S
C918 C917 1.392 . S
C918 C919 1.385 . S
C918 C920 1.478 . S
C919 H913 0.930 . S
C919 C915 1.400 1_554 S
C919 C918 1.385 . S
C920 C918 1.478 . S
C920 C922 1.381 . S
C920 C926 1.383 . S
C921 C917 1.495 . S
C921 H927 0.959 . S
C921 H928 0.961 . S
C921 H929 0.960 . S
C922 C920 1.381 . S
C922 C923 1.394 . S
C922 H930 0.930 . S
C923 C922 1.394 . S
C923 C924 1.383 . S
C923 H931 0.929 . S
C924 C923 1.383 . S
C924 C925 1.377 . S
C925 H909 0.930 . S
C925 C924 1.377 . S
C925 C926 1.379 . S
C926 H910 0.931 . S
C926 C920 1.383 . S
C926 C925 1.379 . S
H927 C921 0.959 . S
H928 C921 0.961 . S
H929 C921 0.960 . S
H930 C922 0.930 . S
H931 C923 0.929 . S
H932 C940 0.929 . S
H933 C942 0.930 . S
H934 C944 0.930 . S
H935 C947 0.929 . S
H936 C950 0.930 . S
H937 C952 0.960 . S
H938 C952 0.960 . S
H939 C952 0.960 . S
C940 H932 0.929 . S
C940 C941 1.377 . S
C940 C942 1.384 . S
C941 C940 1.377 . S
C941 C947 1.390 . S
C942 H933 0.930 . S
C942 C940 1.384 . S
C942 C943 1.372 . S
C943 C942 1.372 . S
C943 C944 1.400 . S
C943 C948 1.490 . S
C944 H934 0.930 . S
C944 C943 1.400 . S
C944 C947 1.386 . S
H945 C961 0.930 . S
H946 C962 0.931 . S
C947 H935 0.929 . S
C947 C941 1.390 . S
C947 C944 1.386 . S
C948 C943 1.490 . S
C948 C950 1.395 . S
C948 C951 1.403 . S
H949 C955 0.930 . S
C950 H936 0.930 . S
C950 C948 1.395 . S
C950 C953 1.403 1_556 S
C951 C948 1.403 . S
C951 C952 1.524 . S
C951 C955 1.400 1_556 S
C952 H937 0.960 . S
C952 H938 0.960 . S
C952 H939 0.960 . S
C952 C951 1.524 . S
C953 C950 1.403 1_554 S
C953 C954 1.392 . S
C953 C957 1.495 . S
C954 C953 1.392 . S
C954 C955 1.385 . S
C954 C956 1.478 . S
C955 H949 0.930 . S
C955 C951 1.400 1_554 S
C955 C954 1.385 . S
C956 C954 1.478 . S
C956 C958 1.381 . S
C956 C962 1.383 . S
C957 C953 1.495 . S
C957 H963 0.959 1_565 S
C957 H964 0.961 1_565 S
C957 H965 0.960 . S
C958 C956 1.381 . S
C958 C959 1.394 . S
C958 H966 0.930 . S
C959 C958 1.394 . S
C959 C960 1.383 . S
C959 H967 0.929 . S
C960 C959 1.383 . S
C960 C961 1.377 . S
C961 H945 0.930 . S
C961 C960 1.377 . S
C961 C962 1.379 . S
C962 H946 0.931 . S
C962 C956 1.383 . S
C962 C961 1.379 . S
H963 C957 0.959 1_545 S
H964 C957 0.961 1_545 S
H965 C957 0.960 . S
H966 C958 0.930 . S
H967 C959 0.929 . S
H968 C976 0.929 . S
H969 C978 0.930 . S
H970 C980 0.930 . S
H971 C983 0.929 . S
H972 C986 0.930 . S
H973 C988 0.960 . S
H974 C988 0.960 . S
H975 C988 0.960 . S
C976 H968 0.929 . S
C976 C977 1.377 . S
C976 C978 1.384 . S
C977 C976 1.377 . S
C977 C983 1.390 . S
C978 H969 0.930 . S
C978 C976 1.384 . S
C978 C979 1.372 . S
C979 C978 1.372 . S
C979 C980 1.400 . S
C979 C984 1.490 . S
C980 H970 0.930 . S
C980 C979 1.400 . S
C980 C983 1.386 . S
H981 C997 0.930 . S
H982 C998 0.931 . S
C983 H971 0.929 . S
C983 C977 1.390 . S
C983 C980 1.386 . S
C984 C979 1.490 . S
C984 C986 1.395 . S
C984 C987 1.403 . S
H985 C991 0.930 . S
C986 H972 0.930 . S
C986 C984 1.395 . S
C986 C989 1.403 . S
C987 C984 1.403 . S
C987 C988 1.524 . S
C987 C991 1.400 . S
C988 H973 0.960 . S
C988 H974 0.960 . S
C988 H975 0.960 . S
C988 C987 1.524 . S
C989 C986 1.403 . S
C989 C990 1.392 . S
C989 C993 1.495 . S
C990 C989 1.392 . S
C990 C991 1.385 . S
C990 C992 1.478 . S
C991 H985 0.930 . S
C991 C987 1.400 . S
C991 C990 1.385 . S
C992 C990 1.478 . S
C992 C994 1.381 . S
C992 C998 1.383 . S
C993 C989 1.495 . S
C993 H999 0.959 1_565 S
C993 H1000 0.961 1_565 S
C993 H1001 0.960 . S
C994 C992 1.381 . S
C994 C995 1.394 . S
C994 H1002 0.930 . S
C995 C994 1.394 . S
C995 C996 1.383 . S
C995 H1003 0.929 . S
C996 C995 1.383 . S
C996 C997 1.377 . S
C997 H981 0.930 . S
C997 C996 1.377 . S
C997 C998 1.379 . S
C998 H982 0.931 . S
C998 C992 1.383 . S
C998 C997 1.379 . S
H999 C993 0.959 1_545 S
H1000 C993 0.961 1_545 S
H1001 C993 0.960 . S
H1002 C994 0.930 . S
H1003 C995 0.929 . S
H1004 C1012 0.929 . S
H1005 C1014 0.930 . S
H1006 C1016 0.930 . S
H1007 C1019 0.929 . S
H1008 C1022 0.930 . S
H1009 C1024 0.960 . S
H1010 C1024 0.960 . S
H1011 C1024 0.960 . S
C1012 H1004 0.929 . S
C1012 C1013 1.377 . S
C1012 C1014 1.384 . S
C1013 C1012 1.377 . S
C1013 C1019 1.390 . S
C1014 H1005 0.930 . S
C1014 C1012 1.384 . S
C1014 C1015 1.372 . S
C1015 C1014 1.372 . S
C1015 C1016 1.400 . S
C1015 C1020 1.490 . S
C1016 H1006 0.930 . S
C1016 C1015 1.400 . S
C1016 C1019 1.386 . S
H1017 C1033 0.930 . S
H1018 C1034 0.931 . S
C1019 H1007 0.929 . S
C1019 C1013 1.390 . S
C1019 C1016 1.386 . S
C1020 C1015 1.490 . S
C1020 C1022 1.395 . S
C1020 C1023 1.403 . S
H1021 C1027 0.930 . S
C1022 H1008 0.930 . S
C1022 C1020 1.395 . S
C1022 C1025 1.403 . S
C1023 C1020 1.403 . S
C1023 C1024 1.524 . S
C1023 C1027 1.400 . S
C1024 H1009 0.960 . S
C1024 H1010 0.960 . S
C1024 H1011 0.960 . S
C1024 C1023 1.524 . S
C1025 C1022 1.403 . S
C1025 C1026 1.392 . S
C1025 C1029 1.495 . S
C1026 C1025 1.392 . S
C1026 C1027 1.385 . S
C1026 C1028 1.478 . S
C1027 H1021 0.930 . S
C1027 C1023 1.400 . S
C1027 C1026 1.385 . S
C1028 C1026 1.478 . S
C1028 C1030 1.381 . S
C1028 C1034 1.383 . S
C1029 C1025 1.495 . S
C1029 H1035 0.959 . S
C1029 H1036 0.961 . S
C1029 H1037 0.960 . S
C1030 C1028 1.381 . S
C1030 C1031 1.394 . S
C1030 H1038 0.930 . S
C1031 C1030 1.394 . S
C1031 C1032 1.383 . S
C1031 H1039 0.929 . S
C1032 C1031 1.383 . S
C1032 C1033 1.377 . S
C1033 H1017 0.930 . S
C1033 C1032 1.377 . S
C1033 C1034 1.379 . S
C1034 H1018 0.931 . S
C1034 C1028 1.383 . S
C1034 C1033 1.379 . S
H1035 C1029 0.959 . S
H1036 C1029 0.961 . S
H1037 C1029 0.960 . S
H1038 C1030 0.930 . S
H1039 C1031 0.929 . S
H1040 C1048 0.929 . S
H1041 C1050 0.930 . S
H1042 C1052 0.930 . S
H1043 C1055 0.929 . S
H1044 C1058 0.930 . S
H1045 C1060 0.960 . S
H1046 C1060 0.960 . S
H1047 C1060 0.960 . S
C1048 H1040 0.929 . S
C1048 C1049 1.377 . S
C1048 C1050 1.384 . S
C1049 C1048 1.377 . S
C1049 C1055 1.390 . S
C1050 H1041 0.930 . S
C1050 C1048 1.384 . S
C1050 C1051 1.372 . S
C1051 C1050 1.372 . S
C1051 C1052 1.400 . S
C1051 C1056 1.490 . S
C1052 H1042 0.930 . S
C1052 C1051 1.400 . S
C1052 C1055 1.386 . S
H1053 C1069 0.930 . S
H1054 C1070 0.931 . S
C1055 H1043 0.929 . S
C1055 C1049 1.390 . S
C1055 C1052 1.386 . S
C1056 C1051 1.490 . S
C1056 C1058 1.395 . S
C1056 C1059 1.403 . S
H1057 C1063 0.930 . S
C1058 H1044 0.930 . S
C1058 C1056 1.395 . S
C1058 C1061 1.403 1_554 S
C1059 C1056 1.403 . S
C1059 C1060 1.524 . S
C1059 C1063 1.400 1_554 S
C1060 H1045 0.960 . S
C1060 H1046 0.960 . S
C1060 H1047 0.960 . S
C1060 C1059 1.524 . S
C1061 C1058 1.403 1_556 S
C1061 C1062 1.392 . S
C1061 C1065 1.495 . S
C1062 C1061 1.392 . S
C1062 C1063 1.385 . S
C1062 C1064 1.478 . S
C1063 H1057 0.930 . S
C1063 C1059 1.400 1_556 S
C1063 C1062 1.385 . S
C1064 C1062 1.478 . S
C1064 C1066 1.381 . S
C1064 C1070 1.383 . S
C1065 C1061 1.495 . S
C1065 H1071 0.959 . S
C1065 H1072 0.961 . S
C1065 H1073 0.960 . S
C1066 C1064 1.381 . S
C1066 C1067 1.394 . S
C1066 H1074 0.930 . S
C1067 C1066 1.394 . S
C1067 C1068 1.383 . S
C1067 H1075 0.929 . S
C1068 C1067 1.383 . S
C1068 C1069 1.377 . S
C1069 H1053 0.930 . S
C1069 C1068 1.377 . S
C1069 C1070 1.379 . S
C1070 H1054 0.931 . S
C1070 C1064 1.383 . S
C1070 C1069 1.379 . S
H1071 C1065 0.959 . S
H1072 C1065 0.961 . S
H1073 C1065 0.960 . S
H1074 C1066 0.930 . S
H1075 C1067 0.929 . S
H1076 C1084 0.929 . S
H1077 C1086 0.930 . S
H1078 C1088 0.930 . S
H1079 C1091 0.929 . S
H1080 C1094 0.930 . S
H1081 C1096 0.960 . S
H1082 C1096 0.960 . S
H1083 C1096 0.960 . S
C1084 H1076 0.929 . S
C1084 C1085 1.377 . S
C1084 C1086 1.384 . S
C1085 C1084 1.377 . S
C1085 C1091 1.390 . S
C1086 H1077 0.930 . S
C1086 C1084 1.384 . S
C1086 C1087 1.372 . S
C1087 C1086 1.372 . S
C1087 C1088 1.400 . S
C1087 C1092 1.490 . S
C1088 H1078 0.930 . S
C1088 C1087 1.400 . S
C1088 C1091 1.386 . S
H1089 C1105 0.930 . S
H1090 C1106 0.931 . S
C1091 H1079 0.929 . S
C1091 C1085 1.390 . S
C1091 C1088 1.386 . S
C1092 C1087 1.490 . S
C1092 C1094 1.395 . S
C1092 C1095 1.403 . S
H1093 C1099 0.930 . S
C1094 H1080 0.930 . S
C1094 C1092 1.395 . S
C1094 C1097 1.403 1_556 S
C1095 C1092 1.403 . S
C1095 C1096 1.524 . S
C1095 C1099 1.400 1_556 S
C1096 H1081 0.960 . S
C1096 H1082 0.960 . S
C1096 H1083 0.960 . S
C1096 C1095 1.524 . S
C1097 C1094 1.403 1_554 S
C1097 C1098 1.392 . S
C1097 C1101 1.495 . S
C1098 C1097 1.392 . S
C1098 C1099 1.385 . S
C1098 C1100 1.478 . S
C1099 H1093 0.930 . S
C1099 C1095 1.400 1_554 S
C1099 C1098 1.385 . S
C1100 C1098 1.478 . S
C1100 C1102 1.381 . S
C1100 C1106 1.383 . S
C1101 C1097 1.495 . S
C1101 H1107 0.959 . S
C1101 H1108 0.961 . S
C1101 H1109 0.960 . S
C1102 C1100 1.381 . S
C1102 C1103 1.394 . S
C1102 H1110 0.930 . S
C1103 C1102 1.394 . S
C1103 C1104 1.383 . S
C1103 H1111 0.929 . S
C1104 C1103 1.383 . S
C1104 C1105 1.377 . S
C1105 H1089 0.930 . S
C1105 C1104 1.377 . S
C1105 C1106 1.379 . S
C1106 H1090 0.931 . S
C1106 C1100 1.383 . S
C1106 C1105 1.379 . S
H1107 C1101 0.959 . S
H1108 C1101 0.961 . S
H1109 C1101 0.960 . S
H1110 C1102 0.930 . S
H1111 C1103 0.929 . S
H1112 C1120 0.929 . S
H1113 C1122 0.930 . S
H1114 C1124 0.930 . S
H1115 C1127 0.929 . S
H1116 C1130 0.930 . S
H1117 C1132 0.960 . S
H1118 C1132 0.960 . S
H1119 C1132 0.960 . S
C1120 H1112 0.929 . S
C1120 C1121 1.377 . S
C1120 C1122 1.384 . S
C1121 C1120 1.377 . S
C1121 C1127 1.390 . S
C1122 H1113 0.930 . S
C1122 C1120 1.384 . S
C1122 C1123 1.372 . S
C1123 C1122 1.372 . S
C1123 C1124 1.400 . S
C1123 C1128 1.490 . S
C1124 H1114 0.930 . S
C1124 C1123 1.400 . S
C1124 C1127 1.386 . S
H1125 C1141 0.930 . S
H1126 C1142 0.931 . S
C1127 H1115 0.929 . S
C1127 C1121 1.390 . S
C1127 C1124 1.386 . S
C1128 C1123 1.490 . S
C1128 C1130 1.395 . S
C1128 C1131 1.403 . S
H1129 C1135 0.930 . S
C1130 H1116 0.930 . S
C1130 C1128 1.395 . S
C1130 C1133 1.403 . S
C1131 C1128 1.403 . S
C1131 C1132 1.524 . S
C1131 C1135 1.400 . S
C1132 H1117 0.960 . S
C1132 H1118 0.960 . S
C1132 H1119 0.960 . S
C1132 C1131 1.524 . S
C1133 C1130 1.403 . S
C1133 C1134 1.392 . S
C1133 C1137 1.495 . S
C1134 C1133 1.392 . S
C1134 C1135 1.385 . S
C1134 C1136 1.478 . S
C1135 H1129 0.930 . S
C1135 C1131 1.400 . S
C1135 C1134 1.385 . S
C1136 C1134 1.478 . S
C1136 C1138 1.381 . S
C1136 C1142 1.383 . S
C1137 C1133 1.495 . S
C1137 H1143 0.959 . S
C1137 H1144 0.961 . S
C1137 H1145 0.960 . S
C1138 C1136 1.381 . S
C1138 C1139 1.394 . S
C1138 H1146 0.930 . S
C1139 C1138 1.394 . S
C1139 C1140 1.383 . S
C1139 H1147 0.929 . S
C1140 C1139 1.383 . S
C1140 C1141 1.377 . S
C1141 H1125 0.930 . S
C1141 C1140 1.377 . S
C1141 C1142 1.379 . S
C1142 H1126 0.931 . S
C1142 C1136 1.383 . S
C1142 C1141 1.379 . S
H1143 C1137 0.959 . S
H1144 C1137 0.961 . S
H1145 C1137 0.960 . S
H1146 C1138 0.930 . S
H1147 C1139 0.929 . S
H1148 C1156 0.929 . S
H1149 C1158 0.930 . S
H1150 C1160 0.930 . S
H1151 C1163 0.929 . S
H1152 C1166 0.930 . S
H1153 C1168 0.960 . S
H1154 C1168 0.960 . S
H1155 C1168 0.960 . S
C1156 H1148 0.929 . S
C1156 C1157 1.377 . S
C1156 C1158 1.384 . S
C1157 C1156 1.377 . S
C1157 C1163 1.390 . S
C1158 H1149 0.930 . S
C1158 C1156 1.384 . S
C1158 C1159 1.372 . S
C1159 C1158 1.372 . S
C1159 C1160 1.400 . S
C1159 C1164 1.490 . S
C1160 H1150 0.930 . S
C1160 C1159 1.400 . S
C1160 C1163 1.386 . S
H1161 C1177 0.930 . S
H1162 C1178 0.931 . S
C1163 H1151 0.929 . S
C1163 C1157 1.390 . S
C1163 C1160 1.386 . S
C1164 C1159 1.490 . S
C1164 C1166 1.395 . S
C1164 C1167 1.403 . S
H1165 C1171 0.930 . S
C1166 H1152 0.930 . S
C1166 C1164 1.395 . S
C1166 C1169 1.403 . S
C1167 C1164 1.403 . S
C1167 C1168 1.524 . S
C1167 C1171 1.400 . S
C1168 H1153 0.960 . S
C1168 H1154 0.960 . S
C1168 H1155 0.960 . S
C1168 C1167 1.524 . S
C1169 C1166 1.403 . S
C1169 C1170 1.392 . S
C1169 C1173 1.495 . S
C1170 C1169 1.392 . S
C1170 C1171 1.385 . S
C1170 C1172 1.478 . S
C1171 H1165 0.930 . S
C1171 C1167 1.400 . S
C1171 C1170 1.385 . S
C1172 C1170 1.478 . S
C1172 C1174 1.381 . S
C1172 C1178 1.383 . S
C1173 C1169 1.495 . S
C1173 H1179 0.959 . S
C1173 H1180 0.961 . S
C1173 H1181 0.960 . S
C1174 C1172 1.381 . S
C1174 C1175 1.394 . S
C1174 H1182 0.930 . S
C1175 C1174 1.394 . S
C1175 C1176 1.383 . S
C1175 H1183 0.929 . S
C1176 C1175 1.383 . S
C1176 C1177 1.377 . S
C1177 H1161 0.930 . S
C1177 C1176 1.377 . S
C1177 C1178 1.379 . S
C1178 H1162 0.931 . S
C1178 C1172 1.383 . S
C1178 C1177 1.379 . S
H1179 C1173 0.959 . S
H1180 C1173 0.961 . S
H1181 C1173 0.960 . S
H1182 C1174 0.930 . S
H1183 C1175 0.929 . S
H1184 C1192 0.929 . S
H1185 C1194 0.930 . S
H1186 C1196 0.932 . S
H1187 C1199 0.929 . S
H1188 C1202 0.930 . S
H1189 C1204 0.960 . S
H1190 C1204 0.960 . S
H1191 C1204 0.960 . S
C1192 H1184 0.929 . S
C1192 C1193 1.377 . S
C1192 C1194 1.384 . S
C1193 C1192 1.377 . S
C1193 C1199 1.390 . S
C1194 H1185 0.930 . S
C1194 C1192 1.384 . S
C1194 C1195 1.372 . S
C1195 C1194 1.372 . S
C1195 C1196 1.400 . S
C1195 C1200 1.490 . S
C1196 H1186 0.932 . S
C1196 C1195 1.400 . S
C1196 C1199 1.386 . S
H1197 C1213 0.930 . S
H1198 C1214 0.931 . S
C1199 H1187 0.929 . S
C1199 C1193 1.390 . S
C1199 C1196 1.386 . S
C1200 C1195 1.490 . S
C1200 C1202 1.395 1_565 S
C1200 C1203 1.403 . S
H1201 C1207 0.930 . S
C1202 H1188 0.930 . S
C1202 C1200 1.395 1_545 S
C1202 C1205 1.403 1_655 S
C1203 C1200 1.403 . S
C1203 C1204 1.524 . S
C1203 C1207 1.400 1_655 S
C1204 H1189 0.960 . S
C1204 H1190 0.960 . S
C1204 H1191 0.960 . S
C1204 C1203 1.524 . S
C1205 C1202 1.403 1_455 S
C1205 C1206 1.392 . S
C1205 C1209 1.495 . S
C1206 C1205 1.392 . S
C1206 C1207 1.385 1_545 S
C1206 C1208 1.478 . S
C1207 H1201 0.930 . S
C1207 C1203 1.400 1_455 S
C1207 C1206 1.385 1_565 S
C1208 C1206 1.478 . S
C1208 C1210 1.381 . S
C1208 C1214 1.383 . S
C1209 C1205 1.495 . S
C1209 H1215 0.959 . S
C1209 H1216 0.961 . S
C1209 H1217 0.960 . S
C1210 C1208 1.381 . S
C1210 C1211 1.394 . S
C1210 H1218 0.930 1_545 S
C1211 C1210 1.394 . S
C1211 C1212 1.383 . S
C1211 H1219 0.929 . S
C1212 C1211 1.383 . S
C1212 C1213 1.377 . S
C1213 H1197 0.930 . S
C1213 C1212 1.377 . S
C1213 C1214 1.379 . S
C1214 H1198 0.931 . S
C1214 C1208 1.383 . S
C1214 C1213 1.379 . S
H1215 C1209 0.959 . S
H1216 C1209 0.961 . S
H1217 C1209 0.960 . S
H1218 C1210 0.930 1_565 S
H1219 C1211 0.929 . S
H1220 C1228 0.929 . S
H1221 C1230 0.930 . S
H1222 C1232 0.930 . S
H1223 C1235 0.929 . S
H1224 C1238 0.930 . S
H1225 C1240 0.960 . S
H1226 C1240 0.960 . S
H1227 C1240 0.960 . S
C1228 H1220 0.929 . S
C1228 C1229 1.377 1_565 S
C1228 C1230 1.384 . S
C1229 C1228 1.377 1_545 S
C1229 C1235 1.390 . S
C1230 H1221 0.930 . S
C1230 C1228 1.384 . S
C1230 C1231 1.372 1_565 S
C1231 C1230 1.372 1_545 S
C1231 C1232 1.400 . S
C1231 C1236 1.490 . S
C1232 H1222 0.930 . S
C1232 C1231 1.400 . S
C1232 C1235 1.386 . S
H1233 C1249 0.930 . S
H1234 C1250 0.931 . S
C1235 H1223 0.929 . S
C1235 C1229 1.390 . S
C1235 C1232 1.386 . S
C1236 C1231 1.490 . S
C1236 C1238 1.395 1_545 S
C1236 C1239 1.403 . S
H1237 C1243 0.930 . S
C1238 H1224 0.930 . S
C1238 C1236 1.395 1_565 S
C1238 C1241 1.403 1_655 S
C1239 C1236 1.403 . S
C1239 C1240 1.524 . S
C1239 C1243 1.400 1_655 S
C1240 H1225 0.960 . S
C1240 H1226 0.960 . S
C1240 H1227 0.960 . S
C1240 C1239 1.524 . S
C1241 C1238 1.403 1_455 S
C1241 C1242 1.392 . S
C1241 C1245 1.495 . S
C1242 C1241 1.392 . S
C1242 C1243 1.385 1_565 S
C1242 C1244 1.478 . S
C1243 H1237 0.930 . S
C1243 C1239 1.400 1_455 S
C1243 C1242 1.385 1_545 S
C1244 C1242 1.478 . S
C1244 C1246 1.381 . S
C1244 C1250 1.383 1_565 S
C1245 C1241 1.495 . S
C1245 H1251 0.959 . S
C1245 H1252 0.961 . S
C1245 H1253 0.960 . S
C1246 C1244 1.381 . S
C1246 C1247 1.394 . S
C1246 H1254 0.930 . S
C1247 C1246 1.394 . S
C1247 C1248 1.383 . S
C1247 H1255 0.929 . S
C1248 C1247 1.383 . S
C1248 C1249 1.377 1_565 S
C1249 H1233 0.930 . S
C1249 C1248 1.377 1_545 S
C1249 C1250 1.379 . S
C1250 H1234 0.931 . S
C1250 C1244 1.383 1_545 S
C1250 C1249 1.379 . S
H1251 C1245 0.959 . S
H1252 C1245 0.961 . S
H1253 C1245 0.960 . S
H1254 C1246 0.930 . S
H1255 C1247 0.929 . S
H1256 C1264 0.929 . S
H1257 C1266 0.930 . S
H1258 C1268 0.930 . S
H1259 C1271 0.929 . S
H1260 C1274 0.930 . S
H1261 C1276 0.960 . S
H1262 C1276 0.960 1_565 S
H1263 C1276 0.960 . S
C1264 H1256 0.929 . S
C1264 C1265 1.377 1_565 S
C1264 C1266 1.384 . S
C1265 C1264 1.377 1_545 S
C1265 C1271 1.390 . S
C1266 H1257 0.930 . S
C1266 C1264 1.384 . S
C1266 C1267 1.372 1_565 S
C1267 C1266 1.372 1_545 S
C1267 C1268 1.400 . S
C1267 C1272 1.490 . S
C1268 H1258 0.930 . S
C1268 C1267 1.400 . S
C1268 C1271 1.386 . S
H1269 C1285 0.930 . S
H1270 C1286 0.931 . S
C1271 H1259 0.929 . S
C1271 C1265 1.390 . S
C1271 C1268 1.386 . S
C1272 C1267 1.490 . S
C1272 C1274 1.395 1_545 S
C1272 C1275 1.403 . S
H1273 C1279 0.930 . S
C1274 H1260 0.930 . S
C1274 C1272 1.395 1_565 S
C1274 C1277 1.403 1_455 S
C1275 C1272 1.403 . S
C1275 C1276 1.524 . S
C1275 C1279 1.400 1_445 S
C1276 H1261 0.960 . S
C1276 H1262 0.960 1_545 S
C1276 H1263 0.960 . S
C1276 C1275 1.524 . S
C1277 C1274 1.403 1_655 S
C1277 C1278 1.392 . S
C1277 C1281 1.495 . S
C1278 C1277 1.392 . S
C1278 C1279 1.385 . S
C1278 C1280 1.478 . S
C1279 H1273 0.930 . S
C1279 C1275 1.400 1_665 S
C1279 C1278 1.385 . S
C1280 C1278 1.478 . S
C1280 C1282 1.381 . S
C1280 C1286 1.383 1_565 S
C1281 C1277 1.495 . S
C1281 H1287 0.959 . S
C1281 H1288 0.961 1_565 S
C1281 H1289 0.960 . S
C1282 C1280 1.381 . S
C1282 C1283 1.394 . S
C1282 H1290 0.930 . S
C1283 C1282 1.394 . S
C1283 C1284 1.383 . S
C1283 H1291 0.929 . S
C1284 C1283 1.383 . S
C1284 C1285 1.377 1_565 S
C1285 H1269 0.930 . S
C1285 C1284 1.377 1_545 S
C1285 C1286 1.379 . S
C1286 H1270 0.931 . S
C1286 C1280 1.383 1_545 S
C1286 C1285 1.379 . S
H1287 C1281 0.959 . S
H1288 C1281 0.961 1_545 S
H1289 C1281 0.960 . S
H1290 C1282 0.930 . S
H1291 C1283 0.929 . S
H1292 C1300 0.929 . S
H1293 C1302 0.930 . S
H1294 C1304 0.930 . S
H1295 C1307 0.929 . S
H1296 C1310 0.930 . S
H1297 C1312 0.960 . S
H1298 C1312 0.960 . S
H1299 C1312 0.960 . S
C1300 H1292 0.929 . S
C1300 C1301 1.377 1_565 S
C1300 C1302 1.384 . S
C1301 C1300 1.377 1_545 S
C1301 C1307 1.390 . S
C1302 H1293 0.930 . S
C1302 C1300 1.384 . S
C1302 C1303 1.372 1_565 S
C1303 C1302 1.372 1_545 S
C1303 C1304 1.400 . S
C1303 C1308 1.490 . S
C1304 H1294 0.930 . S
C1304 C1303 1.400 . S
C1304 C1307 1.386 . S
H1305 C1321 0.930 . S
H1306 C1322 0.931 . S
C1307 H1295 0.929 . S
C1307 C1301 1.390 . S
C1307 C1304 1.386 . S
C1308 C1303 1.490 . S
C1308 C1310 1.395 1_545 S
C1308 C1311 1.403 . S
H1309 C1315 0.930 . S
C1310 H1296 0.930 . S
C1310 C1308 1.395 1_565 S
C1310 C1313 1.403 1_655 S
C1311 C1308 1.403 . S
C1311 C1312 1.524 . S
C1311 C1315 1.400 1_655 S
C1312 H1297 0.960 . S
C1312 H1298 0.960 . S
C1312 H1299 0.960 . S
C1312 C1311 1.524 . S
C1313 C1310 1.403 1_455 S
C1313 C1314 1.392 . S
C1313 C1317 1.495 . S
C1314 C1313 1.392 . S
C1314 C1315 1.385 1_565 S
C1314 C1316 1.478 . S
C1315 H1309 0.930 . S
C1315 C1311 1.400 1_455 S
C1315 C1314 1.385 1_545 S
C1316 C1314 1.478 . S
C1316 C1318 1.381 . S
C1316 C1322 1.383 1_565 S
C1317 C1313 1.495 . S
C1317 H1323 0.959 . S
C1317 H1324 0.961 . S
C1317 H1325 0.960 . S
C1318 C1316 1.381 . S
C1318 C1319 1.394 . S
C1318 H1326 0.930 . S
C1319 C1318 1.394 . S
C1319 C1320 1.383 . S
C1319 H1327 0.929 . S
C1320 C1319 1.383 . S
C1320 C1321 1.377 1_565 S
C1321 H1305 0.930 . S
C1321 C1320 1.377 1_545 S
C1321 C1322 1.379 . S
C1322 H1306 0.931 . S
C1322 C1316 1.383 1_545 S
C1322 C1321 1.379 . S
H1323 C1317 0.959 . S
H1324 C1317 0.961 . S
H1325 C1317 0.960 . S
H1326 C1318 0.930 . S
H1327 C1319 0.929 . S
H1328 C1336 0.929 . S
H1329 C1338 0.930 . S
H1330 C1340 0.930 . S
H1331 C1343 0.929 . S
H1332 C1346 0.930 . S
H1333 C1348 0.960 . S
H1334 C1348 0.960 . S
H1335 C1348 0.960 . S
C1336 H1328 0.929 . S
C1336 C1337 1.377 . S
C1336 C1338 1.384 . S
C1337 C1336 1.377 . S
C1337 C1343 1.390 . S
C1338 H1329 0.930 . S
C1338 C1336 1.384 . S
C1338 C1339 1.372 . S
C1339 C1338 1.372 . S
C1339 C1340 1.400 . S
C1339 C1344 1.490 . S
C1340 H1330 0.930 . S
C1340 C1339 1.400 . S
C1340 C1343 1.386 . S
H1341 C1357 0.930 . S
H1342 C1358 0.931 . S
C1343 H1331 0.929 . S
C1343 C1337 1.390 . S
C1343 C1340 1.386 . S
C1344 C1339 1.490 . S
C1344 C1346 1.395 . S
C1344 C1347 1.403 . S
H1345 C1351 0.930 . S
C1346 H1332 0.930 . S
C1346 C1344 1.395 . S
C1346 C1349 1.403 . S
C1347 C1344 1.403 . S
C1347 C1348 1.524 . S
C1347 C1351 1.400 . S
C1348 H1333 0.960 . S
C1348 H1334 0.960 . S
C1348 H1335 0.960 . S
C1348 C1347 1.524 . S
C1349 C1346 1.403 . S
C1349 C1350 1.392 . S
C1349 C1353 1.495 . S
C1350 C1349 1.392 . S
C1350 C1351 1.385 . S
C1350 C1352 1.478 . S
C1351 H1345 0.930 . S
C1351 C1347 1.400 . S
C1351 C1350 1.385 . S
C1352 C1350 1.478 . S
C1352 C1354 1.381 . S
C1352 C1358 1.383 . S
C1353 C1349 1.495 . S
C1353 H1359 0.959 . S
C1353 H1360 0.961 . S
C1353 H1361 0.960 . S
C1354 C1352 1.381 . S
C1354 C1355 1.394 . S
C1354 H1362 0.930 . S
C1355 C1354 1.394 . S
C1355 C1356 1.383 . S
C1355 H1363 0.929 . S
C1356 C1355 1.383 . S
C1356 C1357 1.377 . S
C1357 H1341 0.930 . S
C1357 C1356 1.377 . S
C1357 C1358 1.379 . S
C1358 H1342 0.931 . S
C1358 C1352 1.383 . S
C1358 C1357 1.379 . S
H1359 C1353 0.959 . S
H1360 C1353 0.961 . S
H1361 C1353 0.960 . S
H1362 C1354 0.930 . S
H1363 C1355 0.929 . S
H1364 C1372 0.929 . S
H1365 C1374 0.930 . S
H1366 C1376 0.930 . S
H1367 C1379 0.929 . S
H1368 C1382 0.930 . S
H1369 C1384 0.960 . S
H1370 C1384 0.960 . S
H1371 C1384 0.960 . S
C1372 H1364 0.929 . S
C1372 C1373 1.377 . S
C1372 C1374 1.384 . S
C1373 C1372 1.377 . S
C1373 C1379 1.390 . S
C1374 H1365 0.930 . S
C1374 C1372 1.384 . S
C1374 C1375 1.372 . S
C1375 C1374 1.372 . S
C1375 C1376 1.400 . S
C1375 C1380 1.490 . S
C1376 H1366 0.930 . S
C1376 C1375 1.400 . S
C1376 C1379 1.386 . S
H1377 C1393 0.930 . S
H1378 C1394 0.931 . S
C1379 H1367 0.929 . S
C1379 C1373 1.390 . S
C1379 C1376 1.386 . S
C1380 C1375 1.490 . S
C1380 C1382 1.395 . S
C1380 C1383 1.403 . S
H1381 C1387 0.930 . S
C1382 H1368 0.930 . S
C1382 C1380 1.395 . S
C1382 C1385 1.403 . S
C1383 C1380 1.403 . S
C1383 C1384 1.524 . S
C1383 C1387 1.400 . S
C1384 H1369 0.960 . S
C1384 H1370 0.960 . S
C1384 H1371 0.960 . S
C1384 C1383 1.524 . S
C1385 C1382 1.403 . S
C1385 C1386 1.392 . S
C1385 C1389 1.495 . S
C1386 C1385 1.392 . S
C1386 C1387 1.385 . S
C1386 C1388 1.478 . S
C1387 H1381 0.930 . S
C1387 C1383 1.400 . S
C1387 C1386 1.385 . S
C1388 C1386 1.478 . S
C1388 C1390 1.381 . S
C1388 C1394 1.383 . S
C1389 C1385 1.495 . S
C1389 H1395 0.959 . S
C1389 H1396 0.961 . S
C1389 H1397 0.960 . S
C1390 C1388 1.381 . S
C1390 C1391 1.394 . S
C1390 H1398 0.930 . S
C1391 C1390 1.394 . S
C1391 C1392 1.383 . S
C1391 H1399 0.929 . S
C1392 C1391 1.383 . S
C1392 C1393 1.377 . S
C1393 H1377 0.930 . S
C1393 C1392 1.377 . S
C1393 C1394 1.379 . S
C1394 H1378 0.931 . S
C1394 C1388 1.383 . S
C1394 C1393 1.379 . S
H1395 C1389 0.959 . S
H1396 C1389 0.961 . S
H1397 C1389 0.960 . S
H1398 C1390 0.930 . S
H1399 C1391 0.929 . S
H1400 C1408 0.929 . S
H1401 C1410 0.930 . S
H1402 C1412 0.930 . S
H1403 C1415 0.929 . S
H1404 C1418 0.930 . S
H1405 C1420 0.960 . S
H1406 C1420 0.960 . S
H1407 C1420 0.960 . S
C1408 H1400 0.929 . S
C1408 C1409 1.377 . S
C1408 C1410 1.384 . S
C1409 C1408 1.377 . S
C1409 C1415 1.390 . S
C1410 H1401 0.930 . S
C1410 C1408 1.384 . S
C1410 C1411 1.372 . S
C1411 C1410 1.372 . S
C1411 C1412 1.400 . S
C1411 C1416 1.490 . S
C1412 H1402 0.930 . S
C1412 C1411 1.400 . S
C1412 C1415 1.386 . S
H1413 C1429 0.930 . S
H1414 C1430 0.931 . S
C1415 H1403 0.929 . S
C1415 C1409 1.390 . S
C1415 C1412 1.386 . S
C1416 C1411 1.490 . S
C1416 C1418 1.395 . S
C1416 C1419 1.403 . S
H1417 C1423 0.930 . S
C1418 H1404 0.930 . S
C1418 C1416 1.395 . S
C1418 C1421 1.403 . S
C1419 C1416 1.403 . S
C1419 C1420 1.524 . S
C1419 C1423 1.400 . S
C1420 H1405 0.960 . S
C1420 H1406 0.960 . S
C1420 H1407 0.960 . S
C1420 C1419 1.524 . S
C1421 C1418 1.403 . S
C1421 C1422 1.392 . S
C1421 C1425 1.495 . S
C1422 C1421 1.392 . S
C1422 C1423 1.385 . S
C1422 C1424 1.478 . S
C1423 H1417 0.930 . S
C1423 C1419 1.400 . S
C1423 C1422 1.385 . S
C1424 C1422 1.478 . S
C1424 C1426 1.381 . S
C1424 C1430 1.383 . S
C1425 C1421 1.495 . S
C1425 H1431 0.959 . S
C1425 H1432 0.961 . S
C1425 H1433 0.960 . S
C1426 C1424 1.381 . S
C1426 C1427 1.394 . S
C1426 H1434 0.930 . S
C1427 C1426 1.394 . S
C1427 C1428 1.383 . S
C1427 H1435 0.929 . S
C1428 C1427 1.383 . S
C1428 C1429 1.377 . S
C1429 H1413 0.930 . S
C1429 C1428 1.377 . S
C1429 C1430 1.379 . S
C1430 H1414 0.931 . S
C1430 C1424 1.383 . S
C1430 C1429 1.379 . S
H1431 C1425 0.959 . S
H1432 C1425 0.961 . S
H1433 C1425 0.960 . S
H1434 C1426 0.930 . S
H1435 C1427 0.929 . S
H1436 C1444 0.929 . S
H1437 C1446 0.930 . S
H1438 C1448 0.930 . S
H1439 C1451 0.929 . S
H1440 C1454 0.930 . S
H1441 C1456 0.960 . S
H1442 C1456 0.960 . S
H1443 C1456 0.960 . S
C1444 H1436 0.929 . S
C1444 C1445 1.377 . S
C1444 C1446 1.384 . S
C1445 C1444 1.377 . S
C1445 C1451 1.390 . S
C1446 H1437 0.930 . S
C1446 C1444 1.384 . S
C1446 C1447 1.372 . S
C1447 C1446 1.372 . S
C1447 C1448 1.400 . S
C1447 C1452 1.490 . S
C1448 H1438 0.930 . S
C1448 C1447 1.400 . S
C1448 C1451 1.386 . S
H1449 C1465 0.930 . S
H1450 C1466 0.931 . S
C1451 H1439 0.929 . S
C1451 C1445 1.390 . S
C1451 C1448 1.386 . S
C1452 C1447 1.490 . S
C1452 C1454 1.395 . S
C1452 C1455 1.403 . S
H1453 C1459 0.930 . S
C1454 H1440 0.930 . S
C1454 C1452 1.395 . S
C1454 C1457 1.403 . S
C1455 C1452 1.403 . S
C1455 C1456 1.524 . S
C1455 C1459 1.400 . S
C1456 H1441 0.960 . S
C1456 H1442 0.960 . S
C1456 H1443 0.960 . S
C1456 C1455 1.524 . S
C1457 C1454 1.403 . S
C1457 C1458 1.392 . S
C1457 C1461 1.495 . S
C1458 C1457 1.392 . S
C1458 C1459 1.385 . S
C1458 C1460 1.478 . S
C1459 H1453 0.930 . S
C1459 C1455 1.400 . S
C1459 C1458 1.385 . S
C1460 C1458 1.478 . S
C1460 C1462 1.381 . S
C1460 C1466 1.383 . S
C1461 C1457 1.495 . S
C1461 H1467 0.959 . S
C1461 H1468 0.961 . S
C1461 H1469 0.960 . S
C1462 C1460 1.381 . S
C1462 C1463 1.394 . S
C1462 H1470 0.930 . S
C1463 C1462 1.394 . S
C1463 C1464 1.383 . S
C1463 H1471 0.929 . S
C1464 C1463 1.383 . S
C1464 C1465 1.377 . S
C1465 H1449 0.930 . S
C1465 C1464 1.377 . S
C1465 C1466 1.379 . S
C1466 H1450 0.931 . S
C1466 C1460 1.383 . S
C1466 C1465 1.379 . S
H1467 C1461 0.959 . S
H1468 C1461 0.961 . S
H1469 C1461 0.960 . S
H1470 C1462 0.930 . S
H1471 C1463 0.929 . S
H1472 C1480 0.929 . S
H1473 C1482 0.930 . S
H1474 C1484 0.930 . S
H1475 C1487 0.929 . S
H1476 C1490 0.930 . S
H1477 C1492 0.960 . S
H1478 C1492 0.960 . S
H1479 C1492 0.960 . S
C1480 H1472 0.929 . S
C1480 C1481 1.377 . S
C1480 C1482 1.384 . S
C1481 C1480 1.377 . S
C1481 C1487 1.390 . S
C1482 H1473 0.930 . S
C1482 C1480 1.384 . S
C1482 C1483 1.372 . S
C1483 C1482 1.372 . S
C1483 C1484 1.400 . S
C1483 C1488 1.490 . S
C1484 H1474 0.930 . S
C1484 C1483 1.400 . S
C1484 C1487 1.386 . S
H1485 C1501 0.930 . S
H1486 C1502 0.931 . S
C1487 H1475 0.929 . S
C1487 C1481 1.390 . S
C1487 C1484 1.386 . S
C1488 C1483 1.490 . S
C1488 C1490 1.395 . S
C1488 C1491 1.403 . S
H1489 C1495 0.930 . S
C1490 H1476 0.930 . S
C1490 C1488 1.395 . S
C1490 C1493 1.403 . S
C1491 C1488 1.403 . S
C1491 C1492 1.524 . S
C1491 C1495 1.400 . S
C1492 H1477 0.960 . S
C1492 H1478 0.960 . S
C1492 H1479 0.960 . S
C1492 C1491 1.524 . S
C1493 C1490 1.403 . S
C1493 C1494 1.392 . S
C1493 C1497 1.495 . S
C1494 C1493 1.392 . S
C1494 C1495 1.385 . S
C1494 C1496 1.478 . S
C1495 H1489 0.930 . S
C1495 C1491 1.400 . S
C1495 C1494 1.385 . S
C1496 C1494 1.478 . S
C1496 C1498 1.381 . S
C1496 C1502 1.383 . S
C1497 C1493 1.495 . S
C1497 H1503 0.959 . S
C1497 H1504 0.961 . S
C1497 H1505 0.960 . S
C1498 C1496 1.381 . S
C1498 C1499 1.394 . S
C1498 H1506 0.930 . S
C1499 C1498 1.394 . S
C1499 C1500 1.383 . S
C1499 H1507 0.929 . S
C1500 C1499 1.383 . S
C1500 C1501 1.377 . S
C1501 H1485 0.930 . S
C1501 C1500 1.377 . S
C1501 C1502 1.379 . S
C1502 H1486 0.931 . S
C1502 C1496 1.383 . S
C1502 C1501 1.379 . S
H1503 C1497 0.959 . S
H1504 C1497 0.961 . S
H1505 C1497 0.960 . S
H1506 C1498 0.930 . S
H1507 C1499 0.929 . S
H1508 C1516 0.929 . S
H1509 C1518 0.930 . S
H1510 C1520 0.930 . S
H1511 C1523 0.929 . S
H1512 C1526 0.930 . S
H1513 C1528 0.960 . S
H1514 C1528 0.960 . S
H1515 C1528 0.960 . S
C1516 H1508 0.929 . S
C1516 C1517 1.377 . S
C1516 C1518 1.384 . S
C1517 C1516 1.377 . S
C1517 C1523 1.390 . S
C1518 H1509 0.930 . S
C1518 C1516 1.384 . S
C1518 C1519 1.372 . S
C1519 C1518 1.372 . S
C1519 C1520 1.400 . S
C1519 C1524 1.490 . S
C1520 H1510 0.930 . S
C1520 C1519 1.400 . S
C1520 C1523 1.386 . S
H1521 C1537 0.930 . S
H1522 C1538 0.931 . S
C1523 H1511 0.929 . S
C1523 C1517 1.390 . S
C1523 C1520 1.386 . S
C1524 C1519 1.490 . S
C1524 C1526 1.395 . S
C1524 C1527 1.403 . S
H1525 C1531 0.930 . S
C1526 H1512 0.930 . S
C1526 C1524 1.395 . S
C1526 C1529 1.403 . S
C1527 C1524 1.403 . S
C1527 C1528 1.524 . S
C1527 C1531 1.400 . S
C1528 H1513 0.960 . S
C1528 H1514 0.960 . S
C1528 H1515 0.960 . S
C1528 C1527 1.524 . S
C1529 C1526 1.403 . S
C1529 C1530 1.392 . S
C1529 C1533 1.495 . S
C1530 C1529 1.392 . S
C1530 C1531 1.385 . S
C1530 C1532 1.478 . S
C1531 H1525 0.930 . S
C1531 C1527 1.400 . S
C1531 C1530 1.385 . S
C1532 C1530 1.478 . S
C1532 C1534 1.381 . S
C1532 C1538 1.383 . S
C1533 C1529 1.495 . S
C1533 H1539 0.959 . S
C1533 H1540 0.961 . S
C1533 H1541 0.960 . S
C1534 C1532 1.381 . S
C1534 C1535 1.394 . S
C1534 H1542 0.930 . S
C1535 C1534 1.394 . S
C1535 C1536 1.383 . S
C1535 H1543 0.929 . S
C1536 C1535 1.383 . S
C1536 C1537 1.377 . S
C1537 H1521 0.930 . S
C1537 C1536 1.377 . S
C1537 C1538 1.379 . S
C1538 H1522 0.931 . S
C1538 C1532 1.383 . S
C1538 C1537 1.379 . S
H1539 C1533 0.959 . S
H1540 C1533 0.961 . S
H1541 C1533 0.960 . S
H1542 C1534 0.930 . S
H1543 C1535 0.929 . S
H1544 C1552 0.929 . S
H1545 C1554 0.930 . S
H1546 C1556 0.930 . S
H1547 C1559 0.929 . S
H1548 C1562 0.930 . S
H1549 C1564 0.960 . S
H1550 C1564 0.960 . S
H1551 C1564 0.960 . S
C1552 H1544 0.929 . S
C1552 C1553 1.377 . S
C1552 C1554 1.384 . S
C1553 C1552 1.377 . S
C1553 C1559 1.390 . S
C1554 H1545 0.930 . S
C1554 C1552 1.384 . S
C1554 C1555 1.372 . S
C1555 C1554 1.372 . S
C1555 C1556 1.400 . S
C1555 C1560 1.490 . S
C1556 H1546 0.930 . S
C1556 C1555 1.400 . S
C1556 C1559 1.386 . S
H1557 C1573 0.930 . S
H1558 C1574 0.931 . S
C1559 H1547 0.929 . S
C1559 C1553 1.390 . S
C1559 C1556 1.386 . S
C1560 C1555 1.490 . S
C1560 C1562 1.395 . S
C1560 C1563 1.403 . S
H1561 C1567 0.930 . S
C1562 H1548 0.930 . S
C1562 C1560 1.395 . S
C1562 C1565 1.403 . S
C1563 C1560 1.403 . S
C1563 C1564 1.524 . S
C1563 C1567 1.400 . S
C1564 H1549 0.960 . S
C1564 H1550 0.960 . S
C1564 H1551 0.960 . S
C1564 C1563 1.524 . S
C1565 C1562 1.403 . S
C1565 C1566 1.392 . S
C1565 C1569 1.495 . S
C1566 C1565 1.392 . S
C1566 C1567 1.385 . S
C1566 C1568 1.478 . S
C1567 H1561 0.930 . S
C1567 C1563 1.400 . S
C1567 C1566 1.385 . S
C1568 C1566 1.478 . S
C1568 C1570 1.381 . S
C1568 C1574 1.383 . S
C1569 C1565 1.495 . S
C1569 H1575 0.959 . S
C1569 H1576 0.961 . S
C1569 H1577 0.960 . S
C1570 C1568 1.381 . S
C1570 C1571 1.394 . S
C1570 H1578 0.930 . S
C1571 C1570 1.394 . S
C1571 C1572 1.383 . S
C1571 H1579 0.929 . S
C1572 C1571 1.383 . S
C1572 C1573 1.377 . S
C1573 H1557 0.930 . S
C1573 C1572 1.377 . S
C1573 C1574 1.379 . S
C1574 H1558 0.931 . S
C1574 C1568 1.383 . S
C1574 C1573 1.379 . S
H1575 C1569 0.959 . S
H1576 C1569 0.961 . S
H1577 C1569 0.960 . S
H1578 C1570 0.930 . S
H1579 C1571 0.929 . S
H1580 C1588 0.929 . S
H1581 C1590 0.930 . S
H1582 C1592 0.930 . S
H1583 C1595 0.929 . S
H1584 C1598 0.930 . S
H1585 C1600 0.960 . S
H1586 C1600 0.960 . S
H1587 C1600 0.960 . S
C1588 H1580 0.929 . S
C1588 C1589 1.377 . S
C1588 C1590 1.384 . S
C1589 C1588 1.377 . S
C1589 C1595 1.390 . S
C1590 H1581 0.930 . S
C1590 C1588 1.384 . S
C1590 C1591 1.372 . S
C1591 C1590 1.372 . S
C1591 C1592 1.400 . S
C1591 C1596 1.490 . S
C1592 H1582 0.930 . S
C1592 C1591 1.400 . S
C1592 C1595 1.386 . S
H1593 C1609 0.930 . S
H1594 C1610 0.931 . S
C1595 H1583 0.929 . S
C1595 C1589 1.390 . S
C1595 C1592 1.386 . S
C1596 C1591 1.490 . S
C1596 C1598 1.395 . S
C1596 C1599 1.403 . S
H1597 C1603 0.930 . S
C1598 H1584 0.930 . S
C1598 C1596 1.395 . S
C1598 C1601 1.403 . S
C1599 C1596 1.403 . S
C1599 C1600 1.524 . S
C1599 C1603 1.400 . S
C1600 H1585 0.960 . S
C1600 H1586 0.960 . S
C1600 H1587 0.960 . S
C1600 C1599 1.524 . S
C1601 C1598 1.403 . S
C1601 C1602 1.392 . S
C1601 C1605 1.495 . S
C1602 C1601 1.392 . S
C1602 C1603 1.385 . S
C1602 C1604 1.478 . S
C1603 H1597 0.930 . S
C1603 C1599 1.400 . S
C1603 C1602 1.385 . S
C1604 C1602 1.478 . S
C1604 C1606 1.381 . S
C1604 C1610 1.383 . S
C1605 C1601 1.495 . S
C1605 H1611 0.959 . S
C1605 H1612 0.961 . S
C1605 H1613 0.960 . S
C1606 C1604 1.381 . S
C1606 C1607 1.394 . S
C1606 H1614 0.930 . S
C1607 C1606 1.394 . S
C1607 C1608 1.383 . S
C1607 H1615 0.929 . S
C1608 C1607 1.383 . S
C1608 C1609 1.377 . S
C1609 H1593 0.930 . S
C1609 C1608 1.377 . S
C1609 C1610 1.379 . S
C1610 H1594 0.931 . S
C1610 C1604 1.383 . S
C1610 C1609 1.379 . S
H1611 C1605 0.959 . S
H1612 C1605 0.961 . S
H1613 C1605 0.960 . S
H1614 C1606 0.930 . S
H1615 C1607 0.929 . S
H1616 C1624 0.929 . S
H1617 C1626 0.930 . S
H1618 C1628 0.930 . S
H1619 C1631 0.929 . S
H1620 C1634 0.930 . S
H1621 C1636 0.960 . S
H1622 C1636 0.960 . S
H1623 C1636 0.960 . S
C1624 H1616 0.929 . S
C1624 C1625 1.377 . S
C1624 C1626 1.384 . S
C1625 C1624 1.377 . S
C1625 C1631 1.390 . S
C1626 H1617 0.930 . S
C1626 C1624 1.384 . S
C1626 C1627 1.372 . S
C1627 C1626 1.372 . S
C1627 C1628 1.400 . S
C1627 C1632 1.490 . S
C1628 H1618 0.930 . S
C1628 C1627 1.400 . S
C1628 C1631 1.386 . S
H1629 C1645 0.930 . S
H1630 C1646 0.931 . S
C1631 H1619 0.929 . S
C1631 C1625 1.390 . S
C1631 C1628 1.386 . S
C1632 C1627 1.490 . S
C1632 C1634 1.395 . S
C1632 C1635 1.403 . S
H1633 C1639 0.930 . S
C1634 H1620 0.930 . S
C1634 C1632 1.395 . S
C1634 C1637 1.403 . S
C1635 C1632 1.403 . S
C1635 C1636 1.524 . S
C1635 C1639 1.400 . S
C1636 H1621 0.960 . S
C1636 H1622 0.960 . S
C1636 H1623 0.960 . S
C1636 C1635 1.524 . S
C1637 C1634 1.403 . S
C1637 C1638 1.392 . S
C1637 C1641 1.495 . S
C1638 C1637 1.392 . S
C1638 C1639 1.385 . S
C1638 C1640 1.478 . S
C1639 H1633 0.930 . S
C1639 C1635 1.400 . S
C1639 C1638 1.385 . S
C1640 C1638 1.478 . S
C1640 C1642 1.381 . S
C1640 C1646 1.383 . S
C1641 C1637 1.495 . S
C1641 H1647 0.959 . S
C1641 H1648 0.961 . S
C1641 H1649 0.960 . S
C1642 C1640 1.381 . S
C1642 C1643 1.394 . S
C1642 H1650 0.930 . S
C1643 C1642 1.394 . S
C1643 C1644 1.383 . S
C1643 H1651 0.929 . S
C1644 C1643 1.383 . S
C1644 C1645 1.377 . S
C1645 H1629 0.930 . S
C1645 C1644 1.377 . S
C1645 C1646 1.379 . S
C1646 H1630 0.931 . S
C1646 C1640 1.383 . S
C1646 C1645 1.379 . S
H1647 C1641 0.959 . S
H1648 C1641 0.961 . S
H1649 C1641 0.960 . S
H1650 C1642 0.930 . S
H1651 C1643 0.929 . S
H1652 C1660 0.929 . S
H1653 C1662 0.930 . S
H1654 C1664 0.930 . S
H1655 C1667 0.929 . S
H1656 C1670 0.930 . S
H1657 C1672 0.960 . S
H1658 C1672 0.960 . S
H1659 C1672 0.960 . S
C1660 H1652 0.929 . S
C1660 C1661 1.377 . S
C1660 C1662 1.384 . S
C1661 C1660 1.377 . S
C1661 C1667 1.390 . S
C1662 H1653 0.930 . S
C1662 C1660 1.384 . S
C1662 C1663 1.372 . S
C1663 C1662 1.372 . S
C1663 C1664 1.400 . S
C1663 C1668 1.490 . S
C1664 H1654 0.930 . S
C1664 C1663 1.400 . S
C1664 C1667 1.386 . S
H1665 C1681 0.930 . S
H1666 C1682 0.931 . S
C1667 H1655 0.929 . S
C1667 C1661 1.390 . S
C1667 C1664 1.386 . S
C1668 C1663 1.490 . S
C1668 C1670 1.395 . S
C1668 C1671 1.403 . S
H1669 C1675 0.930 . S
C1670 H1656 0.930 . S
C1670 C1668 1.395 . S
C1670 C1673 1.403 . S
C1671 C1668 1.403 . S
C1671 C1672 1.524 . S
C1671 C1675 1.400 . S
C1672 H1657 0.960 . S
C1672 H1658 0.960 . S
C1672 H1659 0.960 . S
C1672 C1671 1.524 . S
C1673 C1670 1.403 . S
C1673 C1674 1.392 . S
C1673 C1677 1.495 . S
C1674 C1673 1.392 . S
C1674 C1675 1.385 . S
C1674 C1676 1.478 . S
C1675 H1669 0.930 . S
C1675 C1671 1.400 . S
C1675 C1674 1.385 . S
C1676 C1674 1.478 . S
C1676 C1678 1.381 . S
C1676 C1682 1.383 . S
C1677 C1673 1.495 . S
C1677 H1683 0.959 . S
C1677 H1684 0.961 . S
C1677 H1685 0.960 . S
C1678 C1676 1.381 . S
C1678 C1679 1.394 . S
C1678 H1686 0.930 . S
C1679 C1678 1.394 . S
C1679 C1680 1.383 . S
C1679 H1687 0.929 . S
C1680 C1679 1.383 . S
C1680 C1681 1.377 . S
C1681 H1665 0.930 . S
C1681 C1680 1.377 . S
C1681 C1682 1.379 . S
C1682 H1666 0.931 . S
C1682 C1676 1.383 . S
C1682 C1681 1.379 . S
H1683 C1677 0.959 . S
H1684 C1677 0.961 . S
H1685 C1677 0.960 . S
H1686 C1678 0.930 . S
H1687 C1679 0.929 . S
H1688 C1696 0.929 . S
H1689 C1698 0.930 . S
H1690 C1700 0.930 . S
H1691 C1703 0.929 . S
H1692 C1706 0.930 . S
H1693 C1708 0.960 . S
H1694 C1708 0.960 . S
H1695 C1708 0.960 . S
C1696 H1688 0.929 . S
C1696 C1697 1.377 . S
C1696 C1698 1.384 . S
C1697 C1696 1.377 . S
C1697 C1703 1.390 . S
C1698 H1689 0.930 . S
C1698 C1696 1.384 . S
C1698 C1699 1.372 . S
C1699 C1698 1.372 . S
C1699 C1700 1.400 . S
C1699 C1704 1.490 . S
C1700 H1690 0.930 . S
C1700 C1699 1.400 . S
C1700 C1703 1.386 . S
H1701 C1717 0.930 . S
H1702 C1718 0.931 . S
C1703 H1691 0.929 . S
C1703 C1697 1.390 . S
C1703 C1700 1.386 . S
C1704 C1699 1.490 . S
C1704 C1706 1.395 . S
C1704 C1707 1.403 . S
H1705 C1711 0.930 . S
C1706 H1692 0.930 . S
C1706 C1704 1.395 . S
C1706 C1709 1.403 . S
C1707 C1704 1.403 . S
C1707 C1708 1.524 . S
C1707 C1711 1.400 . S
C1708 H1693 0.960 . S
C1708 H1694 0.960 . S
C1708 H1695 0.960 . S
C1708 C1707 1.524 . S
C1709 C1706 1.403 . S
C1709 C1710 1.392 . S
C1709 C1713 1.495 . S
C1710 C1709 1.392 . S
C1710 C1711 1.385 . S
C1710 C1712 1.478 . S
C1711 H1705 0.930 . S
C1711 C1707 1.400 . S
C1711 C1710 1.385 . S
C1712 C1710 1.478 . S
C1712 C1714 1.381 . S
C1712 C1718 1.383 . S
C1713 C1709 1.495 . S
C1713 H1719 0.959 . S
C1713 H1720 0.961 . S
C1713 H1721 0.960 . S
C1714 C1712 1.381 . S
C1714 C1715 1.394 . S
C1714 H1722 0.930 . S
C1715 C1714 1.394 . S
C1715 C1716 1.383 . S
C1715 H1723 0.929 . S
C1716 C1715 1.383 . S
C1716 C1717 1.377 . S
C1717 H1701 0.930 . S
C1717 C1716 1.377 . S
C1717 C1718 1.379 . S
C1718 H1702 0.931 . S
C1718 C1712 1.383 . S
C1718 C1717 1.379 . S
H1719 C1713 0.959 . S
H1720 C1713 0.961 . S
H1721 C1713 0.960 . S
H1722 C1714 0.930 . S
H1723 C1715 0.929 . S
H1724 C1732 0.929 . S
H1725 C1734 0.930 . S
H1726 C1736 0.930 . S
H1727 C1739 0.929 . S
H1728 C1742 0.930 . S
H1729 C1744 0.960 . S
H1730 C1744 0.960 . S
H1731 C1744 0.960 . S
C1732 H1724 0.929 . S
C1732 C1733 1.377 . S
C1732 C1734 1.384 . S
C1733 C1732 1.377 . S
C1733 C1739 1.390 . S
C1734 H1725 0.930 . S
C1734 C1732 1.384 . S
C1734 C1735 1.372 . S
C1735 C1734 1.372 . S
C1735 C1736 1.400 . S
C1735 C1740 1.490 . S
C1736 H1726 0.930 . S
C1736 C1735 1.400 . S
C1736 C1739 1.386 . S
H1737 C1753 0.930 . S
H1738 C1754 0.931 . S
C1739 H1727 0.929 . S
C1739 C1733 1.390 . S
C1739 C1736 1.386 . S
C1740 C1735 1.490 . S
C1740 C1742 1.395 . S
C1740 C1743 1.403 . S
H1741 C1747 0.930 . S
C1742 H1728 0.930 . S
C1742 C1740 1.395 . S
C1742 C1745 1.403 . S
C1743 C1740 1.403 . S
C1743 C1744 1.524 . S
C1743 C1747 1.400 . S
C1744 H1729 0.960 . S
C1744 H1730 0.960 . S
C1744 H1731 0.960 . S
C1744 C1743 1.524 . S
C1745 C1742 1.403 . S
C1745 C1746 1.392 . S
C1745 C1749 1.495 . S
C1746 C1745 1.392 . S
C1746 C1747 1.385 . S
C1746 C1748 1.478 . S
C1747 H1741 0.930 . S
C1747 C1743 1.400 . S
C1747 C1746 1.385 . S
C1748 C1746 1.478 . S
C1748 C1750 1.381 . S
C1748 C1754 1.383 . S
C1749 C1745 1.495 . S
C1749 H1755 0.959 . S
C1749 H1756 0.961 . S
C1749 H1757 0.960 . S
C1750 C1748 1.381 . S
C1750 C1751 1.394 . S
C1750 H1758 0.930 . S
C1751 C1750 1.394 . S
C1751 C1752 1.383 . S
C1751 H1759 0.929 . S
C1752 C1751 1.383 . S
C1752 C1753 1.377 . S
C1753 H1737 0.930 . S
C1753 C1752 1.377 . S
C1753 C1754 1.379 . S
C1754 H1738 0.931 . S
C1754 C1748 1.383 . S
C1754 C1753 1.379 . S
H1755 C1749 0.959 . S
H1756 C1749 0.961 . S
H1757 C1749 0.960 . S
H1758 C1750 0.930 . S
H1759 C1751 0.929 . S
H1760 C1768 0.929 . S
H1761 C1770 0.930 . S
H1762 C1772 0.930 . S
H1763 C1775 0.929 . S
H1764 C1778 0.930 . S
H1765 C1780 0.960 . S
H1766 C1780 0.960 . S
H1767 C1780 0.960 . S
C1768 H1760 0.929 . S
C1768 C1769 1.377 . S
C1768 C1770 1.384 . S
C1769 C1768 1.377 . S
C1769 C1775 1.390 . S
C1770 H1761 0.930 . S
C1770 C1768 1.384 . S
C1770 C1771 1.372 . S
C1771 C1770 1.372 . S
C1771 C1772 1.400 . S
C1771 C1776 1.490 1_565 S
C1772 H1762 0.930 . S
C1772 C1771 1.400 . S
C1772 C1775 1.386 . S
H1773 C1789 0.930 . S
H1774 C1790 0.931 . S
C1775 H1763 0.929 . S
C1775 C1769 1.390 . S
C1775 C1772 1.386 . S
C1776 C1771 1.490 1_545 S
C1776 C1778 1.395 . S
C1776 C1779 1.403 . S
H1777 C1783 0.930 . S
C1778 H1764 0.930 . S
C1778 C1776 1.395 . S
C1778 C1781 1.403 . S
C1779 C1776 1.403 . S
C1779 C1780 1.524 . S
C1779 C1783 1.400 . S
C1780 H1765 0.960 . S
C1780 H1766 0.960 . S
C1780 H1767 0.960 . S
C1780 C1779 1.524 . S
C1781 C1778 1.403 . S
C1781 C1782 1.392 . S
C1781 C1785 1.495 . S
C1782 C1781 1.392 . S
C1782 C1783 1.385 . S
C1782 C1784 1.478 . S
C1783 H1777 0.930 . S
C1783 C1779 1.400 . S
C1783 C1782 1.385 . S
C1784 C1782 1.478 . S
C1784 C1786 1.381 . S
C1784 C1790 1.383 . S
C1785 C1781 1.495 . S
C1785 H1791 0.959 . S
C1785 H1792 0.961 . S
C1785 H1793 0.960 . S
C1786 C1784 1.381 . S
C1786 C1787 1.394 . S
C1786 H1794 0.930 . S
C1787 C1786 1.394 . S
C1787 C1788 1.383 . S
C1787 H1795 0.929 . S
C1788 C1787 1.383 . S
C1788 C1789 1.377 . S
C1789 H1773 0.930 . S
C1789 C1788 1.377 . S
C1789 C1790 1.379 . S
C1790 H1774 0.931 . S
C1790 C1784 1.383 . S
C1790 C1789 1.379 . S
H1791 C1785 0.959 . S
H1792 C1785 0.961 . S
H1793 C1785 0.960 . S
H1794 C1786 0.930 . S
H1795 C1787 0.929 . S
H1796 C1804 0.929 . S
H1797 C1806 0.930 . S
H1798 C1808 0.930 . S
H1799 C1811 0.929 . S
H1800 C1814 0.930 . S
H1801 C1816 0.960 . S
H1802 C1816 0.960 . S
H1803 C1816 0.960 . S
C1804 H1796 0.929 . S
C1804 C1805 1.377 . S
C1804 C1806 1.384 . S
C1805 C1804 1.377 . S
C1805 C1811 1.390 . S
C1806 H1797 0.930 . S
C1806 C1804 1.384 . S
C1806 C1807 1.372 . S
C1807 C1806 1.372 . S
C1807 C1808 1.400 . S
C1807 C1812 1.490 . S
C1808 H1798 0.930 . S
C1808 C1807 1.400 . S
C1808 C1811 1.386 . S
H1809 C1825 0.930 . S
H1810 C1826 0.931 . S
C1811 H1799 0.929 . S
C1811 C1805 1.390 . S
C1811 C1808 1.386 . S
C1812 C1807 1.490 . S
C1812 C1814 1.395 . S
C1812 C1815 1.403 . S
H1813 C1819 0.930 . S
C1814 H1800 0.930 . S
C1814 C1812 1.395 . S
C1814 C1817 1.403 . S
C1815 C1812 1.403 . S
C1815 C1816 1.524 . S
C1815 C1819 1.400 . S
C1816 H1801 0.960 . S
C1816 H1802 0.960 . S
C1816 H1803 0.960 . S
C1816 C1815 1.524 . S
C1817 C1814 1.403 . S
C1817 C1818 1.392 . S
C1817 C1821 1.495 . S
C1818 C1817 1.392 . S
C1818 C1819 1.385 . S
C1818 C1820 1.478 1_565 S
C1819 H1813 0.930 . S
C1819 C1815 1.400 . S
C1819 C1818 1.385 . S
C1820 C1818 1.478 1_545 S
C1820 C1822 1.381 . S
C1820 C1826 1.383 . S
C1821 C1817 1.495 . S
C1821 H1827 0.959 . S
C1821 H1828 0.961 . S
C1821 H1829 0.960 . S
C1822 C1820 1.381 . S
C1822 C1823 1.394 . S
C1822 H1830 0.930 . S
C1823 C1822 1.394 . S
C1823 C1824 1.383 . S
C1823 H1831 0.929 . S
C1824 C1823 1.383 . S
C1824 C1825 1.377 . S
C1825 H1809 0.930 . S
C1825 C1824 1.377 . S
C1825 C1826 1.379 . S
C1826 H1810 0.931 . S
C1826 C1820 1.383 . S
C1826 C1825 1.379 . S
H1827 C1821 0.959 . S
H1828 C1821 0.961 . S
H1829 C1821 0.960 . S
H1830 C1822 0.930 . S
H1831 C1823 0.929 . S
H1832 C1840 0.929 . S
H1833 C1842 0.930 . S
H1834 C1844 0.930 . S
H1835 C1847 0.929 . S
H1836 C1850 0.930 . S
H1837 C1852 0.960 . S
H1838 C1852 0.960 . S
H1839 C1852 0.960 . S
C1840 H1832 0.929 . S
C1840 C1841 1.377 . S
C1840 C1842 1.384 . S
C1841 C1840 1.377 . S
C1841 C1847 1.390 . S
C1842 H1833 0.930 . S
C1842 C1840 1.384 . S
C1842 C1843 1.372 . S
C1843 C1842 1.372 . S
C1843 C1844 1.400 . S
C1843 C1848 1.490 1_545 S
C1844 H1834 0.930 . S
C1844 C1843 1.400 . S
C1844 C1847 1.386 . S
H1845 C1861 0.930 . S
H1846 C1862 0.931 . S
C1847 H1835 0.929 . S
C1847 C1841 1.390 . S
C1847 C1844 1.386 . S
C1848 C1843 1.490 1_565 S
C1848 C1850 1.395 . S
C1848 C1851 1.403 . S
H1849 C1855 0.930 . S
C1850 H1836 0.930 . S
C1850 C1848 1.395 . S
C1850 C1853 1.403 . S
C1851 C1848 1.403 . S
C1851 C1852 1.524 . S
C1851 C1855 1.400 . S
C1852 H1837 0.960 . S
C1852 H1838 0.960 . S
C1852 H1839 0.960 . S
C1852 C1851 1.524 . S
C1853 C1850 1.403 . S
C1853 C1854 1.392 . S
C1853 C1857 1.495 . S
C1854 C1853 1.392 . S
C1854 C1855 1.385 . S
C1854 C1856 1.478 . S
C1855 H1849 0.930 . S
C1855 C1851 1.400 . S
C1855 C1854 1.385 . S
C1856 C1854 1.478 . S
C1856 C1858 1.381 . S
C1856 C1862 1.383 . S
C1857 C1853 1.495 . S
C1857 H1863 0.959 . S
C1857 H1864 0.961 . S
C1857 H1865 0.960 . S
C1858 C1856 1.381 . S
C1858 C1859 1.394 . S
C1858 H1866 0.930 . S
C1859 C1858 1.394 . S
C1859 C1860 1.383 . S
C1859 H1867 0.929 . S
C1860 C1859 1.383 . S
C1860 C1861 1.377 . S
C1861 H1845 0.930 . S
C1861 C1860 1.377 . S
C1861 C1862 1.379 . S
C1862 H1846 0.931 . S
C1862 C1856 1.383 . S
C1862 C1861 1.379 . S
H1863 C1857 0.959 . S
H1864 C1857 0.961 . S
H1865 C1857 0.960 . S
H1866 C1858 0.930 . S
H1867 C1859 0.929 . S
H1868 C1876 0.929 . S
H1869 C1878 0.930 . S
H1870 C1880 0.930 . S
H1871 C1883 0.929 . S
H1872 C1886 0.930 . S
H1873 C1888 0.960 . S
H1874 C1888 0.960 . S
H1875 C1888 0.960 . S
C1876 H1868 0.929 . S
C1876 C1877 1.377 . S
C1876 C1878 1.384 . S
C1877 C1876 1.377 . S
C1877 C1883 1.390 . S
C1878 H1869 0.930 . S
C1878 C1876 1.384 . S
C1878 C1879 1.372 . S
C1879 C1878 1.372 . S
C1879 C1880 1.400 . S
C1879 C1884 1.490 1_565 S
C1880 H1870 0.930 . S
C1880 C1879 1.400 . S
C1880 C1883 1.386 . S
H1881 C1897 0.930 . S
H1882 C1898 0.931 . S
C1883 H1871 0.929 . S
C1883 C1877 1.390 . S
C1883 C1880 1.386 . S
C1884 C1879 1.490 1_545 S
C1884 C1886 1.395 . S
C1884 C1887 1.403 . S
H1885 C1891 0.930 . S
C1886 H1872 0.930 . S
C1886 C1884 1.395 . S
C1886 C1889 1.403 . S
C1887 C1884 1.403 . S
C1887 C1888 1.524 . S
C1887 C1891 1.400 . S
C1888 H1873 0.960 . S
C1888 H1874 0.960 . S
C1888 H1875 0.960 . S
C1888 C1887 1.524 . S
C1889 C1886 1.403 . S
C1889 C1890 1.392 . S
C1889 C1893 1.495 . S
C1890 C1889 1.392 . S
C1890 C1891 1.385 . S
C1890 C1892 1.478 . S
C1891 H1885 0.930 . S
C1891 C1887 1.400 . S
C1891 C1890 1.385 . S
C1892 C1890 1.478 . S
C1892 C1894 1.381 . S
C1892 C1898 1.383 . S
C1893 C1889 1.495 . S
C1893 H1899 0.959 . S
C1893 H1900 0.961 . S
C1893 H1901 0.960 . S
C1894 C1892 1.381 . S
C1894 C1895 1.394 . S
C1894 H1902 0.930 . S
C1895 C1894 1.394 . S
C1895 C1896 1.383 . S
C1895 H1903 0.929 . S
C1896 C1895 1.383 . S
C1896 C1897 1.377 . S
C1897 H1881 0.930 . S
C1897 C1896 1.377 . S
C1897 C1898 1.379 . S
C1898 H1882 0.931 . S
C1898 C1892 1.383 . S
C1898 C1897 1.379 . S
H1899 C1893 0.959 . S
H1900 C1893 0.961 . S
H1901 C1893 0.960 . S
H1902 C1894 0.930 . S
H1903 C1895 0.929 . S
H1904 C1912 0.929 . S
H1905 C1914 0.930 . S
H1906 C1916 0.930 . S
H1907 C1919 0.929 . S
H1908 C1922 0.930 . S
H1909 C1924 0.960 . S
H1910 C1924 0.960 . S
H1911 C1924 0.960 . S
C1912 H1904 0.929 . S
C1912 C1913 1.377 . S
C1912 C1914 1.384 . S
C1913 C1912 1.377 . S
C1913 C1919 1.390 . S
C1914 H1905 0.930 . S
C1914 C1912 1.384 . S
C1914 C1915 1.372 . S
C1915 C1914 1.372 . S
C1915 C1916 1.400 . S
C1915 C1920 1.490 . S
C1916 H1906 0.930 . S
C1916 C1915 1.400 . S
C1916 C1919 1.386 . S
H1917 C1933 0.930 . S
H1918 C1934 0.931 . S
C1919 H1907 0.929 . S
C1919 C1913 1.390 . S
C1919 C1916 1.386 . S
C1920 C1915 1.490 . S
C1920 C1922 1.395 . S
C1920 C1923 1.403 . S
H1921 C1927 0.930 . S
C1922 H1908 0.930 . S
C1922 C1920 1.395 . S
C1922 C1925 1.403 . S
C1923 C1920 1.403 . S
C1923 C1924 1.524 . S
C1923 C1927 1.400 . S
C1924 H1909 0.960 . S
C1924 H1910 0.960 . S
C1924 H1911 0.960 . S
C1924 C1923 1.524 . S
C1925 C1922 1.403 . S
C1925 C1926 1.392 . S
C1925 C1929 1.495 . S
C1926 C1925 1.392 . S
C1926 C1927 1.385 . S
C1926 C1928 1.478 1_565 S
C1927 H1921 0.930 . S
C1927 C1923 1.400 . S
C1927 C1926 1.385 . S
C1928 C1926 1.478 1_545 S
C1928 C1930 1.381 . S
C1928 C1934 1.383 . S
C1929 C1925 1.495 . S
C1929 H1935 0.959 . S
C1929 H1936 0.961 . S
C1929 H1937 0.960 . S
C1930 C1928 1.381 . S
C1930 C1931 1.394 . S
C1930 H1938 0.930 . S
C1931 C1930 1.394 . S
C1931 C1932 1.383 . S
C1931 H1939 0.929 . S
C1932 C1931 1.383 . S
C1932 C1933 1.377 . S
C1933 H1917 0.930 . S
C1933 C1932 1.377 . S
C1933 C1934 1.379 . S
C1934 H1918 0.931 . S
C1934 C1928 1.383 . S
C1934 C1933 1.379 . S
H1935 C1929 0.959 . S
H1936 C1929 0.961 . S
H1937 C1929 0.960 . S
H1938 C1930 0.930 . S
H1939 C1931 0.929 . S
H1940 C1948 0.929 . S
H1941 C1950 0.930 . S
H1942 C1952 0.930 . S
H1943 C1955 0.929 . S
H1944 C1958 0.930 . S
H1945 C1960 0.960 . S
H1946 C1960 0.960 . S
H1947 C1960 0.960 . S
C1948 H1940 0.929 . S
C1948 C1949 1.377 . S
C1948 C1950 1.384 . S
C1949 C1948 1.377 . S
C1949 C1955 1.390 . S
C1950 H1941 0.930 . S
C1950 C1948 1.384 . S
C1950 C1951 1.372 . S
C1951 C1950 1.372 . S
C1951 C1952 1.400 . S
C1951 C1956 1.490 . S
C1952 H1942 0.930 . S
C1952 C1951 1.400 . S
C1952 C1955 1.386 . S
H1953 C1969 0.930 . S
H1954 C1970 0.931 . S
C1955 H1943 0.929 . S
C1955 C1949 1.390 . S
C1955 C1952 1.386 . S
C1956 C1951 1.490 . S
C1956 C1958 1.395 . S
C1956 C1959 1.403 . S
H1957 C1963 0.930 . S
C1958 H1944 0.930 . S
C1958 C1956 1.395 . S
C1958 C1961 1.403 . S
C1959 C1956 1.403 . S
C1959 C1960 1.524 . S
C1959 C1963 1.400 . S
C1960 H1945 0.960 . S
C1960 H1946 0.960 . S
C1960 H1947 0.960 . S
C1960 C1959 1.524 . S
C1961 C1958 1.403 . S
C1961 C1962 1.392 . S
C1961 C1965 1.495 . S
C1962 C1961 1.392 . S
C1962 C1963 1.385 . S
C1962 C1964 1.478 1_545 S
C1963 H1957 0.930 . S
C1963 C1959 1.400 . S
C1963 C1962 1.385 . S
C1964 C1962 1.478 1_565 S
C1964 C1966 1.381 . S
C1964 C1970 1.383 . S
C1965 C1961 1.495 . S
C1965 H1971 0.959 . S
C1965 H1972 0.961 . S
C1965 H1973 0.960 . S
C1966 C1964 1.381 . S
C1966 C1967 1.394 . S
C1966 H1974 0.930 . S
C1967 C1966 1.394 . S
C1967 C1968 1.383 . S
C1967 H1975 0.929 . S
C1968 C1967 1.383 . S
C1968 C1969 1.377 . S
C1969 H1953 0.930 . S
C1969 C1968 1.377 . S
C1969 C1970 1.379 . S
C1970 H1954 0.931 . S
C1970 C1964 1.383 . S
C1970 C1969 1.379 . S
H1971 C1965 0.959 . S
H1972 C1965 0.961 . S
H1973 C1965 0.960 . S
H1974 C1966 0.930 . S
H1975 C1967 0.929 . S
H1976 C1984 0.929 . S
H1977 C1986 0.930 . S
H1978 C1988 0.930 . S
H1979 C1991 0.929 . S
H1980 C1994 0.930 . S
H1981 C1996 0.960 . S
H1982 C1996 0.960 . S
H1983 C1996 0.960 . S
C1984 H1976 0.929 . S
C1984 C1985 1.377 . S
C1984 C1986 1.384 . S
C1985 C1984 1.377 . S
C1985 C1991 1.390 . S
C1986 H1977 0.930 . S
C1986 C1984 1.384 . S
C1986 C1987 1.372 . S
C1987 C1986 1.372 . S
C1987 C1988 1.400 . S
C1987 C1992 1.490 1_565 S
C1988 H1978 0.930 . S
C1988 C1987 1.400 . S
C1988 C1991 1.386 . S
H1989 C2005 0.930 . S
H1990 C2006 0.931 . S
C1991 H1979 0.929 . S
C1991 C1985 1.390 . S
C1991 C1988 1.386 . S
C1992 C1987 1.490 1_545 S
C1992 C1994 1.395 . S
C1992 C1995 1.403 . S
H1993 C1999 0.930 . S
C1994 H1980 0.930 . S
C1994 C1992 1.395 . S
C1994 C1997 1.403 . S
C1995 C1992 1.403 . S
C1995 C1996 1.524 . S
C1995 C1999 1.400 . S
C1996 H1981 0.960 . S
C1996 H1982 0.960 . S
C1996 H1983 0.960 . S
C1996 C1995 1.524 . S
C1997 C1994 1.403 . S
C1997 C1998 1.392 . S
C1997 C2001 1.495 . S
C1998 C1997 1.392 . S
C1998 C1999 1.385 . S
C1998 C2000 1.478 . S
C1999 H1993 0.930 . S
C1999 C1995 1.400 . S
C1999 C1998 1.385 . S
C2000 C1998 1.478 . S
C2000 C2002 1.381 . S
C2000 C2006 1.383 . S
C2001 C1997 1.495 . S
C2001 H2007 0.959 . S
C2001 H2008 0.961 . S
C2001 H2009 0.960 . S
C2002 C2000 1.381 . S
C2002 C2003 1.394 . S
C2002 H2010 0.930 . S
C2003 C2002 1.394 . S
C2003 C2004 1.383 . S
C2003 H2011 0.929 . S
C2004 C2003 1.383 . S
C2004 C2005 1.377 . S
C2005 H1989 0.930 . S
C2005 C2004 1.377 . S
C2005 C2006 1.379 . S
C2006 H1990 0.931 . S
C2006 C2000 1.383 . S
C2006 C2005 1.379 . S
H2007 C2001 0.959 . S
H2008 C2001 0.961 . S
H2009 C2001 0.960 . S
H2010 C2002 0.930 . S
H2011 C2003 0.929 . S
H2012 C2020 0.929 . S
H2013 C2022 0.930 . S
H2014 C2024 0.930 . S
H2015 C2027 0.929 . S
H2016 C2030 0.930 . S
H2017 C2032 0.960 . S
H2018 C2032 0.960 . S
H2019 C2032 0.960 . S
C2020 H2012 0.929 . S
C2020 C2021 1.377 . S
C2020 C2022 1.384 . S
C2021 C2020 1.377 . S
C2021 C2027 1.390 . S
C2022 H2013 0.930 . S
C2022 C2020 1.384 . S
C2022 C2023 1.372 . S
C2023 C2022 1.372 . S
C2023 C2024 1.400 . S
C2023 C2028 1.490 . S
C2024 H2014 0.930 . S
C2024 C2023 1.400 . S
C2024 C2027 1.386 . S
H2025 C2041 0.930 . S
H2026 C2042 0.931 . S
C2027 H2015 0.929 . S
C2027 C2021 1.390 . S
C2027 C2024 1.386 . S
C2028 C2023 1.490 . S
C2028 C2030 1.395 . S
C2028 C2031 1.403 . S
H2029 C2035 0.930 . S
C2030 H2016 0.930 . S
C2030 C2028 1.395 . S
C2030 C2033 1.403 . S
C2031 C2028 1.403 . S
C2031 C2032 1.524 . S
C2031 C2035 1.400 . S
C2032 H2017 0.960 . S
C2032 H2018 0.960 . S
C2032 H2019 0.960 . S
C2032 C2031 1.524 . S
C2033 C2030 1.403 . S
C2033 C2034 1.392 . S
C2033 C2037 1.495 . S
C2034 C2033 1.392 . S
C2034 C2035 1.385 . S
C2034 C2036 1.478 1_565 S
C2035 H2029 0.930 . S
C2035 C2031 1.400 . S
C2035 C2034 1.385 . S
C2036 C2034 1.478 1_545 S
C2036 C2038 1.381 . S
C2036 C2042 1.383 . S
C2037 C2033 1.495 . S
C2037 H2043 0.959 . S
C2037 H2044 0.961 . S
C2037 H2045 0.960 . S
C2038 C2036 1.381 . S
C2038 C2039 1.394 . S
C2038 H2046 0.930 . S
C2039 C2038 1.394 . S
C2039 C2040 1.383 . S
C2039 H2047 0.929 . S
C2040 C2039 1.383 . S
C2040 C2041 1.377 . S
C2041 H2025 0.930 . S
C2041 C2040 1.377 . S
C2041 C2042 1.379 . S
C2042 H2026 0.931 . S
C2042 C2036 1.383 . S
C2042 C2041 1.379 . S
H2043 C2037 0.959 . S
H2044 C2037 0.961 . S
H2045 C2037 0.960 . S
H2046 C2038 0.930 . S
H2047 C2039 0.929 . S
C329 C2 1.439 . S
C348 C182 1.411 . S
C365 C22 1.438 . S
C384 C162 1.410 . S
C401 C222 1.439 . S
C420 C42 1.411 . S
C437 C62 1.447 . S
C456 C202 1.468 . S
C473 C264 1.443 . S
C492 C84 1.471 . S
C509 C244 1.443 . S
C528 C104 1.410 . S
C545 C304 1.446 . S
C564 C124 1.470 . S
C581 C144 1.448 . S
C600 C284 1.464 . S
C617 C59 1.568 . S
C636 C19 1.569 . S
C653 C79 1.568 . S
C672 C39 1.554 . S
C689 C138 1.563 . S
C708 C98 1.571 . S
C725 C118 1.568 . S
C744 C158 1.560 . S
C761 C219 1.565 . S
C780 C179 1.576 . S
C797 C239 1.567 . S
C816 C199 1.575 . S
C833 C258 1.564 . S
C852 C298 1.577 . S
C869 C278 1.569 . S
C888 C318 1.552 . S
C905 C119 1.555 . S
C924 C18 1.572 . S
C941 C99 1.556 . S
C960 C38 1.540 . S
C977 C58 1.561 . S
C996 C159 1.544 . S
C1013 C139 1.561 . S
C1032 C78 1.541 . S
C1049 C178 1.560 . S
C1068 C279 1.555 . S
C1085 C259 1.556 . S
C1104 C198 1.543 . S
C1121 C218 1.561 . S
C1140 C319 1.545 . S
C1157 C299 1.560 . S
C1176 C238 1.555 . S
C1193 C24 1.537 . S
C1212 C4 1.542 . S
C1229 C64 1.529 . S
C1248 C44 1.544 . S
C1265 C102 1.530 . S
C1284 C82 1.523 . S
C1301 C122 1.532 . S
C1320 C142 1.536 . S
C1337 C184 1.535 . S
C1356 C164 1.509 . S
C1373 C224 1.529 . S
C1392 C204 1.520 . S
C1409 C242 1.530 . S
C1428 C262 1.510 . S
C1445 C282 1.536 . S
C1464 C302 1.551 . S
C1481 C12 1.706 . S
C1500 C9 1.714 . S
C1517 C32 1.704 . S
C1536 C29 1.700 . S
C1553 C52 1.704 . S
C1572 C49 1.692 . S
C1589 C69 1.707 . S
C1608 C72 1.693 . S
C1625 C89 1.704 . S
C1644 C92 1.698 . S
C1661 C112 1.710 . S
C1680 C109 1.712 . S
C1697 C129 1.709 . S
C1716 C132 1.716 . S
C1733 C149 1.707 . S
C1752 C152 1.692 . S
C1769 C169 1.704 . S
C1788 C172 1.695 . S
C1805 C192 1.709 . S
C1824 C189 1.716 . S
C1841 C209 1.704 . S
C1860 C212 1.701 . S
C1877 C229 1.708 . S
C1896 C232 1.717 . S
C1913 C249 1.706 . S
C1932 C252 1.714 . S
C1949 C269 1.705 . S
C1968 C272 1.708 . S
C1985 C292 1.705 . S
C2004 C289 1.708 . S
C2021 C309 1.710 . S
C2040 C312 1.710 . S
