# Generated by pormake.
# Topology wmg, (6)-cn, num edge types: 1
# Building blocks:
#     Node 0, Type 0, BuildingBlock: OJICUG_clean_sbu_0, # of connection points: 6
#     Node 1, Type 0, BuildingBlock: OJICUG_clean_sbu_0, # of connection points: 6
#     Node 2, Type 0, BuildingBlock: OJICUG_clean_sbu_0, # of connection points: 6
#     Node 3, Type 0, BuildingBlock: OJICUG_clean_sbu_0, # of connection points: 6
#     Node 4, Type 0, BuildingBlock: OJICUG_clean_sbu_0, # of connection points: 6
#     Node 5, Type 0, BuildingBlock: OJICUG_clean_sbu_0, # of connection points: 6
#     Node 6, Type 0, BuildingBlock: OJICUG_clean_sbu_0, # of connection points: 6
#     Node 7, Type 0, BuildingBlock: OJICUG_clean_sbu_0, # of connection points: 6
#     Node 8, Type 0, BuildingBlock: OJICUG_clean_sbu_0, # of connection points: 6
#     Node 9, Type 0, BuildingBlock: OJICUG_clean_sbu_0, # of connection points: 6
#     Node 10, Type 0, BuildingBlock: OJICUG_clean_sbu_0, # of connection points: 6
#     Node 11, Type 0, BuildingBlock: OJICUG_clean_sbu_0, # of connection points: 6
#     Node 12, Type 0, BuildingBlock: OJICUG_clean_sbu_0, # of connection points: 6
#     Node 13, Type 0, BuildingBlock: OJICUG_clean_sbu_0, # of connection points: 6
#     Node 14, Type 0, BuildingBlock: OJICUG_clean_sbu_0, # of connection points: 6
#     Node 15, Type 0, BuildingBlock: OJICUG_clean_sbu_0, # of connection points: 6
#     Node 16, Type 0, BuildingBlock: OJICUG_clean_sbu_0, # of connection points: 6
#     Node 17, Type 0, BuildingBlock: OJICUG_clean_sbu_0, # of connection points: 6
#     Edge 18, Type (0, 0), BuildingBlock: OJICUG_clean_linker_0, # of connection points: 2
#     Edge 19, Type (0, 0), BuildingBlock: OJICUG_clean_linker_0, # of connection points: 2
#     Edge 20, Type (0, 0), BuildingBlock: OJICUG_clean_linker_0, # of connection points: 2
#     Edge 21, Type (0, 0), BuildingBlock: OJICUG_clean_linker_0, # of connection points: 2
#     Edge 22, Type (0, 0), BuildingBlock: OJICUG_clean_linker_0, # of connection points: 2
#     Edge 23, Type (0, 0), BuildingBlock: OJICUG_clean_linker_0, # of connection points: 2
#     Edge 24, Type (0, 0), BuildingBlock: OJICUG_clean_linker_0, # of connection points: 2
#     Edge 25, Type (0, 0), BuildingBlock: OJICUG_clean_linker_0, # of connection points: 2
#     Edge 26, Type (0, 0), BuildingBlock: OJICUG_clean_linker_0, # of connection points: 2
#     Edge 27, Type (0, 0), BuildingBlock: OJICUG_clean_linker_0, # of connection points: 2
#     Edge 28, Type (0, 0), BuildingBlock: OJICUG_clean_linker_0, # of connection points: 2
#     Edge 29, Type (0, 0), BuildingBlock: OJICUG_clean_linker_0, # of connection points: 2
#     Edge 30, Type (0, 0), BuildingBlock: OJICUG_clean_linker_0, # of connection points: 2
#     Edge 31, Type (0, 0), BuildingBlock: OJICUG_clean_linker_0, # of connection points: 2
#     Edge 32, Type (0, 0), BuildingBlock: OJICUG_clean_linker_0, # of connection points: 2
#     Edge 33, Type (0, 0), BuildingBlock: OJICUG_clean_linker_0, # of connection points: 2
#     Edge 34, Type (0, 0), BuildingBlock: OJICUG_clean_linker_0, # of connection points: 2
#     Edge 35, Type (0, 0), BuildingBlock: OJICUG_clean_linker_0, # of connection points: 2
#     Edge 36, Type (0, 0), BuildingBlock: OJICUG_clean_linker_0, # of connection points: 2
#     Edge 37, Type (0, 0), BuildingBlock: OJICUG_clean_linker_0, # of connection points: 2
#     Edge 38, Type (0, 0), BuildingBlock: OJICUG_clean_linker_0, # of connection points: 2
#     Edge 39, Type (0, 0), BuildingBlock: OJICUG_clean_linker_0, # of connection points: 2
#     Edge 40, Type (0, 0), BuildingBlock: OJICUG_clean_linker_0, # of connection points: 2
#     Edge 41, Type (0, 0), BuildingBlock: OJICUG_clean_linker_0, # of connection points: 2
#     Edge 42, Type (0, 0), BuildingBlock: OJICUG_clean_linker_0, # of connection points: 2
#     Edge 43, Type (0, 0), BuildingBlock: OJICUG_clean_linker_0, # of connection points: 2
#     Edge 44, Type (0, 0), BuildingBlock: OJICUG_clean_linker_0, # of connection points: 2
#     Edge 45, Type (0, 0), BuildingBlock: OJICUG_clean_linker_0, # of connection points: 2
#     Edge 46, Type (0, 0), BuildingBlock: OJICUG_clean_linker_0, # of connection points: 2
#     Edge 47, Type (0, 0), BuildingBlock: OJICUG_clean_linker_0, # of connection points: 2
#     Edge 48, Type (0, 0), BuildingBlock: OJICUG_clean_linker_0, # of connection points: 2
#     Edge 49, Type (0, 0), BuildingBlock: OJICUG_clean_linker_0, # of connection points: 2
#     Edge 50, Type (0, 0), BuildingBlock: OJICUG_clean_linker_0, # of connection points: 2
#     Edge 51, Type (0, 0), BuildingBlock: OJICUG_clean_linker_0, # of connection points: 2
#     Edge 52, Type (0, 0), BuildingBlock: OJICUG_clean_linker_0, # of connection points: 2
#     Edge 53, Type (0, 0), BuildingBlock: OJICUG_clean_linker_0, # of connection points: 2
#     Edge 54, Type (0, 0), BuildingBlock: OJICUG_clean_linker_0, # of connection points: 2
#     Edge 55, Type (0, 0), BuildingBlock: OJICUG_clean_linker_0, # of connection points: 2
#     Edge 56, Type (0, 0), BuildingBlock: OJICUG_clean_linker_0, # of connection points: 2
#     Edge 57, Type (0, 0), BuildingBlock: OJICUG_clean_linker_0, # of connection points: 2
#     Edge 58, Type (0, 0), BuildingBlock: OJICUG_clean_linker_0, # of connection points: 2
#     Edge 59, Type (0, 0), BuildingBlock: OJICUG_clean_linker_0, # of connection points: 2
#     Edge 60, Type (0, 0), BuildingBlock: OJICUG_clean_linker_0, # of connection points: 2
#     Edge 61, Type (0, 0), BuildingBlock: OJICUG_clean_linker_0, # of connection points: 2
#     Edge 62, Type (0, 0), BuildingBlock: OJICUG_clean_linker_0, # of connection points: 2
#     Edge 63, Type (0, 0), BuildingBlock: OJICUG_clean_linker_0, # of connection points: 2
#     Edge 64, Type (0, 0), BuildingBlock: OJICUG_clean_linker_0, # of connection points: 2
#     Edge 65, Type (0, 0), BuildingBlock: OJICUG_clean_linker_0, # of connection points: 2
#     Edge 66, Type (0, 0), BuildingBlock: OJICUG_clean_linker_0, # of connection points: 2
#     Edge 67, Type (0, 0), BuildingBlock: OJICUG_clean_linker_0, # of connection points: 2
#     Edge 68, Type (0, 0), BuildingBlock: OJICUG_clean_linker_0, # of connection points: 2
#     Edge 69, Type (0, 0), BuildingBlock: OJICUG_clean_linker_0, # of connection points: 2
#     Edge 70, Type (0, 0), BuildingBlock: OJICUG_clean_linker_0, # of connection points: 2
#     Edge 71, Type (0, 0), BuildingBlock: OJICUG_clean_linker_0, # of connection points: 2
# Relax obj value: 0.253
# Max RMSD: 0.274
# Mean RMSD: 0.274
data_MOF--net-wmg--node1-OJICUG_clean_sbu_0--edge1-OJICUG_clean_linker_0
_symmetry_space_group_name_H-M    P1
_symmetry_Int_Tables_number       1
_symmetry_cell_setting            triclinic
loop_
_symmetry_equiv_pos_as_xyz
'x, y, z'
_cell_length_a     48.433808
_cell_length_b     48.433876
_cell_length_c     18.444028
_cell_angle_alpha  89.993317
_cell_angle_beta   90.011867
_cell_angle_gamma 120.00082
loop_
_atom_site_label
_atom_site_type_symbol
_atom_site_fract_x
_atom_site_fract_y
_atom_site_fract_z
_atom_type_partial_charge
Sc0 Sc 0.17979 0.24516 0.96942 0.0
Sc1 Sc 0.2178 0.30701 0.08808 0.0
Sc2 Sc 0.17104 0.23073 0.15161 0.0
O3 O 0.18914 0.26101 0.07029 0.0
C4 C 0.11404 0.2066 0.04668 0.0
C5 C 0.1746 0.30359 0.95309 0.0
C6 C 0.17169 0.29466 0.21183 0.0
C7 C 0.25221 0.30073 0.95973 0.0
C8 C 0.18761 0.1923 0.03172 0.0
C9 C 0.24169 0.27398 0.19515 0.0
O10 O 0.13261 0.2066 -0.00224 0.0
O11 O 0.19967 0.31962 0.99172 0.0
O12 O 0.16898 0.26711 0.22271 0.0
O13 O 0.22567 0.28334 0.92761 0.0
O14 O 0.17232 0.19208 0.08895 0.0
O15 O 0.23891 0.29836 0.1828 0.0
O16 O 0.19973 0.21582 0.98853 0.0
O17 O 0.25366 0.30451 0.02751 0.0
O18 O 0.2189 0.24567 0.18491 0.0
O19 O 0.15895 0.27353 0.95366 0.0
O20 O 0.12412 0.21694 0.11056 0.0
O21 O 0.18299 0.30983 0.15308 0.0
Sc22 Sc 0.74593 0.93275 0.97013 0.0
Sc23 Sc 0.68414 0.90898 0.08892 0.0
Sc24 Sc 0.76043 0.93836 0.15227 0.0
O25 O 0.73013 0.92627 0.07103 0.0
C26 C 0.78445 0.90544 0.04716 0.0
C27 C 0.68743 0.86918 0.95391 0.0
C28 C 0.69646 0.87515 0.21256 0.0
C29 C 0.69042 0.9497 0.96058 0.0
C30 C 0.7989 0.99338 0.03235 0.0
C31 C 0.7173 0.96588 0.19595 0.0
O32 O 0.78445 0.92405 -0.00169 0.0
O33 O 0.67144 0.87825 0.99255 0.0
O34 O 0.72404 0.89994 0.22341 0.0
O35 O 0.70779 0.94054 0.92845 0.0
O36 O 0.79911 0.97829 0.08957 0.0
O37 O 0.69289 0.93874 0.18366 0.0
O38 O 0.77535 0.98202 0.98922 0.0
O39 O 0.68665 0.94736 0.02837 0.0
O40 O 0.74559 0.97136 0.18567 0.0
O41 O 0.71749 0.88355 0.95442 0.0
O42 O 0.77414 0.90518 0.11108 0.0
O43 O 0.68128 0.87131 0.15384 0.0
Sc44 Sc 0.05859 0.81142 0.96857 0.0
Sc45 Sc 0.08227 0.77319 0.08704 0.0
Sc46 Sc 0.05292 0.82006 0.15081 0.0
O47 O 0.06503 0.80195 0.06941 0.0
C48 C 0.08585 0.87712 0.04608 0.0
C49 C 0.12213 0.81646 0.95223 0.0
C50 C 0.11613 0.81924 0.21095 0.0
C51 C 0.04159 0.73898 0.9585 0.0
C52 C -0.00209 0.80363 0.03088 0.0
C53 C 0.02537 0.74935 0.19416 0.0
O54 O 0.06728 0.8586 -0.00291 0.0
O55 O 0.11304 0.79135 0.99074 0.0
O56 O 0.09135 0.82204 0.22182 0.0
O57 O 0.05081 0.76555 0.92653 0.0
O58 O 0.01299 0.81885 0.0882 0.0
O59 O 0.05247 0.75203 0.18166 0.0
O60 O 0.00931 0.79156 0.98755 0.0
O61 O 0.04387 0.73745 0.02628 0.0
O62 O 0.01993 0.77219 0.18402 0.0
O63 O 0.1078 0.83218 0.95295 0.0
O64 O 0.08609 0.86699 0.10991 0.0
O65 O 0.11994 0.80786 0.15225 0.0
Sc66 Sc 0.81845 0.76216 0.83774 0.0
Sc67 Sc 0.77164 0.6859 0.9014 0.0
Sc68 Sc 0.80989 0.74777 0.01995 0.0
O69 O 0.80038 0.7319 0.9191 0.0
C70 C 0.87556 0.78627 0.94241 0.0
C71 C 0.81769 0.69819 0.77742 0.0
C72 C 0.81498 0.68928 0.03607 0.0
C73 C 0.74772 0.71897 0.7945 0.0
C74 C 0.80201 0.80065 0.95788 0.0
C75 C 0.73745 0.6923 0.03009 0.0
O76 O 0.86541 0.77593 0.87857 0.0
O77 O 0.80633 0.68298 0.83611 0.0
O78 O 0.83069 0.71934 0.0354 0.0
O79 O 0.77057 0.74727 0.80462 0.0
O80 O 0.78999 0.77716 0.00116 0.0
O81 O 0.73588 0.68844 0.96232 0.0
O82 O 0.81721 0.80084 0.9005 0.0
O83 O 0.75043 0.69456 0.80688 0.0
O84 O 0.76404 0.70966 0.06201 0.0
O85 O 0.82046 0.72576 0.76659 0.0
O86 O 0.85704 0.7863 0.99141 0.0
O87 O 0.78985 0.67327 -0.0024 0.0
Sc88 Sc 0.22925 0.0546 0.83795 0.0
Sc89 Sc 0.30549 0.08401 0.90175 0.0
Sc90 Sc 0.24356 0.06023 0.0202 0.0
O91 O 0.25948 0.06672 0.91937 0.0
C92 C 0.20508 0.08745 0.94279 0.0
C93 C 0.29322 0.11783 0.77781 0.0
C94 C 0.30202 0.12384 0.03663 0.0
C95 C 0.27245 0.0271 0.79449 0.0
C96 C 0.19074 -0.00046 0.95774 0.0
C97 C 0.29908 0.04334 0.0303 0.0
O98 O 0.21545 0.08773 0.87895 0.0
O99 O 0.30843 0.12165 0.8365 0.0
O100 O 0.27195 0.10943 0.03603 0.0
O101 O 0.24416 0.02165 0.80462 0.0
O102 O 0.21422 0.01095 0.00107 0.0
O103 O 0.30291 0.04565 0.96253 0.0
O104 O 0.19056 0.01464 0.9005 0.0
O105 O 0.29688 0.05418 0.80716 0.0
O106 O 0.28169 0.05251 0.06226 0.0
O107 O 0.26565 0.09305 0.76696 0.0
O108 O 0.20503 0.06884 0.99168 0.0
O109 O 0.31805 0.1148 -0.00196 0.0
Sc110 Sc 0.93667 0.17256 0.83789 0.0
Sc111 Sc 0.90723 0.2194 0.90129 0.0
Sc112 Sc 0.93107 0.18142 0.02006 0.0
O113 O 0.92455 0.19073 0.91916 0.0
C114 C 0.9038 0.11562 0.94301 0.0
C115 C 0.87343 0.17326 0.7776 0.0
C116 C 0.86745 0.17625 0.03632 0.0
C117 C 0.96412 0.2432 0.79415 0.0
C118 C 0.99172 0.18916 0.95775 0.0
C119 C 0.94794 0.25385 0.02964 0.0
O120 O 0.90352 0.12566 0.87909 0.0
O121 O 0.86958 0.18458 0.83633 0.0
O122 O 0.88187 0.16061 0.03588 0.0
O123 O 0.96962 0.2204 0.80446 0.0
O124 O 0.98034 0.20131 0.00091 0.0
O125 O 0.94559 0.25529 0.96185 0.0
O126 O 0.97661 0.17384 0.90057 0.0
O127 O 0.93699 0.24047 0.80657 0.0
O128 O 0.9388 0.22733 0.06178 0.0
O129 O 0.89823 0.1705 0.76676 0.0
O130 O 0.92242 0.13422 0.99184 0.0
O131 O 0.87649 0.20131 -0.00236 0.0
Sc132 Sc 0.84642 0.57864 0.30253 0.0
Sc133 Sc 0.88472 0.64053 0.42103 0.0
Sc134 Sc 0.83789 0.56428 0.48477 0.0
O135 O 0.85595 0.59452 0.40338 0.0
C136 C 0.78076 0.54018 0.38018 0.0
C137 C 0.84139 0.63716 0.28634 0.0
C138 C 0.8387 0.6283 0.54503 0.0
C139 C 0.91887 0.63408 0.29236 0.0
C140 C 0.85428 0.52574 0.36465 0.0
C141 C 0.90863 0.60746 0.52796 0.0
O142 O 0.79926 0.54014 0.33112 0.0
O143 O 0.86653 0.65316 0.32481 0.0
O144 O 0.83591 0.60072 0.55587 0.0
O145 O 0.89228 0.61673 0.26044 0.0
O146 O 0.8391 0.52558 0.42205 0.0
O147 O 0.90592 0.63187 0.51557 0.0
O148 O 0.86629 0.54922 0.32132 0.0
O149 O 0.92044 0.63791 0.36013 0.0
O150 O 0.88578 0.57917 0.51785 0.0
O151 O 0.82565 0.6071 0.28709 0.0
O152 O 0.79093 0.55052 0.444 0.0
O153 O 0.85006 0.64349 0.48633 0.0
Sc154 Sc 0.41271 0.26625 0.30294 0.0
Sc155 Sc 0.3508 0.2425 0.42142 0.0
Sc156 Sc 0.42704 0.27189 0.48519 0.0
O157 O 0.39681 0.25976 0.40378 0.0
C158 C 0.4512 0.23902 0.38036 0.0
C159 C 0.35424 0.20265 0.28653 0.0
C160 C 0.36305 0.20866 0.54534 0.0
C161 C 0.35721 0.28316 0.29287 0.0
C162 C 0.46555 0.32693 0.36537 0.0
C163 C 0.38386 0.29941 0.52867 0.0
O164 O 0.45124 0.25761 0.33143 0.0
O165 O 0.33821 0.21171 0.32512 0.0
O166 O 0.39064 0.23344 0.55619 0.0
O167 O 0.37459 0.27398 0.2609 0.0
O168 O 0.46573 0.31184 0.42263 0.0
O169 O 0.35943 0.27233 0.51601 0.0
O170 O 0.44208 0.31552 0.32204 0.0
O171 O 0.3534 0.28087 0.36064 0.0
O172 O 0.41215 0.30484 0.51853 0.0
O173 O 0.3843 0.21704 0.28715 0.0
O174 O 0.44083 0.23875 0.44419 0.0
O175 O 0.34784 0.20485 0.48666 0.0
Sc176 Sc 0.72518 0.14482 0.30261 0.0
Sc177 Sc 0.74894 0.10672 0.42126 0.0
Sc178 Sc 0.71966 0.15367 0.4848 0.0
O179 O 0.7317 0.13547 0.40348 0.0
C180 C 0.75255 0.21062 0.37972 0.0
C181 C 0.78872 0.14983 0.28617 0.0
C182 C 0.78286 0.15284 0.54493 0.0
C183 C 0.70818 0.07235 0.29297 0.0
C184 C 0.66459 0.13717 0.36506 0.0
C185 C 0.69211 0.08301 0.52857 0.0
O186 O 0.73393 0.19205 0.33086 0.0
O187 O 0.77965 0.12476 0.32484 0.0
O188 O 0.75809 0.15566 0.5558 0.0
O189 O 0.71735 0.09888 0.26083 0.0
O190 O 0.67972 0.15246 0.42226 0.0
O191 O 0.71921 0.08568 0.51604 0.0
O192 O 0.67592 0.125 0.32182 0.0
O193 O 0.7105 0.07091 0.36076 0.0
O194 O 0.68666 0.10585 0.51828 0.0
O195 O 0.77436 0.16553 0.28674 0.0
O196 O 0.75283 0.20056 0.4436 0.0
O197 O 0.78666 0.14147 0.48621 0.0
Sc198 Sc 0.48523 0.09569 0.17169 0.0
Sc199 Sc 0.43843 0.01943 0.2353 0.0
Sc200 Sc 0.47653 0.0813 0.35391 0.0
O201 O 0.46713 0.06543 0.25305 0.0
C202 C 0.54226 0.11981 0.27655 0.0
C203 C 0.48452 0.03173 0.11152 0.0
C204 C 0.48165 0.02283 0.37025 0.0
C205 C 0.41456 0.05247 0.1282 0.0
C206 C 0.46871 0.13417 0.2916 0.0
C207 C 0.40409 0.02579 0.36369 0.0
O208 O 0.53215 0.10947 0.21268 0.0
O209 O 0.4732 0.01655 0.17027 0.0
O210 O 0.49733 0.05289 0.36964 0.0
O211 O 0.43736 0.08077 0.13843 0.0
O212 O 0.45663 0.11067 0.33485 0.0
O213 O 0.40262 0.022 0.29591 0.0
O214 O 0.48397 0.13436 0.23433 0.0
O215 O 0.41732 0.02808 0.1406 0.0
O216 O 0.43064 0.04315 0.39577 0.0
O217 O 0.48726 0.05928 0.10064 0.0
O218 O 0.52371 0.11982 0.32551 0.0
O219 O 0.45656 0.00681 0.33167 0.0
Sc220 Sc 0.89587 0.38796 0.17069 0.0
Sc221 Sc 0.97215 0.4173 0.23416 0.0
Sc222 Sc 0.91034 0.39363 0.35286 0.0
O223 O 0.92616 0.40006 0.25197 0.0
C224 C 0.87185 0.42092 0.27569 0.0
C225 C 0.95987 0.45116 0.1104 0.0
C226 C 0.96887 0.45719 0.36903 0.0
C227 C 0.93898 0.36038 0.12707 0.0
C228 C 0.85739 0.33296 0.29066 0.0
C229 C 0.96579 0.37662 0.36263 0.0
O230 O 0.88217 0.42116 0.2118 0.0
O231 O 0.97508 0.45496 0.16908 0.0
O232 O 0.93881 0.44284 0.36847 0.0
O233 O 0.9107 0.35495 0.13731 0.0
O234 O 0.8809 0.34436 0.33388 0.0
O235 O 0.96958 0.37892 0.29484 0.0
O236 O 0.85719 0.34804 0.23339 0.0
O237 O 0.96342 0.38749 0.1395 0.0
O238 O 0.94846 0.38584 0.39468 0.0
O239 O 0.93228 0.42639 0.09958 0.0
O240 O 0.87183 0.40233 0.32459 0.0
O241 O 0.98485 0.44807 0.33046 0.0
Sc242 Sc 0.60333 0.50643 0.17232 0.0
Sc243 Sc 0.57407 0.55337 0.23619 0.0
Sc244 Sc 0.59773 0.51508 0.35458 0.0
O245 O 0.59127 0.52456 0.25376 0.0
C246 C 0.57041 0.44937 0.27708 0.0
C247 C 0.54014 0.50732 0.11229 0.0
C248 C 0.53421 0.5101 0.37105 0.0
C249 C 0.63093 0.57715 0.12888 0.0
C250 C 0.65837 0.52283 0.29212 0.0
C251 C 0.6148 0.58754 0.3647 0.0
O252 O 0.57016 0.45951 0.21326 0.0
O253 O 0.53636 0.51874 0.17098 0.0
O254 O 0.54853 0.49436 0.37031 0.0
O255 O 0.63634 0.55428 0.13902 0.0
O256 O 0.647 0.5349 0.33551 0.0
O257 O 0.61252 0.58907 0.29692 0.0
O258 O 0.64327 0.50762 0.23482 0.0
O259 O 0.60386 0.57453 0.14155 0.0
O260 O 0.60555 0.56096 0.39666 0.0
O261 O 0.56489 0.50447 0.10141 0.0
O262 O 0.589 0.46789 0.32605 0.0
O263 O 0.54332 0.53522 0.33254 0.0
Sc264 Sc 0.51324 0.91213 0.63662 0.0
Sc265 Sc 0.5513 0.97399 0.75528 0.0
Sc266 Sc 0.50439 0.89772 0.81879 0.0
O267 O 0.52259 0.92799 0.73749 0.0
C268 C 0.44745 0.87364 0.71368 0.0
C269 C 0.50812 0.97061 0.62025 0.0
C270 C 0.50516 0.9617 0.87899 0.0
C271 C 0.58567 0.96767 0.62688 0.0
C272 C 0.52095 0.85922 0.69902 0.0
C273 C 0.57506 0.94086 0.86254 0.0
O274 O 0.46604 0.8736 0.66488 0.0
O275 O 0.53318 0.98662 0.65893 0.0
O276 O 0.50235 0.93412 0.88984 0.0
O277 O 0.55913 0.95026 0.59481 0.0
O278 O 0.50565 0.85903 0.7562 0.0
O279 O 0.5724 0.9653 0.84998 0.0
O280 O 0.53312 0.88274 0.65582 0.0
O281 O 0.58715 0.97147 0.69466 0.0
O282 O 0.55222 0.91258 0.85229 0.0
O283 O 0.49246 0.94054 0.62077 0.0
O284 O 0.4575 0.88399 0.77757 0.0
O285 O 0.51654 0.97689 0.8203 0.0
Sc286 Sc 0.07955 0.5994 0.63544 0.0
Sc287 Sc 0.01765 0.57564 0.75395 0.0
Sc288 Sc 0.0939 0.60511 0.81768 0.0
O289 O 0.06366 0.59295 0.73628 0.0
C290 C 0.11802 0.57218 0.71295 0.0
C291 C 0.02108 0.53581 0.6191 0.0
C292 C 0.02992 0.54187 0.87787 0.0
C293 C 0.02404 0.61632 0.62544 0.0
C294 C 0.13241 0.6601 0.69771 0.0
C295 C 0.05067 0.63258 0.86095 0.0
O296 O 0.11807 0.59076 0.66398 0.0
O297 O 0.00506 0.54488 0.65765 0.0
O298 O 0.05748 0.56668 0.88876 0.0
O299 O 0.04141 0.60714 0.59344 0.0
O300 O 0.13259 0.64504 0.75503 0.0
O301 O 0.02629 0.60543 0.84858 0.0
O302 O 0.10892 0.64868 0.65444 0.0
O303 O 0.02021 0.614 0.69321 0.0
O304 O 0.07898 0.63808 0.85081 0.0
O305 O 0.05114 0.55018 0.61976 0.0
O306 O 0.10767 0.57195 0.7768 0.0
O307 O 0.01476 0.53801 0.81909 0.0
Sc308 Sc 0.39185 0.47829 0.63709 0.0
Sc309 Sc 0.41568 0.44028 0.75586 0.0
Sc310 Sc 0.38607 0.487 0.81925 0.0
O311 O 0.39829 0.46891 0.73799 0.0
C312 C 0.41894 0.54401 0.71436 0.0
C313 C 0.45553 0.48357 0.62104 0.0
C314 C 0.44934 0.48641 0.87975 0.0
C315 C 0.3751 0.40589 0.62725 0.0
C316 C 0.33109 0.47036 0.69915 0.0
C317 C 0.35866 0.41631 0.86268 0.0
O318 O 0.40038 0.52542 0.66544 0.0
O319 O 0.4465 0.4585 0.65967 0.0
O320 O 0.4245 0.48911 0.89053 0.0
O321 O 0.38422 0.43244 0.59523 0.0
O322 O 0.34613 0.48565 0.75643 0.0
O323 O 0.38582 0.41909 0.85039 0.0
O324 O 0.34255 0.45829 0.65601 0.0
O325 O 0.37743 0.4044 0.69503 0.0
O326 O 0.35315 0.43911 0.85248 0.0
O327 O 0.44108 0.49918 0.62151 0.0
O328 O 0.41919 0.53394 0.77826 0.0
O329 O 0.45323 0.47509 0.82106 0.0
Sc330 Sc 0.15181 0.42865 0.50454 0.0
Sc331 Sc 0.10491 0.35238 0.56805 0.0
Sc332 Sc 0.14295 0.41424 0.68672 0.0
O333 O 0.13362 0.39838 0.58584 0.0
C334 C 0.20874 0.45273 0.60967 0.0
C335 C 0.15107 0.36467 0.44439 0.0
C336 C 0.14808 0.35577 0.7031 0.0
C337 C 0.08116 0.38549 0.46077 0.0
C338 C 0.13523 0.46714 0.62428 0.0
C339 C 0.07051 0.35871 0.69639 0.0
O340 O 0.1987 0.44238 0.54578 0.0
O341 O 0.13969 0.34948 0.50308 0.0
O342 O 0.16373 0.38583 0.70258 0.0
O343 O 0.10399 0.41378 0.47104 0.0
O344 O 0.12307 0.44362 0.66747 0.0
O345 O 0.06906 0.35492 0.62861 0.0
O346 O 0.15055 0.46733 0.56712 0.0
O347 O 0.08383 0.36107 0.47332 0.0
O348 O 0.09705 0.37609 0.72849 0.0
O349 O 0.15386 0.39225 0.43352 0.0
O350 O 0.19015 0.45277 0.65847 0.0
O351 O 0.12301 0.33975 0.66445 0.0
Sc352 Sc 0.56231 0.72131 0.50536 0.0
Sc353 Sc 0.63857 0.75078 0.56895 0.0
Sc354 Sc 0.57672 0.72698 0.68756 0.0
O355 O 0.59258 0.73346 0.5867 0.0
C356 C 0.53823 0.75423 0.61022 0.0
C357 C 0.62628 0.78456 0.44517 0.0
C358 C 0.63519 0.79057 0.70387 0.0
C359 C 0.60553 0.69387 0.46195 0.0
C360 C 0.52382 0.66631 0.62529 0.0
C361 C 0.63223 0.71005 0.69731 0.0
O362 O 0.54855 0.75447 0.54634 0.0
O363 O 0.64143 0.78843 0.50397 0.0
O364 O 0.60513 0.77619 0.70328 0.0
O365 O 0.57722 0.68834 0.47216 0.0
O366 O 0.54734 0.67771 0.6685 0.0
O367 O 0.63604 0.7124 0.62954 0.0
O368 O 0.52363 0.68138 0.56802 0.0
O369 O 0.6299 0.72104 0.47422 0.0
O370 O 0.61487 0.71923 0.7294 0.0
O371 O 0.59873 0.75973 0.43426 0.0
O372 O 0.5382 0.73564 0.65915 0.0
O373 O 0.6512 0.7815 0.66531 0.0
Sc374 Sc 0.27018 0.83949 0.50399 0.0
Sc375 Sc 0.24061 0.88624 0.56738 0.0
Sc376 Sc 0.26438 0.84819 0.68614 0.0
O377 O 0.25796 0.85759 0.58524 0.0
C378 C 0.23727 0.78247 0.60885 0.0
C379 C 0.20692 0.84012 0.44351 0.0
C380 C 0.20073 0.84296 0.70214 0.0
C381 C 0.29762 0.91018 0.46057 0.0
C382 C 0.32514 0.85609 0.62413 0.0
C383 C 0.28121 0.92061 0.69598 0.0
O384 O 0.23703 0.79255 0.54496 0.0
O385 O 0.20304 0.85145 0.5022 0.0
O386 O 0.21515 0.82732 0.70163 0.0
O387 O 0.30312 0.88737 0.47078 0.0
O388 O 0.31368 0.86816 0.66728 0.0
O389 O 0.27889 0.92211 0.6282 0.0
O390 O 0.31011 0.84081 0.56683 0.0
O391 O 0.27046 0.90741 0.47283 0.0
O392 O 0.27205 0.89405 0.72799 0.0
O393 O 0.23175 0.8374 0.43272 0.0
O394 O 0.25582 0.80104 0.65779 0.0
O395 O 0.2098 0.86806 0.66358 0.0
C396 C 0.18692 0.11331 0.03541 0.0
C397 C 0.19626 0.11165 0.96375 0.0
H398 H 0.17685 0.14005 0.11363 0.0
C399 C 0.20077 0.13565 0.91466 0.0
H400 H 0.18331 0.09525 0.07488 0.0
C401 C 0.19748 0.16132 0.93716 0.0
C402 C 0.18937 0.16375 0.00939 0.0
H403 H 0.20799 0.13528 0.85924 0.0
H404 H 0.20175 0.17958 0.89762 0.0
C405 C 0.18336 0.13905 0.05792 0.0
C406 C 0.85217 0.0424 0.05846 0.0
C407 C 0.82748 0.02366 0.00994 0.0
H408 H 0.89596 0.08617 0.07532 0.0
C409 C 0.82993 0.03412 0.93764 0.0
H410 H 0.85114 0.03494 0.11423 0.0
C411 C 0.85561 0.06308 0.91504 0.0
C412 C 0.87959 0.08262 0.96411 0.0
H413 H 0.81169 0.0201 0.8981 0.0
H414 H 0.85599 0.0706 0.85956 0.0
C415 C 0.87791 0.07168 0.03586 0.0
C416 C 0.91964 0.80438 0.0349 0.0
C417 C 0.90859 0.79505 0.96325 0.0
H418 H 0.9565 0.81441 0.11299 0.0
C419 C 0.92803 0.79053 0.91406 0.0
H420 H 0.90523 0.808 0.07444 0.0
C421 C 0.95701 0.7938 0.93646 0.0
C422 C 0.9676 0.8019 0.00866 0.0
H423 H 0.92041 0.78333 0.85866 0.0
H424 H 0.97096 0.78953 0.89684 0.0
C425 C 0.94894 0.80791 0.05729 0.0
C426 C 0.80611 0.85385 0.93172 0.0
C427 C 0.80024 0.8292 0.98027 0.0
H428 H 0.80601 0.89759 0.91482 0.0
C429 C 0.79223 0.83165 0.05257 0.0
H430 H 0.81253 0.85283 0.87594 0.0
C431 C 0.78889 0.8573 0.07515 0.0
C432 C 0.79327 0.88125 0.02606 0.0
H433 H 0.78807 0.81344 0.09213 0.0
H434 H 0.78176 0.85768 0.13063 0.0
C435 C 0.80251 0.87956 0.9543 0.0
C436 C 0.1597 0.95862 0.05212 0.0
C437 C 0.16218 0.96921 0.97992 0.0
H438 H 0.13361 0.922 0.12988 0.0
C439 C 0.13753 0.95053 0.93125 0.0
H440 H 0.17791 0.97258 0.09175 0.0
C441 C 0.11179 0.92121 0.9536 0.0
C442 C 0.11007 0.91016 0.02525 0.0
H443 H 0.13858 0.95808 0.87555 0.0
H444 H 0.09377 0.90678 0.91404 0.0
C445 C 0.13402 0.92962 0.07447 0.0
C446 C 0.06151 0.20224 0.07482 0.0
C447 C 0.08101 0.19778 0.0257 0.0
H448 H 0.01855 0.20319 0.09189 0.0
C449 C 0.07002 0.18848 0.954 0.0
H450 H 0.06909 0.20942 0.13027 0.0
C451 C 0.04072 0.18492 0.93151 0.0
C452 C 0.02202 0.19089 0.98008 0.0
H453 H 0.08448 0.1849 0.91451 0.0
H454 H 0.03321 0.17845 0.87577 0.0
C455 C 0.03254 0.19895 0.05233 0.0
C456 C 0.86409 0.49472 0.27006 0.0
C457 C 0.85606 0.49719 0.34234 0.0
H458 H 0.87457 0.46867 0.1921 0.0
C459 C 0.85017 0.47255 0.39093 0.0
H460 H 0.86827 0.51293 0.23047 0.0
C461 C 0.85377 0.44683 0.36843 0.0
C462 C 0.86303 0.44513 0.2967 0.0
H463 H 0.84373 0.47358 0.44668 0.0
H464 H 0.85025 0.42881 0.40794 0.0
C465 C 0.86743 0.46907 0.24756 0.0
C466 C 0.52226 0.39687 0.24867 0.0
C467 C 0.5462 0.41633 0.2979 0.0
H468 H 0.47838 0.35389 0.23136 0.0
C469 C 0.54448 0.40528 0.36955 0.0
H470 H 0.52268 0.40448 0.19326 0.0
C471 C 0.51875 0.37595 0.39189 0.0
C472 C 0.4941 0.35727 0.34321 0.0
H473 H 0.5625 0.41972 0.40912 0.0
H474 H 0.51769 0.3684 0.44759 0.0
C475 C 0.49659 0.36786 0.27101 0.0
C476 C 0.58629 0.13785 0.36915 0.0
C477 C 0.57529 0.12863 0.29743 0.0
H478 H 0.62311 0.1478 0.4473 0.0
C479 C 0.59479 0.12423 0.24818 0.0
H480 H 0.57183 0.14138 0.40874 0.0
C481 C 0.62377 0.1275 0.27058 0.0
C482 C 0.6343 0.13548 0.34284 0.0
H483 H 0.58721 0.11711 0.19272 0.0
H484 H 0.63776 0.12332 0.23091 0.0
C485 C 0.6156 0.1414 0.39155 0.0
C486 C 0.45888 0.16519 0.38612 0.0
C487 C 0.46695 0.16273 0.31388 0.0
H488 H 0.44838 0.19125 0.464 0.0
C489 C 0.47291 0.1874 0.26529 0.0
H490 H 0.45465 0.14696 0.4257 0.0
C491 C 0.46934 0.21313 0.28775 0.0
C492 C 0.46003 0.21482 0.35943 0.0
H493 H 0.47939 0.18636 0.20957 0.0
H494 H 0.47291 0.23116 0.24824 0.0
C495 C 0.45557 0.19086 0.40858 0.0
C496 C 0.8007 0.26318 0.4078 0.0
C497 C 0.77675 0.24364 0.35868 0.0
H498 H 0.84458 0.30619 0.42486 0.0
C499 C 0.77844 0.2546 0.28694 0.0
H500 H 0.80031 0.25564 0.46327 0.0
C501 C 0.80417 0.28391 0.26442 0.0
C502 C 0.82883 0.30266 0.313 0.0
H503 H 0.76041 0.24011 0.24745 0.0
H504 H 0.8052 0.29138 0.20866 0.0
C505 C 0.82636 0.29216 0.38528 0.0
C506 C 0.6993 0.53261 0.38643 0.0
C507 C 0.68869 0.52455 0.31423 0.0
H508 H 0.73593 0.54306 0.46413 0.0
C509 C 0.70733 0.51857 0.26549 0.0
H510 H 0.68536 0.53686 0.42612 0.0
C511 C 0.73664 0.5221 0.28778 0.0
C512 C 0.74772 0.53139 0.35943 0.0
H513 H 0.69976 0.5121 0.20979 0.0
H514 H 0.75105 0.5185 0.24817 0.0
C515 C 0.72829 0.53588 0.40872 0.0
C516 C 0.53394 0.80244 0.58202 0.0
C517 C 0.52945 0.77846 0.63116 0.0
H518 H 0.53495 0.84638 0.5649 0.0
C519 C 0.52017 0.78019 0.70286 0.0
H520 H 0.54111 0.80202 0.52658 0.0
C521 C 0.51665 0.80595 0.72533 0.0
C522 C 0.52265 0.83063 0.67673 0.0
H523 H 0.51657 0.76214 0.74237 0.0
H524 H 0.5102 0.807 0.78106 0.0
C525 C 0.53069 0.82814 0.60449 0.0
C526 C 0.18564 0.70914 0.72401 0.0
C527 C 0.16098 0.69042 0.67541 0.0
H528 H 0.2294 0.75292 0.74103 0.0
C529 C 0.16345 0.70094 0.60315 0.0
H530 H 0.1846 0.70165 0.77975 0.0
C531 C 0.18912 0.72992 0.58066 0.0
C532 C 0.21307 0.74944 0.62981 0.0
H533 H 0.14523 0.68693 0.56355 0.0
H534 H 0.18951 0.73748 0.52521 0.0
C535 C 0.21137 0.73845 0.70152 0.0
C536 C 0.26129 0.45708 0.58181 0.0
C537 C 0.24176 0.46156 0.6308 0.0
H538 H 0.30429 0.45618 0.56497 0.0
C539 C 0.25271 0.4709 0.70251 0.0
H540 H 0.25375 0.44987 0.52637 0.0
C541 C 0.28201 0.47451 0.72514 0.0
C542 C 0.30076 0.46855 0.6767 0.0
H543 H 0.23822 0.47449 0.7419 0.0
H544 H 0.28949 0.48102 0.78087 0.0
C545 C 0.29027 0.46042 0.60444 0.0
C546 C 0.12219 0.52391 0.74119 0.0
C547 C 0.12678 0.54792 0.69206 0.0
H548 H 0.1211 0.47993 0.75831 0.0
C549 C 0.13612 0.54622 0.62042 0.0
H550 H 0.11497 0.52431 0.79659 0.0
C551 C 0.13962 0.52044 0.59798 0.0
C552 C 0.13354 0.49573 0.64655 0.0
H553 H 0.13979 0.5643 0.58093 0.0
H554 H 0.14613 0.51941 0.54229 0.0
C555 C 0.12542 0.49819 0.71874 0.0
C556 C 0.49279 0.62552 0.71993 0.0
C557 C 0.49525 0.63602 0.64766 0.0
H558 H 0.46672 0.589 0.79792 0.0
C559 C 0.47057 0.61729 0.5991 0.0
H560 H 0.51103 0.63952 0.75949 0.0
C561 C 0.44483 0.588 0.62164 0.0
C562 C 0.44314 0.57703 0.69335 0.0
H563 H 0.4716 0.62478 0.54335 0.0
H564 H 0.42678 0.57352 0.58215 0.0
C565 C 0.46711 0.59655 0.74246 0.0
C566 C 0.40349 0.85549 0.62084 0.0
C567 C 0.41444 0.86483 0.69255 0.0
H568 H 0.36672 0.84539 0.54245 0.0
C569 C 0.39491 0.86932 0.74152 0.0
H570 H 0.41798 0.85189 0.58146 0.0
C571 C 0.36595 0.866 0.71886 0.0
C572 C 0.35545 0.85788 0.6466 0.0
H573 H 0.40246 0.87654 0.79696 0.0
H574 H 0.35193 0.87025 0.75833 0.0
C575 C 0.3742 0.8519 0.59818 0.0
C576 C 0.19102 0.34692 0.86266 0.0
C577 C 0.16709 0.31859 0.89331 0.0
H578 H 0.20424 0.37995 0.77535 0.0
C579 C 0.1373 0.30153 0.85845 0.0
H580 H 0.21436 0.36014 0.88751 0.0
C581 C 0.13165 0.31243 0.79351 0.0
C582 C 0.15558 0.34076 0.76287 0.0
H583 H 0.11844 0.27939 0.88082 0.0
H584 H 0.10831 0.29921 0.76867 0.0
C585 C 0.18538 0.35781 0.79772 0.0
C586 C 0.6894 0.83389 0.85933 0.0
C587 C 0.67238 0.84667 0.89416 0.0
H588 H 0.6917 0.80725 0.76953 0.0
C589 C 0.64407 0.84232 0.8635 0.0
H590 H 0.71153 0.83713 0.88172 0.0
C591 C 0.63317 0.82581 0.79855 0.0
C592 C 0.6502 0.81305 0.7637 0.0
H593 H 0.63089 0.85248 0.88833 0.0
H594 H 0.61105 0.82257 0.77615 0.0
C595 C 0.67851 0.81739 0.79437 0.0
C596 C 0.17388 0.8594 0.79264 0.0
C597 C 0.17822 0.83545 0.7619 0.0
H598 H 0.15414 0.87263 0.88007 0.0
C599 C 0.16545 0.80564 0.79667 0.0
H600 H 0.18403 0.88275 0.76787 0.0
C601 C 0.14895 0.8 0.86164 0.0
C602 C 0.14461 0.82395 0.8924 0.0
H603 H 0.16869 0.78677 0.77422 0.0
H604 H 0.1388 0.77665 0.88643 0.0
C605 C 0.15737 0.85376 0.85761 0.0
C606 C 0.85227 0.69131 0.13072 0.0
C607 C 0.82246 0.67428 0.09592 0.0
H608 H 0.88124 0.69363 0.22052 0.0
C609 C 0.79849 0.646 0.12669 0.0
H610 H 0.87115 0.71341 0.10826 0.0
C611 C 0.80411 0.63513 0.19169 0.0
C612 C 0.83392 0.65216 0.22649 0.0
H613 H 0.77514 0.63281 0.10189 0.0
H614 H 0.78523 0.61304 0.21415 0.0
C615 C 0.85789 0.68044 0.19572 0.0
C616 C 0.29995 0.15908 0.13127 0.0
C617 C 0.31702 0.14637 0.09641 0.0
H618 H 0.29763 0.18577 0.22099 0.0
C619 C 0.34538 0.15083 0.12702 0.0
H620 H 0.27779 0.15576 0.10893 0.0
C621 C 0.35629 0.1674 0.19191 0.0
C622 C 0.33922 0.18012 0.22677 0.0
H623 H 0.35862 0.14073 0.10218 0.0
H624 H 0.37846 0.17073 0.21424 0.0
C625 C 0.31086 0.17566 0.19616 0.0
C626 C 0.81564 0.13336 0.19587 0.0
C627 C 0.81122 0.1573 0.2264 0.0
H628 H 0.83549 0.12012 0.10869 0.0
C629 C 0.82395 0.18708 0.19147 0.0
H630 H 0.80553 0.11004 0.22078 0.0
C631 C 0.8405 0.1927 0.12657 0.0
C632 C 0.84492 0.16876 0.09604 0.0
H633 H 0.82066 0.20594 0.21375 0.0
H634 H 0.85062 0.21602 0.10167 0.0
C635 C 0.83219 0.13898 0.13097 0.0
C636 C 0.47083 0.96859 0.52563 0.0
C637 C 0.50063 0.98564 0.56051 0.0
H638 H 0.44187 0.96627 0.43583 0.0
C639 C 0.52456 0.01397 0.52989 0.0
H640 H 0.45197 0.94644 0.54798 0.0
C641 C 0.51893 0.02488 0.46496 0.0
C642 C 0.48914 0.00782 0.43007 0.0
H643 H 0.5479 0.02718 0.55474 0.0
H644 H 0.53779 0.04702 0.4426 0.0
C645 C 0.4652 0.97949 0.4607 0.0
C646 C 0.02311 0.50056 0.52445 0.0
C647 C 0.00607 0.51333 0.55928 0.0
H648 H 0.0254 0.47388 0.43469 0.0
C649 C 0.97777 0.50898 0.52857 0.0
H650 H 0.04523 0.5038 0.54687 0.0
C651 C 0.96688 0.49247 0.46361 0.0
C652 C 0.98391 0.47969 0.4288 0.0
H653 H 0.96458 0.51913 0.55339 0.0
H654 H 0.94477 0.48923 0.4412 0.0
C655 C 0.01221 0.48404 0.4595 0.0
C656 C 0.49082 0.5209 0.52651 0.0
C657 C 0.47807 0.4911 0.56133 0.0
H658 H 0.51747 0.54989 0.43674 0.0
C659 C 0.48247 0.46717 0.53067 0.0
H660 H 0.48753 0.53975 0.54889 0.0
C661 C 0.499 0.47282 0.46574 0.0
C662 C 0.51174 0.50262 0.4309 0.0
H663 H 0.47234 0.44383 0.55548 0.0
H664 H 0.50227 0.45396 0.44335 0.0
C665 C 0.50735 0.52655 0.46158 0.0
C666 C 0.2831 0.25809 0.1867 0.0
C667 C 0.27326 0.2788 0.21459 0.0
H668 H 0.31908 0.24472 0.1863 0.0
C669 C 0.29436 0.30471 0.25761 0.0
H670 H 0.26756 0.23844 0.15162 0.0
C671 C 0.32376 0.3082 0.27759 0.0
C672 C 0.33285 0.28643 0.25285 0.0
H673 H 0.28751 0.32131 0.2786 0.0
H674 H 0.33863 0.32678 0.31569 0.0
C675 C 0.31286 0.26213 0.20494 0.0
C676 C 0.72921 0.04894 0.20533 0.0
C677 C 0.70489 0.04467 0.25314 0.0
H678 H 0.75289 0.02727 0.15226 0.0
C679 C 0.68313 0.01384 0.27802 0.0
H680 H 0.74662 0.07255 0.18659 0.0
C681 C 0.68661 0.9879 0.25824 0.0
C682 C 0.71252 0.99266 0.21529 0.0
H683 H 0.66454 0.01017 0.31606 0.0
H684 H 0.67 0.96446 0.27931 0.0
C685 C 0.73324 0.0232 0.18729 0.0
C686 C 0.94225 0.67835 0.20427 0.0
C687 C 0.94652 0.65835 0.25226 0.0
H688 H 0.96395 0.7236 0.15074 0.0
C689 C 0.97737 0.66737 0.27694 0.0
H690 H 0.91864 0.67218 0.18565 0.0
C691 C 0.00333 0.69671 0.25682 0.0
C692 C -0.00142 0.71783 0.21372 0.0
H693 H 0.98105 0.65249 0.3151 0.0
H694 H 0.02679 0.70352 0.27777 0.0
C695 C 0.96802 0.70805 0.18588 0.0
C696 C 0.695 0.68833 0.73219 0.0
C697 C 0.71617 0.71422 0.77517 0.0
H698 H 0.65069 0.66634 0.67426 0.0
C699 C 0.7064 0.73498 0.80315 0.0
H700 H 0.7018 0.6717 0.71112 0.0
C701 C 0.67665 0.731 0.78505 0.0
C702 C 0.65659 0.70671 0.73719 0.0
H703 H 0.72199 0.75461 0.83821 0.0
H704 H 0.67048 0.74843 0.80378 0.0
C705 C 0.66561 0.68491 0.71235 0.0
C706 C 0.26034 0.944 0.78409 0.0
C707 C 0.28456 0.94827 0.73597 0.0
H708 H 0.23684 0.96568 0.83786 0.0
C709 C 0.30634 0.97912 0.71121 0.0
H710 H 0.24293 0.92038 0.80277 0.0
C711 C 0.30298 0.00508 0.73145 0.0
C712 C 0.27716 0.00032 0.77475 0.0
H713 H 0.32486 0.9828 0.67294 0.0
H714 H 0.31959 0.02853 0.71047 0.0
C715 C 0.25642 0.96976 0.8026 0.0
C716 C 0.02143 0.2846 0.80258 0.0
C717 C 0.99088 0.27474 0.77458 0.0
H718 H 0.07077 0.3206 0.80308 0.0
C719 C 0.98609 0.2958 0.73137 0.0
H720 H 0.02553 0.26909 0.83779 0.0
C721 C 0.01201 0.32519 0.71136 0.0
C722 C 0.04285 0.33431 0.73626 0.0
H723 H 0.96264 0.28893 0.71029 0.0
H724 H 0.00831 0.34004 0.67314 0.0
C725 C 0.04715 0.31435 0.78431 0.0
C726 C 0.94994 0.59144 0.51938 0.0
C727 C 0.94018 0.61221 0.54731 0.0
H728 H 0.98583 0.57795 0.51888 0.0
C729 C 0.96134 0.6381 0.5903 0.0
H730 H 0.93435 0.5718 0.48432 0.0
C731 C 0.99072 0.6415 0.61022 0.0
C732 C -0.00028 0.61968 0.58545 0.0
H733 H 0.95455 0.65474 0.61132 0.0
H734 H 0.00563 0.66007 0.64831 0.0
C735 C 0.97968 0.5954 0.53755 0.0
C736 C 0.3999 0.35675 0.5206 0.0
C737 C 0.37916 0.32619 0.54843 0.0
H738 H 0.4134 0.40613 0.52046 0.0
C739 C 0.35334 0.32143 0.59172 0.0
H740 H 0.41949 0.36083 0.48534 0.0
C741 C 0.34998 0.34739 0.61198 0.0
C742 C 0.37176 0.37824 0.58723 0.0
H743 H 0.33672 0.29797 0.61269 0.0
H744 H 0.33146 0.3437 0.65025 0.0
C745 C 0.39598 0.38252 0.53911 0.0
C746 C 0.67012 0.03046 0.59158 0.0
C747 C 0.66534 0.05151 0.5483 0.0
H748 H 0.64788 0.98628 0.65001 0.0
C749 C 0.63478 0.04167 0.5204 0.0
H750 H 0.69358 0.03732 0.61259 0.0
C751 C 0.60904 0.01196 0.53882 0.0
C752 C 0.61333 0.99201 0.58693 0.0
H753 H 0.63069 0.05717 0.48514 0.0
H754 H 0.58542 0.00573 0.52011 0.0
C755 C 0.64418 0.00111 0.61175 0.0
C756 C 0.34343 0.06437 0.11821 0.0
C757 C 0.32343 0.04006 0.07032 0.0
H758 H 0.38871 0.08805 0.17159 0.0
C759 C 0.33252 0.01828 0.04563 0.0
H760 H 0.33721 0.08178 0.13682 0.0
C761 C 0.3619 0.02175 0.06567 0.0
C762 C 0.38301 0.04766 0.10869 0.0
H763 H 0.31764 -0.00031 0.00753 0.0
H764 H 0.36876 0.00514 0.04472 0.0
C765 C 0.37317 0.06839 0.13651 0.0
C766 C 0.92693 0.27728 0.1173 0.0
C767 C 0.95123 0.28154 0.06945 0.0
H768 H 0.90331 0.29897 0.17055 0.0
C769 C 0.97301 0.31237 0.04462 0.0
H770 H 0.9095 0.25367 0.136 0.0
C771 C 0.96959 0.33832 0.06453 0.0
C772 C 0.9437 0.33358 0.10756 0.0
H773 H 0.99159 0.31604 0.00654 0.0
H774 H 0.98622 0.36177 0.04351 0.0
C775 C 0.92294 0.30304 0.13547 0.0
C776 C 0.71407 0.64807 0.11831 0.0
C777 C 0.70979 0.66803 0.0702 0.0
H778 H 0.69236 0.60288 0.17212 0.0
C779 C 0.67895 0.65901 0.04555 0.0
H780 H 0.73769 0.65425 0.13691 0.0
C781 C 0.65297 0.6297 0.06586 0.0
C782 C 0.65772 0.60862 0.10911 0.0
H783 H 0.67526 0.67385 0.0073 0.0
H784 H 0.62951 0.62289 0.04495 0.0
C785 C 0.68829 0.6184 0.13688 0.0
C786 C 0.6164 0.92488 0.85417 0.0
C787 C 0.60657 0.94558 0.88219 0.0
H788 H 0.65233 0.91145 0.85373 0.0
C789 C 0.62763 0.97139 0.92552 0.0
H790 H 0.60089 0.90531 0.81887 0.0
C791 C 0.65698 0.97478 0.94563 0.0
C792 C 0.66607 0.95304 0.92069 0.0
H793 H 0.62078 0.98797 0.94663 0.0
H794 H 0.67183 0.99328 0.98393 0.0
C795 C 0.64611 0.92884 0.87253 0.0
C796 C 0.06658 0.68988 0.85237 0.0
C797 C 0.04587 0.65934 0.88032 0.0
H798 H 0.07998 0.73924 0.85187 0.0
C799 C 0.01997 0.65455 0.92333 0.0
H800 H 0.08622 0.69398 0.81729 0.0
C801 C 0.01651 0.68049 0.94327 0.0
C802 C 0.03828 0.71133 0.91849 0.0
H803 H 0.00336 0.6311 0.94436 0.0
H804 H -0.00207 0.67679 0.98138 0.0
C805 C 0.06257 0.71562 0.87056 0.0
C806 C 0.31071 0.33418 0.94478 0.0
C807 C 0.27988 0.32511 0.91987 0.0
H808 H 0.36009 0.37043 0.9461 0.0
C809 C 0.27562 0.34514 0.87197 0.0
H810 H 0.31438 0.31928 0.98288 0.0
C811 C 0.30136 0.37491 0.85391 0.0
C812 C 0.33189 0.38473 0.88197 0.0
H813 H 0.25201 0.33893 0.85319 0.0
H814 H 0.29729 0.39048 0.81883 0.0
C815 C 0.33665 0.36359 0.92498 0.0
C816 C 0.01011 0.39753 0.45064 0.0
C817 C 0.99014 0.37329 0.40256 0.0
H818 H 0.05534 0.42108 0.50427 0.0
C819 C -0.00078 0.35153 0.37773 0.0
H820 H 0.0039 0.41493 0.46936 0.0
C821 C 0.02857 0.35493 0.39786 0.0
C822 C 0.04965 0.38076 0.44111 0.0
H823 H 0.98437 0.333 0.3395 0.0
H824 H 0.03542 0.33832 0.37684 0.0
C825 C 0.03982 0.40149 0.46903 0.0
C826 C 0.63632 0.67194 0.39977 0.0
C827 C 0.61037 0.66712 0.44265 0.0
H828 H 0.65845 0.64974 0.34191 0.0
C829 C 0.58966 0.63657 0.47056 0.0
H830 H 0.65293 0.69539 0.37877 0.0
C831 C 0.59373 0.61086 0.45246 0.0
C832 C 0.61807 0.61518 0.40467 0.0
H833 H 0.56998 0.63246 0.50555 0.0
H834 H 0.57632 0.58723 0.47112 0.0
C835 C 0.63983 0.64602 0.37994 0.0
C836 C 0.34559 0.99235 0.37868 0.0
C837 C 0.37641 0.0014 0.40354 0.0
H838 H 0.29621 0.95611 0.37734 0.0
C839 C 0.38068 0.98134 0.45134 0.0
H840 H 0.34191 0.00728 0.34065 0.0
C841 C 0.35493 0.95156 0.46935 0.0
C842 C 0.3244 0.94176 0.44133 0.0
H843 H 0.40428 0.98753 0.47008 0.0
H844 H 0.359 0.93597 0.50436 0.0
C845 C 0.31964 0.96293 0.39843 0.0
C846 C 0.16817 0.34197 0.25806 0.0
C847 C 0.1651 0.31177 0.27114 0.0
H848 H 0.16674 0.38241 0.3014 0.0
C849 C 0.15823 0.29976 0.34217 0.0
H850 H 0.17361 0.35228 0.20424 0.0
C851 C 0.15459 0.31735 0.39819 0.0
C852 C 0.15767 0.34755 0.3851 0.0
H853 H 0.15603 0.27691 0.35484 0.0
H854 H 0.14915 0.30705 0.45201 0.0
C855 C 0.16454 0.35956 0.31407 0.0
C856 C 0.64913 0.8243 0.25874 0.0
C857 C 0.67931 0.85144 0.27188 0.0
H858 H 0.60866 0.78242 0.30203 0.0
C859 C 0.69126 0.85661 0.34298 0.0
H860 H 0.63887 0.8194 0.20486 0.0
C861 C 0.67362 0.8354 0.39899 0.0
C862 C 0.64344 0.80826 0.38584 0.0
H863 H 0.71409 0.87727 0.3557 0.0
H864 H 0.68388 0.8403 0.45287 0.0
C865 C 0.6315 0.80308 0.31475 0.0
C866 C 0.13479 0.83282 0.34122 0.0
C867 C 0.13988 0.82587 0.27024 0.0
H868 H 0.15121 0.84203 0.45101 0.0
C869 C 0.167 0.82279 0.25719 0.0
H870 H 0.11415 0.83505 0.35387 0.0
C871 C 0.18827 0.8265 0.3132 0.0
C872 C 0.18318 0.83346 0.38418 0.0
H873 H 0.17183 0.81728 0.2034 0.0
H874 H 0.20892 0.82429 0.30056 0.0
C875 C 0.15606 0.83654 0.39722 0.0
C876 C 0.83515 0.67562 0.59123 0.0
C877 C 0.83203 0.6454 0.60429 0.0
H878 H 0.83364 0.71604 0.63452 0.0
C879 C 0.825 0.63333 0.67525 0.0
H880 H 0.8407 0.68598 0.53745 0.0
C881 C 0.82125 0.65087 0.73121 0.0
C882 C 0.82437 0.68109 0.71815 0.0
H883 H 0.82275 0.61045 0.68792 0.0
H884 H 0.8157 0.64051 0.78498 0.0
C885 C 0.83139 0.69316 0.64718 0.0
C886 C 0.2982 0.13655 0.64761 0.0
C887 C 0.31031 0.14159 0.71854 0.0
H888 H 0.30533 0.15304 0.53787 0.0
C889 C 0.34055 0.16866 0.73154 0.0
H890 H 0.2753 0.11595 0.635 0.0
C891 C 0.35809 0.18994 0.67554 0.0
C892 C 0.34597 0.1849 0.60461 0.0
H893 H 0.35095 0.17345 0.78528 0.0
H894 H 0.38098 0.21054 0.68815 0.0
C895 C 0.31573 0.15783 0.59162 0.0
C896 C 0.80143 0.16623 0.67528 0.0
C897 C 0.80657 0.15938 0.60424 0.0
H898 H 0.81776 0.17524 0.78515 0.0
C899 C 0.83366 0.15626 0.59118 0.0
H900 H 0.7808 0.16847 0.68794 0.0
C901 C 0.85487 0.15985 0.64722 0.0
C902 C 0.84973 0.1667 0.71826 0.0
H903 H 0.83853 0.15083 0.53734 0.0
H904 H 0.8755 0.15761 0.63456 0.0
C905 C 0.82263 0.16982 0.73132 0.0
C906 C 0.488 0.98439 0.0653 0.0
C907 C 0.49111 0.0146 0.05222 0.0
H908 H 0.48942 0.94394 0.02196 0.0
C909 C 0.498 0.02662 0.9812 0.0
H910 H 0.48254 0.97407 0.11911 0.0
C911 C 0.50165 0.00903 0.9252 0.0
C912 C 0.49855 0.97882 0.93828 0.0
H913 H 0.50023 0.04948 0.96853 0.0
H914 H 0.50711 0.01934 0.87138 0.0
C915 C 0.49165 0.9668 0.00929 0.0
C916 C 0.00721 0.502 0.06419 0.0
C917 C 0.977 0.47489 0.0511 0.0
H918 H 0.04767 0.54388 0.02087 0.0
C919 C 0.96498 0.46979 0.98008 0.0
H920 H 0.01753 0.50684 0.11801 0.0
C921 C 0.98257 0.49104 0.92408 0.0
C922 C 0.01279 0.51814 0.93717 0.0
H923 H 0.94212 0.44916 0.9674 0.0
H924 H 0.97226 0.48619 0.87027 0.0
C925 C 0.0248 0.52325 0.0082 0.0
C926 C 0.50019 0.48998 0.92606 0.0
C927 C 0.47308 0.49309 0.93908 0.0
H928 H 0.54208 0.49145 0.96943 0.0
C929 C 0.468 0.50008 0.01005 0.0
H930 H 0.50502 0.48445 0.8723 0.0
C931 C 0.48928 0.50381 0.06605 0.0
C932 C 0.51638 0.50068 0.05303 0.0
H933 H 0.44738 0.50232 0.02266 0.0
H934 H 0.48447 0.50934 0.11983 0.0
C935 C 0.52146 0.49369 0.98206 0.0
loop_
_geom_bond_atom_site_label_1
_geom_bond_atom_site_label_2
_geom_bond_distance
_geom_bond_site_symmetry_2
_ccdc_geom_bond_type
Sc0 O3 2.025 1_556 S
Sc0 O10 2.105 . S
Sc0 O13 2.105 . S
Sc0 O16 2.105 . S
Sc0 O19 2.105 . S
Sc1 O3 2.025 . S
Sc1 O11 2.105 . S
Sc1 O15 2.105 . S
Sc1 O17 2.105 1_554 S
Sc1 O21 2.105 . S
Sc2 O3 2.025 . S
Sc2 O12 2.105 . S
Sc2 O14 2.105 . S
Sc2 O18 2.105 . S
Sc2 O20 2.105 . S
O3 Sc0 2.025 1_554 S
O3 Sc1 2.025 . S
O3 Sc2 2.025 . S
C4 O10 1.268 1_554 S
C4 O20 1.268 . S
C5 O11 1.268 1_556 S
C5 O19 1.268 . S
C6 O12 1.268 . S
C6 O21 1.268 . S
C7 O13 1.268 . S
C7 O17 1.268 . S
C8 O14 1.268 . S
C8 O16 1.268 1_554 S
C9 O15 1.268 . S
C9 O18 1.268 . S
O10 Sc0 2.105 . S
O10 C4 1.268 1_556 S
O11 Sc1 2.105 . S
O11 C5 1.268 1_554 S
O12 Sc2 2.105 . S
O12 C6 1.268 . S
O13 Sc0 2.105 . S
O13 C7 1.268 . S
O14 Sc2 2.105 . S
O14 C8 1.268 . S
O15 Sc1 2.105 . S
O15 C9 1.268 . S
O16 Sc0 2.105 . S
O16 C8 1.268 1_556 S
O17 Sc1 2.105 1_556 S
O17 C7 1.268 . S
O18 Sc2 2.105 . S
O18 C9 1.268 . S
O19 Sc0 2.105 . S
O19 C5 1.268 . S
O20 Sc2 2.105 . S
O20 C4 1.268 . S
O21 Sc1 2.105 . S
O21 C6 1.268 . S
Sc22 O25 2.025 1_556 S
Sc22 O32 2.105 . S
Sc22 O35 2.105 . S
Sc22 O38 2.105 . S
Sc22 O41 2.105 . S
Sc23 O25 2.025 . S
Sc23 O33 2.105 . S
Sc23 O37 2.105 . S
Sc23 O39 2.105 1_554 S
Sc23 O43 2.105 . S
Sc24 O25 2.025 . S
Sc24 O34 2.105 . S
Sc24 O36 2.105 . S
Sc24 O40 2.105 . S
Sc24 O42 2.105 . S
O25 Sc22 2.025 1_554 S
O25 Sc23 2.025 . S
O25 Sc24 2.025 . S
C26 O32 1.268 1_554 S
C26 O42 1.268 . S
C27 O33 1.268 1_556 S
C27 O41 1.268 . S
C28 O34 1.268 . S
C28 O43 1.268 . S
C29 O35 1.268 . S
C29 O39 1.268 . S
C30 O36 1.268 . S
C30 O38 1.268 1_554 S
C31 O37 1.268 . S
C31 O40 1.268 . S
O32 Sc22 2.105 . S
O32 C26 1.268 1_556 S
O33 Sc23 2.105 . S
O33 C27 1.268 1_554 S
O34 Sc24 2.105 . S
O34 C28 1.268 . S
O35 Sc22 2.105 . S
O35 C29 1.268 . S
O36 Sc24 2.105 . S
O36 C30 1.268 . S
O37 Sc23 2.105 . S
O37 C31 1.268 . S
O38 Sc22 2.105 . S
O38 C30 1.268 1_556 S
O39 Sc23 2.105 1_556 S
O39 C29 1.268 . S
O40 Sc24 2.105 . S
O40 C31 1.268 . S
O41 Sc22 2.105 . S
O41 C27 1.268 . S
O42 Sc24 2.105 . S
O42 C26 1.268 . S
O43 Sc23 2.105 . S
O43 C28 1.268 . S
Sc44 O47 2.025 1_556 S
Sc44 O54 2.105 . S
Sc44 O57 2.105 . S
Sc44 O60 2.105 . S
Sc44 O63 2.105 . S
Sc45 O47 2.025 . S
Sc45 O55 2.105 . S
Sc45 O59 2.105 . S
Sc45 O61 2.105 1_554 S
Sc45 O65 2.105 . S
Sc46 O47 2.025 . S
Sc46 O56 2.105 . S
Sc46 O58 2.105 . S
Sc46 O62 2.105 . S
Sc46 O64 2.105 . S
O47 Sc44 2.025 1_554 S
O47 Sc45 2.025 . S
O47 Sc46 2.025 . S
C48 O54 1.268 1_554 S
C48 O64 1.268 . S
C49 O55 1.268 1_556 S
C49 O63 1.268 . S
C50 O56 1.268 . S
C50 O65 1.268 . S
C51 O57 1.268 . S
C51 O61 1.268 . S
C52 O58 1.268 . S
C52 O60 1.268 1_554 S
C53 O59 1.268 . S
C53 O62 1.268 . S
O54 Sc44 2.105 . S
O54 C48 1.268 1_556 S
O55 Sc45 2.105 . S
O55 C49 1.268 1_554 S
O56 Sc46 2.105 . S
O56 C50 1.268 . S
O57 Sc44 2.105 . S
O57 C51 1.268 . S
O58 Sc46 2.105 . S
O58 C52 1.268 . S
O59 Sc45 2.105 . S
O59 C53 1.268 . S
O60 Sc44 2.105 . S
O60 C52 1.268 1_556 S
O61 Sc45 2.105 1_556 S
O61 C51 1.268 . S
O62 Sc46 2.105 . S
O62 C53 1.268 . S
O63 Sc44 2.105 . S
O63 C49 1.268 . S
O64 Sc46 2.105 . S
O64 C48 1.268 . S
O65 Sc45 2.105 . S
O65 C50 1.268 . S
Sc66 O69 2.025 . S
Sc66 O76 2.105 . S
Sc66 O79 2.105 . S
Sc66 O82 2.105 . S
Sc66 O85 2.105 . S
Sc67 O69 2.025 . S
Sc67 O77 2.105 . S
Sc67 O81 2.105 1_556 S
Sc67 O83 2.105 . S
Sc67 O87 2.105 . S
Sc68 O69 2.025 1_554 S
Sc68 O78 2.105 . S
Sc68 O80 2.105 . S
Sc68 O84 2.105 . S
Sc68 O86 2.105 . S
O69 Sc66 2.025 . S
O69 Sc67 2.025 . S
O69 Sc68 2.025 1_556 S
C70 O76 1.268 . S
C70 O86 1.268 1_556 S
C71 O77 1.268 . S
C71 O85 1.268 . S
C72 O78 1.268 . S
C72 O87 1.268 1_554 S
C73 O79 1.268 . S
C73 O83 1.268 . S
C74 O80 1.268 1_556 S
C74 O82 1.268 . S
C75 O81 1.268 . S
C75 O84 1.268 . S
O76 Sc66 2.105 . S
O76 C70 1.268 . S
O77 Sc67 2.105 . S
O77 C71 1.268 . S
O78 Sc68 2.105 . S
O78 C72 1.268 . S
O79 Sc66 2.105 . S
O79 C73 1.268 . S
O80 Sc68 2.105 . S
O80 C74 1.268 1_554 S
O81 Sc67 2.105 1_554 S
O81 C75 1.268 . S
O82 Sc66 2.105 . S
O82 C74 1.268 . S
O83 Sc67 2.105 . S
O83 C73 1.268 . S
O84 Sc68 2.105 . S
O84 C75 1.268 . S
O85 Sc66 2.105 . S
O85 C71 1.268 . S
O86 Sc68 2.105 . S
O86 C70 1.268 1_554 S
O87 Sc67 2.105 . S
O87 C72 1.268 1_556 S
Sc88 O91 2.025 . S
Sc88 O98 2.105 . S
Sc88 O101 2.105 . S
Sc88 O104 2.105 . S
Sc88 O107 2.105 . S
Sc89 O91 2.025 . S
Sc89 O99 2.105 . S
Sc89 O103 2.105 1_556 S
Sc89 O105 2.105 . S
Sc89 O109 2.105 . S
Sc90 O91 2.025 1_554 S
Sc90 O100 2.105 . S
Sc90 O102 2.105 . S
Sc90 O106 2.105 . S
Sc90 O108 2.105 . S
O91 Sc88 2.025 . S
O91 Sc89 2.025 . S
O91 Sc90 2.025 1_556 S
C92 O98 1.268 . S
C92 O108 1.268 1_556 S
C93 O99 1.268 . S
C93 O107 1.268 . S
C94 O100 1.268 . S
C94 O109 1.268 1_554 S
C95 O101 1.268 . S
C95 O105 1.268 . S
C96 O102 1.268 1_556 S
C96 O104 1.268 . S
C97 O103 1.268 . S
C97 O106 1.268 . S
O98 Sc88 2.105 . S
O98 C92 1.268 . S
O99 Sc89 2.105 . S
O99 C93 1.268 . S
O100 Sc90 2.105 . S
O100 C94 1.268 . S
O101 Sc88 2.105 . S
O101 C95 1.268 . S
O102 Sc90 2.105 . S
O102 C96 1.268 1_554 S
O103 Sc89 2.105 1_554 S
O103 C97 1.268 . S
O104 Sc88 2.105 . S
O104 C96 1.268 . S
O105 Sc89 2.105 . S
O105 C95 1.268 . S
O106 Sc90 2.105 . S
O106 C97 1.268 . S
O107 Sc88 2.105 . S
O107 C93 1.268 . S
O108 Sc90 2.105 . S
O108 C92 1.268 1_554 S
O109 Sc89 2.105 . S
O109 C94 1.268 1_556 S
Sc110 O113 2.025 . S
Sc110 O120 2.105 . S
Sc110 O123 2.105 . S
Sc110 O126 2.105 . S
Sc110 O129 2.105 . S
Sc111 O113 2.025 . S
Sc111 O121 2.105 . S
Sc111 O125 2.105 1_556 S
Sc111 O127 2.105 . S
Sc111 O131 2.105 . S
Sc112 O113 2.025 1_554 S
Sc112 O122 2.105 . S
Sc112 O124 2.105 . S
Sc112 O128 2.105 . S
Sc112 O130 2.105 . S
O113 Sc110 2.025 . S
O113 Sc111 2.025 . S
O113 Sc112 2.025 1_556 S
C114 O120 1.268 . S
C114 O130 1.268 1_556 S
C115 O121 1.268 . S
C115 O129 1.268 . S
C116 O122 1.268 . S
C116 O131 1.268 1_554 S
C117 O123 1.268 . S
C117 O127 1.268 . S
C118 O124 1.268 1_556 S
C118 O126 1.268 . S
C119 O125 1.268 . S
C119 O128 1.268 . S
O120 Sc110 2.105 . S
O120 C114 1.268 . S
O121 Sc111 2.105 . S
O121 C115 1.268 . S
O122 Sc112 2.105 . S
O122 C116 1.268 . S
O123 Sc110 2.105 . S
O123 C117 1.268 . S
O124 Sc112 2.105 . S
O124 C118 1.268 1_554 S
O125 Sc111 2.105 1_554 S
O125 C119 1.268 . S
O126 Sc110 2.105 . S
O126 C118 1.268 . S
O127 Sc111 2.105 . S
O127 C117 1.268 . S
O128 Sc112 2.105 . S
O128 C119 1.268 . S
O129 Sc110 2.105 . S
O129 C115 1.268 . S
O130 Sc112 2.105 . S
O130 C114 1.268 1_554 S
O131 Sc111 2.105 . S
O131 C116 1.268 1_556 S
Sc132 O135 2.025 . S
Sc132 O142 2.105 . S
Sc132 O145 2.105 . S
Sc132 O148 2.105 . S
Sc132 O151 2.105 . S
Sc133 O135 2.025 . S
Sc133 O143 2.105 . S
Sc133 O147 2.105 . S
Sc133 O149 2.105 . S
Sc133 O153 2.105 . S
Sc134 O135 2.025 . S
Sc134 O144 2.105 . S
Sc134 O146 2.105 . S
Sc134 O150 2.105 . S
Sc134 O152 2.105 . S
O135 Sc132 2.025 . S
O135 Sc133 2.025 . S
O135 Sc134 2.025 . S
C136 O142 1.268 . S
C136 O152 1.268 . S
C137 O143 1.268 . S
C137 O151 1.268 . S
C138 O144 1.268 . S
C138 O153 1.268 . S
C139 O145 1.268 . S
C139 O149 1.268 . S
C140 O146 1.268 . S
C140 O148 1.268 . S
C141 O147 1.268 . S
C141 O150 1.268 . S
O142 Sc132 2.105 . S
O142 C136 1.268 . S
O143 Sc133 2.105 . S
O143 C137 1.268 . S
O144 Sc134 2.105 . S
O144 C138 1.268 . S
O145 Sc132 2.105 . S
O145 C139 1.268 . S
O146 Sc134 2.105 . S
O146 C140 1.268 . S
O147 Sc133 2.105 . S
O147 C141 1.268 . S
O148 Sc132 2.105 . S
O148 C140 1.268 . S
O149 Sc133 2.105 . S
O149 C139 1.268 . S
O150 Sc134 2.105 . S
O150 C141 1.268 . S
O151 Sc132 2.105 . S
O151 C137 1.268 . S
O152 Sc134 2.105 . S
O152 C136 1.268 . S
O153 Sc133 2.105 . S
O153 C138 1.268 . S
Sc154 O157 2.025 . S
Sc154 O164 2.105 . S
Sc154 O167 2.105 . S
Sc154 O170 2.105 . S
Sc154 O173 2.105 . S
Sc155 O157 2.025 . S
Sc155 O165 2.105 . S
Sc155 O169 2.105 . S
Sc155 O171 2.105 . S
Sc155 O175 2.105 . S
Sc156 O157 2.025 . S
Sc156 O166 2.105 . S
Sc156 O168 2.105 . S
Sc156 O172 2.105 . S
Sc156 O174 2.105 . S
O157 Sc154 2.025 . S
O157 Sc155 2.025 . S
O157 Sc156 2.025 . S
C158 O164 1.268 . S
C158 O174 1.268 . S
C159 O165 1.268 . S
C159 O173 1.268 . S
C160 O166 1.268 . S
C160 O175 1.268 . S
C161 O167 1.268 . S
C161 O171 1.268 . S
C162 O168 1.268 . S
C162 O170 1.268 . S
C163 O169 1.268 . S
C163 O172 1.268 . S
O164 Sc154 2.105 . S
O164 C158 1.268 . S
O165 Sc155 2.105 . S
O165 C159 1.268 . S
O166 Sc156 2.105 . S
O166 C160 1.268 . S
O167 Sc154 2.105 . S
O167 C161 1.268 . S
O168 Sc156 2.105 . S
O168 C162 1.268 . S
O169 Sc155 2.105 . S
O169 C163 1.268 . S
O170 Sc154 2.105 . S
O170 C162 1.268 . S
O171 Sc155 2.105 . S
O171 C161 1.268 . S
O172 Sc156 2.105 . S
O172 C163 1.268 . S
O173 Sc154 2.105 . S
O173 C159 1.268 . S
O174 Sc156 2.105 . S
O174 C158 1.268 . S
O175 Sc155 2.105 . S
O175 C160 1.268 . S
Sc176 O179 2.025 . S
Sc176 O186 2.105 . S
Sc176 O189 2.105 . S
Sc176 O192 2.105 . S
Sc176 O195 2.105 . S
Sc177 O179 2.025 . S
Sc177 O187 2.105 . S
Sc177 O191 2.105 . S
Sc177 O193 2.105 . S
Sc177 O197 2.105 . S
Sc178 O179 2.025 . S
Sc178 O188 2.105 . S
Sc178 O190 2.105 . S
Sc178 O194 2.105 . S
Sc178 O196 2.105 . S
O179 Sc176 2.025 . S
O179 Sc177 2.025 . S
O179 Sc178 2.025 . S
C180 O186 1.268 . S
C180 O196 1.268 . S
C181 O187 1.268 . S
C181 O195 1.268 . S
C182 O188 1.268 . S
C182 O197 1.268 . S
C183 O189 1.268 . S
C183 O193 1.268 . S
C184 O190 1.268 . S
C184 O192 1.268 . S
C185 O191 1.268 . S
C185 O194 1.268 . S
O186 Sc176 2.105 . S
O186 C180 1.268 . S
O187 Sc177 2.105 . S
O187 C181 1.268 . S
O188 Sc178 2.105 . S
O188 C182 1.268 . S
O189 Sc176 2.105 . S
O189 C183 1.268 . S
O190 Sc178 2.105 . S
O190 C184 1.268 . S
O191 Sc177 2.105 . S
O191 C185 1.268 . S
O192 Sc176 2.105 . S
O192 C184 1.268 . S
O193 Sc177 2.105 . S
O193 C183 1.268 . S
O194 Sc178 2.105 . S
O194 C185 1.268 . S
O195 Sc176 2.105 . S
O195 C181 1.268 . S
O196 Sc178 2.105 . S
O196 C180 1.268 . S
O197 Sc177 2.105 . S
O197 C182 1.268 . S
Sc198 O201 2.025 . S
Sc198 O208 2.105 . S
Sc198 O211 2.105 . S
Sc198 O214 2.105 . S
Sc198 O217 2.105 . S
Sc199 O201 2.025 . S
Sc199 O209 2.105 . S
Sc199 O213 2.105 . S
Sc199 O215 2.105 . S
Sc199 O219 2.105 1_545 S
Sc200 O201 2.025 . S
Sc200 O210 2.105 . S
Sc200 O212 2.105 . S
Sc200 O216 2.105 . S
Sc200 O218 2.105 . S
O201 Sc198 2.025 . S
O201 Sc199 2.025 . S
O201 Sc200 2.025 . S
C202 O208 1.268 . S
C202 O218 1.268 . S
C203 O209 1.268 . S
C203 O217 1.268 . S
C204 O210 1.268 . S
C204 O219 1.268 1_545 S
C205 O211 1.268 . S
C205 O215 1.268 . S
C206 O212 1.268 . S
C206 O214 1.268 . S
C207 O213 1.268 . S
C207 O216 1.268 . S
O208 Sc198 2.105 . S
O208 C202 1.268 . S
O209 Sc199 2.105 . S
O209 C203 1.268 . S
O210 Sc200 2.105 . S
O210 C204 1.268 . S
O211 Sc198 2.105 . S
O211 C205 1.268 . S
O212 Sc200 2.105 . S
O212 C206 1.268 . S
O213 Sc199 2.105 . S
O213 C207 1.268 . S
O214 Sc198 2.105 . S
O214 C206 1.268 . S
O215 Sc199 2.105 . S
O215 C205 1.268 . S
O216 Sc200 2.105 . S
O216 C207 1.268 . S
O217 Sc198 2.105 . S
O217 C203 1.268 . S
O218 Sc200 2.105 . S
O218 C202 1.268 . S
O219 Sc199 2.105 1_565 S
O219 C204 1.268 1_565 S
Sc220 O223 2.025 . S
Sc220 O230 2.105 . S
Sc220 O233 2.105 . S
Sc220 O236 2.105 . S
Sc220 O239 2.105 . S
Sc221 O223 2.025 . S
Sc221 O231 2.105 . S
Sc221 O235 2.105 . S
Sc221 O237 2.105 . S
Sc221 O241 2.105 1_655 S
Sc222 O223 2.025 . S
Sc222 O232 2.105 . S
Sc222 O234 2.105 . S
Sc222 O238 2.105 . S
Sc222 O240 2.105 . S
O223 Sc220 2.025 . S
O223 Sc221 2.025 . S
O223 Sc222 2.025 . S
C224 O230 1.268 . S
C224 O240 1.268 . S
C225 O231 1.268 . S
C225 O239 1.268 . S
C226 O232 1.268 . S
C226 O241 1.268 1_655 S
C227 O233 1.268 . S
C227 O237 1.268 . S
C228 O234 1.268 . S
C228 O236 1.268 . S
C229 O235 1.268 . S
C229 O238 1.268 . S
O230 Sc220 2.105 . S
O230 C224 1.268 . S
O231 Sc221 2.105 . S
O231 C225 1.268 . S
O232 Sc222 2.105 . S
O232 C226 1.268 . S
O233 Sc220 2.105 . S
O233 C227 1.268 . S
O234 Sc222 2.105 . S
O234 C228 1.268 . S
O235 Sc221 2.105 . S
O235 C229 1.268 . S
O236 Sc220 2.105 . S
O236 C228 1.268 . S
O237 Sc221 2.105 . S
O237 C227 1.268 . S
O238 Sc222 2.105 . S
O238 C229 1.268 . S
O239 Sc220 2.105 . S
O239 C225 1.268 . S
O240 Sc222 2.105 . S
O240 C224 1.268 . S
O241 Sc221 2.105 1_455 S
O241 C226 1.268 1_455 S
Sc242 O245 2.025 . S
Sc242 O252 2.105 . S
Sc242 O255 2.105 . S
Sc242 O258 2.105 . S
Sc242 O261 2.105 . S
Sc243 O245 2.025 . S
Sc243 O253 2.105 . S
Sc243 O257 2.105 . S
Sc243 O259 2.105 . S
Sc243 O263 2.105 . S
Sc244 O245 2.025 . S
Sc244 O254 2.105 . S
Sc244 O256 2.105 . S
Sc244 O260 2.105 . S
Sc244 O262 2.105 . S
O245 Sc242 2.025 . S
O245 Sc243 2.025 . S
O245 Sc244 2.025 . S
C246 O252 1.268 . S
C246 O262 1.268 . S
C247 O253 1.268 . S
C247 O261 1.268 . S
C248 O254 1.268 . S
C248 O263 1.268 . S
C249 O255 1.268 . S
C249 O259 1.268 . S
C250 O256 1.268 . S
C250 O258 1.268 . S
C251 O257 1.268 . S
C251 O260 1.268 . S
O252 Sc242 2.105 . S
O252 C246 1.268 . S
O253 Sc243 2.105 . S
O253 C247 1.268 . S
O254 Sc244 2.105 . S
O254 C248 1.268 . S
O255 Sc242 2.105 . S
O255 C249 1.268 . S
O256 Sc244 2.105 . S
O256 C250 1.268 . S
O257 Sc243 2.105 . S
O257 C251 1.268 . S
O258 Sc242 2.105 . S
O258 C250 1.268 . S
O259 Sc243 2.105 . S
O259 C249 1.268 . S
O260 Sc244 2.105 . S
O260 C251 1.268 . S
O261 Sc242 2.105 . S
O261 C247 1.268 . S
O262 Sc244 2.105 . S
O262 C246 1.268 . S
O263 Sc243 2.105 . S
O263 C248 1.268 . S
Sc264 O267 2.025 . S
Sc264 O274 2.105 . S
Sc264 O277 2.105 . S
Sc264 O280 2.105 . S
Sc264 O283 2.105 . S
Sc265 O267 2.025 . S
Sc265 O275 2.105 1_565 S
Sc265 O279 2.105 . S
Sc265 O281 2.105 . S
Sc265 O285 2.105 . S
Sc266 O267 2.025 . S
Sc266 O276 2.105 . S
Sc266 O278 2.105 . S
Sc266 O282 2.105 . S
Sc266 O284 2.105 . S
O267 Sc264 2.025 . S
O267 Sc265 2.025 . S
O267 Sc266 2.025 . S
C268 O274 1.268 . S
C268 O284 1.268 . S
C269 O275 1.268 1_565 S
C269 O283 1.268 . S
C270 O276 1.268 . S
C270 O285 1.268 . S
C271 O277 1.268 . S
C271 O281 1.268 . S
C272 O278 1.268 . S
C272 O280 1.268 . S
C273 O279 1.268 . S
C273 O282 1.268 . S
O274 Sc264 2.105 . S
O274 C268 1.268 . S
O275 Sc265 2.105 1_545 S
O275 C269 1.268 1_545 S
O276 Sc266 2.105 . S
O276 C270 1.268 . S
O277 Sc264 2.105 . S
O277 C271 1.268 . S
O278 Sc266 2.105 . S
O278 C272 1.268 . S
O279 Sc265 2.105 . S
O279 C273 1.268 . S
O280 Sc264 2.105 . S
O280 C272 1.268 . S
O281 Sc265 2.105 . S
O281 C271 1.268 . S
O282 Sc266 2.105 . S
O282 C273 1.268 . S
O283 Sc264 2.105 . S
O283 C269 1.268 . S
O284 Sc266 2.105 . S
O284 C268 1.268 . S
O285 Sc265 2.105 . S
O285 C270 1.268 . S
Sc286 O289 2.025 . S
Sc286 O296 2.105 . S
Sc286 O299 2.105 . S
Sc286 O302 2.105 . S
Sc286 O305 2.105 . S
Sc287 O289 2.025 . S
Sc287 O297 2.105 1_455 S
Sc287 O301 2.105 . S
Sc287 O303 2.105 . S
Sc287 O307 2.105 . S
Sc288 O289 2.025 . S
Sc288 O298 2.105 . S
Sc288 O300 2.105 . S
Sc288 O304 2.105 . S
Sc288 O306 2.105 . S
O289 Sc286 2.025 . S
O289 Sc287 2.025 . S
O289 Sc288 2.025 . S
C290 O296 1.268 . S
C290 O306 1.268 . S
C291 O297 1.268 1_455 S
C291 O305 1.268 . S
C292 O298 1.268 . S
C292 O307 1.268 . S
C293 O299 1.268 . S
C293 O303 1.268 . S
C294 O300 1.268 . S
C294 O302 1.268 . S
C295 O301 1.268 . S
C295 O304 1.268 . S
O296 Sc286 2.105 . S
O296 C290 1.268 . S
O297 Sc287 2.105 1_655 S
O297 C291 1.268 1_655 S
O298 Sc288 2.105 . S
O298 C292 1.268 . S
O299 Sc286 2.105 . S
O299 C293 1.268 . S
O300 Sc288 2.105 . S
O300 C294 1.268 . S
O301 Sc287 2.105 . S
O301 C295 1.268 . S
O302 Sc286 2.105 . S
O302 C294 1.268 . S
O303 Sc287 2.105 . S
O303 C293 1.268 . S
O304 Sc288 2.105 . S
O304 C295 1.268 . S
O305 Sc286 2.105 . S
O305 C291 1.268 . S
O306 Sc288 2.105 . S
O306 C290 1.268 . S
O307 Sc287 2.105 . S
O307 C292 1.268 . S
Sc308 O311 2.025 . S
Sc308 O318 2.105 . S
Sc308 O321 2.105 . S
Sc308 O324 2.105 . S
Sc308 O327 2.105 . S
Sc309 O311 2.025 . S
Sc309 O319 2.105 . S
Sc309 O323 2.105 . S
Sc309 O325 2.105 . S
Sc309 O329 2.105 . S
Sc310 O311 2.025 . S
Sc310 O320 2.105 . S
Sc310 O322 2.105 . S
Sc310 O326 2.105 . S
Sc310 O328 2.105 . S
O311 Sc308 2.025 . S
O311 Sc309 2.025 . S
O311 Sc310 2.025 . S
C312 O318 1.268 . S
C312 O328 1.268 . S
C313 O319 1.268 . S
C313 O327 1.268 . S
C314 O320 1.268 . S
C314 O329 1.268 . S
C315 O321 1.268 . S
C315 O325 1.268 . S
C316 O322 1.268 . S
C316 O324 1.268 . S
C317 O323 1.268 . S
C317 O326 1.268 . S
O318 Sc308 2.105 . S
O318 C312 1.268 . S
O319 Sc309 2.105 . S
O319 C313 1.268 . S
O320 Sc310 2.105 . S
O320 C314 1.268 . S
O321 Sc308 2.105 . S
O321 C315 1.268 . S
O322 Sc310 2.105 . S
O322 C316 1.268 . S
O323 Sc309 2.105 . S
O323 C317 1.268 . S
O324 Sc308 2.105 . S
O324 C316 1.268 . S
O325 Sc309 2.105 . S
O325 C315 1.268 . S
O326 Sc310 2.105 . S
O326 C317 1.268 . S
O327 Sc308 2.105 . S
O327 C313 1.268 . S
O328 Sc310 2.105 . S
O328 C312 1.268 . S
O329 Sc309 2.105 . S
O329 C314 1.268 . S
Sc330 O333 2.025 . S
Sc330 O340 2.105 . S
Sc330 O343 2.105 . S
Sc330 O346 2.105 . S
Sc330 O349 2.105 . S
Sc331 O333 2.025 . S
Sc331 O341 2.105 . S
Sc331 O345 2.105 . S
Sc331 O347 2.105 . S
Sc331 O351 2.105 . S
Sc332 O333 2.025 . S
Sc332 O342 2.105 . S
Sc332 O344 2.105 . S
Sc332 O348 2.105 . S
Sc332 O350 2.105 . S
O333 Sc330 2.025 . S
O333 Sc331 2.025 . S
O333 Sc332 2.025 . S
C334 O340 1.268 . S
C334 O350 1.268 . S
C335 O341 1.268 . S
C335 O349 1.268 . S
C336 O342 1.268 . S
C336 O351 1.268 . S
C337 O343 1.268 . S
C337 O347 1.268 . S
C338 O344 1.268 . S
C338 O346 1.268 . S
C339 O345 1.268 . S
C339 O348 1.268 . S
O340 Sc330 2.105 . S
O340 C334 1.268 . S
O341 Sc331 2.105 . S
O341 C335 1.268 . S
O342 Sc332 2.105 . S
O342 C336 1.268 . S
O343 Sc330 2.105 . S
O343 C337 1.268 . S
O344 Sc332 2.105 . S
O344 C338 1.268 . S
O345 Sc331 2.105 . S
O345 C339 1.268 . S
O346 Sc330 2.105 . S
O346 C338 1.268 . S
O347 Sc331 2.105 . S
O347 C337 1.268 . S
O348 Sc332 2.105 . S
O348 C339 1.268 . S
O349 Sc330 2.105 . S
O349 C335 1.268 . S
O350 Sc332 2.105 . S
O350 C334 1.268 . S
O351 Sc331 2.105 . S
O351 C336 1.268 . S
Sc352 O355 2.025 . S
Sc352 O362 2.105 . S
Sc352 O365 2.105 . S
Sc352 O368 2.105 . S
Sc352 O371 2.105 . S
Sc353 O355 2.025 . S
Sc353 O363 2.105 . S
Sc353 O367 2.105 . S
Sc353 O369 2.105 . S
Sc353 O373 2.105 . S
Sc354 O355 2.025 . S
Sc354 O364 2.105 . S
Sc354 O366 2.105 . S
Sc354 O370 2.105 . S
Sc354 O372 2.105 . S
O355 Sc352 2.025 . S
O355 Sc353 2.025 . S
O355 Sc354 2.025 . S
C356 O362 1.268 . S
C356 O372 1.268 . S
C357 O363 1.268 . S
C357 O371 1.268 . S
C358 O364 1.268 . S
C358 O373 1.268 . S
C359 O365 1.268 . S
C359 O369 1.268 . S
C360 O366 1.268 . S
C360 O368 1.268 . S
C361 O367 1.268 . S
C361 O370 1.268 . S
O362 Sc352 2.105 . S
O362 C356 1.268 . S
O363 Sc353 2.105 . S
O363 C357 1.268 . S
O364 Sc354 2.105 . S
O364 C358 1.268 . S
O365 Sc352 2.105 . S
O365 C359 1.268 . S
O366 Sc354 2.105 . S
O366 C360 1.268 . S
O367 Sc353 2.105 . S
O367 C361 1.268 . S
O368 Sc352 2.105 . S
O368 C360 1.268 . S
O369 Sc353 2.105 . S
O369 C359 1.268 . S
O370 Sc354 2.105 . S
O370 C361 1.268 . S
O371 Sc352 2.105 . S
O371 C357 1.268 . S
O372 Sc354 2.105 . S
O372 C356 1.268 . S
O373 Sc353 2.105 . S
O373 C358 1.268 . S
Sc374 O377 2.025 . S
Sc374 O384 2.105 . S
Sc374 O387 2.105 . S
Sc374 O390 2.105 . S
Sc374 O393 2.105 . S
Sc375 O377 2.025 . S
Sc375 O385 2.105 . S
Sc375 O389 2.105 . S
Sc375 O391 2.105 . S
Sc375 O395 2.105 . S
Sc376 O377 2.025 . S
Sc376 O386 2.105 . S
Sc376 O388 2.105 . S
Sc376 O392 2.105 . S
Sc376 O394 2.105 . S
O377 Sc374 2.025 . S
O377 Sc375 2.025 . S
O377 Sc376 2.025 . S
C378 O384 1.268 . S
C378 O394 1.268 . S
C379 O385 1.268 . S
C379 O393 1.268 . S
C380 O386 1.268 . S
C380 O395 1.268 . S
C381 O387 1.268 . S
C381 O391 1.268 . S
C382 O388 1.268 . S
C382 O390 1.268 . S
C383 O389 1.268 . S
C383 O392 1.268 . S
O384 Sc374 2.105 . S
O384 C378 1.268 . S
O385 Sc375 2.105 . S
O385 C379 1.268 . S
O386 Sc376 2.105 . S
O386 C380 1.268 . S
O387 Sc374 2.105 . S
O387 C381 1.268 . S
O388 Sc376 2.105 . S
O388 C382 1.268 . S
O389 Sc375 2.105 . S
O389 C383 1.268 . S
O390 Sc374 2.105 . S
O390 C382 1.268 . S
O391 Sc375 2.105 . S
O391 C381 1.268 . S
O392 Sc376 2.105 . S
O392 C383 1.268 . S
O393 Sc374 2.105 . S
O393 C379 1.268 . S
O394 Sc376 2.105 . S
O394 C378 1.268 . S
O395 Sc375 2.105 . S
O395 C380 1.268 . S
C396 C397 1.387 1_554 S
C396 H400 0.950 . S
C396 C405 1.390 . S
C397 C396 1.387 1_556 S
C397 C399 1.387 . S
H398 C405 0.950 . S
C399 C397 1.387 . S
C399 C401 1.390 . S
C399 H403 0.950 . S
H400 C396 0.950 . S
C401 C399 1.390 . S
C401 C402 1.387 . S
C401 H404 0.950 . S
C402 C401 1.387 . S
C402 C405 1.387 1_556 S
H403 C399 0.950 . S
H404 C401 0.950 . S
C405 C396 1.390 . S
C405 H398 0.950 . S
C405 C402 1.387 1_554 S
C406 C407 1.387 1_554 S
C406 H410 0.950 . S
C406 C415 1.390 . S
C407 C406 1.387 1_556 S
C407 C409 1.387 . S
H408 C415 0.950 . S
C409 C407 1.387 . S
C409 C411 1.390 . S
C409 H413 0.950 . S
H410 C406 0.950 . S
C411 C409 1.390 . S
C411 C412 1.387 . S
C411 H414 0.950 . S
C412 C411 1.387 . S
C412 C415 1.387 1_556 S
H413 C409 0.950 . S
H414 C411 0.950 . S
C415 C406 1.390 . S
C415 H408 0.950 . S
C415 C412 1.387 1_554 S
C416 C417 1.387 1_554 S
C416 H420 0.950 . S
C416 C425 1.390 . S
C417 C416 1.387 1_556 S
C417 C419 1.387 . S
H418 C425 0.950 . S
C419 C417 1.387 . S
C419 C421 1.390 . S
C419 H423 0.950 . S
H420 C416 0.950 . S
C421 C419 1.390 . S
C421 C422 1.387 . S
C421 H424 0.950 . S
C422 C421 1.387 . S
C422 C425 1.387 1_556 S
H423 C419 0.950 . S
H424 C421 0.950 . S
C425 C416 1.390 . S
C425 H418 0.950 . S
C425 C422 1.387 1_554 S
C426 C427 1.387 1_556 S
C426 H430 0.950 . S
C426 C435 1.390 . S
C427 C426 1.387 1_554 S
C427 C429 1.387 . S
H428 C435 0.950 . S
C429 C427 1.387 . S
C429 C431 1.390 . S
C429 H433 0.950 . S
H430 C426 0.950 . S
C431 C429 1.390 . S
C431 C432 1.387 . S
C431 H434 0.950 . S
C432 C431 1.387 . S
C432 C435 1.387 1_554 S
H433 C429 0.950 . S
H434 C431 0.950 . S
C435 C426 1.390 . S
C435 H428 0.950 . S
C435 C432 1.387 1_556 S
C436 C437 1.387 . S
C436 H440 0.950 . S
C436 C445 1.390 . S
C437 C436 1.387 . S
C437 C439 1.387 1_554 S
H438 C445 0.950 . S
C439 C437 1.387 1_556 S
C439 C441 1.390 . S
C439 H443 0.950 . S
H440 C436 0.950 . S
C441 C439 1.390 . S
C441 C442 1.387 1_556 S
C441 H444 0.950 . S
C442 C441 1.387 1_554 S
C442 C445 1.387 . S
H443 C439 0.950 . S
H444 C441 0.950 . S
C445 C436 1.390 . S
C445 H438 0.950 . S
C445 C442 1.387 . S
C446 C447 1.387 . S
C446 H450 0.950 1_554 S
C446 C455 1.390 1_554 S
C447 C446 1.387 . S
C447 C449 1.387 . S
H448 C455 0.950 . S
C449 C447 1.387 . S
C449 C451 1.390 . S
C449 H453 0.950 . S
H450 C446 0.950 1_556 S
C451 C449 1.390 . S
C451 C452 1.387 . S
C451 H454 0.950 . S
C452 C451 1.387 . S
C452 C455 1.387 1_554 S
H453 C449 0.950 . S
H454 C451 0.950 . S
C455 C446 1.390 1_556 S
C455 H448 0.950 . S
C455 C452 1.387 1_556 S
C456 C457 1.387 . S
C456 H460 0.950 . S
C456 C465 1.390 . S
C457 C456 1.387 . S
C457 C459 1.387 . S
H458 C465 0.950 . S
C459 C457 1.387 . S
C459 C461 1.390 . S
C459 H463 0.950 . S
H460 C456 0.950 . S
C461 C459 1.390 . S
C461 C462 1.387 . S
C461 H464 0.950 . S
C462 C461 1.387 . S
C462 C465 1.387 . S
H463 C459 0.950 . S
H464 C461 0.950 . S
C465 C456 1.390 . S
C465 H458 0.950 . S
C465 C462 1.387 . S
C466 C467 1.387 . S
C466 H470 0.950 . S
C466 C475 1.390 . S
C467 C466 1.387 . S
C467 C469 1.387 . S
H468 C475 0.950 . S
C469 C467 1.387 . S
C469 C471 1.390 . S
C469 H473 0.950 . S
H470 C466 0.950 . S
C471 C469 1.390 . S
C471 C472 1.387 . S
C471 H474 0.950 . S
C472 C471 1.387 . S
C472 C475 1.387 . S
H473 C469 0.950 . S
H474 C471 0.950 . S
C475 C466 1.390 . S
C475 H468 0.950 . S
C475 C472 1.387 . S
C476 C477 1.387 . S
C476 H480 0.950 . S
C476 C485 1.390 . S
C477 C476 1.387 . S
C477 C479 1.387 . S
H478 C485 0.950 . S
C479 C477 1.387 . S
C479 C481 1.390 . S
C479 H483 0.950 . S
H480 C476 0.950 . S
C481 C479 1.390 . S
C481 C482 1.387 . S
C481 H484 0.950 . S
C482 C481 1.387 . S
C482 C485 1.387 . S
H483 C479 0.950 . S
H484 C481 0.950 . S
C485 C476 1.390 . S
C485 H478 0.950 . S
C485 C482 1.387 . S
C486 C487 1.387 . S
C486 H490 0.950 . S
C486 C495 1.390 . S
C487 C486 1.387 . S
C487 C489 1.387 . S
H488 C495 0.950 . S
C489 C487 1.387 . S
C489 C491 1.390 . S
C489 H493 0.950 . S
H490 C486 0.950 . S
C491 C489 1.390 . S
C491 C492 1.387 . S
C491 H494 0.950 . S
C492 C491 1.387 . S
C492 C495 1.387 . S
H493 C489 0.950 . S
H494 C491 0.950 . S
C495 C486 1.390 . S
C495 H488 0.950 . S
C495 C492 1.387 . S
C496 C497 1.387 . S
C496 H500 0.950 . S
C496 C505 1.390 . S
C497 C496 1.387 . S
C497 C499 1.387 . S
H498 C505 0.950 . S
C499 C497 1.387 . S
C499 C501 1.390 . S
C499 H503 0.950 . S
H500 C496 0.950 . S
C501 C499 1.390 . S
C501 C502 1.387 . S
C501 H504 0.950 . S
C502 C501 1.387 . S
C502 C505 1.387 . S
H503 C499 0.950 . S
H504 C501 0.950 . S
C505 C496 1.390 . S
C505 H498 0.950 . S
C505 C502 1.387 . S
C506 C507 1.387 . S
C506 H510 0.950 . S
C506 C515 1.390 . S
C507 C506 1.387 . S
C507 C509 1.387 . S
H508 C515 0.950 . S
C509 C507 1.387 . S
C509 C511 1.390 . S
C509 H513 0.950 . S
H510 C506 0.950 . S
C511 C509 1.390 . S
C511 C512 1.387 . S
C511 H514 0.950 . S
C512 C511 1.387 . S
C512 C515 1.387 . S
H513 C509 0.950 . S
H514 C511 0.950 . S
C515 C506 1.390 . S
C515 H508 0.950 . S
C515 C512 1.387 . S
C516 C517 1.387 . S
C516 H520 0.950 . S
C516 C525 1.390 . S
C517 C516 1.387 . S
C517 C519 1.387 . S
H518 C525 0.950 . S
C519 C517 1.387 . S
C519 C521 1.390 . S
C519 H523 0.950 . S
H520 C516 0.950 . S
C521 C519 1.390 . S
C521 C522 1.387 . S
C521 H524 0.950 . S
C522 C521 1.387 . S
C522 C525 1.387 . S
H523 C519 0.950 . S
H524 C521 0.950 . S
C525 C516 1.390 . S
C525 H518 0.950 . S
C525 C522 1.387 . S
C526 C527 1.387 . S
C526 H530 0.950 . S
C526 C535 1.390 . S
C527 C526 1.387 . S
C527 C529 1.387 . S
H528 C535 0.950 . S
C529 C527 1.387 . S
C529 C531 1.390 . S
C529 H533 0.950 . S
H530 C526 0.950 . S
C531 C529 1.390 . S
C531 C532 1.387 . S
C531 H534 0.950 . S
C532 C531 1.387 . S
C532 C535 1.387 . S
H533 C529 0.950 . S
H534 C531 0.950 . S
C535 C526 1.390 . S
C535 H528 0.950 . S
C535 C532 1.387 . S
C536 C537 1.387 . S
C536 H540 0.950 . S
C536 C545 1.390 . S
C537 C536 1.387 . S
C537 C539 1.387 . S
H538 C545 0.950 . S
C539 C537 1.387 . S
C539 C541 1.390 . S
C539 H543 0.950 . S
H540 C536 0.950 . S
C541 C539 1.390 . S
C541 C542 1.387 . S
C541 H544 0.950 . S
C542 C541 1.387 . S
C542 C545 1.387 . S
H543 C539 0.950 . S
H544 C541 0.950 . S
C545 C536 1.390 . S
C545 H538 0.950 . S
C545 C542 1.387 . S
C546 C547 1.387 . S
C546 H550 0.950 . S
C546 C555 1.390 . S
C547 C546 1.387 . S
C547 C549 1.387 . S
H548 C555 0.950 . S
C549 C547 1.387 . S
C549 C551 1.390 . S
C549 H553 0.950 . S
H550 C546 0.950 . S
C551 C549 1.390 . S
C551 C552 1.387 . S
C551 H554 0.950 . S
C552 C551 1.387 . S
C552 C555 1.387 . S
H553 C549 0.950 . S
H554 C551 0.950 . S
C555 C546 1.390 . S
C555 H548 0.950 . S
C555 C552 1.387 . S
C556 C557 1.387 . S
C556 H560 0.950 . S
C556 C565 1.390 . S
C557 C556 1.387 . S
C557 C559 1.387 . S
H558 C565 0.950 . S
C559 C557 1.387 . S
C559 C561 1.390 . S
C559 H563 0.950 . S
H560 C556 0.950 . S
C561 C559 1.390 . S
C561 C562 1.387 . S
C561 H564 0.950 . S
C562 C561 1.387 . S
C562 C565 1.387 . S
H563 C559 0.950 . S
H564 C561 0.950 . S
C565 C556 1.390 . S
C565 H558 0.950 . S
C565 C562 1.387 . S
C566 C567 1.387 . S
C566 H570 0.950 . S
C566 C575 1.390 . S
C567 C566 1.387 . S
C567 C569 1.387 . S
H568 C575 0.950 . S
C569 C567 1.387 . S
C569 C571 1.390 . S
C569 H573 0.950 . S
H570 C566 0.950 . S
C571 C569 1.390 . S
C571 C572 1.387 . S
C571 H574 0.950 . S
C572 C571 1.387 . S
C572 C575 1.387 . S
H573 C569 0.950 . S
H574 C571 0.950 . S
C575 C566 1.390 . S
C575 H568 0.950 . S
C575 C572 1.387 . S
C576 C577 1.387 . S
C576 H580 0.950 . S
C576 C585 1.390 . S
C577 C576 1.387 . S
C577 C579 1.387 . S
H578 C585 0.950 . S
C579 C577 1.387 . S
C579 C581 1.390 . S
C579 H583 0.950 . S
H580 C576 0.950 . S
C581 C579 1.390 . S
C581 C582 1.387 . S
C581 H584 0.950 . S
C582 C581 1.387 . S
C582 C585 1.387 . S
H583 C579 0.950 . S
H584 C581 0.950 . S
C585 C576 1.390 . S
C585 H578 0.950 . S
C585 C582 1.387 . S
C586 C587 1.387 . S
C586 H590 0.950 . S
C586 C595 1.390 . S
C587 C586 1.387 . S
C587 C589 1.387 . S
H588 C595 0.950 . S
C589 C587 1.387 . S
C589 C591 1.390 . S
C589 H593 0.950 . S
H590 C586 0.950 . S
C591 C589 1.390 . S
C591 C592 1.387 . S
C591 H594 0.950 . S
C592 C591 1.387 . S
C592 C595 1.387 . S
H593 C589 0.950 . S
H594 C591 0.950 . S
C595 C586 1.390 . S
C595 H588 0.950 . S
C595 C592 1.387 . S
C596 C597 1.387 . S
C596 H600 0.950 . S
C596 C605 1.390 . S
C597 C596 1.387 . S
C597 C599 1.387 . S
H598 C605 0.950 . S
C599 C597 1.387 . S
C599 C601 1.390 . S
C599 H603 0.950 . S
H600 C596 0.950 . S
C601 C599 1.390 . S
C601 C602 1.387 . S
C601 H604 0.950 . S
C602 C601 1.387 . S
C602 C605 1.387 . S
H603 C599 0.950 . S
H604 C601 0.950 . S
C605 C596 1.390 . S
C605 H598 0.950 . S
C605 C602 1.387 . S
C606 C607 1.387 . S
C606 H610 0.950 . S
C606 C615 1.390 . S
C607 C606 1.387 . S
C607 C609 1.387 . S
H608 C615 0.950 . S
C609 C607 1.387 . S
C609 C611 1.390 . S
C609 H613 0.950 . S
H610 C606 0.950 . S
C611 C609 1.390 . S
C611 C612 1.387 . S
C611 H614 0.950 . S
C612 C611 1.387 . S
C612 C615 1.387 . S
H613 C609 0.950 . S
H614 C611 0.950 . S
C615 C606 1.390 . S
C615 H608 0.950 . S
C615 C612 1.387 . S
C616 C617 1.387 . S
C616 H620 0.950 . S
C616 C625 1.390 . S
C617 C616 1.387 . S
C617 C619 1.387 . S
H618 C625 0.950 . S
C619 C617 1.387 . S
C619 C621 1.390 . S
C619 H623 0.950 . S
H620 C616 0.950 . S
C621 C619 1.390 . S
C621 C622 1.387 . S
C621 H624 0.950 . S
C622 C621 1.387 . S
C622 C625 1.387 . S
H623 C619 0.950 . S
H624 C621 0.950 . S
C625 C616 1.390 . S
C625 H618 0.950 . S
C625 C622 1.387 . S
C626 C627 1.387 . S
C626 H630 0.950 . S
C626 C635 1.390 . S
C627 C626 1.387 . S
C627 C629 1.387 . S
H628 C635 0.950 . S
C629 C627 1.387 . S
C629 C631 1.390 . S
C629 H633 0.950 . S
H630 C626 0.950 . S
C631 C629 1.390 . S
C631 C632 1.387 . S
C631 H634 0.950 . S
C632 C631 1.387 . S
C632 C635 1.387 . S
H633 C629 0.950 . S
H634 C631 0.950 . S
C635 C626 1.390 . S
C635 H628 0.950 . S
C635 C632 1.387 . S
C636 C637 1.378 1_565 S
C636 H640 0.950 . S
C636 C645 1.390 . S
C637 C636 1.378 1_545 S
C637 C639 1.398 . S
H638 C645 0.950 . S
C639 C637 1.398 . S
C639 C641 1.390 . S
C639 H643 0.950 . S
H640 C636 0.950 . S
C641 C639 1.390 . S
C641 C642 1.378 1_545 S
C641 H644 0.950 . S
C642 C641 1.378 1_565 S
C642 C645 1.398 . S
H643 C639 0.950 . S
H644 C641 0.950 . S
C645 C636 1.390 . S
C645 H638 0.950 . S
C645 C642 1.398 . S
C646 C647 1.388 . S
C646 H650 0.950 . S
C646 C655 1.390 . S
C647 C646 1.388 . S
C647 C649 1.386 1_655 S
H648 C655 0.950 . S
C649 C647 1.386 1_455 S
C649 C651 1.390 . S
C649 H653 0.950 . S
H650 C646 0.950 . S
C651 C649 1.390 . S
C651 C652 1.388 . S
C651 H654 0.950 . S
C652 C651 1.388 . S
C652 C655 1.386 1_455 S
H653 C649 0.950 . S
H654 C651 0.950 . S
C655 C646 1.390 . S
C655 H648 0.950 . S
C655 C652 1.386 1_655 S
C656 C657 1.387 . S
C656 H660 0.950 . S
C656 C665 1.390 . S
C657 C656 1.387 . S
C657 C659 1.387 . S
H658 C665 0.950 . S
C659 C657 1.387 . S
C659 C661 1.390 . S
C659 H663 0.950 . S
H660 C656 0.950 . S
C661 C659 1.390 . S
C661 C662 1.387 . S
C661 H664 0.950 . S
C662 C661 1.387 . S
C662 C665 1.387 . S
H663 C659 0.950 . S
H664 C661 0.950 . S
C665 C656 1.390 . S
C665 H658 0.950 . S
C665 C662 1.387 . S
C666 C667 1.387 . S
C666 H670 0.950 . S
C666 C675 1.390 . S
C667 C666 1.387 . S
C667 C669 1.387 . S
H668 C675 0.950 . S
C669 C667 1.387 . S
C669 C671 1.390 . S
C669 H673 0.950 . S
H670 C666 0.950 . S
C671 C669 1.390 . S
C671 C672 1.387 . S
C671 H674 0.950 . S
C672 C671 1.387 . S
C672 C675 1.387 . S
H673 C669 0.950 . S
H674 C671 0.950 . S
C675 C666 1.390 . S
C675 H668 0.950 . S
C675 C672 1.387 . S
C676 C677 1.387 . S
C676 H680 0.950 . S
C676 C685 1.390 . S
C677 C676 1.387 . S
C677 C679 1.387 . S
H678 C685 0.950 . S
C679 C677 1.387 . S
C679 C681 1.390 1_545 S
C679 H683 0.950 . S
H680 C676 0.950 . S
C681 C679 1.390 1_565 S
C681 C682 1.387 . S
C681 H684 0.950 . S
C682 C681 1.387 . S
C682 C685 1.387 1_565 S
H683 C679 0.950 . S
H684 C681 0.950 . S
C685 C676 1.390 . S
C685 H678 0.950 . S
C685 C682 1.387 1_545 S
C686 C687 1.387 . S
C686 H690 0.950 . S
C686 C695 1.390 . S
C687 C686 1.387 . S
C687 C689 1.387 . S
H688 C695 0.950 1_455 S
C689 C687 1.387 . S
C689 C691 1.390 . S
C689 H693 0.950 . S
H690 C686 0.950 . S
C691 C689 1.390 . S
C691 C692 1.387 1_655 S
C691 H694 0.950 . S
C692 C691 1.387 1_455 S
C692 C695 1.387 1_455 S
H693 C689 0.950 . S
H694 C691 0.950 . S
C695 C686 1.390 . S
C695 H688 0.950 1_655 S
C695 C692 1.387 1_655 S
C696 C697 1.387 . S
C696 H700 0.950 . S
C696 C705 1.390 . S
C697 C696 1.387 . S
C697 C699 1.387 . S
H698 C705 0.950 . S
C699 C697 1.387 . S
C699 C701 1.390 . S
C699 H703 0.950 . S
H700 C696 0.950 . S
C701 C699 1.390 . S
C701 C702 1.387 . S
C701 H704 0.950 . S
C702 C701 1.387 . S
C702 C705 1.387 . S
H703 C699 0.950 . S
H704 C701 0.950 . S
C705 C696 1.390 . S
C705 H698 0.950 . S
C705 C702 1.387 . S
C706 C707 1.387 . S
C706 H710 0.950 . S
C706 C715 1.390 . S
C707 C706 1.387 . S
C707 C709 1.387 . S
H708 C715 0.950 . S
C709 C707 1.387 . S
C709 C711 1.390 1_565 S
C709 H713 0.950 . S
H710 C706 0.950 . S
C711 C709 1.390 1_545 S
C711 C712 1.387 . S
C711 H714 0.950 . S
C712 C711 1.387 . S
C712 C715 1.387 1_545 S
H713 C709 0.950 . S
H714 C711 0.950 . S
C715 C706 1.390 . S
C715 H708 0.950 . S
C715 C712 1.387 1_565 S
C716 C717 1.387 1_455 S
C716 H720 0.950 1_455 S
C716 C725 1.390 . S
C717 C716 1.387 1_655 S
C717 C719 1.387 1_655 S
H718 C725 0.950 . S
C719 C717 1.387 1_455 S
C719 C721 1.390 . S
C719 H723 0.950 . S
H720 C716 0.950 1_655 S
C721 C719 1.390 . S
C721 C722 1.387 . S
C721 H724 0.950 . S
C722 C721 1.387 . S
C722 C725 1.387 . S
H723 C719 0.950 . S
H724 C721 0.950 . S
C725 C716 1.390 . S
C725 H718 0.950 . S
C725 C722 1.387 . S
C726 C727 1.387 . S
C726 H730 0.950 . S
C726 C735 1.390 . S
C727 C726 1.387 . S
C727 C729 1.387 . S
H728 C735 0.950 . S
C729 C727 1.387 . S
C729 C731 1.390 1_655 S
C729 H733 0.950 . S
H730 C726 0.950 . S
C731 C729 1.390 1_455 S
C731 C732 1.387 . S
C731 H734 0.950 . S
C732 C731 1.387 . S
C732 C735 1.387 1_455 S
H733 C729 0.950 . S
H734 C731 0.950 . S
C735 C726 1.390 . S
C735 H728 0.950 . S
C735 C732 1.387 1_655 S
C736 C737 1.387 . S
C736 H740 0.950 . S
C736 C745 1.390 . S
C737 C736 1.387 . S
C737 C739 1.387 . S
H738 C745 0.950 . S
C739 C737 1.387 . S
C739 C741 1.390 . S
C739 H743 0.950 . S
H740 C736 0.950 . S
C741 C739 1.390 . S
C741 C742 1.387 . S
C741 H744 0.950 . S
C742 C741 1.387 . S
C742 C745 1.387 . S
H743 C739 0.950 . S
H744 C741 0.950 . S
C745 C736 1.390 . S
C745 H738 0.950 . S
C745 C742 1.387 . S
C746 C747 1.387 . S
C746 H750 0.950 . S
C746 C755 1.390 1_545 S
C747 C746 1.387 . S
C747 C749 1.387 . S
H748 C755 0.950 . S
C749 C747 1.387 . S
C749 C751 1.390 . S
C749 H753 0.950 . S
H750 C746 0.950 . S
C751 C749 1.390 . S
C751 C752 1.387 1_545 S
C751 H754 0.950 . S
C752 C751 1.387 1_565 S
C752 C755 1.387 . S
H753 C749 0.950 . S
H754 C751 0.950 . S
C755 C746 1.390 1_565 S
C755 H748 0.950 . S
C755 C752 1.387 . S
C756 C757 1.387 . S
C756 H760 0.950 . S
C756 C765 1.390 . S
C757 C756 1.387 . S
C757 C759 1.387 . S
H758 C765 0.950 . S
C759 C757 1.387 . S
C759 C761 1.390 . S
C759 H763 0.950 1_545 S
H760 C756 0.950 . S
C761 C759 1.390 . S
C761 C762 1.387 . S
C761 H764 0.950 . S
C762 C761 1.387 . S
C762 C765 1.387 . S
H763 C759 0.950 1_565 S
H764 C761 0.950 . S
C765 C756 1.390 . S
C765 H758 0.950 . S
C765 C762 1.387 . S
C766 C767 1.387 . S
C766 H770 0.950 . S
C766 C775 1.390 . S
C767 C766 1.387 . S
C767 C769 1.387 . S
H768 C775 0.950 . S
C769 C767 1.387 . S
C769 C771 1.390 . S
C769 H773 0.949 . S
H770 C766 0.950 . S
C771 C769 1.390 . S
C771 C772 1.387 . S
C771 H774 0.950 . S
C772 C771 1.387 . S
C772 C775 1.387 . S
H773 C769 0.949 . S
H774 C771 0.950 . S
C775 C766 1.390 . S
C775 H768 0.950 . S
C775 C772 1.387 . S
C776 C777 1.387 . S
C776 H780 0.950 . S
C776 C785 1.390 . S
C777 C776 1.387 . S
C777 C779 1.387 . S
H778 C785 0.950 . S
C779 C777 1.387 . S
C779 C781 1.390 . S
C779 H783 0.950 1_554 S
H780 C776 0.950 . S
C781 C779 1.390 . S
C781 C782 1.387 . S
C781 H784 0.950 . S
C782 C781 1.387 . S
C782 C785 1.387 . S
H783 C779 0.950 1_556 S
H784 C781 0.950 . S
C785 C776 1.390 . S
C785 H778 0.950 . S
C785 C782 1.387 . S
C786 C787 1.387 . S
C786 H790 0.950 . S
C786 C795 1.390 . S
C787 C786 1.387 . S
C787 C789 1.387 . S
H788 C795 0.950 . S
C789 C787 1.387 . S
C789 C791 1.390 . S
C789 H793 0.950 . S
H790 C786 0.950 . S
C791 C789 1.390 . S
C791 C792 1.387 . S
C791 H794 0.950 1_565 S
C792 C791 1.387 . S
C792 C795 1.387 . S
H793 C789 0.950 . S
H794 C791 0.950 1_545 S
C795 C786 1.390 . S
C795 H788 0.950 . S
C795 C792 1.387 . S
C796 C797 1.387 . S
C796 H800 0.950 . S
C796 C805 1.390 . S
C797 C796 1.387 . S
C797 C799 1.387 . S
H798 C805 0.950 . S
C799 C797 1.387 . S
C799 C801 1.390 . S
C799 H803 0.950 . S
H800 C796 0.950 . S
C801 C799 1.390 . S
C801 C802 1.387 . S
C801 H804 0.950 . S
C802 C801 1.387 . S
C802 C805 1.387 . S
H803 C799 0.950 . S
H804 C801 0.950 . S
C805 C796 1.390 . S
C805 H798 0.950 . S
C805 C802 1.387 . S
C806 C807 1.387 . S
C806 H810 0.950 . S
C806 C815 1.390 . S
C807 C806 1.387 . S
C807 C809 1.387 . S
H808 C815 0.950 . S
C809 C807 1.387 . S
C809 C811 1.390 . S
C809 H813 0.950 . S
H810 C806 0.950 . S
C811 C809 1.390 . S
C811 C812 1.387 . S
C811 H814 0.950 . S
C812 C811 1.387 . S
C812 C815 1.387 . S
H813 C809 0.950 . S
H814 C811 0.950 . S
C815 C806 1.390 . S
C815 H808 0.950 . S
C815 C812 1.387 . S
C816 C817 1.387 1_455 S
C816 H820 0.950 1_455 S
C816 C825 1.390 . S
C817 C816 1.387 1_655 S
C817 C819 1.387 1_655 S
H818 C825 0.950 . S
C819 C817 1.387 1_455 S
C819 C821 1.390 . S
C819 H823 0.950 . S
H820 C816 0.950 1_655 S
C821 C819 1.390 . S
C821 C822 1.387 . S
C821 H824 0.950 . S
C822 C821 1.387 . S
C822 C825 1.387 . S
H823 C819 0.950 . S
H824 C821 0.950 . S
C825 C816 1.390 . S
C825 H818 0.950 . S
C825 C822 1.387 . S
C826 C827 1.387 . S
C826 H830 0.950 . S
C826 C835 1.390 . S
C827 C826 1.387 . S
C827 C829 1.387 . S
H828 C835 0.950 . S
C829 C827 1.387 . S
C829 C831 1.390 . S
C829 H833 0.950 . S
H830 C826 0.950 . S
C831 C829 1.390 . S
C831 C832 1.387 . S
C831 H834 0.950 . S
C832 C831 1.387 . S
C832 C835 1.387 . S
H833 C829 0.950 . S
H834 C831 0.950 . S
C835 C826 1.390 . S
C835 H828 0.950 . S
C835 C832 1.387 . S
C836 C837 1.387 1_565 S
C836 H840 0.950 . S
C836 C845 1.390 . S
C837 C836 1.387 1_545 S
C837 C839 1.387 1_545 S
H838 C845 0.950 . S
C839 C837 1.387 1_565 S
C839 C841 1.390 . S
C839 H843 0.950 1_565 S
H840 C836 0.950 . S
C841 C839 1.390 . S
C841 C842 1.387 . S
C841 H844 0.950 . S
C842 C841 1.387 . S
C842 C845 1.387 . S
H843 C839 0.950 1_545 S
H844 C841 0.950 . S
C845 C836 1.390 . S
C845 H838 0.950 . S
C845 C842 1.387 . S
C846 C847 1.387 . S
C846 H850 0.950 . S
C846 C855 1.390 . S
C847 C846 1.387 . S
C847 C849 1.387 . S
H848 C855 0.950 . S
C849 C847 1.387 . S
C849 C851 1.390 . S
C849 H853 0.950 . S
H850 C846 0.950 . S
C851 C849 1.390 . S
C851 C852 1.387 . S
C851 H854 0.950 . S
C852 C851 1.387 . S
C852 C855 1.387 . S
H853 C849 0.950 . S
H854 C851 0.950 . S
C855 C846 1.390 . S
C855 H848 0.950 . S
C855 C852 1.387 . S
C856 C857 1.387 . S
C856 H860 0.950 . S
C856 C865 1.390 . S
C857 C856 1.387 . S
C857 C859 1.387 . S
H858 C865 0.950 . S
C859 C857 1.387 . S
C859 C861 1.390 . S
C859 H863 0.950 . S
H860 C856 0.950 . S
C861 C859 1.390 . S
C861 C862 1.387 . S
C861 H864 0.950 . S
C862 C861 1.387 . S
C862 C865 1.387 . S
H863 C859 0.950 . S
H864 C861 0.950 . S
C865 C856 1.390 . S
C865 H858 0.950 . S
C865 C862 1.387 . S
C866 C867 1.387 . S
C866 H870 0.950 . S
C866 C875 1.390 . S
C867 C866 1.387 . S
C867 C869 1.387 . S
H868 C875 0.950 . S
C869 C867 1.387 . S
C869 C871 1.390 . S
C869 H873 0.950 . S
H870 C866 0.950 . S
C871 C869 1.390 . S
C871 C872 1.387 . S
C871 H874 0.950 . S
C872 C871 1.387 . S
C872 C875 1.387 . S
H873 C869 0.950 . S
H874 C871 0.950 . S
C875 C866 1.390 . S
C875 H868 0.950 . S
C875 C872 1.387 . S
C876 C877 1.387 . S
C876 H880 0.950 . S
C876 C885 1.390 . S
C877 C876 1.387 . S
C877 C879 1.387 . S
H878 C885 0.950 . S
C879 C877 1.387 . S
C879 C881 1.390 . S
C879 H883 0.950 . S
H880 C876 0.950 . S
C881 C879 1.390 . S
C881 C882 1.387 . S
C881 H884 0.950 . S
C882 C881 1.387 . S
C882 C885 1.387 . S
H883 C879 0.950 . S
H884 C881 0.950 . S
C885 C876 1.390 . S
C885 H878 0.950 . S
C885 C882 1.387 . S
C886 C887 1.387 . S
C886 H890 0.950 . S
C886 C895 1.390 . S
C887 C886 1.387 . S
C887 C889 1.387 . S
H888 C895 0.950 . S
C889 C887 1.387 . S
C889 C891 1.390 . S
C889 H893 0.950 . S
H890 C886 0.950 . S
C891 C889 1.390 . S
C891 C892 1.387 . S
C891 H894 0.950 . S
C892 C891 1.387 . S
C892 C895 1.387 . S
H893 C889 0.950 . S
H894 C891 0.950 . S
C895 C886 1.390 . S
C895 H888 0.950 . S
C895 C892 1.387 . S
C896 C897 1.387 . S
C896 H900 0.950 . S
C896 C905 1.390 . S
C897 C896 1.387 . S
C897 C899 1.387 . S
H898 C905 0.950 . S
C899 C897 1.387 . S
C899 C901 1.390 . S
C899 H903 0.950 . S
H900 C896 0.950 . S
C901 C899 1.390 . S
C901 C902 1.387 . S
C901 H904 0.950 . S
C902 C901 1.387 . S
C902 C905 1.387 . S
H903 C899 0.950 . S
H904 C901 0.950 . S
C905 C896 1.390 . S
C905 H898 0.950 . S
C905 C902 1.387 . S
C906 C907 1.387 1_565 S
C906 H910 0.950 . S
C906 C915 1.390 . S
C907 C906 1.387 1_545 S
C907 C909 1.387 1_554 S
H908 C915 0.950 . S
C909 C907 1.387 1_556 S
C909 C911 1.390 . S
C909 H913 0.950 . S
H910 C906 0.950 . S
C911 C909 1.390 . S
C911 C912 1.387 1_545 S
C911 H914 0.950 . S
C912 C911 1.387 1_565 S
C912 C915 1.387 1_556 S
H913 C909 0.950 . S
H914 C911 0.950 . S
C915 C906 1.390 . S
C915 H908 0.950 . S
C915 C912 1.387 1_554 S
C916 C917 1.387 1_455 S
C916 H920 0.950 . S
C916 C925 1.390 . S
C917 C916 1.387 1_655 S
C917 C919 1.387 1_554 S
H918 C925 0.950 . S
C919 C917 1.387 1_556 S
C919 C921 1.390 . S
C919 H923 0.950 . S
H920 C916 0.950 . S
C921 C919 1.390 . S
C921 C922 1.387 1_655 S
C921 H924 0.950 . S
C922 C921 1.387 1_455 S
C922 C925 1.387 1_556 S
H923 C919 0.950 . S
H924 C921 0.950 . S
C925 C916 1.390 . S
C925 H918 0.950 . S
C925 C922 1.387 1_554 S
C926 C927 1.387 . S
C926 H930 0.950 . S
C926 C935 1.390 1_556 S
C927 C926 1.387 . S
C927 C929 1.387 . S
H928 C935 0.950 . S
C929 C927 1.387 . S
C929 C931 1.390 1_556 S
C929 H933 0.950 . S
H930 C926 0.950 . S
C931 C929 1.390 1_554 S
C931 C932 1.387 . S
C931 H934 0.950 . S
C932 C931 1.387 . S
C932 C935 1.387 . S
H933 C929 0.950 . S
H934 C931 0.950 . S
C935 C926 1.390 1_554 S
C935 H928 0.950 . S
C935 C932 1.387 . S
C397 C92 1.515 . S
C402 C8 1.510 1_556 S
C407 C30 1.510 1_546 S
C412 C114 1.515 . S
C417 C70 1.515 . S
C422 C52 1.510 1_656 S
C427 C74 1.509 1_554 S
C432 C26 1.514 . S
C437 C96 1.510 1_564 S
C442 C48 1.515 . S
C447 C4 1.514 . S
C452 C118 1.509 1_454 S
C457 C140 1.509 . S
C462 C224 1.514 . S
C467 C246 1.514 . S
C472 C162 1.509 . S
C477 C202 1.515 . S
C482 C184 1.510 . S
C487 C206 1.510 . S
C492 C158 1.515 . S
C497 C180 1.515 . S
C502 C228 1.510 . S
C507 C250 1.510 . S
C512 C136 1.515 . S
C517 C356 1.514 . S
C522 C272 1.509 . S
C527 C294 1.510 . S
C532 C378 1.515 . S
C537 C334 1.514 . S
C542 C316 1.509 . S
C547 C290 1.515 . S
C552 C338 1.510 . S
C557 C360 1.510 . S
C562 C312 1.515 . S
C567 C268 1.514 . S
C572 C382 1.509 . S
C577 C5 1.230 . S
C582 C336 1.230 . S
C587 C27 1.228 . S
C592 C358 1.228 . S
C597 C380 1.225 . S
C602 C49 1.225 . S
C607 C72 1.230 . S
C612 C137 1.230 . S
C617 C94 1.230 . S
C622 C159 1.230 . S
C627 C181 1.229 . S
C632 C116 1.229 . S
C637 C269 1.217 1_545 S
C642 C204 1.217 1_565 S
C647 C291 1.228 1_655 S
C652 C226 1.228 1_455 S
C657 C313 1.224 . S
C662 C248 1.224 . S
C667 C9 1.428 . S
C672 C161 1.298 . S
C677 C183 1.299 . S
C682 C31 1.428 . S
C687 C139 1.298 . S
C692 C53 1.428 . S
C697 C73 1.428 . S
C702 C361 1.297 . S
C707 C383 1.294 . S
C712 C95 1.427 . S
C717 C117 1.428 . S
C722 C339 1.295 . S
C727 C141 1.428 . S
C732 C293 1.297 . S
C737 C163 1.428 . S
C742 C315 1.298 . S
C747 C185 1.428 . S
C752 C271 1.297 . S
C757 C97 1.296 . S
C762 C205 1.428 . S
C767 C119 1.294 . S
C772 C227 1.427 . S
C777 C75 1.294 . S
C782 C249 1.427 . S
C787 C273 1.428 . S
C792 C29 1.297 . S
C797 C295 1.428 . S
C802 C51 1.299 . S
C807 C7 1.295 . S
C812 C317 1.427 . S
C817 C229 1.294 . S
C822 C337 1.428 . S
C827 C359 1.428 . S
C832 C251 1.299 . S
C837 C207 1.299 . S
C842 C381 1.428 . S
C847 C6 1.780 . S
C852 C335 1.780 . S
C857 C28 1.781 . S
C862 C357 1.781 . S
C867 C50 1.782 . S
C872 C379 1.782 . S
C877 C138 1.781 . S
C882 C71 1.781 . S
C887 C93 1.780 . S
C892 C160 1.780 . S
C897 C182 1.782 . S
C902 C115 1.782 . S
C907 C203 1.783 . S
C912 C270 1.783 . S
C917 C225 1.782 . S
C922 C292 1.782 . S
C927 C314 1.781 . S
C932 C247 1.781 . S
