# Generated by pormake.
# Topology acs-i, (5)-cn, num edge types: 1
# Building blocks:
#     Node 0, Type 0, BuildingBlock: XOMCOT_clean_sbu_1, # of connection points: 5
#     Node 1, Type 0, BuildingBlock: XOMCOT_clean_sbu_1, # of connection points: 5
#     Node 2, Type 0, BuildingBlock: XOMCOT_clean_sbu_1, # of connection points: 5
#     Node 3, Type 0, BuildingBlock: XOMCOT_clean_sbu_1, # of connection points: 5
#     Node 4, Type 0, BuildingBlock: XOMCOT_clean_sbu_1, # of connection points: 5
#     Node 5, Type 0, BuildingBlock: XOMCOT_clean_sbu_1, # of connection points: 5
#     Node 6, Type 0, BuildingBlock: XOMCOT_clean_sbu_1, # of connection points: 5
#     Node 7, Type 0, BuildingBlock: XOMCOT_clean_sbu_1, # of connection points: 5
#     Node 8, Type 0, BuildingBlock: XOMCOT_clean_sbu_1, # of connection points: 5
#     Node 9, Type 0, BuildingBlock: XOMCOT_clean_sbu_1, # of connection points: 5
#     Node 10, Type 0, BuildingBlock: XOMCOT_clean_sbu_1, # of connection points: 5
#     Node 11, Type 0, BuildingBlock: XOMCOT_clean_sbu_1, # of connection points: 5
#     Edge 12, Type (0, 0), BuildingBlock: XUDNAN_clean_linker_2, # of connection points: 2
#     Edge 13, Type (0, 0), BuildingBlock: XUDNAN_clean_linker_2, # of connection points: 2
#     Edge 14, Type (0, 0), BuildingBlock: XUDNAN_clean_linker_2, # of connection points: 2
#     Edge 15, Type (0, 0), BuildingBlock: XUDNAN_clean_linker_2, # of connection points: 2
#     Edge 16, Type (0, 0), BuildingBlock: XUDNAN_clean_linker_2, # of connection points: 2
#     Edge 17, Type (0, 0), BuildingBlock: XUDNAN_clean_linker_2, # of connection points: 2
#     Edge 18, Type (0, 0), BuildingBlock: XUDNAN_clean_linker_2, # of connection points: 2
#     Edge 19, Type (0, 0), BuildingBlock: XUDNAN_clean_linker_2, # of connection points: 2
#     Edge 20, Type (0, 0), BuildingBlock: XUDNAN_clean_linker_2, # of connection points: 2
#     Edge 21, Type (0, 0), BuildingBlock: XUDNAN_clean_linker_2, # of connection points: 2
#     Edge 22, Type (0, 0), BuildingBlock: XUDNAN_clean_linker_2, # of connection points: 2
#     Edge 23, Type (0, 0), BuildingBlock: XUDNAN_clean_linker_2, # of connection points: 2
#     Edge 24, Type (0, 0), BuildingBlock: XUDNAN_clean_linker_2, # of connection points: 2
#     Edge 25, Type (0, 0), BuildingBlock: XUDNAN_clean_linker_2, # of connection points: 2
#     Edge 26, Type (0, 0), BuildingBlock: XUDNAN_clean_linker_2, # of connection points: 2
#     Edge 27, Type (0, 0), BuildingBlock: XUDNAN_clean_linker_2, # of connection points: 2
#     Edge 28, Type (0, 0), BuildingBlock: XUDNAN_clean_linker_2, # of connection points: 2
#     Edge 29, Type (0, 0), BuildingBlock: XUDNAN_clean_linker_2, # of connection points: 2
#     Edge 30, Type (0, 0), BuildingBlock: XUDNAN_clean_linker_2, # of connection points: 2
#     Edge 31, Type (0, 0), BuildingBlock: XUDNAN_clean_linker_2, # of connection points: 2
#     Edge 32, Type (0, 0), BuildingBlock: XUDNAN_clean_linker_2, # of connection points: 2
#     Edge 33, Type (0, 0), BuildingBlock: XUDNAN_clean_linker_2, # of connection points: 2
#     Edge 34, Type (0, 0), BuildingBlock: XUDNAN_clean_linker_2, # of connection points: 2
#     Edge 35, Type (0, 0), BuildingBlock: XUDNAN_clean_linker_2, # of connection points: 2
#     Edge 36, Type (0, 0), BuildingBlock: XUDNAN_clean_linker_2, # of connection points: 2
#     Edge 37, Type (0, 0), BuildingBlock: XUDNAN_clean_linker_2, # of connection points: 2
#     Edge 38, Type (0, 0), BuildingBlock: XUDNAN_clean_linker_2, # of connection points: 2
#     Edge 39, Type (0, 0), BuildingBlock: XUDNAN_clean_linker_2, # of connection points: 2
#     Edge 40, Type (0, 0), BuildingBlock: XUDNAN_clean_linker_2, # of connection points: 2
#     Edge 41, Type (0, 0), BuildingBlock: XUDNAN_clean_linker_2, # of connection points: 2
# Relax obj value: 0.860
# Max RMSD: 0.200
# Mean RMSD: 0.200
data_MOF--net-acs-i--node1-XOMCOT_clean_sbu_1--edge1-XUDNAN_clean_linker_2
_symmetry_space_group_name_H-M    P1
_symmetry_Int_Tables_number       1
_symmetry_cell_setting            triclinic
loop_
_symmetry_equiv_pos_as_xyz
'x, y, z'
_cell_length_a     43.693517
_cell_length_b     43.721389
_cell_length_c     47.874375
_cell_angle_alpha  90.013016
_cell_angle_beta   89.967671
_cell_angle_gamma 120.00382
loop_
_atom_site_label
_atom_site_type_symbol
_atom_site_fract_x
_atom_site_fract_y
_atom_site_fract_z
_atom_type_partial_charge
C0 C 0.34662 0.49361 0.09908 0.0
C1 C 0.36916 0.52441 0.0852 0.0
N2 N 0.38622 0.55002 0.10437 0.0
N3 N 0.34976 0.49986 0.12679 0.0
C4 C 0.37353 0.53449 0.12929 0.0
H5 H 0.33029 0.46793 0.08971 0.0
Co6 Co 0.32995 0.46606 0.15473 0.0
C7 C 0.38792 0.49851 0.19721 0.0
O8 O 0.38923 0.46919 0.19904 0.0
N9 N 0.30837 0.43115 0.18244 0.0
C10 C 0.28563 0.40345 0.22255 0.0
C11 C 0.31265 0.43299 0.21046 0.0
C12 C 0.2778 0.40046 0.17833 0.0
N13 N 0.2632 0.38316 0.20239 0.0
O14 O 0.29792 0.4826 0.16312 0.0
H15 H 0.33107 0.45587 0.22217 0.0
H16 H 0.26458 0.39263 0.15835 0.0
O17 O 0.36481 0.49975 0.18162 0.0
C18 C 0.27171 0.4675 0.1465 0.0
O19 O 0.27086 0.44401 0.1289 0.0
N20 N 0.35985 0.44887 0.14364 0.0
C21 C 0.39735 0.42937 0.10741 0.0
C22 C 0.4148 0.4606 0.12304 0.0
C23 C 0.39539 0.47063 0.13986 0.0
C24 C 0.343 0.4168 0.13079 0.0
C25 C 0.36112 0.40659 0.11246 0.0
H26 H 0.40862 0.49743 0.14739 0.0
H27 H 0.31462 0.40073 0.13206 0.0
H28 H 0.3831 0.54769 0.1491 0.0
H29 H 0.3733 0.52738 0.06285 0.0
H30 H 0.28026 0.39986 0.24477 0.0
H31 H 0.44278 0.47888 0.12052 0.0
H32 H 0.34591 0.38257 0.10059 0.0
C33 C 0.83592 0.33929 0.59599 0.0
C34 C 0.82321 0.3622 0.59999 0.0
N35 N 0.80408 0.35299 0.62375 0.0
N36 N 0.82525 0.31619 0.61741 0.0
C37 C 0.80533 0.32479 0.63356 0.0
H38 H 0.85296 0.3403 0.57918 0.0
Co39 Co 0.83765 0.28237 0.6264 0.0
C40 C 0.86112 0.30445 0.68613 0.0
O41 O 0.89046 0.30314 0.68413 0.0
N42 N 0.849 0.2473 0.63576 0.0
C43 C 0.86425 0.20546 0.63614 0.0
C44 C 0.86135 0.23005 0.61996 0.0
C45 C 0.84292 0.2313 0.66084 0.0
N46 N 0.85312 0.207 0.66194 0.0
O47 O 0.78941 0.24917 0.63121 0.0
H48 H 0.86709 0.23402 0.59792 0.0
H49 H 0.83006 0.23633 0.67807 0.0
O50 O 0.84045 0.29643 0.6652 0.0
C51 C 0.77378 0.23324 0.60894 0.0
O52 O 0.7928 0.23784 0.58641 0.0
N53 N 0.88508 0.31573 0.61978 0.0
C54 C 0.95108 0.36597 0.59954 0.0
C55 C 0.93711 0.37303 0.62339 0.0
C56 C 0.90369 0.34767 0.63297 0.0
C57 C 0.89774 0.3094 0.59585 0.0
C58 C 0.93093 0.33368 0.58573 0.0
H59 H 0.89206 0.35487 0.64975 0.0
H60 H 0.88095 0.28656 0.58335 0.0
H61 H 0.79314 0.31148 0.65289 0.0
H62 H 0.82815 0.38422 0.58669 0.0
H63 H 0.87386 0.18808 0.62959 0.0
H64 H 0.95128 0.39831 0.63388 0.0
H65 H 0.93974 0.32811 0.56621 0.0
C66 C 0.48329 0.82092 0.07747 0.0
C67 C 0.4469 0.80271 0.0775 0.0
N68 N 0.43578 0.79979 0.10414 0.0
N69 N 0.49494 0.82966 0.10392 0.0
C70 C 0.46539 0.81615 0.11971 0.0
H71 H 0.50026 0.82791 0.05933 0.0
Co72 Co 0.54193 0.85615 0.11437 0.0
C73 C 0.54055 0.8839 0.17053 0.0
O74 O 0.56901 0.91418 0.16487 0.0
N75 N 0.59001 0.88246 0.12482 0.0
C76 C 0.64721 0.92143 0.13155 0.0
C77 C 0.61725 0.91414 0.11668 0.0
C78 C 0.60429 0.87122 0.1444 0.0
N79 N 0.63884 0.89403 0.14868 0.0
O80 O 0.54081 0.81363 0.12335 0.0
H81 H 0.61581 0.93152 0.10142 0.0
H82 H 0.58924 0.8472 0.15633 0.0
O83 O 0.52798 0.85935 0.15226 0.0
C84 C 0.55086 0.80089 0.10388 0.0
O85 O 0.56584 0.82036 0.08166 0.0
N86 N 0.54116 0.89624 0.1029 0.0
C87 C 0.5269 0.94052 0.0709 0.0
C88 C 0.5136 0.93166 0.09808 0.0
C89 C 0.52039 0.90865 0.11364 0.0
C90 C 0.55464 0.90522 0.07666 0.0
C91 C 0.54836 0.92777 0.06047 0.0
H92 H 0.50656 0.89884 0.13315 0.0
H93 H 0.56883 0.89316 0.06775 0.0
H94 H 0.46537 0.81916 0.14211 0.0
H95 H 0.42998 0.79257 0.05935 0.0
H96 H 0.67296 0.94496 0.13003 0.0
H97 H 0.49646 0.94067 0.10651 0.0
H98 H 0.55931 0.93428 0.03957 0.0
C99 C 0.62986 0.45814 0.60577 0.0
C100 C 0.60673 0.42223 0.60451 0.0
N101 N 0.59915 0.40983 0.63082 0.0
N102 N 0.63554 0.46821 0.63281 0.0
C103 C 0.61711 0.43801 0.64745 0.0
H104 H 0.63978 0.47599 0.58815 0.0
Co105 Co 0.65772 0.51308 0.6486 0.0
C106 C 0.59697 0.50883 0.68161 0.0
O107 O 0.60201 0.53947 0.67274 0.0
N108 N 0.68076 0.55819 0.66527 0.0
C109 C 0.70322 0.60016 0.69774 0.0
C110 C 0.67621 0.567 0.69136 0.0
C111 C 0.71141 0.58635 0.65666 0.0
N112 N 0.72585 0.61223 0.67605 0.0
O113 O 0.68 0.49734 0.67449 0.0
H114 H 0.65715 0.54922 0.70634 0.0
H115 H 0.7251 0.5863 0.63793 0.0
O116 O 0.61743 0.49753 0.67357 0.0
C117 C 0.71015 0.50385 0.66568 0.0
O118 O 0.7237 0.52496 0.64406 0.0
N119 N 0.63757 0.52805 0.62115 0.0
C120 C 0.6151 0.5461 0.57259 0.0
C121 C 0.59042 0.52278 0.59202 0.0
C122 C 0.60221 0.51345 0.61592 0.0
C123 C 0.66163 0.54958 0.60189 0.0
C124 C 0.6511 0.55936 0.57776 0.0
H125 H 0.58282 0.49295 0.62917 0.0
H126 H 0.68903 0.55717 0.60413 0.0
H127 H 0.61483 0.43699 0.66996 0.0
H128 H 0.59476 0.40682 0.58587 0.0
H129 H 0.70827 0.61216 0.71825 0.0
H130 H 0.5623 0.51116 0.58848 0.0
H131 H 0.67103 0.57581 0.56263 0.0
C132 C 0.12034 0.62171 0.0888 0.0
C133 C 0.13172 0.59801 0.08348 0.0
N134 N 0.14509 0.59309 0.10731 0.0
N135 N 0.12594 0.63095 0.11599 0.0
C136 C 0.1415 0.61349 0.12656 0.0
H137 H 0.10794 0.63087 0.07406 0.0
Co138 Co 0.11388 0.6598 0.13591 0.0
C139 C 0.1115 0.6341 0.19214 0.0
O140 O 0.13396 0.66673 0.19962 0.0
N141 N 0.10172 0.6885 0.15607 0.0
C142 C 0.07352 0.70739 0.18341 0.0
C143 C 0.0727 0.67811 0.17207 0.0
C144 C 0.11937 0.724 0.15752 0.0
N145 N 0.10286 0.73619 0.17412 0.0
O146 O 0.16136 0.68544 0.14914 0.0
H147 H 0.05254 0.65093 0.17561 0.0
H148 H 0.14464 0.74057 0.14758 0.0
O149 O 0.10003 0.62742 0.16711 0.0
C150 C 0.18306 0.70647 0.13111 0.0
O151 O 0.1705 0.71084 0.10743 0.0
N152 N 0.06879 0.63619 0.12091 0.0
C153 C 0.00879 0.60716 0.08787 0.0
C154 C 0.01617 0.58528 0.10455 0.0
C155 C 0.0464 0.60052 0.12142 0.0
C156 C 0.06156 0.65763 0.10506 0.0
C157 C 0.03129 0.64373 0.08883 0.0
H158 H 0.05307 0.58366 0.13333 0.0
H159 H 0.08031 0.68564 0.10406 0.0
H160 H 0.14903 0.6148 0.14826 0.0
H161 H 0.13002 0.58516 0.06374 0.0
H162 H 0.05459 0.70749 0.19796 0.0
H163 H -0.00038 0.55682 0.10366 0.0
H164 H 0.02689 0.66124 0.07555 0.0
C165 C 0.46778 0.14525 0.61947 0.0
C166 C 0.49893 0.16088 0.60464 0.0
N167 N 0.52473 0.16345 0.62157 0.0
N168 N 0.47399 0.13763 0.64539 0.0
C169 C 0.50901 0.14964 0.64623 0.0
H170 H 0.44191 0.13818 0.61149 0.0
Co171 Co 0.43901 0.11128 0.67112 0.0
C172 C 0.47172 0.07697 0.70338 0.0
O173 O 0.44373 0.04572 0.69939 0.0
N174 N 0.40259 0.08583 0.6969 0.0
C175 C 0.37376 0.07273 0.73728 0.0
C176 C 0.40459 0.07977 0.72429 0.0
C177 C 0.37023 0.08231 0.69399 0.0
N178 N 0.35227 0.07531 0.71836 0.0
O179 O 0.45177 0.15379 0.6908 0.0
H180 H 0.42833 0.08523 0.73529 0.0
H181 H 0.36206 0.08948 0.67505 0.0
O182 O 0.47258 0.10463 0.69373 0.0
C183 C 0.43625 0.16972 0.68142 0.0
O184 O 0.41017 0.15291 0.66366 0.0
N185 N 0.42663 0.07088 0.6492 0.0
C186 C 0.41946 0.03809 0.59784 0.0
C187 C 0.44859 0.04653 0.61489 0.0
C188 C 0.45202 0.06348 0.64024 0.0
C189 C 0.39619 0.05899 0.63426 0.0
C190 C 0.39196 0.04235 0.60852 0.0
H191 H 0.47741 0.07483 0.65032 0.0
H192 H 0.37714 0.06657 0.64007 0.0
H193 H 0.52241 0.14608 0.66384 0.0
H194 H 0.50212 0.16854 0.58287 0.0
H195 H 0.37014 0.07141 0.75969 0.0
H196 H 0.47033 0.04349 0.60743 0.0
H197 H 0.3692 0.03666 0.59584 0.0
C198 C 0.49741 0.71381 0.38182 0.0
C199 C 0.46282 0.68664 0.38177 0.0
N200 N 0.46108 0.66012 0.36629 0.0
N201 N 0.51702 0.70453 0.36598 0.0
C202 C 0.49414 0.67147 0.35715 0.0
H203 H 0.50727 0.73922 0.39178 0.0
Co204 Co 0.56351 0.73325 0.35463 0.0
C205 C 0.56628 0.70194 0.29941 0.0
O206 O 0.5994 0.71022 0.3028 0.0
N207 N 0.61036 0.76287 0.34318 0.0
C208 C 0.66879 0.79846 0.34033 0.0
C209 C 0.6413 0.77468 0.35698 0.0
C210 C 0.61967 0.78028 0.31866 0.0
N211 N 0.6548 0.80132 0.31619 0.0
O212 O 0.55124 0.76681 0.34178 0.0
H213 H 0.64394 0.76722 0.37795 0.0
H214 H 0.60087 0.77775 0.3028 0.0
O215 O 0.55077 0.70977 0.31834 0.0
C216 C 0.5616 0.79307 0.35818 0.0
O217 O 0.58364 0.79688 0.37834 0.0
N218 N 0.57485 0.70116 0.37004 0.0
C219 C 0.58372 0.65603 0.40576 0.0
C220 C 0.5739 0.64651 0.37783 0.0
C221 C 0.56925 0.6694 0.36025 0.0
C222 C 0.58445 0.7107 0.39705 0.0
C223 C 0.5893 0.68877 0.4152 0.0
H224 H 0.55926 0.66035 0.33956 0.0
H225 H 0.58702 0.73514 0.40477 0.0
H226 H 0.50102 0.65659 0.34298 0.0
H227 H 0.44058 0.68662 0.39179 0.0
H228 H 0.69666 0.81233 0.34541 0.0
H229 H 0.5689 0.62123 0.36985 0.0
H230 H 0.59574 0.69677 0.43681 0.0
C231 C 0.81612 0.51401 0.87341 0.0
C232 C 0.80036 0.48251 0.88785 0.0
N233 N 0.79722 0.45692 0.87039 0.0
N234 N 0.82354 0.5082 0.84726 0.0
C235 C 0.81062 0.47308 0.84585 0.0
H236 H 0.82444 0.53986 0.88205 0.0
Co237 Co 0.85274 0.54243 0.82155 0.0
C238 C 0.8853 0.4992 0.79853 0.0
O239 O 0.91764 0.51796 0.80824 0.0
N240 N 0.88143 0.57735 0.79595 0.0
C241 C 0.92104 0.61223 0.76441 0.0
C242 C 0.91106 0.58394 0.78205 0.0
C243 C 0.87469 0.60262 0.78706 0.0
N244 N 0.8983 0.62411 0.76794 0.0
O245 O 0.81265 0.52663 0.79755 0.0
H246 H 0.92436 0.56898 0.78376 0.0
H247 H 0.85163 0.60404 0.79329 0.0
O248 O 0.86234 0.50846 0.80325 0.0
C249 C 0.78942 0.53384 0.80612 0.0
O250 O 0.79843 0.55774 0.82586 0.0
N251 N 0.89039 0.55758 0.84662 0.0
C252 C 0.92205 0.57537 0.89894 0.0
C253 C 0.91253 0.54256 0.88702 0.0
C254 C 0.89642 0.53403 0.8609 0.0
C255 C 0.90268 0.59086 0.85669 0.0
C256 C 0.91885 0.60042 0.88284 0.0
H257 H 0.88466 0.50693 0.85415 0.0
H258 H 0.89653 0.60884 0.84591 0.0
H259 H 0.81416 0.45992 0.82813 0.0
H260 H 0.79408 0.47915 0.90991 0.0
H261 H 0.94232 0.62231 0.74929 0.0
H262 H 0.91387 0.52219 0.89892 0.0
H263 H 0.92619 0.62619 0.89126 0.0
C264 C 0.33719 0.86737 0.39187 0.0
C265 C 0.35909 0.85638 0.40318 0.0
N266 N 0.37401 0.84815 0.38201 0.0
N267 N 0.33915 0.8668 0.36378 0.0
C268 C 0.36092 0.854 0.3585 0.0
H269 H 0.323 0.87775 0.40329 0.0
Co270 Co 0.32213 0.88674 0.33825 0.0
C271 C 0.38543 0.91671 0.29821 0.0
O272 O 0.39542 0.95041 0.29977 0.0
N273 N 0.30463 0.90669 0.31275 0.0
C274 C 0.29716 0.94284 0.28439 0.0
C275 C 0.31995 0.94001 0.30261 0.0
C276 C 0.27236 0.89015 0.3009 0.0
N277 N 0.26719 0.91141 0.28352 0.0
O278 O 0.2943 0.84104 0.32198 0.0
H279 H 0.34581 0.96124 0.30832 0.0
H280 H 0.25323 0.86259 0.30427 0.0
O281 O 0.35903 0.89402 0.31226 0.0
C282 C 0.26892 0.81802 0.33663 0.0
O283 O 0.25949 0.82852 0.35911 0.0
N284 N 0.34896 0.9302 0.35588 0.0
C285 C 0.37867 0.97842 0.39921 0.0
C286 C 0.39935 0.96825 0.38372 0.0
C287 C 0.38388 0.9438 0.36218 0.0
C288 C 0.3293 0.94204 0.36916 0.0
C289 C 0.34381 0.96659 0.3907 0.0
H290 H 0.39885 0.93283 0.35298 0.0
H291 H 0.30137 0.93004 0.36473 0.0
H292 H 0.36959 0.85188 0.33783 0.0
H293 H 0.36521 0.85649 0.4251 0.0
H294 H 0.30227 0.96606 0.27261 0.0
H295 H 0.42611 0.97614 0.39 0.0
H296 H 0.32707 0.97403 0.40205 0.0
C297 C 0.51133 0.31836 0.87804 0.0
C298 C 0.54669 0.34052 0.8727 0.0
N299 N 0.55019 0.35044 0.84577 0.0
N300 N 0.49257 0.31514 0.85474 0.0
C301 C 0.51718 0.33453 0.83526 0.0
H302 H 0.50011 0.30574 0.89778 0.0
Co303 Co 0.4435 0.28963 0.85081 0.0
C304 C 0.4285 0.334 0.81135 0.0
O305 O 0.39826 0.32687 0.82271 0.0
N306 N 0.39404 0.26336 0.84664 0.0
C307 C 0.33651 0.2271 0.85388 0.0
C308 C 0.36839 0.24952 0.86633 0.0
C309 C 0.37684 0.24922 0.82246 0.0
N310 N 0.34194 0.22715 0.82626 0.0
O311 O 0.4495 0.26164 0.82356 0.0
H312 H 0.37243 0.25305 0.88856 0.0
H313 H 0.39017 0.2526 0.80266 0.0
O314 O 0.44674 0.32138 0.8217 0.0
C315 C 0.44563 0.23271 0.83282 0.0
O316 O 0.42812 0.22035 0.85632 0.0
N317 N 0.43954 0.31648 0.87925 0.0
C318 C 0.44153 0.35111 0.92866 0.0
C319 C 0.44636 0.36794 0.90269 0.0
C320 C 0.44607 0.35042 0.87819 0.0
C321 C 0.43527 0.30001 0.90425 0.0
C322 C 0.43611 0.3167 0.92914 0.0
H323 H 0.45251 0.36485 0.85884 0.0
H324 H 0.43231 0.27392 0.90479 0.0
H325 H 0.51112 0.33768 0.81395 0.0
H326 H 0.56821 0.34888 0.88745 0.0
H327 H 0.31185 0.20997 0.86449 0.0
H328 H 0.45085 0.39458 0.90123 0.0
H329 H 0.43363 0.30301 0.94858 0.0
C330 C 0.20999 0.53549 0.39908 0.0
C331 C 0.22432 0.57149 0.39668 0.0
N332 N 0.22122 0.57892 0.36989 0.0
N333 N 0.19719 0.52032 0.37402 0.0
C334 C 0.20541 0.54762 0.35657 0.0
H335 H 0.20803 0.52137 0.41812 0.0
Co336 Co 0.1705 0.47258 0.3649 0.0
C337 C 0.11228 0.46878 0.32891 0.0
O338 O 0.08846 0.43718 0.33758 0.0
N339 N 0.14387 0.42439 0.35516 0.0
C340 C 0.11701 0.36559 0.35435 0.0
C341 C 0.13026 0.395 0.37122 0.0
C342 C 0.13836 0.41197 0.32873 0.0
N343 N 0.12186 0.37644 0.32764 0.0
O344 O 0.20406 0.48051 0.33648 0.0
H345 H 0.13155 0.39451 0.39368 0.0
H346 H 0.14843 0.42884 0.31052 0.0
O347 O 0.14364 0.48381 0.33872 0.0
C348 C 0.22543 0.46932 0.34111 0.0
O349 O 0.21751 0.4454 0.36065 0.0
N350 N 0.14046 0.46615 0.3946 0.0
C351 C 0.10984 0.46306 0.44629 0.0
C352 C 0.10028 0.47535 0.42261 0.0
C353 C 0.11649 0.47738 0.39695 0.0
C354 C 0.15062 0.45508 0.41751 0.0
C355 C 0.13567 0.45322 0.44347 0.0
H356 H 0.11068 0.4893 0.37959 0.0
H357 H 0.17166 0.44895 0.41568 0.0
H358 H 0.19891 0.54455 0.3346 0.0
H359 H 0.23543 0.59064 0.41341 0.0
H360 H 0.10659 0.33855 0.36113 0.0
H361 H 0.08069 0.48356 0.42385 0.0
H362 H 0.14495 0.44489 0.46129 0.0
C363 C 0.66395 0.18109 0.903 0.0
C364 C 0.64042 0.19292 0.89911 0.0
N365 N 0.63951 0.19914 0.87167 0.0
N366 N 0.67689 0.1789 0.87797 0.0
C367 C 0.66253 0.19138 0.85948 0.0
H368 H 0.66952 0.17256 0.92258 0.0
Co369 Co 0.70328 0.15729 0.87025 0.0
C370 C 0.6747 0.11904 0.81659 0.0
O371 O 0.6816 0.0943 0.8243 0.0
N372 N 0.731 0.1362 0.86257 0.0
C373 C 0.75465 0.10144 0.85819 0.0
C374 C 0.7308 0.10721 0.87285 0.0
C375 C 0.75564 0.14774 0.84221 0.0
N376 N 0.77035 0.12727 0.83915 0.0
O377 O 0.73978 0.20147 0.85761 0.0
H378 H 0.71347 0.09008 0.88898 0.0
H379 H 0.76105 0.16947 0.8284 0.0
O380 O 0.68286 0.14538 0.83268 0.0
C381 C 0.76078 0.21909 0.87727 0.0
O382 O 0.75981 0.20231 0.90033 0.0
N383 N 0.66675 0.11564 0.8852 0.0
C384 C 0.61122 0.07805 0.92184 0.0
C385 C 0.60442 0.07963 0.89354 0.0
C386 C 0.6327 0.09918 0.87548 0.0
C387 C 0.67362 0.11194 0.91234 0.0
C388 C 0.64618 0.09306 0.93104 0.0
H389 H 0.62656 0.10426 0.85482 0.0
H390 H 0.70037 0.12696 0.92016 0.0
H391 H 0.6672 0.19285 0.83727 0.0
H392 H 0.62388 0.19502 0.91497 0.0
H393 H 0.75932 0.0795 0.86072 0.0
H394 H 0.57756 0.06855 0.886 0.0
H395 H 0.65217 0.09217 0.95288 0.0
H396 H 0.40313 0.32194 0.97653 0.0
H397 H 0.48364 0.42167 0.94122 0.0
H398 H 0.48524 0.4517 0.9852 0.0
H399 H 0.35653 0.35346 0.0137 0.0
H400 H 0.34783 0.32528 0.04364 0.0
H401 H 0.35425 0.31134 0.00987 0.0
H402 H 0.40472 0.30299 0.02988 0.0
H403 H 0.39845 0.31694 0.06379 0.0
H404 H 0.44137 0.33927 0.04746 0.0
H405 H 0.47349 0.47146 0.03062 0.0
H406 H 0.45018 0.48002 0.07442 0.0
H407 H 0.38352 0.36611 0.08324 0.0
C408 C 0.42174 0.34996 0.97812 0.0
C409 C 0.44314 0.36938 0.95523 0.0
C410 C 0.46641 0.40622 0.95816 0.0
C411 C 0.46789 0.42347 0.9832 0.0
C412 C 0.44649 0.40342 0.00527 0.0
C413 C 0.42412 0.36744 0.00309 0.0
C414 C 0.40299 0.35219 0.02959 0.0
C415 C 0.36305 0.33455 0.02384 0.0
C416 C 0.41247 0.32632 0.0435 0.0
C417 C 0.41608 0.38551 0.04668 0.0
C418 C 0.44124 0.41469 0.0323 0.0
C419 C 0.4546 0.44875 0.04251 0.0
C420 C 0.44131 0.45322 0.0678 0.0
C421 C 0.41517 0.42371 0.08299 0.0
C422 C 0.40333 0.38937 0.07243 0.0
H423 H 0.00368 0.35701 0.57865 0.0
H424 H 0.9713 0.43513 0.58934 0.0
H425 H 0.0175 0.4746 0.55609 0.0
H426 H 0.10131 0.42065 0.56271 0.0
H427 H 0.10101 0.39041 0.53697 0.0
H428 H 0.07354 0.3737 0.56764 0.0
H429 H 0.01878 0.33852 0.53592 0.0
H430 H 0.04572 0.35554 0.50527 0.0
H431 H 0.00825 0.36175 0.50999 0.0
H432 H 0.05718 0.49899 0.51431 0.0
H433 H 0.08913 0.50757 0.46977 0.0
H434 H 0.09133 0.41077 0.48475 0.0
C435 C 0.00742 0.38309 0.57486 0.0
C436 C 0.98423 0.3932 0.58654 0.0
C437 C 0.98931 0.42721 0.58093 0.0
C438 C 0.01538 0.44972 0.56198 0.0
C439 C 0.03622 0.43784 0.54919 0.0
C440 C 0.03289 0.40549 0.5558 0.0
C441 C 0.05403 0.39611 0.53619 0.0
C442 C 0.08428 0.39518 0.55181 0.0
C443 C 0.03027 0.36094 0.52095 0.0
C444 C 0.06801 0.42712 0.51646 0.0
C445 C 0.05829 0.45139 0.52459 0.0
C446 C 0.0656 0.48054 0.50807 0.0
C447 C 0.08328 0.48491 0.48262 0.0
C448 C 0.09289 0.4599 0.47379 0.0
C449 C 0.08532 0.43093 0.4912 0.0
H450 H 0.55724 0.01065 0.92543 0.0
H451 H 0.60276 0.11291 0.96512 0.0
H452 H 0.56464 0.08607 0.00619 0.0
H453 H 0.46434 0.96848 0.96514 0.0
H454 H 0.46407 0.92717 0.96703 0.0
H455 H 0.48207 0.95509 0.93671 0.0
H456 H 0.54078 0.95482 0.94319 0.0
H457 H 0.52308 0.9272 0.97318 0.0
H458 H 0.56375 0.96881 0.97614 0.0
H459 H 0.54084 0.04886 0.04683 0.0
H460 H 0.53527 0.00545 0.08224 0.0
H461 H 0.50201 0.9253 0.01823 0.0
C462 C 0.55741 0.0273 0.94224 0.0
C463 C 0.58247 0.06351 0.94244 0.0
C464 C 0.58342 0.08497 0.96485 0.0
C465 C 0.56159 0.06996 0.98809 0.0
C466 C 0.53884 0.03351 0.98847 0.0
C467 C 0.53603 0.01242 0.9658 0.0
C468 C 0.51611 0.97371 0.9736 0.0
C469 C 0.47946 0.95502 0.95981 0.0
C470 C 0.53724 0.95514 0.96613 0.0
C471 C 0.51293 0.97671 0.00485 0.0
C472 C 0.52436 0.01121 0.01285 0.0
C473 C 0.53052 0.02157 0.04087 0.0
C474 C 0.52735 0.99681 0.06092 0.0
C475 C 0.51844 0.96238 0.05264 0.0
C476 C 0.50863 0.95162 0.02477 0.0
H477 H 0.64606 0.61025 0.54668 0.0
H478 H 0.55918 0.50257 0.53862 0.0
H479 H 0.54336 0.5178 0.49318 0.0
H480 H 0.60354 0.65322 0.51644 0.0
H481 H 0.64282 0.68624 0.49898 0.0
H482 H 0.64654 0.66648 0.53081 0.0
H483 H 0.68731 0.64789 0.50566 0.0
H484 H 0.68342 0.6673 0.47363 0.0
H485 H 0.67201 0.62158 0.47433 0.0
H486 H 0.53688 0.54567 0.44877 0.0
H487 H 0.53836 0.58458 0.41067 0.0
H488 H 0.63248 0.67205 0.44701 0.0
C489 C 0.62385 0.58972 0.53532 0.0
C490 C 0.60389 0.55523 0.54619 0.0
C491 C 0.57458 0.52934 0.53088 0.0
C492 C 0.56564 0.53762 0.50492 0.0
C493 C 0.58644 0.57176 0.49459 0.0
C494 C 0.61488 0.59736 0.5094 0.0
C495 C 0.63289 0.63217 0.49404 0.0
C496 C 0.63133 0.66122 0.51108 0.0
C497 C 0.67117 0.64284 0.48647 0.0
C498 C 0.60986 0.62236 0.46838 0.0
C499 C 0.58327 0.58741 0.46893 0.0
C500 C 0.5578 0.57298 0.44797 0.0
C501 C 0.55904 0.59519 0.42629 0.0
C502 C 0.58557 0.63132 0.42588 0.0
C503 C 0.61176 0.64461 0.44684 0.0
H504 H 0.00702 0.56781 0.04382 0.0
H505 H 0.95348 0.61854 0.08101 0.0
H506 H 0.92128 0.61129 0.03682 0.0
H507 H 0.02485 0.61061 0.98265 0.0
H508 H 0.01861 0.57489 0.96012 0.0
H509 H 0.0308 0.57538 -0.00396 0.0
H510 H 0.97598 0.51366 0.00423 0.0
H511 H 0.96412 0.51233 0.96801 0.0
H512 H 0.93272 0.50604 0.995 0.0
H513 H 0.90364 0.60846 0.98716 0.0
H514 H 0.8961 0.60415 0.93605 0.0
H515 H 0.96348 0.55767 0.93047 0.0
C516 C 0.98697 0.57547 0.04303 0.0
C517 C 0.98185 0.59286 0.06579 0.0
C518 C 0.95691 0.60438 0.06384 0.0
C519 C 0.93876 0.60057 0.03883 0.0
C520 C 0.94599 0.58523 0.01612 0.0
C521 C 0.969 0.57223 0.0181 0.0
C522 C 0.97537 0.56087 0.98983 0.0
C523 C 0.01474 0.58169 0.9817 0.0
C524 C 0.96119 0.52084 0.98924 0.0
C525 C 0.9535 0.5708 0.97154 0.0
C526 C 0.93651 0.58447 0.98714 0.0
C527 C 0.91637 0.59731 0.97474 0.0
C528 C 0.91276 0.5953 0.94565 0.0
C529 C 0.92946 0.58084 0.92926 0.0
C530 C 0.95022 0.56863 0.94247 0.0
H531 H 0.34139 0.96015 0.44782 0.0
H532 H 0.44439 0.03339 0.41315 0.0
H533 H 0.46659 0.05551 0.46075 0.0
H534 H 0.34128 0.01841 0.50221 0.0
H535 H 0.31894 0.98274 0.52681 0.0
H536 H 0.31126 0.97435 0.48992 0.0
H537 H 0.3291 0.92617 0.49374 0.0
H538 H 0.3375 0.93485 0.53052 0.0
H539 H 0.37174 0.93755 0.50788 0.0
H540 H 0.47766 0.06786 0.51205 0.0
H541 H 0.47622 0.07291 0.56318 0.0
H542 H 0.36579 0.99065 0.56401 0.0
C543 C 0.36835 0.98157 0.45007 0.0
C544 C 0.39111 0.99543 0.42677 0.0
C545 C 0.42655 0.02254 0.43076 0.0
C546 C 0.43934 0.03518 0.45765 0.0
C547 C 0.41631 0.02032 0.48019 0.0
C548 C 0.38149 0.99437 0.47663 0.0
C549 C 0.36232 0.98221 0.50426 0.0
C550 C 0.33165 0.9899 0.50589 0.0
C551 C 0.34942 0.94286 0.50939 0.0
C552 C 0.39184 0.00541 0.52403 0.0
C553 C 0.42279 0.02708 0.50973 0.0
C554 C 0.45363 0.05095 0.52348 0.0
C555 C 0.45262 0.05327 0.55258 0.0
C556 C 0.42097 0.03176 0.56763 0.0
C557 C 0.39034 0.00731 0.55308 0.0
H558 H 0.27448 0.52888 0.16503 0.0
H559 H 0.20819 0.43053 0.12106 0.0
H560 H 0.16701 0.45114 0.10856 0.0
H561 H 0.19934 0.54037 0.1909 0.0
H562 H 0.22437 0.5876 0.18641 0.0
H563 H 0.2467 0.56357 0.19502 0.0
H564 H 0.2868 0.59017 0.15155 0.0
H565 H 0.26429 0.61382 0.14258 0.0
H566 H 0.26683 0.58435 0.11757 0.0
H567 H 0.13778 0.48473 0.0949 0.0
H568 H 0.11777 0.52759 0.08576 0.0
H569 H 0.20041 0.60363 0.13981 0.0
C570 C 0.25074 0.51134 0.15352 0.0
C571 C 0.24462 0.47815 0.14393 0.0
C572 C 0.21356 0.45614 0.1285 0.0
C573 C 0.18992 0.46756 0.12131 0.0
C574 C 0.19737 0.50092 0.12999 0.0
C575 C 0.22656 0.5223 0.14624 0.0
C576 C 0.22898 0.55769 0.15157 0.0
C577 C 0.22458 0.56259 0.18284 0.0
C578 C 0.26379 0.5883 0.14012 0.0
C579 C 0.19743 0.55314 0.1349 0.0
C580 C 0.1796 0.52014 0.12268 0.0
C581 C 0.15107 0.51044 0.10476 0.0
C582 C 0.14012 0.535 0.09945 0.0
C583 C 0.15747 0.56868 0.11217 0.0
C584 C 0.18642 0.57778 0.13019 0.0
H585 H 0.58257 0.19451 0.65464 0.0
H586 H 0.54655 0.15246 0.57151 0.0
H587 H 0.60628 0.16333 0.55987 0.0
H588 H 0.67008 0.26359 0.63445 0.0
H589 H 0.69059 0.25856 0.66542 0.0
H590 H 0.6452 0.24818 0.66646 0.0
H591 H 0.62658 0.18513 0.68441 0.0
H592 H 0.67208 0.19574 0.68339 0.0
H593 H 0.63884 0.15777 0.66474 0.0
H594 H 0.66917 0.1771 0.55788 0.0
H595 H 0.7327 0.1981 0.56398 0.0
H596 H 0.72744 0.23082 0.6487 0.0
C597 C 0.58738 0.18774 0.63397 0.0
C598 C 0.5601 0.17275 0.61393 0.0
C599 C 0.56729 0.16447 0.587 0.0
C600 C 0.60098 0.17021 0.58032 0.0
C601 C 0.6271 0.18436 0.60078 0.0
C602 C 0.62084 0.19344 0.62694 0.0
C603 C 0.65356 0.20862 0.64504 0.0
C604 C 0.66556 0.24701 0.65331 0.0
C605 C 0.64741 0.18542 0.67093 0.0
C606 C 0.67925 0.20666 0.62495 0.0
C607 C 0.66339 0.19236 0.59961 0.0
C608 C 0.68193 0.18837 0.5776 0.0
C609 C 0.71795 0.20026 0.58132 0.0
C610 C 0.73499 0.21603 0.60681 0.0
C611 C 0.71512 0.21858 0.62905 0.0
H612 H 0.50848 0.75128 0.14207 0.0
H613 H 0.56167 0.76387 0.06272 0.0
H614 H 0.52812 0.69934 0.05576 0.0
H615 H 0.50014 0.66389 0.16061 0.0
H616 H 0.45682 0.64726 0.17539 0.0
H617 H 0.48895 0.69371 0.17778 0.0
H618 H 0.44631 0.71036 0.15404 0.0
H619 H 0.41315 0.66446 0.15215 0.0
H620 H 0.42683 0.69092 0.12084 0.0
H621 H 0.48228 0.63482 0.05408 0.0
H622 H 0.43135 0.57463 0.05994 0.0
H623 H 0.40695 0.60591 0.13919 0.0
C624 C 0.51406 0.74042 0.12371 0.0
C625 C 0.53764 0.76257 0.10292 0.0
C626 C 0.54378 0.74736 0.07897 0.0
C627 C 0.52483 0.71073 0.07481 0.0
C628 C 0.50022 0.68978 0.09495 0.0
C629 C 0.49532 0.70401 0.11921 0.0
C630 C 0.4651 0.67634 0.13637 0.0
C631 C 0.47859 0.66998 0.1642 0.0
C632 C 0.43615 0.68611 0.1411 0.0
C633 C 0.45256 0.64484 0.11725 0.0
C634 C 0.47347 0.65283 0.09374 0.0
C635 C 0.466 0.62811 0.07263 0.0
C636 C 0.43671 0.59412 0.07596 0.0
C637 C 0.41512 0.58537 0.10009 0.0
C638 C 0.42322 0.61135 0.12077 0.0
H639 H 0.77468 0.51374 0.65194 0.0
H640 H 0.67736 0.4408 0.69435 0.0
H641 H 0.69529 0.39541 0.6937 0.0
H642 H 0.7726 0.45724 0.6049 0.0
H643 H 0.81927 0.47247 0.6034 0.0
H644 H 0.80434 0.50224 0.61393 0.0
H645 H 0.83867 0.51517 0.66054 0.0
H646 H 0.85481 0.48623 0.64985 0.0
H647 H 0.83201 0.47902 0.6827 0.0
H648 H 0.71812 0.35472 0.6797 0.0
H649 H 0.7456 0.32379 0.65662 0.0
H650 H 0.82681 0.42317 0.62203 0.0
C651 C 0.7578 0.48873 0.66216 0.0
C652 C 0.72467 0.48081 0.6732 0.0
C653 C 0.70306 0.4476 0.68604 0.0
C654 C 0.71299 0.42159 0.68565 0.0
C655 C 0.74476 0.42946 0.67271 0.0
C656 C 0.7672 0.46255 0.66172 0.0
C657 C 0.79754 0.46327 0.64588 0.0
C658 C 0.79844 0.47445 0.61523 0.0
C659 C 0.83285 0.48734 0.66063 0.0
C660 C 0.78754 0.4249 0.64808 0.0
C661 C 0.75753 0.40594 0.66418 0.0
C662 C 0.74206 0.3695 0.66759 0.0
C663 C 0.75777 0.35213 0.65433 0.0
C664 C 0.78829 0.37108 0.63747 0.0
C665 C 0.80336 0.40795 0.63458 0.0
H666 H 0.38083 0.79784 0.07638 0.0
H667 H 0.40968 0.76805 0.15416 0.0
H668 H 0.3483 0.74341 0.17122 0.0
H669 H 0.32125 0.82338 0.10623 0.0
H670 H 0.29072 0.80632 0.0774 0.0
H671 H 0.33698 0.82196 0.0717 0.0
H672 H 0.32172 0.76153 0.05013 0.0
H673 H 0.27544 0.74585 0.05553 0.0
H674 H 0.29521 0.72165 0.06982 0.0
H675 H 0.28258 0.71991 0.17877 0.0
H676 H 0.2186 0.69949 0.17591 0.0
H677 H 0.23446 0.74645 0.09348 0.0
C678 C 0.3742 0.78589 0.09691 0.0
C679 C 0.39995 0.78475 0.11392 0.0
C680 C 0.39037 0.76944 0.14088 0.0
C681 C 0.35559 0.75533 0.15071 0.0
C682 C 0.33086 0.75704 0.13339 0.0
C683 C 0.33982 0.77201 0.10708 0.0
C684 C 0.30845 0.77043 0.09241 0.0
C685 C 0.31474 0.80774 0.0866 0.0
C686 C 0.29969 0.74856 0.06538 0.0
C687 C 0.28025 0.75176 0.11437 0.0
C688 C 0.29357 0.74427 0.13792 0.0
C689 C 0.27195 0.72592 0.16051 0.0
C690 C 0.23568 0.7145 0.15874 0.0
C691 C 0.22157 0.72156 0.13456 0.0
C692 C 0.2444 0.74089 0.11238 0.0
H693 H 0.60264 0.35947 0.66104 0.0
H694 H 0.53071 0.38676 0.62112 0.0
H695 H 0.47967 0.33129 0.63853 0.0
H696 H 0.55579 0.26921 0.64311 0.0
H697 H 0.56505 0.25384 0.6752 0.0
H698 H 0.59517 0.29762 0.66276 0.0
H699 H 0.58942 0.3232 0.71016 0.0
H700 H 0.55853 0.27937 0.72245 0.0
H701 H 0.54638 0.31315 0.72242 0.0
H702 H 0.43734 0.27254 0.65751 0.0
H703 H 0.40605 0.20927 0.66925 0.0
H704 H 0.5051 0.21762 0.6952 0.0
C705 C 0.57602 0.35351 0.65619 0.0
C706 C 0.57011 0.37679 0.63972 0.0
C707 C 0.53528 0.36869 0.63349 0.0
C708 C 0.50634 0.33762 0.64357 0.0
C709 C 0.51285 0.31501 0.65978 0.0
C710 C 0.54679 0.3222 0.66572 0.0
C711 C 0.54637 0.29161 0.681 0.0
C712 C 0.56678 0.27722 0.66453 0.0
C713 C 0.56105 0.30249 0.71078 0.0
C714 C 0.50697 0.26549 0.68151 0.0
C715 C 0.48816 0.28016 0.67011 0.0
C716 C 0.45168 0.26077 0.66664 0.0
C717 C 0.43413 0.22485 0.67342 0.0
C718 C 0.45315 0.20854 0.68305 0.0
C719 C 0.48979 0.2295 0.68836 0.0
H720 H 0.38764 0.80683 0.34825 0.0
H721 H 0.42949 0.88061 0.41733 0.0
H722 H 0.48538 0.87944 0.41475 0.0
H723 H 0.426 0.75401 0.36883 0.0
H724 H 0.43449 0.74624 0.33345 0.0
H725 H 0.39836 0.75372 0.34076 0.0
H726 H 0.42395 0.80504 0.3049 0.0
H727 H 0.4608 0.79846 0.29805 0.0
H728 H 0.46849 0.84115 0.30908 0.0
H729 H 0.53661 0.87134 0.40413 0.0
H730 H 0.57662 0.84904 0.39184 0.0
H731 H 0.50111 0.77926 0.33011 0.0
C732 C 0.40856 0.82249 0.36292 0.0
C733 C 0.40436 0.8437 0.38307 0.0
C734 C 0.43207 0.86378 0.40206 0.0
C735 C 0.46403 0.86369 0.40046 0.0
C736 C 0.46766 0.84323 0.37984 0.0
C737 C 0.44048 0.82244 0.36176 0.0
C738 C 0.45061 0.80146 0.34248 0.0
C739 C 0.42591 0.7615 0.34665 0.0
C740 C 0.451 0.81218 0.31181 0.0
C741 C 0.4876 0.81331 0.35289 0.0
C742 C 0.49712 0.83796 0.37404 0.0
C743 C 0.5295 0.85203 0.38763 0.0
C744 C 0.5521 0.83926 0.3804 0.0
C745 C 0.54194 0.81232 0.36009 0.0
C746 C 0.50981 0.80014 0.34548 0.0
H747 H 0.73454 0.52507 0.83838 0.0
H748 H 0.75886 0.48292 0.76503 0.0
H749 H 0.69686 0.43353 0.76388 0.0
H750 H 0.68744 0.44584 0.87125 0.0
H751 H 0.65577 0.45518 0.88749 0.0
H752 H 0.69914 0.49075 0.87897 0.0
H753 H 0.672 0.52096 0.8494 0.0
H754 H 0.62835 0.48575 0.85823 0.0
H755 H 0.64087 0.49637 0.82212 0.0
H756 H 0.63282 0.38513 0.7743 0.0
H757 H 0.57542 0.34238 0.79628 0.0
H758 H 0.59693 0.41505 0.86462 0.0
C759 C 0.72668 0.50625 0.82141 0.0
C760 C 0.75145 0.50822 0.80151 0.0
C761 C 0.74019 0.48221 0.78027 0.0
C762 C 0.70503 0.45406 0.7795 0.0
C763 C 0.68166 0.45219 0.80026 0.0
C764 C 0.69219 0.47776 0.82079 0.0
C765 C 0.66397 0.46787 0.84281 0.0
C766 C 0.67739 0.46472 0.87183 0.0
C767 C 0.6505 0.49431 0.84315 0.0
C768 C 0.63608 0.43231 0.83199 0.0
C769 C 0.64621 0.42387 0.80709 0.0
C770 C 0.62468 0.39169 0.79369 0.0
C771 C 0.59226 0.36761 0.80623 0.0
C772 C 0.58221 0.37566 0.83207 0.0
C773 C 0.6043 0.40843 0.84489 0.0
H774 H 0.21094 0.62792 0.39574 0.0
H775 H 0.24666 0.60484 0.31834 0.0
H776 H 0.25755 0.66196 0.2987 0.0
H777 H 0.16637 0.67071 0.36388 0.0
H778 H 0.17874 0.70266 0.3916 0.0
H779 H 0.17264 0.65951 0.39883 0.0
H780 H 0.23599 0.68793 0.41935 0.0
H781 H 0.24209 0.73109 0.41258 0.0
H782 H 0.27291 0.71907 0.39853 0.0
H783 H 0.26934 0.72446 0.28959 0.0
H784 H 0.28024 0.78573 0.29162 0.0
H785 H 0.23314 0.76512 0.37423 0.0
C786 C 0.22124 0.63503 0.37472 0.0
C787 C 0.22833 0.61231 0.35859 0.0
C788 C 0.24111 0.62205 0.33096 0.0
C789 C 0.24728 0.65433 0.31968 0.0
C790 C 0.23997 0.6762 0.33621 0.0
C791 C 0.227 0.66676 0.36308 0.0
C792 C 0.22184 0.69496 0.37683 0.0
C793 C 0.18256 0.68113 0.38315 0.0
C794 C 0.24457 0.7091 0.40338 0.0
C795 C 0.23503 0.72239 0.35389 0.0
C796 C 0.24524 0.71114 0.33053 0.0
C797 C 0.26084 0.73327 0.30758 0.0
C798 C 0.26687 0.76799 0.30889 0.0
C799 C 0.25714 0.7801 0.33292 0.0
C800 C 0.24021 0.75655 0.3553 0.0
H801 H 0.57004 0.16598 0.88318 0.0
H802 H 0.64993 0.24207 0.82758 0.0
H803 H 0.60428 0.25049 0.80356 0.0
H804 H 0.49721 0.12796 0.83004 0.0
H805 H 0.46474 0.12171 0.85604 0.0
H806 H 0.50298 0.11859 0.86569 0.0
H807 H 0.51883 0.16656 0.90383 0.0
H808 H 0.48053 0.16928 0.89443 0.0
H809 H 0.52352 0.20853 0.89404 0.0
H810 H 0.55166 0.25728 0.79146 0.0
H811 H 0.49857 0.26341 0.7935 0.0
H812 H 0.45226 0.17902 0.8547 0.0
C813 C 0.57778 0.18431 0.86587 0.0
C814 C 0.61336 0.20396 0.85745 0.0
C815 C 0.62269 0.22712 0.83436 0.0
C816 C 0.59693 0.23175 0.82053 0.0
C817 C 0.56195 0.21219 0.82962 0.0
C818 C 0.55239 0.1886 0.85158 0.0
C819 C 0.51374 0.17259 0.8588 0.0
C820 C 0.49348 0.13285 0.85224 0.0
C821 C 0.5089 0.1797 0.88957 0.0
C822 C 0.50348 0.19278 0.83891 0.0
C823 C 0.53135 0.21492 0.82174 0.0
C824 C 0.52939 0.23941 0.80426 0.0
C825 C 0.49901 0.24263 0.8055 0.0
C826 C 0.47123 0.22167 0.82432 0.0
C827 C 0.47281 0.19511 0.83987 0.0
H828 H 0.3981 0.65237 0.35093 0.0
H829 H 0.45461 0.59557 0.36323 0.0
H830 H 0.40131 0.53984 0.34913 0.0
H831 H 0.31723 0.58895 0.37804 0.0
H832 H 0.29078 0.59623 0.353 0.0
H833 H 0.33434 0.6314 0.36135 0.0
H834 H 0.35071 0.63763 0.30876 0.0
H835 H 0.30719 0.60181 0.3004 0.0
H836 H 0.34576 0.59984 0.28972 0.0
H837 H 0.34021 0.48998 0.3398 0.0
H838 H 0.27561 0.44967 0.3384 0.0
H839 H 0.25999 0.5395 0.32849 0.0
C840 C 0.39912 0.62814 0.3505 0.0
C841 C 0.43011 0.62791 0.35829 0.0
C842 C 0.43092 0.59599 0.35729 0.0
C843 C 0.40093 0.5644 0.34916 0.0
C844 C 0.37071 0.56548 0.34145 0.0
C845 C 0.36968 0.59657 0.3419 0.0
C846 C 0.33336 0.59028 0.33439 0.0
C847 C 0.31805 0.60242 0.35812 0.0
C848 C 0.33432 0.60846 0.30666 0.0
C849 C 0.31356 0.5505 0.33125 0.0
C850 C 0.33571 0.53672 0.33487 0.0
C851 C 0.32271 0.50043 0.33626 0.0
C852 C 0.28601 0.47771 0.33537 0.0
C853 C 0.26286 0.49143 0.33306 0.0
C854 C 0.27701 0.52815 0.32954 0.0
H855 H 0.75315 0.26136 0.83884 0.0
H856 H 0.80226 0.26398 0.91833 0.0
H857 H 0.81602 0.32537 0.92552 0.0
H858 H 0.81496 0.35575 0.81963 0.0
H859 H 0.77943 0.35932 0.80383 0.0
H860 H 0.77833 0.31761 0.80376 0.0
H861 H 0.71647 0.28945 0.82708 0.0
H862 H 0.71849 0.33156 0.82846 0.0
H863 H 0.71148 0.30644 0.86004 0.0
H864 H 0.81805 0.38352 0.92679 0.0
H865 H 0.81727 0.43885 0.91824 0.0
H866 H 0.767 0.39843 0.83808 0.0
C867 C 0.76784 0.27518 0.85732 0.0
C868 C 0.77656 0.25783 0.87806 0.0
C869 C 0.79533 0.27673 0.90215 0.0
C870 C 0.8031 0.31156 0.90651 0.0
C871 C 0.79231 0.32719 0.88642 0.0
C872 C 0.77592 0.31 0.86197 0.0
C873 C 0.76594 0.33233 0.84422 0.0
C874 C 0.78589 0.34181 0.81622 0.0
C875 C 0.72571 0.31384 0.83971 0.0
C876 C 0.77871 0.36443 0.8628 0.0
C877 C 0.79367 0.36087 0.8871 0.0
C878 C 0.80669 0.3868 0.90774 0.0
C879 C 0.80565 0.41789 0.90291 0.0
C880 C 0.79187 0.42271 0.8776 0.0
C881 C 0.77763 0.39529 0.85761 0.0
H882 H 0.14667 0.33186 0.32354 0.0
H883 H 0.09699 0.37966 0.27702 0.0
H884 H 0.11206 0.36134 0.23286 0.0
H885 H 0.21755 0.36712 0.2916 0.0
H886 H 0.22796 0.33206 0.29039 0.0
H887 H 0.19876 0.33149 0.31665 0.0
H888 H 0.15051 0.26933 0.30054 0.0
H889 H 0.17997 0.26976 0.27392 0.0
H890 H 0.13667 0.26184 0.26452 0.0
H891 H 0.14952 0.35953 0.19682 0.0
H892 H 0.20726 0.37991 0.17513 0.0
H893 H 0.23662 0.33428 0.24268 0.0
C894 C 0.13702 0.33612 0.30396 0.0
C895 C 0.1203 0.3565 0.30338 0.0
C896 C 0.10937 0.36353 0.27764 0.0
C897 C 0.1177 0.35298 0.25252 0.0
C898 C 0.1372 0.33561 0.25349 0.0
C899 C 0.14632 0.32669 0.27873 0.0
C900 C 0.17486 0.31702 0.27474 0.0
C901 C 0.20662 0.33825 0.29445 0.0
C902 C 0.15958 0.27711 0.27865 0.0
C903 C 0.18422 0.32727 0.24439 0.0
C904 C 0.16057 0.33549 0.23198 0.0
C905 C 0.16749 0.35206 0.20595 0.0
C906 C 0.20051 0.3635 0.1936 0.0
C907 C 0.22639 0.35878 0.20753 0.0
C908 C 0.21687 0.3377 0.23176 0.0
H909 H 0.82505 0.18705 0.82015 0.0
H910 H 0.76522 0.07434 0.80645 0.0
H911 H 0.79369 0.08225 0.76024 0.0
H912 H 0.81083 0.21001 0.75914 0.0
H913 H 0.85316 0.24916 0.7538 0.0
H914 H 0.83805 0.23402 0.78855 0.0
H915 H 0.89478 0.2311 0.79882 0.0
H916 H 0.91039 0.24673 0.76395 0.0
H917 H 0.90706 0.20613 0.77607 0.0
H918 H 0.81548 0.10382 0.7117 0.0
H919 H 0.82895 0.13674 0.66691 0.0
H920 H 0.87447 0.23515 0.71247 0.0
C921 C 0.81941 0.16402 0.80787 0.0
C922 C 0.79335 0.13019 0.81667 0.0
C923 C 0.78571 0.10042 0.80014 0.0
C924 C 0.80173 0.10475 0.77387 0.0
C925 C 0.82572 0.13893 0.76487 0.0
C926 C 0.83505 0.16805 0.78173 0.0
C927 C 0.85627 0.20223 0.7659 0.0
C928 C 0.83849 0.22513 0.7669 0.0
C929 C 0.8944 0.22275 0.77684 0.0
C930 C 0.85497 0.1879 0.73698 0.0
C931 C 0.83823 0.1514 0.73676 0.0
C932 C 0.82966 0.1324 0.71172 0.0
C933 C 0.83734 0.15116 0.68641 0.0
C934 C 0.85274 0.18827 0.68659 0.0
C935 C 0.86298 0.20673 0.71206 0.0
H936 H 0.63711 0.83382 0.16202 0.0
H937 H 0.68701 0.94469 0.18289 0.0
H938 H 0.7115 0.93373 0.22591 0.0
H939 H 0.60388 0.80409 0.22354 0.0
H940 H 0.60895 0.76563 0.22426 0.0
H941 H 0.60619 0.78371 0.19145 0.0
H942 H 0.66611 0.79018 0.17623 0.0
H943 H 0.66896 0.77178 0.20919 0.0
H944 H 0.70452 0.81415 0.19807 0.0
H945 H 0.71647 0.90844 0.27146 0.0
H946 H 0.70036 0.87163 0.31431 0.0
H947 H 0.64595 0.77732 0.26409 0.0
C948 C 0.65446 0.85592 0.17515 0.0
C949 C 0.66032 0.88999 0.16935 0.0
C950 C 0.68274 0.91848 0.1869 0.0
C951 C 0.69671 0.91241 0.21134 0.0
C952 C 0.68842 0.87786 0.2175 0.0
C953 C 0.66818 0.85014 0.19955 0.0
C954 C 0.6573 0.8148 0.21282 0.0
C955 C 0.61671 0.79071 0.21305 0.0
C956 C 0.67532 0.79667 0.19821 0.0
C957 C 0.67189 0.82668 0.24185 0.0
C958 C 0.69092 0.86314 0.244 0.0
C959 C 0.70267 0.87994 0.26983 0.0
C960 C 0.69354 0.85899 0.29403 0.0
C961 C 0.67236 0.82192 0.29206 0.0
C962 C 0.6628 0.80568 0.2657 0.0
H963 H 0.78125 0.60965 0.65351 0.0
H964 H 0.75374 0.6727 0.70608 0.0
H965 H 0.81348 0.70204 0.72613 0.0
H966 H 0.81179 0.58292 0.69698 0.0
H967 H 0.8493 0.58474 0.67958 0.0
H968 H 0.81415 0.58267 0.65934 0.0
H969 H 0.85743 0.64003 0.6334 0.0
H970 H 0.89346 0.64212 0.65334 0.0
H971 H 0.88636 0.67933 0.65288 0.0
H972 H 0.85947 0.70244 0.75403 0.0
H973 H 0.88883 0.67802 0.78296 0.0
H974 H 0.89151 0.61774 0.71272 0.0
C975 C 0.78856 0.63131 0.6678 0.0
C976 C 0.76271 0.63845 0.67863 0.0
C977 C 0.77309 0.66656 0.69775 0.0
C978 C 0.80714 0.68352 0.70912 0.0
C979 C 0.83078 0.67261 0.70069 0.0
C980 C 0.8224 0.64802 0.67952 0.0
C981 C 0.84849 0.63475 0.67853 0.0
C982 C 0.82978 0.59392 0.6787 0.0
C983 C 0.87289 0.64999 0.65303 0.0
C984 C 0.86875 0.65081 0.70524 0.0
C985 C 0.85949 0.67409 0.71695 0.0
C986 C 0.86833 0.68577 0.7445 0.0
C987 C 0.8849 0.67177 0.7609 0.0
C988 C 0.89283 0.64676 0.74961 0.0
C989 C 0.88681 0.63801 0.72111 0.0
H990 H 0.19958 0.86259 0.29388 0.0
H991 H 0.2693 0.93406 0.23055 0.0
H992 H 0.223 0.90354 0.19505 0.0
H993 H 0.17432 0.79094 0.25955 0.0
H994 H 0.12875 0.76638 0.27046 0.0
H995 H 0.16056 0.801 0.29215 0.0
H996 H 0.1233 0.83209 0.29135 0.0
H997 H 0.09092 0.79713 0.26966 0.0
H998 H 0.11064 0.84243 0.25841 0.0
H999 H 0.17972 0.85566 0.16547 0.0
H1000 H 0.14223 0.79648 0.14506 0.0
H1001 H 0.09938 0.75522 0.22684 0.0
C1002 C 0.20434 0.87262 0.27272 0.0
C1003 C 0.23785 0.90042 0.26484 0.0
C1004 C 0.24359 0.91303 0.23705 0.0
C1005 C 0.21736 0.89582 0.21675 0.0
C1006 C 0.18541 0.86655 0.22476 0.0
C1007 C 0.17847 0.85553 0.25231 0.0
C1008 C 0.14537 0.81978 0.25487 0.0
C1009 C 0.15274 0.793 0.27011 0.0
C1010 C 0.1158 0.82307 0.26943 0.0
C1011 C 0.13698 0.81071 0.22433 0.0
C1012 C 0.15958 0.8385 0.20727 0.0
C1013 C 0.161 0.83421 0.17851 0.0
C1014 C 0.13988 0.80051 0.1671 0.0
C1015 C 0.1178 0.7716 0.18443 0.0
C1016 C 0.11517 0.77721 0.21309 0.0
H1017 H 0.31318 0.05887 0.76572 0.0
H1018 H 0.33094 0.11387 0.68679 0.0
H1019 H 0.30623 0.14823 0.70591 0.0
H1020 H 0.23516 0.07538 0.79161 0.0
H1021 H 0.25293 0.08181 0.82646 0.0
H1022 H 0.25391 0.0493 0.80383 0.0
H1023 H 0.32142 0.07863 0.81147 0.0
H1024 H 0.32071 0.11103 0.83366 0.0
H1025 H 0.3493 0.12491 0.8035 0.0
H1026 H 0.3074 0.19273 0.73608 0.0
H1027 H 0.32859 0.23759 0.7734 0.0
H1028 H 0.30917 0.1575 0.83462 0.0
C1029 C 0.31042 0.07711 0.75216 0.0
C1030 C 0.32548 0.08438 0.72516 0.0
C1031 C 0.32043 0.10775 0.70774 0.0
C1032 C 0.30608 0.12759 0.71848 0.0
C1033 C 0.29626 0.1235 0.74651 0.0
C1034 C 0.29703 0.09784 0.76299 0.0
C1035 C 0.2931 0.10393 0.79365 0.0
C1036 C 0.25659 0.07595 0.80452 0.0
C1037 C 0.32293 0.10474 0.81155 0.0
C1038 C 0.29578 0.13981 0.79207 0.0
C1039 C 0.29574 0.14983 0.76461 0.0
C1040 C 0.30572 0.18464 0.75764 0.0
C1041 C 0.31786 0.21006 0.77887 0.0
C1042 C 0.31962 0.20051 0.80669 0.0
C1043 C 0.30648 0.16477 0.81354 0.0
H1044 H 0.4945 0.67063 0.29073 0.0
H1045 H 0.59002 0.67727 0.25711 0.0
H1046 H 0.55411 0.62971 0.22385 0.0
H1047 H 0.44382 0.58036 0.2903 0.0
H1048 H 0.40277 0.57753 0.28 0.0
H1049 H 0.43569 0.61605 0.29805 0.0
H1050 H 0.43575 0.65569 0.25898 0.0
H1051 H 0.40323 0.61795 0.23969 0.0
H1052 H 0.44472 0.64871 0.2236 0.0
H1053 H 0.50881 0.57544 0.20087 0.0
H1054 H 0.45603 0.52078 0.18523 0.0
H1055 H 0.38879 0.55012 0.23077 0.0
C1056 C 0.50796 0.66276 0.27587 0.0
C1057 C 0.54514 0.67762 0.27663 0.0
C1058 C 0.56164 0.6663 0.257 0.0
C1059 C 0.54146 0.63932 0.23796 0.0
C1060 C 0.50484 0.62427 0.23852 0.0
C1061 C 0.48817 0.63591 0.25659 0.0
C1062 C 0.44824 0.61333 0.25423 0.0
C1063 C 0.43167 0.59573 0.28231 0.0
C1064 C 0.43202 0.6352 0.24345 0.0
C1065 C 0.44518 0.58636 0.23282 0.0
C1066 C 0.47826 0.59332 0.22409 0.0
C1067 C 0.48275 0.57019 0.2069 0.0
C1068 C 0.4527 0.53911 0.19834 0.0
C1069 C 0.4186 0.53166 0.20664 0.0
C1070 C 0.41467 0.55576 0.22377 0.0
H1071 H 0.92585 0.46926 0.78547 0.0
H1072 H 0.8194 0.45256 0.77857 0.0
H1073 H 0.79995 0.39521 0.75607 0.0
H1074 H 0.9268 0.43625 0.71903 0.0
H1075 H 0.95256 0.41627 0.72916 0.0
H1076 H 0.957 0.4538 0.74807 0.0
H1077 H 0.94203 0.41784 0.79413 0.0
H1078 H 0.93695 0.37993 0.77517 0.0
H1079 H 0.90139 0.37619 0.79672 0.0
H1080 H 0.79229 0.34158 0.73232 0.0
H1081 H 0.79914 0.29985 0.70202 0.0
H1082 H 0.91087 0.35203 0.72215 0.0
C1083 C 0.89834 0.45332 0.77961 0.0
C1084 C 0.87406 0.46518 0.78433 0.0
C1085 C 0.83844 0.44386 0.7757 0.0
C1086 C 0.82703 0.41108 0.76301 0.0
C1087 C 0.85147 0.39993 0.75908 0.0
C1088 C 0.8865 0.42058 0.7667 0.0
C1089 C 0.90818 0.40422 0.75717 0.0
C1090 C 0.93787 0.42911 0.73717 0.0
C1091 C 0.92301 0.39394 0.7823 0.0
C1092 C 0.88007 0.37178 0.74219 0.0
C1093 C 0.84737 0.36936 0.74424 0.0
C1094 C 0.81768 0.34302 0.73069 0.0
C1095 C 0.82187 0.31951 0.71349 0.0
C1096 C 0.85558 0.32292 0.70963 0.0
C1097 C 0.8847 0.34846 0.72506 0.0
H1098 H 0.54266 0.93793 0.2008 0.0
H1099 H 0.48704 0.82367 0.19375 0.0
H1100 H 0.44361 0.81957 0.22879 0.0
H1101 H 0.52514 0.94239 0.27664 0.0
H1102 H 0.51949 0.98009 0.27134 0.0
H1103 H 0.54918 0.97359 0.24924 0.0
H1104 H 0.51555 0.97639 0.20563 0.0
H1105 H 0.48542 0.98228 0.22751 0.0
H1106 H 0.46865 0.94635 0.20284 0.0
H1107 H 0.40264 0.8282 0.25996 0.0
H1108 H 0.36793 0.84862 0.2865 0.0
H1109 H 0.4498 0.95753 0.27271 0.0
C1110 C 0.52204 0.91199 0.20729 0.0
C1111 C 0.51834 0.88109 0.19474 0.0
C1112 C 0.4904 0.84767 0.20321 0.0
C1113 C 0.46565 0.84508 0.22311 0.0
C1114 C 0.46929 0.87616 0.2343 0.0
C1115 C 0.49695 0.90897 0.2269 0.0
C1116 C 0.4931 0.93837 0.24008 0.0
C1117 C 0.52354 0.95988 0.26055 0.0
C1118 C 0.49052 0.96224 0.21767 0.0
C1119 C 0.4584 0.917 0.25536 0.0
C1120 C 0.44535 0.88117 0.25204 0.0
C1121 C 0.41288 0.85617 0.2631 0.0
C1122 C 0.39334 0.86809 0.27812 0.0
C1123 C 0.40626 0.90473 0.2819 0.0
C1124 C 0.43925 0.92939 0.27031 0.0
H1125 H 0.47886 0.34063 0.77489 0.0
H1126 H 0.41505 0.3873 0.79763 0.0
H1127 H 0.44934 0.43647 0.76454 0.0
H1128 H 0.55896 0.41849 0.77383 0.0
H1129 H 0.57719 0.40665 0.74475 0.0
H1130 H 0.54438 0.37274 0.7667 0.0
H1131 H 0.50459 0.34215 0.72397 0.0
H1132 H 0.53761 0.37563 0.70175 0.0
H1133 H 0.49283 0.36727 0.70095 0.0
H1134 H 0.49498 0.48341 0.73201 0.0
H1135 H 0.54576 0.52222 0.70174 0.0
H1136 H 0.57991 0.44453 0.70321 0.0
C1137 C 0.4718 0.36098 0.77273 0.0
C1138 C 0.44456 0.36042 0.78891 0.0
C1139 C 0.43575 0.38721 0.78524 0.0
C1140 C 0.45515 0.41525 0.76661 0.0
C1141 C 0.48292 0.41572 0.75181 0.0
C1142 C 0.49089 0.38899 0.7545 0.0
C1143 C 0.52325 0.39645 0.73784 0.0
C1144 C 0.55269 0.39877 0.75693 0.0
C1145 C 0.51396 0.36871 0.71476 0.0
C1146 C 0.5328 0.43198 0.72574 0.0
C1147 C 0.50918 0.44264 0.73371 0.0
C1148 C 0.51342 0.47513 0.72544 0.0
C1149 C 0.5424 0.49704 0.70835 0.0
C1150 C 0.56676 0.48637 0.69996 0.0
C1151 C 0.56172 0.45344 0.70895 0.0
H1152 H 0.14694 0.63587 0.23949 0.0
H1153 H 0.05617 0.56616 0.18877 0.0
H1154 H 0.04368 0.5164 0.22032 0.0
H1155 H 0.17502 0.5745 0.24971 0.0
H1156 H 0.19056 0.58757 0.28491 0.0
H1157 H 0.1907 0.61931 0.26092 0.0
H1158 H 0.15272 0.63285 0.2944 0.0
H1159 H 0.15342 0.60237 0.31931 0.0
H1160 H 0.11178 0.59713 0.30775 0.0
H1161 H 0.0431 0.47362 0.25637 0.0
H1162 H 0.05596 0.44127 0.29273 0.0
H1163 H 0.14741 0.53962 0.31862 0.0
C1164 C 0.12396 0.61034 0.23534 0.0
C1165 C 0.10222 0.6049 0.21193 0.0
C1166 C 0.07301 0.57087 0.20674 0.0
C1167 C 0.06568 0.54251 0.22456 0.0
C1168 C 0.08795 0.54868 0.2473 0.0
C1169 C 0.11656 0.58178 0.25266 0.0
C1170 C 0.1382 0.58097 0.27698 0.0
C1171 C 0.17583 0.5912 0.26755 0.0
C1172 C 0.13903 0.60472 0.30103 0.0
C1173 C 0.11708 0.54232 0.28467 0.0
C1174 C 0.08816 0.52405 0.26742 0.0
C1175 C 0.06556 0.48771 0.27011 0.0
C1176 C 0.07301 0.46958 0.29081 0.0
C1177 C 0.10291 0.48787 0.3083 0.0
C1178 C 0.12475 0.52473 0.30532 0.0
H1179 H 0.63992 0.15478 0.80252 0.0
H1180 H 0.65243 0.06611 0.7779 0.0
H1181 H 0.60397 0.04794 0.74392 0.0
H1182 H 0.54744 0.10901 0.80121 0.0
H1183 H 0.54413 0.14611 0.78859 0.0
H1184 H 0.58204 0.15336 0.80858 0.0
H1185 H 0.62213 0.19237 0.76845 0.0
H1186 H 0.58433 0.18379 0.7476 0.0
H1187 H 0.61693 0.17396 0.73395 0.0
H1188 H 0.54915 0.03457 0.71796 0.0
H1189 H 0.49525 0.03046 0.69761 0.0
H1190 H 0.51977 0.1292 0.73752 0.0
C1191 C 0.63328 0.13214 0.78957 0.0
C1192 C 0.65014 0.11195 0.79297 0.0
C1193 C 0.63999 0.08207 0.77571 0.0
C1194 C 0.61245 0.0715 0.75635 0.0
C1195 C 0.5955 0.09123 0.75439 0.0
C1196 C 0.60579 0.1212 0.77025 0.0
C1197 C 0.5818 0.13646 0.76543 0.0
C1198 C 0.56271 0.1362 0.79255 0.0
C1199 C 0.60252 0.17387 0.7531 0.0
C1200 C 0.55622 0.11021 0.74444 0.0
C1201 C 0.56443 0.08414 0.7386 0.0
C1202 C 0.54284 0.05518 0.72189 0.0
C1203 C 0.51218 0.0529 0.71065 0.0
C1204 C 0.50369 0.07963 0.71591 0.0
C1205 C 0.52612 0.10876 0.73283 0.0
loop_
_geom_bond_atom_site_label_1
_geom_bond_atom_site_label_2
_geom_bond_distance
_geom_bond_site_symmetry_2
_ccdc_geom_bond_type
C0 C1 1.351 . S
C0 N3 1.368 . S
C0 H5 0.931 . S
C1 C0 1.351 . S
C1 N2 1.373 . S
C1 H29 0.930 . S
N2 C1 1.373 . S
N2 C4 1.340 . S
N3 C0 1.368 . S
N3 C4 1.321 . S
N3 Co6 2.135 . S
C4 N2 1.340 . S
C4 N3 1.321 . S
C4 H28 0.930 . S
H5 C0 0.931 . S
Co6 N3 2.135 . S
Co6 N9 2.121 . S
Co6 O14 2.055 . S
Co6 O17 2.039 . S
Co6 N20 2.140 . S
C7 O8 1.227 . S
C7 O17 1.265 . S
O8 C7 1.227 . S
N9 Co6 2.121 . S
N9 C11 1.375 . S
N9 C12 1.313 . S
C10 C11 1.338 . S
C10 N13 1.377 . S
C10 H30 0.930 . S
C11 N9 1.375 . S
C11 C10 1.338 . S
C11 H15 0.931 . S
C12 N9 1.313 . S
C12 N13 1.344 . S
C12 H16 0.930 . S
N13 C10 1.377 . S
N13 C12 1.344 . S
O14 Co6 2.055 . S
O14 C18 1.253 . S
H15 C11 0.931 . S
H16 C12 0.930 . S
O17 Co6 2.039 . S
O17 C7 1.265 . S
C18 O14 1.253 . S
C18 O19 1.227 . S
O19 C18 1.227 . S
N20 Co6 2.140 . S
N20 C23 1.346 . S
N20 C24 1.345 . S
C21 C22 1.387 . S
C21 C25 1.391 . S
C22 C21 1.387 . S
C22 C23 1.369 . S
C22 H31 0.929 . S
C23 N20 1.346 . S
C23 C22 1.369 . S
C23 H26 0.928 . S
C24 N20 1.345 . S
C24 C25 1.371 . S
C24 H27 0.931 . S
C25 C21 1.391 . S
C25 C24 1.371 . S
C25 H32 0.930 . S
H26 C23 0.928 . S
H27 C24 0.931 . S
H28 C4 0.930 . S
H29 C1 0.930 . S
H30 C10 0.930 . S
H31 C22 0.929 . S
H32 C25 0.930 . S
C33 C34 1.351 . S
C33 N36 1.368 . S
C33 H38 0.931 . S
C34 C33 1.351 . S
C34 N35 1.373 . S
C34 H62 0.930 . S
N35 C34 1.373 . S
N35 C37 1.340 . S
N36 C33 1.368 . S
N36 C37 1.321 . S
N36 Co39 2.135 . S
C37 N35 1.340 . S
C37 N36 1.321 . S
C37 H61 0.930 . S
H38 C33 0.931 . S
Co39 N36 2.135 . S
Co39 N42 2.121 . S
Co39 O47 2.055 . S
Co39 O50 2.039 . S
Co39 N53 2.140 . S
C40 O41 1.227 . S
C40 O50 1.265 . S
O41 C40 1.227 . S
N42 Co39 2.121 . S
N42 C44 1.375 . S
N42 C45 1.313 . S
C43 C44 1.338 . S
C43 N46 1.377 . S
C43 H63 0.930 . S
C44 N42 1.375 . S
C44 C43 1.338 . S
C44 H48 0.931 . S
C45 N42 1.313 . S
C45 N46 1.344 . S
C45 H49 0.930 . S
N46 C43 1.377 . S
N46 C45 1.344 . S
O47 Co39 2.055 . S
O47 C51 1.253 . S
H48 C44 0.931 . S
H49 C45 0.930 . S
O50 Co39 2.039 . S
O50 C40 1.265 . S
C51 O47 1.253 . S
C51 O52 1.227 . S
O52 C51 1.227 . S
N53 Co39 2.140 . S
N53 C56 1.346 . S
N53 C57 1.345 . S
C54 C55 1.387 . S
C54 C58 1.391 . S
C55 C54 1.387 . S
C55 C56 1.369 . S
C55 H64 0.929 . S
C56 N53 1.346 . S
C56 C55 1.369 . S
C56 H59 0.928 . S
C57 N53 1.345 . S
C57 C58 1.371 . S
C57 H60 0.931 . S
C58 C54 1.391 . S
C58 C57 1.371 . S
C58 H65 0.930 . S
H59 C56 0.928 . S
H60 C57 0.931 . S
H61 C37 0.930 . S
H62 C34 0.930 . S
H63 C43 0.930 . S
H64 C55 0.929 . S
H65 C58 0.930 . S
C66 C67 1.351 . S
C66 N69 1.368 . S
C66 H71 0.931 . S
C67 C66 1.351 . S
C67 N68 1.373 . S
C67 H95 0.930 . S
N68 C67 1.373 . S
N68 C70 1.340 . S
N69 C66 1.368 . S
N69 C70 1.321 . S
N69 Co72 2.135 . S
C70 N68 1.340 . S
C70 N69 1.321 . S
C70 H94 0.930 . S
H71 C66 0.931 . S
Co72 N69 2.135 . S
Co72 N75 2.121 . S
Co72 O80 2.055 . S
Co72 O83 2.039 . S
Co72 N86 2.140 . S
C73 O74 1.227 . S
C73 O83 1.265 . S
O74 C73 1.227 . S
N75 Co72 2.121 . S
N75 C77 1.375 . S
N75 C78 1.313 . S
C76 C77 1.338 . S
C76 N79 1.377 . S
C76 H96 0.930 . S
C77 N75 1.375 . S
C77 C76 1.338 . S
C77 H81 0.931 . S
C78 N75 1.313 . S
C78 N79 1.344 . S
C78 H82 0.930 . S
N79 C76 1.377 . S
N79 C78 1.344 . S
O80 Co72 2.055 . S
O80 C84 1.253 . S
H81 C77 0.931 . S
H82 C78 0.930 . S
O83 Co72 2.039 . S
O83 C73 1.265 . S
C84 O80 1.253 . S
C84 O85 1.227 . S
O85 C84 1.227 . S
N86 Co72 2.140 . S
N86 C89 1.346 . S
N86 C90 1.345 . S
C87 C88 1.387 . S
C87 C91 1.391 . S
C88 C87 1.387 . S
C88 C89 1.369 . S
C88 H97 0.929 . S
C89 N86 1.346 . S
C89 C88 1.369 . S
C89 H92 0.928 . S
C90 N86 1.345 . S
C90 C91 1.371 . S
C90 H93 0.931 . S
C91 C87 1.391 . S
C91 C90 1.371 . S
C91 H98 0.930 . S
H92 C89 0.928 . S
H93 C90 0.931 . S
H94 C70 0.930 . S
H95 C67 0.930 . S
H96 C76 0.930 . S
H97 C88 0.929 . S
H98 C91 0.930 . S
C99 C100 1.351 . S
C99 N102 1.368 . S
C99 H104 0.931 . S
C100 C99 1.351 . S
C100 N101 1.373 . S
C100 H128 0.930 . S
N101 C100 1.373 . S
N101 C103 1.340 . S
N102 C99 1.368 . S
N102 C103 1.321 . S
N102 Co105 2.135 . S
C103 N101 1.340 . S
C103 N102 1.321 . S
C103 H127 0.930 . S
H104 C99 0.931 . S
Co105 N102 2.135 . S
Co105 N108 2.121 . S
Co105 O113 2.055 . S
Co105 O116 2.039 . S
Co105 N119 2.140 . S
C106 O107 1.227 . S
C106 O116 1.265 . S
O107 C106 1.227 . S
N108 Co105 2.121 . S
N108 C110 1.375 . S
N108 C111 1.313 . S
C109 C110 1.338 . S
C109 N112 1.377 . S
C109 H129 0.930 . S
C110 N108 1.375 . S
C110 C109 1.338 . S
C110 H114 0.931 . S
C111 N108 1.313 . S
C111 N112 1.344 . S
C111 H115 0.930 . S
N112 C109 1.377 . S
N112 C111 1.344 . S
O113 Co105 2.055 . S
O113 C117 1.253 . S
H114 C110 0.931 . S
H115 C111 0.930 . S
O116 Co105 2.039 . S
O116 C106 1.265 . S
C117 O113 1.253 . S
C117 O118 1.227 . S
O118 C117 1.227 . S
N119 Co105 2.140 . S
N119 C122 1.346 . S
N119 C123 1.345 . S
C120 C121 1.387 . S
C120 C124 1.391 . S
C121 C120 1.387 . S
C121 C122 1.369 . S
C121 H130 0.929 . S
C122 N119 1.346 . S
C122 C121 1.369 . S
C122 H125 0.928 . S
C123 N119 1.345 . S
C123 C124 1.371 . S
C123 H126 0.931 . S
C124 C120 1.391 . S
C124 C123 1.371 . S
C124 H131 0.930 . S
H125 C122 0.928 . S
H126 C123 0.931 . S
H127 C103 0.930 . S
H128 C100 0.930 . S
H129 C109 0.930 . S
H130 C121 0.929 . S
H131 C124 0.930 . S
C132 C133 1.351 . S
C132 N135 1.368 . S
C132 H137 0.931 . S
C133 C132 1.351 . S
C133 N134 1.373 . S
C133 H161 0.930 . S
N134 C133 1.373 . S
N134 C136 1.340 . S
N135 C132 1.368 . S
N135 C136 1.321 . S
N135 Co138 2.135 . S
C136 N134 1.340 . S
C136 N135 1.321 . S
C136 H160 0.930 . S
H137 C132 0.931 . S
Co138 N135 2.135 . S
Co138 N141 2.121 . S
Co138 O146 2.055 . S
Co138 O149 2.039 . S
Co138 N152 2.140 . S
C139 O140 1.227 . S
C139 O149 1.265 . S
O140 C139 1.227 . S
N141 Co138 2.121 . S
N141 C143 1.375 . S
N141 C144 1.313 . S
C142 C143 1.338 . S
C142 N145 1.377 . S
C142 H162 0.930 . S
C143 N141 1.375 . S
C143 C142 1.338 . S
C143 H147 0.931 . S
C144 N141 1.313 . S
C144 N145 1.344 . S
C144 H148 0.930 . S
N145 C142 1.377 . S
N145 C144 1.344 . S
O146 Co138 2.055 . S
O146 C150 1.253 . S
H147 C143 0.931 . S
H148 C144 0.930 . S
O149 Co138 2.039 . S
O149 C139 1.265 . S
C150 O146 1.253 . S
C150 O151 1.227 . S
O151 C150 1.227 . S
N152 Co138 2.140 . S
N152 C155 1.346 . S
N152 C156 1.345 . S
C153 C154 1.387 . S
C153 C157 1.391 . S
C154 C153 1.387 . S
C154 C155 1.369 . S
C154 H163 0.929 . S
C155 N152 1.346 . S
C155 C154 1.369 . S
C155 H158 0.928 . S
C156 N152 1.345 . S
C156 C157 1.371 . S
C156 H159 0.931 . S
C157 C153 1.391 . S
C157 C156 1.371 . S
C157 H164 0.930 . S
H158 C155 0.928 . S
H159 C156 0.931 . S
H160 C136 0.930 . S
H161 C133 0.930 . S
H162 C142 0.930 . S
H163 C154 0.929 . S
H164 C157 0.930 . S
C165 C166 1.351 . S
C165 N168 1.368 . S
C165 H170 0.931 . S
C166 C165 1.351 . S
C166 N167 1.373 . S
C166 H194 0.930 . S
N167 C166 1.373 . S
N167 C169 1.340 . S
N168 C165 1.368 . S
N168 C169 1.321 . S
N168 Co171 2.135 . S
C169 N167 1.340 . S
C169 N168 1.321 . S
C169 H193 0.930 . S
H170 C165 0.931 . S
Co171 N168 2.135 . S
Co171 N174 2.121 . S
Co171 O179 2.055 . S
Co171 O182 2.039 . S
Co171 N185 2.140 . S
C172 O173 1.227 . S
C172 O182 1.265 . S
O173 C172 1.227 . S
N174 Co171 2.121 . S
N174 C176 1.375 . S
N174 C177 1.313 . S
C175 C176 1.338 . S
C175 N178 1.377 . S
C175 H195 0.930 . S
C176 N174 1.375 . S
C176 C175 1.338 . S
C176 H180 0.931 . S
C177 N174 1.313 . S
C177 N178 1.344 . S
C177 H181 0.930 . S
N178 C175 1.377 . S
N178 C177 1.344 . S
O179 Co171 2.055 . S
O179 C183 1.253 . S
H180 C176 0.931 . S
H181 C177 0.930 . S
O182 Co171 2.039 . S
O182 C172 1.265 . S
C183 O179 1.253 . S
C183 O184 1.227 . S
O184 C183 1.227 . S
N185 Co171 2.140 . S
N185 C188 1.346 . S
N185 C189 1.345 . S
C186 C187 1.387 . S
C186 C190 1.391 . S
C187 C186 1.387 . S
C187 C188 1.369 . S
C187 H196 0.929 . S
C188 N185 1.346 . S
C188 C187 1.369 . S
C188 H191 0.928 . S
C189 N185 1.345 . S
C189 C190 1.371 . S
C189 H192 0.931 . S
C190 C186 1.391 . S
C190 C189 1.371 . S
C190 H197 0.930 . S
H191 C188 0.928 . S
H192 C189 0.931 . S
H193 C169 0.930 . S
H194 C166 0.930 . S
H195 C175 0.930 . S
H196 C187 0.929 . S
H197 C190 0.930 . S
C198 C199 1.351 . S
C198 N201 1.368 . S
C198 H203 0.931 . S
C199 C198 1.351 . S
C199 N200 1.373 . S
C199 H227 0.930 . S
N200 C199 1.373 . S
N200 C202 1.340 . S
N201 C198 1.368 . S
N201 C202 1.321 . S
N201 Co204 2.135 . S
C202 N200 1.340 . S
C202 N201 1.321 . S
C202 H226 0.930 . S
H203 C198 0.931 . S
Co204 N201 2.135 . S
Co204 N207 2.121 . S
Co204 O212 2.055 . S
Co204 O215 2.039 . S
Co204 N218 2.140 . S
C205 O206 1.227 . S
C205 O215 1.265 . S
O206 C205 1.227 . S
N207 Co204 2.121 . S
N207 C209 1.375 . S
N207 C210 1.313 . S
C208 C209 1.338 . S
C208 N211 1.377 . S
C208 H228 0.930 . S
C209 N207 1.375 . S
C209 C208 1.338 . S
C209 H213 0.931 . S
C210 N207 1.313 . S
C210 N211 1.344 . S
C210 H214 0.930 . S
N211 C208 1.377 . S
N211 C210 1.344 . S
O212 Co204 2.055 . S
O212 C216 1.253 . S
H213 C209 0.931 . S
H214 C210 0.930 . S
O215 Co204 2.039 . S
O215 C205 1.265 . S
C216 O212 1.253 . S
C216 O217 1.227 . S
O217 C216 1.227 . S
N218 Co204 2.140 . S
N218 C221 1.346 . S
N218 C222 1.345 . S
C219 C220 1.387 . S
C219 C223 1.391 . S
C220 C219 1.387 . S
C220 C221 1.369 . S
C220 H229 0.929 . S
C221 N218 1.346 . S
C221 C220 1.369 . S
C221 H224 0.928 . S
C222 N218 1.345 . S
C222 C223 1.371 . S
C222 H225 0.931 . S
C223 C219 1.391 . S
C223 C222 1.371 . S
C223 H230 0.930 . S
H224 C221 0.928 . S
H225 C222 0.931 . S
H226 C202 0.930 . S
H227 C199 0.930 . S
H228 C208 0.930 . S
H229 C220 0.929 . S
H230 C223 0.930 . S
C231 C232 1.351 . S
C231 N234 1.368 . S
C231 H236 0.931 . S
C232 C231 1.351 . S
C232 N233 1.373 . S
C232 H260 0.930 . S
N233 C232 1.373 . S
N233 C235 1.340 . S
N234 C231 1.368 . S
N234 C235 1.321 . S
N234 Co237 2.135 . S
C235 N233 1.340 . S
C235 N234 1.321 . S
C235 H259 0.930 . S
H236 C231 0.931 . S
Co237 N234 2.135 . S
Co237 N240 2.121 . S
Co237 O245 2.055 . S
Co237 O248 2.039 . S
Co237 N251 2.140 . S
C238 O239 1.227 . S
C238 O248 1.265 . S
O239 C238 1.227 . S
N240 Co237 2.121 . S
N240 C242 1.375 . S
N240 C243 1.313 . S
C241 C242 1.338 . S
C241 N244 1.377 . S
C241 H261 0.930 . S
C242 N240 1.375 . S
C242 C241 1.338 . S
C242 H246 0.931 . S
C243 N240 1.313 . S
C243 N244 1.344 . S
C243 H247 0.930 . S
N244 C241 1.377 . S
N244 C243 1.344 . S
O245 Co237 2.055 . S
O245 C249 1.253 . S
H246 C242 0.931 . S
H247 C243 0.930 . S
O248 Co237 2.039 . S
O248 C238 1.265 . S
C249 O245 1.253 . S
C249 O250 1.227 . S
O250 C249 1.227 . S
N251 Co237 2.140 . S
N251 C254 1.346 . S
N251 C255 1.345 . S
C252 C253 1.387 . S
C252 C256 1.391 . S
C253 C252 1.387 . S
C253 C254 1.369 . S
C253 H262 0.929 . S
C254 N251 1.346 . S
C254 C253 1.369 . S
C254 H257 0.928 . S
C255 N251 1.345 . S
C255 C256 1.371 . S
C255 H258 0.931 . S
C256 C252 1.391 . S
C256 C255 1.371 . S
C256 H263 0.930 . S
H257 C254 0.928 . S
H258 C255 0.931 . S
H259 C235 0.930 . S
H260 C232 0.930 . S
H261 C241 0.930 . S
H262 C253 0.929 . S
H263 C256 0.930 . S
C264 C265 1.351 . S
C264 N267 1.368 . S
C264 H269 0.931 . S
C265 C264 1.351 . S
C265 N266 1.373 . S
C265 H293 0.930 . S
N266 C265 1.373 . S
N266 C268 1.340 . S
N267 C264 1.368 . S
N267 C268 1.321 . S
N267 Co270 2.135 . S
C268 N266 1.340 . S
C268 N267 1.321 . S
C268 H292 0.930 . S
H269 C264 0.931 . S
Co270 N267 2.135 . S
Co270 N273 2.121 . S
Co270 O278 2.055 . S
Co270 O281 2.039 . S
Co270 N284 2.140 . S
C271 O272 1.227 . S
C271 O281 1.265 . S
O272 C271 1.227 . S
N273 Co270 2.121 . S
N273 C275 1.375 . S
N273 C276 1.313 . S
C274 C275 1.338 . S
C274 N277 1.377 . S
C274 H294 0.930 . S
C275 N273 1.375 . S
C275 C274 1.338 . S
C275 H279 0.931 . S
C276 N273 1.313 . S
C276 N277 1.344 . S
C276 H280 0.930 . S
N277 C274 1.377 . S
N277 C276 1.344 . S
O278 Co270 2.055 . S
O278 C282 1.253 . S
H279 C275 0.931 . S
H280 C276 0.930 . S
O281 Co270 2.039 . S
O281 C271 1.265 . S
C282 O278 1.253 . S
C282 O283 1.227 . S
O283 C282 1.227 . S
N284 Co270 2.140 . S
N284 C287 1.346 . S
N284 C288 1.345 . S
C285 C286 1.387 . S
C285 C289 1.391 . S
C286 C285 1.387 . S
C286 C287 1.369 . S
C286 H295 0.929 . S
C287 N284 1.346 . S
C287 C286 1.369 . S
C287 H290 0.928 . S
C288 N284 1.345 . S
C288 C289 1.371 . S
C288 H291 0.931 . S
C289 C285 1.391 . S
C289 C288 1.371 . S
C289 H296 0.930 . S
H290 C287 0.928 . S
H291 C288 0.931 . S
H292 C268 0.930 . S
H293 C265 0.930 . S
H294 C274 0.930 . S
H295 C286 0.929 . S
H296 C289 0.930 . S
C297 C298 1.351 . S
C297 N300 1.368 . S
C297 H302 0.931 . S
C298 C297 1.351 . S
C298 N299 1.373 . S
C298 H326 0.930 . S
N299 C298 1.373 . S
N299 C301 1.340 . S
N300 C297 1.368 . S
N300 C301 1.321 . S
N300 Co303 2.135 . S
C301 N299 1.340 . S
C301 N300 1.321 . S
C301 H325 0.930 . S
H302 C297 0.931 . S
Co303 N300 2.135 . S
Co303 N306 2.121 . S
Co303 O311 2.055 . S
Co303 O314 2.039 . S
Co303 N317 2.140 . S
C304 O305 1.227 . S
C304 O314 1.265 . S
O305 C304 1.227 . S
N306 Co303 2.121 . S
N306 C308 1.375 . S
N306 C309 1.313 . S
C307 C308 1.338 . S
C307 N310 1.377 . S
C307 H327 0.930 . S
C308 N306 1.375 . S
C308 C307 1.338 . S
C308 H312 0.931 . S
C309 N306 1.313 . S
C309 N310 1.344 . S
C309 H313 0.930 . S
N310 C307 1.377 . S
N310 C309 1.344 . S
O311 Co303 2.055 . S
O311 C315 1.253 . S
H312 C308 0.931 . S
H313 C309 0.930 . S
O314 Co303 2.039 . S
O314 C304 1.265 . S
C315 O311 1.253 . S
C315 O316 1.227 . S
O316 C315 1.227 . S
N317 Co303 2.140 . S
N317 C320 1.346 . S
N317 C321 1.345 . S
C318 C319 1.387 . S
C318 C322 1.391 . S
C319 C318 1.387 . S
C319 C320 1.369 . S
C319 H328 0.929 . S
C320 N317 1.346 . S
C320 C319 1.369 . S
C320 H323 0.928 . S
C321 N317 1.345 . S
C321 C322 1.371 . S
C321 H324 0.931 . S
C322 C318 1.391 . S
C322 C321 1.371 . S
C322 H329 0.930 . S
H323 C320 0.928 . S
H324 C321 0.931 . S
H325 C301 0.930 . S
H326 C298 0.930 . S
H327 C307 0.930 . S
H328 C319 0.929 . S
H329 C322 0.930 . S
C330 C331 1.351 . S
C330 N333 1.368 . S
C330 H335 0.931 . S
C331 C330 1.351 . S
C331 N332 1.373 . S
C331 H359 0.930 . S
N332 C331 1.373 . S
N332 C334 1.340 . S
N333 C330 1.368 . S
N333 C334 1.321 . S
N333 Co336 2.135 . S
C334 N332 1.340 . S
C334 N333 1.321 . S
C334 H358 0.930 . S
H335 C330 0.931 . S
Co336 N333 2.135 . S
Co336 N339 2.121 . S
Co336 O344 2.055 . S
Co336 O347 2.039 . S
Co336 N350 2.140 . S
C337 O338 1.227 . S
C337 O347 1.265 . S
O338 C337 1.227 . S
N339 Co336 2.121 . S
N339 C341 1.375 . S
N339 C342 1.313 . S
C340 C341 1.338 . S
C340 N343 1.377 . S
C340 H360 0.930 . S
C341 N339 1.375 . S
C341 C340 1.338 . S
C341 H345 0.931 . S
C342 N339 1.313 . S
C342 N343 1.344 . S
C342 H346 0.930 . S
N343 C340 1.377 . S
N343 C342 1.344 . S
O344 Co336 2.055 . S
O344 C348 1.253 . S
H345 C341 0.931 . S
H346 C342 0.930 . S
O347 Co336 2.039 . S
O347 C337 1.265 . S
C348 O344 1.253 . S
C348 O349 1.227 . S
O349 C348 1.227 . S
N350 Co336 2.140 . S
N350 C353 1.346 . S
N350 C354 1.345 . S
C351 C352 1.387 . S
C351 C355 1.391 . S
C352 C351 1.387 . S
C352 C353 1.369 . S
C352 H361 0.929 . S
C353 N350 1.346 . S
C353 C352 1.369 . S
C353 H356 0.928 . S
C354 N350 1.345 . S
C354 C355 1.371 . S
C354 H357 0.931 . S
C355 C351 1.391 . S
C355 C354 1.371 . S
C355 H362 0.930 . S
H356 C353 0.928 . S
H357 C354 0.931 . S
H358 C334 0.930 . S
H359 C331 0.930 . S
H360 C340 0.930 . S
H361 C352 0.929 . S
H362 C355 0.930 . S
C363 C364 1.351 . S
C363 N366 1.368 . S
C363 H368 0.931 . S
C364 C363 1.351 . S
C364 N365 1.373 . S
C364 H392 0.930 . S
N365 C364 1.373 . S
N365 C367 1.340 . S
N366 C363 1.368 . S
N366 C367 1.321 . S
N366 Co369 2.135 . S
C367 N365 1.340 . S
C367 N366 1.321 . S
C367 H391 0.930 . S
H368 C363 0.931 . S
Co369 N366 2.135 . S
Co369 N372 2.121 . S
Co369 O377 2.055 . S
Co369 O380 2.039 . S
Co369 N383 2.140 . S
C370 O371 1.227 . S
C370 O380 1.265 . S
O371 C370 1.227 . S
N372 Co369 2.121 . S
N372 C374 1.375 . S
N372 C375 1.313 . S
C373 C374 1.338 . S
C373 N376 1.377 . S
C373 H393 0.930 . S
C374 N372 1.375 . S
C374 C373 1.338 . S
C374 H378 0.931 . S
C375 N372 1.313 . S
C375 N376 1.344 . S
C375 H379 0.930 . S
N376 C373 1.377 . S
N376 C375 1.344 . S
O377 Co369 2.055 . S
O377 C381 1.253 . S
H378 C374 0.931 . S
H379 C375 0.930 . S
O380 Co369 2.039 . S
O380 C370 1.265 . S
C381 O377 1.253 . S
C381 O382 1.227 . S
O382 C381 1.227 . S
N383 Co369 2.140 . S
N383 C386 1.346 . S
N383 C387 1.345 . S
C384 C385 1.387 . S
C384 C388 1.391 . S
C385 C384 1.387 . S
C385 C386 1.369 . S
C385 H394 0.929 . S
C386 N383 1.346 . S
C386 C385 1.369 . S
C386 H389 0.928 . S
C387 N383 1.345 . S
C387 C388 1.371 . S
C387 H390 0.931 . S
C388 C384 1.391 . S
C388 C387 1.371 . S
C388 H395 0.930 . S
H389 C386 0.928 . S
H390 C387 0.931 . S
H391 C367 0.930 . S
H392 C364 0.930 . S
H393 C373 0.930 . S
H394 C385 0.929 . S
H395 C388 0.930 . S
H396 C408 0.930 . S
H397 C410 0.930 . S
H398 C411 0.930 . S
H399 C415 0.959 . S
H400 C415 0.959 1_554 S
H401 C415 0.961 . S
H402 C416 0.960 . S
H403 C416 0.961 . S
H404 C416 0.959 . S
H405 C419 0.929 . S
H406 C420 0.931 . S
H407 C422 0.930 . S
C408 H396 0.930 . S
C408 C409 1.399 . S
C408 C413 1.399 . S
C409 C408 1.399 . S
C409 C410 1.376 . S
C410 H397 0.930 . S
C410 C409 1.376 . S
C410 C411 1.388 . S
C411 H398 0.930 . S
C411 C410 1.388 . S
C411 C412 1.390 . S
C412 C411 1.390 . S
C412 C413 1.394 . S
C412 C418 1.465 1_556 S
C413 C408 1.399 . S
C413 C412 1.394 . S
C413 C414 1.516 1_556 S
C414 C413 1.516 1_554 S
C414 C415 1.502 1_554 S
C414 C416 1.561 . S
C414 C417 1.526 . S
C415 H399 0.959 . S
C415 H400 0.959 1_556 S
C415 H401 0.961 . S
C415 C414 1.502 1_556 S
C416 H402 0.960 . S
C416 H403 0.961 . S
C416 H404 0.959 . S
C416 C414 1.561 . S
C417 C414 1.526 . S
C417 C418 1.396 . S
C417 C422 1.390 . S
C418 C412 1.465 1_554 S
C418 C417 1.396 . S
C418 C419 1.399 . S
C419 H405 0.929 . S
C419 C418 1.399 . S
C419 C420 1.385 . S
C420 H406 0.931 . S
C420 C419 1.385 . S
C420 C421 1.389 . S
C421 C420 1.389 . S
C421 C422 1.387 . S
C422 H407 0.930 . S
C422 C417 1.390 . S
C422 C421 1.387 . S
H423 C435 0.930 . S
H424 C437 0.930 . S
H425 C438 0.930 . S
H426 C442 0.959 . S
H427 C442 0.959 . S
H428 C442 0.961 1_655 S
H429 C443 0.960 . S
H430 C443 0.961 . S
H431 C443 0.959 . S
H432 C446 0.929 . S
H433 C447 0.931 . S
H434 C449 0.930 . S
C435 H423 0.930 . S
C435 C436 1.399 . S
C435 C440 1.399 . S
C436 C435 1.399 . S
C436 C437 1.376 . S
C437 H424 0.930 . S
C437 C436 1.376 . S
C437 C438 1.388 . S
C438 H425 0.930 . S
C438 C437 1.388 . S
C438 C439 1.390 . S
C439 C438 1.390 . S
C439 C440 1.394 . S
C439 C445 1.465 1_655 S
C440 C435 1.399 . S
C440 C439 1.394 . S
C440 C441 1.516 . S
C441 C440 1.516 . S
C441 C442 1.502 1_655 S
C441 C443 1.561 . S
C441 C444 1.526 1_655 S
C442 H426 0.959 . S
C442 H427 0.959 . S
C442 H428 0.961 1_455 S
C442 C441 1.502 1_455 S
C443 H429 0.960 . S
C443 H430 0.961 . S
C443 H431 0.959 . S
C443 C441 1.561 . S
C444 C441 1.526 1_455 S
C444 C445 1.396 . S
C444 C449 1.390 . S
C445 C439 1.465 1_455 S
C445 C444 1.396 . S
C445 C446 1.399 . S
C446 H432 0.929 . S
C446 C445 1.399 . S
C446 C447 1.385 . S
C447 H433 0.931 . S
C447 C446 1.385 . S
C447 C448 1.389 . S
C448 C447 1.389 . S
C448 C449 1.387 . S
C449 H434 0.930 . S
C449 C444 1.390 . S
C449 C448 1.387 . S
H450 C462 0.930 1_565 S
H451 C464 0.930 . S
H452 C465 0.930 . S
H453 C469 0.959 . S
H454 C469 0.959 . S
H455 C469 0.961 . S
H456 C470 0.960 . S
H457 C470 0.961 . S
H458 C470 0.959 . S
H459 C473 0.929 . S
H460 C474 0.931 . S
H461 C476 0.930 . S
C462 H450 0.930 1_545 S
C462 C463 1.399 . S
C462 C467 1.399 1_545 S
C463 C462 1.399 . S
C463 C464 1.376 . S
C464 H451 0.930 . S
C464 C463 1.376 . S
C464 C465 1.388 . S
C465 H452 0.930 . S
C465 C464 1.388 . S
C465 C466 1.390 . S
C466 C465 1.390 . S
C466 C467 1.394 1_545 S
C466 C472 1.465 1_556 S
C467 C462 1.399 1_565 S
C467 C466 1.394 1_565 S
C467 C468 1.516 . S
C468 C467 1.516 . S
C468 C469 1.502 . S
C468 C470 1.561 . S
C468 C471 1.526 1_556 S
C469 H453 0.959 . S
C469 H454 0.959 . S
C469 H455 0.961 . S
C469 C468 1.502 . S
C470 H456 0.960 . S
C470 H457 0.961 . S
C470 H458 0.959 . S
C470 C468 1.561 . S
C471 C468 1.526 1_554 S
C471 C472 1.396 1_565 S
C471 C476 1.390 . S
C472 C466 1.465 1_554 S
C472 C471 1.396 1_545 S
C472 C473 1.399 . S
C473 H459 0.929 . S
C473 C472 1.399 . S
C473 C474 1.385 . S
C474 H460 0.931 . S
C474 C473 1.385 . S
C474 C475 1.389 1_545 S
C475 C474 1.389 1_565 S
C475 C476 1.387 . S
C476 H461 0.930 . S
C476 C471 1.390 . S
C476 C475 1.387 . S
H477 C489 0.930 . S
H478 C491 0.930 . S
H479 C492 0.930 . S
H480 C496 0.959 . S
H481 C496 0.959 . S
H482 C496 0.961 . S
H483 C497 0.960 . S
H484 C497 0.961 . S
H485 C497 0.959 . S
H486 C500 0.929 . S
H487 C501 0.931 . S
H488 C503 0.930 . S
C489 H477 0.930 . S
C489 C490 1.399 . S
C489 C494 1.399 . S
C490 C489 1.399 . S
C490 C491 1.376 . S
C491 H478 0.930 . S
C491 C490 1.376 . S
C491 C492 1.388 . S
C492 H479 0.930 . S
C492 C491 1.388 . S
C492 C493 1.390 . S
C493 C492 1.390 . S
C493 C494 1.394 . S
C493 C499 1.465 . S
C494 C489 1.399 . S
C494 C493 1.394 . S
C494 C495 1.516 . S
C495 C494 1.516 . S
C495 C496 1.502 . S
C495 C497 1.561 . S
C495 C498 1.526 . S
C496 H480 0.959 . S
C496 H481 0.959 . S
C496 H482 0.961 . S
C496 C495 1.502 . S
C497 H483 0.960 . S
C497 H484 0.961 . S
C497 H485 0.959 . S
C497 C495 1.561 . S
C498 C495 1.526 . S
C498 C499 1.396 . S
C498 C503 1.390 . S
C499 C493 1.465 . S
C499 C498 1.396 . S
C499 C500 1.399 . S
C500 H486 0.929 . S
C500 C499 1.399 . S
C500 C501 1.385 . S
C501 H487 0.931 . S
C501 C500 1.385 . S
C501 C502 1.389 . S
C502 C501 1.389 . S
C502 C503 1.387 . S
C503 H488 0.930 . S
C503 C498 1.390 . S
C503 C502 1.387 . S
H504 C516 0.930 . S
H505 C518 0.930 . S
H506 C519 0.930 . S
H507 C523 0.950 1_455 S
H508 C523 0.978 . S
H509 C523 0.933 1_454 S
H510 C524 0.960 . S
H511 C524 0.961 . S
H512 C524 0.959 . S
H513 C527 0.929 1_455 S
H514 C528 0.931 . S
H515 C530 0.930 . S
C516 H504 0.930 . S
C516 C517 1.399 . S
C516 C521 1.399 . S
C517 C516 1.399 . S
C517 C518 1.376 . S
C518 H505 0.930 . S
C518 C517 1.376 . S
C518 C519 1.388 . S
C519 H506 0.930 . S
C519 C518 1.388 . S
C519 C520 1.390 . S
C520 C519 1.390 . S
C520 C521 1.394 . S
C520 C526 1.465 1_454 S
C521 C516 1.399 . S
C521 C520 1.394 . S
C521 C522 1.516 1_455 S
C522 C521 1.516 1_655 S
C522 C523 1.521 1_554 S
C522 C524 1.561 . S
C522 C525 1.526 1_554 S
C523 H507 0.950 1_655 S
C523 H508 0.978 . S
C523 H509 0.933 1_656 S
C523 C522 1.521 1_556 S
C524 H510 0.960 . S
C524 H511 0.961 . S
C524 H512 0.959 . S
C524 C522 1.561 . S
C525 C522 1.526 1_556 S
C525 C526 1.396 . S
C525 C530 1.390 . S
C526 C520 1.465 1_656 S
C526 C525 1.396 . S
C526 C527 1.399 . S
C527 H513 0.929 1_655 S
C527 C526 1.399 . S
C527 C528 1.385 . S
C528 H514 0.931 . S
C528 C527 1.385 . S
C528 C529 1.389 . S
C529 C528 1.389 . S
C529 C530 1.387 . S
C530 H515 0.930 . S
C530 C525 1.390 . S
C530 C529 1.387 . S
H531 C543 0.930 . S
H532 C545 0.930 1_545 S
H533 C546 0.930 . S
H534 C550 0.959 . S
H535 C550 0.959 . S
H536 C550 0.961 . S
H537 C551 0.960 . S
H538 C551 0.961 . S
H539 C551 0.959 . S
H540 C554 0.929 . S
H541 C555 0.931 . S
H542 C557 0.930 1_565 S
C543 H531 0.930 . S
C543 C544 1.399 . S
C543 C548 1.399 . S
C544 C543 1.399 . S
C544 C545 1.376 . S
C545 H532 0.930 1_565 S
C545 C544 1.376 . S
C545 C546 1.388 1_565 S
C546 H533 0.930 . S
C546 C545 1.388 1_545 S
C546 C547 1.390 . S
C547 C546 1.390 . S
C547 C548 1.394 1_545 S
C547 C553 1.465 . S
C548 C543 1.399 . S
C548 C547 1.394 1_565 S
C548 C549 1.516 . S
C549 C548 1.516 . S
C549 C550 1.502 . S
C549 C551 1.561 . S
C549 C552 1.526 . S
C550 H534 0.959 . S
C550 H535 0.959 . S
C550 H536 0.961 . S
C550 C549 1.502 . S
C551 H537 0.960 . S
C551 H538 0.961 . S
C551 H539 0.959 . S
C551 C549 1.561 . S
C552 C549 1.526 . S
C552 C553 1.396 1_565 S
C552 C557 1.390 1_565 S
C553 C547 1.465 . S
C553 C552 1.396 1_545 S
C553 C554 1.399 . S
C554 H540 0.929 . S
C554 C553 1.399 . S
C554 C555 1.385 . S
C555 H541 0.931 . S
C555 C554 1.385 . S
C555 C556 1.389 . S
C556 C555 1.389 . S
C556 C557 1.387 . S
C557 H542 0.930 1_545 S
C557 C552 1.390 1_545 S
C557 C556 1.387 . S
H558 C570 0.930 . S
H559 C572 0.930 . S
H560 C573 0.930 . S
H561 C577 0.959 . S
H562 C577 0.959 . S
H563 C577 0.961 . S
H564 C578 0.960 . S
H565 C578 0.961 . S
H566 C578 0.959 . S
H567 C581 0.929 . S
H568 C582 0.931 . S
H569 C584 0.930 . S
C570 H558 0.930 . S
C570 C571 1.399 . S
C570 C575 1.399 . S
C571 C570 1.399 . S
C571 C572 1.376 . S
C572 H559 0.930 . S
C572 C571 1.376 . S
C572 C573 1.388 . S
C573 H560 0.930 . S
C573 C572 1.388 . S
C573 C574 1.390 . S
C574 C573 1.390 . S
C574 C575 1.394 . S
C574 C580 1.465 . S
C575 C570 1.399 . S
C575 C574 1.394 . S
C575 C576 1.516 . S
C576 C575 1.516 . S
C576 C577 1.502 . S
C576 C578 1.561 . S
C576 C579 1.526 . S
C577 H561 0.959 . S
C577 H562 0.959 . S
C577 H563 0.961 . S
C577 C576 1.502 . S
C578 H564 0.960 . S
C578 H565 0.961 . S
C578 H566 0.959 . S
C578 C576 1.561 . S
C579 C576 1.526 . S
C579 C580 1.396 . S
C579 C584 1.390 . S
C580 C574 1.465 . S
C580 C579 1.396 . S
C580 C581 1.399 . S
C581 H567 0.929 . S
C581 C580 1.399 . S
C581 C582 1.385 . S
C582 H568 0.931 . S
C582 C581 1.385 . S
C582 C583 1.389 . S
C583 C582 1.389 . S
C583 C584 1.387 . S
C584 H569 0.930 . S
C584 C579 1.390 . S
C584 C583 1.387 . S
H585 C597 0.930 . S
H586 C599 0.930 . S
H587 C600 0.930 . S
H588 C604 0.959 . S
H589 C604 0.959 . S
H590 C604 0.961 . S
H591 C605 0.960 . S
H592 C605 0.961 . S
H593 C605 0.959 . S
H594 C608 0.929 . S
H595 C609 0.931 . S
H596 C611 0.930 . S
C597 H585 0.930 . S
C597 C598 1.399 . S
C597 C602 1.399 . S
C598 C597 1.399 . S
C598 C599 1.376 . S
C599 H586 0.930 . S
C599 C598 1.376 . S
C599 C600 1.388 . S
C600 H587 0.930 . S
C600 C599 1.388 . S
C600 C601 1.390 . S
C601 C600 1.390 . S
C601 C602 1.394 . S
C601 C607 1.465 . S
C602 C597 1.399 . S
C602 C601 1.394 . S
C602 C603 1.516 . S
C603 C602 1.516 . S
C603 C604 1.502 . S
C603 C605 1.561 . S
C603 C606 1.526 . S
C604 H588 0.959 . S
C604 H589 0.959 . S
C604 H590 0.961 . S
C604 C603 1.502 . S
C605 H591 0.960 . S
C605 H592 0.961 . S
C605 H593 0.959 . S
C605 C603 1.561 . S
C606 C603 1.526 . S
C606 C607 1.396 . S
C606 C611 1.390 . S
C607 C601 1.465 . S
C607 C606 1.396 . S
C607 C608 1.399 . S
C608 H594 0.929 . S
C608 C607 1.399 . S
C608 C609 1.385 . S
C609 H595 0.931 . S
C609 C608 1.385 . S
C609 C610 1.389 . S
C610 C609 1.389 . S
C610 C611 1.387 . S
C611 H596 0.930 . S
C611 C606 1.390 . S
C611 C610 1.387 . S
H612 C624 0.930 . S
H613 C626 0.930 . S
H614 C627 0.930 . S
H615 C631 0.959 . S
H616 C631 0.959 . S
H617 C631 0.961 . S
H618 C632 0.960 . S
H619 C632 0.961 . S
H620 C632 0.959 . S
H621 C635 0.929 . S
H622 C636 0.931 . S
H623 C638 0.930 . S
C624 H612 0.930 . S
C624 C625 1.399 . S
C624 C629 1.399 . S
C625 C624 1.399 . S
C625 C626 1.376 . S
C626 H613 0.930 . S
C626 C625 1.376 . S
C626 C627 1.388 . S
C627 H614 0.930 . S
C627 C626 1.388 . S
C627 C628 1.390 . S
C628 C627 1.390 . S
C628 C629 1.394 . S
C628 C634 1.465 . S
C629 C624 1.399 . S
C629 C628 1.394 . S
C629 C630 1.516 . S
C630 C629 1.516 . S
C630 C631 1.502 . S
C630 C632 1.561 . S
C630 C633 1.526 . S
C631 H615 0.959 . S
C631 H616 0.959 . S
C631 H617 0.961 . S
C631 C630 1.502 . S
C632 H618 0.960 . S
C632 H619 0.961 . S
C632 H620 0.959 . S
C632 C630 1.561 . S
C633 C630 1.526 . S
C633 C634 1.396 . S
C633 C638 1.390 . S
C634 C628 1.465 . S
C634 C633 1.396 . S
C634 C635 1.399 . S
C635 H621 0.929 . S
C635 C634 1.399 . S
C635 C636 1.385 . S
C636 H622 0.931 . S
C636 C635 1.385 . S
C636 C637 1.389 . S
C637 C636 1.389 . S
C637 C638 1.387 . S
C638 H623 0.930 . S
C638 C633 1.390 . S
C638 C637 1.387 . S
H639 C651 0.930 . S
H640 C653 0.930 . S
H641 C654 0.930 . S
H642 C658 0.959 . S
H643 C658 0.959 . S
H644 C658 0.961 . S
H645 C659 0.960 . S
H646 C659 0.961 . S
H647 C659 0.959 . S
H648 C662 0.929 . S
H649 C663 0.931 . S
H650 C665 0.930 . S
C651 H639 0.930 . S
C651 C652 1.399 . S
C651 C656 1.399 . S
C652 C651 1.399 . S
C652 C653 1.376 . S
C653 H640 0.930 . S
C653 C652 1.376 . S
C653 C654 1.388 . S
C654 H641 0.930 . S
C654 C653 1.388 . S
C654 C655 1.390 . S
C655 C654 1.390 . S
C655 C656 1.394 . S
C655 C661 1.465 . S
C656 C651 1.399 . S
C656 C655 1.394 . S
C656 C657 1.516 . S
C657 C656 1.516 . S
C657 C658 1.502 . S
C657 C659 1.561 . S
C657 C660 1.526 . S
C658 H642 0.959 . S
C658 H643 0.959 . S
C658 H644 0.961 . S
C658 C657 1.502 . S
C659 H645 0.960 . S
C659 H646 0.961 . S
C659 H647 0.959 . S
C659 C657 1.561 . S
C660 C657 1.526 . S
C660 C661 1.396 . S
C660 C665 1.390 . S
C661 C655 1.465 . S
C661 C660 1.396 . S
C661 C662 1.399 . S
C662 H648 0.929 . S
C662 C661 1.399 . S
C662 C663 1.385 . S
C663 H649 0.931 . S
C663 C662 1.385 . S
C663 C664 1.389 . S
C664 C663 1.389 . S
C664 C665 1.387 . S
C665 H650 0.930 . S
C665 C660 1.390 . S
C665 C664 1.387 . S
H666 C678 0.930 . S
H667 C680 0.930 . S
H668 C681 0.930 . S
H669 C685 0.959 . S
H670 C685 0.959 . S
H671 C685 0.961 . S
H672 C686 0.960 . S
H673 C686 0.961 . S
H674 C686 0.959 . S
H675 C689 0.929 . S
H676 C690 0.931 . S
H677 C692 0.930 . S
C678 H666 0.930 . S
C678 C679 1.399 . S
C678 C683 1.399 . S
C679 C678 1.399 . S
C679 C680 1.376 . S
C680 H667 0.930 . S
C680 C679 1.376 . S
C680 C681 1.388 . S
C681 H668 0.930 . S
C681 C680 1.388 . S
C681 C682 1.390 . S
C682 C681 1.390 . S
C682 C683 1.394 . S
C682 C688 1.465 . S
C683 C678 1.399 . S
C683 C682 1.394 . S
C683 C684 1.516 . S
C684 C683 1.516 . S
C684 C685 1.502 . S
C684 C686 1.561 . S
C684 C687 1.526 . S
C685 H669 0.959 . S
C685 H670 0.959 . S
C685 H671 0.961 . S
C685 C684 1.502 . S
C686 H672 0.960 . S
C686 H673 0.961 . S
C686 H674 0.959 . S
C686 C684 1.561 . S
C687 C684 1.526 . S
C687 C688 1.396 . S
C687 C692 1.390 . S
C688 C682 1.465 . S
C688 C687 1.396 . S
C688 C689 1.399 . S
C689 H675 0.929 . S
C689 C688 1.399 . S
C689 C690 1.385 . S
C690 H676 0.931 . S
C690 C689 1.385 . S
C690 C691 1.389 . S
C691 C690 1.389 . S
C691 C692 1.387 . S
C692 H677 0.930 . S
C692 C687 1.390 . S
C692 C691 1.387 . S
H693 C705 0.930 . S
H694 C707 0.930 . S
H695 C708 0.930 . S
H696 C712 0.959 . S
H697 C712 0.959 . S
H698 C712 0.961 . S
H699 C713 0.960 . S
H700 C713 0.961 . S
H701 C713 0.959 . S
H702 C716 0.929 . S
H703 C717 0.931 . S
H704 C719 0.930 . S
C705 H693 0.930 . S
C705 C706 1.399 . S
C705 C710 1.399 . S
C706 C705 1.399 . S
C706 C707 1.376 . S
C707 H694 0.930 . S
C707 C706 1.376 . S
C707 C708 1.388 . S
C708 H695 0.930 . S
C708 C707 1.388 . S
C708 C709 1.390 . S
C709 C708 1.390 . S
C709 C710 1.394 . S
C709 C715 1.465 . S
C710 C705 1.399 . S
C710 C709 1.394 . S
C710 C711 1.516 . S
C711 C710 1.516 . S
C711 C712 1.502 . S
C711 C713 1.561 . S
C711 C714 1.526 . S
C712 H696 0.959 . S
C712 H697 0.959 . S
C712 H698 0.961 . S
C712 C711 1.502 . S
C713 H699 0.960 . S
C713 H700 0.961 . S
C713 H701 0.959 . S
C713 C711 1.561 . S
C714 C711 1.526 . S
C714 C715 1.396 . S
C714 C719 1.390 . S
C715 C709 1.465 . S
C715 C714 1.396 . S
C715 C716 1.399 . S
C716 H702 0.929 . S
C716 C715 1.399 . S
C716 C717 1.385 . S
C717 H703 0.931 . S
C717 C716 1.385 . S
C717 C718 1.389 . S
C718 C717 1.389 . S
C718 C719 1.387 . S
C719 H704 0.930 . S
C719 C714 1.390 . S
C719 C718 1.387 . S
H720 C732 0.930 . S
H721 C734 0.930 . S
H722 C735 0.930 . S
H723 C739 0.959 . S
H724 C739 0.959 . S
H725 C739 0.961 . S
H726 C740 0.960 . S
H727 C740 0.961 . S
H728 C740 0.959 . S
H729 C743 0.929 . S
H730 C744 0.931 . S
H731 C746 0.930 . S
C732 H720 0.930 . S
C732 C733 1.399 . S
C732 C737 1.399 . S
C733 C732 1.399 . S
C733 C734 1.376 . S
C734 H721 0.930 . S
C734 C733 1.376 . S
C734 C735 1.388 . S
C735 H722 0.930 . S
C735 C734 1.388 . S
C735 C736 1.390 . S
C736 C735 1.390 . S
C736 C737 1.394 . S
C736 C742 1.465 . S
C737 C732 1.399 . S
C737 C736 1.394 . S
C737 C738 1.516 . S
C738 C737 1.516 . S
C738 C739 1.502 . S
C738 C740 1.561 . S
C738 C741 1.526 . S
C739 H723 0.959 . S
C739 H724 0.959 . S
C739 H725 0.961 . S
C739 C738 1.502 . S
C740 H726 0.960 . S
C740 H727 0.961 . S
C740 H728 0.959 . S
C740 C738 1.561 . S
C741 C738 1.526 . S
C741 C742 1.396 . S
C741 C746 1.390 . S
C742 C736 1.465 . S
C742 C741 1.396 . S
C742 C743 1.399 . S
C743 H729 0.929 . S
C743 C742 1.399 . S
C743 C744 1.385 . S
C744 H730 0.931 . S
C744 C743 1.385 . S
C744 C745 1.389 . S
C745 C744 1.389 . S
C745 C746 1.387 . S
C746 H731 0.930 . S
C746 C741 1.390 . S
C746 C745 1.387 . S
H747 C759 0.930 . S
H748 C761 0.930 . S
H749 C762 0.930 . S
H750 C766 0.959 . S
H751 C766 0.959 . S
H752 C766 0.961 . S
H753 C767 0.960 . S
H754 C767 0.961 . S
H755 C767 0.959 . S
H756 C770 0.929 . S
H757 C771 0.931 . S
H758 C773 0.930 . S
C759 H747 0.930 . S
C759 C760 1.399 . S
C759 C764 1.399 . S
C760 C759 1.399 . S
C760 C761 1.376 . S
C761 H748 0.930 . S
C761 C760 1.376 . S
C761 C762 1.388 . S
C762 H749 0.930 . S
C762 C761 1.388 . S
C762 C763 1.390 . S
C763 C762 1.390 . S
C763 C764 1.394 . S
C763 C769 1.465 . S
C764 C759 1.399 . S
C764 C763 1.394 . S
C764 C765 1.516 . S
C765 C764 1.516 . S
C765 C766 1.502 . S
C765 C767 1.561 . S
C765 C768 1.526 . S
C766 H750 0.959 . S
C766 H751 0.959 . S
C766 H752 0.961 . S
C766 C765 1.502 . S
C767 H753 0.960 . S
C767 H754 0.961 . S
C767 H755 0.959 . S
C767 C765 1.561 . S
C768 C765 1.526 . S
C768 C769 1.396 . S
C768 C773 1.390 . S
C769 C763 1.465 . S
C769 C768 1.396 . S
C769 C770 1.399 . S
C770 H756 0.929 . S
C770 C769 1.399 . S
C770 C771 1.385 . S
C771 H757 0.931 . S
C771 C770 1.385 . S
C771 C772 1.389 . S
C772 C771 1.389 . S
C772 C773 1.387 . S
C773 H758 0.930 . S
C773 C768 1.390 . S
C773 C772 1.387 . S
H774 C786 0.930 . S
H775 C788 0.930 . S
H776 C789 0.930 . S
H777 C793 0.959 . S
H778 C793 0.959 . S
H779 C793 0.961 . S
H780 C794 0.960 . S
H781 C794 0.961 . S
H782 C794 0.959 . S
H783 C797 0.929 . S
H784 C798 0.931 . S
H785 C800 0.930 . S
C786 H774 0.930 . S
C786 C787 1.399 . S
C786 C791 1.399 . S
C787 C786 1.399 . S
C787 C788 1.376 . S
C788 H775 0.930 . S
C788 C787 1.376 . S
C788 C789 1.388 . S
C789 H776 0.930 . S
C789 C788 1.388 . S
C789 C790 1.390 . S
C790 C789 1.390 . S
C790 C791 1.394 . S
C790 C796 1.465 . S
C791 C786 1.399 . S
C791 C790 1.394 . S
C791 C792 1.516 . S
C792 C791 1.516 . S
C792 C793 1.502 . S
C792 C794 1.561 . S
C792 C795 1.526 . S
C793 H777 0.959 . S
C793 H778 0.959 . S
C793 H779 0.961 . S
C793 C792 1.502 . S
C794 H780 0.960 . S
C794 H781 0.961 . S
C794 H782 0.959 . S
C794 C792 1.561 . S
C795 C792 1.526 . S
C795 C796 1.396 . S
C795 C800 1.390 . S
C796 C790 1.465 . S
C796 C795 1.396 . S
C796 C797 1.399 . S
C797 H783 0.929 . S
C797 C796 1.399 . S
C797 C798 1.385 . S
C798 H784 0.931 . S
C798 C797 1.385 . S
C798 C799 1.389 . S
C799 C798 1.389 . S
C799 C800 1.387 . S
C800 H785 0.930 . S
C800 C795 1.390 . S
C800 C799 1.387 . S
H801 C813 0.930 . S
H802 C815 0.930 . S
H803 C816 0.930 . S
H804 C820 0.959 . S
H805 C820 0.959 . S
H806 C820 0.961 . S
H807 C821 0.960 . S
H808 C821 0.961 . S
H809 C821 0.959 . S
H810 C824 0.929 . S
H811 C825 0.931 . S
H812 C827 0.930 . S
C813 H801 0.930 . S
C813 C814 1.399 . S
C813 C818 1.399 . S
C814 C813 1.399 . S
C814 C815 1.376 . S
C815 H802 0.930 . S
C815 C814 1.376 . S
C815 C816 1.388 . S
C816 H803 0.930 . S
C816 C815 1.388 . S
C816 C817 1.390 . S
C817 C816 1.390 . S
C817 C818 1.394 . S
C817 C823 1.465 . S
C818 C813 1.399 . S
C818 C817 1.394 . S
C818 C819 1.516 . S
C819 C818 1.516 . S
C819 C820 1.502 . S
C819 C821 1.561 . S
C819 C822 1.526 . S
C820 H804 0.959 . S
C820 H805 0.959 . S
C820 H806 0.961 . S
C820 C819 1.502 . S
C821 H807 0.960 . S
C821 H808 0.961 . S
C821 H809 0.959 . S
C821 C819 1.561 . S
C822 C819 1.526 . S
C822 C823 1.396 . S
C822 C827 1.390 . S
C823 C817 1.465 . S
C823 C822 1.396 . S
C823 C824 1.399 . S
C824 H810 0.929 . S
C824 C823 1.399 . S
C824 C825 1.385 . S
C825 H811 0.931 . S
C825 C824 1.385 . S
C825 C826 1.389 . S
C826 C825 1.389 . S
C826 C827 1.387 . S
C827 H812 0.930 . S
C827 C822 1.390 . S
C827 C826 1.387 . S
H828 C840 0.930 . S
H829 C842 0.930 . S
H830 C843 0.930 . S
H831 C847 0.959 . S
H832 C847 0.959 . S
H833 C847 0.961 . S
H834 C848 0.960 . S
H835 C848 0.961 . S
H836 C848 0.959 . S
H837 C851 0.929 . S
H838 C852 0.931 . S
H839 C854 0.930 . S
C840 H828 0.930 . S
C840 C841 1.399 . S
C840 C845 1.399 . S
C841 C840 1.399 . S
C841 C842 1.376 . S
C842 H829 0.930 . S
C842 C841 1.376 . S
C842 C843 1.388 . S
C843 H830 0.930 . S
C843 C842 1.388 . S
C843 C844 1.390 . S
C844 C843 1.390 . S
C844 C845 1.394 . S
C844 C850 1.465 . S
C845 C840 1.399 . S
C845 C844 1.394 . S
C845 C846 1.516 . S
C846 C845 1.516 . S
C846 C847 1.502 . S
C846 C848 1.561 . S
C846 C849 1.526 . S
C847 H831 0.959 . S
C847 H832 0.959 . S
C847 H833 0.961 . S
C847 C846 1.502 . S
C848 H834 0.960 . S
C848 H835 0.961 . S
C848 H836 0.959 . S
C848 C846 1.561 . S
C849 C846 1.526 . S
C849 C850 1.396 . S
C849 C854 1.390 . S
C850 C844 1.465 . S
C850 C849 1.396 . S
C850 C851 1.399 . S
C851 H837 0.929 . S
C851 C850 1.399 . S
C851 C852 1.385 . S
C852 H838 0.931 . S
C852 C851 1.385 . S
C852 C853 1.389 . S
C853 C852 1.389 . S
C853 C854 1.387 . S
C854 H839 0.930 . S
C854 C849 1.390 . S
C854 C853 1.387 . S
H855 C867 0.930 . S
H856 C869 0.930 . S
H857 C870 0.930 . S
H858 C874 0.959 . S
H859 C874 0.959 . S
H860 C874 0.961 . S
H861 C875 0.960 . S
H862 C875 0.961 . S
H863 C875 0.959 . S
H864 C878 0.929 . S
H865 C879 0.931 . S
H866 C881 0.930 . S
C867 H855 0.930 . S
C867 C868 1.399 . S
C867 C872 1.399 . S
C868 C867 1.399 . S
C868 C869 1.376 . S
C869 H856 0.930 . S
C869 C868 1.376 . S
C869 C870 1.388 . S
C870 H857 0.930 . S
C870 C869 1.388 . S
C870 C871 1.390 . S
C871 C870 1.390 . S
C871 C872 1.394 . S
C871 C877 1.465 . S
C872 C867 1.399 . S
C872 C871 1.394 . S
C872 C873 1.516 . S
C873 C872 1.516 . S
C873 C874 1.502 . S
C873 C875 1.561 . S
C873 C876 1.526 . S
C874 H858 0.959 . S
C874 H859 0.959 . S
C874 H860 0.961 . S
C874 C873 1.502 . S
C875 H861 0.960 . S
C875 H862 0.961 . S
C875 H863 0.959 . S
C875 C873 1.561 . S
C876 C873 1.526 . S
C876 C877 1.396 . S
C876 C881 1.390 . S
C877 C871 1.465 . S
C877 C876 1.396 . S
C877 C878 1.399 . S
C878 H864 0.929 . S
C878 C877 1.399 . S
C878 C879 1.385 . S
C879 H865 0.931 . S
C879 C878 1.385 . S
C879 C880 1.389 . S
C880 C879 1.389 . S
C880 C881 1.387 . S
C881 H866 0.930 . S
C881 C876 1.390 . S
C881 C880 1.387 . S
H882 C894 0.930 . S
H883 C896 0.930 . S
H884 C897 0.930 . S
H885 C901 0.959 . S
H886 C901 0.959 . S
H887 C901 0.961 . S
H888 C902 0.960 . S
H889 C902 0.961 . S
H890 C902 0.959 . S
H891 C905 0.929 . S
H892 C906 0.931 . S
H893 C908 0.930 . S
C894 H882 0.930 . S
C894 C895 1.399 . S
C894 C899 1.399 . S
C895 C894 1.399 . S
C895 C896 1.376 . S
C896 H883 0.930 . S
C896 C895 1.376 . S
C896 C897 1.388 . S
C897 H884 0.930 . S
C897 C896 1.388 . S
C897 C898 1.390 . S
C898 C897 1.390 . S
C898 C899 1.394 . S
C898 C904 1.465 . S
C899 C894 1.399 . S
C899 C898 1.394 . S
C899 C900 1.516 . S
C900 C899 1.516 . S
C900 C901 1.502 . S
C900 C902 1.561 . S
C900 C903 1.526 . S
C901 H885 0.959 . S
C901 H886 0.959 . S
C901 H887 0.961 . S
C901 C900 1.502 . S
C902 H888 0.960 . S
C902 H889 0.961 . S
C902 H890 0.959 . S
C902 C900 1.561 . S
C903 C900 1.526 . S
C903 C904 1.396 . S
C903 C908 1.390 . S
C904 C898 1.465 . S
C904 C903 1.396 . S
C904 C905 1.399 . S
C905 H891 0.929 . S
C905 C904 1.399 . S
C905 C906 1.385 . S
C906 H892 0.931 . S
C906 C905 1.385 . S
C906 C907 1.389 . S
C907 C906 1.389 . S
C907 C908 1.387 . S
C908 H893 0.930 . S
C908 C903 1.390 . S
C908 C907 1.387 . S
H909 C921 0.930 . S
H910 C923 0.930 . S
H911 C924 0.930 . S
H912 C928 0.959 . S
H913 C928 0.959 . S
H914 C928 0.961 . S
H915 C929 0.960 . S
H916 C929 0.961 . S
H917 C929 0.959 . S
H918 C932 0.929 . S
H919 C933 0.931 . S
H920 C935 0.930 . S
C921 H909 0.930 . S
C921 C922 1.399 . S
C921 C926 1.399 . S
C922 C921 1.399 . S
C922 C923 1.376 . S
C923 H910 0.930 . S
C923 C922 1.376 . S
C923 C924 1.388 . S
C924 H911 0.930 . S
C924 C923 1.388 . S
C924 C925 1.390 . S
C925 C924 1.390 . S
C925 C926 1.394 . S
C925 C931 1.465 . S
C926 C921 1.399 . S
C926 C925 1.394 . S
C926 C927 1.516 . S
C927 C926 1.516 . S
C927 C928 1.502 . S
C927 C929 1.561 . S
C927 C930 1.526 . S
C928 H912 0.959 . S
C928 H913 0.959 . S
C928 H914 0.961 . S
C928 C927 1.502 . S
C929 H915 0.960 . S
C929 H916 0.961 . S
C929 H917 0.959 . S
C929 C927 1.561 . S
C930 C927 1.526 . S
C930 C931 1.396 . S
C930 C935 1.390 . S
C931 C925 1.465 . S
C931 C930 1.396 . S
C931 C932 1.399 . S
C932 H918 0.929 . S
C932 C931 1.399 . S
C932 C933 1.385 . S
C933 H919 0.931 . S
C933 C932 1.385 . S
C933 C934 1.389 . S
C934 C933 1.389 . S
C934 C935 1.387 . S
C935 H920 0.930 . S
C935 C930 1.390 . S
C935 C934 1.387 . S
H936 C948 0.930 . S
H937 C950 0.930 . S
H938 C951 0.930 . S
H939 C955 0.959 . S
H940 C955 0.959 . S
H941 C955 0.961 . S
H942 C956 0.960 . S
H943 C956 0.961 . S
H944 C956 0.959 . S
H945 C959 0.929 . S
H946 C960 0.931 . S
H947 C962 0.930 . S
C948 H936 0.930 . S
C948 C949 1.399 . S
C948 C953 1.399 . S
C949 C948 1.399 . S
C949 C950 1.376 . S
C950 H937 0.930 . S
C950 C949 1.376 . S
C950 C951 1.388 . S
C951 H938 0.930 . S
C951 C950 1.388 . S
C951 C952 1.390 . S
C952 C951 1.390 . S
C952 C953 1.394 . S
C952 C958 1.465 . S
C953 C948 1.399 . S
C953 C952 1.394 . S
C953 C954 1.516 . S
C954 C953 1.516 . S
C954 C955 1.502 . S
C954 C956 1.561 . S
C954 C957 1.526 . S
C955 H939 0.959 . S
C955 H940 0.959 . S
C955 H941 0.961 . S
C955 C954 1.502 . S
C956 H942 0.960 . S
C956 H943 0.961 . S
C956 H944 0.959 . S
C956 C954 1.561 . S
C957 C954 1.526 . S
C957 C958 1.396 . S
C957 C962 1.390 . S
C958 C952 1.465 . S
C958 C957 1.396 . S
C958 C959 1.399 . S
C959 H945 0.929 . S
C959 C958 1.399 . S
C959 C960 1.385 . S
C960 H946 0.931 . S
C960 C959 1.385 . S
C960 C961 1.389 . S
C961 C960 1.389 . S
C961 C962 1.387 . S
C962 H947 0.930 . S
C962 C957 1.390 . S
C962 C961 1.387 . S
H963 C975 0.930 . S
H964 C977 0.930 . S
H965 C978 0.930 . S
H966 C982 0.959 . S
H967 C982 0.959 . S
H968 C982 0.961 . S
H969 C983 0.960 . S
H970 C983 0.961 . S
H971 C983 0.959 . S
H972 C986 0.929 . S
H973 C987 0.931 . S
H974 C989 0.930 . S
C975 H963 0.930 . S
C975 C976 1.399 . S
C975 C980 1.399 . S
C976 C975 1.399 . S
C976 C977 1.376 . S
C977 H964 0.930 . S
C977 C976 1.376 . S
C977 C978 1.388 . S
C978 H965 0.930 . S
C978 C977 1.388 . S
C978 C979 1.390 . S
C979 C978 1.390 . S
C979 C980 1.394 . S
C979 C985 1.465 . S
C980 C975 1.399 . S
C980 C979 1.394 . S
C980 C981 1.516 . S
C981 C980 1.516 . S
C981 C982 1.502 . S
C981 C983 1.561 . S
C981 C984 1.526 . S
C982 H966 0.959 . S
C982 H967 0.959 . S
C982 H968 0.961 . S
C982 C981 1.502 . S
C983 H969 0.960 . S
C983 H970 0.961 . S
C983 H971 0.959 . S
C983 C981 1.561 . S
C984 C981 1.526 . S
C984 C985 1.396 . S
C984 C989 1.390 . S
C985 C979 1.465 . S
C985 C984 1.396 . S
C985 C986 1.399 . S
C986 H972 0.929 . S
C986 C985 1.399 . S
C986 C987 1.385 . S
C987 H973 0.931 . S
C987 C986 1.385 . S
C987 C988 1.389 . S
C988 C987 1.389 . S
C988 C989 1.387 . S
C989 H974 0.930 . S
C989 C984 1.390 . S
C989 C988 1.387 . S
H990 C1002 0.930 . S
H991 C1004 0.930 . S
H992 C1005 0.930 . S
H993 C1009 0.959 . S
H994 C1009 0.959 . S
H995 C1009 0.961 . S
H996 C1010 0.960 . S
H997 C1010 0.961 . S
H998 C1010 0.959 . S
H999 C1013 0.929 . S
H1000 C1014 0.931 . S
H1001 C1016 0.930 . S
C1002 H990 0.930 . S
C1002 C1003 1.399 . S
C1002 C1007 1.399 . S
C1003 C1002 1.399 . S
C1003 C1004 1.376 . S
C1004 H991 0.930 . S
C1004 C1003 1.376 . S
C1004 C1005 1.388 . S
C1005 H992 0.930 . S
C1005 C1004 1.388 . S
C1005 C1006 1.390 . S
C1006 C1005 1.390 . S
C1006 C1007 1.394 . S
C1006 C1012 1.465 . S
C1007 C1002 1.399 . S
C1007 C1006 1.394 . S
C1007 C1008 1.516 . S
C1008 C1007 1.516 . S
C1008 C1009 1.502 . S
C1008 C1010 1.561 . S
C1008 C1011 1.526 . S
C1009 H993 0.959 . S
C1009 H994 0.959 . S
C1009 H995 0.961 . S
C1009 C1008 1.502 . S
C1010 H996 0.960 . S
C1010 H997 0.961 . S
C1010 H998 0.959 . S
C1010 C1008 1.561 . S
C1011 C1008 1.526 . S
C1011 C1012 1.396 . S
C1011 C1016 1.390 . S
C1012 C1006 1.465 . S
C1012 C1011 1.396 . S
C1012 C1013 1.399 . S
C1013 H999 0.929 . S
C1013 C1012 1.399 . S
C1013 C1014 1.385 . S
C1014 H1000 0.931 . S
C1014 C1013 1.385 . S
C1014 C1015 1.389 . S
C1015 C1014 1.389 . S
C1015 C1016 1.387 . S
C1016 H1001 0.930 . S
C1016 C1011 1.390 . S
C1016 C1015 1.387 . S
H1017 C1029 0.930 . S
H1018 C1031 0.930 . S
H1019 C1032 0.930 . S
H1020 C1036 0.959 . S
H1021 C1036 0.959 . S
H1022 C1036 0.961 . S
H1023 C1037 0.960 . S
H1024 C1037 0.961 . S
H1025 C1037 0.959 . S
H1026 C1040 0.929 . S
H1027 C1041 0.931 . S
H1028 C1043 0.930 . S
C1029 H1017 0.930 . S
C1029 C1030 1.399 . S
C1029 C1034 1.399 . S
C1030 C1029 1.399 . S
C1030 C1031 1.376 . S
C1031 H1018 0.930 . S
C1031 C1030 1.376 . S
C1031 C1032 1.388 . S
C1032 H1019 0.930 . S
C1032 C1031 1.388 . S
C1032 C1033 1.390 . S
C1033 C1032 1.390 . S
C1033 C1034 1.394 . S
C1033 C1039 1.465 . S
C1034 C1029 1.399 . S
C1034 C1033 1.394 . S
C1034 C1035 1.516 . S
C1035 C1034 1.516 . S
C1035 C1036 1.502 . S
C1035 C1037 1.561 . S
C1035 C1038 1.526 . S
C1036 H1020 0.959 . S
C1036 H1021 0.959 . S
C1036 H1022 0.961 . S
C1036 C1035 1.502 . S
C1037 H1023 0.960 . S
C1037 H1024 0.961 . S
C1037 H1025 0.959 . S
C1037 C1035 1.561 . S
C1038 C1035 1.526 . S
C1038 C1039 1.396 . S
C1038 C1043 1.390 . S
C1039 C1033 1.465 . S
C1039 C1038 1.396 . S
C1039 C1040 1.399 . S
C1040 H1026 0.929 . S
C1040 C1039 1.399 . S
C1040 C1041 1.385 . S
C1041 H1027 0.931 . S
C1041 C1040 1.385 . S
C1041 C1042 1.389 . S
C1042 C1041 1.389 . S
C1042 C1043 1.387 . S
C1043 H1028 0.930 . S
C1043 C1038 1.390 . S
C1043 C1042 1.387 . S
H1044 C1056 0.930 . S
H1045 C1058 0.930 . S
H1046 C1059 0.930 . S
H1047 C1063 0.959 . S
H1048 C1063 0.959 . S
H1049 C1063 0.961 . S
H1050 C1064 0.960 . S
H1051 C1064 0.961 . S
H1052 C1064 0.959 . S
H1053 C1067 0.929 . S
H1054 C1068 0.931 . S
H1055 C1070 0.930 . S
C1056 H1044 0.930 . S
C1056 C1057 1.399 . S
C1056 C1061 1.399 . S
C1057 C1056 1.399 . S
C1057 C1058 1.376 . S
C1058 H1045 0.930 . S
C1058 C1057 1.376 . S
C1058 C1059 1.388 . S
C1059 H1046 0.930 . S
C1059 C1058 1.388 . S
C1059 C1060 1.390 . S
C1060 C1059 1.390 . S
C1060 C1061 1.394 . S
C1060 C1066 1.465 . S
C1061 C1056 1.399 . S
C1061 C1060 1.394 . S
C1061 C1062 1.516 . S
C1062 C1061 1.516 . S
C1062 C1063 1.502 . S
C1062 C1064 1.561 . S
C1062 C1065 1.526 . S
C1063 H1047 0.959 . S
C1063 H1048 0.959 . S
C1063 H1049 0.961 . S
C1063 C1062 1.502 . S
C1064 H1050 0.960 . S
C1064 H1051 0.961 . S
C1064 H1052 0.959 . S
C1064 C1062 1.561 . S
C1065 C1062 1.526 . S
C1065 C1066 1.396 . S
C1065 C1070 1.390 . S
C1066 C1060 1.465 . S
C1066 C1065 1.396 . S
C1066 C1067 1.399 . S
C1067 H1053 0.929 . S
C1067 C1066 1.399 . S
C1067 C1068 1.385 . S
C1068 H1054 0.931 . S
C1068 C1067 1.385 . S
C1068 C1069 1.389 . S
C1069 C1068 1.389 . S
C1069 C1070 1.387 . S
C1070 H1055 0.930 . S
C1070 C1065 1.390 . S
C1070 C1069 1.387 . S
H1071 C1083 0.930 . S
H1072 C1085 0.930 . S
H1073 C1086 0.930 . S
H1074 C1090 0.959 . S
H1075 C1090 0.959 . S
H1076 C1090 0.961 . S
H1077 C1091 0.960 . S
H1078 C1091 0.961 . S
H1079 C1091 0.959 . S
H1080 C1094 0.929 . S
H1081 C1095 0.931 . S
H1082 C1097 0.930 . S
C1083 H1071 0.930 . S
C1083 C1084 1.399 . S
C1083 C1088 1.399 . S
C1084 C1083 1.399 . S
C1084 C1085 1.376 . S
C1085 H1072 0.930 . S
C1085 C1084 1.376 . S
C1085 C1086 1.388 . S
C1086 H1073 0.930 . S
C1086 C1085 1.388 . S
C1086 C1087 1.390 . S
C1087 C1086 1.390 . S
C1087 C1088 1.394 . S
C1087 C1093 1.465 . S
C1088 C1083 1.399 . S
C1088 C1087 1.394 . S
C1088 C1089 1.516 . S
C1089 C1088 1.516 . S
C1089 C1090 1.502 . S
C1089 C1091 1.561 . S
C1089 C1092 1.526 . S
C1090 H1074 0.959 . S
C1090 H1075 0.959 . S
C1090 H1076 0.961 . S
C1090 C1089 1.502 . S
C1091 H1077 0.960 . S
C1091 H1078 0.961 . S
C1091 H1079 0.959 . S
C1091 C1089 1.561 . S
C1092 C1089 1.526 . S
C1092 C1093 1.396 . S
C1092 C1097 1.390 . S
C1093 C1087 1.465 . S
C1093 C1092 1.396 . S
C1093 C1094 1.399 . S
C1094 H1080 0.929 . S
C1094 C1093 1.399 . S
C1094 C1095 1.385 . S
C1095 H1081 0.931 . S
C1095 C1094 1.385 . S
C1095 C1096 1.389 . S
C1096 C1095 1.389 . S
C1096 C1097 1.387 . S
C1097 H1082 0.930 . S
C1097 C1092 1.390 . S
C1097 C1096 1.387 . S
H1098 C1110 0.930 . S
H1099 C1112 0.930 . S
H1100 C1113 0.930 . S
H1101 C1117 0.959 . S
H1102 C1117 0.959 . S
H1103 C1117 0.961 . S
H1104 C1118 0.960 . S
H1105 C1118 0.961 . S
H1106 C1118 0.959 . S
H1107 C1121 0.929 . S
H1108 C1122 0.931 . S
H1109 C1124 0.930 . S
C1110 H1098 0.930 . S
C1110 C1111 1.399 . S
C1110 C1115 1.399 . S
C1111 C1110 1.399 . S
C1111 C1112 1.376 . S
C1112 H1099 0.930 . S
C1112 C1111 1.376 . S
C1112 C1113 1.388 . S
C1113 H1100 0.930 . S
C1113 C1112 1.388 . S
C1113 C1114 1.390 . S
C1114 C1113 1.390 . S
C1114 C1115 1.394 . S
C1114 C1120 1.465 . S
C1115 C1110 1.399 . S
C1115 C1114 1.394 . S
C1115 C1116 1.516 . S
C1116 C1115 1.516 . S
C1116 C1117 1.502 . S
C1116 C1118 1.561 . S
C1116 C1119 1.526 . S
C1117 H1101 0.959 . S
C1117 H1102 0.959 . S
C1117 H1103 0.961 . S
C1117 C1116 1.502 . S
C1118 H1104 0.960 . S
C1118 H1105 0.961 . S
C1118 H1106 0.959 . S
C1118 C1116 1.561 . S
C1119 C1116 1.526 . S
C1119 C1120 1.396 . S
C1119 C1124 1.390 . S
C1120 C1114 1.465 . S
C1120 C1119 1.396 . S
C1120 C1121 1.399 . S
C1121 H1107 0.929 . S
C1121 C1120 1.399 . S
C1121 C1122 1.385 . S
C1122 H1108 0.931 . S
C1122 C1121 1.385 . S
C1122 C1123 1.389 . S
C1123 C1122 1.389 . S
C1123 C1124 1.387 . S
C1124 H1109 0.930 . S
C1124 C1119 1.390 . S
C1124 C1123 1.387 . S
H1125 C1137 0.930 . S
H1126 C1139 0.930 . S
H1127 C1140 0.930 . S
H1128 C1144 0.959 . S
H1129 C1144 0.959 . S
H1130 C1144 0.961 . S
H1131 C1145 0.960 . S
H1132 C1145 0.961 . S
H1133 C1145 0.959 . S
H1134 C1148 0.929 . S
H1135 C1149 0.931 . S
H1136 C1151 0.930 . S
C1137 H1125 0.930 . S
C1137 C1138 1.399 . S
C1137 C1142 1.399 . S
C1138 C1137 1.399 . S
C1138 C1139 1.376 . S
C1139 H1126 0.930 . S
C1139 C1138 1.376 . S
C1139 C1140 1.388 . S
C1140 H1127 0.930 . S
C1140 C1139 1.388 . S
C1140 C1141 1.390 . S
C1141 C1140 1.390 . S
C1141 C1142 1.394 . S
C1141 C1147 1.465 . S
C1142 C1137 1.399 . S
C1142 C1141 1.394 . S
C1142 C1143 1.516 . S
C1143 C1142 1.516 . S
C1143 C1144 1.502 . S
C1143 C1145 1.561 . S
C1143 C1146 1.526 . S
C1144 H1128 0.959 . S
C1144 H1129 0.959 . S
C1144 H1130 0.961 . S
C1144 C1143 1.502 . S
C1145 H1131 0.960 . S
C1145 H1132 0.961 . S
C1145 H1133 0.959 . S
C1145 C1143 1.561 . S
C1146 C1143 1.526 . S
C1146 C1147 1.396 . S
C1146 C1151 1.390 . S
C1147 C1141 1.465 . S
C1147 C1146 1.396 . S
C1147 C1148 1.399 . S
C1148 H1134 0.929 . S
C1148 C1147 1.399 . S
C1148 C1149 1.385 . S
C1149 H1135 0.931 . S
C1149 C1148 1.385 . S
C1149 C1150 1.389 . S
C1150 C1149 1.389 . S
C1150 C1151 1.387 . S
C1151 H1136 0.930 . S
C1151 C1146 1.390 . S
C1151 C1150 1.387 . S
H1152 C1164 0.930 . S
H1153 C1166 0.930 . S
H1154 C1167 0.930 . S
H1155 C1171 0.959 . S
H1156 C1171 0.959 . S
H1157 C1171 0.961 . S
H1158 C1172 0.960 . S
H1159 C1172 0.961 . S
H1160 C1172 0.959 . S
H1161 C1175 0.929 . S
H1162 C1176 0.931 . S
H1163 C1178 0.930 . S
C1164 H1152 0.930 . S
C1164 C1165 1.399 . S
C1164 C1169 1.399 . S
C1165 C1164 1.399 . S
C1165 C1166 1.376 . S
C1166 H1153 0.930 . S
C1166 C1165 1.376 . S
C1166 C1167 1.388 . S
C1167 H1154 0.930 . S
C1167 C1166 1.388 . S
C1167 C1168 1.390 . S
C1168 C1167 1.390 . S
C1168 C1169 1.394 . S
C1168 C1174 1.465 . S
C1169 C1164 1.399 . S
C1169 C1168 1.394 . S
C1169 C1170 1.516 . S
C1170 C1169 1.516 . S
C1170 C1171 1.502 . S
C1170 C1172 1.561 . S
C1170 C1173 1.526 . S
C1171 H1155 0.959 . S
C1171 H1156 0.959 . S
C1171 H1157 0.961 . S
C1171 C1170 1.502 . S
C1172 H1158 0.960 . S
C1172 H1159 0.961 . S
C1172 H1160 0.959 . S
C1172 C1170 1.561 . S
C1173 C1170 1.526 . S
C1173 C1174 1.396 . S
C1173 C1178 1.390 . S
C1174 C1168 1.465 . S
C1174 C1173 1.396 . S
C1174 C1175 1.399 . S
C1175 H1161 0.929 . S
C1175 C1174 1.399 . S
C1175 C1176 1.385 . S
C1176 H1162 0.931 . S
C1176 C1175 1.385 . S
C1176 C1177 1.389 . S
C1177 C1176 1.389 . S
C1177 C1178 1.387 . S
C1178 H1163 0.930 . S
C1178 C1173 1.390 . S
C1178 C1177 1.387 . S
H1179 C1191 0.930 . S
H1180 C1193 0.930 . S
H1181 C1194 0.930 . S
H1182 C1198 0.959 . S
H1183 C1198 0.959 . S
H1184 C1198 0.961 . S
H1185 C1199 0.960 . S
H1186 C1199 0.961 . S
H1187 C1199 0.959 . S
H1188 C1202 0.929 . S
H1189 C1203 0.931 . S
H1190 C1205 0.930 . S
C1191 H1179 0.930 . S
C1191 C1192 1.399 . S
C1191 C1196 1.399 . S
C1192 C1191 1.399 . S
C1192 C1193 1.376 . S
C1193 H1180 0.930 . S
C1193 C1192 1.376 . S
C1193 C1194 1.388 . S
C1194 H1181 0.930 . S
C1194 C1193 1.388 . S
C1194 C1195 1.390 . S
C1195 C1194 1.390 . S
C1195 C1196 1.394 . S
C1195 C1201 1.465 . S
C1196 C1191 1.399 . S
C1196 C1195 1.394 . S
C1196 C1197 1.516 . S
C1197 C1196 1.516 . S
C1197 C1198 1.502 . S
C1197 C1199 1.561 . S
C1197 C1200 1.526 . S
C1198 H1182 0.959 . S
C1198 H1183 0.959 . S
C1198 H1184 0.961 . S
C1198 C1197 1.502 . S
C1199 H1185 0.960 . S
C1199 H1186 0.961 . S
C1199 H1187 0.959 . S
C1199 C1197 1.561 . S
C1200 C1197 1.526 . S
C1200 C1201 1.396 . S
C1200 C1205 1.390 . S
C1201 C1195 1.465 . S
C1201 C1200 1.396 . S
C1201 C1202 1.399 . S
C1202 H1188 0.929 . S
C1202 C1201 1.399 . S
C1202 C1203 1.385 . S
C1203 H1189 0.931 . S
C1203 C1202 1.385 . S
C1203 C1204 1.389 . S
C1204 C1203 1.389 . S
C1204 C1205 1.387 . S
C1205 H1190 0.930 . S
C1205 C1200 1.390 . S
C1205 C1204 1.387 . S
C409 C318 0.787 . S
C421 C21 0.791 . S
C436 C54 0.786 . S
C448 C351 0.790 . S
C463 C384 0.800 . S
C475 C87 0.877 . S
C490 C120 0.782 . S
C502 C219 0.861 . S
C517 C153 0.868 . S
C529 C252 0.871 . S
C544 C285 0.829 . S
C556 C186 0.772 . S
C571 C18 1.296 . S
C583 N134 1.193 . S
C598 N167 1.232 . S
C610 C51 1.305 . S
C625 C84 1.290 . S
C637 N2 1.138 . S
C652 C117 1.321 . S
C664 N35 1.167 . S
C679 N68 1.107 . S
C691 C150 1.308 . S
C706 N101 1.244 . S
C718 C183 1.313 . S
C733 N266 1.244 . S
C745 C216 1.312 . S
C760 C249 1.309 . S
C772 N299 1.110 . S
C787 N332 1.096 . S
C799 C282 1.304 . S
C814 N365 1.106 . S
C826 C315 1.308 . S
C841 N200 1.235 . S
C853 C348 1.307 . S
C868 C381 1.291 . S
C880 N233 1.160 . S
C895 N343 0.574 . S
C907 N13 0.639 . S
C922 N376 0.824 . S
C934 N46 0.797 . S
C949 N79 0.799 . S
C961 N211 0.822 . S
C976 N112 0.827 . S
C988 N244 0.781 . S
C1003 N277 0.796 . S
C1015 N145 0.823 . S
C1030 N178 0.658 . S
C1042 N310 0.579 . S
C1057 C205 0.959 . S
C1069 C7 1.023 . S
C1084 C238 0.939 . S
C1096 C40 0.920 . S
C1111 C73 0.938 . S
C1123 C271 0.921 . S
C1138 C304 1.025 . S
C1150 C106 0.964 . S
C1165 C139 0.984 . S
C1177 C337 1.020 . S
C1192 C370 1.025 . S
C1204 C172 0.971 . S
