# Generated by pormake.
# Topology eci, (8)-cn, num edge types: 1
# Building blocks:
#     Node 0, Type 0, BuildingBlock: AJUNOK_clean_sbu_0, # of connection points: 8
#     Node 1, Type 0, BuildingBlock: AJUNOK_clean_sbu_0, # of connection points: 8
#     Node 2, Type 0, BuildingBlock: AJUNOK_clean_sbu_0, # of connection points: 8
#     Node 3, Type 0, BuildingBlock: AJUNOK_clean_sbu_0, # of connection points: 8
#     Edge 4, Type (0, 0), BuildingBlock: UVAHIK_clean_linker_0, # of connection points: 2
#     Edge 5, Type (0, 0), BuildingBlock: UVAHIK_clean_linker_0, # of connection points: 2
#     Edge 6, Type (0, 0), BuildingBlock: UVAHIK_clean_linker_0, # of connection points: 2
#     Edge 7, Type (0, 0), BuildingBlock: UVAHIK_clean_linker_0, # of connection points: 2
#     Edge 8, Type (0, 0), BuildingBlock: UVAHIK_clean_linker_0, # of connection points: 2
#     Edge 9, Type (0, 0), BuildingBlock: UVAHIK_clean_linker_0, # of connection points: 2
#     Edge 10, Type (0, 0), BuildingBlock: UVAHIK_clean_linker_0, # of connection points: 2
#     Edge 11, Type (0, 0), BuildingBlock: UVAHIK_clean_linker_0, # of connection points: 2
#     Edge 12, Type (0, 0), BuildingBlock: UVAHIK_clean_linker_0, # of connection points: 2
#     Edge 13, Type (0, 0), BuildingBlock: UVAHIK_clean_linker_0, # of connection points: 2
#     Edge 14, Type (0, 0), BuildingBlock: UVAHIK_clean_linker_0, # of connection points: 2
#     Edge 15, Type (0, 0), BuildingBlock: UVAHIK_clean_linker_0, # of connection points: 2
#     Edge 16, Type (0, 0), BuildingBlock: UVAHIK_clean_linker_0, # of connection points: 2
#     Edge 17, Type (0, 0), BuildingBlock: UVAHIK_clean_linker_0, # of connection points: 2
#     Edge 18, Type (0, 0), BuildingBlock: UVAHIK_clean_linker_0, # of connection points: 2
#     Edge 19, Type (0, 0), BuildingBlock: UVAHIK_clean_linker_0, # of connection points: 2
# Relax obj value: 0.355
# Max RMSD: 0.283
# Mean RMSD: 0.283
data_MOF--net-eci--node1-AJUNOK_clean_sbu_0--edge1-UVAHIK_clean_linker_0
_symmetry_space_group_name_H-M    P1
_symmetry_Int_Tables_number       1
_symmetry_cell_setting            triclinic
loop_
_symmetry_equiv_pos_as_xyz
'x, y, z'
_cell_length_a     41.750213
_cell_length_b     41.720849
_cell_length_c     23.084983
_cell_angle_alpha  89.940752
_cell_angle_beta   90.14189
_cell_angle_gamma 90.19026
loop_
_atom_site_label
_atom_site_type_symbol
_atom_site_fract_x
_atom_site_fract_y
_atom_site_fract_z
_atom_type_partial_charge
Cd0 Cd 0.83181 0.80087 0.0758 0.0
Cd1 Cd 0.80454 0.81949 0.90671 0.0
C2 C 0.80008 0.73969 0.01064 0.0
N3 N 0.79253 0.76477 0.04559 0.0
C4 C 0.74947 0.73498 0.08753 0.0
C5 C 0.75892 0.70766 0.05649 0.0
C6 C 0.78322 0.71086 0.01493 0.0
C7 C 0.76679 0.76348 0.08146 0.0
H8 H 0.82104 0.74063 -0.01631 0.0
H9 H 0.76203 0.78335 0.11022 0.0
C10 C 0.79315 0.87152 0.02472 0.0
C11 C 0.81856 0.89013 0.85117 0.0
C12 C 0.83605 0.91372 0.82184 0.0
C13 C 0.86797 0.90768 0.80564 0.0
C14 C 0.8816 0.8781 0.82106 0.0
C15 C 0.86343 0.85554 0.85104 0.0
N16 N 0.83251 0.86173 0.8649 0.0
H17 H 0.79374 0.89426 0.86212 0.0
H18 H 0.87377 0.83267 0.86204 0.0
C19 C 0.7315 0.82249 0.95944 0.0
N20 N 0.75393 0.80177 0.93892 0.0
C21 C 0.71355 0.7621 0.92148 0.0
C22 C 0.68975 0.78386 0.93836 0.0
C23 C 0.69916 0.81378 0.96029 0.0
C24 C 0.74564 0.77164 0.92205 0.0
H25 H 0.73788 0.84677 0.97042 0.0
H26 H 0.76365 0.75582 0.90462 0.0
C27 C 0.87395 0.77522 0.96583 0.0
C28 C 0.83264 0.7896 0.19814 0.0
N29 N 0.87644 0.83291 0.05733 0.0
C30 C 0.90182 0.82745 0.09284 0.0
C31 C 0.92823 0.8479 0.09196 0.0
C32 C 0.92818 0.87459 0.05498 0.0
C33 C 0.9024 0.8788 0.01655 0.0
C34 C 0.8767 0.85724 0.018 0.0
C35 C 0.79091 0.79451 0.79517 0.0
O36 O 0.80371 0.85174 0.062 0.0
O37 O 0.79331 0.86494 0.97093 0.0
O38 O 0.85213 0.78997 0.9383 0.0
O39 O 0.87207 0.77267 0.02045 0.0
O40 O 0.82016 0.81423 0.17559 0.0
O41 O 0.84609 0.77019 0.16384 0.0
O42 O 0.80772 0.77907 0.83161 0.0
O43 O 0.78028 0.82166 0.81097 0.0
H44 H 0.9009 0.8079 0.12359 0.0
H45 H 0.85652 0.8607 -0.01058 0.0
H46 H 0.73069 0.73357 0.11974 0.0
H47 H 0.79151 0.69038 -0.00956 0.0
H48 H 0.82459 0.93628 0.81171 0.0
H49 H 0.90577 0.87187 0.80864 0.0
H50 H 0.70723 0.73872 0.9045 0.0
H51 H 0.68152 0.83141 0.97291 0.0
H52 H 0.9475 0.84409 0.12269 0.0
H53 H 0.90165 0.89912 -0.01269 0.0
Cd54 Cd 0.71569 0.32127 0.33772 0.0
Cd55 Cd 0.6884 0.31276 0.15914 0.0
C56 C 0.77396 0.3081 0.24823 0.0
N57 N 0.75125 0.29267 0.28004 0.0
C58 C 0.78293 0.2451 0.2823 0.0
C59 C 0.80814 0.2614 0.25452 0.0
C60 C 0.80261 0.29273 0.23444 0.0
C61 C 0.75472 0.26142 0.2954 0.0
H62 H 0.77152 0.33323 0.23849 0.0
H63 H 0.73675 0.25004 0.32219 0.0
C64 C 0.6403 0.29287 0.28056 0.0
C65 C 0.61998 0.31973 0.0935 0.0
C66 C 0.59379 0.33558 0.06897 0.0
C67 C 0.59028 0.36874 0.07743 0.0
C68 C 0.61289 0.38498 0.11183 0.0
C69 C 0.63867 0.36824 0.13527 0.0
N70 N 0.64193 0.33638 0.12508 0.0
H71 H 0.62321 0.29433 0.08632 0.0
H72 H 0.65662 0.38083 0.16039 0.0
C73 C 0.69224 0.23827 0.20656 0.0
N74 N 0.70934 0.26202 0.18031 0.0
C75 C 0.74981 0.22466 0.15266 0.0
C76 C 0.73211 0.19955 0.1775 0.0
C77 C 0.7035 0.20678 0.20638 0.0
C78 C 0.73793 0.25582 0.15458 0.0
H79 H 0.66903 0.24306 0.22474 0.0
H80 H 0.75092 0.27493 0.13338 0.0
C81 C 0.72564 0.37944 0.23947 0.0
C82 C 0.74154 0.3041 0.44905 0.0
N83 N 0.68582 0.36511 0.36718 0.0
C84 C 0.6959 0.38099 0.41525 0.0
C85 C 0.6774 0.40544 0.4387 0.0
C86 C 0.64795 0.41336 0.4129 0.0
C87 C 0.63876 0.39734 0.36186 0.0
C88 C 0.65828 0.37328 0.33943 0.0
C89 C 0.71389 0.30863 0.0448 0.0
O90 O 0.6618 0.29797 0.31883 0.0
O91 O 0.64567 0.29783 0.22699 0.0
O92 O 0.71259 0.35927 0.20566 0.0
O93 O 0.7319 0.37155 0.2914 0.0
O94 O 0.71652 0.29083 0.42887 0.0
O95 O 0.75475 0.32509 0.41729 0.0
O96 O 0.7262 0.32742 0.08218 0.0
O97 O 0.68942 0.29262 0.06042 0.0
H98 H 0.71806 0.37425 0.43613 0.0
H99 H 0.65103 0.36059 0.30074 0.0
H100 H 0.78585 0.22075 0.29766 0.0
H101 H 0.82137 0.30647 0.21361 0.0
H102 H 0.5767 0.32214 0.04323 0.0
H103 H 0.61138 0.41059 0.11882 0.0
H104 H 0.77214 0.2201 0.13037 0.0
H105 H 0.68887 0.18799 0.22518 0.0
H106 H 0.68589 0.41765 0.47717 0.0
H107 H 0.61621 0.40243 0.34057 0.0
Cd108 Cd 0.19547 0.19796 0.41022 0.0
Cd109 Cd 0.16127 0.21691 0.58122 0.0
C110 C 0.27037 0.19566 0.45082 0.0
N111 N 0.24699 0.21659 0.43484 0.0
C112 C 0.28581 0.2584 0.42275 0.0
C113 C 0.31052 0.23692 0.43668 0.0
C114 C 0.30237 0.20552 0.45288 0.0
C115 C 0.25404 0.24767 0.42222 0.0
H116 H 0.26473 0.17074 0.45824 0.0
H117 H 0.2352 0.26365 0.40822 0.0
C118 C 0.12084 0.23356 0.46715 0.0
C119 C 0.09446 0.18268 0.58689 0.0
C120 C 0.06998 0.16027 0.58074 0.0
C121 C 0.07397 0.13441 0.54278 0.0
C122 C 0.10188 0.13263 0.50922 0.0
C123 C 0.12552 0.15617 0.51571 0.0
N124 N 0.1217 0.18004 0.55526 0.0
H125 H 0.09222 0.20185 0.61812 0.0
H126 H 0.14715 0.15482 0.49044 0.0
C127 C 0.19158 0.27671 0.50994 0.0
N128 N 0.19958 0.25413 0.54997 0.0
C129 C 0.24038 0.28832 0.58861 0.0
C130 C 0.23029 0.31324 0.55185 0.0
C131 C 0.20697 0.30645 0.50969 0.0
C132 C 0.22449 0.25878 0.58705 0.0
H133 H 0.17112 0.27332 0.48219 0.0
H134 H 0.2297 0.24088 0.61966 0.0
C135 C 0.20897 0.15082 0.53902 0.0
C136 C 0.19802 0.22836 0.30131 0.0
N137 N 0.17254 0.15303 0.36818 0.0
C138 C 0.18416 0.12262 0.36964 0.0
C139 C 0.16689 0.09768 0.34341 0.0
C140 C 0.13763 0.10437 0.31552 0.0
C141 C 0.12681 0.13619 0.31407 0.0
C142 C 0.14464 0.16013 0.34093 0.0
C143 C 0.14862 0.23171 0.70036 0.0
O144 O 0.14639 0.22135 0.44747 0.0
O145 O 0.11929 0.23937 0.52089 0.0
O146 O 0.19571 0.16899 0.57619 0.0
O147 O 0.20902 0.15792 0.48532 0.0
O148 O 0.1824 0.24055 0.34306 0.0
O149 O 0.21348 0.20265 0.31135 0.0
O150 O 0.1573 0.20414 0.68406 0.0
O151 O 0.14612 0.25296 0.66151 0.0
H152 H 0.20657 0.1177 0.39134 0.0
H153 H 0.13629 0.18459 0.34011 0.0
H154 H 0.29114 0.28282 0.40996 0.0
H155 H 0.32074 0.18807 0.46285 0.0
H156 H 0.04893 0.16209 0.60788 0.0
H157 H 0.10565 0.11288 0.47959 0.0
H158 H 0.2585 0.29246 0.62143 0.0
H159 H 0.19819 0.32496 0.48087 0.0
H160 H 0.17605 0.07347 0.34578 0.0
H161 H 0.10486 0.14269 0.29198 0.0
Cd162 Cd 0.32218 0.70689 0.63749 0.0
Cd163 Cd 0.30465 0.68961 0.80374 0.0
C164 C 0.2931 0.77268 0.69831 0.0
N165 N 0.29059 0.75331 0.65102 0.0
C166 C 0.26147 0.79385 0.60007 0.0
C167 C 0.26619 0.81534 0.64615 0.0
C168 C 0.28094 0.80392 0.69687 0.0
C169 C 0.27403 0.76293 0.60334 0.0
H170 H 0.30583 0.76467 0.73624 0.0
H171 H 0.27221 0.7473 0.56622 0.0
C172 C 0.27021 0.64508 0.69645 0.0
C173 C 0.34076 0.62155 0.76902 0.0
C174 C 0.36344 0.59756 0.77807 0.0
C175 C 0.39091 0.60421 0.81109 0.0
C176 C 0.39609 0.63575 0.83016 0.0
C177 C 0.37277 0.65895 0.82035 0.0
N178 N 0.34542 0.6515 0.7911 0.0
H179 H 0.31876 0.61524 0.74765 0.0
H180 H 0.37558 0.68239 0.8396 0.0
C181 C 0.24052 0.71832 0.73777 0.0
N182 N 0.25927 0.72157 0.78578 0.0
C183 C 0.21765 0.7499 0.83438 0.0
C184 C 0.19653 0.74334 0.7884 0.0
C185 C 0.20885 0.72906 0.73814 0.0
C186 C 0.24898 0.73851 0.83234 0.0
H187 H 0.24923 0.70565 0.70047 0.0
H188 H 0.26424 0.74104 0.86991 0.0
C189 C 0.366 0.74181 0.74557 0.0
C190 C 0.33084 0.70376 0.51577 0.0
N191 N 0.35905 0.66557 0.6544 0.0
C192 C 0.38832 0.66923 0.67985 0.0
C193 C 0.41144 0.64531 0.67493 0.0
C194 C 0.40462 0.61775 0.64242 0.0
C195 C 0.3738 0.61385 0.61916 0.0
C196 C 0.3515 0.63832 0.625 0.0
C197 C 0.30543 0.68177 0.92582 0.0
O198 O 0.28534 0.6623 0.6602 0.0
O199 O 0.27246 0.6508 0.75032 0.0
O200 O 0.34861 0.72664 0.78142 0.0
O201 O 0.36104 0.73915 0.69146 0.0
O202 O 0.30438 0.69691 0.53947 0.0
O203 O 0.35271 0.71486 0.54826 0.0
O204 O 0.31335 0.70795 0.902 0.0
O205 O 0.29438 0.66002 0.89314 0.0
H206 H 0.39478 0.69116 0.70127 0.0
H207 H 0.32884 0.63639 0.60259 0.0
H208 H 0.24954 0.80133 0.56063 0.0
H209 H 0.28503 0.81954 0.73359 0.0
H210 H 0.35824 0.5735 0.76314 0.0
H211 H 0.41711 0.64203 0.85532 0.0
H212 H 0.20941 0.76167 0.87336 0.0
H213 H 0.19355 0.72374 0.70141 0.0
H214 H 0.4351 0.64943 0.69283 0.0
H215 H 0.36758 0.59288 0.59384 0.0
C216 C 0.83832 0.7533 0.2844 0.0
C217 C 0.82903 0.7829 0.26055 0.0
C218 C 0.83122 0.74597 0.3422 0.0
C219 C 0.77425 0.76723 0.45621 0.0
H220 H 0.83997 0.74253 0.56616 0.0
C221 C 0.77093 0.80177 0.69407 0.0
C222 C 0.78603 0.78248 0.73572 0.0
C223 C 0.77066 0.79266 0.63596 0.0
C224 C 0.82107 0.74857 0.53589 0.0
H225 H 0.80654 0.82856 0.27915 0.0
H226 H 0.79433 0.8158 0.37943 0.0
H227 H 0.85252 0.7444 0.46298 0.0
H228 H 0.81013 0.73716 0.75021 0.0
H229 H 0.80954 0.7212 0.64843 0.0
H230 H 0.74309 0.77255 0.52894 0.0
C231 C 0.80646 0.79804 0.3533 0.0
C232 C 0.82835 0.74975 0.47685 0.0
C233 C 0.8137 0.80542 0.29601 0.0
C234 C 0.79876 0.75277 0.71884 0.0
C235 C 0.79848 0.74364 0.66062 0.0
C236 C 0.76691 0.76588 0.51505 0.0
C237 C 0.81451 0.76804 0.3766 0.0
C238 C 0.80538 0.76048 0.43692 0.0
C239 C 0.78542 0.76403 0.61832 0.0
C240 C 0.79066 0.75796 0.55577 0.0
H241 H 0.8502 0.7355 0.25803 0.0
H242 H 0.83791 0.72278 0.35947 0.0
H243 H 0.75593 0.7749 0.42594 0.0
H244 H 0.76073 0.82469 0.70581 0.0
H245 H 0.76064 0.8091 0.60448 0.0
C246 C 0.77818 0.31558 0.53278 0.0
C247 C 0.75314 0.29738 0.50846 0.0
C248 C 0.78588 0.31253 0.59156 0.0
C249 C 0.7702 0.26388 0.72435 0.0
H250 H 0.76751 0.34666 0.8004 0.0
C251 C 0.71493 0.2819 0.948 0.0
C252 C 0.7278 0.30471 -0.01369 0.0
C253 C 0.7276 0.27817 0.89253 0.0
C254 C 0.76906 0.32333 0.78011 0.0
H255 H 0.71833 0.25988 0.52547 0.0
H256 H 0.73152 0.25472 0.62774 0.0
H257 H 0.7742 0.34402 0.69589 0.0
H258 H 0.76472 0.34094 -0.00304 0.0
H259 H 0.78669 0.33464 0.89939 0.0
H260 H 0.76349 0.24331 0.80853 0.0
C261 C 0.74533 0.27131 0.60164 0.0
C262 C 0.77295 0.32179 0.72006 0.0
C263 C 0.73755 0.27446 0.54302 0.0
C264 C 0.7541 0.32333 0.96825 0.0
C265 C 0.7667 0.31971 0.91245 0.0
C266 C 0.76631 0.26543 0.78443 0.0
C267 C 0.76881 0.29109 0.62707 0.0
C268 C 0.77218 0.29211 0.69121 0.0
C269 C 0.75342 0.29722 0.87381 0.0
C270 C 0.7643 0.29523 0.81262 0.0
H271 H 0.7909 0.33321 0.50708 0.0
H272 H 0.8044 0.32778 0.60968 0.0
H273 H 0.77022 0.24063 0.70352 0.0
H274 H 0.69476 0.26707 0.96059 0.0
H275 H 0.71642 0.26102 0.8636 0.0
C276 C 0.15169 0.26866 0.78535 0.0
C277 C 0.14337 0.2387 0.76202 0.0
C278 C 0.15228 0.27309 0.84545 0.0
C279 C 0.16554 0.22272 0.97291 0.0
H280 H 0.15353 0.30112 0.06015 0.0
C281 C 0.21656 0.23106 0.19903 0.0
C282 C 0.19508 0.241 0.24194 0.0
C283 C 0.21006 0.23716 0.14082 0.0
C284 C 0.1569 0.27908 0.03624 0.0
H285 H 0.12542 0.19121 0.78183 0.0
H286 H 0.125 0.19927 0.88632 0.0
H287 H 0.1365 0.2986 0.95834 0.0
H288 H 0.15145 0.26756 0.25834 0.0
H289 H 0.13965 0.27749 0.15619 0.0
H290 H 0.18537 0.20287 0.04998 0.0
C291 C 0.13254 0.21892 0.85878 0.0
C292 C 0.14727 0.27766 -0.02198 0.0
C293 C 0.13267 0.21429 0.79902 0.0
C294 C 0.16838 0.25952 0.22601 0.0
C295 C 0.16164 0.26528 0.16753 0.0
C296 C 0.17509 0.22414 0.03055 0.0
C297 C 0.14405 0.24772 0.88285 0.0
C298 C 0.15163 0.24941 0.9457 0.0
C299 C 0.18168 0.25283 0.12429 0.0
C300 C 0.17133 0.25238 0.06276 0.0
H301 H 0.15987 0.2879 0.75744 0.0
H302 H 0.16123 0.29558 0.8625 0.0
H303 H 0.16988 0.20075 0.9493 0.0
H304 H 0.2376 0.21722 0.21022 0.0
H305 H 0.22646 0.22811 0.10848 0.0
C306 C 0.32112 0.70138 0.02327 0.0
C307 C 0.31295 0.6757 -0.01297 0.0
C308 C 0.33243 0.69573 0.07903 0.0
C309 C 0.32978 0.63758 0.1959 0.0
H310 H 0.38848 0.69958 0.26316 0.0
C311 C 0.31106 0.68631 0.41941 0.0
C312 C 0.33677 0.69552 0.45486 0.0
C313 C 0.31653 0.6751 0.36365 0.0
C314 C 0.37272 0.68146 0.24517 0.0
H315 H 0.31005 0.62389 -0.01958 0.0
H316 H 0.3298 0.61396 0.07866 0.0
H317 H 0.3839 0.69535 0.1584 0.0
H318 H 0.38848 0.70007 0.46019 0.0
H319 H 0.39809 0.68061 0.36174 0.0
H320 H 0.318 0.62429 0.28273 0.0
C321 C 0.32734 0.63846 0.06381 0.0
C322 C 0.36981 0.6793 0.18515 0.0
C323 C 0.31577 0.64416 0.00789 0.0
C324 C 0.36817 0.69354 0.43334 0.0
C325 C 0.37369 0.68215 0.37732 0.0
C326 C 0.33296 0.63949 0.25592 0.0
C327 C 0.33612 0.66424 0.09969 0.0
C328 C 0.34657 0.65908 0.16025 0.0
C329 C 0.34788 0.67262 0.34208 0.0
C330 C 0.35265 0.66314 0.28101 0.0
H331 H 0.31912 0.72592 0.0083 0.0
H332 H 0.33793 0.71616 0.10626 0.0
H333 H 0.31204 0.62137 0.17801 0.0
H334 H 0.28661 0.68758 0.43486 0.0
H335 H 0.29603 0.66896 0.33699 0.0
C336 C 0.40207 0.76002 0.82632 0.0
C337 C 0.39648 0.75607 0.76656 0.0
C338 C 0.43299 0.76626 0.84714 0.0
C339 C 0.51478 0.7471 0.8107 0.0
H340 H 0.54025 0.81131 0.92309 0.0
C341 C 0.64719 0.76728 0.86844 0.0
C342 C 0.65558 0.77765 0.92431 0.0
C343 C 0.61512 0.76486 0.85189 0.0
C344 C 0.53348 0.79283 0.89251 0.0
H345 H 0.41876 0.75757 0.68174 0.0
H346 H 0.47261 0.76809 0.71827 0.0
H347 H 0.48484 0.80941 0.88864 0.0
H348 H 0.63695 0.79296 0.00717 0.0
H349 H 0.58063 0.78738 -0.02076 0.0
H350 H 0.56263 0.72952 0.81561 0.0
C351 C 0.45304 0.76631 0.74885 0.0
C352 C 0.50178 0.79198 0.87247 0.0
C353 C 0.42211 0.76058 0.72796 0.0
C354 C 0.63112 0.78486 0.96383 0.0
C355 C 0.59888 0.78195 0.94753 0.0
C356 C 0.54622 0.74754 0.8314 0.0
C357 C 0.45893 0.76822 0.80868 0.0
C358 C 0.49229 0.76939 0.83076 0.0
C359 C 0.59043 0.77229 0.89101 0.0
C360 C 0.55622 0.77069 0.87198 0.0
H361 H 0.38287 0.75665 0.85724 0.0
H362 H 0.43692 0.76764 0.89348 0.0
H363 H 0.5079 0.72895 0.77946 0.0
H364 H 0.66551 0.76234 0.83653 0.0
H365 H 0.60983 0.75813 0.80761 0.0
C366 C 0.73989 0.14295 0.21228 0.0
C367 C 0.74147 0.16578 0.16759 0.0
C368 C 0.74664 0.11069 0.2011 0.0
C369 C 0.78382 0.05736 0.09069 0.0
H370 H 0.7309 0.99168 0.16166 0.0
C371 C 0.77925 0.92871 0.00322 0.0
C372 C 0.78363 0.90402 0.04395 0.0
C373 C 0.77374 0.96012 0.0214 0.0
C374 C 0.74599 0.00978 0.14188 0.0
H375 H 0.75087 0.17273 0.07613 0.0
H376 H 0.76201 0.11678 0.05636 0.0
H377 H 0.72348 0.0478 0.18866 0.0
H378 H 0.78424 0.89287 0.13585 0.0
H379 H 0.77411 0.94783 0.16741 0.0
H380 H 0.80562 0.01942 0.04272 0.0
C381 C 0.75657 0.12365 0.10045 0.0
C382 C 0.7419 0.04192 0.15753 0.0
C383 C 0.75014 0.15581 0.11174 0.0
C384 C 0.78106 0.91131 0.1033 0.0
C385 C 0.77517 0.94274 0.12145 0.0
C386 C 0.7876 0.02537 0.07461 0.0
C387 C 0.75479 0.1006 0.14486 0.0
C388 C 0.76053 0.06617 0.13159 0.0
C389 C 0.77213 0.96755 0.08066 0.0
C390 C 0.76851 1.0013 0.09953 0.0
H391 H 0.73338 0.15005 0.2558 0.0
H392 H 0.74546 0.0937 0.23651 0.0
H393 H 0.79914 0.07522 0.07083 0.0
H394 H 0.78102 0.92401 0.95723 0.0
H395 H 0.77103 0.97874 -0.01099 0.0
C396 C 0.36834 0.23777 0.46796 0.0
C397 C 0.3446 0.2457 0.42712 0.0
C398 C 0.40079 0.24302 0.45561 0.0
C399 C 0.45543 0.24746 0.33256 0.0
H400 H 0.51469 0.28951 0.43754 0.0
C401 C 0.58195 0.28438 0.25901 0.0
C402 C 0.60737 0.28385 0.29909 0.0
C403 C 0.55049 0.27853 0.27679 0.0
C404 C 0.49865 0.2772 0.40805 0.0
H405 H 0.33621 0.26552 0.34162 0.0
H406 H 0.39275 0.27439 0.31992 0.0
H407 H 0.45869 0.28246 0.46569 0.0
H408 H 0.61946 0.27603 0.38944 0.0
H409 H 0.56468 0.26478 0.42015 0.0
H410 H 0.49507 0.24139 0.27538 0.0
C411 C 0.38629 0.2643 0.36156 0.0
C412 C 0.46651 0.27334 0.42417 0.0
C413 C 0.35392 0.25954 0.37424 0.0
C414 C 0.60051 0.27664 0.35733 0.0
C415 C 0.56898 0.27048 0.37507 0.0
C416 C 0.48755 0.2509 0.31677 0.0
C417 C 0.4101 0.2557 0.40174 0.0
C418 C 0.44449 0.25884 0.38619 0.0
C419 C 0.54346 0.27161 0.3351 0.0
C420 C 0.50959 0.26624 0.35385 0.0
H421 H 0.36181 0.22705 0.50904 0.0
H422 H 0.41865 0.2361 0.48731 0.0
H423 H 0.43911 0.23563 0.30285 0.0
H424 H 0.58617 0.29017 0.21391 0.0
H425 H 0.53158 0.28029 0.2448 0.0
C426 C 0.26638 0.86533 0.58597 0.0
C427 C 0.25898 0.85007 0.63863 0.0
C428 C 0.26131 0.89813 0.5787 0.0
C429 C 0.25038 0.97399 0.65951 0.0
H430 H 0.22045 0.00437 0.51017 0.0
C431 C 0.21256 0.10602 0.61197 0.0
C432 C 0.22042 0.11859 0.55715 0.0
C433 C 0.21889 0.07389 0.62546 0.0
C434 C 0.2292 0.99637 0.55193 0.0
H435 H 0.24034 0.85758 0.72509 0.0
H436 H 0.23107 0.91509 0.71216 0.0
H437 H 0.22622 0.94717 0.52687 0.0
H438 H 0.24322 0.10765 0.47522 0.0
H439 H 0.25437 0.05191 0.49883 0.0
H440 H 0.25296 0.02349 0.68449 0.0
C441 C 0.24119 0.90157 0.67666 0.0
C442 C 0.23249 0.96349 0.56158 0.0
C443 C 0.24638 0.86859 0.68403 0.0
C444 C 0.23636 0.09873 0.51748 0.0
C445 C 0.24263 0.06667 0.53092 0.0
C446 C 0.24692 0.00701 0.6499 0.0
C447 C 0.2486 0.91674 0.62381 0.0
C448 C 0.24347 0.95182 0.61522 0.0
C449 C 0.23318 0.0536 0.58442 0.0
C450 C 0.23665 0.01859 0.59572 0.0
H451 H 0.27697 0.85208 0.55057 0.0
H452 H 0.26804 0.90901 0.53789 0.0
H453 H 0.2592 0.96591 0.70117 0.0
H454 H 0.20021 0.12057 0.64363 0.0
H455 H 0.21124 0.06459 0.66702 0.0
C456 C 0.92842 0.75046 0.9668 0.0
C457 C 0.90288 0.76373 0.93522 0.0
C458 C 0.95747 0.7437 0.93974 0.0
C459 C 0.00726 0.7716 0.82071 0.0
H460 H 0.05932 0.69848 0.86338 0.0
C461 C 0.14092 0.75616 0.7514 0.0
C462 C 0.16137 0.74651 0.79669 0.0
C463 C 0.10759 0.75606 0.75905 0.0
C464 C 0.04509 0.71907 0.85107 0.0
H465 H 0.88715 0.77801 0.8493 0.0
H466 H 0.93836 0.76691 0.80234 0.0
H467 H 1.00328 0.70023 0.89257 0.0
H468 H 0.16263 0.72884 0.88521 0.0
H469 H 0.1052 0.72951 0.89879 0.0
H470 H 0.04954 0.79097 0.78111 0.0
C471 C 0.93583 0.76208 0.84822 0.0
C472 C 0.013 0.72001 0.86767 0.0
C473 C 0.90655 0.76847 0.8752 0.0
C474 C 0.14777 0.73708 0.84972 0.0
C475 C 0.11471 0.73687 0.85721 0.0
C476 C 0.03949 0.77069 0.80418 0.0
C477 C 0.96178 0.75021 0.88051 0.0
C478 C 0.99401 0.74673 0.8543 0.0
C479 C 0.09418 0.74593 0.81186 0.0
C480 C 0.05899 0.7449 0.82096 0.0
H481 H 0.92644 0.74638 0.013 0.0
H482 H 0.97709 0.7348 0.96593 0.0
H483 H 0.99324 0.7926 0.81005 0.0
H484 H 0.15066 0.76355 0.71003 0.0
H485 H 0.09233 0.76322 0.72334 0.0
C486 C 0.726 0.42118 0.16118 0.0
C487 C 0.73079 0.41287 0.21961 0.0
C488 C 0.72812 0.45314 0.14323 0.0
C489 C 0.75842 0.53322 0.18859 0.0
H490 H 0.6981 0.56394 0.07328 0.0
C491 C 0.74784 0.66719 0.13391 0.0
C492 C 0.74824 0.67516 0.07469 0.0
C493 C 0.74341 0.63548 0.15165 0.0
C494 C 0.71522 0.55565 0.10524 0.0
H495 H 0.74176 0.43172 0.30493 0.0
H496 H 0.74501 0.48742 0.27388 0.0
H497 H 0.69617 0.50798 0.10405 0.0
H498 H 0.74281 0.65628 -0.01219 0.0
H499 H 0.73484 0.60072 0.0189 0.0
H500 H 0.7772 0.581 0.19015 0.0
C501 C 0.7402 0.46921 0.2416 0.0
C502 C 0.71424 0.52354 0.12276 0.0
C503 C 0.73828 0.43722 0.25949 0.0
C504 C 0.74263 0.65087 0.03371 0.0
C505 C 0.73797 0.6191 0.05154 0.0
C506 C 0.75923 0.56534 0.17139 0.0
C507 C 0.73486 0.47765 0.18331 0.0
C508 C 0.73589 0.51186 0.16458 0.0
C509 C 0.73915 0.61097 0.11065 0.0
C510 C 0.73766 0.57692 0.1295 0.0
H511 H 0.72022 0.40302 0.12927 0.0
H512 H 0.72446 0.4586 0.09784 0.0
H513 H 0.77583 0.52504 0.2201 0.0
H514 H 0.75263 0.68517 0.16664 0.0
H515 H 0.74405 0.63003 0.19753 0.0
C516 C 0.86367 0.25511 0.21244 0.0
C517 C 0.84139 0.24856 0.25664 0.0
C518 C 0.89623 0.24809 0.2202 0.0
C519 C 0.95292 0.2048 0.31846 0.0
H520 H 0.0107 0.2754 0.28494 0.0
C521 C 0.06151 0.23371 0.458 0.0
C522 C 0.09159 0.23593 0.43109 0.0
C523 C 0.03357 0.23211 0.42503 0.0
C524 C 0.99497 0.25526 0.29356 0.0
H525 H 0.83613 0.22859 0.34304 0.0
H526 H 0.89203 0.2163 0.35615 0.0
H527 H 0.95612 0.27602 0.24592 0.0
H528 H 0.11584 0.23963 0.34844 0.0
H529 H 0.06632 0.23777 0.29031 0.0
H530 H 0.99108 0.18527 0.36947 0.0
C531 C 0.88457 0.22629 0.31499 0.0
C532 C 0.96375 0.25549 0.27109 0.0
C533 C 0.85224 0.23331 0.30733 0.0
C534 C 0.093 0.23771 0.37028 0.0
C535 C 0.06478 0.2367 0.3371 0.0
C536 C 0.98387 0.20481 0.34141 0.0
C537 C 0.90716 0.23428 0.27224 0.0
C538 C 0.94196 0.23084 0.2852 0.0
C539 C 0.03491 0.23322 0.36436 0.0
C540 C 0.00477 0.23055 0.33081 0.0
H541 H 0.8561 0.26658 0.17261 0.0
H542 H 0.91295 0.2542 0.1861 0.0
H543 H 0.93707 0.18505 0.32902 0.0
H544 H 0.05954 0.23207 0.50469 0.0
H545 H 0.01078 0.22983 0.44705 0.0
C546 C 0.24409 0.36929 0.51906 0.0
C547 C 0.23922 0.34712 0.56414 0.0
C548 C 0.24747 0.40204 0.53108 0.0
C549 C 0.26231 0.45968 0.6518 0.0
H550 H 0.21921 0.51995 0.55032 0.0
C551 C 0.24698 0.59098 0.71834 0.0
C552 C 0.2568 0.61383 0.67714 0.0
C553 C 0.24214 0.55902 0.70238 0.0
C554 C 0.23148 0.50341 0.57889 0.0
H555 H 0.23429 0.34212 0.65726 0.0
H556 H 0.24005 0.39876 0.67808 0.0
H557 H 0.21912 0.46292 0.52638 0.0
H558 H 0.26651 0.62134 0.58576 0.0
H559 H 0.25773 0.56561 0.558 0.0
H560 H 0.27431 0.50007 0.70465 0.0
C561 C 0.24199 0.391 0.63349 0.0
C562 C 0.23164 0.47073 0.56503 0.0
C563 C 0.2388 0.35835 0.62153 0.0
C564 C 0.25903 0.60442 0.61872 0.0
C565 C 0.25403 0.57243 0.60273 0.0
C566 C 0.26194 0.49224 0.66584 0.0
C567 C 0.24586 0.41339 0.58842 0.0
C568 C 0.24695 0.4484 0.60147 0.0
C569 C 0.24675 0.54916 0.64481 0.0
C570 C 0.24639 0.51448 0.62976 0.0
H571 H 0.24462 0.36137 0.4744 0.0
H572 H 0.25099 0.41849 0.49533 0.0
H573 H 0.2749 0.44338 0.68034 0.0
H574 H 0.24489 0.59729 0.76367 0.0
H575 H 0.23587 0.54176 0.73559 0.0
C576 C 0.13252 0.05388 0.25629 0.0
C577 C 0.11811 0.07868 0.28802 0.0
C578 C 0.11367 0.03098 0.22773 0.0
C579 C 0.03031 0.99868 0.22244 0.0
H580 H 0.05555 0.96777 0.07087 0.0
C581 C 0.94275 0.93128 0.07598 0.0
C582 C 0.95259 0.89991 0.0633 0.0
C583 C 0.96472 0.95367 0.09722 0.0
C584 C 0.04835 0.97626 0.1132 0.0
H585 H 0.0726 0.09804 0.31645 0.0
H586 H 0.03998 0.05939 0.26493 0.0
H587 H 0.09064 0.00488 0.1235 0.0
H588 H 0.99329 0.86797 0.05851 0.0
H589 H 0.03206 0.90766 0.09427 0.0
H590 H 0.9876 0.97088 0.21113 0.0
C591 C 0.06577 0.05706 0.26262 0.0
C592 C 0.06849 0.99726 0.14363 0.0
C593 C 0.08453 0.07963 0.29155 0.0
C594 C 0.9852 0.89204 0.068 0.0
C595 C 0.00731 0.91466 0.08832 0.0
C596 C 0.01004 0.97826 0.19164 0.0
C597 C 0.08002 0.03247 0.23013 0.0
C598 C 0.05959 0.00891 0.19853 0.0
C599 C 0.99696 0.94523 0.10517 0.0
C600 C 0.01877 0.96705 0.13668 0.0
H601 H 0.15833 0.05257 0.25239 0.0
H602 H 0.12551 0.01213 0.20382 0.0
H603 H 0.02299 0.00636 0.26518 0.0
H604 H 0.9177 0.93784 0.07335 0.0
H605 H 0.9563 0.9772 0.10971 0.0
C606 C 0.62383 0.43835 0.50145 0.0
C607 C 0.62633 0.43697 0.44072 0.0
C608 C 0.60257 0.45949 0.52783 0.0
C609 C 0.55221 0.53105 0.4983 0.0
H610 H 0.50418 0.50076 0.6314 0.0
C611 C 0.4334 0.58613 0.56757 0.0
C612 C 0.43059 0.5956 0.62573 0.0
C613 C 0.45915 0.56757 0.54971 0.0
C614 C 0.51774 0.5096 0.59472 0.0
H615 H 0.60876 0.45739 0.36026 0.0
H616 H 0.57062 0.4931 0.40603 0.0
H617 H 0.54607 0.46712 0.59008 0.0
H618 H 0.4524 0.59287 0.71089 0.0
H619 H 0.49736 0.55927 0.67958 0.0
H620 H 0.52269 0.57285 0.50152 0.0
C621 C 0.58566 0.47837 0.43345 0.0
C622 C 0.5418 0.49046 0.57108 0.0
C623 C 0.60722 0.4575 0.40708 0.0
C624 C 0.45388 0.58566 0.66593 0.0
C625 C 0.4795 0.56653 0.64812 0.0
C626 C 0.5279 0.54991 0.52141 0.0
C627 C 0.58294 0.47951 0.49417 0.0
C628 C 0.559 0.50076 0.522 0.0
C629 C 0.48254 0.55784 0.58963 0.0
C630 C 0.51018 0.53912 0.5692 0.0
H631 H 0.63779 0.42257 0.52884 0.0
H632 H 0.60145 0.46001 0.57468 0.0
H633 H 0.56547 0.54012 0.46147 0.0
H634 H 0.41623 0.59396 0.53531 0.0
H635 H 0.46091 0.56092 0.50446 0.0
C636 C 0.06123 0.07733 0.56283 0.0
C637 C 0.05085 0.10767 0.5449 0.0
C638 C 0.03899 0.05392 0.57889 0.0
C639 C 0.95569 0.04896 0.63309 0.0
H640 H 0.97392 0.95789 0.63344 0.0
C641 C 0.87177 0.95052 0.7288 0.0
C642 C 0.88675 0.93136 0.77116 0.0
C643 C 0.88978 0.97154 0.69458 0.0
C644 C 0.96855 0.98328 0.63336 0.0
H645 H 0.00952 0.1368 0.52487 0.0
H646 H 0.97044 0.09533 0.54964 0.0
H647 H 0.00817 0.99427 0.57833 0.0
H648 H 0.93248 0.9204 0.81173 0.0
H649 H 0.96381 0.95605 0.75023 0.0
H650 H 0.91572 0.03755 0.6876 0.0
C651 C 0.99567 0.08986 0.55373 0.0
C652 C 0.98821 1.00418 0.60212 0.0
C653 C 0.01796 0.11349 0.53881 0.0
C654 C 0.92013 0.93407 0.77869 0.0
C655 C 0.93814 0.95457 0.74369 0.0
C656 C 0.93568 0.02795 0.6633 0.0
C657 C 0.00589 0.06024 0.5764 0.0
C658 C 0.98254 0.03743 0.60273 0.0
C659 C 0.92313 0.97335 0.70126 0.0
C660 C 0.9424 0.99508 0.66474 0.0
H661 H 0.08653 0.07251 0.56861 0.0
H662 H 0.04796 0.03168 0.59675 0.0
H663 H 0.95079 0.07437 0.63576 0.0
H664 H 0.84626 0.94879 0.72096 0.0
H665 H 0.87776 0.98586 0.66198 0.0
C666 C 0.55684 0.38113 -0.01025 0.0
C667 C 0.56433 0.38688 0.04825 0.0
C668 C 0.53486 0.40058 0.96057 0.0
C669 C 0.47132 0.46125 -0.0156 0.0
H670 H 0.49667 0.49261 0.83294 0.0
C671 C 0.42157 0.5775 0.89049 0.0
C672 C 0.41149 0.57773 0.83234 0.0
C673 C 0.4384 0.55152 0.91289 0.0
C674 C 0.48905 0.4837 0.87481 0.0
H675 H 0.55345 0.41646 0.12277 0.0
H676 H 0.5157 0.45072 0.07183 0.0
H677 H 0.52817 0.45081 0.88028 0.0
H678 H 0.41159 0.55089 0.75192 0.0
H679 H 0.44155 0.50536 0.79125 0.0
H680 H 0.43285 0.49488 -0.02026 0.0
C681 C 0.52654 0.43107 0.04842 0.0
C682 C 0.50701 0.45972 0.90191 0.0
C683 C 0.54846 0.41166 0.07752 0.0
C684 C 0.41912 0.55147 0.79683 0.0
C685 C 0.4363 0.52548 0.81924 0.0
C686 C 0.45352 0.48529 0.9575 0.0
C687 C 0.51987 0.42612 -0.01065 0.0
C688 C 0.49874 0.44874 0.9576 0.0
C689 C 0.44562 0.52508 0.87778 0.0
C690 C 0.46264 0.49727 0.90307 0.0
H691 H 0.56885 0.36237 0.96588 0.0
H692 H 0.52996 0.39592 0.91526 0.0
H693 H 0.46388 0.45284 0.0267 0.0
H694 H 0.41554 0.59695 0.91948 0.0
H695 H 0.44566 0.55206 0.95797 0.0
loop_
_geom_bond_atom_site_label_1
_geom_bond_atom_site_label_2
_geom_bond_distance
_geom_bond_site_symmetry_2
_ccdc_geom_bond_type
Cd0 N3 2.334 . S
Cd0 N29 2.304 . S
Cd0 O36 2.268 . S
Cd0 O39 2.273 . S
Cd0 O40 2.417 . S
Cd0 O41 2.330 . S
Cd1 N16 2.304 . S
Cd1 N20 2.334 . S
Cd1 O37 2.273 . S
Cd1 O38 2.268 . S
Cd1 O42 2.417 . S
Cd1 O43 2.330 . S
C2 N3 1.332 . S
C2 C6 1.381 . S
C2 H8 0.931 . S
N3 Cd0 2.334 . S
N3 C2 1.332 . S
N3 C7 1.328 . S
C4 C5 1.396 . S
C4 C7 1.378 . S
C4 H46 0.931 . S
C5 C4 1.396 . S
C5 C6 1.382 . S
C6 C2 1.381 . S
C6 C5 1.382 . S
C6 H47 0.930 . S
C7 N3 1.328 . S
C7 C4 1.378 . S
C7 H9 0.930 . S
H8 C2 0.931 . S
H9 C7 0.930 . S
C10 O36 1.238 . S
C10 O37 1.253 1_554 S
C11 C12 1.379 . S
C11 N16 1.337 . S
C11 H17 0.929 . S
C12 C11 1.379 . S
C12 C13 1.380 . S
C12 H48 0.929 . S
C13 C12 1.380 . S
C13 C14 1.399 . S
C14 C13 1.399 . S
C14 C15 1.376 . S
C14 H49 0.931 . S
C15 C14 1.376 . S
C15 N16 1.338 . S
C15 H18 0.930 . S
N16 Cd1 2.304 . S
N16 C11 1.337 . S
N16 C15 1.338 . S
H17 C11 0.929 . S
H18 C15 0.930 . S
C19 N20 1.332 . S
C19 C23 1.381 . S
C19 H25 0.931 . S
N20 Cd1 2.334 . S
N20 C19 1.332 . S
N20 C24 1.328 . S
C21 C22 1.396 . S
C21 C24 1.378 . S
C21 H50 0.931 . S
C22 C21 1.396 . S
C22 C23 1.382 . S
C23 C19 1.381 . S
C23 C22 1.382 . S
C23 H51 0.930 . S
C24 N20 1.328 . S
C24 C21 1.378 . S
C24 H26 0.930 . S
H25 C19 0.931 . S
H26 C24 0.930 . S
C27 O38 1.238 . S
C27 O39 1.253 1_556 S
C28 O40 1.239 . S
C28 O41 1.230 . S
N29 Cd0 2.304 . S
N29 C30 1.337 . S
N29 C34 1.338 . S
C30 N29 1.337 . S
C30 C31 1.379 . S
C30 H44 0.929 . S
C31 C30 1.379 . S
C31 C32 1.380 . S
C31 H52 0.929 . S
C32 C31 1.380 . S
C32 C33 1.399 . S
C33 C32 1.399 . S
C33 C34 1.376 . S
C33 H53 0.931 . S
C34 N29 1.338 . S
C34 C33 1.376 . S
C34 H45 0.930 . S
C35 O42 1.239 . S
C35 O43 1.230 . S
O36 Cd0 2.268 . S
O36 C10 1.238 . S
O37 Cd1 2.273 . S
O37 C10 1.253 1_556 S
O38 Cd1 2.268 . S
O38 C27 1.238 . S
O39 Cd0 2.273 . S
O39 C27 1.253 1_554 S
O40 Cd0 2.417 . S
O40 C28 1.239 . S
O41 Cd0 2.330 . S
O41 C28 1.230 . S
O42 Cd1 2.417 . S
O42 C35 1.239 . S
O43 Cd1 2.330 . S
O43 C35 1.230 . S
H44 C30 0.929 . S
H45 C34 0.930 . S
H46 C4 0.931 . S
H47 C6 0.930 . S
H48 C12 0.929 . S
H49 C14 0.931 . S
H50 C21 0.931 . S
H51 C23 0.930 . S
H52 C31 0.929 . S
H53 C33 0.931 . S
Cd54 N57 2.334 . S
Cd54 N83 2.304 . S
Cd54 O90 2.268 . S
Cd54 O93 2.273 . S
Cd54 O94 2.417 . S
Cd54 O95 2.330 . S
Cd55 N70 2.304 . S
Cd55 N74 2.334 . S
Cd55 O91 2.273 . S
Cd55 O92 2.268 . S
Cd55 O96 2.417 . S
Cd55 O97 2.330 . S
C56 N57 1.332 . S
C56 C60 1.381 . S
C56 H62 0.931 . S
N57 Cd54 2.334 . S
N57 C56 1.332 . S
N57 C61 1.328 . S
C58 C59 1.396 . S
C58 C61 1.378 . S
C58 H100 0.931 . S
C59 C58 1.396 . S
C59 C60 1.382 . S
C60 C56 1.381 . S
C60 C59 1.382 . S
C60 H101 0.930 . S
C61 N57 1.328 . S
C61 C58 1.378 . S
C61 H63 0.930 . S
H62 C56 0.931 . S
H63 C61 0.930 . S
C64 O90 1.238 . S
C64 O91 1.253 . S
C65 C66 1.379 . S
C65 N70 1.337 . S
C65 H71 0.929 . S
C66 C65 1.379 . S
C66 C67 1.380 . S
C66 H102 0.929 . S
C67 C66 1.380 . S
C67 C68 1.399 . S
C68 C67 1.399 . S
C68 C69 1.376 . S
C68 H103 0.931 . S
C69 C68 1.376 . S
C69 N70 1.338 . S
C69 H72 0.930 . S
N70 Cd55 2.304 . S
N70 C65 1.337 . S
N70 C69 1.338 . S
H71 C65 0.929 . S
H72 C69 0.930 . S
C73 N74 1.332 . S
C73 C77 1.381 . S
C73 H79 0.931 . S
N74 Cd55 2.334 . S
N74 C73 1.332 . S
N74 C78 1.328 . S
C75 C76 1.396 . S
C75 C78 1.378 . S
C75 H104 0.931 . S
C76 C75 1.396 . S
C76 C77 1.382 . S
C77 C73 1.381 . S
C77 C76 1.382 . S
C77 H105 0.930 . S
C78 N74 1.328 . S
C78 C75 1.378 . S
C78 H80 0.930 . S
H79 C73 0.931 . S
H80 C78 0.930 . S
C81 O92 1.238 . S
C81 O93 1.253 . S
C82 O94 1.239 . S
C82 O95 1.230 . S
N83 Cd54 2.304 . S
N83 C84 1.337 . S
N83 C88 1.338 . S
C84 N83 1.337 . S
C84 C85 1.379 . S
C84 H98 0.929 . S
C85 C84 1.379 . S
C85 C86 1.380 . S
C85 H106 0.929 . S
C86 C85 1.380 . S
C86 C87 1.399 . S
C87 C86 1.399 . S
C87 C88 1.376 . S
C87 H107 0.931 . S
C88 N83 1.338 . S
C88 C87 1.376 . S
C88 H99 0.930 . S
C89 O96 1.239 . S
C89 O97 1.230 . S
O90 Cd54 2.268 . S
O90 C64 1.238 . S
O91 Cd55 2.273 . S
O91 C64 1.253 . S
O92 Cd55 2.268 . S
O92 C81 1.238 . S
O93 Cd54 2.273 . S
O93 C81 1.253 . S
O94 Cd54 2.417 . S
O94 C82 1.239 . S
O95 Cd54 2.330 . S
O95 C82 1.230 . S
O96 Cd55 2.417 . S
O96 C89 1.239 . S
O97 Cd55 2.330 . S
O97 C89 1.230 . S
H98 C84 0.929 . S
H99 C88 0.930 . S
H100 C58 0.931 . S
H101 C60 0.930 . S
H102 C66 0.929 . S
H103 C68 0.931 . S
H104 C75 0.931 . S
H105 C77 0.930 . S
H106 C85 0.929 . S
H107 C87 0.931 . S
Cd108 N111 2.334 . S
Cd108 N137 2.304 . S
Cd108 O144 2.268 . S
Cd108 O147 2.273 . S
Cd108 O148 2.417 . S
Cd108 O149 2.330 . S
Cd109 N124 2.304 . S
Cd109 N128 2.334 . S
Cd109 O145 2.273 . S
Cd109 O146 2.268 . S
Cd109 O150 2.417 . S
Cd109 O151 2.330 . S
C110 N111 1.332 . S
C110 C114 1.381 . S
C110 H116 0.931 . S
N111 Cd108 2.334 . S
N111 C110 1.332 . S
N111 C115 1.328 . S
C112 C113 1.396 . S
C112 C115 1.378 . S
C112 H154 0.931 . S
C113 C112 1.396 . S
C113 C114 1.382 . S
C114 C110 1.381 . S
C114 C113 1.382 . S
C114 H155 0.930 . S
C115 N111 1.328 . S
C115 C112 1.378 . S
C115 H117 0.930 . S
H116 C110 0.931 . S
H117 C115 0.930 . S
C118 O144 1.238 . S
C118 O145 1.253 . S
C119 C120 1.379 . S
C119 N124 1.337 . S
C119 H125 0.929 . S
C120 C119 1.379 . S
C120 C121 1.380 . S
C120 H156 0.929 . S
C121 C120 1.380 . S
C121 C122 1.399 . S
C122 C121 1.399 . S
C122 C123 1.376 . S
C122 H157 0.931 . S
C123 C122 1.376 . S
C123 N124 1.338 . S
C123 H126 0.930 . S
N124 Cd109 2.304 . S
N124 C119 1.337 . S
N124 C123 1.338 . S
H125 C119 0.929 . S
H126 C123 0.930 . S
C127 N128 1.332 . S
C127 C131 1.381 . S
C127 H133 0.931 . S
N128 Cd109 2.334 . S
N128 C127 1.332 . S
N128 C132 1.328 . S
C129 C130 1.396 . S
C129 C132 1.378 . S
C129 H158 0.931 . S
C130 C129 1.396 . S
C130 C131 1.382 . S
C131 C127 1.381 . S
C131 C130 1.382 . S
C131 H159 0.930 . S
C132 N128 1.328 . S
C132 C129 1.378 . S
C132 H134 0.930 . S
H133 C127 0.931 . S
H134 C132 0.930 . S
C135 O146 1.238 . S
C135 O147 1.253 . S
C136 O148 1.239 . S
C136 O149 1.230 . S
N137 Cd108 2.304 . S
N137 C138 1.337 . S
N137 C142 1.338 . S
C138 N137 1.337 . S
C138 C139 1.379 . S
C138 H152 0.929 . S
C139 C138 1.379 . S
C139 C140 1.380 . S
C139 H160 0.929 . S
C140 C139 1.380 . S
C140 C141 1.399 . S
C141 C140 1.399 . S
C141 C142 1.376 . S
C141 H161 0.931 . S
C142 N137 1.338 . S
C142 C141 1.376 . S
C142 H153 0.930 . S
C143 O150 1.239 . S
C143 O151 1.230 . S
O144 Cd108 2.268 . S
O144 C118 1.238 . S
O145 Cd109 2.273 . S
O145 C118 1.253 . S
O146 Cd109 2.268 . S
O146 C135 1.238 . S
O147 Cd108 2.273 . S
O147 C135 1.253 . S
O148 Cd108 2.417 . S
O148 C136 1.239 . S
O149 Cd108 2.330 . S
O149 C136 1.230 . S
O150 Cd109 2.417 . S
O150 C143 1.239 . S
O151 Cd109 2.330 . S
O151 C143 1.230 . S
H152 C138 0.929 . S
H153 C142 0.930 . S
H154 C112 0.931 . S
H155 C114 0.930 . S
H156 C120 0.929 . S
H157 C122 0.931 . S
H158 C129 0.931 . S
H159 C131 0.930 . S
H160 C139 0.929 . S
H161 C141 0.931 . S
Cd162 N165 2.334 . S
Cd162 N191 2.304 . S
Cd162 O198 2.268 . S
Cd162 O201 2.273 . S
Cd162 O202 2.417 . S
Cd162 O203 2.330 . S
Cd163 N178 2.304 . S
Cd163 N182 2.334 . S
Cd163 O199 2.273 . S
Cd163 O200 2.268 . S
Cd163 O204 2.417 . S
Cd163 O205 2.330 . S
C164 N165 1.332 . S
C164 C168 1.381 . S
C164 H170 0.931 . S
N165 Cd162 2.334 . S
N165 C164 1.332 . S
N165 C169 1.328 . S
C166 C167 1.396 . S
C166 C169 1.378 . S
C166 H208 0.931 . S
C167 C166 1.396 . S
C167 C168 1.382 . S
C168 C164 1.381 . S
C168 C167 1.382 . S
C168 H209 0.930 . S
C169 N165 1.328 . S
C169 C166 1.378 . S
C169 H171 0.930 . S
H170 C164 0.931 . S
H171 C169 0.930 . S
C172 O198 1.238 . S
C172 O199 1.253 . S
C173 C174 1.379 . S
C173 N178 1.337 . S
C173 H179 0.929 . S
C174 C173 1.379 . S
C174 C175 1.380 . S
C174 H210 0.929 . S
C175 C174 1.380 . S
C175 C176 1.399 . S
C176 C175 1.399 . S
C176 C177 1.376 . S
C176 H211 0.931 . S
C177 C176 1.376 . S
C177 N178 1.338 . S
C177 H180 0.930 . S
N178 Cd163 2.304 . S
N178 C173 1.337 . S
N178 C177 1.338 . S
H179 C173 0.929 . S
H180 C177 0.930 . S
C181 N182 1.332 . S
C181 C185 1.381 . S
C181 H187 0.931 . S
N182 Cd163 2.334 . S
N182 C181 1.332 . S
N182 C186 1.328 . S
C183 C184 1.396 . S
C183 C186 1.378 . S
C183 H212 0.931 . S
C184 C183 1.396 . S
C184 C185 1.382 . S
C185 C181 1.381 . S
C185 C184 1.382 . S
C185 H213 0.930 . S
C186 N182 1.328 . S
C186 C183 1.378 . S
C186 H188 0.930 . S
H187 C181 0.931 . S
H188 C186 0.930 . S
C189 O200 1.238 . S
C189 O201 1.253 . S
C190 O202 1.239 . S
C190 O203 1.230 . S
N191 Cd162 2.304 . S
N191 C192 1.337 . S
N191 C196 1.338 . S
C192 N191 1.337 . S
C192 C193 1.379 . S
C192 H206 0.929 . S
C193 C192 1.379 . S
C193 C194 1.380 . S
C193 H214 0.929 . S
C194 C193 1.380 . S
C194 C195 1.399 . S
C195 C194 1.399 . S
C195 C196 1.376 . S
C195 H215 0.931 . S
C196 N191 1.338 . S
C196 C195 1.376 . S
C196 H207 0.930 . S
C197 O204 1.239 . S
C197 O205 1.230 . S
O198 Cd162 2.268 . S
O198 C172 1.238 . S
O199 Cd163 2.273 . S
O199 C172 1.253 . S
O200 Cd163 2.268 . S
O200 C189 1.238 . S
O201 Cd162 2.273 . S
O201 C189 1.253 . S
O202 Cd162 2.417 . S
O202 C190 1.239 . S
O203 Cd162 2.330 . S
O203 C190 1.230 . S
O204 Cd163 2.417 . S
O204 C197 1.239 . S
O205 Cd163 2.330 . S
O205 C197 1.230 . S
H206 C192 0.929 . S
H207 C196 0.930 . S
H208 C166 0.931 . S
H209 C168 0.930 . S
H210 C174 0.929 . S
H211 C176 0.931 . S
H212 C183 0.931 . S
H213 C185 0.930 . S
H214 C193 0.929 . S
H215 C195 0.931 . S
C216 C217 1.349 . S
C216 C218 1.327 . S
C216 H241 0.950 . S
C217 C216 1.349 . S
C217 C233 1.349 . S
C218 C216 1.327 . S
C218 C237 1.429 . S
C218 H242 0.950 . S
C219 C236 1.574 . S
C219 C238 1.368 . S
C219 H243 0.949 . S
H220 C224 0.949 . S
C221 C222 1.349 . S
C221 C223 1.327 . S
C221 H244 0.950 . S
C222 C221 1.349 . S
C222 C234 1.349 . S
C223 C221 1.327 . S
C223 C239 1.429 . S
C223 H245 0.950 . S
C224 H220 0.949 . S
C224 C232 1.574 . S
C224 C240 1.368 . S
H225 C233 0.950 . S
H226 C231 0.950 . S
H227 C232 0.949 . S
H228 C234 0.950 . S
H229 C235 0.950 . S
H230 C236 0.949 . S
C231 H226 0.950 . S
C231 C233 1.327 . S
C231 C237 1.429 . S
C232 C224 1.574 . S
C232 H227 0.949 . S
C232 C238 1.368 . S
C233 C217 1.349 . S
C233 H225 0.950 . S
C233 C231 1.327 . S
C234 C222 1.349 . S
C234 H228 0.950 . S
C234 C235 1.327 . S
C235 H229 0.950 . S
C235 C234 1.327 . S
C235 C239 1.429 . S
C236 C219 1.574 . S
C236 H230 0.949 . S
C236 C240 1.368 . S
C237 C218 1.429 . S
C237 C231 1.429 . S
C237 C238 1.523 . S
C238 C219 1.368 . S
C238 C232 1.368 . S
C238 C237 1.523 . S
C239 C223 1.429 . S
C239 C235 1.429 . S
C239 C240 1.523 . S
C240 C224 1.368 . S
C240 C236 1.368 . S
C240 C239 1.523 . S
H241 C216 0.950 . S
H242 C218 0.950 . S
H243 C219 0.949 . S
H244 C221 0.950 . S
H245 C223 0.950 . S
C246 C247 1.349 . S
C246 C248 1.327 . S
C246 H271 0.950 . S
C247 C246 1.349 . S
C247 C263 1.349 . S
C248 C246 1.327 . S
C248 C267 1.429 . S
C248 H272 0.950 . S
C249 C266 1.574 . S
C249 C268 1.368 . S
C249 H273 0.949 . S
H250 C254 0.949 . S
C251 C252 1.349 1_556 S
C251 C253 1.327 . S
C251 H274 0.950 . S
C252 C251 1.349 1_554 S
C252 C264 1.349 1_554 S
C253 C251 1.327 . S
C253 C269 1.429 . S
C253 H275 0.950 . S
C254 H250 0.949 . S
C254 C262 1.574 . S
C254 C270 1.368 . S
H255 C263 0.950 . S
H256 C261 0.950 . S
H257 C262 0.949 . S
H258 C264 0.950 . S
H259 C265 0.950 . S
H260 C266 0.949 . S
C261 H256 0.950 . S
C261 C263 1.327 . S
C261 C267 1.429 . S
C262 C254 1.574 . S
C262 H257 0.949 . S
C262 C268 1.368 . S
C263 C247 1.349 . S
C263 H255 0.950 . S
C263 C261 1.327 . S
C264 C252 1.349 1_556 S
C264 H258 0.950 . S
C264 C265 1.327 . S
C265 H259 0.950 . S
C265 C264 1.327 . S
C265 C269 1.429 . S
C266 C249 1.574 . S
C266 H260 0.949 . S
C266 C270 1.368 . S
C267 C248 1.429 . S
C267 C261 1.429 . S
C267 C268 1.523 . S
C268 C249 1.368 . S
C268 C262 1.368 . S
C268 C267 1.523 . S
C269 C253 1.429 . S
C269 C265 1.429 . S
C269 C270 1.523 . S
C270 C254 1.368 . S
C270 C266 1.368 . S
C270 C269 1.523 . S
H271 C246 0.950 . S
H272 C248 0.950 . S
H273 C249 0.949 . S
H274 C251 0.950 . S
H275 C253 0.950 . S
C276 C277 1.349 . S
C276 C278 1.327 . S
C276 H301 0.950 . S
C277 C276 1.349 . S
C277 C293 1.349 . S
C278 C276 1.327 . S
C278 C297 1.429 . S
C278 H302 0.950 . S
C279 C296 1.574 1_556 S
C279 C298 1.368 . S
C279 H303 0.949 . S
H280 C284 0.949 . S
C281 C282 1.349 . S
C281 C283 1.327 . S
C281 H304 0.950 . S
C282 C281 1.349 . S
C282 C294 1.349 . S
C283 C281 1.327 . S
C283 C299 1.429 . S
C283 H305 0.950 . S
C284 H280 0.949 . S
C284 C292 1.574 1_554 S
C284 C300 1.368 . S
H285 C293 0.950 . S
H286 C291 0.950 . S
H287 C292 0.949 . S
H288 C294 0.950 . S
H289 C295 0.950 . S
H290 C296 0.949 . S
C291 H286 0.950 . S
C291 C293 1.327 . S
C291 C297 1.429 . S
C292 C284 1.574 1_556 S
C292 H287 0.949 . S
C292 C298 1.368 . S
C293 C277 1.349 . S
C293 H285 0.950 . S
C293 C291 1.327 . S
C294 C282 1.349 . S
C294 H288 0.950 . S
C294 C295 1.327 . S
C295 H289 0.950 . S
C295 C294 1.327 . S
C295 C299 1.429 . S
C296 C279 1.574 1_554 S
C296 H290 0.949 . S
C296 C300 1.368 . S
C297 C278 1.429 . S
C297 C291 1.429 . S
C297 C298 1.523 . S
C298 C279 1.368 . S
C298 C292 1.368 . S
C298 C297 1.523 . S
C299 C283 1.429 . S
C299 C295 1.429 . S
C299 C300 1.523 . S
C300 C284 1.368 . S
C300 C296 1.368 . S
C300 C299 1.523 . S
H301 C276 0.950 . S
H302 C278 0.950 . S
H303 C279 0.949 . S
H304 C281 0.950 . S
H305 C283 0.950 . S
C306 C307 1.349 1_554 S
C306 C308 1.327 . S
C306 H331 0.950 . S
C307 C306 1.349 1_556 S
C307 C323 1.349 1_556 S
C308 C306 1.327 . S
C308 C327 1.429 . S
C308 H332 0.950 . S
C309 C326 1.574 . S
C309 C328 1.368 . S
C309 H333 0.949 . S
H310 C314 0.949 . S
C311 C312 1.349 . S
C311 C313 1.327 . S
C311 H334 0.950 . S
C312 C311 1.349 . S
C312 C324 1.349 . S
C313 C311 1.327 . S
C313 C329 1.429 . S
C313 H335 0.950 . S
C314 H310 0.949 . S
C314 C322 1.574 . S
C314 C330 1.368 . S
H315 C323 0.950 . S
H316 C321 0.950 . S
H317 C322 0.949 . S
H318 C324 0.950 . S
H319 C325 0.950 . S
H320 C326 0.949 . S
C321 H316 0.950 . S
C321 C323 1.327 . S
C321 C327 1.429 . S
C322 C314 1.574 . S
C322 H317 0.949 . S
C322 C328 1.368 . S
C323 C307 1.349 1_554 S
C323 H315 0.950 . S
C323 C321 1.327 . S
C324 C312 1.349 . S
C324 H318 0.950 . S
C324 C325 1.327 . S
C325 H319 0.950 . S
C325 C324 1.327 . S
C325 C329 1.429 . S
C326 C309 1.574 . S
C326 H320 0.949 . S
C326 C330 1.368 . S
C327 C308 1.429 . S
C327 C321 1.429 . S
C327 C328 1.523 . S
C328 C309 1.368 . S
C328 C322 1.368 . S
C328 C327 1.523 . S
C329 C313 1.429 . S
C329 C325 1.429 . S
C329 C330 1.523 . S
C330 C314 1.368 . S
C330 C326 1.368 . S
C330 C329 1.523 . S
H331 C306 0.950 . S
H332 C308 0.950 . S
H333 C309 0.949 . S
H334 C311 0.950 . S
H335 C313 0.950 . S
C336 C337 1.349 . S
C336 C338 1.327 . S
C336 H361 0.950 . S
C337 C336 1.349 . S
C337 C353 1.349 . S
C338 C336 1.327 . S
C338 C357 1.429 . S
C338 H362 0.950 . S
C339 C356 1.574 . S
C339 C358 1.368 . S
C339 H363 0.949 . S
H340 C344 0.949 . S
C341 C342 1.349 . S
C341 C343 1.327 . S
C341 H364 0.950 . S
C342 C341 1.349 . S
C342 C354 1.349 . S
C343 C341 1.327 . S
C343 C359 1.429 . S
C343 H365 0.950 . S
C344 H340 0.949 . S
C344 C352 1.574 . S
C344 C360 1.368 . S
H345 C353 0.950 . S
H346 C351 0.950 . S
H347 C352 0.949 . S
H348 C354 0.950 . S
H349 C355 0.950 . S
H350 C356 0.949 . S
C351 H346 0.950 . S
C351 C353 1.327 . S
C351 C357 1.429 . S
C352 C344 1.574 . S
C352 H347 0.949 . S
C352 C358 1.368 . S
C353 C337 1.349 . S
C353 H345 0.950 . S
C353 C351 1.327 . S
C354 C342 1.349 . S
C354 H348 0.950 . S
C354 C355 1.327 . S
C355 H349 0.950 . S
C355 C354 1.327 . S
C355 C359 1.429 . S
C356 C339 1.574 . S
C356 H350 0.949 . S
C356 C360 1.368 . S
C357 C338 1.429 . S
C357 C351 1.429 . S
C357 C358 1.523 . S
C358 C339 1.368 . S
C358 C352 1.368 . S
C358 C357 1.523 . S
C359 C343 1.429 . S
C359 C355 1.429 . S
C359 C360 1.523 . S
C360 C344 1.368 . S
C360 C356 1.368 . S
C360 C359 1.523 . S
H361 C336 0.950 . S
H362 C338 0.950 . S
H363 C339 0.949 . S
H364 C341 0.950 . S
H365 C343 0.950 . S
C366 C367 1.349 . S
C366 C368 1.327 . S
C366 H391 0.950 . S
C367 C366 1.349 . S
C367 C383 1.349 . S
C368 C366 1.327 . S
C368 C387 1.429 . S
C368 H392 0.950 . S
C369 C386 1.574 . S
C369 C388 1.368 . S
C369 H393 0.949 . S
H370 C374 0.949 . S
C371 C372 1.349 . S
C371 C373 1.327 . S
C371 H394 0.950 1_554 S
C372 C371 1.349 . S
C372 C384 1.349 . S
C373 C371 1.327 . S
C373 C389 1.429 . S
C373 H395 0.950 1_564 S
C374 H370 0.949 . S
C374 C382 1.574 . S
C374 C390 1.368 . S
H375 C383 0.950 . S
H376 C381 0.950 . S
H377 C382 0.949 . S
H378 C384 0.950 . S
H379 C385 0.950 . S
H380 C386 0.949 . S
C381 H376 0.950 . S
C381 C383 1.327 . S
C381 C387 1.429 . S
C382 C374 1.574 . S
C382 H377 0.949 . S
C382 C388 1.368 . S
C383 C367 1.349 . S
C383 H375 0.950 . S
C383 C381 1.327 . S
C384 C372 1.349 . S
C384 H378 0.950 . S
C384 C385 1.327 . S
C385 H379 0.950 . S
C385 C384 1.327 . S
C385 C389 1.429 . S
C386 C369 1.574 . S
C386 H380 0.949 . S
C386 C390 1.368 . S
C387 C368 1.429 . S
C387 C381 1.429 . S
C387 C388 1.523 . S
C388 C369 1.368 . S
C388 C382 1.368 . S
C388 C387 1.523 . S
C389 C373 1.429 . S
C389 C385 1.429 . S
C389 C390 1.523 1_565 S
C390 C374 1.368 . S
C390 C386 1.368 . S
C390 C389 1.523 1_545 S
H391 C366 0.950 . S
H392 C368 0.950 . S
H393 C369 0.949 . S
H394 C371 0.950 1_556 S
H395 C373 0.950 1_546 S
C396 C397 1.349 . S
C396 C398 1.327 . S
C396 H421 0.950 . S
C397 C396 1.349 . S
C397 C413 1.349 . S
C398 C396 1.327 . S
C398 C417 1.429 . S
C398 H422 0.950 . S
C399 C416 1.574 . S
C399 C418 1.368 . S
C399 H423 0.949 . S
H400 C404 0.949 . S
C401 C402 1.349 . S
C401 C403 1.327 . S
C401 H424 0.950 . S
C402 C401 1.349 . S
C402 C414 1.349 . S
C403 C401 1.327 . S
C403 C419 1.429 . S
C403 H425 0.950 . S
C404 H400 0.949 . S
C404 C412 1.574 . S
C404 C420 1.368 . S
H405 C413 0.950 . S
H406 C411 0.950 . S
H407 C412 0.949 . S
H408 C414 0.950 . S
H409 C415 0.950 . S
H410 C416 0.949 . S
C411 H406 0.950 . S
C411 C413 1.327 . S
C411 C417 1.429 . S
C412 C404 1.574 . S
C412 H407 0.949 . S
C412 C418 1.368 . S
C413 C397 1.349 . S
C413 H405 0.950 . S
C413 C411 1.327 . S
C414 C402 1.349 . S
C414 H408 0.950 . S
C414 C415 1.327 . S
C415 H409 0.950 . S
C415 C414 1.327 . S
C415 C419 1.429 . S
C416 C399 1.574 . S
C416 H410 0.949 . S
C416 C420 1.368 . S
C417 C398 1.429 . S
C417 C411 1.429 . S
C417 C418 1.523 . S
C418 C399 1.368 . S
C418 C412 1.368 . S
C418 C417 1.523 . S
C419 C403 1.429 . S
C419 C415 1.429 . S
C419 C420 1.523 . S
C420 C404 1.368 . S
C420 C416 1.368 . S
C420 C419 1.523 . S
H421 C396 0.950 . S
H422 C398 0.950 . S
H423 C399 0.949 . S
H424 C401 0.950 . S
H425 C403 0.950 . S
C426 C427 1.349 . S
C426 C428 1.327 . S
C426 H451 0.950 . S
C427 C426 1.349 . S
C427 C443 1.349 . S
C428 C426 1.327 . S
C428 C447 1.429 . S
C428 H452 0.950 . S
C429 C446 1.574 . S
C429 C448 1.368 . S
C429 H453 0.949 . S
H430 C434 0.949 . S
C431 C432 1.349 . S
C431 C433 1.327 . S
C431 H454 0.950 . S
C432 C431 1.349 . S
C432 C444 1.349 . S
C433 C431 1.327 . S
C433 C449 1.429 . S
C433 H455 0.950 . S
C434 H430 0.949 . S
C434 C442 1.574 . S
C434 C450 1.368 . S
H435 C443 0.950 . S
H436 C441 0.950 . S
H437 C442 0.949 . S
H438 C444 0.950 . S
H439 C445 0.950 1_565 S
H440 C446 0.949 . S
C441 H436 0.950 . S
C441 C443 1.327 . S
C441 C447 1.429 . S
C442 C434 1.574 . S
C442 H437 0.949 . S
C442 C448 1.368 . S
C443 C427 1.349 . S
C443 H435 0.950 . S
C443 C441 1.327 . S
C444 C432 1.349 . S
C444 H438 0.950 . S
C444 C445 1.327 . S
C445 H439 0.950 1_545 S
C445 C444 1.327 . S
C445 C449 1.429 . S
C446 C429 1.574 . S
C446 H440 0.949 . S
C446 C450 1.368 . S
C447 C428 1.429 . S
C447 C441 1.429 . S
C447 C448 1.523 . S
C448 C429 1.368 . S
C448 C442 1.368 . S
C448 C447 1.523 . S
C449 C433 1.429 . S
C449 C445 1.429 . S
C449 C450 1.523 1_545 S
C450 C434 1.368 . S
C450 C446 1.368 . S
C450 C449 1.523 1_565 S
H451 C426 0.950 . S
H452 C428 0.950 . S
H453 C429 0.949 . S
H454 C431 0.950 . S
H455 C433 0.950 . S
C456 C457 1.349 . S
C456 C458 1.327 . S
C456 H481 0.950 . S
C457 C456 1.349 . S
C457 C473 1.349 . S
C458 C456 1.327 . S
C458 C477 1.429 . S
C458 H482 0.950 . S
C459 C476 1.574 . S
C459 C478 1.368 . S
C459 H483 0.949 . S
H460 C464 0.949 . S
C461 C462 1.349 . S
C461 C463 1.327 . S
C461 H484 0.950 . S
C462 C461 1.349 . S
C462 C474 1.349 . S
C463 C461 1.327 . S
C463 C479 1.429 . S
C463 H485 0.950 . S
C464 H460 0.949 . S
C464 C472 1.574 . S
C464 C480 1.368 . S
H465 C473 0.950 . S
H466 C471 0.950 . S
H467 C472 0.949 . S
H468 C474 0.950 . S
H469 C475 0.950 . S
H470 C476 0.949 . S
C471 H466 0.950 . S
C471 C473 1.327 . S
C471 C477 1.429 . S
C472 C464 1.574 . S
C472 H467 0.949 . S
C472 C478 1.368 . S
C473 C457 1.349 . S
C473 H465 0.950 . S
C473 C471 1.327 . S
C474 C462 1.349 . S
C474 H468 0.950 . S
C474 C475 1.327 . S
C475 H469 0.950 . S
C475 C474 1.327 . S
C475 C479 1.429 . S
C476 C459 1.574 . S
C476 H470 0.949 . S
C476 C480 1.368 . S
C477 C458 1.429 . S
C477 C471 1.429 . S
C477 C478 1.523 1_655 S
C478 C459 1.368 . S
C478 C472 1.368 . S
C478 C477 1.523 1_455 S
C479 C463 1.429 . S
C479 C475 1.429 . S
C479 C480 1.523 . S
C480 C464 1.368 . S
C480 C476 1.368 . S
C480 C479 1.523 . S
H481 C456 0.950 . S
H482 C458 0.950 . S
H483 C459 0.949 . S
H484 C461 0.950 . S
H485 C463 0.950 . S
C486 C487 1.349 . S
C486 C488 1.327 . S
C486 H511 0.950 . S
C487 C486 1.349 . S
C487 C503 1.349 . S
C488 C486 1.327 . S
C488 C507 1.429 . S
C488 H512 0.950 . S
C489 C506 1.574 . S
C489 C508 1.368 . S
C489 H513 0.949 . S
H490 C494 0.949 . S
C491 C492 1.349 . S
C491 C493 1.327 . S
C491 H514 0.950 . S
C492 C491 1.349 . S
C492 C504 1.349 . S
C493 C491 1.327 . S
C493 C509 1.429 . S
C493 H515 0.950 . S
C494 H490 0.949 . S
C494 C502 1.574 . S
C494 C510 1.368 . S
H495 C503 0.950 . S
H496 C501 0.950 . S
H497 C502 0.949 . S
H498 C504 0.950 . S
H499 C505 0.950 . S
H500 C506 0.949 . S
C501 H496 0.950 . S
C501 C503 1.327 . S
C501 C507 1.429 . S
C502 C494 1.574 . S
C502 H497 0.949 . S
C502 C508 1.368 . S
C503 C487 1.349 . S
C503 H495 0.950 . S
C503 C501 1.327 . S
C504 C492 1.349 . S
C504 H498 0.950 . S
C504 C505 1.327 . S
C505 H499 0.950 . S
C505 C504 1.327 . S
C505 C509 1.429 . S
C506 C489 1.574 . S
C506 H500 0.949 . S
C506 C510 1.368 . S
C507 C488 1.429 . S
C507 C501 1.429 . S
C507 C508 1.523 . S
C508 C489 1.368 . S
C508 C502 1.368 . S
C508 C507 1.523 . S
C509 C493 1.429 . S
C509 C505 1.429 . S
C509 C510 1.523 . S
C510 C494 1.368 . S
C510 C506 1.368 . S
C510 C509 1.523 . S
H511 C486 0.950 . S
H512 C488 0.950 . S
H513 C489 0.949 . S
H514 C491 0.950 . S
H515 C493 0.950 . S
C516 C517 1.349 . S
C516 C518 1.327 . S
C516 H541 0.950 . S
C517 C516 1.349 . S
C517 C533 1.349 . S
C518 C516 1.327 . S
C518 C537 1.429 . S
C518 H542 0.950 . S
C519 C536 1.574 . S
C519 C538 1.368 . S
C519 H543 0.949 . S
H520 C524 0.949 . S
C521 C522 1.349 . S
C521 C523 1.327 . S
C521 H544 0.950 . S
C522 C521 1.349 . S
C522 C534 1.349 . S
C523 C521 1.327 . S
C523 C539 1.429 . S
C523 H545 0.950 1_455 S
C524 H520 0.949 . S
C524 C532 1.574 . S
C524 C540 1.368 . S
H525 C533 0.950 . S
H526 C531 0.950 . S
H527 C532 0.949 . S
H528 C534 0.950 . S
H529 C535 0.950 . S
H530 C536 0.949 . S
C531 H526 0.950 . S
C531 C533 1.327 . S
C531 C537 1.429 . S
C532 C524 1.574 . S
C532 H527 0.949 . S
C532 C538 1.368 . S
C533 C517 1.349 . S
C533 H525 0.950 . S
C533 C531 1.327 . S
C534 C522 1.349 . S
C534 H528 0.950 . S
C534 C535 1.327 . S
C535 H529 0.950 . S
C535 C534 1.327 . S
C535 C539 1.429 . S
C536 C519 1.574 . S
C536 H530 0.949 . S
C536 C540 1.368 . S
C537 C518 1.429 . S
C537 C531 1.429 . S
C537 C538 1.523 . S
C538 C519 1.368 . S
C538 C532 1.368 . S
C538 C537 1.523 . S
C539 C523 1.429 . S
C539 C535 1.429 . S
C539 C540 1.523 1_455 S
C540 C524 1.368 . S
C540 C536 1.368 . S
C540 C539 1.523 1_655 S
H541 C516 0.950 . S
H542 C518 0.950 . S
H543 C519 0.949 . S
H544 C521 0.950 . S
H545 C523 0.950 1_655 S
C546 C547 1.349 . S
C546 C548 1.327 . S
C546 H571 0.950 . S
C547 C546 1.349 . S
C547 C563 1.349 . S
C548 C546 1.327 . S
C548 C567 1.429 . S
C548 H572 0.950 . S
C549 C566 1.574 . S
C549 C568 1.368 . S
C549 H573 0.949 . S
H550 C554 0.949 . S
C551 C552 1.349 . S
C551 C553 1.327 . S
C551 H574 0.950 . S
C552 C551 1.349 . S
C552 C564 1.349 . S
C553 C551 1.327 . S
C553 C569 1.429 . S
C553 H575 0.950 . S
C554 H550 0.949 . S
C554 C562 1.574 . S
C554 C570 1.368 . S
H555 C563 0.950 . S
H556 C561 0.950 . S
H557 C562 0.949 . S
H558 C564 0.950 . S
H559 C565 0.950 . S
H560 C566 0.949 . S
C561 H556 0.950 . S
C561 C563 1.327 . S
C561 C567 1.429 . S
C562 C554 1.574 . S
C562 H557 0.949 . S
C562 C568 1.368 . S
C563 C547 1.349 . S
C563 H555 0.950 . S
C563 C561 1.327 . S
C564 C552 1.349 . S
C564 H558 0.950 . S
C564 C565 1.327 . S
C565 H559 0.950 . S
C565 C564 1.327 . S
C565 C569 1.429 . S
C566 C549 1.574 . S
C566 H560 0.949 . S
C566 C570 1.368 . S
C567 C548 1.429 . S
C567 C561 1.429 . S
C567 C568 1.523 . S
C568 C549 1.368 . S
C568 C562 1.368 . S
C568 C567 1.523 . S
C569 C553 1.429 . S
C569 C565 1.429 . S
C569 C570 1.523 . S
C570 C554 1.368 . S
C570 C566 1.368 . S
C570 C569 1.523 . S
H571 C546 0.950 . S
H572 C548 0.950 . S
H573 C549 0.949 . S
H574 C551 0.950 . S
H575 C553 0.950 . S
C576 C577 1.349 . S
C576 C578 1.327 . S
C576 H601 0.950 . S
C577 C576 1.349 . S
C577 C593 1.349 . S
C578 C576 1.327 . S
C578 C597 1.429 . S
C578 H602 0.950 . S
C579 C596 1.574 1_455 S
C579 C598 1.367 1_565 S
C579 H603 0.949 1_455 S
H580 C584 0.949 . S
C581 C582 1.349 . S
C581 C583 1.327 . S
C581 H604 0.950 . S
C582 C581 1.349 . S
C582 C594 1.349 . S
C583 C581 1.327 . S
C583 C599 1.429 . S
C583 H605 0.950 . S
C584 H580 0.949 . S
C584 C592 1.574 1_565 S
C584 C600 1.368 1_455 S
H585 C593 0.950 . S
H586 C591 0.950 . S
H587 C592 0.949 . S
H588 C594 0.950 . S
H589 C595 0.952 . S
H590 C596 0.949 . S
C591 H586 0.950 . S
C591 C593 1.327 . S
C591 C597 1.429 . S
C592 C584 1.574 1_545 S
C592 H587 0.949 . S
C592 C598 1.368 . S
C593 C577 1.349 . S
C593 H585 0.950 . S
C593 C591 1.327 . S
C594 C582 1.349 . S
C594 H588 0.950 . S
C594 C595 1.327 . S
C595 H589 0.952 . S
C595 C594 1.327 . S
C595 C599 1.429 . S
C596 C579 1.574 1_655 S
C596 H590 0.949 . S
C596 C600 1.368 . S
C597 C578 1.429 . S
C597 C591 1.429 . S
C597 C598 1.523 . S
C598 C579 1.367 1_545 S
C598 C592 1.368 . S
C598 C597 1.523 . S
C599 C583 1.429 . S
C599 C595 1.429 . S
C599 C600 1.523 . S
C600 C584 1.368 1_655 S
C600 C596 1.368 . S
C600 C599 1.523 . S
H601 C576 0.950 . S
H602 C578 0.950 . S
H603 C579 0.949 1_655 S
H604 C581 0.950 . S
H605 C583 0.950 . S
C606 C607 1.349 . S
C606 C608 1.327 . S
C606 H631 0.950 . S
C607 C606 1.349 . S
C607 C623 1.349 . S
C608 C606 1.327 . S
C608 C627 1.429 . S
C608 H632 0.950 . S
C609 C626 1.574 . S
C609 C628 1.368 . S
C609 H633 0.949 . S
H610 C614 0.949 . S
C611 C612 1.349 . S
C611 C613 1.327 . S
C611 H634 0.950 . S
C612 C611 1.349 . S
C612 C624 1.349 . S
C613 C611 1.327 . S
C613 C629 1.429 . S
C613 H635 0.950 . S
C614 H610 0.949 . S
C614 C622 1.574 . S
C614 C630 1.368 . S
H615 C623 0.950 . S
H616 C621 0.950 . S
H617 C622 0.949 . S
H618 C624 0.950 . S
H619 C625 0.950 . S
H620 C626 0.949 . S
C621 H616 0.950 . S
C621 C623 1.327 . S
C621 C627 1.429 . S
C622 C614 1.574 . S
C622 H617 0.949 . S
C622 C628 1.368 . S
C623 C607 1.349 . S
C623 H615 0.950 . S
C623 C621 1.327 . S
C624 C612 1.349 . S
C624 H618 0.950 . S
C624 C625 1.327 . S
C625 H619 0.950 . S
C625 C624 1.327 . S
C625 C629 1.429 . S
C626 C609 1.574 . S
C626 H620 0.949 . S
C626 C630 1.368 . S
C627 C608 1.429 . S
C627 C621 1.429 . S
C627 C628 1.523 . S
C628 C609 1.368 . S
C628 C622 1.368 . S
C628 C627 1.523 . S
C629 C613 1.429 . S
C629 C625 1.429 . S
C629 C630 1.523 . S
C630 C614 1.368 . S
C630 C626 1.368 . S
C630 C629 1.523 . S
H631 C606 0.950 . S
H632 C608 0.950 . S
H633 C609 0.949 . S
H634 C611 0.950 . S
H635 C613 0.950 . S
C636 C637 1.349 . S
C636 C638 1.327 . S
C636 H661 0.950 . S
C637 C636 1.349 . S
C637 C653 1.349 . S
C638 C636 1.327 . S
C638 C657 1.429 . S
C638 H662 0.950 . S
C639 C656 1.574 . S
C639 C658 1.368 1_655 S
C639 H663 0.949 . S
H640 C644 0.949 . S
C641 C642 1.349 . S
C641 C643 1.327 . S
C641 H664 0.950 . S
C642 C641 1.349 . S
C642 C654 1.349 . S
C643 C641 1.327 . S
C643 C659 1.429 . S
C643 H665 0.950 1_565 S
C644 H640 0.949 . S
C644 C652 1.574 1_655 S
C644 C660 1.368 . S
H645 C653 0.950 . S
H646 C651 0.950 . S
H647 C652 0.949 . S
H648 C654 0.950 . S
H649 C655 0.950 . S
H650 C656 0.949 . S
C651 H646 0.950 . S
C651 C653 1.327 . S
C651 C657 1.429 . S
C652 C644 1.574 1_455 S
C652 H647 0.949 . S
C652 C658 1.368 1_565 S
C653 C637 1.349 . S
C653 H645 0.950 . S
C653 C651 1.327 . S
C654 C642 1.349 . S
C654 H648 0.950 . S
C654 C655 1.327 . S
C655 H649 0.950 . S
C655 C654 1.327 . S
C655 C659 1.429 . S
C656 C639 1.574 . S
C656 H650 0.949 . S
C656 C660 1.368 1_545 S
C657 C638 1.429 . S
C657 C651 1.429 . S
C657 C658 1.523 . S
C658 C639 1.368 1_455 S
C658 C652 1.368 1_545 S
C658 C657 1.523 . S
C659 C643 1.429 . S
C659 C655 1.429 . S
C659 C660 1.523 . S
C660 C644 1.368 . S
C660 C656 1.368 1_565 S
C660 C659 1.523 . S
H661 C636 0.950 . S
H662 C638 0.950 . S
H663 C639 0.949 . S
H664 C641 0.950 . S
H665 C643 0.950 1_545 S
C666 C667 1.349 . S
C666 C668 1.327 . S
C666 H691 0.950 . S
C667 C666 1.349 . S
C667 C683 1.349 . S
C668 C666 1.327 . S
C668 C687 1.429 . S
C668 H692 0.950 . S
C669 C686 1.574 1_554 S
C669 C688 1.368 . S
C669 H693 0.949 . S
H670 C674 0.949 . S
C671 C672 1.349 . S
C671 C673 1.327 . S
C671 H694 0.950 . S
C672 C671 1.349 . S
C672 C684 1.349 . S
C673 C671 1.327 . S
C673 C689 1.429 . S
C673 H695 0.950 . S
C674 H670 0.949 . S
C674 C682 1.574 1_556 S
C674 C690 1.368 . S
H675 C683 0.950 . S
H676 C681 0.950 . S
H677 C682 0.949 . S
H678 C684 0.950 . S
H679 C685 0.950 . S
H680 C686 0.949 . S
C681 H676 0.950 . S
C681 C683 1.327 . S
C681 C687 1.429 . S
C682 C674 1.574 1_554 S
C682 H677 0.949 . S
C682 C688 1.368 . S
C683 C667 1.349 . S
C683 H675 0.950 . S
C683 C681 1.327 . S
C684 C672 1.349 . S
C684 H678 0.950 . S
C684 C685 1.327 . S
C685 H679 0.950 . S
C685 C684 1.327 . S
C685 C689 1.429 . S
C686 C669 1.574 1_556 S
C686 H680 0.949 . S
C686 C690 1.368 . S
C687 C668 1.429 . S
C687 C681 1.429 . S
C687 C688 1.523 . S
C688 C669 1.368 . S
C688 C682 1.368 . S
C688 C687 1.523 . S
C689 C673 1.429 . S
C689 C685 1.429 . S
C689 C690 1.523 . S
C690 C674 1.368 . S
C690 C686 1.368 . S
C690 C689 1.523 . S
H691 C666 0.950 . S
H692 C668 0.950 . S
H693 C669 0.949 . S
H694 C671 0.950 . S
H695 C673 0.950 . S
C217 C28 0.796 . S
C222 C35 0.796 . S
C247 C82 0.796 . S
C252 C89 0.796 . S
C277 C143 0.796 . S
C282 C136 0.796 . S
C307 C197 0.796 . S
C312 C190 0.796 . S
C337 C189 2.348 . S
C342 C22 2.340 . S
C367 C76 2.340 . S
C372 C10 2.348 . S
C397 C113 2.340 . S
C402 C64 2.348 . S
C427 C167 2.340 . S
C432 C135 2.348 . S
C457 C27 2.348 . S
C462 C184 2.340 . S
C487 C81 2.348 . S
C492 C5 2.340 . S
C517 C59 2.340 . S
C522 C118 2.348 . S
C547 C130 2.340 . S
C552 C172 2.348 . S
C577 C140 0.566 . S
C582 C32 0.567 . S
C607 C86 0.566 . S
C612 C194 0.566 . S
C637 C121 0.566 . S
C642 C13 0.565 . S
C667 C67 0.566 . S
C672 C175 0.566 . S
