# Generated by pormake.
# Topology wjf, (4)-cn, num edge types: 1
# Building blocks:
#     Node 0, Type 0, BuildingBlock: QUQFOY_clean_sbu_3, # of connection points: 4
#     Node 1, Type 0, BuildingBlock: QUQFOY_clean_sbu_3, # of connection points: 4
#     Node 2, Type 0, BuildingBlock: QUQFOY_clean_sbu_3, # of connection points: 4
#     Node 3, Type 0, BuildingBlock: QUQFOY_clean_sbu_3, # of connection points: 4
#     Node 4, Type 0, BuildingBlock: QUQFOY_clean_sbu_3, # of connection points: 4
#     Node 5, Type 0, BuildingBlock: QUQFOY_clean_sbu_3, # of connection points: 4
#     Node 6, Type 0, BuildingBlock: QUQFOY_clean_sbu_3, # of connection points: 4
#     Node 7, Type 0, BuildingBlock: QUQFOY_clean_sbu_3, # of connection points: 4
#     Node 8, Type 0, BuildingBlock: QUQFOY_clean_sbu_3, # of connection points: 4
#     Node 9, Type 0, BuildingBlock: QUQFOY_clean_sbu_3, # of connection points: 4
#     Node 10, Type 0, BuildingBlock: QUQFOY_clean_sbu_3, # of connection points: 4
#     Node 11, Type 0, BuildingBlock: QUQFOY_clean_sbu_3, # of connection points: 4
#     Edge 12, Type (0, 0), BuildingBlock: AJUNOK_clean_linker_0, # of connection points: 2
#     Edge 13, Type (0, 0), BuildingBlock: AJUNOK_clean_linker_0, # of connection points: 2
#     Edge 14, Type (0, 0), BuildingBlock: AJUNOK_clean_linker_0, # of connection points: 2
#     Edge 15, Type (0, 0), BuildingBlock: AJUNOK_clean_linker_0, # of connection points: 2
#     Edge 16, Type (0, 0), BuildingBlock: AJUNOK_clean_linker_0, # of connection points: 2
#     Edge 17, Type (0, 0), BuildingBlock: AJUNOK_clean_linker_0, # of connection points: 2
#     Edge 18, Type (0, 0), BuildingBlock: AJUNOK_clean_linker_0, # of connection points: 2
#     Edge 19, Type (0, 0), BuildingBlock: AJUNOK_clean_linker_0, # of connection points: 2
#     Edge 20, Type (0, 0), BuildingBlock: AJUNOK_clean_linker_0, # of connection points: 2
#     Edge 21, Type (0, 0), BuildingBlock: AJUNOK_clean_linker_0, # of connection points: 2
#     Edge 22, Type (0, 0), BuildingBlock: AJUNOK_clean_linker_0, # of connection points: 2
#     Edge 23, Type (0, 0), BuildingBlock: AJUNOK_clean_linker_0, # of connection points: 2
#     Edge 24, Type (0, 0), BuildingBlock: AJUNOK_clean_linker_0, # of connection points: 2
#     Edge 25, Type (0, 0), BuildingBlock: AJUNOK_clean_linker_0, # of connection points: 2
#     Edge 26, Type (0, 0), BuildingBlock: AJUNOK_clean_linker_0, # of connection points: 2
#     Edge 27, Type (0, 0), BuildingBlock: AJUNOK_clean_linker_0, # of connection points: 2
#     Edge 28, Type (0, 0), BuildingBlock: AJUNOK_clean_linker_0, # of connection points: 2
#     Edge 29, Type (0, 0), BuildingBlock: AJUNOK_clean_linker_0, # of connection points: 2
#     Edge 30, Type (0, 0), BuildingBlock: AJUNOK_clean_linker_0, # of connection points: 2
#     Edge 31, Type (0, 0), BuildingBlock: AJUNOK_clean_linker_0, # of connection points: 2
#     Edge 32, Type (0, 0), BuildingBlock: AJUNOK_clean_linker_0, # of connection points: 2
#     Edge 33, Type (0, 0), BuildingBlock: AJUNOK_clean_linker_0, # of connection points: 2
#     Edge 34, Type (0, 0), BuildingBlock: AJUNOK_clean_linker_0, # of connection points: 2
#     Edge 35, Type (0, 0), BuildingBlock: AJUNOK_clean_linker_0, # of connection points: 2
# Relax obj value: 0.102
# Max RMSD: 0.135
# Mean RMSD: 0.135
data_MOF--net-wjf--node1-QUQFOY_clean_sbu_3--edge1-AJUNOK_clean_linker_0
_symmetry_space_group_name_H-M    P1
_symmetry_Int_Tables_number       1
_symmetry_cell_setting            triclinic
loop_
_symmetry_equiv_pos_as_xyz
'x, y, z'
_cell_length_a     39.046178
_cell_length_b     38.971536
_cell_length_c     21.084479
_cell_angle_alpha  89.973944
_cell_angle_beta   89.549078
_cell_angle_gamma 120.02668
loop_
_atom_site_label
_atom_site_type_symbol
_atom_site_fract_x
_atom_site_fract_y
_atom_site_fract_z
_atom_type_partial_charge
C0 C 0.32445 0.33042 0.17716 0.0
O1 O 0.33929 0.31436 0.14266 0.0
Cd2 Cd 0.35214 0.32498 0.03122 0.0
O3 O 0.31354 0.35331 0.1528 0.0
Cd4 Cd 0.31046 0.37884 0.04747 0.0
C5 C 0.41077 0.42661 0.03464 0.0
O6 O 0.29343 0.31911 -0.01236 0.0
O7 O 0.30797 0.37205 0.93436 0.0
O8 O 0.24499 0.36592 0.07315 0.0
C9 C 0.29596 0.33528 0.93434 0.0
O10 O 0.40732 0.39279 0.02463 0.0
C11 C 0.24929 0.39768 0.04884 0.0
O12 O 0.3805 0.42987 0.04713 0.0
O13 O 0.28401 0.42326 0.03083 0.0
C14 C -0.00149 0.30861 0.48236 0.0
O15 O 0.02826 0.32679 0.4458 0.0
Cd16 Cd 0.02212 0.35689 0.35022 0.0
O17 O 0.96558 0.3057 0.46825 0.0
Cd18 Cd 0.93289 0.32142 0.38461 0.0
C19 C 0.9899 0.41862 0.40968 0.0
O20 O 0.96453 0.31172 0.29138 0.0
O21 O 0.934 0.34483 0.28031 0.0
O22 O 0.88182 0.25372 0.39728 0.0
C23 C 0.95088 0.32779 0.25468 0.0
O24 O 0.01661 0.41414 0.38228 0.0
C25 C 0.8529 0.25946 0.38971 0.0
O26 O 0.95607 0.38871 0.42223 0.0
O27 O 0.86085 0.29522 0.38474 0.0
C28 C 0.69219 0.01367 0.842 0.0
O29 O 0.70075 0.04589 0.81434 0.0
Cd30 Cd 0.66193 0.04668 0.72831 0.0
O31 O 0.66449 0.98098 0.82085 0.0
Cd32 Cd 0.61889 0.95771 0.73086 0.0
C33 C 0.56727 0.99697 0.79008 0.0
O34 O 0.65779 0.00265 0.64588 0.0
O35 O 0.594 0.97377 0.63848 0.0
O36 O 0.63907 0.91246 0.69306 0.0
C37 C 0.62762 0.99179 0.61143 0.0
O38 O 0.5965 0.02931 0.77002 0.0
C39 C 0.6049 0.88199 0.69219 0.0
O40 O 0.5679 0.96468 0.78608 0.0
O41 O 0.57672 0.88537 0.71595 0.0
C42 C 0.65822 0.65668 0.18302 0.0
O43 O 0.64422 0.67364 0.14919 0.0
Cd44 Cd 0.63172 0.66548 0.03802 0.0
O45 O 0.66825 0.63315 0.15814 0.0
Cd46 Cd 0.66982 0.60832 0.05141 0.0
C47 C 0.56996 0.56402 0.03825 0.0
O48 O 0.68956 0.66967 -0.00623 0.0
O49 O 0.67173 0.61662 0.93901 0.0
O50 O 0.73577 0.6216 0.06764 0.0
C51 C 0.68676 0.65386 0.94018 0.0
O52 O 0.57556 0.59876 0.02918 0.0
C53 C 0.73084 0.59023 0.04117 0.0
O54 O 0.59893 0.5587 0.05069 0.0
O55 O 0.69552 0.56351 0.02941 0.0
C56 C 0.00717 0.68065 0.49436 0.0
O57 O 0.9768 0.66412 0.45949 0.0
Cd58 Cd 0.97804 0.63708 0.35834 0.0
O59 O 0.04034 0.68595 0.47426 0.0
Cd60 Cd 0.07338 0.6779 0.38058 0.0
C61 C 0.01846 0.57925 0.40483 0.0
O62 O 0.03374 0.6875 0.30279 0.0
O63 O 0.07249 0.66684 0.26801 0.0
O64 O 0.12291 0.74542 0.40008 0.0
C65 C 0.04802 0.67822 0.2561 0.0
O66 O 0.98954 0.58291 0.38587 0.0
C67 C 0.15234 0.74175 0.38435 0.0
O68 O 0.0531 0.60935 0.40943 0.0
O69 O 0.14546 0.70697 0.37173 0.0
C70 C 0.2981 0.9887 0.85357 0.0
O71 O 0.28775 0.95503 0.82997 0.0
Cd72 Cd 0.32422 0.94919 0.743 0.0
O73 O 0.3264 0.01967 0.82837 0.0
Cd74 Cd 0.37022 0.03644 0.73606 0.0
C75 C 0.41986 0.99581 0.79614 0.0
O76 O 0.32957 0.99028 0.65435 0.0
O77 O 0.39309 0.01569 0.64642 0.0
O78 O 0.35271 0.08251 0.69344 0.0
C79 C 0.35967 -0.00077 0.61967 0.0
O80 O 0.3895 0.96361 0.77937 0.0
C81 C 0.38731 0.11234 0.69172 0.0
O82 O 0.42025 0.02854 0.79092 0.0
O83 O 0.41473 0.10807 0.71569 0.0
C84 C 0.65589 0.66357 0.45756 0.0
O85 O 0.67372 0.64971 0.48951 0.0
Cd86 Cd 0.66422 0.63625 0.60095 0.0
O87 O 0.6324 0.67286 0.48458 0.0
Cd88 Cd 0.60758 0.67546 0.5906 0.0
C89 C 0.56252 0.57505 0.59954 0.0
O90 O 0.66825 0.69366 0.64752 0.0
O91 O 0.61548 0.67769 0.70287 0.0
O92 O 0.62169 0.74107 0.56347 0.0
C93 C 0.65235 0.69059 0.70143 0.0
O94 O 0.59712 0.58033 0.60761 0.0
C95 C 0.59093 0.73835 0.58914 0.0
O96 O 0.55735 0.60447 0.5896 0.0
O97 O 0.56512 0.70431 0.60971 0.0
C98 C -0.0011 0.67361 0.76396 0.0
O99 O 0.03163 0.68548 0.79183 0.0
Cd100 Cd 0.03852 0.65882 0.88931 0.0
O101 O 0.96661 0.64776 0.78996 0.0
Cd102 Cd 0.94358 0.61085 0.89093 0.0
C103 C 0.98846 0.55938 0.84995 0.0
O104 O 0.99226 0.66149 0.95978 0.0
O105 O 0.95619 0.6027 -0.0002 0.0
O106 O 0.89426 0.63021 0.89651 0.0
C107 C 0.98149 0.63888 0.00788 0.0
O108 O 0.0206 0.59082 0.86329 0.0
C109 C 0.86593 0.59675 0.91403 0.0
O110 O 0.95542 0.55847 0.85359 0.0
O111 O 0.87283 0.56817 0.91559 0.0
C112 C 0.30457 0.00384 0.11483 0.0
O113 O 0.32593 0.03808 0.13795 0.0
Cd114 Cd 0.37024 0.04763 0.22261 0.0
O115 O 0.30479 0.9742 0.13948 0.0
Cd116 Cd 0.33463 0.96107 0.23093 0.0
C117 C 0.42435 0.00639 0.16677 0.0
O118 O 0.33693 0.00605 0.31238 0.0
O119 O 0.37916 0.98548 0.3186 0.0
O120 O 0.2729 0.91356 0.27742 0.0
C121 C 0.35973 -0.00067 0.34616 0.0
O122 O 0.42386 0.03755 0.18362 0.0
C123 C 0.27969 0.88504 0.27976 0.0
O124 O 0.39351 0.97251 0.17357 0.0
O125 O 0.31134 0.89024 0.25335 0.0
C126 C 0.33143 0.32684 0.45158 0.0
O127 O 0.31542 0.34261 0.48408 0.0
Cd128 Cd 0.3241 0.35604 0.5956 0.0
O129 O 0.35386 0.31607 0.47769 0.0
Cd130 Cd 0.37867 0.31437 0.58361 0.0
C131 C 0.42551 0.41517 0.59543 0.0
O132 O 0.31773 0.29716 0.64089 0.0
O133 O 0.369 0.30959 0.69613 0.0
O134 O 0.36727 0.24925 0.55907 0.0
C135 C 0.3325 0.29828 0.69466 0.0
O136 O 0.3915 0.41153 0.60389 0.0
C137 C 0.39876 0.2539 0.5842 0.0
O138 O 0.42907 0.38495 0.58402 0.0
O139 O 0.42349 0.28865 0.60262 0.0
C140 C -0.00275 0.30221 0.74747 0.0
O141 O 0.96266 0.28864 0.77009 0.0
Cd142 Cd 0.94796 0.31394 0.86285 0.0
O143 O 0.02682 0.329 0.77704 0.0
Cd144 Cd 0.03547 0.36285 0.87901 0.0
C145 C 0.99302 0.41366 0.83109 0.0
O146 O 0.98535 0.31492 0.95229 0.0
O147 O 0.00614 0.37735 0.9669 0.0
O148 O 0.08177 0.3472 0.92583 0.0
C149 C 0.9882 0.34225 -0.01156 0.0
O150 O 0.961 0.38123 0.84172 0.0
C151 C 0.10979 0.38259 0.93178 0.0
O152 O 0.02626 0.41514 0.83507 0.0
O153 O 0.10463 0.40971 0.9084 0.0
C154 C 0.68924 0.00758 0.10504 0.0
O155 O 0.66693 0.97335 0.12821 0.0
Cd156 Cd 0.62232 0.96375 0.21292 0.0
O157 O 0.69063 0.0377 0.13098 0.0
Cd158 Cd 0.66296 0.05097 0.22684 0.0
C159 C 0.57425 0.01276 0.16336 0.0
O160 O 0.65691 0.0017 0.30333 0.0
O161 O 0.61753 0.02543 0.31516 0.0
O162 O 0.72576 0.09403 0.27322 0.0
C163 C 0.63466 0.00827 0.33933 0.0
O164 O 0.57273 0.98011 0.1765 0.0
C165 C 0.7211 0.12373 0.28002 0.0
O166 O 0.60586 0.04553 0.1728 0.0
O167 O 0.69026 0.12148 0.25604 0.0
C168 C 0.3083 0.34497 0.28507 0.0
C169 C 0.32245 0.32501 0.24693 0.0
C170 C 0.30999 0.34414 0.3512 0.0
C171 C 0.32602 0.32342 0.38202 0.0
H172 H 0.29679 0.36241 0.26385 0.0
H173 H 0.29982 0.36106 0.37815 0.0
S174 S 0.36281 0.26229 0.30454 0.0
N175 N 0.3499 0.28095 0.24523 0.0
N176 N 0.35309 0.27946 0.36963 0.0
C177 C 0.3385 0.30167 0.3447 0.0
C178 C 0.33667 0.30242 0.2772 0.0
C179 C 0.03729 0.3211 0.58093 0.0
C180 C 0.00292 0.29662 0.54654 0.0
C181 C 0.0369 0.31945 0.64729 0.0
C182 C 0.00209 0.29327 0.68091 0.0
H183 H 0.06324 0.34445 0.55718 0.0
H184 H 0.06275 0.34156 0.67212 0.0
S185 S 0.90884 0.21443 0.61076 0.0
N186 N 0.93664 0.23933 0.54921 0.0
N187 N 0.93588 0.23576 0.67399 0.0
C188 C 0.96971 0.26458 0.64636 0.0
C189 C 0.9701 0.26644 0.57896 0.0
C190 C 0.6945 0.97821 0.93837 0.0
C191 C 0.70758 0.01435 0.90617 0.0
C192 C 0.69376 0.97665 0.00457 0.0
C193 C 0.70597 0.0112 0.04056 0.0
H194 H 0.68085 0.95045 0.91276 0.0
H195 H 0.67949 0.94773 0.02712 0.0
S196 S 0.75753 0.11436 -0.02125 0.0
N197 N 0.74405 0.08635 0.91478 0.0
N198 N 0.74255 0.08337 0.03957 0.0
C199 C 0.72594 0.04801 0.009 0.0
C200 C 0.7268 0.04961 0.94144 0.0
C201 C 0.67648 0.64368 0.28997 0.0
C202 C 0.66094 0.6625 0.2526 0.0
C203 C 0.67616 0.64553 0.35616 0.0
C204 C 0.6601 0.66613 0.38771 0.0
H205 H 0.68821 0.62648 0.26816 0.0
H206 H 0.68739 0.6295 0.38268 0.0
S207 S 0.61938 0.72405 0.31208 0.0
N208 N 0.63175 0.70508 0.2522 0.0
N209 N 0.63115 0.70848 0.37665 0.0
C210 C 0.64606 0.6866 0.35101 0.0
C211 C 0.64649 0.68484 0.2835 0.0
C212 C 0.03577 0.70665 0.66479 0.0
C213 C -0.00072 0.6849 0.69679 0.0
C214 C 0.03778 0.7083 0.59865 0.0
C215 C 0.00338 0.68843 0.56197 0.0
H216 H 0.06334 0.72005 0.69057 0.0
H217 H 0.06677 0.72298 0.57629 0.0
S218 S 0.89999 0.63691 0.62301 0.0
N219 N 0.92754 0.65017 0.68722 0.0
N220 N 0.93132 0.65327 0.56252 0.0
C221 C 0.96646 0.67106 0.59334 0.0
C222 C 0.96441 0.66928 0.66094 0.0
C223 C 0.30177 0.03324 0.01182 0.0
C224 C 0.28725 -0.00036 0.05129 0.0
C225 C 0.30018 0.02932 0.94588 0.0
C226 C 0.28403 0.99172 0.91757 0.0
H227 H 0.31849 0.06278 0.03133 0.0
H228 H 0.31556 0.05606 0.91742 0.0
S229 S 0.22775 0.89488 0.00062 0.0
N230 N 0.24558 0.92793 0.05803 0.0
N231 N 0.24259 0.92048 0.93375 0.0
C232 C 0.26277 0.95808 0.95645 0.0
C233 C 0.26442 0.96209 0.02368 0.0
C234 C 0.14292 0.36293 0.01192 0.0
C235 C 0.14556 0.391 0.96736 0.0
C236 C 0.1764 0.36755 0.04294 0.0
C237 C 0.21411 0.40013 0.02992 0.0
H238 H 0.11482 0.3365 0.02189 0.0
H239 H 0.17283 0.34404 0.07457 0.0
S240 S 0.23612 0.48482 0.92341 0.0
N241 N 0.18793 0.45483 0.91695 0.0
N242 N 0.25147 0.4633 0.97434 0.0
C243 C 0.21681 0.42998 -0.01113 0.0
C244 C 0.18238 0.42542 0.95768 0.0
C245 C 0.78962 0.23011 0.32976 0.0
C246 C 0.81355 0.22568 0.37494 0.0
C247 C 0.75818 0.19686 0.30096 0.0
C248 C 0.75004 0.1584 0.31636 0.0
H249 H 0.79696 0.25933 0.31313 0.0
H250 H 0.74177 0.2014 0.2639 0.0
S251 S 0.79821 0.131 0.44201 0.0
N252 N 0.82279 0.17993 0.44106 0.0
N253 N 0.76391 0.11762 0.38723 0.0
C254 C 0.77141 0.15364 0.36564 0.0
C255 C 0.80311 0.18729 0.39497 0.0
C256 C 0.56745 0.80804 0.67997 0.0
C257 C 0.59842 0.84537 0.66076 0.0
C258 C 0.56316 0.77315 0.65302 0.0
C259 C 0.58943 0.77455 0.60545 0.0
H260 H 0.54749 0.80569 0.71788 0.0
H261 H 0.54041 0.74495 0.67196 0.0
S262 S 0.67058 0.86552 0.53028 0.0
N263 N 0.65238 0.88196 0.58566 0.0
N264 N 0.64404 0.81673 0.53451 0.0
C265 C 0.6185 0.81191 0.58249 0.0
C266 C 0.62313 0.84724 0.61037 0.0
C267 C 0.77 0.55789 0.00823 0.0
C268 C 0.76441 0.59076 0.00808 0.0
C269 C 0.80206 0.55917 0.97515 0.0
C270 C 0.82881 0.59301 0.93984 0.0
H271 H 0.75015 0.53156 0.03519 0.0
H272 H 0.8065 0.53394 -0.02123 0.0
S273 S 0.82198 0.6838 0.91549 0.0
N274 N 0.78503 0.65602 0.96419 0.0
N275 N 0.84431 0.65814 0.90105 0.0
C276 C 0.82174 0.62497 0.93634 0.0
C277 C 0.78977 0.62391 0.97075 0.0
C278 C 0.21484 0.77611 0.32044 0.0
C279 C 0.19075 0.77729 0.36954 0.0
C280 C 0.24525 0.8112 0.29318 0.0
C281 C 0.25217 0.84834 0.31408 0.0
H282 H 0.20841 0.74806 0.29986 0.0
H283 H 0.26176 0.80921 0.25319 0.0
S284 S 0.20339 0.86731 0.45051 0.0
N285 N 0.18028 0.81855 0.4446 0.0
N286 N 0.23718 0.88431 0.39349 0.0
C287 C 0.23072 0.84981 0.36687 0.0
C288 C 0.20008 0.81428 0.39468 0.0
C289 C 0.36727 0.14696 0.61467 0.0
C290 C 0.39466 0.14918 0.65971 0.0
C291 C 0.37101 0.18102 0.58622 0.0
C292 C 0.40203 0.2189 0.60223 0.0
H293 H 0.34209 0.11863 0.60207 0.0
H294 H 0.34811 0.17759 0.55383 0.0
S295 S 0.48425 0.24055 0.7122 0.0
N296 N 0.45606 0.19181 0.71456 0.0
N297 N 0.46288 0.25638 0.66192 0.0
C298 C 0.43114 0.22146 0.64423 0.0
C299 C 0.42747 0.18647 0.67287 0.0
C300 C 0.29317 0.31924 0.75897 0.0
C301 C 0.31196 0.29672 0.75366 0.0
C302 C 0.28477 0.32891 0.81867 0.0
C303 C 0.29419 0.31557 0.87429 0.0
H304 H 0.28839 0.33256 0.71732 0.0
H305 H 0.27334 0.34912 0.82138 0.0
S306 S 0.33599 0.24879 0.88396 0.0
N307 N 0.33454 0.2566 0.80727 0.0
N308 N 0.31737 0.27354 0.91992 0.0
C309 C 0.30859 0.28912 0.86913 0.0
C310 C 0.31794 0.28004 0.80842 0.0
C311 C 0.96869 0.30438 0.15648 0.0
C312 C 0.95663 0.32915 0.18551 0.0
C313 C 0.97644 0.30686 0.09121 0.0
C314 C 0.97293 0.33461 0.05352 0.0
H315 H 0.97285 0.28344 0.18445 0.0
H316 H 0.98712 0.28841 0.07081 0.0
S317 S 0.93902 0.4037 0.10495 0.0
N318 N 0.93872 0.38023 0.1703 0.0
N319 N 0.954 0.38515 0.04795 0.0
C320 C 0.95935 0.35833 0.08128 0.0
C321 C 0.951 0.35553 0.14732 0.0
C322 C 0.59864 0.99424 0.5085 0.0
C323 C 0.63073 0.99683 0.54227 0.0
C324 C 0.5998 0.99696 0.44247 0.0
C325 C 0.63275 0.0016 0.40796 0.0
H326 H 0.57252 0.9904 0.53326 0.0
H327 H 0.57474 0.99555 0.41828 0.0
S328 S 0.72421 0.00943 0.47382 0.0
N329 N 0.69632 0.00404 0.53652 0.0
N330 N 0.69828 0.00874 0.41186 0.0
C331 C 0.66487 0.00372 0.44095 0.0
C332 C 0.66396 0.00156 0.50835 0.0
C333 C 0.66096 0.70459 0.81598 0.0
C334 C 0.67274 0.69307 0.76059 0.0
C335 C 0.66997 0.696 0.87575 0.0
C336 C 0.69017 0.67489 0.88124 0.0
H337 H 0.64215 0.71763 0.81309 0.0
H338 H 0.65761 0.7023 0.91735 0.0
S339 S 0.73391 0.64499 0.75133 0.0
N340 N 0.71129 0.66561 0.71509 0.0
N341 N 0.72692 0.64802 0.82802 0.0
C342 C 0.70565 0.66695 0.82662 0.0
C343 C 0.69729 0.67651 0.7658 0.0
C344 C 0.99056 0.65171 0.18469 0.0
C345 C 0.0317 0.67333 0.19262 0.0
C346 C 0.97443 0.64121 0.1241 0.0
C347 C -0.00101 0.65318 0.07004 0.0
H348 H 0.97089 0.64117 0.22555 0.0
H349 H 0.94261 0.62319 0.1195 0.0
S350 S 0.10838 0.71267 0.06607 0.0
N351 N 0.0966 0.70757 0.1423 0.0
N352 N 0.06604 0.6894 0.02773 0.0
C353 C 0.04003 0.67651 0.07727 0.0
C354 C 0.0565 0.68618 0.13897 0.0
C355 C 0.39152 0.00404 0.44933 0.0
C356 C 0.35927 0.001 0.41563 0.0
C357 C 0.39075 0.00217 0.51539 0.0
C358 C 0.3575 0.99672 0.55013 0.0
H359 H 0.41763 0.0079 0.42447 0.0
H360 H 0.41658 0.00525 0.53937 0.0
S361 S 0.26461 0.98534 0.48386 0.0
N362 N 0.29267 0.99117 0.4212 0.0
N363 N 0.29108 0.98747 0.54596 0.0
C364 C 0.32471 0.993 0.51698 0.0
C365 C 0.3257 0.99536 0.44953 0.0
C366 C 0.48443 0.45782 0.03841 0.0
C367 C 0.45085 0.46222 0.03368 0.0
C368 C 0.52268 0.49078 0.03957 0.0
C369 C 0.52906 0.52959 0.03552 0.0
H370 H 0.48123 0.42863 0.04223 0.0
H371 H 0.54739 0.48566 0.04386 0.0
S372 S 0.45109 0.55726 0.0194 0.0
N373 N 0.42651 0.50841 0.02291 0.0
N374 N 0.49823 0.5704 0.02478 0.0
C375 C 0.49571 0.53441 0.02966 0.0
C376 C 0.45671 0.50077 0.02888 0.0
C377 C 0.04283 0.53096 0.40861 0.0
C378 C 0.01177 0.53893 0.41716 0.0
C379 C 0.03578 0.49201 0.40988 0.0
C380 C -0.00254 0.45951 0.42029 0.0
H381 H 0.07244 0.55473 0.39753 0.0
H382 H 0.06042 0.48735 0.40008 0.0
S383 S 0.90722 0.46535 0.45604 0.0
N384 N 0.94221 0.51178 0.44415 0.0
N385 N 0.92893 0.43861 0.44685 0.0
C386 C 0.96671 0.46741 0.43378 0.0
C387 C 0.97387 0.50709 0.43201 0.0
C388 C 0.49389 0.96041 0.80424 0.0
C389 C 0.53014 0.99608 0.80862 0.0
C390 C 0.45793 0.96018 0.8057 0.0
C391 C 0.4568 0.99561 0.81173 0.0
H392 H 0.4932 0.93273 0.795 0.0
H393 H 0.43106 0.93225 0.79778 0.0
S394 S 0.5431 0.09546 0.84134 0.0
N395 N 0.56245 0.06664 0.83121 0.0
N396 N 0.49485 0.06628 0.8342 0.0
C397 C 0.4926 0.03082 0.82342 0.0
C398 C 0.52927 0.03105 0.82173 0.0
C399 C 0.48939 0.52753 0.59826 0.0
C400 C 0.52817 0.53394 0.60002 0.0
C401 C 0.45657 0.48912 0.59737 0.0
C402 C 0.46104 0.4554 0.59775 0.0
H403 H 0.48421 0.55234 0.59746 0.0
H404 H 0.42741 0.48597 0.59566 0.0
S405 S 0.55619 0.45566 0.60344 0.0
N406 N 0.5691 0.50295 0.60305 0.0
N407 N 0.50743 0.431 0.60121 0.0
C408 C 0.49962 0.4613 0.59994 0.0
C409 C 0.53311 0.50044 0.60118 0.0
C410 C 0.95472 0.48565 0.84032 0.0
C411 C 0.9894 0.52275 0.83448 0.0
C412 C 0.9558 0.45039 0.83499 0.0
C413 C 0.9916 0.45079 0.82352 0.0
H414 H 0.92674 0.48368 0.85216 0.0
H415 H 0.92855 0.42272 0.84315 0.0
S416 S 0.08945 0.54014 0.79251 0.0
N417 N 0.05964 0.55774 0.80791 0.0
N418 N 0.06168 0.49149 0.79788 0.0
C419 C 0.02595 0.48764 0.81261 0.0
C420 C 0.02486 0.52359 0.81817 0.0
C421 C 0.53472 0.04692 0.15733 0.0
C422 C 0.5373 0.01261 0.14716 0.0
C423 C 0.49809 0.0453 0.15827 0.0
C424 C 0.4626 0.00931 0.14905 0.0
H425 H 0.56078 0.07473 0.16921 0.0
H426 H 0.49757 0.07201 0.17067 0.0
S427 S 0.45437 0.91336 0.10411 0.0
N428 N 0.5021 0.94333 0.11565 0.0
N429 N 0.43318 0.94026 0.11736 0.0
C430 C 0.46522 0.97581 0.1317 0.0
C431 C 0.50258 0.97747 0.1308 0.0
loop_
_geom_bond_atom_site_label_1
_geom_bond_atom_site_label_2
_geom_bond_distance
_geom_bond_site_symmetry_2
_ccdc_geom_bond_type
C0 O1 1.306 . S
C0 O3 1.160 . S
O1 C0 1.306 . S
O1 Cd2 2.228 . S
Cd2 O1 2.228 . S
Cd2 O6 2.273 . S
Cd2 O10 2.277 . S
O3 C0 1.160 . S
O3 Cd4 2.203 . S
Cd4 O3 2.203 . S
Cd4 O6 2.411 . S
Cd4 O7 2.333 1_554 S
Cd4 O8 2.352 . S
Cd4 O12 2.277 . S
Cd4 O13 2.356 . S
C5 O10 1.209 . S
C5 O12 1.226 . S
O6 Cd2 2.273 . S
O6 Cd4 2.411 . S
O6 C9 1.320 1_554 S
O7 Cd4 2.333 1_556 S
O7 C9 1.214 . S
O8 Cd4 2.352 . S
O8 C11 1.258 . S
C9 O6 1.320 1_556 S
C9 O7 1.214 . S
O10 Cd2 2.277 . S
O10 C5 1.209 . S
C11 O8 1.258 . S
C11 O13 1.282 . S
O12 Cd4 2.277 . S
O12 C5 1.226 . S
O13 Cd4 2.356 . S
O13 C11 1.282 . S
C14 O15 1.306 1_655 S
C14 O17 1.160 . S
O15 C14 1.306 1_455 S
O15 Cd16 2.228 . S
Cd16 O15 2.228 . S
Cd16 O20 2.273 . S
Cd16 O24 2.277 . S
O17 C14 1.160 . S
O17 Cd18 2.203 . S
Cd18 O17 2.203 . S
Cd18 O20 2.411 1_655 S
Cd18 O21 2.333 . S
Cd18 O22 2.352 . S
Cd18 O26 2.277 . S
Cd18 O27 2.356 . S
C19 O24 1.209 1_655 S
C19 O26 1.226 . S
O20 Cd16 2.273 . S
O20 Cd18 2.411 1_455 S
O20 C23 1.320 1_455 S
O21 Cd18 2.333 . S
O21 C23 1.214 . S
O22 Cd18 2.352 . S
O22 C25 1.258 . S
C23 O20 1.320 1_655 S
C23 O21 1.214 . S
O24 Cd16 2.277 . S
O24 C19 1.209 1_455 S
C25 O22 1.258 . S
C25 O27 1.282 . S
O26 Cd18 2.277 . S
O26 C19 1.226 . S
O27 Cd18 2.356 . S
O27 C25 1.282 . S
C28 O29 1.306 1_565 S
C28 O31 1.160 . S
O29 C28 1.306 1_545 S
O29 Cd30 2.228 . S
Cd30 O29 2.228 . S
Cd30 O34 2.273 . S
Cd30 O38 2.277 . S
O31 C28 1.160 . S
O31 Cd32 2.203 . S
Cd32 O31 2.203 . S
Cd32 O34 2.411 1_565 S
Cd32 O35 2.333 . S
Cd32 O36 2.352 . S
Cd32 O40 2.277 . S
Cd32 O41 2.356 . S
C33 O38 1.209 1_565 S
C33 O40 1.226 . S
O34 Cd30 2.273 . S
O34 Cd32 2.411 1_545 S
O34 C37 1.320 1_545 S
O35 Cd32 2.333 . S
O35 C37 1.214 . S
O36 Cd32 2.352 . S
O36 C39 1.258 . S
C37 O34 1.320 1_565 S
C37 O35 1.214 . S
O38 Cd30 2.277 . S
O38 C33 1.209 1_545 S
C39 O36 1.258 . S
C39 O41 1.282 . S
O40 Cd32 2.277 . S
O40 C33 1.226 . S
O41 Cd32 2.356 . S
O41 C39 1.282 . S
C42 O43 1.306 . S
C42 O45 1.160 . S
O43 C42 1.306 . S
O43 Cd44 2.228 . S
Cd44 O43 2.228 . S
Cd44 O48 2.273 . S
Cd44 O52 2.277 . S
O45 C42 1.160 . S
O45 Cd46 2.203 . S
Cd46 O45 2.203 . S
Cd46 O48 2.411 . S
Cd46 O49 2.333 1_554 S
Cd46 O50 2.352 . S
Cd46 O54 2.277 . S
Cd46 O55 2.356 . S
C47 O52 1.209 . S
C47 O54 1.226 . S
O48 Cd44 2.273 . S
O48 Cd46 2.411 . S
O48 C51 1.320 1_554 S
O49 Cd46 2.333 1_556 S
O49 C51 1.214 . S
O50 Cd46 2.352 . S
O50 C53 1.258 . S
C51 O48 1.320 1_556 S
C51 O49 1.214 . S
O52 Cd44 2.277 . S
O52 C47 1.209 . S
C53 O50 1.258 . S
C53 O55 1.282 . S
O54 Cd46 2.277 . S
O54 C47 1.226 . S
O55 Cd46 2.356 . S
O55 C53 1.282 . S
C56 O57 1.306 1_455 S
C56 O59 1.160 . S
O57 C56 1.306 1_655 S
O57 Cd58 2.228 . S
Cd58 O57 2.228 . S
Cd58 O62 2.273 . S
Cd58 O66 2.277 . S
O59 C56 1.160 . S
O59 Cd60 2.203 . S
Cd60 O59 2.203 . S
Cd60 O62 2.411 1_455 S
Cd60 O63 2.333 . S
Cd60 O64 2.352 . S
Cd60 O68 2.277 . S
Cd60 O69 2.356 . S
C61 O66 1.209 1_455 S
C61 O68 1.226 . S
O62 Cd58 2.273 . S
O62 Cd60 2.411 1_655 S
O62 C65 1.320 1_655 S
O63 Cd60 2.333 . S
O63 C65 1.214 . S
O64 Cd60 2.352 . S
O64 C67 1.258 . S
C65 O62 1.320 1_455 S
C65 O63 1.214 . S
O66 Cd58 2.277 . S
O66 C61 1.209 1_655 S
C67 O64 1.258 . S
C67 O69 1.282 . S
O68 Cd60 2.277 . S
O68 C61 1.226 . S
O69 Cd60 2.356 . S
O69 C67 1.282 . S
C70 O71 1.306 1_545 S
C70 O73 1.160 . S
O71 C70 1.306 1_565 S
O71 Cd72 2.228 . S
Cd72 O71 2.228 . S
Cd72 O76 2.273 . S
Cd72 O80 2.277 . S
O73 C70 1.160 . S
O73 Cd74 2.203 . S
Cd74 O73 2.203 . S
Cd74 O76 2.411 1_545 S
Cd74 O77 2.333 . S
Cd74 O78 2.352 . S
Cd74 O82 2.277 . S
Cd74 O83 2.356 . S
C75 O80 1.209 1_545 S
C75 O82 1.226 . S
O76 Cd72 2.273 . S
O76 Cd74 2.411 1_565 S
O76 C79 1.320 1_565 S
O77 Cd74 2.333 . S
O77 C79 1.214 . S
O78 Cd74 2.352 . S
O78 C81 1.258 . S
C79 O76 1.320 1_545 S
C79 O77 1.214 . S
O80 Cd72 2.277 . S
O80 C75 1.209 1_565 S
C81 O78 1.258 . S
C81 O83 1.282 . S
O82 Cd74 2.277 . S
O82 C75 1.226 . S
O83 Cd74 2.356 . S
O83 C81 1.282 . S
C84 O85 1.306 . S
C84 O87 1.160 . S
O85 C84 1.306 . S
O85 Cd86 2.228 . S
Cd86 O85 2.228 . S
Cd86 O90 2.273 . S
Cd86 O94 2.277 . S
O87 C84 1.160 . S
O87 Cd88 2.203 . S
Cd88 O87 2.203 . S
Cd88 O90 2.411 . S
Cd88 O91 2.333 . S
Cd88 O92 2.352 . S
Cd88 O96 2.277 . S
Cd88 O97 2.356 . S
C89 O94 1.209 . S
C89 O96 1.226 . S
O90 Cd86 2.273 . S
O90 Cd88 2.411 . S
O90 C93 1.320 . S
O91 Cd88 2.333 . S
O91 C93 1.214 . S
O92 Cd88 2.352 . S
O92 C95 1.258 . S
C93 O90 1.320 . S
C93 O91 1.214 . S
O94 Cd86 2.277 . S
O94 C89 1.209 . S
C95 O92 1.258 . S
C95 O97 1.282 . S
O96 Cd88 2.277 . S
O96 C89 1.226 . S
O97 Cd88 2.356 . S
O97 C95 1.282 . S
C98 O99 1.306 1_655 S
C98 O101 1.160 . S
O99 C98 1.306 1_455 S
O99 Cd100 2.228 . S
Cd100 O99 2.228 . S
Cd100 O104 2.273 . S
Cd100 O108 2.277 . S
O101 C98 1.160 . S
O101 Cd102 2.203 . S
Cd102 O101 2.203 . S
Cd102 O104 2.411 1_655 S
Cd102 O105 2.333 1_556 S
Cd102 O106 2.352 . S
Cd102 O110 2.277 . S
Cd102 O111 2.356 . S
C103 O108 1.209 1_655 S
C103 O110 1.226 . S
O104 Cd100 2.273 . S
O104 Cd102 2.411 1_455 S
O104 C107 1.320 1_456 S
O105 Cd102 2.333 1_554 S
O105 C107 1.214 . S
O106 Cd102 2.352 . S
O106 C109 1.258 . S
C107 O104 1.320 1_654 S
C107 O105 1.214 . S
O108 Cd100 2.277 . S
O108 C103 1.209 1_455 S
C109 O106 1.258 . S
C109 O111 1.282 . S
O110 Cd102 2.277 . S
O110 C103 1.226 . S
O111 Cd102 2.356 . S
O111 C109 1.282 . S
C112 O113 1.306 1_565 S
C112 O115 1.160 . S
O113 C112 1.306 1_545 S
O113 Cd114 2.228 . S
Cd114 O113 2.228 . S
Cd114 O118 2.273 . S
Cd114 O122 2.277 . S
O115 C112 1.160 . S
O115 Cd116 2.203 . S
Cd116 O115 2.203 . S
Cd116 O118 2.411 1_565 S
Cd116 O119 2.333 . S
Cd116 O120 2.352 . S
Cd116 O124 2.277 . S
Cd116 O125 2.356 . S
C117 O122 1.209 1_565 S
C117 O124 1.226 . S
O118 Cd114 2.273 . S
O118 Cd116 2.411 1_545 S
O118 C121 1.320 1_545 S
O119 Cd116 2.333 . S
O119 C121 1.214 . S
O120 Cd116 2.352 . S
O120 C123 1.258 . S
C121 O118 1.320 1_565 S
C121 O119 1.214 . S
O122 Cd114 2.277 . S
O122 C117 1.209 1_545 S
C123 O120 1.258 . S
C123 O125 1.282 . S
O124 Cd116 2.277 . S
O124 C117 1.226 . S
O125 Cd116 2.356 . S
O125 C123 1.282 . S
C126 O127 1.306 . S
C126 O129 1.160 . S
O127 C126 1.306 . S
O127 Cd128 2.228 . S
Cd128 O127 2.228 . S
Cd128 O132 2.273 . S
Cd128 O136 2.277 . S
O129 C126 1.160 . S
O129 Cd130 2.203 . S
Cd130 O129 2.203 . S
Cd130 O132 2.411 . S
Cd130 O133 2.333 . S
Cd130 O134 2.352 . S
Cd130 O138 2.277 . S
Cd130 O139 2.356 . S
C131 O136 1.209 . S
C131 O138 1.226 . S
O132 Cd128 2.273 . S
O132 Cd130 2.411 . S
O132 C135 1.320 . S
O133 Cd130 2.333 . S
O133 C135 1.214 . S
O134 Cd130 2.352 . S
O134 C137 1.258 . S
C135 O132 1.320 . S
C135 O133 1.214 . S
O136 Cd128 2.277 . S
O136 C131 1.209 . S
C137 O134 1.258 . S
C137 O139 1.282 . S
O138 Cd130 2.277 . S
O138 C131 1.226 . S
O139 Cd130 2.356 . S
O139 C137 1.282 . S
C140 O141 1.306 1_455 S
C140 O143 1.160 . S
O141 C140 1.306 1_655 S
O141 Cd142 2.228 . S
Cd142 O141 2.228 . S
Cd142 O146 2.273 . S
Cd142 O150 2.277 . S
O143 C140 1.160 . S
O143 Cd144 2.203 . S
Cd144 O143 2.203 . S
Cd144 O146 2.411 1_455 S
Cd144 O147 2.333 1_556 S
Cd144 O148 2.352 . S
Cd144 O152 2.277 . S
Cd144 O153 2.356 . S
C145 O150 1.209 1_455 S
C145 O152 1.226 . S
O146 Cd142 2.273 . S
O146 Cd144 2.411 1_655 S
O146 C149 1.320 1_656 S
O147 Cd144 2.333 1_554 S
O147 C149 1.214 . S
O148 Cd144 2.352 . S
O148 C151 1.258 . S
C149 O146 1.320 1_454 S
C149 O147 1.214 . S
O150 Cd142 2.277 . S
O150 C145 1.209 1_655 S
C151 O148 1.258 . S
C151 O153 1.282 . S
O152 Cd144 2.277 . S
O152 C145 1.226 . S
O153 Cd144 2.356 . S
O153 C151 1.282 . S
C154 O155 1.306 1_545 S
C154 O157 1.160 . S
O155 C154 1.306 1_565 S
O155 Cd156 2.228 . S
Cd156 O155 2.228 . S
Cd156 O160 2.273 . S
Cd156 O164 2.277 . S
O157 C154 1.160 . S
O157 Cd158 2.203 . S
Cd158 O157 2.203 . S
Cd158 O160 2.411 1_545 S
Cd158 O161 2.333 . S
Cd158 O162 2.352 . S
Cd158 O166 2.277 . S
Cd158 O167 2.356 . S
C159 O164 1.209 1_545 S
C159 O166 1.226 . S
O160 Cd156 2.273 . S
O160 Cd158 2.411 1_565 S
O160 C163 1.320 1_565 S
O161 Cd158 2.333 . S
O161 C163 1.214 . S
O162 Cd158 2.352 . S
O162 C165 1.258 . S
C163 O160 1.320 1_545 S
C163 O161 1.214 . S
O164 Cd156 2.277 . S
O164 C159 1.209 1_565 S
C165 O162 1.258 . S
C165 O167 1.282 . S
O166 Cd158 2.277 . S
O166 C159 1.226 . S
O167 Cd158 2.356 . S
O167 C165 1.282 . S
C168 C169 1.369 . S
C168 C170 1.419 . S
C168 H172 0.930 . S
C169 C168 1.369 . S
C169 C178 1.429 . S
C170 C168 1.419 . S
C170 C171 1.363 . S
C170 H173 0.929 . S
C171 C170 1.363 . S
C171 C177 1.428 . S
H172 C168 0.930 . S
H173 C170 0.929 . S
S174 N175 1.613 . S
S174 N176 1.610 . S
N175 S174 1.613 . S
N175 C178 1.350 . S
N176 S174 1.610 . S
N176 C177 1.351 . S
C177 C171 1.428 . S
C177 N176 1.351 . S
C177 C178 1.434 . S
C178 C169 1.429 . S
C178 N175 1.350 . S
C178 C177 1.434 . S
C179 C180 1.369 1_455 S
C179 C181 1.419 . S
C179 H183 0.930 . S
C180 C179 1.369 1_655 S
C180 C189 1.429 . S
C181 C179 1.419 . S
C181 C182 1.363 . S
C181 H184 0.929 . S
C182 C181 1.363 . S
C182 C188 1.428 1_455 S
H183 C179 0.930 . S
H184 C181 0.929 . S
S185 N186 1.613 . S
S185 N187 1.610 . S
N186 S185 1.613 . S
N186 C189 1.350 . S
N187 S185 1.610 . S
N187 C188 1.351 . S
C188 C182 1.428 1_655 S
C188 N187 1.351 . S
C188 C189 1.434 . S
C189 C180 1.429 . S
C189 N186 1.350 . S
C189 C188 1.434 . S
C190 C191 1.369 . S
C190 C192 1.419 1_556 S
C190 H194 0.930 . S
C191 C190 1.369 . S
C191 C200 1.429 1_565 S
C192 C190 1.419 1_554 S
C192 C193 1.363 1_565 S
C192 H195 0.929 . S
C193 C192 1.363 1_545 S
C193 C199 1.428 . S
H194 C190 0.930 . S
H195 C192 0.929 . S
S196 N197 1.613 . S
S196 N198 1.610 1_556 S
N197 S196 1.613 . S
N197 C200 1.350 . S
N198 S196 1.610 1_554 S
N198 C199 1.351 . S
C199 C193 1.428 . S
C199 N198 1.351 . S
C199 C200 1.434 1_554 S
C200 C191 1.429 1_545 S
C200 N197 1.350 . S
C200 C199 1.434 1_556 S
C201 C202 1.369 . S
C201 C203 1.419 . S
C201 H205 0.930 . S
C202 C201 1.369 . S
C202 C211 1.429 . S
C203 C201 1.419 . S
C203 C204 1.363 . S
C203 H206 0.929 . S
C204 C203 1.363 . S
C204 C210 1.428 . S
H205 C201 0.930 . S
H206 C203 0.929 . S
S207 N208 1.613 . S
S207 N209 1.610 . S
N208 S207 1.613 . S
N208 C211 1.350 . S
N209 S207 1.610 . S
N209 C210 1.351 . S
C210 C204 1.428 . S
C210 N209 1.351 . S
C210 C211 1.434 . S
C211 C202 1.429 . S
C211 N208 1.350 . S
C211 C210 1.434 . S
C212 C213 1.369 1_455 S
C212 C214 1.419 . S
C212 H216 0.930 . S
C213 C212 1.369 1_655 S
C213 C222 1.429 . S
C214 C212 1.419 . S
C214 C215 1.363 . S
C214 H217 0.929 . S
C215 C214 1.363 . S
C215 C221 1.428 1_455 S
H216 C212 0.930 . S
H217 C214 0.929 . S
S218 N219 1.613 . S
S218 N220 1.610 . S
N219 S218 1.613 . S
N219 C222 1.350 . S
N220 S218 1.610 . S
N220 C221 1.351 . S
C221 C215 1.428 1_655 S
C221 N220 1.351 . S
C221 C222 1.434 . S
C222 C213 1.429 . S
C222 N219 1.350 . S
C222 C221 1.434 . S
C223 C224 1.369 1_545 S
C223 C225 1.419 1_554 S
C223 H227 0.930 . S
C224 C223 1.369 1_565 S
C224 C233 1.429 . S
C225 C223 1.419 1_556 S
C225 C226 1.363 . S
C225 H228 0.929 . S
C226 C225 1.363 . S
C226 C232 1.428 1_545 S
H227 C223 0.930 . S
H228 C225 0.929 . S
S229 N230 1.613 1_556 S
S229 N231 1.610 . S
N230 S229 1.613 1_554 S
N230 C233 1.350 . S
N231 S229 1.610 . S
N231 C232 1.351 . S
C232 C226 1.428 1_565 S
C232 N231 1.351 . S
C232 C233 1.434 1_556 S
C233 C224 1.429 . S
C233 N230 1.350 . S
C233 C232 1.434 1_554 S
C234 C235 1.369 1_554 S
C234 C236 1.419 . S
C234 H238 0.930 . S
C235 C234 1.369 1_556 S
C235 C244 1.429 . S
C236 C234 1.419 . S
C236 C237 1.363 . S
C236 H239 0.929 . S
C237 C236 1.363 . S
C237 C243 1.428 1_554 S
H238 C234 0.930 . S
H239 C236 0.929 . S
S240 N241 1.613 . S
S240 N242 1.610 . S
N241 S240 1.613 . S
N241 C244 1.350 . S
N242 S240 1.610 . S
N242 C243 1.351 . S
C243 C237 1.428 1_556 S
C243 N242 1.351 . S
C243 C244 1.434 . S
C244 C235 1.429 . S
C244 N241 1.350 . S
C244 C243 1.434 . S
C245 C246 1.369 . S
C245 C247 1.419 . S
C245 H249 0.930 . S
C246 C245 1.369 . S
C246 C255 1.429 . S
C247 C245 1.419 . S
C247 C248 1.363 . S
C247 H250 0.929 . S
C248 C247 1.363 . S
C248 C254 1.428 . S
H249 C245 0.930 . S
H250 C247 0.929 . S
S251 N252 1.613 . S
S251 N253 1.610 . S
N252 S251 1.613 . S
N252 C255 1.350 . S
N253 S251 1.610 . S
N253 C254 1.351 . S
C254 C248 1.428 . S
C254 N253 1.351 . S
C254 C255 1.434 . S
C255 C246 1.429 . S
C255 N252 1.350 . S
C255 C254 1.434 . S
C256 C257 1.369 . S
C256 C258 1.419 . S
C256 H260 0.930 . S
C257 C256 1.369 . S
C257 C266 1.429 . S
C258 C256 1.419 . S
C258 C259 1.363 . S
C258 H261 0.929 . S
C259 C258 1.363 . S
C259 C265 1.428 . S
H260 C256 0.930 . S
H261 C258 0.929 . S
S262 N263 1.613 . S
S262 N264 1.610 . S
N263 S262 1.613 . S
N263 C266 1.350 . S
N264 S262 1.610 . S
N264 C265 1.351 . S
C265 C259 1.428 . S
C265 N264 1.351 . S
C265 C266 1.434 . S
C266 C257 1.429 . S
C266 N263 1.350 . S
C266 C265 1.434 . S
C267 C268 1.369 . S
C267 C269 1.419 1_554 S
C267 H271 0.930 . S
C268 C267 1.369 . S
C268 C277 1.429 . S
C269 C267 1.419 1_556 S
C269 C270 1.363 . S
C269 H272 0.929 . S
C270 C269 1.363 . S
C270 C276 1.428 . S
H271 C267 0.930 . S
H272 C269 0.929 . S
S273 N274 1.613 . S
S273 N275 1.610 . S
N274 S273 1.613 . S
N274 C277 1.350 1_556 S
N275 S273 1.610 . S
N275 C276 1.351 . S
C276 C270 1.428 . S
C276 N275 1.351 . S
C276 C277 1.434 1_556 S
C277 C268 1.429 . S
C277 N274 1.350 1_554 S
C277 C276 1.434 1_554 S
C278 C279 1.369 . S
C278 C280 1.419 . S
C278 H282 0.930 . S
C279 C278 1.369 . S
C279 C288 1.429 . S
C280 C278 1.419 . S
C280 C281 1.363 . S
C280 H283 0.929 . S
C281 C280 1.363 . S
C281 C287 1.428 . S
H282 C278 0.930 . S
H283 C280 0.929 . S
S284 N285 1.613 . S
S284 N286 1.610 . S
N285 S284 1.613 . S
N285 C288 1.350 . S
N286 S284 1.610 . S
N286 C287 1.351 . S
C287 C281 1.428 . S
C287 N286 1.351 . S
C287 C288 1.434 . S
C288 C279 1.429 . S
C288 N285 1.350 . S
C288 C287 1.434 . S
C289 C290 1.369 . S
C289 C291 1.419 . S
C289 H293 0.930 . S
C290 C289 1.369 . S
C290 C299 1.429 . S
C291 C289 1.419 . S
C291 C292 1.363 . S
C291 H294 0.929 . S
C292 C291 1.363 . S
C292 C298 1.428 . S
H293 C289 0.930 . S
H294 C291 0.929 . S
S295 N296 1.613 . S
S295 N297 1.610 . S
N296 S295 1.613 . S
N296 C299 1.350 . S
N297 S295 1.610 . S
N297 C298 1.351 . S
C298 C292 1.428 . S
C298 N297 1.351 . S
C298 C299 1.434 . S
C299 C290 1.429 . S
C299 N296 1.350 . S
C299 C298 1.434 . S
C300 C301 1.369 . S
C300 C302 1.419 . S
C300 H304 0.930 . S
C301 C300 1.369 . S
C301 C310 1.429 . S
C302 C300 1.419 . S
C302 C303 1.363 . S
C302 H305 0.929 . S
C303 C302 1.363 . S
C303 C309 1.428 . S
H304 C300 0.930 . S
H305 C302 0.929 . S
S306 N307 1.613 . S
S306 N308 1.610 . S
N307 S306 1.613 . S
N307 C310 1.350 . S
N308 S306 1.610 . S
N308 C309 1.351 . S
C309 C303 1.428 . S
C309 N308 1.351 . S
C309 C310 1.434 . S
C310 C301 1.429 . S
C310 N307 1.350 . S
C310 C309 1.434 . S
C311 C312 1.369 . S
C311 C313 1.419 . S
C311 H315 0.930 . S
C312 C311 1.369 . S
C312 C321 1.429 1_455 S
C313 C311 1.419 . S
C313 C314 1.363 1_455 S
C313 H316 0.929 . S
C314 C313 1.363 1_655 S
C314 C320 1.428 . S
H315 C311 0.930 . S
H316 C313 0.929 . S
S317 N318 1.613 . S
S317 N319 1.610 . S
N318 S317 1.613 . S
N318 C321 1.350 . S
N319 S317 1.610 . S
N319 C320 1.351 . S
C320 C314 1.428 . S
C320 N319 1.351 . S
C320 C321 1.434 . S
C321 C312 1.429 1_655 S
C321 N318 1.350 . S
C321 C320 1.434 . S
C322 C323 1.369 1_565 S
C322 C324 1.419 . S
C322 H326 0.930 . S
C323 C322 1.369 1_545 S
C323 C332 1.429 . S
C324 C322 1.419 . S
C324 C325 1.363 . S
C324 H327 0.929 . S
C325 C324 1.363 . S
C325 C331 1.428 1_565 S
H326 C322 0.930 . S
H327 C324 0.929 . S
S328 N329 1.613 . S
S328 N330 1.610 . S
N329 S328 1.613 . S
N329 C332 1.350 . S
N330 S328 1.610 . S
N330 C331 1.351 . S
C331 C325 1.428 1_545 S
C331 N330 1.351 . S
C331 C332 1.434 . S
C332 C323 1.429 . S
C332 N329 1.350 . S
C332 C331 1.434 . S
C333 C334 1.369 . S
C333 C335 1.419 . S
C333 H337 0.930 . S
C334 C333 1.369 . S
C334 C343 1.429 . S
C335 C333 1.419 . S
C335 C336 1.363 . S
C335 H338 0.929 . S
C336 C335 1.363 . S
C336 C342 1.428 . S
H337 C333 0.930 . S
H338 C335 0.929 . S
S339 N340 1.613 . S
S339 N341 1.610 . S
N340 S339 1.613 . S
N340 C343 1.350 . S
N341 S339 1.610 . S
N341 C342 1.351 . S
C342 C336 1.428 . S
C342 N341 1.351 . S
C342 C343 1.434 . S
C343 C334 1.429 . S
C343 N340 1.350 . S
C343 C342 1.434 . S
C344 C345 1.369 . S
C344 C346 1.419 . S
C344 H348 0.930 . S
C345 C344 1.369 . S
C345 C354 1.429 1_655 S
C346 C344 1.419 . S
C346 C347 1.363 1_655 S
C346 H349 0.929 . S
C347 C346 1.363 1_455 S
C347 C353 1.428 . S
H348 C344 0.930 . S
H349 C346 0.929 . S
S350 N351 1.613 . S
S350 N352 1.610 . S
N351 S350 1.613 . S
N351 C354 1.350 . S
N352 S350 1.610 . S
N352 C353 1.351 . S
C353 C347 1.428 . S
C353 N352 1.351 . S
C353 C354 1.434 . S
C354 C345 1.429 1_455 S
C354 N351 1.350 . S
C354 C353 1.434 . S
C355 C356 1.369 1_565 S
C355 C357 1.419 . S
C355 H359 0.930 . S
C356 C355 1.369 1_545 S
C356 C365 1.429 . S
C357 C355 1.419 . S
C357 C358 1.363 . S
C357 H360 0.929 . S
C358 C357 1.363 . S
C358 C364 1.428 1_565 S
H359 C355 0.930 . S
H360 C357 0.929 . S
S361 N362 1.613 . S
S361 N363 1.610 . S
N362 S361 1.613 . S
N362 C365 1.350 . S
N363 S361 1.610 . S
N363 C364 1.351 . S
C364 C358 1.428 1_545 S
C364 N363 1.351 . S
C364 C365 1.434 . S
C365 C356 1.429 . S
C365 N362 1.350 . S
C365 C364 1.434 . S
C366 C367 1.369 . S
C366 C368 1.419 . S
C366 H370 0.930 . S
C367 C366 1.369 . S
C367 C376 1.429 . S
C368 C366 1.419 . S
C368 C369 1.363 . S
C368 H371 0.929 . S
C369 C368 1.363 . S
C369 C375 1.428 . S
H370 C366 0.930 . S
H371 C368 0.929 . S
S372 N373 1.613 . S
S372 N374 1.610 . S
N373 S372 1.613 . S
N373 C376 1.350 1_556 S
N374 S372 1.610 . S
N374 C375 1.351 1_556 S
C375 C369 1.428 . S
C375 N374 1.351 1_554 S
C375 C376 1.434 . S
C376 C367 1.429 . S
C376 N373 1.350 1_554 S
C376 C375 1.434 . S
C377 C378 1.369 . S
C377 C379 1.419 . S
C377 H381 0.930 . S
C378 C377 1.369 . S
C378 C387 1.429 1_455 S
C379 C377 1.419 . S
C379 C380 1.363 1_455 S
C379 H382 0.929 . S
C380 C379 1.363 1_655 S
C380 C386 1.428 . S
H381 C377 0.930 . S
H382 C379 0.929 . S
S383 N384 1.613 . S
S383 N385 1.610 . S
N384 S383 1.613 . S
N384 C387 1.350 . S
N385 S383 1.610 . S
N385 C386 1.351 . S
C386 C380 1.428 . S
C386 N385 1.351 . S
C386 C387 1.434 . S
C387 C378 1.429 1_655 S
C387 N384 1.350 . S
C387 C386 1.434 . S
C388 C389 1.369 . S
C388 C390 1.419 . S
C388 H392 0.930 . S
C389 C388 1.369 . S
C389 C398 1.429 1_565 S
C390 C388 1.419 . S
C390 C391 1.363 1_565 S
C390 H393 0.929 . S
C391 C390 1.363 1_545 S
C391 C397 1.428 . S
H392 C388 0.930 . S
H393 C390 0.929 . S
S394 N395 1.613 . S
S394 N396 1.610 . S
N395 S394 1.613 . S
N395 C398 1.350 . S
N396 S394 1.610 . S
N396 C397 1.351 . S
C397 C391 1.428 . S
C397 N396 1.351 . S
C397 C398 1.434 . S
C398 C389 1.429 1_545 S
C398 N395 1.350 . S
C398 C397 1.434 . S
C399 C400 1.369 . S
C399 C401 1.419 . S
C399 H403 0.930 . S
C400 C399 1.369 . S
C400 C409 1.429 . S
C401 C399 1.419 . S
C401 C402 1.363 . S
C401 H404 0.929 . S
C402 C401 1.363 . S
C402 C408 1.428 . S
H403 C399 0.930 . S
H404 C401 0.929 . S
S405 N406 1.613 . S
S405 N407 1.610 . S
N406 S405 1.613 . S
N406 C409 1.350 . S
N407 S405 1.610 . S
N407 C408 1.351 . S
C408 C402 1.428 . S
C408 N407 1.351 . S
C408 C409 1.434 . S
C409 C400 1.429 . S
C409 N406 1.350 . S
C409 C408 1.434 . S
C410 C411 1.369 . S
C410 C412 1.419 . S
C410 H414 0.930 . S
C411 C410 1.369 . S
C411 C420 1.429 1_655 S
C412 C410 1.419 . S
C412 C413 1.363 1_655 S
C412 H415 0.929 . S
C413 C412 1.363 1_455 S
C413 C419 1.428 . S
H414 C410 0.930 . S
H415 C412 0.929 . S
S416 N417 1.613 . S
S416 N418 1.610 . S
N417 S416 1.613 . S
N417 C420 1.350 . S
N418 S416 1.610 . S
N418 C419 1.351 . S
C419 C413 1.428 . S
C419 N418 1.351 . S
C419 C420 1.434 . S
C420 C411 1.429 1_455 S
C420 N417 1.350 . S
C420 C419 1.434 . S
C421 C422 1.369 . S
C421 C423 1.419 . S
C421 H425 0.930 . S
C422 C421 1.369 . S
C422 C431 1.429 1_545 S
C423 C421 1.419 . S
C423 C424 1.363 1_545 S
C423 H426 0.929 . S
C424 C423 1.363 1_565 S
C424 C430 1.428 . S
H425 C421 0.930 . S
H426 C423 0.929 . S
S427 N428 1.613 . S
S427 N429 1.610 . S
N428 S427 1.613 . S
N428 C431 1.350 . S
N429 S427 1.610 . S
N429 C430 1.351 . S
C430 C424 1.428 . S
C430 N429 1.351 . S
C430 C431 1.434 . S
C431 C422 1.429 1_565 S
C431 N428 1.350 . S
C431 C430 1.434 . S
C169 C0 1.541 . S
C171 C126 1.539 . S
C180 C14 1.540 . S
C182 C140 1.540 . S
C191 C28 1.539 . S
C193 C154 1.538 . S
C202 C42 1.539 . S
C204 C84 1.538 . S
C213 C98 1.536 . S
C215 C56 1.537 . S
C224 C112 1.536 . S
C226 C70 1.537 . S
C235 C151 1.551 . S
C237 C11 1.546 . S
C246 C25 1.552 . S
C248 C165 1.547 . S
C257 C39 1.547 . S
C259 C95 1.551 . S
C268 C53 1.548 . S
C270 C109 1.551 . S
C279 C67 1.551 . S
C281 C123 1.547 . S
C290 C81 1.552 . S
C292 C137 1.547 . S
C301 C135 0.992 . S
C303 C9 1.000 . S
C312 C23 0.987 1_455 S
C314 C149 0.997 1_655 S
C323 C37 1.003 1_545 S
C325 C163 0.990 1_565 S
C334 C93 1.002 . S
C336 C51 0.988 . S
C345 C65 0.989 1_655 S
C347 C107 1.001 1_455 S
C356 C121 1.004 1_545 S
C358 C79 0.990 1_565 S
C367 C5 1.507 . S
C369 C47 1.508 . S
C378 C61 1.508 . S
C380 C19 1.509 . S
C389 C33 1.508 . S
C391 C75 1.509 . S
C400 C89 1.509 . S
C402 C131 1.509 . S
C411 C103 1.508 . S
C413 C145 1.509 . S
C422 C159 1.508 . S
C424 C117 1.509 . S
