# Generated by pormake.
# Topology dia-a, (4)-cn, num edge types: 1
# Building blocks:
#     Node 0, Type 0, BuildingBlock: NAHDIM_clean_sbu_0, # of connection points: 4
#     Node 1, Type 0, BuildingBlock: NAHDIM_clean_sbu_0, # of connection points: 4
#     Node 2, Type 0, BuildingBlock: NAHDIM_clean_sbu_0, # of connection points: 4
#     Node 3, Type 0, BuildingBlock: NAHDIM_clean_sbu_0, # of connection points: 4
#     Node 4, Type 0, BuildingBlock: NAHDIM_clean_sbu_0, # of connection points: 4
#     Node 5, Type 0, BuildingBlock: NAHDIM_clean_sbu_0, # of connection points: 4
#     Node 6, Type 0, BuildingBlock: NAHDIM_clean_sbu_0, # of connection points: 4
#     Node 7, Type 0, BuildingBlock: NAHDIM_clean_sbu_0, # of connection points: 4
#     Node 8, Type 0, BuildingBlock: NAHDIM_clean_sbu_0, # of connection points: 4
#     Node 9, Type 0, BuildingBlock: NAHDIM_clean_sbu_0, # of connection points: 4
#     Node 10, Type 0, BuildingBlock: NAHDIM_clean_sbu_0, # of connection points: 4
#     Node 11, Type 0, BuildingBlock: NAHDIM_clean_sbu_0, # of connection points: 4
#     Node 12, Type 0, BuildingBlock: NAHDIM_clean_sbu_0, # of connection points: 4
#     Node 13, Type 0, BuildingBlock: NAHDIM_clean_sbu_0, # of connection points: 4
#     Node 14, Type 0, BuildingBlock: NAHDIM_clean_sbu_0, # of connection points: 4
#     Node 15, Type 0, BuildingBlock: NAHDIM_clean_sbu_0, # of connection points: 4
#     Node 16, Type 0, BuildingBlock: NAHDIM_clean_sbu_0, # of connection points: 4
#     Node 17, Type 0, BuildingBlock: NAHDIM_clean_sbu_0, # of connection points: 4
#     Node 18, Type 0, BuildingBlock: NAHDIM_clean_sbu_0, # of connection points: 4
#     Node 19, Type 0, BuildingBlock: NAHDIM_clean_sbu_0, # of connection points: 4
#     Node 20, Type 0, BuildingBlock: NAHDIM_clean_sbu_0, # of connection points: 4
#     Node 21, Type 0, BuildingBlock: NAHDIM_clean_sbu_0, # of connection points: 4
#     Node 22, Type 0, BuildingBlock: NAHDIM_clean_sbu_0, # of connection points: 4
#     Node 23, Type 0, BuildingBlock: NAHDIM_clean_sbu_0, # of connection points: 4
#     Node 24, Type 0, BuildingBlock: NAHDIM_clean_sbu_0, # of connection points: 4
#     Node 25, Type 0, BuildingBlock: NAHDIM_clean_sbu_0, # of connection points: 4
#     Node 26, Type 0, BuildingBlock: NAHDIM_clean_sbu_0, # of connection points: 4
#     Node 27, Type 0, BuildingBlock: NAHDIM_clean_sbu_0, # of connection points: 4
#     Node 28, Type 0, BuildingBlock: NAHDIM_clean_sbu_0, # of connection points: 4
#     Node 29, Type 0, BuildingBlock: NAHDIM_clean_sbu_0, # of connection points: 4
#     Node 30, Type 0, BuildingBlock: NAHDIM_clean_sbu_0, # of connection points: 4
#     Node 31, Type 0, BuildingBlock: NAHDIM_clean_sbu_0, # of connection points: 4
#     Edge 32, Type (0, 0), BuildingBlock: EZIPEK_clean_linker_0, # of connection points: 2
#     Edge 33, Type (0, 0), BuildingBlock: EZIPEK_clean_linker_0, # of connection points: 2
#     Edge 34, Type (0, 0), BuildingBlock: EZIPEK_clean_linker_0, # of connection points: 2
#     Edge 35, Type (0, 0), BuildingBlock: EZIPEK_clean_linker_0, # of connection points: 2
#     Edge 36, Type (0, 0), BuildingBlock: EZIPEK_clean_linker_0, # of connection points: 2
#     Edge 37, Type (0, 0), BuildingBlock: EZIPEK_clean_linker_0, # of connection points: 2
#     Edge 38, Type (0, 0), BuildingBlock: EZIPEK_clean_linker_0, # of connection points: 2
#     Edge 39, Type (0, 0), BuildingBlock: EZIPEK_clean_linker_0, # of connection points: 2
#     Edge 40, Type (0, 0), BuildingBlock: EZIPEK_clean_linker_0, # of connection points: 2
#     Edge 41, Type (0, 0), BuildingBlock: EZIPEK_clean_linker_0, # of connection points: 2
#     Edge 42, Type (0, 0), BuildingBlock: EZIPEK_clean_linker_0, # of connection points: 2
#     Edge 43, Type (0, 0), BuildingBlock: EZIPEK_clean_linker_0, # of connection points: 2
#     Edge 44, Type (0, 0), BuildingBlock: EZIPEK_clean_linker_0, # of connection points: 2
#     Edge 45, Type (0, 0), BuildingBlock: EZIPEK_clean_linker_0, # of connection points: 2
#     Edge 46, Type (0, 0), BuildingBlock: EZIPEK_clean_linker_0, # of connection points: 2
#     Edge 47, Type (0, 0), BuildingBlock: EZIPEK_clean_linker_0, # of connection points: 2
#     Edge 48, Type (0, 0), BuildingBlock: EZIPEK_clean_linker_0, # of connection points: 2
#     Edge 49, Type (0, 0), BuildingBlock: EZIPEK_clean_linker_0, # of connection points: 2
#     Edge 50, Type (0, 0), BuildingBlock: EZIPEK_clean_linker_0, # of connection points: 2
#     Edge 51, Type (0, 0), BuildingBlock: EZIPEK_clean_linker_0, # of connection points: 2
#     Edge 52, Type (0, 0), BuildingBlock: EZIPEK_clean_linker_0, # of connection points: 2
#     Edge 53, Type (0, 0), BuildingBlock: EZIPEK_clean_linker_0, # of connection points: 2
#     Edge 54, Type (0, 0), BuildingBlock: EZIPEK_clean_linker_0, # of connection points: 2
#     Edge 55, Type (0, 0), BuildingBlock: EZIPEK_clean_linker_0, # of connection points: 2
#     Edge 56, Type (0, 0), BuildingBlock: EZIPEK_clean_linker_0, # of connection points: 2
#     Edge 57, Type (0, 0), BuildingBlock: EZIPEK_clean_linker_0, # of connection points: 2
#     Edge 58, Type (0, 0), BuildingBlock: EZIPEK_clean_linker_0, # of connection points: 2
#     Edge 59, Type (0, 0), BuildingBlock: EZIPEK_clean_linker_0, # of connection points: 2
#     Edge 60, Type (0, 0), BuildingBlock: EZIPEK_clean_linker_0, # of connection points: 2
#     Edge 61, Type (0, 0), BuildingBlock: EZIPEK_clean_linker_0, # of connection points: 2
#     Edge 62, Type (0, 0), BuildingBlock: EZIPEK_clean_linker_0, # of connection points: 2
#     Edge 63, Type (0, 0), BuildingBlock: EZIPEK_clean_linker_0, # of connection points: 2
#     Edge 64, Type (0, 0), BuildingBlock: EZIPEK_clean_linker_0, # of connection points: 2
#     Edge 65, Type (0, 0), BuildingBlock: EZIPEK_clean_linker_0, # of connection points: 2
#     Edge 66, Type (0, 0), BuildingBlock: EZIPEK_clean_linker_0, # of connection points: 2
#     Edge 67, Type (0, 0), BuildingBlock: EZIPEK_clean_linker_0, # of connection points: 2
#     Edge 68, Type (0, 0), BuildingBlock: EZIPEK_clean_linker_0, # of connection points: 2
#     Edge 69, Type (0, 0), BuildingBlock: EZIPEK_clean_linker_0, # of connection points: 2
#     Edge 70, Type (0, 0), BuildingBlock: EZIPEK_clean_linker_0, # of connection points: 2
#     Edge 71, Type (0, 0), BuildingBlock: EZIPEK_clean_linker_0, # of connection points: 2
#     Edge 72, Type (0, 0), BuildingBlock: EZIPEK_clean_linker_0, # of connection points: 2
#     Edge 73, Type (0, 0), BuildingBlock: EZIPEK_clean_linker_0, # of connection points: 2
#     Edge 74, Type (0, 0), BuildingBlock: EZIPEK_clean_linker_0, # of connection points: 2
#     Edge 75, Type (0, 0), BuildingBlock: EZIPEK_clean_linker_0, # of connection points: 2
#     Edge 76, Type (0, 0), BuildingBlock: EZIPEK_clean_linker_0, # of connection points: 2
#     Edge 77, Type (0, 0), BuildingBlock: EZIPEK_clean_linker_0, # of connection points: 2
#     Edge 78, Type (0, 0), BuildingBlock: EZIPEK_clean_linker_0, # of connection points: 2
#     Edge 79, Type (0, 0), BuildingBlock: EZIPEK_clean_linker_0, # of connection points: 2
#     Edge 80, Type (0, 0), BuildingBlock: EZIPEK_clean_linker_0, # of connection points: 2
#     Edge 81, Type (0, 0), BuildingBlock: EZIPEK_clean_linker_0, # of connection points: 2
#     Edge 82, Type (0, 0), BuildingBlock: EZIPEK_clean_linker_0, # of connection points: 2
#     Edge 83, Type (0, 0), BuildingBlock: EZIPEK_clean_linker_0, # of connection points: 2
#     Edge 84, Type (0, 0), BuildingBlock: EZIPEK_clean_linker_0, # of connection points: 2
#     Edge 85, Type (0, 0), BuildingBlock: EZIPEK_clean_linker_0, # of connection points: 2
#     Edge 86, Type (0, 0), BuildingBlock: EZIPEK_clean_linker_0, # of connection points: 2
#     Edge 87, Type (0, 0), BuildingBlock: EZIPEK_clean_linker_0, # of connection points: 2
#     Edge 88, Type (0, 0), BuildingBlock: EZIPEK_clean_linker_0, # of connection points: 2
#     Edge 89, Type (0, 0), BuildingBlock: EZIPEK_clean_linker_0, # of connection points: 2
#     Edge 90, Type (0, 0), BuildingBlock: EZIPEK_clean_linker_0, # of connection points: 2
#     Edge 91, Type (0, 0), BuildingBlock: EZIPEK_clean_linker_0, # of connection points: 2
#     Edge 92, Type (0, 0), BuildingBlock: EZIPEK_clean_linker_0, # of connection points: 2
#     Edge 93, Type (0, 0), BuildingBlock: EZIPEK_clean_linker_0, # of connection points: 2
#     Edge 94, Type (0, 0), BuildingBlock: EZIPEK_clean_linker_0, # of connection points: 2
#     Edge 95, Type (0, 0), BuildingBlock: EZIPEK_clean_linker_0, # of connection points: 2
# Relax obj value: 0.778
# Max RMSD: 0.306
# Mean RMSD: 0.290
data_MOF--net-dia-a--node1-NAHDIM_clean_sbu_0--edge1-EZIPEK_clean_linker_0
_symmetry_space_group_name_H-M    P1
_symmetry_Int_Tables_number       1
_symmetry_cell_setting            triclinic
loop_
_symmetry_equiv_pos_as_xyz
'x, y, z'
_cell_length_a     51.869264
_cell_length_b     46.648743
_cell_length_c     36.547815
_cell_angle_alpha  94.946865
_cell_angle_beta   93.2996
_cell_angle_gamma 88.929652
loop_
_atom_site_label
_atom_site_type_symbol
_atom_site_fract_x
_atom_site_fract_y
_atom_site_fract_z
_atom_type_partial_charge
C0 C 0.06964 0.00767 0.52478 0.0
O1 O 0.06603 0.0321 0.54452 0.0
O2 O 0.11945 0.06413 0.48539 0.0
Zn3 Zn 0.11833 0.03279 0.52032 0.0
O4 O 0.11082 0.05311 0.56875 0.0
C5 C 0.17302 0.02905 0.52976 0.0
O6 O 0.1711 0.05177 0.51082 0.0
O7 O 0.0907 0.00294 0.50893 0.0
C8 C 0.12135 0.07663 0.58065 0.0
O9 O 0.13792 0.08861 0.56102 0.0
C10 C 0.10089 0.08229 0.48416 0.0
O11 O 0.08042 0.07735 0.50207 0.0
O12 O 0.15275 0.01463 0.5319 0.0
C13 C 0.91039 0.16875 0.79234 0.0
O14 O 0.89472 0.17026 0.81946 0.0
O15 O 0.85029 0.21896 0.79363 0.0
Zn16 Zn 0.88673 0.22256 0.77766 0.0
O17 O 0.905 0.24198 0.82302 0.0
C18 C 0.86882 0.25604 0.71581 0.0
O19 O 0.84757 0.2413 0.71648 0.0
O20 O 0.90748 0.18638 0.76773 0.0
C21 C 0.9137 0.26728 0.82388 0.0
O22 O 0.91284 0.28072 0.79372 0.0
C23 C 0.84125 0.24409 0.80189 0.0
O24 O 0.85461 0.26645 0.79503 0.0
O25 O 0.88792 0.24964 0.73714 0.0
C26 C 0.63435 0.27842 0.02032 0.0
O27 O 0.64286 0.25177 0.02047 0.0
O28 O 0.57538 0.22434 0.01925 0.0
Zn29 Zn 0.59462 0.25324 0.05518 0.0
O30 O 0.62253 0.22985 0.07955 0.0
C31 C 0.56703 0.2477 0.11615 0.0
O32 O 0.57132 0.22104 0.10309 0.0
O33 O 0.61223 0.28504 0.03208 0.0
C34 C 0.64038 0.24059 0.10148 0.0
O35 O 0.64146 0.26852 0.10951 0.0
C36 C 0.58317 0.21569 0.9877 0.0
O37 O 0.60281 0.22884 0.97595 0.0
O38 O 0.57311 0.268 0.09738 0.0
C39 C 0.86665 0.03665 0.23479 0.0
O40 O 0.88102 0.04312 0.26497 0.0
O41 O 0.89747 0.9883 0.29874 0.0
Zn42 Zn 0.87081 0.97831 0.25761 0.0
O43 O 0.83732 0.97034 0.28053 0.0
C44 C 0.89087 0.92177 0.24895 0.0
O45 O 0.89726 0.92901 0.28374 0.0
O46 O 0.86231 0.01025 0.22519 0.0
C47 C 0.83658 0.9572 0.3095 0.0
O48 O 0.85814 0.94936 0.32668 0.0
C49 C 0.8913 0.00295 0.32797 0.0
O50 O 0.86836 0.01534 0.32787 0.0
O51 O 0.88095 0.9408 0.22933 0.0
C52 C 0.01439 0.13032 0.78372 0.0
O53 O 0.02574 0.10726 0.76846 0.0
O54 O 0.09227 0.15632 0.8108 0.0
Zn55 Zn 0.06212 0.16152 0.77425 0.0
O56 O 0.06909 0.13587 0.72832 0.0
C57 C 0.07641 0.21025 0.73753 0.0
O58 O 0.09896 0.19705 0.73749 0.0
O59 O 0.02706 0.15335 0.79122 0.0
C60 C 0.09222 0.13069 0.7196 0.0
O61 O 0.11161 0.14045 0.74145 0.0
C62 C 0.09898 0.13066 0.81681 0.0
O63 O 0.08273 0.11015 0.80515 0.0
O64 O 0.0591 0.20152 0.75687 0.0
C65 C 0.72606 0.32664 0.98372 0.0
O66 O 0.74113 0.30398 0.97801 0.0
O67 O 0.79808 0.36134 0.99377 0.0
Zn68 Zn 0.76848 0.3527 0.95564 0.0
O69 O 0.7757 0.3146 0.92662 0.0
C70 C 0.7708 0.4088 0.92499 0.0
O71 O 0.774 0.4196 0.95926 0.0
O72 O 0.73386 0.35123 0.97735 0.0
C73 C 0.78861 0.3147 0.89812 0.0
O74 O 0.79654 0.33923 0.88805 0.0
C75 C 0.81923 0.36992 0.98272 0.0
O76 O 0.82091 0.37398 0.94786 0.0
O77 O 0.76696 0.382 0.91879 0.0
C78 C 0.76885 0.07915 0.20626 0.0
O79 O 0.75528 0.05556 0.20006 0.0
O80 O 0.71005 0.07087 0.15791 0.0
Zn81 Zn 0.71866 0.10272 0.19899 0.0
O82 O 0.70048 0.0992 0.2462 0.0
C83 C 0.70603 0.15042 0.15288 0.0
O84 O 0.71784 0.13539 0.12663 0.0
O85 O 0.75728 0.1034 0.20779 0.0
C86 C 0.67607 0.09645 0.24358 0.0
O87 O 0.66442 0.09092 0.21099 0.0
C88 C 0.69174 0.07295 0.13357 0.0
O89 O 0.67634 0.09554 0.13522 0.0
O90 O 0.70607 0.14136 0.18458 0.0
C91 C 0.98008 0.94186 0.53612 0.0
O92 O 0.96077 0.96035 0.53432 0.0
O93 O 0.91176 0.89782 0.53459 0.0
Zn94 Zn 0.94112 0.90671 0.50421 0.0
O95 O 0.9316 0.93977 0.47351 0.0
C96 C 0.94157 0.84694 0.47619 0.0
O97 O 0.93733 0.84159 0.51 0.0
O98 O 0.97567 0.91522 0.52941 0.0
C99 C 0.91798 0.93598 0.44359 0.0
O100 O 0.90905 0.91036 0.43259 0.0
C101 C 0.89315 0.91576 0.53769 0.0
O102 O 0.89767 0.9425 0.53169 0.0
O103 O 0.94469 0.87258 0.46844 0.0
C104 C 0.5353 0.02736 0.02829 0.0
O105 O 0.5329 0.05412 0.04215 0.0
O106 O 0.58001 0.07563 0.97624 0.0
Zn107 Zn 0.58516 0.04679 0.01455 0.0
O108 O 0.58265 0.07063 0.06258 0.0
C109 C 0.64114 0.03187 0.00966 0.0
O110 O 0.64181 0.05044 0.9847 0.0
O111 O 0.55583 0.01903 0.01288 0.0
C112 C 0.60187 0.07944 0.08328 0.0
O113 O 0.62551 0.07336 0.074 0.0
C114 C 0.59302 0.09855 0.98231 0.0
O115 O 0.61256 0.09935 0.00675 0.0
O116 O 0.61923 0.02549 0.02027 0.0
C117 C 0.93936 0.70141 0.29025 0.0
O118 O 0.93178 0.70712 0.3238 0.0
O119 O 0.86702 0.73728 0.26898 0.0
Zn120 Zn 0.90441 0.7481 0.27561 0.0
O121 O 0.90961 0.76397 0.32836 0.0
C122 C 0.89327 0.80193 0.2508 0.0
O123 O 0.87353 0.79774 0.27056 0.0
O124 O 0.92975 0.71556 0.26441 0.0
C125 C 0.93073 0.77502 0.34135 0.0
O126 O 0.95064 0.7747 0.32071 0.0
C127 C 0.85618 0.7269 0.29508 0.0
O128 O 0.87116 0.71871 0.3226 0.0
O129 O 0.90978 0.78171 0.24561 0.0
C130 C 0.1555 0.27981 0.51238 0.0
O131 O 0.17141 0.25819 0.5178 0.0
O132 O 0.11493 0.2115 0.53293 0.0
Zn133 Zn 0.12755 0.24934 0.55923 0.0
O134 O 0.16141 0.24006 0.58504 0.0
C135 C 0.08301 0.25366 0.60473 0.0
O136 O 0.07287 0.23546 0.57861 0.0
O137 O 0.13355 0.28063 0.52616 0.0
C138 C 0.16034 0.22251 0.60951 0.0
O139 O 0.1378 0.21288 0.61717 0.0
C140 C 0.12115 0.2017 0.50102 0.0
O141 O 0.13449 0.21765 0.48127 0.0
O142 O 0.1053 0.26321 0.60056 0.0
C143 C 0.86191 0.48882 0.70677 0.0
O144 O 0.88682 0.48701 0.7151 0.0
O145 O 0.89007 0.44249 0.77106 0.0
Zn146 Zn 0.85666 0.43521 0.74204 0.0
O147 O 0.82913 0.43501 0.77881 0.0
C148 C 0.86805 0.37569 0.72907 0.0
O149 O 0.87916 0.38108 0.76207 0.0
O150 O 0.84714 0.46849 0.71266 0.0
C151 C 0.83359 0.42653 0.81072 0.0
O152 O 0.85663 0.41666 0.82037 0.0
C153 C 0.89165 0.46402 0.79484 0.0
O154 O 0.87165 0.48166 0.79695 0.0
O155 O 0.85744 0.39624 0.71271 0.0
C156 C 0.49962 0.16691 0.30602 0.0
O157 O 0.50722 0.19373 0.30998 0.0
O158 O 0.58171 0.15749 0.31198 0.0
Zn159 Zn 0.54926 0.15989 0.27905 0.0
O160 O 0.55726 0.13344 0.23558 0.0
C161 C 0.55751 0.21911 0.25612 0.0
O162 O 0.57985 0.21879 0.27496 0.0
O163 O 0.51575 0.14712 0.29698 0.0
C164 C 0.57755 0.1398 0.22041 0.0
O165 O 0.59127 0.16198 0.23402 0.0
C166 C 0.58952 0.132 0.31694 0.0
O167 O 0.57273 0.11126 0.30937 0.0
O168 O 0.54302 0.1975 0.25622 0.0
C169 C 0.73058 0.81557 0.4352 0.0
O170 O 0.75091 0.80153 0.44785 0.0
O171 O 0.79067 0.85699 0.45153 0.0
Zn172 Zn 0.77 0.84421 0.40441 0.0
O173 O 0.78717 0.80942 0.3792 0.0
C174 C 0.76361 0.90126 0.38041 0.0
O175 O 0.75422 0.90685 0.41287 0.0
O176 O 0.73363 0.83597 0.41517 0.0
C177 C 0.77614 0.79459 0.35213 0.0
O178 O 0.7522 0.80067 0.3415 0.0
C179 C 0.81119 0.87102 0.44912 0.0
O180 O 0.81832 0.8767 0.41665 0.0
O181 O 0.77049 0.87558 0.37075 0.0
C182 C 0.27889 0.06629 0.74507 0.0
O183 O 0.25749 0.05142 0.7416 0.0
O184 O 0.23536 0.07679 0.67944 0.0
Zn185 Zn 0.2417 0.1048 0.7246 0.0
O186 O 0.2154 0.1015 0.76369 0.0
C187 C 0.2251 0.14925 0.68043 0.0
O188 O 0.21222 0.12735 0.6643 0.0
O189 O 0.27755 0.09323 0.74218 0.0
C190 C 0.19387 0.11491 0.76058 0.0
O191 O 0.18884 0.12989 0.73224 0.0
C192 C 0.21422 0.06607 0.66621 0.0
O193 O 0.19312 0.07142 0.68398 0.0
O194 O 0.24037 0.14555 0.70818 0.0
C195 C 0.99807 0.4353 0.01492 0.0
O196 O 0.97787 0.44966 0.02729 0.0
O197 O 0.93095 0.40323 0.01709 0.0
Zn198 Zn 0.96012 0.39724 0.98289 0.0
O199 O 0.95266 0.42081 0.93995 0.0
C200 C 0.93999 0.34946 0.9426 0.0
O201 O 0.92007 0.36723 0.94402 0.0
O202 O 0.99528 0.40969 0.00085 0.0
C203 C 0.93072 0.43115 0.93053 0.0
O204 O 0.91105 0.42854 0.95103 0.0
C205 C 0.92181 0.38209 0.03166 0.0
O206 O 0.93514 0.35784 0.02978 0.0
O207 O 0.96083 0.35646 0.96077 0.0
C208 C 0.0918 0.49311 0.98638 0.0
O209 O 0.09281 0.51182 0.96163 0.0
O210 O 0.13873 0.55107 0.98491 0.0
Zn211 Zn 0.13555 0.52282 0.023 0.0
O212 O 0.1201 0.54356 0.06696 0.0
C213 C 0.19118 0.5101 0.02824 0.0
O214 O 0.1918 0.52019 0.99588 0.0
O215 O 0.11006 0.49175 0.01069 0.0
C216 C 0.11835 0.52717 0.09266 0.0
O217 O 0.12802 0.50093 0.08895 0.0
C218 C 0.14882 0.57464 0.99801 0.0
O219 O 0.15782 0.57715 0.03246 0.0
O220 O 0.16948 0.50773 0.04192 0.0
C221 C 0.48337 0.41849 0.53013 0.0
O222 O 0.46262 0.4343 0.52424 0.0
O223 O 0.41652 0.375 0.52852 0.0
Zn224 Zn 0.4487 0.37674 0.49993 0.0
O225 O 0.43962 0.40276 0.46007 0.0
C226 C 0.4404 0.31784 0.47054 0.0
O227 O 0.42454 0.31684 0.49709 0.0
O228 O 0.48161 0.39131 0.52627 0.0
C229 C 0.45479 0.40435 0.4343 0.0
O230 O 0.47702 0.39044 0.43513 0.0
C231 C 0.40195 0.39718 0.53227 0.0
O232 O 0.41084 0.42167 0.52338 0.0
O233 O 0.45479 0.33946 0.47021 0.0
C234 C 0.12407 0.77413 0.99482 0.0
O235 O 0.1186 0.75435 0.96782 0.0
O236 O 0.1278 0.69694 0.99258 0.0
Zn237 Zn 0.12674 0.72475 0.03766 0.0
O238 O 0.15868 0.71814 0.06994 0.0
C239 C 0.08336 0.69197 0.05649 0.0
O240 O 0.08017 0.68478 0.02101 0.0
O241 O 0.1263 0.7663 0.0273 0.0
C242 C 0.16245 0.69225 0.07731 0.0
O243 O 0.14672 0.67228 0.06237 0.0
C244 C 0.14888 0.68823 0.97911 0.0
O245 O 0.17008 0.70172 0.99127 0.0
O246 O 0.09874 0.71205 0.06825 0.0
C247 C 0.02028 0.61593 0.26604 0.0
O248 O 0.01434 0.5887 0.25893 0.0
O249 O 0.10567 0.60139 0.25816 0.0
Zn250 Zn 0.0685 0.59561 0.2394 0.0
O251 O 0.05705 0.55522 0.24491 0.0
C252 C 0.07042 0.63144 0.18311 0.0
O253 O 0.07519 0.64906 0.21263 0.0
O254 O 0.04337 0.62376 0.26314 0.0
C255 C 0.06079 0.53412 0.22145 0.0
O256 O 0.05182 0.50872 0.22654 0.0
C257 C 0.1159 0.59598 0.2893 0.0
O258 O 0.10155 0.58701 0.31436 0.0
O259 O 0.06649 0.60502 0.18665 0.0
C260 C 0.20972 0.83302 0.97001 0.0
O261 O 0.22627 0.81362 0.98136 0.0
O262 O 0.27911 0.86752 0.98398 0.0
Zn263 Zn 0.25518 0.85146 0.94152 0.0
O264 O 0.26453 0.81019 0.92524 0.0
C265 C 0.28341 0.88095 0.89198 0.0
O266 O 0.30181 0.87804 0.91766 0.0
O267 O 0.21767 0.85344 0.95298 0.0
C268 C 0.28787 0.80159 0.92685 0.0
O269 O 0.30554 0.81879 0.94325 0.0
C270 C 0.28686 0.854 0.01144 0.0
O271 O 0.27805 0.828 0.0133 0.0
O272 O 0.2608 0.87243 0.89663 0.0
C273 C 0.35903 0.98268 0.75409 0.0
O274 O 0.35806 0.9736 0.78703 0.0
O275 O 0.40642 0.93379 0.79218 0.0
Zn276 Zn 0.38195 0.92929 0.74779 0.0
O277 O 0.35142 0.91343 0.77025 0.0
C278 C 0.38306 0.87776 0.69864 0.0
O279 O 0.3579 0.88175 0.69749 0.0
O280 O 0.37139 0.96762 0.73004 0.0
C281 C 0.32725 0.91516 0.76308 0.0
O282 O 0.31801 0.92726 0.73386 0.0
C283 C 0.4105 0.90946 0.8048 0.0
O284 O 0.40153 0.88628 0.78577 0.0
O285 O 0.39698 0.89858 0.7123 0.0
C286 C 0.45858 0.94312 0.04881 0.0
O287 O 0.43355 0.94803 0.04589 0.0
O288 O 0.40903 0.88423 0.05324 0.0
Zn289 Zn 0.44272 0.88638 0.02798 0.0
O290 O 0.43255 0.89739 0.97762 0.0
C291 C 0.45334 0.82379 0.02242 0.0
O292 O 0.43475 0.82212 0.04502 0.0
O293 O 0.46706 0.91738 0.04746 0.0
C294 C 0.44924 0.89589 0.95338 0.0
O295 O 0.47315 0.88834 0.96223 0.0
C296 C 0.39178 0.86975 0.03395 0.0
O297 O 0.39768 0.85624 0.0025 0.0
O298 O 0.46103 0.84859 0.01677 0.0
C299 C 0.3101 0.60014 0.21269 0.0
O300 O 0.30361 0.6159 0.18542 0.0
O301 O 0.25327 0.56718 0.17056 0.0
Zn302 Zn 0.25603 0.59636 0.21437 0.0
O303 O 0.23 0.58918 0.25179 0.0
C304 C 0.22393 0.63385 0.17942 0.0
O305 O 0.20948 0.61159 0.18307 0.0
O306 O 0.2928 0.59251 0.23294 0.0
C307 C 0.22192 0.61058 0.27221 0.0
O308 O 0.23219 0.63568 0.26906 0.0
C309 C 0.23394 0.55141 0.16133 0.0
O310 O 0.21496 0.55085 0.18354 0.0
O311 O 0.24693 0.63423 0.19349 0.0
C312 C 0.43179 0.68009 0.82944 0.0
O313 O 0.41845 0.68166 0.85905 0.0
O314 O 0.37214 0.72897 0.83292 0.0
Zn315 Zn 0.4092 0.73558 0.81978 0.0
O316 O 0.4301 0.75313 0.86463 0.0
C317 C 0.39301 0.77342 0.761 0.0
O318 O 0.36957 0.76483 0.76556 0.0
O319 O 0.4284 0.69903 0.80658 0.0
C320 C 0.42201 0.75591 0.89691 0.0
O321 O 0.39889 0.74692 0.90241 0.0
C322 C 0.35898 0.75124 0.84297 0.0
O323 O 0.36935 0.7767 0.84271 0.0
O324 O 0.41192 0.76255 0.779 0.0
C325 C 0.5563 0.50329 0.51238 0.0
O326 O 0.54768 0.52876 0.52457 0.0
O327 O 0.58893 0.56482 0.45756 0.0
Zn328 Zn 0.5985 0.53716 0.4961 0.0
O329 O 0.5936 0.56008 0.54396 0.0
C330 C 0.65137 0.54845 0.49398 0.0
O331 O 0.64074 0.5728 0.48483 0.0
O332 O 0.57754 0.5013 0.49656 0.0
C333 C 0.60751 0.55619 0.57287 0.0
O334 O 0.62571 0.53623 0.57223 0.0
C335 C 0.56939 0.5814 0.46186 0.0
O336 O 0.55287 0.575 0.48569 0.0
O337 O 0.63641 0.52769 0.49716 0.0
C338 C 0.6366 0.77102 0.48095 0.0
O339 O 0.63496 0.7438 0.4687 0.0
O340 O 0.59026 0.71831 0.4981 0.0
Zn341 Zn 0.60676 0.75032 0.53332 0.0
O342 O 0.63657 0.73521 0.56423 0.0
C343 C 0.57695 0.74722 0.59298 0.0
O344 O 0.57776 0.72022 0.57968 0.0
O345 O 0.62266 0.78077 0.50676 0.0
C346 C 0.65512 0.71838 0.55556 0.0
O347 O 0.65727 0.70873 0.52104 0.0
C348 C 0.59428 0.69198 0.50363 0.0
O349 O 0.60841 0.68527 0.53262 0.0
O350 O 0.58392 0.7665 0.57323 0.0
C351 C 0.78361 0.57029 0.6853 0.0
O352 O 0.76324 0.55424 0.67678 0.0
O353 O 0.73558 0.58678 0.62502 0.0
Zn354 Zn 0.74438 0.60883 0.67454 0.0
O355 O 0.71952 0.60144 0.71443 0.0
C356 C 0.71607 0.65302 0.65045 0.0
O357 O 0.70014 0.63163 0.65182 0.0
O358 O 0.78094 0.5975 0.68804 0.0
C359 C 0.71135 0.62278 0.73502 0.0
O360 O 0.7216 0.64805 0.73287 0.0
C361 C 0.71587 0.57138 0.61664 0.0
O362 O 0.701 0.56515 0.64258 0.0
O363 O 0.73944 0.65 0.66223 0.0
C364 C 0.52873 0.63456 0.79213 0.0
O365 O 0.53729 0.61079 0.7747 0.0
O366 O 0.60773 0.65884 0.78976 0.0
Zn367 Zn 0.57235 0.6625 0.76386 0.0
O368 O 0.57204 0.63245 0.72141 0.0
C369 C 0.58356 0.71779 0.73466 0.0
O370 O 0.60743 0.71287 0.74679 0.0
O371 O 0.54187 0.65741 0.79384 0.0
C372 C 0.59161 0.63265 0.70209 0.0
O373 O 0.60962 0.65186 0.7108 0.0
C374 C 0.61432 0.63368 0.79803 0.0
O375 O 0.59611 0.61446 0.79717 0.0
O376 O 0.56657 0.6996 0.73996 0.0
C377 C 0.22227 0.35082 0.44876 0.0
O378 O 0.24329 0.33477 0.45051 0.0
O379 O 0.28427 0.385 0.46438 0.0
Zn380 Zn 0.25847 0.38344 0.42017 0.0
O381 O 0.27032 0.3491 0.38795 0.0
C382 C 0.28003 0.41888 0.3727 0.0
O383 O 0.29847 0.39974 0.37783 0.0
O384 O 0.22313 0.37529 0.43619 0.0
C385 C 0.25804 0.33474 0.36161 0.0
O386 O 0.23435 0.34218 0.35143 0.0
C387 C 0.30215 0.40329 0.47097 0.0
O388 O 0.3024 0.42575 0.45178 0.0
O389 O 0.2595 0.41788 0.38991 0.0
C390 C 0.3856 0.51764 0.23867 0.0
O391 O 0.39107 0.51516 0.27379 0.0
O392 O 0.41023 0.45487 0.28077 0.0
Zn393 Zn 0.38241 0.45681 0.24049 0.0
O394 O 0.34875 0.45204 0.26415 0.0
C395 C 0.37184 0.40327 0.19597 0.0
O396 O 0.34783 0.41015 0.20291 0.0
O397 O 0.38189 0.49463 0.21782 0.0
C398 C 0.3294 0.46914 0.26513 0.0
O399 O 0.32904 0.4925 0.24746 0.0
C400 C 0.4046 0.45874 0.31422 0.0
O401 O 0.38172 0.46892 0.32253 0.0
O402 O 0.38925 0.42149 0.20619 0.0
C403 C 0.39526 0.18885 0.28889 0.0
O404 O 0.38471 0.19855 0.31943 0.0
O405 O 0.33672 0.24549 0.27444 0.0
Zn406 Zn 0.37535 0.24282 0.26924 0.0
O407 O 0.39088 0.25936 0.31781 0.0
C408 C 0.36931 0.28824 0.22019 0.0
O409 O 0.34486 0.2855 0.22653 0.0
O410 O 0.39133 0.2033 0.26103 0.0
C411 C 0.41479 0.2613 0.32691 0.0
O412 O 0.43197 0.25219 0.30337 0.0
C413 C 0.32846 0.24777 0.3067 0.0
O414 O 0.34351 0.23972 0.33415 0.0
O415 O 0.38565 0.27003 0.23196 0.0
C416 C 0.02221 0.96047 0.56423 0.0
C417 C 0.00631 0.95239 0.53246 0.0
C418 C 0.03517 0.97577 0.49374 0.0
C419 C 0.05055 0.98479 0.52575 0.0
N420 N 0.06345 0.97934 0.58918 0.0
N421 N 0.00062 0.94531 0.46629 0.0
C422 C 0.04558 0.97499 0.56034 0.0
C423 C 0.01389 0.9576 0.49691 0.0
N424 N 0.01448 0.95515 0.5981 0.0
N425 N 0.03993 0.98598 0.46084 0.0
H426 H 0.98475 0.93212 0.46762 0.0
H427 H 0.00658 0.94604 0.43968 0.0
H428 H 0.05568 0.99886 0.4574 0.0
H429 H 0.02753 0.98313 0.43743 0.0
H430 H 0.02362 0.96346 0.62274 0.0
H431 H 0.99799 0.9434 0.60153 0.0
H432 H 0.06209 0.97067 0.6143 0.0
H433 H 0.08099 0.98946 0.5868 0.0
C434 C 0.94162 0.13397 0.76277 0.0
C435 C 0.93477 0.15167 0.79426 0.0
C436 C 0.97775 0.14322 0.82309 0.0
C437 C 0.98618 0.13142 0.78879 0.0
N438 N 0.97605 0.11698 0.72433 0.0
N439 N 0.94787 0.17601 0.85366 0.0
C440 C 0.96803 0.12652 0.75828 0.0
C441 C 0.95302 0.15662 0.82467 0.0
N442 N 0.92284 0.12457 0.73701 0.0
N443 N 0.99366 0.14201 0.85405 0.0
H444 H 0.93061 0.18758 0.85584 0.0
H445 H 0.96179 0.18269 0.87417 0.0
H446 H 0.01185 0.13204 0.85352 0.0
H447 H 0.98772 0.14801 0.88041 0.0
H448 H 0.92628 0.10946 0.71508 0.0
H449 H 0.90334 0.12969 0.73985 0.0
H450 H 0.964 0.11653 0.70048 0.0
H451 H 0.99512 0.11153 0.7192 0.0
C452 C 0.68206 0.31003 0.96247 0.0
C453 C 0.69884 0.32245 0.99124 0.0
C454 C 0.6659 0.31781 0.03553 0.0
C455 C 0.65169 0.30009 0.00839 0.0
N456 N 0.64374 0.2817 0.94541 0.0
N457 N 0.70695 0.34036 0.0545 0.0
C458 C 0.65881 0.29739 0.97143 0.0
C459 C 0.69059 0.3276 0.02751 0.0
N460 N 0.68852 0.3104 0.92676 0.0
N461 N 0.65589 0.32478 0.06895 0.0
H462 H 0.72479 0.34855 0.04907 0.0
H463 H 0.70347 0.34181 0.08236 0.0
H464 H 0.63768 0.31814 0.07512 0.0
H465 H 0.66435 0.33921 0.08923 0.0
H466 H 0.67637 0.30366 0.90415 0.0
H467 H 0.70546 0.31973 0.9196 0.0
H468 H 0.64914 0.2757 0.91883 0.0
H469 H 0.62569 0.27412 0.951 0.0
C470 C 0.81219 0.08793 0.23991 0.0
C471 C 0.79739 0.07701 0.20804 0.0
C472 C 0.83544 0.05126 0.18468 0.0
C473 C 0.84867 0.05842 0.21915 0.0
N474 N 0.85528 0.09639 0.26752 0.0
N475 N 0.79684 0.0574 0.14484 0.0
C476 C 0.83895 0.08112 0.24289 0.0
C477 C 0.80975 0.06171 0.17849 0.0
N478 N 0.8006 0.10309 0.26827 0.0
N479 N 0.8474 0.03381 0.15872 0.0
H480 H 0.77829 0.06568 0.13961 0.0
H481 H 0.80502 0.04773 0.12145 0.0
H482 H 0.86692 0.02818 0.16214 0.0
H483 H 0.8383 0.02496 0.13435 0.0
H484 H 0.81018 0.10858 0.29369 0.0
H485 H 0.78101 0.10849 0.2674 0.0
H486 H 0.84938 0.11436 0.28406 0.0
H487 H 0.87527 0.09354 0.26738 0.0
C488 C 0.51402 0.99553 0.06885 0.0
C489 C 0.51522 0.00646 0.03391 0.0
C490 C 0.47698 0.97913 0.01072 0.0
C491 C 0.47689 0.96645 0.0448 0.0
N492 N 0.49602 0.9605 0.10538 0.0
N493 N 0.50018 0.00694 0.97042 0.0
C494 C 0.49562 0.9741 0.07365 0.0
C495 C 0.49729 0.99786 0.00455 0.0
N496 N 0.53035 0.00588 0.09751 0.0
N497 N 0.45765 0.97335 0.98418 0.0
H498 H 0.51426 0.02151 0.96519 0.0
H499 H 0.48989 0.99869 0.94668 0.0
H500 H 0.4436 0.95793 0.98568 0.0
H501 H 0.45464 0.98488 0.96112 0.0
H502 H 0.52865 0.00138 0.12465 0.0
H503 H 0.54494 0.02049 0.09464 0.0
H504 H 0.51092 0.96235 0.12572 0.0
H505 H 0.4819 0.94602 0.11073 0.0
C506 C 0.98424 0.68275 0.30371 0.0
C507 C 0.9602 0.67985 0.28325 0.0
C508 C 0.97713 0.63747 0.24791 0.0
C509 C -0.00043 0.63784 0.27223 0.0
N510 N 0.02221 0.65827 0.32775 0.0
N511 N 0.9321 0.65128 0.24015 0.0
C512 C 0.00251 0.65976 0.30146 0.0
C513 C 0.95612 0.65628 0.25655 0.0
N514 N 0.99024 0.70803 0.32376 0.0
N515 N 0.97633 0.62047 0.21548 0.0
H516 H 0.91607 0.66433 0.24609 0.0
H517 H 0.92762 0.63264 0.22335 0.0
H518 H 0.99191 0.60782 0.20659 0.0
H519 H 0.96132 0.62153 0.19541 0.0
H520 H 0.00843 0.71217 0.33656 0.0
H521 H 0.97809 0.72605 0.32376 0.0
H522 H 0.02365 0.67235 0.35149 0.0
H523 H 0.03558 0.6413 0.32777 0.0
C524 C 0.19515 0.34445 0.50143 0.0
C525 C 0.19853 0.34042 0.46315 0.0
C526 C 0.16656 0.30223 0.45591 0.0
C527 C 0.16498 0.30443 0.4946 0.0
N528 N 0.17157 0.33183 0.55319 0.0
N529 N 0.1828 0.32236 0.40265 0.0
C530 C 0.17706 0.32722 0.517 0.0
C531 C 0.18249 0.32162 0.43989 0.0
N532 N 0.2103 0.36364 0.52292 0.0
N533 N 0.15364 0.28084 0.43491 0.0
H534 H 0.19403 0.33696 0.39074 0.0
H535 H 0.1705 0.31055 0.3838 0.0
H536 H 0.14073 0.26748 0.44594 0.0
H537 H 0.15612 0.27577 0.40704 0.0
H538 H 0.21118 0.36539 0.55153 0.0
H539 H 0.22283 0.37742 0.51185 0.0
H540 H 0.17815 0.34935 0.57053 0.0
H541 H 0.1586 0.31922 0.56528 0.0
C542 C 0.81691 0.53809 0.65673 0.0
C543 C 0.80933 0.55622 0.68752 0.0
C544 C 0.84601 0.53849 0.72464 0.0
C545 C 0.84963 0.51604 0.69658 0.0
N546 N 0.84064 0.49526 0.63482 0.0
N547 N 0.81667 0.57472 0.75086 0.0
C548 C 0.836 0.51641 0.66198 0.0
C549 C 0.82428 0.55732 0.72129 0.0
N550 N 0.80578 0.54179 0.6226 0.0
N551 N 0.86296 0.54138 0.75469 0.0
H552 H 0.80108 0.58908 0.74931 0.0
H553 H 0.82481 0.57381 0.77745 0.0
H554 H 0.87912 0.52804 0.75775 0.0
H555 H 0.86258 0.55867 0.77467 0.0
H556 H 0.81176 0.53079 0.59849 0.0
H557 H 0.79205 0.55794 0.6181 0.0
H558 H 0.82928 0.49206 0.61044 0.0
H559 H 0.85562 0.48018 0.63744 0.0
C560 C 0.46005 0.16166 0.26385 0.0
C561 C 0.4717 0.16141 0.30003 0.0
C562 C 0.42897 0.16159 0.32503 0.0
C563 C 0.41812 0.16883 0.29051 0.0
N564 N 0.42023 0.15937 0.22526 0.0
N565 N 0.46786 0.15798 0.36481 0.0
C566 C 0.43273 0.16343 0.25916 0.0
C567 C 0.4563 0.15976 0.33053 0.0
N568 N 0.47508 0.16231 0.23441 0.0
N569 N 0.41306 0.15545 0.35168 0.0
H570 H 0.48781 0.15548 0.36921 0.0
H571 H 0.45789 0.16014 0.38883 0.0
H572 H 0.39311 0.15399 0.34644 0.0
H573 H 0.41961 0.1484 0.37687 0.0
H574 H 0.46779 0.1662 0.20814 0.0
H575 H 0.49516 0.1604 0.23653 0.0
H576 H 0.4295 0.1533 0.20122 0.0
H577 H 0.40009 0.15883 0.22216 0.0
C578 C 0.68491 0.79925 0.4201 0.0
C579 C 0.70465 0.80888 0.44661 0.0
C580 C 0.67838 0.79691 0.49642 0.0
C581 C 0.6583 0.78788 0.47002 0.0
N582 N 0.6398 0.78688 0.40801 0.0
N583 N 0.71709 0.82501 0.50945 0.0
C584 C 0.66073 0.7912 0.43221 0.0
C585 C 0.70036 0.81034 0.48462 0.0
N586 N 0.68968 0.79624 0.38358 0.0
N587 N 0.6775 0.791 0.53233 0.0
H588 H 0.73319 0.83559 0.50166 0.0
H589 H 0.71351 0.82926 0.53717 0.0
H590 H 0.66211 0.78091 0.54268 0.0
H591 H 0.69317 0.79385 0.55137 0.0
H592 H 0.67711 0.78614 0.36346 0.0
H593 H 0.7071 0.8019 0.37353 0.0
H594 H 0.63959 0.7916 0.38066 0.0
H595 H 0.62179 0.78119 0.41627 0.0
C596 C 0.30721 0.03067 0.71194 0.0
C597 C 0.3038 0.0505 0.74288 0.0
C598 C 0.34379 0.03265 0.77203 0.0
C599 C 0.34349 0.00854 0.7454 0.0
N600 N 0.32326 0.98397 0.68999 0.0
N601 N 0.31901 0.07139 0.80254 0.0
C602 C 0.32515 0.00759 0.71482 0.0
C603 C 0.32241 0.0522 0.77277 0.0
N604 N 0.2933 0.03406 0.67966 0.0
N605 N 0.36464 0.03683 0.79637 0.0
H606 H 0.30385 0.0864 0.80345 0.0
H607 H 0.33033 0.07135 0.82702 0.0
H608 H 0.38087 0.02327 0.79557 0.0
H609 H 0.36698 0.05517 0.81455 0.0
H610 H 0.29664 0.02184 0.65511 0.0
H611 H 0.28052 0.05132 0.67654 0.0
H612 H 0.30787 0.98094 0.67049 0.0
H613 H 0.33571 0.96629 0.69003 0.0
C614 C 0.02057 0.47731 0.99269 0.0
C615 C 0.02204 0.45047 0.00839 0.0
C616 C 0.06873 0.4491 0.0014 0.0
C617 C 0.06757 0.47791 0.99152 0.0
N618 N 0.04218 0.52211 0.98972 0.0
N619 N 0.04867 0.41338 0.03424 0.0
C620 C 0.04347 0.49288 0.99054 0.0
C621 C 0.04649 0.43705 0.01468 0.0
N622 N 0.99776 0.48745 0.97783 0.0
N623 N 0.09074 0.43292 0.99708 0.0
H624 H 0.03295 0.40458 0.04565 0.0
H625 H 0.06642 0.40442 0.0424 0.0
H626 H 0.10705 0.44056 0.98583 0.0
H627 H 0.09177 0.41103 0.00086 0.0
H628 H 0.99665 0.50589 0.96355 0.0
H629 H 0.98075 0.47574 0.97531 0.0
H630 H 0.02489 0.53371 0.99216 0.0
H631 H 0.05836 0.53513 0.99148 0.0
C632 C 0.52381 0.43011 0.50142 0.0
C633 C 0.50866 0.43282 0.53259 0.0
C634 C 0.53257 0.47586 0.55568 0.0
C635 C 0.54231 0.47725 0.52025 0.0
N636 N 0.54462 0.45623 0.45749 0.0
N637 N 0.4993 0.45744 0.59091 0.0
C638 C 0.53768 0.45428 0.49269 0.0
C639 C 0.51347 0.45533 0.56042 0.0
N640 N 0.52482 0.40473 0.48001 0.0
N641 N 0.54203 0.49358 0.58489 0.0
H642 H 0.48638 0.44156 0.59606 0.0
H643 H 0.49962 0.47535 0.61004 0.0
H644 H 0.55697 0.50786 0.58279 0.0
H645 H 0.53712 0.49184 0.61184 0.0
H646 H 0.53713 0.40119 0.45847 0.0
H647 H 0.51595 0.38618 0.48669 0.0
H648 H 0.53909 0.44121 0.43581 0.0
H649 H 0.55348 0.47415 0.44895 0.0
C650 C 0.14174 0.80605 0.95057 0.0
C651 C 0.13632 0.80159 0.98707 0.0
C652 C 0.17272 0.83159 0.01045 0.0
C653 C 0.18193 0.82916 0.97452 0.0
N654 N 0.17419 0.81744 0.90916 0.0
N655 N 0.13718 0.82358 0.0489 0.0
C656 C 0.16576 0.81823 0.94397 0.0
C657 C 0.14875 0.81892 0.01628 0.0
N658 N 0.12365 0.79918 0.92278 0.0
N659 N 0.18754 0.84465 0.03899 0.0
H660 H 0.11871 0.81595 0.05208 0.0
H661 H 0.14436 0.83728 0.07096 0.0
H662 H 0.20456 0.85526 0.03494 0.0
H663 H 0.18343 0.84435 0.06649 0.0
H664 H 0.12556 0.80361 0.89564 0.0
H665 H 0.10535 0.79216 0.92812 0.0
H666 H 0.16467 0.80654 0.88639 0.0
H667 H 0.19144 0.82668 0.9032 0.0
C668 C 0.37313 0.56994 0.25198 0.0
C669 C 0.37599 0.54583 0.22614 0.0
C670 C 0.34203 0.56446 0.18547 0.0
C671 C 0.33552 0.58528 0.21445 0.0
N672 N 0.34624 0.61046 0.27355 0.0
N673 N 0.37451 0.53092 0.1616 0.0
C674 C 0.35183 0.58917 0.247 0.0
C675 C 0.36414 0.54665 0.19052 0.0
N676 N 0.39153 0.57499 0.27992 0.0
N677 N 0.32599 0.55974 0.15458 0.0
H678 H 0.39188 0.51948 0.16479 0.0
H679 H 0.36793 0.53231 0.13432 0.0
H680 H 0.30912 0.57155 0.14961 0.0
H681 H 0.32837 0.54243 0.13502 0.0
H682 H 0.39159 0.59301 0.2988 0.0
H683 H 0.40851 0.56267 0.28131 0.0
H684 H 0.35543 0.61248 0.2997 0.0
H685 H 0.33161 0.62574 0.26966 0.0
C686 C 0.49922 0.64812 0.84202 0.0
C687 C 0.50227 0.63673 0.80538 0.0
C688 C 0.45576 0.64275 0.79189 0.0
C689 C 0.45414 0.66013 0.82537 0.0
N690 N 0.47501 0.68073 0.88244 0.0
N691 N 0.48329 0.62369 0.74421 0.0
C692 C 0.47584 0.66264 0.85102 0.0
C693 C 0.4804 0.63343 0.78012 0.0
N694 N 0.51895 0.6454 0.86796 0.0
N695 N 0.43369 0.63559 0.77118 0.0
H696 H 0.50084 0.61663 0.73402 0.0
H697 H 0.4685 0.6244 0.72378 0.0
H698 H 0.41543 0.64221 0.77949 0.0
H699 H 0.43329 0.62087 0.74805 0.0
H700 H 0.51714 0.65099 0.89592 0.0
H701 H 0.53623 0.6347 0.86179 0.0
H702 H 0.49129 0.68599 0.89957 0.0
H703 H 0.45859 0.69227 0.8903 0.0
C704 C 0.0894 0.16212 0.48283 0.0
C705 C 0.11542 0.17136 0.48772 0.0
C706 C 0.13039 0.12213 0.47021 0.0
C707 C 0.10507 0.11215 0.47337 0.0
N708 N 0.0599 0.12288 0.46404 0.0
N709 N 0.16112 0.15972 0.48807 0.0
C710 C 0.08428 0.13231 0.47404 0.0
C711 C 0.13606 0.15137 0.48124 0.0
N712 N 0.0697 0.18173 0.48759 0.0
N713 N 0.14856 0.10416 0.45471 0.0
H714 H 0.1664 0.18075 0.49679 0.0
H715 H 0.17664 0.14521 0.48819 0.0
H716 H 0.14395 0.08383 0.44217 0.0
H717 H 0.1669 0.11086 0.44928 0.0
H718 H 0.05046 0.1762 0.48887 0.0
H719 H 0.07274 0.20385 0.49164 0.0
H720 H 0.04378 0.13631 0.4615 0.0
H721 H 0.05641 0.10156 0.45414 0.0
C722 C 0.89165 0.33074 0.70696 0.0
C723 C 0.86778 0.34559 0.71216 0.0
C724 C 0.84471 0.30041 0.69664 0.0
C725 C 0.86836 0.28515 0.70116 0.0
N726 N 0.91385 0.28488 0.69293 0.0
N727 N 0.82113 0.34468 0.71152 0.0
C728 C 0.89181 0.30016 0.70058 0.0
C729 C 0.8441 0.33062 0.70594 0.0
N730 N 0.91406 0.34594 0.70952 0.0
N731 N 0.8232 0.28631 0.68202 0.0
H732 H 0.81965 0.3668 0.71814 0.0
H733 H 0.80369 0.33405 0.71206 0.0
H734 H 0.82402 0.26496 0.67098 0.0
H735 H 0.80574 0.29671 0.67588 0.0
H736 H 0.93243 0.33665 0.7097 0.0
H737 H 0.91423 0.3684 0.7119 0.0
H738 H 0.93177 0.29398 0.69063 0.0
H739 H 0.91352 0.26274 0.68563 0.0
C740 C 0.59647 0.14142 0.94641 0.0
C741 C 0.58255 0.12628 0.97069 0.0
C742 C 0.5579 0.17024 0.98802 0.0
C743 C 0.57614 0.18613 0.97116 0.0
N744 N 0.60132 0.18612 0.918 0.0
N745 N 0.54799 0.12531 0.01228 0.0
C746 C 0.59186 0.17147 0.94494 0.0
C747 C 0.56203 0.14019 0.98989 0.0
N748 N 0.61496 0.1273 0.92635 0.0
N749 N 0.53649 0.18397 0.00133 0.0
H750 H 0.54988 0.10317 0.01373 0.0
H751 H 0.53533 0.13508 0.03079 0.0
H752 H 0.53267 0.20565 0.99777 0.0
H753 H 0.52133 0.17345 0.01171 0.0
H754 H 0.62798 0.13764 0.91148 0.0
H755 H 0.61776 0.10504 0.92576 0.0
H756 H 0.61174 0.17644 0.89665 0.0
H757 H 0.59578 0.20739 0.91456 0.0
C758 C 0.91869 0.84756 0.24919 0.0
C759 C 0.89651 0.83088 0.23774 0.0
C760 C 0.87321 0.87419 0.22006 0.0
C761 C 0.89443 0.89119 0.2348 0.0
N762 N 0.94008 0.89347 0.24942 0.0
N763 N 0.855 0.82735 0.20443 0.0
C764 C 0.91813 0.87752 0.24452 0.0
C765 C 0.87482 0.84391 0.22009 0.0
N766 N 0.9394 0.83561 0.2674 0.0
N767 N 0.8507 0.88597 0.20693 0.0
H768 H 0.85579 0.80489 0.20264 0.0
H769 H 0.83842 0.83612 0.1919 0.0
H770 H 0.84738 0.90792 0.20527 0.0
H771 H 0.84738 0.90792 0.20527 0.0
H772 H 0.95436 0.84768 0.28083 0.0
H773 H 0.94112 0.81384 0.27123 0.0
H774 H 0.95848 0.88453 0.2533 0.0
H775 H 0.93999 0.9154 0.24559 0.0
C776 C 0.15934 0.09149 0.7927 0.0
C777 C 0.17482 0.11576 0.78936 0.0
C778 C 0.14527 0.1462 0.82629 0.0
C779 C 0.12725 0.12361 0.82178 0.0
N780 N 0.12302 0.07243 0.82159 0.0
N781 N 0.18578 0.16488 0.80861 0.0
C782 C 0.13625 0.09532 0.81185 0.0
C783 C 0.16904 0.14263 0.8087 0.0
N784 N 0.16567 0.06539 0.77542 0.0
N785 N 0.13956 0.17055 0.84793 0.0
H786 H 0.20398 0.1621 0.79792 0.0
H787 H 0.18168 0.18596 0.81846 0.0
H788 H 0.12286 0.17217 0.86269 0.0
H789 H 0.15209 0.18766 0.85408 0.0
H790 H 0.15347 0.04777 0.77305 0.0
H791 H 0.18275 0.06175 0.76193 0.0
H792 H 0.12937 0.05117 0.81719 0.0
H793 H 0.10733 0.07525 0.83826 0.0
C794 C 0.85595 0.35102 0.02211 0.0
C795 C 0.84233 0.37481 0.00814 0.0
C796 C 0.87807 0.40649 0.0308 0.0
C797 C 0.89338 0.38181 0.03718 0.0
N798 N 0.89272 0.33496 0.0596 0.0
N799 N 0.83878 0.42589 0.00256 0.0
C800 C 0.88095 0.35535 0.03955 0.0
C801 C 0.85272 0.40292 0.0142 0.0
N802 N 0.84597 0.324 0.01625 0.0
N803 N 0.8876 0.43309 0.04199 0.0
H804 H 0.81963 0.42416 0.99243 0.0
H805 H 0.84634 0.44632 0.00176 0.0
H806 H 0.90533 0.43558 0.05688 0.0
H807 H 0.87704 0.45217 0.04039 0.0
H808 H 0.85651 0.30544 0.02157 0.0
H809 H 0.82764 0.31988 0.00393 0.0
H810 H 0.88394 0.3159 0.06461 0.0
H811 H 0.90995 0.33906 0.07521 0.0
C812 C 0.64644 0.08566 0.29239 0.0
C813 C 0.66015 0.10614 0.27488 0.0
C814 C 0.63535 0.14513 0.30651 0.0
C815 C 0.6178 0.12454 0.31599 0.0
N816 N 0.61378 0.07711 0.3354 0.0
N817 N 0.66893 0.15582 0.26667 0.0
C818 C 0.62577 0.09526 0.31467 0.0
C819 C 0.65546 0.13608 0.28314 0.0
N820 N 0.65228 0.05706 0.28591 0.0
N821 N 0.63323 0.17299 0.32094 0.0
H822 H 0.68434 0.15023 0.25031 0.0
H823 H 0.66393 0.17759 0.26764 0.0
H824 H 0.62003 0.17917 0.34074 0.0
H825 H 0.6465 0.18879 0.31713 0.0
H826 H 0.64127 0.04065 0.29428 0.0
H827 H 0.66798 0.04973 0.27088 0.0
H828 H 0.61932 0.05576 0.33764 0.0
H829 H 0.59982 0.08466 0.35351 0.0
C830 C 0.86226 0.87445 0.52795 0.0
C831 C 0.86622 0.90453 0.53167 0.0
C832 C 0.82719 0.91194 0.49283 0.0
C833 C 0.82679 0.8819 0.48244 0.0
N834 N 0.84224 0.83384 0.49189 0.0
N835 N 0.84476 0.95059 0.53533 0.0
C836 C 0.84334 0.8628 0.50132 0.0
C837 C 0.84612 0.92298 0.51976 0.0
N838 N 0.87625 0.85743 0.55057 0.0
N839 N 0.81025 0.92994 0.47576 0.0
H840 H 0.85729 0.95789 0.55741 0.0
H841 H 0.82968 0.96486 0.52966 0.0
H842 H 0.79529 0.92233 0.45743 0.0
H843 H 0.81166 0.95227 0.47858 0.0
H844 H 0.87332 0.83547 0.55118 0.0
H845 H 0.88885 0.86625 0.57172 0.0
H846 H 0.85586 0.81913 0.50132 0.0
H847 H 0.8283 0.82459 0.47302 0.0
C848 C 0.59572 0.09654 0.18551 0.0
C849 C 0.58425 0.12435 0.18557 0.0
C850 C 0.58801 0.12413 0.1193 0.0
C851 C 0.59734 0.09538 0.11871 0.0
N852 N 0.60759 0.05262 0.14962 0.0
N853 N 0.56571 0.16319 0.15278 0.0
C854 C 0.60069 0.08114 0.15142 0.0
C855 C 0.57939 0.13782 0.15255 0.0
N856 N 0.60218 0.08514 0.21807 0.0
N857 N 0.58819 0.13863 0.08837 0.0
H858 H 0.5594 0.17422 0.17675 0.0
H859 H 0.55861 0.17198 0.12892 0.0
H860 H 0.59458 0.12924 0.06354 0.0
H861 H 0.58422 0.16057 0.08808 0.0
H862 H 0.61314 0.06638 0.22021 0.0
H863 H 0.59797 0.09552 0.24346 0.0
H864 H 0.60771 0.04017 0.17192 0.0
H865 H 0.61155 0.04069 0.12507 0.0
C866 C 0.81448 0.75319 0.27906 0.0
C867 C 0.82826 0.73374 0.30095 0.0
C868 C 0.80014 0.74733 0.35147 0.0
C869 C 0.7907 0.77103 0.33239 0.0
N870 N 0.78698 0.79387 0.27458 0.0
N871 N 0.82467 0.70222 0.34879 0.0
C872 C 0.79678 0.77286 0.29524 0.0
C873 C 0.81798 0.72754 0.33441 0.0
N874 N 0.81765 0.75347 0.24241 0.0
N875 N 0.7926 0.74427 0.38612 0.0
H876 H 0.83612 0.68677 0.33473 0.0
H877 H 0.81679 0.69517 0.37192 0.0
H878 H 0.7783 0.75727 0.3983 0.0
H879 H 0.80097 0.72956 0.40322 0.0
H880 H 0.82854 0.738 0.2274 0.0
H881 H 0.82854 0.738 0.2274 0.0
H882 H 0.77427 0.81015 0.284 0.0
H883 H 0.77427 0.81015 0.284 0.0
C884 C 0.20231 0.19669 0.68747 0.0
C885 C 0.219 0.17774 0.66737 0.0
C886 C 0.20286 0.19574 0.60952 0.0
C887 C 0.18397 0.21221 0.62908 0.0
N888 N 0.17077 0.23587 0.68626 0.0
N889 N 0.24223 0.16674 0.61315 0.0
C890 C 0.18553 0.2153 0.66809 0.0
C891 C 0.22184 0.18029 0.62965 0.0
N892 N 0.20135 0.1954 0.72454 0.0
N893 N 0.20137 0.19277 0.57192 0.0
H894 H 0.25603 0.15515 0.62803 0.0
H895 H 0.24677 0.16922 0.58623 0.0
H896 H 0.18781 0.20364 0.55594 0.0
H897 H 0.21266 0.17822 0.55637 0.0
H898 H 0.18726 0.20568 0.74029 0.0
H899 H 0.21466 0.18336 0.7395 0.0
H900 H 0.17215 0.24069 0.71463 0.0
H901 H 0.15858 0.24991 0.67241 0.0
C902 C 0.92804 0.43936 0.82783 0.0
C903 C 0.91114 0.46331 0.82647 0.0
C904 C 0.91586 0.47194 0.89353 0.0
C905 C 0.92683 0.44383 0.89484 0.0
N906 N 0.94235 0.39982 0.8623 0.0
N907 N 0.90051 0.5098 0.8553 0.0
C908 C 0.93333 0.42752 0.86182 0.0
C909 C 0.90857 0.48207 0.85865 0.0
N910 N 0.93928 0.42838 0.79669 0.0
N911 N 0.91205 0.48849 0.92554 0.0
H912 H 0.89808 0.51805 0.82965 0.0
H913 H 0.89887 0.52534 0.87724 0.0
H914 H 0.91901 0.48253 0.95119 0.0
H915 H 0.90174 0.50785 0.92703 0.0
H916 H 0.95336 0.41214 0.79655 0.0
H917 H 0.93687 0.43829 0.77214 0.0
H918 H 0.94451 0.38623 0.83848 0.0
H919 H 0.94531 0.38933 0.88618 0.0
C920 C 0.23457 0.55084 0.0921 0.0
C921 C 0.23145 0.53604 0.12409 0.0
C922 C 0.21369 0.49485 0.08544 0.0
C923 C 0.21408 0.51127 0.05466 0.0
N924 N 0.2383 0.54571 0.02609 0.0
N925 N 0.22682 0.4906 0.1497 0.0
C926 C 0.22935 0.53607 0.05708 0.0
C927 C 0.22401 0.50675 0.12023 0.0
N928 N 0.24018 0.57946 0.09466 0.0
N929 N 0.20207 0.46867 0.08136 0.0
H930 H 0.23492 0.49881 0.17517 0.0
H931 H 0.22333 0.46862 0.14812 0.0
H932 H 0.19574 0.45936 0.05545 0.0
H933 H 0.1982 0.45678 0.10319 0.0
H934 H 0.2398 0.59142 0.0718 0.0
H935 H 0.2427 0.59207 0.11942 0.0
H936 H 0.25081 0.56301 0.02671 0.0
H937 H 0.236 0.53388 0.00058 0.0
C938 C 0.5754 0.26516 0.18294 0.0
C939 C 0.55827 0.2529 0.15417 0.0
C940 C 0.53189 0.23421 0.19998 0.0
C941 C 0.5527 0.23922 0.22646 0.0
N942 N 0.58516 0.27322 0.24898 0.0
N943 N 0.51791 0.22999 0.13526 0.0
C944 C 0.57166 0.25923 0.21984 0.0
C945 C 0.53544 0.23929 0.16285 0.0
N946 N 0.59623 0.28044 0.17487 0.0
N947 N 0.50869 0.22567 0.21081 0.0
H948 H 0.51939 0.23501 0.10817 0.0
H949 H 0.50254 0.21669 0.13895 0.0
H950 H 0.50529 0.22461 0.23854 0.0
H951 H 0.49219 0.22316 0.19331 0.0
H952 H 0.61134 0.28627 0.19386 0.0
H953 H 0.59893 0.28661 0.1487 0.0
H954 H 0.59816 0.28959 0.24657 0.0
H955 H 0.58083 0.27071 0.27605 0.0
C956 C 0.79562 0.92898 0.30303 0.0
C957 C 0.81164 0.9497 0.32359 0.0
C958 C 0.78415 0.94922 0.3759 0.0
C959 C 0.77215 0.92435 0.35832 0.0
N960 N 0.75739 0.8993 0.30132 0.0
N961 N 0.82046 0.98139 0.37846 0.0
C962 C 0.77488 0.91727 0.32035 0.0
C963 C 0.80543 0.96072 0.35953 0.0
N964 N 0.80158 0.91869 0.26831 0.0
N965 N 0.77447 0.96255 0.407 0.0
H966 H 0.83504 0.99168 0.36641 0.0
H967 H 0.81925 0.98744 0.40641 0.0
H968 H 0.75706 0.95657 0.41678 0.0
H969 H 0.7815 0.98177 0.42006 0.0
H970 H 0.79262 0.90116 0.25364 0.0
H971 H 0.81652 0.92673 0.25453 0.0
H972 H 0.75675 0.89458 0.27293 0.0
H973 H 0.74179 0.89133 0.31401 0.0
C974 C 0.21329 0.04893 0.56237 0.0
C975 C 0.19408 0.0278 0.55932 0.0
C976 C 0.19946 0.02293 0.62535 0.0
C977 C 0.21272 0.04952 0.62949 0.0
N978 N 0.23571 0.08607 0.601 0.0
N979 N 0.18086 0.98447 0.5832 0.0
C980 C 0.22145 0.06155 0.59779 0.0
C981 C 0.19099 0.01135 0.58946 0.0
N982 N 0.2239 0.05633 0.53124 0.0
N983 N 0.19432 0.00946 0.65582 0.0
H984 H 0.17688 0.97511 0.55652 0.0
H985 H 0.17904 0.97044 0.60351 0.0
H986 H 0.20207 0.01632 0.68204 0.0
H987 H 0.18215 0.99194 0.65538 0.0
H988 H 0.23959 0.06994 0.53136 0.0
H989 H 0.2187 0.04592 0.50549 0.0
H990 H 0.23885 0.09796 0.57887 0.0
H991 H 0.24389 0.09538 0.62566 0.0
C992 C 0.4157 0.31541 0.41018 0.0
C993 C 0.43361 0.30226 0.4346 0.0
C994 C 0.4389 0.26138 0.38879 0.0
C995 C 0.42277 0.27581 0.36326 0.0
N996 N 0.40036 0.31916 0.34705 0.0
N997 N 0.4649 0.26496 0.44641 0.0
C998 C 0.41237 0.30355 0.37327 0.0
C999 C 0.44606 0.27589 0.42367 0.0
N1000 N 0.40171 0.33918 0.42233 0.0
N1001 N 0.4463 0.23341 0.38048 0.0
H1002 H 0.46989 0.27464 0.47262 0.0
H1003 H 0.4767 0.2475 0.43843 0.0
H1004 H 0.4412 0.22194 0.35545 0.0
H1005 H 0.45572 0.22079 0.3994 0.0
H1006 H 0.38624 0.34761 0.40707 0.0
H1007 H 0.40403 0.34922 0.44891 0.0
H1008 H 0.39419 0.34042 0.35208 0.0
H1009 H 0.3989 0.31197 0.31923 0.0
C1010 C 0.08721 0.63235 0.12004 0.0
C1011 C 0.06963 0.64286 0.14651 0.0
C1012 C 0.05724 0.68303 0.1098 0.0
C1013 C 0.07485 0.67261 0.0834 0.0
N1014 N 0.10116 0.6331 0.05816 0.0
N1015 N 0.03293 0.673 0.16193 0.0
C1016 C 0.08783 0.64571 0.08661 0.0
C1017 C 0.05302 0.6666 0.13986 0.0
N1018 N 0.10474 0.61117 0.1279 0.0
N1019 N 0.04503 0.70897 0.10656 0.0
H1020 H 0.02899 0.66086 0.18359 0.0
H1021 H 0.01876 0.68845 0.15668 0.0
H1022 H 0.04652 0.72067 0.08369 0.0
H1023 H 0.03443 0.7195 0.12718 0.0
H1024 H 0.1201 0.60518 0.11161 0.0
H1025 H 0.10542 0.60112 0.15231 0.0
H1026 H 0.10845 0.61211 0.05753 0.0
H1027 H 0.10312 0.64246 0.03367 0.0
C1028 C 0.94814 0.29523 0.86039 0.0
C1029 C 0.9235 0.28251 0.8589 0.0
C1030 C 0.91617 0.30533 0.92028 0.0
C1031 C 0.93792 0.32278 0.91788 0.0
N1032 N 0.97447 0.33544 0.88437 0.0
N1033 N 0.88292 0.27668 0.8869 0.0
C1034 C 0.95427 0.3177 0.88802 0.0
C1035 C 0.90736 0.28735 0.88902 0.0
N1036 N 0.96568 0.28571 0.83543 0.0
N1037 N 0.90388 0.3062 0.95247 0.0
H1038 H 0.87541 0.26357 0.86457 0.0
H1039 H 0.86932 0.28268 0.90613 0.0
H1040 H 0.91025 0.31901 0.97596 0.0
H1041 H 0.88923 0.29216 0.957 0.0
H1042 H 0.98483 0.2923 0.83722 0.0
H1043 H 0.96178 0.26893 0.81519 0.0
H1044 H 0.98472 0.33488 0.86062 0.0
H1045 H 0.97998 0.35218 0.90373 0.0
C1046 C 0.18103 0.63258 0.29816 0.0
C1047 C 0.1974 0.6082 0.29163 0.0
C1048 C 0.16119 0.57665 0.30008 0.0
C1049 C 0.14403 0.60057 0.29692 0.0
N1050 N 0.13735 0.65177 0.29523 0.0
N1051 N 0.20577 0.55914 0.30406 0.0
C1052 C 0.1539 0.62873 0.297 0.0
C1053 C 0.18826 0.58071 0.29804 0.0
N1054 N 0.19138 0.65898 0.3082 0.0
N1055 N 0.15152 0.54999 0.30321 0.0
H1056 H 0.22563 0.56274 0.30598 0.0
H1057 H 0.20102 0.53876 0.3108 0.0
H1058 H 0.13218 0.54666 0.30751 0.0
H1059 H 0.16236 0.53101 0.30098 0.0
H1060 H 0.18033 0.67724 0.31544 0.0
H1061 H 0.21101 0.66165 0.3151 0.0
H1062 H 0.14329 0.6722 0.29012 0.0
H1063 H 0.11744 0.65012 0.29709 0.0
C1064 C 0.32573 0.8446 0.05423 0.0
C1065 C 0.31072 0.86401 0.03378 0.0
C1066 C 0.34854 0.89415 0.03092 0.0
C1067 C 0.36434 0.87125 0.04299 0.0
N1068 N 0.36862 0.82621 0.07037 0.0
N1069 N 0.30505 0.9137 0.02234 0.0
C1070 C 0.35308 0.84716 0.05667 0.0
C1071 C 0.32127 0.89102 0.02845 0.0
N1072 N 0.31376 0.82496 0.07278 0.0
N1073 N 0.35968 0.91789 0.01944 0.0
H1074 H 0.28506 0.91205 0.02342 0.0
H1075 H 0.31127 0.9346 0.02062 0.0
H1076 H 0.37955 0.92124 0.02211 0.0
H1077 H 0.34942 0.93364 0.00596 0.0
H1078 H 0.32352 0.81121 0.08996 0.0
H1079 H 0.29378 0.82526 0.07486 0.0
H1080 H 0.3619 0.80636 0.07643 0.0
H1081 H 0.38857 0.82852 0.07449 0.0
C1082 C 0.17355 0.61333 0.97315 0.0
C1083 C 0.14947 0.59993 0.97625 0.0
C1084 C 0.12692 0.64258 0.95531 0.0
C1085 C 0.15016 0.6579 0.96232 0.0
N1086 N 0.19588 0.65519 0.95595 0.0
N1087 N 0.10288 0.60056 0.96651 0.0
C1088 C 0.17374 0.64235 0.96406 0.0
C1089 C 0.12604 0.61375 0.96485 0.0
N1090 N 0.19601 0.59869 0.98065 0.0
N1091 N 0.10593 0.65594 0.93979 0.0
H1092 H 0.10123 0.57941 0.97303 0.0
H1093 H 0.08512 0.61107 0.96323 0.0
H1094 H 0.10704 0.67684 0.93178 0.0
H1095 H 0.0887 0.64559 0.93142 0.0
H1096 H 0.21412 0.60813 0.98334 0.0
H1097 H 0.19633 0.57689 0.98512 0.0
H1098 H 0.21376 0.64473 0.95482 0.0
H1099 H 0.19553 0.67555 0.94609 0.0
C1100 C 0.3777 0.82398 0.68654 0.0
C1101 C 0.39348 0.84757 0.69955 0.0
C1102 C 0.41434 0.81968 0.74644 0.0
C1103 C 0.39673 0.79683 0.73642 0.0
N1104 N 0.36959 0.77293 0.68762 0.0
N1105 N 0.43638 0.85943 0.72412 0.0
C1106 C 0.38092 0.79755 0.7033 0.0
C1107 C 0.41523 0.84244 0.72328 0.0
N1108 N 0.35953 0.82712 0.65862 0.0
N1109 N 0.42856 0.82148 0.77919 0.0
H1110 H 0.43798 0.87486 0.70534 0.0
H1111 H 0.4533 0.85546 0.73982 0.0
H1112 H 0.42729 0.80712 0.7992 0.0
H1113 H 0.43969 0.83938 0.78825 0.0
H1114 H 0.34514 0.8122 0.65078 0.0
H1115 H 0.35891 0.84524 0.64368 0.0
H1116 H 0.35926 0.7716 0.66227 0.0
H1117 H 0.37291 0.75303 0.69819 0.0
C1118 C 0.45275 0.79393 0.92676 0.0
C1119 C 0.43834 0.76852 0.9288 0.0
C1120 C 0.44621 0.7725 0.99593 0.0
C1121 C 0.45752 0.7996 0.99357 0.0
N1122 N 0.48601 0.82432 0.95758 0.0
N1123 N 0.43125 0.72775 0.9633 0.0
C1124 C 0.46581 0.80629 0.95917 0.0
C1125 C 0.43827 0.7558 0.96286 0.0
N1126 N 0.4525 0.80776 0.89528 0.0
N1127 N 0.44297 0.76305 0.02964 0.0
H1128 H 0.4268 0.71466 0.93924 0.0
H1129 H 0.43237 0.71666 0.98686 0.0
H1130 H 0.45147 0.77348 0.05364 0.0
H1131 H 0.43195 0.7453 0.03374 0.0
H1132 H 0.46091 0.82781 0.89444 0.0
H1133 H 0.44186 0.80106 0.87118 0.0
H1134 H 0.49369 0.82852 0.93286 0.0
H1135 H 0.49696 0.83181 0.98123 0.0
C1136 C 0.08849 0.26681 0.67321 0.0
C1137 C 0.07297 0.25539 0.64247 0.0
C1138 C 0.05041 0.22543 0.68145 0.0
C1139 C 0.07032 0.23119 0.7097 0.0
N1140 N 0.10535 0.26101 0.73556 0.0
N1141 N 0.03052 0.23885 0.62336 0.0
C1142 C 0.08811 0.25356 0.70679 0.0
C1143 C 0.05097 0.23959 0.64863 0.0
N1144 N 0.10257 0.29086 0.6704 0.0
N1145 N 0.03247 0.20472 0.6841 0.0
H1146 H 0.03036 0.25075 0.60041 0.0
H1147 H 0.01286 0.22967 0.62737 0.0
H1148 H 0.03029 0.19413 0.70756 0.0
H1149 H 0.02029 0.19687 0.66201 0.0
H1150 H 0.11338 0.30138 0.69223 0.0
H1151 H 0.10084 0.30222 0.64697 0.0
H1152 H 0.12098 0.27441 0.73385 0.0
H1153 H 0.10424 0.25298 0.76121 0.0
C1154 C 0.29195 0.77412 0.86549 0.0
C1155 C 0.29655 0.7756 0.90423 0.0
C1156 C 0.33315 0.74233 0.89608 0.0
C1157 C 0.33364 0.74945 0.85932 0.0
N1158 N 0.31141 0.76748 0.80648 0.0
N1159 N 0.31828 0.75658 0.95689 0.0
C1160 C 0.31202 0.7634 0.84302 0.0
C1161 C 0.31584 0.75765 0.91965 0.0
N1162 N 0.26898 0.78348 0.85039 0.0
N1163 N 0.34934 0.7214 0.90825 0.0
H1164 H 0.30486 0.76658 0.97422 0.0
H1165 H 0.33377 0.74664 0.9704 0.0
H1166 H 0.36127 0.7093 0.8906 0.0
H1167 H 0.34895 0.7141 0.93435 0.0
H1168 H 0.26423 0.78162 0.82223 0.0
H1169 H 0.25346 0.78984 0.86618 0.0
H1170 H 0.29804 0.78085 0.7937 0.0
H1171 H 0.32497 0.75772 0.78927 0.0
C1172 C 0.93252 0.95939 0.38952 0.0
C1173 C 0.91551 0.95918 0.4186 0.0
C1174 C 0.89224 0.00098 0.39661 0.0
C1175 C 0.90514 0.99665 0.36348 0.0
N1176 N 0.94522 0.98325 0.33681 0.0
N1177 N 0.87956 0.98005 0.45111 0.0
C1178 C 0.92789 0.97946 0.36266 0.0
C1179 C 0.89578 0.98046 0.42301 0.0
N1180 N 0.95219 0.93954 0.38671 0.0
N1181 N 0.87767 0.02531 0.40334 0.0
H1182 H 0.88173 0.9654 0.47108 0.0
H1183 H 0.86299 0.99291 0.45316 0.0
H1184 H 0.87719 0.04187 0.38583 0.0
H1185 H 0.86908 0.03071 0.42811 0.0
H1186 H 0.96352 0.9364 0.36408 0.0
H1187 H 0.95657 0.92515 0.40657 0.0
H1188 H 0.9631 0.97282 0.33562 0.0
H1189 H 0.94262 -0.00057 0.31883 0.0
C1190 C 0.59725 0.62398 0.63492 0.0
C1191 C 0.59381 0.61257 0.66895 0.0
C1192 C 0.59749 0.56359 0.63939 0.0
C1193 C 0.60387 0.57527 0.60652 0.0
N1194 N 0.6153 0.61647 0.57536 0.0
N1195 N 0.59301 0.57164 0.70506 0.0
C1196 C 0.60526 0.60545 0.60489 0.0
C1197 C 0.59443 0.58238 0.67162 0.0
N1198 N 0.59173 0.65233 0.63077 0.0
N1199 N 0.59348 0.53471 0.63955 0.0
H1200 H 0.59014 0.58454 0.72922 0.0
H1201 H 0.59655 0.55013 0.70944 0.0
H1202 H 0.59617 0.52008 0.61687 0.0
H1203 H 0.58563 0.52545 0.66125 0.0
H1204 H 0.59121 0.66098 0.60537 0.0
H1205 H 0.58502 0.66651 0.65189 0.0
H1206 H 0.6193 0.63822 0.57475 0.0
H1207 H 0.62223 0.6036 0.55318 0.0
C1208 C 0.78597 0.28746 0.83653 0.0
C1209 C 0.79365 0.28806 0.87446 0.0
C1210 C 0.8212 0.24562 0.862 0.0
C1211 C 0.81846 0.24968 0.82406 0.0
N1212 N 0.79545 0.27046 0.77385 0.0
N1213 N 0.81581 0.26395 0.92399 0.0
C1214 C 0.79933 0.26887 0.81091 0.0
C1215 C 0.80972 0.26573 0.88752 0.0
N1216 N 0.76609 0.30489 0.82538 0.0
N1217 N 0.83653 0.22391 0.87416 0.0
H1218 H 0.8088 0.27805 0.94495 0.0
H1219 H 0.8088 0.27805 0.94495 0.0
H1220 H 0.84492 0.20831 0.85626 0.0
H1221 H 0.83976 0.22094 0.90205 0.0
H1222 H 0.75837 0.30451 0.79843 0.0
H1223 H 0.75584 0.31822 0.84403 0.0
H1224 H 0.78419 0.28621 0.76187 0.0
H1225 H 0.80426 0.25588 0.75499 0.0
C1226 C 0.11704 0.53722 0.16025 0.0
C1227 C 0.10377 0.53594 0.12527 0.0
C1228 C 0.06228 0.54045 0.15441 0.0
C1229 C 0.07558 0.5377 0.18894 0.0
N1230 N 0.11625 0.53508 0.22494 0.0
N1231 N 0.06377 0.53502 0.08795 0.0
C1232 C 0.10294 0.53691 0.19201 0.0
C1233 C 0.07636 0.53778 0.12197 0.0
N1234 N 0.14341 0.53795 0.1633 0.0
N1235 N 0.0363 0.5461 0.15285 0.0
H1236 H 0.07334 0.53349 0.06354 0.0
H1237 H 0.04389 0.53252 0.08374 0.0
H1238 H 0.02553 0.54808 0.17622 0.0
H1239 H 0.02584 0.5513 0.12911 0.0
H1240 H 0.15385 0.53861 0.18865 0.0
H1241 H 0.15464 0.53898 0.14064 0.0
H1242 H 0.10753 0.53421 0.24983 0.0
H1243 H 0.10753 0.53421 0.24983 0.0
C1244 C 0.59402 0.62296 0.44213 0.0
C1245 C 0.57055 0.61199 0.45254 0.0
C1246 C 0.55804 0.65977 0.47917 0.0
C1247 C 0.584 0.66837 0.47758 0.0
N1248 N 0.62575 0.66083 0.45255 0.0
N1249 N 0.5259 0.62305 0.46117 0.0
C1250 C 0.60155 0.65099 0.4567 0.0
C1251 C 0.551 0.6316 0.46442 0.0
N1252 N 0.60844 0.60685 0.41771 0.0
N1253 N 0.54085 0.67761 0.49715 0.0
H1254 H 0.52079 0.60284 0.44859 0.0
H1255 H 0.51029 0.63664 0.46717 0.0
H1256 H 0.54539 0.69861 0.50729 0.0
H1257 H 0.52249 0.67138 0.50308 0.0
H1258 H 0.62519 0.61404 0.40732 0.0
H1259 H 0.60174 0.58738 0.40467 0.0
H1260 H 0.6406 0.64806 0.44166 0.0
H1261 H 0.63107 0.68193 0.46106 0.0
C1262 C 0.66826 0.6011 0.74815 0.0
C1263 C 0.68878 0.62054 0.75849 0.0
C1264 C 0.66206 0.64414 0.80611 0.0
C1265 C 0.64198 0.62454 0.79508 0.0
N1266 N 0.63419 0.57512 0.77205 0.0
N1267 N 0.70808 0.65267 0.80768 0.0
C1268 C 0.64784 0.59976 0.77185 0.0
C1269 C 0.68666 0.63964 0.79087 0.0
N1270 N 0.66643 0.58594 0.71455 0.0
N1271 N 0.6576 0.66697 0.83094 0.0
H1272 H 0.72662 0.64796 0.79906 0.0
H1273 H 0.70778 0.66524 0.83264 0.0
H1274 H 0.6405 0.66922 0.84473 0.0
H1275 H 0.67049 0.68384 0.8368 0.0
H1276 H 0.65068 0.57295 0.70598 0.0
H1277 H 0.67809 0.58977 0.69344 0.0
H1278 H 0.639 0.5563 0.75619 0.0
H1279 H 0.62094 0.57236 0.79179 0.0
C1280 C 0.18815 0.66842 0.16881 0.0
C1281 C 0.21263 0.65742 0.15881 0.0
C1282 C 0.20714 0.67966 0.1004 0.0
C1283 C 0.18089 0.68516 0.10748 0.0
N1284 N 0.14593 0.68586 0.14832 0.0
N1285 N 0.2464 0.6532 0.1157 0.0
C1286 C 0.17134 0.68028 0.14194 0.0
C1287 C 0.22275 0.66385 0.12516 0.0
N1288 N 0.18115 0.6674 0.20417 0.0
N1289 N 0.2169 0.68916 0.06974 0.0
H1290 H 0.25887 0.64255 0.13348 0.0
H1291 H 0.25329 0.65374 0.08958 0.0
H1292 H 0.20568 0.70043 0.05103 0.0
H1293 H 0.23642 0.68814 0.06448 0.0
H1294 H 0.16442 0.67701 0.21425 0.0
H1295 H 0.19352 0.65928 0.22445 0.0
H1296 H 0.13694 0.67922 0.17084 0.0
H1297 H 0.13338 0.69601 0.13001 0.0
C1298 C 0.5523 0.7446 0.6491 0.0
C1299 C 0.57496 0.7531 0.63325 0.0
C1300 C 0.59819 0.75448 0.69377 0.0
C1301 C 0.57788 0.73891 0.70642 0.0
N1302 N 0.53166 0.73533 0.70489 0.0
N1303 N 0.61919 0.76942 0.6414 0.0
C1304 C 0.5535 0.73912 0.68685 0.0
C1305 C 0.5976 0.75995 0.65608 0.0
N1306 N 0.53013 0.74033 0.62744 0.0
N1307 N 0.61731 0.76499 0.71821 0.0
H1308 H 0.61941 0.77556 0.61474 0.0
H1309 H 0.63727 0.77025 0.65537 0.0
H1310 H 0.61655 0.76329 0.74642 0.0
H1311 H 0.6318 0.77841 0.71141 0.0
H1312 H 0.51378 0.73075 0.63592 0.0
H1313 H 0.52853 0.74571 0.60024 0.0
H1314 H 0.51306 0.73688 0.69289 0.0
H1315 H 0.53226 0.73418 0.73333 0.0
C1316 C 0.79017 0.41257 0.82988 0.0
C1317 C 0.81317 0.4286 0.8375 0.0
C1318 C 0.79907 0.44463 0.89905 0.0
C1319 C 0.77909 0.42423 0.89363 0.0
N1320 N 0.74821 0.40078 0.8504 0.0
N1321 N 0.83889 0.46203 0.87784 0.0
C1322 C 0.77217 0.41228 0.85762 0.0
C1323 C 0.81728 0.4456 0.87154 0.0
N1324 N 0.78658 0.39564 0.79758 0.0
N1325 N 0.79962 0.46402 0.92926 0.0
H1326 H 0.8516 0.465 0.85747 0.0
H1327 H 0.84485 0.47181 0.90353 0.0
H1328 H 0.78449 0.46603 0.94692 0.0
H1329 H 0.81289 0.48056 0.93411 0.0
H1330 H 0.77174 0.38087 0.79244 0.0
H1331 H 0.7995 0.39466 0.77669 0.0
H1332 H 0.74087 0.39363 0.82415 0.0
H1333 H 0.73469 0.40141 0.87059 0.0
C1334 C 0.91494 0.82871 0.42116 0.0
C1335 C 0.93666 0.82486 0.44553 0.0
C1336 C 0.95086 0.78369 0.4054 0.0
C1337 C 0.93191 0.79108 0.37806 0.0
N1338 N 0.89847 0.82408 0.35803 0.0
N1339 N 0.97619 0.79967 0.46106 0.0
C1340 C 0.91439 0.81432 0.3855 0.0
C1341 C 0.95482 0.80244 0.43793 0.0
N1342 N 0.89479 0.84601 0.43224 0.0
N1343 N 0.96437 0.75836 0.40082 0.0
H1344 H 0.9792 0.81257 0.48566 0.0
H1345 H 0.9916 0.78582 0.45478 0.0
H1346 H 0.96092 0.74362 0.37809 0.0
H1347 H 0.97689 0.75065 0.42114 0.0
H1348 H 0.87738 0.84744 0.41673 0.0
H1349 H 0.8945 0.85656 0.45859 0.0
H1350 H 0.88725 0.84278 0.36142 0.0
H1351 H 0.89858 0.81543 0.33084 0.0
C1352 C 0.36148 0.3691 0.51709 0.0
C1353 C 0.37334 0.3943 0.53377 0.0
C1354 C 0.33249 0.42061 0.52384 0.0
C1355 C 0.32428 0.39807 0.49732 0.0
N1356 N 0.33244 0.3504 0.46741 0.0
N1357 N 0.368 0.44198 0.5628 0.0
C1358 C 0.33879 0.37184 0.49411 0.0
C1359 C 0.35792 0.41936 0.54073 0.0
N1360 N 0.37164 0.34272 0.52347 0.0
N1361 N 0.31592 0.4429 0.53278 0.0
H1362 H 0.3856 0.44013 0.57787 0.0
H1363 H 0.3593 0.46225 0.56596 0.0
H1364 H 0.29703 0.44373 0.5214 0.0
H1365 H 0.31998 0.45919 0.55347 0.0
H1366 H 0.36275 0.32354 0.5134 0.0
H1367 H 0.38673 0.34032 0.54315 0.0
H1368 H 0.34433 0.33245 0.46199 0.0
H1369 H 0.31684 0.35157 0.44837 0.0
C1370 C 0.40018 0.35986 0.20548 0.0
C1371 C 0.37865 0.37224 0.18677 0.0
C1372 C 0.36063 0.32402 0.17379 0.0
C1373 C 0.37715 0.31425 0.20267 0.0
N1374 N 0.41412 0.3239 0.24598 0.0
N1375 N 0.34151 0.36502 0.1449 0.0
C1376 C 0.39779 0.3321 0.21798 0.0
C1377 C 0.36003 0.35379 0.16782 0.0
N1378 N 0.42297 0.37419 0.21067 0.0
N1379 N 0.34571 0.3047 0.15222 0.0
H1380 H 0.3423 0.38617 0.13776 0.0
H1381 H 0.32541 0.35372 0.13365 0.0
H1382 H 0.34668 0.28268 0.15544 0.0
H1383 H 0.33447 0.30995 0.12916 0.0
H1384 H 0.43972 0.36518 0.22227 0.0
H1385 H 0.42612 0.393 0.19821 0.0
H1386 H 0.42693 0.33807 0.26086 0.0
H1387 H 0.41417 0.30381 0.25614 0.0
C1388 C 0.31319 0.29908 0.31355 0.0
C1389 C 0.30803 0.26941 0.31535 0.0
C1390 C 0.26678 0.28242 0.34267 0.0
C1391 C 0.27216 0.3119 0.34013 0.0
N1392 N 0.2977 0.34789 0.31615 0.0
N1393 N 0.27816 0.2324 0.3254 0.0
C1394 C 0.29424 0.31989 0.32278 0.0
C1395 C 0.28416 0.26092 0.32788 0.0
N1396 N 0.33655 0.30861 0.30491 0.0
N1397 N 0.24592 0.27514 0.36092 0.0
H1398 H 0.29069 0.21632 0.31505 0.0
H1399 H 0.26015 0.22482 0.33089 0.0
H1400 H 0.23261 0.29034 0.37128 0.0
H1401 H 0.24248 0.25434 0.36751 0.0
H1402 H 0.3526 0.29542 0.29982 0.0
H1403 H 0.3526 0.29542 0.29982 0.0
H1404 H 0.31394 0.35471 0.30386 0.0
H1405 H 0.28355 0.36369 0.32089 0.0
C1406 C 0.11077 0.08894 0.6824 0.0
C1407 C 0.0977 0.11593 0.6836 0.0
C1408 C 0.09907 0.11647 0.6168 0.0
C1409 C 0.11405 0.09074 0.6161 0.0
N1410 N 0.13696 0.05388 0.64776 0.0
N1411 N 0.08195 0.15736 0.65333 0.0
C1412 C 0.12063 0.07727 0.64879 0.0
C1413 C 0.0924 0.1302 0.65115 0.0
N1414 N 0.11305 0.07419 0.71322 0.0
N1415 N 0.09044 0.12724 0.58457 0.0
H1416 H 0.07591 0.16775 0.67774 0.0
H1417 H 0.08078 0.1704 0.63154 0.0
H1418 H 0.09535 0.11816 0.5588 0.0
H1419 H 0.0769 0.14392 0.58307 0.0
H1420 H 0.12012 0.05318 0.71344 0.0
H1421 H 0.10578 0.0821 0.7382 0.0
H1422 H 0.14455 0.0447 0.67108 0.0
H1423 H 0.14464 0.04485 0.62357 0.0
C1424 C 0.64888 0.20245 0.14404 0.0
C1425 C 0.6586 0.22108 0.11977 0.0
C1426 C 0.70115 0.19783 0.12554 0.0
C1427 C 0.69019 0.17607 0.14443 0.0
N1428 N 0.65224 0.15629 0.16867 0.0
N1429 N 0.69357 0.23657 0.08586 0.0
C1430 C 0.66377 0.17815 0.15338 0.0
C1431 C 0.68472 0.21903 0.11035 0.0
N1432 N 0.62546 0.20827 0.15857 0.0
N1433 N 0.72732 0.19875 0.12319 0.0
H1434 H 0.68235 0.25301 0.07519 0.0
H1435 H 0.71147 0.23374 0.07444 0.0
H1436 H 0.73998 0.18409 0.13505 0.0
H1437 H 0.73666 0.21562 0.11282 0.0
H1438 H 0.61848 0.19735 0.17956 0.0
H1439 H 0.6142 0.2261 0.15236 0.0
H1440 H 0.63242 0.15538 0.17135 0.0
H1441 H 0.66174 0.13776 0.1761 0.0
C1442 C 0.43166 0.4626 0.37319 0.0
C1443 C 0.42084 0.44527 0.3426 0.0
C1444 C 0.43796 0.40173 0.36884 0.0
C1445 C 0.44581 0.41876 0.40147 0.0
N1446 N 0.45056 0.46501 0.43573 0.0
N1447 N 0.41056 0.39815 0.31286 0.0
C1448 C 0.44288 0.44915 0.40389 0.0
C1449 C 0.42348 0.41479 0.34049 0.0
N1450 N 0.43167 0.49185 0.37237 0.0
N1451 N 0.44395 0.37298 0.36511 0.0
H1452 H 0.39899 0.40651 0.29197 0.0
H1453 H 0.40942 0.37587 0.31211 0.0
H1454 H 0.45291 0.36197 0.38609 0.0
H1455 H 0.44182 0.36036 0.34023 0.0
H1456 H 0.44126 0.50576 0.39218 0.0
H1457 H 0.42366 0.50222 0.35011 0.0
H1458 H 0.44625 0.48678 0.44113 0.0
H1459 H 0.46055 0.45602 0.45764 0.0
C1460 C 0.69124 0.5749 0.51701 0.0
C1461 C 0.67775 0.5488 0.5128 0.0
C1462 C 0.70108 0.53325 0.56786 0.0
C1463 C 0.70818 0.56235 0.57759 0.0
N1464 N 0.71141 0.61113 0.55945 0.0
N1465 N 0.68042 0.49858 0.52207 0.0
C1466 C 0.70448 0.58311 0.55118 0.0
C1467 C 0.68611 0.52631 0.53443 0.0
N1468 N 0.69149 0.5915 0.48806 0.0
N1469 N 0.70814 0.51271 0.59113 0.0
H1470 H 0.67177 0.49346 0.49587 0.0
H1471 H 0.68629 0.48066 0.53561 0.0
H1472 H 0.72073 0.51698 0.61421 0.0
H1473 H 0.70169 0.49163 0.58791 0.0
H1474 H 0.70268 0.60984 0.4883 0.0
H1475 H 0.68289 0.58465 0.46232 0.0
H1476 H 0.70562 0.62756 0.54308 0.0
H1477 H 0.72171 0.61861 0.58343 0.0
C1478 C 0.28347 0.9157 0.84315 0.0
C1479 C 0.29038 0.8884 0.85533 0.0
C1480 C 0.31388 0.87634 0.79972 0.0
C1481 C 0.31018 0.90491 0.79009 0.0
N1482 N 0.2929 0.9529 0.80359 0.0
N1483 N 0.31103 0.84159 0.84299 0.0
C1484 C 0.29486 0.9248 0.81156 0.0
C1485 C 0.30503 0.86848 0.83309 0.0
N1486 N 0.26624 0.93296 0.86197 0.0
N1487 N 0.32664 0.85653 0.77734 0.0
H1488 H 0.30541 0.83361 0.86703 0.0
H1489 H 0.30541 0.83361 0.86703 0.0
H1490 H 0.3326 0.86095 0.75166 0.0
H1491 H 0.33027 0.83543 0.7839 0.0
H1492 H 0.25828 0.95177 0.85245 0.0
H1493 H 0.2583 0.9273 0.88588 0.0
H1494 H 0.28489 0.9692 0.82082 0.0
H1495 H 0.30071 0.96051 0.78072 0.0
C1496 C 0.69801 0.05821 0.06741 0.0
C1497 C 0.68865 0.05159 0.10136 0.0
C1498 C 0.6606 0.01524 0.06883 0.0
C1499 C 0.66406 0.02831 0.0359 0.0
N1500 N 0.69523 0.0491 0.00057 0.0
N1501 N 0.66518 0.02009 0.13568 0.0
C1502 C 0.68601 0.04551 0.03405 0.0
C1503 C 0.67174 0.02828 0.10251 0.0
N1504 N 0.71742 0.07757 0.06743 0.0
N1505 N 0.6465 0.99074 0.06741 0.0
H1506 H 0.6738 0.02899 0.16049 0.0
H1507 H 0.65091 0.00522 0.13866 0.0
H1508 H 0.63939 0.98067 0.0423 0.0
H1509 H 0.64411 0.97913 0.09002 0.0
H1510 H 0.72353 0.08584 0.04391 0.0
H1511 H 0.72749 0.0853 0.09172 0.0
H1512 H 0.71174 0.06057 0.99682 0.0
H1513 H 0.68739 0.03796 0.9766 0.0
C1514 C 0.4535 0.91764 0.89313 0.0
C1515 C 0.44079 0.89882 0.91459 0.0
C1516 C 0.40676 0.89116 0.86619 0.0
C1517 C 0.42075 0.90727 0.84298 0.0
N1518 N 0.45991 0.93155 0.83193 0.0
N1519 N 0.41018 0.86057 0.91606 0.0
C1520 C 0.44485 0.9194 0.85573 0.0
C1521 C 0.41884 0.88345 0.89952 0.0
N1522 N 0.47321 0.93446 0.90858 0.0
N1523 N 0.38153 0.88422 0.85735 0.0
H1524 H 0.41982 0.85273 0.93905 0.0
H1525 H 0.39555 0.84719 0.90417 0.0
H1526 H 0.37116 0.89119 0.8344 0.0
H1527 H 0.37006 0.87457 0.87519 0.0
H1528 H 0.48112 0.95084 0.89533 0.0
H1529 H 0.48031 0.93369 0.93573 0.0
H1530 H 0.47881 0.93799 0.83888 0.0
H1531 H 0.45439 0.93284 0.80423 0.0
C1532 C 0.66389 0.69996 0.61833 0.0
C1533 C 0.67314 0.70791 0.5847 0.0
C1534 C 0.71568 0.68735 0.60084 0.0
C1535 C 0.70599 0.679 0.63377 0.0
N1536 N 0.67538 0.688 0.68036 0.0
N1537 N 0.71021 0.71884 0.55154 0.0
C1538 C 0.68171 0.68945 0.64484 0.0
C1539 C 0.69987 0.70479 0.57839 0.0
N1540 N 0.63808 0.69965 0.62395 0.0
N1541 N 0.73913 0.6774 0.58974 0.0
H1542 H 0.69939 0.7328 0.5357 0.0
H1543 H 0.72998 0.7192 0.54789 0.0
H1544 H 0.75181 0.66559 0.6059 0.0
H1545 H 0.7454 0.67971 0.56358 0.0
H1546 H 0.63073 0.69199 0.64711 0.0
H1547 H 0.62369 0.70368 0.60406 0.0
H1548 H 0.65868 0.69743 0.6909 0.0
H1549 H 0.68841 0.68025 0.70009 0.0
C1550 C 0.31061 0.47726 0.3265 0.0
C1551 C 0.30896 0.46384 0.29012 0.0
C1552 C 0.27708 0.43027 0.30756 0.0
C1553 C 0.28313 0.43953 0.34486 0.0
N1554 N 0.30102 0.47461 0.3906 0.0
N1555 N 0.28899 0.43003 0.24419 0.0
C1556 C 0.29811 0.46435 0.35449 0.0
C1557 C 0.29123 0.44144 0.27993 0.0
N1558 N 0.32468 0.50177 0.33416 0.0
N1559 N 0.258 0.41065 0.299 0.0
H1560 H 0.29821 0.4389 0.22325 0.0
H1561 H 0.27873 0.41152 0.2354 0.0
H1562 H 0.24741 0.40261 0.31921 0.0
H1563 H 0.25128 0.40412 0.27227 0.0
H1564 H 0.32588 0.5136 0.35962 0.0
H1565 H 0.3341 0.51143 0.31407 0.0
H1566 H 0.3137 0.49076 0.4008 0.0
H1567 H 0.29023 0.46667 0.41063 0.0
loop_
_geom_bond_atom_site_label_1
_geom_bond_atom_site_label_2
_geom_bond_distance
_geom_bond_site_symmetry_2
_ccdc_geom_bond_type
C0 O1 1.184 . S
C0 O7 1.184 . S
O1 C0 1.184 . S
O2 Zn3 1.899 . S
O2 C10 1.284 . S
Zn3 O2 1.899 . S
Zn3 O4 2.032 . S
Zn3 O7 2.089 . S
Zn3 O12 1.977 . S
O4 Zn3 2.032 . S
O4 C8 1.278 . S
C5 O6 1.203 . S
C5 O12 1.267 . S
O6 C5 1.203 . S
O7 C0 1.184 . S
O7 Zn3 2.089 . S
C8 O4 1.278 . S
C8 O9 1.211 . S
O9 C8 1.211 . S
C10 O2 1.284 . S
C10 O11 1.273 . S
O11 C10 1.273 . S
O12 Zn3 1.977 . S
O12 C5 1.267 . S
C13 O14 1.160 . S
C13 O20 1.185 . S
O14 C13 1.160 . S
O15 Zn16 1.899 . S
O15 C23 1.284 . S
Zn16 O15 1.899 . S
Zn16 O17 2.032 . S
Zn16 O20 2.086 . S
Zn16 O25 1.977 . S
O17 Zn16 2.032 . S
O17 C21 1.278 . S
C18 O19 1.203 . S
C18 O25 1.267 . S
O19 C18 1.203 . S
O20 C13 1.185 . S
O20 Zn16 2.086 . S
C21 O17 1.278 . S
C21 O22 1.211 . S
O22 C21 1.211 . S
C23 O15 1.284 . S
C23 O24 1.273 . S
O24 C23 1.273 . S
O25 Zn16 1.977 . S
O25 C18 1.267 . S
C26 O27 1.160 . S
C26 O33 1.185 1_556 S
O27 C26 1.160 . S
O28 Zn29 1.899 1_556 S
O28 C36 1.285 . S
Zn29 O28 1.899 1_554 S
Zn29 O30 2.032 . S
Zn29 O33 2.086 . S
Zn29 O38 1.977 . S
O30 Zn29 2.032 . S
O30 C34 1.278 . S
C31 O32 1.203 . S
C31 O38 1.267 . S
O32 C31 1.203 . S
O33 C26 1.185 1_554 S
O33 Zn29 2.086 . S
C34 O30 1.278 . S
C34 O35 1.211 . S
O35 C34 1.211 . S
C36 O28 1.285 . S
C36 O37 1.269 1_556 S
O37 C36 1.269 1_554 S
O38 Zn29 1.977 . S
O38 C31 1.267 . S
C39 O40 1.160 1_565 S
C39 O46 1.185 . S
O40 C39 1.160 1_545 S
O41 Zn42 1.899 . S
O41 C49 1.284 . S
Zn42 O41 1.899 . S
Zn42 O43 2.032 . S
Zn42 O46 2.086 . S
Zn42 O51 1.977 . S
O43 Zn42 2.032 . S
O43 C47 1.278 . S
C44 O45 1.203 . S
C44 O51 1.267 . S
O45 C44 1.203 . S
O46 C39 1.185 . S
O46 Zn42 2.086 . S
C47 O43 1.278 . S
C47 O48 1.211 . S
O48 C47 1.211 . S
C49 O41 1.284 . S
C49 O50 1.273 . S
O50 C49 1.273 . S
O51 Zn42 1.977 . S
O51 C44 1.267 . S
C52 O53 1.160 . S
C52 O59 1.185 . S
O53 C52 1.160 . S
O54 Zn55 1.899 . S
O54 C62 1.284 . S
Zn55 O54 1.899 . S
Zn55 O56 2.032 . S
Zn55 O59 2.086 . S
Zn55 O64 1.977 . S
O56 Zn55 2.032 . S
O56 C60 1.278 . S
C57 O58 1.203 . S
C57 O64 1.267 . S
O58 C57 1.203 . S
O59 C52 1.185 . S
O59 Zn55 2.086 . S
C60 O56 1.278 . S
C60 O61 1.211 . S
O61 C60 1.211 . S
C62 O54 1.284 . S
C62 O63 1.273 . S
O63 C62 1.273 . S
O64 Zn55 1.977 . S
O64 C57 1.267 . S
C65 O66 1.160 1_556 S
C65 O72 1.185 . S
O66 C65 1.160 1_554 S
O67 Zn68 1.899 . S
O67 C75 1.284 . S
Zn68 O67 1.899 . S
Zn68 O69 2.032 . S
Zn68 O72 2.086 . S
Zn68 O77 1.977 . S
O69 Zn68 2.032 . S
O69 C73 1.278 . S
C70 O71 1.203 . S
C70 O77 1.267 . S
O71 C70 1.203 . S
O72 C65 1.185 . S
O72 Zn68 2.086 . S
C73 O69 1.278 . S
C73 O74 1.211 . S
O74 C73 1.211 . S
C75 O67 1.284 . S
C75 O76 1.273 . S
O76 C75 1.273 . S
O77 Zn68 1.977 . S
O77 C70 1.267 . S
C78 O79 1.160 . S
C78 O85 1.185 . S
O79 C78 1.160 . S
O80 Zn81 1.899 . S
O80 C88 1.284 . S
Zn81 O80 1.899 . S
Zn81 O82 2.032 . S
Zn81 O85 2.086 . S
Zn81 O90 1.977 . S
O82 Zn81 2.032 . S
O82 C86 1.278 . S
C83 O84 1.203 . S
C83 O90 1.267 . S
O84 C83 1.203 . S
O85 C78 1.185 . S
O85 Zn81 2.086 . S
C86 O82 1.278 . S
C86 O87 1.211 . S
O87 C86 1.211 . S
C88 O80 1.284 . S
C88 O89 1.273 . S
O89 C88 1.273 . S
O90 Zn81 1.977 . S
O90 C83 1.267 . S
C91 O92 1.160 . S
C91 O98 1.185 . S
O92 C91 1.160 . S
O93 Zn94 1.899 . S
O93 C101 1.284 . S
Zn94 O93 1.899 . S
Zn94 O95 2.032 . S
Zn94 O98 2.086 . S
Zn94 O103 1.977 . S
O95 Zn94 2.032 . S
O95 C99 1.278 . S
C96 O97 1.203 . S
C96 O103 1.267 . S
O97 C96 1.203 . S
O98 C91 1.185 . S
O98 Zn94 2.086 . S
C99 O95 1.278 . S
C99 O100 1.211 . S
O100 C99 1.211 . S
C101 O93 1.284 . S
C101 O102 1.273 . S
O102 C101 1.273 . S
O103 Zn94 1.977 . S
O103 C96 1.267 . S
C104 O105 1.185 . S
C104 O111 1.184 1_556 S
O105 C104 1.185 . S
O106 Zn107 1.899 1_556 S
O106 C114 1.284 . S
Zn107 O106 1.899 1_554 S
Zn107 O108 2.032 . S
Zn107 O111 2.089 . S
Zn107 O116 1.977 . S
O108 Zn107 2.032 . S
O108 C112 1.278 . S
C109 O110 1.203 . S
C109 O116 1.267 . S
O110 C109 1.203 . S
O111 C104 1.184 1_554 S
O111 Zn107 2.089 . S
C112 O108 1.278 . S
C112 O113 1.211 . S
O113 C112 1.211 . S
C114 O106 1.284 . S
C114 O115 1.273 1_556 S
O115 C114 1.273 1_554 S
O116 Zn107 1.977 . S
O116 C109 1.267 . S
C117 O118 1.160 . S
C117 O124 1.185 . S
O118 C117 1.160 . S
O119 Zn120 1.899 . S
O119 C127 1.284 . S
Zn120 O119 1.899 . S
Zn120 O121 2.032 . S
Zn120 O124 2.086 . S
Zn120 O129 1.977 . S
O121 Zn120 2.032 . S
O121 C125 1.278 . S
C122 O123 1.203 . S
C122 O129 1.267 . S
O123 C122 1.203 . S
O124 C117 1.185 . S
O124 Zn120 2.086 . S
C125 O121 1.278 . S
C125 O126 1.211 . S
O126 C125 1.211 . S
C127 O119 1.284 . S
C127 O128 1.273 . S
O128 C127 1.273 . S
O129 Zn120 1.977 . S
O129 C122 1.267 . S
C130 O131 1.160 . S
C130 O137 1.185 . S
O131 C130 1.160 . S
O132 Zn133 1.899 . S
O132 C140 1.284 . S
Zn133 O132 1.899 . S
Zn133 O134 2.032 . S
Zn133 O137 2.086 . S
Zn133 O142 1.977 . S
O134 Zn133 2.032 . S
O134 C138 1.278 . S
C135 O136 1.203 . S
C135 O142 1.267 . S
O136 C135 1.203 . S
O137 C130 1.185 . S
O137 Zn133 2.086 . S
C138 O134 1.278 . S
C138 O139 1.211 . S
O139 C138 1.211 . S
C140 O132 1.284 . S
C140 O141 1.273 . S
O141 C140 1.273 . S
O142 Zn133 1.977 . S
O142 C135 1.267 . S
C143 O144 1.160 . S
C143 O150 1.185 . S
O144 C143 1.160 . S
O145 Zn146 1.899 . S
O145 C153 1.284 . S
Zn146 O145 1.899 . S
Zn146 O147 2.032 . S
Zn146 O150 2.086 . S
Zn146 O155 1.977 . S
O147 Zn146 2.032 . S
O147 C151 1.278 . S
C148 O149 1.203 . S
C148 O155 1.267 . S
O149 C148 1.203 . S
O150 C143 1.185 . S
O150 Zn146 2.086 . S
C151 O147 1.278 . S
C151 O152 1.211 . S
O152 C151 1.211 . S
C153 O145 1.284 . S
C153 O154 1.273 . S
O154 C153 1.273 . S
O155 Zn146 1.977 . S
O155 C148 1.267 . S
C156 O157 1.160 . S
C156 O163 1.185 . S
O157 C156 1.160 . S
O158 Zn159 1.899 . S
O158 C166 1.284 . S
Zn159 O158 1.899 . S
Zn159 O160 2.032 . S
Zn159 O163 2.086 . S
Zn159 O168 1.977 . S
O160 Zn159 2.032 . S
O160 C164 1.278 . S
C161 O162 1.203 . S
C161 O168 1.267 . S
O162 C161 1.203 . S
O163 C156 1.185 . S
O163 Zn159 2.086 . S
C164 O160 1.278 . S
C164 O165 1.211 . S
O165 C164 1.211 . S
C166 O158 1.284 . S
C166 O167 1.273 . S
O167 C166 1.273 . S
O168 Zn159 1.977 . S
O168 C161 1.267 . S
C169 O170 1.160 . S
C169 O176 1.185 . S
O170 C169 1.160 . S
O171 Zn172 1.899 . S
O171 C179 1.284 . S
Zn172 O171 1.899 . S
Zn172 O173 2.032 . S
Zn172 O176 2.086 . S
Zn172 O181 1.977 . S
O173 Zn172 2.032 . S
O173 C177 1.278 . S
C174 O175 1.203 . S
C174 O181 1.267 . S
O175 C174 1.203 . S
O176 C169 1.185 . S
O176 Zn172 2.086 . S
C177 O173 1.278 . S
C177 O178 1.211 . S
O178 C177 1.211 . S
C179 O171 1.284 . S
C179 O180 1.273 . S
O180 C179 1.273 . S
O181 Zn172 1.977 . S
O181 C174 1.267 . S
C182 O183 1.160 . S
C182 O189 1.185 . S
O183 C182 1.160 . S
O184 Zn185 1.899 . S
O184 C192 1.284 . S
Zn185 O184 1.899 . S
Zn185 O186 2.032 . S
Zn185 O189 2.086 . S
Zn185 O194 1.977 . S
O186 Zn185 2.032 . S
O186 C190 1.278 . S
C187 O188 1.203 . S
C187 O194 1.267 . S
O188 C187 1.203 . S
O189 C182 1.185 . S
O189 Zn185 2.086 . S
C190 O186 1.278 . S
C190 O191 1.211 . S
O191 C190 1.211 . S
C192 O184 1.284 . S
C192 O193 1.273 . S
O193 C192 1.273 . S
O194 Zn185 1.977 . S
O194 C187 1.267 . S
C195 O196 1.160 . S
C195 O202 1.189 . S
O196 C195 1.160 . S
O197 Zn198 1.899 1_554 S
O197 C205 1.284 . S
Zn198 O197 1.899 1_556 S
Zn198 O199 2.032 . S
Zn198 O202 2.085 1_556 S
Zn198 O207 1.977 . S
O199 Zn198 2.032 . S
O199 C203 1.278 . S
C200 O201 1.203 . S
C200 O207 1.267 . S
O201 C200 1.203 . S
O202 C195 1.189 . S
O202 Zn198 2.085 1_554 S
C203 O199 1.278 . S
C203 O204 1.211 . S
O204 C203 1.211 . S
C205 O197 1.284 . S
C205 O206 1.273 1_554 S
O206 C205 1.273 1_556 S
O207 Zn198 1.977 . S
O207 C200 1.267 . S
C208 O209 1.160 . S
C208 O215 1.185 1_556 S
O209 C208 1.160 . S
O210 Zn211 1.899 1_556 S
O210 C218 1.284 . S
Zn211 O210 1.899 1_554 S
Zn211 O212 2.032 . S
Zn211 O215 2.086 . S
Zn211 O220 1.977 . S
O212 Zn211 2.032 . S
O212 C216 1.278 . S
C213 O214 1.203 . S
C213 O220 1.267 . S
O214 C213 1.203 . S
O215 C208 1.185 1_554 S
O215 Zn211 2.086 . S
C216 O212 1.278 . S
C216 O217 1.211 . S
O217 C216 1.211 . S
C218 O210 1.284 . S
C218 O219 1.273 1_556 S
O219 C218 1.273 1_554 S
O220 Zn211 1.977 . S
O220 C213 1.267 . S
C221 O222 1.160 . S
C221 O228 1.185 . S
O222 C221 1.160 . S
O223 Zn224 1.899 . S
O223 C231 1.284 . S
Zn224 O223 1.899 . S
Zn224 O225 2.032 . S
Zn224 O228 2.086 . S
Zn224 O233 1.977 . S
O225 Zn224 2.032 . S
O225 C229 1.278 . S
C226 O227 1.203 . S
C226 O233 1.267 . S
O227 C226 1.203 . S
O228 C221 1.185 . S
O228 Zn224 2.086 . S
C229 O225 1.278 . S
C229 O230 1.211 . S
O230 C229 1.211 . S
C231 O223 1.284 . S
C231 O232 1.273 . S
O232 C231 1.273 . S
O233 Zn224 1.977 . S
O233 C226 1.267 . S
C234 O235 1.160 . S
C234 O241 1.185 1_556 S
O235 C234 1.160 . S
O236 Zn237 1.900 . S
O236 C244 1.285 . S
Zn237 O236 1.900 . S
Zn237 O238 2.032 . S
Zn237 O241 2.086 . S
Zn237 O246 1.977 . S
O238 Zn237 2.032 . S
O238 C242 1.278 . S
C239 O240 1.203 . S
C239 O246 1.267 . S
O240 C239 1.203 . S
O241 C234 1.185 1_554 S
O241 Zn237 2.086 . S
C242 O238 1.278 . S
C242 O243 1.211 . S
O243 C242 1.211 . S
C244 O236 1.285 . S
C244 O245 1.272 . S
O245 C244 1.272 . S
O246 Zn237 1.977 . S
O246 C239 1.267 . S
C247 O248 1.160 . S
C247 O254 1.185 . S
O248 C247 1.160 . S
O249 Zn250 1.899 . S
O249 C257 1.284 . S
Zn250 O249 1.899 . S
Zn250 O251 2.032 . S
Zn250 O254 2.086 . S
Zn250 O259 1.977 . S
O251 Zn250 2.032 . S
O251 C255 1.278 . S
C252 O253 1.203 . S
C252 O259 1.267 . S
O253 C252 1.203 . S
O254 C247 1.185 . S
O254 Zn250 2.086 . S
C255 O251 1.278 . S
C255 O256 1.211 . S
O256 C255 1.211 . S
C257 O249 1.284 . S
C257 O258 1.273 . S
O258 C257 1.273 . S
O259 Zn250 1.977 . S
O259 C252 1.267 . S
C260 O261 1.160 1_556 S
C260 O267 1.185 . S
O261 C260 1.160 1_554 S
O262 Zn263 1.899 . S
O262 C270 1.284 . S
Zn263 O262 1.899 . S
Zn263 O264 2.032 . S
Zn263 O267 2.086 . S
Zn263 O272 1.977 . S
O264 Zn263 2.032 . S
O264 C268 1.278 . S
C265 O266 1.203 . S
C265 O272 1.267 . S
O266 C265 1.203 . S
O267 C260 1.185 . S
O267 Zn263 2.086 . S
C268 O264 1.278 . S
C268 O269 1.211 . S
O269 C268 1.211 . S
C270 O262 1.284 . S
C270 O271 1.273 . S
O271 C270 1.273 . S
O272 Zn263 1.977 . S
O272 C265 1.267 . S
C273 O274 1.160 1_565 S
C273 O280 1.185 . S
O274 C273 1.160 1_545 S
O275 Zn276 1.899 . S
O275 C283 1.284 . S
Zn276 O275 1.899 . S
Zn276 O277 2.032 . S
Zn276 O280 2.086 . S
Zn276 O285 1.977 . S
O277 Zn276 2.032 . S
O277 C281 1.278 . S
C278 O279 1.203 . S
C278 O285 1.267 . S
O279 C278 1.203 . S
O280 C273 1.185 . S
O280 Zn276 2.086 . S
C281 O277 1.278 . S
C281 O282 1.211 . S
O282 C281 1.211 . S
C283 O275 1.284 . S
C283 O284 1.273 . S
O284 C283 1.273 . S
O285 Zn276 1.977 . S
O285 C278 1.267 . S
C286 O287 1.160 . S
C286 O293 1.184 . S
O287 C286 1.160 . S
O288 Zn289 1.899 1_554 S
O288 C296 1.284 . S
Zn289 O288 1.899 1_556 S
Zn289 O290 2.032 . S
Zn289 O293 2.087 1_556 S
Zn289 O298 1.977 . S
O290 Zn289 2.032 . S
O290 C294 1.278 . S
C291 O292 1.203 . S
C291 O298 1.267 . S
O292 C291 1.203 . S
O293 C286 1.184 . S
O293 Zn289 2.087 1_554 S
C294 O290 1.278 . S
C294 O295 1.211 . S
O295 C294 1.211 . S
C296 O288 1.284 . S
C296 O297 1.273 1_554 S
O297 C296 1.273 1_556 S
O298 Zn289 1.977 . S
O298 C291 1.267 . S
C299 O300 1.160 . S
C299 O306 1.185 . S
O300 C299 1.160 . S
O301 Zn302 1.899 . S
O301 C309 1.284 . S
Zn302 O301 1.899 . S
Zn302 O303 2.032 . S
Zn302 O306 2.086 . S
Zn302 O311 1.977 . S
O303 Zn302 2.032 . S
O303 C307 1.278 . S
C304 O305 1.203 . S
C304 O311 1.267 . S
O305 C304 1.203 . S
O306 C299 1.185 . S
O306 Zn302 2.086 . S
C307 O303 1.278 . S
C307 O308 1.211 . S
O308 C307 1.211 . S
C309 O301 1.284 . S
C309 O310 1.273 . S
O310 C309 1.273 . S
O311 Zn302 1.977 . S
O311 C304 1.267 . S
C312 O313 1.160 . S
C312 O319 1.185 . S
O313 C312 1.160 . S
O314 Zn315 1.899 . S
O314 C322 1.284 . S
Zn315 O314 1.899 . S
Zn315 O316 2.032 . S
Zn315 O319 2.086 . S
Zn315 O324 1.977 . S
O316 Zn315 2.032 . S
O316 C320 1.278 . S
C317 O318 1.203 . S
C317 O324 1.267 . S
O318 C317 1.203 . S
O319 C312 1.185 . S
O319 Zn315 2.086 . S
C320 O316 1.278 . S
C320 O321 1.211 . S
O321 C320 1.211 . S
C322 O314 1.284 . S
C322 O323 1.273 . S
O323 C322 1.273 . S
O324 Zn315 1.977 . S
O324 C317 1.267 . S
C325 O326 1.160 . S
C325 O332 1.185 . S
O326 C325 1.160 . S
O327 Zn328 1.899 . S
O327 C335 1.284 . S
Zn328 O327 1.899 . S
Zn328 O329 2.032 . S
Zn328 O332 2.086 . S
Zn328 O337 1.977 . S
O329 Zn328 2.032 . S
O329 C333 1.278 . S
C330 O331 1.203 . S
C330 O337 1.267 . S
O331 C330 1.203 . S
O332 C325 1.185 . S
O332 Zn328 2.086 . S
C333 O329 1.278 . S
C333 O334 1.211 . S
O334 C333 1.211 . S
C335 O327 1.284 . S
C335 O336 1.273 . S
O336 C335 1.273 . S
O337 Zn328 1.977 . S
O337 C330 1.267 . S
C338 O339 1.160 . S
C338 O345 1.185 . S
O339 C338 1.160 . S
O340 Zn341 1.899 . S
O340 C348 1.284 . S
Zn341 O340 1.899 . S
Zn341 O342 2.032 . S
Zn341 O345 2.086 . S
Zn341 O350 1.977 . S
O342 Zn341 2.032 . S
O342 C346 1.278 . S
C343 O344 1.203 . S
C343 O350 1.267 . S
O344 C343 1.203 . S
O345 C338 1.185 . S
O345 Zn341 2.086 . S
C346 O342 1.278 . S
C346 O347 1.211 . S
O347 C346 1.211 . S
C348 O340 1.284 . S
C348 O349 1.273 . S
O349 C348 1.273 . S
O350 Zn341 1.977 . S
O350 C343 1.267 . S
C351 O352 1.160 . S
C351 O358 1.185 . S
O352 C351 1.160 . S
O353 Zn354 1.899 . S
O353 C361 1.284 . S
Zn354 O353 1.899 . S
Zn354 O355 2.032 . S
Zn354 O358 2.086 . S
Zn354 O363 1.977 . S
O355 Zn354 2.032 . S
O355 C359 1.278 . S
C356 O357 1.203 . S
C356 O363 1.267 . S
O357 C356 1.203 . S
O358 C351 1.185 . S
O358 Zn354 2.086 . S
C359 O355 1.278 . S
C359 O360 1.211 . S
O360 C359 1.211 . S
C361 O353 1.284 . S
C361 O362 1.273 . S
O362 C361 1.273 . S
O363 Zn354 1.977 . S
O363 C356 1.267 . S
C364 O365 1.160 . S
C364 O371 1.185 . S
O365 C364 1.160 . S
O366 Zn367 1.899 . S
O366 C374 1.284 . S
Zn367 O366 1.899 . S
Zn367 O368 2.032 . S
Zn367 O371 2.086 . S
Zn367 O376 1.977 . S
O368 Zn367 2.032 . S
O368 C372 1.278 . S
C369 O370 1.203 . S
C369 O376 1.267 . S
O370 C369 1.203 . S
O371 C364 1.185 . S
O371 Zn367 2.086 . S
C372 O368 1.278 . S
C372 O373 1.211 . S
O373 C372 1.211 . S
C374 O366 1.284 . S
C374 O375 1.273 . S
O375 C374 1.273 . S
O376 Zn367 1.977 . S
O376 C369 1.267 . S
C377 O378 1.160 . S
C377 O384 1.185 . S
O378 C377 1.160 . S
O379 Zn380 1.899 . S
O379 C387 1.284 . S
Zn380 O379 1.899 . S
Zn380 O381 2.032 . S
Zn380 O384 2.086 . S
Zn380 O389 1.977 . S
O381 Zn380 2.032 . S
O381 C385 1.278 . S
C382 O383 1.203 . S
C382 O389 1.267 . S
O383 C382 1.203 . S
O384 C377 1.185 . S
O384 Zn380 2.086 . S
C385 O381 1.278 . S
C385 O386 1.211 . S
O386 C385 1.211 . S
C387 O379 1.284 . S
C387 O388 1.273 . S
O388 C387 1.273 . S
O389 Zn380 1.977 . S
O389 C382 1.267 . S
C390 O391 1.160 . S
C390 O397 1.185 . S
O391 C390 1.160 . S
O392 Zn393 1.899 . S
O392 C400 1.284 . S
Zn393 O392 1.899 . S
Zn393 O394 2.032 . S
Zn393 O397 2.086 . S
Zn393 O402 1.977 . S
O394 Zn393 2.032 . S
O394 C398 1.278 . S
C395 O396 1.203 . S
C395 O402 1.267 . S
O396 C395 1.203 . S
O397 C390 1.185 . S
O397 Zn393 2.086 . S
C398 O394 1.278 . S
C398 O399 1.211 . S
O399 C398 1.211 . S
C400 O392 1.284 . S
C400 O401 1.273 . S
O401 C400 1.273 . S
O402 Zn393 1.977 . S
O402 C395 1.267 . S
C403 O404 1.160 . S
C403 O410 1.185 . S
O404 C403 1.160 . S
O405 Zn406 1.899 . S
O405 C413 1.284 . S
Zn406 O405 1.899 . S
Zn406 O407 2.032 . S
Zn406 O410 2.086 . S
Zn406 O415 1.977 . S
O407 Zn406 2.032 . S
O407 C411 1.278 . S
C408 O409 1.203 . S
C408 O415 1.267 . S
O409 C408 1.203 . S
O410 C403 1.185 . S
O410 Zn406 2.086 . S
C411 O407 1.278 . S
C411 O412 1.211 . S
O412 C411 1.211 . S
C413 O405 1.284 . S
C413 O414 1.273 . S
O414 C413 1.273 . S
O415 Zn406 1.977 . S
O415 C408 1.267 . S
C416 C417 1.363 . S
C416 C422 1.379 . S
C416 N424 1.356 . S
C417 C416 1.363 . S
C417 C423 1.363 . S
C418 C419 1.363 . S
C418 C423 1.379 . S
C418 N425 1.356 . S
C419 C418 1.363 . S
C419 C422 1.363 . S
N420 C422 1.356 . S
N420 H432 0.984 1_565 S
N420 H433 0.985 1_565 S
N421 C423 1.372 . S
N421 H426 0.968 1_455 S
N421 H427 0.986 . S
C422 C416 1.379 . S
C422 C419 1.363 . S
C422 N420 1.356 . S
C423 C417 1.363 . S
C423 C418 1.379 . S
C423 N421 1.372 . S
N424 C416 1.356 . S
N424 H430 0.984 . S
N424 H431 0.984 . S
N425 C418 1.356 . S
N425 H428 0.984 . S
N425 H429 0.985 . S
H426 N421 0.968 1_655 S
H427 N421 0.986 . S
H428 N425 0.984 . S
H429 N425 0.985 . S
H430 N424 0.984 . S
H431 N424 0.984 . S
H432 N420 0.984 1_545 S
H433 N420 0.985 1_545 S
C434 C435 1.363 . S
C434 C440 1.379 . S
C434 N442 1.356 . S
C435 C434 1.363 . S
C435 C441 1.363 . S
C436 C437 1.363 . S
C436 C441 1.379 . S
C436 N443 1.356 1_655 S
C437 C436 1.363 . S
C437 C440 1.363 . S
N438 C440 1.356 . S
N438 H450 0.984 . S
N438 H451 0.985 1_655 S
N439 C441 1.356 . S
N439 H444 0.984 . S
N439 H445 0.985 . S
C440 C434 1.379 . S
C440 C437 1.363 . S
C440 N438 1.356 . S
C441 C435 1.363 . S
C441 C436 1.379 . S
C441 N439 1.356 . S
N442 C434 1.356 . S
N442 H448 0.984 . S
N442 H449 0.984 . S
N443 C436 1.356 1_455 S
N443 H446 0.984 . S
N443 H447 0.981 1_455 S
H444 N439 0.984 . S
H445 N439 0.985 . S
H446 N443 0.984 . S
H447 N443 0.981 1_655 S
H448 N442 0.984 . S
H449 N442 0.984 . S
H450 N438 0.984 . S
H451 N438 0.985 1_455 S
C452 C453 1.363 . S
C452 C458 1.379 . S
C452 N460 1.356 . S
C453 C452 1.363 . S
C453 C459 1.363 1_556 S
C454 C455 1.363 1_554 S
C454 C459 1.379 . S
C454 N461 1.356 . S
C455 C454 1.363 1_556 S
C455 C458 1.363 . S
N456 C458 1.356 . S
N456 H468 0.984 . S
N456 H469 0.985 . S
N457 C459 1.356 . S
N457 H462 0.984 . S
N457 H463 0.985 . S
C458 C452 1.379 . S
C458 C455 1.363 . S
C458 N456 1.356 . S
C459 C453 1.363 1_554 S
C459 C454 1.379 . S
C459 N457 1.356 . S
N460 C452 1.356 . S
N460 H466 0.984 . S
N460 H467 0.984 . S
N461 C454 1.356 . S
N461 H464 0.984 . S
N461 H465 0.985 . S
H462 N457 0.984 . S
H463 N457 0.985 . S
H464 N461 0.984 . S
H465 N461 0.985 . S
H466 N460 0.984 . S
H467 N460 0.984 . S
H468 N456 0.984 . S
H469 N456 0.985 . S
C470 C471 1.363 . S
C470 C476 1.379 . S
C470 N478 1.356 . S
C471 C470 1.363 . S
C471 C477 1.363 . S
C472 C473 1.363 . S
C472 C477 1.379 . S
C472 N479 1.356 1_545 S
C473 C472 1.363 . S
C473 C476 1.363 . S
N474 C476 1.356 . S
N474 H486 0.984 . S
N474 H487 0.985 . S
N475 C477 1.356 . S
N475 H480 0.984 . S
N475 H481 0.985 . S
C476 C470 1.379 . S
C476 C473 1.363 . S
C476 N474 1.356 . S
C477 C471 1.363 . S
C477 C472 1.379 . S
C477 N475 1.356 . S
N478 C470 1.356 . S
N478 H484 0.984 . S
N478 H485 0.984 . S
N479 C472 1.356 1_565 S
N479 H482 0.984 . S
N479 H483 0.985 . S
H480 N475 0.984 . S
H481 N475 0.985 . S
H482 N479 0.984 . S
H483 N479 0.985 . S
H484 N478 0.984 . S
H485 N478 0.984 . S
H486 N474 0.984 . S
H487 N474 0.985 . S
C488 C489 1.363 1_554 S
C488 C494 1.379 . S
C488 N496 1.356 . S
C489 C488 1.363 1_556 S
C489 C495 1.363 . S
C490 C491 1.363 1_556 S
C490 C495 1.379 . S
C490 N497 1.356 . S
C491 C490 1.363 1_554 S
C491 C494 1.363 . S
N492 C494 1.356 . S
N492 H504 0.984 . S
N492 H505 0.985 . S
N493 C495 1.356 . S
N493 H498 0.984 . S
N493 H499 0.985 . S
C494 C488 1.379 . S
C494 C491 1.363 . S
C494 N492 1.356 . S
C495 C489 1.363 . S
C495 C490 1.379 . S
C495 N493 1.356 . S
N496 C488 1.356 . S
N496 H502 0.984 . S
N496 H503 0.984 . S
N497 C490 1.356 . S
N497 H500 0.984 . S
N497 H501 0.985 . S
H498 N493 0.984 . S
H499 N493 0.985 . S
H500 N497 0.984 . S
H501 N497 0.985 . S
H502 N496 0.984 . S
H503 N496 0.984 . S
H504 N492 0.984 . S
H505 N492 0.985 . S
C506 C507 1.363 . S
C506 C512 1.379 . S
C506 N514 1.356 . S
C507 C506 1.363 . S
C507 C513 1.363 . S
C508 C509 1.363 . S
C508 C513 1.379 . S
C508 N515 1.356 . S
C509 C508 1.363 . S
C509 C512 1.363 . S
N510 C512 1.356 1_455 S
N510 H522 0.984 . S
N510 H523 0.985 . S
N511 C513 1.356 . S
N511 H516 0.984 . S
N511 H517 0.985 . S
C512 C506 1.379 . S
C512 C509 1.363 . S
C512 N510 1.356 1_655 S
C513 C507 1.363 . S
C513 C508 1.379 . S
C513 N511 1.356 . S
N514 C506 1.356 . S
N514 H520 0.984 . S
N514 H521 0.984 . S
N515 C508 1.356 . S
N515 H518 0.984 1_655 S
N515 H519 0.985 . S
H516 N511 0.984 . S
H517 N511 0.985 . S
H518 N515 0.984 1_455 S
H519 N515 0.985 . S
H520 N514 0.984 . S
H521 N514 0.984 . S
H522 N510 0.984 . S
H523 N510 0.985 . S
C524 C525 1.363 . S
C524 C530 1.379 . S
C524 N532 1.356 . S
C525 C524 1.363 . S
C525 C531 1.363 . S
C526 C527 1.363 . S
C526 C531 1.379 . S
C526 N533 1.356 . S
C527 C526 1.363 . S
C527 C530 1.363 . S
N528 C530 1.356 . S
N528 H540 0.984 . S
N528 H541 0.985 . S
N529 C531 1.356 . S
N529 H534 0.984 . S
N529 H535 0.985 . S
C530 C524 1.379 . S
C530 C527 1.363 . S
C530 N528 1.356 . S
C531 C525 1.363 . S
C531 C526 1.379 . S
C531 N529 1.356 . S
N532 C524 1.356 . S
N532 H538 0.984 . S
N532 H539 0.984 . S
N533 C526 1.356 . S
N533 H536 0.984 . S
N533 H537 0.985 . S
H534 N529 0.984 . S
H535 N529 0.985 . S
H536 N533 0.984 . S
H537 N533 0.985 . S
H538 N532 0.984 . S
H539 N532 0.984 . S
H540 N528 0.984 . S
H541 N528 0.985 . S
C542 C543 1.363 . S
C542 C548 1.379 . S
C542 N550 1.356 . S
C543 C542 1.363 . S
C543 C549 1.363 . S
C544 C545 1.363 . S
C544 C549 1.379 . S
C544 N551 1.356 . S
C545 C544 1.363 . S
C545 C548 1.363 . S
N546 C548 1.356 . S
N546 H558 0.984 . S
N546 H559 0.985 . S
N547 C549 1.356 . S
N547 H552 0.984 . S
N547 H553 0.985 . S
C548 C542 1.379 . S
C548 C545 1.363 . S
C548 N546 1.356 . S
C549 C543 1.363 . S
C549 C544 1.379 . S
C549 N547 1.356 . S
N550 C542 1.356 . S
N550 H556 0.984 . S
N550 H557 0.984 . S
N551 C544 1.356 . S
N551 H554 0.984 . S
N551 H555 0.985 . S
H552 N547 0.984 . S
H553 N547 0.985 . S
H554 N551 0.984 . S
H555 N551 0.985 . S
H556 N550 0.984 . S
H557 N550 0.984 . S
H558 N546 0.984 . S
H559 N546 0.985 . S
C560 C561 1.363 . S
C560 C566 1.379 . S
C560 N568 1.356 . S
C561 C560 1.363 . S
C561 C567 1.363 . S
C562 C563 1.363 . S
C562 C567 1.379 . S
C562 N569 1.356 . S
C563 C562 1.363 . S
C563 C566 1.363 . S
N564 C566 1.356 . S
N564 H576 0.984 . S
N564 H577 0.985 . S
N565 C567 1.356 . S
N565 H570 0.984 . S
N565 H571 0.985 . S
C566 C560 1.379 . S
C566 C563 1.363 . S
C566 N564 1.356 . S
C567 C561 1.363 . S
C567 C562 1.379 . S
C567 N565 1.356 . S
N568 C560 1.356 . S
N568 H574 0.984 . S
N568 H575 0.984 . S
N569 C562 1.356 . S
N569 H572 0.984 . S
N569 H573 0.985 . S
H570 N565 0.984 . S
H571 N565 0.985 . S
H572 N569 0.984 . S
H573 N569 0.985 . S
H574 N568 0.984 . S
H575 N568 0.984 . S
H576 N564 0.984 . S
H577 N564 0.985 . S
C578 C579 1.363 . S
C578 C584 1.379 . S
C578 N586 1.356 . S
C579 C578 1.363 . S
C579 C585 1.363 . S
C580 C581 1.363 . S
C580 C585 1.379 . S
C580 N587 1.356 . S
C581 C580 1.363 . S
C581 C584 1.363 . S
N582 C584 1.356 . S
N582 H594 0.984 . S
N582 H595 0.985 . S
N583 C585 1.356 . S
N583 H588 0.984 . S
N583 H589 0.985 . S
C584 C578 1.379 . S
C584 C581 1.363 . S
C584 N582 1.356 . S
C585 C579 1.363 . S
C585 C580 1.379 . S
C585 N583 1.356 . S
N586 C578 1.356 . S
N586 H592 0.984 . S
N586 H593 0.984 . S
N587 C580 1.356 . S
N587 H590 0.984 . S
N587 H591 0.985 . S
H588 N583 0.984 . S
H589 N583 0.985 . S
H590 N587 0.984 . S
H591 N587 0.985 . S
H592 N586 0.984 . S
H593 N586 0.984 . S
H594 N582 0.984 . S
H595 N582 0.985 . S
C596 C597 1.363 . S
C596 C602 1.379 . S
C596 N604 1.356 . S
C597 C596 1.363 . S
C597 C603 1.363 . S
C598 C599 1.363 . S
C598 C603 1.379 . S
C598 N605 1.356 . S
C599 C598 1.363 . S
C599 C602 1.363 . S
N600 C602 1.356 . S
N600 H612 0.984 . S
N600 H613 0.985 1_545 S
N601 C603 1.356 . S
N601 H606 0.984 . S
N601 H607 0.985 . S
C602 C596 1.379 . S
C602 C599 1.363 . S
C602 N600 1.356 . S
C603 C597 1.363 . S
C603 C598 1.379 . S
C603 N601 1.356 . S
N604 C596 1.356 . S
N604 H610 0.984 . S
N604 H611 0.984 . S
N605 C598 1.356 . S
N605 H608 0.984 . S
N605 H609 0.985 . S
H606 N601 0.984 . S
H607 N601 0.985 . S
H608 N605 0.984 . S
H609 N605 0.985 . S
H610 N604 0.984 . S
H611 N604 0.984 . S
H612 N600 0.984 . S
H613 N600 0.985 1_565 S
C614 C615 1.363 . S
C614 C620 1.379 . S
C614 N622 1.356 1_455 S
C615 C614 1.363 . S
C615 C621 1.363 . S
C616 C617 1.363 . S
C616 C621 1.379 1_556 S
C616 N623 1.356 . S
C617 C616 1.363 . S
C617 C620 1.363 1_556 S
N618 C620 1.356 1_556 S
N618 H630 0.984 1_556 S
N618 H631 0.985 . S
N619 C621 1.356 . S
N619 H624 0.984 . S
N619 H625 0.990 . S
C620 C614 1.379 . S
C620 C617 1.363 1_554 S
C620 N618 1.356 1_554 S
C621 C615 1.363 . S
C621 C616 1.379 1_554 S
C621 N619 1.356 . S
N622 C614 1.356 1_655 S
N622 H628 0.984 . S
N622 H629 0.984 . S
N623 C616 1.356 . S
N623 H626 0.984 . S
N623 H627 0.985 . S
H624 N619 0.984 . S
H625 N619 0.990 . S
H626 N623 0.984 . S
H627 N623 0.985 . S
H628 N622 0.984 . S
H629 N622 0.984 . S
H630 N618 0.984 1_554 S
H631 N618 0.985 . S
C632 C633 1.363 . S
C632 C638 1.379 . S
C632 N640 1.356 . S
C633 C632 1.363 . S
C633 C639 1.363 . S
C634 C635 1.363 . S
C634 C639 1.379 . S
C634 N641 1.356 . S
C635 C634 1.363 . S
C635 C638 1.363 . S
N636 C638 1.356 . S
N636 H648 0.984 . S
N636 H649 0.985 . S
N637 C639 1.356 . S
N637 H642 0.984 . S
N637 H643 0.985 . S
C638 C632 1.379 . S
C638 C635 1.363 . S
C638 N636 1.356 . S
C639 C633 1.363 . S
C639 C634 1.379 . S
C639 N637 1.356 . S
N640 C632 1.356 . S
N640 H646 0.984 . S
N640 H647 0.984 . S
N641 C634 1.356 . S
N641 H644 0.984 . S
N641 H645 0.985 . S
H642 N637 0.984 . S
H643 N637 0.985 . S
H644 N641 0.984 . S
H645 N641 0.985 . S
H646 N640 0.984 . S
H647 N640 0.984 . S
H648 N636 0.984 . S
H649 N636 0.985 . S
C650 C651 1.363 . S
C650 C656 1.379 . S
C650 N658 1.356 . S
C651 C650 1.363 . S
C651 C657 1.363 1_556 S
C652 C653 1.363 1_554 S
C652 C657 1.379 . S
C652 N659 1.356 . S
C653 C652 1.363 1_556 S
C653 C656 1.363 . S
N654 C656 1.356 . S
N654 H666 0.984 . S
N654 H667 0.985 . S
N655 C657 1.356 . S
N655 H660 0.984 . S
N655 H661 0.985 . S
C656 C650 1.379 . S
C656 C653 1.363 . S
C656 N654 1.356 . S
C657 C651 1.363 1_554 S
C657 C652 1.379 . S
C657 N655 1.356 . S
N658 C650 1.356 . S
N658 H664 0.984 . S
N658 H665 0.984 . S
N659 C652 1.356 . S
N659 H662 0.984 . S
N659 H663 0.985 . S
H660 N655 0.984 . S
H661 N655 0.985 . S
H662 N659 0.984 . S
H663 N659 0.985 . S
H664 N658 0.984 . S
H665 N658 0.984 . S
H666 N654 0.984 . S
H667 N654 0.985 . S
C668 C669 1.363 . S
C668 C674 1.379 . S
C668 N676 1.356 . S
C669 C668 1.363 . S
C669 C675 1.363 . S
C670 C671 1.363 . S
C670 C675 1.379 . S
C670 N677 1.356 . S
C671 C670 1.363 . S
C671 C674 1.363 . S
N672 C674 1.356 . S
N672 H684 0.984 . S
N672 H685 0.985 . S
N673 C675 1.356 . S
N673 H678 0.984 . S
N673 H679 0.985 . S
C674 C668 1.379 . S
C674 C671 1.363 . S
C674 N672 1.356 . S
C675 C669 1.363 . S
C675 C670 1.379 . S
C675 N673 1.356 . S
N676 C668 1.356 . S
N676 H682 0.984 . S
N676 H683 0.984 . S
N677 C670 1.356 . S
N677 H680 0.984 . S
N677 H681 0.985 . S
H678 N673 0.984 . S
H679 N673 0.985 . S
H680 N677 0.984 . S
H681 N677 0.985 . S
H682 N676 0.984 . S
H683 N676 0.984 . S
H684 N672 0.984 . S
H685 N672 0.985 . S
C686 C687 1.363 . S
C686 C692 1.379 . S
C686 N694 1.356 . S
C687 C686 1.363 . S
C687 C693 1.363 . S
C688 C689 1.363 . S
C688 C693 1.379 . S
C688 N695 1.356 . S
C689 C688 1.363 . S
C689 C692 1.363 . S
N690 C692 1.356 . S
N690 H702 0.984 . S
N690 H703 0.985 . S
N691 C693 1.356 . S
N691 H696 0.984 . S
N691 H697 0.985 . S
C692 C686 1.379 . S
C692 C689 1.363 . S
C692 N690 1.356 . S
C693 C687 1.363 . S
C693 C688 1.379 . S
C693 N691 1.356 . S
N694 C686 1.356 . S
N694 H700 0.984 . S
N694 H701 0.984 . S
N695 C688 1.356 . S
N695 H698 0.984 . S
N695 H699 0.985 . S
H696 N691 0.984 . S
H697 N691 0.985 . S
H698 N695 0.984 . S
H699 N695 0.985 . S
H700 N694 0.984 . S
H701 N694 0.984 . S
H702 N690 0.984 . S
H703 N690 0.985 . S
C704 C705 1.363 . S
C704 C710 1.379 . S
C704 N712 1.356 . S
C705 C704 1.363 . S
C705 C711 1.363 . S
C706 C707 1.363 . S
C706 C711 1.379 . S
C706 N713 1.356 . S
C707 C706 1.363 . S
C707 C710 1.363 . S
N708 C710 1.356 . S
N708 H720 0.984 . S
N708 H721 0.985 . S
N709 C711 1.356 . S
N709 H714 0.984 . S
N709 H715 0.985 . S
C710 C704 1.379 . S
C710 C707 1.363 . S
C710 N708 1.356 . S
C711 C705 1.363 . S
C711 C706 1.379 . S
C711 N709 1.356 . S
N712 C704 1.356 . S
N712 H718 0.984 . S
N712 H719 0.984 . S
N713 C706 1.356 . S
N713 H716 0.984 . S
N713 H717 0.985 . S
H714 N709 0.984 . S
H715 N709 0.985 . S
H716 N713 0.984 . S
H717 N713 0.985 . S
H718 N712 0.984 . S
H719 N712 0.984 . S
H720 N708 0.984 . S
H721 N708 0.985 . S
C722 C723 1.363 . S
C722 C728 1.379 . S
C722 N730 1.356 . S
C723 C722 1.363 . S
C723 C729 1.363 . S
C724 C725 1.363 . S
C724 C729 1.379 . S
C724 N731 1.356 . S
C725 C724 1.363 . S
C725 C728 1.363 . S
N726 C728 1.356 . S
N726 H738 0.984 . S
N726 H739 0.985 . S
N727 C729 1.356 . S
N727 H732 0.984 . S
N727 H733 0.985 . S
C728 C722 1.379 . S
C728 C725 1.363 . S
C728 N726 1.356 . S
C729 C723 1.363 . S
C729 C724 1.379 . S
C729 N727 1.356 . S
N730 C722 1.356 . S
N730 H736 0.984 . S
N730 H737 0.984 . S
N731 C724 1.356 . S
N731 H734 0.984 . S
N731 H735 0.985 . S
H732 N727 0.984 . S
H733 N727 0.985 . S
H734 N731 0.984 . S
H735 N731 0.985 . S
H736 N730 0.984 . S
H737 N730 0.984 . S
H738 N726 0.984 . S
H739 N726 0.985 . S
C740 C741 1.363 . S
C740 C746 1.379 . S
C740 N748 1.356 . S
C741 C740 1.363 . S
C741 C747 1.363 1_556 S
C742 C743 1.363 1_554 S
C742 C747 1.379 . S
C742 N749 1.356 . S
C743 C742 1.363 1_556 S
C743 C746 1.363 . S
N744 C746 1.356 . S
N744 H756 0.984 . S
N744 H757 0.985 . S
N745 C747 1.356 . S
N745 H750 0.984 . S
N745 H751 0.985 . S
C746 C740 1.379 . S
C746 C743 1.363 . S
C746 N744 1.356 . S
C747 C741 1.363 1_554 S
C747 C742 1.379 . S
C747 N745 1.356 . S
N748 C740 1.356 . S
N748 H754 0.984 . S
N748 H755 0.984 . S
N749 C742 1.356 . S
N749 H752 0.984 . S
N749 H753 0.985 . S
H750 N745 0.984 . S
H751 N745 0.985 . S
H752 N749 0.984 . S
H753 N749 0.985 . S
H754 N748 0.984 . S
H755 N748 0.984 . S
H756 N744 0.984 . S
H757 N744 0.985 . S
C758 C759 1.363 . S
C758 C764 1.379 . S
C758 N766 1.356 . S
C759 C758 1.363 . S
C759 C765 1.363 . S
C760 C761 1.363 . S
C760 C765 1.379 . S
C760 N767 1.356 . S
C761 C760 1.363 . S
C761 C764 1.363 . S
N762 C764 1.356 . S
N762 H774 0.984 . S
N762 H775 0.985 . S
N763 C765 1.356 . S
N763 H768 0.984 . S
N763 H769 0.985 . S
C764 C758 1.379 . S
C764 C761 1.363 . S
C764 N762 1.356 . S
C765 C759 1.363 . S
C765 C760 1.379 . S
C765 N763 1.356 . S
N766 C758 1.356 . S
N766 H772 0.984 . S
N766 H773 0.984 . S
N767 C760 1.356 . S
N767 H770 0.984 . S
N767 H771 0.985 . S
H768 N763 0.984 . S
H769 N763 0.985 . S
H770 N767 0.984 . S
H771 N767 0.985 . S
H772 N766 0.984 . S
H773 N766 0.984 . S
H774 N762 0.984 . S
H775 N762 0.985 . S
C776 C777 1.363 . S
C776 C782 1.379 . S
C776 N784 1.356 . S
C777 C776 1.363 . S
C777 C783 1.363 . S
C778 C779 1.363 . S
C778 C783 1.379 . S
C778 N785 1.356 . S
C779 C778 1.363 . S
C779 C782 1.363 . S
N780 C782 1.356 . S
N780 H792 0.984 . S
N780 H793 0.985 . S
N781 C783 1.356 . S
N781 H786 0.984 . S
N781 H787 0.985 . S
C782 C776 1.379 . S
C782 C779 1.363 . S
C782 N780 1.356 . S
C783 C777 1.363 . S
C783 C778 1.379 . S
C783 N781 1.356 . S
N784 C776 1.356 . S
N784 H790 0.984 . S
N784 H791 0.984 . S
N785 C778 1.356 . S
N785 H788 0.984 . S
N785 H789 0.985 . S
H786 N781 0.984 . S
H787 N781 0.985 . S
H788 N785 0.984 . S
H789 N785 0.985 . S
H790 N784 0.984 . S
H791 N784 0.984 . S
H792 N780 0.984 . S
H793 N780 0.985 . S
C794 C795 1.363 . S
C794 C800 1.379 . S
C794 N802 1.356 . S
C795 C794 1.363 . S
C795 C801 1.363 1_554 S
C796 C797 1.363 . S
C796 C801 1.379 1_554 S
C796 N803 1.356 . S
C797 C796 1.363 . S
C797 C800 1.363 . S
N798 C800 1.356 . S
N798 H810 0.984 . S
N798 H811 0.985 . S
N799 C801 1.356 . S
N799 H804 0.984 . S
N799 H805 0.985 . S
C800 C794 1.379 . S
C800 C797 1.363 . S
C800 N798 1.356 . S
C801 C795 1.363 1_556 S
C801 C796 1.379 1_556 S
C801 N799 1.356 . S
N802 C794 1.356 . S
N802 H808 0.984 . S
N802 H809 0.984 . S
N803 C796 1.356 . S
N803 H806 0.984 . S
N803 H807 0.985 1_554 S
H804 N799 0.984 . S
H805 N799 0.985 . S
H806 N803 0.984 . S
H807 N803 0.985 1_556 S
H808 N802 0.984 . S
H809 N802 0.984 . S
H810 N798 0.984 . S
H811 N798 0.985 . S
C812 C813 1.363 . S
C812 C818 1.379 . S
C812 N820 1.356 . S
C813 C812 1.363 . S
C813 C819 1.363 . S
C814 C815 1.363 . S
C814 C819 1.379 . S
C814 N821 1.356 . S
C815 C814 1.363 . S
C815 C818 1.363 . S
N816 C818 1.356 . S
N816 H828 0.984 . S
N816 H829 0.985 . S
N817 C819 1.356 . S
N817 H822 0.984 . S
N817 H823 0.985 . S
C818 C812 1.379 . S
C818 C815 1.363 . S
C818 N816 1.356 . S
C819 C813 1.363 . S
C819 C814 1.379 . S
C819 N817 1.356 . S
N820 C812 1.356 . S
N820 H826 0.984 . S
N820 H827 0.984 . S
N821 C814 1.356 . S
N821 H824 0.984 . S
N821 H825 0.985 . S
H822 N817 0.984 . S
H823 N817 0.985 . S
H824 N821 0.984 . S
H825 N821 0.985 . S
H826 N820 0.984 . S
H827 N820 0.984 . S
H828 N816 0.984 . S
H829 N816 0.985 . S
C830 C831 1.363 . S
C830 C836 1.379 . S
C830 N838 1.356 . S
C831 C830 1.363 . S
C831 C837 1.363 . S
C832 C833 1.363 . S
C832 C837 1.379 . S
C832 N839 1.356 . S
C833 C832 1.363 . S
C833 C836 1.363 . S
N834 C836 1.356 . S
N834 H846 0.984 . S
N834 H847 0.985 . S
N835 C837 1.356 . S
N835 H840 0.984 . S
N835 H841 0.985 . S
C836 C830 1.379 . S
C836 C833 1.363 . S
C836 N834 1.356 . S
C837 C831 1.363 . S
C837 C832 1.379 . S
C837 N835 1.356 . S
N838 C830 1.356 . S
N838 H844 0.984 . S
N838 H845 0.984 . S
N839 C832 1.356 . S
N839 H842 0.984 . S
N839 H843 0.985 . S
H840 N835 0.984 . S
H841 N835 0.985 . S
H842 N839 0.984 . S
H843 N839 0.985 . S
H844 N838 0.984 . S
H845 N838 0.984 . S
H846 N834 0.984 . S
H847 N834 0.985 . S
C848 C849 1.363 . S
C848 C854 1.379 . S
C848 N856 1.356 . S
C849 C848 1.363 . S
C849 C855 1.363 . S
C850 C851 1.363 . S
C850 C855 1.379 . S
C850 N857 1.356 . S
C851 C850 1.363 . S
C851 C854 1.363 . S
N852 C854 1.356 . S
N852 H864 0.984 . S
N852 H865 0.985 . S
N853 C855 1.356 . S
N853 H858 0.984 . S
N853 H859 0.985 . S
C854 C848 1.379 . S
C854 C851 1.363 . S
C854 N852 1.356 . S
C855 C849 1.363 . S
C855 C850 1.379 . S
C855 N853 1.356 . S
N856 C848 1.356 . S
N856 H862 0.984 . S
N856 H863 0.984 . S
N857 C850 1.356 . S
N857 H860 0.984 . S
N857 H861 0.985 . S
H858 N853 0.984 . S
H859 N853 0.985 . S
H860 N857 0.984 . S
H861 N857 0.985 . S
H862 N856 0.984 . S
H863 N856 0.984 . S
H864 N852 0.984 . S
H865 N852 0.985 . S
C866 C867 1.363 . S
C866 C872 1.379 . S
C866 N874 1.356 . S
C867 C866 1.363 . S
C867 C873 1.363 . S
C868 C869 1.363 . S
C868 C873 1.379 . S
C868 N875 1.356 . S
C869 C868 1.363 . S
C869 C872 1.363 . S
N870 C872 1.356 . S
N870 H882 0.984 . S
N870 H883 0.985 . S
N871 C873 1.356 . S
N871 H876 0.984 . S
N871 H877 0.985 . S
C872 C866 1.379 . S
C872 C869 1.363 . S
C872 N870 1.356 . S
C873 C867 1.363 . S
C873 C868 1.379 . S
C873 N871 1.356 . S
N874 C866 1.356 . S
N874 H880 0.984 . S
N874 H881 0.984 . S
N875 C868 1.356 . S
N875 H878 0.984 . S
N875 H879 0.985 . S
H876 N871 0.984 . S
H877 N871 0.985 . S
H878 N875 0.984 . S
H879 N875 0.985 . S
H880 N874 0.984 . S
H881 N874 0.984 . S
H882 N870 0.984 . S
H883 N870 0.985 . S
C884 C885 1.363 . S
C884 C890 1.379 . S
C884 N892 1.356 . S
C885 C884 1.363 . S
C885 C891 1.363 . S
C886 C887 1.363 . S
C886 C891 1.379 . S
C886 N893 1.356 . S
C887 C886 1.363 . S
C887 C890 1.363 . S
N888 C890 1.356 . S
N888 H900 0.984 . S
N888 H901 0.985 . S
N889 C891 1.356 . S
N889 H894 0.984 . S
N889 H895 0.985 . S
C890 C884 1.379 . S
C890 C887 1.363 . S
C890 N888 1.356 . S
C891 C885 1.363 . S
C891 C886 1.379 . S
C891 N889 1.356 . S
N892 C884 1.356 . S
N892 H898 0.984 . S
N892 H899 0.984 . S
N893 C886 1.356 . S
N893 H896 0.984 . S
N893 H897 0.985 . S
H894 N889 0.984 . S
H895 N889 0.985 . S
H896 N893 0.984 . S
H897 N893 0.985 . S
H898 N892 0.984 . S
H899 N892 0.984 . S
H900 N888 0.984 . S
H901 N888 0.985 . S
C902 C903 1.363 . S
C902 C908 1.379 . S
C902 N910 1.356 . S
C903 C902 1.363 . S
C903 C909 1.363 . S
C904 C905 1.363 . S
C904 C909 1.379 . S
C904 N911 1.356 . S
C905 C904 1.363 . S
C905 C908 1.363 . S
N906 C908 1.356 . S
N906 H918 0.984 . S
N906 H919 0.985 . S
N907 C909 1.356 . S
N907 H912 0.984 . S
N907 H913 0.985 . S
C908 C902 1.379 . S
C908 C905 1.363 . S
C908 N906 1.356 . S
C909 C903 1.363 . S
C909 C904 1.379 . S
C909 N907 1.356 . S
N910 C902 1.356 . S
N910 H916 0.984 . S
N910 H917 0.984 . S
N911 C904 1.356 . S
N911 H914 0.984 . S
N911 H915 0.985 . S
H912 N907 0.984 . S
H913 N907 0.985 . S
H914 N911 0.984 . S
H915 N911 0.985 . S
H916 N910 0.984 . S
H917 N910 0.984 . S
H918 N906 0.984 . S
H919 N906 0.985 . S
C920 C921 1.363 . S
C920 C926 1.379 . S
C920 N928 1.356 . S
C921 C920 1.363 . S
C921 C927 1.363 . S
C922 C923 1.363 . S
C922 C927 1.379 . S
C922 N929 1.356 . S
C923 C922 1.363 . S
C923 C926 1.363 . S
N924 C926 1.356 . S
N924 H936 0.984 . S
N924 H937 0.985 . S
N925 C927 1.356 . S
N925 H930 0.984 . S
N925 H931 0.985 . S
C926 C920 1.379 . S
C926 C923 1.363 . S
C926 N924 1.356 . S
C927 C921 1.363 . S
C927 C922 1.379 . S
C927 N925 1.356 . S
N928 C920 1.356 . S
N928 H934 0.984 . S
N928 H935 0.984 . S
N929 C922 1.356 . S
N929 H932 0.984 . S
N929 H933 0.985 . S
H930 N925 0.984 . S
H931 N925 0.985 . S
H932 N929 0.984 . S
H933 N929 0.985 . S
H934 N928 0.984 . S
H935 N928 0.984 . S
H936 N924 0.984 . S
H937 N924 0.985 . S
C938 C939 1.363 . S
C938 C944 1.379 . S
C938 N946 1.356 . S
C939 C938 1.363 . S
C939 C945 1.363 . S
C940 C941 1.363 . S
C940 C945 1.379 . S
C940 N947 1.356 . S
C941 C940 1.363 . S
C941 C944 1.363 . S
N942 C944 1.356 . S
N942 H954 0.984 . S
N942 H955 0.985 . S
N943 C945 1.356 . S
N943 H948 0.984 . S
N943 H949 0.985 . S
C944 C938 1.379 . S
C944 C941 1.363 . S
C944 N942 1.356 . S
C945 C939 1.363 . S
C945 C940 1.379 . S
C945 N943 1.356 . S
N946 C938 1.356 . S
N946 H952 0.984 . S
N946 H953 0.984 . S
N947 C940 1.356 . S
N947 H950 0.984 . S
N947 H951 0.985 . S
H948 N943 0.984 . S
H949 N943 0.985 . S
H950 N947 0.984 . S
H951 N947 0.985 . S
H952 N946 0.984 . S
H953 N946 0.984 . S
H954 N942 0.984 . S
H955 N942 0.985 . S
C956 C957 1.363 . S
C956 C962 1.379 . S
C956 N964 1.356 . S
C957 C956 1.363 . S
C957 C963 1.363 . S
C958 C959 1.363 . S
C958 C963 1.379 . S
C958 N965 1.356 . S
C959 C958 1.363 . S
C959 C962 1.363 . S
N960 C962 1.356 . S
N960 H972 0.984 . S
N960 H973 0.985 . S
N961 C963 1.356 . S
N961 H966 0.984 . S
N961 H967 0.985 . S
C962 C956 1.379 . S
C962 C959 1.363 . S
C962 N960 1.356 . S
C963 C957 1.363 . S
C963 C958 1.379 . S
C963 N961 1.356 . S
N964 C956 1.356 . S
N964 H970 0.984 . S
N964 H971 0.984 . S
N965 C958 1.356 . S
N965 H968 0.984 . S
N965 H969 0.985 . S
H966 N961 0.984 . S
H967 N961 0.985 . S
H968 N965 0.984 . S
H969 N965 0.985 . S
H970 N964 0.984 . S
H971 N964 0.984 . S
H972 N960 0.984 . S
H973 N960 0.985 . S
C974 C975 1.363 . S
C974 C980 1.379 . S
C974 N982 1.356 . S
C975 C974 1.363 . S
C975 C981 1.363 . S
C976 C977 1.363 . S
C976 C981 1.379 . S
C976 N983 1.356 . S
C977 C976 1.363 . S
C977 C980 1.363 . S
N978 C980 1.356 . S
N978 H990 0.984 . S
N978 H991 0.985 . S
N979 C981 1.356 . S
N979 H984 0.984 1_545 S
N979 H985 0.985 1_545 S
C980 C974 1.379 . S
C980 C977 1.363 . S
C980 N978 1.356 . S
C981 C975 1.363 . S
C981 C976 1.379 . S
C981 N979 1.356 . S
N982 C974 1.356 . S
N982 H988 0.984 . S
N982 H989 0.984 . S
N983 C976 1.356 . S
N983 H986 0.984 . S
N983 H987 0.985 . S
H984 N979 0.984 1_565 S
H985 N979 0.985 1_565 S
H986 N983 0.984 . S
H987 N983 0.985 . S
H988 N982 0.984 . S
H989 N982 0.984 . S
H990 N978 0.984 . S
H991 N978 0.985 . S
C992 C993 1.363 . S
C992 C998 1.379 . S
C992 N1000 1.356 . S
C993 C992 1.363 . S
C993 C999 1.363 . S
C994 C995 1.363 . S
C994 C999 1.379 . S
C994 N1001 1.356 . S
C995 C994 1.363 . S
C995 C998 1.363 . S
N996 C998 1.356 . S
N996 H1008 0.984 . S
N996 H1009 0.985 . S
N997 C999 1.356 . S
N997 H1002 0.984 . S
N997 H1003 0.985 . S
C998 C992 1.379 . S
C998 C995 1.363 . S
C998 N996 1.356 . S
C999 C993 1.363 . S
C999 C994 1.379 . S
C999 N997 1.356 . S
N1000 C992 1.356 . S
N1000 H1006 0.984 . S
N1000 H1007 0.984 . S
N1001 C994 1.356 . S
N1001 H1004 0.984 . S
N1001 H1005 0.985 . S
H1002 N997 0.984 . S
H1003 N997 0.985 . S
H1004 N1001 0.984 . S
H1005 N1001 0.985 . S
H1006 N1000 0.984 . S
H1007 N1000 0.984 . S
H1008 N996 0.984 . S
H1009 N996 0.985 . S
C1010 C1011 1.363 . S
C1010 C1016 1.379 . S
C1010 N1018 1.356 . S
C1011 C1010 1.363 . S
C1011 C1017 1.363 . S
C1012 C1013 1.363 . S
C1012 C1017 1.379 . S
C1012 N1019 1.356 . S
C1013 C1012 1.363 . S
C1013 C1016 1.363 . S
N1014 C1016 1.356 . S
N1014 H1026 0.984 . S
N1014 H1027 0.985 . S
N1015 C1017 1.356 . S
N1015 H1020 0.984 . S
N1015 H1021 0.985 . S
C1016 C1010 1.379 . S
C1016 C1013 1.363 . S
C1016 N1014 1.356 . S
C1017 C1011 1.363 . S
C1017 C1012 1.379 . S
C1017 N1015 1.356 . S
N1018 C1010 1.356 . S
N1018 H1024 0.984 . S
N1018 H1025 0.984 . S
N1019 C1012 1.356 . S
N1019 H1022 0.984 . S
N1019 H1023 0.985 . S
H1020 N1015 0.984 . S
H1021 N1015 0.985 . S
H1022 N1019 0.984 . S
H1023 N1019 0.985 . S
H1024 N1018 0.984 . S
H1025 N1018 0.984 . S
H1026 N1014 0.984 . S
H1027 N1014 0.985 . S
C1028 C1029 1.363 . S
C1028 C1034 1.379 . S
C1028 N1036 1.356 . S
C1029 C1028 1.363 . S
C1029 C1035 1.363 . S
C1030 C1031 1.363 . S
C1030 C1035 1.379 . S
C1030 N1037 1.356 . S
C1031 C1030 1.363 . S
C1031 C1034 1.363 . S
N1032 C1034 1.356 . S
N1032 H1044 0.984 . S
N1032 H1045 0.985 . S
N1033 C1035 1.356 . S
N1033 H1038 0.984 . S
N1033 H1039 0.985 . S
C1034 C1028 1.379 . S
C1034 C1031 1.363 . S
C1034 N1032 1.356 . S
C1035 C1029 1.363 . S
C1035 C1030 1.379 . S
C1035 N1033 1.356 . S
N1036 C1028 1.356 . S
N1036 H1042 0.984 . S
N1036 H1043 0.984 . S
N1037 C1030 1.356 . S
N1037 H1040 0.984 . S
N1037 H1041 0.985 . S
H1038 N1033 0.984 . S
H1039 N1033 0.985 . S
H1040 N1037 0.984 . S
H1041 N1037 0.985 . S
H1042 N1036 0.984 . S
H1043 N1036 0.984 . S
H1044 N1032 0.984 . S
H1045 N1032 0.985 . S
C1046 C1047 1.363 . S
C1046 C1052 1.379 . S
C1046 N1054 1.356 . S
C1047 C1046 1.363 . S
C1047 C1053 1.363 . S
C1048 C1049 1.363 . S
C1048 C1053 1.379 . S
C1048 N1055 1.356 . S
C1049 C1048 1.363 . S
C1049 C1052 1.363 . S
N1050 C1052 1.356 . S
N1050 H1062 0.984 . S
N1050 H1063 0.985 . S
N1051 C1053 1.356 . S
N1051 H1056 0.984 . S
N1051 H1057 0.985 . S
C1052 C1046 1.379 . S
C1052 C1049 1.363 . S
C1052 N1050 1.356 . S
C1053 C1047 1.363 . S
C1053 C1048 1.379 . S
C1053 N1051 1.356 . S
N1054 C1046 1.356 . S
N1054 H1060 0.984 . S
N1054 H1061 0.984 . S
N1055 C1048 1.356 . S
N1055 H1058 0.984 . S
N1055 H1059 0.985 . S
H1056 N1051 0.984 . S
H1057 N1051 0.985 . S
H1058 N1055 0.984 . S
H1059 N1055 0.985 . S
H1060 N1054 0.984 . S
H1061 N1054 0.984 . S
H1062 N1050 0.984 . S
H1063 N1050 0.985 . S
C1064 C1065 1.363 . S
C1064 C1070 1.379 . S
C1064 N1072 1.356 . S
C1065 C1064 1.363 . S
C1065 C1071 1.363 1_554 S
C1066 C1067 1.363 . S
C1066 C1071 1.379 1_554 S
C1066 N1073 1.356 . S
C1067 C1066 1.363 . S
C1067 C1070 1.363 . S
N1068 C1070 1.356 . S
N1068 H1080 0.984 . S
N1068 H1081 0.985 . S
N1069 C1071 1.356 . S
N1069 H1074 0.984 . S
N1069 H1075 0.985 . S
C1070 C1064 1.379 . S
C1070 C1067 1.363 . S
C1070 N1068 1.356 . S
C1071 C1065 1.363 1_556 S
C1071 C1066 1.379 1_556 S
C1071 N1069 1.356 . S
N1072 C1064 1.356 . S
N1072 H1078 0.984 . S
N1072 H1079 0.984 . S
N1073 C1066 1.356 . S
N1073 H1076 0.984 . S
N1073 H1077 0.985 1_554 S
H1074 N1069 0.984 . S
H1075 N1069 0.985 . S
H1076 N1073 0.984 . S
H1077 N1073 0.985 1_556 S
H1078 N1072 0.984 . S
H1079 N1072 0.984 . S
H1080 N1068 0.984 . S
H1081 N1068 0.985 . S
C1082 C1083 1.363 . S
C1082 C1088 1.379 . S
C1082 N1090 1.356 . S
C1083 C1082 1.363 . S
C1083 C1089 1.363 1_556 S
C1084 C1085 1.363 1_554 S
C1084 C1089 1.379 . S
C1084 N1091 1.356 . S
C1085 C1084 1.363 1_556 S
C1085 C1088 1.363 . S
N1086 C1088 1.356 . S
N1086 H1098 0.984 . S
N1086 H1099 0.985 . S
N1087 C1089 1.356 . S
N1087 H1092 0.984 . S
N1087 H1093 0.985 . S
C1088 C1082 1.379 . S
C1088 C1085 1.363 . S
C1088 N1086 1.356 . S
C1089 C1083 1.363 1_554 S
C1089 C1084 1.379 . S
C1089 N1087 1.356 . S
N1090 C1082 1.356 . S
N1090 H1096 0.984 . S
N1090 H1097 0.984 . S
N1091 C1084 1.356 . S
N1091 H1094 0.984 . S
N1091 H1095 0.985 . S
H1092 N1087 0.984 . S
H1093 N1087 0.985 . S
H1094 N1091 0.984 . S
H1095 N1091 0.985 . S
H1096 N1090 0.984 . S
H1097 N1090 0.984 . S
H1098 N1086 0.984 . S
H1099 N1086 0.985 . S
C1100 C1101 1.363 . S
C1100 C1106 1.379 . S
C1100 N1108 1.356 . S
C1101 C1100 1.363 . S
C1101 C1107 1.363 . S
C1102 C1103 1.363 . S
C1102 C1107 1.379 . S
C1102 N1109 1.356 . S
C1103 C1102 1.363 . S
C1103 C1106 1.363 . S
N1104 C1106 1.356 . S
N1104 H1116 0.984 . S
N1104 H1117 0.985 . S
N1105 C1107 1.356 . S
N1105 H1110 0.984 . S
N1105 H1111 0.985 . S
C1106 C1100 1.379 . S
C1106 C1103 1.363 . S
C1106 N1104 1.356 . S
C1107 C1101 1.363 . S
C1107 C1102 1.379 . S
C1107 N1105 1.356 . S
N1108 C1100 1.356 . S
N1108 H1114 0.984 . S
N1108 H1115 0.984 . S
N1109 C1102 1.356 . S
N1109 H1112 0.984 . S
N1109 H1113 0.985 . S
H1110 N1105 0.984 . S
H1111 N1105 0.985 . S
H1112 N1109 0.984 . S
H1113 N1109 0.985 . S
H1114 N1108 0.984 . S
H1115 N1108 0.984 . S
H1116 N1104 0.984 . S
H1117 N1104 0.985 . S
C1118 C1119 1.363 . S
C1118 C1124 1.379 . S
C1118 N1126 1.356 . S
C1119 C1118 1.363 . S
C1119 C1125 1.363 . S
C1120 C1121 1.363 . S
C1120 C1125 1.379 . S
C1120 N1127 1.356 . S
C1121 C1120 1.363 . S
C1121 C1124 1.363 . S
N1122 C1124 1.356 . S
N1122 H1134 0.984 . S
N1122 H1135 0.985 . S
N1123 C1125 1.356 . S
N1123 H1128 0.984 . S
N1123 H1129 0.985 . S
C1124 C1118 1.379 . S
C1124 C1121 1.363 . S
C1124 N1122 1.356 . S
C1125 C1119 1.363 . S
C1125 C1120 1.379 . S
C1125 N1123 1.356 . S
N1126 C1118 1.356 . S
N1126 H1132 0.984 . S
N1126 H1133 0.984 . S
N1127 C1120 1.356 . S
N1127 H1130 0.984 . S
N1127 H1131 0.985 . S
H1128 N1123 0.984 . S
H1129 N1123 0.985 . S
H1130 N1127 0.984 . S
H1131 N1127 0.985 . S
H1132 N1126 0.984 . S
H1133 N1126 0.984 . S
H1134 N1122 0.984 . S
H1135 N1122 0.985 . S
C1136 C1137 1.363 . S
C1136 C1142 1.379 . S
C1136 N1144 1.356 . S
C1137 C1136 1.363 . S
C1137 C1143 1.363 . S
C1138 C1139 1.363 . S
C1138 C1143 1.379 . S
C1138 N1145 1.356 . S
C1139 C1138 1.363 . S
C1139 C1142 1.363 . S
N1140 C1142 1.356 . S
N1140 H1152 0.984 . S
N1140 H1153 0.985 . S
N1141 C1143 1.356 . S
N1141 H1146 0.984 . S
N1141 H1147 0.985 . S
C1142 C1136 1.379 . S
C1142 C1139 1.363 . S
C1142 N1140 1.356 . S
C1143 C1137 1.363 . S
C1143 C1138 1.379 . S
C1143 N1141 1.356 . S
N1144 C1136 1.356 . S
N1144 H1150 0.984 . S
N1144 H1151 0.984 . S
N1145 C1138 1.356 . S
N1145 H1148 0.984 . S
N1145 H1149 0.985 . S
H1146 N1141 0.984 . S
H1147 N1141 0.985 . S
H1148 N1145 0.984 . S
H1149 N1145 0.985 . S
H1150 N1144 0.984 . S
H1151 N1144 0.984 . S
H1152 N1140 0.984 . S
H1153 N1140 0.985 . S
C1154 C1155 1.363 . S
C1154 C1160 1.379 . S
C1154 N1162 1.356 . S
C1155 C1154 1.363 . S
C1155 C1161 1.363 . S
C1156 C1157 1.363 . S
C1156 C1161 1.379 . S
C1156 N1163 1.356 . S
C1157 C1156 1.363 . S
C1157 C1160 1.363 . S
N1158 C1160 1.356 . S
N1158 H1170 0.984 . S
N1158 H1171 0.985 . S
N1159 C1161 1.356 . S
N1159 H1164 0.984 . S
N1159 H1165 0.985 . S
C1160 C1154 1.379 . S
C1160 C1157 1.363 . S
C1160 N1158 1.356 . S
C1161 C1155 1.363 . S
C1161 C1156 1.379 . S
C1161 N1159 1.356 . S
N1162 C1154 1.356 . S
N1162 H1168 0.984 . S
N1162 H1169 0.984 . S
N1163 C1156 1.356 . S
N1163 H1166 0.984 . S
N1163 H1167 0.985 . S
H1164 N1159 0.984 . S
H1165 N1159 0.985 . S
H1166 N1163 0.984 . S
H1167 N1163 0.985 . S
H1168 N1162 0.984 . S
H1169 N1162 0.984 . S
H1170 N1158 0.984 . S
H1171 N1158 0.985 . S
C1172 C1173 1.363 . S
C1172 C1178 1.379 . S
C1172 N1180 1.356 . S
C1173 C1172 1.363 . S
C1173 C1179 1.363 . S
C1174 C1175 1.363 . S
C1174 C1179 1.379 . S
C1174 N1181 1.356 . S
C1175 C1174 1.363 . S
C1175 C1178 1.363 . S
N1176 C1178 1.356 . S
N1176 H1188 0.984 . S
N1176 H1189 0.985 . S
N1177 C1179 1.356 . S
N1177 H1182 0.984 . S
N1177 H1183 0.985 . S
C1178 C1172 1.379 . S
C1178 C1175 1.363 . S
C1178 N1176 1.356 . S
C1179 C1173 1.363 . S
C1179 C1174 1.379 . S
C1179 N1177 1.356 . S
N1180 C1172 1.356 . S
N1180 H1186 0.984 . S
N1180 H1187 0.984 . S
N1181 C1174 1.356 . S
N1181 H1184 0.984 . S
N1181 H1185 0.985 1_565 S
H1182 N1177 0.984 . S
H1183 N1177 0.985 . S
H1184 N1181 0.984 . S
H1185 N1181 0.985 1_545 S
H1186 N1180 0.984 . S
H1187 N1180 0.984 . S
H1188 N1176 0.984 . S
H1189 N1176 0.985 . S
C1190 C1191 1.363 . S
C1190 C1196 1.379 . S
C1190 N1198 1.356 . S
C1191 C1190 1.363 . S
C1191 C1197 1.363 . S
C1192 C1193 1.363 . S
C1192 C1197 1.379 . S
C1192 N1199 1.356 . S
C1193 C1192 1.363 . S
C1193 C1196 1.363 . S
N1194 C1196 1.356 . S
N1194 H1206 0.984 . S
N1194 H1207 0.985 . S
N1195 C1197 1.356 . S
N1195 H1200 0.984 . S
N1195 H1201 0.985 . S
C1196 C1190 1.379 . S
C1196 C1193 1.363 . S
C1196 N1194 1.356 . S
C1197 C1191 1.363 . S
C1197 C1192 1.379 . S
C1197 N1195 1.356 . S
N1198 C1190 1.356 . S
N1198 H1204 0.984 . S
N1198 H1205 0.984 . S
N1199 C1192 1.356 . S
N1199 H1202 0.984 . S
N1199 H1203 0.985 . S
H1200 N1195 0.984 . S
H1201 N1195 0.985 . S
H1202 N1199 0.984 . S
H1203 N1199 0.985 . S
H1204 N1198 0.984 . S
H1205 N1198 0.984 . S
H1206 N1194 0.984 . S
H1207 N1194 0.985 . S
C1208 C1209 1.363 . S
C1208 C1214 1.379 . S
C1208 N1216 1.356 . S
C1209 C1208 1.363 . S
C1209 C1215 1.363 . S
C1210 C1211 1.363 . S
C1210 C1215 1.379 . S
C1210 N1217 1.356 . S
C1211 C1210 1.363 . S
C1211 C1214 1.363 . S
N1212 C1214 1.356 . S
N1212 H1224 0.984 . S
N1212 H1225 0.985 . S
N1213 C1215 1.356 . S
N1213 H1218 0.984 . S
N1213 H1219 0.985 . S
C1214 C1208 1.379 . S
C1214 C1211 1.363 . S
C1214 N1212 1.356 . S
C1215 C1209 1.363 . S
C1215 C1210 1.379 . S
C1215 N1213 1.356 . S
N1216 C1208 1.356 . S
N1216 H1222 0.984 . S
N1216 H1223 0.984 . S
N1217 C1210 1.356 . S
N1217 H1220 0.984 . S
N1217 H1221 0.985 . S
H1218 N1213 0.984 . S
H1219 N1213 0.985 . S
H1220 N1217 0.984 . S
H1221 N1217 0.985 . S
H1222 N1216 0.984 . S
H1223 N1216 0.984 . S
H1224 N1212 0.984 . S
H1225 N1212 0.985 . S
C1226 C1227 1.363 . S
C1226 C1232 1.379 . S
C1226 N1234 1.356 . S
C1227 C1226 1.363 . S
C1227 C1233 1.363 . S
C1228 C1229 1.363 . S
C1228 C1233 1.379 . S
C1228 N1235 1.356 . S
C1229 C1228 1.363 . S
C1229 C1232 1.363 . S
N1230 C1232 1.356 . S
N1230 H1242 0.984 . S
N1230 H1243 0.985 . S
N1231 C1233 1.356 . S
N1231 H1236 0.984 . S
N1231 H1237 0.985 . S
C1232 C1226 1.379 . S
C1232 C1229 1.363 . S
C1232 N1230 1.356 . S
C1233 C1227 1.363 . S
C1233 C1228 1.379 . S
C1233 N1231 1.356 . S
N1234 C1226 1.356 . S
N1234 H1240 0.984 . S
N1234 H1241 0.984 . S
N1235 C1228 1.356 . S
N1235 H1238 0.984 . S
N1235 H1239 0.985 . S
H1236 N1231 0.984 . S
H1237 N1231 0.985 . S
H1238 N1235 0.984 . S
H1239 N1235 0.985 . S
H1240 N1234 0.984 . S
H1241 N1234 0.984 . S
H1242 N1230 0.984 . S
H1243 N1230 0.985 . S
C1244 C1245 1.363 . S
C1244 C1250 1.379 . S
C1244 N1252 1.356 . S
C1245 C1244 1.363 . S
C1245 C1251 1.363 . S
C1246 C1247 1.363 . S
C1246 C1251 1.379 . S
C1246 N1253 1.356 . S
C1247 C1246 1.363 . S
C1247 C1250 1.363 . S
N1248 C1250 1.356 . S
N1248 H1260 0.984 . S
N1248 H1261 0.985 . S
N1249 C1251 1.356 . S
N1249 H1254 0.984 . S
N1249 H1255 0.985 . S
C1250 C1244 1.379 . S
C1250 C1247 1.363 . S
C1250 N1248 1.356 . S
C1251 C1245 1.363 . S
C1251 C1246 1.379 . S
C1251 N1249 1.356 . S
N1252 C1244 1.356 . S
N1252 H1258 0.984 . S
N1252 H1259 0.984 . S
N1253 C1246 1.356 . S
N1253 H1256 0.984 . S
N1253 H1257 0.985 . S
H1254 N1249 0.984 . S
H1255 N1249 0.985 . S
H1256 N1253 0.984 . S
H1257 N1253 0.985 . S
H1258 N1252 0.984 . S
H1259 N1252 0.984 . S
H1260 N1248 0.984 . S
H1261 N1248 0.985 . S
C1262 C1263 1.363 . S
C1262 C1268 1.379 . S
C1262 N1270 1.356 . S
C1263 C1262 1.363 . S
C1263 C1269 1.363 . S
C1264 C1265 1.363 . S
C1264 C1269 1.379 . S
C1264 N1271 1.356 . S
C1265 C1264 1.363 . S
C1265 C1268 1.363 . S
N1266 C1268 1.356 . S
N1266 H1278 0.984 . S
N1266 H1279 0.985 . S
N1267 C1269 1.356 . S
N1267 H1272 0.984 . S
N1267 H1273 0.985 . S
C1268 C1262 1.379 . S
C1268 C1265 1.363 . S
C1268 N1266 1.356 . S
C1269 C1263 1.363 . S
C1269 C1264 1.379 . S
C1269 N1267 1.356 . S
N1270 C1262 1.356 . S
N1270 H1276 0.984 . S
N1270 H1277 0.984 . S
N1271 C1264 1.356 . S
N1271 H1274 0.984 . S
N1271 H1275 0.985 . S
H1272 N1267 0.984 . S
H1273 N1267 0.985 . S
H1274 N1271 0.984 . S
H1275 N1271 0.985 . S
H1276 N1270 0.984 . S
H1277 N1270 0.984 . S
H1278 N1266 0.984 . S
H1279 N1266 0.985 . S
C1280 C1281 1.363 . S
C1280 C1286 1.379 . S
C1280 N1288 1.356 . S
C1281 C1280 1.363 . S
C1281 C1287 1.363 . S
C1282 C1283 1.363 . S
C1282 C1287 1.379 . S
C1282 N1289 1.356 . S
C1283 C1282 1.363 . S
C1283 C1286 1.363 . S
N1284 C1286 1.356 . S
N1284 H1296 0.984 . S
N1284 H1297 0.985 . S
N1285 C1287 1.356 . S
N1285 H1290 0.984 . S
N1285 H1291 0.985 . S
C1286 C1280 1.379 . S
C1286 C1283 1.363 . S
C1286 N1284 1.356 . S
C1287 C1281 1.363 . S
C1287 C1282 1.379 . S
C1287 N1285 1.356 . S
N1288 C1280 1.356 . S
N1288 H1294 0.984 . S
N1288 H1295 0.984 . S
N1289 C1282 1.356 . S
N1289 H1292 0.984 . S
N1289 H1293 0.985 . S
H1290 N1285 0.984 . S
H1291 N1285 0.985 . S
H1292 N1289 0.984 . S
H1293 N1289 0.985 . S
H1294 N1288 0.984 . S
H1295 N1288 0.984 . S
H1296 N1284 0.984 . S
H1297 N1284 0.985 . S
C1298 C1299 1.363 . S
C1298 C1304 1.379 . S
C1298 N1306 1.356 . S
C1299 C1298 1.363 . S
C1299 C1305 1.363 . S
C1300 C1301 1.363 . S
C1300 C1305 1.379 . S
C1300 N1307 1.356 . S
C1301 C1300 1.363 . S
C1301 C1304 1.363 . S
N1302 C1304 1.356 . S
N1302 H1314 0.984 . S
N1302 H1315 0.985 . S
N1303 C1305 1.356 . S
N1303 H1308 0.984 . S
N1303 H1309 0.985 . S
C1304 C1298 1.379 . S
C1304 C1301 1.363 . S
C1304 N1302 1.356 . S
C1305 C1299 1.363 . S
C1305 C1300 1.379 . S
C1305 N1303 1.356 . S
N1306 C1298 1.356 . S
N1306 H1312 0.984 . S
N1306 H1313 0.984 . S
N1307 C1300 1.356 . S
N1307 H1310 0.984 . S
N1307 H1311 0.985 . S
H1308 N1303 0.984 . S
H1309 N1303 0.985 . S
H1310 N1307 0.984 . S
H1311 N1307 0.985 . S
H1312 N1306 0.984 . S
H1313 N1306 0.984 . S
H1314 N1302 0.984 . S
H1315 N1302 0.985 . S
C1316 C1317 1.363 . S
C1316 C1322 1.379 . S
C1316 N1324 1.356 . S
C1317 C1316 1.363 . S
C1317 C1323 1.363 . S
C1318 C1319 1.363 . S
C1318 C1323 1.379 . S
C1318 N1325 1.356 . S
C1319 C1318 1.363 . S
C1319 C1322 1.363 . S
N1320 C1322 1.356 . S
N1320 H1332 0.984 . S
N1320 H1333 0.985 . S
N1321 C1323 1.356 . S
N1321 H1326 0.984 . S
N1321 H1327 0.985 . S
C1322 C1316 1.379 . S
C1322 C1319 1.363 . S
C1322 N1320 1.356 . S
C1323 C1317 1.363 . S
C1323 C1318 1.379 . S
C1323 N1321 1.356 . S
N1324 C1316 1.356 . S
N1324 H1330 0.984 . S
N1324 H1331 0.984 . S
N1325 C1318 1.356 . S
N1325 H1328 0.984 . S
N1325 H1329 0.985 . S
H1326 N1321 0.984 . S
H1327 N1321 0.985 . S
H1328 N1325 0.984 . S
H1329 N1325 0.985 . S
H1330 N1324 0.984 . S
H1331 N1324 0.984 . S
H1332 N1320 0.984 . S
H1333 N1320 0.985 . S
C1334 C1335 1.363 . S
C1334 C1340 1.379 . S
C1334 N1342 1.356 . S
C1335 C1334 1.363 . S
C1335 C1341 1.363 . S
C1336 C1337 1.363 . S
C1336 C1341 1.379 . S
C1336 N1343 1.356 . S
C1337 C1336 1.363 . S
C1337 C1340 1.363 . S
N1338 C1340 1.356 . S
N1338 H1350 0.984 . S
N1338 H1351 0.985 . S
N1339 C1341 1.356 . S
N1339 H1344 0.984 . S
N1339 H1345 0.985 . S
C1340 C1334 1.379 . S
C1340 C1337 1.363 . S
C1340 N1338 1.356 . S
C1341 C1335 1.363 . S
C1341 C1336 1.379 . S
C1341 N1339 1.356 . S
N1342 C1334 1.356 . S
N1342 H1348 0.984 . S
N1342 H1349 0.984 . S
N1343 C1336 1.356 . S
N1343 H1346 0.984 . S
N1343 H1347 0.985 . S
H1344 N1339 0.984 . S
H1345 N1339 0.985 . S
H1346 N1343 0.984 . S
H1347 N1343 0.985 . S
H1348 N1342 0.984 . S
H1349 N1342 0.984 . S
H1350 N1338 0.984 . S
H1351 N1338 0.985 . S
C1352 C1353 1.363 . S
C1352 C1358 1.379 . S
C1352 N1360 1.356 . S
C1353 C1352 1.363 . S
C1353 C1359 1.363 . S
C1354 C1355 1.363 . S
C1354 C1359 1.379 . S
C1354 N1361 1.356 . S
C1355 C1354 1.363 . S
C1355 C1358 1.363 . S
N1356 C1358 1.356 . S
N1356 H1368 0.984 . S
N1356 H1369 0.985 . S
N1357 C1359 1.356 . S
N1357 H1362 0.984 . S
N1357 H1363 0.985 . S
C1358 C1352 1.379 . S
C1358 C1355 1.363 . S
C1358 N1356 1.356 . S
C1359 C1353 1.363 . S
C1359 C1354 1.379 . S
C1359 N1357 1.356 . S
N1360 C1352 1.356 . S
N1360 H1366 0.984 . S
N1360 H1367 0.984 . S
N1361 C1354 1.356 . S
N1361 H1364 0.984 . S
N1361 H1365 0.985 . S
H1362 N1357 0.984 . S
H1363 N1357 0.985 . S
H1364 N1361 0.984 . S
H1365 N1361 0.985 . S
H1366 N1360 0.984 . S
H1367 N1360 0.984 . S
H1368 N1356 0.984 . S
H1369 N1356 0.985 . S
C1370 C1371 1.363 . S
C1370 C1376 1.379 . S
C1370 N1378 1.356 . S
C1371 C1370 1.363 . S
C1371 C1377 1.363 . S
C1372 C1373 1.363 . S
C1372 C1377 1.379 . S
C1372 N1379 1.356 . S
C1373 C1372 1.363 . S
C1373 C1376 1.363 . S
N1374 C1376 1.356 . S
N1374 H1386 0.984 . S
N1374 H1387 0.985 . S
N1375 C1377 1.356 . S
N1375 H1380 0.984 . S
N1375 H1381 0.985 . S
C1376 C1370 1.379 . S
C1376 C1373 1.363 . S
C1376 N1374 1.356 . S
C1377 C1371 1.363 . S
C1377 C1372 1.379 . S
C1377 N1375 1.356 . S
N1378 C1370 1.356 . S
N1378 H1384 0.984 . S
N1378 H1385 0.984 . S
N1379 C1372 1.356 . S
N1379 H1382 0.984 . S
N1379 H1383 0.985 . S
H1380 N1375 0.984 . S
H1381 N1375 0.985 . S
H1382 N1379 0.984 . S
H1383 N1379 0.985 . S
H1384 N1378 0.984 . S
H1385 N1378 0.984 . S
H1386 N1374 0.984 . S
H1387 N1374 0.985 . S
C1388 C1389 1.363 . S
C1388 C1394 1.379 . S
C1388 N1396 1.356 . S
C1389 C1388 1.363 . S
C1389 C1395 1.363 . S
C1390 C1391 1.363 . S
C1390 C1395 1.379 . S
C1390 N1397 1.356 . S
C1391 C1390 1.363 . S
C1391 C1394 1.363 . S
N1392 C1394 1.356 . S
N1392 H1404 0.984 . S
N1392 H1405 0.985 . S
N1393 C1395 1.356 . S
N1393 H1398 0.984 . S
N1393 H1399 0.985 . S
C1394 C1388 1.379 . S
C1394 C1391 1.363 . S
C1394 N1392 1.356 . S
C1395 C1389 1.363 . S
C1395 C1390 1.379 . S
C1395 N1393 1.356 . S
N1396 C1388 1.356 . S
N1396 H1402 0.984 . S
N1396 H1403 0.984 . S
N1397 C1390 1.356 . S
N1397 H1400 0.984 . S
N1397 H1401 0.985 . S
H1398 N1393 0.984 . S
H1399 N1393 0.985 . S
H1400 N1397 0.984 . S
H1401 N1397 0.985 . S
H1402 N1396 0.984 . S
H1403 N1396 0.984 . S
H1404 N1392 0.984 . S
H1405 N1392 0.985 . S
C1406 C1407 1.363 . S
C1406 C1412 1.379 . S
C1406 N1414 1.356 . S
C1407 C1406 1.363 . S
C1407 C1413 1.363 . S
C1408 C1409 1.363 . S
C1408 C1413 1.379 . S
C1408 N1415 1.356 . S
C1409 C1408 1.363 . S
C1409 C1412 1.363 . S
N1410 C1412 1.356 . S
N1410 H1422 0.984 . S
N1410 H1423 0.985 . S
N1411 C1413 1.356 . S
N1411 H1416 0.984 . S
N1411 H1417 0.985 . S
C1412 C1406 1.379 . S
C1412 C1409 1.363 . S
C1412 N1410 1.356 . S
C1413 C1407 1.363 . S
C1413 C1408 1.379 . S
C1413 N1411 1.356 . S
N1414 C1406 1.356 . S
N1414 H1420 0.984 . S
N1414 H1421 0.984 . S
N1415 C1408 1.356 . S
N1415 H1418 0.984 . S
N1415 H1419 0.985 . S
H1416 N1411 0.984 . S
H1417 N1411 0.985 . S
H1418 N1415 0.984 . S
H1419 N1415 0.985 . S
H1420 N1414 0.984 . S
H1421 N1414 0.984 . S
H1422 N1410 0.984 . S
H1423 N1410 0.985 . S
C1424 C1425 1.363 . S
C1424 C1430 1.379 . S
C1424 N1432 1.356 . S
C1425 C1424 1.363 . S
C1425 C1431 1.363 . S
C1426 C1427 1.363 . S
C1426 C1431 1.379 . S
C1426 N1433 1.356 . S
C1427 C1426 1.363 . S
C1427 C1430 1.363 . S
N1428 C1430 1.356 . S
N1428 H1440 0.984 . S
N1428 H1441 0.985 . S
N1429 C1431 1.356 . S
N1429 H1434 0.984 . S
N1429 H1435 0.985 . S
C1430 C1424 1.379 . S
C1430 C1427 1.363 . S
C1430 N1428 1.356 . S
C1431 C1425 1.363 . S
C1431 C1426 1.379 . S
C1431 N1429 1.356 . S
N1432 C1424 1.356 . S
N1432 H1438 0.984 . S
N1432 H1439 0.984 . S
N1433 C1426 1.356 . S
N1433 H1436 0.984 . S
N1433 H1437 0.985 . S
H1434 N1429 0.984 . S
H1435 N1429 0.985 . S
H1436 N1433 0.984 . S
H1437 N1433 0.985 . S
H1438 N1432 0.984 . S
H1439 N1432 0.984 . S
H1440 N1428 0.984 . S
H1441 N1428 0.985 . S
C1442 C1443 1.363 . S
C1442 C1448 1.379 . S
C1442 N1450 1.356 . S
C1443 C1442 1.363 . S
C1443 C1449 1.363 . S
C1444 C1445 1.363 . S
C1444 C1449 1.379 . S
C1444 N1451 1.356 . S
C1445 C1444 1.363 . S
C1445 C1448 1.363 . S
N1446 C1448 1.356 . S
N1446 H1458 0.984 . S
N1446 H1459 0.985 . S
N1447 C1449 1.356 . S
N1447 H1452 0.984 . S
N1447 H1453 0.985 . S
C1448 C1442 1.379 . S
C1448 C1445 1.363 . S
C1448 N1446 1.356 . S
C1449 C1443 1.363 . S
C1449 C1444 1.379 . S
C1449 N1447 1.356 . S
N1450 C1442 1.356 . S
N1450 H1456 0.984 . S
N1450 H1457 0.984 . S
N1451 C1444 1.356 . S
N1451 H1454 0.984 . S
N1451 H1455 0.985 . S
H1452 N1447 0.984 . S
H1453 N1447 0.985 . S
H1454 N1451 0.984 . S
H1455 N1451 0.985 . S
H1456 N1450 0.984 . S
H1457 N1450 0.984 . S
H1458 N1446 0.984 . S
H1459 N1446 0.985 . S
C1460 C1461 1.363 . S
C1460 C1466 1.379 . S
C1460 N1468 1.356 . S
C1461 C1460 1.363 . S
C1461 C1467 1.363 . S
C1462 C1463 1.363 . S
C1462 C1467 1.379 . S
C1462 N1469 1.356 . S
C1463 C1462 1.363 . S
C1463 C1466 1.363 . S
N1464 C1466 1.356 . S
N1464 H1476 0.984 . S
N1464 H1477 0.985 . S
N1465 C1467 1.356 . S
N1465 H1470 0.984 . S
N1465 H1471 0.985 . S
C1466 C1460 1.379 . S
C1466 C1463 1.363 . S
C1466 N1464 1.356 . S
C1467 C1461 1.363 . S
C1467 C1462 1.379 . S
C1467 N1465 1.356 . S
N1468 C1460 1.356 . S
N1468 H1474 0.984 . S
N1468 H1475 0.984 . S
N1469 C1462 1.356 . S
N1469 H1472 0.984 . S
N1469 H1473 0.985 . S
H1470 N1465 0.984 . S
H1471 N1465 0.985 . S
H1472 N1469 0.984 . S
H1473 N1469 0.985 . S
H1474 N1468 0.984 . S
H1475 N1468 0.984 . S
H1476 N1464 0.984 . S
H1477 N1464 0.985 . S
C1478 C1479 1.363 . S
C1478 C1484 1.379 . S
C1478 N1486 1.356 . S
C1479 C1478 1.363 . S
C1479 C1485 1.363 . S
C1480 C1481 1.363 . S
C1480 C1485 1.379 . S
C1480 N1487 1.356 . S
C1481 C1480 1.363 . S
C1481 C1484 1.363 . S
N1482 C1484 1.356 . S
N1482 H1494 0.984 . S
N1482 H1495 0.985 . S
N1483 C1485 1.356 . S
N1483 H1488 0.984 . S
N1483 H1489 0.985 . S
C1484 C1478 1.379 . S
C1484 C1481 1.363 . S
C1484 N1482 1.356 . S
C1485 C1479 1.363 . S
C1485 C1480 1.379 . S
C1485 N1483 1.356 . S
N1486 C1478 1.356 . S
N1486 H1492 0.984 . S
N1486 H1493 0.984 . S
N1487 C1480 1.356 . S
N1487 H1490 0.984 . S
N1487 H1491 0.985 . S
H1488 N1483 0.984 . S
H1489 N1483 0.985 . S
H1490 N1487 0.984 . S
H1491 N1487 0.985 . S
H1492 N1486 0.984 . S
H1493 N1486 0.984 . S
H1494 N1482 0.984 . S
H1495 N1482 0.985 . S
C1496 C1497 1.363 . S
C1496 C1502 1.379 . S
C1496 N1504 1.356 . S
C1497 C1496 1.363 . S
C1497 C1503 1.363 . S
C1498 C1499 1.363 . S
C1498 C1503 1.379 . S
C1498 N1505 1.356 . S
C1499 C1498 1.363 . S
C1499 C1502 1.363 . S
N1500 C1502 1.356 . S
N1500 H1512 0.984 . S
N1500 H1513 0.985 . S
N1501 C1503 1.356 . S
N1501 H1506 0.984 . S
N1501 H1507 0.985 . S
C1502 C1496 1.379 . S
C1502 C1499 1.363 . S
C1502 N1500 1.356 . S
C1503 C1497 1.363 . S
C1503 C1498 1.379 . S
C1503 N1501 1.356 . S
N1504 C1496 1.356 . S
N1504 H1510 0.984 . S
N1504 H1511 0.984 . S
N1505 C1498 1.356 . S
N1505 H1508 0.984 . S
N1505 H1509 0.985 . S
H1506 N1501 0.984 . S
H1507 N1501 0.985 . S
H1508 N1505 0.984 . S
H1509 N1505 0.985 . S
H1510 N1504 0.984 . S
H1511 N1504 0.984 . S
H1512 N1500 0.984 . S
H1513 N1500 0.985 . S
C1514 C1515 1.363 . S
C1514 C1520 1.379 . S
C1514 N1522 1.356 . S
C1515 C1514 1.363 . S
C1515 C1521 1.363 . S
C1516 C1517 1.363 . S
C1516 C1521 1.379 . S
C1516 N1523 1.356 . S
C1517 C1516 1.363 . S
C1517 C1520 1.363 . S
N1518 C1520 1.356 . S
N1518 H1530 0.984 . S
N1518 H1531 0.985 . S
N1519 C1521 1.356 . S
N1519 H1524 0.984 . S
N1519 H1525 0.985 . S
C1520 C1514 1.379 . S
C1520 C1517 1.363 . S
C1520 N1518 1.356 . S
C1521 C1515 1.363 . S
C1521 C1516 1.379 . S
C1521 N1519 1.356 . S
N1522 C1514 1.356 . S
N1522 H1528 0.984 . S
N1522 H1529 0.984 . S
N1523 C1516 1.356 . S
N1523 H1526 0.984 . S
N1523 H1527 0.985 . S
H1524 N1519 0.984 . S
H1525 N1519 0.985 . S
H1526 N1523 0.984 . S
H1527 N1523 0.985 . S
H1528 N1522 0.984 . S
H1529 N1522 0.984 . S
H1530 N1518 0.984 . S
H1531 N1518 0.985 . S
C1532 C1533 1.363 . S
C1532 C1538 1.379 . S
C1532 N1540 1.356 . S
C1533 C1532 1.363 . S
C1533 C1539 1.363 . S
C1534 C1535 1.363 . S
C1534 C1539 1.379 . S
C1534 N1541 1.356 . S
C1535 C1534 1.363 . S
C1535 C1538 1.363 . S
N1536 C1538 1.356 . S
N1536 H1548 0.984 . S
N1536 H1549 0.985 . S
N1537 C1539 1.356 . S
N1537 H1542 0.984 . S
N1537 H1543 0.985 . S
C1538 C1532 1.379 . S
C1538 C1535 1.363 . S
C1538 N1536 1.356 . S
C1539 C1533 1.363 . S
C1539 C1534 1.379 . S
C1539 N1537 1.356 . S
N1540 C1532 1.356 . S
N1540 H1546 0.984 . S
N1540 H1547 0.984 . S
N1541 C1534 1.356 . S
N1541 H1544 0.984 . S
N1541 H1545 0.985 . S
H1542 N1537 0.984 . S
H1543 N1537 0.985 . S
H1544 N1541 0.984 . S
H1545 N1541 0.985 . S
H1546 N1540 0.984 . S
H1547 N1540 0.984 . S
H1548 N1536 0.984 . S
H1549 N1536 0.985 . S
C1550 C1551 1.363 . S
C1550 C1556 1.379 . S
C1550 N1558 1.356 . S
C1551 C1550 1.363 . S
C1551 C1557 1.363 . S
C1552 C1553 1.363 . S
C1552 C1557 1.379 . S
C1552 N1559 1.356 . S
C1553 C1552 1.363 . S
C1553 C1556 1.363 . S
N1554 C1556 1.356 . S
N1554 H1566 0.984 . S
N1554 H1567 0.985 . S
N1555 C1557 1.356 . S
N1555 H1560 0.984 . S
N1555 H1561 0.985 . S
C1556 C1550 1.379 . S
C1556 C1553 1.363 . S
C1556 N1554 1.356 . S
C1557 C1551 1.363 . S
C1557 C1552 1.379 . S
C1557 N1555 1.356 . S
N1558 C1550 1.356 . S
N1558 H1564 0.984 . S
N1558 H1565 0.984 . S
N1559 C1552 1.356 . S
N1559 H1562 0.984 . S
N1559 H1563 0.985 . S
H1560 N1555 0.984 . S
H1561 N1555 0.985 . S
H1562 N1559 0.984 . S
H1563 N1559 0.985 . S
H1564 N1558 0.984 . S
H1565 N1558 0.984 . S
H1566 N1554 0.984 . S
H1567 N1554 0.985 . S
C417 C91 1.706 1_455 S
C419 C0 1.656 1_565 S
C435 C13 1.725 . S
C437 C52 1.768 1_655 S
C453 C65 1.481 . S
C455 C26 1.455 . S
C471 C78 1.450 . S
C473 C39 1.547 1_545 S
C489 C104 1.656 1_565 S
C491 C286 1.706 . S
C507 C117 1.726 . S
C509 C247 1.769 1_655 S
C525 C377 1.481 . S
C527 C130 1.455 . S
C543 C351 1.450 . S
C545 C143 1.547 . S
C561 C156 1.768 . S
C563 C403 1.725 . S
C579 C169 1.482 . S
C581 C338 1.455 . S
C597 C182 1.450 . S
C599 C273 1.547 1_545 S
C615 C195 1.706 1_455 S
C617 C208 1.678 . S
C633 C221 1.705 . S
C635 C325 1.677 . S
C651 C234 1.455 . S
C653 C260 1.481 . S
C669 C390 1.548 . S
C671 C299 1.450 . S
C687 C364 1.768 . S
C689 C312 1.725 . S
C705 C140 0.873 . S
C707 C10 0.861 . S
C723 C148 1.018 . S
C725 C18 1.151 . S
C741 C114 0.861 . S
C743 C36 0.876 . S
C759 C122 1.151 . S
C761 C44 1.018 . S
C777 C190 1.092 . S
C779 C62 1.026 . S
C795 C75 0.950 1_554 S
C797 C205 0.887 . S
C813 C86 1.093 . S
C815 C166 1.027 . S
C831 C101 0.887 . S
C833 C179 0.950 . S
C849 C164 0.848 . S
C851 C112 1.025 . S
C867 C127 0.977 . S
C869 C177 1.369 . S
C885 C187 0.816 . S
C887 C138 1.067 . S
C903 C153 0.928 . S
C905 C203 1.117 . S
C921 C309 1.248 . S
C923 C213 0.973 . S
C939 C31 0.989 . S
C941 C161 1.322 . S
C957 C47 0.937 . S
C959 C174 0.821 . S
C975 C5 0.973 . S
C977 C192 1.248 . S
C993 C226 0.876 . S
C995 C411 0.987 . S
C1011 C252 1.323 . S
C1013 C239 0.989 . S
C1029 C21 0.987 . S
C1031 C200 0.877 . S
C1047 C307 1.093 . S
C1049 C257 1.027 . S
C1065 C270 0.950 1_554 S
C1067 C296 0.887 . S
C1083 C218 0.861 . S
C1085 C244 0.874 1_556 S
C1101 C278 1.018 . S
C1103 C317 1.151 . S
C1119 C320 0.986 . S
C1121 C291 0.876 . S
C1137 C135 0.989 . S
C1139 C57 1.322 . S
C1155 C268 1.369 . S
C1157 C322 0.977 . S
C1173 C99 1.116 . S
C1175 C49 0.929 . S
C1191 C372 0.848 . S
C1193 C333 1.025 . S
C1209 C73 1.368 . S
C1211 C23 0.977 . S
C1227 C216 1.025 . S
C1229 C255 0.848 . S
C1245 C335 0.861 . S
C1247 C348 0.873 . S
C1263 C359 1.093 . S
C1265 C374 1.027 . S
C1281 C304 0.816 . S
C1283 C242 1.067 . S
C1299 C343 0.989 . S
C1301 C369 1.323 . S
C1317 C151 0.936 . S
C1319 C70 0.821 . S
C1335 C96 0.876 . S
C1337 C125 0.986 . S
C1353 C231 0.887 . S
C1355 C387 0.950 . S
C1371 C395 1.018 . S
C1373 C408 1.151 . S
C1389 C413 0.977 . S
C1391 C385 1.368 . S
C1407 C60 0.848 . S
C1409 C8 1.025 . S
C1425 C34 1.067 . S
C1427 C83 0.815 . S
C1443 C400 0.929 . S
C1445 C229 1.117 . S
C1461 C330 0.973 . S
C1463 C361 1.248 . S
C1479 C265 0.821 . S
C1481 C281 0.936 . S
C1497 C88 1.248 . S
C1499 C109 0.973 . S
C1515 C294 1.116 . S
C1517 C283 0.928 . S
C1533 C346 1.067 . S
C1535 C356 0.816 . S
C1551 C398 0.936 . S
C1553 C382 0.821 . S
