# Generated by pormake.
# Topology utg, (3)-cn, num edge types: 1
# Building blocks:
#     Node 0, Type 0, BuildingBlock: OLANEW_clean_sbu_2, # of connection points: 3
#     Node 1, Type 0, BuildingBlock: OLANEW_clean_sbu_2, # of connection points: 3
#     Node 2, Type 0, BuildingBlock: OLANEW_clean_sbu_2, # of connection points: 3
#     Node 3, Type 0, BuildingBlock: OLANEW_clean_sbu_2, # of connection points: 3
#     Node 4, Type 0, BuildingBlock: OLANEW_clean_sbu_2, # of connection points: 3
#     Node 5, Type 0, BuildingBlock: OLANEW_clean_sbu_2, # of connection points: 3
#     Node 6, Type 0, BuildingBlock: OLANEW_clean_sbu_2, # of connection points: 3
#     Node 7, Type 0, BuildingBlock: OLANEW_clean_sbu_2, # of connection points: 3
#     Node 8, Type 0, BuildingBlock: OLANEW_clean_sbu_2, # of connection points: 3
#     Node 9, Type 0, BuildingBlock: OLANEW_clean_sbu_2, # of connection points: 3
#     Node 10, Type 0, BuildingBlock: OLANEW_clean_sbu_2, # of connection points: 3
#     Node 11, Type 0, BuildingBlock: OLANEW_clean_sbu_2, # of connection points: 3
#     Node 12, Type 0, BuildingBlock: OLANEW_clean_sbu_2, # of connection points: 3
#     Node 13, Type 0, BuildingBlock: OLANEW_clean_sbu_2, # of connection points: 3
#     Node 14, Type 0, BuildingBlock: OLANEW_clean_sbu_2, # of connection points: 3
#     Node 15, Type 0, BuildingBlock: OLANEW_clean_sbu_2, # of connection points: 3
#     Edge 16, Type (0, 0), BuildingBlock: KIFKEQ_clean_linker_1, # of connection points: 2
#     Edge 17, Type (0, 0), BuildingBlock: KIFKEQ_clean_linker_1, # of connection points: 2
#     Edge 18, Type (0, 0), BuildingBlock: KIFKEQ_clean_linker_1, # of connection points: 2
#     Edge 19, Type (0, 0), BuildingBlock: KIFKEQ_clean_linker_1, # of connection points: 2
#     Edge 20, Type (0, 0), BuildingBlock: KIFKEQ_clean_linker_1, # of connection points: 2
#     Edge 21, Type (0, 0), BuildingBlock: KIFKEQ_clean_linker_1, # of connection points: 2
#     Edge 22, Type (0, 0), BuildingBlock: KIFKEQ_clean_linker_1, # of connection points: 2
#     Edge 23, Type (0, 0), BuildingBlock: KIFKEQ_clean_linker_1, # of connection points: 2
#     Edge 24, Type (0, 0), BuildingBlock: KIFKEQ_clean_linker_1, # of connection points: 2
#     Edge 25, Type (0, 0), BuildingBlock: KIFKEQ_clean_linker_1, # of connection points: 2
#     Edge 26, Type (0, 0), BuildingBlock: KIFKEQ_clean_linker_1, # of connection points: 2
#     Edge 27, Type (0, 0), BuildingBlock: KIFKEQ_clean_linker_1, # of connection points: 2
#     Edge 28, Type (0, 0), BuildingBlock: KIFKEQ_clean_linker_1, # of connection points: 2
#     Edge 29, Type (0, 0), BuildingBlock: KIFKEQ_clean_linker_1, # of connection points: 2
#     Edge 30, Type (0, 0), BuildingBlock: KIFKEQ_clean_linker_1, # of connection points: 2
#     Edge 31, Type (0, 0), BuildingBlock: KIFKEQ_clean_linker_1, # of connection points: 2
#     Edge 32, Type (0, 0), BuildingBlock: KIFKEQ_clean_linker_1, # of connection points: 2
#     Edge 33, Type (0, 0), BuildingBlock: KIFKEQ_clean_linker_1, # of connection points: 2
#     Edge 34, Type (0, 0), BuildingBlock: KIFKEQ_clean_linker_1, # of connection points: 2
#     Edge 35, Type (0, 0), BuildingBlock: KIFKEQ_clean_linker_1, # of connection points: 2
#     Edge 36, Type (0, 0), BuildingBlock: KIFKEQ_clean_linker_1, # of connection points: 2
#     Edge 37, Type (0, 0), BuildingBlock: KIFKEQ_clean_linker_1, # of connection points: 2
#     Edge 38, Type (0, 0), BuildingBlock: KIFKEQ_clean_linker_1, # of connection points: 2
#     Edge 39, Type (0, 0), BuildingBlock: KIFKEQ_clean_linker_1, # of connection points: 2
# Relax obj value: 0.002
# Max RMSD: 0.043
# Mean RMSD: 0.043
data_MOF--net-utg--node1-OLANEW_clean_sbu_2--edge1-KIFKEQ_clean_linker_1
_symmetry_space_group_name_H-M    P1
_symmetry_Int_Tables_number       1
_symmetry_cell_setting            triclinic
loop_
_symmetry_equiv_pos_as_xyz
'x, y, z'
_cell_length_a     43.659871
_cell_length_b     43.650768
_cell_length_c     85.776218
_cell_angle_alpha  90.003543
_cell_angle_beta   90.014527
_cell_angle_gamma 89.979868
loop_
_atom_site_label
_atom_site_type_symbol
_atom_site_fract_x
_atom_site_fract_y
_atom_site_fract_z
_atom_type_partial_charge
O0 O 0.11793 0.15842 0.17798 0.0
Cd1 Cd 0.12799 0.12257 0.19928 0.0
O2 O 0.13553 0.19734 0.1916 0.0
Cd3 Cd 0.15422 0.17162 0.2112 0.0
O4 O 0.19121 0.17704 0.22808 0.0
C5 C 0.21294 0.19404 0.22334 0.0
O6 O 0.21182 0.20472 0.20903 0.0
C7 C 0.12305 0.18698 0.1793 0.0
C8 C 0.08555 0.07474 0.19988 0.0
O9 O 0.08027 0.10001 0.207 0.0
O10 O 0.11091 0.07209 0.19247 0.0
O11 O 0.81849 0.59957 0.42931 0.0
Cd12 Cd 0.84893 0.59851 0.45323 0.0
O13 O 0.83743 0.64376 0.42165 0.0
Cd14 Cd 0.85749 0.65455 0.44424 0.0
O15 O 0.84536 0.68521 0.46335 0.0
C16 C 0.82509 0.70481 0.45961 0.0
O17 O 0.81492 0.70505 0.44519 0.0
C18 C 0.8206 0.62053 0.41907 0.0
C19 C 0.8983 0.55827 0.4503 0.0
O20 O 0.87207 0.54886 0.45499 0.0
O21 O 0.90126 0.5868 0.44708 0.0
O22 O 0.4018 0.32338 0.67023 0.0
Cd23 Cd 0.39722 0.35538 0.69352 0.0
O24 O 0.36349 0.34584 0.6581 0.0
Cd25 Cd 0.34825 0.36996 0.67893 0.0
O26 O 0.31568 0.36024 0.69754 0.0
C27 C 0.29686 0.33915 0.69397 0.0
O28 O 0.29828 0.3272 0.67992 0.0
C29 C 0.38519 0.32639 0.65814 0.0
C30 C 0.43867 0.404 0.6931 0.0
O31 O 0.44623 0.37782 0.69867 0.0
O32 O 0.41145 0.40721 0.68773 0.0
O33 O 0.65722 0.88338 0.91845 0.0
Cd34 Cd 0.62174 0.87002 0.93945 0.0
O35 O 0.69725 0.87875 0.93384 0.0
Cd36 Cd 0.67317 0.85626 0.95292 0.0
O37 O 0.67925 0.81605 0.96771 0.0
C38 C 0.6909 0.79287 0.96097 0.0
O39 O 0.6961 0.7943 0.94589 0.0
C40 C 0.68591 0.88581 0.92068 0.0
C41 C 0.57321 0.91154 0.94161 0.0
O42 O 0.59846 0.91627 0.94885 0.0
O43 O 0.57093 0.88718 0.93334 0.0
O44 O 0.10419 0.32063 0.07396 0.0
Cd45 Cd 0.10886 0.34887 0.04947 0.0
O46 O 0.14926 0.33571 0.0825 0.0
Cd47 Cd 0.16462 0.35202 0.05979 0.0
O48 O 0.19391 0.34191 0.03981 0.0
C49 C 0.18299 0.32666 0.02849 0.0
O50 O 0.15375 0.31956 0.02858 0.0
C51 C 0.12408 0.32176 0.08478 0.0
C52 C 0.06973 0.39949 0.04938 0.0
O53 O 0.06068 0.37328 0.04446 0.0
O54 O 0.09741 0.40184 0.05422 0.0
O55 O 0.67242 0.61635 0.31822 0.0
Cd56 Cd 0.64202 0.62282 0.2945 0.0
O57 O 0.66042 0.66193 0.32732 0.0
Cd58 Cd 0.63934 0.6779 0.30578 0.0
O59 O 0.64685 0.70932 0.2864 0.0
C60 C 0.65984 0.69951 0.27413 0.0
O61 O 0.66586 0.67011 0.27293 0.0
C62 C 0.67386 0.63629 0.329 0.0
C63 C 0.59222 0.58279 0.29377 0.0
O64 O 0.6184 0.57477 0.28836 0.0
O65 O 0.58959 0.60979 0.29949 0.0
O66 O 0.40166 0.1661 0.56291 0.0
Cd67 Cd 0.39606 0.13467 0.53947 0.0
O68 O 0.35595 0.15373 0.57166 0.0
Cd69 Cd 0.34038 0.13303 0.54996 0.0
O70 O 0.30657 0.14984 0.53331 0.0
C71 C 0.28307 0.16201 0.53951 0.0
O72 O 0.28023 0.16099 0.55475 0.0
C73 C 0.38133 0.16755 0.5735 0.0
C74 C 0.43489 0.08384 0.53968 0.0
O75 O 0.44374 0.10957 0.53406 0.0
O76 O 0.40768 0.08218 0.54523 0.0
O77 O 0.82068 0.90061 0.81623 0.0
Cd78 Cd 0.8501 0.89444 0.79218 0.0
O79 O 0.8477 0.86652 0.82917 0.0
Cd80 Cd 0.8673 0.84814 0.80775 0.0
O81 O 0.85697 0.81694 0.7886 0.0
C82 C 0.84794 0.79025 0.79235 0.0
O83 O 0.84779 0.78258 0.80717 0.0
C84 C 0.82697 0.887 0.82894 0.0
C85 C 0.89968 0.93479 0.79213 0.0
O86 O 0.87345 0.94296 0.78686 0.0
O87 O 0.9026 0.90736 0.79725 0.0
O88 O 0.61957 0.66327 0.66997 0.0
Cd89 Cd 0.63073 0.6282 0.69145 0.0
O90 O 0.62489 0.70395 0.68485 0.0
Cd91 Cd 0.64448 0.67979 0.70473 0.0
O92 O 0.6808 0.68129 0.72219 0.0
C93 C 0.70771 0.68673 0.71725 0.0
O94 O 0.71226 0.68875 0.70214 0.0
C95 C 0.61811 0.69215 0.67175 0.0
C96 C 0.58936 0.57947 0.69198 0.0
O97 O 0.58345 0.60465 0.69906 0.0
O98 O 0.61491 0.57728 0.68471 0.0
O99 O 0.3182 0.09714 0.92557 0.0
Cd100 Cd 0.34618 0.09982 0.95022 0.0
O101 O 0.33478 0.14206 0.9176 0.0
Cd102 Cd 0.34938 0.1567 0.94072 0.0
O103 O 0.33276 0.18859 0.95844 0.0
C104 C 0.31369 0.20811 0.95324 0.0
O105 O 0.30711 0.2078 0.93828 0.0
C106 C 0.32028 0.11734 0.91495 0.0
C107 C 0.39615 0.05983 0.94951 0.0
O108 O 0.36972 0.05078 0.95408 0.0
O109 O 0.39907 0.08794 0.94544 0.0
O110 O 0.8955 0.81999 0.18142 0.0
Cd111 Cd 0.89227 0.85172 0.20487 0.0
O112 O 0.8548 0.84097 0.17072 0.0
Cd113 Cd 0.83968 0.86245 0.1923 0.0
O114 O 0.80451 0.84916 0.20904 0.0
C115 C 0.7832 0.83311 0.20309 0.0
O116 O 0.78368 0.82797 0.18799 0.0
C117 C 0.87742 0.82268 0.16988 0.0
C118 C 0.93372 0.90035 0.20378 0.0
O119 O 0.9416 0.87416 0.20922 0.0
O120 O 0.90617 0.90359 0.19888 0.0
O121 O 0.1598 0.3865 0.41432 0.0
Cd122 Cd 0.12318 0.36952 0.4341 0.0
O123 O 0.19726 0.38958 0.43139 0.0
Cd124 Cd 0.17256 0.36527 0.44967 0.0
O125 O 0.17335 0.32498 0.4647 0.0
C126 C 0.17993 0.32764 0.47906 0.0
O127 O 0.18364 0.35519 0.48494 0.0
C128 C 0.18732 0.39355 0.41761 0.0
C129 C 0.07471 0.41068 0.4375 0.0
O130 O 0.09962 0.41405 0.44523 0.0
O131 O 0.07274 0.38784 0.42817 0.0
O132 O 0.6042 0.81954 0.5648 0.0
Cd133 Cd 0.61114 0.8467 0.54012 0.0
O134 O 0.64055 0.84546 0.57668 0.0
Cd135 Cd 0.6594 0.86183 0.55469 0.0
O136 O 0.69122 0.84759 0.53647 0.0
C137 C 0.70591 0.82329 0.53978 0.0
O138 O 0.701 0.81019 0.55335 0.0
C139 C 0.61884 0.82607 0.57718 0.0
C140 C 0.57378 0.8986 0.53919 0.0
O141 O 0.5641 0.87259 0.5343 0.0
O142 O 0.60128 0.90013 0.54437 0.0
O143 O 0.1576 0.11701 0.82127 0.0
Cd144 Cd 0.12205 0.12835 0.79999 0.0
O145 O 0.19613 0.13732 0.80838 0.0
Cd146 Cd 0.17016 0.15666 0.78904 0.0
O147 O 0.17404 0.19322 0.77183 0.0
C148 C 0.19273 0.21423 0.77568 0.0
O149 O 0.20602 0.21265 0.78941 0.0
C150 C 0.18598 0.12324 0.82027 0.0
C151 C 0.07435 0.0859 0.79831 0.0
O152 O 0.09982 0.08112 0.79128 0.0
O153 O 0.07148 0.11074 0.80616 0.0
O154 O 0.88995 0.66211 0.07426 0.0
Cd155 Cd 0.88427 0.62951 0.05124 0.0
O156 O 0.84298 0.65298 0.08232 0.0
Cd157 Cd 0.82812 0.62999 0.06108 0.0
O158 O 0.79739 0.63879 0.04155 0.0
C159 C 0.80811 0.64956 0.02892 0.0
O160 O 0.83793 0.65223 0.0274 0.0
C161 C 0.86893 0.66558 0.08437 0.0
C162 C 0.92492 0.58012 0.05139 0.0
O163 O 0.93254 0.60594 0.04543 0.0
O164 O 0.89809 0.57769 0.05733 0.0
O165 O 0.33117 0.40781 0.31712 0.0
Cd166 Cd 0.36178 0.39825 0.29374 0.0
O167 O 0.3601 0.3792 0.33224 0.0
Cd168 Cd 0.3812 0.35734 0.3121 0.0
O169 O 0.36785 0.32268 0.29509 0.0
C170 C 0.34447 0.30743 0.2993 0.0
O171 O 0.3323 0.31327 0.313 0.0
C172 C 0.33792 0.39783 0.33062 0.0
C173 C 0.41221 0.43749 0.2928 0.0
O174 O 0.38643 0.44542 0.2869 0.0
O175 O 0.41423 0.41088 0.29903 0.0
H176 H 0.29086 0.27699 0.30399 0.0
H177 H 0.36389 0.2882 0.27048 0.0
H178 H 0.26307 0.24514 0.28566 0.0
H179 H 0.33645 0.2552 0.25222 0.0
H180 H 0.25705 0.23675 0.21767 0.0
H181 H 0.29224 0.2596 0.23621 0.0
H182 H 0.25959 0.198 0.272 0.0
H183 H 0.22339 0.17584 0.25348 0.0
C184 C 0.30127 0.27221 0.29279 0.0
C185 C 0.32944 0.28544 0.28863 0.0
C186 C 0.2854 0.25365 0.28229 0.0
C187 C 0.29741 0.24761 0.2674 0.0
C188 C 0.32627 0.25978 0.26349 0.0
C189 C 0.34208 0.27858 0.27398 0.0
C190 C 0.25758 0.22779 0.22944 0.0
C191 C 0.23709 0.20476 0.23416 0.0
C192 C 0.27801 0.24078 0.24008 0.0
C193 C 0.27864 0.23087 0.25567 0.0
C194 C 0.25929 0.20663 0.26016 0.0
C195 C 0.23865 0.19379 0.24953 0.0
H196 H 0.72318 0.8448 0.51105 0.0
H197 H 0.73621 0.76903 0.54279 0.0
H198 H 0.75579 0.81929 0.49192 0.0
H199 H 0.76787 0.74321 0.52359 0.0
H200 H 0.84095 0.71149 0.49037 0.0
H201 H 0.8157 0.74333 0.50994 0.0
H202 H 0.75234 0.77592 0.47494 0.0
H203 H 0.77805 0.74499 0.4554 0.0
C204 C 0.73304 0.82276 0.51396 0.0
C205 C 0.72694 0.80888 0.5284 0.0
C206 C 0.75162 0.80806 0.50297 0.0
C207 C 0.76438 0.77911 0.50617 0.0
C208 C 0.75884 0.76566 0.52079 0.0
C209 C 0.74043 0.7804 0.53177 0.0
C210 C 0.82183 0.72571 0.48685 0.0
C211 C 0.8114 0.72554 0.47136 0.0
C212 C 0.80725 0.74384 0.49807 0.0
C213 C 0.78184 0.76208 0.49405 0.0
C214 C 0.77205 0.76252 0.47844 0.0
C215 C 0.7867 0.74455 0.46723 0.0
H216 H 0.28561 0.35946 0.7237 0.0
H217 H 0.2608 0.28868 0.69083 0.0
H218 H 0.25478 0.33428 0.74368 0.0
H219 H 0.23121 0.26297 0.71081 0.0
H220 H 0.16819 0.22656 0.74693 0.0
H221 H 0.18795 0.26192 0.72732 0.0
H222 H 0.25953 0.28971 0.75917 0.0
H223 H 0.23909 0.25551 0.77884 0.0
C224 C 0.27345 0.33864 0.72072 0.0
C225 C 0.27591 0.32591 0.70573 0.0
C226 C 0.25589 0.3241 0.73218 0.0
C227 C 0.24067 0.29639 0.72894 0.0
C228 C 0.24219 0.28445 0.71373 0.0
C229 C 0.25945 0.29911 0.70226 0.0
C230 C 0.18786 0.24061 0.74979 0.0
C231 C 0.20228 0.23797 0.76437 0.0
C232 C 0.1993 0.26076 0.73853 0.0
C233 C 0.2256 0.27847 0.74156 0.0
C234 C 0.23906 0.2768 0.75643 0.0
C235 C 0.22745 0.25691 0.76771 0.0
H236 H 0.72155 0.74263 0.95017 0.0
H237 H 0.6864 0.78343 0.99246 0.0
H238 H 0.74627 0.7026 0.96548 0.0
H239 H 0.71139 0.7435 0.00775 0.0
H240 H 0.74608 0.65788 0.03112 0.0
H241 H 0.71347 0.6879 0.01376 0.0
H242 H 0.79066 0.70369 0.98333 0.0
H243 H 0.8232 0.67356 0.00056 0.0
C244 C 0.71874 0.74286 0.96271 0.0
C245 C 0.70228 0.76644 0.97011 0.0
C246 C 0.73303 0.71997 0.97148 0.0
C247 C 0.73101 0.72005 0.98782 0.0
C248 C 0.71318 0.74267 0.99516 0.0
C249 C 0.69899 0.76567 0.9864 0.0
C250 C 0.75598 0.66729 0.02058 0.0
C251 C 0.78733 0.66358 0.01729 0.0
C252 C 0.73731 0.68463 0.0107 0.0
C253 C 0.74954 0.69837 0.99726 0.0
C254 C 0.78048 0.69321 0.99353 0.0
C255 C 0.79918 0.67606 0.00345 0.0
H256 H 0.24573 0.32737 0.02783 0.0
H257 H 0.16666 0.29662 0.00186 0.0
H258 H 0.27931 0.30174 0.00915 0.0
H259 H 0.2002 0.27094 0.9833 0.0
H260 H 0.26906 0.24915 0.94558 0.0
H261 H 0.23916 0.28136 0.96306 0.0
H262 H 0.29082 0.24724 0.00233 0.0
H263 H 0.32105 0.21504 0.98481 0.0
C264 C 0.23551 0.31545 0.01805 0.0
C265 C 0.2035 0.31393 0.01636 0.0
C266 C 0.25476 0.30061 0.00742 0.0
C267 C 0.2424 0.28422 0.99481 0.0
C268 C 0.21044 0.28361 0.99283 0.0
C269 C 0.19121 0.29822 0.00351 0.0
C270 C 0.27428 0.24865 0.95793 0.0
C271 C 0.29731 0.22933 0.96382 0.0
C272 C 0.25703 0.26705 0.96794 0.0
C273 C 0.2625 0.26669 0.98407 0.0
C274 C 0.28624 0.24818 0.98993 0.0
C275 C 0.30343 0.22962 0.97991 0.0
H276 H 0.68625 0.68616 0.24611 0.0
H277 H 0.66146 0.76214 0.27586 0.0
H278 H 0.71213 0.72135 0.22846 0.0
H279 H 0.68728 0.79739 0.25809 0.0
H280 H 0.77645 0.83676 0.23482 0.0
H281 H 0.74206 0.80658 0.2512 0.0
H282 H 0.70354 0.76427 0.21013 0.0
H283 H 0.73795 0.79414 0.19377 0.0
C284 C 0.68591 0.71042 0.24877 0.0
C285 C 0.67197 0.7213 0.26244 0.0
C286 C 0.70063 0.73061 0.23861 0.0
C287 C 0.70188 0.76212 0.24194 0.0
C288 C 0.68698 0.77318 0.25532 0.0
C289 C 0.67203 0.75299 0.26543 0.0
C290 C 0.76038 0.82131 0.22928 0.0
C291 C 0.76016 0.81764 0.213 0.0
C292 C 0.74057 0.80414 0.23866 0.0
C293 C 0.72026 0.78289 0.23194 0.0
C294 C 0.71922 0.78016 0.21564 0.0
C295 C 0.73888 0.79739 0.20627 0.0
H296 H 0.23324 0.19389 0.54981 0.0
H297 H 0.28481 0.17331 0.50809 0.0
H298 H 0.20255 0.23077 0.53529 0.0
H299 H 0.25428 0.2105 0.49363 0.0
H300 H 0.18325 0.26805 0.46919 0.0
H301 H 0.2029 0.22413 0.48369 0.0
H302 H 0.2148 0.28135 0.52433 0.0
H303 H 0.19491 0.32513 0.50995 0.0
C304 C 0.23779 0.19691 0.53749 0.0
C305 C 0.26173 0.1809 0.53015 0.0
C306 C 0.22026 0.21816 0.5292 0.0
C307 C 0.22619 0.22379 0.51337 0.0
C308 C 0.24899 0.20653 0.5058 0.0
C309 C 0.2666 0.18532 0.51411 0.0
C310 C 0.18959 0.27116 0.4813 0.0
C311 C 0.18777 0.30018 0.48838 0.0
C312 C 0.201 0.24602 0.48956 0.0
C313 C 0.21061 0.24931 0.50511 0.0
C314 C 0.20733 0.27797 0.51241 0.0
C315 C 0.19608 0.30313 0.50413 0.0
H316 H 0.82352 0.73335 0.79701 0.0
H317 H 0.83959 0.80114 0.76122 0.0
H318 H 0.79374 0.70293 0.77862 0.0
H319 H 0.8094 0.77097 0.74294 0.0
H320 H 0.76651 0.70332 0.7103 0.0
H321 H 0.80515 0.72347 0.72808 0.0
H322 H 0.74338 0.7098 0.7668 0.0
H323 H 0.70497 0.6892 0.7491 0.0
C324 C 0.82103 0.7416 0.78517 0.0
C325 C 0.83366 0.76986 0.78063 0.0
C326 C 0.80382 0.72421 0.77466 0.0
C327 C 0.79892 0.73466 0.75937 0.0
C328 C 0.81294 0.76211 0.75459 0.0
C329 C 0.83013 0.77952 0.76511 0.0
C330 C 0.76134 0.70416 0.72264 0.0
C331 C 0.73252 0.69495 0.72826 0.0
C332 C 0.78344 0.71586 0.73281 0.0
C333 C 0.77725 0.71852 0.74883 0.0
C334 C 0.74902 0.70782 0.75455 0.0
C335 C 0.7269 0.69616 0.74438 0.0
H336 H 0.12788 0.24927 0.17933 0.0
H337 H 0.10399 0.17288 0.14965 0.0
H338 H 0.12341 0.2839 0.15725 0.0
H339 H 0.10002 0.20767 0.12743 0.0
H340 H 0.07724 0.28252 0.0922 0.0
H341 H 0.07208 0.25143 0.11576 0.0
H342 H 0.15496 0.29166 0.13413 0.0
H343 H 0.15993 0.32288 0.11082 0.0
C344 C 0.12142 0.23986 0.16812 0.0
C345 C 0.11665 0.20821 0.16622 0.0
C346 C 0.11898 0.25974 0.15545 0.0
C347 C 0.11174 0.24849 0.14056 0.0
C348 C 0.10545 0.21707 0.13879 0.0
C349 C 0.10787 0.19712 0.1515 0.0
C350 C 0.09412 0.28502 0.10137 0.0
C351 C 0.11907 0.30511 0.0996 0.0
C352 C 0.09126 0.26706 0.1148 0.0
C353 C 0.11313 0.26903 0.12678 0.0
C354 C 0.13749 0.28986 0.12521 0.0
C355 C 0.14044 0.30765 0.11178 0.0
H356 H 0.70629 0.58453 0.33672 0.0
H357 H 0.68593 0.67631 0.35262 0.0
H358 H 0.74282 0.57847 0.35816 0.0
H359 H 0.72219 0.67013 0.3739 0.0
H360 H 0.81553 0.66429 0.39652 0.0
H361 H 0.77943 0.6658 0.37493 0.0
H362 H 0.74527 0.57656 0.38788 0.0
H363 H 0.78159 0.57486 0.4096 0.0
C364 C 0.70931 0.60325 0.34486 0.0
C365 C 0.69334 0.63099 0.34288 0.0
C366 C 0.73019 0.59974 0.35713 0.0
C367 C 0.73564 0.624 0.36753 0.0
C368 C 0.71887 0.65126 0.36587 0.0
C369 C 0.69791 0.65469 0.35373 0.0
C370 C 0.80061 0.64479 0.39471 0.0
C371 C 0.80131 0.61955 0.40488 0.0
C372 C 0.77977 0.64578 0.3824 0.0
C373 C 0.75925 0.62151 0.37989 0.0
C374 C 0.76084 0.5956 0.38956 0.0
C375 C 0.7816 0.59467 0.402 0.0
H376 H 0.33894 0.18234 0.59557 0.0
H377 H 0.43273 0.19985 0.58203 0.0
H378 H 0.34282 0.22146 0.61565 0.0
H379 H 0.43651 0.23908 0.60239 0.0
H380 H 0.43107 0.2845 0.6531 0.0
H381 H 0.4328 0.24486 0.6329 0.0
H382 H 0.34883 0.27996 0.61325 0.0
H383 H 0.34705 0.31955 0.63321 0.0
C384 C 0.36055 0.19419 0.597 0.0
C385 C 0.38546 0.1881 0.58708 0.0
C386 C 0.36266 0.21676 0.60845 0.0
C387 C 0.3898 0.23356 0.61038 0.0
C388 C 0.4153 0.22646 0.60108 0.0
C389 C 0.4131 0.20403 0.58945 0.0
C390 C 0.41323 0.28403 0.64433 0.0
C391 C 0.3888 0.30507 0.64484 0.0
C392 C 0.41427 0.26137 0.63278 0.0
C393 C 0.39071 0.25914 0.6217 0.0
C394 C 0.36702 0.28091 0.62183 0.0
C395 C 0.36616 0.30371 0.63321 0.0
H396 H 0.74749 0.89632 0.92211 0.0
H397 H 0.67156 0.8933 0.88979 0.0
H398 H 0.78291 0.90243 0.90043 0.0
H399 H 0.70716 0.89883 0.86807 0.0
H400 H 0.77782 0.92558 0.83203 0.0
H401 H 0.74444 0.93143 0.85466 0.0
H402 H 0.80072 0.86752 0.88034 0.0
H403 H 0.83429 0.86206 0.85791 0.0
C404 C 0.73829 0.89729 0.91039 0.0
C405 C 0.7067 0.89396 0.90768 0.0
C406 C 0.75865 0.90065 0.89796 0.0
C407 C 0.74792 0.9007 0.88252 0.0
C408 C 0.71617 0.89908 0.87984 0.0
C409 C 0.69575 0.89578 0.89229 0.0
C410 C 0.78332 0.91311 0.84258 0.0
C411 C 0.80864 0.8932 0.84313 0.0
C412 C 0.76407 0.91635 0.85551 0.0
C413 C 0.76983 0.89985 0.86927 0.0
C414 C 0.79582 0.88087 0.86999 0.0
C415 C 0.81499 0.87758 0.85708 0.0
H416 H 0.61091 0.75431 0.67204 0.0
H417 H 0.60936 0.676 0.64119 0.0
H418 H 0.60536 0.78836 0.64975 0.0
H419 H 0.60439 0.7102 0.61886 0.0
H420 H 0.57826 0.77905 0.58182 0.0
H421 H 0.57231 0.74774 0.60521 0.0
H422 H 0.63981 0.80324 0.62884 0.0
H423 H 0.64541 0.83476 0.60566 0.0
C424 C 0.6091 0.74431 0.66052 0.0
C425 C 0.61092 0.71241 0.65839 0.0
C426 C 0.60605 0.76387 0.64774 0.0
C427 C 0.60478 0.75203 0.63253 0.0
C428 C 0.60506 0.72006 0.63044 0.0
C429 C 0.60807 0.70045 0.64324 0.0
C430 C 0.59149 0.78486 0.59209 0.0
C431 C 0.61246 0.80931 0.59184 0.0
C432 C 0.5882 0.76679 0.60545 0.0
C433 C 0.6057 0.77289 0.61885 0.0
C434 C 0.62572 0.79811 0.61878 0.0
C435 C 0.62906 0.8161 0.60544 0.0
H436 H 0.32176 0.15505 0.8896 0.0
H437 H 0.28125 0.071 0.90647 0.0
H438 H 0.29069 0.15192 0.86617 0.0
H439 H 0.25036 0.06765 0.88276 0.0
H440 H 0.17198 0.10157 0.84946 0.0
H441 H 0.20673 0.09601 0.8716 0.0
H442 H 0.28279 0.12275 0.84242 0.0
H443 H 0.24817 0.12888 0.82044 0.0
C444 C 0.30656 0.13563 0.88821 0.0
C445 C 0.3039 0.11336 0.89996 0.0
C446 C 0.28884 0.13374 0.87471 0.0
C447 C 0.268 0.10955 0.87261 0.0
C448 C 0.26597 0.08674 0.88413 0.0
C449 C 0.28382 0.08857 0.89765 0.0
C450 C 0.19617 0.10587 0.84773 0.0
C451 C 0.20722 0.11605 0.83323 0.0
C452 C 0.21612 0.10254 0.86039 0.0
C453 C 0.24747 0.10927 0.8588 0.0
C454 C 0.25868 0.11795 0.8441 0.0
C455 C 0.2388 0.12134 0.83148 0.0
H456 H 0.83875 0.81805 0.14502 0.0
H457 H 0.92252 0.78039 0.16392 0.0
H458 H 0.83927 0.77949 0.12455 0.0
H459 H 0.9229 0.74167 0.14327 0.0
H460 H 0.92123 0.69629 0.09301 0.0
H461 H 0.92611 0.73554 0.11328 0.0
H462 H 0.83139 0.72202 0.12592 0.0
H463 H 0.82638 0.683 0.10586 0.0
C464 C 0.85752 0.80184 0.1447 0.0
C465 C 0.88044 0.80216 0.15621 0.0
C466 C 0.85768 0.77961 0.13302 0.0
C467 C 0.88086 0.75733 0.13249 0.0
C468 C 0.90474 0.75858 0.14344 0.0
C469 C 0.90447 0.78073 0.15525 0.0
C470 C 0.90156 0.70145 0.10024 0.0
C471 C 0.87336 0.68664 0.09774 0.0
C472 C 0.90439 0.72389 0.11183 0.0
C473 C 0.87899 0.73211 0.12097 0.0
C474 C 0.85118 0.71653 0.11883 0.0
C475 C 0.84842 0.69399 0.1074 0.0
H476 H 0.17668 0.39666 0.38618 0.0
H477 H 0.24677 0.41207 0.42091 0.0
H478 H 0.21439 0.40431 0.36563 0.0
H479 H 0.2843 0.42032 0.40034 0.0
H480 H 0.34504 0.37959 0.36088 0.0
H481 H 0.30876 0.38545 0.38215 0.0
H482 H 0.2496 0.43902 0.35235 0.0
H483 H 0.28574 0.4327 0.3309 0.0
C484 C 0.19996 0.40236 0.38944 0.0
C485 C 0.20878 0.40331 0.40519 0.0
C486 C 0.22158 0.4069 0.37764 0.0
C487 C 0.25245 0.41258 0.38135 0.0
C488 C 0.26083 0.41542 0.3971 0.0
C489 C 0.23925 0.41083 0.40889 0.0
C490 C 0.32455 0.39304 0.3589 0.0
C491 C 0.31817 0.4054 0.34413 0.0
C492 C 0.30379 0.39657 0.37115 0.0
C493 C 0.27616 0.41256 0.36892 0.0
C494 C 0.27048 0.42622 0.35437 0.0
C495 C 0.29129 0.42273 0.34211 0.0
H496 H 0.02764 0.07538 0.21202 0.0
H497 H 0.09267 0.01658 0.18861 0.0
H498 H 0.99086 0.0333 0.21288 0.0
H499 H 0.05579 0.9746 0.18942 0.0
H500 H 0.99493 0.89884 0.21039 0.0
H501 H 0.03142 0.94112 0.20934 0.0
H502 H 0.95917 0.0022 0.1946 0.0
H503 H 0.92257 0.95996 0.19572 0.0
C504 C 0.03408 0.05351 0.20703 0.0
C505 C 0.0631 0.04932 0.20027 0.0
C506 C 0.01294 0.02947 0.20745 0.0
C507 C 0.02045 1.00064 0.20123 0.0
C508 C 0.04946 0.99646 0.19446 0.0
C509 C 0.07052 0.02056 0.19393 0.0
C510 C 0.9868 0.92128 0.20693 0.0
C511 C 0.95584 0.92604 0.20314 0.0
C512 C 0.00775 0.94545 0.20624 0.0
C513 C 0.99817 0.97497 0.20187 0.0
C514 C 0.96718 0.97977 0.19815 0.0
C515 C 0.94626 0.95554 0.19872 0.0
H516 H 0.01694 0.40607 0.42544 0.0
H517 H 0.07424 0.46461 0.45373 0.0
H518 H 0.97446 0.44191 0.42855 0.0
H519 H 0.03166 0.50036 0.45687 0.0
H520 H 0.95804 0.57199 0.44369 0.0
H521 H 1.00076 0.53638 0.44055 0.0
H522 H 0.94015 0.46039 0.44983 0.0
H523 H 0.8974 0.49589 0.45291 0.0
C524 C 0.02048 0.42657 0.43232 0.0
C525 C 0.04897 0.43248 0.43934 0.0
C526 C 0.99609 0.44701 0.43417 0.0
C527 C 0.99973 0.47393 0.44297 0.0
C528 C 0.02826 0.47994 0.4499 0.0
C529 C 0.05258 0.45938 0.44817 0.0
C530 C 0.95383 0.54769 0.44507 0.0
C531 C 0.92432 0.53677 0.44855 0.0
C532 C 0.97833 0.52732 0.44335 0.0
C533 C 0.97379 0.4956 0.44493 0.0
C534 C 0.94428 0.48469 0.44838 0.0
C535 C 0.91984 0.50505 0.45024 0.0
H536 H 0.59775 0.5214 0.68082 0.0
H537 H 0.53098 0.57933 0.70351 0.0
H538 H 0.56123 0.47907 0.68101 0.0
H539 H 0.49457 0.53691 0.70375 0.0
H540 H 0.42781 0.46365 0.68504 0.0
H541 H 0.46427 0.50605 0.68472 0.0
H542 H 0.53579 0.44505 0.70043 0.0
H543 H 0.49944 0.4026 0.70069 0.0
C544 C 0.57531 0.5251 0.68586 0.0
C545 C 0.56727 0.55373 0.69215 0.0
C546 C 0.55446 0.5008 0.68604 0.0
C547 C 0.52504 0.50467 0.6924 0.0
C548 C 0.51697 0.53333 0.69863 0.0
C549 C 0.53789 0.55756 0.69857 0.0
C550 C 0.45131 0.45927 0.68842 0.0
C551 C 0.46073 0.42975 0.69289 0.0
C552 C 0.47214 0.4836 0.68831 0.0
C553 C 0.50289 0.47887 0.69255 0.0
C554 C 0.51233 0.44933 0.69696 0.0
C555 C 0.49145 0.42506 0.69718 0.0
H556 H 0.39563 0.99798 0.95442 0.0
H557 H 0.45597 0.07299 0.94273 0.0
H558 H 0.43856 0.96237 0.95262 0.0
H559 H 0.49886 0.03726 0.94084 0.0
H560 H 0.57287 0.96761 0.95585 0.0
H561 H 0.53022 0.00355 0.95797 0.0
H562 H 0.47266 0.94117 0.93212 0.0
H563 H 0.5152 0.90512 0.93006 0.0
C564 C 0.41805 0.00689 0.95149 0.0
C565 C 0.42237 0.03833 0.94871 0.0
C566 C 0.4426 0.98644 0.95036 0.0
C567 C 0.47207 0.99699 0.94655 0.0
C568 C 0.47647 0.02848 0.94394 0.0
C569 C 0.45186 0.04891 0.94495 0.0
C570 C 0.55112 0.96155 0.95062 0.0
C571 C 0.54743 0.93348 0.9428 0.0
C572 C 0.52675 0.98222 0.95177 0.0
C573 C 0.49808 0.97518 0.94523 0.0
C574 C 0.49438 0.9471 0.93743 0.0
C575 C 0.51881 0.92653 0.93618 0.0
H576 H 0.91428 0.52172 0.06158 0.0
H577 H 0.98413 0.57899 0.041 0.0
H578 H 0.94947 0.47831 0.06121 0.0
H579 H 0.01917 0.53546 0.04047 0.0
H580 H 0.08282 0.45853 0.05778 0.0
H581 H 0.04794 0.50222 0.05849 0.0
H582 H 0.97435 0.44452 0.04206 0.0
H583 H 0.00907 0.40077 0.04151 0.0
C584 C 0.93712 0.52506 0.05697 0.0
C585 C 0.94638 0.55382 0.05131 0.0
C586 C 0.95723 0.50013 0.05667 0.0
C587 C 0.9871 0.50342 0.05078 0.0
C588 C 0.99642 0.53225 0.04523 0.0
C589 C 0.97627 0.55715 0.04546 0.0
C590 C 0.0592 0.45516 0.0543 0.0
C591 C 0.04873 0.42616 0.04959 0.0
C592 C 0.03926 0.48024 0.05464 0.0
C593 C 0.00837 0.47683 0.05035 0.0
C594 C 0.99792 0.44782 0.04562 0.0
C595 C 0.01788 0.42279 0.04522 0.0
H596 H 0.59178 0.52285 0.28452 0.0
H597 H 0.53299 0.59448 0.30226 0.0
H598 H 0.54834 0.48771 0.284 0.0
H599 H 0.48964 0.55922 0.30186 0.0
H600 H 0.41372 0.49685 0.28267 0.0
H601 H 0.45728 0.53185 0.28268 0.0
H602 H 0.51422 0.46104 0.30263 0.0
H603 H 0.47075 0.42591 0.30251 0.0
C604 C 0.56961 0.5311 0.28832 0.0
C605 C 0.56585 0.56147 0.29343 0.0
C606 C 0.54476 0.5109 0.2881 0.0
C607 C 0.51557 0.52069 0.29289 0.0
C608 C 0.51178 0.55109 0.29793 0.0
C609 C 0.53667 0.57124 0.29824 0.0
C610 C 0.43554 0.48871 0.28703 0.0
C611 C 0.43876 0.45859 0.29259 0.0
C612 C 0.46044 0.50883 0.28712 0.0
C613 C 0.48917 0.49923 0.29268 0.0
C614 C 0.49246 0.46903 0.29812 0.0
C615 C 0.46751 0.44896 0.29812 0.0
H616 H 0.42178 0.02562 0.54937 0.0
H617 H 0.49446 0.08088 0.52994 0.0
H618 H 0.45553 0.98108 0.54924 0.0
H619 H 0.52806 0.03622 0.52963 0.0
H620 H 0.58831 0.95723 0.54768 0.0
H621 H 0.55482 0.00199 0.5479 0.0
H622 H 0.48036 0.94664 0.53041 0.0
H623 H 0.51369 0.9018 0.53037 0.0
C624 C 0.44493 0.02827 0.54505 0.0
C625 C 0.45542 0.05681 0.53967 0.0
C626 C 0.46421 0.00269 0.54489 0.0
C627 C 0.49446 0.00509 0.5394 0.0
C628 C 0.50499 0.03368 0.53409 0.0
C629 C 0.48567 0.05924 0.53419 0.0
C630 C 0.56481 0.95461 0.54386 0.0
C631 C 0.55367 0.92593 0.53902 0.0
C632 C 0.54566 0.9803 0.54392 0.0
C633 C 0.51492 0.97787 0.53919 0.0
C634 C 0.50382 0.9492 0.53431 0.0
C635 C 0.52299 0.92354 0.53419 0.0
H636 H 0.95931 0.92303 0.79992 0.0
H637 H 0.89872 0.99595 0.78538 0.0
H638 H 0.00171 0.95943 0.80132 0.0
H639 H 0.94114 0.03221 0.78672 0.0
H640 H 0.0158 0.09245 0.80907 0.0
H641 H 0.97388 0.05566 0.80733 0.0
H642 H 0.03342 0.99194 0.78356 0.0
H643 H 0.07546 0.02866 0.78534 0.0
C644 C 0.95506 0.94678 0.79697 0.0
C645 C 0.92564 0.9566 0.79255 0.0
C646 C 0.97938 0.96758 0.7977 0.0
C647 C 0.97473 0.99868 0.79417 0.0
C648 C 0.94535 0.00846 0.78969 0.0
C649 C 0.9211 0.98763 0.78883 0.0
C650 C 0.01998 0.07059 0.80348 0.0
C651 C 0.04896 0.06349 0.79733 0.0
C652 C 0.99591 0.0496 0.80241 0.0
C653 C 1.00035 0.02094 0.79528 0.0
C654 C 0.02938 0.01374 0.78924 0.0
C655 C 0.0534 0.03484 0.79019 0.0
loop_
_geom_bond_atom_site_label_1
_geom_bond_atom_site_label_2
_geom_bond_distance
_geom_bond_site_symmetry_2
_ccdc_geom_bond_type
O0 Cd1 2.300 . S
O0 C7 1.275 . S
Cd1 O0 2.300 . S
Cd1 O9 2.381 . S
Cd1 O10 2.378 . S
O2 Cd3 2.385 . S
O2 C7 1.255 . S
Cd3 O2 2.385 . S
Cd3 O4 2.317 . S
O4 Cd3 2.317 . S
O4 C5 1.232 . S
C5 O4 1.232 . S
C5 O6 1.218 . S
O6 C5 1.218 . S
C7 O0 1.275 . S
C7 O2 1.255 . S
C8 O9 1.258 . S
C8 O10 1.256 . S
O9 Cd1 2.381 . S
O9 C8 1.258 . S
O10 Cd1 2.378 . S
O10 C8 1.256 . S
O11 Cd12 2.300 . S
O11 C18 1.275 . S
Cd12 O11 2.300 . S
Cd12 O20 2.381 . S
Cd12 O21 2.378 . S
O13 Cd14 2.385 . S
O13 C18 1.255 . S
Cd14 O13 2.385 . S
Cd14 O15 2.317 . S
O15 Cd14 2.317 . S
O15 C16 1.232 . S
C16 O15 1.232 . S
C16 O17 1.218 . S
O17 C16 1.218 . S
C18 O11 1.275 . S
C18 O13 1.255 . S
C19 O20 1.258 . S
C19 O21 1.256 . S
O20 Cd12 2.381 . S
O20 C19 1.258 . S
O21 Cd12 2.378 . S
O21 C19 1.256 . S
O22 Cd23 2.300 . S
O22 C29 1.275 . S
Cd23 O22 2.300 . S
Cd23 O31 2.381 . S
Cd23 O32 2.378 . S
O24 Cd25 2.385 . S
O24 C29 1.255 . S
Cd25 O24 2.385 . S
Cd25 O26 2.317 . S
O26 Cd25 2.317 . S
O26 C27 1.232 . S
C27 O26 1.232 . S
C27 O28 1.218 . S
O28 C27 1.218 . S
C29 O22 1.275 . S
C29 O24 1.255 . S
C30 O31 1.258 . S
C30 O32 1.256 . S
O31 Cd23 2.381 . S
O31 C30 1.258 . S
O32 Cd23 2.378 . S
O32 C30 1.256 . S
O33 Cd34 2.300 . S
O33 C40 1.275 . S
Cd34 O33 2.300 . S
Cd34 O42 2.381 . S
Cd34 O43 2.378 . S
O35 Cd36 2.385 . S
O35 C40 1.255 . S
Cd36 O35 2.385 . S
Cd36 O37 2.317 . S
O37 Cd36 2.317 . S
O37 C38 1.232 . S
C38 O37 1.232 . S
C38 O39 1.218 . S
O39 C38 1.218 . S
C40 O33 1.275 . S
C40 O35 1.255 . S
C41 O42 1.258 . S
C41 O43 1.256 . S
O42 Cd34 2.381 . S
O42 C41 1.258 . S
O43 Cd34 2.378 . S
O43 C41 1.256 . S
O44 Cd45 2.300 . S
O44 C51 1.275 . S
Cd45 O44 2.300 . S
Cd45 O53 2.381 . S
Cd45 O54 2.378 . S
O46 Cd47 2.385 . S
O46 C51 1.255 . S
Cd47 O46 2.385 . S
Cd47 O48 2.317 . S
O48 Cd47 2.317 . S
O48 C49 1.232 . S
C49 O48 1.232 . S
C49 O50 1.218 . S
O50 C49 1.218 . S
C51 O44 1.275 . S
C51 O46 1.255 . S
C52 O53 1.258 . S
C52 O54 1.256 . S
O53 Cd45 2.381 . S
O53 C52 1.258 . S
O54 Cd45 2.378 . S
O54 C52 1.256 . S
O55 Cd56 2.300 . S
O55 C62 1.275 . S
Cd56 O55 2.300 . S
Cd56 O64 2.381 . S
Cd56 O65 2.378 . S
O57 Cd58 2.385 . S
O57 C62 1.255 . S
Cd58 O57 2.385 . S
Cd58 O59 2.317 . S
O59 Cd58 2.317 . S
O59 C60 1.232 . S
C60 O59 1.232 . S
C60 O61 1.218 . S
O61 C60 1.218 . S
C62 O55 1.275 . S
C62 O57 1.255 . S
C63 O64 1.258 . S
C63 O65 1.256 . S
O64 Cd56 2.381 . S
O64 C63 1.258 . S
O65 Cd56 2.378 . S
O65 C63 1.256 . S
O66 Cd67 2.300 . S
O66 C73 1.275 . S
Cd67 O66 2.300 . S
Cd67 O75 2.381 . S
Cd67 O76 2.378 . S
O68 Cd69 2.385 . S
O68 C73 1.255 . S
Cd69 O68 2.385 . S
Cd69 O70 2.317 . S
O70 Cd69 2.317 . S
O70 C71 1.232 . S
C71 O70 1.232 . S
C71 O72 1.218 . S
O72 C71 1.218 . S
C73 O66 1.275 . S
C73 O68 1.255 . S
C74 O75 1.258 . S
C74 O76 1.256 . S
O75 Cd67 2.381 . S
O75 C74 1.258 . S
O76 Cd67 2.378 . S
O76 C74 1.256 . S
O77 Cd78 2.300 . S
O77 C84 1.275 . S
Cd78 O77 2.300 . S
Cd78 O86 2.381 . S
Cd78 O87 2.378 . S
O79 Cd80 2.385 . S
O79 C84 1.255 . S
Cd80 O79 2.385 . S
Cd80 O81 2.317 . S
O81 Cd80 2.317 . S
O81 C82 1.232 . S
C82 O81 1.232 . S
C82 O83 1.218 . S
O83 C82 1.218 . S
C84 O77 1.275 . S
C84 O79 1.255 . S
C85 O86 1.258 . S
C85 O87 1.256 . S
O86 Cd78 2.381 . S
O86 C85 1.258 . S
O87 Cd78 2.378 . S
O87 C85 1.256 . S
O88 Cd89 2.300 . S
O88 C95 1.275 . S
Cd89 O88 2.300 . S
Cd89 O97 2.381 . S
Cd89 O98 2.378 . S
O90 Cd91 2.385 . S
O90 C95 1.255 . S
Cd91 O90 2.385 . S
Cd91 O92 2.317 . S
O92 Cd91 2.317 . S
O92 C93 1.232 . S
C93 O92 1.232 . S
C93 O94 1.218 . S
O94 C93 1.218 . S
C95 O88 1.275 . S
C95 O90 1.255 . S
C96 O97 1.258 . S
C96 O98 1.256 . S
O97 Cd89 2.381 . S
O97 C96 1.258 . S
O98 Cd89 2.378 . S
O98 C96 1.256 . S
O99 Cd100 2.300 . S
O99 C106 1.275 . S
Cd100 O99 2.300 . S
Cd100 O108 2.381 . S
Cd100 O109 2.378 . S
O101 Cd102 2.385 . S
O101 C106 1.255 . S
Cd102 O101 2.385 . S
Cd102 O103 2.317 . S
O103 Cd102 2.317 . S
O103 C104 1.232 . S
C104 O103 1.232 . S
C104 O105 1.218 . S
O105 C104 1.218 . S
C106 O99 1.275 . S
C106 O101 1.255 . S
C107 O108 1.258 . S
C107 O109 1.256 . S
O108 Cd100 2.381 . S
O108 C107 1.258 . S
O109 Cd100 2.378 . S
O109 C107 1.256 . S
O110 Cd111 2.300 . S
O110 C117 1.275 . S
Cd111 O110 2.300 . S
Cd111 O119 2.381 . S
Cd111 O120 2.378 . S
O112 Cd113 2.385 . S
O112 C117 1.255 . S
Cd113 O112 2.385 . S
Cd113 O114 2.317 . S
O114 Cd113 2.317 . S
O114 C115 1.232 . S
C115 O114 1.232 . S
C115 O116 1.218 . S
O116 C115 1.218 . S
C117 O110 1.275 . S
C117 O112 1.255 . S
C118 O119 1.258 . S
C118 O120 1.256 . S
O119 Cd111 2.381 . S
O119 C118 1.258 . S
O120 Cd111 2.378 . S
O120 C118 1.256 . S
O121 Cd122 2.300 . S
O121 C128 1.275 . S
Cd122 O121 2.300 . S
Cd122 O130 2.381 . S
Cd122 O131 2.378 . S
O123 Cd124 2.385 . S
O123 C128 1.255 . S
Cd124 O123 2.385 . S
Cd124 O125 2.317 . S
O125 Cd124 2.317 . S
O125 C126 1.232 . S
C126 O125 1.232 . S
C126 O127 1.218 . S
O127 C126 1.218 . S
C128 O121 1.275 . S
C128 O123 1.255 . S
C129 O130 1.258 . S
C129 O131 1.256 . S
O130 Cd122 2.381 . S
O130 C129 1.258 . S
O131 Cd122 2.378 . S
O131 C129 1.256 . S
O132 Cd133 2.300 . S
O132 C139 1.275 . S
Cd133 O132 2.300 . S
Cd133 O141 2.381 . S
Cd133 O142 2.378 . S
O134 Cd135 2.385 . S
O134 C139 1.255 . S
Cd135 O134 2.385 . S
Cd135 O136 2.317 . S
O136 Cd135 2.317 . S
O136 C137 1.232 . S
C137 O136 1.232 . S
C137 O138 1.218 . S
O138 C137 1.218 . S
C139 O132 1.275 . S
C139 O134 1.255 . S
C140 O141 1.258 . S
C140 O142 1.256 . S
O141 Cd133 2.381 . S
O141 C140 1.258 . S
O142 Cd133 2.378 . S
O142 C140 1.256 . S
O143 Cd144 2.300 . S
O143 C150 1.275 . S
Cd144 O143 2.300 . S
Cd144 O152 2.381 . S
Cd144 O153 2.378 . S
O145 Cd146 2.385 . S
O145 C150 1.255 . S
Cd146 O145 2.385 . S
Cd146 O147 2.317 . S
O147 Cd146 2.317 . S
O147 C148 1.232 . S
C148 O147 1.232 . S
C148 O149 1.218 . S
O149 C148 1.218 . S
C150 O143 1.275 . S
C150 O145 1.255 . S
C151 O152 1.258 . S
C151 O153 1.256 . S
O152 Cd144 2.381 . S
O152 C151 1.258 . S
O153 Cd144 2.378 . S
O153 C151 1.256 . S
O154 Cd155 2.300 . S
O154 C161 1.275 . S
Cd155 O154 2.300 . S
Cd155 O163 2.381 . S
Cd155 O164 2.378 . S
O156 Cd157 2.385 . S
O156 C161 1.255 . S
Cd157 O156 2.385 . S
Cd157 O158 2.317 . S
O158 Cd157 2.317 . S
O158 C159 1.232 . S
C159 O158 1.232 . S
C159 O160 1.218 . S
O160 C159 1.218 . S
C161 O154 1.275 . S
C161 O156 1.255 . S
C162 O163 1.258 . S
C162 O164 1.256 . S
O163 Cd155 2.381 . S
O163 C162 1.258 . S
O164 Cd155 2.378 . S
O164 C162 1.256 . S
O165 Cd166 2.300 . S
O165 C172 1.275 . S
Cd166 O165 2.300 . S
Cd166 O174 2.381 . S
Cd166 O175 2.378 . S
O167 Cd168 2.385 . S
O167 C172 1.255 . S
Cd168 O167 2.385 . S
Cd168 O169 2.317 . S
O169 Cd168 2.317 . S
O169 C170 1.232 . S
C170 O169 1.232 . S
C170 O171 1.218 . S
O171 C170 1.218 . S
C172 O165 1.275 . S
C172 O167 1.255 . S
C173 O174 1.258 . S
C173 O175 1.256 . S
O174 Cd166 2.381 . S
O174 C173 1.258 . S
O175 Cd166 2.378 . S
O175 C173 1.256 . S
H176 C184 0.950 . S
H177 C189 0.950 . S
H178 C186 0.950 . S
H179 C188 0.950 . S
H180 C190 0.950 . S
H181 C192 0.950 . S
H182 C194 0.950 . S
H183 C195 0.950 . S
C184 H176 0.950 . S
C184 C185 1.386 . S
C184 C186 1.391 . S
C185 C184 1.386 . S
C185 C189 1.393 . S
C186 H178 0.950 . S
C186 C184 1.391 . S
C186 C187 1.400 . S
C187 C186 1.400 . S
C187 C188 1.398 . S
C187 C193 1.491 . S
C188 H179 0.950 . S
C188 C187 1.398 . S
C188 C189 1.391 . S
C189 H177 0.950 . S
C189 C185 1.393 . S
C189 C188 1.391 . S
C190 H180 0.950 . S
C190 C191 1.386 . S
C190 C192 1.391 . S
C191 C190 1.386 . S
C191 C195 1.393 . S
C192 H181 0.950 . S
C192 C190 1.391 . S
C192 C193 1.400 . S
C193 C187 1.491 . S
C193 C192 1.400 . S
C193 C194 1.398 . S
C194 H182 0.950 . S
C194 C193 1.398 . S
C194 C195 1.391 . S
C195 H183 0.950 . S
C195 C191 1.393 . S
C195 C194 1.391 . S
H196 C204 0.950 . S
H197 C209 0.950 . S
H198 C206 0.950 . S
H199 C208 0.950 . S
H200 C210 0.950 . S
H201 C212 0.950 . S
H202 C214 0.950 . S
H203 C215 0.950 . S
C204 H196 0.950 . S
C204 C205 1.386 . S
C204 C206 1.391 . S
C205 C204 1.386 . S
C205 C209 1.393 . S
C206 H198 0.950 . S
C206 C204 1.391 . S
C206 C207 1.400 . S
C207 C206 1.400 . S
C207 C208 1.398 . S
C207 C213 1.491 . S
C208 H199 0.950 . S
C208 C207 1.398 . S
C208 C209 1.391 . S
C209 H197 0.950 . S
C209 C205 1.393 . S
C209 C208 1.391 . S
C210 H200 0.950 . S
C210 C211 1.386 . S
C210 C212 1.391 . S
C211 C210 1.386 . S
C211 C215 1.393 . S
C212 H201 0.950 . S
C212 C210 1.391 . S
C212 C213 1.400 . S
C213 C207 1.491 . S
C213 C212 1.400 . S
C213 C214 1.398 . S
C214 H202 0.950 . S
C214 C213 1.398 . S
C214 C215 1.391 . S
C215 H203 0.950 . S
C215 C211 1.393 . S
C215 C214 1.391 . S
H216 C224 0.950 . S
H217 C229 0.950 . S
H218 C226 0.950 . S
H219 C228 0.950 . S
H220 C230 0.950 . S
H221 C232 0.950 . S
H222 C234 0.950 . S
H223 C235 0.950 . S
C224 H216 0.950 . S
C224 C225 1.386 . S
C224 C226 1.391 . S
C225 C224 1.386 . S
C225 C229 1.393 . S
C226 H218 0.950 . S
C226 C224 1.391 . S
C226 C227 1.400 . S
C227 C226 1.400 . S
C227 C228 1.398 . S
C227 C233 1.491 . S
C228 H219 0.950 . S
C228 C227 1.398 . S
C228 C229 1.391 . S
C229 H217 0.950 . S
C229 C225 1.393 . S
C229 C228 1.391 . S
C230 H220 0.950 . S
C230 C231 1.386 . S
C230 C232 1.391 . S
C231 C230 1.386 . S
C231 C235 1.393 . S
C232 H221 0.950 . S
C232 C230 1.391 . S
C232 C233 1.400 . S
C233 C227 1.491 . S
C233 C232 1.400 . S
C233 C234 1.398 . S
C234 H222 0.950 . S
C234 C233 1.398 . S
C234 C235 1.391 . S
C235 H223 0.950 . S
C235 C231 1.393 . S
C235 C234 1.391 . S
H236 C244 0.950 . S
H237 C249 0.950 . S
H238 C246 0.950 . S
H239 C248 0.950 1_554 S
H240 C250 0.950 . S
H241 C252 0.950 . S
H242 C254 0.950 1_556 S
H243 C255 0.950 . S
C244 H236 0.950 . S
C244 C245 1.386 . S
C244 C246 1.391 . S
C245 C244 1.386 . S
C245 C249 1.393 . S
C246 H238 0.950 . S
C246 C244 1.391 . S
C246 C247 1.400 . S
C247 C246 1.400 . S
C247 C248 1.398 . S
C247 C253 1.491 1_556 S
C248 H239 0.950 1_556 S
C248 C247 1.398 . S
C248 C249 1.391 . S
C249 H237 0.950 . S
C249 C245 1.393 . S
C249 C248 1.391 . S
C250 H240 0.950 . S
C250 C251 1.386 . S
C250 C252 1.391 . S
C251 C250 1.386 . S
C251 C255 1.393 . S
C252 H241 0.950 . S
C252 C250 1.391 . S
C252 C253 1.400 . S
C253 C247 1.491 1_554 S
C253 C252 1.400 . S
C253 C254 1.398 . S
C254 H242 0.950 1_554 S
C254 C253 1.398 . S
C254 C255 1.391 . S
C255 H243 0.950 . S
C255 C251 1.393 . S
C255 C254 1.391 . S
H256 C264 0.950 . S
H257 C269 0.950 . S
H258 C266 0.950 . S
H259 C268 0.950 1_556 S
H260 C270 0.950 . S
H261 C272 0.950 . S
H262 C274 0.950 1_554 S
H263 C275 0.950 . S
C264 H256 0.950 . S
C264 C265 1.386 . S
C264 C266 1.391 . S
C265 C264 1.386 . S
C265 C269 1.393 . S
C266 H258 0.950 . S
C266 C264 1.391 . S
C266 C267 1.400 . S
C267 C266 1.400 . S
C267 C268 1.398 . S
C267 C273 1.491 1_554 S
C268 H259 0.950 1_554 S
C268 C267 1.398 . S
C268 C269 1.391 . S
C269 H257 0.950 . S
C269 C265 1.393 . S
C269 C268 1.391 . S
C270 H260 0.950 . S
C270 C271 1.386 . S
C270 C272 1.391 . S
C271 C270 1.386 . S
C271 C275 1.393 . S
C272 H261 0.950 . S
C272 C270 1.391 . S
C272 C273 1.400 . S
C273 C267 1.491 1_556 S
C273 C272 1.400 . S
C273 C274 1.398 . S
C274 H262 0.950 1_556 S
C274 C273 1.398 . S
C274 C275 1.391 . S
C275 H263 0.950 . S
C275 C271 1.393 . S
C275 C274 1.391 . S
H276 C284 0.950 . S
H277 C289 0.950 . S
H278 C286 0.950 . S
H279 C288 0.950 . S
H280 C290 0.950 . S
H281 C292 0.950 . S
H282 C294 0.950 . S
H283 C295 0.950 . S
C284 H276 0.950 . S
C284 C285 1.386 . S
C284 C286 1.391 . S
C285 C284 1.386 . S
C285 C289 1.393 . S
C286 H278 0.950 . S
C286 C284 1.391 . S
C286 C287 1.400 . S
C287 C286 1.400 . S
C287 C288 1.398 . S
C287 C293 1.491 . S
C288 H279 0.950 . S
C288 C287 1.398 . S
C288 C289 1.391 . S
C289 H277 0.950 . S
C289 C285 1.393 . S
C289 C288 1.391 . S
C290 H280 0.950 . S
C290 C291 1.386 . S
C290 C292 1.391 . S
C291 C290 1.386 . S
C291 C295 1.393 . S
C292 H281 0.950 . S
C292 C290 1.391 . S
C292 C293 1.400 . S
C293 C287 1.491 . S
C293 C292 1.400 . S
C293 C294 1.398 . S
C294 H282 0.950 . S
C294 C293 1.398 . S
C294 C295 1.391 . S
C295 H283 0.950 . S
C295 C291 1.393 . S
C295 C294 1.391 . S
H296 C304 0.950 . S
H297 C309 0.950 . S
H298 C306 0.950 . S
H299 C308 0.950 . S
H300 C310 0.950 . S
H301 C312 0.950 . S
H302 C314 0.950 . S
H303 C315 0.950 . S
C304 H296 0.950 . S
C304 C305 1.386 . S
C304 C306 1.391 . S
C305 C304 1.386 . S
C305 C309 1.393 . S
C306 H298 0.950 . S
C306 C304 1.391 . S
C306 C307 1.400 . S
C307 C306 1.400 . S
C307 C308 1.398 . S
C307 C313 1.491 . S
C308 H299 0.950 . S
C308 C307 1.398 . S
C308 C309 1.391 . S
C309 H297 0.950 . S
C309 C305 1.393 . S
C309 C308 1.391 . S
C310 H300 0.950 . S
C310 C311 1.386 . S
C310 C312 1.391 . S
C311 C310 1.386 . S
C311 C315 1.393 . S
C312 H301 0.950 . S
C312 C310 1.391 . S
C312 C313 1.400 . S
C313 C307 1.491 . S
C313 C312 1.400 . S
C313 C314 1.398 . S
C314 H302 0.950 . S
C314 C313 1.398 . S
C314 C315 1.391 . S
C315 H303 0.950 . S
C315 C311 1.393 . S
C315 C314 1.391 . S
H316 C324 0.950 . S
H317 C329 0.950 . S
H318 C326 0.950 . S
H319 C328 0.950 . S
H320 C330 0.950 . S
H321 C332 0.950 . S
H322 C334 0.950 . S
H323 C335 0.950 . S
C324 H316 0.950 . S
C324 C325 1.386 . S
C324 C326 1.391 . S
C325 C324 1.386 . S
C325 C329 1.393 . S
C326 H318 0.950 . S
C326 C324 1.391 . S
C326 C327 1.400 . S
C327 C326 1.400 . S
C327 C328 1.398 . S
C327 C333 1.491 . S
C328 H319 0.950 . S
C328 C327 1.398 . S
C328 C329 1.391 . S
C329 H317 0.950 . S
C329 C325 1.393 . S
C329 C328 1.391 . S
C330 H320 0.950 . S
C330 C331 1.386 . S
C330 C332 1.391 . S
C331 C330 1.386 . S
C331 C335 1.393 . S
C332 H321 0.950 . S
C332 C330 1.391 . S
C332 C333 1.400 . S
C333 C327 1.491 . S
C333 C332 1.400 . S
C333 C334 1.398 . S
C334 H322 0.950 . S
C334 C333 1.398 . S
C334 C335 1.391 . S
C335 H323 0.950 . S
C335 C331 1.393 . S
C335 C334 1.391 . S
H336 C344 0.950 . S
H337 C349 0.950 . S
H338 C346 0.950 . S
H339 C348 0.950 . S
H340 C350 0.950 . S
H341 C352 0.950 . S
H342 C354 0.950 . S
H343 C355 0.950 . S
C344 H336 0.950 . S
C344 C345 1.386 . S
C344 C346 1.391 . S
C345 C344 1.386 . S
C345 C349 1.393 . S
C346 H338 0.950 . S
C346 C344 1.391 . S
C346 C347 1.400 . S
C347 C346 1.400 . S
C347 C348 1.398 . S
C347 C353 1.491 . S
C348 H339 0.950 . S
C348 C347 1.398 . S
C348 C349 1.391 . S
C349 H337 0.950 . S
C349 C345 1.393 . S
C349 C348 1.391 . S
C350 H340 0.950 . S
C350 C351 1.386 . S
C350 C352 1.391 . S
C351 C350 1.386 . S
C351 C355 1.393 . S
C352 H341 0.950 . S
C352 C350 1.391 . S
C352 C353 1.400 . S
C353 C347 1.491 . S
C353 C352 1.400 . S
C353 C354 1.398 . S
C354 H342 0.950 . S
C354 C353 1.398 . S
C354 C355 1.391 . S
C355 H343 0.950 . S
C355 C351 1.393 . S
C355 C354 1.391 . S
H356 C364 0.950 . S
H357 C369 0.950 . S
H358 C366 0.950 . S
H359 C368 0.950 . S
H360 C370 0.950 . S
H361 C372 0.950 . S
H362 C374 0.950 . S
H363 C375 0.950 . S
C364 H356 0.950 . S
C364 C365 1.386 . S
C364 C366 1.391 . S
C365 C364 1.386 . S
C365 C369 1.393 . S
C366 H358 0.950 . S
C366 C364 1.391 . S
C366 C367 1.400 . S
C367 C366 1.400 . S
C367 C368 1.398 . S
C367 C373 1.491 . S
C368 H359 0.950 . S
C368 C367 1.398 . S
C368 C369 1.391 . S
C369 H357 0.950 . S
C369 C365 1.393 . S
C369 C368 1.391 . S
C370 H360 0.950 . S
C370 C371 1.386 . S
C370 C372 1.391 . S
C371 C370 1.386 . S
C371 C375 1.393 . S
C372 H361 0.950 . S
C372 C370 1.391 . S
C372 C373 1.400 . S
C373 C367 1.491 . S
C373 C372 1.400 . S
C373 C374 1.398 . S
C374 H362 0.950 . S
C374 C373 1.398 . S
C374 C375 1.391 . S
C375 H363 0.950 . S
C375 C371 1.393 . S
C375 C374 1.391 . S
H376 C384 0.950 . S
H377 C389 0.950 . S
H378 C386 0.950 . S
H379 C388 0.950 . S
H380 C390 0.950 . S
H381 C392 0.950 . S
H382 C394 0.950 . S
H383 C395 0.950 . S
C384 H376 0.950 . S
C384 C385 1.386 . S
C384 C386 1.391 . S
C385 C384 1.386 . S
C385 C389 1.393 . S
C386 H378 0.950 . S
C386 C384 1.391 . S
C386 C387 1.400 . S
C387 C386 1.400 . S
C387 C388 1.398 . S
C387 C393 1.491 . S
C388 H379 0.950 . S
C388 C387 1.398 . S
C388 C389 1.391 . S
C389 H377 0.950 . S
C389 C385 1.393 . S
C389 C388 1.391 . S
C390 H380 0.950 . S
C390 C391 1.386 . S
C390 C392 1.391 . S
C391 C390 1.386 . S
C391 C395 1.393 . S
C392 H381 0.950 . S
C392 C390 1.391 . S
C392 C393 1.400 . S
C393 C387 1.491 . S
C393 C392 1.400 . S
C393 C394 1.398 . S
C394 H382 0.950 . S
C394 C393 1.398 . S
C394 C395 1.391 . S
C395 H383 0.950 . S
C395 C391 1.393 . S
C395 C394 1.391 . S
H396 C404 0.950 . S
H397 C409 0.950 . S
H398 C406 0.950 . S
H399 C408 0.950 . S
H400 C410 0.950 . S
H401 C412 0.950 . S
H402 C414 0.950 . S
H403 C415 0.950 . S
C404 H396 0.950 . S
C404 C405 1.386 . S
C404 C406 1.391 . S
C405 C404 1.386 . S
C405 C409 1.393 . S
C406 H398 0.950 . S
C406 C404 1.391 . S
C406 C407 1.400 . S
C407 C406 1.400 . S
C407 C408 1.398 . S
C407 C413 1.491 . S
C408 H399 0.950 . S
C408 C407 1.398 . S
C408 C409 1.391 . S
C409 H397 0.950 . S
C409 C405 1.393 . S
C409 C408 1.391 . S
C410 H400 0.950 . S
C410 C411 1.386 . S
C410 C412 1.391 . S
C411 C410 1.386 . S
C411 C415 1.393 . S
C412 H401 0.950 . S
C412 C410 1.391 . S
C412 C413 1.400 . S
C413 C407 1.491 . S
C413 C412 1.400 . S
C413 C414 1.398 . S
C414 H402 0.950 . S
C414 C413 1.398 . S
C414 C415 1.391 . S
C415 H403 0.950 . S
C415 C411 1.393 . S
C415 C414 1.391 . S
H416 C424 0.950 . S
H417 C429 0.950 . S
H418 C426 0.950 . S
H419 C428 0.950 . S
H420 C430 0.950 . S
H421 C432 0.950 . S
H422 C434 0.950 . S
H423 C435 0.950 . S
C424 H416 0.950 . S
C424 C425 1.386 . S
C424 C426 1.391 . S
C425 C424 1.386 . S
C425 C429 1.393 . S
C426 H418 0.950 . S
C426 C424 1.391 . S
C426 C427 1.400 . S
C427 C426 1.400 . S
C427 C428 1.398 . S
C427 C433 1.491 . S
C428 H419 0.950 . S
C428 C427 1.398 . S
C428 C429 1.391 . S
C429 H417 0.950 . S
C429 C425 1.393 . S
C429 C428 1.391 . S
C430 H420 0.950 . S
C430 C431 1.386 . S
C430 C432 1.391 . S
C431 C430 1.386 . S
C431 C435 1.393 . S
C432 H421 0.950 . S
C432 C430 1.391 . S
C432 C433 1.400 . S
C433 C427 1.491 . S
C433 C432 1.400 . S
C433 C434 1.398 . S
C434 H422 0.950 . S
C434 C433 1.398 . S
C434 C435 1.391 . S
C435 H423 0.950 . S
C435 C431 1.393 . S
C435 C434 1.391 . S
H436 C444 0.950 . S
H437 C449 0.950 . S
H438 C446 0.950 . S
H439 C448 0.950 . S
H440 C450 0.950 . S
H441 C452 0.950 . S
H442 C454 0.950 . S
H443 C455 0.950 . S
C444 H436 0.950 . S
C444 C445 1.386 . S
C444 C446 1.391 . S
C445 C444 1.386 . S
C445 C449 1.393 . S
C446 H438 0.950 . S
C446 C444 1.391 . S
C446 C447 1.400 . S
C447 C446 1.400 . S
C447 C448 1.398 . S
C447 C453 1.491 . S
C448 H439 0.950 . S
C448 C447 1.398 . S
C448 C449 1.391 . S
C449 H437 0.950 . S
C449 C445 1.393 . S
C449 C448 1.391 . S
C450 H440 0.950 . S
C450 C451 1.386 . S
C450 C452 1.391 . S
C451 C450 1.386 . S
C451 C455 1.393 . S
C452 H441 0.950 . S
C452 C450 1.391 . S
C452 C453 1.400 . S
C453 C447 1.491 . S
C453 C452 1.400 . S
C453 C454 1.398 . S
C454 H442 0.950 . S
C454 C453 1.398 . S
C454 C455 1.391 . S
C455 H443 0.950 . S
C455 C451 1.393 . S
C455 C454 1.391 . S
H456 C464 0.950 . S
H457 C469 0.950 . S
H458 C466 0.950 . S
H459 C468 0.950 . S
H460 C470 0.950 . S
H461 C472 0.950 . S
H462 C474 0.950 . S
H463 C475 0.950 . S
C464 H456 0.950 . S
C464 C465 1.386 . S
C464 C466 1.391 . S
C465 C464 1.386 . S
C465 C469 1.393 . S
C466 H458 0.950 . S
C466 C464 1.391 . S
C466 C467 1.400 . S
C467 C466 1.400 . S
C467 C468 1.398 . S
C467 C473 1.491 . S
C468 H459 0.950 . S
C468 C467 1.398 . S
C468 C469 1.391 . S
C469 H457 0.950 . S
C469 C465 1.393 . S
C469 C468 1.391 . S
C470 H460 0.950 . S
C470 C471 1.386 . S
C470 C472 1.391 . S
C471 C470 1.386 . S
C471 C475 1.393 . S
C472 H461 0.950 . S
C472 C470 1.391 . S
C472 C473 1.400 . S
C473 C467 1.491 . S
C473 C472 1.400 . S
C473 C474 1.398 . S
C474 H462 0.950 . S
C474 C473 1.398 . S
C474 C475 1.391 . S
C475 H463 0.950 . S
C475 C471 1.393 . S
C475 C474 1.391 . S
H476 C484 0.950 . S
H477 C489 0.950 . S
H478 C486 0.950 . S
H479 C488 0.950 . S
H480 C490 0.950 . S
H481 C492 0.950 . S
H482 C494 0.950 . S
H483 C495 0.950 . S
C484 H476 0.950 . S
C484 C485 1.386 . S
C484 C486 1.391 . S
C485 C484 1.386 . S
C485 C489 1.393 . S
C486 H478 0.950 . S
C486 C484 1.391 . S
C486 C487 1.400 . S
C487 C486 1.400 . S
C487 C488 1.398 . S
C487 C493 1.491 . S
C488 H479 0.950 . S
C488 C487 1.398 . S
C488 C489 1.391 . S
C489 H477 0.950 . S
C489 C485 1.393 . S
C489 C488 1.391 . S
C490 H480 0.950 . S
C490 C491 1.386 . S
C490 C492 1.391 . S
C491 C490 1.386 . S
C491 C495 1.393 . S
C492 H481 0.950 . S
C492 C490 1.391 . S
C492 C493 1.400 . S
C493 C487 1.491 . S
C493 C492 1.400 . S
C493 C494 1.398 . S
C494 H482 0.950 . S
C494 C493 1.398 . S
C494 C495 1.391 . S
C495 H483 0.950 . S
C495 C491 1.393 . S
C495 C494 1.391 . S
H496 C504 0.950 . S
H497 C509 0.950 . S
H498 C506 0.950 1_655 S
H499 C508 0.972 . S
H500 C510 0.950 . S
H501 C512 0.950 1_455 S
H502 C514 0.972 . S
H503 C515 0.950 . S
C504 H496 0.950 . S
C504 C505 1.386 . S
C504 C506 1.391 . S
C505 C504 1.386 . S
C505 C509 1.393 . S
C506 H498 0.950 1_455 S
C506 C504 1.391 . S
C506 C507 1.400 . S
C507 C506 1.400 . S
C507 C508 1.391 1_545 S
C507 C513 1.491 1_445 S
C508 H499 0.972 . S
C508 C507 1.391 1_565 S
C508 C509 1.377 1_565 S
C509 H497 0.950 . S
C509 C505 1.393 . S
C509 C508 1.377 1_545 S
C510 H500 0.950 . S
C510 C511 1.386 . S
C510 C512 1.391 . S
C511 C510 1.386 . S
C511 C515 1.393 . S
C512 H501 0.950 1_655 S
C512 C510 1.391 . S
C512 C513 1.400 . S
C513 C507 1.491 1_665 S
C513 C512 1.400 . S
C513 C514 1.391 1_565 S
C514 H502 0.972 . S
C514 C513 1.391 1_545 S
C514 C515 1.377 1_545 S
C515 H503 0.950 . S
C515 C511 1.393 . S
C515 C514 1.377 1_565 S
H516 C524 0.950 . S
H517 C529 0.950 . S
H518 C526 0.983 . S
H519 C528 0.950 . S
H520 C530 0.950 . S
H521 C532 0.984 . S
H522 C534 0.950 . S
H523 C535 0.950 . S
C524 H516 0.950 . S
C524 C525 1.386 . S
C524 C526 1.371 1_455 S
C525 C524 1.386 . S
C525 C529 1.393 . S
C526 H518 0.983 . S
C526 C524 1.371 1_655 S
C526 C527 1.389 1_655 S
C527 C526 1.389 1_455 S
C527 C528 1.398 . S
C527 C533 1.491 1_455 S
C528 H519 0.950 . S
C528 C527 1.398 . S
C528 C529 1.391 . S
C529 H517 0.950 . S
C529 C525 1.393 . S
C529 C528 1.391 . S
C530 H520 0.950 . S
C530 C531 1.386 . S
C530 C532 1.371 1_655 S
C531 C530 1.386 . S
C531 C535 1.393 . S
C532 H521 0.984 . S
C532 C530 1.371 1_455 S
C532 C533 1.388 1_455 S
C533 C527 1.491 1_655 S
C533 C532 1.388 1_655 S
C533 C534 1.398 . S
C534 H522 0.950 . S
C534 C533 1.398 . S
C534 C535 1.391 . S
C535 H523 0.950 . S
C535 C531 1.393 . S
C535 C534 1.391 . S
H536 C544 0.950 . S
H537 C549 0.950 . S
H538 C546 0.950 . S
H539 C548 0.950 . S
H540 C550 0.950 . S
H541 C552 0.950 . S
H542 C554 0.950 . S
H543 C555 0.950 . S
C544 H536 0.950 . S
C544 C545 1.386 . S
C544 C546 1.391 . S
C545 C544 1.386 . S
C545 C549 1.393 . S
C546 H538 0.950 . S
C546 C544 1.391 . S
C546 C547 1.400 . S
C547 C546 1.400 . S
C547 C548 1.398 . S
C547 C553 1.491 . S
C548 H539 0.950 . S
C548 C547 1.398 . S
C548 C549 1.391 . S
C549 H537 0.950 . S
C549 C545 1.393 . S
C549 C548 1.391 . S
C550 H540 0.950 . S
C550 C551 1.386 . S
C550 C552 1.391 . S
C551 C550 1.386 . S
C551 C555 1.393 . S
C552 H541 0.950 . S
C552 C550 1.391 . S
C552 C553 1.400 . S
C553 C547 1.491 . S
C553 C552 1.400 . S
C553 C554 1.398 . S
C554 H542 0.950 . S
C554 C553 1.398 . S
C554 C555 1.391 . S
C555 H543 0.950 . S
C555 C551 1.393 . S
C555 C554 1.391 . S
H556 C564 0.950 . S
H557 C569 0.950 . S
H558 C566 0.950 1_565 S
H559 C568 0.950 . S
H560 C570 0.950 . S
H561 C572 0.950 1_545 S
H562 C574 0.950 . S
H563 C575 0.950 . S
C564 H556 0.950 . S
C564 C565 1.386 . S
C564 C566 1.391 . S
C565 C564 1.386 . S
C565 C569 1.393 . S
C566 H558 0.950 1_545 S
C566 C564 1.391 . S
C566 C567 1.400 . S
C567 C566 1.400 . S
C567 C568 1.398 . S
C567 C573 1.491 1_545 S
C568 H559 0.950 . S
C568 C567 1.398 . S
C568 C569 1.391 . S
C569 H557 0.950 . S
C569 C565 1.393 . S
C569 C568 1.391 . S
C570 H560 0.950 . S
C570 C571 1.386 . S
C570 C572 1.391 . S
C571 C570 1.386 . S
C571 C575 1.393 . S
C572 H561 0.950 1_565 S
C572 C570 1.391 . S
C572 C573 1.400 . S
C573 C567 1.491 1_565 S
C573 C572 1.400 . S
C573 C574 1.398 . S
C574 H562 0.950 . S
C574 C573 1.398 . S
C574 C575 1.391 . S
C575 H563 0.950 . S
C575 C571 1.393 . S
C575 C574 1.391 . S
H576 C584 0.950 . S
H577 C589 0.950 . S
H578 C586 0.950 . S
H579 C588 0.950 1_455 S
H580 C590 0.950 . S
H581 C592 0.950 . S
H582 C594 0.950 1_655 S
H583 C595 0.950 . S
C584 H576 0.950 . S
C584 C585 1.386 . S
C584 C586 1.391 . S
C585 C584 1.386 . S
C585 C589 1.393 . S
C586 H578 0.950 . S
C586 C584 1.391 . S
C586 C587 1.400 . S
C587 C586 1.400 . S
C587 C588 1.398 . S
C587 C593 1.491 1_655 S
C588 H579 0.950 1_655 S
C588 C587 1.398 . S
C588 C589 1.391 . S
C589 H577 0.950 . S
C589 C585 1.393 . S
C589 C588 1.391 . S
C590 H580 0.950 . S
C590 C591 1.386 . S
C590 C592 1.391 . S
C591 C590 1.386 . S
C591 C595 1.393 . S
C592 H581 0.950 . S
C592 C590 1.391 . S
C592 C593 1.400 . S
C593 C587 1.491 1_455 S
C593 C592 1.400 . S
C593 C594 1.398 . S
C594 H582 0.950 1_455 S
C594 C593 1.398 . S
C594 C595 1.391 . S
C595 H583 0.950 . S
C595 C591 1.393 . S
C595 C594 1.391 . S
H596 C604 0.950 . S
H597 C609 0.950 . S
H598 C606 0.950 . S
H599 C608 0.950 . S
H600 C610 0.950 . S
H601 C612 0.950 . S
H602 C614 0.950 . S
H603 C615 0.950 . S
C604 H596 0.950 . S
C604 C605 1.386 . S
C604 C606 1.391 . S
C605 C604 1.386 . S
C605 C609 1.393 . S
C606 H598 0.950 . S
C606 C604 1.391 . S
C606 C607 1.400 . S
C607 C606 1.400 . S
C607 C608 1.398 . S
C607 C613 1.491 . S
C608 H599 0.950 . S
C608 C607 1.398 . S
C608 C609 1.391 . S
C609 H597 0.950 . S
C609 C605 1.393 . S
C609 C608 1.391 . S
C610 H600 0.950 . S
C610 C611 1.386 . S
C610 C612 1.391 . S
C611 C610 1.386 . S
C611 C615 1.393 . S
C612 H601 0.950 . S
C612 C610 1.391 . S
C612 C613 1.400 . S
C613 C607 1.491 . S
C613 C612 1.400 . S
C613 C614 1.398 . S
C614 H602 0.950 . S
C614 C613 1.398 . S
C614 C615 1.391 . S
C615 H603 0.950 . S
C615 C611 1.393 . S
C615 C614 1.391 . S
H616 C624 0.950 . S
H617 C629 0.950 . S
H618 C626 0.950 1_565 S
H619 C628 0.950 . S
H620 C630 0.950 . S
H621 C632 0.950 1_545 S
H622 C634 0.950 . S
H623 C635 0.950 . S
C624 H616 0.950 . S
C624 C625 1.386 . S
C624 C626 1.391 . S
C625 C624 1.386 . S
C625 C629 1.393 . S
C626 H618 0.950 1_545 S
C626 C624 1.391 . S
C626 C627 1.400 . S
C627 C626 1.400 . S
C627 C628 1.398 . S
C627 C633 1.491 1_545 S
C628 H619 0.950 . S
C628 C627 1.398 . S
C628 C629 1.391 . S
C629 H617 0.950 . S
C629 C625 1.393 . S
C629 C628 1.391 . S
C630 H620 0.950 . S
C630 C631 1.386 . S
C630 C632 1.391 . S
C631 C630 1.386 . S
C631 C635 1.393 . S
C632 H621 0.950 1_565 S
C632 C630 1.391 . S
C632 C633 1.400 . S
C633 C627 1.491 1_565 S
C633 C632 1.400 . S
C633 C634 1.398 . S
C634 H622 0.950 . S
C634 C633 1.398 . S
C634 C635 1.391 . S
C635 H623 0.950 . S
C635 C631 1.393 . S
C635 C634 1.391 . S
H636 C644 0.950 . S
H637 C649 0.950 . S
H638 C646 0.950 1_455 S
H639 C648 0.950 . S
H640 C650 0.950 . S
H641 C652 0.950 1_655 S
H642 C654 0.950 . S
H643 C655 0.950 . S
C644 H636 0.950 . S
C644 C645 1.386 . S
C644 C646 1.391 . S
C645 C644 1.386 . S
C645 C649 1.393 . S
C646 H638 0.950 1_655 S
C646 C644 1.391 . S
C646 C647 1.400 . S
C647 C646 1.400 . S
C647 C648 1.398 . S
C647 C653 1.491 1_665 S
C648 H639 0.950 . S
C648 C647 1.398 . S
C648 C649 1.391 . S
C649 H637 0.950 . S
C649 C645 1.393 . S
C649 C648 1.391 . S
C650 H640 0.950 . S
C650 C651 1.386 . S
C650 C652 1.391 . S
C651 C650 1.386 . S
C651 C655 1.393 . S
C652 H641 0.950 1_455 S
C652 C650 1.391 . S
C652 C653 1.400 . S
C653 C647 1.491 1_445 S
C653 C652 1.400 . S
C653 C654 1.398 . S
C654 H642 0.950 . S
C654 C653 1.398 . S
C654 C655 1.391 . S
C655 H643 0.950 . S
C655 C651 1.393 . S
C655 C654 1.391 . S
C185 C170 1.407 . S
C191 C5 1.379 . S
C205 C137 1.365 . S
C211 C16 1.392 . S
C225 C27 1.369 . S
C231 C148 1.401 . S
C245 C38 1.405 . S
C251 C159 1.394 . S
C265 C49 1.391 . S
C271 C104 1.365 . S
C285 C60 1.390 . S
C291 C115 1.407 . S
C305 C71 1.407 . S
C311 C126 1.390 . S
C325 C82 1.408 . S
C331 C93 1.384 . S
C345 C7 1.525 . S
C351 C51 1.527 . S
C365 C62 1.531 . S
C371 C18 1.535 . S
C385 C73 1.528 . S
C391 C29 1.525 . S
C405 C40 1.524 . S
C411 C84 1.523 . S
C425 C95 1.525 . S
C431 C139 1.524 . S
C445 C106 1.526 . S
C451 C150 1.524 . S
C465 C117 1.530 . S
C471 C161 1.533 . S
C485 C128 1.535 . S
C491 C172 1.538 . S
C505 C8 1.582 . S
C511 C118 1.588 . S
C525 C129 1.587 . S
C531 C19 1.581 . S
C545 C96 1.583 . S
C551 C30 1.582 . S
C565 C107 1.582 . S
C571 C41 1.588 . S
C585 C162 1.587 . S
C591 C52 1.582 . S
C605 C63 1.581 . S
C611 C173 1.587 . S
C625 C74 1.587 . S
C631 C140 1.583 . S
C645 C85 1.584 . S
C651 C151 1.582 . S
