# Generated by pormake.
# Topology smd, (6)-cn, num edge types: 1
# Building blocks:
#     Node 0, Type 0, BuildingBlock: BETDEL_clean_sbu_0, # of connection points: 6
#     Node 1, Type 0, BuildingBlock: BETDEL_clean_sbu_0, # of connection points: 6
#     Node 2, Type 0, BuildingBlock: BETDEL_clean_sbu_0, # of connection points: 6
#     Node 3, Type 0, BuildingBlock: BETDEL_clean_sbu_0, # of connection points: 6
#     Node 4, Type 0, BuildingBlock: BETDEL_clean_sbu_0, # of connection points: 6
#     Node 5, Type 0, BuildingBlock: BETDEL_clean_sbu_0, # of connection points: 6
#     Node 6, Type 0, BuildingBlock: BETDEL_clean_sbu_0, # of connection points: 6
#     Node 7, Type 0, BuildingBlock: BETDEL_clean_sbu_0, # of connection points: 6
#     Node 8, Type 0, BuildingBlock: BETDEL_clean_sbu_0, # of connection points: 6
#     Node 9, Type 0, BuildingBlock: BETDEL_clean_sbu_0, # of connection points: 6
#     Node 10, Type 0, BuildingBlock: BETDEL_clean_sbu_0, # of connection points: 6
#     Node 11, Type 0, BuildingBlock: BETDEL_clean_sbu_0, # of connection points: 6
#     Node 12, Type 0, BuildingBlock: BETDEL_clean_sbu_0, # of connection points: 6
#     Node 13, Type 0, BuildingBlock: BETDEL_clean_sbu_0, # of connection points: 6
#     Node 14, Type 0, BuildingBlock: BETDEL_clean_sbu_0, # of connection points: 6
#     Node 15, Type 0, BuildingBlock: BETDEL_clean_sbu_0, # of connection points: 6
#     Node 16, Type 0, BuildingBlock: BETDEL_clean_sbu_0, # of connection points: 6
#     Node 17, Type 0, BuildingBlock: BETDEL_clean_sbu_0, # of connection points: 6
#     Edge 18, Type (0, 0), BuildingBlock: XUDNAN_clean_linker_2, # of connection points: 2
#     Edge 19, Type (0, 0), BuildingBlock: XUDNAN_clean_linker_2, # of connection points: 2
#     Edge 20, Type (0, 0), BuildingBlock: XUDNAN_clean_linker_2, # of connection points: 2
#     Edge 21, Type (0, 0), BuildingBlock: XUDNAN_clean_linker_2, # of connection points: 2
#     Edge 22, Type (0, 0), BuildingBlock: XUDNAN_clean_linker_2, # of connection points: 2
#     Edge 23, Type (0, 0), BuildingBlock: XUDNAN_clean_linker_2, # of connection points: 2
#     Edge 24, Type (0, 0), BuildingBlock: XUDNAN_clean_linker_2, # of connection points: 2
#     Edge 25, Type (0, 0), BuildingBlock: XUDNAN_clean_linker_2, # of connection points: 2
#     Edge 26, Type (0, 0), BuildingBlock: XUDNAN_clean_linker_2, # of connection points: 2
#     Edge 27, Type (0, 0), BuildingBlock: XUDNAN_clean_linker_2, # of connection points: 2
#     Edge 28, Type (0, 0), BuildingBlock: XUDNAN_clean_linker_2, # of connection points: 2
#     Edge 29, Type (0, 0), BuildingBlock: XUDNAN_clean_linker_2, # of connection points: 2
#     Edge 30, Type (0, 0), BuildingBlock: XUDNAN_clean_linker_2, # of connection points: 2
#     Edge 31, Type (0, 0), BuildingBlock: XUDNAN_clean_linker_2, # of connection points: 2
#     Edge 32, Type (0, 0), BuildingBlock: XUDNAN_clean_linker_2, # of connection points: 2
#     Edge 33, Type (0, 0), BuildingBlock: XUDNAN_clean_linker_2, # of connection points: 2
#     Edge 34, Type (0, 0), BuildingBlock: XUDNAN_clean_linker_2, # of connection points: 2
#     Edge 35, Type (0, 0), BuildingBlock: XUDNAN_clean_linker_2, # of connection points: 2
#     Edge 36, Type (0, 0), BuildingBlock: XUDNAN_clean_linker_2, # of connection points: 2
#     Edge 37, Type (0, 0), BuildingBlock: XUDNAN_clean_linker_2, # of connection points: 2
#     Edge 38, Type (0, 0), BuildingBlock: XUDNAN_clean_linker_2, # of connection points: 2
#     Edge 39, Type (0, 0), BuildingBlock: XUDNAN_clean_linker_2, # of connection points: 2
#     Edge 40, Type (0, 0), BuildingBlock: XUDNAN_clean_linker_2, # of connection points: 2
#     Edge 41, Type (0, 0), BuildingBlock: XUDNAN_clean_linker_2, # of connection points: 2
#     Edge 42, Type (0, 0), BuildingBlock: XUDNAN_clean_linker_2, # of connection points: 2
#     Edge 43, Type (0, 0), BuildingBlock: XUDNAN_clean_linker_2, # of connection points: 2
#     Edge 44, Type (0, 0), BuildingBlock: XUDNAN_clean_linker_2, # of connection points: 2
#     Edge 45, Type (0, 0), BuildingBlock: XUDNAN_clean_linker_2, # of connection points: 2
#     Edge 46, Type (0, 0), BuildingBlock: XUDNAN_clean_linker_2, # of connection points: 2
#     Edge 47, Type (0, 0), BuildingBlock: XUDNAN_clean_linker_2, # of connection points: 2
#     Edge 48, Type (0, 0), BuildingBlock: XUDNAN_clean_linker_2, # of connection points: 2
#     Edge 49, Type (0, 0), BuildingBlock: XUDNAN_clean_linker_2, # of connection points: 2
#     Edge 50, Type (0, 0), BuildingBlock: XUDNAN_clean_linker_2, # of connection points: 2
#     Edge 51, Type (0, 0), BuildingBlock: XUDNAN_clean_linker_2, # of connection points: 2
#     Edge 52, Type (0, 0), BuildingBlock: XUDNAN_clean_linker_2, # of connection points: 2
#     Edge 53, Type (0, 0), BuildingBlock: XUDNAN_clean_linker_2, # of connection points: 2
#     Edge 54, Type (0, 0), BuildingBlock: XUDNAN_clean_linker_2, # of connection points: 2
#     Edge 55, Type (0, 0), BuildingBlock: XUDNAN_clean_linker_2, # of connection points: 2
#     Edge 56, Type (0, 0), BuildingBlock: XUDNAN_clean_linker_2, # of connection points: 2
#     Edge 57, Type (0, 0), BuildingBlock: XUDNAN_clean_linker_2, # of connection points: 2
#     Edge 58, Type (0, 0), BuildingBlock: XUDNAN_clean_linker_2, # of connection points: 2
#     Edge 59, Type (0, 0), BuildingBlock: XUDNAN_clean_linker_2, # of connection points: 2
#     Edge 60, Type (0, 0), BuildingBlock: XUDNAN_clean_linker_2, # of connection points: 2
#     Edge 61, Type (0, 0), BuildingBlock: XUDNAN_clean_linker_2, # of connection points: 2
#     Edge 62, Type (0, 0), BuildingBlock: XUDNAN_clean_linker_2, # of connection points: 2
#     Edge 63, Type (0, 0), BuildingBlock: XUDNAN_clean_linker_2, # of connection points: 2
#     Edge 64, Type (0, 0), BuildingBlock: XUDNAN_clean_linker_2, # of connection points: 2
#     Edge 65, Type (0, 0), BuildingBlock: XUDNAN_clean_linker_2, # of connection points: 2
#     Edge 66, Type (0, 0), BuildingBlock: XUDNAN_clean_linker_2, # of connection points: 2
#     Edge 67, Type (0, 0), BuildingBlock: XUDNAN_clean_linker_2, # of connection points: 2
#     Edge 68, Type (0, 0), BuildingBlock: XUDNAN_clean_linker_2, # of connection points: 2
#     Edge 69, Type (0, 0), BuildingBlock: XUDNAN_clean_linker_2, # of connection points: 2
#     Edge 70, Type (0, 0), BuildingBlock: XUDNAN_clean_linker_2, # of connection points: 2
#     Edge 71, Type (0, 0), BuildingBlock: XUDNAN_clean_linker_2, # of connection points: 2
# Relax obj value: 0.243
# Max RMSD: 0.294
# Mean RMSD: 0.266
data_MOF--net-smd--node1-BETDEL_clean_sbu_0--edge1-XUDNAN_clean_linker_2
_symmetry_space_group_name_H-M    P1
_symmetry_Int_Tables_number       1
_symmetry_cell_setting            triclinic
loop_
_symmetry_equiv_pos_as_xyz
'x, y, z'
_cell_length_a     66.75304
_cell_length_b     67.353484
_cell_length_c     18.079777
_cell_angle_alpha  92.853378
_cell_angle_beta   92.839969
_cell_angle_gamma 119.91356
loop_
_atom_site_label
_atom_site_type_symbol
_atom_site_fract_x
_atom_site_fract_y
_atom_site_fract_z
_atom_type_partial_charge
Dy0 Dy 0.02638 0.2482 0.59546 0.0
C1 C 1.0051 0.23012 0.27956 0.0
C2 C 0.02379 0.25383 0.74614 0.0
Dy3 Dy 1.01039 0.23379 0.43312 0.0
O4 O 0.03754 0.24792 0.716 0.0
O5 O 1.01229 0.25757 0.69397 0.0
O6 O 0.06133 0.25368 0.58076 0.0
O7 O 0.03276 0.22731 0.51135 0.0
C8 C 0.05486 0.23858 0.52381 0.0
C9 C 0.98604 0.24833 0.51329 0.0
O10 O 0.99372 0.19841 0.46947 0.0
O11 O 0.99528 0.2117 0.59138 0.0
O12 O 0.02215 0.23061 0.31915 0.0
O13 O 0.99069 0.23068 0.32394 0.0
O14 O 0.97641 0.23051 0.46521 0.0
O15 O 1.00765 0.2571 0.51603 0.0
O16 O 0.04773 0.28311 0.551 0.0
O17 O 0.04232 0.26775 0.42895 0.0
C18 C 0.98714 0.19467 0.53759 0.0
C19 C 0.05306 0.28511 0.48061 0.0
Dy20 Dy 0.79898 0.79351 0.47082 0.0
C21 C 0.80303 0.80925 0.78258 0.0
C22 C 0.80261 0.79243 0.32042 0.0
Dy23 Dy 0.79653 0.80456 0.63053 0.0
O24 O 0.81957 0.80038 0.37179 0.0
O25 O 0.78308 0.78437 0.35101 0.0
O26 O 0.82512 0.78372 0.50387 0.0
O27 O 0.82596 0.81152 0.56452 0.0
C28 C 0.83539 0.79914 0.55954 0.0
C29 C 0.75897 0.79565 0.54146 0.0
O30 O 0.80996 0.84032 0.59761 0.0
O31 O 0.8024 0.82885 0.47177 0.0
O32 O 0.78296 0.79898 0.74436 0.0
O33 O 0.81939 0.81738 0.73774 0.0
O34 O 0.76674 0.81049 0.59948 0.0
O35 O 0.7704 0.78547 0.53785 0.0
O36 O 0.77826 0.75719 0.50266 0.0
O37 O 0.78872 0.76775 0.62861 0.0
C38 C 0.80814 0.84477 0.52786 0.0
C39 C 0.77924 0.75172 0.57194 0.0
Dy40 Dy 0.23882 0.01446 0.59314 0.0
C41 C 0.23273 0.02017 0.28134 0.0
C42 C 0.24077 0.00837 0.74142 0.0
Dy43 Dy 0.2412 0.02141 0.43158 0.0
O44 O 0.22744 0.99268 0.68929 0.0
O45 O 0.25386 0.02748 0.71234 0.0
O46 O 0.20055 1.00083 0.57937 0.0
O47 O 0.21626 0.99356 0.49359 0.0
C48 C 0.19707 0.99042 0.5138 0.0
C49 C 0.28289 0.04279 0.51068 0.0
O50 O 0.22851 0.04537 0.46653 0.0
O51 O 0.2354 0.04608 0.59376 0.0
O52 O 0.25215 0.03454 0.31944 0.0
O53 O 0.21783 1.00713 0.32575 0.0
O54 O 0.27935 0.0341 0.44233 0.0
O55 O 0.26443 0.04127 0.53176 0.0
O56 O 0.25631 0.99453 0.55523 0.0
O57 O 0.24435 0.99016 0.43018 0.0
C58 C 0.22972 0.05397 0.53518 0.0
C59 C 0.25361 0.98496 0.48663 0.0
Dy60 Dy 0.02448 0.80238 0.58029 0.0
C61 C 1.00263 0.78652 0.26023 0.0
C62 C 0.02753 0.79988 0.73022 0.0
Dy63 Dy 1.00508 0.79237 0.41164 0.0
O64 O 0.02974 0.78679 0.68022 0.0
O65 O 0.02455 0.81532 0.69854 0.0
O66 O 0.05775 0.80404 0.5458 0.0
O67 O 0.02656 0.78415 0.48118 0.0
C68 C 0.04795 0.79156 0.48336 0.0
C69 C 0.98032 0.80667 0.48879 0.0
O70 O 0.98709 0.75635 0.4513 0.0
O71 O 0.99198 0.76845 0.5767 0.0
O72 O 0.99168 0.77003 0.30299 0.0
O73 O 0.01485 0.80593 0.30017 0.0
O74 O 0.97678 0.80093 0.41778 0.0
O75 O 0.99711 0.80449 0.51431 0.0
O76 O 0.04418 0.83814 0.54705 0.0
O77 O 0.03935 0.82636 0.42103 0.0
C78 C 0.98314 0.75189 0.52197 0.0
C79 C 0.04999 0.84235 0.47809 0.0
Dy80 Dy 0.23772 0.2361 0.40232 0.0
C81 C 0.25328 0.25474 0.71836 0.0
C82 C 0.23643 0.23398 0.25056 0.0
Dy83 Dy 0.2395 0.25044 0.57071 0.0
O84 O 0.22401 0.21667 0.28874 0.0
O85 O 0.24942 0.2522 0.29511 0.0
O86 O 0.2698 0.23363 0.43046 0.0
O87 O 0.26497 0.25784 0.49064 0.0
C88 C 0.27778 0.24922 0.48596 0.0
C89 C 0.19544 0.23286 0.51026 0.0
O90 O 0.25303 0.28458 0.52074 0.0
O91 O 0.2341 0.26728 0.40458 0.0
O92 O 0.24319 0.26525 0.68939 0.0
O93 O 0.25688 0.2433 0.66595 0.0
O94 O 0.20247 0.24136 0.57883 0.0
O95 O 0.21265 0.23449 0.4785 0.0
O96 O 0.22155 0.201 0.44139 0.0
O97 O 0.2337 0.21425 0.56556 0.0
C98 C 0.24561 0.28578 0.4521 0.0
C99 C 0.22518 0.19749 0.51092 0.0
Dy100 Dy 0.79358 0.02149 0.61818 0.0
C101 C 0.79208 0.02832 0.31173 0.0
C102 C 0.79086 0.0176 0.76778 0.0
Dy103 Dy 0.80004 0.03385 0.46304 0.0
O104 O 0.77687 1.00223 0.71592 0.0
O105 O 0.80675 0.03522 0.73813 0.0
O106 O 0.75785 0.991 0.57421 0.0
O107 O 0.77107 0.02201 0.52805 0.0
C108 C 0.75438 1.00195 0.5229 0.0
C109 C 0.83894 0.05949 0.55021 0.0
O110 O 0.78743 0.0577 0.5058 0.0
O111 O 0.79621 0.05602 0.62995 0.0
O112 O 0.80897 0.04656 0.3489 0.0
O113 O 0.7798 0.0135 0.35713 0.0
O114 O 0.83249 0.06633 0.49255 0.0
O115 O 0.82524 0.03799 0.55545 0.0
O116 O 0.8072 0.99847 0.58724 0.0
O117 O 0.80223 1.0009 0.4616 0.0
C118 C 0.79087 0.06581 0.57682 0.0
C119 C 0.80624 0.99091 0.51779 0.0
Dy120 Dy 0.67112 0.55912 0.71659 0.0
C121 C 0.69211 0.56847 0.03269 0.0
C122 C 0.6759 0.56761 0.57028 0.0
Dy123 Dy 0.68767 0.5663 0.88049 0.0
O124 O 0.65742 0.55097 0.59482 0.0
O125 O 0.69118 0.57936 0.62538 0.0
O126 O 0.63847 0.52705 0.72756 0.0
O127 O 0.66819 0.53541 0.80082 0.0
C128 C 0.64629 0.52207 0.78704 0.0
C129 C 0.70666 0.60431 0.80273 0.0
O130 O 0.70971 0.55236 0.84326 0.0
O131 O 0.70288 0.5549 0.7181 0.0
O132 O 0.70674 0.58345 0.99186 0.0
O133 O 0.67518 0.55187 0.9903 0.0
O134 O 0.71813 0.60114 0.85632 0.0
O135 O 0.68613 0.5881 0.7978 0.0
O136 O 0.64925 0.573 0.76467 0.0
O137 O 0.65335 0.56405 0.88462 0.0
C138 C 0.71456 0.55172 0.77353 0.0
C139 C 0.64267 0.56967 0.83361 0.0
Dy140 Dy 0.47386 0.13188 0.7774 0.0
C141 C 0.47116 0.14331 0.09365 0.0
C142 C 0.47205 0.12243 0.62758 0.0
Dy143 Dy 0.46684 0.1394 0.94147 0.0
O144 O 0.48664 0.122 0.67705 0.0
O145 O 0.45788 0.12722 0.66036 0.0
O146 O 0.51064 0.1605 0.79658 0.0
O147 O 0.49549 0.14012 0.88244 0.0
C148 C 0.51414 0.15687 0.8645 0.0
C149 C 0.42863 0.12212 0.84293 0.0
O150 O 0.48128 0.17477 0.90643 0.0
O151 O 0.46969 0.16342 0.78148 0.0
O152 O 0.45198 0.12989 0.0526 0.0
O153 O 0.48757 0.15509 0.05149 0.0
O154 O 0.4315 0.1354 0.90221 0.0
O155 O 0.44505 0.11818 0.84423 0.0
O156 O 0.46517 0.09703 0.81728 0.0
O157 O 0.46761 0.10696 0.94449 0.0
C158 C 0.47738 0.17927 0.83872 0.0
C159 C 0.46539 0.09247 0.88839 0.0
Dy160 Dy 0.92055 0.36331 0.75486 0.0
C161 C 0.91142 0.3593 0.06611 0.0
C162 C 0.9191 0.36636 0.60664 0.0
Dy163 Dy 0.91458 0.35296 0.9195 0.0
O164 O 0.91101 0.37513 0.65359 0.0
O165 O 0.92797 0.35549 0.64022 0.0
O166 O 0.93341 0.39976 0.79063 0.0
O167 O 0.90682 0.3744 0.84722 0.0
C168 C 0.91997 0.39597 0.8439 0.0
C169 C 0.92699 0.32491 0.84565 0.0
O170 O 0.8776 0.33298 0.87761 0.0
O171 O 0.88343 0.3335 0.75174 0.0
O172 O 0.90541 0.33954 0.03127 0.0
O173 O 0.91901 0.37543 0.0211 0.0
O174 O 0.92268 0.32352 0.91516 0.0
O175 O 0.92399 0.34058 0.82338 0.0
O176 O 0.95795 0.37854 0.79911 0.0
O177 O 0.95139 0.38096 0.92367 0.0
C178 C 0.86982 0.32565 0.80734 0.0
C179 C 0.96546 0.38643 0.86986 0.0
Dy180 Dy 0.69553 0.1495 0.93705 0.0
C181 C 0.67303 0.12394 0.61705 0.0
C182 C 0.69364 0.15356 0.0885 0.0
Dy183 Dy 0.67871 0.13431 0.76826 0.0
O184 O 0.70561 0.14592 0.05518 0.0
O185 O 0.68374 0.16006 0.03909 0.0
O186 O 0.73156 0.15698 0.91304 0.0
O187 O 0.70243 0.13153 0.84714 0.0
C188 C 0.72424 0.14251 0.85385 0.0
C189 C 0.65768 0.15405 0.84203 0.0
O190 O 0.66242 0.099 0.81318 0.0
O191 O 0.67196 0.11196 0.9395 0.0
O192 O 0.65631 0.11914 0.65995 0.0
O193 O 0.69267 0.13319 0.65771 0.0
O194 O 0.66175 0.156 0.77268 0.0
O195 O 0.664 0.14067 0.86671 0.0
O196 O 0.71171 0.1839 0.89075 0.0
O197 O 0.71016 0.16951 0.76972 0.0
C198 C 0.66185 0.09527 0.88523 0.0
C199 C 0.71832 0.18685 0.82212 0.0
Dy200 Dy 0.91124 0.577 0.87943 0.0
C201 C 0.91081 0.56095 0.56039 0.0
C202 C 0.90224 0.57393 0.02462 0.0
Dy203 Dy 0.91335 0.56365 0.71093 0.0
O204 O 0.91995 0.59122 0.99952 0.0
O205 O 0.88946 0.55872 0.97039 0.0
O206 O 0.93148 0.61486 0.85867 0.0
O207 O 0.91044 0.59033 0.77267 0.0
C208 C 0.9253 0.6112 0.78758 0.0
C209 C 0.90707 0.52888 0.79309 0.0
O210 O 0.95118 0.58179 0.7571 0.0
O211 O 0.9437 0.57539 0.88097 0.0
O212 O 0.89657 0.54533 0.60042 0.0
O213 O 0.92725 0.57828 0.60278 0.0
O214 O 0.9097 0.52881 0.72248 0.0
O215 O 0.90848 0.54772 0.81433 0.0
O216 O 0.87425 0.56395 0.83948 0.0
O217 O 0.87671 0.55754 0.71314 0.0
C218 C 0.95793 0.5813 0.82743 0.0
C219 C 0.86482 0.55776 0.76997 0.0
Dy220 Dy 0.45879 0.34847 0.91963 0.0
C221 C 0.44862 0.35088 0.60826 0.0
C222 C 0.45685 0.34389 0.06899 0.0
Dy223 Dy 0.4615 0.35863 0.75689 0.0
O224 O 0.4473 0.32721 0.01695 0.0
O225 O 0.46809 0.36334 0.03971 0.0
O226 O 0.42798 0.31379 0.87891 0.0
O227 O 0.43328 0.34277 0.82732 0.0
C228 C 0.42041 0.32139 0.82664 0.0
C229 C 0.50478 0.38454 0.82235 0.0
O230 O 0.45009 0.38321 0.80068 0.0
O231 O 0.45355 0.37865 0.92703 0.0
O232 O 0.46137 0.37112 0.6436 0.0
O233 O 0.44265 0.33507 0.65436 0.0
O234 O 0.49899 0.38434 0.75263 0.0
O235 O 0.48704 0.37074 0.85393 0.0
O236 O 0.48129 0.33482 0.88541 0.0
O237 O 0.46666 0.3277 0.76263 0.0
C238 C 0.44992 0.38902 0.87206 0.0
C239 C 0.47754 0.32394 0.81901 0.0
Dy240 Dy 0.36358 0.91643 0.26206 0.0
C241 C 0.341 0.90217 0.94255 0.0
C242 C 0.3624 0.92568 0.41078 0.0
Dy243 Dy 0.34538 0.90324 0.09506 0.0
O244 O 0.37997 0.92583 0.38143 0.0
O245 O 0.34652 0.92171 0.35849 0.0
O246 O 0.37793 0.89272 0.25628 0.0
O247 O 0.37649 0.90866 0.16164 0.0
C248 C 0.38173 0.89443 0.18634 0.0
C249 C 0.32003 0.91299 0.18601 0.0
O250 O 0.32955 0.86806 0.13406 0.0
O251 O 0.33142 0.88128 0.25647 0.0
O252 O 0.33062 0.90864 0.9885 0.0
O253 O 0.35325 0.89525 0.9798 0.0
O254 O 0.31075 0.89709 0.13101 0.0
O255 O 0.34172 0.92289 0.18719 0.0
O256 O 0.38745 0.95094 0.21895 0.0
O257 O 0.37296 0.93978 0.09412 0.0
C258 C 0.32297 0.86437 0.2024 0.0
C259 C 0.38724 0.95533 0.14765 0.0
Dy260 Dy 0.15244 0.4676 0.12503 0.0
C261 C 0.1553 0.48468 0.43785 0.0
C262 C 0.15201 0.46315 0.97301 0.0
Dy263 Dy 0.14739 0.48047 0.28629 0.0
O264 O 0.16513 0.45988 0.02031 0.0
O265 O 0.13862 0.46834 1.00867 0.0
O266 O 0.18248 0.46422 0.16109 0.0
O267 O 0.17734 0.489 0.2201 0.0
C268 C 0.18922 0.47896 0.21864 0.0
C269 C 0.1095 0.46396 0.18843 0.0
O270 O 0.16215 0.51547 0.24876 0.0
O271 O 0.15654 0.50337 0.12264 0.0
O272 O 0.13708 0.48333 0.40261 0.0
O273 O 0.16917 0.4846 0.39027 0.0
O274 O 0.11326 0.4786 0.24489 0.0
O275 O 0.12453 0.45816 0.19312 0.0
O276 O 0.13426 0.43184 0.16698 0.0
O277 O 0.14092 0.44467 0.29245 0.0
C278 C 0.16151 0.51938 0.17798 0.0
C279 C 0.13431 0.42799 0.23885 0.0
Dy280 Dy 0.58468 0.68999 0.24829 0.0
C281 C 0.57908 0.69767 0.93142 0.0
C282 C 0.59589 0.69019 0.39601 0.0
Dy283 Dy 0.58446 0.70193 0.08363 0.0
O284 O 0.58743 0.67251 0.34737 0.0
O285 O 0.59913 0.70822 0.36327 0.0
O286 O 0.54745 0.66452 0.25535 0.0
O287 O 0.55835 0.6789 0.1547 0.0
C288 C 0.54104 0.66451 0.18658 0.0
C289 C 0.6233 0.72917 0.17378 0.0
O290 O 0.56514 0.71786 0.12835 0.0
O291 O 0.57934 0.72082 0.2511 0.0
O292 O 0.59366 0.71644 0.97186 0.0
O293 O 0.56686 0.68183 0.97435 0.0
O294 O 0.61573 0.73678 0.12092 0.0
O295 O 0.61074 0.70772 0.17244 0.0
O296 O 0.59595 0.66642 0.19392 0.0
O297 O 0.59359 0.67471 0.07127 0.0
C298 C 0.56918 0.72675 0.19807 0.0
C299 C 0.59724 0.66308 0.12147 0.0
Dy300 Dy 0.37201 0.48243 0.27129 0.0
C301 C 0.34738 0.4663 0.95376 0.0
C302 C 0.37167 0.48819 0.42265 0.0
Dy303 Dy 0.35278 0.46897 0.10628 0.0
O304 O 0.36281 0.49562 0.37317 0.0
O305 O 0.38175 0.47838 0.38947 0.0
O306 O 0.40577 0.48537 0.24084 0.0
O307 O 0.37436 0.46169 0.17966 0.0
C308 C 0.39606 0.47059 0.18259 0.0
C309 C 0.32738 0.47857 0.19506 0.0
O310 O 0.33373 0.43355 0.1465 0.0
O311 O 0.34207 0.44651 0.27236 0.0
O312 O 0.33819 0.47425 0.99952 0.0
O313 O 0.35907 0.45883 0.9914 0.0
O314 O 0.31866 0.46322 0.13858 0.0
O315 O 0.34934 0.4893 0.19828 0.0
O316 O 0.39263 0.51725 0.23161 0.0
O317 O 0.38491 0.50418 0.10625 0.0
C318 C 0.3309 0.42992 0.21803 0.0
C319 C 0.39652 0.5207 0.1609 0.0
Dy320 Dy 0.57096 0.90824 0.09654 0.0
C321 C 0.57387 0.92756 0.41428 0.0
C322 C 0.56241 0.90006 0.94468 0.0
Dy323 Dy 0.57067 0.91786 0.26329 0.0
O324 O 0.582 0.90588 0.98161 0.0
O325 O 0.54722 0.89749 0.99119 0.0
O326 O 0.6095 0.93247 0.10546 0.0
O327 O 0.59427 0.91343 0.19528 0.0
C328 C 0.61297 0.92887 0.17357 0.0
C329 C 0.52863 0.89819 0.18537 0.0
O330 O 0.58977 0.95363 0.22331 0.0
O331 O 0.57342 0.94243 0.10215 0.0
O332 O 0.56071 0.93026 0.36533 0.0
O333 O 0.58632 0.92069 0.38023 0.0
O334 O 0.53231 0.89346 0.25147 0.0
O335 O 0.54762 0.91365 0.165 0.0
O336 O 0.5585 0.87271 0.13327 0.0
O337 O 0.56752 0.88322 0.26029 0.0
C338 C 0.58572 0.95869 0.15597 0.0
C339 C 0.56075 0.86775 0.20242 0.0
Dy340 Dy 0.1349 0.68406 0.24963 0.0
C341 C 0.13346 0.70029 0.94109 0.0
C342 C 0.1395 0.68676 0.40125 0.0
Dy343 Dy 0.13732 0.69397 0.08781 0.0
O344 O 0.11984 0.6762 0.36066 0.0
O345 O 0.15654 0.69526 0.35895 0.0
O346 O 0.10626 0.64753 0.21191 0.0
O347 O 0.10939 0.67502 0.15519 0.0
C348 C 0.09833 0.65359 0.15543 0.0
C349 C 0.17893 0.71626 0.16769 0.0
O350 O 0.12183 0.71536 0.1304 0.0
O351 O 0.12587 0.71162 0.25666 0.0
O352 O 0.14622 0.71637 0.99327 0.0
O353 O 0.12211 0.68064 0.96942 0.0
O354 O 0.17549 0.7076 0.09958 0.0
O355 O 0.1598 0.71278 0.18949 0.0
O356 O 0.15529 0.66829 0.21135 0.0
O357 O 0.14054 0.66183 0.08855 0.0
C358 C 0.12044 0.72064 0.20139 0.0
C359 C 0.15141 0.65774 0.14425 0.0
H360 H 0.10562 0.41134 0.34873 0.0
H361 H 0.13989 0.392 0.18647 0.0
H362 H 0.12604 0.35473 0.24197 0.0
H363 H 0.11646 0.38612 0.50406 0.0
H364 H 0.08843 0.37641 0.53844 0.0
H365 H 0.10125 0.4015 0.48695 0.0
H366 H 0.06486 0.38325 0.39274 0.0
H367 H 0.05175 0.35836 0.44489 0.0
H368 H 0.05477 0.35505 0.34721 0.0
H369 H 0.10949 0.32043 0.31835 0.0
H370 H 0.08582 0.28849 0.39325 0.0
H371 H 0.0607 0.32951 0.50303 0.0
C372 C 0.11013 0.39918 0.32459 0.0
C373 C 0.12391 0.40449 0.26346 0.0
C374 C 0.12923 0.38814 0.23284 0.0
C375 C 0.12165 0.36712 0.26463 0.0
C376 C 0.1086 0.36272 0.32627 0.0
C377 C 0.10244 0.37811 0.3548 0.0
C378 C 0.0872 0.36883 0.4186 0.0
C379 C 0.09905 0.38413 0.49131 0.0
C380 C 0.06322 0.36621 0.3997 0.0
C381 C 0.08562 0.34564 0.42181 0.0
C382 C 0.09846 0.34271 0.36884 0.0
C383 C 0.09938 0.32257 0.35971 0.0
C384 C 0.08599 0.30458 0.40295 0.0
C385 C 0.0716 0.30661 0.45443 0.0
C386 C 0.07196 0.32769 0.46559 0.0
H387 H 0.7292 0.75436 0.46422 0.0
H388 H 0.74282 0.82418 0.50279 0.0
H389 H 0.70963 0.81507 0.41198 0.0
H390 H 0.71177 0.74553 0.27067 0.0
H391 H 0.68893 0.71617 0.27359 0.0
H392 H 0.71378 0.72832 0.34073 0.0
H393 H 0.68681 0.71785 0.44806 0.0
H394 H 0.66185 0.70555 0.38126 0.0
H395 H 0.66621 0.72772 0.45097 0.0
H396 H 0.67615 0.79853 0.31021 0.0
H397 H 0.64287 0.77504 0.21665 0.0
H398 H 0.64915 0.71524 0.25406 0.0
C399 C 0.72513 0.76769 0.45357 0.0
C400 C 0.73857 0.79002 0.49 0.0
C401 C 0.73263 0.80697 0.47547 0.0
C402 C 0.71389 0.80195 0.42385 0.0
C403 C 0.70099 0.77976 0.38853 0.0
C404 C 0.70613 0.76279 0.40385 0.0
C405 C 0.68911 0.74011 0.36056 0.0
C406 C 0.70165 0.73207 0.30828 0.0
C407 C 0.67517 0.72173 0.41338 0.0
C408 C 0.67383 0.747 0.31732 0.0
C409 C 0.68107 0.76999 0.33356 0.0
C410 C 0.67019 0.78045 0.29782 0.0
C411 C 0.65138 0.76704 0.24461 0.0
C412 C 0.64341 0.74337 0.2286 0.0
C413 C 0.65476 0.73328 0.26579 0.0
H414 H 0.29676 0.99615 0.45113 0.0
H415 H 0.22837 0.93839 0.47107 0.0
H416 H 0.23918 0.91244 0.4049 0.0
H417 H 0.30078 0.98071 0.27105 0.0
H418 H 0.33137 0.99036 0.28029 0.0
H419 H 0.31979 1.0035 0.34049 0.0
H420 H 0.33742 0.99449 0.45353 0.0
H421 H 0.34847 0.97998 0.39661 0.0
H422 H 0.32951 0.96532 0.46734 0.0
H423 H 0.25517 0.89432 0.31774 0.0
H424 H 0.27644 0.8847 0.22733 0.0
H425 H 0.33492 0.95407 0.26643 0.0
C426 C 0.28456 0.97784 0.44493 0.0
C427 C 0.26207 0.96901 0.46873 0.0
C428 C 0.24596 0.94522 0.45573 0.0
C429 C 0.25191 0.93044 0.41759 0.0
C430 C 0.27403 0.93979 0.39252 0.0
C431 C 0.29025 0.96292 0.40666 0.0
C432 C 0.31199 0.96909 0.36776 0.0
C433 C 0.31621 0.98696 0.31158 0.0
C434 C 0.33311 0.9777 0.42463 0.0
C435 C 0.30535 0.94593 0.32844 0.0
C436 C 0.28334 0.92926 0.34311 0.0
C437 C 0.27261 0.90711 0.30722 0.0
C438 C 0.28469 0.90183 0.2555 0.0
C439 C 0.30733 0.91856 0.24056 0.0
C440 C 0.31777 0.94082 0.27793 0.0
H441 H 0.29832 0.07095 0.64448 0.0
H442 H 0.31938 0.03855 0.47588 0.0
H443 H 0.3578 0.05518 0.54372 0.0
H444 H 0.35394 0.12419 0.67272 0.0
H445 H 0.35312 0.12806 0.77168 0.0
H446 H 0.32646 0.11296 0.71234 0.0
H447 H 0.31238 0.07777 0.78979 0.0
H448 H 0.33896 0.0928 0.84953 0.0
H449 H 0.3303 0.065 0.80353 0.0
H450 H 0.39295 0.07348 0.6283 0.0
H451 H 0.42513 0.09492 0.72361 0.0
H452 H 0.38508 0.11975 0.83771 0.0
C453 C 0.31106 0.06736 0.62231 0.0
C454 C 0.30574 0.05326 0.55487 0.0
C455 C 0.32292 0.04914 0.5273 0.0
C456 C 0.34486 0.05854 0.56551 0.0
C457 C 0.34966 0.07238 0.6312 0.0
C458 C 0.33347 0.07704 0.65955 0.0
C459 C 0.34391 0.09317 0.73066 0.0
C460 C 0.34438 0.11595 0.72127 0.0
C461 C 0.33059 0.08149 0.79733 0.0
C462 C 0.36841 0.09673 0.73734 0.0
C463 C 0.37098 0.08426 0.67928 0.0
C464 C 0.39132 0.08365 0.67333 0.0
C465 C 0.40967 0.09615 0.72775 0.0
C466 C 0.40812 0.10974 0.78717 0.0
C467 C 0.38705 0.10996 0.7922 0.0
H468 H 0.95627 0.33602 0.73303 0.0
H469 H 0.91099 0.27945 0.8576 0.0
H470 H 0.91993 0.2534 0.78311 0.0
H471 H 0.9454 0.3042 0.55406 0.0
H472 H 0.97521 0.31973 0.53241 0.0
H473 H 0.96405 0.33353 0.59191 0.0
H474 H 0.99672 0.34284 0.69464 0.0
H475 H 1.00799 0.32912 0.6353 0.0
H476 H 1.00045 0.31988 0.72678 0.0
H477 H 0.93239 0.23298 0.68989 0.0
H478 H 0.95155 0.22106 0.5979 0.0
H479 H 0.99283 0.29167 0.54526 0.0
C480 C 0.94813 0.31809 0.74402 0.0
C481 C 0.93263 0.30961 0.80032 0.0
C482 C 0.92277 0.28622 0.81445 0.0
C483 C 0.92771 0.2713 0.77224 0.0
C484 C 0.94305 0.28013 0.71712 0.0
C485 C 0.95349 0.3031 0.70394 0.0
C486 C 0.97061 0.30853 0.64509 0.0
C487 C 0.96338 0.31699 0.57683 0.0
C488 C 0.99541 0.32614 0.6774 0.0
C489 C 0.96802 0.28502 0.62683 0.0
C490 C 0.95166 0.26878 0.66794 0.0
C491 C 0.94542 0.24563 0.65814 0.0
C492 C 0.9563 0.23896 0.60563 0.0
C493 C 0.97373 0.25543 0.56509 0.0
C494 C 0.97969 0.27877 0.57614 0.0
H495 H 0.79066 0.73222 0.68509 0.0
H496 H 0.73986 0.71612 0.49919 0.0
H497 H 0.71637 0.67674 0.53752 0.0
H498 H 0.78597 0.67486 0.67363 0.0
H499 H 0.79004 0.67512 0.77306 0.0
H500 H 0.80325 0.70176 0.72949 0.0
H501 H 0.78315 0.71718 0.81499 0.0
H502 H 0.76968 0.69052 0.85824 0.0
H503 H 0.75206 0.70104 0.81662 0.0
H504 H 0.6959 0.64133 0.60621 0.0
H505 H 0.68273 0.60948 0.68662 0.0
H506 H 0.74879 0.64564 0.81962 0.0
C507 C 0.77478 0.72024 0.65176 0.0
C508 C 0.76709 0.72724 0.58892 0.0
C509 C 0.74622 0.7111 0.54686 0.0
C510 C 0.73268 0.68874 0.5686 0.0
C511 C 0.74049 0.68254 0.63162 0.0
C512 C 0.76135 0.6976 0.67154 0.0
C513 C 0.76582 0.68637 0.73652 0.0
C514 C 0.78756 0.68441 0.72762 0.0
C515 C 0.76779 0.69957 0.81099 0.0
C516 C 0.74395 0.66283 0.72795 0.0
C517 C 0.72948 0.66122 0.66762 0.0
C518 C 0.70743 0.64211 0.65197 0.0
C519 C 0.70013 0.62399 0.69797 0.0
C520 C 0.71506 0.6245 0.75756 0.0
C521 C 0.73724 0.64438 0.77309 0.0
H522 H 0.98633 0.73865 0.65989 0.0
H523 H 0.95353 0.71066 0.43701 0.0
H524 H 0.935 0.67129 0.48015 0.0
H525 H 0.99881 0.69359 0.69678 0.0
H526 H 0.99433 0.69505 0.79395 0.0
H527 H 1.00434 0.72027 0.74368 0.0
H528 H 0.96961 0.72438 0.78388 0.0
H529 H 0.95949 0.69891 0.83292 0.0
H530 H 0.94048 0.70063 0.76244 0.0
H531 H 0.91944 0.63473 0.55165 0.0
H532 H 0.90956 0.60511 0.64081 0.0
H533 H 0.95455 0.65791 0.81403 0.0
C534 C 0.97506 0.72437 0.61974 0.0
C535 C 0.97109 0.7279 0.54494 0.0
C536 C 0.95668 0.70849 0.49456 0.0
C537 C 0.94612 0.68608 0.51872 0.0
C538 C 0.95045 0.68337 0.59311 0.0
C539 C 0.9648 0.70209 0.64249 0.0
C540 C 0.96744 0.6949 0.71889 0.0
C541 C 0.99272 0.70134 0.73952 0.0
C542 C 0.95873 0.70532 0.77799 0.0
C543 C 0.95185 0.6691 0.70591 0.0
C544 C 0.94223 0.66269 0.63301 0.0
C545 C 0.92706 0.63967 0.6085 0.0
C546 C 0.92164 0.62292 0.65955 0.0
C547 C 0.9315 0.62914 0.73425 0.0
C548 C 0.94682 0.65258 0.75732 0.0
H549 H 0.30655 0.29102 0.56425 0.0
H550 H 0.29685 0.22285 0.51845 0.0
H551 H 0.33215 0.2338 0.60099 0.0
H552 H 0.36921 0.32093 0.56244 0.0
H553 H 0.37409 0.34259 0.63498 0.0
H554 H 0.34757 0.3291 0.57487 0.0
H555 H 0.32373 0.3171 0.6898 0.0
H556 H 0.35017 0.33053 0.75023 0.0
H557 H 0.329 0.30067 0.75578 0.0
H558 H 0.3676 0.25174 0.69312 0.0
H559 H 0.40243 0.27627 0.77961 0.0
H560 H 0.39152 0.33402 0.75629 0.0
C561 C 0.31186 0.27842 0.57198 0.0
C562 C 0.29893 0.25602 0.53552 0.0
C563 C 0.30654 0.24008 0.54594 0.0
C564 C 0.32653 0.24614 0.59281 0.0
C565 C 0.339 0.26839 0.62773 0.0
C566 C 0.33216 0.2844 0.61708 0.0
C567 C 0.34923 0.30743 0.65871 0.0
C568 C 0.3607 0.32611 0.6045 0.0
C569 C 0.33732 0.31433 0.7171 0.0
C570 C 0.36659 0.30181 0.69515 0.0
C571 C 0.36019 0.27911 0.67722 0.0
C572 C 0.37289 0.2696 0.70686 0.0
C573 C 0.3926 0.28362 0.75604 0.0
C574 C 0.39972 0.30701 0.77402 0.0
C575 C 0.38661 0.31624 0.74264 0.0
H576 H 0.71004 0.10901 0.73866 0.0
H577 H 0.77161 0.16384 0.86441 0.0
H578 H 0.79605 0.15338 0.79224 0.0
H579 H 0.72759 0.06838 0.73226 0.0
H580 H 0.71508 0.05614 0.63909 0.0
H581 H 0.70286 0.06975 0.69421 0.0
H582 H 0.7081 0.09678 0.59078 0.0
H583 H 0.72055 0.08338 0.53531 0.0
H584 H 0.73637 0.11404 0.55827 0.0
H585 H 0.81324 0.13393 0.71828 0.0
H586 H 0.82184 0.10678 0.64938 0.0
H587 H 0.74956 0.06532 0.56697 0.0
C588 C 0.72871 0.11912 0.74988 0.0
C589 C 0.73898 0.13733 0.80699 0.0
C590 C 0.76341 0.14989 0.82085 0.0
C591 C 0.77742 0.14412 0.77986 0.0
C592 C 0.76676 0.12589 0.72453 0.0
C593 C 0.74295 0.11366 0.70914 0.0
C594 C 0.73572 0.0938 0.65052 0.0
C595 C 0.71935 0.07066 0.68086 0.0
C596 C 0.72452 0.09721 0.57951 0.0
C597 C 0.75909 0.09616 0.63754 0.0
C598 C 0.7768 0.11501 0.68013 0.0
C599 C 0.79963 0.11952 0.68328 0.0
C600 C 0.80439 0.10408 0.64374 0.0
C601 C 0.78652 0.08449 0.60095 0.0
C602 C 0.76368 0.08076 0.59658 0.0
H603 H 0.62747 0.91872 0.30609 0.0
H604 H 0.6493 0.96931 0.14353 0.0
H605 H 0.68652 0.99325 0.21825 0.0
H606 H 0.65563 0.95826 0.47119 0.0
H607 H 0.66489 0.94048 0.51572 0.0
H608 H 0.63912 0.92746 0.45213 0.0
H609 H 0.65598 0.90693 0.37378 0.0
H610 H 0.68178 0.91984 0.43716 0.0
H611 H 0.68407 0.92367 0.33935 0.0
H612 H 0.71986 0.01278 0.31147 0.0
H613 H 0.75097 0.02521 0.41068 0.0
H614 H 0.71166 0.96053 0.5091 0.0
C615 C 0.64012 0.93489 0.28668 0.0
C616 C 0.63536 0.94238 0.21951 0.0
C617 C 0.65246 0.96336 0.19504 0.0
C618 C 0.67365 0.97711 0.23719 0.0
C619 C 0.67783 0.96941 0.30307 0.0
C620 C 0.66184 0.94864 0.32736 0.0
C621 C 0.67165 0.94412 0.39844 0.0
C622 C 0.65695 0.94249 0.4632 0.0
C623 C 0.67348 0.92234 0.38644 0.0
C624 C 0.69558 0.96565 0.41001 0.0
C625 C 0.69835 0.98006 0.3547 0.0
C626 C 0.71814 1.00147 0.35421 0.0
C627 C 0.73582 0.00832 0.41095 0.0
C628 C 0.73423 0.99358 0.46651 0.0
C629 C 0.71365 0.97195 0.46645 0.0
H630 H 0.08773 0.78846 0.49993 0.0
H631 H 0.03264 0.77802 0.33879 0.0
H632 H 0.04841 0.76377 0.24269 0.0
H633 H 0.13393 0.80367 0.37028 0.0
H634 H 0.1451 0.7875 0.41554 0.0
H635 H 0.13166 0.80039 0.46839 0.0
H636 H 0.10295 0.76066 0.51247 0.0
H637 H 0.11635 0.74773 0.46007 0.0
H638 H 0.0856 0.73677 0.44433 0.0
H639 H 0.06866 0.74781 0.16602 0.0
H640 H 0.08919 0.72811 0.1198 0.0
H641 H 0.12975 0.74664 0.33263 0.0
C642 C 0.07941 0.78374 0.44387 0.0
C643 C 0.05915 0.78483 0.42606 0.0
C644 C 0.0483 0.77769 0.35293 0.0
C645 C 0.05721 0.76959 0.29799 0.0
C646 C 0.07699 0.76837 0.31722 0.0
C647 C 0.08787 0.77505 0.38864 0.0
C648 C 0.10724 0.76951 0.39694 0.0
C649 C 0.13088 0.79159 0.41377 0.0
C650 C 0.10275 0.75267 0.45698 0.0
C651 C 0.10517 0.75827 0.31982 0.0
C652 C 0.08797 0.75822 0.27406 0.0
C653 C 0.08233 0.74794 0.20118 0.0
C654 C 0.09415 0.73689 0.17513 0.0
C655 C 0.11109 0.73587 0.22235 0.0
C656 C 0.11693 0.74719 0.29496 0.0
H657 H 0.3358 0.41125 0.34325 0.0
H658 H 0.2894 0.39669 0.14593 0.0
H659 H 0.26069 0.36003 0.19332 0.0
H660 H 0.32343 0.3529 0.35446 0.0
H661 H 0.32598 0.35517 0.45465 0.0
H662 H 0.34216 0.38035 0.40579 0.0
H663 H 0.32403 0.40074 0.47839 0.0
H664 H 0.3074 0.37542 0.52633 0.0
H665 H 0.29291 0.38759 0.47493 0.0
H666 H 0.23684 0.32579 0.26399 0.0
H667 H 0.222 0.29283 0.34007 0.0
H668 H 0.28482 0.32844 0.48942 0.0
C669 C 0.31959 0.40029 0.30987 0.0
C670 C 0.31471 0.4068 0.24094 0.0
C671 C 0.29351 0.39194 0.19849 0.0
C672 C 0.27704 0.37124 0.22545 0.0
C673 C 0.28222 0.36561 0.29446 0.0
C674 C 0.3032 0.37946 0.33533 0.0
C675 C 0.3051 0.36878 0.40555 0.0
C676 C 0.32536 0.36401 0.40504 0.0
C677 C 0.3075 0.38405 0.47542 0.0
C678 C 0.28185 0.34662 0.39789 0.0
C679 C 0.26881 0.34542 0.33403 0.0
C680 C 0.24694 0.32653 0.31384 0.0
C681 C 0.23862 0.30791 0.3578 0.0
C682 C 0.25221 0.30802 0.42092 0.0
C683 C 0.27383 0.32799 0.44249 0.0
H684 H 0.98472 0.42123 0.97993 0.0
H685 H 1.00198 0.38448 0.81493 0.0
H686 H 0.04233 0.404 0.87306 0.0
H687 H 0.0432 0.47616 0.99755 0.0
H688 H 0.04173 0.48057 0.09583 0.0
H689 H 0.0155 0.46664 0.03416 0.0
H690 H 0.99874 0.43191 0.11413 0.0
H691 H 0.02498 0.44544 0.17519 0.0
H692 H 0.01463 0.41714 0.13022 0.0
H693 H 0.07666 0.41996 0.96388 0.0
H694 H 0.10613 0.43663 0.06903 0.0
H695 H 0.06948 0.46741 0.17112 0.0
C696 C 0.99724 0.41788 0.95469 0.0
C697 C 0.99039 0.40141 0.89287 0.0
C698 C 1.00703 0.39725 0.86153 0.0
C699 C 0.0299 0.40818 0.89449 0.0
C700 C 0.03582 0.42357 0.95741 0.0
C701 C 0.02019 0.42895 0.98607 0.0
C702 C 0.03062 0.44502 0.05684 0.0
C703 C 0.0329 0.4685 0.04539 0.0
C704 C 0.01639 0.43422 0.12296 0.0
C705 C 0.05423 0.4469 0.06581 0.0
C706 C 0.0567 0.43432 1.00761 0.0
C707 C 0.07542 0.43073 1.00775 0.0
C708 C 0.0922 0.44045 0.068 0.0
C709 C 0.09085 0.4544 0.12671 0.0
C710 C 0.07149 0.45763 0.12567 0.0
H711 H 0.64178 0.60923 0.8152 0.0
H712 H 0.60923 0.54604 0.92419 0.0
H713 H 0.59333 0.56291 0.01132 0.0
H714 H 0.66084 0.64563 0.96982 0.0
H715 H 0.65544 0.66741 0.93614 0.0
H716 H 0.66027 0.6493 0.87176 0.0
H717 H 0.62094 0.63615 0.79688 0.0
H718 H 0.61638 0.65497 0.85922 0.0
H719 H 0.59483 0.6249 0.84451 0.0
H720 H 0.58711 0.5891 0.10076 0.0
H721 H 0.58442 0.62045 0.1697 0.0
H722 H 0.62121 0.66616 1.00216 0.0
C723 C 0.63014 0.59854 0.85446 0.0
C724 C 0.62635 0.57624 0.86232 0.0
C725 C 0.61194 0.56305 0.91668 0.0
C726 C 0.60304 0.57257 0.96691 0.0
C727 C 0.60852 0.59523 0.9615 0.0
C728 C 0.62109 0.60783 0.90515 0.0
C729 C 0.62594 0.63233 0.91489 0.0
C730 C 0.65218 0.64967 0.92368 0.0
C731 C 0.6138 0.63738 0.85005 0.0
C732 C 0.61495 0.63171 0.98665 0.0
C733 C 0.60495 0.61022 0.01289 0.0
C734 C 0.59455 0.60593 0.08006 0.0
C735 C 0.59342 0.62387 0.11954 0.0
C736 C 0.60261 0.64565 0.09134 0.0
C737 C 0.61394 0.64961 0.025 0.0
H738 H 0.42583 0.05102 0.8609 0.0
H739 H 0.49453 0.08515 0.97599 0.0
H740 H 0.4825 0.05316 0.05647 0.0
H741 H 0.39636 0.03412 0.01292 0.0
H742 H 0.37323 1.00641 0.97407 0.0
H743 H 0.38813 0.029 0.91431 0.0
H744 H 0.39885 1.00331 0.83378 0.0
H745 H 0.38315 0.98023 0.89144 0.0
H746 H 0.41305 0.98964 0.87782 0.0
H747 H 0.46076 0.02045 0.13882 0.0
H748 H 0.43272 0.9864 0.20078 0.0
H749 H 0.37848 0.97489 0.03286 0.0
C750 C 0.43869 0.05095 0.89971 0.0
C751 C 0.46132 0.07011 0.91059 0.0
C752 C 0.47734 0.07019 0.96521 0.0
C753 C 0.47055 0.05225 0.01191 0.0
C754 C 0.44764 0.03427 1.00321 0.0
C755 C 0.43211 0.03317 0.94703 0.0
C756 C 0.40803 0.01307 0.95324 0.0
C757 C 0.39042 0.02115 0.9643 0.0
C758 C 0.40032 0.99552 0.88504 0.0
C759 C 0.4123 1.00354 0.02264 0.0
C760 C 0.4352 0.01586 0.05091 0.0
C761 C 0.44282 0.01046 0.11645 0.0
C762 C 0.42677 0.99135 0.15202 0.0
C763 C 0.40347 0.97801 0.12177 0.0
C764 C 0.39623 0.98466 0.05726 0.0
H765 H 0.61718 0.05722 0.87774 0.0
H766 H 0.68884 0.08283 0.95807 0.0
H767 H 0.67644 0.05231 0.04357 0.0
H768 H 0.59222 0.04156 0.04351 0.0
H769 H 0.56691 0.01473 0.00889 0.0
H770 H 0.58084 0.03725 0.94786 0.0
H771 H 0.58611 0.00988 0.85547 0.0
H772 H 0.57137 0.98702 0.91478 0.0
H773 H 0.59984 0.99441 0.88889 0.0
H774 H 0.65633 0.02415 0.13624 0.0
H775 H 0.6303 0.99077 0.20281 0.0
H776 H 0.57191 0.97912 0.05334 0.0
C777 C 0.63023 0.05562 0.91065 0.0
C778 C 0.654 0.07227 0.91095 0.0
C779 C 0.67057 0.07006 0.95648 0.0
C780 C 0.66369 0.05299 1.00603 0.0
C781 C 0.64014 0.03774 1.00814 0.0
C782 C 0.62366 0.03805 0.95933 0.0
C783 C 0.59952 0.01895 0.97259 0.0
C784 C 0.58396 0.02872 0.99451 0.0
C785 C 0.58857 1.00153 0.90386 0.0
C786 C 0.60511 0.0085 0.03754 0.0
C787 C 0.62861 0.02004 0.05825 0.0
C788 C 0.63793 0.01455 0.1194 0.0
C789 C 0.62299 0.99575 0.15755 0.0
C790 C 0.5992 0.98226 0.13284 0.0
C791 C 0.59007 0.98917 0.07342 0.0
H792 H 0.07849 0.66613 0.04541 0.0
H793 H 0.07502 0.6064 0.13766 0.0
H794 H 0.04217 0.58104 0.04501 0.0
H795 H 0.01925 0.64467 0.01897 0.0
H796 H 0.01997 0.65757 0.93342 0.0
H797 H 0.04498 0.67062 0.9997 0.0
H798 H 0.07013 0.66868 0.89785 0.0
H799 H 0.04503 0.65542 0.83133 0.0
H800 H 0.06168 0.64145 0.8479 0.0
H801 H 1.00708 0.56248 0.9533 0.0
H802 H 0.97113 0.55214 0.87682 0.0
H803 H 0.99726 0.62368 0.84145 0.0
C804 C 0.07108 0.6477 0.04524 0.0
C805 C 0.07931 0.63817 0.09856 0.0
C806 C 0.06896 0.61401 0.09731 0.0
C807 C 0.05043 0.59953 0.04452 0.0
C808 C 0.04257 0.60948 0.99305 0.0
C809 C 0.05258 0.63304 0.99306 0.0
C810 C 0.03959 0.63942 0.93653 0.0
C811 C 0.0304 0.65391 0.97444 0.0
C812 C 0.05503 0.65199 0.87475 0.0
C813 C 0.02 0.61574 0.90695 0.0
C814 C 0.02239 0.59872 0.93915 0.0
C815 C 1.00539 0.57561 0.92627 0.0
C816 C 0.98507 0.56983 0.88198 0.0
C817 C 0.98185 0.58696 0.85047 0.0
C818 C 0.99981 0.61016 0.86166 0.0
H819 H 0.37707 0.43415 0.0768 0.0
H820 H 0.44271 0.49244 0.16749 0.0
H821 H 0.46322 0.48093 0.07987 0.0
H822 H 0.39619 0.39487 0.06134 0.0
H823 H 0.37885 0.37968 0.97604 0.0
H824 H 0.36937 0.39442 0.03807 0.0
H825 H 0.36713 0.4177 0.93082 0.0
H826 H 0.37668 0.40292 0.86867 0.0
H827 H 0.39233 0.43388 0.88099 0.0
H828 H 0.4768 0.46103 0.99135 0.0
H829 H 0.48265 0.43262 0.91793 0.0
H830 H 0.40836 0.38683 0.88597 0.0
C831 C 0.39573 0.44473 0.0772 0.0
C832 C 0.40835 0.46428 0.12856 0.0
C833 C 0.43275 0.47743 0.12849 0.0
C834 C 0.4445 0.47111 0.07853 0.0
C835 C 0.43157 0.45162 0.02885 0.0
C836 C 0.40771 0.43857 0.02803 0.0
C837 C 0.39808 0.4172 0.97435 0.0
C838 C 0.38486 0.39526 0.01489 0.0
C839 C 0.38264 0.41797 0.9099 0.0
C840 C 0.42033 0.41968 0.9475 0.0
C841 C 0.43942 0.43999 0.97812 0.0
C842 C 0.46197 0.44535 0.96588 0.0
C843 C 0.46515 0.42922 0.92367 0.0
C844 C 0.44593 0.408 0.89437 0.0
C845 C 0.42325 0.40338 0.90517 0.0
H846 H 0.10046 0.26808 0.52055 0.0
H847 H 0.04811 0.1972 0.45726 0.0
H848 H 0.07914 0.18869 0.42566 0.0
H849 H 0.14187 0.27332 0.38103 0.0
H850 H 0.16644 0.29133 0.44668 0.0
H851 H 0.13988 0.29204 0.45137 0.0
H852 H 0.13855 0.28273 0.58909 0.0
H853 H 0.16498 0.28201 0.5848 0.0
H854 H 0.13945 0.25748 0.61274 0.0
H855 H 0.11761 0.18745 0.41999 0.0
H856 H 0.15746 0.19352 0.44245 0.0
H857 H 0.18331 0.2653 0.5086 0.0
C858 C 0.09543 0.25086 0.49814 0.0
C859 C 0.07188 0.23331 0.49108 0.0
C860 C 0.06602 0.21097 0.4622 0.0
C861 C 0.08359 0.20603 0.44435 0.0
C862 C 0.10685 0.22371 0.45455 0.0
C863 C 0.1126 0.24577 0.48 0.0
C864 C 0.13861 0.26148 0.49301 0.0
C865 C 0.1472 0.28068 0.43984 0.0
C866 C 0.1458 0.27149 0.57472 0.0
C867 C 0.14684 0.24474 0.47397 0.0
C868 C 0.12844 0.22306 0.45065 0.0
C869 C 0.13207 0.2045 0.43644 0.0
C870 C 0.15479 0.20809 0.44863 0.0
C871 C 0.17352 0.23002 0.47511 0.0
C872 C 0.16942 0.24853 0.48598 0.0
H873 H 0.81106 0.96423 0.62041 0.0
H874 H 0.80654 0.97 0.38289 0.0
H875 H 0.80844 0.93445 0.35994 0.0
H876 H 0.85078 0.9418 0.62147 0.0
H877 H 0.83679 0.9227 0.69226 0.0
H878 H 0.83626 0.94916 0.68987 0.0
H879 H 0.7914 0.92638 0.68453 0.0
H880 H 0.79178 0.89988 0.68688 0.0
H881 H 0.77521 0.90346 0.61233 0.0
H882 H 0.80914 0.89692 0.3631 0.0
H883 H 0.80837 0.8611 0.39143 0.0
H884 H 0.81239 0.8797 0.62725 0.0
C885 C 0.81074 0.95825 0.56343 0.0
C886 C 0.80879 0.97019 0.50342 0.0
C887 C 0.80815 0.96139 0.42991 0.0
C888 C 0.80921 0.94114 0.41633 0.0
C889 C 0.81092 0.92975 0.47675 0.0
C890 C 0.81173 0.93804 0.5489 0.0
C891 C 0.81281 0.9222 0.60405 0.0
C892 C 0.83551 0.93472 0.65492 0.0
C893 C 0.79153 0.9124 0.64962 0.0
C894 C 0.81232 0.90355 0.5518 0.0
C895 C 0.81131 0.90826 0.47859 0.0
C896 C 0.81007 0.89321 0.4203 0.0
C897 C 0.80966 0.87282 0.43708 0.0
C898 C 0.81047 0.86743 0.51169 0.0
C899 C 0.81202 0.88326 0.56963 0.0
H900 H 0.0743 0.8815 0.57536 0.0
H901 H 0.07321 0.8541 0.35181 0.0
H902 H 0.10938 0.8898 0.3333 0.0
H903 H 0.09717 0.94135 0.53123 0.0
H904 H 0.11466 0.95299 0.61852 0.0
H905 H 0.08802 0.92574 0.61269 0.0
H906 H 0.11041 0.90658 0.66529 0.0
H907 H 0.13708 0.93372 0.67119 0.0
H908 H 0.13484 0.909 0.61955 0.0
H909 H 0.14808 0.92754 0.34339 0.0
H910 H 0.18434 0.96448 0.37963 0.0
H911 H 0.15904 0.96811 0.59329 0.0
C912 C 0.08146 0.88307 0.5221 0.0
C913 C 0.07071 0.86482 0.46505 0.0
C914 C 0.08088 0.86774 0.3964 0.0
C915 C 0.10153 0.88801 0.38532 0.0
C916 C 0.11183 0.90549 0.44301 0.0
C917 C 0.10196 0.90332 0.50978 0.0
C918 C 0.11672 0.92444 0.56343 0.0
C919 C 0.10334 0.93686 0.58258 0.0
C920 C 0.12527 0.91805 0.63402 0.0
C921 C 0.13662 0.93866 0.51704 0.0
C922 C 0.13355 0.92744 0.44774 0.0
C923 C 0.15043 0.93662 0.39708 0.0
C924 C 0.17098 0.95764 0.41802 0.0
C925 C 0.17445 0.96944 0.4887 0.0
C926 C 0.15679 0.95983 0.5382 0.0
H927 H 0.22021 0.16203 0.41356 0.0
H928 H 0.22363 0.18163 0.64826 0.0
H929 H 0.22261 0.14593 0.67938 0.0
H930 H 0.18205 0.09948 0.4219 0.0
H931 H 0.19713 0.09239 0.35492 0.0
H932 H 0.19588 0.11843 0.35058 0.0
H933 H 0.24073 0.14215 0.35675 0.0
H934 H 0.24213 0.11624 0.3615 0.0
H935 H 0.2576 0.1396 0.43279 0.0
H936 H 0.2242 0.10942 0.68597 0.0
H937 H 0.22792 0.07488 0.66714 0.0
H938 H 0.22365 0.07884 0.42836 0.0
C939 C 0.2202 0.15858 0.47141 0.0
C940 C 0.2218 0.17467 0.52836 0.0
C941 C 0.22229 0.16963 0.60347 0.0
C942 C 0.22171 0.14934 0.6218 0.0
C943 C 0.22062 0.13411 0.56453 0.0
C944 C 0.21976 0.13841 0.4908 0.0
C945 C 0.21998 0.11985 0.44019 0.0
C946 C 0.19741 0.10676 0.38887 0.0
C947 C 0.24139 0.13008 0.39518 0.0
C948 C 0.22146 0.10465 0.49699 0.0
C949 C 0.22166 0.11311 0.56837 0.0
C950 C 0.22383 0.10253 0.63024 0.0
C951 C 0.22597 0.08288 0.61895 0.0
C952 C 0.22598 0.07394 0.54629 0.0
C953 C 0.22348 0.08499 0.48467 0.0
H954 H 0.86046 0.10153 0.62466 0.0
H955 H 0.87301 0.04927 0.52667 0.0
H956 H 0.91473 0.07816 0.52643 0.0
H957 H 0.89377 0.14381 0.52251 0.0
H958 H 0.90534 0.16749 0.5933 0.0
H959 H 0.87791 0.14216 0.6021 0.0
H960 H 0.8928 0.13703 0.7305 0.0
H961 H 0.9202 0.16277 0.72322 0.0
H962 H 0.9194 0.13623 0.73987 0.0
H963 H 0.95238 0.11452 0.508 0.0
H964 H 0.98425 0.1539 0.49249 0.0
H965 H 0.94842 0.18238 0.61201 0.0
C966 C 0.87231 0.09592 0.60769 0.0
C967 C 0.86369 0.07301 0.57805 0.0
C968 C 0.87941 0.06648 0.55235 0.0
C969 C 0.9031 0.08291 0.55112 0.0
C970 C 0.91086 0.1057 0.57711 0.0
C971 C 0.89603 0.11204 0.6073 0.0
C972 C 0.9081 0.13792 0.62553 0.0
C973 C 0.89553 0.14844 0.58332 0.0
C974 C 0.91026 0.14384 0.7098 0.0
C975 C 0.93165 0.14533 0.59742 0.0
C976 C 0.93293 0.12651 0.56956 0.0
C977 C 0.95185 0.12928 0.53205 0.0
C978 C 0.96983 0.1517 0.52311 0.0
C979 C 0.96905 0.17115 0.55256 0.0
C980 C 0.94983 0.16782 0.59109 0.0
H981 H 0.95577 0.82493 0.43244 0.0
H982 H 0.96735 0.79826 0.63302 0.0
H983 H 0.93383 0.79919 0.68431 0.0
H984 H 0.93485 0.86209 0.52055 0.0
H985 H 0.91412 0.85533 0.44204 0.0
H986 H 0.94118 0.8563 0.42882 0.0
H987 H 0.91864 0.81481 0.36509 0.0
H988 H 0.89163 0.81368 0.37827 0.0
H989 H 0.89706 0.79212 0.41383 0.0
H990 H 0.8943 0.79695 0.70237 0.0
H991 H 0.85503 0.79254 0.68599 0.0
H992 H 0.87079 0.82148 0.4741 0.0
C993 C 0.95177 0.82003 0.48834 0.0
C994 C 0.96432 0.81179 0.52917 0.0
C995 C 0.95828 0.80508 0.60143 0.0
C996 C 0.93916 0.80546 0.63065 0.0
C997 C 0.92657 0.81293 0.58736 0.0
C998 C 0.933 0.82044 0.51802 0.0
C999 C 0.91579 0.82568 0.47879 0.0
C1000 C 0.92717 0.85138 0.46687 0.0
C1001 C 0.90516 0.81067 0.40468 0.0
C1002 C 0.898 0.81912 0.53523 0.0
C1003 C 0.9045 0.81205 0.59812 0.0
C1004 C 0.88947 0.80308 0.65428 0.0
C1005 C 0.86724 0.80078 0.64492 0.0
C1006 C 0.86026 0.80747 0.58008 0.0
C1007 C 0.87608 0.81715 0.5256 0.0
H1008 H 0.83485 0.55652 0.87122 0.0
H1009 H 0.83989 0.5485 0.63422 0.0
H1010 H 0.80085 0.54352 0.60927 0.0
H1011 H 0.77272 0.51506 0.86967 0.0
H1012 H 0.76841 0.53222 0.93984 0.0
H1013 H 0.796 0.53347 0.93891 0.0
H1014 H 0.81659 0.57766 0.93397 0.0
H1015 H 0.78911 0.57655 0.93475 0.0
H1016 H 0.80747 0.58947 0.86103 0.0
H1017 H 0.7622 0.54235 0.61015 0.0
H1018 H 0.72729 0.54441 0.63692 0.0
H1019 H 0.74752 0.55264 0.87335 0.0
C1020 C 0.8277 0.55342 0.81398 0.0
C1021 C 0.84057 0.55288 0.75471 0.0
C1022 C 0.83045 0.54891 0.68073 0.0
C1023 C 0.80824 0.54606 0.66595 0.0
C1024 C 0.79622 0.54706 0.7257 0.0
C1025 C 0.80557 0.55049 0.79827 0.0
C1026 C 0.78955 0.55177 0.8525 0.0
C1027 C 0.78117 0.53195 0.90321 0.0
C1028 C 0.80139 0.57526 0.89823 0.0
C1029 C 0.76989 0.54893 0.79913 0.0
C1030 C 0.77398 0.54614 0.72622 0.0
C1031 C 0.75872 0.54427 0.66711 0.0
C1032 C 0.73892 0.54548 0.6829 0.0
C1033 C 0.73446 0.54851 0.75727 0.0
C1034 C 0.75014 0.54998 0.81589 0.0
H1035 H 0.45322 0.28091 0.74222 0.0
H1036 H 0.5161 0.32606 0.88319 0.0
H1037 H 0.52474 0.29461 0.89038 0.0
H1038 H 0.43687 0.23283 0.84023 0.0
H1039 H 0.42535 0.21172 0.76127 0.0
H1040 H 0.42574 0.23852 0.75595 0.0
H1041 H 0.44889 0.24661 0.63974 0.0
H1042 H 0.44844 0.2197 0.64433 0.0
H1043 H 0.47569 0.24613 0.64398 0.0
H1044 H 0.52417 0.25792 0.89738 0.0
H1045 H 0.51502 0.21779 0.90131 0.0
H1046 H 0.45258 0.1948 0.75527 0.0
C1047 C 0.46922 0.28432 0.77217 0.0
C1048 C 0.48424 0.30605 0.81118 0.0
C1049 C 0.50452 0.30964 0.85235 0.0
C1050 C 0.50958 0.29187 0.85667 0.0
C1051 C 0.49415 0.27046 0.81971 0.0
C1052 C 0.47443 0.26654 0.77776 0.0
C1053 C 0.45973 0.24123 0.74963 0.0
C1054 C 0.43549 0.23045 0.77851 0.0
C1055 C 0.4581 0.23825 0.66434 0.0
C1056 C 0.47395 0.23153 0.78419 0.0
C1057 C 0.49382 0.24886 0.82378 0.0
C1058 C 0.50891 0.24426 0.86548 0.0
C1059 C 0.50351 0.22139 0.86762 0.0
C1060 C 0.48327 0.20323 0.82801 0.0
C1061 C 0.46846 0.20841 0.78464 0.0
H1062 H 0.75014 0.22315 0.91942 0.0
H1063 H 0.73078 0.20129 0.68437 0.0
H1064 H 0.76587 0.23617 0.65385 0.0
H1065 H 0.7768 0.28594 0.90191 0.0
H1066 H 0.79952 0.29289 0.9739 0.0
H1067 H 0.77143 0.26765 0.97675 0.0
H1068 H 0.79075 0.24255 0.98311 0.0
H1069 H 0.81883 0.26763 0.97974 0.0
H1070 H 0.80908 0.24343 0.91189 0.0
H1071 H 0.80538 0.27161 0.64915 0.0
H1072 H 0.84533 0.30482 0.6716 0.0
H1073 H 0.83859 0.30344 0.90925 0.0
C1074 C 0.75291 0.22601 0.86148 0.0
C1075 C 0.73753 0.20949 0.80438 0.0
C1076 C 0.7422 0.21368 0.72925 0.0
C1077 C 0.76212 0.2335 0.71124 0.0
C1078 C 0.77727 0.24912 0.76886 0.0
C1079 C 0.7728 0.24569 0.84248 0.0
C1080 C 0.79265 0.26424 0.89404 0.0
C1081 C 0.78462 0.27853 0.93931 0.0
C1082 C 0.80346 0.25384 0.94517 0.0
C1083 C 0.80915 0.27829 0.83807 0.0
C1084 C 0.79995 0.26944 0.7661 0.0
C1085 C 0.81263 0.27888 0.70533 0.0
C1086 C 0.83534 0.29774 0.71859 0.0
C1087 C 0.8452 0.30695 0.79208 0.0
C1088 C 0.83164 0.29711 0.8522 0.0
H1089 H 0.94147 0.51944 0.80708 0.0
H1090 H 0.87257 0.49754 0.87185 0.0
H1091 H 0.86992 0.46174 0.91378 0.0
H1092 H 0.93209 0.46965 0.73076 0.0
H1093 H 0.9594 0.47222 0.76215 0.0
H1094 H 0.95748 0.49761 0.75286 0.0
H1095 H 0.97318 0.51169 0.89048 0.0
H1096 H 0.97555 0.48641 0.90024 0.0
H1097 H 0.95911 0.49317 0.96252 0.0
H1098 H 0.87248 0.42465 0.92253 0.0
H1099 H 0.88086 0.39272 0.90378 0.0
H1100 H 0.94938 0.44131 0.84335 0.0
C1101 C 0.92645 0.50779 0.83456 0.0
C1102 C 0.90761 0.51159 0.83897 0.0
C1103 C 0.88752 0.49528 0.87059 0.0
C1104 C 0.88586 0.47485 0.89403 0.0
C1105 C 0.90465 0.47128 0.88682 0.0
C1106 C 0.92484 0.48776 0.85961 0.0
C1107 C 0.94183 0.47935 0.85042 0.0
C1108 C 0.94803 0.47972 0.76926 0.0
C1109 C 0.96371 0.4935 0.90413 0.0
C1110 C 0.92765 0.45504 0.87221 0.0
C1111 C 0.9063 0.45055 0.89388 0.0
C1112 C 0.88941 0.42824 0.90771 0.0
C1113 C 0.89429 0.41017 0.8972 0.0
C1114 C 0.91583 0.41456 0.87268 0.0
C1115 C 0.93285 0.43743 0.86305 0.0
H1116 H 0.51869 0.42946 0.83938 0.0
H1117 H 0.5422 0.38114 0.87457 0.0
H1118 H 0.58293 0.41345 0.89372 0.0
H1119 H 0.55916 0.4614 0.72929 0.0
H1120 H 0.56293 0.48894 0.76125 0.0
H1121 H 0.536 0.4632 0.77058 0.0
H1122 H 0.53979 0.47378 0.91227 0.0
H1123 H 0.56677 0.49983 0.90332 0.0
H1124 H 0.56571 0.47981 0.96774 0.0
H1125 H 0.62183 0.45106 0.88444 0.0
H1126 H 0.65296 0.48829 0.84607 0.0
H1127 H 0.60306 0.51093 0.8147 0.0
C1128 C 0.53235 0.42586 0.85539 0.0
C1129 C 0.52731 0.40296 0.85835 0.0
C1130 C 0.54566 0.39866 0.87511 0.0
C1131 C 0.56886 0.41695 0.88546 0.0
C1132 C 0.57339 0.43943 0.87908 0.0
C1133 C 0.55544 0.44387 0.8655 0.0
C1134 C 0.56456 0.46874 0.85065 0.0
C1135 C 0.55511 0.47065 0.77338 0.0
C1136 C 0.55887 0.48128 0.91218 0.0
C1137 C 0.59034 0.47743 0.85392 0.0
C1138 C 0.59537 0.46059 0.87211 0.0
C1139 C 0.61805 0.46446 0.87184 0.0
C1140 C 0.63571 0.48568 0.85041 0.0
C1141 C 0.63041 0.50251 0.82831 0.0
C1142 C 0.60762 0.49845 0.83245 0.0
H1143 H 0.63799 0.17744 0.78268 0.0
H1144 H 0.63483 0.13761 0.96731 0.0
H1145 H 0.60005 0.13849 1.00493 0.0
H1146 H 0.61666 0.21303 0.87769 0.0
H1147 H 0.60056 0.21241 0.79371 0.0
H1148 H 0.62692 0.21136 0.78851 0.0
H1149 H 0.60471 0.1737 0.70172 0.0
H1150 H 0.57837 0.17462 0.7067 0.0
H1151 H 0.57931 0.14953 0.73193 0.0
H1152 H 0.56205 0.13915 0.01083 0.0
H1153 H 0.52564 0.13994 0.98507 0.0
H1154 H 0.55475 0.18045 0.79911 0.0
C1155 C 0.63036 0.16942 0.83224 0.0
C1156 C 0.63921 0.15754 0.87225 0.0
C1157 C 0.6285 0.14698 0.93614 0.0
C1158 C 0.6087 0.14739 0.95786 0.0
C1159 C 0.59997 0.15869 0.91573 0.0
C1160 C 0.6107 0.16976 0.85471 0.0
C1161 C 0.59706 0.17917 0.81517 0.0
C1162 C 0.61114 0.20556 0.81903 0.0
C1163 C 0.58941 0.16862 0.73413 0.0
C1164 C 0.57652 0.17101 0.86165 0.0
C1165 C 0.57852 0.1594 0.91992 0.0
C1166 C 0.56059 0.14862 0.96626 0.0
C1167 C 0.53996 0.14921 0.95141 0.0
C1168 C 0.53734 0.16045 0.89056 0.0
C1169 C 0.55626 0.17205 0.84687 0.0
H1170 H 0.48781 0.87407 0.24821 0.0
H1171 H 0.5176 0.91503 0.06376 0.0
H1172 H 0.48036 0.91366 0.03161 0.0
H1173 H 0.42713 0.83857 0.1608 0.0
H1174 H 0.41517 0.83919 0.24754 0.0
H1175 H 0.44264 0.84013 0.24742 0.0
H1176 H 0.46184 0.87774 0.33479 0.0
H1177 H 0.43454 0.87695 0.33506 0.0
H1178 H 0.45962 0.902 0.30744 0.0
H1179 H 0.44121 0.91192 0.03043 0.0
H1180 H 0.4051 0.91098 0.06229 0.0
H1181 H 0.40156 0.87156 0.24857 0.0
C1182 C 0.48633 0.8822 0.1997 0.0
C1183 C 0.50557 0.89452 0.15812 0.0
C1184 C 0.50302 0.90532 0.09597 0.0
C1185 C 0.48191 0.9046 0.07734 0.0
C1186 C 0.46347 0.8929 0.12111 0.0
C1187 C 0.4655 0.88177 0.18079 0.0
C1188 C 0.44414 0.8724 0.2238 0.0
C1189 C 0.43152 0.846 0.21961 0.0
C1190 C 0.45042 0.88291 0.30503 0.0
C1191 C 0.43004 0.88066 0.1808 0.0
C1192 C 0.44123 0.89212 0.12094 0.0
C1193 C 0.43218 0.90266 0.07644 0.0
C1194 C 0.41161 0.90199 0.09483 0.0
C1195 C 0.40043 0.89109 0.1577 0.0
C1196 C 0.40951 0.87977 0.19963 0.0
H1197 H 0.12766 0.61353 0.07456 0.0
H1198 H 0.19254 0.66351 0.19745 0.0
H1199 H 0.20415 0.63416 0.2046 0.0
H1200 H 0.11738 0.56833 0.17963 0.0
H1201 H 0.10511 0.54585 0.10466 0.0
H1202 H 0.1033 0.57145 0.09696 0.0
H1203 H 0.12336 0.57844 0.97435 0.0
H1204 H 0.12512 0.55273 0.98144 0.0
H1205 H 0.151 0.5798 0.9727 0.0
H1206 H 0.20632 0.59894 0.21684 0.0
H1207 H 0.19954 0.5597 0.22845 0.0
H1208 H 0.13393 0.53133 0.0954 0.0
C1209 C 0.14467 0.61841 0.10021 0.0
C1210 C 0.15943 0.64091 0.13436 0.0
C1211 C 0.18114 0.64647 0.17026 0.0
C1212 C 0.18788 0.6299 0.17456 0.0
C1213 C 0.17274 0.60769 0.14273 0.0
C1214 C 0.15165 0.60186 0.10556 0.0
C1215 C 0.13781 0.57614 0.08281 0.0
C1216 C 0.11453 0.56479 0.11814 0.0
C1217 C 0.13411 0.57151 0.99775 0.0
C1218 C 0.15407 0.56843 0.11521 0.0
C1219 C 0.17419 0.58704 0.14898 0.0
C1220 C 0.19093 0.58429 0.18897 0.0
C1221 C 0.18695 0.56197 0.19539 0.0
C1222 C 0.16656 0.54264 0.16132 0.0
C1223 C 0.15005 0.54593 0.11975 0.0
H1224 H 0.50302 0.6463 0.26077 0.0
H1225 H 0.52618 0.64328 0.04321 0.0
H1226 H 0.48851 0.60757 1.00605 0.0
H1227 H 0.48008 0.59009 0.2853 0.0
H1228 H 0.45601 0.58691 0.33482 0.0
H1229 H 0.48192 0.61451 0.33775 0.0
H1230 H 0.45817 0.63267 0.28825 0.0
H1231 H 0.43199 0.60515 0.28651 0.0
H1232 H 0.43944 0.62021 0.20353 0.0
H1233 H 0.45043 0.56866 1.00175 0.0
H1234 H 0.4165 0.53195 0.02835 0.0
H1235 H 0.42012 0.56077 0.25193 0.0
C1236 C 0.49982 0.63866 0.20417 0.0
C1237 C 0.51731 0.64768 0.15436 0.0
C1238 C 0.51276 0.63694 0.08148 0.0
C1239 C 0.49148 0.61656 0.06034 0.0
C1240 C 0.47503 0.60741 0.11264 0.0
C1241 C 0.47896 0.61843 0.18283 0.0
C1242 C 0.46012 0.60418 0.23222 0.0
C1243 C 0.47014 0.5986 0.30155 0.0
C1244 C 0.44662 0.61627 0.25388 0.0
C1245 C 0.44525 0.58289 0.18015 0.0
C1246 C 0.45379 0.58512 0.11097 0.0
C1247 C 0.44348 0.56698 0.05538 0.0
C1248 C 0.42418 0.54614 0.07113 0.0
C1249 C 0.41553 0.5434 0.14233 0.0
C1250 C 0.42615 0.56223 0.19688 0.0
H1251 H 0.5593 0.7507 0.09872 0.0
H1252 H 0.56866 0.74599 0.33529 0.0
H1253 H 0.56358 0.77953 0.36177 0.0
H1254 H 0.59191 0.81048 0.10537 0.0
H1255 H 0.57391 0.81337 0.03404 0.0
H1256 H 0.57537 0.78741 0.0339 0.0
H1257 H 0.53067 0.76337 0.03491 0.0
H1258 H 0.52905 0.7893 0.03489 0.0
H1259 H 0.51662 0.77008 0.10664 0.0
H1260 H 0.56036 0.81517 0.36199 0.0
H1261 H 0.5608 0.85096 0.33706 0.0
H1262 H 0.55456 0.83299 0.09962 0.0
C1263 C 0.55978 0.75634 0.15624 0.0
C1264 C 0.56414 0.74551 0.21504 0.0
C1265 C 0.56519 0.75388 0.28937 0.0
C1266 C 0.56226 0.77289 0.30491 0.0
C1267 C 0.55835 0.78335 0.24551 0.0
C1268 C 0.55712 0.77536 0.17265 0.0
C1269 C 0.55462 0.79072 0.11886 0.0
C1270 C 0.57518 0.80111 0.07021 0.0
C1271 C 0.53135 0.77758 0.07101 0.0
C1272 C 0.5551 0.80891 0.17282 0.0
C1273 C 0.55696 0.80416 0.24556 0.0
C1274 C 0.55871 0.81895 0.30527 0.0
C1275 C 0.55899 0.83931 0.29036 0.0
C1276 C 0.5577 0.84488 0.21623 0.0
C1277 C 0.55533 0.82919 0.15683 0.0
H1278 H 0.30111 0.82427 0.10934 0.0
H1279 H 0.30011 0.85278 0.32897 0.0
H1280 H 0.26513 0.81641 0.34968 0.0
H1281 H 0.24145 0.79517 0.06319 0.0
H1282 H 0.24 0.77042 0.01448 0.0
H1283 H 0.26634 0.79781 0.01993 0.0
H1284 H 0.28919 0.77975 0.07771 0.0
H1285 H 0.26286 0.75224 0.07234 0.0
H1286 H 0.27988 0.76467 0.1601 0.0
H1287 H 0.22728 0.77838 0.34059 0.0
H1288 H 0.19095 0.7416 0.30299 0.0
H1289 H 0.21783 0.73728 0.09293 0.0
C1290 C 0.29384 0.82274 0.1624 0.0
C1291 C 0.30353 0.84148 0.21748 0.0
C1292 C 0.29322 0.83871 0.28586 0.0
C1293 C 0.27327 0.81806 0.29828 0.0
C1294 C 0.26389 0.8001 0.2423 0.0
C1295 C 0.27401 0.80214 0.17604 0.0
C1296 C 0.25988 0.7807 0.12342 0.0
C1297 C 0.25142 0.78638 0.05101 0.0
C1298 C 0.27378 0.76863 0.10748 0.0
C1299 C 0.2399 0.76661 0.16949 0.0
C1300 C 0.24252 0.778 0.23806 0.0
C1301 C 0.22527 0.7691 0.2876 0.0
C1302 C 0.20471 0.74821 0.26593 0.0
C1303 C 0.20165 0.73644 0.19554 0.0
C1304 C 0.21977 0.74561 0.14772 0.0
H1305 H 0.28609 0.45018 0.2439 0.0
H1306 H 0.33521 0.52224 0.23081 0.0
H1307 H 0.30553 0.53202 0.2669 0.0
H1308 H 0.24044 0.44874 0.15991 0.0
H1309 H 0.21883 0.42879 0.21571 0.0
H1310 H 0.24535 0.42855 0.20819 0.0
H1311 H 0.25337 0.43452 0.35164 0.0
H1312 H 0.22668 0.43479 0.35961 0.0
H1313 H 0.25367 0.45852 0.40165 0.0
H1314 H 0.26739 0.53233 0.27293 0.0
H1315 H 0.22647 0.52301 0.25047 0.0
H1316 H 0.20339 0.45112 0.26772 0.0
C1317 C 0.29085 0.4681 0.25208 0.0
C1318 C 0.31285 0.48549 0.23551 0.0
C1319 C 0.31852 0.50873 0.24482 0.0
C1320 C 0.30172 0.51439 0.26512 0.0
C1321 C 0.27963 0.49662 0.27783 0.0
C1322 C 0.27446 0.47394 0.27337 0.0
C1323 C 0.24899 0.45765 0.28033 0.0
C1324 C 0.23777 0.43993 0.21198 0.0
C1325 C 0.24548 0.44567 0.35263 0.0
C1326 C 0.24016 0.47442 0.28355 0.0
C1327 C 0.25801 0.49692 0.28376 0.0
C1328 C 0.25339 0.51488 0.27552 0.0
C1329 C 0.2301 0.50952 0.26345 0.0
C1330 C 0.21189 0.48642 0.25919 0.0
C1331 C 0.21705 0.46899 0.27313 0.0
H1332 H 0.03608 0.23317 0.17752 0.0
H1333 H 0.97135 0.23267 0.1979 0.0
H1334 H 0.97 0.23988 0.06585 0.0
H1335 H 0.05993 0.27813 0.0535 0.0
H1336 H 0.07298 0.26528 0.99857 0.0
H1337 H 0.069 0.25976 0.09479 0.0
H1338 H 0.04578 0.21593 0.05762 0.0
H1339 H 0.04991 0.2213 0.96138 0.0
H1340 H 0.02103 0.20435 0.99003 0.0
H1341 H 0.97633 0.24895 0.93345 0.0
H1342 H 0.98786 0.25529 0.80529 0.0
H1343 H 0.04769 0.24842 0.86591 0.0
C1344 C 0.02151 0.23433 0.15383 0.0
C1345 C 1.00376 0.23231 0.19819 0.0
C1346 C 0.98509 0.23408 0.16519 0.0
C1347 C 0.98422 0.23828 0.09017 0.0
C1348 C 1.00211 0.24058 0.04825 0.0
C1349 C 0.02028 0.23838 0.07841 0.0
C1350 C 0.03709 0.24138 0.0203 0.0
C1351 C 0.06118 0.26239 0.04318 0.0
C1352 C 0.03853 0.21943 1.00652 0.0
C1353 C 0.02545 0.24546 0.95291 0.0
C1354 C 1.00545 0.24522 0.9708 0.0
C1355 C 0.99189 0.24904 0.9187 0.0
C1356 C 0.99865 0.25275 0.84603 0.0
C1357 C 0.01866 0.25237 0.82546 0.0
C1358 C 0.03232 0.24883 0.87998 0.0
H1359 H 0.76979 0.78072 0.20101 0.0
H1360 H 0.8436 0.81032 0.25985 0.0
H1361 H 0.85133 0.81813 0.12984 0.0
H1362 H 0.76908 0.75344 0.01915 0.0
H1363 H 0.74798 0.75924 0.97477 0.0
H1364 H 0.74791 0.75533 0.07264 0.0
H1365 H 0.7511 0.79492 0.10103 0.0
H1366 H 0.75141 0.79905 1.00332 0.0
H1367 H 0.77465 0.82017 0.06792 0.0
H1368 H 0.85179 0.82451 0.99651 0.0
H1369 H 0.84451 0.82639 0.86276 0.0
H1370 H 0.77045 0.79197 0.88534 0.0
C1371 C 0.78751 0.7886 0.18609 0.0
C1372 C 0.80611 0.79493 0.24054 0.0
C1373 C 0.82908 0.80531 0.21914 0.0
C1374 C 0.83369 0.80988 0.14539 0.0
C1375 C 0.81513 0.80385 0.09325 0.0
C1376 C 0.79246 0.7932 0.11204 0.0
C1377 C 0.77586 0.78856 0.04421 0.0
C1378 C 0.75923 0.76259 0.02666 0.0
C1379 C 0.76247 0.80145 0.05478 0.0
C1380 C 0.79282 0.79845 0.98498 0.0
C1381 C 0.81537 0.80726 0.01493 0.0
C1382 C 0.8342 0.81758 0.97217 0.0
C1383 C 0.8299 0.81865 0.89632 0.0
C1384 C 0.80696 0.80937 0.8638 0.0
C1385 C 0.78818 0.79925 0.90888 0.0
H1386 H 0.26144 0.04672 0.1785 0.0
H1387 H 0.19691 0.98365 0.2003 0.0
H1388 H 0.1932 0.97342 0.06553 0.0
H1389 H 0.2427 0.05822 0.99944 0.0
H1390 H 0.27093 0.06975 0.9649 0.0
H1391 H 0.26843 0.07232 0.06323 0.0
H1392 H 0.29252 0.05238 0.08664 0.0
H1393 H 0.29477 0.04944 0.98827 0.0
H1394 H 0.28296 0.02441 0.04019 0.0
H1395 H 0.19765 0.96853 0.9318 0.0
H1396 H 0.20675 0.97182 0.80114 0.0
H1397 H 0.2672 0.03913 0.86137 0.0
C1398 C 0.24641 0.03093 0.15452 0.0
C1399 C 0.22945 0.01593 0.19963 0.0
C1400 C 0.21003 0.99541 0.16662 0.0
C1401 C 0.20785 0.98937 0.09024 0.0
C1402 C 0.22509 1.00421 0.04749 0.0
C1403 C 0.24376 0.02479 0.07785 0.0
C1404 C 0.25946 0.03778 0.01846 0.0
C1405 C 0.26042 0.06089 0.01107 0.0
C1406 C 0.28387 0.0412 0.03437 0.0
C1407 C 0.24675 0.02116 0.95029 0.0
C1408 C 0.22716 1.00179 0.96885 0.0
C1409 C 0.2128 0.9837 0.91634 0.0
C1410 C 0.21822 0.98568 0.84234 0.0
C1411 C 0.23763 1.00574 0.82124 0.0
C1412 C 0.25225 0.02361 0.8761 0.0
H1413 H 0.02846 0.82738 0.85062 0.0
H1414 H 0.01866 0.76006 0.78555 0.0
H1415 H 1.00953 0.7487 0.91242 0.0
H1416 H 0.05686 0.83297 0.03395 0.0
H1417 H 0.04379 0.8478 0.07788 0.0
H1418 H 0.04903 0.85047 0.98112 0.0
H1419 H 1.0056 0.83658 0.9474 0.0
H1420 H 1.00019 0.83365 0.044 0.0
H1421 H 0.98375 0.80944 0.97619 0.0
H1422 H 0.99965 0.7439 0.0446 0.0
H1423 H 0.99443 0.74773 0.17822 0.0
H1424 H 0.01356 0.81894 0.16119 0.0
C1425 C 0.02456 0.81035 0.8635 0.0
C1426 C 0.0242 0.79455 0.8084 0.0
C1427 C 0.0191 0.77243 0.82711 0.0
C1428 C 0.01377 0.76577 0.89893 0.0
C1429 C 0.01402 0.78159 0.95195 0.0
C1430 C 0.01969 0.80356 0.9357 0.0
C1431 C 0.01951 0.81745 1.00403 0.0
C1432 C 0.04374 0.83841 0.02551 0.0
C1433 C 1.00117 0.8247 0.99217 0.0
C1434 C 1.01279 0.79982 0.0608 0.0
C1435 C 1.00935 0.77914 0.02928 0.0
C1436 C 1.00245 0.76006 0.07013 0.0
C1437 C 0.99938 0.76232 0.14569 0.0
C1438 C 1.00361 0.78358 0.17951 0.0
C1439 C 1.01029 0.8025 0.13643 0.0
H1440 H 0.24292 0.26714 0.15738 0.0
H1441 H 0.23301 0.19852 0.16162 0.0
H1442 H 0.23898 0.19795 0.02762 0.0
H1443 H 0.21094 0.25574 0.97613 0.0
H1444 H 0.22934 0.28433 0.9491 0.0
H1445 H 0.22535 0.27973 0.04584 0.0
H1446 H 0.26985 0.29944 0.0747 0.0
H1447 H 0.27398 0.30383 0.97786 0.0
H1448 H 0.28585 0.28868 0.02582 0.0
H1449 H 0.2489 0.20599 0.89712 0.0
H1450 H 0.25408 0.21827 0.77029 0.0
H1451 H 0.25274 0.27988 0.8442 0.0
C1452 C 0.24191 0.25199 0.12969 0.0
C1453 C 0.23769 0.23289 0.16941 0.0
C1454 C 0.23617 0.21323 0.13179 0.0
C1455 C 0.23972 0.21286 0.05601 0.0
C1456 C 0.24419 0.23208 0.0185 0.0
C1457 C 0.24464 0.25103 0.05337 0.0
C1458 C 0.24819 0.2687 0.99863 0.0
C1459 C 0.2272 0.27233 0.99203 0.0
C1460 C 0.27082 0.29151 0.02059 0.0
C1461 C 0.24989 0.2568 0.92763 0.0
C1462 C 0.24809 0.23595 0.94115 0.0
C1463 C 0.25002 0.22212 0.88562 0.0
C1464 C 0.25315 0.22937 0.81377 0.0
C1465 C 0.25374 0.25 0.7973 0.0
C1466 C 0.25231 0.26402 0.85524 0.0
H1467 H 0.81859 0.05532 0.20532 0.0
H1468 H 0.75584 0.99133 0.23471 0.0
H1469 H 0.74896 0.98199 0.09909 0.0
H1470 H 0.79626 0.06762 0.03537 0.0
H1471 H 0.82344 0.07926 0.99375 0.0
H1472 H 0.82321 0.08142 0.0934 0.0
H1473 H 0.84747 0.06121 0.10482 0.0
H1474 H 0.84764 0.05884 1.00521 0.0
H1475 H 0.83697 0.03347 0.05522 0.0
H1476 H 0.74945 0.97857 0.96255 0.0
H1477 H 0.75623 0.98214 0.82991 0.0
H1478 H 0.81836 0.0485 0.88564 0.0
C1479 C 0.80333 0.03947 0.18291 0.0
C1480 C 0.78775 0.024 0.23025 0.0
C1481 C 0.76801 1.00338 0.19929 0.0
C1482 C 0.76395 0.99791 0.12238 0.0
C1483 C 0.77976 0.01329 0.07714 0.0
C1484 C 0.79896 0.03373 0.10585 0.0
C1485 C 0.81325 0.04702 0.04424 0.0
C1486 C 0.81408 0.0702 0.04154 0.0
C1487 C 0.83779 0.05032 0.05292 0.0
C1488 C 0.79914 0.03073 0.97675 0.0
C1489 C 0.77992 0.01139 0.99734 0.0
C1490 C 0.76436 0.99367 0.94556 0.0
C1491 C 0.7684 0.99583 0.87042 0.0
C1492 C 0.78779 0.01557 0.84773 0.0
C1493 C 0.8034 0.03322 0.90162 0.0
H1494 H 0.66101 0.54008 0.12726 0.0
H1495 H 0.72617 0.60394 0.12262 0.0
H1496 H 0.72793 0.61099 0.25854 0.0
H1497 H 0.63786 0.56023 0.26955 0.0
H1498 H 0.62466 0.53372 0.31381 0.0
H1499 H 0.62832 0.53331 0.21577 0.0
H1500 H 0.65109 0.51181 0.23398 0.0
H1501 H 0.64732 0.51196 0.33193 0.0
H1502 H 0.67604 0.52388 0.30094 0.0
H1503 H 0.72272 0.61166 0.39298 0.0
H1504 H 0.7121 0.6048 0.52149 0.0
H1505 H 0.65028 0.54031 0.44271 0.0
C1506 C 0.6757 0.55544 0.15513 0.0
C1507 C 0.6935 0.57148 0.1146 0.0
C1508 C 0.7124 0.59143 0.15269 0.0
C1509 C 0.71351 0.59562 0.22982 0.0
C1510 C 0.69559 0.57968 0.26813 0.0
C1511 C 0.67711 0.55989 0.23249 0.0
C1512 C 0.66035 0.54553 0.28763 0.0
C1513 C 0.63638 0.54306 0.27066 0.0
C1514 C 0.65861 0.5219 0.28868 0.0
C1515 C 0.67238 0.56033 0.35973 0.0
C1516 C 0.69261 0.58 0.34672 0.0
C1517 C 0.70695 0.59632 0.40397 0.0
C1518 C 0.70075 0.59226 0.47676 0.0
C1519 C 0.68039 0.57204 0.49194 0.0
C1520 C 0.66585 0.55599 0.43252 0.0
H1521 H 0.44016 0.11698 0.51419 0.0
H1522 H 0.51025 0.12985 0.55962 0.0
H1523 H 0.51743 0.13683 0.42826 0.0
H1524 H 0.43069 0.08684 0.3272 0.0
H1525 H 0.41356 0.09845 0.28963 0.0
H1526 H 0.41365 0.09361 0.38675 0.0
H1527 H 0.42613 0.13621 0.42136 0.0
H1528 H 0.42645 0.1413 0.32446 0.0
H1529 H 0.45205 0.15862 0.38704 0.0
H1530 H 0.51861 0.14693 0.29707 0.0
H1531 H 0.51169 0.1528 0.16677 0.0
H1532 H 0.4397 0.12979 0.20041 0.0
C1533 C 0.45684 0.12084 0.49594 0.0
C1534 C 0.47469 0.12291 0.54692 0.0
C1535 C 0.49632 0.12803 0.52135 0.0
C1536 C 0.5006 0.13218 0.44696 0.0
C1537 C 0.48291 0.13064 0.39846 0.0
C1538 C 0.46125 0.12449 0.4212 0.0
C1539 C 0.44521 0.12371 0.35701 0.0
C1540 C 0.42456 0.09919 0.33909 0.0
C1541 C 0.43698 0.14099 0.37349 0.0
C1542 C 0.46144 0.13091 0.29523 0.0
C1543 C 0.48318 0.13513 0.32091 0.0
C1544 C 0.50156 0.1433 0.27592 0.0
C1545 C 0.49751 0.14677 0.2022 0.0
C1546 C 0.47518 0.14167 0.17365 0.0
C1547 C 0.45691 0.13367 0.22085 0.0
H1548 H 0.91313 0.33333 0.17417 0.0
H1549 H 0.9098 0.39477 0.13652 0.0
H1550 H 0.91129 0.40304 0.27199 0.0
H1551 H 0.87923 0.31699 0.33339 0.0
H1552 H 0.89725 0.30791 0.38117 0.0
H1553 H 0.89454 0.30609 0.2811 0.0
H1554 H 0.93926 0.33066 0.28143 0.0
H1555 H 0.9421 0.33271 0.38152 0.0
H1556 H 0.95449 0.35847 0.3332 0.0
H1557 H 0.91248 0.40429 0.40871 0.0
H1558 H 0.91522 0.39968 0.54255 0.0
H1559 H 0.92099 0.3391 0.49299 0.0
C1560 C 0.91241 0.34832 0.19475 0.0
C1561 C 0.91108 0.36334 0.14586 0.0
C1562 C 0.9107 0.38309 0.17385 0.0
C1563 C 0.91154 0.38789 0.25035 0.0
C1564 C 0.91313 0.37292 0.29741 0.0
C1565 C 0.91376 0.35364 0.27102 0.0
C1566 C 0.91662 0.34102 0.33398 0.0
C1567 C 0.89566 0.31655 0.33229 0.0
C1568 C 0.93948 0.34071 0.33241 0.0
C1569 C 0.91732 0.35617 0.39979 0.0
C1570 C 0.91507 0.37433 0.37718 0.0
C1571 C 0.91441 0.39027 0.42733 0.0
C1572 C 0.91596 0.38749 0.50295 0.0
C1573 C 0.91846 0.36914 0.52724 0.0
C1574 C 0.91937 0.35341 0.47531 0.0
H1575 H 0.71763 0.14784 0.20743 0.0
H1576 H 0.65576 0.15112 0.14618 0.0
H1577 H 0.64278 0.14128 0.27151 0.0
H1578 H 0.69224 0.10125 0.32484 0.0
H1579 H 0.71654 0.11345 0.39427 0.0
H1580 H 0.72108 0.12023 0.29917 0.0
H1581 H 0.74126 0.16372 0.34086 0.0
H1582 H 0.7371 0.15705 0.43611 0.0
H1583 H 0.72642 0.1744 0.39658 0.0
H1584 H 0.63518 0.12874 0.40084 0.0
H1585 H 0.63669 0.1212 0.53269 0.0
H1586 H 0.70501 0.12945 0.5166 0.0
C1587 C 0.70146 0.14667 0.22081 0.0
C1588 C 0.68768 0.15023 0.16687 0.0
C1589 C 0.66668 0.14863 0.18657 0.0
C1590 C 0.65905 0.14284 0.25751 0.0
C1591 C 0.67279 0.13907 0.30904 0.0
C1592 C 0.69383 0.14145 0.29237 0.0
C1593 C 0.70577 0.13767 0.3597 0.0
C1594 C 0.7091 0.11692 0.3435 0.0
C1595 C 0.72901 0.15951 0.3848 0.0
C1596 C 0.68811 0.13271 0.41645 0.0
C1597 C 0.66902 0.13315 0.38538 0.0
C1598 C 0.65014 0.12856 0.42592 0.0
C1599 C 0.65107 0.12411 0.50073 0.0
C1600 C 0.67091 0.12469 0.53506 0.0
C1601 C 0.68956 0.12879 0.49185 0.0
H1602 H 0.93059 0.60101 0.14736 0.0
H1603 H 0.86585 0.5381 0.07869 0.0
H1604 H 0.86124 0.52871 0.20883 0.0
H1605 H 0.95091 0.57832 0.28404 0.0
H1606 H 0.96334 0.60329 0.34999 0.0
H1607 H 0.96105 0.60646 0.25213 0.0
H1608 H 0.93789 0.62728 0.27586 0.0
H1609 H 0.94035 0.62444 0.37401 0.0
H1610 H 0.91218 0.6136 0.32531 0.0
H1611 H 0.86493 0.52422 0.34144 0.0
H1612 H 0.8748 0.52638 0.47534 0.0
H1613 H 0.93683 0.59262 0.46296 0.0
C1614 C 0.91525 0.58552 0.16019 0.0
C1615 C 0.89852 0.57025 0.10334 0.0
C1616 C 0.8788 0.55001 0.12163 0.0
C1617 C 0.87605 0.54451 0.19528 0.0
C1618 C 0.89311 0.55953 0.24987 0.0
C1619 C 0.91217 0.57978 0.23383 0.0
C1620 C 0.92813 0.59248 0.30354 0.0
C1621 C 0.95229 0.59529 0.297 0.0
C1622 C 0.92972 0.61584 0.32068 0.0
C1623 C 0.91522 0.57591 0.3607 0.0
C1624 C 0.8951 0.55705 0.32803 0.0
C1625 C 0.88048 0.53899 0.36801 0.0
C1626 C 0.88633 0.54035 0.44396 0.0
C1627 C 0.90656 0.55967 0.47929 0.0
C1628 C 0.92129 0.57766 0.43712 0.0
H1629 H 0.47405 0.3772 0.18656 0.0
H1630 H 0.43069 0.30373 0.12958 0.0
H1631 H 0.4219 0.29808 0.26025 0.0
H1632 H 0.4983 0.37298 0.36353 0.0
H1633 H 0.49861 0.39762 0.40863 0.0
H1634 H 0.50106 0.39598 0.31007 0.0
H1635 H 0.46566 0.4016 0.28667 0.0
H1636 H 0.46295 0.403 0.3852 0.0
H1637 H 0.43861 0.38225 0.32317 0.0
H1638 H 0.41783 0.30008 0.39579 0.0
H1639 H 0.42116 0.30937 0.53123 0.0
H1640 H 0.46731 0.38147 0.50241 0.0
C1641 C 0.46278 0.35995 0.20186 0.0
C1642 C 0.45303 0.34089 0.1482 0.0
C1643 C 0.43836 0.31856 0.16998 0.0
C1644 C 0.43317 0.31518 0.24394 0.0
C1645 C 0.44281 0.3343 0.29546 0.0
C1646 C 0.45746 0.35624 0.27577 0.0
C1647 C 0.46601 0.37369 0.34288 0.0
C1648 C 0.49257 0.38577 0.35711 0.0
C1649 C 0.45781 0.39116 0.33391 0.0
C1650 C 0.45404 0.35806 0.40326 0.0
C1651 C 0.44057 0.33545 0.37438 0.0
C1652 C 0.42827 0.31772 0.41915 0.0
C1653 C 0.43022 0.32316 0.49589 0.0
C1654 C 0.44442 0.3461 0.52693 0.0
C1655 C 0.45614 0.36381 0.47988 0.0
H1656 H 0.38636 0.92029 0.53171 0.0
H1657 H 0.32806 0.92946 0.46975 0.0
H1658 H 0.31707 0.92508 0.59826 0.0
H1659 H 0.35645 0.87623 0.65118 0.0
H1660 H 0.38054 0.88547 0.72006 0.0
H1661 H 0.38578 0.89174 0.6249 0.0
H1662 H 0.41134 0.93517 0.66648 0.0
H1663 H 0.40645 0.92896 0.7619 0.0
H1664 H 0.39969 0.94923 0.72268 0.0
H1665 H 0.3109 0.91797 0.73045 0.0
H1666 H 0.31048 0.90944 0.86149 0.0
H1667 H 0.3714 0.90274 0.8417 0.0
C1668 C 0.37166 0.92194 0.5459 0.0
C1669 C 0.35839 0.92583 0.4909 0.0
C1670 C 0.33883 0.92713 0.51113 0.0
C1671 C 0.33231 0.92446 0.58401 0.0
C1672 C 0.34536 0.92021 0.63655 0.0
C1673 C 0.36468 0.91901 0.61892 0.0
C1674 C 0.37484 0.91313 0.68603 0.0
C1675 C 0.37437 0.89028 0.66953 0.0
C1676 C 0.39955 0.9328 0.71072 0.0
C1677 C 0.35803 0.91094 0.74336 0.0
C1678 C 0.34129 0.91528 0.71331 0.0
C1679 C 0.32392 0.91455 0.75466 0.0
C1680 C 0.32377 0.9096 0.82906 0.0
C1681 C 0.34073 0.9052 0.86172 0.0
C1682 C 0.35801 0.9057 0.81795 0.0
H1683 H 0.12536 0.46923 0.8646 0.0
H1684 H 0.18478 0.4598 0.8996 0.0
H1685 H 0.19208 0.46511 0.76775 0.0
H1686 H 0.10628 0.43887 0.67775 0.0
H1687 H 0.09718 0.45805 0.64338 0.0
H1688 H 0.09622 0.45302 0.74045 0.0
H1689 H 0.12172 0.49686 0.77532 0.0
H1690 H 0.12301 0.50199 0.67836 0.0
H1691 H 0.14943 0.51261 0.73763 0.0
H1692 H 0.19466 0.47372 0.63609 0.0
H1693 H 0.19001 0.48091 0.50615 0.0
H1694 H 0.1278 0.48317 0.55053 0.0
C1695 C 0.13973 0.46805 0.84408 0.0
C1696 C 0.15456 0.46414 0.89227 0.0
C1697 C 0.17319 0.46272 0.86366 0.0
C1698 C 0.17754 0.46581 0.7889 0.0
C1699 C 0.16294 0.47008 0.74314 0.0
C1700 C 0.14419 0.47084 0.76899 0.0
C1701 C 0.13115 0.47545 0.70706 0.0
C1702 C 0.10623 0.45513 0.69123 0.0
C1703 C 0.13135 0.49808 0.72574 0.0
C1704 C 0.1457 0.4774 0.6428 0.0
C1705 C 0.16404 0.47441 0.66548 0.0
C1706 C 0.18028 0.4759 0.61742 0.0
C1707 C 0.17752 0.48012 0.54371 0.0
C1708 C 0.15855 0.4826 0.51814 0.0
C1709 C 0.14249 0.48138 0.56859 0.0
H1710 H 0.59621 0.72847 0.82366 0.0
H1711 H 0.565 0.65612 0.8596 0.0
H1712 H 0.56962 0.6474 0.72977 0.0
H1713 H 0.56803 0.71886 0.63855 0.0
H1714 H 0.5925 0.74273 0.60311 0.0
H1715 H 0.58798 0.7436 0.70031 0.0
H1716 H 0.62944 0.75094 0.73403 0.0
H1717 H 0.63394 0.74975 0.63679 0.0
H1718 H 0.63768 0.73099 0.69652 0.0
H1719 H 0.57791 0.64624 0.59819 0.0
H1720 H 0.58408 0.65167 0.46587 0.0
H1721 H 0.6077 0.72432 0.50905 0.0
C1722 C 0.59028 0.71082 0.80379 0.0
C1723 C 0.58021 0.69294 0.85152 0.0
C1724 C 0.57255 0.67003 0.82377 0.0
C1725 C 0.5753 0.66493 0.75029 0.0
C1726 C 0.58544 0.68288 0.70471 0.0
C1727 C 0.59242 0.70531 0.72963 0.0
C1728 C 0.60142 0.72102 0.66709 0.0
C1729 C 0.58659 0.73221 0.65133 0.0
C1730 C 0.62715 0.73925 0.68468 0.0
C1731 C 0.59822 0.70384 0.6033 0.0
C1732 C 0.58941 0.68205 0.62699 0.0
C1733 C 0.58475 0.6632 0.57882 0.0
C1734 C 0.58841 0.66649 0.50377 0.0
C1735 C 0.59636 0.68839 0.4772 0.0
C1736 C 0.60178 0.70742 0.52798 0.0
H1737 H 0.36935 0.45489 0.84639 0.0
H1738 H 0.32552 0.48471 0.87854 0.0
H1739 H 0.32788 0.49389 0.74824 0.0
H1740 H 0.40689 0.49518 0.72624 0.0
H1741 H 0.40919 0.47451 0.66538 0.0
H1742 H 0.40359 0.46917 0.76096 0.0
H1743 H 0.36659 0.4303 0.71918 0.0
H1744 H 0.37221 0.43536 0.62344 0.0
H1745 H 0.34473 0.4296 0.65461 0.0
H1746 H 0.33644 0.50209 0.6184 0.0
H1747 H 0.34764 0.50546 0.48998 0.0
H1748 H 0.38508 0.46942 0.53509 0.0
C1749 C 0.36001 0.46304 0.82547 0.0
C1750 C 0.34723 0.46908 0.87281 0.0
C1751 C 0.33537 0.47987 0.84354 0.0
C1752 C 0.33666 0.48525 0.76951 0.0
C1753 C 0.34973 0.47957 0.72471 0.0
C1754 C 0.36092 0.46839 0.75081 0.0
C1755 C 0.37366 0.46423 0.68972 0.0
C1756 C 0.39989 0.47651 0.71193 0.0
C1757 C 0.3637 0.43833 0.67061 0.0
C1758 C 0.36812 0.47517 0.62599 0.0
C1759 C 0.35435 0.48396 0.64802 0.0
C1760 C 0.34709 0.49516 0.60023 0.0
C1761 C 0.35365 0.49709 0.52739 0.0
C1762 C 0.36728 0.48779 0.50242 0.0
C1763 C 0.37476 0.47682 0.55272 0.0
H1764 H 0.59192 0.90398 0.83721 0.0
H1765 H 0.52675 0.90138 0.87056 0.0
H1766 H 0.52401 0.91015 0.74083 0.0
H1767 H 0.61416 0.94995 0.71913 0.0
H1768 H 0.62658 0.93784 0.65802 0.0
H1769 H 0.62363 0.93104 0.75344 0.0
H1770 H 0.60001 0.88754 0.71093 0.0
H1771 H 0.60325 0.89422 0.61547 0.0
H1772 H 0.57472 0.8768 0.64603 0.0
H1773 H 0.52955 0.92191 0.61122 0.0
H1774 H 0.53955 0.92962 0.48232 0.0
H1775 H 0.59983 0.92216 0.5273 0.0
C1776 C 0.57692 0.90492 0.81669 0.0
C1777 C 0.5595 0.90197 0.86397 0.0
C1778 C 0.5402 0.90342 0.83529 0.0
C1779 C 0.53858 0.90858 0.7618 0.0
C1780 C 0.55626 0.91194 0.71714 0.0
C1781 C 0.57482 0.90968 0.74274 0.0
C1782 C 0.59105 0.91352 0.68198 0.0
C1783 C 0.61529 0.93432 0.70452 0.0
C1784 C 0.59232 0.89172 0.66244 0.0
C1785 C 0.57876 0.91842 0.61858 0.0
C1786 C 0.55894 0.91777 0.64073 0.0
C1787 C 0.5449 0.92224 0.593 0.0
C1788 C 0.55084 0.92677 0.51996 0.0
C1789 C 0.57044 0.92649 0.4947 0.0
C1790 C 0.58476 0.92255 0.54512 0.0
H1791 H 0.10958 0.66207 0.50414 0.0
H1792 H 0.17515 0.72373 0.48044 0.0
H1793 H 0.17875 0.73509 0.61449 0.0
H1794 H 0.08889 0.68582 0.64496 0.0
H1795 H 0.07701 0.66078 0.69684 0.0
H1796 H 0.07858 0.65776 0.598 0.0
H1797 H 0.10203 0.63702 0.61856 0.0
H1798 H 0.10021 0.6397 0.71726 0.0
H1799 H 0.12813 0.65071 0.68077 0.0
H1800 H 0.17469 0.74065 0.74844 0.0
H1801 H 0.16681 0.73711 0.88024 0.0
H1802 H 0.10579 0.67009 0.82206 0.0
C1803 C 0.12467 0.67792 0.52753 0.0
C1804 C 0.14207 0.69213 0.48231 0.0
C1805 C 0.16171 0.7126 0.51444 0.0
C1806 C 0.16381 0.71928 0.59029 0.0
C1807 C 0.1463 0.70507 0.63341 0.0
C1808 C 0.12735 0.68456 0.60382 0.0
C1809 C 0.11193 0.67176 0.66403 0.0
C1810 C 0.08766 0.66887 0.6501 0.0
C1811 C 0.1105 0.64842 0.67054 0.0
C1812 C 0.12523 0.68831 0.73184 0.0
C1813 C 0.14469 0.70762 0.71234 0.0
C1814 C 0.1596 0.72555 0.76459 0.0
C1815 C 0.1549 0.72343 0.83925 0.0
C1816 C 0.13573 0.70333 0.86116 0.0
C1817 C 0.12053 0.68566 0.80664 0.0
loop_
_geom_bond_atom_site_label_1
_geom_bond_atom_site_label_2
_geom_bond_distance
_geom_bond_site_symmetry_2
_ccdc_geom_bond_type
Dy0 O4 2.398 . S
Dy0 O5 2.491 1_455 S
Dy0 O6 2.403 . S
Dy0 O7 2.664 . S
Dy0 O11 2.328 . S
Dy0 O15 2.310 1_455 S
Dy0 O16 2.351 . S
C1 O12 1.185 1_455 S
C1 O13 1.355 . S
C2 O4 1.185 . S
C2 O5 1.355 1_455 S
Dy3 O7 2.310 1_655 S
Dy3 O10 2.351 . S
Dy3 O12 2.398 . S
Dy3 O13 2.491 1_655 S
Dy3 O14 2.403 . S
Dy3 O15 2.664 . S
Dy3 O17 2.326 1_655 S
O4 Dy0 2.398 . S
O4 C2 1.185 . S
O5 Dy0 2.491 1_655 S
O5 C2 1.355 1_655 S
O6 Dy0 2.403 . S
O6 C8 1.254 . S
O7 Dy0 2.664 . S
O7 Dy3 2.310 1_455 S
O7 C8 1.268 . S
C8 O6 1.254 . S
C8 O7 1.268 . S
C9 O14 1.254 . S
C9 O15 1.268 . S
O10 Dy3 2.351 . S
O10 C18 1.249 . S
O11 Dy0 2.328 . S
O11 C18 1.258 1_455 S
O12 C1 1.185 1_655 S
O12 Dy3 2.398 . S
O13 C1 1.355 . S
O13 Dy3 2.491 1_455 S
O14 Dy3 2.403 . S
O14 C9 1.254 . S
O15 Dy0 2.310 1_655 S
O15 Dy3 2.664 . S
O15 C9 1.268 . S
O16 Dy0 2.351 . S
O16 C19 1.249 . S
O17 Dy3 2.326 1_455 S
O17 C19 1.267 . S
C18 O10 1.249 . S
C18 O11 1.258 1_655 S
C19 O16 1.249 . S
C19 O17 1.267 . S
Dy20 O24 2.398 . S
Dy20 O25 2.491 . S
Dy20 O26 2.403 . S
Dy20 O27 2.664 . S
Dy20 O31 2.326 . S
Dy20 O35 2.310 . S
Dy20 O36 2.351 . S
C21 O32 1.185 . S
C21 O33 1.355 . S
C22 O24 1.185 . S
C22 O25 1.355 . S
Dy23 O27 2.310 . S
Dy23 O30 2.351 . S
Dy23 O32 2.398 . S
Dy23 O33 2.491 . S
Dy23 O34 2.403 . S
Dy23 O35 2.664 . S
Dy23 O37 2.326 . S
O24 Dy20 2.398 . S
O24 C22 1.185 . S
O25 Dy20 2.491 . S
O25 C22 1.355 . S
O26 Dy20 2.403 . S
O26 C28 1.254 . S
O27 Dy20 2.664 . S
O27 Dy23 2.310 . S
O27 C28 1.268 . S
C28 O26 1.254 . S
C28 O27 1.268 . S
C29 O34 1.254 . S
C29 O35 1.268 . S
O30 Dy23 2.351 . S
O30 C38 1.249 . S
O31 Dy20 2.326 . S
O31 C38 1.267 . S
O32 C21 1.185 . S
O32 Dy23 2.398 . S
O33 C21 1.355 . S
O33 Dy23 2.491 . S
O34 Dy23 2.403 . S
O34 C29 1.254 . S
O35 Dy20 2.310 . S
O35 Dy23 2.664 . S
O35 C29 1.268 . S
O36 Dy20 2.351 . S
O36 C39 1.249 . S
O37 Dy23 2.326 . S
O37 C39 1.267 . S
C38 O30 1.249 . S
C38 O31 1.267 . S
C39 O36 1.249 . S
C39 O37 1.267 . S
Dy40 O44 2.399 1_545 S
Dy40 O45 2.491 . S
Dy40 O46 2.403 1_545 S
Dy40 O47 2.664 1_545 S
Dy40 O51 2.326 . S
Dy40 O55 2.310 . S
Dy40 O56 2.351 1_545 S
C41 O52 1.185 . S
C41 O53 1.355 1_545 S
C42 O44 1.177 1_545 S
C42 O45 1.355 . S
Dy43 O47 2.310 1_545 S
Dy43 O50 2.351 . S
Dy43 O52 2.398 . S
Dy43 O53 2.491 1_545 S
Dy43 O54 2.403 . S
Dy43 O55 2.664 . S
Dy43 O57 2.382 . S
O44 Dy40 2.399 1_565 S
O44 C42 1.177 1_565 S
O45 Dy40 2.491 . S
O45 C42 1.355 . S
O46 Dy40 2.403 1_565 S
O46 C48 1.254 . S
O47 Dy40 2.664 1_565 S
O47 Dy43 2.310 1_565 S
O47 C48 1.268 . S
C48 O46 1.254 . S
C48 O47 1.268 . S
C49 O54 1.254 . S
C49 O55 1.268 . S
O50 Dy43 2.351 . S
O50 C58 1.249 . S
O51 Dy40 2.326 . S
O51 C58 1.267 . S
O52 C41 1.185 . S
O52 Dy43 2.398 . S
O53 C41 1.355 1_565 S
O53 Dy43 2.491 1_565 S
O54 Dy43 2.403 . S
O54 C49 1.254 . S
O55 Dy40 2.310 . S
O55 Dy43 2.664 . S
O55 C49 1.268 . S
O56 Dy40 2.351 1_565 S
O56 C59 1.249 . S
O57 Dy43 2.382 . S
O57 C59 1.218 1_545 S
C58 O50 1.249 . S
C58 O51 1.267 . S
C59 O56 1.249 . S
C59 O57 1.218 1_565 S
Dy60 O64 2.398 . S
Dy60 O65 2.491 1_455 S
Dy60 O66 2.403 . S
Dy60 O67 2.664 . S
Dy60 O71 2.326 1_455 S
Dy60 O75 2.310 1_455 S
Dy60 O76 2.351 . S
C61 O72 1.185 1_455 S
C61 O73 1.355 . S
C62 O64 1.185 . S
C62 O65 1.355 1_455 S
Dy63 O67 2.310 1_655 S
Dy63 O70 2.351 . S
Dy63 O72 2.398 . S
Dy63 O73 2.491 1_655 S
Dy63 O74 2.403 . S
Dy63 O75 2.664 . S
Dy63 O77 2.326 1_655 S
O64 Dy60 2.398 . S
O64 C62 1.185 . S
O65 Dy60 2.491 1_655 S
O65 C62 1.355 1_655 S
O66 Dy60 2.403 . S
O66 C68 1.254 . S
O67 Dy60 2.664 . S
O67 Dy63 2.310 1_455 S
O67 C68 1.268 . S
C68 O66 1.254 . S
C68 O67 1.268 . S
C69 O74 1.254 . S
C69 O75 1.268 . S
O70 Dy63 2.351 . S
O70 C78 1.249 . S
O71 Dy60 2.326 1_655 S
O71 C78 1.268 . S
O72 C61 1.185 1_655 S
O72 Dy63 2.398 . S
O73 C61 1.355 . S
O73 Dy63 2.491 1_455 S
O74 Dy63 2.403 . S
O74 C69 1.254 . S
O75 Dy60 2.310 1_655 S
O75 Dy63 2.664 . S
O75 C69 1.268 . S
O76 Dy60 2.351 . S
O76 C79 1.249 . S
O77 Dy63 2.326 1_455 S
O77 C79 1.267 . S
C78 O70 1.249 . S
C78 O71 1.268 . S
C79 O76 1.249 . S
C79 O77 1.267 . S
Dy80 O84 2.398 . S
Dy80 O85 2.491 . S
Dy80 O86 2.403 . S
Dy80 O87 2.664 . S
Dy80 O91 2.326 . S
Dy80 O95 2.310 . S
Dy80 O96 2.351 . S
C81 O92 1.185 . S
C81 O93 1.355 . S
C82 O84 1.185 . S
C82 O85 1.355 . S
Dy83 O87 2.310 . S
Dy83 O90 2.351 . S
Dy83 O92 2.398 . S
Dy83 O93 2.491 . S
Dy83 O94 2.403 . S
Dy83 O95 2.664 . S
Dy83 O97 2.326 . S
O84 Dy80 2.398 . S
O84 C82 1.185 . S
O85 Dy80 2.491 . S
O85 C82 1.355 . S
O86 Dy80 2.403 . S
O86 C88 1.254 . S
O87 Dy80 2.664 . S
O87 Dy83 2.310 . S
O87 C88 1.268 . S
C88 O86 1.254 . S
C88 O87 1.268 . S
C89 O94 1.254 . S
C89 O95 1.268 . S
O90 Dy83 2.351 . S
O90 C98 1.249 . S
O91 Dy80 2.326 . S
O91 C98 1.267 . S
O92 C81 1.185 . S
O92 Dy83 2.398 . S
O93 C81 1.355 . S
O93 Dy83 2.491 . S
O94 Dy83 2.403 . S
O94 C89 1.254 . S
O95 Dy80 2.310 . S
O95 Dy83 2.664 . S
O95 C89 1.268 . S
O96 Dy80 2.351 . S
O96 C99 1.249 . S
O97 Dy83 2.326 . S
O97 C99 1.267 . S
C98 O90 1.249 . S
C98 O91 1.267 . S
C99 O96 1.249 . S
C99 O97 1.267 . S
Dy100 O104 2.398 . S
Dy100 O105 2.491 . S
Dy100 O106 2.403 1_545 S
Dy100 O107 2.664 1_545 S
Dy100 O111 2.326 . S
Dy100 O115 2.310 . S
Dy100 O116 2.351 1_545 S
C101 O112 1.185 . S
C101 O113 1.355 1_545 S
C102 O104 1.185 . S
C102 O105 1.355 . S
Dy103 O107 2.310 1_545 S
Dy103 O110 2.351 . S
Dy103 O112 2.398 . S
Dy103 O113 2.491 1_545 S
Dy103 O114 2.403 . S
Dy103 O115 2.664 . S
Dy103 O117 2.326 . S
O104 Dy100 2.398 . S
O104 C102 1.185 . S
O105 Dy100 2.491 . S
O105 C102 1.355 . S
O106 Dy100 2.403 1_565 S
O106 C108 1.254 . S
O107 Dy100 2.664 1_565 S
O107 Dy103 2.310 1_565 S
O107 C108 1.268 . S
C108 O106 1.254 . S
C108 O107 1.268 . S
C109 O114 1.254 . S
C109 O115 1.268 . S
O110 Dy103 2.351 . S
O110 C118 1.249 . S
O111 Dy100 2.326 . S
O111 C118 1.267 . S
O112 C101 1.185 . S
O112 Dy103 2.398 . S
O113 C101 1.355 1_565 S
O113 Dy103 2.491 1_565 S
O114 Dy103 2.403 . S
O114 C109 1.254 . S
O115 Dy100 2.310 . S
O115 Dy103 2.664 . S
O115 C109 1.268 . S
O116 Dy100 2.351 1_565 S
O116 C119 1.249 . S
O117 Dy103 2.326 . S
O117 C119 1.267 1_545 S
C118 O110 1.249 . S
C118 O111 1.267 . S
C119 O116 1.249 . S
C119 O117 1.267 1_565 S
Dy120 O124 2.398 . S
Dy120 O125 2.491 . S
Dy120 O126 2.403 . S
Dy120 O127 2.664 . S
Dy120 O131 2.326 . S
Dy120 O135 2.310 . S
Dy120 O136 2.351 . S
C121 O132 1.185 1_554 S
C121 O133 1.355 1_554 S
C122 O124 1.185 . S
C122 O125 1.355 . S
Dy123 O127 2.310 . S
Dy123 O130 2.351 . S
Dy123 O132 2.398 . S
Dy123 O133 2.491 . S
Dy123 O134 2.403 . S
Dy123 O135 2.664 . S
Dy123 O137 2.326 . S
O124 Dy120 2.398 . S
O124 C122 1.185 . S
O125 Dy120 2.491 . S
O125 C122 1.355 . S
O126 Dy120 2.403 . S
O126 C128 1.254 . S
O127 Dy120 2.664 . S
O127 Dy123 2.310 . S
O127 C128 1.268 . S
C128 O126 1.254 . S
C128 O127 1.268 . S
C129 O134 1.254 . S
C129 O135 1.268 . S
O130 Dy123 2.351 . S
O130 C138 1.249 . S
O131 Dy120 2.326 . S
O131 C138 1.267 . S
O132 C121 1.185 1_556 S
O132 Dy123 2.398 . S
O133 C121 1.355 1_556 S
O133 Dy123 2.491 . S
O134 Dy123 2.403 . S
O134 C129 1.254 . S
O135 Dy120 2.310 . S
O135 Dy123 2.664 . S
O135 C129 1.268 . S
O136 Dy120 2.351 . S
O136 C139 1.249 . S
O137 Dy123 2.326 . S
O137 C139 1.267 . S
C138 O130 1.249 . S
C138 O131 1.267 . S
C139 O136 1.249 . S
C139 O137 1.267 . S
Dy140 O144 2.398 . S
Dy140 O145 2.491 . S
Dy140 O146 2.403 . S
Dy140 O147 2.664 . S
Dy140 O151 2.326 . S
Dy140 O155 2.310 . S
Dy140 O156 2.351 . S
C141 O152 1.185 . S
C141 O153 1.355 . S
C142 O144 1.185 . S
C142 O145 1.355 . S
Dy143 O147 2.310 . S
Dy143 O150 2.351 . S
Dy143 O152 2.398 . S
Dy143 O153 2.491 . S
Dy143 O154 2.403 . S
Dy143 O155 2.664 . S
Dy143 O157 2.326 . S
O144 Dy140 2.398 . S
O144 C142 1.185 . S
O145 Dy140 2.491 . S
O145 C142 1.355 . S
O146 Dy140 2.403 . S
O146 C148 1.254 . S
O147 Dy140 2.664 . S
O147 Dy143 2.310 . S
O147 C148 1.268 . S
C148 O146 1.254 . S
C148 O147 1.268 . S
C149 O154 1.254 . S
C149 O155 1.268 . S
O150 Dy143 2.351 . S
O150 C158 1.249 . S
O151 Dy140 2.326 . S
O151 C158 1.267 . S
O152 C141 1.185 . S
O152 Dy143 2.398 . S
O153 C141 1.355 . S
O153 Dy143 2.491 . S
O154 Dy143 2.403 . S
O154 C149 1.254 . S
O155 Dy140 2.310 . S
O155 Dy143 2.664 . S
O155 C149 1.268 . S
O156 Dy140 2.351 . S
O156 C159 1.249 . S
O157 Dy143 2.326 . S
O157 C159 1.267 . S
C158 O150 1.249 . S
C158 O151 1.267 . S
C159 O156 1.249 . S
C159 O157 1.267 . S
Dy160 O164 2.398 . S
Dy160 O165 2.491 . S
Dy160 O166 2.403 . S
Dy160 O167 2.664 . S
Dy160 O171 2.326 . S
Dy160 O175 2.310 . S
Dy160 O176 2.351 . S
C161 O172 1.185 1_554 S
C161 O173 1.355 1_554 S
C162 O164 1.185 . S
C162 O165 1.355 . S
Dy163 O167 2.310 . S
Dy163 O170 2.351 . S
Dy163 O172 2.398 . S
Dy163 O173 2.491 . S
Dy163 O174 2.403 . S
Dy163 O175 2.664 . S
Dy163 O177 2.326 . S
O164 Dy160 2.398 . S
O164 C162 1.185 . S
O165 Dy160 2.491 . S
O165 C162 1.355 . S
O166 Dy160 2.403 . S
O166 C168 1.254 . S
O167 Dy160 2.664 . S
O167 Dy163 2.310 . S
O167 C168 1.268 . S
C168 O166 1.254 . S
C168 O167 1.268 . S
C169 O174 1.254 . S
C169 O175 1.268 . S
O170 Dy163 2.351 . S
O170 C178 1.249 . S
O171 Dy160 2.326 . S
O171 C178 1.267 . S
O172 C161 1.185 1_556 S
O172 Dy163 2.398 . S
O173 C161 1.355 1_556 S
O173 Dy163 2.491 . S
O174 Dy163 2.403 . S
O174 C169 1.254 . S
O175 Dy160 2.310 . S
O175 Dy163 2.664 . S
O175 C169 1.268 . S
O176 Dy160 2.351 . S
O176 C179 1.249 . S
O177 Dy163 2.326 . S
O177 C179 1.267 . S
C178 O170 1.249 . S
C178 O171 1.267 . S
C179 O176 1.249 . S
C179 O177 1.267 . S
Dy180 O184 2.398 1_556 S
Dy180 O185 2.491 . S
Dy180 O186 2.403 . S
Dy180 O187 2.664 . S
Dy180 O191 2.326 . S
Dy180 O195 2.310 . S
Dy180 O196 2.351 . S
C181 O192 1.185 . S
C181 O193 1.355 . S
C182 O184 1.185 . S
C182 O185 1.355 1_554 S
Dy183 O187 2.310 . S
Dy183 O190 2.351 . S
Dy183 O192 2.398 . S
Dy183 O193 2.491 . S
Dy183 O194 2.403 . S
Dy183 O195 2.664 . S
Dy183 O197 2.326 . S
O184 Dy180 2.398 1_554 S
O184 C182 1.185 . S
O185 Dy180 2.491 . S
O185 C182 1.355 1_556 S
O186 Dy180 2.403 . S
O186 C188 1.254 . S
O187 Dy180 2.664 . S
O187 Dy183 2.310 . S
O187 C188 1.268 . S
C188 O186 1.254 . S
C188 O187 1.268 . S
C189 O194 1.254 . S
C189 O195 1.268 . S
O190 Dy183 2.351 . S
O190 C198 1.249 . S
O191 Dy180 2.326 . S
O191 C198 1.267 . S
O192 C181 1.185 . S
O192 Dy183 2.398 . S
O193 C181 1.355 . S
O193 Dy183 2.491 . S
O194 Dy183 2.403 . S
O194 C189 1.254 . S
O195 Dy180 2.310 . S
O195 Dy183 2.664 . S
O195 C189 1.268 . S
O196 Dy180 2.351 . S
O196 C199 1.249 . S
O197 Dy183 2.326 . S
O197 C199 1.267 . S
C198 O190 1.249 . S
C198 O191 1.267 . S
C199 O196 1.249 . S
C199 O197 1.267 . S
Dy200 O204 2.398 1_556 S
Dy200 O205 2.491 1_556 S
Dy200 O206 2.403 . S
Dy200 O207 2.664 . S
Dy200 O211 2.326 . S
Dy200 O215 2.310 . S
Dy200 O216 2.351 . S
C201 O212 1.185 . S
C201 O213 1.355 . S
C202 O204 1.185 . S
C202 O205 1.355 . S
Dy203 O207 2.310 . S
Dy203 O210 2.351 . S
Dy203 O212 2.398 . S
Dy203 O213 2.491 . S
Dy203 O214 2.403 . S
Dy203 O215 2.664 . S
Dy203 O217 2.326 . S
O204 Dy200 2.398 1_554 S
O204 C202 1.185 . S
O205 Dy200 2.491 1_554 S
O205 C202 1.355 . S
O206 Dy200 2.403 . S
O206 C208 1.254 . S
O207 Dy200 2.664 . S
O207 Dy203 2.310 . S
O207 C208 1.268 . S
C208 O206 1.254 . S
C208 O207 1.268 . S
C209 O214 1.254 . S
C209 O215 1.268 . S
O210 Dy203 2.351 . S
O210 C218 1.249 . S
O211 Dy200 2.326 . S
O211 C218 1.267 . S
O212 C201 1.185 . S
O212 Dy203 2.398 . S
O213 C201 1.355 . S
O213 Dy203 2.491 . S
O214 Dy203 2.403 . S
O214 C209 1.254 . S
O215 Dy200 2.310 . S
O215 Dy203 2.664 . S
O215 C209 1.268 . S
O216 Dy200 2.351 . S
O216 C219 1.249 . S
O217 Dy203 2.326 . S
O217 C219 1.267 . S
C218 O210 1.249 . S
C218 O211 1.267 . S
C219 O216 1.249 . S
C219 O217 1.267 . S
Dy220 O224 2.398 1_556 S
Dy220 O225 2.501 . S
Dy220 O226 2.403 . S
Dy220 O227 2.664 . S
Dy220 O231 2.326 . S
Dy220 O235 2.310 . S
Dy220 O236 2.351 . S
C221 O232 1.185 . S
C221 O233 1.355 . S
C222 O224 1.185 . S
C222 O225 1.348 1_554 S
Dy223 O227 2.310 . S
Dy223 O230 2.351 . S
Dy223 O232 2.398 . S
Dy223 O233 2.491 . S
Dy223 O234 2.403 . S
Dy223 O235 2.664 . S
Dy223 O237 2.326 . S
O224 Dy220 2.398 1_554 S
O224 C222 1.185 . S
O225 Dy220 2.501 . S
O225 C222 1.348 1_556 S
O226 Dy220 2.403 . S
O226 C228 1.254 . S
O227 Dy220 2.664 . S
O227 Dy223 2.310 . S
O227 C228 1.268 . S
C228 O226 1.254 . S
C228 O227 1.268 . S
C229 O234 1.254 . S
C229 O235 1.268 . S
O230 Dy223 2.351 . S
O230 C238 1.249 . S
O231 Dy220 2.326 . S
O231 C238 1.267 . S
O232 C221 1.185 . S
O232 Dy223 2.398 . S
O233 C221 1.355 . S
O233 Dy223 2.491 . S
O234 Dy223 2.403 . S
O234 C229 1.254 . S
O235 Dy220 2.310 . S
O235 Dy223 2.664 . S
O235 C229 1.268 . S
O236 Dy220 2.351 . S
O236 C239 1.249 . S
O237 Dy223 2.326 . S
O237 C239 1.267 . S
C238 O230 1.249 . S
C238 O231 1.267 . S
C239 O236 1.249 . S
C239 O237 1.267 . S
Dy240 O244 2.398 . S
Dy240 O245 2.491 . S
Dy240 O246 2.403 . S
Dy240 O247 2.664 . S
Dy240 O251 2.326 . S
Dy240 O255 2.310 . S
Dy240 O256 2.351 . S
C241 O252 1.185 . S
C241 O253 1.355 . S
C242 O244 1.185 . S
C242 O245 1.355 . S
Dy243 O247 2.310 . S
Dy243 O250 2.351 . S
Dy243 O252 2.398 1_554 S
Dy243 O253 2.491 1_554 S
Dy243 O254 2.403 . S
Dy243 O255 2.664 . S
Dy243 O257 2.326 . S
O244 Dy240 2.398 . S
O244 C242 1.185 . S
O245 Dy240 2.491 . S
O245 C242 1.355 . S
O246 Dy240 2.403 . S
O246 C248 1.254 . S
O247 Dy240 2.664 . S
O247 Dy243 2.310 . S
O247 C248 1.268 . S
C248 O246 1.254 . S
C248 O247 1.268 . S
C249 O254 1.254 . S
C249 O255 1.268 . S
O250 Dy243 2.351 . S
O250 C258 1.249 . S
O251 Dy240 2.326 . S
O251 C258 1.267 . S
O252 C241 1.185 . S
O252 Dy243 2.398 1_556 S
O253 C241 1.355 . S
O253 Dy243 2.491 1_556 S
O254 Dy243 2.403 . S
O254 C249 1.254 . S
O255 Dy240 2.310 . S
O255 Dy243 2.664 . S
O255 C249 1.268 . S
O256 Dy240 2.351 . S
O256 C259 1.249 . S
O257 Dy243 2.326 . S
O257 C259 1.267 . S
C258 O250 1.249 . S
C258 O251 1.267 . S
C259 O256 1.249 . S
C259 O257 1.267 . S
Dy260 O264 2.398 1_554 S
Dy260 O265 2.491 1_554 S
Dy260 O266 2.403 . S
Dy260 O267 2.664 . S
Dy260 O271 2.326 . S
Dy260 O275 2.310 . S
Dy260 O276 2.351 . S
C261 O272 1.185 . S
C261 O273 1.355 . S
C262 O264 1.185 . S
C262 O265 1.355 . S
Dy263 O267 2.310 . S
Dy263 O270 2.351 . S
Dy263 O272 2.398 . S
Dy263 O273 2.491 . S
Dy263 O274 2.403 . S
Dy263 O275 2.664 . S
Dy263 O277 2.326 . S
O264 Dy260 2.398 1_556 S
O264 C262 1.185 . S
O265 Dy260 2.491 1_556 S
O265 C262 1.355 . S
O266 Dy260 2.403 . S
O266 C268 1.254 . S
O267 Dy260 2.664 . S
O267 Dy263 2.310 . S
O267 C268 1.268 . S
C268 O266 1.254 . S
C268 O267 1.268 . S
C269 O274 1.254 . S
C269 O275 1.268 . S
O270 Dy263 2.351 . S
O270 C278 1.249 . S
O271 Dy260 2.326 . S
O271 C278 1.267 . S
O272 C261 1.185 . S
O272 Dy263 2.398 . S
O273 C261 1.355 . S
O273 Dy263 2.491 . S
O274 Dy263 2.403 . S
O274 C269 1.254 . S
O275 Dy260 2.310 . S
O275 Dy263 2.664 . S
O275 C269 1.268 . S
O276 Dy260 2.351 . S
O276 C279 1.249 . S
O277 Dy263 2.326 . S
O277 C279 1.267 . S
C278 O270 1.249 . S
C278 O271 1.267 . S
C279 O276 1.249 . S
C279 O277 1.267 . S
Dy280 O284 2.398 . S
Dy280 O285 2.491 . S
Dy280 O286 2.403 . S
Dy280 O287 2.664 . S
Dy280 O291 2.326 . S
Dy280 O295 2.310 . S
Dy280 O296 2.351 . S
C281 O292 1.185 . S
C281 O293 1.355 . S
C282 O284 1.185 . S
C282 O285 1.355 . S
Dy283 O287 2.310 . S
Dy283 O290 2.351 . S
Dy283 O292 2.398 1_554 S
Dy283 O293 2.491 1_554 S
Dy283 O294 2.403 . S
Dy283 O295 2.664 . S
Dy283 O297 2.326 . S
O284 Dy280 2.398 . S
O284 C282 1.185 . S
O285 Dy280 2.491 . S
O285 C282 1.355 . S
O286 Dy280 2.403 . S
O286 C288 1.254 . S
O287 Dy280 2.664 . S
O287 Dy283 2.310 . S
O287 C288 1.268 . S
C288 O286 1.254 . S
C288 O287 1.268 . S
C289 O294 1.254 . S
C289 O295 1.268 . S
O290 Dy283 2.351 . S
O290 C298 1.249 . S
O291 Dy280 2.326 . S
O291 C298 1.267 . S
O292 C281 1.185 . S
O292 Dy283 2.398 1_556 S
O293 C281 1.355 . S
O293 Dy283 2.491 1_556 S
O294 Dy283 2.403 . S
O294 C289 1.254 . S
O295 Dy280 2.310 . S
O295 Dy283 2.664 . S
O295 C289 1.268 . S
O296 Dy280 2.351 . S
O296 C299 1.249 . S
O297 Dy283 2.326 . S
O297 C299 1.267 . S
C298 O290 1.249 . S
C298 O291 1.267 . S
C299 O296 1.249 . S
C299 O297 1.267 . S
Dy300 O304 2.398 . S
Dy300 O305 2.491 . S
Dy300 O306 2.403 . S
Dy300 O307 2.664 . S
Dy300 O311 2.326 . S
Dy300 O315 2.310 . S
Dy300 O316 2.351 . S
C301 O312 1.185 . S
C301 O313 1.355 . S
C302 O304 1.185 . S
C302 O305 1.355 . S
Dy303 O307 2.310 . S
Dy303 O310 2.351 . S
Dy303 O312 2.398 1_554 S
Dy303 O313 2.491 1_554 S
Dy303 O314 2.403 . S
Dy303 O315 2.664 . S
Dy303 O317 2.326 . S
O304 Dy300 2.398 . S
O304 C302 1.185 . S
O305 Dy300 2.491 . S
O305 C302 1.355 . S
O306 Dy300 2.403 . S
O306 C308 1.254 . S
O307 Dy300 2.664 . S
O307 Dy303 2.310 . S
O307 C308 1.268 . S
C308 O306 1.254 . S
C308 O307 1.268 . S
C309 O314 1.254 . S
C309 O315 1.268 . S
O310 Dy303 2.351 . S
O310 C318 1.249 . S
O311 Dy300 2.326 . S
O311 C318 1.267 . S
O312 C301 1.185 . S
O312 Dy303 2.398 1_556 S
O313 C301 1.355 . S
O313 Dy303 2.491 1_556 S
O314 Dy303 2.403 . S
O314 C309 1.254 . S
O315 Dy300 2.310 . S
O315 Dy303 2.664 . S
O315 C309 1.268 . S
O316 Dy300 2.351 . S
O316 C319 1.249 . S
O317 Dy303 2.326 . S
O317 C319 1.267 . S
C318 O310 1.249 . S
C318 O311 1.267 . S
C319 O316 1.249 . S
C319 O317 1.267 . S
Dy320 O324 2.398 . S
Dy320 O325 2.491 . S
Dy320 O326 2.403 . S
Dy320 O327 2.664 . S
Dy320 O331 2.326 . S
Dy320 O335 2.310 . S
Dy320 O336 2.351 . S
C321 O332 1.185 . S
C321 O333 1.355 . S
C322 O324 1.185 1_556 S
C322 O325 1.355 1_556 S
Dy323 O327 2.310 . S
Dy323 O330 2.351 . S
Dy323 O332 2.398 . S
Dy323 O333 2.491 . S
Dy323 O334 2.403 . S
Dy323 O335 2.664 . S
Dy323 O337 2.326 . S
O324 Dy320 2.398 . S
O324 C322 1.185 1_554 S
O325 Dy320 2.491 . S
O325 C322 1.355 1_554 S
O326 Dy320 2.403 . S
O326 C328 1.254 . S
O327 Dy320 2.664 . S
O327 Dy323 2.310 . S
O327 C328 1.268 . S
C328 O326 1.254 . S
C328 O327 1.268 . S
C329 O334 1.254 . S
C329 O335 1.268 . S
O330 Dy323 2.351 . S
O330 C338 1.249 . S
O331 Dy320 2.326 . S
O331 C338 1.267 . S
O332 C321 1.185 . S
O332 Dy323 2.398 . S
O333 C321 1.355 . S
O333 Dy323 2.491 . S
O334 Dy323 2.403 . S
O334 C329 1.254 . S
O335 Dy320 2.310 . S
O335 Dy323 2.664 . S
O335 C329 1.268 . S
O336 Dy320 2.351 . S
O336 C339 1.249 . S
O337 Dy323 2.326 . S
O337 C339 1.267 . S
C338 O330 1.249 . S
C338 O331 1.267 . S
C339 O336 1.249 . S
C339 O337 1.267 . S
Dy340 O344 2.398 . S
Dy340 O345 2.491 . S
Dy340 O346 2.403 . S
Dy340 O347 2.664 . S
Dy340 O351 2.326 . S
Dy340 O355 2.310 . S
Dy340 O356 2.351 . S
C341 O352 1.185 1_556 S
C341 O353 1.355 1_556 S
C342 O344 1.185 . S
C342 O345 1.355 . S
Dy343 O347 2.310 . S
Dy343 O350 2.351 . S
Dy343 O352 2.398 . S
Dy343 O353 2.491 . S
Dy343 O354 2.403 . S
Dy343 O355 2.664 . S
Dy343 O357 2.326 . S
O344 Dy340 2.398 . S
O344 C342 1.185 . S
O345 Dy340 2.491 . S
O345 C342 1.355 . S
O346 Dy340 2.403 . S
O346 C348 1.254 . S
O347 Dy340 2.664 . S
O347 Dy343 2.310 . S
O347 C348 1.268 . S
C348 O346 1.254 . S
C348 O347 1.268 . S
C349 O354 1.254 . S
C349 O355 1.268 . S
O350 Dy343 2.351 . S
O350 C358 1.249 . S
O351 Dy340 2.326 . S
O351 C358 1.267 . S
O352 C341 1.185 1_554 S
O352 Dy343 2.398 . S
O353 C341 1.355 1_554 S
O353 Dy343 2.491 . S
O354 Dy343 2.403 . S
O354 C349 1.254 . S
O355 Dy340 2.310 . S
O355 Dy343 2.664 . S
O355 C349 1.268 . S
O356 Dy340 2.351 . S
O356 C359 1.249 . S
O357 Dy343 2.326 . S
O357 C359 1.267 . S
C358 O350 1.249 . S
C358 O351 1.267 . S
C359 O356 1.249 . S
C359 O357 1.267 . S
H360 C372 0.930 . S
H361 C374 0.930 . S
H362 C375 0.930 . S
H363 C379 0.959 . S
H364 C379 0.959 . S
H365 C379 0.961 . S
H366 C380 0.960 . S
H367 C380 0.961 . S
H368 C380 0.959 . S
H369 C383 0.929 . S
H370 C384 0.931 . S
H371 C386 0.930 . S
C372 H360 0.930 . S
C372 C373 1.399 . S
C372 C377 1.399 . S
C373 C372 1.399 . S
C373 C374 1.376 . S
C374 H361 0.930 . S
C374 C373 1.376 . S
C374 C375 1.388 . S
C375 H362 0.930 . S
C375 C374 1.388 . S
C375 C376 1.390 . S
C376 C375 1.390 . S
C376 C377 1.394 . S
C376 C382 1.465 . S
C377 C372 1.399 . S
C377 C376 1.394 . S
C377 C378 1.516 . S
C378 C377 1.516 . S
C378 C379 1.502 . S
C378 C380 1.561 . S
C378 C381 1.526 . S
C379 H363 0.959 . S
C379 H364 0.959 . S
C379 H365 0.961 . S
C379 C378 1.502 . S
C380 H366 0.960 . S
C380 H367 0.961 . S
C380 H368 0.959 . S
C380 C378 1.561 . S
C381 C378 1.526 . S
C381 C382 1.396 . S
C381 C386 1.390 . S
C382 C376 1.465 . S
C382 C381 1.396 . S
C382 C383 1.399 . S
C383 H369 0.929 . S
C383 C382 1.399 . S
C383 C384 1.385 . S
C384 H370 0.931 . S
C384 C383 1.385 . S
C384 C385 1.389 . S
C385 C384 1.389 . S
C385 C386 1.387 . S
C386 H371 0.930 . S
C386 C381 1.390 . S
C386 C385 1.387 . S
H387 C399 0.930 . S
H388 C401 0.930 . S
H389 C402 0.930 . S
H390 C406 0.959 . S
H391 C406 0.959 . S
H392 C406 0.961 . S
H393 C407 0.960 . S
H394 C407 0.961 . S
H395 C407 0.959 . S
H396 C410 0.929 . S
H397 C411 0.931 . S
H398 C413 0.930 . S
C399 H387 0.930 . S
C399 C400 1.399 . S
C399 C404 1.399 . S
C400 C399 1.399 . S
C400 C401 1.376 . S
C401 H388 0.930 . S
C401 C400 1.376 . S
C401 C402 1.388 . S
C402 H389 0.930 . S
C402 C401 1.388 . S
C402 C403 1.390 . S
C403 C402 1.390 . S
C403 C404 1.394 . S
C403 C409 1.465 . S
C404 C399 1.399 . S
C404 C403 1.394 . S
C404 C405 1.516 . S
C405 C404 1.516 . S
C405 C406 1.502 . S
C405 C407 1.561 . S
C405 C408 1.526 . S
C406 H390 0.959 . S
C406 H391 0.959 . S
C406 H392 0.961 . S
C406 C405 1.502 . S
C407 H393 0.960 . S
C407 H394 0.961 . S
C407 H395 0.959 . S
C407 C405 1.561 . S
C408 C405 1.526 . S
C408 C409 1.396 . S
C408 C413 1.390 . S
C409 C403 1.465 . S
C409 C408 1.396 . S
C409 C410 1.399 . S
C410 H396 0.929 . S
C410 C409 1.399 . S
C410 C411 1.385 . S
C411 H397 0.931 . S
C411 C410 1.385 . S
C411 C412 1.389 . S
C412 C411 1.389 . S
C412 C413 1.387 . S
C413 H398 0.930 . S
C413 C408 1.390 . S
C413 C412 1.387 . S
H414 C426 0.930 . S
H415 C428 0.930 . S
H416 C429 0.930 . S
H417 C433 0.959 . S
H418 C433 0.959 . S
H419 C433 0.961 . S
H420 C434 0.979 . S
H421 C434 0.961 . S
H422 C434 0.959 . S
H423 C437 0.929 . S
H424 C438 0.931 . S
H425 C440 0.930 . S
C426 H414 0.930 . S
C426 C427 1.399 . S
C426 C431 1.399 . S
C427 C426 1.399 . S
C427 C428 1.376 . S
C428 H415 0.930 . S
C428 C427 1.376 . S
C428 C429 1.388 . S
C429 H416 0.930 . S
C429 C428 1.388 . S
C429 C430 1.390 . S
C430 C429 1.390 . S
C430 C431 1.394 . S
C430 C436 1.465 . S
C431 C426 1.399 . S
C431 C430 1.394 . S
C431 C432 1.516 . S
C432 C431 1.516 . S
C432 C433 1.502 . S
C432 C434 1.561 . S
C432 C435 1.526 . S
C433 H417 0.959 . S
C433 H418 0.959 . S
C433 H419 0.961 . S
C433 C432 1.502 . S
C434 H420 0.979 . S
C434 H421 0.961 . S
C434 H422 0.959 . S
C434 C432 1.561 . S
C435 C432 1.526 . S
C435 C436 1.396 . S
C435 C440 1.390 . S
C436 C430 1.465 . S
C436 C435 1.396 . S
C436 C437 1.399 . S
C437 H423 0.929 . S
C437 C436 1.399 . S
C437 C438 1.385 . S
C438 H424 0.931 . S
C438 C437 1.385 . S
C438 C439 1.389 . S
C439 C438 1.389 . S
C439 C440 1.387 . S
C440 H425 0.930 . S
C440 C435 1.390 . S
C440 C439 1.387 . S
H441 C453 0.930 . S
H442 C455 0.930 . S
H443 C456 0.930 . S
H444 C460 0.959 . S
H445 C460 0.959 . S
H446 C460 0.961 . S
H447 C461 0.960 . S
H448 C461 0.961 . S
H449 C461 0.959 . S
H450 C464 0.929 . S
H451 C465 0.931 . S
H452 C467 0.930 . S
C453 H441 0.930 . S
C453 C454 1.399 . S
C453 C458 1.399 . S
C454 C453 1.399 . S
C454 C455 1.376 . S
C455 H442 0.930 . S
C455 C454 1.376 . S
C455 C456 1.388 . S
C456 H443 0.930 . S
C456 C455 1.388 . S
C456 C457 1.390 . S
C457 C456 1.390 . S
C457 C458 1.394 . S
C457 C463 1.465 . S
C458 C453 1.399 . S
C458 C457 1.394 . S
C458 C459 1.516 . S
C459 C458 1.516 . S
C459 C460 1.502 . S
C459 C461 1.561 . S
C459 C462 1.526 . S
C460 H444 0.959 . S
C460 H445 0.959 . S
C460 H446 0.961 . S
C460 C459 1.502 . S
C461 H447 0.960 . S
C461 H448 0.961 . S
C461 H449 0.959 . S
C461 C459 1.561 . S
C462 C459 1.526 . S
C462 C463 1.396 . S
C462 C467 1.390 . S
C463 C457 1.465 . S
C463 C462 1.396 . S
C463 C464 1.399 . S
C464 H450 0.929 . S
C464 C463 1.399 . S
C464 C465 1.385 . S
C465 H451 0.931 . S
C465 C464 1.385 . S
C465 C466 1.389 . S
C466 C465 1.389 . S
C466 C467 1.387 . S
C467 H452 0.930 . S
C467 C462 1.390 . S
C467 C466 1.387 . S
H468 C480 0.930 . S
H469 C482 0.930 . S
H470 C483 0.930 . S
H471 C487 0.959 . S
H472 C487 0.959 . S
H473 C487 0.961 . S
H474 C488 0.960 . S
H475 C488 0.961 . S
H476 C488 0.959 . S
H477 C491 0.929 . S
H478 C492 0.931 . S
H479 C494 0.930 . S
C480 H468 0.930 . S
C480 C481 1.399 . S
C480 C485 1.399 . S
C481 C480 1.399 . S
C481 C482 1.376 . S
C482 H469 0.930 . S
C482 C481 1.376 . S
C482 C483 1.388 . S
C483 H470 0.930 . S
C483 C482 1.388 . S
C483 C484 1.390 . S
C484 C483 1.390 . S
C484 C485 1.394 . S
C484 C490 1.465 . S
C485 C480 1.399 . S
C485 C484 1.394 . S
C485 C486 1.516 . S
C486 C485 1.516 . S
C486 C487 1.502 . S
C486 C488 1.561 . S
C486 C489 1.526 . S
C487 H471 0.959 . S
C487 H472 0.959 . S
C487 H473 0.961 . S
C487 C486 1.502 . S
C488 H474 0.960 . S
C488 H475 0.961 . S
C488 H476 0.959 . S
C488 C486 1.561 . S
C489 C486 1.526 . S
C489 C490 1.396 . S
C489 C494 1.390 . S
C490 C484 1.465 . S
C490 C489 1.396 . S
C490 C491 1.399 . S
C491 H477 0.929 . S
C491 C490 1.399 . S
C491 C492 1.385 . S
C492 H478 0.931 . S
C492 C491 1.385 . S
C492 C493 1.389 . S
C493 C492 1.389 . S
C493 C494 1.387 . S
C494 H479 0.930 . S
C494 C489 1.390 . S
C494 C493 1.387 . S
H495 C507 0.930 . S
H496 C509 0.930 . S
H497 C510 0.930 . S
H498 C514 0.959 . S
H499 C514 0.959 . S
H500 C514 0.961 . S
H501 C515 0.960 . S
H502 C515 0.961 . S
H503 C515 0.959 . S
H504 C518 0.929 . S
H505 C519 0.931 . S
H506 C521 0.930 . S
C507 H495 0.930 . S
C507 C508 1.399 . S
C507 C512 1.399 . S
C508 C507 1.399 . S
C508 C509 1.376 . S
C509 H496 0.930 . S
C509 C508 1.376 . S
C509 C510 1.388 . S
C510 H497 0.930 . S
C510 C509 1.388 . S
C510 C511 1.390 . S
C511 C510 1.390 . S
C511 C512 1.394 . S
C511 C517 1.465 . S
C512 C507 1.399 . S
C512 C511 1.394 . S
C512 C513 1.516 . S
C513 C512 1.516 . S
C513 C514 1.502 . S
C513 C515 1.561 . S
C513 C516 1.526 . S
C514 H498 0.959 . S
C514 H499 0.959 . S
C514 H500 0.961 . S
C514 C513 1.502 . S
C515 H501 0.960 . S
C515 H502 0.961 . S
C515 H503 0.959 . S
C515 C513 1.561 . S
C516 C513 1.526 . S
C516 C517 1.396 . S
C516 C521 1.390 . S
C517 C511 1.465 . S
C517 C516 1.396 . S
C517 C518 1.399 . S
C518 H504 0.929 . S
C518 C517 1.399 . S
C518 C519 1.385 . S
C519 H505 0.931 . S
C519 C518 1.385 . S
C519 C520 1.389 . S
C520 C519 1.389 . S
C520 C521 1.387 . S
C521 H506 0.930 . S
C521 C516 1.390 . S
C521 C520 1.387 . S
H522 C534 0.930 . S
H523 C536 0.930 . S
H524 C537 0.930 . S
H525 C541 0.959 . S
H526 C541 0.959 . S
H527 C541 0.961 . S
H528 C542 0.960 . S
H529 C542 0.961 . S
H530 C542 0.959 . S
H531 C545 0.929 . S
H532 C546 0.931 . S
H533 C548 0.930 . S
C534 H522 0.930 . S
C534 C535 1.399 . S
C534 C539 1.399 . S
C535 C534 1.399 . S
C535 C536 1.376 . S
C536 H523 0.930 . S
C536 C535 1.376 . S
C536 C537 1.388 . S
C537 H524 0.930 . S
C537 C536 1.388 . S
C537 C538 1.390 . S
C538 C537 1.390 . S
C538 C539 1.394 . S
C538 C544 1.465 . S
C539 C534 1.399 . S
C539 C538 1.394 . S
C539 C540 1.516 . S
C540 C539 1.516 . S
C540 C541 1.502 . S
C540 C542 1.561 . S
C540 C543 1.526 . S
C541 H525 0.959 . S
C541 H526 0.959 . S
C541 H527 0.961 . S
C541 C540 1.502 . S
C542 H528 0.960 . S
C542 H529 0.961 . S
C542 H530 0.959 . S
C542 C540 1.561 . S
C543 C540 1.526 . S
C543 C544 1.396 . S
C543 C548 1.390 . S
C544 C538 1.465 . S
C544 C543 1.396 . S
C544 C545 1.399 . S
C545 H531 0.929 . S
C545 C544 1.399 . S
C545 C546 1.385 . S
C546 H532 0.931 . S
C546 C545 1.385 . S
C546 C547 1.389 . S
C547 C546 1.389 . S
C547 C548 1.387 . S
C548 H533 0.930 . S
C548 C543 1.390 . S
C548 C547 1.387 . S
H549 C561 0.930 . S
H550 C563 0.930 . S
H551 C564 0.930 . S
H552 C568 0.959 . S
H553 C568 0.959 . S
H554 C568 0.961 . S
H555 C569 0.960 . S
H556 C569 0.961 . S
H557 C569 0.959 . S
H558 C572 0.929 . S
H559 C573 0.931 . S
H560 C575 0.930 . S
C561 H549 0.930 . S
C561 C562 1.399 . S
C561 C566 1.399 . S
C562 C561 1.399 . S
C562 C563 1.376 . S
C563 H550 0.930 . S
C563 C562 1.376 . S
C563 C564 1.388 . S
C564 H551 0.930 . S
C564 C563 1.388 . S
C564 C565 1.390 . S
C565 C564 1.390 . S
C565 C566 1.394 . S
C565 C571 1.465 . S
C566 C561 1.399 . S
C566 C565 1.394 . S
C566 C567 1.516 . S
C567 C566 1.516 . S
C567 C568 1.502 . S
C567 C569 1.561 . S
C567 C570 1.526 . S
C568 H552 0.959 . S
C568 H553 0.959 . S
C568 H554 0.961 . S
C568 C567 1.502 . S
C569 H555 0.960 . S
C569 H556 0.961 . S
C569 H557 0.959 . S
C569 C567 1.561 . S
C570 C567 1.526 . S
C570 C571 1.396 . S
C570 C575 1.390 . S
C571 C565 1.465 . S
C571 C570 1.396 . S
C571 C572 1.399 . S
C572 H558 0.929 . S
C572 C571 1.399 . S
C572 C573 1.385 . S
C573 H559 0.931 . S
C573 C572 1.385 . S
C573 C574 1.389 . S
C574 C573 1.389 . S
C574 C575 1.387 . S
C575 H560 0.930 . S
C575 C570 1.390 . S
C575 C574 1.387 . S
H576 C588 0.930 . S
H577 C590 0.930 . S
H578 C591 0.930 . S
H579 C595 0.959 . S
H580 C595 0.959 . S
H581 C595 0.961 . S
H582 C596 0.960 . S
H583 C596 0.961 . S
H584 C596 0.959 . S
H585 C599 0.929 . S
H586 C600 0.931 . S
H587 C602 0.930 . S
C588 H576 0.930 . S
C588 C589 1.399 . S
C588 C593 1.399 . S
C589 C588 1.399 . S
C589 C590 1.376 . S
C590 H577 0.930 . S
C590 C589 1.376 . S
C590 C591 1.388 . S
C591 H578 0.930 . S
C591 C590 1.388 . S
C591 C592 1.390 . S
C592 C591 1.390 . S
C592 C593 1.394 . S
C592 C598 1.465 . S
C593 C588 1.399 . S
C593 C592 1.394 . S
C593 C594 1.516 . S
C594 C593 1.516 . S
C594 C595 1.502 . S
C594 C596 1.561 . S
C594 C597 1.526 . S
C595 H579 0.959 . S
C595 H580 0.959 . S
C595 H581 0.961 . S
C595 C594 1.502 . S
C596 H582 0.960 . S
C596 H583 0.961 . S
C596 H584 0.959 . S
C596 C594 1.561 . S
C597 C594 1.526 . S
C597 C598 1.396 . S
C597 C602 1.390 . S
C598 C592 1.465 . S
C598 C597 1.396 . S
C598 C599 1.399 . S
C599 H585 0.929 . S
C599 C598 1.399 . S
C599 C600 1.385 . S
C600 H586 0.931 . S
C600 C599 1.385 . S
C600 C601 1.389 . S
C601 C600 1.389 . S
C601 C602 1.387 . S
C602 H587 0.930 . S
C602 C597 1.390 . S
C602 C601 1.387 . S
H603 C615 0.930 . S
H604 C617 0.930 . S
H605 C618 0.930 . S
H606 C622 0.959 . S
H607 C622 0.959 . S
H608 C622 0.961 . S
H609 C623 0.960 . S
H610 C623 0.961 . S
H611 C623 0.959 . S
H612 C626 0.929 . S
H613 C627 0.931 . S
H614 C629 0.930 . S
C615 H603 0.930 . S
C615 C616 1.399 . S
C615 C620 1.399 . S
C616 C615 1.399 . S
C616 C617 1.376 . S
C617 H604 0.930 . S
C617 C616 1.376 . S
C617 C618 1.388 . S
C618 H605 0.930 . S
C618 C617 1.388 . S
C618 C619 1.390 . S
C619 C618 1.390 . S
C619 C620 1.394 . S
C619 C625 1.465 . S
C620 C615 1.399 . S
C620 C619 1.394 . S
C620 C621 1.516 . S
C621 C620 1.516 . S
C621 C622 1.502 . S
C621 C623 1.561 . S
C621 C624 1.526 . S
C622 H606 0.959 . S
C622 H607 0.959 . S
C622 H608 0.961 . S
C622 C621 1.502 . S
C623 H609 0.960 . S
C623 H610 0.961 . S
C623 H611 0.959 . S
C623 C621 1.561 . S
C624 C621 1.526 . S
C624 C625 1.396 . S
C624 C629 1.390 . S
C625 C619 1.465 . S
C625 C624 1.396 . S
C625 C626 1.399 . S
C626 H612 0.929 . S
C626 C625 1.399 . S
C626 C627 1.385 . S
C627 H613 0.931 . S
C627 C626 1.385 . S
C627 C628 1.389 . S
C628 C627 1.389 . S
C628 C629 1.387 . S
C629 H614 0.930 . S
C629 C624 1.390 . S
C629 C628 1.387 . S
H630 C642 0.930 . S
H631 C644 0.930 . S
H632 C645 0.930 . S
H633 C649 0.959 . S
H634 C649 0.959 . S
H635 C649 0.961 . S
H636 C650 0.960 . S
H637 C650 0.961 . S
H638 C650 0.959 . S
H639 C653 0.929 . S
H640 C654 0.931 . S
H641 C656 0.930 . S
C642 H630 0.930 . S
C642 C643 1.399 . S
C642 C647 1.399 . S
C643 C642 1.399 . S
C643 C644 1.376 . S
C644 H631 0.930 . S
C644 C643 1.376 . S
C644 C645 1.388 . S
C645 H632 0.930 . S
C645 C644 1.388 . S
C645 C646 1.390 . S
C646 C645 1.390 . S
C646 C647 1.394 . S
C646 C652 1.465 . S
C647 C642 1.399 . S
C647 C646 1.394 . S
C647 C648 1.516 . S
C648 C647 1.516 . S
C648 C649 1.502 . S
C648 C650 1.561 . S
C648 C651 1.526 . S
C649 H633 0.959 . S
C649 H634 0.959 . S
C649 H635 0.961 . S
C649 C648 1.502 . S
C650 H636 0.960 . S
C650 H637 0.961 . S
C650 H638 0.959 . S
C650 C648 1.561 . S
C651 C648 1.526 . S
C651 C652 1.396 . S
C651 C656 1.390 . S
C652 C646 1.465 . S
C652 C651 1.396 . S
C652 C653 1.399 . S
C653 H639 0.929 . S
C653 C652 1.399 . S
C653 C654 1.385 . S
C654 H640 0.931 . S
C654 C653 1.385 . S
C654 C655 1.389 . S
C655 C654 1.389 . S
C655 C656 1.387 . S
C656 H641 0.930 . S
C656 C651 1.390 . S
C656 C655 1.387 . S
H657 C669 0.930 . S
H658 C671 0.930 . S
H659 C672 0.930 . S
H660 C676 0.959 . S
H661 C676 0.959 . S
H662 C676 0.961 . S
H663 C677 0.960 . S
H664 C677 0.961 . S
H665 C677 0.959 . S
H666 C680 0.929 . S
H667 C681 0.931 . S
H668 C683 0.930 . S
C669 H657 0.930 . S
C669 C670 1.399 . S
C669 C674 1.399 . S
C670 C669 1.399 . S
C670 C671 1.376 . S
C671 H658 0.930 . S
C671 C670 1.376 . S
C671 C672 1.388 . S
C672 H659 0.930 . S
C672 C671 1.388 . S
C672 C673 1.390 . S
C673 C672 1.390 . S
C673 C674 1.394 . S
C673 C679 1.465 . S
C674 C669 1.399 . S
C674 C673 1.394 . S
C674 C675 1.516 . S
C675 C674 1.516 . S
C675 C676 1.502 . S
C675 C677 1.561 . S
C675 C678 1.526 . S
C676 H660 0.959 . S
C676 H661 0.959 . S
C676 H662 0.961 . S
C676 C675 1.502 . S
C677 H663 0.960 . S
C677 H664 0.961 . S
C677 H665 0.959 . S
C677 C675 1.561 . S
C678 C675 1.526 . S
C678 C679 1.396 . S
C678 C683 1.390 . S
C679 C673 1.465 . S
C679 C678 1.396 . S
C679 C680 1.399 . S
C680 H666 0.929 . S
C680 C679 1.399 . S
C680 C681 1.385 . S
C681 H667 0.931 . S
C681 C680 1.385 . S
C681 C682 1.389 . S
C682 C681 1.389 . S
C682 C683 1.387 . S
C683 H668 0.930 . S
C683 C678 1.390 . S
C683 C682 1.387 . S
H684 C696 0.930 . S
H685 C698 0.930 . S
H686 C699 0.930 . S
H687 C703 0.959 . S
H688 C703 0.959 . S
H689 C703 0.961 . S
H690 C704 0.960 . S
H691 C704 0.961 . S
H692 C704 0.959 1_554 S
H693 C707 0.929 . S
H694 C708 0.931 . S
H695 C710 0.930 . S
C696 H684 0.930 . S
C696 C697 1.399 . S
C696 C701 1.399 . S
C697 C696 1.399 . S
C697 C698 1.376 . S
C698 H685 0.930 . S
C698 C697 1.376 . S
C698 C699 1.388 1_556 S
C699 H686 0.930 . S
C699 C698 1.388 1_554 S
C699 C700 1.390 1_554 S
C700 C699 1.390 1_556 S
C700 C701 1.394 . S
C700 C706 1.465 1_656 S
C701 C696 1.399 . S
C701 C700 1.394 . S
C701 C702 1.516 1_655 S
C702 C701 1.516 1_455 S
C702 C703 1.502 . S
C702 C704 1.561 . S
C702 C705 1.526 1_556 S
C703 H687 0.959 . S
C703 H688 0.959 . S
C703 H689 0.961 . S
C703 C702 1.502 . S
C704 H690 0.960 . S
C704 H691 0.961 . S
C704 H692 0.959 1_556 S
C704 C702 1.561 . S
C705 C702 1.526 1_554 S
C705 C706 1.396 . S
C705 C710 1.390 . S
C706 C700 1.465 1_454 S
C706 C705 1.396 . S
C706 C707 1.399 . S
C707 H693 0.929 . S
C707 C706 1.399 . S
C707 C708 1.385 . S
C708 H694 0.931 . S
C708 C707 1.385 . S
C708 C709 1.389 . S
C709 C708 1.389 . S
C709 C710 1.387 . S
C710 H695 0.930 . S
C710 C705 1.390 . S
C710 C709 1.387 . S
H711 C723 0.930 . S
H712 C725 0.930 . S
H713 C726 0.930 . S
H714 C730 0.959 . S
H715 C730 0.959 . S
H716 C730 0.961 . S
H717 C731 0.960 . S
H718 C731 0.961 1_554 S
H719 C731 0.959 . S
H720 C734 0.929 . S
H721 C735 0.931 . S
H722 C737 0.930 . S
C723 H711 0.930 . S
C723 C724 1.399 . S
C723 C728 1.399 . S
C724 C723 1.399 . S
C724 C725 1.376 . S
C725 H712 0.930 . S
C725 C724 1.376 . S
C725 C726 1.388 . S
C726 H713 0.930 . S
C726 C725 1.388 . S
C726 C727 1.390 . S
C727 C726 1.390 . S
C727 C728 1.394 . S
C727 C733 1.465 . S
C728 C723 1.399 . S
C728 C727 1.394 . S
C728 C729 1.516 1_556 S
C729 C728 1.516 1_554 S
C729 C730 1.502 . S
C729 C731 1.561 1_554 S
C729 C732 1.526 . S
C730 H714 0.959 . S
C730 H715 0.959 . S
C730 H716 0.961 . S
C730 C729 1.502 . S
C731 H717 0.960 . S
C731 H718 0.961 1_556 S
C731 H719 0.959 . S
C731 C729 1.561 1_556 S
C732 C729 1.526 . S
C732 C733 1.396 1_554 S
C732 C737 1.390 . S
C733 C727 1.465 . S
C733 C732 1.396 1_556 S
C733 C734 1.399 . S
C734 H720 0.929 . S
C734 C733 1.399 . S
C734 C735 1.385 1_556 S
C735 H721 0.931 . S
C735 C734 1.385 1_554 S
C735 C736 1.389 . S
C736 C735 1.389 . S
C736 C737 1.387 . S
C737 H722 0.930 . S
C737 C732 1.390 . S
C737 C736 1.387 . S
H738 C750 0.930 . S
H739 C752 0.930 . S
H740 C753 0.930 1_554 S
H741 C757 0.959 . S
H742 C757 0.959 . S
H743 C757 0.961 . S
H744 C758 0.960 . S
H745 C758 0.961 . S
H746 C758 0.959 . S
H747 C761 0.929 . S
H748 C762 0.931 . S
H749 C764 0.930 . S
C750 H738 0.930 . S
C750 C751 1.399 . S
C750 C755 1.399 . S
C751 C750 1.399 . S
C751 C752 1.376 . S
C752 H739 0.930 . S
C752 C751 1.376 . S
C752 C753 1.388 . S
C753 H740 0.930 1_556 S
C753 C752 1.388 . S
C753 C754 1.390 . S
C754 C753 1.390 . S
C754 C755 1.394 . S
C754 C760 1.465 1_556 S
C755 C750 1.399 . S
C755 C754 1.394 . S
C755 C756 1.516 1_545 S
C756 C755 1.516 1_565 S
C756 C757 1.502 . S
C756 C758 1.561 . S
C756 C759 1.526 . S
C757 H741 0.959 . S
C757 H742 0.959 . S
C757 H743 0.961 . S
C757 C756 1.502 . S
C758 H744 0.960 . S
C758 H745 0.961 . S
C758 H746 0.959 . S
C758 C756 1.561 . S
C759 C756 1.526 . S
C759 C760 1.396 1_566 S
C759 C764 1.390 . S
C760 C754 1.465 1_554 S
C760 C759 1.396 1_544 S
C760 C761 1.399 . S
C761 H747 0.929 . S
C761 C760 1.399 . S
C761 C762 1.385 1_545 S
C762 H748 0.931 . S
C762 C761 1.385 1_565 S
C762 C763 1.389 . S
C763 C762 1.389 . S
C763 C764 1.387 1_554 S
C764 H749 0.930 . S
C764 C759 1.390 . S
C764 C763 1.387 1_556 S
H765 C777 0.930 . S
H766 C779 0.930 . S
H767 C780 0.930 . S
H768 C784 0.959 1_545 S
H769 C784 0.959 . S
H770 C784 0.961 1_545 S
H771 C785 0.960 . S
H772 C785 0.961 . S
H773 C785 0.959 . S
H774 C788 0.929 . S
H775 C789 0.931 . S
H776 C791 0.930 . S
C777 H765 0.930 . S
C777 C778 1.399 . S
C777 C782 1.399 . S
C778 C777 1.399 . S
C778 C779 1.376 . S
C779 H766 0.930 . S
C779 C778 1.376 . S
C779 C780 1.388 1_556 S
C780 H767 0.930 . S
C780 C779 1.388 1_554 S
C780 C781 1.390 . S
C781 C780 1.390 . S
C781 C782 1.394 1_554 S
C781 C787 1.465 . S
C782 C777 1.399 . S
C782 C781 1.394 1_556 S
C782 C783 1.509 1_545 S
C783 C782 1.509 1_565 S
C783 C784 1.498 . S
C783 C785 1.569 . S
C783 C786 1.530 1_556 S
C784 H768 0.959 1_565 S
C784 H769 0.959 . S
C784 H770 0.961 1_565 S
C784 C783 1.498 . S
C785 H771 0.960 . S
C785 H772 0.961 . S
C785 H773 0.959 . S
C785 C783 1.569 . S
C786 C783 1.530 1_554 S
C786 C787 1.396 1_565 S
C786 C791 1.390 . S
C787 C781 1.465 . S
C787 C786 1.396 1_545 S
C787 C788 1.399 . S
C788 H774 0.929 . S
C788 C787 1.399 . S
C788 C789 1.385 1_545 S
C789 H775 0.931 . S
C789 C788 1.385 1_565 S
C789 C790 1.389 . S
C790 C789 1.389 . S
C790 C791 1.387 . S
C791 H776 0.930 . S
C791 C786 1.390 . S
C791 C790 1.387 . S
H792 C804 0.930 . S
H793 C806 0.930 . S
H794 C807 0.930 . S
H795 C811 0.959 1_554 S
H796 C811 0.959 . S
H797 C811 0.961 . S
H798 C812 0.960 . S
H799 C812 0.961 . S
H800 C812 0.959 . S
H801 C815 0.929 . S
H802 C816 0.931 . S
H803 C818 0.930 . S
C804 H792 0.930 . S
C804 C805 1.399 . S
C804 C809 1.399 . S
C805 C804 1.399 . S
C805 C806 1.376 . S
C806 H793 0.930 . S
C806 C805 1.376 . S
C806 C807 1.388 . S
C807 H794 0.930 . S
C807 C806 1.388 . S
C807 C808 1.390 . S
C808 C807 1.390 . S
C808 C809 1.394 . S
C808 C814 1.465 1_455 S
C809 C804 1.399 . S
C809 C808 1.394 . S
C809 C810 1.516 1_554 S
C810 C809 1.516 1_556 S
C810 C811 1.502 . S
C810 C812 1.561 . S
C810 C813 1.526 1_455 S
C811 H795 0.959 1_556 S
C811 H796 0.959 . S
C811 H797 0.961 . S
C811 C810 1.502 . S
C812 H798 0.960 . S
C812 H799 0.961 . S
C812 H800 0.959 . S
C812 C810 1.561 . S
C813 C810 1.526 1_655 S
C813 C814 1.396 1_556 S
C813 C818 1.390 . S
C814 C808 1.465 1_655 S
C814 C813 1.396 1_554 S
C814 C815 1.399 . S
C815 H801 0.929 . S
C815 C814 1.399 . S
C815 C816 1.385 1_554 S
C816 H802 0.931 . S
C816 C815 1.385 1_556 S
C816 C817 1.389 . S
C817 C816 1.389 . S
C817 C818 1.387 . S
C818 H803 0.930 . S
C818 C813 1.390 . S
C818 C817 1.387 . S
H819 C831 0.930 . S
H820 C833 0.930 . S
H821 C834 0.930 . S
H822 C838 0.959 . S
H823 C838 0.959 . S
H824 C838 0.961 . S
H825 C839 0.960 . S
H826 C839 0.961 . S
H827 C839 0.959 . S
H828 C842 0.929 . S
H829 C843 0.931 . S
H830 C845 0.930 . S
C831 H819 0.930 . S
C831 C832 1.399 . S
C831 C836 1.399 . S
C832 C831 1.399 . S
C832 C833 1.376 . S
C833 H820 0.930 . S
C833 C832 1.376 . S
C833 C834 1.388 . S
C834 H821 0.930 . S
C834 C833 1.388 . S
C834 C835 1.390 . S
C835 C834 1.390 . S
C835 C836 1.394 . S
C835 C841 1.465 . S
C836 C831 1.399 . S
C836 C835 1.394 . S
C836 C837 1.516 1_554 S
C837 C836 1.516 1_556 S
C837 C838 1.502 . S
C837 C839 1.561 . S
C837 C840 1.526 . S
C838 H822 0.959 . S
C838 H823 0.959 . S
C838 H824 0.961 . S
C838 C837 1.502 . S
C839 H825 0.960 . S
C839 H826 0.961 . S
C839 H827 0.959 . S
C839 C837 1.561 . S
C840 C837 1.526 . S
C840 C841 1.396 1_556 S
C840 C845 1.390 . S
C841 C835 1.465 . S
C841 C840 1.396 1_554 S
C841 C842 1.399 . S
C842 H828 0.929 . S
C842 C841 1.399 . S
C842 C843 1.385 1_554 S
C843 H829 0.931 . S
C843 C842 1.385 1_556 S
C843 C844 1.389 . S
C844 C843 1.389 . S
C844 C845 1.387 . S
C845 H830 0.930 . S
C845 C840 1.390 . S
C845 C844 1.387 . S
H846 C858 0.930 . S
H847 C860 0.930 . S
H848 C861 0.930 . S
H849 C865 0.959 . S
H850 C865 0.959 . S
H851 C865 0.961 . S
H852 C866 0.960 . S
H853 C866 0.961 . S
H854 C866 0.959 . S
H855 C869 0.929 . S
H856 C870 0.931 . S
H857 C872 0.930 . S
C858 H846 0.930 . S
C858 C859 1.399 . S
C858 C863 1.399 . S
C859 C858 1.399 . S
C859 C860 1.376 . S
C860 H847 0.930 . S
C860 C859 1.376 . S
C860 C861 1.388 . S
C861 H848 0.930 . S
C861 C860 1.388 . S
C861 C862 1.390 . S
C862 C861 1.390 . S
C862 C863 1.394 . S
C862 C868 1.465 . S
C863 C858 1.399 . S
C863 C862 1.394 . S
C863 C864 1.516 . S
C864 C863 1.516 . S
C864 C865 1.502 . S
C864 C866 1.561 . S
C864 C867 1.526 . S
C865 H849 0.959 . S
C865 H850 0.959 . S
C865 H851 0.961 . S
C865 C864 1.502 . S
C866 H852 0.960 . S
C866 H853 0.961 . S
C866 H854 0.959 . S
C866 C864 1.561 . S
C867 C864 1.526 . S
C867 C868 1.396 . S
C867 C872 1.390 . S
C868 C862 1.465 . S
C868 C867 1.396 . S
C868 C869 1.399 . S
C869 H855 0.929 . S
C869 C868 1.399 . S
C869 C870 1.385 . S
C870 H856 0.931 . S
C870 C869 1.385 . S
C870 C871 1.389 . S
C871 C870 1.389 . S
C871 C872 1.387 . S
C872 H857 0.930 . S
C872 C867 1.390 . S
C872 C871 1.387 . S
H873 C885 0.930 . S
H874 C887 0.930 . S
H875 C888 0.930 . S
H876 C892 0.959 . S
H877 C892 0.959 . S
H878 C892 0.961 . S
H879 C893 0.960 . S
H880 C893 0.961 . S
H881 C893 0.959 . S
H882 C896 0.929 . S
H883 C897 0.931 . S
H884 C899 0.930 . S
C885 H873 0.930 . S
C885 C886 1.399 . S
C885 C890 1.399 . S
C886 C885 1.399 . S
C886 C887 1.376 . S
C887 H874 0.930 . S
C887 C886 1.376 . S
C887 C888 1.388 . S
C888 H875 0.930 . S
C888 C887 1.388 . S
C888 C889 1.390 . S
C889 C888 1.390 . S
C889 C890 1.394 . S
C889 C895 1.465 . S
C890 C885 1.399 . S
C890 C889 1.394 . S
C890 C891 1.516 . S
C891 C890 1.516 . S
C891 C892 1.502 . S
C891 C893 1.561 . S
C891 C894 1.526 . S
C892 H876 0.959 . S
C892 H877 0.959 . S
C892 H878 0.961 . S
C892 C891 1.502 . S
C893 H879 0.960 . S
C893 H880 0.961 . S
C893 H881 0.959 . S
C893 C891 1.561 . S
C894 C891 1.526 . S
C894 C895 1.396 . S
C894 C899 1.390 . S
C895 C889 1.465 . S
C895 C894 1.396 . S
C895 C896 1.399 . S
C896 H882 0.929 . S
C896 C895 1.399 . S
C896 C897 1.385 . S
C897 H883 0.931 . S
C897 C896 1.385 . S
C897 C898 1.389 . S
C898 C897 1.389 . S
C898 C899 1.387 . S
C899 H884 0.930 . S
C899 C894 1.390 . S
C899 C898 1.387 . S
H900 C912 0.930 . S
H901 C914 0.930 . S
H902 C915 0.930 . S
H903 C919 0.959 . S
H904 C919 0.959 . S
H905 C919 0.961 . S
H906 C920 0.960 . S
H907 C920 0.961 . S
H908 C920 0.959 . S
H909 C923 0.929 . S
H910 C924 0.931 . S
H911 C926 0.930 . S
C912 H900 0.930 . S
C912 C913 1.399 . S
C912 C917 1.399 . S
C913 C912 1.399 . S
C913 C914 1.376 . S
C914 H901 0.930 . S
C914 C913 1.376 . S
C914 C915 1.388 . S
C915 H902 0.930 . S
C915 C914 1.388 . S
C915 C916 1.390 . S
C916 C915 1.390 . S
C916 C917 1.394 . S
C916 C922 1.465 . S
C917 C912 1.399 . S
C917 C916 1.394 . S
C917 C918 1.516 . S
C918 C917 1.516 . S
C918 C919 1.502 . S
C918 C920 1.561 . S
C918 C921 1.526 . S
C919 H903 0.959 . S
C919 H904 0.959 . S
C919 H905 0.961 . S
C919 C918 1.502 . S
C920 H906 0.960 . S
C920 H907 0.961 . S
C920 H908 0.959 . S
C920 C918 1.561 . S
C921 C918 1.526 . S
C921 C922 1.396 . S
C921 C926 1.390 . S
C922 C916 1.465 . S
C922 C921 1.396 . S
C922 C923 1.399 . S
C923 H909 0.929 . S
C923 C922 1.399 . S
C923 C924 1.385 . S
C924 H910 0.931 . S
C924 C923 1.385 . S
C924 C925 1.389 . S
C925 C924 1.389 . S
C925 C926 1.387 . S
C926 H911 0.930 . S
C926 C921 1.390 . S
C926 C925 1.387 . S
H927 C939 0.930 . S
H928 C941 0.930 . S
H929 C942 0.930 . S
H930 C946 0.959 . S
H931 C946 0.959 . S
H932 C946 0.961 . S
H933 C947 0.960 . S
H934 C947 0.961 . S
H935 C947 0.959 . S
H936 C950 0.929 . S
H937 C951 0.931 . S
H938 C953 0.930 . S
C939 H927 0.930 . S
C939 C940 1.399 . S
C939 C944 1.399 . S
C940 C939 1.399 . S
C940 C941 1.376 . S
C941 H928 0.930 . S
C941 C940 1.376 . S
C941 C942 1.388 . S
C942 H929 0.930 . S
C942 C941 1.388 . S
C942 C943 1.390 . S
C943 C942 1.390 . S
C943 C944 1.394 . S
C943 C949 1.465 . S
C944 C939 1.399 . S
C944 C943 1.394 . S
C944 C945 1.516 . S
C945 C944 1.516 . S
C945 C946 1.502 . S
C945 C947 1.561 . S
C945 C948 1.526 . S
C946 H930 0.959 . S
C946 H931 0.959 . S
C946 H932 0.961 . S
C946 C945 1.502 . S
C947 H933 0.960 . S
C947 H934 0.961 . S
C947 H935 0.959 . S
C947 C945 1.561 . S
C948 C945 1.526 . S
C948 C949 1.396 . S
C948 C953 1.390 . S
C949 C943 1.465 . S
C949 C948 1.396 . S
C949 C950 1.399 . S
C950 H936 0.929 . S
C950 C949 1.399 . S
C950 C951 1.385 . S
C951 H937 0.931 . S
C951 C950 1.385 . S
C951 C952 1.389 . S
C952 C951 1.389 . S
C952 C953 1.387 . S
C953 H938 0.930 . S
C953 C948 1.390 . S
C953 C952 1.387 . S
H954 C966 0.930 . S
H955 C968 0.930 . S
H956 C969 0.930 . S
H957 C973 0.959 . S
H958 C973 0.959 . S
H959 C973 0.961 . S
H960 C974 0.960 . S
H961 C974 0.961 . S
H962 C974 0.959 . S
H963 C977 0.929 . S
H964 C978 0.931 . S
H965 C980 0.930 . S
C966 H954 0.930 . S
C966 C967 1.399 . S
C966 C971 1.399 . S
C967 C966 1.399 . S
C967 C968 1.376 . S
C968 H955 0.930 . S
C968 C967 1.376 . S
C968 C969 1.388 . S
C969 H956 0.930 . S
C969 C968 1.388 . S
C969 C970 1.390 . S
C970 C969 1.390 . S
C970 C971 1.394 . S
C970 C976 1.465 . S
C971 C966 1.399 . S
C971 C970 1.394 . S
C971 C972 1.516 . S
C972 C971 1.516 . S
C972 C973 1.502 . S
C972 C974 1.561 . S
C972 C975 1.526 . S
C973 H957 0.959 . S
C973 H958 0.959 . S
C973 H959 0.961 . S
C973 C972 1.502 . S
C974 H960 0.960 . S
C974 H961 0.961 . S
C974 H962 0.959 . S
C974 C972 1.561 . S
C975 C972 1.526 . S
C975 C976 1.396 . S
C975 C980 1.390 . S
C976 C970 1.465 . S
C976 C975 1.396 . S
C976 C977 1.399 . S
C977 H963 0.929 . S
C977 C976 1.399 . S
C977 C978 1.385 . S
C978 H964 0.931 . S
C978 C977 1.385 . S
C978 C979 1.389 . S
C979 C978 1.389 . S
C979 C980 1.387 . S
C980 H965 0.930 . S
C980 C975 1.390 . S
C980 C979 1.387 . S
H981 C993 0.930 . S
H982 C995 0.930 . S
H983 C996 0.930 . S
H984 C1000 0.959 . S
H985 C1000 0.959 . S
H986 C1000 0.961 . S
H987 C1001 0.960 . S
H988 C1001 0.961 . S
H989 C1001 0.959 . S
H990 C1004 0.929 . S
H991 C1005 0.931 . S
H992 C1007 0.930 . S
C993 H981 0.930 . S
C993 C994 1.399 . S
C993 C998 1.399 . S
C994 C993 1.399 . S
C994 C995 1.376 . S
C995 H982 0.930 . S
C995 C994 1.376 . S
C995 C996 1.388 . S
C996 H983 0.930 . S
C996 C995 1.388 . S
C996 C997 1.390 . S
C997 C996 1.390 . S
C997 C998 1.394 . S
C997 C1003 1.465 . S
C998 C993 1.399 . S
C998 C997 1.394 . S
C998 C999 1.516 . S
C999 C998 1.516 . S
C999 C1000 1.502 . S
C999 C1001 1.561 . S
C999 C1002 1.526 . S
C1000 H984 0.959 . S
C1000 H985 0.959 . S
C1000 H986 0.961 . S
C1000 C999 1.502 . S
C1001 H987 0.960 . S
C1001 H988 0.961 . S
C1001 H989 0.959 . S
C1001 C999 1.561 . S
C1002 C999 1.526 . S
C1002 C1003 1.396 . S
C1002 C1007 1.390 . S
C1003 C997 1.465 . S
C1003 C1002 1.396 . S
C1003 C1004 1.399 . S
C1004 H990 0.929 . S
C1004 C1003 1.399 . S
C1004 C1005 1.385 . S
C1005 H991 0.931 . S
C1005 C1004 1.385 . S
C1005 C1006 1.389 . S
C1006 C1005 1.389 . S
C1006 C1007 1.387 . S
C1007 H992 0.930 . S
C1007 C1002 1.390 . S
C1007 C1006 1.387 . S
H1008 C1020 0.930 . S
H1009 C1022 0.930 . S
H1010 C1023 0.930 . S
H1011 C1027 0.959 . S
H1012 C1027 0.959 . S
H1013 C1027 0.961 . S
H1014 C1028 0.960 . S
H1015 C1028 0.961 . S
H1016 C1028 0.959 . S
H1017 C1031 0.929 . S
H1018 C1032 0.931 . S
H1019 C1034 0.930 . S
C1020 H1008 0.930 . S
C1020 C1021 1.399 . S
C1020 C1025 1.399 . S
C1021 C1020 1.399 . S
C1021 C1022 1.376 . S
C1022 H1009 0.930 . S
C1022 C1021 1.376 . S
C1022 C1023 1.388 . S
C1023 H1010 0.930 . S
C1023 C1022 1.388 . S
C1023 C1024 1.390 . S
C1024 C1023 1.390 . S
C1024 C1025 1.394 . S
C1024 C1030 1.465 . S
C1025 C1020 1.399 . S
C1025 C1024 1.394 . S
C1025 C1026 1.516 . S
C1026 C1025 1.516 . S
C1026 C1027 1.502 . S
C1026 C1028 1.561 . S
C1026 C1029 1.526 . S
C1027 H1011 0.959 . S
C1027 H1012 0.959 . S
C1027 H1013 0.961 . S
C1027 C1026 1.502 . S
C1028 H1014 0.960 . S
C1028 H1015 0.961 . S
C1028 H1016 0.959 . S
C1028 C1026 1.561 . S
C1029 C1026 1.526 . S
C1029 C1030 1.396 . S
C1029 C1034 1.390 . S
C1030 C1024 1.465 . S
C1030 C1029 1.396 . S
C1030 C1031 1.399 . S
C1031 H1017 0.929 . S
C1031 C1030 1.399 . S
C1031 C1032 1.385 . S
C1032 H1018 0.931 . S
C1032 C1031 1.385 . S
C1032 C1033 1.389 . S
C1033 C1032 1.389 . S
C1033 C1034 1.387 . S
C1034 H1019 0.930 . S
C1034 C1029 1.390 . S
C1034 C1033 1.387 . S
H1035 C1047 0.930 . S
H1036 C1049 0.930 . S
H1037 C1050 0.930 . S
H1038 C1054 0.959 . S
H1039 C1054 0.959 . S
H1040 C1054 0.961 . S
H1041 C1055 0.960 . S
H1042 C1055 0.961 . S
H1043 C1055 0.959 . S
H1044 C1058 0.929 . S
H1045 C1059 0.931 . S
H1046 C1061 0.930 . S
C1047 H1035 0.930 . S
C1047 C1048 1.399 . S
C1047 C1052 1.399 . S
C1048 C1047 1.399 . S
C1048 C1049 1.376 . S
C1049 H1036 0.930 . S
C1049 C1048 1.376 . S
C1049 C1050 1.388 . S
C1050 H1037 0.930 . S
C1050 C1049 1.388 . S
C1050 C1051 1.390 . S
C1051 C1050 1.390 . S
C1051 C1052 1.394 . S
C1051 C1057 1.465 . S
C1052 C1047 1.399 . S
C1052 C1051 1.394 . S
C1052 C1053 1.516 . S
C1053 C1052 1.516 . S
C1053 C1054 1.502 . S
C1053 C1055 1.561 . S
C1053 C1056 1.526 . S
C1054 H1038 0.959 . S
C1054 H1039 0.959 . S
C1054 H1040 0.961 . S
C1054 C1053 1.502 . S
C1055 H1041 0.960 . S
C1055 H1042 0.961 . S
C1055 H1043 0.959 . S
C1055 C1053 1.561 . S
C1056 C1053 1.526 . S
C1056 C1057 1.396 . S
C1056 C1061 1.390 . S
C1057 C1051 1.465 . S
C1057 C1056 1.396 . S
C1057 C1058 1.399 . S
C1058 H1044 0.929 . S
C1058 C1057 1.399 . S
C1058 C1059 1.385 . S
C1059 H1045 0.931 . S
C1059 C1058 1.385 . S
C1059 C1060 1.389 . S
C1060 C1059 1.389 . S
C1060 C1061 1.387 . S
C1061 H1046 0.930 . S
C1061 C1056 1.390 . S
C1061 C1060 1.387 . S
H1062 C1074 0.930 . S
H1063 C1076 0.930 . S
H1064 C1077 0.930 . S
H1065 C1081 0.959 . S
H1066 C1081 0.959 . S
H1067 C1081 0.961 . S
H1068 C1082 0.960 . S
H1069 C1082 0.961 . S
H1070 C1082 0.959 . S
H1071 C1085 0.929 . S
H1072 C1086 0.931 . S
H1073 C1088 0.930 . S
C1074 H1062 0.930 . S
C1074 C1075 1.399 . S
C1074 C1079 1.399 . S
C1075 C1074 1.399 . S
C1075 C1076 1.376 . S
C1076 H1063 0.930 . S
C1076 C1075 1.376 . S
C1076 C1077 1.388 . S
C1077 H1064 0.930 . S
C1077 C1076 1.388 . S
C1077 C1078 1.390 . S
C1078 C1077 1.390 . S
C1078 C1079 1.394 . S
C1078 C1084 1.465 . S
C1079 C1074 1.399 . S
C1079 C1078 1.394 . S
C1079 C1080 1.516 . S
C1080 C1079 1.516 . S
C1080 C1081 1.502 . S
C1080 C1082 1.561 . S
C1080 C1083 1.526 . S
C1081 H1065 0.959 . S
C1081 H1066 0.959 . S
C1081 H1067 0.961 . S
C1081 C1080 1.502 . S
C1082 H1068 0.960 . S
C1082 H1069 0.961 . S
C1082 H1070 0.959 . S
C1082 C1080 1.561 . S
C1083 C1080 1.526 . S
C1083 C1084 1.396 . S
C1083 C1088 1.390 . S
C1084 C1078 1.465 . S
C1084 C1083 1.396 . S
C1084 C1085 1.399 . S
C1085 H1071 0.929 . S
C1085 C1084 1.399 . S
C1085 C1086 1.385 . S
C1086 H1072 0.931 . S
C1086 C1085 1.385 . S
C1086 C1087 1.389 . S
C1087 C1086 1.389 . S
C1087 C1088 1.387 . S
C1088 H1073 0.930 . S
C1088 C1083 1.390 . S
C1088 C1087 1.387 . S
H1089 C1101 0.930 . S
H1090 C1103 0.930 . S
H1091 C1104 0.930 . S
H1092 C1108 0.959 . S
H1093 C1108 0.959 . S
H1094 C1108 0.961 . S
H1095 C1109 0.967 . S
H1096 C1109 0.961 . S
H1097 C1109 0.959 . S
H1098 C1112 0.929 . S
H1099 C1113 0.931 . S
H1100 C1115 0.930 . S
C1101 H1089 0.930 . S
C1101 C1102 1.399 . S
C1101 C1106 1.399 . S
C1102 C1101 1.399 . S
C1102 C1103 1.376 . S
C1103 H1090 0.930 . S
C1103 C1102 1.376 . S
C1103 C1104 1.388 . S
C1104 H1091 0.930 . S
C1104 C1103 1.388 . S
C1104 C1105 1.390 . S
C1105 C1104 1.390 . S
C1105 C1106 1.394 . S
C1105 C1111 1.465 . S
C1106 C1101 1.399 . S
C1106 C1105 1.394 . S
C1106 C1107 1.516 . S
C1107 C1106 1.516 . S
C1107 C1108 1.502 . S
C1107 C1109 1.561 . S
C1107 C1110 1.526 . S
C1108 H1092 0.959 . S
C1108 H1093 0.959 . S
C1108 H1094 0.961 . S
C1108 C1107 1.502 . S
C1109 H1095 0.967 . S
C1109 H1096 0.961 . S
C1109 H1097 0.959 . S
C1109 C1107 1.561 . S
C1110 C1107 1.526 . S
C1110 C1111 1.396 . S
C1110 C1115 1.390 . S
C1111 C1105 1.465 . S
C1111 C1110 1.396 . S
C1111 C1112 1.399 . S
C1112 H1098 0.929 . S
C1112 C1111 1.399 . S
C1112 C1113 1.385 . S
C1113 H1099 0.931 . S
C1113 C1112 1.385 . S
C1113 C1114 1.389 . S
C1114 C1113 1.389 . S
C1114 C1115 1.387 . S
C1115 H1100 0.930 . S
C1115 C1110 1.390 . S
C1115 C1114 1.387 . S
H1116 C1128 0.930 . S
H1117 C1130 0.930 . S
H1118 C1131 0.930 . S
H1119 C1135 0.959 . S
H1120 C1135 0.959 . S
H1121 C1135 0.961 . S
H1122 C1136 0.960 . S
H1123 C1136 0.961 . S
H1124 C1136 0.959 . S
H1125 C1139 0.929 . S
H1126 C1140 0.931 . S
H1127 C1142 0.930 . S
C1128 H1116 0.930 . S
C1128 C1129 1.399 . S
C1128 C1133 1.399 . S
C1129 C1128 1.399 . S
C1129 C1130 1.376 . S
C1130 H1117 0.930 . S
C1130 C1129 1.376 . S
C1130 C1131 1.388 . S
C1131 H1118 0.930 . S
C1131 C1130 1.388 . S
C1131 C1132 1.390 . S
C1132 C1131 1.390 . S
C1132 C1133 1.394 . S
C1132 C1138 1.465 . S
C1133 C1128 1.399 . S
C1133 C1132 1.394 . S
C1133 C1134 1.516 . S
C1134 C1133 1.516 . S
C1134 C1135 1.502 . S
C1134 C1136 1.561 . S
C1134 C1137 1.526 . S
C1135 H1119 0.959 . S
C1135 H1120 0.959 . S
C1135 H1121 0.961 . S
C1135 C1134 1.502 . S
C1136 H1122 0.960 . S
C1136 H1123 0.961 . S
C1136 H1124 0.959 . S
C1136 C1134 1.561 . S
C1137 C1134 1.526 . S
C1137 C1138 1.396 . S
C1137 C1142 1.390 . S
C1138 C1132 1.465 . S
C1138 C1137 1.396 . S
C1138 C1139 1.399 . S
C1139 H1125 0.929 . S
C1139 C1138 1.399 . S
C1139 C1140 1.385 . S
C1140 H1126 0.931 . S
C1140 C1139 1.385 . S
C1140 C1141 1.389 . S
C1141 C1140 1.389 . S
C1141 C1142 1.387 . S
C1142 H1127 0.930 . S
C1142 C1137 1.390 . S
C1142 C1141 1.387 . S
H1143 C1155 0.930 . S
H1144 C1157 0.930 . S
H1145 C1158 0.930 . S
H1146 C1162 0.959 . S
H1147 C1162 0.959 . S
H1148 C1162 0.961 . S
H1149 C1163 0.960 . S
H1150 C1163 0.961 . S
H1151 C1163 0.959 . S
H1152 C1166 0.929 . S
H1153 C1167 0.931 . S
H1154 C1169 0.930 . S
C1155 H1143 0.930 . S
C1155 C1156 1.399 . S
C1155 C1160 1.399 . S
C1156 C1155 1.399 . S
C1156 C1157 1.376 . S
C1157 H1144 0.930 . S
C1157 C1156 1.376 . S
C1157 C1158 1.388 . S
C1158 H1145 0.930 . S
C1158 C1157 1.388 . S
C1158 C1159 1.390 . S
C1159 C1158 1.390 . S
C1159 C1160 1.394 . S
C1159 C1165 1.465 . S
C1160 C1155 1.399 . S
C1160 C1159 1.394 . S
C1160 C1161 1.516 . S
C1161 C1160 1.516 . S
C1161 C1162 1.502 . S
C1161 C1163 1.561 . S
C1161 C1164 1.526 . S
C1162 H1146 0.959 . S
C1162 H1147 0.959 . S
C1162 H1148 0.961 . S
C1162 C1161 1.502 . S
C1163 H1149 0.960 . S
C1163 H1150 0.961 . S
C1163 H1151 0.959 . S
C1163 C1161 1.561 . S
C1164 C1161 1.526 . S
C1164 C1165 1.396 . S
C1164 C1169 1.390 . S
C1165 C1159 1.465 . S
C1165 C1164 1.396 . S
C1165 C1166 1.399 . S
C1166 H1152 0.929 . S
C1166 C1165 1.399 . S
C1166 C1167 1.385 . S
C1167 H1153 0.931 . S
C1167 C1166 1.385 . S
C1167 C1168 1.389 . S
C1168 C1167 1.389 . S
C1168 C1169 1.387 . S
C1169 H1154 0.930 . S
C1169 C1164 1.390 . S
C1169 C1168 1.387 . S
H1170 C1182 0.930 . S
H1171 C1184 0.930 . S
H1172 C1185 0.930 . S
H1173 C1189 0.959 . S
H1174 C1189 0.959 . S
H1175 C1189 0.961 . S
H1176 C1190 0.960 . S
H1177 C1190 0.961 . S
H1178 C1190 0.959 . S
H1179 C1193 0.929 . S
H1180 C1194 0.931 . S
H1181 C1196 0.930 . S
C1182 H1170 0.930 . S
C1182 C1183 1.399 . S
C1182 C1187 1.399 . S
C1183 C1182 1.399 . S
C1183 C1184 1.376 . S
C1184 H1171 0.930 . S
C1184 C1183 1.376 . S
C1184 C1185 1.388 . S
C1185 H1172 0.930 . S
C1185 C1184 1.388 . S
C1185 C1186 1.390 . S
C1186 C1185 1.390 . S
C1186 C1187 1.394 . S
C1186 C1192 1.465 . S
C1187 C1182 1.399 . S
C1187 C1186 1.394 . S
C1187 C1188 1.516 . S
C1188 C1187 1.516 . S
C1188 C1189 1.502 . S
C1188 C1190 1.561 . S
C1188 C1191 1.526 . S
C1189 H1173 0.959 . S
C1189 H1174 0.959 . S
C1189 H1175 0.961 . S
C1189 C1188 1.502 . S
C1190 H1176 0.960 . S
C1190 H1177 0.961 . S
C1190 H1178 0.959 . S
C1190 C1188 1.561 . S
C1191 C1188 1.526 . S
C1191 C1192 1.396 . S
C1191 C1196 1.390 . S
C1192 C1186 1.465 . S
C1192 C1191 1.396 . S
C1192 C1193 1.399 . S
C1193 H1179 0.929 . S
C1193 C1192 1.399 . S
C1193 C1194 1.385 . S
C1194 H1180 0.931 . S
C1194 C1193 1.385 . S
C1194 C1195 1.389 . S
C1195 C1194 1.389 . S
C1195 C1196 1.387 . S
C1196 H1181 0.930 . S
C1196 C1191 1.390 . S
C1196 C1195 1.387 . S
H1197 C1209 0.930 . S
H1198 C1211 0.930 . S
H1199 C1212 0.930 . S
H1200 C1216 0.959 1_554 S
H1201 C1216 0.959 . S
H1202 C1216 0.961 . S
H1203 C1217 0.960 . S
H1204 C1217 0.961 . S
H1205 C1217 0.959 1_554 S
H1206 C1220 0.929 . S
H1207 C1221 0.931 . S
H1208 C1223 0.930 . S
C1209 H1197 0.930 . S
C1209 C1210 1.399 . S
C1209 C1214 1.399 . S
C1210 C1209 1.399 . S
C1210 C1211 1.376 . S
C1211 H1198 0.930 . S
C1211 C1210 1.376 . S
C1211 C1212 1.388 . S
C1212 H1199 0.930 . S
C1212 C1211 1.388 . S
C1212 C1213 1.390 . S
C1213 C1212 1.390 . S
C1213 C1214 1.394 . S
C1213 C1219 1.465 . S
C1214 C1209 1.399 . S
C1214 C1213 1.394 . S
C1214 C1215 1.516 . S
C1215 C1214 1.516 . S
C1215 C1216 1.502 1_554 S
C1215 C1217 1.561 1_554 S
C1215 C1218 1.526 . S
C1216 H1200 0.959 1_556 S
C1216 H1201 0.959 . S
C1216 H1202 0.961 . S
C1216 C1215 1.502 1_556 S
C1217 H1203 0.960 . S
C1217 H1204 0.961 . S
C1217 H1205 0.959 1_556 S
C1217 C1215 1.561 1_556 S
C1218 C1215 1.526 . S
C1218 C1219 1.396 . S
C1218 C1223 1.390 . S
C1219 C1213 1.465 . S
C1219 C1218 1.396 . S
C1219 C1220 1.399 . S
C1220 H1206 0.929 . S
C1220 C1219 1.399 . S
C1220 C1221 1.385 . S
C1221 H1207 0.931 . S
C1221 C1220 1.385 . S
C1221 C1222 1.389 . S
C1222 C1221 1.389 . S
C1222 C1223 1.387 . S
C1223 H1208 0.930 . S
C1223 C1218 1.390 . S
C1223 C1222 1.387 . S
H1224 C1236 0.930 . S
H1225 C1238 0.930 . S
H1226 C1239 0.930 . S
H1227 C1243 0.959 . S
H1228 C1243 0.959 . S
H1229 C1243 0.961 . S
H1230 C1244 0.960 . S
H1231 C1244 0.961 . S
H1232 C1244 0.959 . S
H1233 C1247 0.929 . S
H1234 C1248 0.931 . S
H1235 C1250 0.930 . S
C1236 H1224 0.930 . S
C1236 C1237 1.399 . S
C1236 C1241 1.399 . S
C1237 C1236 1.399 . S
C1237 C1238 1.376 . S
C1238 H1225 0.930 . S
C1238 C1237 1.376 . S
C1238 C1239 1.388 . S
C1239 H1226 0.930 . S
C1239 C1238 1.388 . S
C1239 C1240 1.390 . S
C1240 C1239 1.390 . S
C1240 C1241 1.394 . S
C1240 C1246 1.465 . S
C1241 C1236 1.399 . S
C1241 C1240 1.394 . S
C1241 C1242 1.516 . S
C1242 C1241 1.516 . S
C1242 C1243 1.502 . S
C1242 C1244 1.561 . S
C1242 C1245 1.526 . S
C1243 H1227 0.959 . S
C1243 H1228 0.959 . S
C1243 H1229 0.961 . S
C1243 C1242 1.502 . S
C1244 H1230 0.960 . S
C1244 H1231 0.961 . S
C1244 H1232 0.959 . S
C1244 C1242 1.561 . S
C1245 C1242 1.526 . S
C1245 C1246 1.396 . S
C1245 C1250 1.390 . S
C1246 C1240 1.465 . S
C1246 C1245 1.396 . S
C1246 C1247 1.399 . S
C1247 H1233 0.929 . S
C1247 C1246 1.399 . S
C1247 C1248 1.385 . S
C1248 H1234 0.931 . S
C1248 C1247 1.385 . S
C1248 C1249 1.389 . S
C1249 C1248 1.389 . S
C1249 C1250 1.387 . S
C1250 H1235 0.930 . S
C1250 C1245 1.390 . S
C1250 C1249 1.387 . S
H1251 C1263 0.930 . S
H1252 C1265 0.930 . S
H1253 C1266 0.930 . S
H1254 C1270 0.959 . S
H1255 C1270 0.959 . S
H1256 C1270 0.961 . S
H1257 C1271 0.960 . S
H1258 C1271 0.961 . S
H1259 C1271 0.959 . S
H1260 C1274 0.929 . S
H1261 C1275 0.931 . S
H1262 C1277 0.930 . S
C1263 H1251 0.930 . S
C1263 C1264 1.399 . S
C1263 C1268 1.399 . S
C1264 C1263 1.399 . S
C1264 C1265 1.376 . S
C1265 H1252 0.930 . S
C1265 C1264 1.376 . S
C1265 C1266 1.388 . S
C1266 H1253 0.930 . S
C1266 C1265 1.388 . S
C1266 C1267 1.390 . S
C1267 C1266 1.390 . S
C1267 C1268 1.394 . S
C1267 C1273 1.465 . S
C1268 C1263 1.399 . S
C1268 C1267 1.394 . S
C1268 C1269 1.516 . S
C1269 C1268 1.516 . S
C1269 C1270 1.502 . S
C1269 C1271 1.561 . S
C1269 C1272 1.526 . S
C1270 H1254 0.959 . S
C1270 H1255 0.959 . S
C1270 H1256 0.961 . S
C1270 C1269 1.502 . S
C1271 H1257 0.960 . S
C1271 H1258 0.961 . S
C1271 H1259 0.959 . S
C1271 C1269 1.561 . S
C1272 C1269 1.526 . S
C1272 C1273 1.396 . S
C1272 C1277 1.390 . S
C1273 C1267 1.465 . S
C1273 C1272 1.396 . S
C1273 C1274 1.399 . S
C1274 H1260 0.929 . S
C1274 C1273 1.399 . S
C1274 C1275 1.385 . S
C1275 H1261 0.931 . S
C1275 C1274 1.385 . S
C1275 C1276 1.389 . S
C1276 C1275 1.389 . S
C1276 C1277 1.387 . S
C1277 H1262 0.930 . S
C1277 C1272 1.390 . S
C1277 C1276 1.387 . S
H1278 C1290 0.930 . S
H1279 C1292 0.930 . S
H1280 C1293 0.930 . S
H1281 C1297 0.959 . S
H1282 C1297 0.959 . S
H1283 C1297 0.961 . S
H1284 C1298 0.960 . S
H1285 C1298 0.961 . S
H1286 C1298 0.959 . S
H1287 C1301 0.929 . S
H1288 C1302 0.931 . S
H1289 C1304 0.930 . S
C1290 H1278 0.930 . S
C1290 C1291 1.399 . S
C1290 C1295 1.399 . S
C1291 C1290 1.399 . S
C1291 C1292 1.376 . S
C1292 H1279 0.930 . S
C1292 C1291 1.376 . S
C1292 C1293 1.388 . S
C1293 H1280 0.930 . S
C1293 C1292 1.388 . S
C1293 C1294 1.390 . S
C1294 C1293 1.390 . S
C1294 C1295 1.394 . S
C1294 C1300 1.465 . S
C1295 C1290 1.399 . S
C1295 C1294 1.394 . S
C1295 C1296 1.516 . S
C1296 C1295 1.516 . S
C1296 C1297 1.502 . S
C1296 C1298 1.561 . S
C1296 C1299 1.526 . S
C1297 H1281 0.959 . S
C1297 H1282 0.959 . S
C1297 H1283 0.961 . S
C1297 C1296 1.502 . S
C1298 H1284 0.960 . S
C1298 H1285 0.961 . S
C1298 H1286 0.959 . S
C1298 C1296 1.561 . S
C1299 C1296 1.526 . S
C1299 C1300 1.396 . S
C1299 C1304 1.390 . S
C1300 C1294 1.465 . S
C1300 C1299 1.396 . S
C1300 C1301 1.399 . S
C1301 H1287 0.929 . S
C1301 C1300 1.399 . S
C1301 C1302 1.385 . S
C1302 H1288 0.931 . S
C1302 C1301 1.385 . S
C1302 C1303 1.389 . S
C1303 C1302 1.389 . S
C1303 C1304 1.387 . S
C1304 H1289 0.930 . S
C1304 C1299 1.390 . S
C1304 C1303 1.387 . S
H1305 C1317 0.930 . S
H1306 C1319 0.930 . S
H1307 C1320 0.930 . S
H1308 C1324 0.959 . S
H1309 C1324 0.959 . S
H1310 C1324 0.961 . S
H1311 C1325 0.960 . S
H1312 C1325 0.961 . S
H1313 C1325 0.959 . S
H1314 C1328 0.929 . S
H1315 C1329 0.931 . S
H1316 C1331 0.930 . S
C1317 H1305 0.930 . S
C1317 C1318 1.399 . S
C1317 C1322 1.399 . S
C1318 C1317 1.399 . S
C1318 C1319 1.376 . S
C1319 H1306 0.930 . S
C1319 C1318 1.376 . S
C1319 C1320 1.388 . S
C1320 H1307 0.930 . S
C1320 C1319 1.388 . S
C1320 C1321 1.390 . S
C1321 C1320 1.390 . S
C1321 C1322 1.394 . S
C1321 C1327 1.465 . S
C1322 C1317 1.399 . S
C1322 C1321 1.394 . S
C1322 C1323 1.516 . S
C1323 C1322 1.516 . S
C1323 C1324 1.502 . S
C1323 C1325 1.561 . S
C1323 C1326 1.526 . S
C1324 H1308 0.959 . S
C1324 H1309 0.959 . S
C1324 H1310 0.961 . S
C1324 C1323 1.502 . S
C1325 H1311 0.960 . S
C1325 H1312 0.961 . S
C1325 H1313 0.959 . S
C1325 C1323 1.561 . S
C1326 C1323 1.526 . S
C1326 C1327 1.396 . S
C1326 C1331 1.390 . S
C1327 C1321 1.465 . S
C1327 C1326 1.396 . S
C1327 C1328 1.399 . S
C1328 H1314 0.929 . S
C1328 C1327 1.399 . S
C1328 C1329 1.385 . S
C1329 H1315 0.931 . S
C1329 C1328 1.385 . S
C1329 C1330 1.389 . S
C1330 C1329 1.389 . S
C1330 C1331 1.387 . S
C1331 H1316 0.930 . S
C1331 C1326 1.390 . S
C1331 C1330 1.387 . S
H1332 C1344 0.930 . S
H1333 C1346 0.930 . S
H1334 C1347 0.930 . S
H1335 C1351 0.959 1_655 S
H1336 C1351 0.959 1_556 S
H1337 C1351 0.961 . S
H1338 C1352 0.960 . S
H1339 C1352 0.961 1_556 S
H1340 C1352 0.959 . S
H1341 C1355 0.929 . S
H1342 C1356 0.931 . S
H1343 C1358 0.930 . S
C1344 H1332 0.930 . S
C1344 C1345 1.399 . S
C1344 C1349 1.399 . S
C1345 C1344 1.399 . S
C1345 C1346 1.376 . S
C1346 H1333 0.930 . S
C1346 C1345 1.376 . S
C1346 C1347 1.388 . S
C1347 H1334 0.930 . S
C1347 C1346 1.388 . S
C1347 C1348 1.390 . S
C1348 C1347 1.390 . S
C1348 C1349 1.394 . S
C1348 C1354 1.465 1_554 S
C1349 C1344 1.399 . S
C1349 C1348 1.394 . S
C1349 C1350 1.516 . S
C1350 C1349 1.516 . S
C1350 C1351 1.502 . S
C1350 C1352 1.561 . S
C1350 C1353 1.526 1_554 S
C1351 H1335 0.959 1_455 S
C1351 H1336 0.959 1_554 S
C1351 H1337 0.961 . S
C1351 C1350 1.502 . S
C1352 H1338 0.960 . S
C1352 H1339 0.961 1_554 S
C1352 H1340 0.959 . S
C1352 C1350 1.561 . S
C1353 C1350 1.526 1_556 S
C1353 C1354 1.396 . S
C1353 C1358 1.390 . S
C1354 C1348 1.465 1_556 S
C1354 C1353 1.396 . S
C1354 C1355 1.399 . S
C1355 H1341 0.929 . S
C1355 C1354 1.399 . S
C1355 C1356 1.385 . S
C1356 H1342 0.931 . S
C1356 C1355 1.385 . S
C1356 C1357 1.389 . S
C1357 C1356 1.389 . S
C1357 C1358 1.387 . S
C1358 H1343 0.930 . S
C1358 C1353 1.390 . S
C1358 C1357 1.387 . S
H1359 C1371 0.930 . S
H1360 C1373 0.930 . S
H1361 C1374 0.930 . S
H1362 C1378 0.959 . S
H1363 C1378 0.959 . S
H1364 C1378 0.961 1_554 S
H1365 C1379 0.960 1_554 S
H1366 C1379 0.961 . S
H1367 C1379 0.959 . S
H1368 C1382 0.929 . S
H1369 C1383 0.931 . S
H1370 C1385 0.930 . S
C1371 H1359 0.930 . S
C1371 C1372 1.399 . S
C1371 C1376 1.399 . S
C1372 C1371 1.399 . S
C1372 C1373 1.376 . S
C1373 H1360 0.930 . S
C1373 C1372 1.376 . S
C1373 C1374 1.388 . S
C1374 H1361 0.930 . S
C1374 C1373 1.388 . S
C1374 C1375 1.390 . S
C1375 C1374 1.390 . S
C1375 C1376 1.394 . S
C1375 C1381 1.465 1_554 S
C1376 C1371 1.399 . S
C1376 C1375 1.394 . S
C1376 C1377 1.516 1_554 S
C1377 C1376 1.516 1_556 S
C1377 C1378 1.502 . S
C1377 C1379 1.561 . S
C1377 C1380 1.526 . S
C1378 H1362 0.959 . S
C1378 H1363 0.959 . S
C1378 H1364 0.961 1_556 S
C1378 C1377 1.502 . S
C1379 H1365 0.960 1_556 S
C1379 H1366 0.961 . S
C1379 H1367 0.959 . S
C1379 C1377 1.561 . S
C1380 C1377 1.526 . S
C1380 C1381 1.396 . S
C1380 C1385 1.390 . S
C1381 C1375 1.465 1_556 S
C1381 C1380 1.396 . S
C1381 C1382 1.399 . S
C1382 H1368 0.929 . S
C1382 C1381 1.399 . S
C1382 C1383 1.385 . S
C1383 H1369 0.931 . S
C1383 C1382 1.385 . S
C1383 C1384 1.389 . S
C1384 C1383 1.389 . S
C1384 C1385 1.387 . S
C1385 H1370 0.930 . S
C1385 C1380 1.390 . S
C1385 C1384 1.387 . S
H1386 C1398 0.930 . S
H1387 C1400 0.930 . S
H1388 C1401 0.930 . S
H1389 C1405 0.959 . S
H1390 C1405 0.959 1_556 S
H1391 C1405 0.961 . S
H1392 C1406 0.960 . S
H1393 C1406 0.961 1_556 S
H1394 C1406 0.959 . S
H1395 C1409 0.929 . S
H1396 C1410 0.931 . S
H1397 C1412 0.930 . S
C1398 H1386 0.930 . S
C1398 C1399 1.399 . S
C1398 C1403 1.399 . S
C1399 C1398 1.399 . S
C1399 C1400 1.376 1_545 S
C1400 H1387 0.930 . S
C1400 C1399 1.376 1_565 S
C1400 C1401 1.388 . S
C1401 H1388 0.930 . S
C1401 C1400 1.388 . S
C1401 C1402 1.390 1_565 S
C1402 C1401 1.390 1_545 S
C1402 C1403 1.394 . S
C1402 C1408 1.465 1_554 S
C1403 C1398 1.399 . S
C1403 C1402 1.394 . S
C1403 C1404 1.516 . S
C1404 C1403 1.516 . S
C1404 C1405 1.502 . S
C1404 C1406 1.561 . S
C1404 C1407 1.526 1_554 S
C1405 H1389 0.959 . S
C1405 H1390 0.959 1_554 S
C1405 H1391 0.961 . S
C1405 C1404 1.502 . S
C1406 H1392 0.960 . S
C1406 H1393 0.961 1_554 S
C1406 H1394 0.959 . S
C1406 C1404 1.561 . S
C1407 C1404 1.526 1_556 S
C1407 C1408 1.396 . S
C1407 C1412 1.390 . S
C1408 C1402 1.465 1_556 S
C1408 C1407 1.396 . S
C1408 C1409 1.399 1_545 S
C1409 H1395 0.929 . S
C1409 C1408 1.399 1_565 S
C1409 C1410 1.385 . S
C1410 H1396 0.931 . S
C1410 C1409 1.385 . S
C1410 C1411 1.389 1_565 S
C1411 C1410 1.389 1_545 S
C1411 C1412 1.387 . S
C1412 H1397 0.930 . S
C1412 C1407 1.390 . S
C1412 C1411 1.387 . S
H1413 C1425 0.930 . S
H1414 C1427 0.930 . S
H1415 C1428 0.930 . S
H1416 C1432 0.959 . S
H1417 C1432 0.959 . S
H1418 C1432 0.961 . S
H1419 C1433 0.960 . S
H1420 C1433 0.961 . S
H1421 C1433 0.959 . S
H1422 C1436 0.929 . S
H1423 C1437 0.931 . S
H1424 C1439 0.930 . S
C1425 H1413 0.930 . S
C1425 C1426 1.399 . S
C1425 C1430 1.399 . S
C1426 C1425 1.399 . S
C1426 C1427 1.376 1_455 S
C1427 H1414 0.930 . S
C1427 C1426 1.376 1_655 S
C1427 C1428 1.388 . S
C1428 H1415 0.930 . S
C1428 C1427 1.388 . S
C1428 C1429 1.390 1_556 S
C1429 C1428 1.390 1_554 S
C1429 C1430 1.394 1_654 S
C1429 C1435 1.461 . S
C1430 C1425 1.399 . S
C1430 C1429 1.394 1_456 S
C1430 C1431 1.516 1_556 S
C1431 C1430 1.516 1_554 S
C1431 C1432 1.502 . S
C1431 C1433 1.561 . S
C1431 C1434 1.526 . S
C1432 H1416 0.959 . S
C1432 H1417 0.959 . S
C1432 H1418 0.961 . S
C1432 C1431 1.502 . S
C1433 H1419 0.960 . S
C1433 H1420 0.961 . S
C1433 H1421 0.959 . S
C1433 C1431 1.561 . S
C1434 C1431 1.526 . S
C1434 C1435 1.381 1_455 S
C1434 C1439 1.390 . S
C1435 C1429 1.461 . S
C1435 C1434 1.381 1_655 S
C1435 C1436 1.416 . S
C1436 H1422 0.929 . S
C1436 C1435 1.416 . S
C1436 C1437 1.385 . S
C1437 H1423 0.931 . S
C1437 C1436 1.385 . S
C1437 C1438 1.389 1_655 S
C1438 C1437 1.389 1_455 S
C1438 C1439 1.387 . S
C1439 H1424 0.930 . S
C1439 C1434 1.390 . S
C1439 C1438 1.387 . S
H1440 C1452 0.930 . S
H1441 C1454 0.930 . S
H1442 C1455 0.930 . S
H1443 C1459 0.959 . S
H1444 C1459 0.959 . S
H1445 C1459 0.961 . S
H1446 C1460 0.960 . S
H1447 C1460 0.961 . S
H1448 C1460 0.959 . S
H1449 C1463 0.929 1_554 S
H1450 C1464 0.931 . S
H1451 C1466 0.930 . S
C1452 H1440 0.930 . S
C1452 C1453 1.399 . S
C1452 C1457 1.399 . S
C1453 C1452 1.399 . S
C1453 C1454 1.376 . S
C1454 H1441 0.930 . S
C1454 C1453 1.376 . S
C1454 C1455 1.388 . S
C1455 H1442 0.930 . S
C1455 C1454 1.388 . S
C1455 C1456 1.390 . S
C1456 C1455 1.390 . S
C1456 C1457 1.394 . S
C1456 C1462 1.465 . S
C1457 C1452 1.399 . S
C1457 C1456 1.394 . S
C1457 C1458 1.516 . S
C1458 C1457 1.516 . S
C1458 C1459 1.502 . S
C1458 C1460 1.561 . S
C1458 C1461 1.526 1_554 S
C1459 H1443 0.959 . S
C1459 H1444 0.959 . S
C1459 H1445 0.961 . S
C1459 C1458 1.502 . S
C1460 H1446 0.960 . S
C1460 H1447 0.961 . S
C1460 H1448 0.959 . S
C1460 C1458 1.561 . S
C1461 C1458 1.526 1_556 S
C1461 C1462 1.396 1_556 S
C1461 C1466 1.390 . S
C1462 C1456 1.465 . S
C1462 C1461 1.396 1_554 S
C1462 C1463 1.399 1_554 S
C1463 H1449 0.929 1_556 S
C1463 C1462 1.399 1_556 S
C1463 C1464 1.385 . S
C1464 H1450 0.931 . S
C1464 C1463 1.385 . S
C1464 C1465 1.389 . S
C1465 C1464 1.389 . S
C1465 C1466 1.387 . S
C1466 H1451 0.930 . S
C1466 C1461 1.390 . S
C1466 C1465 1.387 . S
H1467 C1479 0.930 . S
H1468 C1481 0.930 . S
H1469 C1482 0.930 . S
H1470 C1486 0.959 . S
H1471 C1486 0.959 . S
H1472 C1486 0.961 . S
H1473 C1487 0.960 . S
H1474 C1487 0.961 . S
H1475 C1487 0.959 . S
H1476 C1490 0.929 . S
H1477 C1491 0.931 . S
H1478 C1493 0.930 . S
C1479 H1467 0.930 . S
C1479 C1480 1.399 . S
C1479 C1484 1.399 . S
C1480 C1479 1.399 . S
C1480 C1481 1.376 1_545 S
C1481 H1468 0.930 . S
C1481 C1480 1.376 1_565 S
C1481 C1482 1.388 . S
C1482 H1469 0.930 . S
C1482 C1481 1.388 . S
C1482 C1483 1.390 1_565 S
C1483 C1482 1.390 1_545 S
C1483 C1484 1.394 . S
C1483 C1489 1.465 1_554 S
C1484 C1479 1.399 . S
C1484 C1483 1.394 . S
C1484 C1485 1.516 . S
C1485 C1484 1.516 . S
C1485 C1486 1.502 . S
C1485 C1487 1.561 . S
C1485 C1488 1.526 1_554 S
C1486 H1470 0.959 . S
C1486 H1471 0.959 . S
C1486 H1472 0.961 . S
C1486 C1485 1.502 . S
C1487 H1473 0.960 . S
C1487 H1474 0.961 . S
C1487 H1475 0.959 . S
C1487 C1485 1.561 . S
C1488 C1485 1.526 1_556 S
C1488 C1489 1.396 . S
C1488 C1493 1.390 . S
C1489 C1483 1.465 1_556 S
C1489 C1488 1.396 . S
C1489 C1490 1.399 1_545 S
C1490 H1476 0.929 . S
C1490 C1489 1.399 1_565 S
C1490 C1491 1.385 . S
C1491 H1477 0.931 . S
C1491 C1490 1.385 . S
C1491 C1492 1.389 1_565 S
C1492 C1491 1.389 1_545 S
C1492 C1493 1.387 . S
C1493 H1478 0.930 . S
C1493 C1488 1.390 . S
C1493 C1492 1.387 . S
H1494 C1506 0.930 . S
H1495 C1508 0.930 . S
H1496 C1509 0.930 . S
H1497 C1513 0.959 . S
H1498 C1513 0.959 . S
H1499 C1513 0.961 . S
H1500 C1514 0.960 . S
H1501 C1514 0.961 . S
H1502 C1514 0.959 . S
H1503 C1517 0.929 . S
H1504 C1518 0.931 . S
H1505 C1520 0.930 . S
C1506 H1494 0.930 . S
C1506 C1507 1.399 . S
C1506 C1511 1.399 . S
C1507 C1506 1.399 . S
C1507 C1508 1.376 . S
C1508 H1495 0.930 . S
C1508 C1507 1.376 . S
C1508 C1509 1.388 . S
C1509 H1496 0.930 . S
C1509 C1508 1.388 . S
C1509 C1510 1.390 . S
C1510 C1509 1.390 . S
C1510 C1511 1.394 . S
C1510 C1516 1.465 . S
C1511 C1506 1.399 . S
C1511 C1510 1.394 . S
C1511 C1512 1.516 . S
C1512 C1511 1.516 . S
C1512 C1513 1.502 . S
C1512 C1514 1.561 . S
C1512 C1515 1.526 . S
C1513 H1497 0.959 . S
C1513 H1498 0.959 . S
C1513 H1499 0.961 . S
C1513 C1512 1.502 . S
C1514 H1500 0.960 . S
C1514 H1501 0.961 . S
C1514 H1502 0.959 . S
C1514 C1512 1.561 . S
C1515 C1512 1.526 . S
C1515 C1516 1.396 . S
C1515 C1520 1.390 . S
C1516 C1510 1.465 . S
C1516 C1515 1.396 . S
C1516 C1517 1.399 . S
C1517 H1503 0.929 . S
C1517 C1516 1.399 . S
C1517 C1518 1.385 . S
C1518 H1504 0.931 . S
C1518 C1517 1.385 . S
C1518 C1519 1.389 . S
C1519 C1518 1.389 . S
C1519 C1520 1.387 . S
C1520 H1505 0.930 . S
C1520 C1515 1.390 . S
C1520 C1519 1.387 . S
H1521 C1533 0.930 . S
H1522 C1535 0.930 . S
H1523 C1536 0.930 . S
H1524 C1540 0.959 . S
H1525 C1540 0.959 . S
H1526 C1540 0.961 . S
H1527 C1541 0.960 . S
H1528 C1541 0.961 . S
H1529 C1541 0.959 . S
H1530 C1544 0.929 . S
H1531 C1545 0.931 . S
H1532 C1547 0.930 . S
C1533 H1521 0.930 . S
C1533 C1534 1.399 . S
C1533 C1538 1.399 . S
C1534 C1533 1.399 . S
C1534 C1535 1.376 . S
C1535 H1522 0.930 . S
C1535 C1534 1.376 . S
C1535 C1536 1.388 . S
C1536 H1523 0.930 . S
C1536 C1535 1.388 . S
C1536 C1537 1.390 . S
C1537 C1536 1.390 . S
C1537 C1538 1.394 . S
C1537 C1543 1.465 . S
C1538 C1533 1.399 . S
C1538 C1537 1.394 . S
C1538 C1539 1.516 . S
C1539 C1538 1.516 . S
C1539 C1540 1.502 . S
C1539 C1541 1.561 . S
C1539 C1542 1.526 . S
C1540 H1524 0.959 . S
C1540 H1525 0.959 . S
C1540 H1526 0.961 . S
C1540 C1539 1.502 . S
C1541 H1527 0.960 . S
C1541 H1528 0.961 . S
C1541 H1529 0.959 . S
C1541 C1539 1.561 . S
C1542 C1539 1.526 . S
C1542 C1543 1.396 . S
C1542 C1547 1.390 . S
C1543 C1537 1.465 . S
C1543 C1542 1.396 . S
C1543 C1544 1.399 . S
C1544 H1530 0.929 . S
C1544 C1543 1.399 . S
C1544 C1545 1.385 . S
C1545 H1531 0.931 . S
C1545 C1544 1.385 . S
C1545 C1546 1.389 . S
C1546 C1545 1.389 . S
C1546 C1547 1.387 . S
C1547 H1532 0.930 . S
C1547 C1542 1.390 . S
C1547 C1546 1.387 . S
H1548 C1560 0.930 . S
H1549 C1562 0.930 . S
H1550 C1563 0.930 . S
H1551 C1567 0.959 . S
H1552 C1567 0.959 . S
H1553 C1567 0.961 . S
H1554 C1568 0.960 . S
H1555 C1568 0.961 . S
H1556 C1568 0.959 . S
H1557 C1571 0.929 . S
H1558 C1572 0.931 . S
H1559 C1574 0.930 . S
C1560 H1548 0.930 . S
C1560 C1561 1.399 . S
C1560 C1565 1.399 . S
C1561 C1560 1.399 . S
C1561 C1562 1.376 . S
C1562 H1549 0.930 . S
C1562 C1561 1.376 . S
C1562 C1563 1.388 . S
C1563 H1550 0.930 . S
C1563 C1562 1.388 . S
C1563 C1564 1.390 . S
C1564 C1563 1.390 . S
C1564 C1565 1.394 . S
C1564 C1570 1.465 . S
C1565 C1560 1.399 . S
C1565 C1564 1.394 . S
C1565 C1566 1.516 . S
C1566 C1565 1.516 . S
C1566 C1567 1.502 . S
C1566 C1568 1.561 . S
C1566 C1569 1.526 . S
C1567 H1551 0.959 . S
C1567 H1552 0.959 . S
C1567 H1553 0.961 . S
C1567 C1566 1.502 . S
C1568 H1554 0.960 . S
C1568 H1555 0.961 . S
C1568 H1556 0.959 . S
C1568 C1566 1.561 . S
C1569 C1566 1.526 . S
C1569 C1570 1.396 . S
C1569 C1574 1.390 . S
C1570 C1564 1.465 . S
C1570 C1569 1.396 . S
C1570 C1571 1.399 . S
C1571 H1557 0.929 . S
C1571 C1570 1.399 . S
C1571 C1572 1.385 . S
C1572 H1558 0.931 . S
C1572 C1571 1.385 . S
C1572 C1573 1.389 . S
C1573 C1572 1.389 . S
C1573 C1574 1.387 . S
C1574 H1559 0.930 . S
C1574 C1569 1.390 . S
C1574 C1573 1.387 . S
H1575 C1587 0.930 . S
H1576 C1589 0.930 . S
H1577 C1590 0.930 . S
H1578 C1594 0.959 . S
H1579 C1594 0.959 . S
H1580 C1594 0.961 . S
H1581 C1595 0.960 . S
H1582 C1595 0.961 . S
H1583 C1595 0.959 . S
H1584 C1598 0.929 . S
H1585 C1599 0.931 . S
H1586 C1601 0.930 . S
C1587 H1575 0.930 . S
C1587 C1588 1.399 . S
C1587 C1592 1.399 . S
C1588 C1587 1.399 . S
C1588 C1589 1.376 . S
C1589 H1576 0.930 . S
C1589 C1588 1.376 . S
C1589 C1590 1.388 . S
C1590 H1577 0.930 . S
C1590 C1589 1.388 . S
C1590 C1591 1.390 . S
C1591 C1590 1.390 . S
C1591 C1592 1.394 . S
C1591 C1597 1.465 . S
C1592 C1587 1.399 . S
C1592 C1591 1.394 . S
C1592 C1593 1.516 . S
C1593 C1592 1.516 . S
C1593 C1594 1.502 . S
C1593 C1595 1.561 . S
C1593 C1596 1.526 . S
C1594 H1578 0.959 . S
C1594 H1579 0.959 . S
C1594 H1580 0.961 . S
C1594 C1593 1.502 . S
C1595 H1581 0.960 . S
C1595 H1582 0.961 . S
C1595 H1583 0.959 . S
C1595 C1593 1.561 . S
C1596 C1593 1.526 . S
C1596 C1597 1.396 . S
C1596 C1601 1.390 . S
C1597 C1591 1.465 . S
C1597 C1596 1.396 . S
C1597 C1598 1.399 . S
C1598 H1584 0.929 . S
C1598 C1597 1.399 . S
C1598 C1599 1.385 . S
C1599 H1585 0.931 . S
C1599 C1598 1.385 . S
C1599 C1600 1.389 . S
C1600 C1599 1.389 . S
C1600 C1601 1.387 . S
C1601 H1586 0.930 . S
C1601 C1596 1.390 . S
C1601 C1600 1.387 . S
H1602 C1614 0.930 . S
H1603 C1616 0.930 . S
H1604 C1617 0.930 . S
H1605 C1621 0.959 . S
H1606 C1621 0.959 . S
H1607 C1621 0.961 . S
H1608 C1622 0.960 . S
H1609 C1622 0.961 . S
H1610 C1622 0.959 . S
H1611 C1625 0.929 . S
H1612 C1626 0.931 . S
H1613 C1628 0.930 . S
C1614 H1602 0.930 . S
C1614 C1615 1.399 . S
C1614 C1619 1.399 . S
C1615 C1614 1.399 . S
C1615 C1616 1.376 . S
C1616 H1603 0.930 . S
C1616 C1615 1.376 . S
C1616 C1617 1.388 . S
C1617 H1604 0.930 . S
C1617 C1616 1.388 . S
C1617 C1618 1.390 . S
C1618 C1617 1.390 . S
C1618 C1619 1.394 . S
C1618 C1624 1.465 . S
C1619 C1614 1.399 . S
C1619 C1618 1.394 . S
C1619 C1620 1.516 . S
C1620 C1619 1.516 . S
C1620 C1621 1.502 . S
C1620 C1622 1.561 . S
C1620 C1623 1.526 . S
C1621 H1605 0.959 . S
C1621 H1606 0.959 . S
C1621 H1607 0.961 . S
C1621 C1620 1.502 . S
C1622 H1608 0.960 . S
C1622 H1609 0.961 . S
C1622 H1610 0.959 . S
C1622 C1620 1.561 . S
C1623 C1620 1.526 . S
C1623 C1624 1.396 . S
C1623 C1628 1.390 . S
C1624 C1618 1.465 . S
C1624 C1623 1.396 . S
C1624 C1625 1.399 . S
C1625 H1611 0.929 . S
C1625 C1624 1.399 . S
C1625 C1626 1.385 . S
C1626 H1612 0.931 . S
C1626 C1625 1.385 . S
C1626 C1627 1.389 . S
C1627 C1626 1.389 . S
C1627 C1628 1.387 . S
C1628 H1613 0.930 . S
C1628 C1623 1.390 . S
C1628 C1627 1.387 . S
H1629 C1641 0.930 . S
H1630 C1643 0.930 . S
H1631 C1644 0.930 . S
H1632 C1648 0.959 . S
H1633 C1648 0.959 . S
H1634 C1648 0.961 . S
H1635 C1649 0.960 . S
H1636 C1649 0.961 . S
H1637 C1649 0.959 . S
H1638 C1652 0.929 . S
H1639 C1653 0.931 . S
H1640 C1655 0.930 . S
C1641 H1629 0.930 . S
C1641 C1642 1.399 . S
C1641 C1646 1.399 . S
C1642 C1641 1.399 . S
C1642 C1643 1.376 . S
C1643 H1630 0.930 . S
C1643 C1642 1.376 . S
C1643 C1644 1.388 . S
C1644 H1631 0.930 . S
C1644 C1643 1.388 . S
C1644 C1645 1.390 . S
C1645 C1644 1.390 . S
C1645 C1646 1.394 . S
C1645 C1651 1.465 . S
C1646 C1641 1.399 . S
C1646 C1645 1.394 . S
C1646 C1647 1.516 . S
C1647 C1646 1.516 . S
C1647 C1648 1.502 . S
C1647 C1649 1.561 . S
C1647 C1650 1.526 . S
C1648 H1632 0.959 . S
C1648 H1633 0.959 . S
C1648 H1634 0.961 . S
C1648 C1647 1.502 . S
C1649 H1635 0.960 . S
C1649 H1636 0.961 . S
C1649 H1637 0.959 . S
C1649 C1647 1.561 . S
C1650 C1647 1.526 . S
C1650 C1651 1.396 . S
C1650 C1655 1.390 . S
C1651 C1645 1.465 . S
C1651 C1650 1.396 . S
C1651 C1652 1.399 . S
C1652 H1638 0.929 . S
C1652 C1651 1.399 . S
C1652 C1653 1.385 . S
C1653 H1639 0.931 . S
C1653 C1652 1.385 . S
C1653 C1654 1.389 . S
C1654 C1653 1.389 . S
C1654 C1655 1.387 . S
C1655 H1640 0.930 . S
C1655 C1650 1.390 . S
C1655 C1654 1.387 . S
H1656 C1668 0.930 . S
H1657 C1670 0.930 . S
H1658 C1671 0.930 . S
H1659 C1675 0.959 . S
H1660 C1675 0.959 . S
H1661 C1675 0.961 . S
H1662 C1676 0.960 . S
H1663 C1676 0.961 . S
H1664 C1676 0.959 . S
H1665 C1679 0.929 . S
H1666 C1680 0.931 . S
H1667 C1682 0.930 . S
C1668 H1656 0.930 . S
C1668 C1669 1.399 . S
C1668 C1673 1.399 . S
C1669 C1668 1.399 . S
C1669 C1670 1.376 . S
C1670 H1657 0.930 . S
C1670 C1669 1.376 . S
C1670 C1671 1.388 . S
C1671 H1658 0.930 . S
C1671 C1670 1.388 . S
C1671 C1672 1.390 . S
C1672 C1671 1.390 . S
C1672 C1673 1.394 . S
C1672 C1678 1.465 . S
C1673 C1668 1.399 . S
C1673 C1672 1.394 . S
C1673 C1674 1.516 . S
C1674 C1673 1.516 . S
C1674 C1675 1.502 . S
C1674 C1676 1.561 . S
C1674 C1677 1.526 . S
C1675 H1659 0.959 . S
C1675 H1660 0.959 . S
C1675 H1661 0.961 . S
C1675 C1674 1.502 . S
C1676 H1662 0.960 . S
C1676 H1663 0.961 . S
C1676 H1664 0.959 . S
C1676 C1674 1.561 . S
C1677 C1674 1.526 . S
C1677 C1678 1.396 . S
C1677 C1682 1.390 . S
C1678 C1672 1.465 . S
C1678 C1677 1.396 . S
C1678 C1679 1.399 . S
C1679 H1665 0.929 . S
C1679 C1678 1.399 . S
C1679 C1680 1.385 . S
C1680 H1666 0.931 . S
C1680 C1679 1.385 . S
C1680 C1681 1.389 . S
C1681 C1680 1.389 . S
C1681 C1682 1.387 . S
C1682 H1667 0.930 . S
C1682 C1677 1.390 . S
C1682 C1681 1.387 . S
H1683 C1695 0.930 . S
H1684 C1697 0.930 . S
H1685 C1698 0.930 . S
H1686 C1702 0.959 . S
H1687 C1702 0.959 . S
H1688 C1702 0.961 . S
H1689 C1703 0.960 . S
H1690 C1703 0.961 . S
H1691 C1703 0.959 . S
H1692 C1706 0.929 . S
H1693 C1707 0.931 . S
H1694 C1709 0.930 . S
C1695 H1683 0.930 . S
C1695 C1696 1.399 . S
C1695 C1700 1.399 . S
C1696 C1695 1.399 . S
C1696 C1697 1.376 . S
C1697 H1684 0.930 . S
C1697 C1696 1.376 . S
C1697 C1698 1.388 . S
C1698 H1685 0.930 . S
C1698 C1697 1.388 . S
C1698 C1699 1.390 . S
C1699 C1698 1.390 . S
C1699 C1700 1.394 . S
C1699 C1705 1.465 . S
C1700 C1695 1.399 . S
C1700 C1699 1.394 . S
C1700 C1701 1.516 . S
C1701 C1700 1.516 . S
C1701 C1702 1.502 . S
C1701 C1703 1.561 . S
C1701 C1704 1.526 . S
C1702 H1686 0.959 . S
C1702 H1687 0.959 . S
C1702 H1688 0.961 . S
C1702 C1701 1.502 . S
C1703 H1689 0.960 . S
C1703 H1690 0.961 . S
C1703 H1691 0.959 . S
C1703 C1701 1.561 . S
C1704 C1701 1.526 . S
C1704 C1705 1.396 . S
C1704 C1709 1.390 . S
C1705 C1699 1.465 . S
C1705 C1704 1.396 . S
C1705 C1706 1.399 . S
C1706 H1692 0.929 . S
C1706 C1705 1.399 . S
C1706 C1707 1.385 . S
C1707 H1693 0.931 . S
C1707 C1706 1.385 . S
C1707 C1708 1.389 . S
C1708 C1707 1.389 . S
C1708 C1709 1.387 . S
C1709 H1694 0.930 . S
C1709 C1704 1.390 . S
C1709 C1708 1.387 . S
H1710 C1722 0.930 . S
H1711 C1724 0.930 . S
H1712 C1725 0.930 . S
H1713 C1729 0.959 . S
H1714 C1729 0.959 . S
H1715 C1729 0.961 . S
H1716 C1730 0.960 . S
H1717 C1730 0.961 . S
H1718 C1730 0.959 . S
H1719 C1733 0.929 . S
H1720 C1734 0.931 . S
H1721 C1736 0.930 . S
C1722 H1710 0.930 . S
C1722 C1723 1.399 . S
C1722 C1727 1.399 . S
C1723 C1722 1.399 . S
C1723 C1724 1.376 . S
C1724 H1711 0.930 . S
C1724 C1723 1.376 . S
C1724 C1725 1.388 . S
C1725 H1712 0.930 . S
C1725 C1724 1.388 . S
C1725 C1726 1.390 . S
C1726 C1725 1.390 . S
C1726 C1727 1.394 . S
C1726 C1732 1.465 . S
C1727 C1722 1.399 . S
C1727 C1726 1.394 . S
C1727 C1728 1.516 . S
C1728 C1727 1.516 . S
C1728 C1729 1.502 . S
C1728 C1730 1.561 . S
C1728 C1731 1.526 . S
C1729 H1713 0.959 . S
C1729 H1714 0.959 . S
C1729 H1715 0.961 . S
C1729 C1728 1.502 . S
C1730 H1716 0.960 . S
C1730 H1717 0.961 . S
C1730 H1718 0.959 . S
C1730 C1728 1.561 . S
C1731 C1728 1.526 . S
C1731 C1732 1.396 . S
C1731 C1736 1.390 . S
C1732 C1726 1.465 . S
C1732 C1731 1.396 . S
C1732 C1733 1.399 . S
C1733 H1719 0.929 . S
C1733 C1732 1.399 . S
C1733 C1734 1.385 . S
C1734 H1720 0.931 . S
C1734 C1733 1.385 . S
C1734 C1735 1.389 . S
C1735 C1734 1.389 . S
C1735 C1736 1.387 . S
C1736 H1721 0.930 . S
C1736 C1731 1.390 . S
C1736 C1735 1.387 . S
H1737 C1749 0.930 . S
H1738 C1751 0.930 . S
H1739 C1752 0.930 . S
H1740 C1756 0.959 . S
H1741 C1756 0.959 . S
H1742 C1756 0.961 . S
H1743 C1757 0.960 . S
H1744 C1757 0.961 . S
H1745 C1757 0.959 . S
H1746 C1760 0.929 . S
H1747 C1761 0.931 . S
H1748 C1763 0.930 . S
C1749 H1737 0.930 . S
C1749 C1750 1.399 . S
C1749 C1754 1.399 . S
C1750 C1749 1.399 . S
C1750 C1751 1.376 . S
C1751 H1738 0.930 . S
C1751 C1750 1.376 . S
C1751 C1752 1.388 . S
C1752 H1739 0.930 . S
C1752 C1751 1.388 . S
C1752 C1753 1.390 . S
C1753 C1752 1.390 . S
C1753 C1754 1.394 . S
C1753 C1759 1.465 . S
C1754 C1749 1.399 . S
C1754 C1753 1.394 . S
C1754 C1755 1.516 . S
C1755 C1754 1.516 . S
C1755 C1756 1.502 . S
C1755 C1757 1.561 . S
C1755 C1758 1.526 . S
C1756 H1740 0.959 . S
C1756 H1741 0.959 . S
C1756 H1742 0.961 . S
C1756 C1755 1.502 . S
C1757 H1743 0.960 . S
C1757 H1744 0.961 . S
C1757 H1745 0.959 . S
C1757 C1755 1.561 . S
C1758 C1755 1.526 . S
C1758 C1759 1.396 . S
C1758 C1763 1.390 . S
C1759 C1753 1.465 . S
C1759 C1758 1.396 . S
C1759 C1760 1.399 . S
C1760 H1746 0.929 . S
C1760 C1759 1.399 . S
C1760 C1761 1.385 . S
C1761 H1747 0.931 . S
C1761 C1760 1.385 . S
C1761 C1762 1.389 . S
C1762 C1761 1.389 . S
C1762 C1763 1.387 . S
C1763 H1748 0.930 . S
C1763 C1758 1.390 . S
C1763 C1762 1.387 . S
H1764 C1776 0.930 . S
H1765 C1778 0.930 . S
H1766 C1779 0.930 . S
H1767 C1783 0.959 . S
H1768 C1783 0.959 . S
H1769 C1783 0.961 . S
H1770 C1784 0.960 . S
H1771 C1784 0.961 . S
H1772 C1784 0.959 . S
H1773 C1787 0.929 . S
H1774 C1788 0.931 . S
H1775 C1790 0.930 . S
C1776 H1764 0.930 . S
C1776 C1777 1.399 . S
C1776 C1781 1.399 . S
C1777 C1776 1.399 . S
C1777 C1778 1.376 . S
C1778 H1765 0.930 . S
C1778 C1777 1.376 . S
C1778 C1779 1.388 . S
C1779 H1766 0.930 . S
C1779 C1778 1.388 . S
C1779 C1780 1.390 . S
C1780 C1779 1.390 . S
C1780 C1781 1.394 . S
C1780 C1786 1.465 . S
C1781 C1776 1.399 . S
C1781 C1780 1.394 . S
C1781 C1782 1.516 . S
C1782 C1781 1.516 . S
C1782 C1783 1.502 . S
C1782 C1784 1.561 . S
C1782 C1785 1.526 . S
C1783 H1767 0.959 . S
C1783 H1768 0.959 . S
C1783 H1769 0.961 . S
C1783 C1782 1.502 . S
C1784 H1770 0.960 . S
C1784 H1771 0.961 . S
C1784 H1772 0.959 . S
C1784 C1782 1.561 . S
C1785 C1782 1.526 . S
C1785 C1786 1.396 . S
C1785 C1790 1.390 . S
C1786 C1780 1.465 . S
C1786 C1785 1.396 . S
C1786 C1787 1.399 . S
C1787 H1773 0.929 . S
C1787 C1786 1.399 . S
C1787 C1788 1.385 . S
C1788 H1774 0.931 . S
C1788 C1787 1.385 . S
C1788 C1789 1.389 . S
C1789 C1788 1.389 . S
C1789 C1790 1.387 . S
C1790 H1775 0.930 . S
C1790 C1785 1.390 . S
C1790 C1789 1.387 . S
H1791 C1803 0.930 . S
H1792 C1805 0.930 . S
H1793 C1806 0.930 . S
H1794 C1810 0.959 . S
H1795 C1810 0.959 . S
H1796 C1810 0.961 . S
H1797 C1811 0.960 . S
H1798 C1811 0.961 . S
H1799 C1811 0.959 . S
H1800 C1814 0.929 . S
H1801 C1815 0.931 . S
H1802 C1817 0.930 . S
C1803 H1791 0.930 . S
C1803 C1804 1.399 . S
C1803 C1808 1.399 . S
C1804 C1803 1.399 . S
C1804 C1805 1.376 . S
C1805 H1792 0.930 . S
C1805 C1804 1.376 . S
C1805 C1806 1.388 . S
C1806 H1793 0.930 . S
C1806 C1805 1.388 . S
C1806 C1807 1.390 . S
C1807 C1806 1.390 . S
C1807 C1808 1.394 . S
C1807 C1813 1.465 . S
C1808 C1803 1.399 . S
C1808 C1807 1.394 . S
C1808 C1809 1.516 . S
C1809 C1808 1.516 . S
C1809 C1810 1.502 . S
C1809 C1811 1.561 . S
C1809 C1812 1.526 . S
C1810 H1794 0.959 . S
C1810 H1795 0.959 . S
C1810 H1796 0.961 . S
C1810 C1809 1.502 . S
C1811 H1797 0.960 . S
C1811 H1798 0.961 . S
C1811 H1799 0.959 . S
C1811 C1809 1.561 . S
C1812 C1809 1.526 . S
C1812 C1813 1.396 . S
C1812 C1817 1.390 . S
C1813 C1807 1.465 . S
C1813 C1812 1.396 . S
C1813 C1814 1.399 . S
C1814 H1800 0.929 . S
C1814 C1813 1.399 . S
C1814 C1815 1.385 . S
C1815 H1801 0.931 . S
C1815 C1814 1.385 . S
C1815 C1816 1.389 . S
C1816 C1815 1.389 . S
C1816 C1817 1.387 . S
C1817 H1802 0.930 . S
C1817 C1812 1.390 . S
C1817 C1816 1.387 . S
C373 C279 1.915 . S
C385 C19 1.919 . S
C400 C29 1.496 . S
C412 C289 1.499 . S
C427 C59 1.722 . S
C439 C249 1.757 . S
C454 C49 1.402 . S
C466 C149 1.407 . S
C481 C169 1.607 . S
C493 C9 1.623 . S
C508 C39 1.750 . S
C520 C129 1.811 . S
C535 C78 1.707 . S
C547 C208 1.752 . S
C562 C88 1.323 . S
C574 C228 1.343 . S
C589 C188 1.546 . S
C601 C118 1.521 . S
C616 C328 1.495 . S
C628 C108 1.514 . S
C643 C68 1.753 . S
C655 C358 1.704 . S
C670 C318 1.930 . S
C682 C98 1.905 . S
C697 C179 1.614 . S
C709 C269 1.662 . S
C724 C139 1.844 . S
C736 C299 1.841 . S
C751 C159 2.013 . S
C763 C259 2.027 . S
C778 C198 2.066 . S
C790 C338 2.074 . S
C805 C348 1.759 . S
C817 C218 1.739 . S
C832 C308 1.956 . S
C844 C238 1.916 . S
C859 C8 1.409 . S
C871 C89 1.426 . S
C886 C119 1.700 . S
C898 C38 1.704 . S
C913 C79 1.539 . S
C925 C48 1.395 . S
C940 C99 1.731 . S
C952 C58 1.758 . S
C967 C109 1.512 . S
C979 C18 1.556 . S
C994 C69 1.464 . S
C1006 C28 1.510 . S
C1021 C219 1.774 . S
C1033 C138 1.758 . S
C1048 C239 1.790 . S
C1060 C158 1.769 . S
C1075 C199 1.811 . S
C1087 C178 1.772 . S
C1102 C209 1.430 . S
C1114 C168 1.426 . S
C1129 C229 1.418 . S
C1141 C128 1.466 . S
C1156 C189 1.348 . S
C1168 C148 1.362 . S
C1183 C329 1.436 . S
C1195 C248 1.398 . S
C1210 C359 1.708 . S
C1222 C278 1.667 . S
C1237 C288 1.549 . S
C1249 C319 1.591 . S
C1264 C298 1.844 . S
C1276 C339 1.847 . S
C1291 C258 1.638 . S
C1303 C349 1.476 . S
C1318 C309 1.502 . S
C1330 C268 1.497 . S
C1345 C1 1.330 . S
C1357 C2 1.377 . S
C1372 C22 1.346 . S
C1384 C21 1.424 . S
C1399 C41 1.417 . S
C1411 C42 1.328 . S
C1426 C62 1.400 . S
C1438 C61 1.334 . S
C1453 C82 1.319 . S
C1465 C81 1.396 . S
C1480 C101 1.455 . S
C1492 C102 1.365 . S
C1507 C121 1.405 . S
C1519 C122 1.444 . S
C1534 C142 1.311 . S
C1546 C141 1.385 1_554 S
C1561 C161 1.467 . S
C1573 C162 1.443 . S
C1588 C182 1.310 . S
C1600 C181 1.373 . S
C1615 C202 1.378 . S
C1627 C201 1.454 . S
C1642 C222 1.362 . S
C1654 C221 1.376 . S
C1669 C242 1.371 . S
C1681 C241 1.315 . S
C1696 C262 1.353 . S
C1708 C261 1.409 . S
C1723 C281 1.404 . S
C1735 C282 1.319 . S
C1750 C301 1.413 . S
C1762 C302 1.348 . S
C1777 C322 1.314 . S
C1789 C321 1.384 . S
C1804 C342 1.376 . S
C1816 C341 1.373 . S
