# Generated by pormake.
# Topology ubt, (5)-cn, num edge types: 1
# Building blocks:
#     Node 0, Type 0, BuildingBlock: XOMCOT_clean_sbu_1, # of connection points: 5
#     Node 1, Type 0, BuildingBlock: XOMCOT_clean_sbu_1, # of connection points: 5
#     Node 2, Type 0, BuildingBlock: XOMCOT_clean_sbu_1, # of connection points: 5
#     Node 3, Type 0, BuildingBlock: XOMCOT_clean_sbu_1, # of connection points: 5
#     Node 4, Type 0, BuildingBlock: XOMCOT_clean_sbu_1, # of connection points: 5
#     Node 5, Type 0, BuildingBlock: XOMCOT_clean_sbu_1, # of connection points: 5
#     Node 6, Type 0, BuildingBlock: XOMCOT_clean_sbu_1, # of connection points: 5
#     Node 7, Type 0, BuildingBlock: XOMCOT_clean_sbu_1, # of connection points: 5
#     Node 8, Type 0, BuildingBlock: XOMCOT_clean_sbu_1, # of connection points: 5
#     Node 9, Type 0, BuildingBlock: XOMCOT_clean_sbu_1, # of connection points: 5
#     Node 10, Type 0, BuildingBlock: XOMCOT_clean_sbu_1, # of connection points: 5
#     Node 11, Type 0, BuildingBlock: XOMCOT_clean_sbu_1, # of connection points: 5
#     Node 12, Type 0, BuildingBlock: XOMCOT_clean_sbu_1, # of connection points: 5
#     Node 13, Type 0, BuildingBlock: XOMCOT_clean_sbu_1, # of connection points: 5
#     Node 14, Type 0, BuildingBlock: XOMCOT_clean_sbu_1, # of connection points: 5
#     Node 15, Type 0, BuildingBlock: XOMCOT_clean_sbu_1, # of connection points: 5
#     Node 16, Type 0, BuildingBlock: XOMCOT_clean_sbu_1, # of connection points: 5
#     Node 17, Type 0, BuildingBlock: XOMCOT_clean_sbu_1, # of connection points: 5
#     Node 18, Type 0, BuildingBlock: XOMCOT_clean_sbu_1, # of connection points: 5
#     Node 19, Type 0, BuildingBlock: XOMCOT_clean_sbu_1, # of connection points: 5
#     Node 20, Type 0, BuildingBlock: XOMCOT_clean_sbu_1, # of connection points: 5
#     Node 21, Type 0, BuildingBlock: XOMCOT_clean_sbu_1, # of connection points: 5
#     Node 22, Type 0, BuildingBlock: XOMCOT_clean_sbu_1, # of connection points: 5
#     Node 23, Type 0, BuildingBlock: XOMCOT_clean_sbu_1, # of connection points: 5
#     Node 24, Type 0, BuildingBlock: XOMCOT_clean_sbu_1, # of connection points: 5
#     Node 25, Type 0, BuildingBlock: XOMCOT_clean_sbu_1, # of connection points: 5
#     Node 26, Type 0, BuildingBlock: XOMCOT_clean_sbu_1, # of connection points: 5
#     Node 27, Type 0, BuildingBlock: XOMCOT_clean_sbu_1, # of connection points: 5
#     Node 28, Type 0, BuildingBlock: XOMCOT_clean_sbu_1, # of connection points: 5
#     Node 29, Type 0, BuildingBlock: XOMCOT_clean_sbu_1, # of connection points: 5
#     Node 30, Type 0, BuildingBlock: XOMCOT_clean_sbu_1, # of connection points: 5
#     Node 31, Type 0, BuildingBlock: XOMCOT_clean_sbu_1, # of connection points: 5
#     Node 32, Type 0, BuildingBlock: XOMCOT_clean_sbu_1, # of connection points: 5
#     Node 33, Type 0, BuildingBlock: XOMCOT_clean_sbu_1, # of connection points: 5
#     Node 34, Type 0, BuildingBlock: XOMCOT_clean_sbu_1, # of connection points: 5
#     Node 35, Type 0, BuildingBlock: XOMCOT_clean_sbu_1, # of connection points: 5
#     Node 36, Type 0, BuildingBlock: XOMCOT_clean_sbu_1, # of connection points: 5
#     Node 37, Type 0, BuildingBlock: XOMCOT_clean_sbu_1, # of connection points: 5
#     Node 38, Type 0, BuildingBlock: XOMCOT_clean_sbu_1, # of connection points: 5
#     Node 39, Type 0, BuildingBlock: XOMCOT_clean_sbu_1, # of connection points: 5
#     Node 40, Type 0, BuildingBlock: XOMCOT_clean_sbu_1, # of connection points: 5
#     Node 41, Type 0, BuildingBlock: XOMCOT_clean_sbu_1, # of connection points: 5
#     Node 42, Type 0, BuildingBlock: XOMCOT_clean_sbu_1, # of connection points: 5
#     Node 43, Type 0, BuildingBlock: XOMCOT_clean_sbu_1, # of connection points: 5
#     Node 44, Type 0, BuildingBlock: XOMCOT_clean_sbu_1, # of connection points: 5
#     Node 45, Type 0, BuildingBlock: XOMCOT_clean_sbu_1, # of connection points: 5
#     Node 46, Type 0, BuildingBlock: XOMCOT_clean_sbu_1, # of connection points: 5
#     Node 47, Type 0, BuildingBlock: XOMCOT_clean_sbu_1, # of connection points: 5
#     Edge 48, Type (0, 0), BuildingBlock: XIVTED_clean_linker_0, # of connection points: 2
#     Edge 49, Type (0, 0), BuildingBlock: XIVTED_clean_linker_0, # of connection points: 2
#     Edge 50, Type (0, 0), BuildingBlock: XIVTED_clean_linker_0, # of connection points: 2
#     Edge 51, Type (0, 0), BuildingBlock: XIVTED_clean_linker_0, # of connection points: 2
#     Edge 52, Type (0, 0), BuildingBlock: XIVTED_clean_linker_0, # of connection points: 2
#     Edge 53, Type (0, 0), BuildingBlock: XIVTED_clean_linker_0, # of connection points: 2
#     Edge 54, Type (0, 0), BuildingBlock: XIVTED_clean_linker_0, # of connection points: 2
#     Edge 55, Type (0, 0), BuildingBlock: XIVTED_clean_linker_0, # of connection points: 2
#     Edge 56, Type (0, 0), BuildingBlock: XIVTED_clean_linker_0, # of connection points: 2
#     Edge 57, Type (0, 0), BuildingBlock: XIVTED_clean_linker_0, # of connection points: 2
#     Edge 58, Type (0, 0), BuildingBlock: XIVTED_clean_linker_0, # of connection points: 2
#     Edge 59, Type (0, 0), BuildingBlock: XIVTED_clean_linker_0, # of connection points: 2
#     Edge 60, Type (0, 0), BuildingBlock: XIVTED_clean_linker_0, # of connection points: 2
#     Edge 61, Type (0, 0), BuildingBlock: XIVTED_clean_linker_0, # of connection points: 2
#     Edge 62, Type (0, 0), BuildingBlock: XIVTED_clean_linker_0, # of connection points: 2
#     Edge 63, Type (0, 0), BuildingBlock: XIVTED_clean_linker_0, # of connection points: 2
#     Edge 64, Type (0, 0), BuildingBlock: XIVTED_clean_linker_0, # of connection points: 2
#     Edge 65, Type (0, 0), BuildingBlock: XIVTED_clean_linker_0, # of connection points: 2
#     Edge 66, Type (0, 0), BuildingBlock: XIVTED_clean_linker_0, # of connection points: 2
#     Edge 67, Type (0, 0), BuildingBlock: XIVTED_clean_linker_0, # of connection points: 2
#     Edge 68, Type (0, 0), BuildingBlock: XIVTED_clean_linker_0, # of connection points: 2
#     Edge 69, Type (0, 0), BuildingBlock: XIVTED_clean_linker_0, # of connection points: 2
#     Edge 70, Type (0, 0), BuildingBlock: XIVTED_clean_linker_0, # of connection points: 2
#     Edge 71, Type (0, 0), BuildingBlock: XIVTED_clean_linker_0, # of connection points: 2
#     Edge 72, Type (0, 0), BuildingBlock: XIVTED_clean_linker_0, # of connection points: 2
#     Edge 73, Type (0, 0), BuildingBlock: XIVTED_clean_linker_0, # of connection points: 2
#     Edge 74, Type (0, 0), BuildingBlock: XIVTED_clean_linker_0, # of connection points: 2
#     Edge 75, Type (0, 0), BuildingBlock: XIVTED_clean_linker_0, # of connection points: 2
#     Edge 76, Type (0, 0), BuildingBlock: XIVTED_clean_linker_0, # of connection points: 2
#     Edge 77, Type (0, 0), BuildingBlock: XIVTED_clean_linker_0, # of connection points: 2
#     Edge 78, Type (0, 0), BuildingBlock: XIVTED_clean_linker_0, # of connection points: 2
#     Edge 79, Type (0, 0), BuildingBlock: XIVTED_clean_linker_0, # of connection points: 2
#     Edge 80, Type (0, 0), BuildingBlock: XIVTED_clean_linker_0, # of connection points: 2
#     Edge 81, Type (0, 0), BuildingBlock: XIVTED_clean_linker_0, # of connection points: 2
#     Edge 82, Type (0, 0), BuildingBlock: XIVTED_clean_linker_0, # of connection points: 2
#     Edge 83, Type (0, 0), BuildingBlock: XIVTED_clean_linker_0, # of connection points: 2
#     Edge 84, Type (0, 0), BuildingBlock: XIVTED_clean_linker_0, # of connection points: 2
#     Edge 85, Type (0, 0), BuildingBlock: XIVTED_clean_linker_0, # of connection points: 2
#     Edge 86, Type (0, 0), BuildingBlock: XIVTED_clean_linker_0, # of connection points: 2
#     Edge 87, Type (0, 0), BuildingBlock: XIVTED_clean_linker_0, # of connection points: 2
#     Edge 88, Type (0, 0), BuildingBlock: XIVTED_clean_linker_0, # of connection points: 2
#     Edge 89, Type (0, 0), BuildingBlock: XIVTED_clean_linker_0, # of connection points: 2
#     Edge 90, Type (0, 0), BuildingBlock: XIVTED_clean_linker_0, # of connection points: 2
#     Edge 91, Type (0, 0), BuildingBlock: XIVTED_clean_linker_0, # of connection points: 2
#     Edge 92, Type (0, 0), BuildingBlock: XIVTED_clean_linker_0, # of connection points: 2
#     Edge 93, Type (0, 0), BuildingBlock: XIVTED_clean_linker_0, # of connection points: 2
#     Edge 94, Type (0, 0), BuildingBlock: XIVTED_clean_linker_0, # of connection points: 2
#     Edge 95, Type (0, 0), BuildingBlock: XIVTED_clean_linker_0, # of connection points: 2
#     Edge 96, Type (0, 0), BuildingBlock: XIVTED_clean_linker_0, # of connection points: 2
#     Edge 97, Type (0, 0), BuildingBlock: XIVTED_clean_linker_0, # of connection points: 2
#     Edge 98, Type (0, 0), BuildingBlock: XIVTED_clean_linker_0, # of connection points: 2
#     Edge 99, Type (0, 0), BuildingBlock: XIVTED_clean_linker_0, # of connection points: 2
#     Edge 100, Type (0, 0), BuildingBlock: XIVTED_clean_linker_0, # of connection points: 2
#     Edge 101, Type (0, 0), BuildingBlock: XIVTED_clean_linker_0, # of connection points: 2
#     Edge 102, Type (0, 0), BuildingBlock: XIVTED_clean_linker_0, # of connection points: 2
#     Edge 103, Type (0, 0), BuildingBlock: XIVTED_clean_linker_0, # of connection points: 2
#     Edge 104, Type (0, 0), BuildingBlock: XIVTED_clean_linker_0, # of connection points: 2
#     Edge 105, Type (0, 0), BuildingBlock: XIVTED_clean_linker_0, # of connection points: 2
#     Edge 106, Type (0, 0), BuildingBlock: XIVTED_clean_linker_0, # of connection points: 2
#     Edge 107, Type (0, 0), BuildingBlock: XIVTED_clean_linker_0, # of connection points: 2
#     Edge 108, Type (0, 0), BuildingBlock: XIVTED_clean_linker_0, # of connection points: 2
#     Edge 109, Type (0, 0), BuildingBlock: XIVTED_clean_linker_0, # of connection points: 2
#     Edge 110, Type (0, 0), BuildingBlock: XIVTED_clean_linker_0, # of connection points: 2
#     Edge 111, Type (0, 0), BuildingBlock: XIVTED_clean_linker_0, # of connection points: 2
#     Edge 112, Type (0, 0), BuildingBlock: XIVTED_clean_linker_0, # of connection points: 2
#     Edge 113, Type (0, 0), BuildingBlock: XIVTED_clean_linker_0, # of connection points: 2
#     Edge 114, Type (0, 0), BuildingBlock: XIVTED_clean_linker_0, # of connection points: 2
#     Edge 115, Type (0, 0), BuildingBlock: XIVTED_clean_linker_0, # of connection points: 2
#     Edge 116, Type (0, 0), BuildingBlock: XIVTED_clean_linker_0, # of connection points: 2
#     Edge 117, Type (0, 0), BuildingBlock: XIVTED_clean_linker_0, # of connection points: 2
#     Edge 118, Type (0, 0), BuildingBlock: XIVTED_clean_linker_0, # of connection points: 2
#     Edge 119, Type (0, 0), BuildingBlock: XIVTED_clean_linker_0, # of connection points: 2
#     Edge 120, Type (0, 0), BuildingBlock: XIVTED_clean_linker_0, # of connection points: 2
#     Edge 121, Type (0, 0), BuildingBlock: XIVTED_clean_linker_0, # of connection points: 2
#     Edge 122, Type (0, 0), BuildingBlock: XIVTED_clean_linker_0, # of connection points: 2
#     Edge 123, Type (0, 0), BuildingBlock: XIVTED_clean_linker_0, # of connection points: 2
#     Edge 124, Type (0, 0), BuildingBlock: XIVTED_clean_linker_0, # of connection points: 2
#     Edge 125, Type (0, 0), BuildingBlock: XIVTED_clean_linker_0, # of connection points: 2
#     Edge 126, Type (0, 0), BuildingBlock: XIVTED_clean_linker_0, # of connection points: 2
#     Edge 127, Type (0, 0), BuildingBlock: XIVTED_clean_linker_0, # of connection points: 2
#     Edge 128, Type (0, 0), BuildingBlock: XIVTED_clean_linker_0, # of connection points: 2
#     Edge 129, Type (0, 0), BuildingBlock: XIVTED_clean_linker_0, # of connection points: 2
#     Edge 130, Type (0, 0), BuildingBlock: XIVTED_clean_linker_0, # of connection points: 2
#     Edge 131, Type (0, 0), BuildingBlock: XIVTED_clean_linker_0, # of connection points: 2
#     Edge 132, Type (0, 0), BuildingBlock: XIVTED_clean_linker_0, # of connection points: 2
#     Edge 133, Type (0, 0), BuildingBlock: XIVTED_clean_linker_0, # of connection points: 2
#     Edge 134, Type (0, 0), BuildingBlock: XIVTED_clean_linker_0, # of connection points: 2
#     Edge 135, Type (0, 0), BuildingBlock: XIVTED_clean_linker_0, # of connection points: 2
#     Edge 136, Type (0, 0), BuildingBlock: XIVTED_clean_linker_0, # of connection points: 2
#     Edge 137, Type (0, 0), BuildingBlock: XIVTED_clean_linker_0, # of connection points: 2
#     Edge 138, Type (0, 0), BuildingBlock: XIVTED_clean_linker_0, # of connection points: 2
#     Edge 139, Type (0, 0), BuildingBlock: XIVTED_clean_linker_0, # of connection points: 2
#     Edge 140, Type (0, 0), BuildingBlock: XIVTED_clean_linker_0, # of connection points: 2
#     Edge 141, Type (0, 0), BuildingBlock: XIVTED_clean_linker_0, # of connection points: 2
#     Edge 142, Type (0, 0), BuildingBlock: XIVTED_clean_linker_0, # of connection points: 2
#     Edge 143, Type (0, 0), BuildingBlock: XIVTED_clean_linker_0, # of connection points: 2
#     Edge 144, Type (0, 0), BuildingBlock: XIVTED_clean_linker_0, # of connection points: 2
#     Edge 145, Type (0, 0), BuildingBlock: XIVTED_clean_linker_0, # of connection points: 2
#     Edge 146, Type (0, 0), BuildingBlock: XIVTED_clean_linker_0, # of connection points: 2
#     Edge 147, Type (0, 0), BuildingBlock: XIVTED_clean_linker_0, # of connection points: 2
#     Edge 148, Type (0, 0), BuildingBlock: XIVTED_clean_linker_0, # of connection points: 2
#     Edge 149, Type (0, 0), BuildingBlock: XIVTED_clean_linker_0, # of connection points: 2
#     Edge 150, Type (0, 0), BuildingBlock: XIVTED_clean_linker_0, # of connection points: 2
#     Edge 151, Type (0, 0), BuildingBlock: XIVTED_clean_linker_0, # of connection points: 2
#     Edge 152, Type (0, 0), BuildingBlock: XIVTED_clean_linker_0, # of connection points: 2
#     Edge 153, Type (0, 0), BuildingBlock: XIVTED_clean_linker_0, # of connection points: 2
#     Edge 154, Type (0, 0), BuildingBlock: XIVTED_clean_linker_0, # of connection points: 2
#     Edge 155, Type (0, 0), BuildingBlock: XIVTED_clean_linker_0, # of connection points: 2
#     Edge 156, Type (0, 0), BuildingBlock: XIVTED_clean_linker_0, # of connection points: 2
#     Edge 157, Type (0, 0), BuildingBlock: XIVTED_clean_linker_0, # of connection points: 2
#     Edge 158, Type (0, 0), BuildingBlock: XIVTED_clean_linker_0, # of connection points: 2
#     Edge 159, Type (0, 0), BuildingBlock: XIVTED_clean_linker_0, # of connection points: 2
#     Edge 160, Type (0, 0), BuildingBlock: XIVTED_clean_linker_0, # of connection points: 2
#     Edge 161, Type (0, 0), BuildingBlock: XIVTED_clean_linker_0, # of connection points: 2
#     Edge 162, Type (0, 0), BuildingBlock: XIVTED_clean_linker_0, # of connection points: 2
#     Edge 163, Type (0, 0), BuildingBlock: XIVTED_clean_linker_0, # of connection points: 2
#     Edge 164, Type (0, 0), BuildingBlock: XIVTED_clean_linker_0, # of connection points: 2
#     Edge 165, Type (0, 0), BuildingBlock: XIVTED_clean_linker_0, # of connection points: 2
#     Edge 166, Type (0, 0), BuildingBlock: XIVTED_clean_linker_0, # of connection points: 2
#     Edge 167, Type (0, 0), BuildingBlock: XIVTED_clean_linker_0, # of connection points: 2
# Relax obj value: 0.234
# Max RMSD: 0.185
# Mean RMSD: 0.180
data_MOF--net-ubt--node1-XOMCOT_clean_sbu_1--edge1-XIVTED_clean_linker_0
_symmetry_space_group_name_H-M    P1
_symmetry_Int_Tables_number       1
_symmetry_cell_setting            triclinic
loop_
_symmetry_equiv_pos_as_xyz
'x, y, z'
_cell_length_a     71.461691
_cell_length_b     71.767719
_cell_length_c     71.477904
_cell_angle_alpha  89.97161
_cell_angle_beta   90.45722
_cell_angle_gamma 91.415225
loop_
_atom_site_label
_atom_site_type_symbol
_atom_site_fract_x
_atom_site_fract_y
_atom_site_fract_z
_atom_type_partial_charge
C0 C 0.99768 0.20312 0.15693 0.0
C1 C 0.98108 0.20364 0.14699 0.0
N2 N 0.97885 0.18744 0.13762 0.0
N3 N 0.00563 0.18653 0.15398 0.0
C4 C 0.99387 0.17739 0.14211 0.0
H5 H 0.00355 0.21412 0.16566 0.0
Co6 Co 0.02791 0.17682 0.16279 0.0
C7 C 0.01551 0.14166 0.18136 0.0
O8 O 0.02831 0.14421 0.19448 0.0
N9 N 0.05045 0.16629 0.17106 0.0
C10 C 0.07713 0.15813 0.18479 0.0
C11 C 0.06376 0.17157 0.18371 0.0
C12 C 0.05644 0.14985 0.16439 0.0
N13 N 0.07244 0.14452 0.1726 0.0
O14 O 0.03376 0.16906 0.13803 0.0
H15 H 0.06394 0.18411 0.19198 0.0
H16 H 0.04867 0.14143 0.1543 0.0
O17 O 0.01418 0.1535 0.16808 0.0
C18 C 0.04014 0.18346 0.12954 0.0
O19 O 0.03956 0.19964 0.13811 0.0
N20 N 0.02328 0.18676 0.18648 0.0
C21 C 0.0207 0.20795 0.21911 0.0
C22 C 0.0087 0.19237 0.21605 0.0
C23 C 0.01002 0.18206 0.19943 0.0
C24 C 0.03404 0.2025 0.1887 0.0
C25 C 0.03346 0.21289 0.20503 0.0
H26 H 0.00011 0.17074 0.19688 0.0
H27 H 0.04359 0.20674 0.17774 0.0
H28 H 0.99622 0.16345 0.13699 0.0
H29 H 0.97154 0.21512 0.14648 0.0
H30 H 0.08928 0.15829 0.19394 0.0
H31 H 0.99809 0.18843 0.22613 0.0
H32 H 0.04316 0.22462 0.20656 0.0
C33 C 0.8887 0.03565 0.22272 0.0
C34 C 0.90115 0.05053 0.22352 0.0
N35 N 0.90875 0.05289 0.20648 0.0
N36 N 0.88832 0.02865 0.20519 0.0
C37 C 0.90059 0.03958 0.19559 0.0
H38 H 0.88125 0.0298 0.2345 0.0
Co39 Co 0.87693 0.00633 0.19692 0.0
C40 C 0.85439 0.01759 0.16348 0.0
O41 O 0.84126 0.00504 0.16727 0.0
N42 N 0.86617 0.98363 0.18851 0.0
C43 C 0.85183 0.95585 0.18609 0.0
C44 C 0.85622 0.97041 0.1979 0.0
C45 C 0.86824 0.97631 0.17122 0.0
N46 N 0.85935 0.95964 0.16929 0.0
O47 O 0.89966 -0.00057 0.18515 0.0
H48 H 0.8525 0.97084 0.21245 0.0
H49 H 0.87571 0.98339 0.16006 0.0
O50 O 0.86874 0.01931 0.17422 0.0
C51 C 0.91117 0.99333 0.19724 0.0
O52 O 0.90708 0.99495 0.21506 0.0
N53 N 0.8551 0.01189 0.21026 0.0
C54 C 0.82431 0.01244 0.23402 0.0
C55 C 0.82439 0.02276 0.2173 0.0
C56 C 0.84021 0.02267 0.20576 0.0
C57 C 0.85571 0.00308 0.22711 0.0
C58 C 0.84048 0.00295 0.23906 0.0
H59 H 0.84027 0.03118 0.19335 0.0
H60 H 0.86797 0.99531 0.2309 0.0
H61 H 0.90445 0.03697 0.18123 0.0
H62 H 0.90484 0.05853 0.2359 0.0
H63 H 0.84386 0.94334 0.18966 0.0
H64 H 0.81242 0.03084 0.21325 0.0
H65 H 0.84117 0.99487 0.25183 0.0
C66 C 0.0083 0.86099 0.20161 0.0
C67 C 0.99785 0.87602 0.20655 0.0
N68 N 0.99292 0.88509 0.19082 0.0
N69 N 0.00984 0.86052 0.18285 0.0
C70 C 0.00029 0.87535 0.17664 0.0
H71 H 0.01506 0.85155 0.21116 0.0
Co72 Co 0.0253 0.84533 0.1692 0.0
C73 C 0.0031 0.83284 0.13653 0.0
O74 O 0.0113 0.8167 0.13786 0.0
N75 N 0.0417 0.83051 0.15507 0.0
C76 C 0.06124 0.80965 0.14372 0.0
C77 C 0.04942 0.81376 0.15821 0.0
C78 C 0.04923 0.83623 0.13864 0.0
N79 N 0.06115 0.8239 0.1315 0.0
O80 O 0.03869 0.8671 0.16081 0.0
H81 H 0.04695 0.80492 0.17017 0.0
H82 H 0.04581 0.8492 0.13184 0.0
O83 O 0.00757 0.84592 0.14803 0.0
C84 C 0.05205 0.86895 0.17265 0.0
O85 O 0.05296 0.85679 0.18637 0.0
N86 N 0.0132 0.82436 0.17984 0.0
C87 C 0.99768 0.79775 0.20398 0.0
C88 C 0.98696 0.80505 0.18932 0.0
C89 C 0.99484 0.81881 0.17768 0.0
C90 C 0.0236 0.81749 0.1942 0.0
C91 C 0.01622 0.80407 0.20629 0.0
H92 H 0.98583 0.8256 0.16776 0.0
H93 H 0.03762 0.823 0.19668 0.0
H94 H 0.9998 0.8796 0.16212 0.0
H95 H 0.99458 0.88022 0.22067 0.0
H96 H 0.06957 0.79732 0.14252 0.0
H97 H 0.97239 0.80086 0.18751 0.0
H98 H 0.02488 0.79891 0.21757 0.0
C99 C 0.17022 0.99152 0.18675 0.0
C100 C 0.15865 0.97658 0.19113 0.0
N101 N 0.14882 0.97164 0.17566 0.0
N102 N 0.16781 0.99584 0.16855 0.0
C103 C 0.15461 0.98359 0.16222 0.0
H104 H 0.17956 0.99894 0.19629 0.0
Co105 Co 0.17888 0.01526 0.15514 0.0
C106 C 0.19133 0.99778 0.12018 0.0
O107 O 0.20663 0.0083 0.12086 0.0
N108 N 0.18954 0.03521 0.14117 0.0
C109 C 0.20675 0.05833 0.12876 0.0
C110 C 0.20534 0.04585 0.14328 0.0
C111 C 0.18156 0.04182 0.12534 0.0
N112 N 0.19174 0.05576 0.11754 0.0
O113 O 0.15466 0.02425 0.14909 0.0
H114 H 0.21559 0.04479 0.15432 0.0
H115 H 0.16879 0.03606 0.1192 0.0
O116 O 0.17902 0.99925 0.13295 0.0
C117 C 0.14929 0.03316 0.16341 0.0
O118 O 0.15999 0.03326 0.17845 0.0
N119 N 0.20233 0.00744 0.16334 0.0
C120 C 0.2338 0.99792 0.18404 0.0
C121 C 0.22643 0.9857 0.1704 0.0
C122 C 0.2105 0.99072 0.16015 0.0
C123 C 0.20885 0.01883 0.17728 0.0
C124 C 0.2249 0.01469 0.18733 0.0
H125 H 0.20419 0.9807 0.15061 0.0
H126 H 0.20118 0.03112 0.18088 0.0
H127 H 0.14933 0.9835 0.14799 0.0
H128 H 0.15728 0.97016 0.20477 0.0
H129 H 0.21792 0.06856 0.12663 0.0
H130 H 0.23251 0.97221 0.16819 0.0
H131 H 0.22966 0.02402 0.1984 0.0
C132 C 0.00947 0.86619 0.82215 0.0
C133 C 0.02201 0.8794 0.81553 0.0
N134 N 0.02998 0.8883 0.83028 0.0
N135 N 0.00959 0.86664 0.84102 0.0
C136 C 0.02226 0.8802 0.84555 0.0
H137 H 0.00032 0.85736 0.81369 0.0
Co138 Co 0.99323 0.8539 0.85711 0.0
C139 C 0.01785 0.83666 0.88526 0.0
O140 O 0.00719 0.82152 0.88442 0.0
N141 N 0.97633 0.84131 0.87378 0.0
C142 C 0.95787 0.8207 0.8887 0.0
C143 C 0.96858 0.82386 0.87314 0.0
C144 C 0.96988 0.84834 0.89007 0.0
N145 N 0.95869 0.83612 0.8993 0.0
O146 O 0.98671 0.8772 0.86799 0.0
H147 H 0.97099 0.81343 0.86266 0.0
H148 H 0.9738 0.86194 0.89553 0.0
O149 O 0.01394 0.85071 0.87503 0.0
C150 C 0.97504 0.8841 0.85649 0.0
O151 O 0.97092 0.87483 0.84108 0.0
N152 N 0.99796 0.83187 0.84427 0.0
C153 C 0.99979 0.80227 0.81906 0.0
C154 C 0.01541 0.80746 0.83021 0.0
C155 C 0.01429 0.82254 0.84262 0.0
C156 C 0.98313 0.82763 0.83285 0.0
C157 C 0.98348 0.81258 0.82071 0.0
H158 H 0.02668 0.82708 0.85025 0.0
H159 H 0.9707 0.83589 0.83353 0.0
H160 H 0.02495 0.88475 0.85977 0.0
H161 H 0.02472 0.88247 0.80096 0.0
H162 H 0.95019 0.80795 0.89204 0.0
H163 H 0.02855 0.80041 0.82893 0.0
H164 H 0.97095 0.80917 0.81269 0.0
C165 C 0.18526 0.98757 0.84833 0.0
C166 C 0.18903 0.97218 0.85905 0.0
N167 N 0.17374 0.96778 0.86923 0.0
N168 N 0.16759 0.99283 0.8516 0.0
C169 C 0.16096 0.98046 0.86433 0.0
H170 H 0.19516 0.99487 0.83946 0.0
Co171 Co 0.15512 0.01407 0.84356 0.0
C172 C 0.11938 0.99787 0.82781 0.0
O173 O 0.1182 0.01052 0.81459 0.0
N174 N 0.14217 0.03544 0.83608 0.0
C175 C 0.13481 0.06383 0.82636 0.0
C176 C 0.14761 0.04992 0.82511 0.0
C177 C 0.12591 0.04096 0.84369 0.0
N178 N 0.12123 0.05819 0.83815 0.0
O179 O 0.14764 0.01882 0.86863 0.0
H180 H 0.16041 0.051 0.81729 0.0
H181 H 0.11816 0.03288 0.85396 0.0
O182 O 0.13317 0.99833 0.83924 0.0
C183 C 0.16168 0.02505 0.87797 0.0
O184 O 0.17826 0.02514 0.87012 0.0
N185 N 0.16458 0.01085 0.81951 0.0
C186 C 0.18762 0.00983 0.78828 0.0
C187 C 0.17136 0.99844 0.78912 0.0
C188 C 0.16004 0.99893 0.80517 0.0
C189 C 0.18031 0.02188 0.8187 0.0
C190 C 0.19182 0.02179 0.80324 0.0
H191 H 0.14825 0.98933 0.80624 0.0
H192 H 0.18409 0.03064 0.83052 0.0
H193 H 0.14716 0.98119 0.87036 0.0
H194 H 0.20237 0.96541 0.85999 0.0
H195 H 0.13572 0.07728 0.81952 0.0
H196 H 0.16791 0.98875 0.77792 0.0
H197 H 0.20422 0.03079 0.80317 0.0
C198 C 0.97471 0.14681 0.82539 0.0
C199 C 0.96248 0.13217 0.8218 0.0
N200 N 0.95544 0.12609 0.83821 0.0
N201 N 0.97526 0.15009 0.84395 0.0
C202 C 0.96342 0.13722 0.85142 0.0
H203 H 0.98318 0.15412 0.81516 0.0
Co204 Co 0.99164 0.16661 0.8559 0.0
C205 C 0.97107 0.18215 0.88789 0.0
O206 O 0.97942 0.19835 0.88475 0.0
N207 N 0.00907 0.18314 0.86807 0.0
C208 C 0.02932 0.20609 0.87576 0.0
C209 C 0.01569 0.20031 0.86322 0.0
C210 C 0.01891 0.17901 0.88375 0.0
N211 N 0.03143 0.19256 0.88857 0.0
O212 O 0.00387 0.14587 0.86698 0.0
H213 H 0.01128 0.20829 0.85127 0.0
H214 H 0.01706 0.16619 0.89153 0.0
O215 O 0.97444 0.16829 0.87726 0.0
C216 C 0.01787 0.14249 0.85673 0.0
O217 O 0.02087 0.15288 0.84187 0.0
N218 N 0.98066 0.18625 0.8428 0.0
C219 C 0.96856 0.21238 0.8168 0.0
C220 C 0.95758 0.20785 0.83243 0.0
C221 C 0.96365 0.19425 0.84507 0.0
C222 C 0.99109 0.19017 0.82736 0.0
C223 C 0.9854 0.20322 0.81429 0.0
H224 H 0.95446 0.18993 0.85624 0.0
H225 H 0.00407 0.18306 0.82526 0.0
H226 H 0.96145 0.13542 0.86631 0.0
H227 H 0.95929 0.12627 0.80818 0.0
H228 H 0.03753 0.21894 0.87507 0.0
H229 H 0.94425 0.21437 0.83454 0.0
H230 H 0.99427 0.2063 0.8024 0.0
C231 C 0.80026 0.02905 0.87303 0.0
C232 C 0.79688 0.04361 0.88497 0.0
N233 N 0.81274 0.04769 0.89462 0.0
N234 N 0.81821 0.024 0.87509 0.0
C235 C 0.82546 0.03572 0.8882 0.0
H236 H 0.78997 0.022 0.86422 0.0
Co237 Co 0.83003 0.00311 0.86569 0.0
C238 C 0.86538 0.01822 0.84944 0.0
O239 O 0.86461 0.00576 0.83597 0.0
N240 N 0.84234 0.98191 0.85687 0.0
C241 C 0.85247 0.95729 0.8413 0.0
C242 C 0.83826 0.96977 0.84285 0.0
C243 C 0.85886 0.97607 0.86389 0.0
N244 N 0.86537 0.96132 0.85457 0.0
O245 O 0.83834 0.99709 0.89033 0.0
H246 H 0.82611 0.97 0.83384 0.0
H247 H 0.86658 0.9832 0.87496 0.0
O248 O 0.85242 0.01858 0.86163 0.0
C249 C 0.8251 0.99 0.89999 0.0
O250 O 0.80816 0.98914 0.8927 0.0
N251 N 0.82003 0.00802 0.84186 0.0
C252 C 0.79933 0.0114 0.80884 0.0
C253 C 0.81519 0.0229 0.81215 0.0
C254 C 0.82514 0.0213 0.82904 0.0
C255 C 0.80428 0.99727 0.83906 0.0
C256 C 0.79385 0.99858 0.82262 0.0
H257 H 0.83652 0.03106 0.83185 0.0
H258 H 0.79991 0.98744 0.84974 0.0
H259 H 0.83944 0.03451 0.89394 0.0
H260 H 0.78355 0.05015 0.88692 0.0
H261 H 0.8534 0.94628 0.83103 0.0
H262 H 0.81945 0.03341 0.80207 0.0
H263 H 0.78161 0.98955 0.82071 0.0
C264 C 0.19862 0.1583 0.96783 0.0
C265 C 0.19961 0.14348 0.95571 0.0
N266 N 0.18249 0.13526 0.95445 0.0
N267 N 0.18093 0.15935 0.97412 0.0
C268 C 0.17142 0.14528 0.96555 0.0
H269 H 0.21032 0.16684 0.97274 0.0
Co270 Co 0.17216 0.17283 0.99418 0.0
C271 C 0.13749 0.18965 0.98022 0.0
O272 O 0.14206 0.2051 0.9892 0.0
N273 N 0.16283 0.18589 0.01484 0.0
C274 C 0.15623 0.20484 0.03844 0.0
C275 C 0.16875 0.20123 0.0244 0.0
C276 C 0.14689 0.18042 0.02353 0.0
N277 N 0.14257 0.19163 0.03784 0.0
O278 O 0.16358 0.15005 0.00545 0.0
H279 H 0.18116 0.20954 0.02149 0.0
H280 H 0.13816 0.16871 0.01902 0.0
O281 O 0.14838 0.17578 0.98091 0.0
C282 C 0.17788 0.14277 0.01294 0.0
O283 O 0.1942 0.15143 0.0113 0.0
N284 N 0.18293 0.19442 0.9839 0.0
C285 C 0.2079 0.2211 0.96982 0.0
C286 C 0.19088 0.21732 0.96055 0.0
C287 C 0.17868 0.20343 0.96759 0.0
C288 C 0.19953 0.19796 0.99282 0.0
C289 C 0.21212 0.21132 0.98615 0.0
H290 H 0.16646 0.1994 0.95946 0.0
H291 H 0.20326 0.1898 0.00496 0.0
H292 H 0.15707 0.1414 0.96877 0.0
H293 H 0.21214 0.13854 0.94913 0.0
H294 H 0.15718 0.21622 0.04837 0.0
H295 H 0.18746 0.22442 0.94763 0.0
H296 H 0.22524 0.21381 0.99357 0.0
C297 C 0.20578 0.86563 0.01685 0.0
C298 C 0.21045 0.87986 0.029 0.0
N299 N 0.19459 0.88805 0.03435 0.0
N300 N 0.18703 0.86472 0.01464 0.0
C301 C 0.18058 0.87855 0.02548 0.0
H302 H 0.2155 0.85695 0.00959 0.0
Co303 Co 0.17389 0.84965 0.99765 0.0
C304 C 0.14138 0.83446 0.01793 0.0
O305 O 0.14399 0.81866 0.00915 0.0
N306 N 0.16029 0.83495 0.97978 0.0
C307 C 0.14955 0.81452 0.95852 0.0
C308 C 0.16392 0.81882 0.97086 0.0
C309 C 0.14367 0.84012 0.97241 0.0
N310 N 0.13687 0.82802 0.95946 0.0
O311 O 0.16524 0.87152 0.98526 0.0
H312 H 0.17613 0.81052 0.97288 0.0
H313 H 0.13647 0.85247 0.97671 0.0
O314 O 0.15231 0.8485 0.01467 0.0
C315 C 0.17777 0.8746 0.97295 0.0
O316 O 0.1923 0.86371 0.97282 0.0
N317 N 0.18486 0.82869 0.00868 0.0
C318 C 0.21013 0.80327 0.02322 0.0
C319 C 0.19525 0.80941 0.03411 0.0
C320 C 0.183 0.82258 0.02673 0.0
C321 C 0.19935 0.82285 0.99809 0.0
C322 C 0.21196 0.81002 0.00495 0.0
H323 H 0.17288 0.82858 0.03593 0.0
H324 H 0.20164 0.82888 0.98441 0.0
H325 H 0.16599 0.8822 0.02606 0.0
H326 H 0.22449 0.88406 0.03327 0.0
H327 H 0.1487 0.80256 0.94931 0.0
H328 H 0.19373 0.80489 0.04849 0.0
H329 H 0.22334 0.80575 0.99613 0.0
C330 C 0.85786 0.19039 0.01324 0.0
C331 C 0.86926 0.19607 0.9988 0.0
N332 N 0.87523 0.18085 0.98972 0.0
N333 N 0.85647 0.17167 0.01331 0.0
C334 C 0.86725 0.16623 0.99892 0.0
H335 H 0.85147 0.19934 0.0234 0.0
Co336 Co 0.84429 0.15699 0.0312 0.0
C337 C 0.82767 0.12518 0.01033 0.0
O338 O 0.81308 0.12559 0.02136 0.0
N339 N 0.83239 0.14173 0.04985 0.0
C340 C 0.81394 0.12915 0.0718 0.0
C341 C 0.81593 0.14332 0.05894 0.0
C342 C 0.83995 0.12632 0.05751 0.0
N343 N 0.82916 0.11856 0.07097 0.0
O344 O 0.86818 0.14851 0.03952 0.0
H345 H 0.80575 0.1539 0.05659 0.0
H346 H 0.85317 0.12072 0.05327 0.0
O347 O 0.84127 0.13686 0.01282 0.0
C348 C 0.8716 0.1594 0.05331 0.0
O349 O 0.85952 0.17237 0.05702 0.0
N350 N 0.82162 0.16793 0.02448 0.0
C351 C 0.79237 0.19226 0.01833 0.0
C352 C 0.79634 0.17848 0.00508 0.0
C353 C 0.81142 0.16663 0.00824 0.0
C354 C 0.81794 0.18143 0.03722 0.0
C355 C 0.80329 0.19348 0.0346 0.0
H356 H 0.81531 0.15715 0.9973 0.0
H357 H 0.82663 0.18295 0.04957 0.0
H358 H 0.86948 0.15178 0.99557 0.0
H359 H 0.8733 0.21036 0.99576 0.0
H360 H 0.8024 0.1271 0.08135 0.0
H361 H 0.78849 0.17751 0.99208 0.0
H362 H 0.80075 0.20396 0.04513 0.0
C363 C 0.81381 0.87071 0.01384 0.0
C364 C 0.8097 0.88565 0.00267 0.0
N365 N 0.82592 0.89401 0.99746 0.0
N366 N 0.83253 0.86958 0.01554 0.0
C367 C 0.83957 0.88395 0.00541 0.0
H368 H 0.80377 0.86162 0.02079 0.0
Co369 Co 0.84496 0.85356 0.0313 0.0
C370 C 0.87796 0.84124 0.01104 0.0
O371 O 0.87472 0.82455 0.01804 0.0
N372 N 0.85772 0.83781 0.04808 0.0
C373 C 0.86809 0.81579 0.06728 0.0
C374 C 0.85366 0.82088 0.05557 0.0
C375 C 0.87451 0.8427 0.05573 0.0
N376 N 0.88113 0.82963 0.06737 0.0
O377 O 0.85412 0.87448 0.04531 0.0
H378 H 0.84122 0.81252 0.05279 0.0
H379 H 0.88213 0.85546 0.05232 0.0
O380 O 0.86696 0.8545 0.01491 0.0
C381 C 0.84182 0.87819 0.05743 0.0
O382 O 0.8262 0.86813 0.05749 0.0
N383 N 0.83389 0.8334 0.01816 0.0
C384 C 0.80818 0.81009 0.99942 0.0
C385 C 0.82383 0.81749 0.99007 0.0
C386 C 0.8363 0.82957 0.99958 0.0
C387 C 0.81881 0.8261 0.02739 0.0
C388 C 0.80589 0.8143 0.01837 0.0
H389 H 0.84695 0.83678 0.99157 0.0
H390 H 0.81615 0.83045 0.04159 0.0
H391 H 0.85435 0.88751 0.00465 0.0
H392 H 0.79582 0.89012 0.99886 0.0
H393 H 0.86884 0.80297 0.0752 0.0
H394 H 0.8257 0.81496 0.97527 0.0
H395 H 0.79383 0.80903 0.026 0.0
C396 C 0.99227 0.71146 0.64933 0.0
C397 C 0.97775 0.7134 0.6367 0.0
N398 N 0.97506 0.69706 0.62764 0.0
N399 N 0.99862 0.69398 0.64815 0.0
C400 C 0.98782 0.68557 0.63492 0.0
H401 H 0.99833 0.72231 0.65812 0.0
Co402 Co 0.0197 0.68362 0.65883 0.0
C403 C 0.00527 0.64762 0.67402 0.0
O404 O 0.01645 0.64948 0.68862 0.0
N405 N 0.04128 0.67264 0.66896 0.0
C406 C 0.06673 0.66465 0.68495 0.0
C407 C 0.05377 0.67824 0.68227 0.0
C408 C 0.04755 0.65593 0.6633 0.0
N409 N 0.06271 0.6506 0.67304 0.0
O410 O 0.02823 0.67733 0.63449 0.0
H411 H 0.05374 0.6912 0.68985 0.0
H412 H 0.04052 0.64737 0.6528 0.0
O413 O 0.00554 0.66005 0.66121 0.0
C414 C 0.03584 0.69211 0.62782 0.0
O415 O 0.03587 0.70736 0.63801 0.0
N416 N 0.01216 0.692 0.68237 0.0
C417 C 0.00536 0.7095 0.71624 0.0
C418 C 0.9935 0.69491 0.70997 0.0
C419 C 0.99704 0.68641 0.69274 0.0
C420 C 0.02247 0.70739 0.6875 0.0
C421 C 0.01974 0.71597 0.70463 0.0
H422 H 0.98738 0.67574 0.68768 0.0
H423 H 0.03315 0.71287 0.67821 0.0
H424 H 0.99018 0.67164 0.6298 0.0
H425 H 0.9702 0.72602 0.63398 0.0
H426 H 0.07816 0.66503 0.69498 0.0
H427 H 0.98167 0.6902 0.71826 0.0
H428 H 0.02856 0.72784 0.7086 0.0
C429 C 0.86754 0.55232 0.70274 0.0
C430 C 0.8812 0.566 0.70469 0.0
N431 N 0.89049 0.56751 0.68843 0.0
N432 N 0.86813 0.5452 0.68527 0.0
C433 C 0.88218 0.55491 0.67686 0.0
H434 H 0.8586 0.5473 0.71383 0.0
Co435 Co 0.85579 0.52392 0.67548 0.0
C436 C 0.84013 0.53699 0.63878 0.0
O437 O 0.82605 0.52489 0.63937 0.0
N438 N 0.84392 0.50235 0.66552 0.0
C439 C 0.8256 0.47731 0.66044 0.0
C440 C 0.82936 0.49202 0.67222 0.0
C441 C 0.84897 0.49325 0.64981 0.0
N442 N 0.83792 0.47813 0.64633 0.0
O443 O 0.87921 0.51477 0.66708 0.0
H444 H 0.82176 0.49469 0.68485 0.0
H445 H 0.86022 0.49796 0.64079 0.0
O446 O 0.85214 0.53765 0.65212 0.0
C447 C 0.88792 0.50827 0.68118 0.0
O448 O 0.88073 0.51039 0.69788 0.0
N449 N 0.8332 0.53152 0.68589 0.0
C450 C 0.80071 0.5342 0.70696 0.0
C451 C 0.80212 0.54304 0.68946 0.0
C452 C 0.81876 0.54183 0.67919 0.0
C453 C 0.8322 0.52363 0.70317 0.0
C454 C 0.81619 0.52475 0.71388 0.0
H455 H 0.81976 0.54896 0.66597 0.0
H456 H 0.84376 0.51556 0.70829 0.0
H457 H 0.88711 0.55183 0.66294 0.0
H458 H 0.88451 0.57372 0.71734 0.0
H459 H 0.81474 0.4667 0.66224 0.0
H460 H 0.79053 0.55075 0.68381 0.0
H461 H 0.81572 0.51754 0.7272 0.0
C462 C 0.97931 0.37633 0.71478 0.0
C463 C 0.96703 0.39074 0.71596 0.0
N464 N 0.96521 0.39839 0.69883 0.0
N465 N 0.98515 0.3749 0.69696 0.0
C466 C 0.97622 0.38842 0.68757 0.0
H467 H 0.98444 0.36816 0.72636 0.0
Co468 Co 0.00455 0.36091 0.68778 0.0
C469 C 0.98864 0.34229 0.65429 0.0
O470 O 0.99789 0.32727 0.65865 0.0
N471 N 0.02463 0.34753 0.67805 0.0
C472 C 0.05068 0.33191 0.67307 0.0
C473 C 0.03663 0.33531 0.68564 0.0
C474 C 0.03182 0.35133 0.66097 0.0
N475 N 0.04756 0.34204 0.65756 0.0
O476 O 0.01618 0.38313 0.67816 0.0
H477 H 0.0359 0.32969 0.69961 0.0
H478 H 0.026 0.36143 0.65145 0.0
O479 O 0.99019 0.35678 0.66467 0.0
C480 C 0.02499 0.39108 0.69163 0.0
O481 O 0.0235 0.38379 0.70845 0.0
N482 N 0.99395 0.33963 0.69934 0.0
C483 C 0.9795 0.31245 0.72356 0.0
C484 C 0.96984 0.31701 0.70709 0.0
C485 C 0.97705 0.33107 0.69539 0.0
C486 C 0.00314 0.33566 0.71556 0.0
C487 C 0.99632 0.322 0.72774 0.0
H488 H 0.96856 0.33557 0.68378 0.0
H489 H 0.01553 0.34375 0.71946 0.0
H490 H 0.97887 0.3918 0.67305 0.0
H491 H 0.96052 0.39567 0.72859 0.0
H492 H 0.06248 0.32299 0.67535 0.0
H493 H 0.95647 0.31035 0.70373 0.0
H494 H 0.00408 0.3191 0.74045 0.0
C495 C 0.1595 0.49476 0.69577 0.0
C496 C 0.14653 0.48124 0.70086 0.0
N497 N 0.13538 0.47746 0.68596 0.0
N498 N 0.15656 0.4994 0.67773 0.0
C499 C 0.14186 0.48858 0.67213 0.0
H500 H 0.16985 0.50132 0.70488 0.0
Co501 Co 0.16755 0.51876 0.66413 0.0
C502 C 0.17943 0.50082 0.62922 0.0
O503 O 0.1946 0.51156 0.6291 0.0
N504 N 0.17796 0.53869 0.65009 0.0
C505 C 0.19114 0.56553 0.64079 0.0
C506 C 0.19135 0.55176 0.65414 0.0
C507 C 0.17002 0.54487 0.63405 0.0
N508 N 0.17762 0.56119 0.62825 0.0
O509 O 0.14333 0.52774 0.65809 0.0
H510 H 0.20016 0.55221 0.66642 0.0
H511 H 0.158 0.53813 0.62738 0.0
O512 O 0.16744 0.50262 0.64221 0.0
C513 C 0.13751 0.5369 0.67204 0.0
O514 O 0.14754 0.53695 0.68754 0.0
N515 N 0.19117 0.51094 0.67205 0.0
C516 C 0.22367 0.50175 0.69131 0.0
C517 C 0.21591 0.48954 0.67787 0.0
C518 C 0.19946 0.49436 0.6684 0.0
C519 C 0.19801 0.52222 0.68592 0.0
C520 C 0.21453 0.51826 0.69527 0.0
H521 H 0.19296 0.4843 0.65905 0.0
H522 H 0.19011 0.53412 0.69025 0.0
H523 H 0.1353 0.48973 0.65849 0.0
H524 H 0.14511 0.47508 0.71461 0.0
H525 H 0.19973 0.57817 0.64075 0.0
H526 H 0.22216 0.47623 0.67516 0.0
H527 H 0.21953 0.52749 0.70632 0.0
C528 C 0.02283 0.35674 0.32801 0.0
C529 C 0.03716 0.36879 0.32301 0.0
N530 N 0.04303 0.37816 0.33839 0.0
N531 N 0.0197 0.35835 0.3465 0.0
C532 C 0.03224 0.3715 0.35247 0.0
H533 H 0.01481 0.34782 0.31858 0.0
Co534 Co 0.0002 0.34675 0.35971 0.0
C535 C 0.01767 0.33147 0.39365 0.0
O536 O 0.00669 0.31663 0.39165 0.0
N537 N 0.98004 0.33554 0.37322 0.0
C538 C 0.95655 0.31774 0.38416 0.0
C539 C 0.96892 0.32033 0.36976 0.0
C540 C 0.97368 0.34207 0.38975 0.0
N541 N 0.95957 0.33143 0.39669 0.0
O542 O 0.99167 0.37059 0.3674 0.0
H543 H 0.96953 0.31127 0.35782 0.0
H544 H 0.97976 0.35406 0.39694 0.0
O545 O 0.0167 0.34479 0.38178 0.0
C546 C 0.98225 0.37698 0.35371 0.0
O547 O 0.98168 0.36744 0.33801 0.0
N548 N 0.00747 0.32373 0.35002 0.0
C549 C 0.01517 0.29226 0.32897 0.0
C550 C 0.02792 0.2987 0.34266 0.0
C551 C 0.02385 0.31468 0.35303 0.0
C552 C 0.9958 0.31831 0.33577 0.0
C553 C 0.99902 0.3023 0.32551 0.0
H554 H 0.03421 0.32013 0.36278 0.0
H555 H 0.98385 0.32665 0.33231 0.0
H556 H 0.0328 0.37671 0.36668 0.0
H557 H 0.04263 0.37069 0.30904 0.0
H558 H 0.9461 0.30662 0.38533 0.0
H559 H 0.041 0.29172 0.34498 0.0
H560 H 0.98935 0.29822 0.3144 0.0
C561 C 0.204 0.47527 0.37363 0.0
C562 C 0.20709 0.46092 0.38588 0.0
N563 N 0.19059 0.45545 0.39346 0.0
N564 N 0.1856 0.47893 0.37326 0.0
C565 C 0.17781 0.46663 0.38542 0.0
H566 H 0.21476 0.48307 0.36629 0.0
Co567 Co 0.17363 0.49877 0.36143 0.0
C568 C 0.14074 0.48062 0.34228 0.0
O569 O 0.14191 0.49221 0.32807 0.0
N570 N 0.16124 0.51883 0.34993 0.0
C571 C 0.1526 0.54227 0.33162 0.0
C572 C 0.16657 0.53008 0.33563 0.0
C573 C 0.14404 0.52486 0.35455 0.0
N574 N 0.13845 0.53895 0.34352 0.0
O575 O 0.1626 0.50545 0.38463 0.0
H576 H 0.17955 0.52953 0.32812 0.0
H577 H 0.13539 0.51849 0.36528 0.0
O578 O 0.15263 0.48187 0.35567 0.0
C579 C 0.17512 0.51324 0.39495 0.0
O580 O 0.19247 0.51402 0.389 0.0
N581 N 0.18649 0.49368 0.33937 0.0
C582 C 0.21248 0.49179 0.31061 0.0
C583 C 0.19656 0.47988 0.31062 0.0
C584 C 0.18379 0.48079 0.32547 0.0
C585 C 0.20202 0.50505 0.33952 0.0
C586 C 0.21506 0.50445 0.32531 0.0
H587 H 0.17216 0.47094 0.32589 0.0
H588 H 0.20418 0.51482 0.3509 0.0
H589 H 0.16311 0.46654 0.38883 0.0
H590 H 0.2207 0.45568 0.38947 0.0
H591 H 0.15277 0.55272 0.32069 0.0
H592 H 0.19436 0.46966 0.29963 0.0
H593 H 0.22712 0.51389 0.32584 0.0
C594 C 0.98595 0.63184 0.3052 0.0
C595 C 0.97238 0.61813 0.30321 0.0
N596 N 0.96765 0.61194 0.32036 0.0
N597 N 0.9897 0.63445 0.32355 0.0
C598 C 0.9783 0.62212 0.33247 0.0
H599 H 0.99319 0.63881 0.29389 0.0
Co600 Co 0.00906 0.64946 0.33316 0.0
C601 C 0.99387 0.66784 0.36672 0.0
O602 O 0.00404 0.68282 0.36279 0.0
N603 N 0.02928 0.66419 0.34274 0.0
C604 C 0.05264 0.68486 0.34725 0.0
C605 C 0.03857 0.67903 0.33527 0.0
C606 C 0.03834 0.66114 0.35915 0.0
N607 N 0.05248 0.67359 0.36228 0.0
O608 O 0.02022 0.62794 0.34394 0.0
H609 H 0.03567 0.68544 0.32198 0.0
H610 H 0.03431 0.65022 0.36888 0.0
O611 O 0.99442 0.65361 0.35596 0.0
C612 C 0.02931 0.61975 0.33123 0.0
O613 O 0.02876 0.62653 0.31416 0.0
N614 N 0.99881 0.66996 0.32063 0.0
C615 C 0.98641 0.69718 0.29592 0.0
C616 C 0.97708 0.69386 0.31284 0.0
C617 C 0.9832 0.67973 0.32482 0.0
C618 C 0.00747 0.67261 0.3039 0.0
C619 C 0.00163 0.68619 0.29143 0.0
H620 H 0.97503 0.67648 0.33705 0.0
H621 H 0.01913 0.66402 0.30025 0.0
H622 H 0.97858 0.61991 0.34745 0.0
H623 H 0.96675 0.61282 0.2901 0.0
H624 H 0.06243 0.69636 0.34491 0.0
H625 H 0.96494 0.70177 0.31651 0.0
H626 H 0.00919 0.68825 0.27848 0.0
C627 C 0.80849 0.52515 0.36582 0.0
C628 C 0.80607 0.54064 0.37682 0.0
N629 N 0.82244 0.54483 0.38553 0.0
N630 N 0.82632 0.51963 0.36756 0.0
C631 C 0.83447 0.53197 0.37955 0.0
H632 H 0.79765 0.51787 0.35789 0.0
Co633 Co 0.83689 0.49771 0.35904 0.0
C634 C 0.87242 0.51037 0.34135 0.0
O635 O 0.87057 0.49752 0.32833 0.0
N636 N 0.84791 0.47543 0.3511 0.0
C637 C 0.85567 0.44899 0.33719 0.0
C638 C 0.84219 0.46223 0.33866 0.0
C639 C 0.86465 0.46943 0.35741 0.0
N640 N 0.86979 0.4536 0.34898 0.0
O641 O 0.84535 0.49244 0.38377 0.0
H642 H 0.82928 0.46207 0.33079 0.0
H643 H 0.87342 0.4771 0.36731 0.0
O644 O 0.85991 0.51182 0.35389 0.0
C645 C 0.83185 0.48646 0.39378 0.0
O646 O 0.81484 0.48628 0.38663 0.0
N647 N 0.8267 0.50197 0.33513 0.0
C648 C 0.80605 0.5039 0.30189 0.0
C649 C 0.82218 0.51522 0.30459 0.0
C650 C 0.83213 0.51435 0.32156 0.0
C651 C 0.81054 0.49172 0.33306 0.0
C652 C 0.80021 0.49219 0.31652 0.0
H653 H 0.84383 0.52388 0.32377 0.0
H654 H 0.80586 0.48275 0.34435 0.0
H655 H 0.84863 0.53072 0.38483 0.0
H656 H 0.79309 0.54782 0.37876 0.0
H657 H 0.85524 0.43701 0.32799 0.0
H658 H 0.82676 0.52497 0.2939 0.0
H659 H 0.78783 0.48327 0.31517 0.0
C660 C 0.19821 0.64637 0.4888 0.0
C661 C 0.20087 0.62928 0.4806 0.0
N662 N 0.18422 0.62279 0.47401 0.0
N663 N 0.18 0.65061 0.4872 0.0
C664 C 0.17187 0.63603 0.47814 0.0
H665 H 0.20868 0.65469 0.49619 0.0
Co666 Co 0.1675 0.66952 0.49878 0.0
C667 C 0.14167 0.68413 0.47055 0.0
O668 O 0.14621 0.70103 0.47635 0.0
N669 N 0.15415 0.68833 0.51111 0.0
C670 C 0.14462 0.71066 0.53017 0.0
C671 C 0.15944 0.70429 0.51996 0.0
C672 C 0.136 0.68572 0.51581 0.0
N673 N 0.12999 0.69871 0.52776 0.0
O674 O 0.15295 0.65092 0.51169 0.0
H675 H 0.17336 0.71042 0.5202 0.0
H676 H 0.12757 0.67378 0.51136 0.0
O677 O 0.14945 0.67008 0.47803 0.0
C678 C 0.15939 0.65017 0.52832 0.0
O679 O 0.17309 0.66174 0.53323 0.0
N680 N 0.18387 0.68693 0.48769 0.0
C681 C 0.21607 0.70642 0.47659 0.0
C682 C 0.20233 0.70121 0.46334 0.0
C683 C 0.1864 0.69097 0.46916 0.0
C684 C 0.1972 0.69195 0.50054 0.0
C685 C 0.21323 0.70188 0.49538 0.0
H686 H 0.17683 0.68545 0.45867 0.0
H687 H 0.19578 0.68734 0.51488 0.0
H688 H 0.15693 0.63459 0.47576 0.0
H689 H 0.21395 0.62203 0.47999 0.0
H690 H 0.1451 0.72229 0.53982 0.0
H691 H 0.20439 0.70411 0.44862 0.0
H692 H 0.22366 0.70545 0.50596 0.0
C693 C 0.1424 0.30933 0.5067 0.0
C694 C 0.12893 0.30542 0.4933 0.0
N695 N 0.12244 0.32166 0.48669 0.0
N696 N 0.1445 0.32796 0.50846 0.0
C697 C 0.13215 0.33508 0.49613 0.0
H698 H 0.14976 0.29922 0.515 0.0
Co699 Co 0.15908 0.34098 0.52595 0.0
C700 C 0.17719 0.37181 0.50481 0.0
O701 O 0.19241 0.36986 0.515 0.0
N702 N 0.17334 0.35461 0.54404 0.0
C703 C 0.19349 0.36552 0.56562 0.0
C704 C 0.18865 0.35054 0.5544 0.0
C705 C 0.16908 0.37204 0.54954 0.0
N706 N 0.18107 0.37897 0.56255 0.0
O707 O 0.13702 0.35202 0.53547 0.0
H708 H 0.19609 0.33767 0.55404 0.0
H709 H 0.15762 0.37979 0.5437 0.0
O710 O 0.16288 0.36118 0.50772 0.0
C711 C 0.13192 0.3416 0.54902 0.0
O712 O 0.14118 0.32633 0.55224 0.0
N713 N 0.18024 0.32813 0.51803 0.0
C714 C 0.21014 0.30463 0.51203 0.0
C715 C 0.2059 0.31861 0.49903 0.0
C716 C 0.19048 0.32996 0.50203 0.0
C717 C 0.18356 0.3139 0.53012 0.0
C718 C 0.19853 0.30219 0.52757 0.0
H719 H 0.18676 0.33986 0.49137 0.0
H720 H 0.17468 0.31192 0.54217 0.0
H721 H 0.1297 0.34984 0.49476 0.0
H722 H 0.12412 0.29165 0.48899 0.0
H723 H 0.20508 0.36635 0.57545 0.0
H724 H 0.21413 0.32045 0.48647 0.0
H725 H 0.20115 0.29148 0.53788 0.0
C726 C 0.87046 0.69995 0.47565 0.0
C727 C 0.88321 0.70181 0.46145 0.0
N728 N 0.89104 0.68516 0.45865 0.0
N729 N 0.8701 0.68217 0.48177 0.0
C730 C 0.88278 0.67348 0.4711 0.0
H731 H 0.86256 0.71111 0.4816 0.0
Co732 Co 0.85735 0.67258 0.50258 0.0
C733 C 0.83989 0.63703 0.48939 0.0
O734 O 0.82554 0.63971 0.50036 0.0
N735 N 0.84497 0.66263 0.52395 0.0
C736 C 0.8257 0.65593 0.54754 0.0
C737 C 0.82955 0.6681 0.53313 0.0
C738 C 0.85035 0.64724 0.53342 0.0
N739 N 0.83882 0.64282 0.5477 0.0
O740 O 0.88059 0.66481 0.51305 0.0
H741 H 0.82121 0.67994 0.52965 0.0
H742 H 0.86212 0.63895 0.52945 0.0
O743 O 0.85345 0.649 0.48911 0.0
C744 C 0.88792 0.67941 0.52051 0.0
O745 O 0.87928 0.69526 0.51854 0.0
N746 N 0.83513 0.68266 0.49325 0.0
C747 C 0.80538 0.70484 0.48257 0.0
C748 C 0.80842 0.68788 0.47343 0.0
C749 C 0.82379 0.67717 0.47866 0.0
C750 C 0.83256 0.69936 0.50178 0.0
C751 C 0.81779 0.71059 0.49677 0.0
H752 H 0.82669 0.66487 0.47065 0.0
H753 H 0.84217 0.70395 0.51271 0.0
H754 H 0.88662 0.65912 0.47314 0.0
H755 H 0.88675 0.71456 0.45405 0.0
H756 H 0.81414 0.65668 0.55719 0.0
H757 H 0.79931 0.68324 0.46209 0.0
H758 H 0.81594 0.72358 0.50417 0.0
C759 C 0.81483 0.36651 0.50628 0.0
C760 C 0.81129 0.381 0.4943 0.0
N761 N 0.82773 0.38953 0.49007 0.0
N762 N 0.83342 0.36586 0.50946 0.0
C763 C 0.84092 0.38004 0.49938 0.0
H764 H 0.80444 0.35756 0.51287 0.0
Co765 Co 0.84521 0.35123 0.52703 0.0
C766 C 0.87946 0.33825 0.50922 0.0
O767 O 0.87663 0.32214 0.5176 0.0
N768 N 0.85728 0.33692 0.54553 0.0
C769 C 0.86655 0.31652 0.56701 0.0
C770 C 0.85302 0.32042 0.55383 0.0
C771 C 0.87334 0.34272 0.55407 0.0
N772 N 0.87925 0.33066 0.56715 0.0
O773 O 0.8533 0.37338 0.53982 0.0
H774 H 0.84096 0.3116 0.55076 0.0
H775 H 0.88086 0.35547 0.55045 0.0
O776 O 0.86792 0.35136 0.51169 0.0
C777 C 0.83999 0.3778 0.55055 0.0
O778 O 0.82488 0.36697 0.5508 0.0
N779 N 0.83505 0.33001 0.51498 0.0
C780 C 0.81014 0.30539 0.49696 0.0
C781 C 0.82633 0.31185 0.48787 0.0
C782 C 0.83842 0.32461 0.49698 0.0
C783 C 0.81948 0.32353 0.52399 0.0
C784 C 0.80694 0.31111 0.51533 0.0
H785 H 0.84953 0.33109 0.48897 0.0
H786 H 0.81614 0.32905 0.53761 0.0
H787 H 0.85563 0.384 0.49977 0.0
H788 H 0.79765 0.38517 0.48941 0.0
H789 H 0.86682 0.3044 0.57602 0.0
H790 H 0.82889 0.3081 0.47345 0.0
H791 H 0.79441 0.3066 0.52267 0.0
C792 C 0.48857 0.20464 0.64331 0.0
C793 C 0.47368 0.20865 0.63172 0.0
N794 N 0.46873 0.19309 0.62215 0.0
N795 N 0.49294 0.18662 0.64103 0.0
C796 C 0.48058 0.17997 0.62814 0.0
H797 H 0.49619 0.21443 0.65218 0.0
Co798 Co 0.51344 0.17378 0.65029 0.0
C799 C 0.49664 0.13913 0.66566 0.0
O800 O 0.50869 0.14004 0.67964 0.0
N801 N 0.5343 0.16021 0.65899 0.0
C802 C 0.55861 0.14859 0.67441 0.0
C803 C 0.54683 0.16337 0.67301 0.0
C804 C 0.5393 0.14357 0.65177 0.0
N805 N 0.55381 0.13616 0.66107 0.0
O806 O 0.52001 0.16748 0.62528 0.0
H807 H 0.54751 0.1753 0.68212 0.0
H808 H 0.5318 0.13655 0.64048 0.0
O809 O 0.4972 0.1516 0.65289 0.0
C810 C 0.52826 0.1821 0.61895 0.0
O811 O 0.52999 0.19675 0.62993 0.0
N812 N 0.50808 0.18238 0.67443 0.0
C813 C 0.50374 0.20154 0.70791 0.0
C814 C 0.4904 0.18798 0.70226 0.0
C815 C 0.49275 0.17858 0.68525 0.0
C816 C 0.52015 0.19662 0.67913 0.0
C817 C 0.51864 0.20594 0.69606 0.0
H818 H 0.48192 0.16889 0.68057 0.0
H819 H 0.53119 0.2007 0.66959 0.0
H820 H 0.48106 0.16605 0.62239 0.0
H821 H 0.46736 0.22211 0.6301 0.0
H822 H 0.56975 0.147 0.68461 0.0
H823 H 0.47822 0.18492 0.71075 0.0
H824 H 0.5287 0.21697 0.69957 0.0
C825 C 0.35905 0.04332 0.696 0.0
C826 C 0.37203 0.05765 0.69808 0.0
N827 N 0.38124 0.05978 0.68183 0.0
N828 N 0.36001 0.03643 0.67847 0.0
C829 C 0.37358 0.04689 0.67016 0.0
H830 H 0.35035 0.03771 0.70703 0.0
Co831 Co 0.34883 0.01472 0.66839 0.0
C832 C 0.33387 0.02709 0.63116 0.0
O833 O 0.32048 0.01421 0.63109 0.0
N834 N 0.3381 0.9927 0.6581 0.0
C835 C 0.3208 0.96709 0.65241 0.0
C836 C 0.32328 0.98222 0.66395 0.0
C837 C 0.3445 0.98336 0.64306 0.0
N838 N 0.33415 0.96782 0.63925 0.0
O839 O 0.37293 0.00666 0.66067 0.0
H840 H 0.31466 0.98505 0.67585 0.0
H841 H 0.35631 0.98809 0.63478 0.0
O842 O 0.34527 0.02829 0.64499 0.0
C843 C 0.3816 0.00062 0.675 0.0
O844 O 0.37367 0.00197 0.69146 0.0
N845 N 0.32566 0.02145 0.67814 0.0
C846 C 0.29303 0.02466 0.69891 0.0
C847 C 0.29463 0.03322 0.68129 0.0
C848 C 0.31133 0.03172 0.67116 0.0
C849 C 0.32436 0.01355 0.69541 0.0
C850 C 0.30827 0.01492 0.70596 0.0
H851 H 0.31254 0.03876 0.65791 0.0
H852 H 0.33586 0.00553 0.70075 0.0
H853 H 0.37872 0.04413 0.65626 0.0
H854 H 0.37498 0.06537 0.71081 0.0
H855 H 0.31015 0.9562 0.65381 0.0
H856 H 0.28322 0.04113 0.67554 0.0
H857 H 0.30761 0.00794 0.71939 0.0
C858 C 0.48419 0.88056 0.71652 0.0
C859 C 0.4719 0.89502 0.71656 0.0
N860 N 0.46982 0.9011 0.69883 0.0
N861 N 0.48973 0.87752 0.69883 0.0
C862 C 0.48072 0.89019 0.68836 0.0
H863 H 0.48937 0.87332 0.72869 0.0
Co864 Co 0.50862 0.86212 0.69123 0.0
C865 C 0.49412 0.84268 0.65775 0.0
O866 O 0.50239 0.82765 0.66382 0.0
N867 N 0.52841 0.84714 0.68312 0.0
C868 C 0.55112 0.827 0.67861 0.0
C869 C 0.53732 0.83249 0.69062 0.0
C870 C 0.53733 0.85035 0.66675 0.0
N871 N 0.55111 0.83828 0.66352 0.0
O872 O 0.52196 0.88334 0.68168 0.0
H873 H 0.53418 0.82594 0.70383 0.0
H874 H 0.53356 0.86142 0.65729 0.0
O875 O 0.49541 0.85775 0.66731 0.0
C876 C 0.53207 0.88955 0.69516 0.0
O877 O 0.53042 0.8814 0.71156 0.0
N878 N 0.49608 0.84194 0.70284 0.0
C879 C 0.47865 0.81618 0.72668 0.0
C880 C 0.47015 0.82112 0.70969 0.0
C881 C 0.47886 0.83448 0.69818 0.0
C882 C 0.50407 0.83779 0.71964 0.0
C883 C 0.49577 0.82479 0.73163 0.0
H884 H 0.47134 0.83928 0.68603 0.0
H885 H 0.51687 0.84499 0.72394 0.0
H886 H 0.48303 0.89216 0.67354 0.0
H887 H 0.46539 0.9009 0.72875 0.0
H888 H 0.56024 0.81538 0.68085 0.0
H889 H 0.45661 0.81523 0.70569 0.0
H890 H 0.50274 0.82153 0.74471 0.0
C891 C 0.66042 0.00293 0.6894 0.0
C892 C 0.64794 0.99027 0.6972 0.0
N893 N 0.6391 0.98086 0.68323 0.0
N894 N 0.65952 0.00136 0.67063 0.0
C895 C 0.64655 0.98778 0.66733 0.0
H896 H 0.66889 0.01322 0.69686 0.0
Co897 Co 0.67007 0.01674 0.65243 0.0
C898 C 0.68651 0.98896 0.62689 0.0
O899 O 0.70253 0.99829 0.62712 0.0
N900 N 0.68039 0.03254 0.63338 0.0
C901 C 0.69862 0.04925 0.61395 0.0
C902 C 0.69833 0.03739 0.62912 0.0
C903 C 0.67022 0.04181 0.62049 0.0
N904 N 0.68084 0.05204 0.60872 0.0
O905 O 0.64519 0.0211 0.64308 0.0
H906 H 0.71063 0.03266 0.63641 0.0
H907 H 0.65519 0.04116 0.61936 0.0
O908 O 0.6727 0.99492 0.63622 0.0
C909 C 0.63856 0.03321 0.65413 0.0
O910 O 0.6491 0.0393 0.6681 0.0
N911 N 0.6935 0.01416 0.66393 0.0
C912 C 0.72124 0.01465 0.69163 0.0
C913 C 0.71581 0.99786 0.68277 0.0
C914 C 0.70163 0.99786 0.66906 0.0
C915 C 0.69911 0.03057 0.67202 0.0
C916 C 0.71319 0.03119 0.68554 0.0
H917 H 0.69615 0.98469 0.66381 0.0
H918 H 0.69179 0.04318 0.66872 0.0
H919 H 0.64215 0.98365 0.6534 0.0
H920 H 0.64492 0.98888 0.71195 0.0
H921 H 0.71087 0.05568 0.6076 0.0
H922 H 0.72137 0.98473 0.68742 0.0
H923 H 0.71694 0.04444 0.69198 0.0
C924 C 0.53091 0.8513 0.3256 0.0
C925 C 0.54554 0.86348 0.32181 0.0
N926 N 0.54999 0.8729 0.3376 0.0
N927 N 0.52618 0.85291 0.34375 0.0
C928 C 0.5381 0.86613 0.3507 0.0
H929 H 0.52373 0.84239 0.31554 0.0
Co930 Co 0.50554 0.84182 0.35567 0.0
C931 C 0.5209 0.82503 0.38991 0.0
O932 O 0.50954 0.81056 0.38732 0.0
N933 N 0.48435 0.8312 0.368 0.0
C934 C 0.45955 0.81439 0.37755 0.0
C935 C 0.47237 0.81693 0.36351 0.0
C936 C 0.47803 0.8373 0.3847 0.0
N937 N 0.46314 0.82723 0.39083 0.0
O938 O 0.49785 0.86567 0.36387 0.0
H939 H 0.4727 0.80849 0.3511 0.0
H940 H 0.48474 0.84846 0.39266 0.0
O941 O 0.52088 0.83851 0.37819 0.0
C942 C 0.48987 0.87363 0.35015 0.0
O943 O 0.4905 0.86568 0.33361 0.0
N944 N 0.51202 0.81879 0.34558 0.0
C945 C 0.51821 0.78728 0.32411 0.0
C946 C 0.53074 0.79236 0.33853 0.0
C947 C 0.52746 0.8084 0.34912 0.0
C948 C 0.50069 0.81464 0.33068 0.0
C949 C 0.50315 0.79867 0.32015 0.0
H950 H 0.53766 0.81277 0.35953 0.0
H951 H 0.48956 0.82395 0.32698 0.0
H952 H 0.53735 0.87142 0.36485 0.0
H953 H 0.55209 0.86551 0.30834 0.0
H954 H 0.44847 0.80383 0.37801 0.0
H955 H 0.54306 0.78427 0.34127 0.0
H956 H 0.49374 0.79561 0.30852 0.0
C957 C 0.7036 0.97086 0.38278 0.0
C958 C 0.70532 0.95579 0.39442 0.0
N959 N 0.6882 0.95072 0.40073 0.0
N960 N 0.68542 0.97537 0.38155 0.0
C961 C 0.6764 0.96286 0.39266 0.0
H962 H 0.71509 0.97848 0.37641 0.0
Co963 Co 0.67504 0.99606 0.36959 0.0
C964 C 0.64308 0.97911 0.34768 0.0
O965 O 0.6453 0.99096 0.3338 0.0
N966 N 0.6642 0.0169 0.35797 0.0
C967 C 0.65839 0.04219 0.34104 0.0
C968 C 0.67173 0.02967 0.3461 0.0
C969 C 0.64637 0.02245 0.3603 0.0
N970 N 0.64244 0.03762 0.34997 0.0
O971 O 0.6626 0.00261 0.39209 0.0
H972 H 0.68592 0.03009 0.34114 0.0
H973 H 0.63621 0.01506 0.36888 0.0
O974 O 0.65404 0.97999 0.36186 0.0
C975 C 0.67443 0.00934 0.40385 0.0
O976 O 0.69235 0.00824 0.40015 0.0
N977 N 0.68925 0.99123 0.34827 0.0
C978 C 0.71664 0.99034 0.32072 0.0
C979 C 0.70044 0.97887 0.31928 0.0
C980 C 0.68696 0.97924 0.33353 0.0
C981 C 0.70512 0.00199 0.34994 0.0
C982 C 0.71884 0.00189 0.33637 0.0
H983 H 0.67504 0.96977 0.33272 0.0
H984 H 0.70695 0.011 0.36199 0.0
H985 H 0.66151 0.9631 0.39519 0.0
H986 H 0.71841 0.94972 0.39863 0.0
H987 H 0.66026 0.05378 0.33148 0.0
H988 H 0.69846 0.96947 0.30755 0.0
H989 H 0.73104 0.01103 0.33804 0.0
C990 C 0.48361 0.11887 0.3017 0.0
C991 C 0.47076 0.10444 0.30024 0.0
N992 N 0.4661 0.09887 0.31762 0.0
N993 N 0.48697 0.12257 0.31993 0.0
C994 C 0.47607 0.11015 0.32933 0.0
H995 H 0.49067 0.12563 0.29014 0.0
Co996 Co 0.50553 0.13894 0.32882 0.0
C997 C 0.48961 0.15791 0.36179 0.0
O998 O 0.49911 0.17313 0.35723 0.0
N999 N 0.525 0.15506 0.33764 0.0
C1000 C 0.54733 0.17701 0.34123 0.0
C1001 C 0.53353 0.17002 0.32955 0.0
C1002 C 0.53426 0.15311 0.35412 0.0
N1003 N 0.54777 0.16634 0.35668 0.0
O1004 O 0.51788 0.11854 0.34051 0.0
H1005 H 0.53027 0.17572 0.31601 0.0
H1006 H 0.5308 0.14243 0.36429 0.0
O1007 O 0.49071 0.14334 0.35155 0.0
C1008 C 0.52813 0.1109 0.32836 0.0
O1009 O 0.52743 0.11713 0.31107 0.0
N1010 N 0.49424 0.15837 0.31547 0.0
C1011 C 0.48204 0.18569 0.29075 0.0
C1012 C 0.4726 0.18232 0.30761 0.0
C1013 C 0.47862 0.16815 0.31959 0.0
C1014 C 0.50274 0.16077 0.29861 0.0
C1015 C 0.49701 0.1744 0.28614 0.0
H1016 H 0.47055 0.16508 0.33193 0.0
H1017 H 0.51449 0.15225 0.29508 0.0
H1018 H 0.47626 0.1087 0.34441 0.0
H1019 H 0.46557 0.09824 0.28734 0.0
H1020 H 0.55654 0.18887 0.33842 0.0
H1021 H 0.46061 0.19041 0.31137 0.0
H1022 H 0.50468 0.17647 0.27326 0.0
C1023 C 0.30973 0.01052 0.36576 0.0
C1024 C 0.30801 0.02601 0.37695 0.0
N1025 N 0.32475 0.02978 0.38515 0.0
N1026 N 0.32747 0.00463 0.36698 0.0
C1027 C 0.33625 0.01669 0.37876 0.0
H1028 H 0.29858 0.00349 0.35803 0.0
Co1029 Co 0.33775 0.98284 0.35831 0.0
C1030 C 0.37324 0.99573 0.34064 0.0
O1031 O 0.37104 0.98328 0.32727 0.0
N1032 N 0.3487 0.96064 0.3502 0.0
C1033 C 0.35735 0.93452 0.33622 0.0
C1034 C 0.34342 0.94731 0.33769 0.0
C1035 C 0.36556 0.95512 0.35657 0.0
N1036 N 0.37124 0.93954 0.34812 0.0
O1037 O 0.34581 0.97712 0.38307 0.0
H1038 H 0.3306 0.9468 0.32968 0.0
H1039 H 0.3741 0.96307 0.36644 0.0
O1040 O 0.36099 0.99683 0.35348 0.0
C1041 C 0.3321 0.97108 0.39277 0.0
O1042 O 0.31522 0.97111 0.38533 0.0
N1043 N 0.32794 0.9876 0.33448 0.0
C1044 C 0.30878 0.98976 0.30039 0.0
C1045 C 0.32382 0.00215 0.30453 0.0
C1046 C 0.33308 0.00102 0.32185 0.0
C1047 C 0.31237 0.97675 0.33137 0.0
C1048 C 0.30298 0.97713 0.31429 0.0
H1049 H 0.34408 0.0111 0.32508 0.0
H1050 H 0.30764 0.96715 0.34212 0.0
H1051 H 0.35049 0.01505 0.38365 0.0
H1052 H 0.2953 0.0335 0.37937 0.0
H1053 H 0.35744 0.92267 0.32687 0.0
H1054 H 0.32824 0.01278 0.29466 0.0
H1055 H 0.2915 0.96725 0.31202 0.0
C1056 C 0.69594 0.15416 0.47994 0.0
C1057 C 0.69941 0.13728 0.4716 0.0
N1058 N 0.68305 0.13002 0.46505 0.0
N1059 N 0.6775 0.15745 0.47853 0.0
C1060 C 0.6701 0.14261 0.4693 0.0
H1061 H 0.70594 0.16273 0.4877 0.0
Co1062 Co 0.66348 0.17425 0.49152 0.0
C1063 C 0.63547 0.18765 0.46458 0.0
O1064 O 0.6379 0.20459 0.4713 0.0
N1065 N 0.64856 0.19073 0.50517 0.0
C1066 C 0.63686 0.21103 0.52523 0.0
C1067 C 0.65236 0.20651 0.51495 0.0
C1068 C 0.63063 0.18625 0.50951 0.0
N1069 N 0.62332 0.19804 0.52194 0.0
O1070 O 0.65097 0.15353 0.50308 0.0
H1071 H 0.66573 0.21379 0.51564 0.0
H1072 H 0.62329 0.17395 0.50425 0.0
O1073 O 0.64512 0.17434 0.47112 0.0
C1074 C 0.65611 0.15166 0.52003 0.0
O1075 O 0.66725 0.16442 0.52764 0.0
N1076 N 0.67786 0.1938 0.48143 0.0
C1077 C 0.70651 0.21856 0.47122 0.0
C1078 C 0.6931 0.21263 0.45797 0.0
C1079 C 0.67904 0.19973 0.46327 0.0
C1080 C 0.69112 0.19923 0.49421 0.0
C1081 C 0.70544 0.21173 0.48948 0.0
H1082 H 0.66978 0.19401 0.45263 0.0
H1083 H 0.69084 0.19329 0.50812 0.0
H1084 H 0.65519 0.14021 0.46742 0.0
H1085 H 0.71275 0.13046 0.47126 0.0
H1086 H 0.63612 0.22218 0.53537 0.0
H1087 H 0.69394 0.21733 0.44359 0.0
H1088 H 0.7158 0.21581 0.49995 0.0
C1089 C 0.63938 0.79844 0.50826 0.0
C1090 C 0.62556 0.79491 0.49516 0.0
N1091 N 0.6195 0.81134 0.48862 0.0
N1092 N 0.64211 0.81701 0.5099 0.0
C1093 C 0.62979 0.82452 0.49781 0.0
H1094 H 0.64681 0.78815 0.51627 0.0
Co1095 Co 0.65838 0.82879 0.5267 0.0
C1096 C 0.67495 0.86062 0.50656 0.0
O1097 O 0.69083 0.85641 0.51475 0.0
N1098 N 0.67438 0.84106 0.54439 0.0
C1099 C 0.69598 0.85055 0.56521 0.0
C1100 C 0.69028 0.83628 0.55342 0.0
C1101 C 0.67068 0.85816 0.55126 0.0
N1102 N 0.68355 0.86428 0.56385 0.0
O1103 O 0.63739 0.83813 0.53998 0.0
H1104 H 0.69749 0.82338 0.55177 0.0
H1105 H 0.65891 0.86624 0.54668 0.0
O1106 O 0.66013 0.85087 0.51013 0.0
C1107 C 0.63439 0.82576 0.55251 0.0
O1108 O 0.64453 0.81073 0.55215 0.0
N1109 N 0.67841 0.81718 0.51474 0.0
C1110 C 0.70357 0.79261 0.49895 0.0
C1111 C 0.69673 0.80756 0.4885 0.0
C1112 C 0.68368 0.81939 0.49648 0.0
C1113 C 0.68449 0.80233 0.52476 0.0
C1114 C 0.69725 0.79007 0.51729 0.0
H1115 H 0.67723 0.82964 0.48765 0.0
H1116 H 0.67889 0.79962 0.53853 0.0
H1117 H 0.62796 0.83936 0.49623 0.0
H1118 H 0.62039 0.78127 0.49082 0.0
H1119 H 0.70821 0.8507 0.57426 0.0
H1120 H 0.70078 0.80958 0.47406 0.0
H1121 H 0.70197 0.77856 0.52577 0.0
C1122 C 0.31659 0.15085 0.51703 0.0
C1123 C 0.31191 0.13882 0.53133 0.0
N1124 N 0.32753 0.13032 0.53712 0.0
N1125 N 0.33514 0.15004 0.51382 0.0
C1126 C 0.34141 0.13747 0.52636 0.0
H1127 H 0.30689 0.15897 0.50895 0.0
Co1128 Co 0.34863 0.16079 0.494 0.0
C1129 C 0.38191 0.17853 0.5122 0.0
O1130 O 0.38137 0.19234 0.50017 0.0
N1131 N 0.36264 0.17119 0.47369 0.0
C1132 C 0.37425 0.18906 0.45078 0.0
C1133 C 0.36054 0.18728 0.46406 0.0
C1134 C 0.37783 0.16349 0.46575 0.0
N1135 N 0.38509 0.17406 0.45182 0.0
O1136 O 0.35717 0.13665 0.48747 0.0
H1137 H 0.35014 0.19758 0.46657 0.0
H1138 H 0.38387 0.15061 0.47041 0.0
O1139 O 0.36973 0.16521 0.51113 0.0
C1140 C 0.34349 0.1291 0.47851 0.0
O1141 O 0.32809 0.13852 0.47632 0.0
N1142 N 0.33778 0.1837 0.49918 0.0
C1143 C 0.31345 0.21313 0.50372 0.0
C1144 C 0.32834 0.21062 0.51637 0.0
C1145 C 0.3402 0.19547 0.51408 0.0
C1146 C 0.32327 0.18596 0.48698 0.0
C1147 C 0.31115 0.20065 0.48882 0.0
H1148 H 0.35063 0.19284 0.52469 0.0
H1149 H 0.32102 0.17603 0.47576 0.0
H1150 H 0.3557 0.13279 0.52676 0.0
H1151 H 0.29797 0.13618 0.53668 0.0
H1152 H 0.37606 0.20052 0.44106 0.0
H1153 H 0.33022 0.21972 0.52836 0.0
H1154 H 0.29984 0.20204 0.47876 0.0
C1155 C 0.32218 0.84878 0.50456 0.0
C1156 C 0.31758 0.86261 0.49214 0.0
N1157 N 0.33325 0.87268 0.48825 0.0
N1158 N 0.34067 0.85011 0.50834 0.0
C1159 C 0.34702 0.86477 0.49823 0.0
H1160 H 0.3126 0.83875 0.51086 0.0
Co1161 Co 0.35391 0.8369 0.52596 0.0
C1162 C 0.38891 0.82696 0.50774 0.0
O1163 O 0.38744 0.81075 0.51622 0.0
N1164 N 0.3676 0.82407 0.54456 0.0
C1165 C 0.37935 0.80517 0.56622 0.0
C1166 C 0.36539 0.8073 0.55307 0.0
C1167 C 0.38298 0.83176 0.55296 0.0
N1168 N 0.39032 0.82066 0.56616 0.0
O1169 O 0.35962 0.85981 0.53863 0.0
H1170 H 0.3545 0.79705 0.5502 0.0
H1171 H 0.38897 0.84523 0.5492 0.0
O1172 O 0.37652 0.83921 0.51052 0.0
C1173 C 0.34583 0.86302 0.54922 0.0
O1174 O 0.3319 0.85072 0.54965 0.0
N1175 N 0.34605 0.81475 0.51387 0.0
C1176 C 0.32518 0.78652 0.49606 0.0
C1177 C 0.33888 0.79669 0.48625 0.0
C1178 C 0.34915 0.81088 0.49541 0.0
C1179 C 0.3322 0.80541 0.52325 0.0
C1180 C 0.32202 0.79085 0.51483 0.0
H1181 H 0.35848 0.81958 0.4872 0.0
H1182 H 0.32836 0.80994 0.5371 0.0
H1183 H 0.3613 0.87013 0.49895 0.0
H1184 H 0.30374 0.86519 0.48661 0.0
H1185 H 0.38106 0.79331 0.57537 0.0
H1186 H 0.34115 0.79413 0.47152 0.0
H1187 H 0.31097 0.7838 0.52258 0.0
C1188 C 0.48603 0.7071 0.1489 0.0
C1189 C 0.46975 0.70928 0.13875 0.0
N1190 N 0.46574 0.69319 0.12967 0.0
N1191 N 0.49222 0.68972 0.14618 0.0
C1192 C 0.47952 0.68159 0.13452 0.0
H1193 H 0.4933 0.71778 0.15699 0.0
Co1194 Co 0.51486 0.67936 0.15335 0.0
C1195 C 0.50321 0.6434 0.1706 0.0
O1196 O 0.5164 0.64545 0.1834 0.0
N1197 N 0.53783 0.66836 0.15993 0.0
C1198 C 0.5652 0.66036 0.1723 0.0
C1199 C 0.55196 0.6739 0.17154 0.0
C1200 C 0.54336 0.65169 0.15327 0.0
N1201 N 0.55972 0.6464 0.16083 0.0
O1202 O 0.51953 0.67293 0.12799 0.0
H1203 H 0.5528 0.6867 0.17937 0.0
H1204 H 0.53498 0.64308 0.14383 0.0
O1205 O 0.50133 0.65583 0.15796 0.0
C1206 C 0.52536 0.68789 0.12009 0.0
O1207 O 0.52525 0.7035 0.1297 0.0
N1208 N 0.51139 0.68805 0.17776 0.0
C1209 C 0.51136 0.70712 0.21184 0.0
C1210 C 0.49908 0.69176 0.20868 0.0
C1211 C 0.4991 0.68254 0.19134 0.0
C1212 C 0.52215 0.70376 0.18011 0.0
C1213 C 0.52287 0.71309 0.19709 0.0
H1214 H 0.48904 0.67134 0.18885 0.0
H1215 H 0.53081 0.70876 0.16871 0.0
H1216 H 0.48106 0.6678 0.12869 0.0
H1217 H 0.46182 0.72189 0.13769 0.0
H1218 H 0.57774 0.66058 0.1809 0.0
H1219 H 0.48934 0.6871 0.21932 0.0
H1220 H 0.53269 0.72471 0.19859 0.0
C1221 C 0.38175 0.53061 0.21097 0.0
C1222 C 0.39385 0.54571 0.21252 0.0
N1223 N 0.40129 0.54918 0.19559 0.0
N1224 N 0.38144 0.52459 0.19308 0.0
C1225 C 0.39343 0.53627 0.18403 0.0
H1226 H 0.37448 0.52399 0.22245 0.0
Co1227 Co 0.37019 0.50275 0.18351 0.0
C1228 C 0.3498 0.51529 0.14918 0.0
O1229 O 0.33671 0.50233 0.15149 0.0
N1230 N 0.35946 0.48051 0.1738 0.0
C1231 C 0.34391 0.45359 0.16953 0.0
C1232 C 0.34755 0.46797 0.18177 0.0
C1233 C 0.36326 0.47303 0.15689 0.0
N1234 N 0.35377 0.45683 0.15388 0.0
O1235 O 0.39351 0.49582 0.17281 0.0
H1236 H 0.34181 0.46878 0.19561 0.0
H1237 H 0.37241 0.47966 0.14674 0.0
O1238 O 0.36337 0.5167 0.16091 0.0
C1239 C 0.4041 0.4894 0.18558 0.0
O1240 O 0.39877 0.4907 0.20307 0.0
N1241 N 0.34788 0.50823 0.19596 0.0
C1242 C 0.31685 0.50929 0.21938 0.0
C1243 C 0.3172 0.51945 0.20257 0.0
C1244 C 0.33312 0.51906 0.19116 0.0
C1245 C 0.34806 0.49923 0.21272 0.0
C1246 C 0.33273 0.49939 0.22451 0.0
H1247 H 0.3334 0.52745 0.17867 0.0
H1248 H 0.36009 0.49116 0.2166 0.0
H1249 H 0.39725 0.53457 0.16952 0.0
H1250 H 0.39736 0.55317 0.22528 0.0
H1251 H 0.33485 0.44156 0.17205 0.0
H1252 H 0.3054 0.52772 0.19839 0.0
H1253 H 0.33315 0.49129 0.23729 0.0
C1254 C 0.49792 0.35598 0.20052 0.0
C1255 C 0.48609 0.37046 0.20364 0.0
N1256 N 0.48324 0.37936 0.18729 0.0
N1257 N 0.50245 0.35569 0.18225 0.0
C1258 C 0.49319 0.37003 0.17454 0.0
H1259 H 0.50366 0.34694 0.21109 0.0
Co1260 Co 0.521 0.34189 0.17103 0.0
C1261 C 0.50347 0.3262 0.13694 0.0
O1262 O 0.51274 0.31083 0.13966 0.0
N1263 N 0.54026 0.32858 0.15929 0.0
C1264 C 0.5622 0.30911 0.15003 0.0
C1265 C 0.54939 0.31287 0.16376 0.0
C1266 C 0.54808 0.33415 0.14295 0.0
N1267 N 0.56135 0.32259 0.137 0.0
O1268 O 0.53257 0.36455 0.16259 0.0
H1269 H 0.54702 0.30438 0.17599 0.0
H1270 H 0.54362 0.34619 0.13513 0.0
O1271 O 0.50559 0.33981 0.14838 0.0
C1272 C 0.54218 0.37116 0.17621 0.0
O1273 O 0.54223 0.36191 0.1921 0.0
N1274 N 0.51027 0.32011 0.18147 0.0
C1275 C 0.49571 0.29185 0.20436 0.0
C1276 C 0.48564 0.29787 0.18866 0.0
C1277 C 0.49295 0.31243 0.17765 0.0
C1278 C 0.51992 0.31469 0.19698 0.0
C1279 C 0.51305 0.30047 0.20846 0.0
H1280 H 0.48421 0.31801 0.16674 0.0
H1281 H 0.53291 0.32187 0.20071 0.0
H1282 H 0.49487 0.37439 0.16013 0.0
H1283 H 0.4806 0.37456 0.21706 0.0
H1284 H 0.57149 0.29743 0.14973 0.0
H1285 H 0.47191 0.29196 0.18541 0.0
H1286 H 0.52119 0.29637 0.22056 0.0
C1287 C 0.65702 0.49588 0.18704 0.0
C1288 C 0.64478 0.48161 0.19177 0.0
N1289 N 0.63579 0.47575 0.17612 0.0
N1290 N 0.65587 0.49891 0.16845 0.0
C1291 C 0.64283 0.48644 0.16219 0.0
H1292 H 0.6657 0.50386 0.1967 0.0
Co1293 Co 0.66746 0.51775 0.15451 0.0
C1294 C 0.68275 0.49824 0.12158 0.0
O1295 O 0.69731 0.50978 0.12148 0.0
N1296 N 0.67879 0.53707 0.14011 0.0
C1297 C 0.69606 0.56115 0.12974 0.0
C1298 C 0.6948 0.54723 0.14287 0.0
C1299 C 0.67093 0.54494 0.1248 0.0
N1300 N 0.68096 0.55973 0.11847 0.0
O1301 O 0.64337 0.52521 0.14553 0.0
H1302 H 0.705 0.54515 0.1538 0.0
H1303 H 0.65767 0.54043 0.11875 0.0
O1304 O 0.6701 0.50005 0.13394 0.0
C1305 C 0.63618 0.53479 0.15853 0.0
O1306 O 0.64521 0.53621 0.17457 0.0
N1307 N 0.69036 0.51188 0.16564 0.0
C1308 C 0.71948 0.50653 0.1911 0.0
C1309 C 0.71639 0.49397 0.17623 0.0
C1310 C 0.70139 0.49672 0.16374 0.0
C1311 C 0.69335 0.52409 0.17998 0.0
C1312 C 0.70791 0.52186 0.19264 0.0
H1313 H 0.6982 0.48623 0.15329 0.0
H1314 H 0.68396 0.53554 0.18178 0.0
H1315 H 0.63797 0.48584 0.14783 0.0
H1316 H 0.64253 0.47619 0.20572 0.0
H1317 H 0.70706 0.57176 0.12879 0.0
H1318 H 0.72482 0.48171 0.1749 0.0
H1319 H 0.7098 0.53187 0.20389 0.0
C1320 C 0.51937 0.36479 0.81143 0.0
C1321 C 0.53274 0.37793 0.80646 0.0
N1322 N 0.53918 0.38642 0.82213 0.0
N1323 N 0.5174 0.36487 0.83019 0.0
C1324 C 0.52978 0.3781 0.83631 0.0
H1325 H 0.51104 0.3564 0.80181 0.0
Co1326 Co 0.49912 0.35224 0.84432 0.0
C1327 C 0.52038 0.33327 0.87417 0.0
O1328 O 0.50912 0.31858 0.87287 0.0
N1329 N 0.48046 0.33983 0.859 0.0
C1330 C 0.45815 0.32091 0.87055 0.0
C1331 C 0.46935 0.32465 0.85543 0.0
C1332 C 0.47549 0.345 0.8765 0.0
N1333 N 0.46198 0.33377 0.88375 0.0
O1334 O 0.49322 0.37499 0.85654 0.0
H1335 H 0.46923 0.31636 0.84289 0.0
H1336 H 0.48208 0.35645 0.88411 0.0
O1337 O 0.51805 0.34719 0.86332 0.0
C1338 C 0.48522 0.38683 0.84612 0.0
O1339 O 0.48385 0.38356 0.82807 0.0
N1340 N 0.50352 0.33053 0.83068 0.0
C1341 C 0.50462 0.3011 0.80514 0.0
C1342 C 0.51913 0.30398 0.81837 0.0
C1343 C 0.51844 0.319 0.83093 0.0
C1344 C 0.49 0.32853 0.81728 0.0
C1345 C 0.48994 0.31371 0.80481 0.0
H1346 H 0.53007 0.32154 0.84038 0.0
H1347 H 0.4788 0.3384 0.81666 0.0
H1348 H 0.53095 0.38237 0.8508 0.0
H1349 H 0.53696 0.38133 0.79234 0.0
H1350 H 0.44784 0.30966 0.87169 0.0
H1351 H 0.5311 0.29503 0.81874 0.0
H1352 H 0.47829 0.31217 0.79513 0.0
C1353 C 0.68973 0.49049 0.85743 0.0
C1354 C 0.69294 0.47626 0.86986 0.0
N1355 N 0.67683 0.47212 0.87879 0.0
N1356 N 0.67163 0.49531 0.8585 0.0
C1357 C 0.66413 0.4837 0.87147 0.0
H1358 H 0.70025 0.49745 0.84901 0.0
Co1359 Co 0.65942 0.51575 0.84813 0.0
C1360 C 0.62561 0.49814 0.82998 0.0
O1361 O 0.6254 0.51054 0.81645 0.0
N1362 N 0.64662 0.53627 0.83816 0.0
C1363 C 0.6372 0.56076 0.82178 0.0
C1364 C 0.65123 0.54823 0.8242 0.0
C1365 C 0.62981 0.54214 0.84414 0.0
N1366 N 0.62375 0.5569 0.83434 0.0
O1367 O 0.64966 0.52159 0.87216 0.0
H1368 H 0.66378 0.54799 0.81595 0.0
H1369 H 0.62178 0.53527 0.85504 0.0
O1370 O 0.63829 0.49909 0.84263 0.0
C1371 C 0.66299 0.52861 0.88201 0.0
O1372 O 0.67994 0.52928 0.87501 0.0
N1373 N 0.67118 0.5116 0.82532 0.0
C1374 C 0.69604 0.51118 0.79555 0.0
C1375 C 0.68001 0.49943 0.79542 0.0
C1376 C 0.66778 0.4996 0.81077 0.0
C1377 C 0.68677 0.52287 0.82553 0.0
C1378 C 0.69925 0.52299 0.81083 0.0
H1379 H 0.65602 0.4899 0.81102 0.0
H1380 H 0.68944 0.53196 0.83737 0.0
H1381 H 0.64993 0.48469 0.87646 0.0
H1382 H 0.70629 0.46997 0.87262 0.0
H1383 H 0.63691 0.57187 0.81154 0.0
H1384 H 0.67732 0.48987 0.78394 0.0
H1385 H 0.71142 0.53229 0.81145 0.0
C1386 C 0.46842 0.64528 0.81611 0.0
C1387 C 0.45626 0.6305 0.81294 0.0
N1388 N 0.45208 0.6226 0.82953 0.0
N1389 N 0.47179 0.64685 0.83465 0.0
C1390 C 0.46164 0.63281 0.84247 0.0
H1391 H 0.47498 0.65377 0.80542 0.0
Co1392 Co 0.48947 0.66275 0.84596 0.0
C1393 C 0.47192 0.67594 0.88106 0.0
O1394 O 0.48115 0.69191 0.87948 0.0
N1395 N 0.50799 0.67856 0.85726 0.0
C1396 C 0.52809 0.70178 0.86435 0.0
C1397 C 0.51402 0.69592 0.85241 0.0
C1398 C 0.51887 0.67424 0.87221 0.0
N1399 N 0.53116 0.68812 0.87679 0.0
O1400 O 0.50266 0.64147 0.85474 0.0
H1401 H 0.50871 0.70415 0.84104 0.0
H1402 H 0.51759 0.66126 0.87985 0.0
O1403 O 0.47402 0.66325 0.86871 0.0
C1404 C 0.5127 0.63641 0.84107 0.0
O1405 O 0.51171 0.64586 0.82536 0.0
N1406 N 0.47749 0.68311 0.83507 0.0
C1407 C 0.46376 0.71105 0.81206 0.0
C1408 C 0.4546 0.70632 0.82875 0.0
C1409 C 0.46143 0.69184 0.8399 0.0
C1410 C 0.48615 0.68734 0.81864 0.0
C1411 C 0.47959 0.70124 0.80699 0.0
H1412 H 0.45356 0.68756 0.85202 0.0
H1413 H 0.49846 0.67986 0.81468 0.0
H1414 H 0.46209 0.62951 0.85724 0.0
H1415 H 0.45122 0.62573 0.79941 0.0
H1416 H 0.53569 0.71499 0.8637 0.0
H1417 H 0.44211 0.71345 0.83288 0.0
H1418 H 0.48709 0.70453 0.79424 0.0
C1419 C 0.30335 0.52034 0.86704 0.0
C1420 C 0.30003 0.53567 0.87807 0.0
N1421 N 0.31629 0.5411 0.88638 0.0
N1422 N 0.32158 0.51619 0.86854 0.0
C1423 C 0.32908 0.5292 0.88014 0.0
H1424 H 0.29293 0.51199 0.85959 0.0
Co1425 Co 0.33386 0.49485 0.8616 0.0
C1426 C 0.36765 0.5107 0.84257 0.0
O1427 O 0.36651 0.4981 0.82924 0.0
N1428 N 0.34675 0.47321 0.85551 0.0
C1429 C 0.3552 0.44386 0.85093 0.0
C1430 C 0.34059 0.45601 0.8502 0.0
C1431 C 0.36498 0.47088 0.85991 0.0
N1432 N 0.3705 0.45338 0.85698 0.0
O1433 O 0.34262 0.4918 0.88659 0.0
H1434 H 0.3263 0.452 0.84695 0.0
H1435 H 0.37391 0.4816 0.86616 0.0
O1436 O 0.35566 0.51052 0.85572 0.0
C1437 C 0.32988 0.48599 0.89761 0.0
O1438 O 0.31255 0.48468 0.89137 0.0
N1439 N 0.32383 0.49684 0.83738 0.0
C1440 C 0.30518 0.49574 0.80285 0.0
C1441 C 0.31806 0.5103 0.80717 0.0
C1442 C 0.32705 0.51074 0.82466 0.0
C1443 C 0.31021 0.48369 0.83404 0.0
C1444 C 0.30125 0.48241 0.81674 0.0
H1445 H 0.33617 0.52249 0.82804 0.0
H1446 H 0.30602 0.47423 0.84507 0.0
H1447 H 0.3433 0.52876 0.88543 0.0
H1448 H 0.28652 0.54162 0.88065 0.0
H1449 H 0.35458 0.42915 0.84755 0.0
H1450 H 0.32084 0.52151 0.79738 0.0
H1451 H 0.29132 0.47101 0.81445 0.0
C1452 C 0.69476 0.65937 0.97721 0.0
C1453 C 0.69681 0.64352 0.96659 0.0
N1454 N 0.67961 0.63665 0.96215 0.0
N1455 N 0.67636 0.66238 0.9793 0.0
C1456 C 0.66755 0.64839 0.96997 0.0
H1457 H 0.7059 0.66755 0.98377 0.0
Co1458 Co 0.66452 0.6785 0.99505 0.0
C1459 C 0.63362 0.69383 0.97285 0.0
O1460 O 0.63765 0.71027 0.98012 0.0
N1461 N 0.6518 0.69427 0.01151 0.0
C1462 C 0.64187 0.7139 0.03324 0.0
C1463 C 0.65652 0.70963 0.02162 0.0
C1464 C 0.63432 0.68967 0.01718 0.0
N1465 N 0.62805 0.7011 0.03047 0.0
O1466 O 0.65345 0.65736 0.00752 0.0
H1467 H 0.66988 0.71697 0.0213 0.0
H1468 H 0.62634 0.67779 0.01184 0.0
O1469 O 0.6435 0.67985 0.97727 0.0
C1470 C 0.66327 0.6553 0.02228 0.0
O1471 O 0.67755 0.66682 0.0253 0.0
N1472 N 0.67766 0.69852 0.98419 0.0
C1473 C 0.70456 0.72452 0.97243 0.0
C1474 C 0.68988 0.71902 0.96037 0.0
C1475 C 0.67672 0.70548 0.96639 0.0
C1476 C 0.6922 0.70348 0.9957 0.0
C1477 C 0.70568 0.71655 0.9902 0.0
H1478 H 0.66633 0.70022 0.95656 0.0
H1479 H 0.69356 0.69684 0.0092 0.0
H1480 H 0.65253 0.64606 0.97013 0.0
H1481 H 0.70991 0.63724 0.96295 0.0
H1482 H 0.64178 0.72492 0.04356 0.0
H1483 H 0.68897 0.72465 0.94634 0.0
H1484 H 0.71701 0.7203 0.99974 0.0
C1485 C 0.69973 0.36227 0.02296 0.0
C1486 C 0.7041 0.37579 0.03599 0.0
N1487 N 0.6884 0.3849 0.04011 0.0
N1488 N 0.68128 0.36268 0.01887 0.0
C1489 C 0.67474 0.37657 0.02965 0.0
H1490 H 0.70967 0.35339 0.01631 0.0
Co1491 Co 0.66823 0.34966 0.99982 0.0
C1492 C 0.63471 0.33319 0.01871 0.0
O1493 O 0.63445 0.31887 0.00727 0.0
N1494 N 0.65483 0.33699 0.98034 0.0
C1495 C 0.64475 0.31703 0.95835 0.0
C1496 C 0.65859 0.32095 0.97128 0.0
C1497 C 0.63862 0.34256 0.97234 0.0
N1498 N 0.63219 0.33063 0.95902 0.0
O1499 O 0.65863 0.3727 0.9909 0.0
H1500 H 0.67037 0.31222 0.9738 0.0
H1501 H 0.63129 0.35485 0.9766 0.0
O1502 O 0.64728 0.34605 0.01698 0.0
C1503 C 0.67175 0.38057 0.98161 0.0
O1504 O 0.68799 0.37243 0.98077 0.0
N1505 N 0.67977 0.32758 0.0072 0.0
C1506 C 0.70201 0.29651 0.01196 0.0
C1507 C 0.68673 0.29943 0.02378 0.0
C1508 C 0.67594 0.31536 0.02141 0.0
C1509 C 0.69501 0.32525 0.99619 0.0
C1510 C 0.70617 0.30981 0.99819 0.0
H1511 H 0.66484 0.31783 0.03115 0.0
H1512 H 0.69818 0.33536 0.98537 0.0
H1513 H 0.66046 0.38123 0.02894 0.0
H1514 H 0.71792 0.379 0.04159 0.0
H1515 H 0.64407 0.30512 0.94906 0.0
H1516 H 0.68343 0.28972 0.03495 0.0
H1517 H 0.7178 0.30815 0.98875 0.0
C1518 C 0.309 0.63909 0.04244 0.0
C1519 C 0.30786 0.62614 0.05659 0.0
N1520 N 0.32492 0.61893 0.05919 0.0
N1521 N 0.32674 0.64016 0.03614 0.0
C1522 C 0.33612 0.62774 0.04668 0.0
H1523 H 0.29742 0.64665 0.03664 0.0
Co1524 Co 0.3355 0.65345 0.01527 0.0
C1525 C 0.37004 0.67284 0.02846 0.0
O1526 O 0.36592 0.68713 0.01783 0.0
N1527 N 0.34473 0.66632 0.99379 0.0
C1528 C 0.35017 0.68533 0.96963 0.0
C1529 C 0.33819 0.681 0.98405 0.0
C1530 C 0.36059 0.66187 0.98464 0.0
N1531 N 0.36425 0.67325 0.97001 0.0
O1532 O 0.34426 0.63089 0.00474 0.0
H1533 H 0.32567 0.68847 0.98706 0.0
H1534 H 0.3697 0.65083 0.98903 0.0
O1535 O 0.35915 0.65842 0.0286 0.0
C1536 C 0.32981 0.62307 0.99731 0.0
O1537 O 0.31348 0.63071 0.99974 0.0
N1538 N 0.32442 0.67497 0.02467 0.0
C1539 C 0.30091 0.70334 0.03587 0.0
C1540 C 0.31779 0.70025 0.04548 0.0
C1541 C 0.32918 0.6856 0.03994 0.0
C1542 C 0.30771 0.67736 0.01582 0.0
C1543 C 0.29591 0.69154 0.02097 0.0
H1544 H 0.34138 0.6826 0.04827 0.0
H1545 H 0.30356 0.66809 0.00452 0.0
H1546 H 0.35065 0.6245 0.04449 0.0
H1547 H 0.29532 0.62206 0.06409 0.0
H1548 H 0.34859 0.69649 0.95959 0.0
H1549 H 0.32188 0.70874 0.05742 0.0
H1550 H 0.28305 0.69335 0.01313 0.0
C1551 C 0.32159 0.36187 0.00356 0.0
C1552 C 0.31742 0.37758 0.99355 0.0
N1553 N 0.33362 0.38641 0.98904 0.0
N1554 N 0.34033 0.36075 0.00519 0.0
C1555 C 0.3473 0.37587 0.99618 0.0
H1556 H 0.31158 0.35234 0.00995 0.0
Co1557 Co 0.35298 0.3444 0.02037 0.0
C1558 C 0.38538 0.3322 0.9991 0.0
O1559 O 0.38202 0.31547 0.00594 0.0
N1560 N 0.36594 0.32831 0.03658 0.0
C1561 C 0.37633 0.30628 0.05578 0.0
C1562 C 0.36201 0.31126 0.04388 0.0
C1563 C 0.38261 0.33329 0.04438 0.0
N1564 N 0.38918 0.32029 0.05612 0.0
O1565 O 0.36219 0.36517 0.03473 0.0
H1566 H 0.34964 0.30281 0.04102 0.0
H1567 H 0.39004 0.34623 0.04125 0.0
O1568 O 0.37474 0.34559 0.00354 0.0
C1569 C 0.3496 0.36819 0.04678 0.0
O1570 O 0.33461 0.35719 0.04681 0.0
N1571 N 0.34167 0.32458 0.00705 0.0
C1572 C 0.31458 0.30292 0.98837 0.0
C1573 C 0.33011 0.31015 0.97872 0.0
C1574 C 0.34333 0.32141 0.98825 0.0
C1575 C 0.3268 0.31724 0.01658 0.0
C1576 C 0.31322 0.30622 0.0076 0.0
H1577 H 0.35385 0.3287 0.98014 0.0
H1578 H 0.32472 0.32116 0.03101 0.0
H1579 H 0.36205 0.37965 0.99586 0.0
H1580 H 0.30353 0.38234 0.99019 0.0
H1581 H 0.37701 0.29356 0.06388 0.0
H1582 H 0.33129 0.30826 0.96375 0.0
H1583 H 0.30129 0.30102 0.01546 0.0
H1584 H 0.99633 0.25888 0.32607 0.0
H1585 H 0.02688 0.24571 0.22291 0.0
H1586 H 0.04231 0.2909 0.30279 0.0
H1587 H 0.01263 0.19651 0.25524 0.0
H1588 H 0.02855 0.26376 0.2516 0.0
H1589 H 0.99879 0.23634 0.30029 0.0
C1590 C 0.00726 0.26082 0.31579 0.0
C1591 C 0.01928 0.27656 0.31652 0.0
C1592 C 0.02519 0.24897 0.2524 0.0
C1593 C 0.02161 0.25153 0.28688 0.0
C1594 C 0.02429 0.23856 0.23601 0.0
C1595 C 0.02002 0.21933 0.23655 0.0
C1596 C 0.02128 0.24035 0.26953 0.0
C1597 C 0.01592 0.21126 0.25404 0.0
C1598 C 0.0086 0.24806 0.30112 0.0
C1599 C 0.03298 0.27877 0.30277 0.0
N1600 N 0.01654 0.22184 0.26988 0.0
N1601 N 0.03355 0.26658 0.28827 0.0
H1602 H 0.82319 0.01445 0.2721 0.0
H1603 H 0.71331 0.99386 0.28242 0.0
H1604 H 0.78735 0.00677 0.22372 0.0
H1605 H 0.75406 0.98791 0.32671 0.0
H1606 H 0.73905 -0.00017 0.26028 0.0
H1607 H 0.79665 0.00754 0.29222 0.0
C1608 C 0.80968 0.01136 0.2657 0.0
C1609 C 0.80756 0.01095 0.24618 0.0
C1610 C 0.7423 0.99704 0.27482 0.0
C1611 C 0.77691 0.00296 0.26925 0.0
C1612 C 0.72765 0.99347 0.28739 0.0
C1613 C 0.73159 0.99059 0.30643 0.0
C1614 C 0.76088 0.99779 0.28147 0.0
C1615 C 0.75039 0.99037 0.3122 0.0
C1616 C 0.7945 0.00735 0.27721 0.0
C1617 C 0.78958 0.00727 0.2387 0.0
N1618 N 0.76426 0.9941 0.29984 0.0
N1619 N 0.77492 0.00331 0.25026 0.0
H1620 H 0.98072 0.73375 0.30426 0.0
H1621 H 0.9798 0.76437 0.19651 0.0
H1622 H 0.9802 0.69493 0.25823 0.0
H1623 H 0.99761 0.80024 0.24196 0.0
H1624 H 0.97109 0.74011 0.21936 0.0
H1625 H 0.97784 0.75945 0.28186 0.0
C1626 C 0.97954 0.73063 0.28947 0.0
C1627 C 0.98096 0.71228 0.28302 0.0
C1628 C 0.97664 0.75341 0.22431 0.0
C1629 C 0.97781 0.74146 0.2574 0.0
C1630 C 0.98151 0.76723 0.21131 0.0
C1631 C 0.98966 0.78413 0.21742 0.0
C1632 C 0.97978 0.75668 0.24349 0.0
C1633 C 0.99164 0.78722 0.23672 0.0
C1634 C 0.97803 0.74527 0.2767 0.0
C1635 C 0.97945 0.70895 0.26371 0.0
N1636 N 0.98687 0.77357 0.24908 0.0
N1637 N 0.97815 0.72342 0.25155 0.0
H1638 H 0.27158 0.98205 0.29272 0.0
H1639 H 0.2678 0.01521 0.18954 0.0
H1640 H 0.32343 0.99792 0.26555 0.0
H1641 H 0.23293 0.96944 0.20891 0.0
H1642 H 0.28834 0.0113 0.21695 0.0
H1643 H 0.25628 0.98024 0.26233 0.0
C1644 C 0.27989 0.98496 0.28043 0.0
C1645 C 0.29902 0.98987 0.28186 0.0
C1646 C 0.27648 0.00181 0.2149 0.0
C1647 C 0.28117 0.98838 0.24688 0.0
C1648 C 0.26487 0.00396 0.19928 0.0
C1649 C 0.24882 0.99251 0.19702 0.0
C1650 C 0.27156 0.98854 0.22853 0.0
C1651 C 0.24532 0.97837 0.21011 0.0
C1652 C 0.27105 0.98395 0.26304 0.0
C1653 C 0.30866 0.99424 0.26526 0.0
N1654 N 0.25638 0.97703 0.22557 0.0
N1655 N 0.29959 0.99355 0.24844 0.0
H1656 H 0.01903 0.76934 0.82139 0.0
H1657 H 0.97421 0.72743 0.72736 0.0
H1658 H 0.98215 0.79973 0.78483 0.0
H1659 H 0.03003 0.71394 0.74519 0.0
H1660 H 0.97188 0.74843 0.75432 0.0
H1661 H 0.01906 0.74401 0.79831 0.0
C1662 C 0.01096 0.77076 0.80861 0.0
C1663 C 0.00043 0.78674 0.80525 0.0
C1664 C 0.98451 0.74061 0.75247 0.0
C1665 C 0.99993 0.75755 0.77925 0.0
C1666 C 0.98575 0.72855 0.73725 0.0
C1667 C 0.00234 0.7191 0.73415 0.0
C1668 C 0.99987 0.74297 0.76471 0.0
C1669 C 0.01704 0.72113 0.74718 0.0
C1670 C 0.01087 0.75622 0.79557 0.0
C1671 C 0.99005 0.78757 0.78846 0.0
N1672 N 0.01552 0.73294 0.76191 0.0
N1673 N 0.98998 0.77317 0.7762 0.0
H1674 H 0.29069 0.03337 0.7357 0.0
H1675 H 0.18187 0.01432 0.75025 0.0
H1676 H 0.25637 0.01722 0.68823 0.0
H1677 H 0.22463 0.00382 0.79155 0.0
H1678 H 0.20662 0.01911 0.72658 0.0
H1679 H 0.26386 0.02858 0.75603 0.0
C1680 C 0.2774 0.029 0.72953 0.0
C1681 C 0.27581 0.0254 0.71031 0.0
C1682 C 0.21044 0.01552 0.74079 0.0
C1683 C 0.24496 0.01973 0.73358 0.0
C1684 C 0.19639 0.01264 0.7542 0.0
C1685 C 0.2013 0.00889 0.77287 0.0
C1686 C 0.22934 0.01484 0.74632 0.0
C1687 C 0.22028 0.00696 0.77737 0.0
C1688 C 0.26211 0.02615 0.74115 0.0
C1689 C 0.25814 0.02011 0.70301 0.0
N1690 N 0.23356 0.0102 0.76429 0.0
N1691 N 0.24333 0.01726 0.71471 0.0
H1692 H 0.96644 0.27711 0.7156 0.0
H1693 H 0.95922 0.24842 0.8237 0.0
H1694 H 0.97574 0.31538 0.76142 0.0
H1695 H 0.96618 0.20912 0.77886 0.0
H1696 H 0.95672 0.27349 0.80048 0.0
H1697 H 0.95805 0.25256 0.73818 0.0
C1698 C 0.9664 0.2804 0.73039 0.0
C1699 C 0.97206 0.29817 0.73671 0.0
C1700 C 0.95846 0.25932 0.79573 0.0
C1701 C 0.9625 0.27031 0.76252 0.0
C1702 C 0.95974 0.24504 0.80895 0.0
C1703 C 0.9631 0.22679 0.80313 0.0
C1704 C 0.96045 0.25524 0.77661 0.0
C1705 C 0.96381 0.22309 0.78387 0.0
C1706 C 0.9617 0.26641 0.74325 0.0
C1707 C 0.9718 0.30174 0.75602 0.0
N1708 N 0.96268 0.23722 0.7713 0.0
N1709 N 0.96724 0.2879 0.76825 0.0
H1710 H 0.76152 0.01409 0.80621 0.0
H1711 H 0.71477 0.03288 0.72414 0.0
H1712 H 0.81106 0.01212 0.77227 0.0
H1713 H 0.75455 0.99689 0.69828 0.0
H1714 H 0.7338 0.03349 0.75248 0.0
H1715 H 0.74237 0.01497 0.77787 0.0
C1716 C 0.76836 0.01398 0.79274 0.0
C1717 C 0.78789 0.01311 0.79156 0.0
C1718 C 0.73832 0.02529 0.74071 0.0
C1719 C 0.76606 0.01443 0.75898 0.0
C1720 C 0.72759 0.02513 0.7244 0.0
C1721 C 0.73312 0.01486 0.70877 0.0
C1722 C 0.75474 0.01501 0.74156 0.0
C1723 C 0.74974 0.00488 0.71007 0.0
C1724 C 0.75744 0.01466 0.77657 0.0
C1725 C 0.79604 0.01301 0.77374 0.0
N1726 N 0.76008 0.00528 0.7262 0.0
N1727 N 0.78505 0.01349 0.75808 0.0
H1728 H 0.20467 0.25878 0.96761 0.0
H1729 H 0.31583 0.27249 0.96528 0.0
H1730 H 0.24291 0.21449 0.95754 0.0
H1731 H 0.27784 0.31162 0.98899 0.0
H1732 H 0.28885 0.25432 0.95294 0.0
H1733 H 0.23086 0.28144 0.96539 0.0
C1734 C 0.21849 0.25395 0.96425 0.0
C1735 C 0.2218 0.23487 0.96288 0.0
C1736 C 0.28646 0.26706 0.96057 0.0
C1737 C 0.25172 0.2604 0.96076 0.0
C1738 C 0.30182 0.27739 0.96757 0.0
C1739 C 0.29893 0.29327 0.97846 0.0
C1740 C 0.26821 0.27281 0.96442 0.0
C1741 C 0.28056 0.29918 0.98098 0.0
C1742 C 0.23344 0.2668 0.96316 0.0
C1743 C 0.23993 0.22916 0.95876 0.0
N1744 N 0.26588 0.28885 0.97419 0.0
N1745 N 0.25431 0.24186 0.95813 0.0
H1746 H 0.24802 0.80782 0.02207 0.0
H1747 H 0.31088 0.73964 0.04402 0.0
H1748 H 0.20465 0.76984 0.0413 0.0
H1749 H 0.26272 0.70253 0.03883 0.0
H1750 H 0.28994 0.76594 0.04658 0.0
H1751 H 0.27141 0.78508 0.03022 0.0
C1752 C 0.24349 0.79475 0.02835 0.0
C1753 C 0.22438 0.79059 0.03084 0.0
C1754 C 0.28391 0.75207 0.04478 0.0
C1755 C 0.25117 0.76444 0.04063 0.0
C1756 C 0.29589 0.73701 0.04363 0.0
C1757 C 0.28855 0.71893 0.04073 0.0
C1758 C 0.26445 0.749 0.04288 0.0
C1759 C 0.26899 0.71632 0.04049 0.0
C1760 C 0.2569 0.7818 0.03325 0.0
C1761 C 0.21925 0.77355 0.03916 0.0
N1762 N 0.25764 0.7312 0.04132 0.0
N1763 N 0.23256 0.76094 0.04344 0.0
H1764 H 0.75526 0.18688 0.00848 0.0
H1765 H 0.69115 0.25969 0.01625 0.0
H1766 H 0.79676 0.22977 0.02102 0.0
H1767 H 0.74008 0.29577 0.01178 0.0
H1768 H 0.71147 0.23264 0.01668 0.0
H1769 H 0.73132 0.21083 0.00674 0.0
C1770 C 0.75929 0.20135 0.01075 0.0
C1771 C 0.77791 0.20638 0.0151 0.0
C1772 C 0.71777 0.24642 0.01535 0.0
C1773 C 0.75071 0.23376 0.0137 0.0
C1774 C 0.70617 0.26188 0.01542 0.0
C1775 C 0.71394 0.27997 0.01382 0.0
C1776 C 0.73726 0.24917 0.01372 0.0
C1777 C 0.73346 0.28207 0.01273 0.0
C1778 C 0.7456 0.21501 0.01007 0.0
C1779 C 0.78249 0.22528 0.01792 0.0
N1780 N 0.74439 0.2669 0.01272 0.0
N1781 N 0.76902 0.23822 0.01719 0.0
H1782 H 0.70116 0.76202 0.9693 0.0
H1783 H 0.81202 0.77906 0.97753 0.0
H1784 H 0.74107 0.71827 0.96513 0.0
H1785 H 0.77087 0.8166 0.99835 0.0
H1786 H 0.78661 0.75951 0.96395 0.0
H1787 H 0.72712 0.78508 0.97024 0.0
C1788 C 0.71539 0.75739 0.96786 0.0
C1789 C 0.71912 0.73836 0.9671 0.0
C1790 C 0.7832 0.77218 0.97127 0.0
C1791 C 0.74874 0.76436 0.96866 0.0
C1792 C 0.79765 0.7833 0.97898 0.0
C1793 C 0.79343 0.79921 0.98933 0.0
C1794 C 0.76449 0.77721 0.97378 0.0
C1795 C 0.77464 0.8042 0.99078 0.0
C1796 C 0.73018 0.77046 0.96861 0.0
C1797 C 0.73775 0.7329 0.96565 0.0
N1798 N 0.76086 0.79318 0.98321 0.0
N1799 N 0.75192 0.74583 0.96671 0.0
H1800 H 0.73315 0.50609 0.79964 0.0
H1801 H 0.76457 0.52612 0.69517 0.0
H1802 H 0.69116 0.51692 0.75765 0.0
H1803 H 0.7973 0.54077 0.74419 0.0
H1804 H 0.73753 0.51911 0.71549 0.0
H1805 H 0.75748 0.5128 0.77679 0.0
C1806 C 0.72909 0.50961 0.78545 0.0
C1807 C 0.71018 0.51116 0.78053 0.0
C1808 C 0.7506 0.52409 0.72167 0.0
C1809 C 0.73799 0.51916 0.75432 0.0
C1810 C 0.76594 0.52825 0.71012 0.0
C1811 C 0.78325 0.5338 0.71806 0.0
C1812 C 0.75283 0.5253 0.74118 0.0
C1813 C 0.78433 0.5362 0.73751 0.0
C1814 C 0.74296 0.51361 0.77247 0.0
C1815 C 0.70563 0.51558 0.76192 0.0
N1816 N 0.76946 0.53169 0.74837 0.0
N1817 N 0.7195 0.5196 0.74942 0.0
H1818 H 0.22609 0.47139 0.71381 0.0
H1819 H 0.31806 0.50707 0.76816 0.0
H1820 H 0.25662 0.52102 0.6968 0.0
H1821 H 0.26952 0.48222 0.79509 0.0
H1822 H 0.30105 0.50564 0.73826 0.0
H1823 H 0.24853 0.46745 0.73958 0.0
C1824 C 0.2379 0.48106 0.71514 0.0
C1825 C 0.23959 0.49655 0.7033 0.0
C1826 C 0.29435 0.50033 0.75078 0.0
C1827 C 0.26499 0.4923 0.73265 0.0
C1828 C 0.30392 0.5013 0.7679 0.0
C1829 C 0.29533 0.49474 0.78437 0.0
C1830 C 0.27624 0.49239 0.75005 0.0
C1831 C 0.27706 0.48705 0.7829 0.0
C1832 C 0.25054 0.47894 0.72991 0.0
C1833 C 0.25493 0.50892 0.70574 0.0
N1834 N 0.2682 0.48605 0.76608 0.0
N1835 N 0.26702 0.50662 0.72029 0.0
H1836 H 0.27966 0.5043 0.2095 0.0
H1837 H 0.24972 0.48809 0.31595 0.0
H1838 H 0.31615 0.51205 0.25738 0.0
H1839 H 0.20839 0.49457 0.27232 0.0
H1840 H 0.27441 0.49278 0.29307 0.0
H1841 H 0.25326 0.49848 0.23086 0.0
C1842 C 0.28206 0.50504 0.22446 0.0
C1843 C 0.30018 0.50845 0.23168 0.0
C1844 C 0.25997 0.4931 0.28837 0.0
C1845 C 0.27029 0.50141 0.25603 0.0
C1846 C 0.24588 0.49029 0.30143 0.0
C1847 C 0.22703 0.49111 0.29601 0.0
C1848 C 0.25529 0.49681 0.26965 0.0
C1849 C 0.2228 0.4938 0.277 0.0
C1850 C 0.26705 0.50156 0.23661 0.0
C1851 C 0.30253 0.50912 0.25118 0.0
N1852 N 0.23686 0.49673 0.26445 0.0
N1853 N 0.28785 0.50548 0.2626 0.0
H1854 H 0.81855 0.50507 0.26549 0.0
H1855 H 0.75706 0.49934 0.18764 0.0
H1856 H 0.76803 0.50398 0.29815 0.0
H1857 H 0.71385 0.50673 0.22851 0.0
H1858 H 0.78026 0.49802 0.21307 0.0
H1859 H 0.7995 0.5042 0.23691 0.0
C1860 C 0.80345 0.50468 0.26662 0.0
C1861 C 0.79489 0.50443 0.28426 0.0
C1862 C 0.76576 0.50003 0.21655 0.0
C1863 C 0.77286 0.50295 0.2516 0.0
C1864 C 0.75249 0.50053 0.20199 0.0
C1865 C 0.73359 0.50339 0.206 0.0
C1866 C 0.75995 0.50238 0.23519 0.0
C1867 C 0.72833 0.50483 0.22478 0.0
C1868 C 0.79251 0.50393 0.25026 0.0
C1869 C 0.77528 0.50384 0.28491 0.0
N1870 N 0.74141 0.50439 0.23859 0.0
N1871 N 0.76501 0.50312 0.26889 0.0
H1872 H 0.25072 0.69307 0.48224 0.0
H1873 H 0.3012 0.79232 0.46685 0.0
H1874 H 0.22217 0.74046 0.45992 0.0
H1875 H 0.32032 0.74983 0.50454 0.0
H1876 H 0.27618 0.77077 0.45577 0.0
H1877 H 0.28027 0.71088 0.48125 0.0
C1878 C 0.25082 0.70713 0.47669 0.0
C1879 C 0.23406 0.71546 0.47136 0.0
C1880 C 0.28611 0.76606 0.46616 0.0
C1881 C 0.26768 0.73602 0.47053 0.0
C1882 C 0.30041 0.77826 0.47237 0.0
C1883 C 0.3127 0.77274 0.48662 0.0
C1884 C 0.28433 0.74823 0.47416 0.0
C1885 C 0.31104 0.75455 0.49356 0.0
C1886 C 0.26763 0.71731 0.47622 0.0
C1887 C 0.23485 0.73363 0.46418 0.0
N1888 N 0.29703 0.74297 0.48734 0.0
N1889 N 0.2514 0.74349 0.46427 0.0
H1890 H 0.31948 0.25059 0.51055 0.0
H1891 H 0.24633 0.31428 0.5026 0.0
H1892 H 0.27558 0.20894 0.50285 0.0
H1893 H 0.21066 0.26686 0.516 0.0
H1894 H 0.27309 0.29359 0.50101 0.0
H1895 H 0.29564 0.2746 0.51231 0.0
C1896 C 0.30483 0.24654 0.50927 0.0
C1897 C 0.29948 0.22782 0.50633 0.0
C1898 C 0.25949 0.28773 0.50455 0.0
C1899 C 0.27219 0.2551 0.50784 0.0
C1900 C 0.24416 0.29951 0.50515 0.0
C1901 C 0.2263 0.29229 0.50959 0.0
C1902 C 0.25684 0.26861 0.50833 0.0
C1903 C 0.22423 0.27307 0.51281 0.0
C1904 C 0.29122 0.26026 0.50998 0.0
C1905 C 0.28033 0.22325 0.50481 0.0
N1906 N 0.23927 0.26194 0.51208 0.0
N1907 N 0.26743 0.23676 0.5056 0.0
H1908 H 0.73562 0.80055 0.47939 0.0
H1909 H 0.76829 0.69458 0.48103 0.0
H1910 H 0.70184 0.75454 0.5002 0.0
H1911 H 0.80591 0.74195 0.47439 0.0
H1912 H 0.74173 0.71564 0.48003 0.0
H1913 H 0.75935 0.77846 0.46974 0.0
C1914 C 0.73308 0.78578 0.48165 0.0
C1915 C 0.71692 0.77937 0.49088 0.0
C1916 C 0.75579 0.72138 0.47847 0.0
C1917 C 0.74391 0.75408 0.47991 0.0
C1918 C 0.77089 0.70936 0.47888 0.0
C1919 C 0.78925 0.71662 0.478 0.0
C1920 C 0.75913 0.74072 0.47705 0.0
C1921 C 0.79193 0.73588 0.47536 0.0
C1922 C 0.74664 0.7732 0.47622 0.0
C1923 C 0.7143 0.76009 0.49347 0.0
N1924 N 0.77706 0.74729 0.47516 0.0
N1925 N 0.72772 0.74814 0.48816 0.0
H1926 H 0.77366 0.31368 0.49176 0.0
H1927 H 0.74317 0.21037 0.46796 0.0
H1928 H 0.81377 0.27153 0.4798 0.0
H1929 H 0.70516 0.25593 0.46524 0.0
H1930 H 0.76962 0.23274 0.46854 0.0
H1931 H 0.74877 0.29344 0.4789 0.0
C1932 C 0.77719 0.30017 0.48622 0.0
C1933 C 0.79566 0.29407 0.48704 0.0
C1934 C 0.75554 0.23789 0.46731 0.0
C1935 C 0.7673 0.27075 0.47248 0.0
C1936 C 0.7405 0.22513 0.46689 0.0
C1937 C 0.72211 0.23144 0.46649 0.0
C1938 C 0.75207 0.25706 0.46781 0.0
C1939 C 0.71921 0.25062 0.46542 0.0
C1940 C 0.76303 0.28866 0.47879 0.0
C1941 C 0.79964 0.27662 0.47948 0.0
N1942 N 0.73405 0.2628 0.46646 0.0
N1943 N 0.78549 0.26538 0.4728 0.0
H1944 H 0.52719 0.20331 0.73813 0.0
H1945 H 0.49158 0.30078 0.76886 0.0
H1946 H 0.47623 0.22568 0.71591 0.0
H1947 H 0.51785 0.26544 0.80986 0.0
H1948 H 0.48915 0.27448 0.74754 0.0
H1949 H 0.52682 0.22648 0.76348 0.0
C1950 C 0.51571 0.21285 0.73891 0.0
C1951 C 0.50162 0.2126 0.72512 0.0
C1952 C 0.49533 0.27247 0.76126 0.0
C1953 C 0.5015 0.23936 0.7534 0.0
C1954 C 0.49669 0.28748 0.77355 0.0
C1955 C 0.5046 0.28536 0.79148 0.0
C1956 C 0.50236 0.25522 0.76661 0.0
C1957 C 0.51171 0.26784 0.79622 0.0
C1958 C 0.51554 0.22604 0.75327 0.0
C1959 C 0.48719 0.22535 0.72644 0.0
N1960 N 0.51051 0.25344 0.78381 0.0
N1961 N 0.48767 0.23846 0.74016 0.0
H1962 H 0.4742 0.8185 0.76456 0.0
H1963 H 0.4558 0.7099 0.77477 0.0
H1964 H 0.46336 0.78197 0.71762 0.0
H1965 H 0.45893 0.7474 0.82181 0.0
H1966 H 0.45352 0.73661 0.75372 0.0
H1967 H 0.46414 0.79354 0.78574 0.0
C1968 C 0.46952 0.80524 0.75872 0.0
C1969 C 0.46992 0.80216 0.73934 0.0
C1970 C 0.45431 0.73905 0.76865 0.0
C1971 C 0.45843 0.77349 0.76349 0.0
C1972 C 0.45555 0.72381 0.78065 0.0
C1973 C 0.45772 0.72654 0.79998 0.0
C1974 C 0.45559 0.75718 0.77602 0.0
C1975 C 0.45727 0.74476 0.80697 0.0
C1976 C 0.46368 0.79103 0.7708 0.0
C1977 C 0.46334 0.78489 0.73248 0.0
N1978 N 0.45663 0.75944 0.79495 0.0
N1979 N 0.45816 0.77109 0.74456 0.0
H1980 H 0.54436 0.78552 0.2971 0.0
H1981 H 0.50635 0.69293 0.24757 0.0
H1982 H 0.49844 0.7544 0.32163 0.0
H1983 H 0.51852 0.74441 0.2181 0.0
H1984 H 0.5104 0.70984 0.27732 0.0
H1985 H 0.54387 0.76373 0.27062 0.0
C1986 C 0.53467 0.77366 0.2972 0.0
C1987 C 0.52152 0.77154 0.31148 0.0
C1988 C 0.51229 0.71723 0.26423 0.0
C1989 C 0.52068 0.74693 0.28138 0.0
C1990 C 0.5098 0.7077 0.24725 0.0
C1991 C 0.51238 0.71711 0.23014 0.0
C1992 C 0.5178 0.73611 0.26403 0.0
C1993 C 0.51703 0.73627 0.23077 0.0
C1994 C 0.53424 0.76142 0.28207 0.0
C1995 C 0.50889 0.75627 0.31086 0.0
N1996 N 0.51978 0.74504 0.24737 0.0
N1997 N 0.50867 0.74452 0.29593 0.0
H1998 H 0.47639 0.22192 0.30052 0.0
H1999 H 0.4805 0.2578 0.19449 0.0
H2000 H 0.47746 0.18535 0.2527 0.0
H2001 H 0.49386 0.29214 0.2425 0.0
H2002 H 0.47167 0.23213 0.21561 0.0
H2003 H 0.47476 0.24868 0.27932 0.0
C2004 C 0.47583 0.21951 0.28556 0.0
C2005 C 0.4773 0.20145 0.27832 0.0
C2006 C 0.47634 0.24536 0.2215 0.0
C2007 C 0.47567 0.23192 0.25403 0.0
C2008 C 0.48129 0.26 0.20947 0.0
C2009 C 0.48819 0.27697 0.21679 0.0
C2010 C 0.47814 0.24782 0.24095 0.0
C2011 C 0.48896 0.27913 0.2363 0.0
C2012 C 0.47506 0.23477 0.27347 0.0
C2013 C 0.47665 0.1991 0.25883 0.0
N2014 N 0.48413 0.26469 0.2477 0.0
N2015 N 0.47607 0.21417 0.24735 0.0
H2016 H 0.12831 0.04284 0.19285 0.0
H2017 H 0.07583 0.12502 0.14036 0.0
H2018 H 0.13396 0.05175 0.13346 0.0
H2019 H 0.08927 0.12411 0.19924 0.0
H2020 H 0.09116 0.09489 0.13673 0.0
H2021 H 0.1068 0.06855 0.19432 0.0
C2022 C 0.1247 0.05002 0.18003 0.0
C2023 C 0.13305 0.04537 0.16305 0.0
C2024 C 0.09067 0.10131 0.15042 0.0
C2025 C 0.10874 0.07508 0.1647 0.0
C2026 C 0.08195 0.11841 0.1525 0.0
C2027 C 0.08148 0.12705 0.17011 0.0
C2028 C 0.0986 0.09273 0.16614 0.0
C2029 C 0.08961 0.11805 0.1854 0.0
C2030 C 0.11253 0.06477 0.1809 0.0
C2031 C 0.12777 0.05497 0.14682 0.0
N2032 N 0.09778 0.10136 0.18307 0.0
N2033 N 0.1161 0.06964 0.14807 0.0
H2034 H 0.91631 0.06882 0.17276 0.0
H2035 H 0.01206 0.11654 0.20992 0.0
H2036 H 0.93698 0.06461 0.22941 0.0
H2037 H 0.98554 0.13305 0.15822 0.0
H2038 H 0.98648 0.09414 0.21519 0.0
H2039 H 0.94323 0.08946 0.16528 0.0
C2040 C 0.92651 0.07222 0.18359 0.0
C2041 C 0.92431 0.06514 0.20177 0.0
C2042 C 0.98627 0.1026 0.20264 0.0
C2043 C 0.9551 0.08849 0.19334 0.0
C2044 C 0.00094 0.11537 0.19957 0.0
C2045 C 0.00092 0.12682 0.18365 0.0
C2046 C 0.97143 0.10113 0.18968 0.0
C2047 C 0.9861 0.12457 0.17073 0.0
C2048 C 0.94181 0.08401 0.17934 0.0
C2049 C 0.9379 0.07 0.21531 0.0
N2050 N 0.9719 0.11202 0.17405 0.0
N2051 N 0.95269 0.0813 0.21081 0.0
H2052 H 0.91465 0.97142 0.16593 0.0
H2053 H 0.99455 0.91322 0.21596 0.0
H2054 H 0.94275 0.98743 0.21729 0.0
H2055 H 0.97009 0.89705 0.16289 0.0
H2056 H 0.97762 0.94218 0.21466 0.0
H2057 H 0.93711 0.94634 0.16203 0.0
C2058 C 0.92586 0.97 0.17608 0.0
C2059 C 0.9268 0.98139 0.19204 0.0
C2060 C 0.97595 0.9324 0.20321 0.0
C2061 C 0.95218 0.95265 0.1879 0.0
C2062 C 0.98552 0.91575 0.20405 0.0
C2063 C 0.9835 0.90258 0.18966 0.0
C2064 C 0.96403 0.93592 0.18795 0.0
C2065 C 0.97199 0.90685 0.17429 0.0
C2066 C 0.93856 0.95558 0.17395 0.0
C2067 C 0.94143 0.97882 0.20488 0.0
N2068 N 0.9625 0.92308 0.17393 0.0
N2069 N 0.95338 0.96464 0.20264 0.0
H2070 H 0.11945 0.96934 0.15112 0.0
H2071 H 0.08371 0.87192 0.19348 0.0
H2072 H 0.14647 0.93997 0.19614 0.0
H2073 H 0.05378 0.89979 0.1493 0.0
H2074 H 0.10738 0.89652 0.19316 0.0
H2075 H 0.09596 0.94396 0.14883 0.0
C2076 C 0.12053 0.95753 0.16044 0.0
C2077 C 0.13495 0.95682 0.17392 0.0
C2078 C 0.0957 0.89737 0.18348 0.0
C2079 C 0.10808 0.92787 0.17143 0.0
C2080 C 0.08209 0.88326 0.18365 0.0
C2081 C 0.06662 0.88385 0.17148 0.0
C2082 C 0.09396 0.91237 0.17108 0.0
C2083 C 0.06547 0.89885 0.15895 0.0
C2084 C 0.10706 0.9431 0.15917 0.0
C2085 C 0.13549 0.94129 0.18576 0.0
N2086 N 0.07896 0.91264 0.15913 0.0
N2087 N 0.12228 0.92748 0.18423 0.0
H2088 H 0.03343 0.9142 0.80269 0.0
H2089 H 0.11666 0.97065 0.85453 0.0
H2090 H 0.0555 0.89899 0.85679 0.0
H2091 H 0.09073 0.98912 0.80324 0.0
H2092 H 0.09474 0.94409 0.85532 0.0
H2093 H 0.05485 0.9412 0.80222 0.0
C2094 C 0.04287 0.91644 0.81443 0.0
C2095 C 0.04269 0.90422 0.82979 0.0
C2096 C 0.09379 0.95397 0.84392 0.0
C2097 C 0.06717 0.93533 0.82942 0.0
C2098 C 0.10633 0.96916 0.84344 0.0
C2099 C 0.10559 0.98215 0.82875 0.0
C2100 C 0.08042 0.95162 0.82957 0.0
C2101 C 0.09183 0.97948 0.81482 0.0
C2102 C 0.05501 0.93197 0.81421 0.0
C2103 C 0.05503 0.9081 0.84475 0.0
N2104 N 0.07984 0.96448 0.81554 0.0
N2105 N 0.0668 0.92327 0.84416 0.0
H2106 H 0.05375 0.15044 0.86553 0.0
H2107 H 0.08632 0.04611 0.84792 0.0
H2108 H 0.01454 0.10443 0.85834 0.0
H2109 H 0.12195 0.09531 0.84439 0.0
H2110 H 0.0605 0.06566 0.85819 0.0
H2111 H 0.07948 0.1287 0.86543 0.0
C2112 C 0.0506 0.13562 0.86448 0.0
C2113 C 0.03214 0.1291 0.86203 0.0
C2114 C 0.07403 0.07211 0.85529 0.0
C2115 C 0.06145 0.10418 0.86108 0.0
C2116 C 0.08872 0.06099 0.84946 0.0
C2117 C 0.10617 0.06918 0.84501 0.0
C2118 C 0.07695 0.09148 0.8569 0.0
C2119 C 0.10861 0.08849 0.84725 0.0
C2120 C 0.06526 0.12323 0.86423 0.0
C2121 C 0.02866 0.10987 0.86047 0.0
N2122 N 0.09418 0.09895 0.85297 0.0
N2123 N 0.04326 0.09802 0.85972 0.0
H2124 H 0.93091 0.12029 0.86662 0.0
H2125 H 0.89449 0.02217 0.82511 0.0
H2126 H 0.95199 0.09531 0.81635 0.0
H2127 H 0.86952 0.04839 0.87287 0.0
H2128 H 0.91726 0.04792 0.82332 0.0
H2129 H 0.90983 0.09317 0.87072 0.0
C2130 C 0.93117 0.10908 0.85651 0.0
C2131 C 0.94313 0.11015 0.84103 0.0
C2132 C 0.90684 0.04804 0.83425 0.0
C2133 C 0.91906 0.07915 0.8456 0.0
C2134 C 0.89383 0.0333 0.83529 0.0
C2135 C 0.87998 0.03316 0.84909 0.0
C2136 C 0.90604 0.06281 0.84708 0.0
C2137 C 0.87992 0.04795 0.86196 0.0
C2138 C 0.91909 0.09364 0.85881 0.0
C2139 C 0.94279 0.09528 0.82828 0.0
N2140 N 0.8927 0.06223 0.86059 0.0
N2141 N 0.93096 0.08043 0.83085 0.0
H2142 H 0.88344 0.9538 0.88714 0.0
H2143 H 0.9698 0.91202 0.8322 0.0
H2144 H 0.88837 0.95052 0.8272 0.0
H2145 H 0.95623 0.8942 0.88815 0.0
H2146 H 0.94501 0.93471 0.83353 0.0
H2147 H 0.91413 0.93905 0.89041 0.0
C2148 C 0.89108 0.95008 0.87472 0.0
C2149 C 0.88337 0.9531 0.85687 0.0
C2150 C 0.94766 0.92614 0.8457 0.0
C2151 C 0.91833 0.93681 0.86047 0.0
C2152 C 0.96193 0.91336 0.84502 0.0
C2153 C 0.96492 0.90126 0.86006 0.0
C2154 C 0.9361 0.92665 0.86144 0.0
C2155 C 0.95435 0.90342 0.87633 0.0
C2156 C 0.90849 0.94171 0.87659 0.0
C2157 C 0.89371 0.9481 0.84118 0.0
N2158 N 0.94007 0.91568 0.87649 0.0
N2159 N 0.91065 0.94024 0.84335 0.0
H2160 H 0.15778 0.06572 0.10415 0.0
H2161 H 0.20454 0.11714 0.01642 0.0
H2162 H 0.21676 0.06762 0.09193 0.0
H2163 H 0.14912 0.12984 0.03528 0.0
H2164 H 0.2062 0.0926 0.0398 0.0
H2165 H 0.15185 0.08369 0.07544 0.0
C2166 C 0.16942 0.06977 0.0953 0.0
C2167 C 0.18781 0.06542 0.10042 0.0
C2168 C 0.19356 0.10056 0.03875 0.0
C2169 C 0.18117 0.08561 0.06774 0.0
C2170 C 0.19258 0.11452 0.02535 0.0
C2171 C 0.17678 0.12564 0.02417 0.0
C2172 C 0.17873 0.09783 0.05126 0.0
C2173 C 0.16155 0.12153 0.03585 0.0
C2174 C 0.16604 0.08002 0.07902 0.0
C2175 C 0.20244 0.07099 0.08862 0.0
N2176 N 0.16301 0.10808 0.04922 0.0
N2177 N 0.1988 0.0808 0.07286 0.0
H2178 H 0.90817 0.15078 0.04512 0.0
H2179 H 0.94253 0.1961 0.14125 0.0
H2180 H 0.87158 0.16487 0.09037 0.0
H2181 H 0.98029 0.1655 0.10676 0.0
H2182 H 0.91653 0.18572 0.1212 0.0
H2183 H 0.93526 0.15563 0.06641 0.0
C2184 C 0.90585 0.1544 0.05961 0.0
C2185 C 0.88775 0.15768 0.06601 0.0
C2186 C 0.93048 0.18116 0.11802 0.0
C2187 C 0.91826 0.16361 0.09006 0.0
C2188 C 0.94532 0.18727 0.12938 0.0
C2189 C 0.96352 0.18167 0.12563 0.0
C2190 C 0.93388 0.16957 0.10261 0.0
C2191 C 0.96639 0.16998 0.11018 0.0
C2192 C 0.92124 0.15731 0.07168 0.0
C2193 C 0.88538 0.16251 0.08483 0.0
N2194 N 0.95171 0.16441 0.09911 0.0
N2195 N 0.90044 0.16556 0.09609 0.0
H2196 H 0.87456 0.89739 0.06681 0.0
H2197 H 0.82943 0.93806 0.1596 0.0
H2198 H 0.81631 0.89107 0.08172 0.0
H2199 H 0.88395 0.95654 0.14066 0.0
H2200 H 0.82547 0.91956 0.13132 0.0
H2201 H 0.8793 0.91857 0.09362 0.0
C2202 C 0.86276 0.90061 0.07556 0.0
C2203 C 0.84505 0.89236 0.07214 0.0
C2204 C 0.83832 0.92767 0.13324 0.0
C2205 C 0.85038 0.91624 0.1027 0.0
C2206 C 0.84064 0.93811 0.1495 0.0
C2207 C 0.85708 0.94874 0.15251 0.0
C2208 C 0.85261 0.92768 0.11986 0.0
C2209 C 0.87102 0.94858 0.13876 0.0
C2210 C 0.86548 0.91263 0.09085 0.0
C2211 C 0.83026 0.89693 0.08392 0.0
N2212 N 0.86853 0.9381 0.12302 0.0
N2213 N 0.8333 0.90843 0.09869 0.0
H2214 H 0.13442 0.86275 0.04297 0.0
H2215 H 0.07178 0.79631 0.10838 0.0
H2216 H 0.11761 0.80629 0.02867 0.0
H2217 H 0.07505 0.85589 0.11603 0.0
H2218 H 0.09029 0.79974 0.07994 0.0
H2219 H 0.11391 0.86084 0.07039 0.0
C2220 C 0.12631 0.85005 0.04546 0.0
C2221 C 0.12783 0.83463 0.03352 0.0
C2222 C 0.08691 0.8121 0.08777 0.0
C2223 C 0.10463 0.83228 0.06492 0.0
C2224 C 0.07645 0.81011 0.10408 0.0
C2225 C 0.07186 0.82582 0.11457 0.0
C2226 C 0.09307 0.82993 0.08198 0.0
C2227 C 0.07811 0.84343 0.10823 0.0
C2228 C 0.11465 0.84896 0.06112 0.0
C2229 C 0.11702 0.81852 0.03749 0.0
N2230 N 0.0885 0.84502 0.0924 0.0
N2231 N 0.10604 0.81773 0.05287 0.0
H2232 H 0.20222 0.88133 0.94493 0.0
H2233 H 0.15027 0.96709 0.89927 0.0
H2234 H 0.14971 0.90008 0.96671 0.0
H2235 H 0.19379 0.93639 0.87246 0.0
H2236 H 0.14982 0.94419 0.92469 0.0
H2237 H 0.19984 0.90333 0.91954 0.0
C2238 C 0.19013 0.89013 0.94443 0.0
C2239 C 0.17611 0.8888 0.95805 0.0
C2240 C 0.15936 0.94246 0.91316 0.0
C2241 C 0.17331 0.91429 0.92859 0.0
C2242 C 0.15959 0.95547 0.89856 0.0
C2243 C 0.17224 0.9538 0.8837 0.0
C2244 C 0.17195 0.92777 0.91293 0.0
C2245 C 0.18409 0.93852 0.88374 0.0
C2246 C 0.18876 0.9027 0.92978 0.0
C2247 C 0.16084 0.90067 0.95652 0.0
N2248 N 0.18372 0.92622 0.89815 0.0
N2249 N 0.15985 0.91302 0.94203 0.0
H2250 H 0.12319 0.16026 0.95951 0.0
H2251 H 0.04645 0.22172 0.90802 0.0
H2252 H 0.11361 0.21791 0.97283 0.0
H2253 H 0.04856 0.162 0.9022 0.0
H2254 H 0.07154 0.2206 0.93143 0.0
H2255 H 0.09625 0.16049 0.93812 0.0
C2256 C 0.11539 0.17293 0.95802 0.0
C2257 C 0.12072 0.18911 0.96794 0.0
C2258 C 0.06644 0.20771 0.92513 0.0
C2259 C 0.08997 0.18949 0.94343 0.0
C2260 C 0.05218 0.20837 0.91171 0.0
C2261 C 0.04542 0.19195 0.90316 0.0
C2262 C 0.07416 0.19051 0.9299 0.0
C2263 C 0.05321 0.17498 0.9086 0.0
C2264 C 0.1 0.17304 0.94582 0.0
C2265 C 0.11006 0.20511 0.96546 0.0
N2266 N 0.06726 0.17471 0.92152 0.0
N2267 N 0.09529 0.20493 0.95338 0.0
H2268 H 0.78584 0.05757 0.919 0.0
H2269 H 0.8542 0.12107 0.98289 0.0
H2270 H 0.84461 0.06529 0.90706 0.0
H2271 H 0.79888 0.10206 0.99914 0.0
H2272 H 0.85091 0.1026 0.95409 0.0
H2273 H 0.79004 0.07643 0.94709 0.0
C2274 C 0.7996 0.06342 0.92214 0.0
C2275 C 0.81489 0.05983 0.91061 0.0
C2276 C 0.83956 0.10245 0.96404 0.0
C2277 C 0.8199 0.08131 0.94306 0.0
C2278 C 0.84143 0.11295 0.98048 0.0
C2279 C 0.82679 0.11316 0.99347 0.0
C2280 C 0.82286 0.09224 0.96051 0.0
C2281 C 0.81055 0.10239 0.98958 0.0
C2282 C 0.80205 0.07405 0.93833 0.0
C2283 C 0.83248 0.06756 0.91565 0.0
N2284 N 0.80901 0.09248 0.97346 0.0
N2285 N 0.83452 0.07795 0.9315 0.0
H2286 H 0.95425 0.81032 0.92635 0.0
H2287 H 0.88345 0.86992 0.98574 0.0
H2288 H 0.94288 0.86742 0.91264 0.0
H2289 H 0.90599 0.81756 0.00375 0.0
H2290 H 0.90568 0.87053 0.95965 0.0
H2291 H 0.937 0.81357 0.95537 0.0
C2292 C 0.94812 0.82358 0.92954 0.0
C2293 C 0.94981 0.83856 0.91707 0.0
C2294 C 0.90587 0.85905 0.96949 0.0
C2295 C 0.92991 0.84247 0.95028 0.0
C2296 C 0.89323 0.85872 0.98438 0.0
C2297 C 0.8927 0.84353 0.99678 0.0
C2298 C 0.91792 0.84406 0.96703 0.0
C2299 C 0.90568 0.8294 0.99438 0.0
C2300 C 0.93835 0.82549 0.94615 0.0
C2301 C 0.94187 0.85557 0.92197 0.0
N2302 N 0.91759 0.82993 0.97972 0.0
N2303 N 0.93202 0.85702 0.93813 0.0
H2304 H 0.05806 0.15322 0.11501 0.0
H2305 H 0.12312 0.2196 0.05302 0.0
H2306 H 0.04762 0.21138 0.10513 0.0
H2307 H 0.12498 0.15973 0.04911 0.0
H2308 H 0.0954 0.21643 0.07265 0.0
H2309 H 0.08188 0.15441 0.09038 0.0
C2310 C 0.06042 0.16607 0.10733 0.0
C2311 C 0.05105 0.18228 0.1122 0.0
C2312 C 0.10178 0.20395 0.06741 0.0
C2313 C 0.0784 0.18386 0.08454 0.0
C2314 C 0.1177 0.20579 0.05638 0.0
C2315 C 0.12634 0.18992 0.04952 0.0
C2316 C 0.09458 0.18609 0.07186 0.0
C2317 C 0.11861 0.17231 0.05404 0.0
C2318 C 0.0741 0.16679 0.09341 0.0
C2319 C 0.05474 0.19862 0.10197 0.0
N2320 N 0.10324 0.17085 0.06508 0.0
N2321 N 0.06828 0.19906 0.08883 0.0
H2322 H 0.04338 0.86539 0.89226 0.0
H2323 H 0.11483 0.79961 0.94632 0.0
H2324 H 0.0323 0.80716 0.90404 0.0
H2325 H 0.11979 0.85959 0.94816 0.0
H2326 H 0.08582 0.80216 0.92827 0.0
H2327 H 0.07259 0.8637 0.91051 0.0
C2328 C 0.04703 0.8523 0.8987 0.0
C2329 C 0.03532 0.83641 0.89661 0.0
C2330 C 0.09321 0.81478 0.93265 0.0
C2331 C 0.06874 0.83434 0.9173 0.0
C2332 C 0.10985 0.81332 0.94285 0.0
C2333 C 0.11973 0.8294 0.9488 0.0
C2334 C 0.08645 0.83247 0.92813 0.0
C2335 C 0.11249 0.84684 0.94406 0.0
C2336 C 0.06369 0.85135 0.90912 0.0
C2337 C 0.0408 0.8198 0.90526 0.0
N2338 N 0.09633 0.84792 0.93393 0.0
N2339 N 0.0571 0.8192 0.9151 0.0
H2340 H 0.20471 0.10551 0.95156 0.0
H2341 H 0.13335 0.04834 0.88699 0.0
H2342 H 0.14916 0.12441 0.93917 0.0
H2343 H 0.18596 0.0276 0.90698 0.0
H2344 H 0.13625 0.07406 0.90949 0.0
H2345 H 0.19637 0.07538 0.9378 0.0
C2346 C 0.19078 0.10333 0.94577 0.0
C2347 C 0.1777 0.11753 0.94616 0.0
C2348 C 0.1469 0.06359 0.90931 0.0
C2349 C 0.16788 0.08296 0.93057 0.0
C2350 C 0.14511 0.04879 0.89664 0.0
C2351 C 0.15957 0.03605 0.89508 0.0
C2352 C 0.16327 0.06552 0.92028 0.0
C2353 C 0.17464 0.03733 0.90767 0.0
C2354 C 0.18591 0.08604 0.93814 0.0
C2355 C 0.15965 0.11379 0.939 0.0
N2356 N 0.17627 0.05201 0.91953 0.0
N2357 N 0.15531 0.09691 0.93127 0.0
H2358 H 0.95304 0.15072 0.90205 0.0
H2359 H 0.88583 0.20975 0.96704 0.0
H2360 H 0.95579 0.21066 0.90717 0.0
H2361 H 0.89435 0.15102 0.97624 0.0
H2362 H 0.90866 0.20936 0.94213 0.0
H2363 H 0.92893 0.14965 0.92647 0.0
C2364 C 0.9486 0.16362 0.90827 0.0
C2365 C 0.95653 0.1808 0.90257 0.0
C2366 C 0.90555 0.19655 0.94962 0.0
C2367 C 0.92889 0.17967 0.93027 0.0
C2368 C 0.89249 0.19675 0.964 0.0
C2369 C 0.88816 0.18046 0.97418 0.0
C2370 C 0.91437 0.17991 0.94507 0.0
C2371 C 0.89708 0.16397 0.96893 0.0
C2372 C 0.93487 0.16299 0.92221 0.0
C2373 C 0.9502 0.19707 0.91112 0.0
N2374 N 0.90977 0.16413 0.95478 0.0
N2375 N 0.93676 0.1961 0.92442 0.0
H2376 H 0.802 0.92257 0.99536 0.0
H2377 H 0.85708 0.97301 0.91188 0.0
H2378 H 0.85481 0.90373 0.97463 0.0
H2379 H 0.80074 0.98504 0.92841 0.0
H2380 H 0.85967 0.9519 0.93881 0.0
H2381 H 0.8044 0.94953 0.97478 0.0
C2382 C 0.81411 0.92411 0.98644 0.0
C2383 C 0.82804 0.9107 0.98643 0.0
C2384 C 0.84688 0.95943 0.9367 0.0
C2385 C 0.83098 0.94167 0.96285 0.0
C2386 C 0.84546 0.97157 0.92145 0.0
C2387 C 0.82859 0.98056 0.9179 0.0
C2388 C 0.83136 0.95649 0.94841 0.0
C2389 C 0.81389 0.97816 0.93057 0.0
C2390 C 0.81555 0.93959 0.97478 0.0
C2391 C 0.84372 0.91371 0.975 0.0
N2392 N 0.81556 0.96624 0.94516 0.0
N2393 N 0.84467 0.92879 0.96347 0.0
H2394 H 0.97892 0.86203 0.1329 0.0
H2395 H 0.90314 0.8006 0.07594 0.0
H2396 H 0.98858 0.80634 0.11289 0.0
H2397 H 0.89946 0.86025 0.08116 0.0
H2398 H 0.9336 0.8022 0.09178 0.0
H2399 H 0.94914 0.86177 0.11553 0.0
C2400 C 0.97492 0.84986 0.1247 0.0
C2401 C 0.98625 0.83415 0.12444 0.0
C2402 C 0.92616 0.81496 0.08943 0.0
C2403 C 0.95214 0.83365 0.10487 0.0
C2404 C 0.9087 0.81401 0.08054 0.0
C2405 C 0.8988 0.8303 0.07721 0.0
C2406 C 0.93368 0.83231 0.09526 0.0
C2407 C 0.90676 0.84738 0.08327 0.0
C2408 C 0.9579 0.84969 0.11485 0.0
C2409 C 0.98031 0.81874 0.11362 0.0
N2410 N 0.92371 0.84794 0.09208 0.0
N2411 N 0.96362 0.81882 0.10444 0.0
H2412 H 0.22028 0.91621 0.03797 0.0
H2413 H 0.16405 0.97011 0.11677 0.0
H2414 H 0.16572 0.89764 0.05674 0.0
H2415 H 0.21527 0.99071 0.09166 0.0
H2416 H 0.16373 0.94374 0.09493 0.0
H2417 H 0.21828 0.94359 0.05783 0.0
C2418 C 0.20789 0.91784 0.04637 0.0
C2419 C 0.19322 0.9045 0.0458 0.0
C2420 C 0.17494 0.95412 0.09415 0.0
C2421 C 0.19072 0.93608 0.06859 0.0
C2422 C 0.17512 0.9692 0.10658 0.0
C2423 C 0.18978 0.98262 0.10614 0.0
C2424 C 0.18956 0.95243 0.08126 0.0
C2425 C 0.20375 0.98069 0.09264 0.0
C2426 C 0.20669 0.93359 0.05763 0.0
C2427 C 0.17732 0.90761 0.05671 0.0
N2428 N 0.20334 0.96586 0.08086 0.0
N2429 N 0.17653 0.92303 0.06776 0.0
H2430 H 0.82304 0.02142 0.14176 0.0
H2431 H 0.8635 0.10826 0.08307 0.0
H2432 H 0.87861 0.04496 0.15049 0.0
H2433 H 0.80477 0.09342 0.08617 0.0
H2434 H 0.8704 0.08259 0.10448 0.0
H2435 H 0.81731 0.04514 0.11808 0.0
C2436 C 0.8341 0.0315 0.13863 0.0
C2437 C 0.85131 0.03122 0.14824 0.0
C2438 C 0.85601 0.08492 0.10041 0.0
C2439 C 0.8448 0.05849 0.12103 0.0
C2440 C 0.85208 0.09947 0.08809 0.0
C2441 C 0.83351 0.10298 0.08285 0.0
C2442 C 0.84129 0.07367 0.10739 0.0
C2443 C 0.81924 0.09132 0.09001 0.0
C2444 C 0.83078 0.04509 0.12513 0.0
C2445 C 0.8651 0.04467 0.14351 0.0
N2446 N 0.82342 0.07718 0.10187 0.0
N2447 N 0.86154 0.05777 0.13025 0.0
H2448 H 0.12316 0.55348 0.64043 0.0
H2449 H 0.07708 0.63167 0.70214 0.0
H2450 H 0.11691 0.55027 0.70034 0.0
H2451 H 0.06788 0.62883 0.64253 0.0
H2452 H 0.09195 0.60154 0.7011 0.0
H2453 H 0.1022 0.58016 0.63993 0.0
C2454 C 0.11698 0.55806 0.65338 0.0
C2455 C 0.12188 0.54984 0.67049 0.0
C2456 C 0.08662 0.60739 0.68821 0.0
C2457 C 0.0984 0.58036 0.67007 0.0
C2458 C 0.07831 0.6247 0.6888 0.0
C2459 C 0.07144 0.63279 0.67238 0.0
C2460 C 0.08834 0.59814 0.67101 0.0
C2461 C 0.07302 0.62298 0.65549 0.0
C2462 C 0.10516 0.57335 0.65311 0.0
C2463 C 0.11368 0.55639 0.68688 0.0
N2464 N 0.08151 0.60621 0.65518 0.0
N2465 N 0.10255 0.57138 0.68629 0.0
H2466 H 0.9984 0.62132 0.70088 0.0
H2467 H 0.90221 0.58276 0.65564 0.0
H2468 H 0.97713 0.64143 0.64807 0.0
H2469 H 0.91776 0.5762 0.71364 0.0
H2470 H 0.9315 0.60068 0.65052 0.0
H2471 H 0.97105 0.60056 0.70339 0.0
C2472 C 0.98809 0.62125 0.68969 0.0
C2473 C 0.99 0.6333 0.67433 0.0
C2474 C 0.92845 0.5953 0.66435 0.0
C2475 C 0.95851 0.60956 0.6772 0.0
C2476 C 0.9118 0.58507 0.66725 0.0
C2477 C 0.90748 0.57817 0.68512 0.0
C2478 C 0.94094 0.59837 0.67938 0.0
C2479 C 0.92035 0.58156 0.69973 0.0
C2480 C 0.9724 0.60944 0.69119 0.0
C2481 C 0.97618 0.63246 0.66022 0.0
N2482 N 0.93648 0.59136 0.69652 0.0
N2483 N 0.96094 0.62087 0.66205 0.0
H2484 H 0.94912 0.40745 0.66559 0.0
H2485 H 0.91709 0.50579 0.70507 0.0
H2486 H 0.96067 0.42831 0.72116 0.0
H2487 H 0.89454 0.48225 0.65395 0.0
H2488 H 0.93872 0.48018 0.70736 0.0
H2489 H 0.93361 0.43676 0.65801 0.0
C2490 C 0.94844 0.41822 0.67615 0.0
C2491 C 0.95596 0.41537 0.69411 0.0
C2492 C 0.92927 0.48069 0.69546 0.0
C2493 C 0.93857 0.44886 0.68551 0.0
C2494 C 0.91705 0.49541 0.69407 0.0
C2495 C 0.904 0.49602 0.67938 0.0
C2496 C 0.92827 0.46627 0.68221 0.0
C2497 C 0.9045 0.48227 0.66545 0.0
C2498 C 0.93962 0.4349 0.67182 0.0
C2499 C 0.95472 0.42973 0.70729 0.0
N2500 N 0.91624 0.4677 0.66737 0.0
N2501 N 0.94621 0.44581 0.70272 0.0
H2502 H 0.11975 0.45955 0.65595 0.0
H2503 H 0.03602 0.41674 0.71731 0.0
H2504 H 0.11243 0.46931 0.71496 0.0
H2505 H 0.04456 0.40081 0.65988 0.0
H2506 H 0.06184 0.43926 0.71495 0.0
H2507 H 0.0907 0.44056 0.65563 0.0
C2508 C 0.11202 0.45774 0.66881 0.0
C2509 C 0.11861 0.46591 0.68555 0.0
C2510 C 0.05805 0.431 0.70276 0.0
C2511 C 0.08542 0.44436 0.68526 0.0
C2512 C 0.04323 0.41818 0.70408 0.0
C2513 C 0.03827 0.40683 0.68881 0.0
C2514 C 0.0682 0.43241 0.68608 0.0
C2515 C 0.04796 0.40938 0.67196 0.0
C2516 C 0.09548 0.4469 0.66862 0.0
C2517 C 0.10811 0.46302 0.70182 0.0
N2518 N 0.06268 0.42179 0.6711 0.0
N2519 N 0.09208 0.45252 0.70125 0.0
H2520 H 0.05269 0.40201 0.31045 0.0
H2521 H 0.13308 0.45497 0.3699 0.0
H2522 H 0.06495 0.38872 0.36805 0.0
H2523 H 0.11508 0.47194 0.31481 0.0
H2524 H 0.10905 0.43007 0.36941 0.0
H2525 H 0.07638 0.42695 0.31165 0.0
C2526 C 0.06045 0.40424 0.32334 0.0
C2527 C 0.05687 0.39313 0.33915 0.0
C2528 C 0.11035 0.43927 0.35745 0.0
C2529 C 0.08404 0.42195 0.34068 0.0
C2530 C 0.12409 0.45349 0.3577 0.0
C2531 C 0.12615 0.46558 0.34235 0.0
C2532 C 0.09863 0.43706 0.3417 0.0
C2533 C 0.11405 0.46298 0.32696 0.0
C2534 C 0.07392 0.41862 0.32406 0.0
C2535 C 0.06715 0.397 0.35558 0.0
N2536 N 0.10087 0.449 0.32701 0.0
N2537 N 0.08033 0.41104 0.35591 0.0
H2538 H 0.11765 0.54898 0.3734 0.0
H2539 H 0.04033 0.59374 0.30667 0.0
H2540 H 0.1187 0.54902 0.31314 0.0
H2541 H 0.04667 0.61018 0.36446 0.0
H2542 H 0.06486 0.57124 0.31096 0.0
H2543 H 0.08809 0.56607 0.37223 0.0
C2544 C 0.11152 0.55243 0.35997 0.0
C2545 C 0.12063 0.54782 0.34333 0.0
C2546 C 0.06083 0.57961 0.3228 0.0
C2547 C 0.08703 0.56697 0.34187 0.0
C2548 C 0.04677 0.59244 0.32037 0.0
C2549 C 0.04165 0.604 0.33517 0.0
C2550 C 0.07006 0.57837 0.34013 0.0
C2551 C 0.05027 0.60152 0.35269 0.0
C2552 C 0.09477 0.56219 0.35931 0.0
C2553 C 0.11226 0.55259 0.32627 0.0
N2554 N 0.0643 0.5891 0.35465 0.0
N2555 N 0.09598 0.56188 0.32599 0.0
H2556 H 0.96085 0.58142 0.299 0.0
H2557 H 0.87953 0.54048 0.36432 0.0
H2558 H 0.94608 0.60706 0.35122 0.0
H2559 H 0.90034 0.51247 0.31553 0.0
H2560 H 0.90392 0.56473 0.36047 0.0
H2561 H 0.93875 0.55593 0.30533 0.0
C2562 C 0.95286 0.58172 0.31179 0.0
C2563 C 0.95514 0.59649 0.3245 0.0
C2564 C 0.9032 0.5532 0.3507 0.0
C2565 C 0.92981 0.56717 0.33198 0.0
C2566 C 0.88929 0.53935 0.35288 0.0
C2567 C 0.88781 0.52447 0.34014 0.0
C2568 C 0.91563 0.55219 0.33564 0.0
C2569 C 0.90085 0.52371 0.32562 0.0
C2570 C 0.94032 0.56707 0.31548 0.0
C2571 C 0.94474 0.5959 0.34108 0.0
N2572 N 0.91412 0.53742 0.32372 0.0
N2573 N 0.93239 0.58153 0.34429 0.0
H2574 H 0.96446 0.39 0.38509 0.0
H2575 H 0.88923 0.43848 0.32096 0.0
H2576 H 0.97126 0.39977 0.32596 0.0
H2577 H 0.89091 0.44883 0.38034 0.0
H2578 H 0.91921 0.42321 0.32338 0.0
H2579 H 0.9381 0.41152 0.38497 0.0
C2580 C 0.96077 0.39709 0.37225 0.0
C2581 C 0.96987 0.393 0.35546 0.0
C2582 C 0.91315 0.42888 0.33593 0.0
C2583 C 0.93972 0.41707 0.35513 0.0
C2584 C 0.89594 0.43743 0.33454 0.0
C2585 C 0.88757 0.44474 0.35048 0.0
C2586 C 0.92201 0.42732 0.35346 0.0
C2587 C 0.897 0.44334 0.36773 0.0
C2588 C 0.94567 0.40923 0.37215 0.0
C2589 C 0.96444 0.40235 0.33915 0.0
N2590 N 0.91368 0.43456 0.36884 0.0
N2591 N 0.94959 0.41371 0.33935 0.0
H2592 H 0.15049 0.65658 0.56414 0.0
H2593 H 0.16404 0.55057 0.59426 0.0
H2594 H 0.15507 0.61243 0.52374 0.0
H2595 H 0.17477 0.59854 0.62932 0.0
H2596 H 0.15289 0.57135 0.5693 0.0
H2597 H 0.1499 0.63351 0.58922 0.0
C2598 C 0.15081 0.64191 0.56058 0.0
C2599 C 0.15296 0.63629 0.542 0.0
C2600 C 0.15756 0.57725 0.58253 0.0
C2601 C 0.15305 0.60991 0.57054 0.0
C2602 C 0.16392 0.56545 0.59669 0.0
C2603 C 0.17063 0.57296 0.61366 0.0
C2604 C 0.15764 0.59658 0.5856 0.0
C2605 C 0.17014 0.59227 0.61627 0.0
C2606 C 0.15065 0.62877 0.57487 0.0
C2607 C 0.15332 0.6172 0.53798 0.0
N2608 N 0.1638 0.60339 0.60239 0.0
N2609 N 0.15378 0.60461 0.55224 0.0
H2610 H 0.91389 0.70687 0.52497 0.0
H2611 H 0.95931 0.66374 0.61742 0.0
H2612 H 0.89881 0.65182 0.54483 0.0
H2613 H 0.96399 0.72153 0.60116 0.0
H2614 H 0.9405 0.65729 0.58917 0.0
H2615 H 0.93665 0.71014 0.55031 0.0
C2616 C 0.91567 0.6953 0.53452 0.0
C2617 C 0.90444 0.6791 0.53292 0.0
C2618 C 0.94566 0.67136 0.59182 0.0
C2619 C 0.93016 0.68292 0.56233 0.0
C2620 C 0.95639 0.67505 0.6079 0.0
C2621 C 0.96315 0.69323 0.61168 0.0
C2622 C 0.94186 0.68593 0.57935 0.0
C2623 C 0.95884 0.7074 0.59898 0.0
C2624 C 0.92857 0.69723 0.54908 0.0
C2625 C 0.90733 0.66449 0.54558 0.0
N2626 N 0.94854 0.70343 0.58339 0.0
N2627 N 0.91979 0.66685 0.55999 0.0
H2628 H 0.80859 0.46051 0.62963 0.0
H2629 H 0.87083 0.39935 0.56138 0.0
H2630 H 0.86863 0.46731 0.62723 0.0
H2631 H 0.81081 0.39436 0.56691 0.0
H2632 H 0.87093 0.42583 0.58337 0.0
H2633 H 0.80962 0.43778 0.60453 0.0
C2634 C 0.82203 0.45715 0.6238 0.0
C2635 C 0.83856 0.4656 0.63066 0.0
C2636 C 0.85777 0.41896 0.57961 0.0
C2637 C 0.83995 0.43949 0.60175 0.0
C2638 C 0.85771 0.40393 0.56707 0.0
C2639 C 0.84081 0.39457 0.56248 0.0
C2640 C 0.8408 0.42459 0.58742 0.0
C2641 C 0.82421 0.40099 0.57022 0.0
C2642 C 0.82264 0.44421 0.60938 0.0
C2643 C 0.85557 0.46107 0.62229 0.0
N2644 N 0.82465 0.4155 0.5823 0.0
N2645 N 0.85587 0.44815 0.60834 0.0
H2646 H 0.14167 0.35054 0.5842 0.0
H2647 H 0.03652 0.34896 0.62187 0.0
H2648 H 0.09386 0.34568 0.54732 0.0
H2649 H 0.08533 0.34001 0.65625 0.0
H2650 H 0.05682 0.35307 0.59458 0.0
H2651 H 0.12072 0.35318 0.61085 0.0
C2652 C 0.12668 0.35052 0.58174 0.0
C2653 C 0.11937 0.34801 0.56367 0.0
C2654 C 0.06306 0.35025 0.60811 0.0
C2655 C 0.0953 0.35037 0.59406 0.0
C2656 C 0.05151 0.34793 0.62368 0.0
C2657 C 0.05927 0.34403 0.64133 0.0
C2658 C 0.08251 0.34887 0.61028 0.0
C2659 C 0.07875 0.34271 0.64288 0.0
C2660 C 0.11474 0.35183 0.59694 0.0
C2661 C 0.09993 0.34784 0.5611 0.0
N2662 N 0.08969 0.34516 0.62757 0.0
N2663 N 0.08848 0.34879 0.57622 0.0
H2664 H 0.14806 0.38329 0.48239 0.0
H2665 H 0.2162 0.43185 0.40842 0.0
H2666 H 0.20803 0.38851 0.48945 0.0
H2667 H 0.15839 0.44769 0.41314 0.0
H2668 H 0.21209 0.41152 0.43514 0.0
H2669 H 0.15041 0.40312 0.45434 0.0
C2670 C 0.16167 0.38863 0.4781 0.0
C2671 C 0.17787 0.38429 0.48832 0.0
C2672 C 0.20032 0.4195 0.43031 0.0
C2673 C 0.18064 0.40655 0.45624 0.0
C2674 C 0.20263 0.43125 0.41496 0.0
C2675 C 0.18778 0.44207 0.40846 0.0
C2676 C 0.18296 0.4182 0.43925 0.0
C2677 C 0.1704 0.43992 0.41753 0.0
C2678 C 0.16299 0.39991 0.46214 0.0
C2679 C 0.19515 0.39154 0.48211 0.0
N2680 N 0.16849 0.42827 0.43249 0.0
N2681 N 0.19608 0.40218 0.46644 0.0
H2682 H 0.06881 0.70488 0.37662 0.0
H2683 H 0.12772 0.65149 0.45491 0.0
H2684 H 0.06413 0.64539 0.38468 0.0
H2685 H 0.12466 0.71135 0.45055 0.0
H2686 H 0.10534 0.64843 0.42878 0.0
H2687 H 0.09029 0.70703 0.40319 0.0
C2688 C 0.07238 0.69224 0.38395 0.0
C2689 C 0.06474 0.67492 0.37835 0.0
C2690 C 0.10956 0.66221 0.43361 0.0
C2691 C 0.08933 0.67726 0.40899 0.0
C2692 C 0.12235 0.66397 0.44849 0.0
C2693 C 0.12811 0.68171 0.45492 0.0
C2694 C 0.1026 0.6783 0.42508 0.0
C2695 C 0.12068 0.69739 0.44609 0.0
C2696 C 0.08457 0.69348 0.39922 0.0
C2697 C 0.0696 0.65903 0.38862 0.0
N2698 N 0.10839 0.6953 0.43164 0.0
N2699 N 0.08169 0.66056 0.4034 0.0
H2700 H 0.81158 0.61126 0.48445 0.0
H2701 H 0.85513 0.56298 0.39441 0.0
H2702 H 0.86499 0.62873 0.46167 0.0
H2703 H 0.79725 0.55716 0.41053 0.0
H2704 H 0.86052 0.58479 0.42048 0.0
H2705 H 0.80786 0.58863 0.45928 0.0
C2706 C 0.82262 0.61026 0.47424 0.0
C2707 C 0.83858 0.62203 0.47516 0.0
C2708 C 0.84664 0.57877 0.41823 0.0
C2709 C 0.83432 0.59606 0.44611 0.0
C2710 C 0.84357 0.5663 0.40341 0.0
C2711 C 0.82569 0.5583 0.40023 0.0
C2712 C 0.83176 0.58305 0.43009 0.0
C2713 C 0.81118 0.56318 0.41226 0.0
C2714 C 0.82043 0.59736 0.45979 0.0
C2715 C 0.85243 0.61998 0.4615 0.0
N2716 N 0.81456 0.57514 0.42667 0.0
N2717 N 0.84996 0.60727 0.44749 0.0
H2718 H 0.88659 0.36705 0.48443 0.0
H2719 H 0.94899 0.30391 0.42018 0.0
H2720 H 0.90543 0.31259 0.5006 0.0
H2721 H 0.94881 0.36352 0.41309 0.0
H2722 H 0.93158 0.30706 0.44917 0.0
H2723 H 0.90832 0.36671 0.45794 0.0
C2724 C 0.89544 0.35516 0.48258 0.0
C2725 C 0.89402 0.33973 0.49464 0.0
C2726 C 0.93543 0.31952 0.4414 0.0
C2727 C 0.9186 0.33919 0.46437 0.0
C2728 C 0.94525 0.31768 0.42481 0.0
C2729 C 0.9502 0.33346 0.41426 0.0
C2730 C 0.9302 0.33726 0.4474 0.0
C2731 C 0.94526 0.35105 0.42094 0.0
C2732 C 0.9078 0.35498 0.46747 0.0
C2733 C 0.90584 0.32471 0.49158 0.0
N2734 N 0.93529 0.35249 0.43703 0.0
N2735 N 0.91743 0.32474 0.47666 0.0
H2736 H 0.11124 0.66717 0.53857 0.0
H2737 H 0.04523 0.72259 0.60726 0.0
H2738 H 0.11105 0.72712 0.54303 0.0
H2739 H 0.04902 0.66267 0.60746 0.0
H2740 H 0.06544 0.72411 0.58007 0.0
H2741 H 0.08496 0.66505 0.56002 0.0
C2742 C 0.10544 0.67994 0.54374 0.0
C2743 C 0.11335 0.69741 0.53895 0.0
C2744 C 0.06176 0.71059 0.58591 0.0
C2745 C 0.08341 0.69499 0.56385 0.0
C2746 C 0.05019 0.7097 0.60145 0.0
C2747 C 0.04567 0.69248 0.60977 0.0
C2748 C 0.06901 0.69415 0.57865 0.0
C2749 C 0.05225 0.67623 0.60149 0.0
C2750 C 0.0905 0.67868 0.55614 0.0
C2751 C 0.10547 0.71341 0.54649 0.0
N2752 N 0.06382 0.67748 0.58648 0.0
N2753 N 0.091 0.71181 0.55864 0.0
H2754 H 0.02183 0.30607 0.42157 0.0
H2755 H 0.11677 0.35125 0.46361 0.0
H2756 H 0.04709 0.35661 0.39941 0.0
H2757 H 0.09328 0.2977 0.47967 0.0
H2758 H 0.09067 0.35495 0.44148 0.0
H2759 H 0.04699 0.30444 0.4445 0.0
C2760 C 0.03265 0.31691 0.42155 0.0
C2761 C 0.03235 0.33145 0.40842 0.0
C2762 C 0.09127 0.3424 0.44986 0.0
C2763 C 0.06148 0.3296 0.43482 0.0
C2764 C 0.10612 0.34031 0.46254 0.0
C2765 C 0.10729 0.32409 0.47349 0.0
C2766 C 0.07744 0.32823 0.44821 0.0
C2767 C 0.09317 0.3103 0.47137 0.0
C2768 C 0.04708 0.31594 0.43468 0.0
C2769 C 0.04675 0.34514 0.40925 0.0
N2770 N 0.07888 0.31271 0.45904 0.0
N2771 N 0.06079 0.34384 0.42219 0.0
H2772 H 0.20258 0.59067 0.47987 0.0
H2773 H 0.14544 0.53608 0.39987 0.0
H2774 H 0.15605 0.61378 0.4497 0.0
H2775 H 0.19529 0.51624 0.42687 0.0
H2776 H 0.14442 0.56141 0.42291 0.0
H2777 H 0.19607 0.56069 0.46488 0.0
C2778 C 0.19102 0.58945 0.47004 0.0
C2779 C 0.18005 0.60484 0.46579 0.0
C2780 C 0.1553 0.55123 0.42407 0.0
C2781 C 0.17233 0.57045 0.44868 0.0
C2782 C 0.15572 0.53666 0.41109 0.0
C2783 C 0.17056 0.52425 0.4115 0.0
C2784 C 0.1698 0.55322 0.43742 0.0
C2785 C 0.18372 0.52569 0.42607 0.0
C2786 C 0.18717 0.57227 0.46161 0.0
C2787 C 0.16488 0.60228 0.45335 0.0
N2788 N 0.18319 0.54008 0.4383 0.0
N2789 N 0.16159 0.58547 0.44506 0.0
H2790 H 0.89854 0.65236 0.44141 0.0
H2791 H 0.99016 0.69563 0.39224 0.0
H2792 H 0.91867 0.70916 0.44779 0.0
H2793 H 0.96575 0.64239 0.37595 0.0
H2794 H 0.96583 0.69881 0.41547 0.0
H2795 H 0.92458 0.64663 0.41999 0.0
C2796 C 0.90846 0.66358 0.43837 0.0
C2797 C 0.90633 0.68132 0.44627 0.0
C2798 C 0.96576 0.68638 0.40689 0.0
C2799 C 0.93609 0.67487 0.42194 0.0
C2800 C 0.97973 0.68452 0.3936 0.0
C2801 C 0.97996 0.66878 0.38197 0.0
C2802 C 0.95179 0.67241 0.40871 0.0
C2803 C 0.96609 0.65479 0.38458 0.0
C2804 C 0.92325 0.66033 0.42611 0.0
C2805 C 0.91953 0.69539 0.44179 0.0
N2806 N 0.95249 0.65698 0.39762 0.0
N2807 N 0.93379 0.69185 0.42999 0.0
H2808 H 0.80382 0.41793 0.4865 0.0
H2809 H 0.86287 0.4678 0.40562 0.0
H2810 H 0.85786 0.39932 0.46901 0.0
H2811 H 0.80753 0.48323 0.42245 0.0
H2812 H 0.86419 0.44636 0.43238 0.0
H2813 H 0.80755 0.44517 0.46646 0.0
C2814 C 0.81647 0.41958 0.47837 0.0
C2815 C 0.8304 0.40619 0.47913 0.0
C2816 C 0.85192 0.45472 0.4304 0.0
C2817 C 0.83488 0.43746 0.45616 0.0
C2818 C 0.85124 0.46705 0.41525 0.0
C2819 C 0.83497 0.47707 0.41179 0.0
C2820 C 0.83625 0.45256 0.44205 0.0
C2821 C 0.82023 0.47554 0.42453 0.0
C2822 C 0.81868 0.43522 0.46703 0.0
C2823 C 0.84677 0.40931 0.46874 0.0
N2824 N 0.82114 0.46335 0.43896 0.0
N2825 N 0.84847 0.42453 0.45747 0.0
H2826 H 0.89505 0.36299 0.57991 0.0
H2827 H 0.97855 0.31216 0.63279 0.0
H2828 H 0.90076 0.30332 0.58128 0.0
H2829 H 0.96535 0.36979 0.64217 0.0
H2830 H 0.95248 0.30953 0.61067 0.0
H2831 H 0.92294 0.36645 0.59975 0.0
C2832 C 0.90226 0.35062 0.58429 0.0
C2833 C 0.8956 0.33283 0.57893 0.0
C2834 C 0.95533 0.32277 0.6175 0.0
C2835 C 0.92748 0.33668 0.60168 0.0
C2836 C 0.97029 0.32433 0.63009 0.0
C2837 C 0.9741 0.3412 0.63946 0.0
C2838 C 0.94413 0.33822 0.61414 0.0
C2839 C 0.96289 0.35649 0.63532 0.0
C2840 C 0.91811 0.3526 0.5957 0.0
C2841 C 0.90531 0.31726 0.58525 0.0
N2842 N 0.94837 0.35461 0.623 0.0
N2843 N 0.9208 0.31955 0.59625 0.0
H2844 H 0.1497 0.47638 0.62401 0.0
H2845 H 0.21077 0.40072 0.57304 0.0
H2846 H 0.20675 0.48719 0.60684 0.0
H2847 H 0.15045 0.3984 0.57166 0.0
H2848 H 0.20979 0.43153 0.58769 0.0
H2849 H 0.14964 0.44701 0.60654 0.0
C2850 C 0.16213 0.47269 0.6164 0.0
C2851 C 0.17827 0.48425 0.61693 0.0
C2852 C 0.19676 0.42432 0.5841 0.0
C2853 C 0.17838 0.45057 0.59724 0.0
C2854 C 0.19734 0.40671 0.5759 0.0
C2855 C 0.18068 0.39706 0.57116 0.0
C2856 C 0.17939 0.43221 0.58787 0.0
C2857 C 0.1636 0.40549 0.57495 0.0
C2858 C 0.16208 0.45593 0.60646 0.0
C2859 C 0.19398 0.47875 0.60683 0.0
N2860 N 0.16338 0.42254 0.58323 0.0
N2861 N 0.19371 0.46221 0.59758 0.0
H2862 H 0.87002 0.62663 0.56138 0.0
H2863 H 0.81245 0.54547 0.61377 0.0
H2864 H 0.80975 0.62283 0.5621 0.0
H2865 H 0.86876 0.56178 0.63019 0.0
H2866 H 0.81258 0.57071 0.59084 0.0
H2867 H 0.8711 0.59991 0.5829 0.0
C2868 C 0.85704 0.62009 0.56599 0.0
C2869 C 0.83977 0.62698 0.56005 0.0
C2870 C 0.82493 0.56873 0.59942 0.0
C2871 C 0.84087 0.59644 0.58444 0.0
C2872 C 0.82491 0.55425 0.61246 0.0
C2873 C 0.8406 0.55151 0.624 0.0
C2874 C 0.84083 0.58047 0.59767 0.0
C2875 C 0.85633 0.56342 0.62166 0.0
C2876 C 0.85766 0.60495 0.57832 0.0
C2877 C 0.82334 0.61811 0.56653 0.0
N2878 N 0.85606 0.57736 0.60873 0.0
N2879 N 0.8243 0.60326 0.57829 0.0
H2880 H 0.5628 0.11205 0.68825 0.0
H2881 H 0.6232 0.04891 0.62244 0.0
H2882 H 0.56245 0.11909 0.62843 0.0
H2883 H 0.61273 0.03765 0.68068 0.0
H2884 H 0.59812 0.07176 0.6226 0.0
H2885 H 0.5785 0.08255 0.68458 0.0
C2886 C 0.56603 0.10726 0.67431 0.0
C2887 C 0.5616 0.11804 0.65864 0.0
C2888 C 0.60096 0.06388 0.63519 0.0
C2889 C 0.57979 0.08428 0.65419 0.0
C2890 C 0.61516 0.05072 0.63504 0.0
C2891 C 0.62009 0.04156 0.65164 0.0
C2892 C 0.59181 0.06779 0.65206 0.0
C2893 C 0.6094 0.04455 0.66763 0.0
C2894 C 0.57489 0.09036 0.67215 0.0
C2895 C 0.56574 0.11112 0.64082 0.0
N2896 N 0.59599 0.05758 0.66753 0.0
N2897 N 0.57493 0.09478 0.63906 0.0
H2898 H 0.39237 0.07552 0.64908 0.0
H2899 H 0.48922 0.11352 0.69299 0.0
H2900 H 0.4081 0.06959 0.70711 0.0
H2901 H 0.4674 0.13423 0.64065 0.0
H2902 H 0.46131 0.09369 0.69622 0.0
H2903 H 0.42132 0.09395 0.64383 0.0
C2904 C 0.40191 0.07812 0.66069 0.0
C2905 C 0.39778 0.07115 0.67858 0.0
C2906 C 0.46264 0.10252 0.68399 0.0
C2907 C 0.43085 0.09193 0.67268 0.0
C2908 C 0.47864 0.1138 0.68207 0.0
C2909 C 0.48064 0.12568 0.66658 0.0
C2910 C 0.44849 0.10297 0.67028 0.0
C2911 C 0.46643 0.12534 0.65286 0.0
C2912 C 0.41836 0.08864 0.65771 0.0
C2913 C 0.41055 0.07494 0.69318 0.0
N2914 N 0.4509 0.1142 0.65505 0.0
N2915 N 0.42652 0.08499 0.68988 0.0
H2916 H 0.45264 0.90627 0.66522 0.0
H2917 H 0.41081 0.00273 0.69897 0.0
H2918 H 0.46424 0.93268 0.71837 0.0
H2919 H 0.3914 0.9745 0.64901 0.0
H2920 H 0.43555 0.98021 0.70232 0.0
H2921 H 0.4345 0.93344 0.65577 0.0
C2922 C 0.45148 0.91784 0.67482 0.0
C2923 C 0.4597 0.91712 0.69272 0.0
C2924 C 0.42612 0.97903 0.69042 0.0
C2925 C 0.43923 0.94818 0.68199 0.0
C2926 C 0.4121 0.99198 0.68844 0.0
C2927 C 0.39908 0.99035 0.67376 0.0
C2928 C 0.42693 0.96405 0.67784 0.0
C2929 C 0.40129 0.97622 0.66047 0.0
C2930 C 0.44114 0.9333 0.66944 0.0
C2931 C 0.45779 0.93245 0.70463 0.0
N2932 N 0.41478 0.96333 0.66301 0.0
N2933 N 0.44773 0.94727 0.69908 0.0
H2934 H 0.54314 0.90731 0.66266 0.0
H2935 H 0.62968 0.95974 0.71342 0.0
H2936 H 0.55446 0.90507 0.72204 0.0
H2937 H 0.6128 0.97179 0.65661 0.0
H2938 H 0.60292 0.93824 0.71609 0.0
H2939 H 0.56927 0.92996 0.65936 0.0
C2940 C 0.55099 0.91168 0.67498 0.0
C2941 C 0.54665 0.90426 0.69262 0.0
C2942 C 0.60508 0.9456 0.70303 0.0
C2943 C 0.57654 0.92985 0.68896 0.0
C2944 C 0.62036 0.95794 0.70152 0.0
C2945 C 0.62361 0.96767 0.68479 0.0
C2946 C 0.59292 0.94285 0.68767 0.0
C2947 C 0.61113 0.96446 0.66972 0.0
C2948 C 0.56591 0.92454 0.6731 0.0
C2949 C 0.55732 0.91034 0.70813 0.0
N2950 N 0.59635 0.95233 0.67152 0.0
N2951 N 0.57179 0.92267 0.70592 0.0
H2952 H 0.56882 0.88391 0.36905 0.0
H2953 H 0.6199 0.97047 0.31805 0.0
H2954 H 0.56158 0.89707 0.31058 0.0
H2955 H 0.63352 0.953 0.37424 0.0
H2956 H 0.59699 0.94474 0.31579 0.0
H2957 H 0.59115 0.91023 0.37196 0.0
C2958 C 0.57188 0.89235 0.35685 0.0
C2959 C 0.56335 0.8882 0.33953 0.0
C2960 C 0.60498 0.94653 0.32863 0.0
C2961 C 0.5889 0.91833 0.34273 0.0
C2962 C 0.61805 0.96127 0.32994 0.0
C2963 C 0.62872 0.9639 0.34634 0.0
C2964 C 0.60245 0.93434 0.34384 0.0
C2965 C 0.62567 0.95149 0.36129 0.0
C2966 C 0.58469 0.90732 0.35849 0.0
C2967 C 0.56799 0.89952 0.32413 0.0
N2968 N 0.61283 0.93727 0.35968 0.0
N2969 N 0.58039 0.91406 0.32611 0.0
H2970 H 0.62829 0.05093 0.31781 0.0
H2971 H 0.54212 0.10146 0.36325 0.0
H2972 H 0.61609 0.04392 0.37636 0.0
H2973 H 0.5465 0.08869 0.30447 0.0
H2974 H 0.56905 0.08145 0.36949 0.0
H2975 H 0.5987 0.06655 0.31351 0.0
C2976 C 0.61933 0.05275 0.32978 0.0
C2977 C 0.62464 0.04626 0.34746 0.0
C2978 C 0.56387 0.08287 0.35529 0.0
C2979 C 0.59061 0.06416 0.34272 0.0
C2980 C 0.5485 0.09421 0.35174 0.0
C2981 C 0.5422 0.09689 0.33329 0.0
C2982 C 0.57295 0.07439 0.34025 0.0
C2983 C 0.55102 0.08727 0.31888 0.0
C2984 C 0.60235 0.06153 0.32732 0.0
C2985 C 0.61239 0.0487 0.36249 0.0
N2986 N 0.56601 0.07666 0.32265 0.0
N2987 N 0.59596 0.05768 0.35984 0.0
H2988 H 0.46105 0.06712 0.2977 0.0
H2989 H 0.38006 0.02605 0.36342 0.0
H2990 H 0.44426 0.09445 0.34837 0.0
H2991 H 0.4013 0.9978 0.31498 0.0
H2992 H 0.40409 0.0506 0.3593 0.0
H2993 H 0.43979 0.04114 0.30477 0.0
C2994 C 0.4528 0.06768 0.31031 0.0
C2995 C 0.45424 0.08308 0.32234 0.0
C2996 C 0.40356 0.03895 0.34968 0.0
C2997 C 0.42985 0.0532 0.33067 0.0
C2998 C 0.38986 0.02491 0.35202 0.0
C2999 C 0.38857 0.00989 0.33943 0.0
C3000 C 0.416 0.03797 0.33462 0.0
C3001 C 0.40165 0.00916 0.32495 0.0
C3002 C 0.44074 0.05275 0.31443 0.0
C3003 C 0.44356 0.08282 0.33874 0.0
N3004 N 0.41472 0.02303 0.32289 0.0
N3005 N 0.43166 0.06816 0.34236 0.0
H3006 H 0.47064 0.88288 0.38193 0.0
H3007 H 0.39158 0.92626 0.31978 0.0
H3008 H 0.47825 0.89805 0.32402 0.0
H3009 H 0.3926 0.93568 0.37932 0.0
H3010 H 0.42309 0.91405 0.32182 0.0
H3011 H 0.44242 0.90179 0.38263 0.0
C3012 C 0.46673 0.89066 0.36958 0.0
C3013 C 0.47658 0.88873 0.35281 0.0
C3014 C 0.4165 0.91886 0.33447 0.0
C3015 C 0.44432 0.90979 0.35337 0.0
C3016 C 0.39845 0.92558 0.33331 0.0
C3017 C 0.38952 0.93178 0.34942 0.0
C3018 C 0.42561 0.91801 0.35193 0.0
C3019 C 0.39912 0.93098 0.36661 0.0
C3020 C 0.45057 0.9013 0.36994 0.0
C3021 C 0.47086 0.89895 0.33715 0.0
N3022 N 0.41665 0.924 0.36748 0.0
N3023 N 0.45493 0.90875 0.33771 0.0
H3024 H 0.65041 0.07344 0.61053 0.0
H3025 H 0.66392 0.11667 0.50852 0.0
H3026 H 0.69583 0.0586 0.57457 0.0
H3027 H 0.64253 0.14764 0.555 0.0
H3028 H 0.66721 0.08944 0.52913 0.0
H3029 H 0.63951 0.09517 0.58665 0.0
C3030 C 0.65793 0.07461 0.59748 0.0
C3031 C 0.6741 0.06436 0.59448 0.0
C3032 C 0.66134 0.10206 0.53463 0.0
C3033 C 0.66162 0.08893 0.56715 0.0
C3034 C 0.65923 0.11744 0.52288 0.0
C3035 C 0.65288 0.13422 0.53021 0.0
C3036 C 0.65673 0.10356 0.55362 0.0
C3037 C 0.64742 0.13483 0.54894 0.0
C3038 C 0.65174 0.08699 0.58392 0.0
C3039 C 0.68346 0.06648 0.57743 0.0
N3040 N 0.64954 0.11971 0.56008 0.0
N3041 N 0.67708 0.07858 0.56434 0.0
H3042 H 0.45779 0.22008 0.59808 0.0
H3043 H 0.38749 0.15281 0.54017 0.0
H3044 H 0.44926 0.16187 0.61138 0.0
H3045 H 0.40598 0.20734 0.52132 0.0
H3046 H 0.4082 0.15626 0.56753 0.0
H3047 H 0.43648 0.21628 0.57141 0.0
C3048 C 0.45128 0.20653 0.59552 0.0
C3049 C 0.45535 0.19126 0.60699 0.0
C3050 C 0.40775 0.16742 0.55735 0.0
C3051 C 0.43104 0.18673 0.57628 0.0
C3052 C 0.39595 0.16546 0.54171 0.0
C3053 C 0.395 0.1798 0.52838 0.0
C3054 C 0.41854 0.1839 0.55975 0.0
C3055 C 0.40625 0.19589 0.53117 0.0
C3056 C 0.43924 0.20432 0.58017 0.0
C3057 C 0.44668 0.17396 0.60278 0.0
N3058 N 0.41746 0.19753 0.54655 0.0
N3059 N 0.43493 0.17216 0.58778 0.0
H3060 H 0.31463 0.87716 0.56417 0.0
H3061 H 0.36669 0.95832 0.62249 0.0
H3062 H 0.37414 0.88787 0.55996 0.0
H3063 H 0.3071 0.94723 0.6219 0.0
H3064 H 0.37027 0.9341 0.59853 0.0
H3065 H 0.31213 0.90409 0.58427 0.0
C3066 C 0.32723 0.88524 0.56748 0.0
C3067 C 0.34466 0.88017 0.56051 0.0
C3068 C 0.35642 0.93709 0.6036 0.0
C3069 C 0.3419 0.91125 0.58378 0.0
C3070 C 0.35436 0.95094 0.61719 0.0
C3071 C 0.33657 0.95463 0.62435 0.0
C3072 C 0.34056 0.92698 0.59715 0.0
C3073 C 0.3211 0.94459 0.6171 0.0
C3074 C 0.32578 0.90071 0.57897 0.0
C3075 C 0.36045 0.89133 0.56509 0.0
N3076 N 0.32347 0.93123 0.60401 0.0
N3077 N 0.35873 0.90632 0.57663 0.0
H3078 H 0.63089 0.80368 0.58303 0.0
H3079 H 0.54637 0.85567 0.62966 0.0
H3080 H 0.60866 0.85352 0.55839 0.0
H3081 H 0.58338 0.8192 0.65968 0.0
H3082 H 0.5666 0.85378 0.60245 0.0
H3083 H 0.61081 0.80751 0.60976 0.0
C3084 C 0.62171 0.81546 0.58317 0.0
C3085 C 0.62148 0.82832 0.56835 0.0
C3086 C 0.57026 0.84629 0.61507 0.0
C3087 C 0.59826 0.83276 0.59928 0.0
C3088 C 0.55874 0.84737 0.63073 0.0
C3089 C 0.56301 0.83754 0.64725 0.0
C3090 C 0.58605 0.83512 0.61576 0.0
C3091 C 0.5792 0.82682 0.64737 0.0
C3092 C 0.61028 0.81767 0.59857 0.0
C3093 C 0.60927 0.8433 0.5695 0.0
N3094 N 0.59001 0.82585 0.63189 0.0
N3095 N 0.59803 0.84509 0.58472 0.0
H3096 H 0.70584 0.87633 0.49064 0.0
H3097 H 0.65688 0.94694 0.42255 0.0
H3098 H 0.64548 0.87604 0.48691 0.0
H3099 H 0.70985 0.92177 0.41092 0.0
H3100 H 0.65199 0.92445 0.44801 0.0
H3101 H 0.70749 0.89733 0.46414 0.0
C3102 C 0.69286 0.88077 0.48434 0.0
C3103 C 0.67546 0.87434 0.49106 0.0
C3104 C 0.66459 0.92387 0.43972 0.0
C3105 C 0.67736 0.8986 0.46045 0.0
C3106 C 0.66742 0.93667 0.42513 0.0
C3107 C 0.68404 0.9366 0.41465 0.0
C3108 C 0.67857 0.91114 0.444 0.0
C3109 C 0.69711 0.92287 0.41884 0.0
C3110 C 0.69385 0.8927 0.46907 0.0
C3111 C 0.65918 0.88064 0.48216 0.0
N3112 N 0.6942 0.91092 0.43327 0.0
N3113 N 0.6605 0.89256 0.4673 0.0
H3114 H 0.61591 0.21349 0.44502 0.0
H3115 H 0.56101 0.13954 0.37979 0.0
H3116 H 0.62464 0.15426 0.44848 0.0
H3117 H 0.56235 0.19887 0.37006 0.0
H3118 H 0.58218 0.14431 0.40664 0.0
H3119 H 0.59414 0.20804 0.41911 0.0
C3120 C 0.61324 0.19931 0.44035 0.0
C3121 C 0.62216 0.18431 0.44892 0.0
C3122 C 0.57784 0.15626 0.3986 0.0
C3123 C 0.59714 0.17796 0.41918 0.0
C3124 C 0.56567 0.15356 0.38337 0.0
C3125 C 0.55997 0.16884 0.37265 0.0
C3126 C 0.58416 0.17439 0.40322 0.0
C3127 C 0.5666 0.18669 0.37777 0.0
C3128 C 0.60082 0.19621 0.4255 0.0
C3129 C 0.61811 0.16624 0.44224 0.0
N3130 N 0.57828 0.18897 0.39269 0.0
N3131 N 0.60586 0.16356 0.42776 0.0
H3132 H 0.31673 0.10223 0.47931 0.0
H3133 H 0.35826 0.04688 0.39269 0.0
H3134 H 0.37133 0.11497 0.45682 0.0
H3135 H 0.30107 0.04249 0.41135 0.0
H3136 H 0.36543 0.06833 0.41864 0.0
H3137 H 0.3135 0.07583 0.45805 0.0
C3138 C 0.32825 0.0991 0.47015 0.0
C3139 C 0.34429 0.11069 0.46971 0.0
C3140 C 0.35134 0.06262 0.41705 0.0
C3141 C 0.34045 0.08096 0.44481 0.0
C3142 C 0.34723 0.05041 0.40227 0.0
C3143 C 0.32899 0.04301 0.39979 0.0
C3144 C 0.33713 0.06731 0.42951 0.0
C3145 C 0.31521 0.0481 0.41252 0.0
C3146 C 0.32634 0.08416 0.45788 0.0
C3147 C 0.35882 0.10618 0.45761 0.0
N3148 N 0.31958 0.0599 0.42681 0.0
N3149 N 0.35643 0.09177 0.44534 0.0
H3150 H 0.41551 0.80255 0.49753 0.0
H3151 H 0.45406 0.85887 0.40909 0.0
H3152 H 0.39371 0.85631 0.48302 0.0
H3153 H 0.45147 0.79895 0.41292 0.0
H3154 H 0.43757 0.86068 0.43924 0.0
H3155 H 0.43516 0.8039 0.46992 0.0
C3156 C 0.41498 0.81477 0.48866 0.0
C3157 C 0.40272 0.82924 0.49251 0.0
C3158 C 0.44069 0.84718 0.43343 0.0
C3159 C 0.42532 0.83081 0.46076 0.0
C3160 C 0.45011 0.84615 0.41637 0.0
C3161 C 0.45395 0.82873 0.40856 0.0
C3162 C 0.43557 0.83067 0.44285 0.0
C3163 C 0.44853 0.81262 0.41839 0.0
C3164 C 0.42618 0.81547 0.47285 0.0
C3165 C 0.40287 0.84479 0.48053 0.0
N3166 N 0.43971 0.81398 0.43504 0.0
N3167 N 0.41393 0.84514 0.46507 0.0
H3168 H 0.60671 0.16481 0.5309 0.0
H3169 H 0.53319 0.21276 0.59755 0.0
H3170 H 0.6014 0.22423 0.5371 0.0
H3171 H 0.54359 0.15383 0.59853 0.0
H3172 H 0.55336 0.21621 0.57043 0.0
H3173 H 0.57952 0.15986 0.55087 0.0
C3174 C 0.59961 0.17685 0.53615 0.0
C3175 C 0.60635 0.19502 0.53233 0.0
C3176 C 0.55108 0.20246 0.57637 0.0
C3177 C 0.57532 0.18937 0.55542 0.0
C3178 C 0.53952 0.20046 0.59182 0.0
C3179 C 0.53697 0.18302 0.60039 0.0
C3180 C 0.56038 0.18693 0.56953 0.0
C3181 C 0.54526 0.16751 0.5923 0.0
C3182 C 0.58414 0.17398 0.54767 0.0
C3183 C 0.59678 0.21003 0.53986 0.0
N3184 N 0.5569 0.16988 0.57743 0.0
N3185 N 0.58181 0.20687 0.55112 0.0
H3186 H 0.54973 0.85014 0.39764 0.0
H3187 H 0.58969 0.78828 0.48155 0.0
H3188 H 0.52379 0.79892 0.41741 0.0
H3189 H 0.6153 0.84073 0.46497 0.0
H3190 H 0.5652 0.79257 0.45822 0.0
H3191 H 0.57347 0.84776 0.42246 0.0
C3192 C 0.54895 0.83848 0.40725 0.0
C3193 C 0.53479 0.82466 0.40537 0.0
C3194 C 0.57613 0.8032 0.45966 0.0
C3195 C 0.56191 0.82182 0.43369 0.0
C3196 C 0.59023 0.80068 0.47293 0.0
C3197 C 0.60468 0.81409 0.47516 0.0
C3198 C 0.57644 0.81923 0.44838 0.0
C3199 C 0.60437 0.83009 0.46382 0.0
C3200 C 0.56252 0.83711 0.42139 0.0
C3201 C 0.53448 0.80986 0.41821 0.0
N3202 N 0.59053 0.83218 0.45084 0.0
N3203 N 0.54785 0.80881 0.43173 0.0
H3204 H 0.655 0.1189 0.44156 0.0
H3205 H 0.69105 0.0149 0.43752 0.0
H3206 H 0.70198 0.09868 0.47319 0.0
H3207 H 0.6468 0.03502 0.40212 0.0
H3208 H 0.6903 0.04366 0.45562 0.0
H3209 H 0.64801 0.0871 0.43082 0.0
C3210 C 0.66381 0.10775 0.44628 0.0
C3211 C 0.67924 0.11148 0.45811 0.0
C3212 C 0.68044 0.04168 0.44416 0.0
C3213 C 0.67124 0.07507 0.44601 0.0
C3214 C 0.68071 0.02516 0.43399 0.0
C3215 C 0.66908 0.02272 0.41827 0.0
C3216 C 0.66866 0.05597 0.43836 0.0
C3217 C 0.65598 0.03639 0.4142 0.0
C3218 C 0.65978 0.08961 0.44019 0.0
C3219 C 0.69022 0.09653 0.46376 0.0
N3220 N 0.6564 0.05268 0.42394 0.0
N3221 N 0.68604 0.07901 0.45761 0.0
H3222 H 0.48391 0.18705 0.38529 0.0
H3223 H 0.39711 0.14048 0.43972 0.0
H3224 H 0.4636 0.13114 0.37324 0.0
H3225 H 0.40993 0.19946 0.43811 0.0
H3226 H 0.42386 0.13516 0.41905 0.0
H3227 H 0.45955 0.19001 0.40855 0.0
C3228 C 0.47439 0.1753 0.38759 0.0
C3229 C 0.47575 0.15886 0.37711 0.0
C3230 C 0.42081 0.14924 0.42329 0.0
C3231 C 0.4476 0.16225 0.40392 0.0
C3232 C 0.40565 0.15226 0.43516 0.0
C3233 C 0.40124 0.17045 0.44053 0.0
C3234 C 0.43176 0.16451 0.41703 0.0
C3235 C 0.41266 0.18525 0.4341 0.0
C3236 C 0.46041 0.17705 0.40089 0.0
C3237 C 0.46303 0.1441 0.38093 0.0
N3238 N 0.42735 0.18195 0.42275 0.0
N3239 N 0.44941 0.14617 0.39398 0.0
H3240 H 0.36377 0.88517 0.46917 0.0
H3241 H 0.30693 0.9665 0.42058 0.0
H3242 H 0.30645 0.89787 0.48136 0.0
H3243 H 0.36328 0.9531 0.40522 0.0
H3244 H 0.30876 0.94485 0.44673 0.0
H3245 H 0.3658 0.91275 0.44906 0.0
C3246 C 0.35167 0.89385 0.46774 0.0
C3247 C 0.33483 0.8891 0.47678 0.0
C3248 C 0.32086 0.94678 0.43783 0.0
C3249 C 0.33705 0.92061 0.45383 0.0
C3250 C 0.31983 0.95921 0.42295 0.0
C3251 C 0.33489 0.96138 0.41065 0.0
C3252 C 0.33697 0.93623 0.44029 0.0
C3253 C 0.35135 0.95177 0.41441 0.0
C3254 C 0.35283 0.90956 0.45625 0.0
C3255 C 0.31955 0.90076 0.47435 0.0
N3256 N 0.35185 0.93932 0.42876 0.0
N3257 N 0.32101 0.91591 0.46306 0.0
H3258 H 0.40214 0.85461 0.57888 0.0
H3259 H 0.48898 0.81283 0.63462 0.0
H3260 H 0.4149 0.7962 0.58044 0.0
H3261 H 0.469 0.86823 0.64459 0.0
H3262 H 0.4647 0.80815 0.61093 0.0
H3263 H 0.42907 0.86123 0.59945 0.0
C3264 C 0.41071 0.8432 0.58343 0.0
C3265 C 0.40628 0.8248 0.57798 0.0
C3266 C 0.46566 0.82138 0.61821 0.0
C3267 C 0.43703 0.83228 0.60148 0.0
C3268 C 0.47958 0.82411 0.63173 0.0
C3269 C 0.48092 0.84089 0.64178 0.0
C3270 C 0.45295 0.83553 0.6146 0.0
C3271 C 0.46843 0.85504 0.63724 0.0
C3272 C 0.426 0.84699 0.59524 0.0
C3273 C 0.41769 0.81053 0.58448 0.0
N3274 N 0.45486 0.852 0.62404 0.0
N3275 N 0.43255 0.81458 0.59585 0.0
H3276 H 0.7142 0.88417 0.57557 0.0
H3277 H 0.65554 0.96587 0.62154 0.0
H3278 H 0.65389 0.88487 0.57396 0.0
H3279 H 0.71481 0.97013 0.61052 0.0
H3280 H 0.65454 0.93518 0.60639 0.0
H3281 H 0.71467 0.91457 0.59105 0.0
C3282 C 0.70106 0.89067 0.57859 0.0
C3283 C 0.684 0.88199 0.57341 0.0
C3284 C 0.66773 0.94289 0.60726 0.0
C3285 C 0.68438 0.91686 0.59107 0.0
C3286 C 0.66831 0.96041 0.61591 0.0
C3287 C 0.68527 0.97064 0.61729 0.0
C3288 C 0.68426 0.93549 0.60013 0.0
C3289 C 0.7014 0.96282 0.60976 0.0
C3290 C 0.70132 0.90808 0.5873 0.0
C3291 C 0.66736 0.89117 0.57748 0.0
N3292 N 0.7005 0.94573 0.6016 0.0
N3293 N 0.66796 0.90807 0.58611 0.0
H3294 H 0.30052 0.10448 0.54541 0.0
H3295 H 0.35994 0.05542 0.626 0.0
H3296 H 0.35727 0.12156 0.55915 0.0
H3297 H 0.30838 0.03232 0.60297 0.0
H3298 H 0.35897 0.08047 0.60274 0.0
H3299 H 0.30268 0.07898 0.56781 0.0
C3300 C 0.31341 0.10296 0.55325 0.0
C3301 C 0.3287 0.11527 0.55046 0.0
C3302 C 0.34794 0.06985 0.60273 0.0
C3303 C 0.33135 0.08587 0.57612 0.0
C3304 C 0.34847 0.05554 0.61601 0.0
C3305 C 0.33419 0.04172 0.61649 0.0
C3306 C 0.33293 0.07048 0.58995 0.0
C3307 C 0.3197 0.04262 0.60317 0.0
C3308 C 0.31469 0.08827 0.56595 0.0
C3309 C 0.34518 0.11234 0.56079 0.0
N3310 N 0.31939 0.05679 0.59055 0.0
N3311 N 0.34605 0.098 0.57324 0.0
H3312 H 0.57389 0.62624 0.18899 0.0
H3313 H 0.62472 0.55305 0.12655 0.0
H3314 H 0.56438 0.62574 0.12941 0.0
H3315 H 0.61089 0.54382 0.18449 0.0
H3316 H 0.60282 0.57907 0.12575 0.0
H3317 H 0.5887 0.59612 0.1867 0.0
C3318 C 0.57501 0.61973 0.1754 0.0
C3319 C 0.56811 0.62847 0.15936 0.0
C3320 C 0.60426 0.571 0.13846 0.0
C3321 C 0.58504 0.59391 0.15652 0.0
C3322 C 0.61662 0.55609 0.13888 0.0
C3323 C 0.61971 0.54646 0.15568 0.0
C3324 C 0.59522 0.57622 0.155 0.0
C3325 C 0.60908 0.55107 0.17132 0.0
C3326 C 0.58329 0.60245 0.17408 0.0
C3327 C 0.56959 0.61934 0.14207 0.0
N3328 N 0.59756 0.56577 0.17069 0.0
N3329 N 0.57817 0.6026 0.14103 0.0
H3330 H 0.42925 0.56076 0.21886 0.0
H3331 H 0.47312 0.63506 0.14755 0.0
H3332 H 0.40779 0.5672 0.16272 0.0
H3333 H 0.50073 0.61716 0.19818 0.0
H3334 H 0.44845 0.61133 0.15278 0.0
H3335 H 0.45463 0.58283 0.21177 0.0
C3336 C 0.42981 0.56694 0.20506 0.0
C3337 C 0.4163 0.56225 0.1914 0.0
C3338 C 0.46 0.61253 0.16264 0.0
C3339 C 0.44553 0.58749 0.18307 0.0
C3340 C 0.47409 0.62606 0.15967 0.0
C3341 C 0.489 0.62817 0.1725 0.0
C3342 C 0.46074 0.60119 0.17863 0.0
C3343 C 0.48951 0.61612 0.18794 0.0
C3344 C 0.44442 0.57943 0.20095 0.0
C3345 C 0.41797 0.57041 0.17361 0.0
N3346 N 0.47554 0.60327 0.19064 0.0
N3347 N 0.43227 0.58275 0.16997 0.0
H3348 H 0.46448 0.3909 0.1563 0.0
H3349 H 0.43532 0.48536 0.20656 0.0
H3350 H 0.48102 0.40767 0.21206 0.0
H3351 H 0.40848 0.46555 0.15587 0.0
H3352 H 0.45727 0.46002 0.20473 0.0
H3353 H 0.44816 0.42051 0.15256 0.0
C3354 C 0.46475 0.40085 0.16769 0.0
C3355 C 0.47387 0.39673 0.18462 0.0
C3356 C 0.44679 0.46131 0.19381 0.0
C3357 C 0.45555 0.43056 0.18038 0.0
C3358 C 0.43435 0.47588 0.19477 0.0
C3359 C 0.42003 0.47745 0.18142 0.0
C3360 C 0.44476 0.44797 0.17953 0.0
C3361 C 0.4194 0.46483 0.16641 0.0
C3362 C 0.45545 0.41769 0.16555 0.0
C3363 C 0.47383 0.41007 0.19894 0.0
N3364 N 0.43142 0.45037 0.16602 0.0
N3365 N 0.46481 0.42631 0.19649 0.0
H3366 H 0.62553 0.45488 0.14574 0.0
H3367 H 0.55165 0.39448 0.2045 0.0
H3368 H 0.61168 0.4652 0.20342 0.0
H3369 H 0.55811 0.38736 0.145 0.0
H3370 H 0.57288 0.42138 0.20355 0.0
H3371 H 0.60043 0.431 0.14431 0.0
C3372 C 0.61715 0.45223 0.15806 0.0
C3373 C 0.62087 0.46194 0.17481 0.0
C3374 C 0.56961 0.4141 0.19062 0.0
C3375 C 0.59226 0.43464 0.17327 0.0
C3376 C 0.55748 0.39871 0.19117 0.0
C3377 C 0.55327 0.38864 0.17483 0.0
C3378 C 0.57788 0.41941 0.17362 0.0
C3379 C 0.56103 0.39482 0.1579 0.0
C3380 C 0.60286 0.43859 0.15723 0.0
C3381 C 0.60966 0.45783 0.19035 0.0
N3382 N 0.57321 0.40974 0.15775 0.0
N3383 N 0.59595 0.44448 0.18921 0.0
H3384 H 0.54496 0.41298 0.79558 0.0
H3385 H 0.62168 0.47014 0.85591 0.0
H3386 H 0.56178 0.39688 0.85128 0.0
H3387 H 0.59927 0.48918 0.80318 0.0
H3388 H 0.60052 0.44289 0.85431 0.0
H3389 H 0.5657 0.44034 0.79779 0.0
C3390 C 0.55314 0.41509 0.80823 0.0
C3391 C 0.55167 0.4025 0.82324 0.0
C3392 C 0.60019 0.45306 0.84313 0.0
C3393 C 0.57538 0.43409 0.82596 0.0
C3394 C 0.61227 0.46865 0.84402 0.0
C3395 C 0.61229 0.48199 0.82962 0.0
C3396 C 0.58808 0.45072 0.82769 0.0
C3397 C 0.59976 0.47928 0.81459 0.0
C3398 C 0.56488 0.43084 0.80955 0.0
C3399 C 0.56236 0.40626 0.83943 0.0
N3400 N 0.58824 0.46394 0.81399 0.0
N3401 N 0.57381 0.42168 0.84035 0.0
H3402 H 0.60286 0.57068 0.80633 0.0
H3403 H 0.53139 0.62268 0.87205 0.0
H3404 H 0.60456 0.56385 0.86621 0.0
H3405 H 0.52444 0.61542 0.81247 0.0
H3406 H 0.55744 0.60073 0.8714 0.0
H3407 H 0.57378 0.58732 0.80913 0.0
C3408 C 0.59706 0.57275 0.8201 0.0
C3409 C 0.60616 0.56604 0.83605 0.0
C3410 C 0.54997 0.60377 0.85856 0.0
C3411 C 0.57272 0.58513 0.8395 0.0
C3412 C 0.53508 0.61617 0.85896 0.0
C3413 C 0.52594 0.62099 0.84225 0.0
C3414 C 0.55562 0.59631 0.84135 0.0
C3415 C 0.5313 0.61232 0.82563 0.0
C3416 C 0.58037 0.58213 0.82172 0.0
C3417 C 0.59788 0.5688 0.85358 0.0
N3418 N 0.54584 0.60059 0.82559 0.0
N3419 N 0.58168 0.57835 0.85488 0.0
H3420 H 0.43207 0.61315 0.8604 0.0
H3421 H 0.39373 0.51723 0.81535 0.0
H3422 H 0.44687 0.5937 0.80549 0.0
H3423 H 0.37365 0.53927 0.86748 0.0
H3424 H 0.4155 0.54386 0.81297 0.0
H3425 H 0.4127 0.58485 0.8647 0.0
C3426 C 0.43132 0.60289 0.8493 0.0
C3427 C 0.44096 0.60587 0.8325 0.0
C3428 C 0.40637 0.54284 0.82497 0.0
C3429 C 0.41885 0.57354 0.83727 0.0
C3430 C 0.39396 0.52761 0.82635 0.0
C3431 C 0.38175 0.52607 0.84157 0.0
C3432 C 0.40662 0.55664 0.83891 0.0
C3433 C 0.38274 0.53993 0.85544 0.0
C3434 C 0.42021 0.58679 0.85172 0.0
C3435 C 0.43941 0.59217 0.81852 0.0
N3436 N 0.3949 0.55467 0.85374 0.0
N3437 N 0.42856 0.57664 0.82122 0.0
H3438 H 0.40303 0.47148 0.84937 0.0
H3439 H 0.46511 0.38513 0.87835 0.0
H3440 H 0.37998 0.41988 0.87109 0.0
H3441 H 0.4778 0.42072 0.83133 0.0
H3442 H 0.43822 0.40438 0.88552 0.0
H3443 H 0.43455 0.45883 0.85207 0.0
C3444 C 0.40469 0.4576 0.85498 0.0
C3445 C 0.389 0.44655 0.85979 0.0
C3446 C 0.44725 0.40824 0.87397 0.0
C3447 C 0.42475 0.43225 0.86323 0.0
C3448 C 0.46266 0.39739 0.86999 0.0
C3449 C 0.47344 0.40126 0.8541 0.0
C3450 C 0.44297 0.4232 0.86217 0.0
C3451 C 0.46964 0.41724 0.8436 0.0
C3452 C 0.42258 0.45043 0.85651 0.0
C3453 C 0.39177 0.42864 0.86694 0.0
N3454 N 0.45456 0.42756 0.8477 0.0
N3455 N 0.40935 0.42199 0.86841 0.0
H3456 H 0.66187 0.55259 0.08611 0.0
H3457 H 0.66326 0.66074 0.05937 0.0
H3458 H 0.68671 0.59695 0.11932 0.0
H3459 H 0.65416 0.61806 0.01766 0.0
H3460 H 0.66384 0.63689 0.08356 0.0
H3461 H 0.65241 0.57578 0.06261 0.0
C3462 C 0.66525 0.5672 0.08845 0.0
C3463 C 0.6753 0.5729 0.1045 0.0
C3464 C 0.66147 0.63266 0.06917 0.0
C3465 C 0.66431 0.59929 0.07811 0.0
C3466 C 0.66102 0.64628 0.0554 0.0
C3467 C 0.65887 0.64124 0.03659 0.0
C3468 C 0.66007 0.6138 0.06409 0.0
C3469 C 0.65585 0.62239 0.0321 0.0
C3470 C 0.65988 0.58036 0.0751 0.0
C3471 C 0.67934 0.59193 0.10697 0.0
N3472 N 0.65687 0.6092 0.04579 0.0
N3473 N 0.67383 0.60441 0.09394 0.0
H3474 H 0.44869 0.66009 0.12088 0.0
H3475 H 0.39348 0.70298 0.03386 0.0
H3476 H 0.45033 0.71841 0.10623 0.0
H3477 H 0.38126 0.64776 0.05526 0.0
H3478 H 0.41665 0.70767 0.05866 0.0
H3479 H 0.42585 0.65429 0.09564 0.0
C3480 C 0.44422 0.67166 0.11238 0.0
C3481 C 0.45142 0.68977 0.11568 0.0
C3482 C 0.40895 0.6945 0.05793 0.0
C3483 C 0.42542 0.68323 0.08676 0.0
C3484 C 0.39575 0.69175 0.04369 0.0
C3485 C 0.38532 0.67496 0.04248 0.0
C3486 C 0.4119 0.68033 0.07109 0.0
C3487 C 0.38896 0.66094 0.05565 0.0
C3488 C 0.43116 0.66836 0.09802 0.0
C3489 C 0.44501 0.70429 0.10436 0.0
N3490 N 0.40194 0.66395 0.06944 0.0
N3491 N 0.43248 0.70069 0.09035 0.0
H3492 H 0.3243 0.43695 0.14023 0.0
H3493 H 0.38084 0.38927 0.05756 0.0
H3494 H 0.38213 0.45137 0.1294 0.0
H3495 H 0.32165 0.38167 0.06762 0.0
H3496 H 0.38231 0.41272 0.08279 0.0
H3497 H 0.32367 0.417 0.11282 0.0
C3498 C 0.33692 0.43583 0.13207 0.0
C3499 C 0.35333 0.44565 0.13718 0.0
C3500 C 0.36902 0.40596 0.07931 0.0
C3501 C 0.35278 0.4228 0.10553 0.0
C3502 C 0.36818 0.39265 0.06493 0.0
C3503 C 0.35114 0.38339 0.06064 0.0
C3504 C 0.3527 0.40993 0.0893 0.0
C3505 C 0.33515 0.38824 0.07058 0.0
C3506 C 0.33655 0.42452 0.11631 0.0
C3507 C 0.36919 0.44402 0.12585 0.0
N3508 N 0.33636 0.40105 0.08443 0.0
N3509 N 0.36858 0.43265 0.11058 0.0
H3510 H 0.5736 0.29442 0.11543 0.0
H3511 H 0.62931 0.36095 0.04448 0.0
H3512 H 0.57304 0.35433 0.11959 0.0
H3513 H 0.61297 0.30406 0.03148 0.0
H3514 H 0.6111 0.35867 0.07336 0.0
H3515 H 0.5909 0.29739 0.0861 0.0
C3516 C 0.57723 0.30819 0.11021 0.0
C3517 C 0.57187 0.32414 0.11993 0.0
C3518 C 0.61143 0.34675 0.06409 0.0
C3519 C 0.59162 0.32769 0.08639 0.0
C3520 C 0.62181 0.34804 0.04761 0.0
C3521 C 0.62267 0.33268 0.0355 0.0
C3522 C 0.60209 0.32991 0.06863 0.0
C3523 C 0.61268 0.31629 0.04032 0.0
C3524 C 0.58696 0.30989 0.09341 0.0
C3525 C 0.57674 0.34168 0.11242 0.0
N3526 N 0.60295 0.31529 0.05656 0.0
N3527 N 0.58643 0.343 0.09615 0.0
H3528 H 0.69688 0.40875 0.97771 0.0
H3529 H 0.64512 0.45341 0.88946 0.0
H3530 H 0.64155 0.39067 0.96007 0.0
H3531 H 0.70281 0.46402 0.9051 0.0
H3532 H 0.64134 0.43367 0.91736 0.0
H3533 H 0.6966 0.43319 0.95412 0.0
C3534 C 0.68448 0.41024 0.96905 0.0
C3535 C 0.66926 0.39772 0.97072 0.0
C3536 C 0.65479 0.44038 0.91466 0.0
C3537 C 0.66902 0.42529 0.94319 0.0
C3538 C 0.65695 0.45162 0.89877 0.0
C3539 C 0.67437 0.46019 0.89484 0.0
C3540 C 0.67012 0.43789 0.92675 0.0
C3541 C 0.68926 0.45739 0.90733 0.0
C3542 C 0.68437 0.42409 0.95548 0.0
C3543 C 0.65351 0.40019 0.95924 0.0
N3544 N 0.68678 0.44651 0.92266 0.0
N3545 N 0.6539 0.41357 0.94567 0.0
H3546 H 0.62091 0.66235 0.95408 0.0
H3547 H 0.54422 0.71828 0.89588 0.0
H3548 H 0.61064 0.72103 0.96051 0.0
H3549 H 0.54958 0.65872 0.89158 0.0
H3550 H 0.56874 0.71911 0.91971 0.0
H3551 H 0.59506 0.66022 0.93127 0.0
C3552 C 0.61323 0.67476 0.95074 0.0
C3553 C 0.618 0.69191 0.9592 0.0
C3554 C 0.56457 0.70581 0.91364 0.0
C3555 C 0.5885 0.68957 0.93317 0.0
C3556 C 0.5506 0.70536 0.89994 0.0
C3557 C 0.54493 0.68844 0.89163 0.0
C3558 C 0.57309 0.68921 0.91909 0.0
C3559 C 0.55346 0.67205 0.89772 0.0
C3560 C 0.59847 0.67352 0.93774 0.0
C3561 C 0.60755 0.70752 0.95435 0.0
N3562 N 0.56723 0.67285 0.91102 0.0
N3563 N 0.59338 0.70597 0.94167 0.0
H3564 H 0.34787 0.56072 0.89581 0.0
H3565 H 0.30362 0.59606 0.99144 0.0
H3566 H 0.29104 0.54927 0.91308 0.0
H3567 H 0.3576 0.61572 0.97212 0.0
H3568 H 0.30102 0.5754 0.96453 0.0
H3569 H 0.3533 0.5787 0.92461 0.0
C3570 C 0.33651 0.56211 0.90561 0.0
C3571 C 0.31895 0.55354 0.90203 0.0
C3572 C 0.31356 0.58403 0.9662 0.0
C3573 C 0.32513 0.5738 0.93502 0.0
C3574 C 0.31513 0.5957 0.98167 0.0
C3575 C 0.33082 0.6076 0.98392 0.0
C3576 C 0.32772 0.58436 0.95271 0.0
C3577 C 0.34534 0.60662 0.97091 0.0
C3578 C 0.33963 0.57231 0.92203 0.0
C3579 C 0.30469 0.55584 0.91511 0.0
N3580 N 0.34334 0.59534 0.95565 0.0
N3581 N 0.30813 0.56566 0.93104 0.0
H3582 H 0.45245 0.36508 0.90241 0.0
H3583 H 0.41067 0.30674 0.98836 0.0
H3584 H 0.45174 0.30516 0.90618 0.0
H3585 H 0.39254 0.36237 0.97587 0.0
H3586 H 0.4314 0.30828 0.9616 0.0
H3587 H 0.43569 0.36638 0.93233 0.0
C3588 C 0.44896 0.35224 0.90966 0.0
C3589 C 0.45337 0.33497 0.90182 0.0
C3590 C 0.42298 0.32021 0.96474 0.0
C3591 C 0.43443 0.33633 0.93589 0.0
C3592 C 0.41114 0.31938 0.98008 0.0
C3593 C 0.39962 0.33436 0.98426 0.0
C3594 C 0.42346 0.33616 0.95342 0.0
C3595 C 0.40109 0.35046 0.9731 0.0
C3596 C 0.43933 0.35298 0.92662 0.0
C3597 C 0.44841 0.31872 0.91165 0.0
N3598 N 0.41272 0.3509 0.95806 0.0
N3599 N 0.43925 0.3198 0.92816 0.0
H3600 H 0.53043 0.71706 0.09657 0.0
H3601 H 0.61128 0.6682 0.03974 0.0
H3602 H 0.54373 0.65913 0.10344 0.0
H3603 H 0.60631 0.72771 0.04517 0.0
H3604 H 0.5827 0.66367 0.05784 0.0
H3605 H 0.55356 0.71979 0.0718 0.0
C3606 C 0.53796 0.70479 0.09255 0.0
C3607 C 0.53538 0.6879 0.10219 0.0
C3608 C 0.58777 0.67771 0.05495 0.0
C3609 C 0.56209 0.69103 0.0741 0.0
C3610 C 0.60402 0.68033 0.04455 0.0
C3611 C 0.61111 0.6984 0.04093 0.0
C3612 C 0.57847 0.69327 0.0617 0.0
C3613 C 0.60137 0.71359 0.04781 0.0
C3614 C 0.55125 0.7064 0.07851 0.0
C3615 C 0.54533 0.6724 0.09633 0.0
N3616 N 0.58551 0.71068 0.05788 0.0
N3617 N 0.55852 0.6744 0.0828 0.0
H3618 H 0.61557 0.36192 0.94633 0.0
H3619 H 0.53216 0.30433 0.89575 0.0
H3620 H 0.61036 0.30194 0.94641 0.0
H3621 H 0.54491 0.36209 0.88317 0.0
H3622 H 0.55873 0.30415 0.91735 0.0
H3623 H 0.58757 0.3632 0.92621 0.0
C3624 C 0.60844 0.34906 0.94223 0.0
C3625 C 0.61534 0.33179 0.94793 0.0
C3626 C 0.55573 0.31688 0.90988 0.0
C3627 C 0.58343 0.33313 0.92502 0.0
C3628 C 0.54052 0.31701 0.89755 0.0
C3629 C 0.53632 0.33323 0.88755 0.0
C3630 C 0.56682 0.33313 0.9124 0.0
C3631 C 0.54768 0.34924 0.89052 0.0
C3632 C 0.59257 0.34978 0.93067 0.0
C3633 C 0.60568 0.31552 0.94211 0.0
N3634 N 0.56241 0.3488 0.9027 0.0
N3635 N 0.59024 0.31659 0.93102 0.0
H3636 H 0.6846 0.52888 0.91306 0.0
H3637 H 0.64804 0.62843 0.94223 0.0
H3638 H 0.63513 0.55293 0.88927 0.0
H3639 H 0.6998 0.60515 0.9616 0.0
H3640 H 0.63975 0.59873 0.92722 0.0
H3641 H 0.68611 0.55368 0.93636 0.0
C3642 C 0.67368 0.5391 0.91319 0.0
C3643 C 0.6598 0.53903 0.89926 0.0
C3644 C 0.65286 0.60008 0.93487 0.0
C3645 C 0.66186 0.56786 0.92527 0.0
C3646 C 0.65762 0.61703 0.94342 0.0
C3647 C 0.67475 0.61932 0.95302 0.0
C3648 C 0.66531 0.5853 0.93595 0.0
C3649 C 0.68666 0.60413 0.95403 0.0
C3650 C 0.67466 0.55337 0.92634 0.0
C3651 C 0.646 0.55253 0.89989 0.0
N3652 N 0.68174 0.5878 0.94553 0.0
N3653 N 0.64761 0.56672 0.91246 0.0
H3654 H 0.38199 0.70318 0.95469 0.0
H3655 H 0.44971 0.6451 0.88985 0.0
H3656 H 0.38305 0.64322 0.95752 0.0
H3657 H 0.45986 0.70277 0.90481 0.0
H3658 H 0.42378 0.64371 0.91231 0.0
H3659 H 0.4088 0.70306 0.93371 0.0
C3660 C 0.38785 0.68997 0.95081 0.0
C3661 C 0.38026 0.67319 0.95782 0.0
C3662 C 0.43182 0.65659 0.91071 0.0
C3663 C 0.41104 0.67291 0.93374 0.0
C3664 C 0.4466 0.65741 0.8979 0.0
C3665 C 0.45701 0.67409 0.89538 0.0
C3666 C 0.42726 0.67264 0.92082 0.0
C3667 C 0.4523 0.6896 0.90621 0.0
C3668 C 0.40324 0.6899 0.93894 0.0
C3669 C 0.38858 0.65647 0.95252 0.0
N3670 N 0.43773 0.68853 0.91827 0.0
N3671 N 0.40345 0.65672 0.94066 0.0
H3672 H 0.36252 0.46938 0.90784 0.0
H3673 H 0.3099 0.41517 0.99001 0.0
H3674 H 0.30743 0.48197 0.92778 0.0
H3675 H 0.36232 0.39801 0.96693 0.0
H3676 H 0.31223 0.44387 0.97189 0.0
H3677 H 0.36635 0.44792 0.93422 0.0
C3678 C 0.35148 0.46806 0.9181 0.0
C3679 C 0.33452 0.47719 0.91557 0.0
C3680 C 0.32333 0.43392 0.97087 0.0
C3681 C 0.33866 0.4526 0.94542 0.0
C3682 C 0.32191 0.41746 0.9811 0.0
C3683 C 0.33573 0.40403 0.97963 0.0
C3684 C 0.33859 0.43693 0.95889 0.0
C3685 C 0.35131 0.40798 0.96835 0.0
C3686 C 0.3536 0.4557 0.93304 0.0
C3687 C 0.32061 0.47494 0.92913 0.0
N3688 N 0.3522 0.42398 0.95816 0.0
N3689 N 0.32289 0.46268 0.94334 0.0
H3690 H 0.49243 0.29787 0.11352 0.0
H3691 H 0.4055 0.35165 0.07048 0.0
H3692 H 0.47936 0.35432 0.12861 0.0
H3693 H 0.41149 0.29211 0.06678 0.0
H3694 H 0.43453 0.35385 0.08873 0.0
H3695 H 0.46505 0.29669 0.09297 0.0
C3696 C 0.48392 0.3101 0.1124 0.0
C3697 C 0.48815 0.3262 0.12292 0.0
C3698 C 0.42952 0.3403 0.08391 0.0
C3699 C 0.45669 0.32485 0.09942 0.0
C3700 C 0.41301 0.33905 0.07341 0.0
C3701 C 0.40613 0.32165 0.06707 0.0
C3702 C 0.43931 0.32408 0.08799 0.0
C3703 C 0.41624 0.30575 0.07154 0.0
C3704 C 0.46822 0.30936 0.10071 0.0
C3705 C 0.4766 0.34161 0.12081 0.0
N3706 N 0.43237 0.30734 0.08168 0.0
N3707 N 0.46134 0.34053 0.10934 0.0
H3708 H 0.71553 0.41125 0.04641 0.0
H3709 H 0.65549 0.47054 0.1181 0.0
H3710 H 0.65827 0.39656 0.05969 0.0
H3711 H 0.70891 0.48866 0.09586 0.0
H3712 H 0.65612 0.44298 0.09783 0.0
H3713 H 0.71342 0.43901 0.06572 0.0
C3714 C 0.70252 0.41378 0.05351 0.0
C3715 C 0.6871 0.40143 0.05151 0.0
C3716 C 0.66763 0.45306 0.09734 0.0
C3717 C 0.68449 0.43352 0.07365 0.0
C3718 C 0.66729 0.46881 0.10891 0.0
C3719 C 0.6822 0.48197 0.10874 0.0
C3720 C 0.68305 0.45039 0.08563 0.0
C3721 C 0.69711 0.47894 0.09653 0.0
C3722 C 0.70127 0.42976 0.06445 0.0
C3723 C 0.67047 0.40574 0.06077 0.0
N3724 N 0.69718 0.46347 0.08559 0.0
N3725 N 0.66963 0.42138 0.07153 0.0
H3726 H 0.32087 0.51813 0.12422 0.0
H3727 H 0.35847 0.61257 0.07604 0.0
H3728 H 0.37289 0.54547 0.14076 0.0
H3729 H 0.30208 0.59041 0.07032 0.0
H3730 H 0.36573 0.58665 0.0972 0.0
H3731 H 0.31561 0.54292 0.10166 0.0
C3732 C 0.33127 0.52929 0.12306 0.0
C3733 C 0.34731 0.52972 0.13453 0.0
C3734 C 0.35178 0.58751 0.0913 0.0
C3735 C 0.34131 0.55833 0.10858 0.0
C3736 C 0.34766 0.60223 0.07917 0.0
C3737 C 0.3296 0.60375 0.07151 0.0
C3738 C 0.33779 0.57409 0.09558 0.0
C3739 C 0.31608 0.59002 0.07613 0.0
C3740 C 0.32822 0.54351 0.11017 0.0
C3741 C 0.3603 0.54458 0.13226 0.0
N3742 N 0.32046 0.5758 0.08779 0.0
N3743 N 0.35699 0.55833 0.11957 0.0
loop_
_geom_bond_atom_site_label_1
_geom_bond_atom_site_label_2
_geom_bond_distance
_geom_bond_site_symmetry_2
_ccdc_geom_bond_type
C0 C1 1.351 . S
C0 N3 1.368 . S
C0 H5 0.931 1_655 S
C1 C0 1.351 . S
C1 N2 1.373 . S
C1 H29 0.930 . S
N2 C1 1.373 . S
N2 C4 1.340 . S
N3 C0 1.368 . S
N3 C4 1.321 . S
N3 Co6 2.135 1_655 S
C4 N2 1.340 . S
C4 N3 1.321 . S
C4 H28 0.930 . S
H5 C0 0.931 1_455 S
Co6 N3 2.135 1_455 S
Co6 N9 2.121 . S
Co6 O14 2.055 . S
Co6 O17 2.039 1_455 S
Co6 N20 2.140 . S
C7 O8 1.227 . S
C7 O17 1.265 . S
O8 C7 1.227 . S
N9 Co6 2.121 . S
N9 C11 1.375 . S
N9 C12 1.313 . S
C10 C11 1.338 . S
C10 N13 1.377 . S
C10 H30 0.930 . S
C11 N9 1.375 . S
C11 C10 1.338 . S
C11 H15 0.931 . S
C12 N9 1.313 . S
C12 N13 1.344 . S
C12 H16 0.930 . S
N13 C10 1.377 . S
N13 C12 1.344 . S
O14 Co6 2.055 . S
O14 C18 1.253 . S
H15 C11 0.931 . S
H16 C12 0.930 . S
O17 Co6 2.039 1_655 S
O17 C7 1.265 . S
C18 O14 1.253 . S
C18 O19 1.227 . S
O19 C18 1.227 . S
N20 Co6 2.140 . S
N20 C23 1.346 1_455 S
N20 C24 1.345 . S
C21 C22 1.387 1_455 S
C21 C25 1.391 . S
C22 C21 1.387 1_655 S
C22 C23 1.369 . S
C22 H31 0.929 . S
C23 N20 1.346 1_655 S
C23 C22 1.369 . S
C23 H26 0.928 . S
C24 N20 1.345 . S
C24 C25 1.371 . S
C24 H27 0.931 . S
C25 C21 1.391 . S
C25 C24 1.371 . S
C25 H32 0.930 . S
H26 C23 0.928 . S
H27 C24 0.931 . S
H28 C4 0.930 . S
H29 C1 0.930 . S
H30 C10 0.930 . S
H31 C22 0.929 . S
H32 C25 0.930 . S
C33 C34 1.351 . S
C33 N36 1.368 . S
C33 H38 0.931 . S
C34 C33 1.351 . S
C34 N35 1.373 . S
C34 H62 0.930 . S
N35 C34 1.373 . S
N35 C37 1.340 . S
N36 C33 1.368 . S
N36 C37 1.321 . S
N36 Co39 2.135 . S
C37 N35 1.340 . S
C37 N36 1.321 . S
C37 H61 0.930 . S
H38 C33 0.931 . S
Co39 N36 2.135 . S
Co39 N42 2.121 1_545 S
Co39 O47 2.055 1_545 S
Co39 O50 2.039 . S
Co39 N53 2.140 . S
C40 O41 1.227 . S
C40 O50 1.265 . S
O41 C40 1.227 . S
N42 Co39 2.121 1_565 S
N42 C44 1.375 . S
N42 C45 1.313 . S
C43 C44 1.338 . S
C43 N46 1.377 . S
C43 H63 0.930 . S
C44 N42 1.375 . S
C44 C43 1.338 . S
C44 H48 0.931 1_565 S
C45 N42 1.313 . S
C45 N46 1.344 . S
C45 H49 0.930 . S
N46 C43 1.377 . S
N46 C45 1.344 . S
O47 Co39 2.055 1_565 S
O47 C51 1.253 . S
H48 C44 0.931 1_545 S
H49 C45 0.930 . S
O50 Co39 2.039 . S
O50 C40 1.265 . S
C51 O47 1.253 . S
C51 O52 1.227 . S
O52 C51 1.227 . S
N53 Co39 2.140 . S
N53 C56 1.346 . S
N53 C57 1.345 1_545 S
C54 C55 1.387 . S
C54 C58 1.391 1_545 S
C55 C54 1.387 . S
C55 C56 1.369 . S
C55 H64 0.929 . S
C56 N53 1.346 . S
C56 C55 1.369 . S
C56 H59 0.928 . S
C57 N53 1.345 1_565 S
C57 C58 1.371 . S
C57 H60 0.931 . S
C58 C54 1.391 1_565 S
C58 C57 1.371 . S
C58 H65 0.930 . S
H59 C56 0.928 . S
H60 C57 0.931 . S
H61 C37 0.930 . S
H62 C34 0.930 . S
H63 C43 0.930 . S
H64 C55 0.929 . S
H65 C58 0.930 . S
C66 C67 1.351 . S
C66 N69 1.368 . S
C66 H71 0.931 1_655 S
C67 C66 1.351 . S
C67 N68 1.373 . S
C67 H95 0.930 . S
N68 C67 1.373 . S
N68 C70 1.340 . S
N69 C66 1.368 . S
N69 C70 1.321 . S
N69 Co72 2.135 1_655 S
C70 N68 1.340 . S
C70 N69 1.321 . S
C70 H94 0.930 . S
H71 C66 0.931 1_455 S
Co72 N69 2.135 1_455 S
Co72 N75 2.121 . S
Co72 O80 2.055 . S
Co72 O83 2.039 1_455 S
Co72 N86 2.140 . S
C73 O74 1.227 . S
C73 O83 1.265 . S
O74 C73 1.227 . S
N75 Co72 2.121 . S
N75 C77 1.375 . S
N75 C78 1.313 . S
C76 C77 1.338 . S
C76 N79 1.377 . S
C76 H96 0.930 . S
C77 N75 1.375 . S
C77 C76 1.338 . S
C77 H81 0.931 . S
C78 N75 1.313 . S
C78 N79 1.344 . S
C78 H82 0.930 . S
N79 C76 1.377 . S
N79 C78 1.344 . S
O80 Co72 2.055 . S
O80 C84 1.253 . S
H81 C77 0.931 . S
H82 C78 0.930 . S
O83 Co72 2.039 1_655 S
O83 C73 1.265 . S
C84 O80 1.253 . S
C84 O85 1.227 . S
O85 C84 1.227 . S
N86 Co72 2.140 . S
N86 C89 1.346 1_455 S
N86 C90 1.345 . S
C87 C88 1.387 1_455 S
C87 C91 1.391 . S
C88 C87 1.387 1_655 S
C88 C89 1.369 . S
C88 H97 0.929 . S
C89 N86 1.346 1_655 S
C89 C88 1.369 . S
C89 H92 0.928 . S
C90 N86 1.345 . S
C90 C91 1.371 . S
C90 H93 0.931 . S
C91 C87 1.391 . S
C91 C90 1.371 . S
C91 H98 0.930 . S
H92 C89 0.928 . S
H93 C90 0.931 . S
H94 C70 0.930 . S
H95 C67 0.930 . S
H96 C76 0.930 . S
H97 C88 0.929 . S
H98 C91 0.930 . S
C99 C100 1.351 . S
C99 N102 1.368 . S
C99 H104 0.931 1_565 S
C100 C99 1.351 . S
C100 N101 1.373 . S
C100 H128 0.930 . S
N101 C100 1.373 . S
N101 C103 1.340 . S
N102 C99 1.368 . S
N102 C103 1.321 . S
N102 Co105 2.135 1_565 S
C103 N101 1.340 . S
C103 N102 1.321 . S
C103 H127 0.930 . S
H104 C99 0.931 1_545 S
Co105 N102 2.135 1_545 S
Co105 N108 2.121 . S
Co105 O113 2.055 . S
Co105 O116 2.039 1_545 S
Co105 N119 2.140 . S
C106 O107 1.227 . S
C106 O116 1.265 . S
O107 C106 1.227 . S
N108 Co105 2.121 . S
N108 C110 1.375 . S
N108 C111 1.313 . S
C109 C110 1.338 . S
C109 N112 1.377 . S
C109 H129 0.930 . S
C110 N108 1.375 . S
C110 C109 1.338 . S
C110 H114 0.931 . S
C111 N108 1.313 . S
C111 N112 1.344 . S
C111 H115 0.930 . S
N112 C109 1.377 . S
N112 C111 1.344 . S
O113 Co105 2.055 . S
O113 C117 1.253 . S
H114 C110 0.931 . S
H115 C111 0.930 . S
O116 Co105 2.039 1_565 S
O116 C106 1.265 . S
C117 O113 1.253 . S
C117 O118 1.227 . S
O118 C117 1.227 . S
N119 Co105 2.140 . S
N119 C122 1.346 1_545 S
N119 C123 1.345 . S
C120 C121 1.387 1_545 S
C120 C124 1.391 . S
C121 C120 1.387 1_565 S
C121 C122 1.369 . S
C121 H130 0.929 . S
C122 N119 1.346 1_565 S
C122 C121 1.369 . S
C122 H125 0.928 . S
C123 N119 1.345 . S
C123 C124 1.371 . S
C123 H126 0.931 . S
C124 C120 1.391 . S
C124 C123 1.371 . S
C124 H131 0.930 . S
H125 C122 0.928 . S
H126 C123 0.931 . S
H127 C103 0.930 . S
H128 C100 0.930 . S
H129 C109 0.930 . S
H130 C121 0.929 . S
H131 C124 0.930 . S
C132 C133 1.351 . S
C132 N135 1.368 . S
C132 H137 0.931 . S
C133 C132 1.351 . S
C133 N134 1.373 . S
C133 H161 0.930 . S
N134 C133 1.373 . S
N134 C136 1.340 . S
N135 C132 1.368 . S
N135 C136 1.321 . S
N135 Co138 2.135 . S
C136 N134 1.340 . S
C136 N135 1.321 . S
C136 H160 0.930 . S
H137 C132 0.931 . S
Co138 N135 2.135 . S
Co138 N141 2.121 1_455 S
Co138 O146 2.055 1_455 S
Co138 O149 2.039 . S
Co138 N152 2.140 . S
C139 O140 1.227 . S
C139 O149 1.265 . S
O140 C139 1.227 . S
N141 Co138 2.121 1_655 S
N141 C143 1.375 . S
N141 C144 1.313 . S
C142 C143 1.338 . S
C142 N145 1.377 . S
C142 H162 0.930 . S
C143 N141 1.375 . S
C143 C142 1.338 . S
C143 H147 0.931 1_655 S
C144 N141 1.313 . S
C144 N145 1.344 . S
C144 H148 0.930 . S
N145 C142 1.377 . S
N145 C144 1.344 . S
O146 Co138 2.055 1_655 S
O146 C150 1.253 . S
H147 C143 0.931 1_455 S
H148 C144 0.930 . S
O149 Co138 2.039 . S
O149 C139 1.265 . S
C150 O146 1.253 . S
C150 O151 1.227 . S
O151 C150 1.227 . S
N152 Co138 2.140 . S
N152 C155 1.346 . S
N152 C156 1.345 1_455 S
C153 C154 1.387 . S
C153 C157 1.391 1_455 S
C154 C153 1.387 . S
C154 C155 1.369 . S
C154 H163 0.929 . S
C155 N152 1.346 . S
C155 C154 1.369 . S
C155 H158 0.928 . S
C156 N152 1.345 1_655 S
C156 C157 1.371 . S
C156 H159 0.931 . S
C157 C153 1.391 1_655 S
C157 C156 1.371 . S
C157 H164 0.930 . S
H158 C155 0.928 . S
H159 C156 0.931 . S
H160 C136 0.930 . S
H161 C133 0.930 . S
H162 C142 0.930 . S
H163 C154 0.929 . S
H164 C157 0.930 . S
C165 C166 1.351 . S
C165 N168 1.368 . S
C165 H170 0.931 1_565 S
C166 C165 1.351 . S
C166 N167 1.373 . S
C166 H194 0.930 . S
N167 C166 1.373 . S
N167 C169 1.340 . S
N168 C165 1.368 . S
N168 C169 1.321 . S
N168 Co171 2.135 1_565 S
C169 N167 1.340 . S
C169 N168 1.321 . S
C169 H193 0.930 . S
H170 C165 0.931 1_545 S
Co171 N168 2.135 1_545 S
Co171 N174 2.121 . S
Co171 O179 2.055 . S
Co171 O182 2.039 1_545 S
Co171 N185 2.140 . S
C172 O173 1.227 . S
C172 O182 1.265 . S
O173 C172 1.227 . S
N174 Co171 2.121 . S
N174 C176 1.375 . S
N174 C177 1.313 . S
C175 C176 1.338 . S
C175 N178 1.377 . S
C175 H195 0.930 . S
C176 N174 1.375 . S
C176 C175 1.338 . S
C176 H180 0.931 . S
C177 N174 1.313 . S
C177 N178 1.344 . S
C177 H181 0.930 . S
N178 C175 1.377 . S
N178 C177 1.344 . S
O179 Co171 2.055 . S
O179 C183 1.253 . S
H180 C176 0.931 . S
H181 C177 0.930 . S
O182 Co171 2.039 1_565 S
O182 C172 1.265 . S
C183 O179 1.253 . S
C183 O184 1.227 . S
O184 C183 1.227 . S
N185 Co171 2.140 . S
N185 C188 1.346 1_545 S
N185 C189 1.345 . S
C186 C187 1.387 1_545 S
C186 C190 1.391 . S
C187 C186 1.387 1_565 S
C187 C188 1.369 . S
C187 H196 0.929 . S
C188 N185 1.346 1_565 S
C188 C187 1.369 . S
C188 H191 0.928 . S
C189 N185 1.345 . S
C189 C190 1.371 . S
C189 H192 0.931 . S
C190 C186 1.391 . S
C190 C189 1.371 . S
C190 H197 0.930 . S
H191 C188 0.928 . S
H192 C189 0.931 . S
H193 C169 0.930 . S
H194 C166 0.930 . S
H195 C175 0.930 . S
H196 C187 0.929 . S
H197 C190 0.930 . S
C198 C199 1.351 . S
C198 N201 1.368 . S
C198 H203 0.931 1_655 S
C199 C198 1.351 . S
C199 N200 1.373 . S
C199 H227 0.930 . S
N200 C199 1.373 . S
N200 C202 1.340 . S
N201 C198 1.368 . S
N201 C202 1.321 . S
N201 Co204 2.135 1_655 S
C202 N200 1.340 . S
C202 N201 1.321 . S
C202 H226 0.930 . S
H203 C198 0.931 1_455 S
Co204 N201 2.135 1_455 S
Co204 N207 2.121 . S
Co204 O212 2.055 . S
Co204 O215 2.039 1_455 S
Co204 N218 2.140 . S
C205 O206 1.227 . S
C205 O215 1.265 . S
O206 C205 1.227 . S
N207 Co204 2.121 . S
N207 C209 1.375 . S
N207 C210 1.313 . S
C208 C209 1.338 . S
C208 N211 1.377 . S
C208 H228 0.930 . S
C209 N207 1.375 . S
C209 C208 1.338 . S
C209 H213 0.931 . S
C210 N207 1.313 . S
C210 N211 1.344 . S
C210 H214 0.930 . S
N211 C208 1.377 . S
N211 C210 1.344 . S
O212 Co204 2.055 . S
O212 C216 1.253 . S
H213 C209 0.931 . S
H214 C210 0.930 . S
O215 Co204 2.039 1_655 S
O215 C205 1.265 . S
C216 O212 1.253 . S
C216 O217 1.227 . S
O217 C216 1.227 . S
N218 Co204 2.140 . S
N218 C221 1.346 1_455 S
N218 C222 1.345 . S
C219 C220 1.351 1_455 S
C219 C223 1.430 . S
C220 C219 1.351 1_655 S
C220 C221 1.369 . S
C220 H229 0.929 . S
C221 N218 1.346 1_655 S
C221 C220 1.369 . S
C221 H224 0.928 . S
C222 N218 1.345 . S
C222 C223 1.371 . S
C222 H225 0.931 . S
C223 C219 1.430 . S
C223 C222 1.371 . S
C223 H230 0.930 . S
H224 C221 0.928 . S
H225 C222 0.931 . S
H226 C202 0.930 . S
H227 C199 0.930 . S
H228 C208 0.930 . S
H229 C220 0.929 . S
H230 C223 0.930 . S
C231 C232 1.351 . S
C231 N234 1.368 . S
C231 H236 0.931 . S
C232 C231 1.351 . S
C232 N233 1.373 . S
C232 H260 0.930 . S
N233 C232 1.373 . S
N233 C235 1.340 . S
N234 C231 1.368 . S
N234 C235 1.321 . S
N234 Co237 2.135 . S
C235 N233 1.340 . S
C235 N234 1.321 . S
C235 H259 0.930 . S
H236 C231 0.931 . S
Co237 N234 2.135 . S
Co237 N240 2.121 1_545 S
Co237 O245 2.055 1_545 S
Co237 O248 2.039 . S
Co237 N251 2.140 . S
C238 O239 1.227 . S
C238 O248 1.265 . S
O239 C238 1.227 . S
N240 Co237 2.121 1_565 S
N240 C242 1.375 . S
N240 C243 1.313 . S
C241 C242 1.338 . S
C241 N244 1.377 . S
C241 H261 0.930 . S
C242 N240 1.375 . S
C242 C241 1.338 . S
C242 H246 0.931 1_565 S
C243 N240 1.313 . S
C243 N244 1.344 . S
C243 H247 0.930 . S
N244 C241 1.377 . S
N244 C243 1.344 . S
O245 Co237 2.055 1_565 S
O245 C249 1.253 . S
H246 C242 0.931 1_545 S
H247 C243 0.930 . S
O248 Co237 2.039 . S
O248 C238 1.265 . S
C249 O245 1.253 . S
C249 O250 1.227 . S
O250 C249 1.227 . S
N251 Co237 2.140 . S
N251 C254 1.346 . S
N251 C255 1.345 1_545 S
C252 C253 1.387 . S
C252 C256 1.391 1_545 S
C253 C252 1.387 . S
C253 C254 1.369 . S
C253 H262 0.929 . S
C254 N251 1.346 . S
C254 C253 1.369 . S
C254 H257 0.928 . S
C255 N251 1.345 1_565 S
C255 C256 1.371 . S
C255 H258 0.931 . S
C256 C252 1.391 1_565 S
C256 C255 1.371 . S
C256 H263 0.930 . S
H257 C254 0.928 . S
H258 C255 0.931 . S
H259 C235 0.930 . S
H260 C232 0.930 . S
H261 C241 0.930 . S
H262 C253 0.929 . S
H263 C256 0.930 . S
C264 C265 1.351 . S
C264 N267 1.368 . S
C264 H269 0.931 1_556 S
C265 C264 1.351 . S
C265 N266 1.373 . S
C265 H293 0.930 . S
N266 C265 1.373 . S
N266 C268 1.340 . S
N267 C264 1.368 . S
N267 C268 1.321 . S
N267 Co270 2.135 1_556 S
C268 N266 1.340 . S
C268 N267 1.321 . S
C268 H292 0.930 . S
H269 C264 0.931 1_554 S
Co270 N267 2.135 1_554 S
Co270 N273 2.121 . S
Co270 O278 2.055 . S
Co270 O281 2.039 1_554 S
Co270 N284 2.140 . S
C271 O272 1.227 . S
C271 O281 1.265 . S
O272 C271 1.227 . S
N273 Co270 2.121 . S
N273 C275 1.375 . S
N273 C276 1.313 . S
C274 C275 1.338 . S
C274 N277 1.377 . S
C274 H294 0.930 . S
C275 N273 1.375 . S
C275 C274 1.338 . S
C275 H279 0.931 . S
C276 N273 1.313 . S
C276 N277 1.344 . S
C276 H280 0.930 . S
N277 C274 1.377 . S
N277 C276 1.344 . S
O278 Co270 2.055 . S
O278 C282 1.253 . S
H279 C275 0.931 . S
H280 C276 0.930 . S
O281 Co270 2.039 1_556 S
O281 C271 1.265 . S
C282 O278 1.253 . S
C282 O283 1.227 . S
O283 C282 1.227 . S
N284 Co270 2.140 . S
N284 C287 1.346 1_554 S
N284 C288 1.345 . S
C285 C286 1.387 1_554 S
C285 C289 1.391 . S
C286 C285 1.387 1_556 S
C286 C287 1.369 . S
C286 H295 0.929 . S
C287 N284 1.346 1_556 S
C287 C286 1.369 . S
C287 H290 0.928 . S
C288 N284 1.345 . S
C288 C289 1.371 . S
C288 H291 0.931 . S
C289 C285 1.391 . S
C289 C288 1.371 . S
C289 H296 0.930 . S
H290 C287 0.928 . S
H291 C288 0.931 . S
H292 C268 0.930 . S
H293 C265 0.930 . S
H294 C274 0.930 . S
H295 C286 0.929 . S
H296 C289 0.930 . S
C297 C298 1.351 . S
C297 N300 1.368 . S
C297 H302 0.931 . S
C298 C297 1.351 . S
C298 N299 1.373 . S
C298 H326 0.930 . S
N299 C298 1.373 . S
N299 C301 1.340 . S
N300 C297 1.368 . S
N300 C301 1.321 . S
N300 Co303 2.135 . S
C301 N299 1.340 . S
C301 N300 1.321 . S
C301 H325 0.930 . S
H302 C297 0.931 . S
Co303 N300 2.135 . S
Co303 N306 2.121 1_554 S
Co303 O311 2.055 1_554 S
Co303 O314 2.039 . S
Co303 N317 2.140 . S
C304 O305 1.227 . S
C304 O314 1.265 . S
O305 C304 1.227 . S
N306 Co303 2.121 1_556 S
N306 C308 1.375 . S
N306 C309 1.313 . S
C307 C308 1.338 . S
C307 N310 1.377 . S
C307 H327 0.930 . S
C308 N306 1.375 . S
C308 C307 1.338 . S
C308 H312 0.931 1_556 S
C309 N306 1.313 . S
C309 N310 1.344 . S
C309 H313 0.930 . S
N310 C307 1.377 . S
N310 C309 1.344 . S
O311 Co303 2.055 1_556 S
O311 C315 1.253 . S
H312 C308 0.931 1_554 S
H313 C309 0.930 . S
O314 Co303 2.039 . S
O314 C304 1.265 . S
C315 O311 1.253 . S
C315 O316 1.227 . S
O316 C315 1.227 . S
N317 Co303 2.140 . S
N317 C320 1.346 . S
N317 C321 1.345 1_554 S
C318 C319 1.387 . S
C318 C322 1.391 1_554 S
C319 C318 1.387 . S
C319 C320 1.369 . S
C319 H328 0.929 . S
C320 N317 1.346 . S
C320 C319 1.369 . S
C320 H323 0.928 . S
C321 N317 1.345 1_556 S
C321 C322 1.371 . S
C321 H324 0.931 . S
C322 C318 1.391 1_556 S
C322 C321 1.371 . S
C322 H329 0.930 . S
H323 C320 0.928 . S
H324 C321 0.931 . S
H325 C301 0.930 . S
H326 C298 0.930 . S
H327 C307 0.930 . S
H328 C319 0.929 . S
H329 C322 0.930 . S
C330 C331 1.351 1_554 S
C330 N333 1.368 1_554 S
C330 H335 0.931 . S
C331 C330 1.351 1_556 S
C331 N332 1.373 . S
C331 H359 0.930 . S
N332 C331 1.373 . S
N332 C334 1.340 . S
N333 C330 1.368 1_556 S
N333 C334 1.321 . S
N333 Co336 2.135 1_556 S
C334 N332 1.340 . S
C334 N333 1.321 . S
C334 H358 0.930 . S
H335 C330 0.931 . S
Co336 N333 2.135 1_554 S
Co336 N339 2.121 . S
Co336 O344 2.055 . S
Co336 O347 2.039 1_554 S
Co336 N350 2.140 . S
C337 O338 1.227 . S
C337 O347 1.265 . S
O338 C337 1.227 . S
N339 Co336 2.121 . S
N339 C341 1.375 . S
N339 C342 1.313 . S
C340 C341 1.338 . S
C340 N343 1.377 . S
C340 H360 0.930 . S
C341 N339 1.375 . S
C341 C340 1.338 . S
C341 H345 0.931 . S
C342 N339 1.313 . S
C342 N343 1.344 . S
C342 H346 0.930 . S
N343 C340 1.377 . S
N343 C342 1.344 . S
O344 Co336 2.055 . S
O344 C348 1.253 . S
H345 C341 0.931 . S
H346 C342 0.930 . S
O347 Co336 2.039 1_556 S
O347 C337 1.265 . S
C348 O344 1.253 . S
C348 O349 1.227 . S
O349 C348 1.227 . S
N350 Co336 2.140 . S
N350 C353 1.346 1_554 S
N350 C354 1.345 . S
C351 C352 1.387 1_554 S
C351 C355 1.391 . S
C352 C351 1.387 1_556 S
C352 C353 1.369 . S
C352 H361 0.929 . S
C353 N350 1.346 1_556 S
C353 C352 1.369 . S
C353 H356 0.928 . S
C354 N350 1.345 . S
C354 C355 1.371 . S
C354 H357 0.931 . S
C355 C351 1.391 . S
C355 C354 1.371 . S
C355 H362 0.930 . S
H356 C353 0.928 . S
H357 C354 0.931 . S
H358 C334 0.930 . S
H359 C331 0.930 . S
H360 C340 0.930 . S
H361 C352 0.929 . S
H362 C355 0.930 . S
C363 C364 1.351 . S
C363 N366 1.368 . S
C363 H368 0.931 1_556 S
C364 C363 1.351 . S
C364 N365 1.373 . S
C364 H392 0.930 . S
N365 C364 1.373 . S
N365 C367 1.340 . S
N366 C363 1.368 . S
N366 C367 1.321 . S
N366 Co369 2.135 1_556 S
C367 N365 1.340 . S
C367 N366 1.321 . S
C367 H391 0.930 . S
H368 C363 0.931 1_554 S
Co369 N366 2.135 1_554 S
Co369 N372 2.121 . S
Co369 O377 2.055 . S
Co369 O380 2.039 1_554 S
Co369 N383 2.140 . S
C370 O371 1.227 . S
C370 O380 1.265 . S
O371 C370 1.227 . S
N372 Co369 2.121 . S
N372 C374 1.375 . S
N372 C375 1.313 . S
C373 C374 1.338 . S
C373 N376 1.377 . S
C373 H393 0.930 . S
C374 N372 1.375 . S
C374 C373 1.338 . S
C374 H378 0.931 . S
C375 N372 1.313 . S
C375 N376 1.344 . S
C375 H379 0.930 . S
N376 C373 1.377 . S
N376 C375 1.344 . S
O377 Co369 2.055 . S
O377 C381 1.253 . S
H378 C374 0.931 . S
H379 C375 0.930 . S
O380 Co369 2.039 1_556 S
O380 C370 1.265 . S
C381 O377 1.253 . S
C381 O382 1.227 . S
O382 C381 1.227 . S
N383 Co369 2.140 . S
N383 C386 1.346 1_554 S
N383 C387 1.345 . S
C384 C385 1.387 1_554 S
C384 C388 1.391 . S
C385 C384 1.387 1_556 S
C385 C386 1.369 . S
C385 H394 0.929 . S
C386 N383 1.346 1_556 S
C386 C385 1.369 . S
C386 H389 0.928 . S
C387 N383 1.345 . S
C387 C388 1.371 . S
C387 H390 0.931 . S
C388 C384 1.391 . S
C388 C387 1.371 . S
C388 H395 0.930 . S
H389 C386 0.928 . S
H390 C387 0.931 . S
H391 C367 0.930 . S
H392 C364 0.930 . S
H393 C373 0.930 . S
H394 C385 0.929 . S
H395 C388 0.930 . S
C396 C397 1.351 . S
C396 N399 1.368 . S
C396 H401 0.931 1_655 S
C397 C396 1.351 . S
C397 N398 1.373 . S
C397 H425 0.930 . S
N398 C397 1.373 . S
N398 C400 1.340 . S
N399 C396 1.368 . S
N399 C400 1.321 . S
N399 Co402 2.135 1_655 S
C400 N398 1.340 . S
C400 N399 1.321 . S
C400 H424 0.930 . S
H401 C396 0.931 1_455 S
Co402 N399 2.135 1_455 S
Co402 N405 2.121 . S
Co402 O410 2.055 . S
Co402 O413 2.039 1_455 S
Co402 N416 2.140 . S
C403 O404 1.227 . S
C403 O413 1.265 . S
O404 C403 1.227 . S
N405 Co402 2.121 . S
N405 C407 1.375 . S
N405 C408 1.313 . S
C406 C407 1.338 . S
C406 N409 1.377 . S
C406 H426 0.930 . S
C407 N405 1.375 . S
C407 C406 1.338 . S
C407 H411 0.931 . S
C408 N405 1.313 . S
C408 N409 1.344 . S
C408 H412 0.930 . S
N409 C406 1.377 . S
N409 C408 1.344 . S
O410 Co402 2.055 . S
O410 C414 1.253 . S
H411 C407 0.931 . S
H412 C408 0.930 . S
O413 Co402 2.039 1_655 S
O413 C403 1.265 . S
C414 O410 1.253 . S
C414 O415 1.227 . S
O415 C414 1.227 . S
N416 Co402 2.140 . S
N416 C419 1.346 1_455 S
N416 C420 1.345 . S
C417 C418 1.387 1_455 S
C417 C421 1.391 . S
C418 C417 1.387 1_655 S
C418 C419 1.369 . S
C418 H427 0.929 . S
C419 N416 1.346 1_655 S
C419 C418 1.369 . S
C419 H422 0.928 . S
C420 N416 1.345 . S
C420 C421 1.371 . S
C420 H423 0.931 . S
C421 C417 1.391 . S
C421 C420 1.371 . S
C421 H428 0.930 . S
H422 C419 0.928 . S
H423 C420 0.931 . S
H424 C400 0.930 . S
H425 C397 0.930 . S
H426 C406 0.930 . S
H427 C418 0.929 . S
H428 C421 0.930 . S
C429 C430 1.351 . S
C429 N432 1.368 . S
C429 H434 0.931 . S
C430 C429 1.351 . S
C430 N431 1.373 . S
C430 H458 0.930 . S
N431 C430 1.373 . S
N431 C433 1.340 . S
N432 C429 1.368 . S
N432 C433 1.321 . S
N432 Co435 2.135 . S
C433 N431 1.340 . S
C433 N432 1.321 . S
C433 H457 0.930 . S
H434 C429 0.931 . S
Co435 N432 2.135 . S
Co435 N438 2.121 . S
Co435 O443 2.055 . S
Co435 O446 2.039 . S
Co435 N449 2.140 . S
C436 O437 1.227 . S
C436 O446 1.265 . S
O437 C436 1.227 . S
N438 Co435 2.121 . S
N438 C440 1.375 . S
N438 C441 1.313 . S
C439 C440 1.338 . S
C439 N442 1.377 . S
C439 H459 0.930 . S
C440 N438 1.375 . S
C440 C439 1.338 . S
C440 H444 0.931 . S
C441 N438 1.313 . S
C441 N442 1.344 . S
C441 H445 0.930 . S
N442 C439 1.377 . S
N442 C441 1.344 . S
O443 Co435 2.055 . S
O443 C447 1.253 . S
H444 C440 0.931 . S
H445 C441 0.930 . S
O446 Co435 2.039 . S
O446 C436 1.265 . S
C447 O443 1.253 . S
C447 O448 1.227 . S
O448 C447 1.227 . S
N449 Co435 2.140 . S
N449 C452 1.346 . S
N449 C453 1.345 . S
C450 C451 1.387 . S
C450 C454 1.391 . S
C451 C450 1.387 . S
C451 C452 1.369 . S
C451 H460 0.929 . S
C452 N449 1.346 . S
C452 C451 1.369 . S
C452 H455 0.928 . S
C453 N449 1.345 . S
C453 C454 1.371 . S
C453 H456 0.931 . S
C454 C450 1.391 . S
C454 C453 1.371 . S
C454 H461 0.930 . S
H455 C452 0.928 . S
H456 C453 0.931 . S
H457 C433 0.930 . S
H458 C430 0.930 . S
H459 C439 0.930 . S
H460 C451 0.929 . S
H461 C454 0.930 . S
C462 C463 1.351 . S
C462 N465 1.368 . S
C462 H467 0.931 1_655 S
C463 C462 1.351 . S
C463 N464 1.373 . S
C463 H491 0.930 . S
N464 C463 1.373 . S
N464 C466 1.340 . S
N465 C462 1.368 . S
N465 C466 1.321 . S
N465 Co468 2.135 1_655 S
C466 N464 1.340 . S
C466 N465 1.321 . S
C466 H490 0.930 . S
H467 C462 0.931 1_455 S
Co468 N465 2.135 1_455 S
Co468 N471 2.121 . S
Co468 O476 2.055 . S
Co468 O479 2.039 1_455 S
Co468 N482 2.140 . S
C469 O470 1.227 . S
C469 O479 1.265 . S
O470 C469 1.227 . S
N471 Co468 2.121 . S
N471 C473 1.375 . S
N471 C474 1.313 . S
C472 C473 1.338 . S
C472 N475 1.377 . S
C472 H492 0.930 . S
C473 N471 1.375 . S
C473 C472 1.338 . S
C473 H477 0.931 . S
C474 N471 1.313 . S
C474 N475 1.344 . S
C474 H478 0.930 . S
N475 C472 1.377 . S
N475 C474 1.344 . S
O476 Co468 2.055 . S
O476 C480 1.253 . S
H477 C473 0.931 . S
H478 C474 0.930 . S
O479 Co468 2.039 1_655 S
O479 C469 1.265 . S
C480 O476 1.253 . S
C480 O481 1.227 . S
O481 C480 1.227 . S
N482 Co468 2.140 . S
N482 C485 1.346 1_455 S
N482 C486 1.345 . S
C483 C484 1.387 1_455 S
C483 C487 1.391 . S
C484 C483 1.387 1_655 S
C484 C485 1.369 . S
C484 H493 0.929 . S
C485 N482 1.346 1_655 S
C485 C484 1.369 . S
C485 H488 0.928 . S
C486 N482 1.345 . S
C486 C487 1.371 . S
C486 H489 0.931 . S
C487 C483 1.391 . S
C487 C486 1.371 . S
C487 H494 0.930 . S
H488 C485 0.928 . S
H489 C486 0.931 . S
H490 C466 0.930 . S
H491 C463 0.930 . S
H492 C472 0.930 . S
H493 C484 0.929 . S
H494 C487 0.930 . S
C495 C496 1.351 . S
C495 N498 1.368 . S
C495 H500 0.931 . S
C496 C495 1.351 . S
C496 N497 1.373 . S
C496 H524 0.930 . S
N497 C496 1.373 . S
N497 C499 1.340 . S
N498 C495 1.368 . S
N498 C499 1.321 . S
N498 Co501 2.135 . S
C499 N497 1.340 . S
C499 N498 1.321 . S
C499 H523 0.930 . S
H500 C495 0.931 . S
Co501 N498 2.135 . S
Co501 N504 2.121 . S
Co501 O509 2.055 . S
Co501 O512 2.039 . S
Co501 N515 2.140 . S
C502 O503 1.227 . S
C502 O512 1.265 . S
O503 C502 1.227 . S
N504 Co501 2.121 . S
N504 C506 1.375 . S
N504 C507 1.313 . S
C505 C506 1.338 . S
C505 N508 1.377 . S
C505 H525 0.930 . S
C506 N504 1.375 . S
C506 C505 1.338 . S
C506 H510 0.931 . S
C507 N504 1.313 . S
C507 N508 1.344 . S
C507 H511 0.930 . S
N508 C505 1.377 . S
N508 C507 1.344 . S
O509 Co501 2.055 . S
O509 C513 1.253 . S
H510 C506 0.931 . S
H511 C507 0.930 . S
O512 Co501 2.039 . S
O512 C502 1.265 . S
C513 O509 1.253 . S
C513 O514 1.227 . S
O514 C513 1.227 . S
N515 Co501 2.140 . S
N515 C518 1.346 . S
N515 C519 1.345 . S
C516 C517 1.387 . S
C516 C520 1.391 . S
C517 C516 1.387 . S
C517 C518 1.369 . S
C517 H526 0.929 . S
C518 N515 1.346 . S
C518 C517 1.369 . S
C518 H521 0.928 . S
C519 N515 1.345 . S
C519 C520 1.371 . S
C519 H522 0.931 . S
C520 C516 1.391 . S
C520 C519 1.371 . S
C520 H527 0.930 . S
H521 C518 0.928 . S
H522 C519 0.931 . S
H523 C499 0.930 . S
H524 C496 0.930 . S
H525 C505 0.930 . S
H526 C517 0.929 . S
H527 C520 0.930 . S
C528 C529 1.351 . S
C528 N531 1.368 . S
C528 H533 0.931 . S
C529 C528 1.351 . S
C529 N530 1.373 . S
C529 H557 0.930 . S
N530 C529 1.373 . S
N530 C532 1.340 . S
N531 C528 1.368 . S
N531 C532 1.321 . S
N531 Co534 2.135 . S
C532 N530 1.340 . S
C532 N531 1.321 . S
C532 H556 0.930 . S
H533 C528 0.931 . S
Co534 N531 2.135 . S
Co534 N537 2.121 1_455 S
Co534 O542 2.055 1_455 S
Co534 O545 2.039 . S
Co534 N548 2.140 . S
C535 O536 1.227 . S
C535 O545 1.265 . S
O536 C535 1.227 . S
N537 Co534 2.121 1_655 S
N537 C539 1.375 . S
N537 C540 1.313 . S
C538 C539 1.338 . S
C538 N541 1.377 . S
C538 H558 0.930 . S
C539 N537 1.375 . S
C539 C538 1.338 . S
C539 H543 0.931 1_655 S
C540 N537 1.313 . S
C540 N541 1.344 . S
C540 H544 0.930 . S
N541 C538 1.377 . S
N541 C540 1.344 . S
O542 Co534 2.055 1_655 S
O542 C546 1.253 . S
H543 C539 0.931 1_455 S
H544 C540 0.930 . S
O545 Co534 2.039 . S
O545 C535 1.265 . S
C546 O542 1.253 . S
C546 O547 1.227 . S
O547 C546 1.227 . S
N548 Co534 2.140 . S
N548 C551 1.346 . S
N548 C552 1.345 1_455 S
C549 C550 1.387 . S
C549 C553 1.391 1_455 S
C550 C549 1.387 . S
C550 C551 1.369 . S
C550 H559 0.929 . S
C551 N548 1.346 . S
C551 C550 1.369 . S
C551 H554 0.928 . S
C552 N548 1.345 1_655 S
C552 C553 1.371 . S
C552 H555 0.931 . S
C553 C549 1.391 1_655 S
C553 C552 1.371 . S
C553 H560 0.930 . S
H554 C551 0.928 . S
H555 C552 0.931 . S
H556 C532 0.930 . S
H557 C529 0.930 . S
H558 C538 0.930 . S
H559 C550 0.929 . S
H560 C553 0.930 . S
C561 C562 1.351 . S
C561 N564 1.368 . S
C561 H566 0.931 . S
C562 C561 1.351 . S
C562 N563 1.373 . S
C562 H590 0.930 . S
N563 C562 1.373 . S
N563 C565 1.340 . S
N564 C561 1.368 . S
N564 C565 1.321 . S
N564 Co567 2.135 . S
C565 N563 1.340 . S
C565 N564 1.321 . S
C565 H589 0.930 . S
H566 C561 0.931 . S
Co567 N564 2.135 . S
Co567 N570 2.121 . S
Co567 O575 2.055 . S
Co567 O578 2.039 . S
Co567 N581 2.140 . S
C568 O569 1.227 . S
C568 O578 1.265 . S
O569 C568 1.227 . S
N570 Co567 2.121 . S
N570 C572 1.375 . S
N570 C573 1.313 . S
C571 C572 1.338 . S
C571 N574 1.377 . S
C571 H591 0.930 . S
C572 N570 1.375 . S
C572 C571 1.338 . S
C572 H576 0.931 . S
C573 N570 1.313 . S
C573 N574 1.344 . S
C573 H577 0.930 . S
N574 C571 1.377 . S
N574 C573 1.344 . S
O575 Co567 2.055 . S
O575 C579 1.253 . S
H576 C572 0.931 . S
H577 C573 0.930 . S
O578 Co567 2.039 . S
O578 C568 1.265 . S
C579 O575 1.253 . S
C579 O580 1.227 . S
O580 C579 1.227 . S
N581 Co567 2.140 . S
N581 C584 1.346 . S
N581 C585 1.345 . S
C582 C583 1.387 . S
C582 C586 1.391 . S
C583 C582 1.387 . S
C583 C584 1.369 . S
C583 H592 0.929 . S
C584 N581 1.346 . S
C584 C583 1.369 . S
C584 H587 0.928 . S
C585 N581 1.345 . S
C585 C586 1.371 . S
C585 H588 0.931 . S
C586 C582 1.391 . S
C586 C585 1.371 . S
C586 H593 0.930 . S
H587 C584 0.928 . S
H588 C585 0.931 . S
H589 C565 0.930 . S
H590 C562 0.930 . S
H591 C571 0.930 . S
H592 C583 0.929 . S
H593 C586 0.930 . S
C594 C595 1.351 . S
C594 N597 1.368 . S
C594 H599 0.931 1_655 S
C595 C594 1.351 . S
C595 N596 1.373 . S
C595 H623 0.930 . S
N596 C595 1.373 . S
N596 C598 1.340 . S
N597 C594 1.368 . S
N597 C598 1.321 . S
N597 Co600 2.135 1_655 S
C598 N596 1.340 . S
C598 N597 1.321 . S
C598 H622 0.930 . S
H599 C594 0.931 1_455 S
Co600 N597 2.135 1_455 S
Co600 N603 2.121 . S
Co600 O608 2.055 . S
Co600 O611 2.039 1_455 S
Co600 N614 2.140 . S
C601 O602 1.227 . S
C601 O611 1.265 . S
O602 C601 1.227 . S
N603 Co600 2.121 . S
N603 C605 1.375 . S
N603 C606 1.313 . S
C604 C605 1.338 . S
C604 N607 1.377 . S
C604 H624 0.930 . S
C605 N603 1.375 . S
C605 C604 1.338 . S
C605 H609 0.931 . S
C606 N603 1.313 . S
C606 N607 1.344 . S
C606 H610 0.930 . S
N607 C604 1.377 . S
N607 C606 1.344 . S
O608 Co600 2.055 . S
O608 C612 1.253 . S
H609 C605 0.931 . S
H610 C606 0.930 . S
O611 Co600 2.039 1_655 S
O611 C601 1.265 . S
C612 O608 1.253 . S
C612 O613 1.227 . S
O613 C612 1.227 . S
N614 Co600 2.140 . S
N614 C617 1.346 1_455 S
N614 C618 1.345 . S
C615 C616 1.387 1_455 S
C615 C619 1.391 . S
C616 C615 1.387 1_655 S
C616 C617 1.369 . S
C616 H625 0.929 . S
C617 N614 1.346 1_655 S
C617 C616 1.369 . S
C617 H620 0.928 . S
C618 N614 1.345 . S
C618 C619 1.371 . S
C618 H621 0.931 . S
C619 C615 1.391 . S
C619 C618 1.371 . S
C619 H626 0.930 . S
H620 C617 0.928 . S
H621 C618 0.931 . S
H622 C598 0.930 . S
H623 C595 0.930 . S
H624 C604 0.930 . S
H625 C616 0.929 . S
H626 C619 0.930 . S
C627 C628 1.351 . S
C627 N630 1.368 . S
C627 H632 0.931 . S
C628 C627 1.351 . S
C628 N629 1.373 . S
C628 H656 0.930 . S
N629 C628 1.373 . S
N629 C631 1.340 . S
N630 C627 1.368 . S
N630 C631 1.321 . S
N630 Co633 2.135 . S
C631 N629 1.340 . S
C631 N630 1.321 . S
C631 H655 0.930 . S
H632 C627 0.931 . S
Co633 N630 2.135 . S
Co633 N636 2.121 . S
Co633 O641 2.055 . S
Co633 O644 2.039 . S
Co633 N647 2.140 . S
C634 O635 1.227 . S
C634 O644 1.265 . S
O635 C634 1.227 . S
N636 Co633 2.121 . S
N636 C638 1.375 . S
N636 C639 1.313 . S
C637 C638 1.338 . S
C637 N640 1.377 . S
C637 H657 0.930 . S
C638 N636 1.375 . S
C638 C637 1.338 . S
C638 H642 0.931 . S
C639 N636 1.313 . S
C639 N640 1.344 . S
C639 H643 0.930 . S
N640 C637 1.377 . S
N640 C639 1.344 . S
O641 Co633 2.055 . S
O641 C645 1.253 . S
H642 C638 0.931 . S
H643 C639 0.930 . S
O644 Co633 2.039 . S
O644 C634 1.265 . S
C645 O641 1.253 . S
C645 O646 1.227 . S
O646 C645 1.227 . S
N647 Co633 2.140 . S
N647 C650 1.346 . S
N647 C651 1.345 . S
C648 C649 1.387 . S
C648 C652 1.391 . S
C649 C648 1.387 . S
C649 C650 1.369 . S
C649 H658 0.929 . S
C650 N647 1.346 . S
C650 C649 1.369 . S
C650 H653 0.928 . S
C651 N647 1.345 . S
C651 C652 1.371 . S
C651 H654 0.931 . S
C652 C648 1.391 . S
C652 C651 1.371 . S
C652 H659 0.930 . S
H653 C650 0.928 . S
H654 C651 0.931 . S
H655 C631 0.930 . S
H656 C628 0.930 . S
H657 C637 0.930 . S
H658 C649 0.929 . S
H659 C652 0.930 . S
C660 C661 1.351 . S
C660 N663 1.368 . S
C660 H665 0.931 . S
C661 C660 1.351 . S
C661 N662 1.373 . S
C661 H689 0.930 . S
N662 C661 1.373 . S
N662 C664 1.340 . S
N663 C660 1.368 . S
N663 C664 1.321 . S
N663 Co666 2.135 . S
C664 N662 1.340 . S
C664 N663 1.321 . S
C664 H688 0.930 . S
H665 C660 0.931 . S
Co666 N663 2.135 . S
Co666 N669 2.121 . S
Co666 O674 2.055 . S
Co666 O677 2.039 . S
Co666 N680 2.140 . S
C667 O668 1.227 . S
C667 O677 1.265 . S
O668 C667 1.227 . S
N669 Co666 2.121 . S
N669 C671 1.375 . S
N669 C672 1.313 . S
C670 C671 1.338 . S
C670 N673 1.377 . S
C670 H690 0.930 . S
C671 N669 1.375 . S
C671 C670 1.338 . S
C671 H675 0.931 . S
C672 N669 1.313 . S
C672 N673 1.344 . S
C672 H676 0.930 . S
N673 C670 1.377 . S
N673 C672 1.344 . S
O674 Co666 2.055 . S
O674 C678 1.253 . S
H675 C671 0.931 . S
H676 C672 0.930 . S
O677 Co666 2.039 . S
O677 C667 1.265 . S
C678 O674 1.253 . S
C678 O679 1.227 . S
O679 C678 1.227 . S
N680 Co666 2.140 . S
N680 C683 1.346 . S
N680 C684 1.345 . S
C681 C682 1.387 . S
C681 C685 1.391 . S
C682 C681 1.387 . S
C682 C683 1.369 . S
C682 H691 0.929 . S
C683 N680 1.346 . S
C683 C682 1.369 . S
C683 H686 0.928 . S
C684 N680 1.345 . S
C684 C685 1.371 . S
C684 H687 0.931 . S
C685 C681 1.391 . S
C685 C684 1.371 . S
C685 H692 0.930 . S
H686 C683 0.928 . S
H687 C684 0.931 . S
H688 C664 0.930 . S
H689 C661 0.930 . S
H690 C670 0.930 . S
H691 C682 0.929 . S
H692 C685 0.930 . S
C693 C694 1.351 . S
C693 N696 1.368 . S
C693 H698 0.931 . S
C694 C693 1.351 . S
C694 N695 1.373 . S
C694 H722 0.930 . S
N695 C694 1.373 . S
N695 C697 1.340 . S
N696 C693 1.368 . S
N696 C697 1.321 . S
N696 Co699 2.135 . S
C697 N695 1.340 . S
C697 N696 1.321 . S
C697 H721 0.930 . S
H698 C693 0.931 . S
Co699 N696 2.135 . S
Co699 N702 2.121 . S
Co699 O707 2.055 . S
Co699 O710 2.039 . S
Co699 N713 2.140 . S
C700 O701 1.227 . S
C700 O710 1.265 . S
O701 C700 1.227 . S
N702 Co699 2.121 . S
N702 C704 1.375 . S
N702 C705 1.313 . S
C703 C704 1.338 . S
C703 N706 1.377 . S
C703 H723 0.930 . S
C704 N702 1.375 . S
C704 C703 1.338 . S
C704 H708 0.931 . S
C705 N702 1.313 . S
C705 N706 1.344 . S
C705 H709 0.930 . S
N706 C703 1.377 . S
N706 C705 1.344 . S
O707 Co699 2.055 . S
O707 C711 1.253 . S
H708 C704 0.931 . S
H709 C705 0.930 . S
O710 Co699 2.039 . S
O710 C700 1.265 . S
C711 O707 1.253 . S
C711 O712 1.227 . S
O712 C711 1.227 . S
N713 Co699 2.140 . S
N713 C716 1.346 . S
N713 C717 1.345 . S
C714 C715 1.387 . S
C714 C718 1.391 . S
C715 C714 1.387 . S
C715 C716 1.369 . S
C715 H724 0.929 . S
C716 N713 1.346 . S
C716 C715 1.369 . S
C716 H719 0.928 . S
C717 N713 1.345 . S
C717 C718 1.371 . S
C717 H720 0.931 . S
C718 C714 1.391 . S
C718 C717 1.371 . S
C718 H725 0.930 . S
H719 C716 0.928 . S
H720 C717 0.931 . S
H721 C697 0.930 . S
H722 C694 0.930 . S
H723 C703 0.930 . S
H724 C715 0.929 . S
H725 C718 0.930 . S
C726 C727 1.351 . S
C726 N729 1.368 . S
C726 H731 0.931 . S
C727 C726 1.351 . S
C727 N728 1.373 . S
C727 H755 0.930 . S
N728 C727 1.373 . S
N728 C730 1.340 . S
N729 C726 1.368 . S
N729 C730 1.321 . S
N729 Co732 2.135 . S
C730 N728 1.340 . S
C730 N729 1.321 . S
C730 H754 0.930 . S
H731 C726 0.931 . S
Co732 N729 2.135 . S
Co732 N735 2.121 . S
Co732 O740 2.055 . S
Co732 O743 2.039 . S
Co732 N746 2.140 . S
C733 O734 1.227 . S
C733 O743 1.265 . S
O734 C733 1.227 . S
N735 Co732 2.121 . S
N735 C737 1.375 . S
N735 C738 1.313 . S
C736 C737 1.338 . S
C736 N739 1.377 . S
C736 H756 0.930 . S
C737 N735 1.375 . S
C737 C736 1.338 . S
C737 H741 0.931 . S
C738 N735 1.313 . S
C738 N739 1.344 . S
C738 H742 0.930 . S
N739 C736 1.377 . S
N739 C738 1.344 . S
O740 Co732 2.055 . S
O740 C744 1.253 . S
H741 C737 0.931 . S
H742 C738 0.930 . S
O743 Co732 2.039 . S
O743 C733 1.265 . S
C744 O740 1.253 . S
C744 O745 1.227 . S
O745 C744 1.227 . S
N746 Co732 2.140 . S
N746 C749 1.346 . S
N746 C750 1.345 . S
C747 C748 1.387 . S
C747 C751 1.391 . S
C748 C747 1.387 . S
C748 C749 1.369 . S
C748 H757 0.929 . S
C749 N746 1.346 . S
C749 C748 1.369 . S
C749 H752 0.928 . S
C750 N746 1.345 . S
C750 C751 1.371 . S
C750 H753 0.931 . S
C751 C747 1.391 . S
C751 C750 1.371 . S
C751 H758 0.930 . S
H752 C749 0.928 . S
H753 C750 0.931 . S
H754 C730 0.930 . S
H755 C727 0.930 . S
H756 C736 0.930 . S
H757 C748 0.929 . S
H758 C751 0.930 . S
C759 C760 1.351 . S
C759 N762 1.368 . S
C759 H764 0.931 . S
C760 C759 1.351 . S
C760 N761 1.373 . S
C760 H788 0.930 . S
N761 C760 1.373 . S
N761 C763 1.340 . S
N762 C759 1.368 . S
N762 C763 1.321 . S
N762 Co765 2.135 . S
C763 N761 1.340 . S
C763 N762 1.321 . S
C763 H787 0.930 . S
H764 C759 0.931 . S
Co765 N762 2.135 . S
Co765 N768 2.121 . S
Co765 O773 2.055 . S
Co765 O776 2.039 . S
Co765 N779 2.140 . S
C766 O767 1.227 . S
C766 O776 1.265 . S
O767 C766 1.227 . S
N768 Co765 2.121 . S
N768 C770 1.375 . S
N768 C771 1.313 . S
C769 C770 1.338 . S
C769 N772 1.377 . S
C769 H789 0.930 . S
C770 N768 1.375 . S
C770 C769 1.338 . S
C770 H774 0.931 . S
C771 N768 1.313 . S
C771 N772 1.344 . S
C771 H775 0.930 . S
N772 C769 1.377 . S
N772 C771 1.344 . S
O773 Co765 2.055 . S
O773 C777 1.253 . S
H774 C770 0.931 . S
H775 C771 0.930 . S
O776 Co765 2.039 . S
O776 C766 1.265 . S
C777 O773 1.253 . S
C777 O778 1.227 . S
O778 C777 1.227 . S
N779 Co765 2.140 . S
N779 C782 1.346 . S
N779 C783 1.345 . S
C780 C781 1.387 . S
C780 C784 1.391 . S
C781 C780 1.387 . S
C781 C782 1.369 . S
C781 H790 0.929 . S
C782 N779 1.346 . S
C782 C781 1.369 . S
C782 H785 0.928 . S
C783 N779 1.345 . S
C783 C784 1.371 . S
C783 H786 0.931 . S
C784 C780 1.391 . S
C784 C783 1.371 . S
C784 H791 0.930 . S
H785 C782 0.928 . S
H786 C783 0.931 . S
H787 C763 0.930 . S
H788 C760 0.930 . S
H789 C769 0.930 . S
H790 C781 0.929 . S
H791 C784 0.930 . S
C792 C793 1.351 . S
C792 N795 1.368 . S
C792 H797 0.931 . S
C793 C792 1.351 . S
C793 N794 1.373 . S
C793 H821 0.930 . S
N794 C793 1.373 . S
N794 C796 1.340 . S
N795 C792 1.368 . S
N795 C796 1.321 . S
N795 Co798 2.135 . S
C796 N794 1.340 . S
C796 N795 1.321 . S
C796 H820 0.930 . S
H797 C792 0.931 . S
Co798 N795 2.135 . S
Co798 N801 2.121 . S
Co798 O806 2.055 . S
Co798 O809 2.039 . S
Co798 N812 2.140 . S
C799 O800 1.227 . S
C799 O809 1.265 . S
O800 C799 1.227 . S
N801 Co798 2.121 . S
N801 C803 1.375 . S
N801 C804 1.313 . S
C802 C803 1.338 . S
C802 N805 1.377 . S
C802 H822 0.930 . S
C803 N801 1.375 . S
C803 C802 1.338 . S
C803 H807 0.931 . S
C804 N801 1.313 . S
C804 N805 1.344 . S
C804 H808 0.930 . S
N805 C802 1.377 . S
N805 C804 1.344 . S
O806 Co798 2.055 . S
O806 C810 1.253 . S
H807 C803 0.931 . S
H808 C804 0.930 . S
O809 Co798 2.039 . S
O809 C799 1.265 . S
C810 O806 1.253 . S
C810 O811 1.227 . S
O811 C810 1.227 . S
N812 Co798 2.140 . S
N812 C815 1.346 . S
N812 C816 1.345 . S
C813 C814 1.387 . S
C813 C817 1.391 . S
C814 C813 1.387 . S
C814 C815 1.369 . S
C814 H823 0.929 . S
C815 N812 1.346 . S
C815 C814 1.369 . S
C815 H818 0.928 . S
C816 N812 1.345 . S
C816 C817 1.371 . S
C816 H819 0.931 . S
C817 C813 1.391 . S
C817 C816 1.371 . S
C817 H824 0.930 . S
H818 C815 0.928 . S
H819 C816 0.931 . S
H820 C796 0.930 . S
H821 C793 0.930 . S
H822 C802 0.930 . S
H823 C814 0.929 . S
H824 C817 0.930 . S
C825 C826 1.351 . S
C825 N828 1.368 . S
C825 H830 0.931 . S
C826 C825 1.351 . S
C826 N827 1.373 . S
C826 H854 0.930 . S
N827 C826 1.373 . S
N827 C829 1.340 . S
N828 C825 1.368 . S
N828 C829 1.321 . S
N828 Co831 2.135 . S
C829 N827 1.340 . S
C829 N828 1.321 . S
C829 H853 0.930 . S
H830 C825 0.931 . S
Co831 N828 2.135 . S
Co831 N834 2.121 1_545 S
Co831 O839 2.055 1_545 S
Co831 O842 2.039 . S
Co831 N845 2.140 . S
C832 O833 1.227 . S
C832 O842 1.265 . S
O833 C832 1.227 . S
N834 Co831 2.121 1_565 S
N834 C836 1.375 . S
N834 C837 1.313 . S
C835 C836 1.338 . S
C835 N838 1.377 . S
C835 H855 0.930 . S
C836 N834 1.375 . S
C836 C835 1.338 . S
C836 H840 0.931 1_565 S
C837 N834 1.313 . S
C837 N838 1.344 . S
C837 H841 0.930 . S
N838 C835 1.377 . S
N838 C837 1.344 . S
O839 Co831 2.055 1_565 S
O839 C843 1.253 . S
H840 C836 0.931 1_545 S
H841 C837 0.930 . S
O842 Co831 2.039 . S
O842 C832 1.265 . S
C843 O839 1.253 . S
C843 O844 1.227 . S
O844 C843 1.227 . S
N845 Co831 2.140 . S
N845 C848 1.346 . S
N845 C849 1.345 1_545 S
C846 C847 1.387 . S
C846 C850 1.391 1_545 S
C847 C846 1.387 . S
C847 C848 1.369 . S
C847 H856 0.929 . S
C848 N845 1.346 . S
C848 C847 1.369 . S
C848 H851 0.928 . S
C849 N845 1.345 1_565 S
C849 C850 1.371 . S
C849 H852 0.931 . S
C850 C846 1.391 1_565 S
C850 C849 1.371 . S
C850 H857 0.930 . S
H851 C848 0.928 . S
H852 C849 0.931 . S
H853 C829 0.930 . S
H854 C826 0.930 . S
H855 C835 0.930 . S
H856 C847 0.929 . S
H857 C850 0.930 . S
C858 C859 1.351 . S
C858 N861 1.368 . S
C858 H863 0.931 . S
C859 C858 1.351 . S
C859 N860 1.373 . S
C859 H887 0.930 . S
N860 C859 1.373 . S
N860 C862 1.340 . S
N861 C858 1.368 . S
N861 C862 1.321 . S
N861 Co864 2.135 . S
C862 N860 1.340 . S
C862 N861 1.321 . S
C862 H886 0.930 . S
H863 C858 0.931 . S
Co864 N861 2.135 . S
Co864 N867 2.121 . S
Co864 O872 2.055 . S
Co864 O875 2.039 . S
Co864 N878 2.140 . S
C865 O866 1.227 . S
C865 O875 1.265 . S
O866 C865 1.227 . S
N867 Co864 2.121 . S
N867 C869 1.375 . S
N867 C870 1.313 . S
C868 C869 1.338 . S
C868 N871 1.377 . S
C868 H888 0.930 . S
C869 N867 1.375 . S
C869 C868 1.338 . S
C869 H873 0.931 . S
C870 N867 1.313 . S
C870 N871 1.344 . S
C870 H874 0.930 . S
N871 C868 1.377 . S
N871 C870 1.344 . S
O872 Co864 2.055 . S
O872 C876 1.253 . S
H873 C869 0.931 . S
H874 C870 0.930 . S
O875 Co864 2.039 . S
O875 C865 1.265 . S
C876 O872 1.253 . S
C876 O877 1.227 . S
O877 C876 1.227 . S
N878 Co864 2.140 . S
N878 C881 1.346 . S
N878 C882 1.345 . S
C879 C880 1.387 . S
C879 C883 1.391 . S
C880 C879 1.387 . S
C880 C881 1.369 . S
C880 H889 0.929 . S
C881 N878 1.346 . S
C881 C880 1.369 . S
C881 H884 0.928 . S
C882 N878 1.345 . S
C882 C883 1.371 . S
C882 H885 0.931 . S
C883 C879 1.391 . S
C883 C882 1.371 . S
C883 H890 0.930 . S
H884 C881 0.928 . S
H885 C882 0.931 . S
H886 C862 0.930 . S
H887 C859 0.930 . S
H888 C868 0.930 . S
H889 C880 0.929 . S
H890 C883 0.930 . S
C891 C892 1.351 . S
C891 N894 1.368 . S
C891 H896 0.931 1_565 S
C892 C891 1.351 . S
C892 N893 1.373 . S
C892 H920 0.930 . S
N893 C892 1.373 . S
N893 C895 1.340 . S
N894 C891 1.368 . S
N894 C895 1.321 . S
N894 Co897 2.135 1_565 S
C895 N893 1.340 . S
C895 N894 1.321 . S
C895 H919 0.930 . S
H896 C891 0.931 1_545 S
Co897 N894 2.135 1_545 S
Co897 N900 2.121 . S
Co897 O905 2.055 . S
Co897 O908 2.039 1_545 S
Co897 N911 2.140 . S
C898 O899 1.227 . S
C898 O908 1.265 . S
O899 C898 1.227 . S
N900 Co897 2.121 . S
N900 C902 1.375 . S
N900 C903 1.313 . S
C901 C902 1.338 . S
C901 N904 1.377 . S
C901 H921 0.930 . S
C902 N900 1.375 . S
C902 C901 1.338 . S
C902 H906 0.931 . S
C903 N900 1.313 . S
C903 N904 1.344 . S
C903 H907 0.930 . S
N904 C901 1.377 . S
N904 C903 1.344 . S
O905 Co897 2.055 . S
O905 C909 1.253 . S
H906 C902 0.931 . S
H907 C903 0.930 . S
O908 Co897 2.039 1_565 S
O908 C898 1.265 . S
C909 O905 1.253 . S
C909 O910 1.227 . S
O910 C909 1.227 . S
N911 Co897 2.140 . S
N911 C914 1.346 1_545 S
N911 C915 1.345 . S
C912 C913 1.387 1_545 S
C912 C916 1.391 . S
C913 C912 1.387 1_565 S
C913 C914 1.369 . S
C913 H922 0.929 . S
C914 N911 1.346 1_565 S
C914 C913 1.369 . S
C914 H917 0.928 . S
C915 N911 1.345 . S
C915 C916 1.371 . S
C915 H918 0.931 . S
C916 C912 1.391 . S
C916 C915 1.371 . S
C916 H923 0.930 . S
H917 C914 0.928 . S
H918 C915 0.931 . S
H919 C895 0.930 . S
H920 C892 0.930 . S
H921 C901 0.930 . S
H922 C913 0.929 . S
H923 C916 0.930 . S
C924 C925 1.351 . S
C924 N927 1.368 . S
C924 H929 0.931 . S
C925 C924 1.351 . S
C925 N926 1.373 . S
C925 H953 0.930 . S
N926 C925 1.373 . S
N926 C928 1.340 . S
N927 C924 1.368 . S
N927 C928 1.321 . S
N927 Co930 2.135 . S
C928 N926 1.340 . S
C928 N927 1.321 . S
C928 H952 0.930 . S
H929 C924 0.931 . S
Co930 N927 2.135 . S
Co930 N933 2.121 . S
Co930 O938 2.055 . S
Co930 O941 2.039 . S
Co930 N944 2.140 . S
C931 O932 1.227 . S
C931 O941 1.265 . S
O932 C931 1.227 . S
N933 Co930 2.121 . S
N933 C935 1.375 . S
N933 C936 1.313 . S
C934 C935 1.338 . S
C934 N937 1.377 . S
C934 H954 0.930 . S
C935 N933 1.375 . S
C935 C934 1.338 . S
C935 H939 0.931 . S
C936 N933 1.313 . S
C936 N937 1.344 . S
C936 H940 0.930 . S
N937 C934 1.377 . S
N937 C936 1.344 . S
O938 Co930 2.055 . S
O938 C942 1.253 . S
H939 C935 0.931 . S
H940 C936 0.930 . S
O941 Co930 2.039 . S
O941 C931 1.265 . S
C942 O938 1.253 . S
C942 O943 1.227 . S
O943 C942 1.227 . S
N944 Co930 2.140 . S
N944 C947 1.346 . S
N944 C948 1.345 . S
C945 C946 1.387 . S
C945 C949 1.391 . S
C946 C945 1.387 . S
C946 C947 1.369 . S
C946 H955 0.929 . S
C947 N944 1.346 . S
C947 C946 1.369 . S
C947 H950 0.928 . S
C948 N944 1.345 . S
C948 C949 1.371 . S
C948 H951 0.931 . S
C949 C945 1.391 . S
C949 C948 1.371 . S
C949 H956 0.930 . S
H950 C947 0.928 . S
H951 C948 0.931 . S
H952 C928 0.930 . S
H953 C925 0.930 . S
H954 C934 0.930 . S
H955 C946 0.929 . S
H956 C949 0.930 . S
C957 C958 1.351 . S
C957 N960 1.368 . S
C957 H962 0.931 1_565 S
C958 C957 1.351 . S
C958 N959 1.373 . S
C958 H986 0.930 . S
N959 C958 1.373 . S
N959 C961 1.340 . S
N960 C957 1.368 . S
N960 C961 1.321 . S
N960 Co963 2.135 1_565 S
C961 N959 1.340 . S
C961 N960 1.321 . S
C961 H985 0.930 . S
H962 C957 0.931 1_545 S
Co963 N960 2.135 1_545 S
Co963 N966 2.121 . S
Co963 O971 2.055 . S
Co963 O974 2.039 1_545 S
Co963 N977 2.140 . S
C964 O965 1.227 . S
C964 O974 1.265 . S
O965 C964 1.227 . S
N966 Co963 2.121 . S
N966 C968 1.375 . S
N966 C969 1.313 . S
C967 C968 1.338 . S
C967 N970 1.377 . S
C967 H987 0.930 . S
C968 N966 1.375 . S
C968 C967 1.338 . S
C968 H972 0.931 . S
C969 N966 1.313 . S
C969 N970 1.344 . S
C969 H973 0.930 . S
N970 C967 1.377 . S
N970 C969 1.344 . S
O971 Co963 2.055 . S
O971 C975 1.253 . S
H972 C968 0.931 . S
H973 C969 0.930 . S
O974 Co963 2.039 1_565 S
O974 C964 1.265 . S
C975 O971 1.253 . S
C975 O976 1.227 . S
O976 C975 1.227 . S
N977 Co963 2.140 . S
N977 C980 1.346 1_545 S
N977 C981 1.345 . S
C978 C979 1.387 1_545 S
C978 C982 1.391 . S
C979 C978 1.387 1_565 S
C979 C980 1.369 . S
C979 H988 0.929 . S
C980 N977 1.346 1_565 S
C980 C979 1.369 . S
C980 H983 0.928 . S
C981 N977 1.345 . S
C981 C982 1.371 . S
C981 H984 0.931 . S
C982 C978 1.391 . S
C982 C981 1.371 . S
C982 H989 0.930 . S
H983 C980 0.928 . S
H984 C981 0.931 . S
H985 C961 0.930 . S
H986 C958 0.930 . S
H987 C967 0.930 . S
H988 C979 0.929 . S
H989 C982 0.930 . S
C990 C991 1.351 . S
C990 N993 1.368 . S
C990 H995 0.931 . S
C991 C990 1.351 . S
C991 N992 1.373 . S
C991 H1019 0.930 . S
N992 C991 1.373 . S
N992 C994 1.340 . S
N993 C990 1.368 . S
N993 C994 1.321 . S
N993 Co996 2.135 . S
C994 N992 1.340 . S
C994 N993 1.321 . S
C994 H1018 0.930 . S
H995 C990 0.931 . S
Co996 N993 2.135 . S
Co996 N999 2.121 . S
Co996 O1004 2.055 . S
Co996 O1007 2.039 . S
Co996 N1010 2.140 . S
C997 O998 1.227 . S
C997 O1007 1.265 . S
O998 C997 1.227 . S
N999 Co996 2.121 . S
N999 C1001 1.375 . S
N999 C1002 1.313 . S
C1000 C1001 1.338 . S
C1000 N1003 1.377 . S
C1000 H1020 0.930 . S
C1001 N999 1.375 . S
C1001 C1000 1.338 . S
C1001 H1005 0.931 . S
C1002 N999 1.313 . S
C1002 N1003 1.344 . S
C1002 H1006 0.930 . S
N1003 C1000 1.377 . S
N1003 C1002 1.344 . S
O1004 Co996 2.055 . S
O1004 C1008 1.253 . S
H1005 C1001 0.931 . S
H1006 C1002 0.930 . S
O1007 Co996 2.039 . S
O1007 C997 1.265 . S
C1008 O1004 1.253 . S
C1008 O1009 1.227 . S
O1009 C1008 1.227 . S
N1010 Co996 2.140 . S
N1010 C1013 1.346 . S
N1010 C1014 1.345 . S
C1011 C1012 1.387 . S
C1011 C1015 1.391 . S
C1012 C1011 1.387 . S
C1012 C1013 1.369 . S
C1012 H1021 0.929 . S
C1013 N1010 1.346 . S
C1013 C1012 1.369 . S
C1013 H1016 0.928 . S
C1014 N1010 1.345 . S
C1014 C1015 1.371 . S
C1014 H1017 0.931 . S
C1015 C1011 1.391 . S
C1015 C1014 1.371 . S
C1015 H1022 0.930 . S
H1016 C1013 0.928 . S
H1017 C1014 0.931 . S
H1018 C994 0.930 . S
H1019 C991 0.930 . S
H1020 C1000 0.930 . S
H1021 C1012 0.929 . S
H1022 C1015 0.930 . S
C1023 C1024 1.351 . S
C1023 N1026 1.368 . S
C1023 H1028 0.931 . S
C1024 C1023 1.351 . S
C1024 N1025 1.373 . S
C1024 H1052 0.930 . S
N1025 C1024 1.373 . S
N1025 C1027 1.340 . S
N1026 C1023 1.368 . S
N1026 C1027 1.321 . S
N1026 Co1029 2.135 . S
C1027 N1025 1.340 . S
C1027 N1026 1.321 . S
C1027 H1051 0.930 . S
H1028 C1023 0.931 . S
Co1029 N1026 2.135 . S
Co1029 N1032 2.121 1_545 S
Co1029 O1037 2.055 1_545 S
Co1029 O1040 2.039 . S
Co1029 N1043 2.140 . S
C1030 O1031 1.227 . S
C1030 O1040 1.265 . S
O1031 C1030 1.227 . S
N1032 Co1029 2.121 1_565 S
N1032 C1034 1.375 . S
N1032 C1035 1.313 . S
C1033 C1034 1.338 . S
C1033 N1036 1.377 . S
C1033 H1053 0.930 . S
C1034 N1032 1.375 . S
C1034 C1033 1.338 . S
C1034 H1038 0.931 1_565 S
C1035 N1032 1.313 . S
C1035 N1036 1.344 . S
C1035 H1039 0.930 . S
N1036 C1033 1.377 . S
N1036 C1035 1.344 . S
O1037 Co1029 2.055 1_565 S
O1037 C1041 1.253 . S
H1038 C1034 0.931 1_545 S
H1039 C1035 0.930 . S
O1040 Co1029 2.039 . S
O1040 C1030 1.265 . S
C1041 O1037 1.253 . S
C1041 O1042 1.227 . S
O1042 C1041 1.227 . S
N1043 Co1029 2.140 . S
N1043 C1046 1.346 . S
N1043 C1047 1.345 1_545 S
C1044 C1045 1.387 . S
C1044 C1048 1.391 1_545 S
C1045 C1044 1.387 . S
C1045 C1046 1.369 . S
C1045 H1054 0.929 . S
C1046 N1043 1.346 . S
C1046 C1045 1.369 . S
C1046 H1049 0.928 . S
C1047 N1043 1.345 1_565 S
C1047 C1048 1.371 . S
C1047 H1050 0.931 . S
C1048 C1044 1.391 1_565 S
C1048 C1047 1.371 . S
C1048 H1055 0.930 . S
H1049 C1046 0.928 . S
H1050 C1047 0.931 . S
H1051 C1027 0.930 . S
H1052 C1024 0.930 . S
H1053 C1033 0.930 . S
H1054 C1045 0.929 . S
H1055 C1048 0.930 . S
C1056 C1057 1.351 . S
C1056 N1059 1.368 . S
C1056 H1061 0.931 . S
C1057 C1056 1.351 . S
C1057 N1058 1.373 . S
C1057 H1085 0.930 . S
N1058 C1057 1.373 . S
N1058 C1060 1.340 . S
N1059 C1056 1.368 . S
N1059 C1060 1.321 . S
N1059 Co1062 2.135 . S
C1060 N1058 1.340 . S
C1060 N1059 1.321 . S
C1060 H1084 0.930 . S
H1061 C1056 0.931 . S
Co1062 N1059 2.135 . S
Co1062 N1065 2.121 . S
Co1062 O1070 2.055 . S
Co1062 O1073 2.039 . S
Co1062 N1076 2.140 . S
C1063 O1064 1.227 . S
C1063 O1073 1.265 . S
O1064 C1063 1.227 . S
N1065 Co1062 2.121 . S
N1065 C1067 1.375 . S
N1065 C1068 1.313 . S
C1066 C1067 1.338 . S
C1066 N1069 1.377 . S
C1066 H1086 0.930 . S
C1067 N1065 1.375 . S
C1067 C1066 1.338 . S
C1067 H1071 0.931 . S
C1068 N1065 1.313 . S
C1068 N1069 1.344 . S
C1068 H1072 0.930 . S
N1069 C1066 1.377 . S
N1069 C1068 1.344 . S
O1070 Co1062 2.055 . S
O1070 C1074 1.253 . S
H1071 C1067 0.931 . S
H1072 C1068 0.930 . S
O1073 Co1062 2.039 . S
O1073 C1063 1.265 . S
C1074 O1070 1.253 . S
C1074 O1075 1.227 . S
O1075 C1074 1.227 . S
N1076 Co1062 2.140 . S
N1076 C1079 1.346 . S
N1076 C1080 1.345 . S
C1077 C1078 1.387 . S
C1077 C1081 1.391 . S
C1078 C1077 1.387 . S
C1078 C1079 1.369 . S
C1078 H1087 0.929 . S
C1079 N1076 1.346 . S
C1079 C1078 1.369 . S
C1079 H1082 0.928 . S
C1080 N1076 1.345 . S
C1080 C1081 1.371 . S
C1080 H1083 0.931 . S
C1081 C1077 1.391 . S
C1081 C1080 1.371 . S
C1081 H1088 0.930 . S
H1082 C1079 0.928 . S
H1083 C1080 0.931 . S
H1084 C1060 0.930 . S
H1085 C1057 0.930 . S
H1086 C1066 0.930 . S
H1087 C1078 0.929 . S
H1088 C1081 0.930 . S
C1089 C1090 1.351 . S
C1089 N1092 1.368 . S
C1089 H1094 0.931 . S
C1090 C1089 1.351 . S
C1090 N1091 1.373 . S
C1090 H1118 0.930 . S
N1091 C1090 1.373 . S
N1091 C1093 1.340 . S
N1092 C1089 1.368 . S
N1092 C1093 1.321 . S
N1092 Co1095 2.135 . S
C1093 N1091 1.340 . S
C1093 N1092 1.321 . S
C1093 H1117 0.930 . S
H1094 C1089 0.931 . S
Co1095 N1092 2.135 . S
Co1095 N1098 2.121 . S
Co1095 O1103 2.055 . S
Co1095 O1106 2.039 . S
Co1095 N1109 2.140 . S
C1096 O1097 1.227 . S
C1096 O1106 1.265 . S
O1097 C1096 1.227 . S
N1098 Co1095 2.121 . S
N1098 C1100 1.375 . S
N1098 C1101 1.313 . S
C1099 C1100 1.338 . S
C1099 N1102 1.377 . S
C1099 H1119 0.930 . S
C1100 N1098 1.375 . S
C1100 C1099 1.338 . S
C1100 H1104 0.931 . S
C1101 N1098 1.313 . S
C1101 N1102 1.344 . S
C1101 H1105 0.930 . S
N1102 C1099 1.377 . S
N1102 C1101 1.344 . S
O1103 Co1095 2.055 . S
O1103 C1107 1.253 . S
H1104 C1100 0.931 . S
H1105 C1101 0.930 . S
O1106 Co1095 2.039 . S
O1106 C1096 1.265 . S
C1107 O1103 1.253 . S
C1107 O1108 1.227 . S
O1108 C1107 1.227 . S
N1109 Co1095 2.140 . S
N1109 C1112 1.346 . S
N1109 C1113 1.345 . S
C1110 C1111 1.387 . S
C1110 C1114 1.391 . S
C1111 C1110 1.387 . S
C1111 C1112 1.369 . S
C1111 H1120 0.929 . S
C1112 N1109 1.346 . S
C1112 C1111 1.369 . S
C1112 H1115 0.928 . S
C1113 N1109 1.345 . S
C1113 C1114 1.371 . S
C1113 H1116 0.931 . S
C1114 C1110 1.391 . S
C1114 C1113 1.371 . S
C1114 H1121 0.930 . S
H1115 C1112 0.928 . S
H1116 C1113 0.931 . S
H1117 C1093 0.930 . S
H1118 C1090 0.930 . S
H1119 C1099 0.930 . S
H1120 C1111 0.929 . S
H1121 C1114 0.930 . S
C1122 C1123 1.351 . S
C1122 N1125 1.368 . S
C1122 H1127 0.931 . S
C1123 C1122 1.351 . S
C1123 N1124 1.373 . S
C1123 H1151 0.930 . S
N1124 C1123 1.373 . S
N1124 C1126 1.340 . S
N1125 C1122 1.368 . S
N1125 C1126 1.321 . S
N1125 Co1128 2.135 . S
C1126 N1124 1.340 . S
C1126 N1125 1.321 . S
C1126 H1150 0.930 . S
H1127 C1122 0.931 . S
Co1128 N1125 2.135 . S
Co1128 N1131 2.121 . S
Co1128 O1136 2.055 . S
Co1128 O1139 2.039 . S
Co1128 N1142 2.140 . S
C1129 O1130 1.227 . S
C1129 O1139 1.265 . S
O1130 C1129 1.227 . S
N1131 Co1128 2.121 . S
N1131 C1133 1.375 . S
N1131 C1134 1.313 . S
C1132 C1133 1.338 . S
C1132 N1135 1.377 . S
C1132 H1152 0.930 . S
C1133 N1131 1.375 . S
C1133 C1132 1.338 . S
C1133 H1137 0.931 . S
C1134 N1131 1.313 . S
C1134 N1135 1.344 . S
C1134 H1138 0.930 . S
N1135 C1132 1.377 . S
N1135 C1134 1.344 . S
O1136 Co1128 2.055 . S
O1136 C1140 1.253 . S
H1137 C1133 0.931 . S
H1138 C1134 0.930 . S
O1139 Co1128 2.039 . S
O1139 C1129 1.265 . S
C1140 O1136 1.253 . S
C1140 O1141 1.227 . S
O1141 C1140 1.227 . S
N1142 Co1128 2.140 . S
N1142 C1145 1.346 . S
N1142 C1146 1.345 . S
C1143 C1144 1.387 . S
C1143 C1147 1.391 . S
C1144 C1143 1.387 . S
C1144 C1145 1.369 . S
C1144 H1153 0.929 . S
C1145 N1142 1.346 . S
C1145 C1144 1.369 . S
C1145 H1148 0.928 . S
C1146 N1142 1.345 . S
C1146 C1147 1.371 . S
C1146 H1149 0.931 . S
C1147 C1143 1.391 . S
C1147 C1146 1.371 . S
C1147 H1154 0.930 . S
H1148 C1145 0.928 . S
H1149 C1146 0.931 . S
H1150 C1126 0.930 . S
H1151 C1123 0.930 . S
H1152 C1132 0.930 . S
H1153 C1144 0.929 . S
H1154 C1147 0.930 . S
C1155 C1156 1.351 . S
C1155 N1158 1.368 . S
C1155 H1160 0.931 . S
C1156 C1155 1.351 . S
C1156 N1157 1.373 . S
C1156 H1184 0.930 . S
N1157 C1156 1.373 . S
N1157 C1159 1.340 . S
N1158 C1155 1.368 . S
N1158 C1159 1.321 . S
N1158 Co1161 2.135 . S
C1159 N1157 1.340 . S
C1159 N1158 1.321 . S
C1159 H1183 0.930 . S
H1160 C1155 0.931 . S
Co1161 N1158 2.135 . S
Co1161 N1164 2.121 . S
Co1161 O1169 2.055 . S
Co1161 O1172 2.039 . S
Co1161 N1175 2.140 . S
C1162 O1163 1.227 . S
C1162 O1172 1.265 . S
O1163 C1162 1.227 . S
N1164 Co1161 2.121 . S
N1164 C1166 1.375 . S
N1164 C1167 1.313 . S
C1165 C1166 1.338 . S
C1165 N1168 1.377 . S
C1165 H1185 0.930 . S
C1166 N1164 1.375 . S
C1166 C1165 1.338 . S
C1166 H1170 0.931 . S
C1167 N1164 1.313 . S
C1167 N1168 1.344 . S
C1167 H1171 0.930 . S
N1168 C1165 1.377 . S
N1168 C1167 1.344 . S
O1169 Co1161 2.055 . S
O1169 C1173 1.253 . S
H1170 C1166 0.931 . S
H1171 C1167 0.930 . S
O1172 Co1161 2.039 . S
O1172 C1162 1.265 . S
C1173 O1169 1.253 . S
C1173 O1174 1.227 . S
O1174 C1173 1.227 . S
N1175 Co1161 2.140 . S
N1175 C1178 1.346 . S
N1175 C1179 1.345 . S
C1176 C1177 1.387 . S
C1176 C1180 1.391 . S
C1177 C1176 1.387 . S
C1177 C1178 1.369 . S
C1177 H1186 0.929 . S
C1178 N1175 1.346 . S
C1178 C1177 1.369 . S
C1178 H1181 0.928 . S
C1179 N1175 1.345 . S
C1179 C1180 1.371 . S
C1179 H1182 0.931 . S
C1180 C1176 1.391 . S
C1180 C1179 1.371 . S
C1180 H1187 0.930 . S
H1181 C1178 0.928 . S
H1182 C1179 0.931 . S
H1183 C1159 0.930 . S
H1184 C1156 0.930 . S
H1185 C1165 0.930 . S
H1186 C1177 0.929 . S
H1187 C1180 0.930 . S
C1188 C1189 1.351 . S
C1188 N1191 1.368 . S
C1188 H1193 0.931 . S
C1189 C1188 1.351 . S
C1189 N1190 1.373 . S
C1189 H1217 0.930 . S
N1190 C1189 1.373 . S
N1190 C1192 1.340 . S
N1191 C1188 1.368 . S
N1191 C1192 1.321 . S
N1191 Co1194 2.135 . S
C1192 N1190 1.340 . S
C1192 N1191 1.321 . S
C1192 H1216 0.930 . S
H1193 C1188 0.931 . S
Co1194 N1191 2.135 . S
Co1194 N1197 2.121 . S
Co1194 O1202 2.055 . S
Co1194 O1205 2.039 . S
Co1194 N1208 2.140 . S
C1195 O1196 1.227 . S
C1195 O1205 1.265 . S
O1196 C1195 1.227 . S
N1197 Co1194 2.121 . S
N1197 C1199 1.375 . S
N1197 C1200 1.313 . S
C1198 C1199 1.338 . S
C1198 N1201 1.377 . S
C1198 H1218 0.930 . S
C1199 N1197 1.375 . S
C1199 C1198 1.338 . S
C1199 H1203 0.931 . S
C1200 N1197 1.313 . S
C1200 N1201 1.344 . S
C1200 H1204 0.930 . S
N1201 C1198 1.377 . S
N1201 C1200 1.344 . S
O1202 Co1194 2.055 . S
O1202 C1206 1.253 . S
H1203 C1199 0.931 . S
H1204 C1200 0.930 . S
O1205 Co1194 2.039 . S
O1205 C1195 1.265 . S
C1206 O1202 1.253 . S
C1206 O1207 1.227 . S
O1207 C1206 1.227 . S
N1208 Co1194 2.140 . S
N1208 C1211 1.346 . S
N1208 C1212 1.345 . S
C1209 C1210 1.387 . S
C1209 C1213 1.391 . S
C1210 C1209 1.387 . S
C1210 C1211 1.369 . S
C1210 H1219 0.929 . S
C1211 N1208 1.346 . S
C1211 C1210 1.369 . S
C1211 H1214 0.928 . S
C1212 N1208 1.345 . S
C1212 C1213 1.371 . S
C1212 H1215 0.931 . S
C1213 C1209 1.391 . S
C1213 C1212 1.371 . S
C1213 H1220 0.930 . S
H1214 C1211 0.928 . S
H1215 C1212 0.931 . S
H1216 C1192 0.930 . S
H1217 C1189 0.930 . S
H1218 C1198 0.930 . S
H1219 C1210 0.929 . S
H1220 C1213 0.930 . S
C1221 C1222 1.351 . S
C1221 N1224 1.368 . S
C1221 H1226 0.931 . S
C1222 C1221 1.351 . S
C1222 N1223 1.373 . S
C1222 H1250 0.930 . S
N1223 C1222 1.373 . S
N1223 C1225 1.340 . S
N1224 C1221 1.368 . S
N1224 C1225 1.321 . S
N1224 Co1227 2.135 . S
C1225 N1223 1.340 . S
C1225 N1224 1.321 . S
C1225 H1249 0.930 . S
H1226 C1221 0.931 . S
Co1227 N1224 2.135 . S
Co1227 N1230 2.121 . S
Co1227 O1235 2.055 . S
Co1227 O1238 2.039 . S
Co1227 N1241 2.140 . S
C1228 O1229 1.227 . S
C1228 O1238 1.265 . S
O1229 C1228 1.227 . S
N1230 Co1227 2.121 . S
N1230 C1232 1.375 . S
N1230 C1233 1.313 . S
C1231 C1232 1.338 . S
C1231 N1234 1.377 . S
C1231 H1251 0.930 . S
C1232 N1230 1.375 . S
C1232 C1231 1.338 . S
C1232 H1236 0.931 . S
C1233 N1230 1.313 . S
C1233 N1234 1.344 . S
C1233 H1237 0.930 . S
N1234 C1231 1.377 . S
N1234 C1233 1.344 . S
O1235 Co1227 2.055 . S
O1235 C1239 1.253 . S
H1236 C1232 0.931 . S
H1237 C1233 0.930 . S
O1238 Co1227 2.039 . S
O1238 C1228 1.265 . S
C1239 O1235 1.253 . S
C1239 O1240 1.227 . S
O1240 C1239 1.227 . S
N1241 Co1227 2.140 . S
N1241 C1244 1.346 . S
N1241 C1245 1.345 . S
C1242 C1243 1.387 . S
C1242 C1246 1.391 . S
C1243 C1242 1.387 . S
C1243 C1244 1.369 . S
C1243 H1252 0.929 . S
C1244 N1241 1.346 . S
C1244 C1243 1.369 . S
C1244 H1247 0.928 . S
C1245 N1241 1.345 . S
C1245 C1246 1.371 . S
C1245 H1248 0.931 . S
C1246 C1242 1.391 . S
C1246 C1245 1.371 . S
C1246 H1253 0.930 . S
H1247 C1244 0.928 . S
H1248 C1245 0.931 . S
H1249 C1225 0.930 . S
H1250 C1222 0.930 . S
H1251 C1231 0.930 . S
H1252 C1243 0.929 . S
H1253 C1246 0.930 . S
C1254 C1255 1.351 . S
C1254 N1257 1.368 . S
C1254 H1259 0.931 . S
C1255 C1254 1.351 . S
C1255 N1256 1.373 . S
C1255 H1283 0.930 . S
N1256 C1255 1.373 . S
N1256 C1258 1.340 . S
N1257 C1254 1.368 . S
N1257 C1258 1.321 . S
N1257 Co1260 2.135 . S
C1258 N1256 1.340 . S
C1258 N1257 1.321 . S
C1258 H1282 0.930 . S
H1259 C1254 0.931 . S
Co1260 N1257 2.135 . S
Co1260 N1263 2.121 . S
Co1260 O1268 2.055 . S
Co1260 O1271 2.039 . S
Co1260 N1274 2.140 . S
C1261 O1262 1.227 . S
C1261 O1271 1.265 . S
O1262 C1261 1.227 . S
N1263 Co1260 2.121 . S
N1263 C1265 1.375 . S
N1263 C1266 1.313 . S
C1264 C1265 1.338 . S
C1264 N1267 1.377 . S
C1264 H1284 0.930 . S
C1265 N1263 1.375 . S
C1265 C1264 1.338 . S
C1265 H1269 0.931 . S
C1266 N1263 1.313 . S
C1266 N1267 1.344 . S
C1266 H1270 0.930 . S
N1267 C1264 1.377 . S
N1267 C1266 1.344 . S
O1268 Co1260 2.055 . S
O1268 C1272 1.253 . S
H1269 C1265 0.931 . S
H1270 C1266 0.930 . S
O1271 Co1260 2.039 . S
O1271 C1261 1.265 . S
C1272 O1268 1.253 . S
C1272 O1273 1.227 . S
O1273 C1272 1.227 . S
N1274 Co1260 2.140 . S
N1274 C1277 1.346 . S
N1274 C1278 1.345 . S
C1275 C1276 1.387 . S
C1275 C1279 1.391 . S
C1276 C1275 1.387 . S
C1276 C1277 1.369 . S
C1276 H1285 0.929 . S
C1277 N1274 1.346 . S
C1277 C1276 1.369 . S
C1277 H1280 0.928 . S
C1278 N1274 1.345 . S
C1278 C1279 1.371 . S
C1278 H1281 0.931 . S
C1279 C1275 1.391 . S
C1279 C1278 1.371 . S
C1279 H1286 0.930 . S
H1280 C1277 0.928 . S
H1281 C1278 0.931 . S
H1282 C1258 0.930 . S
H1283 C1255 0.930 . S
H1284 C1264 0.930 . S
H1285 C1276 0.929 . S
H1286 C1279 0.930 . S
C1287 C1288 1.351 . S
C1287 N1290 1.368 . S
C1287 H1292 0.931 . S
C1288 C1287 1.351 . S
C1288 N1289 1.373 . S
C1288 H1316 0.930 . S
N1289 C1288 1.373 . S
N1289 C1291 1.340 . S
N1290 C1287 1.368 . S
N1290 C1291 1.321 . S
N1290 Co1293 2.135 . S
C1291 N1289 1.340 . S
C1291 N1290 1.321 . S
C1291 H1315 0.930 . S
H1292 C1287 0.931 . S
Co1293 N1290 2.135 . S
Co1293 N1296 2.121 . S
Co1293 O1301 2.055 . S
Co1293 O1304 2.039 . S
Co1293 N1307 2.140 . S
C1294 O1295 1.227 . S
C1294 O1304 1.265 . S
O1295 C1294 1.227 . S
N1296 Co1293 2.121 . S
N1296 C1298 1.375 . S
N1296 C1299 1.313 . S
C1297 C1298 1.338 . S
C1297 N1300 1.377 . S
C1297 H1317 0.930 . S
C1298 N1296 1.375 . S
C1298 C1297 1.338 . S
C1298 H1302 0.931 . S
C1299 N1296 1.313 . S
C1299 N1300 1.344 . S
C1299 H1303 0.930 . S
N1300 C1297 1.377 . S
N1300 C1299 1.344 . S
O1301 Co1293 2.055 . S
O1301 C1305 1.253 . S
H1302 C1298 0.931 . S
H1303 C1299 0.930 . S
O1304 Co1293 2.039 . S
O1304 C1294 1.265 . S
C1305 O1301 1.253 . S
C1305 O1306 1.227 . S
O1306 C1305 1.227 . S
N1307 Co1293 2.140 . S
N1307 C1310 1.346 . S
N1307 C1311 1.345 . S
C1308 C1309 1.387 . S
C1308 C1312 1.391 . S
C1309 C1308 1.387 . S
C1309 C1310 1.369 . S
C1309 H1318 0.929 . S
C1310 N1307 1.346 . S
C1310 C1309 1.369 . S
C1310 H1313 0.928 . S
C1311 N1307 1.345 . S
C1311 C1312 1.371 . S
C1311 H1314 0.931 . S
C1312 C1308 1.391 . S
C1312 C1311 1.371 . S
C1312 H1319 0.930 . S
H1313 C1310 0.928 . S
H1314 C1311 0.931 . S
H1315 C1291 0.930 . S
H1316 C1288 0.930 . S
H1317 C1297 0.930 . S
H1318 C1309 0.929 . S
H1319 C1312 0.930 . S
C1320 C1321 1.351 . S
C1320 N1323 1.368 . S
C1320 H1325 0.931 . S
C1321 C1320 1.351 . S
C1321 N1322 1.373 . S
C1321 H1349 0.930 . S
N1322 C1321 1.373 . S
N1322 C1324 1.340 . S
N1323 C1320 1.368 . S
N1323 C1324 1.321 . S
N1323 Co1326 2.135 . S
C1324 N1322 1.340 . S
C1324 N1323 1.321 . S
C1324 H1348 0.930 . S
H1325 C1320 0.931 . S
Co1326 N1323 2.135 . S
Co1326 N1329 2.121 . S
Co1326 O1334 2.055 . S
Co1326 O1337 2.039 . S
Co1326 N1340 2.140 . S
C1327 O1328 1.227 . S
C1327 O1337 1.265 . S
O1328 C1327 1.227 . S
N1329 Co1326 2.121 . S
N1329 C1331 1.375 . S
N1329 C1332 1.313 . S
C1330 C1331 1.338 . S
C1330 N1333 1.377 . S
C1330 H1350 0.930 . S
C1331 N1329 1.375 . S
C1331 C1330 1.338 . S
C1331 H1335 0.931 . S
C1332 N1329 1.313 . S
C1332 N1333 1.344 . S
C1332 H1336 0.930 . S
N1333 C1330 1.377 . S
N1333 C1332 1.344 . S
O1334 Co1326 2.055 . S
O1334 C1338 1.253 . S
H1335 C1331 0.931 . S
H1336 C1332 0.930 . S
O1337 Co1326 2.039 . S
O1337 C1327 1.265 . S
C1338 O1334 1.253 . S
C1338 O1339 1.227 . S
O1339 C1338 1.227 . S
N1340 Co1326 2.140 . S
N1340 C1343 1.346 . S
N1340 C1344 1.345 . S
C1341 C1342 1.387 . S
C1341 C1345 1.391 . S
C1342 C1341 1.387 . S
C1342 C1343 1.369 . S
C1342 H1351 0.929 . S
C1343 N1340 1.346 . S
C1343 C1342 1.369 . S
C1343 H1346 0.928 . S
C1344 N1340 1.345 . S
C1344 C1345 1.371 . S
C1344 H1347 0.931 . S
C1345 C1341 1.391 . S
C1345 C1344 1.371 . S
C1345 H1352 0.930 . S
H1346 C1343 0.928 . S
H1347 C1344 0.931 . S
H1348 C1324 0.930 . S
H1349 C1321 0.930 . S
H1350 C1330 0.930 . S
H1351 C1342 0.929 . S
H1352 C1345 0.930 . S
C1353 C1354 1.351 . S
C1353 N1356 1.368 . S
C1353 H1358 0.931 . S
C1354 C1353 1.351 . S
C1354 N1355 1.373 . S
C1354 H1382 0.930 . S
N1355 C1354 1.373 . S
N1355 C1357 1.340 . S
N1356 C1353 1.368 . S
N1356 C1357 1.321 . S
N1356 Co1359 2.135 . S
C1357 N1355 1.340 . S
C1357 N1356 1.321 . S
C1357 H1381 0.930 . S
H1358 C1353 0.931 . S
Co1359 N1356 2.135 . S
Co1359 N1362 2.121 . S
Co1359 O1367 2.055 . S
Co1359 O1370 2.039 . S
Co1359 N1373 2.140 . S
C1360 O1361 1.227 . S
C1360 O1370 1.265 . S
O1361 C1360 1.227 . S
N1362 Co1359 2.121 . S
N1362 C1364 1.375 . S
N1362 C1365 1.313 . S
C1363 C1364 1.338 . S
C1363 N1366 1.377 . S
C1363 H1383 0.930 . S
C1364 N1362 1.375 . S
C1364 C1363 1.338 . S
C1364 H1368 0.931 . S
C1365 N1362 1.313 . S
C1365 N1366 1.344 . S
C1365 H1369 0.930 . S
N1366 C1363 1.377 . S
N1366 C1365 1.344 . S
O1367 Co1359 2.055 . S
O1367 C1371 1.253 . S
H1368 C1364 0.931 . S
H1369 C1365 0.930 . S
O1370 Co1359 2.039 . S
O1370 C1360 1.265 . S
C1371 O1367 1.253 . S
C1371 O1372 1.227 . S
O1372 C1371 1.227 . S
N1373 Co1359 2.140 . S
N1373 C1376 1.346 . S
N1373 C1377 1.345 . S
C1374 C1375 1.387 . S
C1374 C1378 1.391 . S
C1375 C1374 1.387 . S
C1375 C1376 1.369 . S
C1375 H1384 0.929 . S
C1376 N1373 1.346 . S
C1376 C1375 1.369 . S
C1376 H1379 0.928 . S
C1377 N1373 1.345 . S
C1377 C1378 1.371 . S
C1377 H1380 0.931 . S
C1378 C1374 1.391 . S
C1378 C1377 1.371 . S
C1378 H1385 0.930 . S
H1379 C1376 0.928 . S
H1380 C1377 0.931 . S
H1381 C1357 0.930 . S
H1382 C1354 0.930 . S
H1383 C1363 0.930 . S
H1384 C1375 0.929 . S
H1385 C1378 0.930 . S
C1386 C1387 1.351 . S
C1386 N1389 1.368 . S
C1386 H1391 0.931 . S
C1387 C1386 1.351 . S
C1387 N1388 1.373 . S
C1387 H1415 0.930 . S
N1388 C1387 1.373 . S
N1388 C1390 1.340 . S
N1389 C1386 1.368 . S
N1389 C1390 1.321 . S
N1389 Co1392 2.135 . S
C1390 N1388 1.340 . S
C1390 N1389 1.321 . S
C1390 H1414 0.930 . S
H1391 C1386 0.931 . S
Co1392 N1389 2.135 . S
Co1392 N1395 2.121 . S
Co1392 O1400 2.055 . S
Co1392 O1403 2.039 . S
Co1392 N1406 2.140 . S
C1393 O1394 1.227 . S
C1393 O1403 1.265 . S
O1394 C1393 1.227 . S
N1395 Co1392 2.121 . S
N1395 C1397 1.375 . S
N1395 C1398 1.313 . S
C1396 C1397 1.338 . S
C1396 N1399 1.377 . S
C1396 H1416 0.930 . S
C1397 N1395 1.375 . S
C1397 C1396 1.338 . S
C1397 H1401 0.931 . S
C1398 N1395 1.313 . S
C1398 N1399 1.344 . S
C1398 H1402 0.930 . S
N1399 C1396 1.377 . S
N1399 C1398 1.344 . S
O1400 Co1392 2.055 . S
O1400 C1404 1.253 . S
H1401 C1397 0.931 . S
H1402 C1398 0.930 . S
O1403 Co1392 2.039 . S
O1403 C1393 1.265 . S
C1404 O1400 1.253 . S
C1404 O1405 1.227 . S
O1405 C1404 1.227 . S
N1406 Co1392 2.140 . S
N1406 C1409 1.346 . S
N1406 C1410 1.345 . S
C1407 C1408 1.387 . S
C1407 C1411 1.391 . S
C1408 C1407 1.387 . S
C1408 C1409 1.369 . S
C1408 H1417 0.929 . S
C1409 N1406 1.346 . S
C1409 C1408 1.369 . S
C1409 H1412 0.928 . S
C1410 N1406 1.345 . S
C1410 C1411 1.371 . S
C1410 H1413 0.931 . S
C1411 C1407 1.391 . S
C1411 C1410 1.371 . S
C1411 H1418 0.930 . S
H1412 C1409 0.928 . S
H1413 C1410 0.931 . S
H1414 C1390 0.930 . S
H1415 C1387 0.930 . S
H1416 C1396 0.930 . S
H1417 C1408 0.929 . S
H1418 C1411 0.930 . S
C1419 C1420 1.351 . S
C1419 N1422 1.368 . S
C1419 H1424 0.931 . S
C1420 C1419 1.351 . S
C1420 N1421 1.373 . S
C1420 H1448 0.930 . S
N1421 C1420 1.373 . S
N1421 C1423 1.340 . S
N1422 C1419 1.368 . S
N1422 C1423 1.321 . S
N1422 Co1425 2.135 . S
C1423 N1421 1.340 . S
C1423 N1422 1.321 . S
C1423 H1447 0.930 . S
H1424 C1419 0.931 . S
Co1425 N1422 2.135 . S
Co1425 N1428 2.121 . S
Co1425 O1433 2.055 . S
Co1425 O1436 2.039 . S
Co1425 N1439 2.140 . S
C1426 O1427 1.227 . S
C1426 O1436 1.265 . S
O1427 C1426 1.227 . S
N1428 Co1425 2.121 . S
N1428 C1430 1.375 . S
N1428 C1431 1.313 . S
C1429 C1430 1.338 . S
C1429 N1432 1.377 . S
C1429 H1449 0.930 . S
C1430 N1428 1.375 . S
C1430 C1429 1.338 . S
C1430 H1434 0.931 . S
C1431 N1428 1.313 . S
C1431 N1432 1.344 . S
C1431 H1435 0.930 . S
N1432 C1429 1.377 . S
N1432 C1431 1.344 . S
O1433 Co1425 2.055 . S
O1433 C1437 1.253 . S
H1434 C1430 0.931 . S
H1435 C1431 0.930 . S
O1436 Co1425 2.039 . S
O1436 C1426 1.265 . S
C1437 O1433 1.253 . S
C1437 O1438 1.227 . S
O1438 C1437 1.227 . S
N1439 Co1425 2.140 . S
N1439 C1442 1.346 . S
N1439 C1443 1.345 . S
C1440 C1441 1.387 . S
C1440 C1444 1.391 . S
C1441 C1440 1.387 . S
C1441 C1442 1.369 . S
C1441 H1450 0.929 . S
C1442 N1439 1.346 . S
C1442 C1441 1.369 . S
C1442 H1445 0.928 . S
C1443 N1439 1.345 . S
C1443 C1444 1.371 . S
C1443 H1446 0.931 . S
C1444 C1440 1.391 . S
C1444 C1443 1.371 . S
C1444 H1451 0.930 . S
H1445 C1442 0.928 . S
H1446 C1443 0.931 . S
H1447 C1423 0.930 . S
H1448 C1420 0.930 . S
H1449 C1429 0.930 . S
H1450 C1441 0.929 . S
H1451 C1444 0.930 . S
C1452 C1453 1.351 . S
C1452 N1455 1.368 . S
C1452 H1457 0.931 1_556 S
C1453 C1452 1.351 . S
C1453 N1454 1.373 . S
C1453 H1481 0.930 . S
N1454 C1453 1.373 . S
N1454 C1456 1.340 . S
N1455 C1452 1.368 . S
N1455 C1456 1.321 . S
N1455 Co1458 2.135 1_556 S
C1456 N1454 1.340 . S
C1456 N1455 1.321 . S
C1456 H1480 0.930 . S
H1457 C1452 0.931 1_554 S
Co1458 N1455 2.135 1_554 S
Co1458 N1461 2.121 . S
Co1458 O1466 2.055 . S
Co1458 O1469 2.039 1_554 S
Co1458 N1472 2.140 . S
C1459 O1460 1.227 . S
C1459 O1469 1.265 . S
O1460 C1459 1.227 . S
N1461 Co1458 2.121 . S
N1461 C1463 1.375 . S
N1461 C1464 1.313 . S
C1462 C1463 1.338 . S
C1462 N1465 1.377 . S
C1462 H1482 0.930 . S
C1463 N1461 1.375 . S
C1463 C1462 1.338 . S
C1463 H1467 0.931 . S
C1464 N1461 1.313 . S
C1464 N1465 1.344 . S
C1464 H1468 0.930 . S
N1465 C1462 1.377 . S
N1465 C1464 1.344 . S
O1466 Co1458 2.055 . S
O1466 C1470 1.253 . S
H1467 C1463 0.931 . S
H1468 C1464 0.930 . S
O1469 Co1458 2.039 1_556 S
O1469 C1459 1.265 . S
C1470 O1466 1.253 . S
C1470 O1471 1.227 . S
O1471 C1470 1.227 . S
N1472 Co1458 2.140 . S
N1472 C1475 1.346 1_554 S
N1472 C1476 1.345 . S
C1473 C1474 1.387 1_554 S
C1473 C1477 1.391 . S
C1474 C1473 1.387 1_556 S
C1474 C1475 1.369 . S
C1474 H1483 0.929 . S
C1475 N1472 1.346 1_556 S
C1475 C1474 1.369 . S
C1475 H1478 0.928 . S
C1476 N1472 1.345 . S
C1476 C1477 1.371 . S
C1476 H1479 0.931 . S
C1477 C1473 1.391 . S
C1477 C1476 1.371 . S
C1477 H1484 0.930 . S
H1478 C1475 0.928 . S
H1479 C1476 0.931 . S
H1480 C1456 0.930 . S
H1481 C1453 0.930 . S
H1482 C1462 0.930 . S
H1483 C1474 0.929 . S
H1484 C1477 0.930 . S
C1485 C1486 1.351 . S
C1485 N1488 1.368 . S
C1485 H1490 0.931 . S
C1486 C1485 1.351 . S
C1486 N1487 1.373 . S
C1486 H1514 0.930 . S
N1487 C1486 1.373 . S
N1487 C1489 1.340 . S
N1488 C1485 1.368 . S
N1488 C1489 1.321 . S
N1488 Co1491 2.135 . S
C1489 N1487 1.340 . S
C1489 N1488 1.321 . S
C1489 H1513 0.930 . S
H1490 C1485 0.931 . S
Co1491 N1488 2.135 . S
Co1491 N1494 2.121 1_554 S
Co1491 O1499 2.055 1_554 S
Co1491 O1502 2.039 . S
Co1491 N1505 2.140 . S
C1492 O1493 1.227 . S
C1492 O1502 1.265 . S
O1493 C1492 1.227 . S
N1494 Co1491 2.121 1_556 S
N1494 C1496 1.375 . S
N1494 C1497 1.313 . S
C1495 C1496 1.338 . S
C1495 N1498 1.377 . S
C1495 H1515 0.930 . S
C1496 N1494 1.375 . S
C1496 C1495 1.338 . S
C1496 H1500 0.931 1_556 S
C1497 N1494 1.313 . S
C1497 N1498 1.344 . S
C1497 H1501 0.930 . S
N1498 C1495 1.377 . S
N1498 C1497 1.344 . S
O1499 Co1491 2.055 1_556 S
O1499 C1503 1.253 . S
H1500 C1496 0.931 1_554 S
H1501 C1497 0.930 . S
O1502 Co1491 2.039 . S
O1502 C1492 1.265 . S
C1503 O1499 1.253 . S
C1503 O1504 1.227 . S
O1504 C1503 1.227 . S
N1505 Co1491 2.140 . S
N1505 C1508 1.346 . S
N1505 C1509 1.345 1_554 S
C1506 C1507 1.387 . S
C1506 C1510 1.391 1_554 S
C1507 C1506 1.387 . S
C1507 C1508 1.369 . S
C1507 H1516 0.929 . S
C1508 N1505 1.346 . S
C1508 C1507 1.369 . S
C1508 H1511 0.928 . S
C1509 N1505 1.345 1_556 S
C1509 C1510 1.371 . S
C1509 H1512 0.931 . S
C1510 C1506 1.391 1_556 S
C1510 C1509 1.371 . S
C1510 H1517 0.930 . S
H1511 C1508 0.928 . S
H1512 C1509 0.931 . S
H1513 C1489 0.930 . S
H1514 C1486 0.930 . S
H1515 C1495 0.930 . S
H1516 C1507 0.929 . S
H1517 C1510 0.930 . S
C1518 C1519 1.351 . S
C1518 N1521 1.368 . S
C1518 H1523 0.931 . S
C1519 C1518 1.351 . S
C1519 N1520 1.373 . S
C1519 H1547 0.930 . S
N1520 C1519 1.373 . S
N1520 C1522 1.340 . S
N1521 C1518 1.368 . S
N1521 C1522 1.321 . S
N1521 Co1524 2.135 . S
C1522 N1520 1.340 . S
C1522 N1521 1.321 . S
C1522 H1546 0.930 . S
H1523 C1518 0.931 . S
Co1524 N1521 2.135 . S
Co1524 N1527 2.121 1_554 S
Co1524 O1532 2.055 1_554 S
Co1524 O1535 2.039 . S
Co1524 N1538 2.140 . S
C1525 O1526 1.227 . S
C1525 O1535 1.265 . S
O1526 C1525 1.227 . S
N1527 Co1524 2.121 1_556 S
N1527 C1529 1.375 . S
N1527 C1530 1.313 . S
C1528 C1529 1.338 . S
C1528 N1531 1.377 . S
C1528 H1548 0.930 . S
C1529 N1527 1.375 . S
C1529 C1528 1.338 . S
C1529 H1533 0.931 1_556 S
C1530 N1527 1.313 . S
C1530 N1531 1.344 . S
C1530 H1534 0.930 . S
N1531 C1528 1.377 . S
N1531 C1530 1.344 . S
O1532 Co1524 2.055 1_556 S
O1532 C1536 1.253 . S
H1533 C1529 0.931 1_554 S
H1534 C1530 0.930 . S
O1535 Co1524 2.039 . S
O1535 C1525 1.265 . S
C1536 O1532 1.253 . S
C1536 O1537 1.227 . S
O1537 C1536 1.227 . S
N1538 Co1524 2.140 . S
N1538 C1541 1.346 . S
N1538 C1542 1.345 1_554 S
C1539 C1540 1.387 . S
C1539 C1543 1.391 1_554 S
C1540 C1539 1.387 . S
C1540 C1541 1.369 . S
C1540 H1549 0.929 . S
C1541 N1538 1.346 . S
C1541 C1540 1.369 . S
C1541 H1544 0.928 . S
C1542 N1538 1.345 1_556 S
C1542 C1543 1.371 . S
C1542 H1545 0.931 . S
C1543 C1539 1.391 1_556 S
C1543 C1542 1.371 . S
C1543 H1550 0.930 . S
H1544 C1541 0.928 . S
H1545 C1542 0.931 . S
H1546 C1522 0.930 . S
H1547 C1519 0.930 . S
H1548 C1528 0.930 . S
H1549 C1540 0.929 . S
H1550 C1543 0.930 . S
C1551 C1552 1.351 . S
C1551 N1554 1.368 . S
C1551 H1556 0.931 1_556 S
C1552 C1551 1.351 . S
C1552 N1553 1.373 . S
C1552 H1580 0.930 . S
N1553 C1552 1.373 . S
N1553 C1555 1.340 . S
N1554 C1551 1.368 . S
N1554 C1555 1.321 . S
N1554 Co1557 2.135 1_556 S
C1555 N1553 1.340 . S
C1555 N1554 1.321 . S
C1555 H1579 0.930 . S
H1556 C1551 0.931 1_554 S
Co1557 N1554 2.135 1_554 S
Co1557 N1560 2.121 . S
Co1557 O1565 2.055 . S
Co1557 O1568 2.039 1_554 S
Co1557 N1571 2.140 . S
C1558 O1559 1.227 . S
C1558 O1568 1.265 . S
O1559 C1558 1.227 . S
N1560 Co1557 2.121 . S
N1560 C1562 1.375 . S
N1560 C1563 1.313 . S
C1561 C1562 1.338 . S
C1561 N1564 1.377 . S
C1561 H1581 0.930 . S
C1562 N1560 1.375 . S
C1562 C1561 1.338 . S
C1562 H1566 0.931 . S
C1563 N1560 1.313 . S
C1563 N1564 1.344 . S
C1563 H1567 0.930 . S
N1564 C1561 1.377 . S
N1564 C1563 1.344 . S
O1565 Co1557 2.055 . S
O1565 C1569 1.253 . S
H1566 C1562 0.931 . S
H1567 C1563 0.930 . S
O1568 Co1557 2.039 1_556 S
O1568 C1558 1.265 . S
C1569 O1565 1.253 . S
C1569 O1570 1.227 . S
O1570 C1569 1.227 . S
N1571 Co1557 2.140 . S
N1571 C1574 1.346 1_554 S
N1571 C1575 1.345 . S
C1572 C1573 1.387 1_554 S
C1572 C1576 1.391 . S
C1573 C1572 1.387 1_556 S
C1573 C1574 1.369 . S
C1573 H1582 0.929 . S
C1574 N1571 1.346 1_556 S
C1574 C1573 1.369 . S
C1574 H1577 0.928 . S
C1575 N1571 1.345 . S
C1575 C1576 1.371 . S
C1575 H1578 0.931 . S
C1576 C1572 1.391 . S
C1576 C1575 1.371 . S
C1576 H1583 0.930 . S
H1577 C1574 0.928 . S
H1578 C1575 0.931 . S
H1579 C1555 0.930 . S
H1580 C1552 0.930 . S
H1581 C1561 0.930 . S
H1582 C1573 0.929 . S
H1583 C1576 0.930 . S
H1584 C1590 0.930 . S
H1585 C1594 0.930 . S
H1586 C1599 0.929 . S
H1587 C1597 0.929 . S
H1588 C1592 0.929 . S
H1589 C1598 0.929 . S
C1590 H1584 0.930 . S
C1590 C1591 1.367 . S
C1590 C1598 1.378 . S
C1591 C1590 1.367 . S
C1591 C1599 1.433 . S
C1592 H1588 0.929 . S
C1592 C1594 1.378 . S
C1592 C1596 1.350 . S
C1593 C1596 1.463 . S
C1593 C1598 1.350 . S
C1593 N1601 1.427 . S
C1594 H1585 0.930 . S
C1594 C1592 1.378 . S
C1594 C1595 1.367 . S
C1595 C1594 1.367 . S
C1595 C1597 1.433 . S
C1596 C1592 1.350 . S
C1596 C1593 1.463 . S
C1596 N1600 1.427 . S
C1597 H1587 0.929 . S
C1597 C1595 1.433 . S
C1597 N1600 1.384 . S
C1598 H1589 0.929 . S
C1598 C1590 1.378 . S
C1598 C1593 1.350 . S
C1599 H1586 0.929 . S
C1599 C1591 1.433 . S
C1599 N1601 1.384 . S
N1600 C1596 1.427 . S
N1600 C1597 1.384 . S
N1601 C1593 1.427 . S
N1601 C1599 1.384 . S
H1602 C1608 0.930 . S
H1603 C1612 0.930 . S
H1604 C1617 0.929 . S
H1605 C1615 0.929 . S
H1606 C1610 0.929 . S
H1607 C1616 0.929 . S
C1608 H1602 0.930 . S
C1608 C1609 1.367 1_565 S
C1608 C1616 1.378 . S
C1609 C1608 1.367 1_545 S
C1609 C1617 1.433 . S
C1610 H1606 0.929 . S
C1610 C1612 1.378 . S
C1610 C1614 1.350 . S
C1611 C1614 1.463 . S
C1611 C1616 1.350 1_545 S
C1611 N1619 1.427 . S
C1612 H1603 0.930 . S
C1612 C1610 1.378 . S
C1612 C1613 1.367 . S
C1613 C1612 1.367 . S
C1613 C1615 1.433 1_545 S
C1614 C1610 1.350 . S
C1614 C1611 1.463 . S
C1614 N1618 1.427 1_545 S
C1615 H1605 0.929 . S
C1615 C1613 1.433 1_565 S
C1615 N1618 1.384 . S
C1616 H1607 0.929 . S
C1616 C1608 1.378 . S
C1616 C1611 1.350 1_565 S
C1617 H1604 0.929 . S
C1617 C1609 1.433 . S
C1617 N1619 1.384 . S
N1618 C1614 1.427 1_565 S
N1618 C1615 1.384 . S
N1619 C1611 1.427 . S
N1619 C1617 1.384 . S
H1620 C1626 0.930 . S
H1621 C1630 0.935 . S
H1622 C1635 0.929 . S
H1623 C1633 0.929 . S
H1624 C1628 0.948 . S
H1625 C1634 0.929 . S
C1626 H1620 0.930 . S
C1626 C1627 1.367 . S
C1626 C1634 1.378 . S
C1627 C1626 1.367 . S
C1627 C1635 1.433 1_455 S
C1628 H1624 0.948 . S
C1628 C1630 1.378 . S
C1628 C1632 1.334 1_655 S
C1629 C1632 1.463 . S
C1629 C1634 1.350 . S
C1629 N1637 1.427 1_455 S
C1630 H1621 0.935 . S
C1630 C1628 1.378 . S
C1630 C1631 1.362 1_655 S
C1631 C1630 1.362 1_455 S
C1631 C1633 1.433 . S
C1632 C1628 1.334 1_455 S
C1632 C1629 1.463 . S
C1632 N1636 1.427 . S
C1633 H1623 0.929 . S
C1633 C1631 1.433 . S
C1633 N1636 1.384 . S
C1634 H1625 0.929 . S
C1634 C1626 1.378 . S
C1634 C1629 1.350 . S
C1635 H1622 0.929 . S
C1635 C1627 1.433 1_655 S
C1635 N1637 1.384 . S
N1636 C1632 1.427 . S
N1636 C1633 1.384 . S
N1637 C1629 1.427 1_655 S
N1637 C1635 1.384 . S
H1638 C1644 0.930 . S
H1639 C1648 0.930 . S
H1640 C1653 0.929 . S
H1641 C1651 0.929 . S
H1642 C1646 0.929 . S
H1643 C1652 0.929 . S
C1644 H1638 0.930 . S
C1644 C1645 1.367 . S
C1644 C1652 1.378 . S
C1645 C1644 1.367 . S
C1645 C1653 1.433 . S
C1646 H1642 0.929 . S
C1646 C1648 1.378 . S
C1646 C1650 1.350 . S
C1647 C1650 1.463 . S
C1647 C1652 1.350 . S
C1647 N1655 1.427 . S
C1648 H1639 0.930 . S
C1648 C1646 1.378 . S
C1648 C1649 1.367 . S
C1649 C1648 1.367 . S
C1649 C1651 1.433 . S
C1650 C1646 1.350 . S
C1650 C1647 1.463 . S
C1650 N1654 1.427 . S
C1651 H1641 0.929 . S
C1651 C1649 1.433 . S
C1651 N1654 1.384 . S
C1652 H1643 0.929 . S
C1652 C1644 1.378 . S
C1652 C1647 1.350 . S
C1653 H1640 0.929 . S
C1653 C1645 1.433 . S
C1653 N1655 1.384 . S
N1654 C1650 1.427 . S
N1654 C1651 1.384 . S
N1655 C1647 1.427 . S
N1655 C1653 1.384 . S
H1656 C1662 0.930 . S
H1657 C1666 0.930 . S
H1658 C1671 0.929 . S
H1659 C1669 0.929 . S
H1660 C1664 0.929 . S
H1661 C1670 0.929 . S
C1662 H1656 0.930 . S
C1662 C1663 1.367 1_655 S
C1662 C1670 1.378 . S
C1663 C1662 1.367 1_455 S
C1663 C1671 1.433 . S
C1664 H1660 0.929 . S
C1664 C1666 1.378 . S
C1664 C1668 1.350 . S
C1665 C1668 1.463 . S
C1665 C1670 1.350 1_455 S
C1665 N1673 1.427 . S
C1666 H1657 0.930 . S
C1666 C1664 1.378 . S
C1666 C1667 1.367 . S
C1667 C1666 1.367 . S
C1667 C1669 1.433 1_455 S
C1668 C1664 1.350 . S
C1668 C1665 1.463 . S
C1668 N1672 1.427 1_455 S
C1669 H1659 0.929 . S
C1669 C1667 1.433 1_655 S
C1669 N1672 1.384 . S
C1670 H1661 0.929 . S
C1670 C1662 1.378 . S
C1670 C1665 1.350 1_655 S
C1671 H1658 0.929 . S
C1671 C1663 1.433 . S
C1671 N1673 1.384 . S
N1672 C1668 1.427 1_655 S
N1672 C1669 1.384 . S
N1673 C1665 1.427 . S
N1673 C1671 1.384 . S
H1674 C1680 0.935 . S
H1675 C1684 0.930 . S
H1676 C1689 0.929 . S
H1677 C1687 0.915 1_565 S
H1678 C1682 0.929 . S
H1679 C1688 0.930 1_565 S
C1680 H1674 0.935 . S
C1680 C1681 1.367 . S
C1680 C1688 1.378 . S
C1681 C1680 1.367 . S
C1681 C1689 1.433 . S
C1682 H1678 0.929 . S
C1682 C1684 1.378 . S
C1682 C1686 1.350 . S
C1683 C1686 1.463 . S
C1683 C1688 1.350 . S
C1683 N1691 1.427 . S
C1684 H1675 0.930 . S
C1684 C1682 1.378 . S
C1684 C1685 1.367 . S
C1685 C1684 1.367 . S
C1685 C1687 1.433 . S
C1686 C1682 1.350 . S
C1686 C1683 1.463 . S
C1686 N1690 1.427 . S
C1687 H1677 0.915 1_545 S
C1687 C1685 1.433 . S
C1687 N1690 1.384 . S
C1688 H1679 0.930 1_545 S
C1688 C1680 1.378 . S
C1688 C1683 1.350 . S
C1689 H1676 0.929 . S
C1689 C1681 1.433 . S
C1689 N1691 1.384 . S
N1690 C1686 1.427 . S
N1690 C1687 1.384 . S
N1691 C1683 1.427 . S
N1691 C1689 1.384 . S
H1692 C1698 0.930 . S
H1693 C1702 0.930 . S
H1694 C1707 0.929 . S
H1695 C1705 0.929 . S
H1696 C1700 0.929 . S
H1697 C1706 0.929 . S
C1698 H1692 0.930 . S
C1698 C1699 1.367 . S
C1698 C1706 1.378 . S
C1699 C1698 1.367 . S
C1699 C1707 1.433 1_455 S
C1700 H1696 0.929 . S
C1700 C1702 1.378 . S
C1700 C1704 1.350 1_655 S
C1701 C1704 1.463 . S
C1701 C1706 1.350 . S
C1701 N1709 1.427 1_455 S
C1702 H1693 0.930 . S
C1702 C1700 1.378 . S
C1702 C1703 1.364 1_655 S
C1703 C1702 1.364 1_455 S
C1703 C1705 1.436 . S
C1704 C1700 1.350 1_455 S
C1704 C1701 1.463 . S
C1704 N1708 1.427 . S
C1705 H1695 0.929 . S
C1705 C1703 1.436 . S
C1705 N1708 1.384 . S
C1706 H1697 0.929 . S
C1706 C1698 1.378 . S
C1706 C1701 1.350 . S
C1707 H1694 0.929 . S
C1707 C1699 1.433 1_655 S
C1707 N1709 1.384 . S
N1708 C1704 1.427 . S
N1708 C1705 1.384 . S
N1709 C1701 1.427 1_655 S
N1709 C1707 1.384 . S
H1710 C1716 0.930 . S
H1711 C1720 0.930 . S
H1712 C1725 0.929 . S
H1713 C1723 0.929 . S
H1714 C1718 0.929 . S
H1715 C1724 0.929 . S
C1716 H1710 0.930 . S
C1716 C1717 1.367 1_565 S
C1716 C1724 1.378 . S
C1717 C1716 1.367 1_545 S
C1717 C1725 1.433 . S
C1718 H1714 0.929 . S
C1718 C1720 1.378 . S
C1718 C1722 1.350 . S
C1719 C1722 1.463 . S
C1719 C1724 1.350 1_545 S
C1719 N1727 1.427 . S
C1720 H1711 0.930 . S
C1720 C1718 1.378 . S
C1720 C1721 1.367 . S
C1721 C1720 1.367 . S
C1721 C1723 1.433 1_545 S
C1722 C1718 1.350 . S
C1722 C1719 1.463 . S
C1722 N1726 1.427 1_545 S
C1723 H1713 0.929 . S
C1723 C1721 1.433 1_565 S
C1723 N1726 1.384 . S
C1724 H1715 0.929 . S
C1724 C1716 1.378 . S
C1724 C1719 1.350 1_565 S
C1725 H1712 0.929 . S
C1725 C1717 1.433 . S
C1725 N1727 1.384 . S
N1726 C1722 1.427 1_565 S
N1726 C1723 1.384 . S
N1727 C1719 1.427 . S
N1727 C1725 1.384 . S
H1728 C1734 0.930 . S
H1729 C1738 0.930 . S
H1730 C1743 0.929 . S
H1731 C1741 0.929 . S
H1732 C1736 0.929 . S
H1733 C1742 0.929 . S
C1734 H1728 0.930 . S
C1734 C1735 1.367 1_556 S
C1734 C1742 1.378 . S
C1735 C1734 1.367 1_554 S
C1735 C1743 1.433 . S
C1736 H1732 0.929 . S
C1736 C1738 1.378 . S
C1736 C1740 1.350 . S
C1737 C1740 1.463 . S
C1737 C1742 1.350 1_554 S
C1737 N1745 1.427 . S
C1738 H1729 0.930 . S
C1738 C1736 1.378 . S
C1738 C1739 1.367 . S
C1739 C1738 1.367 . S
C1739 C1741 1.433 1_554 S
C1740 C1736 1.350 . S
C1740 C1737 1.463 . S
C1740 N1744 1.427 1_554 S
C1741 H1731 0.929 . S
C1741 C1739 1.433 1_556 S
C1741 N1744 1.384 . S
C1742 H1733 0.929 . S
C1742 C1734 1.378 . S
C1742 C1737 1.350 1_556 S
C1743 H1730 0.929 . S
C1743 C1735 1.433 . S
C1743 N1745 1.384 . S
N1744 C1740 1.427 1_556 S
N1744 C1741 1.384 . S
N1745 C1737 1.427 . S
N1745 C1743 1.384 . S
H1746 C1752 0.930 . S
H1747 C1756 0.930 . S
H1748 C1761 0.929 . S
H1749 C1759 0.929 . S
H1750 C1754 0.929 . S
H1751 C1760 0.929 . S
C1752 H1746 0.930 . S
C1752 C1753 1.367 1_556 S
C1752 C1760 1.378 . S
C1753 C1752 1.367 1_554 S
C1753 C1761 1.433 . S
C1754 H1750 0.929 . S
C1754 C1756 1.378 . S
C1754 C1758 1.350 . S
C1755 C1758 1.463 . S
C1755 C1760 1.350 1_554 S
C1755 N1763 1.427 . S
C1756 H1747 0.930 . S
C1756 C1754 1.378 . S
C1756 C1757 1.367 . S
C1757 C1756 1.367 . S
C1757 C1759 1.433 1_554 S
C1758 C1754 1.350 . S
C1758 C1755 1.463 . S
C1758 N1762 1.427 1_554 S
C1759 H1749 0.929 . S
C1759 C1757 1.433 1_556 S
C1759 N1762 1.384 . S
C1760 H1751 0.929 . S
C1760 C1752 1.378 . S
C1760 C1755 1.350 1_556 S
C1761 H1748 0.929 . S
C1761 C1753 1.433 . S
C1761 N1763 1.384 . S
N1762 C1758 1.427 1_556 S
N1762 C1759 1.384 . S
N1763 C1755 1.427 . S
N1763 C1761 1.384 . S
H1764 C1770 0.930 . S
H1765 C1774 0.930 . S
H1766 C1779 0.929 . S
H1767 C1777 0.929 . S
H1768 C1772 0.929 . S
H1769 C1778 0.929 . S
C1770 H1764 0.930 . S
C1770 C1771 1.367 1_556 S
C1770 C1778 1.378 . S
C1771 C1770 1.367 1_554 S
C1771 C1779 1.433 . S
C1772 H1768 0.929 . S
C1772 C1774 1.378 . S
C1772 C1776 1.350 . S
C1773 C1776 1.463 . S
C1773 C1778 1.350 1_554 S
C1773 N1781 1.427 . S
C1774 H1765 0.930 . S
C1774 C1772 1.378 . S
C1774 C1775 1.367 . S
C1775 C1774 1.367 . S
C1775 C1777 1.433 1_554 S
C1776 C1772 1.350 . S
C1776 C1773 1.463 . S
C1776 N1780 1.427 1_554 S
C1777 H1767 0.929 . S
C1777 C1775 1.433 1_556 S
C1777 N1780 1.384 . S
C1778 H1769 0.929 . S
C1778 C1770 1.378 . S
C1778 C1773 1.350 1_556 S
C1779 H1766 0.929 . S
C1779 C1771 1.433 . S
C1779 N1781 1.384 . S
N1780 C1776 1.427 1_556 S
N1780 C1777 1.384 . S
N1781 C1773 1.427 . S
N1781 C1779 1.384 . S
H1782 C1788 0.930 . S
H1783 C1792 0.930 . S
H1784 C1797 0.929 . S
H1785 C1795 0.929 . S
H1786 C1790 0.929 . S
H1787 C1796 0.929 . S
C1788 H1782 0.930 . S
C1788 C1789 1.367 1_556 S
C1788 C1796 1.378 . S
C1789 C1788 1.367 1_554 S
C1789 C1797 1.433 . S
C1790 H1786 0.929 . S
C1790 C1792 1.378 . S
C1790 C1794 1.350 . S
C1791 C1794 1.463 . S
C1791 C1796 1.350 1_554 S
C1791 N1799 1.427 . S
C1792 H1783 0.930 . S
C1792 C1790 1.378 . S
C1792 C1793 1.367 . S
C1793 C1792 1.367 . S
C1793 C1795 1.433 1_554 S
C1794 C1790 1.350 . S
C1794 C1791 1.463 . S
C1794 N1798 1.427 1_554 S
C1795 H1785 0.929 . S
C1795 C1793 1.433 1_556 S
C1795 N1798 1.384 . S
C1796 H1787 0.929 . S
C1796 C1788 1.378 . S
C1796 C1791 1.350 1_556 S
C1797 H1784 0.929 . S
C1797 C1789 1.433 . S
C1797 N1799 1.384 . S
N1798 C1794 1.427 1_556 S
N1798 C1795 1.384 . S
N1799 C1791 1.427 . S
N1799 C1797 1.384 . S
H1800 C1806 0.930 . S
H1801 C1810 0.930 . S
H1802 C1815 0.929 . S
H1803 C1813 0.929 . S
H1804 C1808 0.929 . S
H1805 C1814 0.929 . S
C1806 H1800 0.930 . S
C1806 C1807 1.367 . S
C1806 C1814 1.378 . S
C1807 C1806 1.367 . S
C1807 C1815 1.433 . S
C1808 H1804 0.929 . S
C1808 C1810 1.378 . S
C1808 C1812 1.350 . S
C1809 C1812 1.463 . S
C1809 C1814 1.350 . S
C1809 N1817 1.427 . S
C1810 H1801 0.930 . S
C1810 C1808 1.378 . S
C1810 C1811 1.367 . S
C1811 C1810 1.367 . S
C1811 C1813 1.433 . S
C1812 C1808 1.350 . S
C1812 C1809 1.463 . S
C1812 N1816 1.427 . S
C1813 H1803 0.929 . S
C1813 C1811 1.433 . S
C1813 N1816 1.384 . S
C1814 H1805 0.929 . S
C1814 C1806 1.378 . S
C1814 C1809 1.350 . S
C1815 H1802 0.929 . S
C1815 C1807 1.433 . S
C1815 N1817 1.384 . S
N1816 C1812 1.427 . S
N1816 C1813 1.384 . S
N1817 C1809 1.427 . S
N1817 C1815 1.384 . S
H1818 C1824 0.930 . S
H1819 C1828 0.930 . S
H1820 C1833 0.929 . S
H1821 C1831 0.929 . S
H1822 C1826 0.929 . S
H1823 C1832 0.929 . S
C1824 H1818 0.930 . S
C1824 C1825 1.367 . S
C1824 C1832 1.378 . S
C1825 C1824 1.367 . S
C1825 C1833 1.433 . S
C1826 H1822 0.929 . S
C1826 C1828 1.378 . S
C1826 C1830 1.350 . S
C1827 C1830 1.463 . S
C1827 C1832 1.350 . S
C1827 N1835 1.427 . S
C1828 H1819 0.930 . S
C1828 C1826 1.378 . S
C1828 C1829 1.367 . S
C1829 C1828 1.367 . S
C1829 C1831 1.433 . S
C1830 C1826 1.350 . S
C1830 C1827 1.463 . S
C1830 N1834 1.427 . S
C1831 H1821 0.929 . S
C1831 C1829 1.433 . S
C1831 N1834 1.384 . S
C1832 H1823 0.929 . S
C1832 C1824 1.378 . S
C1832 C1827 1.350 . S
C1833 H1820 0.929 . S
C1833 C1825 1.433 . S
C1833 N1835 1.384 . S
N1834 C1830 1.427 . S
N1834 C1831 1.384 . S
N1835 C1827 1.427 . S
N1835 C1833 1.384 . S
H1836 C1842 0.930 . S
H1837 C1846 0.930 . S
H1838 C1851 0.929 . S
H1839 C1849 0.929 . S
H1840 C1844 0.929 . S
H1841 C1850 0.929 . S
C1842 H1836 0.930 . S
C1842 C1843 1.367 . S
C1842 C1850 1.378 . S
C1843 C1842 1.367 . S
C1843 C1851 1.433 . S
C1844 H1840 0.929 . S
C1844 C1846 1.378 . S
C1844 C1848 1.350 . S
C1845 C1848 1.463 . S
C1845 C1850 1.350 . S
C1845 N1853 1.427 . S
C1846 H1837 0.930 . S
C1846 C1844 1.378 . S
C1846 C1847 1.367 . S
C1847 C1846 1.367 . S
C1847 C1849 1.433 . S
C1848 C1844 1.350 . S
C1848 C1845 1.463 . S
C1848 N1852 1.427 . S
C1849 H1839 0.929 . S
C1849 C1847 1.433 . S
C1849 N1852 1.384 . S
C1850 H1841 0.929 . S
C1850 C1842 1.378 . S
C1850 C1845 1.350 . S
C1851 H1838 0.929 . S
C1851 C1843 1.433 . S
C1851 N1853 1.384 . S
N1852 C1848 1.427 . S
N1852 C1849 1.384 . S
N1853 C1845 1.427 . S
N1853 C1851 1.384 . S
H1854 C1860 0.930 . S
H1855 C1864 0.930 . S
H1856 C1869 0.929 . S
H1857 C1867 0.929 . S
H1858 C1862 0.929 . S
H1859 C1868 0.929 . S
C1860 H1854 0.930 . S
C1860 C1861 1.367 . S
C1860 C1868 1.378 . S
C1861 C1860 1.367 . S
C1861 C1869 1.433 . S
C1862 H1858 0.929 . S
C1862 C1864 1.378 . S
C1862 C1866 1.350 . S
C1863 C1866 1.463 . S
C1863 C1868 1.350 . S
C1863 N1871 1.427 . S
C1864 H1855 0.930 . S
C1864 C1862 1.378 . S
C1864 C1865 1.367 . S
C1865 C1864 1.367 . S
C1865 C1867 1.433 . S
C1866 C1862 1.350 . S
C1866 C1863 1.463 . S
C1866 N1870 1.427 . S
C1867 H1857 0.929 . S
C1867 C1865 1.433 . S
C1867 N1870 1.384 . S
C1868 H1859 0.929 . S
C1868 C1860 1.378 . S
C1868 C1863 1.350 . S
C1869 H1856 0.929 . S
C1869 C1861 1.433 . S
C1869 N1871 1.384 . S
N1870 C1866 1.427 . S
N1870 C1867 1.384 . S
N1871 C1863 1.427 . S
N1871 C1869 1.384 . S
H1872 C1878 0.930 . S
H1873 C1882 0.930 . S
H1874 C1887 0.929 . S
H1875 C1885 0.929 . S
H1876 C1880 0.929 . S
H1877 C1886 0.929 . S
C1878 H1872 0.930 . S
C1878 C1879 1.367 . S
C1878 C1886 1.378 . S
C1879 C1878 1.367 . S
C1879 C1887 1.433 . S
C1880 H1876 0.929 . S
C1880 C1882 1.378 . S
C1880 C1884 1.350 . S
C1881 C1884 1.463 . S
C1881 C1886 1.350 . S
C1881 N1889 1.427 . S
C1882 H1873 0.930 . S
C1882 C1880 1.378 . S
C1882 C1883 1.367 . S
C1883 C1882 1.367 . S
C1883 C1885 1.433 . S
C1884 C1880 1.350 . S
C1884 C1881 1.463 . S
C1884 N1888 1.427 . S
C1885 H1875 0.929 . S
C1885 C1883 1.433 . S
C1885 N1888 1.384 . S
C1886 H1877 0.929 . S
C1886 C1878 1.378 . S
C1886 C1881 1.350 . S
C1887 H1874 0.929 . S
C1887 C1879 1.433 . S
C1887 N1889 1.384 . S
N1888 C1884 1.427 . S
N1888 C1885 1.384 . S
N1889 C1881 1.427 . S
N1889 C1887 1.384 . S
H1890 C1896 0.930 . S
H1891 C1900 0.930 . S
H1892 C1905 0.929 . S
H1893 C1903 0.929 . S
H1894 C1898 0.929 . S
H1895 C1904 0.929 . S
C1896 H1890 0.930 . S
C1896 C1897 1.367 . S
C1896 C1904 1.378 . S
C1897 C1896 1.367 . S
C1897 C1905 1.433 . S
C1898 H1894 0.929 . S
C1898 C1900 1.378 . S
C1898 C1902 1.350 . S
C1899 C1902 1.463 . S
C1899 C1904 1.350 . S
C1899 N1907 1.427 . S
C1900 H1891 0.930 . S
C1900 C1898 1.378 . S
C1900 C1901 1.367 . S
C1901 C1900 1.367 . S
C1901 C1903 1.433 . S
C1902 C1898 1.350 . S
C1902 C1899 1.463 . S
C1902 N1906 1.427 . S
C1903 H1893 0.929 . S
C1903 C1901 1.433 . S
C1903 N1906 1.384 . S
C1904 H1895 0.929 . S
C1904 C1896 1.378 . S
C1904 C1899 1.350 . S
C1905 H1892 0.929 . S
C1905 C1897 1.433 . S
C1905 N1907 1.384 . S
N1906 C1902 1.427 . S
N1906 C1903 1.384 . S
N1907 C1899 1.427 . S
N1907 C1905 1.384 . S
H1908 C1914 0.930 . S
H1909 C1918 0.930 . S
H1910 C1923 0.929 . S
H1911 C1921 0.929 . S
H1912 C1916 0.929 . S
H1913 C1922 0.929 . S
C1914 H1908 0.930 . S
C1914 C1915 1.367 . S
C1914 C1922 1.378 . S
C1915 C1914 1.367 . S
C1915 C1923 1.433 . S
C1916 H1912 0.929 . S
C1916 C1918 1.378 . S
C1916 C1920 1.350 . S
C1917 C1920 1.463 . S
C1917 C1922 1.350 . S
C1917 N1925 1.427 . S
C1918 H1909 0.930 . S
C1918 C1916 1.378 . S
C1918 C1919 1.367 . S
C1919 C1918 1.367 . S
C1919 C1921 1.433 . S
C1920 C1916 1.350 . S
C1920 C1917 1.463 . S
C1920 N1924 1.427 . S
C1921 H1911 0.929 . S
C1921 C1919 1.433 . S
C1921 N1924 1.384 . S
C1922 H1913 0.929 . S
C1922 C1914 1.378 . S
C1922 C1917 1.350 . S
C1923 H1910 0.929 . S
C1923 C1915 1.433 . S
C1923 N1925 1.384 . S
N1924 C1920 1.427 . S
N1924 C1921 1.384 . S
N1925 C1917 1.427 . S
N1925 C1923 1.384 . S
H1926 C1932 0.930 . S
H1927 C1936 0.930 . S
H1928 C1941 0.929 . S
H1929 C1939 0.929 . S
H1930 C1934 0.929 . S
H1931 C1940 0.929 . S
C1932 H1926 0.930 . S
C1932 C1933 1.367 . S
C1932 C1940 1.378 . S
C1933 C1932 1.367 . S
C1933 C1941 1.433 . S
C1934 H1930 0.929 . S
C1934 C1936 1.378 . S
C1934 C1938 1.350 . S
C1935 C1938 1.463 . S
C1935 C1940 1.350 . S
C1935 N1943 1.427 . S
C1936 H1927 0.930 . S
C1936 C1934 1.378 . S
C1936 C1937 1.367 . S
C1937 C1936 1.367 . S
C1937 C1939 1.433 . S
C1938 C1934 1.350 . S
C1938 C1935 1.463 . S
C1938 N1942 1.427 . S
C1939 H1929 0.929 . S
C1939 C1937 1.433 . S
C1939 N1942 1.384 . S
C1940 H1931 0.929 . S
C1940 C1932 1.378 . S
C1940 C1935 1.350 . S
C1941 H1928 0.929 . S
C1941 C1933 1.433 . S
C1941 N1943 1.384 . S
N1942 C1938 1.427 . S
N1942 C1939 1.384 . S
N1943 C1935 1.427 . S
N1943 C1941 1.384 . S
H1944 C1950 0.930 . S
H1945 C1954 0.930 . S
H1946 C1959 0.929 . S
H1947 C1957 0.929 . S
H1948 C1952 0.929 . S
H1949 C1958 0.929 . S
C1950 H1944 0.930 . S
C1950 C1951 1.367 . S
C1950 C1958 1.378 . S
C1951 C1950 1.367 . S
C1951 C1959 1.433 . S
C1952 H1948 0.929 . S
C1952 C1954 1.378 . S
C1952 C1956 1.350 . S
C1953 C1956 1.463 . S
C1953 C1958 1.350 . S
C1953 N1961 1.427 . S
C1954 H1945 0.930 . S
C1954 C1952 1.378 . S
C1954 C1955 1.367 . S
C1955 C1954 1.367 . S
C1955 C1957 1.433 . S
C1956 C1952 1.350 . S
C1956 C1953 1.463 . S
C1956 N1960 1.427 . S
C1957 H1947 0.929 . S
C1957 C1955 1.433 . S
C1957 N1960 1.384 . S
C1958 H1949 0.929 . S
C1958 C1950 1.378 . S
C1958 C1953 1.350 . S
C1959 H1946 0.929 . S
C1959 C1951 1.433 . S
C1959 N1961 1.384 . S
N1960 C1956 1.427 . S
N1960 C1957 1.384 . S
N1961 C1953 1.427 . S
N1961 C1959 1.384 . S
H1962 C1968 0.930 . S
H1963 C1972 0.930 . S
H1964 C1977 0.929 . S
H1965 C1975 0.929 . S
H1966 C1970 0.929 . S
H1967 C1976 0.929 . S
C1968 H1962 0.930 . S
C1968 C1969 1.367 . S
C1968 C1976 1.378 . S
C1969 C1968 1.367 . S
C1969 C1977 1.433 . S
C1970 H1966 0.929 . S
C1970 C1972 1.378 . S
C1970 C1974 1.350 . S
C1971 C1974 1.463 . S
C1971 C1976 1.350 . S
C1971 N1979 1.427 . S
C1972 H1963 0.930 . S
C1972 C1970 1.378 . S
C1972 C1973 1.367 . S
C1973 C1972 1.367 . S
C1973 C1975 1.433 . S
C1974 C1970 1.350 . S
C1974 C1971 1.463 . S
C1974 N1978 1.427 . S
C1975 H1965 0.929 . S
C1975 C1973 1.433 . S
C1975 N1978 1.384 . S
C1976 H1967 0.929 . S
C1976 C1968 1.378 . S
C1976 C1971 1.350 . S
C1977 H1964 0.929 . S
C1977 C1969 1.433 . S
C1977 N1979 1.384 . S
N1978 C1974 1.427 . S
N1978 C1975 1.384 . S
N1979 C1971 1.427 . S
N1979 C1977 1.384 . S
H1980 C1986 0.930 . S
H1981 C1990 0.930 . S
H1982 C1995 0.929 . S
H1983 C1993 0.929 . S
H1984 C1988 0.929 . S
H1985 C1994 0.929 . S
C1986 H1980 0.930 . S
C1986 C1987 1.367 . S
C1986 C1994 1.378 . S
C1987 C1986 1.367 . S
C1987 C1995 1.433 . S
C1988 H1984 0.929 . S
C1988 C1990 1.378 . S
C1988 C1992 1.350 . S
C1989 C1992 1.463 . S
C1989 C1994 1.350 . S
C1989 N1997 1.427 . S
C1990 H1981 0.930 . S
C1990 C1988 1.378 . S
C1990 C1991 1.367 . S
C1991 C1990 1.367 . S
C1991 C1993 1.433 . S
C1992 C1988 1.350 . S
C1992 C1989 1.463 . S
C1992 N1996 1.427 . S
C1993 H1983 0.929 . S
C1993 C1991 1.433 . S
C1993 N1996 1.384 . S
C1994 H1985 0.929 . S
C1994 C1986 1.378 . S
C1994 C1989 1.350 . S
C1995 H1982 0.929 . S
C1995 C1987 1.433 . S
C1995 N1997 1.384 . S
N1996 C1992 1.427 . S
N1996 C1993 1.384 . S
N1997 C1989 1.427 . S
N1997 C1995 1.384 . S
H1998 C2004 0.930 . S
H1999 C2008 0.930 . S
H2000 C2013 0.929 . S
H2001 C2011 0.929 . S
H2002 C2006 0.929 . S
H2003 C2012 0.929 . S
C2004 H1998 0.930 . S
C2004 C2005 1.367 . S
C2004 C2012 1.378 . S
C2005 C2004 1.367 . S
C2005 C2013 1.433 . S
C2006 H2002 0.929 . S
C2006 C2008 1.378 . S
C2006 C2010 1.350 . S
C2007 C2010 1.463 . S
C2007 C2012 1.350 . S
C2007 N2015 1.427 . S
C2008 H1999 0.930 . S
C2008 C2006 1.378 . S
C2008 C2009 1.367 . S
C2009 C2008 1.367 . S
C2009 C2011 1.433 . S
C2010 C2006 1.350 . S
C2010 C2007 1.463 . S
C2010 N2014 1.427 . S
C2011 H2001 0.929 . S
C2011 C2009 1.433 . S
C2011 N2014 1.384 . S
C2012 H2003 0.929 . S
C2012 C2004 1.378 . S
C2012 C2007 1.350 . S
C2013 H2000 0.929 . S
C2013 C2005 1.433 . S
C2013 N2015 1.384 . S
N2014 C2010 1.427 . S
N2014 C2011 1.384 . S
N2015 C2007 1.427 . S
N2015 C2013 1.384 . S
H2016 C2022 0.930 . S
H2017 C2026 0.930 . S
H2018 C2031 0.929 . S
H2019 C2029 0.929 . S
H2020 C2024 0.929 . S
H2021 C2030 0.929 . S
C2022 H2016 0.930 . S
C2022 C2023 1.367 . S
C2022 C2030 1.378 . S
C2023 C2022 1.367 . S
C2023 C2031 1.433 . S
C2024 H2020 0.929 . S
C2024 C2026 1.378 . S
C2024 C2028 1.350 . S
C2025 C2028 1.463 . S
C2025 C2030 1.350 . S
C2025 N2033 1.427 . S
C2026 H2017 0.930 . S
C2026 C2024 1.378 . S
C2026 C2027 1.367 . S
C2027 C2026 1.367 . S
C2027 C2029 1.433 . S
C2028 C2024 1.350 . S
C2028 C2025 1.463 . S
C2028 N2032 1.427 . S
C2029 H2019 0.929 . S
C2029 C2027 1.433 . S
C2029 N2032 1.384 . S
C2030 H2021 0.929 . S
C2030 C2022 1.378 . S
C2030 C2025 1.350 . S
C2031 H2018 0.929 . S
C2031 C2023 1.433 . S
C2031 N2033 1.384 . S
N2032 C2028 1.427 . S
N2032 C2029 1.384 . S
N2033 C2025 1.427 . S
N2033 C2031 1.384 . S
H2034 C2040 0.930 . S
H2035 C2044 0.930 . S
H2036 C2049 0.929 . S
H2037 C2047 0.929 . S
H2038 C2042 0.929 . S
H2039 C2048 0.929 . S
C2040 H2034 0.930 . S
C2040 C2041 1.367 . S
C2040 C2048 1.378 . S
C2041 C2040 1.367 . S
C2041 C2049 1.433 . S
C2042 H2038 0.929 . S
C2042 C2044 1.378 . S
C2042 C2046 1.350 . S
C2043 C2046 1.463 . S
C2043 C2048 1.350 . S
C2043 N2051 1.427 . S
C2044 H2035 0.930 . S
C2044 C2042 1.378 . S
C2044 C2045 1.367 . S
C2045 C2044 1.367 . S
C2045 C2047 1.433 . S
C2046 C2042 1.350 . S
C2046 C2043 1.463 . S
C2046 N2050 1.427 . S
C2047 H2037 0.929 . S
C2047 C2045 1.433 . S
C2047 N2050 1.384 . S
C2048 H2039 0.929 . S
C2048 C2040 1.378 . S
C2048 C2043 1.350 . S
C2049 H2036 0.929 . S
C2049 C2041 1.433 . S
C2049 N2051 1.384 . S
N2050 C2046 1.427 . S
N2050 C2047 1.384 . S
N2051 C2043 1.427 . S
N2051 C2049 1.384 . S
H2052 C2058 0.930 . S
H2053 C2062 0.930 . S
H2054 C2067 0.929 . S
H2055 C2065 0.929 . S
H2056 C2060 0.929 . S
H2057 C2066 0.929 . S
C2058 H2052 0.930 . S
C2058 C2059 1.367 . S
C2058 C2066 1.378 . S
C2059 C2058 1.367 . S
C2059 C2067 1.433 . S
C2060 H2056 0.929 . S
C2060 C2062 1.378 . S
C2060 C2064 1.350 . S
C2061 C2064 1.463 . S
C2061 C2066 1.350 . S
C2061 N2069 1.427 . S
C2062 H2053 0.930 . S
C2062 C2060 1.378 . S
C2062 C2063 1.367 . S
C2063 C2062 1.367 . S
C2063 C2065 1.433 . S
C2064 C2060 1.350 . S
C2064 C2061 1.463 . S
C2064 N2068 1.427 . S
C2065 H2055 0.929 . S
C2065 C2063 1.433 . S
C2065 N2068 1.384 . S
C2066 H2057 0.929 . S
C2066 C2058 1.378 . S
C2066 C2061 1.350 . S
C2067 H2054 0.929 . S
C2067 C2059 1.433 . S
C2067 N2069 1.384 . S
N2068 C2064 1.427 . S
N2068 C2065 1.384 . S
N2069 C2061 1.427 . S
N2069 C2067 1.384 . S
H2070 C2076 0.930 . S
H2071 C2080 0.930 . S
H2072 C2085 0.929 . S
H2073 C2083 0.929 . S
H2074 C2078 0.929 . S
H2075 C2084 0.929 . S
C2076 H2070 0.930 . S
C2076 C2077 1.367 . S
C2076 C2084 1.378 . S
C2077 C2076 1.367 . S
C2077 C2085 1.433 . S
C2078 H2074 0.929 . S
C2078 C2080 1.378 . S
C2078 C2082 1.350 . S
C2079 C2082 1.463 . S
C2079 C2084 1.350 . S
C2079 N2087 1.427 . S
C2080 H2071 0.930 . S
C2080 C2078 1.378 . S
C2080 C2081 1.367 . S
C2081 C2080 1.367 . S
C2081 C2083 1.433 . S
C2082 C2078 1.350 . S
C2082 C2079 1.463 . S
C2082 N2086 1.427 . S
C2083 H2073 0.929 . S
C2083 C2081 1.433 . S
C2083 N2086 1.384 . S
C2084 H2075 0.929 . S
C2084 C2076 1.378 . S
C2084 C2079 1.350 . S
C2085 H2072 0.929 . S
C2085 C2077 1.433 . S
C2085 N2087 1.384 . S
N2086 C2082 1.427 . S
N2086 C2083 1.384 . S
N2087 C2079 1.427 . S
N2087 C2085 1.384 . S
H2088 C2094 0.930 . S
H2089 C2098 0.930 . S
H2090 C2103 0.929 . S
H2091 C2101 0.929 . S
H2092 C2096 0.929 . S
H2093 C2102 0.929 . S
C2094 H2088 0.930 . S
C2094 C2095 1.367 . S
C2094 C2102 1.378 . S
C2095 C2094 1.367 . S
C2095 C2103 1.433 . S
C2096 H2092 0.929 . S
C2096 C2098 1.378 . S
C2096 C2100 1.350 . S
C2097 C2100 1.463 . S
C2097 C2102 1.350 . S
C2097 N2105 1.427 . S
C2098 H2089 0.930 . S
C2098 C2096 1.378 . S
C2098 C2099 1.367 . S
C2099 C2098 1.367 . S
C2099 C2101 1.433 . S
C2100 C2096 1.350 . S
C2100 C2097 1.463 . S
C2100 N2104 1.427 . S
C2101 H2091 0.929 . S
C2101 C2099 1.433 . S
C2101 N2104 1.384 . S
C2102 H2093 0.929 . S
C2102 C2094 1.378 . S
C2102 C2097 1.350 . S
C2103 H2090 0.929 . S
C2103 C2095 1.433 . S
C2103 N2105 1.384 . S
N2104 C2100 1.427 . S
N2104 C2101 1.384 . S
N2105 C2097 1.427 . S
N2105 C2103 1.384 . S
H2106 C2112 0.930 . S
H2107 C2116 0.930 . S
H2108 C2121 0.929 . S
H2109 C2119 0.929 . S
H2110 C2114 0.929 . S
H2111 C2120 0.929 . S
C2112 H2106 0.930 . S
C2112 C2113 1.367 . S
C2112 C2120 1.378 . S
C2113 C2112 1.367 . S
C2113 C2121 1.433 . S
C2114 H2110 0.929 . S
C2114 C2116 1.378 . S
C2114 C2118 1.350 . S
C2115 C2118 1.463 . S
C2115 C2120 1.350 . S
C2115 N2123 1.427 . S
C2116 H2107 0.930 . S
C2116 C2114 1.378 . S
C2116 C2117 1.367 . S
C2117 C2116 1.367 . S
C2117 C2119 1.433 . S
C2118 C2114 1.350 . S
C2118 C2115 1.463 . S
C2118 N2122 1.427 . S
C2119 H2109 0.929 . S
C2119 C2117 1.433 . S
C2119 N2122 1.384 . S
C2120 H2111 0.929 . S
C2120 C2112 1.378 . S
C2120 C2115 1.350 . S
C2121 H2108 0.929 . S
C2121 C2113 1.433 . S
C2121 N2123 1.384 . S
N2122 C2118 1.427 . S
N2122 C2119 1.384 . S
N2123 C2115 1.427 . S
N2123 C2121 1.384 . S
H2124 C2130 0.930 . S
H2125 C2134 0.930 . S
H2126 C2139 0.929 . S
H2127 C2137 0.929 . S
H2128 C2132 0.929 . S
H2129 C2138 0.929 . S
C2130 H2124 0.930 . S
C2130 C2131 1.367 . S
C2130 C2138 1.378 . S
C2131 C2130 1.367 . S
C2131 C2139 1.433 . S
C2132 H2128 0.929 . S
C2132 C2134 1.378 . S
C2132 C2136 1.350 . S
C2133 C2136 1.463 . S
C2133 C2138 1.350 . S
C2133 N2141 1.427 . S
C2134 H2125 0.930 . S
C2134 C2132 1.378 . S
C2134 C2135 1.367 . S
C2135 C2134 1.367 . S
C2135 C2137 1.433 . S
C2136 C2132 1.350 . S
C2136 C2133 1.463 . S
C2136 N2140 1.427 . S
C2137 H2127 0.929 . S
C2137 C2135 1.433 . S
C2137 N2140 1.384 . S
C2138 H2129 0.929 . S
C2138 C2130 1.378 . S
C2138 C2133 1.350 . S
C2139 H2126 0.929 . S
C2139 C2131 1.433 . S
C2139 N2141 1.384 . S
N2140 C2136 1.427 . S
N2140 C2137 1.384 . S
N2141 C2133 1.427 . S
N2141 C2139 1.384 . S
H2142 C2148 0.930 . S
H2143 C2152 0.930 . S
H2144 C2157 0.929 . S
H2145 C2155 0.929 . S
H2146 C2150 0.929 . S
H2147 C2156 0.929 . S
C2148 H2142 0.930 . S
C2148 C2149 1.367 . S
C2148 C2156 1.378 . S
C2149 C2148 1.367 . S
C2149 C2157 1.433 . S
C2150 H2146 0.929 . S
C2150 C2152 1.378 . S
C2150 C2154 1.350 . S
C2151 C2154 1.463 . S
C2151 C2156 1.350 . S
C2151 N2159 1.427 . S
C2152 H2143 0.930 . S
C2152 C2150 1.378 . S
C2152 C2153 1.367 . S
C2153 C2152 1.367 . S
C2153 C2155 1.433 . S
C2154 C2150 1.350 . S
C2154 C2151 1.463 . S
C2154 N2158 1.427 . S
C2155 H2145 0.929 . S
C2155 C2153 1.433 . S
C2155 N2158 1.384 . S
C2156 H2147 0.929 . S
C2156 C2148 1.378 . S
C2156 C2151 1.350 . S
C2157 H2144 0.929 . S
C2157 C2149 1.433 . S
C2157 N2159 1.384 . S
N2158 C2154 1.427 . S
N2158 C2155 1.384 . S
N2159 C2151 1.427 . S
N2159 C2157 1.384 . S
H2160 C2166 0.930 . S
H2161 C2170 0.930 . S
H2162 C2175 0.929 . S
H2163 C2173 0.929 . S
H2164 C2168 0.929 . S
H2165 C2174 0.929 . S
C2166 H2160 0.930 . S
C2166 C2167 1.367 . S
C2166 C2174 1.378 . S
C2167 C2166 1.367 . S
C2167 C2175 1.433 . S
C2168 H2164 0.929 . S
C2168 C2170 1.378 . S
C2168 C2172 1.350 . S
C2169 C2172 1.463 . S
C2169 C2174 1.350 . S
C2169 N2177 1.427 . S
C2170 H2161 0.930 . S
C2170 C2168 1.378 . S
C2170 C2171 1.367 . S
C2171 C2170 1.367 . S
C2171 C2173 1.433 . S
C2172 C2168 1.350 . S
C2172 C2169 1.463 . S
C2172 N2176 1.427 . S
C2173 H2163 0.929 . S
C2173 C2171 1.433 . S
C2173 N2176 1.384 . S
C2174 H2165 0.929 . S
C2174 C2166 1.378 . S
C2174 C2169 1.350 . S
C2175 H2162 0.929 . S
C2175 C2167 1.433 . S
C2175 N2177 1.384 . S
N2176 C2172 1.427 . S
N2176 C2173 1.384 . S
N2177 C2169 1.427 . S
N2177 C2175 1.384 . S
H2178 C2184 0.930 . S
H2179 C2188 0.930 . S
H2180 C2193 0.929 . S
H2181 C2191 0.929 . S
H2182 C2186 0.929 . S
H2183 C2192 0.929 . S
C2184 H2178 0.930 . S
C2184 C2185 1.367 . S
C2184 C2192 1.378 . S
C2185 C2184 1.367 . S
C2185 C2193 1.433 . S
C2186 H2182 0.929 . S
C2186 C2188 1.378 . S
C2186 C2190 1.350 . S
C2187 C2190 1.463 . S
C2187 C2192 1.350 . S
C2187 N2195 1.427 . S
C2188 H2179 0.930 . S
C2188 C2186 1.378 . S
C2188 C2189 1.367 . S
C2189 C2188 1.367 . S
C2189 C2191 1.433 . S
C2190 C2186 1.350 . S
C2190 C2187 1.463 . S
C2190 N2194 1.427 . S
C2191 H2181 0.929 . S
C2191 C2189 1.433 . S
C2191 N2194 1.384 . S
C2192 H2183 0.929 . S
C2192 C2184 1.378 . S
C2192 C2187 1.350 . S
C2193 H2180 0.929 . S
C2193 C2185 1.433 . S
C2193 N2195 1.384 . S
N2194 C2190 1.427 . S
N2194 C2191 1.384 . S
N2195 C2187 1.427 . S
N2195 C2193 1.384 . S
H2196 C2202 0.930 . S
H2197 C2206 0.930 . S
H2198 C2211 0.929 . S
H2199 C2209 0.929 . S
H2200 C2204 0.929 . S
H2201 C2210 0.929 . S
C2202 H2196 0.930 . S
C2202 C2203 1.367 . S
C2202 C2210 1.378 . S
C2203 C2202 1.367 . S
C2203 C2211 1.433 . S
C2204 H2200 0.929 . S
C2204 C2206 1.378 . S
C2204 C2208 1.350 . S
C2205 C2208 1.463 . S
C2205 C2210 1.350 . S
C2205 N2213 1.427 . S
C2206 H2197 0.930 . S
C2206 C2204 1.378 . S
C2206 C2207 1.367 . S
C2207 C2206 1.367 . S
C2207 C2209 1.433 . S
C2208 C2204 1.350 . S
C2208 C2205 1.463 . S
C2208 N2212 1.427 . S
C2209 H2199 0.929 . S
C2209 C2207 1.433 . S
C2209 N2212 1.384 . S
C2210 H2201 0.929 . S
C2210 C2202 1.378 . S
C2210 C2205 1.350 . S
C2211 H2198 0.929 . S
C2211 C2203 1.433 . S
C2211 N2213 1.384 . S
N2212 C2208 1.427 . S
N2212 C2209 1.384 . S
N2213 C2205 1.427 . S
N2213 C2211 1.384 . S
H2214 C2220 0.930 . S
H2215 C2224 0.930 . S
H2216 C2229 0.929 . S
H2217 C2227 0.929 . S
H2218 C2222 0.929 . S
H2219 C2228 0.929 . S
C2220 H2214 0.930 . S
C2220 C2221 1.367 . S
C2220 C2228 1.378 . S
C2221 C2220 1.367 . S
C2221 C2229 1.433 . S
C2222 H2218 0.929 . S
C2222 C2224 1.378 . S
C2222 C2226 1.350 . S
C2223 C2226 1.463 . S
C2223 C2228 1.350 . S
C2223 N2231 1.427 . S
C2224 H2215 0.930 . S
C2224 C2222 1.378 . S
C2224 C2225 1.367 . S
C2225 C2224 1.367 . S
C2225 C2227 1.433 . S
C2226 C2222 1.350 . S
C2226 C2223 1.463 . S
C2226 N2230 1.427 . S
C2227 H2217 0.929 . S
C2227 C2225 1.433 . S
C2227 N2230 1.384 . S
C2228 H2219 0.929 . S
C2228 C2220 1.378 . S
C2228 C2223 1.350 . S
C2229 H2216 0.929 . S
C2229 C2221 1.433 . S
C2229 N2231 1.384 . S
N2230 C2226 1.427 . S
N2230 C2227 1.384 . S
N2231 C2223 1.427 . S
N2231 C2229 1.384 . S
H2232 C2238 0.930 . S
H2233 C2242 0.930 . S
H2234 C2247 0.929 . S
H2235 C2245 0.929 . S
H2236 C2240 0.929 . S
H2237 C2246 0.929 . S
C2238 H2232 0.930 . S
C2238 C2239 1.367 . S
C2238 C2246 1.378 . S
C2239 C2238 1.367 . S
C2239 C2247 1.433 . S
C2240 H2236 0.929 . S
C2240 C2242 1.378 . S
C2240 C2244 1.350 . S
C2241 C2244 1.463 . S
C2241 C2246 1.350 . S
C2241 N2249 1.427 . S
C2242 H2233 0.930 . S
C2242 C2240 1.378 . S
C2242 C2243 1.367 . S
C2243 C2242 1.367 . S
C2243 C2245 1.433 . S
C2244 C2240 1.350 . S
C2244 C2241 1.463 . S
C2244 N2248 1.427 . S
C2245 H2235 0.929 . S
C2245 C2243 1.433 . S
C2245 N2248 1.384 . S
C2246 H2237 0.929 . S
C2246 C2238 1.378 . S
C2246 C2241 1.350 . S
C2247 H2234 0.929 . S
C2247 C2239 1.433 . S
C2247 N2249 1.384 . S
N2248 C2244 1.427 . S
N2248 C2245 1.384 . S
N2249 C2241 1.427 . S
N2249 C2247 1.384 . S
H2250 C2256 0.930 . S
H2251 C2260 0.930 . S
H2252 C2265 0.929 . S
H2253 C2263 0.929 . S
H2254 C2258 0.929 . S
H2255 C2264 0.929 . S
C2256 H2250 0.930 . S
C2256 C2257 1.367 . S
C2256 C2264 1.378 . S
C2257 C2256 1.367 . S
C2257 C2265 1.433 . S
C2258 H2254 0.929 . S
C2258 C2260 1.378 . S
C2258 C2262 1.350 . S
C2259 C2262 1.463 . S
C2259 C2264 1.350 . S
C2259 N2267 1.427 . S
C2260 H2251 0.930 . S
C2260 C2258 1.378 . S
C2260 C2261 1.367 . S
C2261 C2260 1.367 . S
C2261 C2263 1.433 . S
C2262 C2258 1.350 . S
C2262 C2259 1.463 . S
C2262 N2266 1.427 . S
C2263 H2253 0.929 . S
C2263 C2261 1.433 . S
C2263 N2266 1.384 . S
C2264 H2255 0.929 . S
C2264 C2256 1.378 . S
C2264 C2259 1.350 . S
C2265 H2252 0.929 . S
C2265 C2257 1.433 . S
C2265 N2267 1.384 . S
N2266 C2262 1.427 . S
N2266 C2263 1.384 . S
N2267 C2259 1.427 . S
N2267 C2265 1.384 . S
H2268 C2274 0.930 . S
H2269 C2278 0.930 . S
H2270 C2283 0.929 . S
H2271 C2281 0.929 . S
H2272 C2276 0.929 . S
H2273 C2282 0.929 . S
C2274 H2268 0.930 . S
C2274 C2275 1.367 . S
C2274 C2282 1.378 . S
C2275 C2274 1.367 . S
C2275 C2283 1.433 . S
C2276 H2272 0.929 . S
C2276 C2278 1.378 . S
C2276 C2280 1.350 . S
C2277 C2280 1.463 . S
C2277 C2282 1.350 . S
C2277 N2285 1.427 . S
C2278 H2269 0.930 . S
C2278 C2276 1.378 . S
C2278 C2279 1.367 . S
C2279 C2278 1.367 . S
C2279 C2281 1.433 . S
C2280 C2276 1.350 . S
C2280 C2277 1.463 . S
C2280 N2284 1.427 . S
C2281 H2271 0.929 . S
C2281 C2279 1.433 . S
C2281 N2284 1.384 . S
C2282 H2273 0.929 . S
C2282 C2274 1.378 . S
C2282 C2277 1.350 . S
C2283 H2270 0.929 . S
C2283 C2275 1.433 . S
C2283 N2285 1.384 . S
N2284 C2280 1.427 . S
N2284 C2281 1.384 . S
N2285 C2277 1.427 . S
N2285 C2283 1.384 . S
H2286 C2292 0.930 . S
H2287 C2296 0.930 . S
H2288 C2301 0.929 . S
H2289 C2299 0.929 . S
H2290 C2294 0.929 . S
H2291 C2300 0.929 . S
C2292 H2286 0.930 . S
C2292 C2293 1.367 . S
C2292 C2300 1.378 . S
C2293 C2292 1.367 . S
C2293 C2301 1.433 . S
C2294 H2290 0.929 . S
C2294 C2296 1.378 . S
C2294 C2298 1.350 . S
C2295 C2298 1.463 . S
C2295 C2300 1.350 . S
C2295 N2303 1.427 . S
C2296 H2287 0.930 . S
C2296 C2294 1.378 . S
C2296 C2297 1.367 . S
C2297 C2296 1.367 . S
C2297 C2299 1.433 . S
C2298 C2294 1.350 . S
C2298 C2295 1.463 . S
C2298 N2302 1.427 . S
C2299 H2289 0.929 . S
C2299 C2297 1.433 . S
C2299 N2302 1.384 . S
C2300 H2291 0.929 . S
C2300 C2292 1.378 . S
C2300 C2295 1.350 . S
C2301 H2288 0.929 . S
C2301 C2293 1.433 . S
C2301 N2303 1.384 . S
N2302 C2298 1.427 . S
N2302 C2299 1.384 . S
N2303 C2295 1.427 . S
N2303 C2301 1.384 . S
H2304 C2310 0.930 . S
H2305 C2314 0.930 . S
H2306 C2319 0.929 . S
H2307 C2317 0.929 . S
H2308 C2312 0.929 . S
H2309 C2318 0.929 . S
C2310 H2304 0.930 . S
C2310 C2311 1.367 . S
C2310 C2318 1.378 . S
C2311 C2310 1.367 . S
C2311 C2319 1.433 . S
C2312 H2308 0.929 . S
C2312 C2314 1.378 . S
C2312 C2316 1.350 . S
C2313 C2316 1.463 . S
C2313 C2318 1.350 . S
C2313 N2321 1.427 . S
C2314 H2305 0.930 . S
C2314 C2312 1.378 . S
C2314 C2315 1.367 . S
C2315 C2314 1.367 . S
C2315 C2317 1.433 . S
C2316 C2312 1.350 . S
C2316 C2313 1.463 . S
C2316 N2320 1.427 . S
C2317 H2307 0.929 . S
C2317 C2315 1.433 . S
C2317 N2320 1.384 . S
C2318 H2309 0.929 . S
C2318 C2310 1.378 . S
C2318 C2313 1.350 . S
C2319 H2306 0.929 . S
C2319 C2311 1.433 . S
C2319 N2321 1.384 . S
N2320 C2316 1.427 . S
N2320 C2317 1.384 . S
N2321 C2313 1.427 . S
N2321 C2319 1.384 . S
H2322 C2328 0.930 . S
H2323 C2332 0.930 . S
H2324 C2337 0.929 . S
H2325 C2335 0.929 . S
H2326 C2330 0.929 . S
H2327 C2336 0.929 . S
C2328 H2322 0.930 . S
C2328 C2329 1.367 . S
C2328 C2336 1.378 . S
C2329 C2328 1.367 . S
C2329 C2337 1.433 . S
C2330 H2326 0.929 . S
C2330 C2332 1.378 . S
C2330 C2334 1.350 . S
C2331 C2334 1.463 . S
C2331 C2336 1.350 . S
C2331 N2339 1.427 . S
C2332 H2323 0.930 . S
C2332 C2330 1.378 . S
C2332 C2333 1.367 . S
C2333 C2332 1.367 . S
C2333 C2335 1.433 . S
C2334 C2330 1.350 . S
C2334 C2331 1.463 . S
C2334 N2338 1.427 . S
C2335 H2325 0.929 . S
C2335 C2333 1.433 . S
C2335 N2338 1.384 . S
C2336 H2327 0.929 . S
C2336 C2328 1.378 . S
C2336 C2331 1.350 . S
C2337 H2324 0.929 . S
C2337 C2329 1.433 . S
C2337 N2339 1.384 . S
N2338 C2334 1.427 . S
N2338 C2335 1.384 . S
N2339 C2331 1.427 . S
N2339 C2337 1.384 . S
H2340 C2346 0.930 . S
H2341 C2350 0.930 . S
H2342 C2355 0.929 . S
H2343 C2353 0.929 . S
H2344 C2348 0.929 . S
H2345 C2354 0.929 . S
C2346 H2340 0.930 . S
C2346 C2347 1.367 . S
C2346 C2354 1.378 . S
C2347 C2346 1.367 . S
C2347 C2355 1.433 . S
C2348 H2344 0.929 . S
C2348 C2350 1.378 . S
C2348 C2352 1.350 . S
C2349 C2352 1.463 . S
C2349 C2354 1.350 . S
C2349 N2357 1.427 . S
C2350 H2341 0.930 . S
C2350 C2348 1.378 . S
C2350 C2351 1.367 . S
C2351 C2350 1.367 . S
C2351 C2353 1.433 . S
C2352 C2348 1.350 . S
C2352 C2349 1.463 . S
C2352 N2356 1.427 . S
C2353 H2343 0.929 . S
C2353 C2351 1.433 . S
C2353 N2356 1.384 . S
C2354 H2345 0.929 . S
C2354 C2346 1.378 . S
C2354 C2349 1.350 . S
C2355 H2342 0.929 . S
C2355 C2347 1.433 . S
C2355 N2357 1.384 . S
N2356 C2352 1.427 . S
N2356 C2353 1.384 . S
N2357 C2349 1.427 . S
N2357 C2355 1.384 . S
H2358 C2364 0.930 . S
H2359 C2368 0.930 . S
H2360 C2373 0.929 . S
H2361 C2371 0.929 . S
H2362 C2366 0.929 . S
H2363 C2372 0.929 . S
C2364 H2358 0.930 . S
C2364 C2365 1.367 . S
C2364 C2372 1.378 . S
C2365 C2364 1.367 . S
C2365 C2373 1.433 . S
C2366 H2362 0.929 . S
C2366 C2368 1.378 . S
C2366 C2370 1.350 . S
C2367 C2370 1.463 . S
C2367 C2372 1.350 . S
C2367 N2375 1.427 . S
C2368 H2359 0.930 . S
C2368 C2366 1.378 . S
C2368 C2369 1.367 . S
C2369 C2368 1.367 . S
C2369 C2371 1.433 . S
C2370 C2366 1.350 . S
C2370 C2367 1.463 . S
C2370 N2374 1.427 . S
C2371 H2361 0.929 . S
C2371 C2369 1.433 . S
C2371 N2374 1.384 . S
C2372 H2363 0.929 . S
C2372 C2364 1.378 . S
C2372 C2367 1.350 . S
C2373 H2360 0.929 . S
C2373 C2365 1.433 . S
C2373 N2375 1.384 . S
N2374 C2370 1.427 . S
N2374 C2371 1.384 . S
N2375 C2367 1.427 . S
N2375 C2373 1.384 . S
H2376 C2382 0.930 . S
H2377 C2386 0.930 . S
H2378 C2391 0.929 . S
H2379 C2389 0.929 . S
H2380 C2384 0.929 . S
H2381 C2390 0.929 . S
C2382 H2376 0.930 . S
C2382 C2383 1.367 . S
C2382 C2390 1.378 . S
C2383 C2382 1.367 . S
C2383 C2391 1.433 . S
C2384 H2380 0.929 . S
C2384 C2386 1.378 . S
C2384 C2388 1.350 . S
C2385 C2388 1.463 . S
C2385 C2390 1.350 . S
C2385 N2393 1.427 . S
C2386 H2377 0.930 . S
C2386 C2384 1.378 . S
C2386 C2387 1.367 . S
C2387 C2386 1.367 . S
C2387 C2389 1.433 . S
C2388 C2384 1.350 . S
C2388 C2385 1.463 . S
C2388 N2392 1.427 . S
C2389 H2379 0.929 . S
C2389 C2387 1.433 . S
C2389 N2392 1.384 . S
C2390 H2381 0.929 . S
C2390 C2382 1.378 . S
C2390 C2385 1.350 . S
C2391 H2378 0.929 . S
C2391 C2383 1.433 . S
C2391 N2393 1.384 . S
N2392 C2388 1.427 . S
N2392 C2389 1.384 . S
N2393 C2385 1.427 . S
N2393 C2391 1.384 . S
H2394 C2400 0.930 . S
H2395 C2404 0.930 . S
H2396 C2409 0.929 . S
H2397 C2407 0.929 . S
H2398 C2402 0.929 . S
H2399 C2408 0.929 . S
C2400 H2394 0.930 . S
C2400 C2401 1.367 . S
C2400 C2408 1.378 . S
C2401 C2400 1.367 . S
C2401 C2409 1.433 . S
C2402 H2398 0.929 . S
C2402 C2404 1.378 . S
C2402 C2406 1.350 . S
C2403 C2406 1.463 . S
C2403 C2408 1.350 . S
C2403 N2411 1.427 . S
C2404 H2395 0.930 . S
C2404 C2402 1.378 . S
C2404 C2405 1.367 . S
C2405 C2404 1.367 . S
C2405 C2407 1.433 . S
C2406 C2402 1.350 . S
C2406 C2403 1.463 . S
C2406 N2410 1.427 . S
C2407 H2397 0.929 . S
C2407 C2405 1.433 . S
C2407 N2410 1.384 . S
C2408 H2399 0.929 . S
C2408 C2400 1.378 . S
C2408 C2403 1.350 . S
C2409 H2396 0.929 . S
C2409 C2401 1.433 . S
C2409 N2411 1.384 . S
N2410 C2406 1.427 . S
N2410 C2407 1.384 . S
N2411 C2403 1.427 . S
N2411 C2409 1.384 . S
H2412 C2418 0.930 . S
H2413 C2422 0.930 . S
H2414 C2427 0.929 . S
H2415 C2425 0.929 . S
H2416 C2420 0.929 . S
H2417 C2426 0.929 . S
C2418 H2412 0.930 . S
C2418 C2419 1.367 . S
C2418 C2426 1.378 . S
C2419 C2418 1.367 . S
C2419 C2427 1.433 . S
C2420 H2416 0.929 . S
C2420 C2422 1.378 . S
C2420 C2424 1.350 . S
C2421 C2424 1.463 . S
C2421 C2426 1.350 . S
C2421 N2429 1.427 . S
C2422 H2413 0.930 . S
C2422 C2420 1.378 . S
C2422 C2423 1.367 . S
C2423 C2422 1.367 . S
C2423 C2425 1.433 . S
C2424 C2420 1.350 . S
C2424 C2421 1.463 . S
C2424 N2428 1.427 . S
C2425 H2415 0.929 . S
C2425 C2423 1.433 . S
C2425 N2428 1.384 . S
C2426 H2417 0.929 . S
C2426 C2418 1.378 . S
C2426 C2421 1.350 . S
C2427 H2414 0.929 . S
C2427 C2419 1.433 . S
C2427 N2429 1.384 . S
N2428 C2424 1.427 . S
N2428 C2425 1.384 . S
N2429 C2421 1.427 . S
N2429 C2427 1.384 . S
H2430 C2436 0.930 . S
H2431 C2440 0.930 . S
H2432 C2445 0.929 . S
H2433 C2443 0.929 . S
H2434 C2438 0.929 . S
H2435 C2444 0.929 . S
C2436 H2430 0.930 . S
C2436 C2437 1.367 . S
C2436 C2444 1.378 . S
C2437 C2436 1.367 . S
C2437 C2445 1.433 . S
C2438 H2434 0.929 . S
C2438 C2440 1.378 . S
C2438 C2442 1.350 . S
C2439 C2442 1.463 . S
C2439 C2444 1.350 . S
C2439 N2447 1.427 . S
C2440 H2431 0.930 . S
C2440 C2438 1.378 . S
C2440 C2441 1.367 . S
C2441 C2440 1.367 . S
C2441 C2443 1.433 . S
C2442 C2438 1.350 . S
C2442 C2439 1.463 . S
C2442 N2446 1.427 . S
C2443 H2433 0.929 . S
C2443 C2441 1.433 . S
C2443 N2446 1.384 . S
C2444 H2435 0.929 . S
C2444 C2436 1.378 . S
C2444 C2439 1.350 . S
C2445 H2432 0.929 . S
C2445 C2437 1.433 . S
C2445 N2447 1.384 . S
N2446 C2442 1.427 . S
N2446 C2443 1.384 . S
N2447 C2439 1.427 . S
N2447 C2445 1.384 . S
H2448 C2454 0.930 . S
H2449 C2458 0.930 . S
H2450 C2463 0.929 . S
H2451 C2461 0.929 . S
H2452 C2456 0.929 . S
H2453 C2462 0.929 . S
C2454 H2448 0.930 . S
C2454 C2455 1.367 . S
C2454 C2462 1.378 . S
C2455 C2454 1.367 . S
C2455 C2463 1.433 . S
C2456 H2452 0.929 . S
C2456 C2458 1.378 . S
C2456 C2460 1.350 . S
C2457 C2460 1.463 . S
C2457 C2462 1.350 . S
C2457 N2465 1.427 . S
C2458 H2449 0.930 . S
C2458 C2456 1.378 . S
C2458 C2459 1.367 . S
C2459 C2458 1.367 . S
C2459 C2461 1.433 . S
C2460 C2456 1.350 . S
C2460 C2457 1.463 . S
C2460 N2464 1.427 . S
C2461 H2451 0.929 . S
C2461 C2459 1.433 . S
C2461 N2464 1.384 . S
C2462 H2453 0.929 . S
C2462 C2454 1.378 . S
C2462 C2457 1.350 . S
C2463 H2450 0.929 . S
C2463 C2455 1.433 . S
C2463 N2465 1.384 . S
N2464 C2460 1.427 . S
N2464 C2461 1.384 . S
N2465 C2457 1.427 . S
N2465 C2463 1.384 . S
H2466 C2472 0.930 . S
H2467 C2476 0.930 . S
H2468 C2481 0.929 . S
H2469 C2479 0.929 . S
H2470 C2474 0.929 . S
H2471 C2480 0.929 . S
C2472 H2466 0.930 . S
C2472 C2473 1.367 . S
C2472 C2480 1.378 . S
C2473 C2472 1.367 . S
C2473 C2481 1.433 . S
C2474 H2470 0.929 . S
C2474 C2476 1.378 . S
C2474 C2478 1.350 . S
C2475 C2478 1.463 . S
C2475 C2480 1.350 . S
C2475 N2483 1.427 . S
C2476 H2467 0.930 . S
C2476 C2474 1.378 . S
C2476 C2477 1.367 . S
C2477 C2476 1.367 . S
C2477 C2479 1.433 . S
C2478 C2474 1.350 . S
C2478 C2475 1.463 . S
C2478 N2482 1.427 . S
C2479 H2469 0.929 . S
C2479 C2477 1.433 . S
C2479 N2482 1.384 . S
C2480 H2471 0.929 . S
C2480 C2472 1.378 . S
C2480 C2475 1.350 . S
C2481 H2468 0.929 . S
C2481 C2473 1.433 . S
C2481 N2483 1.384 . S
N2482 C2478 1.427 . S
N2482 C2479 1.384 . S
N2483 C2475 1.427 . S
N2483 C2481 1.384 . S
H2484 C2490 0.930 . S
H2485 C2494 0.930 . S
H2486 C2499 0.929 . S
H2487 C2497 0.929 . S
H2488 C2492 0.929 . S
H2489 C2498 0.929 . S
C2490 H2484 0.930 . S
C2490 C2491 1.367 . S
C2490 C2498 1.378 . S
C2491 C2490 1.367 . S
C2491 C2499 1.433 . S
C2492 H2488 0.929 . S
C2492 C2494 1.378 . S
C2492 C2496 1.350 . S
C2493 C2496 1.463 . S
C2493 C2498 1.350 . S
C2493 N2501 1.427 . S
C2494 H2485 0.930 . S
C2494 C2492 1.378 . S
C2494 C2495 1.367 . S
C2495 C2494 1.367 . S
C2495 C2497 1.433 . S
C2496 C2492 1.350 . S
C2496 C2493 1.463 . S
C2496 N2500 1.427 . S
C2497 H2487 0.929 . S
C2497 C2495 1.433 . S
C2497 N2500 1.384 . S
C2498 H2489 0.929 . S
C2498 C2490 1.378 . S
C2498 C2493 1.350 . S
C2499 H2486 0.929 . S
C2499 C2491 1.433 . S
C2499 N2501 1.384 . S
N2500 C2496 1.427 . S
N2500 C2497 1.384 . S
N2501 C2493 1.427 . S
N2501 C2499 1.384 . S
H2502 C2508 0.930 . S
H2503 C2512 0.930 . S
H2504 C2517 0.929 . S
H2505 C2515 0.929 . S
H2506 C2510 0.929 . S
H2507 C2516 0.929 . S
C2508 H2502 0.930 . S
C2508 C2509 1.367 . S
C2508 C2516 1.378 . S
C2509 C2508 1.367 . S
C2509 C2517 1.433 . S
C2510 H2506 0.929 . S
C2510 C2512 1.378 . S
C2510 C2514 1.350 . S
C2511 C2514 1.463 . S
C2511 C2516 1.350 . S
C2511 N2519 1.427 . S
C2512 H2503 0.930 . S
C2512 C2510 1.378 . S
C2512 C2513 1.367 . S
C2513 C2512 1.367 . S
C2513 C2515 1.433 . S
C2514 C2510 1.350 . S
C2514 C2511 1.463 . S
C2514 N2518 1.427 . S
C2515 H2505 0.929 . S
C2515 C2513 1.433 . S
C2515 N2518 1.384 . S
C2516 H2507 0.929 . S
C2516 C2508 1.378 . S
C2516 C2511 1.350 . S
C2517 H2504 0.929 . S
C2517 C2509 1.433 . S
C2517 N2519 1.384 . S
N2518 C2514 1.427 . S
N2518 C2515 1.384 . S
N2519 C2511 1.427 . S
N2519 C2517 1.384 . S
H2520 C2526 0.930 . S
H2521 C2530 0.930 . S
H2522 C2535 0.929 . S
H2523 C2533 0.929 . S
H2524 C2528 0.929 . S
H2525 C2534 0.929 . S
C2526 H2520 0.930 . S
C2526 C2527 1.367 . S
C2526 C2534 1.378 . S
C2527 C2526 1.367 . S
C2527 C2535 1.433 . S
C2528 H2524 0.929 . S
C2528 C2530 1.378 . S
C2528 C2532 1.350 . S
C2529 C2532 1.463 . S
C2529 C2534 1.350 . S
C2529 N2537 1.427 . S
C2530 H2521 0.930 . S
C2530 C2528 1.378 . S
C2530 C2531 1.367 . S
C2531 C2530 1.367 . S
C2531 C2533 1.433 . S
C2532 C2528 1.350 . S
C2532 C2529 1.463 . S
C2532 N2536 1.427 . S
C2533 H2523 0.929 . S
C2533 C2531 1.433 . S
C2533 N2536 1.384 . S
C2534 H2525 0.929 . S
C2534 C2526 1.378 . S
C2534 C2529 1.350 . S
C2535 H2522 0.929 . S
C2535 C2527 1.433 . S
C2535 N2537 1.384 . S
N2536 C2532 1.427 . S
N2536 C2533 1.384 . S
N2537 C2529 1.427 . S
N2537 C2535 1.384 . S
H2538 C2544 0.930 . S
H2539 C2548 0.930 . S
H2540 C2553 0.929 . S
H2541 C2551 0.929 . S
H2542 C2546 0.929 . S
H2543 C2552 0.929 . S
C2544 H2538 0.930 . S
C2544 C2545 1.367 . S
C2544 C2552 1.378 . S
C2545 C2544 1.367 . S
C2545 C2553 1.433 . S
C2546 H2542 0.929 . S
C2546 C2548 1.378 . S
C2546 C2550 1.350 . S
C2547 C2550 1.463 . S
C2547 C2552 1.350 . S
C2547 N2555 1.427 . S
C2548 H2539 0.930 . S
C2548 C2546 1.378 . S
C2548 C2549 1.367 . S
C2549 C2548 1.367 . S
C2549 C2551 1.433 . S
C2550 C2546 1.350 . S
C2550 C2547 1.463 . S
C2550 N2554 1.427 . S
C2551 H2541 0.929 . S
C2551 C2549 1.433 . S
C2551 N2554 1.384 . S
C2552 H2543 0.929 . S
C2552 C2544 1.378 . S
C2552 C2547 1.350 . S
C2553 H2540 0.929 . S
C2553 C2545 1.433 . S
C2553 N2555 1.384 . S
N2554 C2550 1.427 . S
N2554 C2551 1.384 . S
N2555 C2547 1.427 . S
N2555 C2553 1.384 . S
H2556 C2562 0.930 . S
H2557 C2566 0.930 . S
H2558 C2571 0.929 . S
H2559 C2569 0.929 . S
H2560 C2564 0.929 . S
H2561 C2570 0.929 . S
C2562 H2556 0.930 . S
C2562 C2563 1.367 . S
C2562 C2570 1.378 . S
C2563 C2562 1.367 . S
C2563 C2571 1.433 . S
C2564 H2560 0.929 . S
C2564 C2566 1.378 . S
C2564 C2568 1.350 . S
C2565 C2568 1.463 . S
C2565 C2570 1.350 . S
C2565 N2573 1.427 . S
C2566 H2557 0.930 . S
C2566 C2564 1.378 . S
C2566 C2567 1.367 . S
C2567 C2566 1.367 . S
C2567 C2569 1.433 . S
C2568 C2564 1.350 . S
C2568 C2565 1.463 . S
C2568 N2572 1.427 . S
C2569 H2559 0.929 . S
C2569 C2567 1.433 . S
C2569 N2572 1.384 . S
C2570 H2561 0.929 . S
C2570 C2562 1.378 . S
C2570 C2565 1.350 . S
C2571 H2558 0.929 . S
C2571 C2563 1.433 . S
C2571 N2573 1.384 . S
N2572 C2568 1.427 . S
N2572 C2569 1.384 . S
N2573 C2565 1.427 . S
N2573 C2571 1.384 . S
H2574 C2580 0.930 . S
H2575 C2584 0.930 . S
H2576 C2589 0.929 . S
H2577 C2587 0.929 . S
H2578 C2582 0.929 . S
H2579 C2588 0.929 . S
C2580 H2574 0.930 . S
C2580 C2581 1.367 . S
C2580 C2588 1.378 . S
C2581 C2580 1.367 . S
C2581 C2589 1.433 . S
C2582 H2578 0.929 . S
C2582 C2584 1.378 . S
C2582 C2586 1.350 . S
C2583 C2586 1.463 . S
C2583 C2588 1.350 . S
C2583 N2591 1.427 . S
C2584 H2575 0.930 . S
C2584 C2582 1.378 . S
C2584 C2585 1.367 . S
C2585 C2584 1.367 . S
C2585 C2587 1.433 . S
C2586 C2582 1.350 . S
C2586 C2583 1.463 . S
C2586 N2590 1.427 . S
C2587 H2577 0.929 . S
C2587 C2585 1.433 . S
C2587 N2590 1.384 . S
C2588 H2579 0.929 . S
C2588 C2580 1.378 . S
C2588 C2583 1.350 . S
C2589 H2576 0.929 . S
C2589 C2581 1.433 . S
C2589 N2591 1.384 . S
N2590 C2586 1.427 . S
N2590 C2587 1.384 . S
N2591 C2583 1.427 . S
N2591 C2589 1.384 . S
H2592 C2598 0.930 . S
H2593 C2602 0.930 . S
H2594 C2607 0.929 . S
H2595 C2605 0.929 . S
H2596 C2600 0.929 . S
H2597 C2606 0.929 . S
C2598 H2592 0.930 . S
C2598 C2599 1.367 . S
C2598 C2606 1.378 . S
C2599 C2598 1.367 . S
C2599 C2607 1.433 . S
C2600 H2596 0.929 . S
C2600 C2602 1.378 . S
C2600 C2604 1.350 . S
C2601 C2604 1.463 . S
C2601 C2606 1.350 . S
C2601 N2609 1.427 . S
C2602 H2593 0.930 . S
C2602 C2600 1.378 . S
C2602 C2603 1.367 . S
C2603 C2602 1.367 . S
C2603 C2605 1.433 . S
C2604 C2600 1.350 . S
C2604 C2601 1.463 . S
C2604 N2608 1.427 . S
C2605 H2595 0.929 . S
C2605 C2603 1.433 . S
C2605 N2608 1.384 . S
C2606 H2597 0.929 . S
C2606 C2598 1.378 . S
C2606 C2601 1.350 . S
C2607 H2594 0.929 . S
C2607 C2599 1.433 . S
C2607 N2609 1.384 . S
N2608 C2604 1.427 . S
N2608 C2605 1.384 . S
N2609 C2601 1.427 . S
N2609 C2607 1.384 . S
H2610 C2616 0.930 . S
H2611 C2620 0.930 . S
H2612 C2625 0.929 . S
H2613 C2623 0.929 . S
H2614 C2618 0.929 . S
H2615 C2624 0.929 . S
C2616 H2610 0.930 . S
C2616 C2617 1.367 . S
C2616 C2624 1.378 . S
C2617 C2616 1.367 . S
C2617 C2625 1.433 . S
C2618 H2614 0.929 . S
C2618 C2620 1.378 . S
C2618 C2622 1.350 . S
C2619 C2622 1.463 . S
C2619 C2624 1.350 . S
C2619 N2627 1.427 . S
C2620 H2611 0.930 . S
C2620 C2618 1.378 . S
C2620 C2621 1.367 . S
C2621 C2620 1.367 . S
C2621 C2623 1.433 . S
C2622 C2618 1.350 . S
C2622 C2619 1.463 . S
C2622 N2626 1.427 . S
C2623 H2613 0.929 . S
C2623 C2621 1.433 . S
C2623 N2626 1.384 . S
C2624 H2615 0.929 . S
C2624 C2616 1.378 . S
C2624 C2619 1.350 . S
C2625 H2612 0.929 . S
C2625 C2617 1.433 . S
C2625 N2627 1.384 . S
N2626 C2622 1.427 . S
N2626 C2623 1.384 . S
N2627 C2619 1.427 . S
N2627 C2625 1.384 . S
H2628 C2634 0.930 . S
H2629 C2638 0.930 . S
H2630 C2643 0.929 . S
H2631 C2641 0.929 . S
H2632 C2636 0.929 . S
H2633 C2642 0.929 . S
C2634 H2628 0.930 . S
C2634 C2635 1.367 . S
C2634 C2642 1.378 . S
C2635 C2634 1.367 . S
C2635 C2643 1.433 . S
C2636 H2632 0.929 . S
C2636 C2638 1.378 . S
C2636 C2640 1.350 . S
C2637 C2640 1.463 . S
C2637 C2642 1.350 . S
C2637 N2645 1.427 . S
C2638 H2629 0.930 . S
C2638 C2636 1.378 . S
C2638 C2639 1.367 . S
C2639 C2638 1.367 . S
C2639 C2641 1.433 . S
C2640 C2636 1.350 . S
C2640 C2637 1.463 . S
C2640 N2644 1.427 . S
C2641 H2631 0.929 . S
C2641 C2639 1.433 . S
C2641 N2644 1.384 . S
C2642 H2633 0.929 . S
C2642 C2634 1.378 . S
C2642 C2637 1.350 . S
C2643 H2630 0.929 . S
C2643 C2635 1.433 . S
C2643 N2645 1.384 . S
N2644 C2640 1.427 . S
N2644 C2641 1.384 . S
N2645 C2637 1.427 . S
N2645 C2643 1.384 . S
H2646 C2652 0.930 . S
H2647 C2656 0.930 . S
H2648 C2661 0.929 . S
H2649 C2659 0.929 . S
H2650 C2654 0.929 . S
H2651 C2660 0.929 . S
C2652 H2646 0.930 . S
C2652 C2653 1.367 . S
C2652 C2660 1.378 . S
C2653 C2652 1.367 . S
C2653 C2661 1.433 . S
C2654 H2650 0.929 . S
C2654 C2656 1.378 . S
C2654 C2658 1.350 . S
C2655 C2658 1.463 . S
C2655 C2660 1.350 . S
C2655 N2663 1.427 . S
C2656 H2647 0.930 . S
C2656 C2654 1.378 . S
C2656 C2657 1.367 . S
C2657 C2656 1.367 . S
C2657 C2659 1.433 . S
C2658 C2654 1.350 . S
C2658 C2655 1.463 . S
C2658 N2662 1.427 . S
C2659 H2649 0.929 . S
C2659 C2657 1.433 . S
C2659 N2662 1.384 . S
C2660 H2651 0.929 . S
C2660 C2652 1.378 . S
C2660 C2655 1.350 . S
C2661 H2648 0.929 . S
C2661 C2653 1.433 . S
C2661 N2663 1.384 . S
N2662 C2658 1.427 . S
N2662 C2659 1.384 . S
N2663 C2655 1.427 . S
N2663 C2661 1.384 . S
H2664 C2670 0.930 . S
H2665 C2674 0.930 . S
H2666 C2679 0.929 . S
H2667 C2677 0.929 . S
H2668 C2672 0.929 . S
H2669 C2678 0.929 . S
C2670 H2664 0.930 . S
C2670 C2671 1.367 . S
C2670 C2678 1.378 . S
C2671 C2670 1.367 . S
C2671 C2679 1.433 . S
C2672 H2668 0.929 . S
C2672 C2674 1.378 . S
C2672 C2676 1.350 . S
C2673 C2676 1.463 . S
C2673 C2678 1.350 . S
C2673 N2681 1.427 . S
C2674 H2665 0.930 . S
C2674 C2672 1.378 . S
C2674 C2675 1.367 . S
C2675 C2674 1.367 . S
C2675 C2677 1.433 . S
C2676 C2672 1.350 . S
C2676 C2673 1.463 . S
C2676 N2680 1.427 . S
C2677 H2667 0.929 . S
C2677 C2675 1.433 . S
C2677 N2680 1.384 . S
C2678 H2669 0.929 . S
C2678 C2670 1.378 . S
C2678 C2673 1.350 . S
C2679 H2666 0.929 . S
C2679 C2671 1.433 . S
C2679 N2681 1.384 . S
N2680 C2676 1.427 . S
N2680 C2677 1.384 . S
N2681 C2673 1.427 . S
N2681 C2679 1.384 . S
H2682 C2688 0.930 . S
H2683 C2692 0.930 . S
H2684 C2697 0.929 . S
H2685 C2695 0.929 . S
H2686 C2690 0.929 . S
H2687 C2696 0.929 . S
C2688 H2682 0.930 . S
C2688 C2689 1.367 . S
C2688 C2696 1.378 . S
C2689 C2688 1.367 . S
C2689 C2697 1.433 . S
C2690 H2686 0.929 . S
C2690 C2692 1.378 . S
C2690 C2694 1.350 . S
C2691 C2694 1.463 . S
C2691 C2696 1.350 . S
C2691 N2699 1.427 . S
C2692 H2683 0.930 . S
C2692 C2690 1.378 . S
C2692 C2693 1.367 . S
C2693 C2692 1.367 . S
C2693 C2695 1.433 . S
C2694 C2690 1.350 . S
C2694 C2691 1.463 . S
C2694 N2698 1.427 . S
C2695 H2685 0.929 . S
C2695 C2693 1.433 . S
C2695 N2698 1.384 . S
C2696 H2687 0.929 . S
C2696 C2688 1.378 . S
C2696 C2691 1.350 . S
C2697 H2684 0.929 . S
C2697 C2689 1.433 . S
C2697 N2699 1.384 . S
N2698 C2694 1.427 . S
N2698 C2695 1.384 . S
N2699 C2691 1.427 . S
N2699 C2697 1.384 . S
H2700 C2706 0.930 . S
H2701 C2710 0.930 . S
H2702 C2715 0.929 . S
H2703 C2713 0.929 . S
H2704 C2708 0.929 . S
H2705 C2714 0.929 . S
C2706 H2700 0.930 . S
C2706 C2707 1.367 . S
C2706 C2714 1.378 . S
C2707 C2706 1.367 . S
C2707 C2715 1.433 . S
C2708 H2704 0.929 . S
C2708 C2710 1.378 . S
C2708 C2712 1.350 . S
C2709 C2712 1.463 . S
C2709 C2714 1.350 . S
C2709 N2717 1.427 . S
C2710 H2701 0.930 . S
C2710 C2708 1.378 . S
C2710 C2711 1.367 . S
C2711 C2710 1.367 . S
C2711 C2713 1.433 . S
C2712 C2708 1.350 . S
C2712 C2709 1.463 . S
C2712 N2716 1.427 . S
C2713 H2703 0.929 . S
C2713 C2711 1.433 . S
C2713 N2716 1.384 . S
C2714 H2705 0.929 . S
C2714 C2706 1.378 . S
C2714 C2709 1.350 . S
C2715 H2702 0.929 . S
C2715 C2707 1.433 . S
C2715 N2717 1.384 . S
N2716 C2712 1.427 . S
N2716 C2713 1.384 . S
N2717 C2709 1.427 . S
N2717 C2715 1.384 . S
H2718 C2724 0.930 . S
H2719 C2728 0.930 . S
H2720 C2733 0.929 . S
H2721 C2731 0.929 . S
H2722 C2726 0.929 . S
H2723 C2732 0.929 . S
C2724 H2718 0.930 . S
C2724 C2725 1.367 . S
C2724 C2732 1.378 . S
C2725 C2724 1.367 . S
C2725 C2733 1.433 . S
C2726 H2722 0.929 . S
C2726 C2728 1.378 . S
C2726 C2730 1.350 . S
C2727 C2730 1.463 . S
C2727 C2732 1.350 . S
C2727 N2735 1.427 . S
C2728 H2719 0.930 . S
C2728 C2726 1.378 . S
C2728 C2729 1.367 . S
C2729 C2728 1.367 . S
C2729 C2731 1.433 . S
C2730 C2726 1.350 . S
C2730 C2727 1.463 . S
C2730 N2734 1.427 . S
C2731 H2721 0.929 . S
C2731 C2729 1.433 . S
C2731 N2734 1.384 . S
C2732 H2723 0.929 . S
C2732 C2724 1.378 . S
C2732 C2727 1.350 . S
C2733 H2720 0.929 . S
C2733 C2725 1.433 . S
C2733 N2735 1.384 . S
N2734 C2730 1.427 . S
N2734 C2731 1.384 . S
N2735 C2727 1.427 . S
N2735 C2733 1.384 . S
H2736 C2742 0.930 . S
H2737 C2746 0.930 . S
H2738 C2751 0.929 . S
H2739 C2749 0.929 . S
H2740 C2744 0.929 . S
H2741 C2750 0.929 . S
C2742 H2736 0.930 . S
C2742 C2743 1.367 . S
C2742 C2750 1.378 . S
C2743 C2742 1.367 . S
C2743 C2751 1.433 . S
C2744 H2740 0.929 . S
C2744 C2746 1.378 . S
C2744 C2748 1.350 . S
C2745 C2748 1.463 . S
C2745 C2750 1.350 . S
C2745 N2753 1.427 . S
C2746 H2737 0.930 . S
C2746 C2744 1.378 . S
C2746 C2747 1.367 . S
C2747 C2746 1.367 . S
C2747 C2749 1.433 . S
C2748 C2744 1.350 . S
C2748 C2745 1.463 . S
C2748 N2752 1.427 . S
C2749 H2739 0.929 . S
C2749 C2747 1.433 . S
C2749 N2752 1.384 . S
C2750 H2741 0.929 . S
C2750 C2742 1.378 . S
C2750 C2745 1.350 . S
C2751 H2738 0.929 . S
C2751 C2743 1.433 . S
C2751 N2753 1.384 . S
N2752 C2748 1.427 . S
N2752 C2749 1.384 . S
N2753 C2745 1.427 . S
N2753 C2751 1.384 . S
H2754 C2760 0.930 . S
H2755 C2764 0.930 . S
H2756 C2769 0.929 . S
H2757 C2767 0.929 . S
H2758 C2762 0.929 . S
H2759 C2768 0.929 . S
C2760 H2754 0.930 . S
C2760 C2761 1.367 . S
C2760 C2768 1.378 . S
C2761 C2760 1.367 . S
C2761 C2769 1.433 . S
C2762 H2758 0.929 . S
C2762 C2764 1.378 . S
C2762 C2766 1.350 . S
C2763 C2766 1.463 . S
C2763 C2768 1.350 . S
C2763 N2771 1.427 . S
C2764 H2755 0.930 . S
C2764 C2762 1.378 . S
C2764 C2765 1.367 . S
C2765 C2764 1.367 . S
C2765 C2767 1.433 . S
C2766 C2762 1.350 . S
C2766 C2763 1.463 . S
C2766 N2770 1.427 . S
C2767 H2757 0.929 . S
C2767 C2765 1.433 . S
C2767 N2770 1.384 . S
C2768 H2759 0.929 . S
C2768 C2760 1.378 . S
C2768 C2763 1.350 . S
C2769 H2756 0.929 . S
C2769 C2761 1.433 . S
C2769 N2771 1.384 . S
N2770 C2766 1.427 . S
N2770 C2767 1.384 . S
N2771 C2763 1.427 . S
N2771 C2769 1.384 . S
H2772 C2778 0.930 . S
H2773 C2782 0.930 . S
H2774 C2787 0.929 . S
H2775 C2785 0.929 . S
H2776 C2780 0.929 . S
H2777 C2786 0.929 . S
C2778 H2772 0.930 . S
C2778 C2779 1.367 . S
C2778 C2786 1.378 . S
C2779 C2778 1.367 . S
C2779 C2787 1.433 . S
C2780 H2776 0.929 . S
C2780 C2782 1.378 . S
C2780 C2784 1.350 . S
C2781 C2784 1.463 . S
C2781 C2786 1.350 . S
C2781 N2789 1.427 . S
C2782 H2773 0.930 . S
C2782 C2780 1.378 . S
C2782 C2783 1.367 . S
C2783 C2782 1.367 . S
C2783 C2785 1.433 . S
C2784 C2780 1.350 . S
C2784 C2781 1.463 . S
C2784 N2788 1.427 . S
C2785 H2775 0.929 . S
C2785 C2783 1.433 . S
C2785 N2788 1.384 . S
C2786 H2777 0.929 . S
C2786 C2778 1.378 . S
C2786 C2781 1.350 . S
C2787 H2774 0.929 . S
C2787 C2779 1.433 . S
C2787 N2789 1.384 . S
N2788 C2784 1.427 . S
N2788 C2785 1.384 . S
N2789 C2781 1.427 . S
N2789 C2787 1.384 . S
H2790 C2796 0.930 . S
H2791 C2800 0.930 . S
H2792 C2805 0.929 . S
H2793 C2803 0.929 . S
H2794 C2798 0.929 . S
H2795 C2804 0.929 . S
C2796 H2790 0.930 . S
C2796 C2797 1.367 . S
C2796 C2804 1.378 . S
C2797 C2796 1.367 . S
C2797 C2805 1.433 . S
C2798 H2794 0.929 . S
C2798 C2800 1.378 . S
C2798 C2802 1.350 . S
C2799 C2802 1.463 . S
C2799 C2804 1.350 . S
C2799 N2807 1.427 . S
C2800 H2791 0.930 . S
C2800 C2798 1.378 . S
C2800 C2801 1.367 . S
C2801 C2800 1.367 . S
C2801 C2803 1.433 . S
C2802 C2798 1.350 . S
C2802 C2799 1.463 . S
C2802 N2806 1.427 . S
C2803 H2793 0.929 . S
C2803 C2801 1.433 . S
C2803 N2806 1.384 . S
C2804 H2795 0.929 . S
C2804 C2796 1.378 . S
C2804 C2799 1.350 . S
C2805 H2792 0.929 . S
C2805 C2797 1.433 . S
C2805 N2807 1.384 . S
N2806 C2802 1.427 . S
N2806 C2803 1.384 . S
N2807 C2799 1.427 . S
N2807 C2805 1.384 . S
H2808 C2814 0.930 . S
H2809 C2818 0.930 . S
H2810 C2823 0.929 . S
H2811 C2821 0.929 . S
H2812 C2816 0.929 . S
H2813 C2822 0.929 . S
C2814 H2808 0.930 . S
C2814 C2815 1.367 . S
C2814 C2822 1.378 . S
C2815 C2814 1.367 . S
C2815 C2823 1.433 . S
C2816 H2812 0.929 . S
C2816 C2818 1.378 . S
C2816 C2820 1.350 . S
C2817 C2820 1.463 . S
C2817 C2822 1.350 . S
C2817 N2825 1.427 . S
C2818 H2809 0.930 . S
C2818 C2816 1.378 . S
C2818 C2819 1.367 . S
C2819 C2818 1.367 . S
C2819 C2821 1.433 . S
C2820 C2816 1.350 . S
C2820 C2817 1.463 . S
C2820 N2824 1.427 . S
C2821 H2811 0.929 . S
C2821 C2819 1.433 . S
C2821 N2824 1.384 . S
C2822 H2813 0.929 . S
C2822 C2814 1.378 . S
C2822 C2817 1.350 . S
C2823 H2810 0.929 . S
C2823 C2815 1.433 . S
C2823 N2825 1.384 . S
N2824 C2820 1.427 . S
N2824 C2821 1.384 . S
N2825 C2817 1.427 . S
N2825 C2823 1.384 . S
H2826 C2832 0.930 . S
H2827 C2836 0.930 . S
H2828 C2841 0.929 . S
H2829 C2839 0.929 . S
H2830 C2834 0.929 . S
H2831 C2840 0.929 . S
C2832 H2826 0.930 . S
C2832 C2833 1.367 . S
C2832 C2840 1.378 . S
C2833 C2832 1.367 . S
C2833 C2841 1.433 . S
C2834 H2830 0.929 . S
C2834 C2836 1.378 . S
C2834 C2838 1.350 . S
C2835 C2838 1.463 . S
C2835 C2840 1.350 . S
C2835 N2843 1.427 . S
C2836 H2827 0.930 . S
C2836 C2834 1.378 . S
C2836 C2837 1.367 . S
C2837 C2836 1.367 . S
C2837 C2839 1.433 . S
C2838 C2834 1.350 . S
C2838 C2835 1.463 . S
C2838 N2842 1.427 . S
C2839 H2829 0.929 . S
C2839 C2837 1.433 . S
C2839 N2842 1.384 . S
C2840 H2831 0.929 . S
C2840 C2832 1.378 . S
C2840 C2835 1.350 . S
C2841 H2828 0.929 . S
C2841 C2833 1.433 . S
C2841 N2843 1.384 . S
N2842 C2838 1.427 . S
N2842 C2839 1.384 . S
N2843 C2835 1.427 . S
N2843 C2841 1.384 . S
H2844 C2850 0.930 . S
H2845 C2854 0.930 . S
H2846 C2859 0.929 . S
H2847 C2857 0.929 . S
H2848 C2852 0.929 . S
H2849 C2858 0.929 . S
C2850 H2844 0.930 . S
C2850 C2851 1.367 . S
C2850 C2858 1.378 . S
C2851 C2850 1.367 . S
C2851 C2859 1.433 . S
C2852 H2848 0.929 . S
C2852 C2854 1.378 . S
C2852 C2856 1.350 . S
C2853 C2856 1.463 . S
C2853 C2858 1.350 . S
C2853 N2861 1.427 . S
C2854 H2845 0.930 . S
C2854 C2852 1.378 . S
C2854 C2855 1.367 . S
C2855 C2854 1.367 . S
C2855 C2857 1.433 . S
C2856 C2852 1.350 . S
C2856 C2853 1.463 . S
C2856 N2860 1.427 . S
C2857 H2847 0.929 . S
C2857 C2855 1.433 . S
C2857 N2860 1.384 . S
C2858 H2849 0.929 . S
C2858 C2850 1.378 . S
C2858 C2853 1.350 . S
C2859 H2846 0.929 . S
C2859 C2851 1.433 . S
C2859 N2861 1.384 . S
N2860 C2856 1.427 . S
N2860 C2857 1.384 . S
N2861 C2853 1.427 . S
N2861 C2859 1.384 . S
H2862 C2868 0.930 . S
H2863 C2872 0.930 . S
H2864 C2877 0.929 . S
H2865 C2875 0.929 . S
H2866 C2870 0.929 . S
H2867 C2876 0.929 . S
C2868 H2862 0.930 . S
C2868 C2869 1.367 . S
C2868 C2876 1.378 . S
C2869 C2868 1.367 . S
C2869 C2877 1.433 . S
C2870 H2866 0.929 . S
C2870 C2872 1.378 . S
C2870 C2874 1.350 . S
C2871 C2874 1.463 . S
C2871 C2876 1.350 . S
C2871 N2879 1.427 . S
C2872 H2863 0.930 . S
C2872 C2870 1.378 . S
C2872 C2873 1.367 . S
C2873 C2872 1.367 . S
C2873 C2875 1.433 . S
C2874 C2870 1.350 . S
C2874 C2871 1.463 . S
C2874 N2878 1.427 . S
C2875 H2865 0.929 . S
C2875 C2873 1.433 . S
C2875 N2878 1.384 . S
C2876 H2867 0.929 . S
C2876 C2868 1.378 . S
C2876 C2871 1.350 . S
C2877 H2864 0.929 . S
C2877 C2869 1.433 . S
C2877 N2879 1.384 . S
N2878 C2874 1.427 . S
N2878 C2875 1.384 . S
N2879 C2871 1.427 . S
N2879 C2877 1.384 . S
H2880 C2886 0.930 . S
H2881 C2890 0.930 . S
H2882 C2895 0.929 . S
H2883 C2893 0.929 . S
H2884 C2888 0.929 . S
H2885 C2894 0.929 . S
C2886 H2880 0.930 . S
C2886 C2887 1.367 . S
C2886 C2894 1.378 . S
C2887 C2886 1.367 . S
C2887 C2895 1.433 . S
C2888 H2884 0.929 . S
C2888 C2890 1.378 . S
C2888 C2892 1.350 . S
C2889 C2892 1.463 . S
C2889 C2894 1.350 . S
C2889 N2897 1.427 . S
C2890 H2881 0.930 . S
C2890 C2888 1.378 . S
C2890 C2891 1.367 . S
C2891 C2890 1.367 . S
C2891 C2893 1.433 . S
C2892 C2888 1.350 . S
C2892 C2889 1.463 . S
C2892 N2896 1.427 . S
C2893 H2883 0.929 . S
C2893 C2891 1.433 . S
C2893 N2896 1.384 . S
C2894 H2885 0.929 . S
C2894 C2886 1.378 . S
C2894 C2889 1.350 . S
C2895 H2882 0.929 . S
C2895 C2887 1.433 . S
C2895 N2897 1.384 . S
N2896 C2892 1.427 . S
N2896 C2893 1.384 . S
N2897 C2889 1.427 . S
N2897 C2895 1.384 . S
H2898 C2904 0.930 . S
H2899 C2908 0.930 . S
H2900 C2913 0.929 . S
H2901 C2911 0.929 . S
H2902 C2906 0.929 . S
H2903 C2912 0.929 . S
C2904 H2898 0.930 . S
C2904 C2905 1.367 . S
C2904 C2912 1.378 . S
C2905 C2904 1.367 . S
C2905 C2913 1.433 . S
C2906 H2902 0.929 . S
C2906 C2908 1.378 . S
C2906 C2910 1.350 . S
C2907 C2910 1.463 . S
C2907 C2912 1.350 . S
C2907 N2915 1.427 . S
C2908 H2899 0.930 . S
C2908 C2906 1.378 . S
C2908 C2909 1.367 . S
C2909 C2908 1.367 . S
C2909 C2911 1.433 . S
C2910 C2906 1.350 . S
C2910 C2907 1.463 . S
C2910 N2914 1.427 . S
C2911 H2901 0.929 . S
C2911 C2909 1.433 . S
C2911 N2914 1.384 . S
C2912 H2903 0.929 . S
C2912 C2904 1.378 . S
C2912 C2907 1.350 . S
C2913 H2900 0.929 . S
C2913 C2905 1.433 . S
C2913 N2915 1.384 . S
N2914 C2910 1.427 . S
N2914 C2911 1.384 . S
N2915 C2907 1.427 . S
N2915 C2913 1.384 . S
H2916 C2922 0.930 . S
H2917 C2926 0.930 . S
H2918 C2931 0.929 . S
H2919 C2929 0.929 . S
H2920 C2924 0.929 . S
H2921 C2930 0.929 . S
C2922 H2916 0.930 . S
C2922 C2923 1.367 . S
C2922 C2930 1.378 . S
C2923 C2922 1.367 . S
C2923 C2931 1.433 . S
C2924 H2920 0.929 . S
C2924 C2926 1.378 . S
C2924 C2928 1.350 . S
C2925 C2928 1.463 . S
C2925 C2930 1.350 . S
C2925 N2933 1.427 . S
C2926 H2917 0.930 . S
C2926 C2924 1.378 . S
C2926 C2927 1.367 . S
C2927 C2926 1.367 . S
C2927 C2929 1.433 . S
C2928 C2924 1.350 . S
C2928 C2925 1.463 . S
C2928 N2932 1.427 . S
C2929 H2919 0.929 . S
C2929 C2927 1.433 . S
C2929 N2932 1.384 . S
C2930 H2921 0.929 . S
C2930 C2922 1.378 . S
C2930 C2925 1.350 . S
C2931 H2918 0.929 . S
C2931 C2923 1.433 . S
C2931 N2933 1.384 . S
N2932 C2928 1.427 . S
N2932 C2929 1.384 . S
N2933 C2925 1.427 . S
N2933 C2931 1.384 . S
H2934 C2940 0.930 . S
H2935 C2944 0.930 . S
H2936 C2949 0.929 . S
H2937 C2947 0.929 . S
H2938 C2942 0.929 . S
H2939 C2948 0.929 . S
C2940 H2934 0.930 . S
C2940 C2941 1.367 . S
C2940 C2948 1.378 . S
C2941 C2940 1.367 . S
C2941 C2949 1.433 . S
C2942 H2938 0.929 . S
C2942 C2944 1.378 . S
C2942 C2946 1.350 . S
C2943 C2946 1.463 . S
C2943 C2948 1.350 . S
C2943 N2951 1.427 . S
C2944 H2935 0.930 . S
C2944 C2942 1.378 . S
C2944 C2945 1.367 . S
C2945 C2944 1.367 . S
C2945 C2947 1.433 . S
C2946 C2942 1.350 . S
C2946 C2943 1.463 . S
C2946 N2950 1.427 . S
C2947 H2937 0.929 . S
C2947 C2945 1.433 . S
C2947 N2950 1.384 . S
C2948 H2939 0.929 . S
C2948 C2940 1.378 . S
C2948 C2943 1.350 . S
C2949 H2936 0.929 . S
C2949 C2941 1.433 . S
C2949 N2951 1.384 . S
N2950 C2946 1.427 . S
N2950 C2947 1.384 . S
N2951 C2943 1.427 . S
N2951 C2949 1.384 . S
H2952 C2958 0.930 . S
H2953 C2962 0.930 . S
H2954 C2967 0.929 . S
H2955 C2965 0.929 . S
H2956 C2960 0.929 . S
H2957 C2966 0.929 . S
C2958 H2952 0.930 . S
C2958 C2959 1.367 . S
C2958 C2966 1.378 . S
C2959 C2958 1.367 . S
C2959 C2967 1.433 . S
C2960 H2956 0.929 . S
C2960 C2962 1.378 . S
C2960 C2964 1.350 . S
C2961 C2964 1.463 . S
C2961 C2966 1.350 . S
C2961 N2969 1.427 . S
C2962 H2953 0.930 . S
C2962 C2960 1.378 . S
C2962 C2963 1.367 . S
C2963 C2962 1.367 . S
C2963 C2965 1.433 . S
C2964 C2960 1.350 . S
C2964 C2961 1.463 . S
C2964 N2968 1.427 . S
C2965 H2955 0.929 . S
C2965 C2963 1.433 . S
C2965 N2968 1.384 . S
C2966 H2957 0.929 . S
C2966 C2958 1.378 . S
C2966 C2961 1.350 . S
C2967 H2954 0.929 . S
C2967 C2959 1.433 . S
C2967 N2969 1.384 . S
N2968 C2964 1.427 . S
N2968 C2965 1.384 . S
N2969 C2961 1.427 . S
N2969 C2967 1.384 . S
H2970 C2976 0.930 . S
H2971 C2980 0.930 . S
H2972 C2985 0.929 . S
H2973 C2983 0.929 . S
H2974 C2978 0.929 . S
H2975 C2984 0.929 . S
C2976 H2970 0.930 . S
C2976 C2977 1.367 . S
C2976 C2984 1.378 . S
C2977 C2976 1.367 . S
C2977 C2985 1.433 . S
C2978 H2974 0.929 . S
C2978 C2980 1.378 . S
C2978 C2982 1.350 . S
C2979 C2982 1.463 . S
C2979 C2984 1.350 . S
C2979 N2987 1.427 . S
C2980 H2971 0.930 . S
C2980 C2978 1.378 . S
C2980 C2981 1.367 . S
C2981 C2980 1.367 . S
C2981 C2983 1.433 . S
C2982 C2978 1.350 . S
C2982 C2979 1.463 . S
C2982 N2986 1.427 . S
C2983 H2973 0.929 . S
C2983 C2981 1.433 . S
C2983 N2986 1.384 . S
C2984 H2975 0.929 . S
C2984 C2976 1.378 . S
C2984 C2979 1.350 . S
C2985 H2972 0.929 . S
C2985 C2977 1.433 . S
C2985 N2987 1.384 . S
N2986 C2982 1.427 . S
N2986 C2983 1.384 . S
N2987 C2979 1.427 . S
N2987 C2985 1.384 . S
H2988 C2994 0.930 . S
H2989 C2998 0.930 . S
H2990 C3003 0.929 . S
H2991 C3001 0.929 . S
H2992 C2996 0.929 . S
H2993 C3002 0.929 . S
C2994 H2988 0.930 . S
C2994 C2995 1.367 . S
C2994 C3002 1.378 . S
C2995 C2994 1.367 . S
C2995 C3003 1.433 . S
C2996 H2992 0.929 . S
C2996 C2998 1.378 . S
C2996 C3000 1.350 . S
C2997 C3000 1.463 . S
C2997 C3002 1.350 . S
C2997 N3005 1.427 . S
C2998 H2989 0.930 . S
C2998 C2996 1.378 . S
C2998 C2999 1.367 . S
C2999 C2998 1.367 . S
C2999 C3001 1.433 . S
C3000 C2996 1.350 . S
C3000 C2997 1.463 . S
C3000 N3004 1.427 . S
C3001 H2991 0.929 . S
C3001 C2999 1.433 . S
C3001 N3004 1.384 . S
C3002 H2993 0.929 . S
C3002 C2994 1.378 . S
C3002 C2997 1.350 . S
C3003 H2990 0.929 . S
C3003 C2995 1.433 . S
C3003 N3005 1.384 . S
N3004 C3000 1.427 . S
N3004 C3001 1.384 . S
N3005 C2997 1.427 . S
N3005 C3003 1.384 . S
H3006 C3012 0.930 . S
H3007 C3016 0.930 . S
H3008 C3021 0.929 . S
H3009 C3019 0.929 . S
H3010 C3014 0.929 . S
H3011 C3020 0.929 . S
C3012 H3006 0.930 . S
C3012 C3013 1.367 . S
C3012 C3020 1.378 . S
C3013 C3012 1.367 . S
C3013 C3021 1.433 . S
C3014 H3010 0.929 . S
C3014 C3016 1.378 . S
C3014 C3018 1.350 . S
C3015 C3018 1.463 . S
C3015 C3020 1.350 . S
C3015 N3023 1.427 . S
C3016 H3007 0.930 . S
C3016 C3014 1.378 . S
C3016 C3017 1.367 . S
C3017 C3016 1.367 . S
C3017 C3019 1.433 . S
C3018 C3014 1.350 . S
C3018 C3015 1.463 . S
C3018 N3022 1.427 . S
C3019 H3009 0.929 . S
C3019 C3017 1.433 . S
C3019 N3022 1.384 . S
C3020 H3011 0.929 . S
C3020 C3012 1.378 . S
C3020 C3015 1.350 . S
C3021 H3008 0.929 . S
C3021 C3013 1.433 . S
C3021 N3023 1.384 . S
N3022 C3018 1.427 . S
N3022 C3019 1.384 . S
N3023 C3015 1.427 . S
N3023 C3021 1.384 . S
H3024 C3030 0.930 . S
H3025 C3034 0.930 . S
H3026 C3039 0.929 . S
H3027 C3037 0.929 . S
H3028 C3032 0.929 . S
H3029 C3038 0.929 . S
C3030 H3024 0.930 . S
C3030 C3031 1.367 . S
C3030 C3038 1.378 . S
C3031 C3030 1.367 . S
C3031 C3039 1.433 . S
C3032 H3028 0.929 . S
C3032 C3034 1.378 . S
C3032 C3036 1.350 . S
C3033 C3036 1.463 . S
C3033 C3038 1.350 . S
C3033 N3041 1.427 . S
C3034 H3025 0.930 . S
C3034 C3032 1.378 . S
C3034 C3035 1.367 . S
C3035 C3034 1.367 . S
C3035 C3037 1.433 . S
C3036 C3032 1.350 . S
C3036 C3033 1.463 . S
C3036 N3040 1.427 . S
C3037 H3027 0.929 . S
C3037 C3035 1.433 . S
C3037 N3040 1.384 . S
C3038 H3029 0.929 . S
C3038 C3030 1.378 . S
C3038 C3033 1.350 . S
C3039 H3026 0.929 . S
C3039 C3031 1.433 . S
C3039 N3041 1.384 . S
N3040 C3036 1.427 . S
N3040 C3037 1.384 . S
N3041 C3033 1.427 . S
N3041 C3039 1.384 . S
H3042 C3048 0.930 . S
H3043 C3052 0.930 . S
H3044 C3057 0.929 . S
H3045 C3055 0.929 . S
H3046 C3050 0.929 . S
H3047 C3056 0.929 . S
C3048 H3042 0.930 . S
C3048 C3049 1.367 . S
C3048 C3056 1.378 . S
C3049 C3048 1.367 . S
C3049 C3057 1.433 . S
C3050 H3046 0.929 . S
C3050 C3052 1.378 . S
C3050 C3054 1.350 . S
C3051 C3054 1.463 . S
C3051 C3056 1.350 . S
C3051 N3059 1.427 . S
C3052 H3043 0.930 . S
C3052 C3050 1.378 . S
C3052 C3053 1.367 . S
C3053 C3052 1.367 . S
C3053 C3055 1.433 . S
C3054 C3050 1.350 . S
C3054 C3051 1.463 . S
C3054 N3058 1.427 . S
C3055 H3045 0.929 . S
C3055 C3053 1.433 . S
C3055 N3058 1.384 . S
C3056 H3047 0.929 . S
C3056 C3048 1.378 . S
C3056 C3051 1.350 . S
C3057 H3044 0.929 . S
C3057 C3049 1.433 . S
C3057 N3059 1.384 . S
N3058 C3054 1.427 . S
N3058 C3055 1.384 . S
N3059 C3051 1.427 . S
N3059 C3057 1.384 . S
H3060 C3066 0.930 . S
H3061 C3070 0.930 . S
H3062 C3075 0.929 . S
H3063 C3073 0.929 . S
H3064 C3068 0.929 . S
H3065 C3074 0.929 . S
C3066 H3060 0.930 . S
C3066 C3067 1.367 . S
C3066 C3074 1.378 . S
C3067 C3066 1.367 . S
C3067 C3075 1.433 . S
C3068 H3064 0.929 . S
C3068 C3070 1.378 . S
C3068 C3072 1.350 . S
C3069 C3072 1.463 . S
C3069 C3074 1.350 . S
C3069 N3077 1.427 . S
C3070 H3061 0.930 . S
C3070 C3068 1.378 . S
C3070 C3071 1.367 . S
C3071 C3070 1.367 . S
C3071 C3073 1.433 . S
C3072 C3068 1.350 . S
C3072 C3069 1.463 . S
C3072 N3076 1.427 . S
C3073 H3063 0.929 . S
C3073 C3071 1.433 . S
C3073 N3076 1.384 . S
C3074 H3065 0.929 . S
C3074 C3066 1.378 . S
C3074 C3069 1.350 . S
C3075 H3062 0.929 . S
C3075 C3067 1.433 . S
C3075 N3077 1.384 . S
N3076 C3072 1.427 . S
N3076 C3073 1.384 . S
N3077 C3069 1.427 . S
N3077 C3075 1.384 . S
H3078 C3084 0.930 . S
H3079 C3088 0.930 . S
H3080 C3093 0.929 . S
H3081 C3091 0.929 . S
H3082 C3086 0.929 . S
H3083 C3092 0.929 . S
C3084 H3078 0.930 . S
C3084 C3085 1.367 . S
C3084 C3092 1.378 . S
C3085 C3084 1.367 . S
C3085 C3093 1.433 . S
C3086 H3082 0.929 . S
C3086 C3088 1.378 . S
C3086 C3090 1.350 . S
C3087 C3090 1.463 . S
C3087 C3092 1.350 . S
C3087 N3095 1.427 . S
C3088 H3079 0.930 . S
C3088 C3086 1.378 . S
C3088 C3089 1.367 . S
C3089 C3088 1.367 . S
C3089 C3091 1.433 . S
C3090 C3086 1.350 . S
C3090 C3087 1.463 . S
C3090 N3094 1.427 . S
C3091 H3081 0.929 . S
C3091 C3089 1.433 . S
C3091 N3094 1.384 . S
C3092 H3083 0.929 . S
C3092 C3084 1.378 . S
C3092 C3087 1.350 . S
C3093 H3080 0.929 . S
C3093 C3085 1.433 . S
C3093 N3095 1.384 . S
N3094 C3090 1.427 . S
N3094 C3091 1.384 . S
N3095 C3087 1.427 . S
N3095 C3093 1.384 . S
H3096 C3102 0.930 . S
H3097 C3106 0.930 . S
H3098 C3111 0.929 . S
H3099 C3109 0.929 . S
H3100 C3104 0.929 . S
H3101 C3110 0.929 . S
C3102 H3096 0.930 . S
C3102 C3103 1.367 . S
C3102 C3110 1.378 . S
C3103 C3102 1.367 . S
C3103 C3111 1.433 . S
C3104 H3100 0.929 . S
C3104 C3106 1.378 . S
C3104 C3108 1.350 . S
C3105 C3108 1.463 . S
C3105 C3110 1.350 . S
C3105 N3113 1.427 . S
C3106 H3097 0.930 . S
C3106 C3104 1.378 . S
C3106 C3107 1.367 . S
C3107 C3106 1.367 . S
C3107 C3109 1.433 . S
C3108 C3104 1.350 . S
C3108 C3105 1.463 . S
C3108 N3112 1.427 . S
C3109 H3099 0.929 . S
C3109 C3107 1.433 . S
C3109 N3112 1.384 . S
C3110 H3101 0.929 . S
C3110 C3102 1.378 . S
C3110 C3105 1.350 . S
C3111 H3098 0.929 . S
C3111 C3103 1.433 . S
C3111 N3113 1.384 . S
N3112 C3108 1.427 . S
N3112 C3109 1.384 . S
N3113 C3105 1.427 . S
N3113 C3111 1.384 . S
H3114 C3120 0.930 . S
H3115 C3124 0.930 . S
H3116 C3129 0.929 . S
H3117 C3127 0.929 . S
H3118 C3122 0.929 . S
H3119 C3128 0.929 . S
C3120 H3114 0.930 . S
C3120 C3121 1.367 . S
C3120 C3128 1.378 . S
C3121 C3120 1.367 . S
C3121 C3129 1.433 . S
C3122 H3118 0.929 . S
C3122 C3124 1.378 . S
C3122 C3126 1.350 . S
C3123 C3126 1.463 . S
C3123 C3128 1.350 . S
C3123 N3131 1.427 . S
C3124 H3115 0.930 . S
C3124 C3122 1.378 . S
C3124 C3125 1.367 . S
C3125 C3124 1.367 . S
C3125 C3127 1.433 . S
C3126 C3122 1.350 . S
C3126 C3123 1.463 . S
C3126 N3130 1.427 . S
C3127 H3117 0.929 . S
C3127 C3125 1.433 . S
C3127 N3130 1.384 . S
C3128 H3119 0.929 . S
C3128 C3120 1.378 . S
C3128 C3123 1.350 . S
C3129 H3116 0.929 . S
C3129 C3121 1.433 . S
C3129 N3131 1.384 . S
N3130 C3126 1.427 . S
N3130 C3127 1.384 . S
N3131 C3123 1.427 . S
N3131 C3129 1.384 . S
H3132 C3138 0.930 . S
H3133 C3142 0.930 . S
H3134 C3147 0.929 . S
H3135 C3145 0.929 . S
H3136 C3140 0.929 . S
H3137 C3146 0.929 . S
C3138 H3132 0.930 . S
C3138 C3139 1.367 . S
C3138 C3146 1.378 . S
C3139 C3138 1.367 . S
C3139 C3147 1.433 . S
C3140 H3136 0.929 . S
C3140 C3142 1.378 . S
C3140 C3144 1.350 . S
C3141 C3144 1.463 . S
C3141 C3146 1.350 . S
C3141 N3149 1.427 . S
C3142 H3133 0.930 . S
C3142 C3140 1.378 . S
C3142 C3143 1.367 . S
C3143 C3142 1.367 . S
C3143 C3145 1.433 . S
C3144 C3140 1.350 . S
C3144 C3141 1.463 . S
C3144 N3148 1.427 . S
C3145 H3135 0.929 . S
C3145 C3143 1.433 . S
C3145 N3148 1.384 . S
C3146 H3137 0.929 . S
C3146 C3138 1.378 . S
C3146 C3141 1.350 . S
C3147 H3134 0.929 . S
C3147 C3139 1.433 . S
C3147 N3149 1.384 . S
N3148 C3144 1.427 . S
N3148 C3145 1.384 . S
N3149 C3141 1.427 . S
N3149 C3147 1.384 . S
H3150 C3156 0.930 . S
H3151 C3160 0.930 . S
H3152 C3165 0.929 . S
H3153 C3163 0.929 . S
H3154 C3158 0.929 . S
H3155 C3164 0.929 . S
C3156 H3150 0.930 . S
C3156 C3157 1.367 . S
C3156 C3164 1.378 . S
C3157 C3156 1.367 . S
C3157 C3165 1.433 . S
C3158 H3154 0.929 . S
C3158 C3160 1.378 . S
C3158 C3162 1.350 . S
C3159 C3162 1.463 . S
C3159 C3164 1.350 . S
C3159 N3167 1.427 . S
C3160 H3151 0.930 . S
C3160 C3158 1.378 . S
C3160 C3161 1.367 . S
C3161 C3160 1.367 . S
C3161 C3163 1.433 . S
C3162 C3158 1.350 . S
C3162 C3159 1.463 . S
C3162 N3166 1.427 . S
C3163 H3153 0.929 . S
C3163 C3161 1.433 . S
C3163 N3166 1.384 . S
C3164 H3155 0.929 . S
C3164 C3156 1.378 . S
C3164 C3159 1.350 . S
C3165 H3152 0.929 . S
C3165 C3157 1.433 . S
C3165 N3167 1.384 . S
N3166 C3162 1.427 . S
N3166 C3163 1.384 . S
N3167 C3159 1.427 . S
N3167 C3165 1.384 . S
H3168 C3174 0.930 . S
H3169 C3178 0.930 . S
H3170 C3183 0.929 . S
H3171 C3181 0.929 . S
H3172 C3176 0.929 . S
H3173 C3182 0.929 . S
C3174 H3168 0.930 . S
C3174 C3175 1.367 . S
C3174 C3182 1.378 . S
C3175 C3174 1.367 . S
C3175 C3183 1.433 . S
C3176 H3172 0.929 . S
C3176 C3178 1.378 . S
C3176 C3180 1.350 . S
C3177 C3180 1.463 . S
C3177 C3182 1.350 . S
C3177 N3185 1.427 . S
C3178 H3169 0.930 . S
C3178 C3176 1.378 . S
C3178 C3179 1.367 . S
C3179 C3178 1.367 . S
C3179 C3181 1.433 . S
C3180 C3176 1.350 . S
C3180 C3177 1.463 . S
C3180 N3184 1.427 . S
C3181 H3171 0.929 . S
C3181 C3179 1.433 . S
C3181 N3184 1.384 . S
C3182 H3173 0.929 . S
C3182 C3174 1.378 . S
C3182 C3177 1.350 . S
C3183 H3170 0.929 . S
C3183 C3175 1.433 . S
C3183 N3185 1.384 . S
N3184 C3180 1.427 . S
N3184 C3181 1.384 . S
N3185 C3177 1.427 . S
N3185 C3183 1.384 . S
H3186 C3192 0.930 . S
H3187 C3196 0.930 . S
H3188 C3201 0.929 . S
H3189 C3199 0.929 . S
H3190 C3194 0.929 . S
H3191 C3200 0.929 . S
C3192 H3186 0.930 . S
C3192 C3193 1.367 . S
C3192 C3200 1.378 . S
C3193 C3192 1.367 . S
C3193 C3201 1.433 . S
C3194 H3190 0.929 . S
C3194 C3196 1.378 . S
C3194 C3198 1.350 . S
C3195 C3198 1.463 . S
C3195 C3200 1.350 . S
C3195 N3203 1.427 . S
C3196 H3187 0.930 . S
C3196 C3194 1.378 . S
C3196 C3197 1.367 . S
C3197 C3196 1.367 . S
C3197 C3199 1.433 . S
C3198 C3194 1.350 . S
C3198 C3195 1.463 . S
C3198 N3202 1.427 . S
C3199 H3189 0.929 . S
C3199 C3197 1.433 . S
C3199 N3202 1.384 . S
C3200 H3191 0.929 . S
C3200 C3192 1.378 . S
C3200 C3195 1.350 . S
C3201 H3188 0.929 . S
C3201 C3193 1.433 . S
C3201 N3203 1.384 . S
N3202 C3198 1.427 . S
N3202 C3199 1.384 . S
N3203 C3195 1.427 . S
N3203 C3201 1.384 . S
H3204 C3210 0.930 . S
H3205 C3214 0.930 . S
H3206 C3219 0.929 . S
H3207 C3217 0.929 . S
H3208 C3212 0.929 . S
H3209 C3218 0.929 . S
C3210 H3204 0.930 . S
C3210 C3211 1.367 . S
C3210 C3218 1.378 . S
C3211 C3210 1.367 . S
C3211 C3219 1.433 . S
C3212 H3208 0.929 . S
C3212 C3214 1.378 . S
C3212 C3216 1.350 . S
C3213 C3216 1.463 . S
C3213 C3218 1.350 . S
C3213 N3221 1.427 . S
C3214 H3205 0.930 . S
C3214 C3212 1.378 . S
C3214 C3215 1.367 . S
C3215 C3214 1.367 . S
C3215 C3217 1.433 . S
C3216 C3212 1.350 . S
C3216 C3213 1.463 . S
C3216 N3220 1.427 . S
C3217 H3207 0.929 . S
C3217 C3215 1.433 . S
C3217 N3220 1.384 . S
C3218 H3209 0.929 . S
C3218 C3210 1.378 . S
C3218 C3213 1.350 . S
C3219 H3206 0.929 . S
C3219 C3211 1.433 . S
C3219 N3221 1.384 . S
N3220 C3216 1.427 . S
N3220 C3217 1.384 . S
N3221 C3213 1.427 . S
N3221 C3219 1.384 . S
H3222 C3228 0.930 . S
H3223 C3232 0.930 . S
H3224 C3237 0.929 . S
H3225 C3235 0.929 . S
H3226 C3230 0.929 . S
H3227 C3236 0.929 . S
C3228 H3222 0.930 . S
C3228 C3229 1.367 . S
C3228 C3236 1.378 . S
C3229 C3228 1.367 . S
C3229 C3237 1.433 . S
C3230 H3226 0.929 . S
C3230 C3232 1.378 . S
C3230 C3234 1.350 . S
C3231 C3234 1.463 . S
C3231 C3236 1.350 . S
C3231 N3239 1.427 . S
C3232 H3223 0.930 . S
C3232 C3230 1.378 . S
C3232 C3233 1.367 . S
C3233 C3232 1.367 . S
C3233 C3235 1.433 . S
C3234 C3230 1.350 . S
C3234 C3231 1.463 . S
C3234 N3238 1.427 . S
C3235 H3225 0.929 . S
C3235 C3233 1.433 . S
C3235 N3238 1.384 . S
C3236 H3227 0.929 . S
C3236 C3228 1.378 . S
C3236 C3231 1.350 . S
C3237 H3224 0.929 . S
C3237 C3229 1.433 . S
C3237 N3239 1.384 . S
N3238 C3234 1.427 . S
N3238 C3235 1.384 . S
N3239 C3231 1.427 . S
N3239 C3237 1.384 . S
H3240 C3246 0.930 . S
H3241 C3250 0.930 . S
H3242 C3255 0.929 . S
H3243 C3253 0.929 . S
H3244 C3248 0.929 . S
H3245 C3254 0.929 . S
C3246 H3240 0.930 . S
C3246 C3247 1.367 . S
C3246 C3254 1.378 . S
C3247 C3246 1.367 . S
C3247 C3255 1.433 . S
C3248 H3244 0.929 . S
C3248 C3250 1.378 . S
C3248 C3252 1.350 . S
C3249 C3252 1.463 . S
C3249 C3254 1.350 . S
C3249 N3257 1.427 . S
C3250 H3241 0.930 . S
C3250 C3248 1.378 . S
C3250 C3251 1.367 . S
C3251 C3250 1.367 . S
C3251 C3253 1.433 . S
C3252 C3248 1.350 . S
C3252 C3249 1.463 . S
C3252 N3256 1.427 . S
C3253 H3243 0.929 . S
C3253 C3251 1.433 . S
C3253 N3256 1.384 . S
C3254 H3245 0.929 . S
C3254 C3246 1.378 . S
C3254 C3249 1.350 . S
C3255 H3242 0.929 . S
C3255 C3247 1.433 . S
C3255 N3257 1.384 . S
N3256 C3252 1.427 . S
N3256 C3253 1.384 . S
N3257 C3249 1.427 . S
N3257 C3255 1.384 . S
H3258 C3264 0.930 . S
H3259 C3268 0.930 . S
H3260 C3273 0.929 . S
H3261 C3271 0.929 . S
H3262 C3266 0.929 . S
H3263 C3272 0.929 . S
C3264 H3258 0.930 . S
C3264 C3265 1.367 . S
C3264 C3272 1.378 . S
C3265 C3264 1.367 . S
C3265 C3273 1.433 . S
C3266 H3262 0.929 . S
C3266 C3268 1.378 . S
C3266 C3270 1.350 . S
C3267 C3270 1.463 . S
C3267 C3272 1.350 . S
C3267 N3275 1.427 . S
C3268 H3259 0.930 . S
C3268 C3266 1.378 . S
C3268 C3269 1.367 . S
C3269 C3268 1.367 . S
C3269 C3271 1.433 . S
C3270 C3266 1.350 . S
C3270 C3267 1.463 . S
C3270 N3274 1.427 . S
C3271 H3261 0.929 . S
C3271 C3269 1.433 . S
C3271 N3274 1.384 . S
C3272 H3263 0.929 . S
C3272 C3264 1.378 . S
C3272 C3267 1.350 . S
C3273 H3260 0.929 . S
C3273 C3265 1.433 . S
C3273 N3275 1.384 . S
N3274 C3270 1.427 . S
N3274 C3271 1.384 . S
N3275 C3267 1.427 . S
N3275 C3273 1.384 . S
H3276 C3282 0.930 . S
H3277 C3286 0.930 . S
H3278 C3291 0.929 . S
H3279 C3289 0.929 . S
H3280 C3284 0.929 . S
H3281 C3290 0.929 . S
C3282 H3276 0.930 . S
C3282 C3283 1.367 . S
C3282 C3290 1.378 . S
C3283 C3282 1.367 . S
C3283 C3291 1.433 . S
C3284 H3280 0.929 . S
C3284 C3286 1.378 . S
C3284 C3288 1.350 . S
C3285 C3288 1.463 . S
C3285 C3290 1.350 . S
C3285 N3293 1.427 . S
C3286 H3277 0.930 . S
C3286 C3284 1.378 . S
C3286 C3287 1.367 . S
C3287 C3286 1.367 . S
C3287 C3289 1.433 . S
C3288 C3284 1.350 . S
C3288 C3285 1.463 . S
C3288 N3292 1.427 . S
C3289 H3279 0.929 . S
C3289 C3287 1.433 . S
C3289 N3292 1.384 . S
C3290 H3281 0.929 . S
C3290 C3282 1.378 . S
C3290 C3285 1.350 . S
C3291 H3278 0.929 . S
C3291 C3283 1.433 . S
C3291 N3293 1.384 . S
N3292 C3288 1.427 . S
N3292 C3289 1.384 . S
N3293 C3285 1.427 . S
N3293 C3291 1.384 . S
H3294 C3300 0.930 . S
H3295 C3304 0.930 . S
H3296 C3309 0.929 . S
H3297 C3307 0.929 . S
H3298 C3302 0.929 . S
H3299 C3308 0.929 . S
C3300 H3294 0.930 . S
C3300 C3301 1.367 . S
C3300 C3308 1.378 . S
C3301 C3300 1.367 . S
C3301 C3309 1.433 . S
C3302 H3298 0.929 . S
C3302 C3304 1.378 . S
C3302 C3306 1.350 . S
C3303 C3306 1.463 . S
C3303 C3308 1.350 . S
C3303 N3311 1.427 . S
C3304 H3295 0.930 . S
C3304 C3302 1.378 . S
C3304 C3305 1.367 . S
C3305 C3304 1.367 . S
C3305 C3307 1.433 . S
C3306 C3302 1.350 . S
C3306 C3303 1.463 . S
C3306 N3310 1.427 . S
C3307 H3297 0.929 . S
C3307 C3305 1.433 . S
C3307 N3310 1.384 . S
C3308 H3299 0.929 . S
C3308 C3300 1.378 . S
C3308 C3303 1.350 . S
C3309 H3296 0.929 . S
C3309 C3301 1.433 . S
C3309 N3311 1.384 . S
N3310 C3306 1.427 . S
N3310 C3307 1.384 . S
N3311 C3303 1.427 . S
N3311 C3309 1.384 . S
H3312 C3318 0.930 . S
H3313 C3322 0.930 . S
H3314 C3327 0.929 . S
H3315 C3325 0.929 . S
H3316 C3320 0.929 . S
H3317 C3326 0.929 . S
C3318 H3312 0.930 . S
C3318 C3319 1.367 . S
C3318 C3326 1.378 . S
C3319 C3318 1.367 . S
C3319 C3327 1.433 . S
C3320 H3316 0.929 . S
C3320 C3322 1.378 . S
C3320 C3324 1.350 . S
C3321 C3324 1.463 . S
C3321 C3326 1.350 . S
C3321 N3329 1.427 . S
C3322 H3313 0.930 . S
C3322 C3320 1.378 . S
C3322 C3323 1.367 . S
C3323 C3322 1.367 . S
C3323 C3325 1.433 . S
C3324 C3320 1.350 . S
C3324 C3321 1.463 . S
C3324 N3328 1.427 . S
C3325 H3315 0.929 . S
C3325 C3323 1.433 . S
C3325 N3328 1.384 . S
C3326 H3317 0.929 . S
C3326 C3318 1.378 . S
C3326 C3321 1.350 . S
C3327 H3314 0.929 . S
C3327 C3319 1.433 . S
C3327 N3329 1.384 . S
N3328 C3324 1.427 . S
N3328 C3325 1.384 . S
N3329 C3321 1.427 . S
N3329 C3327 1.384 . S
H3330 C3336 0.930 . S
H3331 C3340 0.930 . S
H3332 C3345 0.929 . S
H3333 C3343 0.929 . S
H3334 C3338 0.929 . S
H3335 C3344 0.929 . S
C3336 H3330 0.930 . S
C3336 C3337 1.367 . S
C3336 C3344 1.378 . S
C3337 C3336 1.367 . S
C3337 C3345 1.433 . S
C3338 H3334 0.929 . S
C3338 C3340 1.378 . S
C3338 C3342 1.350 . S
C3339 C3342 1.463 . S
C3339 C3344 1.350 . S
C3339 N3347 1.427 . S
C3340 H3331 0.930 . S
C3340 C3338 1.378 . S
C3340 C3341 1.367 . S
C3341 C3340 1.367 . S
C3341 C3343 1.433 . S
C3342 C3338 1.350 . S
C3342 C3339 1.463 . S
C3342 N3346 1.427 . S
C3343 H3333 0.929 . S
C3343 C3341 1.433 . S
C3343 N3346 1.384 . S
C3344 H3335 0.929 . S
C3344 C3336 1.378 . S
C3344 C3339 1.350 . S
C3345 H3332 0.929 . S
C3345 C3337 1.433 . S
C3345 N3347 1.384 . S
N3346 C3342 1.427 . S
N3346 C3343 1.384 . S
N3347 C3339 1.427 . S
N3347 C3345 1.384 . S
H3348 C3354 0.930 . S
H3349 C3358 0.930 . S
H3350 C3363 0.929 . S
H3351 C3361 0.929 . S
H3352 C3356 0.929 . S
H3353 C3362 0.929 . S
C3354 H3348 0.930 . S
C3354 C3355 1.367 . S
C3354 C3362 1.378 . S
C3355 C3354 1.367 . S
C3355 C3363 1.433 . S
C3356 H3352 0.929 . S
C3356 C3358 1.378 . S
C3356 C3360 1.350 . S
C3357 C3360 1.463 . S
C3357 C3362 1.350 . S
C3357 N3365 1.427 . S
C3358 H3349 0.930 . S
C3358 C3356 1.378 . S
C3358 C3359 1.367 . S
C3359 C3358 1.367 . S
C3359 C3361 1.433 . S
C3360 C3356 1.350 . S
C3360 C3357 1.463 . S
C3360 N3364 1.427 . S
C3361 H3351 0.929 . S
C3361 C3359 1.433 . S
C3361 N3364 1.384 . S
C3362 H3353 0.929 . S
C3362 C3354 1.378 . S
C3362 C3357 1.350 . S
C3363 H3350 0.929 . S
C3363 C3355 1.433 . S
C3363 N3365 1.384 . S
N3364 C3360 1.427 . S
N3364 C3361 1.384 . S
N3365 C3357 1.427 . S
N3365 C3363 1.384 . S
H3366 C3372 0.930 . S
H3367 C3376 0.930 . S
H3368 C3381 0.929 . S
H3369 C3379 0.929 . S
H3370 C3374 0.929 . S
H3371 C3380 0.929 . S
C3372 H3366 0.930 . S
C3372 C3373 1.367 . S
C3372 C3380 1.378 . S
C3373 C3372 1.367 . S
C3373 C3381 1.433 . S
C3374 H3370 0.929 . S
C3374 C3376 1.378 . S
C3374 C3378 1.350 . S
C3375 C3378 1.463 . S
C3375 C3380 1.350 . S
C3375 N3383 1.427 . S
C3376 H3367 0.930 . S
C3376 C3374 1.378 . S
C3376 C3377 1.367 . S
C3377 C3376 1.367 . S
C3377 C3379 1.433 . S
C3378 C3374 1.350 . S
C3378 C3375 1.463 . S
C3378 N3382 1.427 . S
C3379 H3369 0.929 . S
C3379 C3377 1.433 . S
C3379 N3382 1.384 . S
C3380 H3371 0.929 . S
C3380 C3372 1.378 . S
C3380 C3375 1.350 . S
C3381 H3368 0.929 . S
C3381 C3373 1.433 . S
C3381 N3383 1.384 . S
N3382 C3378 1.427 . S
N3382 C3379 1.384 . S
N3383 C3375 1.427 . S
N3383 C3381 1.384 . S
H3384 C3390 0.930 . S
H3385 C3394 0.930 . S
H3386 C3399 0.929 . S
H3387 C3397 0.929 . S
H3388 C3392 0.929 . S
H3389 C3398 0.929 . S
C3390 H3384 0.930 . S
C3390 C3391 1.367 . S
C3390 C3398 1.378 . S
C3391 C3390 1.367 . S
C3391 C3399 1.433 . S
C3392 H3388 0.929 . S
C3392 C3394 1.378 . S
C3392 C3396 1.350 . S
C3393 C3396 1.463 . S
C3393 C3398 1.350 . S
C3393 N3401 1.427 . S
C3394 H3385 0.930 . S
C3394 C3392 1.378 . S
C3394 C3395 1.367 . S
C3395 C3394 1.367 . S
C3395 C3397 1.433 . S
C3396 C3392 1.350 . S
C3396 C3393 1.463 . S
C3396 N3400 1.427 . S
C3397 H3387 0.929 . S
C3397 C3395 1.433 . S
C3397 N3400 1.384 . S
C3398 H3389 0.929 . S
C3398 C3390 1.378 . S
C3398 C3393 1.350 . S
C3399 H3386 0.929 . S
C3399 C3391 1.433 . S
C3399 N3401 1.384 . S
N3400 C3396 1.427 . S
N3400 C3397 1.384 . S
N3401 C3393 1.427 . S
N3401 C3399 1.384 . S
H3402 C3408 0.930 . S
H3403 C3412 0.930 . S
H3404 C3417 0.929 . S
H3405 C3415 0.929 . S
H3406 C3410 0.929 . S
H3407 C3416 0.929 . S
C3408 H3402 0.930 . S
C3408 C3409 1.367 . S
C3408 C3416 1.378 . S
C3409 C3408 1.367 . S
C3409 C3417 1.433 . S
C3410 H3406 0.929 . S
C3410 C3412 1.378 . S
C3410 C3414 1.350 . S
C3411 C3414 1.463 . S
C3411 C3416 1.350 . S
C3411 N3419 1.427 . S
C3412 H3403 0.930 . S
C3412 C3410 1.378 . S
C3412 C3413 1.367 . S
C3413 C3412 1.367 . S
C3413 C3415 1.433 . S
C3414 C3410 1.350 . S
C3414 C3411 1.463 . S
C3414 N3418 1.427 . S
C3415 H3405 0.929 . S
C3415 C3413 1.433 . S
C3415 N3418 1.384 . S
C3416 H3407 0.929 . S
C3416 C3408 1.378 . S
C3416 C3411 1.350 . S
C3417 H3404 0.929 . S
C3417 C3409 1.433 . S
C3417 N3419 1.384 . S
N3418 C3414 1.427 . S
N3418 C3415 1.384 . S
N3419 C3411 1.427 . S
N3419 C3417 1.384 . S
H3420 C3426 0.930 . S
H3421 C3430 0.930 . S
H3422 C3435 0.929 . S
H3423 C3433 0.929 . S
H3424 C3428 0.929 . S
H3425 C3434 0.929 . S
C3426 H3420 0.930 . S
C3426 C3427 1.367 . S
C3426 C3434 1.378 . S
C3427 C3426 1.367 . S
C3427 C3435 1.433 . S
C3428 H3424 0.929 . S
C3428 C3430 1.378 . S
C3428 C3432 1.350 . S
C3429 C3432 1.463 . S
C3429 C3434 1.350 . S
C3429 N3437 1.427 . S
C3430 H3421 0.930 . S
C3430 C3428 1.378 . S
C3430 C3431 1.367 . S
C3431 C3430 1.367 . S
C3431 C3433 1.433 . S
C3432 C3428 1.350 . S
C3432 C3429 1.463 . S
C3432 N3436 1.427 . S
C3433 H3423 0.929 . S
C3433 C3431 1.433 . S
C3433 N3436 1.384 . S
C3434 H3425 0.929 . S
C3434 C3426 1.378 . S
C3434 C3429 1.350 . S
C3435 H3422 0.929 . S
C3435 C3427 1.433 . S
C3435 N3437 1.384 . S
N3436 C3432 1.427 . S
N3436 C3433 1.384 . S
N3437 C3429 1.427 . S
N3437 C3435 1.384 . S
H3438 C3444 0.930 . S
H3439 C3448 0.930 . S
H3440 C3453 0.929 . S
H3441 C3451 0.929 . S
H3442 C3446 0.929 . S
H3443 C3452 0.929 . S
C3444 H3438 0.930 . S
C3444 C3445 1.367 . S
C3444 C3452 1.378 . S
C3445 C3444 1.367 . S
C3445 C3453 1.433 . S
C3446 H3442 0.929 . S
C3446 C3448 1.378 . S
C3446 C3450 1.350 . S
C3447 C3450 1.463 . S
C3447 C3452 1.350 . S
C3447 N3455 1.427 . S
C3448 H3439 0.930 . S
C3448 C3446 1.378 . S
C3448 C3449 1.367 . S
C3449 C3448 1.367 . S
C3449 C3451 1.433 . S
C3450 C3446 1.350 . S
C3450 C3447 1.463 . S
C3450 N3454 1.427 . S
C3451 H3441 0.929 . S
C3451 C3449 1.433 . S
C3451 N3454 1.384 . S
C3452 H3443 0.929 . S
C3452 C3444 1.378 . S
C3452 C3447 1.350 . S
C3453 H3440 0.929 . S
C3453 C3445 1.433 . S
C3453 N3455 1.384 . S
N3454 C3450 1.427 . S
N3454 C3451 1.384 . S
N3455 C3447 1.427 . S
N3455 C3453 1.384 . S
H3456 C3462 0.930 . S
H3457 C3466 0.930 . S
H3458 C3471 0.929 . S
H3459 C3469 0.929 . S
H3460 C3464 0.929 . S
H3461 C3470 0.929 . S
C3462 H3456 0.930 . S
C3462 C3463 1.367 . S
C3462 C3470 1.378 . S
C3463 C3462 1.367 . S
C3463 C3471 1.433 . S
C3464 H3460 0.929 . S
C3464 C3466 1.378 . S
C3464 C3468 1.350 . S
C3465 C3468 1.463 . S
C3465 C3470 1.350 . S
C3465 N3473 1.427 . S
C3466 H3457 0.930 . S
C3466 C3464 1.378 . S
C3466 C3467 1.367 . S
C3467 C3466 1.367 . S
C3467 C3469 1.433 . S
C3468 C3464 1.350 . S
C3468 C3465 1.463 . S
C3468 N3472 1.427 . S
C3469 H3459 0.929 . S
C3469 C3467 1.433 . S
C3469 N3472 1.384 . S
C3470 H3461 0.929 . S
C3470 C3462 1.378 . S
C3470 C3465 1.350 . S
C3471 H3458 0.929 . S
C3471 C3463 1.433 . S
C3471 N3473 1.384 . S
N3472 C3468 1.427 . S
N3472 C3469 1.384 . S
N3473 C3465 1.427 . S
N3473 C3471 1.384 . S
H3474 C3480 0.930 . S
H3475 C3484 0.930 . S
H3476 C3489 0.929 . S
H3477 C3487 0.929 . S
H3478 C3482 0.929 . S
H3479 C3488 0.929 . S
C3480 H3474 0.930 . S
C3480 C3481 1.367 . S
C3480 C3488 1.378 . S
C3481 C3480 1.367 . S
C3481 C3489 1.433 . S
C3482 H3478 0.929 . S
C3482 C3484 1.378 . S
C3482 C3486 1.350 . S
C3483 C3486 1.463 . S
C3483 C3488 1.350 . S
C3483 N3491 1.427 . S
C3484 H3475 0.930 . S
C3484 C3482 1.378 . S
C3484 C3485 1.367 . S
C3485 C3484 1.367 . S
C3485 C3487 1.433 . S
C3486 C3482 1.350 . S
C3486 C3483 1.463 . S
C3486 N3490 1.427 . S
C3487 H3477 0.929 . S
C3487 C3485 1.433 . S
C3487 N3490 1.384 . S
C3488 H3479 0.929 . S
C3488 C3480 1.378 . S
C3488 C3483 1.350 . S
C3489 H3476 0.929 . S
C3489 C3481 1.433 . S
C3489 N3491 1.384 . S
N3490 C3486 1.427 . S
N3490 C3487 1.384 . S
N3491 C3483 1.427 . S
N3491 C3489 1.384 . S
H3492 C3498 0.930 . S
H3493 C3502 0.930 . S
H3494 C3507 0.929 . S
H3495 C3505 0.929 . S
H3496 C3500 0.929 . S
H3497 C3506 0.929 . S
C3498 H3492 0.930 . S
C3498 C3499 1.367 . S
C3498 C3506 1.378 . S
C3499 C3498 1.367 . S
C3499 C3507 1.433 . S
C3500 H3496 0.929 . S
C3500 C3502 1.378 . S
C3500 C3504 1.350 . S
C3501 C3504 1.463 . S
C3501 C3506 1.350 . S
C3501 N3509 1.427 . S
C3502 H3493 0.930 . S
C3502 C3500 1.378 . S
C3502 C3503 1.367 . S
C3503 C3502 1.367 . S
C3503 C3505 1.433 . S
C3504 C3500 1.350 . S
C3504 C3501 1.463 . S
C3504 N3508 1.427 . S
C3505 H3495 0.929 . S
C3505 C3503 1.433 . S
C3505 N3508 1.384 . S
C3506 H3497 0.929 . S
C3506 C3498 1.378 . S
C3506 C3501 1.350 . S
C3507 H3494 0.929 . S
C3507 C3499 1.433 . S
C3507 N3509 1.384 . S
N3508 C3504 1.427 . S
N3508 C3505 1.384 . S
N3509 C3501 1.427 . S
N3509 C3507 1.384 . S
H3510 C3516 0.930 . S
H3511 C3520 0.930 . S
H3512 C3525 0.929 . S
H3513 C3523 0.929 . S
H3514 C3518 0.929 . S
H3515 C3524 0.929 . S
C3516 H3510 0.930 . S
C3516 C3517 1.367 . S
C3516 C3524 1.378 . S
C3517 C3516 1.367 . S
C3517 C3525 1.433 . S
C3518 H3514 0.929 . S
C3518 C3520 1.378 . S
C3518 C3522 1.350 . S
C3519 C3522 1.463 . S
C3519 C3524 1.350 . S
C3519 N3527 1.427 . S
C3520 H3511 0.930 . S
C3520 C3518 1.378 . S
C3520 C3521 1.367 . S
C3521 C3520 1.367 . S
C3521 C3523 1.433 . S
C3522 C3518 1.350 . S
C3522 C3519 1.463 . S
C3522 N3526 1.427 . S
C3523 H3513 0.929 . S
C3523 C3521 1.433 . S
C3523 N3526 1.384 . S
C3524 H3515 0.929 . S
C3524 C3516 1.378 . S
C3524 C3519 1.350 . S
C3525 H3512 0.929 . S
C3525 C3517 1.433 . S
C3525 N3527 1.384 . S
N3526 C3522 1.427 . S
N3526 C3523 1.384 . S
N3527 C3519 1.427 . S
N3527 C3525 1.384 . S
H3528 C3534 0.930 . S
H3529 C3538 0.930 . S
H3530 C3543 0.929 . S
H3531 C3541 0.929 . S
H3532 C3536 0.929 . S
H3533 C3542 0.929 . S
C3534 H3528 0.930 . S
C3534 C3535 1.367 . S
C3534 C3542 1.378 . S
C3535 C3534 1.367 . S
C3535 C3543 1.433 . S
C3536 H3532 0.929 . S
C3536 C3538 1.378 . S
C3536 C3540 1.350 . S
C3537 C3540 1.463 . S
C3537 C3542 1.350 . S
C3537 N3545 1.427 . S
C3538 H3529 0.930 . S
C3538 C3536 1.378 . S
C3538 C3539 1.367 . S
C3539 C3538 1.367 . S
C3539 C3541 1.433 . S
C3540 C3536 1.350 . S
C3540 C3537 1.463 . S
C3540 N3544 1.427 . S
C3541 H3531 0.929 . S
C3541 C3539 1.433 . S
C3541 N3544 1.384 . S
C3542 H3533 0.929 . S
C3542 C3534 1.378 . S
C3542 C3537 1.350 . S
C3543 H3530 0.929 . S
C3543 C3535 1.433 . S
C3543 N3545 1.384 . S
N3544 C3540 1.427 . S
N3544 C3541 1.384 . S
N3545 C3537 1.427 . S
N3545 C3543 1.384 . S
H3546 C3552 0.930 . S
H3547 C3556 0.930 . S
H3548 C3561 0.929 . S
H3549 C3559 0.929 . S
H3550 C3554 0.929 . S
H3551 C3560 0.929 . S
C3552 H3546 0.930 . S
C3552 C3553 1.367 . S
C3552 C3560 1.378 . S
C3553 C3552 1.367 . S
C3553 C3561 1.433 . S
C3554 H3550 0.929 . S
C3554 C3556 1.378 . S
C3554 C3558 1.350 . S
C3555 C3558 1.463 . S
C3555 C3560 1.350 . S
C3555 N3563 1.427 . S
C3556 H3547 0.930 . S
C3556 C3554 1.378 . S
C3556 C3557 1.367 . S
C3557 C3556 1.367 . S
C3557 C3559 1.433 . S
C3558 C3554 1.350 . S
C3558 C3555 1.463 . S
C3558 N3562 1.427 . S
C3559 H3549 0.929 . S
C3559 C3557 1.433 . S
C3559 N3562 1.384 . S
C3560 H3551 0.929 . S
C3560 C3552 1.378 . S
C3560 C3555 1.350 . S
C3561 H3548 0.929 . S
C3561 C3553 1.433 . S
C3561 N3563 1.384 . S
N3562 C3558 1.427 . S
N3562 C3559 1.384 . S
N3563 C3555 1.427 . S
N3563 C3561 1.384 . S
H3564 C3570 0.930 . S
H3565 C3574 0.930 . S
H3566 C3579 0.929 . S
H3567 C3577 0.929 . S
H3568 C3572 0.929 . S
H3569 C3578 0.929 . S
C3570 H3564 0.930 . S
C3570 C3571 1.367 . S
C3570 C3578 1.378 . S
C3571 C3570 1.367 . S
C3571 C3579 1.433 . S
C3572 H3568 0.929 . S
C3572 C3574 1.378 . S
C3572 C3576 1.350 . S
C3573 C3576 1.463 . S
C3573 C3578 1.350 . S
C3573 N3581 1.427 . S
C3574 H3565 0.930 . S
C3574 C3572 1.378 . S
C3574 C3575 1.367 . S
C3575 C3574 1.367 . S
C3575 C3577 1.433 . S
C3576 C3572 1.350 . S
C3576 C3573 1.463 . S
C3576 N3580 1.427 . S
C3577 H3567 0.929 . S
C3577 C3575 1.433 . S
C3577 N3580 1.384 . S
C3578 H3569 0.929 . S
C3578 C3570 1.378 . S
C3578 C3573 1.350 . S
C3579 H3566 0.929 . S
C3579 C3571 1.433 . S
C3579 N3581 1.384 . S
N3580 C3576 1.427 . S
N3580 C3577 1.384 . S
N3581 C3573 1.427 . S
N3581 C3579 1.384 . S
H3582 C3588 0.930 . S
H3583 C3592 0.930 . S
H3584 C3597 0.929 . S
H3585 C3595 0.929 . S
H3586 C3590 0.929 . S
H3587 C3596 0.929 . S
C3588 H3582 0.930 . S
C3588 C3589 1.367 . S
C3588 C3596 1.378 . S
C3589 C3588 1.367 . S
C3589 C3597 1.433 . S
C3590 H3586 0.929 . S
C3590 C3592 1.378 . S
C3590 C3594 1.350 . S
C3591 C3594 1.463 . S
C3591 C3596 1.350 . S
C3591 N3599 1.427 . S
C3592 H3583 0.930 . S
C3592 C3590 1.378 . S
C3592 C3593 1.367 . S
C3593 C3592 1.367 . S
C3593 C3595 1.433 . S
C3594 C3590 1.350 . S
C3594 C3591 1.463 . S
C3594 N3598 1.427 . S
C3595 H3585 0.929 . S
C3595 C3593 1.433 . S
C3595 N3598 1.384 . S
C3596 H3587 0.929 . S
C3596 C3588 1.378 . S
C3596 C3591 1.350 . S
C3597 H3584 0.929 . S
C3597 C3589 1.433 . S
C3597 N3599 1.384 . S
N3598 C3594 1.427 . S
N3598 C3595 1.384 . S
N3599 C3591 1.427 . S
N3599 C3597 1.384 . S
H3600 C3606 0.930 . S
H3601 C3610 0.930 . S
H3602 C3615 0.929 . S
H3603 C3613 0.929 . S
H3604 C3608 0.929 . S
H3605 C3614 0.929 . S
C3606 H3600 0.930 . S
C3606 C3607 1.367 . S
C3606 C3614 1.378 . S
C3607 C3606 1.367 . S
C3607 C3615 1.433 . S
C3608 H3604 0.929 . S
C3608 C3610 1.378 . S
C3608 C3612 1.350 . S
C3609 C3612 1.463 . S
C3609 C3614 1.350 . S
C3609 N3617 1.427 . S
C3610 H3601 0.930 . S
C3610 C3608 1.378 . S
C3610 C3611 1.367 . S
C3611 C3610 1.367 . S
C3611 C3613 1.433 . S
C3612 C3608 1.350 . S
C3612 C3609 1.463 . S
C3612 N3616 1.427 . S
C3613 H3603 0.929 . S
C3613 C3611 1.433 . S
C3613 N3616 1.384 . S
C3614 H3605 0.929 . S
C3614 C3606 1.378 . S
C3614 C3609 1.350 . S
C3615 H3602 0.929 . S
C3615 C3607 1.433 . S
C3615 N3617 1.384 . S
N3616 C3612 1.427 . S
N3616 C3613 1.384 . S
N3617 C3609 1.427 . S
N3617 C3615 1.384 . S
H3618 C3624 0.930 . S
H3619 C3628 0.930 . S
H3620 C3633 0.929 . S
H3621 C3631 0.929 . S
H3622 C3626 0.929 . S
H3623 C3632 0.929 . S
C3624 H3618 0.930 . S
C3624 C3625 1.367 . S
C3624 C3632 1.378 . S
C3625 C3624 1.367 . S
C3625 C3633 1.433 . S
C3626 H3622 0.929 . S
C3626 C3628 1.378 . S
C3626 C3630 1.350 . S
C3627 C3630 1.463 . S
C3627 C3632 1.350 . S
C3627 N3635 1.427 . S
C3628 H3619 0.930 . S
C3628 C3626 1.378 . S
C3628 C3629 1.367 . S
C3629 C3628 1.367 . S
C3629 C3631 1.433 . S
C3630 C3626 1.350 . S
C3630 C3627 1.463 . S
C3630 N3634 1.427 . S
C3631 H3621 0.929 . S
C3631 C3629 1.433 . S
C3631 N3634 1.384 . S
C3632 H3623 0.929 . S
C3632 C3624 1.378 . S
C3632 C3627 1.350 . S
C3633 H3620 0.929 . S
C3633 C3625 1.433 . S
C3633 N3635 1.384 . S
N3634 C3630 1.427 . S
N3634 C3631 1.384 . S
N3635 C3627 1.427 . S
N3635 C3633 1.384 . S
H3636 C3642 0.930 . S
H3637 C3646 0.930 . S
H3638 C3651 0.929 . S
H3639 C3649 0.929 . S
H3640 C3644 0.929 . S
H3641 C3650 0.929 . S
C3642 H3636 0.930 . S
C3642 C3643 1.367 . S
C3642 C3650 1.378 . S
C3643 C3642 1.367 . S
C3643 C3651 1.433 . S
C3644 H3640 0.929 . S
C3644 C3646 1.378 . S
C3644 C3648 1.350 . S
C3645 C3648 1.463 . S
C3645 C3650 1.350 . S
C3645 N3653 1.427 . S
C3646 H3637 0.930 . S
C3646 C3644 1.378 . S
C3646 C3647 1.367 . S
C3647 C3646 1.367 . S
C3647 C3649 1.433 . S
C3648 C3644 1.350 . S
C3648 C3645 1.463 . S
C3648 N3652 1.427 . S
C3649 H3639 0.929 . S
C3649 C3647 1.433 . S
C3649 N3652 1.384 . S
C3650 H3641 0.929 . S
C3650 C3642 1.378 . S
C3650 C3645 1.350 . S
C3651 H3638 0.929 . S
C3651 C3643 1.433 . S
C3651 N3653 1.384 . S
N3652 C3648 1.427 . S
N3652 C3649 1.384 . S
N3653 C3645 1.427 . S
N3653 C3651 1.384 . S
H3654 C3660 0.930 . S
H3655 C3664 0.930 . S
H3656 C3669 0.929 . S
H3657 C3667 0.929 . S
H3658 C3662 0.929 . S
H3659 C3668 0.929 . S
C3660 H3654 0.930 . S
C3660 C3661 1.367 . S
C3660 C3668 1.378 . S
C3661 C3660 1.367 . S
C3661 C3669 1.433 . S
C3662 H3658 0.929 . S
C3662 C3664 1.378 . S
C3662 C3666 1.350 . S
C3663 C3666 1.463 . S
C3663 C3668 1.350 . S
C3663 N3671 1.427 . S
C3664 H3655 0.930 . S
C3664 C3662 1.378 . S
C3664 C3665 1.367 . S
C3665 C3664 1.367 . S
C3665 C3667 1.433 . S
C3666 C3662 1.350 . S
C3666 C3663 1.463 . S
C3666 N3670 1.427 . S
C3667 H3657 0.929 . S
C3667 C3665 1.433 . S
C3667 N3670 1.384 . S
C3668 H3659 0.929 . S
C3668 C3660 1.378 . S
C3668 C3663 1.350 . S
C3669 H3656 0.929 . S
C3669 C3661 1.433 . S
C3669 N3671 1.384 . S
N3670 C3666 1.427 . S
N3670 C3667 1.384 . S
N3671 C3663 1.427 . S
N3671 C3669 1.384 . S
H3672 C3678 0.930 . S
H3673 C3682 0.930 . S
H3674 C3687 0.929 . S
H3675 C3685 0.929 . S
H3676 C3680 0.929 . S
H3677 C3686 0.929 . S
C3678 H3672 0.930 . S
C3678 C3679 1.367 . S
C3678 C3686 1.378 . S
C3679 C3678 1.367 . S
C3679 C3687 1.433 . S
C3680 H3676 0.929 . S
C3680 C3682 1.378 . S
C3680 C3684 1.350 . S
C3681 C3684 1.463 . S
C3681 C3686 1.350 . S
C3681 N3689 1.427 . S
C3682 H3673 0.930 . S
C3682 C3680 1.378 . S
C3682 C3683 1.367 . S
C3683 C3682 1.367 . S
C3683 C3685 1.433 . S
C3684 C3680 1.350 . S
C3684 C3681 1.463 . S
C3684 N3688 1.427 . S
C3685 H3675 0.929 . S
C3685 C3683 1.433 . S
C3685 N3688 1.384 . S
C3686 H3677 0.929 . S
C3686 C3678 1.378 . S
C3686 C3681 1.350 . S
C3687 H3674 0.929 . S
C3687 C3679 1.433 . S
C3687 N3689 1.384 . S
N3688 C3684 1.427 . S
N3688 C3685 1.384 . S
N3689 C3681 1.427 . S
N3689 C3687 1.384 . S
H3690 C3696 0.930 . S
H3691 C3700 0.930 . S
H3692 C3705 0.929 . S
H3693 C3703 0.929 . S
H3694 C3698 0.929 . S
H3695 C3704 0.929 . S
C3696 H3690 0.930 . S
C3696 C3697 1.367 . S
C3696 C3704 1.378 . S
C3697 C3696 1.367 . S
C3697 C3705 1.433 . S
C3698 H3694 0.929 . S
C3698 C3700 1.378 . S
C3698 C3702 1.350 . S
C3699 C3702 1.463 . S
C3699 C3704 1.350 . S
C3699 N3707 1.427 . S
C3700 H3691 0.930 . S
C3700 C3698 1.378 . S
C3700 C3701 1.367 . S
C3701 C3700 1.367 . S
C3701 C3703 1.433 . S
C3702 C3698 1.350 . S
C3702 C3699 1.463 . S
C3702 N3706 1.427 . S
C3703 H3693 0.929 . S
C3703 C3701 1.433 . S
C3703 N3706 1.384 . S
C3704 H3695 0.929 . S
C3704 C3696 1.378 . S
C3704 C3699 1.350 . S
C3705 H3692 0.929 . S
C3705 C3697 1.433 . S
C3705 N3707 1.384 . S
N3706 C3702 1.427 . S
N3706 C3703 1.384 . S
N3707 C3699 1.427 . S
N3707 C3705 1.384 . S
H3708 C3714 0.930 . S
H3709 C3718 0.930 . S
H3710 C3723 0.929 . S
H3711 C3721 0.929 . S
H3712 C3716 0.929 . S
H3713 C3722 0.929 . S
C3714 H3708 0.930 . S
C3714 C3715 1.367 . S
C3714 C3722 1.378 . S
C3715 C3714 1.367 . S
C3715 C3723 1.433 . S
C3716 H3712 0.929 . S
C3716 C3718 1.378 . S
C3716 C3720 1.350 . S
C3717 C3720 1.463 . S
C3717 C3722 1.350 . S
C3717 N3725 1.427 . S
C3718 H3709 0.930 . S
C3718 C3716 1.378 . S
C3718 C3719 1.367 . S
C3719 C3718 1.367 . S
C3719 C3721 1.433 . S
C3720 C3716 1.350 . S
C3720 C3717 1.463 . S
C3720 N3724 1.427 . S
C3721 H3711 0.929 . S
C3721 C3719 1.433 . S
C3721 N3724 1.384 . S
C3722 H3713 0.929 . S
C3722 C3714 1.378 . S
C3722 C3717 1.350 . S
C3723 H3710 0.929 . S
C3723 C3715 1.433 . S
C3723 N3725 1.384 . S
N3724 C3720 1.427 . S
N3724 C3721 1.384 . S
N3725 C3717 1.427 . S
N3725 C3723 1.384 . S
H3726 C3732 0.930 . S
H3727 C3736 0.930 . S
H3728 C3741 0.929 . S
H3729 C3739 0.929 . S
H3730 C3734 0.929 . S
H3731 C3740 0.929 . S
C3732 H3726 0.930 . S
C3732 C3733 1.367 . S
C3732 C3740 1.378 . S
C3733 C3732 1.367 . S
C3733 C3741 1.433 . S
C3734 H3730 0.929 . S
C3734 C3736 1.378 . S
C3734 C3738 1.350 . S
C3735 C3738 1.463 . S
C3735 C3740 1.350 . S
C3735 N3743 1.427 . S
C3736 H3727 0.930 . S
C3736 C3734 1.378 . S
C3736 C3737 1.367 . S
C3737 C3736 1.367 . S
C3737 C3739 1.433 . S
C3738 C3734 1.350 . S
C3738 C3735 1.463 . S
C3738 N3742 1.427 . S
C3739 H3729 0.929 . S
C3739 C3737 1.433 . S
C3739 N3742 1.384 . S
C3740 H3731 0.929 . S
C3740 C3732 1.378 . S
C3740 C3735 1.350 . S
C3741 H3728 0.929 . S
C3741 C3733 1.433 . S
C3741 N3743 1.384 . S
N3742 C3738 1.427 . S
N3742 C3739 1.384 . S
N3743 C3735 1.427 . S
N3743 C3741 1.384 . S
C1591 C549 0.864 . S
C1595 C21 0.863 . S
C1609 C54 0.849 . S
C1613 C978 0.848 . S
C1627 C615 0.844 . S
C1631 C87 0.845 . S
C1645 C1044 0.761 . S
C1649 C120 0.762 . S
C1663 C153 0.870 . S
C1667 C417 0.870 . S
C1681 C846 0.894 . S
C1685 C186 0.895 . S
C1699 C483 0.844 . S
C1703 C219 0.844 . S
C1717 C252 0.831 . S
C1721 C912 0.831 . S
C1735 C285 0.740 . S
C1739 C1572 0.738 . S
C1753 C318 0.971 . S
C1757 C1539 0.972 . S
C1771 C351 0.965 . S
C1775 C1506 0.966 . S
C1789 C1473 0.750 . S
C1793 C384 0.748 . S
C1807 C1374 0.847 . S
C1811 C450 0.847 . S
C1825 C516 0.765 . S
C1829 C1440 0.765 . S
C1843 C1242 0.894 . S
C1847 C582 0.893 . S
C1861 C648 0.827 . S
C1865 C1308 0.827 . S
C1879 C681 0.735 . S
C1883 C1176 0.736 . S
C1897 C1143 0.967 . S
C1901 C714 0.967 . S
C1915 C1110 0.968 . S
C1919 C747 0.967 . S
C1933 C780 0.746 . S
C1937 C1077 0.747 . S
C1951 C813 0.841 . S
C1955 C1341 0.841 . S
C1969 C879 0.869 . S
C1973 C1407 0.867 . S
C1987 C945 0.836 . S
C1991 C1209 0.836 . S
C2005 C1011 0.866 . S
C2009 C1275 0.867 . S
C2023 C117 1.617 . S
C2027 N13 1.518 . S
C2041 N35 1.446 . S
C2045 C7 1.574 . S
C2059 C51 1.611 . S
C2063 N68 1.480 . S
C2077 N101 1.442 . S
C2081 C84 1.584 . S
C2095 N134 1.480 . S
C2099 C172 1.600 . S
C2113 C216 1.686 . S
C2117 N178 1.580 . S
C2131 N200 1.495 . S
C2135 C238 1.623 . S
C2149 N244 1.562 . S
C2153 C150 1.656 . S
C2167 N112 1.496 . S
C2171 C282 1.589 . S
C2185 C348 1.630 . S
C2189 N2 1.503 . S
C2203 C381 1.633 . S
C2207 N46 1.532 . S
C2221 C304 1.621 . S
C2225 N79 1.545 . S
C2239 C315 1.655 . S
C2243 N167 1.511 . S
C2257 C271 1.575 . S
C2261 N211 1.500 . S
C2275 N233 1.540 . S
C2279 C337 1.660 . S
C2293 N145 1.472 . S
C2297 C370 1.554 . S
C2311 C18 1.592 . S
C2315 N277 1.503 . S
C2329 C139 1.669 . S
C2333 N310 1.588 . S
C2347 N266 1.428 . S
C2351 C183 1.553 . S
C2365 C205 1.646 . S
C2369 N332 1.529 . S
C2383 N365 1.456 . S
C2387 C249 1.583 . S
C2401 C73 1.570 . S
C2405 N376 1.498 . S
C2419 N299 1.453 . S
C2423 C106 1.586 . S
C2437 C40 1.693 . S
C2441 N343 1.601 . S
C2455 C513 1.582 . S
C2459 N409 1.483 . S
C2473 C403 1.575 . S
C2477 N431 1.446 . S
C2491 N464 1.437 . S
C2495 C447 1.579 . S
C2509 N497 1.425 . S
C2513 C480 1.557 . S
C2527 N530 1.506 . S
C2531 C568 1.628 . S
C2545 N574 1.611 . S
C2549 C612 1.714 . S
C2563 N596 1.499 . S
C2567 C634 1.622 . S
C2581 C546 1.691 . S
C2585 N640 1.600 . S
C2599 C678 1.565 . S
C2603 N508 1.463 . S
C2617 C744 1.634 . S
C2621 N398 1.493 . S
C2635 N442 1.547 . S
C2639 C777 1.640 . S
C2653 C711 1.642 . S
C2657 N475 1.543 . S
C2671 C700 1.636 . S
C2675 N563 1.517 . S
C2689 N607 1.490 . S
C2693 C667 1.568 . S
C2707 C733 1.649 . S
C2711 N629 1.529 . S
C2725 C766 1.577 . S
C2729 N541 1.501 . S
C2743 N673 1.499 . S
C2747 C414 1.587 . S
C2761 C535 1.640 . S
C2765 N695 1.508 . S
C2779 N662 1.408 . S
C2783 C579 1.550 . S
C2797 N728 1.511 . S
C2801 C601 1.646 . S
C2815 N761 1.440 . S
C2819 C645 1.582 . S
C2833 N772 1.491 . S
C2837 C469 1.566 . S
C2851 C502 1.610 . S
C2855 N706 1.521 . S
C2869 N739 1.609 . S
C2873 C436 1.690 . S
C2887 N805 1.524 . S
C2891 C909 1.620 . S
C2905 N827 1.474 . S
C2909 C799 1.600 . S
C2923 N860 1.495 . S
C2927 C843 1.635 . S
C2941 C876 1.544 . S
C2945 N893 1.420 . S
C2959 N926 1.506 . S
C2963 C964 1.639 . S
C2977 N970 1.578 . S
C2981 C1008 1.679 . S
C2995 N992 1.479 . S
C2999 C1030 1.603 . S
C3013 C942 1.636 . S
C3017 N1036 1.543 . S
C3031 N904 1.470 . S
C3035 C1074 1.561 . S
C3049 N794 1.502 . S
C3053 C1129 1.626 . S
C3067 C1173 1.652 . S
C3071 N838 1.558 . S
C3085 C1107 1.670 . S
C3089 N871 1.571 . S
C3103 C1096 1.583 . S
C3107 N959 1.457 . S
C3121 C1063 1.560 . S
C3125 N1003 1.478 . S
C3139 C1140 1.633 . S
C3143 N1025 1.493 . S
C3157 C1162 1.594 . S
C3161 N937 1.508 . S
C3175 N1069 1.489 . S
C3179 C810 1.576 . S
C3193 C931 1.599 . S
C3197 N1091 1.467 . S
C3211 N1058 1.428 . S
C3215 C975 1.571 . S
C3229 C997 1.648 . S
C3233 N1135 1.562 . S
C3247 N1157 1.445 . S
C3251 C1041 1.588 . S
C3265 N1168 1.459 . S
C3269 C865 1.541 . S
C3283 N1102 1.571 . S
C3287 C898 1.658 . S
C3301 N1124 1.579 . S
C3305 C832 1.701 . S
C3319 N1201 1.555 . S
C3323 C1305 1.653 . S
C3337 N1223 1.467 . S
C3341 C1195 1.593 . S
C3355 N1256 1.530 . S
C3359 C1239 1.664 . S
C3373 N1289 1.434 . S
C3377 C1272 1.569 . S
C3391 N1322 1.501 . S
C3395 C1360 1.618 . S
C3409 N1366 1.559 . S
C3413 C1404 1.655 . S
C3427 N1388 1.475 . S
C3431 C1426 1.605 . S
C3445 N1432 1.502 . S
C3449 C1338 1.599 . S
C3463 N1300 1.473 . S
C3467 C1470 1.576 . S
C3481 N1190 1.497 . S
C3485 C1525 1.620 . S
C3499 N1234 1.556 . S
C3503 C1569 1.650 . S
C3517 N1267 1.558 . S
C3521 C1492 1.641 . S
C3535 C1503 1.614 . S
C3539 N1355 1.485 . S
C3553 C1459 1.561 . S
C3557 N1399 1.481 . S
C3571 N1421 1.499 . S
C3575 C1536 1.642 . S
C3589 N1333 1.501 . S
C3593 C1558 1.582 . S
C3607 C1206 1.580 . S
C3611 N1465 1.495 . S
C3625 N1498 1.548 . S
C3629 C1327 1.632 . S
C3643 C1371 1.571 . S
C3647 N1454 1.436 . S
C3661 N1531 1.560 . S
C3665 C1393 1.639 . S
C3679 C1437 1.583 . S
C3683 N1553 1.442 . S
C3697 C1261 1.545 . S
C3701 N1564 1.465 . S
C3715 N1487 1.520 . S
C3719 C1294 1.642 . S
C3733 C1228 1.706 . S
C3737 N1520 1.569 . S
