# Generated by pormake.
# Topology wli, (5)-cn, num edge types: 1
# Building blocks:
#     Node 0, Type 0, BuildingBlock: BEQFEK_clean_sbu_0, # of connection points: 5
#     Node 1, Type 0, BuildingBlock: BEQFEK_clean_sbu_0, # of connection points: 5
#     Node 2, Type 0, BuildingBlock: BEQFEK_clean_sbu_0, # of connection points: 5
#     Node 3, Type 0, BuildingBlock: BEQFEK_clean_sbu_0, # of connection points: 5
#     Node 4, Type 0, BuildingBlock: BEQFEK_clean_sbu_0, # of connection points: 5
#     Node 5, Type 0, BuildingBlock: BEQFEK_clean_sbu_0, # of connection points: 5
#     Edge 6, Type (0, 0), BuildingBlock: OJICUG_clean_linker_0, # of connection points: 2
#     Edge 7, Type (0, 0), BuildingBlock: OJICUG_clean_linker_0, # of connection points: 2
#     Edge 8, Type (0, 0), BuildingBlock: OJICUG_clean_linker_0, # of connection points: 2
#     Edge 9, Type (0, 0), BuildingBlock: OJICUG_clean_linker_0, # of connection points: 2
#     Edge 10, Type (0, 0), BuildingBlock: OJICUG_clean_linker_0, # of connection points: 2
#     Edge 11, Type (0, 0), BuildingBlock: OJICUG_clean_linker_0, # of connection points: 2
#     Edge 12, Type (0, 0), BuildingBlock: OJICUG_clean_linker_0, # of connection points: 2
#     Edge 13, Type (0, 0), BuildingBlock: OJICUG_clean_linker_0, # of connection points: 2
#     Edge 14, Type (0, 0), BuildingBlock: OJICUG_clean_linker_0, # of connection points: 2
#     Edge 15, Type (0, 0), BuildingBlock: OJICUG_clean_linker_0, # of connection points: 2
#     Edge 16, Type (0, 0), BuildingBlock: OJICUG_clean_linker_0, # of connection points: 2
#     Edge 17, Type (0, 0), BuildingBlock: OJICUG_clean_linker_0, # of connection points: 2
#     Edge 18, Type (0, 0), BuildingBlock: OJICUG_clean_linker_0, # of connection points: 2
#     Edge 19, Type (0, 0), BuildingBlock: OJICUG_clean_linker_0, # of connection points: 2
#     Edge 20, Type (0, 0), BuildingBlock: OJICUG_clean_linker_0, # of connection points: 2
# Relax obj value: 0.176
# Max RMSD: 0.112
# Mean RMSD: 0.112
data_MOF--net-wli--node1-BEQFEK_clean_sbu_0--edge1-OJICUG_clean_linker_0
_symmetry_space_group_name_H-M    P1
_symmetry_Int_Tables_number       1
_symmetry_cell_setting            triclinic
loop_
_symmetry_equiv_pos_as_xyz
'x, y, z'
_cell_length_a     27.724126
_cell_length_b     27.76179
_cell_length_c     21.919981
_cell_angle_alpha  89.91653
_cell_angle_beta   90.056928
_cell_angle_gamma 119.87668
loop_
_atom_site_label
_atom_site_type_symbol
_atom_site_fract_x
_atom_site_fract_y
_atom_site_fract_z
_atom_type_partial_charge
Co0 Co 0.22308 0.44576 0.95735 0.0
Co1 Co 0.13907 0.36432 0.05552 0.0
C2 C 0.23214 0.35002 0.00848 0.0
O3 O 0.24736 0.391 0.97251 0.0
O4 O 0.19178 0.33556 0.04541 0.0
C5 C 0.33152 0.5306 0.92654 0.0
O6 O 0.34178 0.51933 0.98169 0.0
C7 C 0.09725 0.3123 0.17643 0.0
C8 C 0.00774 0.28448 0.16775 0.0
C9 C 0.04738 0.28774 0.2086 0.0
N10 N 0.08757 0.32419 0.11973 0.0
N11 N 0.03379 0.30653 0.11464 0.0
C12 C 0.15294 0.3231 0.19847 0.0
H13 H 0.17865 0.36724 0.21203 0.0
H14 H 0.14851 0.2964 0.23824 0.0
H15 H 0.17515 0.31518 0.1613 0.0
C16 C 0.22775 0.529 0.04582 0.0
N17 N 0.212 0.47615 0.03034 0.0
N18 N 0.17676 0.44226 0.0715 0.0
C19 C 0.16902 0.47265 0.11435 0.0
C20 C 0.2014 0.52851 0.09969 0.0
C21 C 0.26043 0.57829 0.00536 0.0
H22 H 0.2496 0.56646 0.95691 0.0
H23 H 0.30544 0.59357 0.01184 0.0
H24 H 0.25239 0.61265 0.01647 0.0
O25 O 0.15303 0.40877 0.91098 0.0
O26 O 0.09406 0.35002 0.97984 0.0
H27 H 0.08613 0.42085 0.14749 0.0
H28 H 0.12764 0.48128 0.19434 0.0
C29 C 0.12836 0.44868 0.16589 0.0
H30 H 0.14006 0.42399 0.19564 0.0
H31 H 0.0151 0.31113 0.07541 0.0
O32 O 0.2821 0.50431 0.90604 0.0
C33 C 0.10447 0.37073 0.92627 0.0
Co34 Co 0.58716 0.79331 0.63201 0.0
Co35 Co 0.67387 0.79022 0.72275 0.0
C36 C 0.68478 0.89768 0.67654 0.0
O37 O 0.63962 0.87223 0.64668 0.0
O38 O 0.70342 0.87155 0.70754 0.0
C39 C 0.53139 0.82676 0.54703 0.0
O40 O 0.58201 0.86861 0.53901 0.0
C41 C 0.72163 0.79884 0.8447 0.0
C42 C 0.76448 0.7503 0.83378 0.0
C43 C 0.75108 0.77841 0.87664 0.0
N44 N 0.71687 0.78238 0.78627 0.0
N45 N 0.7433 0.75411 0.77986 0.0
C46 C 0.69979 0.83492 0.86824 0.0
H47 H 0.69967 0.8622 0.83128 0.0
H48 H 0.65631 0.80873 0.88395 0.0
H49 H 0.72531 0.86055 0.90712 0.0
C50 C 0.50949 0.72483 0.7293 0.0
N51 N 0.56143 0.75559 0.70723 0.0
N52 N 0.59667 0.75086 0.74356 0.0
C53 C 0.56765 0.71413 0.78815 0.0
C54 C 0.51148 0.69711 0.78127 0.0
C55 C 0.45939 0.72297 0.70113 0.0
H56 H 0.46999 0.76505 0.68519 0.0
H57 H 0.42448 0.708 0.73406 0.0
H58 H 0.44608 0.6949 0.66101 0.0
O59 O 0.62429 0.76017 0.5831 0.0
O60 O 0.68394 0.75681 0.64861 0.0
H61 H 0.55981 0.6447 0.84071 0.0
H62 H 0.60505 0.7118 0.87291 0.0
C63 C 0.59143 0.68822 0.82961 0.0
H64 H 0.62741 0.68818 0.8078 0.0
H65 H 0.74534 0.73584 0.73909 0.0
O66 O 0.52375 0.78829 0.58407 0.0
C67 C 0.66162 0.74764 0.59602 0.0
Co68 Co 0.24123 0.81122 0.29161 0.0
Co69 Co 0.24796 0.89834 0.38849 0.0
C70 C 0.13881 0.80667 0.34456 0.0
O71 O 0.1632 0.79025 0.30803 0.0
O72 O 0.16596 0.84683 0.38133 0.0
C73 C 0.1984 0.71326 0.21663 0.0
O74 O 0.15174 0.7145 0.22015 0.0
C75 C 0.24647 0.94515 0.50938 0.0
C76 C 0.30062 0.03486 0.49185 0.0
C77 C 0.27097 0.99712 0.53774 0.0
N78 N 0.26187 0.95247 0.45033 0.0
N79 N 0.29349 0.00624 0.44006 0.0
C80 C 0.2124 0.88899 0.53769 0.0
H81 H 0.20997 0.8562 0.50678 0.0
H82 H 0.23049 0.88687 0.58211 0.0
H83 H 0.16956 0.88113 0.54566 0.0
C84 C 0.31619 0.80218 0.38092 0.0
N85 N 0.28225 0.82177 0.36471 0.0
N86 N 0.28738 0.85967 0.40435 0.0
C87 C 0.32619 0.86651 0.44603 0.0
C88 C 0.3451 0.8298 0.43297 0.0
C89 C 0.32547 0.76273 0.34303 0.0
H90 H 0.34059 0.78111 0.2972 0.0
H91 H 0.28537 0.72359 0.33693 0.0
H92 H 0.35616 0.75326 0.36425 0.0
O93 O 0.27517 0.88044 0.24303 0.0
O94 O 0.27666 0.94039 0.31125 0.0
H95 H 0.35531 0.9503 0.47521 0.0
H96 H 0.3874 0.91623 0.51463 0.0
C97 C 0.34815 0.91033 0.49446 0.0
H98 H 0.31715 0.89769 0.53159 0.0
H99 H 0.31164 0.02334 0.39804 0.0
O100 O 0.24174 0.75111 0.24269 0.0
C101 C 0.28605 0.92924 0.2577 0.0
Co102 Co 0.45007 0.2244 0.0487 0.0
Co103 Co 0.37036 0.14045 0.9494 0.0
C104 C 0.35426 0.23251 0.99597 0.0
O105 O 0.39483 0.2479 0.03263 0.0
O106 O 0.34079 0.19255 0.95882 0.0
C107 C 0.53401 0.3327 0.08164 0.0
O108 O 0.52397 0.34366 0.02626 0.0
C109 C 0.32226 0.09928 0.82674 0.0
C110 C 0.28888 0.00903 0.83773 0.0
C111 C 0.29612 0.04911 0.79534 0.0
N112 N 0.33106 0.08926 0.88463 0.0
N113 N 0.3102 0.03511 0.891 0.0
C114 C 0.33672 0.1555 0.80288 0.0
H115 H 0.33632 0.18206 0.84034 0.0
H116 H 0.37907 0.1762 0.783 0.0
H117 H 0.30703 0.15175 0.76665 0.0
C118 C 0.53518 0.23129 0.96073 0.0
N119 N 0.48189 0.21431 0.97599 0.0
N120 N 0.44867 0.17846 0.93487 0.0
C121 C 0.47992 0.17105 0.89277 0.0
C122 C 0.53561 0.20495 0.90729 0.0
C123 C 0.58433 0.2655 1.00082 0.0
H124 H 0.57293 0.25459 0.04937 0.0
H125 H 0.59797 0.31007 0.99413 0.0
H126 H 0.61978 0.25915 0.98945 0.0
O127 O 0.41273 0.15409 0.09482 0.0
O128 O 0.35516 0.09543 0.02503 0.0
H129 H 0.4261 0.0877 0.86218 0.0
H130 H 0.49011 0.12432 0.81938 0.0
C131 C 0.45707 0.12852 0.84299 0.0
H132 H 0.43617 0.14099 0.80865 0.0
H133 H 0.31186 0.01602 0.93137 0.0
O134 O 0.50744 0.28307 0.10133 0.0
C135 C 0.37497 0.10563 0.079 0.0
Co136 Co 0.81227 0.24074 0.70568 0.0
Co137 Co 0.90268 0.2442 0.61587 0.0
C138 C 0.80475 0.1366 0.65812 0.0
O139 O 0.78539 0.16196 0.68877 0.0
O140 O 0.84979 0.16283 0.62779 0.0
C141 C 0.72209 0.20597 0.78906 0.0
O142 O 0.72987 0.16325 0.79515 0.0
C143 C 0.9469 0.23937 0.49505 0.0
C144 C 0.0373 0.2836 0.51301 0.0
C145 C 0.99843 0.25898 0.46668 0.0
N146 N 0.95553 0.25266 0.55461 0.0
N147 N 0.00959 0.27825 0.56517 0.0
C148 C 0.89047 0.21253 0.46623 0.0
H149 H 0.85963 0.21349 0.4977 0.0
H150 H 0.89159 0.23368 0.42282 0.0
H151 H 0.877 0.16846 0.45613 0.0
C152 C 0.80607 0.31254 0.60968 0.0
N153 N 0.82625 0.28068 0.63143 0.0
N154 N 0.86656 0.28556 0.59569 0.0
C155 C 0.8756 0.32352 0.55205 0.0
C156 C 0.8369 0.34126 0.55867 0.0
C157 C 0.75732 0.31401 0.63691 0.0
H158 H 0.72592 0.27185 0.65255 0.0
H159 H 0.73758 0.32884 0.60344 0.0
H160 H 0.77141 0.34204 0.67707 0.0
O161 O 0.88128 0.27178 0.75666 0.0
O162 O 0.9442 0.27464 0.69165 0.0
H163 H 0.96085 0.34744 0.5333 0.0
H164 H 0.93887 0.39317 0.50145 0.0
C165 C 0.92571 0.34912 0.51142 0.0
H166 H 0.91558 0.3263 0.46758 0.0
H167 H 0.02772 0.29381 0.60762 0.0
O168 O 0.75368 0.24541 0.75347 0.0
C169 C 0.93087 0.28328 0.74433 0.0
Co170 Co 0.79601 0.59007 0.37895 0.0
Co171 Co 0.79142 0.67368 0.28506 0.0
C172 C 0.8996 0.68879 0.33171 0.0
O173 O 0.87462 0.64686 0.3666 0.0
O174 O 0.87306 0.70306 0.29528 0.0
C175 C 0.82805 0.51154 0.415 0.0
O176 O 0.85944 0.5307 0.36615 0.0
C177 C 0.79605 0.72324 0.16414 0.0
C178 C 0.7452 0.76287 0.18084 0.0
C179 C 0.77346 0.75238 0.13532 0.0
N180 N 0.7809 0.71642 0.22324 0.0
N181 N 0.75137 0.74107 0.23306 0.0
C182 C 0.82739 0.69799 0.13588 0.0
H183 H 0.82764 0.66638 0.16677 0.0
H184 H 0.80876 0.67875 0.09133 0.0
H185 H 0.87108 0.73099 0.12801 0.0
C186 C 0.72533 0.5094 0.2829 0.0
N187 N 0.75708 0.5618 0.30364 0.0
N188 N 0.75239 0.59636 0.26609 0.0
C189 C 0.71589 0.56681 0.22161 0.0
C190 C 0.69822 0.51086 0.23009 0.0
C191 C 0.72195 0.45932 0.31291 0.0
H192 H 0.70797 0.45663 0.36083 0.0
H193 H 0.76386 0.46369 0.3133 0.0
H194 H 0.69385 0.42031 0.28858 0.0
O195 O 0.76011 0.62408 0.42691 0.0
O196 O 0.75975 0.68482 0.36096 0.0
H197 H 0.68987 0.62569 0.19815 0.0
H198 H 0.64887 0.55842 0.16387 0.0
C199 C 0.69162 0.59025 0.17748 0.0
H200 H 0.71764 0.60444 0.13581 0.0
H201 H 0.73368 0.74129 0.27497 0.0
O202 O 0.79609 0.53037 0.42915 0.0
C203 C 0.74887 0.66209 0.41343 0.0
C204 C 0.15034 0.62191 0.16229 0.0
C205 C 0.19972 0.66684 0.18504 0.0
H206 H 0.11242 0.54291 0.11721 0.0
C207 C 0.24991 0.66625 0.17842 0.0
H208 H 0.11101 0.62108 0.16645 0.0
C209 C 0.25051 0.62139 0.15017 0.0
C210 C 0.20093 0.57619 0.1288 0.0
H211 H 0.28869 0.70028 0.19528 0.0
H212 H 0.28954 0.62162 0.1457 0.0
C213 C 0.15098 0.57703 0.13443 0.0
C214 C 0.46878 0.65567 0.88222 0.0
C215 C 0.46446 0.65535 0.81836 0.0
H216 H 0.43024 0.61622 0.9665 0.0
C217 C 0.41569 0.61409 0.79037 0.0
H218 H 0.50562 0.68737 0.90505 0.0
C219 C 0.372 0.57414 0.82558 0.0
C220 C 0.37677 0.57394 0.88938 0.0
H221 H 0.41167 0.61196 0.74118 0.0
H222 H 0.33502 0.54262 0.80275 0.0
C223 C 0.42558 0.61508 0.91736 0.0
C224 C 0.38456 0.781 0.49315 0.0
C225 C 0.39266 0.82809 0.46088 0.0
H226 H 0.42221 0.74361 0.54626 0.0
C227 C 0.44645 0.87376 0.45519 0.0
H228 H 0.34325 0.74524 0.49761 0.0
C229 C 0.49158 0.87286 0.48236 0.0
C230 C 0.48368 0.82627 0.51596 0.0
H231 H 0.45346 0.91027 0.42991 0.0
H232 H 0.53255 0.90905 0.47767 0.0
C233 C 0.42968 0.78017 0.52082 0.0
C234 C 0.58946 0.15829 0.87926 0.0
C235 C 0.58408 0.20587 0.87838 0.0
H236 H 0.63749 0.1211 0.85195 0.0
C237 C 0.62514 0.25429 0.84996 0.0
H238 H 0.55841 0.12073 0.90166 0.0
C239 C 0.6703 0.25461 0.82106 0.0
C240 C 0.67545 0.20668 0.82108 0.0
H241 H 0.62176 0.29152 0.84932 0.0
H242 H 0.70103 0.29228 0.79862 0.0
C243 C 0.63479 0.1587 0.85102 0.0
C244 C 0.83844 0.42754 0.42361 0.0
C245 C 0.82854 0.4672 0.45166 0.0
H246 H 0.84615 0.35511 0.43517 0.0
C247 C 0.82007 0.46463 0.51497 0.0
H248 H 0.84454 0.42831 0.37473 0.0
C249 C 0.82295 0.42391 0.54988 0.0
C250 C 0.8326 0.38395 0.52186 0.0
H251 H 0.81286 0.49509 0.53771 0.0
H252 H 0.81875 0.42451 0.59891 0.0
C253 C 0.83965 0.38586 0.45826 0.0
C254 C 0.5729 0.37392 0.18377 0.0
C255 C 0.57664 0.37734 0.11985 0.0
H256 H 0.60713 0.41469 0.26886 0.0
C257 C 0.62106 0.42426 0.09262 0.0
H258 H 0.53868 0.33844 0.20589 0.0
C259 C 0.66118 0.46689 0.12866 0.0
C260 C 0.65707 0.46393 0.19256 0.0
H261 H 0.62509 0.4278 0.04343 0.0
H262 H 0.69537 0.50237 0.10654 0.0
C263 C 0.6123 0.41726 0.21979 0.0
C264 C 0.03077 0.33681 0.77414 0.0
C265 C 0.97455 0.30722 0.79159 0.0
H266 H 0.11564 0.38046 0.80291 0.0
C267 C 0.9611 0.29963 0.85393 0.0
H268 H 0.04246 0.34363 0.72642 0.0
C269 C 1.00329 0.32017 0.89796 0.0
C270 C 0.05953 0.34953 0.88032 0.0
H271 H 0.91812 0.27684 0.86864 0.0
H272 H 0.99186 0.31317 0.94574 0.0
C273 C 0.07274 0.35811 0.81799 0.0
C274 C 0.72839 0.67231 0.52215 0.0
C275 C 0.72377 0.68133 0.45992 0.0
H276 H 0.71267 0.68661 0.61393 0.0
C277 C 0.69631 0.71029 0.44258 0.0
H278 H 0.74936 0.65022 0.53692 0.0
C279 C 0.67454 0.73048 0.4867 0.0
C280 C 0.68076 0.72296 0.54897 0.0
H281 H 0.69182 0.71757 0.39488 0.0
H282 H 0.65421 0.75324 0.47208 0.0
C283 C 0.70754 0.69335 0.56623 0.0
C284 C 0.3599 0.07264 0.18713 0.0
C285 C 0.35314 0.06034 0.12451 0.0
H286 H 0.34352 0.04083 0.27825 0.0
C287 C 0.3249 0.00448 0.1059 0.0
H288 H 0.38132 0.11527 0.20289 0.0
C289 C 0.30389 0.96175 0.14913 0.0
C290 C 0.30983 0.97412 0.21176 0.0
H291 H 0.31926 0.99373 0.05792 0.0
H292 H 0.28217 0.91908 0.1335 0.0
C293 C 0.33805 0.02998 0.2303 0.0
C294 C 0.3071 0.27355 0.05569 0.0
C295 C 0.32117 0.26065 0.99878 0.0
H296 H 0.26611 0.31064 0.10335 0.0
C297 C 0.3044 0.27586 0.94525 0.0
H298 H 0.31942 0.26191 0.09761 0.0
C299 C 0.2756 0.30524 0.94861 0.0
C300 C 0.26137 0.31798 0.00552 0.0
H301 H 0.3149 0.26642 0.90094 0.0
H302 H 0.26406 0.31769 0.90671 0.0
C303 C 0.27652 0.30112 0.05904 0.0
C304 C 0.71641 0.04616 0.66368 0.0
C305 C 0.77472 0.07539 0.66035 0.0
H306 H 0.64238 0.96687 0.67071 0.0
C307 C 0.80367 0.04588 0.66345 0.0
H308 H 0.69316 0.068 0.66166 0.0
C309 C 0.77463 0.98804 0.67081 0.0
C310 C 0.71622 0.95887 0.6733 0.0
H311 H 0.8487 0.06764 0.66172 0.0
H312 H 0.79769 0.96604 0.67328 0.0
C313 C 0.68743 0.98842 0.66911 0.0
C314 C 0.04579 0.76384 0.39534 0.0
C315 C 0.0777 0.77935 0.34184 0.0
H316 H 0.9637 0.7214 0.43371 0.0
C317 C 0.05074 0.76682 0.2849 0.0
H318 H 0.06574 0.77294 0.43966 0.0
C319 C 0.99267 0.73912 0.28146 0.0
C320 C 0.96073 0.72175 0.3349 0.0
H321 H 0.07466 0.77862 0.24301 0.0
H322 H 0.97275 0.72969 0.23712 0.0
C323 C 0.98767 0.73432 0.39187 0.0
C324 C 0.97592 0.22343 0.35816 0.0
C325 C 0.01226 0.26263 0.40068 0.0
H326 H 0.95876 0.20077 0.26375 0.0
C327 C 0.06267 0.30737 0.37952 0.0
H328 H 0.93792 0.18722 0.37263 0.0
C329 C 0.07522 0.31427 0.31734 0.0
C330 C 0.03784 0.27637 0.27475 0.0
H331 H 0.09175 0.33847 0.41083 0.0
H332 H 0.11298 0.35081 0.30256 0.0
C333 C 0.98827 0.23066 0.29574 0.0
C334 C 0.80759 0.77867 0.96597 0.0
C335 C 0.75959 0.77754 0.94327 0.0
H336 H 0.85117 0.77414 0.04441 0.0
C337 C 0.71763 0.77009 0.98434 0.0
H338 H 0.84061 0.78431 0.93527 0.0
C339 C 0.72317 0.76323 0.04656 0.0
C340 C 0.77053 0.76302 0.06933 0.0
H341 H 0.67926 0.76697 0.96837 0.0
H342 H 0.68925 0.75615 0.0766 0.0
C343 C 0.81328 0.77205 0.02846 0.0
C344 C 0.2387 0.99122 0.70768 0.0
C345 C 0.28609 0.03909 0.72905 0.0
H346 H 0.19465 0.94165 0.63069 0.0
C347 C 0.32656 0.07403 0.68698 0.0
H348 H 0.20677 0.96364 0.73928 0.0
C349 C 0.32052 0.06063 0.62504 0.0
C350 C 0.27395 0.01182 0.60349 0.0
H351 H 0.36432 0.11034 0.70209 0.0
H352 H 0.35358 0.08776 0.5943 0.0
C353 C 0.23226 0.97812 0.64543 0.0
loop_
_geom_bond_atom_site_label_1
_geom_bond_atom_site_label_2
_geom_bond_distance
_geom_bond_site_symmetry_2
_ccdc_geom_bond_type
Co0 O3 1.970 . S
Co0 N17 1.989 1_556 S
Co0 O25 1.967 . S
Co0 O32 1.920 . S
Co1 O4 1.966 . S
Co1 N10 2.022 . S
Co1 N18 1.993 . S
Co1 O26 1.941 1_554 S
C2 O3 1.258 1_554 S
C2 O4 1.263 . S
O3 Co0 1.970 . S
O3 C2 1.258 1_556 S
O4 Co1 1.966 . S
O4 C2 1.263 . S
C5 O6 1.235 . S
C5 O32 1.289 . S
O6 C5 1.235 . S
C7 C9 1.400 . S
C7 N10 1.351 . S
C7 C12 1.501 . S
C8 C9 1.387 . S
C8 N11 1.341 . S
C9 C7 1.400 . S
C9 C8 1.387 . S
N10 Co1 2.022 . S
N10 C7 1.351 . S
N10 N11 1.365 . S
N11 C8 1.341 . S
N11 N10 1.365 . S
N11 H31 0.862 . S
C12 C7 1.501 . S
C12 H13 0.961 . S
C12 H14 0.961 . S
C12 H15 0.960 . S
H13 C12 0.961 . S
H14 C12 0.961 . S
H15 C12 0.960 . S
C16 N17 1.342 . S
C16 C20 1.401 . S
C16 C21 1.499 1_554 S
N17 Co0 1.989 1_554 S
N17 C16 1.342 . S
N17 N18 1.388 . S
N18 Co1 1.993 . S
N18 N17 1.388 . S
N18 C19 1.346 . S
C19 N18 1.346 . S
C19 C20 1.396 . S
C19 C29 1.510 . S
C20 C16 1.401 . S
C20 C19 1.396 . S
C21 C16 1.499 1_556 S
C21 H22 0.959 . S
C21 H23 0.960 1_556 S
C21 H24 0.961 . S
H22 C21 0.959 . S
H23 C21 0.960 1_554 S
H24 C21 0.961 . S
O25 Co0 1.967 . S
O25 C33 1.258 . S
O26 Co1 1.941 1_556 S
O26 C33 1.266 . S
H27 C29 0.959 . S
H28 C29 0.961 . S
C29 C19 1.510 . S
C29 H27 0.959 . S
C29 H28 0.961 . S
C29 H30 0.960 . S
H30 C29 0.960 . S
H31 N11 0.862 . S
O32 Co0 1.920 . S
O32 C5 1.289 . S
C33 O25 1.258 . S
C33 O26 1.266 . S
Co34 O37 1.970 . S
Co34 N51 1.989 . S
Co34 O59 1.967 . S
Co34 O66 1.920 . S
Co35 O38 1.966 . S
Co35 N44 2.022 . S
Co35 N52 1.993 . S
Co35 O60 1.941 . S
C36 O37 1.258 . S
C36 O38 1.263 . S
O37 Co34 1.970 . S
O37 C36 1.258 . S
O38 Co35 1.966 . S
O38 C36 1.263 . S
C39 O40 1.235 . S
C39 O66 1.289 . S
O40 C39 1.235 . S
C41 C43 1.400 . S
C41 N44 1.351 . S
C41 C46 1.501 . S
C42 C43 1.387 . S
C42 N45 1.341 . S
C43 C41 1.400 . S
C43 C42 1.387 . S
N44 Co35 2.022 . S
N44 C41 1.351 . S
N44 N45 1.365 . S
N45 C42 1.341 . S
N45 N44 1.365 . S
N45 H65 0.862 . S
C46 C41 1.501 . S
C46 H47 0.961 . S
C46 H48 0.961 . S
C46 H49 0.960 . S
H47 C46 0.961 . S
H48 C46 0.961 . S
H49 C46 0.960 . S
C50 N51 1.342 . S
C50 C54 1.401 . S
C50 C55 1.499 . S
N51 Co34 1.989 . S
N51 C50 1.342 . S
N51 N52 1.388 . S
N52 Co35 1.993 . S
N52 N51 1.388 . S
N52 C53 1.346 . S
C53 N52 1.346 . S
C53 C54 1.396 . S
C53 C63 1.510 . S
C54 C50 1.401 . S
C54 C53 1.396 . S
C55 C50 1.499 . S
C55 H56 0.959 . S
C55 H57 0.960 . S
C55 H58 0.961 . S
H56 C55 0.959 . S
H57 C55 0.960 . S
H58 C55 0.961 . S
O59 Co34 1.967 . S
O59 C67 1.258 . S
O60 Co35 1.941 . S
O60 C67 1.266 . S
H61 C63 0.959 . S
H62 C63 0.961 . S
C63 C53 1.510 . S
C63 H61 0.959 . S
C63 H62 0.961 . S
C63 H64 0.960 . S
H64 C63 0.960 . S
H65 N45 0.862 . S
O66 Co34 1.920 . S
O66 C39 1.289 . S
C67 O59 1.258 . S
C67 O60 1.266 . S
Co68 O71 1.970 . S
Co68 N85 1.989 . S
Co68 O93 1.967 . S
Co68 O100 1.920 . S
Co69 O72 1.966 . S
Co69 N78 2.022 . S
Co69 N86 1.993 . S
Co69 O94 1.941 . S
C70 O71 1.258 . S
C70 O72 1.263 . S
O71 Co68 1.970 . S
O71 C70 1.258 . S
O72 Co69 1.966 . S
O72 C70 1.263 . S
C73 O74 1.235 . S
C73 O100 1.289 . S
O74 C73 1.235 . S
C75 C77 1.400 . S
C75 N78 1.351 . S
C75 C80 1.501 . S
C76 C77 1.387 1_545 S
C76 N79 1.341 . S
C77 C75 1.400 . S
C77 C76 1.387 1_565 S
N78 Co69 2.022 . S
N78 C75 1.351 . S
N78 N79 1.365 1_565 S
N79 C76 1.341 . S
N79 N78 1.365 1_545 S
N79 H99 0.862 . S
C80 C75 1.501 . S
C80 H81 0.961 . S
C80 H82 0.961 . S
C80 H83 0.960 . S
H81 C80 0.961 . S
H82 C80 0.961 . S
H83 C80 0.960 . S
C84 N85 1.342 . S
C84 C88 1.401 . S
C84 C89 1.499 . S
N85 Co68 1.989 . S
N85 C84 1.342 . S
N85 N86 1.388 . S
N86 Co69 1.993 . S
N86 N85 1.388 . S
N86 C87 1.346 . S
C87 N86 1.346 . S
C87 C88 1.396 . S
C87 C97 1.510 . S
C88 C84 1.401 . S
C88 C87 1.396 . S
C89 C84 1.499 . S
C89 H90 0.959 . S
C89 H91 0.960 . S
C89 H92 0.961 . S
H90 C89 0.959 . S
H91 C89 0.960 . S
H92 C89 0.961 . S
O93 Co68 1.967 . S
O93 C101 1.258 . S
O94 Co69 1.941 . S
O94 C101 1.266 . S
H95 C97 0.959 . S
H96 C97 0.961 . S
C97 C87 1.510 . S
C97 H95 0.959 . S
C97 H96 0.961 . S
C97 H98 0.960 . S
H98 C97 0.960 . S
H99 N79 0.862 . S
O100 Co68 1.920 . S
O100 C73 1.289 . S
C101 O93 1.258 . S
C101 O94 1.266 . S
Co102 O105 1.970 . S
Co102 N119 1.989 1_554 S
Co102 O127 1.967 . S
Co102 O134 1.920 . S
Co103 O106 1.966 . S
Co103 N112 2.022 . S
Co103 N120 1.993 . S
Co103 O128 1.941 1_556 S
C104 O105 1.258 1_556 S
C104 O106 1.263 . S
O105 Co102 1.970 . S
O105 C104 1.258 1_554 S
O106 Co103 1.966 . S
O106 C104 1.263 . S
C107 O108 1.235 . S
C107 O134 1.289 . S
O108 C107 1.235 . S
C109 C111 1.400 . S
C109 N112 1.351 . S
C109 C114 1.501 . S
C110 C111 1.387 . S
C110 N113 1.341 . S
C111 C109 1.400 . S
C111 C110 1.387 . S
N112 Co103 2.022 . S
N112 C109 1.351 . S
N112 N113 1.365 . S
N113 C110 1.341 . S
N113 N112 1.365 . S
N113 H133 0.862 . S
C114 C109 1.501 . S
C114 H115 0.961 . S
C114 H116 0.961 . S
C114 H117 0.960 . S
H115 C114 0.961 . S
H116 C114 0.961 . S
H117 C114 0.960 . S
C118 N119 1.342 . S
C118 C122 1.401 . S
C118 C123 1.499 1_556 S
N119 Co102 1.989 1_556 S
N119 C118 1.342 . S
N119 N120 1.388 . S
N120 Co103 1.993 . S
N120 N119 1.388 . S
N120 C121 1.346 . S
C121 N120 1.346 . S
C121 C122 1.396 . S
C121 C131 1.510 . S
C122 C118 1.401 . S
C122 C121 1.396 . S
C123 C118 1.499 1_554 S
C123 H124 0.959 . S
C123 H125 0.960 1_554 S
C123 H126 0.961 . S
H124 C123 0.959 . S
H125 C123 0.960 1_556 S
H126 C123 0.961 . S
O127 Co102 1.967 . S
O127 C135 1.258 . S
O128 Co103 1.941 1_554 S
O128 C135 1.266 . S
H129 C131 0.959 . S
H130 C131 0.961 . S
C131 C121 1.510 . S
C131 H129 0.959 . S
C131 H130 0.961 . S
C131 H132 0.960 . S
H132 C131 0.960 . S
H133 N113 0.862 . S
O134 Co102 1.920 . S
O134 C107 1.289 . S
C135 O127 1.258 . S
C135 O128 1.266 . S
Co136 O139 1.970 . S
Co136 N153 1.989 . S
Co136 O161 1.967 . S
Co136 O168 1.920 . S
Co137 O140 1.966 . S
Co137 N146 2.022 . S
Co137 N154 1.993 . S
Co137 O162 1.941 . S
C138 O139 1.258 . S
C138 O140 1.263 . S
O139 Co136 1.970 . S
O139 C138 1.258 . S
O140 Co137 1.966 . S
O140 C138 1.263 . S
C141 O142 1.235 . S
C141 O168 1.289 . S
O142 C141 1.235 . S
C143 C145 1.400 . S
C143 N146 1.351 . S
C143 C148 1.501 . S
C144 C145 1.387 1_455 S
C144 N147 1.341 . S
C145 C143 1.400 . S
C145 C144 1.387 1_655 S
N146 Co137 2.022 . S
N146 C143 1.351 . S
N146 N147 1.365 1_655 S
N147 C144 1.341 . S
N147 N146 1.365 1_455 S
N147 H167 0.862 . S
C148 C143 1.501 . S
C148 H149 0.961 . S
C148 H150 0.961 . S
C148 H151 0.960 . S
H149 C148 0.961 . S
H150 C148 0.961 . S
H151 C148 0.960 . S
C152 N153 1.342 . S
C152 C156 1.401 . S
C152 C157 1.499 . S
N153 Co136 1.989 . S
N153 C152 1.342 . S
N153 N154 1.388 . S
N154 Co137 1.993 . S
N154 N153 1.388 . S
N154 C155 1.346 . S
C155 N154 1.346 . S
C155 C156 1.396 . S
C155 C165 1.510 . S
C156 C152 1.401 . S
C156 C155 1.396 . S
C157 C152 1.499 . S
C157 H158 0.959 . S
C157 H159 0.960 . S
C157 H160 0.961 . S
H158 C157 0.959 . S
H159 C157 0.960 . S
H160 C157 0.961 . S
O161 Co136 1.967 . S
O161 C169 1.258 . S
O162 Co137 1.941 . S
O162 C169 1.266 . S
H163 C165 0.959 . S
H164 C165 0.961 . S
C165 C155 1.510 . S
C165 H163 0.959 . S
C165 H164 0.961 . S
C165 H166 0.960 . S
H166 C165 0.960 . S
H167 N147 0.862 . S
O168 Co136 1.920 . S
O168 C141 1.289 . S
C169 O161 1.258 . S
C169 O162 1.266 . S
Co170 O173 1.970 . S
Co170 N187 1.989 . S
Co170 O195 1.967 . S
Co170 O202 1.920 . S
Co171 O174 1.966 . S
Co171 N180 2.022 . S
Co171 N188 1.993 . S
Co171 O196 1.941 . S
C172 O173 1.258 . S
C172 O174 1.263 . S
O173 Co170 1.970 . S
O173 C172 1.258 . S
O174 Co171 1.966 . S
O174 C172 1.263 . S
C175 O176 1.235 . S
C175 O202 1.289 . S
O176 C175 1.235 . S
C177 C179 1.400 . S
C177 N180 1.351 . S
C177 C182 1.501 . S
C178 C179 1.387 . S
C178 N181 1.341 . S
C179 C177 1.400 . S
C179 C178 1.387 . S
N180 Co171 2.022 . S
N180 C177 1.351 . S
N180 N181 1.365 . S
N181 C178 1.341 . S
N181 N180 1.365 . S
N181 H201 0.862 . S
C182 C177 1.501 . S
C182 H183 0.961 . S
C182 H184 0.961 . S
C182 H185 0.960 . S
H183 C182 0.961 . S
H184 C182 0.961 . S
H185 C182 0.960 . S
C186 N187 1.342 . S
C186 C190 1.401 . S
C186 C191 1.499 . S
N187 Co170 1.989 . S
N187 C186 1.342 . S
N187 N188 1.388 . S
N188 Co171 1.993 . S
N188 N187 1.388 . S
N188 C189 1.346 . S
C189 N188 1.346 . S
C189 C190 1.396 . S
C189 C199 1.510 . S
C190 C186 1.401 . S
C190 C189 1.396 . S
C191 C186 1.499 . S
C191 H192 0.959 . S
C191 H193 0.960 . S
C191 H194 0.961 . S
H192 C191 0.959 . S
H193 C191 0.960 . S
H194 C191 0.961 . S
O195 Co170 1.967 . S
O195 C203 1.258 . S
O196 Co171 1.941 . S
O196 C203 1.266 . S
H197 C199 0.959 . S
H198 C199 0.961 . S
C199 C189 1.510 . S
C199 H197 0.959 . S
C199 H198 0.961 . S
C199 H200 0.960 . S
H200 C199 0.960 . S
H201 N181 0.862 . S
O202 Co170 1.920 . S
O202 C175 1.289 . S
C203 O195 1.258 . S
C203 O196 1.266 . S
C204 C205 1.387 . S
C204 H208 0.950 . S
C204 C213 1.390 . S
C205 C204 1.387 . S
C205 C207 1.387 . S
H206 C213 0.950 . S
C207 C205 1.387 . S
C207 C209 1.390 . S
C207 H211 0.950 . S
H208 C204 0.950 . S
C209 C207 1.390 . S
C209 C210 1.387 . S
C209 H212 0.950 . S
C210 C209 1.387 . S
C210 C213 1.387 . S
H211 C207 0.950 . S
H212 C209 0.950 . S
C213 C204 1.390 . S
C213 H206 0.950 . S
C213 C210 1.387 . S
C214 C215 1.387 . S
C214 H218 0.950 . S
C214 C223 1.390 . S
C215 C214 1.387 . S
C215 C217 1.387 . S
H216 C223 0.950 . S
C217 C215 1.387 . S
C217 C219 1.390 . S
C217 H221 0.950 . S
H218 C214 0.950 . S
C219 C217 1.390 . S
C219 C220 1.387 . S
C219 H222 0.950 . S
C220 C219 1.387 . S
C220 C223 1.387 . S
H221 C217 0.950 . S
H222 C219 0.950 . S
C223 C214 1.390 . S
C223 H216 0.950 . S
C223 C220 1.387 . S
C224 C225 1.387 . S
C224 H228 0.950 . S
C224 C233 1.390 . S
C225 C224 1.387 . S
C225 C227 1.387 . S
H226 C233 0.950 . S
C227 C225 1.387 . S
C227 C229 1.390 . S
C227 H231 0.950 . S
H228 C224 0.950 . S
C229 C227 1.390 . S
C229 C230 1.387 . S
C229 H232 0.950 . S
C230 C229 1.387 . S
C230 C233 1.387 . S
H231 C227 0.950 . S
H232 C229 0.950 . S
C233 C224 1.390 . S
C233 H226 0.950 . S
C233 C230 1.387 . S
C234 C235 1.387 . S
C234 H238 0.950 . S
C234 C243 1.390 . S
C235 C234 1.387 . S
C235 C237 1.387 . S
H236 C243 0.950 . S
C237 C235 1.387 . S
C237 C239 1.390 . S
C237 H241 0.950 . S
H238 C234 0.950 . S
C239 C237 1.390 . S
C239 C240 1.387 . S
C239 H242 0.950 . S
C240 C239 1.387 . S
C240 C243 1.387 . S
H241 C237 0.950 . S
H242 C239 0.950 . S
C243 C234 1.390 . S
C243 H236 0.950 . S
C243 C240 1.387 . S
C244 C245 1.387 . S
C244 H248 0.950 . S
C244 C253 1.390 . S
C245 C244 1.387 . S
C245 C247 1.387 . S
H246 C253 0.950 . S
C247 C245 1.387 . S
C247 C249 1.390 . S
C247 H251 0.950 . S
H248 C244 0.950 . S
C249 C247 1.390 . S
C249 C250 1.387 . S
C249 H252 0.950 . S
C250 C249 1.387 . S
C250 C253 1.387 . S
H251 C247 0.950 . S
H252 C249 0.950 . S
C253 C244 1.390 . S
C253 H246 0.950 . S
C253 C250 1.387 . S
C254 C255 1.387 . S
C254 H258 0.950 . S
C254 C263 1.390 . S
C255 C254 1.387 . S
C255 C257 1.387 . S
H256 C263 0.950 . S
C257 C255 1.387 . S
C257 C259 1.390 . S
C257 H261 0.950 . S
H258 C254 0.950 . S
C259 C257 1.390 . S
C259 C260 1.387 . S
C259 H262 0.950 . S
C260 C259 1.387 . S
C260 C263 1.387 . S
H261 C257 0.950 . S
H262 C259 0.950 . S
C263 C254 1.390 . S
C263 H256 0.950 . S
C263 C260 1.387 . S
C264 C265 1.387 1_455 S
C264 H268 0.950 . S
C264 C273 1.390 . S
C265 C264 1.387 1_655 S
C265 C267 1.387 . S
H266 C273 0.950 . S
C267 C265 1.387 . S
C267 C269 1.390 1_655 S
C267 H271 0.950 . S
H268 C264 0.950 . S
C269 C267 1.390 1_455 S
C269 C270 1.387 . S
C269 H272 0.950 . S
C270 C269 1.387 . S
C270 C273 1.387 . S
H271 C267 0.950 . S
H272 C269 0.950 . S
C273 C264 1.390 . S
C273 H266 0.950 . S
C273 C270 1.387 . S
C274 C275 1.387 . S
C274 H278 0.950 . S
C274 C283 1.390 . S
C275 C274 1.387 . S
C275 C277 1.387 . S
H276 C283 0.950 . S
C277 C275 1.387 . S
C277 C279 1.390 . S
C277 H281 0.950 . S
H278 C274 0.950 . S
C279 C277 1.390 . S
C279 C280 1.387 . S
C279 H282 0.950 . S
C280 C279 1.387 . S
C280 C283 1.387 . S
H281 C277 0.950 . S
H282 C279 0.950 . S
C283 C274 1.390 . S
C283 H276 0.950 . S
C283 C280 1.387 . S
C284 C285 1.387 . S
C284 H288 0.950 . S
C284 C293 1.390 1_545 S
C285 C284 1.387 . S
C285 C287 1.387 . S
H286 C293 0.950 . S
C287 C285 1.387 . S
C287 C289 1.390 1_545 S
C287 H291 0.950 . S
H288 C284 0.950 . S
C289 C287 1.390 1_565 S
C289 C290 1.387 . S
C289 H292 0.950 . S
C290 C289 1.387 . S
C290 C293 1.387 . S
H291 C287 0.950 . S
H292 C289 0.950 . S
C293 C284 1.390 1_565 S
C293 H286 0.950 . S
C293 C290 1.387 . S
C294 C295 1.387 1_554 S
C294 H298 0.950 . S
C294 C303 1.390 . S
C295 C294 1.387 1_556 S
C295 C297 1.387 . S
H296 C303 0.950 . S
C297 C295 1.387 . S
C297 C299 1.390 . S
C297 H301 0.950 . S
H298 C294 0.950 . S
C299 C297 1.390 . S
C299 C300 1.387 1_556 S
C299 H302 0.950 . S
C300 C299 1.387 1_554 S
C300 C303 1.387 . S
H301 C297 0.950 . S
H302 C299 0.950 . S
C303 C294 1.390 . S
C303 H296 0.950 . S
C303 C300 1.387 . S
C304 C305 1.387 . S
C304 H308 0.950 . S
C304 C313 1.390 1_545 S
C305 C304 1.387 . S
C305 C307 1.387 . S
H306 C313 0.950 . S
C307 C305 1.387 . S
C307 C309 1.390 1_545 S
C307 H311 0.950 . S
H308 C304 0.950 . S
C309 C307 1.390 1_565 S
C309 C310 1.387 . S
C309 H312 0.950 . S
C310 C309 1.387 . S
C310 C313 1.387 . S
H311 C307 0.950 . S
H312 C309 0.950 . S
C313 C304 1.390 1_565 S
C313 H306 0.950 . S
C313 C310 1.387 . S
C314 C315 1.387 . S
C314 H318 0.950 . S
C314 C323 1.390 1_455 S
C315 C314 1.387 . S
C315 C317 1.387 . S
H316 C323 0.950 . S
C317 C315 1.387 . S
C317 C319 1.390 1_455 S
C317 H321 0.950 . S
H318 C314 0.950 . S
C319 C317 1.390 1_655 S
C319 C320 1.387 . S
C319 H322 0.950 . S
C320 C319 1.387 . S
C320 C323 1.387 . S
H321 C317 0.950 . S
H322 C319 0.950 . S
C323 C314 1.390 1_655 S
C323 H316 0.950 . S
C323 C320 1.387 . S
C324 C325 1.400 . S
C324 H328 0.950 1_455 S
C324 C333 1.390 . S
C325 C324 1.400 . S
C325 C327 1.382 . S
H326 C333 0.950 . S
C327 C325 1.382 . S
C327 C329 1.390 . S
C327 H331 0.950 . S
H328 C324 0.950 1_655 S
C329 C327 1.390 . S
C329 C330 1.387 . S
C329 H332 0.950 . S
C330 C329 1.387 . S
C330 C333 1.387 . S
H331 C327 0.950 . S
H332 C329 0.950 . S
C333 C324 1.390 . S
C333 H326 0.950 . S
C333 C330 1.387 . S
C334 C335 1.387 . S
C334 H338 0.950 . S
C334 C343 1.390 1_556 S
C335 C334 1.387 . S
C335 C337 1.387 . S
H336 C343 0.950 . S
C337 C335 1.387 . S
C337 C339 1.390 1_556 S
C337 H341 0.950 . S
H338 C334 0.950 . S
C339 C337 1.390 1_554 S
C339 C340 1.387 . S
C339 H342 0.950 . S
C340 C339 1.387 . S
C340 C343 1.387 . S
H341 C337 0.950 . S
H342 C339 0.950 . S
C343 C334 1.390 1_554 S
C343 H336 0.950 . S
C343 C340 1.387 . S
C344 C345 1.387 . S
C344 H348 0.950 . S
C344 C353 1.390 . S
C345 C344 1.387 . S
C345 C347 1.387 . S
H346 C353 0.950 . S
C347 C345 1.387 . S
C347 C349 1.390 . S
C347 H351 0.950 . S
H348 C344 0.950 . S
C349 C347 1.390 . S
C349 C350 1.380 . S
C349 H352 0.950 . S
C350 C349 1.380 . S
C350 C353 1.401 . S
H351 C347 0.950 . S
H352 C349 0.950 . S
C353 C344 1.390 . S
C353 H346 0.950 . S
C353 C350 1.401 . S
C205 C73 1.570 . S
C210 C20 1.603 . S
C215 C54 1.603 . S
C220 C5 1.571 . S
C225 C88 1.603 . S
C230 C39 1.572 . S
C235 C122 1.603 . S
C240 C141 1.570 . S
C245 C175 1.571 . S
C250 C156 1.603 . S
C255 C107 1.570 . S
C260 C190 1.603 . S
C265 C169 1.301 . S
C270 C33 1.301 . S
C275 C203 1.301 . S
C280 C67 1.301 . S
C285 C135 1.302 . S
C290 C101 1.302 . S
C295 C104 1.623 . S
C300 C2 1.621 . S
C305 C138 1.622 . S
C310 C36 1.622 . S
C315 C70 1.621 . S
C320 C172 1.622 . S
C325 C145 1.475 1_455 S
C330 C9 1.481 . S
C335 C43 1.480 . S
C340 C179 1.481 . S
C345 C111 1.481 . S
C350 C77 1.475 1_545 S
