# Generated by pormake.
# Topology fnl, (5)-cn, num edge types: 1
# Building blocks:
#     Node 0, Type 0, BuildingBlock: XOMCOT_clean_sbu_0, # of connection points: 5
#     Node 1, Type 0, BuildingBlock: XOMCOT_clean_sbu_0, # of connection points: 5
#     Node 2, Type 0, BuildingBlock: XOMCOT_clean_sbu_0, # of connection points: 5
#     Node 3, Type 0, BuildingBlock: XOMCOT_clean_sbu_0, # of connection points: 5
#     Node 4, Type 0, BuildingBlock: XOMCOT_clean_sbu_0, # of connection points: 5
#     Node 5, Type 0, BuildingBlock: XOMCOT_clean_sbu_0, # of connection points: 5
#     Node 6, Type 0, BuildingBlock: XOMCOT_clean_sbu_0, # of connection points: 5
#     Node 7, Type 0, BuildingBlock: XOMCOT_clean_sbu_0, # of connection points: 5
#     Node 8, Type 0, BuildingBlock: XOMCOT_clean_sbu_0, # of connection points: 5
#     Node 9, Type 0, BuildingBlock: XOMCOT_clean_sbu_0, # of connection points: 5
#     Node 10, Type 0, BuildingBlock: XOMCOT_clean_sbu_0, # of connection points: 5
#     Node 11, Type 0, BuildingBlock: XOMCOT_clean_sbu_0, # of connection points: 5
#     Node 12, Type 0, BuildingBlock: XOMCOT_clean_sbu_0, # of connection points: 5
#     Node 13, Type 0, BuildingBlock: XOMCOT_clean_sbu_0, # of connection points: 5
#     Node 14, Type 0, BuildingBlock: XOMCOT_clean_sbu_0, # of connection points: 5
#     Node 15, Type 0, BuildingBlock: XOMCOT_clean_sbu_0, # of connection points: 5
#     Edge 16, Type (0, 0), BuildingBlock: EZIPEK_clean_linker_0, # of connection points: 2
#     Edge 17, Type (0, 0), BuildingBlock: EZIPEK_clean_linker_0, # of connection points: 2
#     Edge 18, Type (0, 0), BuildingBlock: EZIPEK_clean_linker_0, # of connection points: 2
#     Edge 19, Type (0, 0), BuildingBlock: EZIPEK_clean_linker_0, # of connection points: 2
#     Edge 20, Type (0, 0), BuildingBlock: EZIPEK_clean_linker_0, # of connection points: 2
#     Edge 21, Type (0, 0), BuildingBlock: EZIPEK_clean_linker_0, # of connection points: 2
#     Edge 22, Type (0, 0), BuildingBlock: EZIPEK_clean_linker_0, # of connection points: 2
#     Edge 23, Type (0, 0), BuildingBlock: EZIPEK_clean_linker_0, # of connection points: 2
#     Edge 24, Type (0, 0), BuildingBlock: EZIPEK_clean_linker_0, # of connection points: 2
#     Edge 25, Type (0, 0), BuildingBlock: EZIPEK_clean_linker_0, # of connection points: 2
#     Edge 26, Type (0, 0), BuildingBlock: EZIPEK_clean_linker_0, # of connection points: 2
#     Edge 27, Type (0, 0), BuildingBlock: EZIPEK_clean_linker_0, # of connection points: 2
#     Edge 28, Type (0, 0), BuildingBlock: EZIPEK_clean_linker_0, # of connection points: 2
#     Edge 29, Type (0, 0), BuildingBlock: EZIPEK_clean_linker_0, # of connection points: 2
#     Edge 30, Type (0, 0), BuildingBlock: EZIPEK_clean_linker_0, # of connection points: 2
#     Edge 31, Type (0, 0), BuildingBlock: EZIPEK_clean_linker_0, # of connection points: 2
#     Edge 32, Type (0, 0), BuildingBlock: EZIPEK_clean_linker_0, # of connection points: 2
#     Edge 33, Type (0, 0), BuildingBlock: EZIPEK_clean_linker_0, # of connection points: 2
#     Edge 34, Type (0, 0), BuildingBlock: EZIPEK_clean_linker_0, # of connection points: 2
#     Edge 35, Type (0, 0), BuildingBlock: EZIPEK_clean_linker_0, # of connection points: 2
#     Edge 36, Type (0, 0), BuildingBlock: EZIPEK_clean_linker_0, # of connection points: 2
#     Edge 37, Type (0, 0), BuildingBlock: EZIPEK_clean_linker_0, # of connection points: 2
#     Edge 38, Type (0, 0), BuildingBlock: EZIPEK_clean_linker_0, # of connection points: 2
#     Edge 39, Type (0, 0), BuildingBlock: EZIPEK_clean_linker_0, # of connection points: 2
#     Edge 40, Type (0, 0), BuildingBlock: EZIPEK_clean_linker_0, # of connection points: 2
#     Edge 41, Type (0, 0), BuildingBlock: EZIPEK_clean_linker_0, # of connection points: 2
#     Edge 42, Type (0, 0), BuildingBlock: EZIPEK_clean_linker_0, # of connection points: 2
#     Edge 43, Type (0, 0), BuildingBlock: EZIPEK_clean_linker_0, # of connection points: 2
#     Edge 44, Type (0, 0), BuildingBlock: EZIPEK_clean_linker_0, # of connection points: 2
#     Edge 45, Type (0, 0), BuildingBlock: EZIPEK_clean_linker_0, # of connection points: 2
#     Edge 46, Type (0, 0), BuildingBlock: EZIPEK_clean_linker_0, # of connection points: 2
#     Edge 47, Type (0, 0), BuildingBlock: EZIPEK_clean_linker_0, # of connection points: 2
#     Edge 48, Type (0, 0), BuildingBlock: EZIPEK_clean_linker_0, # of connection points: 2
#     Edge 49, Type (0, 0), BuildingBlock: EZIPEK_clean_linker_0, # of connection points: 2
#     Edge 50, Type (0, 0), BuildingBlock: EZIPEK_clean_linker_0, # of connection points: 2
#     Edge 51, Type (0, 0), BuildingBlock: EZIPEK_clean_linker_0, # of connection points: 2
#     Edge 52, Type (0, 0), BuildingBlock: EZIPEK_clean_linker_0, # of connection points: 2
#     Edge 53, Type (0, 0), BuildingBlock: EZIPEK_clean_linker_0, # of connection points: 2
#     Edge 54, Type (0, 0), BuildingBlock: EZIPEK_clean_linker_0, # of connection points: 2
#     Edge 55, Type (0, 0), BuildingBlock: EZIPEK_clean_linker_0, # of connection points: 2
# Relax obj value: 0.549
# Max RMSD: 0.272
# Mean RMSD: 0.272
data_MOF--net-fnl--node1-XOMCOT_clean_sbu_0--edge1-EZIPEK_clean_linker_0
_symmetry_space_group_name_H-M    P1
_symmetry_Int_Tables_number       1
_symmetry_cell_setting            triclinic
loop_
_symmetry_equiv_pos_as_xyz
'x, y, z'
_cell_length_a     26.592157
_cell_length_b     26.583619
_cell_length_c     71.104327
_cell_angle_alpha  90.006785
_cell_angle_beta   90.000409
_cell_angle_gamma 89.983241
loop_
_atom_site_label
_atom_site_type_symbol
_atom_site_fract_x
_atom_site_fract_y
_atom_site_fract_z
_atom_type_partial_charge
Co0 Co 0.03066 0.06327 0.0754 0.0
C1 C 0.03589 0.17185 0.07326 0.0
C2 C 0.10405 0.14385 0.08556 0.0
C3 C 0.10469 0.19602 0.08617 0.0
N4 N 0.06063 0.12908 0.07748 0.0
N5 N 0.06148 0.21301 0.0785 0.0
H6 H 0.99868 0.17309 0.06717 0.0
H7 H 0.13214 0.11878 0.09132 0.0
C8 C 0.07086 0.99872 0.10773 0.0
O9 O 0.02641 0.97801 0.10978 0.0
N10 N 0.99685 0.99929 0.07259 0.0
C11 C 0.94743 0.99341 0.06852 0.0
C12 C 0.93761 0.94368 0.06523 0.0
C13 C 0.01677 0.95294 0.07098 0.0
N14 N 0.98118 0.91877 0.06677 0.0
C15 C 0.93455 0.10497 0.08448 0.0
C16 C 0.93632 0.08346 0.12224 0.0
C17 C 0.88933 0.09433 0.11381 0.0
C18 C 0.8903 0.10887 0.09481 0.0
C19 C 0.97995 0.08115 0.11133 0.0
N20 N 0.97734 0.08594 0.09232 0.0
H21 H 0.93264 0.11299 0.06964 0.0
H22 H 0.01506 0.07346 0.11815 0.0
H23 H 0.92017 0.02303 0.06707 0.0
H24 H 0.05617 0.94423 0.07273 0.0
O25 O 0.00087 0.08209 0.05163 0.0
O26 O 0.07524 0.04623 0.05469 0.0
O27 O 0.0767 0.03597 0.09637 0.0
C28 C 0.0402 0.06277 0.04355 0.0
H29 H 0.13335 0.21949 0.09248 0.0
H30 H 0.90161 0.92699 0.06183 0.0
H31 H 0.9397 0.07312 0.13688 0.0
H32 H 0.85736 0.12012 0.08718 0.0
Co33 Co 0.24806 0.82162 0.32614 0.0
C34 C 0.1386 0.81521 0.32441 0.0
C35 C 0.16151 0.89078 0.33084 0.0
C36 C 0.10956 0.88823 0.33157 0.0
N37 N 0.17939 0.84483 0.32644 0.0
N38 N 0.09569 0.84063 0.32758 0.0
H39 H 0.14019 0.77537 0.32138 0.0
H40 H 0.18451 0.92329 0.33394 0.0
C41 C 0.3038 0.87095 0.35785 0.0
O42 O 0.32445 0.82758 0.36209 0.0
N43 N 0.31694 0.79668 0.32574 0.0
C44 C 0.33555 0.75303 0.33276 0.0
C45 C 0.38674 0.75241 0.33059 0.0
C46 C 0.35754 0.82156 0.31916 0.0
N47 N 0.40009 0.79535 0.32208 0.0
C48 C 0.22105 0.72214 0.33741 0.0
C49 C 0.21868 0.73973 0.37556 0.0
C50 C 0.21862 0.6891 0.36935 0.0
C51 C 0.21713 0.68156 0.3497 0.0
C52 C 0.22239 0.77923 0.36268 0.0
N53 N 0.2286 0.76966 0.34403 0.0
H54 H 0.22336 0.71439 0.32255 0.0
H55 H 0.22257 0.81727 0.36791 0.0
H56 H 0.3149 0.72405 0.33988 0.0
H57 H 0.35642 0.85841 0.31276 0.0
O58 O 0.23535 0.78623 0.30268 0.0
O59 O 0.2627 0.86471 0.305 0.0
O60 O 0.26736 0.87307 0.34609 0.0
C61 C 0.25057 0.82704 0.29434 0.0
H62 H 0.08407 0.91835 0.33534 0.0
H63 H 0.41242 0.72332 0.33522 0.0
H64 H 0.21934 0.75009 0.39018 0.0
H65 H 0.21761 0.64478 0.34335 0.0
Co66 Co 0.47743 0.06466 0.56383 0.0
C67 C 0.48547 0.95563 0.56986 0.0
C68 C 0.41669 0.98194 0.58188 0.0
C69 C 0.42017 0.93059 0.58483 0.0
N70 N 0.45848 0.99798 0.57288 0.0
N71 N 0.46372 0.91466 0.57728 0.0
H72 H 0.51946 0.9536 0.56168 0.0
H73 H 0.38548 0.00518 0.58593 0.0
C74 C 0.42116 0.09439 0.60006 0.0
O75 O 0.44548 0.06019 0.60981 0.0
N76 N 0.49955 0.12911 0.5542 0.0
C77 C 0.54226 0.13525 0.54414 0.0
C78 C 0.55308 0.18549 0.54282 0.0
C79 C 0.48493 0.17607 0.55893 0.0
N80 N 0.51722 0.21082 0.55215 0.0
C81 C 0.57568 0.0358 0.57747 0.0
C82 C 0.58418 0.11466 0.60244 0.0
C83 C 0.62528 0.08273 0.59974 0.0
C84 C 0.62061 0.04214 0.58741 0.0
C85 C 0.5399 0.10622 0.5926 0.0
N86 N 0.53526 0.0666 0.58058 0.0
H87 H 0.57524 0.00845 0.56639 0.0
H88 H 0.51079 0.13408 0.59352 0.0
H89 H 0.56616 0.10516 0.53918 0.0
H90 H 0.4536 0.1847 0.56809 0.0
O91 O 0.50794 0.03336 0.54209 0.0
O92 O 0.4295 0.05949 0.54365 0.0
O93 O 0.4304 0.10026 0.58249 0.0
C94 C 0.46506 0.03962 0.53357 0.0
H95 H 0.39294 0.90684 0.59184 0.0
H96 H 0.586 0.20215 0.53639 0.0
H97 H 0.58696 0.14718 0.61159 0.0
H98 H 0.65216 0.01736 0.58475 0.0
Co99 Co 0.24712 0.25125 0.81959 0.0
C100 C 0.3573 0.25517 0.82338 0.0
C101 C 0.33052 0.18269 0.83177 0.0
C102 C 0.3824 0.18362 0.83365 0.0
N103 N 0.31468 0.2283 0.82582 0.0
N104 N 0.39863 0.22956 0.82845 0.0
H105 H 0.3592 0.29196 0.81715 0.0
H106 H 0.30646 0.15063 0.83427 0.0
C107 C 0.22504 0.18603 0.85402 0.0
O108 O 0.25892 0.21143 0.86354 0.0
N109 N 0.18181 0.27687 0.81289 0.0
C110 C 0.17387 0.32437 0.80682 0.0
C111 C 0.12324 0.33238 0.8052 0.0
C112 C 0.13589 0.25633 0.81486 0.0
N113 N 0.09977 0.28972 0.81023 0.0
C114 C 0.27971 0.34508 0.83561 0.0
C115 C 0.20228 0.35113 0.86129 0.0
C116 C 0.23228 0.39343 0.85804 0.0
C117 C 0.27297 0.38949 0.84576 0.0
C118 C 0.21145 0.30696 0.8514 0.0
N119 N 0.24952 0.30413 0.83852 0.0
H120 H 0.30563 0.34624 0.82409 0.0
H121 H 0.1844 0.27702 0.85277 0.0
H122 H 0.20296 0.35207 0.80447 0.0
H123 H 0.1288 0.21885 0.82014 0.0
O124 O 0.27341 0.28779 0.79829 0.0
O125 O 0.24691 0.20877 0.79757 0.0
O126 O 0.21492 0.20025 0.83726 0.0
C127 C 0.26271 0.24797 0.78839 0.0
H128 H 0.4063 0.15307 0.83827 0.0
H129 H 0.10482 0.3671 0.8012 0.0
H130 H 0.17002 0.35316 0.87058 0.0
H131 H 0.29641 0.42186 0.84279 0.0
Co132 Co 0.01668 0.0512 0.93085 0.0
C133 C 0.01792 0.94131 0.92314 0.0
C134 C 0.09161 0.96849 0.92966 0.0
C135 C 0.09379 0.91668 0.92771 0.0
N136 N 0.04377 0.98393 0.92684 0.0
N137 N 0.0472 0.90027 0.9236 0.0
H138 H 0.97824 0.93867 0.9208 0.0
H139 H 0.12233 0.99285 0.93368 0.0
C140 C 0.08285 0.062 0.89629 0.0
O141 O 0.06914 0.01701 0.89065 0.0
N142 N 0.98862 0.11702 0.93493 0.0
C143 C 0.93923 0.12788 0.93689 0.0
C144 C 0.93373 0.17891 0.93865 0.0
C145 C 0.01263 0.16149 0.93547 0.0
N146 N 0.97975 0.19955 0.93773 0.0
C147 C 0.92143 0.01251 0.91884 0.0
C148 C 0.91277 0.07457 0.88798 0.0
C149 C 0.87061 0.04773 0.89417 0.0
C150 C 0.87597 0.01408 0.90909 0.0
C151 C 0.95819 0.0701 0.89756 0.0
N152 N 0.96223 0.03984 0.91301 0.0
H153 H 0.92254 0.99188 0.93191 0.0
H154 H 0.98793 0.09556 0.89375 0.0
H155 H 0.90916 0.10063 0.93729 0.0
H156 H 0.05288 0.16605 0.93394 0.0
O157 O 0.9841 0.02853 0.95387 0.0
O158 O 0.06086 0.06053 0.95221 0.0
O159 O 0.06383 0.08097 0.91122 0.0
C160 C 0.02459 0.04315 0.96257 0.0
H161 H 0.12627 0.89286 0.9299 0.0
H162 H 0.89886 0.19947 0.94033 0.0
H163 H 0.90975 0.10136 0.87655 0.0
H164 H 0.84406 0.99276 0.91419 0.0
Co165 Co 0.27064 0.83207 0.1821 0.0
C166 C 0.37882 0.82736 0.17905 0.0
C167 C 0.35337 0.89996 0.16977 0.0
C168 C 0.40493 0.89689 0.16713 0.0
N169 N 0.33747 0.85616 0.17723 0.0
N170 N 0.42027 0.85111 0.17298 0.0
H171 H 0.37841 0.78902 0.18418 0.0
H172 H 0.32925 0.93117 0.16605 0.0
C173 C 0.20607 0.87131 0.14979 0.0
O174 O 0.18718 0.82605 0.14778 0.0
N175 N 0.20456 0.80431 0.18778 0.0
C176 C 0.19609 0.75966 0.19645 0.0
C177 C 0.14564 0.75314 0.19916 0.0
C178 C 0.15867 0.8255 0.18635 0.0
N179 N 0.12259 0.79448 0.19277 0.0
C180 C 0.28716 0.72945 0.17144 0.0
C181 C 0.27962 0.74502 0.13328 0.0
C182 C 0.26869 0.69719 0.14066 0.0
C183 C 0.27762 0.68857 0.15976 0.0
C184 C 0.28751 0.78501 0.14571 0.0
N185 N 0.28363 0.77725 0.16461 0.0
H186 H 0.2931 0.72276 0.1862 0.0
H187 H 0.29224 0.82252 0.14019 0.0
H188 H 0.22431 0.73393 0.20144 0.0
H189 H 0.15133 0.86269 0.18097 0.0
O190 O 0.29379 0.80124 0.20516 0.0
O191 O 0.26321 0.87832 0.2029 0.0
O192 O 0.24165 0.87885 0.1617 0.0
C193 C 0.27864 0.84191 0.21365 0.0
H194 H 0.42903 0.92535 0.16103 0.0
H195 H 0.12716 0.72102 0.20546 0.0
H196 H 0.27571 0.75255 0.11838 0.0
H197 H 0.27219 0.6517 0.16591 0.0
Co198 Co 0.48791 0.06852 0.42205 0.0
C199 C 0.49286 0.17794 0.42333 0.0
C200 C 0.41842 0.15408 0.41569 0.0
C201 C 0.42048 0.20607 0.4149 0.0
N202 N 0.464 0.1368 0.42089 0.0
N203 N 0.46739 0.22048 0.41966 0.0
H204 H 0.53223 0.17686 0.42713 0.0
H205 H 0.38654 0.13066 0.41217 0.0
C206 C 0.44127 0.00972 0.39057 0.0
O207 O 0.48492 0.98825 0.38739 0.0
N208 N 0.51341 0.0002 0.42356 0.0
C209 C 0.56125 0.98346 0.42163 0.0
C210 C 0.5622 0.93239 0.4243 0.0
C211 C 0.4862 0.95888 0.42774 0.0
N212 N 0.51511 0.91744 0.42804 0.0
C213 C 0.58758 0.09732 0.41148 0.0
C214 C 0.57406 0.09184 0.37318 0.0
C215 C 0.62398 0.09431 0.38007 0.0
C216 C 0.62937 0.09975 0.39971 0.0
C217 C 0.53334 0.08974 0.38556 0.0
N218 N 0.54103 0.08709 0.40445 0.0
H219 H 0.59376 0.09844 0.42646 0.0
H220 H 0.49596 0.08796 0.37978 0.0
H221 H 0.59397 0.0058 0.41876 0.0
H222 H 0.44626 0.95895 0.43052 0.0
O223 O 0.52127 0.08309 0.44578 0.0
O224 O 0.4436 0.05424 0.44276 0.0
O225 O 0.43827 0.04744 0.40171 0.0
C226 C 0.48044 0.06663 0.45378 0.0
H227 H 0.39053 0.23121 0.41066 0.0
H228 H 0.59478 0.90802 0.42364 0.0
H229 H 0.56527 0.08793 0.35847 0.0
H230 H 0.66535 0.10157 0.4066 0.0
Co231 Co 0.26312 0.28931 0.67608 0.0
C232 C 0.15412 0.28953 0.6718 0.0
C233 C 0.18167 0.2137 0.67136 0.0
C234 C 0.1296 0.2126 0.67059 0.0
N235 N 0.19674 0.26216 0.67193 0.0
N236 N 0.11298 0.26049 0.67086 0.0
H237 H 0.15256 0.32987 0.67324 0.0
H238 H 0.20657 0.18158 0.67208 0.0
C239 C 0.27872 0.2236 0.64071 0.0
O240 O 0.23267 0.23165 0.63472 0.0
N241 N 0.32854 0.31823 0.68041 0.0
C242 C 0.33874 0.36637 0.6852 0.0
C243 C 0.38955 0.37152 0.68779 0.0
C244 C 0.37335 0.29474 0.68 0.0
N245 N 0.41083 0.32667 0.68442 0.0
C246 C 0.23031 0.38948 0.66802 0.0
C247 C 0.27058 0.3947 0.63247 0.0
C248 C 0.26369 0.43917 0.64271 0.0
C249 C 0.23925 0.43662 0.66002 0.0
C250 C 0.26391 0.34861 0.6414 0.0
N251 N 0.24783 0.34649 0.65962 0.0
H252 H 0.21594 0.38863 0.68219 0.0
H253 H 0.27704 0.31612 0.63409 0.0
H254 H 0.31134 0.39544 0.68774 0.0
H255 H 0.3785 0.25533 0.6767 0.0
O256 O 0.24056 0.31701 0.7 0.0
O257 O 0.27471 0.24177 0.6963 0.0
O258 O 0.29446 0.24577 0.65557 0.0
C259 C 0.25667 0.27559 0.70761 0.0
H260 H 0.10587 0.17954 0.67044 0.0
H261 H 0.40945 0.40531 0.69189 0.0
H262 H 0.28898 0.39552 0.61886 0.0
H263 H 0.23302 0.47025 0.66831 0.0
Co264 Co 0.76889 0.33195 0.67918 0.0
C265 C 0.87747 0.32835 0.67927 0.0
C266 C 0.85309 0.39936 0.66811 0.0
C267 C 0.90486 0.39601 0.66631 0.0
N268 N 0.83632 0.35668 0.6762 0.0
N269 N 0.91953 0.35121 0.67333 0.0
H270 H 0.87655 0.29054 0.68488 0.0
H271 H 0.82943 0.42961 0.66309 0.0
C272 C 0.70689 0.37693 0.64703 0.0
O273 O 0.68455 0.33348 0.64443 0.0
N274 N 0.70247 0.3036 0.68282 0.0
C275 C 0.69345 0.25607 0.68872 0.0
C276 C 0.6428 0.24935 0.69102 0.0
C277 C 0.65701 0.32599 0.6826 0.0
N278 N 0.62034 0.29324 0.6871 0.0
C279 C 0.79737 0.23159 0.66849 0.0
C280 C 0.7697 0.24216 0.63137 0.0
C281 C 0.77006 0.19409 0.6395 0.0
C282 C 0.7908 0.18862 0.65747 0.0
C283 C 0.78028 0.28381 0.64263 0.0
N284 N 0.78514 0.27798 0.66155 0.0
H285 H 0.80707 0.22677 0.68311 0.0
H286 H 0.78067 0.32059 0.63641 0.0
H287 H 0.72163 0.2282 0.69187 0.0
H288 H 0.65056 0.36511 0.67928 0.0
O289 O 0.7878 0.2993 0.7024 0.0
O290 O 0.75772 0.37652 0.70035 0.0
O291 O 0.74335 0.38076 0.65883 0.0
C292 C 0.77174 0.33937 0.71101 0.0
H293 H 0.92947 0.42316 0.65969 0.0
H294 H 0.62379 0.21522 0.69532 0.0
H295 H 0.75768 0.24785 0.61697 0.0
H296 H 0.79476 0.15179 0.66382 0.0
Co297 Co 0.76686 0.79501 0.17714 0.0
C298 C 0.65665 0.79548 0.17144 0.0
C299 C 0.6858 0.72041 0.17094 0.0
C300 C 0.63389 0.71813 0.16966 0.0
N301 N 0.70004 0.76913 0.17186 0.0
N302 N 0.61621 0.76557 0.16995 0.0
H303 H 0.65337 0.8354 0.1732 0.0
H304 H 0.7112 0.68873 0.17191 0.0
C305 C 0.78353 0.72769 0.14296 0.0
O306 O 0.74358 0.74688 0.13484 0.0
N307 N 0.83225 0.8215 0.18257 0.0
C308 C 0.8435 0.87037 0.18545 0.0
C309 C 0.89422 0.87483 0.18832 0.0
C310 C 0.87601 0.79656 0.18374 0.0
N311 N 0.9141 0.8285 0.18721 0.0
C312 C 0.7319 0.89128 0.16507 0.0
C313 C 0.80101 0.90223 0.13644 0.0
C314 C 0.77578 0.9447 0.14327 0.0
C315 C 0.73864 0.9384 0.15688 0.0
C316 C 0.79178 0.85513 0.14454 0.0
N317 N 0.75883 0.85023 0.15923 0.0
H318 H 0.70984 0.89002 0.17774 0.0
H319 H 0.81579 0.82435 0.14046 0.0
H320 H 0.81636 0.90035 0.18615 0.0
H321 H 0.88009 0.75634 0.18192 0.0
O322 O 0.74173 0.82762 0.19976 0.0
O323 O 0.7725 0.75028 0.19849 0.0
O324 O 0.79886 0.74738 0.15831 0.0
C325 C 0.75476 0.78682 0.20862 0.0
H326 H 0.61092 0.68455 0.1693 0.0
H327 H 0.91498 0.90907 0.19108 0.0
H328 H 0.83015 0.90603 0.12588 0.0
H329 H 0.71892 0.97067 0.16258 0.0
Co330 Co 0.74049 0.30883 0.82311 0.0
C331 C 0.63146 0.30877 0.81983 0.0
C332 C 0.65534 0.37376 0.83527 0.0
C333 C 0.60353 0.36978 0.83657 0.0
N334 N 0.67274 0.33502 0.82488 0.0
N335 N 0.58906 0.32835 0.82705 0.0
H336 H 0.63231 0.27389 0.81208 0.0
H337 H 0.67858 0.40082 0.84257 0.0
C338 C 0.8034 0.35537 0.85464 0.0
O339 O 0.82971 0.31385 0.8562 0.0
N340 N 0.80699 0.27955 0.82093 0.0
C341 C 0.81752 0.2298 0.82065 0.0
C342 C 0.868 0.22315 0.81782 0.0
C343 C 0.85139 0.30257 0.81773 0.0
N344 N 0.88897 0.26881 0.81613 0.0
C345 C 0.69896 0.21205 0.8324 0.0
C346 C 0.74044 0.20814 0.8678 0.0
C347 C 0.72758 0.16309 0.85871 0.0
C348 C 0.70036 0.16612 0.84195 0.0
C349 C 0.73423 0.25367 0.85844 0.0
N350 N 0.72052 0.25423 0.84001 0.0
H351 H 0.68591 0.21174 0.81806 0.0
H352 H 0.74368 0.28749 0.86572 0.0
H353 H 0.79061 0.19989 0.8218 0.0
H354 H 0.85636 0.34283 0.81685 0.0
O355 O 0.72426 0.27758 0.79914 0.0
O356 O 0.75578 0.35412 0.80263 0.0
O357 O 0.76416 0.35689 0.84406 0.0
C358 C 0.74114 0.31853 0.79139 0.0
H359 H 0.57893 0.3931 0.84501 0.0
H360 H 0.88802 0.18772 0.81723 0.0
H361 H 0.75821 0.20808 0.88152 0.0
H362 H 0.68628 0.13249 0.83514 0.0
Co363 Co 0.74925 0.79079 0.32075 0.0
C364 C 0.85737 0.78965 0.32922 0.0
C365 C 0.82794 0.71466 0.32828 0.0
C366 C 0.87967 0.71201 0.33021 0.0
N367 N 0.81399 0.76347 0.32794 0.0
N368 N 0.89767 0.75935 0.33069 0.0
H369 H 0.86034 0.82991 0.32792 0.0
H370 H 0.80272 0.68334 0.32607 0.0
C371 C 0.72326 0.72852 0.35599 0.0
O372 O 0.76796 0.73576 0.36338 0.0
N373 N 0.68636 0.81992 0.31306 0.0
C374 C 0.68067 0.86395 0.30379 0.0
C375 C 0.63025 0.87367 0.30174 0.0
C376 C 0.6396 0.80305 0.31634 0.0
N377 N 0.60511 0.83533 0.30964 0.0
C378 C 0.78198 0.8907 0.32866 0.0
C379 C 0.72274 0.90451 0.36008 0.0
C380 C 0.74141 0.94651 0.35056 0.0
C381 C 0.77392 0.93928 0.33542 0.0
C382 C 0.73253 0.85638 0.35304 0.0
N383 N 0.75895 0.84998 0.33674 0.0
H384 H 0.80319 0.88684 0.31583 0.0
H385 H 0.71572 0.82525 0.36011 0.0
H386 H 0.71104 0.88787 0.29911 0.0
H387 H 0.63066 0.76851 0.32366 0.0
O388 O 0.77832 0.81621 0.29783 0.0
O389 O 0.74345 0.74129 0.30083 0.0
O390 O 0.71154 0.74957 0.34043 0.0
C391 C 0.76292 0.77506 0.28983 0.0
H392 H 0.90248 0.67829 0.33011 0.0
H393 H 0.61326 0.90641 0.29528 0.0
H394 H 0.69813 0.90899 0.37211 0.0
H395 H 0.78935 0.97114 0.32787 0.0
Co396 Co 0.53697 0.56984 0.57329 0.0
C397 C 0.53191 0.67881 0.57198 0.0
C398 C 0.60701 0.65573 0.57901 0.0
C399 C 0.60446 0.70778 0.57966 0.0
N400 N 0.56128 0.63798 0.57427 0.0
N401 N 0.55705 0.72168 0.57532 0.0
H402 H 0.49233 0.67729 0.56854 0.0
H403 H 0.63929 0.63263 0.58233 0.0
C404 C 0.58222 0.51223 0.60569 0.0
O405 O 0.53841 0.49076 0.60816 0.0
N406 N 0.51063 0.5015 0.57188 0.0
C407 C 0.46209 0.48627 0.57278 0.0
C408 C 0.45972 0.4354 0.56997 0.0
C409 C 0.53698 0.45915 0.56811 0.0
N410 N 0.50661 0.41866 0.56707 0.0
C411 C 0.43747 0.59833 0.5843 0.0
C412 C 0.45292 0.59261 0.62252 0.0
C413 C 0.40418 0.58587 0.61526 0.0
C414 C 0.39608 0.59522 0.5962 0.0
C415 C 0.49336 0.59473 0.60992 0.0
N416 N 0.48474 0.58961 0.5911 0.0
H417 H 0.43051 0.59999 0.56938 0.0
H418 H 0.53116 0.596 0.61533 0.0
H419 H 0.42956 0.50958 0.57455 0.0
H420 H 0.57713 0.45802 0.56584 0.0
O421 O 0.50196 0.58531 0.55013 0.0
O422 O 0.57965 0.55548 0.55185 0.0
O423 O 0.58703 0.54804 0.59369 0.0
C424 C 0.54193 0.56959 0.54146 0.0
H425 H 0.63437 0.73328 0.58361 0.0
H426 H 0.4261 0.41245 0.56964 0.0
H427 H 0.46029 0.58815 0.63741 0.0
H428 H 0.35881 0.59242 0.59013 0.0
Co429 Co 0.98383 0.55829 0.07037 0.0
C430 C 0.99203 0.44932 0.07063 0.0
C431 C 0.91735 0.47116 0.07876 0.0
C432 C 0.92151 0.41934 0.08018 0.0
N433 N 0.96182 0.4896 0.07285 0.0
N434 N 0.96862 0.40618 0.07511 0.0
H435 H 0.03101 0.45147 0.06639 0.0
H436 H 0.88488 0.49372 0.08234 0.0
C437 C 0.9378 0.61767 0.1027 0.0
O438 O 0.98022 0.64215 0.10478 0.0
N439 N 0.00885 0.6265 0.06736 0.0
C440 C 0.05714 0.64011 0.06405 0.0
C441 C 0.05982 0.69119 0.06195 0.0
C442 C 0.98254 0.66984 0.06644 0.0
N443 N 0.01309 0.70946 0.06356 0.0
C444 C 0.08556 0.5336 0.07985 0.0
C445 C 0.07708 0.55512 0.11764 0.0
C446 C 0.12413 0.55914 0.10884 0.0
C447 C 0.12896 0.54294 0.09026 0.0
C448 C 0.03466 0.5456 0.10656 0.0
N449 N 0.03929 0.5428 0.08747 0.0
H450 H 0.08956 0.52626 0.06501 0.0
H451 H 0.99826 0.5449 0.11316 0.0
H452 H 0.08859 0.61521 0.06229 0.0
H453 H 0.94231 0.67269 0.06817 0.0
O454 O 0.01514 0.54171 0.04641 0.0
O455 O 0.93717 0.56949 0.04991 0.0
O456 O 0.93542 0.58017 0.09133 0.0
C457 C 0.97303 0.5556 0.03867 0.0
H458 H 0.89293 0.39355 0.08512 0.0
H459 H 0.09333 0.71339 0.05954 0.0
H460 H 0.07241 0.56533 0.13228 0.0
H461 H 0.16503 0.54401 0.08318 0.0
Co462 Co 0.52177 0.56657 0.42936 0.0
C463 C 0.52083 0.45879 0.42024 0.0
C464 C 0.59641 0.48635 0.42208 0.0
C465 C 0.59796 0.43469 0.41977 0.0
N466 N 0.54793 0.50142 0.42212 0.0
N467 N 0.55027 0.4179 0.41869 0.0
H468 H 0.48043 0.45671 0.42115 0.0
H469 H 0.62818 0.51072 0.42469 0.0
C470 C 0.58314 0.5905 0.39371 0.0
O471 O 0.57631 0.54518 0.38681 0.0
N472 N 0.49373 0.62998 0.43706 0.0
C473 C 0.45053 0.63624 0.4468 0.0
C474 C 0.44102 0.68677 0.44858 0.0
C475 C 0.51028 0.67656 0.43318 0.0
N476 N 0.47867 0.7115 0.44004 0.0
C477 C 0.42085 0.53514 0.42265 0.0
C478 C 0.4064 0.59112 0.39045 0.0
C479 C 0.36462 0.57381 0.40045 0.0
C480 C 0.37211 0.54295 0.41605 0.0
C481 C 0.45469 0.58168 0.39738 0.0
N482 N 0.46143 0.55691 0.41402 0.0
H483 H 0.42517 0.51487 0.43568 0.0
H484 H 0.48577 0.59725 0.38989 0.0
H485 H 0.42693 0.60618 0.45197 0.0
H486 H 0.54403 0.68507 0.42531 0.0
O487 O 0.49789 0.53844 0.45274 0.0
O488 O 0.57278 0.57246 0.44869 0.0
O489 O 0.56185 0.60333 0.40911 0.0
C490 C 0.53982 0.55371 0.46019 0.0
H491 H 0.6311 0.41106 0.41998 0.0
H492 H 0.40882 0.70411 0.45527 0.0
H493 H 0.40168 0.61441 0.37807 0.0
H494 H 0.34041 0.52853 0.42396 0.0
Co495 Co 0.97101 0.55712 0.92655 0.0
C496 C 0.97637 0.66541 0.92493 0.0
C497 C 0.90842 0.64124 0.91134 0.0
C498 C 0.91284 0.69301 0.90941 0.0
N499 N 0.94846 0.62438 0.92113 0.0
N500 N 0.95572 0.70749 0.91798 0.0
H501 H 0.01211 0.6645 0.93218 0.0
H502 H 0.87905 0.61772 0.90558 0.0
C503 C 0.93091 0.48936 0.89508 0.0
O504 O 0.97443 0.46623 0.89403 0.0
N505 N 0.99783 0.49128 0.93282 0.0
C506 C 0.04383 0.48379 0.94047 0.0
C507 C 0.0507 0.43366 0.94392 0.0
C508 C 0.97621 0.44539 0.93271 0.0
N509 N 0.00834 0.40991 0.93893 0.0
C510 C 0.07353 0.58233 0.91791 0.0
C511 C 0.06972 0.54642 0.88161 0.0
C512 C 0.11599 0.54768 0.89107 0.0
C513 C 0.1184 0.5724 0.90842 0.0
C514 C 0.02624 0.56026 0.89126 0.0
N515 N 0.02843 0.56925 0.91007 0.0
H516 H 0.07562 0.59527 0.93227 0.0
H517 H 0.99083 0.55973 0.88403 0.0
H518 H 0.07061 0.51278 0.94389 0.0
H519 H 0.93827 0.4377 0.92815 0.0
O520 O 0.99916 0.58038 0.95001 0.0
O521 O 0.9221 0.55045 0.94659 0.0
O522 O 0.92565 0.52814 0.90572 0.0
C523 C 0.95716 0.56653 0.9578 0.0
H524 H 0.88738 0.71781 0.90199 0.0
H525 H 0.08405 0.41582 0.94956 0.0
H526 H 0.0666 0.5313 0.86751 0.0
H527 H 0.15396 0.57719 0.91563 0.0
C528 C 0.00368 0.33599 0.09381 0.0
C529 C 0.99195 0.3573 0.07609 0.0
C530 C 0.03448 0.28715 0.06029 0.0
C531 C 0.04189 0.26357 0.07794 0.0
N532 N 0.02571 0.26077 0.11122 0.0
N533 N 0.99071 0.35167 0.0424 0.0
C534 C 0.02452 0.28678 0.09467 0.0
C535 C 0.006 0.33245 0.05927 0.0
N536 N 0.99647 0.36361 0.10978 0.0
N537 N 0.05556 0.2663 0.04461 0.0
H538 H 0.96942 0.38455 0.04139 0.0
H539 H 0.99563 0.33334 0.02959 0.0
H540 H 0.07705 0.23348 0.04517 0.0
H541 H 0.05529 0.28332 0.03142 0.0
H542 H 0.009 0.35223 0.12299 0.0
H543 H 0.98187 0.40003 0.10956 0.0
H544 H 0.00873 0.27357 0.12352 0.0
H545 H 0.03999 0.22436 0.11228 0.0
C546 C 0.02062 0.80702 0.31154 0.0
C547 C 0.04597 0.81926 0.32843 0.0
C548 C 0.97391 0.78958 0.34689 0.0
C549 C 0.94934 0.77556 0.33004 0.0
N550 N 0.95096 0.76337 0.29659 0.0
N551 N 0.05178 0.81472 0.36211 0.0
C552 C 0.97336 0.78195 0.31241 0.0
C553 C 0.02396 0.80845 0.34613 0.0
N554 N 0.0414 0.82085 0.29475 0.0
N555 N 0.94865 0.78566 0.36355 0.0
H556 H 0.08862 0.82818 0.36187 0.0
H557 H 0.03997 0.80319 0.37538 0.0
H558 H 0.91264 0.77023 0.36444 0.0
H559 H 0.96201 0.80002 0.37621 0.0
H560 H 0.02319 0.8174 0.28186 0.0
H561 H 0.076 0.83922 0.29386 0.0
H562 H 0.96783 0.76298 0.28339 0.0
H563 H 0.91654 0.74466 0.29698 0.0
C564 C 0.48959 0.83885 0.55974 0.0
C565 C 0.48467 0.86467 0.57708 0.0
C566 C 0.52602 0.79482 0.59342 0.0
C567 C 0.53497 0.77114 0.57589 0.0
N568 N 0.53119 0.77235 0.54217 0.0
N569 N 0.50546 0.87206 0.60987 0.0
C570 C 0.51831 0.79372 0.55896 0.0
C571 C 0.5048 0.84391 0.59381 0.0
N572 N 0.46569 0.8572 0.54419 0.0
N573 N 0.53595 0.76947 0.60971 0.0
H574 H 0.49056 0.9083 0.61053 0.0
H575 H 0.52437 0.8612 0.62204 0.0
H576 H 0.55079 0.73317 0.60987 0.0
H577 H 0.52551 0.78261 0.62294 0.0
H578 H 0.46401 0.83827 0.53139 0.0
H579 H 0.44386 0.88981 0.54457 0.0
H580 H 0.52421 0.78895 0.52917 0.0
H581 H 0.55264 0.73954 0.54132 0.0
C582 C 0.47393 0.26093 0.84528 0.0
C583 C 0.44914 0.2494 0.82819 0.0
C584 C 0.51462 0.29424 0.8106 0.0
C585 C 0.54105 0.303 0.82758 0.0
N586 N 0.55259 0.28287 0.86035 0.0
N587 N 0.45059 0.24535 0.7945 0.0
C588 C 0.52263 0.28298 0.84476 0.0
C589 C 0.47104 0.2632 0.81079 0.0
N590 N 0.4501 0.25269 0.862 0.0
N591 N 0.5306 0.31682 0.79443 0.0
H592 H 0.4198 0.221 0.7945 0.0
H593 H 0.46676 0.25059 0.78131 0.0
H594 H 0.56201 0.34032 0.79403 0.0
H595 H 0.51053 0.31572 0.78186 0.0
H596 H 0.46411 0.2653 0.87485 0.0
H597 H 0.41429 0.23691 0.86286 0.0
H598 H 0.54294 0.26447 0.87278 0.0
H599 H 0.58929 0.29661 0.86027 0.0
C600 C 0.97514 0.78378 0.93619 0.0
C601 C 0.97781 0.75684 0.91905 0.0
C602 C 0.02966 0.82356 0.90521 0.0
C603 C 0.02876 0.84944 0.92259 0.0
N604 N 0.00685 0.85274 0.9553 0.0
N605 N 0.01322 0.74588 0.88826 0.0
C606 C 0.00333 0.82892 0.93833 0.0
C607 C 0.00668 0.77533 0.9038 0.0
N608 N 0.94457 0.76638 0.9502 0.0
N609 N 0.05117 0.84612 0.88995 0.0
H610 H 0.9963 0.71068 0.88686 0.0
H611 H 0.03783 0.75466 0.87736 0.0
H612 H 0.06925 0.88088 0.89084 0.0
H613 H 0.04873 0.83199 0.87633 0.0
H614 H 0.93737 0.78578 0.96261 0.0
H615 H 0.92341 0.73355 0.94878 0.0
H616 H 0.99277 0.83824 0.96783 0.0
H617 H 0.02737 0.88585 0.95709 0.0
C618 C 0.49835 0.82476 0.18879 0.0
C619 C 0.46987 0.82959 0.17208 0.0
C620 C 0.53723 0.78913 0.15402 0.0
C621 C 0.56485 0.78252 0.17085 0.0
N622 N 0.57042 0.78718 0.20448 0.0
N623 N 0.45712 0.80967 0.13948 0.0
C624 C 0.54485 0.7983 0.18835 0.0
C625 C 0.48792 0.80986 0.15485 0.0
N626 N 0.48113 0.84672 0.20493 0.0
N627 N 0.55911 0.77709 0.13724 0.0
H628 H 0.42093 0.82482 0.13975 0.0
H629 H 0.46585 0.7915 0.12693 0.0
H630 H 0.59482 0.76095 0.13638 0.0
H631 H 0.54341 0.78571 0.12423 0.0
H632 H 0.5016 0.84857 0.21738 0.0
H633 H 0.44715 0.86632 0.20549 0.0
H634 H 0.55656 0.79375 0.21794 0.0
H635 H 0.60447 0.76771 0.20437 0.0
C636 C 0.50228 0.2924 0.40196 0.0
C637 C 0.48827 0.27042 0.41934 0.0
C638 C 0.52286 0.3428 0.43631 0.0
C639 C 0.53291 0.36662 0.41889 0.0
N640 N 0.52883 0.36758 0.38521 0.0
N641 N 0.48052 0.2749 0.4529 0.0
C642 C 0.52173 0.34227 0.4017 0.0
C643 C 0.49744 0.2957 0.43651 0.0
N644 N 0.49847 0.26473 0.38584 0.0
N645 N 0.53845 0.36522 0.45257 0.0
H646 H 0.46184 0.24039 0.45328 0.0
H647 H 0.48179 0.29298 0.46587 0.0
H648 H 0.55741 0.39953 0.45265 0.0
H649 H 0.5361 0.34851 0.46578 0.0
H650 H 0.5124 0.27646 0.37288 0.0
H651 H 0.48443 0.22809 0.3857 0.0
H652 H 0.51674 0.35437 0.37219 0.0
H653 H 0.54453 0.40354 0.38474 0.0
C654 C 0.98569 0.30666 0.65555 0.0
C655 C 0.96851 0.32837 0.67258 0.0
C656 C 0.04284 0.29631 0.68905 0.0
C657 C 0.06211 0.27871 0.67169 0.0
N658 N 0.05578 0.27103 0.63815 0.0
N659 N 0.98048 0.34743 0.70524 0.0
C660 C 0.03444 0.28474 0.65485 0.0
C661 C 0.99703 0.32399 0.6893 0.0
N662 N 0.95453 0.30562 0.64028 0.0
N663 N 0.06841 0.28576 0.70524 0.0
H664 H 0.94696 0.36784 0.70564 0.0
H665 H 0.00105 0.34954 0.71766 0.0
H666 H 0.10194 0.26537 0.70526 0.0
H667 H 0.05501 0.2938 0.71865 0.0
H668 H 0.9626 0.286 0.62798 0.0
H669 H 0.91862 0.32141 0.64045 0.0
H670 H 0.0401 0.27921 0.62509 0.0
H671 H 0.09109 0.25403 0.63736 0.0
C672 C 0.02059 0.09676 0.01175 0.0
C673 C 0.04234 0.05789 0.02267 0.0
C674 C 0.05659 0.00962 0.99355 0.0
C675 C 0.02777 0.04532 0.98342 0.0
N676 N 0.97015 0.11534 0.98463 0.0
N677 N 0.07341 0.97189 0.02381 0.0
C678 C 0.00612 0.08664 0.99303 0.0
C679 C 0.05878 0.01282 0.01357 0.0
N680 N 0.0151 0.14403 0.01902 0.0
N681 N 0.0813 0.97227 0.98413 0.0
H682 H 0.07443 0.97105 0.0384 0.0
H683 H 0.08011 0.93675 0.01783 0.0
H684 H 0.07801 0.96713 0.96965 0.0
H685 H 0.10748 0.94864 0.99052 0.0
H686 H 0.00303 0.17453 0.01097 0.0
H687 H 0.02861 0.15397 0.03227 0.0
H688 H 0.95006 0.14307 0.99179 0.0
H689 H 0.95578 0.10664 0.97148 0.0
C690 C 0.22395 0.8619 0.26315 0.0
C691 C 0.25637 0.83045 0.27368 0.0
C692 C 0.30882 0.81773 0.24579 0.0
C693 C 0.27269 0.84297 0.23454 0.0
N694 N 0.18911 0.88027 0.23265 0.0
N695 N 0.32421 0.77017 0.27413 0.0
C696 C 0.22854 0.86321 0.24321 0.0
C697 C 0.29702 0.8057 0.26473 0.0
N698 N 0.18801 0.88985 0.2721 0.0
N699 N 0.35547 0.8073 0.23872 0.0
H700 H 0.31733 0.76047 0.28809 0.0
H701 H 0.35018 0.74692 0.26741 0.0
H702 H 0.36686 0.81862 0.22533 0.0
H703 H 0.38466 0.79297 0.24691 0.0
H704 H 0.16767 0.91825 0.26545 0.0
H705 H 0.18089 0.88716 0.28649 0.0
H706 H 0.1546 0.89055 0.23841 0.0
H707 H 0.18791 0.87931 0.21808 0.0
C708 C 0.50054 0.01065 0.50265 0.0
C709 C 0.46097 0.03412 0.51266 0.0
C710 C 0.43358 0.077 0.48398 0.0
C711 C 0.47622 0.05788 0.47434 0.0
N712 N 0.55205 0.00733 0.47462 0.0
N713 N 0.37638 0.06607 0.51006 0.0
C714 C 0.5102 0.02478 0.48367 0.0
C715 C 0.42331 0.06047 0.50256 0.0
N716 N 0.52573 0.97155 0.51085 0.0
N717 N 0.40419 0.11301 0.47575 0.0
H718 H 0.36526 0.0475 0.52227 0.0
H719 H 0.34637 0.08189 0.50273 0.0
H720 H 0.41152 0.12765 0.46241 0.0
H721 H 0.37587 0.13217 0.48291 0.0
H722 H 0.5521 0.94933 0.50392 0.0
H723 H 0.51521 0.95708 0.52391 0.0
H724 H 0.58137 0.98884 0.48142 0.0
H725 H 0.55918 0.01329 0.46043 0.0
C726 C 0.2212 0.23658 0.73695 0.0
C727 C 0.25728 0.26812 0.72829 0.0
C728 C 0.30202 0.27565 0.75825 0.0
C729 C 0.26244 0.25017 0.76751 0.0
N730 N 0.17753 0.21656 0.76572 0.0
N731 N 0.32477 0.32797 0.73206 0.0
C732 C 0.22021 0.23288 0.75691 0.0
C733 C 0.2956 0.29067 0.73932 0.0
N734 N 0.18733 0.21076 0.72621 0.0
N735 N 0.34638 0.28458 0.76735 0.0
H736 H 0.31909 0.342 0.71866 0.0
H737 H 0.35006 0.34889 0.74008 0.0
H738 H 0.35316 0.27253 0.78106 0.0
H739 H 0.37815 0.29878 0.7606 0.0
H740 H 0.16383 0.18298 0.73166 0.0
H741 H 0.18531 0.21448 0.71164 0.0
H742 H 0.14416 0.20909 0.75857 0.0
H743 H 0.17311 0.21555 0.78023 0.0
C744 C 0.78668 0.29795 0.76149 0.0
C745 C 0.74704 0.32355 0.77074 0.0
C746 C 0.72101 0.35979 0.74058 0.0
C747 C 0.76498 0.33937 0.73186 0.0
N748 N 0.84687 0.30169 0.73614 0.0
N749 N 0.68063 0.38518 0.76968 0.0
C750 C 0.79999 0.31223 0.74297 0.0
C751 C 0.71588 0.35694 0.7605 0.0
N752 N 0.81118 0.25924 0.77012 0.0
N753 N 0.68227 0.37848 0.73006 0.0
H754 H 0.67348 0.38171 0.78405 0.0
H755 H 0.66097 0.4144 0.76324 0.0
H756 H 0.68185 0.37909 0.71547 0.0
H757 H 0.64766 0.38854 0.7358 0.0
H758 H 0.83712 0.23643 0.76318 0.0
H759 H 0.802 0.2468 0.78354 0.0
H760 H 0.87501 0.28534 0.74432 0.0
H761 H 0.85957 0.31493 0.72317 0.0
C762 C 0.79327 0.80791 0.23981 0.0
C763 C 0.75481 0.78356 0.22945 0.0
C764 C 0.7193 0.75225 0.25898 0.0
C765 C 0.76205 0.77111 0.26894 0.0
N766 N 0.84677 0.80344 0.2671 0.0
N767 N 0.68622 0.72432 0.22894 0.0
C768 C 0.80136 0.79447 0.25877 0.0
C769 C 0.71976 0.75256 0.23894 0.0
N770 N 0.82079 0.84562 0.23195 0.0
N771 N 0.67668 0.73786 0.26827 0.0
H772 H 0.68406 0.72535 0.2143 0.0
H773 H 0.6633 0.69721 0.23516 0.0
H774 H 0.6721 0.7401 0.28275 0.0
H775 H 0.64334 0.72889 0.26134 0.0
H776 H 0.84672 0.86698 0.23951 0.0
H777 H 0.81225 0.86021 0.21884 0.0
H778 H 0.8779 0.81664 0.25966 0.0
H779 H 0.85486 0.79212 0.2808 0.0
C780 C 0.52261 0.51845 0.4922 0.0
C781 C 0.54571 0.5561 0.48103 0.0
C782 C 0.57264 0.59912 0.50997 0.0
C783 C 0.54328 0.56533 0.52072 0.0
N784 N 0.47886 0.50119 0.52112 0.0
N785 N 0.58028 0.64091 0.48005 0.0
C786 C 0.51469 0.52758 0.51158 0.0
C787 C 0.56795 0.59873 0.49003 0.0
N788 N 0.50948 0.47323 0.48451 0.0
N789 N 0.6036 0.63283 0.5187 0.0
H790 H 0.57306 0.64552 0.4658 0.0
H791 H 0.59183 0.67426 0.48642 0.0
H792 H 0.6058 0.63633 0.53329 0.0
H793 H 0.6297 0.65464 0.51142 0.0
H794 H 0.49608 0.44324 0.49251 0.0
H795 H 0.51754 0.46371 0.47062 0.0
H796 H 0.4536 0.47706 0.51446 0.0
H797 H 0.47159 0.50646 0.53534 0.0
C798 C 0.93548 0.52198 0.98846 0.0
C799 C 0.95245 0.56563 0.97862 0.0
C800 C 0.98648 0.5996 0.00784 0.0
C801 C 0.96661 0.55817 0.01798 0.0
N802 N 0.9139 0.48448 0.01856 0.0
N803 N 0.97886 0.65219 0.9803 0.0
C804 C 0.93801 0.52105 0.00849 0.0
C805 C 0.97311 0.6064 0.98878 0.0
N806 N 0.92009 0.48016 0.97889 0.0
N807 N 0.01966 0.63169 0.01613 0.0
H808 H 0.96711 0.65909 0.96655 0.0
H809 H 0.98956 0.6845 0.98759 0.0
H810 H 0.03178 0.62689 0.02984 0.0
H811 H 0.03913 0.65946 0.00878 0.0
H812 H 0.91275 0.44585 0.98539 0.0
H813 H 0.91832 0.47781 0.96433 0.0
H814 H 0.88776 0.45994 0.01266 0.0
H815 H 0.91722 0.48097 0.03312 0.0
C816 C 0.18119 0.91195 0.11893 0.0
C817 C 0.18224 0.91367 0.13892 0.0
C818 C 0.11559 0.97817 0.13834 0.0
C819 C 0.11444 0.97642 0.11835 0.0
N820 N 0.15605 0.9518 0.08966 0.0
N821 N 0.16118 0.95985 0.16709 0.0
C822 C 0.15066 0.94677 0.10867 0.0
C823 C 0.1531 0.95065 0.14843 0.0
N824 N 0.2085 0.87607 0.1097 0.0
N825 N 0.07983 0.005 0.1478 0.0
H826 H 0.18863 0.94145 0.17493 0.0
H827 H 0.14443 0.98948 0.17435 0.0
H828 H 0.05365 0.0278 0.14103 0.0
H829 H 0.07424 0.00236 0.16226 0.0
H830 H 0.20423 0.86807 0.09546 0.0
H831 H 0.23389 0.85245 0.11654 0.0
H832 H 0.18474 0.93472 0.08201 0.0
H833 H 0.135 0.9771 0.08172 0.0
C834 C 0.32804 0.92432 0.38561 0.0
C835 C 0.32667 0.91755 0.36584 0.0
C836 C 0.39282 0.9814 0.36208 0.0
C837 C 0.39543 0.98693 0.3819 0.0
N838 N 0.35453 0.97561 0.41198 0.0
N839 N 0.34666 0.95037 0.33507 0.0
C840 C 0.35926 0.96249 0.39349 0.0
C841 C 0.35519 0.94989 0.35401 0.0
N842 N 0.30052 0.89315 0.3969 0.0
N843 N 0.42738 0.00522 0.35099 0.0
H844 H 0.31911 0.92857 0.32865 0.0
H845 H 0.3632 0.97603 0.32591 0.0
H846 H 0.45278 0.03158 0.35626 0.0
H847 H 0.43242 0.99726 0.33677 0.0
H848 H 0.30503 0.89115 0.41143 0.0
H849 H 0.2746 0.86736 0.39158 0.0
H850 H 0.32598 0.96225 0.42066 0.0
H851 H 0.37569 0.00386 0.41826 0.0
C852 C 0.3317 0.12072 0.608 0.0
C853 C 0.38436 0.12845 0.6098 0.0
C854 C 0.36637 0.20467 0.62806 0.0
C855 C 0.31457 0.19156 0.62941 0.0
N856 N 0.2514 0.12762 0.62372 0.0
N857 N 0.45121 0.17314 0.62568 0.0
C858 C 0.29802 0.14696 0.62018 0.0
C859 C 0.40155 0.16884 0.62114 0.0
N860 N 0.31341 0.08903 0.59457 0.0
N861 N 0.38218 0.2522 0.63216 0.0
H862 H 0.47785 0.14637 0.62187 0.0
H863 H 0.46453 0.20016 0.63509 0.0
H864 H 0.35787 0.28114 0.63597 0.0
H865 H 0.41854 0.26425 0.62907 0.0
H866 H 0.27508 0.0852 0.59183 0.0
H867 H 0.3365 0.07168 0.5847 0.0
H868 H 0.23971 0.0929 0.61849 0.0
H869 H 0.2269 0.14278 0.63365 0.0
C870 C 0.16758 0.10521 0.89338 0.0
C871 C 0.1209 0.09108 0.88512 0.0
C872 C 0.15022 0.12474 0.85474 0.0
C873 C 0.19356 0.1456 0.8636 0.0
N874 N 0.25398 0.13073 0.88824 0.0
N875 N 0.06528 0.09347 0.85833 0.0
C876 C 0.20523 0.12922 0.88217 0.0
C877 C 0.11169 0.10231 0.86589 0.0
N878 N 0.17621 0.09577 0.91201 0.0
N879 N 0.14816 0.12086 0.8356 0.0
H880 H 0.03596 0.07695 0.86583 0.0
H881 H 0.05445 0.10689 0.84517 0.0
H882 H 0.17919 0.1274 0.82701 0.0
H883 H 0.1191 0.1028 0.82847 0.0
H884 H 0.20601 0.11146 0.91948 0.0
H885 H 0.152 0.0747 0.9204 0.0
H886 H 0.26607 0.11591 0.90101 0.0
H887 H 0.28381 0.13935 0.8793 0.0
C888 C 0.81651 0.05339 0.8659 0.0
C889 C 0.82097 0.05874 0.88556 0.0
C890 C 0.74226 0.10607 0.88573 0.0
C891 C 0.74788 0.11478 0.86623 0.0
N892 N 0.7917 0.09369 0.83713 0.0
N893 N 0.78695 0.09185 0.91473 0.0
C894 C 0.78424 0.08637 0.85594 0.0
C895 C 0.78269 0.08416 0.8958 0.0
N896 N 0.84479 0.01814 0.85677 0.0
N897 N 0.69961 0.12176 0.89463 0.0
H898 H 0.81668 0.07837 0.92278 0.0
H899 H 0.76266 0.11516 0.92224 0.0
H900 H 0.67002 0.13846 0.88724 0.0
H901 H 0.69186 0.11352 0.90866 0.0
H902 H 0.84025 0.0097 0.84255 0.0
H903 H 0.86887 0.99384 0.86399 0.0
H904 H 0.82277 0.07938 0.82997 0.0
H905 H 0.76887 0.11562 0.82864 0.0
C906 C 0.71414 0.11612 0.60046 0.0
C907 C 0.67258 0.09403 0.60988 0.0
C908 C 0.69981 0.12985 0.63956 0.0
C909 C 0.74187 0.15232 0.63035 0.0
N910 N 0.79747 0.15231 0.6036 0.0
N911 N 0.63787 0.06322 0.63882 0.0
C912 C 0.75205 0.14016 0.6113 0.0
C913 C 0.67039 0.09448 0.62966 0.0
N914 N 0.7158 0.1174 0.58128 0.0
N915 N 0.68406 0.14588 0.65685 0.0
H916 H 0.61546 0.03734 0.63162 0.0
H917 H 0.63737 0.05947 0.65342 0.0
H918 H 0.70055 0.17532 0.66415 0.0
H919 H 0.65059 0.13381 0.663 0.0
H920 H 0.74229 0.13825 0.57381 0.0
H921 H 0.68887 0.10022 0.5728 0.0
H922 H 0.80838 0.14092 0.59018 0.0
H923 H 0.82598 0.16934 0.61143 0.0
C924 C 0.74061 0.0249 0.37046 0.0
C925 C 0.72174 0.99738 0.35489 0.0
C926 C 0.66083 0.06448 0.34914 0.0
C927 C 0.66875 0.0816 0.36766 0.0
N928 N 0.73939 0.10535 0.38659 0.0
N929 N 0.66584 0.99382 0.32796 0.0
C930 C 0.71605 0.07025 0.37571 0.0
C931 C 0.68319 0.01857 0.34348 0.0
N932 N 0.78061 0.00716 0.38048 0.0
N933 N 0.63572 0.09426 0.33671 0.0
H934 H 0.68094 0.9599 0.3233 0.0
H935 H 0.63421 0.00561 0.3205 0.0
H936 H 0.6232 0.13005 0.34063 0.0
H937 H 0.63239 0.08573 0.32245 0.0
H938 H 0.79235 0.02325 0.39311 0.0
H939 H 0.80045 0.97497 0.37653 0.0
H940 H 0.77596 0.10128 0.39163 0.0
H941 H 0.72334 0.14082 0.38866 0.0
C942 C 0.821 0.02636 0.15012 0.0
C943 C 0.79195 0.99601 0.13761 0.0
C944 C 0.79992 0.06127 0.11368 0.0
C945 C 0.84081 0.08164 0.12385 0.0
N946 N 0.86405 0.10631 0.15489 0.0
N947 N 0.74817 0.98811 0.10797 0.0
C948 C 0.84234 0.07177 0.14328 0.0
C949 C 0.7793 0.0147 0.11954 0.0
N950 N 0.83136 0.01027 0.16793 0.0
N951 N 0.7762 0.0898 0.10049 0.0
H952 H 0.73031 0.95502 0.11218 0.0
H953 H 0.74223 0.99799 0.09395 0.0
H954 H 0.78457 0.12796 0.09899 0.0
H955 H 0.74373 0.07821 0.09351 0.0
H956 H 0.85712 0.02795 0.17675 0.0
H957 H 0.81611 0.97771 0.17361 0.0
H958 H 0.86333 0.10393 0.1695 0.0
H959 H 0.87893 0.13974 0.1495 0.0
C960 C 0.68798 0.42207 0.61649 0.0
C961 C 0.68726 0.4217 0.6365 0.0
C962 C 0.62604 0.49119 0.63615 0.0
C963 C 0.62605 0.49074 0.61618 0.0
N964 N 0.66852 0.46682 0.58763 0.0
N965 N 0.6667 0.4657 0.66519 0.0
C966 C 0.66107 0.46 0.60646 0.0
C967 C 0.66022 0.45976 0.64626 0.0
N968 N 0.713 0.3851 0.60699 0.0
N969 N 0.59193 0.5204 0.6455 0.0
H970 H 0.69126 0.44371 0.67309 0.0
H971 H 0.65157 0.49557 0.67279 0.0
H972 H 0.56873 0.5461 0.63862 0.0
H973 H 0.58495 0.51749 0.65986 0.0
H974 H 0.70932 0.37905 0.59258 0.0
H975 H 0.73553 0.35859 0.61369 0.0
H976 H 0.69659 0.44859 0.58003 0.0
H977 H 0.65031 0.49478 0.57996 0.0
C978 C 0.84896 0.44135 0.89417 0.0
C979 C 0.88751 0.46756 0.88437 0.0
C980 C 0.85337 0.4353 0.85449 0.0
C981 C 0.82257 0.40114 0.86456 0.0
N982 N 0.78924 0.37216 0.89404 0.0
N983 N 0.92623 0.49008 0.8549 0.0
C984 C 0.81939 0.4048 0.88443 0.0
C985 C 0.88925 0.46513 0.8644 0.0
N986 N 0.84065 0.45115 0.91278 0.0
N987 N 0.84819 0.43923 0.83544 0.0
H988 H 0.95107 0.51466 0.8615 0.0
H989 H 0.93379 0.48464 0.84067 0.0
H990 H 0.82116 0.419 0.82799 0.0
H991 H 0.86657 0.46622 0.82736 0.0
H992 H 0.81047 0.43649 0.92031 0.0
H993 H 0.86097 0.47792 0.92029 0.0
H994 H 0.79011 0.36787 0.90859 0.0
H995 H 0.76449 0.34782 0.88725 0.0
C996 C 0.84776 0.65013 0.10415 0.0
C997 C 0.89259 0.63503 0.11361 0.0
C998 C 0.85568 0.66431 0.14351 0.0
C999 C 0.8153 0.68724 0.13354 0.0
N1000 N 0.76023 0.67397 0.10699 0.0
N1001 N 0.93843 0.62611 0.14272 0.0
C1002 C 0.80741 0.6722 0.11456 0.0
C1003 C 0.89611 0.64143 0.13344 0.0
N1004 N 0.84427 0.64603 0.08503 0.0
N1005 N 0.85263 0.65944 0.16262 0.0
H1006 H 0.96644 0.60449 0.13641 0.0
H1007 H 0.94679 0.63667 0.15647 0.0
H1008 H 0.82008 0.6683 0.1701 0.0
H1009 H 0.87873 0.63986 0.17071 0.0
H1010 H 0.81611 0.66347 0.0772 0.0
H1011 H 0.87101 0.62811 0.07674 0.0
H1012 H 0.75145 0.6599 0.09372 0.0
H1013 H 0.7283 0.6811 0.11503 0.0
C1014 C 0.63704 0.70993 0.37026 0.0
C1015 C 0.68643 0.69353 0.36539 0.0
C1016 C 0.66899 0.61178 0.38051 0.0
C1017 C 0.61848 0.62659 0.38412 0.0
N1018 N 0.55294 0.68893 0.38073 0.0
N1019 N 0.74487 0.62451 0.36232 0.0
C1020 C 0.60223 0.67553 0.37861 0.0
C1021 C 0.7011 0.64329 0.36957 0.0
N1022 N 0.62352 0.75899 0.36755 0.0
N1023 N 0.68742 0.56855 0.38832 0.0
H1024 H 0.76919 0.64557 0.35399 0.0
H1025 H 0.75461 0.58659 0.36295 0.0
H1026 H 0.66592 0.54471 0.39669 0.0
H1027 H 0.72538 0.55888 0.3881 0.0
H1028 H 0.59156 0.77534 0.3734 0.0
H1029 H 0.64552 0.78469 0.36031 0.0
H1030 H 0.53687 0.72049 0.37447 0.0
H1031 H 0.52683 0.66709 0.38783 0.0
C1032 C 0.29349 0.63365 0.40678 0.0
C1033 C 0.31377 0.59329 0.39603 0.0
C1034 C 0.24049 0.5973 0.37537 0.0
C1035 C 0.23007 0.64576 0.3826 0.0
N1036 N 0.2182 0.68203 0.4131 0.0
N1037 N 0.30227 0.53087 0.37176 0.0
C1038 C 0.24767 0.65574 0.40091 0.0
C1039 C 0.28544 0.57259 0.381 0.0
N1040 N 0.31889 0.65273 0.42186 0.0
N1041 N 0.20529 0.57383 0.36458 0.0
H1042 H 0.3342 0.51109 0.37603 0.0
H1043 H 0.2857 0.51746 0.35946 0.0
H1044 H 0.17064 0.59092 0.36185 0.0
H1045 H 0.2085 0.53666 0.36008 0.0
H1046 H 0.3076 0.68543 0.42877 0.0
H1047 H 0.35277 0.63785 0.42667 0.0
H1048 H 0.22724 0.68692 0.42725 0.0
H1049 H 0.1821 0.69365 0.40922 0.0
C1050 C 0.18808 0.67926 0.12444 0.0
C1051 C 0.2357 0.66156 0.13022 0.0
C1052 C 0.2097 0.57491 0.12319 0.0
C1053 C 0.16288 0.59348 0.11659 0.0
N1054 N 0.11328 0.66467 0.10621 0.0
N1055 N 0.29602 0.59434 0.13202 0.0
C1056 C 0.15376 0.64608 0.11579 0.0
C1057 C 0.24785 0.60974 0.12868 0.0
N1058 N 0.17534 0.72769 0.12854 0.0
N1059 N 0.21708 0.5242 0.12461 0.0
H1060 H 0.32455 0.61956 0.13558 0.0
H1061 H 0.30865 0.55781 0.12968 0.0
H1062 H 0.18985 0.49808 0.12057 0.0
H1063 H 0.24847 0.5081 0.13096 0.0
H1064 H 0.13981 0.74331 0.12641 0.0
H1065 H 0.13981 0.74331 0.12641 0.0
H1066 H 0.10993 0.70242 0.1025 0.0
H1067 H 0.08553 0.64215 0.10032 0.0
C1068 C 0.17839 0.47633 0.89477 0.0
C1069 C 0.15876 0.51701 0.88392 0.0
C1070 C 0.19762 0.48182 0.8557 0.0
C1071 C 0.21767 0.44195 0.86673 0.0
N1072 N 0.24316 0.41273 0.89725 0.0
N1073 N 0.16487 0.56692 0.85575 0.0
C1074 C 0.21411 0.44381 0.88649 0.0
C1075 C 0.17402 0.5228 0.86496 0.0
N1076 N 0.15961 0.46495 0.91214 0.0
N1077 N 0.19724 0.47901 0.83652 0.0
H1078 H 0.14806 0.59764 0.86241 0.0
H1079 H 0.17865 0.57452 0.84233 0.0
H1080 H 0.21255 0.4491 0.829 0.0
H1081 H 0.17794 0.50464 0.8281 0.0
H1082 H 0.16944 0.43239 0.91943 0.0
H1083 H 0.13031 0.48431 0.91847 0.0
H1084 H 0.24469 0.41532 0.91187 0.0
H1085 H 0.26955 0.3883 0.89134 0.0
C1086 C 0.28045 0.53012 0.63288 0.0
C1087 C 0.29761 0.48199 0.63854 0.0
C1088 C 0.38273 0.50287 0.62946 0.0
C1089 C 0.36772 0.55276 0.62511 0.0
N1090 N 0.30338 0.61667 0.62559 0.0
N1091 N 0.36573 0.43092 0.64904 0.0
C1092 C 0.31675 0.56748 0.62783 0.0
C1093 C 0.34941 0.47181 0.6393 0.0
N1094 N 0.23009 0.53939 0.63172 0.0
N1095 N 0.42572 0.48258 0.62219 0.0
H1096 H 0.40366 0.4229 0.6513 0.0
H1097 H 0.40366 0.4229 0.6513 0.0
H1098 H 0.44747 0.501 0.61225 0.0
H1099 H 0.43515 0.44468 0.62362 0.0
H1100 H 0.21514 0.5722 0.626 0.0
H1101 H 0.20327 0.51258 0.63551 0.0
H1102 H 0.26769 0.63044 0.62872 0.0
H1103 H 0.32951 0.64439 0.62204 0.0
C1104 C 0.98932 0.83803 0.08276 0.0
C1105 C 0.98712 0.8656 0.06585 0.0
C1106 C 0.9928 0.78838 0.04748 0.0
C1107 C 0.00043 0.76156 0.06439 0.0
N1108 N 0.01377 0.76052 0.09785 0.0
N1109 N 0.98949 0.86999 0.03214 0.0
C1110 C 0.00059 0.78625 0.082 0.0
C1111 C 0.9894 0.84157 0.04814 0.0
N1112 N 0.97915 0.86132 0.09944 0.0
N1113 N 0.98854 0.76258 0.03096 0.0
H1114 H 0.98641 0.90911 0.03244 0.0
H1115 H 0.99555 0.85542 0.01875 0.0
H1116 H 0.99091 0.72345 0.03039 0.0
H1117 H 0.97923 0.77919 0.01817 0.0
H1118 H 0.97496 0.84207 0.11208 0.0
H1119 H 0.9701 0.89942 0.10032 0.0
H1120 H 0.0201 0.7777 0.11079 0.0
H1121 H 0.02263 0.72244 0.09763 0.0
C1122 C 0.47667 0.84118 0.33083 0.0
C1123 C 0.45038 0.81046 0.31788 0.0
C1124 C 0.52471 0.80407 0.29791 0.0
C1125 C 0.55203 0.83074 0.31168 0.0
N1126 N 0.55741 0.87318 0.34142 0.0
N1127 N 0.44824 0.75905 0.29013 0.0
C1128 C 0.52881 0.84942 0.32814 0.0
C1129 C 0.47402 0.79121 0.30158 0.0
N1130 N 0.45158 0.86177 0.34571 0.0
N1131 N 0.54775 0.79116 0.28143 0.0
H1132 H 0.41103 0.74902 0.2927 0.0
H1133 H 0.46421 0.73993 0.27884 0.0
H1134 H 0.58536 0.79966 0.2787 0.0
H1135 H 0.52917 0.77526 0.27 0.0
H1136 H 0.46695 0.88839 0.35476 0.0
H1137 H 0.4139 0.85404 0.34843 0.0
H1138 H 0.54431 0.88347 0.35466 0.0
H1139 H 0.59558 0.88063 0.33947 0.0
C1140 C 0.50982 0.29787 0.54099 0.0
C1141 C 0.51797 0.26377 0.55593 0.0
C1142 C 0.52663 0.33354 0.57808 0.0
C1143 C 0.51935 0.36748 0.56305 0.0
N1144 N 0.51735 0.38376 0.52995 0.0
N1145 N 0.54702 0.24831 0.58744 0.0
C1146 C 0.51529 0.35006 0.54436 0.0
C1147 C 0.53019 0.28135 0.57418 0.0
N1148 N 0.49511 0.28021 0.52381 0.0
N1149 N 0.52891 0.3514 0.59605 0.0
H1150 H 0.55224 0.21032 0.58449 0.0
H1151 H 0.56035 0.25912 0.6006 0.0
H1152 H 0.52826 0.3898 0.5991 0.0
H1153 H 0.52896 0.32832 0.60787 0.0
H1154 H 0.48409 0.30342 0.51276 0.0
H1155 H 0.49005 0.24196 0.5211 0.0
H1156 H 0.51833 0.3735 0.51582 0.0
H1157 H 0.52385 0.42182 0.53239 0.0
C1158 C 0.02424 0.28152 0.82987 0.0
C1159 C 0.04657 0.2838 0.81184 0.0
C1160 C 0.96382 0.28616 0.79705 0.0
C1161 C 0.94174 0.27839 0.81488 0.0
N1162 N 0.94967 0.26299 0.84808 0.0
N1163 N 0.03965 0.28193 0.77817 0.0
C1164 C 0.97165 0.27443 0.83127 0.0
C1165 C 0.01685 0.2845 0.79536 0.0
N1166 N 0.05307 0.28854 0.84555 0.0
N1167 N 0.93386 0.29555 0.78189 0.0
H1168 H 0.07862 0.27966 0.77666 0.0
H1169 H 0.02013 0.27785 0.76557 0.0
H1170 H 0.89487 0.29745 0.78301 0.0
H1171 H 0.94755 0.30579 0.76872 0.0
H1172 H 0.03818 0.29226 0.85902 0.0
H1173 H 0.09167 0.29512 0.84491 0.0
H1174 H 0.97005 0.25321 0.86002 0.0
H1175 H 0.91086 0.25985 0.84971 0.0
C1176 C 0.99903 0.27794 0.92109 0.0
C1177 C 0.99035 0.25217 0.93816 0.0
C1178 C 0.99086 0.3312 0.95562 0.0
C1179 C 0.00151 0.35668 0.93865 0.0
N1180 N 0.02613 0.35521 0.90613 0.0
N1181 N 0.98528 0.25106 0.97184 0.0
C1182 C 0.00857 0.33029 0.92159 0.0
C1183 C 0.98836 0.27797 0.95553 0.0
N1184 N 0.99647 0.25246 0.90445 0.0
N1185 N 0.98253 0.3583 0.97163 0.0
H1186 H 0.98414 0.21187 0.97191 0.0
H1187 H 0.98765 0.26689 0.98519 0.0
H1188 H 0.98548 0.3974 0.97198 0.0
H1189 H 0.97006 0.34268 0.98421 0.0
H1190 H 0.99754 0.27004 0.89139 0.0
H1191 H 0.98972 0.21385 0.90371 0.0
H1192 H 0.03664 0.33739 0.8937 0.0
H1193 H 0.03438 0.39355 0.90631 0.0
C1194 C 0.04204 0.8134 0.20791 0.0
C1195 C 0.06961 0.80162 0.19151 0.0
C1196 C 0.994 0.80651 0.17231 0.0
C1197 C 0.9661 0.8165 0.18878 0.0
N1198 N 0.95982 0.82164 0.2224 0.0
N1199 N 0.07227 0.77622 0.1591 0.0
C1200 C 0.9891 0.81765 0.20669 0.0
C1201 C 0.04568 0.79505 0.17395 0.0
N1202 N 0.06689 0.82142 0.22445 0.0
N1203 N 0.97127 0.80982 0.15513 0.0
H1204 H 0.11017 0.76658 0.16016 0.0
H1205 H 0.056 0.76595 0.14635 0.0
H1206 H 0.93323 0.81838 0.15352 0.0
H1207 H 0.99078 0.80768 0.14249 0.0
H1208 H 0.04974 0.8348 0.23662 0.0
H1209 H 0.10576 0.81734 0.22566 0.0
H1210 H 0.97354 0.81862 0.23606 0.0
H1211 H 0.92073 0.82413 0.22167 0.0
C1212 C 0.47281 0.78523 0.41958 0.0
C1213 C 0.48271 0.76454 0.43751 0.0
C1214 C 0.50371 0.84735 0.44992 0.0
C1215 C 0.49954 0.86693 0.43152 0.0
N1216 N 0.48374 0.85601 0.3985 0.0
N1217 N 0.51086 0.7729 0.46946 0.0
C1218 C 0.48465 0.83634 0.41623 0.0
C1219 C 0.49858 0.79487 0.45271 0.0
N1220 N 0.4514 0.75589 0.40598 0.0
N1221 N 0.51253 0.8793 0.46458 0.0
H1222 H 0.50759 0.73428 0.47176 0.0
H1223 H 0.52727 0.79211 0.48064 0.0
H1224 H 0.51672 0.91793 0.46265 0.0
H1225 H 0.5119 0.86839 0.47864 0.0
H1226 H 0.43922 0.76955 0.39304 0.0
H1227 H 0.4422 0.71821 0.40825 0.0
H1228 H 0.47835 0.83461 0.3864 0.0
H1229 H 0.49152 0.89373 0.3958 0.0
C1230 C 0.54287 0.30295 0.66888 0.0
C1231 C 0.56741 0.30169 0.68649 0.0
C1232 C 0.48714 0.31003 0.70275 0.0
C1233 C 0.4634 0.31607 0.68511 0.0
N1234 N 0.46837 0.32712 0.65165 0.0
N1235 N 0.56568 0.3086 0.72015 0.0
C1236 C 0.4912 0.31498 0.66821 0.0
C1237 C 0.54027 0.30648 0.70348 0.0
N1238 N 0.56862 0.2904 0.65294 0.0
N1239 N 0.45849 0.30671 0.71864 0.0
H1240 H 0.60475 0.30562 0.72091 0.0
H1241 H 0.5487 0.31664 0.73299 0.0
H1242 H 0.41935 0.30881 0.71824 0.0
H1243 H 0.47288 0.29815 0.73187 0.0
H1244 H 0.5515 0.28595 0.63987 0.0
H1245 H 0.60629 0.27957 0.65319 0.0
H1246 H 0.48794 0.33265 0.63914 0.0
H1247 H 0.43009 0.33516 0.65077 0.0
loop_
_geom_bond_atom_site_label_1
_geom_bond_atom_site_label_2
_geom_bond_distance
_geom_bond_site_symmetry_2
_ccdc_geom_bond_type
Co0 N4 2.148 . S
Co0 N10 2.128 1_545 S
Co0 N20 2.194 1_455 S
Co0 O25 2.351 1_455 S
Co0 O26 2.155 . S
Co0 O27 2.096 . S
C1 N4 1.301 . S
C1 N5 1.328 . S
C1 H6 0.930 1_455 S
C2 C3 1.333 . S
C2 N4 1.317 . S
C2 H7 0.930 . S
C3 C2 1.333 . S
C3 N5 1.350 . S
C3 H29 0.931 . S
N4 Co0 2.148 . S
N4 C1 1.301 . S
N4 C2 1.317 . S
N5 C1 1.328 . S
N5 C3 1.350 . S
H6 C1 0.930 1_655 S
H7 C2 0.930 . S
C8 O9 1.224 . S
C8 O27 1.247 . S
O9 C8 1.224 . S
N10 Co0 2.128 1_565 S
N10 C11 1.355 1_455 S
N10 C13 1.311 . S
C11 N10 1.355 1_655 S
C11 C12 1.363 . S
C11 H23 0.929 . S
C12 C11 1.363 . S
C12 N14 1.375 1_655 S
C12 H30 0.931 . S
C13 N10 1.311 . S
C13 N14 1.347 . S
C13 H24 0.929 . S
N14 C12 1.375 1_455 S
N14 C13 1.347 . S
C15 C18 1.365 . S
C15 N20 1.328 . S
C15 H21 0.929 . S
C16 C17 1.362 . S
C16 C19 1.378 . S
C16 H31 0.929 . S
C17 C16 1.362 . S
C17 C18 1.366 . S
C18 C15 1.365 . S
C18 C17 1.366 . S
C18 H32 0.930 . S
C19 C16 1.378 . S
C19 N20 1.315 . S
C19 H22 0.930 . S
N20 Co0 2.194 1_655 S
N20 C15 1.328 . S
N20 C19 1.315 . S
H21 C15 0.929 . S
H22 C19 0.930 . S
H23 C11 0.929 . S
H24 C13 0.929 . S
O25 Co0 2.351 1_655 S
O25 C28 1.244 1_655 S
O26 Co0 2.155 . S
O26 C28 1.240 . S
O27 Co0 2.096 . S
O27 C8 1.247 . S
C28 O25 1.244 1_455 S
C28 O26 1.240 . S
H29 C3 0.931 . S
H30 C12 0.931 . S
H31 C16 0.929 . S
H32 C18 0.930 . S
Co33 N37 2.148 . S
Co33 N43 2.128 . S
Co33 N53 2.194 . S
Co33 O58 2.351 . S
Co33 O59 2.155 . S
Co33 O60 2.096 . S
C34 N37 1.301 . S
C34 N38 1.328 . S
C34 H39 0.930 . S
C35 C36 1.333 . S
C35 N37 1.317 . S
C35 H40 0.930 . S
C36 C35 1.333 . S
C36 N38 1.350 . S
C36 H62 0.931 . S
N37 Co33 2.148 . S
N37 C34 1.301 . S
N37 C35 1.317 . S
N38 C34 1.328 . S
N38 C36 1.350 . S
H39 C34 0.930 . S
H40 C35 0.930 . S
C41 O42 1.224 . S
C41 O60 1.247 . S
O42 C41 1.224 . S
N43 Co33 2.128 . S
N43 C44 1.355 . S
N43 C46 1.311 . S
C44 N43 1.355 . S
C44 C45 1.363 . S
C44 H56 0.929 . S
C45 C44 1.363 . S
C45 N47 1.375 . S
C45 H63 0.931 . S
C46 N43 1.311 . S
C46 N47 1.347 . S
C46 H57 0.929 . S
N47 C45 1.375 . S
N47 C46 1.347 . S
C48 C51 1.365 . S
C48 N53 1.328 . S
C48 H54 0.929 . S
C49 C50 1.362 . S
C49 C52 1.378 . S
C49 H64 0.929 . S
C50 C49 1.362 . S
C50 C51 1.366 . S
C51 C48 1.365 . S
C51 C50 1.366 . S
C51 H65 0.930 . S
C52 C49 1.378 . S
C52 N53 1.315 . S
C52 H55 0.930 . S
N53 Co33 2.194 . S
N53 C48 1.328 . S
N53 C52 1.315 . S
H54 C48 0.929 . S
H55 C52 0.930 . S
H56 C44 0.929 . S
H57 C46 0.929 . S
O58 Co33 2.351 . S
O58 C61 1.244 . S
O59 Co33 2.155 . S
O59 C61 1.240 . S
O60 Co33 2.096 . S
O60 C41 1.247 . S
C61 O58 1.244 . S
C61 O59 1.240 . S
H62 C36 0.931 . S
H63 C45 0.931 . S
H64 C49 0.929 . S
H65 C51 0.930 . S
Co66 N70 2.148 1_545 S
Co66 N76 2.128 . S
Co66 N86 2.194 . S
Co66 O91 2.351 . S
Co66 O92 2.155 . S
Co66 O93 2.096 . S
C67 N70 1.301 . S
C67 N71 1.328 . S
C67 H72 0.930 . S
C68 C69 1.333 . S
C68 N70 1.317 . S
C68 H73 0.930 . S
C69 C68 1.333 . S
C69 N71 1.350 . S
C69 H95 0.931 . S
N70 Co66 2.148 1_565 S
N70 C67 1.301 . S
N70 C68 1.317 . S
N71 C67 1.328 . S
N71 C69 1.350 . S
H72 C67 0.930 . S
H73 C68 0.930 . S
C74 O75 1.224 . S
C74 O93 1.247 . S
O75 C74 1.224 . S
N76 Co66 2.128 . S
N76 C77 1.355 . S
N76 C79 1.311 . S
C77 N76 1.355 . S
C77 C78 1.363 . S
C77 H89 0.929 . S
C78 C77 1.363 . S
C78 N80 1.375 . S
C78 H96 0.931 . S
C79 N76 1.311 . S
C79 N80 1.347 . S
C79 H90 0.929 . S
N80 C78 1.375 . S
N80 C79 1.347 . S
C81 C84 1.365 . S
C81 N86 1.328 . S
C81 H87 0.929 . S
C82 C83 1.362 . S
C82 C85 1.378 . S
C82 H97 0.929 . S
C83 C82 1.362 . S
C83 C84 1.366 . S
C84 C81 1.365 . S
C84 C83 1.366 . S
C84 H98 0.930 . S
C85 C82 1.378 . S
C85 N86 1.315 . S
C85 H88 0.930 . S
N86 Co66 2.194 . S
N86 C81 1.328 . S
N86 C85 1.315 . S
H87 C81 0.929 . S
H88 C85 0.930 . S
H89 C77 0.929 . S
H90 C79 0.929 . S
O91 Co66 2.351 . S
O91 C94 1.244 . S
O92 Co66 2.155 . S
O92 C94 1.240 . S
O93 Co66 2.096 . S
O93 C74 1.247 . S
C94 O91 1.244 . S
C94 O92 1.240 . S
H95 C69 0.931 . S
H96 C78 0.931 . S
H97 C82 0.929 . S
H98 C84 0.930 . S
Co99 N103 2.148 . S
Co99 N109 2.128 . S
Co99 N119 2.194 . S
Co99 O124 2.351 . S
Co99 O125 2.155 . S
Co99 O126 2.096 . S
C100 N103 1.301 . S
C100 N104 1.328 . S
C100 H105 0.930 . S
C101 C102 1.333 . S
C101 N103 1.317 . S
C101 H106 0.930 . S
C102 C101 1.333 . S
C102 N104 1.350 . S
C102 H128 0.931 . S
N103 Co99 2.148 . S
N103 C100 1.301 . S
N103 C101 1.317 . S
N104 C100 1.328 . S
N104 C102 1.350 . S
H105 C100 0.930 . S
H106 C101 0.930 . S
C107 O108 1.224 . S
C107 O126 1.247 . S
O108 C107 1.224 . S
N109 Co99 2.128 . S
N109 C110 1.355 . S
N109 C112 1.311 . S
C110 N109 1.355 . S
C110 C111 1.363 . S
C110 H122 0.929 . S
C111 C110 1.363 . S
C111 N113 1.375 . S
C111 H129 0.931 . S
C112 N109 1.311 . S
C112 N113 1.347 . S
C112 H123 0.929 . S
N113 C111 1.375 . S
N113 C112 1.347 . S
C114 C117 1.365 . S
C114 N119 1.328 . S
C114 H120 0.929 . S
C115 C116 1.362 . S
C115 C118 1.378 . S
C115 H130 0.929 . S
C116 C115 1.362 . S
C116 C117 1.366 . S
C117 C114 1.365 . S
C117 C116 1.366 . S
C117 H131 0.930 . S
C118 C115 1.378 . S
C118 N119 1.315 . S
C118 H121 0.930 . S
N119 Co99 2.194 . S
N119 C114 1.328 . S
N119 C118 1.315 . S
H120 C114 0.929 . S
H121 C118 0.930 . S
H122 C110 0.929 . S
H123 C112 0.929 . S
O124 Co99 2.351 . S
O124 C127 1.244 . S
O125 Co99 2.155 . S
O125 C127 1.240 . S
O126 Co99 2.096 . S
O126 C107 1.247 . S
C127 O124 1.244 . S
C127 O125 1.240 . S
H128 C102 0.931 . S
H129 C111 0.931 . S
H130 C115 0.929 . S
H131 C117 0.930 . S
Co132 N136 2.148 1_545 S
Co132 N142 2.128 . S
Co132 N152 2.194 1_455 S
Co132 O157 2.351 1_455 S
Co132 O158 2.155 . S
Co132 O159 2.096 . S
C133 N136 1.301 . S
C133 N137 1.328 . S
C133 H138 0.930 1_455 S
C134 C135 1.333 . S
C134 N136 1.317 . S
C134 H139 0.930 . S
C135 C134 1.333 . S
C135 N137 1.350 . S
C135 H161 0.931 . S
N136 Co132 2.148 1_565 S
N136 C133 1.301 . S
N136 C134 1.317 . S
N137 C133 1.328 . S
N137 C135 1.350 . S
H138 C133 0.930 1_655 S
H139 C134 0.930 . S
C140 O141 1.224 . S
C140 O159 1.247 . S
O141 C140 1.224 . S
N142 Co132 2.128 . S
N142 C143 1.355 1_455 S
N142 C145 1.311 . S
C143 N142 1.355 1_655 S
C143 C144 1.363 . S
C143 H155 0.929 . S
C144 C143 1.363 . S
C144 N146 1.375 1_655 S
C144 H162 0.931 . S
C145 N142 1.311 . S
C145 N146 1.347 . S
C145 H156 0.929 . S
N146 C144 1.375 1_455 S
N146 C145 1.347 . S
C147 C150 1.365 . S
C147 N152 1.328 . S
C147 H153 0.929 . S
C148 C149 1.362 . S
C148 C151 1.378 . S
C148 H163 0.929 . S
C149 C148 1.362 . S
C149 C150 1.366 . S
C150 C147 1.365 . S
C150 C149 1.366 . S
C150 H164 0.930 . S
C151 C148 1.378 . S
C151 N152 1.315 . S
C151 H154 0.930 . S
N152 Co132 2.194 1_655 S
N152 C147 1.328 . S
N152 C151 1.315 . S
H153 C147 0.929 . S
H154 C151 0.930 . S
H155 C143 0.929 . S
H156 C145 0.929 . S
O157 Co132 2.351 1_655 S
O157 C160 1.244 1_655 S
O158 Co132 2.155 . S
O158 C160 1.240 . S
O159 Co132 2.096 . S
O159 C140 1.247 . S
C160 O157 1.244 1_455 S
C160 O158 1.240 . S
H161 C135 0.931 . S
H162 C144 0.931 . S
H163 C148 0.929 . S
H164 C150 0.930 . S
Co165 N169 2.148 . S
Co165 N175 2.128 . S
Co165 N185 2.194 . S
Co165 O190 2.351 . S
Co165 O191 2.155 . S
Co165 O192 2.096 . S
C166 N169 1.301 . S
C166 N170 1.328 . S
C166 H171 0.930 . S
C167 C168 1.333 . S
C167 N169 1.317 . S
C167 H172 0.930 . S
C168 C167 1.333 . S
C168 N170 1.350 . S
C168 H194 0.931 . S
N169 Co165 2.148 . S
N169 C166 1.301 . S
N169 C167 1.317 . S
N170 C166 1.328 . S
N170 C168 1.350 . S
H171 C166 0.930 . S
H172 C167 0.930 . S
C173 O174 1.224 . S
C173 O192 1.247 . S
O174 C173 1.224 . S
N175 Co165 2.128 . S
N175 C176 1.355 . S
N175 C178 1.311 . S
C176 N175 1.355 . S
C176 C177 1.363 . S
C176 H188 0.929 . S
C177 C176 1.363 . S
C177 N179 1.375 . S
C177 H195 0.931 . S
C178 N175 1.311 . S
C178 N179 1.347 . S
C178 H189 0.929 . S
N179 C177 1.375 . S
N179 C178 1.347 . S
C180 C183 1.365 . S
C180 N185 1.328 . S
C180 H186 0.929 . S
C181 C182 1.362 . S
C181 C184 1.378 . S
C181 H196 0.929 . S
C182 C181 1.362 . S
C182 C183 1.366 . S
C183 C180 1.365 . S
C183 C182 1.366 . S
C183 H197 0.930 . S
C184 C181 1.378 . S
C184 N185 1.315 . S
C184 H187 0.930 . S
N185 Co165 2.194 . S
N185 C180 1.328 . S
N185 C184 1.315 . S
H186 C180 0.929 . S
H187 C184 0.930 . S
H188 C176 0.929 . S
H189 C178 0.929 . S
O190 Co165 2.351 . S
O190 C193 1.244 . S
O191 Co165 2.155 . S
O191 C193 1.240 . S
O192 Co165 2.096 . S
O192 C173 1.247 . S
C193 O190 1.244 . S
C193 O191 1.240 . S
H194 C168 0.931 . S
H195 C177 0.931 . S
H196 C181 0.929 . S
H197 C183 0.930 . S
Co198 N202 2.148 . S
Co198 N208 2.128 1_545 S
Co198 N218 2.194 . S
Co198 O223 2.351 . S
Co198 O224 2.155 . S
Co198 O225 2.096 . S
C199 N202 1.301 . S
C199 N203 1.328 . S
C199 H204 0.930 . S
C200 C201 1.333 . S
C200 N202 1.317 . S
C200 H205 0.930 . S
C201 C200 1.333 . S
C201 N203 1.350 . S
C201 H227 0.931 . S
N202 Co198 2.148 . S
N202 C199 1.301 . S
N202 C200 1.317 . S
N203 C199 1.328 . S
N203 C201 1.350 . S
H204 C199 0.930 . S
H205 C200 0.930 . S
C206 O207 1.224 . S
C206 O225 1.247 . S
O207 C206 1.224 . S
N208 Co198 2.128 1_565 S
N208 C209 1.355 . S
N208 C211 1.311 . S
C209 N208 1.355 . S
C209 C210 1.363 . S
C209 H221 0.929 . S
C210 C209 1.363 . S
C210 N212 1.375 . S
C210 H228 0.931 . S
C211 N208 1.311 . S
C211 N212 1.347 . S
C211 H222 0.929 . S
N212 C210 1.375 . S
N212 C211 1.347 . S
C213 C216 1.365 . S
C213 N218 1.328 . S
C213 H219 0.929 . S
C214 C215 1.362 . S
C214 C217 1.378 . S
C214 H229 0.929 . S
C215 C214 1.362 . S
C215 C216 1.366 . S
C216 C213 1.365 . S
C216 C215 1.366 . S
C216 H230 0.930 . S
C217 C214 1.378 . S
C217 N218 1.315 . S
C217 H220 0.930 . S
N218 Co198 2.194 . S
N218 C213 1.328 . S
N218 C217 1.315 . S
H219 C213 0.929 . S
H220 C217 0.930 . S
H221 C209 0.929 . S
H222 C211 0.929 . S
O223 Co198 2.351 . S
O223 C226 1.244 . S
O224 Co198 2.155 . S
O224 C226 1.240 . S
O225 Co198 2.096 . S
O225 C206 1.247 . S
C226 O223 1.244 . S
C226 O224 1.240 . S
H227 C201 0.931 . S
H228 C210 0.931 . S
H229 C214 0.929 . S
H230 C216 0.930 . S
Co231 N235 2.148 . S
Co231 N241 2.128 . S
Co231 N251 2.194 . S
Co231 O256 2.351 . S
Co231 O257 2.155 . S
Co231 O258 2.096 . S
C232 N235 1.301 . S
C232 N236 1.328 . S
C232 H237 0.930 . S
C233 C234 1.333 . S
C233 N235 1.317 . S
C233 H238 0.930 . S
C234 C233 1.333 . S
C234 N236 1.350 . S
C234 H260 0.931 . S
N235 Co231 2.148 . S
N235 C232 1.301 . S
N235 C233 1.317 . S
N236 C232 1.328 . S
N236 C234 1.350 . S
H237 C232 0.930 . S
H238 C233 0.930 . S
C239 O240 1.224 . S
C239 O258 1.247 . S
O240 C239 1.224 . S
N241 Co231 2.128 . S
N241 C242 1.355 . S
N241 C244 1.311 . S
C242 N241 1.355 . S
C242 C243 1.363 . S
C242 H254 0.929 . S
C243 C242 1.363 . S
C243 N245 1.375 . S
C243 H261 0.931 . S
C244 N241 1.311 . S
C244 N245 1.347 . S
C244 H255 0.929 . S
N245 C243 1.375 . S
N245 C244 1.347 . S
C246 C249 1.365 . S
C246 N251 1.328 . S
C246 H252 0.929 . S
C247 C248 1.362 . S
C247 C250 1.378 . S
C247 H262 0.929 . S
C248 C247 1.362 . S
C248 C249 1.366 . S
C249 C246 1.365 . S
C249 C248 1.366 . S
C249 H263 0.930 . S
C250 C247 1.378 . S
C250 N251 1.315 . S
C250 H253 0.930 . S
N251 Co231 2.194 . S
N251 C246 1.328 . S
N251 C250 1.315 . S
H252 C246 0.929 . S
H253 C250 0.930 . S
H254 C242 0.929 . S
H255 C244 0.929 . S
O256 Co231 2.351 . S
O256 C259 1.244 . S
O257 Co231 2.155 . S
O257 C259 1.240 . S
O258 Co231 2.096 . S
O258 C239 1.247 . S
C259 O256 1.244 . S
C259 O257 1.240 . S
H260 C234 0.931 . S
H261 C243 0.931 . S
H262 C247 0.929 . S
H263 C249 0.930 . S
Co264 N268 2.148 . S
Co264 N274 2.128 . S
Co264 N284 2.194 . S
Co264 O289 2.351 . S
Co264 O290 2.155 . S
Co264 O291 2.096 . S
C265 N268 1.301 . S
C265 N269 1.328 . S
C265 H270 0.930 . S
C266 C267 1.333 . S
C266 N268 1.317 . S
C266 H271 0.930 . S
C267 C266 1.333 . S
C267 N269 1.350 . S
C267 H293 0.931 . S
N268 Co264 2.148 . S
N268 C265 1.301 . S
N268 C266 1.317 . S
N269 C265 1.328 . S
N269 C267 1.350 . S
H270 C265 0.930 . S
H271 C266 0.930 . S
C272 O273 1.224 . S
C272 O291 1.247 . S
O273 C272 1.224 . S
N274 Co264 2.128 . S
N274 C275 1.355 . S
N274 C277 1.311 . S
C275 N274 1.355 . S
C275 C276 1.363 . S
C275 H287 0.929 . S
C276 C275 1.363 . S
C276 N278 1.375 . S
C276 H294 0.931 . S
C277 N274 1.311 . S
C277 N278 1.347 . S
C277 H288 0.929 . S
N278 C276 1.375 . S
N278 C277 1.347 . S
C279 C282 1.365 . S
C279 N284 1.328 . S
C279 H285 0.929 . S
C280 C281 1.362 . S
C280 C283 1.378 . S
C280 H295 0.929 . S
C281 C280 1.362 . S
C281 C282 1.366 . S
C282 C279 1.365 . S
C282 C281 1.366 . S
C282 H296 0.930 . S
C283 C280 1.378 . S
C283 N284 1.315 . S
C283 H286 0.930 . S
N284 Co264 2.194 . S
N284 C279 1.328 . S
N284 C283 1.315 . S
H285 C279 0.929 . S
H286 C283 0.930 . S
H287 C275 0.929 . S
H288 C277 0.929 . S
O289 Co264 2.351 . S
O289 C292 1.244 . S
O290 Co264 2.155 . S
O290 C292 1.240 . S
O291 Co264 2.096 . S
O291 C272 1.247 . S
C292 O289 1.244 . S
C292 O290 1.240 . S
H293 C267 0.931 . S
H294 C276 0.931 . S
H295 C280 0.929 . S
H296 C282 0.930 . S
Co297 N301 2.148 . S
Co297 N307 2.128 . S
Co297 N317 2.194 . S
Co297 O322 2.351 . S
Co297 O323 2.155 . S
Co297 O324 2.096 . S
C298 N301 1.301 . S
C298 N302 1.328 . S
C298 H303 0.930 . S
C299 C300 1.333 . S
C299 N301 1.317 . S
C299 H304 0.930 . S
C300 C299 1.333 . S
C300 N302 1.350 . S
C300 H326 0.931 . S
N301 Co297 2.148 . S
N301 C298 1.301 . S
N301 C299 1.317 . S
N302 C298 1.328 . S
N302 C300 1.350 . S
H303 C298 0.930 . S
H304 C299 0.930 . S
C305 O306 1.224 . S
C305 O324 1.247 . S
O306 C305 1.224 . S
N307 Co297 2.128 . S
N307 C308 1.355 . S
N307 C310 1.311 . S
C308 N307 1.355 . S
C308 C309 1.363 . S
C308 H320 0.929 . S
C309 C308 1.363 . S
C309 N311 1.375 . S
C309 H327 0.931 . S
C310 N307 1.311 . S
C310 N311 1.347 . S
C310 H321 0.929 . S
N311 C309 1.375 . S
N311 C310 1.347 . S
C312 C315 1.365 . S
C312 N317 1.328 . S
C312 H318 0.929 . S
C313 C314 1.362 . S
C313 C316 1.378 . S
C313 H328 0.929 . S
C314 C313 1.362 . S
C314 C315 1.366 . S
C315 C312 1.365 . S
C315 C314 1.366 . S
C315 H329 0.930 . S
C316 C313 1.378 . S
C316 N317 1.315 . S
C316 H319 0.930 . S
N317 Co297 2.194 . S
N317 C312 1.328 . S
N317 C316 1.315 . S
H318 C312 0.929 . S
H319 C316 0.930 . S
H320 C308 0.929 . S
H321 C310 0.929 . S
O322 Co297 2.351 . S
O322 C325 1.244 . S
O323 Co297 2.155 . S
O323 C325 1.240 . S
O324 Co297 2.096 . S
O324 C305 1.247 . S
C325 O322 1.244 . S
C325 O323 1.240 . S
H326 C300 0.931 . S
H327 C309 0.931 . S
H328 C313 0.929 . S
H329 C315 0.930 . S
Co330 N334 2.148 . S
Co330 N340 2.128 . S
Co330 N350 2.194 . S
Co330 O355 2.351 . S
Co330 O356 2.155 . S
Co330 O357 2.096 . S
C331 N334 1.301 . S
C331 N335 1.328 . S
C331 H336 0.930 . S
C332 C333 1.333 . S
C332 N334 1.317 . S
C332 H337 0.930 . S
C333 C332 1.333 . S
C333 N335 1.350 . S
C333 H359 0.931 . S
N334 Co330 2.148 . S
N334 C331 1.301 . S
N334 C332 1.317 . S
N335 C331 1.328 . S
N335 C333 1.350 . S
H336 C331 0.930 . S
H337 C332 0.930 . S
C338 O339 1.224 . S
C338 O357 1.247 . S
O339 C338 1.224 . S
N340 Co330 2.128 . S
N340 C341 1.355 . S
N340 C343 1.311 . S
C341 N340 1.355 . S
C341 C342 1.363 . S
C341 H353 0.929 . S
C342 C341 1.363 . S
C342 N344 1.375 . S
C342 H360 0.931 . S
C343 N340 1.311 . S
C343 N344 1.347 . S
C343 H354 0.929 . S
N344 C342 1.375 . S
N344 C343 1.347 . S
C345 C348 1.365 . S
C345 N350 1.328 . S
C345 H351 0.929 . S
C346 C347 1.362 . S
C346 C349 1.378 . S
C346 H361 0.929 . S
C347 C346 1.362 . S
C347 C348 1.366 . S
C348 C345 1.365 . S
C348 C347 1.366 . S
C348 H362 0.930 . S
C349 C346 1.378 . S
C349 N350 1.315 . S
C349 H352 0.930 . S
N350 Co330 2.194 . S
N350 C345 1.328 . S
N350 C349 1.315 . S
H351 C345 0.929 . S
H352 C349 0.930 . S
H353 C341 0.929 . S
H354 C343 0.929 . S
O355 Co330 2.351 . S
O355 C358 1.244 . S
O356 Co330 2.155 . S
O356 C358 1.240 . S
O357 Co330 2.096 . S
O357 C338 1.247 . S
C358 O355 1.244 . S
C358 O356 1.240 . S
H359 C333 0.931 . S
H360 C342 0.931 . S
H361 C346 0.929 . S
H362 C348 0.930 . S
Co363 N367 2.148 . S
Co363 N373 2.128 . S
Co363 N383 2.194 . S
Co363 O388 2.351 . S
Co363 O389 2.155 . S
Co363 O390 2.096 . S
C364 N367 1.301 . S
C364 N368 1.328 . S
C364 H369 0.930 . S
C365 C366 1.333 . S
C365 N367 1.317 . S
C365 H370 0.930 . S
C366 C365 1.333 . S
C366 N368 1.350 . S
C366 H392 0.931 . S
N367 Co363 2.148 . S
N367 C364 1.301 . S
N367 C365 1.317 . S
N368 C364 1.328 . S
N368 C366 1.350 . S
H369 C364 0.930 . S
H370 C365 0.930 . S
C371 O372 1.224 . S
C371 O390 1.247 . S
O372 C371 1.224 . S
N373 Co363 2.128 . S
N373 C374 1.355 . S
N373 C376 1.311 . S
C374 N373 1.355 . S
C374 C375 1.363 . S
C374 H386 0.929 . S
C375 C374 1.363 . S
C375 N377 1.375 . S
C375 H393 0.931 . S
C376 N373 1.311 . S
C376 N377 1.347 . S
C376 H387 0.929 . S
N377 C375 1.375 . S
N377 C376 1.347 . S
C378 C381 1.365 . S
C378 N383 1.328 . S
C378 H384 0.929 . S
C379 C380 1.362 . S
C379 C382 1.378 . S
C379 H394 0.929 . S
C380 C379 1.362 . S
C380 C381 1.366 . S
C381 C378 1.365 . S
C381 C380 1.366 . S
C381 H395 0.930 . S
C382 C379 1.378 . S
C382 N383 1.315 . S
C382 H385 0.930 . S
N383 Co363 2.194 . S
N383 C378 1.328 . S
N383 C382 1.315 . S
H384 C378 0.929 . S
H385 C382 0.930 . S
H386 C374 0.929 . S
H387 C376 0.929 . S
O388 Co363 2.351 . S
O388 C391 1.244 . S
O389 Co363 2.155 . S
O389 C391 1.240 . S
O390 Co363 2.096 . S
O390 C371 1.247 . S
C391 O388 1.244 . S
C391 O389 1.240 . S
H392 C366 0.931 . S
H393 C375 0.931 . S
H394 C379 0.929 . S
H395 C381 0.930 . S
Co396 N400 2.148 . S
Co396 N406 2.128 . S
Co396 N416 2.194 . S
Co396 O421 2.351 . S
Co396 O422 2.155 . S
Co396 O423 2.096 . S
C397 N400 1.301 . S
C397 N401 1.328 . S
C397 H402 0.930 . S
C398 C399 1.333 . S
C398 N400 1.317 . S
C398 H403 0.930 . S
C399 C398 1.333 . S
C399 N401 1.350 . S
C399 H425 0.931 . S
N400 Co396 2.148 . S
N400 C397 1.301 . S
N400 C398 1.317 . S
N401 C397 1.328 . S
N401 C399 1.350 . S
H402 C397 0.930 . S
H403 C398 0.930 . S
C404 O405 1.224 . S
C404 O423 1.247 . S
O405 C404 1.224 . S
N406 Co396 2.128 . S
N406 C407 1.355 . S
N406 C409 1.311 . S
C407 N406 1.355 . S
C407 C408 1.363 . S
C407 H419 0.929 . S
C408 C407 1.363 . S
C408 N410 1.375 . S
C408 H426 0.931 . S
C409 N406 1.311 . S
C409 N410 1.347 . S
C409 H420 0.929 . S
N410 C408 1.375 . S
N410 C409 1.347 . S
C411 C414 1.365 . S
C411 N416 1.328 . S
C411 H417 0.929 . S
C412 C413 1.362 . S
C412 C415 1.378 . S
C412 H427 0.929 . S
C413 C412 1.362 . S
C413 C414 1.366 . S
C414 C411 1.365 . S
C414 C413 1.366 . S
C414 H428 0.930 . S
C415 C412 1.378 . S
C415 N416 1.315 . S
C415 H418 0.930 . S
N416 Co396 2.194 . S
N416 C411 1.328 . S
N416 C415 1.315 . S
H417 C411 0.929 . S
H418 C415 0.930 . S
H419 C407 0.929 . S
H420 C409 0.929 . S
O421 Co396 2.351 . S
O421 C424 1.244 . S
O422 Co396 2.155 . S
O422 C424 1.240 . S
O423 Co396 2.096 . S
O423 C404 1.247 . S
C424 O421 1.244 . S
C424 O422 1.240 . S
H425 C399 0.931 . S
H426 C408 0.931 . S
H427 C412 0.929 . S
H428 C414 0.930 . S
Co429 N433 2.148 . S
Co429 N439 2.128 . S
Co429 N449 2.194 1_655 S
Co429 O454 2.351 1_655 S
Co429 O455 2.155 . S
Co429 O456 2.096 . S
C430 N433 1.301 1_455 S
C430 N434 1.328 1_455 S
C430 H435 0.930 . S
C431 C432 1.333 . S
C431 N433 1.317 . S
C431 H436 0.930 . S
C432 C431 1.333 . S
C432 N434 1.350 . S
C432 H458 0.931 . S
N433 Co429 2.148 . S
N433 C430 1.301 1_655 S
N433 C431 1.317 . S
N434 C430 1.328 1_655 S
N434 C432 1.350 . S
H435 C430 0.930 . S
H436 C431 0.930 . S
C437 O438 1.224 . S
C437 O456 1.247 . S
O438 C437 1.224 . S
N439 Co429 2.128 . S
N439 C440 1.355 1_655 S
N439 C442 1.311 . S
C440 N439 1.355 1_455 S
C440 C441 1.363 . S
C440 H452 0.929 . S
C441 C440 1.363 . S
C441 N443 1.375 1_455 S
C441 H459 0.931 . S
C442 N439 1.311 . S
C442 N443 1.347 . S
C442 H453 0.929 . S
N443 C441 1.375 1_655 S
N443 C442 1.347 . S
C444 C447 1.365 . S
C444 N449 1.328 . S
C444 H450 0.929 . S
C445 C446 1.362 . S
C445 C448 1.378 . S
C445 H460 0.929 . S
C446 C445 1.362 . S
C446 C447 1.366 . S
C447 C444 1.365 . S
C447 C446 1.366 . S
C447 H461 0.930 . S
C448 C445 1.378 . S
C448 N449 1.315 . S
C448 H451 0.930 . S
N449 Co429 2.194 1_455 S
N449 C444 1.328 . S
N449 C448 1.315 . S
H450 C444 0.929 . S
H451 C448 0.930 . S
H452 C440 0.929 . S
H453 C442 0.929 . S
O454 Co429 2.351 1_455 S
O454 C457 1.244 1_455 S
O455 Co429 2.155 . S
O455 C457 1.240 . S
O456 Co429 2.096 . S
O456 C437 1.247 . S
C457 O454 1.244 1_655 S
C457 O455 1.240 . S
H458 C432 0.931 . S
H459 C441 0.931 . S
H460 C445 0.929 . S
H461 C447 0.930 . S
Co462 N466 2.148 . S
Co462 N472 2.128 . S
Co462 N482 2.194 . S
Co462 O487 2.351 . S
Co462 O488 2.155 . S
Co462 O489 2.096 . S
C463 N466 1.301 . S
C463 N467 1.328 . S
C463 H468 0.930 . S
C464 C465 1.333 . S
C464 N466 1.317 . S
C464 H469 0.930 . S
C465 C464 1.333 . S
C465 N467 1.350 . S
C465 H491 0.931 . S
N466 Co462 2.148 . S
N466 C463 1.301 . S
N466 C464 1.317 . S
N467 C463 1.328 . S
N467 C465 1.350 . S
H468 C463 0.930 . S
H469 C464 0.930 . S
C470 O471 1.224 . S
C470 O489 1.247 . S
O471 C470 1.224 . S
N472 Co462 2.128 . S
N472 C473 1.355 . S
N472 C475 1.311 . S
C473 N472 1.355 . S
C473 C474 1.363 . S
C473 H485 0.929 . S
C474 C473 1.363 . S
C474 N476 1.375 . S
C474 H492 0.931 . S
C475 N472 1.311 . S
C475 N476 1.347 . S
C475 H486 0.929 . S
N476 C474 1.375 . S
N476 C475 1.347 . S
C477 C480 1.365 . S
C477 N482 1.328 . S
C477 H483 0.929 . S
C478 C479 1.362 . S
C478 C481 1.378 . S
C478 H493 0.929 . S
C479 C478 1.362 . S
C479 C480 1.366 . S
C480 C477 1.365 . S
C480 C479 1.366 . S
C480 H494 0.930 . S
C481 C478 1.378 . S
C481 N482 1.315 . S
C481 H484 0.930 . S
N482 Co462 2.194 . S
N482 C477 1.328 . S
N482 C481 1.315 . S
H483 C477 0.929 . S
H484 C481 0.930 . S
H485 C473 0.929 . S
H486 C475 0.929 . S
O487 Co462 2.351 . S
O487 C490 1.244 . S
O488 Co462 2.155 . S
O488 C490 1.240 . S
O489 Co462 2.096 . S
O489 C470 1.247 . S
C490 O487 1.244 . S
C490 O488 1.240 . S
H491 C465 0.931 . S
H492 C474 0.931 . S
H493 C478 0.929 . S
H494 C480 0.930 . S
Co495 N499 2.148 . S
Co495 N505 2.128 . S
Co495 N515 2.194 1_655 S
Co495 O520 2.351 1_655 S
Co495 O521 2.155 . S
Co495 O522 2.096 . S
C496 N499 1.301 1_455 S
C496 N500 1.328 1_455 S
C496 H501 0.930 . S
C497 C498 1.333 . S
C497 N499 1.317 . S
C497 H502 0.930 . S
C498 C497 1.333 . S
C498 N500 1.350 . S
C498 H524 0.931 . S
N499 Co495 2.148 . S
N499 C496 1.301 1_655 S
N499 C497 1.317 . S
N500 C496 1.328 1_655 S
N500 C498 1.350 . S
H501 C496 0.930 . S
H502 C497 0.930 . S
C503 O504 1.224 . S
C503 O522 1.247 . S
O504 C503 1.224 . S
N505 Co495 2.128 . S
N505 C506 1.355 1_655 S
N505 C508 1.311 . S
C506 N505 1.355 1_455 S
C506 C507 1.363 . S
C506 H518 0.929 . S
C507 C506 1.363 . S
C507 N509 1.375 1_455 S
C507 H525 0.931 . S
C508 N505 1.311 . S
C508 N509 1.347 . S
C508 H519 0.929 . S
N509 C507 1.375 1_655 S
N509 C508 1.347 . S
C510 C513 1.365 . S
C510 N515 1.328 . S
C510 H516 0.929 . S
C511 C512 1.362 . S
C511 C514 1.378 . S
C511 H526 0.929 . S
C512 C511 1.362 . S
C512 C513 1.366 . S
C513 C510 1.365 . S
C513 C512 1.366 . S
C513 H527 0.930 . S
C514 C511 1.378 . S
C514 N515 1.315 . S
C514 H517 0.930 . S
N515 Co495 2.194 1_455 S
N515 C510 1.328 . S
N515 C514 1.315 . S
H516 C510 0.929 . S
H517 C514 0.930 . S
H518 C506 0.929 . S
H519 C508 0.929 . S
O520 Co495 2.351 1_455 S
O520 C523 1.244 1_455 S
O521 Co495 2.155 . S
O521 C523 1.240 . S
O522 Co495 2.096 . S
O522 C503 1.247 . S
C523 O520 1.244 1_655 S
C523 O521 1.240 . S
H524 C498 0.931 . S
H525 C507 0.931 . S
H526 C511 0.929 . S
H527 C513 0.930 . S
C528 C529 1.356 1_455 S
C528 C534 1.379 . S
C528 N536 1.356 . S
C529 C528 1.356 1_655 S
C529 C535 1.369 . S
C530 C531 1.363 1_655 S
C530 C535 1.379 . S
C530 N537 1.356 . S
C531 C530 1.363 1_455 S
C531 C534 1.363 . S
N532 C534 1.356 . S
N532 H544 0.984 . S
N532 H545 0.985 . S
N533 C535 1.356 . S
N533 H538 0.984 . S
N533 H539 0.985 . S
C534 C528 1.379 . S
C534 C531 1.363 . S
C534 N532 1.356 . S
C535 C529 1.369 . S
C535 C530 1.379 . S
C535 N533 1.356 . S
N536 C528 1.356 . S
N536 H542 0.984 . S
N536 H543 0.984 . S
N537 C530 1.356 . S
N537 H540 0.984 . S
N537 H541 0.985 . S
H538 N533 0.984 . S
H539 N533 0.985 . S
H540 N537 0.984 . S
H541 N537 0.985 . S
H542 N536 0.984 . S
H543 N536 0.984 . S
H544 N532 0.984 . S
H545 N532 0.985 . S
C546 C547 1.363 . S
C546 C552 1.379 1_455 S
C546 N554 1.356 . S
C547 C546 1.363 . S
C547 C553 1.363 . S
C548 C549 1.363 . S
C548 C553 1.379 1_655 S
C548 N555 1.356 . S
C549 C548 1.363 . S
C549 C552 1.363 . S
N550 C552 1.356 . S
N550 H562 0.984 . S
N550 H563 0.985 . S
N551 C553 1.356 . S
N551 H556 0.984 . S
N551 H557 0.985 . S
C552 C546 1.379 1_655 S
C552 C549 1.363 . S
C552 N550 1.356 . S
C553 C547 1.363 . S
C553 C548 1.379 1_455 S
C553 N551 1.356 . S
N554 C546 1.356 . S
N554 H560 0.984 . S
N554 H561 0.984 . S
N555 C548 1.356 . S
N555 H558 0.984 . S
N555 H559 0.985 . S
H556 N551 0.984 . S
H557 N551 0.985 . S
H558 N555 0.984 . S
H559 N555 0.985 . S
H560 N554 0.984 . S
H561 N554 0.984 . S
H562 N550 0.984 . S
H563 N550 0.985 . S
C564 C565 1.363 . S
C564 C570 1.379 . S
C564 N572 1.356 . S
C565 C564 1.363 . S
C565 C571 1.363 . S
C566 C567 1.363 . S
C566 C571 1.379 . S
C566 N573 1.356 . S
C567 C566 1.363 . S
C567 C570 1.363 . S
N568 C570 1.356 . S
N568 H580 0.984 . S
N568 H581 0.985 . S
N569 C571 1.356 . S
N569 H574 0.984 . S
N569 H575 0.985 . S
C570 C564 1.379 . S
C570 C567 1.363 . S
C570 N568 1.356 . S
C571 C565 1.363 . S
C571 C566 1.379 . S
C571 N569 1.356 . S
N572 C564 1.356 . S
N572 H578 0.984 . S
N572 H579 0.984 . S
N573 C566 1.356 . S
N573 H576 0.984 . S
N573 H577 0.985 . S
H574 N569 0.984 . S
H575 N569 0.985 . S
H576 N573 0.984 . S
H577 N573 0.985 . S
H578 N572 0.984 . S
H579 N572 0.984 . S
H580 N568 0.984 . S
H581 N568 0.985 . S
C582 C583 1.363 . S
C582 C588 1.379 . S
C582 N590 1.356 . S
C583 C582 1.363 . S
C583 C589 1.363 . S
C584 C585 1.363 . S
C584 C589 1.379 . S
C584 N591 1.356 . S
C585 C584 1.363 . S
C585 C588 1.363 . S
N586 C588 1.356 . S
N586 H598 0.984 . S
N586 H599 0.985 . S
N587 C589 1.356 . S
N587 H592 0.984 . S
N587 H593 0.985 . S
C588 C582 1.379 . S
C588 C585 1.363 . S
C588 N586 1.356 . S
C589 C583 1.363 . S
C589 C584 1.379 . S
C589 N587 1.356 . S
N590 C582 1.356 . S
N590 H596 0.984 . S
N590 H597 0.984 . S
N591 C584 1.356 . S
N591 H594 0.984 . S
N591 H595 0.985 . S
H592 N587 0.984 . S
H593 N587 0.985 . S
H594 N591 0.984 . S
H595 N591 0.985 . S
H596 N590 0.984 . S
H597 N590 0.984 . S
H598 N586 0.984 . S
H599 N586 0.985 . S
C600 C601 1.368 . S
C600 C606 1.379 . S
C600 N608 1.356 . S
C601 C600 1.368 . S
C601 C607 1.357 1_655 S
C602 C603 1.363 . S
C602 C607 1.379 . S
C602 N609 1.356 . S
C603 C602 1.363 . S
C603 C606 1.363 1_455 S
N604 C606 1.356 . S
N604 H616 0.984 . S
N604 H617 0.985 . S
N605 C607 1.356 . S
N605 H610 0.984 . S
N605 H611 0.985 . S
C606 C600 1.379 . S
C606 C603 1.363 1_655 S
C606 N604 1.356 . S
C607 C601 1.357 1_455 S
C607 C602 1.379 . S
C607 N605 1.356 . S
N608 C600 1.356 . S
N608 H614 0.984 . S
N608 H615 0.984 . S
N609 C602 1.356 . S
N609 H612 0.984 . S
N609 H613 0.985 . S
H610 N605 0.984 . S
H611 N605 0.985 . S
H612 N609 0.984 . S
H613 N609 0.985 . S
H614 N608 0.984 . S
H615 N608 0.984 . S
H616 N604 0.984 . S
H617 N604 0.985 . S
C618 C619 1.363 . S
C618 C624 1.379 . S
C618 N626 1.356 . S
C619 C618 1.363 . S
C619 C625 1.363 . S
C620 C621 1.363 . S
C620 C625 1.379 . S
C620 N627 1.356 . S
C621 C620 1.363 . S
C621 C624 1.363 . S
N622 C624 1.356 . S
N622 H634 0.984 . S
N622 H635 0.985 . S
N623 C625 1.356 . S
N623 H628 0.984 . S
N623 H629 0.985 . S
C624 C618 1.379 . S
C624 C621 1.363 . S
C624 N622 1.356 . S
C625 C619 1.363 . S
C625 C620 1.379 . S
C625 N623 1.356 . S
N626 C618 1.356 . S
N626 H632 0.984 . S
N626 H633 0.984 . S
N627 C620 1.356 . S
N627 H630 0.984 . S
N627 H631 0.985 . S
H628 N623 0.984 . S
H629 N623 0.985 . S
H630 N627 0.984 . S
H631 N627 0.985 . S
H632 N626 0.984 . S
H633 N626 0.984 . S
H634 N622 0.984 . S
H635 N622 0.985 . S
C636 C637 1.363 . S
C636 C642 1.379 . S
C636 N644 1.356 . S
C637 C636 1.363 . S
C637 C643 1.363 . S
C638 C639 1.363 . S
C638 C643 1.379 . S
C638 N645 1.356 . S
C639 C638 1.363 . S
C639 C642 1.363 . S
N640 C642 1.356 . S
N640 H652 0.984 . S
N640 H653 0.985 . S
N641 C643 1.356 . S
N641 H646 0.984 . S
N641 H647 0.985 . S
C642 C636 1.379 . S
C642 C639 1.363 . S
C642 N640 1.356 . S
C643 C637 1.363 . S
C643 C638 1.379 . S
C643 N641 1.356 . S
N644 C636 1.356 . S
N644 H650 0.984 . S
N644 H651 0.984 . S
N645 C638 1.356 . S
N645 H648 0.984 . S
N645 H649 0.985 . S
H646 N641 0.984 . S
H647 N641 0.985 . S
H648 N645 0.984 . S
H649 N645 0.985 . S
H650 N644 0.984 . S
H651 N644 0.984 . S
H652 N640 0.984 . S
H653 N640 0.985 . S
C654 C655 1.363 . S
C654 C660 1.379 1_655 S
C654 N662 1.356 . S
C655 C654 1.363 . S
C655 C661 1.363 . S
C656 C657 1.363 . S
C656 C661 1.379 1_455 S
C656 N663 1.356 . S
C657 C656 1.363 . S
C657 C660 1.363 . S
N658 C660 1.356 . S
N658 H670 0.984 . S
N658 H671 0.985 . S
N659 C661 1.356 . S
N659 H664 0.984 . S
N659 H665 0.985 . S
C660 C654 1.379 1_455 S
C660 C657 1.363 . S
C660 N658 1.356 . S
C661 C655 1.363 . S
C661 C656 1.379 1_655 S
C661 N659 1.356 . S
N662 C654 1.356 . S
N662 H668 0.984 . S
N662 H669 0.984 . S
N663 C656 1.356 . S
N663 H666 0.984 . S
N663 H667 0.985 . S
H664 N659 0.984 . S
H665 N659 0.985 . S
H666 N663 0.984 . S
H667 N663 0.985 . S
H668 N662 0.984 . S
H669 N662 0.984 . S
H670 N658 0.984 . S
H671 N658 0.985 . S
C672 C673 1.363 1_655 S
C672 C678 1.379 1_554 S
C672 N680 1.356 . S
C673 C672 1.363 1_455 S
C673 C679 1.363 . S
C674 C675 1.363 . S
C674 C679 1.379 1_556 S
C674 N681 1.356 1_545 S
C675 C674 1.363 . S
C675 C678 1.363 1_455 S
N676 C678 1.356 . S
N676 H688 0.984 . S
N676 H689 0.985 . S
N677 C679 1.356 . S
N677 H682 0.984 . S
N677 H683 0.985 1_545 S
C678 C672 1.379 1_556 S
C678 C675 1.363 1_655 S
C678 N676 1.356 . S
C679 C673 1.363 . S
C679 C674 1.379 1_554 S
C679 N677 1.356 . S
N680 C672 1.356 . S
N680 H686 0.984 . S
N680 H687 0.984 . S
N681 C674 1.356 1_565 S
N681 H684 0.984 . S
N681 H685 0.985 . S
H682 N677 0.984 . S
H683 N677 0.985 1_565 S
H684 N681 0.984 . S
H685 N681 0.985 . S
H686 N680 0.984 . S
H687 N680 0.984 . S
H688 N676 0.984 . S
H689 N676 0.985 . S
C690 C691 1.363 . S
C690 C696 1.379 . S
C690 N698 1.356 . S
C691 C690 1.363 . S
C691 C697 1.363 . S
C692 C693 1.363 . S
C692 C697 1.379 . S
C692 N699 1.356 . S
C693 C692 1.363 . S
C693 C696 1.363 . S
N694 C696 1.356 . S
N694 H706 0.984 . S
N694 H707 0.985 . S
N695 C697 1.356 . S
N695 H700 0.984 . S
N695 H701 0.985 . S
C696 C690 1.379 . S
C696 C693 1.363 . S
C696 N694 1.356 . S
C697 C691 1.363 . S
C697 C692 1.379 . S
C697 N695 1.356 . S
N698 C690 1.356 . S
N698 H704 0.984 . S
N698 H705 0.984 . S
N699 C692 1.356 . S
N699 H702 0.984 . S
N699 H703 0.985 . S
H700 N695 0.984 . S
H701 N695 0.985 . S
H702 N699 0.984 . S
H703 N699 0.985 . S
H704 N698 0.984 . S
H705 N698 0.984 . S
H706 N694 0.984 . S
H707 N694 0.985 . S
C708 C709 1.363 . S
C708 C714 1.379 . S
C708 N716 1.356 . S
C709 C708 1.363 . S
C709 C715 1.363 . S
C710 C711 1.363 . S
C710 C715 1.379 . S
C710 N717 1.356 . S
C711 C710 1.363 . S
C711 C714 1.363 . S
N712 C714 1.356 . S
N712 H724 0.984 . S
N712 H725 0.985 . S
N713 C715 1.356 . S
N713 H718 0.984 . S
N713 H719 0.985 . S
C714 C708 1.379 . S
C714 C711 1.363 . S
C714 N712 1.356 . S
C715 C709 1.363 . S
C715 C710 1.379 . S
C715 N713 1.356 . S
N716 C708 1.356 . S
N716 H722 0.984 . S
N716 H723 0.984 . S
N717 C710 1.356 . S
N717 H720 0.984 . S
N717 H721 0.985 . S
H718 N713 0.984 . S
H719 N713 0.985 . S
H720 N717 0.984 . S
H721 N717 0.985 . S
H722 N716 0.984 . S
H723 N716 0.984 . S
H724 N712 0.984 . S
H725 N712 0.985 . S
C726 C727 1.363 . S
C726 C732 1.379 . S
C726 N734 1.356 . S
C727 C726 1.363 . S
C727 C733 1.363 . S
C728 C729 1.363 . S
C728 C733 1.379 . S
C728 N735 1.356 . S
C729 C728 1.363 . S
C729 C732 1.363 . S
N730 C732 1.356 . S
N730 H742 0.984 . S
N730 H743 0.985 . S
N731 C733 1.356 . S
N731 H736 0.984 . S
N731 H737 0.985 . S
C732 C726 1.379 . S
C732 C729 1.363 . S
C732 N730 1.356 . S
C733 C727 1.363 . S
C733 C728 1.379 . S
C733 N731 1.356 . S
N734 C726 1.356 . S
N734 H740 0.984 . S
N734 H741 0.984 . S
N735 C728 1.356 . S
N735 H738 0.984 . S
N735 H739 0.985 . S
H736 N731 0.984 . S
H737 N731 0.985 . S
H738 N735 0.984 . S
H739 N735 0.985 . S
H740 N734 0.984 . S
H741 N734 0.984 . S
H742 N730 0.984 . S
H743 N730 0.985 . S
C744 C745 1.363 . S
C744 C750 1.379 . S
C744 N752 1.356 . S
C745 C744 1.363 . S
C745 C751 1.363 . S
C746 C747 1.363 . S
C746 C751 1.379 . S
C746 N753 1.356 . S
C747 C746 1.363 . S
C747 C750 1.363 . S
N748 C750 1.356 . S
N748 H760 0.984 . S
N748 H761 0.985 . S
N749 C751 1.356 . S
N749 H754 0.984 . S
N749 H755 0.985 . S
C750 C744 1.379 . S
C750 C747 1.363 . S
C750 N748 1.356 . S
C751 C745 1.363 . S
C751 C746 1.379 . S
C751 N749 1.356 . S
N752 C744 1.356 . S
N752 H758 0.984 . S
N752 H759 0.984 . S
N753 C746 1.356 . S
N753 H756 0.984 . S
N753 H757 0.985 . S
H754 N749 0.984 . S
H755 N749 0.985 . S
H756 N753 0.984 . S
H757 N753 0.985 . S
H758 N752 0.984 . S
H759 N752 0.984 . S
H760 N748 0.984 . S
H761 N748 0.985 . S
C762 C763 1.363 . S
C762 C768 1.379 . S
C762 N770 1.356 . S
C763 C762 1.363 . S
C763 C769 1.363 . S
C764 C765 1.363 . S
C764 C769 1.379 . S
C764 N771 1.356 . S
C765 C764 1.363 . S
C765 C768 1.363 . S
N766 C768 1.356 . S
N766 H778 0.984 . S
N766 H779 0.985 . S
N767 C769 1.356 . S
N767 H772 0.984 . S
N767 H773 0.985 . S
C768 C762 1.379 . S
C768 C765 1.363 . S
C768 N766 1.356 . S
C769 C763 1.363 . S
C769 C764 1.379 . S
C769 N767 1.356 . S
N770 C762 1.356 . S
N770 H776 0.984 . S
N770 H777 0.984 . S
N771 C764 1.356 . S
N771 H774 0.984 . S
N771 H775 0.985 . S
H772 N767 0.984 . S
H773 N767 0.985 . S
H774 N771 0.984 . S
H775 N771 0.985 . S
H776 N770 0.984 . S
H777 N770 0.984 . S
H778 N766 0.984 . S
H779 N766 0.985 . S
C780 C781 1.363 . S
C780 C786 1.379 . S
C780 N788 1.356 . S
C781 C780 1.363 . S
C781 C787 1.363 . S
C782 C783 1.363 . S
C782 C787 1.379 . S
C782 N789 1.356 . S
C783 C782 1.363 . S
C783 C786 1.363 . S
N784 C786 1.356 . S
N784 H796 0.984 . S
N784 H797 0.985 . S
N785 C787 1.356 . S
N785 H790 0.984 . S
N785 H791 0.985 . S
C786 C780 1.379 . S
C786 C783 1.363 . S
C786 N784 1.356 . S
C787 C781 1.363 . S
C787 C782 1.379 . S
C787 N785 1.356 . S
N788 C780 1.356 . S
N788 H794 0.984 . S
N788 H795 0.984 . S
N789 C782 1.356 . S
N789 H792 0.984 . S
N789 H793 0.985 . S
H790 N785 0.984 . S
H791 N785 0.985 . S
H792 N789 0.984 . S
H793 N789 0.985 . S
H794 N788 0.984 . S
H795 N788 0.984 . S
H796 N784 0.984 . S
H797 N784 0.985 . S
C798 C799 1.362 1_655 S
C798 C804 1.379 1_556 S
C798 N806 1.356 . S
C799 C798 1.362 1_455 S
C799 C805 1.364 . S
C800 C801 1.363 . S
C800 C805 1.379 1_554 S
C800 N807 1.356 . S
C801 C800 1.363 . S
C801 C804 1.363 1_455 S
N802 C804 1.356 . S
N802 H814 0.984 . S
N802 H815 0.985 . S
N803 C805 1.356 . S
N803 H808 0.984 . S
N803 H809 0.985 . S
C804 C798 1.379 1_554 S
C804 C801 1.363 1_655 S
C804 N802 1.356 . S
C805 C799 1.364 . S
C805 C800 1.379 1_556 S
C805 N803 1.356 . S
N806 C798 1.356 . S
N806 H812 0.984 . S
N806 H813 0.984 . S
N807 C800 1.356 . S
N807 H810 0.984 . S
N807 H811 0.985 . S
H808 N803 0.984 . S
H809 N803 0.985 . S
H810 N807 0.984 . S
H811 N807 0.985 . S
H812 N806 0.984 . S
H813 N806 0.984 . S
H814 N802 0.984 . S
H815 N802 0.985 . S
C816 C817 1.363 . S
C816 C822 1.379 . S
C816 N824 1.356 . S
C817 C816 1.363 . S
C817 C823 1.363 . S
C818 C819 1.363 1_545 S
C818 C823 1.379 1_545 S
C818 N825 1.356 . S
C819 C818 1.363 1_565 S
C819 C822 1.363 . S
N820 C822 1.356 . S
N820 H832 0.984 . S
N820 H833 0.985 . S
N821 C823 1.356 . S
N821 H826 0.984 . S
N821 H827 0.985 1_565 S
C822 C816 1.379 . S
C822 C819 1.363 . S
C822 N820 1.356 . S
C823 C817 1.363 . S
C823 C818 1.379 1_565 S
C823 N821 1.356 . S
N824 C816 1.356 . S
N824 H830 0.984 . S
N824 H831 0.984 . S
N825 C818 1.356 . S
N825 H828 0.984 . S
N825 H829 0.985 . S
H826 N821 0.984 . S
H827 N821 0.985 1_545 S
H828 N825 0.984 . S
H829 N825 0.985 . S
H830 N824 0.984 . S
H831 N824 0.984 . S
H832 N820 0.984 . S
H833 N820 0.985 . S
C834 C835 1.363 . S
C834 C840 1.379 . S
C834 N842 1.356 . S
C835 C834 1.363 . S
C835 C841 1.363 . S
C836 C837 1.363 . S
C836 C841 1.379 . S
C836 N843 1.356 1_565 S
C837 C836 1.363 . S
C837 C840 1.363 . S
N838 C840 1.356 1_545 S
N838 H850 0.984 1_545 S
N838 H851 0.985 . S
N839 C841 1.356 . S
N839 H844 0.984 . S
N839 H845 0.985 . S
C840 C834 1.379 . S
C840 C837 1.363 . S
C840 N838 1.356 1_565 S
C841 C835 1.363 . S
C841 C836 1.379 . S
C841 N839 1.356 . S
N842 C834 1.356 . S
N842 H848 0.984 . S
N842 H849 0.984 . S
N843 C836 1.356 1_545 S
N843 H846 0.984 . S
N843 H847 0.985 . S
H844 N839 0.984 . S
H845 N839 0.985 . S
H846 N843 0.984 . S
H847 N843 0.985 . S
H848 N842 0.984 . S
H849 N842 0.984 . S
H850 N838 0.984 1_565 S
H851 N838 0.985 . S
C852 C853 1.363 . S
C852 C858 1.379 . S
C852 N860 1.356 . S
C853 C852 1.363 . S
C853 C859 1.363 . S
C854 C855 1.363 . S
C854 C859 1.379 . S
C854 N861 1.356 . S
C855 C854 1.363 . S
C855 C858 1.363 . S
N856 C858 1.356 . S
N856 H868 0.984 . S
N856 H869 0.985 . S
N857 C859 1.356 . S
N857 H862 0.984 . S
N857 H863 0.985 . S
C858 C852 1.379 . S
C858 C855 1.363 . S
C858 N856 1.356 . S
C859 C853 1.363 . S
C859 C854 1.379 . S
C859 N857 1.356 . S
N860 C852 1.356 . S
N860 H866 0.984 . S
N860 H867 0.984 . S
N861 C854 1.356 . S
N861 H864 0.984 . S
N861 H865 0.985 . S
H862 N857 0.984 . S
H863 N857 0.985 . S
H864 N861 0.984 . S
H865 N861 0.985 . S
H866 N860 0.984 . S
H867 N860 0.984 . S
H868 N856 0.984 . S
H869 N856 0.985 . S
C870 C871 1.363 . S
C870 C876 1.379 . S
C870 N878 1.356 . S
C871 C870 1.363 . S
C871 C877 1.363 . S
C872 C873 1.363 . S
C872 C877 1.379 . S
C872 N879 1.356 . S
C873 C872 1.363 . S
C873 C876 1.363 . S
N874 C876 1.356 . S
N874 H886 0.984 . S
N874 H887 0.985 . S
N875 C877 1.356 . S
N875 H880 0.984 . S
N875 H881 0.985 . S
C876 C870 1.379 . S
C876 C873 1.363 . S
C876 N874 1.356 . S
C877 C871 1.363 . S
C877 C872 1.379 . S
C877 N875 1.356 . S
N878 C870 1.356 . S
N878 H884 0.984 . S
N878 H885 0.984 . S
N879 C872 1.356 . S
N879 H882 0.984 . S
N879 H883 0.985 . S
H880 N875 0.984 . S
H881 N875 0.985 . S
H882 N879 0.984 . S
H883 N879 0.985 . S
H884 N878 0.984 . S
H885 N878 0.984 . S
H886 N874 0.984 . S
H887 N874 0.985 . S
C888 C889 1.363 . S
C888 C894 1.379 . S
C888 N896 1.356 . S
C889 C888 1.363 . S
C889 C895 1.363 . S
C890 C891 1.363 . S
C890 C895 1.379 . S
C890 N897 1.356 . S
C891 C890 1.363 . S
C891 C894 1.363 . S
N892 C894 1.356 . S
N892 H904 0.984 . S
N892 H905 0.985 . S
N893 C895 1.356 . S
N893 H898 0.984 . S
N893 H899 0.985 . S
C894 C888 1.379 . S
C894 C891 1.363 . S
C894 N892 1.356 . S
C895 C889 1.363 . S
C895 C890 1.379 . S
C895 N893 1.356 . S
N896 C888 1.356 . S
N896 H902 0.984 . S
N896 H903 0.984 . S
N897 C890 1.356 . S
N897 H900 0.984 . S
N897 H901 0.985 . S
H898 N893 0.984 . S
H899 N893 0.985 . S
H900 N897 0.984 . S
H901 N897 0.985 . S
H902 N896 0.984 . S
H903 N896 0.984 . S
H904 N892 0.984 . S
H905 N892 0.985 . S
C906 C907 1.363 . S
C906 C912 1.379 . S
C906 N914 1.356 . S
C907 C906 1.363 . S
C907 C913 1.363 . S
C908 C909 1.363 . S
C908 C913 1.379 . S
C908 N915 1.356 . S
C909 C908 1.363 . S
C909 C912 1.363 . S
N910 C912 1.356 . S
N910 H922 0.984 . S
N910 H923 0.985 . S
N911 C913 1.356 . S
N911 H916 0.984 . S
N911 H917 0.985 . S
C912 C906 1.379 . S
C912 C909 1.363 . S
C912 N910 1.356 . S
C913 C907 1.363 . S
C913 C908 1.379 . S
C913 N911 1.356 . S
N914 C906 1.356 . S
N914 H920 0.984 . S
N914 H921 0.984 . S
N915 C908 1.356 . S
N915 H918 0.984 . S
N915 H919 0.985 . S
H916 N911 0.984 . S
H917 N911 0.985 . S
H918 N915 0.984 . S
H919 N915 0.985 . S
H920 N914 0.984 . S
H921 N914 0.984 . S
H922 N910 0.984 . S
H923 N910 0.985 . S
C924 C925 1.363 . S
C924 C930 1.379 1_565 S
C924 N932 1.356 . S
C925 C924 1.363 . S
C925 C931 1.363 . S
C926 C927 1.363 . S
C926 C931 1.379 1_545 S
C926 N933 1.356 . S
C927 C926 1.363 . S
C927 C930 1.363 . S
N928 C930 1.356 . S
N928 H940 0.984 . S
N928 H941 0.985 . S
N929 C931 1.356 . S
N929 H934 0.984 . S
N929 H935 0.985 . S
C930 C924 1.379 1_545 S
C930 C927 1.363 . S
C930 N928 1.356 . S
C931 C925 1.363 . S
C931 C926 1.379 1_565 S
C931 N929 1.356 . S
N932 C924 1.356 . S
N932 H938 0.984 . S
N932 H939 0.984 . S
N933 C926 1.356 . S
N933 H936 0.984 . S
N933 H937 0.985 . S
H934 N929 0.984 . S
H935 N929 0.985 . S
H936 N933 0.984 . S
H937 N933 0.985 . S
H938 N932 0.984 . S
H939 N932 0.984 . S
H940 N928 0.984 . S
H941 N928 0.985 . S
C942 C943 1.363 . S
C942 C948 1.380 1_565 S
C942 N950 1.356 . S
C943 C942 1.363 . S
C943 C949 1.363 1_565 S
C944 C945 1.363 . S
C944 C949 1.379 . S
C944 N951 1.356 . S
C945 C944 1.363 . S
C945 C948 1.362 . S
N946 C948 1.356 . S
N946 H958 0.984 1_545 S
N946 H959 0.985 . S
N947 C949 1.356 1_565 S
N947 H952 0.984 . S
N947 H953 0.985 1_565 S
C948 C942 1.380 1_545 S
C948 C945 1.362 . S
C948 N946 1.356 . S
C949 C943 1.363 1_545 S
C949 C944 1.379 . S
C949 N947 1.356 1_545 S
N950 C942 1.356 . S
N950 H956 0.984 . S
N950 H957 0.984 . S
N951 C944 1.356 . S
N951 H954 0.984 . S
N951 H955 0.985 . S
H952 N947 0.984 . S
H953 N947 0.985 1_545 S
H954 N951 0.984 . S
H955 N951 0.985 . S
H956 N950 0.984 . S
H957 N950 0.984 . S
H958 N946 0.984 1_565 S
H959 N946 0.985 . S
C960 C961 1.363 . S
C960 C966 1.379 . S
C960 N968 1.356 . S
C961 C960 1.363 . S
C961 C967 1.363 . S
C962 C963 1.363 . S
C962 C967 1.379 . S
C962 N969 1.356 . S
C963 C962 1.363 . S
C963 C966 1.363 . S
N964 C966 1.356 . S
N964 H976 0.984 . S
N964 H977 0.985 . S
N965 C967 1.356 . S
N965 H970 0.984 . S
N965 H971 0.985 . S
C966 C960 1.379 . S
C966 C963 1.363 . S
C966 N964 1.356 . S
C967 C961 1.363 . S
C967 C962 1.379 . S
C967 N965 1.356 . S
N968 C960 1.356 . S
N968 H974 0.984 . S
N968 H975 0.984 . S
N969 C962 1.356 . S
N969 H972 0.984 . S
N969 H973 0.985 . S
H970 N965 0.984 . S
H971 N965 0.985 . S
H972 N969 0.984 . S
H973 N969 0.985 . S
H974 N968 0.984 . S
H975 N968 0.984 . S
H976 N964 0.984 . S
H977 N964 0.985 . S
C978 C979 1.363 . S
C978 C984 1.379 . S
C978 N986 1.356 . S
C979 C978 1.363 . S
C979 C985 1.363 . S
C980 C981 1.363 . S
C980 C985 1.379 . S
C980 N987 1.356 . S
C981 C980 1.363 . S
C981 C984 1.363 . S
N982 C984 1.356 . S
N982 H994 0.984 . S
N982 H995 0.985 . S
N983 C985 1.356 . S
N983 H988 0.984 . S
N983 H989 0.985 . S
C984 C978 1.379 . S
C984 C981 1.363 . S
C984 N982 1.356 . S
C985 C979 1.363 . S
C985 C980 1.379 . S
C985 N983 1.356 . S
N986 C978 1.356 . S
N986 H992 0.984 . S
N986 H993 0.984 . S
N987 C980 1.356 . S
N987 H990 0.984 . S
N987 H991 0.985 . S
H988 N983 0.984 . S
H989 N983 0.985 . S
H990 N987 0.984 . S
H991 N987 0.985 . S
H992 N986 0.984 . S
H993 N986 0.984 . S
H994 N982 0.984 . S
H995 N982 0.985 . S
C996 C997 1.363 . S
C996 C1002 1.379 . S
C996 N1004 1.356 . S
C997 C996 1.363 . S
C997 C1003 1.363 . S
C998 C999 1.363 . S
C998 C1003 1.379 . S
C998 N1005 1.356 . S
C999 C998 1.363 . S
C999 C1002 1.363 . S
N1000 C1002 1.356 . S
N1000 H1012 0.984 . S
N1000 H1013 0.985 . S
N1001 C1003 1.356 . S
N1001 H1006 0.984 . S
N1001 H1007 0.985 . S
C1002 C996 1.379 . S
C1002 C999 1.363 . S
C1002 N1000 1.356 . S
C1003 C997 1.363 . S
C1003 C998 1.379 . S
C1003 N1001 1.356 . S
N1004 C996 1.356 . S
N1004 H1010 0.984 . S
N1004 H1011 0.984 . S
N1005 C998 1.356 . S
N1005 H1008 0.984 . S
N1005 H1009 0.985 . S
H1006 N1001 0.984 . S
H1007 N1001 0.985 . S
H1008 N1005 0.984 . S
H1009 N1005 0.985 . S
H1010 N1004 0.984 . S
H1011 N1004 0.984 . S
H1012 N1000 0.984 . S
H1013 N1000 0.985 . S
C1014 C1015 1.363 . S
C1014 C1020 1.379 . S
C1014 N1022 1.356 . S
C1015 C1014 1.363 . S
C1015 C1021 1.363 . S
C1016 C1017 1.363 . S
C1016 C1021 1.379 . S
C1016 N1023 1.356 . S
C1017 C1016 1.363 . S
C1017 C1020 1.363 . S
N1018 C1020 1.356 . S
N1018 H1030 0.984 . S
N1018 H1031 0.985 . S
N1019 C1021 1.356 . S
N1019 H1024 0.984 . S
N1019 H1025 0.985 . S
C1020 C1014 1.379 . S
C1020 C1017 1.363 . S
C1020 N1018 1.356 . S
C1021 C1015 1.363 . S
C1021 C1016 1.379 . S
C1021 N1019 1.356 . S
N1022 C1014 1.356 . S
N1022 H1028 0.984 . S
N1022 H1029 0.984 . S
N1023 C1016 1.356 . S
N1023 H1026 0.984 . S
N1023 H1027 0.985 . S
H1024 N1019 0.984 . S
H1025 N1019 0.985 . S
H1026 N1023 0.984 . S
H1027 N1023 0.985 . S
H1028 N1022 0.984 . S
H1029 N1022 0.984 . S
H1030 N1018 0.984 . S
H1031 N1018 0.985 . S
C1032 C1033 1.363 . S
C1032 C1038 1.379 . S
C1032 N1040 1.356 . S
C1033 C1032 1.363 . S
C1033 C1039 1.363 . S
C1034 C1035 1.363 . S
C1034 C1039 1.379 . S
C1034 N1041 1.356 . S
C1035 C1034 1.363 . S
C1035 C1038 1.363 . S
N1036 C1038 1.356 . S
N1036 H1048 0.984 . S
N1036 H1049 0.985 . S
N1037 C1039 1.356 . S
N1037 H1042 0.984 . S
N1037 H1043 0.985 . S
C1038 C1032 1.379 . S
C1038 C1035 1.363 . S
C1038 N1036 1.356 . S
C1039 C1033 1.363 . S
C1039 C1034 1.379 . S
C1039 N1037 1.356 . S
N1040 C1032 1.356 . S
N1040 H1046 0.984 . S
N1040 H1047 0.984 . S
N1041 C1034 1.356 . S
N1041 H1044 0.984 . S
N1041 H1045 0.985 . S
H1042 N1037 0.984 . S
H1043 N1037 0.985 . S
H1044 N1041 0.984 . S
H1045 N1041 0.985 . S
H1046 N1040 0.984 . S
H1047 N1040 0.984 . S
H1048 N1036 0.984 . S
H1049 N1036 0.985 . S
C1050 C1051 1.363 . S
C1050 C1056 1.379 . S
C1050 N1058 1.356 . S
C1051 C1050 1.363 . S
C1051 C1057 1.363 . S
C1052 C1053 1.363 . S
C1052 C1057 1.379 . S
C1052 N1059 1.356 . S
C1053 C1052 1.363 . S
C1053 C1056 1.363 . S
N1054 C1056 1.356 . S
N1054 H1066 0.984 . S
N1054 H1067 0.985 . S
N1055 C1057 1.356 . S
N1055 H1060 0.984 . S
N1055 H1061 0.985 . S
C1056 C1050 1.379 . S
C1056 C1053 1.363 . S
C1056 N1054 1.356 . S
C1057 C1051 1.363 . S
C1057 C1052 1.379 . S
C1057 N1055 1.356 . S
N1058 C1050 1.356 . S
N1058 H1064 0.984 . S
N1058 H1065 0.984 . S
N1059 C1052 1.356 . S
N1059 H1062 0.984 . S
N1059 H1063 0.985 . S
H1060 N1055 0.984 . S
H1061 N1055 0.985 . S
H1062 N1059 0.984 . S
H1063 N1059 0.985 . S
H1064 N1058 0.984 . S
H1065 N1058 0.984 . S
H1066 N1054 0.984 . S
H1067 N1054 0.985 . S
C1068 C1069 1.363 . S
C1068 C1074 1.379 . S
C1068 N1076 1.356 . S
C1069 C1068 1.363 . S
C1069 C1075 1.363 . S
C1070 C1071 1.363 . S
C1070 C1075 1.379 . S
C1070 N1077 1.356 . S
C1071 C1070 1.363 . S
C1071 C1074 1.363 . S
N1072 C1074 1.356 . S
N1072 H1084 0.984 . S
N1072 H1085 0.985 . S
N1073 C1075 1.356 . S
N1073 H1078 0.984 . S
N1073 H1079 0.985 . S
C1074 C1068 1.379 . S
C1074 C1071 1.363 . S
C1074 N1072 1.356 . S
C1075 C1069 1.363 . S
C1075 C1070 1.379 . S
C1075 N1073 1.356 . S
N1076 C1068 1.356 . S
N1076 H1082 0.984 . S
N1076 H1083 0.984 . S
N1077 C1070 1.356 . S
N1077 H1080 0.984 . S
N1077 H1081 0.985 . S
H1078 N1073 0.984 . S
H1079 N1073 0.985 . S
H1080 N1077 0.984 . S
H1081 N1077 0.985 . S
H1082 N1076 0.984 . S
H1083 N1076 0.984 . S
H1084 N1072 0.984 . S
H1085 N1072 0.985 . S
C1086 C1087 1.363 . S
C1086 C1092 1.379 . S
C1086 N1094 1.356 . S
C1087 C1086 1.363 . S
C1087 C1093 1.363 . S
C1088 C1089 1.363 . S
C1088 C1093 1.379 . S
C1088 N1095 1.356 . S
C1089 C1088 1.363 . S
C1089 C1092 1.363 . S
N1090 C1092 1.356 . S
N1090 H1102 0.984 . S
N1090 H1103 0.985 . S
N1091 C1093 1.356 . S
N1091 H1096 0.984 . S
N1091 H1097 0.985 . S
C1092 C1086 1.379 . S
C1092 C1089 1.363 . S
C1092 N1090 1.356 . S
C1093 C1087 1.363 . S
C1093 C1088 1.379 . S
C1093 N1091 1.356 . S
N1094 C1086 1.356 . S
N1094 H1100 0.984 . S
N1094 H1101 0.984 . S
N1095 C1088 1.356 . S
N1095 H1098 0.984 . S
N1095 H1099 0.985 . S
H1096 N1091 0.984 . S
H1097 N1091 0.985 . S
H1098 N1095 0.984 . S
H1099 N1095 0.985 . S
H1100 N1094 0.984 . S
H1101 N1094 0.984 . S
H1102 N1090 0.984 . S
H1103 N1090 0.985 . S
C1104 C1105 1.363 . S
C1104 C1110 1.379 . S
C1104 N1112 1.356 . S
C1105 C1104 1.363 . S
C1105 C1111 1.363 1_455 S
C1106 C1107 1.363 . S
C1106 C1111 1.379 . S
C1106 N1113 1.356 . S
C1107 C1106 1.363 . S
C1107 C1110 1.363 1_655 S
N1108 C1110 1.356 . S
N1108 H1120 0.984 . S
N1108 H1121 0.985 1_455 S
N1109 C1111 1.356 . S
N1109 H1114 0.984 1_655 S
N1109 H1115 0.985 . S
C1110 C1104 1.379 . S
C1110 C1107 1.363 1_455 S
C1110 N1108 1.356 . S
C1111 C1105 1.363 1_655 S
C1111 C1106 1.379 . S
C1111 N1109 1.356 . S
N1112 C1104 1.356 . S
N1112 H1118 0.984 . S
N1112 H1119 0.984 . S
N1113 C1106 1.356 . S
N1113 H1116 0.984 . S
N1113 H1117 0.985 . S
H1114 N1109 0.984 1_455 S
H1115 N1109 0.985 . S
H1116 N1113 0.984 . S
H1117 N1113 0.985 . S
H1118 N1112 0.984 . S
H1119 N1112 0.984 . S
H1120 N1108 0.984 . S
H1121 N1108 0.985 1_655 S
C1122 C1123 1.363 . S
C1122 C1128 1.379 . S
C1122 N1130 1.356 . S
C1123 C1122 1.363 . S
C1123 C1129 1.363 . S
C1124 C1125 1.363 . S
C1124 C1129 1.379 . S
C1124 N1131 1.356 . S
C1125 C1124 1.363 . S
C1125 C1128 1.363 . S
N1126 C1128 1.356 . S
N1126 H1138 0.984 . S
N1126 H1139 0.985 . S
N1127 C1129 1.356 . S
N1127 H1132 0.984 . S
N1127 H1133 0.985 . S
C1128 C1122 1.379 . S
C1128 C1125 1.363 . S
C1128 N1126 1.356 . S
C1129 C1123 1.363 . S
C1129 C1124 1.379 . S
C1129 N1127 1.356 . S
N1130 C1122 1.356 . S
N1130 H1136 0.984 . S
N1130 H1137 0.984 . S
N1131 C1124 1.356 . S
N1131 H1134 0.984 . S
N1131 H1135 0.985 . S
H1132 N1127 0.984 . S
H1133 N1127 0.985 . S
H1134 N1131 0.984 . S
H1135 N1131 0.985 . S
H1136 N1130 0.984 . S
H1137 N1130 0.984 . S
H1138 N1126 0.984 . S
H1139 N1126 0.985 . S
C1140 C1141 1.363 . S
C1140 C1146 1.379 . S
C1140 N1148 1.356 . S
C1141 C1140 1.363 . S
C1141 C1147 1.363 . S
C1142 C1143 1.363 . S
C1142 C1147 1.379 . S
C1142 N1149 1.356 . S
C1143 C1142 1.363 . S
C1143 C1146 1.363 . S
N1144 C1146 1.356 . S
N1144 H1156 0.984 . S
N1144 H1157 0.985 . S
N1145 C1147 1.356 . S
N1145 H1150 0.984 . S
N1145 H1151 0.985 . S
C1146 C1140 1.379 . S
C1146 C1143 1.363 . S
C1146 N1144 1.356 . S
C1147 C1141 1.363 . S
C1147 C1142 1.379 . S
C1147 N1145 1.356 . S
N1148 C1140 1.356 . S
N1148 H1154 0.984 . S
N1148 H1155 0.984 . S
N1149 C1142 1.356 . S
N1149 H1152 0.984 . S
N1149 H1153 0.985 . S
H1150 N1145 0.984 . S
H1151 N1145 0.985 . S
H1152 N1149 0.984 . S
H1153 N1149 0.985 . S
H1154 N1148 0.984 . S
H1155 N1148 0.984 . S
H1156 N1144 0.984 . S
H1157 N1144 0.985 . S
C1158 C1159 1.363 . S
C1158 C1164 1.379 1_455 S
C1158 N1166 1.356 . S
C1159 C1158 1.363 . S
C1159 C1165 1.363 . S
C1160 C1161 1.363 . S
C1160 C1165 1.379 1_655 S
C1160 N1167 1.356 . S
C1161 C1160 1.363 . S
C1161 C1164 1.363 . S
N1162 C1164 1.356 . S
N1162 H1174 0.984 . S
N1162 H1175 0.985 . S
N1163 C1165 1.356 . S
N1163 H1168 0.984 . S
N1163 H1169 0.985 . S
C1164 C1158 1.379 1_655 S
C1164 C1161 1.363 . S
C1164 N1162 1.356 . S
C1165 C1159 1.363 . S
C1165 C1160 1.379 1_455 S
C1165 N1163 1.356 . S
N1166 C1158 1.356 . S
N1166 H1172 0.984 . S
N1166 H1173 0.984 . S
N1167 C1160 1.356 . S
N1167 H1170 0.984 . S
N1167 H1171 0.985 . S
H1168 N1163 0.984 . S
H1169 N1163 0.985 . S
H1170 N1167 0.984 . S
H1171 N1167 0.985 . S
H1172 N1166 0.984 . S
H1173 N1166 0.984 . S
H1174 N1162 0.984 . S
H1175 N1162 0.985 . S
C1176 C1177 1.363 . S
C1176 C1182 1.379 . S
C1176 N1184 1.356 . S
C1177 C1176 1.363 . S
C1177 C1183 1.363 1_455 S
C1178 C1179 1.363 . S
C1178 C1183 1.379 . S
C1178 N1185 1.356 . S
C1179 C1178 1.363 . S
C1179 C1182 1.363 1_655 S
N1180 C1182 1.356 . S
N1180 H1192 0.984 . S
N1180 H1193 0.985 1_455 S
N1181 C1183 1.356 . S
N1181 H1186 0.984 1_655 S
N1181 H1187 0.985 . S
C1182 C1176 1.379 . S
C1182 C1179 1.363 1_455 S
C1182 N1180 1.356 . S
C1183 C1177 1.363 1_655 S
C1183 C1178 1.379 . S
C1183 N1181 1.356 . S
N1184 C1176 1.356 . S
N1184 H1190 0.984 . S
N1184 H1191 0.984 . S
N1185 C1178 1.356 . S
N1185 H1188 0.984 . S
N1185 H1189 0.985 . S
H1186 N1181 0.984 1_455 S
H1187 N1181 0.985 . S
H1188 N1185 0.984 . S
H1189 N1185 0.985 . S
H1190 N1184 0.984 . S
H1191 N1184 0.984 . S
H1192 N1180 0.984 . S
H1193 N1180 0.985 1_655 S
C1194 C1195 1.363 . S
C1194 C1200 1.379 1_455 S
C1194 N1202 1.356 . S
C1195 C1194 1.363 . S
C1195 C1201 1.363 . S
C1196 C1197 1.363 . S
C1196 C1201 1.379 1_655 S
C1196 N1203 1.356 . S
C1197 C1196 1.363 . S
C1197 C1200 1.363 . S
N1198 C1200 1.356 . S
N1198 H1210 0.984 . S
N1198 H1211 0.985 . S
N1199 C1201 1.356 . S
N1199 H1204 0.984 . S
N1199 H1205 0.985 . S
C1200 C1194 1.379 1_655 S
C1200 C1197 1.363 . S
C1200 N1198 1.356 . S
C1201 C1195 1.363 . S
C1201 C1196 1.379 1_455 S
C1201 N1199 1.356 . S
N1202 C1194 1.356 . S
N1202 H1208 0.984 . S
N1202 H1209 0.984 . S
N1203 C1196 1.356 . S
N1203 H1206 0.984 . S
N1203 H1207 0.985 . S
H1204 N1199 0.984 . S
H1205 N1199 0.985 . S
H1206 N1203 0.984 . S
H1207 N1203 0.985 . S
H1208 N1202 0.984 . S
H1209 N1202 0.984 . S
H1210 N1198 0.984 . S
H1211 N1198 0.985 . S
C1212 C1213 1.363 . S
C1212 C1218 1.379 . S
C1212 N1220 1.356 . S
C1213 C1212 1.363 . S
C1213 C1219 1.363 . S
C1214 C1215 1.363 . S
C1214 C1219 1.379 . S
C1214 N1221 1.356 . S
C1215 C1214 1.363 . S
C1215 C1218 1.363 . S
N1216 C1218 1.356 . S
N1216 H1228 0.984 . S
N1216 H1229 0.985 . S
N1217 C1219 1.356 . S
N1217 H1222 0.984 . S
N1217 H1223 0.985 . S
C1218 C1212 1.379 . S
C1218 C1215 1.363 . S
C1218 N1216 1.356 . S
C1219 C1213 1.363 . S
C1219 C1214 1.379 . S
C1219 N1217 1.356 . S
N1220 C1212 1.356 . S
N1220 H1226 0.984 . S
N1220 H1227 0.984 . S
N1221 C1214 1.356 . S
N1221 H1224 0.984 . S
N1221 H1225 0.985 . S
H1222 N1217 0.984 . S
H1223 N1217 0.985 . S
H1224 N1221 0.984 . S
H1225 N1221 0.985 . S
H1226 N1220 0.984 . S
H1227 N1220 0.984 . S
H1228 N1216 0.984 . S
H1229 N1216 0.985 . S
C1230 C1231 1.363 . S
C1230 C1236 1.379 . S
C1230 N1238 1.356 . S
C1231 C1230 1.363 . S
C1231 C1237 1.363 . S
C1232 C1233 1.363 . S
C1232 C1237 1.379 . S
C1232 N1239 1.356 . S
C1233 C1232 1.363 . S
C1233 C1236 1.363 . S
N1234 C1236 1.356 . S
N1234 H1246 0.984 . S
N1234 H1247 0.985 . S
N1235 C1237 1.356 . S
N1235 H1240 0.984 . S
N1235 H1241 0.985 . S
C1236 C1230 1.379 . S
C1236 C1233 1.363 . S
C1236 N1234 1.356 . S
C1237 C1231 1.363 . S
C1237 C1232 1.379 . S
C1237 N1235 1.356 . S
N1238 C1230 1.356 . S
N1238 H1244 0.984 . S
N1238 H1245 0.984 . S
N1239 C1232 1.356 . S
N1239 H1242 0.984 . S
N1239 H1243 0.985 . S
H1240 N1235 0.984 . S
H1241 N1235 0.985 . S
H1242 N1239 0.984 . S
H1243 N1239 0.985 . S
H1244 N1238 0.984 . S
H1245 N1238 0.984 . S
H1246 N1234 0.984 . S
H1247 N1234 0.985 . S
C529 N434 1.348 . S
C531 N5 1.345 . S
C547 N38 1.345 . S
C549 N368 1.345 . S
C565 N71 1.345 . S
C567 N401 1.345 . S
C583 N104 1.345 . S
C585 N335 1.345 . S
C601 N500 1.347 . S
C603 N137 1.345 . S
C619 N170 1.345 . S
C621 N302 1.345 . S
C637 N203 1.345 . S
C639 N467 1.345 . S
C655 N269 1.345 . S
C657 N236 1.345 . S
C673 C28 1.661 . S
C675 C160 1.661 . S
C691 C61 1.661 . S
C693 C193 1.661 . S
C709 C94 1.661 . S
C711 C226 1.661 . S
C727 C259 1.661 . S
C729 C127 1.661 . S
C745 C358 1.661 . S
C747 C292 1.661 . S
C763 C325 1.661 . S
C765 C391 1.661 . S
C781 C490 1.661 . S
C783 C424 1.661 . S
C799 C523 1.661 1_455 S
C801 C457 1.661 1_455 S
C817 C173 1.387 . S
C819 C8 1.387 1_565 S
C835 C41 1.387 . S
C837 C206 1.387 1_565 S
C853 C74 1.386 . S
C855 C239 1.386 . S
C871 C140 1.387 . S
C873 C107 1.387 . S
C889 C149 0.559 . S
C891 C347 0.558 . S
C907 C83 0.559 . S
C909 C281 0.559 . S
C925 C380 0.559 . S
C927 C215 0.559 . S
C943 C314 0.559 . S
C945 C17 0.559 . S
C961 C272 1.387 . S
C963 C404 1.387 . S
C979 C503 1.387 . S
C981 C338 1.387 . S
C997 C437 1.387 . S
C999 C305 1.387 . S
C1015 C371 1.387 . S
C1017 C470 1.387 . S
C1033 C479 0.559 . S
C1035 C50 0.559 . S
C1051 C182 0.559 . S
C1053 C446 0.559 . S
C1069 C512 0.559 . S
C1071 C116 0.559 . S
C1087 C248 0.558 . S
C1089 C413 0.558 . S
C1105 N14 0.870 . S
C1107 N443 0.870 . S
C1123 N47 0.870 . S
C1125 N377 0.870 . S
C1141 N80 0.870 . S
C1143 N410 0.870 . S
C1159 N113 0.870 . S
C1161 N344 0.870 . S
C1177 N146 0.870 . S
C1179 N509 0.870 . S
C1195 N179 0.870 . S
C1197 N311 0.870 . S
C1213 N476 0.870 . S
C1215 N212 0.870 . S
C1231 N278 0.870 . S
C1233 N245 0.870 . S
