# Generated by pormake.
# Topology crb, (4)-cn, num edge types: 1
# Building blocks:
#     Node 0, Type 0, BuildingBlock: TATPOV_clean_sbu_0, # of connection points: 4
#     Node 1, Type 0, BuildingBlock: TATPOV_clean_sbu_0, # of connection points: 4
#     Node 2, Type 0, BuildingBlock: TATPOV_clean_sbu_0, # of connection points: 4
#     Node 3, Type 0, BuildingBlock: TATPOV_clean_sbu_0, # of connection points: 4
#     Node 4, Type 0, BuildingBlock: TATPOV_clean_sbu_0, # of connection points: 4
#     Node 5, Type 0, BuildingBlock: TATPOV_clean_sbu_0, # of connection points: 4
#     Node 6, Type 0, BuildingBlock: TATPOV_clean_sbu_0, # of connection points: 4
#     Node 7, Type 0, BuildingBlock: TATPOV_clean_sbu_0, # of connection points: 4
#     Edge 8, Type (0, 0), BuildingBlock: UVAHIK_clean_linker_0, # of connection points: 2
#     Edge 9, Type (0, 0), BuildingBlock: UVAHIK_clean_linker_0, # of connection points: 2
#     Edge 10, Type (0, 0), BuildingBlock: UVAHIK_clean_linker_0, # of connection points: 2
#     Edge 11, Type (0, 0), BuildingBlock: UVAHIK_clean_linker_0, # of connection points: 2
#     Edge 12, Type (0, 0), BuildingBlock: UVAHIK_clean_linker_0, # of connection points: 2
#     Edge 13, Type (0, 0), BuildingBlock: UVAHIK_clean_linker_0, # of connection points: 2
#     Edge 14, Type (0, 0), BuildingBlock: UVAHIK_clean_linker_0, # of connection points: 2
#     Edge 15, Type (0, 0), BuildingBlock: UVAHIK_clean_linker_0, # of connection points: 2
#     Edge 16, Type (0, 0), BuildingBlock: UVAHIK_clean_linker_0, # of connection points: 2
#     Edge 17, Type (0, 0), BuildingBlock: UVAHIK_clean_linker_0, # of connection points: 2
#     Edge 18, Type (0, 0), BuildingBlock: UVAHIK_clean_linker_0, # of connection points: 2
#     Edge 19, Type (0, 0), BuildingBlock: UVAHIK_clean_linker_0, # of connection points: 2
#     Edge 20, Type (0, 0), BuildingBlock: UVAHIK_clean_linker_0, # of connection points: 2
#     Edge 21, Type (0, 0), BuildingBlock: UVAHIK_clean_linker_0, # of connection points: 2
#     Edge 22, Type (0, 0), BuildingBlock: UVAHIK_clean_linker_0, # of connection points: 2
#     Edge 23, Type (0, 0), BuildingBlock: UVAHIK_clean_linker_0, # of connection points: 2
# Relax obj value: 0.016
# Max RMSD: 0.048
# Mean RMSD: 0.048
data_MOF--net-crb--node1-TATPOV_clean_sbu_0--edge1-UVAHIK_clean_linker_0
_symmetry_space_group_name_H-M    P1
_symmetry_Int_Tables_number       1
_symmetry_cell_setting            triclinic
loop_
_symmetry_equiv_pos_as_xyz
'x, y, z'
_cell_length_a     56.081223
_cell_length_b     52.783362
_cell_length_c     32.327447
_cell_angle_alpha  89.968445
_cell_angle_beta   89.996013
_cell_angle_gamma 89.995955
loop_
_atom_site_label
_atom_site_type_symbol
_atom_site_fract_x
_atom_site_fract_y
_atom_site_fract_z
_atom_type_partial_charge
Zn0 Zn 0.35582 0.34045 0.17205 0.0
Zn1 Zn 0.33102 0.31722 0.11067 0.0
O2 O 0.36566 0.30716 0.09852 0.0
O3 O 0.38624 0.32518 0.1485 0.0
O4 O 0.3126 0.3007 0.06439 0.0
O5 O 0.33624 0.32098 0.21388 0.0
O6 O 0.31616 0.30235 0.16388 0.0
C7 C 0.38555 0.31173 0.11605 0.0
C8 C 0.3308 0.37532 0.11882 0.0
O9 O 0.32463 0.35492 0.10075 0.0
O10 O 0.34395 0.37448 0.15067 0.0
C11 C 0.31765 0.30627 0.02711 0.0
O12 O 0.33499 0.32241 0.01981 0.0
C13 C 0.32011 0.30573 0.20235 0.0
Zn14 Zn 0.64387 0.33917 0.87279 0.0
Zn15 Zn 0.66745 0.31565 0.93502 0.0
O16 O 0.63255 0.30563 0.94561 0.0
O17 O 0.61317 0.32341 0.8939 0.0
O18 O 0.68539 0.29891 0.98173 0.0
O19 O 0.66424 0.32045 0.83153 0.0
O20 O 0.68316 0.30107 0.88214 0.0
C21 C 0.61312 0.31006 0.9265 0.0
C22 C 0.66768 0.37381 0.92776 0.0
O23 O 0.67367 0.35331 0.94578 0.0
O24 O 0.655 0.37312 0.89533 0.0
C25 C 0.67995 0.30403 0.019 0.0
O26 O 0.66231 0.31981 0.02626 0.0
C27 C 0.68002 0.30495 0.84355 0.0
Zn28 Zn 0.6463 0.65237 0.16859 0.0
Zn29 Zn 0.66838 0.67662 0.10616 0.0
O30 O 0.63328 0.68682 0.09773 0.0
O31 O 0.61484 0.6661 0.14743 0.0
O32 O 0.68552 0.69395 0.05907 0.0
O33 O 0.66585 0.67205 0.20968 0.0
O34 O 0.68481 0.69095 0.15864 0.0
C35 C 0.61408 0.68069 0.11632 0.0
C36 C 0.67004 0.61837 0.11326 0.0
O37 O 0.67461 0.6389 0.09408 0.0
O38 O 0.65865 0.61889 0.14708 0.0
C39 C 0.68026 0.68851 0.02183 0.0
O40 O 0.66329 0.67193 0.01469 0.0
C41 C 0.68169 0.68739 0.19732 0.0
Zn42 Zn 0.35237 0.65353 0.88001 0.0
Zn43 Zn 0.33075 0.67825 0.94241 0.0
O44 O 0.36603 0.68751 0.95108 0.0
O45 O 0.38414 0.66609 0.90182 0.0
O46 O 0.31401 0.69597 0.9895 0.0
O47 O 0.33374 0.67429 0.83892 0.0
O48 O 0.31497 0.69338 0.88994 0.0
C49 C 0.38514 0.68076 0.93281 0.0
C50 C 0.32757 0.62008 0.93487 0.0
O51 O 0.3236 0.64068 0.95424 0.0
O52 O 0.3389 0.62038 0.90099 0.0
C53 C 0.31891 0.69008 0.02671 0.0
O54 O 0.33516 0.67268 0.03378 0.0
C55 C 0.3183 0.69007 0.85126 0.0
Zn56 Zn 0.8524 0.8419 0.66807 0.0
Zn57 Zn 0.83034 0.81693 0.60577 0.0
O58 O 0.8656 0.80777 0.59705 0.0
O59 O 0.88384 0.82693 0.64865 0.0
O60 O 0.81369 0.79901 0.55883 0.0
O61 O 0.83218 0.82282 0.70917 0.0
O62 O 0.81438 0.80236 0.6585 0.0
C63 C 0.88466 0.81308 0.61668 0.0
C64 C 0.82851 0.87515 0.6109 0.0
O65 O 0.82337 0.85427 0.59329 0.0
O66 O 0.84059 0.87521 0.64402 0.0
C67 C 0.81857 0.80506 0.52169 0.0
O68 O 0.83467 0.82266 0.5148 0.0
C69 C 0.81702 0.80665 0.69709 0.0
Zn70 Zn 0.14442 0.84066 0.37989 0.0
Zn71 Zn 0.16894 0.81856 0.44238 0.0
O72 O 0.13434 0.80792 0.45381 0.0
O73 O 0.11399 0.82518 0.40281 0.0
O74 O 0.18724 0.80252 0.4893 0.0
O75 O 0.16454 0.82147 0.33881 0.0
O76 O 0.18471 0.80382 0.38965 0.0
C77 C 0.11456 0.81203 0.43561 0.0
C78 C 0.16824 0.87651 0.43296 0.0
O79 O 0.17445 0.85648 0.45212 0.0
O80 O 0.15565 0.87502 0.4005 0.0
C81 C 0.1817 0.80778 0.52648 0.0
O82 O 0.1639 0.8234 0.53345 0.0
C83 C 0.18099 0.80682 0.351 0.0
Zn84 Zn 0.14422 0.15549 0.67263 0.0
Zn85 Zn 0.1674 0.17971 0.61063 0.0
O86 O 0.13241 0.18925 0.60003 0.0
O87 O 0.1133 0.17073 0.65137 0.0
O88 O 0.18522 0.19694 0.56428 0.0
O89 O 0.16405 0.1746 0.71421 0.0
O90 O 0.18273 0.19438 0.66375 0.0
C91 C 0.11304 0.1843 0.61901 0.0
C92 C 0.16843 0.12152 0.6171 0.0
O93 O 0.17401 0.1422 0.59923 0.0
O94 O 0.15597 0.12185 0.6498 0.0
C95 C 0.18023 0.19156 0.52692 0.0
O96 O 0.1631 0.17521 0.51936 0.0
C97 C 0.17955 0.19045 0.70231 0.0
Zn98 Zn 0.85527 0.15495 0.37274 0.0
Zn99 Zn 0.83061 0.17724 0.43498 0.0
O100 O 0.8653 0.18711 0.44716 0.0
O101 O 0.88583 0.1696 0.39665 0.0
O102 O 0.81248 0.19368 0.48169 0.0
O103 O 0.83595 0.17503 0.33152 0.0
O104 O 0.81559 0.19263 0.38215 0.0
C105 C 0.88518 0.18268 0.42949 0.0
C106 C 0.83025 0.11936 0.42488 0.0
O107 O 0.82428 0.13942 0.44417 0.0
O108 O 0.84311 0.12077 0.39272 0.0
C109 C 0.81707 0.18746 0.51887 0.0
O110 O 0.83365 0.17041 0.52598 0.0
C111 C 0.81967 0.18993 0.34356 0.0
C112 C 0.31535 0.40176 0.0603 0.0
C113 C 0.32384 0.40012 0.10114 0.0
C114 C 0.31106 0.42535 0.04213 0.0
C115 C 0.30049 0.49286 0.06304 0.0
H116 H 0.33379 0.50362 0.95945 0.0
C117 C 0.31819 0.59276 0.99608 0.0
C118 C 0.32051 0.59551 0.95307 0.0
C119 C 0.31465 0.56879 0.01355 0.0
C120 C 0.32387 0.50093 0.98784 0.0
H121 H 0.33332 0.42192 0.1556 0.0
H122 H 0.32548 0.46313 0.12392 0.0
H123 H 0.33405 0.46192 0.99112 0.0
H124 H 0.31924 0.57574 0.89439 0.0
H125 H 0.31191 0.53422 0.9245 0.0
H126 H 0.29013 0.53183 0.05972 0.0
C127 C 0.32228 0.44613 0.106 0.0
C128 C 0.32414 0.47697 0.00607 0.0
C129 C 0.3269 0.42254 0.12401 0.0
C130 C 0.31785 0.57412 0.92771 0.0
C131 C 0.31384 0.55027 0.94507 0.0
C132 C 0.29989 0.51681 0.04446 0.0
C133 C 0.31482 0.44776 0.06462 0.0
C134 C 0.31274 0.47276 0.04408 0.0
C135 C 0.31294 0.54712 0.98829 0.0
C136 C 0.31185 0.52126 0.00683 0.0
H137 H 0.31279 0.38485 0.04183 0.0
H138 H 0.30516 0.42611 0.01025 0.0
H139 H 0.29141 0.49003 0.09226 0.0
H140 H 0.32028 0.60892 0.0164 0.0
H141 H 0.31432 0.56719 0.04693 0.0
C142 C 0.42965 0.30423 0.11901 0.0
C143 C 0.4081 0.30305 0.09686 0.0
C144 C 0.45131 0.29876 0.09956 0.0
C145 C 0.47882 0.30337 0.99856 0.0
H146 H 0.53045 0.26468 0.04732 0.0
C147 C 0.56992 0.29952 0.91839 0.0
C148 C 0.59011 0.30144 0.94387 0.0
C149 C 0.54752 0.29442 0.93539 0.0
C150 C 0.5163 0.27575 0.03341 0.0
H151 H 0.39232 0.29422 0.0373 0.0
H152 H 0.43025 0.28509 0.0032 0.0
H153 H 0.49142 0.26541 0.08098 0.0
H154 H 0.60287 0.29861 0.00697 0.0
H155 H 0.56372 0.29077 0.03695 0.0
H156 H 0.50364 0.31496 0.95236 0.0
C157 C 0.4303 0.2902 0.03565 0.0
C158 C 0.49393 0.27602 0.05262 0.0
C159 C 0.40859 0.29532 0.05525 0.0
C160 C 0.58763 0.29713 0.98652 0.0
C161 C 0.56513 0.2925 0.00367 0.0
C162 C 0.50121 0.30342 0.97972 0.0
C163 C 0.45189 0.29233 0.05742 0.0
C164 C 0.47504 0.29003 0.03555 0.0
C165 C 0.54467 0.29166 0.97842 0.0
C166 C 0.52037 0.28981 0.99705 0.0
H167 H 0.42987 0.31001 0.15116 0.0
H168 H 0.46769 0.30073 0.11701 0.0
H169 H 0.46469 0.31468 0.98507 0.0
H170 H 0.57134 0.30243 0.88531 0.0
H171 H 0.53237 0.29318 0.91475 0.0
C172 C 0.67173 0.42102 0.92309 0.0
C173 C 0.67431 0.39853 0.94602 0.0
C174 C 0.67607 0.44454 0.94145 0.0
C175 C 0.67252 0.47525 0.04129 0.0
H176 H 0.70784 0.52992 0.98964 0.0
C177 C 0.67863 0.57216 0.12042 0.0
C178 C 0.67666 0.59367 0.0951 0.0
C179 C 0.68249 0.54829 0.10309 0.0
C180 C 0.6977 0.51495 0.00432 0.0
H181 H 0.68417 0.38308 0.00584 0.0
H182 H 0.69131 0.42424 0.03805 0.0
H183 H 0.70689 0.48818 0.95697 0.0
H184 H 0.67791 0.60724 0.03187 0.0
H185 H 0.68364 0.56548 0.00134 0.0
H186 H 0.66221 0.50191 0.08743 0.0
C187 C 0.68601 0.42358 0.00584 0.0
C188 C 0.69729 0.49103 0.98567 0.0
C189 C 0.68201 0.40004 0.98734 0.0
C190 C 0.67946 0.59098 0.05216 0.0
C191 C 0.68287 0.567 0.03471 0.0
C192 C 0.67261 0.49918 0.05958 0.0
C193 C 0.68275 0.44605 0.98324 0.0
C194 C 0.68459 0.47101 0.00393 0.0
C195 C 0.68396 0.54525 0.05991 0.0
C196 C 0.6851 0.51944 0.04129 0.0
H197 H 0.66593 0.42048 0.89114 0.0
H198 H 0.67327 0.46159 0.92343 0.0
H199 H 0.66225 0.46024 0.05566 0.0
H200 H 0.67687 0.57371 0.1537 0.0
H201 H 0.68392 0.53216 0.12363 0.0
C202 C 0.42967 0.67806 0.93269 0.0
C203 C 0.40871 0.6887 0.94901 0.0
C204 C 0.45185 0.68369 0.94993 0.0
C205 C 0.47886 0.70558 0.04769 0.0
H206 H 0.53654 0.70343 0.98169 0.0
C207 C 0.58901 0.70545 0.06594 0.0
C208 C 0.59062 0.68906 0.10013 0.0
C209 C 0.56679 0.71132 0.04862 0.0
C210 C 0.52067 0.70459 1.00068 0.0
H211 H 0.39478 0.71452 0.99525 0.0
H212 H 0.43364 0.72486 0.0248 0.0
H213 H 0.49795 0.70413 0.94759 0.0
H214 H 0.57003 0.66666 0.14368 0.0
H215 H 0.53168 0.67624 0.11305 0.0
H216 H 0.50159 0.70638 0.10076 0.0
C217 C 0.43285 0.71168 0.99919 0.0
C218 C 0.49846 0.70459 0.98106 0.0
C219 C 0.41056 0.70586 0.9821 0.0
C220 C 0.5695 0.67939 0.11741 0.0
C221 C 0.54739 0.68508 0.09996 0.0
C222 C 0.50107 0.70586 0.06729 0.0
C223 C 0.45375 0.70032 0.98376 0.0
C224 C 0.47725 0.70424 0.00433 0.0
C225 C 0.54572 0.70081 0.06495 0.0
C226 C 0.52227 0.70453 0.04409 0.0
H227 H 0.42894 0.6647 0.9073 0.0
H228 H 0.46741 0.67418 0.93762 0.0
H229 H 0.46298 0.70522 0.06673 0.0
H230 H 0.60493 0.71335 0.05202 0.0
H231 H 0.56618 0.72382 0.02207 0.0
C232 C 0.81589 0.90037 0.549 0.0
C233 C 0.82181 0.89945 0.59124 0.0
C234 C 0.81215 0.92363 0.52934 0.0
C235 C 0.79833 0.99084 0.54588 0.0
H236 H 0.83886 0.00237 0.45059 0.0
C237 C 0.8181 0.09116 0.48346 0.0
C238 C 0.82345 0.09424 0.44132 0.0
C239 C 0.81417 0.06701 0.49988 0.0
C240 C 0.82695 -0.00056 0.47651 0.0
H241 H 0.82721 0.92209 0.64644 0.0
H242 H 0.82024 0.96269 0.61214 0.0
H243 H 0.83778 0.96073 0.48256 0.0
H244 H 0.82745 0.07468 0.38282 0.0
H245 H 0.81952 0.03272 0.41091 0.0
H246 H 0.78728 0.02944 0.53979 0.0
C247 C 0.81867 0.94541 0.59428 0.0
C248 C 0.82646 0.97553 0.49493 0.0
C249 C 0.82279 0.92219 0.61382 0.0
C250 C 0.82366 0.07284 0.41555 0.0
C251 C 0.81928 0.04875 0.43178 0.0
C252 C 0.79851 0.0147 0.52703 0.0
C253 C 0.81385 0.94637 0.55169 0.0
C254 C 0.81245 0.9711 0.53016 0.0
C255 C 0.81509 0.0454 0.47438 0.0
C256 C 0.81315 0.01947 0.49248 0.0
H257 H 0.81502 0.88319 0.53074 0.0
H258 H 0.80833 0.92388 0.4965 0.0
H259 H 0.78724 0.98782 0.57288 0.0
H260 H 0.81794 0.1073 0.50415 0.0
H261 H 0.81134 0.06528 0.53289 0.0
C262 C 0.07063 0.80377 0.43156 0.0
C263 C 0.09193 0.80337 0.45451 0.0
C264 C 0.0488 0.79861 0.45065 0.0
C265 C 0.02012 0.8059 0.5501 0.0
H266 H 0.96923 0.7656 0.50263 0.0
C267 C 0.92797 0.8038 0.62705 0.0
C268 C 0.90807 0.80466 0.60073 0.0
C269 C 0.95063 0.79854 0.6113 0.0
C270 C 0.98316 0.77713 0.51614 0.0
H271 H 0.1071 0.79618 0.51513 0.0
H272 H 0.06885 0.78759 0.54857 0.0
H273 H 0.00866 0.76547 0.47043 0.0
H274 H 0.89616 0.7999 0.53745 0.0
H275 H 0.93576 0.79178 0.50957 0.0
H276 H 0.99469 0.81879 0.59433 0.0
C277 C 0.06914 0.79185 0.51579 0.0
C278 C 0.00577 0.7769 0.4978 0.0
C279 C 0.09102 0.79665 0.49658 0.0
C280 C 0.91116 0.79924 0.55854 0.0
C281 C 0.93391 0.79445 0.54261 0.0
C282 C 0.99749 0.80644 0.56806 0.0
C283 C 0.04778 0.79327 0.49317 0.0
C284 C 0.0244 0.79148 0.51441 0.0
C285 C 0.95405 0.79454 0.56866 0.0
C286 C 0.97859 0.79227 0.55113 0.0
H287 H 0.07074 0.80877 0.39906 0.0
H288 H 0.0326 0.80001 0.43253 0.0
H289 H 0.03405 0.81766 0.56317 0.0
H290 H 0.92609 0.80758 0.65983 0.0
H291 H 0.96554 0.79808 0.63257 0.0
C292 C 0.17356 0.07442 0.62109 0.0
C293 C 0.17506 0.097 0.59814 0.0
C294 C 0.17763 0.05103 0.60211 0.0
C295 C 0.17059 0.02041 0.50312 0.0
H296 H 0.20924 0.96652 0.54947 0.0
C297 C 0.17442 0.92311 0.42403 0.0
C298 C 0.17453 0.90168 0.44975 0.0
C299 C 0.17844 0.94721 0.44046 0.0
C300 C 0.19814 0.98125 0.53631 0.0
H301 H 0.18271 0.1128 0.53759 0.0
H302 H 0.18931 0.07183 0.50431 0.0
H303 H 0.20906 0.00823 0.58222 0.0
H304 H 0.17946 0.88854 0.5127 0.0
H305 H 0.18542 0.93059 0.54177 0.0
H306 H 0.15853 0.99349 0.45866 0.0
C307 C 0.18513 0.07233 0.53702 0.0
C308 C 0.1982 0.00516 0.55497 0.0
C309 C 0.18144 0.09575 0.55613 0.0
C310 C 0.17939 0.90473 0.49207 0.0
C311 C 0.18295 0.92889 0.50868 0.0
C312 C 0.1702 0.99645 0.48489 0.0
C313 C 0.18292 0.04976 0.55971 0.0
C314 C 0.18431 0.0249 0.53865 0.0
C315 C 0.18217 0.95053 0.48319 0.0
C316 C 0.18384 0.97645 0.50136 0.0
H317 H 0.16877 0.07478 0.65355 0.0
H318 H 0.17567 0.03388 0.62021 0.0
H319 H 0.15943 0.03522 0.49029 0.0
H320 H 0.17101 0.9213 0.39118 0.0
H321 H 0.17833 0.96326 0.41961 0.0
C322 C 0.92927 0.1902 0.42665 0.0
C323 C 0.90774 0.1911 0.44891 0.0
C324 C 0.95094 0.19548 0.4462 0.0
C325 C 0.97862 0.18988 0.5469 0.0
H326 H 0.0299 0.22961 0.49928 0.0
C327 C 0.06967 0.19398 0.62726 0.0
C328 C 0.0899 0.19263 0.60179 0.0
C329 C 0.04722 0.1989 0.61036 0.0
C330 C 0.01586 0.21824 0.51285 0.0
H331 H 0.89201 0.1992 0.50878 0.0
H332 H 0.92996 0.208 0.54304 0.0
H333 H 0.99087 0.22891 0.46566 0.0
H334 H 0.10266 0.19625 0.53879 0.0
H335 H 0.06343 0.20378 0.50893 0.0
H336 H 0.00356 0.17798 0.59271 0.0
C337 C 0.92998 0.20326 0.51043 0.0
C338 C 0.99348 0.21799 0.49368 0.0
C339 C 0.90827 0.19833 0.49076 0.0
C340 C 0.08739 0.1973 0.55924 0.0
C341 C 0.06484 0.20174 0.54216 0.0
C342 C 0.00102 0.18982 0.56571 0.0
C343 C 0.95155 0.20144 0.48852 0.0
C344 C 0.97471 0.20362 0.51036 0.0
C345 C 0.04436 0.20205 0.56739 0.0
C346 C 0.02006 0.20381 0.54879 0.0
H347 H 0.92946 0.1848 0.39433 0.0
H348 H 0.96731 0.19377 0.42864 0.0
H349 H 0.96459 0.17829 0.56006 0.0
H350 H 0.07111 0.19079 0.66028 0.0
H351 H 0.03203 0.19971 0.63099 0.0
C352 C 0.2132 0.21929 0.50043 0.0
C353 C 0.19402 0.20286 0.49243 0.0
C354 C 0.22662 0.22936 0.46791 0.0
C355 C 0.22487 0.24277 0.35579 0.0
H356 H 0.2936 0.2462 0.36758 0.0
C357 C 0.28711 0.27584 0.22272 0.0
C358 C 0.30575 0.29226 0.23403 0.0
C359 C 0.27342 0.26367 0.25306 0.0
C360 C 0.27441 0.24559 0.36391 0.0
H361 H 0.17378 0.18436 0.44387 0.0
H362 H 0.19728 0.2019 0.38717 0.0
H363 H 0.26966 0.22786 0.42286 0.0
H364 H 0.32459 0.30868 0.28623 0.0
H365 H 0.3007 0.28778 0.33872 0.0
H366 H 0.22966 0.26074 0.29692 0.0
C367 C 0.20181 0.20712 0.41859 0.0
C368 C 0.26069 0.23509 0.39564 0.0
C369 C 0.18842 0.19697 0.45113 0.0
C370 C 0.31044 0.29611 0.2763 0.0
C371 C 0.29682 0.28397 0.3065 0.0
C372 C 0.23862 0.25333 0.32402 0.0
C373 C 0.22116 0.22331 0.42661 0.0
C374 C 0.23574 0.23377 0.39216 0.0
C375 C 0.27813 0.26762 0.29533 0.0
C376 C 0.26354 0.2551 0.32791 0.0
H377 H 0.21796 0.22428 0.53185 0.0
H378 H 0.24119 0.24209 0.47513 0.0
H379 H 0.20567 0.24225 0.3523 0.0
H380 H 0.28303 0.27243 0.19045 0.0
H381 H 0.25928 0.25101 0.24342 0.0
C382 C 0.71353 0.27738 0.04612 0.0
C383 C 0.69374 0.29303 0.05376 0.0
C384 C 0.72691 0.26757 0.0789 0.0
C385 C 0.72433 0.25308 0.19056 0.0
H386 H 0.79323 0.25208 0.1809 0.0
C387 C 0.78622 0.2195 0.32398 0.0
C388 C 0.80529 0.20374 0.31231 0.0
C389 C 0.7725 0.23192 0.29392 0.0
C390 C 0.774 0.25203 0.18398 0.0
H391 H 0.67236 0.31041 0.10197 0.0
H392 H 0.69578 0.29331 0.15914 0.0
H393 H 0.76935 0.27036 0.1255 0.0
H394 H 0.82489 0.18881 0.25975 0.0
H395 H 0.80101 0.21014 0.20778 0.0
H396 H 0.72903 0.23446 0.24892 0.0
C397 C 0.70084 0.28852 0.12778 0.0
C398 C 0.76031 0.26249 0.15218 0.0
C399 C 0.68749 0.29841 0.09497 0.0
C400 C 0.81041 0.20085 0.26998 0.0
C401 C 0.79678 0.21324 0.24007 0.0
C402 C 0.73805 0.24255 0.2224 0.0
C403 C 0.7208 0.2731 0.12011 0.0
C404 C 0.7353 0.26287 0.15484 0.0
C405 C 0.77765 0.22891 0.25159 0.0
C406 C 0.76304 0.24162 0.21923 0.0
H407 H 0.7188 0.27279 0.01477 0.0
H408 H 0.74196 0.25544 0.07193 0.0
H409 H 0.70509 0.25289 0.19341 0.0
H410 H 0.78179 0.22216 0.3563 0.0
H411 H 0.758 0.24403 0.30382 0.0
C412 C 0.78855 0.77426 0.49387 0.0
C413 C 0.80602 0.79282 0.48665 0.0
C414 C 0.7765 0.76296 0.46084 0.0
C415 C 0.76073 0.77247 0.35091 0.0
H416 H 0.74645 0.70066 0.35543 0.0
C417 C 0.71475 0.7176 0.21639 0.0
C418 C 0.69681 0.70047 0.22833 0.0
C419 C 0.72927 0.72918 0.24621 0.0
C420 C 0.75015 0.72078 0.35382 0.0
H421 H 0.82459 0.81399 0.43894 0.0
H422 H 0.80369 0.79408 0.38131 0.0
H423 H 0.76964 0.72004 0.41066 0.0
H424 H 0.67988 0.68243 0.28114 0.0
H425 H 0.70494 0.7026 0.33264 0.0
H426 H 0.74104 0.77312 0.29405 0.0
C427 C 0.79913 0.78847 0.41256 0.0
C428 C 0.76342 0.7319 0.38552 0.0
C429 C 0.8112 0.79977 0.44562 0.0
C430 C 0.69358 0.69541 0.27069 0.0
C431 C 0.70808 0.70686 0.30031 0.0
C432 C 0.74745 0.76131 0.31909 0.0
C433 C 0.78163 0.76992 0.41978 0.0
C434 C 0.76859 0.75794 0.38479 0.0
C435 C 0.72621 0.72372 0.28849 0.0
C436 C 0.74171 0.7354 0.32054 0.0
H437 H 0.78404 0.76852 0.52508 0.0
H438 H 0.76287 0.74902 0.46756 0.0
H439 H 0.76422 0.79263 0.34956 0.0
H440 H 0.71772 0.72192 0.18404 0.0
H441 H 0.74317 0.74202 0.23614 0.0
C442 C 0.19243 0.79852 0.27746 0.0
C443 C 0.19613 0.79389 0.31983 0.0
C444 C 0.20695 0.78721 0.2477 0.0
C445 C 0.24744 0.73362 0.22915 0.0
H446 H 0.26816 0.77469 0.13633 0.0
C447 C 0.31156 0.69573 0.10273 0.0
C448 C 0.30617 0.70228 0.0616 0.0
C449 C 0.29931 0.70699 0.13565 0.0
C450 C 0.26235 0.76288 0.16182 0.0
H451 H 0.21791 0.77336 0.36402 0.0
H452 H 0.24337 0.75349 0.31171 0.0
H453 H 0.24477 0.7939 0.19147 0.0
H454 H 0.28364 0.72581 0.02286 0.0
H455 H 0.26215 0.74521 0.08013 0.0
H456 H 0.26481 0.7025 0.19913 0.0
C457 C 0.2291 0.76589 0.30172 0.0
C458 C 0.24896 0.77391 0.19347 0.0
C459 C 0.21457 0.77733 0.33166 0.0
C460 C 0.28832 0.7204 0.05415 0.0
C461 C 0.27608 0.73164 0.08704 0.0
C462 C 0.26082 0.72255 0.19737 0.0
C463 C 0.22555 0.77091 0.25941 0.0
C464 C 0.24108 0.75935 0.22724 0.0
C465 C 0.28141 0.72508 0.1282 0.0
C466 C 0.26818 0.737 0.16306 0.0
H467 H 0.17836 0.81106 0.26711 0.0
H468 H 0.20345 0.79112 0.21537 0.0
H469 H 0.24146 0.72185 0.25457 0.0
H470 H 0.32525 0.68188 0.10959 0.0
H471 H 0.30405 0.70171 0.16697 0.0
C472 C 0.21499 0.78093 0.55412 0.0
C473 C 0.19538 0.79688 0.56145 0.0
C474 C 0.22811 0.77099 0.5871 0.0
C475 C 0.22477 0.75672 0.6988 0.0
H476 H 0.29364 0.7536 0.68958 0.0
C477 C 0.28574 0.72088 0.83215 0.0
C478 C 0.30417 0.70435 0.82022 0.0
C479 C 0.27236 0.73385 0.80224 0.0
C480 C 0.27441 0.75417 0.69254 0.0
H481 H 0.1741 0.81476 0.60932 0.0
H482 H 0.1971 0.79747 0.66685 0.0
H483 H 0.27039 0.77271 0.63411 0.0
H484 H 0.32298 0.68861 0.76741 0.0
H485 H 0.29971 0.71095 0.71575 0.0
H486 H 0.22884 0.7379 0.75715 0.0
C487 C 0.2022 0.79251 0.63557 0.0
C488 C 0.26108 0.7651 0.66071 0.0
C489 C 0.18909 0.80251 0.60256 0.0
C490 C 0.30898 0.70122 0.77783 0.0
C491 C 0.29572 0.71419 0.74811 0.0
C492 C 0.23813 0.74576 0.73071 0.0
C493 C 0.22194 0.77672 0.62822 0.0
C494 C 0.23608 0.7662 0.66316 0.0
C495 C 0.27726 0.73066 0.75986 0.0
C496 C 0.26308 0.74403 0.72765 0.0
H497 H 0.22028 0.77614 0.52287 0.0
H498 H 0.24299 0.75857 0.58036 0.0
H499 H 0.20552 0.75709 0.70151 0.0
H500 H 0.28157 0.72372 0.86453 0.0
H501 H 0.25835 0.74655 0.81229 0.0
C502 C 0.30956 0.30134 0.95122 0.0
C503 C 0.30388 0.29521 0.99241 0.0
C504 C 0.29632 0.29126 0.91846 0.0
C505 C 0.2378 0.26261 0.89473 0.0
H506 H 0.26947 0.23755 0.79624 0.0
C507 C 0.18955 0.2001 0.77604 0.0
C508 C 0.19391 0.20414 0.7337 0.0
C509 C 0.20298 0.21262 0.80605 0.0
C510 C 0.26033 0.2448 0.82328 0.0
H511 H 0.27995 0.27348 0.0314 0.0
H512 H 0.25701 0.25576 0.97432 0.0
H513 H 0.29303 0.25644 0.85179 0.0
H514 H 0.21591 0.22464 0.6898 0.0
H515 H 0.23939 0.24668 0.74249 0.0
H516 H 0.20515 0.25084 0.86649 0.0
C517 C 0.2715 0.26863 0.96734 0.0
C518 C 0.27384 0.25559 0.85514 0.0
C519 C 0.28476 0.27866 1.00007 0.0
C520 C 0.21209 0.22108 0.72212 0.0
C521 C 0.22562 0.23361 0.75229 0.0
C522 C 0.22434 0.25186 0.86294 0.0
C523 C 0.27706 0.27488 0.92614 0.0
C524 C 0.26274 0.26435 0.89145 0.0
C525 C 0.22115 0.22954 0.79462 0.0
C526 C 0.23545 0.24252 0.82706 0.0
H527 H 0.32417 0.31406 0.94421 0.0
H528 H 0.30093 0.29664 0.88713 0.0
H529 H 0.22865 0.26966 0.92189 0.0
H530 H 0.17576 0.18714 0.78619 0.0
H531 H 0.19933 0.2087 0.83833 0.0
C532 C 0.71286 0.27461 0.82393 0.0
C533 C 0.69499 0.2919 0.81228 0.0
C534 C 0.72717 0.26295 0.79389 0.0
C535 C 0.74758 0.27117 0.68593 0.0
H536 H 0.76162 0.19931 0.69059 0.0
C537 C 0.78627 0.21754 0.54626 0.0
C538 C 0.80397 0.19925 0.55371 0.0
C539 C 0.77396 0.2287 0.57913 0.0
C540 C 0.75812 0.21947 0.68912 0.0
H541 H 0.67799 0.31017 0.75976 0.0
H542 H 0.70267 0.28984 0.70786 0.0
H543 H 0.73858 0.21898 0.74613 0.0
H544 H 0.82258 0.17833 0.60166 0.0
H545 H 0.80121 0.19799 0.65902 0.0
H546 H 0.76694 0.27173 0.62895 0.0
C547 C 0.70592 0.28552 0.74013 0.0
C548 C 0.74493 0.23073 0.72095 0.0
C549 C 0.69164 0.29706 0.76999 0.0
C550 C 0.80902 0.19233 0.59481 0.0
C551 C 0.79669 0.20349 0.62771 0.0
C552 C 0.76076 0.25995 0.6542 0.0
C553 C 0.72396 0.26847 0.75166 0.0
C554 C 0.73924 0.25665 0.71941 0.0
C555 C 0.77905 0.22186 0.62026 0.0
C556 C 0.76594 0.2339 0.65511 0.0
H557 H 0.71592 0.27021 0.85622 0.0
H558 H 0.74101 0.24998 0.80376 0.0
H559 H 0.74393 0.29129 0.68423 0.0
H560 H 0.78185 0.22323 0.51499 0.0
H561 H 0.76023 0.2425 0.57225 0.0
C562 C 0.71232 0.71714 0.99453 0.0
C563 C 0.69358 0.70008 0.98699 0.0
C564 C 0.7253 0.7275 0.96172 0.0
C565 C 0.72292 0.74018 0.84929 0.0
H566 H 0.79145 0.74653 0.86122 0.0
C567 C 0.78474 0.77559 0.71662 0.0
C568 C 0.80253 0.79294 0.72833 0.0
C569 C 0.7712 0.76294 0.74669 0.0
C570 C 0.77231 0.74507 0.8575 0.0
H571 H 0.67366 0.68073 0.93891 0.0
H572 H 0.69643 0.69873 0.88168 0.0
H573 H 0.76818 0.72734 0.91656 0.0
H574 H 0.81993 0.81061 0.78097 0.0
H575 H 0.79638 0.78883 0.8329 0.0
H576 H 0.72712 0.75813 0.79022 0.0
C577 C 0.70095 0.70424 0.91298 0.0
C578 C 0.75896 0.7341 0.88927 0.0
C579 C 0.68797 0.69384 0.94583 0.0
C580 C 0.80646 0.79732 0.7707 0.0
C581 C 0.79304 0.78468 0.8006 0.0
C582 C 0.73631 0.75118 0.81743 0.0
C583 C 0.71988 0.72107 0.92055 0.0
C584 C 0.73407 0.73181 0.88582 0.0
C585 C 0.77529 0.7673 0.78905 0.0
C586 C 0.76113 0.75406 0.82143 0.0
H587 H 0.71707 0.72244 0.02582 0.0
H588 H 0.73952 0.74072 0.96863 0.0
H589 H 0.70375 0.73888 0.84578 0.0
H590 H 0.78125 0.77178 0.68426 0.0
H591 H 0.75775 0.74953 0.73681 0.0
loop_
_geom_bond_atom_site_label_1
_geom_bond_atom_site_label_2
_geom_bond_distance
_geom_bond_site_symmetry_2
_ccdc_geom_bond_type
Zn0 O3 2.031 . S
Zn0 O5 2.049 . S
Zn0 O10 2.067 . S
Zn1 O2 1.962 . S
Zn1 O4 1.986 1_554 S
Zn1 O6 1.996 . S
Zn1 O9 1.943 . S
O2 Zn1 1.962 . S
O2 C7 1.254 . S
O3 Zn0 2.031 . S
O3 C7 1.269 . S
O4 Zn1 1.986 1_556 S
O4 C11 1.262 . S
O5 Zn0 2.049 . S
O5 C13 1.260 . S
O6 Zn1 1.996 . S
O6 C13 1.257 . S
C7 O2 1.254 . S
C7 O3 1.269 . S
C8 O9 1.249 . S
C8 O10 1.270 . S
O9 Zn1 1.943 . S
O9 C8 1.249 . S
O10 Zn0 2.067 . S
O10 C8 1.270 . S
C11 O4 1.262 . S
C11 O12 1.232 . S
O12 C11 1.232 . S
C13 O5 1.260 . S
C13 O6 1.257 . S
Zn14 O17 2.031 1_556 S
Zn14 O19 2.049 . S
Zn14 O24 2.067 . S
Zn15 O16 1.962 . S
Zn15 O18 1.986 . S
Zn15 O20 1.996 1_554 S
Zn15 O23 1.943 . S
O16 Zn15 1.962 . S
O16 C21 1.254 . S
O17 Zn14 2.031 1_554 S
O17 C21 1.269 . S
O18 Zn15 1.986 . S
O18 C25 1.262 . S
O19 Zn14 2.049 . S
O19 C27 1.260 . S
O20 Zn15 1.996 1_556 S
O20 C27 1.257 . S
C21 O16 1.254 . S
C21 O17 1.269 . S
C22 O23 1.249 . S
C22 O24 1.270 1_554 S
O23 Zn15 1.943 . S
O23 C22 1.249 . S
O24 Zn14 2.067 . S
O24 C22 1.270 1_556 S
C25 O18 1.262 . S
C25 O26 1.232 . S
O26 C25 1.232 . S
C27 O19 1.260 . S
C27 O20 1.257 . S
Zn28 O31 2.031 . S
Zn28 O33 2.049 . S
Zn28 O38 2.067 . S
Zn29 O30 1.962 . S
Zn29 O32 1.986 1_554 S
Zn29 O34 1.996 . S
Zn29 O37 1.943 . S
O30 Zn29 1.962 . S
O30 C35 1.254 . S
O31 Zn28 2.031 . S
O31 C35 1.269 . S
O32 Zn29 1.986 1_556 S
O32 C39 1.262 . S
O33 Zn28 2.049 . S
O33 C41 1.260 . S
O34 Zn29 1.996 . S
O34 C41 1.257 . S
C35 O30 1.254 . S
C35 O31 1.269 . S
C36 O37 1.249 . S
C36 O38 1.270 . S
O37 Zn29 1.943 . S
O37 C36 1.249 . S
O38 Zn28 2.067 . S
O38 C36 1.270 . S
C39 O32 1.262 . S
C39 O40 1.232 . S
O40 C39 1.232 . S
C41 O33 1.260 . S
C41 O34 1.257 . S
Zn42 O45 2.031 1_556 S
Zn42 O47 2.049 . S
Zn42 O52 2.067 . S
Zn43 O44 1.962 . S
Zn43 O46 1.986 . S
Zn43 O48 1.996 1_554 S
Zn43 O51 1.943 . S
O44 Zn43 1.962 . S
O44 C49 1.254 . S
O45 Zn42 2.031 1_554 S
O45 C49 1.269 . S
O46 Zn43 1.986 . S
O46 C53 1.262 . S
O47 Zn42 2.049 . S
O47 C55 1.260 . S
O48 Zn43 1.996 1_556 S
O48 C55 1.257 . S
C49 O44 1.254 . S
C49 O45 1.269 . S
C50 O51 1.249 . S
C50 O52 1.270 1_554 S
O51 Zn43 1.943 . S
O51 C50 1.249 . S
O52 Zn42 2.067 . S
O52 C50 1.270 1_556 S
C53 O46 1.262 . S
C53 O54 1.232 . S
O54 C53 1.232 . S
C55 O47 1.260 . S
C55 O48 1.257 . S
Zn56 O59 2.031 . S
Zn56 O61 2.049 . S
Zn56 O66 2.067 . S
Zn57 O58 1.962 . S
Zn57 O60 1.986 . S
Zn57 O62 1.996 . S
Zn57 O65 1.943 . S
O58 Zn57 1.962 . S
O58 C63 1.254 . S
O59 Zn56 2.031 . S
O59 C63 1.269 . S
O60 Zn57 1.986 . S
O60 C67 1.262 . S
O61 Zn56 2.049 . S
O61 C69 1.260 . S
O62 Zn57 1.996 . S
O62 C69 1.257 . S
C63 O58 1.254 . S
C63 O59 1.269 . S
C64 O65 1.249 . S
C64 O66 1.270 . S
O65 Zn57 1.943 . S
O65 C64 1.249 . S
O66 Zn56 2.067 . S
O66 C64 1.270 . S
C67 O60 1.262 . S
C67 O68 1.232 . S
O68 C67 1.232 . S
C69 O61 1.260 . S
C69 O62 1.257 . S
Zn70 O73 2.031 . S
Zn70 O75 2.049 . S
Zn70 O80 2.067 . S
Zn71 O72 1.962 . S
Zn71 O74 1.986 . S
Zn71 O76 1.996 . S
Zn71 O79 1.943 . S
O72 Zn71 1.962 . S
O72 C77 1.254 . S
O73 Zn70 2.031 . S
O73 C77 1.269 . S
O74 Zn71 1.986 . S
O74 C81 1.262 . S
O75 Zn70 2.049 . S
O75 C83 1.260 . S
O76 Zn71 1.996 . S
O76 C83 1.257 . S
C77 O72 1.254 . S
C77 O73 1.269 . S
C78 O79 1.249 . S
C78 O80 1.270 . S
O79 Zn71 1.943 . S
O79 C78 1.249 . S
O80 Zn70 2.067 . S
O80 C78 1.270 . S
C81 O74 1.262 . S
C81 O82 1.232 . S
O82 C81 1.232 . S
C83 O75 1.260 . S
C83 O76 1.257 . S
Zn84 O87 2.031 . S
Zn84 O89 2.049 . S
Zn84 O94 2.067 . S
Zn85 O86 1.962 . S
Zn85 O88 1.986 . S
Zn85 O90 1.996 . S
Zn85 O93 1.943 . S
O86 Zn85 1.962 . S
O86 C91 1.254 . S
O87 Zn84 2.031 . S
O87 C91 1.269 . S
O88 Zn85 1.986 . S
O88 C95 1.262 . S
O89 Zn84 2.049 . S
O89 C97 1.260 . S
O90 Zn85 1.996 . S
O90 C97 1.257 . S
C91 O86 1.254 . S
C91 O87 1.269 . S
C92 O93 1.249 . S
C92 O94 1.270 . S
O93 Zn85 1.943 . S
O93 C92 1.249 . S
O94 Zn84 2.067 . S
O94 C92 1.270 . S
C95 O88 1.262 . S
C95 O96 1.232 . S
O96 C95 1.232 . S
C97 O89 1.260 . S
C97 O90 1.257 . S
Zn98 O101 2.031 . S
Zn98 O103 2.049 . S
Zn98 O108 2.067 . S
Zn99 O100 1.962 . S
Zn99 O102 1.986 . S
Zn99 O104 1.996 . S
Zn99 O107 1.943 . S
O100 Zn99 1.962 . S
O100 C105 1.254 . S
O101 Zn98 2.031 . S
O101 C105 1.269 . S
O102 Zn99 1.986 . S
O102 C109 1.262 . S
O103 Zn98 2.049 . S
O103 C111 1.260 . S
O104 Zn99 1.996 . S
O104 C111 1.257 . S
C105 O100 1.254 . S
C105 O101 1.269 . S
C106 O107 1.249 . S
C106 O108 1.270 . S
O107 Zn99 1.943 . S
O107 C106 1.249 . S
O108 Zn98 2.067 . S
O108 C106 1.270 . S
C109 O102 1.262 . S
C109 O110 1.232 . S
O110 C109 1.232 . S
C111 O103 1.260 . S
C111 O104 1.257 . S
C112 C113 1.349 1_556 S
C112 C114 1.327 . S
C112 H137 0.950 . S
C113 C112 1.349 1_554 S
C113 C129 1.349 . S
C114 C112 1.327 . S
C114 C133 1.429 1_556 S
C114 H138 0.950 . S
C115 C132 1.574 . S
C115 C134 1.368 . S
C115 H139 0.949 . S
H116 C120 0.949 . S
C117 C118 1.349 . S
C117 C119 1.327 . S
C117 H140 0.950 . S
C118 C117 1.349 . S
C118 C130 1.349 1_554 S
C119 C117 1.327 . S
C119 C135 1.429 . S
C119 H141 0.950 . S
C120 H116 0.949 . S
C120 C128 1.574 . S
C120 C136 1.368 1_556 S
H121 C129 0.950 . S
H122 C127 0.950 . S
H123 C128 0.949 . S
H124 C130 0.950 . S
H125 C131 0.950 . S
H126 C132 0.949 . S
C127 H122 0.950 . S
C127 C129 1.327 . S
C127 C133 1.429 . S
C128 C120 1.574 . S
C128 H123 0.949 . S
C128 C134 1.368 1_556 S
C129 C113 1.349 . S
C129 H121 0.950 . S
C129 C127 1.327 . S
C130 C118 1.349 1_556 S
C130 H124 0.950 . S
C130 C131 1.327 . S
C131 H125 0.950 . S
C131 C130 1.327 . S
C131 C135 1.429 1_556 S
C132 C115 1.574 . S
C132 H126 0.949 . S
C132 C136 1.368 . S
C133 C114 1.429 1_554 S
C133 C127 1.429 . S
C133 C134 1.523 . S
C134 C115 1.368 . S
C134 C128 1.368 1_554 S
C134 C133 1.523 . S
C135 C119 1.429 . S
C135 C131 1.429 1_554 S
C135 C136 1.523 . S
C136 C120 1.368 1_554 S
C136 C132 1.368 . S
C136 C135 1.523 . S
H137 C112 0.950 . S
H138 C114 0.950 . S
H139 C115 0.949 . S
H140 C117 0.950 . S
H141 C119 0.950 . S
C142 C143 1.349 . S
C142 C144 1.327 . S
C142 H167 0.950 . S
C143 C142 1.349 . S
C143 C159 1.349 1_554 S
C144 C142 1.327 . S
C144 C163 1.429 . S
C144 H168 0.950 . S
C145 C162 1.573 1_556 S
C145 C164 1.368 1_556 S
C145 H169 0.949 . S
H146 C150 0.949 . S
C147 C148 1.349 . S
C147 C149 1.327 . S
C147 H170 0.950 1_554 S
C148 C147 1.349 . S
C148 C160 1.349 . S
C149 C147 1.327 . S
C149 C165 1.429 . S
C149 H171 0.950 1_554 S
C150 H146 0.949 . S
C150 C158 1.574 . S
C150 C166 1.368 . S
H151 C159 0.950 . S
H152 C157 0.950 . S
H153 C158 0.949 . S
H154 C160 0.950 . S
H155 C161 0.950 . S
H156 C162 0.938 1_556 S
C157 H152 0.950 . S
C157 C159 1.327 . S
C157 C163 1.429 1_556 S
C158 C150 1.574 . S
C158 H153 0.949 . S
C158 C164 1.368 . S
C159 C143 1.349 1_556 S
C159 H151 0.950 . S
C159 C157 1.327 . S
C160 C148 1.349 . S
C160 H154 0.950 . S
C160 C161 1.327 . S
C161 H155 0.950 . S
C161 C160 1.327 . S
C161 C165 1.429 . S
C162 C145 1.573 1_554 S
C162 H156 0.938 1_554 S
C162 C166 1.382 . S
C163 C144 1.429 . S
C163 C157 1.429 1_554 S
C163 C164 1.523 . S
C164 C145 1.368 1_554 S
C164 C158 1.368 . S
C164 C163 1.523 . S
C165 C149 1.429 . S
C165 C161 1.429 . S
C165 C166 1.523 . S
C166 C150 1.368 . S
C166 C162 1.382 . S
C166 C165 1.523 . S
H167 C142 0.950 . S
H168 C144 0.950 . S
H169 C145 0.949 . S
H170 C147 0.950 1_556 S
H171 C149 0.950 1_556 S
C172 C173 1.349 1_556 S
C172 C174 1.327 . S
C172 H197 0.950 . S
C173 C172 1.349 1_554 S
C173 C189 1.349 . S
C174 C172 1.327 . S
C174 C193 1.429 1_556 S
C174 H198 0.950 . S
C175 C192 1.574 . S
C175 C194 1.368 . S
C175 H199 0.949 . S
H176 C180 0.949 . S
C177 C178 1.349 . S
C177 C179 1.327 . S
C177 H200 0.950 . S
C178 C177 1.349 . S
C178 C190 1.349 1_554 S
C179 C177 1.327 . S
C179 C195 1.429 . S
C179 H201 0.950 . S
C180 H176 0.949 . S
C180 C188 1.574 . S
C180 C196 1.368 1_556 S
H181 C189 0.950 . S
H182 C187 0.950 . S
H183 C188 0.949 . S
H184 C190 0.950 . S
H185 C191 0.950 . S
H186 C192 0.949 . S
C187 H182 0.950 . S
C187 C189 1.327 . S
C187 C193 1.429 . S
C188 C180 1.574 . S
C188 H183 0.949 . S
C188 C194 1.368 1_556 S
C189 C173 1.349 . S
C189 H181 0.950 . S
C189 C187 1.327 . S
C190 C178 1.349 1_556 S
C190 H184 0.950 . S
C190 C191 1.327 . S
C191 H185 0.950 . S
C191 C190 1.327 . S
C191 C195 1.429 1_556 S
C192 C175 1.574 . S
C192 H186 0.949 . S
C192 C196 1.368 . S
C193 C174 1.429 1_554 S
C193 C187 1.429 . S
C193 C194 1.523 . S
C194 C175 1.368 . S
C194 C188 1.368 1_554 S
C194 C193 1.523 . S
C195 C179 1.429 . S
C195 C191 1.429 1_554 S
C195 C196 1.523 . S
C196 C180 1.368 1_554 S
C196 C192 1.368 . S
C196 C195 1.523 . S
H197 C172 0.950 . S
H198 C174 0.950 . S
H199 C175 0.949 . S
H200 C177 0.950 . S
H201 C179 0.950 . S
C202 C203 1.349 . S
C202 C204 1.327 . S
C202 H227 0.950 1_554 S
C203 C202 1.349 . S
C203 C219 1.349 . S
C204 C202 1.327 . S
C204 C223 1.429 . S
C204 H228 0.950 1_554 S
C205 C222 1.574 . S
C205 C224 1.368 . S
C205 H229 0.949 . S
H206 C210 0.949 . S
C207 C208 1.349 . S
C207 C209 1.327 . S
C207 H230 0.950 . S
C208 C207 1.349 . S
C208 C220 1.349 1_554 S
C209 C207 1.327 . S
C209 C225 1.429 . S
C209 H231 0.950 . S
C210 H206 0.949 . S
C210 C218 1.573 1_556 S
C210 C226 1.368 1_556 S
H211 C219 0.950 . S
H212 C217 0.950 . S
H213 C218 0.938 1_556 S
H214 C220 0.950 . S
H215 C221 0.950 . S
H216 C222 0.949 . S
C217 H212 0.950 . S
C217 C219 1.327 . S
C217 C223 1.429 . S
C218 C210 1.573 1_554 S
C218 H213 0.938 1_554 S
C218 C224 1.382 . S
C219 C203 1.349 . S
C219 H211 0.950 . S
C219 C217 1.327 . S
C220 C208 1.349 1_556 S
C220 H214 0.950 . S
C220 C221 1.327 . S
C221 H215 0.950 . S
C221 C220 1.327 . S
C221 C225 1.429 1_556 S
C222 C205 1.574 . S
C222 H216 0.949 . S
C222 C226 1.368 . S
C223 C204 1.429 . S
C223 C217 1.429 . S
C223 C224 1.523 . S
C224 C205 1.368 . S
C224 C218 1.382 . S
C224 C223 1.523 . S
C225 C209 1.429 . S
C225 C221 1.429 1_554 S
C225 C226 1.523 . S
C226 C210 1.368 1_554 S
C226 C222 1.368 . S
C226 C225 1.523 . S
H227 C202 0.950 1_556 S
H228 C204 0.950 1_556 S
H229 C205 0.949 . S
H230 C207 0.950 . S
H231 C209 0.950 . S
C232 C233 1.349 . S
C232 C234 1.327 . S
C232 H257 0.950 . S
C233 C232 1.349 . S
C233 C249 1.349 . S
C234 C232 1.327 . S
C234 C253 1.429 . S
C234 H258 0.950 . S
C235 C252 1.574 1_565 S
C235 C254 1.368 . S
C235 H259 0.949 . S
H236 C240 0.949 . S
C237 C238 1.349 . S
C237 C239 1.327 . S
C237 H260 0.950 . S
C238 C237 1.349 . S
C238 C250 1.349 . S
C239 C237 1.327 . S
C239 C255 1.429 . S
C239 H261 0.950 . S
C240 H236 0.949 . S
C240 C248 1.574 1_545 S
C240 C256 1.368 . S
H241 C249 0.950 . S
H242 C247 0.950 . S
H243 C248 0.949 . S
H244 C250 0.950 . S
H245 C251 0.950 . S
H246 C252 0.949 . S
C247 H242 0.950 . S
C247 C249 1.327 . S
C247 C253 1.429 . S
C248 C240 1.574 1_565 S
C248 H243 0.949 . S
C248 C254 1.368 . S
C249 C233 1.349 . S
C249 H241 0.950 . S
C249 C247 1.327 . S
C250 C238 1.349 . S
C250 H244 0.950 . S
C250 C251 1.327 . S
C251 H245 0.950 . S
C251 C250 1.327 . S
C251 C255 1.429 . S
C252 C235 1.574 1_545 S
C252 H246 0.949 . S
C252 C256 1.368 . S
C253 C234 1.429 . S
C253 C247 1.429 . S
C253 C254 1.523 . S
C254 C235 1.368 . S
C254 C248 1.368 . S
C254 C253 1.523 . S
C255 C239 1.429 . S
C255 C251 1.429 . S
C255 C256 1.523 . S
C256 C240 1.368 . S
C256 C252 1.368 . S
C256 C255 1.523 . S
H257 C232 0.950 . S
H258 C234 0.950 . S
H259 C235 0.949 . S
H260 C237 0.950 . S
H261 C239 0.950 . S
C262 C263 1.349 . S
C262 C264 1.327 . S
C262 H287 0.950 . S
C263 C262 1.349 . S
C263 C279 1.349 . S
C264 C262 1.327 . S
C264 C283 1.429 . S
C264 H288 0.950 . S
C265 C282 1.574 1_455 S
C265 C284 1.368 . S
C265 H289 0.949 . S
H266 C270 0.949 . S
C267 C268 1.349 . S
C267 C269 1.327 . S
C267 H290 0.950 . S
C268 C267 1.349 . S
C268 C280 1.349 . S
C269 C267 1.327 . S
C269 C285 1.429 . S
C269 H291 0.950 . S
C270 H266 0.949 . S
C270 C278 1.574 1_655 S
C270 C286 1.368 . S
H271 C279 0.950 . S
H272 C277 0.950 . S
H273 C278 0.949 . S
H274 C280 0.950 . S
H275 C281 0.950 . S
H276 C282 0.949 . S
C277 H272 0.950 . S
C277 C279 1.327 . S
C277 C283 1.429 . S
C278 C270 1.574 1_455 S
C278 H273 0.949 . S
C278 C284 1.368 . S
C279 C263 1.349 . S
C279 H271 0.950 . S
C279 C277 1.327 . S
C280 C268 1.349 . S
C280 H274 0.950 . S
C280 C281 1.327 . S
C281 H275 0.950 . S
C281 C280 1.327 . S
C281 C285 1.429 . S
C282 C265 1.574 1_655 S
C282 H276 0.949 . S
C282 C286 1.368 . S
C283 C264 1.429 . S
C283 C277 1.429 . S
C283 C284 1.523 . S
C284 C265 1.368 . S
C284 C278 1.368 . S
C284 C283 1.523 . S
C285 C269 1.429 . S
C285 C281 1.429 . S
C285 C286 1.523 . S
C286 C270 1.368 . S
C286 C282 1.368 . S
C286 C285 1.523 . S
H287 C262 0.950 . S
H288 C264 0.950 . S
H289 C265 0.949 . S
H290 C267 0.950 . S
H291 C269 0.950 . S
C292 C293 1.349 . S
C292 C294 1.327 . S
C292 H317 0.950 . S
C293 C292 1.349 . S
C293 C309 1.349 . S
C294 C292 1.327 . S
C294 C313 1.429 . S
C294 H318 0.950 . S
C295 C312 1.574 1_545 S
C295 C314 1.368 . S
C295 H319 0.949 . S
H296 C300 0.949 . S
C297 C298 1.349 . S
C297 C299 1.327 . S
C297 H320 0.950 . S
C298 C297 1.349 . S
C298 C310 1.349 . S
C299 C297 1.327 . S
C299 C315 1.429 . S
C299 H321 0.950 . S
C300 H296 0.949 . S
C300 C308 1.574 1_565 S
C300 C316 1.368 . S
H301 C309 0.950 . S
H302 C307 0.950 . S
H303 C308 0.949 . S
H304 C310 0.950 . S
H305 C311 0.950 . S
H306 C312 0.949 . S
C307 H302 0.950 . S
C307 C309 1.327 . S
C307 C313 1.429 . S
C308 C300 1.574 1_545 S
C308 H303 0.949 . S
C308 C314 1.368 . S
C309 C293 1.349 . S
C309 H301 0.950 . S
C309 C307 1.327 . S
C310 C298 1.349 . S
C310 H304 0.950 . S
C310 C311 1.327 . S
C311 H305 0.950 . S
C311 C310 1.327 . S
C311 C315 1.429 . S
C312 C295 1.574 1_565 S
C312 H306 0.949 . S
C312 C316 1.368 . S
C313 C294 1.429 . S
C313 C307 1.429 . S
C313 C314 1.523 . S
C314 C295 1.368 . S
C314 C308 1.368 . S
C314 C313 1.523 . S
C315 C299 1.429 . S
C315 C311 1.429 . S
C315 C316 1.523 . S
C316 C300 1.368 . S
C316 C312 1.368 . S
C316 C315 1.523 . S
H317 C292 0.950 . S
H318 C294 0.950 . S
H319 C295 0.949 . S
H320 C297 0.950 . S
H321 C299 0.950 . S
C322 C323 1.349 . S
C322 C324 1.327 . S
C322 H347 0.950 . S
C323 C322 1.349 . S
C323 C339 1.349 . S
C324 C322 1.327 . S
C324 C343 1.429 . S
C324 H348 0.950 . S
C325 C342 1.574 1_655 S
C325 C344 1.368 . S
C325 H349 0.949 . S
H326 C330 0.949 . S
C327 C328 1.349 . S
C327 C329 1.327 . S
C327 H350 0.950 . S
C328 C327 1.349 . S
C328 C340 1.349 . S
C329 C327 1.327 . S
C329 C345 1.429 . S
C329 H351 0.950 . S
C330 H326 0.949 . S
C330 C338 1.574 1_455 S
C330 C346 1.368 . S
H331 C339 0.950 . S
H332 C337 0.950 . S
H333 C338 0.949 . S
H334 C340 0.950 . S
H335 C341 0.950 . S
H336 C342 0.949 . S
C337 H332 0.950 . S
C337 C339 1.327 . S
C337 C343 1.429 . S
C338 C330 1.574 1_655 S
C338 H333 0.949 . S
C338 C344 1.368 . S
C339 C323 1.349 . S
C339 H331 0.950 . S
C339 C337 1.327 . S
C340 C328 1.349 . S
C340 H334 0.950 . S
C340 C341 1.327 . S
C341 H335 0.950 . S
C341 C340 1.327 . S
C341 C345 1.429 . S
C342 C325 1.574 1_455 S
C342 H336 0.949 . S
C342 C346 1.368 . S
C343 C324 1.429 . S
C343 C337 1.429 . S
C343 C344 1.523 . S
C344 C325 1.368 . S
C344 C338 1.368 . S
C344 C343 1.523 . S
C345 C329 1.429 . S
C345 C341 1.429 . S
C345 C346 1.523 . S
C346 C330 1.368 . S
C346 C342 1.368 . S
C346 C345 1.523 . S
H347 C322 0.950 . S
H348 C324 0.950 . S
H349 C325 0.949 . S
H350 C327 0.950 . S
H351 C329 0.950 . S
C352 C353 1.349 . S
C352 C354 1.327 . S
C352 H377 0.950 . S
C353 C352 1.349 . S
C353 C369 1.349 . S
C354 C352 1.327 . S
C354 C373 1.429 . S
C354 H378 0.950 . S
C355 C372 1.574 . S
C355 C374 1.368 . S
C355 H379 0.949 . S
H356 C360 0.949 . S
C357 C358 1.349 . S
C357 C359 1.327 . S
C357 H380 0.950 . S
C358 C357 1.349 . S
C358 C370 1.349 . S
C359 C357 1.327 . S
C359 C375 1.429 . S
C359 H381 0.950 . S
C360 H356 0.949 . S
C360 C368 1.574 . S
C360 C376 1.368 . S
H361 C369 0.950 . S
H362 C367 0.950 . S
H363 C368 0.949 . S
H364 C370 0.950 . S
H365 C371 0.950 . S
H366 C372 0.949 . S
C367 H362 0.950 . S
C367 C369 1.327 . S
C367 C373 1.429 . S
C368 C360 1.574 . S
C368 H363 0.949 . S
C368 C374 1.368 . S
C369 C353 1.349 . S
C369 H361 0.950 . S
C369 C367 1.327 . S
C370 C358 1.349 . S
C370 H364 0.950 . S
C370 C371 1.327 . S
C371 H365 0.950 . S
C371 C370 1.327 . S
C371 C375 1.429 . S
C372 C355 1.574 . S
C372 H366 0.949 . S
C372 C376 1.368 . S
C373 C354 1.429 . S
C373 C367 1.429 . S
C373 C374 1.523 . S
C374 C355 1.368 . S
C374 C368 1.368 . S
C374 C373 1.523 . S
C375 C359 1.429 . S
C375 C371 1.429 . S
C375 C376 1.523 . S
C376 C360 1.368 . S
C376 C372 1.368 . S
C376 C375 1.523 . S
H377 C352 0.950 . S
H378 C354 0.950 . S
H379 C355 0.949 . S
H380 C357 0.950 . S
H381 C359 0.950 . S
C382 C383 1.349 . S
C382 C384 1.327 . S
C382 H407 0.950 . S
C383 C382 1.349 . S
C383 C399 1.349 . S
C384 C382 1.327 . S
C384 C403 1.429 . S
C384 H408 0.950 . S
C385 C402 1.574 . S
C385 C404 1.368 . S
C385 H409 0.949 . S
H386 C390 0.949 . S
C387 C388 1.349 . S
C387 C389 1.327 . S
C387 H410 0.950 . S
C388 C387 1.349 . S
C388 C400 1.349 . S
C389 C387 1.327 . S
C389 C405 1.429 . S
C389 H411 0.950 . S
C390 H386 0.949 . S
C390 C398 1.574 . S
C390 C406 1.368 . S
H391 C399 0.950 . S
H392 C397 0.950 . S
H393 C398 0.949 . S
H394 C400 0.950 . S
H395 C401 0.950 . S
H396 C402 0.949 . S
C397 H392 0.950 . S
C397 C399 1.327 . S
C397 C403 1.429 . S
C398 C390 1.574 . S
C398 H393 0.949 . S
C398 C404 1.368 . S
C399 C383 1.349 . S
C399 H391 0.950 . S
C399 C397 1.327 . S
C400 C388 1.349 . S
C400 H394 0.950 . S
C400 C401 1.327 . S
C401 H395 0.950 . S
C401 C400 1.327 . S
C401 C405 1.429 . S
C402 C385 1.574 . S
C402 H396 0.949 . S
C402 C406 1.368 . S
C403 C384 1.429 . S
C403 C397 1.429 . S
C403 C404 1.523 . S
C404 C385 1.368 . S
C404 C398 1.368 . S
C404 C403 1.523 . S
C405 C389 1.429 . S
C405 C401 1.429 . S
C405 C406 1.523 . S
C406 C390 1.368 . S
C406 C402 1.368 . S
C406 C405 1.523 . S
H407 C382 0.950 . S
H408 C384 0.950 . S
H409 C385 0.949 . S
H410 C387 0.950 . S
H411 C389 0.950 . S
C412 C413 1.349 . S
C412 C414 1.327 . S
C412 H437 0.950 . S
C413 C412 1.349 . S
C413 C429 1.349 . S
C414 C412 1.327 . S
C414 C433 1.429 . S
C414 H438 0.950 . S
C415 C432 1.574 . S
C415 C434 1.368 . S
C415 H439 0.949 . S
H416 C420 0.949 . S
C417 C418 1.349 . S
C417 C419 1.327 . S
C417 H440 0.950 . S
C418 C417 1.349 . S
C418 C430 1.349 . S
C419 C417 1.327 . S
C419 C435 1.429 . S
C419 H441 0.950 . S
C420 H416 0.949 . S
C420 C428 1.574 . S
C420 C436 1.368 . S
H421 C429 0.950 . S
H422 C427 0.950 . S
H423 C428 0.949 . S
H424 C430 0.950 . S
H425 C431 0.950 . S
H426 C432 0.949 . S
C427 H422 0.950 . S
C427 C429 1.327 . S
C427 C433 1.429 . S
C428 C420 1.574 . S
C428 H423 0.949 . S
C428 C434 1.368 . S
C429 C413 1.349 . S
C429 H421 0.950 . S
C429 C427 1.327 . S
C430 C418 1.349 . S
C430 H424 0.950 . S
C430 C431 1.327 . S
C431 H425 0.950 . S
C431 C430 1.327 . S
C431 C435 1.429 . S
C432 C415 1.574 . S
C432 H426 0.949 . S
C432 C436 1.368 . S
C433 C414 1.429 . S
C433 C427 1.429 . S
C433 C434 1.523 . S
C434 C415 1.368 . S
C434 C428 1.368 . S
C434 C433 1.523 . S
C435 C419 1.429 . S
C435 C431 1.429 . S
C435 C436 1.523 . S
C436 C420 1.368 . S
C436 C432 1.368 . S
C436 C435 1.523 . S
H437 C412 0.950 . S
H438 C414 0.950 . S
H439 C415 0.949 . S
H440 C417 0.950 . S
H441 C419 0.950 . S
C442 C443 1.349 . S
C442 C444 1.327 . S
C442 H467 0.950 . S
C443 C442 1.349 . S
C443 C459 1.349 . S
C444 C442 1.327 . S
C444 C463 1.429 . S
C444 H468 0.950 . S
C445 C462 1.574 . S
C445 C464 1.368 . S
C445 H469 0.949 . S
H446 C450 0.949 . S
C447 C448 1.349 . S
C447 C449 1.327 . S
C447 H470 0.950 . S
C448 C447 1.349 . S
C448 C460 1.349 . S
C449 C447 1.327 . S
C449 C465 1.429 . S
C449 H471 0.950 . S
C450 H446 0.949 . S
C450 C458 1.574 . S
C450 C466 1.368 . S
H451 C459 0.950 . S
H452 C457 0.950 . S
H453 C458 0.949 . S
H454 C460 0.950 . S
H455 C461 0.950 . S
H456 C462 0.949 . S
C457 H452 0.950 . S
C457 C459 1.327 . S
C457 C463 1.429 . S
C458 C450 1.574 . S
C458 H453 0.949 . S
C458 C464 1.368 . S
C459 C443 1.349 . S
C459 H451 0.950 . S
C459 C457 1.327 . S
C460 C448 1.349 . S
C460 H454 0.950 . S
C460 C461 1.327 . S
C461 H455 0.950 . S
C461 C460 1.327 . S
C461 C465 1.429 . S
C462 C445 1.574 . S
C462 H456 0.949 . S
C462 C466 1.368 . S
C463 C444 1.429 . S
C463 C457 1.429 . S
C463 C464 1.523 . S
C464 C445 1.368 . S
C464 C458 1.368 . S
C464 C463 1.523 . S
C465 C449 1.429 . S
C465 C461 1.429 . S
C465 C466 1.523 . S
C466 C450 1.368 . S
C466 C462 1.368 . S
C466 C465 1.523 . S
H467 C442 0.950 . S
H468 C444 0.950 . S
H469 C445 0.949 . S
H470 C447 0.950 . S
H471 C449 0.950 . S
C472 C473 1.349 . S
C472 C474 1.327 . S
C472 H497 0.950 . S
C473 C472 1.349 . S
C473 C489 1.349 . S
C474 C472 1.327 . S
C474 C493 1.429 . S
C474 H498 0.950 . S
C475 C492 1.574 . S
C475 C494 1.368 . S
C475 H499 0.949 . S
H476 C480 0.949 . S
C477 C478 1.349 . S
C477 C479 1.327 . S
C477 H500 0.950 . S
C478 C477 1.349 . S
C478 C490 1.349 . S
C479 C477 1.327 . S
C479 C495 1.429 . S
C479 H501 0.950 . S
C480 H476 0.949 . S
C480 C488 1.574 . S
C480 C496 1.368 . S
H481 C489 0.950 . S
H482 C487 0.950 . S
H483 C488 0.949 . S
H484 C490 0.950 . S
H485 C491 0.950 . S
H486 C492 0.949 . S
C487 H482 0.950 . S
C487 C489 1.327 . S
C487 C493 1.429 . S
C488 C480 1.574 . S
C488 H483 0.949 . S
C488 C494 1.368 . S
C489 C473 1.349 . S
C489 H481 0.950 . S
C489 C487 1.327 . S
C490 C478 1.349 . S
C490 H484 0.950 . S
C490 C491 1.327 . S
C491 H485 0.950 . S
C491 C490 1.327 . S
C491 C495 1.429 . S
C492 C475 1.574 . S
C492 H486 0.949 . S
C492 C496 1.368 . S
C493 C474 1.429 . S
C493 C487 1.429 . S
C493 C494 1.523 . S
C494 C475 1.368 . S
C494 C488 1.368 . S
C494 C493 1.523 . S
C495 C479 1.429 . S
C495 C491 1.429 . S
C495 C496 1.523 . S
C496 C480 1.368 . S
C496 C492 1.368 . S
C496 C495 1.523 . S
H497 C472 0.950 . S
H498 C474 0.950 . S
H499 C475 0.949 . S
H500 C477 0.950 . S
H501 C479 0.950 . S
C502 C503 1.349 . S
C502 C504 1.327 . S
C502 H527 0.950 . S
C503 C502 1.349 . S
C503 C519 1.349 . S
C504 C502 1.327 . S
C504 C523 1.429 . S
C504 H528 0.950 . S
C505 C522 1.574 . S
C505 C524 1.368 . S
C505 H529 0.949 . S
H506 C510 0.949 . S
C507 C508 1.349 . S
C507 C509 1.327 . S
C507 H530 0.950 . S
C508 C507 1.349 . S
C508 C520 1.349 . S
C509 C507 1.327 . S
C509 C525 1.429 . S
C509 H531 0.950 . S
C510 H506 0.949 . S
C510 C518 1.574 . S
C510 C526 1.368 . S
H511 C519 0.950 . S
H512 C517 0.950 . S
H513 C518 0.949 . S
H514 C520 0.950 . S
H515 C521 0.950 . S
H516 C522 0.949 . S
C517 H512 0.950 . S
C517 C519 1.327 . S
C517 C523 1.429 . S
C518 C510 1.574 . S
C518 H513 0.949 . S
C518 C524 1.368 . S
C519 C503 1.349 . S
C519 H511 0.950 . S
C519 C517 1.327 . S
C520 C508 1.349 . S
C520 H514 0.950 . S
C520 C521 1.327 . S
C521 H515 0.950 . S
C521 C520 1.327 . S
C521 C525 1.429 . S
C522 C505 1.574 . S
C522 H516 0.949 . S
C522 C526 1.368 . S
C523 C504 1.429 . S
C523 C517 1.429 . S
C523 C524 1.523 . S
C524 C505 1.368 . S
C524 C518 1.368 . S
C524 C523 1.523 . S
C525 C509 1.429 . S
C525 C521 1.429 . S
C525 C526 1.523 . S
C526 C510 1.368 . S
C526 C522 1.368 . S
C526 C525 1.523 . S
H527 C502 0.950 . S
H528 C504 0.950 . S
H529 C505 0.949 . S
H530 C507 0.950 . S
H531 C509 0.950 . S
C532 C533 1.349 . S
C532 C534 1.327 . S
C532 H557 0.950 . S
C533 C532 1.349 . S
C533 C549 1.349 . S
C534 C532 1.327 . S
C534 C553 1.429 . S
C534 H558 0.950 . S
C535 C552 1.574 . S
C535 C554 1.368 . S
C535 H559 0.949 . S
H536 C540 0.949 . S
C537 C538 1.349 . S
C537 C539 1.327 . S
C537 H560 0.950 . S
C538 C537 1.349 . S
C538 C550 1.349 . S
C539 C537 1.327 . S
C539 C555 1.429 . S
C539 H561 0.950 . S
C540 H536 0.949 . S
C540 C548 1.574 . S
C540 C556 1.368 . S
H541 C549 0.950 . S
H542 C547 0.950 . S
H543 C548 0.949 . S
H544 C550 0.950 . S
H545 C551 0.950 . S
H546 C552 0.949 . S
C547 H542 0.950 . S
C547 C549 1.327 . S
C547 C553 1.429 . S
C548 C540 1.574 . S
C548 H543 0.949 . S
C548 C554 1.368 . S
C549 C533 1.349 . S
C549 H541 0.950 . S
C549 C547 1.327 . S
C550 C538 1.349 . S
C550 H544 0.950 . S
C550 C551 1.327 . S
C551 H545 0.950 . S
C551 C550 1.327 . S
C551 C555 1.429 . S
C552 C535 1.574 . S
C552 H546 0.949 . S
C552 C556 1.368 . S
C553 C534 1.429 . S
C553 C547 1.429 . S
C553 C554 1.523 . S
C554 C535 1.368 . S
C554 C548 1.368 . S
C554 C553 1.523 . S
C555 C539 1.429 . S
C555 C551 1.429 . S
C555 C556 1.523 . S
C556 C540 1.368 . S
C556 C552 1.368 . S
C556 C555 1.523 . S
H557 C532 0.950 . S
H558 C534 0.950 . S
H559 C535 0.949 . S
H560 C537 0.950 . S
H561 C539 0.950 . S
C562 C563 1.349 . S
C562 C564 1.327 . S
C562 H587 0.950 . S
C563 C562 1.349 . S
C563 C579 1.349 . S
C564 C562 1.327 . S
C564 C583 1.429 . S
C564 H588 0.950 . S
C565 C582 1.574 . S
C565 C584 1.368 . S
C565 H589 0.949 . S
H566 C570 0.949 . S
C567 C568 1.349 . S
C567 C569 1.327 . S
C567 H590 0.950 . S
C568 C567 1.349 . S
C568 C580 1.349 . S
C569 C567 1.327 . S
C569 C585 1.429 . S
C569 H591 0.950 . S
C570 H566 0.949 . S
C570 C578 1.574 . S
C570 C586 1.368 . S
H571 C579 0.950 . S
H572 C577 0.950 . S
H573 C578 0.949 . S
H574 C580 0.950 . S
H575 C581 0.950 . S
H576 C582 0.949 . S
C577 H572 0.950 . S
C577 C579 1.327 . S
C577 C583 1.429 . S
C578 C570 1.574 . S
C578 H573 0.949 . S
C578 C584 1.368 . S
C579 C563 1.349 . S
C579 H571 0.950 . S
C579 C577 1.327 . S
C580 C568 1.349 . S
C580 H574 0.950 . S
C580 C581 1.327 . S
C581 H575 0.950 . S
C581 C580 1.327 . S
C581 C585 1.429 . S
C582 C565 1.574 . S
C582 H576 0.949 . S
C582 C586 1.368 . S
C583 C564 1.429 . S
C583 C577 1.429 . S
C583 C584 1.523 . S
C584 C565 1.368 . S
C584 C578 1.368 . S
C584 C583 1.523 . S
C585 C569 1.429 . S
C585 C581 1.429 . S
C585 C586 1.523 . S
C586 C570 1.368 . S
C586 C582 1.368 . S
C586 C585 1.523 . S
H587 C562 0.950 . S
H588 C564 0.950 . S
H589 C565 0.949 . S
H590 C567 0.950 . S
H591 C569 0.950 . S
C113 C8 1.448 . S
C118 C50 1.448 . S
C143 C7 1.453 . S
C148 C21 1.453 . S
C173 C22 1.448 . S
C178 C36 1.448 . S
C203 C49 1.453 . S
C208 C35 1.453 . S
C233 C64 1.448 . S
C238 C106 1.448 . S
C263 C77 1.453 . S
C268 C63 1.453 . S
C293 C92 1.448 . S
C298 C78 1.448 . S
C323 C105 1.453 . S
C328 C91 1.453 . S
C353 C95 1.445 . S
C358 C13 1.349 . S
C383 C25 1.445 . S
C388 C111 1.349 . S
C413 C67 1.445 . S
C418 C41 1.349 . S
C443 C83 1.349 . S
C448 C53 1.445 . S
C473 C81 1.445 . S
C478 C55 1.349 . S
C503 C11 1.445 . S
C508 C97 1.349 . S
C533 C27 1.349 . S
C538 C109 1.445 . S
C563 C39 1.445 . S
C568 C69 1.349 . S
