# Generated by pormake.
# Topology lcy-a-x, (5)-cn, num edge types: 1
# Building blocks:
#     Node 0, Type 0, BuildingBlock: XOMCOT_clean_sbu_0, # of connection points: 5
#     Node 1, Type 0, BuildingBlock: XOMCOT_clean_sbu_0, # of connection points: 5
#     Node 2, Type 0, BuildingBlock: XOMCOT_clean_sbu_0, # of connection points: 5
#     Node 3, Type 0, BuildingBlock: XOMCOT_clean_sbu_0, # of connection points: 5
#     Node 4, Type 0, BuildingBlock: XOMCOT_clean_sbu_0, # of connection points: 5
#     Node 5, Type 0, BuildingBlock: XOMCOT_clean_sbu_0, # of connection points: 5
#     Node 6, Type 0, BuildingBlock: XOMCOT_clean_sbu_0, # of connection points: 5
#     Node 7, Type 0, BuildingBlock: XOMCOT_clean_sbu_0, # of connection points: 5
#     Node 8, Type 0, BuildingBlock: XOMCOT_clean_sbu_0, # of connection points: 5
#     Node 9, Type 0, BuildingBlock: XOMCOT_clean_sbu_0, # of connection points: 5
#     Node 10, Type 0, BuildingBlock: XOMCOT_clean_sbu_0, # of connection points: 5
#     Node 11, Type 0, BuildingBlock: XOMCOT_clean_sbu_0, # of connection points: 5
#     Node 12, Type 0, BuildingBlock: XOMCOT_clean_sbu_0, # of connection points: 5
#     Node 13, Type 0, BuildingBlock: XOMCOT_clean_sbu_0, # of connection points: 5
#     Node 14, Type 0, BuildingBlock: XOMCOT_clean_sbu_0, # of connection points: 5
#     Node 15, Type 0, BuildingBlock: XOMCOT_clean_sbu_0, # of connection points: 5
#     Node 16, Type 0, BuildingBlock: XOMCOT_clean_sbu_0, # of connection points: 5
#     Node 17, Type 0, BuildingBlock: XOMCOT_clean_sbu_0, # of connection points: 5
#     Node 18, Type 0, BuildingBlock: XOMCOT_clean_sbu_0, # of connection points: 5
#     Node 19, Type 0, BuildingBlock: XOMCOT_clean_sbu_0, # of connection points: 5
#     Node 20, Type 0, BuildingBlock: XOMCOT_clean_sbu_0, # of connection points: 5
#     Node 21, Type 0, BuildingBlock: XOMCOT_clean_sbu_0, # of connection points: 5
#     Node 22, Type 0, BuildingBlock: XOMCOT_clean_sbu_0, # of connection points: 5
#     Node 23, Type 0, BuildingBlock: XOMCOT_clean_sbu_0, # of connection points: 5
#     Edge 24, Type (0, 0), BuildingBlock: EZIPEK_clean_linker_0, # of connection points: 2
#     Edge 25, Type (0, 0), BuildingBlock: EZIPEK_clean_linker_0, # of connection points: 2
#     Edge 26, Type (0, 0), BuildingBlock: EZIPEK_clean_linker_0, # of connection points: 2
#     Edge 27, Type (0, 0), BuildingBlock: EZIPEK_clean_linker_0, # of connection points: 2
#     Edge 28, Type (0, 0), BuildingBlock: EZIPEK_clean_linker_0, # of connection points: 2
#     Edge 29, Type (0, 0), BuildingBlock: EZIPEK_clean_linker_0, # of connection points: 2
#     Edge 30, Type (0, 0), BuildingBlock: EZIPEK_clean_linker_0, # of connection points: 2
#     Edge 31, Type (0, 0), BuildingBlock: EZIPEK_clean_linker_0, # of connection points: 2
#     Edge 32, Type (0, 0), BuildingBlock: EZIPEK_clean_linker_0, # of connection points: 2
#     Edge 33, Type (0, 0), BuildingBlock: EZIPEK_clean_linker_0, # of connection points: 2
#     Edge 34, Type (0, 0), BuildingBlock: EZIPEK_clean_linker_0, # of connection points: 2
#     Edge 35, Type (0, 0), BuildingBlock: EZIPEK_clean_linker_0, # of connection points: 2
#     Edge 36, Type (0, 0), BuildingBlock: EZIPEK_clean_linker_0, # of connection points: 2
#     Edge 37, Type (0, 0), BuildingBlock: EZIPEK_clean_linker_0, # of connection points: 2
#     Edge 38, Type (0, 0), BuildingBlock: EZIPEK_clean_linker_0, # of connection points: 2
#     Edge 39, Type (0, 0), BuildingBlock: EZIPEK_clean_linker_0, # of connection points: 2
#     Edge 40, Type (0, 0), BuildingBlock: EZIPEK_clean_linker_0, # of connection points: 2
#     Edge 41, Type (0, 0), BuildingBlock: EZIPEK_clean_linker_0, # of connection points: 2
#     Edge 42, Type (0, 0), BuildingBlock: EZIPEK_clean_linker_0, # of connection points: 2
#     Edge 43, Type (0, 0), BuildingBlock: EZIPEK_clean_linker_0, # of connection points: 2
#     Edge 44, Type (0, 0), BuildingBlock: EZIPEK_clean_linker_0, # of connection points: 2
#     Edge 45, Type (0, 0), BuildingBlock: EZIPEK_clean_linker_0, # of connection points: 2
#     Edge 46, Type (0, 0), BuildingBlock: EZIPEK_clean_linker_0, # of connection points: 2
#     Edge 47, Type (0, 0), BuildingBlock: EZIPEK_clean_linker_0, # of connection points: 2
#     Edge 48, Type (0, 0), BuildingBlock: EZIPEK_clean_linker_0, # of connection points: 2
#     Edge 49, Type (0, 0), BuildingBlock: EZIPEK_clean_linker_0, # of connection points: 2
#     Edge 50, Type (0, 0), BuildingBlock: EZIPEK_clean_linker_0, # of connection points: 2
#     Edge 51, Type (0, 0), BuildingBlock: EZIPEK_clean_linker_0, # of connection points: 2
#     Edge 52, Type (0, 0), BuildingBlock: EZIPEK_clean_linker_0, # of connection points: 2
#     Edge 53, Type (0, 0), BuildingBlock: EZIPEK_clean_linker_0, # of connection points: 2
#     Edge 54, Type (0, 0), BuildingBlock: EZIPEK_clean_linker_0, # of connection points: 2
#     Edge 55, Type (0, 0), BuildingBlock: EZIPEK_clean_linker_0, # of connection points: 2
#     Edge 56, Type (0, 0), BuildingBlock: EZIPEK_clean_linker_0, # of connection points: 2
#     Edge 57, Type (0, 0), BuildingBlock: EZIPEK_clean_linker_0, # of connection points: 2
#     Edge 58, Type (0, 0), BuildingBlock: EZIPEK_clean_linker_0, # of connection points: 2
#     Edge 59, Type (0, 0), BuildingBlock: EZIPEK_clean_linker_0, # of connection points: 2
#     Edge 60, Type (0, 0), BuildingBlock: EZIPEK_clean_linker_0, # of connection points: 2
#     Edge 61, Type (0, 0), BuildingBlock: EZIPEK_clean_linker_0, # of connection points: 2
#     Edge 62, Type (0, 0), BuildingBlock: EZIPEK_clean_linker_0, # of connection points: 2
#     Edge 63, Type (0, 0), BuildingBlock: EZIPEK_clean_linker_0, # of connection points: 2
#     Edge 64, Type (0, 0), BuildingBlock: EZIPEK_clean_linker_0, # of connection points: 2
#     Edge 65, Type (0, 0), BuildingBlock: EZIPEK_clean_linker_0, # of connection points: 2
#     Edge 66, Type (0, 0), BuildingBlock: EZIPEK_clean_linker_0, # of connection points: 2
#     Edge 67, Type (0, 0), BuildingBlock: EZIPEK_clean_linker_0, # of connection points: 2
#     Edge 68, Type (0, 0), BuildingBlock: EZIPEK_clean_linker_0, # of connection points: 2
#     Edge 69, Type (0, 0), BuildingBlock: EZIPEK_clean_linker_0, # of connection points: 2
#     Edge 70, Type (0, 0), BuildingBlock: EZIPEK_clean_linker_0, # of connection points: 2
#     Edge 71, Type (0, 0), BuildingBlock: EZIPEK_clean_linker_0, # of connection points: 2
#     Edge 72, Type (0, 0), BuildingBlock: EZIPEK_clean_linker_0, # of connection points: 2
#     Edge 73, Type (0, 0), BuildingBlock: EZIPEK_clean_linker_0, # of connection points: 2
#     Edge 74, Type (0, 0), BuildingBlock: EZIPEK_clean_linker_0, # of connection points: 2
#     Edge 75, Type (0, 0), BuildingBlock: EZIPEK_clean_linker_0, # of connection points: 2
#     Edge 76, Type (0, 0), BuildingBlock: EZIPEK_clean_linker_0, # of connection points: 2
#     Edge 77, Type (0, 0), BuildingBlock: EZIPEK_clean_linker_0, # of connection points: 2
#     Edge 78, Type (0, 0), BuildingBlock: EZIPEK_clean_linker_0, # of connection points: 2
#     Edge 79, Type (0, 0), BuildingBlock: EZIPEK_clean_linker_0, # of connection points: 2
#     Edge 80, Type (0, 0), BuildingBlock: EZIPEK_clean_linker_0, # of connection points: 2
#     Edge 81, Type (0, 0), BuildingBlock: EZIPEK_clean_linker_0, # of connection points: 2
#     Edge 82, Type (0, 0), BuildingBlock: EZIPEK_clean_linker_0, # of connection points: 2
#     Edge 83, Type (0, 0), BuildingBlock: EZIPEK_clean_linker_0, # of connection points: 2
# Relax obj value: 0.845
# Max RMSD: 0.218
# Mean RMSD: 0.218
data_MOF--net-lcy-a-x--node1-XOMCOT_clean_sbu_0--edge1-EZIPEK_clean_linker_0
_symmetry_space_group_name_H-M    P1
_symmetry_Int_Tables_number       1
_symmetry_cell_setting            triclinic
loop_
_symmetry_equiv_pos_as_xyz
'x, y, z'
_cell_length_a     45.094786
_cell_length_b     45.092234
_cell_length_c     45.094219
_cell_angle_alpha  90.054459
_cell_angle_beta   89.959449
_cell_angle_gamma 89.948058
loop_
_atom_site_label
_atom_site_type_symbol
_atom_site_fract_x
_atom_site_fract_y
_atom_site_fract_z
_atom_type_partial_charge
Co0 Co 0.0253 0.03649 0.70151 0.0
C1 C -0.00103 0.01813 0.64429 0.0
C2 C 0.00047 0.9812 0.67369 0.0
C3 C 0.9878 0.97224 0.64759 0.0
N4 N 0.0076 0.0102 0.67181 0.0
N5 N 0.98765 0.9952 0.62838 0.0
H6 H -0.00072 0.04085 0.63675 0.0
H7 H 0.00155 0.96756 0.69321 0.0
C8 C 0.96027 0.03773 0.71435 0.0
O9 O 0.96029 0.00869 0.71262 0.0
N10 N 0.04358 0.06166 0.73051 0.0
C11 C 0.06741 0.05454 0.74719 0.0
C12 C 0.07369 0.07789 0.76578 0.0
C13 C 0.03577 0.08917 0.73875 0.0
N14 N 0.05382 0.0994 0.76019 0.0
C15 C 0.04161 0.98187 0.7288 0.0
C16 C 0.00167 0.98616 0.77545 0.0
C17 C 0.01566 0.95927 0.76947 0.0
C18 C 0.03736 0.95767 0.74731 0.0
C19 C 0.00703 0.00995 0.75658 0.0
N20 N 0.02396 0.0062 0.73167 0.0
H21 H 0.05678 0.97997 0.71034 0.0
H22 H 0.99629 0.03081 0.76112 0.0
H23 H 0.07927 0.03373 0.74598 0.0
H24 H 0.01733 0.1014 0.72944 0.0
O25 O 0.06428 0.02895 0.68443 0.0
O26 O 0.03347 0.06525 0.6716 0.0
O27 O 0.9845 0.05225 0.71192 0.0
C28 C 0.05866 0.05191 0.66779 0.0
H29 H 0.97758 0.95087 0.64462 0.0
H30 H 0.09131 0.07913 0.78202 0.0
H31 H 0.9857 0.98821 0.79328 0.0
H32 H 0.04914 0.93716 0.74292 0.0
Co33 Co 0.25301 0.77658 0.94058 0.0
C34 C 0.29656 0.74413 0.89963 0.0
C35 C 0.25052 0.73314 0.89433 0.0
C36 C 0.26631 0.71735 0.87399 0.0
N37 N 0.26912 0.75011 0.91053 0.0
N38 N 0.29506 0.72422 0.87726 0.0
H39 H 0.31706 0.75344 0.90758 0.0
H40 H 0.22675 0.73233 0.89709 0.0
C41 C 0.24894 0.71597 0.96459 0.0
O42 O 0.27689 0.71323 0.95685 0.0
N43 N 0.23482 0.80224 0.96935 0.0
C44 C 0.24458 0.82803 0.98099 0.0
C45 C 0.22303 0.83883 6e-05 0.0
C46 C 0.20787 0.79773 0.98105 0.0
N47 N 0.20025 0.81951 -0.00014 0.0
C48 C 0.31359 0.7874 0.95566 0.0
C49 C 0.30766 0.77159 0.01476 0.0
C50 C 0.3343 0.78351 0.00473 0.0
C51 C 0.33741 0.7913 0.97489 0.0
C52 C 0.28447 0.76798 0.99478 0.0
N53 N 0.28783 0.77507 0.96547 0.0
H54 H 0.31529 0.79577 0.93331 0.0
H55 H 0.26318 0.76121 0.00334 0.0
H56 H 0.26566 0.83824 0.97586 0.0
H57 H 0.19387 0.77898 0.9757 0.0
O58 O 0.26343 0.81051 0.91654 0.0
O59 O 0.22109 0.78529 0.91383 0.0
O60 O 0.23549 0.74072 0.96105 0.0
C61 C 0.23779 0.80663 0.90401 0.0
H62 H 0.2575 0.70165 0.85807 0.0
H63 H 0.22391 0.85908 0.01292 0.0
H64 H 0.3044 0.76647 0.03801 0.0
H65 H 0.35759 0.80161 0.9669 0.0
Co66 Co 0.54225 0.01 0.18781 0.0
C67 C 0.56208 0.05085 0.13876 0.0
C68 C 0.56716 0.00465 0.12862 0.0
C69 C 0.57899 0.02084 0.10586 0.0
N70 N 0.55695 0.02335 0.14959 0.0
N71 N 0.57618 0.04989 0.11238 0.0
H72 H 0.5569 0.07111 0.15009 0.0
H73 H 0.56783 0.98077 0.13064 0.0
C74 C 0.60848 0.00488 0.19045 0.0
O75 O 0.60992 0.02969 0.17537 0.0
N76 N 0.52702 0.99603 0.22501 0.0
C77 C 0.50721 0.0096 0.24294 0.0
C78 C 0.50065 0.99084 0.2662 0.0
C79 C 0.53211 0.96938 0.23718 0.0
N80 N 0.51641 0.96578 0.26229 0.0
C81 C 0.5337 0.07138 0.20089 0.0
C82 C 0.57507 0.0742 0.24619 0.0
C83 C 0.55818 0.09916 0.23938 0.0
C84 C 0.5373 0.09773 0.21651 0.0
C85 C 0.5702 0.04809 0.23048 0.0
N86 N 0.55096 0.04734 0.20707 0.0
H87 H 0.51691 0.07021 0.18386 0.0
H88 H 0.5811 0.02824 0.23811 0.0
H89 H 0.49768 0.03125 0.239 0.0
H90 H 0.54631 0.95261 0.22745 0.0
O91 O 0.50224 0.01796 0.17441 0.0
O92 O 0.52638 0.97551 0.16862 0.0
O93 O 0.58328 0.99374 0.19771 0.0
C94 C 0.50265 0.9912 0.16369 0.0
H95 H 0.59107 0.01193 0.08709 0.0
H96 H 0.48506 0.99481 0.28404 0.0
H97 H 0.5907 0.0745 0.26442 0.0
H98 H 0.52345 0.11666 0.21125 0.0
Co99 Co 0.29792 0.28302 0.43561 0.0
C100 C 0.25824 0.30897 0.38818 0.0
C101 C 0.30477 0.31435 0.37982 0.0
C102 C 0.28934 0.32908 0.35823 0.0
N103 N 0.28542 0.30205 0.39899 0.0
N104 N 0.26017 0.32586 0.36363 0.0
H105 H 0.23745 0.30368 0.39857 0.0
H106 H 0.32861 0.31426 0.38242 0.0
C107 C 0.30427 0.34772 0.44596 0.0
O108 O 0.27821 0.3504 0.4334 0.0
N109 N 0.31121 0.26378 0.47132 0.0
C110 C 0.29702 0.24267 0.48708 0.0
C111 C 0.31486 0.2343 0.51051 0.0
C112 C 0.33738 0.26785 0.48498 0.0
N113 N 0.34005 0.2502 0.5089 0.0
C114 C 0.23631 0.27535 0.44668 0.0
C115 C 0.23404 0.30957 0.49769 0.0
C116 C 0.20925 0.29343 0.48893 0.0
C117 C 0.2102 0.27663 0.46291 0.0
C118 C 0.25983 0.30744 0.48087 0.0
N119 N 0.26059 0.29113 0.45527 0.0
H120 H 0.2373 0.26093 0.42757 0.0
H121 H 0.27961 0.31718 0.48973 0.0
H122 H 0.27535 0.23389 0.48181 0.0
H123 H 0.3542 0.28326 0.47754 0.0
O124 O 0.28848 0.24472 0.41854 0.0
O125 O 0.33196 0.26774 0.41507 0.0
O126 O 0.31578 0.32201 0.44956 0.0
C127 C 0.31544 0.24508 0.4084 0.0
H128 H 0.29877 0.343 0.3411 0.0
H129 H 0.30989 0.21788 0.52728 0.0
H130 H 0.23416 0.32167 0.51845 0.0
H131 H 0.19143 0.26322 0.45619 0.0
Co132 Co 0.51101 0.50269 0.36065 0.0
C133 C 0.48976 0.53943 0.4115 0.0
C134 C 0.45419 0.52472 0.38353 0.0
C135 C 0.44264 0.5424 0.40522 0.0
N136 N 0.48383 0.52277 0.38725 0.0
N137 N 0.46483 0.55158 0.42286 0.0
H138 H 0.51157 0.54245 0.42086 0.0
H139 H 0.44132 0.51418 0.36635 0.0
C140 C 0.47176 0.48433 0.30934 0.0
O141 O 0.49293 0.49096 0.2905 0.0
N142 N 0.53771 0.48228 0.33377 0.0
C143 C 0.56134 0.49186 0.3179 0.0
C144 C 0.56963 0.46988 0.29819 0.0
C145 C 0.53296 0.45443 0.32439 0.0
N146 N 0.55132 0.44675 0.30226 0.0
C147 C 0.53871 0.5556 0.34032 0.0
C148 C 0.49041 0.57796 0.3098 0.0
C149 C 0.51671 0.59411 0.31081 0.0
C150 C 0.54103 0.58292 0.32629 0.0
C151 C 0.48903 0.55074 0.32427 0.0
N152 N 0.51342 0.53919 0.33815 0.0
H153 H 0.55724 0.5478 0.35326 0.0
H154 H 0.46789 0.5398 0.32518 0.0
H155 H 0.57138 0.51345 0.31918 0.0
H156 H 0.51495 0.44069 0.33214 0.0
O157 O 0.5437 0.50872 0.3881 0.0
O158 O 0.51388 0.46978 0.38764 0.0
O159 O 0.4758 0.48771 0.33717 0.0
C160 C 0.53639 0.4833 0.39954 0.0
H161 H 0.41944 0.54722 0.4087 0.0
H162 H 0.58643 0.4714 0.28111 0.0
H163 H 0.47092 0.58679 0.29889 0.0
H164 H 0.56136 0.59558 0.32815 0.0
Co165 Co 0.76834 0.25326 0.61779 0.0
C166 C 0.73268 0.21373 0.65315 0.0
C167 C 0.70491 0.2499 0.64034 0.0
C168 C 0.68991 0.23293 0.66105 0.0
N169 N 0.73196 0.23774 0.63541 0.0
N170 N 0.70781 0.21053 0.66922 0.0
H171 H 0.75224 0.20012 0.65617 0.0
H172 H 0.69696 0.27068 0.63178 0.0
C173 C 0.75382 0.19778 0.5845 0.0
O174 O 0.72591 0.20607 0.58381 0.0
N175 N 0.80556 0.26773 0.60147 0.0
C176 C 0.82306 0.28947 0.61241 0.0
C177 C 0.85012 0.28847 0.59831 0.0
C178 C 0.82214 0.25443 0.58036 0.0
N179 N 0.84936 0.2665 0.57807 0.0
C180 C 0.72856 0.29363 0.58956 0.0
C181 C 0.73396 0.26976 0.53332 0.0
C182 C 0.70971 0.28766 0.54011 0.0
C183 C 0.70855 0.30191 0.56768 0.0
C184 C 0.75303 0.26172 0.55619 0.0
N185 N 0.74772 0.27085 0.58458 0.0
H186 H 0.72699 0.30381 0.61117 0.0
H187 H 0.77077 0.24672 0.55134 0.0
H188 H 0.8174 0.30426 0.6304 0.0
H189 H 0.81543 0.23502 0.56802 0.0
O190 O 0.76658 0.28615 0.64498 0.0
O191 O 0.7886 0.24324 0.65387 0.0
O192 O 0.77368 0.21423 0.59635 0.0
C193 C 0.78066 0.26926 0.6636 0.0
H194 H 0.66873 0.23807 0.67115 0.0
H195 H 0.86921 0.3022 0.60312 0.0
H196 H 0.73621 0.25958 0.51166 0.0
H197 H 0.69065 0.31701 0.57315 0.0
Co198 Co 0.03146 0.55383 0.85924 0.0
C199 C 0.05082 0.52716 0.91701 0.0
C200 C 0.07916 0.5156 0.88068 0.0
C201 C 0.08918 0.50153 0.90567 0.0
N202 N 0.055 0.53162 0.88767 0.0
N203 N 0.07096 0.50801 0.92866 0.0
H204 H 0.03406 0.53857 0.92949 0.0
H205 H 0.08897 0.51428 0.85883 0.0
C206 C 0.07995 0.58032 0.81751 0.0
O207 O 0.06167 0.58862 0.79664 0.0
N208 N 0.00737 0.5752 0.83113 0.0
C209 C 0.98393 0.56458 0.81581 0.0
C210 C 0.97489 0.58584 0.79583 0.0
C211 C 0.0107 0.60328 0.82212 0.0
N212 N 0.99247 0.60966 0.79944 0.0
C213 C 0.02004 0.49326 0.84675 0.0
C214 C 0.03426 0.49541 0.78699 0.0
C215 C 0.02476 0.4689 0.79954 0.0
C216 C 0.01762 0.4677 0.82968 0.0
C217 C 0.03613 0.52043 0.80481 0.0
N218 N 0.02965 0.51906 0.83435 0.0
H219 H 0.01409 0.49252 0.86997 0.0
H220 H 0.04176 0.54095 0.79445 0.0
H221 H 0.97527 0.5423 0.8177 0.0
H222 H 0.02803 0.6179 0.83005 0.0
O223 O 0.99554 0.54778 0.88216 0.0
O224 O 0.02648 0.58579 0.88691 0.0
O225 O 0.07102 0.56687 0.84094 0.0
C226 C 0.00186 0.57292 0.89487 0.0
H227 H 0.10933 0.48856 0.90683 0.0
H228 H 0.95875 0.58305 0.77829 0.0
H229 H 0.03939 0.49687 0.76356 0.0
H230 H 0.00993 0.44729 0.83975 0.0
Co231 Co 0.74801 0.76861 0.10659 0.0
C232 C 0.79835 0.79433 0.14261 0.0
C233 C 0.75566 0.7993 0.16294 0.0
C234 C 0.77609 0.81395 0.17987 0.0
N235 N 0.76939 0.78696 0.13937 0.0
N236 N 0.80287 0.81111 0.16696 0.0
H237 H 0.81557 0.78917 0.12701 0.0
H238 H 0.73199 0.79951 0.16666 0.0
C239 C 0.74973 0.83324 0.09176 0.0
O240 O 0.77861 0.83188 0.09505 0.0
N241 N 0.72607 0.75057 0.07497 0.0
C242 C 0.73357 0.72666 0.05855 0.0
C243 C 0.71081 0.72084 0.03893 0.0
C244 C 0.69906 0.75875 0.06569 0.0
N245 N 0.68939 0.7411 0.04374 0.0
C246 C 0.80571 0.75165 0.08734 0.0
C247 C 0.8046 0.78207 0.034 0.0
C248 C 0.82994 0.76622 0.04208 0.0
C249 C 0.83022 0.75039 0.0687 0.0
C250 C 0.78066 0.78304 0.05356 0.0
N251 N 0.78216 0.76934 0.08059 0.0
H252 H 0.80596 0.73914 0.10776 0.0
H253 H 0.76073 0.79441 0.04676 0.0
H254 H 0.75406 0.71438 0.06073 0.0
H255 H 0.68662 0.77716 0.07485 0.0
O256 O 0.75376 0.72981 0.12444 0.0
O257 O 0.71581 0.76011 0.1328 0.0
O258 O 0.73417 0.80959 0.09402 0.0
C259 C 0.72904 0.73512 0.13836 0.0
H260 H 0.77129 0.82776 0.19895 0.0
H261 H 0.70993 0.7033 0.02256 0.0
H262 H 0.80343 0.79351 0.01293 0.0
H263 H 0.84928 0.73717 0.075 0.0
Co264 Co 0.69828 0.01254 0.04403 0.0
C265 C 0.65337 0.98486 0.00264 0.0
C266 C 0.642 0.98191 0.04877 0.0
C267 C 0.62081 0.96733 0.03271 0.0
N268 N 0.66265 0.9928 0.03008 0.0
N269 N 0.62819 0.96888 0.00386 0.0
H270 H 0.66503 0.98907 0.98228 0.0
H271 H 0.64297 0.98327 0.07269 0.0
C272 C 0.70936 0.9481 0.05118 0.0
O273 O 0.70183 0.94626 0.02313 0.0
N274 N 0.73281 0.0327 0.05846 0.0
C275 C 0.74783 0.05477 0.04491 0.0
C276 C 0.77102 0.0633 0.06291 0.0
C277 C 0.74653 0.02825 0.08441 0.0
N278 N 0.76988 0.04649 0.08751 0.0
C279 C 0.713 0.01789 0.98289 0.0
C280 C 0.76539 0.98582 0.98585 0.0
C281 C 0.75728 -0.00041 0.95944 0.0
C282 C 0.73079 0.01558 0.95787 0.0
C283 C 0.74698 0.98885 0.01043 0.0
N284 N 0.72053 0.00368 0.00844 0.0
H285 H 0.69343 0.03169 0.98198 0.0
H286 H 0.75479 0.98049 0.03143 0.0
H287 H 0.74239 0.06384 0.0234 0.0
H288 H 0.73971 0.01197 0.10067 0.0
O289 O 0.68146 0.0504 0.0326 0.0
O290 O 0.67582 0.02868 0.07634 0.0
O291 O 0.71063 0.97369 0.06363 0.0
C292 C 0.66975 0.05086 0.05893 0.0
H293 H 0.60222 0.95508 0.04159 0.0
H294 H 0.7875 0.08012 0.05833 0.0
H295 H 0.78644 0.97441 0.98786 0.0
H296 H 0.72462 0.0273 0.93782 0.0
Co297 Co 0.28683 0.44812 0.28105 0.0
C298 C 0.31664 0.39287 0.265 0.0
C299 C 0.28768 0.4053 0.22956 0.0
C300 C 0.30112 0.37876 0.22221 0.0
N301 N 0.29801 0.41452 0.25622 0.0
N302 N 0.3195 0.37144 0.24446 0.0
H303 H 0.32792 0.39272 0.28614 0.0
H304 H 0.27096 0.41604 0.21641 0.0
C305 C 0.35252 0.45295 0.2716 0.0
O306 O 0.34831 0.44368 0.24431 0.0
N307 N 0.27511 0.48094 0.30637 0.0
C308 C 0.24748 0.48751 0.31562 0.0
C309 C 0.2492 0.50825 0.33785 0.0
C310 C 0.293 0.49925 0.32179 0.0
N311 N 0.27788 0.5159 0.34176 0.0
C312 C 0.26613 0.47298 0.22634 0.0
C313 C 0.31024 0.51547 0.22203 0.0
C314 C 0.29209 0.50981 0.1978 0.0
C315 C 0.2688 0.48948 0.20042 0.0
C316 C 0.30677 0.49839 0.24739 0.0
N317 N 0.28692 0.47545 0.24805 0.0
H318 H 0.24805 0.45746 0.22853 0.0
H319 H 0.32094 0.50313 0.26599 0.0
H320 H 0.22739 0.47697 0.30799 0.0
H321 H 0.31669 0.49996 0.31872 0.0
O322 O 0.2461 0.43381 0.27976 0.0
O323 O 0.2801 0.42099 0.313 0.0
O324 O 0.33044 0.45631 0.28926 0.0
C325 C 0.25333 0.41797 0.30281 0.0
H326 H 0.29751 0.36574 0.20237 0.0
H327 H 0.23076 0.51587 0.35124 0.0
H328 H 0.3276 0.53203 0.2209 0.0
H329 H 0.25358 0.48569 0.18222 0.0
Co330 Co 0.85765 0.0496 0.5302 0.0
C331 C 0.90139 0.06843 0.48594 0.0
C332 C 0.89049 0.10345 0.51656 0.0
C333 C 0.91327 0.1127 0.49872 0.0
N334 N 0.88328 0.07567 0.50864 0.0
N335 N 0.92021 0.09073 0.4796 0.0
H336 H 0.90186 0.04678 0.47566 0.0
H337 H 0.8818 0.11503 0.53569 0.0
C338 C 0.80456 0.08769 0.54347 0.0
O339 O 0.78721 0.06581 0.53513 0.0
N340 N 0.83191 0.02332 0.55225 0.0
C341 C 0.82126 0.99604 0.54563 0.0
C342 C 0.80436 0.98606 0.56906 0.0
C343 C 0.82206 0.02905 0.57978 0.0
N344 N 0.8048 0.00713 0.59011 0.0
C345 C 0.83917 0.01657 0.47952 0.0
C346 C 0.80852 0.06217 0.45226 0.0
C347 C 0.81058 0.03467 0.43841 0.0
C348 C 0.82609 0.01165 0.45205 0.0
C349 C 0.82203 0.0661 0.47965 0.0
N350 N 0.83591 0.0431 0.49371 0.0
H351 H 0.85289 -0.00066 0.48879 0.0
H352 H 0.82236 0.08802 0.48865 0.0
H353 H 0.82566 0.98355 0.52579 0.0
H354 H 0.82744 0.04895 0.59211 0.0
O355 O 0.8869 0.01826 0.52683 0.0
O356 O 0.88432 0.05104 0.56354 0.0
O357 O 0.83266 0.08482 0.54229 0.0
C358 C 0.89774 0.02856 0.5515 0.0
H359 H 0.92621 0.1326 0.50173 0.0
H360 H 0.79285 0.96506 0.57068 0.0
H361 H 0.79773 0.08069 0.44141 0.0
H362 H 0.82901 0.99048 0.44103 0.0
Co363 Co 0.26223 0.61848 0.77999 0.0
C364 C 0.25893 0.68769 0.75594 0.0
C365 C 0.24091 0.63981 0.71188 0.0
C366 C 0.24029 0.68051 0.69118 0.0
N367 N 0.25241 0.64821 0.74994 0.0
N368 N 0.25099 0.70662 0.72069 0.0
H369 H 0.26158 0.69837 0.77726 0.0
H370 H 0.23525 0.61839 0.70273 0.0
C371 C 0.19678 0.60453 0.77216 0.0
O372 O 0.20001 0.60197 0.74339 0.0
N373 N 0.27203 0.58947 0.80966 0.0
C374 C 0.29402 0.56917 0.80857 0.0
C375 C 0.29025 0.54954 0.83168 0.0
C376 C 0.25552 0.58239 0.83343 0.0
N377 N 0.26601 0.55801 0.84695 0.0
C378 C 0.28311 0.59033 0.72748 0.0
C379 C 0.25216 0.53778 0.73524 0.0
C380 C 0.26984 0.54154 0.71016 0.0
C381 C 0.28591 0.56783 0.70654 0.0
C382 C 0.24978 0.56103 0.75547 0.0
N383 N 0.26398 0.58735 0.75064 0.0
H384 H 0.29584 0.61047 0.7249 0.0
H385 H 0.237 0.55774 0.77542 0.0
H386 H 0.31078 0.568 0.79143 0.0
H387 H 0.23568 0.59412 0.84018 0.0
O388 O 0.30361 0.63081 0.77908 0.0
O389 O 0.26867 0.64911 0.80874 0.0
O390 O 0.21873 0.61134 0.78868 0.0
C391 C 0.29636 0.64869 0.80057 0.0
H392 H 0.23032 0.68613 0.6701 0.0
H393 H 0.3038 0.53036 0.83666 0.0
H394 H 0.24039 0.51721 0.73908 0.0
H395 H 0.30045 0.57089 0.68765 0.0
Co396 Co 0.18043 0.54968 0.02892 0.0
C397 C 0.14084 0.58344 0.07008 0.0
C398 C 0.18609 0.5849 0.08352 0.0
C399 C 0.17008 0.60288 0.10203 0.0
N400 N 0.16775 0.57207 0.06368 0.0
N401 N 0.14128 0.60189 0.09394 0.0
H402 H 0.12188 0.58082 0.05581 0.0
H403 H 0.20999 0.58336 0.08341 0.0
C404 C 0.2146 0.59871 0.99441 0.0
O405 O 0.22925 0.58126 0.9764 0.0
N406 N 0.19363 0.5269 0.99505 0.0
C407 C 0.20643 0.49987 0.99636 0.0
C408 C 0.21611 0.49215 0.96846 0.0
C409 C 0.19388 0.53432 0.96622 0.0
N410 N 0.20921 0.5145 0.94991 0.0
C411 C 0.21334 0.52286 0.07502 0.0
C412 C 0.26835 0.54486 0.05862 0.0
C413 C 0.26452 0.53219 0.08649 0.0
C414 C 0.23723 0.51958 0.0941 0.0
C415 C 0.24381 0.54747 0.04011 0.0
N416 N 0.21639 0.53866 0.04948 0.0
H417 H 0.19176 0.51513 0.08196 0.0
H418 H 0.24693 0.5576 0.019 0.0
H419 H 0.21028 0.48754 0.01655 0.0
H420 H 0.18546 0.55508 0.95768 0.0
O421 O 0.15585 0.51608 0.0394 0.0
O422 O 0.14208 0.55353 0.01073 0.0
O423 O 0.19733 0.58877 0.01454 0.0
C424 C 0.13598 0.5277 0.02201 0.0
H425 H 0.17997 0.61692 0.11858 0.0
H426 H 0.23029 0.47354 0.963 0.0
H427 H 0.28952 0.55408 0.05201 0.0
H428 H 0.23393 0.50923 0.11554 0.0
Co429 Co 0.78142 0.93703 0.23648 0.0
C430 C 0.7542 0.89385 0.27967 0.0
C431 C 0.74616 0.88303 0.23404 0.0
C432 C 0.72995 0.86414 0.25145 0.0
N433 N 0.76099 0.90216 0.25159 0.0
N434 N 0.73464 0.87128 0.28005 0.0
H435 H 0.7616 0.90481 0.29946 0.0
H436 H 0.7455 0.88399 0.2101 0.0
C437 C 0.71666 0.95199 0.23574 0.0
O438 O 0.71452 0.93916 0.26168 0.0
N439 N 0.80194 0.97085 0.22099 0.0
C440 C 0.82587 0.98476 0.2324 0.0
C441 C 0.83357 0.00777 0.21374 0.0
C442 C 0.7955 0.98506 0.19575 0.0
N443 N 0.81434 0.00759 0.19094 0.0
C444 C 0.79609 0.94821 0.29688 0.0
C445 C 0.76577 0.00151 0.30092 0.0
C446 C 0.78191 0.99115 0.3251 0.0
C447 C 0.79737 0.96439 0.32308 0.0
C448 C 0.76527 0.9847 0.2751 0.0
N449 N 0.77898 0.95768 0.27385 0.0
H450 H 0.80879 0.92797 0.29505 0.0
H451 H 0.755 0.99414 0.25569 0.0
H452 H 0.83692 0.97857 0.25276 0.0
H453 H 0.77756 0.97893 0.18103 0.0
O454 O 0.81904 0.91702 0.24179 0.0
O455 O 0.79134 0.91545 0.20124 0.0
O456 O 0.74183 0.95394 0.22261 0.0
C457 C 0.81534 0.90716 0.21494 0.0
H458 H 0.71428 0.84771 0.24369 0.0
H459 H 0.85176 0.02318 0.21646 0.0
H460 H 0.75468 0.02282 0.30167 0.0
H461 H 0.81075 0.95644 0.34138 0.0
Co462 Co 0.35893 0.51512 0.51611 0.0
C463 C 0.39645 0.48627 0.56263 0.0
C464 C 0.41017 0.47685 0.51789 0.0
C465 C 0.42794 0.46133 0.53684 0.0
N466 N 0.39026 0.49227 0.53393 0.0
N467 N 0.41908 0.46685 0.56482 0.0
H468 H 0.38393 0.49464 0.58132 0.0
H469 H 0.41085 0.47597 0.49393 0.0
C470 C 0.32093 0.46418 0.49303 0.0
O471 O 0.29652 0.47708 0.50242 0.0
N472 N 0.32826 0.53853 0.49661 0.0
C473 C 0.32447 0.56828 0.49859 0.0
C474 C 0.3119 0.57866 0.47266 0.0
C475 C 0.31706 0.53154 0.46988 0.0
N476 N 0.30737 0.55532 0.45469 0.0
C477 C 0.32307 0.53178 0.56524 0.0
C478 C 0.31322 0.47496 0.58643 0.0
C479 C 0.30337 0.49933 0.60277 0.0
C480 C 0.30781 0.52794 0.59173 0.0
C481 C 0.32897 0.47985 0.56027 0.0
N482 N 0.33357 0.50795 0.54993 0.0
H483 H 0.32775 0.55398 0.55782 0.0
H484 H 0.3392 0.46113 0.5494 0.0
H485 H 0.33373 0.58221 0.51572 0.0
H486 H 0.32017 0.51042 0.45939 0.0
O487 O 0.37887 0.551 0.52949 0.0
O488 O 0.38635 0.52792 0.48649 0.0
O489 O 0.34601 0.477 0.49594 0.0
C490 C 0.39344 0.54919 0.50461 0.0
H491 H 0.44477 0.44548 0.53059 0.0
H492 H 0.30948 0.60167 0.46627 0.0
H493 H 0.31045 0.45261 0.59478 0.0
H494 H 0.30061 0.54723 0.60418 0.0
Co495 Co 0.7854 0.09867 0.76593 0.0
C496 C 0.8234 0.14714 0.78928 0.0
C497 C 0.78836 0.1357 0.81931 0.0
C498 C 0.80602 0.15656 0.83282 0.0
N499 N 0.79943 0.12958 0.79215 0.0
N500 N 0.82765 0.16402 0.8137 0.0
H501 H 0.83795 0.14705 0.77017 0.0
H502 H 0.76913 0.12524 0.82901 0.0
C503 C 0.84057 0.0683 0.74171 0.0
O504 O 0.82678 0.04274 0.74265 0.0
N505 N 0.76999 0.06743 0.74068 0.0
C506 C 0.75111 0.0454 0.7483 0.0
C507 C 0.74684 0.02711 0.72427 0.0
C508 C 0.77577 0.06298 0.71174 0.0
N509 N 0.76265 0.03813 0.70159 0.0
C510 C 0.76422 0.06633 0.81613 0.0
C511 C 0.81742 0.04016 0.83179 0.0
C512 C 0.79267 0.03616 0.84972 0.0
C513 C 0.76569 0.04904 0.84162 0.0
C514 C 0.81527 0.05866 0.80726 0.0
N515 N 0.78878 0.07098 0.79903 0.0
H516 H 0.74334 0.07658 0.81057 0.0
H517 H 0.83548 0.06368 0.79623 0.0
H518 H 0.74121 0.04223 0.76979 0.0
H519 H 0.79008 0.07705 0.69868 0.0
O520 O 0.74484 0.11291 0.77136 0.0
O521 O 0.77587 0.1275 0.73611 0.0
O522 O 0.8278 0.09172 0.75149 0.0
C523 C 0.74985 0.12935 0.74817 0.0
H524 H 0.80354 0.16525 0.85508 0.0
H525 H 0.73425 0.00669 0.72376 0.0
H526 H 0.83867 0.0307 0.83785 0.0
H527 H 0.74611 0.04631 0.85529 0.0
Co528 Co 0.04437 0.70914 0.02128 0.0
C529 C 0.00379 0.66006 0.00242 0.0
C530 C 0.04994 0.64947 -0.00254 0.0
C531 C 0.03356 0.62696 0.9854 0.0
N532 N 0.03137 0.67048 0.00783 0.0
N533 N 0.0046 0.63383 0.988 0.0
H534 H 0.98357 0.67187 0.00751 0.0
H535 H 0.07382 0.65136 0.9966 0.0
C536 C 0.05508 0.74066 0.96353 0.0
O537 O 0.04294 0.76453 0.97512 0.0
N538 N 0.05888 0.74737 0.03453 0.0
C539 C 0.04821 0.76636 0.0552 0.0
C540 C 0.06791 0.78957 0.05849 0.0
C541 C 0.08514 0.75888 0.02624 0.0
N542 N 0.09092 0.78458 0.04019 0.0
C543 C 0.98766 0.73081 0.03897 0.0
C544 C 0.96335 0.73799 0.98316 0.0
C545 C 0.94624 0.74422 0.00815 0.0
C546 C 0.95856 0.74059 0.03628 0.0
C547 C 0.99225 0.72762 0.98689 0.0
N548 N 0.00465 0.72522 0.01454 0.0
H549 H 0.99612 0.7269 0.06095 0.0
H550 H 0.00361 0.71995 0.96747 0.0
H551 H 0.02821 0.7635 0.06793 0.0
H552 H 0.10006 0.74839 0.0106 0.0
O553 O 0.03949 0.6962 0.0619 0.0
O554 O 0.08058 0.69138 0.03516 0.0
O555 O 0.05807 0.71749 0.97941 0.0
C556 C 0.06637 0.68608 0.05965 0.0
H557 H 0.0423 0.60836 0.97291 0.0
H558 H 0.06591 0.80821 0.0735 0.0
H559 H 0.95395 0.73966 0.96112 0.0
H560 H 0.94551 0.74464 0.05607 0.0
Co561 Co 0.53866 0.86154 0.03227 0.0
C562 C 0.50079 0.91168 0.05301 0.0
C563 C 0.54741 0.91931 0.05891 0.0
C564 C 0.53213 0.94173 0.07254 0.0
N565 N 0.52784 0.90029 0.04688 0.0
N566 N 0.50285 0.9367 0.06931 0.0
H567 H 0.48008 0.90122 0.04713 0.0
H568 H 0.57107 0.9157 0.06005 0.0
C569 C 0.55119 0.82829 0.08926 0.0
O570 O 0.53926 0.80417 0.07805 0.0
N571 N 0.55065 0.82301 0.0178 0.0
C572 C 0.53783 0.80479 -0.0023 0.0
C573 C 0.55635 0.78091 0.99271 0.0
C574 C 0.57694 0.81045 0.02405 0.0
N575 N 0.5807 0.7848 0.00941 0.0
C576 C 0.48065 0.84398 0.015 0.0
C577 C 0.45875 0.83067 0.07072 0.0
C578 C 0.44143 0.82519 0.04575 0.0
C579 C 0.45223 0.83254 0.01773 0.0
C580 C 0.48705 0.84251 0.06697 0.0
N581 N 0.49842 0.84737 0.03923 0.0
H582 H 0.48844 0.84969 0.99315 0.0
H583 H 0.49907 0.84835 0.08656 0.0
H584 H 0.51713 0.80864 0.98645 0.0
H585 H 0.59328 0.82014 0.03872 0.0
O586 O 0.53442 0.87588 0.99187 0.0
O587 O 0.57563 0.8772 0.01854 0.0
O588 O 0.55268 0.85183 0.07373 0.0
C589 C 0.56212 0.88358 0.99394 0.0
H590 H 0.54171 0.95887 0.08635 0.0
H591 H 0.55265 0.76259 0.97765 0.0
H592 H 0.45036 0.82616 0.09278 0.0
H593 H 0.43885 0.82916 -0.00194 0.0
Co594 Co 0.45172 0.27903 0.30241 0.0
C595 C 0.40606 0.23507 0.32184 0.0
C596 C 0.44344 0.23698 0.35089 0.0
C597 C 0.42413 0.21611 0.3614 0.0
N598 N 0.43177 0.24959 0.32653 0.0
N599 N 0.40024 0.21478 0.3433 0.0
H600 H 0.39175 0.23975 0.30335 0.0
H601 H 0.46454 0.24262 0.36069 0.0
C602 C 0.49046 0.3109 0.35018 0.0
O603 O 0.5093 0.32434 0.3327 0.0
N604 N 0.47248 0.3068 0.2772 0.0
C605 C 0.48567 0.29943 0.25131 0.0
C606 C 0.50171 0.32327 0.2412 0.0
C607 C 0.47909 0.33553 0.28153 0.0
N608 N 0.49798 0.34557 0.26064 0.0
C609 C 0.47369 0.22416 0.28171 0.0
C610 C 0.53256 0.23326 0.29693 0.0
C611 C 0.52396 0.20644 0.28414 0.0
C612 C 0.49431 0.20197 0.27626 0.0
C613 C 0.51117 0.25505 0.30176 0.0
N614 N 0.48214 0.25003 0.29476 0.0
H615 H 0.45075 0.22058 0.2758 0.0
H616 H 0.51808 0.27594 0.31073 0.0
H617 H 0.48516 0.2776 0.24139 0.0
H618 H 0.47206 0.34826 0.30063 0.0
O619 O 0.42506 0.27183 0.26927 0.0
O620 O 0.41854 0.30546 0.3047 0.0
O621 O 0.47071 0.29318 0.34046 0.0
C622 C 0.40929 0.29357 0.28022 0.0
H623 H 0.42692 0.2044 0.38211 0.0
H624 H 0.51696 0.32342 0.22266 0.0
H625 H 0.55546 0.23726 0.30297 0.0
H626 H 0.48718 0.18132 0.26622 0.0
Co627 Co 0.0256 0.17666 0.52927 0.0
C628 C 0.0548 0.13156 0.56587 0.0
C629 C 0.08379 0.14683 0.53133 0.0
C630 C 0.09884 0.12605 0.54803 0.0
N631 N 0.05637 0.15035 0.54285 0.0
N632 N 0.08039 0.11663 0.56952 0.0
H633 H 0.03553 0.12916 0.58 0.0
H634 H 0.09238 0.1589 0.51248 0.0
C635 C 0.0089 0.211 0.58369 0.0
O636 O 0.0117 0.23502 0.56741 0.0
N637 N 0.99399 0.20235 0.51514 0.0
C638 C 0.9909 0.21676 0.48903 0.0
C639 C 0.96373 0.23096 0.48865 0.0
C640 C 0.96804 0.20663 0.52927 0.0
N641 N 0.94989 0.22502 0.51441 0.0
C642 C 0.06292 0.22073 0.50283 0.0
C643 C 0.0923 0.23594 0.55454 0.0
C644 C 0.1017 0.2478 0.52761 0.0
C645 C 0.08652 0.24056 0.50157 0.0
C646 C 0.06969 0.21509 0.55452 0.0
N647 N 0.0544 0.20856 0.52914 0.0
H648 H 0.05314 0.21348 0.48233 0.0
H649 H 0.06558 0.20319 0.57476 0.0
H650 H 0.0065 0.21639 0.47093 0.0
H651 H 0.96224 0.19625 0.55009 0.0
O652 O 0.03136 0.16179 0.48932 0.0
O653 O 0.00025 0.14331 0.52284 0.0
O654 O 0.01365 0.18548 0.57202 0.0
C655 C 0.01143 0.14215 0.49624 0.0
H656 H 0.12158 0.1189 0.54514 0.0
H657 H 0.95487 0.24459 0.471 0.0
H658 H 0.1043 0.24047 0.57486 0.0
H659 H 0.09399 0.24878 0.48027 0.0
Co660 Co 0.10236 0.76984 0.782 0.0
C661 C 0.15404 0.80546 0.80477 0.0
C662 C 0.11216 0.8218 0.81963 0.0
C663 C 0.13383 0.83958 0.83098 0.0
N664 N 0.12457 0.80046 0.80286 0.0
N665 N 0.1605 0.82983 0.82137 0.0
H666 H 0.17039 0.79048 0.7958 0.0
H667 H 0.08879 0.82428 0.82371 0.0
C668 C 0.06533 0.74362 0.83509 0.0
O669 O 0.04518 0.72944 0.81971 0.0
N670 N 0.07987 0.74083 0.76006 0.0
C671 C 0.0666 0.74664 0.73385 0.0
C672 C 0.04871 0.72319 0.72636 0.0
C673 C 0.07138 0.71325 0.76729 0.0
N674 N 0.05136 0.70268 0.74779 0.0
C675 C 0.07813 0.82463 0.76195 0.0
C676 C 0.02271 0.81634 0.78736 0.0
C677 C 0.03128 0.84449 0.7782 0.0
C678 C 0.05855 0.8484 0.76383 0.0
C679 C 0.04292 0.79322 0.78482 0.0
N680 N 0.07103 0.79824 0.77477 0.0
H681 H 0.10009 0.82809 0.75295 0.0
H682 H 0.03625 0.77173 0.79198 0.0
H683 H 0.0682 0.76745 0.72206 0.0
H684 H 0.07817 0.7018 0.78724 0.0
O685 O 0.12609 0.77515 0.7465 0.0
O686 O 0.13593 0.74365 0.78295 0.0
O687 O 0.08578 0.75891 0.82262 0.0
C688 C 0.14337 0.75464 0.75736 0.0
H689 H 0.12976 0.85707 0.84682 0.0
H690 H 0.03301 0.72235 0.70823 0.0
H691 H 0.00131 0.81263 0.79765 0.0
H692 H 0.06536 0.87007 0.75599 0.0
Co693 Co 0.4956 0.34722 0.5389 0.0
C694 C 0.53492 0.3966 0.51314 0.0
C695 C 0.4882 0.40429 0.51073 0.0
C696 C 0.50216 0.42653 0.4958 0.0
N697 N 0.50839 0.38523 0.52195 0.0
N698 N 0.5315 0.42162 0.49689 0.0
H699 H 0.55609 0.38618 0.5165 0.0
H700 H 0.4645 0.40103 0.5109 0.0
C701 C 0.50458 0.33463 0.47464 0.0
O702 O 0.5315 0.34483 0.47826 0.0
N703 N 0.48037 0.31066 0.55447 0.0
C704 C 0.488 0.29494 0.57876 0.0
C705 C 0.46716 0.27267 0.58274 0.0
C706 C 0.45542 0.29823 0.54424 0.0
N707 N 0.44688 0.27518 0.56092 0.0
C708 C 0.55759 0.34353 0.55218 0.0
C709 C 0.56686 0.29182 0.52036 0.0
C710 C 0.59112 0.30754 0.53133 0.0
C711 C 0.58638 0.33293 0.54861 0.0
C712 C 0.53854 0.3029 0.52516 0.0
N713 N 0.53467 0.33004 0.5379 0.0
H714 H 0.55384 0.36357 0.56482 0.0
H715 H 0.51963 0.29049 0.51736 0.0
H716 H 0.50654 0.30001 0.59309 0.0
H717 H 0.44279 0.30688 0.52576 0.0
O718 O 0.4976 0.36372 0.57835 0.0
O719 O 0.4582 0.36526 0.54913 0.0
O720 O 0.48668 0.33305 0.49677 0.0
C721 C 0.4705 0.37244 0.57429 0.0
H722 H 0.49145 0.44365 0.48279 0.0
H723 H 0.46623 0.25683 0.60073 0.0
H724 H 0.56986 0.27139 0.50803 0.0
H725 H 0.60479 0.34486 0.55837 0.0
Co726 Co 0.95036 0.26118 0.75911 0.0
C727 C 0.8867 0.27549 0.74815 0.0
C728 C 0.91593 0.3004 0.7204 0.0
C729 C 0.88744 0.30947 0.71506 0.0
N730 N 0.91558 0.27913 0.74129 0.0
N731 N 0.86883 0.29434 0.73303 0.0
H732 H 0.8791 0.25878 0.76317 0.0
H733 H 0.93555 0.30899 0.70974 0.0
C734 C 0.98848 0.2398 0.70719 0.0
O735 O 0.0126 0.23966 0.72345 0.0
N736 N 0.98502 0.2445 0.77753 0.0
C737 C 0.00428 0.25799 0.79612 0.0
C738 C 0.02528 0.23758 0.80496 0.0
C739 C 0.99379 0.21612 0.77613 0.0
N740 N 0.01847 0.21156 0.79208 0.0
C741 C 0.95867 0.32037 0.77762 0.0
C742 C 0.00388 0.33522 0.73887 0.0
C743 C 0.99377 0.35598 0.75939 0.0
C744 C 0.97079 0.34861 0.77876 0.0
C745 C 0.99144 0.30703 0.73878 0.0
N746 N 0.96923 0.29977 0.75813 0.0
H747 H 0.94055 0.31512 0.79232 0.0
H748 H -0.00021 0.29173 0.72283 0.0
H749 H 0.0033 0.28101 0.80274 0.0
H750 H 0.98296 0.19933 0.76281 0.0
O751 O 0.9322 0.2628 0.7983 0.0
O752 O 0.92895 0.22513 0.76711 0.0
O753 O 0.9639 0.24964 0.7176 0.0
C754 C 0.92238 0.23623 0.79291 0.0
H755 H 0.88097 0.32518 0.69813 0.0
H756 H 0.04432 0.24156 0.81901 0.0
H757 H 0.02143 0.34069 0.72339 0.0
H758 H 0.96234 0.3646 0.79462 0.0
Co759 Co 0.60677 0.79826 0.27036 0.0
C760 C 0.64714 0.7514 0.24539 0.0
C761 C 0.66438 0.79553 0.24125 0.0
C762 C 0.68321 0.77653 0.22701 0.0
N763 N 0.64168 0.77996 0.25298 0.0
N764 N 0.67229 0.74887 0.22935 0.0
H765 H 0.63275 0.73298 0.25031 0.0
H766 H 0.6664 0.81938 0.24132 0.0
C767 C 0.57142 0.81826 0.21561 0.0
O768 O 0.54752 0.82438 0.23108 0.0
N769 N 0.57265 0.8173 0.28773 0.0
C770 C 0.55232 0.80612 0.3067 0.0
C771 C 0.5329 0.8285 0.31461 0.0
C772 C 0.56609 0.84624 0.28525 0.0
N773 N 0.54173 0.85341 0.30078 0.0
C774 C 0.59397 0.74069 0.29242 0.0
C775 C 0.5468 0.72804 0.25531 0.0
C776 C 0.55485 0.70787 0.2772 0.0
C777 C 0.5787 0.71416 0.29587 0.0
C778 C 0.56251 0.75446 0.25275 0.0
N779 N 0.58601 0.7605 0.27094 0.0
H780 H 0.61245 0.74515 0.30691 0.0
H781 H 0.55487 0.76991 0.23661 0.0
H782 H 0.55155 0.78341 0.31432 0.0
H783 H 0.57831 0.86163 0.27145 0.0
O784 O 0.62505 0.7966 0.30923 0.0
O785 O 0.62935 0.83367 0.27742 0.0
O786 O 0.59451 0.80761 0.22808 0.0
C787 C 0.63695 0.82195 0.3026 0.0
H788 H 0.70255 0.78274 0.21418 0.0
H789 H 0.5136 0.8266 0.32876 0.0
H790 H 0.52814 0.7237 0.24082 0.0
H791 H 0.58532 0.69872 0.31304 0.0
C792 C 0.02105 0.91989 0.80701 0.0
C793 C 0.00535 0.93146 0.78272 0.0
C794 C 0.99296 0.88184 0.7654 0.0
C795 C 0.01374 0.87079 0.78605 0.0
N796 N 0.04015 0.87764 0.83234 0.0
N797 N 0.96748 0.92525 0.74588 0.0
C798 C 0.02453 0.88905 0.80921 0.0
C799 C 0.98771 0.91283 0.76467 0.0
N800 N 0.03428 0.9384 0.82691 0.0
N801 N 0.98043 0.86302 0.74527 0.0
H802 H 0.96389 0.94812 0.7453 0.0
H803 H 0.95296 0.91314 0.7327 0.0
H804 H 0.98374 0.84012 0.7462 0.0
H805 H 0.96719 0.86984 0.72766 0.0
H806 H 0.04689 0.93053 0.84466 0.0
H807 H 0.03183 0.9614 0.82571 0.0
H808 H 0.04342 0.85493 0.83546 0.0
H809 H 0.04342 0.85493 0.83546 0.0
C810 C 0.38689 0.8305 0.04916 0.0
C811 C 0.41187 0.81161 0.04789 0.0
C812 C 0.38118 0.7705 0.03068 0.0
C813 C 0.35807 0.79113 0.02573 0.0
N814 N 0.33617 0.83929 0.03339 0.0
N815 N 0.43327 0.76308 0.0424 0.0
C816 C 0.35983 0.82058 0.03665 0.0
C817 C 0.40894 0.78113 0.0409 0.0
N818 N 0.38959 0.85804 0.06154 0.0
N819 N 0.37654 0.7411 0.02489 0.0
H820 H 0.45345 0.77034 0.05109 0.0
H821 H 0.43382 0.74132 0.03475 0.0
H822 H 0.35626 0.73307 0.01719 0.0
H823 H 0.39176 0.72443 0.02961 0.0
H824 H 0.37194 0.8725 0.06496 0.0
H825 H 0.40949 0.86557 0.07062 0.0
H826 H 0.3368 0.8619 0.0379 0.0
H827 H 0.31569 0.83218 0.02532 0.0
C828 C 0.54213 0.15687 0.29769 0.0
C829 C 0.54508 0.18204 0.27937 0.0
C830 C 0.57103 0.15248 0.24232 0.0
C831 C 0.56064 0.12668 0.25683 0.0
N832 N 0.53723 0.10356 0.29923 0.0
N833 N 0.56502 0.20553 0.23583 0.0
C834 C 0.5473 0.12851 0.2853 0.0
C835 C 0.56117 0.18055 0.25248 0.0
N836 N 0.53309 0.16033 0.32639 0.0
N837 N 0.58952 0.14981 0.21845 0.0
H838 H 0.55872 0.2265 0.24333 0.0
H839 H 0.57346 0.20539 0.21433 0.0
H840 H 0.59687 0.12919 0.21084 0.0
H841 H 0.59957 0.16777 0.20803 0.0
H842 H 0.53258 0.14307 0.34172 0.0
H843 H 0.52896 0.18124 0.33548 0.0
H844 H 0.5242 0.10405 0.31829 0.0
H845 H 0.54038 0.08224 0.29089 0.0
C846 C 0.13037 0.29336 0.51478 0.0
C847 C 0.13006 0.26386 0.52569 0.0
C848 C 0.18407 0.26335 0.52649 0.0
C849 C 0.18393 0.28921 0.50894 0.0
N850 N 0.15815 0.33066 0.48766 0.0
N851 N 0.15707 0.21913 0.53893 0.0
C852 C 0.15743 0.30517 0.50397 0.0
C853 C 0.15702 0.24856 0.53152 0.0
N854 N 0.10483 0.30966 0.51451 0.0
N855 N 0.21023 0.2522 0.53692 0.0
H856 H 0.13796 0.20635 0.54092 0.0
H857 H 0.17635 0.20646 0.54018 0.0
H858 H 0.23056 0.26248 0.53294 0.0
H859 H 0.21134 0.23475 0.55201 0.0
H860 H 0.10406 0.33201 0.5088 0.0
H861 H 0.08478 0.30135 0.52257 0.0
H862 H 0.13923 0.34162 0.48025 0.0
H863 H 0.17806 0.3402 0.48068 0.0
C864 C 0.53311 0.62752 0.27024 0.0
C865 C 0.51861 0.62396 0.29788 0.0
C866 C 0.51879 0.67751 0.30588 0.0
C867 C 0.53816 0.6802 0.28139 0.0
N868 N 0.56325 0.66055 0.23957 0.0
N869 N 0.49615 0.64468 0.34186 0.0
C870 C 0.54461 0.65587 0.26289 0.0
C871 C 0.51041 0.64879 0.31541 0.0
N872 N 0.53597 0.60375 0.25161 0.0
N873 N 0.50866 0.70245 0.31986 0.0
H874 H 0.48882 0.62398 0.34909 0.0
H875 H 0.49267 0.66147 0.35733 0.0
H876 H 0.51466 0.72375 0.31309 0.0
H877 H 0.49247 0.70227 0.33633 0.0
H878 H 0.54416 0.6051 0.23009 0.0
H879 H 0.52766 0.58282 0.25692 0.0
H880 H 0.57128 0.64403 0.22551 0.0
H881 H 0.57128 0.64403 0.22551 0.0
C882 C 0.63235 0.27049 0.53539 0.0
C883 C 0.62156 0.2979 0.52444 0.0
C884 C 0.6715 0.31254 0.50965 0.0
C885 C 0.68218 0.28625 0.52274 0.0
N886 N 0.67262 0.2351 0.5348 0.0
N887 N 0.62869 0.33985 0.49197 0.0
C888 C 0.66239 0.26327 0.53052 0.0
C889 C 0.64046 0.31719 0.50825 0.0
N890 N 0.61492 0.25261 0.55256 0.0
N891 N 0.69117 0.33356 0.50043 0.0
H892 H 0.60586 0.34322 0.49022 0.0
H893 H 0.64127 0.35342 0.47817 0.0
H894 H 0.71401 0.32962 0.50049 0.0
H895 H 0.68499 0.3548 0.49378 0.0
H896 H 0.62304 0.23404 0.56364 0.0
H897 H 0.59306 0.25766 0.5581 0.0
H898 H 0.65864 0.21711 0.53861 0.0
H899 H 0.69462 0.2292 0.53095 0.0
C900 C 0.03392 0.39001 0.77634 0.0
C901 C 0.0068 0.38574 0.76105 0.0
C902 C 0.99509 0.43833 0.76435 0.0
C903 C 0.02128 0.44225 0.78123 0.0
N904 N 0.06991 0.42527 0.7951 0.0
N905 N 0.96677 0.40587 0.73215 0.0
C906 C 0.04228 0.41917 0.78427 0.0
C907 C 0.98923 0.41009 0.75204 0.0
N908 N 0.05053 0.36617 0.78502 0.0
N909 N 0.97503 0.46094 0.76174 0.0
H910 H 0.96223 0.38514 0.72288 0.0
H911 H 0.95462 0.42313 0.7228 0.0
H912 H 0.97879 0.48216 0.77012 0.0
H913 H 0.95396 0.45829 0.75272 0.0
H914 H 0.0686 0.36777 0.79928 0.0
H915 H 0.04531 0.3444 0.77927 0.0
H916 H 0.08713 0.40987 0.79547 0.0
H917 H 0.0764 0.44667 0.80111 0.0
C918 C 0.89272 0.73109 0.00132 0.0
C919 C 0.91482 0.75306 0.0058 0.0
C920 C 0.87784 0.78783 0.02439 0.0
C921 C 0.85635 0.765 0.02286 0.0
N922 N 0.84016 0.71916 0.00112 0.0
N923 N 0.92777 0.80408 0.01526 0.0
C924 C 0.86278 0.73807 0.00808 0.0
C925 C 0.90694 0.78213 0.01461 0.0
N926 N 0.90064 0.70301 0.99301 0.0
N927 N 0.87163 0.81488 0.03633 0.0
H928 H 0.94943 0.80081 0.00774 0.0
H929 H 0.9229 0.82562 0.02227 0.0
H930 H 0.85082 0.82106 0.04437 0.0
H931 H 0.85082 0.82106 0.04437 0.0
H932 H 0.88606 0.68513 0.99288 0.0
H933 H 0.92231 0.69709 0.98762 0.0
H934 H 0.84284 0.70021 0.9882 0.0
H935 H 0.81807 0.72411 0.00604 0.0
C936 C 0.77225 0.98238 0.90956 0.0
C937 C 0.77772 0.00102 0.93411 0.0
C938 C 0.80589 0.03533 0.90333 0.0
C939 C 0.79474 0.02019 0.87811 0.0
N940 N 0.77304 0.97686 0.85589 0.0
N941 N 0.80327 0.04198 0.95674 0.0
C942 C 0.78024 0.99246 0.88087 0.0
C943 C 0.79655 0.026 0.93183 0.0
N944 N 0.75847 0.95576 0.91397 0.0
N945 N 0.82431 0.05917 0.89991 0.0
H946 H 0.79757 0.03487 0.97798 0.0
H947 H 0.81391 0.06242 0.95668 0.0
H948 H 0.83049 0.06754 0.87932 0.0
H949 H 0.83517 0.06972 0.91729 0.0
H950 H 0.75418 0.94036 0.89736 0.0
H951 H 0.75282 0.94832 0.93516 0.0
H952 H 0.76047 0.95756 0.85573 0.0
H953 H 0.77992 0.98353 0.83481 0.0
C954 C 0.28224 0.55766 0.13093 0.0
C955 C 0.28701 0.53502 0.10979 0.0
C956 C 0.31132 0.50454 0.14682 0.0
C957 C 0.29845 0.52299 0.16875 0.0
N958 N 0.27599 0.56928 0.18311 0.0
N959 N 0.31127 0.49021 0.09482 0.0
C960 C 0.28607 0.5508 0.16129 0.0
C961 C 0.30418 0.50987 0.11674 0.0
N962 N 0.27231 0.58474 0.12176 0.0
N963 N 0.32909 0.48145 0.15514 0.0
H964 H 0.3066 0.49469 0.07258 0.0
H965 H 0.32117 0.46969 0.09851 0.0
H966 H 0.33432 0.47742 0.17733 0.0
H967 H 0.34037 0.46787 0.14025 0.0
H968 H 0.26966 0.6029 0.13578 0.0
H969 H 0.2692 0.58955 0.09934 0.0
H970 H 0.26383 0.58849 0.1791 0.0
H971 H 0.2792 0.56481 0.20557 0.0
C972 C 0.81778 0.03744 0.38381 0.0
C973 C 0.79924 0.03046 0.40822 0.0
C974 C 0.76504 0.00354 0.37618 0.0
C975 C 0.78454 0.009 0.35217 0.0
N976 N 0.82434 0.03719 0.33044 0.0
N977 N 0.75216 0.01426 0.42738 0.0
C978 C 0.80916 0.02819 0.3551 0.0
C979 C 0.77168 0.01603 0.40424 0.0
N980 N 0.84435 0.05134 0.38839 0.0
N981 N 0.74109 0.98537 0.37232 0.0
H982 H 0.75674 0.02324 0.44823 0.0
H983 H 0.73065 0.00616 0.42544 0.0
H984 H 0.73504 0.9769 0.35164 0.0
H985 H 0.72787 0.97769 0.3896 0.0
H986 H 0.86052 0.0538 0.3721 0.0
H987 H 0.85106 0.05923 0.40907 0.0
H988 H 0.84078 0.05337 0.33074 0.0
H989 H 0.81876 0.03028 0.30908 0.0
C990 C 0.31003 0.49355 0.65739 0.0
C991 C 0.29068 0.49608 0.63273 0.0
C992 C 0.25185 0.51709 0.66392 0.0
C993 C 0.27258 0.5182 0.68745 0.0
N994 N 0.31592 0.49805 0.71076 0.0
N995 N 0.24101 0.4995 0.61409 0.0
C996 C 0.29975 0.50274 0.68561 0.0
C997 C 0.26059 0.50384 0.63676 0.0
N998 N 0.33881 0.48491 0.65338 0.0
N999 N 0.22488 0.53059 0.66689 0.0
H1000 H 0.24754 0.48985 0.59406 0.0
H1001 H 0.21825 0.50288 0.616 0.0
H1002 H 0.2177 0.53976 0.68689 0.0
H1003 H 0.21005 0.53355 0.64947 0.0
H1004 H 0.35493 0.48614 0.66984 0.0
H1005 H 0.34698 0.47756 0.63306 0.0
H1006 H 0.33499 0.48504 0.71144 0.0
H1007 H 0.30845 0.50503 0.73156 0.0
C1008 C 0.08166 0.06652 0.59093 0.0
C1009 C 0.0869 0.09729 0.59385 0.0
C1010 C 0.08865 0.0929 0.64771 0.0
C1011 C 0.07896 0.0632 0.64485 0.0
N1012 N 0.07597 0.01885 0.61566 0.0
N1013 N 0.10305 0.13866 0.62298 0.0
C1014 C 0.0792 0.04891 0.61696 0.0
C1015 C 0.09342 0.10998 0.62174 0.0
N1016 N 0.07709 0.05487 0.56336 0.0
N1017 N 0.09145 0.10484 0.6754 0.0
H1018 H 0.10627 0.15133 0.60389 0.0
H1019 H 0.10934 0.14945 0.64236 0.0
H1020 H 0.08938 0.09183 0.69443 0.0
H1021 H 0.09571 0.1271 0.67966 0.0
H1022 H 0.07044 0.03314 0.55943 0.0
H1023 H 0.07925 0.0676 0.54417 0.0
H1024 H 0.07738 0.00656 0.59617 0.0
H1025 H 0.07409 0.00594 0.63475 0.0
C1026 C 0.20877 0.84819 0.88239 0.0
C1027 C 0.22836 0.82405 0.87827 0.0
C1028 C 0.21464 0.82143 0.82612 0.0
C1029 C 0.18925 0.83822 0.83327 0.0
N1030 N 0.17684 0.8838 0.85778 0.0
N1031 N 0.25624 0.79297 0.84489 0.0
C1032 C 0.19092 0.85709 0.85821 0.0
C1033 C 0.23387 0.81281 0.84942 0.0
N1034 N 0.20614 0.86129 0.90953 0.0
N1035 N 0.22061 0.81528 0.79717 0.0
H1036 H 0.27169 0.78819 0.8614 0.0
H1037 H 0.25926 0.78134 0.82516 0.0
H1038 H 0.20741 0.82422 0.78039 0.0
H1039 H 0.2396 0.80431 0.78992 0.0
H1040 H 0.18978 0.87687 0.91448 0.0
H1041 H 0.21995 0.85568 0.92722 0.0
H1042 H 0.17879 0.89945 0.87469 0.0
H1043 H 0.16602 0.89119 0.83868 0.0
C1044 C 0.47956 0.98149 0.08804 0.0
C1045 C 0.48101 0.95023 0.08826 0.0
C1046 C 0.47459 0.94973 0.14181 0.0
C1047 C 0.48074 0.98042 0.14187 0.0
N1048 N 0.47325 0.02679 0.11665 0.0
N1049 N 0.46395 0.90589 0.1124 0.0
C1050 C 0.47721 -0.00315 0.11542 0.0
C1051 C 0.4725 0.93478 0.11422 0.0
N1052 N 0.48386 0.99598 0.06189 0.0
N1053 N 0.47323 0.93497 0.16816 0.0
H1054 H 0.46077 0.8955 0.09205 0.0
H1055 H 0.45679 0.8935 0.13049 0.0
H1056 H 0.47401 0.94638 0.18832 0.0
H1057 H 0.47209 0.91199 0.17002 0.0
H1058 H 0.4866 0.01884 0.06018 0.0
H1059 H 0.48552 0.98432 0.04191 0.0
H1060 H 0.46964 0.03989 0.098 0.0
H1061 H 0.47036 0.03784 0.13677 0.0
C1062 C 0.3468 0.20077 0.39906 0.0
C1063 C 0.32671 0.22223 0.38815 0.0
C1064 C 0.34572 0.21463 0.33823 0.0
C1065 C 0.37147 0.20263 0.35127 0.0
N1066 N 0.38614 0.16586 0.38652 0.0
N1067 N 0.30111 0.24367 0.34648 0.0
C1068 C 0.36823 0.18904 0.37925 0.0
C1069 C 0.32368 0.22663 0.3572 0.0
N1070 N 0.34658 0.19346 0.42839 0.0
N1071 N 0.34254 0.21376 0.30824 0.0
H1072 H 0.28413 0.25145 0.36016 0.0
H1073 H 0.29953 0.25026 0.32441 0.0
H1074 H 0.35825 0.203 0.29499 0.0
H1075 H 0.32356 0.2209 0.2972 0.0
H1076 H 0.36262 0.18009 0.43826 0.0
H1077 H 0.33031 0.20148 0.44281 0.0
H1078 H 0.38414 0.15386 0.40615 0.0
H1079 H 0.4015 0.15755 0.37125 0.0
C1080 C 0.55255 0.46797 0.47911 0.0
C1081 C 0.55189 0.4367 0.47745 0.0
C1082 C 0.55831 0.43882 0.42385 0.0
C1083 C 0.55215 0.46961 0.42504 0.0
N1084 N 0.5576 0.51488 0.45306 0.0
N1085 N 0.56979 0.39395 0.45129 0.0
C1086 C 0.55438 0.48482 0.4525 0.0
C1087 C 0.56028 0.42261 0.45073 0.0
N1088 N 0.54881 0.48101 0.50616 0.0
N1089 N 0.56128 0.42521 0.39695 0.0
H1090 H 0.57363 0.38298 0.47117 0.0
H1091 H 0.57728 0.38245 0.43272 0.0
H1092 H 0.56249 0.43732 0.37728 0.0
H1093 H 0.56221 0.40232 0.39408 0.0
H1094 H 0.54616 0.5037 0.50941 0.0
H1095 H 0.54782 0.4683 0.5255 0.0
H1096 H 0.5602 0.52714 0.47244 0.0
H1097 H 0.56091 0.52724 0.43387 0.0
C1098 C 0.82188 0.31749 0.71598 0.0
C1099 C 0.83671 0.29423 0.73087 0.0
C1100 C 0.79976 0.25898 0.71469 0.0
C1101 C 0.79066 0.27988 0.69308 0.0
N1102 N 0.77954 0.3318 0.68575 0.0
N1103 N 0.82364 0.25345 0.7622 0.0
C1104 C 0.79713 0.31035 0.69781 0.0
C1105 C 0.82083 0.26786 0.73595 0.0
N1106 N 0.83177 0.34583 0.71942 0.0
N1107 N 0.78852 0.23094 0.71481 0.0
H1108 H 0.83484 0.26349 0.77973 0.0
H1109 H 0.8112 0.2348 0.76775 0.0
H1110 H 0.77084 0.22484 0.7013 0.0
H1111 H 0.79701 0.21399 0.72804 0.0
H1112 H 0.8239 0.36386 0.70737 0.0
H1113 H 0.84834 0.35087 0.73481 0.0
H1114 H 0.78301 0.35441 0.68867 0.0
H1115 H 0.75929 0.32682 0.67582 0.0
C1116 C 0.97842 0.59 0.97131 0.0
C1117 C 0.98246 0.62085 0.96912 0.0
C1118 C 0.97794 0.61784 0.91541 0.0
C1119 C 0.9828 0.58694 0.91769 0.0
N1120 N 0.97451 0.54288 0.94745 0.0
N1121 N 0.97024 0.66451 0.94135 0.0
C1122 C 0.97793 0.57271 0.94524 0.0
C1123 C 0.97642 0.63496 0.94179 0.0
N1124 N 0.97759 0.57713 -0.00143 0.0
N1125 N 0.97614 0.63048 0.888 0.0
H1126 H 0.96698 0.67635 0.96086 0.0
H1127 H 0.96542 0.67651 0.92227 0.0
H1128 H 0.97484 0.61744 0.86892 0.0
H1129 H 0.97562 0.65321 0.88413 0.0
H1130 H 0.97492 0.55431 0.0014 0.0
H1131 H 0.97874 0.58989 0.0179 0.0
H1132 H 0.97351 0.52876 0.92915 0.0
H1133 H 0.97351 0.52876 0.92915 0.0
C1134 C 0.68613 0.71071 0.16034 0.0
C1135 C 0.7169 0.71576 0.16167 0.0
C1136 C 0.71439 0.71867 0.2154 0.0
C1137 C 0.6837 0.72423 0.21257 0.0
N1138 N 0.63866 0.71526 0.18541 0.0
N1139 N 0.76183 0.71354 0.18995 0.0
C1140 C 0.66886 0.71578 0.18619 0.0
C1141 C 0.73163 0.71502 0.18926 0.0
N1142 N 0.67386 0.70335 0.1337 0.0
N1143 N 0.72675 0.72028 0.24293 0.0
H1144 H 0.77421 0.71004 0.17071 0.0
H1145 H 0.77445 0.71486 0.20919 0.0
H1146 H 0.71357 0.72388 0.26167 0.0
H1147 H 0.74913 0.71689 0.24737 0.0
H1148 H 0.65149 0.69879 0.13044 0.0
H1149 H 0.68718 0.70015 0.11499 0.0
H1150 H 0.62626 0.71182 0.16629 0.0
H1151 H 0.62582 0.71736 0.20446 0.0
C1152 C 0.64669 0.08101 0.09823 0.0
C1153 C 0.64703 0.07261 0.06807 0.0
C1154 C 0.59321 0.07266 0.06677 0.0
C1155 C 0.59351 0.07257 0.09807 0.0
N1156 N 0.61671 0.09426 0.14097 0.0
N1157 N 0.62192 0.07583 0.02116 0.0
C1158 C 0.619 0.08322 0.11294 0.0
C1159 C 0.6206 0.07431 0.05131 0.0
N1160 N 0.67293 0.08446 0.11287 0.0
N1161 N 0.56706 0.06744 0.05259 0.0
H1162 H 0.64204 0.07814 0.01 0.0
H1163 H 0.60331 0.07785 0.00768 0.0
H1164 H 0.54718 0.06608 0.06447 0.0
H1165 H 0.56517 0.06388 0.02986 0.0
H1166 H 0.67463 0.08735 0.13571 0.0
H1167 H 0.69318 0.08363 0.1016 0.0
H1168 H 0.63452 0.1031 0.15269 0.0
H1169 H 0.59625 0.0979 0.15098 0.0
C1170 C 0.22842 0.39667 0.34641 0.0
C1171 C 0.23403 0.39497 0.31571 0.0
C1172 C 0.23476 0.34098 0.31868 0.0
C1173 C 0.23776 0.34373 0.3497 0.0
N1174 N 0.22453 0.37243 0.39315 0.0
N1175 N 0.23139 0.36629 0.27097 0.0
C1176 C 0.22952 0.37065 0.36351 0.0
C1177 C 0.23262 0.36719 0.30118 0.0
N1178 N 0.22366 0.42345 0.35955 0.0
N1179 N 0.23658 0.31337 0.3065 0.0
H1180 H 0.22932 0.3856 0.25841 0.0
H1181 H 0.23099 0.34687 0.25855 0.0
H1182 H 0.23859 0.29458 0.31992 0.0
H1183 H 0.23557 0.30897 0.28388 0.0
H1184 H 0.22053 0.42578 0.38238 0.0
H1185 H 0.22177 0.44279 0.34709 0.0
H1186 H 0.22394 0.35399 0.40706 0.0
H1187 H 0.22394 0.35399 0.40706 0.0
C1188 C 0.9509 0.03423 0.5667 0.0
C1189 C 0.92501 0.0163 0.56479 0.0
C1190 C 0.95094 0.97672 0.59106 0.0
C1191 C 0.97261 -0.00244 0.5999 0.0
N1192 N 0.00283 0.03663 0.58075 0.0
N1193 N 0.90066 0.96944 0.57426 0.0
C1194 C 0.97565 0.02358 0.58286 0.0
C1195 C 0.92524 0.98699 0.57622 0.0
N1196 N 0.95152 0.06164 0.55394 0.0
N1197 N 0.95673 0.94717 0.59324 0.0
H1198 H 0.88132 0.97602 0.56346 0.0
H1199 H 0.89894 0.94917 0.58522 0.0
H1200 H 0.97797 0.93953 0.59834 0.0
H1201 H 0.94243 0.93087 0.58524 0.0
H1202 H 0.96837 0.07702 0.55739 0.0
H1203 H 0.93447 0.06941 0.54059 0.0
H1204 H 0.00751 0.05473 0.56724 0.0
H1205 H 0.02144 0.02688 0.59041 0.0
C1206 C 0.325 0.68081 0.86845 0.0
C1207 C 0.31797 0.71015 0.86032 0.0
C1208 C 0.32139 0.69679 0.80809 0.0
C1209 C 0.31814 0.66697 0.81673 0.0
N1210 N 0.3287 0.62927 0.85242 0.0
N1211 N 0.31885 0.74842 0.82392 0.0
C1212 C 0.32474 0.65856 0.84613 0.0
C1213 C 0.32068 0.719 0.83044 0.0
N1214 N 0.32809 0.67435 0.89779 0.0
N1215 N 0.32356 0.70339 0.77869 0.0
H1216 H 0.31825 0.7643 0.8408 0.0
H1217 H 0.31793 0.7569 0.80249 0.0
H1218 H 0.32412 0.68659 0.76271 0.0
H1219 H 0.32656 0.72473 0.77046 0.0
H1220 H 0.33181 0.65318 0.90614 0.0
H1221 H 0.32755 0.69112 0.91379 0.0
H1222 H 0.33314 0.62098 0.87346 0.0
H1223 H 0.32894 0.6134 0.83554 0.0
C1224 C 0.1168 0.48506 0.99208 0.0
C1225 C 0.11083 0.51051 0.00975 0.0
C1226 C 0.06449 0.51771 0.98291 0.0
C1227 C 0.07642 0.50053 0.95963 0.0
N1228 N 0.10038 0.45393 0.95106 0.0
N1229 N 0.07461 0.54497 0.0281 0.0
C1230 C 0.09843 0.4795 0.96709 0.0
C1231 C 0.08296 0.52468 0.00733 0.0
N1232 N 0.1407 0.46752 -0.00192 0.0
N1233 N 0.03498 0.5238 0.9834 0.0
H1234 H 0.08649 0.54739 0.04776 0.0
H1235 H 0.05625 0.55883 0.0257 0.0
H1236 H 0.02067 0.51351 0.96842 0.0
H1237 H 0.02459 0.53462 0.00096 0.0
H1238 H 0.14866 0.45134 0.98363 0.0
H1239 H 0.15236 0.46895 0.01794 0.0
H1240 H 0.11469 0.43655 0.95615 0.0
H1241 H 0.08522 0.44926 0.93418 0.0
C1242 C 0.83372 0.85452 0.15639 0.0
C1243 C 0.82779 0.82957 0.17446 0.0
C1244 C 0.8411 0.85852 0.21811 0.0
C1245 C 0.8345 0.88419 0.20145 0.0
N1246 N 0.8352 0.90846 0.15424 0.0
N1247 N 0.83496 0.80498 0.22074 0.0
C1248 C 0.83525 0.88274 0.17018 0.0
C1249 C 0.83587 0.83055 0.20469 0.0
N1250 N 0.83674 0.85118 0.12653 0.0
N1251 N 0.85099 0.86108 0.24654 0.0
H1252 H 0.83096 0.78461 0.21042 0.0
H1253 H 0.83736 0.8041 0.24368 0.0
H1254 H 0.85623 0.88166 0.25572 0.0
H1255 H 0.857 0.84302 0.25959 0.0
H1256 H 0.84164 0.86851 0.11213 0.0
H1257 H 0.83766 0.83034 0.11665 0.0
H1258 H 0.83255 0.90946 0.13134 0.0
H1259 H 0.83735 0.92904 0.16469 0.0
C1260 C 0.46593 0.54807 0.47698 0.0
C1261 C 0.45971 0.56487 0.45138 0.0
C1262 C 0.41777 0.58838 0.47603 0.0
C1263 C 0.42015 0.56667 0.49831 0.0
N1264 N 0.45241 0.53729 0.52827 0.0
N1265 N 0.43859 0.60876 0.43053 0.0
C1266 C 0.44698 0.55109 0.50196 0.0
C1267 C 0.43908 0.58844 0.45286 0.0
N1268 N 0.48727 0.52683 0.47514 0.0
N1269 N 0.39361 0.60655 0.47581 0.0
H1270 H 0.45404 0.60782 0.41326 0.0
H1271 H 0.4246 0.62713 0.43018 0.0
H1272 H 0.37846 0.60639 0.49333 0.0
H1273 H 0.38864 0.62122 0.45872 0.0
H1274 H 0.49157 0.51123 0.49163 0.0
H1275 H 0.49157 0.51123 0.49163 0.0
H1276 H 0.47222 0.52652 0.53326 0.0
H1277 H 0.43752 0.53915 0.54595 0.0
C1278 C 0.70072 0.16074 0.68961 0.0
C1279 C 0.70568 0.19124 0.69451 0.0
C1280 C 0.72854 0.18007 0.74254 0.0
C1281 C 0.7275 0.14951 0.73522 0.0
N1282 N 0.70749 0.11017 0.70509 0.0
N1283 N 0.71632 0.23079 0.72853 0.0
C1284 C 0.71136 0.13973 0.71018 0.0
C1285 C 0.71654 0.20116 0.72229 0.0
N1286 N 0.68697 0.15117 0.66456 0.0
N1287 N 0.74275 0.18873 0.76786 0.0
H1288 H 0.70812 0.24646 0.71368 0.0
H1289 H 0.7225 0.23983 0.74882 0.0
H1290 H 0.75036 0.17345 0.78346 0.0
H1291 H 0.74743 0.21064 0.77334 0.0
H1292 H 0.67853 0.16556 0.6485 0.0
H1293 H 0.67853 0.16556 0.6485 0.0
H1294 H 0.69641 0.10217 0.6864 0.0
H1295 H 0.71449 0.09407 0.72015 0.0
C1296 C 0.08801 0.61384 0.09466 0.0
C1297 C 0.11728 0.62172 0.10229 0.0
C1298 C 0.10554 0.67399 0.09651 0.0
C1299 C 0.07919 0.66571 0.08168 0.0
N1300 N 0.0417 0.62869 0.0717 0.0
N1301 N 0.14274 0.65817 0.13166 0.0
C1302 C 0.06872 0.63598 0.08324 0.0
C1303 C 0.12305 0.65159 0.10977 0.0
N1304 N 0.07938 0.5851 0.0983 0.0
N1305 N 0.11412 0.70299 0.0972 0.0
H1306 H 0.15079 0.64165 0.1457 0.0
H1307 H 0.14674 0.6797 0.13904 0.0
H1308 H 0.1007 0.71998 0.08901 0.0
H1309 H 0.13484 0.70976 0.10487 0.0
H1310 H 0.05793 0.57744 0.09473 0.0
H1311 H 0.09382 0.56938 0.10733 0.0
H1312 H 0.03434 0.60701 0.06886 0.0
H1313 H 0.0265 0.64452 0.06454 0.0
C1314 C 0.62668 0.92418 0.9728 0.0
C1315 C 0.61398 0.95175 0.98108 0.0
C1316 C 0.56472 0.93241 0.97019 0.0
C1317 C 0.57678 0.90369 0.97278 0.0
N1318 N 0.61786 0.87132 0.96507 0.0
N1319 N 0.57252 0.98478 0.98055 0.0
C1320 C 0.60753 0.89947 0.96912 0.0
C1321 C 0.58346 0.95692 0.97624 0.0
N1322 N 0.65671 0.9215 0.97064 0.0
N1323 N 0.53537 0.93574 0.9639 0.0
H1324 H 0.58662 0.00266 0.9848 0.0
H1325 H 0.55003 0.98996 0.9805 0.0
H1326 H 0.52203 0.91749 0.95894 0.0
H1327 H 0.52514 0.95622 0.96091 0.0
H1328 H 0.66765 0.90194 0.96517 0.0
H1329 H 0.67075 0.93971 0.97226 0.0
H1330 H 0.64015 0.86549 0.96411 0.0
H1331 H 0.60313 0.85363 0.96243 0.0
C1332 C 0.38662 0.32248 0.23864 0.0
C1333 C 0.38287 0.30616 0.26534 0.0
C1334 C 0.33218 0.32517 0.26944 0.0
C1335 C 0.33841 0.34596 0.24706 0.0
N1336 N 0.37179 0.366 0.21071 0.0
N1337 N 0.35221 0.29386 0.30774 0.0
C1338 C 0.36546 0.34468 0.23124 0.0
C1339 C 0.35548 0.3076 0.28096 0.0
N1340 N 0.4107 0.31755 0.22092 0.0
N1341 N 0.30396 0.32287 0.28001 0.0
H1342 H 0.36882 0.28131 0.31755 0.0
H1343 H 0.33384 0.29689 0.32139 0.0
H1344 H 0.28678 0.33598 0.27174 0.0
H1345 H 0.2972 0.3061 0.29438 0.0
H1346 H 0.4132 0.3271 0.20005 0.0
H1347 H 0.42681 0.30174 0.22568 0.0
H1348 H 0.39258 0.36853 0.20099 0.0
H1349 H 0.35672 0.38254 0.20488 0.0
C1350 C -0.00245 0.09063 0.48504 0.0
C1351 C -6e-05 0.12017 0.47499 0.0
C1352 C 0.95457 0.11484 0.44656 0.0
C1353 C 0.94803 0.08979 0.46407 0.0
N1354 N 0.968 0.0455 0.48568 0.0
N1355 N 0.98898 0.15524 0.43649 0.0
C1356 C 0.97159 0.07444 0.47787 0.0
C1357 C 0.98154 0.13024 0.45173 0.0
N1358 N 0.01909 0.07943 0.50308 0.0
N1359 N 0.93295 0.12563 0.42844 0.0
H1360 H 0.00909 0.16606 0.44009 0.0
H1361 H 0.9766 0.16384 0.41904 0.0
H1362 H 0.913 0.11415 0.42575 0.0
H1363 H 0.93457 0.14532 0.41654 0.0
H1364 H 0.01801 0.05877 0.51326 0.0
H1365 H 0.03834 0.09148 0.50769 0.0
H1366 H 0.98436 0.03275 0.49578 0.0
H1367 H 0.94923 0.0336 0.47944 0.0
C1368 C 0.22194 0.75441 0.72448 0.0
C1369 C 0.22605 0.72394 0.72568 0.0
C1370 C 0.17693 0.71313 0.74145 0.0
C1371 C 0.17101 0.74444 0.74256 0.0
N1372 N 0.1875 0.79506 0.73237 0.0
N1373 N 0.21881 0.67603 0.73344 0.0
C1374 C 0.19334 0.76535 0.73293 0.0
C1375 C 0.20581 0.70417 0.7336 0.0
N1376 N 0.24509 0.77202 0.71642 0.0
N1377 N 0.15514 0.6928 0.74646 0.0
H1378 H 0.26724 0.6701 0.72006 0.0
H1379 H 0.20403 0.65998 0.74194 0.0
H1380 H 0.13318 0.69886 0.75042 0.0
H1381 H 0.15851 0.67004 0.7444 0.0
H1382 H 0.24437 0.79506 0.71589 0.0
H1383 H 0.26553 0.76273 0.71061 0.0
H1384 H 0.20233 0.81086 0.72455 0.0
H1385 H 0.16765 0.80436 0.73949 0.0
C1386 C 0.42465 0.39459 0.59459 0.0
C1387 C 0.45592 0.39418 0.59411 0.0
C1388 C 0.45751 0.44787 0.59693 0.0
C1389 C 0.42726 0.44814 0.58915 0.0
N1390 N 0.37994 0.42479 0.59498 0.0
N1391 N 0.50002 0.41835 0.61194 0.0
C1392 C 0.41 0.42241 0.59379 0.0
C1393 C 0.47168 0.4202 0.60166 0.0
N1394 N 0.40961 0.36838 0.59348 0.0
N1395 N 0.47294 0.47382 0.59608 0.0
H1396 H 0.5098 0.39798 0.61691 0.0
H1397 H 0.51228 0.43672 0.61867 0.0
H1398 H 0.46212 0.49399 0.59237 0.0
H1399 H 0.4959 0.47515 0.59806 0.0
H1400 H 0.38672 0.36664 0.59118 0.0
H1401 H 0.42084 0.34815 0.59478 0.0
H1402 H 0.3657 0.40701 0.59858 0.0
H1403 H 0.36964 0.44544 0.59495 0.0
C1404 C 0.84899 0.21414 0.82279 0.0
C1405 C 0.85257 0.18313 0.81918 0.0
C1406 C 0.90612 0.18872 0.81545 0.0
C1407 C 0.90204 0.21974 0.81294 0.0
N1408 N 0.87325 0.26216 0.82802 0.0
N1409 N 0.88279 0.141 0.82606 0.0
C1410 C 0.87465 0.23261 0.8216 0.0
C1411 C 0.88096 0.17046 0.82004 0.0
N1412 N 0.8212 0.22575 0.8261 0.0
N1413 N 0.93381 0.17704 0.81196 0.0
H1414 H 0.9026 0.12969 0.82979 0.0
H1415 H 0.9026 0.12969 0.82979 0.0
H1416 H 0.95248 0.19062 0.81135 0.0
H1417 H 0.93822 0.15452 0.80937 0.0
H1418 H 0.81664 0.24829 0.82787 0.0
H1419 H 0.80214 0.21275 0.82582 0.0
H1420 H 0.85424 0.27292 0.83545 0.0
H1421 H 0.89207 0.27548 0.82883 0.0
C1422 C 0.68889 0.81657 0.31869 0.0
C1423 C 0.66288 0.83406 0.31843 0.0
C1424 C 0.69308 0.87867 0.31483 0.0
C1425 C 0.7166 0.86066 0.30415 0.0
N1426 N 0.73994 0.81309 0.30172 0.0
N1427 N 0.64 0.88152 0.32438 0.0
C1428 C 0.71574 0.82973 0.30899 0.0
C1429 C 0.66515 0.8652 0.32013 0.0
N1430 N 0.68741 0.78746 0.32668 0.0
N1431 N 0.69723 0.90831 0.31896 0.0
H1432 H 0.61974 0.87132 0.32909 0.0
H1433 H 0.63902 0.90451 0.32253 0.0
H1434 H 0.7179 0.91825 0.31672 0.0
H1435 H 0.68119 0.92239 0.32779 0.0
H1436 H 0.70592 0.77374 0.32826 0.0
H1437 H 0.6679 0.77813 0.33485 0.0
H1438 H 0.73999 0.79 0.3013 0.0
H1439 H 0.75983 0.823 0.29518 0.0
C1440 C 0.03104 0.13126 0.79787 0.0
C1441 C 0.0515 0.12759 0.77441 0.0
C1442 C 0.05727 0.18102 0.76953 0.0
C1443 C 0.03521 0.1847 0.79153 0.0
N1444 N 0.0067 0.16541 0.83184 0.0
N1445 N 0.08977 0.14713 0.74311 0.0
C1446 C 0.02423 0.16032 0.80769 0.0
C1447 C 0.06675 0.152 0.76217 0.0
N1448 N 0.01716 0.10697 0.80942 0.0
N1449 N 0.06741 0.20518 0.75438 0.0
H1450 H 0.09679 0.12582 0.7375 0.0
H1451 H 0.10333 0.16385 0.73482 0.0
H1452 H 0.06139 0.22677 0.76006 0.0
H1453 H 0.08077 0.20389 0.73559 0.0
H1454 H -0.00025 0.10809 0.82454 0.0
H1455 H 0.02253 0.08542 0.80285 0.0
H1456 H -0.00101 0.14882 0.84588 0.0
H1457 H 0.00179 0.1869 0.83898 0.0
C1458 C 0.11873 0.82131 0.01154 0.0
C1459 C 0.11718 0.80201 0.03614 0.0
C1460 C 0.1708 0.80564 0.04323 0.0
C1461 C 0.17275 0.82056 0.01576 0.0
N1462 N 0.14998 0.84514 0.9746 0.0
N1463 N 0.13984 0.778 0.07773 0.0
C1464 C 0.14697 0.82985 0.00054 0.0
C1465 C 0.14268 0.79542 0.05315 0.0
N1466 N 0.09303 0.83056 -0.00149 0.0
N1467 N 0.19616 0.8004 0.0589 0.0
H1468 H 0.11918 0.77124 0.08561 0.0
H1469 H 0.15752 0.76996 0.09013 0.0
H1470 H 0.21686 0.80755 0.05145 0.0
H1471 H 0.19676 0.79064 0.07977 0.0
H1472 H 0.09202 0.84587 0.98131 0.0
H1473 H 0.07227 0.82401 0.00637 0.0
H1474 H 0.1325 0.85033 0.96048 0.0
H1475 H 0.17064 0.85217 0.96688 0.0
C1476 C 0.4977 0.9154 0.269 0.0
C1477 C 0.51533 0.93908 0.27936 0.0
C1478 C 0.54078 0.90592 0.31367 0.0
C1479 C 0.5273 0.88164 0.29921 0.0
N1480 N 0.49228 0.86212 0.26413 0.0
N1481 N 0.55184 0.95868 0.3126 0.0
C1482 C 0.50488 0.88607 0.27771 0.0
C1483 C 0.53589 0.93497 0.30262 0.0
N1484 N 0.47472 0.92126 0.25021 0.0
N1485 N 0.559 0.90062 0.33723 0.0
H1486 H 0.54798 0.98018 0.30494 0.0
H1487 H 0.56925 0.95714 0.32763 0.0
H1488 H 0.56264 0.87917 0.34517 0.0
H1489 H 0.5687 0.91716 0.35005 0.0
H1490 H 0.45953 0.9054 0.24313 0.0
H1491 H 0.4695 0.94282 0.24363 0.0
H1492 H 0.47831 0.86358 0.24584 0.0
H1493 H 0.49684 0.84039 0.27054 0.0
C1494 C 0.39329 0.27285 0.56829 0.0
C1495 C 0.41936 0.25987 0.55667 0.0
C1496 C 0.39001 0.23201 0.52062 0.0
C1497 C 0.36506 0.24929 0.52852 0.0
N1498 N 0.34135 0.28487 0.56024 0.0
N1499 N 0.44347 0.22543 0.5243 0.0
C1500 C 0.36605 0.26886 0.55302 0.0
C1501 C 0.41782 0.23826 0.53404 0.0
N1502 N 0.3952 0.28983 0.59327 0.0
N1503 N 0.38694 0.21034 0.4997 0.0
H1504 H 0.46377 0.22944 0.53469 0.0
H1505 H 0.44489 0.21154 0.50593 0.0
H1506 H 0.36659 0.20587 0.48967 0.0
H1507 H 0.4037 0.19563 0.49373 0.0
H1508 H 0.37699 0.2989 0.60418 0.0
H1509 H 0.41524 0.29286 0.60441 0.0
H1510 H 0.34104 0.30181 0.57591 0.0
H1511 H 0.3211 0.28183 0.54947 0.0
C1512 C 0.55631 0.39359 0.29376 0.0
C1513 C 0.54661 0.4215 0.28362 0.0
C1514 C 0.50898 0.39822 0.25247 0.0
C1515 C 0.51729 0.3705 0.26425 0.0
N1516 N 0.5539 0.34017 0.2886 0.0
N1517 N 0.52095 0.45039 0.24706 0.0
C1518 C 0.54289 0.36764 0.28226 0.0
C1519 C 0.52547 0.42373 0.26055 0.0
N1520 N 0.57695 0.3923 0.31585 0.0
N1521 N 0.48446 0.40012 0.23483 0.0
H1522 H 0.53331 0.46913 0.25258 0.0
H1523 H 0.50712 0.45333 0.22883 0.0
H1524 H 0.47259 0.38137 0.22823 0.0
H1525 H 0.47514 0.4201 0.22798 0.0
H1526 H 0.58257 0.3729 0.32702 0.0
H1527 H 0.58758 0.4113 0.32376 0.0
H1528 H 0.57385 0.33668 0.29965 0.0
H1529 H 0.54409 0.32074 0.28085 0.0
C1530 C 0.90126 0.21584 0.5368 0.0
C1531 C 0.92212 0.23624 0.52556 0.0
C1532 C 0.89075 0.27678 0.54326 0.0
C1533 C 0.8735 0.25623 0.55969 0.0
N1534 N 0.86825 0.20581 0.57744 0.0
N1535 N 0.93933 0.28695 0.52316 0.0
C1536 C 0.88015 0.22552 0.55782 0.0
C1537 C 0.91758 0.26706 0.52993 0.0
N1538 N 0.90184 0.18717 0.52737 0.0
N1539 N 0.88118 0.30525 0.53961 0.0
H1540 H 0.95993 0.28071 0.51479 0.0
H1541 H 0.93786 0.30935 0.5287 0.0
H1542 H 0.86064 0.31254 0.54738 0.0
H1543 H 0.89202 0.32038 0.52592 0.0
H1544 H 0.88568 0.17174 0.53328 0.0
H1545 H 0.91647 0.18035 0.5108 0.0
H1546 H 0.87422 0.18347 0.57782 0.0
H1547 H 0.85563 0.21237 0.59566 0.0
C1548 C 0.01948 0.62678 0.75552 0.0
C1549 C -0.00132 0.63257 0.77844 0.0
C1550 C 0.00562 0.6857 0.77198 0.0
C1551 C 0.03063 0.67953 0.75395 0.0
N1552 N 0.06133 0.64543 0.72719 0.0
N1553 N 0.9702 0.66645 0.80769 0.0
C1554 C 0.03716 0.6504 0.74476 0.0
C1555 C 0.9907 0.66185 0.78587 0.0
N1556 N 0.02289 0.59862 0.74491 0.0
N1557 N 0.99666 0.71433 0.77609 0.0
H1558 H 0.95845 0.64895 0.81727 0.0
H1559 H 0.96566 0.68711 0.81697 0.0
H1560 H 0.00755 0.73224 0.76642 0.0
H1561 H 0.97727 0.72023 0.78717 0.0
H1562 H 0.03611 0.59329 0.72675 0.0
H1563 H 0.01065 0.58075 0.75283 0.0
H1564 H 0.06961 0.62443 0.7223 0.0
H1565 H 0.07407 0.66274 0.7186 0.0
C1566 C 0.60796 0.74487 0.03407 0.0
C1567 C 0.60646 0.76642 0.0114 0.0
C1568 C 0.66007 0.76461 0.00461 0.0
C1569 C 0.66177 0.74458 0.02863 0.0
N1570 N 0.6386 0.71031 0.06189 0.0
N1571 N 0.62858 0.79182 0.97038 0.0
C1572 C 0.63593 0.73267 0.04169 0.0
C1573 C 0.63183 0.77436 0.99486 0.0
N1574 N 0.58281 0.73767 0.04932 0.0
N1575 N 0.68563 0.77554 0.99261 0.0
H1576 H 0.60778 0.79898 0.96318 0.0
H1577 H 0.64582 0.79728 0.95605 0.0
H1578 H 0.70652 0.76808 -0.00082 0.0
H1579 H 0.68631 0.79261 0.97711 0.0
H1580 H 0.58251 0.72444 0.06821 0.0
H1581 H 0.56204 0.74606 0.0435 0.0
H1582 H 0.6207 0.69924 0.07132 0.0
H1583 H 0.65918 0.70135 0.06751 0.0
C1584 C 0.82604 0.01627 0.13901 0.0
C1585 C 0.81324 0.02658 0.16565 0.0
C1586 C 0.78152 0.06073 0.13833 0.0
C1587 C 0.78993 0.04602 0.112 0.0
N1588 N 0.82193 0.01293 0.08535 0.0
N1589 N 0.7826 0.0608 0.19228 0.0
C1590 C 0.81348 0.02534 0.11168 0.0
C1591 C 0.79273 0.05024 0.16576 0.0
N1592 N 0.84906 0.99665 0.14038 0.0
N1593 N 0.76172 0.08358 0.13674 0.0
H1594 H 0.79121 0.05334 0.21243 0.0
H1595 H 0.76582 0.07647 0.19455 0.0
H1596 H 0.75329 0.09097 0.11649 0.0
H1597 H 0.75495 0.09622 0.15482 0.0
H1598 H 0.86052 0.98874 0.12197 0.0
H1599 H 0.85793 0.98972 0.16059 0.0
H1600 H 0.83717 0.99573 0.08336 0.0
H1601 H 0.81302 0.01981 0.06514 0.0
C1602 C 0.2769 0.56384 0.40951 0.0
C1603 C 0.30387 0.55528 0.42295 0.0
C1604 C 0.31686 0.52573 0.3798 0.0
C1605 C 0.28955 0.53337 0.36622 0.0
N1606 N 0.25094 0.5703 0.36292 0.0
N1607 N 0.35436 0.54048 0.41525 0.0
C1608 C 0.27189 0.55603 0.37936 0.0
C1609 C 0.32565 0.54071 0.40585 0.0
N1610 N 0.25562 0.57793 0.42573 0.0
N1611 N 0.33275 0.50242 0.36914 0.0
H1612 H 0.36106 0.5522 0.43407 0.0
H1613 H 0.37152 0.53165 0.40256 0.0
H1614 H 0.3516 0.4937 0.37932 0.0
H1615 H 0.3516 0.4937 0.37932 0.0
H1616 H 0.23435 0.58196 0.41763 0.0
H1617 H 0.25882 0.5839 0.44783 0.0
H1618 H 0.2387 0.5882 0.37098 0.0
H1619 H 0.2486 0.56639 0.34022 0.0
C1620 C 0.80754 0.00014 0.64381 0.0
C1621 C 0.79056 0.00696 0.61844 0.0
C1622 C 0.75145 0.02849 0.64913 0.0
C1623 C 0.76939 0.02344 0.67426 0.0
N1624 N 0.80891 0.9963 0.69738 0.0
N1625 N 0.74402 0.02025 0.59635 0.0
C1626 C 0.79567 0.00646 0.67217 0.0
C1627 C 0.76146 0.0184 0.62101 0.0
N1628 N 0.83545 0.98885 0.64047 0.0
N1629 N 0.72566 0.04405 0.65225 0.0
H1630 H 0.75149 0.01358 0.57549 0.0
H1631 H 0.72184 0.02661 0.59676 0.0
H1632 H 0.71786 0.0509 0.67295 0.0
H1633 H 0.71258 0.05101 0.63458 0.0
H1634 H 0.85045 0.98651 0.65786 0.0
H1635 H 0.84405 0.98304 0.61977 0.0
H1636 H 0.82719 0.98219 0.69748 0.0
H1637 H 0.79962 -0.00029 0.71828 0.0
C1638 C 0.22588 0.52883 0.86963 0.0
C1639 C 0.25327 0.54394 0.87239 0.0
C1640 C 0.25398 0.5345 0.92562 0.0
C1641 C 0.2251 0.52203 0.92339 0.0
N1642 N 0.18259 0.50847 0.89455 0.0
N1643 N 0.29186 0.56475 0.9025 0.0
C1644 C 0.2108 0.51939 0.89565 0.0
C1645 C 0.26712 0.54741 0.90021 0.0
N1646 N 0.21475 0.52329 0.84202 0.0
N1647 N 0.26876 0.53424 0.95207 0.0
H1648 H 0.30192 0.57465 0.8842 0.0
H1649 H 0.30113 0.57129 0.9226 0.0
H1650 H 0.25933 0.52719 0.97188 0.0
H1651 H 0.29113 0.53952 0.95418 0.0
H1652 H 0.19592 0.51058 0.83804 0.0
H1653 H 0.22578 0.52974 0.82273 0.0
H1654 H 0.16951 0.5085 0.87555 0.0
H1655 H 0.17167 0.50057 0.91338 0.0
C1656 C 0.87897 0.05657 0.70332 0.0
C1657 C 0.87211 0.06871 0.73156 0.0
C1658 C 0.92537 0.07041 0.74346 0.0
C1659 C 0.93134 0.05309 0.71788 0.0
N1660 N 0.91494 0.03223 0.67146 0.0
N1661 N 0.88904 0.08847 0.77837 0.0
C1662 C 0.90844 0.04719 0.69707 0.0
C1663 C 0.89541 0.07667 0.75127 0.0
N1664 N 0.85731 0.05484 0.68223 0.0
N1665 N 0.94817 0.08105 0.76037 0.0
H1666 H 0.86855 0.0975 0.78378 0.0
H1667 H 0.90404 0.08819 0.7959 0.0
H1668 H 0.97036 0.0765 0.7561 0.0
H1669 H 0.94532 0.09665 0.77719 0.0
H1670 H 0.861 0.04866 0.6603 0.0
H1671 H 0.83585 0.06242 0.68599 0.0
H1672 H 0.89902 0.02356 0.65719 0.0
H1673 H 0.93663 0.02773 0.66473 0.0
C1674 C 0.24685 0.67544 0.0024 0.0
C1675 C 0.23386 0.68979 0.9775 0.0
C1676 C 0.20405 0.64564 0.96708 0.0
C1677 C 0.21815 0.63098 0.99103 0.0
N1678 N 0.24659 0.63352 0.03613 0.0
N1679 N 0.19404 0.6919 0.9417 0.0
C1680 C 0.23736 0.64651 0.01034 0.0
C1681 C 0.21032 0.67605 0.96174 0.0
N1682 N 0.26903 0.68914 0.01783 0.0
N1683 N 0.18536 0.63015 0.9489 0.0
H1684 H 0.19763 0.71423 0.93732 0.0
H1685 H 0.17498 0.68385 0.93149 0.0
H1686 H 0.17875 0.60844 0.95329 0.0
H1687 H 0.1775 0.63818 0.92875 0.0
H1688 H 0.28229 0.67854 0.03344 0.0
H1689 H 0.27499 0.71111 0.01418 0.0
H1690 H 0.25821 0.64466 0.05266 0.0
H1691 H 0.24053 0.61208 0.04225 0.0
C1692 C 0.6774 0.99148 0.23704 0.0
C1693 C 0.68974 0.96609 0.22306 0.0
C1694 C 0.64715 0.96447 0.18904 0.0
C1695 C 0.63653 0.99149 0.20134 0.0
N1696 N 0.64649 0.03473 0.23161 0.0
N1697 N 0.6885 0.93031 0.18327 0.0
C1698 C 0.65316 0.00625 0.22361 0.0
C1699 C 0.67531 0.95321 0.19818 0.0
N1700 N 0.68814 0.00123 0.26365 0.0
N1701 N 0.63029 0.94952 0.16876 0.0
H1702 H 0.70854 0.9209 0.18992 0.0
H1703 H 0.68075 0.92202 0.16317 0.0
H1704 H 0.61024 0.95772 0.16066 0.0
H1705 H 0.63515 0.92819 0.16136 0.0
H1706 H 0.67762 0.0175 0.27629 0.0
H1707 H 0.70568 0.9912 0.27469 0.0
H1708 H 0.65999 0.04743 0.2454 0.0
H1709 H 0.62943 0.04693 0.2221 0.0
C1710 C 0.31327 0.4092 0.4997 0.0
C1711 C 0.32005 0.43351 0.48076 0.0
C1712 C 0.32384 0.39904 0.43874 0.0
C1713 C 0.31798 0.37501 0.4581 0.0
N1714 N 0.32017 0.35667 0.50813 0.0
N1715 N 0.33997 0.44991 0.43361 0.0
C1716 C 0.31705 0.37987 0.48899 0.0
C1717 C 0.32814 0.42793 0.45072 0.0
N1718 N 0.30228 0.41377 0.52754 0.0
N1719 N 0.32469 0.39431 0.40882 0.0
H1720 H 0.34347 0.47136 0.44126 0.0
H1721 H 0.34888 0.44612 0.41264 0.0
H1722 H 0.3239 0.37309 0.39961 0.0
H1723 H 0.32492 0.41138 0.39327 0.0
H1724 H 0.29477 0.39656 0.541 0.0
H1725 H 0.29739 0.43468 0.53589 0.0
H1726 H 0.32174 0.35941 0.53103 0.0
H1727 H 0.32536 0.33536 0.50083 0.0
C1728 C 0.42722 0.49253 0.27636 0.0
C1729 C 0.4418 0.47555 0.29855 0.0
C1730 C 0.39651 0.44594 0.30536 0.0
C1731 C 0.38302 0.46103 0.28123 0.0
N1732 N 0.38789 0.49546 0.24026 0.0
N1733 N 0.44234 0.4317 0.32928 0.0
C1734 C 0.39917 0.48314 0.26554 0.0
C1735 C 0.42696 0.45109 0.31178 0.0
N1736 N 0.43904 0.51875 0.26676 0.0
N1737 N 0.38047 0.42648 0.32216 0.0
H1738 H 0.46484 0.43395 0.33377 0.0
H1739 H 0.43362 0.41167 0.33675 0.0
H1740 H 0.3587 0.42052 0.31744 0.0
H1741 H 0.38809 0.41785 0.34218 0.0
H1742 H 0.42745 0.53379 0.25361 0.0
H1743 H 0.45918 0.52721 0.27405 0.0
H1744 H 0.4005 0.50841 0.22587 0.0
H1745 H 0.36673 0.49122 0.23227 0.0
C1746 C 0.79616 0.14283 0.53868 0.0
C1747 C 0.7913 0.11589 0.55433 0.0
C1748 C 0.75907 0.14258 0.58943 0.0
C1749 C 0.76258 0.16863 0.57228 0.0
N1750 N 0.77451 0.1898 0.52501 0.0
N1751 N 0.76612 0.08956 0.59362 0.0
C1752 C 0.77825 0.1677 0.54528 0.0
C1753 C 0.77194 0.11557 0.57931 0.0
N1754 N 0.81806 0.14526 0.51792 0.0
N1755 N 0.74398 0.14384 0.61567 0.0
H1756 H 0.77724 0.06996 0.58882 0.0
H1757 H 0.74947 0.0871 0.6094 0.0
H1758 H 0.73204 0.1625 0.62215 0.0
H1759 H 0.74396 0.12694 0.63138 0.0
H1760 H 0.82395 0.16545 0.50833 0.0
H1761 H 0.83266 0.12828 0.51277 0.0
H1762 H 0.78383 0.18928 0.50385 0.0
H1763 H 0.75829 0.20601 0.52777 0.0
C1764 C 0.12732 0.56202 0.79554 0.0
C1765 C 0.11202 0.58419 0.81168 0.0
C1766 C 0.15259 0.61942 0.80303 0.0
C1767 C 0.1677 0.59744 0.78608 0.0
N1768 N 0.17152 0.54658 0.76937 0.0
N1769 N 0.11157 0.6315 0.83608 0.0
C1770 C 0.15564 0.56838 0.78324 0.0
C1771 C 0.12524 0.61213 0.81713 0.0
N1772 N 0.11413 0.53509 0.7911 0.0
N1773 N 0.16362 0.64765 0.80432 0.0
H1774 H 0.09157 0.62649 0.84662 0.0
H1775 H 0.12094 0.65128 0.84336 0.0
H1776 H 0.18346 0.65393 0.79426 0.0
H1777 H 0.15226 0.66555 0.81346 0.0
H1778 H 0.12144 0.51934 0.77588 0.0
H1779 H 0.09511 0.52867 0.80246 0.0
H1780 H 0.16633 0.52413 0.77043 0.0
H1781 H 0.19084 0.55056 0.75755 0.0
C1782 C 0.74075 0.91691 0.08688 0.0
C1783 C 0.71633 0.91984 0.06712 0.0
C1784 C 0.71247 0.86562 0.06423 0.0
C1785 C 0.73579 0.86263 0.08521 0.0
N1786 N 0.76332 0.88633 0.1247 0.0
N1787 N 0.6721 0.89663 0.04763 0.0
C1788 C 0.74713 0.88857 0.0992 0.0
C1789 C 0.69991 0.89405 0.05936 0.0
N1790 N 0.75907 0.94029 0.09273 0.0
N1791 N 0.70339 0.84212 0.0474 0.0
H1792 H 0.6614 0.91703 0.04545 0.0
H1793 H 0.65845 0.87839 0.04368 0.0
H1794 H 0.71329 0.8213 0.04814 0.0
H1795 H 0.68822 0.84432 0.0301 0.0
H1796 H 0.77869 0.93801 0.10474 0.0
H1797 H 0.75654 0.96119 0.08338 0.0
H1798 H 0.76989 0.90479 0.13698 0.0
H1799 H 0.76684 0.86619 0.1355 0.0
C1800 C 0.06147 0.71436 0.88242 0.0
C1801 C 0.06424 0.7421 0.86799 0.0
C1802 C 0.06979 0.76603 0.91628 0.0
C1803 C 0.06094 0.73957 0.93085 0.0
N1804 N 0.04214 0.68897 0.92501 0.0
N1805 N 0.06263 0.7954 0.87229 0.0
C1806 C 0.05521 0.71367 0.9133 0.0
C1807 C 0.0662 0.76831 0.88519 0.0
N1808 N 0.06538 0.68856 0.86696 0.0
N1809 N 0.08229 0.78879 0.93185 0.0
H1810 H 0.05624 0.79763 0.85021 0.0
H1811 H 0.06195 0.81508 0.88445 0.0
H1812 H 0.08759 0.78702 0.95429 0.0
H1813 H 0.0908 0.80767 0.92157 0.0
H1814 H 0.06631 0.66788 0.87724 0.0
H1815 H 0.071 0.68802 0.84453 0.0
H1816 H 0.03489 0.67133 0.91192 0.0
H1817 H 0.0353 0.68688 0.94683 0.0
C1818 C 0.57857 0.79901 0.1631 0.0
C1819 C 0.57075 0.82239 0.18285 0.0
C1820 C 0.55259 0.85188 0.14089 0.0
C1821 C 0.56082 0.82856 0.12099 0.0
N1822 N 0.59133 0.78536 0.11275 0.0
N1823 N 0.55994 0.87437 0.18916 0.0
C1824 C 0.57684 0.80381 0.132 0.0
C1825 C 0.56076 0.84985 0.17128 0.0
N1826 N 0.58623 0.77167 0.17367 0.0
N1827 N 0.53579 0.87536 0.13162 0.0
H1828 H 0.56657 0.87396 0.21132 0.0
H1829 H 0.55593 0.8957 0.18122 0.0
H1830 H 0.52975 0.87927 0.1098 0.0
H1831 H 0.52594 0.89033 0.14624 0.0
H1832 H 0.58828 0.75312 0.16003 0.0
H1833 H 0.58812 0.76667 0.19607 0.0
H1834 H 0.6057 0.76863 0.11967 0.0
H1835 H 0.59181 0.78903 0.08991 0.0
C1836 C 0.51115 0.30074 0.43087 0.0
C1837 C 0.49604 0.32505 0.44429 0.0
C1838 C 0.47746 0.34037 0.39548 0.0
C1839 C 0.49217 0.31572 0.38247 0.0
N1840 N 0.518 0.26927 0.38785 0.0
N1841 N 0.46067 0.36495 0.44047 0.0
C1842 C 0.50738 0.29489 0.40023 0.0
C1843 C 0.47771 0.34381 0.42691 0.0
N1844 N 0.53002 0.28372 0.44723 0.0
N1845 N 0.46396 0.36087 0.37768 0.0
H1846 H 0.46062 0.36823 0.46333 0.0
H1847 H 0.44478 0.3776 0.42954 0.0
H1848 H 0.46262 0.35858 0.3547 0.0
H1849 H 0.45574 0.38107 0.38526 0.0
H1850 H 0.54515 0.26881 0.43812 0.0
H1851 H 0.53146 0.28549 0.47003 0.0
H1852 H 0.52589 0.25144 0.40021 0.0
H1853 H 0.51699 0.2648 0.3652 0.0
C1854 C 0.00629 0.20376 0.66855 0.0
C1855 C 0.99068 0.2302 0.67569 0.0
C1856 C 0.9793 0.23673 0.62312 0.0
C1857 C 0.00024 0.21439 0.6155 0.0
N1858 N 0.03715 0.17898 0.63262 0.0
N1859 N 0.96739 0.27526 0.65809 0.0
C1860 C 0.01454 0.19824 0.63861 0.0
C1861 C 0.97829 0.24754 0.65258 0.0
N1862 N 0.01274 0.18354 0.69019 0.0
N1863 N 0.95994 0.24741 0.60243 0.0
H1864 H 0.96871 0.28537 0.67876 0.0
H1865 H 0.96051 0.28957 0.6413 0.0
H1866 H 0.95893 0.23919 0.5809 0.0
H1867 H 0.94259 0.26178 0.60774 0.0
H1868 H 0.02168 0.16269 0.68565 0.0
H1869 H 0.00608 0.18616 0.71219 0.0
H1870 H 0.05014 0.16941 0.64916 0.0
H1871 H 0.04502 0.1746 0.61145 0.0
loop_
_geom_bond_atom_site_label_1
_geom_bond_atom_site_label_2
_geom_bond_distance
_geom_bond_site_symmetry_2
_ccdc_geom_bond_type
Co0 N4 2.148 . S
Co0 N10 2.128 . S
Co0 N20 2.194 . S
Co0 O25 2.351 . S
Co0 O26 2.155 . S
Co0 O27 2.096 1_455 S
C1 N4 1.301 . S
C1 N5 1.328 1_445 S
C1 H6 0.930 . S
C2 C3 1.333 . S
C2 N4 1.317 1_655 S
C2 H7 0.930 . S
C3 C2 1.333 . S
C3 N5 1.350 1_545 S
C3 H29 0.931 1_545 S
N4 Co0 2.148 . S
N4 C1 1.301 . S
N4 C2 1.317 1_455 S
N5 C1 1.328 1_665 S
N5 C3 1.350 1_565 S
H6 C1 0.930 . S
H7 C2 0.930 . S
C8 O9 1.224 . S
C8 O27 1.247 . S
O9 C8 1.224 . S
N10 Co0 2.128 . S
N10 C11 1.355 . S
N10 C13 1.311 . S
C11 N10 1.355 . S
C11 C12 1.363 . S
C11 H23 0.929 . S
C12 C11 1.363 . S
C12 N14 1.375 . S
C12 H30 0.931 . S
C13 N10 1.311 . S
C13 N14 1.347 . S
C13 H24 0.929 . S
N14 C12 1.375 . S
N14 C13 1.347 . S
C15 C18 1.365 1_545 S
C15 N20 1.328 . S
C15 H21 0.929 . S
C16 C17 1.362 . S
C16 C19 1.378 . S
C16 H31 0.929 . S
C17 C16 1.362 . S
C17 C18 1.366 . S
C18 C15 1.365 1_565 S
C18 C17 1.366 . S
C18 H32 0.930 . S
C19 C16 1.378 . S
C19 N20 1.315 1_565 S
C19 H22 0.930 1_565 S
N20 Co0 2.194 . S
N20 C15 1.328 . S
N20 C19 1.315 1_545 S
H21 C15 0.929 . S
H22 C19 0.930 1_545 S
H23 C11 0.929 . S
H24 C13 0.929 . S
O25 Co0 2.351 . S
O25 C28 1.244 . S
O26 Co0 2.155 . S
O26 C28 1.240 . S
O27 Co0 2.096 1_655 S
O27 C8 1.247 . S
C28 O25 1.244 . S
C28 O26 1.240 . S
H29 C3 0.931 1_565 S
H30 C12 0.931 . S
H31 C16 0.929 . S
H32 C18 0.930 . S
Co33 N37 2.148 . S
Co33 N43 2.128 . S
Co33 N53 2.194 . S
Co33 O58 2.351 . S
Co33 O59 2.155 . S
Co33 O60 2.096 . S
C34 N37 1.301 . S
C34 N38 1.328 . S
C34 H39 0.930 . S
C35 C36 1.333 . S
C35 N37 1.317 . S
C35 H40 0.930 . S
C36 C35 1.333 . S
C36 N38 1.350 . S
C36 H62 0.931 . S
N37 Co33 2.148 . S
N37 C34 1.301 . S
N37 C35 1.317 . S
N38 C34 1.328 . S
N38 C36 1.350 . S
H39 C34 0.930 . S
H40 C35 0.930 . S
C41 O42 1.224 . S
C41 O60 1.247 . S
O42 C41 1.224 . S
N43 Co33 2.128 . S
N43 C44 1.355 . S
N43 C46 1.321 . S
C44 N43 1.355 . S
C44 C45 1.363 1_556 S
C44 H56 0.929 . S
C45 C44 1.363 1_554 S
C45 N47 1.375 . S
C45 H63 0.931 . S
C46 N43 1.321 . S
C46 N47 1.338 1_556 S
C46 H57 0.928 1_556 S
N47 C45 1.375 . S
N47 C46 1.338 1_554 S
C48 C51 1.365 . S
C48 N53 1.328 . S
C48 H54 0.929 . S
C49 C50 1.362 . S
C49 C52 1.378 . S
C49 H64 0.929 1_556 S
C50 C49 1.362 . S
C50 C51 1.366 . S
C51 C48 1.365 . S
C51 C50 1.366 . S
C51 H65 0.930 . S
C52 C49 1.378 . S
C52 N53 1.315 . S
C52 H55 0.930 . S
N53 Co33 2.194 . S
N53 C48 1.328 . S
N53 C52 1.315 . S
H54 C48 0.929 . S
H55 C52 0.930 . S
H56 C44 0.929 . S
H57 C46 0.928 1_554 S
O58 Co33 2.351 . S
O58 C61 1.244 . S
O59 Co33 2.155 . S
O59 C61 1.240 . S
O60 Co33 2.096 . S
O60 C41 1.247 . S
C61 O58 1.244 . S
C61 O59 1.240 . S
H62 C36 0.931 . S
H63 C45 0.931 . S
H64 C49 0.929 1_554 S
H65 C51 0.930 . S
Co66 N70 2.148 . S
Co66 N76 2.128 1_545 S
Co66 N86 2.194 . S
Co66 O91 2.351 1_545 S
Co66 O92 2.155 1_545 S
Co66 O93 2.096 1_545 S
C67 N70 1.301 . S
C67 N71 1.328 . S
C67 H72 0.930 . S
C68 C69 1.333 . S
C68 N70 1.317 . S
C68 H73 0.930 . S
C69 C68 1.333 . S
C69 N71 1.350 . S
C69 H95 0.931 . S
N70 Co66 2.148 . S
N70 C67 1.301 . S
N70 C68 1.317 . S
N71 C67 1.328 . S
N71 C69 1.350 . S
H72 C67 0.930 . S
H73 C68 0.930 . S
C74 O75 1.243 . S
C74 O93 1.234 1_545 S
O75 C74 1.243 . S
N76 Co66 2.128 1_565 S
N76 C77 1.355 . S
N76 C79 1.311 . S
C77 N76 1.355 . S
C77 C78 1.363 . S
C77 H89 0.929 . S
C78 C77 1.363 . S
C78 N80 1.375 . S
C78 H96 0.931 . S
C79 N76 1.311 . S
C79 N80 1.347 . S
C79 H90 0.929 . S
N80 C78 1.375 . S
N80 C79 1.347 . S
C81 C84 1.365 . S
C81 N86 1.328 . S
C81 H87 0.929 . S
C82 C83 1.362 . S
C82 C85 1.378 . S
C82 H97 0.929 . S
C83 C82 1.362 . S
C83 C84 1.366 . S
C84 C81 1.365 . S
C84 C83 1.366 . S
C84 H98 0.930 . S
C85 C82 1.378 . S
C85 N86 1.315 . S
C85 H88 0.930 . S
N86 Co66 2.194 . S
N86 C81 1.328 . S
N86 C85 1.315 . S
H87 C81 0.929 . S
H88 C85 0.930 . S
H89 C77 0.929 . S
H90 C79 0.929 . S
O91 Co66 2.351 1_565 S
O91 C94 1.241 . S
O92 Co66 2.155 1_565 S
O92 C94 1.240 . S
O93 Co66 2.096 1_565 S
O93 C74 1.234 1_565 S
C94 O91 1.241 . S
C94 O92 1.240 . S
H95 C69 0.931 . S
H96 C78 0.931 . S
H97 C82 0.929 . S
H98 C84 0.930 . S
Co99 N103 2.148 . S
Co99 N109 2.128 . S
Co99 N119 2.194 . S
Co99 O124 2.351 . S
Co99 O125 2.155 . S
Co99 O126 2.096 . S
C100 N103 1.301 . S
C100 N104 1.328 . S
C100 H105 0.930 . S
C101 C102 1.333 . S
C101 N103 1.317 . S
C101 H106 0.930 . S
C102 C101 1.333 . S
C102 N104 1.350 . S
C102 H128 0.931 . S
N103 Co99 2.148 . S
N103 C100 1.301 . S
N103 C101 1.317 . S
N104 C100 1.328 . S
N104 C102 1.350 . S
H105 C100 0.930 . S
H106 C101 0.930 . S
C107 O108 1.224 . S
C107 O126 1.247 . S
O108 C107 1.224 . S
N109 Co99 2.128 . S
N109 C110 1.355 . S
N109 C112 1.311 . S
C110 N109 1.355 . S
C110 C111 1.363 . S
C110 H122 0.929 . S
C111 C110 1.363 . S
C111 N113 1.375 . S
C111 H129 0.931 . S
C112 N109 1.311 . S
C112 N113 1.347 . S
C112 H123 0.929 . S
N113 C111 1.375 . S
N113 C112 1.347 . S
C114 C117 1.365 . S
C114 N119 1.328 . S
C114 H120 0.929 . S
C115 C116 1.362 . S
C115 C118 1.378 . S
C115 H130 0.929 . S
C116 C115 1.362 . S
C116 C117 1.366 . S
C117 C114 1.365 . S
C117 C116 1.366 . S
C117 H131 0.930 . S
C118 C115 1.378 . S
C118 N119 1.315 . S
C118 H121 0.930 . S
N119 Co99 2.194 . S
N119 C114 1.328 . S
N119 C118 1.315 . S
H120 C114 0.929 . S
H121 C118 0.930 . S
H122 C110 0.929 . S
H123 C112 0.929 . S
O124 Co99 2.351 . S
O124 C127 1.244 . S
O125 Co99 2.155 . S
O125 C127 1.240 . S
O126 Co99 2.096 . S
O126 C107 1.247 . S
C127 O124 1.244 . S
C127 O125 1.240 . S
H128 C102 0.931 . S
H129 C111 0.931 . S
H130 C115 0.929 . S
H131 C117 0.930 . S
Co132 N136 2.148 . S
Co132 N142 2.128 . S
Co132 N152 2.194 . S
Co132 O157 2.351 . S
Co132 O158 2.155 . S
Co132 O159 2.096 . S
C133 N136 1.301 . S
C133 N137 1.328 . S
C133 H138 0.930 . S
C134 C135 1.333 . S
C134 N136 1.317 . S
C134 H139 0.930 . S
C135 C134 1.333 . S
C135 N137 1.350 . S
C135 H161 0.931 . S
N136 Co132 2.148 . S
N136 C133 1.301 . S
N136 C134 1.317 . S
N137 C133 1.328 . S
N137 C135 1.350 . S
H138 C133 0.930 . S
H139 C134 0.930 . S
C140 O141 1.224 . S
C140 O159 1.247 . S
O141 C140 1.224 . S
N142 Co132 2.128 . S
N142 C143 1.355 . S
N142 C145 1.311 . S
C143 N142 1.355 . S
C143 C144 1.363 . S
C143 H155 0.929 . S
C144 C143 1.363 . S
C144 N146 1.375 . S
C144 H162 0.931 . S
C145 N142 1.311 . S
C145 N146 1.347 . S
C145 H156 0.929 . S
N146 C144 1.375 . S
N146 C145 1.347 . S
C147 C150 1.365 . S
C147 N152 1.328 . S
C147 H153 0.929 . S
C148 C149 1.362 . S
C148 C151 1.378 . S
C148 H163 0.929 . S
C149 C148 1.362 . S
C149 C150 1.366 . S
C150 C147 1.365 . S
C150 C149 1.366 . S
C150 H164 0.930 . S
C151 C148 1.378 . S
C151 N152 1.315 . S
C151 H154 0.930 . S
N152 Co132 2.194 . S
N152 C147 1.328 . S
N152 C151 1.315 . S
H153 C147 0.929 . S
H154 C151 0.930 . S
H155 C143 0.929 . S
H156 C145 0.929 . S
O157 Co132 2.351 . S
O157 C160 1.244 . S
O158 Co132 2.155 . S
O158 C160 1.240 . S
O159 Co132 2.096 . S
O159 C140 1.247 . S
C160 O157 1.244 . S
C160 O158 1.240 . S
H161 C135 0.931 . S
H162 C144 0.931 . S
H163 C148 0.929 . S
H164 C150 0.930 . S
Co165 N169 2.148 . S
Co165 N175 2.128 . S
Co165 N185 2.194 . S
Co165 O190 2.351 . S
Co165 O191 2.155 . S
Co165 O192 2.096 . S
C166 N169 1.301 . S
C166 N170 1.328 . S
C166 H171 0.930 . S
C167 C168 1.333 . S
C167 N169 1.317 . S
C167 H172 0.930 . S
C168 C167 1.333 . S
C168 N170 1.350 . S
C168 H194 0.931 . S
N169 Co165 2.148 . S
N169 C166 1.301 . S
N169 C167 1.317 . S
N170 C166 1.328 . S
N170 C168 1.350 . S
H171 C166 0.930 . S
H172 C167 0.930 . S
C173 O174 1.224 . S
C173 O192 1.247 . S
O174 C173 1.224 . S
N175 Co165 2.128 . S
N175 C176 1.355 . S
N175 C178 1.311 . S
C176 N175 1.355 . S
C176 C177 1.363 . S
C176 H188 0.929 . S
C177 C176 1.363 . S
C177 N179 1.375 . S
C177 H195 0.931 . S
C178 N175 1.311 . S
C178 N179 1.347 . S
C178 H189 0.929 . S
N179 C177 1.375 . S
N179 C178 1.347 . S
C180 C183 1.365 . S
C180 N185 1.328 . S
C180 H186 0.929 . S
C181 C182 1.362 . S
C181 C184 1.378 . S
C181 H196 0.929 . S
C182 C181 1.362 . S
C182 C183 1.366 . S
C183 C180 1.365 . S
C183 C182 1.366 . S
C183 H197 0.930 . S
C184 C181 1.378 . S
C184 N185 1.315 . S
C184 H187 0.930 . S
N185 Co165 2.194 . S
N185 C180 1.328 . S
N185 C184 1.315 . S
H186 C180 0.929 . S
H187 C184 0.930 . S
H188 C176 0.929 . S
H189 C178 0.929 . S
O190 Co165 2.351 . S
O190 C193 1.244 . S
O191 Co165 2.155 . S
O191 C193 1.240 . S
O192 Co165 2.096 . S
O192 C173 1.247 . S
C193 O190 1.244 . S
C193 O191 1.240 . S
H194 C168 0.931 . S
H195 C177 0.931 . S
H196 C181 0.929 . S
H197 C183 0.930 . S
Co198 N202 2.148 . S
Co198 N208 2.128 . S
Co198 N218 2.194 . S
Co198 O223 2.351 1_455 S
Co198 O224 2.155 . S
Co198 O225 2.096 . S
C199 N202 1.301 . S
C199 N203 1.328 . S
C199 H204 0.930 . S
C200 C201 1.333 . S
C200 N202 1.317 . S
C200 H205 0.930 . S
C201 C200 1.333 . S
C201 N203 1.350 . S
C201 H227 0.931 . S
N202 Co198 2.148 . S
N202 C199 1.301 . S
N202 C200 1.317 . S
N203 C199 1.328 . S
N203 C201 1.350 . S
H204 C199 0.930 . S
H205 C200 0.930 . S
C206 O207 1.224 . S
C206 O225 1.247 . S
O207 C206 1.224 . S
N208 Co198 2.128 . S
N208 C209 1.355 1_455 S
N208 C211 1.311 . S
C209 N208 1.355 1_655 S
C209 C210 1.363 . S
C209 H221 0.929 . S
C210 C209 1.363 . S
C210 N212 1.375 . S
C210 H228 0.931 . S
C211 N208 1.311 . S
C211 N212 1.347 1_455 S
C211 H222 0.929 . S
N212 C210 1.375 . S
N212 C211 1.347 1_655 S
C213 C216 1.365 . S
C213 N218 1.328 1_655 S
C213 H219 0.929 . S
C214 C215 1.353 1_455 S
C214 C217 1.383 . S
C214 H229 0.933 . S
C215 C214 1.353 1_655 S
C215 C216 1.366 . S
C216 C213 1.365 . S
C216 C215 1.366 . S
C216 H230 0.930 . S
C217 C214 1.383 . S
C217 N218 1.315 . S
C217 H220 0.930 . S
N218 Co198 2.194 . S
N218 C213 1.328 1_455 S
N218 C217 1.315 . S
H219 C213 0.929 . S
H220 C217 0.930 . S
H221 C209 0.929 . S
H222 C211 0.929 . S
O223 Co198 2.351 1_655 S
O223 C226 1.244 1_655 S
O224 Co198 2.155 . S
O224 C226 1.240 . S
O225 Co198 2.096 . S
O225 C206 1.247 . S
C226 O223 1.244 1_455 S
C226 O224 1.240 . S
H227 C201 0.931 . S
H228 C210 0.931 . S
H229 C214 0.933 . S
H230 C216 0.930 . S
Co231 N235 2.148 . S
Co231 N241 2.128 . S
Co231 N251 2.194 . S
Co231 O256 2.351 . S
Co231 O257 2.155 . S
Co231 O258 2.096 . S
C232 N235 1.301 . S
C232 N236 1.328 . S
C232 H237 0.930 . S
C233 C234 1.333 . S
C233 N235 1.317 . S
C233 H238 0.930 . S
C234 C233 1.333 . S
C234 N236 1.350 . S
C234 H260 0.931 . S
N235 Co231 2.148 . S
N235 C232 1.301 . S
N235 C233 1.317 . S
N236 C232 1.328 . S
N236 C234 1.350 . S
H237 C232 0.930 . S
H238 C233 0.930 . S
C239 O240 1.224 . S
C239 O258 1.247 . S
O240 C239 1.224 . S
N241 Co231 2.128 . S
N241 C242 1.355 . S
N241 C244 1.311 . S
C242 N241 1.355 . S
C242 C243 1.363 . S
C242 H254 0.929 . S
C243 C242 1.363 . S
C243 N245 1.375 . S
C243 H261 0.931 . S
C244 N241 1.311 . S
C244 N245 1.347 . S
C244 H255 0.929 . S
N245 C243 1.375 . S
N245 C244 1.347 . S
C246 C249 1.365 . S
C246 N251 1.328 . S
C246 H252 0.929 . S
C247 C248 1.362 . S
C247 C250 1.378 . S
C247 H262 0.929 . S
C248 C247 1.362 . S
C248 C249 1.366 . S
C249 C246 1.365 . S
C249 C248 1.366 . S
C249 H263 0.930 . S
C250 C247 1.378 . S
C250 N251 1.315 . S
C250 H253 0.930 . S
N251 Co231 2.194 . S
N251 C246 1.328 . S
N251 C250 1.315 . S
H252 C246 0.929 . S
H253 C250 0.930 . S
H254 C242 0.929 . S
H255 C244 0.929 . S
O256 Co231 2.351 . S
O256 C259 1.244 . S
O257 Co231 2.155 . S
O257 C259 1.240 . S
O258 Co231 2.096 . S
O258 C239 1.247 . S
C259 O256 1.244 . S
C259 O257 1.240 . S
H260 C234 0.931 . S
H261 C243 0.931 . S
H262 C247 0.929 . S
H263 C249 0.930 . S
Co264 N268 2.148 . S
Co264 N274 2.128 . S
Co264 N284 2.194 . S
Co264 O289 2.351 . S
Co264 O290 2.155 . S
Co264 O291 2.096 1_545 S
C265 N268 1.301 . S
C265 N269 1.328 1_544 S
C265 H270 0.930 . S
C266 C267 1.333 . S
C266 N268 1.317 1_565 S
C266 H271 0.930 . S
C267 C266 1.333 . S
C267 N269 1.350 1_554 S
C267 H293 0.931 1_554 S
N268 Co264 2.148 . S
N268 C265 1.301 . S
N268 C266 1.317 1_545 S
N269 C265 1.328 1_566 S
N269 C267 1.350 1_556 S
H270 C265 0.930 . S
H271 C266 0.930 . S
C272 O273 1.224 . S
C272 O291 1.247 . S
O273 C272 1.224 . S
N274 Co264 2.128 . S
N274 C275 1.355 . S
N274 C277 1.311 . S
C275 N274 1.355 . S
C275 C276 1.363 . S
C275 H287 0.929 . S
C276 C275 1.363 . S
C276 N278 1.375 . S
C276 H294 0.931 . S
C277 N274 1.311 . S
C277 N278 1.347 . S
C277 H288 0.929 . S
N278 C276 1.375 . S
N278 C277 1.347 . S
C279 C282 1.365 1_554 S
C279 N284 1.328 . S
C279 H285 0.929 . S
C280 C281 1.362 . S
C280 C283 1.378 . S
C280 H295 0.929 . S
C281 C280 1.362 . S
C281 C282 1.366 . S
C282 C279 1.365 1_556 S
C282 C281 1.366 . S
C282 H296 0.930 . S
C283 C280 1.378 . S
C283 N284 1.315 1_556 S
C283 H286 0.930 1_556 S
N284 Co264 2.194 . S
N284 C279 1.328 . S
N284 C283 1.315 1_554 S
H285 C279 0.929 . S
H286 C283 0.930 1_554 S
H287 C275 0.929 . S
H288 C277 0.929 . S
O289 Co264 2.351 . S
O289 C292 1.244 . S
O290 Co264 2.155 . S
O290 C292 1.240 . S
O291 Co264 2.096 1_565 S
O291 C272 1.247 . S
C292 O289 1.244 . S
C292 O290 1.240 . S
H293 C267 0.931 1_556 S
H294 C276 0.931 . S
H295 C280 0.929 . S
H296 C282 0.930 . S
Co297 N301 2.148 . S
Co297 N307 2.128 . S
Co297 N317 2.194 . S
Co297 O322 2.351 . S
Co297 O323 2.155 . S
Co297 O324 2.096 . S
C298 N301 1.301 . S
C298 N302 1.328 . S
C298 H303 0.930 . S
C299 C300 1.333 . S
C299 N301 1.317 . S
C299 H304 0.930 . S
C300 C299 1.333 . S
C300 N302 1.350 . S
C300 H326 0.931 . S
N301 Co297 2.148 . S
N301 C298 1.301 . S
N301 C299 1.317 . S
N302 C298 1.328 . S
N302 C300 1.350 . S
H303 C298 0.930 . S
H304 C299 0.930 . S
C305 O306 1.224 . S
C305 O324 1.247 . S
O306 C305 1.224 . S
N307 Co297 2.128 . S
N307 C308 1.355 . S
N307 C310 1.311 . S
C308 N307 1.355 . S
C308 C309 1.363 . S
C308 H320 0.929 . S
C309 C308 1.363 . S
C309 N311 1.375 . S
C309 H327 0.931 . S
C310 N307 1.311 . S
C310 N311 1.347 . S
C310 H321 0.929 . S
N311 C309 1.375 . S
N311 C310 1.347 . S
C312 C315 1.365 . S
C312 N317 1.328 . S
C312 H318 0.929 . S
C313 C314 1.362 . S
C313 C316 1.378 . S
C313 H328 0.929 . S
C314 C313 1.362 . S
C314 C315 1.366 . S
C315 C312 1.365 . S
C315 C314 1.366 . S
C315 H329 0.930 . S
C316 C313 1.378 . S
C316 N317 1.315 . S
C316 H319 0.930 . S
N317 Co297 2.194 . S
N317 C312 1.328 . S
N317 C316 1.315 . S
H318 C312 0.929 . S
H319 C316 0.930 . S
H320 C308 0.929 . S
H321 C310 0.929 . S
O322 Co297 2.351 . S
O322 C325 1.244 . S
O323 Co297 2.155 . S
O323 C325 1.240 . S
O324 Co297 2.096 . S
O324 C305 1.247 . S
C325 O322 1.244 . S
C325 O323 1.240 . S
H326 C300 0.931 . S
H327 C309 0.931 . S
H328 C313 0.929 . S
H329 C315 0.930 . S
Co330 N334 2.148 . S
Co330 N340 2.128 . S
Co330 N350 2.194 . S
Co330 O355 2.351 1_545 S
Co330 O356 2.155 . S
Co330 O357 2.096 . S
C331 N334 1.301 . S
C331 N335 1.328 . S
C331 H336 0.930 . S
C332 C333 1.333 . S
C332 N334 1.317 . S
C332 H337 0.930 . S
C333 C332 1.333 . S
C333 N335 1.350 . S
C333 H359 0.931 . S
N334 Co330 2.148 . S
N334 C331 1.301 . S
N334 C332 1.317 . S
N335 C331 1.328 . S
N335 C333 1.350 . S
H336 C331 0.930 . S
H337 C332 0.930 . S
C338 O339 1.224 . S
C338 O357 1.247 . S
O339 C338 1.224 . S
N340 Co330 2.128 . S
N340 C341 1.355 1_545 S
N340 C343 1.311 . S
C341 N340 1.355 1_565 S
C341 C342 1.363 . S
C341 H353 0.929 . S
C342 C341 1.363 . S
C342 N344 1.375 . S
C342 H360 0.931 . S
C343 N340 1.311 . S
C343 N344 1.347 1_545 S
C343 H354 0.929 . S
N344 C342 1.375 . S
N344 C343 1.347 1_565 S
C345 C348 1.365 . S
C345 N350 1.328 1_565 S
C345 H351 0.929 . S
C346 C347 1.353 1_545 S
C346 C349 1.383 . S
C346 H361 0.933 . S
C347 C346 1.353 1_565 S
C347 C348 1.366 . S
C348 C345 1.365 . S
C348 C347 1.366 . S
C348 H362 0.930 . S
C349 C346 1.383 . S
C349 N350 1.315 . S
C349 H352 0.930 . S
N350 Co330 2.194 . S
N350 C345 1.328 1_545 S
N350 C349 1.315 . S
H351 C345 0.929 . S
H352 C349 0.930 . S
H353 C341 0.929 . S
H354 C343 0.929 . S
O355 Co330 2.351 1_565 S
O355 C358 1.244 1_565 S
O356 Co330 2.155 . S
O356 C358 1.240 . S
O357 Co330 2.096 . S
O357 C338 1.247 . S
C358 O355 1.244 1_545 S
C358 O356 1.240 . S
H359 C333 0.931 . S
H360 C342 0.931 . S
H361 C346 0.933 . S
H362 C348 0.930 . S
Co363 N367 2.148 . S
Co363 N373 2.128 . S
Co363 N383 2.194 . S
Co363 O388 2.351 . S
Co363 O389 2.155 . S
Co363 O390 2.096 . S
C364 N367 1.301 . S
C364 N368 1.328 . S
C364 H369 0.930 . S
C365 C366 1.333 . S
C365 N367 1.317 . S
C365 H370 0.930 . S
C366 C365 1.333 . S
C366 N368 1.350 . S
C366 H392 0.931 . S
N367 Co363 2.148 . S
N367 C364 1.301 . S
N367 C365 1.317 . S
N368 C364 1.328 . S
N368 C366 1.350 . S
H369 C364 0.930 . S
H370 C365 0.930 . S
C371 O372 1.224 . S
C371 O390 1.247 . S
O372 C371 1.224 . S
N373 Co363 2.128 . S
N373 C374 1.355 . S
N373 C376 1.311 . S
C374 N373 1.355 . S
C374 C375 1.363 . S
C374 H386 0.929 . S
C375 C374 1.363 . S
C375 N377 1.375 . S
C375 H393 0.931 . S
C376 N373 1.311 . S
C376 N377 1.347 . S
C376 H387 0.929 . S
N377 C375 1.375 . S
N377 C376 1.347 . S
C378 C381 1.365 . S
C378 N383 1.328 . S
C378 H384 0.929 . S
C379 C380 1.362 . S
C379 C382 1.378 . S
C379 H394 0.929 . S
C380 C379 1.362 . S
C380 C381 1.366 . S
C381 C378 1.365 . S
C381 C380 1.366 . S
C381 H395 0.930 . S
C382 C379 1.378 . S
C382 N383 1.315 . S
C382 H385 0.930 . S
N383 Co363 2.194 . S
N383 C378 1.328 . S
N383 C382 1.315 . S
H384 C378 0.929 . S
H385 C382 0.930 . S
H386 C374 0.929 . S
H387 C376 0.929 . S
O388 Co363 2.351 . S
O388 C391 1.244 . S
O389 Co363 2.155 . S
O389 C391 1.240 . S
O390 Co363 2.096 . S
O390 C371 1.247 . S
C391 O388 1.244 . S
C391 O389 1.240 . S
H392 C366 0.931 . S
H393 C375 0.931 . S
H394 C379 0.929 . S
H395 C381 0.930 . S
Co396 N400 2.148 . S
Co396 N406 2.128 1_554 S
Co396 N416 2.194 . S
Co396 O421 2.351 1_554 S
Co396 O422 2.155 1_554 S
Co396 O423 2.096 1_554 S
C397 N400 1.301 . S
C397 N401 1.328 . S
C397 H402 0.930 . S
C398 C399 1.333 . S
C398 N400 1.317 . S
C398 H403 0.930 . S
C399 C398 1.333 . S
C399 N401 1.350 . S
C399 H425 0.931 . S
N400 Co396 2.148 . S
N400 C397 1.301 . S
N400 C398 1.317 . S
N401 C397 1.328 . S
N401 C399 1.350 . S
H402 C397 0.930 . S
H403 C398 0.930 . S
C404 O405 1.243 . S
C404 O423 1.234 1_554 S
O405 C404 1.243 . S
N406 Co396 2.128 1_556 S
N406 C407 1.355 . S
N406 C409 1.311 . S
C407 N406 1.355 . S
C407 C408 1.363 . S
C407 H419 0.929 . S
C408 C407 1.363 . S
C408 N410 1.375 . S
C408 H426 0.931 . S
C409 N406 1.311 . S
C409 N410 1.347 . S
C409 H420 0.929 . S
N410 C408 1.375 . S
N410 C409 1.347 . S
C411 C414 1.365 . S
C411 N416 1.328 . S
C411 H417 0.929 . S
C412 C413 1.362 . S
C412 C415 1.378 . S
C412 H427 0.929 . S
C413 C412 1.362 . S
C413 C414 1.366 . S
C414 C411 1.365 . S
C414 C413 1.366 . S
C414 H428 0.930 . S
C415 C412 1.378 . S
C415 N416 1.315 . S
C415 H418 0.930 . S
N416 Co396 2.194 . S
N416 C411 1.328 . S
N416 C415 1.315 . S
H417 C411 0.929 . S
H418 C415 0.930 . S
H419 C407 0.929 . S
H420 C409 0.929 . S
O421 Co396 2.351 1_556 S
O421 C424 1.241 . S
O422 Co396 2.155 1_556 S
O422 C424 1.240 . S
O423 Co396 2.096 1_556 S
O423 C404 1.234 1_556 S
C424 O421 1.241 . S
C424 O422 1.240 . S
H425 C399 0.931 . S
H426 C408 0.931 . S
H427 C412 0.929 . S
H428 C414 0.930 . S
Co429 N433 2.148 . S
Co429 N439 2.128 . S
Co429 N449 2.194 . S
Co429 O454 2.351 . S
Co429 O455 2.155 . S
Co429 O456 2.096 . S
C430 N433 1.301 . S
C430 N434 1.328 . S
C430 H435 0.930 . S
C431 C432 1.333 . S
C431 N433 1.317 . S
C431 H436 0.930 . S
C432 C431 1.333 . S
C432 N434 1.350 . S
C432 H458 0.931 . S
N433 Co429 2.148 . S
N433 C430 1.301 . S
N433 C431 1.317 . S
N434 C430 1.328 . S
N434 C432 1.350 . S
H435 C430 0.930 . S
H436 C431 0.930 . S
C437 O438 1.224 . S
C437 O456 1.247 . S
O438 C437 1.224 . S
N439 Co429 2.128 . S
N439 C440 1.355 . S
N439 C442 1.321 . S
C440 N439 1.355 . S
C440 C441 1.363 1_565 S
C440 H452 0.929 . S
C441 C440 1.363 1_545 S
C441 N443 1.375 . S
C441 H459 0.931 . S
C442 N439 1.321 . S
C442 N443 1.338 1_565 S
C442 H453 0.928 1_565 S
N443 C441 1.375 . S
N443 C442 1.338 1_545 S
C444 C447 1.365 . S
C444 N449 1.328 . S
C444 H450 0.929 . S
C445 C446 1.362 . S
C445 C448 1.378 . S
C445 H460 0.929 1_565 S
C446 C445 1.362 . S
C446 C447 1.366 . S
C447 C444 1.365 . S
C447 C446 1.366 . S
C447 H461 0.930 . S
C448 C445 1.378 . S
C448 N449 1.315 . S
C448 H451 0.930 . S
N449 Co429 2.194 . S
N449 C444 1.328 . S
N449 C448 1.315 . S
H450 C444 0.929 . S
H451 C448 0.930 . S
H452 C440 0.929 . S
H453 C442 0.928 1_545 S
O454 Co429 2.351 . S
O454 C457 1.244 . S
O455 Co429 2.155 . S
O455 C457 1.240 . S
O456 Co429 2.096 . S
O456 C437 1.247 . S
C457 O454 1.244 . S
C457 O455 1.240 . S
H458 C432 0.931 . S
H459 C441 0.931 . S
H460 C445 0.929 1_545 S
H461 C447 0.930 . S
Co462 N466 2.148 . S
Co462 N472 2.128 . S
Co462 N482 2.194 . S
Co462 O487 2.351 . S
Co462 O488 2.155 . S
Co462 O489 2.096 . S
C463 N466 1.301 . S
C463 N467 1.328 . S
C463 H468 0.930 . S
C464 C465 1.333 . S
C464 N466 1.317 . S
C464 H469 0.930 . S
C465 C464 1.333 . S
C465 N467 1.350 . S
C465 H491 0.931 . S
N466 Co462 2.148 . S
N466 C463 1.301 . S
N466 C464 1.317 . S
N467 C463 1.328 . S
N467 C465 1.350 . S
H468 C463 0.930 . S
H469 C464 0.930 . S
C470 O471 1.224 . S
C470 O489 1.247 . S
O471 C470 1.224 . S
N472 Co462 2.128 . S
N472 C473 1.355 . S
N472 C475 1.311 . S
C473 N472 1.355 . S
C473 C474 1.363 . S
C473 H485 0.929 . S
C474 C473 1.363 . S
C474 N476 1.375 . S
C474 H492 0.931 . S
C475 N472 1.311 . S
C475 N476 1.347 . S
C475 H486 0.929 . S
N476 C474 1.375 . S
N476 C475 1.347 . S
C477 C480 1.365 . S
C477 N482 1.328 . S
C477 H483 0.929 . S
C478 C479 1.362 . S
C478 C481 1.378 . S
C478 H493 0.929 . S
C479 C478 1.362 . S
C479 C480 1.366 . S
C480 C477 1.365 . S
C480 C479 1.366 . S
C480 H494 0.930 . S
C481 C478 1.378 . S
C481 N482 1.315 . S
C481 H484 0.930 . S
N482 Co462 2.194 . S
N482 C477 1.328 . S
N482 C481 1.315 . S
H483 C477 0.929 . S
H484 C481 0.930 . S
H485 C473 0.929 . S
H486 C475 0.929 . S
O487 Co462 2.351 . S
O487 C490 1.244 . S
O488 Co462 2.155 . S
O488 C490 1.240 . S
O489 Co462 2.096 . S
O489 C470 1.247 . S
C490 O487 1.244 . S
C490 O488 1.240 . S
H491 C465 0.931 . S
H492 C474 0.931 . S
H493 C478 0.929 . S
H494 C480 0.930 . S
Co495 N499 2.148 . S
Co495 N505 2.128 . S
Co495 N515 2.194 . S
Co495 O520 2.351 . S
Co495 O521 2.155 . S
Co495 O522 2.096 . S
C496 N499 1.301 . S
C496 N500 1.328 . S
C496 H501 0.930 . S
C497 C498 1.333 . S
C497 N499 1.317 . S
C497 H502 0.930 . S
C498 C497 1.333 . S
C498 N500 1.350 . S
C498 H524 0.931 . S
N499 Co495 2.148 . S
N499 C496 1.301 . S
N499 C497 1.317 . S
N500 C496 1.328 . S
N500 C498 1.350 . S
H501 C496 0.930 . S
H502 C497 0.930 . S
C503 O504 1.224 . S
C503 O522 1.247 . S
O504 C503 1.224 . S
N505 Co495 2.128 . S
N505 C506 1.355 . S
N505 C508 1.311 . S
C506 N505 1.355 . S
C506 C507 1.363 . S
C506 H518 0.929 . S
C507 C506 1.363 . S
C507 N509 1.375 . S
C507 H525 0.931 . S
C508 N505 1.311 . S
C508 N509 1.347 . S
C508 H519 0.929 . S
N509 C507 1.375 . S
N509 C508 1.347 . S
C510 C513 1.365 . S
C510 N515 1.328 . S
C510 H516 0.929 . S
C511 C512 1.362 . S
C511 C514 1.378 . S
C511 H526 0.929 . S
C512 C511 1.362 . S
C512 C513 1.366 . S
C513 C510 1.365 . S
C513 C512 1.366 . S
C513 H527 0.930 . S
C514 C511 1.378 . S
C514 N515 1.315 . S
C514 H517 0.930 . S
N515 Co495 2.194 . S
N515 C510 1.328 . S
N515 C514 1.315 . S
H516 C510 0.929 . S
H517 C514 0.930 . S
H518 C506 0.929 . S
H519 C508 0.929 . S
O520 Co495 2.351 . S
O520 C523 1.244 . S
O521 Co495 2.155 . S
O521 C523 1.240 . S
O522 Co495 2.096 . S
O522 C503 1.247 . S
C523 O520 1.244 . S
C523 O521 1.240 . S
H524 C498 0.931 . S
H525 C507 0.931 . S
H526 C511 0.929 . S
H527 C513 0.930 . S
Co528 N532 2.148 . S
Co528 N538 2.128 . S
Co528 N548 2.194 . S
Co528 O553 2.351 . S
Co528 O554 2.155 . S
Co528 O555 2.096 1_554 S
C529 N532 1.301 . S
C529 N533 1.328 1_454 S
C529 H534 0.930 . S
C530 C531 1.333 . S
C530 N532 1.317 1_556 S
C530 H535 0.930 . S
C531 C530 1.333 . S
C531 N533 1.350 1_455 S
C531 H557 0.931 1_455 S
N532 Co528 2.148 . S
N532 C529 1.301 . S
N532 C530 1.317 1_554 S
N533 C529 1.328 1_656 S
N533 C531 1.350 1_655 S
H534 C529 0.930 . S
H535 C530 0.930 . S
C536 O537 1.224 . S
C536 O555 1.247 . S
O537 C536 1.224 . S
N538 Co528 2.128 . S
N538 C539 1.355 . S
N538 C541 1.311 . S
C539 N538 1.355 . S
C539 C540 1.363 . S
C539 H551 0.929 . S
C540 C539 1.363 . S
C540 N542 1.375 . S
C540 H558 0.931 . S
C541 N538 1.311 . S
C541 N542 1.347 . S
C541 H552 0.929 . S
N542 C540 1.375 . S
N542 C541 1.347 . S
C543 C546 1.365 1_455 S
C543 N548 1.328 . S
C543 H549 0.929 . S
C544 C545 1.362 . S
C544 C547 1.378 . S
C544 H559 0.929 . S
C545 C544 1.362 . S
C545 C546 1.366 . S
C546 C543 1.365 1_655 S
C546 C545 1.366 . S
C546 H560 0.930 . S
C547 C544 1.378 . S
C547 N548 1.315 1_655 S
C547 H550 0.930 1_655 S
N548 Co528 2.194 . S
N548 C543 1.328 . S
N548 C547 1.315 1_455 S
H549 C543 0.929 . S
H550 C547 0.930 1_455 S
H551 C539 0.929 . S
H552 C541 0.929 . S
O553 Co528 2.351 . S
O553 C556 1.244 . S
O554 Co528 2.155 . S
O554 C556 1.240 . S
O555 Co528 2.096 1_556 S
O555 C536 1.247 . S
C556 O553 1.244 . S
C556 O554 1.240 . S
H557 C531 0.931 1_655 S
H558 C540 0.931 . S
H559 C544 0.929 . S
H560 C546 0.930 . S
Co561 N565 2.148 . S
Co561 N571 2.128 . S
Co561 N581 2.194 . S
Co561 O586 2.351 1_554 S
Co561 O587 2.155 . S
Co561 O588 2.096 . S
C562 N565 1.301 . S
C562 N566 1.328 . S
C562 H567 0.930 . S
C563 C564 1.333 . S
C563 N565 1.317 . S
C563 H568 0.930 . S
C564 C563 1.333 . S
C564 N566 1.350 . S
C564 H590 0.931 . S
N565 Co561 2.148 . S
N565 C562 1.301 . S
N565 C563 1.317 . S
N566 C562 1.328 . S
N566 C564 1.350 . S
H567 C562 0.930 . S
H568 C563 0.930 . S
C569 O570 1.224 . S
C569 O588 1.247 . S
O570 C569 1.224 . S
N571 Co561 2.128 . S
N571 C572 1.355 1_554 S
N571 C574 1.311 . S
C572 N571 1.355 1_556 S
C572 C573 1.363 . S
C572 H584 0.929 . S
C573 C572 1.363 . S
C573 N575 1.375 . S
C573 H591 0.931 . S
C574 N571 1.311 . S
C574 N575 1.347 1_554 S
C574 H585 0.929 . S
N575 C573 1.375 . S
N575 C574 1.347 1_556 S
C576 C579 1.365 . S
C576 N581 1.328 1_556 S
C576 H582 0.929 . S
C577 C578 1.353 1_554 S
C577 C580 1.383 . S
C577 H592 0.933 . S
C578 C577 1.353 1_556 S
C578 C579 1.366 . S
C579 C576 1.365 . S
C579 C578 1.366 . S
C579 H593 0.930 . S
C580 C577 1.383 . S
C580 N581 1.315 . S
C580 H583 0.930 . S
N581 Co561 2.194 . S
N581 C576 1.328 1_554 S
N581 C580 1.315 . S
H582 C576 0.929 . S
H583 C580 0.930 . S
H584 C572 0.929 . S
H585 C574 0.929 . S
O586 Co561 2.351 1_556 S
O586 C589 1.244 1_556 S
O587 Co561 2.155 . S
O587 C589 1.240 . S
O588 Co561 2.096 . S
O588 C569 1.247 . S
C589 O586 1.244 1_554 S
C589 O587 1.240 . S
H590 C564 0.931 . S
H591 C573 0.931 . S
H592 C577 0.933 . S
H593 C579 0.930 . S
Co594 N598 2.148 . S
Co594 N604 2.128 . S
Co594 N614 2.194 . S
Co594 O619 2.351 . S
Co594 O620 2.155 . S
Co594 O621 2.096 . S
C595 N598 1.301 . S
C595 N599 1.328 . S
C595 H600 0.930 . S
C596 C597 1.333 . S
C596 N598 1.317 . S
C596 H601 0.930 . S
C597 C596 1.333 . S
C597 N599 1.350 . S
C597 H623 0.931 . S
N598 Co594 2.148 . S
N598 C595 1.301 . S
N598 C596 1.317 . S
N599 C595 1.328 . S
N599 C597 1.350 . S
H600 C595 0.930 . S
H601 C596 0.930 . S
C602 O603 1.224 . S
C602 O621 1.247 . S
O603 C602 1.224 . S
N604 Co594 2.128 . S
N604 C605 1.355 . S
N604 C607 1.311 . S
C605 N604 1.355 . S
C605 C606 1.363 . S
C605 H617 0.929 . S
C606 C605 1.363 . S
C606 N608 1.375 . S
C606 H624 0.931 . S
C607 N604 1.311 . S
C607 N608 1.347 . S
C607 H618 0.929 . S
N608 C606 1.375 . S
N608 C607 1.347 . S
C609 C612 1.365 . S
C609 N614 1.328 . S
C609 H615 0.929 . S
C610 C611 1.362 . S
C610 C613 1.378 . S
C610 H625 0.929 . S
C611 C610 1.362 . S
C611 C612 1.366 . S
C612 C609 1.365 . S
C612 C611 1.366 . S
C612 H626 0.930 . S
C613 C610 1.378 . S
C613 N614 1.315 . S
C613 H616 0.930 . S
N614 Co594 2.194 . S
N614 C609 1.328 . S
N614 C613 1.315 . S
H615 C609 0.929 . S
H616 C613 0.930 . S
H617 C605 0.929 . S
H618 C607 0.929 . S
O619 Co594 2.351 . S
O619 C622 1.244 . S
O620 Co594 2.155 . S
O620 C622 1.240 . S
O621 Co594 2.096 . S
O621 C602 1.247 . S
C622 O619 1.244 . S
C622 O620 1.240 . S
H623 C597 0.931 . S
H624 C606 0.931 . S
H625 C610 0.929 . S
H626 C612 0.930 . S
Co627 N631 2.148 . S
Co627 N637 2.128 1_455 S
Co627 N647 2.194 . S
Co627 O652 2.351 1_455 S
Co627 O653 2.155 1_455 S
Co627 O654 2.096 1_455 S
C628 N631 1.301 . S
C628 N632 1.328 . S
C628 H633 0.930 . S
C629 C630 1.333 . S
C629 N631 1.317 . S
C629 H634 0.930 . S
C630 C629 1.333 . S
C630 N632 1.350 . S
C630 H656 0.931 . S
N631 Co627 2.148 . S
N631 C628 1.301 . S
N631 C629 1.317 . S
N632 C628 1.328 . S
N632 C630 1.350 . S
H633 C628 0.930 . S
H634 C629 0.930 . S
C635 O636 1.243 . S
C635 O654 1.234 1_455 S
O636 C635 1.243 . S
N637 Co627 2.128 1_655 S
N637 C638 1.355 . S
N637 C640 1.311 . S
C638 N637 1.355 . S
C638 C639 1.363 . S
C638 H650 0.929 . S
C639 C638 1.363 . S
C639 N641 1.375 . S
C639 H657 0.931 . S
C640 N637 1.311 . S
C640 N641 1.347 . S
C640 H651 0.929 . S
N641 C639 1.375 . S
N641 C640 1.347 . S
C642 C645 1.365 . S
C642 N647 1.328 . S
C642 H648 0.929 . S
C643 C644 1.362 . S
C643 C646 1.378 . S
C643 H658 0.929 . S
C644 C643 1.362 . S
C644 C645 1.366 . S
C645 C642 1.365 . S
C645 C644 1.366 . S
C645 H659 0.930 . S
C646 C643 1.378 . S
C646 N647 1.315 . S
C646 H649 0.930 . S
N647 Co627 2.194 . S
N647 C642 1.328 . S
N647 C646 1.315 . S
H648 C642 0.929 . S
H649 C646 0.930 . S
H650 C638 0.929 . S
H651 C640 0.929 . S
O652 Co627 2.351 1_655 S
O652 C655 1.241 . S
O653 Co627 2.155 1_655 S
O653 C655 1.240 . S
O654 Co627 2.096 1_655 S
O654 C635 1.234 1_655 S
C655 O652 1.241 . S
C655 O653 1.240 . S
H656 C630 0.931 . S
H657 C639 0.931 . S
H658 C643 0.929 . S
H659 C645 0.930 . S
Co660 N664 2.148 . S
Co660 N670 2.128 . S
Co660 N680 2.194 . S
Co660 O685 2.351 . S
Co660 O686 2.155 . S
Co660 O687 2.096 . S
C661 N664 1.301 . S
C661 N665 1.328 . S
C661 H666 0.930 . S
C662 C663 1.333 . S
C662 N664 1.317 . S
C662 H667 0.930 . S
C663 C662 1.333 . S
C663 N665 1.350 . S
C663 H689 0.931 . S
N664 Co660 2.148 . S
N664 C661 1.301 . S
N664 C662 1.317 . S
N665 C661 1.328 . S
N665 C663 1.350 . S
H666 C661 0.930 . S
H667 C662 0.930 . S
C668 O669 1.224 . S
C668 O687 1.247 . S
O669 C668 1.224 . S
N670 Co660 2.128 . S
N670 C671 1.355 . S
N670 C673 1.311 . S
C671 N670 1.355 . S
C671 C672 1.363 . S
C671 H683 0.929 . S
C672 C671 1.363 . S
C672 N674 1.375 . S
C672 H690 0.931 . S
C673 N670 1.311 . S
C673 N674 1.347 . S
C673 H684 0.929 . S
N674 C672 1.375 . S
N674 C673 1.347 . S
C675 C678 1.365 . S
C675 N680 1.328 . S
C675 H681 0.929 . S
C676 C677 1.362 . S
C676 C679 1.378 . S
C676 H691 0.929 . S
C677 C676 1.362 . S
C677 C678 1.366 . S
C678 C675 1.365 . S
C678 C677 1.366 . S
C678 H692 0.930 . S
C679 C676 1.378 . S
C679 N680 1.315 . S
C679 H682 0.930 . S
N680 Co660 2.194 . S
N680 C675 1.328 . S
N680 C679 1.315 . S
H681 C675 0.929 . S
H682 C679 0.930 . S
H683 C671 0.929 . S
H684 C673 0.929 . S
O685 Co660 2.351 . S
O685 C688 1.244 . S
O686 Co660 2.155 . S
O686 C688 1.240 . S
O687 Co660 2.096 . S
O687 C668 1.247 . S
C688 O685 1.244 . S
C688 O686 1.240 . S
H689 C663 0.931 . S
H690 C672 0.931 . S
H691 C676 0.929 . S
H692 C678 0.930 . S
Co693 N697 2.148 . S
Co693 N703 2.128 . S
Co693 N713 2.194 . S
Co693 O718 2.351 . S
Co693 O719 2.155 . S
Co693 O720 2.096 . S
C694 N697 1.301 . S
C694 N698 1.328 . S
C694 H699 0.930 . S
C695 C696 1.333 . S
C695 N697 1.317 . S
C695 H700 0.930 . S
C696 C695 1.333 . S
C696 N698 1.350 . S
C696 H722 0.931 . S
N697 Co693 2.148 . S
N697 C694 1.301 . S
N697 C695 1.317 . S
N698 C694 1.328 . S
N698 C696 1.350 . S
H699 C694 0.930 . S
H700 C695 0.930 . S
C701 O702 1.224 . S
C701 O720 1.247 . S
O702 C701 1.224 . S
N703 Co693 2.128 . S
N703 C704 1.355 . S
N703 C706 1.311 . S
C704 N703 1.355 . S
C704 C705 1.363 . S
C704 H716 0.929 . S
C705 C704 1.363 . S
C705 N707 1.375 . S
C705 H723 0.931 . S
C706 N703 1.311 . S
C706 N707 1.347 . S
C706 H717 0.929 . S
N707 C705 1.375 . S
N707 C706 1.347 . S
C708 C711 1.365 . S
C708 N713 1.328 . S
C708 H714 0.929 . S
C709 C710 1.362 . S
C709 C712 1.378 . S
C709 H724 0.929 . S
C710 C709 1.362 . S
C710 C711 1.366 . S
C711 C708 1.365 . S
C711 C710 1.366 . S
C711 H725 0.930 . S
C712 C709 1.378 . S
C712 N713 1.315 . S
C712 H715 0.930 . S
N713 Co693 2.194 . S
N713 C708 1.328 . S
N713 C712 1.315 . S
H714 C708 0.929 . S
H715 C712 0.930 . S
H716 C704 0.929 . S
H717 C706 0.929 . S
O718 Co693 2.351 . S
O718 C721 1.244 . S
O719 Co693 2.155 . S
O719 C721 1.240 . S
O720 Co693 2.096 . S
O720 C701 1.247 . S
C721 O718 1.244 . S
C721 O719 1.240 . S
H722 C696 0.931 . S
H723 C705 0.931 . S
H724 C709 0.929 . S
H725 C711 0.930 . S
Co726 N730 2.148 . S
Co726 N736 2.128 . S
Co726 N746 2.194 . S
Co726 O751 2.351 . S
Co726 O752 2.155 . S
Co726 O753 2.096 . S
C727 N730 1.301 . S
C727 N731 1.328 . S
C727 H732 0.930 . S
C728 C729 1.333 . S
C728 N730 1.317 . S
C728 H733 0.930 . S
C729 C728 1.333 . S
C729 N731 1.350 . S
C729 H755 0.931 . S
N730 Co726 2.148 . S
N730 C727 1.301 . S
N730 C728 1.317 . S
N731 C727 1.328 . S
N731 C729 1.350 . S
H732 C727 0.930 . S
H733 C728 0.930 . S
C734 O735 1.224 . S
C734 O753 1.247 . S
O735 C734 1.224 . S
N736 Co726 2.128 . S
N736 C737 1.355 . S
N736 C739 1.321 . S
C737 N736 1.355 . S
C737 C738 1.363 1_655 S
C737 H749 0.929 . S
C738 C737 1.363 1_455 S
C738 N740 1.375 . S
C738 H756 0.931 . S
C739 N736 1.321 . S
C739 N740 1.338 1_655 S
C739 H750 0.928 1_655 S
N740 C738 1.375 . S
N740 C739 1.338 1_455 S
C741 C744 1.365 . S
C741 N746 1.328 . S
C741 H747 0.929 . S
C742 C743 1.362 . S
C742 C745 1.378 . S
C742 H757 0.929 1_655 S
C743 C742 1.362 . S
C743 C744 1.366 . S
C744 C741 1.365 . S
C744 C743 1.366 . S
C744 H758 0.930 . S
C745 C742 1.378 . S
C745 N746 1.315 . S
C745 H748 0.930 . S
N746 Co726 2.194 . S
N746 C741 1.328 . S
N746 C745 1.315 . S
H747 C741 0.929 . S
H748 C745 0.930 . S
H749 C737 0.929 . S
H750 C739 0.928 1_455 S
O751 Co726 2.351 . S
O751 C754 1.244 . S
O752 Co726 2.155 . S
O752 C754 1.240 . S
O753 Co726 2.096 . S
O753 C734 1.247 . S
C754 O751 1.244 . S
C754 O752 1.240 . S
H755 C729 0.931 . S
H756 C738 0.931 . S
H757 C742 0.929 1_455 S
H758 C744 0.930 . S
Co759 N763 2.148 . S
Co759 N769 2.128 . S
Co759 N779 2.194 . S
Co759 O784 2.351 . S
Co759 O785 2.155 . S
Co759 O786 2.096 . S
C760 N763 1.301 . S
C760 N764 1.328 . S
C760 H765 0.930 . S
C761 C762 1.333 . S
C761 N763 1.317 . S
C761 H766 0.930 . S
C762 C761 1.333 . S
C762 N764 1.350 . S
C762 H788 0.931 . S
N763 Co759 2.148 . S
N763 C760 1.301 . S
N763 C761 1.317 . S
N764 C760 1.328 . S
N764 C762 1.350 . S
H765 C760 0.930 . S
H766 C761 0.930 . S
C767 O768 1.224 . S
C767 O786 1.247 . S
O768 C767 1.224 . S
N769 Co759 2.128 . S
N769 C770 1.355 . S
N769 C772 1.311 . S
C770 N769 1.355 . S
C770 C771 1.363 . S
C770 H782 0.929 . S
C771 C770 1.363 . S
C771 N773 1.375 . S
C771 H789 0.931 . S
C772 N769 1.311 . S
C772 N773 1.347 . S
C772 H783 0.929 . S
N773 C771 1.375 . S
N773 C772 1.347 . S
C774 C777 1.365 . S
C774 N779 1.328 . S
C774 H780 0.929 . S
C775 C776 1.362 . S
C775 C778 1.378 . S
C775 H790 0.929 . S
C776 C775 1.362 . S
C776 C777 1.366 . S
C777 C774 1.365 . S
C777 C776 1.366 . S
C777 H791 0.930 . S
C778 C775 1.378 . S
C778 N779 1.315 . S
C778 H781 0.930 . S
N779 Co759 2.194 . S
N779 C774 1.328 . S
N779 C778 1.315 . S
H780 C774 0.929 . S
H781 C778 0.930 . S
H782 C770 0.929 . S
H783 C772 0.929 . S
O784 Co759 2.351 . S
O784 C787 1.244 . S
O785 Co759 2.155 . S
O785 C787 1.240 . S
O786 Co759 2.096 . S
O786 C767 1.247 . S
C787 O784 1.244 . S
C787 O785 1.240 . S
H788 C762 0.931 . S
H789 C771 0.931 . S
H790 C775 0.929 . S
H791 C777 0.930 . S
C792 C793 1.363 . S
C792 C798 1.379 . S
C792 N800 1.356 . S
C793 C792 1.363 . S
C793 C799 1.363 . S
C794 C795 1.363 . S
C794 C799 1.379 . S
C794 N801 1.356 . S
C795 C794 1.363 . S
C795 C798 1.363 . S
N796 C798 1.356 . S
N796 H808 0.984 . S
N796 H809 0.985 . S
N797 C799 1.356 . S
N797 H802 0.984 . S
N797 H803 0.985 . S
C798 C792 1.379 . S
C798 C795 1.363 . S
C798 N796 1.356 . S
C799 C793 1.363 . S
C799 C794 1.379 . S
C799 N797 1.356 . S
N800 C792 1.356 . S
N800 H806 0.984 . S
N800 H807 0.984 . S
N801 C794 1.356 . S
N801 H804 0.984 . S
N801 H805 0.985 . S
H802 N797 0.984 . S
H803 N797 0.985 . S
H804 N801 0.984 . S
H805 N801 0.985 . S
H806 N800 0.984 . S
H807 N800 0.984 . S
H808 N796 0.984 . S
H809 N796 0.985 . S
C810 C811 1.363 . S
C810 C816 1.379 . S
C810 N818 1.356 . S
C811 C810 1.363 . S
C811 C817 1.363 . S
C812 C813 1.363 . S
C812 C817 1.379 . S
C812 N819 1.356 . S
C813 C812 1.363 . S
C813 C816 1.363 . S
N814 C816 1.356 . S
N814 H826 0.984 1_556 S
N814 H827 0.985 1_556 S
N815 C817 1.356 . S
N815 H820 0.984 . S
N815 H821 0.985 . S
C816 C810 1.379 . S
C816 C813 1.363 . S
C816 N814 1.356 . S
C817 C811 1.363 . S
C817 C812 1.379 . S
C817 N815 1.356 . S
N818 C810 1.356 . S
N818 H824 0.984 . S
N818 H825 0.984 . S
N819 C812 1.356 . S
N819 H822 0.984 . S
N819 H823 0.985 . S
H820 N815 0.984 . S
H821 N815 0.985 . S
H822 N819 0.984 . S
H823 N819 0.985 . S
H824 N818 0.984 . S
H825 N818 0.984 . S
H826 N814 0.984 1_554 S
H827 N814 0.985 1_554 S
C828 C829 1.363 . S
C828 C834 1.379 . S
C828 N836 1.356 . S
C829 C828 1.363 . S
C829 C835 1.363 . S
C830 C831 1.363 . S
C830 C835 1.379 . S
C830 N837 1.356 . S
C831 C830 1.363 . S
C831 C834 1.363 . S
N832 C834 1.356 . S
N832 H844 0.984 . S
N832 H845 0.985 . S
N833 C835 1.356 . S
N833 H838 0.984 . S
N833 H839 0.985 . S
C834 C828 1.379 . S
C834 C831 1.363 . S
C834 N832 1.356 . S
C835 C829 1.363 . S
C835 C830 1.379 . S
C835 N833 1.356 . S
N836 C828 1.356 . S
N836 H842 0.984 . S
N836 H843 0.984 . S
N837 C830 1.356 . S
N837 H840 0.984 . S
N837 H841 0.985 . S
H838 N833 0.984 . S
H839 N833 0.985 . S
H840 N837 0.984 . S
H841 N837 0.985 . S
H842 N836 0.984 . S
H843 N836 0.984 . S
H844 N832 0.984 . S
H845 N832 0.985 . S
C846 C847 1.363 . S
C846 C852 1.379 . S
C846 N854 1.356 . S
C847 C846 1.363 . S
C847 C853 1.363 . S
C848 C849 1.363 . S
C848 C853 1.379 . S
C848 N855 1.356 . S
C849 C848 1.363 . S
C849 C852 1.363 . S
N850 C852 1.356 . S
N850 H862 0.984 . S
N850 H863 0.985 . S
N851 C853 1.356 . S
N851 H856 0.984 . S
N851 H857 0.985 . S
C852 C846 1.379 . S
C852 C849 1.363 . S
C852 N850 1.356 . S
C853 C847 1.363 . S
C853 C848 1.379 . S
C853 N851 1.356 . S
N854 C846 1.356 . S
N854 H860 0.984 . S
N854 H861 0.984 . S
N855 C848 1.356 . S
N855 H858 0.984 . S
N855 H859 0.985 . S
H856 N851 0.984 . S
H857 N851 0.985 . S
H858 N855 0.984 . S
H859 N855 0.985 . S
H860 N854 0.984 . S
H861 N854 0.984 . S
H862 N850 0.984 . S
H863 N850 0.985 . S
C864 C865 1.363 . S
C864 C870 1.379 . S
C864 N872 1.356 . S
C865 C864 1.363 . S
C865 C871 1.363 . S
C866 C867 1.363 . S
C866 C871 1.379 . S
C866 N873 1.356 . S
C867 C866 1.363 . S
C867 C870 1.363 . S
N868 C870 1.356 . S
N868 H880 0.984 . S
N868 H881 0.985 . S
N869 C871 1.356 . S
N869 H874 0.984 . S
N869 H875 0.985 . S
C870 C864 1.379 . S
C870 C867 1.363 . S
C870 N868 1.356 . S
C871 C865 1.363 . S
C871 C866 1.379 . S
C871 N869 1.356 . S
N872 C864 1.356 . S
N872 H878 0.984 . S
N872 H879 0.984 . S
N873 C866 1.356 . S
N873 H876 0.984 . S
N873 H877 0.985 . S
H874 N869 0.984 . S
H875 N869 0.985 . S
H876 N873 0.984 . S
H877 N873 0.985 . S
H878 N872 0.984 . S
H879 N872 0.984 . S
H880 N868 0.984 . S
H881 N868 0.985 . S
C882 C883 1.363 . S
C882 C888 1.379 . S
C882 N890 1.356 . S
C883 C882 1.363 . S
C883 C889 1.363 . S
C884 C885 1.363 . S
C884 C889 1.379 . S
C884 N891 1.356 . S
C885 C884 1.363 . S
C885 C888 1.363 . S
N886 C888 1.356 . S
N886 H898 0.984 . S
N886 H899 0.985 . S
N887 C889 1.356 . S
N887 H892 0.984 . S
N887 H893 0.985 . S
C888 C882 1.379 . S
C888 C885 1.363 . S
C888 N886 1.356 . S
C889 C883 1.363 . S
C889 C884 1.379 . S
C889 N887 1.356 . S
N890 C882 1.356 . S
N890 H896 0.984 . S
N890 H897 0.984 . S
N891 C884 1.356 . S
N891 H894 0.984 . S
N891 H895 0.985 . S
H892 N887 0.984 . S
H893 N887 0.985 . S
H894 N891 0.984 . S
H895 N891 0.985 . S
H896 N890 0.984 . S
H897 N890 0.984 . S
H898 N886 0.984 . S
H899 N886 0.985 . S
C900 C901 1.363 . S
C900 C906 1.379 . S
C900 N908 1.356 1_655 S
C901 C900 1.363 . S
C901 C907 1.363 . S
C902 C903 1.363 . S
C902 C907 1.379 . S
C902 N909 1.356 . S
C903 C902 1.363 . S
C903 C906 1.363 . S
N904 C906 1.365 . S
N904 H916 0.964 1_655 S
N904 H917 0.997 . S
N905 C907 1.356 . S
N905 H910 0.984 . S
N905 H911 0.985 . S
C906 C900 1.379 . S
C906 C903 1.363 . S
C906 N904 1.365 . S
C907 C901 1.363 . S
C907 C902 1.379 . S
C907 N905 1.356 . S
N908 C900 1.356 1_455 S
N908 H914 0.984 . S
N908 H915 0.984 . S
N909 C902 1.356 . S
N909 H912 0.984 . S
N909 H913 0.985 . S
H910 N905 0.984 . S
H911 N905 0.985 . S
H912 N909 0.984 . S
H913 N909 0.985 . S
H914 N908 0.984 . S
H915 N908 0.984 . S
H916 N904 0.964 1_455 S
H917 N904 0.997 . S
C918 C919 1.363 . S
C918 C924 1.379 . S
C918 N926 1.356 . S
C919 C918 1.363 . S
C919 C925 1.363 . S
C920 C921 1.363 . S
C920 C925 1.379 . S
C920 N927 1.356 . S
C921 C920 1.363 . S
C921 C924 1.363 . S
N922 C924 1.356 . S
N922 H934 0.984 . S
N922 H935 0.985 . S
N923 C925 1.356 . S
N923 H928 0.984 . S
N923 H929 0.985 . S
C924 C918 1.379 . S
C924 C921 1.363 . S
C924 N922 1.356 . S
C925 C919 1.363 . S
C925 C920 1.379 . S
C925 N923 1.356 . S
N926 C918 1.356 . S
N926 H932 0.984 . S
N926 H933 0.984 . S
N927 C920 1.356 . S
N927 H930 0.984 . S
N927 H931 0.985 . S
H928 N923 0.984 . S
H929 N923 0.985 . S
H930 N927 0.984 . S
H931 N927 0.985 . S
H932 N926 0.984 . S
H933 N926 0.984 . S
H934 N922 0.984 . S
H935 N922 0.985 . S
C936 C937 1.363 . S
C936 C942 1.379 . S
C936 N944 1.356 . S
C937 C936 1.363 . S
C937 C943 1.363 . S
C938 C939 1.363 . S
C938 C943 1.379 . S
C938 N945 1.356 . S
C939 C938 1.363 . S
C939 C942 1.363 . S
N940 C942 1.356 . S
N940 H952 0.984 . S
N940 H953 0.985 . S
N941 C943 1.356 . S
N941 H946 0.984 . S
N941 H947 0.985 . S
C942 C936 1.379 . S
C942 C939 1.363 . S
C942 N940 1.356 . S
C943 C937 1.363 . S
C943 C938 1.379 . S
C943 N941 1.356 . S
N944 C936 1.356 . S
N944 H950 0.984 . S
N944 H951 0.984 . S
N945 C938 1.356 . S
N945 H948 0.984 . S
N945 H949 0.985 . S
H946 N941 0.984 . S
H947 N941 0.985 . S
H948 N945 0.984 . S
H949 N945 0.985 . S
H950 N944 0.984 . S
H951 N944 0.984 . S
H952 N940 0.984 . S
H953 N940 0.985 . S
C954 C955 1.363 . S
C954 C960 1.379 . S
C954 N962 1.356 . S
C955 C954 1.363 . S
C955 C961 1.363 . S
C956 C957 1.363 . S
C956 C961 1.379 . S
C956 N963 1.356 . S
C957 C956 1.363 . S
C957 C960 1.363 . S
N958 C960 1.356 . S
N958 H970 0.984 . S
N958 H971 0.985 . S
N959 C961 1.356 . S
N959 H964 0.984 . S
N959 H965 0.985 . S
C960 C954 1.379 . S
C960 C957 1.363 . S
C960 N958 1.356 . S
C961 C955 1.363 . S
C961 C956 1.379 . S
C961 N959 1.356 . S
N962 C954 1.356 . S
N962 H968 0.984 . S
N962 H969 0.984 . S
N963 C956 1.356 . S
N963 H966 0.984 . S
N963 H967 0.985 . S
H964 N959 0.984 . S
H965 N959 0.985 . S
H966 N963 0.984 . S
H967 N963 0.985 . S
H968 N962 0.984 . S
H969 N962 0.984 . S
H970 N958 0.984 . S
H971 N958 0.985 . S
C972 C973 1.363 . S
C972 C978 1.379 . S
C972 N980 1.356 . S
C973 C972 1.363 . S
C973 C979 1.363 . S
C974 C975 1.363 1_545 S
C974 C979 1.379 1_545 S
C974 N981 1.356 . S
C975 C974 1.363 1_565 S
C975 C978 1.363 . S
N976 C978 1.356 . S
N976 H988 0.984 . S
N976 H989 0.985 . S
N977 C979 1.356 1_545 S
N977 H982 0.984 1_545 S
N977 H983 0.985 . S
C978 C972 1.379 . S
C978 C975 1.363 . S
C978 N976 1.356 . S
C979 C973 1.363 . S
C979 C974 1.379 1_565 S
C979 N977 1.356 1_565 S
N980 C972 1.356 . S
N980 H986 0.984 . S
N980 H987 0.984 . S
N981 C974 1.356 . S
N981 H984 0.984 . S
N981 H985 0.985 . S
H982 N977 0.984 1_565 S
H983 N977 0.985 . S
H984 N981 0.984 . S
H985 N981 0.985 . S
H986 N980 0.984 . S
H987 N980 0.984 . S
H988 N976 0.984 . S
H989 N976 0.985 . S
C990 C991 1.363 . S
C990 C996 1.379 . S
C990 N998 1.356 . S
C991 C990 1.363 . S
C991 C997 1.363 . S
C992 C993 1.363 . S
C992 C997 1.379 . S
C992 N999 1.356 . S
C993 C992 1.363 . S
C993 C996 1.363 . S
N994 C996 1.356 . S
N994 H1006 0.984 . S
N994 H1007 0.985 . S
N995 C997 1.356 . S
N995 H1000 0.984 . S
N995 H1001 0.985 . S
C996 C990 1.379 . S
C996 C993 1.363 . S
C996 N994 1.356 . S
C997 C991 1.363 . S
C997 C992 1.379 . S
C997 N995 1.356 . S
N998 C990 1.356 . S
N998 H1004 0.984 . S
N998 H1005 0.984 . S
N999 C992 1.356 . S
N999 H1002 0.984 . S
N999 H1003 0.985 . S
H1000 N995 0.984 . S
H1001 N995 0.985 . S
H1002 N999 0.984 . S
H1003 N999 0.985 . S
H1004 N998 0.984 . S
H1005 N998 0.984 . S
H1006 N994 0.984 . S
H1007 N994 0.985 . S
C1008 C1009 1.363 . S
C1008 C1014 1.379 . S
C1008 N1016 1.356 . S
C1009 C1008 1.363 . S
C1009 C1015 1.363 . S
C1010 C1011 1.363 . S
C1010 C1015 1.379 . S
C1010 N1017 1.356 . S
C1011 C1010 1.363 . S
C1011 C1014 1.363 . S
N1012 C1014 1.356 . S
N1012 H1024 0.984 . S
N1012 H1025 0.985 . S
N1013 C1015 1.356 . S
N1013 H1018 0.984 . S
N1013 H1019 0.985 . S
C1014 C1008 1.379 . S
C1014 C1011 1.363 . S
C1014 N1012 1.356 . S
C1015 C1009 1.363 . S
C1015 C1010 1.379 . S
C1015 N1013 1.356 . S
N1016 C1008 1.356 . S
N1016 H1022 0.984 . S
N1016 H1023 0.984 . S
N1017 C1010 1.356 . S
N1017 H1020 0.984 . S
N1017 H1021 0.985 . S
H1018 N1013 0.984 . S
H1019 N1013 0.985 . S
H1020 N1017 0.984 . S
H1021 N1017 0.985 . S
H1022 N1016 0.984 . S
H1023 N1016 0.984 . S
H1024 N1012 0.984 . S
H1025 N1012 0.985 . S
C1026 C1027 1.363 . S
C1026 C1032 1.379 . S
C1026 N1034 1.356 . S
C1027 C1026 1.363 . S
C1027 C1033 1.363 . S
C1028 C1029 1.363 . S
C1028 C1033 1.379 . S
C1028 N1035 1.356 . S
C1029 C1028 1.363 . S
C1029 C1032 1.363 . S
N1030 C1032 1.356 . S
N1030 H1042 0.984 . S
N1030 H1043 0.985 . S
N1031 C1033 1.356 . S
N1031 H1036 0.984 . S
N1031 H1037 0.985 . S
C1032 C1026 1.379 . S
C1032 C1029 1.363 . S
C1032 N1030 1.356 . S
C1033 C1027 1.363 . S
C1033 C1028 1.379 . S
C1033 N1031 1.356 . S
N1034 C1026 1.356 . S
N1034 H1040 0.984 . S
N1034 H1041 0.984 . S
N1035 C1028 1.356 . S
N1035 H1038 0.984 . S
N1035 H1039 0.985 . S
H1036 N1031 0.984 . S
H1037 N1031 0.985 . S
H1038 N1035 0.984 . S
H1039 N1035 0.985 . S
H1040 N1034 0.984 . S
H1041 N1034 0.984 . S
H1042 N1030 0.984 . S
H1043 N1030 0.985 . S
C1044 C1045 1.363 . S
C1044 C1050 1.379 . S
C1044 N1052 1.356 . S
C1045 C1044 1.363 . S
C1045 C1051 1.363 . S
C1046 C1047 1.363 . S
C1046 C1051 1.379 . S
C1046 N1053 1.356 . S
C1047 C1046 1.363 . S
C1047 C1050 1.363 . S
N1048 C1050 1.356 . S
N1048 H1060 0.984 . S
N1048 H1061 0.985 . S
N1049 C1051 1.356 . S
N1049 H1054 0.984 . S
N1049 H1055 0.985 . S
C1050 C1044 1.379 . S
C1050 C1047 1.363 . S
C1050 N1048 1.356 . S
C1051 C1045 1.363 . S
C1051 C1046 1.379 . S
C1051 N1049 1.356 . S
N1052 C1044 1.356 . S
N1052 H1058 0.984 . S
N1052 H1059 0.984 . S
N1053 C1046 1.356 . S
N1053 H1056 0.984 . S
N1053 H1057 0.985 . S
H1054 N1049 0.984 . S
H1055 N1049 0.985 . S
H1056 N1053 0.984 . S
H1057 N1053 0.985 . S
H1058 N1052 0.984 . S
H1059 N1052 0.984 . S
H1060 N1048 0.984 . S
H1061 N1048 0.985 . S
C1062 C1063 1.363 . S
C1062 C1068 1.379 . S
C1062 N1070 1.356 . S
C1063 C1062 1.363 . S
C1063 C1069 1.363 . S
C1064 C1065 1.363 . S
C1064 C1069 1.379 . S
C1064 N1071 1.356 . S
C1065 C1064 1.363 . S
C1065 C1068 1.363 . S
N1066 C1068 1.356 . S
N1066 H1078 0.984 . S
N1066 H1079 0.985 . S
N1067 C1069 1.356 . S
N1067 H1072 0.984 . S
N1067 H1073 0.985 . S
C1068 C1062 1.379 . S
C1068 C1065 1.363 . S
C1068 N1066 1.356 . S
C1069 C1063 1.363 . S
C1069 C1064 1.379 . S
C1069 N1067 1.356 . S
N1070 C1062 1.356 . S
N1070 H1076 0.984 . S
N1070 H1077 0.984 . S
N1071 C1064 1.356 . S
N1071 H1074 0.984 . S
N1071 H1075 0.985 . S
H1072 N1067 0.984 . S
H1073 N1067 0.985 . S
H1074 N1071 0.984 . S
H1075 N1071 0.985 . S
H1076 N1070 0.984 . S
H1077 N1070 0.984 . S
H1078 N1066 0.984 . S
H1079 N1066 0.985 . S
C1080 C1081 1.363 . S
C1080 C1086 1.379 . S
C1080 N1088 1.356 . S
C1081 C1080 1.363 . S
C1081 C1087 1.363 . S
C1082 C1083 1.363 . S
C1082 C1087 1.379 . S
C1082 N1089 1.356 . S
C1083 C1082 1.363 . S
C1083 C1086 1.363 . S
N1084 C1086 1.356 . S
N1084 H1096 0.984 . S
N1084 H1097 0.985 . S
N1085 C1087 1.356 . S
N1085 H1090 0.984 . S
N1085 H1091 0.985 . S
C1086 C1080 1.379 . S
C1086 C1083 1.363 . S
C1086 N1084 1.356 . S
C1087 C1081 1.363 . S
C1087 C1082 1.379 . S
C1087 N1085 1.356 . S
N1088 C1080 1.356 . S
N1088 H1094 0.984 . S
N1088 H1095 0.984 . S
N1089 C1082 1.356 . S
N1089 H1092 0.984 . S
N1089 H1093 0.985 . S
H1090 N1085 0.984 . S
H1091 N1085 0.985 . S
H1092 N1089 0.984 . S
H1093 N1089 0.985 . S
H1094 N1088 0.984 . S
H1095 N1088 0.984 . S
H1096 N1084 0.984 . S
H1097 N1084 0.985 . S
C1098 C1099 1.363 . S
C1098 C1104 1.379 . S
C1098 N1106 1.356 . S
C1099 C1098 1.363 . S
C1099 C1105 1.363 . S
C1100 C1101 1.363 . S
C1100 C1105 1.379 . S
C1100 N1107 1.356 . S
C1101 C1100 1.363 . S
C1101 C1104 1.363 . S
N1102 C1104 1.356 . S
N1102 H1114 0.984 . S
N1102 H1115 0.985 . S
N1103 C1105 1.356 . S
N1103 H1108 0.984 . S
N1103 H1109 0.985 . S
C1104 C1098 1.379 . S
C1104 C1101 1.363 . S
C1104 N1102 1.356 . S
C1105 C1099 1.363 . S
C1105 C1100 1.379 . S
C1105 N1103 1.356 . S
N1106 C1098 1.356 . S
N1106 H1112 0.984 . S
N1106 H1113 0.984 . S
N1107 C1100 1.356 . S
N1107 H1110 0.984 . S
N1107 H1111 0.985 . S
H1108 N1103 0.984 . S
H1109 N1103 0.985 . S
H1110 N1107 0.984 . S
H1111 N1107 0.985 . S
H1112 N1106 0.984 . S
H1113 N1106 0.984 . S
H1114 N1102 0.984 . S
H1115 N1102 0.985 . S
C1116 C1117 1.363 1_455 S
C1116 C1122 1.379 . S
C1116 N1124 1.356 1_556 S
C1117 C1116 1.363 1_655 S
C1117 C1123 1.363 . S
C1118 C1119 1.363 . S
C1118 C1123 1.379 . S
C1118 N1125 1.356 . S
C1119 C1118 1.363 . S
C1119 C1122 1.363 1_655 S
N1120 C1122 1.356 . S
N1120 H1132 0.984 . S
N1120 H1133 0.985 . S
N1121 C1123 1.356 . S
N1121 H1126 0.984 . S
N1121 H1127 0.985 . S
C1122 C1116 1.379 . S
C1122 C1119 1.363 1_455 S
C1122 N1120 1.356 . S
C1123 C1117 1.363 . S
C1123 C1118 1.379 . S
C1123 N1121 1.356 . S
N1124 C1116 1.356 1_554 S
N1124 H1130 0.984 . S
N1124 H1131 0.984 . S
N1125 C1118 1.356 . S
N1125 H1128 0.984 . S
N1125 H1129 0.985 . S
H1126 N1121 0.984 . S
H1127 N1121 0.985 . S
H1128 N1125 0.984 . S
H1129 N1125 0.985 . S
H1130 N1124 0.984 . S
H1131 N1124 0.984 . S
H1132 N1120 0.984 . S
H1133 N1120 0.985 . S
C1134 C1135 1.363 . S
C1134 C1140 1.379 . S
C1134 N1142 1.356 . S
C1135 C1134 1.363 . S
C1135 C1141 1.363 . S
C1136 C1137 1.363 . S
C1136 C1141 1.379 . S
C1136 N1143 1.356 . S
C1137 C1136 1.363 . S
C1137 C1140 1.363 . S
N1138 C1140 1.356 . S
N1138 H1150 0.984 . S
N1138 H1151 0.985 . S
N1139 C1141 1.356 . S
N1139 H1144 0.984 . S
N1139 H1145 0.985 . S
C1140 C1134 1.379 . S
C1140 C1137 1.363 . S
C1140 N1138 1.356 . S
C1141 C1135 1.363 . S
C1141 C1136 1.379 . S
C1141 N1139 1.356 . S
N1142 C1134 1.356 . S
N1142 H1148 0.984 . S
N1142 H1149 0.984 . S
N1143 C1136 1.356 . S
N1143 H1146 0.984 . S
N1143 H1147 0.985 . S
H1144 N1139 0.984 . S
H1145 N1139 0.985 . S
H1146 N1143 0.984 . S
H1147 N1143 0.985 . S
H1148 N1142 0.984 . S
H1149 N1142 0.984 . S
H1150 N1138 0.984 . S
H1151 N1138 0.985 . S
C1152 C1153 1.363 . S
C1152 C1158 1.379 . S
C1152 N1160 1.356 . S
C1153 C1152 1.363 . S
C1153 C1159 1.363 . S
C1154 C1155 1.363 . S
C1154 C1159 1.379 . S
C1154 N1161 1.356 . S
C1155 C1154 1.363 . S
C1155 C1158 1.363 . S
N1156 C1158 1.356 . S
N1156 H1168 0.984 . S
N1156 H1169 0.985 . S
N1157 C1159 1.356 . S
N1157 H1162 0.984 . S
N1157 H1163 0.985 . S
C1158 C1152 1.379 . S
C1158 C1155 1.363 . S
C1158 N1156 1.356 . S
C1159 C1153 1.363 . S
C1159 C1154 1.379 . S
C1159 N1157 1.356 . S
N1160 C1152 1.356 . S
N1160 H1166 0.984 . S
N1160 H1167 0.984 . S
N1161 C1154 1.356 . S
N1161 H1164 0.984 . S
N1161 H1165 0.985 . S
H1162 N1157 0.984 . S
H1163 N1157 0.985 . S
H1164 N1161 0.984 . S
H1165 N1161 0.985 . S
H1166 N1160 0.984 . S
H1167 N1160 0.984 . S
H1168 N1156 0.984 . S
H1169 N1156 0.985 . S
C1170 C1171 1.363 . S
C1170 C1176 1.379 . S
C1170 N1178 1.356 . S
C1171 C1170 1.363 . S
C1171 C1177 1.363 . S
C1172 C1173 1.363 . S
C1172 C1177 1.379 . S
C1172 N1179 1.356 . S
C1173 C1172 1.363 . S
C1173 C1176 1.363 . S
N1174 C1176 1.356 . S
N1174 H1186 0.984 . S
N1174 H1187 0.985 . S
N1175 C1177 1.356 . S
N1175 H1180 0.984 . S
N1175 H1181 0.985 . S
C1176 C1170 1.379 . S
C1176 C1173 1.363 . S
C1176 N1174 1.356 . S
C1177 C1171 1.363 . S
C1177 C1172 1.379 . S
C1177 N1175 1.356 . S
N1178 C1170 1.356 . S
N1178 H1184 0.984 . S
N1178 H1185 0.984 . S
N1179 C1172 1.356 . S
N1179 H1182 0.984 . S
N1179 H1183 0.985 . S
H1180 N1175 0.984 . S
H1181 N1175 0.985 . S
H1182 N1179 0.984 . S
H1183 N1179 0.985 . S
H1184 N1178 0.984 . S
H1185 N1178 0.984 . S
H1186 N1174 0.984 . S
H1187 N1174 0.985 . S
C1188 C1189 1.363 1_545 S
C1188 C1194 1.379 . S
C1188 N1196 1.356 . S
C1189 C1188 1.363 1_565 S
C1189 C1195 1.363 . S
C1190 C1191 1.363 . S
C1190 C1195 1.379 . S
C1190 N1197 1.356 . S
C1191 C1190 1.363 . S
C1191 C1194 1.363 1_565 S
N1192 C1194 1.356 1_455 S
N1192 H1204 0.984 . S
N1192 H1205 0.985 . S
N1193 C1195 1.356 . S
N1193 H1198 0.984 . S
N1193 H1199 0.985 . S
C1194 C1188 1.379 . S
C1194 C1191 1.363 1_545 S
C1194 N1192 1.356 1_655 S
C1195 C1189 1.363 . S
C1195 C1190 1.379 . S
C1195 N1193 1.356 . S
N1196 C1188 1.356 . S
N1196 H1202 0.984 . S
N1196 H1203 0.984 . S
N1197 C1190 1.356 . S
N1197 H1200 0.984 1_655 S
N1197 H1201 0.985 . S
H1198 N1193 0.984 . S
H1199 N1193 0.985 . S
H1200 N1197 0.984 1_455 S
H1201 N1197 0.985 . S
H1202 N1196 0.984 . S
H1203 N1196 0.984 . S
H1204 N1192 0.984 . S
H1205 N1192 0.985 . S
C1206 C1207 1.363 . S
C1206 C1212 1.379 . S
C1206 N1214 1.356 . S
C1207 C1206 1.363 . S
C1207 C1213 1.363 . S
C1208 C1209 1.363 . S
C1208 C1213 1.379 . S
C1208 N1215 1.356 . S
C1209 C1208 1.363 . S
C1209 C1212 1.363 . S
N1210 C1212 1.356 . S
N1210 H1222 0.984 . S
N1210 H1223 0.985 . S
N1211 C1213 1.356 . S
N1211 H1216 0.984 . S
N1211 H1217 0.985 . S
C1212 C1206 1.379 . S
C1212 C1209 1.363 . S
C1212 N1210 1.356 . S
C1213 C1207 1.363 . S
C1213 C1208 1.379 . S
C1213 N1211 1.356 . S
N1214 C1206 1.356 . S
N1214 H1220 0.984 . S
N1214 H1221 0.984 . S
N1215 C1208 1.356 . S
N1215 H1218 0.984 . S
N1215 H1219 0.985 . S
H1216 N1211 0.984 . S
H1217 N1211 0.985 . S
H1218 N1215 0.984 . S
H1219 N1215 0.985 . S
H1220 N1214 0.984 . S
H1221 N1214 0.984 . S
H1222 N1210 0.984 . S
H1223 N1210 0.985 . S
C1224 C1225 1.363 . S
C1224 C1230 1.379 . S
C1224 N1232 1.356 . S
C1225 C1224 1.363 . S
C1225 C1231 1.363 . S
C1226 C1227 1.363 . S
C1226 C1231 1.379 . S
C1226 N1233 1.356 . S
C1227 C1226 1.363 . S
C1227 C1230 1.363 . S
N1228 C1230 1.356 . S
N1228 H1240 0.984 . S
N1228 H1241 0.985 . S
N1229 C1231 1.356 . S
N1229 H1234 0.984 . S
N1229 H1235 0.985 . S
C1230 C1224 1.379 . S
C1230 C1227 1.363 . S
C1230 N1228 1.356 . S
C1231 C1225 1.363 . S
C1231 C1226 1.379 . S
C1231 N1229 1.356 . S
N1232 C1224 1.356 . S
N1232 H1238 0.984 . S
N1232 H1239 0.984 . S
N1233 C1226 1.356 . S
N1233 H1236 0.984 . S
N1233 H1237 0.985 . S
H1234 N1229 0.984 . S
H1235 N1229 0.985 . S
H1236 N1233 0.984 . S
H1237 N1233 0.985 . S
H1238 N1232 0.984 . S
H1239 N1232 0.984 . S
H1240 N1228 0.984 . S
H1241 N1228 0.985 . S
C1242 C1243 1.363 . S
C1242 C1248 1.379 . S
C1242 N1250 1.356 . S
C1243 C1242 1.363 . S
C1243 C1249 1.363 . S
C1244 C1245 1.363 . S
C1244 C1249 1.379 . S
C1244 N1251 1.356 . S
C1245 C1244 1.363 . S
C1245 C1248 1.363 . S
N1246 C1248 1.356 . S
N1246 H1258 0.984 . S
N1246 H1259 0.985 . S
N1247 C1249 1.356 . S
N1247 H1252 0.984 . S
N1247 H1253 0.985 . S
C1248 C1242 1.379 . S
C1248 C1245 1.363 . S
C1248 N1246 1.356 . S
C1249 C1243 1.363 . S
C1249 C1244 1.379 . S
C1249 N1247 1.356 . S
N1250 C1242 1.356 . S
N1250 H1256 0.984 . S
N1250 H1257 0.984 . S
N1251 C1244 1.356 . S
N1251 H1254 0.984 . S
N1251 H1255 0.985 . S
H1252 N1247 0.984 . S
H1253 N1247 0.985 . S
H1254 N1251 0.984 . S
H1255 N1251 0.985 . S
H1256 N1250 0.984 . S
H1257 N1250 0.984 . S
H1258 N1246 0.984 . S
H1259 N1246 0.985 . S
C1260 C1261 1.363 . S
C1260 C1266 1.379 . S
C1260 N1268 1.356 . S
C1261 C1260 1.363 . S
C1261 C1267 1.363 . S
C1262 C1263 1.363 . S
C1262 C1267 1.379 . S
C1262 N1269 1.356 . S
C1263 C1262 1.363 . S
C1263 C1266 1.363 . S
N1264 C1266 1.356 . S
N1264 H1276 0.984 . S
N1264 H1277 0.985 . S
N1265 C1267 1.356 . S
N1265 H1270 0.984 . S
N1265 H1271 0.985 . S
C1266 C1260 1.379 . S
C1266 C1263 1.363 . S
C1266 N1264 1.356 . S
C1267 C1261 1.363 . S
C1267 C1262 1.379 . S
C1267 N1265 1.356 . S
N1268 C1260 1.356 . S
N1268 H1274 0.984 . S
N1268 H1275 0.984 . S
N1269 C1262 1.356 . S
N1269 H1272 0.984 . S
N1269 H1273 0.985 . S
H1270 N1265 0.984 . S
H1271 N1265 0.985 . S
H1272 N1269 0.984 . S
H1273 N1269 0.985 . S
H1274 N1268 0.984 . S
H1275 N1268 0.984 . S
H1276 N1264 0.984 . S
H1277 N1264 0.985 . S
C1278 C1279 1.363 . S
C1278 C1284 1.379 . S
C1278 N1286 1.356 . S
C1279 C1278 1.363 . S
C1279 C1285 1.363 . S
C1280 C1281 1.363 . S
C1280 C1285 1.379 . S
C1280 N1287 1.356 . S
C1281 C1280 1.363 . S
C1281 C1284 1.363 . S
N1282 C1284 1.356 . S
N1282 H1294 0.984 . S
N1282 H1295 0.985 . S
N1283 C1285 1.356 . S
N1283 H1288 0.984 . S
N1283 H1289 0.985 . S
C1284 C1278 1.379 . S
C1284 C1281 1.363 . S
C1284 N1282 1.356 . S
C1285 C1279 1.363 . S
C1285 C1280 1.379 . S
C1285 N1283 1.356 . S
N1286 C1278 1.356 . S
N1286 H1292 0.984 . S
N1286 H1293 0.984 . S
N1287 C1280 1.356 . S
N1287 H1290 0.984 . S
N1287 H1291 0.985 . S
H1288 N1283 0.984 . S
H1289 N1283 0.985 . S
H1290 N1287 0.984 . S
H1291 N1287 0.985 . S
H1292 N1286 0.984 . S
H1293 N1286 0.984 . S
H1294 N1282 0.984 . S
H1295 N1282 0.985 . S
C1296 C1297 1.363 . S
C1296 C1302 1.379 . S
C1296 N1304 1.356 . S
C1297 C1296 1.363 . S
C1297 C1303 1.363 . S
C1298 C1299 1.363 . S
C1298 C1303 1.379 . S
C1298 N1305 1.356 . S
C1299 C1298 1.363 . S
C1299 C1302 1.363 . S
N1300 C1302 1.356 . S
N1300 H1312 0.984 . S
N1300 H1313 0.985 . S
N1301 C1303 1.356 . S
N1301 H1306 0.984 . S
N1301 H1307 0.985 . S
C1302 C1296 1.379 . S
C1302 C1299 1.363 . S
C1302 N1300 1.356 . S
C1303 C1297 1.363 . S
C1303 C1298 1.379 . S
C1303 N1301 1.356 . S
N1304 C1296 1.356 . S
N1304 H1310 0.984 . S
N1304 H1311 0.984 . S
N1305 C1298 1.356 . S
N1305 H1308 0.984 . S
N1305 H1309 0.985 . S
H1306 N1301 0.984 . S
H1307 N1301 0.985 . S
H1308 N1305 0.984 . S
H1309 N1305 0.985 . S
H1310 N1304 0.984 . S
H1311 N1304 0.984 . S
H1312 N1300 0.984 . S
H1313 N1300 0.985 . S
C1314 C1315 1.363 . S
C1314 C1320 1.379 . S
C1314 N1322 1.356 . S
C1315 C1314 1.363 . S
C1315 C1321 1.363 . S
C1316 C1317 1.363 . S
C1316 C1321 1.379 . S
C1316 N1323 1.356 1_556 S
C1317 C1316 1.363 . S
C1317 C1320 1.363 . S
N1318 C1320 1.356 . S
N1318 H1330 0.984 . S
N1318 H1331 0.978 1_556 S
N1319 C1321 1.356 1_545 S
N1319 H1324 0.984 . S
N1319 H1325 0.985 . S
C1320 C1314 1.379 . S
C1320 C1317 1.363 . S
C1320 N1318 1.356 . S
C1321 C1315 1.363 . S
C1321 C1316 1.379 . S
C1321 N1319 1.356 1_565 S
N1322 C1314 1.356 . S
N1322 H1328 0.984 . S
N1322 H1329 0.984 . S
N1323 C1316 1.356 1_554 S
N1323 H1326 0.984 . S
N1323 H1327 0.985 . S
H1324 N1319 0.984 . S
H1325 N1319 0.985 . S
H1326 N1323 0.984 . S
H1327 N1323 0.985 . S
H1328 N1322 0.984 . S
H1329 N1322 0.984 . S
H1330 N1318 0.984 . S
H1331 N1318 0.978 1_554 S
C1332 C1333 1.363 . S
C1332 C1338 1.379 . S
C1332 N1340 1.356 . S
C1333 C1332 1.363 . S
C1333 C1339 1.363 . S
C1334 C1335 1.363 . S
C1334 C1339 1.379 . S
C1334 N1341 1.356 . S
C1335 C1334 1.363 . S
C1335 C1338 1.363 . S
N1336 C1338 1.356 . S
N1336 H1348 0.984 . S
N1336 H1349 0.985 . S
N1337 C1339 1.356 . S
N1337 H1342 0.984 . S
N1337 H1343 0.985 . S
C1338 C1332 1.379 . S
C1338 C1335 1.363 . S
C1338 N1336 1.356 . S
C1339 C1333 1.363 . S
C1339 C1334 1.379 . S
C1339 N1337 1.356 . S
N1340 C1332 1.356 . S
N1340 H1346 0.984 . S
N1340 H1347 0.984 . S
N1341 C1334 1.356 . S
N1341 H1344 0.984 . S
N1341 H1345 0.985 . S
H1342 N1337 0.984 . S
H1343 N1337 0.985 . S
H1344 N1341 0.984 . S
H1345 N1341 0.985 . S
H1346 N1340 0.984 . S
H1347 N1340 0.984 . S
H1348 N1336 0.984 . S
H1349 N1336 0.985 . S
C1350 C1351 1.363 . S
C1350 C1356 1.379 . S
C1350 N1358 1.356 . S
C1351 C1350 1.363 . S
C1351 C1357 1.363 . S
C1352 C1353 1.363 . S
C1352 C1357 1.379 . S
C1352 N1359 1.356 . S
C1353 C1352 1.363 . S
C1353 C1356 1.363 . S
N1354 C1356 1.356 . S
N1354 H1366 0.984 . S
N1354 H1367 0.985 . S
N1355 C1357 1.356 . S
N1355 H1360 0.984 . S
N1355 H1361 0.985 . S
C1356 C1350 1.379 . S
C1356 C1353 1.363 . S
C1356 N1354 1.356 . S
C1357 C1351 1.363 . S
C1357 C1352 1.379 . S
C1357 N1355 1.356 . S
N1358 C1350 1.356 . S
N1358 H1364 0.984 . S
N1358 H1365 0.984 . S
N1359 C1352 1.356 . S
N1359 H1362 0.984 . S
N1359 H1363 0.985 . S
H1360 N1355 0.984 . S
H1361 N1355 0.985 . S
H1362 N1359 0.984 . S
H1363 N1359 0.985 . S
H1364 N1358 0.984 . S
H1365 N1358 0.984 . S
H1366 N1354 0.984 . S
H1367 N1354 0.985 . S
C1368 C1369 1.363 . S
C1368 C1374 1.379 . S
C1368 N1376 1.356 . S
C1369 C1368 1.363 . S
C1369 C1375 1.363 . S
C1370 C1371 1.363 . S
C1370 C1375 1.379 . S
C1370 N1377 1.356 . S
C1371 C1370 1.363 . S
C1371 C1374 1.363 . S
N1372 C1374 1.356 . S
N1372 H1384 0.984 . S
N1372 H1385 0.985 . S
N1373 C1375 1.356 . S
N1373 H1378 0.984 . S
N1373 H1379 0.985 . S
C1374 C1368 1.379 . S
C1374 C1371 1.363 . S
C1374 N1372 1.356 . S
C1375 C1369 1.363 . S
C1375 C1370 1.379 . S
C1375 N1373 1.356 . S
N1376 C1368 1.356 . S
N1376 H1382 0.984 . S
N1376 H1383 0.984 . S
N1377 C1370 1.356 . S
N1377 H1380 0.984 . S
N1377 H1381 0.985 . S
H1378 N1373 0.984 . S
H1379 N1373 0.985 . S
H1380 N1377 0.984 . S
H1381 N1377 0.985 . S
H1382 N1376 0.984 . S
H1383 N1376 0.984 . S
H1384 N1372 0.984 . S
H1385 N1372 0.985 . S
C1386 C1387 1.363 . S
C1386 C1392 1.379 . S
C1386 N1394 1.356 . S
C1387 C1386 1.363 . S
C1387 C1393 1.363 . S
C1388 C1389 1.363 . S
C1388 C1393 1.379 . S
C1388 N1395 1.356 . S
C1389 C1388 1.363 . S
C1389 C1392 1.363 . S
N1390 C1392 1.356 . S
N1390 H1402 0.984 . S
N1390 H1403 0.985 . S
N1391 C1393 1.356 . S
N1391 H1396 0.984 . S
N1391 H1397 0.985 . S
C1392 C1386 1.379 . S
C1392 C1389 1.363 . S
C1392 N1390 1.356 . S
C1393 C1387 1.363 . S
C1393 C1388 1.379 . S
C1393 N1391 1.356 . S
N1394 C1386 1.356 . S
N1394 H1400 0.984 . S
N1394 H1401 0.984 . S
N1395 C1388 1.356 . S
N1395 H1398 0.984 . S
N1395 H1399 0.985 . S
H1396 N1391 0.984 . S
H1397 N1391 0.985 . S
H1398 N1395 0.984 . S
H1399 N1395 0.985 . S
H1400 N1394 0.984 . S
H1401 N1394 0.984 . S
H1402 N1390 0.984 . S
H1403 N1390 0.985 . S
C1404 C1405 1.363 . S
C1404 C1410 1.379 . S
C1404 N1412 1.356 . S
C1405 C1404 1.363 . S
C1405 C1411 1.363 . S
C1406 C1407 1.363 . S
C1406 C1411 1.379 . S
C1406 N1413 1.356 . S
C1407 C1406 1.363 . S
C1407 C1410 1.363 . S
N1408 C1410 1.356 . S
N1408 H1420 0.984 . S
N1408 H1421 0.985 . S
N1409 C1411 1.356 . S
N1409 H1414 0.984 . S
N1409 H1415 0.985 . S
C1410 C1404 1.379 . S
C1410 C1407 1.363 . S
C1410 N1408 1.356 . S
C1411 C1405 1.363 . S
C1411 C1406 1.379 . S
C1411 N1409 1.356 . S
N1412 C1404 1.356 . S
N1412 H1418 0.984 . S
N1412 H1419 0.984 . S
N1413 C1406 1.356 . S
N1413 H1416 0.984 . S
N1413 H1417 0.985 . S
H1414 N1409 0.984 . S
H1415 N1409 0.985 . S
H1416 N1413 0.984 . S
H1417 N1413 0.985 . S
H1418 N1412 0.984 . S
H1419 N1412 0.984 . S
H1420 N1408 0.984 . S
H1421 N1408 0.985 . S
C1422 C1423 1.363 . S
C1422 C1428 1.379 . S
C1422 N1430 1.356 . S
C1423 C1422 1.363 . S
C1423 C1429 1.363 . S
C1424 C1425 1.363 . S
C1424 C1429 1.379 . S
C1424 N1431 1.356 . S
C1425 C1424 1.363 . S
C1425 C1428 1.363 . S
N1426 C1428 1.356 . S
N1426 H1438 0.984 . S
N1426 H1439 0.985 . S
N1427 C1429 1.356 . S
N1427 H1432 0.984 . S
N1427 H1433 0.985 . S
C1428 C1422 1.379 . S
C1428 C1425 1.363 . S
C1428 N1426 1.356 . S
C1429 C1423 1.363 . S
C1429 C1424 1.379 . S
C1429 N1427 1.356 . S
N1430 C1422 1.356 . S
N1430 H1436 0.984 . S
N1430 H1437 0.984 . S
N1431 C1424 1.356 . S
N1431 H1434 0.984 . S
N1431 H1435 0.985 . S
H1432 N1427 0.984 . S
H1433 N1427 0.985 . S
H1434 N1431 0.984 . S
H1435 N1431 0.985 . S
H1436 N1430 0.984 . S
H1437 N1430 0.984 . S
H1438 N1426 0.984 . S
H1439 N1426 0.985 . S
C1440 C1441 1.363 . S
C1440 C1446 1.379 . S
C1440 N1448 1.356 . S
C1441 C1440 1.363 . S
C1441 C1447 1.363 . S
C1442 C1443 1.363 . S
C1442 C1447 1.379 . S
C1442 N1449 1.356 . S
C1443 C1442 1.363 . S
C1443 C1446 1.363 . S
N1444 C1446 1.356 . S
N1444 H1456 0.984 . S
N1444 H1457 0.985 . S
N1445 C1447 1.356 . S
N1445 H1450 0.984 . S
N1445 H1451 0.985 . S
C1446 C1440 1.379 . S
C1446 C1443 1.363 . S
C1446 N1444 1.356 . S
C1447 C1441 1.363 . S
C1447 C1442 1.379 . S
C1447 N1445 1.356 . S
N1448 C1440 1.356 . S
N1448 H1454 0.984 . S
N1448 H1455 0.984 . S
N1449 C1442 1.356 . S
N1449 H1452 0.984 . S
N1449 H1453 0.985 . S
H1450 N1445 0.984 . S
H1451 N1445 0.985 . S
H1452 N1449 0.984 . S
H1453 N1449 0.985 . S
H1454 N1448 0.984 . S
H1455 N1448 0.984 . S
H1456 N1444 0.984 . S
H1457 N1444 0.985 . S
C1458 C1459 1.363 . S
C1458 C1464 1.379 . S
C1458 N1466 1.356 . S
C1459 C1458 1.363 . S
C1459 C1465 1.363 . S
C1460 C1461 1.363 . S
C1460 C1465 1.379 . S
C1460 N1467 1.356 . S
C1461 C1460 1.363 . S
C1461 C1464 1.363 . S
N1462 C1464 1.356 . S
N1462 H1474 0.984 . S
N1462 H1475 0.985 . S
N1463 C1465 1.356 . S
N1463 H1468 0.984 . S
N1463 H1469 0.985 . S
C1464 C1458 1.379 . S
C1464 C1461 1.363 . S
C1464 N1462 1.356 . S
C1465 C1459 1.363 . S
C1465 C1460 1.379 . S
C1465 N1463 1.356 . S
N1466 C1458 1.356 . S
N1466 H1472 0.984 . S
N1466 H1473 0.984 . S
N1467 C1460 1.356 . S
N1467 H1470 0.984 . S
N1467 H1471 0.985 . S
H1468 N1463 0.984 . S
H1469 N1463 0.985 . S
H1470 N1467 0.984 . S
H1471 N1467 0.985 . S
H1472 N1466 0.984 . S
H1473 N1466 0.984 . S
H1474 N1462 0.984 . S
H1475 N1462 0.985 . S
C1476 C1477 1.363 . S
C1476 C1482 1.379 . S
C1476 N1484 1.356 . S
C1477 C1476 1.363 . S
C1477 C1483 1.363 . S
C1478 C1479 1.363 . S
C1478 C1483 1.379 . S
C1478 N1485 1.356 . S
C1479 C1478 1.363 . S
C1479 C1482 1.363 . S
N1480 C1482 1.356 . S
N1480 H1492 0.984 . S
N1480 H1493 0.985 . S
N1481 C1483 1.356 . S
N1481 H1486 0.984 . S
N1481 H1487 0.985 . S
C1482 C1476 1.379 . S
C1482 C1479 1.363 . S
C1482 N1480 1.356 . S
C1483 C1477 1.363 . S
C1483 C1478 1.379 . S
C1483 N1481 1.356 . S
N1484 C1476 1.356 . S
N1484 H1490 0.984 . S
N1484 H1491 0.984 . S
N1485 C1478 1.356 . S
N1485 H1488 0.984 . S
N1485 H1489 0.985 . S
H1486 N1481 0.984 . S
H1487 N1481 0.985 . S
H1488 N1485 0.984 . S
H1489 N1485 0.985 . S
H1490 N1484 0.984 . S
H1491 N1484 0.984 . S
H1492 N1480 0.984 . S
H1493 N1480 0.985 . S
C1494 C1495 1.363 . S
C1494 C1500 1.379 . S
C1494 N1502 1.356 . S
C1495 C1494 1.363 . S
C1495 C1501 1.363 . S
C1496 C1497 1.363 . S
C1496 C1501 1.379 . S
C1496 N1503 1.356 . S
C1497 C1496 1.363 . S
C1497 C1500 1.363 . S
N1498 C1500 1.356 . S
N1498 H1510 0.984 . S
N1498 H1511 0.985 . S
N1499 C1501 1.356 . S
N1499 H1504 0.984 . S
N1499 H1505 0.985 . S
C1500 C1494 1.379 . S
C1500 C1497 1.363 . S
C1500 N1498 1.356 . S
C1501 C1495 1.363 . S
C1501 C1496 1.379 . S
C1501 N1499 1.356 . S
N1502 C1494 1.356 . S
N1502 H1508 0.984 . S
N1502 H1509 0.984 . S
N1503 C1496 1.356 . S
N1503 H1506 0.984 . S
N1503 H1507 0.985 . S
H1504 N1499 0.984 . S
H1505 N1499 0.985 . S
H1506 N1503 0.984 . S
H1507 N1503 0.985 . S
H1508 N1502 0.984 . S
H1509 N1502 0.984 . S
H1510 N1498 0.984 . S
H1511 N1498 0.985 . S
C1512 C1513 1.363 . S
C1512 C1518 1.379 . S
C1512 N1520 1.356 . S
C1513 C1512 1.363 . S
C1513 C1519 1.363 . S
C1514 C1515 1.363 . S
C1514 C1519 1.379 . S
C1514 N1521 1.356 . S
C1515 C1514 1.363 . S
C1515 C1518 1.363 . S
N1516 C1518 1.356 . S
N1516 H1528 0.984 . S
N1516 H1529 0.985 . S
N1517 C1519 1.356 . S
N1517 H1522 0.984 . S
N1517 H1523 0.985 . S
C1518 C1512 1.379 . S
C1518 C1515 1.363 . S
C1518 N1516 1.356 . S
C1519 C1513 1.363 . S
C1519 C1514 1.379 . S
C1519 N1517 1.356 . S
N1520 C1512 1.356 . S
N1520 H1526 0.984 . S
N1520 H1527 0.984 . S
N1521 C1514 1.356 . S
N1521 H1524 0.984 . S
N1521 H1525 0.985 . S
H1522 N1517 0.984 . S
H1523 N1517 0.985 . S
H1524 N1521 0.984 . S
H1525 N1521 0.985 . S
H1526 N1520 0.984 . S
H1527 N1520 0.984 . S
H1528 N1516 0.984 . S
H1529 N1516 0.985 . S
C1530 C1531 1.363 . S
C1530 C1536 1.379 . S
C1530 N1538 1.356 . S
C1531 C1530 1.363 . S
C1531 C1537 1.363 . S
C1532 C1533 1.363 . S
C1532 C1537 1.379 . S
C1532 N1539 1.356 . S
C1533 C1532 1.363 . S
C1533 C1536 1.363 . S
N1534 C1536 1.356 . S
N1534 H1546 0.984 . S
N1534 H1547 0.985 . S
N1535 C1537 1.356 . S
N1535 H1540 0.984 . S
N1535 H1541 0.985 . S
C1536 C1530 1.379 . S
C1536 C1533 1.363 . S
C1536 N1534 1.356 . S
C1537 C1531 1.363 . S
C1537 C1532 1.379 . S
C1537 N1535 1.356 . S
N1538 C1530 1.356 . S
N1538 H1544 0.984 . S
N1538 H1545 0.984 . S
N1539 C1532 1.356 . S
N1539 H1542 0.984 . S
N1539 H1543 0.985 . S
H1540 N1535 0.984 . S
H1541 N1535 0.985 . S
H1542 N1539 0.984 . S
H1543 N1539 0.985 . S
H1544 N1538 0.984 . S
H1545 N1538 0.984 . S
H1546 N1534 0.984 . S
H1547 N1534 0.985 . S
C1548 C1549 1.363 . S
C1548 C1554 1.379 . S
C1548 N1556 1.356 . S
C1549 C1548 1.363 . S
C1549 C1555 1.363 1_455 S
C1550 C1551 1.363 . S
C1550 C1555 1.379 1_455 S
C1550 N1557 1.356 1_455 S
C1551 C1550 1.363 . S
C1551 C1554 1.363 . S
N1552 C1554 1.356 . S
N1552 H1564 0.984 . S
N1552 H1565 0.985 . S
N1553 C1555 1.356 . S
N1553 H1558 0.984 . S
N1553 H1559 0.985 . S
C1554 C1548 1.379 . S
C1554 C1551 1.363 . S
C1554 N1552 1.356 . S
C1555 C1549 1.363 1_655 S
C1555 C1550 1.379 1_655 S
C1555 N1553 1.356 . S
N1556 C1548 1.356 . S
N1556 H1562 0.984 . S
N1556 H1563 0.984 . S
N1557 C1550 1.356 1_655 S
N1557 H1560 0.984 1_655 S
N1557 H1561 0.985 . S
H1558 N1553 0.984 . S
H1559 N1553 0.985 . S
H1560 N1557 0.984 1_455 S
H1561 N1557 0.985 . S
H1562 N1556 0.984 . S
H1563 N1556 0.984 . S
H1564 N1552 0.984 . S
H1565 N1552 0.985 . S
C1566 C1567 1.363 . S
C1566 C1572 1.379 . S
C1566 N1574 1.356 . S
C1567 C1566 1.363 . S
C1567 C1573 1.363 1_554 S
C1568 C1569 1.363 1_556 S
C1568 C1573 1.379 . S
C1568 N1575 1.356 . S
C1569 C1568 1.363 1_554 S
C1569 C1572 1.363 . S
N1570 C1572 1.356 . S
N1570 H1582 0.984 . S
N1570 H1583 0.985 . S
N1571 C1573 1.356 . S
N1571 H1576 0.984 . S
N1571 H1577 0.985 . S
C1572 C1566 1.379 . S
C1572 C1569 1.363 . S
C1572 N1570 1.356 . S
C1573 C1567 1.363 1_556 S
C1573 C1568 1.379 . S
C1573 N1571 1.356 . S
N1574 C1566 1.356 . S
N1574 H1580 0.984 . S
N1574 H1581 0.984 . S
N1575 C1568 1.356 . S
N1575 H1578 0.984 . S
N1575 H1579 0.985 . S
H1576 N1571 0.984 . S
H1577 N1571 0.985 . S
H1578 N1575 0.984 . S
H1579 N1575 0.985 . S
H1580 N1574 0.984 . S
H1581 N1574 0.984 . S
H1582 N1570 0.984 . S
H1583 N1570 0.985 . S
C1584 C1585 1.363 . S
C1584 C1590 1.379 . S
C1584 N1592 1.356 . S
C1585 C1584 1.363 . S
C1585 C1591 1.363 . S
C1586 C1587 1.363 . S
C1586 C1591 1.379 . S
C1586 N1593 1.356 . S
C1587 C1586 1.363 . S
C1587 C1590 1.363 . S
N1588 C1590 1.356 . S
N1588 H1600 0.984 . S
N1588 H1601 0.985 . S
N1589 C1591 1.356 . S
N1589 H1594 0.984 . S
N1589 H1595 0.985 1_545 S
C1590 C1584 1.379 . S
C1590 C1587 1.363 . S
C1590 N1588 1.356 . S
C1591 C1585 1.363 . S
C1591 C1586 1.379 . S
C1591 N1589 1.356 . S
N1592 C1584 1.356 . S
N1592 H1598 0.984 . S
N1592 H1599 0.984 . S
N1593 C1586 1.356 . S
N1593 H1596 0.984 . S
N1593 H1597 0.985 . S
H1594 N1589 0.984 . S
H1595 N1589 0.985 1_565 S
H1596 N1593 0.984 . S
H1597 N1593 0.985 . S
H1598 N1592 0.984 . S
H1599 N1592 0.984 . S
H1600 N1588 0.984 . S
H1601 N1588 0.985 . S
C1602 C1603 1.363 . S
C1602 C1608 1.379 . S
C1602 N1610 1.356 . S
C1603 C1602 1.363 . S
C1603 C1609 1.363 . S
C1604 C1605 1.363 . S
C1604 C1609 1.379 . S
C1604 N1611 1.356 . S
C1605 C1604 1.363 . S
C1605 C1608 1.363 . S
N1606 C1608 1.356 . S
N1606 H1618 0.984 . S
N1606 H1619 0.985 . S
N1607 C1609 1.356 . S
N1607 H1612 0.984 . S
N1607 H1613 0.985 . S
C1608 C1602 1.379 . S
C1608 C1605 1.363 . S
C1608 N1606 1.356 . S
C1609 C1603 1.363 . S
C1609 C1604 1.379 . S
C1609 N1607 1.356 . S
N1610 C1602 1.356 . S
N1610 H1616 0.984 . S
N1610 H1617 0.984 . S
N1611 C1604 1.356 . S
N1611 H1614 0.984 . S
N1611 H1615 0.985 . S
H1612 N1607 0.984 . S
H1613 N1607 0.985 . S
H1614 N1611 0.984 . S
H1615 N1611 0.985 . S
H1616 N1610 0.984 . S
H1617 N1610 0.984 . S
H1618 N1606 0.984 . S
H1619 N1606 0.985 . S
C1620 C1621 1.363 1_565 S
C1620 C1626 1.379 . S
C1620 N1628 1.356 . S
C1621 C1620 1.363 1_545 S
C1621 C1627 1.363 . S
C1622 C1623 1.363 . S
C1622 C1627 1.379 . S
C1622 N1629 1.356 . S
C1623 C1622 1.363 . S
C1623 C1626 1.363 1_545 S
N1624 C1626 1.356 . S
N1624 H1636 0.984 . S
N1624 H1637 0.978 1_565 S
N1625 C1627 1.356 . S
N1625 H1630 0.984 . S
N1625 H1631 0.985 . S
C1626 C1620 1.379 . S
C1626 C1623 1.363 1_565 S
C1626 N1624 1.356 . S
C1627 C1621 1.363 . S
C1627 C1622 1.379 . S
C1627 N1625 1.356 . S
N1628 C1620 1.356 . S
N1628 H1634 0.984 . S
N1628 H1635 0.984 . S
N1629 C1622 1.356 . S
N1629 H1632 0.984 . S
N1629 H1633 0.985 . S
H1630 N1625 0.984 . S
H1631 N1625 0.985 . S
H1632 N1629 0.984 . S
H1633 N1629 0.985 . S
H1634 N1628 0.984 . S
H1635 N1628 0.984 . S
H1636 N1624 0.984 . S
H1637 N1624 0.978 1_545 S
C1638 C1639 1.363 . S
C1638 C1644 1.379 . S
C1638 N1646 1.356 . S
C1639 C1638 1.363 . S
C1639 C1645 1.363 . S
C1640 C1641 1.363 . S
C1640 C1645 1.379 . S
C1640 N1647 1.356 . S
C1641 C1640 1.363 . S
C1641 C1644 1.363 . S
N1642 C1644 1.356 . S
N1642 H1654 0.984 . S
N1642 H1655 0.985 . S
N1643 C1645 1.356 . S
N1643 H1648 0.984 . S
N1643 H1649 0.985 . S
C1644 C1638 1.379 . S
C1644 C1641 1.363 . S
C1644 N1642 1.356 . S
C1645 C1639 1.363 . S
C1645 C1640 1.379 . S
C1645 N1643 1.356 . S
N1646 C1638 1.356 . S
N1646 H1652 0.984 . S
N1646 H1653 0.984 . S
N1647 C1640 1.356 . S
N1647 H1650 0.984 . S
N1647 H1651 0.985 . S
H1648 N1643 0.984 . S
H1649 N1643 0.985 . S
H1650 N1647 0.984 . S
H1651 N1647 0.985 . S
H1652 N1646 0.984 . S
H1653 N1646 0.984 . S
H1654 N1642 0.984 . S
H1655 N1642 0.985 . S
C1656 C1657 1.363 . S
C1656 C1662 1.379 . S
C1656 N1664 1.356 . S
C1657 C1656 1.363 . S
C1657 C1663 1.363 . S
C1658 C1659 1.363 . S
C1658 C1663 1.379 . S
C1658 N1665 1.356 . S
C1659 C1658 1.363 . S
C1659 C1662 1.363 . S
N1660 C1662 1.356 . S
N1660 H1672 0.984 . S
N1660 H1673 0.985 . S
N1661 C1663 1.356 . S
N1661 H1666 0.984 . S
N1661 H1667 0.985 . S
C1662 C1656 1.379 . S
C1662 C1659 1.363 . S
C1662 N1660 1.356 . S
C1663 C1657 1.363 . S
C1663 C1658 1.379 . S
C1663 N1661 1.356 . S
N1664 C1656 1.356 . S
N1664 H1670 0.984 . S
N1664 H1671 0.984 . S
N1665 C1658 1.356 . S
N1665 H1668 0.984 . S
N1665 H1669 0.985 . S
H1666 N1661 0.984 . S
H1667 N1661 0.985 . S
H1668 N1665 0.984 . S
H1669 N1665 0.985 . S
H1670 N1664 0.984 . S
H1671 N1664 0.984 . S
H1672 N1660 0.984 . S
H1673 N1660 0.985 . S
C1674 C1675 1.363 1_554 S
C1674 C1680 1.379 . S
C1674 N1682 1.356 . S
C1675 C1674 1.363 1_556 S
C1675 C1681 1.363 . S
C1676 C1677 1.363 . S
C1676 C1681 1.379 . S
C1676 N1683 1.356 . S
C1677 C1676 1.363 . S
C1677 C1680 1.363 1_556 S
N1678 C1680 1.356 . S
N1678 H1690 0.984 . S
N1678 H1691 0.985 . S
N1679 C1681 1.356 . S
N1679 H1684 0.984 . S
N1679 H1685 0.985 . S
C1680 C1674 1.379 . S
C1680 C1677 1.363 1_554 S
C1680 N1678 1.356 . S
C1681 C1675 1.363 . S
C1681 C1676 1.379 . S
C1681 N1679 1.356 . S
N1682 C1674 1.356 . S
N1682 H1688 0.984 . S
N1682 H1689 0.984 . S
N1683 C1676 1.356 . S
N1683 H1686 0.984 . S
N1683 H1687 0.985 . S
H1684 N1679 0.984 . S
H1685 N1679 0.985 . S
H1686 N1683 0.984 . S
H1687 N1683 0.985 . S
H1688 N1682 0.984 . S
H1689 N1682 0.984 . S
H1690 N1678 0.984 . S
H1691 N1678 0.985 . S
C1692 C1693 1.363 1_545 S
C1692 C1698 1.379 . S
C1692 N1700 1.356 . S
C1693 C1692 1.363 1_565 S
C1693 C1699 1.363 . S
C1694 C1695 1.363 . S
C1694 C1699 1.379 . S
C1694 N1701 1.356 . S
C1695 C1694 1.363 . S
C1695 C1698 1.363 1_565 S
N1696 C1698 1.356 . S
N1696 H1708 0.984 . S
N1696 H1709 0.985 . S
N1697 C1699 1.356 . S
N1697 H1702 0.984 . S
N1697 H1703 0.985 . S
C1698 C1692 1.379 . S
C1698 C1695 1.363 1_545 S
C1698 N1696 1.356 . S
C1699 C1693 1.363 . S
C1699 C1694 1.379 . S
C1699 N1697 1.356 . S
N1700 C1692 1.356 . S
N1700 H1706 0.984 . S
N1700 H1707 0.984 . S
N1701 C1694 1.356 . S
N1701 H1704 0.984 . S
N1701 H1705 0.985 . S
H1702 N1697 0.984 . S
H1703 N1697 0.985 . S
H1704 N1701 0.984 . S
H1705 N1701 0.985 . S
H1706 N1700 0.984 . S
H1707 N1700 0.984 . S
H1708 N1696 0.984 . S
H1709 N1696 0.985 . S
C1710 C1711 1.363 . S
C1710 C1716 1.379 . S
C1710 N1718 1.356 . S
C1711 C1710 1.363 . S
C1711 C1717 1.363 . S
C1712 C1713 1.363 . S
C1712 C1717 1.379 . S
C1712 N1719 1.356 . S
C1713 C1712 1.363 . S
C1713 C1716 1.363 . S
N1714 C1716 1.356 . S
N1714 H1726 0.984 . S
N1714 H1727 0.985 . S
N1715 C1717 1.356 . S
N1715 H1720 0.984 . S
N1715 H1721 0.985 . S
C1716 C1710 1.379 . S
C1716 C1713 1.363 . S
C1716 N1714 1.356 . S
C1717 C1711 1.363 . S
C1717 C1712 1.379 . S
C1717 N1715 1.356 . S
N1718 C1710 1.356 . S
N1718 H1724 0.984 . S
N1718 H1725 0.984 . S
N1719 C1712 1.356 . S
N1719 H1722 0.984 . S
N1719 H1723 0.985 . S
H1720 N1715 0.984 . S
H1721 N1715 0.985 . S
H1722 N1719 0.984 . S
H1723 N1719 0.985 . S
H1724 N1718 0.984 . S
H1725 N1718 0.984 . S
H1726 N1714 0.984 . S
H1727 N1714 0.985 . S
C1728 C1729 1.363 . S
C1728 C1734 1.379 . S
C1728 N1736 1.356 . S
C1729 C1728 1.363 . S
C1729 C1735 1.363 . S
C1730 C1731 1.363 . S
C1730 C1735 1.379 . S
C1730 N1737 1.356 . S
C1731 C1730 1.363 . S
C1731 C1734 1.363 . S
N1732 C1734 1.356 . S
N1732 H1744 0.984 . S
N1732 H1745 0.985 . S
N1733 C1735 1.356 . S
N1733 H1738 0.984 . S
N1733 H1739 0.985 . S
C1734 C1728 1.379 . S
C1734 C1731 1.363 . S
C1734 N1732 1.356 . S
C1735 C1729 1.363 . S
C1735 C1730 1.379 . S
C1735 N1733 1.356 . S
N1736 C1728 1.356 . S
N1736 H1742 0.984 . S
N1736 H1743 0.984 . S
N1737 C1730 1.356 . S
N1737 H1740 0.984 . S
N1737 H1741 0.985 . S
H1738 N1733 0.984 . S
H1739 N1733 0.985 . S
H1740 N1737 0.984 . S
H1741 N1737 0.985 . S
H1742 N1736 0.984 . S
H1743 N1736 0.984 . S
H1744 N1732 0.984 . S
H1745 N1732 0.985 . S
C1746 C1747 1.363 . S
C1746 C1752 1.379 . S
C1746 N1754 1.356 . S
C1747 C1746 1.363 . S
C1747 C1753 1.363 . S
C1748 C1749 1.363 . S
C1748 C1753 1.379 . S
C1748 N1755 1.356 . S
C1749 C1748 1.363 . S
C1749 C1752 1.363 . S
N1750 C1752 1.356 . S
N1750 H1762 0.984 . S
N1750 H1763 0.985 . S
N1751 C1753 1.356 . S
N1751 H1756 0.984 . S
N1751 H1757 0.985 . S
C1752 C1746 1.379 . S
C1752 C1749 1.363 . S
C1752 N1750 1.356 . S
C1753 C1747 1.363 . S
C1753 C1748 1.379 . S
C1753 N1751 1.356 . S
N1754 C1746 1.356 . S
N1754 H1760 0.984 . S
N1754 H1761 0.984 . S
N1755 C1748 1.356 . S
N1755 H1758 0.984 . S
N1755 H1759 0.985 . S
H1756 N1751 0.984 . S
H1757 N1751 0.985 . S
H1758 N1755 0.984 . S
H1759 N1755 0.985 . S
H1760 N1754 0.984 . S
H1761 N1754 0.984 . S
H1762 N1750 0.984 . S
H1763 N1750 0.985 . S
C1764 C1765 1.363 . S
C1764 C1770 1.379 . S
C1764 N1772 1.356 . S
C1765 C1764 1.363 . S
C1765 C1771 1.363 . S
C1766 C1767 1.363 . S
C1766 C1771 1.379 . S
C1766 N1773 1.356 . S
C1767 C1766 1.363 . S
C1767 C1770 1.363 . S
N1768 C1770 1.356 . S
N1768 H1780 0.984 . S
N1768 H1781 0.985 . S
N1769 C1771 1.356 . S
N1769 H1774 0.984 . S
N1769 H1775 0.985 . S
C1770 C1764 1.379 . S
C1770 C1767 1.363 . S
C1770 N1768 1.356 . S
C1771 C1765 1.363 . S
C1771 C1766 1.379 . S
C1771 N1769 1.356 . S
N1772 C1764 1.356 . S
N1772 H1778 0.984 . S
N1772 H1779 0.984 . S
N1773 C1766 1.356 . S
N1773 H1776 0.984 . S
N1773 H1777 0.985 . S
H1774 N1769 0.984 . S
H1775 N1769 0.985 . S
H1776 N1773 0.984 . S
H1777 N1773 0.985 . S
H1778 N1772 0.984 . S
H1779 N1772 0.984 . S
H1780 N1768 0.984 . S
H1781 N1768 0.985 . S
C1782 C1783 1.363 . S
C1782 C1788 1.379 . S
C1782 N1790 1.356 . S
C1783 C1782 1.363 . S
C1783 C1789 1.363 . S
C1784 C1785 1.363 . S
C1784 C1789 1.379 . S
C1784 N1791 1.356 . S
C1785 C1784 1.363 . S
C1785 C1788 1.363 . S
N1786 C1788 1.356 . S
N1786 H1798 0.984 . S
N1786 H1799 0.985 . S
N1787 C1789 1.356 . S
N1787 H1792 0.984 . S
N1787 H1793 0.985 . S
C1788 C1782 1.379 . S
C1788 C1785 1.363 . S
C1788 N1786 1.356 . S
C1789 C1783 1.363 . S
C1789 C1784 1.379 . S
C1789 N1787 1.356 . S
N1790 C1782 1.356 . S
N1790 H1796 0.984 . S
N1790 H1797 0.984 . S
N1791 C1784 1.356 . S
N1791 H1794 0.984 . S
N1791 H1795 0.985 . S
H1792 N1787 0.984 . S
H1793 N1787 0.985 . S
H1794 N1791 0.984 . S
H1795 N1791 0.985 . S
H1796 N1790 0.984 . S
H1797 N1790 0.984 . S
H1798 N1786 0.984 . S
H1799 N1786 0.985 . S
C1800 C1801 1.363 . S
C1800 C1806 1.379 . S
C1800 N1808 1.356 . S
C1801 C1800 1.363 . S
C1801 C1807 1.363 . S
C1802 C1803 1.363 . S
C1802 C1807 1.379 . S
C1802 N1809 1.356 . S
C1803 C1802 1.363 . S
C1803 C1806 1.363 . S
N1804 C1806 1.356 . S
N1804 H1816 0.984 . S
N1804 H1817 0.985 . S
N1805 C1807 1.356 . S
N1805 H1810 0.984 . S
N1805 H1811 0.985 . S
C1806 C1800 1.379 . S
C1806 C1803 1.363 . S
C1806 N1804 1.356 . S
C1807 C1801 1.363 . S
C1807 C1802 1.379 . S
C1807 N1805 1.356 . S
N1808 C1800 1.356 . S
N1808 H1814 0.984 . S
N1808 H1815 0.984 . S
N1809 C1802 1.356 . S
N1809 H1812 0.984 . S
N1809 H1813 0.985 . S
H1810 N1805 0.984 . S
H1811 N1805 0.985 . S
H1812 N1809 0.984 . S
H1813 N1809 0.985 . S
H1814 N1808 0.984 . S
H1815 N1808 0.984 . S
H1816 N1804 0.984 . S
H1817 N1804 0.985 . S
C1818 C1819 1.363 . S
C1818 C1824 1.379 . S
C1818 N1826 1.356 . S
C1819 C1818 1.363 . S
C1819 C1825 1.363 . S
C1820 C1821 1.363 . S
C1820 C1825 1.379 . S
C1820 N1827 1.356 . S
C1821 C1820 1.363 . S
C1821 C1824 1.363 . S
N1822 C1824 1.356 . S
N1822 H1834 0.984 . S
N1822 H1835 0.985 . S
N1823 C1825 1.356 . S
N1823 H1828 0.984 . S
N1823 H1829 0.985 . S
C1824 C1818 1.379 . S
C1824 C1821 1.363 . S
C1824 N1822 1.356 . S
C1825 C1819 1.363 . S
C1825 C1820 1.379 . S
C1825 N1823 1.356 . S
N1826 C1818 1.356 . S
N1826 H1832 0.984 . S
N1826 H1833 0.984 . S
N1827 C1820 1.356 . S
N1827 H1830 0.984 . S
N1827 H1831 0.985 . S
H1828 N1823 0.984 . S
H1829 N1823 0.985 . S
H1830 N1827 0.984 . S
H1831 N1827 0.985 . S
H1832 N1826 0.984 . S
H1833 N1826 0.984 . S
H1834 N1822 0.984 . S
H1835 N1822 0.985 . S
C1836 C1837 1.363 . S
C1836 C1842 1.379 . S
C1836 N1844 1.356 . S
C1837 C1836 1.363 . S
C1837 C1843 1.363 . S
C1838 C1839 1.363 . S
C1838 C1843 1.379 . S
C1838 N1845 1.356 . S
C1839 C1838 1.363 . S
C1839 C1842 1.363 . S
N1840 C1842 1.356 . S
N1840 H1852 0.984 . S
N1840 H1853 0.985 . S
N1841 C1843 1.356 . S
N1841 H1846 0.984 . S
N1841 H1847 0.985 . S
C1842 C1836 1.379 . S
C1842 C1839 1.363 . S
C1842 N1840 1.356 . S
C1843 C1837 1.363 . S
C1843 C1838 1.379 . S
C1843 N1841 1.356 . S
N1844 C1836 1.356 . S
N1844 H1850 0.984 . S
N1844 H1851 0.984 . S
N1845 C1838 1.356 . S
N1845 H1848 0.984 . S
N1845 H1849 0.985 . S
H1846 N1841 0.984 . S
H1847 N1841 0.985 . S
H1848 N1845 0.984 . S
H1849 N1845 0.985 . S
H1850 N1844 0.984 . S
H1851 N1844 0.984 . S
H1852 N1840 0.984 . S
H1853 N1840 0.985 . S
C1854 C1855 1.363 1_455 S
C1854 C1860 1.379 . S
C1854 N1862 1.356 . S
C1855 C1854 1.363 1_655 S
C1855 C1861 1.363 . S
C1856 C1857 1.363 . S
C1856 C1861 1.379 . S
C1856 N1863 1.356 . S
C1857 C1856 1.363 . S
C1857 C1860 1.363 1_655 S
N1858 C1860 1.356 . S
N1858 H1870 0.984 . S
N1858 H1871 0.985 . S
N1859 C1861 1.356 . S
N1859 H1864 0.984 . S
N1859 H1865 0.985 . S
C1860 C1854 1.379 . S
C1860 C1857 1.363 1_455 S
C1860 N1858 1.356 . S
C1861 C1855 1.363 . S
C1861 C1856 1.379 . S
C1861 N1859 1.356 . S
N1862 C1854 1.356 . S
N1862 H1868 0.984 . S
N1862 H1869 0.984 . S
N1863 C1856 1.356 . S
N1863 H1866 0.984 . S
N1863 H1867 0.985 . S
H1864 N1859 0.984 . S
H1865 N1859 0.985 . S
H1866 N1863 0.984 . S
H1867 N1863 0.985 . S
H1868 N1862 0.984 . S
H1869 N1862 0.984 . S
H1870 N1858 0.984 . S
H1871 N1858 0.985 . S
C793 C17 1.398 . S
C795 C677 1.398 . S
C811 C578 1.398 . S
C813 C50 1.398 . S
C829 C611 1.398 . S
C831 C83 1.398 . S
C847 C644 1.398 . S
C849 C116 1.398 . S
C865 C149 1.398 . S
C867 C776 1.398 . S
C883 C710 1.398 . S
C885 C182 1.398 . S
C901 C743 1.398 . S
C903 C215 1.398 . S
C919 C545 1.398 . S
C921 C248 1.398 . S
C937 C281 1.398 . S
C939 C512 1.398 . S
C955 C413 1.398 . S
C957 C314 1.398 . S
C973 C347 1.398 . S
C975 C446 1.398 . S
C991 C479 1.398 . S
C993 C380 1.398 . S
C1009 N632 0.853 . S
C1011 C28 1.073 . S
C1027 C61 1.073 . S
C1029 N665 0.853 . S
C1045 N566 0.853 . S
C1047 C94 1.073 . S
C1063 C127 1.073 . S
C1065 N599 0.853 . S
C1081 N698 0.853 . S
C1083 C160 1.073 . S
C1099 N731 0.853 . S
C1101 C193 1.073 . S
C1117 N533 0.853 . S
C1119 C226 1.073 1_655 S
C1135 C259 1.073 . S
C1137 N764 0.853 . S
C1153 C292 1.073 . S
C1155 N71 0.853 . S
C1171 C325 1.073 . S
C1173 N104 0.853 . S
C1189 C358 1.073 1_565 S
C1191 N5 0.853 . S
C1207 N38 0.853 . S
C1209 C391 1.073 . S
C1225 C424 1.073 . S
C1227 N203 0.853 . S
C1243 N236 0.853 . S
C1245 C457 1.073 . S
C1261 N137 0.853 . S
C1263 C490 1.073 . S
C1279 N170 0.853 . S
C1281 C523 1.073 . S
C1297 N401 0.853 . S
C1299 C556 1.073 . S
C1315 N269 0.853 . S
C1317 C589 1.073 1_556 S
C1333 C622 1.073 . S
C1335 N302 0.853 . S
C1351 C655 1.073 . S
C1353 N335 0.853 . S
C1369 N368 0.853 . S
C1371 C688 1.073 . S
C1387 C721 1.073 . S
C1389 N467 0.853 . S
C1405 N500 0.853 . S
C1407 C754 1.073 . S
C1423 C787 1.073 . S
C1425 N434 0.853 . S
C1441 N14 1.335 . S
C1443 N740 1.335 . S
C1459 N542 1.335 . S
C1461 N47 1.335 . S
C1477 N80 1.335 . S
C1479 N773 1.335 . S
C1495 N707 1.335 . S
C1497 N113 1.335 . S
C1513 N146 1.335 . S
C1515 N608 1.335 . S
C1531 N641 1.335 . S
C1533 N179 1.335 . S
C1549 N212 1.335 1_455 S
C1551 N674 1.335 . S
C1567 N575 1.335 1_554 S
C1569 N245 1.335 . S
C1585 N443 1.335 . S
C1587 N278 1.335 . S
C1603 N476 1.335 . S
C1605 N311 1.335 . S
C1621 N344 1.335 1_545 S
C1623 N509 1.335 . S
C1639 N377 1.335 . S
C1641 N410 1.335 . S
C1657 C503 1.911 . S
C1659 C8 1.911 . S
C1675 C41 1.911 . S
C1677 C404 1.908 1_556 S
C1693 C437 1.911 . S
C1695 C74 1.908 1_565 S
C1711 C470 1.911 . S
C1713 C107 1.911 . S
C1729 C140 1.911 . S
C1731 C305 1.911 . S
C1747 C338 1.911 . S
C1749 C173 1.911 . S
C1765 C206 1.911 . S
C1767 C371 1.911 . S
C1783 C272 1.911 . S
C1785 C239 1.911 . S
C1801 C668 1.911 . S
C1803 C536 1.911 . S
C1819 C767 1.911 . S
C1821 C569 1.911 . S
C1837 C701 1.911 . S
C1839 C602 1.911 . S
C1855 C734 1.911 . S
C1857 C635 1.908 1_655 S
