# Generated by pormake.
# Topology uoh, (4)-cn, num edge types: 1
# Building blocks:
#     Node 0, Type 0, BuildingBlock: CEKHIL_clean_sbu_0, # of connection points: 4
#     Node 1, Type 0, BuildingBlock: CEKHIL_clean_sbu_0, # of connection points: 4
#     Node 2, Type 0, BuildingBlock: CEKHIL_clean_sbu_0, # of connection points: 4
#     Node 3, Type 0, BuildingBlock: CEKHIL_clean_sbu_0, # of connection points: 4
#     Node 4, Type 0, BuildingBlock: CEKHIL_clean_sbu_0, # of connection points: 4
#     Node 5, Type 0, BuildingBlock: CEKHIL_clean_sbu_0, # of connection points: 4
#     Node 6, Type 0, BuildingBlock: CEKHIL_clean_sbu_0, # of connection points: 4
#     Node 7, Type 0, BuildingBlock: CEKHIL_clean_sbu_0, # of connection points: 4
#     Node 8, Type 0, BuildingBlock: CEKHIL_clean_sbu_0, # of connection points: 4
#     Node 9, Type 0, BuildingBlock: CEKHIL_clean_sbu_0, # of connection points: 4
#     Node 10, Type 0, BuildingBlock: CEKHIL_clean_sbu_0, # of connection points: 4
#     Node 11, Type 0, BuildingBlock: CEKHIL_clean_sbu_0, # of connection points: 4
#     Node 12, Type 0, BuildingBlock: CEKHIL_clean_sbu_0, # of connection points: 4
#     Node 13, Type 0, BuildingBlock: CEKHIL_clean_sbu_0, # of connection points: 4
#     Node 14, Type 0, BuildingBlock: CEKHIL_clean_sbu_0, # of connection points: 4
#     Node 15, Type 0, BuildingBlock: CEKHIL_clean_sbu_0, # of connection points: 4
#     Node 16, Type 0, BuildingBlock: CEKHIL_clean_sbu_0, # of connection points: 4
#     Node 17, Type 0, BuildingBlock: CEKHIL_clean_sbu_0, # of connection points: 4
#     Node 18, Type 0, BuildingBlock: CEKHIL_clean_sbu_0, # of connection points: 4
#     Node 19, Type 0, BuildingBlock: CEKHIL_clean_sbu_0, # of connection points: 4
#     Node 20, Type 0, BuildingBlock: CEKHIL_clean_sbu_0, # of connection points: 4
#     Node 21, Type 0, BuildingBlock: CEKHIL_clean_sbu_0, # of connection points: 4
#     Node 22, Type 0, BuildingBlock: CEKHIL_clean_sbu_0, # of connection points: 4
#     Node 23, Type 0, BuildingBlock: CEKHIL_clean_sbu_0, # of connection points: 4
#     Node 24, Type 0, BuildingBlock: CEKHIL_clean_sbu_0, # of connection points: 4
#     Node 25, Type 0, BuildingBlock: CEKHIL_clean_sbu_0, # of connection points: 4
#     Node 26, Type 0, BuildingBlock: CEKHIL_clean_sbu_0, # of connection points: 4
#     Node 27, Type 0, BuildingBlock: CEKHIL_clean_sbu_0, # of connection points: 4
#     Node 28, Type 0, BuildingBlock: CEKHIL_clean_sbu_0, # of connection points: 4
#     Node 29, Type 0, BuildingBlock: CEKHIL_clean_sbu_0, # of connection points: 4
#     Node 30, Type 0, BuildingBlock: CEKHIL_clean_sbu_0, # of connection points: 4
#     Node 31, Type 0, BuildingBlock: CEKHIL_clean_sbu_0, # of connection points: 4
#     Node 32, Type 0, BuildingBlock: CEKHIL_clean_sbu_0, # of connection points: 4
#     Node 33, Type 0, BuildingBlock: CEKHIL_clean_sbu_0, # of connection points: 4
#     Node 34, Type 0, BuildingBlock: CEKHIL_clean_sbu_0, # of connection points: 4
#     Node 35, Type 0, BuildingBlock: CEKHIL_clean_sbu_0, # of connection points: 4
#     Edge 36, Type (0, 0), BuildingBlock: XIVTED_clean_linker_0, # of connection points: 2
#     Edge 37, Type (0, 0), BuildingBlock: XIVTED_clean_linker_0, # of connection points: 2
#     Edge 38, Type (0, 0), BuildingBlock: XIVTED_clean_linker_0, # of connection points: 2
#     Edge 39, Type (0, 0), BuildingBlock: XIVTED_clean_linker_0, # of connection points: 2
#     Edge 40, Type (0, 0), BuildingBlock: XIVTED_clean_linker_0, # of connection points: 2
#     Edge 41, Type (0, 0), BuildingBlock: XIVTED_clean_linker_0, # of connection points: 2
#     Edge 42, Type (0, 0), BuildingBlock: XIVTED_clean_linker_0, # of connection points: 2
#     Edge 43, Type (0, 0), BuildingBlock: XIVTED_clean_linker_0, # of connection points: 2
#     Edge 44, Type (0, 0), BuildingBlock: XIVTED_clean_linker_0, # of connection points: 2
#     Edge 45, Type (0, 0), BuildingBlock: XIVTED_clean_linker_0, # of connection points: 2
#     Edge 46, Type (0, 0), BuildingBlock: XIVTED_clean_linker_0, # of connection points: 2
#     Edge 47, Type (0, 0), BuildingBlock: XIVTED_clean_linker_0, # of connection points: 2
#     Edge 48, Type (0, 0), BuildingBlock: XIVTED_clean_linker_0, # of connection points: 2
#     Edge 49, Type (0, 0), BuildingBlock: XIVTED_clean_linker_0, # of connection points: 2
#     Edge 50, Type (0, 0), BuildingBlock: XIVTED_clean_linker_0, # of connection points: 2
#     Edge 51, Type (0, 0), BuildingBlock: XIVTED_clean_linker_0, # of connection points: 2
#     Edge 52, Type (0, 0), BuildingBlock: XIVTED_clean_linker_0, # of connection points: 2
#     Edge 53, Type (0, 0), BuildingBlock: XIVTED_clean_linker_0, # of connection points: 2
#     Edge 54, Type (0, 0), BuildingBlock: XIVTED_clean_linker_0, # of connection points: 2
#     Edge 55, Type (0, 0), BuildingBlock: XIVTED_clean_linker_0, # of connection points: 2
#     Edge 56, Type (0, 0), BuildingBlock: XIVTED_clean_linker_0, # of connection points: 2
#     Edge 57, Type (0, 0), BuildingBlock: XIVTED_clean_linker_0, # of connection points: 2
#     Edge 58, Type (0, 0), BuildingBlock: XIVTED_clean_linker_0, # of connection points: 2
#     Edge 59, Type (0, 0), BuildingBlock: XIVTED_clean_linker_0, # of connection points: 2
#     Edge 60, Type (0, 0), BuildingBlock: XIVTED_clean_linker_0, # of connection points: 2
#     Edge 61, Type (0, 0), BuildingBlock: XIVTED_clean_linker_0, # of connection points: 2
#     Edge 62, Type (0, 0), BuildingBlock: XIVTED_clean_linker_0, # of connection points: 2
#     Edge 63, Type (0, 0), BuildingBlock: XIVTED_clean_linker_0, # of connection points: 2
#     Edge 64, Type (0, 0), BuildingBlock: XIVTED_clean_linker_0, # of connection points: 2
#     Edge 65, Type (0, 0), BuildingBlock: XIVTED_clean_linker_0, # of connection points: 2
#     Edge 66, Type (0, 0), BuildingBlock: XIVTED_clean_linker_0, # of connection points: 2
#     Edge 67, Type (0, 0), BuildingBlock: XIVTED_clean_linker_0, # of connection points: 2
#     Edge 68, Type (0, 0), BuildingBlock: XIVTED_clean_linker_0, # of connection points: 2
#     Edge 69, Type (0, 0), BuildingBlock: XIVTED_clean_linker_0, # of connection points: 2
#     Edge 70, Type (0, 0), BuildingBlock: XIVTED_clean_linker_0, # of connection points: 2
#     Edge 71, Type (0, 0), BuildingBlock: XIVTED_clean_linker_0, # of connection points: 2
#     Edge 72, Type (0, 0), BuildingBlock: XIVTED_clean_linker_0, # of connection points: 2
#     Edge 73, Type (0, 0), BuildingBlock: XIVTED_clean_linker_0, # of connection points: 2
#     Edge 74, Type (0, 0), BuildingBlock: XIVTED_clean_linker_0, # of connection points: 2
#     Edge 75, Type (0, 0), BuildingBlock: XIVTED_clean_linker_0, # of connection points: 2
#     Edge 76, Type (0, 0), BuildingBlock: XIVTED_clean_linker_0, # of connection points: 2
#     Edge 77, Type (0, 0), BuildingBlock: XIVTED_clean_linker_0, # of connection points: 2
#     Edge 78, Type (0, 0), BuildingBlock: XIVTED_clean_linker_0, # of connection points: 2
#     Edge 79, Type (0, 0), BuildingBlock: XIVTED_clean_linker_0, # of connection points: 2
#     Edge 80, Type (0, 0), BuildingBlock: XIVTED_clean_linker_0, # of connection points: 2
#     Edge 81, Type (0, 0), BuildingBlock: XIVTED_clean_linker_0, # of connection points: 2
#     Edge 82, Type (0, 0), BuildingBlock: XIVTED_clean_linker_0, # of connection points: 2
#     Edge 83, Type (0, 0), BuildingBlock: XIVTED_clean_linker_0, # of connection points: 2
#     Edge 84, Type (0, 0), BuildingBlock: XIVTED_clean_linker_0, # of connection points: 2
#     Edge 85, Type (0, 0), BuildingBlock: XIVTED_clean_linker_0, # of connection points: 2
#     Edge 86, Type (0, 0), BuildingBlock: XIVTED_clean_linker_0, # of connection points: 2
#     Edge 87, Type (0, 0), BuildingBlock: XIVTED_clean_linker_0, # of connection points: 2
#     Edge 88, Type (0, 0), BuildingBlock: XIVTED_clean_linker_0, # of connection points: 2
#     Edge 89, Type (0, 0), BuildingBlock: XIVTED_clean_linker_0, # of connection points: 2
#     Edge 90, Type (0, 0), BuildingBlock: XIVTED_clean_linker_0, # of connection points: 2
#     Edge 91, Type (0, 0), BuildingBlock: XIVTED_clean_linker_0, # of connection points: 2
#     Edge 92, Type (0, 0), BuildingBlock: XIVTED_clean_linker_0, # of connection points: 2
#     Edge 93, Type (0, 0), BuildingBlock: XIVTED_clean_linker_0, # of connection points: 2
#     Edge 94, Type (0, 0), BuildingBlock: XIVTED_clean_linker_0, # of connection points: 2
#     Edge 95, Type (0, 0), BuildingBlock: XIVTED_clean_linker_0, # of connection points: 2
#     Edge 96, Type (0, 0), BuildingBlock: XIVTED_clean_linker_0, # of connection points: 2
#     Edge 97, Type (0, 0), BuildingBlock: XIVTED_clean_linker_0, # of connection points: 2
#     Edge 98, Type (0, 0), BuildingBlock: XIVTED_clean_linker_0, # of connection points: 2
#     Edge 99, Type (0, 0), BuildingBlock: XIVTED_clean_linker_0, # of connection points: 2
#     Edge 100, Type (0, 0), BuildingBlock: XIVTED_clean_linker_0, # of connection points: 2
#     Edge 101, Type (0, 0), BuildingBlock: XIVTED_clean_linker_0, # of connection points: 2
#     Edge 102, Type (0, 0), BuildingBlock: XIVTED_clean_linker_0, # of connection points: 2
#     Edge 103, Type (0, 0), BuildingBlock: XIVTED_clean_linker_0, # of connection points: 2
#     Edge 104, Type (0, 0), BuildingBlock: XIVTED_clean_linker_0, # of connection points: 2
#     Edge 105, Type (0, 0), BuildingBlock: XIVTED_clean_linker_0, # of connection points: 2
#     Edge 106, Type (0, 0), BuildingBlock: XIVTED_clean_linker_0, # of connection points: 2
#     Edge 107, Type (0, 0), BuildingBlock: XIVTED_clean_linker_0, # of connection points: 2
# Relax obj value: 0.090
# Max RMSD: 0.139
# Mean RMSD: 0.139
data_MOF--net-uoh--node1-CEKHIL_clean_sbu_0--edge1-XIVTED_clean_linker_0
_symmetry_space_group_name_H-M    P1
_symmetry_Int_Tables_number       1
_symmetry_cell_setting            triclinic
loop_
_symmetry_equiv_pos_as_xyz
'x, y, z'
_cell_length_a     88.605995
_cell_length_b     88.573796
_cell_length_c     27.657894
_cell_angle_alpha  90.119693
_cell_angle_beta   89.94073
_cell_angle_gamma 120.11844
loop_
_atom_site_label
_atom_site_type_symbol
_atom_site_fract_x
_atom_site_fract_y
_atom_site_fract_z
_atom_type_partial_charge
Co0 Co 0.23799 0.14787 0.15726 0.0
O1 O 0.21705 0.1477 0.1752 0.0
O2 O 0.24369 0.17013 0.18626 0.0
C3 C 0.22883 0.1367 0.08285 0.0
O4 O 0.26251 0.15261 0.14183 0.0
Co5 Co 0.23643 0.11262 0.13625 0.0
O6 O 0.26088 0.12787 0.11462 0.0
C7 C 0.23478 0.1228 0.23654 0.0
C8 C 0.22689 0.1636 0.19008 0.0
C9 C 0.26957 0.14417 0.12397 0.0
O10 O 0.23885 0.13817 0.22218 0.0
O11 O 0.23142 0.11015 0.20774 0.0
O12 O 0.23527 0.15326 0.09085 0.0
O13 O 0.2267 0.12726 0.1206 0.0
Co14 Co 0.85096 0.09024 0.1619 0.0
O15 O 0.84887 0.06784 0.17124 0.0
O16 O 0.82995 0.07529 0.19836 0.0
C17 C 0.85739 0.09235 0.08269 0.0
O18 O 0.84873 0.11204 0.15827 0.0
Co19 Co 0.88647 0.12205 0.13134 0.0
O20 O 0.87286 0.13413 0.12481 0.0
C21 C 0.88105 0.10985 0.23241 0.0
C22 C 0.83452 0.06349 0.19433 0.0
C23 C 0.85751 0.12777 0.14202 0.0
O24 O 0.86493 0.09896 0.22316 0.0
O25 O 0.89208 0.11934 0.20003 0.0
O26 O 0.84128 0.08358 0.09708 0.0
O27 O 0.86905 0.09818 0.11644 0.0
Co28 Co 0.91105 0.76361 0.15869 0.0
O29 O 0.93211 0.78473 0.17381 0.0
O30 O 0.92789 0.75826 0.18741 0.0
C31 C 0.90836 0.77175 0.08372 0.0
O32 O 0.89078 0.73897 0.1465 0.0
Co33 Co 0.87747 0.76558 0.13951 0.0
O34 O 0.86745 0.74064 0.12168 0.0
C35 C 0.89018 0.76799 0.23896 0.0
C36 C 0.93826 0.77511 0.18939 0.0
C37 C 0.87492 0.73186 0.13107 0.0
O38 O 0.90127 0.76373 0.22409 0.0
O39 O 0.8807 0.77119 0.21067 0.0
O40 O 0.91842 0.76528 0.09177 0.0
O41 O 0.90156 0.77454 0.12159 0.0
Co42 Co 0.14773 0.23672 0.32387 0.0
O43 O 0.14734 0.21538 0.30918 0.0
O44 O 0.16914 0.24174 0.29123 0.0
C45 C 0.13865 0.22968 0.40087 0.0
O46 O 0.15287 0.26167 0.33463 0.0
Co47 Co 0.11356 0.23642 0.35095 0.0
O48 O 0.1295 0.2612 0.36808 0.0
C49 C 0.12114 0.23334 0.24843 0.0
C50 C 0.16278 0.22492 0.29085 0.0
C51 C 0.1453 0.26942 0.3537 0.0
O52 O 0.13616 0.23559 0.26031 0.0
O53 O 0.10984 0.23219 0.27939 0.0
O54 O 0.15497 0.23597 0.38975 0.0
O55 O 0.12818 0.22651 0.36489 0.0
Co56 Co 0.7604 0.91024 0.3178 0.0
O57 O 0.78074 0.93292 0.31981 0.0
O58 O 0.75592 0.92699 0.28474 0.0
C59 C 0.76113 0.9043 0.39658 0.0
O60 O 0.73657 0.88816 0.31072 0.0
Co61 Co 0.76443 0.87804 0.33991 0.0
O62 O 0.73859 0.86545 0.33931 0.0
C63 C 0.77478 0.89487 0.24438 0.0
C64 C 0.77187 0.93854 0.29652 0.0
C65 C 0.72969 0.87193 0.32237 0.0
O66 O 0.76859 0.90482 0.25561 0.0
O67 O 0.77564 0.88433 0.27436 0.0
O68 O 0.75418 0.91347 0.38294 0.0
O69 O 0.76881 0.90047 0.363 0.0
Co70 Co 0.09092 0.85581 0.3193 0.0
O71 O 0.06959 0.85521 0.30373 0.0
O72 O 0.07519 0.83408 0.28653 0.0
C73 C 0.09229 0.8648 0.39606 0.0
O74 O 0.11137 0.85179 0.33124 0.0
Co75 Co 0.12394 0.89086 0.34665 0.0
O76 O 0.13357 0.87577 0.36513 0.0
C77 C 0.11378 0.88276 0.24404 0.0
C78 C 0.06426 0.83984 0.28558 0.0
C79 C 0.1266 0.85997 0.35101 0.0
O80 O 0.10136 0.86751 0.25596 0.0
O81 O 0.12358 0.89435 0.27496 0.0
O82 O 0.08276 0.8484 0.38491 0.0
O83 O 0.09945 0.87537 0.36016 0.0
Co84 Co 0.7636 0.85294 0.82369 0.0
O85 O 0.78429 0.8523 0.80716 0.0
O86 O 0.75733 0.83086 0.79288 0.0
C87 C 0.77189 0.86303 0.89946 0.0
O88 O 0.73914 0.84889 0.83654 0.0
Co89 Co 0.76568 0.88823 0.84825 0.0
O90 O 0.74091 0.8733 0.867 0.0
C91 C 0.76728 0.87899 0.74632 0.0
C92 C 0.77404 0.83675 0.79027 0.0
C93 C 0.73207 0.85729 0.85474 0.0
O94 O 0.76424 0.86379 0.7593 0.0
O95 O 0.76949 0.89095 0.77643 0.0
O96 O 0.76507 0.8465 0.89002 0.0
O97 O 0.77488 0.87304 0.86251 0.0
Co98 Co 0.1498 0.91034 0.81341 0.0
O99 O 0.15215 0.93296 0.80761 0.0
O100 O 0.1706 0.92555 0.77636 0.0
C101 C 0.14398 0.90721 0.89306 0.0
O102 O 0.15145 0.88816 0.8131 0.0
Co103 Co 0.11393 0.87882 0.84307 0.0
O104 O 0.1271 0.8662 0.84621 0.0
C105 C 0.11906 0.89259 0.74389 0.0
C106 C 0.16619 0.93738 0.78281 0.0
C107 C 0.14232 0.8723 0.82823 0.0
O108 O 0.13537 0.9027 0.75275 0.0
O109 O 0.10803 0.88299 0.77613 0.0
O110 O 0.16 0.91597 0.8779 0.0
O111 O 0.13211 0.90214 0.86003 0.0
Co112 Co 0.08949 0.23857 0.81896 0.0
O113 O 0.06708 0.21777 0.81775 0.0
O114 O 0.07291 0.24275 0.78394 0.0
C115 C 0.09436 0.23732 0.89835 0.0
O116 O 0.11116 0.26283 0.81464 0.0
Co117 Co 0.12219 0.23588 0.845 0.0
O118 O 0.13397 0.2617 0.84635 0.0
C119 C 0.10704 0.22596 0.74726 0.0
C120 C 0.06151 0.22657 0.79378 0.0
C121 C 0.12724 0.27022 0.82835 0.0
O122 O 0.09629 0.23127 0.75746 0.0
O123 O 0.1175 0.22549 0.77834 0.0
O124 O 0.08497 0.24394 0.88387 0.0
O125 O 0.09907 0.23029 0.86506 0.0
Co126 Co 0.85202 0.76172 0.66481 0.0
O127 O 0.84939 0.78185 0.66365 0.0
O128 O 0.83029 0.75657 0.69634 0.0
C129 C 0.85987 0.76347 0.58696 0.0
O130 O 0.85035 0.73794 0.67053 0.0
Co131 Co 0.88844 0.76598 0.64544 0.0
O132 O 0.87519 0.74012 0.64226 0.0
C133 C 0.88101 0.77614 0.74012 0.0
C134 C 0.83469 0.7726 0.68595 0.0
C135 C 0.85962 0.73107 0.65798 0.0
O136 O 0.86489 0.76956 0.72816 0.0
O137 O 0.89273 0.77729 0.71078 0.0
O138 O 0.84348 0.75592 0.59865 0.0
O139 O 0.87087 0.77094 0.62173 0.0
Co140 Co 0.23681 0.09095 0.66492 0.0
O141 O 0.21715 0.06781 0.66147 0.0
O142 O 0.24209 0.07473 0.69756 0.0
C143 C 0.23618 0.09726 0.58659 0.0
O144 O 0.26011 0.11341 0.67379 0.0
Co145 Co 0.23217 0.12272 0.64394 0.0
O146 O 0.25805 0.1361 0.64561 0.0
C147 C 0.22124 0.10507 0.73833 0.0
C148 C 0.22641 0.06271 0.68507 0.0
C149 C 0.26695 0.12969 0.66287 0.0
O150 O 0.22774 0.0954 0.72698 0.0
O151 O 0.22048 0.11577 0.70876 0.0
O152 O 0.2439 0.08877 0.59983 0.0
O153 O 0.22791 0.10037 0.62 0.0
Co154 Co 0.90926 0.14681 0.65931 0.0
O155 O 0.93079 0.14743 0.67269 0.0
O156 O 0.925 0.16816 0.69368 0.0
C157 C 0.90752 0.13878 0.58146 0.0
O158 O 0.88854 0.15066 0.65038 0.0
Co159 Co 0.87637 0.1118 0.63061 0.0
O160 O 0.86617 0.12676 0.61669 0.0
C161 C 0.88742 0.11856 0.73275 0.0
C162 C 0.93599 0.16246 0.69296 0.0
C163 C 0.87309 0.14244 0.63186 0.0
O164 O 0.89926 0.13422 0.72193 0.0
O165 O 0.87772 0.10724 0.70115 0.0
O166 O 0.91702 0.15507 0.59385 0.0
O167 O 0.9007 0.12781 0.61663 0.0
Co168 Co 0.90848 0.4861 0.49525 0.0
O169 O 0.88742 0.48656 0.50631 0.0
O170 O 0.9136 0.50701 0.53127 0.0
C171 C 0.90353 0.47905 0.41647 0.0
O172 O 0.93313 0.48987 0.48908 0.0
Co173 Co 0.9061 0.45111 0.46558 0.0
O174 O 0.93148 0.46612 0.45411 0.0
C175 C 0.89977 0.45673 0.56683 0.0
C176 C 0.8969 0.50122 0.52874 0.0
C177 C 0.94031 0.48164 0.47052 0.0
O178 O 0.90458 0.4727 0.557 0.0
O179 O 0.89828 0.44562 0.53473 0.0
O180 O 0.91025 0.49519 0.43018 0.0
O181 O 0.89862 0.46767 0.45078 0.0
Co182 Co 0.51907 0.42436 0.49571 0.0
O183 O 0.51778 0.40227 0.50302 0.0
O184 O 0.49842 0.40866 0.53273 0.0
C185 C 0.52508 0.42708 0.4161 0.0
O186 O 0.51619 0.44584 0.4941 0.0
Co187 Co 0.5542 0.45674 0.46492 0.0
O188 O 0.53985 0.46805 0.45911 0.0
C189 C 0.54932 0.44434 0.56572 0.0
C190 C 0.50347 0.39726 0.52701 0.0
C191 C 0.52465 0.46154 0.47743 0.0
O192 O 0.5333 0.43306 0.55658 0.0
O193 O 0.56013 0.45417 0.53337 0.0
O194 O 0.50908 0.41788 0.4311 0.0
O195 O 0.53689 0.43293 0.44939 0.0
Co196 Co 0.57547 0.0973 0.49399 0.0
O197 O 0.59652 0.11817 0.51152 0.0
O198 O 0.59132 0.09139 0.52592 0.0
C199 C 0.57446 0.10575 0.41801 0.0
O200 O 0.55534 0.07272 0.47975 0.0
Co201 Co 0.54227 0.09884 0.46669 0.0
O202 O 0.53307 0.07433 0.44625 0.0
C203 C 0.55191 0.10008 0.56954 0.0
C204 C 0.60202 0.10815 0.52843 0.0
C205 C 0.54018 0.06558 0.45952 0.0
O206 O 0.56455 0.09762 0.55754 0.0
O207 O 0.54224 0.102 0.53867 0.0
O208 O 0.5841 0.09901 0.42849 0.0
O209 O 0.5669 0.10851 0.45419 0.0
Co210 Co 0.81271 0.56956 0.65595 0.0
O211 O 0.81418 0.54896 0.64577 0.0
O212 O 0.8346 0.57556 0.62433 0.0
C213 C 0.80384 0.56346 0.73304 0.0
O214 O 0.81582 0.59394 0.66255 0.0
Co215 Co 0.77699 0.56653 0.68046 0.0
O216 O 0.79135 0.5919 0.69337 0.0
C217 C 0.78481 0.56117 0.58015 0.0
C218 C 0.82947 0.55901 0.62726 0.0
C219 C 0.80714 0.60092 0.67939 0.0
O220 O 0.80065 0.56607 0.59197 0.0
O221 O 0.7731 0.55916 0.61082 0.0
O222 O 0.82031 0.57076 0.72245 0.0
O223 O 0.79328 0.55888 0.6968 0.0
Co224 Co 0.42809 0.24447 0.6584 0.0
O225 O 0.44914 0.26552 0.64266 0.0
O226 O 0.4226 0.26137 0.6311 0.0
C227 C 0.43682 0.24167 0.73256 0.0
O228 O 0.40347 0.22445 0.6718 0.0
Co229 Co 0.42947 0.21055 0.67624 0.0
O230 O 0.40486 0.20099 0.69668 0.0
C231 C 0.43191 0.22359 0.57714 0.0
C232 C 0.43942 0.27175 0.62848 0.0
C233 C 0.39626 0.2087 0.68805 0.0
O234 O 0.42767 0.23467 0.59241 0.0
O235 O 0.43508 0.21402 0.60515 0.0
O236 O 0.43038 0.25181 0.72558 0.0
O237 O 0.43916 0.23477 0.69414 0.0
Co238 Co 0.75587 0.18634 0.65131 0.0
O239 O 0.73383 0.18533 0.64784 0.0
O240 O 0.73927 0.16569 0.61543 0.0
C241 C 0.75993 0.1924 0.73077 0.0
O242 O 0.77723 0.18322 0.64939 0.0
Co243 Co 0.78876 0.2215 0.67931 0.0
O244 O 0.79997 0.20701 0.68249 0.0
C245 C 0.77458 0.21654 0.58055 0.0
C246 C 0.72815 0.17091 0.62382 0.0
C247 C 0.79316 0.19171 0.66446 0.0
O248 O 0.76359 0.20049 0.59019 0.0
O249 O 0.78487 0.22742 0.61215 0.0
O250 O 0.75041 0.1764 0.71601 0.0
O251 O 0.76528 0.20421 0.69754 0.0
Co252 Co 0.42896 0.18804 0.14955 0.0
O253 O 0.44866 0.1847 0.15364 0.0
O254 O 0.42381 0.16642 0.11737 0.0
C255 C 0.42932 0.1953 0.22763 0.0
O256 O 0.40568 0.18712 0.13992 0.0
Co257 Co 0.43386 0.22471 0.16912 0.0
O258 O 0.408 0.21224 0.16646 0.0
C259 C 0.44495 0.21751 0.07563 0.0
C260 C 0.43952 0.17029 0.12983 0.0
C261 C 0.39899 0.19677 0.14984 0.0
O262 O 0.43815 0.20134 0.08728 0.0
O263 O 0.44588 0.22918 0.10486 0.0
O264 O 0.42172 0.179 0.21479 0.0
O265 O 0.43773 0.20655 0.19407 0.0
Co266 Co 0.81351 0.24475 0.15555 0.0
O267 O 0.81348 0.26599 0.14333 0.0
O268 O 0.83473 0.26108 0.12177 0.0
C269 C 0.80536 0.24267 0.23336 0.0
O270 O 0.81799 0.2244 0.16343 0.0
Co271 Co 0.77894 0.21131 0.18341 0.0
O272 O 0.79442 0.20172 0.19719 0.0
C273 C 0.78583 0.22237 0.08127 0.0
C274 C 0.82864 0.27174 0.12345 0.0
C275 C 0.81006 0.20892 0.18167 0.0
O276 O 0.80116 0.23478 0.09263 0.0
O277 O 0.77462 0.21227 0.11247 0.0
O278 O 0.82161 0.2524 0.22115 0.0
O279 O 0.79444 0.23569 0.19809 0.0
Co280 Co 0.75656 0.571 0.15291 0.0
O281 O 0.73425 0.55018 0.15016 0.0
O282 O 0.73989 0.5756 0.11994 0.0
C283 C 0.76121 0.56821 0.23133 0.0
O284 O 0.7782 0.59538 0.15071 0.0
Co285 Co 0.78946 0.56825 0.17686 0.0
O286 O 0.80119 0.59404 0.18012 0.0
C287 C 0.77376 0.55887 0.07955 0.0
C288 C 0.72857 0.55926 0.12821 0.0
C289 C 0.79434 0.60268 0.16386 0.0
O290 O 0.76344 0.56465 0.0902 0.0
O291 O 0.78399 0.55782 0.1103 0.0
O292 O 0.75191 0.57517 0.21897 0.0
O293 O 0.76615 0.56201 0.19646 0.0
Co294 Co 0.51707 0.09504 0.00066 0.0
O295 O 0.51525 0.11567 0.00441 0.0
O296 O 0.49619 0.09017 0.03631 0.0
C297 C 0.52336 0.097 0.92134 0.0
O298 O 0.51477 0.0709 0.0025 0.0
Co299 Co 0.55287 0.09867 0.97427 0.0
O300 O 0.53916 0.07283 0.97122 0.0
C301 C 0.54734 0.1082 0.07197 0.0
C302 C 0.50099 0.10648 0.02874 0.0
C303 C 0.52375 0.0639 0.98818 0.0
O304 O 0.5311 0.102 0.06213 0.0
O305 O 0.55852 0.10935 0.04063 0.0
O306 O 0.50729 0.09019 0.93568 0.0
O307 O 0.53505 0.10393 0.95481 0.0
Co308 Co 0.90203 0.42466 -0.00531 0.0
O309 O 0.88068 0.40315 0.0046 0.0
O310 O 0.90661 0.40847 0.02998 0.0
C311 C 0.89753 0.42715 0.91585 0.0
O312 O 0.92691 0.44521 0.98987 0.0
Co313 Co 0.90112 0.45803 0.96542 0.0
O314 O 0.92656 0.46813 0.95617 0.0
C315 C 0.89527 0.44657 0.06726 0.0
C316 C 0.88993 0.39759 0.02626 0.0
C317 C 0.93476 0.46087 0.97289 0.0
O318 O 0.89841 0.43426 0.05675 0.0
O319 O 0.89463 0.45675 0.03555 0.0
O320 O 0.90383 0.4174 0.9296 0.0
O321 O 0.89274 0.43378 0.95011 0.0
Co322 Co 0.57665 0.48233 -0.00785 0.0
O323 O 0.59803 0.48282 0.00667 0.0
O324 O 0.59233 0.50371 0.02639 0.0
C325 C 0.57517 0.47409 0.91458 0.0
O326 O 0.55614 0.48639 0.98183 0.0
Co327 Co 0.54368 0.44745 0.96329 0.0
O328 O 0.53386 0.46259 0.94751 0.0
C329 C 0.55429 0.45436 0.06574 0.0
C330 C 0.60324 0.49793 0.02648 0.0
C331 C 0.54084 0.47831 0.96244 0.0
O332 O 0.56632 0.46992 0.05482 0.0
O333 O 0.54461 0.44302 0.03416 0.0
O334 O 0.58472 0.49039 0.92677 0.0
O335 O 0.56813 0.46321 0.94986 0.0
Co336 Co 0.57203 0.81396 0.83263 0.0
O337 O 0.55172 0.81624 0.83605 0.0
O338 O 0.57728 0.83497 0.86847 0.0
C339 C 0.56985 0.8077 0.7533 0.0
O340 O 0.5959 0.81576 0.83501 0.0
Co341 Co 0.56793 0.77812 0.80576 0.0
O342 O 0.59379 0.79138 0.80312 0.0
C343 C 0.55898 0.78376 0.90414 0.0
C344 C 0.56103 0.83039 0.86075 0.0
C345 C 0.60279 0.80669 0.82075 0.0
O346 O 0.56481 0.79992 0.89405 0.0
O347 O 0.55792 0.77259 0.87285 0.0
O348 O 0.57728 0.82381 0.76778 0.0
O349 O 0.56265 0.79596 0.7865 0.0
Co350 Co 0.18551 0.7549 0.82971 0.0
O351 O 0.1857 0.73394 0.84527 0.0
O352 O 0.16415 0.7388 0.86335 0.0
C353 C 0.19415 0.75637 0.7525 0.0
O354 O 0.1808 0.77495 0.81807 0.0
Co355 Co 0.22009 0.7883 0.8015 0.0
O356 O 0.20439 0.7972 0.78302 0.0
C357 C 0.21259 0.77834 0.90428 0.0
C358 C 0.17042 0.72829 0.86427 0.0
C359 C 0.18866 0.79009 0.79774 0.0
O360 O 0.19741 0.76569 0.89272 0.0
O361 O 0.22396 0.78821 0.87308 0.0
O362 O 0.17787 0.74647 0.76429 0.0
O363 O 0.20484 0.76376 0.78806 0.0
Co364 Co 0.24436 0.43074 0.81825 0.0
O365 O 0.26587 0.45149 0.83357 0.0
O366 O 0.25985 0.42465 0.85146 0.0
C367 C 0.24297 0.43805 0.74125 0.0
O368 O 0.22364 0.40624 0.80719 0.0
Co369 Co 0.21157 0.43301 0.79081 0.0
O370 O 0.20125 0.40793 0.7749 0.0
C371 C 0.22206 0.43584 0.89321 0.0
C372 C 0.27088 0.44135 0.85258 0.0
C373 C 0.20818 0.39909 0.78887 0.0
O374 O 0.23414 0.43251 0.88147 0.0
O375 O 0.21238 0.43768 0.8622 0.0
O376 O 0.25235 0.43108 0.75255 0.0
O377 O 0.236 0.44173 0.77708 0.0
Co378 Co 0.48036 0.90278 0.9873 0.0
O379 O 0.48142 0.88198 0.97685 0.0
O380 O 0.50246 0.90851 0.9572 0.0
C381 C 0.4707 0.89625 0.06376 0.0
O382 O 0.4838 0.9273 -0.00549 0.0
Co383 Co 0.44461 0.90007 0.0093 0.0
O384 O 0.45912 0.92531 0.02358 0.0
C385 C 0.45344 0.89554 0.90926 0.0
C386 C 0.49692 0.89184 0.95938 0.0
C387 C 0.47505 0.9343 0.01077 0.0
O388 O 0.46905 0.89997 0.92238 0.0
O389 O 0.44147 0.89349 0.93904 0.0
O390 O 0.48724 0.90337 0.05434 0.0
O391 O 0.46051 0.89208 0.02675 0.0
Co392 Co 0.09628 0.57507 -0.00792 0.0
O393 O 0.11741 0.59667 0.98101 0.0
O394 O 0.09106 0.59172 0.9618 0.0
C395 C 0.10265 0.57184 0.06886 0.0
O396 O 0.0716 0.55445 -0.00069 0.0
Co397 Co 0.09811 0.54158 0.01311 0.0
O398 O 0.07269 0.53093 0.02507 0.0
C399 C 0.10269 0.55485 0.91358 0.0
C400 C 0.10781 0.60256 0.96341 0.0
C401 C 0.06414 0.53843 0.01335 0.0
O402 O 0.0983 0.56601 0.92709 0.0
O403 O 0.1051 0.5451 0.94294 0.0
O404 O 0.09604 0.58165 0.05908 0.0
O405 O 0.10658 0.56555 0.03187 0.0
Co406 Co 0.42325 0.52098 0.98675 0.0
O407 O 0.40068 0.51889 0.9869 0.0
O408 O 0.40678 0.50018 0.95132 0.0
C409 C 0.42839 0.52691 0.06601 0.0
O410 O 0.44512 0.51888 0.98102 0.0
Co411 Co 0.45577 0.55669 0.01303 0.0
O412 O 0.46786 0.54299 0.0128 0.0
C413 C 0.43993 0.55154 0.9164 0.0
C414 C 0.39523 0.50462 0.9623 0.0
C415 C 0.46122 0.52776 -0.0056 0.0
O416 O 0.42962 0.53531 0.92597 0.0
O417 O 0.45037 0.56253 0.94757 0.0
O418 O 0.41912 0.51087 0.05119 0.0
O419 O 0.43281 0.53875 0.03322 0.0
Co420 Co 0.09789 0.51683 0.48744 0.0
O421 O 0.11656 0.51177 0.4854 0.0
O422 O 0.09048 0.49531 0.45221 0.0
C423 C 0.1007 0.52372 0.56636 0.0
O424 O 0.07516 0.5173 0.48443 0.0
Co425 Co 0.10458 0.55373 0.51282 0.0
O426 O 0.07877 0.54211 0.51732 0.0
C427 C 0.11209 0.54653 0.4141 0.0
C428 C 0.10598 0.49783 0.46138 0.0
C429 C 0.06907 0.52698 0.49937 0.0
O430 O 0.10603 0.53041 0.4253 0.0
O431 O 0.11369 0.5581 0.44474 0.0
O432 O 0.09192 0.50749 0.55277 0.0
O433 O 0.1086 0.53506 0.53261 0.0
Co434 Co 0.47965 0.57704 0.49389 0.0
O435 O 0.47992 0.59829 0.47963 0.0
O436 O 0.5014 0.59328 0.46197 0.0
C437 C 0.47032 0.57523 0.57044 0.0
O438 O 0.48392 0.55666 0.50434 0.0
Co439 Co 0.44478 0.54362 0.52031 0.0
O440 O 0.46004 0.53404 0.53713 0.0
C441 C 0.45296 0.55442 0.41802 0.0
C442 C 0.49537 0.604 0.46173 0.0
C443 C 0.47583 0.54122 0.52285 0.0
O444 O 0.46816 0.5669 0.4301 0.0
O445 O 0.44142 0.54446 0.44874 0.0
O446 O 0.48677 0.58485 0.56004 0.0
O447 O 0.45997 0.56811 0.53412 0.0
Co448 Co 0.42397 0.905 0.48198 0.0
O449 O 0.40134 0.88455 0.48127 0.0
O450 O 0.40749 0.90985 0.44898 0.0
C451 C 0.42913 0.90303 0.56056 0.0
O452 O 0.44598 0.92902 0.47757 0.0
Co453 Co 0.45637 0.90135 0.505 0.0
O454 O 0.46883 0.9272 0.50588 0.0
C455 C 0.43985 0.89127 0.4089 0.0
C456 C 0.3959 0.89371 0.45867 0.0
C457 C 0.4622 0.93604 0.48956 0.0
O458 O 0.43002 0.89763 0.41956 0.0
O459 O 0.45012 0.89016 0.43938 0.0
O460 O 0.42006 0.91018 0.54764 0.0
O461 O 0.43348 0.89607 0.52623 0.0
Co462 Co 0.1868 0.42854 0.32419 0.0
O463 O 0.18286 0.44799 0.32702 0.0
O464 O 0.16604 0.42229 0.36165 0.0
C465 C 0.19243 0.43055 0.24444 0.0
O466 O 0.18605 0.40519 0.3273 0.0
Co467 Co 0.22258 0.43303 0.29448 0.0
O468 O 0.21002 0.40715 0.29346 0.0
C469 C 0.21765 0.44229 0.39355 0.0
C470 C 0.16904 0.43793 0.35219 0.0
C471 C 0.19502 0.39826 0.31279 0.0
O472 O 0.20144 0.43664 0.3845 0.0
O473 O 0.22848 0.44304 0.3616 0.0
O474 O 0.17643 0.4227 0.25997 0.0
O475 O 0.20438 0.43806 0.27704 0.0
Co476 Co 0.56977 0.75597 0.32764 0.0
O477 O 0.5492 0.73476 0.34512 0.0
O478 O 0.57612 0.74046 0.36005 0.0
C479 C 0.56147 0.75683 0.25134 0.0
O480 O 0.59397 0.77655 0.31339 0.0
Co481 Co 0.56625 0.78824 0.30209 0.0
O482 O 0.59118 0.79869 0.2837 0.0
C483 C 0.56449 0.77779 0.40358 0.0
C484 C 0.55939 0.72958 0.36263 0.0
C485 C 0.60048 0.79195 0.29505 0.0
O486 O 0.56928 0.76685 0.39107 0.0
O487 O 0.56078 0.78635 0.3733 0.0
O488 O 0.56839 0.74737 0.26216 0.0
O489 O 0.5582 0.764 0.28756 0.0
Co490 Co 0.24254 0.8154 0.33435 0.0
O491 O 0.26485 0.81704 0.33946 0.0
O492 O 0.25844 0.83623 0.37055 0.0
C493 C 0.2389 0.80924 0.25478 0.0
O494 O 0.22084 0.81788 0.33496 0.0
Co495 Co 0.21028 0.77983 0.30599 0.0
O496 O 0.19843 0.79373 0.30226 0.0
C497 C 0.2241 0.78515 0.40525 0.0
C498 C 0.2699 0.83134 0.36365 0.0
C499 C 0.20494 0.80906 0.31989 0.0
O500 O 0.23478 0.80129 0.39561 0.0
O501 O 0.21412 0.77411 0.37347 0.0
O502 O 0.24813 0.82529 0.26953 0.0
O503 O 0.23368 0.79748 0.28813 0.0
H504 H 0.20853 0.12481 0.77815 0.0
H505 H 0.222 0.1045 0.0511 0.0
H506 H 0.22317 0.08653 0.8155 0.0
H507 H 0.22453 0.15206 0.00333 0.0
H508 H 0.21542 0.09339 0.96772 0.0
H509 H 0.20647 0.12985 0.86385 0.0
C510 C 0.21105 0.11724 0.80426 0.0
C511 C 0.21644 0.10551 0.78943 0.0
C512 C 0.21729 0.10619 0.97575 0.0
C513 C 0.2142 0.11137 0.88779 0.0
C514 C 0.22105 0.11253 0.02315 0.0
C515 C 0.22404 0.1293 0.03381 0.0
C516 C 0.2163 0.11665 0.9392 0.0
C517 C 0.22256 0.13915 -0.00351 0.0
C518 C 0.20993 0.1202 0.85325 0.0
C519 C 0.21926 0.09592 0.82518 0.0
N520 N 0.21883 0.1327 0.95085 0.0
N521 N 0.21834 0.09924 0.87279 0.0
H522 H 0.90812 0.13604 0.81041 0.0
H523 H 0.83595 0.07772 0.005 0.0
H524 H 0.85922 0.09019 0.77303 0.0
H525 H 0.88944 0.11406 0.04322 0.0
H526 H 0.84388 0.08311 0.91957 0.0
H527 H 0.90131 0.12902 0.89592 0.0
C528 C 0.896 0.12445 0.82012 0.0
C529 C 0.88418 0.11374 0.78443 0.0
C530 C 0.8539 0.08985 0.94663 0.0
C531 C 0.87627 0.10574 0.8822 0.0
C532 C 0.84936 0.08685 -0.00463 0.0
C533 C 0.86205 0.09551 0.03112 0.0
C534 C 0.87121 0.10175 0.9336 0.0
C535 C 0.87925 0.10713 0.01672 0.0
C536 C 0.89215 0.12044 0.86895 0.0
C537 C 0.86873 0.09883 0.79922 0.0
N538 N 0.88332 0.11 0.96899 0.0
N539 N 0.86516 0.09537 0.84698 0.0
H540 H 0.92865 0.77707 0.00506 0.0
H541 H 0.85995 0.77321 0.81703 0.0
H542 H 0.88175 0.77639 0.05084 0.0
H543 H 0.91345 0.7897 0.78052 0.0
H544 H 0.86769 0.77594 0.90275 0.0
H545 H 0.92337 0.78279 0.92258 0.0
C546 C 0.91722 0.77816 -0.00235 0.0
C547 C 0.90549 0.77605 0.03452 0.0
C548 C 0.87776 0.77923 0.87587 0.0
C549 C 0.89927 0.7825 0.94008 0.0
C550 C 0.87337 0.77767 0.82689 0.0
C551 C 0.88598 0.78084 0.79138 0.0
C552 C 0.89481 0.78381 0.8893 0.0
C553 C 0.90319 0.78677 0.80646 0.0
C554 C 0.91427 0.78155 0.95061 0.0
C555 C 0.89104 0.77784 0.02319 0.0
N556 N 0.90702 0.78779 0.85422 0.0
N557 N 0.88817 0.78071 0.97667 0.0
H558 H 0.15676 0.22952 0.48003 0.0
H559 H 0.08691 0.22424 0.66947 0.0
H560 H 0.10679 0.22228 0.43656 0.0
H561 H 0.13118 0.2188 0.70814 0.0
H562 H 0.09299 0.2223 0.58415 0.0
H563 H 0.14706 0.22495 0.56397 0.0
C564 C 0.14372 0.22695 0.48821 0.0
C565 C 0.13261 0.22644 0.45143 0.0
C566 C 0.10123 0.22131 0.61139 0.0
C567 C 0.1214 0.22122 0.5475 0.0
C568 C 0.09776 0.22241 0.66015 0.0
C569 C 0.10871 0.22196 0.69617 0.0
C570 C 0.11583 0.21994 0.59857 0.0
C571 C 0.12248 0.21941 0.6818 0.0
C572 C 0.13815 0.22424 0.53612 0.0
C573 C 0.11579 0.22288 0.46396 0.0
N574 N 0.12578 0.21874 0.63416 0.0
N575 N 0.11074 0.22057 0.5111 0.0
H576 H 0.75103 0.91575 0.4747 0.0
H577 H 0.76836 0.85989 0.6692 0.0
H578 H 0.77153 0.88239 0.43452 0.0
H579 H 0.76585 0.90614 0.70426 0.0
H580 H 0.76652 0.86541 0.5832 0.0
H581 H 0.75277 0.90939 0.5596 0.0
C582 C 0.75581 0.907 0.48376 0.0
C583 C 0.76123 0.89965 0.44763 0.0
C584 C 0.76647 0.87436 0.60985 0.0
C585 C 0.76326 0.89232 0.5447 0.0
C586 C 0.7675 0.87123 0.6589 0.0
C587 C 0.76726 0.88258 0.69409 0.0
C588 C 0.76494 0.88877 0.59604 0.0
C589 C 0.76614 0.89706 0.67855 0.0
C590 C 0.75689 0.90345 0.53223 0.0
C591 C 0.76731 0.88839 0.4614 0.0
N592 N 0.76491 0.89967 0.63075 0.0
N593 N 0.76815 0.88504 0.50898 0.0
H594 H 0.08732 0.86862 0.70609 0.0
H595 H 0.11593 0.89705 0.43179 0.0
H596 H 0.13715 0.91268 0.66595 0.0
H597 H 0.07456 0.84616 0.47522 0.0
H598 H 0.12083 0.90596 0.51701 0.0
H599 H 0.07926 0.86359 0.62084 0.0
C600 C 0.0965 0.87738 0.67949 0.0
C601 C 0.11307 0.89092 0.69323 0.0
C602 C 0.11062 0.89289 0.50773 0.0
C603 C 0.10391 0.88515 0.59555 0.0
C604 C 0.10783 0.8878 0.45923 0.0
C605 C 0.09497 0.87078 0.44665 0.0
C606 C 0.10035 0.8809 0.54361 0.0
C607 C 0.08475 0.85934 0.48346 0.0
C608 C 0.0919 0.87445 0.63079 0.0
C609 C 0.12434 0.90191 0.65701 0.0
N610 N 0.0877 0.86459 0.5303 0.0
N611 N 0.11961 0.8987 0.60975 0.0
H612 H 0.77252 0.91299 0.16662 0.0
H613 H 0.7756 0.84712 0.9787 0.0
H614 H 0.78707 0.87472 0.2049 0.0
H615 H 0.77659 0.89419 0.93345 0.0
H616 H 0.78037 0.85762 0.06199 0.0
H617 H 0.77503 0.90743 0.08119 0.0
C618 C 0.77651 0.90363 0.15721 0.0
C619 C 0.77927 0.89408 0.19317 0.0
C620 C 0.77968 0.86575 0.03388 0.0
C621 C 0.78196 0.88756 0.09547 0.0
C622 C 0.77685 0.8597 0.98638 0.0
C623 C 0.77554 0.86974 0.94936 0.0
C624 C 0.78089 0.88183 0.04461 0.0
C625 C 0.77747 0.88604 0.96111 0.0
C626 C 0.77793 0.90046 0.10837 0.0
C627 C 0.78454 0.88222 0.17861 0.0
N628 N 0.77982 0.8915 0.00792 0.0
N629 N 0.78545 0.87912 0.13095 0.0
H630 H 0.09306 0.86496 0.16675 0.0
H631 H 0.16612 0.92014 0.9701 0.0
H632 H 0.14312 0.90952 0.20267 0.0
H633 H 0.11197 0.88603 0.9334 0.0
H634 H 0.15854 0.91452 0.05575 0.0
H635 H 0.10029 0.87085 0.08101 0.0
C636 C 0.10553 0.87602 0.15666 0.0
C637 C 0.1175 0.88677 0.19203 0.0
C638 C 0.14832 0.90829 0.02895 0.0
C639 C 0.12588 0.89344 0.09399 0.0
C640 C 0.15264 0.91142 0.98009 0.0
C641 C 0.13964 0.90355 0.94471 0.0
C642 C 0.13089 0.89706 0.04245 0.0
C643 C 0.12238 0.89239 0.9596 0.0
C644 C 0.10963 0.87938 0.1077 0.0
C645 C 0.13345 0.90093 0.17673 0.0
N646 N 0.11851 0.88944 0.00741 0.0
N647 N 0.13722 0.90379 0.12887 0.0
H648 H 0.08223 0.24707 0.97599 0.0
H649 H 0.1387 0.23027 0.1706 0.0
H650 H 0.11645 0.22745 0.93742 0.0
H651 H 0.09444 0.236 0.20752 0.0
H652 H 0.13256 0.23149 0.08493 0.0
H653 H 0.08869 0.2458 0.06122 0.0
C654 C 0.09117 0.24256 0.98548 0.0
C655 C 0.09878 0.2373 0.94968 0.0
C656 C 0.12417 0.23239 0.11186 0.0
C657 C 0.10622 0.23581 0.04707 0.0
C658 C 0.12766 0.23171 0.16077 0.0
C659 C 0.11706 0.23301 0.19642 0.0
C660 C 0.11011 0.2346 0.09849 0.0
C661 C 0.10293 0.23485 0.18143 0.0
C662 C 0.09479 0.24177 0.03413 0.0
C663 C 0.11026 0.23157 0.96397 0.0
N664 N 0.09994 0.23569 0.13365 0.0
N665 N 0.11366 0.23099 0.01163 0.0
H666 H 0.88686 0.74342 0.30316 0.0
H667 H 0.88799 0.79018 0.54303 0.0
H668 H 0.88659 0.79186 0.2929 0.0
H669 H 0.84467 0.73837 0.51765 0.0
H670 H 0.89645 0.79178 0.45756 0.0
H671 H 0.88003 0.74209 0.38982 0.0
C672 C 0.88559 0.75387 0.31939 0.0
C673 C 0.88724 0.76777 0.29126 0.0
C674 C 0.88518 0.78007 0.47107 0.0
C675 C 0.8799 0.76648 0.38942 0.0
C676 C 0.88041 0.7791 0.51951 0.0
C677 C 0.86559 0.76415 0.53686 0.0
C678 C 0.87538 0.76577 0.44067 0.0
C679 C 0.8561 0.75015 0.50523 0.0
C680 C 0.88162 0.75304 0.36843 0.0
C681 C 0.88532 0.78092 0.3136 0.0
N682 N 0.86126 0.75121 0.45848 0.0
N683 N 0.88191 0.78007 0.36176 0.0
H684 H 0.20909 0.09603 0.53736 0.0
H685 H 0.25856 0.14438 0.30269 0.0
H686 H 0.2628 0.10935 0.52149 0.0
H687 H 0.21134 0.09453 0.28862 0.0
H688 H 0.25922 0.13874 0.38954 0.0
H689 H 0.20847 0.10255 0.45115 0.0
C690 C 0.22078 0.10053 0.51577 0.0
C691 C 0.23601 0.10214 0.53604 0.0
C692 C 0.24871 0.12915 0.36724 0.0
C693 C 0.23547 0.10992 0.4389 0.0
C694 C 0.24826 0.13235 0.31806 0.0
C695 C 0.23488 0.11985 0.28881 0.0
C696 C 0.23538 0.11365 0.38724 0.0
C697 C 0.2219 0.10441 0.31014 0.0
C698 C 0.22038 0.10412 0.46687 0.0
C699 C 0.25081 0.10788 0.50679 0.0
N700 N 0.22234 0.1018 0.35841 0.0
N701 N 0.25025 0.11177 0.45954 0.0
H702 H 0.88467 0.10649 0.54487 0.0
H703 H 0.91167 0.13592 0.27043 0.0
H704 H 0.92378 0.15853 0.5022 0.0
H705 H 0.86346 0.08986 0.31096 0.0
H706 H 0.91935 0.1419 0.35577 0.0
H707 H 0.87959 0.09798 0.45949 0.0
C708 C 0.89221 0.1161 0.51754 0.0
C709 C 0.90455 0.13328 0.53046 0.0
C710 C 0.90715 0.13042 0.34591 0.0
C711 C 0.89894 0.12362 0.43317 0.0
C712 C 0.90278 0.12694 0.29717 0.0
C713 C 0.88679 0.11246 0.28345 0.0
C714 C 0.89551 0.11931 0.38122 0.0
C715 C 0.87583 0.10128 0.31985 0.0
C716 C 0.88931 0.11124 0.46892 0.0
C717 C 0.91404 0.14519 0.49372 0.0
N718 N 0.88035 0.10499 0.36711 0.0
N719 N 0.91103 0.14014 0.4467 0.0
H720 H 0.891 0.42566 0.14511 0.0
H721 H 0.90949 0.49996 0.33814 0.0
H722 H 0.89644 0.47546 0.10729 0.0
H723 H 0.8926 0.44672 0.37799 0.0
H724 H 0.90559 0.49138 0.25306 0.0
H725 H 0.89186 0.43309 0.23053 0.0
C726 C 0.89222 0.43809 0.15471 0.0
C727 C 0.89374 0.44999 0.11888 0.0
C728 C 0.90267 0.48155 0.2804 0.0
C729 C 0.89494 0.45863 0.21662 0.0
C730 C 0.90497 0.48647 0.32894 0.0
C731 C 0.9014 0.47403 0.36506 0.0
C732 C 0.89689 0.46412 0.2679 0.0
C733 C 0.89552 0.45672 0.3512 0.0
C734 C 0.89271 0.44232 0.20351 0.0
C735 C 0.89521 0.46586 0.13356 0.0
N736 N 0.89352 0.45227 0.30364 0.0
N737 N 0.89594 0.46979 0.18129 0.0
H738 H 0.57503 0.47171 0.14343 0.0
H739 H 0.50325 0.41289 0.33885 0.0
H740 H 0.52576 0.42632 0.10612 0.0
H741 H 0.55685 0.44923 0.37594 0.0
H742 H 0.51079 0.41877 0.25326 0.0
H743 H 0.56826 0.46465 0.22892 0.0
C744 C 0.56283 0.46022 0.15315 0.0
C745 C 0.55092 0.44962 0.11748 0.0
C746 C 0.52091 0.42542 0.28012 0.0
C747 C 0.54305 0.44158 0.21528 0.0
C748 C 0.5166 0.42213 0.32895 0.0
C749 C 0.52945 0.43063 0.36444 0.0
C750 C 0.53816 0.43743 0.26675 0.0
C751 C 0.54656 0.44242 0.34967 0.0
C752 C 0.55899 0.45619 0.20197 0.0
C753 C 0.53535 0.43486 0.13229 0.0
N754 N 0.55041 0.44554 0.30189 0.0
N755 N 0.53181 0.43135 0.18007 0.0
H756 H 0.59415 0.10796 0.34014 0.0
H757 H 0.5286 0.10985 0.14895 0.0
H758 H 0.54975 0.11266 0.38187 0.0
H759 H 0.57903 0.11677 0.11133 0.0
H760 H 0.53676 0.1129 0.23424 0.0
H761 H 0.58947 0.11285 0.25618 0.0
C762 C 0.58342 0.11007 0.33156 0.0
C763 C 0.57217 0.10968 0.36778 0.0
C764 C 0.54611 0.11398 0.20725 0.0
C765 C 0.56666 0.1152 0.2717 0.0
C766 C 0.54146 0.11221 0.1585 0.0
C767 C 0.55302 0.11271 0.12285 0.0
C768 C 0.56235 0.11608 0.22045 0.0
C769 C 0.56959 0.11605 0.13745 0.0
C770 C 0.58081 0.11296 0.28365 0.0
C771 C 0.55863 0.11273 0.35486 0.0
N772 N 0.57365 0.11735 0.18514 0.0
N773 N 0.5561 0.11515 0.30767 0.0
H774 H 0.7715 0.55502 0.76652 0.0
H775 H 0.79615 0.54932 0.0406 0.0
H776 H 0.822 0.56454 0.81331 0.0
H777 H 0.75485 0.5595 0.00166 0.0
H778 H 0.80168 0.54755 0.95514 0.0
H779 H 0.76172 0.5502 0.851 0.0
C780 C 0.78049 0.55603 0.79456 0.0
C781 C 0.79762 0.56034 0.78322 0.0
C782 C 0.79132 0.55003 0.96539 0.0
C783 C 0.78649 0.55459 0.87907 0.0
C784 C 0.78808 0.55097 0.01419 0.0
C785 C 0.77523 0.55491 0.02843 0.0
C786 C 0.78161 0.55296 0.93053 0.0
C787 C 0.76506 0.55669 -0.00762 0.0
C788 C 0.77491 0.55327 0.84257 0.0
C789 C 0.80874 0.56143 0.82067 0.0
N790 N 0.76859 0.55587 0.94495 0.0
N791 N 0.80298 0.55856 0.86699 0.0
H792 H 0.44288 0.21568 0.76283 0.0
H793 H 0.45925 0.25012 0.03573 0.0
H794 H 0.44209 0.26148 0.81254 0.0
H795 H 0.44173 0.19641 -0.00153 0.0
H796 H 0.46129 0.25711 0.95001 0.0
H797 H 0.44974 0.21094 0.84563 0.0
C798 C 0.44428 0.22478 0.79107 0.0
C799 C 0.44169 0.23884 0.78118 0.0
C800 C 0.4572 0.24383 0.96064 0.0
C801 C 0.4498 0.23373 0.87501 0.0
C802 C 0.45609 0.23983 0.00963 0.0
C803 C 0.44987 0.22254 0.0245 0.0
C804 C 0.45208 0.2305 0.92616 0.0
C805 C 0.44629 0.20986 0.98876 0.0
C806 C 0.4482 0.22209 0.83812 0.0
C807 C 0.44373 0.25033 0.81882 0.0
N808 N 0.44719 0.21404 0.94115 0.0
N809 N 0.44764 0.2475 0.86406 0.0
H810 H 0.74678 0.17046 0.80791 0.0
H811 H 0.80299 0.24345 0.00407 0.0
H812 H 0.78177 0.22437 0.77072 0.0
H813 H 0.75869 0.19326 0.04013 0.0
H814 H 0.79666 0.23639 0.91835 0.0
H815 H 0.75256 0.17813 0.89342 0.0
C816 C 0.75573 0.18391 0.81777 0.0
C817 C 0.76381 0.19682 0.7823 0.0
C818 C 0.78828 0.22699 0.94508 0.0
C819 C 0.77045 0.20569 0.87993 0.0
C820 C 0.79187 0.23099 -0.00598 0.0
C821 C 0.78136 0.21891 0.02941 0.0
C822 C 0.7742 0.21072 0.93142 0.0
C823 C 0.76711 0.203 0.01419 0.0
C824 C 0.75895 0.18829 0.86657 0.0
C825 C 0.77526 0.21404 0.79701 0.0
N826 N 0.76403 0.19932 0.96633 0.0
N827 N 0.77828 0.21798 0.8448 0.0
H828 H 0.45663 0.22112 0.52464 0.0
H829 H 0.40274 0.17993 0.29271 0.0
H830 H 0.40754 0.2199 0.51122 0.0
H831 H 0.45549 0.22254 0.27622 0.0
H832 H 0.40333 0.18834 0.37794 0.0
H833 H 0.45601 0.21561 0.43715 0.0
C834 C 0.44577 0.21972 0.50317 0.0
C835 C 0.43216 0.22103 0.52469 0.0
C836 C 0.41469 0.19585 0.35536 0.0
C837 C 0.43116 0.21427 0.42606 0.0
C838 C 0.41439 0.19105 0.30712 0.0
C839 C 0.42909 0.2006 0.27782 0.0
C840 C 0.42998 0.20985 0.37445 0.0
C841 C 0.44389 0.21493 0.29783 0.0
C842 C 0.44547 0.21666 0.45357 0.0
C843 C 0.41834 0.21911 0.49561 0.0
N844 N 0.4441 0.21897 0.34533 0.0
N845 N 0.41802 0.21552 0.44769 0.0
H846 H 0.7535 0.19907 0.50336 0.0
H847 H 0.82483 0.26017 0.31183 0.0
H848 H 0.80045 0.24694 0.54123 0.0
H849 H 0.77322 0.21965 0.27045 0.0
H850 H 0.8157 0.25569 0.39626 0.0
H851 H 0.75968 0.2068 0.41802 0.0
C852 C 0.76499 0.2113 0.49383 0.0
C853 C 0.77661 0.22225 0.52957 0.0
C854 C 0.80631 0.24784 0.36876 0.0
C855 C 0.78383 0.23103 0.43199 0.0
C856 C 0.81156 0.25031 0.32058 0.0
C857 C 0.79979 0.24014 0.28426 0.0
C858 C 0.78923 0.23495 0.38079 0.0
C859 C 0.78271 0.22769 0.29749 0.0
C860 C 0.7685 0.2157 0.44508 0.0
C861 C 0.79118 0.23801 0.51502 0.0
N862 N 0.77796 0.22532 0.34483 0.0
N863 N 0.7945 0.24181 0.46734 0.0
H864 H 0.75404 0.55486 0.53948 0.0
H865 H 0.78497 0.55995 0.26634 0.0
H866 H 0.80496 0.5629 0.50238 0.0
H867 H 0.74555 0.57203 0.31139 0.0
H868 H 0.79 0.55593 0.3513 0.0
H869 H 0.74788 0.55517 0.45383 0.0
C870 C 0.76389 0.55653 0.5134 0.0
C871 C 0.78017 0.55913 0.5283 0.0
C872 C 0.78028 0.55947 0.34244 0.0
C873 C 0.77314 0.55955 0.43017 0.0
C874 C 0.77741 0.56178 0.29414 0.0
C875 C 0.7649 0.56642 0.28208 0.0
C876 C 0.77035 0.56156 0.37859 0.0
C877 C 0.75542 0.56859 0.31927 0.0
C878 C 0.76037 0.5568 0.46451 0.0
C879 C 0.79231 0.56106 0.49263 0.0
N880 N 0.75828 0.56606 0.36592 0.0
N881 N 0.78859 0.56133 0.44511 0.0
H882 H 0.52228 0.09695 0.61001 0.0
H883 H 0.55544 0.10685 0.88267 0.0
H884 H 0.57222 0.10273 0.64768 0.0
H885 H 0.5016 0.08714 0.8435 0.0
H886 H 0.56268 0.10755 0.79688 0.0
H887 H 0.51538 0.09578 0.69574 0.0
C888 C 0.53186 0.09809 0.63627 0.0
C889 C 0.54789 0.09999 0.62153 0.0
C890 C 0.54928 0.10302 0.80714 0.0
C891 C 0.54001 0.09862 0.71992 0.0
C892 C 0.54515 0.10264 0.85602 0.0
C893 C 0.52791 0.09697 0.87009 0.0
C894 C 0.53609 0.09788 0.7722 0.0
C895 C 0.51506 0.09162 0.83417 0.0
C896 C 0.52785 0.09731 0.68525 0.0
C897 C 0.5597 0.10123 0.65734 0.0
N898 N 0.51943 0.0923 0.78686 0.0
N899 N 0.55555 0.10059 0.70492 0.0
H900 H 0.89627 0.47411 0.64428 0.0
H901 H 0.90202 0.41091 0.83813 0.0
H902 H 0.89642 0.42685 0.60631 0.0
H903 H 0.88971 0.45076 0.87661 0.0
H904 H 0.90027 0.41683 0.75284 0.0
H905 H 0.89383 0.46595 0.72944 0.0
C906 C 0.8957 0.46198 0.65377 0.0
C907 C 0.89673 0.45123 0.61805 0.0
C908 C 0.89786 0.42424 0.77989 0.0
C909 C 0.89405 0.44191 0.71549 0.0
C910 C 0.89895 0.42092 0.82858 0.0
C911 C 0.89613 0.43046 0.86438 0.0
C912 C 0.89413 0.43733 0.76688 0.0
C913 C 0.89204 0.44316 0.85005 0.0
C914 C 0.89426 0.45731 0.70241 0.0
C915 C 0.89574 0.43558 0.63253 0.0
N916 N 0.89129 0.44634 0.80231 0.0
N917 N 0.89463 0.43148 0.68016 0.0
H918 H 0.57955 0.47105 0.60366 0.0
H919 H 0.55271 0.44163 0.87825 0.0
H920 H 0.53225 0.42403 0.64431 0.0
H921 H 0.59137 0.49379 0.83519 0.0
H922 H 0.54789 0.43295 0.79298 0.0
H923 H 0.58712 0.47728 0.68896 0.0
C924 C 0.57085 0.4619 0.63041 0.0
C925 C 0.55512 0.44708 0.61673 0.0
C926 C 0.55746 0.44627 0.80229 0.0
C927 C 0.56372 0.45422 0.7145 0.0
C928 C 0.56021 0.45123 0.85086 0.0
C929 C 0.57235 0.46848 0.86364 0.0
C930 C 0.56702 0.45864 0.76645 0.0
C931 C 0.58178 0.48038 0.82683 0.0
C932 C 0.57515 0.46553 0.67915 0.0
C933 C 0.5444 0.43571 0.65316 0.0
N934 N 0.57891 0.47524 0.77986 0.0
N935 N 0.54885 0.43957 0.70042 0.0
H936 H 0.5951 0.82451 0.68542 0.0
H937 H 0.5397 0.78065 0.45519 0.0
H938 H 0.54325 0.78063 0.70518 0.0
H939 H 0.58969 0.78381 0.46893 0.0
H940 H 0.54075 0.78751 0.54206 0.0
H941 H 0.59363 0.81672 0.59934 0.0
C942 C 0.58342 0.81329 0.67149 0.0
C943 C 0.5693 0.8031 0.70204 0.0
C944 C 0.55142 0.78665 0.52576 0.0
C945 C 0.56738 0.79457 0.60448 0.0
C946 C 0.55086 0.78282 0.47654 0.0
C947 C 0.56458 0.78158 0.45537 0.0
C948 C 0.56607 0.78986 0.55307 0.0
C949 C 0.5788 0.7845 0.48427 0.0
C950 C 0.58262 0.80886 0.62275 0.0
C951 C 0.55443 0.78868 0.68259 0.0
N952 N 0.57931 0.78876 0.53167 0.0
N953 N 0.55374 0.78494 0.63468 0.0
H954 H 0.24453 0.80319 0.48302 0.0
H955 H 0.17529 0.73839 0.67374 0.0
H956 H 0.19914 0.75412 0.4441 0.0
H957 H 0.22589 0.78071 0.71564 0.0
H958 H 0.18426 0.74381 0.58923 0.0
H959 H 0.2387 0.79495 0.56817 0.0
C960 C 0.23345 0.79061 0.49226 0.0
C961 C 0.22218 0.77943 0.45626 0.0
C962 C 0.19347 0.75186 0.61685 0.0
C963 C 0.21537 0.77004 0.55369 0.0
C964 C 0.18832 0.74882 0.6651 0.0
C965 C 0.19982 0.75922 0.70162 0.0
C966 C 0.21018 0.76556 0.60491 0.0
C967 C 0.2166 0.77245 0.68848 0.0
C968 C 0.23014 0.78592 0.54092 0.0
C969 C 0.20813 0.76324 0.47048 0.0
N970 N 0.22124 0.77536 0.64106 0.0
N971 N 0.20501 0.75913 0.51808 0.0
H972 H 0.24883 0.4485 0.43141 0.0
H973 H 0.22041 0.44801 0.70611 0.0
H974 H 0.20004 0.44497 0.47186 0.0
H975 H 0.25989 0.43596 0.66147 0.0
H976 H 0.21596 0.4527 0.62123 0.0
H977 H 0.25646 0.45033 0.51671 0.0
C978 C 0.23982 0.44838 0.4581 0.0
C979 C 0.22363 0.44632 0.44434 0.0
C980 C 0.22563 0.44911 0.63015 0.0
C981 C 0.23231 0.4483 0.54216 0.0
C982 C 0.22818 0.44642 0.67847 0.0
C983 C 0.24041 0.44142 0.69065 0.0
C984 C 0.23552 0.44693 0.59399 0.0
C985 C 0.2502 0.43964 0.65356 0.0
C986 C 0.24416 0.44933 0.50684 0.0
C987 C 0.21256 0.44632 0.48075 0.0
N988 N 0.24752 0.44237 0.60687 0.0
N989 N 0.21704 0.44714 0.52805 0.0
H990 H 0.43843 0.88873 0.09581 0.0
H991 H 0.46051 0.87951 0.3701 0.0
H992 H 0.48769 0.89541 0.14442 0.0
H993 H 0.4215 0.89296 0.33102 0.0
H994 H 0.46581 0.8774 0.28461 0.0
H995 H 0.42798 0.88335 0.17975 0.0
C996 C 0.44699 0.88898 0.12412 0.0
C997 C 0.464 0.8927 0.1135 0.0
C998 C 0.45598 0.88065 0.29485 0.0
C999 C 0.45208 0.88627 0.20866 0.0
C1000 C 0.45287 0.88179 0.34366 0.0
C1001 C 0.44081 0.88682 0.35787 0.0
C1002 C 0.44694 0.88449 0.25996 0.0
C1003 C 0.43113 0.88933 0.32178 0.0
C1004 C 0.44102 0.8859 0.17181 0.0
C1005 C 0.47456 0.8928 0.15126 0.0
N1006 N 0.43455 0.88835 0.27435 0.0
N1007 N 0.46843 0.88963 0.19721 0.0
H1008 H 0.10303 0.58973 0.14916 0.0
H1009 H 0.11088 0.52648 0.33633 0.0
H1010 H 0.11054 0.54745 0.10236 0.0
H1011 H 0.12033 0.57792 0.37355 0.0
H1012 H 0.11101 0.5335 0.25073 0.0
H1013 H 0.10883 0.58494 0.23215 0.0
C1014 C 0.10588 0.5794 0.15641 0.0
C1015 C 0.1062 0.56889 0.11896 0.0
C1016 C 0.1133 0.54331 0.27771 0.0
C1017 C 0.11285 0.56331 0.21399 0.0
C1018 C 0.11325 0.53933 0.32661 0.0
C1019 C 0.11534 0.55153 0.3624 0.0
C1020 C 0.11524 0.55949 0.26461 0.0
C1021 C 0.11849 0.56801 0.34746 0.0
C1022 C 0.10932 0.57676 0.20377 0.0
C1023 C 0.11013 0.55581 0.13032 0.0
N1024 N 0.11808 0.57139 0.29981 0.0
N1025 N 0.11314 0.55325 0.17701 0.0
H1026 H 0.45072 0.55887 0.10521 0.0
H1027 H 0.42588 0.52534 0.37679 0.0
H1028 H 0.41626 0.50493 0.14322 0.0
H1029 H 0.47096 0.57498 0.34063 0.0
H1030 H 0.42034 0.51873 0.29089 0.0
H1031 H 0.45685 0.56598 0.19117 0.0
C1032 C 0.4445 0.54853 0.13165 0.0
C1033 C 0.43294 0.5313 0.11724 0.0
C1034 C 0.43144 0.53108 0.30177 0.0
C1035 C 0.43973 0.53934 0.21524 0.0
C1036 C 0.43455 0.53492 0.35083 0.0
C1037 C 0.44892 0.55076 0.36602 0.0
C1038 C 0.44265 0.54319 0.26752 0.0
C1039 C 0.45975 0.5626 0.3306 0.0
C1040 C 0.44801 0.55259 0.18061 0.0
C1041 C 0.42526 0.51838 0.15285 0.0
N1042 N 0.45637 0.55859 0.28293 0.0
N1043 N 0.42871 0.52269 0.20026 0.0
H1044 H 0.07991 0.55289 0.845 0.0
H1045 H 0.12854 0.54952 0.61394 0.0
H1046 H 0.12651 0.54967 0.86436 0.0
H1047 H 0.07465 0.50988 0.63329 0.0
H1048 H 0.12976 0.55791 0.69941 0.0
H1049 H 0.07944 0.54537 0.7592 0.0
C1050 C 0.09018 0.55088 0.83093 0.0
C1051 C 0.1033 0.55191 0.86145 0.0
C1052 C 0.11771 0.54742 0.68466 0.0
C1053 C 0.10295 0.54367 0.76412 0.0
C1054 C 0.11697 0.54269 0.6362 0.0
C1055 C 0.10149 0.52897 0.61706 0.0
C1056 C 0.10269 0.53876 0.71326 0.0
C1057 C 0.08684 0.52043 0.6471 0.0
C1058 C 0.08981 0.54648 0.78235 0.0
C1059 C 0.11619 0.54896 0.8418 0.0
N1060 N 0.08771 0.52563 0.69379 0.0
N1061 N 0.11582 0.54513 0.79402 0.0
H1062 H 0.46316 0.58343 0.87807 0.0
H1063 H 0.43772 0.55203 0.60426 0.0
H1064 H 0.4199 0.5329 0.83872 0.0
H1065 H 0.48825 0.59348 0.65009 0.0
H1066 H 0.42773 0.54815 0.68842 0.0
H1067 H 0.46865 0.59082 0.7926 0.0
C1068 C 0.45463 0.57397 0.85159 0.0
C1069 C 0.44127 0.55735 0.86568 0.0
C1070 C 0.44096 0.55814 0.67988 0.0
C1071 C 0.44762 0.56576 0.76775 0.0
C1072 C 0.44667 0.56034 0.632 0.0
C1073 C 0.4639 0.57293 0.62047 0.0
C1074 C 0.45253 0.56875 0.71615 0.0
C1075 C 0.47494 0.58346 0.65759 0.0
C1076 C 0.45785 0.57819 0.80276 0.0
C1077 C 0.43054 0.54575 0.82956 0.0
N1078 N 0.46907 0.5811 0.70382 0.0
N1079 N 0.43408 0.5501 0.78216 0.0
H1080 H 0.47418 0.89738 0.83273 0.0
H1081 H 0.41414 0.90825 0.63973 0.0
H1082 H 0.42352 0.89065 0.86643 0.0
H1083 H 0.45265 0.89459 0.59703 0.0
H1084 H 0.41952 0.90465 0.72425 0.0
H1085 H 0.46822 0.89837 0.74667 0.0
C1086 C 0.46176 0.89595 0.82213 0.0
C1087 C 0.4494 0.89411 0.857 0.0
C1088 C 0.42678 0.90241 0.6964 0.0
C1089 C 0.44268 0.89546 0.75896 0.0
C1090 C 0.42382 0.9046 0.64823 0.0
C1091 C 0.43298 0.90172 0.61153 0.0
C1092 C 0.43919 0.89757 0.70798 0.0
C1093 C 0.4453 0.89689 0.62442 0.0
C1094 C 0.45839 0.89651 0.77305 0.0
C1095 C 0.4335 0.89222 0.84104 0.0
N1096 N 0.44814 0.89506 0.67177 0.0
N1097 N 0.4307 0.89314 0.79326 0.0
H1098 H 0.1702 0.42119 0.16757 0.0
H1099 H 0.243 0.43928 0.97022 0.0
H1100 H 0.22444 0.44183 0.20378 0.0
H1101 H 0.19304 0.43386 0.93477 0.0
H1102 H 0.236 0.43836 0.05604 0.0
H1103 H 0.17776 0.42345 0.08178 0.0
C1104 C 0.18368 0.42613 0.15743 0.0
C1105 C 0.19672 0.43132 0.19271 0.0
C1106 C 0.22663 0.43748 0.02943 0.0
C1107 C 0.20545 0.43394 0.09487 0.0
C1108 C 0.2306 0.43798 0.98044 0.0
C1109 C 0.21857 0.4366 0.94519 0.0
C1110 C 0.21043 0.43536 0.0433 0.0
C1111 C 0.20273 0.43501 0.96062 0.0
C1112 C 0.18801 0.42751 0.10852 0.0
C1113 C 0.214 0.4377 0.17767 0.0
N1114 N 0.19907 0.43429 0.00853 0.0
N1115 N 0.21786 0.43878 0.12982 0.0
H1116 H 0.55708 0.80239 0.98117 0.0
H1117 H 0.56092 0.738 0.17313 0.0
H1118 H 0.55169 0.75252 0.94395 0.0
H1119 H 0.55389 0.78106 0.21475 0.0
H1120 H 0.55659 0.74284 0.08889 0.0
H1121 H 0.55455 0.79448 0.06662 0.0
C1122 C 0.55516 0.7897 0.99084 0.0
C1123 C 0.55486 0.77821 0.95522 0.0
C1124 C 0.55584 0.75117 0.11637 0.0
C1125 C 0.55213 0.76918 0.05299 0.0
C1126 C 0.55841 0.74847 0.16448 0.0
C1127 C 0.55792 0.75927 0.20082 0.0
C1128 C 0.55303 0.76495 0.10431 0.0
C1129 C 0.55444 0.7725 0.18769 0.0
C1130 C 0.5537 0.7852 0.03966 0.0
C1131 C 0.55216 0.76188 0.97 0.0
N1132 N 0.55232 0.77512 0.14031 0.0
N1133 N 0.55114 0.75796 0.01774 0.0
H1134 H 0.25179 0.83113 0.17734 0.0
H1135 H 0.19507 0.7578 0.9821 0.0
H1136 H 0.21699 0.77723 0.21505 0.0
H1137 H 0.23948 0.80779 0.94507 0.0
H1138 H 0.20135 0.7652 0.0677 0.0
H1139 H 0.24564 0.8234 0.09189 0.0
C1140 C 0.24281 0.81767 0.16761 0.0
C1141 C 0.23491 0.80478 0.20324 0.0
C1142 C 0.20975 0.77449 0.04079 0.0
C1143 C 0.22781 0.79586 0.10565 0.0
C1144 C 0.20618 0.7703 -0.0081 0.0
C1145 C 0.21678 0.78219 0.95624 0.0
C1146 C 0.2239 0.79076 0.05417 0.0
C1147 C 0.231 0.79818 0.97121 0.0
C1148 C 0.23937 0.81326 0.11885 0.0
C1149 C 0.2234 0.78755 0.18866 0.0
N1150 N 0.23408 0.80203 0.01901 0.0
N1151 N 0.22015 0.78359 0.14093 0.0
H1152 H 0.15026 0.19053 0.27391 0.0
H1153 H 0.2422 0.19916 0.20556 0.0
H1154 H 0.19776 0.24047 0.26771 0.0
H1155 H 0.19311 0.15083 0.21501 0.0
H1156 H 0.2271 0.21507 0.22884 0.0
H1157 H 0.1665 0.17631 0.25094 0.0
C1158 C 0.16416 0.19854 0.2675 0.0
C1159 C 0.17267 0.21671 0.27291 0.0
C1160 C 0.21972 0.20098 0.22595 0.0
C1161 C 0.19156 0.2004 0.24681 0.0
C1162 C 0.22832 0.19191 0.21296 0.0
C1163 C 0.21887 0.17366 0.20816 0.0
C1164 C 0.20161 0.19166 0.23422 0.0
C1165 C 0.20093 0.1649 0.2179 0.0
C1166 C 0.17347 0.19039 0.25444 0.0
C1167 C 0.1907 0.22641 0.26382 0.0
N1168 N 0.19293 0.17396 0.23029 0.0
N1169 N 0.19961 0.21811 0.25139 0.0
H1170 H 0.80467 0.964 0.31859 0.0
H1171 H 0.79905 0.04443 0.21051 0.0
H1172 H 0.75754 0.95604 0.2495 0.0
H1173 H 0.84647 0.04236 0.22383 0.0
H1174 H 0.78237 0.01388 0.2386 0.0
H1175 H 0.81877 0.99478 0.29898 0.0
C1176 C 0.79724 0.96871 0.29917 0.0
C1177 C 0.77994 0.95733 0.28505 0.0
C1178 C 0.79643 0.02023 0.23549 0.0
C1179 C 0.79616 0.99283 0.26249 0.0
C1180 C 0.80593 0.03761 0.21986 0.0
C1181 C 0.82412 0.04582 0.2147 0.0
C1182 C 0.80533 0.01131 0.24692 0.0
C1183 C 0.83245 0.03647 0.22692 0.0
C1184 C 0.80535 0.98634 0.28799 0.0
C1185 C 0.77096 0.96434 0.26057 0.0
N1186 N 0.82301 0.01977 0.24257 0.0
N1187 N 0.77922 0.98171 0.24984 0.0
H1188 H 0.95877 0.80891 0.21451 0.0
H1189 H 0.04554 0.80457 0.26431 0.0
H1190 H 0.9593 0.76058 0.203 0.0
H1191 H 0.04177 0.85129 0.26632 0.0
H1192 H 0.01444 0.78763 0.24187 0.0
H1193 H 0.98935 0.82391 0.23588 0.0
C1194 C 0.96535 0.8014 0.21666 0.0
C1195 C 0.95648 0.78347 0.20671 0.0
C1196 C 0.02051 0.8016 0.24704 0.0
C1197 C 0.9919 0.80075 0.23096 0.0
C1198 C 0.03824 0.81127 0.25955 0.0
C1199 C 0.0462 0.82935 0.26743 0.0
C1200 C 0.01084 0.81016 0.24241 0.0
C1201 C 0.03618 0.83738 0.26103 0.0
C1202 C 0.98291 0.81002 0.2288 0.0
C1203 C 0.96569 0.77443 0.21053 0.0
N1204 N 0.01909 0.82775 0.2491 0.0
N1205 N 0.983 0.78321 0.22215 0.0
H1206 H 0.80311 0.75791 0.7347 0.0
H1207 H 0.80615 0.84921 0.75167 0.0
H1208 H 0.84174 0.80537 0.66538 0.0
H1209 H 0.75888 0.80098 0.78324 0.0
H1210 H 0.81957 0.83268 0.72356 0.0
H1211 H 0.78667 0.77264 0.75656 0.0
C1212 C 0.80808 0.77134 0.72395 0.0
C1213 C 0.82389 0.78047 0.69857 0.0
C1214 C 0.80621 0.82562 0.7363 0.0
C1215 C 0.80531 0.79726 0.72332 0.0
C1216 C 0.79856 0.83508 0.75247 0.0
C1217 C 0.78141 0.82644 0.76985 0.0
C1218 C 0.79679 0.8073 0.73816 0.0
C1219 C 0.77213 0.8081 0.76984 0.0
C1220 C 0.79869 0.77969 0.73626 0.0
C1221 C 0.82971 0.79782 0.68532 0.0
N1222 N 0.78002 0.79908 0.75469 0.0
N1223 N 0.8205 0.80562 0.69807 0.0
H1224 H 0.24176 0.04658 0.73372 0.0
H1225 H 0.1527 0.95603 0.74521 0.0
H1226 H 0.19429 0.03614 0.66153 0.0
H1227 H 0.2018 0.95875 0.77419 0.0
H1228 H 0.16832 0.98616 0.7177 0.0
H1229 H 0.22812 0.01523 0.75278 0.0
C1230 C 0.22855 0.03773 0.72178 0.0
C1231 C 0.21909 0.04401 0.6964 0.0
C1232 C 0.17578 0.98022 0.72971 0.0
C1233 C 0.20354 0.00841 0.71791 0.0
C1234 C 0.16685 0.96303 0.74549 0.0
C1235 C 0.17601 0.955 0.76201 0.0
C1236 C 0.19409 0.98969 0.7314 0.0
C1237 C 0.19432 0.96455 0.7614 0.0
C1238 C 0.22083 0.01989 0.73244 0.0
C1239 C 0.20206 0.03198 0.68154 0.0
N1240 N 0.20283 0.98157 0.74692 0.0
N1241 N 0.19484 0.01486 0.69276 0.0
H1242 H 0.95616 0.14954 0.72401 0.0
H1243 H 0.04373 0.24155 0.75243 0.0
H1244 H 0.95639 0.19803 0.70638 0.0
H1245 H 0.03688 0.19248 0.80353 0.0
H1246 H 0.01249 0.2266 0.73127 0.0
H1247 H 0.98641 0.16573 0.75004 0.0
C1248 C 0.9626 0.16365 0.72588 0.0
C1249 C 0.9538 0.17247 0.71293 0.0
C1250 C 0.0179 0.2192 0.74729 0.0
C1251 C 0.98868 0.19123 0.7422 0.0
C1252 C 0.0357 0.22768 0.75909 0.0
C1253 C 0.04293 0.21823 0.77959 0.0
C1254 C 0.00742 0.20117 0.75571 0.0
C1255 C 0.03194 0.20032 0.78774 0.0
C1256 C 0.97991 0.17292 0.74081 0.0
C1257 C 0.96275 0.19077 0.71631 0.0
N1258 N 0.01483 0.19241 0.77564 0.0
N1259 N 0.97983 0.19961 0.73018 0.0
H1260 H 0.8636 0.57621 0.59469 0.0
H1261 H 0.86415 0.48668 0.56328 0.0
H1262 H 0.82065 0.52498 0.62867 0.0
H1263 H 0.91054 0.53665 0.54157 0.0
H1264 H 0.84868 0.50136 0.58959 0.0
H1265 H 0.88155 0.56292 0.57531 0.0
C1266 C 0.85794 0.56221 0.59786 0.0
C1267 C 0.84058 0.55167 0.61306 0.0
C1268 C 0.86226 0.50924 0.57935 0.0
C1269 C 0.86095 0.53651 0.59157 0.0
C1270 C 0.8711 0.50082 0.56433 0.0
C1271 C 0.88857 0.51049 0.54992 0.0
C1272 C 0.87082 0.52755 0.57934 0.0
C1273 C 0.89704 0.52877 0.55252 0.0
C1274 C 0.8682 0.55467 0.58711 0.0
C1275 C 0.83393 0.53365 0.61694 0.0
N1276 N 0.88799 0.53678 0.56641 0.0
N1277 N 0.84409 0.5267 0.60625 0.0
H1278 H 0.42403 0.2918 0.61159 0.0
H1279 H 0.51574 0.37522 0.54153 0.0
H1280 H 0.4736 0.29356 0.60923 0.0
H1281 H 0.46885 0.37831 0.55483 0.0
H1282 H 0.49963 0.34494 0.56629 0.0
H1283 H 0.43914 0.32296 0.58937 0.0
C1284 C 0.43802 0.29868 0.60608 0.0
C1285 C 0.44757 0.29008 0.61222 0.0
C1286 C 0.49275 0.35213 0.564 0.0
C1287 C 0.46483 0.3255 0.58732 0.0
C1288 C 0.50199 0.36949 0.54981 0.0
C1289 C 0.4936 0.37927 0.54585 0.0
C1290 C 0.47484 0.34426 0.57402 0.0
C1291 C 0.47579 0.37119 0.55753 0.0
C1292 C 0.44662 0.31644 0.59373 0.0
C1293 C 0.46567 0.29961 0.60502 0.0
N1294 N 0.46691 0.35404 0.5708 0.0
N1295 N 0.47364 0.31671 0.59301 0.0
H1296 H 0.62201 0.09253 0.54036 0.0
H1297 H 0.70513 0.18249 0.6238 0.0
H1298 H 0.62311 0.1415 0.5575 0.0
H1299 H 0.70905 0.13702 0.58944 0.0
H1300 H 0.67442 0.16645 0.60354 0.0
H1301 H 0.65307 0.1072 0.56333 0.0
C1302 C 0.62872 0.10628 0.54953 0.0
C1303 C 0.62002 0.11585 0.54694 0.0
C1304 C 0.6819 0.15989 0.60023 0.0
C1305 C 0.65532 0.13261 0.57275 0.0
C1306 C 0.69952 0.16908 0.61182 0.0
C1307 C 0.70969 0.16109 0.60837 0.0
C1308 C 0.67418 0.14243 0.58513 0.0
C1309 C 0.70165 0.14368 0.59241 0.0
C1310 C 0.64643 0.11465 0.56224 0.0
C1311 C 0.62931 0.13363 0.55873 0.0
N1312 N 0.68429 0.13486 0.5815 0.0
N1313 N 0.64639 0.14139 0.57102 0.0
H1314 H 0.42376 0.13757 0.08717 0.0
H1315 H 0.51402 0.14061 0.04909 0.0
H1316 H 0.47291 0.17808 0.14422 0.0
H1317 H 0.46588 0.09122 0.05016 0.0
H1318 H 0.49826 0.15503 0.07577 0.0
H1319 H 0.43795 0.12059 0.06561 0.0
C1320 C 0.43746 0.14286 0.09524 0.0
C1321 C 0.44719 0.15931 0.11724 0.0
C1322 C 0.49109 0.14102 0.07045 0.0
C1323 C 0.46337 0.14014 0.0926 0.0
C1324 C 0.50008 0.13279 0.05504 0.0
C1325 C 0.49122 0.11471 0.04738 0.0
C1326 C 0.47298 0.13121 0.07754 0.0
C1327 C 0.47316 0.1052 0.05593 0.0
C1328 C 0.44549 0.13315 0.08317 0.0
C1329 C 0.46488 0.16552 0.12712 0.0
N1330 N 0.46454 0.1136 0.07013 0.0
N1331 N 0.47238 0.15601 0.11442 0.0
H1332 H 0.85544 0.37551 0.04059 0.0
H1333 H 0.86365 0.29151 0.10081 0.0
H1334 H 0.90535 0.37824 0.0506 0.0
H1335 H 0.81596 0.29341 0.10707 0.0
H1336 H 0.87949 0.32264 0.07849 0.0
H1337 H 0.84108 0.3449 0.06262 0.0
C1338 C 0.8634 0.36965 0.04765 0.0
C1339 C 0.8816 0.37941 0.04366 0.0
C1340 C 0.86556 0.31616 0.08467 0.0
C1341 C 0.86517 0.34411 0.0686 0.0
C1342 C 0.85652 0.29842 0.09704 0.0
C1343 C 0.83849 0.28991 0.1059 0.0
C1344 C 0.85641 0.32528 0.08088 0.0
C1345 C 0.82987 0.29944 0.10086 0.0
C1346 C 0.85518 0.35212 0.06023 0.0
C1347 C 0.89126 0.37115 0.0535 0.0
N1348 N 0.83889 0.31655 0.08876 0.0
N1349 N 0.88291 0.35387 0.06527 0.0
H1350 H 0.70402 0.52515 0.13726 0.0
H1351 H 0.62318 0.53339 0.04278 0.0
H1352 H 0.71053 0.57445 0.08951 0.0
H1353 H 0.62381 0.48517 0.05537 0.0
H1354 H 0.65388 0.54941 0.06957 0.0
H1355 H 0.67332 0.5111 0.11716 0.0
C1356 C 0.699 0.53307 0.12238 0.0
C1357 C 0.70993 0.55102 0.11474 0.0
C1358 C 0.6472 0.53532 0.0666 0.0
C1359 C 0.67446 0.53485 0.09152 0.0
C1360 C 0.62971 0.52619 0.05169 0.0
C1361 C 0.62102 0.50795 0.04667 0.0
C1362 C 0.65583 0.52604 0.0771 0.0
C1363 C 0.63004 0.49923 0.05836 0.0
C1364 C 0.68139 0.52499 0.11087 0.0
C1365 C 0.70257 0.56055 0.09561 0.0
N1366 N 0.64689 0.50834 0.07298 0.0
N1367 N 0.68522 0.55233 0.08456 0.0
H1368 H 0.53149 0.90831 0.92998 0.0
H1369 H 0.52716 0.81714 0.8831 0.0
H1370 H 0.48672 0.85749 0.95694 0.0
H1371 H 0.57619 0.86565 0.88144 0.0
H1372 H 0.51251 0.8327 0.90846 0.0
H1373 H 0.54849 0.89406 0.90935 0.0
C1374 C 0.52523 0.89421 0.93138 0.0
C1375 C 0.50763 0.88407 0.94492 0.0
C1376 C 0.52649 0.84007 0.9028 0.0
C1377 C 0.52689 0.86782 0.92186 0.0
C1378 C 0.53486 0.83115 0.88818 0.0
C1379 C 0.55287 0.84015 0.87985 0.0
C1380 C 0.53608 0.85827 0.90861 0.0
C1381 C 0.56225 0.85827 0.88761 0.0
C1382 C 0.53495 0.88612 0.91992 0.0
C1383 C 0.5002 0.86589 0.94654 0.0
N1384 N 0.55369 0.86683 0.90114 0.0
N1385 N 0.50983 0.85842 0.93511 0.0
H1386 H 0.09186 0.62131 0.93691 0.0
H1387 H 0.18377 0.70809 0.89164 0.0
H1388 H 0.14235 0.6259 0.95585 0.0
H1389 H 0.13503 0.70774 0.88097 0.0
H1390 H 0.16804 0.67777 0.91648 0.0
H1391 H 0.10653 0.65254 0.91592 0.0
C1392 C 0.10598 0.62883 0.9364 0.0
C1393 C 0.1159 0.62099 0.94808 0.0
C1394 C 0.16067 0.68423 0.90896 0.0
C1395 C 0.13266 0.65653 0.9246 0.0
C1396 C 0.1697 0.70161 0.89478 0.0
C1397 C 0.16069 0.71042 0.88399 0.0
C1398 C 0.14239 0.67537 0.91203 0.0
C1399 C 0.14245 0.70139 0.88909 0.0
C1400 C 0.11433 0.64664 0.9247 0.0
C1401 C 0.13414 0.63134 0.94717 0.0
N1402 N 0.13383 0.68425 0.9024 0.0
N1403 N 0.14187 0.64848 0.93567 0.0
H1404 H 0.29103 0.42594 0.86422 0.0
H1405 H 0.36974 0.51225 0.98052 0.0
H1406 H 0.29082 0.47397 0.8882 0.0
H1407 H 0.37821 0.473 0.91385 0.0
H1408 H 0.33916 0.49554 0.95843 0.0
H1409 H 0.32144 0.44029 0.89338 0.0
C1410 C 0.29731 0.4394 0.87612 0.0
C1411 C 0.28849 0.44885 0.87364 0.0
C1412 C 0.34766 0.49054 0.94847 0.0
C1413 C 0.32292 0.46516 0.90696 0.0
C1414 C 0.36518 0.50009 0.9611 0.0
C1415 C 0.37662 0.49411 0.9486 0.0
C1416 C 0.34136 0.47478 0.92313 0.0
C1417 C 0.36984 0.47814 0.92383 0.0
C1418 C 0.31464 0.44758 0.89239 0.0
C1419 C 0.29719 0.46626 0.88914 0.0
N1420 N 0.35259 0.46899 0.91175 0.0
N1421 N 0.31386 0.47381 0.90516 0.0
H1422 H 0.10172 0.48269 0.3725 0.0
H1423 H 0.14957 0.42951 0.43507 0.0
H1424 H 0.12341 0.48572 0.51404 0.0
H1425 H 0.16146 0.46011 0.30483 0.0
H1426 H 0.13118 0.44152 0.46208 0.0
H1427 H 0.11491 0.46543 0.34454 0.0
C1428 C 0.10893 0.47938 0.39782 0.0
C1429 C 0.11164 0.48562 0.44542 0.0
C1430 C 0.1377 0.44539 0.42738 0.0
C1431 C 0.12625 0.46581 0.41433 0.0
C1432 C 0.14812 0.43857 0.41201 0.0
C1433 C 0.15713 0.44403 0.368 0.0
C1434 C 0.13591 0.45724 0.39772 0.0
C1435 C 0.15487 0.45579 0.3393 0.0
C1436 C 0.11647 0.46967 0.38188 0.0
C1437 C 0.12119 0.48119 0.47693 0.0
N1438 N 0.1444 0.46196 0.35455 0.0
N1439 N 0.12814 0.47148 0.46088 0.0
H1440 H 0.48318 0.62596 0.44422 0.0
H1441 H 0.57503 0.70957 0.37627 0.0
H1442 H 0.53063 0.62356 0.44063 0.0
H1443 H 0.52626 0.70889 0.39282 0.0
H1444 H 0.56015 0.67853 0.3999 0.0
H1445 H 0.49963 0.65653 0.42296 0.0
C1446 C 0.49712 0.63188 0.43875 0.0
C1447 C 0.50555 0.62219 0.44442 0.0
C1448 C 0.55281 0.68528 0.39861 0.0
C1449 C 0.52471 0.65759 0.42027 0.0
C1450 C 0.56129 0.70298 0.38548 0.0
C1451 C 0.55181 0.71174 0.38226 0.0
C1452 C 0.53481 0.67649 0.40859 0.0
C1453 C 0.53406 0.70262 0.39427 0.0
C1454 C 0.50657 0.64944 0.42671 0.0
C1455 C 0.52364 0.63059 0.43648 0.0
N1456 N 0.52618 0.68557 0.40664 0.0
N1457 N 0.5327 0.6479 0.42495 0.0
H1458 H 0.37827 0.90944 0.42077 0.0
H1459 H 0.29075 0.81829 0.38559 0.0
H1460 H 0.37095 0.85977 0.46793 0.0
H1461 H 0.29001 0.86661 0.38322 0.0
H1462 H 0.32112 0.83416 0.41035 0.0
H1463 H 0.3469 0.89498 0.40106 0.0
C1464 C 0.37012 0.89555 0.42689 0.0
C1465 C 0.37725 0.88578 0.44571 0.0
C1466 C 0.31438 0.84138 0.40474 0.0
C1467 C 0.34166 0.8693 0.42346 0.0
C1468 C 0.29702 0.8323 0.39047 0.0
C1469 C 0.2879 0.84117 0.38225 0.0
C1470 C 0.32291 0.85958 0.41019 0.0
C1471 C 0.29663 0.85932 0.38944 0.0
C1472 C 0.35225 0.88736 0.41595 0.0
C1473 C 0.3661 0.86786 0.45331 0.0
N1474 N 0.3138 0.86802 0.40257 0.0
N1475 N 0.34896 0.86024 0.44196 0.0
H1476 H 0.28922 0.13115 0.08508 0.0
H1477 H 0.38011 0.21308 0.16652 0.0
H1478 H 0.29396 0.17769 0.15035 0.0
H1479 H 0.37476 0.16484 0.11239 0.0
H1480 H 0.34904 0.20149 0.15305 0.0
H1481 H 0.32089 0.14466 0.08596 0.0
C1482 C 0.29689 0.14429 0.0992 0.0
C1483 C 0.28881 0.1532 0.11824 0.0
C1484 C 0.35466 0.19345 0.14401 0.0
C1485 C 0.32523 0.16871 0.11962 0.0
C1486 C 0.37244 0.20004 0.15177 0.0
C1487 C 0.38012 0.18987 0.14102 0.0
C1488 C 0.34439 0.17654 0.12532 0.0
C1489 C 0.36944 0.17312 0.12161 0.0
C1490 C 0.31502 0.15197 0.09978 0.0
C1491 C 0.29954 0.17025 0.13558 0.0
N1492 N 0.35212 0.16697 0.11457 0.0
N1493 N 0.31718 0.17739 0.13624 0.0
H1494 H 0.8415 0.21676 0.14046 0.0
H1495 H 0.82648 0.12071 0.18362 0.0
H1496 H 0.79784 0.17623 0.21913 0.0
H1497 H 0.87187 0.16176 0.11191 0.0
H1498 H 0.81572 0.14096 0.19611 0.0
H1499 H 0.85323 0.19713 0.13079 0.0
C1500 C 0.83447 0.20384 0.15617 0.0
C1501 C 0.81858 0.19816 0.18041 0.0
C1502 C 0.82803 0.14553 0.17758 0.0
C1503 C 0.83184 0.17553 0.16888 0.0
C1504 C 0.83415 0.13393 0.17019 0.0
C1505 C 0.85012 0.13948 0.14667 0.0
C1506 C 0.83793 0.16285 0.1613 0.0
C1507 C 0.85948 0.15684 0.13026 0.0
C1508 C 0.84114 0.1926 0.1504 0.0
C1509 C 0.81007 0.18121 0.19989 0.0
N1510 N 0.85326 0.16789 0.13793 0.0
N1511 N 0.81674 0.17051 0.19344 0.0
H1512 H 0.78662 0.62648 0.12354 0.0
H1513 H 0.88354 0.70743 0.15999 0.0
H1514 H 0.82875 0.62254 0.189 0.0
H1515 H 0.84139 0.71212 0.09764 0.0
H1516 H 0.86405 0.6759 0.16564 0.0
H1517 H 0.8067 0.65767 0.11046 0.0
C1518 C 0.80003 0.63214 0.13539 0.0
C1519 C 0.80593 0.6218 0.15756 0.0
C1520 C 0.8591 0.68383 0.15043 0.0
C1521 C 0.82904 0.65748 0.14227 0.0
C1522 C 0.87028 0.70185 0.14693 0.0
C1523 C 0.86411 0.71254 0.12869 0.0
C1524 C 0.84161 0.67639 0.13565 0.0
C1525 C 0.84674 0.70447 0.11235 0.0
C1526 C 0.81152 0.64994 0.1277 0.0
C1527 C 0.82353 0.62991 0.17183 0.0
N1528 N 0.83609 0.68693 0.11653 0.0
N1529 N 0.83441 0.64721 0.16395 0.0
H1530 H 0.16472 0.37501 0.35886 0.0
H1531 H 0.17741 0.29266 0.31537 0.0
H1532 H 0.20942 0.37831 0.28591 0.0
H1533 H 0.134 0.29043 0.39301 0.0
H1534 H 0.19024 0.32427 0.30793 0.0
H1535 H 0.15383 0.34412 0.37378 0.0
C1536 C 0.17224 0.36926 0.34581 0.0
C1537 C 0.188 0.37933 0.32088 0.0
C1538 C 0.17797 0.31686 0.3269 0.0
C1539 C 0.1756 0.34385 0.33816 0.0
C1540 C 0.17067 0.2988 0.33138 0.0
C1541 C 0.1545 0.28878 0.35448 0.0
C1542 C 0.16904 0.32496 0.34555 0.0
C1543 C 0.14641 0.29753 0.37451 0.0
C1544 C 0.16604 0.35159 0.35455 0.0
C1545 C 0.19719 0.3711 0.30516 0.0
N1546 N 0.15369 0.31505 0.36925 0.0
N1547 N 0.19083 0.35385 0.31397 0.0
H1548 H 0.61927 0.82537 0.26004 0.0
H1549 H 0.71108 0.83683 0.33987 0.0
H1550 H 0.62566 0.78406 0.32105 0.0
H1551 H 0.705 0.87932 0.28686 0.0
H1552 H 0.68013 0.81697 0.32717 0.0
H1553 H 0.65082 0.84465 0.26253 0.0
C1554 C 0.62728 0.82026 0.27355 0.0
C1555 C 0.6197 0.80305 0.29082 0.0
C1556 C 0.68553 0.83062 0.31825 0.0
C1557 C 0.65595 0.82521 0.294 0.0
C1558 C 0.70326 0.84205 0.32561 0.0
C1559 C 0.71074 0.85989 0.31477 0.0
C1560 C 0.67503 0.83698 0.29994 0.0
C1561 C 0.69984 0.86573 0.29602 0.0
C1562 C 0.64533 0.83134 0.27507 0.0
C1563 C 0.63085 0.79722 0.30761 0.0
N1564 N 0.68252 0.85431 0.28934 0.0
N1565 N 0.64837 0.80831 0.30908 0.0
H1566 H 0.1709 0.79454 0.29109 0.0
H1567 H 0.15911 0.87276 0.39091 0.0
H1568 H 0.21204 0.8402 0.36189 0.0
H1569 H 0.11877 0.82781 0.31562 0.0
H1570 H 0.17801 0.86017 0.38554 0.0
H1571 H 0.15131 0.80598 0.30326 0.0
C1572 C 0.17588 0.80702 0.30907 0.0
C1573 C 0.19324 0.81643 0.32533 0.0
C1574 C 0.16499 0.85301 0.37044 0.0
C1575 C 0.17067 0.82959 0.33964 0.0
C1576 C 0.15413 0.86016 0.37361 0.0
C1577 C 0.13731 0.85142 0.35329 0.0
C1578 C 0.15906 0.83699 0.34673 0.0
C1579 C 0.13162 0.83508 0.33162 0.0
C1580 C 0.16462 0.81352 0.31613 0.0
C1581 C 0.19883 0.8325 0.34852 0.0
N1582 N 0.14251 0.82847 0.32864 0.0
N1583 N 0.18757 0.83857 0.35496 0.0
H1584 H 0.71236 0.87052 0.89178 0.0
H1585 H 0.62201 0.79145 0.79544 0.0
H1586 H 0.70764 0.82467 0.82193 0.0
H1587 H 0.62704 0.83809 0.86091 0.0
H1588 H 0.65305 0.80279 0.80837 0.0
H1589 H 0.68088 0.85793 0.88576 0.0
C1590 C 0.70472 0.85771 0.8756 0.0
C1591 C 0.71277 0.84871 0.857 0.0
C1592 C 0.64739 0.81055 0.81992 0.0
C1593 C 0.67656 0.83427 0.84965 0.0
C1594 C 0.62962 0.80411 0.81243 0.0
C1595 C 0.62182 0.81384 0.82696 0.0
C1596 C 0.65753 0.82687 0.84214 0.0
C1597 C 0.63244 0.83013 0.84893 0.0
C1598 C 0.6867 0.85056 0.87203 0.0
C1599 C 0.70207 0.83213 0.83665 0.0
N1600 N 0.64974 0.83613 0.85581 0.0
N1601 N 0.68455 0.82551 0.83322 0.0
H1602 H 0.15721 0.78281 0.83753 0.0
H1603 H 0.17225 0.87815 0.78178 0.0
H1604 H 0.20042 0.82176 0.75395 0.0
H1605 H 0.12782 0.83857 0.86025 0.0
H1606 H 0.18237 0.85735 0.76947 0.0
H1607 H 0.14538 0.80247 0.8427 0.0
C1608 C 0.16411 0.79538 0.81976 0.0
C1609 C 0.17995 0.80066 0.79569 0.0
C1610 C 0.1704 0.85322 0.78939 0.0
C1611 C 0.16658 0.82333 0.80202 0.0
C1612 C 0.16466 0.86515 0.79667 0.0
C1613 C 0.14918 0.86019 0.82228 0.0
C1614 C 0.16064 0.83621 0.80796 0.0
C1615 C 0.13984 0.84305 0.84035 0.0
C1616 C 0.15739 0.80665 0.82294 0.0
C1617 C 0.18827 0.81714 0.77334 0.0
N1618 N 0.14573 0.83172 0.83291 0.0
N1619 N 0.18157 0.82791 0.77738 0.0
H1620 H 0.21636 0.3749 0.82267 0.0
H1621 H 0.11972 0.29368 0.78482 0.0
H1622 H 0.17477 0.37913 0.75465 0.0
H1623 H 0.16153 0.29025 0.85439 0.0
H1624 H 0.13984 0.32479 0.77062 0.0
H1625 H 0.19678 0.34346 0.83009 0.0
C1626 C 0.20319 0.36923 0.80882 0.0
C1627 C 0.19722 0.37977 0.78831 0.0
C1628 C 0.14458 0.31719 0.789 0.0
C1629 C 0.17461 0.34371 0.79724 0.0
C1630 C 0.13307 0.29943 0.7973 0.0
C1631 C 0.13887 0.28926 0.82098 0.0
C1632 C 0.16201 0.32485 0.80448 0.0
C1633 C 0.15639 0.29749 0.83605 0.0
C1634 C 0.19196 0.35126 0.81328 0.0
C1635 C 0.17997 0.3716 0.771 0.0
N1636 N 0.16728 0.31473 0.82756 0.0
N1637 N 0.16925 0.3541 0.77615 0.0
H1638 H 0.87524 0.71193 0.63591 0.0
H1639 H 0.79273 0.62036 0.71003 0.0
H1640 H 0.82708 0.70644 0.69083 0.0
H1641 H 0.84016 0.62562 0.64998 0.0
H1642 H 0.80558 0.65193 0.70651 0.0
H1643 H 0.863 0.68053 0.64364 0.0
C1644 C 0.86207 0.70415 0.6496 0.0
C1645 C 0.85218 0.71193 0.66261 0.0
C1646 C 0.81321 0.6462 0.69427 0.0
C1647 C 0.83806 0.67578 0.67162 0.0
C1648 C 0.8059 0.62813 0.69634 0.0
C1649 C 0.81534 0.62022 0.68016 0.0
C1650 C 0.83014 0.65656 0.6759 0.0
C1651 C 0.83236 0.63107 0.66282 0.0
C1652 C 0.8551 0.68618 0.65403 0.0
C1653 C 0.8352 0.70108 0.68023 0.0
N1654 N 0.83918 0.64867 0.66103 0.0
N1655 N 0.82869 0.68357 0.68416 0.0
H1656 H 0.29071 0.12205 0.70301 0.0
H1657 H 0.37211 0.21818 0.66298 0.0
H1658 H 0.28637 0.16468 0.64284 0.0
H1659 H 0.37632 0.1755 0.72337 0.0
H1660 H 0.34038 0.19947 0.66169 0.0
H1661 H 0.32185 0.14199 0.71586 0.0
C1662 C 0.29627 0.13558 0.69247 0.0
C1663 C 0.28586 0.14161 0.67143 0.0
C1664 C 0.34826 0.19426 0.67556 0.0
C1665 C 0.32157 0.16458 0.68623 0.0
C1666 C 0.3664 0.20497 0.67649 0.0
C1667 C 0.37698 0.1984 0.69281 0.0
C1668 C 0.34062 0.17683 0.69096 0.0
C1669 C 0.36876 0.18114 0.70999 0.0
C1670 C 0.31406 0.14699 0.69996 0.0
C1671 C 0.29384 0.15936 0.65891 0.0
N1672 N 0.35111 0.17094 0.70824 0.0
N1673 N 0.3112 0.17017 0.66631 0.0
H1674 H 0.8813 0.17479 0.66681 0.0
H1675 H 0.78544 0.16035 0.62246 0.0
H1676 H 0.83978 0.12908 0.5972 0.0
H1677 H 0.82719 0.20569 0.69273 0.0
H1678 H 0.80526 0.1489 0.6109 0.0
H1679 H 0.86192 0.18687 0.67318 0.0
C1680 C 0.86818 0.16734 0.65248 0.0
C1681 C 0.86219 0.15083 0.6317 0.0
C1682 C 0.81005 0.16135 0.62887 0.0
C1683 C 0.83982 0.16454 0.63933 0.0
C1684 C 0.79871 0.16787 0.63565 0.0
C1685 C 0.80458 0.184 0.65873 0.0
C1686 C 0.82739 0.17104 0.64526 0.0
C1687 C 0.82199 0.19319 0.6748 0.0
C1688 C 0.85708 0.17423 0.65631 0.0
C1689 C 0.84501 0.14182 0.61375 0.0
N1690 N 0.83273 0.18659 0.66776 0.0
N1691 N 0.83443 0.14875 0.61822 0.0
H1692 H 0.0442 0.49649 0.45737 0.0
H1693 H 0.96476 0.51308 0.51056 0.0
H1694 H 0.05067 0.5428 0.52875 0.0
H1695 H 0.95995 0.46865 0.43207 0.0
H1696 H 0.99629 0.52468 0.5164 0.0
H1697 H 0.01323 0.48634 0.44763 0.0
C1698 C 0.03913 0.50453 0.47111 0.0
C1699 C 0.05013 0.52053 0.49401 0.0
C1700 C 0.9883 0.51244 0.4977 0.0
C1701 C 0.01452 0.50896 0.4828 0.0
C1702 C 0.9703 0.50583 0.49421 0.0
C1703 C 0.9596 0.4898 0.471 0.0
C1704 C 0.99564 0.50293 0.47793 0.0
C1705 C 0.96757 0.481 0.45056 0.0
C1706 C 0.02141 0.49874 0.4654 0.0
C1707 C 0.04273 0.53038 0.51089 0.0
N1708 N 0.98504 0.48763 0.45473 0.0
N1709 N 0.0254 0.52442 0.50501 0.0
H1710 H 0.46397 0.50909 0.5641 0.0
H1711 H 0.53765 0.49466 0.44219 0.0
H1712 H 0.50674 0.54837 0.48002 0.0
H1713 H 0.49487 0.45521 0.52589 0.0
H1714 H 0.52673 0.51458 0.45687 0.0
H1715 H 0.4758 0.4897 0.55362 0.0
C1716 C 0.47596 0.51375 0.54383 0.0
C1717 C 0.48429 0.53041 0.52262 0.0
C1718 C 0.5197 0.50157 0.47199 0.0
C1719 C 0.49782 0.50807 0.51006 0.0
C1720 C 0.52589 0.49011 0.46348 0.0
C1721 C 0.51718 0.47316 0.48286 0.0
C1722 C 0.50467 0.49613 0.50016 0.0
C1723 C 0.50199 0.4681 0.51008 0.0
C1724 C 0.48267 0.50259 0.53771 0.0
C1725 C 0.49984 0.53567 0.497 0.0
N1726 N 0.49625 0.47955 0.51801 0.0
N1727 N 0.50601 0.52449 0.49115 0.0
H1728 H 0.50748 0.04577 0.4207 0.0
H1729 H 0.49708 0.95529 0.51031 0.0
H1730 H 0.54857 0.04121 0.49072 0.0
H1731 H 0.45457 0.96027 0.45205 0.0
H1732 H 0.51664 0.98633 0.49729 0.0
H1733 H 0.4888 0.01417 0.42454 0.0
C1734 C 0.51268 0.03815 0.43647 0.0
C1735 C 0.52964 0.04627 0.45588 0.0
C1736 C 0.50304 0.98066 0.48735 0.0
C1737 C 0.50813 0.00994 0.46064 0.0
C1738 C 0.49179 0.96289 0.49488 0.0
C1739 C 0.47403 0.95507 0.48257 0.0
C1740 C 0.49659 0.99084 0.46731 0.0
C1741 C 0.46809 0.96569 0.46239 0.0
C1742 C 0.50194 0.02006 0.43879 0.0
C1743 C 0.5356 0.0356 0.47555 0.0
N1744 N 0.47934 0.98303 0.45548 0.0
N1745 N 0.52481 0.01801 0.47772 0.0
H1746 H 0.49153 0.03932 0.02328 0.0
H1747 H 0.50809 0.95909 0.9816 0.0
H1748 H 0.53917 0.04474 0.96428 0.0
H1749 H 0.46055 0.95365 0.04134 0.0
H1750 H 0.52013 0.99068 0.97769 0.0
H1751 H 0.48017 0.00794 0.03186 0.0
C1752 C 0.4996 0.03395 0.01203 0.0
C1753 C 0.51633 0.04476 -0.00713 0.0
C1754 C 0.50708 0.98256 -0.00816 0.0
C1755 C 0.50342 0.00882 0.00283 0.0
C1756 C 0.50022 0.9645 -0.00578 0.0
C1757 C 0.48324 0.95361 0.01165 0.0
C1758 C 0.4969 0.9898 0.00688 0.0
C1759 C 0.47368 0.96145 0.02747 0.0
C1760 C 0.49311 0.01602 0.01705 0.0
C1761 C 0.52618 0.037 0.9791 0.0
N1762 N 0.4806 0.97901 0.0245 0.0
N1763 N 0.51958 0.01955 0.98433 0.0
H1764 H 0.95761 0.45206 0.01365 0.0
H1765 H 0.04079 0.54754 0.97839 0.0
H1766 H 0.95592 0.4944 0.94151 0.0
H1767 H 0.0434 0.50458 0.04326 0.0
H1768 H 0.00939 0.5285 0.96777 0.0
H1769 H 0.98897 0.47112 0.02587 0.0
C1770 C 0.96381 0.46529 0.0 0.0
C1771 C 0.95403 0.4716 0.9766 0.0
C1772 C 0.01683 0.52326 0.98452 0.0
C1773 C 0.98993 0.49357 -0.00898 0.0
C1774 C 0.03477 0.53417 0.99089 0.0
C1775 C 0.04484 0.52768 0.0116 0.0
C1776 C 0.00884 0.50571 -0.001 0.0
C1777 C 0.03624 0.51018 0.02692 0.0
C1778 C 0.98173 0.4762 0.00721 0.0
C1779 C 0.96285 0.48892 0.95987 0.0
N1780 N 0.01878 0.49981 0.02014 0.0
N1781 N 0.98024 0.49928 0.96757 0.0
H1782 H 0.54936 0.51091 -0.00414 0.0
H1783 H 0.45357 0.4965 0.95207 0.0
H1784 H 0.50776 0.46524 0.92635 0.0
H1785 H 0.49568 0.54246 0.01908 0.0
H1786 H 0.47348 0.48524 0.93948 0.0
H1787 H 0.53026 0.52335 0.00061 0.0
C1788 C 0.53629 0.50355 0.98119 0.0
C1789 C 0.53017 0.48692 0.96102 0.0
C1790 C 0.47834 0.4978 0.95689 0.0
C1791 C 0.50813 0.50105 0.96679 0.0
C1792 C 0.46696 0.50422 0.96424 0.0
C1793 C 0.47288 0.52043 0.98693 0.0
C1794 C 0.49577 0.50764 0.97238 0.0
C1795 C 0.49044 0.52987 0.00161 0.0
C1796 C 0.52535 0.51065 0.98406 0.0
C1797 C 0.51307 0.47805 0.94252 0.0
N1798 N 0.50121 0.52333 -0.00582 0.0
N1799 N 0.50264 0.48516 0.94616 0.0
loop_
_geom_bond_atom_site_label_1
_geom_bond_atom_site_label_2
_geom_bond_distance
_geom_bond_site_symmetry_2
_ccdc_geom_bond_type
Co0 O1 2.216 . S
Co0 O2 2.091 . S
Co0 O4 2.004 . S
Co0 O10 2.021 . S
Co0 O12 2.137 . S
Co0 O13 2.244 . S
O1 Co0 2.216 . S
O1 C8 1.247 . S
O2 Co0 2.091 . S
O2 C8 1.261 . S
C3 O12 1.247 . S
C3 O13 1.272 . S
O4 Co0 2.004 . S
O4 C9 1.259 . S
Co5 O6 2.061 . S
Co5 O11 2.052 . S
Co5 O13 2.135 . S
O6 Co5 2.061 . S
O6 C9 1.235 . S
C7 O10 1.238 . S
C7 O11 1.241 . S
C8 O1 1.247 . S
C8 O2 1.261 . S
C9 O4 1.259 . S
C9 O6 1.235 . S
O10 Co0 2.021 . S
O10 C7 1.238 . S
O11 Co5 2.052 . S
O11 C7 1.241 . S
O12 Co0 2.137 . S
O12 C3 1.247 . S
O13 Co0 2.244 . S
O13 C3 1.272 . S
O13 Co5 2.135 . S
Co14 O15 2.216 . S
Co14 O16 2.091 . S
Co14 O18 2.004 . S
Co14 O24 2.021 . S
Co14 O26 2.137 . S
Co14 O27 2.244 . S
O15 Co14 2.216 . S
O15 C22 1.247 . S
O16 Co14 2.091 . S
O16 C22 1.261 . S
C17 O26 1.247 . S
C17 O27 1.272 . S
O18 Co14 2.004 . S
O18 C23 1.259 . S
Co19 O20 2.061 . S
Co19 O25 2.052 . S
Co19 O27 2.135 . S
O20 Co19 2.061 . S
O20 C23 1.235 . S
C21 O24 1.238 . S
C21 O25 1.241 . S
C22 O15 1.247 . S
C22 O16 1.261 . S
C23 O18 1.259 . S
C23 O20 1.235 . S
O24 Co14 2.021 . S
O24 C21 1.238 . S
O25 Co19 2.052 . S
O25 C21 1.241 . S
O26 Co14 2.137 . S
O26 C17 1.247 . S
O27 Co14 2.244 . S
O27 C17 1.272 . S
O27 Co19 2.135 . S
Co28 O29 2.216 . S
Co28 O30 2.091 . S
Co28 O32 2.004 . S
Co28 O38 2.021 . S
Co28 O40 2.137 . S
Co28 O41 2.244 . S
O29 Co28 2.216 . S
O29 C36 1.247 . S
O30 Co28 2.091 . S
O30 C36 1.261 . S
C31 O40 1.247 . S
C31 O41 1.272 . S
O32 Co28 2.004 . S
O32 C37 1.259 . S
Co33 O34 2.061 . S
Co33 O39 2.052 . S
Co33 O41 2.135 . S
O34 Co33 2.061 . S
O34 C37 1.235 . S
C35 O38 1.238 . S
C35 O39 1.241 . S
C36 O29 1.247 . S
C36 O30 1.261 . S
C37 O32 1.259 . S
C37 O34 1.235 . S
O38 Co28 2.021 . S
O38 C35 1.238 . S
O39 Co33 2.052 . S
O39 C35 1.241 . S
O40 Co28 2.137 . S
O40 C31 1.247 . S
O41 Co28 2.244 . S
O41 C31 1.272 . S
O41 Co33 2.135 . S
Co42 O43 2.216 . S
Co42 O44 2.091 . S
Co42 O46 2.004 . S
Co42 O52 2.021 . S
Co42 O54 2.137 . S
Co42 O55 2.244 . S
O43 Co42 2.216 . S
O43 C50 1.247 . S
O44 Co42 2.091 . S
O44 C50 1.261 . S
C45 O54 1.247 . S
C45 O55 1.272 . S
O46 Co42 2.004 . S
O46 C51 1.259 . S
Co47 O48 2.061 . S
Co47 O53 2.052 . S
Co47 O55 2.135 . S
O48 Co47 2.061 . S
O48 C51 1.235 . S
C49 O52 1.238 . S
C49 O53 1.241 . S
C50 O43 1.247 . S
C50 O44 1.261 . S
C51 O46 1.259 . S
C51 O48 1.235 . S
O52 Co42 2.021 . S
O52 C49 1.238 . S
O53 Co47 2.052 . S
O53 C49 1.241 . S
O54 Co42 2.137 . S
O54 C45 1.247 . S
O55 Co42 2.244 . S
O55 C45 1.272 . S
O55 Co47 2.135 . S
Co56 O57 2.216 . S
Co56 O58 2.091 . S
Co56 O60 2.004 . S
Co56 O66 2.021 . S
Co56 O68 2.137 . S
Co56 O69 2.244 . S
O57 Co56 2.216 . S
O57 C64 1.247 . S
O58 Co56 2.091 . S
O58 C64 1.261 . S
C59 O68 1.247 . S
C59 O69 1.272 . S
O60 Co56 2.004 . S
O60 C65 1.259 . S
Co61 O62 2.061 . S
Co61 O67 2.052 . S
Co61 O69 2.135 . S
O62 Co61 2.061 . S
O62 C65 1.235 . S
C63 O66 1.238 . S
C63 O67 1.241 . S
C64 O57 1.247 . S
C64 O58 1.261 . S
C65 O60 1.259 . S
C65 O62 1.235 . S
O66 Co56 2.021 . S
O66 C63 1.238 . S
O67 Co61 2.052 . S
O67 C63 1.241 . S
O68 Co56 2.137 . S
O68 C59 1.247 . S
O69 Co56 2.244 . S
O69 C59 1.272 . S
O69 Co61 2.135 . S
Co70 O71 2.216 . S
Co70 O72 2.091 . S
Co70 O74 2.004 . S
Co70 O80 2.021 . S
Co70 O82 2.137 . S
Co70 O83 2.244 . S
O71 Co70 2.216 . S
O71 C78 1.247 . S
O72 Co70 2.091 . S
O72 C78 1.261 . S
C73 O82 1.247 . S
C73 O83 1.272 . S
O74 Co70 2.004 . S
O74 C79 1.259 . S
Co75 O76 2.061 . S
Co75 O81 2.052 . S
Co75 O83 2.135 . S
O76 Co75 2.061 . S
O76 C79 1.235 . S
C77 O80 1.238 . S
C77 O81 1.241 . S
C78 O71 1.247 . S
C78 O72 1.261 . S
C79 O74 1.259 . S
C79 O76 1.235 . S
O80 Co70 2.021 . S
O80 C77 1.238 . S
O81 Co75 2.052 . S
O81 C77 1.241 . S
O82 Co70 2.137 . S
O82 C73 1.247 . S
O83 Co70 2.244 . S
O83 C73 1.272 . S
O83 Co75 2.135 . S
Co84 O85 2.216 . S
Co84 O86 2.091 . S
Co84 O88 2.004 . S
Co84 O94 2.021 . S
Co84 O96 2.137 . S
Co84 O97 2.244 . S
O85 Co84 2.216 . S
O85 C92 1.247 . S
O86 Co84 2.091 . S
O86 C92 1.261 . S
C87 O96 1.247 . S
C87 O97 1.272 . S
O88 Co84 2.004 . S
O88 C93 1.259 . S
Co89 O90 2.061 . S
Co89 O95 2.052 . S
Co89 O97 2.135 . S
O90 Co89 2.061 . S
O90 C93 1.235 . S
C91 O94 1.238 . S
C91 O95 1.241 . S
C92 O85 1.247 . S
C92 O86 1.261 . S
C93 O88 1.259 . S
C93 O90 1.235 . S
O94 Co84 2.021 . S
O94 C91 1.238 . S
O95 Co89 2.052 . S
O95 C91 1.241 . S
O96 Co84 2.137 . S
O96 C87 1.247 . S
O97 Co84 2.244 . S
O97 C87 1.272 . S
O97 Co89 2.135 . S
Co98 O99 2.216 . S
Co98 O100 2.091 . S
Co98 O102 2.004 . S
Co98 O108 2.021 . S
Co98 O110 2.137 . S
Co98 O111 2.244 . S
O99 Co98 2.216 . S
O99 C106 1.247 . S
O100 Co98 2.091 . S
O100 C106 1.261 . S
C101 O110 1.247 . S
C101 O111 1.272 . S
O102 Co98 2.004 . S
O102 C107 1.259 . S
Co103 O104 2.061 . S
Co103 O109 2.052 . S
Co103 O111 2.135 . S
O104 Co103 2.061 . S
O104 C107 1.235 . S
C105 O108 1.238 . S
C105 O109 1.241 . S
C106 O99 1.247 . S
C106 O100 1.261 . S
C107 O102 1.259 . S
C107 O104 1.235 . S
O108 Co98 2.021 . S
O108 C105 1.238 . S
O109 Co103 2.052 . S
O109 C105 1.241 . S
O110 Co98 2.137 . S
O110 C101 1.247 . S
O111 Co98 2.244 . S
O111 C101 1.272 . S
O111 Co103 2.135 . S
Co112 O113 2.216 . S
Co112 O114 2.091 . S
Co112 O116 2.004 . S
Co112 O122 2.021 . S
Co112 O124 2.137 . S
Co112 O125 2.244 . S
O113 Co112 2.216 . S
O113 C120 1.247 . S
O114 Co112 2.091 . S
O114 C120 1.261 . S
C115 O124 1.247 . S
C115 O125 1.272 . S
O116 Co112 2.004 . S
O116 C121 1.259 . S
Co117 O118 2.061 . S
Co117 O123 2.052 . S
Co117 O125 2.135 . S
O118 Co117 2.061 . S
O118 C121 1.235 . S
C119 O122 1.238 . S
C119 O123 1.241 . S
C120 O113 1.247 . S
C120 O114 1.261 . S
C121 O116 1.259 . S
C121 O118 1.235 . S
O122 Co112 2.021 . S
O122 C119 1.238 . S
O123 Co117 2.052 . S
O123 C119 1.241 . S
O124 Co112 2.137 . S
O124 C115 1.247 . S
O125 Co112 2.244 . S
O125 C115 1.272 . S
O125 Co117 2.135 . S
Co126 O127 2.216 . S
Co126 O128 2.091 . S
Co126 O130 2.004 . S
Co126 O136 2.021 . S
Co126 O138 2.137 . S
Co126 O139 2.244 . S
O127 Co126 2.216 . S
O127 C134 1.247 . S
O128 Co126 2.091 . S
O128 C134 1.261 . S
C129 O138 1.247 . S
C129 O139 1.272 . S
O130 Co126 2.004 . S
O130 C135 1.259 . S
Co131 O132 2.061 . S
Co131 O137 2.052 . S
Co131 O139 2.135 . S
O132 Co131 2.061 . S
O132 C135 1.235 . S
C133 O136 1.238 . S
C133 O137 1.241 . S
C134 O127 1.247 . S
C134 O128 1.261 . S
C135 O130 1.259 . S
C135 O132 1.235 . S
O136 Co126 2.021 . S
O136 C133 1.238 . S
O137 Co131 2.052 . S
O137 C133 1.241 . S
O138 Co126 2.137 . S
O138 C129 1.247 . S
O139 Co126 2.244 . S
O139 C129 1.272 . S
O139 Co131 2.135 . S
Co140 O141 2.216 . S
Co140 O142 2.091 . S
Co140 O144 2.004 . S
Co140 O150 2.021 . S
Co140 O152 2.137 . S
Co140 O153 2.244 . S
O141 Co140 2.216 . S
O141 C148 1.247 . S
O142 Co140 2.091 . S
O142 C148 1.261 . S
C143 O152 1.247 . S
C143 O153 1.272 . S
O144 Co140 2.004 . S
O144 C149 1.259 . S
Co145 O146 2.061 . S
Co145 O151 2.052 . S
Co145 O153 2.135 . S
O146 Co145 2.061 . S
O146 C149 1.235 . S
C147 O150 1.238 . S
C147 O151 1.241 . S
C148 O141 1.247 . S
C148 O142 1.261 . S
C149 O144 1.259 . S
C149 O146 1.235 . S
O150 Co140 2.021 . S
O150 C147 1.238 . S
O151 Co145 2.052 . S
O151 C147 1.241 . S
O152 Co140 2.137 . S
O152 C143 1.247 . S
O153 Co140 2.244 . S
O153 C143 1.272 . S
O153 Co145 2.135 . S
Co154 O155 2.216 . S
Co154 O156 2.091 . S
Co154 O158 2.004 . S
Co154 O164 2.021 . S
Co154 O166 2.137 . S
Co154 O167 2.244 . S
O155 Co154 2.216 . S
O155 C162 1.247 . S
O156 Co154 2.091 . S
O156 C162 1.261 . S
C157 O166 1.247 . S
C157 O167 1.272 . S
O158 Co154 2.004 . S
O158 C163 1.259 . S
Co159 O160 2.061 . S
Co159 O165 2.052 . S
Co159 O167 2.135 . S
O160 Co159 2.061 . S
O160 C163 1.235 . S
C161 O164 1.238 . S
C161 O165 1.241 . S
C162 O155 1.247 . S
C162 O156 1.261 . S
C163 O158 1.259 . S
C163 O160 1.235 . S
O164 Co154 2.021 . S
O164 C161 1.238 . S
O165 Co159 2.052 . S
O165 C161 1.241 . S
O166 Co154 2.137 . S
O166 C157 1.247 . S
O167 Co154 2.244 . S
O167 C157 1.272 . S
O167 Co159 2.135 . S
Co168 O169 2.216 . S
Co168 O170 2.091 . S
Co168 O172 2.004 . S
Co168 O178 2.021 . S
Co168 O180 2.137 . S
Co168 O181 2.244 . S
O169 Co168 2.216 . S
O169 C176 1.247 . S
O170 Co168 2.091 . S
O170 C176 1.261 . S
C171 O180 1.247 . S
C171 O181 1.272 . S
O172 Co168 2.004 . S
O172 C177 1.259 . S
Co173 O174 2.061 . S
Co173 O179 2.052 . S
Co173 O181 2.135 . S
O174 Co173 2.061 . S
O174 C177 1.235 . S
C175 O178 1.238 . S
C175 O179 1.241 . S
C176 O169 1.247 . S
C176 O170 1.261 . S
C177 O172 1.259 . S
C177 O174 1.235 . S
O178 Co168 2.021 . S
O178 C175 1.238 . S
O179 Co173 2.052 . S
O179 C175 1.241 . S
O180 Co168 2.137 . S
O180 C171 1.247 . S
O181 Co168 2.244 . S
O181 C171 1.272 . S
O181 Co173 2.135 . S
Co182 O183 2.216 . S
Co182 O184 2.091 . S
Co182 O186 2.004 . S
Co182 O192 2.021 . S
Co182 O194 2.137 . S
Co182 O195 2.244 . S
O183 Co182 2.216 . S
O183 C190 1.247 . S
O184 Co182 2.091 . S
O184 C190 1.261 . S
C185 O194 1.247 . S
C185 O195 1.272 . S
O186 Co182 2.004 . S
O186 C191 1.259 . S
Co187 O188 2.061 . S
Co187 O193 2.052 . S
Co187 O195 2.135 . S
O188 Co187 2.061 . S
O188 C191 1.235 . S
C189 O192 1.238 . S
C189 O193 1.241 . S
C190 O183 1.247 . S
C190 O184 1.261 . S
C191 O186 1.259 . S
C191 O188 1.235 . S
O192 Co182 2.021 . S
O192 C189 1.238 . S
O193 Co187 2.052 . S
O193 C189 1.241 . S
O194 Co182 2.137 . S
O194 C185 1.247 . S
O195 Co182 2.244 . S
O195 C185 1.272 . S
O195 Co187 2.135 . S
Co196 O197 2.216 . S
Co196 O198 2.091 . S
Co196 O200 2.004 . S
Co196 O206 2.021 . S
Co196 O208 2.137 . S
Co196 O209 2.244 . S
O197 Co196 2.216 . S
O197 C204 1.247 . S
O198 Co196 2.091 . S
O198 C204 1.261 . S
C199 O208 1.247 . S
C199 O209 1.272 . S
O200 Co196 2.004 . S
O200 C205 1.259 . S
Co201 O202 2.061 . S
Co201 O207 2.052 . S
Co201 O209 2.135 . S
O202 Co201 2.061 . S
O202 C205 1.235 . S
C203 O206 1.238 . S
C203 O207 1.241 . S
C204 O197 1.247 . S
C204 O198 1.261 . S
C205 O200 1.259 . S
C205 O202 1.235 . S
O206 Co196 2.021 . S
O206 C203 1.238 . S
O207 Co201 2.052 . S
O207 C203 1.241 . S
O208 Co196 2.137 . S
O208 C199 1.247 . S
O209 Co196 2.244 . S
O209 C199 1.272 . S
O209 Co201 2.135 . S
Co210 O211 2.216 . S
Co210 O212 2.091 . S
Co210 O214 2.004 . S
Co210 O220 2.021 . S
Co210 O222 2.137 . S
Co210 O223 2.244 . S
O211 Co210 2.216 . S
O211 C218 1.247 . S
O212 Co210 2.091 . S
O212 C218 1.261 . S
C213 O222 1.247 . S
C213 O223 1.272 . S
O214 Co210 2.004 . S
O214 C219 1.259 . S
Co215 O216 2.061 . S
Co215 O221 2.052 . S
Co215 O223 2.135 . S
O216 Co215 2.061 . S
O216 C219 1.235 . S
C217 O220 1.238 . S
C217 O221 1.241 . S
C218 O211 1.247 . S
C218 O212 1.261 . S
C219 O214 1.259 . S
C219 O216 1.235 . S
O220 Co210 2.021 . S
O220 C217 1.238 . S
O221 Co215 2.052 . S
O221 C217 1.241 . S
O222 Co210 2.137 . S
O222 C213 1.247 . S
O223 Co210 2.244 . S
O223 C213 1.272 . S
O223 Co215 2.135 . S
Co224 O225 2.216 . S
Co224 O226 2.091 . S
Co224 O228 2.004 . S
Co224 O234 2.021 . S
Co224 O236 2.137 . S
Co224 O237 2.244 . S
O225 Co224 2.216 . S
O225 C232 1.247 . S
O226 Co224 2.091 . S
O226 C232 1.261 . S
C227 O236 1.247 . S
C227 O237 1.272 . S
O228 Co224 2.004 . S
O228 C233 1.259 . S
Co229 O230 2.061 . S
Co229 O235 2.052 . S
Co229 O237 2.135 . S
O230 Co229 2.061 . S
O230 C233 1.235 . S
C231 O234 1.238 . S
C231 O235 1.241 . S
C232 O225 1.247 . S
C232 O226 1.261 . S
C233 O228 1.259 . S
C233 O230 1.235 . S
O234 Co224 2.021 . S
O234 C231 1.238 . S
O235 Co229 2.052 . S
O235 C231 1.241 . S
O236 Co224 2.137 . S
O236 C227 1.247 . S
O237 Co224 2.244 . S
O237 C227 1.272 . S
O237 Co229 2.135 . S
Co238 O239 2.216 . S
Co238 O240 2.091 . S
Co238 O242 2.004 . S
Co238 O248 2.021 . S
Co238 O250 2.137 . S
Co238 O251 2.244 . S
O239 Co238 2.216 . S
O239 C246 1.247 . S
O240 Co238 2.091 . S
O240 C246 1.261 . S
C241 O250 1.247 . S
C241 O251 1.272 . S
O242 Co238 2.004 . S
O242 C247 1.259 . S
Co243 O244 2.061 . S
Co243 O249 2.052 . S
Co243 O251 2.135 . S
O244 Co243 2.061 . S
O244 C247 1.235 . S
C245 O248 1.238 . S
C245 O249 1.241 . S
C246 O239 1.247 . S
C246 O240 1.261 . S
C247 O242 1.259 . S
C247 O244 1.235 . S
O248 Co238 2.021 . S
O248 C245 1.238 . S
O249 Co243 2.052 . S
O249 C245 1.241 . S
O250 Co238 2.137 . S
O250 C241 1.247 . S
O251 Co238 2.244 . S
O251 C241 1.272 . S
O251 Co243 2.135 . S
Co252 O253 2.216 . S
Co252 O254 2.091 . S
Co252 O256 2.004 . S
Co252 O262 2.021 . S
Co252 O264 2.137 . S
Co252 O265 2.244 . S
O253 Co252 2.216 . S
O253 C260 1.247 . S
O254 Co252 2.091 . S
O254 C260 1.261 . S
C255 O264 1.247 . S
C255 O265 1.272 . S
O256 Co252 2.004 . S
O256 C261 1.259 . S
Co257 O258 2.061 . S
Co257 O263 2.052 . S
Co257 O265 2.135 . S
O258 Co257 2.061 . S
O258 C261 1.235 . S
C259 O262 1.238 . S
C259 O263 1.241 . S
C260 O253 1.247 . S
C260 O254 1.261 . S
C261 O256 1.259 . S
C261 O258 1.235 . S
O262 Co252 2.021 . S
O262 C259 1.238 . S
O263 Co257 2.052 . S
O263 C259 1.241 . S
O264 Co252 2.137 . S
O264 C255 1.247 . S
O265 Co252 2.244 . S
O265 C255 1.272 . S
O265 Co257 2.135 . S
Co266 O267 2.216 . S
Co266 O268 2.091 . S
Co266 O270 2.004 . S
Co266 O276 2.021 . S
Co266 O278 2.137 . S
Co266 O279 2.244 . S
O267 Co266 2.216 . S
O267 C274 1.247 . S
O268 Co266 2.091 . S
O268 C274 1.261 . S
C269 O278 1.247 . S
C269 O279 1.272 . S
O270 Co266 2.004 . S
O270 C275 1.259 . S
Co271 O272 2.061 . S
Co271 O277 2.052 . S
Co271 O279 2.135 . S
O272 Co271 2.061 . S
O272 C275 1.235 . S
C273 O276 1.238 . S
C273 O277 1.241 . S
C274 O267 1.247 . S
C274 O268 1.261 . S
C275 O270 1.259 . S
C275 O272 1.235 . S
O276 Co266 2.021 . S
O276 C273 1.238 . S
O277 Co271 2.052 . S
O277 C273 1.241 . S
O278 Co266 2.137 . S
O278 C269 1.247 . S
O279 Co266 2.244 . S
O279 C269 1.272 . S
O279 Co271 2.135 . S
Co280 O281 2.216 . S
Co280 O282 2.091 . S
Co280 O284 2.004 . S
Co280 O290 2.021 . S
Co280 O292 2.137 . S
Co280 O293 2.244 . S
O281 Co280 2.216 . S
O281 C288 1.247 . S
O282 Co280 2.091 . S
O282 C288 1.261 . S
C283 O292 1.247 . S
C283 O293 1.272 . S
O284 Co280 2.004 . S
O284 C289 1.259 . S
Co285 O286 2.061 . S
Co285 O291 2.052 . S
Co285 O293 2.135 . S
O286 Co285 2.061 . S
O286 C289 1.235 . S
C287 O290 1.238 . S
C287 O291 1.241 . S
C288 O281 1.247 . S
C288 O282 1.261 . S
C289 O284 1.259 . S
C289 O286 1.235 . S
O290 Co280 2.021 . S
O290 C287 1.238 . S
O291 Co285 2.052 . S
O291 C287 1.241 . S
O292 Co280 2.137 . S
O292 C283 1.247 . S
O293 Co280 2.244 . S
O293 C283 1.272 . S
O293 Co285 2.135 . S
Co294 O295 2.216 . S
Co294 O296 2.091 . S
Co294 O298 2.004 . S
Co294 O304 2.021 . S
Co294 O306 2.137 1_554 S
Co294 O307 2.244 1_554 S
O295 Co294 2.216 . S
O295 C302 1.247 . S
O296 Co294 2.091 . S
O296 C302 1.261 . S
C297 O306 1.247 . S
C297 O307 1.272 . S
O298 Co294 2.004 . S
O298 C303 1.259 . S
Co299 O300 2.061 . S
Co299 O305 2.052 . S
Co299 O307 2.135 1_554 S
O300 Co299 2.061 . S
O300 C303 1.235 . S
C301 O304 1.238 . S
C301 O305 1.241 . S
C302 O295 1.247 . S
C302 O296 1.261 . S
C303 O298 1.259 . S
C303 O300 1.235 . S
O304 Co294 2.021 . S
O304 C301 1.238 . S
O305 Co299 2.052 . S
O305 C301 1.241 . S
O306 Co294 2.137 1_556 S
O306 C297 1.247 . S
O307 Co294 2.244 1_556 S
O307 C297 1.272 . S
O307 Co299 2.135 1_556 S
Co308 O309 2.216 . S
Co308 O310 2.091 . S
Co308 O312 2.004 . S
Co308 O318 2.021 . S
Co308 O320 2.137 1_554 S
Co308 O321 2.244 1_554 S
O309 Co308 2.216 . S
O309 C316 1.247 . S
O310 Co308 2.091 . S
O310 C316 1.261 . S
C311 O320 1.247 . S
C311 O321 1.272 . S
O312 Co308 2.004 . S
O312 C317 1.259 . S
Co313 O314 2.061 . S
Co313 O319 2.052 . S
Co313 O321 2.135 1_554 S
O314 Co313 2.061 . S
O314 C317 1.235 . S
C315 O318 1.238 . S
C315 O319 1.241 . S
C316 O309 1.247 . S
C316 O310 1.261 . S
C317 O312 1.259 . S
C317 O314 1.235 . S
O318 Co308 2.021 . S
O318 C315 1.238 . S
O319 Co313 2.052 . S
O319 C315 1.241 . S
O320 Co308 2.137 1_556 S
O320 C311 1.247 . S
O321 Co308 2.244 1_556 S
O321 C311 1.272 . S
O321 Co313 2.135 1_556 S
Co322 O323 2.216 . S
Co322 O324 2.091 . S
Co322 O326 2.004 . S
Co322 O332 2.021 . S
Co322 O334 2.137 1_554 S
Co322 O335 2.244 1_554 S
O323 Co322 2.216 . S
O323 C330 1.247 . S
O324 Co322 2.091 . S
O324 C330 1.261 . S
C325 O334 1.247 . S
C325 O335 1.272 . S
O326 Co322 2.004 . S
O326 C331 1.259 . S
Co327 O328 2.061 . S
Co327 O333 2.052 . S
Co327 O335 2.135 1_554 S
O328 Co327 2.061 . S
O328 C331 1.235 . S
C329 O332 1.238 . S
C329 O333 1.241 . S
C330 O323 1.247 . S
C330 O324 1.261 . S
C331 O326 1.259 . S
C331 O328 1.235 . S
O332 Co322 2.021 . S
O332 C329 1.238 . S
O333 Co327 2.052 . S
O333 C329 1.241 . S
O334 Co322 2.137 1_556 S
O334 C325 1.247 . S
O335 Co322 2.244 1_556 S
O335 C325 1.272 . S
O335 Co327 2.135 1_556 S
Co336 O337 2.216 . S
Co336 O338 2.091 . S
Co336 O340 2.004 . S
Co336 O346 2.021 . S
Co336 O348 2.137 . S
Co336 O349 2.244 . S
O337 Co336 2.216 . S
O337 C344 1.247 . S
O338 Co336 2.091 . S
O338 C344 1.261 . S
C339 O348 1.247 . S
C339 O349 1.272 . S
O340 Co336 2.004 . S
O340 C345 1.259 . S
Co341 O342 2.061 . S
Co341 O347 2.052 . S
Co341 O349 2.135 . S
O342 Co341 2.061 . S
O342 C345 1.235 . S
C343 O346 1.238 . S
C343 O347 1.241 . S
C344 O337 1.247 . S
C344 O338 1.261 . S
C345 O340 1.259 . S
C345 O342 1.235 . S
O346 Co336 2.021 . S
O346 C343 1.238 . S
O347 Co341 2.052 . S
O347 C343 1.241 . S
O348 Co336 2.137 . S
O348 C339 1.247 . S
O349 Co336 2.244 . S
O349 C339 1.272 . S
O349 Co341 2.135 . S
Co350 O351 2.216 . S
Co350 O352 2.091 . S
Co350 O354 2.004 . S
Co350 O360 2.021 . S
Co350 O362 2.137 . S
Co350 O363 2.244 . S
O351 Co350 2.216 . S
O351 C358 1.247 . S
O352 Co350 2.091 . S
O352 C358 1.261 . S
C353 O362 1.247 . S
C353 O363 1.272 . S
O354 Co350 2.004 . S
O354 C359 1.259 . S
Co355 O356 2.061 . S
Co355 O361 2.052 . S
Co355 O363 2.135 . S
O356 Co355 2.061 . S
O356 C359 1.235 . S
C357 O360 1.238 . S
C357 O361 1.241 . S
C358 O351 1.247 . S
C358 O352 1.261 . S
C359 O354 1.259 . S
C359 O356 1.235 . S
O360 Co350 2.021 . S
O360 C357 1.238 . S
O361 Co355 2.052 . S
O361 C357 1.241 . S
O362 Co350 2.137 . S
O362 C353 1.247 . S
O363 Co350 2.244 . S
O363 C353 1.272 . S
O363 Co355 2.135 . S
Co364 O365 2.216 . S
Co364 O366 2.091 . S
Co364 O368 2.004 . S
Co364 O374 2.021 . S
Co364 O376 2.137 . S
Co364 O377 2.244 . S
O365 Co364 2.216 . S
O365 C372 1.247 . S
O366 Co364 2.091 . S
O366 C372 1.261 . S
C367 O376 1.247 . S
C367 O377 1.272 . S
O368 Co364 2.004 . S
O368 C373 1.259 . S
Co369 O370 2.061 . S
Co369 O375 2.052 . S
Co369 O377 2.135 . S
O370 Co369 2.061 . S
O370 C373 1.235 . S
C371 O374 1.238 . S
C371 O375 1.241 . S
C372 O365 1.247 . S
C372 O366 1.261 . S
C373 O368 1.259 . S
C373 O370 1.235 . S
O374 Co364 2.021 . S
O374 C371 1.238 . S
O375 Co369 2.052 . S
O375 C371 1.241 . S
O376 Co364 2.137 . S
O376 C367 1.247 . S
O377 Co364 2.244 . S
O377 C367 1.272 . S
O377 Co369 2.135 . S
Co378 O379 2.216 . S
Co378 O380 2.091 . S
Co378 O382 2.004 . S
Co378 O388 2.021 . S
Co378 O390 2.137 1_556 S
Co378 O391 2.244 1_556 S
O379 Co378 2.216 . S
O379 C386 1.247 . S
O380 Co378 2.091 . S
O380 C386 1.261 . S
C381 O390 1.247 . S
C381 O391 1.272 . S
O382 Co378 2.004 . S
O382 C387 1.259 . S
Co383 O384 2.061 . S
Co383 O389 2.052 . S
Co383 O391 2.135 1_556 S
O384 Co383 2.061 . S
O384 C387 1.235 . S
C385 O388 1.238 . S
C385 O389 1.241 . S
C386 O379 1.247 . S
C386 O380 1.261 . S
C387 O382 1.259 . S
C387 O384 1.235 . S
O388 Co378 2.021 . S
O388 C385 1.238 . S
O389 Co383 2.052 . S
O389 C385 1.241 . S
O390 Co378 2.137 1_554 S
O390 C381 1.247 . S
O391 Co378 2.244 1_554 S
O391 C381 1.272 . S
O391 Co383 2.135 1_554 S
Co392 O393 2.216 . S
Co392 O394 2.091 . S
Co392 O396 2.004 . S
Co392 O402 2.021 . S
Co392 O404 2.137 1_556 S
Co392 O405 2.244 1_556 S
O393 Co392 2.216 . S
O393 C400 1.247 . S
O394 Co392 2.091 . S
O394 C400 1.261 . S
C395 O404 1.247 . S
C395 O405 1.272 . S
O396 Co392 2.004 . S
O396 C401 1.259 . S
Co397 O398 2.061 . S
Co397 O403 2.052 . S
Co397 O405 2.135 1_556 S
O398 Co397 2.061 . S
O398 C401 1.235 . S
C399 O402 1.238 . S
C399 O403 1.241 . S
C400 O393 1.247 . S
C400 O394 1.261 . S
C401 O396 1.259 . S
C401 O398 1.235 . S
O402 Co392 2.021 . S
O402 C399 1.238 . S
O403 Co397 2.052 . S
O403 C399 1.241 . S
O404 Co392 2.137 1_554 S
O404 C395 1.247 . S
O405 Co392 2.244 1_554 S
O405 C395 1.272 . S
O405 Co397 2.135 1_554 S
Co406 O407 2.216 . S
Co406 O408 2.091 . S
Co406 O410 2.004 . S
Co406 O416 2.021 . S
Co406 O418 2.137 1_556 S
Co406 O419 2.244 1_556 S
O407 Co406 2.216 . S
O407 C414 1.247 . S
O408 Co406 2.091 . S
O408 C414 1.261 . S
C409 O418 1.247 . S
C409 O419 1.272 . S
O410 Co406 2.004 . S
O410 C415 1.259 . S
Co411 O412 2.061 . S
Co411 O417 2.052 . S
Co411 O419 2.135 1_556 S
O412 Co411 2.061 . S
O412 C415 1.235 . S
C413 O416 1.238 . S
C413 O417 1.241 . S
C414 O407 1.247 . S
C414 O408 1.261 . S
C415 O410 1.259 . S
C415 O412 1.235 . S
O416 Co406 2.021 . S
O416 C413 1.238 . S
O417 Co411 2.052 . S
O417 C413 1.241 . S
O418 Co406 2.137 1_554 S
O418 C409 1.247 . S
O419 Co406 2.244 1_554 S
O419 C409 1.272 . S
O419 Co411 2.135 1_554 S
Co420 O421 2.216 . S
Co420 O422 2.091 . S
Co420 O424 2.004 . S
Co420 O430 2.021 . S
Co420 O432 2.137 . S
Co420 O433 2.244 . S
O421 Co420 2.216 . S
O421 C428 1.247 . S
O422 Co420 2.091 . S
O422 C428 1.261 . S
C423 O432 1.247 . S
C423 O433 1.272 . S
O424 Co420 2.004 . S
O424 C429 1.259 . S
Co425 O426 2.061 . S
Co425 O431 2.052 . S
Co425 O433 2.135 . S
O426 Co425 2.061 . S
O426 C429 1.235 . S
C427 O430 1.238 . S
C427 O431 1.241 . S
C428 O421 1.247 . S
C428 O422 1.261 . S
C429 O424 1.259 . S
C429 O426 1.235 . S
O430 Co420 2.021 . S
O430 C427 1.238 . S
O431 Co425 2.052 . S
O431 C427 1.241 . S
O432 Co420 2.137 . S
O432 C423 1.247 . S
O433 Co420 2.244 . S
O433 C423 1.272 . S
O433 Co425 2.135 . S
Co434 O435 2.216 . S
Co434 O436 2.091 . S
Co434 O438 2.004 . S
Co434 O444 2.021 . S
Co434 O446 2.137 . S
Co434 O447 2.244 . S
O435 Co434 2.216 . S
O435 C442 1.247 . S
O436 Co434 2.091 . S
O436 C442 1.261 . S
C437 O446 1.247 . S
C437 O447 1.272 . S
O438 Co434 2.004 . S
O438 C443 1.259 . S
Co439 O440 2.061 . S
Co439 O445 2.052 . S
Co439 O447 2.135 . S
O440 Co439 2.061 . S
O440 C443 1.235 . S
C441 O444 1.238 . S
C441 O445 1.241 . S
C442 O435 1.247 . S
C442 O436 1.261 . S
C443 O438 1.259 . S
C443 O440 1.235 . S
O444 Co434 2.021 . S
O444 C441 1.238 . S
O445 Co439 2.052 . S
O445 C441 1.241 . S
O446 Co434 2.137 . S
O446 C437 1.247 . S
O447 Co434 2.244 . S
O447 C437 1.272 . S
O447 Co439 2.135 . S
Co448 O449 2.216 . S
Co448 O450 2.091 . S
Co448 O452 2.004 . S
Co448 O458 2.021 . S
Co448 O460 2.137 . S
Co448 O461 2.244 . S
O449 Co448 2.216 . S
O449 C456 1.247 . S
O450 Co448 2.091 . S
O450 C456 1.261 . S
C451 O460 1.247 . S
C451 O461 1.272 . S
O452 Co448 2.004 . S
O452 C457 1.259 . S
Co453 O454 2.061 . S
Co453 O459 2.052 . S
Co453 O461 2.135 . S
O454 Co453 2.061 . S
O454 C457 1.235 . S
C455 O458 1.238 . S
C455 O459 1.241 . S
C456 O449 1.247 . S
C456 O450 1.261 . S
C457 O452 1.259 . S
C457 O454 1.235 . S
O458 Co448 2.021 . S
O458 C455 1.238 . S
O459 Co453 2.052 . S
O459 C455 1.241 . S
O460 Co448 2.137 . S
O460 C451 1.247 . S
O461 Co448 2.244 . S
O461 C451 1.272 . S
O461 Co453 2.135 . S
Co462 O463 2.216 . S
Co462 O464 2.091 . S
Co462 O466 2.004 . S
Co462 O472 2.021 . S
Co462 O474 2.137 . S
Co462 O475 2.244 . S
O463 Co462 2.216 . S
O463 C470 1.247 . S
O464 Co462 2.091 . S
O464 C470 1.261 . S
C465 O474 1.247 . S
C465 O475 1.272 . S
O466 Co462 2.004 . S
O466 C471 1.259 . S
Co467 O468 2.061 . S
Co467 O473 2.052 . S
Co467 O475 2.135 . S
O468 Co467 2.061 . S
O468 C471 1.235 . S
C469 O472 1.238 . S
C469 O473 1.241 . S
C470 O463 1.247 . S
C470 O464 1.261 . S
C471 O466 1.259 . S
C471 O468 1.235 . S
O472 Co462 2.021 . S
O472 C469 1.238 . S
O473 Co467 2.052 . S
O473 C469 1.241 . S
O474 Co462 2.137 . S
O474 C465 1.247 . S
O475 Co462 2.244 . S
O475 C465 1.272 . S
O475 Co467 2.135 . S
Co476 O477 2.216 . S
Co476 O478 2.091 . S
Co476 O480 2.004 . S
Co476 O486 2.021 . S
Co476 O488 2.137 . S
Co476 O489 2.244 . S
O477 Co476 2.216 . S
O477 C484 1.247 . S
O478 Co476 2.091 . S
O478 C484 1.261 . S
C479 O488 1.247 . S
C479 O489 1.272 . S
O480 Co476 2.004 . S
O480 C485 1.259 . S
Co481 O482 2.061 . S
Co481 O487 2.052 . S
Co481 O489 2.135 . S
O482 Co481 2.061 . S
O482 C485 1.235 . S
C483 O486 1.238 . S
C483 O487 1.241 . S
C484 O477 1.247 . S
C484 O478 1.261 . S
C485 O480 1.259 . S
C485 O482 1.235 . S
O486 Co476 2.021 . S
O486 C483 1.238 . S
O487 Co481 2.052 . S
O487 C483 1.241 . S
O488 Co476 2.137 . S
O488 C479 1.247 . S
O489 Co476 2.244 . S
O489 C479 1.272 . S
O489 Co481 2.135 . S
Co490 O491 2.216 . S
Co490 O492 2.091 . S
Co490 O494 2.004 . S
Co490 O500 2.021 . S
Co490 O502 2.137 . S
Co490 O503 2.244 . S
O491 Co490 2.216 . S
O491 C498 1.247 . S
O492 Co490 2.091 . S
O492 C498 1.261 . S
C493 O502 1.247 . S
C493 O503 1.272 . S
O494 Co490 2.004 . S
O494 C499 1.259 . S
Co495 O496 2.061 . S
Co495 O501 2.052 . S
Co495 O503 2.135 . S
O496 Co495 2.061 . S
O496 C499 1.235 . S
C497 O500 1.238 . S
C497 O501 1.241 . S
C498 O491 1.247 . S
C498 O492 1.261 . S
C499 O494 1.259 . S
C499 O496 1.235 . S
O500 Co490 2.021 . S
O500 C497 1.238 . S
O501 Co495 2.052 . S
O501 C497 1.241 . S
O502 Co490 2.137 . S
O502 C493 1.247 . S
O503 Co490 2.244 . S
O503 C493 1.272 . S
O503 Co495 2.135 . S
H504 C510 0.930 . S
H505 C514 0.930 . S
H506 C519 0.929 . S
H507 C517 0.929 . S
H508 C512 0.919 1_556 S
H509 C518 0.929 . S
C510 H504 0.930 . S
C510 C511 1.367 . S
C510 C518 1.378 . S
C511 C510 1.367 . S
C511 C519 1.433 . S
C512 H508 0.919 1_554 S
C512 C514 1.378 . S
C512 C516 1.350 1_554 S
C513 C516 1.463 . S
C513 C518 1.350 . S
C513 N521 1.427 . S
C514 H505 0.930 . S
C514 C512 1.378 . S
C514 C515 1.367 . S
C515 C514 1.367 . S
C515 C517 1.433 . S
C516 C512 1.350 1_556 S
C516 C513 1.463 . S
C516 N520 1.427 1_556 S
C517 H507 0.929 . S
C517 C515 1.433 . S
C517 N520 1.384 . S
C518 H509 0.929 . S
C518 C510 1.378 . S
C518 C513 1.350 . S
C519 H506 0.929 . S
C519 C511 1.433 . S
C519 N521 1.384 . S
N520 C516 1.427 1_554 S
N520 C517 1.384 . S
N521 C513 1.427 . S
N521 C519 1.384 . S
H522 C528 0.930 . S
H523 C532 0.930 . S
H524 C537 0.929 . S
H525 C535 0.929 . S
H526 C530 0.929 1_556 S
H527 C536 0.929 . S
C528 H522 0.930 . S
C528 C529 1.367 . S
C528 C536 1.378 . S
C529 C528 1.367 . S
C529 C537 1.433 . S
C530 H526 0.929 1_554 S
C530 C532 1.378 . S
C530 C534 1.350 1_554 S
C531 C534 1.463 . S
C531 C536 1.350 . S
C531 N539 1.427 . S
C532 H523 0.930 . S
C532 C530 1.378 . S
C532 C533 1.367 . S
C533 C532 1.367 . S
C533 C535 1.433 . S
C534 C530 1.350 1_556 S
C534 C531 1.463 . S
C534 N538 1.427 1_556 S
C535 H525 0.929 . S
C535 C533 1.433 . S
C535 N538 1.384 . S
C536 H527 0.929 . S
C536 C528 1.378 . S
C536 C531 1.350 . S
C537 H524 0.929 . S
C537 C529 1.433 . S
C537 N539 1.384 . S
N538 C534 1.427 1_554 S
N538 C535 1.384 . S
N539 C531 1.427 . S
N539 C537 1.384 . S
H540 C546 0.930 . S
H541 C550 0.930 . S
H542 C555 0.929 . S
H543 C553 0.929 . S
H544 C548 0.929 . S
H545 C554 0.929 1_556 S
C546 H540 0.930 . S
C546 C547 1.367 . S
C546 C554 1.378 . S
C547 C546 1.367 . S
C547 C555 1.433 . S
C548 H544 0.929 . S
C548 C550 1.378 . S
C548 C552 1.350 . S
C549 C552 1.463 . S
C549 C554 1.350 1_556 S
C549 N557 1.427 1_556 S
C550 H541 0.930 . S
C550 C548 1.378 . S
C550 C551 1.367 . S
C551 C550 1.367 . S
C551 C553 1.433 . S
C552 C548 1.350 . S
C552 C549 1.463 . S
C552 N556 1.427 . S
C553 H543 0.929 . S
C553 C551 1.433 . S
C553 N556 1.384 . S
C554 H545 0.929 1_554 S
C554 C546 1.378 . S
C554 C549 1.350 1_554 S
C555 H542 0.929 . S
C555 C547 1.433 . S
C555 N557 1.384 . S
N556 C552 1.427 . S
N556 C553 1.384 . S
N557 C549 1.427 1_554 S
N557 C555 1.384 . S
H558 C564 0.930 . S
H559 C568 0.930 . S
H560 C573 0.929 . S
H561 C571 0.929 . S
H562 C566 0.929 . S
H563 C572 0.929 . S
C564 H558 0.930 . S
C564 C565 1.367 . S
C564 C572 1.378 . S
C565 C564 1.367 . S
C565 C573 1.433 . S
C566 H562 0.929 . S
C566 C568 1.378 . S
C566 C570 1.350 . S
C567 C570 1.463 . S
C567 C572 1.350 . S
C567 N575 1.427 . S
C568 H559 0.930 . S
C568 C566 1.378 . S
C568 C569 1.367 . S
C569 C568 1.367 . S
C569 C571 1.433 . S
C570 C566 1.350 . S
C570 C567 1.463 . S
C570 N574 1.427 . S
C571 H561 0.929 . S
C571 C569 1.433 . S
C571 N574 1.384 . S
C572 H563 0.929 . S
C572 C564 1.378 . S
C572 C567 1.350 . S
C573 H560 0.929 . S
C573 C565 1.433 . S
C573 N575 1.384 . S
N574 C570 1.427 . S
N574 C571 1.384 . S
N575 C567 1.427 . S
N575 C573 1.384 . S
H576 C582 0.930 . S
H577 C586 0.930 . S
H578 C591 0.929 . S
H579 C589 0.929 . S
H580 C584 0.929 . S
H581 C590 0.929 . S
C582 H576 0.930 . S
C582 C583 1.367 . S
C582 C590 1.378 . S
C583 C582 1.367 . S
C583 C591 1.433 . S
C584 H580 0.929 . S
C584 C586 1.378 . S
C584 C588 1.350 . S
C585 C588 1.463 . S
C585 C590 1.350 . S
C585 N593 1.427 . S
C586 H577 0.930 . S
C586 C584 1.378 . S
C586 C587 1.367 . S
C587 C586 1.367 . S
C587 C589 1.433 . S
C588 C584 1.350 . S
C588 C585 1.463 . S
C588 N592 1.427 . S
C589 H579 0.929 . S
C589 C587 1.433 . S
C589 N592 1.384 . S
C590 H581 0.929 . S
C590 C582 1.378 . S
C590 C585 1.350 . S
C591 H578 0.929 . S
C591 C583 1.433 . S
C591 N593 1.384 . S
N592 C588 1.427 . S
N592 C589 1.384 . S
N593 C585 1.427 . S
N593 C591 1.384 . S
H594 C600 0.930 . S
H595 C604 0.930 . S
H596 C609 0.929 . S
H597 C607 0.929 . S
H598 C602 0.929 . S
H599 C608 0.929 . S
C600 H594 0.930 . S
C600 C601 1.367 . S
C600 C608 1.378 . S
C601 C600 1.367 . S
C601 C609 1.433 . S
C602 H598 0.929 . S
C602 C604 1.378 . S
C602 C606 1.350 . S
C603 C606 1.463 . S
C603 C608 1.350 . S
C603 N611 1.427 . S
C604 H595 0.930 . S
C604 C602 1.378 . S
C604 C605 1.367 . S
C605 C604 1.367 . S
C605 C607 1.433 . S
C606 C602 1.350 . S
C606 C603 1.463 . S
C606 N610 1.427 . S
C607 H597 0.929 . S
C607 C605 1.433 . S
C607 N610 1.384 . S
C608 H599 0.929 . S
C608 C600 1.378 . S
C608 C603 1.350 . S
C609 H596 0.929 . S
C609 C601 1.433 . S
C609 N611 1.384 . S
N610 C606 1.427 . S
N610 C607 1.384 . S
N611 C603 1.427 . S
N611 C609 1.384 . S
H612 C618 0.930 . S
H613 C622 0.930 . S
H614 C627 0.929 . S
H615 C625 0.929 . S
H616 C620 0.929 1_554 S
H617 C626 0.929 . S
C618 H612 0.930 . S
C618 C619 1.367 . S
C618 C626 1.378 . S
C619 C618 1.367 . S
C619 C627 1.433 . S
C620 H616 0.929 1_556 S
C620 C622 1.378 . S
C620 C624 1.350 1_556 S
C621 C624 1.463 . S
C621 C626 1.350 . S
C621 N629 1.427 . S
C622 H613 0.930 . S
C622 C620 1.378 . S
C622 C623 1.367 . S
C623 C622 1.367 . S
C623 C625 1.433 . S
C624 C620 1.350 1_554 S
C624 C621 1.463 . S
C624 N628 1.427 1_554 S
C625 H615 0.929 . S
C625 C623 1.433 . S
C625 N628 1.384 . S
C626 H617 0.929 . S
C626 C618 1.378 . S
C626 C621 1.350 . S
C627 H614 0.929 . S
C627 C619 1.433 . S
C627 N629 1.384 . S
N628 C624 1.427 1_556 S
N628 C625 1.384 . S
N629 C621 1.427 . S
N629 C627 1.384 . S
H630 C636 0.930 . S
H631 C640 0.930 . S
H632 C645 0.929 . S
H633 C643 0.929 . S
H634 C638 0.929 1_554 S
H635 C644 0.929 . S
C636 H630 0.930 . S
C636 C637 1.367 . S
C636 C644 1.378 . S
C637 C636 1.367 . S
C637 C645 1.433 . S
C638 H634 0.929 1_556 S
C638 C640 1.378 . S
C638 C642 1.350 1_556 S
C639 C642 1.463 . S
C639 C644 1.350 . S
C639 N647 1.427 . S
C640 H631 0.930 . S
C640 C638 1.378 . S
C640 C641 1.367 . S
C641 C640 1.367 . S
C641 C643 1.433 . S
C642 C638 1.350 1_554 S
C642 C639 1.463 . S
C642 N646 1.427 1_554 S
C643 H633 0.929 . S
C643 C641 1.433 . S
C643 N646 1.384 . S
C644 H635 0.929 . S
C644 C636 1.378 . S
C644 C639 1.350 . S
C645 H632 0.929 . S
C645 C637 1.433 . S
C645 N647 1.384 . S
N646 C642 1.427 1_556 S
N646 C643 1.384 . S
N647 C639 1.427 . S
N647 C645 1.384 . S
H648 C654 0.930 . S
H649 C658 0.930 . S
H650 C663 0.929 . S
H651 C661 0.929 . S
H652 C656 0.929 . S
H653 C662 0.929 1_554 S
C654 H648 0.930 . S
C654 C655 1.367 . S
C654 C662 1.378 . S
C655 C654 1.367 . S
C655 C663 1.433 . S
C656 H652 0.929 . S
C656 C658 1.378 . S
C656 C660 1.350 . S
C657 C660 1.463 . S
C657 C662 1.350 1_554 S
C657 N665 1.427 1_554 S
C658 H649 0.930 . S
C658 C656 1.378 . S
C658 C659 1.367 . S
C659 C658 1.367 . S
C659 C661 1.433 . S
C660 C656 1.350 . S
C660 C657 1.463 . S
C660 N664 1.427 . S
C661 H651 0.929 . S
C661 C659 1.433 . S
C661 N664 1.384 . S
C662 H653 0.929 1_556 S
C662 C654 1.378 . S
C662 C657 1.350 1_556 S
C663 H650 0.929 . S
C663 C655 1.433 . S
C663 N665 1.384 . S
N664 C660 1.427 . S
N664 C661 1.384 . S
N665 C657 1.427 1_556 S
N665 C663 1.384 . S
H666 C672 0.930 . S
H667 C676 0.930 . S
H668 C681 0.929 . S
H669 C679 0.929 . S
H670 C674 0.929 . S
H671 C680 0.929 . S
C672 H666 0.930 . S
C672 C673 1.367 . S
C672 C680 1.378 . S
C673 C672 1.367 . S
C673 C681 1.433 . S
C674 H670 0.929 . S
C674 C676 1.378 . S
C674 C678 1.350 . S
C675 C678 1.463 . S
C675 C680 1.350 . S
C675 N683 1.427 . S
C676 H667 0.930 . S
C676 C674 1.378 . S
C676 C677 1.367 . S
C677 C676 1.367 . S
C677 C679 1.433 . S
C678 C674 1.350 . S
C678 C675 1.463 . S
C678 N682 1.427 . S
C679 H669 0.929 . S
C679 C677 1.433 . S
C679 N682 1.384 . S
C680 H671 0.929 . S
C680 C672 1.378 . S
C680 C675 1.350 . S
C681 H668 0.929 . S
C681 C673 1.433 . S
C681 N683 1.384 . S
N682 C678 1.427 . S
N682 C679 1.384 . S
N683 C675 1.427 . S
N683 C681 1.384 . S
H684 C690 0.930 . S
H685 C694 0.930 . S
H686 C699 0.929 . S
H687 C697 0.929 . S
H688 C692 0.929 . S
H689 C698 0.929 . S
C690 H684 0.930 . S
C690 C691 1.367 . S
C690 C698 1.378 . S
C691 C690 1.367 . S
C691 C699 1.433 . S
C692 H688 0.929 . S
C692 C694 1.378 . S
C692 C696 1.350 . S
C693 C696 1.463 . S
C693 C698 1.350 . S
C693 N701 1.427 . S
C694 H685 0.930 . S
C694 C692 1.378 . S
C694 C695 1.367 . S
C695 C694 1.367 . S
C695 C697 1.433 . S
C696 C692 1.350 . S
C696 C693 1.463 . S
C696 N700 1.427 . S
C697 H687 0.929 . S
C697 C695 1.433 . S
C697 N700 1.384 . S
C698 H689 0.929 . S
C698 C690 1.378 . S
C698 C693 1.350 . S
C699 H686 0.929 . S
C699 C691 1.433 . S
C699 N701 1.384 . S
N700 C696 1.427 . S
N700 C697 1.384 . S
N701 C693 1.427 . S
N701 C699 1.384 . S
H702 C708 0.930 . S
H703 C712 0.930 . S
H704 C717 0.929 . S
H705 C715 0.929 . S
H706 C710 0.929 . S
H707 C716 0.929 . S
C708 H702 0.930 . S
C708 C709 1.367 . S
C708 C716 1.378 . S
C709 C708 1.367 . S
C709 C717 1.433 . S
C710 H706 0.929 . S
C710 C712 1.378 . S
C710 C714 1.350 . S
C711 C714 1.463 . S
C711 C716 1.350 . S
C711 N719 1.427 . S
C712 H703 0.930 . S
C712 C710 1.378 . S
C712 C713 1.367 . S
C713 C712 1.367 . S
C713 C715 1.433 . S
C714 C710 1.350 . S
C714 C711 1.463 . S
C714 N718 1.427 . S
C715 H705 0.929 . S
C715 C713 1.433 . S
C715 N718 1.384 . S
C716 H707 0.929 . S
C716 C708 1.378 . S
C716 C711 1.350 . S
C717 H704 0.929 . S
C717 C709 1.433 . S
C717 N719 1.384 . S
N718 C714 1.427 . S
N718 C715 1.384 . S
N719 C711 1.427 . S
N719 C717 1.384 . S
H720 C726 0.930 . S
H721 C730 0.930 . S
H722 C735 0.929 . S
H723 C733 0.929 . S
H724 C728 0.929 . S
H725 C734 0.929 . S
C726 H720 0.930 . S
C726 C727 1.367 . S
C726 C734 1.378 . S
C727 C726 1.367 . S
C727 C735 1.433 . S
C728 H724 0.929 . S
C728 C730 1.378 . S
C728 C732 1.350 . S
C729 C732 1.463 . S
C729 C734 1.350 . S
C729 N737 1.427 . S
C730 H721 0.930 . S
C730 C728 1.378 . S
C730 C731 1.367 . S
C731 C730 1.367 . S
C731 C733 1.433 . S
C732 C728 1.350 . S
C732 C729 1.463 . S
C732 N736 1.427 . S
C733 H723 0.929 . S
C733 C731 1.433 . S
C733 N736 1.384 . S
C734 H725 0.929 . S
C734 C726 1.378 . S
C734 C729 1.350 . S
C735 H722 0.929 . S
C735 C727 1.433 . S
C735 N737 1.384 . S
N736 C732 1.427 . S
N736 C733 1.384 . S
N737 C729 1.427 . S
N737 C735 1.384 . S
H738 C744 0.930 . S
H739 C748 0.930 . S
H740 C753 0.929 . S
H741 C751 0.929 . S
H742 C746 0.929 . S
H743 C752 0.929 . S
C744 H738 0.930 . S
C744 C745 1.367 . S
C744 C752 1.378 . S
C745 C744 1.367 . S
C745 C753 1.433 . S
C746 H742 0.929 . S
C746 C748 1.378 . S
C746 C750 1.350 . S
C747 C750 1.463 . S
C747 C752 1.350 . S
C747 N755 1.427 . S
C748 H739 0.930 . S
C748 C746 1.378 . S
C748 C749 1.367 . S
C749 C748 1.367 . S
C749 C751 1.433 . S
C750 C746 1.350 . S
C750 C747 1.463 . S
C750 N754 1.427 . S
C751 H741 0.929 . S
C751 C749 1.433 . S
C751 N754 1.384 . S
C752 H743 0.929 . S
C752 C744 1.378 . S
C752 C747 1.350 . S
C753 H740 0.929 . S
C753 C745 1.433 . S
C753 N755 1.384 . S
N754 C750 1.427 . S
N754 C751 1.384 . S
N755 C747 1.427 . S
N755 C753 1.384 . S
H756 C762 0.930 . S
H757 C766 0.930 . S
H758 C771 0.929 . S
H759 C769 0.929 . S
H760 C764 0.929 . S
H761 C770 0.929 . S
C762 H756 0.930 . S
C762 C763 1.367 . S
C762 C770 1.378 . S
C763 C762 1.367 . S
C763 C771 1.433 . S
C764 H760 0.929 . S
C764 C766 1.378 . S
C764 C768 1.350 . S
C765 C768 1.463 . S
C765 C770 1.350 . S
C765 N773 1.427 . S
C766 H757 0.930 . S
C766 C764 1.378 . S
C766 C767 1.367 . S
C767 C766 1.367 . S
C767 C769 1.433 . S
C768 C764 1.350 . S
C768 C765 1.463 . S
C768 N772 1.427 . S
C769 H759 0.929 . S
C769 C767 1.433 . S
C769 N772 1.384 . S
C770 H761 0.929 . S
C770 C762 1.378 . S
C770 C765 1.350 . S
C771 H758 0.929 . S
C771 C763 1.433 . S
C771 N773 1.384 . S
N772 C768 1.427 . S
N772 C769 1.384 . S
N773 C765 1.427 . S
N773 C771 1.384 . S
H774 C780 0.930 . S
H775 C784 0.917 1_554 S
H776 C789 0.929 . S
H777 C787 0.929 . S
H778 C782 0.929 . S
H779 C788 0.929 . S
C780 H774 0.930 . S
C780 C781 1.367 . S
C780 C788 1.378 . S
C781 C780 1.367 . S
C781 C789 1.433 . S
C782 H778 0.929 . S
C782 C784 1.378 . S
C782 C786 1.350 . S
C783 C786 1.463 . S
C783 C788 1.350 . S
C783 N791 1.427 . S
C784 H775 0.917 1_556 S
C784 C782 1.378 . S
C784 C785 1.367 1_556 S
C785 C784 1.367 1_554 S
C785 C787 1.433 1_554 S
C786 C782 1.350 . S
C786 C783 1.463 . S
C786 N790 1.427 . S
C787 H777 0.929 . S
C787 C785 1.433 1_556 S
C787 N790 1.384 . S
C788 H779 0.929 . S
C788 C780 1.378 . S
C788 C783 1.350 . S
C789 H776 0.929 . S
C789 C781 1.433 . S
C789 N791 1.384 . S
N790 C786 1.427 . S
N790 C787 1.384 . S
N791 C783 1.427 . S
N791 C789 1.384 . S
H792 C798 0.930 . S
H793 C802 0.930 1_554 S
H794 C807 0.929 . S
H795 C805 0.929 . S
H796 C800 0.929 . S
H797 C806 0.929 . S
C798 H792 0.930 . S
C798 C799 1.367 . S
C798 C806 1.378 . S
C799 C798 1.367 . S
C799 C807 1.433 . S
C800 H796 0.929 . S
C800 C802 1.378 . S
C800 C804 1.350 . S
C801 C804 1.463 . S
C801 C806 1.350 . S
C801 N809 1.427 . S
C802 H793 0.930 1_556 S
C802 C800 1.378 . S
C802 C803 1.367 1_556 S
C803 C802 1.367 1_554 S
C803 C805 1.433 1_554 S
C804 C800 1.350 . S
C804 C801 1.463 . S
C804 N808 1.427 . S
C805 H795 0.929 . S
C805 C803 1.433 1_556 S
C805 N808 1.384 . S
C806 H797 0.929 . S
C806 C798 1.378 . S
C806 C801 1.350 . S
C807 H794 0.929 . S
C807 C799 1.433 . S
C807 N809 1.384 . S
N808 C804 1.427 . S
N808 C805 1.384 . S
N809 C801 1.427 . S
N809 C807 1.384 . S
H810 C816 0.930 . S
H811 C820 0.930 . S
H812 C825 0.929 . S
H813 C823 0.929 . S
H814 C818 0.929 . S
H815 C824 0.929 . S
C816 H810 0.930 . S
C816 C817 1.367 . S
C816 C824 1.378 . S
C817 C816 1.367 . S
C817 C825 1.433 . S
C818 H814 0.929 . S
C818 C820 1.378 . S
C818 C822 1.350 . S
C819 C822 1.463 . S
C819 C824 1.350 . S
C819 N827 1.427 . S
C820 H811 0.930 . S
C820 C818 1.378 . S
C820 C821 1.367 1_556 S
C821 C820 1.367 1_554 S
C821 C823 1.433 1_554 S
C822 C818 1.350 . S
C822 C819 1.463 . S
C822 N826 1.427 . S
C823 H813 0.929 . S
C823 C821 1.433 1_556 S
C823 N826 1.384 . S
C824 H815 0.929 . S
C824 C816 1.378 . S
C824 C819 1.350 . S
C825 H812 0.929 . S
C825 C817 1.433 . S
C825 N827 1.384 . S
N826 C822 1.427 . S
N826 C823 1.384 . S
N827 C819 1.427 . S
N827 C825 1.384 . S
H828 C834 0.930 . S
H829 C838 0.930 . S
H830 C843 0.929 . S
H831 C841 0.929 . S
H832 C836 0.929 . S
H833 C842 0.929 . S
C834 H828 0.930 . S
C834 C835 1.367 . S
C834 C842 1.378 . S
C835 C834 1.367 . S
C835 C843 1.433 . S
C836 H832 0.929 . S
C836 C838 1.378 . S
C836 C840 1.350 . S
C837 C840 1.463 . S
C837 C842 1.350 . S
C837 N845 1.427 . S
C838 H829 0.930 . S
C838 C836 1.378 . S
C838 C839 1.367 . S
C839 C838 1.367 . S
C839 C841 1.433 . S
C840 C836 1.350 . S
C840 C837 1.463 . S
C840 N844 1.427 . S
C841 H831 0.929 . S
C841 C839 1.433 . S
C841 N844 1.384 . S
C842 H833 0.929 . S
C842 C834 1.378 . S
C842 C837 1.350 . S
C843 H830 0.929 . S
C843 C835 1.433 . S
C843 N845 1.384 . S
N844 C840 1.427 . S
N844 C841 1.384 . S
N845 C837 1.427 . S
N845 C843 1.384 . S
H846 C852 0.930 . S
H847 C856 0.930 . S
H848 C861 0.929 . S
H849 C859 0.929 . S
H850 C854 0.929 . S
H851 C860 0.929 . S
C852 H846 0.930 . S
C852 C853 1.367 . S
C852 C860 1.378 . S
C853 C852 1.367 . S
C853 C861 1.433 . S
C854 H850 0.929 . S
C854 C856 1.378 . S
C854 C858 1.350 . S
C855 C858 1.463 . S
C855 C860 1.350 . S
C855 N863 1.427 . S
C856 H847 0.930 . S
C856 C854 1.378 . S
C856 C857 1.367 . S
C857 C856 1.367 . S
C857 C859 1.433 . S
C858 C854 1.350 . S
C858 C855 1.463 . S
C858 N862 1.427 . S
C859 H849 0.929 . S
C859 C857 1.433 . S
C859 N862 1.384 . S
C860 H851 0.929 . S
C860 C852 1.378 . S
C860 C855 1.350 . S
C861 H848 0.929 . S
C861 C853 1.433 . S
C861 N863 1.384 . S
N862 C858 1.427 . S
N862 C859 1.384 . S
N863 C855 1.427 . S
N863 C861 1.384 . S
H864 C870 0.930 . S
H865 C874 0.930 . S
H866 C879 0.929 . S
H867 C877 0.929 . S
H868 C872 0.929 . S
H869 C878 0.929 . S
C870 H864 0.930 . S
C870 C871 1.367 . S
C870 C878 1.378 . S
C871 C870 1.367 . S
C871 C879 1.433 . S
C872 H868 0.929 . S
C872 C874 1.378 . S
C872 C876 1.350 . S
C873 C876 1.463 . S
C873 C878 1.350 . S
C873 N881 1.427 . S
C874 H865 0.930 . S
C874 C872 1.378 . S
C874 C875 1.367 . S
C875 C874 1.367 . S
C875 C877 1.433 . S
C876 C872 1.350 . S
C876 C873 1.463 . S
C876 N880 1.427 . S
C877 H867 0.929 . S
C877 C875 1.433 . S
C877 N880 1.384 . S
C878 H869 0.929 . S
C878 C870 1.378 . S
C878 C873 1.350 . S
C879 H866 0.929 . S
C879 C871 1.433 . S
C879 N881 1.384 . S
N880 C876 1.427 . S
N880 C877 1.384 . S
N881 C873 1.427 . S
N881 C879 1.384 . S
H882 C888 0.930 . S
H883 C892 0.930 . S
H884 C897 0.929 . S
H885 C895 0.929 . S
H886 C890 0.929 . S
H887 C896 0.929 . S
C888 H882 0.930 . S
C888 C889 1.367 . S
C888 C896 1.378 . S
C889 C888 1.367 . S
C889 C897 1.433 . S
C890 H886 0.929 . S
C890 C892 1.378 . S
C890 C894 1.350 . S
C891 C894 1.463 . S
C891 C896 1.350 . S
C891 N899 1.427 . S
C892 H883 0.930 . S
C892 C890 1.378 . S
C892 C893 1.367 . S
C893 C892 1.367 . S
C893 C895 1.433 . S
C894 C890 1.350 . S
C894 C891 1.463 . S
C894 N898 1.427 . S
C895 H885 0.929 . S
C895 C893 1.433 . S
C895 N898 1.384 . S
C896 H887 0.929 . S
C896 C888 1.378 . S
C896 C891 1.350 . S
C897 H884 0.929 . S
C897 C889 1.433 . S
C897 N899 1.384 . S
N898 C894 1.427 . S
N898 C895 1.384 . S
N899 C891 1.427 . S
N899 C897 1.384 . S
H900 C906 0.930 . S
H901 C910 0.930 . S
H902 C915 0.929 . S
H903 C913 0.929 . S
H904 C908 0.929 . S
H905 C914 0.929 . S
C906 H900 0.930 . S
C906 C907 1.367 . S
C906 C914 1.378 . S
C907 C906 1.367 . S
C907 C915 1.433 . S
C908 H904 0.929 . S
C908 C910 1.378 . S
C908 C912 1.350 . S
C909 C912 1.463 . S
C909 C914 1.350 . S
C909 N917 1.427 . S
C910 H901 0.930 . S
C910 C908 1.378 . S
C910 C911 1.367 . S
C911 C910 1.367 . S
C911 C913 1.433 . S
C912 C908 1.350 . S
C912 C909 1.463 . S
C912 N916 1.427 . S
C913 H903 0.929 . S
C913 C911 1.433 . S
C913 N916 1.384 . S
C914 H905 0.929 . S
C914 C906 1.378 . S
C914 C909 1.350 . S
C915 H902 0.929 . S
C915 C907 1.433 . S
C915 N917 1.384 . S
N916 C912 1.427 . S
N916 C913 1.384 . S
N917 C909 1.427 . S
N917 C915 1.384 . S
H918 C924 0.930 . S
H919 C928 0.930 . S
H920 C933 0.929 . S
H921 C931 0.929 . S
H922 C926 0.929 . S
H923 C932 0.929 . S
C924 H918 0.930 . S
C924 C925 1.367 . S
C924 C932 1.378 . S
C925 C924 1.367 . S
C925 C933 1.433 . S
C926 H922 0.929 . S
C926 C928 1.378 . S
C926 C930 1.350 . S
C927 C930 1.463 . S
C927 C932 1.350 . S
C927 N935 1.427 . S
C928 H919 0.930 . S
C928 C926 1.378 . S
C928 C929 1.367 . S
C929 C928 1.367 . S
C929 C931 1.433 . S
C930 C926 1.350 . S
C930 C927 1.463 . S
C930 N934 1.427 . S
C931 H921 0.929 . S
C931 C929 1.433 . S
C931 N934 1.384 . S
C932 H923 0.929 . S
C932 C924 1.378 . S
C932 C927 1.350 . S
C933 H920 0.929 . S
C933 C925 1.433 . S
C933 N935 1.384 . S
N934 C930 1.427 . S
N934 C931 1.384 . S
N935 C927 1.427 . S
N935 C933 1.384 . S
H936 C942 0.930 . S
H937 C946 0.930 . S
H938 C951 0.929 . S
H939 C949 0.929 . S
H940 C944 0.929 . S
H941 C950 0.929 . S
C942 H936 0.930 . S
C942 C943 1.367 . S
C942 C950 1.378 . S
C943 C942 1.367 . S
C943 C951 1.433 . S
C944 H940 0.929 . S
C944 C946 1.378 . S
C944 C948 1.350 . S
C945 C948 1.463 . S
C945 C950 1.350 . S
C945 N953 1.427 . S
C946 H937 0.930 . S
C946 C944 1.378 . S
C946 C947 1.367 . S
C947 C946 1.367 . S
C947 C949 1.433 . S
C948 C944 1.350 . S
C948 C945 1.463 . S
C948 N952 1.427 . S
C949 H939 0.929 . S
C949 C947 1.433 . S
C949 N952 1.384 . S
C950 H941 0.929 . S
C950 C942 1.378 . S
C950 C945 1.350 . S
C951 H938 0.929 . S
C951 C943 1.433 . S
C951 N953 1.384 . S
N952 C948 1.427 . S
N952 C949 1.384 . S
N953 C945 1.427 . S
N953 C951 1.384 . S
H954 C960 0.930 . S
H955 C964 0.930 . S
H956 C969 0.929 . S
H957 C967 0.929 . S
H958 C962 0.929 . S
H959 C968 0.929 . S
C960 H954 0.930 . S
C960 C961 1.367 . S
C960 C968 1.378 . S
C961 C960 1.367 . S
C961 C969 1.433 . S
C962 H958 0.929 . S
C962 C964 1.378 . S
C962 C966 1.350 . S
C963 C966 1.463 . S
C963 C968 1.350 . S
C963 N971 1.427 . S
C964 H955 0.930 . S
C964 C962 1.378 . S
C964 C965 1.367 . S
C965 C964 1.367 . S
C965 C967 1.433 . S
C966 C962 1.350 . S
C966 C963 1.463 . S
C966 N970 1.427 . S
C967 H957 0.929 . S
C967 C965 1.433 . S
C967 N970 1.384 . S
C968 H959 0.929 . S
C968 C960 1.378 . S
C968 C963 1.350 . S
C969 H956 0.929 . S
C969 C961 1.433 . S
C969 N971 1.384 . S
N970 C966 1.427 . S
N970 C967 1.384 . S
N971 C963 1.427 . S
N971 C969 1.384 . S
H972 C978 0.930 . S
H973 C982 0.930 . S
H974 C987 0.929 . S
H975 C985 0.929 . S
H976 C980 0.929 . S
H977 C986 0.929 . S
C978 H972 0.930 . S
C978 C979 1.367 . S
C978 C986 1.378 . S
C979 C978 1.367 . S
C979 C987 1.433 . S
C980 H976 0.929 . S
C980 C982 1.378 . S
C980 C984 1.350 . S
C981 C984 1.463 . S
C981 C986 1.350 . S
C981 N989 1.427 . S
C982 H973 0.930 . S
C982 C980 1.378 . S
C982 C983 1.367 . S
C983 C982 1.367 . S
C983 C985 1.433 . S
C984 C980 1.350 . S
C984 C981 1.463 . S
C984 N988 1.427 . S
C985 H975 0.929 . S
C985 C983 1.433 . S
C985 N988 1.384 . S
C986 H977 0.929 . S
C986 C978 1.378 . S
C986 C981 1.350 . S
C987 H974 0.929 . S
C987 C979 1.433 . S
C987 N989 1.384 . S
N988 C984 1.427 . S
N988 C985 1.384 . S
N989 C981 1.427 . S
N989 C987 1.384 . S
H990 C996 0.930 . S
H991 C1000 0.930 . S
H992 C1005 0.929 . S
H993 C1003 0.929 . S
H994 C998 0.929 . S
H995 C1004 0.929 . S
C996 H990 0.930 . S
C996 C997 1.367 . S
C996 C1004 1.378 . S
C997 C996 1.367 . S
C997 C1005 1.433 . S
C998 H994 0.929 . S
C998 C1000 1.378 . S
C998 C1002 1.350 . S
C999 C1002 1.463 . S
C999 C1004 1.350 . S
C999 N1007 1.427 . S
C1000 H991 0.930 . S
C1000 C998 1.378 . S
C1000 C1001 1.367 . S
C1001 C1000 1.367 . S
C1001 C1003 1.433 . S
C1002 C998 1.350 . S
C1002 C999 1.463 . S
C1002 N1006 1.427 . S
C1003 H993 0.929 . S
C1003 C1001 1.433 . S
C1003 N1006 1.384 . S
C1004 H995 0.929 . S
C1004 C996 1.378 . S
C1004 C999 1.350 . S
C1005 H992 0.929 . S
C1005 C997 1.433 . S
C1005 N1007 1.384 . S
N1006 C1002 1.427 . S
N1006 C1003 1.384 . S
N1007 C999 1.427 . S
N1007 C1005 1.384 . S
H1008 C1014 0.930 . S
H1009 C1018 0.930 . S
H1010 C1023 0.929 . S
H1011 C1021 0.929 . S
H1012 C1016 0.929 . S
H1013 C1022 0.929 . S
C1014 H1008 0.930 . S
C1014 C1015 1.367 . S
C1014 C1022 1.378 . S
C1015 C1014 1.367 . S
C1015 C1023 1.433 . S
C1016 H1012 0.929 . S
C1016 C1018 1.378 . S
C1016 C1020 1.350 . S
C1017 C1020 1.463 . S
C1017 C1022 1.350 . S
C1017 N1025 1.427 . S
C1018 H1009 0.930 . S
C1018 C1016 1.378 . S
C1018 C1019 1.367 . S
C1019 C1018 1.367 . S
C1019 C1021 1.433 . S
C1020 C1016 1.350 . S
C1020 C1017 1.463 . S
C1020 N1024 1.427 . S
C1021 H1011 0.929 . S
C1021 C1019 1.433 . S
C1021 N1024 1.384 . S
C1022 H1013 0.929 . S
C1022 C1014 1.378 . S
C1022 C1017 1.350 . S
C1023 H1010 0.929 . S
C1023 C1015 1.433 . S
C1023 N1025 1.384 . S
N1024 C1020 1.427 . S
N1024 C1021 1.384 . S
N1025 C1017 1.427 . S
N1025 C1023 1.384 . S
H1026 C1032 0.930 . S
H1027 C1036 0.930 . S
H1028 C1041 0.929 . S
H1029 C1039 0.929 . S
H1030 C1034 0.929 . S
H1031 C1040 0.929 . S
C1032 H1026 0.930 . S
C1032 C1033 1.367 . S
C1032 C1040 1.378 . S
C1033 C1032 1.367 . S
C1033 C1041 1.433 . S
C1034 H1030 0.929 . S
C1034 C1036 1.378 . S
C1034 C1038 1.350 . S
C1035 C1038 1.463 . S
C1035 C1040 1.350 . S
C1035 N1043 1.427 . S
C1036 H1027 0.930 . S
C1036 C1034 1.378 . S
C1036 C1037 1.367 . S
C1037 C1036 1.367 . S
C1037 C1039 1.433 . S
C1038 C1034 1.350 . S
C1038 C1035 1.463 . S
C1038 N1042 1.427 . S
C1039 H1029 0.929 . S
C1039 C1037 1.433 . S
C1039 N1042 1.384 . S
C1040 H1031 0.929 . S
C1040 C1032 1.378 . S
C1040 C1035 1.350 . S
C1041 H1028 0.929 . S
C1041 C1033 1.433 . S
C1041 N1043 1.384 . S
N1042 C1038 1.427 . S
N1042 C1039 1.384 . S
N1043 C1035 1.427 . S
N1043 C1041 1.384 . S
H1044 C1050 0.930 . S
H1045 C1054 0.930 . S
H1046 C1059 0.929 . S
H1047 C1057 0.929 . S
H1048 C1052 0.929 . S
H1049 C1058 0.929 . S
C1050 H1044 0.930 . S
C1050 C1051 1.367 . S
C1050 C1058 1.378 . S
C1051 C1050 1.367 . S
C1051 C1059 1.433 . S
C1052 H1048 0.929 . S
C1052 C1054 1.378 . S
C1052 C1056 1.350 . S
C1053 C1056 1.463 . S
C1053 C1058 1.350 . S
C1053 N1061 1.427 . S
C1054 H1045 0.930 . S
C1054 C1052 1.378 . S
C1054 C1055 1.367 . S
C1055 C1054 1.367 . S
C1055 C1057 1.433 . S
C1056 C1052 1.350 . S
C1056 C1053 1.463 . S
C1056 N1060 1.427 . S
C1057 H1047 0.929 . S
C1057 C1055 1.433 . S
C1057 N1060 1.384 . S
C1058 H1049 0.929 . S
C1058 C1050 1.378 . S
C1058 C1053 1.350 . S
C1059 H1046 0.929 . S
C1059 C1051 1.433 . S
C1059 N1061 1.384 . S
N1060 C1056 1.427 . S
N1060 C1057 1.384 . S
N1061 C1053 1.427 . S
N1061 C1059 1.384 . S
H1062 C1068 0.930 . S
H1063 C1072 0.930 . S
H1064 C1077 0.929 . S
H1065 C1075 0.929 . S
H1066 C1070 0.929 . S
H1067 C1076 0.929 . S
C1068 H1062 0.930 . S
C1068 C1069 1.367 . S
C1068 C1076 1.378 . S
C1069 C1068 1.367 . S
C1069 C1077 1.433 . S
C1070 H1066 0.929 . S
C1070 C1072 1.378 . S
C1070 C1074 1.350 . S
C1071 C1074 1.463 . S
C1071 C1076 1.350 . S
C1071 N1079 1.427 . S
C1072 H1063 0.930 . S
C1072 C1070 1.378 . S
C1072 C1073 1.367 . S
C1073 C1072 1.367 . S
C1073 C1075 1.433 . S
C1074 C1070 1.350 . S
C1074 C1071 1.463 . S
C1074 N1078 1.427 . S
C1075 H1065 0.929 . S
C1075 C1073 1.433 . S
C1075 N1078 1.384 . S
C1076 H1067 0.929 . S
C1076 C1068 1.378 . S
C1076 C1071 1.350 . S
C1077 H1064 0.929 . S
C1077 C1069 1.433 . S
C1077 N1079 1.384 . S
N1078 C1074 1.427 . S
N1078 C1075 1.384 . S
N1079 C1071 1.427 . S
N1079 C1077 1.384 . S
H1080 C1086 0.930 . S
H1081 C1090 0.930 . S
H1082 C1095 0.929 . S
H1083 C1093 0.929 . S
H1084 C1088 0.929 . S
H1085 C1094 0.929 . S
C1086 H1080 0.930 . S
C1086 C1087 1.367 . S
C1086 C1094 1.378 . S
C1087 C1086 1.367 . S
C1087 C1095 1.433 . S
C1088 H1084 0.929 . S
C1088 C1090 1.378 . S
C1088 C1092 1.350 . S
C1089 C1092 1.463 . S
C1089 C1094 1.350 . S
C1089 N1097 1.427 . S
C1090 H1081 0.930 . S
C1090 C1088 1.378 . S
C1090 C1091 1.367 . S
C1091 C1090 1.367 . S
C1091 C1093 1.433 . S
C1092 C1088 1.350 . S
C1092 C1089 1.463 . S
C1092 N1096 1.427 . S
C1093 H1083 0.929 . S
C1093 C1091 1.433 . S
C1093 N1096 1.384 . S
C1094 H1085 0.929 . S
C1094 C1086 1.378 . S
C1094 C1089 1.350 . S
C1095 H1082 0.929 . S
C1095 C1087 1.433 . S
C1095 N1097 1.384 . S
N1096 C1092 1.427 . S
N1096 C1093 1.384 . S
N1097 C1089 1.427 . S
N1097 C1095 1.384 . S
H1098 C1104 0.930 . S
H1099 C1108 0.930 . S
H1100 C1113 0.929 . S
H1101 C1111 0.935 . S
H1102 C1106 0.929 . S
H1103 C1112 0.929 . S
C1104 H1098 0.930 . S
C1104 C1105 1.367 . S
C1104 C1112 1.378 . S
C1105 C1104 1.367 . S
C1105 C1113 1.433 . S
C1106 H1102 0.929 . S
C1106 C1108 1.378 . S
C1106 C1110 1.350 . S
C1107 C1110 1.463 . S
C1107 C1112 1.350 . S
C1107 N1115 1.427 . S
C1108 H1099 0.930 . S
C1108 C1106 1.378 . S
C1108 C1109 1.367 1_554 S
C1109 C1108 1.367 1_556 S
C1109 C1111 1.433 1_556 S
C1110 C1106 1.350 . S
C1110 C1107 1.463 . S
C1110 N1114 1.427 . S
C1111 H1101 0.935 . S
C1111 C1109 1.433 1_554 S
C1111 N1114 1.384 . S
C1112 H1103 0.929 . S
C1112 C1104 1.378 . S
C1112 C1107 1.350 . S
C1113 H1100 0.929 . S
C1113 C1105 1.433 . S
C1113 N1115 1.384 . S
N1114 C1110 1.427 . S
N1114 C1111 1.384 . S
N1115 C1107 1.427 . S
N1115 C1113 1.384 . S
H1116 C1122 0.930 . S
H1117 C1126 0.930 . S
H1118 C1131 0.929 1_556 S
H1119 C1129 0.929 . S
H1120 C1124 0.929 . S
H1121 C1130 0.929 . S
C1122 H1116 0.930 . S
C1122 C1123 1.367 1_554 S
C1122 C1130 1.378 . S
C1123 C1122 1.367 1_556 S
C1123 C1131 1.433 1_556 S
C1124 H1120 0.929 . S
C1124 C1126 1.378 . S
C1124 C1128 1.350 . S
C1125 C1128 1.463 . S
C1125 C1130 1.350 . S
C1125 N1133 1.427 . S
C1126 H1117 0.930 . S
C1126 C1124 1.378 . S
C1126 C1127 1.367 . S
C1127 C1126 1.367 . S
C1127 C1129 1.433 . S
C1128 C1124 1.350 . S
C1128 C1125 1.463 . S
C1128 N1132 1.427 . S
C1129 H1119 0.929 . S
C1129 C1127 1.433 . S
C1129 N1132 1.384 . S
C1130 H1121 0.929 . S
C1130 C1122 1.378 . S
C1130 C1125 1.350 . S
C1131 H1118 0.929 1_554 S
C1131 C1123 1.433 1_554 S
C1131 N1133 1.384 . S
N1132 C1128 1.427 . S
N1132 C1129 1.384 . S
N1133 C1125 1.427 . S
N1133 C1131 1.384 . S
H1134 C1140 0.930 . S
H1135 C1144 0.930 . S
H1136 C1149 0.929 . S
H1137 C1147 0.929 . S
H1138 C1142 0.929 . S
H1139 C1148 0.929 . S
C1140 H1134 0.930 . S
C1140 C1141 1.367 . S
C1140 C1148 1.378 . S
C1141 C1140 1.367 . S
C1141 C1149 1.433 . S
C1142 H1138 0.929 . S
C1142 C1144 1.378 . S
C1142 C1146 1.350 . S
C1143 C1146 1.463 . S
C1143 C1148 1.350 . S
C1143 N1151 1.427 . S
C1144 H1135 0.930 . S
C1144 C1142 1.378 . S
C1144 C1145 1.367 1_554 S
C1145 C1144 1.367 1_556 S
C1145 C1147 1.433 1_556 S
C1146 C1142 1.350 . S
C1146 C1143 1.463 . S
C1146 N1150 1.427 . S
C1147 H1137 0.929 . S
C1147 C1145 1.433 1_554 S
C1147 N1150 1.384 . S
C1148 H1139 0.929 . S
C1148 C1140 1.378 . S
C1148 C1143 1.350 . S
C1149 H1136 0.929 . S
C1149 C1141 1.433 . S
C1149 N1151 1.384 . S
N1150 C1146 1.427 . S
N1150 C1147 1.384 . S
N1151 C1143 1.427 . S
N1151 C1149 1.384 . S
H1152 C1158 0.930 . S
H1153 C1162 0.930 . S
H1154 C1167 0.929 . S
H1155 C1165 0.929 . S
H1156 C1160 0.929 . S
H1157 C1166 0.929 . S
C1158 H1152 0.930 . S
C1158 C1159 1.367 . S
C1158 C1166 1.378 . S
C1159 C1158 1.367 . S
C1159 C1167 1.433 . S
C1160 H1156 0.929 . S
C1160 C1162 1.378 . S
C1160 C1164 1.350 . S
C1161 C1164 1.463 . S
C1161 C1166 1.350 . S
C1161 N1169 1.427 . S
C1162 H1153 0.930 . S
C1162 C1160 1.378 . S
C1162 C1163 1.367 . S
C1163 C1162 1.367 . S
C1163 C1165 1.433 . S
C1164 C1160 1.350 . S
C1164 C1161 1.463 . S
C1164 N1168 1.427 . S
C1165 H1155 0.929 . S
C1165 C1163 1.433 . S
C1165 N1168 1.384 . S
C1166 H1157 0.929 . S
C1166 C1158 1.378 . S
C1166 C1161 1.350 . S
C1167 H1154 0.929 . S
C1167 C1159 1.433 . S
C1167 N1169 1.384 . S
N1168 C1164 1.427 . S
N1168 C1165 1.384 . S
N1169 C1161 1.427 . S
N1169 C1167 1.384 . S
H1170 C1176 0.930 . S
H1171 C1180 0.930 . S
H1172 C1185 0.929 . S
H1173 C1183 0.929 . S
H1174 C1178 0.929 . S
H1175 C1184 0.929 . S
C1176 H1170 0.930 . S
C1176 C1177 1.367 . S
C1176 C1184 1.378 . S
C1177 C1176 1.367 . S
C1177 C1185 1.433 . S
C1178 H1174 0.929 . S
C1178 C1180 1.378 . S
C1178 C1182 1.350 . S
C1179 C1182 1.463 1_565 S
C1179 C1184 1.350 . S
C1179 N1187 1.427 . S
C1180 H1171 0.930 . S
C1180 C1178 1.378 . S
C1180 C1181 1.367 . S
C1181 C1180 1.367 . S
C1181 C1183 1.433 . S
C1182 C1178 1.350 . S
C1182 C1179 1.463 1_545 S
C1182 N1186 1.427 . S
C1183 H1173 0.929 . S
C1183 C1181 1.433 . S
C1183 N1186 1.384 . S
C1184 H1175 0.929 . S
C1184 C1176 1.378 . S
C1184 C1179 1.350 . S
C1185 H1172 0.929 . S
C1185 C1177 1.433 . S
C1185 N1187 1.384 . S
N1186 C1182 1.427 . S
N1186 C1183 1.384 . S
N1187 C1179 1.427 . S
N1187 C1185 1.384 . S
H1188 C1194 0.930 . S
H1189 C1198 0.930 . S
H1190 C1203 0.929 . S
H1191 C1201 0.929 . S
H1192 C1196 0.929 . S
H1193 C1202 0.929 . S
C1194 H1188 0.930 . S
C1194 C1195 1.367 . S
C1194 C1202 1.378 . S
C1195 C1194 1.367 . S
C1195 C1203 1.433 . S
C1196 H1192 0.929 . S
C1196 C1198 1.378 . S
C1196 C1200 1.350 . S
C1197 C1200 1.463 1_655 S
C1197 C1202 1.350 . S
C1197 N1205 1.427 . S
C1198 H1189 0.930 . S
C1198 C1196 1.378 . S
C1198 C1199 1.367 . S
C1199 C1198 1.367 . S
C1199 C1201 1.433 . S
C1200 C1196 1.350 . S
C1200 C1197 1.463 1_455 S
C1200 N1204 1.427 . S
C1201 H1191 0.929 . S
C1201 C1199 1.433 . S
C1201 N1204 1.384 . S
C1202 H1193 0.929 . S
C1202 C1194 1.378 . S
C1202 C1197 1.350 . S
C1203 H1190 0.929 . S
C1203 C1195 1.433 . S
C1203 N1205 1.384 . S
N1204 C1200 1.427 . S
N1204 C1201 1.384 . S
N1205 C1197 1.427 . S
N1205 C1203 1.384 . S
H1206 C1212 0.930 . S
H1207 C1216 0.930 . S
H1208 C1221 0.929 . S
H1209 C1219 0.929 . S
H1210 C1214 0.929 . S
H1211 C1220 0.929 . S
C1212 H1206 0.930 . S
C1212 C1213 1.367 . S
C1212 C1220 1.378 . S
C1213 C1212 1.367 . S
C1213 C1221 1.433 . S
C1214 H1210 0.929 . S
C1214 C1216 1.378 . S
C1214 C1218 1.350 . S
C1215 C1218 1.463 . S
C1215 C1220 1.350 . S
C1215 N1223 1.427 . S
C1216 H1207 0.930 . S
C1216 C1214 1.378 . S
C1216 C1217 1.367 . S
C1217 C1216 1.367 . S
C1217 C1219 1.433 . S
C1218 C1214 1.350 . S
C1218 C1215 1.463 . S
C1218 N1222 1.427 . S
C1219 H1209 0.929 . S
C1219 C1217 1.433 . S
C1219 N1222 1.384 . S
C1220 H1211 0.929 . S
C1220 C1212 1.378 . S
C1220 C1215 1.350 . S
C1221 H1208 0.929 . S
C1221 C1213 1.433 . S
C1221 N1223 1.384 . S
N1222 C1218 1.427 . S
N1222 C1219 1.384 . S
N1223 C1215 1.427 . S
N1223 C1221 1.384 . S
H1224 C1230 0.930 . S
H1225 C1234 0.930 . S
H1226 C1239 0.929 . S
H1227 C1237 0.929 . S
H1228 C1232 0.929 . S
H1229 C1238 0.929 . S
C1230 H1224 0.930 . S
C1230 C1231 1.367 . S
C1230 C1238 1.378 . S
C1231 C1230 1.367 . S
C1231 C1239 1.433 . S
C1232 H1228 0.929 . S
C1232 C1234 1.378 . S
C1232 C1236 1.350 . S
C1233 C1236 1.463 1_545 S
C1233 C1238 1.350 . S
C1233 N1241 1.427 . S
C1234 H1225 0.930 . S
C1234 C1232 1.378 . S
C1234 C1235 1.367 . S
C1235 C1234 1.367 . S
C1235 C1237 1.433 . S
C1236 C1232 1.350 . S
C1236 C1233 1.463 1_565 S
C1236 N1240 1.427 . S
C1237 H1227 0.929 . S
C1237 C1235 1.433 . S
C1237 N1240 1.384 . S
C1238 H1229 0.929 . S
C1238 C1230 1.378 . S
C1238 C1233 1.350 . S
C1239 H1226 0.929 . S
C1239 C1231 1.433 . S
C1239 N1241 1.384 . S
N1240 C1236 1.427 . S
N1240 C1237 1.384 . S
N1241 C1233 1.427 . S
N1241 C1239 1.384 . S
H1242 C1248 0.930 . S
H1243 C1252 0.930 . S
H1244 C1257 0.929 . S
H1245 C1255 0.929 . S
H1246 C1250 0.929 . S
H1247 C1256 0.929 . S
C1248 H1242 0.930 . S
C1248 C1249 1.367 . S
C1248 C1256 1.378 . S
C1249 C1248 1.367 . S
C1249 C1257 1.433 . S
C1250 H1246 0.929 . S
C1250 C1252 1.378 . S
C1250 C1254 1.350 . S
C1251 C1254 1.463 1_655 S
C1251 C1256 1.350 . S
C1251 N1259 1.427 . S
C1252 H1243 0.930 . S
C1252 C1250 1.378 . S
C1252 C1253 1.367 . S
C1253 C1252 1.367 . S
C1253 C1255 1.433 . S
C1254 C1250 1.350 . S
C1254 C1251 1.463 1_455 S
C1254 N1258 1.427 . S
C1255 H1245 0.929 . S
C1255 C1253 1.433 . S
C1255 N1258 1.384 . S
C1256 H1247 0.929 . S
C1256 C1248 1.378 . S
C1256 C1251 1.350 . S
C1257 H1244 0.929 . S
C1257 C1249 1.433 . S
C1257 N1259 1.384 . S
N1258 C1254 1.427 . S
N1258 C1255 1.384 . S
N1259 C1251 1.427 . S
N1259 C1257 1.384 . S
H1260 C1266 0.930 . S
H1261 C1270 0.930 . S
H1262 C1275 0.929 . S
H1263 C1273 0.929 . S
H1264 C1268 0.929 . S
H1265 C1274 0.929 . S
C1266 H1260 0.930 . S
C1266 C1267 1.367 . S
C1266 C1274 1.378 . S
C1267 C1266 1.367 . S
C1267 C1275 1.433 . S
C1268 H1264 0.929 . S
C1268 C1270 1.378 . S
C1268 C1272 1.350 . S
C1269 C1272 1.463 . S
C1269 C1274 1.350 . S
C1269 N1277 1.427 . S
C1270 H1261 0.930 . S
C1270 C1268 1.378 . S
C1270 C1271 1.367 . S
C1271 C1270 1.367 . S
C1271 C1273 1.433 . S
C1272 C1268 1.350 . S
C1272 C1269 1.463 . S
C1272 N1276 1.427 . S
C1273 H1263 0.929 . S
C1273 C1271 1.433 . S
C1273 N1276 1.384 . S
C1274 H1265 0.929 . S
C1274 C1266 1.378 . S
C1274 C1269 1.350 . S
C1275 H1262 0.929 . S
C1275 C1267 1.433 . S
C1275 N1277 1.384 . S
N1276 C1272 1.427 . S
N1276 C1273 1.384 . S
N1277 C1269 1.427 . S
N1277 C1275 1.384 . S
H1278 C1284 0.930 . S
H1279 C1288 0.930 . S
H1280 C1293 0.929 . S
H1281 C1291 0.929 . S
H1282 C1286 0.929 . S
H1283 C1292 0.929 . S
C1284 H1278 0.930 . S
C1284 C1285 1.367 . S
C1284 C1292 1.378 . S
C1285 C1284 1.367 . S
C1285 C1293 1.433 . S
C1286 H1282 0.929 . S
C1286 C1288 1.378 . S
C1286 C1290 1.350 . S
C1287 C1290 1.463 . S
C1287 C1292 1.350 . S
C1287 N1295 1.427 . S
C1288 H1279 0.930 . S
C1288 C1286 1.378 . S
C1288 C1289 1.367 . S
C1289 C1288 1.367 . S
C1289 C1291 1.433 . S
C1290 C1286 1.350 . S
C1290 C1287 1.463 . S
C1290 N1294 1.427 . S
C1291 H1281 0.929 . S
C1291 C1289 1.433 . S
C1291 N1294 1.384 . S
C1292 H1283 0.929 . S
C1292 C1284 1.378 . S
C1292 C1287 1.350 . S
C1293 H1280 0.929 . S
C1293 C1285 1.433 . S
C1293 N1295 1.384 . S
N1294 C1290 1.427 . S
N1294 C1291 1.384 . S
N1295 C1287 1.427 . S
N1295 C1293 1.384 . S
H1296 C1302 0.930 . S
H1297 C1306 0.930 . S
H1298 C1311 0.929 . S
H1299 C1309 0.929 . S
H1300 C1304 0.929 . S
H1301 C1310 0.929 . S
C1302 H1296 0.930 . S
C1302 C1303 1.367 . S
C1302 C1310 1.378 . S
C1303 C1302 1.367 . S
C1303 C1311 1.433 . S
C1304 H1300 0.929 . S
C1304 C1306 1.378 . S
C1304 C1308 1.350 . S
C1305 C1308 1.463 . S
C1305 C1310 1.350 . S
C1305 N1313 1.427 . S
C1306 H1297 0.930 . S
C1306 C1304 1.378 . S
C1306 C1307 1.367 . S
C1307 C1306 1.367 . S
C1307 C1309 1.433 . S
C1308 C1304 1.350 . S
C1308 C1305 1.463 . S
C1308 N1312 1.427 . S
C1309 H1299 0.929 . S
C1309 C1307 1.433 . S
C1309 N1312 1.384 . S
C1310 H1301 0.929 . S
C1310 C1302 1.378 . S
C1310 C1305 1.350 . S
C1311 H1298 0.929 . S
C1311 C1303 1.433 . S
C1311 N1313 1.384 . S
N1312 C1308 1.427 . S
N1312 C1309 1.384 . S
N1313 C1305 1.427 . S
N1313 C1311 1.384 . S
H1314 C1320 0.930 . S
H1315 C1324 0.930 . S
H1316 C1329 0.929 . S
H1317 C1327 0.929 1_556 S
H1318 C1322 0.929 . S
H1319 C1328 0.929 . S
C1320 H1314 0.930 . S
C1320 C1321 1.367 . S
C1320 C1328 1.378 . S
C1321 C1320 1.367 . S
C1321 C1329 1.433 . S
C1322 H1318 0.929 . S
C1322 C1324 1.378 . S
C1322 C1326 1.350 . S
C1323 C1326 1.463 . S
C1323 C1328 1.350 . S
C1323 N1331 1.427 . S
C1324 H1315 0.930 . S
C1324 C1322 1.378 . S
C1324 C1325 1.367 . S
C1325 C1324 1.367 . S
C1325 C1327 1.433 . S
C1326 C1322 1.350 . S
C1326 C1323 1.463 . S
C1326 N1330 1.427 . S
C1327 H1317 0.929 1_554 S
C1327 C1325 1.433 . S
C1327 N1330 1.384 . S
C1328 H1319 0.929 . S
C1328 C1320 1.378 . S
C1328 C1323 1.350 . S
C1329 H1316 0.929 . S
C1329 C1321 1.433 . S
C1329 N1331 1.384 . S
N1330 C1326 1.427 . S
N1330 C1327 1.384 . S
N1331 C1323 1.427 . S
N1331 C1329 1.384 . S
H1332 C1338 0.930 . S
H1333 C1342 0.930 . S
H1334 C1347 0.929 . S
H1335 C1345 0.929 . S
H1336 C1340 0.929 . S
H1337 C1346 0.929 . S
C1338 H1332 0.930 . S
C1338 C1339 1.367 . S
C1338 C1346 1.378 . S
C1339 C1338 1.367 . S
C1339 C1347 1.433 . S
C1340 H1336 0.929 . S
C1340 C1342 1.378 . S
C1340 C1344 1.350 . S
C1341 C1344 1.463 . S
C1341 C1346 1.350 . S
C1341 N1349 1.427 . S
C1342 H1333 0.930 . S
C1342 C1340 1.378 . S
C1342 C1343 1.367 . S
C1343 C1342 1.367 . S
C1343 C1345 1.433 . S
C1344 C1340 1.350 . S
C1344 C1341 1.463 . S
C1344 N1348 1.427 . S
C1345 H1335 0.929 . S
C1345 C1343 1.433 . S
C1345 N1348 1.384 . S
C1346 H1337 0.929 . S
C1346 C1338 1.378 . S
C1346 C1341 1.350 . S
C1347 H1334 0.929 . S
C1347 C1339 1.433 . S
C1347 N1349 1.384 . S
N1348 C1344 1.427 . S
N1348 C1345 1.384 . S
N1349 C1341 1.427 . S
N1349 C1347 1.384 . S
H1350 C1356 0.930 . S
H1351 C1360 0.930 1_556 S
H1352 C1365 0.929 . S
H1353 C1363 0.929 . S
H1354 C1358 0.929 . S
H1355 C1364 0.929 . S
C1356 H1350 0.930 . S
C1356 C1357 1.367 . S
C1356 C1364 1.378 . S
C1357 C1356 1.367 . S
C1357 C1365 1.433 . S
C1358 H1354 0.929 . S
C1358 C1360 1.378 . S
C1358 C1362 1.350 . S
C1359 C1362 1.463 . S
C1359 C1364 1.350 . S
C1359 N1367 1.427 . S
C1360 H1351 0.930 1_554 S
C1360 C1358 1.378 . S
C1360 C1361 1.367 . S
C1361 C1360 1.367 . S
C1361 C1363 1.433 . S
C1362 C1358 1.350 . S
C1362 C1359 1.463 . S
C1362 N1366 1.427 . S
C1363 H1353 0.929 . S
C1363 C1361 1.433 . S
C1363 N1366 1.384 . S
C1364 H1355 0.929 . S
C1364 C1356 1.378 . S
C1364 C1359 1.350 . S
C1365 H1352 0.929 . S
C1365 C1357 1.433 . S
C1365 N1367 1.384 . S
N1366 C1362 1.427 . S
N1366 C1363 1.384 . S
N1367 C1359 1.427 . S
N1367 C1365 1.384 . S
H1368 C1374 0.930 . S
H1369 C1378 0.930 . S
H1370 C1383 0.929 1_554 S
H1371 C1381 0.929 . S
H1372 C1376 0.929 . S
H1373 C1382 0.929 . S
C1374 H1368 0.930 . S
C1374 C1375 1.367 . S
C1374 C1382 1.378 . S
C1375 C1374 1.367 . S
C1375 C1383 1.433 . S
C1376 H1372 0.929 . S
C1376 C1378 1.378 . S
C1376 C1380 1.350 . S
C1377 C1380 1.463 . S
C1377 C1382 1.350 . S
C1377 N1385 1.427 . S
C1378 H1369 0.930 . S
C1378 C1376 1.378 . S
C1378 C1379 1.367 . S
C1379 C1378 1.367 . S
C1379 C1381 1.433 . S
C1380 C1376 1.350 . S
C1380 C1377 1.463 . S
C1380 N1384 1.427 . S
C1381 H1371 0.929 . S
C1381 C1379 1.433 . S
C1381 N1384 1.384 . S
C1382 H1373 0.929 . S
C1382 C1374 1.378 . S
C1382 C1377 1.350 . S
C1383 H1370 0.929 1_556 S
C1383 C1375 1.433 . S
C1383 N1385 1.384 . S
N1384 C1380 1.427 . S
N1384 C1381 1.384 . S
N1385 C1377 1.427 . S
N1385 C1383 1.384 . S
H1386 C1392 0.930 . S
H1387 C1396 0.930 . S
H1388 C1401 0.929 1_554 S
H1389 C1399 0.929 . S
H1390 C1394 0.929 . S
H1391 C1400 0.929 . S
C1392 H1386 0.930 . S
C1392 C1393 1.367 . S
C1392 C1400 1.378 . S
C1393 C1392 1.367 . S
C1393 C1401 1.433 . S
C1394 H1390 0.929 . S
C1394 C1396 1.378 . S
C1394 C1398 1.350 . S
C1395 C1398 1.463 . S
C1395 C1400 1.350 . S
C1395 N1403 1.427 . S
C1396 H1387 0.930 . S
C1396 C1394 1.378 . S
C1396 C1397 1.367 . S
C1397 C1396 1.367 . S
C1397 C1399 1.433 . S
C1398 C1394 1.350 . S
C1398 C1395 1.463 . S
C1398 N1402 1.427 . S
C1399 H1389 0.929 . S
C1399 C1397 1.433 . S
C1399 N1402 1.384 . S
C1400 H1391 0.929 . S
C1400 C1392 1.378 . S
C1400 C1395 1.350 . S
C1401 H1388 0.929 1_556 S
C1401 C1393 1.433 . S
C1401 N1403 1.384 . S
N1402 C1398 1.427 . S
N1402 C1399 1.384 . S
N1403 C1395 1.427 . S
N1403 C1401 1.384 . S
H1404 C1410 0.930 . S
H1405 C1414 0.930 1_554 S
H1406 C1419 0.929 . S
H1407 C1417 0.929 . S
H1408 C1412 0.929 . S
H1409 C1418 0.929 . S
C1410 H1404 0.930 . S
C1410 C1411 1.367 . S
C1410 C1418 1.378 . S
C1411 C1410 1.367 . S
C1411 C1419 1.433 . S
C1412 H1408 0.929 . S
C1412 C1414 1.378 . S
C1412 C1416 1.350 . S
C1413 C1416 1.463 . S
C1413 C1418 1.350 . S
C1413 N1421 1.427 . S
C1414 H1405 0.930 1_556 S
C1414 C1412 1.378 . S
C1414 C1415 1.367 . S
C1415 C1414 1.367 . S
C1415 C1417 1.433 . S
C1416 C1412 1.350 . S
C1416 C1413 1.463 . S
C1416 N1420 1.427 . S
C1417 H1407 0.929 . S
C1417 C1415 1.433 . S
C1417 N1420 1.384 . S
C1418 H1409 0.929 . S
C1418 C1410 1.378 . S
C1418 C1413 1.350 . S
C1419 H1406 0.929 . S
C1419 C1411 1.433 . S
C1419 N1421 1.384 . S
N1420 C1416 1.427 . S
N1420 C1417 1.384 . S
N1421 C1413 1.427 . S
N1421 C1419 1.384 . S
H1422 C1428 0.930 . S
H1423 C1432 0.930 . S
H1424 C1437 0.929 . S
H1425 C1435 0.929 . S
H1426 C1430 0.929 . S
H1427 C1436 0.929 . S
C1428 H1422 0.930 . S
C1428 C1429 1.367 . S
C1428 C1436 1.378 . S
C1429 C1428 1.367 . S
C1429 C1437 1.433 . S
C1430 H1426 0.929 . S
C1430 C1432 1.378 . S
C1430 C1434 1.350 . S
C1431 C1434 1.463 . S
C1431 C1436 1.350 . S
C1431 N1439 1.427 . S
C1432 H1423 0.930 . S
C1432 C1430 1.378 . S
C1432 C1433 1.367 . S
C1433 C1432 1.367 . S
C1433 C1435 1.433 . S
C1434 C1430 1.350 . S
C1434 C1431 1.463 . S
C1434 N1438 1.427 . S
C1435 H1425 0.929 . S
C1435 C1433 1.433 . S
C1435 N1438 1.384 . S
C1436 H1427 0.929 . S
C1436 C1428 1.378 . S
C1436 C1431 1.350 . S
C1437 H1424 0.929 . S
C1437 C1429 1.433 . S
C1437 N1439 1.384 . S
N1438 C1434 1.427 . S
N1438 C1435 1.384 . S
N1439 C1431 1.427 . S
N1439 C1437 1.384 . S
H1440 C1446 0.930 . S
H1441 C1450 0.930 . S
H1442 C1455 0.929 . S
H1443 C1453 0.929 . S
H1444 C1448 0.929 . S
H1445 C1454 0.929 . S
C1446 H1440 0.930 . S
C1446 C1447 1.367 . S
C1446 C1454 1.378 . S
C1447 C1446 1.367 . S
C1447 C1455 1.433 . S
C1448 H1444 0.929 . S
C1448 C1450 1.378 . S
C1448 C1452 1.350 . S
C1449 C1452 1.463 . S
C1449 C1454 1.350 . S
C1449 N1457 1.427 . S
C1450 H1441 0.930 . S
C1450 C1448 1.378 . S
C1450 C1451 1.367 . S
C1451 C1450 1.367 . S
C1451 C1453 1.433 . S
C1452 C1448 1.350 . S
C1452 C1449 1.463 . S
C1452 N1456 1.427 . S
C1453 H1443 0.929 . S
C1453 C1451 1.433 . S
C1453 N1456 1.384 . S
C1454 H1445 0.929 . S
C1454 C1446 1.378 . S
C1454 C1449 1.350 . S
C1455 H1442 0.929 . S
C1455 C1447 1.433 . S
C1455 N1457 1.384 . S
N1456 C1452 1.427 . S
N1456 C1453 1.384 . S
N1457 C1449 1.427 . S
N1457 C1455 1.384 . S
H1458 C1464 0.930 . S
H1459 C1468 0.930 . S
H1460 C1473 0.929 . S
H1461 C1471 0.929 . S
H1462 C1466 0.929 . S
H1463 C1472 0.929 . S
C1464 H1458 0.930 . S
C1464 C1465 1.367 . S
C1464 C1472 1.378 . S
C1465 C1464 1.367 . S
C1465 C1473 1.433 . S
C1466 H1462 0.929 . S
C1466 C1468 1.378 . S
C1466 C1470 1.350 . S
C1467 C1470 1.463 . S
C1467 C1472 1.350 . S
C1467 N1475 1.427 . S
C1468 H1459 0.930 . S
C1468 C1466 1.378 . S
C1468 C1469 1.367 . S
C1469 C1468 1.367 . S
C1469 C1471 1.433 . S
C1470 C1466 1.350 . S
C1470 C1467 1.463 . S
C1470 N1474 1.427 . S
C1471 H1461 0.929 . S
C1471 C1469 1.433 . S
C1471 N1474 1.384 . S
C1472 H1463 0.929 . S
C1472 C1464 1.378 . S
C1472 C1467 1.350 . S
C1473 H1460 0.929 . S
C1473 C1465 1.433 . S
C1473 N1475 1.384 . S
N1474 C1470 1.427 . S
N1474 C1471 1.384 . S
N1475 C1467 1.427 . S
N1475 C1473 1.384 . S
H1476 C1482 0.930 . S
H1477 C1486 0.930 . S
H1478 C1491 0.929 . S
H1479 C1489 0.929 . S
H1480 C1484 0.929 . S
H1481 C1490 0.929 . S
C1482 H1476 0.930 . S
C1482 C1483 1.367 . S
C1482 C1490 1.378 . S
C1483 C1482 1.367 . S
C1483 C1491 1.433 . S
C1484 H1480 0.929 . S
C1484 C1486 1.378 . S
C1484 C1488 1.350 . S
C1485 C1488 1.463 . S
C1485 C1490 1.350 . S
C1485 N1493 1.427 . S
C1486 H1477 0.930 . S
C1486 C1484 1.378 . S
C1486 C1487 1.367 . S
C1487 C1486 1.367 . S
C1487 C1489 1.433 . S
C1488 C1484 1.350 . S
C1488 C1485 1.463 . S
C1488 N1492 1.427 . S
C1489 H1479 0.929 . S
C1489 C1487 1.433 . S
C1489 N1492 1.384 . S
C1490 H1481 0.929 . S
C1490 C1482 1.378 . S
C1490 C1485 1.350 . S
C1491 H1478 0.929 . S
C1491 C1483 1.433 . S
C1491 N1493 1.384 . S
N1492 C1488 1.427 . S
N1492 C1489 1.384 . S
N1493 C1485 1.427 . S
N1493 C1491 1.384 . S
H1494 C1500 0.930 . S
H1495 C1504 0.930 . S
H1496 C1509 0.929 . S
H1497 C1507 0.929 . S
H1498 C1502 0.929 . S
H1499 C1508 0.929 . S
C1500 H1494 0.930 . S
C1500 C1501 1.367 . S
C1500 C1508 1.378 . S
C1501 C1500 1.367 . S
C1501 C1509 1.433 . S
C1502 H1498 0.929 . S
C1502 C1504 1.378 . S
C1502 C1506 1.350 . S
C1503 C1506 1.463 . S
C1503 C1508 1.350 . S
C1503 N1511 1.427 . S
C1504 H1495 0.930 . S
C1504 C1502 1.378 . S
C1504 C1505 1.367 . S
C1505 C1504 1.367 . S
C1505 C1507 1.433 . S
C1506 C1502 1.350 . S
C1506 C1503 1.463 . S
C1506 N1510 1.427 . S
C1507 H1497 0.929 . S
C1507 C1505 1.433 . S
C1507 N1510 1.384 . S
C1508 H1499 0.929 . S
C1508 C1500 1.378 . S
C1508 C1503 1.350 . S
C1509 H1496 0.929 . S
C1509 C1501 1.433 . S
C1509 N1511 1.384 . S
N1510 C1506 1.427 . S
N1510 C1507 1.384 . S
N1511 C1503 1.427 . S
N1511 C1509 1.384 . S
H1512 C1518 0.930 . S
H1513 C1522 0.930 . S
H1514 C1527 0.929 . S
H1515 C1525 0.929 . S
H1516 C1520 0.929 . S
H1517 C1526 0.929 . S
C1518 H1512 0.930 . S
C1518 C1519 1.367 . S
C1518 C1526 1.378 . S
C1519 C1518 1.367 . S
C1519 C1527 1.433 . S
C1520 H1516 0.929 . S
C1520 C1522 1.378 . S
C1520 C1524 1.350 . S
C1521 C1524 1.463 . S
C1521 C1526 1.350 . S
C1521 N1529 1.427 . S
C1522 H1513 0.930 . S
C1522 C1520 1.378 . S
C1522 C1523 1.367 . S
C1523 C1522 1.367 . S
C1523 C1525 1.433 . S
C1524 C1520 1.350 . S
C1524 C1521 1.463 . S
C1524 N1528 1.427 . S
C1525 H1515 0.929 . S
C1525 C1523 1.433 . S
C1525 N1528 1.384 . S
C1526 H1517 0.929 . S
C1526 C1518 1.378 . S
C1526 C1521 1.350 . S
C1527 H1514 0.929 . S
C1527 C1519 1.433 . S
C1527 N1529 1.384 . S
N1528 C1524 1.427 . S
N1528 C1525 1.384 . S
N1529 C1521 1.427 . S
N1529 C1527 1.384 . S
H1530 C1536 0.930 . S
H1531 C1540 0.930 . S
H1532 C1545 0.929 . S
H1533 C1543 0.929 . S
H1534 C1538 0.929 . S
H1535 C1544 0.929 . S
C1536 H1530 0.930 . S
C1536 C1537 1.367 . S
C1536 C1544 1.378 . S
C1537 C1536 1.367 . S
C1537 C1545 1.433 . S
C1538 H1534 0.929 . S
C1538 C1540 1.378 . S
C1538 C1542 1.350 . S
C1539 C1542 1.463 . S
C1539 C1544 1.350 . S
C1539 N1547 1.427 . S
C1540 H1531 0.930 . S
C1540 C1538 1.378 . S
C1540 C1541 1.367 . S
C1541 C1540 1.367 . S
C1541 C1543 1.433 . S
C1542 C1538 1.350 . S
C1542 C1539 1.463 . S
C1542 N1546 1.427 . S
C1543 H1533 0.929 . S
C1543 C1541 1.433 . S
C1543 N1546 1.384 . S
C1544 H1535 0.929 . S
C1544 C1536 1.378 . S
C1544 C1539 1.350 . S
C1545 H1532 0.929 . S
C1545 C1537 1.433 . S
C1545 N1547 1.384 . S
N1546 C1542 1.427 . S
N1546 C1543 1.384 . S
N1547 C1539 1.427 . S
N1547 C1545 1.384 . S
H1548 C1554 0.930 . S
H1549 C1558 0.930 . S
H1550 C1563 0.929 . S
H1551 C1561 0.929 . S
H1552 C1556 0.929 . S
H1553 C1562 0.929 . S
C1554 H1548 0.930 . S
C1554 C1555 1.367 . S
C1554 C1562 1.378 . S
C1555 C1554 1.367 . S
C1555 C1563 1.433 . S
C1556 H1552 0.929 . S
C1556 C1558 1.378 . S
C1556 C1560 1.350 . S
C1557 C1560 1.463 . S
C1557 C1562 1.350 . S
C1557 N1565 1.427 . S
C1558 H1549 0.930 . S
C1558 C1556 1.378 . S
C1558 C1559 1.367 . S
C1559 C1558 1.367 . S
C1559 C1561 1.433 . S
C1560 C1556 1.350 . S
C1560 C1557 1.463 . S
C1560 N1564 1.427 . S
C1561 H1551 0.929 . S
C1561 C1559 1.433 . S
C1561 N1564 1.384 . S
C1562 H1553 0.929 . S
C1562 C1554 1.378 . S
C1562 C1557 1.350 . S
C1563 H1550 0.929 . S
C1563 C1555 1.433 . S
C1563 N1565 1.384 . S
N1564 C1560 1.427 . S
N1564 C1561 1.384 . S
N1565 C1557 1.427 . S
N1565 C1563 1.384 . S
H1566 C1572 0.930 . S
H1567 C1576 0.930 . S
H1568 C1581 0.929 . S
H1569 C1579 0.929 . S
H1570 C1574 0.929 . S
H1571 C1580 0.929 . S
C1572 H1566 0.930 . S
C1572 C1573 1.367 . S
C1572 C1580 1.378 . S
C1573 C1572 1.367 . S
C1573 C1581 1.433 . S
C1574 H1570 0.929 . S
C1574 C1576 1.378 . S
C1574 C1578 1.350 . S
C1575 C1578 1.463 . S
C1575 C1580 1.350 . S
C1575 N1583 1.427 . S
C1576 H1567 0.930 . S
C1576 C1574 1.378 . S
C1576 C1577 1.367 . S
C1577 C1576 1.367 . S
C1577 C1579 1.433 . S
C1578 C1574 1.350 . S
C1578 C1575 1.463 . S
C1578 N1582 1.427 . S
C1579 H1569 0.929 . S
C1579 C1577 1.433 . S
C1579 N1582 1.384 . S
C1580 H1571 0.929 . S
C1580 C1572 1.378 . S
C1580 C1575 1.350 . S
C1581 H1568 0.929 . S
C1581 C1573 1.433 . S
C1581 N1583 1.384 . S
N1582 C1578 1.427 . S
N1582 C1579 1.384 . S
N1583 C1575 1.427 . S
N1583 C1581 1.384 . S
H1584 C1590 0.930 . S
H1585 C1594 0.930 . S
H1586 C1599 0.929 . S
H1587 C1597 0.929 . S
H1588 C1592 0.929 . S
H1589 C1598 0.929 . S
C1590 H1584 0.930 . S
C1590 C1591 1.367 . S
C1590 C1598 1.378 . S
C1591 C1590 1.367 . S
C1591 C1599 1.433 . S
C1592 H1588 0.929 . S
C1592 C1594 1.378 . S
C1592 C1596 1.350 . S
C1593 C1596 1.463 . S
C1593 C1598 1.350 . S
C1593 N1601 1.427 . S
C1594 H1585 0.930 . S
C1594 C1592 1.378 . S
C1594 C1595 1.367 . S
C1595 C1594 1.367 . S
C1595 C1597 1.433 . S
C1596 C1592 1.350 . S
C1596 C1593 1.463 . S
C1596 N1600 1.427 . S
C1597 H1587 0.929 . S
C1597 C1595 1.433 . S
C1597 N1600 1.384 . S
C1598 H1589 0.929 . S
C1598 C1590 1.378 . S
C1598 C1593 1.350 . S
C1599 H1586 0.929 . S
C1599 C1591 1.433 . S
C1599 N1601 1.384 . S
N1600 C1596 1.427 . S
N1600 C1597 1.384 . S
N1601 C1593 1.427 . S
N1601 C1599 1.384 . S
H1602 C1608 0.930 . S
H1603 C1612 0.930 . S
H1604 C1617 0.929 . S
H1605 C1615 0.929 . S
H1606 C1610 0.929 . S
H1607 C1616 0.929 . S
C1608 H1602 0.930 . S
C1608 C1609 1.367 . S
C1608 C1616 1.378 . S
C1609 C1608 1.367 . S
C1609 C1617 1.433 . S
C1610 H1606 0.929 . S
C1610 C1612 1.378 . S
C1610 C1614 1.350 . S
C1611 C1614 1.463 . S
C1611 C1616 1.350 . S
C1611 N1619 1.427 . S
C1612 H1603 0.930 . S
C1612 C1610 1.378 . S
C1612 C1613 1.367 . S
C1613 C1612 1.367 . S
C1613 C1615 1.433 . S
C1614 C1610 1.350 . S
C1614 C1611 1.463 . S
C1614 N1618 1.427 . S
C1615 H1605 0.929 . S
C1615 C1613 1.433 . S
C1615 N1618 1.384 . S
C1616 H1607 0.929 . S
C1616 C1608 1.378 . S
C1616 C1611 1.350 . S
C1617 H1604 0.929 . S
C1617 C1609 1.433 . S
C1617 N1619 1.384 . S
N1618 C1614 1.427 . S
N1618 C1615 1.384 . S
N1619 C1611 1.427 . S
N1619 C1617 1.384 . S
H1620 C1626 0.930 . S
H1621 C1630 0.930 . S
H1622 C1635 0.929 . S
H1623 C1633 0.929 . S
H1624 C1628 0.929 . S
H1625 C1634 0.929 . S
C1626 H1620 0.930 . S
C1626 C1627 1.367 . S
C1626 C1634 1.378 . S
C1627 C1626 1.367 . S
C1627 C1635 1.433 . S
C1628 H1624 0.929 . S
C1628 C1630 1.378 . S
C1628 C1632 1.350 . S
C1629 C1632 1.463 . S
C1629 C1634 1.350 . S
C1629 N1637 1.427 . S
C1630 H1621 0.930 . S
C1630 C1628 1.378 . S
C1630 C1631 1.367 . S
C1631 C1630 1.367 . S
C1631 C1633 1.433 . S
C1632 C1628 1.350 . S
C1632 C1629 1.463 . S
C1632 N1636 1.427 . S
C1633 H1623 0.929 . S
C1633 C1631 1.433 . S
C1633 N1636 1.384 . S
C1634 H1625 0.929 . S
C1634 C1626 1.378 . S
C1634 C1629 1.350 . S
C1635 H1622 0.929 . S
C1635 C1627 1.433 . S
C1635 N1637 1.384 . S
N1636 C1632 1.427 . S
N1636 C1633 1.384 . S
N1637 C1629 1.427 . S
N1637 C1635 1.384 . S
H1638 C1644 0.930 . S
H1639 C1648 0.930 . S
H1640 C1653 0.929 . S
H1641 C1651 0.929 . S
H1642 C1646 0.929 . S
H1643 C1652 0.929 . S
C1644 H1638 0.930 . S
C1644 C1645 1.367 . S
C1644 C1652 1.378 . S
C1645 C1644 1.367 . S
C1645 C1653 1.433 . S
C1646 H1642 0.929 . S
C1646 C1648 1.378 . S
C1646 C1650 1.350 . S
C1647 C1650 1.463 . S
C1647 C1652 1.350 . S
C1647 N1655 1.427 . S
C1648 H1639 0.930 . S
C1648 C1646 1.378 . S
C1648 C1649 1.367 . S
C1649 C1648 1.367 . S
C1649 C1651 1.433 . S
C1650 C1646 1.350 . S
C1650 C1647 1.463 . S
C1650 N1654 1.427 . S
C1651 H1641 0.929 . S
C1651 C1649 1.433 . S
C1651 N1654 1.384 . S
C1652 H1643 0.929 . S
C1652 C1644 1.378 . S
C1652 C1647 1.350 . S
C1653 H1640 0.929 . S
C1653 C1645 1.433 . S
C1653 N1655 1.384 . S
N1654 C1650 1.427 . S
N1654 C1651 1.384 . S
N1655 C1647 1.427 . S
N1655 C1653 1.384 . S
H1656 C1662 0.930 . S
H1657 C1666 0.930 . S
H1658 C1671 0.929 . S
H1659 C1669 0.929 . S
H1660 C1664 0.929 . S
H1661 C1670 0.929 . S
C1662 H1656 0.930 . S
C1662 C1663 1.367 . S
C1662 C1670 1.378 . S
C1663 C1662 1.367 . S
C1663 C1671 1.433 . S
C1664 H1660 0.929 . S
C1664 C1666 1.378 . S
C1664 C1668 1.350 . S
C1665 C1668 1.463 . S
C1665 C1670 1.350 . S
C1665 N1673 1.427 . S
C1666 H1657 0.930 . S
C1666 C1664 1.378 . S
C1666 C1667 1.367 . S
C1667 C1666 1.367 . S
C1667 C1669 1.433 . S
C1668 C1664 1.350 . S
C1668 C1665 1.463 . S
C1668 N1672 1.427 . S
C1669 H1659 0.929 . S
C1669 C1667 1.433 . S
C1669 N1672 1.384 . S
C1670 H1661 0.929 . S
C1670 C1662 1.378 . S
C1670 C1665 1.350 . S
C1671 H1658 0.929 . S
C1671 C1663 1.433 . S
C1671 N1673 1.384 . S
N1672 C1668 1.427 . S
N1672 C1669 1.384 . S
N1673 C1665 1.427 . S
N1673 C1671 1.384 . S
H1674 C1680 0.930 . S
H1675 C1684 0.930 . S
H1676 C1689 0.929 . S
H1677 C1687 0.929 . S
H1678 C1682 0.929 . S
H1679 C1688 0.929 . S
C1680 H1674 0.930 . S
C1680 C1681 1.367 . S
C1680 C1688 1.378 . S
C1681 C1680 1.367 . S
C1681 C1689 1.433 . S
C1682 H1678 0.929 . S
C1682 C1684 1.378 . S
C1682 C1686 1.350 . S
C1683 C1686 1.463 . S
C1683 C1688 1.350 . S
C1683 N1691 1.427 . S
C1684 H1675 0.930 . S
C1684 C1682 1.378 . S
C1684 C1685 1.367 . S
C1685 C1684 1.367 . S
C1685 C1687 1.433 . S
C1686 C1682 1.350 . S
C1686 C1683 1.463 . S
C1686 N1690 1.427 . S
C1687 H1677 0.929 . S
C1687 C1685 1.433 . S
C1687 N1690 1.384 . S
C1688 H1679 0.929 . S
C1688 C1680 1.378 . S
C1688 C1683 1.350 . S
C1689 H1676 0.929 . S
C1689 C1681 1.433 . S
C1689 N1691 1.384 . S
N1690 C1686 1.427 . S
N1690 C1687 1.384 . S
N1691 C1683 1.427 . S
N1691 C1689 1.384 . S
H1692 C1698 0.930 . S
H1693 C1702 0.930 . S
H1694 C1707 0.929 . S
H1695 C1705 0.929 . S
H1696 C1700 0.929 . S
H1697 C1706 0.929 . S
C1698 H1692 0.930 . S
C1698 C1699 1.367 . S
C1698 C1706 1.378 . S
C1699 C1698 1.367 . S
C1699 C1707 1.433 . S
C1700 H1696 0.929 . S
C1700 C1702 1.378 . S
C1700 C1704 1.350 . S
C1701 C1704 1.463 1_455 S
C1701 C1706 1.350 . S
C1701 N1709 1.427 . S
C1702 H1693 0.930 . S
C1702 C1700 1.378 . S
C1702 C1703 1.367 . S
C1703 C1702 1.367 . S
C1703 C1705 1.433 . S
C1704 C1700 1.350 . S
C1704 C1701 1.463 1_655 S
C1704 N1708 1.427 . S
C1705 H1695 0.929 . S
C1705 C1703 1.433 . S
C1705 N1708 1.384 . S
C1706 H1697 0.929 . S
C1706 C1698 1.378 . S
C1706 C1701 1.350 . S
C1707 H1694 0.929 . S
C1707 C1699 1.433 . S
C1707 N1709 1.384 . S
N1708 C1704 1.427 . S
N1708 C1705 1.384 . S
N1709 C1701 1.427 . S
N1709 C1707 1.384 . S
H1710 C1716 0.930 . S
H1711 C1720 0.930 . S
H1712 C1725 0.929 . S
H1713 C1723 0.929 . S
H1714 C1718 0.929 . S
H1715 C1724 0.929 . S
C1716 H1710 0.930 . S
C1716 C1717 1.367 . S
C1716 C1724 1.378 . S
C1717 C1716 1.367 . S
C1717 C1725 1.433 . S
C1718 H1714 0.929 . S
C1718 C1720 1.378 . S
C1718 C1722 1.350 . S
C1719 C1722 1.463 . S
C1719 C1724 1.350 . S
C1719 N1727 1.427 . S
C1720 H1711 0.930 . S
C1720 C1718 1.378 . S
C1720 C1721 1.367 . S
C1721 C1720 1.367 . S
C1721 C1723 1.433 . S
C1722 C1718 1.350 . S
C1722 C1719 1.463 . S
C1722 N1726 1.427 . S
C1723 H1713 0.929 . S
C1723 C1721 1.433 . S
C1723 N1726 1.384 . S
C1724 H1715 0.929 . S
C1724 C1716 1.378 . S
C1724 C1719 1.350 . S
C1725 H1712 0.929 . S
C1725 C1717 1.433 . S
C1725 N1727 1.384 . S
N1726 C1722 1.427 . S
N1726 C1723 1.384 . S
N1727 C1719 1.427 . S
N1727 C1725 1.384 . S
H1728 C1734 0.930 . S
H1729 C1738 0.930 . S
H1730 C1743 0.929 . S
H1731 C1741 0.929 . S
H1732 C1736 0.929 . S
H1733 C1742 0.929 . S
C1734 H1728 0.930 . S
C1734 C1735 1.367 . S
C1734 C1742 1.378 . S
C1735 C1734 1.367 . S
C1735 C1743 1.433 . S
C1736 H1732 0.929 . S
C1736 C1738 1.378 . S
C1736 C1740 1.350 . S
C1737 C1740 1.463 1_545 S
C1737 C1742 1.350 . S
C1737 N1745 1.427 . S
C1738 H1729 0.930 . S
C1738 C1736 1.378 . S
C1738 C1739 1.367 . S
C1739 C1738 1.367 . S
C1739 C1741 1.433 . S
C1740 C1736 1.350 . S
C1740 C1737 1.463 1_565 S
C1740 N1744 1.427 . S
C1741 H1731 0.929 . S
C1741 C1739 1.433 . S
C1741 N1744 1.384 . S
C1742 H1733 0.929 . S
C1742 C1734 1.378 . S
C1742 C1737 1.350 . S
C1743 H1730 0.929 . S
C1743 C1735 1.433 . S
C1743 N1745 1.384 . S
N1744 C1740 1.427 . S
N1744 C1741 1.384 . S
N1745 C1737 1.427 . S
N1745 C1743 1.384 . S
H1746 C1752 0.930 . S
H1747 C1756 0.930 . S
H1748 C1761 0.929 . S
H1749 C1759 0.929 . S
H1750 C1754 0.929 . S
H1751 C1760 0.929 . S
C1752 H1746 0.930 . S
C1752 C1753 1.367 1_556 S
C1752 C1760 1.378 . S
C1753 C1752 1.367 1_554 S
C1753 C1761 1.433 . S
C1754 H1750 0.929 . S
C1754 C1756 1.378 . S
C1754 C1758 1.350 1_554 S
C1755 C1758 1.463 1_544 S
C1755 C1760 1.350 1_554 S
C1755 N1763 1.427 . S
C1756 H1747 0.930 . S
C1756 C1754 1.378 . S
C1756 C1757 1.367 1_554 S
C1757 C1756 1.367 1_556 S
C1757 C1759 1.433 . S
C1758 C1754 1.350 1_556 S
C1758 C1755 1.463 1_566 S
C1758 N1762 1.427 . S
C1759 H1749 0.929 . S
C1759 C1757 1.433 . S
C1759 N1762 1.384 . S
C1760 H1751 0.929 . S
C1760 C1752 1.378 . S
C1760 C1755 1.350 1_556 S
C1761 H1748 0.929 . S
C1761 C1753 1.433 . S
C1761 N1763 1.384 . S
N1762 C1758 1.427 . S
N1762 C1759 1.384 . S
N1763 C1755 1.427 . S
N1763 C1761 1.384 . S
H1764 C1770 0.930 . S
H1765 C1774 0.930 . S
H1766 C1779 0.929 . S
H1767 C1777 0.929 . S
H1768 C1772 0.929 . S
H1769 C1778 0.929 . S
C1770 H1764 0.930 . S
C1770 C1771 1.367 . S
C1770 C1778 1.378 . S
C1771 C1770 1.367 . S
C1771 C1779 1.433 1_554 S
C1772 H1768 0.929 . S
C1772 C1774 1.378 . S
C1772 C1776 1.350 . S
C1773 C1776 1.463 1_654 S
C1773 C1778 1.350 . S
C1773 N1781 1.427 1_554 S
C1774 H1765 0.930 . S
C1774 C1772 1.378 . S
C1774 C1775 1.367 . S
C1775 C1774 1.367 . S
C1775 C1777 1.433 1_556 S
C1776 C1772 1.350 . S
C1776 C1773 1.463 1_456 S
C1776 N1780 1.427 1_556 S
C1777 H1767 0.929 . S
C1777 C1775 1.433 1_554 S
C1777 N1780 1.384 . S
C1778 H1769 0.929 . S
C1778 C1770 1.378 . S
C1778 C1773 1.350 . S
C1779 H1766 0.929 . S
C1779 C1771 1.433 1_556 S
C1779 N1781 1.384 . S
N1780 C1776 1.427 1_554 S
N1780 C1777 1.384 . S
N1781 C1773 1.427 1_556 S
N1781 C1779 1.384 . S
H1782 C1788 0.930 . S
H1783 C1792 0.930 . S
H1784 C1797 0.929 . S
H1785 C1795 0.929 . S
H1786 C1790 0.929 . S
H1787 C1796 0.929 . S
C1788 H1782 0.930 . S
C1788 C1789 1.367 . S
C1788 C1796 1.378 . S
C1789 C1788 1.367 . S
C1789 C1797 1.433 . S
C1790 H1786 0.929 . S
C1790 C1792 1.378 . S
C1790 C1794 1.350 . S
C1791 C1794 1.463 1_554 S
C1791 C1796 1.350 . S
C1791 N1799 1.427 . S
C1792 H1783 0.930 . S
C1792 C1790 1.378 . S
C1792 C1793 1.367 . S
C1793 C1792 1.367 . S
C1793 C1795 1.433 . S
C1794 C1790 1.350 . S
C1794 C1791 1.463 1_556 S
C1794 N1798 1.427 . S
C1795 H1785 0.929 . S
C1795 C1793 1.433 . S
C1795 N1798 1.384 . S
C1796 H1787 0.929 . S
C1796 C1788 1.378 . S
C1796 C1791 1.350 . S
C1797 H1784 0.929 . S
C1797 C1789 1.433 . S
C1797 N1799 1.384 . S
N1798 C1794 1.427 . S
N1798 C1795 1.384 . S
N1799 C1791 1.427 . S
N1799 C1797 1.384 . S
C511 C147 1.198 . S
C515 C3 1.178 . S
C529 C161 1.200 . S
C533 C17 1.164 . S
C547 C31 1.173 . S
C551 C133 1.195 . S
C565 C45 1.169 . S
C569 C119 1.197 . S
C583 C59 1.162 . S
C587 C91 1.202 . S
C601 C105 1.198 . S
C605 C73 1.177 . S
C619 C63 1.195 . S
C623 C87 1.176 . S
C637 C77 1.202 . S
C641 C101 1.162 . S
C655 C115 1.162 . S
C659 C49 1.202 . S
C673 C35 1.194 . S
C677 C129 1.178 . S
C691 C143 1.175 . S
C695 C7 1.194 . S
C709 C157 1.175 . S
C713 C21 1.199 . S
C727 C315 1.203 . S
C731 C171 1.163 . S
C745 C329 1.202 . S
C749 C185 1.162 . S
C763 C199 1.172 . S
C767 C301 1.196 . S
C781 C213 1.169 . S
C785 C287 1.202 . S
C799 C227 1.174 . S
C803 C259 1.199 . S
C817 C241 1.165 . S
C821 C273 1.203 . S
C835 C231 1.203 . S
C839 C255 1.165 . S
C853 C245 1.201 . S
C857 C269 1.164 . S
C871 C217 1.200 . S
C875 C283 1.173 . S
C889 C203 1.194 . S
C893 C297 1.179 . S
C907 C175 1.200 . S
C911 C311 1.164 . S
C925 C189 1.195 . S
C929 C325 1.180 . S
C943 C339 1.165 . S
C947 C483 1.203 . S
C961 C497 1.197 . S
C965 C353 1.169 . S
C979 C469 1.194 . S
C983 C367 1.180 . S
C997 C381 1.170 . S
C1001 C455 1.201 . S
C1015 C395 1.164 . S
C1019 C427 1.200 . S
C1033 C409 1.179 . S
C1037 C441 1.194 . S
C1051 C399 1.195 . S
C1055 C423 1.177 . S
C1069 C413 1.198 . S
C1073 C437 1.177 . S
C1087 C385 1.196 . S
C1091 C451 1.172 . S
C1105 C465 1.163 . S
C1109 C371 1.202 . S
C1123 C343 1.200 . S
C1127 C479 1.164 . S
C1141 C493 1.162 . S
C1145 C357 1.202 . S
C1159 C50 1.523 . S
C1163 C8 1.520 . S
C1177 C64 1.523 . S
C1181 C22 1.522 . S
C1195 C36 1.523 . S
C1199 C78 1.521 . S
C1213 C134 1.520 . S
C1217 C92 1.523 . S
C1231 C148 1.521 . S
C1235 C106 1.521 . S
C1249 C162 1.522 . S
C1253 C120 1.520 . S
C1267 C218 1.520 . S
C1271 C176 1.521 . S
C1285 C232 1.520 . S
C1289 C190 1.522 . S
C1303 C204 1.520 . S
C1307 C246 1.523 . S
C1321 C260 1.520 . S
C1325 C302 1.521 . S
C1339 C316 1.523 . S
C1343 C274 1.520 . S
C1357 C288 1.523 . S
C1361 C330 1.522 . S
C1375 C386 1.520 . S
C1379 C344 1.521 . S
C1393 C400 1.521 . S
C1397 C358 1.522 . S
C1411 C372 1.522 . S
C1415 C414 1.523 . S
C1429 C428 1.521 . S
C1433 C470 1.521 . S
C1447 C442 1.523 . S
C1451 C484 1.521 . S
C1465 C456 1.520 . S
C1469 C498 1.522 . S
C1483 C9 1.488 . S
C1487 C261 1.488 . S
C1501 C275 1.495 . S
C1505 C23 1.495 . S
C1519 C289 1.495 . S
C1523 C37 1.495 . S
C1537 C471 1.498 . S
C1541 C51 1.498 . S
C1555 C485 1.488 . S
C1559 C65 1.488 . S
C1573 C499 1.489 . S
C1577 C79 1.489 . S
C1591 C93 1.492 . S
C1595 C345 1.492 . S
C1609 C359 1.494 . S
C1613 C107 1.494 . S
C1627 C373 1.497 . S
C1631 C121 1.497 . S
C1645 C135 1.488 . S
C1649 C219 1.488 . S
C1663 C149 1.497 . S
C1667 C233 1.497 . S
C1681 C163 1.495 . S
C1685 C247 1.495 . S
C1699 C429 1.497 . S
C1703 C177 1.497 . S
C1717 C443 1.490 . S
C1721 C191 1.490 . S
C1735 C205 1.493 . S
C1739 C457 1.493 . S
C1753 C303 1.493 . S
C1757 C387 1.493 . S
C1771 C317 1.497 . S
C1775 C401 1.497 . S
C1789 C331 1.498 . S
C1793 C415 1.498 . S
