# Generated by pormake.
# Topology dia, (4)-cn, num edge types: 1
# Building blocks:
#     Node 0, Type 0, BuildingBlock: KUFVIS_clean_sbu_0, # of connection points: 4
#     Node 1, Type 0, BuildingBlock: KUFVIS_clean_sbu_0, # of connection points: 4
#     Node 2, Type 0, BuildingBlock: KUFVIS_clean_sbu_0, # of connection points: 4
#     Node 3, Type 0, BuildingBlock: KUFVIS_clean_sbu_0, # of connection points: 4
#     Node 4, Type 0, BuildingBlock: KUFVIS_clean_sbu_0, # of connection points: 4
#     Node 5, Type 0, BuildingBlock: KUFVIS_clean_sbu_0, # of connection points: 4
#     Node 6, Type 0, BuildingBlock: KUFVIS_clean_sbu_0, # of connection points: 4
#     Node 7, Type 0, BuildingBlock: KUFVIS_clean_sbu_0, # of connection points: 4
#     Edge 8, Type (0, 0), BuildingBlock: OJICUG_clean_linker_0, # of connection points: 2
#     Edge 9, Type (0, 0), BuildingBlock: OJICUG_clean_linker_0, # of connection points: 2
#     Edge 10, Type (0, 0), BuildingBlock: OJICUG_clean_linker_0, # of connection points: 2
#     Edge 11, Type (0, 0), BuildingBlock: OJICUG_clean_linker_0, # of connection points: 2
#     Edge 12, Type (0, 0), BuildingBlock: OJICUG_clean_linker_0, # of connection points: 2
#     Edge 13, Type (0, 0), BuildingBlock: OJICUG_clean_linker_0, # of connection points: 2
#     Edge 14, Type (0, 0), BuildingBlock: OJICUG_clean_linker_0, # of connection points: 2
#     Edge 15, Type (0, 0), BuildingBlock: OJICUG_clean_linker_0, # of connection points: 2
#     Edge 16, Type (0, 0), BuildingBlock: OJICUG_clean_linker_0, # of connection points: 2
#     Edge 17, Type (0, 0), BuildingBlock: OJICUG_clean_linker_0, # of connection points: 2
#     Edge 18, Type (0, 0), BuildingBlock: OJICUG_clean_linker_0, # of connection points: 2
#     Edge 19, Type (0, 0), BuildingBlock: OJICUG_clean_linker_0, # of connection points: 2
#     Edge 20, Type (0, 0), BuildingBlock: OJICUG_clean_linker_0, # of connection points: 2
#     Edge 21, Type (0, 0), BuildingBlock: OJICUG_clean_linker_0, # of connection points: 2
#     Edge 22, Type (0, 0), BuildingBlock: OJICUG_clean_linker_0, # of connection points: 2
#     Edge 23, Type (0, 0), BuildingBlock: OJICUG_clean_linker_0, # of connection points: 2
# Relax obj value: 0.070
# Max RMSD: 0.124
# Mean RMSD: 0.124
data_MOF--net-dia--node1-KUFVIS_clean_sbu_0--edge1-OJICUG_clean_linker_0
_symmetry_space_group_name_H-M    P1
_symmetry_Int_Tables_number       1
_symmetry_cell_setting            triclinic
loop_
_symmetry_equiv_pos_as_xyz
'x, y, z'
_cell_length_a     27.541335
_cell_length_b     23.440735
_cell_length_c     23.412014
_cell_angle_alpha  90.92225
_cell_angle_beta   91.400196
_cell_angle_gamma 91.434656
loop_
_atom_site_label
_atom_site_type_symbol
_atom_site_fract_x
_atom_site_fract_y
_atom_site_fract_z
_atom_type_partial_charge
Mn0 Mn 0.13126 0.15182 0.64399 0.0
Mn1 Mn 0.18372 0.04851 0.56602 0.0
C2 C 0.08981 0.10835 0.56652 0.0
C3 C 0.08488 0.18688 0.71845 0.0
C4 C 0.20831 0.17361 0.55274 0.0
O5 O 0.18536 0.12583 0.69852 0.0
O6 O 0.21853 0.06059 0.64059 0.0
C7 C 0.15906 0.95271 0.64198 0.0
N8 N 0.15754 0.97645 0.58923 0.0
C9 C 0.11163 0.89582 0.54993 0.0
C10 C 0.11304 0.87034 0.60368 0.0
C11 C 0.13683 0.89896 0.64991 0.0
C12 C 0.13481 0.94926 0.54444 0.0
H13 H 0.17685 0.97466 0.67787 0.0
C14 C 0.21698 0.08821 0.68816 0.0
O15 O 0.11745 0.21837 0.69429 0.0
O16 O 0.07999 0.13415 0.70083 0.0
N17 N 0.15324 0.03108 0.4933 0.0
C18 C 0.15287 0.06278 0.44501 0.0
C19 C 0.12954 0.04069 0.39511 0.0
C20 C 0.10701 0.98626 0.39536 0.0
C21 C 0.10846 0.95417 0.44537 0.0
C22 C 0.13293 0.97797 0.49349 0.0
H23 H 0.16986 0.1048 0.44472 0.0
O24 O 0.07865 0.15921 0.58368 0.0
O25 O 0.12514 0.08488 0.59454 0.0
O26 O 0.18081 0.18991 0.59247 0.0
O27 O 0.21225 0.12123 0.53809 0.0
C28 C 0.08533 0.90023 0.44989 0.0
C29 C 0.08694 0.87102 0.50201 0.0
H30 H 0.09551 0.82913 0.61008 0.0
H31 H 0.13779 0.87978 0.69165 0.0
H32 H 0.12855 0.06575 0.35671 0.0
H33 H 0.08834 0.96973 0.35708 0.0
H34 H 0.06504 0.8815 0.41408 0.0
H35 H 0.0683 0.82997 0.50503 0.0
Mn36 Mn 0.90872 0.39939 0.88035 0.0
Mn37 Mn 0.85877 0.48098 0.983 0.0
C38 C 0.95072 0.47786 0.91964 0.0
C39 C 0.95365 0.32369 0.84524 0.0
C40 C 0.83005 0.48776 0.85811 0.0
O41 O 0.85542 0.34634 0.9105 0.0
O42 O 0.82561 0.40489 0.97784 0.0
C43 C 0.88921 0.41343 0.08299 0.0
N44 N 0.88835 0.4641 0.05533 0.0
C45 C 0.93468 0.51127 0.1316 0.0
C46 C 0.93575 0.45969 0.16104 0.0
C47 C 0.91301 0.41055 0.13656 0.0
C48 C 0.91023 0.51163 0.07845 0.0
H49 H 0.87204 0.37544 0.06425 0.0
C50 C 0.82634 0.35683 0.95096 0.0
O51 O 0.9201 0.34756 0.81498 0.0
O52 O 0.96036 0.34243 0.89754 0.0
N53 N 0.88833 0.55535 0.99339 0.0
C54 C 0.8869 0.60071 0.95775 0.0
C55 C 0.90928 0.65282 0.97517 0.0
C56 C 0.93265 0.65786 0.02908 0.0
C57 C 0.9333 0.61075 0.0652 0.0
C58 C 0.90994 0.56007 0.0458 0.0
H59 H 0.86908 0.59707 0.91621 0.0
O60 O 0.96105 0.45903 0.869 0.0
O61 O 0.91605 0.45084 0.94518 0.0
O62 O 0.85864 0.44926 0.84207 0.0
O63 O 0.82634 0.5032 0.9103 0.0
C64 C 0.95717 0.61172 0.11915 0.0
C65 C 0.958 0.56196 0.15223 0.0
H66 H 0.95438 0.45718 0.20218 0.0
H67 H 0.91397 0.37048 0.15885 0.0
H68 H 0.90872 0.68895 0.94699 0.0
H69 H 0.95037 0.69792 0.04208 0.0
H70 H 0.9758 0.65022 0.13507 0.0
H71 H 0.97732 0.56283 0.19309 0.0
Mn72 Mn 0.63215 0.15355 0.14259 0.0
Mn73 Mn 0.68415 0.05269 0.06074 0.0
C74 C 0.59045 0.11263 0.06397 0.0
C75 C 0.58592 0.18562 0.21853 0.0
C76 C 0.71079 0.17824 0.05483 0.0
O77 O 0.68659 0.12507 0.1954 0.0
O78 O 0.71626 0.05687 0.13763 0.0
C79 C 0.6541 0.95035 0.12497 0.0
N80 N 0.65514 0.97954 0.07516 0.0
C81 C 0.60966 0.90434 0.02517 0.0
C82 C 0.60839 0.87333 0.07585 0.0
C83 C 0.63064 0.89649 0.12596 0.0
C84 C 0.63389 0.95761 0.02666 0.0
H85 H 0.67085 0.96815 0.16368 0.0
C86 C 0.71567 0.08447 0.1854 0.0
O87 O 0.61846 0.21807 0.19552 0.0
O88 O 0.58116 0.1335 0.19904 0.0
N89 N 0.6556 0.04407 0.98568 0.0
C90 C 0.65689 0.08124 0.94152 0.0
C91 C 0.63482 0.0654 0.88876 0.0
C92 C 0.61172 1.01156 0.88192 0.0
C93 C 0.61113 0.97395 0.92787 0.0
C94 C 0.63433 0.99172 0.9792 0.0
H95 H 0.67433 0.12283 0.94656 0.0
O96 O 0.57905 0.16277 0.08299 0.0
O97 O 0.6261 0.08871 0.09075 0.0
O98 O 0.68108 0.19407 0.09233 0.0
O99 O 0.71608 0.12606 0.04067 0.0
C100 C 0.58722 0.9202 0.92516 0.0
C101 C 0.5865 0.88532 0.97371 0.0
H102 H 0.58991 0.83204 0.07696 0.0
H103 H 0.6295 0.87299 0.16534 0.0
H104 H 0.6353 0.09476 0.85357 0.0
H105 H 0.59411 0.99979 0.84141 0.0
H106 H 0.56828 0.90613 0.88625 0.0
H107 H 0.56717 0.8445 0.97137 0.0
Mn108 Mn 0.91276 0.89388 0.38408 0.0
Mn109 Mn 0.86091 0.97164 0.48811 0.0
C110 C 0.95461 0.97096 0.42764 0.0
C111 C 0.95846 0.8192 0.34846 0.0
C112 C 0.83542 0.98474 0.36307 0.0
O113 O 0.85861 0.83961 0.41036 0.0
O114 O 0.82623 0.89703 0.47667 0.0
C115 C 0.88641 0.89636 0.58416 0.0
N116 N 0.88766 0.94891 0.56011 0.0
C117 C 0.93373 0.98883 0.64037 0.0
C118 C 0.93261 0.93529 0.66617 0.0
C119 C 0.90887 0.88884 0.63789 0.0
C120 C 0.91034 0.9939 0.58696 0.0
H121 H 0.86862 0.86033 0.56247 0.0
C122 C 0.82747 0.8497 0.44866 0.0
O123 O 0.92586 0.84363 0.31726 0.0
O124 O 0.96389 0.83679 0.40121 0.0
N125 N 0.8914 0.04442 0.50486 0.0
C126 C 0.89161 0.09241 0.47277 0.0
C127 C 0.91494 0.14245 0.49443 0.0
C128 C 0.93764 0.14265 0.54883 0.0
C129 C 0.93641 0.09291 0.5813 0.0
C130 C 0.91196 0.04462 0.55791 0.0
H131 H 0.87447 0.09237 0.43079 0.0
O132 O 0.96556 0.95395 0.37659 0.0
O133 O 0.91923 0.94306 0.45117 0.0
O134 O 0.86319 0.94549 0.34641 0.0
O135 O 0.83163 0.99914 0.41558 0.0
C136 C 0.95971 0.08882 0.63523 0.0
C137 C 0.95835 0.03695 0.66481 0.0
H138 H 0.95032 0.9292 0.70737 0.0
H139 H 0.90813 0.84725 0.65733 0.0
H140 H 0.91577 0.18064 0.46907 0.0
H141 H 0.95629 0.18103 0.56503 0.0
H142 H 0.97993 0.12478 0.6537 0.0
H143 H 0.97714 0.03426 0.70583 0.0
Mn144 Mn 0.12979 0.65403 0.13302 0.0
Mn145 Mn 0.17911 0.54975 0.05299 0.0
C146 C 0.08739 0.61373 0.05528 0.0
C147 C 0.08562 0.68995 0.20901 0.0
C148 C 0.20796 0.67422 0.04342 0.0
O149 O 0.18331 0.62487 0.18629 0.0
O150 O 0.21246 0.55612 0.12899 0.0
C151 C 0.14839 0.45133 0.12251 0.0
N152 N 0.14929 0.47801 0.07127 0.0
C153 C 0.10284 0.40111 0.02543 0.0
C154 C 0.10171 0.37266 0.07762 0.0
C155 C 0.12449 0.39796 0.12639 0.0
C156 C 0.12737 0.45411 0.02411 0.0
H157 H 0.16561 0.47069 0.16021 0.0
C158 C 0.2121 0.58404 0.17652 0.0
O159 O 0.11881 0.72004 0.18425 0.0
O160 O 0.07861 0.63759 0.19075 0.0
N161 N 0.14945 0.53816 0.97876 0.0
C162 C 0.151 0.57287 0.93266 0.0
C163 C 0.12863 0.55456 0.88078 0.0
C164 C 0.10516 0.5007 0.87673 0.0
C165 C 0.1044 0.46552 0.92458 0.0
C166 C 0.12775 0.4858 0.97499 0.0
H167 H 0.16892 0.61435 0.93552 0.0
O168 O 0.07716 0.66454 0.07357 0.0
O169 O 0.12206 0.58847 0.08259 0.0
O170 O 0.17957 0.69126 0.08179 0.0
O171 O 0.21171 0.62173 0.02934 0.0
C172 C 0.08046 0.41169 0.92459 0.0
C173 C 0.07954 0.3796 0.97504 0.0
H174 H 0.08303 0.33166 0.08089 0.0
H175 H 0.1235 0.37643 0.16691 0.0
H176 H 0.12929 0.582 0.84407 0.0
H177 H 0.08746 0.487 0.83683 0.0
H178 H 0.06188 0.39509 0.8863 0.0
H179 H 0.06017 0.33883 0.9749 0.0
Mn180 Mn 0.40745 0.39554 0.37931 0.0
Mn181 Mn 0.35659 0.47697 0.48123 0.0
C182 C 0.44944 0.47396 0.41924 0.0
C183 C 0.4526 0.31977 0.34482 0.0
C184 C 0.32849 0.48308 0.35607 0.0
O185 O 0.35354 0.34259 0.40883 0.0
O186 O 0.32443 0.40016 0.47754 0.0
C187 C 0.38798 0.41253 0.58291 0.0
N188 N 0.38656 0.46236 0.55387 0.0
C189 C 0.43326 0.512 0.62831 0.0
C190 C 0.43494 0.46129 0.65917 0.0
C191 C 0.41226 0.41134 0.63632 0.0
C192 C 0.40821 0.51071 0.5755 0.0
H193 H 0.37092 0.37393 0.56534 0.0
C194 C 0.32491 0.35241 0.44997 0.0
O195 O 0.41937 0.34372 0.31416 0.0
O196 O 0.45877 0.33836 0.39724 0.0
N197 N 0.38524 0.55193 0.48953 0.0
C198 C 0.38336 0.59617 0.45252 0.0
C199 C 0.40566 0.64883 0.46812 0.0
C200 C 0.4296 0.65546 0.52154 0.0
C201 C 0.43078 0.60942 0.55899 0.0
C202 C 0.4073 0.55821 0.54151 0.0
H203 H 0.36529 0.59129 0.41124 0.0
O204 O 0.46021 0.455 0.3688 0.0
O205 O 0.41432 0.44705 0.44416 0.0
O206 O 0.35809 0.4457 0.34002 0.0
O207 O 0.32361 0.49729 0.40837 0.0
C208 C 0.45555 0.61191 0.61226 0.0
C209 C 0.45679 0.56329 0.64699 0.0
H210 H 0.45405 0.46004 0.70011 0.0
H211 H 0.4137 0.37194 0.65971 0.0
H212 H 0.40472 0.68409 0.43888 0.0
H213 H 0.4474 0.69588 0.5331 0.0
H214 H 0.47478 0.65071 0.62602 0.0
H215 H 0.47678 0.56544 0.68741 0.0
Mn216 Mn 0.41455 0.89601 0.88363 0.0
Mn217 Mn 0.36275 0.97252 0.98857 0.0
C218 C 0.45609 0.97306 0.92701 0.0
C219 C 0.4595 0.82032 0.84861 0.0
C220 C 0.3376 0.98778 0.8638 0.0
O221 O 0.36046 0.84166 0.90919 0.0
O222 O 0.32776 0.89833 0.97574 0.0
C223 C 0.38818 0.89499 0.08279 0.0
N224 N 0.38944 0.94812 0.05999 0.0
C225 C 0.43543 0.98619 0.14115 0.0
C226 C 0.43429 0.93204 0.16568 0.0
C227 C 0.4106 0.88622 0.13631 0.0
C228 C 0.41213 0.99249 0.08786 0.0
H229 H 0.37043 0.85945 0.06027 0.0
C230 C 0.32912 0.85135 0.94721 0.0
O231 O 0.4274 0.84538 0.81713 0.0
O232 O 0.46535 0.8385 0.90112 0.0
N233 N 0.39323 0.04494 1.00699 0.0
C234 C 0.39314 0.09381 0.97624 0.0
C235 C 0.41623 0.14344 0.99922 0.0
C236 C 0.43893 0.14235 0.05359 0.0
C237 C 0.43789 0.09176 0.08472 0.0
C238 C 0.41369 0.04392 0.06005 0.0
H239 H 0.37594 0.09477 0.93434 0.0
O240 O 0.46729 0.95592 0.87609 0.0
O241 O 0.42101 0.94485 0.95082 0.0
O242 O 0.36501 0.94836 0.84641 0.0
O243 O 0.33384 1.0014 0.91653 0.0
C244 C 0.46109 0.08641 0.13857 0.0
C245 C 0.45987 0.03379 0.1668 0.0
H246 H 0.45192 0.92501 0.20675 0.0
H247 H 0.40984 0.84418 0.15476 0.0
H248 H 0.41687 0.18231 0.97491 0.0
H249 H 0.45737 0.18045 0.0708 0.0
H250 H 0.48107 0.12199 0.15808 0.0
H251 H 0.47856 0.03018 0.20779 0.0
Mn252 Mn 0.62688 0.65143 0.63483 0.0
Mn253 Mn 0.67776 0.54825 0.55477 0.0
C254 C 0.58509 0.6106 0.55656 0.0
C255 C 0.58224 0.68471 0.7117 0.0
C256 C 0.70537 0.67327 0.54571 0.0
O257 O 0.68082 0.62331 0.688 0.0
O258 O 0.71084 0.55494 0.63098 0.0
C259 C 0.64786 0.44917 0.62384 0.0
N260 N 0.64865 0.47601 0.57268 0.0
C261 C 0.60316 0.39859 0.52641 0.0
C262 C 0.60217 0.36997 0.57851 0.0
C263 C 0.62452 0.39545 0.62745 0.0
C264 C 0.62715 0.45193 0.52535 0.0
H265 H 0.66475 0.46869 0.66166 0.0
C266 C 0.71017 0.58305 0.6784 0.0
O267 O 0.61468 0.71644 0.68751 0.0
O268 O 0.57594 0.6328 0.69204 0.0
N269 N 0.64855 0.5364 0.48033 0.0
C270 C 0.64994 0.57125 0.43433 0.0
C271 C 0.62793 0.55278 0.3823 0.0
C272 C 0.60499 0.49863 0.378 0.0
C273 C 0.60441 0.46331 0.42575 0.0
C274 C 0.62738 0.48376 0.47632 0.0
H275 H 0.66744 0.61295 0.43739 0.0
O276 O 0.57407 0.66103 0.57519 0.0
O277 O 0.62014 0.58604 0.58388 0.0
O278 O 0.67649 0.69004 0.58381 0.0
O279 O 0.70961 0.62082 0.53165 0.0
C280 C 0.58101 0.40915 0.42549 0.0
C281 C 0.58025 0.3769 0.47584 0.0
H282 H 0.58391 0.3287 0.58157 0.0
H283 H 0.62363 0.37379 0.6679 0.0
H284 H 0.62844 0.58033 0.34567 0.0
H285 H 0.58756 0.48481 0.33798 0.0
H286 H 0.56271 0.39238 0.38709 0.0
H287 H 0.56132 0.33584 0.47548 0.0
C288 C 0.2991 0.2482 0.45608 0.0
C289 C 0.29234 0.30594 0.47063 0.0
H290 H 0.27814 0.16077 0.47066 0.0
C291 C 0.25617 0.31922 0.50971 0.0
H292 H 0.32674 0.23639 0.42629 0.0
C293 C 0.22881 0.2763 0.53522 0.0
C294 C 0.23654 0.21845 0.52255 0.0
H295 H 0.24945 0.36308 0.52176 0.0
H296 H 0.2019 0.2888 0.56567 0.0
C297 C 0.27144 0.20485 0.4818 0.0
C298 C 0.78001 0.5257 0.71205 0.0
C299 C 0.74333 0.56412 0.72494 0.0
H300 H 0.83548 0.47196 0.74311 0.0
C301 C 0.73669 0.57977 0.7825 0.0
H302 H 0.78659 0.51287 0.66832 0.0
C303 C 0.76511 0.55581 0.82618 0.0
C304 C 0.80062 0.51577 0.81301 0.0
H305 H 0.70864 0.60913 0.79396 0.0
H306 H 0.75863 0.5678 0.87015 0.0
C307 C 0.80812 0.50193 0.75528 0.0
C308 C 0.53834 0.09819 0.9748 0.0
C309 C 0.55598 0.07854 0.02753 0.0
H310 H 0.49327 0.07892 0.90007 0.0
C311 C 0.53975 0.02529 0.04691 0.0
H312 H 0.55017 0.13943 0.95936 0.0
C313 C 0.50765 0.99126 1.01358 0.0
C314 C 0.48993 1.01046 0.9609 0.0
H315 H 0.55211 1.00975 0.08797 0.0
H316 H 0.49657 0.94975 0.02912 0.0
C317 C 0.50614 0.06371 0.94102 0.0
C318 C 0.97698 0.72756 0.29773 0.0
C319 C 0.99276 0.78031 0.32177 0.0
H320 H 0.99485 0.656 0.24438 0.0
C321 C 0.04022 0.80014 0.31246 0.0
H322 H 0.94006 0.71207 0.30346 0.0
C323 C 0.07116 0.76879 0.27849 0.0
C324 C 0.05522 0.71688 0.25269 0.0
H325 H 0.05241 0.84183 0.32799 0.0
H326 H 0.10695 0.78661 0.27034 0.0
C327 C 1.00827 0.6956 0.26401 0.0
C328 C 0.27133 0.05538 0.83485 0.0
C329 C 0.30906 0.01886 0.81997 0.0
H330 H 0.21255 0.10666 0.8049 0.0
C331 C 0.31899 1.01091 0.76184 0.0
H332 H 0.26292 0.06285 0.87925 0.0
C333 C 0.2907 0.03631 0.71967 0.0
C334 C 0.25134 0.07036 0.73409 0.0
H335 H 0.34821 0.98402 0.74853 0.0
H336 H 0.29894 0.02764 0.6754 0.0
C337 C 0.24266 0.08085 0.79227 0.0
C338 C 1.00274 0.49486 1.00538 0.0
C339 C 0.9857 0.51426 0.9525 0.0
H340 H 0.04688 0.51267 0.07998 0.0
C341 C 1.0029 0.56688 0.93225 0.0
H342 H 0.99073 0.45382 0.02123 0.0
C343 C 0.03561 0.60064 0.96596 0.0
C344 C 0.05249 0.58075 0.01891 0.0
H345 H 0.99037 0.58219 0.8912 0.0
H346 H 0.04838 0.64145 0.95038 0.0
C347 C 0.03513 0.52821 0.03868 0.0
C348 C 0.47157 0.25533 0.26338 0.0
C349 C 0.48432 0.27726 0.31808 0.0
H350 H 0.49466 0.21109 0.18893 0.0
C351 C 0.52966 0.2636 0.34257 0.0
H352 H 0.43722 0.26543 0.2429 0.0
C353 C 0.56246 0.23106 0.31144 0.0
C354 C 0.54986 0.21094 0.25606 0.0
H355 H 0.54071 0.28034 0.38435 0.0
H356 H 0.59815 0.22331 0.32973 0.0
C357 C 0.50411 0.22308 0.23264 0.0
C358 C 0.75444 0.81788 0.50174 0.0
C359 C 0.79315 0.80379 0.46649 0.0
H360 H 0.69706 0.78856 0.55401 0.0
C361 C 0.80105 0.74582 0.45429 0.0
H362 H 0.74683 0.86199 0.51179 0.0
C363 C 0.7721 0.70304 0.47897 0.0
C364 C 0.73483 0.71749 0.51637 0.0
H365 H 0.83065 0.73344 0.42751 0.0
H366 H 0.77975 0.65876 0.46993 0.0
C367 C 0.72586 0.77551 0.52632 0.0
C368 C 0.28061 0.5245 0.21005 0.0
C369 C 0.24454 0.56369 0.2231 0.0
H370 H 0.33459 0.46859 0.24092 0.0
C371 C 0.23739 0.57829 0.2808 0.0
H372 H 0.2875 0.51236 0.1662 0.0
C373 C 0.26474 0.55266 0.32438 0.0
C374 C 0.29967 0.51196 0.31102 0.0
H375 H 0.20974 0.60812 0.29239 0.0
H376 H 0.25797 0.56405 0.36844 0.0
C377 C 0.30765 0.49904 0.25321 0.0
C378 C 0.75841 0.3239 1.01201 0.0
C379 C 0.79408 0.31054 0.97229 0.0
H380 H 0.70493 0.29344 0.06902 0.0
C381 C 0.80104 0.25283 0.95802 0.0
H382 H 0.75169 0.36778 0.02398 0.0
C383 C 0.77392 0.20956 0.98437 0.0
C384 C 0.73937 0.22321 0.02551 0.0
H385 H 0.82836 0.24098 0.92783 0.0
H386 H 0.78056 0.1655 0.97311 0.0
C387 C 0.73157 0.281 0.03822 0.0
C388 C 0.81399 1.00199 0.2605 0.0
C389 C 0.80648 1.01441 0.31852 0.0
H390 H 0.79237 1.01485 0.17385 0.0
C391 C 0.77092 0.05415 0.33256 0.0
H392 H 0.84136 0.97231 0.24767 0.0
C393 C 0.7424 0.07906 0.28947 0.0
C394 C 0.74895 0.06468 0.23159 0.0
H395 H 0.76435 0.06504 0.37678 0.0
H396 H 0.71429 0.10805 0.30161 0.0
C397 C 0.78578 0.02669 0.21785 0.0
C398 C 1.00619 0.06043 0.4424 0.0
C399 C 0.98899 1.00749 0.46198 0.0
H400 H 0.05108 0.13532 0.46135 0.0
C401 C 1.00608 0.9879 0.51485 0.0
H402 H 0.99382 0.07604 0.40141 0.0
C403 C 0.03852 0.02124 0.54856 0.0
C404 C 0.05571 0.07421 0.52945 0.0
H405 H 0.99421 0.94663 0.53025 0.0
H406 H 0.05024 1.00551 0.58979 0.0
C407 C 0.03865 0.09422 0.47657 0.0
C408 C 0.03057 0.2674 0.84214 0.0
C409 C 0.98496 0.28088 0.8183 0.0
H410 H 0.09875 0.22666 0.82864 0.0
C411 C 0.97139 0.25814 0.76416 0.0
H412 H 0.04222 0.28463 0.88352 0.0
C413 C 1.00337 0.22515 0.73334 0.0
C414 C 0.04943 0.21333 0.75605 0.0
H415 H 0.93675 0.26799 0.74424 0.0
H416 H 0.99317 0.21216 0.69012 0.0
C417 C 0.06286 0.2343 0.81087 0.0
C418 C 0.50061 0.7012 0.7523 0.0
C419 C 0.55124 0.70942 0.75585 0.0
H420 H 0.43143 0.73157 0.77808 0.0
C421 C 0.57134 0.74829 0.79671 0.0
H422 H 0.4842 0.67119 0.72171 0.0
C423 C 0.5412 0.78057 0.83124 0.0
C424 C 0.49056 0.77665 0.82334 0.0
H425 H 0.61035 0.75519 0.80049 0.0
H426 H 0.55759 0.81137 0.8611 0.0
C427 C 0.47045 0.73562 0.78468 0.0
C428 C 0.22704 0.77632 0.02269 0.0
C429 C 0.23709 0.7184 1.01378 0.0
H430 H 0.24703 0.86298 1.00759 0.0
C431 C 0.27506 0.7042 0.97734 0.0
H432 H 0.19759 0.78914 0.04951 0.0
C433 C 0.30378 0.74725 0.95281 0.0
C434 C 0.29489 0.80515 0.96424 0.0
H435 H 0.28348 0.65998 0.96912 0.0
H436 H 0.33405 0.73519 0.92693 0.0
C437 C 0.25539 0.81893 0.99827 0.0
C438 C 0.50141 0.49084 0.50534 0.0
C439 C 0.4843 0.51038 0.45254 0.0
H440 H 0.54543 0.50856 0.58016 0.0
C441 C 0.50139 0.56322 0.43265 0.0
H442 H 0.48951 0.44965 0.52096 0.0
C443 C 0.53386 0.59708 0.46667 0.0
C444 C 0.55075 0.57712 0.51961 0.0
H445 H 0.48888 0.57869 0.39165 0.0
H446 H 0.54636 0.63811 0.45137 0.0
C447 C 0.53369 0.52424 0.5389 0.0
loop_
_geom_bond_atom_site_label_1
_geom_bond_atom_site_label_2
_geom_bond_distance
_geom_bond_site_symmetry_2
_ccdc_geom_bond_type
Mn0 O5 2.095 . S
Mn0 O15 2.162 . S
Mn0 O16 2.297 . S
Mn0 O24 2.385 . S
Mn0 O25 2.209 . S
Mn0 O26 2.094 . S
Mn1 O6 2.121 . S
Mn1 N8 2.257 1_545 S
Mn1 N17 2.282 . S
Mn1 O25 2.215 . S
Mn1 O27 2.117 . S
C2 O24 1.234 . S
C2 O25 1.283 . S
C3 O15 1.281 . S
C3 O16 1.236 . S
C4 O26 1.240 . S
C4 O27 1.264 . S
O5 Mn0 2.095 . S
O5 C14 1.250 . S
O6 Mn1 2.121 . S
O6 C14 1.258 . S
C7 N8 1.326 . S
C7 C11 1.460 . S
C7 H13 0.929 . S
N8 Mn1 2.257 1_565 S
N8 C7 1.326 . S
N8 C12 1.362 . S
C9 C10 1.258 . S
C9 C12 1.431 . S
C9 C29 1.449 . S
C10 C9 1.258 . S
C10 C11 1.477 . S
C10 H30 0.931 . S
C11 C7 1.460 . S
C11 C10 1.477 . S
C11 H31 0.930 . S
C12 N8 1.362 . S
C12 C9 1.431 . S
C12 C22 1.476 . S
H13 C7 0.929 . S
C14 O5 1.250 . S
C14 O6 1.258 . S
O15 Mn0 2.162 . S
O15 C3 1.281 . S
O16 Mn0 2.297 . S
O16 C3 1.236 . S
N17 Mn1 2.282 . S
N17 C18 1.328 . S
N17 C22 1.318 1_545 S
C18 N17 1.328 . S
C18 C19 1.457 . S
C18 H23 0.929 . S
C19 C18 1.457 . S
C19 C20 1.290 . S
C19 H32 0.931 . S
C20 C19 1.290 . S
C20 C21 1.373 1_545 S
C20 H33 0.930 1_545 S
C21 C20 1.373 1_565 S
C21 C22 1.396 . S
C21 C28 1.403 . S
C22 C12 1.476 . S
C22 N17 1.318 1_565 S
C22 C21 1.396 . S
H23 C18 0.929 . S
O24 Mn0 2.385 . S
O24 C2 1.234 . S
O25 Mn0 2.209 . S
O25 Mn1 2.215 . S
O25 C2 1.283 . S
O26 Mn0 2.094 . S
O26 C4 1.240 . S
O27 Mn1 2.117 . S
O27 C4 1.264 . S
C28 C21 1.403 . S
C28 C29 1.399 . S
C28 H34 0.929 . S
C29 C9 1.449 . S
C29 C28 1.399 . S
C29 H35 0.930 . S
H30 C10 0.931 . S
H31 C11 0.930 . S
H32 C19 0.931 . S
H33 C20 0.930 1_565 S
H34 C28 0.929 . S
H35 C29 0.930 . S
Mn36 O41 2.095 . S
Mn36 O51 2.162 . S
Mn36 O52 2.297 . S
Mn36 O60 2.385 . S
Mn36 O61 2.209 . S
Mn36 O62 2.094 . S
Mn37 O42 2.121 . S
Mn37 N44 2.257 1_556 S
Mn37 N53 2.282 . S
Mn37 O61 2.215 . S
Mn37 O63 2.117 . S
C38 O60 1.234 . S
C38 O61 1.283 . S
C39 O51 1.281 . S
C39 O52 1.236 . S
C40 O62 1.240 . S
C40 O63 1.264 . S
O41 Mn36 2.095 . S
O41 C50 1.250 . S
O42 Mn37 2.121 . S
O42 C50 1.258 . S
C43 N44 1.326 . S
C43 C47 1.460 . S
C43 H49 0.929 . S
N44 Mn37 2.257 1_554 S
N44 C43 1.326 . S
N44 C48 1.362 . S
C45 C46 1.258 . S
C45 C48 1.431 . S
C45 C65 1.449 . S
C46 C45 1.258 . S
C46 C47 1.477 . S
C46 H66 0.931 . S
C47 C43 1.460 . S
C47 C46 1.477 . S
C47 H67 0.930 . S
C48 N44 1.362 . S
C48 C45 1.431 . S
C48 C58 1.476 . S
H49 C43 0.929 . S
C50 O41 1.250 . S
C50 O42 1.258 . S
O51 Mn36 2.162 . S
O51 C39 1.281 . S
O52 Mn36 2.297 . S
O52 C39 1.236 . S
N53 Mn37 2.282 . S
N53 C54 1.328 . S
N53 C58 1.318 1_556 S
C54 N53 1.328 . S
C54 C55 1.457 . S
C54 H59 0.929 . S
C55 C54 1.457 . S
C55 C56 1.290 . S
C55 H68 0.931 . S
C56 C55 1.290 . S
C56 C57 1.373 1_556 S
C56 H69 0.930 1_556 S
C57 C56 1.373 1_554 S
C57 C58 1.396 . S
C57 C64 1.403 . S
C58 C48 1.476 . S
C58 N53 1.318 1_554 S
C58 C57 1.396 . S
H59 C54 0.929 . S
O60 Mn36 2.385 . S
O60 C38 1.234 . S
O61 Mn36 2.209 . S
O61 Mn37 2.215 . S
O61 C38 1.283 . S
O62 Mn36 2.094 . S
O62 C40 1.240 . S
O63 Mn37 2.117 . S
O63 C40 1.264 . S
C64 C57 1.403 . S
C64 C65 1.399 . S
C64 H70 0.929 . S
C65 C45 1.449 . S
C65 C64 1.399 . S
C65 H71 0.930 . S
H66 C46 0.931 . S
H67 C47 0.930 . S
H68 C55 0.931 . S
H69 C56 0.930 1_554 S
H70 C64 0.929 . S
H71 C65 0.930 . S
Mn72 O77 2.095 . S
Mn72 O87 2.162 . S
Mn72 O88 2.297 . S
Mn72 O96 2.385 . S
Mn72 O97 2.209 . S
Mn72 O98 2.094 . S
Mn73 O78 2.121 . S
Mn73 N80 2.257 1_545 S
Mn73 N89 2.282 1_554 S
Mn73 O97 2.215 . S
Mn73 O99 2.117 . S
C74 O96 1.234 . S
C74 O97 1.283 . S
C75 O87 1.281 . S
C75 O88 1.236 . S
C76 O98 1.240 . S
C76 O99 1.264 . S
O77 Mn72 2.095 . S
O77 C86 1.250 . S
O78 Mn73 2.121 . S
O78 C86 1.258 . S
C79 N80 1.326 . S
C79 C83 1.460 . S
C79 H85 0.929 . S
N80 Mn73 2.257 1_565 S
N80 C79 1.326 . S
N80 C84 1.345 1_554 S
C81 C82 1.258 1_556 S
C81 C84 1.434 . S
C81 C101 1.449 . S
C82 C81 1.258 1_554 S
C82 C83 1.477 . S
C82 H102 0.931 . S
C83 C79 1.460 . S
C83 C82 1.477 . S
C83 H103 0.930 . S
C84 N80 1.345 1_556 S
C84 C81 1.434 . S
C84 C94 1.490 . S
H85 C79 0.929 . S
C86 O77 1.250 . S
C86 O78 1.258 . S
O87 Mn72 2.162 . S
O87 C75 1.281 . S
O88 Mn72 2.297 . S
O88 C75 1.236 . S
N89 Mn73 2.282 1_556 S
N89 C90 1.328 . S
N89 C94 1.318 1_545 S
C90 N89 1.328 . S
C90 C91 1.457 . S
C90 H95 0.929 . S
C91 C90 1.457 . S
C91 C92 1.290 . S
C91 H104 0.931 . S
C92 C91 1.290 . S
C92 C93 1.373 1_545 S
C92 H105 0.930 1_545 S
C93 C92 1.373 1_565 S
C93 C94 1.396 . S
C93 C100 1.403 . S
C94 C84 1.490 . S
C94 N89 1.318 1_565 S
C94 C93 1.396 . S
H95 C90 0.929 . S
O96 Mn72 2.385 . S
O96 C74 1.234 . S
O97 Mn72 2.209 . S
O97 Mn73 2.215 . S
O97 C74 1.283 . S
O98 Mn72 2.094 . S
O98 C76 1.240 . S
O99 Mn73 2.117 . S
O99 C76 1.264 . S
C100 C93 1.403 . S
C100 C101 1.399 . S
C100 H106 0.929 . S
C101 C81 1.449 . S
C101 C100 1.399 . S
C101 H107 0.930 . S
H102 C82 0.931 . S
H103 C83 0.930 . S
H104 C91 0.931 . S
H105 C92 0.930 1_565 S
H106 C100 0.929 . S
H107 C101 0.930 . S
Mn108 O113 2.095 . S
Mn108 O123 2.162 . S
Mn108 O124 2.297 . S
Mn108 O132 2.385 . S
Mn108 O133 2.209 . S
Mn108 O134 2.094 . S
Mn109 O114 2.121 . S
Mn109 N116 2.257 . S
Mn109 N125 2.282 1_565 S
Mn109 O133 2.215 . S
Mn109 O135 2.117 . S
C110 O132 1.234 . S
C110 O133 1.283 . S
C111 O123 1.281 . S
C111 O124 1.236 . S
C112 O134 1.240 . S
C112 O135 1.264 . S
O113 Mn108 2.095 . S
O113 C122 1.250 . S
O114 Mn109 2.121 . S
O114 C122 1.258 . S
C115 N116 1.326 . S
C115 C119 1.460 . S
C115 H121 0.929 . S
N116 Mn109 2.257 . S
N116 C115 1.326 . S
N116 C120 1.345 1_565 S
C117 C118 1.258 1_545 S
C117 C120 1.434 . S
C117 C137 1.449 . S
C118 C117 1.258 1_565 S
C118 C119 1.477 . S
C118 H138 0.931 . S
C119 C115 1.460 . S
C119 C118 1.477 . S
C119 H139 0.930 . S
C120 N116 1.345 1_545 S
C120 C117 1.434 . S
C120 C130 1.490 . S
H121 C115 0.929 . S
C122 O113 1.250 . S
C122 O114 1.258 . S
O123 Mn108 2.162 . S
O123 C111 1.281 . S
O124 Mn108 2.297 . S
O124 C111 1.236 . S
N125 Mn109 2.282 1_545 S
N125 C126 1.328 . S
N125 C130 1.318 . S
C126 N125 1.328 . S
C126 C127 1.457 . S
C126 H131 0.929 . S
C127 C126 1.457 . S
C127 C128 1.291 . S
C127 H140 0.931 . S
C128 C127 1.291 . S
C128 C129 1.373 . S
C128 H141 0.929 . S
C129 C128 1.373 . S
C129 C130 1.396 . S
C129 C136 1.403 . S
C130 C120 1.490 . S
C130 N125 1.318 . S
C130 C129 1.396 . S
H131 C126 0.929 . S
O132 Mn108 2.385 . S
O132 C110 1.234 . S
O133 Mn108 2.209 . S
O133 Mn109 2.215 . S
O133 C110 1.283 . S
O134 Mn108 2.094 . S
O134 C112 1.240 . S
O135 Mn109 2.117 . S
O135 C112 1.264 . S
C136 C129 1.403 . S
C136 C137 1.399 . S
C136 H142 0.929 . S
C137 C117 1.449 . S
C137 C136 1.399 . S
C137 H143 0.930 . S
H138 C118 0.931 . S
H139 C119 0.930 . S
H140 C127 0.931 . S
H141 C128 0.929 . S
H142 C136 0.929 . S
H143 C137 0.930 . S
Mn144 O149 2.095 . S
Mn144 O159 2.162 . S
Mn144 O160 2.297 . S
Mn144 O168 2.385 . S
Mn144 O169 2.209 . S
Mn144 O170 2.094 . S
Mn145 O150 2.121 . S
Mn145 N152 2.257 . S
Mn145 N161 2.282 1_554 S
Mn145 O169 2.215 . S
Mn145 O171 2.117 . S
C146 O168 1.234 . S
C146 O169 1.283 . S
C147 O159 1.281 . S
C147 O160 1.236 . S
C148 O170 1.240 . S
C148 O171 1.264 . S
O149 Mn144 2.095 . S
O149 C158 1.250 . S
O150 Mn145 2.121 . S
O150 C158 1.258 . S
C151 N152 1.326 . S
C151 C155 1.460 . S
C151 H157 0.929 . S
N152 Mn145 2.257 . S
N152 C151 1.326 . S
N152 C156 1.345 1_554 S
C153 C154 1.258 1_556 S
C153 C156 1.434 . S
C153 C173 1.449 . S
C154 C153 1.258 1_554 S
C154 C155 1.477 . S
C154 H174 0.931 . S
C155 C151 1.460 . S
C155 C154 1.477 . S
C155 H175 0.930 . S
C156 N152 1.345 1_556 S
C156 C153 1.434 . S
C156 C166 1.490 . S
H157 C151 0.929 . S
C158 O149 1.250 . S
C158 O150 1.258 . S
O159 Mn144 2.162 . S
O159 C147 1.281 . S
O160 Mn144 2.297 . S
O160 C147 1.236 . S
N161 Mn145 2.282 1_556 S
N161 C162 1.328 . S
N161 C166 1.318 . S
C162 N161 1.328 . S
C162 C163 1.457 . S
C162 H167 0.929 . S
C163 C162 1.457 . S
C163 C164 1.291 . S
C163 H176 0.931 . S
C164 C163 1.291 . S
C164 C165 1.373 . S
C164 H177 0.929 . S
C165 C164 1.373 . S
C165 C166 1.396 . S
C165 C172 1.403 . S
C166 C156 1.490 . S
C166 N161 1.318 . S
C166 C165 1.396 . S
H167 C162 0.929 . S
O168 Mn144 2.385 . S
O168 C146 1.234 . S
O169 Mn144 2.209 . S
O169 Mn145 2.215 . S
O169 C146 1.283 . S
O170 Mn144 2.094 . S
O170 C148 1.240 . S
O171 Mn145 2.117 . S
O171 C148 1.264 . S
C172 C165 1.403 . S
C172 C173 1.399 . S
C172 H178 0.929 . S
C173 C153 1.449 . S
C173 C172 1.399 . S
C173 H179 0.930 . S
H174 C154 0.931 . S
H175 C155 0.930 . S
H176 C163 0.931 . S
H177 C164 0.929 . S
H178 C172 0.929 . S
H179 C173 0.930 . S
Mn180 O185 2.095 . S
Mn180 O195 2.162 . S
Mn180 O196 2.297 . S
Mn180 O204 2.385 . S
Mn180 O205 2.209 . S
Mn180 O206 2.094 . S
Mn181 O186 2.121 . S
Mn181 N188 2.257 . S
Mn181 N197 2.282 . S
Mn181 O205 2.215 . S
Mn181 O207 2.117 . S
C182 O204 1.234 . S
C182 O205 1.283 . S
C183 O195 1.281 . S
C183 O196 1.236 . S
C184 O206 1.240 . S
C184 O207 1.264 . S
O185 Mn180 2.095 . S
O185 C194 1.250 . S
O186 Mn181 2.121 . S
O186 C194 1.258 . S
C187 N188 1.326 . S
C187 C191 1.460 . S
C187 H193 0.929 . S
N188 Mn181 2.257 . S
N188 C187 1.326 . S
N188 C192 1.362 . S
C189 C190 1.258 . S
C189 C192 1.431 . S
C189 C209 1.449 . S
C190 C189 1.258 . S
C190 C191 1.477 . S
C190 H210 0.931 . S
C191 C187 1.460 . S
C191 C190 1.477 . S
C191 H211 0.930 . S
C192 N188 1.362 . S
C192 C189 1.431 . S
C192 C202 1.476 . S
H193 C187 0.929 . S
C194 O185 1.250 . S
C194 O186 1.258 . S
O195 Mn180 2.162 . S
O195 C183 1.281 . S
O196 Mn180 2.297 . S
O196 C183 1.236 . S
N197 Mn181 2.282 . S
N197 C198 1.328 . S
N197 C202 1.318 . S
C198 N197 1.328 . S
C198 C199 1.457 . S
C198 H203 0.929 . S
C199 C198 1.457 . S
C199 C200 1.291 . S
C199 H212 0.931 . S
C200 C199 1.291 . S
C200 C201 1.373 . S
C200 H213 0.929 . S
C201 C200 1.373 . S
C201 C202 1.396 . S
C201 C208 1.403 . S
C202 C192 1.476 . S
C202 N197 1.318 . S
C202 C201 1.396 . S
H203 C198 0.929 . S
O204 Mn180 2.385 . S
O204 C182 1.234 . S
O205 Mn180 2.209 . S
O205 Mn181 2.215 . S
O205 C182 1.283 . S
O206 Mn180 2.094 . S
O206 C184 1.240 . S
O207 Mn181 2.117 . S
O207 C184 1.264 . S
C208 C201 1.403 . S
C208 C209 1.399 . S
C208 H214 0.929 . S
C209 C189 1.449 . S
C209 C208 1.399 . S
C209 H215 0.930 . S
H210 C190 0.931 . S
H211 C191 0.930 . S
H212 C199 0.931 . S
H213 C200 0.929 . S
H214 C208 0.929 . S
H215 C209 0.930 . S
Mn216 O221 2.095 . S
Mn216 O231 2.162 . S
Mn216 O232 2.297 . S
Mn216 O240 2.385 . S
Mn216 O241 2.209 . S
Mn216 O242 2.094 . S
Mn217 O222 2.121 . S
Mn217 N224 2.257 1_556 S
Mn217 N233 2.282 1_565 S
Mn217 O241 2.215 . S
Mn217 O243 2.117 . S
C218 O240 1.234 . S
C218 O241 1.283 . S
C219 O231 1.281 . S
C219 O232 1.236 . S
C220 O242 1.240 . S
C220 O243 1.264 . S
O221 Mn216 2.095 . S
O221 C230 1.250 . S
O222 Mn217 2.121 . S
O222 C230 1.258 . S
C223 N224 1.326 . S
C223 C227 1.460 . S
C223 H229 0.929 . S
N224 Mn217 2.257 1_554 S
N224 C223 1.326 . S
N224 C228 1.345 1_565 S
C225 C226 1.258 1_545 S
C225 C228 1.434 . S
C225 C245 1.449 . S
C226 C225 1.258 1_565 S
C226 C227 1.477 . S
C226 H246 0.931 . S
C227 C223 1.460 . S
C227 C226 1.477 . S
C227 H247 0.930 . S
C228 N224 1.345 1_545 S
C228 C225 1.434 . S
C228 C238 1.490 . S
H229 C223 0.929 . S
C230 O221 1.250 . S
C230 O222 1.258 . S
O231 Mn216 2.162 . S
O231 C219 1.281 . S
O232 Mn216 2.297 . S
O232 C219 1.236 . S
N233 Mn217 2.282 1_545 S
N233 C234 1.328 . S
N233 C238 1.318 1_556 S
C234 N233 1.328 . S
C234 C235 1.457 . S
C234 H239 0.929 . S
C235 C234 1.457 . S
C235 C236 1.290 . S
C235 H248 0.931 . S
C236 C235 1.290 . S
C236 C237 1.373 1_556 S
C236 H249 0.930 1_556 S
C237 C236 1.373 1_554 S
C237 C238 1.396 . S
C237 C244 1.403 . S
C238 C228 1.490 . S
C238 N233 1.318 1_554 S
C238 C237 1.396 . S
H239 C234 0.929 . S
O240 Mn216 2.385 . S
O240 C218 1.234 . S
O241 Mn216 2.209 . S
O241 Mn217 2.215 . S
O241 C218 1.283 . S
O242 Mn216 2.094 . S
O242 C220 1.240 . S
O243 Mn217 2.117 . S
O243 C220 1.264 . S
C244 C237 1.403 . S
C244 C245 1.399 . S
C244 H250 0.929 . S
C245 C225 1.449 . S
C245 C244 1.399 . S
C245 H251 0.930 . S
H246 C226 0.931 . S
H247 C227 0.930 . S
H248 C235 0.931 . S
H249 C236 0.930 1_554 S
H250 C244 0.929 . S
H251 C245 0.930 . S
Mn252 O257 2.095 . S
Mn252 O267 2.162 . S
Mn252 O268 2.297 . S
Mn252 O276 2.385 . S
Mn252 O277 2.209 . S
Mn252 O278 2.094 . S
Mn253 O258 2.121 . S
Mn253 N260 2.257 . S
Mn253 N269 2.282 . S
Mn253 O277 2.215 . S
Mn253 O279 2.117 . S
C254 O276 1.234 . S
C254 O277 1.283 . S
C255 O267 1.281 . S
C255 O268 1.236 . S
C256 O278 1.240 . S
C256 O279 1.264 . S
O257 Mn252 2.095 . S
O257 C266 1.250 . S
O258 Mn253 2.121 . S
O258 C266 1.258 . S
C259 N260 1.326 . S
C259 C263 1.460 . S
C259 H265 0.929 . S
N260 Mn253 2.257 . S
N260 C259 1.326 . S
N260 C264 1.362 . S
C261 C262 1.258 . S
C261 C264 1.431 . S
C261 C281 1.449 . S
C262 C261 1.258 . S
C262 C263 1.477 . S
C262 H282 0.931 . S
C263 C259 1.460 . S
C263 C262 1.477 . S
C263 H283 0.930 . S
C264 N260 1.362 . S
C264 C261 1.431 . S
C264 C274 1.476 . S
H265 C259 0.929 . S
C266 O257 1.250 . S
C266 O258 1.258 . S
O267 Mn252 2.162 . S
O267 C255 1.281 . S
O268 Mn252 2.297 . S
O268 C255 1.236 . S
N269 Mn253 2.282 . S
N269 C270 1.328 . S
N269 C274 1.318 . S
C270 N269 1.328 . S
C270 C271 1.457 . S
C270 H275 0.929 . S
C271 C270 1.457 . S
C271 C272 1.291 . S
C271 H284 0.931 . S
C272 C271 1.291 . S
C272 C273 1.373 . S
C272 H285 0.929 . S
C273 C272 1.373 . S
C273 C274 1.396 . S
C273 C280 1.403 . S
C274 C264 1.476 . S
C274 N269 1.318 . S
C274 C273 1.396 . S
H275 C270 0.929 . S
O276 Mn252 2.385 . S
O276 C254 1.234 . S
O277 Mn252 2.209 . S
O277 Mn253 2.215 . S
O277 C254 1.283 . S
O278 Mn252 2.094 . S
O278 C256 1.240 . S
O279 Mn253 2.117 . S
O279 C256 1.264 . S
C280 C273 1.403 . S
C280 C281 1.399 . S
C280 H286 0.929 . S
C281 C261 1.449 . S
C281 C280 1.399 . S
C281 H287 0.930 . S
H282 C262 0.931 . S
H283 C263 0.930 . S
H284 C271 0.931 . S
H285 C272 0.929 . S
H286 C280 0.929 . S
H287 C281 0.930 . S
C288 C289 1.387 . S
C288 H292 0.950 . S
C288 C297 1.390 . S
C289 C288 1.387 . S
C289 C291 1.387 . S
H290 C297 0.950 . S
C291 C289 1.387 . S
C291 C293 1.390 . S
C291 H295 0.950 . S
H292 C288 0.950 . S
C293 C291 1.390 . S
C293 C294 1.387 . S
C293 H296 0.950 . S
C294 C293 1.387 . S
C294 C297 1.387 . S
H295 C291 0.950 . S
H296 C293 0.950 . S
C297 C288 1.390 . S
C297 H290 0.950 . S
C297 C294 1.387 . S
C298 C299 1.387 . S
C298 H302 0.950 . S
C298 C307 1.390 . S
C299 C298 1.387 . S
C299 C301 1.387 . S
H300 C307 0.950 . S
C301 C299 1.387 . S
C301 C303 1.390 . S
C301 H305 0.950 . S
H302 C298 0.950 . S
C303 C301 1.390 . S
C303 C304 1.387 . S
C303 H306 0.950 . S
C304 C303 1.387 . S
C304 C307 1.387 . S
H305 C301 0.950 . S
H306 C303 0.950 . S
C307 C298 1.390 . S
C307 H300 0.950 . S
C307 C304 1.387 . S
C308 C309 1.387 1_556 S
C308 H312 0.950 . S
C308 C317 1.390 . S
C309 C308 1.387 1_554 S
C309 C311 1.387 1_545 S
H310 C317 0.950 . S
C311 C309 1.387 1_565 S
C311 C313 1.390 . S
C311 H315 0.950 . S
H312 C308 0.950 . S
C313 C311 1.390 . S
C313 C314 1.387 1_554 S
C313 H316 0.950 . S
C314 C313 1.387 1_556 S
C314 C317 1.387 1_565 S
H315 C311 0.950 . S
H316 C313 0.950 . S
C317 C308 1.390 . S
C317 H310 0.950 . S
C317 C314 1.387 1_545 S
C318 C319 1.387 . S
C318 H322 0.950 . S
C318 C327 1.390 1_655 S
C319 C318 1.387 . S
C319 C321 1.387 . S
H320 C327 0.950 . S
C321 C319 1.387 . S
C321 C323 1.390 1_655 S
C321 H325 0.950 . S
H322 C318 0.950 . S
C323 C321 1.390 1_455 S
C323 C324 1.387 . S
C323 H326 0.950 . S
C324 C323 1.387 . S
C324 C327 1.387 . S
H325 C321 0.950 . S
H326 C323 0.950 . S
C327 C318 1.390 1_455 S
C327 H320 0.950 . S
C327 C324 1.387 . S
C328 C329 1.387 1_545 S
C328 H332 0.950 . S
C328 C337 1.390 . S
C329 C328 1.387 1_565 S
C329 C331 1.387 . S
H330 C337 0.950 . S
C331 C329 1.387 . S
C331 C333 1.390 . S
C331 H335 0.950 . S
H332 C328 0.950 . S
C333 C331 1.390 . S
C333 C334 1.387 1_565 S
C333 H336 0.950 . S
C334 C333 1.387 1_545 S
C334 C337 1.387 . S
H335 C331 0.950 . S
H336 C333 0.950 . S
C337 C328 1.390 . S
C337 H330 0.950 . S
C337 C334 1.387 . S
C338 C339 1.387 . S
C338 H342 0.950 1_556 S
C338 C347 1.390 1_656 S
C339 C338 1.387 . S
C339 C341 1.387 . S
H340 C347 0.950 . S
C341 C339 1.387 . S
C341 C343 1.390 1_655 S
C341 H345 0.950 . S
H342 C338 0.950 1_554 S
C343 C341 1.390 1_455 S
C343 C344 1.387 1_556 S
C343 H346 0.950 . S
C344 C343 1.387 1_554 S
C344 C347 1.387 . S
H345 C341 0.950 . S
H346 C343 0.950 . S
C347 C338 1.390 1_454 S
C347 H340 0.950 . S
C347 C344 1.387 . S
C348 C349 1.387 . S
C348 H352 0.950 . S
C348 C357 1.390 . S
C349 C348 1.387 . S
C349 C351 1.387 . S
H350 C357 0.950 . S
C351 C349 1.387 . S
C351 C353 1.390 . S
C351 H355 0.950 . S
H352 C348 0.950 . S
C353 C351 1.390 . S
C353 C354 1.387 . S
C353 H356 0.950 . S
C354 C353 1.387 . S
C354 C357 1.387 . S
H355 C351 0.950 . S
H356 C353 0.950 . S
C357 C348 1.390 . S
C357 H350 0.950 . S
C357 C354 1.387 . S
C358 C359 1.387 . S
C358 H362 0.950 . S
C358 C367 1.390 . S
C359 C358 1.387 . S
C359 C361 1.387 . S
H360 C367 0.950 . S
C361 C359 1.387 . S
C361 C363 1.390 . S
C361 H365 0.950 . S
H362 C358 0.950 . S
C363 C361 1.390 . S
C363 C364 1.387 . S
C363 H366 0.950 . S
C364 C363 1.387 . S
C364 C367 1.387 . S
H365 C361 0.950 . S
H366 C363 0.950 . S
C367 C358 1.390 . S
C367 H360 0.950 . S
C367 C364 1.387 . S
C368 C369 1.387 . S
C368 H372 0.950 . S
C368 C377 1.390 . S
C369 C368 1.387 . S
C369 C371 1.387 . S
H370 C377 0.950 . S
C371 C369 1.387 . S
C371 C373 1.390 . S
C371 H375 0.950 . S
H372 C368 0.950 . S
C373 C371 1.390 . S
C373 C374 1.387 . S
C373 H376 0.950 . S
C374 C373 1.387 . S
C374 C377 1.387 . S
H375 C371 0.950 . S
H376 C373 0.950 . S
C377 C368 1.390 . S
C377 H370 0.950 . S
C377 C374 1.387 . S
C378 C379 1.387 1_554 S
C378 H382 0.950 . S
C378 C387 1.390 . S
C379 C378 1.387 1_556 S
C379 C381 1.387 . S
H380 C387 0.950 . S
C381 C379 1.387 . S
C381 C383 1.390 . S
C381 H385 0.950 . S
H382 C378 0.950 . S
C383 C381 1.390 . S
C383 C384 1.387 1_556 S
C383 H386 0.950 . S
C384 C383 1.387 1_554 S
C384 C387 1.387 . S
H385 C381 0.950 . S
H386 C383 0.950 . S
C387 C378 1.390 . S
C387 H380 0.950 . S
C387 C384 1.387 . S
C388 C389 1.387 . S
C388 H392 0.950 . S
C388 C397 1.390 1_565 S
C389 C388 1.387 . S
C389 C391 1.387 1_565 S
H390 C397 0.950 . S
C391 C389 1.387 1_545 S
C391 C393 1.390 . S
C391 H395 0.950 1_545 S
H392 C388 0.950 . S
C393 C391 1.390 . S
C393 C394 1.387 . S
C393 H396 0.950 . S
C394 C393 1.387 . S
C394 C397 1.387 . S
H395 C391 0.950 1_565 S
H396 C393 0.950 . S
C397 C388 1.390 1_545 S
C397 H390 0.950 . S
C397 C394 1.387 . S
C398 C399 1.387 1_545 S
C398 H402 0.950 . S
C398 C407 1.390 1_655 S
C399 C398 1.387 1_565 S
C399 C401 1.387 . S
H400 C407 0.950 . S
C401 C399 1.387 . S
C401 C403 1.390 1_655 S
C401 H405 0.950 . S
H402 C398 0.950 . S
C403 C401 1.390 1_455 S
C403 C404 1.387 1_565 S
C403 H406 0.950 . S
C404 C403 1.387 1_545 S
C404 C407 1.387 . S
H405 C401 0.950 . S
H406 C403 0.950 . S
C407 C398 1.390 1_455 S
C407 H400 0.950 . S
C407 C404 1.387 . S
C408 C409 1.387 . S
C408 H412 0.950 . S
C408 C417 1.390 1_655 S
C409 C408 1.387 . S
C409 C411 1.387 . S
H410 C417 0.950 . S
C411 C409 1.387 . S
C411 C413 1.390 1_655 S
C411 H415 0.950 . S
H412 C408 0.950 . S
C413 C411 1.390 1_455 S
C413 C414 1.387 . S
C413 H416 0.950 . S
C414 C413 1.387 . S
C414 C417 1.387 . S
H415 C411 0.950 . S
H416 C413 0.950 . S
C417 C408 1.390 1_455 S
C417 H410 0.950 . S
C417 C414 1.387 . S
C418 C419 1.387 . S
C418 H422 0.950 . S
C418 C427 1.390 . S
C419 C418 1.387 . S
C419 C421 1.387 . S
H420 C427 0.950 . S
C421 C419 1.387 . S
C421 C423 1.390 . S
C421 H425 0.950 . S
H422 C418 0.950 . S
C423 C421 1.390 . S
C423 C424 1.387 . S
C423 H426 0.950 . S
C424 C423 1.387 . S
C424 C427 1.387 . S
H425 C421 0.950 . S
H426 C423 0.950 . S
C427 C418 1.390 . S
C427 H420 0.950 . S
C427 C424 1.387 . S
C428 C429 1.389 . S
C428 H432 0.951 . S
C428 C437 1.388 1_554 S
C429 C428 1.389 . S
C429 C431 1.389 . S
H430 C437 0.950 . S
C431 C429 1.389 . S
C431 C433 1.388 1_554 S
C431 H435 0.951 . S
H432 C428 0.951 . S
C433 C431 1.388 1_556 S
C433 C434 1.387 . S
C433 H436 0.950 . S
C434 C433 1.387 . S
C434 C437 1.387 . S
H435 C431 0.951 . S
H436 C433 0.950 . S
C437 C428 1.388 1_556 S
C437 H430 0.950 . S
C437 C434 1.387 . S
C438 C439 1.387 . S
C438 H442 0.950 . S
C438 C447 1.390 . S
C439 C438 1.387 . S
C439 C441 1.387 . S
H440 C447 0.950 . S
C441 C439 1.387 . S
C441 C443 1.390 . S
C441 H445 0.950 . S
H442 C438 0.950 . S
C443 C441 1.390 . S
C443 C444 1.387 . S
C443 H446 0.950 . S
C444 C443 1.387 . S
C444 C447 1.387 . S
H445 C441 0.950 . S
H446 C443 0.950 . S
C447 C438 1.390 . S
C447 H440 0.950 . S
C447 C444 1.387 . S
C289 C194 1.458 . S
C294 C4 1.525 . S
C299 C266 1.457 . S
C304 C40 1.525 . S
C309 C74 1.514 . S
C314 C218 1.514 . S
C319 C111 1.530 . S
C324 C147 1.529 . S
C329 C220 1.525 . S
C334 C14 1.457 . S
C339 C38 1.515 . S
C344 C146 1.515 . S
C349 C183 1.529 . S
C354 C75 1.529 . S
C359 C122 1.458 . S
C364 C256 1.525 . S
C369 C158 1.460 . S
C374 C184 1.525 . S
C379 C50 1.459 . S
C384 C76 1.525 . S
C389 C112 1.525 . S
C394 C86 1.457 . S
C399 C110 1.514 . S
C404 C2 1.514 . S
C409 C39 1.530 . S
C414 C3 1.530 . S
C419 C255 1.529 . S
C424 C219 1.530 . S
C429 C148 1.525 . S
C434 C230 1.457 . S
C439 C182 1.515 . S
C444 C254 1.514 . S
