# Generated by pormake.
# Topology smu, (6)-cn, num edge types: 1
# Building blocks:
#     Node 0, Type 0, BuildingBlock: MIFKUJ_clean_sbu_0, # of connection points: 6
#     Node 1, Type 0, BuildingBlock: MIFKUJ_clean_sbu_0, # of connection points: 6
#     Node 2, Type 0, BuildingBlock: MIFKUJ_clean_sbu_0, # of connection points: 6
#     Node 3, Type 0, BuildingBlock: MIFKUJ_clean_sbu_0, # of connection points: 6
#     Node 4, Type 0, BuildingBlock: MIFKUJ_clean_sbu_0, # of connection points: 6
#     Node 5, Type 0, BuildingBlock: MIFKUJ_clean_sbu_0, # of connection points: 6
#     Edge 6, Type (0, 0), BuildingBlock: KIFKEQ_clean_linker_1, # of connection points: 2
#     Edge 7, Type (0, 0), BuildingBlock: KIFKEQ_clean_linker_1, # of connection points: 2
#     Edge 8, Type (0, 0), BuildingBlock: KIFKEQ_clean_linker_1, # of connection points: 2
#     Edge 9, Type (0, 0), BuildingBlock: KIFKEQ_clean_linker_1, # of connection points: 2
#     Edge 10, Type (0, 0), BuildingBlock: KIFKEQ_clean_linker_1, # of connection points: 2
#     Edge 11, Type (0, 0), BuildingBlock: KIFKEQ_clean_linker_1, # of connection points: 2
#     Edge 12, Type (0, 0), BuildingBlock: KIFKEQ_clean_linker_1, # of connection points: 2
#     Edge 13, Type (0, 0), BuildingBlock: KIFKEQ_clean_linker_1, # of connection points: 2
#     Edge 14, Type (0, 0), BuildingBlock: KIFKEQ_clean_linker_1, # of connection points: 2
#     Edge 15, Type (0, 0), BuildingBlock: KIFKEQ_clean_linker_1, # of connection points: 2
#     Edge 16, Type (0, 0), BuildingBlock: KIFKEQ_clean_linker_1, # of connection points: 2
#     Edge 17, Type (0, 0), BuildingBlock: KIFKEQ_clean_linker_1, # of connection points: 2
#     Edge 18, Type (0, 0), BuildingBlock: KIFKEQ_clean_linker_1, # of connection points: 2
#     Edge 19, Type (0, 0), BuildingBlock: KIFKEQ_clean_linker_1, # of connection points: 2
#     Edge 20, Type (0, 0), BuildingBlock: KIFKEQ_clean_linker_1, # of connection points: 2
#     Edge 21, Type (0, 0), BuildingBlock: KIFKEQ_clean_linker_1, # of connection points: 2
#     Edge 22, Type (0, 0), BuildingBlock: KIFKEQ_clean_linker_1, # of connection points: 2
#     Edge 23, Type (0, 0), BuildingBlock: KIFKEQ_clean_linker_1, # of connection points: 2
# Relax obj value: 0.231
# Max RMSD: 0.293
# Mean RMSD: 0.293
data_MOF--net-smu--node1-MIFKUJ_clean_sbu_0--edge1-KIFKEQ_clean_linker_1
_symmetry_space_group_name_H-M    P1
_symmetry_Int_Tables_number       1
_symmetry_cell_setting            triclinic
loop_
_symmetry_equiv_pos_as_xyz
'x, y, z'
_cell_length_a     34.353968
_cell_length_b     34.593041
_cell_length_c     28.214542
_cell_angle_alpha  89.963074
_cell_angle_beta   89.927156
_cell_angle_gamma 120.50912
loop_
_atom_site_label
_atom_site_type_symbol
_atom_site_fract_x
_atom_site_fract_y
_atom_site_fract_z
_atom_type_partial_charge
Zn0 Zn 0.27287 0.04518 0.24931 0.0
Zn1 Zn 0.40135 0.09392 0.24259 0.0
C2 C 0.23769 0.0993 0.27332 0.0
O3 O 0.231 0.07547 0.31196 0.0
C4 C 0.49066 0.1195 0.21024 0.0
O5 O 0.47782 0.13262 0.1727 0.0
O6 O 0.21055 0.99109 0.257 0.0
O7 O 0.29692 0.03032 0.19169 0.0
O8 O 0.37024 0.05402 0.18778 0.0
C9 C 0.18291 0.97989 0.22274 0.0
O10 O 0.19625 0.00335 0.1833 0.0
O11 O 0.26023 0.09557 0.23962 0.0
C12 C 0.43413 0.18476 0.26272 0.0
O13 O 0.44404 0.17159 0.30228 0.0
O14 O 0.412 0.15573 0.23104 0.0
O15 O 0.37639 0.07155 0.30713 0.0
O16 O 0.30329 0.04944 0.31112 0.0
O17 O 0.46315 0.1013 0.24443 0.0
C18 C 0.33068 0.03242 0.1707 0.0
C19 C 0.34007 0.05759 0.33041 0.0
Zn20 Zn 0.76047 0.73112 0.22989 0.0
Zn21 Zn 0.70073 0.60229 0.22003 0.0
C22 C 0.84999 0.76895 0.26141 0.0
O23 O 0.83115 0.77734 0.29746 0.0
C24 C 0.64014 0.51 0.19068 0.0
O25 O 0.66664 0.52103 0.15338 0.0
O26 O 0.76297 0.79025 0.23453 0.0
O27 O 0.72718 0.70395 0.17032 0.0
O28 O 0.69072 0.62989 0.16233 0.0
C29 C 0.77979 0.8191 0.20145 0.0
O30 O 0.79587 0.80995 0.16353 0.0
O31 O 0.82516 0.74601 0.227 0.0
C32 C 0.76393 0.57816 0.24811 0.0
O33 O 0.73966 0.56927 0.28694 0.0
O34 O 0.75565 0.5964 0.21352 0.0
O35 O 0.69689 0.62558 0.28359 0.0
O36 O 0.72986 0.69969 0.28925 0.0
O37 O 0.64836 0.53928 0.22227 0.0
C38 C 0.70238 0.6687 0.1466 0.0
C39 C 0.7073 0.66075 0.30704 0.0
Zn40 Zn 0.94813 0.22608 0.24184 0.0
Zn41 Zn 0.91124 0.31137 0.23547 0.0
C42 C 0.87972 0.1385 0.26347 0.0
O43 O 0.89934 0.15238 0.30492 0.0
C44 C 0.88708 0.37508 0.20154 0.0
O45 O 0.87422 0.3493 0.16379 0.0
O46 O 0.99834 0.21275 0.25139 0.0
O47 O 0.96827 0.2661 0.18533 0.0
O48 O 0.95132 0.31988 0.18063 0.0
C49 C 0.00999 0.19549 0.21857 0.0
O50 O 0.98817 0.18538 0.17807 0.0
O51 O 0.89268 0.16638 0.2294 0.0
C52 C 0.8213 0.24949 0.26025 0.0
O53 O 0.83629 0.27224 0.2999 0.0
O54 O 0.8488 0.25852 0.22613 0.0
O55 O 0.93424 0.31059 0.30006 0.0
O56 O 0.94557 0.25282 0.30336 0.0
O57 O 0.90417 0.36542 0.23619 0.0
C58 C 0.97037 0.29949 0.16422 0.0
C59 C 0.94261 0.28416 0.32309 0.0
Zn60 Zn 0.09363 0.39512 0.73744 0.0
Zn61 Zn 0.04665 0.26562 0.74039 0.0
C62 C 0.18434 0.42902 0.75927 0.0
O63 O 0.16934 0.4374 0.79854 0.0
C64 C 0.96391 0.1838 0.71089 0.0
O65 O 0.97088 0.20464 0.6701 0.0
O66 O 0.09996 0.45613 0.74279 0.0
O67 O 0.0555 0.36576 0.68083 0.0
O68 O 0.03688 0.29414 0.6836 0.0
C69 C 0.11932 0.48499 0.71005 0.0
O70 O 0.1334 0.47375 0.67202 0.0
O71 O 0.15638 0.40738 0.72649 0.0
C72 C 0.10201 0.23194 0.7667 0.0
O73 O 0.07724 0.22472 0.80487 0.0
O74 O 0.09789 0.2536 0.73252 0.0
O75 O 0.04884 0.29397 0.8027 0.0
O76 O 0.0713 0.36657 0.80054 0.0
O77 O 0.99118 0.20342 0.74495 0.0
C78 C 0.03799 0.32706 0.66239 0.0
C79 C 0.0568 0.33 0.82302 0.0
Zn80 Zn 0.31299 0.90312 0.74437 0.0
Zn81 Zn 0.22936 0.94508 0.74805 0.0
C82 C 0.25149 0.81307 0.76891 0.0
O83 O 0.27504 0.82763 0.80821 0.0
C84 C 0.20388 0.00956 0.71978 0.0
O85 O 0.19251 0.98618 0.68033 0.0
O86 O 0.3667 0.89458 0.74784 0.0
O87 O 0.32177 0.94129 0.68689 0.0
O88 O 0.26737 0.9579 0.69094 0.0
C89 C 0.40247 0.91511 0.723 0.0
O90 O 0.4064 0.94495 0.69161 0.0
O91 O 0.25975 0.8408 0.73539 0.0
C92 C 0.13917 0.88534 0.77116 0.0
O93 O 0.15353 0.90961 0.80994 0.0
O94 O 0.16758 0.89184 0.7388 0.0
O95 O 0.25694 0.94438 0.80943 0.0
O96 O 0.31061 0.92666 0.80871 0.0
O97 O 0.22026 0.99809 0.75366 0.0
C98 C 0.29979 0.95821 0.66914 0.0
C99 C 0.28655 0.93919 0.83051 0.0
Zn100 Zn 0.60282 0.70473 0.72145 0.0
Zn101 Zn 0.72925 0.76623 0.71911 0.0
C102 C 0.59981 0.78269 0.74963 0.0
O103 O 0.60518 0.76988 0.79175 0.0
C104 C 0.81923 0.78544 0.69245 0.0
O105 O 0.80954 0.79525 0.65073 0.0
O106 O 0.53875 0.65489 0.72626 0.0
O107 O 0.62683 0.68985 0.6644 0.0
O108 O 0.70183 0.72603 0.6632 0.0
C109 C 0.51107 0.64094 0.69196 0.0
O110 O 0.524 0.66066 0.65042 0.0
O111 O 0.60075 0.7614 0.71337 0.0
C112 C 0.74489 0.85388 0.74308 0.0
O113 O 0.73627 0.83683 0.78604 0.0
O114 O 0.74071 0.82875 0.70825 0.0
O115 O 0.70207 0.74093 0.78194 0.0
O116 O 0.62736 0.7012 0.78407 0.0
O117 O 0.79036 0.77299 0.72567 0.0
C118 C 0.6638 0.69859 0.64512 0.0
C119 C 0.66538 0.71693 0.80411 0.0
H120 H 0.34562 0.93181 0.89008 0.0
H121 H 0.24126 0.96679 0.8873 0.0
H122 H 0.3553 0.94745 0.97511 0.0
H123 H 0.25158 0.98302 0.97128 0.0
H124 H 0.25072 0.97433 0.12795 0.0
H125 H 0.23952 0.94555 0.04742 0.0
H126 H 0.38411 0.01397 0.02666 0.0
H127 H 0.3955 0.04202 0.10762 0.0
C128 C 0.3248 0.9428 0.90751 0.0
C129 C 0.29277 0.94816 0.88189 0.0
C130 C 0.33041 0.9518 0.95609 0.0
C131 C 0.30397 0.96614 0.97981 0.0
C132 C 0.27182 0.97116 0.95419 0.0
C133 C 0.26624 0.96223 0.90587 0.0
C134 C 0.28015 0.98286 0.10642 0.0
C135 C 0.32399 0.01101 0.1239 0.0
C136 C 0.27371 0.96645 0.06029 0.0
C137 C 0.31094 0.97805 0.03062 0.0
C138 C 0.35479 0.00425 0.04884 0.0
C139 C 0.36127 0.02052 0.09512 0.0
H140 H 0.59524 0.66543 0.5809 0.0
H141 H 0.73009 0.68896 0.60358 0.0
H142 H 0.59855 0.64576 0.49843 0.0
H143 H 0.73263 0.66822 0.52128 0.0
H144 H 0.69966 0.59872 0.37175 0.0
H145 H 0.68205 0.59654 0.45653 0.0
H146 H 0.66418 0.7104 0.43759 0.0
H147 H 0.68308 0.71361 0.35367 0.0
C148 C 0.62503 0.66521 0.56868 0.0
C149 C 0.6627 0.67933 0.59835 0.0
C150 C 0.62679 0.65391 0.52166 0.0
C151 C 0.66578 0.65558 0.50408 0.0
C152 C 0.70212 0.6664 0.53451 0.0
C153 C 0.70076 0.67857 0.58131 0.0
C154 C 0.69141 0.62285 0.38578 0.0
C155 C 0.69295 0.65653 0.35663 0.0
C156 C 0.68141 0.62156 0.43396 0.0
C157 C 0.67153 0.65307 0.4529 0.0
C158 C 0.67125 0.6855 0.42333 0.0
C159 C 0.68236 0.68754 0.37563 0.0
H160 H 0.96681 0.35621 0.0992 0.0
H161 H 0.02406 0.27174 0.12372 0.0
H162 H 0.99375 0.36785 0.01762 0.0
H163 H 0.05165 0.28417 0.0425 0.0
H164 H 0.0244 0.25822 0.88286 0.0
H165 H 0.01091 0.25695 0.96748 0.0
H166 H 0.06017 0.39937 0.96493 0.0
H167 H 0.07301 0.40071 0.8798 0.0
C168 C 0.98594 0.34091 0.0875 0.0
C169 C 0.99264 0.31243 0.11758 0.0
C170 C 0.00151 0.34774 0.04085 0.0
C171 C 0.02418 0.32636 0.02366 0.0
C172 C 0.03341 0.30026 0.05464 0.0
C173 C 0.01773 0.2933 0.10115 0.0
C174 C 0.03252 0.28934 0.90026 0.0
C175 C 0.04951 0.3295 0.87454 0.0
C176 C 0.02517 0.28867 0.94884 0.0
C177 C 0.03476 0.32814 0.97274 0.0
C178 C 0.05222 0.36842 0.94724 0.0
C179 C 0.05958 0.36913 0.89856 0.0
H180 H 0.29278 0.07139 0.39835 0.0
H181 H 0.3879 0.02637 0.37703 0.0
H182 H 0.28905 0.05423 0.48237 0.0
H183 H 0.38186 0.00592 0.46058 0.0
H184 H 0.38045 0.99554 0.62117 0.0
H185 H 0.39555 0.0265 0.54076 0.0
H186 H 0.25539 0.98998 0.52788 0.0
H187 H 0.24146 0.96201 0.60817 0.0
C188 C 0.31266 0.05752 0.41181 0.0
C189 C 0.34016 0.04964 0.38145 0.0
C190 C 0.31038 0.04738 0.45984 0.0
C191 C 0.33441 0.02774 0.47822 0.0
C192 C 0.3632 0.02134 0.44789 0.0
C193 C 0.36643 0.0327 0.39997 0.0
C194 C 0.35319 0.9946 0.60098 0.0
C195 C 0.30996 0.9768 0.62088 0.0
C196 C 0.36168 0.0121 0.55494 0.0
C197 C 0.3268 0.0112 0.52785 0.0
C198 C 0.28351 0.9927 0.54796 0.0
C199 C 0.27535 0.97623 0.594 0.0
H200 H 0.73823 0.75834 0.86238 0.0
H201 H 0.59675 0.65551 0.86043 0.0
H202 H 0.74158 0.74487 0.94641 0.0
H203 H 0.60041 0.64218 0.94509 0.0
H204 H 0.65544 0.60279 0.08078 0.0
H205 H 0.6422 0.61326 -0.00214 0.0
H206 H 0.70645 0.75613 0.02059 0.0
H207 H 0.71981 0.74612 0.10296 0.0
C208 C 0.70786 0.73281 0.87984 0.0
C209 C 0.6672 0.70801 0.85483 0.0
C210 C 0.70975 0.72536 0.92799 0.0
C211 C 0.67114 0.69278 0.95203 0.0
C212 C 0.63058 0.66745 0.92711 0.0
C213 C 0.62853 0.67522 0.87886 0.0
C214 C 0.66619 0.63635 0.06823 0.0
C215 C 0.6893 0.67369 0.09824 0.0
C216 C 0.65845 0.64224 0.02091 0.0
C217 C 0.6739 0.68552 0.00302 0.0
C218 C 0.69492 0.7225 0.03353 0.0
C219 C 0.70246 0.71667 0.08069 0.0
H220 H 0.98 0.36236 0.37286 0.0
H221 H 0.92109 0.21914 0.38841 0.0
H222 H 0.99911 0.37233 0.45695 0.0
H223 H 0.9375 0.22851 0.47275 0.0
H224 H 0.03024 0.26488 0.59906 0.0
H225 H 0.00268 0.25451 0.51847 0.0
H226 H 0.97448 0.36214 0.53681 0.0
H227 H 0.00438 0.37385 0.61736 0.0
C228 C 0.97039 0.33301 0.3946 0.0
C229 C 0.94989 0.29011 0.37434 0.0
C230 C 0.981 0.33861 0.44276 0.0
C231 C 0.97039 0.30125 0.47147 0.0
C232 C 0.94738 0.25812 0.4514 0.0
C233 C 0.93776 0.25267 0.4032 0.0
C234 C 0.01775 0.28604 0.58604 0.0
C235 C 0.01922 0.32002 0.61437 0.0
C236 C 0.00167 0.27995 0.53988 0.0
C237 C 0.98592 0.30721 0.52125 0.0
C238 C 0.98684 0.34091 0.54991 0.0
C239 C 0.00373 0.34751 0.59601 0.0
H240 H 0.527 0.09449 0.2817 0.0
H241 H 0.56077 0.16647 0.14866 0.0
H242 H 0.60593 0.11639 0.29251 0.0
H243 H 0.63981 0.18924 0.16004 0.0
H244 H 0.77712 0.20619 0.17892 0.0
H245 H 0.69571 0.16603 0.16501 0.0
H246 H 0.67343 0.18629 0.31139 0.0
H247 H 0.7543 0.22534 0.3255 0.0
C248 C 0.5512 0.11473 0.25458 0.0
C249 C 0.53768 0.12914 0.21454 0.0
C250 C 0.59647 0.12739 0.26088 0.0
C251 C 0.62926 0.15485 0.22735 0.0
C252 C 0.61538 0.16765 0.18631 0.0
C253 C 0.57007 0.15487 0.17994 0.0
C254 C 0.75475 0.2013 0.20832 0.0
C255 C 0.7722 0.21938 0.2532 0.0
C256 C 0.70814 0.17857 0.20026 0.0
C257 C 0.67809 0.17336 0.23694 0.0
C258 C 0.69552 0.18931 0.28241 0.0
C259 C 0.74201 0.212 0.29045 0.0
H260 H 0.57916 0.47748 0.26332 0.0
H261 H 0.61702 0.4368 0.13473 0.0
H262 H 0.52208 0.39973 0.2793 0.0
H263 H 0.5603 0.35879 0.15125 0.0
H264 H 0.43486 0.2244 0.17836 0.0
H265 H 0.47874 0.30419 0.15879 0.0
H266 H 0.52578 0.33396 0.30346 0.0
H267 H 0.4816 0.25464 0.32317 0.0
C268 C 0.57514 0.45199 0.23827 0.0
C269 C 0.60296 0.46328 0.19795 0.0
C270 C 0.54249 0.40741 0.24755 0.0
C271 C 0.53689 0.37308 0.21675 0.0
C272 C 0.56348 0.38454 0.17544 0.0
C273 C 0.5962 0.42921 0.16613 0.0
C274 C 0.45391 0.24808 0.20617 0.0
C275 C 0.45501 0.23317 0.25227 0.0
C276 C 0.4793 0.29372 0.19485 0.0
C277 C 0.50599 0.32532 0.22946 0.0
C278 C 0.50526 0.31055 0.27605 0.0
C279 C 0.48008 0.265 0.28731 0.0
H280 H 0.91361 0.43705 0.27252 0.0
H281 H 0.84171 0.39873 0.13935 0.0
H282 H 0.89404 0.49509 0.28257 0.0
H283 H 0.82124 0.45605 0.14999 0.0
H284 H 0.80827 0.57756 0.16752 0.0
H285 H 0.84713 0.53581 0.15443 0.0
H286 H 0.82464 0.49353 0.301 0.0
H287 H 0.78685 0.53584 0.3143 0.0
C288 C 0.89386 0.44118 0.24522 0.0
C289 C 0.87877 0.41293 0.20537 0.0
C290 C 0.88256 0.47438 0.25108 0.0
C291 C 0.85579 0.48 0.2173 0.0
C292 C 0.84234 0.453 0.17644 0.0
C293 C 0.85379 0.41987 0.1705 0.0
C294 C 0.81248 0.56011 0.19717 0.0
C295 C 0.79404 0.55961 0.24185 0.0
C296 C 0.83444 0.53593 0.18956 0.0
C297 C 0.83853 0.51091 0.22651 0.0
C298 C 0.82245 0.5127 0.27183 0.0
C299 C 0.80051 0.53679 0.27941 0.0
H300 H 0.09682 0.51987 0.78523 0.0
H301 H 0.16512 0.55597 0.64974 0.0
H302 H 0.11963 0.59817 0.79898 0.0
H303 H 0.18872 0.63423 0.66395 0.0
H304 H 0.22967 0.74558 0.8324 0.0
H305 H 0.19036 0.66544 0.8169 0.0
H306 H 0.16538 0.68937 0.67284 0.0
H307 H 0.20574 0.76999 0.68809 0.0
C308 C 0.1164 0.54443 0.75821 0.0
C309 C 0.12947 0.5317 0.71654 0.0
C310 C 0.12963 0.58935 0.76619 0.0
C311 C 0.15625 0.62256 0.73272 0.0
C312 C 0.16778 0.6095 0.69025 0.0
C313 C 0.15452 0.5646 0.68224 0.0
C314 C 0.21525 0.7338 0.79758 0.0
C315 C 0.22135 0.76427 0.76133 0.0
C316 C 0.19241 0.68771 0.78877 0.0
C317 C 0.17504 0.67094 0.74348 0.0
C318 C 0.17903 0.70126 0.70789 0.0
C319 C 0.20189 0.74744 0.71673 0.0
H320 H 0.40821 0.86174 0.79037 0.0
H321 H 0.47829 0.94335 0.66834 0.0
H322 H 0.46462 0.83949 0.79718 0.0
H323 H 0.53528 0.92119 0.67554 0.0
H324 H 0.57656 0.80992 0.66876 0.0
H325 H 0.53547 0.85009 0.66362 0.0
H326 H 0.54485 0.86816 0.81546 0.0
H327 H 0.58546 0.82751 0.82082 0.0
C328 C 0.43592 0.87531 0.76524 0.0
C329 C 0.43858 0.9041 0.72861 0.0
C330 C 0.46853 0.86286 0.76943 0.0
C331 C 0.50452 0.87873 0.737 0.0
C332 C 0.50778 0.90826 0.70089 0.0
C333 C 0.47522 0.92101 0.69688 0.0
C334 C 0.57072 0.82327 0.70096 0.0
C335 C 0.58358 0.81481 0.7453 0.0
C336 C 0.54731 0.84647 0.69797 0.0
C337 C 0.5363 0.86163 0.73923 0.0
C338 C 0.55212 0.85609 0.78315 0.0
C339 C 0.5756 0.833 0.78616 0.0
H340 H 0.22733 0.42773 0.67794 0.0
H341 H 0.25234 0.4809 0.82039 0.0
H342 H 0.30794 0.47312 0.66032 0.0
H343 H 0.33229 0.52682 0.80249 0.0
H344 H 0.47837 0.58597 0.76897 0.0
H345 H 0.40084 0.52727 0.78442 0.0
H346 H 0.36059 0.55292 0.64841 0.0
H347 H 0.43861 0.61095 0.63233 0.0
C348 C 0.25006 0.44862 0.70567 0.0
C349 C 0.23343 0.45102 0.75046 0.0
C350 C 0.29616 0.47486 0.69544 0.0
C351 C 0.32645 0.50388 0.72984 0.0
C352 C 0.30999 0.50451 0.7753 0.0
C353 C 0.26403 0.47832 0.78551 0.0
C354 C 0.45306 0.57889 0.74217 0.0
C355 C 0.46449 0.60347 0.69963 0.0
C356 C 0.4086 0.54529 0.7511 0.0
C357 C 0.37447 0.53568 0.71786 0.0
C358 C 0.38618 0.55916 0.67456 0.0
C359 C 0.43081 0.59266 0.66547 0.0
H360 H 0.23119 0.14021 0.19267 0.0
H361 H 0.18561 0.11086 0.33804 0.0
H362 H 0.18038 0.16914 0.179 0.0
H363 H 0.13425 0.13845 0.32413 0.0
H364 H 0.06578 0.21775 0.29546 0.0
H365 H 0.1267 0.20227 0.30821 0.0
H366 H 0.09968 0.13733 0.17157 0.0
H367 H 0.03959 0.1539 0.15828 0.0
C368 C 0.21083 0.14048 0.22186 0.0
C369 C 0.21231 0.123 0.26637 0.0
C370 C 0.18137 0.15665 0.21392 0.0
C371 C 0.15284 0.15573 0.25032 0.0
C372 C 0.15596 0.14013 0.29536 0.0
C373 C 0.18535 0.12406 0.3033 0.0
C374 C 0.07297 0.20036 0.26802 0.0
C375 C 0.04762 0.18685 0.22594 0.0
C376 C 0.10785 0.19136 0.2754 0.0
C377 C 0.11812 0.16846 0.24098 0.0
C378 C 0.09321 0.15563 0.19856 0.0
C379 C 0.05844 0.16478 0.1911 0.0
H380 H 0.91182 0.82226 0.3276 0.0
H381 H 0.90103 0.76747 0.1874 0.0
H382 H 0.99328 0.868 0.3182 0.0
H383 H 0.98297 0.81271 0.17839 0.0
H384 H 0.14321 0.92663 0.3005 0.0
H385 H 0.064 0.86889 0.3106 0.0
H386 H 0.0363 0.8923 0.16742 0.0
H387 H 0.11546 0.94921 0.15698 0.0
C388 C 0.9269 0.81933 0.29507 0.0
C389 C 0.89984 0.79151 0.25807 0.0
C390 C 0.97374 0.84542 0.28979 0.0
C391 C 0.99467 0.8443 0.24739 0.0
C392 C 0.96781 0.81488 0.21121 0.0
C393 C 0.92088 0.78872 0.2165 0.0
C394 C 0.1203 0.91913 0.27103 0.0
C395 C 0.13561 0.94275 0.22804 0.0
C396 C 0.07486 0.88615 0.27689 0.0
C397 C 0.04374 0.87606 0.23989 0.0
C398 C 0.05942 0.89878 0.19645 0.0
C399 C 0.1048 0.93171 0.19059 0.0
H400 H 0.85253 0.07005 0.32689 0.0
H401 H 0.84216 0.09679 0.17921 0.0
H402 H 0.81927 0.99084 0.3094 0.0
H403 H 0.80748 0.01692 0.16184 0.0
H404 H 0.82447 0.89247 0.14394 0.0
H405 H 0.83767 0.96761 0.15771 0.0
H406 H 0.75608 0.92104 0.28476 0.0
H407 H 0.74403 0.8461 0.27172 0.0
C408 C 0.84208 0.05888 0.29084 0.0
C409 C 0.85074 0.08987 0.25432 0.0
C410 C 0.8227 0.01327 0.28082 0.0
C411 C 0.81127 0.99752 0.23405 0.0
C412 C 0.81679 0.02809 0.19808 0.0
C413 C 0.83635 0.07383 0.2081 0.0
C414 C 0.80895 0.89813 0.17455 0.0
C415 C 0.78377 0.86348 0.20709 0.0
C416 C 0.81618 0.94119 0.18225 0.0
C417 C 0.79814 0.95049 0.22253 0.0
C418 C 0.7711 0.91522 0.25382 0.0
C419 C 0.7641 0.87223 0.24627 0.0
H420 H 0.11545 0.18248 0.83279 0.0
H421 H 0.14559 0.22706 0.68724 0.0
H422 H 0.14607 0.13362 0.82043 0.0
H423 H 0.17746 0.17872 0.67515 0.0
H424 H 0.1634 0.03868 0.65733 0.0
H425 H 0.14668 0.09856 0.66863 0.0
H426 H 0.21175 0.12796 0.80554 0.0
H427 H 0.22742 0.06727 0.79477 0.0
C428 C 0.12947 0.18256 0.79835 0.0
C429 C 0.12764 0.20838 0.76087 0.0
C430 C 0.14731 0.15464 0.79133 0.0
C431 C 0.16391 0.15188 0.74666 0.0
C432 C 0.16424 0.17947 0.70978 0.0
C433 C 0.14633 0.20748 0.71682 0.0
C434 C 0.1744 0.05809 0.68972 0.0
C435 C 0.19635 0.04787 0.72533 0.0
C436 C 0.16515 0.09273 0.69604 0.0
C437 C 0.17776 0.11808 0.73807 0.0
C438 C 0.20096 0.1087 0.77305 0.0
C439 C 0.21008 0.07397 0.7668 0.0
H440 H 0.07002 0.86981 0.83043 0.0
H441 H 0.09756 0.84063 0.68952 0.0
H442 H 0.99098 0.83804 0.80995 0.0
H443 H 0.01785 0.80769 0.66932 0.0
H444 H 0.89411 0.82415 0.63538 0.0
H445 H 0.96965 0.83899 0.65464 0.0
H446 H 0.92063 0.77228 0.78956 0.0
H447 H 0.84553 0.75856 0.7709 0.0
C448 C 0.05902 0.85565 0.7954 0.0
C449 C 0.09019 0.85826 0.76144 0.0
C450 C 0.01355 0.83719 0.78369 0.0
C451 C 0.99816 0.82073 0.7378 0.0
C452 C 0.02883 0.82083 0.70471 0.0
C453 C 0.07441 0.83937 0.71643 0.0
C454 C 0.89939 0.81228 0.66894 0.0
C455 C 0.86401 0.79076 0.70186 0.0
C456 C 0.94261 0.82047 0.67985 0.0
C457 C 0.95124 0.80705 0.7238 0.0
C458 C 0.9153 0.78373 0.75577 0.0
C459 C 0.87222 0.77579 0.74498 0.0
H460 H 0.89763 0.13345 0.6467 0.0
H461 H 0.94447 0.12824 0.78732 0.0
H462 H 0.83768 0.05524 0.65404 0.0
H463 H 0.88541 0.04986 0.79416 0.0
H464 H 0.75835 0.91729 0.80915 0.0
H465 H 0.80561 0.99851 0.80141 0.0
H466 H 0.83132 0.98291 0.65473 0.0
H467 H 0.78316 0.90199 0.6621 0.0
C468 C 0.89508 0.11568 0.67924 0.0
C469 C 0.926 0.13706 0.71634 0.0
C470 C 0.8608 0.07076 0.68336 0.0
C471 C 0.8567 0.04612 0.72463 0.0
C472 C 0.88704 0.06791 0.76214 0.0
C473 C 0.92119 0.11284 0.75809 0.0
C474 C 0.77345 0.93126 0.77502 0.0
C475 C 0.76733 0.9031 0.73638 0.0
C476 C 0.80084 0.97782 0.77068 0.0
C477 C 0.82287 0.99729 0.72766 0.0
C478 C 0.81467 0.96921 0.68832 0.0
C479 C 0.78712 0.92267 0.69259 0.0
loop_
_geom_bond_atom_site_label_1
_geom_bond_atom_site_label_2
_geom_bond_distance
_geom_bond_site_symmetry_2
_ccdc_geom_bond_type
Zn0 O6 1.969 1_545 S
Zn0 O7 1.965 . S
Zn0 O11 2.024 . S
Zn0 O16 1.969 . S
Zn1 O8 1.969 . S
Zn1 O14 1.969 . S
Zn1 O15 1.965 . S
Zn1 O17 2.024 . S
C2 O3 1.229 . S
C2 O11 1.058 . S
O3 C2 1.229 . S
C4 O5 1.229 . S
C4 O17 1.058 . S
O5 C4 1.229 . S
O6 Zn0 1.969 1_565 S
O6 C9 1.267 . S
O7 Zn0 1.965 . S
O7 C18 1.260 . S
O8 Zn1 1.969 . S
O8 C18 1.258 . S
C9 O6 1.267 . S
C9 O10 1.228 . S
O10 C9 1.228 . S
O11 Zn0 2.024 . S
O11 C2 1.058 . S
C12 O13 1.228 . S
C12 O14 1.267 . S
O13 C12 1.228 . S
O14 Zn1 1.969 . S
O14 C12 1.267 . S
O15 Zn1 1.965 . S
O15 C19 1.260 . S
O16 Zn0 1.969 . S
O16 C19 1.258 . S
O17 Zn1 2.024 . S
O17 C4 1.058 . S
C18 O7 1.260 . S
C18 O8 1.258 . S
C19 O15 1.260 . S
C19 O16 1.258 . S
Zn20 O26 1.969 . S
Zn20 O27 1.965 . S
Zn20 O31 2.024 . S
Zn20 O36 1.969 . S
Zn21 O28 1.969 . S
Zn21 O34 1.969 . S
Zn21 O35 1.965 . S
Zn21 O37 2.024 . S
C22 O23 1.229 . S
C22 O31 1.058 . S
O23 C22 1.229 . S
C24 O25 1.229 . S
C24 O37 1.058 . S
O25 C24 1.229 . S
O26 Zn20 1.969 . S
O26 C29 1.267 . S
O27 Zn20 1.965 . S
O27 C38 1.260 . S
O28 Zn21 1.969 . S
O28 C38 1.258 . S
C29 O26 1.267 . S
C29 O30 1.228 . S
O30 C29 1.228 . S
O31 Zn20 2.024 . S
O31 C22 1.058 . S
C32 O33 1.228 . S
C32 O34 1.267 . S
O33 C32 1.228 . S
O34 Zn21 1.969 . S
O34 C32 1.267 . S
O35 Zn21 1.965 . S
O35 C39 1.260 . S
O36 Zn20 1.969 . S
O36 C39 1.258 . S
O37 Zn21 2.024 . S
O37 C24 1.058 . S
C38 O27 1.260 . S
C38 O28 1.258 . S
C39 O35 1.260 . S
C39 O36 1.258 . S
Zn40 O46 1.969 1_655 S
Zn40 O47 1.965 . S
Zn40 O51 2.024 . S
Zn40 O56 1.969 . S
Zn41 O48 1.969 . S
Zn41 O54 1.969 . S
Zn41 O55 1.965 . S
Zn41 O57 2.024 . S
C42 O43 1.229 . S
C42 O51 1.058 . S
O43 C42 1.229 . S
C44 O45 1.229 . S
C44 O57 1.058 . S
O45 C44 1.229 . S
O46 Zn40 1.969 1_455 S
O46 C49 1.267 . S
O47 Zn40 1.965 . S
O47 C58 1.260 . S
O48 Zn41 1.969 . S
O48 C58 1.258 . S
C49 O46 1.267 . S
C49 O50 1.228 . S
O50 C49 1.228 . S
O51 Zn40 2.024 . S
O51 C42 1.058 . S
C52 O53 1.228 . S
C52 O54 1.267 . S
O53 C52 1.228 . S
O54 Zn41 1.969 . S
O54 C52 1.267 . S
O55 Zn41 1.965 . S
O55 C59 1.260 . S
O56 Zn40 1.969 . S
O56 C59 1.258 . S
O57 Zn41 2.024 . S
O57 C44 1.058 . S
C58 O47 1.260 . S
C58 O48 1.258 . S
C59 O55 1.260 . S
C59 O56 1.258 . S
Zn60 O66 1.969 . S
Zn60 O67 1.965 . S
Zn60 O71 2.024 . S
Zn60 O76 1.969 . S
Zn61 O68 1.969 . S
Zn61 O74 1.969 . S
Zn61 O75 1.965 . S
Zn61 O77 2.024 . S
C62 O63 1.229 . S
C62 O71 1.058 . S
O63 C62 1.229 . S
C64 O65 1.229 1_655 S
C64 O77 1.058 1_655 S
O65 C64 1.229 1_455 S
O66 Zn60 1.969 . S
O66 C69 1.267 . S
O67 Zn60 1.965 . S
O67 C78 1.260 . S
O68 Zn61 1.969 . S
O68 C78 1.258 . S
C69 O66 1.267 . S
C69 O70 1.228 . S
O70 C69 1.228 . S
O71 Zn60 2.024 . S
O71 C62 1.058 . S
C72 O73 1.228 . S
C72 O74 1.267 . S
O73 C72 1.228 . S
O74 Zn61 1.969 . S
O74 C72 1.267 . S
O75 Zn61 1.965 . S
O75 C79 1.260 . S
O76 Zn60 1.969 . S
O76 C79 1.258 . S
O77 Zn61 2.024 . S
O77 C64 1.058 1_455 S
C78 O67 1.260 . S
C78 O68 1.258 . S
C79 O75 1.260 . S
C79 O76 1.258 . S
Zn80 O86 1.969 . S
Zn80 O87 1.965 . S
Zn80 O91 2.024 . S
Zn80 O96 1.969 . S
Zn81 O88 1.969 . S
Zn81 O94 1.969 . S
Zn81 O95 1.965 . S
Zn81 O97 2.024 . S
C82 O83 1.229 . S
C82 O91 1.058 . S
O83 C82 1.229 . S
C84 O85 1.229 1_545 S
C84 O97 1.058 1_545 S
O85 C84 1.229 1_565 S
O86 Zn80 1.969 . S
O86 C89 1.267 . S
O87 Zn80 1.965 . S
O87 C98 1.260 . S
O88 Zn81 1.969 . S
O88 C98 1.258 . S
C89 O86 1.267 . S
C89 O90 1.228 . S
O90 C89 1.228 . S
O91 Zn80 2.024 . S
O91 C82 1.058 . S
C92 O93 1.228 . S
C92 O94 1.267 . S
O93 C92 1.228 . S
O94 Zn81 1.969 . S
O94 C92 1.267 . S
O95 Zn81 1.965 . S
O95 C99 1.260 . S
O96 Zn80 1.969 . S
O96 C99 1.258 . S
O97 Zn81 2.024 . S
O97 C84 1.058 1_565 S
C98 O87 1.260 . S
C98 O88 1.258 . S
C99 O95 1.260 . S
C99 O96 1.258 . S
Zn100 O106 1.969 . S
Zn100 O107 1.965 . S
Zn100 O111 2.024 . S
Zn100 O116 1.969 . S
Zn101 O108 1.969 . S
Zn101 O114 1.969 . S
Zn101 O115 1.965 . S
Zn101 O117 2.024 . S
C102 O103 1.229 . S
C102 O111 1.058 . S
O103 C102 1.229 . S
C104 O105 1.229 . S
C104 O117 1.058 . S
O105 C104 1.229 . S
O106 Zn100 1.969 . S
O106 C109 1.267 . S
O107 Zn100 1.965 . S
O107 C118 1.260 . S
O108 Zn101 1.969 . S
O108 C118 1.258 . S
C109 O106 1.267 . S
C109 O110 1.228 . S
O110 C109 1.228 . S
O111 Zn100 2.024 . S
O111 C102 1.058 . S
C112 O113 1.228 . S
C112 O114 1.267 . S
O113 C112 1.228 . S
O114 Zn101 1.969 . S
O114 C112 1.267 . S
O115 Zn101 1.965 . S
O115 C119 1.260 . S
O116 Zn100 1.969 . S
O116 C119 1.258 . S
O117 Zn101 2.024 . S
O117 C104 1.058 . S
C118 O107 1.260 . S
C118 O108 1.258 . S
C119 O115 1.260 . S
C119 O116 1.258 . S
H120 C128 0.950 . S
H121 C133 0.950 . S
H122 C130 0.950 1_545 S
H123 C132 0.950 1_554 S
H124 C134 0.950 . S
H125 C136 0.950 . S
H126 C138 0.950 1_556 S
H127 C139 0.950 . S
C128 H120 0.950 . S
C128 C129 1.386 . S
C128 C130 1.391 . S
C129 C128 1.386 . S
C129 C133 1.393 . S
C130 H122 0.950 1_565 S
C130 C128 1.391 . S
C130 C131 1.400 . S
C131 C130 1.400 . S
C131 C132 1.398 . S
C131 C137 1.491 1_566 S
C132 H123 0.950 1_556 S
C132 C131 1.398 . S
C132 C133 1.391 . S
C133 H121 0.950 . S
C133 C129 1.393 . S
C133 C132 1.391 . S
C134 H124 0.950 . S
C134 C135 1.386 . S
C134 C136 1.391 1_545 S
C135 C134 1.386 . S
C135 C139 1.393 . S
C136 H125 0.950 . S
C136 C134 1.391 1_565 S
C136 C137 1.400 1_565 S
C137 C131 1.491 1_544 S
C137 C136 1.400 1_545 S
C137 C138 1.398 . S
C138 H126 0.950 1_554 S
C138 C137 1.398 . S
C138 C139 1.391 . S
C139 H127 0.950 . S
C139 C135 1.393 . S
C139 C138 1.391 . S
H140 C148 0.950 . S
H141 C153 0.950 . S
H142 C150 0.950 . S
H143 C152 0.950 . S
H144 C154 0.950 . S
H145 C156 0.950 . S
H146 C158 0.950 . S
H147 C159 0.950 . S
C148 H140 0.950 . S
C148 C149 1.386 . S
C148 C150 1.391 . S
C149 C148 1.386 . S
C149 C153 1.393 . S
C150 H142 0.950 . S
C150 C148 1.391 . S
C150 C151 1.400 . S
C151 C150 1.400 . S
C151 C152 1.398 . S
C151 C157 1.491 . S
C152 H143 0.950 . S
C152 C151 1.398 . S
C152 C153 1.391 . S
C153 H141 0.950 . S
C153 C149 1.393 . S
C153 C152 1.391 . S
C154 H144 0.950 . S
C154 C155 1.386 . S
C154 C156 1.391 . S
C155 C154 1.386 . S
C155 C159 1.393 . S
C156 H145 0.950 . S
C156 C154 1.391 . S
C156 C157 1.400 . S
C157 C151 1.491 . S
C157 C156 1.400 . S
C157 C158 1.398 . S
C158 H146 0.950 . S
C158 C157 1.398 . S
C158 C159 1.391 . S
C159 H147 0.950 . S
C159 C155 1.393 . S
C159 C158 1.391 . S
H160 C168 0.950 . S
H161 C173 0.950 . S
H162 C170 0.950 1_556 S
H163 C172 0.950 . S
H164 C174 0.950 . S
H165 C176 0.950 1_554 S
H166 C178 0.950 1_655 S
H167 C179 0.950 . S
C168 H160 0.950 . S
C168 C169 1.386 . S
C168 C170 1.391 . S
C169 C168 1.386 . S
C169 C173 1.393 . S
C170 H162 0.950 1_554 S
C170 C168 1.391 . S
C170 C171 1.400 . S
C171 C170 1.400 . S
C171 C172 1.398 1_655 S
C171 C177 1.491 1_654 S
C172 H163 0.950 . S
C172 C171 1.398 1_455 S
C172 C173 1.391 1_455 S
C173 H161 0.950 . S
C173 C169 1.393 . S
C173 C172 1.391 1_655 S
C174 H164 0.950 . S
C174 C175 1.386 . S
C174 C176 1.391 . S
C175 C174 1.386 . S
C175 C179 1.393 . S
C176 H165 0.950 1_556 S
C176 C174 1.391 . S
C176 C177 1.400 . S
C177 C171 1.491 1_456 S
C177 C176 1.400 . S
C177 C178 1.398 . S
C178 H166 0.950 1_455 S
C178 C177 1.398 . S
C178 C179 1.391 . S
C179 H167 0.950 . S
C179 C175 1.393 . S
C179 C178 1.391 . S
H180 C188 0.950 . S
H181 C193 0.950 . S
H182 C190 0.950 . S
H183 C192 0.950 . S
H184 C194 0.950 . S
H185 C196 0.950 . S
H186 C198 0.950 . S
H187 C199 0.950 . S
C188 H180 0.950 . S
C188 C189 1.386 . S
C188 C190 1.391 . S
C189 C188 1.386 . S
C189 C193 1.393 . S
C190 H182 0.950 . S
C190 C188 1.391 . S
C190 C191 1.400 . S
C191 C190 1.400 . S
C191 C192 1.398 . S
C191 C197 1.491 1_545 S
C192 H183 0.950 . S
C192 C191 1.398 . S
C192 C193 1.391 . S
C193 H181 0.950 . S
C193 C189 1.393 . S
C193 C192 1.391 . S
C194 H184 0.950 . S
C194 C195 1.386 . S
C194 C196 1.391 . S
C195 C194 1.386 . S
C195 C199 1.393 . S
C196 H185 0.950 . S
C196 C194 1.391 . S
C196 C197 1.400 . S
C197 C191 1.491 1_565 S
C197 C196 1.400 . S
C197 C198 1.398 . S
C198 H186 0.950 . S
C198 C197 1.398 . S
C198 C199 1.391 . S
C199 H187 0.950 . S
C199 C195 1.393 . S
C199 C198 1.391 . S
H200 C208 0.950 . S
H201 C213 0.950 . S
H202 C210 0.950 . S
H203 C212 0.950 . S
H204 C214 0.950 . S
H205 C216 0.950 . S
H206 C218 0.950 . S
H207 C219 0.950 . S
C208 H200 0.950 . S
C208 C209 1.386 . S
C208 C210 1.391 . S
C209 C208 1.386 . S
C209 C213 1.393 . S
C210 H202 0.950 . S
C210 C208 1.391 . S
C210 C211 1.400 . S
C211 C210 1.400 . S
C211 C212 1.398 . S
C211 C217 1.491 1_556 S
C212 H203 0.950 . S
C212 C211 1.398 . S
C212 C213 1.391 . S
C213 H201 0.950 . S
C213 C209 1.393 . S
C213 C212 1.391 . S
C214 H204 0.950 . S
C214 C215 1.386 . S
C214 C216 1.391 . S
C215 C214 1.386 . S
C215 C219 1.393 . S
C216 H205 0.950 . S
C216 C214 1.391 . S
C216 C217 1.400 . S
C217 C211 1.491 1_554 S
C217 C216 1.400 . S
C217 C218 1.398 . S
C218 H206 0.950 . S
C218 C217 1.398 . S
C218 C219 1.391 . S
C219 H207 0.950 . S
C219 C215 1.393 . S
C219 C218 1.391 . S
H220 C228 0.950 . S
H221 C233 0.950 . S
H222 C230 0.950 . S
H223 C232 0.950 . S
H224 C234 0.950 . S
H225 C236 0.950 . S
H226 C238 0.950 . S
H227 C239 0.950 . S
C228 H220 0.950 . S
C228 C229 1.386 . S
C228 C230 1.391 . S
C229 C228 1.386 . S
C229 C233 1.393 . S
C230 H222 0.950 . S
C230 C228 1.391 . S
C230 C231 1.400 . S
C231 C230 1.400 . S
C231 C232 1.398 . S
C231 C237 1.491 1_655 S
C232 H223 0.950 . S
C232 C231 1.398 . S
C232 C233 1.391 . S
C233 H221 0.950 . S
C233 C229 1.393 . S
C233 C232 1.391 . S
C234 H224 0.950 . S
C234 C235 1.386 . S
C234 C236 1.391 . S
C235 C234 1.386 . S
C235 C239 1.393 . S
C236 H225 0.950 . S
C236 C234 1.391 . S
C236 C237 1.400 . S
C237 C231 1.491 1_455 S
C237 C236 1.400 . S
C237 C238 1.398 . S
C238 H226 0.950 . S
C238 C237 1.398 . S
C238 C239 1.391 . S
C239 H227 0.950 . S
C239 C235 1.393 . S
C239 C238 1.391 . S
H240 C248 0.950 . S
H241 C253 0.950 . S
H242 C250 0.950 . S
H243 C252 0.950 . S
H244 C254 0.950 . S
H245 C256 0.950 . S
H246 C258 0.950 . S
H247 C259 0.950 . S
C248 H240 0.950 . S
C248 C249 1.386 . S
C248 C250 1.391 . S
C249 C248 1.386 . S
C249 C253 1.393 . S
C250 H242 0.950 . S
C250 C248 1.391 . S
C250 C251 1.400 . S
C251 C250 1.400 . S
C251 C252 1.398 . S
C251 C257 1.491 . S
C252 H243 0.950 . S
C252 C251 1.398 . S
C252 C253 1.391 . S
C253 H241 0.950 . S
C253 C249 1.393 . S
C253 C252 1.391 . S
C254 H244 0.950 . S
C254 C255 1.386 . S
C254 C256 1.391 . S
C255 C254 1.386 . S
C255 C259 1.393 . S
C256 H245 0.950 . S
C256 C254 1.391 . S
C256 C257 1.400 . S
C257 C251 1.491 . S
C257 C256 1.400 . S
C257 C258 1.398 . S
C258 H246 0.950 . S
C258 C257 1.398 . S
C258 C259 1.391 . S
C259 H247 0.950 . S
C259 C255 1.393 . S
C259 C258 1.391 . S
H260 C268 0.950 . S
H261 C273 0.950 . S
H262 C270 0.950 . S
H263 C272 0.950 . S
H264 C274 0.950 . S
H265 C276 0.950 . S
H266 C278 0.950 . S
H267 C279 0.950 . S
C268 H260 0.950 . S
C268 C269 1.386 . S
C268 C270 1.391 . S
C269 C268 1.386 . S
C269 C273 1.393 . S
C270 H262 0.950 . S
C270 C268 1.391 . S
C270 C271 1.400 . S
C271 C270 1.400 . S
C271 C272 1.398 . S
C271 C277 1.491 . S
C272 H263 0.950 . S
C272 C271 1.398 . S
C272 C273 1.391 . S
C273 H261 0.950 . S
C273 C269 1.393 . S
C273 C272 1.391 . S
C274 H264 0.950 . S
C274 C275 1.386 . S
C274 C276 1.391 . S
C275 C274 1.386 . S
C275 C279 1.393 . S
C276 H265 0.950 . S
C276 C274 1.391 . S
C276 C277 1.400 . S
C277 C271 1.491 . S
C277 C276 1.400 . S
C277 C278 1.398 . S
C278 H266 0.950 . S
C278 C277 1.398 . S
C278 C279 1.391 . S
C279 H267 0.950 . S
C279 C275 1.393 . S
C279 C278 1.391 . S
H280 C288 0.950 . S
H281 C293 0.950 . S
H282 C290 0.950 . S
H283 C292 0.950 . S
H284 C294 0.950 . S
H285 C296 0.950 . S
H286 C298 0.950 . S
H287 C299 0.950 . S
C288 H280 0.950 . S
C288 C289 1.386 . S
C288 C290 1.391 . S
C289 C288 1.386 . S
C289 C293 1.393 . S
C290 H282 0.950 . S
C290 C288 1.391 . S
C290 C291 1.400 . S
C291 C290 1.400 . S
C291 C292 1.398 . S
C291 C297 1.491 . S
C292 H283 0.950 . S
C292 C291 1.398 . S
C292 C293 1.391 . S
C293 H281 0.950 . S
C293 C289 1.393 . S
C293 C292 1.391 . S
C294 H284 0.950 . S
C294 C295 1.386 . S
C294 C296 1.391 . S
C295 C294 1.386 . S
C295 C299 1.393 . S
C296 H285 0.950 . S
C296 C294 1.391 . S
C296 C297 1.400 . S
C297 C291 1.491 . S
C297 C296 1.400 . S
C297 C298 1.398 . S
C298 H286 0.950 . S
C298 C297 1.398 . S
C298 C299 1.391 . S
C299 H287 0.950 . S
C299 C295 1.393 . S
C299 C298 1.391 . S
H300 C308 0.950 . S
H301 C313 0.950 . S
H302 C310 0.950 . S
H303 C312 0.950 . S
H304 C314 0.950 . S
H305 C316 0.950 . S
H306 C318 0.950 . S
H307 C319 0.950 . S
C308 H300 0.950 . S
C308 C309 1.386 . S
C308 C310 1.391 . S
C309 C308 1.386 . S
C309 C313 1.393 . S
C310 H302 0.950 . S
C310 C308 1.391 . S
C310 C311 1.400 . S
C311 C310 1.400 . S
C311 C312 1.398 . S
C311 C317 1.491 . S
C312 H303 0.950 . S
C312 C311 1.398 . S
C312 C313 1.391 . S
C313 H301 0.950 . S
C313 C309 1.393 . S
C313 C312 1.391 . S
C314 H304 0.950 . S
C314 C315 1.386 . S
C314 C316 1.391 . S
C315 C314 1.386 . S
C315 C319 1.393 . S
C316 H305 0.950 . S
C316 C314 1.391 . S
C316 C317 1.400 . S
C317 C311 1.491 . S
C317 C316 1.400 . S
C317 C318 1.398 . S
C318 H306 0.950 . S
C318 C317 1.398 . S
C318 C319 1.391 . S
C319 H307 0.950 . S
C319 C315 1.393 . S
C319 C318 1.391 . S
H320 C328 0.950 . S
H321 C333 0.950 . S
H322 C330 0.950 . S
H323 C332 0.950 . S
H324 C334 0.950 . S
H325 C336 0.950 . S
H326 C338 0.950 . S
H327 C339 0.950 . S
C328 H320 0.950 . S
C328 C329 1.386 . S
C328 C330 1.391 . S
C329 C328 1.386 . S
C329 C333 1.393 . S
C330 H322 0.950 . S
C330 C328 1.391 . S
C330 C331 1.400 . S
C331 C330 1.400 . S
C331 C332 1.398 . S
C331 C337 1.491 . S
C332 H323 0.950 . S
C332 C331 1.398 . S
C332 C333 1.391 . S
C333 H321 0.950 . S
C333 C329 1.393 . S
C333 C332 1.391 . S
C334 H324 0.950 . S
C334 C335 1.386 . S
C334 C336 1.391 . S
C335 C334 1.386 . S
C335 C339 1.393 . S
C336 H325 0.950 . S
C336 C334 1.391 . S
C336 C337 1.400 . S
C337 C331 1.491 . S
C337 C336 1.400 . S
C337 C338 1.398 . S
C338 H326 0.950 . S
C338 C337 1.398 . S
C338 C339 1.391 . S
C339 H327 0.950 . S
C339 C335 1.393 . S
C339 C338 1.391 . S
H340 C348 0.950 . S
H341 C353 0.950 . S
H342 C350 0.950 . S
H343 C352 0.950 . S
H344 C354 0.950 . S
H345 C356 0.950 . S
H346 C358 0.950 . S
H347 C359 0.950 . S
C348 H340 0.950 . S
C348 C349 1.386 . S
C348 C350 1.391 . S
C349 C348 1.386 . S
C349 C353 1.393 . S
C350 H342 0.950 . S
C350 C348 1.391 . S
C350 C351 1.400 . S
C351 C350 1.400 . S
C351 C352 1.398 . S
C351 C357 1.491 . S
C352 H343 0.950 . S
C352 C351 1.398 . S
C352 C353 1.391 . S
C353 H341 0.950 . S
C353 C349 1.393 . S
C353 C352 1.391 . S
C354 H344 0.950 . S
C354 C355 1.386 . S
C354 C356 1.391 . S
C355 C354 1.386 . S
C355 C359 1.393 . S
C356 H345 0.950 . S
C356 C354 1.391 . S
C356 C357 1.400 . S
C357 C351 1.491 . S
C357 C356 1.400 . S
C357 C358 1.398 . S
C358 H346 0.950 . S
C358 C357 1.398 . S
C358 C359 1.391 . S
C359 H347 0.950 . S
C359 C355 1.393 . S
C359 C358 1.391 . S
H360 C368 0.950 . S
H361 C373 0.950 . S
H362 C370 0.950 . S
H363 C372 0.950 . S
H364 C374 0.950 . S
H365 C376 0.950 . S
H366 C378 0.950 . S
H367 C379 0.950 . S
C368 H360 0.950 . S
C368 C369 1.386 . S
C368 C370 1.391 . S
C369 C368 1.386 . S
C369 C373 1.393 . S
C370 H362 0.950 . S
C370 C368 1.391 . S
C370 C371 1.400 . S
C371 C370 1.400 . S
C371 C372 1.398 . S
C371 C377 1.491 . S
C372 H363 0.950 . S
C372 C371 1.398 . S
C372 C373 1.391 . S
C373 H361 0.950 . S
C373 C369 1.393 . S
C373 C372 1.391 . S
C374 H364 0.950 . S
C374 C375 1.386 . S
C374 C376 1.391 . S
C375 C374 1.386 . S
C375 C379 1.393 . S
C376 H365 0.950 . S
C376 C374 1.391 . S
C376 C377 1.400 . S
C377 C371 1.491 . S
C377 C376 1.400 . S
C377 C378 1.398 . S
C378 H366 0.950 . S
C378 C377 1.398 . S
C378 C379 1.391 . S
C379 H367 0.950 . S
C379 C375 1.393 . S
C379 C378 1.391 . S
H380 C388 0.950 . S
H381 C393 0.950 . S
H382 C390 0.950 1_455 S
H383 C392 0.950 . S
H384 C394 0.950 . S
H385 C396 0.950 . S
H386 C398 0.950 . S
H387 C399 0.950 . S
C388 H380 0.950 . S
C388 C389 1.386 . S
C388 C390 1.391 . S
C389 C388 1.386 . S
C389 C393 1.393 . S
C390 H382 0.950 1_655 S
C390 C388 1.391 . S
C390 C391 1.400 1_655 S
C391 C390 1.400 1_455 S
C391 C392 1.398 . S
C391 C397 1.491 . S
C392 H383 0.950 . S
C392 C391 1.398 . S
C392 C393 1.391 1_455 S
C393 H381 0.950 . S
C393 C389 1.393 . S
C393 C392 1.391 1_655 S
C394 H384 0.950 . S
C394 C395 1.386 . S
C394 C396 1.391 . S
C395 C394 1.386 . S
C395 C399 1.393 . S
C396 H385 0.950 . S
C396 C394 1.391 . S
C396 C397 1.400 . S
C397 C391 1.491 . S
C397 C396 1.400 . S
C397 C398 1.398 . S
C398 H386 0.950 . S
C398 C397 1.398 . S
C398 C399 1.391 . S
C399 H387 0.950 . S
C399 C395 1.393 . S
C399 C398 1.391 . S
H400 C408 0.950 . S
H401 C413 0.950 . S
H402 C410 0.949 . S
H403 C412 0.950 1_565 S
H404 C414 0.950 . S
H405 C416 0.950 . S
H406 C418 0.950 . S
H407 C419 0.950 . S
C408 H400 0.950 . S
C408 C409 1.386 . S
C408 C410 1.392 1_545 S
C409 C408 1.386 . S
C409 C413 1.393 . S
C410 H402 0.949 . S
C410 C408 1.392 1_565 S
C410 C411 1.400 . S
C411 C410 1.400 . S
C411 C412 1.398 1_565 S
C411 C417 1.491 . S
C412 H403 0.950 1_545 S
C412 C411 1.398 1_545 S
C412 C413 1.391 . S
C413 H401 0.950 . S
C413 C409 1.393 . S
C413 C412 1.391 . S
C414 H404 0.950 . S
C414 C415 1.386 . S
C414 C416 1.391 . S
C415 C414 1.386 . S
C415 C419 1.393 . S
C416 H405 0.950 . S
C416 C414 1.391 . S
C416 C417 1.400 . S
C417 C411 1.491 . S
C417 C416 1.400 . S
C417 C418 1.398 . S
C418 H406 0.950 . S
C418 C417 1.398 . S
C418 C419 1.391 . S
C419 H407 0.950 . S
C419 C415 1.393 . S
C419 C418 1.391 . S
H420 C428 0.950 . S
H421 C433 0.950 . S
H422 C430 0.950 . S
H423 C432 0.950 . S
H424 C434 0.950 . S
H425 C436 0.950 . S
H426 C438 0.950 . S
H427 C439 0.950 1_565 S
C428 H420 0.950 . S
C428 C429 1.386 . S
C428 C430 1.391 . S
C429 C428 1.386 . S
C429 C433 1.393 . S
C430 H422 0.950 . S
C430 C428 1.391 . S
C430 C431 1.400 . S
C431 C430 1.400 . S
C431 C432 1.398 . S
C431 C437 1.491 . S
C432 H423 0.950 . S
C432 C431 1.398 . S
C432 C433 1.391 . S
C433 H421 0.950 . S
C433 C429 1.393 . S
C433 C432 1.391 . S
C434 H424 0.950 . S
C434 C435 1.386 . S
C434 C436 1.391 . S
C435 C434 1.386 . S
C435 C439 1.393 . S
C436 H425 0.950 . S
C436 C434 1.391 . S
C436 C437 1.400 . S
C437 C431 1.491 . S
C437 C436 1.400 . S
C437 C438 1.398 . S
C438 H426 0.950 . S
C438 C437 1.398 . S
C438 C439 1.391 . S
C439 H427 0.950 1_545 S
C439 C435 1.393 . S
C439 C438 1.391 . S
H440 C448 0.950 . S
H441 C453 0.950 . S
H442 C450 0.950 . S
H443 C452 0.950 . S
H444 C454 0.950 . S
H445 C456 0.950 . S
H446 C458 0.950 . S
H447 C459 0.950 . S
C448 H440 0.950 . S
C448 C449 1.386 . S
C448 C450 1.391 1_455 S
C449 C448 1.386 . S
C449 C453 1.393 . S
C450 H442 0.950 . S
C450 C448 1.391 1_655 S
C450 C451 1.400 . S
C451 C450 1.400 . S
C451 C452 1.398 . S
C451 C457 1.491 . S
C452 H443 0.950 . S
C452 C451 1.398 . S
C452 C453 1.391 1_655 S
C453 H441 0.950 . S
C453 C449 1.393 . S
C453 C452 1.391 1_455 S
C454 H444 0.950 . S
C454 C455 1.386 . S
C454 C456 1.391 . S
C455 C454 1.386 . S
C455 C459 1.393 . S
C456 H445 0.950 . S
C456 C454 1.391 . S
C456 C457 1.400 . S
C457 C451 1.491 . S
C457 C456 1.400 . S
C457 C458 1.398 . S
C458 H446 0.950 . S
C458 C457 1.398 . S
C458 C459 1.391 . S
C459 H447 0.950 . S
C459 C455 1.393 . S
C459 C458 1.391 . S
H460 C468 0.950 . S
H461 C473 0.950 . S
H462 C470 0.950 . S
H463 C472 0.950 . S
H464 C474 0.950 . S
H465 C476 0.950 . S
H466 C478 0.950 . S
H467 C479 0.950 . S
C468 H460 0.950 . S
C468 C469 1.386 . S
C468 C470 1.391 . S
C469 C468 1.386 . S
C469 C473 1.393 . S
C470 H462 0.950 . S
C470 C468 1.391 . S
C470 C471 1.400 . S
C471 C470 1.400 . S
C471 C472 1.398 . S
C471 C477 1.491 . S
C472 H463 0.950 . S
C472 C471 1.398 . S
C472 C473 1.391 . S
C473 H461 0.950 . S
C473 C469 1.393 . S
C473 C472 1.391 . S
C474 H464 0.950 . S
C474 C475 1.386 . S
C474 C476 1.391 1_565 S
C475 C474 1.386 . S
C475 C479 1.393 . S
C476 H465 0.950 . S
C476 C474 1.391 1_545 S
C476 C477 1.400 . S
C477 C471 1.491 . S
C477 C476 1.400 . S
C477 C478 1.398 . S
C478 H466 0.950 . S
C478 C477 1.398 . S
C478 C479 1.391 1_545 S
C479 H467 0.950 . S
C479 C475 1.393 . S
C479 C478 1.391 1_565 S
C129 C99 2.193 . S
C135 C18 2.126 . S
C149 C118 2.118 . S
C155 C39 2.197 . S
C169 C58 2.119 . S
C175 C79 2.191 . S
C189 C19 2.176 . S
C195 C98 2.092 . S
C209 C119 2.192 . S
C215 C38 2.133 . S
C229 C59 2.193 . S
C235 C78 2.120 . S
C249 C4 1.431 . S
C255 C52 1.667 . S
C269 C24 1.418 . S
C275 C12 1.668 . S
C289 C44 1.433 . S
C295 C32 1.667 . S
C309 C69 1.496 . S
C315 C82 1.666 . S
C329 C89 1.494 . S
C335 C102 1.667 . S
C349 C62 1.657 . S
C355 C109 1.525 . S
C369 C2 0.990 . S
C375 C49 0.925 . S
C389 C22 0.984 . S
C395 C9 0.935 . S
C409 C42 1.000 . S
C415 C29 0.886 . S
C429 C72 0.987 . S
C435 C84 0.865 . S
C449 C92 0.986 . S
C455 C104 0.907 . S
C469 C64 0.837 . S
C475 C112 0.988 . S
