# Generated by pormake.
# Topology sxg, (6)-cn, num edge types: 1
# Building blocks:
#     Node 0, Type 0, BuildingBlock: CIFDUS_clean_sbu_1, # of connection points: 6
#     Node 1, Type 0, BuildingBlock: CIFDUS_clean_sbu_1, # of connection points: 6
#     Node 2, Type 0, BuildingBlock: CIFDUS_clean_sbu_1, # of connection points: 6
#     Node 3, Type 0, BuildingBlock: CIFDUS_clean_sbu_1, # of connection points: 6
#     Node 4, Type 0, BuildingBlock: CIFDUS_clean_sbu_1, # of connection points: 6
#     Node 5, Type 0, BuildingBlock: CIFDUS_clean_sbu_1, # of connection points: 6
#     Node 6, Type 0, BuildingBlock: CIFDUS_clean_sbu_1, # of connection points: 6
#     Node 7, Type 0, BuildingBlock: CIFDUS_clean_sbu_1, # of connection points: 6
#     Node 8, Type 0, BuildingBlock: CIFDUS_clean_sbu_1, # of connection points: 6
#     Node 9, Type 0, BuildingBlock: CIFDUS_clean_sbu_1, # of connection points: 6
#     Node 10, Type 0, BuildingBlock: CIFDUS_clean_sbu_1, # of connection points: 6
#     Node 11, Type 0, BuildingBlock: CIFDUS_clean_sbu_1, # of connection points: 6
#     Node 12, Type 0, BuildingBlock: CIFDUS_clean_sbu_1, # of connection points: 6
#     Node 13, Type 0, BuildingBlock: CIFDUS_clean_sbu_1, # of connection points: 6
#     Node 14, Type 0, BuildingBlock: CIFDUS_clean_sbu_1, # of connection points: 6
#     Node 15, Type 0, BuildingBlock: CIFDUS_clean_sbu_1, # of connection points: 6
#     Node 16, Type 0, BuildingBlock: CIFDUS_clean_sbu_1, # of connection points: 6
#     Node 17, Type 0, BuildingBlock: CIFDUS_clean_sbu_1, # of connection points: 6
#     Node 18, Type 0, BuildingBlock: CIFDUS_clean_sbu_1, # of connection points: 6
#     Node 19, Type 0, BuildingBlock: CIFDUS_clean_sbu_1, # of connection points: 6
#     Node 20, Type 0, BuildingBlock: CIFDUS_clean_sbu_1, # of connection points: 6
#     Node 21, Type 0, BuildingBlock: CIFDUS_clean_sbu_1, # of connection points: 6
#     Node 22, Type 0, BuildingBlock: CIFDUS_clean_sbu_1, # of connection points: 6
#     Node 23, Type 0, BuildingBlock: CIFDUS_clean_sbu_1, # of connection points: 6
#     Edge 24, Type (0, 0), None
#     Edge 25, Type (0, 0), None
#     Edge 26, Type (0, 0), None
#     Edge 27, Type (0, 0), None
#     Edge 28, Type (0, 0), None
#     Edge 29, Type (0, 0), None
#     Edge 30, Type (0, 0), None
#     Edge 31, Type (0, 0), None
#     Edge 32, Type (0, 0), None
#     Edge 33, Type (0, 0), None
#     Edge 34, Type (0, 0), None
#     Edge 35, Type (0, 0), None
#     Edge 36, Type (0, 0), None
#     Edge 37, Type (0, 0), None
#     Edge 38, Type (0, 0), None
#     Edge 39, Type (0, 0), None
#     Edge 40, Type (0, 0), None
#     Edge 41, Type (0, 0), None
#     Edge 42, Type (0, 0), None
#     Edge 43, Type (0, 0), None
#     Edge 44, Type (0, 0), None
#     Edge 45, Type (0, 0), None
#     Edge 46, Type (0, 0), None
#     Edge 47, Type (0, 0), None
#     Edge 48, Type (0, 0), None
#     Edge 49, Type (0, 0), None
#     Edge 50, Type (0, 0), None
#     Edge 51, Type (0, 0), None
#     Edge 52, Type (0, 0), None
#     Edge 53, Type (0, 0), None
#     Edge 54, Type (0, 0), None
#     Edge 55, Type (0, 0), None
#     Edge 56, Type (0, 0), None
#     Edge 57, Type (0, 0), None
#     Edge 58, Type (0, 0), None
#     Edge 59, Type (0, 0), None
#     Edge 60, Type (0, 0), None
#     Edge 61, Type (0, 0), None
#     Edge 62, Type (0, 0), None
#     Edge 63, Type (0, 0), None
#     Edge 64, Type (0, 0), None
#     Edge 65, Type (0, 0), None
#     Edge 66, Type (0, 0), None
#     Edge 67, Type (0, 0), None
#     Edge 68, Type (0, 0), None
#     Edge 69, Type (0, 0), None
#     Edge 70, Type (0, 0), None
#     Edge 71, Type (0, 0), None
#     Edge 72, Type (0, 0), None
#     Edge 73, Type (0, 0), None
#     Edge 74, Type (0, 0), None
#     Edge 75, Type (0, 0), None
#     Edge 76, Type (0, 0), None
#     Edge 77, Type (0, 0), None
#     Edge 78, Type (0, 0), None
#     Edge 79, Type (0, 0), None
#     Edge 80, Type (0, 0), None
#     Edge 81, Type (0, 0), None
#     Edge 82, Type (0, 0), None
#     Edge 83, Type (0, 0), None
#     Edge 84, Type (0, 0), None
#     Edge 85, Type (0, 0), None
#     Edge 86, Type (0, 0), None
#     Edge 87, Type (0, 0), None
#     Edge 88, Type (0, 0), None
#     Edge 89, Type (0, 0), None
#     Edge 90, Type (0, 0), None
#     Edge 91, Type (0, 0), None
#     Edge 92, Type (0, 0), None
#     Edge 93, Type (0, 0), None
#     Edge 94, Type (0, 0), None
#     Edge 95, Type (0, 0), None
# Relax obj value: 0.174
# Max RMSD: 0.239
# Mean RMSD: 0.239
data_MOF--net-sxg--node1-CIFDUS_clean_sbu_1--edge1-none
_symmetry_space_group_name_H-M    P1
_symmetry_Int_Tables_number       1
_symmetry_cell_setting            triclinic
loop_
_symmetry_equiv_pos_as_xyz
'x, y, z'
_cell_length_a     20.804485
_cell_length_b     20.810947
_cell_length_c     20.813127
_cell_angle_alpha  89.998685
_cell_angle_beta   89.998706
_cell_angle_gamma 89.998261
loop_
_atom_site_label
_atom_site_type_symbol
_atom_site_fract_x
_atom_site_fract_y
_atom_site_fract_z
_atom_type_partial_charge
O0 O 0.10395 0.33277 0.14802 0.0
Mn1 Mn 0.03773 0.32473 0.22709 0.0
O2 O 0.12377 0.22761 0.15149 0.0
Mn3 Mn 0.03933 0.20138 0.1676 0.0
O4 O 0.97888 0.30171 0.30247 0.0
O5 O 0.09694 0.38814 0.28054 0.0
Mn6 Mn 0.02541 0.4348 0.28551 0.0
O7 O 0.96118 0.39182 0.19866 0.0
O8 O 0.96343 0.39843 0.33845 0.0
O9 O 0.09713 0.24775 0.26712 0.0
O10 O 0.03257 0.16739 0.24984 0.0
O11 O 0.07155 0.48294 0.33313 0.0
O12 O 1.0067 0.48034 0.21238 0.0
C13 C 0.97804 0.26216 0.1096 0.0
C14 C 0.13979 0.28352 0.1332 0.0
C15 C 0.95127 0.33969 0.34065 0.0
C16 C 0.11204 0.43862 0.31637 0.0
C17 C 0.95462 0.45298 0.20416 0.0
C18 C 0.08087 0.18869 0.28047 0.0
O19 O 0.9848 0.26834 0.17125 0.0
O20 O 1.00213 0.2088 0.08893 0.0
O21 O 0.55446 0.62345 0.69854 0.0
Mn22 Mn 0.47789 0.69045 0.72705 0.0
O23 O 0.5094 0.53474 0.71267 0.0
Mn24 Mn 0.48994 0.57998 0.78575 0.0
O25 O 0.41849 0.76741 0.7672 0.0
O26 O 0.53087 0.74697 0.67142 0.0
Mn27 Mn 0.47639 0.81397 0.66777 0.0
O28 O 0.41171 0.68264 0.64792 0.0
O29 O 0.4831 0.84778 0.75009 0.0
O30 O 0.5368 0.71318 0.80249 0.0
O31 O 0.55127 0.61651 0.83923 0.0
O32 O 0.51373 0.80657 0.58916 0.0
O33 O 0.39195 0.7878 0.65152 0.0
C34 C 0.40307 0.5764 0.81588 0.0
C35 C 0.56133 0.56235 0.70434 0.0
C36 C 0.43475 0.82646 0.78063 0.0
C37 C 0.53784 0.75321 0.60981 0.0
C38 C 0.3759 0.73193 0.63316 0.0
C39 C 0.56388 0.67518 0.84105 0.0
O40 O 0.41865 0.6269 0.78027 0.0
O41 O 0.44322 0.53179 0.83274 0.0
O42 O 0.46136 0.12332 0.81674 0.0
Mn43 Mn 0.53784 0.19053 0.78835 0.0
O44 O 0.50671 0.03476 0.80242 0.0
Mn45 Mn 0.5255 0.08045 0.72942 0.0
O46 O 0.59714 0.26759 0.74829 0.0
O47 O 0.48495 0.24682 0.84433 0.0
Mn48 Mn 0.53949 0.31378 0.84802 0.0
O49 O 0.60418 0.18244 0.86733 0.0
O50 O 0.5326 0.34792 0.76584 0.0
O51 O 0.47894 0.21367 0.7131 0.0
O52 O 0.46348 0.11708 0.67672 0.0
O53 O 0.50257 0.30611 0.92682 0.0
O54 O 0.62399 0.28759 0.86382 0.0
C55 C 0.61227 0.07693 0.69875 0.0
C56 C 0.4547 0.06219 0.81093 0.0
C57 C 0.58083 0.32667 0.73506 0.0
C58 C 0.47842 0.25281 0.90602 0.0
C59 C 0.64006 0.23169 0.88208 0.0
C60 C 0.45137 0.17585 0.67475 0.0
O61 O 0.59695 0.1272 0.73477 0.0
O62 O 0.57189 0.03265 0.68163 0.0
O63 O 0.91149 0.83299 0.36728 0.0
Mn64 Mn 0.97781 0.82493 0.28829 0.0
O65 O 0.89168 0.72784 0.3638 0.0
Mn66 Mn 0.97617 0.70161 0.34782 0.0
O67 O 0.03673 0.80187 0.21298 0.0
O68 O 0.91867 0.88831 0.23476 0.0
Mn69 Mn 0.99009 0.93509 0.2294 0.0
O70 O 0.05435 0.89202 0.31671 0.0
O71 O 0.05182 0.89846 0.17639 0.0
O72 O 0.91847 0.74794 0.2482 0.0
O73 O 0.98305 0.66762 0.26558 0.0
O74 O 0.94361 0.98308 0.18192 0.0
O75 O 0.00913 0.98062 0.30243 0.0
C76 C 0.03735 0.7624 0.4059 0.0
C77 C 0.87562 0.78374 0.38205 0.0
C78 C 0.06409 0.83972 0.17449 0.0
C79 C 0.9033 0.93868 0.19888 0.0
C80 C 0.0611 0.95312 0.31087 0.0
C81 C 0.93479 0.68889 0.23486 0.0
O82 O 0.0307 0.76857 0.34423 0.0
O83 O 0.01328 0.70901 0.42655 0.0
O84 O 0.14829 0.10381 0.33281 0.0
Mn85 Mn 0.22735 0.03758 0.32473 0.0
O86 O 0.15172 0.12363 0.22766 0.0
Mn87 Mn 0.16769 0.03919 0.20143 0.0
O88 O 0.30274 0.97869 0.30172 0.0
O89 O 0.28085 0.09678 0.38813 0.0
Mn90 Mn 0.28577 0.02527 0.43478 0.0
O91 O 0.1989 0.96104 0.39179 0.0
O92 O 0.33883 0.96337 0.39844 0.0
O93 O 0.26739 0.09693 0.24771 0.0
O94 O 0.24994 0.0324 0.16738 0.0
O95 O 0.33332 0.07138 0.48301 0.0
O96 O 0.2126 1.00653 0.4803 0.0
C97 C 0.10968 0.9781 0.26233 0.0
C98 C 0.13349 0.13966 0.28357 0.0
C99 C 0.34098 0.95115 0.33971 0.0
C100 C 0.31663 0.11186 0.43866 0.0
C101 C 0.20439 0.95447 0.45293 0.0
C102 C 0.28065 0.08067 0.18864 0.0
O103 O 0.17139 0.98469 0.2684 0.0
O104 O 0.08893 1.00215 0.20898 0.0
O105 O 0.31684 0.0542 0.89194 0.0
Mn106 Mn 0.28838 0.97767 0.82492 0.0
O107 O 0.30267 0.00902 0.98055 0.0
Mn108 Mn 0.22958 0.9899 0.9351 0.0
O109 O 0.24828 0.91836 0.7479 0.0
O110 O 0.34438 0.03054 0.76858 0.0
Mn111 Mn 0.34801 0.97604 0.70161 0.0
O112 O 0.36739 0.91138 0.83297 0.0
O113 O 0.26575 0.98291 0.66759 0.0
O114 O 0.21302 0.03663 0.80193 0.0
O115 O 0.17636 0.05149 0.89854 0.0
O116 O 0.4268 0.01307 0.7091 0.0
O117 O 0.36394 0.89158 0.72783 0.0
C118 C 0.19909 0.90316 0.93878 0.0
C119 C 0.31106 0.06098 0.95304 0.0
C120 C 0.235 0.93467 0.68884 0.0
C121 C 0.40609 0.03709 0.76249 0.0
C122 C 0.38215 0.87552 0.78374 0.0
C123 C 0.17449 0.06388 0.83983 0.0
O124 O 0.23486 0.91852 0.88832 0.0
O125 O 0.18226 0.94345 0.98324 0.0
O126 O 0.64816 0.41152 0.68255 0.0
Mn127 Mn 0.72729 0.47772 0.69037 0.0
O128 O 0.65177 0.39177 0.78771 0.0
Mn129 Mn 0.66784 0.47621 0.81385 0.0
O130 O 0.80273 0.53668 0.71305 0.0
O131 O 0.78053 0.4185 0.62682 0.0
Mn132 Mn 0.78607 0.48972 0.57986 0.0
O133 O 0.69874 0.55426 0.62339 0.0
O134 O 0.83969 0.5509 0.61641 0.0
O135 O 0.76746 0.41839 0.76737 0.0
O136 O 0.75016 0.48295 0.84773 0.0
O137 O 0.83293 0.44293 0.53163 0.0
O138 O 0.71298 0.50931 0.53466 0.0
C139 C 0.60988 0.53745 0.75294 0.0
C140 C 0.63343 0.37572 0.73184 0.0
C141 C 0.8414 0.56363 0.67506 0.0
C142 C 0.81608 0.40285 0.57629 0.0
C143 C 0.7046 0.5612 0.56231 0.0
C144 C 0.78079 0.43465 0.82644 0.0
O145 O 0.67156 0.53067 0.74684 0.0
O146 O 0.58913 0.51336 0.80626 0.0
O147 O 0.86747 0.60399 0.18242 0.0
Mn148 Mn 0.78846 0.53767 0.19047 0.0
O149 O 0.86396 0.62378 0.28756 0.0
Mn150 Mn 0.84823 0.53929 0.31373 0.0
O151 O 0.71316 0.47873 0.2135 0.0
O152 O 0.73492 0.5968 0.12711 0.0
Mn153 Mn 0.72955 0.52541 0.08031 0.0
O154 O 0.8169 0.4612 0.12331 0.0
O155 O 0.67661 0.4636 0.1169 0.0
O156 O 0.74838 0.59693 0.26756 0.0
O157 O 0.76602 0.53242 0.34788 0.0
O158 O 0.68198 0.57187 0.03239 0.0
O159 O 0.8026 0.50645 0.03473 0.0
C160 C 0.9062 0.47834 0.25264 0.0
C161 C 0.88221 0.63984 0.23167 0.0
C162 C 0.67472 0.45132 0.17564 0.0
C163 C 0.69903 0.61218 0.07675 0.0
C164 C 0.81109 0.45448 0.0622 0.0
C165 C 0.73521 0.58064 0.32666 0.0
O166 O 0.84447 0.48479 0.24676 0.0
O167 O 0.92708 0.50247 0.30591 0.0
O168 O 0.33301 0.14808 0.10377 0.0
Mn169 Mn 0.32495 0.22711 0.03753 0.0
O170 O 0.22782 0.1515 0.12358 0.0
Mn171 Mn 0.20157 0.16748 0.03915 0.0
O172 O 0.30196 0.30248 0.97863 0.0
O173 O 0.38837 0.28058 0.09668 0.0
Mn174 Mn 0.43517 0.28575 0.02528 0.0
O175 O 0.39209 0.1987 0.96105 0.0
O176 O 0.39868 0.33877 0.96346 0.0
O177 O 0.2479 0.26716 0.09687 0.0
O178 O 0.16743 0.24968 0.03236 0.0
O179 O 0.48322 0.3333 0.07159 0.0
O180 O 0.48076 0.21266 1.00647 0.0
C181 C 0.26249 0.10952 0.97802 0.0
C182 C 0.28375 0.13327 0.1396 0.0
C183 C 0.33993 0.34079 0.95117 0.0
C184 C 0.43882 0.31642 0.11195 0.0
C185 C 0.45325 0.2043 0.9545 0.0
C186 C 0.18881 0.2804 0.08056 0.0
O187 O 0.26856 0.1712 0.98465 0.0
O188 O 0.20913 0.08876 1.00208 0.0
O189 O 0.83318 0.3673 0.91136 0.0
Mn190 Mn 0.82518 0.28829 0.97764 0.0
O191 O 0.72798 0.36383 0.89158 0.0
Mn192 Mn 0.70175 0.34784 0.97603 0.0
O193 O 0.80229 0.21295 0.03663 0.0
O194 O 0.88866 0.23487 0.91853 0.0
Mn195 Mn 0.93563 0.22924 0.98975 0.0
O196 O 0.89225 0.31675 0.05414 0.0
O197 O 0.8989 0.17589 0.05107 0.0
O198 O 0.74816 0.24816 0.91834 0.0
O199 O 0.66772 0.2656 0.98288 0.0
O200 O 0.98365 0.18211 0.94298 0.0
O201 O 0.98107 0.30224 0.00914 0.0
C202 C 0.76261 0.40587 0.03716 0.0
C203 C 0.78391 0.38206 0.87551 0.0
C204 C 0.84018 0.17423 0.06365 0.0
C205 C 0.93905 0.19912 0.90288 0.0
C206 C 0.95335 0.31079 0.06097 0.0
C207 C 0.68909 0.23487 0.93469 0.0
O208 O 0.76876 0.3442 0.03051 0.0
O209 O 0.7092 0.42657 0.01315 0.0
O210 O 0.62348 0.69854 0.55421 0.0
Mn211 Mn 0.69049 0.72708 0.4777 0.0
O212 O 0.53456 0.71304 0.5094 0.0
Mn213 Mn 0.57977 0.78606 0.48961 0.0
O214 O 0.76749 0.76727 0.41837 0.0
O215 O 0.74704 0.67141 0.53063 0.0
Mn216 Mn 0.81408 0.66771 0.47619 0.0
O217 O 0.68269 0.64797 0.4115 0.0
O218 O 0.84798 0.75001 0.48292 0.0
O219 O 0.71311 0.80251 0.53668 0.0
O220 O 0.61647 0.83978 0.55057 0.0
O221 O 0.80659 0.58907 0.51345 0.0
O222 O 0.78791 0.65155 0.39177 0.0
C223 C 0.5764 0.8158 0.40266 0.0
C224 C 0.56239 0.70454 0.56117 0.0
C225 C 0.82657 0.78062 0.43467 0.0
C226 C 0.75322 0.60978 0.53751 0.0
C227 C 0.73201 0.63322 0.37572 0.0
C228 C 0.67512 0.84133 0.56345 0.0
O229 O 0.62688 0.78025 0.41852 0.0
O230 O 0.53163 0.83277 0.44258 0.0
O231 O 0.12342 0.81675 0.46119 0.0
Mn232 Mn 0.19065 0.78836 0.53762 0.0
O233 O 0.0347 0.8023 0.50643 0.0
Mn234 Mn 0.08038 0.72931 0.52539 0.0
O235 O 0.26777 0.74829 0.59687 0.0
O236 O 0.24697 0.84435 0.48475 0.0
Mn237 Mn 0.31396 0.84812 0.53926 0.0
O238 O 0.18257 0.86734 0.60394 0.0
O239 O 0.34821 0.76597 0.53238 0.0
O240 O 0.21369 0.71309 0.47867 0.0
O241 O 0.11707 0.67644 0.46358 0.0
O242 O 0.30618 0.92693 0.50239 0.0
O243 O 0.28776 0.86387 0.62373 0.0
C244 C 0.07698 0.69887 0.61218 0.0
C245 C 0.06228 0.81089 0.45454 0.0
C246 C 0.32687 0.73514 0.58053 0.0
C247 C 0.25289 0.90606 0.47828 0.0
C248 C 0.23184 0.8821 0.63979 0.0
C249 C 0.17584 0.67461 0.45129 0.0
O250 O 0.12727 0.73483 0.5967 0.0
O251 O 0.03259 0.68169 0.57194 0.0
O252 O 0.91125 0.68231 0.86726 0.0
Mn253 Mn 0.97763 0.69046 0.78835 0.0
O254 O 0.89161 0.78753 0.86373 0.0
Mn255 Mn 0.9761 0.81371 0.84804 0.0
O256 O 0.0364 0.7143 0.71335 0.0
O257 O 0.91857 0.62725 0.73435 0.0
Mn258 Mn 0.99077 0.58139 0.73011 0.0
O259 O 0.05415 0.62319 0.81674 0.0
O260 O 0.05393 0.61778 0.67837 0.0
O261 O 0.91835 0.76738 0.7483 0.0
O262 O 0.98302 0.84759 0.76571 0.0
O263 O 0.94592 0.53346 0.68102 0.0
O264 O 0.00812 0.53494 0.80308 0.0
C265 C 0.03672 0.75249 0.90625 0.0
C266 C 0.87554 0.73168 0.88208 0.0
C267 C 0.0651 0.67666 0.67577 0.0
C268 C 0.90457 0.57692 0.69786 0.0
C269 C 0.06035 0.56197 0.81136 0.0
C270 C 0.93479 0.82635 0.73489 0.0
O271 O 0.03045 0.74659 0.84454 0.0
O272 O 0.01275 0.8059 0.92699 0.0
O273 O 0.6042 0.33275 0.36736 0.0
Mn274 Mn 0.53784 0.32481 0.2884 0.0
O275 O 0.62378 0.22752 0.3637 0.0
Mn276 Mn 0.53929 0.20142 0.34791 0.0
O277 O 0.47903 0.30124 0.21334 0.0
O278 O 0.59695 0.38813 0.23462 0.0
Mn279 Mn 0.52499 0.43426 0.2299 0.0
O280 O 0.46131 0.392 0.31684 0.0
O281 O 0.46242 0.39774 0.17764 0.0
O282 O 0.59711 0.2479 0.24824 0.0
O283 O 0.5324 0.16768 0.26552 0.0
O284 O 0.57041 0.48224 0.1814 0.0
O285 O 0.50693 0.48042 0.30283 0.0
C286 C 0.47855 0.26262 0.40609 0.0
C287 C 0.63988 0.28334 0.38213 0.0
C288 C 0.45082 0.33891 0.1754 0.0
C289 C 0.61143 0.43849 0.19834 0.0
C290 C 0.45483 0.45317 0.31121 0.0
C291 C 0.58067 0.18894 0.23477 0.0
O292 O 0.48497 0.26856 0.34441 0.0
O293 O 0.50255 0.20923 0.42682 0.0
O294 O 0.41103 0.83294 0.14764 0.0
Mn295 Mn 0.47753 0.82474 0.22646 0.0
O296 O 0.39142 0.72772 0.15119 0.0
Mn297 Mn 0.47596 0.70158 0.16661 0.0
O298 O 0.53634 0.80076 0.30133 0.0
O299 O 0.41856 0.88786 0.28058 0.0
Mn300 Mn 0.49068 0.93382 0.28522 0.0
O301 O 0.55398 0.89212 0.19812 0.0
O302 O 0.55388 0.89715 0.33672 0.0
O303 O 0.41834 0.74775 0.26653 0.0
O304 O 0.483 0.66757 0.24889 0.0
O305 O 0.44556 0.98139 0.33448 0.0
O306 O 0.50813 0.98041 0.2124 0.0
C307 C 0.53637 0.76297 0.1084 0.0
C308 C 0.3753 0.78357 0.13287 0.0
C309 C 0.56499 0.83824 0.33909 0.0
C310 C 0.40432 0.93798 0.31726 0.0
C311 C 0.56029 0.95331 0.20381 0.0
C312 C 0.43483 0.68877 0.27984 0.0
O313 O 0.53031 0.7687 0.17015 0.0
O314 O 0.51237 0.70961 0.08756 0.0
O315 O 0.10438 0.18212 0.64768 0.0
Mn316 Mn 0.03791 0.19028 0.72653 0.0
O317 O 0.12398 0.28735 0.65121 0.0
Mn318 Mn 0.03946 0.31351 0.66682 0.0
O319 O 0.97909 0.21416 0.80147 0.0
O320 O 0.09693 0.1271 0.78058 0.0
Mn321 Mn 0.02484 0.08111 0.7852 0.0
O322 O 0.9614 0.12301 0.69817 0.0
O323 O 0.96192 0.11774 0.83703 0.0
O324 O 0.09714 0.26721 0.76662 0.0
O325 O 0.03244 0.34737 0.74916 0.0
O326 O 0.07004 0.03333 0.83415 0.0
O327 O 1.00716 0.03468 0.71234 0.0
C328 C 0.97894 0.2523 0.60854 0.0
C329 C 0.1401 0.23149 0.6329 0.0
C330 C 0.95064 0.17663 0.83935 0.0
C331 C 0.11121 0.07688 0.81711 0.0
C332 C 0.95501 0.06184 0.70385 0.0
C333 C 0.08064 0.32615 0.78004 0.0
O334 O 0.98512 0.24639 0.67026 0.0
O335 O 1.00286 0.30575 0.58784 0.0
O336 O 0.86743 0.91108 0.68218 0.0
Mn337 Mn 0.78851 0.97747 0.69035 0.0
O338 O 0.86394 0.89147 0.78741 0.0
Mn339 Mn 0.84833 0.97595 0.81358 0.0
O340 O 0.71348 0.03625 0.71417 0.0
O341 O 0.73447 0.91841 0.62713 0.0
Mn342 Mn 0.73031 0.99059 0.58129 0.0
O343 O 0.81692 0.05398 0.62313 0.0
O344 O 0.67842 0.05365 0.61764 0.0
O345 O 0.74846 0.91821 0.7673 0.0
O346 O 0.76597 0.98286 0.84749 0.0
O347 O 0.68132 0.94578 0.53324 0.0
O348 O 0.80332 0.00799 0.53488 0.0
C349 C 0.90654 0.03642 0.75227 0.0
C350 C 0.88224 0.87538 0.73155 0.0
C351 C 0.67586 0.06489 0.67651 0.0
C352 C 0.69806 0.90444 0.57673 0.0
C353 C 0.81158 0.06021 0.56193 0.0
C354 C 0.73511 0.93465 0.82628 0.0
O355 O 0.84478 0.03025 0.74645 0.0
O356 O 0.92734 0.01252 0.80568 0.0
O357 O 0.64798 0.10418 0.18205 0.0
Mn358 Mn 0.72686 0.03774 0.19019 0.0
O359 O 0.65148 0.12374 0.28728 0.0
Mn360 Mn 0.66708 0.03925 0.31342 0.0
O361 O 0.80186 0.9789 0.21398 0.0
O362 O 0.78089 0.09678 0.12697 0.0
Mn363 Mn 0.78541 0.02472 0.08098 0.0
O364 O 0.69846 0.96122 0.12299 0.0
O365 O 0.83748 0.96196 0.11752 0.0
O366 O 0.76696 0.09695 0.26713 0.0
O367 O 0.74946 0.03227 0.34729 0.0
O368 O 0.83417 0.06988 0.03301 0.0
O369 O 0.71247 1.00694 0.03465 0.0
C370 C 0.60881 0.97881 0.25215 0.0
C371 C 0.6332 0.13987 0.23142 0.0
C372 C 0.83977 0.95055 0.17638 0.0
C373 C 0.81729 0.11104 0.07663 0.0
C374 C 0.70406 0.95481 0.06183 0.0
C375 C 0.78034 0.08047 0.32609 0.0
O376 O 0.67057 0.98496 0.24629 0.0
O377 O 0.58806 1.00266 0.3056 0.0
O378 O 0.36755 0.60406 0.33271 0.0
Mn379 Mn 0.28858 0.5377 0.32478 0.0
O380 O 0.3639 0.6236 0.22748 0.0
Mn381 Mn 0.34821 0.53912 0.2014 0.0
O382 O 0.2135 0.47885 0.30127 0.0
O383 O 0.23479 0.59681 0.38812 0.0
Mn384 Mn 0.23003 0.5249 0.43428 0.0
O385 O 0.31705 0.46118 0.39193 0.0
O386 O 0.1776 0.4625 0.39776 0.0
O387 O 0.24841 0.59692 0.24783 0.0
O388 O 0.2658 0.53224 0.16763 0.0
O389 O 0.18169 0.57039 0.48233 0.0
O390 O 0.30299 0.5067 0.48038 0.0
C391 C 0.40638 0.47854 0.26273 0.0
C392 C 0.3823 0.63972 0.2833 0.0
C393 C 0.17546 0.45078 0.33896 0.0
C394 C 0.1986 0.61134 0.43852 0.0
C395 C 0.31139 0.45464 0.45308 0.0
C396 C 0.235 0.58048 0.18886 0.0
O397 O 0.34464 0.48485 0.26856 0.0
O398 O 0.4272 0.50249 0.20936 0.0
O399 O 0.14791 0.41091 0.83284 0.0
Mn400 Mn 0.22677 0.47738 0.82469 0.0
O401 O 0.15146 0.39134 0.72761 0.0
Mn402 Mn 0.16685 0.47586 0.70151 0.0
O403 O 0.30171 0.53621 0.80084 0.0
O404 O 0.28084 0.41839 0.88787 0.0
Mn405 Mn 0.28548 0.49044 0.93387 0.0
O406 O 0.19839 0.55383 0.89201 0.0
O407 O 0.33725 0.55342 0.89726 0.0
O408 O 0.26686 0.41821 0.74768 0.0
O409 O 0.24917 0.48285 0.6675 0.0
O410 O 0.33449 0.44526 0.9816 0.0
O411 O 0.21259 0.50808 0.98034 0.0
C412 C 0.10868 0.53619 0.763 0.0
C413 C 0.13315 0.37521 0.78346 0.0
C414 C 0.33954 0.56471 0.83838 0.0
C415 C 0.31738 0.40409 0.93809 0.0
C416 C 0.20405 0.5602 0.95319 0.0
C417 C 0.28013 0.43469 0.68869 0.0
O418 O 0.17046 0.53016 0.76865 0.0
O419 O 0.08776 0.51223 0.70966 0.0
O420 O 0.68239 0.8673 0.911 0.0
Mn421 Mn 0.69055 0.78841 0.97741 0.0
O422 O 0.78766 0.86383 0.89141 0.0
Mn423 Mn 0.81384 0.84822 0.97588 0.0
O424 O 0.71435 0.71341 0.03621 0.0
O425 O 0.62733 0.7344 0.9184 0.0
Mn426 Mn 0.58133 0.72999 0.99047 0.0
O427 O 0.62323 0.81678 0.05386 0.0
O428 O 0.61781 0.67819 0.05351 0.0
O429 O 0.76753 0.74836 0.91818 0.0
O430 O 0.84785 0.76593 0.9828 0.0
O431 O 0.53349 0.68095 0.94547 0.0
O432 O 0.53484 0.80293 0.00788 0.0
C433 C 0.75251 0.90638 0.03639 0.0
C434 C 0.73178 0.88212 0.87532 0.0
C435 C 0.6767 0.67573 0.06479 0.0
C436 C 0.57703 0.6979 0.90425 0.0
C437 C 0.562 0.81135 0.06001 0.0
C438 C 0.82653 0.73504 0.93466 0.0
O439 O 0.7467 0.84464 0.03019 0.0
O440 O 0.80592 0.9272 0.01246 0.0
O441 O 0.18225 0.64778 0.1041 0.0
Mn442 Mn 0.19034 0.72665 0.03766 0.0
O443 O 0.28753 0.65129 0.12365 0.0
Mn444 Mn 0.31368 0.66693 0.03916 0.0
O445 O 0.21404 0.80164 0.97879 0.0
O446 O 0.12708 0.7806 0.09666 0.0
Mn447 Mn 0.08089 0.78545 0.02477 0.0
O448 O 0.12309 0.69826 0.9612 0.0
O449 O 0.11758 0.83759 0.9622 0.0
O450 O 0.26729 0.76678 0.09686 0.0
O451 O 0.34759 0.74928 0.03219 0.0
O452 O 0.03306 0.83407 0.07024 0.0
O453 O 0.03456 0.71258 1.00678 0.0
C454 C 0.25242 0.60871 0.97865 0.0
C455 C 0.23165 0.633 0.13978 0.0
C456 C 0.17644 0.83971 0.95064 0.0
C457 C 0.07681 0.817 0.1112 0.0
C458 C 0.06192 0.70401 0.95477 0.0
C459 C 0.32626 0.78016 0.08033 0.0
O460 O 0.24652 0.67044 0.98488 0.0
O461 O 0.30589 0.58797 1.00251 0.0
O462 O 0.33299 0.36741 0.60398 0.0
Mn463 Mn 0.32508 0.28845 0.53761 0.0
O464 O 0.22771 0.36378 0.6235 0.0
Mn465 Mn 0.20161 0.34803 0.53904 0.0
O466 O 0.30163 0.21338 0.47874 0.0
O467 O 0.38845 0.23472 0.59669 0.0
Mn468 Mn 0.43478 0.22972 0.52491 0.0
O469 O 0.39228 0.31691 0.46114 0.0
O470 O 0.39814 0.17724 0.46264 0.0
O471 O 0.24813 0.24827 0.59683 0.0
O472 O 0.1678 0.26565 0.53216 0.0
O473 O 0.48272 0.18147 0.57061 0.0
O474 O 0.4809 0.30262 0.50658 0.0
C475 C 0.2629 0.40617 0.47838 0.0
C476 C 0.28356 0.38217 0.63962 0.0
C477 C 0.33932 0.17523 0.45081 0.0
C478 C 0.4388 0.19851 0.61141 0.0
C479 C 0.45344 0.31114 0.45461 0.0
C480 C 0.18915 0.23486 0.58034 0.0
O481 O 0.2688 0.34447 0.48477 0.0
O482 O 0.20948 0.42695 0.50232 0.0
O483 O 0.83312 0.14775 0.41084 0.0
Mn484 Mn 0.82494 0.22658 0.47733 0.0
O485 O 0.72785 0.15125 0.39128 0.0
Mn486 Mn 0.70171 0.16666 0.47578 0.0
O487 O 0.80108 0.30148 0.53617 0.0
O488 O 0.88812 0.28065 0.41838 0.0
Mn489 Mn 0.93422 0.28543 0.49036 0.0
O490 O 0.89235 0.19824 0.55372 0.0
O491 O 0.89752 0.33709 0.55337 0.0
O492 O 0.74791 0.26665 0.41817 0.0
O493 O 0.66761 0.24891 0.48278 0.0
O494 O 0.98179 0.33453 0.4451 0.0
O495 O 0.9808 0.21259 0.50793 0.0
C496 C 0.7632 0.10852 0.53615 0.0
C497 C 0.78373 0.13298 0.37515 0.0
C498 C 0.83862 0.33934 0.56466 0.0
C499 C 0.93826 0.31727 0.404 0.0
C500 C 0.95356 0.20394 0.55999 0.0
C501 C 0.6889 0.27989 0.43469 0.0
O502 O 0.76886 0.17028 0.53009 0.0
O503 O 0.70984 0.08761 0.51219 0.0
loop_
_geom_bond_atom_site_label_1
_geom_bond_atom_site_label_2
_geom_bond_distance
_geom_bond_site_symmetry_2
_ccdc_geom_bond_type
O0 Mn1 2.163 . S
O0 C14 1.244 . S
Mn1 O0 2.163 . S
Mn1 O4 2.160 1_455 S
Mn1 O5 2.221 . S
Mn1 O7 2.163 1_455 S
Mn1 O9 2.160 . S
Mn1 O19 2.221 1_455 S
O2 Mn3 2.087 . S
O2 C14 1.256 . S
Mn3 O2 2.087 . S
Mn3 O10 2.089 . S
Mn3 O19 2.290 1_455 S
Mn3 O20 2.251 1_455 S
O4 Mn1 2.160 1_655 S
O4 C15 1.239 . S
O5 Mn1 2.221 . S
O5 Mn6 2.290 1_455 S
O5 C16 1.278 . S
Mn6 O5 2.290 1_655 S
Mn6 O8 2.089 . S
Mn6 O11 2.251 1_655 S
Mn6 O12 2.087 . S
O7 Mn1 2.163 1_655 S
O7 C17 1.244 . S
O8 Mn6 2.089 . S
O8 C15 1.256 . S
O9 Mn1 2.160 . S
O9 C18 1.239 . S
O10 Mn3 2.089 . S
O10 C18 1.256 . S
O11 Mn6 2.251 1_455 S
O11 C16 1.241 . S
O12 Mn6 2.087 . S
O12 C17 1.256 . S
C13 O19 1.278 . S
C13 O20 1.241 . S
C14 O0 1.244 . S
C14 O2 1.256 . S
C15 O4 1.239 . S
C15 O8 1.256 . S
C16 O5 1.278 . S
C16 O11 1.241 . S
C17 O7 1.244 . S
C17 O12 1.256 . S
C18 O9 1.239 . S
C18 O10 1.256 . S
O19 Mn1 2.221 1_655 S
O19 Mn3 2.290 1_655 S
O19 C13 1.278 . S
O20 Mn3 2.251 1_655 S
O20 C13 1.241 . S
O21 Mn22 2.163 . S
O21 C35 1.244 . S
Mn22 O21 2.163 . S
Mn22 O25 2.160 . S
Mn22 O26 2.221 . S
Mn22 O28 2.163 . S
Mn22 O30 2.160 . S
Mn22 O40 2.221 . S
O23 Mn24 2.087 . S
O23 C35 1.256 . S
Mn24 O23 2.087 . S
Mn24 O31 2.089 . S
Mn24 O40 2.290 . S
Mn24 O41 2.251 . S
O25 Mn22 2.160 . S
O25 C36 1.239 . S
O26 Mn22 2.221 . S
O26 Mn27 2.290 . S
O26 C37 1.278 . S
Mn27 O26 2.290 . S
Mn27 O29 2.089 . S
Mn27 O32 2.251 . S
Mn27 O33 2.087 . S
O28 Mn22 2.163 . S
O28 C38 1.244 . S
O29 Mn27 2.089 . S
O29 C36 1.256 . S
O30 Mn22 2.160 . S
O30 C39 1.239 . S
O31 Mn24 2.089 . S
O31 C39 1.256 . S
O32 Mn27 2.251 . S
O32 C37 1.241 . S
O33 Mn27 2.087 . S
O33 C38 1.256 . S
C34 O40 1.278 . S
C34 O41 1.241 . S
C35 O21 1.244 . S
C35 O23 1.256 . S
C36 O25 1.239 . S
C36 O29 1.256 . S
C37 O26 1.278 . S
C37 O32 1.241 . S
C38 O28 1.244 . S
C38 O33 1.256 . S
C39 O30 1.239 . S
C39 O31 1.256 . S
O40 Mn22 2.221 . S
O40 Mn24 2.290 . S
O40 C34 1.278 . S
O41 Mn24 2.251 . S
O41 C34 1.241 . S
O42 Mn43 2.163 . S
O42 C56 1.244 . S
Mn43 O42 2.163 . S
Mn43 O46 2.160 . S
Mn43 O47 2.221 . S
Mn43 O49 2.163 . S
Mn43 O51 2.160 . S
Mn43 O61 2.221 . S
O44 Mn45 2.087 . S
O44 C56 1.256 . S
Mn45 O44 2.087 . S
Mn45 O52 2.089 . S
Mn45 O61 2.290 . S
Mn45 O62 2.251 . S
O46 Mn43 2.160 . S
O46 C57 1.239 . S
O47 Mn43 2.221 . S
O47 Mn48 2.290 . S
O47 C58 1.278 . S
Mn48 O47 2.290 . S
Mn48 O50 2.089 . S
Mn48 O53 2.251 . S
Mn48 O54 2.087 . S
O49 Mn43 2.163 . S
O49 C59 1.244 . S
O50 Mn48 2.089 . S
O50 C57 1.256 . S
O51 Mn43 2.160 . S
O51 C60 1.239 . S
O52 Mn45 2.089 . S
O52 C60 1.256 . S
O53 Mn48 2.251 . S
O53 C58 1.241 . S
O54 Mn48 2.087 . S
O54 C59 1.256 . S
C55 O61 1.278 . S
C55 O62 1.241 . S
C56 O42 1.244 . S
C56 O44 1.256 . S
C57 O46 1.239 . S
C57 O50 1.256 . S
C58 O47 1.278 . S
C58 O53 1.241 . S
C59 O49 1.244 . S
C59 O54 1.256 . S
C60 O51 1.239 . S
C60 O52 1.256 . S
O61 Mn43 2.221 . S
O61 Mn45 2.290 . S
O61 C55 1.278 . S
O62 Mn45 2.251 . S
O62 C55 1.241 . S
O63 Mn64 2.163 . S
O63 C77 1.244 . S
Mn64 O63 2.163 . S
Mn64 O67 2.160 1_655 S
Mn64 O68 2.221 . S
Mn64 O70 2.163 1_655 S
Mn64 O72 2.160 . S
Mn64 O82 2.221 1_655 S
O65 Mn66 2.087 . S
O65 C77 1.256 . S
Mn66 O65 2.087 . S
Mn66 O73 2.089 . S
Mn66 O82 2.290 1_655 S
Mn66 O83 2.251 1_655 S
O67 Mn64 2.160 1_455 S
O67 C78 1.239 . S
O68 Mn64 2.221 . S
O68 Mn69 2.290 1_655 S
O68 C79 1.278 . S
Mn69 O68 2.290 1_455 S
Mn69 O71 2.089 . S
Mn69 O74 2.251 1_455 S
Mn69 O75 2.087 . S
O70 Mn64 2.163 1_455 S
O70 C80 1.244 . S
O71 Mn69 2.089 . S
O71 C78 1.256 . S
O72 Mn64 2.160 . S
O72 C81 1.239 . S
O73 Mn66 2.089 . S
O73 C81 1.256 . S
O74 Mn69 2.251 1_655 S
O74 C79 1.241 . S
O75 Mn69 2.087 . S
O75 C80 1.256 . S
C76 O82 1.278 . S
C76 O83 1.241 . S
C77 O63 1.244 . S
C77 O65 1.256 . S
C78 O67 1.239 . S
C78 O71 1.256 . S
C79 O68 1.278 . S
C79 O74 1.241 . S
C80 O70 1.244 . S
C80 O75 1.256 . S
C81 O72 1.239 . S
C81 O73 1.256 . S
O82 Mn64 2.221 1_455 S
O82 Mn66 2.290 1_455 S
O82 C76 1.278 . S
O83 Mn66 2.251 1_455 S
O83 C76 1.241 . S
O84 Mn85 2.163 . S
O84 C98 1.244 . S
Mn85 O84 2.163 . S
Mn85 O88 2.160 1_545 S
Mn85 O89 2.221 . S
Mn85 O91 2.163 1_545 S
Mn85 O93 2.160 . S
Mn85 O103 2.221 1_545 S
O86 Mn87 2.087 . S
O86 C98 1.256 . S
Mn87 O86 2.087 . S
Mn87 O94 2.089 . S
Mn87 O103 2.290 1_545 S
Mn87 O104 2.251 1_545 S
O88 Mn85 2.160 1_565 S
O88 C99 1.239 . S
O89 Mn85 2.221 . S
O89 Mn90 2.290 1_545 S
O89 C100 1.278 . S
Mn90 O89 2.290 1_565 S
Mn90 O92 2.089 . S
Mn90 O95 2.251 1_565 S
Mn90 O96 2.087 . S
O91 Mn85 2.163 1_565 S
O91 C101 1.244 . S
O92 Mn90 2.089 . S
O92 C99 1.256 . S
O93 Mn85 2.160 . S
O93 C102 1.239 . S
O94 Mn87 2.089 . S
O94 C102 1.256 . S
O95 Mn90 2.251 1_545 S
O95 C100 1.241 . S
O96 Mn90 2.087 . S
O96 C101 1.256 . S
C97 O103 1.278 . S
C97 O104 1.241 . S
C98 O84 1.244 . S
C98 O86 1.256 . S
C99 O88 1.239 . S
C99 O92 1.256 . S
C100 O89 1.278 . S
C100 O95 1.241 . S
C101 O91 1.244 . S
C101 O96 1.256 . S
C102 O93 1.239 . S
C102 O94 1.256 . S
O103 Mn85 2.221 1_565 S
O103 Mn87 2.290 1_565 S
O103 C97 1.278 . S
O104 Mn87 2.251 1_565 S
O104 C97 1.241 . S
O105 Mn106 2.163 1_545 S
O105 C119 1.244 . S
Mn106 O105 2.163 1_565 S
Mn106 O109 2.160 . S
Mn106 O110 2.221 1_565 S
Mn106 O112 2.163 . S
Mn106 O114 2.160 1_565 S
Mn106 O124 2.221 . S
O107 Mn108 2.087 . S
O107 C119 1.256 . S
Mn108 O107 2.087 . S
Mn108 O115 2.089 . S
Mn108 O124 2.290 1_545 S
Mn108 O125 2.251 1_545 S
O109 Mn106 2.160 . S
O109 C120 1.239 . S
O110 Mn106 2.221 1_545 S
O110 Mn111 2.290 1_545 S
O110 C121 1.278 . S
Mn111 O110 2.290 1_565 S
Mn111 O113 2.089 . S
Mn111 O116 2.251 1_565 S
Mn111 O117 2.087 . S
O112 Mn106 2.163 . S
O112 C122 1.244 . S
O113 Mn111 2.089 . S
O113 C120 1.256 . S
O114 Mn106 2.160 1_545 S
O114 C123 1.239 . S
O115 Mn108 2.089 . S
O115 C123 1.256 . S
O116 Mn111 2.251 1_545 S
O116 C121 1.241 . S
O117 Mn111 2.087 . S
O117 C122 1.256 . S
C118 O124 1.278 . S
C118 O125 1.241 . S
C119 O105 1.244 . S
C119 O107 1.256 . S
C120 O109 1.239 . S
C120 O113 1.256 . S
C121 O110 1.278 . S
C121 O116 1.241 . S
C122 O112 1.244 . S
C122 O117 1.256 . S
C123 O114 1.239 . S
C123 O115 1.256 . S
O124 Mn106 2.221 . S
O124 Mn108 2.290 1_565 S
O124 C118 1.278 . S
O125 Mn108 2.251 1_565 S
O125 C118 1.241 . S
O126 Mn127 2.163 . S
O126 C140 1.244 . S
Mn127 O126 2.163 . S
Mn127 O130 2.160 . S
Mn127 O131 2.221 . S
Mn127 O133 2.163 . S
Mn127 O135 2.160 . S
Mn127 O145 2.221 . S
O128 Mn129 2.087 . S
O128 C140 1.256 . S
Mn129 O128 2.087 . S
Mn129 O136 2.089 . S
Mn129 O145 2.290 . S
Mn129 O146 2.251 . S
O130 Mn127 2.160 . S
O130 C141 1.239 . S
O131 Mn127 2.221 . S
O131 Mn132 2.290 . S
O131 C142 1.278 . S
Mn132 O131 2.290 . S
Mn132 O134 2.089 . S
Mn132 O137 2.251 . S
Mn132 O138 2.087 . S
O133 Mn127 2.163 . S
O133 C143 1.244 . S
O134 Mn132 2.089 . S
O134 C141 1.256 . S
O135 Mn127 2.160 . S
O135 C144 1.239 . S
O136 Mn129 2.089 . S
O136 C144 1.256 . S
O137 Mn132 2.251 . S
O137 C142 1.241 . S
O138 Mn132 2.087 . S
O138 C143 1.256 . S
C139 O145 1.278 . S
C139 O146 1.241 . S
C140 O126 1.244 . S
C140 O128 1.256 . S
C141 O130 1.239 . S
C141 O134 1.256 . S
C142 O131 1.278 . S
C142 O137 1.241 . S
C143 O133 1.244 . S
C143 O138 1.256 . S
C144 O135 1.239 . S
C144 O136 1.256 . S
O145 Mn127 2.221 . S
O145 Mn129 2.290 . S
O145 C139 1.278 . S
O146 Mn129 2.251 . S
O146 C139 1.241 . S
O147 Mn148 2.163 . S
O147 C161 1.244 . S
Mn148 O147 2.163 . S
Mn148 O151 2.160 . S
Mn148 O152 2.221 . S
Mn148 O154 2.163 . S
Mn148 O156 2.160 . S
Mn148 O166 2.221 . S
O149 Mn150 2.087 . S
O149 C161 1.256 . S
Mn150 O149 2.087 . S
Mn150 O157 2.089 . S
Mn150 O166 2.290 . S
Mn150 O167 2.251 . S
O151 Mn148 2.160 . S
O151 C162 1.239 . S
O152 Mn148 2.221 . S
O152 Mn153 2.290 . S
O152 C163 1.278 . S
Mn153 O152 2.290 . S
Mn153 O155 2.089 . S
Mn153 O158 2.251 . S
Mn153 O159 2.087 . S
O154 Mn148 2.163 . S
O154 C164 1.244 . S
O155 Mn153 2.089 . S
O155 C162 1.256 . S
O156 Mn148 2.160 . S
O156 C165 1.239 . S
O157 Mn150 2.089 . S
O157 C165 1.256 . S
O158 Mn153 2.251 . S
O158 C163 1.241 . S
O159 Mn153 2.087 . S
O159 C164 1.256 . S
C160 O166 1.278 . S
C160 O167 1.241 . S
C161 O147 1.244 . S
C161 O149 1.256 . S
C162 O151 1.239 . S
C162 O155 1.256 . S
C163 O152 1.278 . S
C163 O158 1.241 . S
C164 O154 1.244 . S
C164 O159 1.256 . S
C165 O156 1.239 . S
C165 O157 1.256 . S
O166 Mn148 2.221 . S
O166 Mn150 2.290 . S
O166 C160 1.278 . S
O167 Mn150 2.251 . S
O167 C160 1.241 . S
O168 Mn169 2.163 . S
O168 C182 1.244 . S
Mn169 O168 2.163 . S
Mn169 O172 2.160 1_554 S
Mn169 O173 2.221 . S
Mn169 O175 2.163 1_554 S
Mn169 O177 2.160 . S
Mn169 O187 2.221 1_554 S
O170 Mn171 2.087 . S
O170 C182 1.256 . S
Mn171 O170 2.087 . S
Mn171 O178 2.089 . S
Mn171 O187 2.290 1_554 S
Mn171 O188 2.251 1_554 S
O172 Mn169 2.160 1_556 S
O172 C183 1.239 . S
O173 Mn169 2.221 . S
O173 Mn174 2.290 1_554 S
O173 C184 1.278 . S
Mn174 O173 2.290 1_556 S
Mn174 O176 2.089 . S
Mn174 O179 2.251 1_556 S
Mn174 O180 2.087 . S
O175 Mn169 2.163 1_556 S
O175 C185 1.244 . S
O176 Mn174 2.089 . S
O176 C183 1.256 . S
O177 Mn169 2.160 . S
O177 C186 1.239 . S
O178 Mn171 2.089 . S
O178 C186 1.256 . S
O179 Mn174 2.251 1_554 S
O179 C184 1.241 . S
O180 Mn174 2.087 . S
O180 C185 1.256 . S
C181 O187 1.278 . S
C181 O188 1.241 . S
C182 O168 1.244 . S
C182 O170 1.256 . S
C183 O172 1.239 . S
C183 O176 1.256 . S
C184 O173 1.278 . S
C184 O179 1.241 . S
C185 O175 1.244 . S
C185 O180 1.256 . S
C186 O177 1.239 . S
C186 O178 1.256 . S
O187 Mn169 2.221 1_556 S
O187 Mn171 2.290 1_556 S
O187 C181 1.278 . S
O188 Mn171 2.251 1_556 S
O188 C181 1.241 . S
O189 Mn190 2.163 . S
O189 C203 1.244 . S
Mn190 O189 2.163 . S
Mn190 O193 2.160 1_556 S
Mn190 O194 2.221 . S
Mn190 O196 2.163 1_556 S
Mn190 O198 2.160 . S
Mn190 O208 2.221 1_556 S
O191 Mn192 2.087 . S
O191 C203 1.256 . S
Mn192 O191 2.087 . S
Mn192 O199 2.089 . S
Mn192 O208 2.290 1_556 S
Mn192 O209 2.251 1_556 S
O193 Mn190 2.160 1_554 S
O193 C204 1.239 . S
O194 Mn190 2.221 . S
O194 Mn195 2.290 1_556 S
O194 C205 1.278 . S
Mn195 O194 2.290 1_554 S
Mn195 O197 2.089 . S
Mn195 O200 2.251 1_554 S
Mn195 O201 2.087 . S
O196 Mn190 2.163 1_554 S
O196 C206 1.244 . S
O197 Mn195 2.089 . S
O197 C204 1.256 . S
O198 Mn190 2.160 . S
O198 C207 1.239 . S
O199 Mn192 2.089 . S
O199 C207 1.256 . S
O200 Mn195 2.251 1_556 S
O200 C205 1.241 . S
O201 Mn195 2.087 . S
O201 C206 1.256 . S
C202 O208 1.278 . S
C202 O209 1.241 . S
C203 O189 1.244 . S
C203 O191 1.256 . S
C204 O193 1.239 . S
C204 O197 1.256 . S
C205 O194 1.278 . S
C205 O200 1.241 . S
C206 O196 1.244 . S
C206 O201 1.256 . S
C207 O198 1.239 . S
C207 O199 1.256 . S
O208 Mn190 2.221 1_554 S
O208 Mn192 2.290 1_554 S
O208 C202 1.278 . S
O209 Mn192 2.251 1_554 S
O209 C202 1.241 . S
O210 Mn211 2.163 . S
O210 C224 1.244 . S
Mn211 O210 2.163 . S
Mn211 O214 2.160 . S
Mn211 O215 2.221 . S
Mn211 O217 2.163 . S
Mn211 O219 2.160 . S
Mn211 O229 2.221 . S
O212 Mn213 2.087 . S
O212 C224 1.256 . S
Mn213 O212 2.087 . S
Mn213 O220 2.089 . S
Mn213 O229 2.290 . S
Mn213 O230 2.251 . S
O214 Mn211 2.160 . S
O214 C225 1.239 . S
O215 Mn211 2.221 . S
O215 Mn216 2.290 . S
O215 C226 1.278 . S
Mn216 O215 2.290 . S
Mn216 O218 2.089 . S
Mn216 O221 2.251 . S
Mn216 O222 2.087 . S
O217 Mn211 2.163 . S
O217 C227 1.244 . S
O218 Mn216 2.089 . S
O218 C225 1.256 . S
O219 Mn211 2.160 . S
O219 C228 1.239 . S
O220 Mn213 2.089 . S
O220 C228 1.256 . S
O221 Mn216 2.251 . S
O221 C226 1.241 . S
O222 Mn216 2.087 . S
O222 C227 1.256 . S
C223 O229 1.278 . S
C223 O230 1.241 . S
C224 O210 1.244 . S
C224 O212 1.256 . S
C225 O214 1.239 . S
C225 O218 1.256 . S
C226 O215 1.278 . S
C226 O221 1.241 . S
C227 O217 1.244 . S
C227 O222 1.256 . S
C228 O219 1.239 . S
C228 O220 1.256 . S
O229 Mn211 2.221 . S
O229 Mn213 2.290 . S
O229 C223 1.278 . S
O230 Mn213 2.251 . S
O230 C223 1.241 . S
O231 Mn232 2.163 . S
O231 C245 1.244 . S
Mn232 O231 2.163 . S
Mn232 O235 2.160 . S
Mn232 O236 2.221 . S
Mn232 O238 2.163 . S
Mn232 O240 2.160 . S
Mn232 O250 2.221 . S
O233 Mn234 2.087 . S
O233 C245 1.256 . S
Mn234 O233 2.087 . S
Mn234 O241 2.089 . S
Mn234 O250 2.290 . S
Mn234 O251 2.251 . S
O235 Mn232 2.160 . S
O235 C246 1.239 . S
O236 Mn232 2.221 . S
O236 Mn237 2.290 . S
O236 C247 1.278 . S
Mn237 O236 2.290 . S
Mn237 O239 2.089 . S
Mn237 O242 2.251 . S
Mn237 O243 2.087 . S
O238 Mn232 2.163 . S
O238 C248 1.244 . S
O239 Mn237 2.089 . S
O239 C246 1.256 . S
O240 Mn232 2.160 . S
O240 C249 1.239 . S
O241 Mn234 2.089 . S
O241 C249 1.256 . S
O242 Mn237 2.251 . S
O242 C247 1.241 . S
O243 Mn237 2.087 . S
O243 C248 1.256 . S
C244 O250 1.278 . S
C244 O251 1.241 . S
C245 O231 1.244 . S
C245 O233 1.256 . S
C246 O235 1.239 . S
C246 O239 1.256 . S
C247 O236 1.278 . S
C247 O242 1.241 . S
C248 O238 1.244 . S
C248 O243 1.256 . S
C249 O240 1.239 . S
C249 O241 1.256 . S
O250 Mn232 2.221 . S
O250 Mn234 2.290 . S
O250 C244 1.278 . S
O251 Mn234 2.251 . S
O251 C244 1.241 . S
O252 Mn253 2.163 . S
O252 C266 1.244 . S
Mn253 O252 2.163 . S
Mn253 O256 2.160 1_655 S
Mn253 O257 2.221 . S
Mn253 O259 2.163 1_655 S
Mn253 O261 2.160 . S
Mn253 O271 2.221 1_655 S
O254 Mn255 2.087 . S
O254 C266 1.256 . S
Mn255 O254 2.087 . S
Mn255 O262 2.089 . S
Mn255 O271 2.290 1_655 S
Mn255 O272 2.251 1_655 S
O256 Mn253 2.160 1_455 S
O256 C267 1.239 . S
O257 Mn253 2.221 . S
O257 Mn258 2.290 1_655 S
O257 C268 1.278 . S
Mn258 O257 2.290 1_455 S
Mn258 O260 2.089 . S
Mn258 O263 2.251 1_455 S
Mn258 O264 2.087 . S
O259 Mn253 2.163 1_455 S
O259 C269 1.244 . S
O260 Mn258 2.089 . S
O260 C267 1.256 . S
O261 Mn253 2.160 . S
O261 C270 1.239 . S
O262 Mn255 2.089 . S
O262 C270 1.256 . S
O263 Mn258 2.251 1_655 S
O263 C268 1.241 . S
O264 Mn258 2.087 . S
O264 C269 1.256 . S
C265 O271 1.278 . S
C265 O272 1.241 . S
C266 O252 1.244 . S
C266 O254 1.256 . S
C267 O256 1.239 . S
C267 O260 1.256 . S
C268 O257 1.278 . S
C268 O263 1.241 . S
C269 O259 1.244 . S
C269 O264 1.256 . S
C270 O261 1.239 . S
C270 O262 1.256 . S
O271 Mn253 2.221 1_455 S
O271 Mn255 2.290 1_455 S
O271 C265 1.278 . S
O272 Mn255 2.251 1_455 S
O272 C265 1.241 . S
O273 Mn274 2.163 . S
O273 C287 1.244 . S
Mn274 O273 2.163 . S
Mn274 O277 2.160 . S
Mn274 O278 2.221 . S
Mn274 O280 2.163 . S
Mn274 O282 2.160 . S
Mn274 O292 2.221 . S
O275 Mn276 2.087 . S
O275 C287 1.256 . S
Mn276 O275 2.087 . S
Mn276 O283 2.089 . S
Mn276 O292 2.290 . S
Mn276 O293 2.251 . S
O277 Mn274 2.160 . S
O277 C288 1.239 . S
O278 Mn274 2.221 . S
O278 Mn279 2.290 . S
O278 C289 1.278 . S
Mn279 O278 2.290 . S
Mn279 O281 2.089 . S
Mn279 O284 2.251 . S
Mn279 O285 2.087 . S
O280 Mn274 2.163 . S
O280 C290 1.244 . S
O281 Mn279 2.089 . S
O281 C288 1.256 . S
O282 Mn274 2.160 . S
O282 C291 1.239 . S
O283 Mn276 2.089 . S
O283 C291 1.256 . S
O284 Mn279 2.251 . S
O284 C289 1.241 . S
O285 Mn279 2.087 . S
O285 C290 1.256 . S
C286 O292 1.278 . S
C286 O293 1.241 . S
C287 O273 1.244 . S
C287 O275 1.256 . S
C288 O277 1.239 . S
C288 O281 1.256 . S
C289 O278 1.278 . S
C289 O284 1.241 . S
C290 O280 1.244 . S
C290 O285 1.256 . S
C291 O282 1.239 . S
C291 O283 1.256 . S
O292 Mn274 2.221 . S
O292 Mn276 2.290 . S
O292 C286 1.278 . S
O293 Mn276 2.251 . S
O293 C286 1.241 . S
O294 Mn295 2.163 . S
O294 C308 1.244 . S
Mn295 O294 2.163 . S
Mn295 O298 2.160 . S
Mn295 O299 2.221 . S
Mn295 O301 2.163 . S
Mn295 O303 2.160 . S
Mn295 O313 2.221 . S
O296 Mn297 2.087 . S
O296 C308 1.256 . S
Mn297 O296 2.087 . S
Mn297 O304 2.089 . S
Mn297 O313 2.290 . S
Mn297 O314 2.251 . S
O298 Mn295 2.160 . S
O298 C309 1.239 . S
O299 Mn295 2.221 . S
O299 Mn300 2.290 . S
O299 C310 1.278 . S
Mn300 O299 2.290 . S
Mn300 O302 2.089 . S
Mn300 O305 2.251 . S
Mn300 O306 2.087 . S
O301 Mn295 2.163 . S
O301 C311 1.244 . S
O302 Mn300 2.089 . S
O302 C309 1.256 . S
O303 Mn295 2.160 . S
O303 C312 1.239 . S
O304 Mn297 2.089 . S
O304 C312 1.256 . S
O305 Mn300 2.251 . S
O305 C310 1.241 . S
O306 Mn300 2.087 . S
O306 C311 1.256 . S
C307 O313 1.278 . S
C307 O314 1.241 . S
C308 O294 1.244 . S
C308 O296 1.256 . S
C309 O298 1.239 . S
C309 O302 1.256 . S
C310 O299 1.278 . S
C310 O305 1.241 . S
C311 O301 1.244 . S
C311 O306 1.256 . S
C312 O303 1.239 . S
C312 O304 1.256 . S
O313 Mn295 2.221 . S
O313 Mn297 2.290 . S
O313 C307 1.278 . S
O314 Mn297 2.251 . S
O314 C307 1.241 . S
O315 Mn316 2.163 . S
O315 C329 1.244 . S
Mn316 O315 2.163 . S
Mn316 O319 2.160 1_455 S
Mn316 O320 2.221 . S
Mn316 O322 2.163 1_455 S
Mn316 O324 2.160 . S
Mn316 O334 2.221 1_455 S
O317 Mn318 2.087 . S
O317 C329 1.256 . S
Mn318 O317 2.087 . S
Mn318 O325 2.089 . S
Mn318 O334 2.290 1_455 S
Mn318 O335 2.251 1_455 S
O319 Mn316 2.160 1_655 S
O319 C330 1.239 . S
O320 Mn316 2.221 . S
O320 Mn321 2.290 1_455 S
O320 C331 1.278 . S
Mn321 O320 2.290 1_655 S
Mn321 O323 2.089 . S
Mn321 O326 2.251 1_655 S
Mn321 O327 2.087 . S
O322 Mn316 2.163 1_655 S
O322 C332 1.244 . S
O323 Mn321 2.089 . S
O323 C330 1.256 . S
O324 Mn316 2.160 . S
O324 C333 1.239 . S
O325 Mn318 2.089 . S
O325 C333 1.256 . S
O326 Mn321 2.251 1_455 S
O326 C331 1.241 . S
O327 Mn321 2.087 . S
O327 C332 1.256 . S
C328 O334 1.278 . S
C328 O335 1.241 . S
C329 O315 1.244 . S
C329 O317 1.256 . S
C330 O319 1.239 . S
C330 O323 1.256 . S
C331 O320 1.278 . S
C331 O326 1.241 . S
C332 O322 1.244 . S
C332 O327 1.256 . S
C333 O324 1.239 . S
C333 O325 1.256 . S
O334 Mn316 2.221 1_655 S
O334 Mn318 2.290 1_655 S
O334 C328 1.278 . S
O335 Mn318 2.251 1_655 S
O335 C328 1.241 . S
O336 Mn337 2.163 . S
O336 C350 1.244 . S
Mn337 O336 2.163 . S
Mn337 O340 2.160 1_565 S
Mn337 O341 2.221 . S
Mn337 O343 2.163 1_565 S
Mn337 O345 2.160 . S
Mn337 O355 2.221 1_565 S
O338 Mn339 2.087 . S
O338 C350 1.256 . S
Mn339 O338 2.087 . S
Mn339 O346 2.089 . S
Mn339 O355 2.290 1_565 S
Mn339 O356 2.251 1_565 S
O340 Mn337 2.160 1_545 S
O340 C351 1.239 . S
O341 Mn337 2.221 . S
O341 Mn342 2.290 1_565 S
O341 C352 1.278 . S
Mn342 O341 2.290 1_545 S
Mn342 O344 2.089 . S
Mn342 O347 2.251 1_545 S
Mn342 O348 2.087 . S
O343 Mn337 2.163 1_545 S
O343 C353 1.244 . S
O344 Mn342 2.089 . S
O344 C351 1.256 . S
O345 Mn337 2.160 . S
O345 C354 1.239 . S
O346 Mn339 2.089 . S
O346 C354 1.256 . S
O347 Mn342 2.251 1_565 S
O347 C352 1.241 . S
O348 Mn342 2.087 . S
O348 C353 1.256 . S
C349 O355 1.278 . S
C349 O356 1.241 . S
C350 O336 1.244 . S
C350 O338 1.256 . S
C351 O340 1.239 . S
C351 O344 1.256 . S
C352 O341 1.278 . S
C352 O347 1.241 . S
C353 O343 1.244 . S
C353 O348 1.256 . S
C354 O345 1.239 . S
C354 O346 1.256 . S
O355 Mn337 2.221 1_545 S
O355 Mn339 2.290 1_545 S
O355 C349 1.278 . S
O356 Mn339 2.251 1_545 S
O356 C349 1.241 . S
O357 Mn358 2.163 . S
O357 C371 1.244 . S
Mn358 O357 2.163 . S
Mn358 O361 2.160 1_545 S
Mn358 O362 2.221 . S
Mn358 O364 2.163 1_545 S
Mn358 O366 2.160 . S
Mn358 O376 2.221 1_545 S
O359 Mn360 2.087 . S
O359 C371 1.256 . S
Mn360 O359 2.087 . S
Mn360 O367 2.089 . S
Mn360 O376 2.290 1_545 S
Mn360 O377 2.251 1_545 S
O361 Mn358 2.160 1_565 S
O361 C372 1.239 . S
O362 Mn358 2.221 . S
O362 Mn363 2.290 1_545 S
O362 C373 1.278 . S
Mn363 O362 2.290 1_565 S
Mn363 O365 2.089 . S
Mn363 O368 2.251 1_565 S
Mn363 O369 2.087 . S
O364 Mn358 2.163 1_565 S
O364 C374 1.244 . S
O365 Mn363 2.089 . S
O365 C372 1.256 . S
O366 Mn358 2.160 . S
O366 C375 1.239 . S
O367 Mn360 2.089 . S
O367 C375 1.256 . S
O368 Mn363 2.251 1_545 S
O368 C373 1.241 . S
O369 Mn363 2.087 . S
O369 C374 1.256 . S
C370 O376 1.278 . S
C370 O377 1.241 . S
C371 O357 1.244 . S
C371 O359 1.256 . S
C372 O361 1.239 . S
C372 O365 1.256 . S
C373 O362 1.278 . S
C373 O368 1.241 . S
C374 O364 1.244 . S
C374 O369 1.256 . S
C375 O366 1.239 . S
C375 O367 1.256 . S
O376 Mn358 2.221 1_565 S
O376 Mn360 2.290 1_565 S
O376 C370 1.278 . S
O377 Mn360 2.251 1_565 S
O377 C370 1.241 . S
O378 Mn379 2.163 . S
O378 C392 1.244 . S
Mn379 O378 2.163 . S
Mn379 O382 2.160 . S
Mn379 O383 2.221 . S
Mn379 O385 2.163 . S
Mn379 O387 2.160 . S
Mn379 O397 2.221 . S
O380 Mn381 2.087 . S
O380 C392 1.256 . S
Mn381 O380 2.087 . S
Mn381 O388 2.089 . S
Mn381 O397 2.290 . S
Mn381 O398 2.251 . S
O382 Mn379 2.160 . S
O382 C393 1.239 . S
O383 Mn379 2.221 . S
O383 Mn384 2.290 . S
O383 C394 1.278 . S
Mn384 O383 2.290 . S
Mn384 O386 2.089 . S
Mn384 O389 2.251 . S
Mn384 O390 2.087 . S
O385 Mn379 2.163 . S
O385 C395 1.244 . S
O386 Mn384 2.089 . S
O386 C393 1.256 . S
O387 Mn379 2.160 . S
O387 C396 1.239 . S
O388 Mn381 2.089 . S
O388 C396 1.256 . S
O389 Mn384 2.251 . S
O389 C394 1.241 . S
O390 Mn384 2.087 . S
O390 C395 1.256 . S
C391 O397 1.278 . S
C391 O398 1.241 . S
C392 O378 1.244 . S
C392 O380 1.256 . S
C393 O382 1.239 . S
C393 O386 1.256 . S
C394 O383 1.278 . S
C394 O389 1.241 . S
C395 O385 1.244 . S
C395 O390 1.256 . S
C396 O387 1.239 . S
C396 O388 1.256 . S
O397 Mn379 2.221 . S
O397 Mn381 2.290 . S
O397 C391 1.278 . S
O398 Mn381 2.251 . S
O398 C391 1.241 . S
O399 Mn400 2.163 . S
O399 C413 1.244 . S
Mn400 O399 2.163 . S
Mn400 O403 2.160 . S
Mn400 O404 2.221 . S
Mn400 O406 2.163 . S
Mn400 O408 2.160 . S
Mn400 O418 2.221 . S
O401 Mn402 2.087 . S
O401 C413 1.256 . S
Mn402 O401 2.087 . S
Mn402 O409 2.089 . S
Mn402 O418 2.290 . S
Mn402 O419 2.251 . S
O403 Mn400 2.160 . S
O403 C414 1.239 . S
O404 Mn400 2.221 . S
O404 Mn405 2.290 . S
O404 C415 1.278 . S
Mn405 O404 2.290 . S
Mn405 O407 2.089 . S
Mn405 O410 2.251 . S
Mn405 O411 2.087 . S
O406 Mn400 2.163 . S
O406 C416 1.244 . S
O407 Mn405 2.089 . S
O407 C414 1.256 . S
O408 Mn400 2.160 . S
O408 C417 1.239 . S
O409 Mn402 2.089 . S
O409 C417 1.256 . S
O410 Mn405 2.251 . S
O410 C415 1.241 . S
O411 Mn405 2.087 . S
O411 C416 1.256 . S
C412 O418 1.278 . S
C412 O419 1.241 . S
C413 O399 1.244 . S
C413 O401 1.256 . S
C414 O403 1.239 . S
C414 O407 1.256 . S
C415 O404 1.278 . S
C415 O410 1.241 . S
C416 O406 1.244 . S
C416 O411 1.256 . S
C417 O408 1.239 . S
C417 O409 1.256 . S
O418 Mn400 2.221 . S
O418 Mn402 2.290 . S
O418 C412 1.278 . S
O419 Mn402 2.251 . S
O419 C412 1.241 . S
O420 Mn421 2.163 . S
O420 C434 1.244 . S
Mn421 O420 2.163 . S
Mn421 O424 2.160 1_556 S
Mn421 O425 2.221 . S
Mn421 O427 2.163 1_556 S
Mn421 O429 2.160 . S
Mn421 O439 2.221 1_556 S
O422 Mn423 2.087 . S
O422 C434 1.256 . S
Mn423 O422 2.087 . S
Mn423 O430 2.089 . S
Mn423 O439 2.290 1_556 S
Mn423 O440 2.251 1_556 S
O424 Mn421 2.160 1_554 S
O424 C435 1.239 . S
O425 Mn421 2.221 . S
O425 Mn426 2.290 1_556 S
O425 C436 1.278 . S
Mn426 O425 2.290 1_554 S
Mn426 O428 2.089 . S
Mn426 O431 2.251 1_554 S
Mn426 O432 2.087 . S
O427 Mn421 2.163 1_554 S
O427 C437 1.244 . S
O428 Mn426 2.089 . S
O428 C435 1.256 . S
O429 Mn421 2.160 . S
O429 C438 1.239 . S
O430 Mn423 2.089 . S
O430 C438 1.256 . S
O431 Mn426 2.251 1_556 S
O431 C436 1.241 . S
O432 Mn426 2.087 . S
O432 C437 1.256 . S
C433 O439 1.278 . S
C433 O440 1.241 . S
C434 O420 1.244 . S
C434 O422 1.256 . S
C435 O424 1.239 . S
C435 O428 1.256 . S
C436 O425 1.278 . S
C436 O431 1.241 . S
C437 O427 1.244 . S
C437 O432 1.256 . S
C438 O429 1.239 . S
C438 O430 1.256 . S
O439 Mn421 2.221 1_554 S
O439 Mn423 2.290 1_554 S
O439 C433 1.278 . S
O440 Mn423 2.251 1_554 S
O440 C433 1.241 . S
O441 Mn442 2.163 . S
O441 C455 1.244 . S
Mn442 O441 2.163 . S
Mn442 O445 2.160 1_554 S
Mn442 O446 2.221 . S
Mn442 O448 2.163 1_554 S
Mn442 O450 2.160 . S
Mn442 O460 2.221 1_554 S
O443 Mn444 2.087 . S
O443 C455 1.256 . S
Mn444 O443 2.087 . S
Mn444 O451 2.089 . S
Mn444 O460 2.290 1_554 S
Mn444 O461 2.251 1_554 S
O445 Mn442 2.160 1_556 S
O445 C456 1.239 . S
O446 Mn442 2.221 . S
O446 Mn447 2.290 1_554 S
O446 C457 1.278 . S
Mn447 O446 2.290 1_556 S
Mn447 O449 2.089 . S
Mn447 O452 2.251 1_556 S
Mn447 O453 2.087 . S
O448 Mn442 2.163 1_556 S
O448 C458 1.244 . S
O449 Mn447 2.089 . S
O449 C456 1.256 . S
O450 Mn442 2.160 . S
O450 C459 1.239 . S
O451 Mn444 2.089 . S
O451 C459 1.256 . S
O452 Mn447 2.251 1_554 S
O452 C457 1.241 . S
O453 Mn447 2.087 . S
O453 C458 1.256 . S
C454 O460 1.278 . S
C454 O461 1.241 . S
C455 O441 1.244 . S
C455 O443 1.256 . S
C456 O445 1.239 . S
C456 O449 1.256 . S
C457 O446 1.278 . S
C457 O452 1.241 . S
C458 O448 1.244 . S
C458 O453 1.256 . S
C459 O450 1.239 . S
C459 O451 1.256 . S
O460 Mn442 2.221 1_556 S
O460 Mn444 2.290 1_556 S
O460 C454 1.278 . S
O461 Mn444 2.251 1_556 S
O461 C454 1.241 . S
O462 Mn463 2.163 . S
O462 C476 1.244 . S
Mn463 O462 2.163 . S
Mn463 O466 2.160 . S
Mn463 O467 2.221 . S
Mn463 O469 2.163 . S
Mn463 O471 2.160 . S
Mn463 O481 2.221 . S
O464 Mn465 2.087 . S
O464 C476 1.256 . S
Mn465 O464 2.087 . S
Mn465 O472 2.089 . S
Mn465 O481 2.290 . S
Mn465 O482 2.251 . S
O466 Mn463 2.160 . S
O466 C477 1.239 . S
O467 Mn463 2.221 . S
O467 Mn468 2.290 . S
O467 C478 1.278 . S
Mn468 O467 2.290 . S
Mn468 O470 2.089 . S
Mn468 O473 2.251 . S
Mn468 O474 2.087 . S
O469 Mn463 2.163 . S
O469 C479 1.244 . S
O470 Mn468 2.089 . S
O470 C477 1.256 . S
O471 Mn463 2.160 . S
O471 C480 1.239 . S
O472 Mn465 2.089 . S
O472 C480 1.256 . S
O473 Mn468 2.251 . S
O473 C478 1.241 . S
O474 Mn468 2.087 . S
O474 C479 1.256 . S
C475 O481 1.278 . S
C475 O482 1.241 . S
C476 O462 1.244 . S
C476 O464 1.256 . S
C477 O466 1.239 . S
C477 O470 1.256 . S
C478 O467 1.278 . S
C478 O473 1.241 . S
C479 O469 1.244 . S
C479 O474 1.256 . S
C480 O471 1.239 . S
C480 O472 1.256 . S
O481 Mn463 2.221 . S
O481 Mn465 2.290 . S
O481 C475 1.278 . S
O482 Mn465 2.251 . S
O482 C475 1.241 . S
O483 Mn484 2.163 . S
O483 C497 1.244 . S
Mn484 O483 2.163 . S
Mn484 O487 2.160 . S
Mn484 O488 2.221 . S
Mn484 O490 2.163 . S
Mn484 O492 2.160 . S
Mn484 O502 2.221 . S
O485 Mn486 2.087 . S
O485 C497 1.256 . S
Mn486 O485 2.087 . S
Mn486 O493 2.089 . S
Mn486 O502 2.290 . S
Mn486 O503 2.251 . S
O487 Mn484 2.160 . S
O487 C498 1.239 . S
O488 Mn484 2.221 . S
O488 Mn489 2.290 . S
O488 C499 1.278 . S
Mn489 O488 2.290 . S
Mn489 O491 2.089 . S
Mn489 O494 2.251 . S
Mn489 O495 2.087 . S
O490 Mn484 2.163 . S
O490 C500 1.244 . S
O491 Mn489 2.089 . S
O491 C498 1.256 . S
O492 Mn484 2.160 . S
O492 C501 1.239 . S
O493 Mn486 2.089 . S
O493 C501 1.256 . S
O494 Mn489 2.251 . S
O494 C499 1.241 . S
O495 Mn489 2.087 . S
O495 C500 1.256 . S
C496 O502 1.278 . S
C496 O503 1.241 . S
C497 O483 1.244 . S
C497 O485 1.256 . S
C498 O487 1.239 . S
C498 O491 1.256 . S
C499 O488 1.278 . S
C499 O494 1.241 . S
C500 O490 1.244 . S
C500 O495 1.256 . S
C501 O492 1.239 . S
C501 O493 1.256 . S
O502 Mn484 2.221 . S
O502 Mn486 2.290 . S
O502 C496 1.278 . S
O503 Mn486 2.251 . S
O503 C496 1.241 . S
C16 C393 1.094 . S
C414 C34 1.094 . S
C55 C351 1.094 . S
C79 C372 1.094 . S
C477 C100 1.094 . S
C118 C456 1.094 . S
C498 C142 1.094 . S
C163 C435 1.094 . S
C184 C288 1.094 . S
C205 C330 1.094 . S
C309 C223 1.094 . S
C244 C267 1.094 . S
C268 C141 1.094 . S
C289 C162 1.094 . S
C310 C99 1.094 . S
C123 C331 1.094 . S
C352 C228 1.094 . S
C204 C373 1.094 . S
C249 C394 1.094 . S
C183 C415 1.094 . S
C39 C436 1.094 . S
C78 C457 1.094 . S
C60 C478 1.094 . S
C499 C15 1.094 . S
C98 C18 1.518 . S
C122 C36 1.518 . S
C140 C57 1.518 . S
C161 C81 1.518 . S
C102 C182 1.518 . S
C120 C248 1.518 . S
C144 C203 1.518 . S
C165 C227 1.518 . S
C186 C14 1.518 . S
C207 C59 1.518 . S
C225 C77 1.518 . S
C38 C246 1.518 . S
C350 C270 1.518 . S
C371 C291 1.518 . S
C312 C392 1.518 . S
C333 C413 1.518 . S
C434 C354 1.518 . S
C375 C497 1.518 . S
C455 C396 1.518 . S
C417 C476 1.518 . S
C266 C438 1.518 . S
C459 C308 1.518 . S
C480 C329 1.518 . S
C287 C501 1.518 . S
C13 C206 1.918 . S
C224 C37 1.918 . S
C185 C58 1.918 . S
C245 C76 1.918 . S
C97 C80 1.918 . S
C56 C121 1.918 . S
C139 C35 1.918 . S
C17 C160 1.918 . S
C181 C119 1.918 . S
C202 C164 1.918 . S
C226 C143 1.918 . S
C247 C101 1.918 . S
C265 C458 1.918 . S
C286 C479 1.918 . S
C437 C307 1.918 . S
C500 C328 1.918 . S
C349 C332 1.918 . S
C370 C311 1.918 . S
C290 C391 1.918 . S
C412 C269 1.918 . S
C433 C374 1.918 . S
C416 C454 1.918 . S
C475 C395 1.918 . S
C496 C353 1.918 . S
