# Generated by pormake.
# Topology vbm, (6)-cn, num edge types: 1
# Building blocks:
#     Node 0, Type 0, BuildingBlock: MIFKUJ_clean_sbu_0, # of connection points: 6
#     Node 1, Type 0, BuildingBlock: MIFKUJ_clean_sbu_0, # of connection points: 6
#     Node 2, Type 0, BuildingBlock: MIFKUJ_clean_sbu_0, # of connection points: 6
#     Node 3, Type 0, BuildingBlock: MIFKUJ_clean_sbu_0, # of connection points: 6
#     Node 4, Type 0, BuildingBlock: MIFKUJ_clean_sbu_0, # of connection points: 6
#     Node 5, Type 0, BuildingBlock: MIFKUJ_clean_sbu_0, # of connection points: 6
#     Node 6, Type 0, BuildingBlock: MIFKUJ_clean_sbu_0, # of connection points: 6
#     Node 7, Type 0, BuildingBlock: MIFKUJ_clean_sbu_0, # of connection points: 6
#     Node 8, Type 0, BuildingBlock: MIFKUJ_clean_sbu_0, # of connection points: 6
#     Node 9, Type 0, BuildingBlock: MIFKUJ_clean_sbu_0, # of connection points: 6
#     Node 10, Type 0, BuildingBlock: MIFKUJ_clean_sbu_0, # of connection points: 6
#     Node 11, Type 0, BuildingBlock: MIFKUJ_clean_sbu_0, # of connection points: 6
#     Node 12, Type 0, BuildingBlock: MIFKUJ_clean_sbu_0, # of connection points: 6
#     Node 13, Type 0, BuildingBlock: MIFKUJ_clean_sbu_0, # of connection points: 6
#     Node 14, Type 0, BuildingBlock: MIFKUJ_clean_sbu_0, # of connection points: 6
#     Node 15, Type 0, BuildingBlock: MIFKUJ_clean_sbu_0, # of connection points: 6
#     Edge 16, Type (0, 0), BuildingBlock: UVAHIK_clean_linker_0, # of connection points: 2
#     Edge 17, Type (0, 0), BuildingBlock: UVAHIK_clean_linker_0, # of connection points: 2
#     Edge 18, Type (0, 0), BuildingBlock: UVAHIK_clean_linker_0, # of connection points: 2
#     Edge 19, Type (0, 0), BuildingBlock: UVAHIK_clean_linker_0, # of connection points: 2
#     Edge 20, Type (0, 0), BuildingBlock: UVAHIK_clean_linker_0, # of connection points: 2
#     Edge 21, Type (0, 0), BuildingBlock: UVAHIK_clean_linker_0, # of connection points: 2
#     Edge 22, Type (0, 0), BuildingBlock: UVAHIK_clean_linker_0, # of connection points: 2
#     Edge 23, Type (0, 0), BuildingBlock: UVAHIK_clean_linker_0, # of connection points: 2
#     Edge 24, Type (0, 0), BuildingBlock: UVAHIK_clean_linker_0, # of connection points: 2
#     Edge 25, Type (0, 0), BuildingBlock: UVAHIK_clean_linker_0, # of connection points: 2
#     Edge 26, Type (0, 0), BuildingBlock: UVAHIK_clean_linker_0, # of connection points: 2
#     Edge 27, Type (0, 0), BuildingBlock: UVAHIK_clean_linker_0, # of connection points: 2
#     Edge 28, Type (0, 0), BuildingBlock: UVAHIK_clean_linker_0, # of connection points: 2
#     Edge 29, Type (0, 0), BuildingBlock: UVAHIK_clean_linker_0, # of connection points: 2
#     Edge 30, Type (0, 0), BuildingBlock: UVAHIK_clean_linker_0, # of connection points: 2
#     Edge 31, Type (0, 0), BuildingBlock: UVAHIK_clean_linker_0, # of connection points: 2
#     Edge 32, Type (0, 0), BuildingBlock: UVAHIK_clean_linker_0, # of connection points: 2
#     Edge 33, Type (0, 0), BuildingBlock: UVAHIK_clean_linker_0, # of connection points: 2
#     Edge 34, Type (0, 0), BuildingBlock: UVAHIK_clean_linker_0, # of connection points: 2
#     Edge 35, Type (0, 0), BuildingBlock: UVAHIK_clean_linker_0, # of connection points: 2
#     Edge 36, Type (0, 0), BuildingBlock: UVAHIK_clean_linker_0, # of connection points: 2
#     Edge 37, Type (0, 0), BuildingBlock: UVAHIK_clean_linker_0, # of connection points: 2
#     Edge 38, Type (0, 0), BuildingBlock: UVAHIK_clean_linker_0, # of connection points: 2
#     Edge 39, Type (0, 0), BuildingBlock: UVAHIK_clean_linker_0, # of connection points: 2
#     Edge 40, Type (0, 0), BuildingBlock: UVAHIK_clean_linker_0, # of connection points: 2
#     Edge 41, Type (0, 0), BuildingBlock: UVAHIK_clean_linker_0, # of connection points: 2
#     Edge 42, Type (0, 0), BuildingBlock: UVAHIK_clean_linker_0, # of connection points: 2
#     Edge 43, Type (0, 0), BuildingBlock: UVAHIK_clean_linker_0, # of connection points: 2
#     Edge 44, Type (0, 0), BuildingBlock: UVAHIK_clean_linker_0, # of connection points: 2
#     Edge 45, Type (0, 0), BuildingBlock: UVAHIK_clean_linker_0, # of connection points: 2
#     Edge 46, Type (0, 0), BuildingBlock: UVAHIK_clean_linker_0, # of connection points: 2
#     Edge 47, Type (0, 0), BuildingBlock: UVAHIK_clean_linker_0, # of connection points: 2
#     Edge 48, Type (0, 0), BuildingBlock: UVAHIK_clean_linker_0, # of connection points: 2
#     Edge 49, Type (0, 0), BuildingBlock: UVAHIK_clean_linker_0, # of connection points: 2
#     Edge 50, Type (0, 0), BuildingBlock: UVAHIK_clean_linker_0, # of connection points: 2
#     Edge 51, Type (0, 0), BuildingBlock: UVAHIK_clean_linker_0, # of connection points: 2
#     Edge 52, Type (0, 0), BuildingBlock: UVAHIK_clean_linker_0, # of connection points: 2
#     Edge 53, Type (0, 0), BuildingBlock: UVAHIK_clean_linker_0, # of connection points: 2
#     Edge 54, Type (0, 0), BuildingBlock: UVAHIK_clean_linker_0, # of connection points: 2
#     Edge 55, Type (0, 0), BuildingBlock: UVAHIK_clean_linker_0, # of connection points: 2
#     Edge 56, Type (0, 0), BuildingBlock: UVAHIK_clean_linker_0, # of connection points: 2
#     Edge 57, Type (0, 0), BuildingBlock: UVAHIK_clean_linker_0, # of connection points: 2
#     Edge 58, Type (0, 0), BuildingBlock: UVAHIK_clean_linker_0, # of connection points: 2
#     Edge 59, Type (0, 0), BuildingBlock: UVAHIK_clean_linker_0, # of connection points: 2
#     Edge 60, Type (0, 0), BuildingBlock: UVAHIK_clean_linker_0, # of connection points: 2
#     Edge 61, Type (0, 0), BuildingBlock: UVAHIK_clean_linker_0, # of connection points: 2
#     Edge 62, Type (0, 0), BuildingBlock: UVAHIK_clean_linker_0, # of connection points: 2
#     Edge 63, Type (0, 0), BuildingBlock: UVAHIK_clean_linker_0, # of connection points: 2
# Relax obj value: 0.052
# Max RMSD: 0.105
# Mean RMSD: 0.105
data_MOF--net-vbm--node1-MIFKUJ_clean_sbu_0--edge1-UVAHIK_clean_linker_0
_symmetry_space_group_name_H-M    P1
_symmetry_Int_Tables_number       1
_symmetry_cell_setting            triclinic
loop_
_symmetry_equiv_pos_as_xyz
'x, y, z'
_cell_length_a     83.540951
_cell_length_b     23.240063
_cell_length_c     73.66581
_cell_angle_alpha  89.967069
_cell_angle_beta   90.144233
_cell_angle_gamma 90.404805
loop_
_atom_site_label
_atom_site_type_symbol
_atom_site_fract_x
_atom_site_fract_y
_atom_site_fract_z
_atom_type_partial_charge
Zn0 Zn 0.13442 0.18667 0.12213 0.0
Zn1 Zn 0.1248 0.04086 0.1174 0.0
C2 C 0.16692 0.18979 0.13592 0.0
O3 O 0.15948 0.20073 0.15121 0.0
C4 C 0.09174 0.0424 0.10776 0.0
O5 O 0.09825 0.02964 0.09206 0.0
O6 O 0.13053 0.27181 0.12511 0.0
O7 O 0.12608 0.16728 0.09687 0.0
O8 O 0.13121 0.07438 0.09351 0.0
C9 C 0.13688 0.3055 0.11353 0.0
O10 O 0.14534 0.28337 0.10027 0.0
O11 O 0.15867 0.17972 0.12172 0.0
C12 C 0.12174 0.92219 0.12731 0.0
O13 O 0.11382 0.94513 0.14085 0.0
O14 O 0.1278 0.9551 0.11532 0.0
O15 O 0.13756 0.06531 0.13905 0.0
O16 O 0.12549 0.14695 0.14469 0.0
O17 O 0.10087 0.05179 0.12132 0.0
C18 C 0.12831 0.12358 0.08679 0.0
C19 C 0.13111 0.09936 0.15024 0.0
Zn20 Zn 0.88166 0.81281 0.12026 0.0
Zn21 Zn 0.88773 0.95646 0.11367 0.0
C22 C 0.84856 0.81251 0.13097 0.0
O23 O 0.85509 0.80174 0.14684 0.0
C24 C 0.92052 0.9664 0.10501 0.0
O25 O 0.91359 0.98373 0.08995 0.0
O26 O 0.88495 0.72727 0.12408 0.0
O27 O 0.89201 0.83165 0.09622 0.0
O28 O 0.8816 0.91724 0.09066 0.0
C29 C 0.87958 0.69427 0.11165 0.0
O30 O 0.87267 0.71748 0.0974 0.0
O31 O 0.85761 0.82118 0.11737 0.0
C32 C 0.88887 0.07453 0.12375 0.0
O33 O 0.89572 0.05081 0.13796 0.0
O34 O 0.88399 0.04214 0.11093 0.0
O35 O 0.87493 0.93127 0.13498 0.0
O36 O 0.88912 0.85596 0.14271 0.0
O37 O 0.91171 0.94895 0.118 0.0
C38 C 0.88675 0.86903 0.08513 0.0
C39 C 0.88207 0.90226 0.14704 0.0
Zn40 Zn 0.14657 0.81715 0.36196 0.0
Zn41 Zn 0.11695 0.97152 0.36316 0.0
C42 C 0.17797 0.78895 0.35233 0.0
O43 O 0.16965 0.77036 0.33833 0.0
C44 C 0.08415 0.98142 0.37224 0.0
O45 O 0.09098 0.99386 0.38785 0.0
O46 O 0.13845 0.73516 0.36304 0.0
O47 O 0.13588 0.86686 0.38164 0.0
O48 O 0.12122 0.94302 0.38846 0.0
C49 C 0.14472 0.69966 0.37407 0.0
O50 O 0.15563 0.71826 0.38557 0.0
O51 O 0.17062 0.81333 0.3653 0.0
C52 C 0.11717 0.09065 0.35193 0.0
O53 O 0.10442 0.07387 0.34285 0.0
O54 O 0.12498 0.05372 0.36107 0.0
O55 O 0.12875 0.9156 0.3481 0.0
O56 O 0.14261 0.84695 0.33634 0.0
O57 O 0.09296 0.96901 0.35875 0.0
C58 C 0.12909 0.89878 0.39342 0.0
C59 C 0.13445 0.8922 0.33408 0.0
Zn60 Zn 0.87573 0.19829 0.35822 0.0
Zn61 Zn 0.88066 0.05419 0.36252 0.0
C62 C 0.84319 0.19703 0.34552 0.0
O63 O 0.85041 0.20827 0.33009 0.0
C64 C 0.91304 0.04454 0.37477 0.0
O65 O 0.90569 0.0238 0.38913 0.0
O66 O 0.87933 0.28412 0.35606 0.0
O67 O 0.88562 0.17414 0.38195 0.0
O68 O 0.87182 0.09336 0.38448 0.0
C69 C 0.87645 0.31606 0.36967 0.0
O70 O 0.87167 0.29204 0.38489 0.0
O71 O 0.85163 0.18865 0.35966 0.0
C72 C 0.87918 0.93467 0.35239 0.0
O73 O 0.88324 0.95687 0.33667 0.0
O74 O 0.87685 0.96827 0.36574 0.0
O75 O 0.87207 0.07709 0.33831 0.0
O76 O 0.88412 0.16184 0.33537 0.0
O77 O 0.90471 0.06322 0.36161 0.0
C78 C 0.87898 0.13591 0.39175 0.0
C79 C 0.87903 0.11486 0.32863 0.0
Zn80 Zn 0.88782 0.95652 0.86548 0.0
Zn81 Zn 0.87925 0.81107 0.85813 0.0
C82 C 0.92066 0.96527 0.8745 0.0
O83 O 0.91373 0.98161 0.88962 0.0
C84 C 0.84655 0.81281 0.8455 0.0
O85 O 0.85371 0.80437 0.82987 0.0
O86 O 0.88412 0.04194 0.86835 0.0
O87 O 0.87486 0.93226 0.84409 0.0
O88 O 0.88771 0.85416 0.83623 0.0
C89 C 0.88964 0.07481 0.85601 0.0
O90 O 0.89727 0.05177 0.84227 0.0
O91 O 0.91184 0.94887 0.86133 0.0
C92 C 0.87738 0.69305 0.86683 0.0
O93 O 0.87054 0.71638 0.88105 0.0
O94 O 0.88258 0.72586 0.85428 0.0
O95 O 0.8889 0.82774 0.88277 0.0
O96 O 0.88164 0.91756 0.88852 0.0
O97 O 0.85507 0.81955 0.85969 0.0
C98 C 0.8818 0.90266 0.83207 0.0
C99 C 0.88531 0.86739 0.8939 0.0
Zn100 Zn 0.12502 0.04096 0.86162 0.0
Zn101 Zn 0.13381 0.1859 0.85681 0.0
C102 C 0.0921 0.04186 0.87215 0.0
O103 O 0.09889 0.0283 0.88767 0.0
C104 C 0.16622 0.18921 0.8436 0.0
O105 O 0.15872 0.20069 0.82834 0.0
O106 O 0.12797 0.95508 0.864 0.0
O107 O 0.13697 0.06396 0.83923 0.0
O108 O 0.12518 0.1467 0.83402 0.0
C109 C 0.12184 0.92198 0.85208 0.0
O110 O 0.11388 0.94477 0.83848 0.0
O111 O 0.10099 0.05202 0.85848 0.0
C112 C 0.13627 0.30462 0.86573 0.0
O113 O 0.14444 0.28204 0.8792 0.0
O114 O 0.13009 0.27127 0.8539 0.0
O115 O 0.12493 0.16601 0.88171 0.0
O116 O 0.13236 0.07535 0.88513 0.0
O117 O 0.15801 0.17861 0.85775 0.0
C118 C 0.13075 0.09935 0.82822 0.0
C119 C 0.12838 0.12348 0.89185 0.0
Zn120 Zn 0.88164 0.048 0.61536 0.0
Zn121 Zn 0.87775 0.19056 0.61983 0.0
C122 C 0.91442 0.0525 0.60376 0.0
O123 O 0.90793 0.03758 0.58819 0.0
C124 C 0.84504 0.1883 0.63145 0.0
O125 O 0.85179 0.19982 0.64718 0.0
O126 O 0.87908 0.9612 0.61213 0.0
O127 O 0.87206 0.07087 0.63895 0.0
O128 O 0.88556 0.15219 0.64276 0.0
C129 C 0.87344 0.92832 0.62442 0.0
O130 O 0.86805 0.95112 0.63949 0.0
O131 O 0.90543 0.06123 0.61735 0.0
C132 C 0.88021 0.30933 0.60862 0.0
O133 O 0.87784 0.28598 0.5926 0.0
O134 O 0.88105 0.2768 0.6225 0.0
O135 O 0.88756 0.16648 0.59608 0.0
O136 O 0.87317 0.08702 0.59314 0.0
O137 O 0.85386 0.18039 0.61766 0.0
C138 C 0.87957 0.10597 0.64911 0.0
C139 C 0.88042 0.12976 0.5861 0.0
Zn140 Zn 0.11721 0.97475 0.61544 0.0
Zn141 Zn 0.14522 0.81841 0.61726 0.0
C142 C 0.08534 0.99842 0.607 0.0
O143 O 0.093 0.01812 0.5927 0.0
C144 C 0.17635 0.78752 0.62659 0.0
O145 O 0.16802 0.76844 0.64048 0.0
O146 O 0.12582 0.056 0.61756 0.0
O147 O 0.12854 0.91762 0.63052 0.0
O148 O 0.14155 0.84804 0.64296 0.0
C149 C 0.11834 0.09303 0.62695 0.0
O150 O 0.10568 0.07672 0.63621 0.0
O151 O 0.09336 0.97523 0.61971 0.0
C152 C 0.14284 0.70226 0.60463 0.0
O153 O 0.15332 0.72176 0.59282 0.0
O154 O 0.13689 0.73695 0.61608 0.0
O155 O 0.13486 0.86872 0.59746 0.0
O156 O 0.12089 0.946 0.59011 0.0
O157 O 0.16909 0.81345 0.61383 0.0
C158 C 0.13382 0.89436 0.64482 0.0
C159 C 0.12834 0.90064 0.58544 0.0
Zn160 Zn 0.64655 0.68278 0.12007 0.0
Zn161 Zn 0.61622 0.5283 0.11982 0.0
C162 C 0.67837 0.71339 0.12848 0.0
O163 O 0.67054 0.7322 0.14272 0.0
C164 C 0.58335 0.51535 0.11152 0.0
O165 O 0.59004 0.50014 0.09614 0.0
O166 O 0.63843 0.76465 0.11929 0.0
O167 O 0.63533 0.63308 0.10037 0.0
O168 O 0.6201 0.5566 0.09444 0.0
C169 C 0.6443 0.80073 0.1081 0.0
O170 O 0.65486 0.783 0.09619 0.0
O171 O 0.67056 0.68785 0.11597 0.0
C172 C 0.61637 0.40842 0.13072 0.0
O173 O 0.6038 0.4243 0.1401 0.0
O174 O 0.62405 0.44605 0.12161 0.0
O175 O 0.62867 0.58438 0.13444 0.0
O176 O 0.64306 0.65295 0.1459 0.0
O177 O 0.59231 0.53071 0.12467 0.0
C178 C 0.62808 0.60036 0.089 0.0
C179 C 0.63463 0.60805 0.14837 0.0
Zn180 Zn 0.36939 0.30671 0.12075 0.0
Zn181 Zn 0.37906 0.45551 0.11711 0.0
C182 C 0.33764 0.29204 0.13505 0.0
O183 O 0.34588 0.27511 0.14928 0.0
C184 C 0.41185 0.45981 0.10871 0.0
O185 O 0.40522 0.47818 0.0936 0.0
O186 O 0.37444 0.22266 0.12292 0.0
O187 O 0.37687 0.32981 0.09566 0.0
O188 O 0.37397 0.42432 0.09264 0.0
C189 C 0.36841 0.18926 0.11105 0.0
O190 O 0.35955 0.21131 0.09805 0.0
O191 O 0.34514 0.31036 0.12118 0.0
C192 C 0.3839 0.5744 0.12618 0.0
O193 O 0.39401 0.55204 0.13786 0.0
O194 O 0.37584 0.54114 0.11588 0.0
O195 O 0.36574 0.42559 0.13741 0.0
O196 O 0.37865 0.34576 0.14293 0.0
O197 O 0.4028 0.44434 0.12173 0.0
C198 C 0.37614 0.37478 0.08584 0.0
C199 C 0.37327 0.39366 0.14837 0.0
Zn200 Zn 0.6416 0.31765 0.35969 0.0
Zn201 Zn 0.6221 0.46876 0.36393 0.0
C202 C 0.67302 0.29613 0.34513 0.0
O203 O 0.66452 0.27521 0.33161 0.0
C204 C 0.58902 0.47009 0.36985 0.0
O205 O 0.59497 0.48395 0.3858 0.0
O206 O 0.63574 0.23396 0.35846 0.0
O207 O 0.63552 0.34437 0.38502 0.0
O208 O 0.6255 0.43206 0.38824 0.0
C209 C 0.64119 0.20041 0.37057 0.0
O210 O 0.65005 0.22191 0.38371 0.0
O211 O 0.66582 0.31927 0.35842 0.0
C212 C 0.62055 0.58715 0.35468 0.0
O213 O 0.61344 0.56504 0.34033 0.0
O214 O 0.62553 0.55364 0.36707 0.0
O215 O 0.63741 0.44414 0.34451 0.0
O216 O 0.63203 0.35477 0.33712 0.0
O217 O 0.59864 0.45903 0.35696 0.0
C218 C 0.63018 0.38467 0.39495 0.0
C219 C 0.63282 0.40763 0.33281 0.0
Zn220 Zn 0.38092 0.69498 0.35785 0.0
Zn221 Zn 0.38585 0.5517 0.36294 0.0
C222 C 0.34802 0.69647 0.34643 0.0
O223 O 0.35474 0.70904 0.3308 0.0
C224 C 0.41864 0.54238 0.37152 0.0
O225 O 0.41183 0.52332 0.38644 0.0
O226 O 0.38451 0.78068 0.35455 0.0
O227 O 0.39073 0.67441 0.38222 0.0
O228 O 0.38001 0.58802 0.38644 0.0
C229 C 0.37882 0.81332 0.36678 0.0
O230 O 0.37148 0.7897 0.3807 0.0
O231 O 0.35689 0.68633 0.36009 0.0
C232 C 0.38868 0.43272 0.35364 0.0
O233 O 0.39769 0.45568 0.34092 0.0
O234 O 0.38196 0.4657 0.36507 0.0
O235 O 0.37335 0.57865 0.34168 0.0
O236 O 0.38836 0.65362 0.33508 0.0
O237 O 0.40974 0.56068 0.35875 0.0
C238 C 0.3859 0.63446 0.39274 0.0
C239 C 0.38112 0.60792 0.33013 0.0
Zn240 Zn 0.38747 0.46112 0.86036 0.0
Zn241 Zn 0.36837 0.30582 0.85782 0.0
C242 C 0.42045 0.4662 0.86728 0.0
O243 O 0.4143 0.47884 0.88317 0.0
C244 C 0.33666 0.29331 0.84283 0.0
O245 O 0.34479 0.2748 0.82877 0.0
O246 O 0.38283 0.5451 0.8633 0.0
O247 O 0.37338 0.42856 0.84109 0.0
O248 O 0.37871 0.33834 0.83534 0.0
C249 C 0.37699 0.57562 0.85065 0.0
O250 O 0.37312 0.55141 0.83514 0.0
O251 O 0.41101 0.45545 0.8541 0.0
C252 C 0.37105 0.18949 0.87066 0.0
O253 O 0.36666 0.21231 0.88616 0.0
O254 O 0.37277 0.22158 0.85685 0.0
O255 O 0.37553 0.33406 0.88257 0.0
O256 O 0.38439 0.42442 0.88455 0.0
O257 O 0.34426 0.3118 0.85664 0.0
C258 C 0.37911 0.39077 0.83065 0.0
C259 C 0.38063 0.37667 0.89182 0.0
Zn260 Zn 0.62416 0.53738 0.86383 0.0
Zn261 Zn 0.64428 0.68966 0.85969 0.0
C262 C 0.59143 0.52751 0.86983 0.0
O263 O 0.59791 0.5102 0.88515 0.0
C264 C 0.67585 0.7118 0.84519 0.0
O265 O 0.66745 0.73282 0.83166 0.0
O266 O 0.6278 0.45268 0.86699 0.0
O267 O 0.63926 0.56341 0.84429 0.0
O268 O 0.6345 0.65309 0.83706 0.0
C269 C 0.62204 0.41857 0.85514 0.0
O270 O 0.61415 0.43994 0.84126 0.0
O271 O 0.60064 0.54488 0.85718 0.0
C272 C 0.64386 0.80687 0.8708 0.0
O273 O 0.65277 0.78584 0.8839 0.0
O274 O 0.63848 0.77312 0.85864 0.0
O275 O 0.63797 0.66217 0.88492 0.0
O276 O 0.62751 0.57455 0.88807 0.0
O277 O 0.66853 0.68851 0.85844 0.0
C278 C 0.63469 0.60022 0.83274 0.0
C279 C 0.63237 0.62188 0.89481 0.0
Zn280 Zn 0.38073 0.5524 0.61568 0.0
Zn281 Zn 0.37872 0.69326 0.62133 0.0
C282 C 0.41372 0.5517 0.60649 0.0
O283 O 0.40751 0.53566 0.59087 0.0
C284 C 0.34597 0.69641 0.63241 0.0
O285 O 0.35268 0.70957 0.64803 0.0
O286 O 0.37731 0.46582 0.61335 0.0
O287 O 0.36912 0.57869 0.63763 0.0
O288 O 0.38581 0.64947 0.64385 0.0
C289 C 0.38371 0.4336 0.6253 0.0
O290 O 0.39183 0.45772 0.6386 0.0
O291 O 0.40444 0.56314 0.61961 0.0
C292 C 0.37702 0.81217 0.61257 0.0
O293 O 0.36955 0.78882 0.59865 0.0
O294 O 0.38269 0.77918 0.62478 0.0
O295 O 0.38823 0.67178 0.59707 0.0
O296 O 0.37462 0.59103 0.59245 0.0
O297 O 0.35481 0.68564 0.61885 0.0
C298 C 0.37774 0.60577 0.649 0.0
C299 C 0.38199 0.635 0.58633 0.0
Zn300 Zn 0.61651 0.4785 0.61995 0.0
Zn301 Zn 0.64457 0.32229 0.62059 0.0
C302 C 0.58459 0.50126 0.61164 0.0
O303 O 0.59217 0.52097 0.59729 0.0
C304 C 0.67585 0.28989 0.62934 0.0
O305 O 0.66769 0.27061 0.64334 0.0
O306 O 0.62509 0.55979 0.62199 0.0
O307 O 0.62796 0.42123 0.63474 0.0
O308 O 0.64115 0.35106 0.64652 0.0
C309 C 0.61771 0.59688 0.63145 0.0
O310 O 0.60521 0.58053 0.64098 0.0
O311 O 0.59269 0.47859 0.62438 0.0
C312 C 0.64189 0.20607 0.60783 0.0
O313 O 0.65221 0.22541 0.59583 0.0
O314 O 0.63618 0.24083 0.61943 0.0
O315 O 0.63418 0.37215 0.60053 0.0
O316 O 0.62005 0.4505 0.59456 0.0
O317 O 0.66844 0.31662 0.61685 0.0
C318 C 0.63337 0.39706 0.64881 0.0
C319 C 0.62738 0.40572 0.58914 0.0
C320 C 0.19252 0.19957 0.11823 0.0
C321 C 0.18464 0.1943 0.13501 0.0
C322 C 0.20912 0.20847 0.11754 0.0
C323 C 0.2463 0.19174 0.14414 0.0
H324 H 0.2629 0.31383 0.11346 0.0
C325 C 0.31166 0.26986 0.15059 0.0
C326 C 0.31997 0.28478 0.13469 0.0
C327 C 0.29518 0.25902 0.15014 0.0
C328 C 0.25853 0.27901 0.12191 0.0
H329 H 0.18811 0.19268 0.16419 0.0
H330 H 0.21703 0.20733 0.16296 0.0
H331 H 0.2343 0.29166 0.1132 0.0
H332 H 0.31738 0.30068 0.10582 0.0
H333 H 0.28868 0.2807 0.10494 0.0
H334 H 0.27045 0.17837 0.15273 0.0
C335 C 0.21038 0.20475 0.15034 0.0
C336 C 0.24211 0.26637 0.12177 0.0
C337 C 0.19379 0.19658 0.15104 0.0
C338 C 0.31134 0.28961 0.11835 0.0
C339 C 0.29484 0.2783 0.11787 0.0
C340 C 0.26272 0.20399 0.14417 0.0
C341 C 0.21823 0.21149 0.1336 0.0
C342 C 0.23578 0.22296 0.13302 0.0
C343 C 0.28655 0.26227 0.13373 0.0
C344 C 0.26906 0.24824 0.13322 0.0
H345 H 0.18582 0.19822 0.10563 0.0
H346 H 0.21483 0.21299 0.10443 0.0
H347 H 0.24183 0.15746 0.15276 0.0
H348 H 0.31792 0.26612 0.16343 0.0
H349 H 0.2892 0.24814 0.16272 0.0
C350 C 0.82384 0.80289 0.11161 0.0
C351 C 0.83091 0.81007 0.12882 0.0
C352 C 0.80722 0.79601 0.10989 0.0
C353 C 0.76915 0.82287 0.13344 0.0
H354 H 0.75266 0.69329 0.10582 0.0
C355 C 0.7044 0.74436 0.14222 0.0
C356 C 0.69586 0.724 0.12705 0.0
C357 C 0.72074 0.75676 0.14103 0.0
C358 C 0.75701 0.73026 0.11334 0.0
H359 H 0.82606 0.81732 0.15763 0.0
H360 H 0.79713 0.80635 0.15459 0.0
H361 H 0.78139 0.71393 0.10595 0.0
H362 H 0.69784 0.70037 0.09869 0.0
H363 H 0.72643 0.72308 0.09648 0.0
H364 H 0.74491 0.83971 0.14079 0.0
C365 C 0.80441 0.8058 0.14244 0.0
C366 C 0.77349 0.742 0.11343 0.0
C367 C 0.82099 0.81182 0.14418 0.0
C368 C 0.7041 0.71576 0.11065 0.0
C369 C 0.7205 0.72864 0.10941 0.0
C370 C 0.7527 0.81153 0.13321 0.0
C371 C 0.79734 0.79715 0.12531 0.0
C372 C 0.77976 0.78777 0.12378 0.0
C373 C 0.72901 0.74975 0.12458 0.0
C374 C 0.74642 0.76433 0.12349 0.0
H375 H 0.83116 0.80111 0.09952 0.0
H376 H 0.80209 0.78978 0.09651 0.0
H377 H 0.7736 0.85903 0.14129 0.0
H378 H 0.69848 0.75073 0.15512 0.0
H379 H 0.72691 0.77147 0.15313 0.0
C380 C 0.32055 0.69914 0.33286 0.0
C381 C 0.3304 0.69876 0.34835 0.0
C382 C 0.30398 0.70497 0.33452 0.0
C383 C 0.27336 0.76491 0.36416 0.0
H384 H 0.24424 0.66944 0.33608 0.0
C385 C 0.20423 0.7865 0.36915 0.0
C386 C 0.19548 0.77953 0.35297 0.0
C387 C 0.22066 0.77469 0.36965 0.0
C388 C 0.25219 0.69702 0.34385 0.0
H389 H 0.33057 0.70366 0.37776 0.0
H390 H 0.30157 0.71463 0.38061 0.0
H391 H 0.2729 0.6513 0.33492 0.0
H392 H 0.1972 0.75631 0.32453 0.0
H393 H 0.22572 0.73754 0.32525 0.0
H394 H 0.25274 0.81186 0.37267 0.0
C395 C 0.30672 0.71026 0.36721 0.0
C396 C 0.26861 0.68636 0.34324 0.0
C397 C 0.32329 0.70359 0.36556 0.0
C398 C 0.20354 0.76161 0.33727 0.0
C399 C 0.21992 0.75036 0.33772 0.0
C400 C 0.25692 0.77601 0.36463 0.0
C401 C 0.2969 0.7113 0.35169 0.0
C402 C 0.27939 0.72051 0.35324 0.0
C403 C 0.22869 0.75606 0.35395 0.0
C404 C 0.24612 0.74262 0.35431 0.0
H405 H 0.32565 0.69546 0.31941 0.0
H406 H 0.29673 0.70607 0.32231 0.0
H407 H 0.28141 0.79228 0.37189 0.0
H408 H 0.19833 0.79998 0.3815 0.0
H409 H 0.22697 0.77909 0.38243 0.0
C410 C 0.81776 0.20678 0.36338 0.0
C411 C 0.8255 0.1995 0.34661 0.0
C412 C 0.80116 0.21446 0.36412 0.0
C413 C 0.76376 0.1911 0.33844 0.0
H414 H 0.74778 0.32069 0.36594 0.0
C415 C 0.69874 0.26816 0.33019 0.0
C416 C 0.69062 0.28794 0.34563 0.0
C417 C 0.71515 0.25681 0.3309 0.0
C418 C 0.75196 0.28376 0.35841 0.0
H419 H 0.8218 0.1925 0.31755 0.0
H420 H 0.79285 0.20486 0.31887 0.0
H421 H 0.77628 0.29858 0.36665 0.0
H422 H 0.69343 0.31168 0.37393 0.0
H423 H 0.72195 0.29071 0.3753 0.0
H424 H 0.73953 0.17557 0.33034 0.0
C425 C 0.79962 0.20495 0.33144 0.0
C426 C 0.76832 0.27117 0.35881 0.0
C427 C 0.81621 0.19812 0.33068 0.0
C428 C 0.69934 0.29687 0.36174 0.0
C429 C 0.71574 0.28499 0.36251 0.0
C430 C 0.74739 0.20327 0.33818 0.0
C431 C 0.79193 0.21408 0.34812 0.0
C432 C 0.77442 0.22511 0.34866 0.0
C433 C 0.72386 0.26434 0.34713 0.0
C434 C 0.74127 0.25024 0.34797 0.0
H435 H 0.82458 0.20822 0.3759 0.0
H436 H 0.79554 0.22093 0.37718 0.0
H437 H 0.76808 0.15485 0.33067 0.0
H438 H 0.69241 0.26113 0.31753 0.0
H439 H 0.72101 0.24225 0.31866 0.0
C440 C 0.70221 0.71029 0.86175 0.0
C441 C 0.6935 0.71985 0.84569 0.0
C442 C 0.71868 0.72195 0.86251 0.0
C443 C 0.75066 0.80432 0.83835 0.0
H444 H 0.77923 0.70806 0.86645 0.0
C445 C 0.81949 0.81167 0.83077 0.0
C446 C 0.82884 0.80929 0.84665 0.0
C447 C 0.80288 0.80415 0.83154 0.0
C448 C 0.77137 0.73574 0.85872 0.0
H449 H 0.69538 0.74751 0.81766 0.0
H450 H 0.72407 0.76607 0.81878 0.0
H451 H 0.75063 0.68602 0.86576 0.0
H452 H 0.82799 0.79787 0.87585 0.0
H453 H 0.79893 0.78412 0.87715 0.0
H454 H 0.77152 0.85307 0.83096 0.0
C455 C 0.71817 0.75117 0.831 0.0
C456 C 0.75495 0.72318 0.85832 0.0
C457 C 0.7017 0.74001 0.83029 0.0
C458 C 0.82114 0.80014 0.86337 0.0
C459 C 0.80451 0.79185 0.86411 0.0
C460 C 0.76708 0.8165 0.83861 0.0
C461 C 0.72688 0.74304 0.84717 0.0
C462 C 0.74436 0.75704 0.84802 0.0
C463 C 0.79521 0.79338 0.84817 0.0
C464 C 0.77765 0.78216 0.8487 0.0
H465 H 0.69625 0.69514 0.87391 0.0
H466 H 0.72489 0.71572 0.87527 0.0
H467 H 0.74289 0.8323 0.83062 0.0
H468 H 0.82503 0.81868 0.81767 0.0
H469 H 0.79608 0.80513 0.819 0.0
C470 C 0.31054 0.29273 0.85968 0.0
C471 C 0.31899 0.28675 0.84331 0.0
C472 C 0.29407 0.2814 0.8604 0.0
C473 C 0.26184 0.20435 0.83501 0.0
H474 H 0.23355 0.29314 0.86563 0.0
C475 C 0.19298 0.19564 0.82847 0.0
C476 C 0.18392 0.19376 0.84451 0.0
C477 C 0.20956 0.20401 0.82912 0.0
C478 C 0.24134 0.26754 0.85717 0.0
H479 H 0.31662 0.26634 0.81471 0.0
H480 H 0.28791 0.24835 0.81581 0.0
H481 H 0.2621 0.31633 0.86491 0.0
H482 H 0.18524 0.19863 0.87388 0.0
H483 H 0.21427 0.21385 0.87499 0.0
H484 H 0.24099 0.15651 0.82698 0.0
C485 C 0.29404 0.2601 0.82825 0.0
C486 C 0.25772 0.28078 0.85676 0.0
C487 C 0.31051 0.27094 0.82757 0.0
C488 C 0.19188 0.19963 0.86127 0.0
C489 C 0.20848 0.20878 0.86191 0.0
C490 C 0.24547 0.19151 0.83531 0.0
C491 C 0.28562 0.26422 0.84473 0.0
C492 C 0.26819 0.24964 0.84555 0.0
C493 C 0.21748 0.21139 0.84582 0.0
C494 C 0.23501 0.22318 0.84629 0.0
H495 H 0.31672 0.30455 0.87208 0.0
H496 H 0.28807 0.28453 0.87337 0.0
H497 H 0.26954 0.1784 0.82656 0.0
H498 H 0.18723 0.19127 0.81534 0.0
H499 H 0.21613 0.20628 0.81648 0.0
C500 C 0.70153 0.28613 0.61167 0.0
C501 C 0.6932 0.27829 0.62804 0.0
C502 C 0.71779 0.27238 0.61048 0.0
C503 C 0.74931 0.18833 0.63434 0.0
H504 H 0.77857 0.28562 0.60718 0.0
C505 C 0.81765 0.18831 0.64504 0.0
C506 C 0.82742 0.18975 0.62956 0.0
C507 C 0.80107 0.19388 0.64343 0.0
C508 C 0.7705 0.25766 0.61463 0.0
H509 H 0.69547 0.25129 0.65611 0.0
H510 H 0.72375 0.22914 0.65424 0.0
H511 H 0.75001 0.3071 0.6071 0.0
H512 H 0.82746 0.19724 0.6002 0.0
H513 H 0.79843 0.20783 0.59745 0.0
H514 H 0.76993 0.14021 0.64236 0.0
C515 C 0.71772 0.24418 0.64212 0.0
C516 C 0.75412 0.26986 0.61456 0.0
C517 C 0.70149 0.25738 0.64325 0.0
C518 C 0.82024 0.19582 0.61238 0.0
C519 C 0.80365 0.20223 0.6108 0.0
C520 C 0.76568 0.17656 0.63455 0.0
C521 C 0.72607 0.25089 0.62569 0.0
C522 C 0.74335 0.23585 0.62465 0.0
C523 C 0.79393 0.20173 0.62633 0.0
C524 C 0.77646 0.21152 0.6249 0.0
H525 H 0.69543 0.30187 0.59968 0.0
H526 H 0.72379 0.27764 0.59757 0.0
H527 H 0.74134 0.16029 0.64189 0.0
H528 H 0.82283 0.1836 0.65846 0.0
H529 H 0.79387 0.19379 0.65565 0.0
C530 C 0.2019 0.75792 0.64133 0.0
C531 C 0.19376 0.77696 0.62578 0.0
C532 C 0.21822 0.74598 0.64069 0.0
C533 C 0.2549 0.77266 0.61372 0.0
H534 H 0.27112 0.64678 0.64292 0.0
C535 C 0.32132 0.70201 0.61307 0.0
C536 C 0.32838 0.69809 0.63037 0.0
C537 C 0.30474 0.70773 0.61126 0.0
C538 C 0.26674 0.6821 0.63472 0.0
H539 H 0.19635 0.79844 0.59729 0.0
H540 H 0.22488 0.7763 0.59602 0.0
H541 H 0.24241 0.66436 0.64172 0.0
H542 H 0.32361 0.69533 0.65928 0.0
H543 H 0.29464 0.70427 0.65608 0.0
H544 H 0.27935 0.78979 0.60665 0.0
C545 C 0.21868 0.77162 0.60883 0.0
C546 C 0.25031 0.69243 0.63409 0.0
C547 C 0.20233 0.78415 0.60953 0.0
C548 C 0.31852 0.69838 0.64578 0.0
C549 C 0.30194 0.70322 0.64395 0.0
C550 C 0.27134 0.76185 0.61419 0.0
C551 C 0.22681 0.7521 0.6244 0.0
C552 C 0.2442 0.73856 0.62388 0.0
C553 C 0.29492 0.70865 0.62669 0.0
C554 C 0.27743 0.71709 0.62496 0.0
H555 H 0.19568 0.7524 0.65411 0.0
H556 H 0.22413 0.73245 0.65306 0.0
H557 H 0.25066 0.8089 0.60586 0.0
H558 H 0.32863 0.70209 0.60094 0.0
H559 H 0.2996 0.7115 0.5978 0.0
C560 C 0.13707 0.88497 0.30044 0.0
C561 C 0.13222 0.91658 0.31569 0.0
C562 C 0.1361 0.90867 0.28309 0.0
C563 C 0.11751 0.02316 0.25559 0.0
H564 H 0.15379 0.99396 0.22425 0.0
C565 C 0.12488 0.12138 0.18298 0.0
C566 C 0.13039 0.08299 0.16966 0.0
C567 C 0.12462 0.10511 0.20132 0.0
C568 C 0.1435 1.00221 0.23277 0.0
H569 H 0.12213 0.99722 0.32463 0.0
H570 H 0.12058 0.03931 0.29417 0.0
H571 H 0.15397 0.95802 0.25522 0.0
H572 H 0.13949 0.99685 0.16515 0.0
H573 H 0.13889 0.96871 0.19682 0.0
H574 H 0.10706 0.06726 0.23289 0.0
C575 C 0.12501 0.99589 0.29569 0.0
C576 C 0.1436 0.98151 0.25053 0.0
C577 C 0.12593 0.97193 0.31313 0.0
C578 C 0.13535 0.02785 0.17503 0.0
C579 C 0.13508 0.01171 0.19324 0.0
C580 C 0.11742 0.04403 0.23773 0.0
C581 C 0.13036 0.9648 0.28052 0.0
C582 C 0.13048 0.99069 0.26205 0.0
C583 C 0.12989 0.05025 0.20663 0.0
C584 C 0.13031 0.03273 0.22603 0.0
H585 H 0.1418 0.84193 0.3019 0.0
H586 H 0.13995 0.88299 0.27166 0.0
H587 H 0.10721 0.03084 0.26413 0.0
H588 H 0.12096 0.16413 0.17928 0.0
H589 H 0.12061 0.1358 0.21135 0.0
C590 C 0.87513 0.13458 0.29574 0.0
C591 C 0.88206 0.10168 0.30957 0.0
C592 C 0.87646 0.11696 0.27768 0.0
C593 C 0.89871 0.02056 0.24695 0.0
H594 H 0.85877 0.01669 0.22003 0.0
C595 C 0.89078 0.89538 0.17961 0.0
C596 C 0.88243 0.92424 0.16581 0.0
C597 C 0.89132 0.91811 0.19717 0.0
C598 C 0.87005 0.01803 0.2273 0.0
H599 H 0.89693 0.02841 0.31569 0.0
H600 H 0.89903 0.99666 0.28425 0.0
H601 H 0.85947 0.059 0.25024 0.0
H602 H 0.86808 0.99946 0.1596 0.0
H603 H 0.86918 0.03893 0.18999 0.0
H604 H 0.90924 0.97909 0.22398 0.0
C605 C 0.8925 0.03567 0.28718 0.0
C606 C 0.87047 0.04249 0.24456 0.0
C607 C 0.8911 0.05318 0.30517 0.0
C608 C 0.87457 0.97592 0.16992 0.0
C609 C 0.87513 0.99851 0.18738 0.0
C610 C 0.8983 0.9961 0.22965 0.0
C611 C 0.88486 0.06656 0.2733 0.0
C612 C 0.88479 0.0439 0.25456 0.0
C613 C 0.88348 0.96993 0.20119 0.0
C614 C 0.88396 0.9946 0.21968 0.0
H615 H 0.8682 0.17243 0.29895 0.0
H616 H 0.87066 0.14202 0.26719 0.0
H617 H 0.90994 0.02143 0.25433 0.0
H618 H 0.89693 0.85549 0.17684 0.0
H619 H 0.89773 0.89492 0.20764 0.0
C620 C 0.88592 0.03364 0.67267 0.0
C621 C 0.8821 0.09056 0.66818 0.0
C622 C 0.88761 0.01734 0.69075 0.0
C623 C 0.873 0.05158 0.73534 0.0
H624 H 0.908 0.95675 0.7524 0.0
C625 C 0.87768 0.98166 0.80976 0.0
C626 C 0.88285 0.92541 0.81342 0.0
C627 C 0.87867 0.00421 0.7923 0.0
C628 C 0.89806 0.98263 0.74778 0.0
H629 H 0.87751 0.17574 0.67875 0.0
H630 H 0.88011 0.14679 0.71072 0.0
H631 H 0.90831 0.99388 0.72138 0.0
H632 H 0.89297 0.84841 0.80161 0.0
H633 H 0.8942 0.88723 0.77083 0.0
H634 H 0.86238 0.03878 0.76135 0.0
C635 C 0.88183 0.11499 0.70017 0.0
C636 C 0.89831 0.00418 0.7301 0.0
C637 C 0.88041 0.13154 0.68199 0.0
C638 C 0.88896 0.89198 0.79921 0.0
C639 C 0.88977 0.9144 0.78162 0.0
C640 C 0.87265 0.02954 0.75293 0.0
C641 C 0.88533 0.05761 0.70465 0.0
C642 C 0.88575 0.03858 0.72373 0.0
C643 C 0.88461 0.97079 0.77799 0.0
C644 C 0.88515 0.99464 0.75934 0.0
H645 H 0.88765 1.00172 0.66218 0.0
H646 H 0.89023 0.97282 0.69387 0.0
H647 H 0.86304 0.07721 0.7306 0.0
H648 H 0.87292 0.00867 0.8204 0.0
H649 H 0.87486 0.04811 0.79007 0.0
C650 C 0.12486 0.12404 0.79556 0.0
C651 C 0.1297 0.08388 0.80874 0.0
C652 C 0.12371 0.10805 0.77725 0.0
C653 C 0.11892 0.97953 0.7483 0.0
H654 H 0.13768 0.07295 0.71014 0.0
C655 C 0.13435 0.8864 0.67861 0.0
C656 C 0.13124 0.91938 0.66303 0.0
C657 C 0.13244 0.90995 0.69587 0.0
C658 C 0.13216 0.04684 0.72061 0.0
H659 H 0.13725 0.99561 0.81294 0.0
H660 H 0.13521 0.96807 0.78127 0.0
H661 H 0.13755 0.10869 0.74141 0.0
H662 H 0.12387 0.00291 0.65334 0.0
H663 H 0.1205 0.04455 0.68364 0.0
H664 H 0.11378 0.91726 0.7277 0.0
C665 C 0.13216 0.01169 0.78503 0.0
C666 C 0.13209 0.06729 0.7385 0.0
C667 C 0.13344 0.02769 0.8032 0.0
C668 C 0.12617 0.97648 0.6651 0.0
C669 C 0.12438 1.00035 0.68243 0.0
C670 C 0.11898 0.95917 0.73049 0.0
C671 C 0.1272 0.05147 0.77185 0.0
C672 C 0.1258 0.03319 0.75259 0.0
C673 C 0.12748 0.96722 0.69801 0.0
C674 C 0.12593 0.99196 0.71651 0.0
H675 H 0.12196 0.16772 0.79938 0.0
H676 H 0.11983 0.1396 0.76737 0.0
H677 H 0.11367 0.9528 0.7588 0.0
H678 H 0.13833 0.84227 0.67748 0.0
H679 H 0.13517 0.88354 0.70759 0.0
C680 C 0.63367 0.48298 0.30848 0.0
C681 C 0.63055 0.42575 0.31365 0.0
C682 C 0.63203 0.50019 0.29041 0.0
C683 C 0.63124 0.44322 0.24352 0.0
H684 H 0.61631 0.59684 0.23232 0.0
C685 C 0.62521 0.53029 0.16969 0.0
C686 C 0.63197 0.58514 0.16691 0.0
C687 C 0.62329 0.50849 0.18731 0.0
C688 C 0.62054 0.55385 0.23523 0.0
H689 H 0.62298 0.3419 0.3038 0.0
H690 H 0.61993 0.37218 0.27222 0.0
H691 H 0.61586 0.56283 0.26361 0.0
H692 H 0.64178 0.66047 0.18044 0.0
H693 H 0.63831 0.62281 0.21102 0.0
H694 H 0.63596 0.43463 0.21504 0.0
C695 C 0.62388 0.40356 0.28216 0.0
C696 C 0.62034 0.53437 0.25318 0.0
C697 C 0.62555 0.38626 0.30029 0.0
C698 C 0.63653 0.61804 0.18209 0.0
C699 C 0.63445 0.59661 0.19964 0.0
C700 C 0.63134 0.46263 0.22551 0.0
C701 C 0.62717 0.46074 0.27698 0.0
C702 C 0.626 0.47925 0.25763 0.0
C703 C 0.62788 0.54151 0.20247 0.0
C704 C 0.62629 0.5186 0.22124 0.0
H705 H 0.63763 0.51454 0.31836 0.0
H706 H 0.63496 0.54429 0.28693 0.0
H707 H 0.63584 0.40075 0.24643 0.0
H708 H 0.62162 0.50397 0.15827 0.0
H709 H 0.61812 0.46598 0.18907 0.0
C710 C 0.38704 0.62172 0.297 0.0
C711 C 0.38238 0.58592 0.31142 0.0
C712 C 0.38763 0.60001 0.27929 0.0
C713 C 0.37246 0.47622 0.25188 0.0
H714 H 0.40267 0.53356 0.21621 0.0
C715 C 0.38069 0.3755 0.18079 0.0
C716 C 0.37657 0.41423 0.16693 0.0
C717 C 0.38309 0.39524 0.19851 0.0
C718 C 0.39425 0.51714 0.22614 0.0
H719 H 0.37518 0.49906 0.31874 0.0
H720 H 0.37719 0.46065 0.2884 0.0
H721 H 0.40375 0.5704 0.24731 0.0
H722 H 0.37214 0.50397 0.1606 0.0
H723 H 0.37692 0.53846 0.19144 0.0
H724 H 0.36329 0.42197 0.23073 0.0
C725 C 0.37972 0.50596 0.2904 0.0
C726 C 0.39474 0.53853 0.24387 0.0
C727 C 0.37875 0.52791 0.30791 0.0
C728 C 0.37535 0.47314 0.17099 0.0
C729 C 0.37814 0.49298 0.18857 0.0
C730 C 0.37223 0.45404 0.23432 0.0
C731 C 0.38387 0.54184 0.27577 0.0
C732 C 0.38375 0.51861 0.25695 0.0
C733 C 0.38179 0.45409 0.20248 0.0
C734 C 0.38303 0.47466 0.22132 0.0
H735 H 0.38984 0.66669 0.29933 0.0
H736 H 0.39066 0.6292 0.26835 0.0
H737 H 0.36351 0.46083 0.26135 0.0
H738 H 0.38165 0.32987 0.17804 0.0
H739 H 0.38583 0.36463 0.20915 0.0
C740 C 0.3897 0.45971 0.80768 0.0
C741 C 0.38273 0.40613 0.81172 0.0
C742 C 0.3913 0.47765 0.78968 0.0
C743 C 0.37152 0.45787 0.74619 0.0
H744 H 0.4081 0.53976 0.72631 0.0
C745 C 0.37279 0.52836 0.67176 0.0
C746 C 0.37936 0.58261 0.66759 0.0
C747 C 0.37447 0.50506 0.68906 0.0
C748 C 0.39773 0.51754 0.73175 0.0
H749 H 0.37292 0.32753 0.80028 0.0
H750 H 0.37569 0.35888 0.76874 0.0
H751 H 0.40954 0.49992 0.75702 0.0
H752 H 0.39285 0.65502 0.67834 0.0
H753 H 0.39535 0.61497 0.70892 0.0
H754 H 0.35947 0.47663 0.72134 0.0
C755 C 0.37973 0.3873 0.77949 0.0
C756 C 0.3986 0.4945 0.74927 0.0
C757 C 0.37825 0.36923 0.79749 0.0
C758 C 0.38766 0.61313 0.68115 0.0
C759 C 0.3892 0.58996 0.69861 0.0
C760 C 0.37059 0.48123 0.7288 0.0
C761 C 0.3859 0.44227 0.77545 0.0
C762 C 0.38549 0.46441 0.75662 0.0
C763 C 0.38256 0.53571 0.70276 0.0
C764 C 0.38368 0.51128 0.72134 0.0
H765 H 0.39367 0.4881 0.81845 0.0
H766 H 0.39611 0.52018 0.78696 0.0
H767 H 0.3611 0.43595 0.75166 0.0
H768 H 0.36645 0.50334 0.66159 0.0
H769 H 0.3695 0.46268 0.69165 0.0
C770 C 0.62783 0.62279 0.80018 0.0
C771 C 0.6319 0.58238 0.81362 0.0
C772 C 0.62579 0.60569 0.78208 0.0
C773 C 0.61916 0.47611 0.75324 0.0
H774 H 0.63802 0.56988 0.71523 0.0
C775 C 0.634 0.38639 0.68257 0.0
C776 C 0.63083 0.42057 0.66726 0.0
C777 C 0.63215 0.40855 0.70006 0.0
C778 C 0.63248 0.54363 0.72565 0.0
H779 H 0.63684 0.49212 0.8185 0.0
H780 H 0.63343 0.46261 0.78712 0.0
H781 H 0.63835 0.60434 0.74654 0.0
H782 H 0.62328 0.50476 0.65829 0.0
H783 H 0.62011 0.54397 0.68895 0.0
H784 H 0.61371 0.41471 0.73242 0.0
C785 C 0.63158 0.50739 0.79053 0.0
C786 C 0.63265 0.56339 0.74361 0.0
C787 C 0.63363 0.52443 0.80857 0.0
C788 C 0.62569 0.4774 0.66983 0.0
C789 C 0.62399 0.49989 0.68737 0.0
C790 C 0.61907 0.45629 0.73533 0.0
C791 C 0.62772 0.54778 0.77701 0.0
C792 C 0.62625 0.52938 0.75768 0.0
C793 C 0.62722 0.46564 0.70268 0.0
C794 C 0.62598 0.48932 0.72138 0.0
H795 H 0.62634 0.66775 0.80361 0.0
H796 H 0.62265 0.63784 0.77206 0.0
H797 H 0.61381 0.44935 0.76365 0.0
H798 H 0.638 0.34241 0.68108 0.0
H799 H 0.63495 0.38127 0.71155 0.0
C800 C 0.1248 0.18285 0.92011 0.0
C801 C 0.12739 0.12914 0.91185 0.0
C802 C 0.12385 0.18737 0.93904 0.0
C803 C 0.11548 0.10009 0.97978 0.0
H804 H 0.13913 0.21807 0.00593 0.0
C805 C 0.1285 0.08018 0.05575 0.0
C806 C 0.12729 0.1293 0.06678 0.0
C807 C 0.12748 0.08465 0.03691 0.0
C808 C 0.13226 0.18542 -0.00119 0.0
H809 H 0.13105 0.03818 0.91706 0.0
H810 H 0.12943 0.04619 0.94986 0.0
H811 H 0.13915 0.21804 0.9727 0.0
H812 H 0.12416 0.22193 0.06654 0.0
H813 H 0.1223 0.22963 0.03346 0.0
H814 H 0.10872 0.06695 0.00574 0.0
C815 C 0.12798 0.08472 0.94175 0.0
C816 C 0.13228 0.1854 0.97979 0.0
C817 C 0.12902 0.08023 0.92292 0.0
C818 C 0.12511 0.18321 0.05845 0.0
C819 C 0.12413 0.18769 0.03951 0.0
C820 C 0.11543 0.10017 -0.00129 0.0
C821 C 0.12532 0.13821 0.95004 0.0
C822 C 0.12416 0.14196 0.97011 0.0
C823 C 0.12521 0.13833 0.02856 0.0
C824 C 0.1241 0.14205 0.00846 0.0
H825 H 0.12354 0.2214 0.91198 0.0
H826 H 0.12173 0.22913 0.94506 0.0
H827 H 0.10882 0.06679 0.9727 0.0
H828 H 0.13023 0.03795 0.06164 0.0
H829 H 0.12866 0.04593 0.02887 0.0
C830 C 0.89026 0.80138 0.92026 0.0
C831 C 0.88495 0.85463 0.91351 0.0
C832 C 0.88945 0.78936 0.93883 0.0
C833 C 0.86851 0.83297 0.98022 0.0
H834 H 0.90714 0.78985 0.00604 0.0
C835 C 0.87933 0.89569 0.0535 0.0
C836 C 0.88613 0.8559 0.06556 0.0
C837 C 0.87812 0.88311 0.0351 0.0
C838 C 0.89617 0.80062 -0.00101 0.0
H839 H 0.87464 0.93685 0.92094 0.0
H840 H 0.87325 0.91577 0.95316 0.0
H841 H 0.90688 0.78958 0.97282 0.0
H842 H 0.89707 0.77167 0.06776 0.0
H843 H 0.89509 0.75005 0.0353 0.0
H844 H 0.85798 0.84627 0.00626 0.0
C845 C 0.87789 0.88321 0.9441 0.0
C846 C 0.89602 0.80048 0.98002 0.0
C847 C 0.87883 0.89544 0.92566 0.0
C848 C 0.89181 0.80329 0.05878 0.0
C849 C 0.89068 0.79084 0.04025 0.0
C850 C 0.86864 0.833 -0.0009 0.0
C851 C 0.88313 0.83007 0.95085 0.0
C852 C 0.88239 0.81895 0.97054 0.0
C853 C 0.8837 0.83055 0.0283 0.0
C854 C 0.88267 0.81915 0.00863 0.0
H855 H 0.89502 0.76901 0.91123 0.0
H856 H 0.89359 0.74813 0.94378 0.0
H857 H 0.85776 0.84629 0.97316 0.0
H858 H 0.87486 0.93664 0.05823 0.0
H859 H 0.87299 0.91503 0.02611 0.0
C860 C 0.13999 0.84171 0.41985 0.0
C861 C 0.12968 0.88423 0.41301 0.0
C862 C 0.14032 0.82923 0.4385 0.0
C863 C 0.11582 0.84312 0.47989 0.0
H864 H 0.15594 0.84961 0.50645 0.0
C865 C 0.11889 0.91383 0.5536 0.0
C866 C 0.12891 0.88515 0.56594 0.0
C867 C 0.11922 0.90059 0.53518 0.0
C868 C 0.14467 0.84645 0.4992 0.0
H869 H 0.11153 0.94639 0.42042 0.0
H870 H 0.11208 0.92458 0.45255 0.0
H871 H 0.15615 0.84956 0.47316 0.0
H872 H 0.14718 0.8198 0.56852 0.0
H873 H 0.14791 0.79708 0.53595 0.0
H874 H 0.10428 0.84236 0.50576 0.0
C875 C 0.11985 0.90061 0.44361 0.0
C876 C 0.1448 0.84643 0.48016 0.0
C877 C 0.11965 0.91345 0.42515 0.0
C878 C 0.1393 0.84259 0.55936 0.0
C879 C 0.13976 0.82971 0.54075 0.0
C880 C 0.1157 0.84313 0.49882 0.0
C881 C 0.13015 0.85841 0.45052 0.0
C882 C 0.13033 0.84704 0.47036 0.0
C883 C 0.12964 0.85851 0.5285 0.0
C884 C 0.13008 0.84708 0.50868 0.0
H885 H 0.14787 0.81846 0.41084 0.0
H886 H 0.14838 0.79651 0.44349 0.0
H887 H 0.1045 0.84236 0.47269 0.0
H888 H 0.1107 0.94675 0.55815 0.0
H889 H 0.11148 0.92426 0.52606 0.0
C890 C 0.87346 0.09341 0.55523 0.0
C891 C 0.88103 0.13501 0.56615 0.0
C892 C 0.87426 0.09708 0.5364 0.0
C893 C 0.881 0.1963 0.49861 0.0
H894 H 0.88907 0.05523 0.47214 0.0
C895 C 0.88791 0.18582 0.42023 0.0
C896 C 0.87984 0.13986 0.41171 0.0
C897 C 0.88896 0.18831 0.43915 0.0
C898 C 0.8867 0.09489 0.47934 0.0
H899 H 0.89521 0.21367 0.56587 0.0
H900 H 0.89661 0.21992 0.53277 0.0
H901 H 0.88933 0.05423 0.50517 0.0
H902 H 0.86629 0.06114 0.41635 0.0
H903 H 0.868 0.06586 0.44921 0.0
H904 H 0.87815 0.23669 0.47264 0.0
C905 C 0.89001 0.18466 0.5389 0.0
C906 C 0.88686 0.09432 0.49822 0.0
C907 C 0.88926 0.18091 0.55782 0.0
C908 C 0.87268 0.09695 0.42246 0.0
C909 C 0.87374 0.09944 0.4413 0.0
C910 C 0.88082 0.19686 0.47963 0.0
C911 C 0.88265 0.14241 0.52805 0.0
C912 C 0.88372 0.14472 0.50804 0.0
C913 C 0.88201 0.14479 0.44984 0.0
C914 C 0.88338 0.14586 0.46985 0.0
H915 H 0.86694 0.05768 0.56119 0.0
H916 H 0.86822 0.06447 0.52835 0.0
H917 H 0.87846 0.23568 0.50587 0.0
H918 H 0.89353 0.21961 0.41231 0.0
H919 H 0.89546 0.22362 0.4454 0.0
C920 C 0.61957 0.57823 0.05721 0.0
C921 C 0.62851 0.61287 0.06923 0.0
C922 C 0.6197 0.58895 0.0386 0.0
C923 C 0.6433 0.65575 0.00218 0.0
H924 H 0.60396 0.63326 0.97492 0.0
C925 C 0.63956 0.67571 0.92341 0.0
C926 C 0.63149 0.62988 0.91478 0.0
C927 C 0.63894 0.68192 0.94232 0.0
C928 C 0.61505 0.63959 0.98233 0.0
H929 H 0.64461 0.68629 0.07098 0.0
H930 H 0.64483 0.7051 0.0382 0.0
H931 H 0.60337 0.63043 0.00796 0.0
H932 H 0.61622 0.55529 0.91929 0.0
H933 H 0.61511 0.56631 0.95208 0.0
H934 H 0.65497 0.66397 0.97638 0.0
C935 C 0.63778 0.6694 0.04334 0.0
C936 C 0.61472 0.63793 0.00126 0.0
C937 C 0.63761 0.65874 0.0621 0.0
C938 C 0.62262 0.591 0.92545 0.0
C939 C 0.62187 0.59756 0.94426 0.0
C940 C 0.64361 0.65764 0.98316 0.0
C941 C 0.62875 0.63467 0.0314 0.0
C942 C 0.62891 0.64435 0.01142 0.0
C943 C 0.63006 0.6429 0.95294 0.0
C944 C 0.62954 0.64802 0.97304 0.0
H945 H 0.61243 0.54243 0.06214 0.0
H946 H 0.61287 0.56061 0.0298 0.0
H947 H 0.65444 0.66055 0.00958 0.0
H948 H 0.64651 0.70642 0.9156 0.0
H949 H 0.6453 0.71745 0.94862 0.0
C950 C 0.38313 0.42091 0.92255 0.0
C951 C 0.38194 0.3713 0.91173 0.0
C952 C 0.3841 0.41645 0.94138 0.0
C953 C 0.37492 0.31829 0.97919 0.0
H954 H 0.40123 0.42645 0.00631 0.0
C955 C 0.37976 0.31571 0.05766 0.0
C956 C 0.37806 0.36979 0.06597 0.0
C957 C 0.38164 0.31159 0.03886 0.0
C958 C 0.3938 0.39605 -0.0011 0.0
H959 H 0.38124 0.278 0.91217 0.0
H960 H 0.38319 0.27014 0.94514 0.0
H961 H 0.40223 0.42654 0.97326 0.0
H962 H 0.37709 0.4619 0.06105 0.0
H963 H 0.38026 0.45449 0.02837 0.0
H964 H 0.36641 0.28825 0.00493 0.0
C965 C 0.38305 0.31253 0.93903 0.0
C966 C 0.39434 0.39617 0.97999 0.0
C967 C 0.38195 0.31702 0.92015 0.0
C968 C 0.37836 0.41954 0.05511 0.0
C969 C 0.38031 0.41539 0.03639 0.0
C970 C 0.37445 0.31798 -0.00186 0.0
C971 C 0.38407 0.36225 0.94984 0.0
C972 C 0.38465 0.35815 0.96991 0.0
C973 C 0.38197 0.36144 0.02808 0.0
C974 C 0.38364 0.35769 0.00814 0.0
H975 H 0.38304 0.46342 0.9165 0.0
H976 H 0.38455 0.45564 0.94932 0.0
H977 H 0.36719 0.28883 0.97182 0.0
H978 H 0.37962 0.27656 0.06564 0.0
H979 H 0.38299 0.26948 0.03277 0.0
C980 C 0.63734 0.33064 0.42347 0.0
C981 C 0.62943 0.37663 0.41492 0.0
C982 C 0.63684 0.32434 0.44238 0.0
C983 C 0.61343 0.36673 0.48261 0.0
H984 H 0.65288 0.34483 0.50955 0.0
C985 C 0.61882 0.42802 0.55741 0.0
C986 C 0.6276 0.3931 0.56939 0.0
C987 C 0.61876 0.41724 0.53881 0.0
C988 C 0.64171 0.34989 0.50223 0.0
H989 H 0.61459 0.45145 0.41961 0.0
H990 H 0.61368 0.44027 0.4524 0.0
H991 H 0.65319 0.34165 0.47634 0.0
H992 H 0.64322 0.31913 0.57105 0.0
H993 H 0.64313 0.30024 0.53828 0.0
H994 H 0.60197 0.37596 0.50834 0.0
C995 C 0.62023 0.40896 0.44452 0.0
C996 C 0.6419 0.34815 0.48321 0.0
C997 C 0.62085 0.4156 0.4257 0.0
C998 C 0.63634 0.34688 0.56221 0.0
C999 C 0.63633 0.33618 0.54345 0.0
C1000 C 0.61324 0.36827 0.50155 0.0
C1001 C 0.62824 0.36342 0.4531 0.0
C1002 C 0.62782 0.35812 0.47321 0.0
C1003 C 0.62747 0.37121 0.53156 0.0
C1004 C 0.62744 0.36153 0.51159 0.0
H1005 H 0.64407 0.29987 0.41558 0.0
H1006 H 0.64307 0.28867 0.44861 0.0
H1007 H 0.60233 0.37333 0.47529 0.0
H1008 H 0.61194 0.46406 0.56237 0.0
H1009 H 0.61206 0.44579 0.53005 0.0
C1010 C 0.37909 0.59678 0.55486 0.0
C1011 C 0.38393 0.64149 0.56651 0.0
C1012 C 0.3812 0.60166 0.53619 0.0
C1013 C 0.38565 0.70385 0.49904 0.0
H1014 H 0.40179 0.5701 0.47367 0.0
C1015 C 0.39329 0.69205 0.42047 0.0
C1016 C 0.38735 0.64097 0.41263 0.0
C1017 C 0.39462 0.69712 0.43935 0.0
C1018 C 0.39724 0.60776 0.48056 0.0
H1019 H 0.39453 0.72698 0.56764 0.0
H1020 H 0.39816 0.73547 0.53475 0.0
H1021 H 0.40085 0.5701 0.5067 0.0
H1022 H 0.37794 0.55558 0.41851 0.0
H1023 H 0.38013 0.56469 0.45116 0.0
H1024 H 0.38161 0.74074 0.47273 0.0
C1025 C 0.39276 0.6967 0.54022 0.0
C1026 C 0.39671 0.60775 0.49944 0.0
C1027 C 0.39074 0.69167 0.55901 0.0
C1028 C 0.38267 0.59542 0.42403 0.0
C1029 C 0.38402 0.60045 0.44279 0.0
C1030 C 0.38614 0.70381 0.48005 0.0
C1031 C 0.38816 0.65139 0.52869 0.0
C1032 C 0.39051 0.65509 0.50884 0.0
C1033 C 0.39011 0.65108 0.45066 0.0
C1034 C 0.39152 0.65502 0.47065 0.0
H1035 H 0.37375 0.55762 0.56015 0.0
H1036 H 0.37728 0.56648 0.52758 0.0
H1037 H 0.38079 0.74084 0.50599 0.0
H1038 H 0.39694 0.72801 0.41204 0.0
H1039 H 0.39936 0.73663 0.44509 0.0
C1040 C 0.94574 0.96576 0.12398 0.0
C1041 C 0.93817 0.97184 0.10702 0.0
C1042 C 0.96228 0.97563 0.12579 0.0
C1043 C 0.99602 0.04959 0.10223 0.0
H1044 H 0.02306 0.95405 0.13246 0.0
C1045 C 0.06437 0.043 0.09399 0.0
C1046 C 0.07405 0.04177 0.10961 0.0
C1047 C 0.04773 0.03857 0.09532 0.0
C1048 C 0.01563 0.98161 0.12416 0.0
H1049 H 0.94218 0.99094 0.07855 0.0
H1050 H 0.97079 0.00676 0.0816 0.0
H1051 H 0.99415 0.93635 0.1316 0.0
H1052 H 0.07379 0.03533 0.13897 0.0
H1053 H 0.04456 0.02697 0.1413 0.0
H1054 H 0.01748 0.09388 0.09444 0.0
C1055 C 0.964 0.99596 0.09365 0.0
C1056 C 0.99905 0.97148 0.12366 0.0
C1057 C 0.94755 0.98638 0.09187 0.0
C1058 C 0.06665 0.0367 0.12668 0.0
C1059 C 0.04994 0.03149 0.12801 0.0
C1060 C 0.01254 0.05943 0.10265 0.0
C1061 C 0.97158 0.99171 0.11066 0.0
C1062 C 0.98907 0.00467 0.1124 0.0
C1063 C 0.0403 0.03219 0.11231 0.0
C1064 C 0.02259 0.02496 0.11336 0.0
H1065 H 0.93885 0.95479 0.13594 0.0
H1066 H 0.96768 0.97216 0.13912 0.0
H1067 H 0.9887 0.07711 0.09379 0.0
H1068 H 0.06966 0.04685 0.08063 0.0
H1069 H 0.04069 0.03863 0.08296 0.0
C1070 C 0.93847 0.05053 0.35667 0.0
C1071 C 0.9307 0.04095 0.37333 0.0
C1072 C 0.95501 0.0425 0.35509 0.0
C1073 C 0.98878 0.96873 0.37812 0.0
H1074 H 0.01539 0.07049 0.34912 0.0
C1075 C 0.05704 0.98207 0.38632 0.0
C1076 C 0.06651 0.98323 0.37059 0.0
C1077 C 0.04041 0.98575 0.38513 0.0
C1078 C 0.00807 0.0413 0.35707 0.0
H1079 H 0.9343 0.01745 0.40152 0.0
H1080 H 0.96307 0.00503 0.39892 0.0
H1081 H 0.98647 0.08563 0.35024 0.0
H1082 H 0.06596 0.98924 0.34122 0.0
H1083 H 0.0367 0.99668 0.33916 0.0
H1084 H 0.01043 0.92556 0.38537 0.0
C1085 C 0.95639 0.01713 0.38691 0.0
C1086 C 0.99149 0.04991 0.35772 0.0
C1087 C 0.93988 0.02476 0.38846 0.0
C1088 C 0.05896 0.98797 0.35357 0.0
C1089 C 0.04225 0.99255 0.3524 0.0
C1090 C 1.00531 0.9605 0.37759 0.0
C1091 C 0.96416 0.02499 0.37015 0.0
C1092 C 0.98167 0.01427 0.36851 0.0
C1093 C 0.03283 0.99141 0.36819 0.0
C1094 C 0.01516 0.99719 0.36729 0.0
H1095 H 0.93172 0.06279 0.34472 0.0
H1096 H 0.96054 0.04856 0.34194 0.0
H1097 H 0.98158 0.93942 0.38616 0.0
H1098 H 0.06248 0.97839 0.39963 0.0
H1099 H 0.03348 0.98537 0.39754 0.0
C1100 C 0.06492 0.04034 0.88631 0.0
C1101 C 0.07438 0.041 0.87056 0.0
C1102 C 0.04826 0.03568 0.88514 0.0
C1103 C 0.01581 0.98172 0.85591 0.0
H1104 H 0.9891 0.07295 0.88761 0.0
C1105 C 0.94593 0.96639 0.85571 0.0
C1106 C 0.93833 0.97062 0.87267 0.0
C1107 C 0.96248 0.97622 0.85413 0.0
C1108 C 0.99636 0.04657 0.8788 0.0
H1109 H 0.07369 0.03775 0.84115 0.0
H1110 H 0.04445 0.02909 0.83911 0.0
H1111 H 0.01788 0.08969 0.88713 0.0
H1112 H 0.94232 0.98641 0.90136 0.0
H1113 H 0.97097 1.00207 0.8987 0.0
H1114 H 0.99428 0.93764 0.8479 0.0
C1115 C 0.05001 0.03222 0.85238 0.0
C1116 C 0.01288 0.05641 0.87848 0.0
C1117 C 0.06673 0.03762 0.85354 0.0
C1118 C 0.94772 0.98329 0.88804 0.0
C1119 C 0.96418 0.9928 0.88649 0.0
C1120 C 0.99923 0.97158 0.85631 0.0
C1121 C 0.04059 0.03098 0.86819 0.0
C1122 C 0.02286 0.02355 0.86726 0.0
C1123 C 0.97179 0.99038 0.86949 0.0
C1124 C 0.98931 0.00323 0.86801 0.0
H1125 H 0.07039 0.04284 0.89963 0.0
H1126 H 0.04139 0.03425 0.89759 0.0
H1127 H 0.02318 0.95536 0.84721 0.0
H1128 H 0.93904 0.95693 0.84359 0.0
H1129 H 0.96789 0.97423 0.84081 0.0
C1130 C 0.94184 0.05731 0.59032 0.0
C1131 C 0.93202 0.05484 0.60576 0.0
C1132 C 0.95848 0.05615 0.59209 0.0
C1133 C 0.99022 0.00355 0.62146 0.0
H1134 H 0.01719 0.1082 0.59399 0.0
C1135 C 0.05967 0.99597 0.62475 0.0
C1136 C 0.0678 0.00529 0.60831 0.0
C1137 C 0.04314 0.00495 0.62588 0.0
C1138 C 0.00985 0.07819 0.6016 0.0
H1139 H 0.93194 0.04974 0.63517 0.0
H1140 H 0.9611 0.04671 0.6382 0.0
H1141 H 0.98823 0.11954 0.59322 0.0
H1142 H 0.06491 0.0299 0.58009 0.0
H1143 H 0.03622 0.04385 0.5819 0.0
H1144 H 0.01177 0.96081 0.62934 0.0
C1145 C 0.95586 0.04982 0.62477 0.0
C1146 C 0.99327 0.08495 0.60122 0.0
C1147 C 0.9392 0.0519 0.62302 0.0
C1148 C 0.05905 0.02283 0.59301 0.0
C1149 C 0.04257 0.03131 0.59409 0.0
C1150 C 0.00684 0.99634 0.62169 0.0
C1151 C 0.96565 0.05169 0.6093 0.0
C1152 C 0.98328 0.04724 0.61093 0.0
C1153 C 0.03441 0.02308 0.61056 0.0
C1154 C 0.01684 0.03303 0.61152 0.0
H1155 H 0.93666 0.05969 0.57685 0.0
H1156 H 0.96575 0.0572 0.57993 0.0
H1157 H 0.98277 0.9736 0.62897 0.0
H1158 H 0.06611 0.98269 0.63681 0.0
H1159 H 0.03727 0.99863 0.63882 0.0
C1160 C 0.43688 0.45739 0.12785 0.0
C1161 C 0.42949 0.46196 0.11074 0.0
C1162 C 0.45349 0.46461 0.12964 0.0
C1163 C 0.48811 0.52895 0.10516 0.0
H1164 H 0.51387 0.43487 0.13725 0.0
C1165 C 0.55614 0.51032 0.09757 0.0
C1166 C 0.5657 0.51363 0.11326 0.0
C1167 C 0.5395 0.50721 0.09887 0.0
C1168 C 0.50678 0.46194 0.12841 0.0
H1169 H 0.43384 0.47514 0.08202 0.0
H1170 H 0.46262 0.4862 0.08503 0.0
H1171 H 0.48478 0.42126 0.13641 0.0
H1172 H 0.56527 0.51598 0.14267 0.0
H1173 H 0.53598 0.50963 0.14495 0.0
H1174 H 0.5101 0.56844 0.09678 0.0
C1175 C 0.45564 0.47881 0.09719 0.0
C1176 C 0.49012 0.4542 0.12793 0.0
C1177 C 0.4391 0.47198 0.09543 0.0
C1178 C 0.55821 0.51373 0.13034 0.0
C1179 C 0.54149 0.50977 0.13165 0.0
C1180 C 0.5047 0.53631 0.10555 0.0
C1181 C 0.46304 0.47634 0.11433 0.0
C1182 C 0.48061 0.48689 0.11601 0.0
C1183 C 0.53197 0.50667 0.11589 0.0
C1184 C 0.51425 0.50225 0.11693 0.0
H1185 H 0.42978 0.44988 0.13992 0.0
H1186 H 0.45878 0.46263 0.14306 0.0
H1187 H 0.48116 0.55605 0.0962 0.0
H1188 H 0.56151 0.51018 0.0842 0.0
H1189 H 0.53251 0.50422 0.08649 0.0
C1190 C 0.44574 0.52105 0.38409 0.0
C1191 C 0.43621 0.53736 0.36925 0.0
C1192 C 0.4621 0.5115 0.38196 0.0
C1193 C 0.49686 0.53943 0.35208 0.0
H1194 H 0.51478 0.4123 0.37936 0.0
C1195 C 0.5645 0.47592 0.34987 0.0
C1196 C 0.57143 0.47009 0.36719 0.0
C1197 C 0.54782 0.48045 0.34794 0.0
C1198 C 0.50996 0.44796 0.37165 0.0
H1199 H 0.43652 0.55782 0.34052 0.0
H1200 H 0.46523 0.54064 0.33674 0.0
H1201 H 0.48605 0.42887 0.38005 0.0
H1202 H 0.5663 0.46289 0.39596 0.0
H1203 H 0.53744 0.46977 0.39257 0.0
H1204 H 0.52097 0.55846 0.34384 0.0
C1205 C 0.45999 0.53564 0.35009 0.0
C1206 C 0.4935 0.45769 0.37211 0.0
C1207 C 0.44355 0.54541 0.35225 0.0
C1208 C 0.56136 0.46738 0.38242 0.0
C1209 C 0.54479 0.47103 0.38048 0.0
C1210 C 0.5134 0.52944 0.35154 0.0
C1211 C 0.46942 0.51762 0.36488 0.0
C1212 C 0.48676 0.50446 0.36275 0.0
C1213 C 0.53781 0.47811 0.36326 0.0
C1214 C 0.52015 0.48445 0.36171 0.0
H1215 H 0.44054 0.51496 0.39742 0.0
H1216 H 0.46903 0.49916 0.39376 0.0
H1217 H 0.49209 0.57591 0.34474 0.0
H1218 H 0.57196 0.47849 0.33789 0.0
H1219 H 0.54275 0.48571 0.3345 0.0
C1220 C 0.44518 0.46931 0.84778 0.0
C1221 C 0.43805 0.46604 0.86503 0.0
C1222 C 0.46189 0.47249 0.8461 0.0
C1223 C 0.49921 0.44025 0.87077 0.0
H1224 H 0.51846 0.56221 0.84204 0.0
C1225 C 0.56416 0.50949 0.88237 0.0
C1226 C 0.57385 0.52284 0.86736 0.0
C1227 C 0.54773 0.5008 0.88027 0.0
C1228 C 0.5133 0.52735 0.84989 0.0
H1229 H 0.44285 0.46208 0.89397 0.0
H1230 H 0.47179 0.46683 0.89101 0.0
H1231 H 0.48941 0.54748 0.84128 0.0
H1232 H 0.57377 0.53877 0.83837 0.0
H1233 H 0.54489 0.52304 0.83464 0.0
H1234 H 0.52291 0.42009 0.87952 0.0
C1235 C 0.46455 0.46707 0.87879 0.0
C1236 C 0.49666 0.51893 0.84945 0.0
C1237 C 0.44794 0.4647 0.88048 0.0
C1238 C 0.56662 0.52867 0.8502 0.0
C1239 C 0.55008 0.51973 0.84808 0.0
C1240 C 0.51577 0.44839 0.87113 0.0
C1241 C 0.47173 0.47142 0.86162 0.0
C1242 C 0.48943 0.47615 0.86023 0.0
C1243 C 0.54049 0.50482 0.86308 0.0
C1244 C 0.52301 0.49298 0.86108 0.0
H1245 H 0.43785 0.4706 0.83564 0.0
H1246 H 0.46711 0.47557 0.83269 0.0
H1247 H 0.49401 0.40625 0.87897 0.0
H1248 H 0.56927 0.50524 0.89583 0.0
H1249 H 0.54068 0.49092 0.89221 0.0
C1250 C 0.43815 0.5512 0.62634 0.0
C1251 C 0.43127 0.55336 0.60891 0.0
C1252 C 0.45479 0.54916 0.62844 0.0
C1253 C 0.4924 0.58452 0.60543 0.0
H1254 H 0.51099 0.46147 0.63395 0.0
C1255 C 0.55822 0.52385 0.59754 0.0
C1256 C 0.56702 0.5073 0.61292 0.0
C1257 C 0.54173 0.53168 0.59858 0.0
C1258 C 0.50602 0.4967 0.6262 0.0
H1259 H 0.43638 0.55657 0.58008 0.0
H1260 H 0.46538 0.55418 0.58377 0.0
H1261 H 0.48194 0.47346 0.63332 0.0
H1262 H 0.56539 0.48558 0.64148 0.0
H1263 H 0.53648 0.50038 0.64342 0.0
H1264 H 0.51631 0.60824 0.59832 0.0
C1265 C 0.45793 0.55374 0.59578 0.0
C1266 C 0.48939 0.50346 0.62582 0.0
C1267 C 0.44133 0.55482 0.59367 0.0
C1268 C 0.55892 0.49816 0.62938 0.0
C1269 C 0.54235 0.50648 0.63046 0.0
C1270 C 0.50898 0.57822 0.60596 0.0
C1271 C 0.46482 0.55035 0.61316 0.0
C1272 C 0.48243 0.54668 0.61512 0.0
C1273 C 0.53358 0.52378 0.61508 0.0
C1274 C 0.516 0.5334 0.61599 0.0
H1275 H 0.43067 0.54977 0.63833 0.0
H1276 H 0.45983 0.5468 0.64198 0.0
H1277 H 0.48733 0.61876 0.5973 0.0
H1278 H 0.56407 0.53069 0.5846 0.0
H1279 H 0.53534 0.54352 0.58634 0.0
C1280 C 0.13175 0.83394 0.11144 0.0
C1281 C 0.12339 0.85889 0.12595 0.0
C1282 C 0.13318 0.77415 0.11014 0.0
C1283 C 0.11464 0.63812 0.12592 0.0
H1284 H 0.15506 0.57155 0.11143 0.0
C1285 C 0.12651 0.39326 0.12943 0.0
C1286 C 0.13504 0.36872 0.11498 0.0
C1287 C 0.12501 0.45304 0.13081 0.0
C1288 C 0.14363 0.58944 0.1153 0.0
H1289 H 0.11002 0.84045 0.15051 0.0
H1290 H 0.11262 0.73633 0.14831 0.0
H1291 H 0.15263 0.67575 0.11368 0.0
H1292 H 0.14859 0.38785 0.09059 0.0
H1293 H 0.14582 0.49178 0.0929 0.0
H1294 H 0.10563 0.55179 0.12752 0.0
C1295 C 0.11791 0.76293 0.13782 0.0
C1296 C 0.14224 0.64921 0.11659 0.0
C1297 C 0.11651 0.82269 0.13913 0.0
C1298 C 0.14198 0.40528 0.10193 0.0
C1299 C 0.14048 0.46496 0.10332 0.0
C1300 C 0.11602 0.57833 0.12462 0.0
C1301 C 0.12625 0.73792 0.1233 0.0
C1302 C 0.12773 0.67429 0.12191 0.0
C1303 C 0.13201 0.48962 0.11779 0.0
C1304 C 0.13054 0.55324 0.11928 0.0
H1305 H 0.13716 0.86056 0.10102 0.0
H1306 H 0.13952 0.75628 0.09867 0.0
H1307 H 0.10321 0.65605 0.1298 0.0
H1308 H 0.12107 0.36635 0.13975 0.0
H1309 H 0.11856 0.47063 0.14225 0.0
C1310 C 0.89267 0.17285 0.1371 0.0
C1311 C 0.88735 0.13804 0.12266 0.0
C1312 C 0.89166 0.23279 0.13605 0.0
C1313 C 0.87103 0.35066 0.11182 0.0
H1314 H 0.90652 0.44321 0.1297 0.0
C1315 C 0.87509 0.59545 0.09898 0.0
C1316 C 0.88072 0.63073 0.11316 0.0
C1317 C 0.87586 0.53554 0.10031 0.0
C1318 C 0.89641 0.41809 0.12485 0.0
H1319 H 0.87667 0.13914 0.0958 0.0
H1320 H 0.875 0.24388 0.09391 0.0
H1321 H 0.90781 0.33863 0.13155 0.0
H1322 H 0.8916 0.63046 0.13991 0.0
H1323 H 0.89282 0.52571 0.14233 0.0
H1324 H 0.85963 0.43011 0.10511 0.0
C1325 C 0.87982 0.22471 0.10615 0.0
C1326 C 0.89715 0.35804 0.1259 0.0
C1327 C 0.88084 0.16465 0.10719 0.0
C1328 C 0.88721 0.60457 0.12871 0.0
C1329 C 0.88797 0.5445 0.13005 0.0
C1330 C 0.87028 0.41071 0.11078 0.0
C1331 C 0.88529 0.25956 0.12054 0.0
C1332 C 0.88448 0.32353 0.11939 0.0
C1333 C 0.88226 0.50921 0.11588 0.0
C1334 C 0.88298 0.44523 0.11725 0.0
H1335 H 0.89768 0.15387 0.14927 0.0
H1336 H 0.89575 0.25816 0.14751 0.0
H1337 H 0.86095 0.3255 0.10693 0.0
H1338 H 0.87008 0.61406 0.08676 0.0
H1339 H 0.8716 0.50984 0.08901 0.0
C1340 C 0.13296 0.17279 0.36527 0.0
C1341 C 0.12139 0.15263 0.35289 0.0
C1342 C 0.13581 0.23186 0.3673 0.0
C1343 C 0.11629 0.37229 0.35958 0.0
H1344 H 0.15886 0.4342 0.36801 0.0
C1345 C 0.13012 0.61657 0.35968 0.0
C1346 C 0.14102 0.63733 0.37273 0.0
C1347 C 0.12757 0.55741 0.35753 0.0
C1348 C 0.14687 0.4175 0.36587 0.0
H1349 H 0.10423 0.17864 0.33236 0.0
H1350 H 0.10942 0.28133 0.33563 0.0
H1351 H 0.15528 0.33114 0.36305 0.0
H1352 H 0.1575 0.61209 0.39407 0.0
H1353 H 0.15293 0.50902 0.39042 0.0
H1354 H 0.1079 0.45867 0.36233 0.0
C1355 C 0.11603 0.25167 0.34411 0.0
C1356 C 0.14482 0.3584 0.36301 0.0
C1357 C 0.11313 0.19271 0.34214 0.0
C1358 C 0.14905 0.59761 0.38385 0.0
C1359 C 0.14653 0.53847 0.38167 0.0
C1360 C 0.11835 0.43135 0.36239 0.0
C1361 C 0.1272 0.27208 0.35693 0.0
C1362 C 0.12949 0.33504 0.35981 0.0
C1363 C 0.13588 0.51764 0.36836 0.0
C1364 C 0.13366 0.45469 0.36557 0.0
H1365 H 0.1395 0.14308 0.3738 0.0
H1366 H 0.14441 0.24602 0.3774 0.0
H1367 H 0.10427 0.3557 0.35751 0.0
H1368 H 0.12377 0.64595 0.35085 0.0
H1369 H 0.11939 0.5428 0.34705 0.0
C1370 C 0.87535 0.41436 0.38359 0.0
C1371 C 0.8777 0.37958 0.36823 0.0
C1372 C 0.8758 0.47436 0.38216 0.0
C1373 C 0.87064 0.59123 0.34885 0.0
H1374 H 0.89135 0.68562 0.38554 0.0
C1375 C 0.88036 0.83527 0.33945 0.0
C1376 C 0.8782 0.8713 0.35455 0.0
C1377 C 0.88011 0.77549 0.34138 0.0
C1378 C 0.88533 0.65991 0.3753 0.0
H1379 H 0.88265 0.38068 0.33934 0.0
H1380 H 0.88348 0.48539 0.33685 0.0
H1381 H 0.89182 0.58095 0.38833 0.0
H1382 H 0.87394 0.87256 0.38358 0.0
H1383 H 0.87334 0.7679 0.38695 0.0
H1384 H 0.8641 0.66999 0.33584 0.0
C1385 C 0.88113 0.46621 0.34999 0.0
C1386 C 0.88563 0.59991 0.37688 0.0
C1387 C 0.88075 0.40618 0.35144 0.0
C1388 C 0.87563 0.84604 0.37166 0.0
C1389 C 0.87541 0.78607 0.37361 0.0
C1390 C 0.87031 0.65115 0.34729 0.0
C1391 C 0.87853 0.50102 0.3653 0.0
C1392 C 0.87833 0.56485 0.36364 0.0
C1393 C 0.87769 0.75007 0.35849 0.0
C1394 C 0.8777 0.68628 0.36046 0.0
H1395 H 0.87298 0.3953 0.39674 0.0
H1396 H 0.87361 0.49986 0.39419 0.0
H1397 H 0.86464 0.56554 0.33859 0.0
H1398 H 0.88242 0.8532 0.32607 0.0
H1399 H 0.88212 0.74917 0.32949 0.0
C1400 C 0.89266 0.17319 0.84253 0.0
C1401 C 0.88777 0.1381 0.85708 0.0
C1402 C 0.89123 0.23298 0.84351 0.0
C1403 C 0.8879 0.3521 0.87631 0.0
H1404 H 0.87368 0.43892 0.83436 0.0
C1405 C 0.87381 0.59462 0.88008 0.0
C1406 C 0.87878 0.62962 0.86555 0.0
C1407 C 0.87491 0.53476 0.87899 0.0
C1408 C 0.87785 0.41538 0.84613 0.0
H1409 H 0.87744 0.13839 0.88405 0.0
H1410 H 0.8749 0.24292 0.88576 0.0
H1411 H 0.87521 0.33426 0.83264 0.0
H1412 H 0.88884 0.62904 0.83844 0.0
H1413 H 0.89085 0.52435 0.83657 0.0
H1414 H 0.89058 0.43317 0.88979 0.0
C1415 C 0.87997 0.22411 0.87363 0.0
C1416 C 0.87871 0.35538 0.84515 0.0
C1417 C 0.88133 0.16419 0.87261 0.0
C1418 C 0.88491 0.60332 0.84988 0.0
C1419 C 0.88596 0.54331 0.84876 0.0
C1420 C 0.88705 0.41209 0.87728 0.0
C1421 C 0.88493 0.25922 0.8591 0.0
C1422 C 0.88376 0.323 0.86023 0.0
C1423 C 0.88098 0.50832 0.86332 0.0
C1424 C 0.88202 0.44449 0.8622 0.0
H1425 H 0.89766 0.15454 0.83034 0.0
H1426 H 0.89534 0.25873 0.83216 0.0
H1427 H 0.89209 0.32857 0.88808 0.0
H1428 H 0.86901 0.61338 0.89235 0.0
H1429 H 0.87077 0.50914 0.89036 0.0
C1430 C 0.14118 0.40405 0.87774 0.0
C1431 C 0.13454 0.36793 0.86435 0.0
C1432 C 0.13977 0.4638 0.87645 0.0
C1433 C 0.11593 0.57802 0.85446 0.0
H1434 H 0.15225 0.675 0.86706 0.0
C1435 C 0.11681 0.82245 0.84017 0.0
C1436 C 0.12345 0.85864 0.85354 0.0
C1437 C 0.11817 0.76268 0.84155 0.0
C1438 C 0.14193 0.64859 0.86369 0.0
H1439 H 0.12121 0.36645 0.83905 0.0
H1440 H 0.11887 0.47083 0.8367 0.0
H1441 H 0.15457 0.57072 0.86924 0.0
H1442 H 0.13671 0.86026 0.87889 0.0
H1443 H 0.13897 0.75593 0.88138 0.0
H1444 H 0.1033 0.6559 0.8489 0.0
C1445 C 0.125 0.45285 0.84834 0.0
C1446 C 0.14326 0.58876 0.86494 0.0
C1447 C 0.12641 0.393 0.84964 0.0
C1448 C 0.13151 0.83365 0.86832 0.0
C1449 C 0.13287 0.77382 0.8697 0.0
C1450 C 0.1146 0.63785 0.85321 0.0
C1451 C 0.13169 0.489 0.86172 0.0
C1452 C 0.13028 0.55271 0.86034 0.0
C1453 C 0.1262 0.73759 0.85634 0.0
C1454 C 0.12759 0.67389 0.85779 0.0
H1455 H 0.14748 0.38622 0.88929 0.0
H1456 H 0.14486 0.49025 0.88713 0.0
H1457 H 0.10561 0.55161 0.85109 0.0
H1458 H 0.11057 0.84022 0.82857 0.0
H1459 H 0.11309 0.73614 0.83089 0.0
C1460 C 0.87056 0.82898 0.6373 0.0
C1461 C 0.87388 0.8648 0.62237 0.0
C1462 C 0.87157 0.76917 0.63575 0.0
C1463 C 0.8888 0.65382 0.60682 0.0
H1464 H 0.85896 0.5569 0.63334 0.0
C1465 C 0.8823 0.40801 0.59503 0.0
C1466 C 0.88089 0.37286 0.6105 0.0
C1467 C 0.88211 0.46799 0.59658 0.0
C1468 C 0.86749 0.58338 0.626 0.0
H1469 H 0.88068 0.86559 0.59399 0.0
H1470 H 0.88199 0.76112 0.59111 0.0
H1471 H 0.85678 0.66116 0.63535 0.0
H1472 H 0.87835 0.37333 0.63979 0.0
H1473 H 0.87786 0.47817 0.64248 0.0
H1474 H 0.89924 0.57556 0.59718 0.0
C1475 C 0.87895 0.77928 0.60417 0.0
C1476 C 0.86627 0.64327 0.62716 0.0
C1477 C 0.87808 0.83926 0.60577 0.0
C1478 C 0.87948 0.39913 0.6276 0.0
C1479 C 0.8791 0.45917 0.62914 0.0
C1480 C 0.88991 0.59387 0.60552 0.0
C1481 C 0.87578 0.74337 0.61917 0.0
C1482 C 0.87694 0.67941 0.61764 0.0
C1483 C 0.88031 0.49426 0.61363 0.0
C1484 C 0.87929 0.55798 0.61514 0.0
H1485 H 0.86743 0.84714 0.65035 0.0
H1486 H 0.86933 0.74324 0.6477 0.0
H1487 H 0.89741 0.68003 0.59954 0.0
H1488 H 0.88343 0.3892 0.58164 0.0
H1489 H 0.88295 0.49381 0.58437 0.0
C1490 C 0.11504 0.19475 0.63726 0.0
C1491 C 0.12277 0.15473 0.62605 0.0
C1492 C 0.11802 0.25364 0.63531 0.0
C1493 C 0.13124 0.35941 0.60144 0.0
H1494 H 0.13494 0.46157 0.64286 0.0
C1495 C 0.14722 0.60089 0.59435 0.0
C1496 C 0.13949 0.63975 0.60596 0.0
C1497 C 0.1452 0.54157 0.59661 0.0
C1498 C 0.13372 0.43372 0.63114 0.0
H1499 H 0.14009 0.14503 0.6044 0.0
H1500 H 0.14533 0.24801 0.60104 0.0
H1501 H 0.13228 0.35812 0.64771 0.0
H1502 H 0.12319 0.64672 0.62873 0.0
H1503 H 0.11948 0.54326 0.63248 0.0
H1504 H 0.13252 0.43494 0.58486 0.0
C1505 C 0.13684 0.23375 0.61121 0.0
C1506 C 0.13226 0.37443 0.63394 0.0
C1507 C 0.13392 0.17476 0.61323 0.0
C1508 C 0.12936 0.61798 0.61958 0.0
C1509 C 0.12734 0.55864 0.62183 0.0
C1510 C 0.13266 0.41871 0.59864 0.0
C1511 C 0.12874 0.27386 0.62206 0.0
C1512 C 0.13096 0.33664 0.61912 0.0
C1513 C 0.1354 0.51972 0.61052 0.0
C1514 C 0.13386 0.45661 0.61346 0.0
H1515 H 0.1064 0.18074 0.6473 0.0
H1516 H 0.11151 0.28344 0.64379 0.0
H1517 H 0.13 0.33149 0.58974 0.0
H1518 H 0.15514 0.61618 0.58375 0.0
H1519 H 0.1517 0.51283 0.58776 0.0
C1520 C 0.6301 0.88289 0.1231 0.0
C1521 C 0.64052 0.86284 0.10958 0.0
C1522 C 0.62749 0.94189 0.1253 0.0
C1523 C 0.63181 0.08296 0.102 0.0
H1524 H 0.62989 0.14366 0.15097 0.0
C1525 C 0.63178 0.32743 0.11668 0.0
C1526 C 0.62056 0.34664 0.12946 0.0
C1527 C 0.6347 0.2686 0.11451 0.0
C1528 C 0.63027 0.12733 0.13721 0.0
H1529 H 0.65611 0.88923 0.08753 0.0
H1530 H 0.65168 0.99188 0.09148 0.0
H1531 H 0.63345 0.04068 0.1463 0.0
H1532 H 0.60394 0.31907 0.15037 0.0
H1533 H 0.60907 0.21667 0.14664 0.0
H1534 H 0.62871 0.16977 0.09294 0.0
C1535 C 0.64538 0.96207 0.10027 0.0
C1536 C 0.63226 0.06824 0.13452 0.0
C1537 C 0.64798 0.9031 0.09806 0.0
C1538 C 0.61266 0.30579 0.14038 0.0
C1539 C 0.61565 0.24704 0.1383 0.0
C1540 C 0.62988 0.14209 0.1047 0.0
C1541 C 0.63524 0.98229 0.11405 0.0
C1542 C 0.63301 0.04524 0.11688 0.0
C1543 C 0.62654 0.22767 0.12518 0.0
C1544 C 0.62905 0.16497 0.12234 0.0
H1545 H 0.62412 0.85307 0.13217 0.0
H1546 H 0.61939 0.95583 0.13585 0.0
H1547 H 0.63211 0.06672 0.08823 0.0
H1548 H 0.63808 0.35774 0.10804 0.0
H1549 H 0.64332 0.25512 0.10444 0.0
C1550 C 0.39058 0.67414 0.1367 0.0
C1551 C 0.38229 0.63755 0.12469 0.0
C1552 C 0.38931 0.73384 0.13511 0.0
C1553 C 0.36363 0.84721 0.11563 0.0
H1554 H 0.4013 0.94352 0.12222 0.0
C1555 C 0.36345 0.08963 0.0994 0.0
C1556 C 0.37081 0.12636 0.11212 0.0
C1557 C 0.36522 0.03008 0.10071 0.0
C1558 C 0.39065 0.91721 0.12051 0.0
H1559 H 0.3662 0.63495 0.10153 0.0
H1560 H 0.36415 0.73905 0.09861 0.0
H1561 H 0.40356 0.83925 0.12497 0.0
H1562 H 0.38601 0.12941 0.13603 0.0
H1563 H 0.38904 0.02527 0.13833 0.0
H1564 H 0.35074 0.92514 0.11109 0.0
C1565 C 0.37144 0.72163 0.10945 0.0
C1566 C 0.39193 0.85749 0.12211 0.0
C1567 C 0.37267 0.66193 0.11107 0.0
C1568 C 0.38019 0.10228 0.12602 0.0
C1569 C 0.38199 0.04265 0.12728 0.0
C1570 C 0.36236 0.90685 0.11398 0.0
C1571 C 0.37975 0.7583 0.12143 0.0
C1572 C 0.37843 0.82179 0.1197 0.0
C1573 C 0.37442 0.0059 0.11473 0.0
C1574 C 0.37585 0.94251 0.1164 0.0
H1575 H 0.39804 0.65673 0.14739 0.0
H1576 H 0.39568 0.76082 0.14473 0.0
H1577 H 0.35294 0.82107 0.11399 0.0
H1578 H 0.3562 0.10678 0.08849 0.0
H1579 H 0.35942 0.00293 0.09067 0.0
C1580 C 0.63028 0.11393 0.35435 0.0
C1581 C 0.63824 0.13772 0.36944 0.0
C1582 C 0.62806 0.05447 0.35294 0.0
C1583 C 0.62705 0.92088 0.37991 0.0
H1584 H 0.63535 0.84745 0.33364 0.0
C1585 C 0.62984 0.67408 0.37195 0.0
C1586 C 0.62257 0.65015 0.35644 0.0
C1587 C 0.63164 0.73364 0.37362 0.0
C1588 C 0.63281 0.86737 0.3466 0.0
H1589 H 0.64991 0.11786 0.39501 0.0
H1590 H 0.64605 0.01406 0.39252 0.0
H1591 H 0.63841 0.95146 0.3365 0.0
H1592 H 0.61148 0.66999 0.33054 0.0
H1593 H 0.61449 0.77388 0.33355 0.0
H1594 H 0.62142 0.8368 0.39 0.0
C1595 C 0.64144 0.04144 0.38184 0.0
C1596 C 0.63456 0.92694 0.34823 0.0
C1597 C 0.64372 0.10088 0.38322 0.0
C1598 C 0.61716 0.68703 0.34264 0.0
C1599 C 0.61898 0.74658 0.34431 0.0
C1600 C 0.62527 0.8613 0.37827 0.0
C1601 C 0.63369 0.01757 0.36663 0.0
C1602 C 0.6317 0.95434 0.3649 0.0
C1603 C 0.62623 0.77057 0.35982 0.0
C1604 C 0.62813 0.83387 0.36159 0.0
H1605 H 0.62589 0.14114 0.34351 0.0
H1606 H 0.62186 0.0374 0.34117 0.0
H1607 H 0.62456 0.94087 0.39287 0.0
H1608 H 0.63416 0.64683 0.38281 0.0
H1609 H 0.63746 0.75074 0.38563 0.0
C1610 C 0.37383 0.91192 0.37916 0.0
C1611 C 0.37999 0.87691 0.36531 0.0
C1612 C 0.37458 0.97186 0.3778 0.0
C1613 C 0.37918 0.09016 0.34451 0.0
H1614 H 0.38924 0.18113 0.38722 0.0
C1615 C 0.39306 0.33401 0.34105 0.0
C1616 C 0.3868 0.36931 0.35477 0.0
C1617 C 0.39175 0.27413 0.3422 0.0
C1618 C 0.38622 0.15641 0.37521 0.0
H1619 H 0.39184 0.87767 0.33916 0.0
H1620 H 0.3933 0.98246 0.33686 0.0
H1621 H 0.38832 0.07649 0.38944 0.0
H1622 H 0.3741 0.36923 0.38041 0.0
H1623 H 0.37179 0.26452 0.38242 0.0
H1624 H 0.37719 0.17019 0.33028 0.0
C1625 C 0.38771 0.96344 0.3487 0.0
C1626 C 0.3857 0.09637 0.37648 0.0
C1627 C 0.38697 0.90335 0.35007 0.0
C1628 C 0.37907 0.3433 0.36962 0.0
C1629 C 0.37783 0.28328 0.37082 0.0
C1630 C 0.37973 0.15022 0.34324 0.0
C1631 C 0.3815 0.99846 0.36255 0.0
C1632 C 0.38218 0.06244 0.36114 0.0
C1633 C 0.38421 0.24797 0.35715 0.0
C1634 C 0.38328 0.18409 0.35858 0.0
H1635 H 0.36831 0.89308 0.39108 0.0
H1636 H 0.36948 0.99738 0.38861 0.0
H1637 H 0.37616 0.06548 0.3325 0.0
H1638 H 0.39908 0.35258 0.32941 0.0
H1639 H 0.39695 0.24826 0.33154 0.0
C1640 C 0.37745 0.66331 0.87025 0.0
C1641 C 0.37561 0.6384 0.853 0.0
C1642 C 0.37695 0.72294 0.87236 0.0
C1643 C 0.36419 0.85647 0.84912 0.0
H1644 H 0.39357 0.92921 0.88308 0.0
C1645 C 0.374 0.10137 0.85164 0.0
C1646 C 0.37294 0.12669 0.86891 0.0
C1647 C 0.3748 0.04175 0.84984 0.0
C1648 C 0.38524 0.90933 0.87365 0.0
H1649 H 0.37177 0.65628 0.82442 0.0
H1650 H 0.37129 0.76035 0.82801 0.0
H1651 H 0.39374 0.82481 0.87954 0.0
H1652 H 0.3724 0.10964 0.89786 0.0
H1653 H 0.37398 0.00511 0.89468 0.0
H1654 H 0.35595 0.94129 0.843 0.0
C1655 C 0.37276 0.73387 0.83999 0.0
C1656 C 0.38527 0.84959 0.87165 0.0
C1657 C 0.3731 0.67421 0.83791 0.0
C1658 C 0.37315 0.09131 0.88438 0.0
C1659 C 0.37412 0.0316 0.88257 0.0
C1660 C 0.36429 0.91618 0.85098 0.0
C1661 C 0.37476 0.75896 0.85723 0.0
C1662 C 0.37472 0.82245 0.85939 0.0
C1663 C 0.37472 0.00633 0.86528 0.0
C1664 C 0.37479 0.9431 0.86327 0.0
H1665 H 0.37931 0.63677 0.88215 0.0
H1666 H 0.37822 0.74074 0.88587 0.0
H1667 H 0.35572 0.83695 0.83979 0.0
H1668 H 0.37389 0.12749 0.83946 0.0
H1669 H 0.37543 0.02327 0.83637 0.0
C1670 C 0.63191 0.33235 0.87214 0.0
C1671 C 0.62399 0.35567 0.85701 0.0
C1672 C 0.63367 0.27285 0.87389 0.0
C1673 C 0.63365 0.13896 0.84708 0.0
H1674 H 0.62741 0.06534 0.89382 0.0
C1675 C 0.63216 0.89239 0.85505 0.0
C1676 C 0.64068 0.86929 0.8698 0.0
C1677 C 0.62968 0.95161 0.85376 0.0
C1678 C 0.62933 0.08537 0.88072 0.0
H1679 H 0.61163 0.33483 0.83189 0.0
H1680 H 0.61461 0.23112 0.83502 0.0
H1681 H 0.62404 0.16921 0.89101 0.0
H1682 H 0.65307 0.89017 0.89489 0.0
H1683 H 0.6488 0.99358 0.89257 0.0
H1684 H 0.63898 0.05524 0.83679 0.0
C1685 C 0.61963 0.25883 0.84542 0.0
C1686 C 0.62742 0.14483 0.87911 0.0
C1687 C 0.61785 0.31827 0.84368 0.0
C1688 C 0.64645 0.90659 0.88336 0.0
C1689 C 0.64394 0.96582 0.88209 0.0
C1690 C 0.63556 0.07955 0.84869 0.0
C1691 C 0.62757 0.23545 0.86053 0.0
C1692 C 0.62956 0.17228 0.86227 0.0
C1693 C 0.63563 0.98901 0.8672 0.0
C1694 C 0.63343 0.05209 0.86552 0.0
H1695 H 0.63679 0.36001 0.88265 0.0
H1696 H 0.64002 0.2562 0.88559 0.0
H1697 H 0.63564 0.15895 0.83399 0.0
H1698 H 0.62751 0.86481 0.8444 0.0
H1699 H 0.62304 0.96811 0.84225 0.0
C1700 C 0.38545 0.90244 0.62916 0.0
C1701 C 0.37822 0.87587 0.61405 0.0
C1702 C 0.3861 0.96263 0.63054 0.0
C1703 C 0.36668 0.09477 0.61287 0.0
H1704 H 0.40484 0.17138 0.631 0.0
C1705 C 0.37507 0.34263 0.60929 0.0
C1706 C 0.38254 0.36983 0.62414 0.0
C1707 C 0.37444 0.28242 0.60815 0.0
C1708 C 0.39401 0.15072 0.62611 0.0
H1709 H 0.36619 0.89209 0.58842 0.0
H1710 H 0.36746 0.99636 0.59075 0.0
H1711 H 0.40407 0.06666 0.62908 0.0
H1712 H 0.39499 0.35477 0.64957 0.0
H1713 H 0.39369 0.25034 0.64771 0.0
H1714 H 0.35661 0.17875 0.6099 0.0
C1715 C 0.37242 0.97091 0.6017 0.0
C1716 C 0.39357 0.09056 0.62501 0.0
C1717 C 0.37179 0.91093 0.60031 0.0
C1718 C 0.38921 0.33538 0.63788 0.0
C1719 C 0.38857 0.27533 0.63676 0.0
C1720 C 0.36711 0.15491 0.61398 0.0
C1721 C 0.3795 0.99765 0.61686 0.0
C1722 C 0.37991 0.06175 0.61833 0.0
C1723 C 0.38125 0.24794 0.62184 0.0
C1724 C 0.38078 0.18376 0.6206 0.0
H1725 H 0.39049 0.87678 0.64002 0.0
H1726 H 0.39152 0.9817 0.6425 0.0
H1727 H 0.35586 0.07409 0.60793 0.0
H1728 H 0.36986 0.36781 0.59843 0.0
H1729 H 0.36886 0.26291 0.59636 0.0
C1730 C 0.63281 0.67858 0.61704 0.0
C1731 C 0.62199 0.65867 0.63025 0.0
C1732 C 0.63558 0.73757 0.61477 0.0
C1733 C 0.63147 0.87853 0.63741 0.0
H1734 H 0.63077 0.93858 0.58828 0.0
C1735 C 0.62855 0.12198 0.62306 0.0
C1736 C 0.63844 0.14361 0.6092 0.0
C1737 C 0.62648 0.06268 0.62533 0.0
C1738 C 0.63118 0.92248 0.60207 0.0
H1739 H 0.60603 0.68497 0.65186 0.0
H1740 H 0.61092 0.78768 0.64793 0.0
H1741 H 0.62827 0.83516 0.59333 0.0
H1742 H 0.65358 0.1198 0.58655 0.0
H1743 H 0.65005 0.01648 0.59061 0.0
H1744 H 0.63441 0.96571 0.64618 0.0
C1745 C 0.61728 0.75776 0.63935 0.0
C1746 C 0.62977 0.8632 0.60496 0.0
C1747 C 0.61443 0.69887 0.64154 0.0
C1748 C 0.64585 0.10463 0.59735 0.0
C1749 C 0.64378 0.04532 0.59963 0.0
C1750 C 0.63292 0.93777 0.63452 0.0
C1751 C 0.62769 0.77783 0.62575 0.0
C1752 C 0.62983 0.84059 0.62267 0.0
C1753 C 0.63425 0.02361 0.61381 0.0
C1754 C 0.63271 0.96051 0.61683 0.0
H1755 H 0.63883 0.64873 0.60812 0.0
H1756 H 0.64383 0.75171 0.60433 0.0
H1757 H 0.63177 0.86237 0.6512 0.0
H1758 H 0.62263 0.15081 0.63239 0.0
H1759 H 0.61882 0.04743 0.63619 0.0
loop_
_geom_bond_atom_site_label_1
_geom_bond_atom_site_label_2
_geom_bond_distance
_geom_bond_site_symmetry_2
_ccdc_geom_bond_type
Zn0 O6 1.969 . S
Zn0 O7 1.965 . S
Zn0 O11 2.024 . S
Zn0 O16 1.969 . S
Zn1 O8 1.969 . S
Zn1 O14 1.969 1_545 S
Zn1 O15 1.965 . S
Zn1 O17 2.024 . S
C2 O3 1.229 . S
C2 O11 1.058 . S
O3 C2 1.229 . S
C4 O5 1.229 1_545 S
C4 O17 1.058 . S
O5 C4 1.229 1_565 S
O6 Zn0 1.969 . S
O6 C9 1.267 . S
O7 Zn0 1.965 . S
O7 C18 1.260 . S
O8 Zn1 1.969 . S
O8 C18 1.258 . S
C9 O6 1.267 . S
C9 O10 1.228 . S
O10 C9 1.228 . S
O11 Zn0 2.024 . S
O11 C2 1.058 . S
C12 O13 1.228 . S
C12 O14 1.267 . S
O13 C12 1.228 . S
O14 Zn1 1.969 1_565 S
O14 C12 1.267 . S
O15 Zn1 1.965 . S
O15 C19 1.260 . S
O16 Zn0 1.969 . S
O16 C19 1.258 . S
O17 Zn1 2.024 . S
O17 C4 1.058 . S
C18 O7 1.260 . S
C18 O8 1.258 . S
C19 O15 1.260 . S
C19 O16 1.258 . S
Zn20 O26 1.969 . S
Zn20 O27 1.965 . S
Zn20 O31 2.024 . S
Zn20 O36 1.969 . S
Zn21 O28 1.969 . S
Zn21 O34 1.969 1_565 S
Zn21 O35 1.965 . S
Zn21 O37 2.024 . S
C22 O23 1.229 . S
C22 O31 1.058 . S
O23 C22 1.229 . S
C24 O25 1.229 1_565 S
C24 O37 1.058 . S
O25 C24 1.229 1_545 S
O26 Zn20 1.969 . S
O26 C29 1.267 . S
O27 Zn20 1.965 . S
O27 C38 1.260 . S
O28 Zn21 1.969 . S
O28 C38 1.258 . S
C29 O26 1.267 . S
C29 O30 1.228 . S
O30 C29 1.228 . S
O31 Zn20 2.024 . S
O31 C22 1.058 . S
C32 O33 1.228 . S
C32 O34 1.267 . S
O33 C32 1.228 . S
O34 Zn21 1.969 1_545 S
O34 C32 1.267 . S
O35 Zn21 1.965 . S
O35 C39 1.260 . S
O36 Zn20 1.969 . S
O36 C39 1.258 . S
O37 Zn21 2.024 . S
O37 C24 1.058 . S
C38 O27 1.260 . S
C38 O28 1.258 . S
C39 O35 1.260 . S
C39 O36 1.258 . S
Zn40 O46 1.969 . S
Zn40 O47 1.965 . S
Zn40 O51 2.024 . S
Zn40 O56 1.969 . S
Zn41 O48 1.969 . S
Zn41 O54 1.969 1_565 S
Zn41 O55 1.965 . S
Zn41 O57 2.024 . S
C42 O43 1.229 . S
C42 O51 1.058 . S
O43 C42 1.229 . S
C44 O45 1.229 1_565 S
C44 O57 1.058 . S
O45 C44 1.229 1_545 S
O46 Zn40 1.969 . S
O46 C49 1.267 . S
O47 Zn40 1.965 . S
O47 C58 1.260 . S
O48 Zn41 1.969 . S
O48 C58 1.258 . S
C49 O46 1.267 . S
C49 O50 1.228 . S
O50 C49 1.228 . S
O51 Zn40 2.024 . S
O51 C42 1.058 . S
C52 O53 1.228 . S
C52 O54 1.267 . S
O53 C52 1.228 . S
O54 Zn41 1.969 1_545 S
O54 C52 1.267 . S
O55 Zn41 1.965 . S
O55 C59 1.260 . S
O56 Zn40 1.969 . S
O56 C59 1.258 . S
O57 Zn41 2.024 . S
O57 C44 1.058 . S
C58 O47 1.260 . S
C58 O48 1.258 . S
C59 O55 1.260 . S
C59 O56 1.258 . S
Zn60 O66 1.969 . S
Zn60 O67 1.965 . S
Zn60 O71 2.024 . S
Zn60 O76 1.969 . S
Zn61 O68 1.969 . S
Zn61 O74 1.969 1_545 S
Zn61 O75 1.965 . S
Zn61 O77 2.024 . S
C62 O63 1.229 . S
C62 O71 1.058 . S
O63 C62 1.229 . S
C64 O65 1.229 1_545 S
C64 O77 1.058 . S
O65 C64 1.229 1_565 S
O66 Zn60 1.969 . S
O66 C69 1.267 . S
O67 Zn60 1.965 . S
O67 C78 1.260 . S
O68 Zn61 1.969 . S
O68 C78 1.258 . S
C69 O66 1.267 . S
C69 O70 1.228 . S
O70 C69 1.228 . S
O71 Zn60 2.024 . S
O71 C62 1.058 . S
C72 O73 1.228 . S
C72 O74 1.267 . S
O73 C72 1.228 . S
O74 Zn61 1.969 1_565 S
O74 C72 1.267 . S
O75 Zn61 1.965 . S
O75 C79 1.260 . S
O76 Zn60 1.969 . S
O76 C79 1.258 . S
O77 Zn61 2.024 . S
O77 C64 1.058 . S
C78 O67 1.260 . S
C78 O68 1.258 . S
C79 O75 1.260 . S
C79 O76 1.258 . S
Zn80 O86 1.969 1_565 S
Zn80 O87 1.965 . S
Zn80 O91 2.024 . S
Zn80 O96 1.969 . S
Zn81 O88 1.969 . S
Zn81 O94 1.969 . S
Zn81 O95 1.965 . S
Zn81 O97 2.024 . S
C82 O83 1.229 1_565 S
C82 O91 1.058 . S
O83 C82 1.229 1_545 S
C84 O85 1.229 . S
C84 O97 1.058 . S
O85 C84 1.229 . S
O86 Zn80 1.969 1_545 S
O86 C89 1.267 . S
O87 Zn80 1.965 . S
O87 C98 1.260 . S
O88 Zn81 1.969 . S
O88 C98 1.258 . S
C89 O86 1.267 . S
C89 O90 1.228 . S
O90 C89 1.228 . S
O91 Zn80 2.024 . S
O91 C82 1.058 . S
C92 O93 1.228 . S
C92 O94 1.267 . S
O93 C92 1.228 . S
O94 Zn81 1.969 . S
O94 C92 1.267 . S
O95 Zn81 1.965 . S
O95 C99 1.260 . S
O96 Zn80 1.969 . S
O96 C99 1.258 . S
O97 Zn81 2.024 . S
O97 C84 1.058 . S
C98 O87 1.260 . S
C98 O88 1.258 . S
C99 O95 1.260 . S
C99 O96 1.258 . S
Zn100 O106 1.969 1_545 S
Zn100 O107 1.965 . S
Zn100 O111 2.024 . S
Zn100 O116 1.969 . S
Zn101 O108 1.969 . S
Zn101 O114 1.969 . S
Zn101 O115 1.965 . S
Zn101 O117 2.024 . S
C102 O103 1.229 1_545 S
C102 O111 1.058 . S
O103 C102 1.229 1_565 S
C104 O105 1.229 . S
C104 O117 1.058 . S
O105 C104 1.229 . S
O106 Zn100 1.969 1_565 S
O106 C109 1.267 . S
O107 Zn100 1.965 . S
O107 C118 1.260 . S
O108 Zn101 1.969 . S
O108 C118 1.258 . S
C109 O106 1.267 . S
C109 O110 1.228 . S
O110 C109 1.228 . S
O111 Zn100 2.024 . S
O111 C102 1.058 . S
C112 O113 1.228 . S
C112 O114 1.267 . S
O113 C112 1.228 . S
O114 Zn101 1.969 . S
O114 C112 1.267 . S
O115 Zn101 1.965 . S
O115 C119 1.260 . S
O116 Zn100 1.969 . S
O116 C119 1.258 . S
O117 Zn101 2.024 . S
O117 C104 1.058 . S
C118 O107 1.260 . S
C118 O108 1.258 . S
C119 O115 1.260 . S
C119 O116 1.258 . S
Zn120 O126 1.969 1_545 S
Zn120 O127 1.965 . S
Zn120 O131 2.024 . S
Zn120 O136 1.969 . S
Zn121 O128 1.969 . S
Zn121 O134 1.969 . S
Zn121 O135 1.965 . S
Zn121 O137 2.024 . S
C122 O123 1.229 1_545 S
C122 O131 1.058 . S
O123 C122 1.229 1_565 S
C124 O125 1.229 . S
C124 O137 1.058 . S
O125 C124 1.229 . S
O126 Zn120 1.969 1_565 S
O126 C129 1.267 . S
O127 Zn120 1.965 . S
O127 C138 1.260 . S
O128 Zn121 1.969 . S
O128 C138 1.258 . S
C129 O126 1.267 . S
C129 O130 1.228 . S
O130 C129 1.228 . S
O131 Zn120 2.024 . S
O131 C122 1.058 . S
C132 O133 1.228 . S
C132 O134 1.267 . S
O133 C132 1.228 . S
O134 Zn121 1.969 . S
O134 C132 1.267 . S
O135 Zn121 1.965 . S
O135 C139 1.260 . S
O136 Zn120 1.969 . S
O136 C139 1.258 . S
O137 Zn121 2.024 . S
O137 C124 1.058 . S
C138 O127 1.260 . S
C138 O128 1.258 . S
C139 O135 1.260 . S
C139 O136 1.258 . S
Zn140 O146 1.969 1_565 S
Zn140 O147 1.965 . S
Zn140 O151 2.024 . S
Zn140 O156 1.969 . S
Zn141 O148 1.969 . S
Zn141 O154 1.969 . S
Zn141 O155 1.965 . S
Zn141 O157 2.024 . S
C142 O143 1.229 1_565 S
C142 O151 1.058 . S
O143 C142 1.229 1_545 S
C144 O145 1.229 . S
C144 O157 1.058 . S
O145 C144 1.229 . S
O146 Zn140 1.969 1_545 S
O146 C149 1.267 . S
O147 Zn140 1.965 . S
O147 C158 1.260 . S
O148 Zn141 1.969 . S
O148 C158 1.258 . S
C149 O146 1.267 . S
C149 O150 1.228 . S
O150 C149 1.228 . S
O151 Zn140 2.024 . S
O151 C142 1.058 . S
C152 O153 1.228 . S
C152 O154 1.267 . S
O153 C152 1.228 . S
O154 Zn141 1.969 . S
O154 C152 1.267 . S
O155 Zn141 1.965 . S
O155 C159 1.260 . S
O156 Zn140 1.969 . S
O156 C159 1.258 . S
O157 Zn141 2.024 . S
O157 C144 1.058 . S
C158 O147 1.260 . S
C158 O148 1.258 . S
C159 O155 1.260 . S
C159 O156 1.258 . S
Zn160 O166 1.969 . S
Zn160 O167 1.965 . S
Zn160 O171 2.024 . S
Zn160 O176 1.969 . S
Zn161 O168 1.969 . S
Zn161 O174 1.969 . S
Zn161 O175 1.965 . S
Zn161 O177 2.024 . S
C162 O163 1.229 . S
C162 O171 1.058 . S
O163 C162 1.229 . S
C164 O165 1.229 . S
C164 O177 1.058 . S
O165 C164 1.229 . S
O166 Zn160 1.969 . S
O166 C169 1.267 . S
O167 Zn160 1.965 . S
O167 C178 1.260 . S
O168 Zn161 1.969 . S
O168 C178 1.258 . S
C169 O166 1.267 . S
C169 O170 1.228 . S
O170 C169 1.228 . S
O171 Zn160 2.024 . S
O171 C162 1.058 . S
C172 O173 1.228 . S
C172 O174 1.267 . S
O173 C172 1.228 . S
O174 Zn161 1.969 . S
O174 C172 1.267 . S
O175 Zn161 1.965 . S
O175 C179 1.260 . S
O176 Zn160 1.969 . S
O176 C179 1.258 . S
O177 Zn161 2.024 . S
O177 C164 1.058 . S
C178 O167 1.260 . S
C178 O168 1.258 . S
C179 O175 1.260 . S
C179 O176 1.258 . S
Zn180 O186 1.969 . S
Zn180 O187 1.965 . S
Zn180 O191 2.024 . S
Zn180 O196 1.969 . S
Zn181 O188 1.969 . S
Zn181 O194 1.969 . S
Zn181 O195 1.965 . S
Zn181 O197 2.024 . S
C182 O183 1.229 . S
C182 O191 1.058 . S
O183 C182 1.229 . S
C184 O185 1.229 . S
C184 O197 1.058 . S
O185 C184 1.229 . S
O186 Zn180 1.969 . S
O186 C189 1.267 . S
O187 Zn180 1.965 . S
O187 C198 1.260 . S
O188 Zn181 1.969 . S
O188 C198 1.258 . S
C189 O186 1.267 . S
C189 O190 1.228 . S
O190 C189 1.228 . S
O191 Zn180 2.024 . S
O191 C182 1.058 . S
C192 O193 1.228 . S
C192 O194 1.267 . S
O193 C192 1.228 . S
O194 Zn181 1.969 . S
O194 C192 1.267 . S
O195 Zn181 1.965 . S
O195 C199 1.260 . S
O196 Zn180 1.969 . S
O196 C199 1.258 . S
O197 Zn181 2.024 . S
O197 C184 1.058 . S
C198 O187 1.260 . S
C198 O188 1.258 . S
C199 O195 1.260 . S
C199 O196 1.258 . S
Zn200 O206 1.969 . S
Zn200 O207 1.965 . S
Zn200 O211 2.024 . S
Zn200 O216 1.969 . S
Zn201 O208 1.969 . S
Zn201 O214 1.969 . S
Zn201 O215 1.965 . S
Zn201 O217 2.024 . S
C202 O203 1.229 . S
C202 O211 1.058 . S
O203 C202 1.229 . S
C204 O205 1.229 . S
C204 O217 1.058 . S
O205 C204 1.229 . S
O206 Zn200 1.969 . S
O206 C209 1.267 . S
O207 Zn200 1.965 . S
O207 C218 1.260 . S
O208 Zn201 1.969 . S
O208 C218 1.258 . S
C209 O206 1.267 . S
C209 O210 1.228 . S
O210 C209 1.228 . S
O211 Zn200 2.024 . S
O211 C202 1.058 . S
C212 O213 1.228 . S
C212 O214 1.267 . S
O213 C212 1.228 . S
O214 Zn201 1.969 . S
O214 C212 1.267 . S
O215 Zn201 1.965 . S
O215 C219 1.260 . S
O216 Zn200 1.969 . S
O216 C219 1.258 . S
O217 Zn201 2.024 . S
O217 C204 1.058 . S
C218 O207 1.260 . S
C218 O208 1.258 . S
C219 O215 1.260 . S
C219 O216 1.258 . S
Zn220 O226 1.969 . S
Zn220 O227 1.965 . S
Zn220 O231 2.024 . S
Zn220 O236 1.969 . S
Zn221 O228 1.969 . S
Zn221 O234 1.969 . S
Zn221 O235 1.965 . S
Zn221 O237 2.024 . S
C222 O223 1.229 . S
C222 O231 1.058 . S
O223 C222 1.229 . S
C224 O225 1.229 . S
C224 O237 1.058 . S
O225 C224 1.229 . S
O226 Zn220 1.969 . S
O226 C229 1.267 . S
O227 Zn220 1.965 . S
O227 C238 1.260 . S
O228 Zn221 1.969 . S
O228 C238 1.258 . S
C229 O226 1.267 . S
C229 O230 1.228 . S
O230 C229 1.228 . S
O231 Zn220 2.024 . S
O231 C222 1.058 . S
C232 O233 1.228 . S
C232 O234 1.267 . S
O233 C232 1.228 . S
O234 Zn221 1.969 . S
O234 C232 1.267 . S
O235 Zn221 1.965 . S
O235 C239 1.260 . S
O236 Zn220 1.969 . S
O236 C239 1.258 . S
O237 Zn221 2.024 . S
O237 C224 1.058 . S
C238 O227 1.260 . S
C238 O228 1.258 . S
C239 O235 1.260 . S
C239 O236 1.258 . S
Zn240 O246 1.969 . S
Zn240 O247 1.965 . S
Zn240 O251 2.024 . S
Zn240 O256 1.969 . S
Zn241 O248 1.969 . S
Zn241 O254 1.969 . S
Zn241 O255 1.965 . S
Zn241 O257 2.024 . S
C242 O243 1.229 . S
C242 O251 1.058 . S
O243 C242 1.229 . S
C244 O245 1.229 . S
C244 O257 1.058 . S
O245 C244 1.229 . S
O246 Zn240 1.969 . S
O246 C249 1.267 . S
O247 Zn240 1.965 . S
O247 C258 1.260 . S
O248 Zn241 1.969 . S
O248 C258 1.258 . S
C249 O246 1.267 . S
C249 O250 1.228 . S
O250 C249 1.228 . S
O251 Zn240 2.024 . S
O251 C242 1.058 . S
C252 O253 1.228 . S
C252 O254 1.267 . S
O253 C252 1.228 . S
O254 Zn241 1.969 . S
O254 C252 1.267 . S
O255 Zn241 1.965 . S
O255 C259 1.260 . S
O256 Zn240 1.969 . S
O256 C259 1.258 . S
O257 Zn241 2.024 . S
O257 C244 1.058 . S
C258 O247 1.260 . S
C258 O248 1.258 . S
C259 O255 1.260 . S
C259 O256 1.258 . S
Zn260 O266 1.969 . S
Zn260 O267 1.965 . S
Zn260 O271 2.024 . S
Zn260 O276 1.969 . S
Zn261 O268 1.969 . S
Zn261 O274 1.969 . S
Zn261 O275 1.965 . S
Zn261 O277 2.024 . S
C262 O263 1.229 . S
C262 O271 1.058 . S
O263 C262 1.229 . S
C264 O265 1.229 . S
C264 O277 1.058 . S
O265 C264 1.229 . S
O266 Zn260 1.969 . S
O266 C269 1.267 . S
O267 Zn260 1.965 . S
O267 C278 1.260 . S
O268 Zn261 1.969 . S
O268 C278 1.258 . S
C269 O266 1.267 . S
C269 O270 1.228 . S
O270 C269 1.228 . S
O271 Zn260 2.024 . S
O271 C262 1.058 . S
C272 O273 1.228 . S
C272 O274 1.267 . S
O273 C272 1.228 . S
O274 Zn261 1.969 . S
O274 C272 1.267 . S
O275 Zn261 1.965 . S
O275 C279 1.260 . S
O276 Zn260 1.969 . S
O276 C279 1.258 . S
O277 Zn261 2.024 . S
O277 C264 1.058 . S
C278 O267 1.260 . S
C278 O268 1.258 . S
C279 O275 1.260 . S
C279 O276 1.258 . S
Zn280 O286 1.969 . S
Zn280 O287 1.965 . S
Zn280 O291 2.024 . S
Zn280 O296 1.969 . S
Zn281 O288 1.969 . S
Zn281 O294 1.969 . S
Zn281 O295 1.965 . S
Zn281 O297 2.024 . S
C282 O283 1.229 . S
C282 O291 1.058 . S
O283 C282 1.229 . S
C284 O285 1.229 . S
C284 O297 1.058 . S
O285 C284 1.229 . S
O286 Zn280 1.969 . S
O286 C289 1.267 . S
O287 Zn280 1.965 . S
O287 C298 1.260 . S
O288 Zn281 1.969 . S
O288 C298 1.258 . S
C289 O286 1.267 . S
C289 O290 1.228 . S
O290 C289 1.228 . S
O291 Zn280 2.024 . S
O291 C282 1.058 . S
C292 O293 1.228 . S
C292 O294 1.267 . S
O293 C292 1.228 . S
O294 Zn281 1.969 . S
O294 C292 1.267 . S
O295 Zn281 1.965 . S
O295 C299 1.260 . S
O296 Zn280 1.969 . S
O296 C299 1.258 . S
O297 Zn281 2.024 . S
O297 C284 1.058 . S
C298 O287 1.260 . S
C298 O288 1.258 . S
C299 O295 1.260 . S
C299 O296 1.258 . S
Zn300 O306 1.969 . S
Zn300 O307 1.965 . S
Zn300 O311 2.024 . S
Zn300 O316 1.969 . S
Zn301 O308 1.969 . S
Zn301 O314 1.969 . S
Zn301 O315 1.965 . S
Zn301 O317 2.024 . S
C302 O303 1.229 . S
C302 O311 1.058 . S
O303 C302 1.229 . S
C304 O305 1.229 . S
C304 O317 1.058 . S
O305 C304 1.229 . S
O306 Zn300 1.969 . S
O306 C309 1.267 . S
O307 Zn300 1.965 . S
O307 C318 1.260 . S
O308 Zn301 1.969 . S
O308 C318 1.258 . S
C309 O306 1.267 . S
C309 O310 1.228 . S
O310 C309 1.228 . S
O311 Zn300 2.024 . S
O311 C302 1.058 . S
C312 O313 1.228 . S
C312 O314 1.267 . S
O313 C312 1.228 . S
O314 Zn301 1.969 . S
O314 C312 1.267 . S
O315 Zn301 1.965 . S
O315 C319 1.260 . S
O316 Zn300 1.969 . S
O316 C319 1.258 . S
O317 Zn301 2.024 . S
O317 C304 1.058 . S
C318 O307 1.260 . S
C318 O308 1.258 . S
C319 O315 1.260 . S
C319 O316 1.258 . S
C320 C321 1.349 . S
C320 C322 1.327 . S
C320 H345 0.950 . S
C321 C320 1.349 . S
C321 C337 1.349 . S
C322 C320 1.327 . S
C322 C341 1.429 . S
C322 H346 0.950 . S
C323 C340 1.574 . S
C323 C342 1.368 . S
C323 H347 0.949 . S
H324 C328 0.949 . S
C325 C326 1.349 . S
C325 C327 1.327 . S
C325 H348 0.950 . S
C326 C325 1.349 . S
C326 C338 1.349 . S
C327 C325 1.327 . S
C327 C343 1.429 . S
C327 H349 0.950 . S
C328 H324 0.949 . S
C328 C336 1.574 . S
C328 C344 1.368 . S
H329 C337 0.950 . S
H330 C335 0.950 . S
H331 C336 0.949 . S
H332 C338 0.950 . S
H333 C339 0.950 . S
H334 C340 0.949 . S
C335 H330 0.950 . S
C335 C337 1.327 . S
C335 C341 1.429 . S
C336 C328 1.574 . S
C336 H331 0.949 . S
C336 C342 1.368 . S
C337 C321 1.349 . S
C337 H329 0.950 . S
C337 C335 1.327 . S
C338 C326 1.349 . S
C338 H332 0.950 . S
C338 C339 1.327 . S
C339 H333 0.950 . S
C339 C338 1.327 . S
C339 C343 1.429 . S
C340 C323 1.574 . S
C340 H334 0.949 . S
C340 C344 1.368 . S
C341 C322 1.429 . S
C341 C335 1.429 . S
C341 C342 1.523 . S
C342 C323 1.368 . S
C342 C336 1.368 . S
C342 C341 1.523 . S
C343 C327 1.429 . S
C343 C339 1.429 . S
C343 C344 1.523 . S
C344 C328 1.368 . S
C344 C340 1.368 . S
C344 C343 1.523 . S
H345 C320 0.950 . S
H346 C322 0.950 . S
H347 C323 0.949 . S
H348 C325 0.950 . S
H349 C327 0.950 . S
C350 C351 1.349 . S
C350 C352 1.327 . S
C350 H375 0.950 . S
C351 C350 1.349 . S
C351 C367 1.349 . S
C352 C350 1.327 . S
C352 C371 1.429 . S
C352 H376 0.950 . S
C353 C370 1.574 . S
C353 C372 1.368 . S
C353 H377 0.949 . S
H354 C358 0.949 . S
C355 C356 1.349 . S
C355 C357 1.327 . S
C355 H378 0.950 . S
C356 C355 1.349 . S
C356 C368 1.349 . S
C357 C355 1.327 . S
C357 C373 1.429 . S
C357 H379 0.950 . S
C358 H354 0.949 . S
C358 C366 1.574 . S
C358 C374 1.368 . S
H359 C367 0.950 . S
H360 C365 0.950 . S
H361 C366 0.949 . S
H362 C368 0.950 . S
H363 C369 0.950 . S
H364 C370 0.949 . S
C365 H360 0.950 . S
C365 C367 1.327 . S
C365 C371 1.429 . S
C366 C358 1.574 . S
C366 H361 0.949 . S
C366 C372 1.368 . S
C367 C351 1.349 . S
C367 H359 0.950 . S
C367 C365 1.327 . S
C368 C356 1.349 . S
C368 H362 0.950 . S
C368 C369 1.327 . S
C369 H363 0.950 . S
C369 C368 1.327 . S
C369 C373 1.429 . S
C370 C353 1.574 . S
C370 H364 0.949 . S
C370 C374 1.368 . S
C371 C352 1.429 . S
C371 C365 1.429 . S
C371 C372 1.523 . S
C372 C353 1.368 . S
C372 C366 1.368 . S
C372 C371 1.523 . S
C373 C357 1.429 . S
C373 C369 1.429 . S
C373 C374 1.523 . S
C374 C358 1.368 . S
C374 C370 1.368 . S
C374 C373 1.523 . S
H375 C350 0.950 . S
H376 C352 0.950 . S
H377 C353 0.949 . S
H378 C355 0.950 . S
H379 C357 0.950 . S
C380 C381 1.349 . S
C380 C382 1.327 . S
C380 H405 0.950 . S
C381 C380 1.349 . S
C381 C397 1.349 . S
C382 C380 1.327 . S
C382 C401 1.429 . S
C382 H406 0.950 . S
C383 C400 1.574 . S
C383 C402 1.368 . S
C383 H407 0.949 . S
H384 C388 0.949 . S
C385 C386 1.349 . S
C385 C387 1.327 . S
C385 H408 0.950 . S
C386 C385 1.349 . S
C386 C398 1.349 . S
C387 C385 1.327 . S
C387 C403 1.429 . S
C387 H409 0.950 . S
C388 H384 0.949 . S
C388 C396 1.574 . S
C388 C404 1.368 . S
H389 C397 0.950 . S
H390 C395 0.950 . S
H391 C396 0.949 . S
H392 C398 0.950 . S
H393 C399 0.950 . S
H394 C400 0.949 . S
C395 H390 0.950 . S
C395 C397 1.327 . S
C395 C401 1.429 . S
C396 C388 1.574 . S
C396 H391 0.949 . S
C396 C402 1.368 . S
C397 C381 1.349 . S
C397 H389 0.950 . S
C397 C395 1.327 . S
C398 C386 1.349 . S
C398 H392 0.950 . S
C398 C399 1.327 . S
C399 H393 0.950 . S
C399 C398 1.327 . S
C399 C403 1.429 . S
C400 C383 1.574 . S
C400 H394 0.949 . S
C400 C404 1.368 . S
C401 C382 1.429 . S
C401 C395 1.429 . S
C401 C402 1.523 . S
C402 C383 1.368 . S
C402 C396 1.368 . S
C402 C401 1.523 . S
C403 C387 1.429 . S
C403 C399 1.429 . S
C403 C404 1.523 . S
C404 C388 1.368 . S
C404 C400 1.368 . S
C404 C403 1.523 . S
H405 C380 0.950 . S
H406 C382 0.950 . S
H407 C383 0.949 . S
H408 C385 0.950 . S
H409 C387 0.950 . S
C410 C411 1.349 . S
C410 C412 1.327 . S
C410 H435 0.950 . S
C411 C410 1.349 . S
C411 C427 1.349 . S
C412 C410 1.327 . S
C412 C431 1.429 . S
C412 H436 0.950 . S
C413 C430 1.574 . S
C413 C432 1.368 . S
C413 H437 0.949 . S
H414 C418 0.949 . S
C415 C416 1.349 . S
C415 C417 1.327 . S
C415 H438 0.950 . S
C416 C415 1.349 . S
C416 C428 1.349 . S
C417 C415 1.327 . S
C417 C433 1.429 . S
C417 H439 0.950 . S
C418 H414 0.949 . S
C418 C426 1.574 . S
C418 C434 1.368 . S
H419 C427 0.950 . S
H420 C425 0.950 . S
H421 C426 0.949 . S
H422 C428 0.950 . S
H423 C429 0.950 . S
H424 C430 0.949 . S
C425 H420 0.950 . S
C425 C427 1.327 . S
C425 C431 1.429 . S
C426 C418 1.574 . S
C426 H421 0.949 . S
C426 C432 1.368 . S
C427 C411 1.349 . S
C427 H419 0.950 . S
C427 C425 1.327 . S
C428 C416 1.349 . S
C428 H422 0.950 . S
C428 C429 1.327 . S
C429 H423 0.950 . S
C429 C428 1.327 . S
C429 C433 1.429 . S
C430 C413 1.574 . S
C430 H424 0.949 . S
C430 C434 1.368 . S
C431 C412 1.429 . S
C431 C425 1.429 . S
C431 C432 1.523 . S
C432 C413 1.368 . S
C432 C426 1.368 . S
C432 C431 1.523 . S
C433 C417 1.429 . S
C433 C429 1.429 . S
C433 C434 1.523 . S
C434 C418 1.368 . S
C434 C430 1.368 . S
C434 C433 1.523 . S
H435 C410 0.950 . S
H436 C412 0.950 . S
H437 C413 0.949 . S
H438 C415 0.950 . S
H439 C417 0.950 . S
C440 C441 1.349 . S
C440 C442 1.327 . S
C440 H465 0.950 . S
C441 C440 1.349 . S
C441 C457 1.349 . S
C442 C440 1.327 . S
C442 C461 1.429 . S
C442 H466 0.950 . S
C443 C460 1.574 . S
C443 C462 1.368 . S
C443 H467 0.949 . S
H444 C448 0.949 . S
C445 C446 1.349 . S
C445 C447 1.327 . S
C445 H468 0.950 . S
C446 C445 1.349 . S
C446 C458 1.349 . S
C447 C445 1.327 . S
C447 C463 1.429 . S
C447 H469 0.950 . S
C448 H444 0.949 . S
C448 C456 1.574 . S
C448 C464 1.368 . S
H449 C457 0.950 . S
H450 C455 0.950 . S
H451 C456 0.949 . S
H452 C458 0.950 . S
H453 C459 0.950 . S
H454 C460 0.949 . S
C455 H450 0.950 . S
C455 C457 1.327 . S
C455 C461 1.429 . S
C456 C448 1.574 . S
C456 H451 0.949 . S
C456 C462 1.368 . S
C457 C441 1.349 . S
C457 H449 0.950 . S
C457 C455 1.327 . S
C458 C446 1.349 . S
C458 H452 0.950 . S
C458 C459 1.327 . S
C459 H453 0.950 . S
C459 C458 1.327 . S
C459 C463 1.429 . S
C460 C443 1.574 . S
C460 H454 0.949 . S
C460 C464 1.368 . S
C461 C442 1.429 . S
C461 C455 1.429 . S
C461 C462 1.523 . S
C462 C443 1.368 . S
C462 C456 1.368 . S
C462 C461 1.523 . S
C463 C447 1.429 . S
C463 C459 1.429 . S
C463 C464 1.523 . S
C464 C448 1.368 . S
C464 C460 1.368 . S
C464 C463 1.523 . S
H465 C440 0.950 . S
H466 C442 0.950 . S
H467 C443 0.949 . S
H468 C445 0.950 . S
H469 C447 0.950 . S
C470 C471 1.349 . S
C470 C472 1.327 . S
C470 H495 0.950 . S
C471 C470 1.349 . S
C471 C487 1.349 . S
C472 C470 1.327 . S
C472 C491 1.429 . S
C472 H496 0.950 . S
C473 C490 1.574 . S
C473 C492 1.368 . S
C473 H497 0.949 . S
H474 C478 0.949 . S
C475 C476 1.349 . S
C475 C477 1.327 . S
C475 H498 0.950 . S
C476 C475 1.349 . S
C476 C488 1.349 . S
C477 C475 1.327 . S
C477 C493 1.429 . S
C477 H499 0.950 . S
C478 H474 0.949 . S
C478 C486 1.574 . S
C478 C494 1.368 . S
H479 C487 0.950 . S
H480 C485 0.950 . S
H481 C486 0.949 . S
H482 C488 0.950 . S
H483 C489 0.950 . S
H484 C490 0.949 . S
C485 H480 0.950 . S
C485 C487 1.327 . S
C485 C491 1.429 . S
C486 C478 1.574 . S
C486 H481 0.949 . S
C486 C492 1.368 . S
C487 C471 1.349 . S
C487 H479 0.950 . S
C487 C485 1.327 . S
C488 C476 1.349 . S
C488 H482 0.950 . S
C488 C489 1.327 . S
C489 H483 0.950 . S
C489 C488 1.327 . S
C489 C493 1.429 . S
C490 C473 1.574 . S
C490 H484 0.949 . S
C490 C494 1.368 . S
C491 C472 1.429 . S
C491 C485 1.429 . S
C491 C492 1.523 . S
C492 C473 1.368 . S
C492 C486 1.368 . S
C492 C491 1.523 . S
C493 C477 1.429 . S
C493 C489 1.429 . S
C493 C494 1.523 . S
C494 C478 1.368 . S
C494 C490 1.368 . S
C494 C493 1.523 . S
H495 C470 0.950 . S
H496 C472 0.950 . S
H497 C473 0.949 . S
H498 C475 0.950 . S
H499 C477 0.950 . S
C500 C501 1.349 . S
C500 C502 1.327 . S
C500 H525 0.950 . S
C501 C500 1.349 . S
C501 C517 1.349 . S
C502 C500 1.327 . S
C502 C521 1.429 . S
C502 H526 0.950 . S
C503 C520 1.574 . S
C503 C522 1.368 . S
C503 H527 0.949 . S
H504 C508 0.949 . S
C505 C506 1.349 . S
C505 C507 1.327 . S
C505 H528 0.950 . S
C506 C505 1.349 . S
C506 C518 1.349 . S
C507 C505 1.327 . S
C507 C523 1.429 . S
C507 H529 0.950 . S
C508 H504 0.949 . S
C508 C516 1.574 . S
C508 C524 1.368 . S
H509 C517 0.950 . S
H510 C515 0.950 . S
H511 C516 0.949 . S
H512 C518 0.950 . S
H513 C519 0.950 . S
H514 C520 0.949 . S
C515 H510 0.950 . S
C515 C517 1.327 . S
C515 C521 1.429 . S
C516 C508 1.574 . S
C516 H511 0.949 . S
C516 C522 1.368 . S
C517 C501 1.349 . S
C517 H509 0.950 . S
C517 C515 1.327 . S
C518 C506 1.349 . S
C518 H512 0.950 . S
C518 C519 1.327 . S
C519 H513 0.950 . S
C519 C518 1.327 . S
C519 C523 1.429 . S
C520 C503 1.574 . S
C520 H514 0.949 . S
C520 C524 1.368 . S
C521 C502 1.429 . S
C521 C515 1.429 . S
C521 C522 1.523 . S
C522 C503 1.368 . S
C522 C516 1.368 . S
C522 C521 1.523 . S
C523 C507 1.429 . S
C523 C519 1.429 . S
C523 C524 1.523 . S
C524 C508 1.368 . S
C524 C520 1.368 . S
C524 C523 1.523 . S
H525 C500 0.950 . S
H526 C502 0.950 . S
H527 C503 0.949 . S
H528 C505 0.950 . S
H529 C507 0.950 . S
C530 C531 1.349 . S
C530 C532 1.327 . S
C530 H555 0.950 . S
C531 C530 1.349 . S
C531 C547 1.349 . S
C532 C530 1.327 . S
C532 C551 1.429 . S
C532 H556 0.950 . S
C533 C550 1.574 . S
C533 C552 1.368 . S
C533 H557 0.949 . S
H534 C538 0.949 . S
C535 C536 1.349 . S
C535 C537 1.327 . S
C535 H558 0.950 . S
C536 C535 1.349 . S
C536 C548 1.349 . S
C537 C535 1.327 . S
C537 C553 1.429 . S
C537 H559 0.950 . S
C538 H534 0.949 . S
C538 C546 1.574 . S
C538 C554 1.368 . S
H539 C547 0.950 . S
H540 C545 0.950 . S
H541 C546 0.949 . S
H542 C548 0.950 . S
H543 C549 0.950 . S
H544 C550 0.949 . S
C545 H540 0.950 . S
C545 C547 1.327 . S
C545 C551 1.429 . S
C546 C538 1.574 . S
C546 H541 0.949 . S
C546 C552 1.368 . S
C547 C531 1.349 . S
C547 H539 0.950 . S
C547 C545 1.327 . S
C548 C536 1.349 . S
C548 H542 0.950 . S
C548 C549 1.327 . S
C549 H543 0.950 . S
C549 C548 1.327 . S
C549 C553 1.429 . S
C550 C533 1.574 . S
C550 H544 0.949 . S
C550 C554 1.368 . S
C551 C532 1.429 . S
C551 C545 1.429 . S
C551 C552 1.523 . S
C552 C533 1.368 . S
C552 C546 1.368 . S
C552 C551 1.523 . S
C553 C537 1.429 . S
C553 C549 1.429 . S
C553 C554 1.523 . S
C554 C538 1.368 . S
C554 C550 1.368 . S
C554 C553 1.523 . S
H555 C530 0.950 . S
H556 C532 0.950 . S
H557 C533 0.949 . S
H558 C535 0.950 . S
H559 C537 0.950 . S
C560 C561 1.349 . S
C560 C562 1.327 . S
C560 H585 0.950 . S
C561 C560 1.349 . S
C561 C577 1.349 . S
C562 C560 1.327 . S
C562 C581 1.429 . S
C562 H586 0.950 . S
C563 C580 1.574 . S
C563 C582 1.368 1_545 S
C563 H587 0.949 . S
H564 C568 0.949 . S
C565 C566 1.349 . S
C565 C567 1.327 . S
C565 H588 0.950 . S
C566 C565 1.349 . S
C566 C578 1.349 . S
C567 C565 1.327 . S
C567 C583 1.429 . S
C567 H589 0.950 . S
C568 H564 0.949 . S
C568 C576 1.574 . S
C568 C584 1.368 1_565 S
H569 C577 0.950 1_545 S
H570 C575 0.950 1_545 S
H571 C576 0.949 . S
H572 C578 0.950 1_565 S
H573 C579 0.950 1_565 S
H574 C580 0.949 . S
C575 H570 0.950 1_565 S
C575 C577 1.327 . S
C575 C581 1.429 . S
C576 C568 1.574 . S
C576 H571 0.949 . S
C576 C582 1.368 . S
C577 C561 1.349 . S
C577 H569 0.950 1_565 S
C577 C575 1.327 . S
C578 C566 1.349 . S
C578 H572 0.950 1_545 S
C578 C579 1.327 . S
C579 H573 0.950 1_545 S
C579 C578 1.327 . S
C579 C583 1.429 . S
C580 C563 1.574 . S
C580 H574 0.949 . S
C580 C584 1.368 . S
C581 C562 1.429 . S
C581 C575 1.429 . S
C581 C582 1.523 . S
C582 C563 1.368 1_565 S
C582 C576 1.368 . S
C582 C581 1.523 . S
C583 C567 1.429 . S
C583 C579 1.429 . S
C583 C584 1.523 . S
C584 C568 1.368 1_545 S
C584 C580 1.368 . S
C584 C583 1.523 . S
H585 C560 0.950 . S
H586 C562 0.950 . S
H587 C563 0.949 . S
H588 C565 0.950 . S
H589 C567 0.950 . S
C590 C591 1.349 . S
C590 C592 1.327 . S
C590 H615 0.950 . S
C591 C590 1.349 . S
C591 C607 1.349 . S
C592 C590 1.327 . S
C592 C611 1.429 . S
C592 H616 0.950 . S
C593 C610 1.574 . S
C593 C612 1.368 1_565 S
C593 H617 0.949 . S
H594 C598 0.949 . S
C595 C596 1.349 . S
C595 C597 1.327 . S
C595 H618 0.950 . S
C596 C595 1.349 . S
C596 C608 1.349 . S
C597 C595 1.327 . S
C597 C613 1.429 . S
C597 H619 0.950 . S
C598 H594 0.949 . S
C598 C606 1.574 . S
C598 C614 1.368 1_545 S
H599 C607 0.950 . S
H600 C605 0.950 . S
H601 C606 0.949 . S
H602 C608 0.950 . S
H603 C609 0.950 . S
H604 C610 0.949 . S
C605 H600 0.950 . S
C605 C607 1.327 . S
C605 C611 1.429 . S
C606 C598 1.574 . S
C606 H601 0.949 . S
C606 C612 1.368 . S
C607 C591 1.349 . S
C607 H599 0.950 . S
C607 C605 1.327 . S
C608 C596 1.349 . S
C608 H602 0.950 . S
C608 C609 1.327 . S
C609 H603 0.950 . S
C609 C608 1.327 . S
C609 C613 1.429 . S
C610 C593 1.574 . S
C610 H604 0.949 . S
C610 C614 1.368 . S
C611 C592 1.429 . S
C611 C605 1.429 . S
C611 C612 1.523 . S
C612 C593 1.368 1_545 S
C612 C606 1.368 . S
C612 C611 1.523 . S
C613 C597 1.429 . S
C613 C609 1.429 . S
C613 C614 1.523 . S
C614 C598 1.368 1_565 S
C614 C610 1.368 . S
C614 C613 1.523 . S
H615 C590 0.950 . S
H616 C592 0.950 . S
H617 C593 0.949 . S
H618 C595 0.950 . S
H619 C597 0.950 . S
C620 C621 1.349 . S
C620 C622 1.327 . S
C620 H645 0.950 . S
C621 C620 1.349 . S
C621 C637 1.349 . S
C622 C620 1.327 . S
C622 C641 1.429 . S
C622 H646 0.950 1_545 S
C623 C640 1.574 . S
C623 C642 1.368 . S
C623 H647 0.949 . S
H624 C628 0.949 . S
C625 C626 1.349 . S
C625 C627 1.327 . S
C625 H648 0.950 . S
C626 C625 1.349 . S
C626 C638 1.349 . S
C627 C625 1.327 . S
C627 C643 1.429 . S
C627 H649 0.950 1_565 S
C628 H624 0.949 . S
C628 C636 1.574 . S
C628 C644 1.368 . S
H629 C637 0.950 . S
H630 C635 0.950 . S
H631 C636 0.949 . S
H632 C638 0.950 . S
H633 C639 0.950 . S
H634 C640 0.949 . S
C635 H630 0.950 . S
C635 C637 1.327 . S
C635 C641 1.429 . S
C636 C628 1.574 . S
C636 H631 0.949 . S
C636 C642 1.368 1_565 S
C637 C621 1.349 . S
C637 H629 0.950 . S
C637 C635 1.327 . S
C638 C626 1.349 . S
C638 H632 0.950 . S
C638 C639 1.327 . S
C639 H633 0.950 . S
C639 C638 1.327 . S
C639 C643 1.429 . S
C640 C623 1.574 . S
C640 H634 0.949 . S
C640 C644 1.368 1_545 S
C641 C622 1.429 . S
C641 C635 1.429 . S
C641 C642 1.523 . S
C642 C623 1.368 . S
C642 C636 1.368 1_545 S
C642 C641 1.523 . S
C643 C627 1.429 . S
C643 C639 1.429 . S
C643 C644 1.523 . S
C644 C628 1.368 . S
C644 C640 1.368 1_565 S
C644 C643 1.523 . S
H645 C620 0.950 . S
H646 C622 0.950 1_565 S
H647 C623 0.949 . S
H648 C625 0.950 . S
H649 C627 0.950 1_545 S
C650 C651 1.349 . S
C650 C652 1.327 . S
C650 H675 0.950 . S
C651 C650 1.349 . S
C651 C667 1.349 . S
C652 C650 1.327 . S
C652 C671 1.429 . S
C652 H676 0.950 . S
C653 C670 1.574 . S
C653 C672 1.368 1_565 S
C653 H677 0.949 . S
H654 C658 0.949 . S
C655 C656 1.349 . S
C655 C657 1.327 . S
C655 H678 0.950 . S
C656 C655 1.349 . S
C656 C668 1.349 . S
C657 C655 1.327 . S
C657 C673 1.429 . S
C657 H679 0.950 . S
C658 H654 0.949 . S
C658 C666 1.574 . S
C658 C674 1.368 1_545 S
H659 C667 0.950 . S
H660 C665 0.950 1_565 S
H661 C666 0.949 . S
H662 C668 0.950 . S
H663 C669 0.950 1_545 S
H664 C670 0.949 . S
C665 H660 0.950 1_545 S
C665 C667 1.327 . S
C665 C671 1.429 . S
C666 C658 1.574 . S
C666 H661 0.949 . S
C666 C672 1.368 . S
C667 C651 1.349 . S
C667 H659 0.950 . S
C667 C665 1.327 . S
C668 C656 1.349 . S
C668 H662 0.950 . S
C668 C669 1.327 . S
C669 H663 0.950 1_565 S
C669 C668 1.327 . S
C669 C673 1.429 . S
C670 C653 1.574 . S
C670 H664 0.949 . S
C670 C674 1.368 . S
C671 C652 1.429 . S
C671 C665 1.429 . S
C671 C672 1.523 . S
C672 C653 1.368 1_545 S
C672 C666 1.368 . S
C672 C671 1.523 . S
C673 C657 1.429 . S
C673 C669 1.429 . S
C673 C674 1.523 . S
C674 C658 1.368 1_565 S
C674 C670 1.368 . S
C674 C673 1.523 . S
H675 C650 0.950 . S
H676 C652 0.950 . S
H677 C653 0.949 . S
H678 C655 0.950 . S
H679 C657 0.950 . S
C680 C681 1.349 . S
C680 C682 1.327 . S
C680 H705 0.950 . S
C681 C680 1.349 . S
C681 C697 1.349 . S
C682 C680 1.327 . S
C682 C701 1.429 . S
C682 H706 0.950 . S
C683 C700 1.574 . S
C683 C702 1.368 . S
C683 H707 0.949 . S
H684 C688 0.949 . S
C685 C686 1.349 . S
C685 C687 1.327 . S
C685 H708 0.950 . S
C686 C685 1.349 . S
C686 C698 1.349 . S
C687 C685 1.327 . S
C687 C703 1.429 . S
C687 H709 0.950 . S
C688 H684 0.949 . S
C688 C696 1.574 . S
C688 C704 1.368 . S
H689 C697 0.950 . S
H690 C695 0.950 . S
H691 C696 0.949 . S
H692 C698 0.950 . S
H693 C699 0.950 . S
H694 C700 0.949 . S
C695 H690 0.950 . S
C695 C697 1.327 . S
C695 C701 1.429 . S
C696 C688 1.574 . S
C696 H691 0.949 . S
C696 C702 1.368 . S
C697 C681 1.349 . S
C697 H689 0.950 . S
C697 C695 1.327 . S
C698 C686 1.349 . S
C698 H692 0.950 . S
C698 C699 1.327 . S
C699 H693 0.950 . S
C699 C698 1.327 . S
C699 C703 1.429 . S
C700 C683 1.574 . S
C700 H694 0.949 . S
C700 C704 1.368 . S
C701 C682 1.429 . S
C701 C695 1.429 . S
C701 C702 1.523 . S
C702 C683 1.368 . S
C702 C696 1.368 . S
C702 C701 1.523 . S
C703 C687 1.429 . S
C703 C699 1.429 . S
C703 C704 1.523 . S
C704 C688 1.368 . S
C704 C700 1.368 . S
C704 C703 1.523 . S
H705 C680 0.950 . S
H706 C682 0.950 . S
H707 C683 0.949 . S
H708 C685 0.950 . S
H709 C687 0.950 . S
C710 C711 1.349 . S
C710 C712 1.327 . S
C710 H735 0.950 . S
C711 C710 1.349 . S
C711 C727 1.349 . S
C712 C710 1.327 . S
C712 C731 1.429 . S
C712 H736 0.950 . S
C713 C730 1.574 . S
C713 C732 1.368 . S
C713 H737 0.949 . S
H714 C718 0.949 . S
C715 C716 1.349 . S
C715 C717 1.327 . S
C715 H738 0.950 . S
C716 C715 1.349 . S
C716 C728 1.349 . S
C717 C715 1.327 . S
C717 C733 1.429 . S
C717 H739 0.950 . S
C718 H714 0.949 . S
C718 C726 1.574 . S
C718 C734 1.368 . S
H719 C727 0.950 . S
H720 C725 0.950 . S
H721 C726 0.949 . S
H722 C728 0.950 . S
H723 C729 0.950 . S
H724 C730 0.949 . S
C725 H720 0.950 . S
C725 C727 1.327 . S
C725 C731 1.429 . S
C726 C718 1.574 . S
C726 H721 0.949 . S
C726 C732 1.368 . S
C727 C711 1.349 . S
C727 H719 0.950 . S
C727 C725 1.327 . S
C728 C716 1.349 . S
C728 H722 0.950 . S
C728 C729 1.327 . S
C729 H723 0.950 . S
C729 C728 1.327 . S
C729 C733 1.429 . S
C730 C713 1.574 . S
C730 H724 0.949 . S
C730 C734 1.368 . S
C731 C712 1.429 . S
C731 C725 1.429 . S
C731 C732 1.523 . S
C732 C713 1.368 . S
C732 C726 1.368 . S
C732 C731 1.523 . S
C733 C717 1.429 . S
C733 C729 1.429 . S
C733 C734 1.523 . S
C734 C718 1.368 . S
C734 C730 1.368 . S
C734 C733 1.523 . S
H735 C710 0.950 . S
H736 C712 0.950 . S
H737 C713 0.949 . S
H738 C715 0.950 . S
H739 C717 0.950 . S
C740 C741 1.349 . S
C740 C742 1.327 . S
C740 H765 0.950 . S
C741 C740 1.349 . S
C741 C757 1.349 . S
C742 C740 1.327 . S
C742 C761 1.429 . S
C742 H766 0.950 . S
C743 C760 1.574 . S
C743 C762 1.368 . S
C743 H767 0.949 . S
H744 C748 0.949 . S
C745 C746 1.349 . S
C745 C747 1.327 . S
C745 H768 0.950 . S
C746 C745 1.349 . S
C746 C758 1.349 . S
C747 C745 1.327 . S
C747 C763 1.429 . S
C747 H769 0.950 . S
C748 H744 0.949 . S
C748 C756 1.574 . S
C748 C764 1.368 . S
H749 C757 0.950 . S
H750 C755 0.950 . S
H751 C756 0.949 . S
H752 C758 0.950 . S
H753 C759 0.950 . S
H754 C760 0.949 . S
C755 H750 0.950 . S
C755 C757 1.327 . S
C755 C761 1.429 . S
C756 C748 1.574 . S
C756 H751 0.949 . S
C756 C762 1.368 . S
C757 C741 1.349 . S
C757 H749 0.950 . S
C757 C755 1.327 . S
C758 C746 1.349 . S
C758 H752 0.950 . S
C758 C759 1.327 . S
C759 H753 0.950 . S
C759 C758 1.327 . S
C759 C763 1.429 . S
C760 C743 1.574 . S
C760 H754 0.949 . S
C760 C764 1.368 . S
C761 C742 1.429 . S
C761 C755 1.429 . S
C761 C762 1.523 . S
C762 C743 1.368 . S
C762 C756 1.368 . S
C762 C761 1.523 . S
C763 C747 1.429 . S
C763 C759 1.429 . S
C763 C764 1.523 . S
C764 C748 1.368 . S
C764 C760 1.368 . S
C764 C763 1.523 . S
H765 C740 0.950 . S
H766 C742 0.950 . S
H767 C743 0.949 . S
H768 C745 0.950 . S
H769 C747 0.950 . S
C770 C771 1.349 . S
C770 C772 1.327 . S
C770 H795 0.950 . S
C771 C770 1.349 . S
C771 C787 1.349 . S
C772 C770 1.327 . S
C772 C791 1.429 . S
C772 H796 0.950 . S
C773 C790 1.574 . S
C773 C792 1.368 . S
C773 H797 0.949 . S
H774 C778 0.949 . S
C775 C776 1.349 . S
C775 C777 1.327 . S
C775 H798 0.950 . S
C776 C775 1.349 . S
C776 C788 1.349 . S
C777 C775 1.327 . S
C777 C793 1.429 . S
C777 H799 0.950 . S
C778 H774 0.949 . S
C778 C786 1.574 . S
C778 C794 1.368 . S
H779 C787 0.950 . S
H780 C785 0.950 . S
H781 C786 0.949 . S
H782 C788 0.950 . S
H783 C789 0.950 . S
H784 C790 0.949 . S
C785 H780 0.950 . S
C785 C787 1.327 . S
C785 C791 1.429 . S
C786 C778 1.574 . S
C786 H781 0.949 . S
C786 C792 1.368 . S
C787 C771 1.349 . S
C787 H779 0.950 . S
C787 C785 1.327 . S
C788 C776 1.349 . S
C788 H782 0.950 . S
C788 C789 1.327 . S
C789 H783 0.950 . S
C789 C788 1.327 . S
C789 C793 1.429 . S
C790 C773 1.574 . S
C790 H784 0.949 . S
C790 C794 1.368 . S
C791 C772 1.429 . S
C791 C785 1.429 . S
C791 C792 1.523 . S
C792 C773 1.368 . S
C792 C786 1.368 . S
C792 C791 1.523 . S
C793 C777 1.429 . S
C793 C789 1.429 . S
C793 C794 1.523 . S
C794 C778 1.368 . S
C794 C790 1.368 . S
C794 C793 1.523 . S
H795 C770 0.950 . S
H796 C772 0.950 . S
H797 C773 0.949 . S
H798 C775 0.950 . S
H799 C777 0.950 . S
C800 C801 1.349 . S
C800 C802 1.327 . S
C800 H825 0.950 . S
C801 C800 1.349 . S
C801 C817 1.349 . S
C802 C800 1.327 . S
C802 C821 1.429 . S
C802 H826 0.950 . S
C803 C820 1.574 1_556 S
C803 C822 1.368 . S
C803 H827 0.949 . S
H804 C808 0.949 . S
C805 C806 1.349 . S
C805 C807 1.327 . S
C805 H828 0.950 . S
C806 C805 1.349 . S
C806 C818 1.349 . S
C807 C805 1.327 . S
C807 C823 1.429 . S
C807 H829 0.950 . S
C808 H804 0.949 . S
C808 C816 1.574 1_554 S
C808 C824 1.368 . S
H809 C817 0.950 . S
H810 C815 0.950 . S
H811 C816 0.949 . S
H812 C818 0.950 . S
H813 C819 0.950 . S
H814 C820 0.949 . S
C815 H810 0.950 . S
C815 C817 1.327 . S
C815 C821 1.429 . S
C816 C808 1.574 1_556 S
C816 H811 0.949 . S
C816 C822 1.368 . S
C817 C801 1.349 . S
C817 H809 0.950 . S
C817 C815 1.327 . S
C818 C806 1.349 . S
C818 H812 0.950 . S
C818 C819 1.327 . S
C819 H813 0.950 . S
C819 C818 1.327 . S
C819 C823 1.429 . S
C820 C803 1.574 1_554 S
C820 H814 0.949 . S
C820 C824 1.368 . S
C821 C802 1.429 . S
C821 C815 1.429 . S
C821 C822 1.523 . S
C822 C803 1.368 . S
C822 C816 1.368 . S
C822 C821 1.523 . S
C823 C807 1.429 . S
C823 C819 1.429 . S
C823 C824 1.523 . S
C824 C808 1.368 . S
C824 C820 1.368 . S
C824 C823 1.523 . S
H825 C800 0.950 . S
H826 C802 0.950 . S
H827 C803 0.949 . S
H828 C805 0.950 . S
H829 C807 0.950 . S
C830 C831 1.349 . S
C830 C832 1.327 . S
C830 H855 0.950 . S
C831 C830 1.349 . S
C831 C847 1.349 . S
C832 C830 1.327 . S
C832 C851 1.429 . S
C832 H856 0.950 . S
C833 C850 1.574 1_556 S
C833 C852 1.368 . S
C833 H857 0.949 . S
H834 C838 0.949 . S
C835 C836 1.349 . S
C835 C837 1.327 . S
C835 H858 0.950 . S
C836 C835 1.349 . S
C836 C848 1.349 . S
C837 C835 1.327 . S
C837 C853 1.429 . S
C837 H859 0.950 . S
C838 H834 0.949 . S
C838 C846 1.574 1_554 S
C838 C854 1.368 . S
H839 C847 0.950 . S
H840 C845 0.950 . S
H841 C846 0.949 . S
H842 C848 0.950 . S
H843 C849 0.950 . S
H844 C850 0.949 . S
C845 H840 0.950 . S
C845 C847 1.327 . S
C845 C851 1.429 . S
C846 C838 1.574 1_556 S
C846 H841 0.949 . S
C846 C852 1.368 . S
C847 C831 1.349 . S
C847 H839 0.950 . S
C847 C845 1.327 . S
C848 C836 1.349 . S
C848 H842 0.950 . S
C848 C849 1.327 . S
C849 H843 0.950 . S
C849 C848 1.327 . S
C849 C853 1.429 . S
C850 C833 1.574 1_554 S
C850 H844 0.949 . S
C850 C854 1.368 . S
C851 C832 1.429 . S
C851 C845 1.429 . S
C851 C852 1.523 . S
C852 C833 1.368 . S
C852 C846 1.368 . S
C852 C851 1.523 . S
C853 C837 1.429 . S
C853 C849 1.429 . S
C853 C854 1.523 . S
C854 C838 1.368 . S
C854 C850 1.368 . S
C854 C853 1.523 . S
H855 C830 0.950 . S
H856 C832 0.950 . S
H857 C833 0.949 . S
H858 C835 0.950 . S
H859 C837 0.950 . S
C860 C861 1.349 . S
C860 C862 1.327 . S
C860 H885 0.950 . S
C861 C860 1.349 . S
C861 C877 1.349 . S
C862 C860 1.327 . S
C862 C881 1.429 . S
C862 H886 0.950 . S
C863 C880 1.574 . S
C863 C882 1.368 . S
C863 H887 0.949 . S
H864 C868 0.949 . S
C865 C866 1.349 . S
C865 C867 1.327 . S
C865 H888 0.950 . S
C866 C865 1.349 . S
C866 C878 1.349 . S
C867 C865 1.327 . S
C867 C883 1.429 . S
C867 H889 0.950 . S
C868 H864 0.949 . S
C868 C876 1.574 . S
C868 C884 1.368 . S
H869 C877 0.950 . S
H870 C875 0.950 . S
H871 C876 0.949 . S
H872 C878 0.950 . S
H873 C879 0.950 . S
H874 C880 0.949 . S
C875 H870 0.950 . S
C875 C877 1.327 . S
C875 C881 1.429 . S
C876 C868 1.574 . S
C876 H871 0.949 . S
C876 C882 1.368 . S
C877 C861 1.349 . S
C877 H869 0.950 . S
C877 C875 1.327 . S
C878 C866 1.349 . S
C878 H872 0.950 . S
C878 C879 1.327 . S
C879 H873 0.950 . S
C879 C878 1.327 . S
C879 C883 1.429 . S
C880 C863 1.574 . S
C880 H874 0.949 . S
C880 C884 1.368 . S
C881 C862 1.429 . S
C881 C875 1.429 . S
C881 C882 1.523 . S
C882 C863 1.368 . S
C882 C876 1.368 . S
C882 C881 1.523 . S
C883 C867 1.429 . S
C883 C879 1.429 . S
C883 C884 1.523 . S
C884 C868 1.368 . S
C884 C880 1.368 . S
C884 C883 1.523 . S
H885 C860 0.950 . S
H886 C862 0.950 . S
H887 C863 0.949 . S
H888 C865 0.950 . S
H889 C867 0.950 . S
C890 C891 1.349 . S
C890 C892 1.327 . S
C890 H915 0.950 . S
C891 C890 1.349 . S
C891 C907 1.349 . S
C892 C890 1.327 . S
C892 C911 1.429 . S
C892 H916 0.950 . S
C893 C910 1.574 . S
C893 C912 1.368 . S
C893 H917 0.949 . S
H894 C898 0.949 . S
C895 C896 1.349 . S
C895 C897 1.327 . S
C895 H918 0.950 . S
C896 C895 1.349 . S
C896 C908 1.349 . S
C897 C895 1.327 . S
C897 C913 1.429 . S
C897 H919 0.950 . S
C898 H894 0.949 . S
C898 C906 1.574 . S
C898 C914 1.368 . S
H899 C907 0.950 . S
H900 C905 0.950 . S
H901 C906 0.949 . S
H902 C908 0.950 . S
H903 C909 0.950 . S
H904 C910 0.949 . S
C905 H900 0.950 . S
C905 C907 1.327 . S
C905 C911 1.429 . S
C906 C898 1.574 . S
C906 H901 0.949 . S
C906 C912 1.368 . S
C907 C891 1.349 . S
C907 H899 0.950 . S
C907 C905 1.327 . S
C908 C896 1.349 . S
C908 H902 0.950 . S
C908 C909 1.327 . S
C909 H903 0.950 . S
C909 C908 1.327 . S
C909 C913 1.429 . S
C910 C893 1.574 . S
C910 H904 0.949 . S
C910 C914 1.368 . S
C911 C892 1.429 . S
C911 C905 1.429 . S
C911 C912 1.523 . S
C912 C893 1.368 . S
C912 C906 1.368 . S
C912 C911 1.523 . S
C913 C897 1.429 . S
C913 C909 1.429 . S
C913 C914 1.523 . S
C914 C898 1.368 . S
C914 C910 1.368 . S
C914 C913 1.523 . S
H915 C890 0.950 . S
H916 C892 0.950 . S
H917 C893 0.949 . S
H918 C895 0.950 . S
H919 C897 0.950 . S
C920 C921 1.349 . S
C920 C922 1.327 . S
C920 H945 0.950 . S
C921 C920 1.349 . S
C921 C937 1.349 . S
C922 C920 1.327 . S
C922 C941 1.429 . S
C922 H946 0.950 . S
C923 C940 1.574 1_554 S
C923 C942 1.368 . S
C923 H947 0.949 . S
H924 C928 0.949 . S
C925 C926 1.349 . S
C925 C927 1.327 . S
C925 H948 0.950 . S
C926 C925 1.349 . S
C926 C938 1.349 . S
C927 C925 1.327 . S
C927 C943 1.429 . S
C927 H949 0.950 . S
C928 H924 0.949 . S
C928 C936 1.574 1_556 S
C928 C944 1.368 . S
H929 C937 0.950 . S
H930 C935 0.950 . S
H931 C936 0.949 . S
H932 C938 0.950 . S
H933 C939 0.950 . S
H934 C940 0.949 . S
C935 H930 0.950 . S
C935 C937 1.327 . S
C935 C941 1.429 . S
C936 C928 1.574 1_554 S
C936 H931 0.949 . S
C936 C942 1.368 . S
C937 C921 1.349 . S
C937 H929 0.950 . S
C937 C935 1.327 . S
C938 C926 1.349 . S
C938 H932 0.950 . S
C938 C939 1.327 . S
C939 H933 0.950 . S
C939 C938 1.327 . S
C939 C943 1.429 . S
C940 C923 1.574 1_556 S
C940 H934 0.949 . S
C940 C944 1.368 . S
C941 C922 1.429 . S
C941 C935 1.429 . S
C941 C942 1.523 . S
C942 C923 1.368 . S
C942 C936 1.368 . S
C942 C941 1.523 . S
C943 C927 1.429 . S
C943 C939 1.429 . S
C943 C944 1.523 . S
C944 C928 1.368 . S
C944 C940 1.368 . S
C944 C943 1.523 . S
H945 C920 0.950 . S
H946 C922 0.950 . S
H947 C923 0.949 . S
H948 C925 0.950 . S
H949 C927 0.950 . S
C950 C951 1.349 . S
C950 C952 1.327 . S
C950 H975 0.950 . S
C951 C950 1.349 . S
C951 C967 1.349 . S
C952 C950 1.327 . S
C952 C971 1.429 . S
C952 H976 0.950 . S
C953 C970 1.574 1_556 S
C953 C972 1.368 . S
C953 H977 0.949 . S
H954 C958 0.949 . S
C955 C956 1.349 . S
C955 C957 1.327 . S
C955 H978 0.950 . S
C956 C955 1.349 . S
C956 C968 1.349 . S
C957 C955 1.327 . S
C957 C973 1.429 . S
C957 H979 0.950 . S
C958 H954 0.949 . S
C958 C966 1.574 1_554 S
C958 C974 1.368 . S
H959 C967 0.950 . S
H960 C965 0.950 . S
H961 C966 0.949 . S
H962 C968 0.950 . S
H963 C969 0.950 . S
H964 C970 0.949 . S
C965 H960 0.950 . S
C965 C967 1.327 . S
C965 C971 1.429 . S
C966 C958 1.574 1_556 S
C966 H961 0.949 . S
C966 C972 1.368 . S
C967 C951 1.349 . S
C967 H959 0.950 . S
C967 C965 1.327 . S
C968 C956 1.349 . S
C968 H962 0.950 . S
C968 C969 1.327 . S
C969 H963 0.950 . S
C969 C968 1.327 . S
C969 C973 1.429 . S
C970 C953 1.574 1_554 S
C970 H964 0.949 . S
C970 C974 1.368 . S
C971 C952 1.429 . S
C971 C965 1.429 . S
C971 C972 1.523 . S
C972 C953 1.368 . S
C972 C966 1.368 . S
C972 C971 1.523 . S
C973 C957 1.429 . S
C973 C969 1.429 . S
C973 C974 1.523 . S
C974 C958 1.368 . S
C974 C970 1.368 . S
C974 C973 1.523 . S
H975 C950 0.950 . S
H976 C952 0.950 . S
H977 C953 0.949 . S
H978 C955 0.950 . S
H979 C957 0.950 . S
C980 C981 1.349 . S
C980 C982 1.327 . S
C980 H1005 0.950 . S
C981 C980 1.349 . S
C981 C997 1.349 . S
C982 C980 1.327 . S
C982 C1001 1.429 . S
C982 H1006 0.950 . S
C983 C1000 1.574 . S
C983 C1002 1.368 . S
C983 H1007 0.949 . S
H984 C988 0.949 . S
C985 C986 1.349 . S
C985 C987 1.327 . S
C985 H1008 0.950 . S
C986 C985 1.349 . S
C986 C998 1.349 . S
C987 C985 1.327 . S
C987 C1003 1.429 . S
C987 H1009 0.950 . S
C988 H984 0.949 . S
C988 C996 1.574 . S
C988 C1004 1.368 . S
H989 C997 0.950 . S
H990 C995 0.950 . S
H991 C996 0.949 . S
H992 C998 0.950 . S
H993 C999 0.950 . S
H994 C1000 0.949 . S
C995 H990 0.950 . S
C995 C997 1.327 . S
C995 C1001 1.429 . S
C996 C988 1.574 . S
C996 H991 0.949 . S
C996 C1002 1.368 . S
C997 C981 1.349 . S
C997 H989 0.950 . S
C997 C995 1.327 . S
C998 C986 1.349 . S
C998 H992 0.950 . S
C998 C999 1.327 . S
C999 H993 0.950 . S
C999 C998 1.327 . S
C999 C1003 1.429 . S
C1000 C983 1.574 . S
C1000 H994 0.949 . S
C1000 C1004 1.368 . S
C1001 C982 1.429 . S
C1001 C995 1.429 . S
C1001 C1002 1.523 . S
C1002 C983 1.368 . S
C1002 C996 1.368 . S
C1002 C1001 1.523 . S
C1003 C987 1.429 . S
C1003 C999 1.429 . S
C1003 C1004 1.523 . S
C1004 C988 1.368 . S
C1004 C1000 1.368 . S
C1004 C1003 1.523 . S
H1005 C980 0.950 . S
H1006 C982 0.950 . S
H1007 C983 0.949 . S
H1008 C985 0.950 . S
H1009 C987 0.950 . S
C1010 C1011 1.349 . S
C1010 C1012 1.327 . S
C1010 H1035 0.950 . S
C1011 C1010 1.349 . S
C1011 C1027 1.349 . S
C1012 C1010 1.327 . S
C1012 C1031 1.429 . S
C1012 H1036 0.950 . S
C1013 C1030 1.574 . S
C1013 C1032 1.368 . S
C1013 H1037 0.949 . S
H1014 C1018 0.949 . S
C1015 C1016 1.349 . S
C1015 C1017 1.327 . S
C1015 H1038 0.950 . S
C1016 C1015 1.349 . S
C1016 C1028 1.349 . S
C1017 C1015 1.327 . S
C1017 C1033 1.429 . S
C1017 H1039 0.950 . S
C1018 H1014 0.949 . S
C1018 C1026 1.574 . S
C1018 C1034 1.368 . S
H1019 C1027 0.950 . S
H1020 C1025 0.950 . S
H1021 C1026 0.949 . S
H1022 C1028 0.950 . S
H1023 C1029 0.950 . S
H1024 C1030 0.949 . S
C1025 H1020 0.950 . S
C1025 C1027 1.327 . S
C1025 C1031 1.429 . S
C1026 C1018 1.574 . S
C1026 H1021 0.949 . S
C1026 C1032 1.368 . S
C1027 C1011 1.349 . S
C1027 H1019 0.950 . S
C1027 C1025 1.327 . S
C1028 C1016 1.349 . S
C1028 H1022 0.950 . S
C1028 C1029 1.327 . S
C1029 H1023 0.950 . S
C1029 C1028 1.327 . S
C1029 C1033 1.429 . S
C1030 C1013 1.574 . S
C1030 H1024 0.949 . S
C1030 C1034 1.368 . S
C1031 C1012 1.429 . S
C1031 C1025 1.429 . S
C1031 C1032 1.523 . S
C1032 C1013 1.368 . S
C1032 C1026 1.368 . S
C1032 C1031 1.523 . S
C1033 C1017 1.429 . S
C1033 C1029 1.429 . S
C1033 C1034 1.523 . S
C1034 C1018 1.368 . S
C1034 C1030 1.368 . S
C1034 C1033 1.523 . S
H1035 C1010 0.950 . S
H1036 C1012 0.950 . S
H1037 C1013 0.949 . S
H1038 C1015 0.950 . S
H1039 C1017 0.950 . S
C1040 C1041 1.349 . S
C1040 C1042 1.327 . S
C1040 H1065 0.950 . S
C1041 C1040 1.349 . S
C1041 C1057 1.349 1_565 S
C1042 C1040 1.327 . S
C1042 C1061 1.429 . S
C1042 H1066 0.950 . S
C1043 C1060 1.574 1_655 S
C1043 C1062 1.368 1_545 S
C1043 H1067 0.949 . S
H1044 C1048 0.949 . S
C1045 C1046 1.349 . S
C1045 C1047 1.327 . S
C1045 H1068 0.950 . S
C1046 C1045 1.349 . S
C1046 C1058 1.349 1_545 S
C1047 C1045 1.327 . S
C1047 C1063 1.429 . S
C1047 H1069 0.950 . S
C1048 H1044 0.949 . S
C1048 C1056 1.574 1_455 S
C1048 C1064 1.368 1_565 S
H1049 C1057 0.950 . S
H1050 C1055 0.950 . S
H1051 C1056 0.949 . S
H1052 C1058 0.950 . S
H1053 C1059 0.950 . S
H1054 C1060 0.949 . S
C1055 H1050 0.950 . S
C1055 C1057 1.327 . S
C1055 C1061 1.429 1_545 S
C1056 C1048 1.574 1_655 S
C1056 H1051 0.949 . S
C1056 C1062 1.368 . S
C1057 C1041 1.349 1_545 S
C1057 H1049 0.950 . S
C1057 C1055 1.327 . S
C1058 C1046 1.349 1_565 S
C1058 H1052 0.950 . S
C1058 C1059 1.327 . S
C1059 H1053 0.950 . S
C1059 C1058 1.327 . S
C1059 C1063 1.429 1_565 S
C1060 C1043 1.574 1_455 S
C1060 H1054 0.949 . S
C1060 C1064 1.368 . S
C1061 C1042 1.429 . S
C1061 C1055 1.429 1_565 S
C1061 C1062 1.523 . S
C1062 C1043 1.368 1_565 S
C1062 C1056 1.368 . S
C1062 C1061 1.523 . S
C1063 C1047 1.429 . S
C1063 C1059 1.429 1_545 S
C1063 C1064 1.523 . S
C1064 C1048 1.368 1_545 S
C1064 C1060 1.368 . S
C1064 C1063 1.523 . S
H1065 C1040 0.950 . S
H1066 C1042 0.950 . S
H1067 C1043 0.949 . S
H1068 C1045 0.950 . S
H1069 C1047 0.950 . S
C1070 C1071 1.349 . S
C1070 C1072 1.327 . S
C1070 H1095 0.950 . S
C1071 C1070 1.349 . S
C1071 C1087 1.349 1_545 S
C1072 C1070 1.327 . S
C1072 C1091 1.429 . S
C1072 H1096 0.950 . S
C1073 C1090 1.574 1_655 S
C1073 C1092 1.368 1_565 S
C1073 H1097 0.949 . S
H1074 C1078 0.949 . S
C1075 C1076 1.349 . S
C1075 C1077 1.327 . S
C1075 H1098 0.950 . S
C1076 C1075 1.349 . S
C1076 C1088 1.349 1_565 S
C1077 C1075 1.327 . S
C1077 C1093 1.429 . S
C1077 H1099 0.950 . S
C1078 H1074 0.949 . S
C1078 C1086 1.574 1_455 S
C1078 C1094 1.368 1_545 S
H1079 C1087 0.950 . S
H1080 C1085 0.950 . S
H1081 C1086 0.949 . S
H1082 C1088 0.950 . S
H1083 C1089 0.950 . S
H1084 C1090 0.949 . S
C1085 H1080 0.950 . S
C1085 C1087 1.327 . S
C1085 C1091 1.429 1_565 S
C1086 C1078 1.574 1_655 S
C1086 H1081 0.949 . S
C1086 C1092 1.368 . S
C1087 C1071 1.349 1_565 S
C1087 H1079 0.950 . S
C1087 C1085 1.327 . S
C1088 C1076 1.349 1_545 S
C1088 H1082 0.950 . S
C1088 C1089 1.327 . S
C1089 H1083 0.950 . S
C1089 C1088 1.327 . S
C1089 C1093 1.429 1_545 S
C1090 C1073 1.574 1_455 S
C1090 H1084 0.949 . S
C1090 C1094 1.368 . S
C1091 C1072 1.429 . S
C1091 C1085 1.429 1_545 S
C1091 C1092 1.523 . S
C1092 C1073 1.368 1_545 S
C1092 C1086 1.368 . S
C1092 C1091 1.523 . S
C1093 C1077 1.429 . S
C1093 C1089 1.429 1_565 S
C1093 C1094 1.523 . S
C1094 C1078 1.368 1_565 S
C1094 C1090 1.368 . S
C1094 C1093 1.523 . S
H1095 C1070 0.950 . S
H1096 C1072 0.950 . S
H1097 C1073 0.949 . S
H1098 C1075 0.950 . S
H1099 C1077 0.950 . S
C1100 C1101 1.349 . S
C1100 C1102 1.327 . S
C1100 H1125 0.950 . S
C1101 C1100 1.349 . S
C1101 C1117 1.349 1_545 S
C1102 C1100 1.327 . S
C1102 C1121 1.429 . S
C1102 H1126 0.950 . S
C1103 C1120 1.574 1_455 S
C1103 C1122 1.368 1_565 S
C1103 H1127 0.949 . S
H1104 C1108 0.949 . S
C1105 C1106 1.349 . S
C1105 C1107 1.327 . S
C1105 H1128 0.950 . S
C1106 C1105 1.349 . S
C1106 C1118 1.349 1_565 S
C1107 C1105 1.327 . S
C1107 C1123 1.429 . S
C1107 H1129 0.950 . S
C1108 H1104 0.949 . S
C1108 C1116 1.574 1_655 S
C1108 C1124 1.368 1_545 S
H1109 C1117 0.950 . S
H1110 C1115 0.950 . S
H1111 C1116 0.949 . S
H1112 C1118 0.950 . S
H1113 C1119 0.950 . S
H1114 C1120 0.949 . S
C1115 H1110 0.950 . S
C1115 C1117 1.327 . S
C1115 C1121 1.429 1_565 S
C1116 C1108 1.574 1_455 S
C1116 H1111 0.949 . S
C1116 C1122 1.368 . S
C1117 C1101 1.349 1_565 S
C1117 H1109 0.950 . S
C1117 C1115 1.327 . S
C1118 C1106 1.349 1_545 S
C1118 H1112 0.950 . S
C1118 C1119 1.327 . S
C1119 H1113 0.950 . S
C1119 C1118 1.327 . S
C1119 C1123 1.429 1_545 S
C1120 C1103 1.574 1_655 S
C1120 H1114 0.949 . S
C1120 C1124 1.368 . S
C1121 C1102 1.429 . S
C1121 C1115 1.429 1_545 S
C1121 C1122 1.523 . S
C1122 C1103 1.368 1_545 S
C1122 C1116 1.368 . S
C1122 C1121 1.523 . S
C1123 C1107 1.429 . S
C1123 C1119 1.429 1_565 S
C1123 C1124 1.523 . S
C1124 C1108 1.368 1_565 S
C1124 C1120 1.368 . S
C1124 C1123 1.523 . S
H1125 C1100 0.950 . S
H1126 C1102 0.950 . S
H1127 C1103 0.949 . S
H1128 C1105 0.950 . S
H1129 C1107 0.950 . S
C1130 C1131 1.349 . S
C1130 C1132 1.327 . S
C1130 H1155 0.950 . S
C1131 C1130 1.349 . S
C1131 C1147 1.349 1_545 S
C1132 C1130 1.327 . S
C1132 C1151 1.429 . S
C1132 H1156 0.950 . S
C1133 C1150 1.574 1_655 S
C1133 C1152 1.368 1_565 S
C1133 H1157 0.949 . S
H1134 C1138 0.949 . S
C1135 C1136 1.349 . S
C1135 C1137 1.327 . S
C1135 H1158 0.950 . S
C1136 C1135 1.349 . S
C1136 C1148 1.349 1_565 S
C1137 C1135 1.327 . S
C1137 C1153 1.429 . S
C1137 H1159 0.950 . S
C1138 H1134 0.949 . S
C1138 C1146 1.574 1_455 S
C1138 C1154 1.368 1_545 S
H1139 C1147 0.950 . S
H1140 C1145 0.950 . S
H1141 C1146 0.949 . S
H1142 C1148 0.950 . S
H1143 C1149 0.950 . S
H1144 C1150 0.949 . S
C1145 H1140 0.950 . S
C1145 C1147 1.327 . S
C1145 C1151 1.429 1_565 S
C1146 C1138 1.574 1_655 S
C1146 H1141 0.949 . S
C1146 C1152 1.368 . S
C1147 C1131 1.349 1_565 S
C1147 H1139 0.950 . S
C1147 C1145 1.327 . S
C1148 C1136 1.349 1_545 S
C1148 H1142 0.950 . S
C1148 C1149 1.327 . S
C1149 H1143 0.950 . S
C1149 C1148 1.327 . S
C1149 C1153 1.429 1_545 S
C1150 C1133 1.574 1_455 S
C1150 H1144 0.949 . S
C1150 C1154 1.368 . S
C1151 C1132 1.429 . S
C1151 C1145 1.429 1_545 S
C1151 C1152 1.523 . S
C1152 C1133 1.368 1_545 S
C1152 C1146 1.368 . S
C1152 C1151 1.523 . S
C1153 C1137 1.429 . S
C1153 C1149 1.429 1_565 S
C1153 C1154 1.523 . S
C1154 C1138 1.368 1_565 S
C1154 C1150 1.368 . S
C1154 C1153 1.523 . S
H1155 C1130 0.950 . S
H1156 C1132 0.950 . S
H1157 C1133 0.949 . S
H1158 C1135 0.950 . S
H1159 C1137 0.950 . S
C1160 C1161 1.349 . S
C1160 C1162 1.327 . S
C1160 H1185 0.950 . S
C1161 C1160 1.349 . S
C1161 C1177 1.349 . S
C1162 C1160 1.327 . S
C1162 C1181 1.429 . S
C1162 H1186 0.950 . S
C1163 C1180 1.574 . S
C1163 C1182 1.368 . S
C1163 H1187 0.949 . S
H1164 C1168 0.949 . S
C1165 C1166 1.349 . S
C1165 C1167 1.327 . S
C1165 H1188 0.950 . S
C1166 C1165 1.349 . S
C1166 C1178 1.349 . S
C1167 C1165 1.327 . S
C1167 C1183 1.429 . S
C1167 H1189 0.950 . S
C1168 H1164 0.949 . S
C1168 C1176 1.574 . S
C1168 C1184 1.368 . S
H1169 C1177 0.950 . S
H1170 C1175 0.950 . S
H1171 C1176 0.949 . S
H1172 C1178 0.950 . S
H1173 C1179 0.950 . S
H1174 C1180 0.949 . S
C1175 H1170 0.950 . S
C1175 C1177 1.327 . S
C1175 C1181 1.429 . S
C1176 C1168 1.574 . S
C1176 H1171 0.949 . S
C1176 C1182 1.368 . S
C1177 C1161 1.349 . S
C1177 H1169 0.950 . S
C1177 C1175 1.327 . S
C1178 C1166 1.349 . S
C1178 H1172 0.950 . S
C1178 C1179 1.327 . S
C1179 H1173 0.950 . S
C1179 C1178 1.327 . S
C1179 C1183 1.429 . S
C1180 C1163 1.574 . S
C1180 H1174 0.949 . S
C1180 C1184 1.368 . S
C1181 C1162 1.429 . S
C1181 C1175 1.429 . S
C1181 C1182 1.523 . S
C1182 C1163 1.368 . S
C1182 C1176 1.368 . S
C1182 C1181 1.523 . S
C1183 C1167 1.429 . S
C1183 C1179 1.429 . S
C1183 C1184 1.523 . S
C1184 C1168 1.368 . S
C1184 C1180 1.368 . S
C1184 C1183 1.523 . S
H1185 C1160 0.950 . S
H1186 C1162 0.950 . S
H1187 C1163 0.949 . S
H1188 C1165 0.950 . S
H1189 C1167 0.950 . S
C1190 C1191 1.349 . S
C1190 C1192 1.327 . S
C1190 H1215 0.950 . S
C1191 C1190 1.349 . S
C1191 C1207 1.349 . S
C1192 C1190 1.327 . S
C1192 C1211 1.429 . S
C1192 H1216 0.950 . S
C1193 C1210 1.574 . S
C1193 C1212 1.368 . S
C1193 H1217 0.949 . S
H1194 C1198 0.949 . S
C1195 C1196 1.349 . S
C1195 C1197 1.327 . S
C1195 H1218 0.950 . S
C1196 C1195 1.349 . S
C1196 C1208 1.349 . S
C1197 C1195 1.327 . S
C1197 C1213 1.429 . S
C1197 H1219 0.950 . S
C1198 H1194 0.949 . S
C1198 C1206 1.574 . S
C1198 C1214 1.368 . S
H1199 C1207 0.950 . S
H1200 C1205 0.950 . S
H1201 C1206 0.949 . S
H1202 C1208 0.950 . S
H1203 C1209 0.950 . S
H1204 C1210 0.949 . S
C1205 H1200 0.950 . S
C1205 C1207 1.327 . S
C1205 C1211 1.429 . S
C1206 C1198 1.574 . S
C1206 H1201 0.949 . S
C1206 C1212 1.368 . S
C1207 C1191 1.349 . S
C1207 H1199 0.950 . S
C1207 C1205 1.327 . S
C1208 C1196 1.349 . S
C1208 H1202 0.950 . S
C1208 C1209 1.327 . S
C1209 H1203 0.950 . S
C1209 C1208 1.327 . S
C1209 C1213 1.429 . S
C1210 C1193 1.574 . S
C1210 H1204 0.949 . S
C1210 C1214 1.368 . S
C1211 C1192 1.429 . S
C1211 C1205 1.429 . S
C1211 C1212 1.523 . S
C1212 C1193 1.368 . S
C1212 C1206 1.368 . S
C1212 C1211 1.523 . S
C1213 C1197 1.429 . S
C1213 C1209 1.429 . S
C1213 C1214 1.523 . S
C1214 C1198 1.368 . S
C1214 C1210 1.368 . S
C1214 C1213 1.523 . S
H1215 C1190 0.950 . S
H1216 C1192 0.950 . S
H1217 C1193 0.949 . S
H1218 C1195 0.950 . S
H1219 C1197 0.950 . S
C1220 C1221 1.349 . S
C1220 C1222 1.327 . S
C1220 H1245 0.950 . S
C1221 C1220 1.349 . S
C1221 C1237 1.349 . S
C1222 C1220 1.327 . S
C1222 C1241 1.429 . S
C1222 H1246 0.950 . S
C1223 C1240 1.574 . S
C1223 C1242 1.368 . S
C1223 H1247 0.949 . S
H1224 C1228 0.949 . S
C1225 C1226 1.349 . S
C1225 C1227 1.327 . S
C1225 H1248 0.950 . S
C1226 C1225 1.349 . S
C1226 C1238 1.349 . S
C1227 C1225 1.327 . S
C1227 C1243 1.429 . S
C1227 H1249 0.950 . S
C1228 H1224 0.949 . S
C1228 C1236 1.574 . S
C1228 C1244 1.368 . S
H1229 C1237 0.950 . S
H1230 C1235 0.950 . S
H1231 C1236 0.949 . S
H1232 C1238 0.950 . S
H1233 C1239 0.950 . S
H1234 C1240 0.949 . S
C1235 H1230 0.950 . S
C1235 C1237 1.327 . S
C1235 C1241 1.429 . S
C1236 C1228 1.574 . S
C1236 H1231 0.949 . S
C1236 C1242 1.368 . S
C1237 C1221 1.349 . S
C1237 H1229 0.950 . S
C1237 C1235 1.327 . S
C1238 C1226 1.349 . S
C1238 H1232 0.950 . S
C1238 C1239 1.327 . S
C1239 H1233 0.950 . S
C1239 C1238 1.327 . S
C1239 C1243 1.429 . S
C1240 C1223 1.574 . S
C1240 H1234 0.949 . S
C1240 C1244 1.368 . S
C1241 C1222 1.429 . S
C1241 C1235 1.429 . S
C1241 C1242 1.523 . S
C1242 C1223 1.368 . S
C1242 C1236 1.368 . S
C1242 C1241 1.523 . S
C1243 C1227 1.429 . S
C1243 C1239 1.429 . S
C1243 C1244 1.523 . S
C1244 C1228 1.368 . S
C1244 C1240 1.368 . S
C1244 C1243 1.523 . S
H1245 C1220 0.950 . S
H1246 C1222 0.950 . S
H1247 C1223 0.949 . S
H1248 C1225 0.950 . S
H1249 C1227 0.950 . S
C1250 C1251 1.349 . S
C1250 C1252 1.327 . S
C1250 H1275 0.950 . S
C1251 C1250 1.349 . S
C1251 C1267 1.349 . S
C1252 C1250 1.327 . S
C1252 C1271 1.429 . S
C1252 H1276 0.950 . S
C1253 C1270 1.574 . S
C1253 C1272 1.368 . S
C1253 H1277 0.949 . S
H1254 C1258 0.949 . S
C1255 C1256 1.349 . S
C1255 C1257 1.327 . S
C1255 H1278 0.950 . S
C1256 C1255 1.349 . S
C1256 C1268 1.349 . S
C1257 C1255 1.327 . S
C1257 C1273 1.429 . S
C1257 H1279 0.950 . S
C1258 H1254 0.949 . S
C1258 C1266 1.574 . S
C1258 C1274 1.368 . S
H1259 C1267 0.950 . S
H1260 C1265 0.950 . S
H1261 C1266 0.949 . S
H1262 C1268 0.950 . S
H1263 C1269 0.950 . S
H1264 C1270 0.949 . S
C1265 H1260 0.950 . S
C1265 C1267 1.327 . S
C1265 C1271 1.429 . S
C1266 C1258 1.574 . S
C1266 H1261 0.949 . S
C1266 C1272 1.368 . S
C1267 C1251 1.349 . S
C1267 H1259 0.950 . S
C1267 C1265 1.327 . S
C1268 C1256 1.349 . S
C1268 H1262 0.950 . S
C1268 C1269 1.327 . S
C1269 H1263 0.950 . S
C1269 C1268 1.327 . S
C1269 C1273 1.429 . S
C1270 C1253 1.574 . S
C1270 H1264 0.949 . S
C1270 C1274 1.368 . S
C1271 C1252 1.429 . S
C1271 C1265 1.429 . S
C1271 C1272 1.523 . S
C1272 C1253 1.368 . S
C1272 C1266 1.368 . S
C1272 C1271 1.523 . S
C1273 C1257 1.429 . S
C1273 C1269 1.429 . S
C1273 C1274 1.523 . S
C1274 C1258 1.368 . S
C1274 C1270 1.368 . S
C1274 C1273 1.523 . S
H1275 C1250 0.950 . S
H1276 C1252 0.950 . S
H1277 C1253 0.949 . S
H1278 C1255 0.950 . S
H1279 C1257 0.950 . S
C1280 C1281 1.349 . S
C1280 C1282 1.327 . S
C1280 H1305 0.950 . S
C1281 C1280 1.349 . S
C1281 C1297 1.349 . S
C1282 C1280 1.327 . S
C1282 C1301 1.429 . S
C1282 H1306 0.950 . S
C1283 C1300 1.574 . S
C1283 C1302 1.368 . S
C1283 H1307 0.949 . S
H1284 C1288 0.949 . S
C1285 C1286 1.349 . S
C1285 C1287 1.327 . S
C1285 H1308 0.950 . S
C1286 C1285 1.349 . S
C1286 C1298 1.349 . S
C1287 C1285 1.327 . S
C1287 C1303 1.429 . S
C1287 H1309 0.950 . S
C1288 H1284 0.949 . S
C1288 C1296 1.574 . S
C1288 C1304 1.368 . S
H1289 C1297 0.950 . S
H1290 C1295 0.950 . S
H1291 C1296 0.949 . S
H1292 C1298 0.950 . S
H1293 C1299 0.950 . S
H1294 C1300 0.949 . S
C1295 H1290 0.950 . S
C1295 C1297 1.327 . S
C1295 C1301 1.429 . S
C1296 C1288 1.574 . S
C1296 H1291 0.949 . S
C1296 C1302 1.368 . S
C1297 C1281 1.349 . S
C1297 H1289 0.950 . S
C1297 C1295 1.327 . S
C1298 C1286 1.349 . S
C1298 H1292 0.950 . S
C1298 C1299 1.327 . S
C1299 H1293 0.950 . S
C1299 C1298 1.327 . S
C1299 C1303 1.429 . S
C1300 C1283 1.574 . S
C1300 H1294 0.949 . S
C1300 C1304 1.368 . S
C1301 C1282 1.429 . S
C1301 C1295 1.429 . S
C1301 C1302 1.523 . S
C1302 C1283 1.368 . S
C1302 C1296 1.368 . S
C1302 C1301 1.523 . S
C1303 C1287 1.429 . S
C1303 C1299 1.429 . S
C1303 C1304 1.523 . S
C1304 C1288 1.368 . S
C1304 C1300 1.368 . S
C1304 C1303 1.523 . S
H1305 C1280 0.950 . S
H1306 C1282 0.950 . S
H1307 C1283 0.949 . S
H1308 C1285 0.950 . S
H1309 C1287 0.950 . S
C1310 C1311 1.349 . S
C1310 C1312 1.327 . S
C1310 H1335 0.950 . S
C1311 C1310 1.349 . S
C1311 C1327 1.349 . S
C1312 C1310 1.327 . S
C1312 C1331 1.429 . S
C1312 H1336 0.950 . S
C1313 C1330 1.574 . S
C1313 C1332 1.368 . S
C1313 H1337 0.949 . S
H1314 C1318 0.949 . S
C1315 C1316 1.349 . S
C1315 C1317 1.327 . S
C1315 H1338 0.950 . S
C1316 C1315 1.349 . S
C1316 C1328 1.349 . S
C1317 C1315 1.327 . S
C1317 C1333 1.429 . S
C1317 H1339 0.950 . S
C1318 H1314 0.949 . S
C1318 C1326 1.574 . S
C1318 C1334 1.368 . S
H1319 C1327 0.950 . S
H1320 C1325 0.950 . S
H1321 C1326 0.949 . S
H1322 C1328 0.950 . S
H1323 C1329 0.950 . S
H1324 C1330 0.949 . S
C1325 H1320 0.950 . S
C1325 C1327 1.327 . S
C1325 C1331 1.429 . S
C1326 C1318 1.574 . S
C1326 H1321 0.949 . S
C1326 C1332 1.368 . S
C1327 C1311 1.349 . S
C1327 H1319 0.950 . S
C1327 C1325 1.327 . S
C1328 C1316 1.349 . S
C1328 H1322 0.950 . S
C1328 C1329 1.327 . S
C1329 H1323 0.950 . S
C1329 C1328 1.327 . S
C1329 C1333 1.429 . S
C1330 C1313 1.574 . S
C1330 H1324 0.949 . S
C1330 C1334 1.368 . S
C1331 C1312 1.429 . S
C1331 C1325 1.429 . S
C1331 C1332 1.523 . S
C1332 C1313 1.368 . S
C1332 C1326 1.368 . S
C1332 C1331 1.523 . S
C1333 C1317 1.429 . S
C1333 C1329 1.429 . S
C1333 C1334 1.523 . S
C1334 C1318 1.368 . S
C1334 C1330 1.368 . S
C1334 C1333 1.523 . S
H1335 C1310 0.950 . S
H1336 C1312 0.950 . S
H1337 C1313 0.949 . S
H1338 C1315 0.950 . S
H1339 C1317 0.950 . S
C1340 C1341 1.349 . S
C1340 C1342 1.327 . S
C1340 H1365 0.950 . S
C1341 C1340 1.349 . S
C1341 C1357 1.349 . S
C1342 C1340 1.327 . S
C1342 C1361 1.429 . S
C1342 H1366 0.950 . S
C1343 C1360 1.574 . S
C1343 C1362 1.368 . S
C1343 H1367 0.949 . S
H1344 C1348 0.949 . S
C1345 C1346 1.349 . S
C1345 C1347 1.327 . S
C1345 H1368 0.950 . S
C1346 C1345 1.349 . S
C1346 C1358 1.349 . S
C1347 C1345 1.327 . S
C1347 C1363 1.429 . S
C1347 H1369 0.950 . S
C1348 H1344 0.949 . S
C1348 C1356 1.574 . S
C1348 C1364 1.368 . S
H1349 C1357 0.950 . S
H1350 C1355 0.950 . S
H1351 C1356 0.949 . S
H1352 C1358 0.950 . S
H1353 C1359 0.950 . S
H1354 C1360 0.949 . S
C1355 H1350 0.950 . S
C1355 C1357 1.327 . S
C1355 C1361 1.429 . S
C1356 C1348 1.574 . S
C1356 H1351 0.949 . S
C1356 C1362 1.368 . S
C1357 C1341 1.349 . S
C1357 H1349 0.950 . S
C1357 C1355 1.327 . S
C1358 C1346 1.349 . S
C1358 H1352 0.950 . S
C1358 C1359 1.327 . S
C1359 H1353 0.950 . S
C1359 C1358 1.327 . S
C1359 C1363 1.429 . S
C1360 C1343 1.574 . S
C1360 H1354 0.949 . S
C1360 C1364 1.368 . S
C1361 C1342 1.429 . S
C1361 C1355 1.429 . S
C1361 C1362 1.523 . S
C1362 C1343 1.368 . S
C1362 C1356 1.368 . S
C1362 C1361 1.523 . S
C1363 C1347 1.429 . S
C1363 C1359 1.429 . S
C1363 C1364 1.523 . S
C1364 C1348 1.368 . S
C1364 C1360 1.368 . S
C1364 C1363 1.523 . S
H1365 C1340 0.950 . S
H1366 C1342 0.950 . S
H1367 C1343 0.949 . S
H1368 C1345 0.950 . S
H1369 C1347 0.950 . S
C1370 C1371 1.349 . S
C1370 C1372 1.327 . S
C1370 H1395 0.950 . S
C1371 C1370 1.349 . S
C1371 C1387 1.349 . S
C1372 C1370 1.327 . S
C1372 C1391 1.429 . S
C1372 H1396 0.950 . S
C1373 C1390 1.574 . S
C1373 C1392 1.368 . S
C1373 H1397 0.949 . S
H1374 C1378 0.949 . S
C1375 C1376 1.349 . S
C1375 C1377 1.327 . S
C1375 H1398 0.950 . S
C1376 C1375 1.349 . S
C1376 C1388 1.349 . S
C1377 C1375 1.327 . S
C1377 C1393 1.429 . S
C1377 H1399 0.950 . S
C1378 H1374 0.949 . S
C1378 C1386 1.574 . S
C1378 C1394 1.368 . S
H1379 C1387 0.950 . S
H1380 C1385 0.950 . S
H1381 C1386 0.949 . S
H1382 C1388 0.950 . S
H1383 C1389 0.950 . S
H1384 C1390 0.949 . S
C1385 H1380 0.950 . S
C1385 C1387 1.327 . S
C1385 C1391 1.429 . S
C1386 C1378 1.574 . S
C1386 H1381 0.949 . S
C1386 C1392 1.368 . S
C1387 C1371 1.349 . S
C1387 H1379 0.950 . S
C1387 C1385 1.327 . S
C1388 C1376 1.349 . S
C1388 H1382 0.950 . S
C1388 C1389 1.327 . S
C1389 H1383 0.950 . S
C1389 C1388 1.327 . S
C1389 C1393 1.429 . S
C1390 C1373 1.574 . S
C1390 H1384 0.949 . S
C1390 C1394 1.368 . S
C1391 C1372 1.429 . S
C1391 C1385 1.429 . S
C1391 C1392 1.523 . S
C1392 C1373 1.368 . S
C1392 C1386 1.368 . S
C1392 C1391 1.523 . S
C1393 C1377 1.429 . S
C1393 C1389 1.429 . S
C1393 C1394 1.523 . S
C1394 C1378 1.368 . S
C1394 C1390 1.368 . S
C1394 C1393 1.523 . S
H1395 C1370 0.950 . S
H1396 C1372 0.950 . S
H1397 C1373 0.949 . S
H1398 C1375 0.950 . S
H1399 C1377 0.950 . S
C1400 C1401 1.349 . S
C1400 C1402 1.327 . S
C1400 H1425 0.950 . S
C1401 C1400 1.349 . S
C1401 C1417 1.349 . S
C1402 C1400 1.327 . S
C1402 C1421 1.429 . S
C1402 H1426 0.950 . S
C1403 C1420 1.574 . S
C1403 C1422 1.368 . S
C1403 H1427 0.949 . S
H1404 C1408 0.949 . S
C1405 C1406 1.349 . S
C1405 C1407 1.327 . S
C1405 H1428 0.950 . S
C1406 C1405 1.349 . S
C1406 C1418 1.349 . S
C1407 C1405 1.327 . S
C1407 C1423 1.429 . S
C1407 H1429 0.950 . S
C1408 H1404 0.949 . S
C1408 C1416 1.574 . S
C1408 C1424 1.368 . S
H1409 C1417 0.950 . S
H1410 C1415 0.950 . S
H1411 C1416 0.949 . S
H1412 C1418 0.950 . S
H1413 C1419 0.950 . S
H1414 C1420 0.949 . S
C1415 H1410 0.950 . S
C1415 C1417 1.327 . S
C1415 C1421 1.429 . S
C1416 C1408 1.574 . S
C1416 H1411 0.949 . S
C1416 C1422 1.368 . S
C1417 C1401 1.349 . S
C1417 H1409 0.950 . S
C1417 C1415 1.327 . S
C1418 C1406 1.349 . S
C1418 H1412 0.950 . S
C1418 C1419 1.327 . S
C1419 H1413 0.950 . S
C1419 C1418 1.327 . S
C1419 C1423 1.429 . S
C1420 C1403 1.574 . S
C1420 H1414 0.949 . S
C1420 C1424 1.368 . S
C1421 C1402 1.429 . S
C1421 C1415 1.429 . S
C1421 C1422 1.523 . S
C1422 C1403 1.368 . S
C1422 C1416 1.368 . S
C1422 C1421 1.523 . S
C1423 C1407 1.429 . S
C1423 C1419 1.429 . S
C1423 C1424 1.523 . S
C1424 C1408 1.368 . S
C1424 C1420 1.368 . S
C1424 C1423 1.523 . S
H1425 C1400 0.950 . S
H1426 C1402 0.950 . S
H1427 C1403 0.949 . S
H1428 C1405 0.950 . S
H1429 C1407 0.950 . S
C1430 C1431 1.349 . S
C1430 C1432 1.327 . S
C1430 H1455 0.950 . S
C1431 C1430 1.349 . S
C1431 C1447 1.349 . S
C1432 C1430 1.327 . S
C1432 C1451 1.429 . S
C1432 H1456 0.950 . S
C1433 C1450 1.574 . S
C1433 C1452 1.368 . S
C1433 H1457 0.949 . S
H1434 C1438 0.949 . S
C1435 C1436 1.349 . S
C1435 C1437 1.327 . S
C1435 H1458 0.950 . S
C1436 C1435 1.349 . S
C1436 C1448 1.349 . S
C1437 C1435 1.327 . S
C1437 C1453 1.429 . S
C1437 H1459 0.950 . S
C1438 H1434 0.949 . S
C1438 C1446 1.574 . S
C1438 C1454 1.368 . S
H1439 C1447 0.950 . S
H1440 C1445 0.950 . S
H1441 C1446 0.949 . S
H1442 C1448 0.950 . S
H1443 C1449 0.950 . S
H1444 C1450 0.949 . S
C1445 H1440 0.950 . S
C1445 C1447 1.327 . S
C1445 C1451 1.429 . S
C1446 C1438 1.574 . S
C1446 H1441 0.949 . S
C1446 C1452 1.368 . S
C1447 C1431 1.349 . S
C1447 H1439 0.950 . S
C1447 C1445 1.327 . S
C1448 C1436 1.349 . S
C1448 H1442 0.950 . S
C1448 C1449 1.327 . S
C1449 H1443 0.950 . S
C1449 C1448 1.327 . S
C1449 C1453 1.429 . S
C1450 C1433 1.574 . S
C1450 H1444 0.949 . S
C1450 C1454 1.368 . S
C1451 C1432 1.429 . S
C1451 C1445 1.429 . S
C1451 C1452 1.523 . S
C1452 C1433 1.368 . S
C1452 C1446 1.368 . S
C1452 C1451 1.523 . S
C1453 C1437 1.429 . S
C1453 C1449 1.429 . S
C1453 C1454 1.523 . S
C1454 C1438 1.368 . S
C1454 C1450 1.368 . S
C1454 C1453 1.523 . S
H1455 C1430 0.950 . S
H1456 C1432 0.950 . S
H1457 C1433 0.949 . S
H1458 C1435 0.950 . S
H1459 C1437 0.950 . S
C1460 C1461 1.349 . S
C1460 C1462 1.327 . S
C1460 H1485 0.950 . S
C1461 C1460 1.349 . S
C1461 C1477 1.349 . S
C1462 C1460 1.327 . S
C1462 C1481 1.429 . S
C1462 H1486 0.950 . S
C1463 C1480 1.574 . S
C1463 C1482 1.368 . S
C1463 H1487 0.949 . S
H1464 C1468 0.949 . S
C1465 C1466 1.349 . S
C1465 C1467 1.327 . S
C1465 H1488 0.950 . S
C1466 C1465 1.349 . S
C1466 C1478 1.349 . S
C1467 C1465 1.327 . S
C1467 C1483 1.429 . S
C1467 H1489 0.950 . S
C1468 H1464 0.949 . S
C1468 C1476 1.574 . S
C1468 C1484 1.368 . S
H1469 C1477 0.950 . S
H1470 C1475 0.950 . S
H1471 C1476 0.949 . S
H1472 C1478 0.950 . S
H1473 C1479 0.950 . S
H1474 C1480 0.949 . S
C1475 H1470 0.950 . S
C1475 C1477 1.327 . S
C1475 C1481 1.429 . S
C1476 C1468 1.574 . S
C1476 H1471 0.949 . S
C1476 C1482 1.368 . S
C1477 C1461 1.349 . S
C1477 H1469 0.950 . S
C1477 C1475 1.327 . S
C1478 C1466 1.349 . S
C1478 H1472 0.950 . S
C1478 C1479 1.327 . S
C1479 H1473 0.950 . S
C1479 C1478 1.327 . S
C1479 C1483 1.429 . S
C1480 C1463 1.574 . S
C1480 H1474 0.949 . S
C1480 C1484 1.368 . S
C1481 C1462 1.429 . S
C1481 C1475 1.429 . S
C1481 C1482 1.523 . S
C1482 C1463 1.368 . S
C1482 C1476 1.368 . S
C1482 C1481 1.523 . S
C1483 C1467 1.429 . S
C1483 C1479 1.429 . S
C1483 C1484 1.523 . S
C1484 C1468 1.368 . S
C1484 C1480 1.368 . S
C1484 C1483 1.523 . S
H1485 C1460 0.950 . S
H1486 C1462 0.950 . S
H1487 C1463 0.949 . S
H1488 C1465 0.950 . S
H1489 C1467 0.950 . S
C1490 C1491 1.349 . S
C1490 C1492 1.327 . S
C1490 H1515 0.950 . S
C1491 C1490 1.349 . S
C1491 C1507 1.349 . S
C1492 C1490 1.327 . S
C1492 C1511 1.429 . S
C1492 H1516 0.950 . S
C1493 C1510 1.574 . S
C1493 C1512 1.368 . S
C1493 H1517 0.949 . S
H1494 C1498 0.949 . S
C1495 C1496 1.349 . S
C1495 C1497 1.327 . S
C1495 H1518 0.950 . S
C1496 C1495 1.349 . S
C1496 C1508 1.349 . S
C1497 C1495 1.327 . S
C1497 C1513 1.429 . S
C1497 H1519 0.950 . S
C1498 H1494 0.949 . S
C1498 C1506 1.574 . S
C1498 C1514 1.368 . S
H1499 C1507 0.950 . S
H1500 C1505 0.950 . S
H1501 C1506 0.949 . S
H1502 C1508 0.950 . S
H1503 C1509 0.950 . S
H1504 C1510 0.949 . S
C1505 H1500 0.950 . S
C1505 C1507 1.327 . S
C1505 C1511 1.429 . S
C1506 C1498 1.574 . S
C1506 H1501 0.949 . S
C1506 C1512 1.368 . S
C1507 C1491 1.349 . S
C1507 H1499 0.950 . S
C1507 C1505 1.327 . S
C1508 C1496 1.349 . S
C1508 H1502 0.950 . S
C1508 C1509 1.327 . S
C1509 H1503 0.950 . S
C1509 C1508 1.327 . S
C1509 C1513 1.429 . S
C1510 C1493 1.574 . S
C1510 H1504 0.949 . S
C1510 C1514 1.368 . S
C1511 C1492 1.429 . S
C1511 C1505 1.429 . S
C1511 C1512 1.523 . S
C1512 C1493 1.368 . S
C1512 C1506 1.368 . S
C1512 C1511 1.523 . S
C1513 C1497 1.429 . S
C1513 C1509 1.429 . S
C1513 C1514 1.523 . S
C1514 C1498 1.368 . S
C1514 C1510 1.368 . S
C1514 C1513 1.523 . S
H1515 C1490 0.950 . S
H1516 C1492 0.950 . S
H1517 C1493 0.949 . S
H1518 C1495 0.950 . S
H1519 C1497 0.950 . S
C1520 C1521 1.349 . S
C1520 C1522 1.327 . S
C1520 H1545 0.950 . S
C1521 C1520 1.349 . S
C1521 C1537 1.349 . S
C1522 C1520 1.327 . S
C1522 C1541 1.429 . S
C1522 H1546 0.950 . S
C1523 C1540 1.574 . S
C1523 C1542 1.368 . S
C1523 H1547 0.949 . S
H1524 C1528 0.949 . S
C1525 C1526 1.349 . S
C1525 C1527 1.327 . S
C1525 H1548 0.950 . S
C1526 C1525 1.349 . S
C1526 C1538 1.349 . S
C1527 C1525 1.327 . S
C1527 C1543 1.429 . S
C1527 H1549 0.950 . S
C1528 H1524 0.949 . S
C1528 C1536 1.574 . S
C1528 C1544 1.368 . S
H1529 C1537 0.950 . S
H1530 C1535 0.950 . S
H1531 C1536 0.949 . S
H1532 C1538 0.950 . S
H1533 C1539 0.950 . S
H1534 C1540 0.949 . S
C1535 H1530 0.950 . S
C1535 C1537 1.327 . S
C1535 C1541 1.429 . S
C1536 C1528 1.574 . S
C1536 H1531 0.949 . S
C1536 C1542 1.368 . S
C1537 C1521 1.349 . S
C1537 H1529 0.950 . S
C1537 C1535 1.327 . S
C1538 C1526 1.349 . S
C1538 H1532 0.950 . S
C1538 C1539 1.327 . S
C1539 H1533 0.950 . S
C1539 C1538 1.327 . S
C1539 C1543 1.429 . S
C1540 C1523 1.574 . S
C1540 H1534 0.949 . S
C1540 C1544 1.368 . S
C1541 C1522 1.429 . S
C1541 C1535 1.429 . S
C1541 C1542 1.523 1_565 S
C1542 C1523 1.368 . S
C1542 C1536 1.368 . S
C1542 C1541 1.523 1_545 S
C1543 C1527 1.429 . S
C1543 C1539 1.429 . S
C1543 C1544 1.523 . S
C1544 C1528 1.368 . S
C1544 C1540 1.368 . S
C1544 C1543 1.523 . S
H1545 C1520 0.950 . S
H1546 C1522 0.950 . S
H1547 C1523 0.949 . S
H1548 C1525 0.950 . S
H1549 C1527 0.950 . S
C1550 C1551 1.349 . S
C1550 C1552 1.327 . S
C1550 H1575 0.950 . S
C1551 C1550 1.349 . S
C1551 C1567 1.349 . S
C1552 C1550 1.327 . S
C1552 C1571 1.429 . S
C1552 H1576 0.950 . S
C1553 C1570 1.574 . S
C1553 C1572 1.368 . S
C1553 H1577 0.949 . S
H1554 C1558 0.949 . S
C1555 C1556 1.349 . S
C1555 C1557 1.327 . S
C1555 H1578 0.950 . S
C1556 C1555 1.349 . S
C1556 C1568 1.349 . S
C1557 C1555 1.327 . S
C1557 C1573 1.429 . S
C1557 H1579 0.950 . S
C1558 H1554 0.949 . S
C1558 C1566 1.574 . S
C1558 C1574 1.368 . S
H1559 C1567 0.950 . S
H1560 C1565 0.950 . S
H1561 C1566 0.949 . S
H1562 C1568 0.950 . S
H1563 C1569 0.950 . S
H1564 C1570 0.949 . S
C1565 H1560 0.950 . S
C1565 C1567 1.327 . S
C1565 C1571 1.429 . S
C1566 C1558 1.574 . S
C1566 H1561 0.949 . S
C1566 C1572 1.368 . S
C1567 C1551 1.349 . S
C1567 H1559 0.950 . S
C1567 C1565 1.327 . S
C1568 C1556 1.349 . S
C1568 H1562 0.950 . S
C1568 C1569 1.327 . S
C1569 H1563 0.950 . S
C1569 C1568 1.327 . S
C1569 C1573 1.429 . S
C1570 C1553 1.574 . S
C1570 H1564 0.949 . S
C1570 C1574 1.368 . S
C1571 C1552 1.429 . S
C1571 C1565 1.429 . S
C1571 C1572 1.523 . S
C1572 C1553 1.368 . S
C1572 C1566 1.368 . S
C1572 C1571 1.523 . S
C1573 C1557 1.429 . S
C1573 C1569 1.429 . S
C1573 C1574 1.523 1_545 S
C1574 C1558 1.368 . S
C1574 C1570 1.368 . S
C1574 C1573 1.523 1_565 S
H1575 C1550 0.950 . S
H1576 C1552 0.950 . S
H1577 C1553 0.949 . S
H1578 C1555 0.950 . S
H1579 C1557 0.950 . S
C1580 C1581 1.349 . S
C1580 C1582 1.327 . S
C1580 H1605 0.950 . S
C1581 C1580 1.349 . S
C1581 C1597 1.349 . S
C1582 C1580 1.327 . S
C1582 C1601 1.429 . S
C1582 H1606 0.950 . S
C1583 C1600 1.574 . S
C1583 C1602 1.368 . S
C1583 H1607 0.949 . S
H1584 C1588 0.949 . S
C1585 C1586 1.349 . S
C1585 C1587 1.327 . S
C1585 H1608 0.950 . S
C1586 C1585 1.349 . S
C1586 C1598 1.349 . S
C1587 C1585 1.327 . S
C1587 C1603 1.429 . S
C1587 H1609 0.950 . S
C1588 H1584 0.949 . S
C1588 C1596 1.574 . S
C1588 C1604 1.368 . S
H1589 C1597 0.950 . S
H1590 C1595 0.950 . S
H1591 C1596 0.949 . S
H1592 C1598 0.950 . S
H1593 C1599 0.950 . S
H1594 C1600 0.949 . S
C1595 H1590 0.950 . S
C1595 C1597 1.327 . S
C1595 C1601 1.429 . S
C1596 C1588 1.574 . S
C1596 H1591 0.949 . S
C1596 C1602 1.368 . S
C1597 C1581 1.349 . S
C1597 H1589 0.950 . S
C1597 C1595 1.327 . S
C1598 C1586 1.349 . S
C1598 H1592 0.950 . S
C1598 C1599 1.327 . S
C1599 H1593 0.950 . S
C1599 C1598 1.327 . S
C1599 C1603 1.429 . S
C1600 C1583 1.574 . S
C1600 H1594 0.949 . S
C1600 C1604 1.368 . S
C1601 C1582 1.429 . S
C1601 C1595 1.429 . S
C1601 C1602 1.523 1_545 S
C1602 C1583 1.368 . S
C1602 C1596 1.368 . S
C1602 C1601 1.523 1_565 S
C1603 C1587 1.429 . S
C1603 C1599 1.429 . S
C1603 C1604 1.523 . S
C1604 C1588 1.368 . S
C1604 C1600 1.368 . S
C1604 C1603 1.523 . S
H1605 C1580 0.950 . S
H1606 C1582 0.950 . S
H1607 C1583 0.949 . S
H1608 C1585 0.950 . S
H1609 C1587 0.950 . S
C1610 C1611 1.349 . S
C1610 C1612 1.327 . S
C1610 H1635 0.950 . S
C1611 C1610 1.349 . S
C1611 C1627 1.349 . S
C1612 C1610 1.327 . S
C1612 C1631 1.429 . S
C1612 H1636 0.950 . S
C1613 C1630 1.574 . S
C1613 C1632 1.368 . S
C1613 H1637 0.949 . S
H1614 C1618 0.949 . S
C1615 C1616 1.349 . S
C1615 C1617 1.327 . S
C1615 H1638 0.950 . S
C1616 C1615 1.349 . S
C1616 C1628 1.349 . S
C1617 C1615 1.327 . S
C1617 C1633 1.429 . S
C1617 H1639 0.950 . S
C1618 H1614 0.949 . S
C1618 C1626 1.574 . S
C1618 C1634 1.368 . S
H1619 C1627 0.950 . S
H1620 C1625 0.950 . S
H1621 C1626 0.949 . S
H1622 C1628 0.950 . S
H1623 C1629 0.950 . S
H1624 C1630 0.949 . S
C1625 H1620 0.950 . S
C1625 C1627 1.327 . S
C1625 C1631 1.429 . S
C1626 C1618 1.574 . S
C1626 H1621 0.949 . S
C1626 C1632 1.368 . S
C1627 C1611 1.349 . S
C1627 H1619 0.950 . S
C1627 C1625 1.327 . S
C1628 C1616 1.349 . S
C1628 H1622 0.950 . S
C1628 C1629 1.327 . S
C1629 H1623 0.950 . S
C1629 C1628 1.327 . S
C1629 C1633 1.429 . S
C1630 C1613 1.574 . S
C1630 H1624 0.949 . S
C1630 C1634 1.368 . S
C1631 C1612 1.429 . S
C1631 C1625 1.429 . S
C1631 C1632 1.523 1_565 S
C1632 C1613 1.368 . S
C1632 C1626 1.368 . S
C1632 C1631 1.523 1_545 S
C1633 C1617 1.429 . S
C1633 C1629 1.429 . S
C1633 C1634 1.523 . S
C1634 C1618 1.368 . S
C1634 C1630 1.368 . S
C1634 C1633 1.523 . S
H1635 C1610 0.950 . S
H1636 C1612 0.950 . S
H1637 C1613 0.949 . S
H1638 C1615 0.950 . S
H1639 C1617 0.950 . S
C1640 C1641 1.349 . S
C1640 C1642 1.327 . S
C1640 H1665 0.950 . S
C1641 C1640 1.349 . S
C1641 C1657 1.349 . S
C1642 C1640 1.327 . S
C1642 C1661 1.429 . S
C1642 H1666 0.950 . S
C1643 C1660 1.574 . S
C1643 C1662 1.368 . S
C1643 H1667 0.949 . S
H1644 C1648 0.949 . S
C1645 C1646 1.349 . S
C1645 C1647 1.327 . S
C1645 H1668 0.950 . S
C1646 C1645 1.349 . S
C1646 C1658 1.349 . S
C1647 C1645 1.327 . S
C1647 C1663 1.429 . S
C1647 H1669 0.950 . S
C1648 H1644 0.949 . S
C1648 C1656 1.574 . S
C1648 C1664 1.368 . S
H1649 C1657 0.950 . S
H1650 C1655 0.950 . S
H1651 C1656 0.949 . S
H1652 C1658 0.950 . S
H1653 C1659 0.950 . S
H1654 C1660 0.949 . S
C1655 H1650 0.950 . S
C1655 C1657 1.327 . S
C1655 C1661 1.429 . S
C1656 C1648 1.574 . S
C1656 H1651 0.949 . S
C1656 C1662 1.368 . S
C1657 C1641 1.349 . S
C1657 H1649 0.950 . S
C1657 C1655 1.327 . S
C1658 C1646 1.349 . S
C1658 H1652 0.950 . S
C1658 C1659 1.327 . S
C1659 H1653 0.950 . S
C1659 C1658 1.327 . S
C1659 C1663 1.429 . S
C1660 C1643 1.574 . S
C1660 H1654 0.949 . S
C1660 C1664 1.368 . S
C1661 C1642 1.429 . S
C1661 C1655 1.429 . S
C1661 C1662 1.523 . S
C1662 C1643 1.368 . S
C1662 C1656 1.368 . S
C1662 C1661 1.523 . S
C1663 C1647 1.429 . S
C1663 C1659 1.429 . S
C1663 C1664 1.523 1_545 S
C1664 C1648 1.368 . S
C1664 C1660 1.368 . S
C1664 C1663 1.523 1_565 S
H1665 C1640 0.950 . S
H1666 C1642 0.950 . S
H1667 C1643 0.949 . S
H1668 C1645 0.950 . S
H1669 C1647 0.950 . S
C1670 C1671 1.349 . S
C1670 C1672 1.327 . S
C1670 H1695 0.950 . S
C1671 C1670 1.349 . S
C1671 C1687 1.349 . S
C1672 C1670 1.327 . S
C1672 C1691 1.429 . S
C1672 H1696 0.950 . S
C1673 C1690 1.574 . S
C1673 C1692 1.368 . S
C1673 H1697 0.949 . S
H1674 C1678 0.949 . S
C1675 C1676 1.349 . S
C1675 C1677 1.327 . S
C1675 H1698 0.950 . S
C1676 C1675 1.349 . S
C1676 C1688 1.349 . S
C1677 C1675 1.327 . S
C1677 C1693 1.429 . S
C1677 H1699 0.950 . S
C1678 H1674 0.949 . S
C1678 C1686 1.574 . S
C1678 C1694 1.368 . S
H1679 C1687 0.950 . S
H1680 C1685 0.950 . S
H1681 C1686 0.949 . S
H1682 C1688 0.950 . S
H1683 C1689 0.950 . S
H1684 C1690 0.949 . S
C1685 H1680 0.950 . S
C1685 C1687 1.327 . S
C1685 C1691 1.429 . S
C1686 C1678 1.574 . S
C1686 H1681 0.949 . S
C1686 C1692 1.368 . S
C1687 C1671 1.349 . S
C1687 H1679 0.950 . S
C1687 C1685 1.327 . S
C1688 C1676 1.349 . S
C1688 H1682 0.950 . S
C1688 C1689 1.327 . S
C1689 H1683 0.950 . S
C1689 C1688 1.327 . S
C1689 C1693 1.429 . S
C1690 C1673 1.574 . S
C1690 H1684 0.949 . S
C1690 C1694 1.368 . S
C1691 C1672 1.429 . S
C1691 C1685 1.429 . S
C1691 C1692 1.523 . S
C1692 C1673 1.368 . S
C1692 C1686 1.368 . S
C1692 C1691 1.523 . S
C1693 C1677 1.429 . S
C1693 C1689 1.429 . S
C1693 C1694 1.523 1_565 S
C1694 C1678 1.368 . S
C1694 C1690 1.368 . S
C1694 C1693 1.523 1_545 S
H1695 C1670 0.950 . S
H1696 C1672 0.950 . S
H1697 C1673 0.949 . S
H1698 C1675 0.950 . S
H1699 C1677 0.950 . S
C1700 C1701 1.349 . S
C1700 C1702 1.327 . S
C1700 H1725 0.950 . S
C1701 C1700 1.349 . S
C1701 C1717 1.349 . S
C1702 C1700 1.327 . S
C1702 C1721 1.429 . S
C1702 H1726 0.950 . S
C1703 C1720 1.574 . S
C1703 C1722 1.368 . S
C1703 H1727 0.949 . S
H1704 C1708 0.949 . S
C1705 C1706 1.349 . S
C1705 C1707 1.327 . S
C1705 H1728 0.950 . S
C1706 C1705 1.349 . S
C1706 C1718 1.349 . S
C1707 C1705 1.327 . S
C1707 C1723 1.429 . S
C1707 H1729 0.950 . S
C1708 H1704 0.949 . S
C1708 C1716 1.574 . S
C1708 C1724 1.368 . S
H1709 C1717 0.950 . S
H1710 C1715 0.950 . S
H1711 C1716 0.949 . S
H1712 C1718 0.950 . S
H1713 C1719 0.950 . S
H1714 C1720 0.949 . S
C1715 H1710 0.950 . S
C1715 C1717 1.327 . S
C1715 C1721 1.429 . S
C1716 C1708 1.574 . S
C1716 H1711 0.949 . S
C1716 C1722 1.368 . S
C1717 C1701 1.349 . S
C1717 H1709 0.950 . S
C1717 C1715 1.327 . S
C1718 C1706 1.349 . S
C1718 H1712 0.950 . S
C1718 C1719 1.327 . S
C1719 H1713 0.950 . S
C1719 C1718 1.327 . S
C1719 C1723 1.429 . S
C1720 C1703 1.574 . S
C1720 H1714 0.949 . S
C1720 C1724 1.368 . S
C1721 C1702 1.429 . S
C1721 C1715 1.429 . S
C1721 C1722 1.523 1_565 S
C1722 C1703 1.368 . S
C1722 C1716 1.368 . S
C1722 C1721 1.523 1_545 S
C1723 C1707 1.429 . S
C1723 C1719 1.429 . S
C1723 C1724 1.523 . S
C1724 C1708 1.368 . S
C1724 C1720 1.368 . S
C1724 C1723 1.523 . S
H1725 C1700 0.950 . S
H1726 C1702 0.950 . S
H1727 C1703 0.949 . S
H1728 C1705 0.950 . S
H1729 C1707 0.950 . S
C1730 C1731 1.349 . S
C1730 C1732 1.327 . S
C1730 H1755 0.950 . S
C1731 C1730 1.349 . S
C1731 C1747 1.349 . S
C1732 C1730 1.327 . S
C1732 C1751 1.429 . S
C1732 H1756 0.950 . S
C1733 C1750 1.574 . S
C1733 C1752 1.368 . S
C1733 H1757 0.949 . S
H1734 C1738 0.949 . S
C1735 C1736 1.349 . S
C1735 C1737 1.327 . S
C1735 H1758 0.950 . S
C1736 C1735 1.349 . S
C1736 C1748 1.349 . S
C1737 C1735 1.327 . S
C1737 C1753 1.429 . S
C1737 H1759 0.950 . S
C1738 H1734 0.949 . S
C1738 C1746 1.574 . S
C1738 C1754 1.368 . S
H1739 C1747 0.950 . S
H1740 C1745 0.950 . S
H1741 C1746 0.949 . S
H1742 C1748 0.950 . S
H1743 C1749 0.950 . S
H1744 C1750 0.949 . S
C1745 H1740 0.950 . S
C1745 C1747 1.327 . S
C1745 C1751 1.429 . S
C1746 C1738 1.574 . S
C1746 H1741 0.949 . S
C1746 C1752 1.368 . S
C1747 C1731 1.349 . S
C1747 H1739 0.950 . S
C1747 C1745 1.327 . S
C1748 C1736 1.349 . S
C1748 H1742 0.950 . S
C1748 C1749 1.327 . S
C1749 H1743 0.950 . S
C1749 C1748 1.327 . S
C1749 C1753 1.429 . S
C1750 C1733 1.574 . S
C1750 H1744 0.949 . S
C1750 C1754 1.368 . S
C1751 C1732 1.429 . S
C1751 C1745 1.429 . S
C1751 C1752 1.523 . S
C1752 C1733 1.368 . S
C1752 C1746 1.368 . S
C1752 C1751 1.523 . S
C1753 C1737 1.429 . S
C1753 C1749 1.429 . S
C1753 C1754 1.523 1_545 S
C1754 C1738 1.368 . S
C1754 C1750 1.368 . S
C1754 C1753 1.523 1_565 S
H1755 C1730 0.950 . S
H1756 C1732 0.950 . S
H1757 C1733 0.949 . S
H1758 C1735 0.950 . S
H1759 C1737 0.950 . S
C321 C2 1.444 . S
C326 C182 1.444 . S
C351 C22 1.444 . S
C356 C162 1.444 . S
C381 C222 1.444 . S
C386 C42 1.444 . S
C411 C62 1.444 . S
C416 C202 1.444 . S
C441 C264 1.444 . S
C446 C84 1.444 . S
C471 C244 1.444 . S
C476 C104 1.444 . S
C501 C304 1.444 . S
C506 C124 1.444 . S
C531 C144 1.444 . S
C536 C284 1.444 . S
C561 C59 1.566 . S
C566 C19 1.566 . S
C591 C79 1.566 . S
C596 C39 1.566 . S
C621 C138 1.566 . S
C626 C98 1.566 . S
C651 C118 1.566 . S
C656 C158 1.566 . S
C681 C219 1.566 . S
C686 C179 1.566 . S
C711 C239 1.566 . S
C716 C199 1.566 . S
C741 C258 1.566 . S
C746 C298 1.566 . S
C771 C278 1.566 . S
C776 C318 1.566 . S
C801 C119 1.557 . S
C806 C18 1.557 . S
C831 C99 1.557 . S
C836 C38 1.557 . S
C861 C58 1.557 . S
C866 C159 1.557 . S
C891 C139 1.557 . S
C896 C78 1.557 . S
C921 C178 1.557 . S
C926 C279 1.557 . S
C951 C259 1.557 . S
C956 C198 1.557 . S
C981 C218 1.557 . S
C986 C319 1.557 . S
C1011 C299 1.557 . S
C1016 C238 1.557 . S
C1041 C24 1.534 . S
C1046 C4 1.534 . S
C1071 C64 1.534 . S
C1076 C44 1.534 . S
C1101 C102 1.534 . S
C1106 C82 1.534 . S
C1131 C122 1.534 . S
C1136 C142 1.534 . S
C1161 C184 1.534 . S
C1166 C164 1.534 . S
C1191 C224 1.534 . S
C1196 C204 1.534 . S
C1221 C242 1.534 . S
C1226 C262 1.534 . S
C1251 C282 1.534 . S
C1256 C302 1.534 . S
C1281 C12 1.706 . S
C1286 C9 1.706 . S
C1311 C32 1.706 . S
C1316 C29 1.706 . S
C1341 C52 1.706 . S
C1346 C49 1.706 . S
C1371 C69 1.706 . S
C1376 C72 1.706 . S
C1401 C89 1.706 . S
C1406 C92 1.706 . S
C1431 C112 1.706 . S
C1436 C109 1.706 . S
C1461 C129 1.706 . S
C1466 C132 1.706 . S
C1491 C149 1.706 . S
C1496 C152 1.706 . S
C1521 C169 1.706 . S
C1526 C172 1.706 . S
C1551 C192 1.706 . S
C1556 C189 1.706 . S
C1581 C209 1.706 . S
C1586 C212 1.706 . S
C1611 C229 1.706 . S
C1616 C232 1.706 . S
C1641 C249 1.706 . S
C1646 C252 1.706 . S
C1671 C269 1.706 . S
C1676 C272 1.706 . S
C1701 C292 1.706 . S
C1706 C289 1.706 . S
C1731 C309 1.706 . S
C1736 C312 1.706 . S
