# Generated by pormake.
# Topology smm, (6)-cn, num edge types: 1
# Building blocks:
#     Node 0, Type 0, BuildingBlock: KUMBUR_clean_sbu_0, # of connection points: 6
#     Node 1, Type 0, BuildingBlock: KUMBUR_clean_sbu_0, # of connection points: 6
#     Node 2, Type 0, BuildingBlock: KUMBUR_clean_sbu_0, # of connection points: 6
#     Node 3, Type 0, BuildingBlock: KUMBUR_clean_sbu_0, # of connection points: 6
#     Node 4, Type 0, BuildingBlock: KUMBUR_clean_sbu_0, # of connection points: 6
#     Node 5, Type 0, BuildingBlock: KUMBUR_clean_sbu_0, # of connection points: 6
#     Node 6, Type 0, BuildingBlock: KUMBUR_clean_sbu_0, # of connection points: 6
#     Node 7, Type 0, BuildingBlock: KUMBUR_clean_sbu_0, # of connection points: 6
#     Node 8, Type 0, BuildingBlock: KUMBUR_clean_sbu_0, # of connection points: 6
#     Edge 9, Type (0, 0), BuildingBlock: ZUJKAS_clean_linker_0, # of connection points: 2
#     Edge 10, Type (0, 0), BuildingBlock: ZUJKAS_clean_linker_0, # of connection points: 2
#     Edge 11, Type (0, 0), BuildingBlock: ZUJKAS_clean_linker_0, # of connection points: 2
#     Edge 12, Type (0, 0), BuildingBlock: ZUJKAS_clean_linker_0, # of connection points: 2
#     Edge 13, Type (0, 0), BuildingBlock: ZUJKAS_clean_linker_0, # of connection points: 2
#     Edge 14, Type (0, 0), BuildingBlock: ZUJKAS_clean_linker_0, # of connection points: 2
#     Edge 15, Type (0, 0), BuildingBlock: ZUJKAS_clean_linker_0, # of connection points: 2
#     Edge 16, Type (0, 0), BuildingBlock: ZUJKAS_clean_linker_0, # of connection points: 2
#     Edge 17, Type (0, 0), BuildingBlock: ZUJKAS_clean_linker_0, # of connection points: 2
#     Edge 18, Type (0, 0), BuildingBlock: ZUJKAS_clean_linker_0, # of connection points: 2
#     Edge 19, Type (0, 0), BuildingBlock: ZUJKAS_clean_linker_0, # of connection points: 2
#     Edge 20, Type (0, 0), BuildingBlock: ZUJKAS_clean_linker_0, # of connection points: 2
#     Edge 21, Type (0, 0), BuildingBlock: ZUJKAS_clean_linker_0, # of connection points: 2
#     Edge 22, Type (0, 0), BuildingBlock: ZUJKAS_clean_linker_0, # of connection points: 2
#     Edge 23, Type (0, 0), BuildingBlock: ZUJKAS_clean_linker_0, # of connection points: 2
#     Edge 24, Type (0, 0), BuildingBlock: ZUJKAS_clean_linker_0, # of connection points: 2
#     Edge 25, Type (0, 0), BuildingBlock: ZUJKAS_clean_linker_0, # of connection points: 2
#     Edge 26, Type (0, 0), BuildingBlock: ZUJKAS_clean_linker_0, # of connection points: 2
#     Edge 27, Type (0, 0), BuildingBlock: ZUJKAS_clean_linker_0, # of connection points: 2
#     Edge 28, Type (0, 0), BuildingBlock: ZUJKAS_clean_linker_0, # of connection points: 2
#     Edge 29, Type (0, 0), BuildingBlock: ZUJKAS_clean_linker_0, # of connection points: 2
#     Edge 30, Type (0, 0), BuildingBlock: ZUJKAS_clean_linker_0, # of connection points: 2
#     Edge 31, Type (0, 0), BuildingBlock: ZUJKAS_clean_linker_0, # of connection points: 2
#     Edge 32, Type (0, 0), BuildingBlock: ZUJKAS_clean_linker_0, # of connection points: 2
#     Edge 33, Type (0, 0), BuildingBlock: ZUJKAS_clean_linker_0, # of connection points: 2
#     Edge 34, Type (0, 0), BuildingBlock: ZUJKAS_clean_linker_0, # of connection points: 2
#     Edge 35, Type (0, 0), BuildingBlock: ZUJKAS_clean_linker_0, # of connection points: 2
# Relax obj value: 0.107
# Max RMSD: 0.252
# Mean RMSD: 0.188
data_MOF--net-smm--node1-KUMBUR_clean_sbu_0--edge1-ZUJKAS_clean_linker_0
_symmetry_space_group_name_H-M    P1
_symmetry_Int_Tables_number       1
_symmetry_cell_setting            triclinic
loop_
_symmetry_equiv_pos_as_xyz
'x, y, z'
_cell_length_a     72.079834
_cell_length_b     87.085304
_cell_length_c     19.484141
_cell_angle_alpha  98.51638
_cell_angle_beta   98.698724
_cell_angle_gamma 121.04393
loop_
_atom_site_label
_atom_site_type_symbol
_atom_site_fract_x
_atom_site_fract_y
_atom_site_fract_z
_atom_type_partial_charge
Tb0 Tb 0.09006 0.23518 0.14614 0.0
C1 C 0.99266 0.18578 0.9518 0.0
C2 C 0.97085 0.19403 0.01203 0.0
C3 C 0.9593 0.18248 0.88158 0.0
C4 C 0.98952 0.19256 0.01425 0.0
C5 C 0.97736 0.18026 0.8847 0.0
C6 C 0.95605 0.18937 0.94522 0.0
C7 C 0.99779 0.16936 0.82994 0.0
N8 N 1.01022 0.18378 0.95734 0.0
C9 C 1.01246 0.175 0.8978 0.0
C10 C 0.98032 0.17223 0.82317 0.0
Tb11 Tb 1.03377 0.19385 0.07059 0.0
N12 N 1.00407 0.1967 0.07753 0.0
C13 C 0.99974 0.201 0.14115 0.0
C14 C 0.96722 0.19956 0.07704 0.0
C15 C 0.98155 0.20277 0.1419 0.0
H16 H 1.02591 0.17276 0.90179 0.0
H17 H 0.97868 0.20672 0.1926 0.0
H18 H 0.94174 0.19057 0.94234 0.0
H19 H 1.00001 0.16285 0.78288 0.0
H20 H 1.01062 0.20369 0.19192 0.0
H21 H 0.14309 0.21897 0.0272 0.0
H22 H 0.95314 0.20094 0.07775 0.0
H23 H 0.09812 0.25677 0.31413 0.0
H24 H 0.11236 0.22382 0.02651 0.0
H25 H 0.12339 0.26601 0.43401 0.0
H26 H 0.94746 0.17848 0.8305 0.0
H27 H 0.16751 0.22369 0.14281 0.0
H28 H 0.17856 0.23404 0.27835 0.0
H29 H 0.96895 0.16781 0.77058 0.0
H30 H 0.17332 0.24705 0.38941 0.0
N31 N 0.11863 0.23075 0.14076 0.0
C32 C 0.12286 0.22605 0.07751 0.0
C33 C 0.15399 0.22586 0.14288 0.0
C34 C 0.15054 0.23186 0.20753 0.0
C35 C 0.1403 0.22324 0.07758 0.0
C36 C 0.13262 0.23434 0.20447 0.0
H37 H 0.15302 0.25935 0.44792 0.0
N38 N 0.11287 0.24453 0.2601 0.0
C39 C 0.12529 0.25907 0.38736 0.0
C40 C 0.12968 0.24156 0.26653 0.0
C41 C 0.111 0.25382 0.31911 0.0
C42 C 0.14195 0.25523 0.39503 0.0
C43 C 0.14454 0.24662 0.33402 0.0
O44 O 0.10234 0.26368 0.17499 0.0
O45 O 0.05446 0.2238 0.11004 0.0
O46 O 1.04109 0.2099 -0.00883 0.0
O47 O 0.08026 0.22653 0.02713 0.0
O48 O 0.07287 0.24682 0.1951 0.0
O49 O 0.10969 0.25221 0.08558 0.0
O50 O 1.02595 0.16648 0.04327 0.0
O51 O 0.06943 0.20522 0.10871 0.0
O52 O 0.08204 0.21932 0.22632 0.0
O53 O 1.0429 0.20262 0.18941 0.0
O54 O 0.0518 0.18378 0.01806 0.0
O55 O 1.01339 0.17493 0.12427 0.0
C56 C 0.05297 0.23517 0.15367 0.0
C57 C 0.13715 0.28343 0.15099 0.0
C58 C 0.16814 0.31171 0.13244 0.0
C59 C 0.14561 0.29622 0.10934 0.0
C60 C 0.18192 0.31413 0.19799 0.0
C61 C 0.15134 0.28624 0.21598 0.0
C62 C 0.17355 0.30148 0.23917 0.0
C63 C 0.06098 0.21958 0.97827 0.0
C64 C 0.11353 0.26733 0.12651 0.0
C65 C 0.16184 0.24342 0.338 0.0
C66 C 0.16482 0.23602 0.27479 0.0
C67 C 0.07131 0.19456 0.06286 0.0
C68 C 0.99152 0.14317 0.05635 0.0
C69 C 0.99105 0.12665 0.04996 0.0
C70 C 0.97068 0.10916 0.02052 0.0
C71 C 0.95076 0.1085 -0.0027 0.0
C72 C 0.9715 0.14219 0.03234 0.0
C73 C 0.95123 0.12491 0.00306 0.0
C74 C 0.06209 0.20973 0.23889 0.0
C75 C 1.01323 0.16115 0.08668 0.0
H76 H 0.13473 0.29402 0.05885 0.0
H77 H 0.19914 0.32601 0.2182 0.0
H78 H 0.14528 0.27681 0.24931 0.0
H79 H 0.18431 0.30356 0.28962 0.0
H80 H 1.00655 0.12746 0.06878 0.0
H81 H 0.93484 0.0953 0.97378 0.0
H82 H 0.97151 0.15473 0.03613 0.0
H83 H 0.93581 0.12421 -0.01545 0.0
Tb84 Tb 0.93275 0.82261 0.0233 0.0
C85 C 0.9048 0.87237 0.16049 0.0
C86 C 0.87247 0.86773 0.07849 0.0
C87 C 0.87934 0.87867 0.20761 0.0
C88 C 0.89161 0.8668 0.09106 0.0
C89 C 0.89896 0.87854 0.21959 0.0
C90 C 0.86622 0.87342 0.13716 0.0
C91 C 0.93367 0.88606 0.29705 0.0
N92 N 0.92408 0.87271 0.1697 0.0
C93 C 0.93902 0.88022 0.23664 0.0
C94 C 0.91345 0.88505 0.28861 0.0
Tb95 Tb 0.93182 0.86406 0.06626 0.0
N96 N 0.89815 0.86138 0.03566 0.0
C97 C 0.88632 0.85692 0.96599 0.0
C98 C 0.8605 0.86335 0.00727 0.0
C99 C 0.86732 0.85774 0.95085 0.0
H100 H 0.95482 0.88128 0.24363 0.0
H101 H 0.85808 0.8542 0.89558 0.0
H102 H 0.85144 0.87404 0.12856 0.0
H103 H 0.94524 0.89152 0.34996 0.0
H104 H 0.89148 0.85284 0.92152 0.0
H105 H 1.01609 0.84927 0.18659 0.0
H106 H 0.84595 0.86423 -0.00474 0.0
H107 H 0.90594 0.79541 0.8567 0.0
H108 H 0.97689 0.84044 0.16462 0.0
H109 H 0.91547 0.7849 0.75053 0.0
H110 H 0.87452 0.88331 0.25229 0.0
H111 H 1.03041 0.8433 0.08494 0.0
H112 H 1.02233 0.82921 0.95273 0.0
H113 H 0.9095 0.88982 0.33542 0.0
H114 H 0.99481 0.81141 0.8339 0.0
N115 N 0.96902 0.83009 0.05092 0.0
C116 C 0.98279 0.83773 0.11955 0.0
C117 C 1.01315 0.83944 0.07485 0.0
C118 C 0.99857 0.83056 0.00536 0.0
C119 C 1.00511 0.84278 0.13236 0.0
C120 C 0.97634 0.82594 -0.00472 0.0
H121 H 0.95475 0.79457 0.75807 0.0
N122 N 0.93959 0.8112 0.92319 0.0
C123 C 0.92845 0.79367 0.8004 0.0
C124 C 0.96099 0.81596 0.92895 0.0
C125 C 0.9231 0.79959 0.86072 0.0
C126 C 0.95066 0.7992 0.8048 0.0
C127 C 0.96721 0.81027 0.87001 0.0
O128 O 0.90786 0.79376 -0.00095 0.0
O129 O 0.91276 0.83425 0.03352 0.0
O130 O 0.91866 0.84737 0.14088 0.0
O131 O 0.93891 0.83368 0.13944 0.0
O132 O 0.89731 0.80943 0.96062 0.0
O133 O 0.9345 0.80726 0.09599 0.0
O134 O 0.95816 0.89233 0.10398 0.0
O135 O 0.95231 0.85313 0.04679 0.0
O136 O 0.93922 0.83488 0.93348 0.0
O137 O 0.9259 0.85434 0.94861 0.0
O138 O 0.96576 0.87519 0.13247 0.0
O139 O 0.93297 0.8825 0.00465 0.0
C140 C 0.89425 0.82202 -0.01176 0.0
C141 C 0.91916 0.77499 0.04477 0.0
C142 C 0.90639 0.74255 0.04681 0.0
C143 C 0.90406 0.75797 0.0607 0.0
C144 C 0.92414 0.74474 0.01823 0.0
C145 C 0.9366 0.77635 0.01684 0.0
C146 C 0.93905 0.76141 0.00382 0.0
C147 C 0.92747 0.83911 0.17091 0.0
C148 C 0.91693 0.79133 0.056 0.0
C149 C 0.98959 0.81549 0.87866 0.0
C150 C 1.00526 0.82564 0.94628 0.0
C151 C 0.97066 0.86512 0.09433 0.0
C152 C 0.94736 0.91278 0.07749 0.0
C153 C 0.9501 0.92541 0.03576 0.0
C154 C 0.94732 0.94004 0.05997 0.0
C155 C 0.94148 0.94172 0.12486 0.0
C156 C 0.94263 0.91551 0.14398 0.0
C157 C 0.93929 0.92959 0.16672 0.0
C158 C 0.93238 0.84505 0.90943 0.0
C159 C 0.94992 0.89711 0.05328 0.0
H160 H 0.89047 0.75664 0.0823 0.0
H161 H 0.92661 0.73344 0.00739 0.0
H162 H 0.94844 0.78904 0.00503 0.0
H163 H 0.95263 0.76275 0.98215 0.0
H164 H 0.95452 0.92399 -0.01449 0.0
H165 H 0.93933 0.95287 0.14434 0.0
H166 H 0.94192 0.90707 0.17955 0.0
H167 H 0.93542 0.93132 0.21775 0.0
Tb168 Tb 0.23058 1.01383 0.03713 0.0
C169 C 0.26627 0.09036 0.1144 0.0
C170 C 0.26935 0.10445 0.23586 0.0
C171 C 0.29845 0.12154 0.17762 0.0
C172 C 0.25795 0.08924 0.17396 0.0
C173 C 0.28626 0.10678 0.11465 0.0
C174 C 0.29001 0.12038 0.2382 0.0
C175 C 0.2794 0.09356 -0.01152 0.0
N176 N 0.25389 0.07587 0.05438 0.0
C177 C 0.25977 0.07753 -0.00891 0.0
C178 C 0.29296 0.1081 0.05091 0.0
Tb179 Tb 0.22144 0.05065 0.06294 0.0
N180 N 0.23777 0.07378 0.16901 0.0
C181 C 0.22692 0.07352 0.22147 0.0
C182 C 0.25916 0.10354 0.29214 0.0
C183 C 0.23766 0.08814 0.28432 0.0
H184 H 0.24941 0.06664 0.94225 0.0
H185 H 0.22933 0.08753 0.32659 0.0
H186 H 0.29917 0.13212 0.2856 0.0
H187 H 0.28409 0.09462 0.93836 0.0
H188 H 0.21029 0.06159 0.21583 0.0
H189 H 0.15499 0.9654 0.82236 0.0
H190 H 0.26738 0.11493 0.34061 0.0
H191 H 0.25395 1.00701 0.18005 0.0
H192 H 0.1914 0.99478 0.88121 0.0
H193 H 0.24242 0.98331 0.24863 0.0
H194 H 0.31403 0.13414 0.17921 0.0
H195 H 0.13889 0.94102 0.88681 0.0
H196 H 0.14284 0.93028 -0.00206 0.0
H197 H 0.3082 0.12047 0.04884 0.0
H198 H 0.16644 0.93541 0.11534 0.0
N199 N 0.19604 0.98745 0.97891 0.0
C200 C 0.18465 0.98442 0.91037 0.0
C201 C 0.15496 0.95392 0.91298 0.0
C202 C 0.16695 0.95691 0.98244 0.0
C203 C 0.16399 0.96766 0.87647 0.0
C204 C 0.18785 0.97393 0.01383 0.0
H205 H 0.2038 0.95504 0.20883 0.0
N206 N 0.22178 0.99273 0.10461 0.0
C207 C 0.23056 0.98135 0.20144 0.0
C208 C 0.20108 0.97678 0.07952 0.0
C209 C 0.23704 0.9947 0.16243 0.0
C210 C 0.20872 0.96545 0.17896 0.0
C211 C 0.19385 0.96277 0.11623 0.0
O212 O 0.25748 1.00994 0.04738 0.0
O213 O 0.24615 0.0437 0.04888 0.0
O214 O 0.21223 0.03837 0.94702 0.0
O215 O 0.23115 1.02348 0.94056 0.0
O216 O 0.26374 0.03558 0.10924 0.0
O217 O 0.23378 1.00024 0.94532 0.0
O218 O 0.21148 0.06166 -0.01311 0.0
O219 O 0.20487 1.02034 0.02968 0.0
O220 O 0.22609 1.01844 0.14452 0.0
O221 O 0.23458 0.04874 0.16818 0.0
O222 O 0.19181 0.0309 0.09463 0.0
O223 O 0.19791 0.05778 0.07752 0.0
C224 C 0.26496 0.04988 0.09361 0.0
C225 C 0.25064 0.98341 0.9643 0.0
C226 C 0.26782 0.96651 0.92747 0.0
C227 C 0.26921 0.98343 0.94847 0.0
C228 C 0.24794 0.94978 0.92443 0.0
C229 C 0.23109 0.96643 0.96061 0.0
C230 C 0.22983 0.94979 0.94132 0.0
C231 C 0.22079 0.03066 0.91133 0.0
C232 C 0.25116 1.00087 0.98015 0.0
C233 C 0.17244 0.94625 0.08749 0.0
C234 C 0.15903 0.9433 0.02056 0.0
C235 C 0.18922 1.01571 0.06178 0.0
C236 C 0.20549 0.08476 0.03874 0.0
C237 C 0.18979 0.08917 0.05338 0.0
C238 C 0.19583 0.10791 0.06804 0.0
C239 C 0.21755 0.12189 0.0674 0.0
C240 C 0.22679 0.09924 0.03713 0.0
C241 C 0.23278 0.11756 0.05195 0.0
C242 C 0.23149 0.03399 0.18885 0.0
C243 C 0.19996 0.06528 0.02396 0.0
H244 H 0.28434 0.99643 0.95032 0.0
H245 H 0.24645 0.93663 0.90906 0.0
H246 H 0.21658 0.96593 0.97127 0.0
H247 H 0.2146 0.93679 0.93855 0.0
H248 H 0.17316 0.0782 0.05375 0.0
H249 H 0.22265 0.13628 0.07721 0.0
H250 H 0.23891 0.0965 0.02341 0.0
H251 H 0.2493 0.12849 0.0506 0.0
Tb252 Tb 0.73867 0.5226 0.09811 0.0
C253 C 0.83291 0.55332 0.28339 0.0
C254 C 0.85766 0.57978 0.24302 0.0
C255 C 0.86778 0.57935 0.36717 0.0
C256 C 0.83745 0.5623 0.22988 0.0
C257 C 0.84825 0.56146 0.35226 0.0
C258 C 0.87248 0.58852 0.31256 0.0
C259 C 0.82502 0.53288 0.38356 0.0
N260 N 0.81402 0.53601 0.26629 0.0
C261 C 0.81036 0.52542 0.31436 0.0
C262 C 0.84387 0.5511 0.40302 0.0
Tb263 Tb 0.79072 0.52492 0.15183 0.0
N264 N 0.82296 0.55313 0.16326 0.0
C265 C 0.82889 0.55995 0.1058 0.0
C266 C 0.86284 0.5875 0.18517 0.0
C267 C 0.84859 0.57735 0.11596 0.0
H268 H 0.79576 0.51138 0.30032 0.0
H269 H 0.85274 0.58291 0.07037 0.0
H270 H 0.88798 0.60203 0.32396 0.0
H271 H 0.8217 0.5246 0.42191 0.0
H272 H 0.81814 0.55233 0.05204 0.0
H273 H 0.67248 0.46788 0.18024 0.0
H274 H 0.87816 0.60091 0.19288 0.0
H275 H 0.73555 0.53628 0.94696 0.0
H276 H 0.70921 0.49618 0.19709 0.0
H277 H 0.71007 0.52379 0.82606 0.0
H278 H 0.87969 0.58595 0.41997 0.0
H279 H 0.64635 0.45067 0.05789 0.0
H280 H 0.63776 0.44916 0.92646 0.0
H281 H 0.85524 0.55683 0.45657 0.0
H282 H 0.64806 0.46455 0.82951 0.0
N283 N 0.70485 0.49549 0.08597 0.0
C284 C 0.69829 0.48905 0.14353 0.0
C285 C 0.66268 0.46317 0.06519 0.0
C286 C 0.66889 0.47029 0.00692 0.0
C287 C 0.67731 0.47283 0.13409 0.0
C288 C 0.69019 0.48683 0.01957 0.0
H289 H 0.67478 0.49263 0.79204 0.0
N290 N 0.7155 0.51228 0.9831 0.0
C291 C 0.70583 0.51564 0.86479 0.0
C292 C 0.69576 0.49553 0.96586 0.0
C293 C 0.72028 0.5227 0.93416 0.0
C294 C 0.68601 0.49802 0.84566 0.0
C295 C 0.68051 0.48787 0.89687 0.0
O296 O 0.73379 0.5444 0.09674 0.0
O297 O 0.77544 0.54062 0.13575 0.0
O298 O 0.78568 0.53708 0.24802 0.0
O299 O 0.74675 0.52196 0.21157 0.0
O300 O 0.75928 0.54738 0.06334 0.0
O301 O 0.72428 0.52888 0.17521 0.0
O302 O 0.79623 0.50349 0.15744 0.0
O303 O 0.75424 0.50741 0.11378 0.0
O304 O 0.74299 0.50927 0.00266 0.0
O305 O 0.78194 0.52381 0.03665 0.0
O306 O 0.76932 0.49888 0.18051 0.0
O307 O 0.80847 0.52017 0.08405 0.0
C308 C 0.77875 0.55257 0.10007 0.0
C309 C 0.70335 0.54135 0.13835 0.0
C310 C 0.68223 0.55411 0.17781 0.0
C311 C 0.70193 0.55397 0.18767 0.0
C312 C 0.66399 0.54134 0.11753 0.0
C313 C 0.68494 0.52873 0.0789 0.0
C314 C 0.66537 0.52875 0.06866 0.0
C315 C 0.76605 0.53077 0.26264 0.0
C316 C 0.72427 0.5418 0.14924 0.0
C317 C 0.65992 0.47075 0.88232 0.0
C318 C 0.65407 0.46199 0.93744 0.0
C319 C 0.75015 0.49434 0.14327 0.0
C320 C 0.83026 0.50929 0.13502 0.0
C321 C 0.83097 0.49333 0.13508 0.0
C322 C 0.85177 0.49501 0.15536 0.0
C323 C 0.87169 0.51289 0.17687 0.0
C324 C 0.85049 0.52689 0.15699 0.0
C325 C 0.871 0.52864 0.17789 0.0
C326 C 0.76241 0.51505 -0.0133 0.0
C327 C 0.80847 0.50747 0.11221 0.0
H328 H 0.71611 0.56353 0.23407 0.0
H329 H 0.64871 0.54122 0.10756 0.0
H330 H 0.68573 0.51898 0.04023 0.0
H331 H 0.65126 0.51903 0.02242 0.0
H332 H 0.81544 0.47968 0.1182 0.0
H333 H 0.88789 0.51472 0.19374 0.0
H334 H 0.85052 0.53934 0.15782 0.0
H335 H 0.88648 0.54229 0.19483 0.0
Tb336 Tb 0.53484 0.18296 0.13164 0.0
C337 C 0.50885 0.23616 0.24567 0.0
C338 C 0.47114 0.22199 0.1709 0.0
C339 C 0.48212 0.24037 0.29388 0.0
C340 C 0.49282 0.22531 0.18102 0.0
C341 C 0.50393 0.2442 0.30243 0.0
C342 C 0.46572 0.22923 0.22823 0.0
C343 C 0.54288 0.26025 0.36934 0.0
N344 N 0.52965 0.23946 0.25172 0.0
C345 C 0.54691 0.25193 0.31139 0.0
C346 C 0.52123 0.25618 0.36524 0.0
Tb347 Tb 0.53448 0.22482 0.155 0.0
N348 N 0.4989 0.21889 0.12679 0.0
C349 C 0.48442 0.21008 0.05921 0.0
C350 C 0.45582 0.21198 0.10295 0.0
C351 C 0.46262 0.20624 0.0466 0.0
H352 H 0.56367 0.25506 0.31517 0.0
H353 H 0.45106 0.19882 -0.0066 0.0
H354 H 0.4491 0.2267 0.22173 0.0
H355 H 0.55647 0.26976 0.41713 0.0
H356 H 0.48923 0.20545 0.01487 0.0
H357 H 0.61621 0.2044 0.29484 0.0
H358 H 0.43896 0.20904 0.09298 0.0
H359 H 0.50609 0.1554 0.96511 0.0
H360 H 0.57951 0.20067 0.27161 0.0
H361 H 0.51293 0.14081 0.8624 0.0
H362 H 0.47791 0.24626 0.33707 0.0
H363 H 0.62738 0.19282 0.19592 0.0
H364 H 0.61735 0.17608 0.06604 0.0
H365 H 0.51815 0.26266 0.41013 0.0
H366 H 0.58923 0.15877 0.94821 0.0
N367 N 0.56969 0.18739 0.15942 0.0
C368 C 0.58391 0.19545 0.22753 0.0
C369 C 0.61115 0.19113 0.18518 0.0
C370 C 0.59617 0.18214 0.11639 0.0
C371 C 0.60487 0.19763 0.24115 0.0
C372 C 0.57524 0.1803 0.10539 0.0
H373 H 0.55016 0.14537 0.87201 0.0
N374 N 0.53939 0.16869 0.0325 0.0
C375 C 0.52624 0.14924 0.91182 0.0
C376 C 0.55956 0.17064 0.03949 0.0
C377 C 0.52243 0.15754 0.97041 0.0
C378 C 0.54728 0.15187 0.9174 0.0
C379 C 0.56417 0.16247 0.98213 0.0
O380 O 0.5095 0.1549 0.11806 0.0
O381 O 0.51462 0.19467 0.14193 0.0
O382 O 0.52839 0.21524 0.25068 0.0
O383 O 0.54387 0.19742 0.24584 0.0
O384 O 0.50018 0.16986 0.06847 0.0
O385 O 0.53703 0.17019 0.21391 0.0
O386 O 0.56225 0.25209 0.1686 0.0
O387 O 0.55372 0.21247 0.14485 0.0
O388 O 0.54235 0.19375 0.03877 0.0
O389 O 0.52571 0.21067 0.04076 0.0
O390 O 0.56977 0.23769 0.21619 0.0
O391 O 0.53277 0.24005 0.08167 0.0
C392 C 0.49616 0.18175 0.09661 0.0
C393 C 0.52218 0.13807 0.17205 0.0
C394 C 0.52255 0.11402 0.2229 0.0
C395 C 0.52066 0.12952 0.2291 0.0
C396 C 0.5266 0.10762 0.15982 0.0
C397 C 0.52594 0.13113 0.10957 0.0
C398 C 0.5283 0.11613 0.10384 0.0
C399 C 0.53649 0.20652 0.28062 0.0
C400 C 0.51949 0.15393 0.17735 0.0
C401 C 0.58528 0.16481 -0.00822 0.0
C402 C 0.60127 0.17465 0.05885 0.0
C403 C 0.57259 0.22506 0.18733 0.0
C404 C 0.55481 0.27327 0.12934 0.0
C405 C 0.57386 0.28954 0.12165 0.0
C406 C 0.57652 0.30711 0.14049 0.0
C407 C 0.55971 0.30795 0.16581 0.0
C408 C 0.53843 0.27479 0.15434 0.0
C409 C 0.54087 0.29197 0.1722 0.0
C410 C 0.53375 0.20198 0.00723 0.0
C411 C 0.55258 0.255 0.11493 0.0
H412 H 0.51752 0.13465 0.27725 0.0
H413 H 0.52859 0.09603 0.15383 0.0
H414 H 0.52686 0.13712 0.06465 0.0
H415 H 0.53131 0.111 0.0555 0.0
H416 H 0.58674 0.2886 0.10293 0.0
H417 H 0.56112 0.32107 0.18041 0.0
H418 H 0.52377 0.2627 0.16059 0.0
H419 H 0.52811 0.29293 0.19165 0.0
Tb420 Tb 0.94981 0.36594 0.2208 0.0
C421 C 0.88453 0.29035 0.26459 0.0
C422 C 0.88803 0.26843 0.18521 0.0
C423 C 0.87801 0.26235 0.29634 0.0
C424 C 0.88939 0.28536 0.20271 0.0
C425 C 0.87826 0.27874 0.31143 0.0
C426 C 0.88291 0.2572 0.2333 0.0
C427 C 0.87099 0.29954 0.38059 0.0
N428 N 0.8849 0.30625 0.277 0.0
C429 C 0.8773 0.31057 0.33239 0.0
C430 C 0.8718 0.28369 0.37069 0.0
Tb431 Tb 0.89558 0.3235 0.19543 0.0
N432 N 0.89389 0.29645 0.15724 0.0
C433 C 0.89538 0.29056 0.09041 0.0
C434 C 0.89099 0.26298 0.11875 0.0
C435 C 0.89434 0.27396 0.07071 0.0
H436 H 0.87682 0.32289 0.34081 0.0
H437 H 0.89613 0.26967 0.01842 0.0
H438 H 0.88205 0.24426 0.22119 0.0
H439 H 0.86562 0.30331 0.42547 0.0
H440 H 0.89794 0.29876 0.05236 0.0
H441 H 0.95041 0.42032 0.39736 0.0
H442 H 0.89 0.25005 0.1031 0.0
H443 H 0.96705 0.36543 0.07145 0.0
H444 H 0.94482 0.38979 0.35905 0.0
H445 H 0.9786 0.38491 -0.01294 0.0
H446 H 0.87346 0.25331 0.332 0.0
H447 H 0.96134 0.44157 0.31866 0.0
H448 H 0.96916 0.44722 0.20044 0.0
H449 H 0.86687 0.27516 0.40802 0.0
H450 H 0.97577 0.43718 0.08694 0.0
N451 N 0.95154 0.39303 0.25745 0.0
C452 C 0.94913 0.39861 0.3231 0.0
C453 C 0.95826 0.42789 0.30043 0.0
C454 C 0.96059 0.42214 0.23322 0.0
C455 C 0.9523 0.416 0.34527 0.0
C456 C 0.95733 0.40451 0.21344 0.0
H457 H 0.97944 0.41399 0.00705 0.0
N458 N 0.95992 0.38264 0.13686 0.0
C459 C 0.97367 0.38899 0.03255 0.0
C460 C 0.96127 0.39898 0.15025 0.0
C461 C 0.96707 0.37796 0.08063 0.0
C462 C 0.97402 0.40535 0.04384 0.0
C463 C 0.96832 0.41078 0.10422 0.0
O464 O 0.98181 0.37042 0.22777 0.0
O465 O 0.93138 0.33607 0.20858 0.0
O466 O 0.91701 0.32899 0.29982 0.0
O467 O 0.94186 0.36104 0.32465 0.0
O468 O 0.95652 0.34714 0.1588 0.0
O469 O 0.97598 0.38334 0.31668 0.0
O470 O 0.86386 0.31894 0.19682 0.0
O471 O 0.91422 0.35313 0.20597 0.0
O472 O 0.92844 0.36004 0.11525 0.0
O473 O 0.90256 0.32802 0.0903 0.0
O474 O 0.88918 0.34321 0.25473 0.0
O475 O 0.86868 0.30717 0.10148 0.0
C476 C 0.94154 0.3319 0.16956 0.0
C477 C 1.01261 0.40022 0.29873 0.0
C478 C 0.05202 0.42473 0.36276 0.0
C479 C 1.03184 0.4076 0.35705 0.0
C480 C 0.0526 0.43414 0.30954 0.0
C481 C 1.01425 0.40996 0.24628 0.0
C482 C 1.03391 0.42677 0.25188 0.0
C483 C 0.93133 0.34554 0.34572 0.0
C484 C 0.99109 0.38232 0.29099 0.0
C485 C 0.97049 0.42796 0.12176 0.0
C486 C 0.96677 0.43369 0.18642 0.0
C487 C 0.904 0.35805 0.24111 0.0
C488 C 0.83274 0.28949 0.12481 0.0
C489 C 0.81285 0.28863 0.13097 0.0
C490 C 0.79249 0.27128 0.12085 0.0
C491 C 0.79257 0.25501 0.10629 0.0
C492 C 0.83206 0.2729 0.11044 0.0
C493 C 0.81217 0.25586 0.10157 0.0
C494 C 0.91366 0.3435 0.0694 0.0
C495 C 0.85402 0.30757 0.1326 0.0
H496 H 1.03109 0.40015 0.39753 0.0
H497 H 0.06783 0.44707 0.31147 0.0
H498 H 1.00054 0.40452 0.1999 0.0
H499 H 1.03473 0.43401 0.21066 0.0
H500 H 0.8131 0.30132 0.14201 0.0
H501 H 0.77739 0.24154 0.09907 0.0
H502 H 0.84686 0.27301 0.1055 0.0
H503 H 0.81192 0.24319 0.09055 0.0
Tb504 Tb 0.47544 0.93357 0.80779 0.0
C505 C 0.37802 0.87693 0.62309 0.0
C506 C 0.35364 0.88271 0.67864 0.0
C507 C 0.34254 0.86938 0.54931 0.0
C508 C 0.37398 0.8837 0.68349 0.0
C509 C 0.36218 0.86933 0.55539 0.0
C510 C 0.33825 0.87603 0.61094 0.0
C511 C 0.38522 0.86051 0.50659 0.0
N512 N 0.39695 0.87681 0.63166 0.0
C513 C 0.40033 0.8681 0.57501 0.0
C514 C 0.3662 0.86134 0.4965 0.0
Tb515 Tb 0.42078 0.88953 0.74575 0.0
N516 N 0.38906 0.88965 0.74792 0.0
C517 C 0.3838 0.89334 0.8103 0.0
C518 C 0.34889 0.88758 0.7422 0.0
C519 C 0.36389 0.89263 0.8084 0.0
H520 H 0.41501 0.86744 0.58178 0.0
H521 H 0.36017 0.89605 0.85805 0.0
H522 H 0.32266 0.87537 0.60601 0.0
H523 H 0.38828 0.85405 0.46168 0.0
H524 H 0.39512 0.89729 0.86201 0.0
H525 H 0.53053 0.91961 0.69112 0.0
H526 H 0.33341 0.88693 0.74083 0.0
H527 H 0.48553 0.9598 0.96844 0.0
H528 H 0.49778 0.92163 0.68926 0.0
H529 H 0.5135 0.97388 0.0862 0.0
H530 H 0.33024 0.86375 0.49769 0.0
H531 H 0.55816 0.92914 0.80678 0.0
H532 H 0.57148 0.94338 0.94091 0.0
H533 H 0.35445 0.85535 0.44355 0.0
H534 H 0.56701 0.95847 0.04883 0.0
N535 N 0.50609 0.9319 0.80331 0.0
C536 C 0.5096 0.92601 0.74037 0.0
C537 C 0.54374 0.9301 0.80637 0.0
C538 C 0.54087 0.93725 0.8701 0.0
C539 C 0.52824 0.92479 0.74104 0.0
C540 C 0.52177 0.93815 0.86639 0.0
H541 H 0.54566 0.9703 0.10324 0.0
N542 N 0.50137 0.94804 0.91845 0.0
C543 C 0.51533 0.96618 0.04172 0.0
C544 C 0.51935 0.94661 0.92638 0.0
C545 C 0.49951 0.9582 0.97452 0.0
C546 C 0.53341 0.96408 0.05121 0.0
C547 C 0.53579 0.95441 -0.00717 0.0
O548 O 0.48282 0.96078 0.8202 0.0
O549 O 0.43925 0.91946 0.77852 0.0
O550 O 0.42529 0.90388 0.66057 0.0
O551 O 0.46427 0.92087 0.69134 0.0
O552 O 0.45731 0.94452 0.8541 0.0
O553 O 0.48939 0.94797 0.73239 0.0
O554 O 0.41277 0.86205 0.72431 0.0
O555 O 0.45701 0.90355 0.78189 0.0
O556 O 0.47026 0.9211 0.89839 0.0
O557 O 0.43099 0.90102 0.86328 0.0
O558 O 0.4403 0.87963 0.7019 0.0
O559 O 0.40458 0.87303 0.81282 0.0
C560 C 0.43733 0.93124 0.81789 0.0
C561 C 0.51036 0.98083 0.76771 0.0
C562 C 0.52748 1.00905 0.72549 0.0
C563 C 0.50864 0.99152 0.72264 0.0
C564 C 0.5481 1.01561 0.77461 0.0
C565 C 0.53105 0.98762 0.81601 0.0
C566 C 0.54982 1.00496 0.81935 0.0
C567 C 0.44464 0.9136 0.64456 0.0
C568 C 0.49023 0.96271 0.76314 0.0
C569 C 0.55429 0.95274 -0.00189 0.0
C570 C 0.55683 0.94414 0.93673 0.0
C571 C 0.45987 0.8924 0.74294 0.0
C572 C 0.38048 0.84078 0.7558 0.0
C573 C 0.37919 0.82441 0.76177 0.0
C574 C 0.35822 0.80734 0.74369 0.0
C575 C 0.33854 0.80691 0.71898 0.0
C576 C 0.36063 0.84004 0.73141 0.0
C577 C 0.3398 0.82318 0.71294 0.0
C578 C 0.45072 0.9105 0.91256 0.0
C579 C 0.40268 0.85837 0.77533 0.0
H580 H 0.49249 0.98624 0.68598 0.0
H581 H 0.56304 0.02886 0.77774 0.0
H582 H 0.53264 0.97953 0.85095 0.0
H583 H 0.56581 1.01016 0.85661 0.0
H584 H 0.39454 0.82507 0.7817 0.0
H585 H 0.32218 0.79398 0.7037 0.0
H586 H 0.36113 0.85242 0.72691 0.0
H587 H 0.32457 0.82272 0.69393 0.0
Tb588 Tb 0.3295 0.53752 0.76945 0.0
C589 C 0.26102 0.55479 0.71139 0.0
C590 C 0.26054 0.56703 0.60784 0.0
C591 C 0.22542 0.54623 0.63403 0.0
C592 C 0.27232 0.56523 0.66755 0.0
C593 C 0.23745 0.54579 0.69669 0.0
C594 C 0.23696 0.55684 0.58955 0.0
C595 C 0.23968 0.53877 0.81132 0.0
N596 N 0.27333 0.55483 0.77173 0.0
C597 C 0.26298 0.54783 0.8235 0.0
C598 C 0.22678 0.53735 0.74692 0.0
Tb599 Tb 0.3114 0.56896 0.78123 0.0
N600 N 0.29507 0.57515 0.68779 0.0
C601 C 0.30708 0.58907 0.65657 0.0
C602 C 0.27285 0.57978 0.57079 0.0
C603 C 0.29622 0.5912 0.59648 0.0
H604 H 0.27216 0.54912 0.87516 0.0
H605 H 0.30588 0.6017 0.57026 0.0
H606 H 0.22759 0.55777 0.54314 0.0
H607 H 0.2317 0.53295 0.85198 0.0
H608 H 0.32513 0.59815 0.67626 0.0
H609 H 0.41485 0.5795 0.94226 0.0
H610 H 0.26444 0.58158 0.52466 0.0
H611 H 0.30954 0.5039 0.61618 0.0
H612 H 0.37393 0.56268 0.91634 0.0
H613 H 0.32411 0.49722 0.51758 0.0
H614 H 0.20728 0.53907 0.62117 0.0
H615 H 0.4328 0.57902 0.84415 0.0
H616 H 0.42838 0.56588 0.71458 0.0
H617 H 0.20876 0.53043 0.73791 0.0
H618 H 0.40347 0.54323 0.59801 0.0
N619 N 0.36801 0.55295 0.80278 0.0
C620 C 0.38113 0.56224 0.87215 0.0
C621 C 0.41465 0.57152 0.83208 0.0
C622 C 0.40112 0.56074 0.76241 0.0
C623 C 0.40457 0.57178 0.88759 0.0
C624 C 0.37757 0.55121 0.74971 0.0
H625 H 0.36454 0.51718 0.52459 0.0
N626 N 0.34116 0.52833 0.67726 0.0
C627 C 0.33539 0.50901 0.56385 0.0
C628 C 0.36364 0.53844 0.68454 0.0
C629 C 0.32717 0.51294 0.61996 0.0
C630 C 0.3582 0.52033 0.56793 0.0
C631 C 0.37276 0.53493 0.62974 0.0
O632 O 0.30746 0.51524 0.80861 0.0
O633 O 0.30116 0.54048 0.7642 0.0
O634 O 0.30562 0.55432 0.86541 0.0
O635 O 0.33648 0.55265 0.87942 0.0
O636 O 0.29646 0.51827 0.69142 0.0
O637 O 0.34034 0.52165 0.81142 0.0
O638 O 0.33126 0.58741 0.88347 0.0
O639 O 0.34038 0.56653 0.79922 0.0
O640 O 0.32793 0.54388 0.66516 0.0
O641 O 0.31026 0.56035 0.66779 0.0
O642 O 0.34208 0.58652 0.7508 0.0
O643 O 0.30964 0.59225 0.81711 0.0
C644 C 0.28703 0.52671 0.71099 0.0
C645 C 0.31168 0.48993 0.79349 0.0
C646 C 0.28687 0.45768 0.7973 0.0
C647 C 0.29626 0.47687 0.82435 0.0
C648 C 0.29315 0.45179 0.73903 0.0
C649 C 0.31794 0.48364 0.73629 0.0
C650 C 0.30861 0.4647 0.70906 0.0
C651 C 0.32097 0.5531 0.90563 0.0
C652 C 0.32113 0.50998 0.82156 0.0
C653 C 0.39615 0.5455 0.6399 0.0
C654 C 0.41033 0.5584 0.70625 0.0
C655 C 0.35289 0.5794 0.77235 0.0
C656 C 0.34524 0.61873 0.8871 0.0
C657 C 0.3421 0.63178 0.86185 0.0
C658 C 0.36049 0.65015 0.87281 0.0
C659 C 0.38208 0.65527 0.90907 0.0
C660 C 0.36696 0.62441 0.92484 0.0
C661 C 0.38523 0.64247 0.93494 0.0
C662 C 0.31859 0.5518 0.63488 0.0
C663 C 0.3261 0.59926 0.87446 0.0
H664 H 0.29148 0.48163 0.86889 0.0
H665 H 0.28648 0.43719 0.7176 0.0
H666 H 0.33019 0.49333 0.71287 0.0
H667 H 0.31353 0.46 0.66488 0.0
H668 H 0.32543 0.62763 0.83323 0.0
H669 H 0.39651 0.66933 0.91908 0.0
H670 H 0.36989 0.6149 0.94671 0.0
H671 H 0.40188 0.64662 0.96355 0.0
Tb672 Tb 0.62131 0.71613 0.83584 0.0
C673 C 0.66997 0.79152 0.89481 0.0
C674 C 0.68156 0.80801 0.02029 0.0
C675 C 0.70816 0.81859 0.94796 0.0
C676 C 0.66519 0.79318 0.96016 0.0
C677 C 0.69137 0.8045 0.8874 0.0
C678 C 0.70326 0.82035 0.01439 0.0
C679 C 0.67753 0.78949 0.76012 0.0
N680 N 0.65339 0.77754 0.83781 0.0
C681 C 0.65668 0.77691 0.77033 0.0
C682 C 0.69511 0.80316 0.81911 0.0
Tb683 Tb 0.61983 0.75715 0.86024 0.0
N684 N 0.644 0.78107 0.96339 0.0
C685 C 0.63743 0.78466 0.02317 0.0
C686 C 0.67537 0.81048 0.08359 0.0
C687 C 0.65306 0.79898 0.08447 0.0
H688 H 0.64336 0.76706 0.72341 0.0
H689 H 0.64782 0.80122 0.13212 0.0
H690 H 0.71613 0.83165 0.06022 0.0
H691 H 0.67999 0.78867 0.70658 0.0
H692 H 0.6201 0.77611 0.02437 0.0
H693 H 0.54635 0.6673 0.62094 0.0
H694 H 0.68743 0.82169 0.1309 0.0
H695 H 0.64404 0.71072 -0.01569 0.0
H696 H 0.5808 0.69764 0.6839 0.0
H697 H 0.63315 0.68716 0.05291 0.0
H698 H 0.72478 0.8285 0.94354 0.0
H699 H 0.53279 0.64162 0.67947 0.0
H700 H 0.53771 0.63029 0.7881 0.0
H701 H 0.71126 0.81286 0.81109 0.0
H702 H 0.56044 0.6362 0.90818 0.0
N703 N 0.58652 0.68986 0.7796 0.0
C704 C 0.57495 0.68686 0.71133 0.0
C705 C 0.54763 0.65515 0.70853 0.0
C706 C 0.55943 0.65824 0.77843 0.0
C707 C 0.55534 0.66956 0.67507 0.0
C708 C 0.57912 0.67594 0.81273 0.0
H709 H 0.59595 0.65745 0.00793 0.0
N710 N 0.61224 0.69559 0.906 0.0
C711 C 0.62136 0.68476 0.0045 0.0
C712 C 0.59223 0.67904 0.87899 0.0
C713 C 0.62736 0.69818 0.96592 0.0
C714 C 0.60035 0.66804 0.97901 0.0
C715 C 0.58578 0.66476 0.91435 0.0
O716 O 0.64909 0.71359 0.84236 0.0
O717 O 0.64132 0.74644 0.85156 0.0
O718 O 0.60845 0.74413 0.74502 0.0
O719 O 0.62036 0.72385 0.73401 0.0
O720 O 0.65241 0.73514 0.91932 0.0
O721 O 0.62232 0.70008 0.74564 0.0
O722 O 0.6083 0.76683 0.78212 0.0
O723 O 0.60025 0.72694 0.82496 0.0
O724 O 0.61351 0.71975 0.93878 0.0
O725 O 0.6217 0.75012 0.96355 0.0
O726 O 0.58693 0.73905 0.88027 0.0
O727 O 0.60509 0.77208 0.8885 0.0
C728 C 0.65769 0.75037 0.90291 0.0
C729 C 0.64192 0.68566 0.76983 0.0
C730 C 0.65119 0.66505 0.70724 0.0
C731 C 0.64943 0.68057 0.71317 0.0
C732 C 0.64499 0.65453 0.75746 0.0
C733 C 0.63568 0.67474 0.81866 0.0
C734 C 0.63717 0.65931 0.81249 0.0
C735 C 0.61258 0.73304 0.70633 0.0
C736 C 0.64107 0.70245 0.77803 0.0
C737 C 0.56566 0.64737 0.88207 0.0
C738 C 0.55269 0.64403 0.81373 0.0
C739 C 0.58321 0.72334 0.84787 0.0
C740 C 0.60946 0.79445 0.82381 0.0
C741 C 0.59486 0.80073 0.82859 0.0
C742 C 0.60098 0.81859 0.81977 0.0
C743 C 0.62194 0.82959 0.80518 0.0
C744 C 0.63043 0.8063 0.81232 0.0
C745 C 0.63651 0.82364 0.80281 0.0
C746 C 0.61729 0.73484 0.98233 0.0
C747 C 0.60233 0.77517 0.82588 0.0
H748 H 0.65426 0.68881 0.6748 0.0
H749 H 0.64596 0.64243 0.75357 0.0
H750 H 0.62977 0.67806 0.86196 0.0
H751 H 0.6323 0.65106 0.85072 0.0
H752 H 0.57886 0.79165 0.83882 0.0
H753 H 0.62721 0.84282 0.79396 0.0
H754 H 0.64194 0.80197 0.80868 0.0
H755 H 0.65254 0.83244 0.79209 0.0
H756 H 0.14801 0.3266 0.06114 0.0
H757 H 0.16464 0.3507 -0.00281 0.0
H758 H 0.22639 0.35277 0.04609 0.0
H759 H 0.20972 0.32836 0.10743 0.0
H760 H 0.20186 0.38665 0.04988 0.0
H761 H 0.21512 0.34798 0.83186 0.0
H762 H 0.19741 0.33666 0.88829 0.0
H763 H 0.22745 0.34825 0.91954 0.0
C764 C 0.16498 0.33194 0.05704 0.0
C765 C 0.1775 0.32551 0.08951 0.0
C766 C 0.17453 0.34583 0.02099 0.0
C767 C 0.19671 0.35344 0.01607 0.0
C768 C 0.20914 0.34693 0.04794 0.0
H769 H 0.29089 0.45889 0.94052 0.0
H770 H 0.26729 0.43401 -0.00716 0.0
C771 C 0.19963 0.33308 0.08378 0.0
C772 C 0.20725 0.3686 0.97989 0.0
H773 H 0.23534 0.38097 0.85091 0.0
C774 C 0.20899 0.38536 0.00587 0.0
C775 C 0.2163 0.36687 0.9218 0.0
C776 C 0.21379 0.3489 0.88821 0.0
C777 C 0.22015 0.40059 0.97693 0.0
C778 C 0.23024 0.39917 0.92138 0.0
C779 C 0.22786 0.3822 0.89398 0.0
C780 C 0.24349 0.41503 0.89089 0.0
C781 C 0.2208 0.41798 0.00574 0.0
C782 C 0.23816 0.41272 0.81615 0.0
C783 C 0.25177 0.42684 0.78618 0.0
C784 C 0.27106 0.44364 0.83023 0.0
C785 C 0.27599 0.44622 0.90527 0.0
C786 C 0.26245 0.432 0.93524 0.0
H787 H 0.20677 0.41492 0.03047 0.0
H788 H 0.2368 0.42794 0.0481 0.0
H789 H 0.21989 0.42477 0.96257 0.0
H790 H 0.22365 0.39981 0.78071 0.0
H791 H 0.2474 0.42448 0.72823 0.0
H792 H 0.86102 0.80962 0.86661 0.0
H793 H 0.82225 0.80082 0.85489 0.0
H794 H 0.8356 0.81478 0.08643 0.0
H795 H 0.87473 0.82463 0.09765 0.0
H796 H 0.78946 0.77492 0.88355 0.0
H797 H 0.80266 0.83807 0.05531 0.0
H798 H 0.82579 0.83682 0.03944 0.0
H799 H 0.81267 0.82711 0.10692 0.0
C800 C 0.8558 0.81125 0.91503 0.0
C801 C 0.8713 0.81846 0.98299 0.0
C802 C 0.83347 0.80607 0.90841 0.0
C803 C 0.82555 0.80737 0.96959 0.0
C804 C 0.84103 0.81421 0.03784 0.0
H805 H 0.6913 0.77053 0.02608 0.0
H806 H 0.73157 0.78454 0.04061 0.0
C807 C 0.86359 0.81985 0.04441 0.0
C808 C 0.80093 0.80049 0.96082 0.0
H809 H 0.76499 0.81151 0.01458 0.0
C810 C 0.78428 0.78312 0.91192 0.0
C811 C 0.7935 0.81065 -0.00128 0.0
C812 C 0.80961 0.82926 0.05266 0.0
C813 C 0.76103 0.77575 0.9002 0.0
C814 C 0.75373 0.78622 0.93628 0.0
C815 C 0.77027 0.80345 -0.01423 0.0
C816 C 0.72915 0.77925 0.92638 0.0
C817 C 0.74458 0.75638 0.85128 0.0
C818 C 0.71399 0.77221 0.85747 0.0
C819 C 0.69076 0.764 0.84922 0.0
C820 C 0.68215 0.7633 0.90969 0.0
C821 C 0.69743 0.77128 0.97843 0.0
C822 C 0.72055 0.77921 -0.0133 0.0
H823 H 0.75231 0.74819 0.84681 0.0
H824 H 0.72944 0.7487 0.8709 0.0
H825 H 0.73922 0.7573 0.79641 0.0
H826 H 0.71996 0.77251 0.80968 0.0
H827 H 0.67942 0.75739 0.7955 0.0
H828 H 0.2661 0.9469 0.80142 0.0
H829 H 0.2946 0.94156 0.77331 0.0
H830 H 0.33981 0.97773 0.98128 0.0
H831 H 0.31146 0.98367 0.00832 0.0
H832 H 0.36268 0.98239 0.88181 0.0
H833 H 0.30684 0.90668 0.84907 0.0
H834 H 0.29499 0.91476 0.78778 0.0
H835 H 0.29977 0.92283 0.8833 0.0
C836 C 0.28225 0.95392 0.84075 0.0
C837 C 0.2865 0.96565 0.90723 0.0
C838 C 0.29847 0.95068 0.82498 0.0
C839 C 0.3192 0.9587 0.87599 0.0
C840 C 0.32391 0.97118 0.94113 0.0
H841 H 0.42743 0.94138 0.93677 0.0
H842 H 0.39866 0.9481 0.94556 0.0
C843 C 0.30775 0.97465 0.95653 0.0
C844 C 0.33565 0.95376 0.86197 0.0
H845 H 0.34122 0.91698 0.81828 0.0
C846 C 0.35791 0.96807 0.86784 0.0
C847 C 0.32965 0.93506 0.84409 0.0
C848 C 0.30659 0.91897 0.8414 0.0
C849 C 0.37408 0.96421 0.85593 0.0
C850 C 0.36796 0.94556 0.83745 0.0
C851 C 0.34578 0.93124 0.83116 0.0
C852 C 0.38489 0.94084 0.83052 0.0
C853 C 0.39777 0.98007 0.86374 0.0
C854 C 0.38658 0.93428 0.76271 0.0
C855 C 0.40305 0.93033 0.75753 0.0
C856 C 0.41773 0.93252 0.8202 0.0
C857 C 0.41595 0.93911 0.88767 0.0
C858 C 0.39962 0.94306 0.89279 0.0
H859 H 0.39919 0.99354 0.86862 0.0
H860 H 0.40913 0.98134 0.91269 0.0
H861 H 0.40364 0.97728 0.81676 0.0
H862 H 0.3754 0.93251 0.71392 0.0
H863 H 0.40459 0.92591 0.70491 0.0
H864 H 0.45852 0.16013 -0.01254 0.0
H865 H 0.41967 0.14094 -0.00727 0.0
H866 H 0.44053 0.16532 0.22184 0.0
H867 H 0.4798 0.18484 0.21629 0.0
H868 H 0.40439 0.11416 0.06265 0.0
H869 H 0.3828 0.1641 0.16623 0.0
H870 H 0.40693 0.17093 0.13106 0.0
H871 H 0.40799 0.16777 0.22028 0.0
C872 C 0.4548 0.16189 0.03882 0.0
C873 C 0.47243 0.17432 0.10116 0.0
C874 C 0.43245 0.1507 0.0419 0.0
C875 C 0.42668 0.15141 0.10758 0.0
C876 C 0.44412 0.1645 0.16996 0.0
H877 H 0.29764 0.07842 0.21001 0.0
H878 H 0.33632 0.10309 0.21512 0.0
C879 C 0.46671 0.17581 0.16683 0.0
C880 C 0.40292 0.13731 0.11005 0.0
H881 H 0.35584 0.1322 0.1534 0.0
C882 C 0.39386 0.11822 0.08247 0.0
C883 C 0.38883 0.14226 0.13624 0.0
C884 C 0.39697 0.16236 0.16462 0.0
C885 C 0.37164 0.1042 0.08055 0.0
C886 C 0.35733 0.1091 0.10522 0.0
C887 C 0.36646 0.12819 0.13394 0.0
C888 C 0.33305 0.09461 0.10145 0.0
C889 C 0.36396 0.08414 0.05347 0.0
C890 C 0.3177 0.08154 0.03589 0.0
C891 C 0.29551 0.06745 0.03302 0.0
C892 C 0.28764 0.06621 0.09517 0.0
C893 C 0.3029 0.07923 0.16074 0.0
C894 C 0.32511 0.09338 0.16365 0.0
H895 H 0.37843 0.08259 0.05787 0.0
H896 H 0.35275 0.07531 0.08382 0.0
H897 H 0.35455 0.0789 -0.00425 0.0
H898 H 0.32289 0.08212 -0.01346 0.0
H899 H 0.28449 0.05737 0.98201 0.0
H900 H 0.94816 0.31638 0.05419 0.0
H901 H 0.96094 0.29527 0.04574 0.0
H902 H 0.9575 0.29232 0.26297 0.0
H903 H 0.94363 0.31293 0.26995 0.0
H904 H 0.9985 0.30234 0.11602 0.0
H905 H 0.9334 0.23924 0.17661 0.0
H906 H 0.92884 0.25686 0.15766 0.0
H907 H 0.94413 0.25998 0.24617 0.0
C908 C 0.94943 0.31073 0.09936 0.0
C909 C 0.94447 0.31605 0.16217 0.0
C910 C 0.95693 0.29873 0.09472 0.0
C911 C 0.96025 0.29195 0.15344 0.0
C912 C 0.95466 0.29684 0.21594 0.0
H913 H 1.04136 0.24774 0.26343 0.0
H914 H 1.01697 0.25957 0.2594 0.0
C915 C 0.94671 0.30868 0.22011 0.0
C916 C 0.9716 0.28144 0.15062 0.0
H917 H 0.96849 0.24226 0.17875 0.0
C918 C 0.99166 0.28909 0.12896 0.0
C919 C 0.96301 0.26412 0.16774 0.0
C920 C 0.94105 0.25446 0.18766 0.0
C921 C 1.00336 0.28021 0.12493 0.0
C922 C 0.99494 0.26308 0.14282 0.0
C923 C 0.97494 0.25535 0.16462 0.0
C924 C 1.00758 0.25374 0.14338 0.0
C925 C 1.02508 0.28951 0.10331 0.0
C926 C 1.01018 0.2461 0.07932 0.0
C927 C 1.02402 0.2391 0.08149 0.0
C928 C 1.03546 0.23957 0.14783 0.0
C929 C 1.03249 0.24693 0.21149 0.0
C930 C 1.01853 0.25369 0.20927 0.0
H931 H 1.03111 0.30401 0.1016 0.0
H932 H 1.03838 0.28972 0.14143 0.0
H933 H 1.0225 0.28149 0.04896 0.0
H934 H 1.00192 0.24594 0.02771 0.0
H935 H 1.02637 0.23394 0.03166 0.0
H936 H 0.89586 0.73394 0.1734 0.0
H937 H 0.87687 0.70289 0.19605 0.0
H938 H 0.86343 0.67769 0.97161 0.0
H939 H 0.88264 0.70844 0.94953 0.0
H940 H 0.83531 0.67021 0.14891 0.0
H941 H 0.89556 0.65623 0.05993 0.0
H942 H 0.89996 0.67894 0.07427 0.0
H943 H 0.88191 0.66136 -0.00918 0.0
C944 C 0.88845 0.72174 0.12868 0.0
C945 C 0.89087 0.72383 0.05953 0.0
C946 C 0.87771 0.70391 0.14175 0.0
C947 C 0.86916 0.68767 0.08615 0.0
C948 C 0.87042 0.68979 0.01639 0.0
H949 H 0.79293 0.56837 -0.00533 0.0
H950 H 0.81664 0.60137 0.00088 0.0
C951 C 0.88121 0.70749 0.00351 0.0
C952 C 0.85933 0.6686 0.10018 0.0
H953 H 0.86175 0.62983 0.06926 0.0
C954 C 0.84135 0.66153 0.13236 0.0
C955 C 0.8671 0.65701 0.07957 0.0
C956 C 0.88734 0.66383 0.04997 0.0
C957 C 0.83039 0.64317 0.14077 0.0
C958 C 0.8376 0.63136 0.1173 0.0
C959 C 0.856 0.63865 0.08728 0.0
C960 C 0.82504 0.61098 0.11677 0.0
C961 C 0.81045 0.63624 0.17183 0.0
C962 C 0.82233 0.60488 0.18012 0.0
C963 C 0.80893 0.58567 0.1767 0.0
C964 C 0.79799 0.57214 0.10978 0.0
C965 C 0.80146 0.57833 0.04722 0.0
C966 C 0.81494 0.59731 0.05067 0.0
H967 H 0.80455 0.64579 0.17594 0.0
H968 H 0.79629 0.62224 0.13826 0.0
H969 H 0.81521 0.63501 0.22666 0.0
H970 H 0.83012 0.61497 0.23218 0.0
H971 H 0.80619 0.58151 0.22582 0.0
H972 H 0.25619 0.50801 0.78168 0.0
H973 H 0.21508 0.48885 0.7337 0.0
H974 H 0.22175 0.50557 0.53641 0.0
H975 H 0.26285 0.52405 0.58351 0.0
H976 H 0.18406 0.49555 0.69098 0.0
H977 H 0.18299 0.45041 0.45695 0.0
H978 H 0.20817 0.46668 0.52874 0.0
H979 H 0.19937 0.47441 0.45722 0.0
C980 C 0.24875 0.50776 0.7285 0.0
C981 C 0.26252 0.51788 0.68695 0.0
C982 C 0.2253 0.49672 0.70087 0.0
C983 C 0.21516 0.49542 0.63075 0.0
C984 C 0.22904 0.50588 0.58983 0.0
H985 H 0.07908 0.46056 0.4452 0.0
H986 H 0.1177 0.47624 0.51777 0.0
C987 C 0.2525 0.51668 0.6171 0.0
C988 C 0.19017 0.4831 0.60051 0.0
H989 H 0.14866 0.44867 0.45419 0.0
C990 C 0.17636 0.48525 0.63936 0.0
C991 C 0.17986 0.46916 0.53417 0.0
C992 C 0.19336 0.46487 0.49227 0.0
C993 C 0.15276 0.47447 0.61248 0.0
C994 C 0.14256 0.46141 0.54387 0.0
C995 C 0.15633 0.45875 0.50641 0.0
C996 C 0.11796 0.45127 0.50767 0.0
C997 C 0.13906 0.47714 0.65847 0.0
C998 C 0.10487 0.43185 0.47742 0.0
C999 C 0.08263 0.42281 0.43481 0.0
C1000 C 0.07314 0.43304 0.42112 0.0
C1001 C 0.08588 0.45226 0.45471 0.0
C1002 C 0.108 0.46126 0.49683 0.0
H1003 H 0.14791 0.48188 0.71668 0.0
H1004 H 0.13655 0.48804 0.64559 0.0
H1005 H 0.12234 0.46412 0.6488 0.0
H1006 H 0.11212 0.42378 0.48464 0.0
H1007 H 0.0734 0.40804 0.40903 0.0
H1008 H 0.68552 0.65996 0.72248 0.0
H1009 H 0.69429 0.6448 0.62864 0.0
H1010 H 0.64256 0.64065 0.46752 0.0
H1011 H 0.63418 0.65632 0.56161 0.0
H1012 H 0.66511 0.60988 0.54967 0.0
H1013 H 0.69214 0.65574 0.36693 0.0
H1014 H 0.69075 0.66355 0.45605 0.0
H1015 H 0.66564 0.64996 0.38244 0.0
C1016 C 0.67646 0.65626 0.66675 0.0
C1017 C 0.6592 0.65929 0.64909 0.0
C1018 C 0.68142 0.64756 0.61321 0.0
C1019 C 0.66915 0.64161 0.54087 0.0
C1020 C 0.65258 0.64543 0.52266 0.0
H1021 H 0.64598 0.54754 0.2281 0.0
H1022 H 0.64319 0.56925 0.31373 0.0
C1023 C 0.64776 0.65435 0.57637 0.0
C1024 C 0.67205 0.62963 0.48661 0.0
H1025 H 0.68311 0.62489 0.32299 0.0
C1026 C 0.6692 0.61326 0.50035 0.0
C1027 C 0.67756 0.63407 0.42247 0.0
C1028 C 0.68192 0.65188 0.40626 0.0
C1029 C 0.6714 0.60112 0.45158 0.0
C1030 C 0.67604 0.60517 0.38618 0.0
C1031 C 0.67931 0.6217 0.37281 0.0
C1032 C 0.67747 0.59233 0.33119 0.0
C1033 C 0.66902 0.58416 0.47113 0.0
C1034 C 0.69747 0.59823 0.31076 0.0
C1035 C 0.69904 0.58588 0.26094 0.0
C1036 C 0.68059 0.5674 0.23027 0.0
C1037 C 0.66047 0.56168 0.25007 0.0
C1038 C 0.65891 0.57403 0.29965 0.0
H1039 H 0.67182 0.58581 0.53014 0.0
H1040 H 0.65174 0.57191 0.44425 0.0
H1041 H 0.68108 0.58129 0.45308 0.0
H1042 H 0.71196 0.61233 0.3341 0.0
H1043 H 0.71467 0.59086 0.24607 0.0
H1044 H 0.49843 0.07659 0.20717 0.0
H1045 H 0.49827 0.06009 0.29824 0.0
H1046 H 0.54162 0.1124 0.46071 0.0
H1047 H 0.5418 0.12908 0.36925 0.0
H1048 H 0.53565 0.06318 0.37686 0.0
H1049 H 0.4941 0.0817 0.5602 0.0
H1050 H 0.49268 0.08506 0.47074 0.0
H1051 H 0.51761 0.10113 0.54302 0.0
C1052 C 0.5078 0.08462 0.26242 0.0
C1053 C 0.52028 0.10419 0.2808 0.0
C1054 C 0.50764 0.07514 0.31451 0.0
C1055 C 0.51985 0.08494 0.38653 0.0
C1056 C 0.53175 0.10448 0.40578 0.0
H1057 H 0.54721 0.04691 0.75764 0.0
H1058 H 0.54562 0.06545 0.6767 0.0
C1059 C 0.53186 0.11402 0.35345 0.0
C1060 C 0.52128 0.07459 0.43951 0.0
H1061 H 0.50936 0.06484 0.59715 0.0
C1062 C 0.52984 0.06353 0.42493 0.0
C1063 C 0.51385 0.0751 0.50256 0.0
C1064 C 0.50386 0.08625 0.52005 0.0
C1065 C 0.53125 0.05305 0.47144 0.0
C1066 C 0.52349 0.0533 0.53389 0.0
C1067 C 0.51522 0.06457 0.54917 0.0
C1068 C 0.5238 0.0419 0.58363 0.0
C1069 C 0.54143 0.04205 0.45381 0.0
C1070 C 0.51175 1.02243 0.55878 0.0
C1071 C 0.51275 1.01178 0.60478 0.0
C1072 C 0.52575 1.02035 0.67701 0.0
C1073 C 0.53736 0.03984 0.70214 0.0
C1074 C 0.53633 0.05047 0.65605 0.0
H1075 H 0.55201 0.04727 0.41623 0.0
H1076 H 0.55187 0.04257 0.50336 0.0
H1077 H 0.52775 0.0273 0.42742 0.0
H1078 H 0.50163 1.01544 0.5035 0.0
H1079 H 0.5037 0.99686 0.58323 0.0
H1080 H 0.15243 0.09338 -0.01064 0.0
H1081 H 0.13071 0.10773 -0.0017 0.0
H1082 H 0.18255 0.15038 0.1849 0.0
H1083 H 0.20406 0.1361 0.17681 0.0
H1084 H 0.11593 0.12034 0.12308 0.0
H1085 H 0.17821 0.17762 0.02562 0.0
H1086 H 0.17518 0.15539 0.01295 0.0
H1087 H 0.18944 0.17201 0.09963 0.0
C1088 C 0.15885 0.10548 0.03353 0.0
C1089 C 0.18008 0.11364 0.08202 0.0
C1090 C 0.1465 0.11376 0.03832 0.0
C1091 C 0.15517 0.13036 0.09155 0.0
C1092 C 0.17562 0.13777 0.14275 0.0
H1093 H 0.0934 0.19359 0.19005 0.0
H1094 H 0.11451 0.17865 0.20196 0.0
C1095 C 0.18788 0.12952 0.13814 0.0
C1096 C 0.14387 0.14075 0.09103 0.0
H1097 H 0.1499 0.18057 0.05956 0.0
C1098 C 0.12337 0.13351 0.10935 0.0
C1099 C 0.15351 0.15796 0.07291 0.0
C1100 C 0.17522 0.16623 0.05112 0.0
C1101 C 0.11238 0.14306 0.11036 0.0
C1102 C 0.12212 0.16031 0.09264 0.0
C1103 C 0.14255 0.16748 0.07397 0.0
C1104 C 0.11048 0.17038 0.08751 0.0
C1105 C 0.09014 0.13446 0.12873 0.0
C1106 C 0.10169 0.17115 0.0197 0.0
C1107 C 0.0897 0.17963 0.01293 0.0
C1108 C 0.08662 0.18796 0.07389 0.0
C1109 C 0.09587 0.18762 0.14222 0.0
C1110 C 0.10773 0.17892 0.14895 0.0
H1111 H 0.08341 0.11997 0.13205 0.0
H1112 H 0.09229 0.14288 0.18155 0.0
H1113 H 0.07761 0.13445 0.08778 0.0
H1114 H 0.10359 0.16473 0.97156 0.0
H1115 H 0.08254 0.17948 0.95958 0.0
H1116 H 0.91666 0.94477 -0.01567 0.0
H1117 H 0.92411 0.97377 0.95783 0.0
H1118 H 0.99539 0.99828 0.03335 0.0
H1119 H 0.98789 0.96913 0.05923 0.0
H1120 H 0.9785 1.01706 0.10796 0.0
H1121 H 0.95039 1.00411 0.81211 0.0
H1122 H 0.93094 0.98654 0.84883 0.0
H1123 H 0.95793 0.99 0.85248 0.0
C1124 C 0.9339 0.95606 -0.00817 0.0
C1125 C 0.95172 0.95465 0.0224 0.0
C1126 C 0.93816 0.97265 0.977 0.0
C1127 C 0.96031 0.98819 -0.00679 0.0
C1128 C 0.97818 0.98642 0.01978 0.0
H1129 H 0.99965 0.10117 0.97418 0.0
H1130 H 0.9987 0.07232 0.96538 0.0
C1131 C 0.97391 0.96974 0.03389 0.0
C1132 C 0.96453 1.00678 -0.00717 0.0
H1133 H 0.95508 0.03113 0.88559 0.0
C1134 C 0.97369 1.02023 0.05917 0.0
C1135 C 0.9582 1.0109 0.92924 0.0
C1136 C 0.94899 0.99721 0.85644 0.0
C1137 C 0.97589 0.03737 0.0639 0.0
C1138 C 0.96878 0.0412 0.00075 0.0
C1139 C 0.96039 0.02808 0.934 0.0
C1140 C 0.9691 0.05847 0.00402 0.0
C1141 C 0.9854 0.0512 0.13655 0.0
C1142 C 0.95274 0.06016 0.02842 0.0
C1143 C 0.9532 0.07655 0.0334 0.0
C1144 C 0.97014 0.09166 0.01448 0.0
C1145 C 0.98651 0.08987 -0.01014 0.0
C1146 C 0.98592 0.07338 -0.01568 0.0
H1147 H 0.99313 0.04734 0.17868 0.0
H1148 H 0.99824 0.0653 0.13351 0.0
H1149 H 0.97171 0.0519 0.15308 0.0
H1150 H 0.93965 0.04879 0.04399 0.0
H1151 H 0.94049 0.07752 0.05323 0.0
H1152 H 0.98271 0.8691 0.96536 0.0
H1153 H 1.01981 0.89181 0.95093 0.0
H1154 H 0.04804 0.90833 0.18049 0.0
H1155 H 1.01109 0.88596 0.19493 0.0
H1156 H 0.04565 0.93159 0.01371 0.0
H1157 H 0.09534 0.90307 0.10363 0.0
H1158 H 0.06496 0.88917 0.07585 0.0
H1159 H 0.07973 0.90501 0.16423 0.0
C1160 C 0.99693 0.87713 0.01257 0.0
C1161 C 0.99377 0.8753 0.08137 0.0
C1162 C 1.01825 0.89036 0.00437 0.0
C1163 C 1.03719 0.90197 0.06449 0.0
C1164 C 1.03412 0.89956 0.13274 0.0
H1165 H 0.17752 0.99712 0.16551 0.0
H1166 H 0.14133 0.96952 0.16185 0.0
C1167 C 1.01284 0.88661 0.141 0.0
C1168 C 0.05966 0.91737 0.05719 0.0
H1169 H 0.11605 0.93418 0.09429 0.0
C1170 C 0.06097 0.932 0.03063 0.0
C1171 C 0.08001 0.91833 0.07983 0.0
C1172 C 0.08004 0.903 0.10693 0.0
C1173 C 0.08172 0.94757 0.02839 0.0
C1174 C 0.10218 0.94859 0.05105 0.0
C1175 C 0.10075 0.93376 0.07667 0.0
C1176 C 0.12513 0.96506 0.05117 0.0
C1177 C 0.08147 0.96322 0.00487 0.0
C1178 C 0.12903 0.97206 -0.00981 0.0
C1179 C 0.15003 0.98794 -0.00756 0.0
C1180 C 0.16826 0.99702 0.05474 0.0
C1181 C 0.1644 0.99004 0.11551 0.0
C1182 C 0.14344 0.97422 0.11348 0.0
H1183 H 0.06636 0.96314 0.01131 0.0
H1184 H 0.09664 0.97696 0.03614 0.0
H1185 H 0.08102 0.96152 0.94695 0.0
H1186 H 0.11576 0.96534 0.94048 0.0
H1187 H 0.15189 0.99333 0.94554 0.0
H1188 H 0.8793 0.48733 0.0982 0.0
H1189 H 0.88561 0.46272 0.10929 0.0
H1190 H 0.83496 0.44107 0.22485 0.0
H1191 H 0.82826 0.46561 0.21244 0.0
H1192 H 0.90145 0.458 0.23042 0.0
H1193 H 0.81832 0.3934 0.09025 0.0
H1194 H 0.82517 0.41601 0.08211 0.0
H1195 H 0.8174 0.40865 0.16049 0.0
C1196 C 0.86926 0.47718 0.12514 0.0
C1197 C 0.85331 0.47849 0.15461 0.0
C1198 C 0.87289 0.46307 0.13146 0.0
C1199 C 0.86072 0.44984 0.16756 0.0
C1200 C 0.84428 0.45078 0.19536 0.0
H1201 H 0.88819 0.37269 0.33004 0.0
H1202 H 0.8776 0.39489 0.31408 0.0
C1203 C 0.84048 0.46487 0.18843 0.0
C1204 C 0.8667 0.43618 0.18049 0.0
H1205 H 0.8459 0.38978 0.1557 0.0
C1206 C 0.88923 0.44309 0.21377 0.0
C1207 C 0.85087 0.41665 0.15905 0.0
C1208 C 0.82663 0.40818 0.12039 0.0
C1209 C 0.8963 0.43117 0.22611 0.0
C1210 C 0.88058 0.41172 0.20486 0.0
C1211 C 0.85799 0.40471 0.17217 0.0
C1212 C 0.8875 0.39856 0.21541 0.0
C1213 C 0.92063 0.43938 0.26153 0.0
C1214 C 0.89677 0.39332 0.16563 0.0
C1215 C 0.90272 0.38056 0.17446 0.0
C1216 C 0.9 0.37304 0.23417 0.0
C1217 C 0.89085 0.37844 0.28413 0.0
C1218 C 0.8847 0.39106 0.27493 0.0
H1219 H 0.93049 0.4548 0.28078 0.0
H1220 H 0.92204 0.43367 0.30792 0.0
H1221 H 0.928 0.43539 0.22202 0.0
H1222 H 0.89904 0.39888 0.11915 0.0
H1223 H 0.90894 0.37634 0.13355 0.0
H1224 H 0.71715 0.46795 0.01943 0.0
H1225 H 0.68663 0.43572 0.01049 0.0
H1226 H 0.70691 0.44642 0.24107 0.0
H1227 H 0.73699 0.47833 0.24995 0.0
H1228 H 0.69304 0.40795 0.06584 0.0
H1229 H 0.63871 0.42158 0.20411 0.0
H1230 H 0.65159 0.43437 0.14209 0.0
H1231 H 0.66847 0.43877 0.22933 0.0
C1232 C 0.71462 0.46355 0.06823 0.0
C1233 C 0.72909 0.47596 0.13569 0.0
C1234 C 0.6973 0.44503 0.06312 0.0
C1235 C 0.69403 0.43851 0.12527 0.0
C1236 C 0.70852 0.45102 0.19233 0.0
H1237 H 0.60536 0.33882 0.24888 0.0
H1238 H 0.63425 0.36948 0.24088 0.0
C1239 C 0.72579 0.46934 0.19737 0.0
C1240 C 0.67659 0.41852 0.12094 0.0
H1241 H 0.62965 0.39124 0.17536 0.0
C1242 C 0.67907 0.40428 0.08931 0.0
C1243 C 0.65841 0.41353 0.15221 0.0
C1244 C 0.65396 0.42777 0.18399 0.0
C1245 C 0.66445 0.38553 0.09013 0.0
C1246 C 0.64626 0.38056 0.1217 0.0
C1247 C 0.64359 0.39481 0.15184 0.0
C1248 C 0.6301 0.361 0.12645 0.0
C1249 C 0.66932 0.37142 0.05979 0.0
C1250 C 0.61809 0.34548 0.06538 0.0
C1251 C 0.60171 0.32766 0.07038 0.0
C1252 C 0.59659 0.32494 0.13627 0.0
C1253 C 0.60892 0.34034 0.19736 0.0
C1254 C 0.62542 0.35799 0.19262 0.0
H1255 H 0.68715 0.37817 0.0584 0.0
H1256 H 0.6656 0.36114 0.09182 0.0
H1257 H 0.65865 0.36388 0.00366 0.0
H1258 H 0.62067 0.34722 0.01307 0.0
H1259 H 0.59224 0.31623 0.02197 0.0
H1260 H 0.61236 0.24645 0.29057 0.0
H1261 H 0.65003 0.25562 0.28008 0.0
H1262 H 0.62184 0.2243 0.05693 0.0
H1263 H 0.58433 0.21544 0.06692 0.0
H1264 H 0.65324 0.21821 0.13898 0.0
H1265 H 0.68853 0.29343 0.17369 0.0
H1266 H 0.67556 0.28391 0.24192 0.0
H1267 H 0.65867 0.27621 0.15097 0.0
C1268 C 0.61421 0.24149 0.2393 0.0
C1269 C 0.59517 0.22977 0.1802 0.0
C1270 C 0.63578 0.24683 0.23322 0.0
C1271 C 0.63893 0.24079 0.16754 0.0
C1272 C 0.61994 0.22916 0.10826 0.0
H1273 H 0.75181 0.24903 0.02101 0.0
H1274 H 0.71524 0.24246 0.03204 0.0
C1275 C 0.59838 0.22393 0.11422 0.0
C1276 C 0.66191 0.24638 0.16093 0.0
H1277 H 0.71383 0.28393 0.16957 0.0
C1278 C 0.66646 0.23258 0.14559 0.0
C1279 C 0.67932 0.26514 0.1699 0.0
C1280 C 0.67534 0.28057 0.18447 0.0
C1281 C 0.68788 0.23699 0.14023 0.0
C1282 C 0.70525 0.25575 0.14781 0.0
C1283 C 0.70069 0.26957 0.16352 0.0
C1284 C 0.72803 0.26116 0.13862 0.0
C1285 C 0.69176 0.22146 0.1286 0.0
C1286 C 0.74791 0.27486 0.19253 0.0
C1287 C 0.76908 0.27899 0.18547 0.0
C1288 C 0.77083 0.26946 0.12442 0.0
C1289 C 0.75105 0.25646 0.06915 0.0
C1290 C 0.73004 0.25253 0.07579 0.0
H1291 H 0.67982 0.20961 0.14757 0.0
H1292 H 0.68902 0.21618 0.07015 0.0
H1293 H 0.70916 0.22631 0.15712 0.0
H1294 H 0.747 0.28194 0.24127 0.0
H1295 H 0.78394 0.289 0.22914 0.0
H1296 H 0.55418 0.79909 0.79616 0.0
H1297 H 0.53069 0.81153 0.79649 0.0
H1298 H 0.58948 0.86715 0.84432 0.0
H1299 H 0.6131 0.85526 0.85526 0.0
H1300 H 0.56524 0.8712 0.9048 0.0
H1301 H 0.50678 0.82406 0.64012 0.0
H1302 H 0.50557 0.81119 0.70474 0.0
H1303 H 0.53116 0.82411 0.67791 0.0
C1304 C 0.5623 0.81401 0.80823 0.0
C1305 C 0.58591 0.8259 0.82327 0.0
C1306 C 0.54862 0.82116 0.80662 0.0
C1307 C 0.5579 0.84039 0.81692 0.0
C1308 C 0.58145 0.85226 0.83477 0.0
H1309 H 0.47624 0.88034 0.64807 0.0
H1310 H 0.50132 0.86961 0.67028 0.0
C1311 C 0.59513 0.84524 0.83935 0.0
C1312 C 0.54357 0.84839 0.80969 0.0
H1313 H 0.49677 0.84268 0.70398 0.0
C1314 C 0.55043 0.86499 0.86011 0.0
C1315 C 0.5242 0.84072 0.75133 0.0
C1316 C 0.51665 0.82418 0.69012 0.0
C1317 C 0.53907 0.87417 0.85325 0.0
C1318 C 0.51908 0.86598 0.79692 0.0
C1319 C 0.51195 0.84918 0.7475 0.0
C1320 C 0.50568 0.87468 0.78579 0.0
C1321 C 0.54946 0.89301 0.90481 0.0
C1322 C 0.49992 0.88184 0.84291 0.0
C1323 C 0.4864 0.88895 0.83033 0.0
C1324 C 0.47759 0.88845 0.75997 0.0
C1325 C 0.48308 0.88118 0.70301 0.0
C1326 C 0.49728 0.87482 0.71582 0.0
H1327 H 0.56792 0.90002 0.92588 0.0
H1328 H 0.54635 0.90226 0.87876 0.0
H1329 H 0.54223 0.89126 0.95165 0.0
H1330 H 0.50515 0.88135 0.89711 0.0
H1331 H 0.48186 0.89389 0.87507 0.0
H1332 H 0.38648 0.67596 0.80649 0.0
H1333 H 0.38352 0.70124 0.77867 0.0
H1334 H 0.32421 0.68135 0.85559 0.0
H1335 H 0.32737 0.65628 0.88531 0.0
H1336 H 0.34779 0.70077 0.6896 0.0
H1337 H 0.3677 0.73587 0.97798 0.0
H1338 H 0.37254 0.71784 0.94981 0.0
H1339 H 0.34462 0.7119 0.9486 0.0
C1340 C 0.37281 0.67697 0.81752 0.0
C1341 C 0.3573 0.66425 0.84885 0.0
C1342 C 0.37107 0.69135 0.80119 0.0
C1343 C 0.35387 0.69332 0.81619 0.0
C1344 C 0.33781 0.68022 0.84469 0.0
H1345 H 0.3283 0.78005 0.79686 0.0
H1346 H 0.32609 0.75169 0.80979 0.0
C1347 C 0.33951 0.6658 0.86095 0.0
C1348 C 0.35325 0.70946 0.80411 0.0
H1349 H 0.35888 0.74919 0.89203 0.0
C1350 C 0.35018 0.71136 0.73374 0.0
C1351 C 0.35644 0.72325 0.86194 0.0
C1352 C 0.3607 0.72228 0.93897 0.0
C1353 C 0.34999 0.72663 0.71954 0.0
C1354 C 0.35337 0.7405 0.77747 0.0
C1355 C 0.35626 0.73851 0.84774 0.0
C1356 C 0.35427 0.75735 0.76672 0.0
C1357 C 0.34584 0.72764 0.64258 0.0
C1358 C 0.37098 0.77001 0.73876 0.0
C1359 C 0.37222 0.78619 0.7309 0.0
C1360 C 0.35683 0.79006 0.75128 0.0
C1361 C 0.34018 0.77736 0.77959 0.0
C1362 C 0.33897 0.7612 0.78742 0.0
H1363 H 0.33761 0.7138 0.60376 0.0
H1364 H 0.33514 0.7332 0.63257 0.0
H1365 H 0.36216 0.73711 0.63189 0.0
H1366 H 0.38324 0.7675 0.72378 0.0
H1367 H 0.38514 0.79561 0.70847 0.0
H1368 H 0.56881 0.70406 0.94822 0.0
H1369 H 0.53069 0.67771 0.93777 0.0
H1370 H 0.50988 0.67684 0.71723 0.0
H1371 H 0.5479 0.70336 0.72809 0.0
H1372 H 0.48876 0.67861 0.89049 0.0
H1373 H 0.48623 0.62067 0.71473 0.0
H1374 H 0.51181 0.64031 0.77695 0.0
H1375 H 0.49974 0.64308 0.69583 0.0
C1376 C 0.5563 0.6979 0.89691 0.0
C1377 C 0.56169 0.70526 0.83791 0.0
C1378 C 0.53441 0.68291 0.89113 0.0
C1379 C 0.51734 0.67503 0.82638 0.0
C1380 C 0.52275 0.68237 0.76737 0.0
H1381 H 0.37549 0.58574 0.67033 0.0
H1382 H 0.41539 0.60902 0.68664 0.0
C1383 C 0.54456 0.69744 0.77341 0.0
C1384 C 0.49359 0.66001 0.8217 0.0
H1385 H 0.45303 0.61389 0.74394 0.0
C1386 C 0.48095 0.66443 0.85872 0.0
C1387 C 0.48315 0.64155 0.77944 0.0
C1388 C 0.49581 0.63591 0.73923 0.0
C1389 C 0.4582 0.65105 0.85334 0.0
C1390 C 0.44791 0.63241 0.81209 0.0
C1391 C 0.46069 0.62804 0.77569 0.0
C1392 C 0.42377 0.6174 0.80323 0.0
C1393 C 0.44523 0.65733 0.88945 0.0
C1394 C 0.41497 0.61372 0.86299 0.0
C1395 C 0.39205 0.60039 0.85339 0.0
C1396 C 0.37758 0.58989 0.78407 0.0
C1397 C 0.38644 0.59316 0.7245 0.0
C1398 C 0.40926 0.6066 0.73392 0.0
H1399 H 0.45306 0.67255 0.89865 0.0
H1400 H 0.42755 0.65003 0.85678 0.0
H1401 H 0.44521 0.6543 0.94277 0.0
H1402 H 0.42571 0.62132 0.91721 0.0
H1403 H 0.38554 0.59852 0.90015 0.0
H1404 H 0.09676 0.23009 0.92115 0.0
H1405 H 0.09684 0.22888 0.79537 0.0
H1406 H 1.02693 0.21029 0.74034 0.0
H1407 H 1.02681 0.21194 0.86662 0.0
H1408 H 0.06926 0.19643 0.68069 0.0
H1409 H 0.05592 0.25226 0.64118 0.0
H1410 H 0.06499 0.25038 0.72937 0.0
H1411 H 1.03595 0.23544 0.67903 0.0
C1412 C 0.08146 0.226 0.88267 0.0
C1413 C 0.06166 0.22084 0.9038 0.0
C1414 C 0.08154 0.22527 0.81073 0.0
C1415 C 0.06193 0.21954 0.75874 0.0
C1416 C 1.04232 0.21495 0.77986 0.0
H1417 H 1.02633 0.19952 0.29617 0.0
H1418 H 1.02623 0.2008 0.42191 0.0
C1419 C 1.04223 0.21573 0.85192 0.0
C1420 C 0.06172 0.21738 0.68191 0.0
H1421 H 0.0537 0.23292 0.53656 0.0
C1422 C 0.06596 0.20445 0.64913 0.0
C1423 C 0.05734 0.22785 0.64115 0.0
C1424 C 0.05348 0.24239 0.67445 0.0
C1425 C 0.0656 0.20148 0.57608 0.0
C1426 C 0.06123 0.21195 0.5353 0.0
C1427 C 0.05699 0.22489 0.5681 0.0
C1428 C 0.06102 0.20979 0.45844 0.0
C1429 C 0.06943 0.18692 0.54283 0.0
C1430 C 0.08054 0.21415 0.43721 0.0
C1431 C 0.08063 0.21333 0.36513 0.0
C1432 C 0.06131 0.20846 0.31334 0.0
C1433 C 1.04157 0.2035 0.33455 0.0
C1434 C 1.04148 0.20426 0.40651 0.0
H1435 H 0.06678 0.17695 0.57584 0.0
H1436 H 0.05805 0.17902 0.48767 0.0
H1437 H 0.08702 0.19383 0.53892 0.0
H1438 H 0.09588 0.21864 0.47663 0.0
H1439 H 0.09596 0.21686 0.35033 0.0
H1440 H 0.90686 0.8525 0.81888 0.0
H1441 H 0.90407 0.85053 0.69045 0.0
H1442 H 0.95468 0.83772 0.70357 0.0
H1443 H 0.95746 0.83954 0.83096 0.0
H1444 H 0.93688 0.86983 0.61993 0.0
H1445 H 0.90206 0.79424 0.54183 0.0
H1446 H 0.90323 0.80605 0.62833 0.0
H1447 H 0.9279 0.80744 0.61217 0.0
C1448 C 0.91747 0.84939 0.79441 0.0
C1449 C 0.93204 0.84581 0.83444 0.0
C1450 C 0.91581 0.84821 0.72119 0.0
C1451 C 0.92874 0.84349 0.68749 0.0
C1452 C 0.94408 0.84083 0.72826 0.0
H1453 H 0.95305 0.83344 0.26933 0.0
H1454 H 0.95199 0.83361 0.39465 0.0
C1455 C 0.94567 0.84191 0.80103 0.0
C1456 C 0.92637 0.84135 0.60964 0.0
H1457 H 0.91442 0.81056 0.45303 0.0
C1458 C 0.93176 0.85685 0.58319 0.0
C1459 C 0.91968 0.82435 0.56224 0.0
C1460 C 0.91267 0.80702 0.58735 0.0
C1461 C 0.93129 0.85595 0.51053 0.0
C1462 C 0.92501 0.83906 0.46351 0.0
C1463 C 0.91933 0.82349 0.48968 0.0
C1464 C 0.92441 0.83739 0.38686 0.0
C1465 C 0.93812 0.87319 0.4849 0.0
C1466 C 0.90874 0.83882 0.34112 0.0
C1467 C 0.90924 0.83865 0.26991 0.0
C1468 C 0.92548 0.8371 0.2435 0.0
C1469 C 0.94044 0.83473 0.28845 0.0
C1470 C 0.9399 0.83488 0.35986 0.0
H1471 H 0.94667 0.88591 0.53047 0.0
H1472 H 0.94953 0.87506 0.44986 0.0
H1473 H 0.92294 0.87171 0.45264 0.0
H1474 H 0.89641 0.84042 0.36093 0.0
H1475 H 0.89723 0.84017 0.23607 0.0
H1476 H 0.25576 0.0386 0.85686 0.0
H1477 H 0.2586 0.04148 0.73612 0.0
H1478 H 0.1908 0.02845 0.67931 0.0
H1479 H 0.18848 1.02671 0.80285 0.0
H1480 H 0.23605 1.01577 0.61775 0.0
H1481 H 0.22195 0.07205 0.59932 0.0
H1482 H 0.22665 0.0665 0.68318 0.0
H1483 H 0.19924 0.05283 0.61995 0.0
C1484 C 0.2415 0.03646 0.81867 0.0
C1485 C 0.22183 0.03231 0.83831 0.0
C1486 C 0.24316 0.03816 0.74989 0.0
C1487 C 0.22499 0.03533 0.69892 0.0
C1488 C 0.20522 0.03115 0.7184 0.0
H1489 H 0.21036 1.00456 0.24445 0.0
H1490 H 0.20916 1.00537 0.36877 0.0
C1491 C 0.2038 0.02998 0.7884 0.0
C1492 C 0.2266 0.03564 0.62454 0.0
H1493 H 0.2216 0.0553 0.49003 0.0
C1494 C 0.23306 1.02453 0.59006 0.0
C1495 C 0.223 0.04728 0.58902 0.0
C1496 C 0.21756 0.06049 0.62504 0.0
C1497 C 0.23607 1.02473 0.52101 0.0
C1498 C 0.23137 0.03564 0.48405 0.0
C1499 C 0.22502 0.04684 0.51849 0.0
C1500 C 0.23239 0.03526 0.40896 0.0
C1501 C 0.24475 1.01358 0.48936 0.0
C1502 C 0.24539 0.05185 0.39003 0.0
C1503 C 0.24556 0.05147 0.31836 0.0
C1504 C 0.23278 0.03447 0.26496 0.0
C1505 C 0.22028 1.01787 0.28441 0.0
C1506 C 0.21974 1.01829 0.3556 0.0
H1507 H 0.25476 1.01163 0.53228 0.0
H1508 H 0.2303 0.99957 0.45717 0.0
H1509 H 0.25541 1.02038 0.45385 0.0
H1510 H 0.25531 0.06508 0.43062 0.0
H1511 H 0.25571 0.06442 0.3048 0.0
H1512 H 0.7297 0.50961 0.3123 0.0
H1513 H 0.72919 0.50729 0.43494 0.0
H1514 H 0.80021 0.54954 0.50892 0.0
H1515 H 0.80065 0.55245 0.38602 0.0
H1516 H 0.75227 0.49665 0.51834 0.0
H1517 H 0.77606 0.56733 0.65469 0.0
H1518 H 0.76724 0.5585 0.55786 0.0
H1519 H 0.79546 0.56722 0.60703 0.0
C1520 C 0.74516 0.51869 0.35444 0.0
C1521 C 0.76528 0.53106 0.33868 0.0
C1522 C 0.74486 0.51725 0.42482 0.0
C1523 C 0.76462 0.52825 0.48141 0.0
C1524 C 0.78465 0.54105 0.46644 0.0
H1525 H 0.79871 0.53463 0.93476 0.0
H1526 H 0.79883 0.53662 0.81152 0.0
C1527 C 0.78492 0.54257 0.39592 0.0
C1528 C 0.76433 0.5256 0.55509 0.0
H1529 H 0.7753 0.54803 0.73 0.0
C1530 C 0.7572 0.50787 0.56458 0.0
C1531 C 0.77077 0.54023 0.61545 0.0
C1532 C 0.77762 0.55935 0.6084 0.0
C1533 C 0.75672 0.50446 0.63282 0.0
C1534 C 0.76324 0.5191 0.69317 0.0
C1535 C 0.77034 0.53682 0.68371 0.0
C1536 C 0.76311 0.51649 0.76689 0.0
C1537 C 0.74973 0.48532 0.64002 0.0
C1538 C 0.74303 0.5042 0.78289 0.0
C1539 C 0.74293 0.50293 0.85375 0.0
C1540 C 0.76283 0.51415 0.91016 0.0
C1541 C 0.78302 0.52586 0.89321 0.0
C1542 C 0.78312 0.5271 0.82256 0.0
H1543 H 0.75065 0.47707 0.59294 0.0
H1544 H 0.76046 0.48619 0.68972 0.0
H1545 H 0.73209 0.47773 0.64354 0.0
H1546 H 0.72732 0.49599 0.74101 0.0
H1547 H 0.72715 0.49354 0.86462 0.0
H1548 H 0.55798 0.19565 0.36884 0.0
H1549 H 0.55742 0.19475 0.49324 0.0
H1550 H 0.51578 0.21679 0.48761 0.0
H1551 H 0.5158 0.21742 0.36292 0.0
H1552 H 0.5711 0.2257 0.61446 0.0
H1553 H 0.48119 0.16781 0.55062 0.0
H1554 H 0.49683 0.17258 0.48376 0.0
H1555 H 0.48671 0.1868 0.51217 0.0
C1556 C 0.5487 0.20031 0.394 0.0
C1557 C 0.53698 0.20666 0.35624 0.0
C1558 C 0.54845 0.19981 0.46492 0.0
C1559 C 0.53637 0.20552 0.4986 0.0
C1560 C 0.52495 0.21213 0.46169 0.0
H1561 H 0.51183 0.21206 0.9166 0.0
H1562 H 0.513 0.21304 0.79262 0.0
C1563 C 0.52518 0.21264 0.3908 0.0
C1564 C 0.53574 0.20459 0.5727 0.0
H1565 H 0.50049 0.1829 0.67402 0.0
C1566 C 0.55574 0.21632 0.62775 0.0
C1567 C 0.51558 0.1923 0.58892 0.0
C1568 C 0.49385 0.17903 0.53082 0.0
C1569 C 0.55602 0.21632 0.69965 0.0
C1570 C 0.53585 0.20404 0.7159 0.0
C1571 C 0.51586 0.19227 0.66078 0.0
C1572 C 0.53511 0.20325 0.79011 0.0
C1573 C 0.57773 0.22968 0.75769 0.0
C1574 C 0.54696 0.19719 0.8286 0.0
C1575 C 0.54644 0.19669 0.89932 0.0
C1576 C 0.53383 0.20206 0.93207 0.0
C1577 C 0.52172 0.20788 0.89282 0.0
C1578 C 0.52232 0.20842 0.82213 0.0
H1579 H 0.59026 0.24099 0.73792 0.0
H1580 H 0.57471 0.23599 0.80499 0.0
H1581 H 0.58509 0.22201 0.77592 0.0
H1582 H 0.55665 0.19291 0.80397 0.0
H1583 H 0.55613 0.19233 0.92843 0.0
H1584 H 0.94282 0.37514 0.45549 0.0
H1585 H 0.94039 0.375 0.57952 0.0
H1586 H 0.92097 0.31792 0.53479 0.0
H1587 H 0.92391 0.31812 0.41167 0.0
H1588 H 0.90142 0.35169 0.61844 0.0
H1589 H 0.96889 0.34154 0.72642 0.0
H1590 H 0.96714 0.34889 0.64511 0.0
H1591 H 0.94951 0.32479 0.64316 0.0
C1592 C 0.93858 0.36272 0.47254 0.0
C1593 C 0.93345 0.34662 0.42352 0.0
C1594 C 0.93703 0.3626 0.54335 0.0
C1595 C 0.93061 0.34648 0.56673 0.0
C1596 C 0.9263 0.33063 0.51857 0.0
H1597 H 0.90215 0.31398 0.95935 0.0
H1598 H 0.90441 0.31419 0.83528 0.0
C1599 C 0.92786 0.33073 0.44795 0.0
C1600 C 0.92699 0.34582 0.63975 0.0
H1601 H 0.94323 0.33753 0.79668 0.0
C1602 C 0.91068 0.34873 0.65763 0.0
C1603 C 0.93893 0.3418 0.69068 0.0
C1604 C 0.95725 0.33924 0.67581 0.0
C1605 C 0.90572 0.34743 0.72446 0.0
C1606 C 0.91765 0.3434 0.77537 0.0
C1607 C 0.93398 0.3405 0.7575 0.0
C1608 C 0.91399 0.34266 0.84832 0.0
C1609 C 0.88739 0.34997 0.73931 0.0
C1610 C 0.91821 0.35846 0.89662 0.0
C1611 C 0.91673 0.35831 0.96729 0.0
C1612 C 0.91128 0.34243 -0.00844 0.0
C1613 C 0.90621 0.32638 0.94238 0.0
C1614 C 0.90769 0.32654 0.87155 0.0
H1615 H 0.87576 0.34769 0.6887 0.0
H1616 H 0.87749 0.3403 0.76996 0.0
H1617 H 0.89511 0.36442 0.77201 0.0
H1618 H 0.92348 0.37117 0.88054 0.0
H1619 H 0.92067 0.37089 0.00377 0.0
H1620 H 0.40869 0.90153 0.52968 0.0
H1621 H 0.40921 0.90068 0.40367 0.0
H1622 H 0.48136 0.92874 0.46599 0.0
H1623 H 0.48101 0.92898 0.59034 0.0
H1624 H 0.43205 0.9296 0.33869 0.0
H1625 H 0.46109 0.88162 0.31335 0.0
H1626 H 0.45013 0.8854 0.38694 0.0
H1627 H 0.47867 0.90197 0.38787 0.0
C1628 C 0.42461 0.90729 0.51635 0.0
C1629 C 0.44469 0.91469 0.56974 0.0
C1630 C 0.4249 0.90693 0.44457 0.0
C1631 C 0.44528 0.91416 0.42566 0.0
C1632 C 0.46541 0.92257 0.47939 0.0
H1633 H 0.48663 0.92563 0.03112 0.0
H1634 H 0.48551 0.92708 0.15685 0.0
C1635 C 0.46513 0.92276 0.55065 0.0
C1636 C 0.44573 0.91292 0.34979 0.0
H1637 H 0.46201 0.89612 0.2184 0.0
C1638 C 0.43843 0.92218 0.31208 0.0
C1639 C 0.45415 0.90325 0.31569 0.0
C1640 C 0.46126 0.89234 0.35277 0.0
C1641 C 0.43977 0.92235 0.2412 0.0
C1642 C 0.44839 0.91284 0.20746 0.0
C1643 C 0.4556 0.90351 0.24501 0.0
C1644 C 0.44922 0.91179 0.13204 0.0
C1645 C 0.43231 0.93294 0.20329 0.0
C1646 C 0.42919 0.9023 0.07705 0.0
C1647 C 0.42976 0.90154 0.00567 0.0
C1648 C 0.45041 0.91029 -0.01206 0.0
C1649 C 0.47049 0.91918 0.04311 0.0
C1650 C 0.46988 0.91994 0.1148 0.0
H1651 H 0.43127 0.94305 0.24183 0.0
H1652 H 0.44399 0.94053 0.17154 0.0
H1653 H 0.41537 0.92298 0.16548 0.0
H1654 H 0.41308 0.89552 0.08943 0.0
H1655 H 0.41393 0.89426 0.96471 0.0
H1656 H 0.34195 0.54153 -0.00842 0.0
H1657 H 0.34095 0.53983 0.11544 0.0
H1658 H 0.29939 0.56194 0.11202 0.0
H1659 H 0.30021 0.56362 -0.01147 0.0
H1660 H 0.35508 0.56852 0.23661 0.0
H1661 H 0.264 0.51453 0.17675 0.0
H1662 H 0.27882 0.51925 0.10778 0.0
H1663 H 0.26989 0.53403 0.14154 0.0
C1664 C 0.3326 0.54601 0.01733 0.0
C1665 C 0.32089 0.55247 0.98036 0.0
C1666 C 0.33201 0.54499 0.08778 0.0
C1667 C 0.31973 0.55041 0.1219 0.0
C1668 C 0.30845 0.55724 0.08564 0.0
H1669 H 0.33155 0.58063 0.57479 0.0
H1670 H 0.33152 0.57986 0.44855 0.0
C1671 C 0.30895 0.55819 0.01521 0.0
C1672 C 0.31917 0.54944 0.19631 0.0
H1673 H 0.28347 0.53079 0.30035 0.0
C1674 C 0.33947 0.56019 0.25067 0.0
C1675 C 0.29877 0.53833 0.21384 0.0
C1676 C 0.27665 0.52573 0.15685 0.0
C1677 C 0.33985 0.56051 0.32289 0.0
C1678 C 0.31934 0.55009 0.34073 0.0
C1679 C 0.29911 0.53894 0.28619 0.0
C1680 C 0.31853 0.55049 0.41585 0.0
C1681 C 0.36218 0.57187 0.37936 0.0
C1682 C 0.31045 0.5341 0.438 0.0
C1683 C 0.31006 0.53449 0.50943 0.0
C1684 C 0.31774 0.55124 0.55925 0.0
C1685 C 0.3253 0.56754 0.53678 0.0
C1686 C 0.32561 0.56716 0.46524 0.0
H1687 H 0.37637 0.575 0.35533 0.0
H1688 H 0.36489 0.58529 0.40634 0.0
H1689 H 0.36251 0.56451 0.42101 0.0
H1690 H 0.30467 0.52108 0.4002 0.0
H1691 H 0.30361 0.5217 0.52556 0.0
H1692 H 0.62554 0.71681 0.61056 0.0
H1693 H 0.62144 0.71585 0.48297 0.0
H1694 H 0.58619 0.74341 0.4977 0.0
H1695 H 0.59055 0.7448 0.62556 0.0
H1696 H 0.58336 0.70064 0.36699 0.0
H1697 H 0.63916 0.77761 0.42362 0.0
H1698 H 0.63717 0.76562 0.49291 0.0
H1699 H 0.61546 0.76934 0.46092 0.0
C1700 C 0.61681 0.72258 0.58663 0.0
C1701 C 0.60865 0.73112 0.62828 0.0
C1702 C 0.61445 0.72199 0.51379 0.0
C1703 C 0.60387 0.72986 0.48165 0.0
C1704 C 0.59483 0.73763 0.5222 0.0
H1705 H 0.59324 0.74514 0.04702 0.0
H1706 H 0.58718 0.74319 0.16698 0.0
C1707 C 0.59731 0.73836 0.59513 0.0
C1708 C 0.60312 0.73051 0.40632 0.0
H1709 H 0.62327 0.76045 0.30169 0.0
C1710 C 0.59195 0.71369 0.35251 0.0
C1711 C 0.61437 0.74762 0.38808 0.0
C1712 C 0.62739 0.76609 0.44435 0.0
C1713 C 0.59204 0.71353 0.28062 0.0
C1714 C 0.60371 0.73062 0.26281 0.0
C1715 C 0.61427 0.74742 0.31608 0.0
C1716 C 0.6067 0.73138 0.19025 0.0
C1717 C 0.5799 0.69515 0.22431 0.0
C1718 C 0.62008 0.72579 0.16518 0.0
C1719 C 0.62379 0.72714 0.09765 0.0
C1720 C 0.61405 0.73397 0.05429 0.0
C1721 C 0.60094 0.73986 0.07989 0.0
C1722 C 0.59734 0.73862 0.14776 0.0
H1723 H 0.56741 0.68359 0.24318 0.0
H1724 H 0.57116 0.69573 0.17363 0.0
H1725 H 0.59231 0.692 0.21195 0.0
H1726 H 0.62797 0.7207 0.19844 0.0
H1727 H 0.63478 0.72337 0.08054 0.0
loop_
_geom_bond_atom_site_label_1
_geom_bond_atom_site_label_2
_geom_bond_distance
_geom_bond_site_symmetry_2
_ccdc_geom_bond_type
Tb0 N31 2.660 . S
Tb0 N38 2.600 . S
Tb0 O44 2.546 . S
Tb0 O45 2.610 . S
Tb0 O47 2.320 . S
Tb0 O48 2.552 . S
Tb0 O49 2.413 . S
Tb0 O51 2.362 . S
Tb0 O52 2.421 . S
Tb0 C64 2.833 . S
C1 C4 1.432 . S
C1 C5 1.414 . S
C1 N8 1.359 . S
C2 C4 1.417 . S
C2 C6 1.432 . S
C2 C14 1.410 . S
C3 C5 1.444 . S
C3 C6 1.317 . S
C3 H26 0.931 . S
C4 C1 1.432 . S
C4 C2 1.417 . S
C4 N12 1.360 . S
C5 C1 1.414 . S
C5 C3 1.444 . S
C5 C10 1.385 1_554 S
C6 C2 1.432 . S
C6 C3 1.317 . S
C6 H18 0.930 . S
C7 C9 1.392 . S
C7 C10 1.370 . S
C7 H19 0.931 . S
N8 C1 1.359 . S
N8 C9 1.327 1_554 S
N8 Tb11 2.600 1_655 S
C9 C7 1.392 . S
C9 N8 1.327 1_556 S
C9 H16 0.930 . S
C10 C5 1.385 1_556 S
C10 C7 1.370 . S
C10 H29 0.930 . S
Tb11 N8 2.600 1_455 S
Tb11 N12 2.660 1_455 S
Tb11 O45 2.362 . S
Tb11 O46 2.421 . S
Tb11 O50 2.546 1_455 S
Tb11 O51 2.610 . S
Tb11 O53 2.320 . S
Tb11 O54 2.552 . S
Tb11 O55 2.413 1_455 S
Tb11 C75 2.833 1_455 S
N12 C4 1.360 . S
N12 Tb11 2.660 1_655 S
N12 C13 1.305 . S
C13 N12 1.305 . S
C13 C15 1.407 . S
C13 H20 0.930 . S
C14 C2 1.410 . S
C14 C15 1.345 . S
C14 H22 0.930 . S
C15 C13 1.407 . S
C15 C14 1.345 . S
C15 H17 0.930 . S
H16 C9 0.930 . S
H17 C15 0.930 . S
H18 C6 0.930 . S
H19 C7 0.931 . S
H20 C13 0.930 . S
H21 C35 0.930 . S
H22 C14 0.930 . S
H23 C41 0.930 . S
H24 C32 0.930 . S
H25 C39 0.931 . S
H26 C3 0.931 . S
H27 C33 0.930 . S
H28 C66 0.930 . S
H29 C10 0.930 . S
H30 C65 0.929 . S
N31 Tb0 2.660 . S
N31 C32 1.305 . S
N31 C36 1.360 . S
C32 H24 0.930 . S
C32 N31 1.305 . S
C32 C35 1.407 . S
C33 H27 0.930 . S
C33 C34 1.410 . S
C33 C35 1.345 . S
C34 C33 1.410 . S
C34 C36 1.417 . S
C34 C66 1.432 . S
C35 H21 0.930 . S
C35 C32 1.407 . S
C35 C33 1.345 . S
C36 N31 1.360 . S
C36 C34 1.417 . S
C36 C40 1.432 . S
H37 C42 0.930 . S
N38 Tb0 2.600 . S
N38 C40 1.359 . S
N38 C41 1.327 . S
C39 H25 0.931 . S
C39 C41 1.392 . S
C39 C42 1.370 . S
C40 C36 1.432 . S
C40 N38 1.359 . S
C40 C43 1.414 . S
C41 H23 0.930 . S
C41 N38 1.327 . S
C41 C39 1.392 . S
C42 H37 0.930 . S
C42 C39 1.370 . S
C42 C43 1.385 . S
C43 C40 1.414 . S
C43 C42 1.385 . S
C43 C65 1.444 . S
O44 Tb0 2.546 . S
O44 C64 1.251 . S
O45 Tb0 2.610 . S
O45 Tb11 2.362 . S
O45 C56 1.283 . S
O46 Tb11 2.421 . S
O46 C63 1.262 . S
O47 Tb0 2.320 . S
O47 C63 1.260 . S
O48 Tb0 2.552 . S
O48 C56 1.243 . S
O49 Tb0 2.413 . S
O49 C64 1.256 . S
O50 Tb11 2.546 1_655 S
O50 C75 1.251 . S
O51 Tb0 2.362 . S
O51 Tb11 2.610 . S
O51 C67 1.283 . S
O52 Tb0 2.421 . S
O52 C74 1.262 . S
O53 Tb11 2.320 . S
O53 C74 1.260 . S
O54 Tb11 2.552 . S
O54 C67 1.243 . S
O55 Tb11 2.413 1_655 S
O55 C75 1.256 . S
C56 O45 1.283 . S
C56 O48 1.243 . S
C57 C59 1.382 . S
C57 C61 1.393 . S
C57 C64 1.500 . S
C58 C59 1.400 . S
C58 C60 1.384 . S
C59 C57 1.382 . S
C59 C58 1.400 . S
C59 H76 0.930 . S
C60 C58 1.384 . S
C60 C62 1.392 . S
C60 H77 0.931 . S
C61 C57 1.393 . S
C61 C62 1.401 . S
C61 H78 0.930 . S
C62 C60 1.392 . S
C62 C61 1.401 . S
C62 H79 0.930 . S
C63 O46 1.262 . S
C63 O47 1.260 . S
C64 Tb0 2.833 . S
C64 O44 1.251 . S
C64 O49 1.256 . S
C64 C57 1.500 . S
C65 H30 0.929 . S
C65 C43 1.444 . S
C65 C66 1.317 . S
C66 H28 0.930 . S
C66 C34 1.432 . S
C66 C65 1.317 . S
C67 O51 1.283 . S
C67 O54 1.243 . S
C68 C69 1.382 . S
C68 C72 1.393 . S
C68 C75 1.500 . S
C69 C68 1.382 . S
C69 C70 1.400 . S
C69 H80 0.930 . S
C70 C69 1.400 . S
C70 C71 1.384 . S
C71 C70 1.384 . S
C71 C73 1.392 . S
C71 H81 0.931 . S
C72 C68 1.393 . S
C72 C73 1.401 . S
C72 H82 0.930 . S
C73 C71 1.392 . S
C73 C72 1.401 . S
C73 H83 0.930 . S
C74 O52 1.262 . S
C74 O53 1.260 . S
C75 Tb11 2.833 1_655 S
C75 O50 1.251 . S
C75 O55 1.256 . S
C75 C68 1.500 . S
H76 C59 0.930 . S
H77 C60 0.931 . S
H78 C61 0.930 . S
H79 C62 0.930 . S
H80 C69 0.930 . S
H81 C71 0.931 . S
H82 C72 0.930 . S
H83 C73 0.930 . S
Tb84 N115 2.660 . S
Tb84 N122 2.600 . S
Tb84 O128 2.546 . S
Tb84 O129 2.610 . S
Tb84 O131 2.320 . S
Tb84 O132 2.552 . S
Tb84 O133 2.413 . S
Tb84 O135 2.362 . S
Tb84 O136 2.421 . S
Tb84 C148 2.833 . S
C85 C88 1.432 . S
C85 C89 1.414 . S
C85 N92 1.359 . S
C86 C88 1.417 . S
C86 C90 1.432 . S
C86 C98 1.410 . S
C87 C89 1.444 . S
C87 C90 1.317 . S
C87 H110 0.929 . S
C88 C85 1.432 . S
C88 C86 1.417 . S
C88 N96 1.360 . S
C89 C85 1.414 . S
C89 C87 1.444 . S
C89 C94 1.385 . S
C90 C86 1.432 . S
C90 C87 1.317 . S
C90 H102 0.930 . S
C91 C93 1.392 . S
C91 C94 1.370 . S
C91 H103 0.931 . S
N92 C85 1.359 . S
N92 C93 1.327 . S
N92 Tb95 2.600 . S
C93 C91 1.392 . S
C93 N92 1.327 . S
C93 H100 0.930 . S
C94 C89 1.385 . S
C94 C91 1.370 . S
C94 H113 0.930 . S
Tb95 N92 2.600 . S
Tb95 N96 2.660 . S
Tb95 O129 2.362 . S
Tb95 O130 2.421 . S
Tb95 O134 2.546 . S
Tb95 O135 2.610 . S
Tb95 O137 2.320 . S
Tb95 O138 2.552 . S
Tb95 O139 2.413 . S
Tb95 C159 2.833 . S
N96 C88 1.360 . S
N96 Tb95 2.660 . S
N96 C97 1.305 . S
C97 N96 1.305 . S
C97 C99 1.407 . S
C97 H104 0.930 . S
C98 C86 1.410 . S
C98 C99 1.345 . S
C98 H106 0.930 . S
C99 C97 1.407 . S
C99 C98 1.345 . S
C99 H101 0.930 1_554 S
H100 C93 0.930 . S
H101 C99 0.930 1_556 S
H102 C90 0.930 . S
H103 C91 0.931 . S
H104 C97 0.930 . S
H105 C119 0.930 . S
H106 C98 0.930 . S
H107 C125 0.930 . S
H108 C116 0.930 . S
H109 C123 0.931 . S
H110 C87 0.929 . S
H111 C117 0.930 . S
H112 C150 0.930 . S
H113 C94 0.930 . S
H114 C149 0.929 . S
N115 Tb84 2.660 . S
N115 C116 1.305 . S
N115 C120 1.360 . S
C116 H108 0.930 . S
C116 N115 1.305 . S
C116 C119 1.407 . S
C117 H111 0.930 . S
C117 C118 1.410 . S
C117 C119 1.345 . S
C118 C117 1.410 . S
C118 C120 1.417 . S
C118 C150 1.432 . S
C119 H105 0.930 . S
C119 C116 1.407 . S
C119 C117 1.345 . S
C120 N115 1.360 . S
C120 C118 1.417 . S
C120 C124 1.432 . S
H121 C126 0.930 . S
N122 Tb84 2.600 . S
N122 C124 1.359 . S
N122 C125 1.327 1_554 S
C123 H109 0.931 . S
C123 C125 1.392 . S
C123 C126 1.370 . S
C124 C120 1.432 . S
C124 N122 1.359 . S
C124 C127 1.414 . S
C125 H107 0.930 . S
C125 N122 1.327 1_556 S
C125 C123 1.392 . S
C126 H121 0.930 . S
C126 C123 1.370 . S
C126 C127 1.385 1_556 S
C127 C124 1.414 . S
C127 C126 1.385 1_554 S
C127 C149 1.444 . S
O128 Tb84 2.546 . S
O128 C148 1.251 . S
O129 Tb84 2.610 . S
O129 Tb95 2.362 . S
O129 C140 1.283 . S
O130 Tb95 2.421 . S
O130 C147 1.262 . S
O131 Tb84 2.320 . S
O131 C147 1.260 . S
O132 Tb84 2.552 . S
O132 C140 1.243 . S
O133 Tb84 2.413 . S
O133 C148 1.256 . S
O134 Tb95 2.546 . S
O134 C159 1.251 . S
O135 Tb84 2.362 . S
O135 Tb95 2.610 . S
O135 C151 1.283 . S
O136 Tb84 2.421 . S
O136 C158 1.262 . S
O137 Tb95 2.320 . S
O137 C158 1.260 . S
O138 Tb95 2.552 . S
O138 C151 1.243 . S
O139 Tb95 2.413 . S
O139 C159 1.256 . S
C140 O129 1.283 . S
C140 O132 1.243 . S
C141 C143 1.382 . S
C141 C145 1.393 . S
C141 C148 1.500 . S
C142 C143 1.400 . S
C142 C144 1.384 . S
C143 C141 1.382 . S
C143 C142 1.400 . S
C143 H160 0.930 . S
C144 C142 1.384 . S
C144 C146 1.392 . S
C144 H161 0.931 . S
C145 C141 1.393 . S
C145 C146 1.401 . S
C145 H162 0.930 . S
C146 C144 1.392 . S
C146 C145 1.401 . S
C146 H163 0.930 . S
C147 O130 1.262 . S
C147 O131 1.260 . S
C148 Tb84 2.833 . S
C148 O128 1.251 . S
C148 O133 1.256 . S
C148 C141 1.500 . S
C149 H114 0.929 . S
C149 C127 1.444 . S
C149 C150 1.317 . S
C150 H112 0.930 . S
C150 C118 1.432 . S
C150 C149 1.317 . S
C151 O135 1.283 . S
C151 O138 1.243 . S
C152 C153 1.382 . S
C152 C156 1.393 . S
C152 C159 1.500 . S
C153 C152 1.382 . S
C153 C154 1.400 . S
C153 H164 0.930 . S
C154 C153 1.400 . S
C154 C155 1.384 . S
C155 C154 1.384 . S
C155 C157 1.392 . S
C155 H165 0.931 . S
C156 C152 1.393 . S
C156 C157 1.401 . S
C156 H166 0.930 . S
C157 C155 1.392 . S
C157 C156 1.401 . S
C157 H167 0.930 . S
C158 O136 1.262 . S
C158 O137 1.260 . S
C159 Tb95 2.833 . S
C159 O134 1.251 . S
C159 O139 1.256 . S
C159 C152 1.500 . S
H160 C143 0.930 . S
H161 C144 0.931 . S
H162 C145 0.930 . S
H163 C146 0.930 . S
H164 C153 0.930 . S
H165 C155 0.931 . S
H166 C156 0.930 . S
H167 C157 0.930 . S
Tb168 N199 2.660 1_554 S
Tb168 N206 2.600 . S
Tb168 O212 2.546 . S
Tb168 O213 2.610 1_565 S
Tb168 O215 2.320 1_554 S
Tb168 O216 2.552 1_565 S
Tb168 O217 2.413 1_554 S
Tb168 O219 2.362 . S
Tb168 O220 2.421 1_565 S
Tb168 C232 2.833 1_554 S
C169 C172 1.432 1_556 S
C169 C173 1.414 . S
C169 N176 1.359 . S
C170 C172 1.417 . S
C170 C174 1.432 . S
C170 C182 1.410 . S
C171 C173 1.444 . S
C171 C174 1.317 1_556 S
C171 H194 0.929 . S
C172 C169 1.432 1_554 S
C172 C170 1.417 . S
C172 N180 1.360 . S
C173 C169 1.414 . S
C173 C171 1.444 . S
C173 C178 1.385 . S
C174 C170 1.432 . S
C174 C171 1.317 1_554 S
C174 H186 0.930 . S
C175 C177 1.392 . S
C175 C178 1.370 . S
C175 H187 0.931 . S
N176 C169 1.359 . S
N176 C177 1.327 . S
N176 Tb179 2.600 1_556 S
C177 C175 1.392 . S
C177 N176 1.327 . S
C177 H184 0.930 . S
C178 C173 1.385 . S
C178 C175 1.370 . S
C178 H197 0.930 . S
Tb179 N176 2.600 1_554 S
Tb179 N180 2.660 . S
Tb179 O213 2.362 . S
Tb179 O214 2.421 1_554 S
Tb179 O218 2.546 1_554 S
Tb179 O219 2.610 1_545 S
Tb179 O221 2.320 . S
Tb179 O222 2.552 1_554 S
Tb179 O223 2.413 . S
Tb179 C243 2.833 . S
N180 C172 1.360 . S
N180 Tb179 2.660 . S
N180 C181 1.305 . S
C181 N180 1.305 . S
C181 C183 1.407 . S
C181 H188 0.930 . S
C182 C170 1.410 . S
C182 C183 1.345 . S
C182 H190 0.930 . S
C183 C181 1.407 . S
C183 C182 1.345 . S
C183 H185 0.930 . S
H184 C177 0.930 . S
H185 C183 0.930 . S
H186 C174 0.930 . S
H187 C175 0.931 . S
H188 C181 0.930 . S
H189 C203 0.930 . S
H190 C182 0.930 . S
H191 C209 0.930 . S
H192 C200 0.930 . S
H193 C207 0.931 . S
H194 C171 0.929 . S
H195 C201 0.930 . S
H196 C234 0.930 . S
H197 C178 0.930 . S
H198 C233 0.929 . S
N199 Tb168 2.660 1_556 S
N199 C200 1.305 . S
N199 C204 1.360 . S
C200 H192 0.930 . S
C200 N199 1.305 . S
C200 C203 1.407 . S
C201 H195 0.930 . S
C201 C202 1.410 . S
C201 C203 1.345 . S
C202 C201 1.410 . S
C202 C204 1.417 . S
C202 C234 1.432 . S
C203 H189 0.930 . S
C203 C200 1.407 . S
C203 C201 1.345 . S
C204 N199 1.360 . S
C204 C202 1.417 . S
C204 C208 1.432 1_556 S
H205 C210 0.930 . S
N206 Tb168 2.600 . S
N206 C208 1.359 . S
N206 C209 1.327 . S
C207 H193 0.931 . S
C207 C209 1.392 . S
C207 C210 1.370 . S
C208 C204 1.432 1_554 S
C208 N206 1.359 . S
C208 C211 1.414 . S
C209 H191 0.930 . S
C209 N206 1.327 . S
C209 C207 1.392 . S
C210 H205 0.930 . S
C210 C207 1.370 . S
C210 C211 1.385 . S
C211 C208 1.414 . S
C211 C210 1.385 . S
C211 C233 1.444 . S
O212 Tb168 2.546 . S
O212 C232 1.251 1_554 S
O213 Tb168 2.610 1_545 S
O213 Tb179 2.362 . S
O213 C224 1.283 . S
O214 Tb179 2.421 1_556 S
O214 C231 1.262 . S
O215 Tb168 2.320 1_556 S
O215 C231 1.260 1_565 S
O216 Tb168 2.552 1_545 S
O216 C224 1.243 . S
O217 Tb168 2.413 1_556 S
O217 C232 1.256 . S
O218 Tb179 2.546 1_556 S
O218 C243 1.251 1_556 S
O219 Tb168 2.362 . S
O219 Tb179 2.610 1_565 S
O219 C235 1.283 . S
O220 Tb168 2.421 1_545 S
O220 C242 1.262 . S
O221 Tb179 2.320 . S
O221 C242 1.260 . S
O222 Tb179 2.552 1_556 S
O222 C235 1.243 1_546 S
O223 Tb179 2.413 . S
O223 C243 1.256 . S
C224 O213 1.283 . S
C224 O216 1.243 . S
C225 C227 1.382 . S
C225 C229 1.393 1_556 S
C225 C232 1.500 . S
C226 C227 1.400 . S
C226 C228 1.384 . S
C227 C225 1.382 . S
C227 C226 1.400 . S
C227 H244 0.930 . S
C228 C226 1.384 . S
C228 C230 1.392 1_556 S
C228 H245 0.931 . S
C229 C225 1.393 1_554 S
C229 C230 1.401 . S
C229 H246 0.930 . S
C230 C228 1.392 1_554 S
C230 C229 1.401 . S
C230 H247 0.930 . S
C231 O214 1.262 . S
C231 O215 1.260 1_545 S
C232 Tb168 2.833 1_556 S
C232 O212 1.251 1_556 S
C232 O217 1.256 . S
C232 C225 1.500 . S
C233 H198 0.929 . S
C233 C211 1.444 . S
C233 C234 1.317 1_554 S
C234 H196 0.930 . S
C234 C202 1.432 . S
C234 C233 1.317 1_556 S
C235 O219 1.283 . S
C235 O222 1.243 1_564 S
C236 C237 1.382 . S
C236 C240 1.393 1_554 S
C236 C243 1.500 . S
C237 C236 1.382 . S
C237 C238 1.400 . S
C237 H248 0.930 . S
C238 C237 1.400 . S
C238 C239 1.384 . S
C239 C238 1.384 . S
C239 C241 1.392 . S
C239 H249 0.931 . S
C240 C236 1.393 1_556 S
C240 C241 1.401 1_556 S
C240 H250 0.930 . S
C241 C239 1.392 . S
C241 C240 1.401 1_554 S
C241 H251 0.930 1_554 S
C242 O220 1.262 . S
C242 O221 1.260 . S
C243 Tb179 2.833 . S
C243 O218 1.251 1_554 S
C243 O223 1.256 . S
C243 C236 1.500 . S
H244 C227 0.930 . S
H245 C228 0.931 . S
H246 C229 0.930 . S
H247 C230 0.930 . S
H248 C237 0.930 . S
H249 C239 0.931 . S
H250 C240 0.930 . S
H251 C241 0.930 1_556 S
Tb252 N283 2.660 . S
Tb252 N290 2.600 . S
Tb252 O296 2.546 . S
Tb252 O297 2.610 . S
Tb252 O299 2.320 . S
Tb252 O300 2.552 . S
Tb252 O301 2.413 . S
Tb252 O303 2.362 . S
Tb252 O304 2.421 . S
Tb252 C316 2.833 . S
C253 C256 1.432 . S
C253 C257 1.414 . S
C253 N260 1.359 . S
C254 C256 1.417 . S
C254 C258 1.432 . S
C254 C266 1.410 . S
C255 C257 1.444 . S
C255 C258 1.317 . S
C255 H278 0.929 . S
C256 C253 1.432 . S
C256 C254 1.417 . S
C256 N264 1.360 . S
C257 C253 1.414 . S
C257 C255 1.444 . S
C257 C262 1.385 . S
C258 C254 1.432 . S
C258 C255 1.317 . S
C258 H270 0.930 . S
C259 C261 1.392 . S
C259 C262 1.370 . S
C259 H271 0.931 . S
N260 C253 1.359 . S
N260 C261 1.327 . S
N260 Tb263 2.600 . S
C261 C259 1.392 . S
C261 N260 1.327 . S
C261 H268 0.930 . S
C262 C257 1.385 . S
C262 C259 1.370 . S
C262 H281 0.930 . S
Tb263 N260 2.600 . S
Tb263 N264 2.660 . S
Tb263 O297 2.362 . S
Tb263 O298 2.421 . S
Tb263 O302 2.546 . S
Tb263 O303 2.610 . S
Tb263 O305 2.320 . S
Tb263 O306 2.552 . S
Tb263 O307 2.413 . S
Tb263 C327 2.833 . S
N264 C256 1.360 . S
N264 Tb263 2.660 . S
N264 C265 1.305 . S
C265 N264 1.305 . S
C265 C267 1.407 . S
C265 H272 0.930 . S
C266 C254 1.410 . S
C266 C267 1.345 . S
C266 H274 0.930 . S
C267 C265 1.407 . S
C267 C266 1.345 . S
C267 H269 0.930 . S
H268 C261 0.930 . S
H269 C267 0.930 . S
H270 C258 0.930 . S
H271 C259 0.931 . S
H272 C265 0.930 . S
H273 C287 0.930 . S
H274 C266 0.930 . S
H275 C293 0.930 . S
H276 C284 0.930 . S
H277 C291 0.931 . S
H278 C255 0.929 . S
H279 C285 0.930 . S
H280 C318 0.930 . S
H281 C262 0.930 . S
H282 C317 0.929 . S
N283 Tb252 2.660 . S
N283 C284 1.305 . S
N283 C288 1.360 . S
C284 H276 0.930 . S
C284 N283 1.305 . S
C284 C287 1.407 . S
C285 H279 0.930 . S
C285 C286 1.410 . S
C285 C287 1.345 . S
C286 C285 1.410 . S
C286 C288 1.417 . S
C286 C318 1.432 . S
C287 H273 0.930 . S
C287 C284 1.407 . S
C287 C285 1.345 . S
C288 N283 1.360 . S
C288 C286 1.417 . S
C288 C292 1.432 . S
H289 C294 0.930 . S
N290 Tb252 2.600 . S
N290 C292 1.359 . S
N290 C293 1.327 1_554 S
C291 H277 0.931 . S
C291 C293 1.392 . S
C291 C294 1.370 . S
C292 C288 1.432 . S
C292 N290 1.359 . S
C292 C295 1.414 1_554 S
C293 H275 0.930 . S
C293 N290 1.327 1_556 S
C293 C291 1.392 . S
C294 H289 0.930 . S
C294 C291 1.370 . S
C294 C295 1.385 . S
C295 C292 1.414 1_556 S
C295 C294 1.385 . S
C295 C317 1.444 . S
O296 Tb252 2.546 . S
O296 C316 1.251 . S
O297 Tb252 2.610 . S
O297 Tb263 2.362 . S
O297 C308 1.283 . S
O298 Tb263 2.421 . S
O298 C315 1.262 . S
O299 Tb252 2.320 . S
O299 C315 1.260 . S
O300 Tb252 2.552 . S
O300 C308 1.243 . S
O301 Tb252 2.413 . S
O301 C316 1.256 . S
O302 Tb263 2.546 . S
O302 C327 1.251 . S
O303 Tb252 2.362 . S
O303 Tb263 2.610 . S
O303 C319 1.283 . S
O304 Tb252 2.421 . S
O304 C326 1.262 1_554 S
O305 Tb263 2.320 . S
O305 C326 1.260 1_554 S
O306 Tb263 2.552 . S
O306 C319 1.243 . S
O307 Tb263 2.413 . S
O307 C327 1.256 . S
C308 O297 1.283 . S
C308 O300 1.243 . S
C309 C311 1.382 . S
C309 C313 1.393 . S
C309 C316 1.500 . S
C310 C311 1.400 . S
C310 C312 1.384 . S
C311 C309 1.382 . S
C311 C310 1.400 . S
C311 H328 0.930 . S
C312 C310 1.384 . S
C312 C314 1.392 . S
C312 H329 0.931 . S
C313 C309 1.393 . S
C313 C314 1.401 . S
C313 H330 0.930 . S
C314 C312 1.392 . S
C314 C313 1.401 . S
C314 H331 0.930 . S
C315 O298 1.262 . S
C315 O299 1.260 . S
C316 Tb252 2.833 . S
C316 O296 1.251 . S
C316 O301 1.256 . S
C316 C309 1.500 . S
C317 H282 0.929 . S
C317 C295 1.444 . S
C317 C318 1.317 1_556 S
C318 H280 0.930 . S
C318 C286 1.432 . S
C318 C317 1.317 1_554 S
C319 O303 1.283 . S
C319 O306 1.243 . S
C320 C321 1.382 . S
C320 C324 1.393 . S
C320 C327 1.500 . S
C321 C320 1.382 . S
C321 C322 1.400 . S
C321 H332 0.930 . S
C322 C321 1.400 . S
C322 C323 1.384 . S
C323 C322 1.384 . S
C323 C325 1.392 . S
C323 H333 0.931 . S
C324 C320 1.393 . S
C324 C325 1.401 . S
C324 H334 0.930 . S
C325 C323 1.392 . S
C325 C324 1.401 . S
C325 H335 0.930 . S
C326 O304 1.262 1_556 S
C326 O305 1.260 1_556 S
C327 Tb263 2.833 . S
C327 O302 1.251 . S
C327 O307 1.256 . S
C327 C320 1.500 . S
H328 C311 0.930 . S
H329 C312 0.931 . S
H330 C313 0.930 . S
H331 C314 0.930 . S
H332 C321 0.930 . S
H333 C323 0.931 . S
H334 C324 0.930 . S
H335 C325 0.930 . S
Tb336 N367 2.660 1_556 S
Tb336 N374 2.600 . S
Tb336 O380 2.546 . S
Tb336 O381 2.610 1_556 S
Tb336 O383 2.320 1_556 S
Tb336 O384 2.552 . S
Tb336 O385 2.413 1_556 S
Tb336 O387 2.362 1_556 S
Tb336 O388 2.421 . S
Tb336 C400 2.833 . S
C337 C340 1.432 1_554 S
C337 C341 1.414 . S
C337 N344 1.359 . S
C338 C340 1.417 . S
C338 C342 1.432 . S
C338 C350 1.410 . S
C339 C341 1.444 . S
C339 C342 1.317 1_554 S
C339 H362 0.929 . S
C340 C337 1.432 1_556 S
C340 C338 1.417 . S
C340 N348 1.360 . S
C341 C337 1.414 . S
C341 C339 1.444 . S
C341 C346 1.385 . S
C342 C338 1.432 . S
C342 C339 1.317 1_556 S
C342 H354 0.930 . S
C343 C345 1.392 . S
C343 C346 1.370 . S
C343 H355 0.931 . S
N344 C337 1.359 . S
N344 C345 1.327 . S
N344 Tb347 2.600 . S
C345 C343 1.392 . S
C345 N344 1.327 . S
C345 H352 0.930 . S
C346 C341 1.385 . S
C346 C343 1.370 . S
C346 H365 0.930 . S
Tb347 N344 2.600 . S
Tb347 N348 2.660 1_554 S
Tb347 O381 2.362 . S
Tb347 O382 2.421 . S
Tb347 O386 2.546 . S
Tb347 O387 2.610 . S
Tb347 O389 2.320 1_554 S
Tb347 O390 2.552 . S
Tb347 O391 2.413 1_554 S
Tb347 C411 2.833 . S
N348 C340 1.360 . S
N348 Tb347 2.660 1_556 S
N348 C349 1.305 . S
C349 N348 1.305 . S
C349 C351 1.407 . S
C349 H356 0.930 . S
C350 C338 1.410 . S
C350 C351 1.345 . S
C350 H358 0.930 . S
C351 C349 1.407 . S
C351 C350 1.345 . S
C351 H353 0.930 . S
H352 C345 0.930 . S
H353 C351 0.930 . S
H354 C342 0.930 . S
H355 C343 0.931 . S
H356 C349 0.930 . S
H357 C371 0.930 . S
H358 C350 0.930 . S
H359 C377 0.930 . S
H360 C368 0.930 . S
H361 C375 0.931 . S
H362 C339 0.929 . S
H363 C369 0.930 . S
H364 C402 0.930 . S
H365 C346 0.930 . S
H366 C401 0.929 . S
N367 Tb336 2.660 1_554 S
N367 C368 1.305 . S
N367 C372 1.360 . S
C368 H360 0.930 . S
C368 N367 1.305 . S
C368 C371 1.407 . S
C369 H363 0.930 . S
C369 C370 1.410 . S
C369 C371 1.345 . S
C370 C369 1.410 . S
C370 C372 1.417 . S
C370 C402 1.432 . S
C371 H357 0.930 . S
C371 C368 1.407 . S
C371 C369 1.345 . S
C372 N367 1.360 . S
C372 C370 1.417 . S
C372 C376 1.432 1_554 S
H373 C378 0.930 . S
N374 Tb336 2.600 . S
N374 C376 1.359 . S
N374 C377 1.327 . S
C375 H361 0.931 . S
C375 C377 1.392 . S
C375 C378 1.370 . S
C376 C372 1.432 1_556 S
C376 N374 1.359 . S
C376 C379 1.414 . S
C377 H359 0.930 . S
C377 N374 1.327 . S
C377 C375 1.392 . S
C378 H373 0.930 . S
C378 C375 1.370 . S
C378 C379 1.385 . S
C379 C376 1.414 . S
C379 C378 1.385 . S
C379 C401 1.444 . S
O380 Tb336 2.546 . S
O380 C400 1.251 . S
O381 Tb336 2.610 1_554 S
O381 Tb347 2.362 . S
O381 C392 1.283 . S
O382 Tb347 2.421 . S
O382 C399 1.262 . S
O383 Tb336 2.320 1_554 S
O383 C399 1.260 . S
O384 Tb336 2.552 . S
O384 C392 1.243 1_556 S
O385 Tb336 2.413 1_554 S
O385 C400 1.256 1_554 S
O386 Tb347 2.546 . S
O386 C411 1.251 . S
O387 Tb336 2.362 1_554 S
O387 Tb347 2.610 . S
O387 C403 1.283 . S
O388 Tb336 2.421 . S
O388 C410 1.262 . S
O389 Tb347 2.320 1_556 S
O389 C410 1.260 . S
O390 Tb347 2.552 . S
O390 C403 1.243 . S
O391 Tb347 2.413 1_556 S
O391 C411 1.256 1_556 S
C392 O381 1.283 . S
C392 O384 1.243 1_554 S
C393 C395 1.382 . S
C393 C397 1.393 1_554 S
C393 C400 1.500 1_554 S
C394 C395 1.400 . S
C394 C396 1.384 . S
C395 C393 1.382 . S
C395 C394 1.400 . S
C395 H412 0.930 . S
C396 C394 1.384 . S
C396 C398 1.392 1_554 S
C396 H413 0.931 . S
C397 C393 1.393 1_556 S
C397 C398 1.401 . S
C397 H414 0.930 . S
C398 C396 1.392 1_556 S
C398 C397 1.401 . S
C398 H415 0.930 . S
C399 O382 1.262 . S
C399 O383 1.260 . S
C400 Tb336 2.833 . S
C400 O380 1.251 . S
C400 O385 1.256 1_556 S
C400 C393 1.500 1_556 S
C401 H366 0.929 . S
C401 C379 1.444 . S
C401 C402 1.317 1_556 S
C402 H364 0.930 . S
C402 C370 1.432 . S
C402 C401 1.317 1_554 S
C403 O387 1.283 . S
C403 O390 1.243 . S
C404 C405 1.382 1_554 S
C404 C408 1.393 . S
C404 C411 1.500 . S
C405 C404 1.382 1_556 S
C405 C406 1.400 . S
C405 H416 0.930 . S
C406 C405 1.400 . S
C406 C407 1.384 1_556 S
C407 C406 1.384 1_554 S
C407 C409 1.392 . S
C407 H417 0.931 . S
C408 C404 1.393 . S
C408 C409 1.401 . S
C408 H418 0.930 . S
C409 C407 1.392 . S
C409 C408 1.401 . S
C409 H419 0.930 . S
C410 O388 1.262 . S
C410 O389 1.260 . S
C411 Tb347 2.833 . S
C411 O386 1.251 . S
C411 O391 1.256 1_554 S
C411 C404 1.500 . S
H412 C395 0.930 . S
H413 C396 0.931 . S
H414 C397 0.930 . S
H415 C398 0.930 . S
H416 C405 0.930 . S
H417 C407 0.931 . S
H418 C408 0.930 . S
H419 C409 0.930 . S
Tb420 N451 2.660 . S
Tb420 N458 2.600 . S
Tb420 O464 2.546 . S
Tb420 O465 2.610 . S
Tb420 O467 2.320 . S
Tb420 O468 2.552 . S
Tb420 O469 2.413 . S
Tb420 O471 2.362 . S
Tb420 O472 2.421 . S
Tb420 C484 2.833 . S
C421 C424 1.432 . S
C421 C425 1.414 . S
C421 N428 1.359 . S
C422 C424 1.417 . S
C422 C426 1.432 . S
C422 C434 1.410 . S
C423 C425 1.444 . S
C423 C426 1.317 . S
C423 H446 0.929 . S
C424 C421 1.432 . S
C424 C422 1.417 . S
C424 N432 1.360 . S
C425 C421 1.414 . S
C425 C423 1.444 . S
C425 C430 1.385 . S
C426 C422 1.432 . S
C426 C423 1.317 . S
C426 H438 0.930 . S
C427 C429 1.392 . S
C427 C430 1.370 . S
C427 H439 0.931 . S
N428 C421 1.359 . S
N428 C429 1.327 . S
N428 Tb431 2.600 . S
C429 C427 1.392 . S
C429 N428 1.327 . S
C429 H436 0.930 . S
C430 C425 1.385 . S
C430 C427 1.370 . S
C430 H449 0.930 . S
Tb431 N428 2.600 . S
Tb431 N432 2.660 . S
Tb431 O465 2.362 . S
Tb431 O466 2.421 . S
Tb431 O470 2.546 . S
Tb431 O471 2.610 . S
Tb431 O473 2.320 . S
Tb431 O474 2.552 . S
Tb431 O475 2.413 . S
Tb431 C495 2.833 . S
N432 C424 1.360 . S
N432 Tb431 2.660 . S
N432 C433 1.305 . S
C433 N432 1.305 . S
C433 C435 1.407 1_554 S
C433 H440 0.930 . S
C434 C422 1.410 . S
C434 C435 1.345 1_554 S
C434 H442 0.930 1_554 S
C435 C433 1.407 1_556 S
C435 C434 1.345 1_556 S
C435 H437 0.930 . S
H436 C429 0.930 . S
H437 C435 0.930 . S
H438 C426 0.930 . S
H439 C427 0.931 . S
H440 C433 0.930 . S
H441 C455 0.930 . S
H442 C434 0.930 1_556 S
H443 C461 0.930 . S
H444 C452 0.930 . S
H445 C459 0.931 1_556 S
H446 C423 0.929 . S
H447 C453 0.930 . S
H448 C486 0.930 . S
H449 C430 0.930 . S
H450 C485 0.929 . S
N451 Tb420 2.660 . S
N451 C452 1.305 . S
N451 C456 1.360 . S
C452 H444 0.930 . S
C452 N451 1.305 . S
C452 C455 1.407 . S
C453 H447 0.930 . S
C453 C454 1.410 . S
C453 C455 1.345 . S
C454 C453 1.410 . S
C454 C456 1.417 . S
C454 C486 1.432 . S
C455 H441 0.930 . S
C455 C452 1.407 . S
C455 C453 1.345 . S
C456 N451 1.360 . S
C456 C454 1.417 . S
C456 C460 1.432 . S
H457 C462 0.930 . S
N458 Tb420 2.600 . S
N458 C460 1.359 . S
N458 C461 1.327 . S
C459 H445 0.931 1_554 S
C459 C461 1.392 . S
C459 C462 1.370 . S
C460 C456 1.432 . S
C460 N458 1.359 . S
C460 C463 1.414 . S
C461 H443 0.930 . S
C461 N458 1.327 . S
C461 C459 1.392 . S
C462 H457 0.930 . S
C462 C459 1.370 . S
C462 C463 1.385 . S
C463 C460 1.414 . S
C463 C462 1.385 . S
C463 C485 1.444 . S
O464 Tb420 2.546 . S
O464 C484 1.251 . S
O465 Tb420 2.610 . S
O465 Tb431 2.362 . S
O465 C476 1.283 . S
O466 Tb431 2.421 . S
O466 C483 1.262 . S
O467 Tb420 2.320 . S
O467 C483 1.260 . S
O468 Tb420 2.552 . S
O468 C476 1.243 . S
O469 Tb420 2.413 . S
O469 C484 1.256 . S
O470 Tb431 2.546 . S
O470 C495 1.251 . S
O471 Tb420 2.362 . S
O471 Tb431 2.610 . S
O471 C487 1.283 . S
O472 Tb420 2.421 . S
O472 C494 1.262 . S
O473 Tb431 2.320 . S
O473 C494 1.260 . S
O474 Tb431 2.552 . S
O474 C487 1.243 . S
O475 Tb431 2.413 . S
O475 C495 1.256 . S
C476 O465 1.283 . S
C476 O468 1.243 . S
C477 C479 1.382 . S
C477 C481 1.393 . S
C477 C484 1.500 . S
C478 C479 1.400 1_455 S
C478 C480 1.384 . S
C479 C477 1.382 . S
C479 C478 1.400 1_655 S
C479 H496 0.930 . S
C480 C478 1.384 . S
C480 C482 1.392 . S
C480 H497 0.931 . S
C481 C477 1.393 . S
C481 C482 1.401 1_655 S
C481 H498 0.930 . S
C482 C480 1.392 . S
C482 C481 1.401 1_455 S
C482 H499 0.930 . S
C483 O466 1.262 . S
C483 O467 1.260 . S
C484 Tb420 2.833 . S
C484 O464 1.251 . S
C484 O469 1.256 . S
C484 C477 1.500 . S
C485 H450 0.929 . S
C485 C463 1.444 . S
C485 C486 1.317 . S
C486 H448 0.930 . S
C486 C454 1.432 . S
C486 C485 1.317 . S
C487 O471 1.283 . S
C487 O474 1.243 . S
C488 C489 1.382 . S
C488 C492 1.393 . S
C488 C495 1.500 . S
C489 C488 1.382 . S
C489 C490 1.400 1_554 S
C489 H500 0.930 1_554 S
C490 C489 1.400 1_556 S
C490 C491 1.384 1_556 S
C491 C490 1.384 1_554 S
C491 C493 1.392 . S
C491 H501 0.931 1_554 S
C492 C488 1.393 . S
C492 C493 1.401 . S
C492 H502 0.930 . S
C493 C491 1.392 . S
C493 C492 1.401 . S
C493 H503 0.930 . S
C494 O472 1.262 . S
C494 O473 1.260 . S
C495 Tb431 2.833 . S
C495 O470 1.251 . S
C495 O475 1.256 . S
C495 C488 1.500 . S
H496 C479 0.930 . S
H497 C480 0.931 . S
H498 C481 0.930 . S
H499 C482 0.930 . S
H500 C489 0.930 1_556 S
H501 C491 0.931 1_556 S
H502 C492 0.930 . S
H503 C493 0.930 . S
Tb504 N535 2.660 . S
Tb504 N542 2.600 . S
Tb504 O548 2.546 . S
Tb504 O549 2.610 . S
Tb504 O551 2.320 . S
Tb504 O552 2.552 . S
Tb504 O553 2.413 . S
Tb504 O555 2.362 . S
Tb504 O556 2.421 . S
Tb504 C568 2.833 . S
C505 C508 1.432 . S
C505 C509 1.414 . S
C505 N512 1.359 . S
C506 C508 1.417 . S
C506 C510 1.432 . S
C506 C518 1.410 . S
C507 C509 1.444 . S
C507 C510 1.317 . S
C507 H530 0.929 . S
C508 C505 1.432 . S
C508 C506 1.417 . S
C508 N516 1.360 . S
C509 C505 1.414 . S
C509 C507 1.444 . S
C509 C514 1.385 . S
C510 C506 1.432 . S
C510 C507 1.317 . S
C510 H522 0.930 . S
C511 C513 1.392 . S
C511 C514 1.370 . S
C511 H523 0.931 . S
N512 C505 1.359 . S
N512 C513 1.327 . S
N512 Tb515 2.600 . S
C513 C511 1.392 . S
C513 N512 1.327 . S
C513 H520 0.930 . S
C514 C509 1.385 . S
C514 C511 1.370 . S
C514 H533 0.930 . S
Tb515 N512 2.600 . S
Tb515 N516 2.660 . S
Tb515 O549 2.362 . S
Tb515 O550 2.421 . S
Tb515 O554 2.546 . S
Tb515 O555 2.610 . S
Tb515 O557 2.320 . S
Tb515 O558 2.552 . S
Tb515 O559 2.413 . S
Tb515 C579 2.833 . S
N516 C508 1.360 . S
N516 Tb515 2.660 . S
N516 C517 1.305 . S
C517 N516 1.305 . S
C517 C519 1.407 . S
C517 H524 0.930 . S
C518 C506 1.410 . S
C518 C519 1.345 . S
C518 H526 0.930 . S
C519 C517 1.407 . S
C519 C518 1.345 . S
C519 H521 0.930 . S
H520 C513 0.930 . S
H521 C519 0.930 . S
H522 C510 0.930 . S
H523 C511 0.931 . S
H524 C517 0.930 . S
H525 C539 0.930 . S
H526 C518 0.930 . S
H527 C545 0.930 . S
H528 C536 0.930 . S
H529 C543 0.931 . S
H530 C507 0.929 . S
H531 C537 0.930 . S
H532 C570 0.930 . S
H533 C514 0.930 . S
H534 C569 0.929 . S
N535 Tb504 2.660 . S
N535 C536 1.305 . S
N535 C540 1.360 . S
C536 H528 0.930 . S
C536 N535 1.305 . S
C536 C539 1.407 . S
C537 H531 0.930 . S
C537 C538 1.410 . S
C537 C539 1.345 . S
C538 C537 1.410 . S
C538 C540 1.417 . S
C538 C570 1.432 . S
C539 H525 0.930 . S
C539 C536 1.407 . S
C539 C537 1.345 . S
C540 N535 1.360 . S
C540 C538 1.417 . S
C540 C544 1.432 . S
H541 C546 0.930 1_554 S
N542 Tb504 2.600 . S
N542 C544 1.359 . S
N542 C545 1.327 . S
C543 H529 0.931 . S
C543 C545 1.392 1_554 S
C543 C546 1.370 1_554 S
C544 C540 1.432 . S
C544 N542 1.359 . S
C544 C547 1.414 . S
C545 H527 0.930 . S
C545 N542 1.327 . S
C545 C543 1.392 1_556 S
C546 H541 0.930 1_556 S
C546 C543 1.370 1_556 S
C546 C547 1.385 . S
C547 C544 1.414 . S
C547 C546 1.385 . S
C547 C569 1.444 . S
O548 Tb504 2.546 . S
O548 C568 1.251 . S
O549 Tb504 2.610 . S
O549 Tb515 2.362 . S
O549 C560 1.283 . S
O550 Tb515 2.421 . S
O550 C567 1.262 . S
O551 Tb504 2.320 . S
O551 C567 1.260 . S
O552 Tb504 2.552 . S
O552 C560 1.243 . S
O553 Tb504 2.413 . S
O553 C568 1.256 . S
O554 Tb515 2.546 . S
O554 C579 1.251 . S
O555 Tb504 2.362 . S
O555 Tb515 2.610 . S
O555 C571 1.283 . S
O556 Tb504 2.421 . S
O556 C578 1.262 . S
O557 Tb515 2.320 . S
O557 C578 1.260 . S
O558 Tb515 2.552 . S
O558 C571 1.243 . S
O559 Tb515 2.413 . S
O559 C579 1.256 . S
C560 O549 1.283 . S
C560 O552 1.243 . S
C561 C563 1.382 . S
C561 C565 1.393 . S
C561 C568 1.500 . S
C562 C563 1.400 . S
C562 C564 1.384 . S
C563 C561 1.382 . S
C563 C562 1.400 . S
C563 H580 0.930 . S
C564 C562 1.384 . S
C564 C566 1.392 . S
C564 H581 0.867 1_565 S
C565 C561 1.393 . S
C565 C566 1.401 . S
C565 H582 0.930 . S
C566 C564 1.392 . S
C566 C565 1.401 . S
C566 H583 0.930 . S
C567 O550 1.262 . S
C567 O551 1.260 . S
C568 Tb504 2.833 . S
C568 O548 1.251 . S
C568 O553 1.256 . S
C568 C561 1.500 . S
C569 H534 0.929 . S
C569 C547 1.444 . S
C569 C570 1.317 . S
C570 H532 0.930 . S
C570 C538 1.432 . S
C570 C569 1.317 . S
C571 O555 1.283 . S
C571 O558 1.243 . S
C572 C573 1.382 . S
C572 C576 1.393 . S
C572 C579 1.500 . S
C573 C572 1.382 . S
C573 C574 1.400 . S
C573 H584 0.930 . S
C574 C573 1.400 . S
C574 C575 1.384 . S
C575 C574 1.384 . S
C575 C577 1.392 . S
C575 H585 0.931 . S
C576 C572 1.393 . S
C576 C577 1.401 . S
C576 H586 0.930 . S
C577 C575 1.392 . S
C577 C576 1.401 . S
C577 H587 0.930 . S
C578 O556 1.262 . S
C578 O557 1.260 . S
C579 Tb515 2.833 . S
C579 O554 1.251 . S
C579 O559 1.256 . S
C579 C572 1.500 . S
H580 C563 0.930 . S
H581 C564 0.867 1_545 S
H582 C565 0.930 . S
H583 C566 0.930 . S
H584 C573 0.930 . S
H585 C575 0.931 . S
H586 C576 0.930 . S
H587 C577 0.930 . S
Tb588 N619 2.660 . S
Tb588 N626 2.600 . S
Tb588 O632 2.546 . S
Tb588 O633 2.610 . S
Tb588 O635 2.320 . S
Tb588 O636 2.552 . S
Tb588 O637 2.413 . S
Tb588 O639 2.362 . S
Tb588 O640 2.421 . S
Tb588 C652 2.833 . S
C589 C592 1.432 . S
C589 C593 1.414 . S
C589 N596 1.359 . S
C590 C592 1.417 . S
C590 C594 1.432 . S
C590 C602 1.410 . S
C591 C593 1.444 . S
C591 C594 1.317 . S
C591 H614 0.929 . S
C592 C589 1.432 . S
C592 C590 1.417 . S
C592 N600 1.360 . S
C593 C589 1.414 . S
C593 C591 1.444 . S
C593 C598 1.385 1_556 S
C594 C590 1.432 . S
C594 C591 1.317 . S
C594 H606 0.930 . S
C595 C597 1.392 . S
C595 C598 1.370 . S
C595 H607 0.931 . S
N596 C589 1.359 . S
N596 C597 1.327 1_556 S
N596 Tb599 2.600 . S
C597 C595 1.392 . S
C597 N596 1.327 1_554 S
C597 H604 0.930 . S
C598 C593 1.385 1_554 S
C598 C595 1.370 . S
C598 H617 0.930 . S
Tb599 N596 2.600 . S
Tb599 N600 2.660 . S
Tb599 O633 2.362 . S
Tb599 O634 2.421 1_556 S
Tb599 O638 2.546 . S
Tb599 O639 2.610 . S
Tb599 O641 2.320 . S
Tb599 O642 2.552 . S
Tb599 O643 2.413 . S
Tb599 C663 2.833 . S
N600 C592 1.360 . S
N600 Tb599 2.660 . S
N600 C601 1.305 . S
C601 N600 1.305 . S
C601 C603 1.407 . S
C601 H608 0.930 . S
C602 C590 1.410 . S
C602 C603 1.345 . S
C602 H610 0.930 . S
C603 C601 1.407 . S
C603 C602 1.345 . S
C603 H605 0.930 . S
H604 C597 0.930 . S
H605 C603 0.930 . S
H606 C594 0.930 . S
H607 C595 0.931 . S
H608 C601 0.930 . S
H609 C623 0.930 . S
H610 C602 0.930 . S
H611 C629 0.930 . S
H612 C620 0.930 . S
H613 C627 0.931 . S
H614 C591 0.929 . S
H615 C621 0.930 . S
H616 C654 0.930 . S
H617 C598 0.930 . S
H618 C653 0.929 . S
N619 Tb588 2.660 . S
N619 C620 1.305 1_556 S
N619 C624 1.360 . S
C620 H612 0.930 . S
C620 N619 1.305 1_554 S
C620 C623 1.407 . S
C621 H615 0.930 . S
C621 C622 1.410 1_554 S
C621 C623 1.345 . S
C622 C621 1.410 1_556 S
C622 C624 1.417 . S
C622 C654 1.432 . S
C623 H609 0.930 . S
C623 C620 1.407 . S
C623 C621 1.345 . S
C624 N619 1.360 . S
C624 C622 1.417 . S
C624 C628 1.432 . S
H625 C630 0.930 . S
N626 Tb588 2.600 . S
N626 C628 1.359 . S
N626 C629 1.327 . S
C627 H613 0.931 . S
C627 C629 1.392 . S
C627 C630 1.370 . S
C628 C624 1.432 . S
C628 N626 1.359 . S
C628 C631 1.414 . S
C629 H611 0.930 . S
C629 N626 1.327 . S
C629 C627 1.392 . S
C630 H625 0.930 . S
C630 C627 1.370 . S
C630 C631 1.385 . S
C631 C628 1.414 . S
C631 C630 1.385 . S
C631 C653 1.444 . S
O632 Tb588 2.546 . S
O632 C652 1.251 . S
O633 Tb588 2.610 . S
O633 Tb599 2.362 . S
O633 C644 1.283 . S
O634 Tb599 2.421 1_554 S
O634 C651 1.262 . S
O635 Tb588 2.320 . S
O635 C651 1.260 1_556 S
O636 Tb588 2.552 . S
O636 C644 1.243 . S
O637 Tb588 2.413 . S
O637 C652 1.256 . S
O638 Tb599 2.546 . S
O638 C663 1.251 . S
O639 Tb588 2.362 . S
O639 Tb599 2.610 . S
O639 C655 1.283 . S
O640 Tb588 2.421 . S
O640 C662 1.262 . S
O641 Tb599 2.320 . S
O641 C662 1.260 . S
O642 Tb599 2.552 . S
O642 C655 1.243 . S
O643 Tb599 2.413 . S
O643 C663 1.256 . S
C644 O633 1.283 . S
C644 O636 1.243 . S
C645 C647 1.382 . S
C645 C649 1.393 . S
C645 C652 1.500 . S
C646 C647 1.400 . S
C646 C648 1.384 . S
C647 C645 1.382 . S
C647 C646 1.400 . S
C647 H664 0.930 . S
C648 C646 1.384 . S
C648 C650 1.392 . S
C648 H665 0.931 . S
C649 C645 1.393 . S
C649 C650 1.401 . S
C649 H666 0.930 . S
C650 C648 1.392 . S
C650 C649 1.401 . S
C650 H667 0.930 . S
C651 O634 1.262 . S
C651 O635 1.260 1_554 S
C652 Tb588 2.833 . S
C652 O632 1.251 . S
C652 O637 1.256 . S
C652 C645 1.500 . S
C653 H618 0.929 . S
C653 C631 1.444 . S
C653 C654 1.317 . S
C654 H616 0.930 . S
C654 C622 1.432 . S
C654 C653 1.317 . S
C655 O639 1.283 . S
C655 O642 1.243 . S
C656 C657 1.382 . S
C656 C660 1.393 . S
C656 C663 1.500 . S
C657 C656 1.382 . S
C657 C658 1.400 . S
C657 H668 0.930 . S
C658 C657 1.400 . S
C658 C659 1.384 . S
C659 C658 1.384 . S
C659 C661 1.392 . S
C659 H669 0.931 . S
C660 C656 1.393 . S
C660 C661 1.401 . S
C660 H670 0.930 1_556 S
C661 C659 1.392 . S
C661 C660 1.401 . S
C661 H671 0.936 . S
C662 O640 1.262 . S
C662 O641 1.260 . S
C663 Tb599 2.833 . S
C663 O638 1.251 . S
C663 O643 1.256 . S
C663 C656 1.500 . S
H664 C647 0.930 . S
H665 C648 0.931 . S
H666 C649 0.930 . S
H667 C650 0.930 . S
H668 C657 0.930 . S
H669 C659 0.931 . S
H670 C660 0.930 1_554 S
H671 C661 0.936 . S
Tb672 N703 2.660 . S
Tb672 N710 2.600 . S
Tb672 O716 2.546 . S
Tb672 O717 2.610 . S
Tb672 O719 2.320 . S
Tb672 O720 2.552 . S
Tb672 O721 2.413 . S
Tb672 O723 2.362 . S
Tb672 O724 2.421 1_556 S
Tb672 C736 2.833 . S
C673 C676 1.432 . S
C673 C677 1.414 . S
C673 N680 1.359 . S
C674 C676 1.417 . S
C674 C678 1.432 . S
C674 C686 1.410 1_556 S
C675 C677 1.444 . S
C675 C678 1.317 . S
C675 H698 0.929 . S
C676 C673 1.432 . S
C676 C674 1.417 . S
C676 N684 1.360 . S
C677 C673 1.414 . S
C677 C675 1.444 . S
C677 C682 1.385 . S
C678 C674 1.432 . S
C678 C675 1.317 . S
C678 H690 0.930 . S
C679 C681 1.392 . S
C679 C682 1.370 . S
C679 H691 0.931 . S
N680 C673 1.359 . S
N680 C681 1.327 . S
N680 Tb683 2.600 . S
C681 C679 1.392 . S
C681 N680 1.327 . S
C681 H688 0.930 . S
C682 C677 1.385 . S
C682 C679 1.370 . S
C682 H701 0.930 . S
Tb683 N680 2.600 . S
Tb683 N684 2.660 . S
Tb683 O717 2.362 . S
Tb683 O718 2.421 . S
Tb683 O722 2.546 . S
Tb683 O723 2.610 . S
Tb683 O725 2.320 1_556 S
Tb683 O726 2.552 . S
Tb683 O727 2.413 . S
Tb683 C747 2.833 . S
N684 C676 1.360 . S
N684 Tb683 2.660 . S
N684 C685 1.305 1_556 S
C685 N684 1.305 1_554 S
C685 C687 1.407 . S
C685 H692 0.930 . S
C686 C674 1.410 1_554 S
C686 C687 1.345 . S
C686 H694 0.930 . S
C687 C685 1.407 . S
C687 C686 1.345 . S
C687 H689 0.930 . S
H688 C681 0.930 . S
H689 C687 0.930 . S
H690 C678 0.930 . S
H691 C679 0.931 . S
H692 C685 0.930 . S
H693 C707 0.930 . S
H694 C686 0.930 . S
H695 C713 0.930 . S
H696 C704 0.930 . S
H697 C711 0.931 . S
H698 C675 0.929 . S
H699 C705 0.930 . S
H700 C738 0.930 . S
H701 C682 0.930 . S
H702 C737 0.929 . S
N703 Tb672 2.660 . S
N703 C704 1.305 . S
N703 C708 1.360 . S
C704 H696 0.930 . S
C704 N703 1.305 . S
C704 C707 1.407 . S
C705 H699 0.930 . S
C705 C706 1.410 . S
C705 C707 1.345 . S
C706 C705 1.410 . S
C706 C708 1.417 . S
C706 C738 1.432 . S
C707 H693 0.930 . S
C707 C704 1.407 . S
C707 C705 1.345 . S
C708 N703 1.360 . S
C708 C706 1.417 . S
C708 C712 1.432 . S
H709 C714 0.930 1_554 S
N710 Tb672 2.600 . S
N710 C712 1.359 . S
N710 C713 1.327 1_556 S
C711 H697 0.931 . S
C711 C713 1.392 . S
C711 C714 1.370 1_554 S
C712 C708 1.432 . S
C712 N710 1.359 . S
C712 C715 1.414 . S
C713 H695 0.930 . S
C713 N710 1.327 1_554 S
C713 C711 1.392 . S
C714 H709 0.930 1_556 S
C714 C711 1.370 1_556 S
C714 C715 1.385 . S
C715 C712 1.414 . S
C715 C714 1.385 . S
C715 C737 1.444 . S
O716 Tb672 2.546 . S
O716 C736 1.251 . S
O717 Tb672 2.610 . S
O717 Tb683 2.362 . S
O717 C728 1.283 . S
O718 Tb683 2.421 . S
O718 C735 1.262 . S
O719 Tb672 2.320 . S
O719 C735 1.260 . S
O720 Tb672 2.552 . S
O720 C728 1.243 . S
O721 Tb672 2.413 . S
O721 C736 1.256 . S
O722 Tb683 2.546 . S
O722 C747 1.251 . S
O723 Tb672 2.362 . S
O723 Tb683 2.610 . S
O723 C739 1.283 . S
O724 Tb672 2.421 1_554 S
O724 C746 1.262 . S
O725 Tb683 2.320 1_554 S
O725 C746 1.260 . S
O726 Tb683 2.552 . S
O726 C739 1.243 . S
O727 Tb683 2.413 . S
O727 C747 1.256 . S
C728 O717 1.283 . S
C728 O720 1.243 . S
C729 C731 1.382 . S
C729 C733 1.393 . S
C729 C736 1.500 . S
C730 C731 1.400 . S
C730 C732 1.384 . S
C731 C729 1.382 . S
C731 C730 1.400 . S
C731 H748 0.930 . S
C732 C730 1.384 . S
C732 C734 1.392 . S
C732 H749 0.931 . S
C733 C729 1.393 . S
C733 C734 1.401 . S
C733 H750 0.930 . S
C734 C732 1.392 . S
C734 C733 1.401 . S
C734 H751 0.930 . S
C735 O718 1.262 . S
C735 O719 1.260 . S
C736 Tb672 2.833 . S
C736 O716 1.251 . S
C736 O721 1.256 . S
C736 C729 1.500 . S
C737 H702 0.929 . S
C737 C715 1.444 . S
C737 C738 1.317 . S
C738 H700 0.930 . S
C738 C706 1.432 . S
C738 C737 1.317 . S
C739 O723 1.283 . S
C739 O726 1.243 . S
C740 C741 1.382 . S
C740 C744 1.393 . S
C740 C747 1.500 . S
C741 C740 1.382 . S
C741 C742 1.403 . S
C741 H752 0.930 1_556 S
C742 C741 1.403 . S
C742 C743 1.395 . S
C743 C742 1.395 . S
C743 C745 1.392 . S
C743 H753 0.931 . S
C744 C740 1.393 . S
C744 C745 1.401 . S
C744 H754 0.930 . S
C745 C743 1.392 . S
C745 C744 1.401 . S
C745 H755 0.930 . S
C746 O724 1.262 . S
C746 O725 1.260 . S
C747 Tb683 2.833 . S
C747 O722 1.251 . S
C747 O727 1.256 . S
C747 C740 1.500 . S
H748 C731 0.930 . S
H749 C732 0.931 . S
H750 C733 0.930 . S
H751 C734 0.930 . S
H752 C741 0.930 1_554 S
H753 C743 0.931 . S
H754 C744 0.930 . S
H755 C745 0.930 . S
H756 C764 0.929 . S
H757 C766 0.930 . S
H758 C768 0.930 . S
H759 C771 0.929 . S
H760 C774 0.930 . S
H761 C776 0.960 . S
H762 C776 0.960 1_556 S
H763 C776 0.960 . S
C764 H756 0.929 . S
C764 C765 1.377 . S
C764 C766 1.384 . S
C765 C764 1.377 . S
C765 C771 1.390 . S
C766 H757 0.930 . S
C766 C764 1.384 . S
C766 C767 1.372 . S
C767 C766 1.372 . S
C767 C768 1.400 . S
C767 C772 1.490 . S
C768 H758 0.930 . S
C768 C767 1.400 . S
C768 C771 1.386 . S
H769 C785 0.930 . S
H770 C786 0.931 . S
C771 H759 0.929 . S
C771 C765 1.390 . S
C771 C768 1.386 . S
C772 C767 1.490 . S
C772 C774 1.395 . S
C772 C775 1.403 . S
H773 C779 0.930 . S
C774 H760 0.930 . S
C774 C772 1.395 . S
C774 C777 1.403 . S
C775 C772 1.403 . S
C775 C776 1.524 . S
C775 C779 1.400 . S
C776 H761 0.960 . S
C776 H762 0.960 1_554 S
C776 H763 0.960 . S
C776 C775 1.524 . S
C777 C774 1.403 . S
C777 C778 1.392 . S
C777 C781 1.495 . S
C778 C777 1.392 . S
C778 C779 1.385 . S
C778 C780 1.478 . S
C779 H773 0.930 . S
C779 C775 1.400 . S
C779 C778 1.385 . S
C780 C778 1.478 . S
C780 C782 1.381 1_554 S
C780 C786 1.383 . S
C781 C777 1.495 . S
C781 H787 0.959 . S
C781 H788 0.961 . S
C781 H789 0.960 . S
C782 C780 1.381 1_556 S
C782 C783 1.394 . S
C782 H790 0.930 . S
C783 C782 1.394 . S
C783 C784 1.383 . S
C783 H791 0.929 . S
C784 C783 1.383 . S
C784 C785 1.377 1_556 S
C785 H769 0.930 . S
C785 C784 1.377 1_554 S
C785 C786 1.379 . S
C786 H770 0.931 . S
C786 C780 1.383 . S
C786 C785 1.379 . S
H787 C781 0.959 . S
H788 C781 0.961 . S
H789 C781 0.960 . S
H790 C782 0.930 . S
H791 C783 0.929 . S
H792 C800 0.929 . S
H793 C802 0.930 1_556 S
H794 C804 0.930 . S
H795 C807 0.929 . S
H796 C810 0.930 . S
H797 C812 0.960 . S
H798 C812 0.960 . S
H799 C812 0.960 . S
C800 H792 0.929 . S
C800 C801 1.377 . S
C800 C802 1.384 . S
C801 C800 1.377 . S
C801 C807 1.390 . S
C802 H793 0.930 1_554 S
C802 C800 1.384 . S
C802 C803 1.372 . S
C803 C802 1.372 . S
C803 C804 1.400 . S
C803 C808 1.490 . S
C804 H794 0.930 . S
C804 C803 1.400 . S
C804 C807 1.386 . S
H805 C821 0.930 1_554 S
H806 C822 0.931 . S
C807 H795 0.929 . S
C807 C801 1.390 . S
C807 C804 1.386 . S
C808 C803 1.490 . S
C808 C810 1.395 . S
C808 C811 1.403 . S
H809 C815 0.930 . S
C810 H796 0.930 . S
C810 C808 1.395 . S
C810 C813 1.403 1_554 S
C811 C808 1.403 . S
C811 C812 1.524 . S
C811 C815 1.400 . S
C812 H797 0.960 . S
C812 H798 0.960 . S
C812 H799 0.960 . S
C812 C811 1.524 . S
C813 C810 1.403 1_556 S
C813 C814 1.392 . S
C813 C817 1.495 . S
C814 C813 1.392 . S
C814 C815 1.385 1_556 S
C814 C816 1.478 . S
C815 H809 0.930 . S
C815 C811 1.400 . S
C815 C814 1.385 1_554 S
C816 C814 1.478 . S
C816 C818 1.381 . S
C816 C822 1.383 1_556 S
C817 C813 1.495 . S
C817 H823 0.959 . S
C817 H824 0.961 . S
C817 H825 0.960 . S
C818 C816 1.381 . S
C818 C819 1.394 . S
C818 H826 0.930 . S
C819 C818 1.394 . S
C819 C820 1.383 . S
C819 H827 0.929 . S
C820 C819 1.383 . S
C820 C821 1.377 . S
C821 H805 0.930 1_556 S
C821 C820 1.377 . S
C821 C822 1.379 1_556 S
C822 H806 0.931 . S
C822 C816 1.383 1_554 S
C822 C821 1.379 1_554 S
H823 C817 0.959 . S
H824 C817 0.961 . S
H825 C817 0.960 . S
H826 C818 0.930 . S
H827 C819 0.929 . S
H828 C836 0.929 . S
H829 C838 0.930 . S
H830 C840 0.930 . S
H831 C843 0.929 . S
H832 C846 0.930 . S
H833 C848 0.960 . S
H834 C848 0.960 . S
H835 C848 0.960 . S
C836 H828 0.929 . S
C836 C837 1.377 . S
C836 C838 1.384 . S
C837 C836 1.377 . S
C837 C843 1.390 . S
C838 H829 0.930 . S
C838 C836 1.384 . S
C838 C839 1.372 . S
C839 C838 1.372 . S
C839 C840 1.400 . S
C839 C844 1.490 . S
C840 H830 0.930 . S
C840 C839 1.400 . S
C840 C843 1.386 . S
H841 C857 0.930 . S
H842 C858 0.931 . S
C843 H831 0.929 . S
C843 C837 1.390 . S
C843 C840 1.386 . S
C844 C839 1.490 . S
C844 C846 1.395 . S
C844 C847 1.403 . S
H845 C851 0.930 . S
C846 H832 0.930 . S
C846 C844 1.395 . S
C846 C849 1.403 . S
C847 C844 1.403 . S
C847 C848 1.524 . S
C847 C851 1.400 . S
C848 H833 0.960 . S
C848 H834 0.960 . S
C848 H835 0.960 . S
C848 C847 1.524 . S
C849 C846 1.403 . S
C849 C850 1.392 . S
C849 C853 1.495 . S
C850 C849 1.392 . S
C850 C851 1.385 . S
C850 C852 1.478 . S
C851 H845 0.930 . S
C851 C847 1.400 . S
C851 C850 1.385 . S
C852 C850 1.478 . S
C852 C854 1.381 . S
C852 C858 1.383 . S
C853 C849 1.495 . S
C853 H859 0.959 . S
C853 H860 0.961 . S
C853 H861 0.960 . S
C854 C852 1.381 . S
C854 C855 1.394 . S
C854 H862 0.930 . S
C855 C854 1.394 . S
C855 C856 1.383 . S
C855 H863 0.929 . S
C856 C855 1.383 . S
C856 C857 1.377 . S
C857 H841 0.930 . S
C857 C856 1.377 . S
C857 C858 1.379 . S
C858 H842 0.931 . S
C858 C852 1.383 . S
C858 C857 1.379 . S
H859 C853 0.959 . S
H860 C853 0.961 . S
H861 C853 0.960 . S
H862 C854 0.930 . S
H863 C855 0.929 . S
H864 C872 0.929 . S
H865 C874 0.930 . S
H866 C876 0.930 . S
H867 C879 0.929 . S
H868 C882 0.930 . S
H869 C884 0.960 . S
H870 C884 0.960 . S
H871 C884 0.960 . S
C872 H864 0.929 . S
C872 C873 1.377 1_556 S
C872 C874 1.384 . S
C873 C872 1.377 1_554 S
C873 C879 1.390 . S
C874 H865 0.930 . S
C874 C872 1.384 . S
C874 C875 1.372 1_556 S
C875 C874 1.372 1_554 S
C875 C876 1.400 . S
C875 C880 1.490 . S
C876 H866 0.930 . S
C876 C875 1.400 . S
C876 C879 1.386 . S
H877 C893 0.930 . S
H878 C894 0.931 . S
C879 H867 0.929 . S
C879 C873 1.390 . S
C879 C876 1.386 . S
C880 C875 1.490 . S
C880 C882 1.395 1_554 S
C880 C883 1.403 . S
H881 C887 0.930 . S
C882 H868 0.930 . S
C882 C880 1.395 1_556 S
C882 C885 1.403 . S
C883 C880 1.403 . S
C883 C884 1.524 . S
C883 C887 1.400 . S
C884 H869 0.960 . S
C884 H870 0.960 . S
C884 H871 0.960 . S
C884 C883 1.524 . S
C885 C882 1.403 . S
C885 C886 1.392 1_556 S
C885 C889 1.495 . S
C886 C885 1.392 1_554 S
C886 C887 1.385 . S
C886 C888 1.478 . S
C887 H881 0.930 . S
C887 C883 1.400 . S
C887 C886 1.385 . S
C888 C886 1.478 . S
C888 C890 1.381 1_554 S
C888 C894 1.383 . S
C889 C885 1.495 . S
C889 H895 0.959 . S
C889 H896 0.961 . S
C889 H897 0.960 . S
C890 C888 1.381 1_556 S
C890 C891 1.394 . S
C890 H898 0.930 . S
C891 C890 1.394 . S
C891 C892 1.383 1_556 S
C891 H899 0.929 . S
C892 C891 1.383 1_554 S
C892 C893 1.377 . S
C893 H877 0.930 . S
C893 C892 1.377 . S
C893 C894 1.379 . S
C894 H878 0.931 . S
C894 C888 1.383 . S
C894 C893 1.379 . S
H895 C889 0.959 . S
H896 C889 0.961 . S
H897 C889 0.960 . S
H898 C890 0.930 . S
H899 C891 0.929 . S
H900 C908 0.929 . S
H901 C910 0.930 . S
H902 C912 0.930 . S
H903 C915 0.929 . S
H904 C918 0.930 . S
H905 C920 0.960 . S
H906 C920 0.960 . S
H907 C920 0.960 . S
C908 H900 0.929 . S
C908 C909 1.377 . S
C908 C910 1.384 . S
C909 C908 1.377 . S
C909 C915 1.390 . S
C910 H901 0.930 . S
C910 C908 1.384 . S
C910 C911 1.372 . S
C911 C910 1.372 . S
C911 C912 1.400 . S
C911 C916 1.490 . S
C912 H902 0.930 . S
C912 C911 1.400 . S
C912 C915 1.386 . S
H913 C929 0.930 . S
H914 C930 0.932 . S
C915 H903 0.929 . S
C915 C909 1.390 . S
C915 C912 1.386 . S
C916 C911 1.490 . S
C916 C918 1.395 . S
C916 C919 1.403 . S
H917 C923 0.930 . S
C918 H904 0.930 . S
C918 C916 1.395 . S
C918 C921 1.403 . S
C919 C916 1.403 . S
C919 C920 1.524 . S
C919 C923 1.400 . S
C920 H905 0.960 . S
C920 H906 0.960 . S
C920 H907 0.960 . S
C920 C919 1.524 . S
C921 C918 1.403 . S
C921 C922 1.392 . S
C921 C925 1.530 . S
C922 C921 1.392 . S
C922 C923 1.385 . S
C922 C924 1.478 . S
C923 H917 0.930 . S
C923 C919 1.400 . S
C923 C922 1.385 . S
C924 C922 1.478 . S
C924 C926 1.381 . S
C924 C930 1.383 . S
C925 C921 1.530 . S
C925 H931 0.989 1_655 S
C925 H932 0.928 1_655 S
C925 H933 0.945 . S
C926 C924 1.381 . S
C926 C927 1.394 . S
C926 H934 0.930 . S
C927 C926 1.394 . S
C927 C928 1.383 1_655 S
C927 H935 0.929 . S
C928 C927 1.383 1_455 S
C928 C929 1.377 . S
C929 H913 0.930 . S
C929 C928 1.377 . S
C929 C930 1.379 1_455 S
C930 H914 0.932 . S
C930 C924 1.383 . S
C930 C929 1.379 1_655 S
H931 C925 0.989 1_455 S
H932 C925 0.928 1_455 S
H933 C925 0.945 . S
H934 C926 0.930 . S
H935 C927 0.929 . S
H936 C944 0.929 . S
H937 C946 0.930 . S
H938 C948 0.930 . S
H939 C951 0.929 . S
H940 C954 0.930 . S
H941 C956 0.960 . S
H942 C956 0.960 . S
H943 C956 0.960 . S
C944 H936 0.929 . S
C944 C945 1.377 . S
C944 C946 1.384 . S
C945 C944 1.377 . S
C945 C951 1.390 . S
C946 H937 0.930 . S
C946 C944 1.384 . S
C946 C947 1.372 . S
C947 C946 1.372 . S
C947 C948 1.400 . S
C947 C952 1.490 . S
C948 H938 0.930 . S
C948 C947 1.400 . S
C948 C951 1.386 . S
H949 C965 0.930 . S
H950 C966 0.931 . S
C951 H939 0.929 . S
C951 C945 1.390 . S
C951 C948 1.386 . S
C952 C947 1.490 . S
C952 C954 1.395 . S
C952 C955 1.403 . S
H953 C959 0.930 . S
C954 H940 0.930 . S
C954 C952 1.395 . S
C954 C957 1.403 . S
C955 C952 1.403 . S
C955 C956 1.524 . S
C955 C959 1.400 . S
C956 H941 0.960 . S
C956 H942 0.960 . S
C956 H943 0.960 . S
C956 C955 1.524 . S
C957 C954 1.403 . S
C957 C958 1.392 . S
C957 C961 1.495 . S
C958 C957 1.392 . S
C958 C959 1.385 . S
C958 C960 1.478 . S
C959 H953 0.930 . S
C959 C955 1.400 . S
C959 C958 1.385 . S
C960 C958 1.478 . S
C960 C962 1.381 . S
C960 C966 1.383 . S
C961 C957 1.495 . S
C961 H967 0.959 . S
C961 H968 0.961 . S
C961 H969 0.960 . S
C962 C960 1.381 . S
C962 C963 1.394 . S
C962 H970 0.930 . S
C963 C962 1.394 . S
C963 C964 1.383 . S
C963 H971 0.929 . S
C964 C963 1.383 . S
C964 C965 1.377 . S
C965 H949 0.930 . S
C965 C964 1.377 . S
C965 C966 1.379 . S
C966 H950 0.931 . S
C966 C960 1.383 . S
C966 C965 1.379 . S
H967 C961 0.959 . S
H968 C961 0.961 . S
H969 C961 0.960 . S
H970 C962 0.930 . S
H971 C963 0.929 . S
H972 C980 0.929 . S
H973 C982 0.930 . S
H974 C984 0.930 . S
H975 C987 0.929 . S
H976 C990 0.930 . S
H977 C992 0.960 . S
H978 C992 0.960 . S
H979 C992 0.960 . S
C980 H972 0.929 . S
C980 C981 1.377 . S
C980 C982 1.384 . S
C981 C980 1.377 . S
C981 C987 1.390 . S
C982 H973 0.930 . S
C982 C980 1.384 . S
C982 C983 1.372 . S
C983 C982 1.372 . S
C983 C984 1.400 . S
C983 C988 1.490 . S
C984 H974 0.930 . S
C984 C983 1.400 . S
C984 C987 1.386 . S
H985 C1001 0.930 . S
H986 C1002 0.931 . S
C987 H975 0.929 . S
C987 C981 1.390 . S
C987 C984 1.386 . S
C988 C983 1.490 . S
C988 C990 1.395 . S
C988 C991 1.403 . S
H989 C995 0.930 . S
C990 H976 0.930 . S
C990 C988 1.395 . S
C990 C993 1.403 . S
C991 C988 1.403 . S
C991 C992 1.524 . S
C991 C995 1.400 . S
C992 H977 0.960 . S
C992 H978 0.960 . S
C992 H979 0.960 . S
C992 C991 1.524 . S
C993 C990 1.403 . S
C993 C994 1.392 . S
C993 C997 1.495 . S
C994 C993 1.392 . S
C994 C995 1.385 . S
C994 C996 1.478 . S
C995 H989 0.930 . S
C995 C991 1.400 . S
C995 C994 1.385 . S
C996 C994 1.478 . S
C996 C998 1.381 . S
C996 C1002 1.383 . S
C997 C993 1.495 . S
C997 H1003 0.959 . S
C997 H1004 0.961 . S
C997 H1005 0.960 . S
C998 C996 1.381 . S
C998 C999 1.394 . S
C998 H1006 0.930 . S
C999 C998 1.394 . S
C999 C1000 1.383 . S
C999 H1007 0.929 . S
C1000 C999 1.383 . S
C1000 C1001 1.377 . S
C1001 H985 0.930 . S
C1001 C1000 1.377 . S
C1001 C1002 1.379 . S
C1002 H986 0.931 . S
C1002 C996 1.383 . S
C1002 C1001 1.379 . S
H1003 C997 0.959 . S
H1004 C997 0.961 . S
H1005 C997 0.960 . S
H1006 C998 0.930 . S
H1007 C999 0.929 . S
H1008 C1016 0.929 . S
H1009 C1018 0.930 . S
H1010 C1020 0.930 . S
H1011 C1023 0.929 . S
H1012 C1026 0.930 . S
H1013 C1028 0.960 . S
H1014 C1028 0.960 . S
H1015 C1028 0.960 . S
C1016 H1008 0.929 . S
C1016 C1017 1.377 . S
C1016 C1018 1.384 . S
C1017 C1016 1.377 . S
C1017 C1023 1.390 . S
C1018 H1009 0.930 . S
C1018 C1016 1.384 . S
C1018 C1019 1.372 . S
C1019 C1018 1.372 . S
C1019 C1020 1.400 . S
C1019 C1024 1.490 . S
C1020 H1010 0.930 . S
C1020 C1019 1.400 . S
C1020 C1023 1.386 . S
H1021 C1037 0.930 . S
H1022 C1038 0.931 . S
C1023 H1011 0.929 . S
C1023 C1017 1.390 . S
C1023 C1020 1.386 . S
C1024 C1019 1.490 . S
C1024 C1026 1.395 . S
C1024 C1027 1.403 . S
H1025 C1031 0.930 . S
C1026 H1012 0.930 . S
C1026 C1024 1.395 . S
C1026 C1029 1.403 . S
C1027 C1024 1.403 . S
C1027 C1028 1.524 . S
C1027 C1031 1.400 . S
C1028 H1013 0.960 . S
C1028 H1014 0.960 . S
C1028 H1015 0.960 . S
C1028 C1027 1.524 . S
C1029 C1026 1.403 . S
C1029 C1030 1.392 . S
C1029 C1033 1.495 . S
C1030 C1029 1.392 . S
C1030 C1031 1.385 . S
C1030 C1032 1.478 . S
C1031 H1025 0.930 . S
C1031 C1027 1.400 . S
C1031 C1030 1.385 . S
C1032 C1030 1.478 . S
C1032 C1034 1.381 . S
C1032 C1038 1.383 . S
C1033 C1029 1.495 . S
C1033 H1039 0.959 . S
C1033 H1040 0.961 . S
C1033 H1041 0.960 . S
C1034 C1032 1.381 . S
C1034 C1035 1.394 . S
C1034 H1042 0.930 . S
C1035 C1034 1.394 . S
C1035 C1036 1.383 . S
C1035 H1043 0.929 . S
C1036 C1035 1.383 . S
C1036 C1037 1.377 . S
C1037 H1021 0.930 . S
C1037 C1036 1.377 . S
C1037 C1038 1.379 . S
C1038 H1022 0.931 . S
C1038 C1032 1.383 . S
C1038 C1037 1.379 . S
H1039 C1033 0.959 . S
H1040 C1033 0.961 . S
H1041 C1033 0.960 . S
H1042 C1034 0.930 . S
H1043 C1035 0.929 . S
H1044 C1052 0.929 . S
H1045 C1054 0.930 . S
H1046 C1056 0.930 . S
H1047 C1059 0.929 . S
H1048 C1062 0.930 . S
H1049 C1064 0.960 . S
H1050 C1064 0.960 . S
H1051 C1064 0.960 . S
C1052 H1044 0.929 . S
C1052 C1053 1.377 . S
C1052 C1054 1.384 . S
C1053 C1052 1.377 . S
C1053 C1059 1.390 . S
C1054 H1045 0.930 . S
C1054 C1052 1.384 . S
C1054 C1055 1.372 . S
C1055 C1054 1.372 . S
C1055 C1056 1.400 . S
C1055 C1060 1.490 . S
C1056 H1046 0.930 . S
C1056 C1055 1.400 . S
C1056 C1059 1.386 . S
H1057 C1073 0.930 . S
H1058 C1074 0.931 . S
C1059 H1047 0.929 . S
C1059 C1053 1.390 . S
C1059 C1056 1.386 . S
C1060 C1055 1.490 . S
C1060 C1062 1.395 . S
C1060 C1063 1.403 . S
H1061 C1067 0.930 . S
C1062 H1048 0.930 . S
C1062 C1060 1.395 . S
C1062 C1065 1.403 . S
C1063 C1060 1.403 . S
C1063 C1064 1.524 . S
C1063 C1067 1.400 . S
C1064 H1049 0.960 . S
C1064 H1050 0.960 . S
C1064 H1051 0.960 . S
C1064 C1063 1.524 . S
C1065 C1062 1.403 . S
C1065 C1066 1.392 . S
C1065 C1069 1.495 . S
C1066 C1065 1.392 . S
C1066 C1067 1.385 . S
C1066 C1068 1.478 . S
C1067 H1061 0.930 . S
C1067 C1063 1.400 . S
C1067 C1066 1.385 . S
C1068 C1066 1.478 . S
C1068 C1070 1.381 1_545 S
C1068 C1074 1.383 . S
C1069 C1065 1.495 . S
C1069 H1075 0.959 . S
C1069 H1076 0.961 . S
C1069 H1077 0.960 1_545 S
C1070 C1068 1.381 1_565 S
C1070 C1071 1.394 . S
C1070 H1078 0.930 . S
C1071 C1070 1.394 . S
C1071 C1072 1.383 . S
C1071 H1079 0.929 . S
C1072 C1071 1.383 . S
C1072 C1073 1.377 1_565 S
C1073 H1057 0.930 . S
C1073 C1072 1.377 1_545 S
C1073 C1074 1.379 . S
C1074 H1058 0.931 . S
C1074 C1068 1.383 . S
C1074 C1073 1.379 . S
H1075 C1069 0.959 . S
H1076 C1069 0.961 . S
H1077 C1069 0.960 1_565 S
H1078 C1070 0.930 . S
H1079 C1071 0.929 . S
H1080 C1088 0.929 . S
H1081 C1090 0.930 . S
H1082 C1092 0.930 . S
H1083 C1095 0.929 . S
H1084 C1098 0.930 . S
H1085 C1100 0.960 . S
H1086 C1100 0.960 . S
H1087 C1100 0.960 . S
C1088 H1080 0.929 . S
C1088 C1089 1.377 . S
C1088 C1090 1.384 . S
C1089 C1088 1.377 . S
C1089 C1095 1.390 . S
C1090 H1081 0.930 . S
C1090 C1088 1.384 . S
C1090 C1091 1.372 . S
C1091 C1090 1.372 . S
C1091 C1092 1.400 . S
C1091 C1096 1.490 . S
C1092 H1082 0.930 . S
C1092 C1091 1.400 . S
C1092 C1095 1.386 . S
H1093 C1109 0.930 . S
H1094 C1110 0.931 . S
C1095 H1083 0.929 . S
C1095 C1089 1.390 . S
C1095 C1092 1.386 . S
C1096 C1091 1.490 . S
C1096 C1098 1.395 . S
C1096 C1099 1.403 . S
H1097 C1103 0.930 . S
C1098 H1084 0.930 . S
C1098 C1096 1.395 . S
C1098 C1101 1.403 . S
C1099 C1096 1.403 . S
C1099 C1100 1.524 . S
C1099 C1103 1.400 . S
C1100 H1085 0.960 . S
C1100 H1086 0.960 . S
C1100 H1087 0.960 . S
C1100 C1099 1.524 . S
C1101 C1098 1.403 . S
C1101 C1102 1.392 . S
C1101 C1105 1.495 . S
C1102 C1101 1.392 . S
C1102 C1103 1.385 . S
C1102 C1104 1.478 . S
C1103 H1097 0.930 . S
C1103 C1099 1.400 . S
C1103 C1102 1.385 . S
C1104 C1102 1.478 . S
C1104 C1106 1.381 . S
C1104 C1110 1.383 . S
C1105 C1101 1.495 . S
C1105 H1111 0.959 . S
C1105 H1112 0.961 . S
C1105 H1113 0.960 . S
C1106 C1104 1.381 . S
C1106 C1107 1.394 . S
C1106 H1114 0.930 . S
C1107 C1106 1.394 . S
C1107 C1108 1.383 . S
C1107 H1115 0.929 . S
C1108 C1107 1.383 . S
C1108 C1109 1.377 . S
C1109 H1093 0.930 . S
C1109 C1108 1.377 . S
C1109 C1110 1.379 . S
C1110 H1094 0.931 . S
C1110 C1104 1.383 . S
C1110 C1109 1.379 . S
H1111 C1105 0.959 . S
H1112 C1105 0.961 . S
H1113 C1105 0.960 . S
H1114 C1106 0.930 . S
H1115 C1107 0.929 . S
H1116 C1124 0.929 . S
H1117 C1126 0.930 . S
H1118 C1128 0.930 . S
H1119 C1131 0.929 . S
H1120 C1134 0.930 . S
H1121 C1136 0.960 . S
H1122 C1136 0.960 1_565 S
H1123 C1136 0.960 1_565 S
C1124 H1116 0.929 . S
C1124 C1125 1.377 . S
C1124 C1126 1.384 . S
C1125 C1124 1.377 . S
C1125 C1131 1.390 . S
C1126 H1117 0.930 . S
C1126 C1124 1.384 . S
C1126 C1127 1.372 . S
C1127 C1126 1.372 . S
C1127 C1128 1.400 . S
C1127 C1132 1.490 . S
C1128 H1118 0.930 . S
C1128 C1127 1.400 . S
C1128 C1131 1.386 . S
H1129 C1145 0.930 . S
H1130 C1146 0.931 . S
C1131 H1119 0.929 . S
C1131 C1125 1.390 . S
C1131 C1128 1.386 . S
C1132 C1127 1.490 . S
C1132 C1134 1.395 . S
C1132 C1135 1.403 1_565 S
H1133 C1139 0.930 . S
C1134 H1120 0.930 . S
C1134 C1132 1.395 . S
C1134 C1137 1.403 1_565 S
C1135 C1132 1.403 1_545 S
C1135 C1136 1.524 . S
C1135 C1139 1.400 . S
C1136 H1121 0.960 . S
C1136 H1122 0.960 1_545 S
C1136 H1123 0.960 1_545 S
C1136 C1135 1.524 . S
C1137 C1134 1.403 1_545 S
C1137 C1138 1.392 . S
C1137 C1141 1.495 . S
C1138 C1137 1.392 . S
C1138 C1139 1.385 . S
C1138 C1140 1.478 . S
C1139 H1133 0.930 . S
C1139 C1135 1.400 . S
C1139 C1138 1.385 . S
C1140 C1138 1.478 . S
C1140 C1142 1.381 . S
C1140 C1146 1.383 . S
C1141 C1137 1.495 . S
C1141 H1147 0.957 . S
C1141 H1148 0.961 . S
C1141 H1149 0.960 . S
C1142 C1140 1.381 . S
C1142 C1143 1.394 . S
C1142 H1150 0.930 . S
C1143 C1142 1.394 . S
C1143 C1144 1.383 . S
C1143 H1151 0.929 . S
C1144 C1143 1.383 . S
C1144 C1145 1.377 . S
C1145 H1129 0.930 . S
C1145 C1144 1.377 . S
C1145 C1146 1.379 . S
C1146 H1130 0.931 . S
C1146 C1140 1.383 . S
C1146 C1145 1.379 . S
H1147 C1141 0.957 . S
H1148 C1141 0.961 . S
H1149 C1141 0.960 . S
H1150 C1142 0.930 . S
H1151 C1143 0.929 . S
H1152 C1160 0.929 . S
H1153 C1162 0.930 . S
H1154 C1164 0.899 1_455 S
H1155 C1167 0.929 . S
H1156 C1170 0.930 . S
H1157 C1172 0.960 . S
H1158 C1172 0.960 . S
H1159 C1172 0.960 . S
C1160 H1152 0.929 . S
C1160 C1161 1.377 . S
C1160 C1162 1.384 . S
C1161 C1160 1.377 . S
C1161 C1167 1.390 . S
C1162 H1153 0.930 . S
C1162 C1160 1.384 . S
C1162 C1163 1.372 . S
C1163 C1162 1.372 . S
C1163 C1164 1.406 . S
C1163 C1168 1.490 1_655 S
C1164 H1154 0.899 1_655 S
C1164 C1163 1.406 . S
C1164 C1167 1.410 . S
H1165 C1181 0.930 . S
H1166 C1182 0.931 . S
C1167 H1155 0.929 . S
C1167 C1161 1.390 . S
C1167 C1164 1.410 . S
C1168 C1163 1.490 1_455 S
C1168 C1170 1.395 . S
C1168 C1171 1.403 . S
H1169 C1175 0.930 . S
C1170 H1156 0.930 . S
C1170 C1168 1.395 . S
C1170 C1173 1.403 . S
C1171 C1168 1.403 . S
C1171 C1172 1.524 . S
C1171 C1175 1.400 . S
C1172 H1157 0.960 . S
C1172 H1158 0.960 . S
C1172 H1159 0.960 . S
C1172 C1171 1.524 . S
C1173 C1170 1.403 . S
C1173 C1174 1.392 . S
C1173 C1177 1.495 . S
C1174 C1173 1.392 . S
C1174 C1175 1.385 . S
C1174 C1176 1.478 . S
C1175 H1169 0.930 . S
C1175 C1171 1.400 . S
C1175 C1174 1.385 . S
C1176 C1174 1.478 . S
C1176 C1178 1.381 . S
C1176 C1182 1.383 . S
C1177 C1173 1.495 . S
C1177 H1183 0.959 . S
C1177 H1184 0.961 . S
C1177 H1185 0.960 . S
C1178 C1176 1.381 . S
C1178 C1179 1.394 1_554 S
C1178 H1186 0.930 1_554 S
C1179 C1178 1.394 1_556 S
C1179 C1180 1.383 1_556 S
C1179 H1187 0.929 . S
C1180 C1179 1.383 1_554 S
C1180 C1181 1.377 . S
C1181 H1165 0.930 . S
C1181 C1180 1.377 . S
C1181 C1182 1.379 . S
C1182 H1166 0.931 . S
C1182 C1176 1.383 . S
C1182 C1181 1.379 . S
H1183 C1177 0.959 . S
H1184 C1177 0.961 . S
H1185 C1177 0.960 . S
H1186 C1178 0.930 1_556 S
H1187 C1179 0.929 . S
H1188 C1196 0.929 . S
H1189 C1198 0.930 . S
H1190 C1200 0.930 . S
H1191 C1203 0.929 . S
H1192 C1206 0.930 . S
H1193 C1208 0.960 . S
H1194 C1208 0.960 . S
H1195 C1208 0.960 . S
C1196 H1188 0.929 . S
C1196 C1197 1.377 1_556 S
C1196 C1198 1.384 . S
C1197 C1196 1.377 1_554 S
C1197 C1203 1.390 . S
C1198 H1189 0.930 . S
C1198 C1196 1.384 . S
C1198 C1199 1.372 1_556 S
C1199 C1198 1.372 1_554 S
C1199 C1200 1.400 . S
C1199 C1204 1.490 . S
C1200 H1190 0.930 . S
C1200 C1199 1.400 . S
C1200 C1203 1.386 . S
H1201 C1217 0.930 . S
H1202 C1218 0.931 . S
C1203 H1191 0.929 . S
C1203 C1197 1.390 . S
C1203 C1200 1.386 . S
C1204 C1199 1.490 . S
C1204 C1206 1.395 . S
C1204 C1207 1.403 . S
H1205 C1211 0.930 . S
C1206 H1192 0.930 . S
C1206 C1204 1.395 . S
C1206 C1209 1.403 . S
C1207 C1204 1.403 . S
C1207 C1208 1.524 . S
C1207 C1211 1.400 . S
C1208 H1193 0.960 . S
C1208 H1194 0.960 . S
C1208 H1195 0.960 . S
C1208 C1207 1.524 . S
C1209 C1206 1.403 . S
C1209 C1210 1.392 . S
C1209 C1213 1.495 . S
C1210 C1209 1.392 . S
C1210 C1211 1.385 . S
C1210 C1212 1.478 . S
C1211 H1205 0.930 . S
C1211 C1207 1.400 . S
C1211 C1210 1.385 . S
C1212 C1210 1.478 . S
C1212 C1214 1.381 . S
C1212 C1218 1.383 . S
C1213 C1209 1.495 . S
C1213 H1219 0.959 . S
C1213 H1220 0.961 . S
C1213 H1221 0.960 . S
C1214 C1212 1.381 . S
C1214 C1215 1.394 . S
C1214 H1222 0.930 . S
C1215 C1214 1.394 . S
C1215 C1216 1.383 . S
C1215 H1223 0.929 . S
C1216 C1215 1.383 . S
C1216 C1217 1.377 . S
C1217 H1201 0.930 . S
C1217 C1216 1.377 . S
C1217 C1218 1.379 . S
C1218 H1202 0.931 . S
C1218 C1212 1.383 . S
C1218 C1217 1.379 . S
H1219 C1213 0.959 . S
H1220 C1213 0.961 . S
H1221 C1213 0.960 . S
H1222 C1214 0.930 . S
H1223 C1215 0.929 . S
H1224 C1232 0.929 . S
H1225 C1234 0.930 1_556 S
H1226 C1236 0.930 . S
H1227 C1239 0.929 . S
H1228 C1242 0.930 . S
H1229 C1244 0.960 . S
H1230 C1244 0.960 . S
H1231 C1244 0.960 . S
C1232 H1224 0.929 . S
C1232 C1233 1.377 . S
C1232 C1234 1.384 . S
C1233 C1232 1.377 . S
C1233 C1239 1.390 . S
C1234 H1225 0.930 1_554 S
C1234 C1232 1.384 . S
C1234 C1235 1.372 . S
C1235 C1234 1.372 . S
C1235 C1236 1.400 . S
C1235 C1240 1.490 . S
C1236 H1226 0.930 . S
C1236 C1235 1.400 . S
C1236 C1239 1.386 . S
H1237 C1253 0.930 . S
H1238 C1254 0.931 . S
C1239 H1227 0.929 . S
C1239 C1233 1.390 . S
C1239 C1236 1.386 . S
C1240 C1235 1.490 . S
C1240 C1242 1.395 1_554 S
C1240 C1243 1.403 . S
H1241 C1247 0.930 . S
C1242 H1228 0.930 . S
C1242 C1240 1.395 1_556 S
C1242 C1245 1.403 . S
C1243 C1240 1.403 . S
C1243 C1244 1.524 . S
C1243 C1247 1.400 . S
C1244 H1229 0.960 . S
C1244 H1230 0.960 . S
C1244 H1231 0.960 . S
C1244 C1243 1.524 . S
C1245 C1242 1.403 . S
C1245 C1246 1.392 . S
C1245 C1249 1.495 . S
C1246 C1245 1.392 . S
C1246 C1247 1.385 1_556 S
C1246 C1248 1.478 . S
C1247 H1241 0.930 . S
C1247 C1243 1.400 . S
C1247 C1246 1.385 1_554 S
C1248 C1246 1.478 . S
C1248 C1250 1.381 . S
C1248 C1254 1.383 . S
C1249 C1245 1.495 . S
C1249 H1255 0.959 . S
C1249 H1256 0.961 . S
C1249 H1257 0.960 . S
C1250 C1248 1.381 . S
C1250 C1251 1.394 . S
C1250 H1258 0.930 . S
C1251 C1250 1.394 . S
C1251 C1252 1.383 . S
C1251 H1259 0.929 . S
C1252 C1251 1.383 . S
C1252 C1253 1.377 . S
C1253 H1237 0.930 . S
C1253 C1252 1.377 . S
C1253 C1254 1.379 . S
C1254 H1238 0.931 . S
C1254 C1248 1.383 . S
C1254 C1253 1.379 . S
H1255 C1249 0.959 . S
H1256 C1249 0.961 . S
H1257 C1249 0.960 . S
H1258 C1250 0.930 . S
H1259 C1251 0.929 . S
H1260 C1268 0.929 . S
H1261 C1270 0.930 . S
H1262 C1272 0.930 . S
H1263 C1275 0.929 . S
H1264 C1278 0.932 . S
H1265 C1280 0.960 . S
H1266 C1280 0.960 1_554 S
H1267 C1280 0.960 . S
C1268 H1260 0.929 . S
C1268 C1269 1.377 . S
C1268 C1270 1.384 . S
C1269 C1268 1.377 . S
C1269 C1275 1.390 1_554 S
C1270 H1261 0.930 . S
C1270 C1268 1.384 . S
C1270 C1271 1.372 . S
C1271 C1270 1.372 . S
C1271 C1272 1.400 1_554 S
C1271 C1276 1.490 1_554 S
C1272 H1262 0.930 . S
C1272 C1271 1.400 1_556 S
C1272 C1275 1.386 . S
H1273 C1289 0.930 . S
H1274 C1290 0.931 . S
C1275 H1263 0.929 . S
C1275 C1269 1.390 1_556 S
C1275 C1272 1.386 . S
C1276 C1271 1.490 1_556 S
C1276 C1278 1.395 . S
C1276 C1279 1.403 . S
H1277 C1283 0.930 . S
C1278 H1264 0.932 . S
C1278 C1276 1.395 . S
C1278 C1281 1.403 . S
C1279 C1276 1.403 . S
C1279 C1280 1.524 . S
C1279 C1283 1.400 . S
C1280 H1265 0.960 . S
C1280 H1266 0.960 1_556 S
C1280 H1267 0.960 . S
C1280 C1279 1.524 . S
C1281 C1278 1.403 . S
C1281 C1282 1.392 . S
C1281 C1285 1.495 . S
C1282 C1281 1.392 . S
C1282 C1283 1.385 . S
C1282 C1284 1.478 . S
C1283 H1277 0.930 . S
C1283 C1279 1.400 . S
C1283 C1282 1.385 . S
C1284 C1282 1.478 . S
C1284 C1286 1.381 1_556 S
C1284 C1290 1.383 . S
C1285 C1281 1.495 . S
C1285 H1291 0.959 . S
C1285 H1292 0.961 . S
C1285 H1293 0.960 1_556 S
C1286 C1284 1.381 1_554 S
C1286 C1287 1.394 . S
C1286 H1294 0.930 . S
C1287 C1286 1.394 . S
C1287 C1288 1.383 1_554 S
C1287 H1295 0.929 . S
C1288 C1287 1.383 1_556 S
C1288 C1289 1.377 . S
C1289 H1273 0.930 . S
C1289 C1288 1.377 . S
C1289 C1290 1.379 . S
C1290 H1274 0.931 . S
C1290 C1284 1.383 . S
C1290 C1289 1.379 . S
H1291 C1285 0.959 . S
H1292 C1285 0.961 . S
H1293 C1285 0.960 1_554 S
H1294 C1286 0.930 . S
H1295 C1287 0.929 . S
H1296 C1304 0.932 . S
H1297 C1306 0.930 . S
H1298 C1308 0.930 . S
H1299 C1311 0.929 . S
H1300 C1314 0.930 1_554 S
H1301 C1316 0.960 . S
H1302 C1316 0.960 . S
H1303 C1316 0.960 . S
C1304 H1296 0.932 . S
C1304 C1305 1.377 1_556 S
C1304 C1306 1.384 . S
C1305 C1304 1.377 1_554 S
C1305 C1311 1.390 1_554 S
C1306 H1297 0.930 . S
C1306 C1304 1.384 . S
C1306 C1307 1.372 . S
C1307 C1306 1.372 . S
C1307 C1308 1.400 . S
C1307 C1312 1.490 . S
C1308 H1298 0.930 . S
C1308 C1307 1.400 . S
C1308 C1311 1.386 . S
H1309 C1325 0.930 . S
H1310 C1326 0.931 . S
C1311 H1299 0.929 . S
C1311 C1305 1.390 1_556 S
C1311 C1308 1.386 . S
C1312 C1307 1.490 . S
C1312 C1314 1.395 . S
C1312 C1315 1.403 . S
H1313 C1319 0.930 . S
C1314 H1300 0.930 1_556 S
C1314 C1312 1.395 . S
C1314 C1317 1.403 . S
C1315 C1312 1.403 . S
C1315 C1316 1.524 . S
C1315 C1319 1.400 . S
C1316 H1301 0.960 . S
C1316 H1302 0.960 . S
C1316 H1303 0.960 . S
C1316 C1315 1.524 . S
C1317 C1314 1.403 . S
C1317 C1318 1.392 . S
C1317 C1321 1.495 1_556 S
C1318 C1317 1.392 . S
C1318 C1319 1.385 . S
C1318 C1320 1.478 . S
C1319 H1313 0.930 . S
C1319 C1315 1.400 . S
C1319 C1318 1.385 . S
C1320 C1318 1.478 . S
C1320 C1322 1.381 . S
C1320 C1326 1.383 . S
C1321 C1317 1.495 1_554 S
C1321 H1327 0.959 . S
C1321 H1328 0.961 . S
C1321 H1329 0.960 1_554 S
C1322 C1320 1.381 . S
C1322 C1323 1.394 . S
C1322 H1330 0.930 . S
C1323 C1322 1.394 . S
C1323 C1324 1.383 . S
C1323 H1331 0.929 . S
C1324 C1323 1.383 . S
C1324 C1325 1.377 . S
C1325 H1309 0.930 . S
C1325 C1324 1.377 . S
C1325 C1326 1.379 . S
C1326 H1310 0.931 . S
C1326 C1320 1.383 . S
C1326 C1325 1.379 . S
H1327 C1321 0.959 . S
H1328 C1321 0.961 . S
H1329 C1321 0.960 1_556 S
H1330 C1322 0.930 . S
H1331 C1323 0.929 . S
H1332 C1340 0.929 . S
H1333 C1342 0.930 . S
H1334 C1344 0.930 . S
H1335 C1347 0.929 . S
H1336 C1350 0.930 . S
H1337 C1352 0.960 1_554 S
H1338 C1352 0.960 . S
H1339 C1352 0.960 . S
C1340 H1332 0.929 . S
C1340 C1341 1.377 . S
C1340 C1342 1.384 . S
C1341 C1340 1.377 . S
C1341 C1347 1.390 . S
C1342 H1333 0.930 . S
C1342 C1340 1.384 . S
C1342 C1343 1.372 . S
C1343 C1342 1.372 . S
C1343 C1344 1.400 . S
C1343 C1348 1.490 . S
C1344 H1334 0.930 . S
C1344 C1343 1.400 . S
C1344 C1347 1.386 . S
H1345 C1361 0.930 . S
H1346 C1362 0.931 . S
C1347 H1335 0.929 . S
C1347 C1341 1.390 . S
C1347 C1344 1.386 . S
C1348 C1343 1.490 . S
C1348 C1350 1.395 . S
C1348 C1351 1.403 . S
H1349 C1355 0.930 . S
C1350 H1336 0.930 . S
C1350 C1348 1.395 . S
C1350 C1353 1.403 . S
C1351 C1348 1.403 . S
C1351 C1352 1.524 . S
C1351 C1355 1.400 . S
C1352 H1337 0.960 1_556 S
C1352 H1338 0.960 . S
C1352 H1339 0.960 . S
C1352 C1351 1.524 . S
C1353 C1350 1.403 . S
C1353 C1354 1.392 . S
C1353 C1357 1.495 . S
C1354 C1353 1.392 . S
C1354 C1355 1.385 . S
C1354 C1356 1.478 . S
C1355 H1349 0.930 . S
C1355 C1351 1.400 . S
C1355 C1354 1.385 . S
C1356 C1354 1.478 . S
C1356 C1358 1.381 . S
C1356 C1362 1.383 . S
C1357 C1353 1.495 . S
C1357 H1363 0.959 . S
C1357 H1364 0.961 . S
C1357 H1365 0.960 . S
C1358 C1356 1.381 . S
C1358 C1359 1.394 . S
C1358 H1366 0.930 . S
C1359 C1358 1.394 . S
C1359 C1360 1.383 . S
C1359 H1367 0.929 . S
C1360 C1359 1.383 . S
C1360 C1361 1.377 . S
C1361 H1345 0.930 . S
C1361 C1360 1.377 . S
C1361 C1362 1.379 . S
C1362 H1346 0.931 . S
C1362 C1356 1.383 . S
C1362 C1361 1.379 . S
H1363 C1357 0.959 . S
H1364 C1357 0.961 . S
H1365 C1357 0.960 . S
H1366 C1358 0.930 . S
H1367 C1359 0.929 . S
H1368 C1376 0.929 . S
H1369 C1378 0.930 . S
H1370 C1380 0.930 . S
H1371 C1383 0.929 . S
H1372 C1386 0.930 . S
H1373 C1388 0.960 . S
H1374 C1388 0.960 . S
H1375 C1388 0.960 . S
C1376 H1368 0.929 . S
C1376 C1377 1.377 . S
C1376 C1378 1.384 . S
C1377 C1376 1.377 . S
C1377 C1383 1.390 . S
C1378 H1369 0.930 . S
C1378 C1376 1.384 . S
C1378 C1379 1.372 . S
C1379 C1378 1.372 . S
C1379 C1380 1.400 . S
C1379 C1384 1.490 . S
C1380 H1370 0.930 . S
C1380 C1379 1.400 . S
C1380 C1383 1.386 . S
H1381 C1397 0.930 . S
H1382 C1398 0.931 . S
C1383 H1371 0.929 . S
C1383 C1377 1.390 . S
C1383 C1380 1.386 . S
C1384 C1379 1.490 . S
C1384 C1386 1.395 . S
C1384 C1387 1.403 . S
H1385 C1391 0.930 . S
C1386 H1372 0.930 . S
C1386 C1384 1.395 . S
C1386 C1389 1.403 . S
C1387 C1384 1.403 . S
C1387 C1388 1.524 . S
C1387 C1391 1.400 . S
C1388 H1373 0.960 . S
C1388 H1374 0.960 . S
C1388 H1375 0.960 . S
C1388 C1387 1.524 . S
C1389 C1386 1.403 . S
C1389 C1390 1.392 . S
C1389 C1393 1.495 . S
C1390 C1389 1.392 . S
C1390 C1391 1.385 . S
C1390 C1392 1.478 . S
C1391 H1385 0.930 . S
C1391 C1387 1.400 . S
C1391 C1390 1.385 . S
C1392 C1390 1.478 . S
C1392 C1394 1.381 . S
C1392 C1398 1.383 . S
C1393 C1389 1.495 . S
C1393 H1399 0.959 . S
C1393 H1400 0.961 . S
C1393 H1401 0.960 1_556 S
C1394 C1392 1.381 . S
C1394 C1395 1.394 . S
C1394 H1402 0.930 1_556 S
C1395 C1394 1.394 . S
C1395 C1396 1.383 . S
C1395 H1403 0.929 1_556 S
C1396 C1395 1.383 . S
C1396 C1397 1.377 . S
C1397 H1381 0.930 . S
C1397 C1396 1.377 . S
C1397 C1398 1.379 . S
C1398 H1382 0.931 . S
C1398 C1392 1.383 . S
C1398 C1397 1.379 . S
H1399 C1393 0.959 . S
H1400 C1393 0.961 . S
H1401 C1393 0.960 1_554 S
H1402 C1394 0.930 1_554 S
H1403 C1395 0.929 1_554 S
H1404 C1412 0.929 1_554 S
H1405 C1414 0.930 . S
H1406 C1416 0.930 . S
H1407 C1419 0.929 . S
H1408 C1422 0.930 . S
H1409 C1424 0.960 . S
H1410 C1424 0.960 . S
H1411 C1424 0.960 . S
C1412 H1404 0.929 1_556 S
C1412 C1413 1.377 . S
C1412 C1414 1.384 . S
C1413 C1412 1.377 . S
C1413 C1419 1.390 . S
C1414 H1405 0.930 . S
C1414 C1412 1.384 . S
C1414 C1415 1.372 . S
C1415 C1414 1.372 . S
C1415 C1416 1.400 . S
C1415 C1420 1.490 . S
C1416 H1406 0.930 . S
C1416 C1415 1.400 . S
C1416 C1419 1.386 . S
H1417 C1433 0.930 . S
H1418 C1434 0.931 . S
C1419 H1407 0.929 . S
C1419 C1413 1.390 . S
C1419 C1416 1.386 . S
C1420 C1415 1.490 . S
C1420 C1422 1.395 . S
C1420 C1423 1.403 . S
H1421 C1427 0.930 . S
C1422 H1408 0.930 . S
C1422 C1420 1.395 . S
C1422 C1425 1.403 . S
C1423 C1420 1.403 . S
C1423 C1424 1.524 . S
C1423 C1427 1.400 . S
C1424 H1409 0.960 . S
C1424 H1410 0.960 . S
C1424 H1411 0.960 . S
C1424 C1423 1.524 . S
C1425 C1422 1.403 . S
C1425 C1426 1.392 . S
C1425 C1429 1.495 . S
C1426 C1425 1.392 . S
C1426 C1427 1.385 . S
C1426 C1428 1.478 . S
C1427 H1421 0.930 . S
C1427 C1423 1.400 . S
C1427 C1426 1.385 . S
C1428 C1426 1.478 . S
C1428 C1430 1.381 . S
C1428 C1434 1.383 . S
C1429 C1425 1.495 . S
C1429 H1435 0.959 . S
C1429 H1436 0.961 . S
C1429 H1437 0.960 . S
C1430 C1428 1.381 . S
C1430 C1431 1.394 . S
C1430 H1438 0.930 . S
C1431 C1430 1.394 . S
C1431 C1432 1.383 . S
C1431 H1439 0.929 . S
C1432 C1431 1.383 . S
C1432 C1433 1.377 . S
C1433 H1417 0.930 . S
C1433 C1432 1.377 . S
C1433 C1434 1.379 . S
C1434 H1418 0.931 . S
C1434 C1428 1.383 . S
C1434 C1433 1.379 . S
H1435 C1429 0.959 . S
H1436 C1429 0.961 . S
H1437 C1429 0.960 . S
H1438 C1430 0.930 . S
H1439 C1431 0.929 . S
H1440 C1448 0.929 . S
H1441 C1450 0.930 . S
H1442 C1452 0.930 . S
H1443 C1455 0.929 . S
H1444 C1458 0.930 . S
H1445 C1460 0.960 . S
H1446 C1460 0.960 . S
H1447 C1460 0.960 . S
C1448 H1440 0.929 . S
C1448 C1449 1.377 . S
C1448 C1450 1.384 . S
C1449 C1448 1.377 . S
C1449 C1455 1.390 . S
C1450 H1441 0.930 . S
C1450 C1448 1.384 . S
C1450 C1451 1.372 . S
C1451 C1450 1.372 . S
C1451 C1452 1.400 . S
C1451 C1456 1.490 . S
C1452 H1442 0.930 . S
C1452 C1451 1.400 . S
C1452 C1455 1.386 . S
H1453 C1469 0.930 . S
H1454 C1470 0.931 . S
C1455 H1443 0.929 . S
C1455 C1449 1.390 . S
C1455 C1452 1.386 . S
C1456 C1451 1.490 . S
C1456 C1458 1.395 . S
C1456 C1459 1.403 . S
H1457 C1463 0.930 . S
C1458 H1444 0.930 . S
C1458 C1456 1.395 . S
C1458 C1461 1.403 . S
C1459 C1456 1.403 . S
C1459 C1460 1.524 . S
C1459 C1463 1.400 . S
C1460 H1445 0.960 . S
C1460 H1446 0.960 . S
C1460 H1447 0.960 . S
C1460 C1459 1.524 . S
C1461 C1458 1.403 . S
C1461 C1462 1.392 . S
C1461 C1465 1.495 . S
C1462 C1461 1.392 . S
C1462 C1463 1.385 . S
C1462 C1464 1.478 . S
C1463 H1457 0.930 . S
C1463 C1459 1.400 . S
C1463 C1462 1.385 . S
C1464 C1462 1.478 . S
C1464 C1466 1.381 . S
C1464 C1470 1.383 . S
C1465 C1461 1.495 . S
C1465 H1471 0.959 . S
C1465 H1472 0.961 . S
C1465 H1473 0.960 . S
C1466 C1464 1.381 . S
C1466 C1467 1.394 . S
C1466 H1474 0.930 . S
C1467 C1466 1.394 . S
C1467 C1468 1.383 . S
C1467 H1475 0.929 . S
C1468 C1467 1.383 . S
C1468 C1469 1.377 . S
C1469 H1453 0.930 . S
C1469 C1468 1.377 . S
C1469 C1470 1.379 . S
C1470 H1454 0.931 . S
C1470 C1464 1.383 . S
C1470 C1469 1.379 . S
H1471 C1465 0.959 . S
H1472 C1465 0.961 . S
H1473 C1465 0.960 . S
H1474 C1466 0.930 . S
H1475 C1467 0.929 . S
H1476 C1484 0.929 . S
H1477 C1486 0.930 . S
H1478 C1488 0.930 . S
H1479 C1491 0.929 . S
H1480 C1494 0.930 . S
H1481 C1496 0.960 . S
H1482 C1496 0.960 1_545 S
H1483 C1496 0.960 . S
C1484 H1476 0.929 . S
C1484 C1485 1.377 . S
C1484 C1486 1.384 . S
C1485 C1484 1.377 . S
C1485 C1491 1.390 1_545 S
C1486 H1477 0.930 . S
C1486 C1484 1.384 . S
C1486 C1487 1.372 . S
C1487 C1486 1.372 . S
C1487 C1488 1.400 1_545 S
C1487 C1492 1.490 . S
C1488 H1478 0.930 . S
C1488 C1487 1.400 1_565 S
C1488 C1491 1.386 . S
H1489 C1505 0.940 . S
H1490 C1506 0.984 . S
C1491 H1479 0.929 . S
C1491 C1485 1.390 1_565 S
C1491 C1488 1.386 . S
C1492 C1487 1.490 . S
C1492 C1494 1.395 . S
C1492 C1495 1.403 . S
H1493 C1499 0.934 1_565 S
C1494 H1480 0.930 . S
C1494 C1492 1.395 . S
C1494 C1497 1.403 . S
C1495 C1492 1.403 . S
C1495 C1496 1.524 1_545 S
C1495 C1499 1.400 . S
C1496 H1481 0.960 . S
C1496 H1482 0.960 1_565 S
C1496 H1483 0.960 . S
C1496 C1495 1.524 1_565 S
C1497 C1494 1.403 . S
C1497 C1498 1.392 . S
C1497 C1501 1.495 . S
C1498 C1497 1.392 . S
C1498 C1499 1.385 . S
C1498 C1500 1.478 . S
C1499 H1493 0.934 1_545 S
C1499 C1495 1.400 . S
C1499 C1498 1.385 . S
C1500 C1498 1.478 . S
C1500 C1502 1.381 . S
C1500 C1506 1.345 1_545 S
C1501 C1497 1.495 . S
C1501 H1507 0.959 . S
C1501 H1508 0.961 . S
C1501 H1509 0.960 . S
C1502 C1500 1.381 . S
C1502 C1503 1.394 . S
C1502 H1510 0.930 . S
C1503 C1502 1.394 . S
C1503 C1504 1.383 . S
C1503 H1511 0.929 . S
C1504 C1503 1.383 . S
C1504 C1505 1.363 1_545 S
C1505 H1489 0.940 . S
C1505 C1504 1.363 1_565 S
C1505 C1506 1.370 . S
C1506 H1490 0.984 . S
C1506 C1500 1.345 1_565 S
C1506 C1505 1.370 . S
H1507 C1501 0.959 . S
H1508 C1501 0.961 . S
H1509 C1501 0.960 . S
H1510 C1502 0.930 . S
H1511 C1503 0.929 . S
H1512 C1520 0.929 . S
H1513 C1522 0.930 . S
H1514 C1524 0.930 . S
H1515 C1527 0.929 . S
H1516 C1530 0.930 . S
H1517 C1532 0.960 . S
H1518 C1532 0.960 . S
H1519 C1532 0.960 . S
C1520 H1512 0.929 . S
C1520 C1521 1.377 . S
C1520 C1522 1.384 . S
C1521 C1520 1.377 . S
C1521 C1527 1.390 . S
C1522 H1513 0.930 . S
C1522 C1520 1.384 . S
C1522 C1523 1.372 . S
C1523 C1522 1.372 . S
C1523 C1524 1.400 . S
C1523 C1528 1.490 . S
C1524 H1514 0.930 . S
C1524 C1523 1.400 . S
C1524 C1527 1.386 . S
H1525 C1541 0.930 . S
H1526 C1542 0.931 . S
C1527 H1515 0.929 . S
C1527 C1521 1.390 . S
C1527 C1524 1.386 . S
C1528 C1523 1.490 . S
C1528 C1530 1.395 . S
C1528 C1531 1.403 . S
H1529 C1535 0.930 . S
C1530 H1516 0.930 . S
C1530 C1528 1.395 . S
C1530 C1533 1.403 . S
C1531 C1528 1.403 . S
C1531 C1532 1.524 . S
C1531 C1535 1.400 . S
C1532 H1517 0.960 . S
C1532 H1518 0.960 . S
C1532 H1519 0.960 . S
C1532 C1531 1.524 . S
C1533 C1530 1.403 . S
C1533 C1534 1.392 . S
C1533 C1537 1.495 . S
C1534 C1533 1.392 . S
C1534 C1535 1.385 . S
C1534 C1536 1.478 . S
C1535 H1529 0.930 . S
C1535 C1531 1.400 . S
C1535 C1534 1.385 . S
C1536 C1534 1.478 . S
C1536 C1538 1.381 . S
C1536 C1542 1.383 . S
C1537 C1533 1.495 . S
C1537 H1543 0.959 . S
C1537 H1544 0.961 . S
C1537 H1545 0.960 . S
C1538 C1536 1.381 . S
C1538 C1539 1.394 . S
C1538 H1546 0.930 . S
C1539 C1538 1.394 . S
C1539 C1540 1.383 . S
C1539 H1547 0.929 . S
C1540 C1539 1.383 . S
C1540 C1541 1.377 . S
C1541 H1525 0.930 . S
C1541 C1540 1.377 . S
C1541 C1542 1.379 . S
C1542 H1526 0.931 . S
C1542 C1536 1.383 . S
C1542 C1541 1.379 . S
H1543 C1537 0.959 . S
H1544 C1537 0.961 . S
H1545 C1537 0.960 . S
H1546 C1538 0.930 . S
H1547 C1539 0.929 . S
H1548 C1556 0.929 . S
H1549 C1558 0.930 . S
H1550 C1560 0.930 . S
H1551 C1563 0.929 . S
H1552 C1566 0.930 . S
H1553 C1568 0.960 . S
H1554 C1568 0.960 . S
H1555 C1568 0.960 . S
C1556 H1548 0.929 . S
C1556 C1557 1.377 . S
C1556 C1558 1.384 . S
C1557 C1556 1.377 . S
C1557 C1563 1.390 . S
C1558 H1549 0.930 . S
C1558 C1556 1.384 . S
C1558 C1559 1.372 . S
C1559 C1558 1.372 . S
C1559 C1560 1.400 . S
C1559 C1564 1.490 . S
C1560 H1550 0.930 . S
C1560 C1559 1.400 . S
C1560 C1563 1.386 . S
H1561 C1577 0.930 . S
H1562 C1578 0.931 . S
C1563 H1551 0.929 . S
C1563 C1557 1.390 . S
C1563 C1560 1.386 . S
C1564 C1559 1.490 . S
C1564 C1566 1.395 . S
C1564 C1567 1.403 . S
H1565 C1571 0.930 . S
C1566 H1552 0.930 . S
C1566 C1564 1.395 . S
C1566 C1569 1.403 . S
C1567 C1564 1.403 . S
C1567 C1568 1.524 . S
C1567 C1571 1.400 . S
C1568 H1553 0.960 . S
C1568 H1554 0.960 . S
C1568 H1555 0.960 . S
C1568 C1567 1.524 . S
C1569 C1566 1.403 . S
C1569 C1570 1.392 . S
C1569 C1573 1.495 . S
C1570 C1569 1.392 . S
C1570 C1571 1.385 . S
C1570 C1572 1.478 . S
C1571 H1565 0.930 . S
C1571 C1567 1.400 . S
C1571 C1570 1.385 . S
C1572 C1570 1.478 . S
C1572 C1574 1.381 . S
C1572 C1578 1.383 . S
C1573 C1569 1.495 . S
C1573 H1579 0.959 . S
C1573 H1580 0.961 . S
C1573 H1581 0.960 . S
C1574 C1572 1.381 . S
C1574 C1575 1.394 . S
C1574 H1582 0.930 . S
C1575 C1574 1.394 . S
C1575 C1576 1.383 . S
C1575 H1583 0.929 . S
C1576 C1575 1.383 . S
C1576 C1577 1.377 . S
C1577 H1561 0.930 . S
C1577 C1576 1.377 . S
C1577 C1578 1.379 . S
C1578 H1562 0.931 . S
C1578 C1572 1.383 . S
C1578 C1577 1.379 . S
H1579 C1573 0.959 . S
H1580 C1573 0.961 . S
H1581 C1573 0.960 . S
H1582 C1574 0.930 . S
H1583 C1575 0.929 . S
H1584 C1592 0.929 . S
H1585 C1594 0.930 . S
H1586 C1596 0.930 . S
H1587 C1599 0.929 . S
H1588 C1602 0.930 . S
H1589 C1604 0.960 . S
H1590 C1604 0.960 . S
H1591 C1604 0.960 . S
C1592 H1584 0.929 . S
C1592 C1593 1.377 . S
C1592 C1594 1.384 . S
C1593 C1592 1.377 . S
C1593 C1599 1.390 . S
C1594 H1585 0.930 . S
C1594 C1592 1.384 . S
C1594 C1595 1.372 . S
C1595 C1594 1.372 . S
C1595 C1596 1.400 . S
C1595 C1600 1.490 . S
C1596 H1586 0.930 . S
C1596 C1595 1.400 . S
C1596 C1599 1.386 . S
H1597 C1613 0.930 . S
H1598 C1614 0.931 . S
C1599 H1587 0.929 . S
C1599 C1593 1.390 . S
C1599 C1596 1.386 . S
C1600 C1595 1.490 . S
C1600 C1602 1.395 . S
C1600 C1603 1.403 . S
H1601 C1607 0.930 . S
C1602 H1588 0.930 . S
C1602 C1600 1.395 . S
C1602 C1605 1.403 . S
C1603 C1600 1.403 . S
C1603 C1604 1.524 . S
C1603 C1607 1.400 . S
C1604 H1589 0.960 . S
C1604 H1590 0.960 . S
C1604 H1591 0.960 . S
C1604 C1603 1.524 . S
C1605 C1602 1.403 . S
C1605 C1606 1.392 . S
C1605 C1609 1.495 . S
C1606 C1605 1.392 . S
C1606 C1607 1.385 . S
C1606 C1608 1.478 . S
C1607 H1601 0.930 . S
C1607 C1603 1.400 . S
C1607 C1606 1.385 . S
C1608 C1606 1.478 . S
C1608 C1610 1.381 . S
C1608 C1614 1.383 . S
C1609 C1605 1.495 . S
C1609 H1615 0.959 . S
C1609 H1616 0.961 . S
C1609 H1617 0.960 . S
C1610 C1608 1.381 . S
C1610 C1611 1.394 . S
C1610 H1618 0.930 . S
C1611 C1610 1.394 . S
C1611 C1612 1.383 . S
C1611 H1619 0.921 1_556 S
C1612 C1611 1.383 . S
C1612 C1613 1.377 . S
C1613 H1597 0.930 . S
C1613 C1612 1.377 . S
C1613 C1614 1.379 . S
C1614 H1598 0.931 . S
C1614 C1608 1.383 . S
C1614 C1613 1.379 . S
H1615 C1609 0.959 . S
H1616 C1609 0.961 . S
H1617 C1609 0.960 . S
H1618 C1610 0.930 . S
H1619 C1611 0.921 1_554 S
H1620 C1628 0.929 . S
H1621 C1630 0.930 . S
H1622 C1632 0.930 . S
H1623 C1635 0.929 . S
H1624 C1638 0.930 . S
H1625 C1640 0.960 . S
H1626 C1640 0.960 . S
H1627 C1640 0.960 . S
C1628 H1620 0.929 . S
C1628 C1629 1.377 . S
C1628 C1630 1.384 . S
C1629 C1628 1.377 . S
C1629 C1635 1.390 . S
C1630 H1621 0.930 . S
C1630 C1628 1.384 . S
C1630 C1631 1.372 . S
C1631 C1630 1.372 . S
C1631 C1632 1.400 . S
C1631 C1636 1.490 . S
C1632 H1622 0.930 . S
C1632 C1631 1.400 . S
C1632 C1635 1.386 . S
H1633 C1649 0.930 1_556 S
H1634 C1650 0.931 . S
C1635 H1623 0.929 . S
C1635 C1629 1.390 . S
C1635 C1632 1.386 . S
C1636 C1631 1.490 . S
C1636 C1638 1.395 . S
C1636 C1639 1.403 . S
H1637 C1643 0.930 . S
C1638 H1624 0.930 . S
C1638 C1636 1.395 . S
C1638 C1641 1.403 . S
C1639 C1636 1.403 . S
C1639 C1640 1.524 . S
C1639 C1643 1.400 . S
C1640 H1625 0.960 . S
C1640 H1626 0.960 . S
C1640 H1627 0.960 . S
C1640 C1639 1.524 . S
C1641 C1638 1.403 . S
C1641 C1642 1.392 . S
C1641 C1645 1.495 . S
C1642 C1641 1.392 . S
C1642 C1643 1.385 . S
C1642 C1644 1.478 . S
C1643 H1637 0.930 . S
C1643 C1639 1.400 . S
C1643 C1642 1.385 . S
C1644 C1642 1.478 . S
C1644 C1646 1.381 . S
C1644 C1650 1.383 . S
C1645 C1641 1.495 . S
C1645 H1651 0.959 . S
C1645 H1652 0.961 . S
C1645 H1653 0.960 . S
C1646 C1644 1.381 . S
C1646 C1647 1.394 1_554 S
C1646 H1654 0.930 . S
C1647 C1646 1.394 1_556 S
C1647 C1648 1.383 . S
C1647 H1655 0.929 . S
C1648 C1647 1.383 . S
C1648 C1649 1.377 1_556 S
C1649 H1633 0.930 1_554 S
C1649 C1648 1.377 1_554 S
C1649 C1650 1.379 . S
C1650 H1634 0.931 . S
C1650 C1644 1.383 . S
C1650 C1649 1.379 . S
H1651 C1645 0.959 . S
H1652 C1645 0.961 . S
H1653 C1645 0.960 . S
H1654 C1646 0.930 . S
H1655 C1647 0.929 . S
H1656 C1664 0.929 . S
H1657 C1666 0.930 . S
H1658 C1668 0.930 . S
H1659 C1671 0.929 . S
H1660 C1674 0.930 . S
H1661 C1676 0.960 . S
H1662 C1676 0.960 . S
H1663 C1676 0.960 . S
C1664 H1656 0.929 . S
C1664 C1665 1.377 . S
C1664 C1666 1.384 . S
C1665 C1664 1.377 . S
C1665 C1671 1.390 . S
C1666 H1657 0.930 . S
C1666 C1664 1.384 . S
C1666 C1667 1.372 . S
C1667 C1666 1.372 . S
C1667 C1668 1.400 . S
C1667 C1672 1.490 . S
C1668 H1658 0.930 . S
C1668 C1667 1.400 . S
C1668 C1671 1.386 . S
H1669 C1685 0.930 . S
H1670 C1686 0.931 . S
C1671 H1659 0.929 . S
C1671 C1665 1.390 . S
C1671 C1668 1.386 . S
C1672 C1667 1.490 . S
C1672 C1674 1.395 . S
C1672 C1675 1.403 . S
H1673 C1679 0.930 . S
C1674 H1660 0.930 . S
C1674 C1672 1.395 . S
C1674 C1677 1.403 . S
C1675 C1672 1.403 . S
C1675 C1676 1.524 . S
C1675 C1679 1.400 . S
C1676 H1661 0.960 . S
C1676 H1662 0.960 . S
C1676 H1663 0.960 . S
C1676 C1675 1.524 . S
C1677 C1674 1.403 . S
C1677 C1678 1.392 . S
C1677 C1681 1.495 . S
C1678 C1677 1.392 . S
C1678 C1679 1.385 . S
C1678 C1680 1.478 . S
C1679 H1673 0.930 . S
C1679 C1675 1.400 . S
C1679 C1678 1.385 . S
C1680 C1678 1.478 . S
C1680 C1682 1.381 . S
C1680 C1686 1.383 . S
C1681 C1677 1.495 . S
C1681 H1687 0.959 . S
C1681 H1688 0.961 . S
C1681 H1689 0.960 . S
C1682 C1680 1.381 . S
C1682 C1683 1.394 . S
C1682 H1690 0.930 . S
C1683 C1682 1.394 . S
C1683 C1684 1.383 . S
C1683 H1691 0.929 . S
C1684 C1683 1.383 . S
C1684 C1685 1.377 . S
C1685 H1669 0.930 . S
C1685 C1684 1.377 . S
C1685 C1686 1.379 . S
C1686 H1670 0.931 . S
C1686 C1680 1.383 . S
C1686 C1685 1.379 . S
H1687 C1681 0.959 . S
H1688 C1681 0.961 . S
H1689 C1681 0.960 . S
H1690 C1682 0.930 . S
H1691 C1683 0.929 . S
H1692 C1700 0.929 . S
H1693 C1702 0.930 . S
H1694 C1704 0.930 . S
H1695 C1707 0.929 . S
H1696 C1710 0.930 . S
H1697 C1712 0.960 . S
H1698 C1712 0.960 . S
H1699 C1712 0.960 . S
C1700 H1692 0.929 . S
C1700 C1701 1.377 . S
C1700 C1702 1.384 . S
C1701 C1700 1.377 . S
C1701 C1707 1.390 . S
C1702 H1693 0.930 . S
C1702 C1700 1.384 . S
C1702 C1703 1.372 . S
C1703 C1702 1.372 . S
C1703 C1704 1.400 . S
C1703 C1708 1.490 . S
C1704 H1694 0.930 . S
C1704 C1703 1.400 . S
C1704 C1707 1.386 . S
H1705 C1721 0.930 . S
H1706 C1722 0.931 . S
C1707 H1695 0.929 . S
C1707 C1701 1.390 . S
C1707 C1704 1.386 . S
C1708 C1703 1.490 . S
C1708 C1710 1.395 . S
C1708 C1711 1.403 . S
H1709 C1715 0.930 . S
C1710 H1696 0.930 . S
C1710 C1708 1.395 . S
C1710 C1713 1.403 . S
C1711 C1708 1.403 . S
C1711 C1712 1.524 . S
C1711 C1715 1.400 . S
C1712 H1697 0.960 . S
C1712 H1698 0.960 . S
C1712 H1699 0.960 . S
C1712 C1711 1.524 . S
C1713 C1710 1.403 . S
C1713 C1714 1.392 . S
C1713 C1717 1.495 . S
C1714 C1713 1.392 . S
C1714 C1715 1.385 . S
C1714 C1716 1.478 . S
C1715 H1709 0.930 . S
C1715 C1711 1.400 . S
C1715 C1714 1.385 . S
C1716 C1714 1.478 . S
C1716 C1718 1.381 . S
C1716 C1722 1.383 . S
C1717 C1713 1.495 . S
C1717 H1723 0.959 . S
C1717 H1724 0.961 . S
C1717 H1725 0.960 . S
C1718 C1716 1.381 . S
C1718 C1719 1.394 . S
C1718 H1726 0.930 . S
C1719 C1718 1.394 . S
C1719 C1720 1.383 . S
C1719 H1727 0.929 . S
C1720 C1719 1.383 . S
C1720 C1721 1.377 . S
C1721 H1705 0.930 . S
C1721 C1720 1.377 . S
C1721 C1722 1.379 . S
C1722 H1706 0.931 . S
C1722 C1716 1.383 . S
C1722 C1721 1.379 . S
H1723 C1717 0.959 . S
H1724 C1717 0.961 . S
H1725 C1717 0.960 . S
H1726 C1718 0.930 . S
H1727 C1719 0.929 . S
C765 C58 1.273 . S
C784 C646 1.349 . S
C801 C140 2.134 . S
C820 C728 2.040 . S
C837 C226 1.411 . S
C856 C560 1.502 . S
C873 C392 2.120 . S
C892 C224 2.115 . S
C909 C476 2.145 . S
C928 C56 2.110 . S
C945 C142 2.040 . S
C964 C308 2.192 . S
C981 C644 1.520 . S
C1000 C478 1.500 . S
C1017 C730 1.602 . S
C1036 C310 1.664 . S
C1053 C394 2.175 . S
C1072 C562 2.245 . S
C1089 C238 1.335 . S
C1108 C67 1.553 . S
C1125 C154 1.067 . S
C1144 C70 1.133 . S
C1161 C151 2.899 . S
C1180 C235 2.989 . S
C1197 C322 1.637 . S
C1216 C487 2.020 . S
C1233 C319 2.071 . S
C1252 C406 1.811 . S
C1269 C403 1.923 . S
C1288 C490 1.470 . S
C1305 C742 1.801 1_554 S
C1324 C571 2.264 . S
C1341 C658 0.737 . S
C1360 C574 0.641 . S
C1377 C739 2.033 . S
C1396 C655 1.946 . S
C1413 C63 1.171 1_556 S
C1432 C74 1.205 . S
C1449 C158 1.127 1_556 S
C1468 C147 1.113 . S
C1485 C231 1.156 . S
C1504 C242 1.132 . S
C1521 C315 1.241 . S
C1540 C326 1.252 . S
C1557 C399 1.125 . S
C1576 C410 1.143 . S
C1593 C483 1.212 . S
C1612 C494 1.234 1_556 S
C1629 C567 1.164 . S
C1648 C578 1.142 . S
C1665 C651 1.151 . S
C1684 C662 1.181 . S
C1701 C735 1.153 . S
C1720 C746 1.160 . S
