# Generated by pormake.
# Topology pcb, (4)-cn, num edge types: 1
# Building blocks:
#     Node 0, Type 0, BuildingBlock: UXUYUI_clean_sbu_0, # of connection points: 4
#     Node 1, Type 0, BuildingBlock: UXUYUI_clean_sbu_0, # of connection points: 4
#     Node 2, Type 0, BuildingBlock: UXUYUI_clean_sbu_0, # of connection points: 4
#     Node 3, Type 0, BuildingBlock: UXUYUI_clean_sbu_0, # of connection points: 4
#     Node 4, Type 0, BuildingBlock: UXUYUI_clean_sbu_0, # of connection points: 4
#     Node 5, Type 0, BuildingBlock: UXUYUI_clean_sbu_0, # of connection points: 4
#     Node 6, Type 0, BuildingBlock: UXUYUI_clean_sbu_0, # of connection points: 4
#     Node 7, Type 0, BuildingBlock: UXUYUI_clean_sbu_0, # of connection points: 4
#     Node 8, Type 0, BuildingBlock: UXUYUI_clean_sbu_0, # of connection points: 4
#     Node 9, Type 0, BuildingBlock: UXUYUI_clean_sbu_0, # of connection points: 4
#     Node 10, Type 0, BuildingBlock: UXUYUI_clean_sbu_0, # of connection points: 4
#     Node 11, Type 0, BuildingBlock: UXUYUI_clean_sbu_0, # of connection points: 4
#     Node 12, Type 0, BuildingBlock: UXUYUI_clean_sbu_0, # of connection points: 4
#     Node 13, Type 0, BuildingBlock: UXUYUI_clean_sbu_0, # of connection points: 4
#     Node 14, Type 0, BuildingBlock: UXUYUI_clean_sbu_0, # of connection points: 4
#     Node 15, Type 0, BuildingBlock: UXUYUI_clean_sbu_0, # of connection points: 4
#     Edge 16, Type (0, 0), None
#     Edge 17, Type (0, 0), None
#     Edge 18, Type (0, 0), None
#     Edge 19, Type (0, 0), None
#     Edge 20, Type (0, 0), None
#     Edge 21, Type (0, 0), None
#     Edge 22, Type (0, 0), None
#     Edge 23, Type (0, 0), None
#     Edge 24, Type (0, 0), None
#     Edge 25, Type (0, 0), None
#     Edge 26, Type (0, 0), None
#     Edge 27, Type (0, 0), None
#     Edge 28, Type (0, 0), None
#     Edge 29, Type (0, 0), None
#     Edge 30, Type (0, 0), None
#     Edge 31, Type (0, 0), None
#     Edge 32, Type (0, 0), None
#     Edge 33, Type (0, 0), None
#     Edge 34, Type (0, 0), None
#     Edge 35, Type (0, 0), None
#     Edge 36, Type (0, 0), None
#     Edge 37, Type (0, 0), None
#     Edge 38, Type (0, 0), None
#     Edge 39, Type (0, 0), None
#     Edge 40, Type (0, 0), None
#     Edge 41, Type (0, 0), None
#     Edge 42, Type (0, 0), None
#     Edge 43, Type (0, 0), None
#     Edge 44, Type (0, 0), None
#     Edge 45, Type (0, 0), None
#     Edge 46, Type (0, 0), None
#     Edge 47, Type (0, 0), None
# Relax obj value: 0.233
# Max RMSD: 0.082
# Mean RMSD: 0.081
data_MOF--net-pcb--node1-UXUYUI_clean_sbu_0--edge1-none
_symmetry_space_group_name_H-M    P1
_symmetry_Int_Tables_number       1
_symmetry_cell_setting            triclinic
loop_
_symmetry_equiv_pos_as_xyz
'x, y, z'
_cell_length_a     43.27771
_cell_length_b     43.105893
_cell_length_c     43.20661
_cell_angle_alpha  90.062255
_cell_angle_beta   89.9727
_cell_angle_gamma 90.134979
loop_
_atom_site_label
_atom_site_type_symbol
_atom_site_fract_x
_atom_site_fract_y
_atom_site_fract_z
_atom_type_partial_charge
Li0 Li 0.16376 0.16252 0.12871 0.0
Li1 Li 0.17896 0.17964 0.17933 0.0
Li2 Li 0.16615 0.12481 0.16863 0.0
Li3 Li 0.12426 0.1627 0.16939 0.0
C4 C 0.2253 0.15273 0.13268 0.0
N5 N 0.27467 0.15866 0.09253 0.0
C6 C 0.24597 0.1775 0.13587 0.0
C7 C 0.2299 0.13082 0.10925 0.0
C8 C 0.27076 0.18012 0.1153 0.0
C9 C 0.25494 0.13429 0.08912 0.0
C10 C 0.14833 0.22139 0.13009 0.0
C11 C 0.12306 0.25147 0.09049 0.0
N12 N 0.15049 0.26527 0.08353 0.0
C13 C 0.17625 0.23594 0.1226 0.0
C14 C 0.12148 0.22929 0.114 0.0
C15 C 0.17687 0.25805 0.099 0.0
C16 C 0.14218 0.15811 0.06837 0.0
N17 N 0.16681 0.1688 0.08475 0.0
C18 C 0.1911 0.18642 0.03818 0.0
C19 C 0.19081 0.18332 0.07037 0.0
C20 C 0.16625 0.17487 0.02069 0.0
C21 C 0.14143 0.16082 0.03625 0.0
H22 H 0.12302 0.14729 0.08026 0.0
H23 H 0.20971 0.19264 0.08374 0.0
C24 C 0.22424 0.19207 0.22355 0.0
N25 N 0.20409 0.20593 0.20389 0.0
C26 C 0.24321 0.20999 0.24262 0.0
C27 C 0.2204 0.25615 0.22071 0.0
C28 C 0.20154 0.2373 0.2024 0.0
C29 C 0.24165 0.24257 0.24123 0.0
H30 H 0.22536 0.16702 0.2245 0.0
H31 H 0.18481 0.24772 0.18708 0.0
C32 C 0.12366 0.10154 0.1312 0.0
N33 N 0.10652 0.04104 0.11864 0.0
C34 C 0.09736 0.08884 0.14512 0.0
C35 C 0.141 0.08364 0.11058 0.0
C36 C 0.08912 0.05817 0.13852 0.0
C37 C 0.13205 0.05304 0.10465 0.0
C38 C 0.14356 0.16402 0.23157 0.0
C39 C 0.14285 0.14674 0.25889 0.0
C40 C 0.13615 0.19558 0.23232 0.0
C41 C 0.13456 0.1613 0.28658 0.0
C42 C 0.12803 0.20929 0.26047 0.0
N43 N 0.1274 0.19201 0.28679 0.0
C44 C 0.20073 0.06904 0.16662 0.0
C45 C 0.15281 0.06601 0.193 0.0
C46 C 0.20443 0.03694 0.16867 0.0
N47 N 0.17479 0.08267 0.17789 0.0
C48 C 0.15533 0.03383 0.19521 0.0
C49 C 0.18105 0.01873 0.18221 0.0
H50 H 0.21803 0.08291 0.15507 0.0
H51 H 0.13245 0.07756 0.2018 0.0
C52 C 0.06473 0.16905 0.14921 0.0
N53 N 0.08109 0.16767 0.17598 0.0
C54 C 0.03261 0.17076 0.14983 0.0
C55 C 0.03448 0.16944 0.20571 0.0
C56 C 0.06669 0.1676 0.20399 0.0
C57 C 0.01698 0.17096 0.17834 0.0
H58 H 0.07671 0.16797 0.12727 0.0
H59 H 0.07994 0.16549 0.22501 0.0
O60 O 0.20114 0.14959 0.15285 0.0
O61 O 0.14739 0.19932 0.15281 0.0
O62 O 0.13262 0.13123 0.13803 0.0
O63 O 0.15221 0.15013 0.20445 0.0
H64 H 0.2429 0.19455 0.15398 0.0
H65 H 0.21413 0.11153 0.10643 0.0
H66 H 0.28687 0.19922 0.11742 0.0
H67 H 0.25865 0.11763 0.07076 0.0
H68 H 0.10247 0.25773 0.07779 0.0
H69 H 0.19735 0.2298 0.13449 0.0
H70 H 0.09965 0.21845 0.11957 0.0
H71 H 0.19837 0.26931 0.09283 0.0
H72 H 0.21048 0.19787 0.02713 0.0
H73 H 0.12191 0.15135 0.0237 0.0
H74 H 0.25862 0.19836 0.25853 0.0
H75 H 0.21849 0.28108 0.21849 0.0
H76 H 0.08373 0.10234 0.16122 0.0
H77 H 0.16132 0.09319 0.09951 0.0
H78 H 0.06898 0.04794 0.14931 0.0
H79 H 0.14541 0.0388 0.08898 0.0
H80 H 0.14868 0.12233 0.25869 0.0
H81 H 0.1365 0.20935 0.21143 0.0
H82 H 0.13388 0.1482 0.30791 0.0
H83 H 0.12222 0.23367 0.2614 0.0
H84 H 0.22498 0.02646 0.15895 0.0
H85 H 0.1365 0.0209 0.20552 0.0
H86 H 0.02016 0.17095 0.12809 0.0
H87 H 0.02342 0.16949 0.22819 0.0
Li88 Li 0.82211 0.17291 0.18119 0.0
Li89 Li 0.83526 0.12131 0.16793 0.0
Li90 Li 0.87578 0.15957 0.16931 0.0
Li91 Li 0.83594 0.15933 0.12667 0.0
C92 C 0.85964 0.15738 0.2319 0.0
N93 N 0.87797 0.18386 0.28721 0.0
C94 C 0.85597 0.14113 0.25964 0.0
C95 C 0.87278 0.187 0.23228 0.0
C96 C 0.86533 0.15494 0.28737 0.0
C97 C 0.88188 0.20001 0.26046 0.0
C98 C 0.77238 0.13611 0.16455 0.0
C99 C 0.71716 0.12904 0.16175 0.0
N100 N 0.71713 0.11845 0.19139 0.0
C101 C 0.77182 0.1251 0.19497 0.0
C102 C 0.74487 0.13808 0.14777 0.0
C103 C 0.74365 0.11631 0.20813 0.0
C104 C 0.78428 0.22497 0.19169 0.0
N105 N 0.79605 0.19909 0.20516 0.0
C106 C 0.77076 0.21111 0.25283 0.0
C107 C 0.78932 0.19166 0.23498 0.0
C108 C 0.75872 0.23832 0.23975 0.0
C109 C 0.76549 0.24506 0.20866 0.0
H110 H 0.78973 0.2301 0.16779 0.0
H111 H 0.79818 0.17052 0.24494 0.0
C112 C 0.84146 0.06426 0.19926 0.0
N113 N 0.8274 0.07854 0.17508 0.0
C114 C 0.83969 0.03208 0.20238 0.0
C115 C 0.8082 0.03017 0.1562 0.0
C116 C 0.81028 0.0624 0.1542 0.0
C117 C 0.82358 0.01446 0.18019 0.0
H118 H 0.85505 0.07777 0.21541 0.0
H119 H 0.79958 0.07445 0.13506 0.0
C120 C 0.86065 0.22363 0.14614 0.0
N121 N 0.88074 0.28298 0.13243 0.0
C122 C 0.87224 0.23051 0.11672 0.0
C123 C 0.85891 0.2471 0.16846 0.0
C124 C 0.88241 0.2606 0.11029 0.0
C125 C 0.86928 0.27691 0.16111 0.0
C126 C 0.87712 0.09913 0.12987 0.0
C127 C 0.89882 0.08414 0.14851 0.0
C128 C 0.86376 0.08326 0.105 0.0
C129 C 0.90657 0.05333 0.14214 0.0
C130 C 0.87216 0.05248 0.09936 0.0
N131 N 0.89318 0.03827 0.11792 0.0
C132 C 0.93404 0.15076 0.19822 0.0
C133 C 0.93387 0.18547 0.15574 0.0
C134 C 0.96621 0.15272 0.20028 0.0
N135 N 0.91867 0.16674 0.17592 0.0
C136 C 0.96591 0.18835 0.15713 0.0
C137 C 0.98264 0.17124 0.17912 0.0
H138 H 0.92145 0.13547 0.21356 0.0
H139 H 0.92128 0.19727 0.13777 0.0
C140 C 0.80548 0.17963 0.07102 0.0
N141 N 0.83114 0.16665 0.08372 0.0
C142 C 0.80308 0.18266 0.03881 0.0
C143 C 0.85359 0.15925 0.03384 0.0
C144 C 0.85518 0.1571 0.06592 0.0
C145 C 0.82715 0.17176 0.01992 0.0
H146 H 0.78674 0.1871 0.08583 0.0
H147 H 0.87549 0.14733 0.07669 0.0
O148 O 0.85025 0.14416 0.20467 0.0
O149 O 0.79961 0.14506 0.15112 0.0
O150 O 0.8501 0.19436 0.15265 0.0
O151 O 0.86844 0.12894 0.13642 0.0
H152 H 0.84578 0.11818 0.25975 0.0
H153 H 0.87622 0.19965 0.21105 0.0
H154 H 0.86251 0.14269 0.30903 0.0
H155 H 0.89211 0.22293 0.26106 0.0
H156 H 0.69568 0.13047 0.14904 0.0
H157 H 0.79285 0.12338 0.20833 0.0
H158 H 0.74495 0.14657 0.12419 0.0
H159 H 0.74288 0.1078 0.23166 0.0
H160 H 0.76556 0.2047 0.2765 0.0
H161 H 0.75676 0.26587 0.19773 0.0
H162 H 0.85146 0.02112 0.22156 0.0
H163 H 0.79593 0.01768 0.13825 0.0
H164 H 0.87368 0.21274 0.09912 0.0
H165 H 0.84948 0.24249 0.19118 0.0
H166 H 0.89161 0.26617 0.08768 0.0
H167 H 0.86812 0.29524 0.17818 0.0
H168 H 0.90919 0.09599 0.16799 0.0
H169 H 0.84665 0.09438 0.09055 0.0
H170 H 0.92313 0.04135 0.15655 0.0
H171 H 0.86182 0.03983 0.08036 0.0
H172 H 0.97811 0.13874 0.2173 0.0
H173 H 0.97752 0.20321 0.14059 0.0
H174 H 0.78233 0.19238 0.02876 0.0
H175 H 0.87276 0.15098 0.01999 0.0
Li176 Li 0.83585 0.87327 0.16612 0.0
Li177 Li 0.87627 0.83361 0.16578 0.0
Li178 Li 0.83506 0.83421 0.12684 0.0
Li179 Li 0.82154 0.81913 0.17842 0.0
C180 C 0.87682 0.89317 0.12423 0.0
N181 N 0.8948 0.95165 0.10522 0.0
C182 C 0.90455 0.90596 0.13488 0.0
C183 C 0.85846 0.90988 0.10357 0.0
C184 C 0.91319 0.93562 0.12506 0.0
C185 C 0.86787 0.93948 0.09434 0.0
C186 C 0.85955 0.8344 0.22876 0.0
C187 C 0.8759 0.7894 0.25751 0.0
N188 N 0.87705 0.80687 0.28372 0.0
C189 C 0.86082 0.85188 0.25598 0.0
C190 C 0.86709 0.80287 0.22949 0.0
C191 C 0.86977 0.83755 0.28353 0.0
C192 C 0.80241 0.92996 0.16752 0.0
N193 N 0.82947 0.91593 0.17498 0.0
C194 C 0.85188 0.96447 0.18946 0.0
C195 C 0.85363 0.93228 0.18673 0.0
C196 C 0.8247 0.97994 0.1806 0.0
C197 C 0.79947 0.9621 0.17027 0.0
H198 H 0.78337 0.91632 0.15876 0.0
H199 H 0.87478 0.9204 0.19274 0.0
C200 C 0.93464 0.82321 0.14349 0.0
N201 N 0.91949 0.82808 0.17058 0.0
C202 C 0.9668 0.82247 0.14273 0.0
C203 C 0.96739 0.83158 0.19794 0.0
C204 C 0.93509 0.8322 0.19762 0.0
C205 C 0.98363 0.8272 0.17011 0.0
H206 H 0.92167 0.82107 0.12221 0.0
H207 H 0.9227 0.83718 0.21872 0.0
C208 C 0.77358 0.84789 0.13423 0.0
N209 N 0.72073 0.84533 0.09847 0.0
C210 C 0.75218 0.82393 0.13849 0.0
C211 C 0.76794 0.87074 0.11201 0.0
C212 C 0.72564 0.82299 0.12012 0.0
C213 C 0.74113 0.86897 0.09409 0.0
C214 C 0.84837 0.77497 0.12885 0.0
C215 C 0.81916 0.76379 0.12065 0.0
C216 C 0.87459 0.76326 0.11404 0.0
C217 C 0.81663 0.7413 0.09748 0.0
C218 C 0.8711 0.74079 0.09097 0.0
N219 N 0.84243 0.73038 0.08321 0.0
C220 C 0.85687 0.83226 0.06688 0.0
C221 C 0.80411 0.81763 0.06885 0.0
C222 C 0.85717 0.82912 0.03478 0.0
N223 N 0.83048 0.82715 0.08319 0.0
C224 C 0.80323 0.81464 0.03665 0.0
C225 C 0.82995 0.82075 0.01925 0.0
H226 H 0.87774 0.83912 0.07883 0.0
H227 H 0.78374 0.81231 0.08219 0.0
C228 C 0.77858 0.80896 0.22565 0.0
N229 N 0.79638 0.7943 0.2043 0.0
C230 C 0.75942 0.79185 0.24527 0.0
C231 C 0.77725 0.74491 0.22041 0.0
C232 C 0.79638 0.76291 0.20158 0.0
C233 C 0.75836 0.75933 0.24267 0.0
H234 H 0.77939 0.83399 0.22744 0.0
H235 H 0.81115 0.75182 0.18476 0.0
O236 O 0.86752 0.86454 0.13425 0.0
O237 O 0.85041 0.84811 0.20175 0.0
O238 O 0.79946 0.84941 0.15232 0.0
O239 O 0.85122 0.79744 0.15108 0.0
H240 H 0.91903 0.89331 0.15089 0.0
H241 H 0.83708 0.90015 0.09492 0.0
H242 H 0.93446 0.94594 0.13331 0.0
H243 H 0.85377 0.9528 0.07856 0.0
H244 H 0.88181 0.76505 0.25842 0.0
H245 H 0.85493 0.87628 0.25579 0.0
H246 H 0.86623 0.78893 0.2087 0.0
H247 H 0.87089 0.85081 0.30478 0.0
H248 H 0.87212 0.9771 0.19715 0.0
H249 H 0.77783 0.97287 0.16383 0.0
H250 H 0.97838 0.81884 0.1208 0.0
H251 H 0.97951 0.83586 0.21946 0.0
H252 H 0.75601 0.80621 0.15577 0.0
H253 H 0.78417 0.88951 0.10847 0.0
H254 H 0.70894 0.80452 0.12309 0.0
H255 H 0.73656 0.88638 0.07668 0.0
H256 H 0.79861 0.77272 0.13173 0.0
H257 H 0.89739 0.77132 0.12033 0.0
H258 H 0.79413 0.73263 0.09074 0.0
H259 H 0.89119 0.73159 0.07926 0.0
H260 H 0.87821 0.83421 0.02217 0.0
H261 H 0.78191 0.80769 0.02547 0.0
H262 H 0.74584 0.80402 0.26245 0.0
H263 H 0.77703 0.72001 0.21719 0.0
Li264 Li 0.12531 0.841 0.16273 0.0
Li265 Li 0.17742 0.82318 0.17637 0.0
Li266 Li 0.16688 0.87841 0.16443 0.0
Li267 Li 0.16797 0.84002 0.12253 0.0
C268 C 0.13131 0.85073 0.22395 0.0
N269 N 0.09146 0.84564 0.27368 0.0
C270 C 0.13413 0.82598 0.24463 0.0
C271 C 0.10837 0.87302 0.2287 0.0
C272 C 0.11373 0.8238 0.26961 0.0
C273 C 0.08839 0.86998 0.25392 0.0
C274 C 0.14622 0.77384 0.14221 0.0
C275 C 0.16311 0.72591 0.11889 0.0
N276 N 0.14119 0.71028 0.13523 0.0
C277 C 0.12362 0.75734 0.15849 0.0
C278 C 0.16594 0.75806 0.122 0.0
C279 C 0.12155 0.72521 0.15476 0.0
C280 C 0.0644 0.84842 0.14448 0.0
N281 N 0.08176 0.83516 0.16704 0.0
C282 C 0.03628 0.81586 0.19206 0.0
C283 C 0.06843 0.81877 0.19044 0.0
C284 C 0.01782 0.82956 0.16913 0.0
C285 C 0.03232 0.84599 0.14511 0.0
H286 H 0.07548 0.86094 0.12588 0.0
H287 H 0.08266 0.80784 0.20778 0.0
C288 C 0.22765 0.80898 0.21414 0.0
N289 N 0.20152 0.7965 0.20185 0.0
C290 C 0.24673 0.79121 0.23315 0.0
C291 C 0.21145 0.74812 0.22685 0.0
C292 C 0.19306 0.76674 0.20799 0.0
C293 C 0.23873 0.76029 0.2397 0.0
H294 H 0.23362 0.83284 0.20919 0.0
H295 H 0.17198 0.75743 0.19853 0.0
C296 C 0.12959 0.90167 0.12177 0.0
N297 N 0.1178 0.96227 0.10471 0.0
C298 C 0.14258 0.91379 0.09473 0.0
C299 C 0.11022 0.92021 0.13988 0.0
C300 C 0.1364 0.94452 0.08654 0.0
C301 C 0.10469 0.95085 0.13096 0.0
C302 C 0.23045 0.84358 0.13951 0.0
C303 C 0.25318 0.86566 0.13283 0.0
C304 C 0.23672 0.81212 0.13509 0.0
C305 C 0.28181 0.85585 0.12156 0.0
C306 C 0.26563 0.80323 0.12382 0.0
N307 N 0.28738 0.8251 0.11731 0.0
C308 C 0.16664 0.93384 0.19998 0.0
C309 C 0.19087 0.93731 0.15091 0.0
C310 C 0.16928 0.96586 0.20414 0.0
N311 N 0.17659 0.92046 0.1733 0.0
C312 C 0.19363 0.96941 0.15389 0.0
C313 C 0.18207 0.98426 0.18048 0.0
H314 H 0.15572 0.91982 0.21758 0.0
H315 H 0.19861 0.92597 0.12996 0.0
C316 C 0.15521 0.81544 0.06406 0.0
N317 N 0.17573 0.83338 0.07981 0.0
C318 C 0.15747 0.81239 0.03198 0.0
C319 C 0.20227 0.84598 0.03298 0.0
C320 C 0.19915 0.84835 0.06507 0.0
C321 C 0.18092 0.82824 0.01593 0.0
H322 H 0.13642 0.80434 0.07635 0.0
H323 H 0.21471 0.86307 0.07802 0.0
O324 O 0.15116 0.85331 0.19944 0.0
O325 O 0.14835 0.80537 0.14537 0.0
O326 O 0.13606 0.87192 0.13064 0.0
O327 O 0.20228 0.8529 0.1504 0.0
H328 H 0.15182 0.80861 0.24142 0.0
H329 H 0.10583 0.8923 0.21293 0.0
H330 H 0.11559 0.80473 0.28575 0.0
H331 H 0.07042 0.88696 0.25776 0.0
H332 H 0.17828 0.71341 0.1034 0.0
H333 H 0.1081 0.76915 0.17411 0.0
H334 H 0.18309 0.77046 0.10863 0.0
H335 H 0.10432 0.71213 0.16741 0.0
H336 H 0.02602 0.8027 0.21079 0.0
H337 H 0.019 0.85726 0.12715 0.0
H338 H 0.26726 0.80172 0.24295 0.0
H339 H 0.2045 0.72435 0.23108 0.0
H340 H 0.15755 0.89975 0.08041 0.0
H341 H 0.09986 0.91113 0.16078 0.0
H342 H 0.14649 0.95428 0.06581 0.0
H343 H 0.09002 0.96556 0.14492 0.0
H344 H 0.24869 0.89013 0.13621 0.0
H345 H 0.21957 0.79475 0.14054 0.0
H346 H 0.29959 0.87269 0.11618 0.0
H347 H 0.2708 0.77893 0.1203 0.0
H348 H 0.16066 0.97615 0.22531 0.0
H349 H 0.20327 0.9825 0.13481 0.0
H350 H 0.14015 0.79896 0.01977 0.0
H351 H 0.22077 0.85848 0.02156 0.0
Li352 Li 0.16666 0.87709 0.83519 0.0
Li353 Li 0.16718 0.8364 0.87508 0.0
Li354 Li 0.17788 0.8241 0.82014 0.0
Li355 Li 0.12583 0.8364 0.83666 0.0
C356 C 0.23028 0.86354 0.84406 0.0
N357 N 0.2881 0.88915 0.8345 0.0
C358 C 0.24765 0.87434 0.86914 0.0
C359 C 0.24255 0.86527 0.8142 0.0
C360 C 0.27676 0.88738 0.86381 0.0
C361 C 0.27176 0.87841 0.80982 0.0
C362 C 0.11395 0.86932 0.8908 0.0
C363 C 0.08053 0.84265 0.92672 0.0
N364 N 0.06953 0.87045 0.93671 0.0
C365 C 0.10234 0.89761 0.90141 0.0
C366 C 0.10299 0.84159 0.90352 0.0
C367 C 0.07987 0.8977 0.92465 0.0
C368 C 0.1566 0.93583 0.80809 0.0
N369 N 0.17346 0.92014 0.82947 0.0
C370 C 0.19496 0.96745 0.84868 0.0
C371 C 0.19249 0.9352 0.8495 0.0
C372 C 0.17719 0.98443 0.82742 0.0
C373 C 0.15826 0.96815 0.80652 0.0
H374 H 0.14085 0.92335 0.79313 0.0
H375 H 0.20478 0.9223 0.86698 0.0
C376 C 0.17154 0.8033 0.93222 0.0
N377 N 0.17602 0.83082 0.91756 0.0
C378 C 0.17416 0.80156 0.96443 0.0
C379 C 0.1867 0.85626 0.96547 0.0
C380 C 0.18378 0.85694 0.93336 0.0
C381 C 0.18135 0.82842 0.98153 0.0
H382 H 0.16488 0.78303 0.91904 0.0
H383 H 0.18648 0.87861 0.92103 0.0
C384 C 0.14974 0.85865 0.76972 0.0
N385 N 0.15274 0.86914 0.70671 0.0
C386 C 0.12648 0.8474 0.75024 0.0
C387 C 0.1742 0.87575 0.75721 0.0
C388 C 0.12851 0.85279 0.71843 0.0
C389 C 0.17539 0.88067 0.72529 0.0
C390 C 0.14232 0.77312 0.83697 0.0
C391 C 0.13033 0.77307 0.80695 0.0
C392 C 0.1454 0.74513 0.85294 0.0
C393 C 0.12151 0.74499 0.7934 0.0
C394 C 0.13629 0.71751 0.83861 0.0
N395 N 0.12464 0.71802 0.80938 0.0
C396 C 0.22805 0.78592 0.80665 0.0
C397 C 0.19403 0.79202 0.76414 0.0
C398 C 0.24696 0.76632 0.7893 0.0
N399 N 0.20224 0.7984 0.79385 0.0
C400 C 0.21233 0.77263 0.7459 0.0
C401 C 0.23917 0.75944 0.75848 0.0
H402 H 0.23389 0.79122 0.83042 0.0
H403 H 0.17306 0.80151 0.75463 0.0
C404 C 0.06703 0.85604 0.82068 0.0
N405 N 0.08259 0.83096 0.83144 0.0
C406 C 0.03486 0.85556 0.81884 0.0
C407 C 0.03534 0.80302 0.83831 0.0
C408 C 0.0675 0.80472 0.84027 0.0
C409 C 0.01846 0.82885 0.8279 0.0
H410 H 0.07968 0.87679 0.81443 0.0
H411 H 0.08027 0.78535 0.84954 0.0
O412 O 0.20181 0.85057 0.84899 0.0
O413 O 0.13582 0.8689 0.86795 0.0
O414 O 0.14802 0.85355 0.80092 0.0
O415 O 0.15154 0.80029 0.85057 0.0
H416 H 0.23867 0.87283 0.89247 0.0
H417 H 0.22988 0.85623 0.79463 0.0
H418 H 0.29035 0.89603 0.88299 0.0
H419 H 0.2815 0.87994 0.7868 0.0
H420 H 0.07183 0.82137 0.93676 0.0
H421 H 0.11059 0.91927 0.89174 0.0
H422 H 0.11169 0.81947 0.89555 0.0
H423 H 0.07065 0.91943 0.93308 0.0
H424 H 0.20995 0.97901 0.86512 0.0
H425 H 0.14368 0.9803 0.79018 0.0
H426 H 0.16999 0.77961 0.97587 0.0
H427 H 0.19165 0.87766 0.97767 0.0
H428 H 0.10708 0.83456 0.7596 0.0
H429 H 0.19183 0.88553 0.772 0.0
H430 H 0.11078 0.84403 0.70307 0.0
H431 H 0.19424 0.89381 0.71529 0.0
H432 H 0.1278 0.79447 0.79428 0.0
H433 H 0.15479 0.74473 0.87615 0.0
H434 H 0.11218 0.74465 0.77018 0.0
H435 H 0.13853 0.69567 0.8507 0.0
H436 H 0.26759 0.75685 0.79982 0.0
H437 H 0.20521 0.7675 0.72241 0.0
H438 H 0.02302 0.87634 0.81138 0.0
H439 H 0.02388 0.7818 0.84526 0.0
Li440 Li 0.16071 0.16606 0.87892 0.0
Li441 Li 0.16132 0.12536 0.83826 0.0
Li442 Li 0.17325 0.18001 0.82583 0.0
Li443 Li 0.12087 0.16459 0.83755 0.0
C444 C 0.22503 0.15178 0.86503 0.0
N445 N 0.28417 0.1526 0.88914 0.0
C446 C 0.23877 0.12428 0.87511 0.0
C447 C 0.2415 0.17967 0.86694 0.0
C448 C 0.26865 0.12519 0.88731 0.0
C449 C 0.27134 0.17961 0.87926 0.0
C450 C 0.10637 0.11205 0.87125 0.0
C451 C 0.0725 0.07561 0.84578 0.0
N452 N 0.0586 0.0695 0.87336 0.0
C453 C 0.09175 0.10548 0.89933 0.0
C454 C 0.09669 0.09706 0.84423 0.0
C455 C 0.06765 0.08387 0.89992 0.0
C456 C 0.13959 0.1808 0.93753 0.0
N457 N 0.16574 0.1726 0.92219 0.0
C458 C 0.19354 0.16888 0.96984 0.0
C459 C 0.19257 0.16706 0.93759 0.0
C460 C 0.16658 0.1762 0.98637 0.0
C461 C 0.13947 0.18277 0.96977 0.0
H462 H 0.11855 0.1849 0.92466 0.0
H463 H 0.21302 0.16024 0.92516 0.0
C464 C 0.17106 0.06914 0.80443 0.0
N465 N 0.16979 0.08275 0.83278 0.0
C466 C 0.17432 0.03695 0.80197 0.0
C467 C 0.17542 0.03383 0.85785 0.0
C468 C 0.17212 0.06593 0.85921 0.0
C469 C 0.17624 0.01884 0.82897 0.0
H470 H 0.16881 0.08316 0.78383 0.0
H471 H 0.17055 0.07747 0.8814 0.0
C472 C 0.15002 0.23101 0.86078 0.0
N473 N 0.16324 0.2924 0.87363 0.0
C474 C 0.13064 0.25446 0.84987 0.0
C475 C 0.17579 0.23872 0.87867 0.0
C476 C 0.13781 0.28539 0.85647 0.0
C477 C 0.18217 0.2699 0.8848 0.0
C478 C 0.13808 0.16378 0.7748 0.0
C479 C 0.12498 0.19338 0.77502 0.0
C480 C 0.14284 0.14855 0.74665 0.0
C481 C 0.11681 0.20727 0.74701 0.0
C482 C 0.13435 0.1632 0.71912 0.0
N483 N 0.12162 0.19202 0.71987 0.0
C484 C 0.22657 0.19363 0.79168 0.0
C485 C 0.18957 0.23401 0.791 0.0
C486 C 0.24655 0.21097 0.77314 0.0
N487 N 0.19889 0.20549 0.80054 0.0
C488 C 0.20861 0.25198 0.77203 0.0
C489 C 0.23766 0.2406 0.76293 0.0
H490 H 0.23321 0.17066 0.79916 0.0
H491 H 0.16717 0.24269 0.79766 0.0
C492 C 0.06193 0.18305 0.85532 0.0
N493 N 0.07772 0.17005 0.83147 0.0
C494 C 0.02978 0.18513 0.85428 0.0
C495 C 0.0308 0.16119 0.80368 0.0
C496 C 0.06292 0.15913 0.80593 0.0
C497 C 0.01366 0.17393 0.82827 0.0
H498 H 0.07434 0.19092 0.87561 0.0
H499 H 0.07591 0.14817 0.78758 0.0
O500 O 0.19579 0.15121 0.85301 0.0
O501 O 0.12969 0.13349 0.87023 0.0
O502 O 0.14323 0.20066 0.85449 0.0
O503 O 0.14667 0.14983 0.80189 0.0
H504 H 0.22646 0.10247 0.87364 0.0
H505 H 0.23151 0.20112 0.85883 0.0
H506 H 0.27951 0.10409 0.89532 0.0
H507 H 0.28431 0.20102 0.88091 0.0
H508 H 0.06474 0.06386 0.82505 0.0
H509 H 0.09892 0.11703 0.92041 0.0
H510 H 0.10758 0.10209 0.82224 0.0
H511 H 0.0561 0.07854 0.92148 0.0
H512 H 0.21483 0.16326 0.98172 0.0
H513 H 0.11826 0.18885 0.98159 0.0
H514 H 0.17499 0.02634 0.77925 0.0
H515 H 0.17615 0.02083 0.87927 0.0
H516 H 0.11038 0.24883 0.83628 0.0
H517 H 0.19057 0.22084 0.88793 0.0
H518 H 0.12315 0.3038 0.84799 0.0
H519 H 0.20212 0.27621 0.89854 0.0
H520 H 0.12112 0.20553 0.79655 0.0
H521 H 0.15306 0.12566 0.74606 0.0
H522 H 0.10666 0.23018 0.74686 0.0
H523 H 0.13791 0.15169 0.69715 0.0
H524 H 0.26881 0.20127 0.76712 0.0
H525 H 0.20034 0.27431 0.7642 0.0
H526 H 0.01771 0.19446 0.87415 0.0
H527 H 0.01957 0.15253 0.78301 0.0
Li528 Li 0.83035 0.127 0.83654 0.0
Li529 Li 0.83129 0.16761 0.87831 0.0
Li530 Li 0.82073 0.17878 0.82373 0.0
Li531 Li 0.87198 0.16683 0.83613 0.0
C532 C 0.77227 0.13294 0.85626 0.0
N533 N 0.72525 0.09009 0.86346 0.0
C534 C 0.7618 0.12512 0.88586 0.0
C535 C 0.75851 0.11933 0.83032 0.0
C536 C 0.73808 0.10332 0.88901 0.0
C537 C 0.73486 0.09761 0.83444 0.0
C538 C 0.88926 0.12435 0.87858 0.0
C539 C 0.93507 0.13069 0.90968 0.0
N540 N 0.94671 0.10407 0.89744 0.0
C541 C 0.90157 0.097 0.86639 0.0
C542 C 0.90601 0.1413 0.90049 0.0
C543 C 0.93069 0.08715 0.87621 0.0
C544 C 0.82937 0.06865 0.80525 0.0
N545 N 0.82321 0.0839 0.83209 0.0
C546 C 0.81263 0.03625 0.85804 0.0
C547 C 0.81482 0.06846 0.85814 0.0
C548 C 0.82024 0.01954 0.83114 0.0
C549 C 0.82804 0.03622 0.80424 0.0
H550 H 0.8366 0.08156 0.78504 0.0
H551 H 0.81081 0.08117 0.87934 0.0
C552 C 0.81944 0.1986 0.93684 0.0
N553 N 0.82573 0.17165 0.92166 0.0
C554 C 0.81849 0.19912 0.96927 0.0
C555 C 0.83027 0.1443 0.9694 0.0
C556 C 0.83057 0.14474 0.93722 0.0
C557 C 0.82463 0.17178 0.9858 0.0
H558 H 0.81596 0.21975 0.92392 0.0
H559 H 0.83533 0.12365 0.92454 0.0
C560 C 0.84508 0.15695 0.77106 0.0
N561 N 0.838 0.17286 0.70958 0.0
C562 C 0.86762 0.1748 0.75619 0.0
C563 C 0.81922 0.14674 0.75457 0.0
C564 C 0.86355 0.18269 0.7251 0.0
C565 C 0.81596 0.15519 0.72354 0.0
C566 C 0.83968 0.23189 0.84749 0.0
C567 C 0.85862 0.25194 0.83053 0.0
C568 C 0.8109 0.24213 0.85798 0.0
C569 C 0.8483 0.28195 0.82414 0.0
C570 C 0.80139 0.27228 0.85105 0.0
N571 N 0.82012 0.29139 0.83441 0.0
C572 C 0.76463 0.20229 0.80009 0.0
C573 C 0.80921 0.22426 0.77693 0.0
C574 C 0.74549 0.22039 0.78146 0.0
N575 N 0.79586 0.20441 0.79743 0.0
C576 C 0.79097 0.24274 0.7578 0.0
C577 C 0.75863 0.24091 0.75988 0.0
H578 H 0.75454 0.1867 0.81685 0.0
H579 H 0.83406 0.22583 0.77542 0.0
C580 C 0.93056 0.14901 0.81513 0.0
N581 N 0.91508 0.17181 0.83026 0.0
C582 C 0.96277 0.14956 0.81368 0.0
C583 C 0.96235 0.1979 0.84211 0.0
C584 C 0.93015 0.19613 0.84343 0.0
C585 C 0.97922 0.17408 0.82758 0.0
H586 H 0.91789 0.12974 0.80525 0.0
H587 H 0.91721 0.21371 0.8557 0.0
O588 O 0.79568 0.15402 0.8527 0.0
O589 O 0.86128 0.13494 0.86849 0.0
O590 O 0.84869 0.14902 0.80146 0.0
O591 O 0.84916 0.2023 0.8536 0.0
H592 H 0.77192 0.1357 0.90617 0.0
H593 H 0.76615 0.12534 0.80726 0.0
H594 H 0.72987 0.09691 0.91178 0.0
H595 H 0.72416 0.08673 0.81457 0.0
H596 H 0.94841 0.14366 0.92646 0.0
H597 H 0.88893 0.08373 0.84927 0.0
H598 H 0.89682 0.16263 0.90997 0.0
H599 H 0.94061 0.06611 0.86687 0.0
H600 H 0.80592 0.02456 0.87918 0.0
H601 H 0.83451 0.0244 0.7831 0.0
H602 H 0.81424 0.22076 0.98127 0.0
H603 H 0.83483 0.12273 0.98141 0.0
H604 H 0.88786 0.18274 0.76861 0.0
H605 H 0.80179 0.13258 0.76565 0.0
H606 H 0.88067 0.1967 0.71334 0.0
H607 H 0.79593 0.14767 0.71055 0.0
H608 H 0.88087 0.24429 0.82206 0.0
H609 H 0.79584 0.22674 0.87084 0.0
H610 H 0.86262 0.29767 0.81089 0.0
H611 H 0.77906 0.28044 0.85879 0.0
H612 H 0.72069 0.21861 0.78425 0.0
H613 H 0.80212 0.25801 0.74132 0.0
H614 H 0.97457 0.13032 0.80277 0.0
H615 H 0.97387 0.2175 0.85275 0.0
Li616 Li 0.83748 0.87822 0.83862 0.0
Li617 Li 0.83781 0.83521 0.8783 0.0
Li618 Li 0.87693 0.83804 0.83774 0.0
Li619 Li 0.82532 0.82339 0.82451 0.0
C620 C 0.8966 0.88049 0.87734 0.0
N621 N 0.9556 0.9024 0.88848 0.0
C622 C 0.91319 0.86994 0.90298 0.0
C623 C 0.9099 0.90236 0.85749 0.0
C624 C 0.94302 0.88126 0.90818 0.0
C625 C 0.93979 0.91311 0.86349 0.0
C626 C 0.77423 0.85547 0.86516 0.0
C627 C 0.72444 0.83531 0.88037 0.0
N628 N 0.71625 0.86399 0.89061 0.0
C629 C 0.76521 0.88479 0.87561 0.0
C630 C 0.7536 0.83055 0.86735 0.0
C631 C 0.73585 0.8886 0.88849 0.0
C632 C 0.81854 0.93434 0.808 0.0
N633 N 0.8296 0.92111 0.83428 0.0
C634 C 0.83374 0.97046 0.8589 0.0
C635 C 0.83688 0.93838 0.85953 0.0
C636 C 0.82252 0.98511 0.83213 0.0
C637 C 0.81471 0.96657 0.80643 0.0
H638 H 0.81295 0.91994 0.78825 0.0
H639 H 0.84558 0.9272 0.88013 0.0
C640 C 0.85375 0.81015 0.93574 0.0
N641 N 0.83156 0.82693 0.92116 0.0
C642 C 0.85311 0.80674 0.96788 0.0
C643 C 0.80586 0.83651 0.96918 0.0
C644 C 0.80767 0.83973 0.93711 0.0
C645 C 0.82918 0.8205 0.985 0.0
H646 H 0.87261 0.80043 0.92249 0.0
H647 H 0.79066 0.8535 0.92531 0.0
C648 C 0.86076 0.84171 0.77427 0.0
N649 N 0.87694 0.8164 0.71779 0.0
C650 C 0.87473 0.81254 0.77288 0.0
C651 C 0.85502 0.85802 0.74696 0.0
C652 C 0.88273 0.80014 0.74411 0.0
C653 C 0.86338 0.84483 0.71862 0.0
C654 C 0.84498 0.77164 0.85889 0.0
C655 C 0.86299 0.74638 0.84972 0.0
C656 C 0.81721 0.76655 0.87455 0.0
C657 C 0.85267 0.71633 0.8561 0.0
C658 C 0.80768 0.73615 0.88053 0.0
N659 N 0.82545 0.71188 0.87123 0.0
C660 C 0.93541 0.81473 0.8523 0.0
C661 C 0.93507 0.84719 0.80807 0.0
C662 C 0.96757 0.8128 0.85127 0.0
N663 N 0.91999 0.83213 0.83121 0.0
C664 C 0.96719 0.84545 0.80582 0.0
C665 C 0.98402 0.8286 0.828 0.0
H666 H 0.92275 0.80344 0.87074 0.0
H667 H 0.92226 0.8613 0.79189 0.0
C668 C 0.77118 0.80865 0.7914 0.0
N669 N 0.79995 0.79837 0.79853 0.0
C670 C 0.75162 0.79071 0.77291 0.0
C671 C 0.79217 0.75253 0.76838 0.0
C672 C 0.81072 0.77097 0.78736 0.0
C673 C 0.76201 0.76215 0.76107 0.0
H674 H 0.76333 0.83073 0.80025 0.0
H675 H 0.83382 0.76345 0.79296 0.0
O676 O 0.86778 0.86892 0.87122 0.0
O677 O 0.8029 0.8514 0.85241 0.0
O678 O 0.85246 0.85429 0.80213 0.0
O679 O 0.85471 0.80114 0.85248 0.0
H680 H 0.90326 0.85297 0.91852 0.0
H681 H 0.89747 0.91054 0.83737 0.0
H682 H 0.95621 0.87316 0.92783 0.0
H683 H 0.95047 0.92984 0.84819 0.0
H684 H 0.70828 0.81622 0.88225 0.0
H685 H 0.78079 0.90436 0.87404 0.0
H686 H 0.75987 0.8078 0.85891 0.0
H687 H 0.72865 0.91113 0.89683 0.0
H688 H 0.8408 0.98363 0.87905 0.0
H689 H 0.80576 0.97679 0.78539 0.0
H690 H 0.87147 0.79414 0.97929 0.0
H691 H 0.7873 0.84783 0.98163 0.0
H692 H 0.87929 0.79954 0.79378 0.0
H693 H 0.84418 0.88062 0.74766 0.0
H694 H 0.89352 0.77757 0.7427 0.0
H695 H 0.85906 0.85718 0.69728 0.0
H696 H 0.88461 0.75 0.83762 0.0
H697 H 0.80323 0.78582 0.88213 0.0
H698 H 0.86629 0.69654 0.84901 0.0
H699 H 0.78619 0.73187 0.8926 0.0
H700 H 0.97936 0.80005 0.86929 0.0
H701 H 0.97869 0.85763 0.78717 0.0
H702 H 0.72849 0.79903 0.76833 0.0
H703 H 0.80157 0.73113 0.7593 0.0
Li704 Li 0.67896 0.67964 0.67933 0.0
Li705 Li 0.66376 0.66252 0.62872 0.0
Li706 Li 0.62426 0.6627 0.66939 0.0
Li707 Li 0.66615 0.62481 0.66863 0.0
C708 C 0.64833 0.72139 0.63009 0.0
N709 N 0.65049 0.76527 0.58354 0.0
C710 C 0.67625 0.73594 0.6226 0.0
C711 C 0.62148 0.72929 0.614 0.0
C712 C 0.67687 0.75805 0.599 0.0
C713 C 0.62306 0.75147 0.59049 0.0
C714 C 0.72529 0.65273 0.63268 0.0
C715 C 0.75494 0.63429 0.58912 0.0
N716 N 0.77467 0.65866 0.59253 0.0
C717 C 0.74597 0.6775 0.63587 0.0
C718 C 0.72989 0.63082 0.60925 0.0
C719 C 0.77075 0.68012 0.6153 0.0
C720 C 0.72424 0.69207 0.72355 0.0
N721 N 0.70409 0.70593 0.70389 0.0
C722 C 0.72039 0.75615 0.72071 0.0
C723 C 0.70154 0.7373 0.7024 0.0
C724 C 0.74165 0.74257 0.74123 0.0
C725 C 0.74321 0.70999 0.74262 0.0
H726 H 0.72536 0.66702 0.7245 0.0
H727 H 0.68481 0.74772 0.68708 0.0
C728 C 0.64218 0.6581 0.56837 0.0
N729 N 0.66681 0.6688 0.58475 0.0
C730 C 0.64143 0.66082 0.53625 0.0
C731 C 0.6911 0.68642 0.53818 0.0
C732 C 0.69081 0.68332 0.57037 0.0
C733 C 0.66625 0.67487 0.52069 0.0
H734 H 0.62302 0.64729 0.58026 0.0
H735 H 0.70971 0.69265 0.58374 0.0
C736 C 0.64356 0.66402 0.73157 0.0
N737 N 0.6274 0.69201 0.78679 0.0
C738 C 0.64285 0.64674 0.75889 0.0
C739 C 0.63615 0.69558 0.73232 0.0
C740 C 0.63456 0.6613 0.78658 0.0
C741 C 0.62803 0.70929 0.76047 0.0
C742 C 0.62366 0.60154 0.6312 0.0
C743 C 0.59736 0.58884 0.64513 0.0
C744 C 0.641 0.58364 0.61058 0.0
C745 C 0.58912 0.55817 0.63852 0.0
C746 C 0.63205 0.55304 0.60465 0.0
N747 N 0.60652 0.54104 0.61865 0.0
C748 C 0.56473 0.66905 0.64921 0.0
C749 C 0.56669 0.6676 0.70399 0.0
C750 C 0.53261 0.67076 0.64983 0.0
N751 N 0.58109 0.66767 0.67598 0.0
C752 C 0.53448 0.66944 0.70571 0.0
C753 C 0.51698 0.67096 0.67834 0.0
H754 H 0.57671 0.66797 0.62727 0.0
H755 H 0.57994 0.66549 0.72501 0.0
C756 C 0.70073 0.56904 0.66662 0.0
N757 N 0.67479 0.58267 0.67789 0.0
C758 C 0.70443 0.53694 0.66867 0.0
C759 C 0.65534 0.53383 0.69521 0.0
C760 C 0.65281 0.56601 0.693 0.0
C761 C 0.68105 0.51873 0.68221 0.0
H762 H 0.71803 0.58291 0.65507 0.0
H763 H 0.63245 0.57756 0.7018 0.0
O764 O 0.64739 0.69932 0.65281 0.0
O765 O 0.70114 0.64959 0.65285 0.0
O766 O 0.65221 0.65013 0.70445 0.0
O767 O 0.63262 0.63123 0.63803 0.0
H768 H 0.69735 0.7298 0.63449 0.0
H769 H 0.59965 0.71845 0.61957 0.0
H770 H 0.69836 0.76931 0.59283 0.0
H771 H 0.60246 0.75773 0.57779 0.0
H772 H 0.75865 0.61763 0.57076 0.0
H773 H 0.7429 0.69456 0.65398 0.0
H774 H 0.71413 0.61153 0.60642 0.0
H775 H 0.78687 0.69922 0.61742 0.0
H776 H 0.71849 0.78108 0.7185 0.0
H777 H 0.75862 0.69836 0.75853 0.0
H778 H 0.62192 0.65134 0.5237 0.0
H779 H 0.71048 0.69787 0.52713 0.0
H780 H 0.64868 0.62233 0.75869 0.0
H781 H 0.6365 0.70935 0.71143 0.0
H782 H 0.63388 0.6482 0.80791 0.0
H783 H 0.62222 0.73367 0.7614 0.0
H784 H 0.58373 0.60234 0.66122 0.0
H785 H 0.66132 0.59319 0.59951 0.0
H786 H 0.56898 0.54794 0.64931 0.0
H787 H 0.64541 0.5388 0.58898 0.0
H788 H 0.52016 0.67094 0.62809 0.0
H789 H 0.52342 0.66949 0.72819 0.0
H790 H 0.72498 0.52646 0.65895 0.0
H791 H 0.6365 0.5209 0.70552 0.0
Li792 Li 0.33526 0.62131 0.66793 0.0
Li793 Li 0.32211 0.67291 0.68119 0.0
Li794 Li 0.33594 0.65933 0.62667 0.0
Li795 Li 0.37578 0.65957 0.66931 0.0
C796 C 0.27238 0.63611 0.66455 0.0
N797 N 0.21713 0.61845 0.69139 0.0
C798 C 0.27182 0.6251 0.69497 0.0
C799 C 0.24487 0.63808 0.64777 0.0
C800 C 0.24365 0.61631 0.70813 0.0
C801 C 0.21716 0.62904 0.66175 0.0
C802 C 0.35964 0.65738 0.7319 0.0
C803 C 0.38188 0.70001 0.76046 0.0
N804 N 0.37797 0.68386 0.78721 0.0
C805 C 0.35597 0.64113 0.75964 0.0
C806 C 0.37278 0.687 0.73228 0.0
C807 C 0.36533 0.65495 0.78737 0.0
C808 C 0.34146 0.56426 0.69926 0.0
N809 N 0.3274 0.57854 0.67508 0.0
C810 C 0.3082 0.53017 0.6562 0.0
C811 C 0.31028 0.5624 0.6542 0.0
C812 C 0.32358 0.51446 0.68019 0.0
C813 C 0.33969 0.53208 0.70239 0.0
H814 H 0.35505 0.57777 0.71541 0.0
H815 H 0.29958 0.57445 0.63506 0.0
C816 C 0.28429 0.72497 0.69169 0.0
N817 N 0.29605 0.69909 0.70516 0.0
C818 C 0.26549 0.74506 0.70866 0.0
C819 C 0.27076 0.71111 0.75283 0.0
C820 C 0.28932 0.69166 0.73498 0.0
C821 C 0.25872 0.73832 0.73975 0.0
H822 H 0.28973 0.7301 0.66779 0.0
H823 H 0.29818 0.67052 0.74494 0.0
C824 C 0.37712 0.59913 0.62987 0.0
N825 N 0.39318 0.53827 0.61793 0.0
C826 C 0.39882 0.58414 0.64852 0.0
C827 C 0.36376 0.58325 0.605 0.0
C828 C 0.40657 0.55333 0.64215 0.0
C829 C 0.37217 0.55248 0.59936 0.0
C830 C 0.36065 0.72363 0.64614 0.0
C831 C 0.37224 0.73051 0.61672 0.0
C832 C 0.35891 0.7471 0.66845 0.0
C833 C 0.38241 0.7606 0.61028 0.0
C834 C 0.36928 0.77691 0.6611 0.0
N835 N 0.38074 0.78298 0.63243 0.0
C836 C 0.30547 0.67963 0.57102 0.0
C837 C 0.35518 0.65709 0.56592 0.0
C838 C 0.30308 0.68266 0.53881 0.0
N839 N 0.33114 0.66665 0.58372 0.0
C840 C 0.35358 0.65925 0.53384 0.0
C841 C 0.32715 0.67176 0.51992 0.0
H842 H 0.28674 0.6871 0.58583 0.0
H843 H 0.37548 0.64733 0.57668 0.0
C844 C 0.43404 0.65076 0.69822 0.0
N845 N 0.41867 0.66674 0.67592 0.0
C846 C 0.46621 0.65272 0.70028 0.0
C847 C 0.46591 0.68835 0.65713 0.0
C848 C 0.43387 0.68547 0.65574 0.0
C849 C 0.48264 0.67124 0.67912 0.0
H850 H 0.42145 0.63547 0.71356 0.0
H851 H 0.42128 0.69727 0.63777 0.0
O852 O 0.29961 0.64506 0.65112 0.0
O853 O 0.35025 0.64416 0.70467 0.0
O854 O 0.36844 0.62894 0.63642 0.0
O855 O 0.3501 0.69436 0.65265 0.0
H856 H 0.29285 0.62337 0.70833 0.0
H857 H 0.24495 0.64657 0.62419 0.0
H858 H 0.24288 0.6078 0.73166 0.0
H859 H 0.19568 0.63047 0.64904 0.0
H860 H 0.39211 0.72293 0.76106 0.0
H861 H 0.34578 0.61818 0.75975 0.0
H862 H 0.37622 0.69965 0.71105 0.0
H863 H 0.36251 0.64269 0.80903 0.0
H864 H 0.29593 0.51768 0.63825 0.0
H865 H 0.35146 0.52112 0.72156 0.0
H866 H 0.25676 0.76587 0.69773 0.0
H867 H 0.26556 0.7047 0.7765 0.0
H868 H 0.40919 0.59599 0.66799 0.0
H869 H 0.34665 0.59438 0.59055 0.0
H870 H 0.42313 0.54135 0.65655 0.0
H871 H 0.36182 0.53982 0.58036 0.0
H872 H 0.37368 0.71274 0.59911 0.0
H873 H 0.34948 0.74249 0.69117 0.0
H874 H 0.39161 0.76616 0.58767 0.0
H875 H 0.36812 0.79524 0.67818 0.0
H876 H 0.28233 0.69238 0.52876 0.0
H877 H 0.37275 0.65097 0.51999 0.0
H878 H 0.47811 0.63874 0.7173 0.0
H879 H 0.47752 0.70321 0.64059 0.0
Li880 Li 0.33585 0.37327 0.66612 0.0
Li881 Li 0.37627 0.33361 0.66578 0.0
Li882 Li 0.33506 0.33421 0.62684 0.0
Li883 Li 0.32154 0.31913 0.67842 0.0
C884 C 0.37682 0.39317 0.62423 0.0
N885 N 0.3948 0.45165 0.60522 0.0
C886 C 0.40455 0.40596 0.63488 0.0
C887 C 0.35846 0.40988 0.60357 0.0
C888 C 0.41319 0.43562 0.62506 0.0
C889 C 0.36787 0.43948 0.59434 0.0
C890 C 0.35955 0.3344 0.72876 0.0
C891 C 0.3759 0.2894 0.75751 0.0
N892 N 0.37705 0.30687 0.78372 0.0
C893 C 0.36082 0.35188 0.75598 0.0
C894 C 0.36709 0.30287 0.72949 0.0
C895 C 0.36977 0.33755 0.78353 0.0
C896 C 0.30241 0.42996 0.66752 0.0
N897 N 0.32947 0.41593 0.67498 0.0
C898 C 0.35188 0.46447 0.68946 0.0
C899 C 0.35363 0.43228 0.68673 0.0
C900 C 0.3247 0.47994 0.6806 0.0
C901 C 0.29946 0.4621 0.67027 0.0
H902 H 0.28337 0.41632 0.65876 0.0
H903 H 0.37478 0.4204 0.69274 0.0
C904 C 0.43464 0.32321 0.64349 0.0
N905 N 0.41949 0.32808 0.67058 0.0
C906 C 0.4668 0.32247 0.64273 0.0
C907 C 0.46739 0.33158 0.69794 0.0
C908 C 0.43509 0.3322 0.69762 0.0
C909 C 0.48363 0.3272 0.67011 0.0
H910 H 0.42167 0.32107 0.62221 0.0
H911 H 0.4227 0.33718 0.71872 0.0
C912 C 0.27358 0.34789 0.63423 0.0
N913 N 0.22073 0.34532 0.59847 0.0
C914 C 0.25218 0.32393 0.63849 0.0
C915 C 0.26794 0.37074 0.61201 0.0
C916 C 0.22564 0.32299 0.62012 0.0
C917 C 0.24113 0.36897 0.59409 0.0
C918 C 0.34837 0.27497 0.62885 0.0
C919 C 0.31916 0.26379 0.62065 0.0
C920 C 0.37459 0.26326 0.61404 0.0
C921 C 0.31663 0.2413 0.59748 0.0
C922 C 0.3711 0.24079 0.59097 0.0
N923 N 0.34243 0.23038 0.58322 0.0
C924 C 0.35687 0.33226 0.56688 0.0
C925 C 0.30411 0.31763 0.56885 0.0
C926 C 0.35717 0.32912 0.53478 0.0
N927 N 0.33048 0.32715 0.58319 0.0
C928 C 0.30323 0.31464 0.53665 0.0
C929 C 0.32995 0.32075 0.51925 0.0
H930 H 0.37774 0.33912 0.57883 0.0
H931 H 0.28374 0.31231 0.58219 0.0
C932 C 0.27858 0.30896 0.72565 0.0
N933 N 0.29638 0.2943 0.7043 0.0
C934 C 0.25942 0.29186 0.74527 0.0
C935 C 0.27725 0.24491 0.72041 0.0
C936 C 0.29638 0.26291 0.70158 0.0
C937 C 0.25836 0.25933 0.74267 0.0
H938 H 0.2794 0.33399 0.72745 0.0
H939 H 0.31115 0.25182 0.68476 0.0
O940 O 0.36752 0.36454 0.63425 0.0
O941 O 0.35041 0.34811 0.70176 0.0
O942 O 0.29946 0.34941 0.65232 0.0
O943 O 0.35122 0.29744 0.65108 0.0
H944 H 0.41903 0.39331 0.65089 0.0
H945 H 0.33708 0.40015 0.59492 0.0
H946 H 0.43446 0.44594 0.63331 0.0
H947 H 0.35377 0.4528 0.57856 0.0
H948 H 0.38181 0.26505 0.75842 0.0
H949 H 0.35493 0.37628 0.75579 0.0
H950 H 0.36623 0.28893 0.7087 0.0
H951 H 0.37089 0.35081 0.80478 0.0
H952 H 0.37212 0.4771 0.69715 0.0
H953 H 0.27783 0.47287 0.66383 0.0
H954 H 0.47838 0.31884 0.6208 0.0
H955 H 0.47951 0.33586 0.71946 0.0
H956 H 0.25601 0.30621 0.65577 0.0
H957 H 0.28417 0.38951 0.60847 0.0
H958 H 0.20894 0.30452 0.62309 0.0
H959 H 0.23656 0.38638 0.57668 0.0
H960 H 0.29861 0.27272 0.63173 0.0
H961 H 0.39739 0.27132 0.62033 0.0
H962 H 0.29413 0.23263 0.59074 0.0
H963 H 0.39119 0.23159 0.57926 0.0
H964 H 0.37821 0.33421 0.52217 0.0
H965 H 0.28191 0.30769 0.52547 0.0
H966 H 0.24584 0.30402 0.76245 0.0
H967 H 0.27703 0.22001 0.7172 0.0
Li968 Li 0.62531 0.341 0.66273 0.0
Li969 Li 0.67742 0.32318 0.67637 0.0
Li970 Li 0.66688 0.37841 0.66443 0.0
Li971 Li 0.66797 0.34002 0.62253 0.0
C972 C 0.63131 0.35073 0.72395 0.0
N973 N 0.59146 0.34564 0.77368 0.0
C974 C 0.63413 0.32598 0.74462 0.0
C975 C 0.60837 0.37302 0.7287 0.0
C976 C 0.61373 0.3238 0.76961 0.0
C977 C 0.58839 0.36998 0.75392 0.0
C978 C 0.64622 0.27384 0.64221 0.0
C979 C 0.66311 0.22591 0.61889 0.0
N980 N 0.64119 0.21028 0.63523 0.0
C981 C 0.62362 0.25734 0.65849 0.0
C982 C 0.66594 0.25806 0.622 0.0
C983 C 0.62155 0.22521 0.65476 0.0
C984 C 0.5644 0.34842 0.64448 0.0
N985 N 0.58176 0.33516 0.66704 0.0
C986 C 0.53628 0.31586 0.69206 0.0
C987 C 0.56843 0.31877 0.69044 0.0
C988 C 0.51782 0.32956 0.66913 0.0
C989 C 0.53232 0.34599 0.64511 0.0
H990 H 0.57548 0.36094 0.62588 0.0
H991 H 0.58266 0.30784 0.70778 0.0
C992 C 0.72765 0.30898 0.71414 0.0
N993 N 0.70152 0.2965 0.70185 0.0
C994 C 0.74673 0.29121 0.73315 0.0
C995 C 0.71145 0.24812 0.72685 0.0
C996 C 0.69306 0.26674 0.70799 0.0
C997 C 0.73873 0.26029 0.7397 0.0
H998 H 0.73362 0.33284 0.70919 0.0
H999 H 0.67198 0.25743 0.69853 0.0
C1000 C 0.62958 0.40167 0.62177 0.0
N1001 N 0.6178 0.46227 0.60471 0.0
C1002 C 0.64258 0.41379 0.59473 0.0
C1003 C 0.61022 0.42021 0.63988 0.0
C1004 C 0.6364 0.44452 0.58654 0.0
C1005 C 0.60469 0.45085 0.63096 0.0
C1006 C 0.73045 0.34358 0.63951 0.0
C1007 C 0.75318 0.36566 0.63283 0.0
C1008 C 0.73672 0.31212 0.63509 0.0
C1009 C 0.78181 0.35585 0.62156 0.0
C1010 C 0.76563 0.30323 0.62382 0.0
N1011 N 0.78738 0.3251 0.61731 0.0
C1012 C 0.66664 0.43384 0.69998 0.0
C1013 C 0.69087 0.43731 0.65091 0.0
C1014 C 0.66928 0.46586 0.70414 0.0
N1015 N 0.67659 0.42046 0.6733 0.0
C1016 C 0.69363 0.46941 0.65389 0.0
C1017 C 0.68207 0.48426 0.68048 0.0
H1018 H 0.65572 0.41982 0.71758 0.0
H1019 H 0.69861 0.42597 0.62996 0.0
C1020 C 0.65521 0.31544 0.56406 0.0
N1021 N 0.67573 0.33338 0.57981 0.0
C1022 C 0.65747 0.31239 0.53198 0.0
C1023 C 0.70227 0.34598 0.53298 0.0
C1024 C 0.69915 0.34835 0.56507 0.0
C1025 C 0.68092 0.32824 0.51593 0.0
H1026 H 0.63643 0.30434 0.57635 0.0
H1027 H 0.71471 0.36307 0.57801 0.0
O1028 O 0.65116 0.35331 0.69944 0.0
O1029 O 0.64835 0.30537 0.64537 0.0
O1030 O 0.63606 0.37192 0.63064 0.0
O1031 O 0.70228 0.3529 0.6504 0.0
H1032 H 0.65182 0.30861 0.74142 0.0
H1033 H 0.60583 0.3923 0.71293 0.0
H1034 H 0.61559 0.30473 0.78575 0.0
H1035 H 0.57042 0.38696 0.75776 0.0
H1036 H 0.67828 0.21341 0.6034 0.0
H1037 H 0.6081 0.26915 0.67411 0.0
H1038 H 0.68309 0.27046 0.60863 0.0
H1039 H 0.60432 0.21213 0.66741 0.0
H1040 H 0.52602 0.3027 0.71079 0.0
H1041 H 0.519 0.35726 0.62715 0.0
H1042 H 0.76726 0.30172 0.74295 0.0
H1043 H 0.7045 0.22435 0.73108 0.0
H1044 H 0.65755 0.39975 0.58041 0.0
H1045 H 0.59986 0.41113 0.66078 0.0
H1046 H 0.64649 0.45428 0.56581 0.0
H1047 H 0.59002 0.46556 0.64492 0.0
H1048 H 0.74869 0.39013 0.63621 0.0
H1049 H 0.71957 0.29475 0.64054 0.0
H1050 H 0.79959 0.37269 0.61618 0.0
H1051 H 0.77079 0.27893 0.6203 0.0
H1052 H 0.66066 0.47615 0.72531 0.0
H1053 H 0.70327 0.4825 0.63481 0.0
H1054 H 0.64015 0.29896 0.51977 0.0
H1055 H 0.72077 0.35848 0.52156 0.0
Li1056 Li 0.66666 0.37709 0.33519 0.0
Li1057 Li 0.66718 0.3364 0.37508 0.0
Li1058 Li 0.67788 0.3241 0.32014 0.0
Li1059 Li 0.62583 0.3364 0.33666 0.0
C1060 C 0.73028 0.36354 0.34406 0.0
N1061 N 0.7881 0.38915 0.3345 0.0
C1062 C 0.74765 0.37435 0.36914 0.0
C1063 C 0.74255 0.36527 0.3142 0.0
C1064 C 0.77675 0.38738 0.36381 0.0
C1065 C 0.77176 0.37841 0.30982 0.0
C1066 C 0.61395 0.36932 0.3908 0.0
C1067 C 0.58053 0.34265 0.42672 0.0
N1068 N 0.56953 0.37045 0.43671 0.0
C1069 C 0.60234 0.39761 0.40141 0.0
C1070 C 0.60299 0.34159 0.40352 0.0
C1071 C 0.57987 0.3977 0.42465 0.0
C1072 C 0.6566 0.43583 0.30809 0.0
N1073 N 0.67346 0.42015 0.32948 0.0
C1074 C 0.69495 0.46745 0.34868 0.0
C1075 C 0.69249 0.4352 0.3495 0.0
C1076 C 0.67719 0.48443 0.32742 0.0
C1077 C 0.65826 0.46815 0.30651 0.0
H1078 H 0.64086 0.42335 0.29313 0.0
H1079 H 0.70477 0.4223 0.36699 0.0
C1080 C 0.67154 0.3033 0.43222 0.0
N1081 N 0.67602 0.33082 0.41756 0.0
C1082 C 0.67416 0.30156 0.46443 0.0
C1083 C 0.6867 0.35626 0.46547 0.0
C1084 C 0.68378 0.35694 0.43336 0.0
C1085 C 0.68135 0.32842 0.48153 0.0
H1086 H 0.66488 0.28303 0.41904 0.0
H1087 H 0.68648 0.37861 0.42103 0.0
C1088 C 0.64974 0.35865 0.26972 0.0
N1089 N 0.65274 0.36913 0.20671 0.0
C1090 C 0.62648 0.34739 0.25024 0.0
C1091 C 0.6742 0.37575 0.25721 0.0
C1092 C 0.62851 0.35278 0.21843 0.0
C1093 C 0.67539 0.38067 0.22528 0.0
C1094 C 0.64232 0.27312 0.33697 0.0
C1095 C 0.63033 0.27307 0.30695 0.0
C1096 C 0.6454 0.24513 0.35294 0.0
C1097 C 0.62151 0.24499 0.2934 0.0
C1098 C 0.63629 0.21751 0.33861 0.0
N1099 N 0.62464 0.21802 0.30938 0.0
C1100 C 0.72805 0.28592 0.30665 0.0
C1101 C 0.69403 0.29202 0.26414 0.0
C1102 C 0.74696 0.26632 0.2893 0.0
N1103 N 0.70224 0.2984 0.29385 0.0
C1104 C 0.71233 0.27263 0.2459 0.0
C1105 C 0.73917 0.25944 0.25848 0.0
H1106 H 0.73389 0.29122 0.33042 0.0
H1107 H 0.67306 0.30151 0.25463 0.0
C1108 C 0.56703 0.35604 0.32068 0.0
N1109 N 0.58259 0.33096 0.33144 0.0
C1110 C 0.53486 0.35556 0.31884 0.0
C1111 C 0.53534 0.30302 0.33832 0.0
C1112 C 0.5675 0.30472 0.34027 0.0
C1113 C 0.51846 0.32885 0.3279 0.0
H1114 H 0.57968 0.37679 0.31443 0.0
H1115 H 0.58027 0.28535 0.34954 0.0
O1116 O 0.70181 0.35057 0.34899 0.0
O1117 O 0.63582 0.3689 0.36795 0.0
O1118 O 0.64802 0.35355 0.30092 0.0
O1119 O 0.65154 0.30029 0.35057 0.0
H1120 H 0.73867 0.37283 0.39246 0.0
H1121 H 0.72988 0.35623 0.29463 0.0
H1122 H 0.79035 0.39604 0.38299 0.0
H1123 H 0.7815 0.37994 0.2868 0.0
H1124 H 0.57183 0.32137 0.43676 0.0
H1125 H 0.61059 0.41927 0.39174 0.0
H1126 H 0.61169 0.31947 0.39555 0.0
H1127 H 0.57065 0.41943 0.43308 0.0
H1128 H 0.70995 0.47901 0.36513 0.0
H1129 H 0.64369 0.4803 0.29018 0.0
H1130 H 0.66999 0.27961 0.47587 0.0
H1131 H 0.69165 0.37766 0.47767 0.0
H1132 H 0.60708 0.33456 0.2596 0.0
H1133 H 0.69183 0.38552 0.272 0.0
H1134 H 0.61078 0.34403 0.20307 0.0
H1135 H 0.69424 0.3938 0.21529 0.0
H1136 H 0.6278 0.29447 0.29428 0.0
H1137 H 0.65479 0.24473 0.37615 0.0
H1138 H 0.61218 0.24465 0.27018 0.0
H1139 H 0.63854 0.19567 0.3507 0.0
H1140 H 0.76759 0.25685 0.29982 0.0
H1141 H 0.70521 0.2675 0.22241 0.0
H1142 H 0.52302 0.37634 0.31138 0.0
H1143 H 0.52388 0.2818 0.34526 0.0
Li1144 Li 0.66071 0.66606 0.37892 0.0
Li1145 Li 0.66132 0.62536 0.33826 0.0
Li1146 Li 0.67325 0.68001 0.32583 0.0
Li1147 Li 0.62087 0.66459 0.33755 0.0
C1148 C 0.72503 0.65178 0.36503 0.0
N1149 N 0.78417 0.65259 0.38914 0.0
C1150 C 0.73877 0.62427 0.37512 0.0
C1151 C 0.74151 0.67966 0.36694 0.0
C1152 C 0.76865 0.62518 0.38732 0.0
C1153 C 0.77134 0.6796 0.37926 0.0
C1154 C 0.60637 0.61205 0.37126 0.0
C1155 C 0.5725 0.57561 0.34579 0.0
N1156 N 0.5586 0.56951 0.37337 0.0
C1157 C 0.59175 0.60549 0.39933 0.0
C1158 C 0.59669 0.59706 0.34423 0.0
C1159 C 0.56764 0.58387 0.39992 0.0
C1160 C 0.63959 0.6808 0.43753 0.0
N1161 N 0.66574 0.6726 0.4222 0.0
C1162 C 0.69354 0.66888 0.46984 0.0
C1163 C 0.69257 0.66706 0.43759 0.0
C1164 C 0.66658 0.6762 0.48637 0.0
C1165 C 0.63947 0.68277 0.46977 0.0
H1166 H 0.61854 0.6849 0.42466 0.0
H1167 H 0.71302 0.66025 0.42516 0.0
C1168 C 0.67106 0.56914 0.30443 0.0
N1169 N 0.66979 0.58276 0.33278 0.0
C1170 C 0.67433 0.53695 0.30197 0.0
C1171 C 0.67542 0.53383 0.35786 0.0
C1172 C 0.67212 0.56593 0.35921 0.0
C1173 C 0.67624 0.51884 0.32897 0.0
H1174 H 0.66882 0.58316 0.28383 0.0
H1175 H 0.67054 0.57747 0.3814 0.0
C1176 C 0.65002 0.73101 0.36078 0.0
N1177 N 0.66325 0.7924 0.37363 0.0
C1178 C 0.63065 0.75447 0.34987 0.0
C1179 C 0.6758 0.73871 0.37867 0.0
C1180 C 0.63782 0.78539 0.35648 0.0
C1181 C 0.68218 0.7699 0.3848 0.0
C1182 C 0.63808 0.66378 0.2748 0.0
C1183 C 0.62498 0.69339 0.27502 0.0
C1184 C 0.64284 0.64855 0.24665 0.0
C1185 C 0.61681 0.70727 0.24701 0.0
C1186 C 0.63434 0.6632 0.21912 0.0
N1187 N 0.62162 0.69202 0.21987 0.0
C1188 C 0.72657 0.69363 0.29168 0.0
C1189 C 0.68957 0.73401 0.291 0.0
C1190 C 0.74655 0.71097 0.27313 0.0
N1191 N 0.69889 0.70549 0.30054 0.0
C1192 C 0.70861 0.75198 0.27203 0.0
C1193 C 0.73766 0.7406 0.26293 0.0
H1194 H 0.73321 0.67066 0.29916 0.0
H1195 H 0.66717 0.74269 0.29766 0.0
C1196 C 0.56193 0.68305 0.35532 0.0
N1197 N 0.57772 0.67005 0.33147 0.0
C1198 C 0.52978 0.68514 0.35428 0.0
C1199 C 0.5308 0.66119 0.30368 0.0
C1200 C 0.56292 0.65913 0.30593 0.0
C1201 C 0.51366 0.67393 0.32827 0.0
H1202 H 0.57434 0.69093 0.37561 0.0
H1203 H 0.57591 0.64817 0.28758 0.0
O1204 O 0.69579 0.65121 0.35301 0.0
O1205 O 0.62969 0.63349 0.37023 0.0
O1206 O 0.64323 0.70066 0.35449 0.0
O1207 O 0.64667 0.64983 0.30189 0.0
H1208 H 0.72645 0.60247 0.37365 0.0
H1209 H 0.73152 0.70111 0.35882 0.0
H1210 H 0.7795 0.60409 0.39533 0.0
H1211 H 0.78432 0.70101 0.38091 0.0
H1212 H 0.56473 0.56387 0.32505 0.0
H1213 H 0.59892 0.61704 0.42041 0.0
H1214 H 0.60757 0.60209 0.32225 0.0
H1215 H 0.55609 0.57855 0.42149 0.0
H1216 H 0.71483 0.66327 0.48172 0.0
H1217 H 0.61825 0.68884 0.48159 0.0
H1218 H 0.675 0.52634 0.27925 0.0
H1219 H 0.67614 0.52083 0.37927 0.0
H1220 H 0.61038 0.74883 0.33628 0.0
H1221 H 0.69058 0.72084 0.38793 0.0
H1222 H 0.62316 0.8038 0.348 0.0
H1223 H 0.70213 0.7762 0.39853 0.0
H1224 H 0.62112 0.70553 0.29655 0.0
H1225 H 0.65305 0.62566 0.24606 0.0
H1226 H 0.60666 0.73018 0.24686 0.0
H1227 H 0.6379 0.65169 0.19715 0.0
H1228 H 0.76881 0.70127 0.26712 0.0
H1229 H 0.70034 0.77431 0.2642 0.0
H1230 H 0.51771 0.69446 0.37415 0.0
H1231 H 0.51957 0.65253 0.28301 0.0
Li1232 Li 0.33129 0.66761 0.37832 0.0
Li1233 Li 0.33035 0.627 0.33654 0.0
Li1234 Li 0.37198 0.66683 0.33613 0.0
Li1235 Li 0.32073 0.67878 0.32373 0.0
C1236 C 0.38926 0.62435 0.37858 0.0
N1237 N 0.44671 0.60407 0.39745 0.0
C1238 C 0.40157 0.597 0.36639 0.0
C1239 C 0.40601 0.6413 0.40049 0.0
C1240 C 0.43069 0.58715 0.37622 0.0
C1241 C 0.43507 0.63069 0.40968 0.0
C1242 C 0.27227 0.63294 0.35626 0.0
C1243 C 0.23486 0.59761 0.33444 0.0
N1244 N 0.22525 0.59009 0.36345 0.0
C1245 C 0.2618 0.62512 0.38586 0.0
C1246 C 0.25851 0.61933 0.33031 0.0
C1247 C 0.23808 0.60332 0.38901 0.0
C1248 C 0.31944 0.6986 0.43684 0.0
N1249 N 0.32572 0.67165 0.42166 0.0
C1250 C 0.33026 0.6443 0.4694 0.0
C1251 C 0.33056 0.64474 0.43722 0.0
C1252 C 0.32463 0.67178 0.4858 0.0
C1253 C 0.31849 0.69912 0.46927 0.0
H1254 H 0.31596 0.71975 0.42392 0.0
H1255 H 0.33533 0.62365 0.42454 0.0
C1256 C 0.32937 0.56865 0.30525 0.0
N1257 N 0.32321 0.58389 0.33209 0.0
C1258 C 0.32804 0.53622 0.30425 0.0
C1259 C 0.31263 0.53625 0.35804 0.0
C1260 C 0.31482 0.56846 0.35814 0.0
C1261 C 0.32024 0.51954 0.33114 0.0
H1262 H 0.3366 0.58156 0.28504 0.0
H1263 H 0.31081 0.58117 0.37934 0.0
C1264 C 0.33968 0.73189 0.34749 0.0
N1265 N 0.32012 0.79139 0.33441 0.0
C1266 C 0.35862 0.75194 0.33053 0.0
C1267 C 0.3109 0.74213 0.35798 0.0
C1268 C 0.34829 0.78195 0.32414 0.0
C1269 C 0.30139 0.77228 0.35105 0.0
C1270 C 0.34509 0.65695 0.27106 0.0
C1271 C 0.36762 0.6748 0.25619 0.0
C1272 C 0.31922 0.64674 0.25457 0.0
C1273 C 0.36356 0.68269 0.2251 0.0
C1274 C 0.31596 0.65519 0.22354 0.0
N1275 N 0.338 0.67286 0.20958 0.0
C1276 C 0.43056 0.649 0.31514 0.0
C1277 C 0.43015 0.69613 0.34343 0.0
C1278 C 0.46277 0.64956 0.31368 0.0
N1279 N 0.41508 0.67181 0.33026 0.0
C1280 C 0.46235 0.6979 0.34211 0.0
C1281 C 0.47922 0.67408 0.32759 0.0
H1282 H 0.41789 0.62973 0.30526 0.0
H1283 H 0.41721 0.71371 0.3557 0.0
C1284 C 0.26463 0.70229 0.30009 0.0
N1285 N 0.29586 0.7044 0.29743 0.0
C1286 C 0.24549 0.72039 0.28146 0.0
C1287 C 0.29097 0.74274 0.2578 0.0
C1288 C 0.30921 0.72426 0.27693 0.0
C1289 C 0.25863 0.74091 0.25988 0.0
H1290 H 0.25454 0.6867 0.31685 0.0
H1291 H 0.33406 0.72582 0.27542 0.0
O1292 O 0.36128 0.63494 0.36849 0.0
O1293 O 0.29568 0.65402 0.3527 0.0
O1294 O 0.34916 0.7023 0.3536 0.0
O1295 O 0.34869 0.64902 0.30146 0.0
H1296 H 0.38893 0.58373 0.34928 0.0
H1297 H 0.39681 0.66263 0.40997 0.0
H1298 H 0.44061 0.56612 0.36688 0.0
H1299 H 0.44841 0.64367 0.42647 0.0
H1300 H 0.22416 0.58673 0.31456 0.0
H1301 H 0.27192 0.6357 0.40617 0.0
H1302 H 0.26615 0.62534 0.30726 0.0
H1303 H 0.22986 0.59691 0.41178 0.0
H1304 H 0.33483 0.62273 0.48141 0.0
H1305 H 0.31424 0.72076 0.48127 0.0
H1306 H 0.33451 0.5244 0.2831 0.0
H1307 H 0.30592 0.52456 0.37918 0.0
H1308 H 0.38087 0.74429 0.32206 0.0
H1309 H 0.29584 0.72674 0.37084 0.0
H1310 H 0.36262 0.79767 0.31089 0.0
H1311 H 0.27906 0.78044 0.35878 0.0
H1312 H 0.38786 0.68274 0.26861 0.0
H1313 H 0.30179 0.63258 0.26565 0.0
H1314 H 0.38068 0.6967 0.21334 0.0
H1315 H 0.29594 0.64767 0.21054 0.0
H1316 H 0.47457 0.63032 0.30278 0.0
H1317 H 0.47386 0.7175 0.35276 0.0
H1318 H 0.22069 0.71861 0.28425 0.0
H1319 H 0.30212 0.75801 0.24132 0.0
Li1320 Li 0.33748 0.37822 0.33863 0.0
Li1321 Li 0.33781 0.33521 0.3783 0.0
Li1322 Li 0.37693 0.33804 0.33774 0.0
Li1323 Li 0.32532 0.32339 0.32451 0.0
C1324 C 0.3966 0.38049 0.37734 0.0
N1325 N 0.4556 0.4024 0.38848 0.0
C1326 C 0.41319 0.36994 0.40298 0.0
C1327 C 0.4099 0.40236 0.35749 0.0
C1328 C 0.44302 0.38126 0.40818 0.0
C1329 C 0.43978 0.41311 0.36349 0.0
C1330 C 0.27423 0.35547 0.36516 0.0
C1331 C 0.22443 0.33531 0.38037 0.0
N1332 N 0.21625 0.36399 0.39061 0.0
C1333 C 0.26521 0.38479 0.37561 0.0
C1334 C 0.25359 0.33055 0.36735 0.0
C1335 C 0.23585 0.3886 0.38849 0.0
C1336 C 0.31854 0.43434 0.308 0.0
N1337 N 0.3296 0.4211 0.33429 0.0
C1338 C 0.33374 0.47046 0.3589 0.0
C1339 C 0.33688 0.43838 0.35953 0.0
C1340 C 0.32252 0.48511 0.33213 0.0
C1341 C 0.31471 0.46657 0.30643 0.0
H1342 H 0.31295 0.41994 0.28825 0.0
H1343 H 0.34558 0.4272 0.38013 0.0
C1344 C 0.35375 0.31015 0.43574 0.0
N1345 N 0.33156 0.32693 0.42116 0.0
C1346 C 0.35311 0.30674 0.46788 0.0
C1347 C 0.30586 0.33651 0.46918 0.0
C1348 C 0.30767 0.33972 0.43711 0.0
C1349 C 0.32918 0.3205 0.485 0.0
H1350 H 0.37261 0.30043 0.42249 0.0
H1351 H 0.29066 0.3535 0.42531 0.0
C1352 C 0.36076 0.34171 0.27427 0.0
N1353 N 0.37694 0.3164 0.21779 0.0
C1354 C 0.37473 0.31254 0.27289 0.0
C1355 C 0.35502 0.35802 0.24696 0.0
C1356 C 0.38273 0.30014 0.24411 0.0
C1357 C 0.36338 0.34483 0.21862 0.0
C1358 C 0.34498 0.27164 0.35889 0.0
C1359 C 0.36299 0.24638 0.34973 0.0
C1360 C 0.3172 0.26655 0.37455 0.0
C1361 C 0.35267 0.21633 0.35611 0.0
C1362 C 0.30768 0.23615 0.38053 0.0
N1363 N 0.32545 0.21188 0.37124 0.0
C1364 C 0.43541 0.31473 0.3523 0.0
C1365 C 0.43507 0.34719 0.30807 0.0
C1366 C 0.46756 0.3128 0.35127 0.0
N1367 N 0.41999 0.33213 0.33121 0.0
C1368 C 0.46719 0.34545 0.30582 0.0
C1369 C 0.48402 0.3286 0.328 0.0
H1370 H 0.42275 0.30344 0.37074 0.0
H1371 H 0.42226 0.3613 0.29189 0.0
C1372 C 0.27118 0.30865 0.2914 0.0
N1373 N 0.29995 0.29837 0.29853 0.0
C1374 C 0.25162 0.29071 0.27291 0.0
C1375 C 0.29217 0.25253 0.26838 0.0
C1376 C 0.31072 0.27097 0.28736 0.0
C1377 C 0.26201 0.26215 0.26107 0.0
H1378 H 0.26333 0.33073 0.30025 0.0
H1379 H 0.33382 0.26345 0.29296 0.0
O1380 O 0.36778 0.36892 0.37122 0.0
O1381 O 0.3029 0.3514 0.35242 0.0
O1382 O 0.35246 0.35429 0.30213 0.0
O1383 O 0.35471 0.30114 0.35248 0.0
H1384 H 0.40326 0.35297 0.41852 0.0
H1385 H 0.39747 0.41054 0.33737 0.0
H1386 H 0.45621 0.37316 0.42783 0.0
H1387 H 0.45047 0.42984 0.34819 0.0
H1388 H 0.20827 0.31622 0.38225 0.0
H1389 H 0.28079 0.40436 0.37404 0.0
H1390 H 0.25987 0.3078 0.3589 0.0
H1391 H 0.22865 0.41113 0.39683 0.0
H1392 H 0.3408 0.48363 0.37905 0.0
H1393 H 0.30576 0.47679 0.2854 0.0
H1394 H 0.37147 0.29414 0.47929 0.0
H1395 H 0.2873 0.34783 0.48163 0.0
H1396 H 0.37929 0.29954 0.29378 0.0
H1397 H 0.34418 0.38062 0.24766 0.0
H1398 H 0.39352 0.27757 0.2427 0.0
H1399 H 0.35906 0.35718 0.19728 0.0
H1400 H 0.38461 0.25 0.33762 0.0
H1401 H 0.30323 0.28582 0.38213 0.0
H1402 H 0.36629 0.19654 0.34902 0.0
H1403 H 0.28619 0.23187 0.3926 0.0
H1404 H 0.47936 0.30005 0.36929 0.0
H1405 H 0.47869 0.35763 0.28717 0.0
H1406 H 0.22849 0.29903 0.26833 0.0
H1407 H 0.30157 0.23113 0.2593 0.0
loop_
_geom_bond_atom_site_label_1
_geom_bond_atom_site_label_2
_geom_bond_distance
_geom_bond_site_symmetry_2
_ccdc_geom_bond_type
Li0 N17 1.990 . S
Li0 O60 1.956 . S
Li0 O61 1.970 . S
Li0 O62 1.961 . S
Li1 N25 1.990 . S
Li1 O60 1.970 . S
Li1 O61 1.956 . S
Li1 O63 1.961 . S
Li2 N47 1.990 . S
Li2 O60 1.961 . S
Li2 O62 1.956 . S
Li2 O63 1.970 . S
Li3 N53 1.990 . S
Li3 O61 1.961 . S
Li3 O62 1.970 . S
Li3 O63 1.956 . S
C4 C6 1.348 . S
C4 C7 1.356 . S
C4 O60 1.325 . S
N5 C8 1.314 . S
N5 C9 1.279 . S
C6 C4 1.348 . S
C6 C8 1.353 . S
C6 H64 0.929 . S
C7 C4 1.356 . S
C7 C9 1.358 . S
C7 H65 0.930 . S
C8 N5 1.314 . S
C8 C6 1.353 . S
C8 H66 0.930 . S
C9 N5 1.279 . S
C9 C7 1.358 . S
C9 H67 0.930 . S
C10 C13 1.348 . S
C10 C14 1.356 . S
C10 O61 1.325 . S
C11 N12 1.279 . S
C11 C14 1.358 . S
C11 H68 0.930 . S
N12 C11 1.279 . S
N12 C15 1.314 . S
C13 C10 1.348 . S
C13 C15 1.353 . S
C13 H69 0.929 . S
C14 C10 1.356 . S
C14 C11 1.358 . S
C14 H70 0.930 . S
C15 N12 1.314 . S
C15 C13 1.353 . S
C15 H71 0.930 . S
C16 N17 1.314 . S
C16 C21 1.353 . S
C16 H22 0.930 . S
N17 Li0 1.990 . S
N17 C16 1.314 . S
N17 C19 1.279 . S
C18 C19 1.358 . S
C18 C20 1.356 . S
C18 H72 0.930 . S
C19 N17 1.279 . S
C19 C18 1.358 . S
C19 H23 0.930 . S
C20 C18 1.356 . S
C20 C21 1.348 . S
C21 C16 1.353 . S
C21 C20 1.348 . S
C21 H73 0.929 . S
H22 C16 0.930 . S
H23 C19 0.930 . S
C24 N25 1.314 . S
C24 C26 1.353 . S
C24 H30 0.930 . S
N25 Li1 1.990 . S
N25 C24 1.314 . S
N25 C28 1.279 . S
C26 C24 1.353 . S
C26 C29 1.348 . S
C26 H74 0.929 . S
C27 C28 1.358 . S
C27 C29 1.356 . S
C27 H75 0.930 . S
C28 N25 1.279 . S
C28 C27 1.358 . S
C28 H31 0.930 . S
C29 C26 1.348 . S
C29 C27 1.356 . S
H30 C24 0.930 . S
H31 C28 0.930 . S
C32 C34 1.348 . S
C32 C35 1.356 . S
C32 O62 1.325 . S
N33 C36 1.314 . S
N33 C37 1.279 . S
C34 C32 1.348 . S
C34 C36 1.353 . S
C34 H76 0.929 . S
C35 C32 1.356 . S
C35 C37 1.358 . S
C35 H77 0.930 . S
C36 N33 1.314 . S
C36 C34 1.353 . S
C36 H78 0.930 . S
C37 N33 1.279 . S
C37 C35 1.358 . S
C37 H79 0.930 . S
C38 C39 1.348 . S
C38 C40 1.356 . S
C38 O63 1.325 . S
C39 C38 1.348 . S
C39 C41 1.353 . S
C39 H80 0.929 . S
C40 C38 1.356 . S
C40 C42 1.358 . S
C40 H81 0.930 . S
C41 C39 1.353 . S
C41 N43 1.314 . S
C41 H82 0.930 . S
C42 C40 1.358 . S
C42 N43 1.279 . S
C42 H83 0.930 . S
N43 C41 1.314 . S
N43 C42 1.279 . S
C44 C46 1.353 . S
C44 N47 1.314 . S
C44 H50 0.930 . S
C45 N47 1.279 . S
C45 C48 1.358 . S
C45 H51 0.930 . S
C46 C44 1.353 . S
C46 C49 1.348 . S
C46 H84 0.929 . S
N47 Li2 1.990 . S
N47 C44 1.314 . S
N47 C45 1.279 . S
C48 C45 1.358 . S
C48 C49 1.356 . S
C48 H85 0.930 . S
C49 C46 1.348 . S
C49 C48 1.356 . S
H50 C44 0.930 . S
H51 C45 0.930 . S
C52 N53 1.314 . S
C52 C54 1.353 . S
C52 H58 0.930 . S
N53 Li3 1.990 . S
N53 C52 1.314 . S
N53 C56 1.279 . S
C54 C52 1.353 . S
C54 C57 1.348 . S
C54 H86 0.929 . S
C55 C56 1.358 . S
C55 C57 1.356 . S
C55 H87 0.930 . S
C56 N53 1.279 . S
C56 C55 1.358 . S
C56 H59 0.930 . S
C57 C54 1.348 . S
C57 C55 1.356 . S
H58 C52 0.930 . S
H59 C56 0.930 . S
O60 Li0 1.956 . S
O60 Li1 1.970 . S
O60 Li2 1.961 . S
O60 C4 1.325 . S
O61 Li0 1.970 . S
O61 Li1 1.956 . S
O61 Li3 1.961 . S
O61 C10 1.325 . S
O62 Li0 1.961 . S
O62 Li2 1.956 . S
O62 Li3 1.970 . S
O62 C32 1.325 . S
O63 Li1 1.961 . S
O63 Li2 1.970 . S
O63 Li3 1.956 . S
O63 C38 1.325 . S
H64 C6 0.929 . S
H65 C7 0.930 . S
H66 C8 0.930 . S
H67 C9 0.930 . S
H68 C11 0.930 . S
H69 C13 0.929 . S
H70 C14 0.930 . S
H71 C15 0.930 . S
H72 C18 0.930 . S
H73 C21 0.929 . S
H74 C26 0.929 . S
H75 C27 0.930 . S
H76 C34 0.929 . S
H77 C35 0.930 . S
H78 C36 0.930 . S
H79 C37 0.930 . S
H80 C39 0.929 . S
H81 C40 0.930 . S
H82 C41 0.930 . S
H83 C42 0.930 . S
H84 C46 0.929 . S
H85 C48 0.930 . S
H86 C54 0.929 . S
H87 C55 0.930 . S
Li88 N105 1.990 . S
Li88 O148 1.956 . S
Li88 O149 1.970 . S
Li88 O150 1.961 . S
Li89 N113 1.990 . S
Li89 O148 1.970 . S
Li89 O149 1.956 . S
Li89 O151 1.961 . S
Li90 N135 1.990 . S
Li90 O148 1.961 . S
Li90 O150 1.956 . S
Li90 O151 1.970 . S
Li91 N141 1.990 . S
Li91 O149 1.961 . S
Li91 O150 1.970 . S
Li91 O151 1.956 . S
C92 C94 1.348 . S
C92 C95 1.356 . S
C92 O148 1.325 . S
N93 C96 1.314 . S
N93 C97 1.279 . S
C94 C92 1.348 . S
C94 C96 1.353 . S
C94 H152 0.929 . S
C95 C92 1.356 . S
C95 C97 1.358 . S
C95 H153 0.930 . S
C96 N93 1.314 . S
C96 C94 1.353 . S
C96 H154 0.930 . S
C97 N93 1.279 . S
C97 C95 1.358 . S
C97 H155 0.930 . S
C98 C101 1.348 . S
C98 C102 1.356 . S
C98 O149 1.325 . S
C99 N100 1.279 . S
C99 C102 1.358 . S
C99 H156 0.930 . S
N100 C99 1.279 . S
N100 C103 1.314 . S
C101 C98 1.348 . S
C101 C103 1.353 . S
C101 H157 0.929 . S
C102 C98 1.356 . S
C102 C99 1.358 . S
C102 H158 0.930 . S
C103 N100 1.314 . S
C103 C101 1.353 . S
C103 H159 0.930 . S
C104 N105 1.314 . S
C104 C109 1.353 . S
C104 H110 0.930 . S
N105 Li88 1.990 . S
N105 C104 1.314 . S
N105 C107 1.279 . S
C106 C107 1.358 . S
C106 C108 1.356 . S
C106 H160 0.930 . S
C107 N105 1.279 . S
C107 C106 1.358 . S
C107 H111 0.930 . S
C108 C106 1.356 . S
C108 C109 1.348 . S
C109 C104 1.353 . S
C109 C108 1.348 . S
C109 H161 0.929 . S
H110 C104 0.930 . S
H111 C107 0.930 . S
C112 N113 1.314 . S
C112 C114 1.353 . S
C112 H118 0.930 . S
N113 Li89 1.990 . S
N113 C112 1.314 . S
N113 C116 1.279 . S
C114 C112 1.353 . S
C114 C117 1.348 . S
C114 H162 0.929 . S
C115 C116 1.358 . S
C115 C117 1.356 . S
C115 H163 0.930 . S
C116 N113 1.279 . S
C116 C115 1.358 . S
C116 H119 0.930 . S
C117 C114 1.348 . S
C117 C115 1.356 . S
H118 C112 0.930 . S
H119 C116 0.930 . S
C120 C122 1.348 . S
C120 C123 1.356 . S
C120 O150 1.325 . S
N121 C124 1.314 . S
N121 C125 1.279 . S
C122 C120 1.348 . S
C122 C124 1.353 . S
C122 H164 0.929 . S
C123 C120 1.356 . S
C123 C125 1.358 . S
C123 H165 0.930 . S
C124 N121 1.314 . S
C124 C122 1.353 . S
C124 H166 0.930 . S
C125 N121 1.279 . S
C125 C123 1.358 . S
C125 H167 0.930 . S
C126 C127 1.348 . S
C126 C128 1.356 . S
C126 O151 1.325 . S
C127 C126 1.348 . S
C127 C129 1.353 . S
C127 H168 0.929 . S
C128 C126 1.356 . S
C128 C130 1.358 . S
C128 H169 0.930 . S
C129 C127 1.353 . S
C129 N131 1.314 . S
C129 H170 0.930 . S
C130 C128 1.358 . S
C130 N131 1.279 . S
C130 H171 0.930 . S
N131 C129 1.314 . S
N131 C130 1.279 . S
C132 C134 1.353 . S
C132 N135 1.314 . S
C132 H138 0.930 . S
C133 N135 1.279 . S
C133 C136 1.358 . S
C133 H139 0.930 . S
C134 C132 1.353 . S
C134 C137 1.348 . S
C134 H172 0.929 . S
N135 Li90 1.990 . S
N135 C132 1.314 . S
N135 C133 1.279 . S
C136 C133 1.358 . S
C136 C137 1.356 . S
C136 H173 0.930 . S
C137 C134 1.348 . S
C137 C136 1.356 . S
H138 C132 0.930 . S
H139 C133 0.930 . S
C140 N141 1.314 . S
C140 C142 1.353 . S
C140 H146 0.930 . S
N141 Li91 1.990 . S
N141 C140 1.314 . S
N141 C144 1.279 . S
C142 C140 1.353 . S
C142 C145 1.348 . S
C142 H174 0.929 . S
C143 C144 1.358 . S
C143 C145 1.356 . S
C143 H175 0.930 . S
C144 N141 1.279 . S
C144 C143 1.358 . S
C144 H147 0.930 . S
C145 C142 1.348 . S
C145 C143 1.356 . S
H146 C140 0.930 . S
H147 C144 0.930 . S
O148 Li88 1.956 . S
O148 Li89 1.970 . S
O148 Li90 1.961 . S
O148 C92 1.325 . S
O149 Li88 1.970 . S
O149 Li89 1.956 . S
O149 Li91 1.961 . S
O149 C98 1.325 . S
O150 Li88 1.961 . S
O150 Li90 1.956 . S
O150 Li91 1.970 . S
O150 C120 1.325 . S
O151 Li89 1.961 . S
O151 Li90 1.970 . S
O151 Li91 1.956 . S
O151 C126 1.325 . S
H152 C94 0.929 . S
H153 C95 0.930 . S
H154 C96 0.930 . S
H155 C97 0.930 . S
H156 C99 0.930 . S
H157 C101 0.929 . S
H158 C102 0.930 . S
H159 C103 0.930 . S
H160 C106 0.930 . S
H161 C109 0.929 . S
H162 C114 0.929 . S
H163 C115 0.930 . S
H164 C122 0.929 . S
H165 C123 0.930 . S
H166 C124 0.930 . S
H167 C125 0.930 . S
H168 C127 0.929 . S
H169 C128 0.930 . S
H170 C129 0.930 . S
H171 C130 0.930 . S
H172 C134 0.929 . S
H173 C136 0.930 . S
H174 C142 0.929 . S
H175 C143 0.930 . S
Li176 N193 1.990 . S
Li176 O236 1.956 . S
Li176 O237 1.970 . S
Li176 O238 1.961 . S
Li177 N201 1.990 . S
Li177 O236 1.970 . S
Li177 O237 1.956 . S
Li177 O239 1.961 . S
Li178 N223 1.990 . S
Li178 O236 1.961 . S
Li178 O238 1.956 . S
Li178 O239 1.970 . S
Li179 N229 1.990 . S
Li179 O237 1.961 . S
Li179 O238 1.970 . S
Li179 O239 1.956 . S
C180 C182 1.348 . S
C180 C183 1.356 . S
C180 O236 1.325 . S
N181 C184 1.314 . S
N181 C185 1.279 . S
C182 C180 1.348 . S
C182 C184 1.353 . S
C182 H240 0.929 . S
C183 C180 1.356 . S
C183 C185 1.358 . S
C183 H241 0.930 . S
C184 N181 1.314 . S
C184 C182 1.353 . S
C184 H242 0.930 . S
C185 N181 1.279 . S
C185 C183 1.358 . S
C185 H243 0.930 . S
C186 C189 1.348 . S
C186 C190 1.356 . S
C186 O237 1.325 . S
C187 N188 1.279 . S
C187 C190 1.358 . S
C187 H244 0.930 . S
N188 C187 1.279 . S
N188 C191 1.314 . S
C189 C186 1.348 . S
C189 C191 1.353 . S
C189 H245 0.929 . S
C190 C186 1.356 . S
C190 C187 1.358 . S
C190 H246 0.930 . S
C191 N188 1.314 . S
C191 C189 1.353 . S
C191 H247 0.930 . S
C192 N193 1.314 . S
C192 C197 1.353 . S
C192 H198 0.930 . S
N193 Li176 1.990 . S
N193 C192 1.314 . S
N193 C195 1.279 . S
C194 C195 1.358 . S
C194 C196 1.356 . S
C194 H248 0.930 . S
C195 N193 1.279 . S
C195 C194 1.358 . S
C195 H199 0.930 . S
C196 C194 1.356 . S
C196 C197 1.348 . S
C197 C192 1.353 . S
C197 C196 1.348 . S
C197 H249 0.929 . S
H198 C192 0.930 . S
H199 C195 0.930 . S
C200 N201 1.314 . S
C200 C202 1.353 . S
C200 H206 0.930 . S
N201 Li177 1.990 . S
N201 C200 1.314 . S
N201 C204 1.279 . S
C202 C200 1.353 . S
C202 C205 1.348 . S
C202 H250 0.929 . S
C203 C204 1.358 . S
C203 C205 1.356 . S
C203 H251 0.930 . S
C204 N201 1.279 . S
C204 C203 1.358 . S
C204 H207 0.930 . S
C205 C202 1.348 . S
C205 C203 1.356 . S
H206 C200 0.930 . S
H207 C204 0.930 . S
C208 C210 1.348 . S
C208 C211 1.356 . S
C208 O238 1.325 . S
N209 C212 1.314 . S
N209 C213 1.279 . S
C210 C208 1.348 . S
C210 C212 1.353 . S
C210 H252 0.929 . S
C211 C208 1.356 . S
C211 C213 1.358 . S
C211 H253 0.930 . S
C212 N209 1.314 . S
C212 C210 1.353 . S
C212 H254 0.930 . S
C213 N209 1.279 . S
C213 C211 1.358 . S
C213 H255 0.930 . S
C214 C215 1.348 . S
C214 C216 1.356 . S
C214 O239 1.325 . S
C215 C214 1.348 . S
C215 C217 1.353 . S
C215 H256 0.929 . S
C216 C214 1.356 . S
C216 C218 1.358 . S
C216 H257 0.930 . S
C217 C215 1.353 . S
C217 N219 1.314 . S
C217 H258 0.930 . S
C218 C216 1.358 . S
C218 N219 1.279 . S
C218 H259 0.930 . S
N219 C217 1.314 . S
N219 C218 1.279 . S
C220 C222 1.353 . S
C220 N223 1.314 . S
C220 H226 0.930 . S
C221 N223 1.279 . S
C221 C224 1.358 . S
C221 H227 0.930 . S
C222 C220 1.353 . S
C222 C225 1.348 . S
C222 H260 0.929 . S
N223 Li178 1.990 . S
N223 C220 1.314 . S
N223 C221 1.279 . S
C224 C221 1.358 . S
C224 C225 1.356 . S
C224 H261 0.930 . S
C225 C222 1.348 . S
C225 C224 1.356 . S
H226 C220 0.930 . S
H227 C221 0.930 . S
C228 N229 1.314 . S
C228 C230 1.353 . S
C228 H234 0.930 . S
N229 Li179 1.990 . S
N229 C228 1.314 . S
N229 C232 1.279 . S
C230 C228 1.353 . S
C230 C233 1.348 . S
C230 H262 0.929 . S
C231 C232 1.358 . S
C231 C233 1.356 . S
C231 H263 0.930 . S
C232 N229 1.279 . S
C232 C231 1.358 . S
C232 H235 0.930 . S
C233 C230 1.348 . S
C233 C231 1.356 . S
H234 C228 0.930 . S
H235 C232 0.930 . S
O236 Li176 1.956 . S
O236 Li177 1.970 . S
O236 Li178 1.961 . S
O236 C180 1.325 . S
O237 Li176 1.970 . S
O237 Li177 1.956 . S
O237 Li179 1.961 . S
O237 C186 1.325 . S
O238 Li176 1.961 . S
O238 Li178 1.956 . S
O238 Li179 1.970 . S
O238 C208 1.325 . S
O239 Li177 1.961 . S
O239 Li178 1.970 . S
O239 Li179 1.956 . S
O239 C214 1.325 . S
H240 C182 0.929 . S
H241 C183 0.930 . S
H242 C184 0.930 . S
H243 C185 0.930 . S
H244 C187 0.930 . S
H245 C189 0.929 . S
H246 C190 0.930 . S
H247 C191 0.930 . S
H248 C194 0.930 . S
H249 C197 0.929 . S
H250 C202 0.929 . S
H251 C203 0.930 . S
H252 C210 0.929 . S
H253 C211 0.930 . S
H254 C212 0.930 . S
H255 C213 0.930 . S
H256 C215 0.929 . S
H257 C216 0.930 . S
H258 C217 0.930 . S
H259 C218 0.930 . S
H260 C222 0.929 . S
H261 C224 0.930 . S
H262 C230 0.929 . S
H263 C231 0.930 . S
Li264 N281 1.990 . S
Li264 O324 1.956 . S
Li264 O325 1.970 . S
Li264 O326 1.961 . S
Li265 N289 1.990 . S
Li265 O324 1.970 . S
Li265 O325 1.956 . S
Li265 O327 1.961 . S
Li266 N311 1.990 . S
Li266 O324 1.961 . S
Li266 O326 1.956 . S
Li266 O327 1.970 . S
Li267 N317 1.990 . S
Li267 O325 1.961 . S
Li267 O326 1.970 . S
Li267 O327 1.956 . S
C268 C270 1.348 . S
C268 C271 1.356 . S
C268 O324 1.325 . S
N269 C272 1.314 . S
N269 C273 1.279 . S
C270 C268 1.348 . S
C270 C272 1.353 . S
C270 H328 0.929 . S
C271 C268 1.356 . S
C271 C273 1.358 . S
C271 H329 0.930 . S
C272 N269 1.314 . S
C272 C270 1.353 . S
C272 H330 0.930 . S
C273 N269 1.279 . S
C273 C271 1.358 . S
C273 H331 0.930 . S
C274 C277 1.348 . S
C274 C278 1.356 . S
C274 O325 1.325 . S
C275 N276 1.279 . S
C275 C278 1.358 . S
C275 H332 0.930 . S
N276 C275 1.279 . S
N276 C279 1.314 . S
C277 C274 1.348 . S
C277 C279 1.353 . S
C277 H333 0.929 . S
C278 C274 1.356 . S
C278 C275 1.358 . S
C278 H334 0.930 . S
C279 N276 1.314 . S
C279 C277 1.353 . S
C279 H335 0.930 . S
C280 N281 1.314 . S
C280 C285 1.353 . S
C280 H286 0.930 . S
N281 Li264 1.990 . S
N281 C280 1.314 . S
N281 C283 1.279 . S
C282 C283 1.358 . S
C282 C284 1.356 . S
C282 H336 0.930 . S
C283 N281 1.279 . S
C283 C282 1.358 . S
C283 H287 0.930 . S
C284 C282 1.356 . S
C284 C285 1.348 . S
C285 C280 1.353 . S
C285 C284 1.348 . S
C285 H337 0.929 . S
H286 C280 0.930 . S
H287 C283 0.930 . S
C288 N289 1.314 . S
C288 C290 1.353 . S
C288 H294 0.930 . S
N289 Li265 1.990 . S
N289 C288 1.314 . S
N289 C292 1.279 . S
C290 C288 1.353 . S
C290 C293 1.348 . S
C290 H338 0.929 . S
C291 C292 1.358 . S
C291 C293 1.356 . S
C291 H339 0.930 . S
C292 N289 1.279 . S
C292 C291 1.358 . S
C292 H295 0.930 . S
C293 C290 1.348 . S
C293 C291 1.356 . S
H294 C288 0.930 . S
H295 C292 0.930 . S
C296 C298 1.348 . S
C296 C299 1.356 . S
C296 O326 1.325 . S
N297 C300 1.314 . S
N297 C301 1.279 . S
C298 C296 1.348 . S
C298 C300 1.353 . S
C298 H340 0.929 . S
C299 C296 1.356 . S
C299 C301 1.358 . S
C299 H341 0.930 . S
C300 N297 1.314 . S
C300 C298 1.353 . S
C300 H342 0.930 . S
C301 N297 1.279 . S
C301 C299 1.358 . S
C301 H343 0.930 . S
C302 C303 1.348 . S
C302 C304 1.356 . S
C302 O327 1.325 . S
C303 C302 1.348 . S
C303 C305 1.353 . S
C303 H344 0.929 . S
C304 C302 1.356 . S
C304 C306 1.358 . S
C304 H345 0.930 . S
C305 C303 1.353 . S
C305 N307 1.314 . S
C305 H346 0.930 . S
C306 C304 1.358 . S
C306 N307 1.279 . S
C306 H347 0.930 . S
N307 C305 1.314 . S
N307 C306 1.279 . S
C308 C310 1.353 . S
C308 N311 1.314 . S
C308 H314 0.930 . S
C309 N311 1.279 . S
C309 C312 1.358 . S
C309 H315 0.930 . S
C310 C308 1.353 . S
C310 C313 1.348 . S
C310 H348 0.929 . S
N311 Li266 1.990 . S
N311 C308 1.314 . S
N311 C309 1.279 . S
C312 C309 1.358 . S
C312 C313 1.356 . S
C312 H349 0.930 . S
C313 C310 1.348 . S
C313 C312 1.356 . S
H314 C308 0.930 . S
H315 C309 0.930 . S
C316 N317 1.314 . S
C316 C318 1.353 . S
C316 H322 0.930 . S
N317 Li267 1.990 . S
N317 C316 1.314 . S
N317 C320 1.279 . S
C318 C316 1.353 . S
C318 C321 1.348 . S
C318 H350 0.929 . S
C319 C320 1.358 . S
C319 C321 1.356 . S
C319 H351 0.930 . S
C320 N317 1.279 . S
C320 C319 1.358 . S
C320 H323 0.930 . S
C321 C318 1.348 . S
C321 C319 1.356 . S
H322 C316 0.930 . S
H323 C320 0.930 . S
O324 Li264 1.956 . S
O324 Li265 1.970 . S
O324 Li266 1.961 . S
O324 C268 1.325 . S
O325 Li264 1.970 . S
O325 Li265 1.956 . S
O325 Li267 1.961 . S
O325 C274 1.325 . S
O326 Li264 1.961 . S
O326 Li266 1.956 . S
O326 Li267 1.970 . S
O326 C296 1.325 . S
O327 Li265 1.961 . S
O327 Li266 1.970 . S
O327 Li267 1.956 . S
O327 C302 1.325 . S
H328 C270 0.929 . S
H329 C271 0.930 . S
H330 C272 0.930 . S
H331 C273 0.930 . S
H332 C275 0.930 . S
H333 C277 0.929 . S
H334 C278 0.930 . S
H335 C279 0.930 . S
H336 C282 0.930 . S
H337 C285 0.929 . S
H338 C290 0.929 . S
H339 C291 0.930 . S
H340 C298 0.929 . S
H341 C299 0.930 . S
H342 C300 0.930 . S
H343 C301 0.930 . S
H344 C303 0.929 . S
H345 C304 0.930 . S
H346 C305 0.930 . S
H347 C306 0.930 . S
H348 C310 0.929 . S
H349 C312 0.930 . S
H350 C318 0.929 . S
H351 C319 0.930 . S
Li352 N369 1.990 . S
Li352 O412 1.956 . S
Li352 O413 1.970 . S
Li352 O414 1.961 . S
Li353 N377 1.990 . S
Li353 O412 1.970 . S
Li353 O413 1.956 . S
Li353 O415 1.961 . S
Li354 N399 1.990 . S
Li354 O412 1.961 . S
Li354 O414 1.956 . S
Li354 O415 1.970 . S
Li355 N405 1.990 . S
Li355 O413 1.961 . S
Li355 O414 1.970 . S
Li355 O415 1.956 . S
C356 C358 1.348 . S
C356 C359 1.356 . S
C356 O412 1.325 . S
N357 C360 1.314 . S
N357 C361 1.279 . S
C358 C356 1.348 . S
C358 C360 1.353 . S
C358 H416 0.929 . S
C359 C356 1.356 . S
C359 C361 1.358 . S
C359 H417 0.930 . S
C360 N357 1.314 . S
C360 C358 1.353 . S
C360 H418 0.930 . S
C361 N357 1.279 . S
C361 C359 1.358 . S
C361 H419 0.930 . S
C362 C365 1.348 . S
C362 C366 1.356 . S
C362 O413 1.325 . S
C363 N364 1.279 . S
C363 C366 1.358 . S
C363 H420 0.930 . S
N364 C363 1.279 . S
N364 C367 1.314 . S
C365 C362 1.348 . S
C365 C367 1.353 . S
C365 H421 0.929 . S
C366 C362 1.356 . S
C366 C363 1.358 . S
C366 H422 0.930 . S
C367 N364 1.314 . S
C367 C365 1.353 . S
C367 H423 0.930 . S
C368 N369 1.314 . S
C368 C373 1.353 . S
C368 H374 0.930 . S
N369 Li352 1.990 . S
N369 C368 1.314 . S
N369 C371 1.279 . S
C370 C371 1.358 . S
C370 C372 1.356 . S
C370 H424 0.930 . S
C371 N369 1.279 . S
C371 C370 1.358 . S
C371 H375 0.930 . S
C372 C370 1.356 . S
C372 C373 1.348 . S
C373 C368 1.353 . S
C373 C372 1.348 . S
C373 H425 0.929 . S
H374 C368 0.930 . S
H375 C371 0.930 . S
C376 N377 1.314 . S
C376 C378 1.353 . S
C376 H382 0.930 . S
N377 Li353 1.990 . S
N377 C376 1.314 . S
N377 C380 1.279 . S
C378 C376 1.353 . S
C378 C381 1.348 . S
C378 H426 0.929 . S
C379 C380 1.358 . S
C379 C381 1.356 . S
C379 H427 0.930 . S
C380 N377 1.279 . S
C380 C379 1.358 . S
C380 H383 0.930 . S
C381 C378 1.348 . S
C381 C379 1.356 . S
H382 C376 0.930 . S
H383 C380 0.930 . S
C384 C386 1.348 . S
C384 C387 1.356 . S
C384 O414 1.325 . S
N385 C388 1.314 . S
N385 C389 1.279 . S
C386 C384 1.348 . S
C386 C388 1.353 . S
C386 H428 0.929 . S
C387 C384 1.356 . S
C387 C389 1.358 . S
C387 H429 0.930 . S
C388 N385 1.314 . S
C388 C386 1.353 . S
C388 H430 0.930 . S
C389 N385 1.279 . S
C389 C387 1.358 . S
C389 H431 0.930 . S
C390 C391 1.348 . S
C390 C392 1.356 . S
C390 O415 1.325 . S
C391 C390 1.348 . S
C391 C393 1.353 . S
C391 H432 0.929 . S
C392 C390 1.356 . S
C392 C394 1.358 . S
C392 H433 0.930 . S
C393 C391 1.353 . S
C393 N395 1.314 . S
C393 H434 0.930 . S
C394 C392 1.358 . S
C394 N395 1.279 . S
C394 H435 0.930 . S
N395 C393 1.314 . S
N395 C394 1.279 . S
C396 C398 1.353 . S
C396 N399 1.314 . S
C396 H402 0.930 . S
C397 N399 1.279 . S
C397 C400 1.358 . S
C397 H403 0.930 . S
C398 C396 1.353 . S
C398 C401 1.348 . S
C398 H436 0.929 . S
N399 Li354 1.990 . S
N399 C396 1.314 . S
N399 C397 1.279 . S
C400 C397 1.358 . S
C400 C401 1.356 . S
C400 H437 0.930 . S
C401 C398 1.348 . S
C401 C400 1.356 . S
H402 C396 0.930 . S
H403 C397 0.930 . S
C404 N405 1.314 . S
C404 C406 1.353 . S
C404 H410 0.930 . S
N405 Li355 1.990 . S
N405 C404 1.314 . S
N405 C408 1.279 . S
C406 C404 1.353 . S
C406 C409 1.348 . S
C406 H438 0.929 . S
C407 C408 1.358 . S
C407 C409 1.356 . S
C407 H439 0.930 . S
C408 N405 1.279 . S
C408 C407 1.358 . S
C408 H411 0.930 . S
C409 C406 1.348 . S
C409 C407 1.356 . S
H410 C404 0.930 . S
H411 C408 0.930 . S
O412 Li352 1.956 . S
O412 Li353 1.970 . S
O412 Li354 1.961 . S
O412 C356 1.325 . S
O413 Li352 1.970 . S
O413 Li353 1.956 . S
O413 Li355 1.961 . S
O413 C362 1.325 . S
O414 Li352 1.961 . S
O414 Li354 1.956 . S
O414 Li355 1.970 . S
O414 C384 1.325 . S
O415 Li353 1.961 . S
O415 Li354 1.970 . S
O415 Li355 1.956 . S
O415 C390 1.325 . S
H416 C358 0.929 . S
H417 C359 0.930 . S
H418 C360 0.930 . S
H419 C361 0.930 . S
H420 C363 0.930 . S
H421 C365 0.929 . S
H422 C366 0.930 . S
H423 C367 0.930 . S
H424 C370 0.930 . S
H425 C373 0.929 . S
H426 C378 0.929 . S
H427 C379 0.930 . S
H428 C386 0.929 . S
H429 C387 0.930 . S
H430 C388 0.930 . S
H431 C389 0.930 . S
H432 C391 0.929 . S
H433 C392 0.930 . S
H434 C393 0.930 . S
H435 C394 0.930 . S
H436 C398 0.929 . S
H437 C400 0.930 . S
H438 C406 0.929 . S
H439 C407 0.930 . S
Li440 N457 1.990 . S
Li440 O500 1.956 . S
Li440 O501 1.970 . S
Li440 O502 1.961 . S
Li441 N465 1.990 . S
Li441 O500 1.970 . S
Li441 O501 1.956 . S
Li441 O503 1.961 . S
Li442 N487 1.990 . S
Li442 O500 1.961 . S
Li442 O502 1.956 . S
Li442 O503 1.970 . S
Li443 N493 1.990 . S
Li443 O501 1.961 . S
Li443 O502 1.970 . S
Li443 O503 1.956 . S
C444 C446 1.348 . S
C444 C447 1.356 . S
C444 O500 1.325 . S
N445 C448 1.314 . S
N445 C449 1.279 . S
C446 C444 1.348 . S
C446 C448 1.353 . S
C446 H504 0.929 . S
C447 C444 1.356 . S
C447 C449 1.358 . S
C447 H505 0.930 . S
C448 N445 1.314 . S
C448 C446 1.353 . S
C448 H506 0.930 . S
C449 N445 1.279 . S
C449 C447 1.358 . S
C449 H507 0.930 . S
C450 C453 1.348 . S
C450 C454 1.356 . S
C450 O501 1.325 . S
C451 N452 1.279 . S
C451 C454 1.358 . S
C451 H508 0.930 . S
N452 C451 1.279 . S
N452 C455 1.314 . S
C453 C450 1.348 . S
C453 C455 1.353 . S
C453 H509 0.929 . S
C454 C450 1.356 . S
C454 C451 1.358 . S
C454 H510 0.930 . S
C455 N452 1.314 . S
C455 C453 1.353 . S
C455 H511 0.930 . S
C456 N457 1.314 . S
C456 C461 1.353 . S
C456 H462 0.930 . S
N457 Li440 1.990 . S
N457 C456 1.314 . S
N457 C459 1.279 . S
C458 C459 1.358 . S
C458 C460 1.356 . S
C458 H512 0.930 . S
C459 N457 1.279 . S
C459 C458 1.358 . S
C459 H463 0.930 . S
C460 C458 1.356 . S
C460 C461 1.348 . S
C461 C456 1.353 . S
C461 C460 1.348 . S
C461 H513 0.929 . S
H462 C456 0.930 . S
H463 C459 0.930 . S
C464 N465 1.314 . S
C464 C466 1.353 . S
C464 H470 0.930 . S
N465 Li441 1.990 . S
N465 C464 1.314 . S
N465 C468 1.279 . S
C466 C464 1.353 . S
C466 C469 1.348 . S
C466 H514 0.929 . S
C467 C468 1.358 . S
C467 C469 1.356 . S
C467 H515 0.930 . S
C468 N465 1.279 . S
C468 C467 1.358 . S
C468 H471 0.930 . S
C469 C466 1.348 . S
C469 C467 1.356 . S
H470 C464 0.930 . S
H471 C468 0.930 . S
C472 C474 1.348 . S
C472 C475 1.356 . S
C472 O502 1.325 . S
N473 C476 1.314 . S
N473 C477 1.279 . S
C474 C472 1.348 . S
C474 C476 1.353 . S
C474 H516 0.929 . S
C475 C472 1.356 . S
C475 C477 1.358 . S
C475 H517 0.930 . S
C476 N473 1.314 . S
C476 C474 1.353 . S
C476 H518 0.930 . S
C477 N473 1.279 . S
C477 C475 1.358 . S
C477 H519 0.930 . S
C478 C479 1.348 . S
C478 C480 1.356 . S
C478 O503 1.325 . S
C479 C478 1.348 . S
C479 C481 1.353 . S
C479 H520 0.929 . S
C480 C478 1.356 . S
C480 C482 1.358 . S
C480 H521 0.930 . S
C481 C479 1.353 . S
C481 N483 1.314 . S
C481 H522 0.930 . S
C482 C480 1.358 . S
C482 N483 1.279 . S
C482 H523 0.930 . S
N483 C481 1.314 . S
N483 C482 1.279 . S
C484 C486 1.353 . S
C484 N487 1.314 . S
C484 H490 0.930 . S
C485 N487 1.279 . S
C485 C488 1.358 . S
C485 H491 0.930 . S
C486 C484 1.353 . S
C486 C489 1.348 . S
C486 H524 0.929 . S
N487 Li442 1.990 . S
N487 C484 1.314 . S
N487 C485 1.279 . S
C488 C485 1.358 . S
C488 C489 1.356 . S
C488 H525 0.930 . S
C489 C486 1.348 . S
C489 C488 1.356 . S
H490 C484 0.930 . S
H491 C485 0.930 . S
C492 N493 1.314 . S
C492 C494 1.353 . S
C492 H498 0.930 . S
N493 Li443 1.990 . S
N493 C492 1.314 . S
N493 C496 1.279 . S
C494 C492 1.353 . S
C494 C497 1.348 . S
C494 H526 0.929 . S
C495 C496 1.358 . S
C495 C497 1.356 . S
C495 H527 0.930 . S
C496 N493 1.279 . S
C496 C495 1.358 . S
C496 H499 0.930 . S
C497 C494 1.348 . S
C497 C495 1.356 . S
H498 C492 0.930 . S
H499 C496 0.930 . S
O500 Li440 1.956 . S
O500 Li441 1.970 . S
O500 Li442 1.961 . S
O500 C444 1.325 . S
O501 Li440 1.970 . S
O501 Li441 1.956 . S
O501 Li443 1.961 . S
O501 C450 1.325 . S
O502 Li440 1.961 . S
O502 Li442 1.956 . S
O502 Li443 1.970 . S
O502 C472 1.325 . S
O503 Li441 1.961 . S
O503 Li442 1.970 . S
O503 Li443 1.956 . S
O503 C478 1.325 . S
H504 C446 0.929 . S
H505 C447 0.930 . S
H506 C448 0.930 . S
H507 C449 0.930 . S
H508 C451 0.930 . S
H509 C453 0.929 . S
H510 C454 0.930 . S
H511 C455 0.930 . S
H512 C458 0.930 . S
H513 C461 0.929 . S
H514 C466 0.929 . S
H515 C467 0.930 . S
H516 C474 0.929 . S
H517 C475 0.930 . S
H518 C476 0.930 . S
H519 C477 0.930 . S
H520 C479 0.929 . S
H521 C480 0.930 . S
H522 C481 0.930 . S
H523 C482 0.930 . S
H524 C486 0.929 . S
H525 C488 0.930 . S
H526 C494 0.929 . S
H527 C495 0.930 . S
Li528 N545 1.990 . S
Li528 O588 1.956 . S
Li528 O589 1.970 . S
Li528 O590 1.961 . S
Li529 N553 1.990 . S
Li529 O588 1.970 . S
Li529 O589 1.956 . S
Li529 O591 1.961 . S
Li530 N575 1.990 . S
Li530 O588 1.961 . S
Li530 O590 1.956 . S
Li530 O591 1.970 . S
Li531 N581 1.990 . S
Li531 O589 1.961 . S
Li531 O590 1.970 . S
Li531 O591 1.956 . S
C532 C534 1.348 . S
C532 C535 1.356 . S
C532 O588 1.325 . S
N533 C536 1.314 . S
N533 C537 1.279 . S
C534 C532 1.348 . S
C534 C536 1.353 . S
C534 H592 0.929 . S
C535 C532 1.356 . S
C535 C537 1.358 . S
C535 H593 0.930 . S
C536 N533 1.314 . S
C536 C534 1.353 . S
C536 H594 0.930 . S
C537 N533 1.279 . S
C537 C535 1.358 . S
C537 H595 0.930 . S
C538 C541 1.348 . S
C538 C542 1.356 . S
C538 O589 1.325 . S
C539 N540 1.279 . S
C539 C542 1.358 . S
C539 H596 0.930 . S
N540 C539 1.279 . S
N540 C543 1.314 . S
C541 C538 1.348 . S
C541 C543 1.353 . S
C541 H597 0.929 . S
C542 C538 1.356 . S
C542 C539 1.358 . S
C542 H598 0.930 . S
C543 N540 1.314 . S
C543 C541 1.353 . S
C543 H599 0.930 . S
C544 N545 1.314 . S
C544 C549 1.353 . S
C544 H550 0.930 . S
N545 Li528 1.990 . S
N545 C544 1.314 . S
N545 C547 1.279 . S
C546 C547 1.358 . S
C546 C548 1.356 . S
C546 H600 0.930 . S
C547 N545 1.279 . S
C547 C546 1.358 . S
C547 H551 0.930 . S
C548 C546 1.356 . S
C548 C549 1.348 . S
C549 C544 1.353 . S
C549 C548 1.348 . S
C549 H601 0.929 . S
H550 C544 0.930 . S
H551 C547 0.930 . S
C552 N553 1.314 . S
C552 C554 1.353 . S
C552 H558 0.930 . S
N553 Li529 1.990 . S
N553 C552 1.314 . S
N553 C556 1.279 . S
C554 C552 1.353 . S
C554 C557 1.348 . S
C554 H602 0.929 . S
C555 C556 1.358 . S
C555 C557 1.356 . S
C555 H603 0.930 . S
C556 N553 1.279 . S
C556 C555 1.358 . S
C556 H559 0.930 . S
C557 C554 1.348 . S
C557 C555 1.356 . S
H558 C552 0.930 . S
H559 C556 0.930 . S
C560 C562 1.348 . S
C560 C563 1.356 . S
C560 O590 1.325 . S
N561 C564 1.314 . S
N561 C565 1.279 . S
C562 C560 1.348 . S
C562 C564 1.353 . S
C562 H604 0.929 . S
C563 C560 1.356 . S
C563 C565 1.358 . S
C563 H605 0.930 . S
C564 N561 1.314 . S
C564 C562 1.353 . S
C564 H606 0.930 . S
C565 N561 1.279 . S
C565 C563 1.358 . S
C565 H607 0.930 . S
C566 C567 1.348 . S
C566 C568 1.356 . S
C566 O591 1.325 . S
C567 C566 1.348 . S
C567 C569 1.353 . S
C567 H608 0.929 . S
C568 C566 1.356 . S
C568 C570 1.358 . S
C568 H609 0.930 . S
C569 C567 1.353 . S
C569 N571 1.314 . S
C569 H610 0.930 . S
C570 C568 1.358 . S
C570 N571 1.279 . S
C570 H611 0.930 . S
N571 C569 1.314 . S
N571 C570 1.279 . S
C572 C574 1.353 . S
C572 N575 1.314 . S
C572 H578 0.930 . S
C573 N575 1.279 . S
C573 C576 1.358 . S
C573 H579 0.930 . S
C574 C572 1.353 . S
C574 C577 1.348 . S
C574 H612 0.929 . S
N575 Li530 1.990 . S
N575 C572 1.314 . S
N575 C573 1.279 . S
C576 C573 1.358 . S
C576 C577 1.356 . S
C576 H613 0.930 . S
C577 C574 1.348 . S
C577 C576 1.356 . S
H578 C572 0.930 . S
H579 C573 0.930 . S
C580 N581 1.314 . S
C580 C582 1.353 . S
C580 H586 0.930 . S
N581 Li531 1.990 . S
N581 C580 1.314 . S
N581 C584 1.279 . S
C582 C580 1.353 . S
C582 C585 1.348 . S
C582 H614 0.929 . S
C583 C584 1.358 . S
C583 C585 1.356 . S
C583 H615 0.930 . S
C584 N581 1.279 . S
C584 C583 1.358 . S
C584 H587 0.930 . S
C585 C582 1.348 . S
C585 C583 1.356 . S
H586 C580 0.930 . S
H587 C584 0.930 . S
O588 Li528 1.956 . S
O588 Li529 1.970 . S
O588 Li530 1.961 . S
O588 C532 1.325 . S
O589 Li528 1.970 . S
O589 Li529 1.956 . S
O589 Li531 1.961 . S
O589 C538 1.325 . S
O590 Li528 1.961 . S
O590 Li530 1.956 . S
O590 Li531 1.970 . S
O590 C560 1.325 . S
O591 Li529 1.961 . S
O591 Li530 1.970 . S
O591 Li531 1.956 . S
O591 C566 1.325 . S
H592 C534 0.929 . S
H593 C535 0.930 . S
H594 C536 0.930 . S
H595 C537 0.930 . S
H596 C539 0.930 . S
H597 C541 0.929 . S
H598 C542 0.930 . S
H599 C543 0.930 . S
H600 C546 0.930 . S
H601 C549 0.929 . S
H602 C554 0.929 . S
H603 C555 0.930 . S
H604 C562 0.929 . S
H605 C563 0.930 . S
H606 C564 0.930 . S
H607 C565 0.930 . S
H608 C567 0.929 . S
H609 C568 0.930 . S
H610 C569 0.930 . S
H611 C570 0.930 . S
H612 C574 0.929 . S
H613 C576 0.930 . S
H614 C582 0.929 . S
H615 C583 0.930 . S
Li616 N633 1.990 . S
Li616 O676 1.956 . S
Li616 O677 1.970 . S
Li616 O678 1.961 . S
Li617 N641 1.990 . S
Li617 O676 1.970 . S
Li617 O677 1.956 . S
Li617 O679 1.961 . S
Li618 N663 1.990 . S
Li618 O676 1.961 . S
Li618 O678 1.956 . S
Li618 O679 1.970 . S
Li619 N669 1.990 . S
Li619 O677 1.961 . S
Li619 O678 1.970 . S
Li619 O679 1.956 . S
C620 C622 1.348 . S
C620 C623 1.356 . S
C620 O676 1.325 . S
N621 C624 1.314 . S
N621 C625 1.279 . S
C622 C620 1.348 . S
C622 C624 1.353 . S
C622 H680 0.929 . S
C623 C620 1.356 . S
C623 C625 1.358 . S
C623 H681 0.930 . S
C624 N621 1.314 . S
C624 C622 1.353 . S
C624 H682 0.930 . S
C625 N621 1.279 . S
C625 C623 1.358 . S
C625 H683 0.930 . S
C626 C629 1.348 . S
C626 C630 1.356 . S
C626 O677 1.325 . S
C627 N628 1.279 . S
C627 C630 1.358 . S
C627 H684 0.930 . S
N628 C627 1.279 . S
N628 C631 1.314 . S
C629 C626 1.348 . S
C629 C631 1.353 . S
C629 H685 0.929 . S
C630 C626 1.356 . S
C630 C627 1.358 . S
C630 H686 0.930 . S
C631 N628 1.314 . S
C631 C629 1.353 . S
C631 H687 0.930 . S
C632 N633 1.314 . S
C632 C637 1.353 . S
C632 H638 0.930 . S
N633 Li616 1.990 . S
N633 C632 1.314 . S
N633 C635 1.279 . S
C634 C635 1.358 . S
C634 C636 1.356 . S
C634 H688 0.930 . S
C635 N633 1.279 . S
C635 C634 1.358 . S
C635 H639 0.930 . S
C636 C634 1.356 . S
C636 C637 1.348 . S
C637 C632 1.353 . S
C637 C636 1.348 . S
C637 H689 0.929 . S
H638 C632 0.930 . S
H639 C635 0.930 . S
C640 N641 1.314 . S
C640 C642 1.353 . S
C640 H646 0.930 . S
N641 Li617 1.990 . S
N641 C640 1.314 . S
N641 C644 1.279 . S
C642 C640 1.353 . S
C642 C645 1.348 . S
C642 H690 0.929 . S
C643 C644 1.358 . S
C643 C645 1.356 . S
C643 H691 0.930 . S
C644 N641 1.279 . S
C644 C643 1.358 . S
C644 H647 0.930 . S
C645 C642 1.348 . S
C645 C643 1.356 . S
H646 C640 0.930 . S
H647 C644 0.930 . S
C648 C650 1.348 . S
C648 C651 1.356 . S
C648 O678 1.325 . S
N649 C652 1.314 . S
N649 C653 1.279 . S
C650 C648 1.348 . S
C650 C652 1.353 . S
C650 H692 0.929 . S
C651 C648 1.356 . S
C651 C653 1.358 . S
C651 H693 0.930 . S
C652 N649 1.314 . S
C652 C650 1.353 . S
C652 H694 0.930 . S
C653 N649 1.279 . S
C653 C651 1.358 . S
C653 H695 0.930 . S
C654 C655 1.348 . S
C654 C656 1.356 . S
C654 O679 1.325 . S
C655 C654 1.348 . S
C655 C657 1.353 . S
C655 H696 0.929 . S
C656 C654 1.356 . S
C656 C658 1.358 . S
C656 H697 0.930 . S
C657 C655 1.353 . S
C657 N659 1.314 . S
C657 H698 0.930 . S
C658 C656 1.358 . S
C658 N659 1.279 . S
C658 H699 0.930 . S
N659 C657 1.314 . S
N659 C658 1.279 . S
C660 C662 1.353 . S
C660 N663 1.314 . S
C660 H666 0.930 . S
C661 N663 1.279 . S
C661 C664 1.358 . S
C661 H667 0.930 . S
C662 C660 1.353 . S
C662 C665 1.348 . S
C662 H700 0.929 . S
N663 Li618 1.990 . S
N663 C660 1.314 . S
N663 C661 1.279 . S
C664 C661 1.358 . S
C664 C665 1.356 . S
C664 H701 0.930 . S
C665 C662 1.348 . S
C665 C664 1.356 . S
H666 C660 0.930 . S
H667 C661 0.930 . S
C668 N669 1.314 . S
C668 C670 1.353 . S
C668 H674 0.930 . S
N669 Li619 1.990 . S
N669 C668 1.314 . S
N669 C672 1.279 . S
C670 C668 1.353 . S
C670 C673 1.348 . S
C670 H702 0.929 . S
C671 C672 1.358 . S
C671 C673 1.356 . S
C671 H703 0.930 . S
C672 N669 1.279 . S
C672 C671 1.358 . S
C672 H675 0.930 . S
C673 C670 1.348 . S
C673 C671 1.356 . S
H674 C668 0.930 . S
H675 C672 0.930 . S
O676 Li616 1.956 . S
O676 Li617 1.970 . S
O676 Li618 1.961 . S
O676 C620 1.325 . S
O677 Li616 1.970 . S
O677 Li617 1.956 . S
O677 Li619 1.961 . S
O677 C626 1.325 . S
O678 Li616 1.961 . S
O678 Li618 1.956 . S
O678 Li619 1.970 . S
O678 C648 1.325 . S
O679 Li617 1.961 . S
O679 Li618 1.970 . S
O679 Li619 1.956 . S
O679 C654 1.325 . S
H680 C622 0.929 . S
H681 C623 0.930 . S
H682 C624 0.930 . S
H683 C625 0.930 . S
H684 C627 0.930 . S
H685 C629 0.929 . S
H686 C630 0.930 . S
H687 C631 0.930 . S
H688 C634 0.930 . S
H689 C637 0.929 . S
H690 C642 0.929 . S
H691 C643 0.930 . S
H692 C650 0.929 . S
H693 C651 0.930 . S
H694 C652 0.930 . S
H695 C653 0.930 . S
H696 C655 0.929 . S
H697 C656 0.930 . S
H698 C657 0.930 . S
H699 C658 0.930 . S
H700 C662 0.929 . S
H701 C664 0.930 . S
H702 C670 0.929 . S
H703 C671 0.930 . S
Li704 N721 1.990 . S
Li704 O764 1.956 . S
Li704 O765 1.970 . S
Li704 O766 1.961 . S
Li705 N729 1.990 . S
Li705 O764 1.970 . S
Li705 O765 1.956 . S
Li705 O767 1.961 . S
Li706 N751 1.990 . S
Li706 O764 1.961 . S
Li706 O766 1.956 . S
Li706 O767 1.970 . S
Li707 N757 1.990 . S
Li707 O765 1.961 . S
Li707 O766 1.970 . S
Li707 O767 1.956 . S
C708 C710 1.348 . S
C708 C711 1.356 . S
C708 O764 1.325 . S
N709 C712 1.314 . S
N709 C713 1.279 . S
C710 C708 1.348 . S
C710 C712 1.353 . S
C710 H768 0.929 . S
C711 C708 1.356 . S
C711 C713 1.358 . S
C711 H769 0.930 . S
C712 N709 1.314 . S
C712 C710 1.353 . S
C712 H770 0.930 . S
C713 N709 1.279 . S
C713 C711 1.358 . S
C713 H771 0.930 . S
C714 C717 1.348 . S
C714 C718 1.356 . S
C714 O765 1.325 . S
C715 N716 1.279 . S
C715 C718 1.358 . S
C715 H772 0.930 . S
N716 C715 1.279 . S
N716 C719 1.314 . S
C717 C714 1.348 . S
C717 C719 1.353 . S
C717 H773 0.929 . S
C718 C714 1.356 . S
C718 C715 1.358 . S
C718 H774 0.930 . S
C719 N716 1.314 . S
C719 C717 1.353 . S
C719 H775 0.930 . S
C720 N721 1.314 . S
C720 C725 1.353 . S
C720 H726 0.930 . S
N721 Li704 1.990 . S
N721 C720 1.314 . S
N721 C723 1.279 . S
C722 C723 1.358 . S
C722 C724 1.356 . S
C722 H776 0.930 . S
C723 N721 1.279 . S
C723 C722 1.358 . S
C723 H727 0.930 . S
C724 C722 1.356 . S
C724 C725 1.348 . S
C725 C720 1.353 . S
C725 C724 1.348 . S
C725 H777 0.929 . S
H726 C720 0.930 . S
H727 C723 0.930 . S
C728 N729 1.314 . S
C728 C730 1.353 . S
C728 H734 0.930 . S
N729 Li705 1.990 . S
N729 C728 1.314 . S
N729 C732 1.279 . S
C730 C728 1.353 . S
C730 C733 1.348 . S
C730 H778 0.929 . S
C731 C732 1.358 . S
C731 C733 1.356 . S
C731 H779 0.930 . S
C732 N729 1.279 . S
C732 C731 1.358 . S
C732 H735 0.930 . S
C733 C730 1.348 . S
C733 C731 1.356 . S
H734 C728 0.930 . S
H735 C732 0.930 . S
C736 C738 1.348 . S
C736 C739 1.356 . S
C736 O766 1.325 . S
N737 C740 1.314 . S
N737 C741 1.279 . S
C738 C736 1.348 . S
C738 C740 1.353 . S
C738 H780 0.929 . S
C739 C736 1.356 . S
C739 C741 1.358 . S
C739 H781 0.930 . S
C740 N737 1.314 . S
C740 C738 1.353 . S
C740 H782 0.930 . S
C741 N737 1.279 . S
C741 C739 1.358 . S
C741 H783 0.930 . S
C742 C743 1.348 . S
C742 C744 1.356 . S
C742 O767 1.325 . S
C743 C742 1.348 . S
C743 C745 1.353 . S
C743 H784 0.929 . S
C744 C742 1.356 . S
C744 C746 1.358 . S
C744 H785 0.930 . S
C745 C743 1.353 . S
C745 N747 1.314 . S
C745 H786 0.930 . S
C746 C744 1.358 . S
C746 N747 1.279 . S
C746 H787 0.930 . S
N747 C745 1.314 . S
N747 C746 1.279 . S
C748 C750 1.353 . S
C748 N751 1.314 . S
C748 H754 0.930 . S
C749 N751 1.279 . S
C749 C752 1.358 . S
C749 H755 0.930 . S
C750 C748 1.353 . S
C750 C753 1.348 . S
C750 H788 0.929 . S
N751 Li706 1.990 . S
N751 C748 1.314 . S
N751 C749 1.279 . S
C752 C749 1.358 . S
C752 C753 1.356 . S
C752 H789 0.930 . S
C753 C750 1.348 . S
C753 C752 1.356 . S
H754 C748 0.930 . S
H755 C749 0.930 . S
C756 N757 1.314 . S
C756 C758 1.353 . S
C756 H762 0.930 . S
N757 Li707 1.990 . S
N757 C756 1.314 . S
N757 C760 1.279 . S
C758 C756 1.353 . S
C758 C761 1.348 . S
C758 H790 0.929 . S
C759 C760 1.358 . S
C759 C761 1.356 . S
C759 H791 0.930 . S
C760 N757 1.279 . S
C760 C759 1.358 . S
C760 H763 0.930 . S
C761 C758 1.348 . S
C761 C759 1.356 . S
H762 C756 0.930 . S
H763 C760 0.930 . S
O764 Li704 1.956 . S
O764 Li705 1.970 . S
O764 Li706 1.961 . S
O764 C708 1.325 . S
O765 Li704 1.970 . S
O765 Li705 1.956 . S
O765 Li707 1.961 . S
O765 C714 1.325 . S
O766 Li704 1.961 . S
O766 Li706 1.956 . S
O766 Li707 1.970 . S
O766 C736 1.325 . S
O767 Li705 1.961 . S
O767 Li706 1.970 . S
O767 Li707 1.956 . S
O767 C742 1.325 . S
H768 C710 0.929 . S
H769 C711 0.930 . S
H770 C712 0.930 . S
H771 C713 0.930 . S
H772 C715 0.930 . S
H773 C717 0.929 . S
H774 C718 0.930 . S
H775 C719 0.930 . S
H776 C722 0.930 . S
H777 C725 0.929 . S
H778 C730 0.929 . S
H779 C731 0.930 . S
H780 C738 0.929 . S
H781 C739 0.930 . S
H782 C740 0.930 . S
H783 C741 0.930 . S
H784 C743 0.929 . S
H785 C744 0.930 . S
H786 C745 0.930 . S
H787 C746 0.930 . S
H788 C750 0.929 . S
H789 C752 0.930 . S
H790 C758 0.929 . S
H791 C759 0.930 . S
Li792 N809 1.990 . S
Li792 O852 1.956 . S
Li792 O853 1.970 . S
Li792 O854 1.961 . S
Li793 N817 1.990 . S
Li793 O852 1.970 . S
Li793 O853 1.956 . S
Li793 O855 1.961 . S
Li794 N839 1.990 . S
Li794 O852 1.961 . S
Li794 O854 1.956 . S
Li794 O855 1.970 . S
Li795 N845 1.990 . S
Li795 O853 1.961 . S
Li795 O854 1.970 . S
Li795 O855 1.956 . S
C796 C798 1.348 . S
C796 C799 1.356 . S
C796 O852 1.325 . S
N797 C800 1.314 . S
N797 C801 1.279 . S
C798 C796 1.348 . S
C798 C800 1.353 . S
C798 H856 0.929 . S
C799 C796 1.356 . S
C799 C801 1.358 . S
C799 H857 0.930 . S
C800 N797 1.314 . S
C800 C798 1.353 . S
C800 H858 0.930 . S
C801 N797 1.279 . S
C801 C799 1.358 . S
C801 H859 0.930 . S
C802 C805 1.348 . S
C802 C806 1.356 . S
C802 O853 1.325 . S
C803 N804 1.279 . S
C803 C806 1.358 . S
C803 H860 0.930 . S
N804 C803 1.279 . S
N804 C807 1.314 . S
C805 C802 1.348 . S
C805 C807 1.353 . S
C805 H861 0.929 . S
C806 C802 1.356 . S
C806 C803 1.358 . S
C806 H862 0.930 . S
C807 N804 1.314 . S
C807 C805 1.353 . S
C807 H863 0.930 . S
C808 N809 1.314 . S
C808 C813 1.353 . S
C808 H814 0.930 . S
N809 Li792 1.990 . S
N809 C808 1.314 . S
N809 C811 1.279 . S
C810 C811 1.358 . S
C810 C812 1.356 . S
C810 H864 0.930 . S
C811 N809 1.279 . S
C811 C810 1.358 . S
C811 H815 0.930 . S
C812 C810 1.356 . S
C812 C813 1.348 . S
C813 C808 1.353 . S
C813 C812 1.348 . S
C813 H865 0.929 . S
H814 C808 0.930 . S
H815 C811 0.930 . S
C816 N817 1.314 . S
C816 C818 1.353 . S
C816 H822 0.930 . S
N817 Li793 1.990 . S
N817 C816 1.314 . S
N817 C820 1.279 . S
C818 C816 1.353 . S
C818 C821 1.348 . S
C818 H866 0.929 . S
C819 C820 1.358 . S
C819 C821 1.356 . S
C819 H867 0.930 . S
C820 N817 1.279 . S
C820 C819 1.358 . S
C820 H823 0.930 . S
C821 C818 1.348 . S
C821 C819 1.356 . S
H822 C816 0.930 . S
H823 C820 0.930 . S
C824 C826 1.348 . S
C824 C827 1.356 . S
C824 O854 1.325 . S
N825 C828 1.314 . S
N825 C829 1.279 . S
C826 C824 1.348 . S
C826 C828 1.353 . S
C826 H868 0.929 . S
C827 C824 1.356 . S
C827 C829 1.358 . S
C827 H869 0.930 . S
C828 N825 1.314 . S
C828 C826 1.353 . S
C828 H870 0.930 . S
C829 N825 1.279 . S
C829 C827 1.358 . S
C829 H871 0.930 . S
C830 C831 1.348 . S
C830 C832 1.356 . S
C830 O855 1.325 . S
C831 C830 1.348 . S
C831 C833 1.353 . S
C831 H872 0.929 . S
C832 C830 1.356 . S
C832 C834 1.358 . S
C832 H873 0.930 . S
C833 C831 1.353 . S
C833 N835 1.314 . S
C833 H874 0.930 . S
C834 C832 1.358 . S
C834 N835 1.279 . S
C834 H875 0.930 . S
N835 C833 1.314 . S
N835 C834 1.279 . S
C836 C838 1.353 . S
C836 N839 1.314 . S
C836 H842 0.930 . S
C837 N839 1.279 . S
C837 C840 1.358 . S
C837 H843 0.930 . S
C838 C836 1.353 . S
C838 C841 1.348 . S
C838 H876 0.929 . S
N839 Li794 1.990 . S
N839 C836 1.314 . S
N839 C837 1.279 . S
C840 C837 1.358 . S
C840 C841 1.356 . S
C840 H877 0.930 . S
C841 C838 1.348 . S
C841 C840 1.356 . S
H842 C836 0.930 . S
H843 C837 0.930 . S
C844 N845 1.314 . S
C844 C846 1.353 . S
C844 H850 0.930 . S
N845 Li795 1.990 . S
N845 C844 1.314 . S
N845 C848 1.279 . S
C846 C844 1.353 . S
C846 C849 1.348 . S
C846 H878 0.929 . S
C847 C848 1.358 . S
C847 C849 1.356 . S
C847 H879 0.930 . S
C848 N845 1.279 . S
C848 C847 1.358 . S
C848 H851 0.930 . S
C849 C846 1.348 . S
C849 C847 1.356 . S
H850 C844 0.930 . S
H851 C848 0.930 . S
O852 Li792 1.956 . S
O852 Li793 1.970 . S
O852 Li794 1.961 . S
O852 C796 1.325 . S
O853 Li792 1.970 . S
O853 Li793 1.956 . S
O853 Li795 1.961 . S
O853 C802 1.325 . S
O854 Li792 1.961 . S
O854 Li794 1.956 . S
O854 Li795 1.970 . S
O854 C824 1.325 . S
O855 Li793 1.961 . S
O855 Li794 1.970 . S
O855 Li795 1.956 . S
O855 C830 1.325 . S
H856 C798 0.929 . S
H857 C799 0.930 . S
H858 C800 0.930 . S
H859 C801 0.930 . S
H860 C803 0.930 . S
H861 C805 0.929 . S
H862 C806 0.930 . S
H863 C807 0.930 . S
H864 C810 0.930 . S
H865 C813 0.929 . S
H866 C818 0.929 . S
H867 C819 0.930 . S
H868 C826 0.929 . S
H869 C827 0.930 . S
H870 C828 0.930 . S
H871 C829 0.930 . S
H872 C831 0.929 . S
H873 C832 0.930 . S
H874 C833 0.930 . S
H875 C834 0.930 . S
H876 C838 0.929 . S
H877 C840 0.930 . S
H878 C846 0.929 . S
H879 C847 0.930 . S
Li880 N897 1.990 . S
Li880 O940 1.956 . S
Li880 O941 1.970 . S
Li880 O942 1.961 . S
Li881 N905 1.990 . S
Li881 O940 1.970 . S
Li881 O941 1.956 . S
Li881 O943 1.961 . S
Li882 N927 1.990 . S
Li882 O940 1.961 . S
Li882 O942 1.956 . S
Li882 O943 1.970 . S
Li883 N933 1.990 . S
Li883 O941 1.961 . S
Li883 O942 1.970 . S
Li883 O943 1.956 . S
C884 C886 1.348 . S
C884 C887 1.356 . S
C884 O940 1.325 . S
N885 C888 1.314 . S
N885 C889 1.279 . S
C886 C884 1.348 . S
C886 C888 1.353 . S
C886 H944 0.929 . S
C887 C884 1.356 . S
C887 C889 1.358 . S
C887 H945 0.930 . S
C888 N885 1.314 . S
C888 C886 1.353 . S
C888 H946 0.930 . S
C889 N885 1.279 . S
C889 C887 1.358 . S
C889 H947 0.930 . S
C890 C893 1.348 . S
C890 C894 1.356 . S
C890 O941 1.325 . S
C891 N892 1.279 . S
C891 C894 1.358 . S
C891 H948 0.930 . S
N892 C891 1.279 . S
N892 C895 1.314 . S
C893 C890 1.348 . S
C893 C895 1.353 . S
C893 H949 0.929 . S
C894 C890 1.356 . S
C894 C891 1.358 . S
C894 H950 0.930 . S
C895 N892 1.314 . S
C895 C893 1.353 . S
C895 H951 0.930 . S
C896 N897 1.314 . S
C896 C901 1.353 . S
C896 H902 0.930 . S
N897 Li880 1.990 . S
N897 C896 1.314 . S
N897 C899 1.279 . S
C898 C899 1.358 . S
C898 C900 1.356 . S
C898 H952 0.930 . S
C899 N897 1.279 . S
C899 C898 1.358 . S
C899 H903 0.930 . S
C900 C898 1.356 . S
C900 C901 1.348 . S
C901 C896 1.353 . S
C901 C900 1.348 . S
C901 H953 0.929 . S
H902 C896 0.930 . S
H903 C899 0.930 . S
C904 N905 1.314 . S
C904 C906 1.353 . S
C904 H910 0.930 . S
N905 Li881 1.990 . S
N905 C904 1.314 . S
N905 C908 1.279 . S
C906 C904 1.353 . S
C906 C909 1.348 . S
C906 H954 0.929 . S
C907 C908 1.358 . S
C907 C909 1.356 . S
C907 H955 0.930 . S
C908 N905 1.279 . S
C908 C907 1.358 . S
C908 H911 0.930 . S
C909 C906 1.348 . S
C909 C907 1.356 . S
H910 C904 0.930 . S
H911 C908 0.930 . S
C912 C914 1.348 . S
C912 C915 1.356 . S
C912 O942 1.325 . S
N913 C916 1.314 . S
N913 C917 1.279 . S
C914 C912 1.348 . S
C914 C916 1.353 . S
C914 H956 0.929 . S
C915 C912 1.356 . S
C915 C917 1.358 . S
C915 H957 0.930 . S
C916 N913 1.314 . S
C916 C914 1.353 . S
C916 H958 0.930 . S
C917 N913 1.279 . S
C917 C915 1.358 . S
C917 H959 0.930 . S
C918 C919 1.348 . S
C918 C920 1.356 . S
C918 O943 1.325 . S
C919 C918 1.348 . S
C919 C921 1.353 . S
C919 H960 0.929 . S
C920 C918 1.356 . S
C920 C922 1.358 . S
C920 H961 0.930 . S
C921 C919 1.353 . S
C921 N923 1.314 . S
C921 H962 0.930 . S
C922 C920 1.358 . S
C922 N923 1.279 . S
C922 H963 0.930 . S
N923 C921 1.314 . S
N923 C922 1.279 . S
C924 C926 1.353 . S
C924 N927 1.314 . S
C924 H930 0.930 . S
C925 N927 1.279 . S
C925 C928 1.358 . S
C925 H931 0.930 . S
C926 C924 1.353 . S
C926 C929 1.348 . S
C926 H964 0.929 . S
N927 Li882 1.990 . S
N927 C924 1.314 . S
N927 C925 1.279 . S
C928 C925 1.358 . S
C928 C929 1.356 . S
C928 H965 0.930 . S
C929 C926 1.348 . S
C929 C928 1.356 . S
H930 C924 0.930 . S
H931 C925 0.930 . S
C932 N933 1.314 . S
C932 C934 1.353 . S
C932 H938 0.930 . S
N933 Li883 1.990 . S
N933 C932 1.314 . S
N933 C936 1.279 . S
C934 C932 1.353 . S
C934 C937 1.348 . S
C934 H966 0.929 . S
C935 C936 1.358 . S
C935 C937 1.356 . S
C935 H967 0.930 . S
C936 N933 1.279 . S
C936 C935 1.358 . S
C936 H939 0.930 . S
C937 C934 1.348 . S
C937 C935 1.356 . S
H938 C932 0.930 . S
H939 C936 0.930 . S
O940 Li880 1.956 . S
O940 Li881 1.970 . S
O940 Li882 1.961 . S
O940 C884 1.325 . S
O941 Li880 1.970 . S
O941 Li881 1.956 . S
O941 Li883 1.961 . S
O941 C890 1.325 . S
O942 Li880 1.961 . S
O942 Li882 1.956 . S
O942 Li883 1.970 . S
O942 C912 1.325 . S
O943 Li881 1.961 . S
O943 Li882 1.970 . S
O943 Li883 1.956 . S
O943 C918 1.325 . S
H944 C886 0.929 . S
H945 C887 0.930 . S
H946 C888 0.930 . S
H947 C889 0.930 . S
H948 C891 0.930 . S
H949 C893 0.929 . S
H950 C894 0.930 . S
H951 C895 0.930 . S
H952 C898 0.930 . S
H953 C901 0.929 . S
H954 C906 0.929 . S
H955 C907 0.930 . S
H956 C914 0.929 . S
H957 C915 0.930 . S
H958 C916 0.930 . S
H959 C917 0.930 . S
H960 C919 0.929 . S
H961 C920 0.930 . S
H962 C921 0.930 . S
H963 C922 0.930 . S
H964 C926 0.929 . S
H965 C928 0.930 . S
H966 C934 0.929 . S
H967 C935 0.930 . S
Li968 N985 1.990 . S
Li968 O1028 1.956 . S
Li968 O1029 1.970 . S
Li968 O1030 1.961 . S
Li969 N993 1.990 . S
Li969 O1028 1.970 . S
Li969 O1029 1.956 . S
Li969 O1031 1.961 . S
Li970 N1015 1.990 . S
Li970 O1028 1.961 . S
Li970 O1030 1.956 . S
Li970 O1031 1.970 . S
Li971 N1021 1.990 . S
Li971 O1029 1.961 . S
Li971 O1030 1.970 . S
Li971 O1031 1.956 . S
C972 C974 1.348 . S
C972 C975 1.356 . S
C972 O1028 1.325 . S
N973 C976 1.314 . S
N973 C977 1.279 . S
C974 C972 1.348 . S
C974 C976 1.353 . S
C974 H1032 0.929 . S
C975 C972 1.356 . S
C975 C977 1.358 . S
C975 H1033 0.930 . S
C976 N973 1.314 . S
C976 C974 1.353 . S
C976 H1034 0.930 . S
C977 N973 1.279 . S
C977 C975 1.358 . S
C977 H1035 0.930 . S
C978 C981 1.348 . S
C978 C982 1.356 . S
C978 O1029 1.325 . S
C979 N980 1.279 . S
C979 C982 1.358 . S
C979 H1036 0.930 . S
N980 C979 1.279 . S
N980 C983 1.314 . S
C981 C978 1.348 . S
C981 C983 1.353 . S
C981 H1037 0.929 . S
C982 C978 1.356 . S
C982 C979 1.358 . S
C982 H1038 0.930 . S
C983 N980 1.314 . S
C983 C981 1.353 . S
C983 H1039 0.930 . S
C984 N985 1.314 . S
C984 C989 1.353 . S
C984 H990 0.930 . S
N985 Li968 1.990 . S
N985 C984 1.314 . S
N985 C987 1.279 . S
C986 C987 1.358 . S
C986 C988 1.356 . S
C986 H1040 0.930 . S
C987 N985 1.279 . S
C987 C986 1.358 . S
C987 H991 0.930 . S
C988 C986 1.356 . S
C988 C989 1.348 . S
C989 C984 1.353 . S
C989 C988 1.348 . S
C989 H1041 0.929 . S
H990 C984 0.930 . S
H991 C987 0.930 . S
C992 N993 1.314 . S
C992 C994 1.353 . S
C992 H998 0.930 . S
N993 Li969 1.990 . S
N993 C992 1.314 . S
N993 C996 1.279 . S
C994 C992 1.353 . S
C994 C997 1.348 . S
C994 H1042 0.929 . S
C995 C996 1.358 . S
C995 C997 1.356 . S
C995 H1043 0.930 . S
C996 N993 1.279 . S
C996 C995 1.358 . S
C996 H999 0.930 . S
C997 C994 1.348 . S
C997 C995 1.356 . S
H998 C992 0.930 . S
H999 C996 0.930 . S
C1000 C1002 1.348 . S
C1000 C1003 1.356 . S
C1000 O1030 1.325 . S
N1001 C1004 1.314 . S
N1001 C1005 1.279 . S
C1002 C1000 1.348 . S
C1002 C1004 1.353 . S
C1002 H1044 0.929 . S
C1003 C1000 1.356 . S
C1003 C1005 1.358 . S
C1003 H1045 0.930 . S
C1004 N1001 1.314 . S
C1004 C1002 1.353 . S
C1004 H1046 0.930 . S
C1005 N1001 1.279 . S
C1005 C1003 1.358 . S
C1005 H1047 0.930 . S
C1006 C1007 1.348 . S
C1006 C1008 1.356 . S
C1006 O1031 1.325 . S
C1007 C1006 1.348 . S
C1007 C1009 1.353 . S
C1007 H1048 0.929 . S
C1008 C1006 1.356 . S
C1008 C1010 1.358 . S
C1008 H1049 0.930 . S
C1009 C1007 1.353 . S
C1009 N1011 1.314 . S
C1009 H1050 0.930 . S
C1010 C1008 1.358 . S
C1010 N1011 1.279 . S
C1010 H1051 0.930 . S
N1011 C1009 1.314 . S
N1011 C1010 1.279 . S
C1012 C1014 1.353 . S
C1012 N1015 1.314 . S
C1012 H1018 0.930 . S
C1013 N1015 1.279 . S
C1013 C1016 1.358 . S
C1013 H1019 0.930 . S
C1014 C1012 1.353 . S
C1014 C1017 1.348 . S
C1014 H1052 0.929 . S
N1015 Li970 1.990 . S
N1015 C1012 1.314 . S
N1015 C1013 1.279 . S
C1016 C1013 1.358 . S
C1016 C1017 1.356 . S
C1016 H1053 0.930 . S
C1017 C1014 1.348 . S
C1017 C1016 1.356 . S
H1018 C1012 0.930 . S
H1019 C1013 0.930 . S
C1020 N1021 1.314 . S
C1020 C1022 1.353 . S
C1020 H1026 0.930 . S
N1021 Li971 1.990 . S
N1021 C1020 1.314 . S
N1021 C1024 1.279 . S
C1022 C1020 1.353 . S
C1022 C1025 1.348 . S
C1022 H1054 0.929 . S
C1023 C1024 1.358 . S
C1023 C1025 1.356 . S
C1023 H1055 0.930 . S
C1024 N1021 1.279 . S
C1024 C1023 1.358 . S
C1024 H1027 0.930 . S
C1025 C1022 1.348 . S
C1025 C1023 1.356 . S
H1026 C1020 0.930 . S
H1027 C1024 0.930 . S
O1028 Li968 1.956 . S
O1028 Li969 1.970 . S
O1028 Li970 1.961 . S
O1028 C972 1.325 . S
O1029 Li968 1.970 . S
O1029 Li969 1.956 . S
O1029 Li971 1.961 . S
O1029 C978 1.325 . S
O1030 Li968 1.961 . S
O1030 Li970 1.956 . S
O1030 Li971 1.970 . S
O1030 C1000 1.325 . S
O1031 Li969 1.961 . S
O1031 Li970 1.970 . S
O1031 Li971 1.956 . S
O1031 C1006 1.325 . S
H1032 C974 0.929 . S
H1033 C975 0.930 . S
H1034 C976 0.930 . S
H1035 C977 0.930 . S
H1036 C979 0.930 . S
H1037 C981 0.929 . S
H1038 C982 0.930 . S
H1039 C983 0.930 . S
H1040 C986 0.930 . S
H1041 C989 0.929 . S
H1042 C994 0.929 . S
H1043 C995 0.930 . S
H1044 C1002 0.929 . S
H1045 C1003 0.930 . S
H1046 C1004 0.930 . S
H1047 C1005 0.930 . S
H1048 C1007 0.929 . S
H1049 C1008 0.930 . S
H1050 C1009 0.930 . S
H1051 C1010 0.930 . S
H1052 C1014 0.929 . S
H1053 C1016 0.930 . S
H1054 C1022 0.929 . S
H1055 C1023 0.930 . S
Li1056 N1073 1.990 . S
Li1056 O1116 1.956 . S
Li1056 O1117 1.970 . S
Li1056 O1118 1.961 . S
Li1057 N1081 1.990 . S
Li1057 O1116 1.970 . S
Li1057 O1117 1.956 . S
Li1057 O1119 1.961 . S
Li1058 N1103 1.990 . S
Li1058 O1116 1.961 . S
Li1058 O1118 1.956 . S
Li1058 O1119 1.970 . S
Li1059 N1109 1.990 . S
Li1059 O1117 1.961 . S
Li1059 O1118 1.970 . S
Li1059 O1119 1.956 . S
C1060 C1062 1.348 . S
C1060 C1063 1.356 . S
C1060 O1116 1.325 . S
N1061 C1064 1.314 . S
N1061 C1065 1.279 . S
C1062 C1060 1.348 . S
C1062 C1064 1.353 . S
C1062 H1120 0.929 . S
C1063 C1060 1.356 . S
C1063 C1065 1.358 . S
C1063 H1121 0.930 . S
C1064 N1061 1.314 . S
C1064 C1062 1.353 . S
C1064 H1122 0.930 . S
C1065 N1061 1.279 . S
C1065 C1063 1.358 . S
C1065 H1123 0.930 . S
C1066 C1069 1.348 . S
C1066 C1070 1.356 . S
C1066 O1117 1.325 . S
C1067 N1068 1.279 . S
C1067 C1070 1.358 . S
C1067 H1124 0.930 . S
N1068 C1067 1.279 . S
N1068 C1071 1.314 . S
C1069 C1066 1.348 . S
C1069 C1071 1.353 . S
C1069 H1125 0.929 . S
C1070 C1066 1.356 . S
C1070 C1067 1.358 . S
C1070 H1126 0.930 . S
C1071 N1068 1.314 . S
C1071 C1069 1.353 . S
C1071 H1127 0.930 . S
C1072 N1073 1.314 . S
C1072 C1077 1.353 . S
C1072 H1078 0.930 . S
N1073 Li1056 1.990 . S
N1073 C1072 1.314 . S
N1073 C1075 1.279 . S
C1074 C1075 1.358 . S
C1074 C1076 1.356 . S
C1074 H1128 0.930 . S
C1075 N1073 1.279 . S
C1075 C1074 1.358 . S
C1075 H1079 0.930 . S
C1076 C1074 1.356 . S
C1076 C1077 1.348 . S
C1077 C1072 1.353 . S
C1077 C1076 1.348 . S
C1077 H1129 0.929 . S
H1078 C1072 0.930 . S
H1079 C1075 0.930 . S
C1080 N1081 1.314 . S
C1080 C1082 1.353 . S
C1080 H1086 0.930 . S
N1081 Li1057 1.990 . S
N1081 C1080 1.314 . S
N1081 C1084 1.279 . S
C1082 C1080 1.353 . S
C1082 C1085 1.348 . S
C1082 H1130 0.929 . S
C1083 C1084 1.358 . S
C1083 C1085 1.356 . S
C1083 H1131 0.930 . S
C1084 N1081 1.279 . S
C1084 C1083 1.358 . S
C1084 H1087 0.930 . S
C1085 C1082 1.348 . S
C1085 C1083 1.356 . S
H1086 C1080 0.930 . S
H1087 C1084 0.930 . S
C1088 C1090 1.348 . S
C1088 C1091 1.356 . S
C1088 O1118 1.325 . S
N1089 C1092 1.314 . S
N1089 C1093 1.279 . S
C1090 C1088 1.348 . S
C1090 C1092 1.353 . S
C1090 H1132 0.929 . S
C1091 C1088 1.356 . S
C1091 C1093 1.358 . S
C1091 H1133 0.930 . S
C1092 N1089 1.314 . S
C1092 C1090 1.353 . S
C1092 H1134 0.930 . S
C1093 N1089 1.279 . S
C1093 C1091 1.358 . S
C1093 H1135 0.930 . S
C1094 C1095 1.348 . S
C1094 C1096 1.356 . S
C1094 O1119 1.325 . S
C1095 C1094 1.348 . S
C1095 C1097 1.353 . S
C1095 H1136 0.929 . S
C1096 C1094 1.356 . S
C1096 C1098 1.358 . S
C1096 H1137 0.930 . S
C1097 C1095 1.353 . S
C1097 N1099 1.314 . S
C1097 H1138 0.930 . S
C1098 C1096 1.358 . S
C1098 N1099 1.279 . S
C1098 H1139 0.930 . S
N1099 C1097 1.314 . S
N1099 C1098 1.279 . S
C1100 C1102 1.353 . S
C1100 N1103 1.314 . S
C1100 H1106 0.930 . S
C1101 N1103 1.279 . S
C1101 C1104 1.358 . S
C1101 H1107 0.930 . S
C1102 C1100 1.353 . S
C1102 C1105 1.348 . S
C1102 H1140 0.929 . S
N1103 Li1058 1.990 . S
N1103 C1100 1.314 . S
N1103 C1101 1.279 . S
C1104 C1101 1.358 . S
C1104 C1105 1.356 . S
C1104 H1141 0.930 . S
C1105 C1102 1.348 . S
C1105 C1104 1.356 . S
H1106 C1100 0.930 . S
H1107 C1101 0.930 . S
C1108 N1109 1.314 . S
C1108 C1110 1.353 . S
C1108 H1114 0.930 . S
N1109 Li1059 1.990 . S
N1109 C1108 1.314 . S
N1109 C1112 1.279 . S
C1110 C1108 1.353 . S
C1110 C1113 1.348 . S
C1110 H1142 0.929 . S
C1111 C1112 1.358 . S
C1111 C1113 1.356 . S
C1111 H1143 0.930 . S
C1112 N1109 1.279 . S
C1112 C1111 1.358 . S
C1112 H1115 0.930 . S
C1113 C1110 1.348 . S
C1113 C1111 1.356 . S
H1114 C1108 0.930 . S
H1115 C1112 0.930 . S
O1116 Li1056 1.956 . S
O1116 Li1057 1.970 . S
O1116 Li1058 1.961 . S
O1116 C1060 1.325 . S
O1117 Li1056 1.970 . S
O1117 Li1057 1.956 . S
O1117 Li1059 1.961 . S
O1117 C1066 1.325 . S
O1118 Li1056 1.961 . S
O1118 Li1058 1.956 . S
O1118 Li1059 1.970 . S
O1118 C1088 1.325 . S
O1119 Li1057 1.961 . S
O1119 Li1058 1.970 . S
O1119 Li1059 1.956 . S
O1119 C1094 1.325 . S
H1120 C1062 0.929 . S
H1121 C1063 0.930 . S
H1122 C1064 0.930 . S
H1123 C1065 0.930 . S
H1124 C1067 0.930 . S
H1125 C1069 0.929 . S
H1126 C1070 0.930 . S
H1127 C1071 0.930 . S
H1128 C1074 0.930 . S
H1129 C1077 0.929 . S
H1130 C1082 0.929 . S
H1131 C1083 0.930 . S
H1132 C1090 0.929 . S
H1133 C1091 0.930 . S
H1134 C1092 0.930 . S
H1135 C1093 0.930 . S
H1136 C1095 0.929 . S
H1137 C1096 0.930 . S
H1138 C1097 0.930 . S
H1139 C1098 0.930 . S
H1140 C1102 0.929 . S
H1141 C1104 0.930 . S
H1142 C1110 0.929 . S
H1143 C1111 0.930 . S
Li1144 N1161 1.990 . S
Li1144 O1204 1.956 . S
Li1144 O1205 1.970 . S
Li1144 O1206 1.961 . S
Li1145 N1169 1.990 . S
Li1145 O1204 1.970 . S
Li1145 O1205 1.956 . S
Li1145 O1207 1.961 . S
Li1146 N1191 1.990 . S
Li1146 O1204 1.961 . S
Li1146 O1206 1.956 . S
Li1146 O1207 1.970 . S
Li1147 N1197 1.990 . S
Li1147 O1205 1.961 . S
Li1147 O1206 1.970 . S
Li1147 O1207 1.956 . S
C1148 C1150 1.348 . S
C1148 C1151 1.356 . S
C1148 O1204 1.325 . S
N1149 C1152 1.314 . S
N1149 C1153 1.279 . S
C1150 C1148 1.348 . S
C1150 C1152 1.353 . S
C1150 H1208 0.929 . S
C1151 C1148 1.356 . S
C1151 C1153 1.358 . S
C1151 H1209 0.930 . S
C1152 N1149 1.314 . S
C1152 C1150 1.353 . S
C1152 H1210 0.930 . S
C1153 N1149 1.279 . S
C1153 C1151 1.358 . S
C1153 H1211 0.930 . S
C1154 C1157 1.348 . S
C1154 C1158 1.356 . S
C1154 O1205 1.325 . S
C1155 N1156 1.279 . S
C1155 C1158 1.358 . S
C1155 H1212 0.930 . S
N1156 C1155 1.279 . S
N1156 C1159 1.314 . S
C1157 C1154 1.348 . S
C1157 C1159 1.353 . S
C1157 H1213 0.929 . S
C1158 C1154 1.356 . S
C1158 C1155 1.358 . S
C1158 H1214 0.930 . S
C1159 N1156 1.314 . S
C1159 C1157 1.353 . S
C1159 H1215 0.930 . S
C1160 N1161 1.314 . S
C1160 C1165 1.353 . S
C1160 H1166 0.930 . S
N1161 Li1144 1.990 . S
N1161 C1160 1.314 . S
N1161 C1163 1.279 . S
C1162 C1163 1.358 . S
C1162 C1164 1.356 . S
C1162 H1216 0.930 . S
C1163 N1161 1.279 . S
C1163 C1162 1.358 . S
C1163 H1167 0.930 . S
C1164 C1162 1.356 . S
C1164 C1165 1.348 . S
C1165 C1160 1.353 . S
C1165 C1164 1.348 . S
C1165 H1217 0.929 . S
H1166 C1160 0.930 . S
H1167 C1163 0.930 . S
C1168 N1169 1.314 . S
C1168 C1170 1.353 . S
C1168 H1174 0.930 . S
N1169 Li1145 1.990 . S
N1169 C1168 1.314 . S
N1169 C1172 1.279 . S
C1170 C1168 1.353 . S
C1170 C1173 1.348 . S
C1170 H1218 0.929 . S
C1171 C1172 1.358 . S
C1171 C1173 1.356 . S
C1171 H1219 0.930 . S
C1172 N1169 1.279 . S
C1172 C1171 1.358 . S
C1172 H1175 0.930 . S
C1173 C1170 1.348 . S
C1173 C1171 1.356 . S
H1174 C1168 0.930 . S
H1175 C1172 0.930 . S
C1176 C1178 1.348 . S
C1176 C1179 1.356 . S
C1176 O1206 1.325 . S
N1177 C1180 1.314 . S
N1177 C1181 1.279 . S
C1178 C1176 1.348 . S
C1178 C1180 1.353 . S
C1178 H1220 0.929 . S
C1179 C1176 1.356 . S
C1179 C1181 1.358 . S
C1179 H1221 0.930 . S
C1180 N1177 1.314 . S
C1180 C1178 1.353 . S
C1180 H1222 0.930 . S
C1181 N1177 1.279 . S
C1181 C1179 1.358 . S
C1181 H1223 0.930 . S
C1182 C1183 1.348 . S
C1182 C1184 1.356 . S
C1182 O1207 1.325 . S
C1183 C1182 1.348 . S
C1183 C1185 1.353 . S
C1183 H1224 0.929 . S
C1184 C1182 1.356 . S
C1184 C1186 1.358 . S
C1184 H1225 0.930 . S
C1185 C1183 1.353 . S
C1185 N1187 1.314 . S
C1185 H1226 0.930 . S
C1186 C1184 1.358 . S
C1186 N1187 1.279 . S
C1186 H1227 0.930 . S
N1187 C1185 1.314 . S
N1187 C1186 1.279 . S
C1188 C1190 1.353 . S
C1188 N1191 1.314 . S
C1188 H1194 0.930 . S
C1189 N1191 1.279 . S
C1189 C1192 1.358 . S
C1189 H1195 0.930 . S
C1190 C1188 1.353 . S
C1190 C1193 1.348 . S
C1190 H1228 0.929 . S
N1191 Li1146 1.990 . S
N1191 C1188 1.314 . S
N1191 C1189 1.279 . S
C1192 C1189 1.358 . S
C1192 C1193 1.356 . S
C1192 H1229 0.930 . S
C1193 C1190 1.348 . S
C1193 C1192 1.356 . S
H1194 C1188 0.930 . S
H1195 C1189 0.930 . S
C1196 N1197 1.314 . S
C1196 C1198 1.353 . S
C1196 H1202 0.930 . S
N1197 Li1147 1.990 . S
N1197 C1196 1.314 . S
N1197 C1200 1.279 . S
C1198 C1196 1.353 . S
C1198 C1201 1.348 . S
C1198 H1230 0.929 . S
C1199 C1200 1.358 . S
C1199 C1201 1.356 . S
C1199 H1231 0.930 . S
C1200 N1197 1.279 . S
C1200 C1199 1.358 . S
C1200 H1203 0.930 . S
C1201 C1198 1.348 . S
C1201 C1199 1.356 . S
H1202 C1196 0.930 . S
H1203 C1200 0.930 . S
O1204 Li1144 1.956 . S
O1204 Li1145 1.970 . S
O1204 Li1146 1.961 . S
O1204 C1148 1.325 . S
O1205 Li1144 1.970 . S
O1205 Li1145 1.956 . S
O1205 Li1147 1.961 . S
O1205 C1154 1.325 . S
O1206 Li1144 1.961 . S
O1206 Li1146 1.956 . S
O1206 Li1147 1.970 . S
O1206 C1176 1.325 . S
O1207 Li1145 1.961 . S
O1207 Li1146 1.970 . S
O1207 Li1147 1.956 . S
O1207 C1182 1.325 . S
H1208 C1150 0.929 . S
H1209 C1151 0.930 . S
H1210 C1152 0.930 . S
H1211 C1153 0.930 . S
H1212 C1155 0.930 . S
H1213 C1157 0.929 . S
H1214 C1158 0.930 . S
H1215 C1159 0.930 . S
H1216 C1162 0.930 . S
H1217 C1165 0.929 . S
H1218 C1170 0.929 . S
H1219 C1171 0.930 . S
H1220 C1178 0.929 . S
H1221 C1179 0.930 . S
H1222 C1180 0.930 . S
H1223 C1181 0.930 . S
H1224 C1183 0.929 . S
H1225 C1184 0.930 . S
H1226 C1185 0.930 . S
H1227 C1186 0.930 . S
H1228 C1190 0.929 . S
H1229 C1192 0.930 . S
H1230 C1198 0.929 . S
H1231 C1199 0.930 . S
Li1232 N1249 1.990 . S
Li1232 O1292 1.956 . S
Li1232 O1293 1.970 . S
Li1232 O1294 1.961 . S
Li1233 N1257 1.990 . S
Li1233 O1292 1.970 . S
Li1233 O1293 1.956 . S
Li1233 O1295 1.961 . S
Li1234 N1279 1.990 . S
Li1234 O1292 1.961 . S
Li1234 O1294 1.956 . S
Li1234 O1295 1.970 . S
Li1235 N1285 1.990 . S
Li1235 O1293 1.961 . S
Li1235 O1294 1.970 . S
Li1235 O1295 1.956 . S
C1236 C1238 1.348 . S
C1236 C1239 1.356 . S
C1236 O1292 1.325 . S
N1237 C1240 1.314 . S
N1237 C1241 1.279 . S
C1238 C1236 1.348 . S
C1238 C1240 1.353 . S
C1238 H1296 0.929 . S
C1239 C1236 1.356 . S
C1239 C1241 1.358 . S
C1239 H1297 0.930 . S
C1240 N1237 1.314 . S
C1240 C1238 1.353 . S
C1240 H1298 0.930 . S
C1241 N1237 1.279 . S
C1241 C1239 1.358 . S
C1241 H1299 0.930 . S
C1242 C1245 1.348 . S
C1242 C1246 1.356 . S
C1242 O1293 1.325 . S
C1243 N1244 1.279 . S
C1243 C1246 1.358 . S
C1243 H1300 0.930 . S
N1244 C1243 1.279 . S
N1244 C1247 1.314 . S
C1245 C1242 1.348 . S
C1245 C1247 1.353 . S
C1245 H1301 0.929 . S
C1246 C1242 1.356 . S
C1246 C1243 1.358 . S
C1246 H1302 0.930 . S
C1247 N1244 1.314 . S
C1247 C1245 1.353 . S
C1247 H1303 0.930 . S
C1248 N1249 1.314 . S
C1248 C1253 1.353 . S
C1248 H1254 0.930 . S
N1249 Li1232 1.990 . S
N1249 C1248 1.314 . S
N1249 C1251 1.279 . S
C1250 C1251 1.358 . S
C1250 C1252 1.356 . S
C1250 H1304 0.930 . S
C1251 N1249 1.279 . S
C1251 C1250 1.358 . S
C1251 H1255 0.930 . S
C1252 C1250 1.356 . S
C1252 C1253 1.348 . S
C1253 C1248 1.353 . S
C1253 C1252 1.348 . S
C1253 H1305 0.929 . S
H1254 C1248 0.930 . S
H1255 C1251 0.930 . S
C1256 N1257 1.314 . S
C1256 C1258 1.353 . S
C1256 H1262 0.930 . S
N1257 Li1233 1.990 . S
N1257 C1256 1.314 . S
N1257 C1260 1.279 . S
C1258 C1256 1.353 . S
C1258 C1261 1.348 . S
C1258 H1306 0.929 . S
C1259 C1260 1.358 . S
C1259 C1261 1.356 . S
C1259 H1307 0.930 . S
C1260 N1257 1.279 . S
C1260 C1259 1.358 . S
C1260 H1263 0.930 . S
C1261 C1258 1.348 . S
C1261 C1259 1.356 . S
H1262 C1256 0.930 . S
H1263 C1260 0.930 . S
C1264 C1266 1.348 . S
C1264 C1267 1.356 . S
C1264 O1294 1.325 . S
N1265 C1268 1.314 . S
N1265 C1269 1.279 . S
C1266 C1264 1.348 . S
C1266 C1268 1.353 . S
C1266 H1308 0.929 . S
C1267 C1264 1.356 . S
C1267 C1269 1.358 . S
C1267 H1309 0.930 . S
C1268 N1265 1.314 . S
C1268 C1266 1.353 . S
C1268 H1310 0.930 . S
C1269 N1265 1.279 . S
C1269 C1267 1.358 . S
C1269 H1311 0.930 . S
C1270 C1271 1.348 . S
C1270 C1272 1.356 . S
C1270 O1295 1.325 . S
C1271 C1270 1.348 . S
C1271 C1273 1.353 . S
C1271 H1312 0.929 . S
C1272 C1270 1.356 . S
C1272 C1274 1.358 . S
C1272 H1313 0.930 . S
C1273 C1271 1.353 . S
C1273 N1275 1.314 . S
C1273 H1314 0.930 . S
C1274 C1272 1.358 . S
C1274 N1275 1.279 . S
C1274 H1315 0.930 . S
N1275 C1273 1.314 . S
N1275 C1274 1.279 . S
C1276 C1278 1.353 . S
C1276 N1279 1.314 . S
C1276 H1282 0.930 . S
C1277 N1279 1.279 . S
C1277 C1280 1.358 . S
C1277 H1283 0.930 . S
C1278 C1276 1.353 . S
C1278 C1281 1.348 . S
C1278 H1316 0.929 . S
N1279 Li1234 1.990 . S
N1279 C1276 1.314 . S
N1279 C1277 1.279 . S
C1280 C1277 1.358 . S
C1280 C1281 1.356 . S
C1280 H1317 0.930 . S
C1281 C1278 1.348 . S
C1281 C1280 1.356 . S
H1282 C1276 0.930 . S
H1283 C1277 0.930 . S
C1284 N1285 1.314 . S
C1284 C1286 1.353 . S
C1284 H1290 0.930 . S
N1285 Li1235 1.990 . S
N1285 C1284 1.314 . S
N1285 C1288 1.279 . S
C1286 C1284 1.353 . S
C1286 C1289 1.348 . S
C1286 H1318 0.929 . S
C1287 C1288 1.358 . S
C1287 C1289 1.356 . S
C1287 H1319 0.930 . S
C1288 N1285 1.279 . S
C1288 C1287 1.358 . S
C1288 H1291 0.930 . S
C1289 C1286 1.348 . S
C1289 C1287 1.356 . S
H1290 C1284 0.930 . S
H1291 C1288 0.930 . S
O1292 Li1232 1.956 . S
O1292 Li1233 1.970 . S
O1292 Li1234 1.961 . S
O1292 C1236 1.325 . S
O1293 Li1232 1.970 . S
O1293 Li1233 1.956 . S
O1293 Li1235 1.961 . S
O1293 C1242 1.325 . S
O1294 Li1232 1.961 . S
O1294 Li1234 1.956 . S
O1294 Li1235 1.970 . S
O1294 C1264 1.325 . S
O1295 Li1233 1.961 . S
O1295 Li1234 1.970 . S
O1295 Li1235 1.956 . S
O1295 C1270 1.325 . S
H1296 C1238 0.929 . S
H1297 C1239 0.930 . S
H1298 C1240 0.930 . S
H1299 C1241 0.930 . S
H1300 C1243 0.930 . S
H1301 C1245 0.929 . S
H1302 C1246 0.930 . S
H1303 C1247 0.930 . S
H1304 C1250 0.930 . S
H1305 C1253 0.929 . S
H1306 C1258 0.929 . S
H1307 C1259 0.930 . S
H1308 C1266 0.929 . S
H1309 C1267 0.930 . S
H1310 C1268 0.930 . S
H1311 C1269 0.930 . S
H1312 C1271 0.929 . S
H1313 C1272 0.930 . S
H1314 C1273 0.930 . S
H1315 C1274 0.930 . S
H1316 C1278 0.929 . S
H1317 C1280 0.930 . S
H1318 C1286 0.929 . S
H1319 C1287 0.930 . S
Li1320 N1337 1.990 . S
Li1320 O1380 1.956 . S
Li1320 O1381 1.970 . S
Li1320 O1382 1.961 . S
Li1321 N1345 1.990 . S
Li1321 O1380 1.970 . S
Li1321 O1381 1.956 . S
Li1321 O1383 1.961 . S
Li1322 N1367 1.990 . S
Li1322 O1380 1.961 . S
Li1322 O1382 1.956 . S
Li1322 O1383 1.970 . S
Li1323 N1373 1.990 . S
Li1323 O1381 1.961 . S
Li1323 O1382 1.970 . S
Li1323 O1383 1.956 . S
C1324 C1326 1.348 . S
C1324 C1327 1.356 . S
C1324 O1380 1.325 . S
N1325 C1328 1.314 . S
N1325 C1329 1.279 . S
C1326 C1324 1.348 . S
C1326 C1328 1.353 . S
C1326 H1384 0.929 . S
C1327 C1324 1.356 . S
C1327 C1329 1.358 . S
C1327 H1385 0.930 . S
C1328 N1325 1.314 . S
C1328 C1326 1.353 . S
C1328 H1386 0.930 . S
C1329 N1325 1.279 . S
C1329 C1327 1.358 . S
C1329 H1387 0.930 . S
C1330 C1333 1.348 . S
C1330 C1334 1.356 . S
C1330 O1381 1.325 . S
C1331 N1332 1.279 . S
C1331 C1334 1.358 . S
C1331 H1388 0.930 . S
N1332 C1331 1.279 . S
N1332 C1335 1.314 . S
C1333 C1330 1.348 . S
C1333 C1335 1.353 . S
C1333 H1389 0.929 . S
C1334 C1330 1.356 . S
C1334 C1331 1.358 . S
C1334 H1390 0.930 . S
C1335 N1332 1.314 . S
C1335 C1333 1.353 . S
C1335 H1391 0.930 . S
C1336 N1337 1.314 . S
C1336 C1341 1.353 . S
C1336 H1342 0.930 . S
N1337 Li1320 1.990 . S
N1337 C1336 1.314 . S
N1337 C1339 1.279 . S
C1338 C1339 1.358 . S
C1338 C1340 1.356 . S
C1338 H1392 0.930 . S
C1339 N1337 1.279 . S
C1339 C1338 1.358 . S
C1339 H1343 0.930 . S
C1340 C1338 1.356 . S
C1340 C1341 1.348 . S
C1341 C1336 1.353 . S
C1341 C1340 1.348 . S
C1341 H1393 0.929 . S
H1342 C1336 0.930 . S
H1343 C1339 0.930 . S
C1344 N1345 1.314 . S
C1344 C1346 1.353 . S
C1344 H1350 0.930 . S
N1345 Li1321 1.990 . S
N1345 C1344 1.314 . S
N1345 C1348 1.279 . S
C1346 C1344 1.353 . S
C1346 C1349 1.348 . S
C1346 H1394 0.929 . S
C1347 C1348 1.358 . S
C1347 C1349 1.356 . S
C1347 H1395 0.930 . S
C1348 N1345 1.279 . S
C1348 C1347 1.358 . S
C1348 H1351 0.930 . S
C1349 C1346 1.348 . S
C1349 C1347 1.356 . S
H1350 C1344 0.930 . S
H1351 C1348 0.930 . S
C1352 C1354 1.348 . S
C1352 C1355 1.356 . S
C1352 O1382 1.325 . S
N1353 C1356 1.314 . S
N1353 C1357 1.279 . S
C1354 C1352 1.348 . S
C1354 C1356 1.353 . S
C1354 H1396 0.929 . S
C1355 C1352 1.356 . S
C1355 C1357 1.358 . S
C1355 H1397 0.930 . S
C1356 N1353 1.314 . S
C1356 C1354 1.353 . S
C1356 H1398 0.930 . S
C1357 N1353 1.279 . S
C1357 C1355 1.358 . S
C1357 H1399 0.930 . S
C1358 C1359 1.348 . S
C1358 C1360 1.356 . S
C1358 O1383 1.325 . S
C1359 C1358 1.348 . S
C1359 C1361 1.353 . S
C1359 H1400 0.929 . S
C1360 C1358 1.356 . S
C1360 C1362 1.358 . S
C1360 H1401 0.930 . S
C1361 C1359 1.353 . S
C1361 N1363 1.314 . S
C1361 H1402 0.930 . S
C1362 C1360 1.358 . S
C1362 N1363 1.279 . S
C1362 H1403 0.930 . S
N1363 C1361 1.314 . S
N1363 C1362 1.279 . S
C1364 C1366 1.353 . S
C1364 N1367 1.314 . S
C1364 H1370 0.930 . S
C1365 N1367 1.279 . S
C1365 C1368 1.358 . S
C1365 H1371 0.930 . S
C1366 C1364 1.353 . S
C1366 C1369 1.348 . S
C1366 H1404 0.929 . S
N1367 Li1322 1.990 . S
N1367 C1364 1.314 . S
N1367 C1365 1.279 . S
C1368 C1365 1.358 . S
C1368 C1369 1.356 . S
C1368 H1405 0.930 . S
C1369 C1366 1.348 . S
C1369 C1368 1.356 . S
H1370 C1364 0.930 . S
H1371 C1365 0.930 . S
C1372 N1373 1.314 . S
C1372 C1374 1.353 . S
C1372 H1378 0.930 . S
N1373 Li1323 1.990 . S
N1373 C1372 1.314 . S
N1373 C1376 1.279 . S
C1374 C1372 1.353 . S
C1374 C1377 1.348 . S
C1374 H1406 0.929 . S
C1375 C1376 1.358 . S
C1375 C1377 1.356 . S
C1375 H1407 0.930 . S
C1376 N1373 1.279 . S
C1376 C1375 1.358 . S
C1376 H1379 0.930 . S
C1377 C1374 1.348 . S
C1377 C1375 1.356 . S
H1378 C1372 0.930 . S
H1379 C1376 0.930 . S
O1380 Li1320 1.956 . S
O1380 Li1321 1.970 . S
O1380 Li1322 1.961 . S
O1380 C1324 1.325 . S
O1381 Li1320 1.970 . S
O1381 Li1321 1.956 . S
O1381 Li1323 1.961 . S
O1381 C1330 1.325 . S
O1382 Li1320 1.961 . S
O1382 Li1322 1.956 . S
O1382 Li1323 1.970 . S
O1382 C1352 1.325 . S
O1383 Li1321 1.961 . S
O1383 Li1322 1.970 . S
O1383 Li1323 1.956 . S
O1383 C1358 1.325 . S
H1384 C1326 0.929 . S
H1385 C1327 0.930 . S
H1386 C1328 0.930 . S
H1387 C1329 0.930 . S
H1388 C1331 0.930 . S
H1389 C1333 0.929 . S
H1390 C1334 0.930 . S
H1391 C1335 0.930 . S
H1392 C1338 0.930 . S
H1393 C1341 0.929 . S
H1394 C1346 0.929 . S
H1395 C1347 0.930 . S
H1396 C1354 0.929 . S
H1397 C1355 0.930 . S
H1398 C1356 0.930 . S
H1399 C1357 0.930 . S
H1400 C1359 0.929 . S
H1401 C1360 0.930 . S
H1402 C1361 0.930 . S
H1403 C1362 0.930 . S
H1404 C1366 0.929 . S
H1405 C1368 0.930 . S
H1406 C1374 0.929 . S
H1407 C1375 0.930 . S
C1377 C29 0.252 . S
C1105 C108 0.249 . S
C233 C1193 0.273 . S
C1289 C293 0.251 . S
C821 C401 0.249 . S
C489 C937 0.273 . S
C577 C997 0.251 . S
C673 C724 0.252 . S
C460 C20 1.627 1_556 S
C557 C145 1.623 1_556 S
C645 C225 1.634 1_556 S
C321 C381 1.635 1_554 S
C57 C137 1.647 1_455 S
C196 C117 1.623 1_565 S
C205 C284 1.635 1_655 S
C49 C313 1.607 1_545 S
C665 C409 1.615 1_655 S
C372 C469 1.637 1_565 S
C497 C585 1.628 1_455 S
C636 C548 1.650 1_565 S
C1164 C733 1.627 . S
C841 C1252 1.623 . S
C1349 C929 1.634 . S
C1085 C1025 1.635 . S
C753 C849 1.647 . S
C812 C900 1.623 . S
C988 C909 1.635 . S
C761 C1017 1.607 . S
C1369 C1113 1.615 . S
C1076 C1173 1.637 . S
C1201 C1281 1.628 . S
C1340 C1261 1.650 . S
