# Generated by pormake.
# Topology whr, (6)-cn, num edge types: 1
# Building blocks:
#     Node 0, Type 0, BuildingBlock: VOLQOD_clean_sbu_1, # of connection points: 6
#     Node 1, Type 0, BuildingBlock: VOLQOD_clean_sbu_1, # of connection points: 6
#     Node 2, Type 0, BuildingBlock: VOLQOD_clean_sbu_1, # of connection points: 6
#     Node 3, Type 0, BuildingBlock: VOLQOD_clean_sbu_1, # of connection points: 6
#     Node 4, Type 0, BuildingBlock: VOLQOD_clean_sbu_1, # of connection points: 6
#     Node 5, Type 0, BuildingBlock: VOLQOD_clean_sbu_1, # of connection points: 6
#     Node 6, Type 0, BuildingBlock: VOLQOD_clean_sbu_1, # of connection points: 6
#     Node 7, Type 0, BuildingBlock: VOLQOD_clean_sbu_1, # of connection points: 6
#     Node 8, Type 0, BuildingBlock: VOLQOD_clean_sbu_1, # of connection points: 6
#     Node 9, Type 0, BuildingBlock: VOLQOD_clean_sbu_1, # of connection points: 6
#     Node 10, Type 0, BuildingBlock: VOLQOD_clean_sbu_1, # of connection points: 6
#     Node 11, Type 0, BuildingBlock: VOLQOD_clean_sbu_1, # of connection points: 6
#     Node 12, Type 0, BuildingBlock: VOLQOD_clean_sbu_1, # of connection points: 6
#     Node 13, Type 0, BuildingBlock: VOLQOD_clean_sbu_1, # of connection points: 6
#     Node 14, Type 0, BuildingBlock: VOLQOD_clean_sbu_1, # of connection points: 6
#     Node 15, Type 0, BuildingBlock: VOLQOD_clean_sbu_1, # of connection points: 6
#     Edge 16, Type (0, 0), BuildingBlock: XUDNAN_clean_linker_2, # of connection points: 2
#     Edge 17, Type (0, 0), BuildingBlock: XUDNAN_clean_linker_2, # of connection points: 2
#     Edge 18, Type (0, 0), BuildingBlock: XUDNAN_clean_linker_2, # of connection points: 2
#     Edge 19, Type (0, 0), BuildingBlock: XUDNAN_clean_linker_2, # of connection points: 2
#     Edge 20, Type (0, 0), BuildingBlock: XUDNAN_clean_linker_2, # of connection points: 2
#     Edge 21, Type (0, 0), BuildingBlock: XUDNAN_clean_linker_2, # of connection points: 2
#     Edge 22, Type (0, 0), BuildingBlock: XUDNAN_clean_linker_2, # of connection points: 2
#     Edge 23, Type (0, 0), BuildingBlock: XUDNAN_clean_linker_2, # of connection points: 2
#     Edge 24, Type (0, 0), BuildingBlock: XUDNAN_clean_linker_2, # of connection points: 2
#     Edge 25, Type (0, 0), BuildingBlock: XUDNAN_clean_linker_2, # of connection points: 2
#     Edge 26, Type (0, 0), BuildingBlock: XUDNAN_clean_linker_2, # of connection points: 2
#     Edge 27, Type (0, 0), BuildingBlock: XUDNAN_clean_linker_2, # of connection points: 2
#     Edge 28, Type (0, 0), BuildingBlock: XUDNAN_clean_linker_2, # of connection points: 2
#     Edge 29, Type (0, 0), BuildingBlock: XUDNAN_clean_linker_2, # of connection points: 2
#     Edge 30, Type (0, 0), BuildingBlock: XUDNAN_clean_linker_2, # of connection points: 2
#     Edge 31, Type (0, 0), BuildingBlock: XUDNAN_clean_linker_2, # of connection points: 2
#     Edge 32, Type (0, 0), BuildingBlock: XUDNAN_clean_linker_2, # of connection points: 2
#     Edge 33, Type (0, 0), BuildingBlock: XUDNAN_clean_linker_2, # of connection points: 2
#     Edge 34, Type (0, 0), BuildingBlock: XUDNAN_clean_linker_2, # of connection points: 2
#     Edge 35, Type (0, 0), BuildingBlock: XUDNAN_clean_linker_2, # of connection points: 2
#     Edge 36, Type (0, 0), BuildingBlock: XUDNAN_clean_linker_2, # of connection points: 2
#     Edge 37, Type (0, 0), BuildingBlock: XUDNAN_clean_linker_2, # of connection points: 2
#     Edge 38, Type (0, 0), BuildingBlock: XUDNAN_clean_linker_2, # of connection points: 2
#     Edge 39, Type (0, 0), BuildingBlock: XUDNAN_clean_linker_2, # of connection points: 2
#     Edge 40, Type (0, 0), BuildingBlock: XUDNAN_clean_linker_2, # of connection points: 2
#     Edge 41, Type (0, 0), BuildingBlock: XUDNAN_clean_linker_2, # of connection points: 2
#     Edge 42, Type (0, 0), BuildingBlock: XUDNAN_clean_linker_2, # of connection points: 2
#     Edge 43, Type (0, 0), BuildingBlock: XUDNAN_clean_linker_2, # of connection points: 2
#     Edge 44, Type (0, 0), BuildingBlock: XUDNAN_clean_linker_2, # of connection points: 2
#     Edge 45, Type (0, 0), BuildingBlock: XUDNAN_clean_linker_2, # of connection points: 2
#     Edge 46, Type (0, 0), BuildingBlock: XUDNAN_clean_linker_2, # of connection points: 2
#     Edge 47, Type (0, 0), BuildingBlock: XUDNAN_clean_linker_2, # of connection points: 2
#     Edge 48, Type (0, 0), BuildingBlock: XUDNAN_clean_linker_2, # of connection points: 2
#     Edge 49, Type (0, 0), BuildingBlock: XUDNAN_clean_linker_2, # of connection points: 2
#     Edge 50, Type (0, 0), BuildingBlock: XUDNAN_clean_linker_2, # of connection points: 2
#     Edge 51, Type (0, 0), BuildingBlock: XUDNAN_clean_linker_2, # of connection points: 2
#     Edge 52, Type (0, 0), BuildingBlock: XUDNAN_clean_linker_2, # of connection points: 2
#     Edge 53, Type (0, 0), BuildingBlock: XUDNAN_clean_linker_2, # of connection points: 2
#     Edge 54, Type (0, 0), BuildingBlock: XUDNAN_clean_linker_2, # of connection points: 2
#     Edge 55, Type (0, 0), BuildingBlock: XUDNAN_clean_linker_2, # of connection points: 2
#     Edge 56, Type (0, 0), BuildingBlock: XUDNAN_clean_linker_2, # of connection points: 2
#     Edge 57, Type (0, 0), BuildingBlock: XUDNAN_clean_linker_2, # of connection points: 2
#     Edge 58, Type (0, 0), BuildingBlock: XUDNAN_clean_linker_2, # of connection points: 2
#     Edge 59, Type (0, 0), BuildingBlock: XUDNAN_clean_linker_2, # of connection points: 2
#     Edge 60, Type (0, 0), BuildingBlock: XUDNAN_clean_linker_2, # of connection points: 2
#     Edge 61, Type (0, 0), BuildingBlock: XUDNAN_clean_linker_2, # of connection points: 2
#     Edge 62, Type (0, 0), BuildingBlock: XUDNAN_clean_linker_2, # of connection points: 2
#     Edge 63, Type (0, 0), BuildingBlock: XUDNAN_clean_linker_2, # of connection points: 2
# Relax obj value: 0.383
# Max RMSD: 0.249
# Mean RMSD: 0.247
data_MOF--net-whr--node1-VOLQOD_clean_sbu_1--edge1-XUDNAN_clean_linker_2
_symmetry_space_group_name_H-M    P1
_symmetry_Int_Tables_number       1
_symmetry_cell_setting            triclinic
loop_
_symmetry_equiv_pos_as_xyz
'x, y, z'
_cell_length_a     51.375402
_cell_length_b     51.393139
_cell_length_c     29.091455
_cell_angle_alpha  89.916663
_cell_angle_beta   89.991911
_cell_angle_gamma 90.168568
loop_
_atom_site_label
_atom_site_type_symbol
_atom_site_fract_x
_atom_site_fract_y
_atom_site_fract_z
_atom_type_partial_charge
O0 O 0.17185 0.06756 0.12583 0.0
Zn1 Zn 0.17934 0.04745 0.06722 0.0
O2 O 0.21578 0.05154 0.04812 0.0
Zn3 Zn 0.23381 0.01794 0.04604 0.0
Zn4 Zn 0.23367 0.07482 0.08967 0.0
Zn5 Zn 0.21668 0.06809 0.98889 0.0
O6 O 0.25103 0.01237 0.98192 0.0
O7 O 0.2326 0.04493 0.94362 0.0
O8 O 0.16996 0.00934 0.07325 0.0
O9 O 0.20712 0.98932 0.05593 0.0
O10 O 0.25834 0.01489 0.10174 0.0
O11 O 0.25713 0.05492 0.13045 0.0
O12 O 0.25357 0.1037 0.05883 0.0
O13 O 0.15519 0.06403 0.02114 0.0
O14 O 0.23822 0.1002 0.98815 0.0
O15 O 0.18185 0.07914 0.96751 0.0
C16 C 0.18482 0.0861 0.14392 0.0
C17 C 0.24671 0.0247 0.94433 0.0
C18 C 0.26495 0.03151 0.13232 0.0
C19 C 0.1831 0.9886 0.06712 0.0
C20 C 0.25214 0.11188 0.01767 0.0
C21 C 0.15911 0.07644 0.98387 0.0
O22 O 0.20784 0.09142 0.13078 0.0
O23 O 0.05516 0.83359 0.89768 0.0
Zn24 Zn 0.04139 0.81797 0.95587 0.0
O25 O 0.04925 0.78111 0.95808 0.0
Zn26 Zn 0.01744 0.7603 0.95764 0.0
Zn27 Zn 0.07003 0.77235 0.90527 0.0
Zn28 Zn 0.0698 0.77421 0.01235 0.0
O29 O 0.01447 0.7398 0.01786 0.0
O30 O 0.04739 0.75606 0.05882 0.0
O31 O 0.00287 0.82436 0.95723 0.0
O32 O 0.98645 0.78433 0.95459 0.0
O33 O 0.01448 0.73854 0.89872 0.0
O34 O 0.0482 0.75384 0.8592 0.0
O35 O 0.09867 0.74793 0.922 0.0
O36 O 0.06051 0.83787 0.00524 0.0
O37 O 0.099 0.74948 0.99822 0.0
O38 O 0.08507 0.80752 0.03782 0.0
C39 C 0.07382 0.82682 0.8716 0.0
C40 C 0.02703 0.74189 0.0557 0.0
C41 C 0.02748 0.74029 0.86135 0.0
C42 C 0.98345 0.80894 0.95492 0.0
C43 C 0.10788 0.74067 0.9605 0.0
C44 C 0.07869 0.83132 0.03268 0.0
O45 O 0.08392 0.80427 0.87418 0.0
O46 O 0.82881 0.93346 0.10232 0.0
Zn47 Zn 0.81258 0.94709 0.04468 0.0
O48 O 0.77535 0.94042 0.04409 0.0
Zn49 Zn 0.7571 0.97378 0.04059 0.0
Zn50 Zn 0.76572 0.92153 0.0993 0.0
Zn51 Zn 0.76707 0.91814 0.99216 0.0
O52 O 0.73773 0.97629 0.97944 0.0
O53 O 0.74774 0.93878 0.94518 0.0
O54 O 0.82148 0.98487 0.04018 0.0
O55 O 0.78272 0.00378 0.04288 0.0
O56 O 0.73421 0.97903 0.09699 0.0
O57 O 0.74376 0.94399 0.13877 0.0
O58 O 0.74456 0.88982 0.08624 0.0
O59 O 0.83065 0.92726 0.99544 0.0
O60 O 0.74353 0.88864 0.01019 0.0
O61 O 0.79978 0.90233 0.9652 0.0
C62 C 0.82077 0.91809 0.13356 0.0
C63 C 0.7366 0.96089 0.94501 0.0
C64 C 0.732 0.96552 0.13363 0.0
C65 C 0.80747 0.0052 0.04165 0.0
C66 C 0.73684 0.87945 0.04905 0.0
C67 C 0.82365 0.90885 0.96897 0.0
O68 O 0.79713 0.91075 0.13538 0.0
O69 O 0.93795 0.17233 0.87351 0.0
Zn70 Zn 0.94926 0.18073 0.93693 0.0
O71 O 0.9431 0.21681 0.94983 0.0
Zn72 Zn 0.97582 0.23634 0.94928 0.0
Zn73 Zn 0.91906 0.2303 0.90409 0.0
Zn74 Zn 0.92716 0.21805 0.00943 0.0
O75 O 0.97999 0.2563 0.01029 0.0
O76 O 0.95036 0.23618 0.05369 0.0
O77 O 0.98661 0.1723 0.94293 0.0
O78 O 0.00598 0.21108 0.94511 0.0
O79 O 0.97774 0.25894 0.89119 0.0
O80 O 0.93754 0.25551 0.86347 0.0
O81 O 0.88828 0.24817 0.93266 0.0
O82 O 0.92862 0.15703 0.97776 0.0
O83 O 0.89558 0.23947 0.00622 0.0
O84 O 0.91449 0.1833 0.03247 0.0
C85 C 0.91924 0.18121 0.84963 0.0
C86 C 0.96914 0.25223 0.04932 0.0
C87 C 0.9606 0.26445 0.86086 0.0
C88 C 0.00701 0.1863 0.94421 0.0
C89 C 0.88198 0.24989 0.97485 0.0
C90 C 0.9159 0.16077 0.01462 0.0
O91 O 0.90744 0.20202 0.86087 0.0
O92 O 0.73757 0.01762 0.47964 0.0
Zn93 Zn 0.74426 0.03626 0.53989 0.0
O94 O 0.77984 0.04859 0.54206 0.0
Zn95 Zn 0.79439 0.03489 0.59634 0.0
Zn96 Zn 0.80008 0.03599 0.49121 0.0
Zn97 Zn 0.78208 0.08612 0.54529 0.0
O98 O 0.82002 0.05957 0.62185 0.0
O99 O 0.80353 0.09755 0.6 0.0
O100 O 0.73362 0.01645 0.5982 0.0
O101 O 0.76669 0.02878 0.6424 0.0
O102 O 0.81219 0.00135 0.58429 0.0
O103 O 0.82054 0.0035 0.50949 0.0
O104 O 0.82401 0.06465 0.46728 0.0
O105 O 0.72112 0.06742 0.53856 0.0
O106 O 0.80276 0.09968 0.49174 0.0
O107 O 0.7464 0.10238 0.54566 0.0
C108 C 0.75095 0.01818 0.44264 0.0
C109 C 0.81988 0.08427 0.62307 0.0
C110 C 0.82232 0.99186 0.54818 0.0
C111 C 0.744 0.01922 0.63779 0.0
C112 C 0.82065 0.08927 0.46769 0.0
C113 C 0.72395 0.09197 0.54173 0.0
O114 O 0.77447 0.02628 0.4419 0.0
O115 O 0.05665 0.18021 0.36254 0.0
Zn116 Zn 0.03438 0.18725 0.41893 0.0
O117 O 0.0399 0.22241 0.44266 0.0
Zn118 Zn 0.00706 0.24129 0.4442 0.0
Zn119 Zn 0.06407 0.24072 0.40352 0.0
Zn120 Zn 0.05571 0.22078 0.50292 0.0
O121 O 0.0018 0.25788 0.50799 0.0
O122 O 0.0318 0.23673 0.54874 0.0
O123 O -0.00381 0.17956 0.40883 0.0
O124 O 0.97751 0.21595 0.43355 0.0
O125 O 0.00506 0.26629 0.38932 0.0
O126 O 0.04522 0.26438 0.36115 0.0
O127 O 0.09159 0.2604 0.43798 0.0
O128 O 0.04729 0.16121 0.46472 0.0
O129 O 0.08813 0.2421 0.50662 0.0
O130 O 0.06576 0.1843 0.52054 0.0
C131 C 0.07677 0.19257 0.34881 0.0
C132 C 0.0126 0.25232 0.54646 0.0
C133 C 0.02195 0.27265 0.35901 0.0
C134 C 0.9759 0.19276 0.41819 0.0
C135 C 0.09958 0.25751 0.47904 0.0
C136 C 0.0602 0.16262 0.50193 0.0
O137 O 0.08233 0.21504 0.3643 0.0
O138 O 0.15619 0.9364 0.59991 0.0
Zn139 Zn 0.17072 0.94945 0.54074 0.0
O140 O 0.20815 0.94924 0.53959 0.0
Zn141 Zn 0.22156 0.98546 0.53906 0.0
Zn142 Zn 0.21965 0.93024 0.59316 0.0
Zn143 Zn 0.21907 0.92947 0.48596 0.0
O144 O 0.24195 0.99113 0.47838 0.0
O145 O 0.23601 0.9535 0.4417 0.0
O146 O 0.15735 0.98471 0.5346 0.0
O147 O 0.19094 0.0117 0.54033 0.0
O148 O 0.24409 0.99158 0.59733 0.0
O149 O 0.24285 0.95242 0.63007 0.0
O150 O 0.23948 0.8986 0.57727 0.0
O151 O 0.15529 0.92711 0.49229 0.0
O152 O 0.24445 0.90135 0.5018 0.0
O153 O 0.18916 0.91048 0.45562 0.0
C154 C 0.16628 0.92415 0.6333 0.0
C155 C 0.24475 0.9767 0.44279 0.0
C156 C 0.25076 0.97584 0.6294 0.0
C157 C 0.16644 0.00762 0.53705 0.0
C158 C 0.24898 0.89015 0.53993 0.0
C159 C 0.16472 0.91212 0.46194 0.0
O160 O 0.1905 0.91937 0.63453 0.0
O161 O 0.94261 0.82287 0.37372 0.0
Zn162 Zn 0.95545 0.8108 0.43458 0.0
O163 O 0.94667 0.77483 0.44672 0.0
Zn164 Zn 0.979 0.75444 0.45071 0.0
Zn165 Zn 0.92451 0.76305 0.3968 0.0
Zn166 Zn 0.92659 0.77268 0.50329 0.0
O167 O 0.98157 0.73691 0.51435 0.0
O168 O 0.94712 0.7536 0.55055 0.0
O169 O 0.99346 0.81707 0.43562 0.0
O170 O 0.01074 0.77788 0.44423 0.0
O171 O 0.98139 0.72998 0.39529 0.0
O172 O 0.94429 0.73799 0.35828 0.0
O173 O 0.89207 0.74569 0.41927 0.0
O174 O 0.93777 0.8344 0.47861 0.0
O175 O 0.8938 0.75187 0.49465 0.0
O176 O 0.91594 0.80846 0.52599 0.0
C177 C 0.92434 0.81457 0.34826 0.0
C178 C 0.96756 0.73964 0.55043 0.0
C179 C 0.96614 0.7265 0.36109 0.0
C180 C 0.01321 0.80234 0.4385 0.0
C181 C 0.88249 0.74277 0.45924 0.0
C182 C 0.92214 0.83117 0.512 0.0
O183 O 0.91377 0.7925 0.35531 0.0
O184 O 0.67326 0.56602 0.64257 0.0
Zn185 Zn 0.67936 0.54666 0.58338 0.0
O186 O 0.71366 0.55408 0.55839 0.0
Zn187 Zn 0.73185 0.52122 0.54876 0.0
Zn188 Zn 0.7329 0.57599 0.60033 0.0
Zn189 Zn 0.71064 0.57374 0.50235 0.0
O190 O 0.74972 0.52147 0.48496 0.0
O191 O 0.72905 0.55497 0.45269 0.0
O192 O 0.6735 0.5082 0.59177 0.0
O193 O 0.70572 0.49136 0.55023 0.0
O194 O 0.75588 0.51513 0.60463 0.0
O195 O 0.75746 0.5545 0.63623 0.0
O196 O 0.75174 0.60572 0.56964 0.0
O197 O 0.65185 0.5595 0.53988 0.0
O198 O 0.72928 0.60773 0.50488 0.0
O199 O 0.6736 0.58105 0.48566 0.0
C200 C 0.68629 0.58413 0.66171 0.0
C201 C 0.74493 0.53607 0.45023 0.0
C202 C 0.76392 0.53065 0.636 0.0
C203 C 0.6845 0.48887 0.57262 0.0
C204 C 0.74633 0.61701 0.53191 0.0
C205 C 0.65237 0.57344 0.5037 0.0
O206 O 0.70865 0.59082 0.64695 0.0
O207 O 0.56945 0.31559 0.37547 0.0
Zn208 Zn 0.54965 0.31307 0.43451 0.0
O209 O 0.54804 0.27789 0.4567 0.0
Zn210 Zn 0.51216 0.26538 0.45877 0.0
Zn211 Zn 0.56711 0.2574 0.41377 0.0
Zn212 Zn 0.56585 0.2748 0.51517 0.0
O213 O 0.50569 0.2481 0.52159 0.0
O214 O 0.54016 0.26199 0.56139 0.0
O215 O 0.51383 0.32783 0.42701 0.0
O216 O 0.48751 0.29608 0.45066 0.0
O217 O 0.50464 0.24197 0.40287 0.0
O218 O 0.54308 0.24217 0.36801 0.0
O219 O 0.58548 0.22871 0.44551 0.0
O220 O 0.57041 0.33519 0.47791 0.0
O221 O 0.59308 0.24626 0.51399 0.0
O222 O 0.58227 0.30901 0.5351 0.0
C223 C 0.58858 0.30179 0.36229 0.0
C224 C 0.51833 0.25018 0.55941 0.0
C225 C 0.51903 0.23637 0.36839 0.0
C226 C 0.49108 0.31922 0.43578 0.0
C227 C 0.59621 0.22809 0.48482 0.0
C228 C 0.58239 0.33125 0.51557 0.0
O229 O 0.59262 0.27928 0.37903 0.0
O230 O 0.33808 0.4287 0.58755 0.0
Zn231 Zn 0.31791 0.44741 0.53864 0.0
O232 O 0.28164 0.43749 0.53945 0.0
Zn233 Zn 0.25914 0.46819 0.54453 0.0
Zn234 Zn 0.27583 0.41449 0.59022 0.0
Zn235 Zn 0.27517 0.41771 0.4847 0.0
O236 O 0.23796 0.47207 0.48449 0.0
O237 O 0.25476 0.44013 0.44194 0.0
O238 O 0.32197 0.48515 0.55021 0.0
O239 O 0.28165 0.50053 0.55277 0.0
O240 O 0.23828 0.46732 0.6052 0.0
O241 O 0.2585 0.43433 0.63937 0.0
O242 O 0.25288 0.38462 0.57375 0.0
O243 O 0.33557 0.4373 0.48004 0.0
O244 O 0.25258 0.38658 0.49767 0.0
O245 O 0.30926 0.40569 0.45637 0.0
C246 C 0.33224 0.40967 0.61359 0.0
C247 C 0.23996 0.45988 0.4462 0.0
C248 C 0.24339 0.45385 0.64113 0.0
C249 C 0.3062 0.50393 0.55546 0.0
C250 C 0.24538 0.37592 0.53509 0.0
C251 C 0.33117 0.41739 0.45526 0.0
O252 O 0.30909 0.40097 0.61592 0.0
O253 O 0.41127 0.65996 0.42825 0.0
Zn254 Zn 0.43395 0.67216 0.4785 0.0
O255 O 0.43266 0.70931 0.48479 0.0
Zn256 Zn 0.46841 0.72351 0.48113 0.0
Zn257 Zn 0.41003 0.72354 0.43674 0.0
Zn258 Zn 0.41674 0.71603 0.54379 0.0
O259 O 0.47653 0.74443 0.54039 0.0
O260 O 0.44143 0.73555 0.58294 0.0
O261 O 0.46934 0.65963 0.46713 0.0
O262 O 0.49511 0.694 0.47514 0.0
O263 O 0.47179 0.74476 0.42125 0.0
O264 O 0.43164 0.74354 0.39226 0.0
O265 O 0.38237 0.74711 0.46241 0.0
O266 O 0.42012 0.65331 0.53278 0.0
O267 O 0.38638 0.73892 0.53687 0.0
O268 O 0.4028 0.68409 0.57588 0.0
C269 C 0.39487 0.67055 0.40159 0.0
C270 C 0.46352 0.74642 0.57781 0.0
C271 C 0.4554 0.75045 0.38966 0.0
C272 C 0.4919 0.6697 0.46792 0.0
C273 C 0.37494 0.75015 0.50377 0.0
C274 C 0.40673 0.66019 0.5673 0.0
O275 O 0.3916 0.69509 0.40106 0.0
O276 O 0.23 0.51788 0.98991 0.0
Zn277 Zn 0.23402 0.53828 0.04919 0.0
O278 O 0.27099 0.5449 0.06174 0.0
Zn279 Zn 0.28072 0.5268 0.11709 0.0
Zn280 Zn 0.29333 0.53211 0.0123 0.0
Zn281 Zn 0.27625 0.58223 0.07102 0.0
O282 O 0.29689 0.55091 0.16209 0.0
O283 O 0.28893 0.59049 0.13504 0.0
O284 O 0.21529 0.52206 0.10514 0.0
O285 O 0.24971 0.51284 0.14845 0.0
O286 O 0.30497 0.49729 0.10629 0.0
O287 O 0.31548 0.50167 0.03284 0.0
O288 O 0.3176 0.56061 0.98869 0.0
O289 O 0.21651 0.57195 0.0346 0.0
O290 O 0.30386 0.59498 0.02812 0.0
O291 O 0.24417 0.60297 0.05601 0.0
C292 C 0.24619 0.51336 0.9576 0.0
C293 C 0.29763 0.57551 0.16636 0.0
C294 C 0.3176 0.48986 0.07119 0.0
C295 C 0.22533 0.51254 0.14161 0.0
C296 C 0.31878 0.5848 0.99827 0.0
C297 C 0.22232 0.59583 0.03969 0.0
O298 O 0.27034 0.51889 0.96127 0.0
O299 O 0.55948 0.66696 0.89775 0.0
Zn300 Zn 0.53595 0.67552 0.95222 0.0
O301 O 0.54164 0.71102 0.97382 0.0
Zn302 Zn 0.5095 0.7308 0.974 0.0
Zn303 Zn 0.56575 0.72783 0.93355 0.0
Zn304 Zn 0.55785 0.71069 0.03345 0.0
O305 O 0.5038 0.74733 0.03782 0.0
O306 O 0.53332 0.72575 0.07898 0.0
O307 O 0.4977 0.66847 0.94054 0.0
O308 O 0.47986 0.70577 0.9631 0.0
O309 O 0.50812 0.75536 0.91799 0.0
O310 O 0.5466 0.7476 0.88607 0.0
O311 O 0.59112 0.75086 0.96624 0.0
O312 O 0.54772 0.65031 1.00051 0.0
O313 O 0.58922 0.73379 0.03608 0.0
O314 O 0.56882 0.67463 0.05167 0.0
C315 C 0.58061 0.67844 0.88645 0.0
C316 C 0.51411 0.74131 0.07653 0.0
C317 C 0.52411 0.7578 0.8845 0.0
C318 C 0.47773 0.68243 0.94864 0.0
C319 C 0.59936 0.74949 0.00739 0.0
C320 C 0.56191 0.65254 0.03613 0.0
O321 O 0.5861 0.70107 0.90114 0.0
O322 O 0.67554 0.42273 0.12729 0.0
Zn323 Zn 0.68137 0.44285 0.06912 0.0
O324 O 0.71771 0.44626 0.05288 0.0
Zn325 Zn 0.72764 0.4832 0.04806 0.0
Zn326 Zn 0.73754 0.42984 0.10095 0.0
Zn327 Zn 0.72405 0.42731 0.99617 0.0
O328 O 0.74522 0.48953 0.98491 0.0
O329 O 0.73748 0.45197 0.94898 0.0
O330 O 0.66476 0.47721 0.07414 0.0
O331 O 0.69493 0.50586 0.05286 0.0
O332 O 0.74998 0.49377 0.10415 0.0
O333 O 0.75433 0.45601 0.14045 0.0
O334 O 0.76333 0.40499 0.07731 0.0
O335 O 0.662 0.42275 0.0218 0.0
O336 O 0.75105 0.39964 0.00483 0.0
O337 O 0.69189 0.40878 0.97281 0.0
C338 C 0.69103 0.40864 0.15049 0.0
C339 C 0.74608 0.47525 0.94882 0.0
C340 C 0.7579 0.48044 0.1386 0.0
C341 C 0.6717 0.50044 0.06548 0.0
C342 C 0.76528 0.39352 0.03889 0.0
C343 C 0.66843 0.40953 0.98675 0.0
O344 O 0.71526 0.40857 0.14224 0.0
O345 O 0.44451 0.32581 0.87937 0.0
Zn346 Zn 0.45488 0.31374 0.94225 0.0
O347 O 0.44552 0.27767 0.95352 0.0
Zn348 Zn 0.47727 0.25633 0.95877 0.0
Zn349 Zn 0.42409 0.26627 0.9027 0.0
Zn350 Zn 0.42428 0.27548 0.00866 0.0
O351 O 0.47775 0.2375 0.02163 0.0
O352 O 0.4429 0.25474 0.05561 0.0
O353 O 0.493 0.31922 0.94823 0.0
O354 O 0.50938 0.2795 0.95618 0.0
O355 O 0.48042 0.23244 0.90239 0.0
O356 O 0.443 0.23998 0.86641 0.0
O357 O 0.39042 0.25075 0.92229 0.0
O358 O 0.4363 0.33735 0.98558 0.0
O359 O 0.39072 0.25628 0.99778 0.0
O360 O 0.41521 0.31104 0.03345 0.0
C361 C 0.42758 0.3169 0.85167 0.0
C362 C 0.46277 0.24003 0.05654 0.0
C363 C 0.46483 0.22855 0.86881 0.0
C364 C 0.51236 0.30404 0.95238 0.0
C365 C 0.37982 0.24797 0.96141 0.0
C366 C 0.42125 0.33383 0.01974 0.0
O367 O 0.41661 0.29506 0.85865 0.0
H368 H 0.1348 0.084 0.17953 0.0
H369 H 0.20738 0.12764 0.18612 0.0
H370 H 0.18695 0.15929 0.23748 0.0
H371 H 0.09232 0.13869 0.179 0.0
H372 H 0.06791 0.12415 0.21548 0.0
H373 H 0.08808 0.10386 0.17984 0.0
H374 H 0.10276 0.07767 0.25143 0.0
H375 H 0.08239 0.09769 0.28722 0.0
H376 H 0.11659 0.09465 0.29985 0.0
H377 H 0.15905 0.18762 0.2832 0.0
H378 H 0.12577 0.20932 0.32953 0.0
H379 H 0.0708 0.14736 0.29791 0.0
C380 C 0.14645 0.10004 0.19223 0.0
C381 C 0.1727 0.10331 0.17851 0.0
C382 C 0.18725 0.12463 0.19588 0.0
C383 C 0.17582 0.14283 0.22506 0.0
C384 C 0.14987 0.1394 0.23701 0.0
C385 C 0.13537 0.11842 0.2219 0.0
C386 C 0.10781 0.11957 0.24062 0.0
C387 C 0.08785 0.1217 0.20139 0.0
C388 C 0.10206 0.09599 0.27163 0.0
C389 C 0.10921 0.14457 0.26825 0.0
C390 C 0.13366 0.15568 0.26511 0.0
C391 C 0.13986 0.17906 0.28636 0.0
C392 C 0.1207 0.1913 0.31244 0.0
C393 C 0.09563 0.18004 0.31754 0.0
C394 C 0.08979 0.1564 0.2948 0.0
H395 H 0.12097 0.82574 0.82822 0.0
H396 H 0.04952 0.87029 0.8388 0.0
H397 H 0.06619 0.90126 0.78081 0.0
H398 H 0.16403 0.88144 0.81517 0.0
H399 H 0.18516 0.86497 0.77529 0.0
H400 H 0.16778 0.84662 0.81833 0.0
H401 H 0.14755 0.81759 0.75476 0.0
H402 H 0.16488 0.83581 0.71156 0.0
H403 H 0.12998 0.83261 0.70815 0.0
H404 H 0.08937 0.92555 0.71831 0.0
H405 H 0.11859 0.94285 0.65803 0.0
H406 H 0.17561 0.88361 0.69157 0.0
C407 C 0.10884 0.84203 0.81839 0.0
C408 C 0.08393 0.84559 0.83774 0.0
C409 C 0.06871 0.86726 0.82438 0.0
C410 C 0.07798 0.88493 0.7915 0.0
C411 C 0.10259 0.88078 0.77296 0.0
C412 C 0.11791 0.86002 0.78619 0.0
C413 C 0.14361 0.85991 0.76092 0.0
C414 C 0.16649 0.86346 0.79444 0.0
C415 C 0.14667 0.83501 0.73214 0.0
C416 C 0.14015 0.8836 0.73075 0.0
C417 C 0.11634 0.89533 0.73812 0.0
C418 C 0.10821 0.91674 0.71257 0.0
C419 C 0.12486 0.92636 0.67839 0.0
C420 C 0.14937 0.91465 0.67052 0.0
C421 C 0.15715 0.89318 0.69738 0.0
H422 H 0.87638 0.81244 0.30762 0.0
H423 H 0.94861 0.85653 0.3094 0.0
H424 H 0.92978 0.88817 0.25495 0.0
H425 H 0.8606 0.8229 0.18724 0.0
H426 H 0.82622 0.82591 0.19829 0.0
H427 H 0.84607 0.80598 0.23517 0.0
H428 H 0.83026 0.8323 0.3058 0.0
H429 H 0.81065 0.85254 0.26908 0.0
H430 H 0.83451 0.86713 0.30654 0.0
H431 H 0.90295 0.9153 0.20159 0.0
H432 H 0.86996 0.93585 0.15177 0.0
H433 H 0.81478 0.87493 0.18771 0.0
C434 C 0.88839 0.82849 0.29594 0.0
C435 C 0.91399 0.83196 0.31242 0.0
C436 C 0.92894 0.8535 0.29706 0.0
C437 C 0.91843 0.87157 0.26622 0.0
C438 C 0.89293 0.86789 0.25141 0.0
C439 C 0.87811 0.84688 0.26564 0.0
C440 C 0.85093 0.84792 0.24582 0.0
C441 C 0.84566 0.82428 0.21478 0.0
C442 C 0.83039 0.85011 0.2841 0.0
C443 C 0.8528 0.87279 0.21819 0.0
C444 C 0.87721 0.88395 0.22172 0.0
C445 C 0.88373 0.90679 0.19857 0.0
C446 C 0.86487 0.91832 0.17044 0.0
C447 C 0.83978 0.90707 0.16609 0.0
C448 C 0.83368 0.88417 0.19076 0.0
H449 H 0.81732 0.13251 0.66305 0.0
H450 H 0.86742 0.06536 0.64543 0.0
H451 H 0.90063 0.08586 0.69448 0.0
H452 H 0.86995 0.18236 0.66916 0.0
H453 H 0.85336 0.20059 0.71315 0.0
H454 H 0.83488 0.18248 0.67128 0.0
H455 H 0.81111 0.15784 0.7369 0.0
H456 H 0.82948 0.17583 0.77886 0.0
H457 H 0.82999 0.14076 0.77952 0.0
H458 H 0.92636 0.11095 0.74994 0.0
H459 H 0.94276 0.13867 0.81233 0.0
H460 H 0.87587 0.18951 0.79641 0.0
C461 C 0.83552 0.12244 0.66885 0.0
C462 C 0.83991 0.09745 0.65052 0.0
C463 C 0.86368 0.08452 0.65943 0.0
C464 C 0.88274 0.09607 0.68687 0.0
C465 C 0.87769 0.12051 0.70513 0.0
C466 C 0.85469 0.13359 0.69671 0.0
C467 C 0.85321 0.15847 0.72435 0.0
C468 C 0.85284 0.18239 0.69258 0.0
C469 C 0.82955 0.15818 0.75683 0.0
C470 C 0.87855 0.15678 0.7507 0.0
C471 C 0.89254 0.13498 0.73833 0.0
C472 C 0.9158 0.12829 0.75963 0.0
C473 C 0.92488 0.14412 0.79518 0.0
C474 C 0.91056 0.16624 0.8093 0.0
C475 C 0.88735 0.17287 0.78612 0.0
H476 H 0.57378 0.63696 0.82701 0.0
H477 H 0.63197 0.69021 0.88137 0.0
H478 H 0.66541 0.66966 0.83361 0.0
H479 H 0.61664 0.58016 0.81738 0.0
H480 H 0.60254 0.56947 0.76388 0.0
H481 H 0.58299 0.58701 0.80483 0.0
H482 H 0.57162 0.62115 0.74236 0.0
H483 H 0.59108 0.6037 0.70126 0.0
H484 H 0.59754 0.63762 0.7122 0.0
H485 H 0.6922 0.64548 0.77877 0.0
H486 H 0.71106 0.6193 0.71657 0.0
H487 H 0.63618 0.58153 0.69542 0.0
C488 C 0.59361 0.64405 0.82912 0.0
C489 C 0.60023 0.6652 0.85786 0.0
C490 C 0.62635 0.67416 0.85936 0.0
C491 C 0.64558 0.66252 0.83259 0.0
C492 C 0.63845 0.64195 0.80435 0.0
C493 C 0.61317 0.63276 0.80214 0.0
C494 C 0.61074 0.61125 0.76675 0.0
C495 C 0.60276 0.58544 0.78959 0.0
C496 C 0.59162 0.6189 0.72837 0.0
C497 C 0.63851 0.6102 0.74916 0.0
C498 C 0.65413 0.62794 0.77178 0.0
C499 C 0.68027 0.63136 0.76088 0.0
C500 C 0.69077 0.61643 0.72539 0.0
C501 C 0.67512 0.59836 0.70107 0.0
C502 C 0.6487 0.59503 0.71359 0.0
H503 H 0.58184 0.34463 0.30806 0.0
H504 H 0.63785 0.28471 0.34342 0.0
H505 H 0.67061 0.3062 0.29405 0.0
H506 H 0.60153 0.35165 0.18907 0.0
H507 H 0.5962 0.3863 0.18867 0.0
H508 H 0.57717 0.36573 0.22598 0.0
H509 H 0.5916 0.39341 0.29601 0.0
H510 H 0.61096 0.41387 0.25904 0.0
H511 H 0.62581 0.39781 0.30748 0.0
H512 H 0.69774 0.33545 0.24447 0.0
H513 H 0.71632 0.36804 0.19145 0.0
H514 H 0.64197 0.40806 0.18729 0.0
C515 C 0.60092 0.3359 0.30519 0.0
C516 C 0.60736 0.31307 0.32962 0.0
C517 C 0.6325 0.30215 0.3248 0.0
C518 C 0.65125 0.31428 0.29709 0.0
C519 C 0.6444 0.33708 0.27425 0.0
C520 C 0.61975 0.34757 0.27747 0.0
C521 C 0.61727 0.37212 0.24916 0.0
C522 C 0.59684 0.36873 0.21095 0.0
C523 C 0.61105 0.39569 0.27976 0.0
C524 C 0.64446 0.37388 0.22968 0.0
C525 C 0.65987 0.35362 0.24486 0.0
C526 C 0.68585 0.35133 0.23208 0.0
C527 C 0.69623 0.37002 0.20217 0.0
C528 C 0.68054 0.39054 0.18517 0.0
C529 C 0.65441 0.39255 0.19955 0.0
H530 H 0.38514 0.30928 0.79714 0.0
H531 H 0.45179 0.36026 0.81642 0.0
H532 H 0.43666 0.38773 0.75196 0.0
H533 H 0.38111 0.31452 0.67143 0.0
H534 H 0.34603 0.31443 0.67213 0.0
H535 H 0.36383 0.29728 0.71605 0.0
H536 H 0.33937 0.32333 0.77891 0.0
H537 H 0.3216 0.34057 0.73527 0.0
H538 H 0.34016 0.3584 0.77739 0.0
H539 H 0.41258 0.41104 0.68867 0.0
H540 H 0.38049 0.42944 0.63439 0.0
H541 H 0.32941 0.36345 0.65937 0.0
C542 C 0.39687 0.32593 0.78733 0.0
C543 C 0.41971 0.33256 0.81156 0.0
C544 C 0.43422 0.35481 0.7982 0.0
C545 C 0.42587 0.37044 0.76154 0.0
C546 C 0.40301 0.36351 0.73881 0.0
C547 C 0.38872 0.34179 0.75128 0.0
C548 C 0.3638 0.33965 0.72404 0.0
C549 C 0.3637 0.31501 0.69414 0.0
C550 C 0.33983 0.34056 0.7558 0.0
C551 C 0.36595 0.36391 0.69499 0.0
C552 C 0.38887 0.37722 0.70337 0.0
C553 C 0.39466 0.40069 0.68156 0.0
C554 C 0.37634 0.41096 0.65082 0.0
C555 C 0.35244 0.3979 0.64285 0.0
C556 C 0.34747 0.37392 0.66482 0.0
H557 H 0.31168 0.62643 0.18308 0.0
H558 H 0.31032 0.54928 0.24453 0.0
H559 H 0.33257 0.56633 0.31289 0.0
H560 H 0.37445 0.64352 0.22059 0.0
H561 H 0.36711 0.67714 0.23229 0.0
H562 H 0.34886 0.65971 0.18936 0.0
H563 H 0.30584 0.67104 0.23121 0.0
H564 H 0.32396 0.68865 0.27421 0.0
H565 H 0.30211 0.66285 0.29114 0.0
H566 H 0.35778 0.58995 0.3709 0.0
H567 H 0.38394 0.61977 0.41803 0.0
H568 H 0.36899 0.68242 0.32116 0.0
C569 C 0.31569 0.61324 0.21124 0.0
C570 C 0.30928 0.58652 0.20841 0.0
C571 C 0.31512 0.56981 0.24578 0.0
C572 C 0.32768 0.5793 0.28488 0.0
C573 C 0.33416 0.60556 0.28624 0.0
C574 C 0.32829 0.6224 0.25071 0.0
C575 C 0.33867 0.64951 0.26034 0.0
C576 C 0.35845 0.65795 0.22345 0.0
C577 C 0.31631 0.66917 0.26448 0.0
C578 C 0.35176 0.645 0.30633 0.0
C579 C 0.34874 0.61949 0.32052 0.0
C580 C 0.36008 0.61006 0.36053 0.0
C581 C 0.37505 0.62713 0.38686 0.0
C582 C 0.37848 0.6534 0.37316 0.0
C583 C 0.36645 0.66251 0.3326 0.0
H584 H 0.13213 0.97621 0.04987 0.0
H585 H 0.20523 0.94318 0.09585 0.0
H586 H 0.18429 0.89995 0.10237 0.0
H587 H 0.08804 0.93464 0.11873 0.0
H588 H 0.06468 0.93176 0.07279 0.0
H589 H 0.08435 0.96072 0.07777 0.0
H590 H 0.10073 0.95454 0.99422 0.0
H591 H 0.08102 0.92573 0.98894 0.0
H592 H 0.11551 0.92412 0.97805 0.0
H593 H 0.15623 0.85994 0.0993 0.0
H594 H 0.12488 0.82546 0.07882 0.0
H595 H 0.07053 0.88418 0.03115 0.0
C596 C 0.14355 0.95996 0.06223 0.0
C597 C 0.17021 0.96304 0.07286 0.0
C598 C 0.18475 0.94121 0.08765 0.0
C599 C 0.17298 0.91665 0.09177 0.0
C600 C 0.1467 0.91418 0.08059 0.0
C601 C 0.13222 0.9352 0.06568 0.0
C602 C 0.10515 0.92682 0.05108 0.0
C603 C 0.08433 0.93923 0.08195 0.0
C604 C 0.10034 0.93317 1.00005 0.0
C605 C 0.10686 0.89774 0.05915 0.0
C606 C 0.13078 0.89092 0.07713 0.0
C607 C 0.13735 0.86506 0.08556 0.0
C608 C 0.11933 0.84558 0.07392 0.0
C609 C 0.09516 0.85202 0.05335 0.0
C610 C 0.08871 0.87855 0.04712 0.0
H611 H 0.87576 0.91908 0.96556 0.0
H612 H 0.81832 0.86007 0.93144 0.0
H613 H 0.85365 0.82846 0.91818 0.0
H614 H 0.92792 0.89638 0.88499 0.0
H615 H 0.95297 0.90418 0.92616 0.0
H616 H 0.92348 0.92308 0.92433 0.0
H617 H 0.91614 0.91359 0.01088 0.0
H618 H 0.94516 0.89417 0.01284 0.0
H619 H 0.91446 0.88033 0.03046 0.0
H620 H 0.89464 0.80164 0.9216 0.0
H621 H 0.93842 0.78294 0.9328 0.0
H622 H 0.96861 0.85978 0.96515 0.0
C623 C 0.87056 0.89977 0.95375 0.0
C624 C 0.84424 0.89207 0.94951 0.0
C625 C 0.83833 0.86652 0.9345 0.0
C626 C 0.85828 0.84837 0.92712 0.0
C627 C 0.88396 0.85624 0.93432 0.0
C628 C 0.89016 0.8815 0.94637 0.0
C629 C 0.91897 0.88459 0.95577 0.0
C630 C 0.93158 0.90315 0.92071 0.0
C631 C 0.92395 0.8937 0.00542 0.0
C632 C 0.92793 0.85691 0.94869 0.0
C633 C 0.90753 0.84085 0.9361 0.0
C634 C 0.91085 0.81414 0.93059 0.0
C635 C 0.93575 0.80367 0.93743 0.0
C636 C 0.957 0.8199 0.94973 0.0
C637 C 0.95287 0.84686 0.95537 0.0
H638 H 0.91998 0.10873 0.99614 0.0
H639 H 0.87396 0.16478 0.07224 0.0
H640 H 0.84171 0.13052 0.08997 0.0
H641 H 0.86893 0.07633 0.94426 0.0
H642 H 0.88267 0.04419 0.9485 0.0
H643 H 0.90375 0.07217 0.94613 0.0
H644 H 0.92568 0.05839 0.02257 0.0
H645 H 0.905 0.03003 0.02477 0.0
H646 H 0.90582 0.05231 0.07255 0.0
H647 H 0.81154 0.09177 0.08977 0.0
H648 H 0.78871 0.04959 0.08128 0.0
H649 H 0.85547 0.01852 0.00857 0.0
C650 C 0.90346 0.11366 0.01752 0.0
C651 C 0.8995 0.13943 0.0328 0.0
C652 C 0.87754 0.14513 0.06048 0.0
C653 C 0.85902 0.12583 0.07051 0.0
C654 C 0.863 0.10087 0.05329 0.0
C655 C 0.88499 0.09459 0.02832 0.0
C656 C 0.88425 0.06655 0.01253 0.0
C657 C 0.88494 0.06473 0.95973 0.0
C658 C 0.90651 0.0509 0.03443 0.0
C659 C 0.85808 0.05825 0.03138 0.0
C660 C 0.84604 0.07833 0.0546 0.0
C661 C 0.82097 0.07575 0.07241 0.0
C662 C 0.80807 0.05184 0.06706 0.0
C663 C 0.82041 0.03082 0.04451 0.0
C664 C 0.84571 0.03417 0.02647 0.0
H665 H 0.0193 0.14092 0.98634 0.0
H666 H 0.05123 0.20191 0.89974 0.0
H667 H 0.09248 0.17728 0.89318 0.0
H668 H 0.07796 0.12995 0.04944 0.0
H669 H 0.07241 0.09545 0.05519 0.0
H670 H 0.04521 0.11724 0.05012 0.0
H671 H 0.02844 0.09078 0.98019 0.0
H672 H 0.0559 0.06919 0.98456 0.0
H673 H 0.04947 0.08598 0.93134 0.0
H674 H 0.1296 0.14575 0.89554 0.0
H675 H 0.16301 0.11379 0.91717 0.0
H676 H 0.10725 0.07466 0.00603 0.0
C677 C 0.035 0.14901 0.96591 0.0
C678 C 0.03225 0.1731 0.94321 0.0
C679 C 0.05319 0.18346 0.91745 0.0
C680 C 0.07648 0.16951 0.91317 0.0
C681 C 0.07842 0.14553 0.93542 0.0
C682 C 0.05844 0.13565 0.96209 0.0
C683 C 0.06615 0.11055 0.98552 0.0
C684 C 0.0654 0.11349 0.03817 0.0
C685 C 0.04896 0.08778 0.96942 0.0
C686 C 0.0937 0.10786 0.96802 0.0
C687 C 0.1002 0.12794 0.93843 0.0
C688 C 0.12477 0.12995 0.91868 0.0
C689 C 0.14356 0.11157 0.93104 0.0
C690 C 0.13777 0.09175 0.96349 0.0
C691 C 0.11226 0.0895 0.98104 0.0
H692 H 0.85868 0.97139 0.48904 0.0
H693 H 0.81733 0.95566 0.6163 0.0
H694 H 0.84035 0.91386 0.62386 0.0
H695 H 0.85857 0.90653 0.44626 0.0
H696 H 0.89089 0.90857 0.42239 0.0
H697 H 0.87143 0.93747 0.42763 0.0
H698 H 0.90824 0.95945 0.47481 0.0
H699 H 0.92771 0.93048 0.47001 0.0
H700 H 0.92032 0.94366 0.52587 0.0
H701 H 0.86602 0.87248 0.61527 0.0
H702 H 0.893 0.83506 0.59115 0.0
H703 H 0.91916 0.87913 0.47224 0.0
C704 C 0.85447 0.95914 0.51846 0.0
C705 C 0.83618 0.96677 0.55199 0.0
C706 C 0.83135 0.95027 0.59022 0.0
C707 C 0.84433 0.92648 0.59488 0.0
C708 C 0.86234 0.91958 0.56137 0.0
C709 C 0.86753 0.93548 0.52403 0.0
C710 C 0.88768 0.92343 0.49276 0.0
C711 C 0.87646 0.91872 0.44442 0.0
C712 C 0.91245 0.94026 0.49077 0.0
C713 C 0.89256 0.89809 0.51786 0.0
C714 C 0.8778 0.89619 0.55737 0.0
C715 C 0.87796 0.87385 0.58471 0.0
C716 C 0.89334 0.85272 0.57081 0.0
C717 C 0.90844 0.85424 0.53018 0.0
C718 C 0.90828 0.87746 0.50401 0.0
H719 H 0.87181 0.07937 0.44681 0.0
H720 H 0.81255 0.1392 0.43962 0.0
H721 H 0.84573 0.17119 0.41575 0.0
H722 H 0.91818 0.11695 0.49802 0.0
H723 H 0.94596 0.10382 0.46825 0.0
H724 H 0.91721 0.08426 0.47565 0.0
H725 H 0.91426 0.0772 0.38766 0.0
H726 H 0.94327 0.09655 0.37994 0.0
H727 H 0.91383 0.10498 0.34976 0.0
H728 H 0.88556 0.19803 0.4058 0.0
H729 H 0.92945 0.21763 0.40694 0.0
H730 H 0.96345 0.14076 0.41967 0.0
C731 C 0.86568 0.09895 0.4384 0.0
C732 C 0.83955 0.10674 0.44465 0.0
C733 C 0.83243 0.13277 0.43483 0.0
C734 C 0.85113 0.15108 0.42114 0.0
C735 C 0.87691 0.14308 0.41718 0.0
C736 C 0.88421 0.11757 0.42496 0.0
C737 C 0.91358 0.11473 0.42312 0.0
C738 C 0.92435 0.10434 0.46899 0.0
C739 C 0.92171 0.09733 0.3827 0.0
C740 C 0.92163 0.14278 0.41503 0.0
C741 C 0.90014 0.15874 0.41116 0.0
C742 C 0.90255 0.18569 0.40775 0.0
C743 C 0.92755 0.19665 0.40871 0.0
C744 C 0.94986 0.18072 0.41299 0.0
C745 C 0.94679 0.15339 0.41536 0.0
H746 H 0.111 0.15311 0.52227 0.0
H747 H 0.03439 0.11766 0.51857 0.0
H748 H 0.05381 0.07481 0.53551 0.0
H749 H 0.14143 0.10442 0.46155 0.0
H750 H 0.17193 0.10506 0.49215 0.0
H751 H 0.1522 0.13388 0.48933 0.0
H752 H 0.15142 0.13667 0.57818 0.0
H753 H 0.17154 0.10803 0.58137 0.0
H754 H 0.14082 0.10891 0.61129 0.0
H755 H 0.08081 0.03619 0.54282 0.0
H756 H 0.11393 0.00234 0.54107 0.0
H757 H 0.17482 0.06134 0.53651 0.0
C758 C 0.09836 0.13641 0.52701 0.0
C759 C 0.07119 0.13852 0.52046 0.0
C760 C 0.05517 0.11629 0.52447 0.0
C761 C 0.06604 0.09197 0.53403 0.0
C762 C 0.09297 0.0903 0.53883 0.0
C763 C 0.10902 0.11183 0.53562 0.0
C764 C 0.13752 0.10398 0.53665 0.0
C765 C 0.15158 0.11233 0.49228 0.0
C766 C 0.15113 0.11506 0.57943 0.0
C767 C 0.13491 0.07461 0.53963 0.0
C768 C 0.10897 0.06739 0.54149 0.0
C769 C 0.10119 0.04155 0.542 0.0
C770 C 0.12033 0.02244 0.54066 0.0
C771 C 0.14719 0.02906 0.53857 0.0
C772 C 0.15455 0.05561 0.53835 0.0
H773 H 0.11329 0.91895 0.44557 0.0
H774 H 0.17564 0.86287 0.4317 0.0
H775 H 0.14326 0.82829 0.41593 0.0
H776 H 0.07323 0.88154 0.50768 0.0
H777 H 0.04303 0.89208 0.48235 0.0
H778 H 0.0708 0.91338 0.48195 0.0
H779 H 0.06828 0.91752 0.39326 0.0
H780 H 0.03995 0.89673 0.39335 0.0
H781 H 0.06772 0.88854 0.35841 0.0
H782 H 0.10362 0.79869 0.41756 0.0
H783 H 0.06041 0.77774 0.42673 0.0
H784 H 0.02495 0.85398 0.43923 0.0
C785 C 0.12018 0.8996 0.43734 0.0
C786 C 0.14687 0.89354 0.43966 0.0
C787 C 0.15524 0.86797 0.42939 0.0
C788 C 0.13697 0.84819 0.4207 0.0
C789 C 0.11059 0.85452 0.42156 0.0
C790 C 0.10229 0.87981 0.42845 0.0
C791 C 0.07302 0.88135 0.43218 0.0
C792 C 0.06455 0.89275 0.4788 0.0
C793 C 0.06157 0.89695 0.39189 0.0
C794 C 0.06616 0.85286 0.42859 0.0
C795 C 0.08795 0.83761 0.42207 0.0
C796 C 0.08636 0.8105 0.42157 0.0
C797 C 0.06181 0.79877 0.42725 0.0
C798 C 0.03929 0.81422 0.4335 0.0
C799 C 0.04169 0.84157 0.43397 0.0
H800 H 0.67356 0.45658 0.50105 0.0
H801 H 0.66484 0.46468 0.64844 0.0
H802 H 0.63993 0.4233 0.65116 0.0
H803 H 0.60917 0.43499 0.48215 0.0
H804 H 0.61738 0.41305 0.43613 0.0
H805 H 0.63728 0.44128 0.4467 0.0
H806 H 0.67798 0.41194 0.45489 0.0
H807 H 0.65816 0.38362 0.44411 0.0
H808 H 0.67759 0.38545 0.49559 0.0
H809 H 0.61547 0.38098 0.63704 0.0
H810 H 0.58984 0.34383 0.60632 0.0
H811 H 0.61092 0.36657 0.46763 0.0
C812 C 0.66687 0.44926 0.53395 0.0
C813 C 0.67145 0.46335 0.5747 0.0
C814 C 0.66168 0.45384 0.617 0.0
C815 C 0.64761 0.4304 0.61884 0.0
C816 C 0.64306 0.41706 0.5779 0.0
C817 C 0.65216 0.42632 0.53617 0.0
C818 C 0.64255 0.40974 0.49667 0.0
C819 C 0.62559 0.42572 0.46348 0.0
C820 C 0.66544 0.39692 0.47134 0.0
C821 C 0.62652 0.3898 0.52261 0.0
C822 C 0.62746 0.39397 0.56949 0.0
C823 C 0.61449 0.37762 0.60036 0.0
C824 C 0.60003 0.35661 0.58273 0.0
C825 C 0.59819 0.35265 0.53474 0.0
C826 C 0.6117 0.36944 0.5045 0.0
H827 H 0.34378 0.36609 0.45621 0.0
H828 H 0.37048 0.44161 0.40923 0.0
H829 H 0.41339 0.42283 0.39036 0.0
H830 H 0.39871 0.35146 0.51511 0.0
H831 H 0.39932 0.31707 0.50312 0.0
H832 H 0.36891 0.33427 0.50252 0.0
H833 H 0.35993 0.31893 0.41926 0.0
H834 H 0.39011 0.30112 0.41982 0.0
H835 H 0.38395 0.32469 0.3752 0.0
H836 H 0.45478 0.39803 0.38838 0.0
H837 H 0.49182 0.36864 0.4007 0.0
H838 H 0.43909 0.30922 0.45257 0.0
C839 C 0.35826 0.3783 0.43971 0.0
C840 C 0.35372 0.40512 0.43292 0.0
C841 C 0.37351 0.42091 0.41367 0.0
C842 C 0.39792 0.41041 0.403 0.0
C843 C 0.40225 0.38414 0.41219 0.0
C844 C 0.38292 0.36819 0.42976 0.0
C845 C 0.39361 0.34161 0.44226 0.0
C846 C 0.38992 0.33579 0.4938 0.0
C847 C 0.38116 0.32033 0.41234 0.0
C848 C 0.42209 0.34541 0.43041 0.0
C849 C 0.42654 0.36995 0.4125 0.0
C850 C 0.45148 0.37862 0.40163 0.0
C851 C 0.47244 0.36177 0.40906 0.0
C852 C 0.46845 0.33652 0.42759 0.0
C853 C 0.44283 0.32828 0.43807 0.0
H854 H 0.35726 0.51819 0.55551 0.0
H855 H 0.27984 0.5479 0.58332 0.0
H856 H 0.29908 0.59025 0.60582 0.0
H857 H 0.39169 0.55332 0.64761 0.0
H858 H 0.41984 0.55884 0.61186 0.0
H859 H 0.40018 0.53009 0.60377 0.0
H860 H 0.39342 0.54199 0.51778 0.0
H861 H 0.41353 0.57026 0.52553 0.0
H862 H 0.38101 0.57371 0.50309 0.0
H863 H 0.3268 0.63044 0.61817 0.0
H864 H 0.359 0.66575 0.608 0.0
H865 H 0.41786 0.6088 0.57336 0.0
C866 C 0.34425 0.53343 0.56688 0.0
C867 C 0.31703 0.52969 0.56777 0.0
C868 C 0.30077 0.55033 0.58227 0.0
C869 C 0.31155 0.57433 0.59563 0.0
C870 C 0.33857 0.57723 0.59463 0.0
C871 C 0.35462 0.55731 0.58023 0.0
C872 C 0.3827 0.56592 0.57732 0.0
C873 C 0.39959 0.55116 0.61223 0.0
C874 C 0.39326 0.5628 0.52802 0.0
C875 C 0.37992 0.59417 0.5905 0.0
C876 C 0.35446 0.60027 0.60155 0.0
C877 C 0.34685 0.62581 0.61037 0.0
C878 C 0.36535 0.64575 0.60494 0.0
C879 C 0.39092 0.63993 0.59001 0.0
C880 C 0.39854 0.61374 0.58539 0.0
H881 H 0.54456 0.68127 0.47195 0.0
H882 H 0.48987 0.61766 0.45102 0.0
H883 H 0.52597 0.58675 0.44827 0.0
H884 H 0.59729 0.65357 0.3976 0.0
H885 H 0.62262 0.66493 0.43553 0.0
H886 H 0.59271 0.68297 0.43032 0.0
H887 H 0.58601 0.68005 0.51849 0.0
H888 H 0.61581 0.66204 0.52393 0.0
H889 H 0.58587 0.64859 0.54599 0.0
H890 H 0.56618 0.56187 0.46046 0.0
H891 H 0.60962 0.54495 0.4816 0.0
H892 H 0.63945 0.62379 0.48854 0.0
C893 C 0.54026 0.66094 0.46581 0.0
C894 C 0.51432 0.652 0.46192 0.0
C895 C 0.50951 0.62513 0.4543 0.0
C896 C 0.52992 0.60731 0.45244 0.0
C897 C 0.55515 0.61659 0.45749 0.0
C898 C 0.56053 0.64276 0.46339 0.0
C899 C 0.58939 0.64718 0.47084 0.0
C900 C 0.6012 0.6631 0.4312 0.0
C901 C 0.59456 0.66023 0.51759 0.0
C902 C 0.59905 0.61933 0.47016 0.0
C903 C 0.57893 0.60202 0.46219 0.0
C904 C 0.58231 0.57516 0.46532 0.0
C905 C 0.60691 0.56572 0.47741 0.0
C906 C 0.62772 0.58312 0.48535 0.0
C907 C 0.62391 0.61018 0.48088 0.0
H908 H 0.41523 0.3817 0.98099 0.0
H909 H 0.39712 0.33714 0.1038 0.0
H910 H 0.37153 0.3742 0.13359 0.0
H911 H 0.41858 0.44661 0.03481 0.0
H912 H 0.40315 0.46199 0.98625 0.0
H913 H 0.42291 0.43346 0.9779 0.0
H914 H 0.38421 0.41052 0.93747 0.0
H915 H 0.36428 0.43881 0.94599 0.0
H916 H 0.35351 0.40759 0.96709 0.0
H917 H 0.34542 0.41477 0.147 0.0
H918 H 0.31948 0.45496 0.14226 0.0
H919 H 0.35325 0.47184 0.00857 0.0
C920 C 0.40649 0.37994 0.01473 0.0
C921 C 0.40842 0.35667 0.04041 0.0
C922 C 0.39602 0.35488 0.08376 0.0
C923 C 0.38153 0.37583 0.10096 0.0
C924 C 0.37954 0.39828 0.0742 0.0
C925 C 0.39169 0.40043 0.03199 0.0
C926 C 0.3846 0.42559 0.008 0.0
C927 C 0.40875 0.44294 1.00137 0.0
C928 C 0.37083 0.4203 0.96193 0.0
C929 C 0.36614 0.43707 0.04291 0.0
C930 C 0.36379 0.42123 0.08115 0.0
C931 C 0.34726 0.42742 0.11739 0.0
C932 C 0.33259 0.4503 0.11432 0.0
C933 C 0.33431 0.46657 0.07499 0.0
C934 C 0.3515 0.45986 0.03908 0.0
H935 H 0.36929 0.57273 0.97619 0.0
H936 H 0.31297 0.63539 0.97424 0.0
H937 H 0.34725 0.66613 0.94996 0.0
H938 H 0.41802 0.60791 0.02733 0.0
H939 H 0.44486 0.59386 0.99623 0.0
H940 H 0.41534 0.57551 0.00408 0.0
H941 H 0.41124 0.56943 0.91601 0.0
H942 H 0.44095 0.58763 0.90785 0.0
H943 H 0.41158 0.59756 0.87893 0.0
H944 H 0.38772 0.69107 0.93781 0.0
H945 H 0.43224 0.70894 0.9381 0.0
H946 H 0.46344 0.63074 0.94873 0.0
C947 C 0.36409 0.59272 0.96887 0.0
C948 C 0.33848 0.60169 0.9764 0.0
C949 C 0.33247 0.62816 0.96828 0.0
C950 C 0.35178 0.64572 0.95433 0.0
C951 C 0.37705 0.63655 0.94875 0.0
C952 C 0.38331 0.61066 0.95549 0.0
C953 C 0.41252 0.60661 0.95256 0.0
C954 C 0.4233 0.59532 0.99774 0.0
C955 C 0.41948 0.58928 0.91137 0.0
C956 C 0.42168 0.63438 0.945 0.0
C957 C 0.40082 0.65123 0.94217 0.0
C958 C 0.40423 0.67806 0.93908 0.0
C959 C 0.42961 0.68803 0.93953 0.0
C960 C 0.45133 0.67124 0.94316 0.0
C961 C 0.44724 0.64402 0.94501 0.0
H962 H 0.61311 0.64383 0.0517 0.0
H963 H 0.53695 0.60761 0.05837 0.0
H964 H 0.55747 0.56526 0.07592 0.0
H965 H 0.64125 0.59474 0.98984 0.0
H966 H 0.67297 0.59632 0.0162 0.0
H967 H 0.65274 0.6248 0.01459 0.0
H968 H 0.65571 0.62908 0.10315 0.0
H969 H 0.67636 0.60079 0.10506 0.0
H970 H 0.64701 0.60175 0.13897 0.0
H971 H 0.58568 0.52677 0.08335 0.0
H972 H 0.61966 0.4935 0.07861 0.0
H973 H 0.67834 0.55386 0.06144 0.0
C974 C 0.60083 0.62714 0.05891 0.0
C975 C 0.57351 0.62886 0.05515 0.0
C976 C 0.5579 0.60656 0.06221 0.0
C977 C 0.56939 0.58253 0.07215 0.0
C978 C 0.59647 0.58122 0.07412 0.0
C979 C 0.61205 0.60289 0.06768 0.0
C980 C 0.64059 0.59551 0.06527 0.0
C981 C 0.65257 0.6033 0.01871 0.0
C982 C 0.65581 0.60749 0.10552 0.0
C983 C 0.63853 0.56623 0.07007 0.0
C984 C 0.61293 0.55856 0.07603 0.0
C985 C 0.60582 0.53253 0.0793 0.0
C986 C 0.62536 0.51377 0.07638 0.0
C987 C 0.65177 0.52103 0.06965 0.0
C988 C 0.65839 0.54768 0.0667 0.0
H989 H 0.52565 0.35389 0.97288 0.0
H990 H 0.55845 0.2802 0.92951 0.0
H991 H 0.60204 0.30086 0.92429 0.0
H992 H 0.56575 0.39616 0.9027 0.0
H993 H 0.56864 0.42054 0.9469 0.0
H994 H 0.53997 0.40033 0.94406 0.0
H995 H 0.5471 0.38563 0.02849 0.0
H996 H 0.57548 0.4061 0.03176 0.0
H997 H 0.578 0.37192 0.04493 0.0
H998 H 0.64224 0.32999 0.92538 0.0
H999 H 0.67606 0.36294 0.94297 0.0
H1000 H 0.61607 0.41651 0.98744 0.0
C1001 C 0.54195 0.34209 0.96193 0.0
C1002 C 0.53871 0.31552 0.95128 0.0
C1003 C 0.56058 0.30062 0.93792 0.0
C1004 C 0.58531 0.31224 0.93445 0.0
C1005 C 0.58773 0.33865 0.94471 0.0
C1006 C 0.56664 0.35324 0.9588 0.0
C1007 C 0.57447 0.38066 0.97129 0.0
C1008 C 0.56143 0.40059 0.93932 0.0
C1009 C 0.56842 0.3864 0.02213 0.0
C1010 C 0.6034 0.37924 0.96266 0.0
C1011 C 0.61071 0.35505 0.94652 0.0
C1012 C 0.6367 0.34903 0.93777 0.0
C1013 C 0.65575 0.36791 0.9475 0.0
C1014 C 0.64861 0.39224 0.96645 0.0
C1015 C 0.62206 0.39811 0.97275 0.0
H1016 H 0.24491 0.0222 0.67399 0.0
H1017 H 0.28491 0.94828 0.68124 0.0
H1018 H 0.2948 0.95591 0.763 0.0
H1019 H 0.28701 0.0575 0.76495 0.0
H1020 H 0.25862 0.07416 0.78614 0.0
H1021 H 0.26124 0.06632 0.72592 0.0
H1022 H 0.2169 0.04235 0.73042 0.0
H1023 H 0.21438 0.04948 0.7906 0.0
H1024 H 0.21271 0.01622 0.77124 0.0
H1025 H 0.29068 0.9663 0.84735 0.0
H1026 H 0.27674 0.9812 0.92464 0.0
H1027 H 0.2403 0.04849 0.86153 0.0
C1028 C 0.25713 0.00845 0.6921 0.0
C1029 C 0.26441 0.98485 0.67122 0.0
C1030 C 0.27941 0.96667 0.69655 0.0
C1031 C 0.28507 0.97079 0.74311 0.0
C1032 C 0.27591 0.99338 0.76382 0.0
C1033 C 0.26284 0.01227 0.7388 0.0
C1034 C 0.25205 0.03306 0.77017 0.0
C1035 C 0.26554 0.05931 0.76127 0.0
C1036 C 0.22226 0.03538 0.76531 0.0
C1037 C 0.25962 0.02206 0.81658 0.0
C1038 C 0.27371 -0.0006 0.81248 0.0
C1039 C 0.28029 0.98446 0.85103 0.0
C1040 C 0.27219 0.99295 0.8948 0.0
C1041 C 0.25749 0.01604 0.89946 0.0
C1042 C 0.25171 0.03085 0.85963 0.0
H1043 H 0.01453 0.73004 0.32419 0.0
H1044 H 0.93799 0.6972 0.30095 0.0
H1045 H 0.94912 0.68956 0.2196 0.0
H1046 H 0.01509 0.76686 0.23211 0.0
H1047 H 0.04897 0.76403 0.21686 0.0
H1048 H 0.03902 0.7591 0.27533 0.0
H1049 H 0.05991 0.71333 0.27596 0.0
H1050 H 0.07057 0.71829 0.21752 0.0
H1051 H 0.05127 0.69012 0.2321 0.0
H1052 H 0.96413 0.6954 0.13874 0.0
H1053 H 0.98257 0.71235 0.06617 0.0
H1054 H 0.04899 0.74264 0.14142 0.0
C1055 C 0.0008 0.71971 0.30261 0.0
C1056 C 0.97564 0.71366 0.31897 0.0
C1057 C 0.95756 0.70147 0.2892 0.0
C1058 C 0.96371 0.69713 0.24288 0.0
C1059 C 0.98805 0.70506 0.22686 0.0
C1060 C 0.00653 0.7157 0.25604 0.0
C1061 C 0.02936 0.72665 0.22918 0.0
C1062 C 0.0333 0.75588 0.23895 0.0
C1063 C 0.05425 0.71116 0.23929 0.0
C1064 C 0.02007 0.72204 0.18046 0.0
C1065 C -0.00347 0.709 0.17974 0.0
C1066 C 0.98291 0.705 0.13881 0.0
C1067 C 0.99347 0.71483 0.09772 0.0
C1068 C 0.01728 0.7288 0.09791 0.0
C1069 C 0.0309 0.73182 0.13985 0.0
H1070 H 0.74087 0.00843 0.90507 0.0
H1071 H 0.70763 0.93174 0.88597 0.0
H1072 H 0.69658 0.94283 0.80567 0.0
H1073 H 0.69776 0.04523 0.81909 0.0
H1074 H 0.72528 0.06435 0.80046 0.0
H1075 H 0.72309 0.05358 0.85938 0.0
H1076 H 0.76848 0.03213 0.85211 0.0
H1077 H 0.77072 0.04255 0.7934 0.0
H1078 H 0.774 0.00854 0.80735 0.0
H1079 H 0.69712 0.95876 0.7244 0.0
H1080 H 0.71169 0.97701 0.64972 0.0
H1081 H 0.74697 0.04207 0.72112 0.0
C1082 C 0.73002 0.99457 0.88458 0.0
C1083 C 0.72454 0.96951 0.9017 0.0
C1084 C 0.71156 0.95122 0.87345 0.0
C1085 C 0.70513 0.9574 0.82789 0.0
C1086 C 0.71198 0.98189 0.81106 0.0
C1087 C 0.72408 0.00025 0.8387 0.0
C1088 C 0.73387 0.02307 0.81062 0.0
C1089 C 0.71911 0.04803 0.82313 0.0
C1090 C 0.76351 0.02675 0.8162 0.0
C1091 C 0.72686 0.01395 0.76277 0.0
C1092 C 0.71343 0.99062 0.76367 0.0
C1093 C 0.70711 0.97732 0.72327 0.0
C1094 C 0.71541 0.98777 0.68102 0.0
C1095 C 0.7304 0.01086 0.67992 0.0
C1096 C 0.73538 0.02443 0.72115 0.0
H1097 H 0.94541 0.25289 0.13308 0.0
H1098 H 0.01374 0.28169 0.06131 0.0
H1099 H 0.03047 0.29968 0.13454 0.0
H1100 H 0.94089 0.30659 0.2206 0.0
H1101 H 0.9309 0.2839 0.26454 0.0
H1102 H 0.92197 0.27828 0.20543 0.0
H1103 H 0.9432 0.23259 0.20872 0.0
H1104 H 0.95189 0.238 0.26764 0.0
H1105 H 0.97671 0.22973 0.22641 0.0
H1106 H 0.04309 0.30724 0.21688 0.0
H1107 H 0.05167 0.30128 0.29963 0.0
H1108 H 0.97467 0.26819 0.31741 0.0
C1109 C 0.96363 0.26352 0.13233 0.0
C1110 C 0.97828 0.26585 0.09133 0.0
C1111 C 0.00209 0.27977 0.09217 0.0
C1112 C 0.01166 0.29017 0.1336 0.0
C1113 C -0.00302 0.28685 0.17366 0.0
C1114 C 0.97335 0.27397 0.17315 0.0
C1115 C 0.96277 0.27 0.22126 0.0
C1116 C 0.93764 0.28563 0.22836 0.0
C1117 C 0.95842 0.24087 0.23159 0.0
C1118 C 0.9849 0.28119 0.24936 0.0
C1119 C 0.00416 0.29145 0.22129 0.0
C1120 C 0.02788 0.29989 0.23916 0.0
C1121 C 0.03256 0.2965 0.28631 0.0
C1122 C 0.01369 0.28459 0.31506 0.0
C1123 C 0.9891 0.27813 0.29664 0.0
H1124 H 0.74528 0.01087 0.17287 0.0
H1125 H 0.69575 0.94336 0.18956 0.0
H1126 H 0.6885 0.95491 0.27101 0.0
H1127 H 0.77911 0.00023 0.26631 0.0
H1128 H 0.78454 0.03341 0.28395 0.0
H1129 H 0.77856 0.02621 0.22457 0.0
H1130 H 0.73949 0.05789 0.2231 0.0
H1131 H 0.74576 0.06591 0.28241 0.0
H1132 H 0.71397 0.05459 0.26527 0.0
H1133 H 0.69406 0.96833 0.35314 0.0
H1134 H 0.71229 0.98209 0.42818 0.0
H1135 H 0.76191 0.03788 0.35824 0.0
C1136 C 0.73153 -0.00038 0.19303 0.0
C1137 C 0.72027 0.97684 0.17494 0.0
C1138 C 0.70379 0.96138 0.20276 0.0
C1139 C 0.69968 0.96776 0.24905 0.0
C1140 C 0.71252 0.98944 0.26694 0.0
C1141 C 0.72799 0.00529 0.2396 0.0
C1142 C 0.74375 0.02413 0.26838 0.0
C1143 C 0.77321 0.02076 0.26031 0.0
C1144 C 0.73522 0.0523 0.25925 0.0
C1145 C 0.73594 0.01539 0.31606 0.0
C1146 C 0.71727 0.996 0.31467 0.0
C1147 C 0.70834 0.98383 0.35464 0.0
C1148 C 0.71887 0.99163 0.39703 0.0
C1149 C 0.73864 0.01081 0.39876 0.0
C1150 C 0.74693 0.02301 0.3578 0.0
H1151 H 0.03582 0.24952 0.63063 0.0
H1152 H 0.96756 0.28034 0.56185 0.0
H1153 H 0.95053 0.29528 0.63696 0.0
H1154 H 0.00414 0.22312 0.72246 0.0
H1155 H 0.02913 0.23027 0.76409 0.0
H1156 H 0.0376 0.22643 0.70464 0.0
H1157 H 0.05915 0.27213 0.70495 0.0
H1158 H 0.05045 0.27618 0.76456 0.0
H1159 H 0.04045 0.30001 0.72264 0.0
H1160 H 0.93804 0.30037 0.72027 0.0
H1161 H 0.93023 0.29319 0.80305 0.0
H1162 H 0.00723 0.25998 0.81698 0.0
C1163 C 0.01751 0.25989 0.631 0.0
C1164 C 0.00302 0.26374 0.59018 0.0
C1165 C 0.97908 0.27726 0.59253 0.0
C1166 C 0.96934 0.28592 0.63506 0.0
C1167 C 0.98395 0.28127 0.67475 0.0
C1168 C 0.00763 0.26867 0.6729 0.0
C1169 C 0.01834 0.26345 0.72052 0.0
C1170 C 0.02252 0.23409 0.72836 0.0
C1171 C 0.0436 0.27887 0.72863 0.0
C1172 C -0.00362 0.27386 0.74979 0.0
C1173 C 0.97694 0.28456 0.7228 0.0
C1174 C 0.9534 0.29264 0.74174 0.0
C1175 C 0.94915 0.28857 0.78888 0.0
C1176 C 0.96831 0.27644 0.8166 0.0
C1177 C 0.99262 0.27013 0.79706 0.0
H1178 H 0.24521 0.95381 0.35833 0.0
H1179 H 0.27163 0.02292 0.43034 0.0
H1180 H 0.28915 0.04035 0.35712 0.0
H1181 H 0.29851 0.95059 0.27108 0.0
H1182 H 0.27611 0.94041 0.22688 0.0
H1183 H 0.27037 0.93128 0.28591 0.0
H1184 H 0.22443 0.95199 0.28243 0.0
H1185 H 0.22993 0.96079 0.22351 0.0
H1186 H 0.22122 0.98545 0.26468 0.0
H1187 H 0.2983 0.05255 0.27501 0.0
H1188 H 0.2934 0.06093 0.19204 0.0
H1189 H 0.26026 0.98401 0.17379 0.0
C1190 C 0.25529 0.97233 0.3592 0.0
C1191 C 0.25725 0.98689 0.40035 0.0
C1192 C 0.27002 0.01133 0.39941 0.0
C1193 C 0.28021 0.02126 0.35801 0.0
C1194 C 0.27756 0.00648 0.31797 0.0
C1195 C 0.26529 0.98255 0.31834 0.0
C1196 C 0.26164 0.972 0.27015 0.0
C1197 C 0.27762 0.94709 0.2631 0.0
C1198 C 0.2326 0.96731 0.25959 0.0
C1199 C 0.27263 0.99431 0.24216 0.0
C1200 C 0.28242 0.01368 0.27041 0.0
C1201 C 0.29114 0.03732 0.25263 0.0
C1202 C 0.28837 0.04187 0.20534 0.0
C1203 C 0.27665 0.02302 0.17635 0.0
C1204 C 0.26999 -0.00154 0.19475 0.0
H1205 H 0.05025 0.74172 0.77636 0.0
H1206 H 0.98091 0.71472 0.84738 0.0
H1207 H 0.96102 0.70353 0.77264 0.0
H1208 H 0.0192 0.77395 0.69166 0.0
H1209 H 0.04176 0.76643 0.64613 0.0
H1210 H 0.05274 0.76678 0.70471 0.0
H1211 H 0.06934 0.71947 0.69645 0.0
H1212 H 0.05846 0.71899 0.63752 0.0
H1213 H 0.04737 0.69435 0.67716 0.0
H1214 H 0.94561 0.70355 0.69133 0.0
H1215 H 0.93606 0.71434 0.61037 0.0
H1216 H 0.0155 0.74059 0.59131 0.0
C1217 C 0.0312 0.73264 0.77647 0.0
C1218 C 0.0172 0.72901 0.81796 0.0
C1219 C 0.99214 0.71751 0.81625 0.0
C1220 C 0.98071 0.71104 0.77387 0.0
C1221 C 0.99468 0.71589 0.73356 0.0
C1222 C 0.01954 0.72617 0.73456 0.0
C1223 C 0.02922 0.73255 0.68656 0.0
C1224 C 0.03611 0.76164 0.68203 0.0
C1225 C 0.05248 0.7153 0.67367 0.0
C1226 C 0.0054 0.72557 0.65844 0.0
C1227 C 0.98586 0.71554 0.68616 0.0
C1228 C 0.96098 0.71064 0.66912 0.0
C1229 C 0.95572 0.71684 0.62313 0.0
C1230 C 0.97524 0.72771 0.59454 0.0
C1231 C 0.00058 0.73136 0.61204 0.0
H1232 H 0.7571 0.48976 0.40767 0.0
H1233 H 0.76002 0.57349 0.39042 0.0
H1234 H 0.77247 0.56807 0.30934 0.0
H1235 H 0.81107 0.47401 0.32096 0.0
H1236 H 0.79366 0.44559 0.30145 0.0
H1237 H 0.79107 0.45579 0.36056 0.0
H1238 H 0.74085 0.45729 0.35272 0.0
H1239 H 0.7433 0.44723 0.29383 0.0
H1240 H 0.72649 0.4769 0.308 0.0
H1241 H 0.775 0.55422 0.2276 0.0
H1242 H 0.76878 0.53252 0.15256 0.0
H1243 H 0.76618 0.45776 0.22215 0.0
C1244 C 0.76154 0.50684 0.38726 0.0
C1245 C 0.75778 0.532 0.40532 0.0
C1246 C 0.76285 0.554 0.3772 0.0
C1247 C 0.77006 0.55114 0.33111 0.0
C1248 C 0.7724 0.52612 0.31349 0.0
C1249 C 0.76868 0.50429 0.34082 0.0
C1250 C 0.76909 0.47976 0.31202 0.0
C1251 C 0.79263 0.46279 0.3245 0.0
C1252 C 0.74341 0.46442 0.31693 0.0
C1253 C 0.77203 0.49135 0.26429 0.0
C1254 C 0.77437 0.51808 0.26584 0.0
C1255 C 0.77397 0.53321 0.22587 0.0
C1256 C 0.7704 0.52075 0.18332 0.0
C1257 C 0.76725 0.49342 0.18114 0.0
C1258 C 0.76907 0.47864 0.22222 0.0
H1259 H 0.54084 0.25168 0.6444 0.0
H1260 H 0.47308 0.22184 0.57231 0.0
H1261 H 0.45655 0.20345 0.64545 0.0
H1262 H 0.54696 0.19783 0.72966 0.0
H1263 H 0.55639 0.22009 0.77455 0.0
H1264 H 0.56485 0.22701 0.71561 0.0
H1265 H 0.54198 0.27186 0.72098 0.0
H1266 H 0.53401 0.26524 0.7799 0.0
H1267 H 0.50855 0.27326 0.7397 0.0
H1268 H 0.44471 0.19395 0.72747 0.0
H1269 H 0.43627 0.19858 0.81052 0.0
H1270 H 0.51225 0.23368 0.82878 0.0
C1271 C 0.52273 0.24087 0.64356 0.0
C1272 C 0.50829 0.23817 0.6024 0.0
C1273 C 0.48453 0.22414 0.60329 0.0
C1274 C 0.47513 0.21342 0.64463 0.0
C1275 C 0.48986 0.21663 0.68461 0.0
C1276 C 0.51315 0.2301 0.68429 0.0
C1277 C 0.52385 0.23362 0.73239 0.0
C1278 C 0.54954 0.21874 0.73839 0.0
C1279 C 0.52727 0.2627 0.7439 0.0
C1280 C 0.50226 0.22124 0.76033 0.0
C1281 C 0.48314 0.21092 0.73208 0.0
C1282 C 0.45982 0.20136 0.74987 0.0
C1283 C 0.45525 0.20388 0.79719 0.0
C1284 C 0.47384 0.21601 0.82612 0.0
C1285 C 0.49818 0.2234 0.80779 0.0
H1286 H 0.2253 0.46495 0.17967 0.0
H1287 H 0.19365 0.54223 0.19458 0.0
H1288 H 0.1856 0.53382 0.2771 0.0
H1289 H 0.18353 0.43186 0.2758 0.0
H1290 H 0.21117 0.41222 0.29136 0.0
H1291 H 0.20595 0.42116 0.23212 0.0
H1292 H 0.25252 0.44044 0.2293 0.0
H1293 H 0.25771 0.43245 0.28852 0.0
H1294 H 0.26154 0.46562 0.26943 0.0
H1295 H 0.19331 0.52162 0.36038 0.0
H1296 H 0.21144 0.50506 0.43373 0.0
H1297 H 0.23734 0.4354 0.36342 0.0
C1298 C 0.21487 0.47929 0.19971 0.0
C1299 C 0.20939 0.5039 0.18076 0.0
C1300 C 0.19708 0.52291 0.20821 0.0
C1301 C 0.19273 0.51836 0.2553 0.0
C1302 C 0.20036 0.49451 0.27398 0.0
C1303 C 0.21041 0.47493 0.24655 0.0
C1304 C 0.22085 0.45271 0.27525 0.0
C1305 C 0.20438 0.42803 0.26822 0.0
C1306 C 0.24985 0.44755 0.26501 0.0
C1307 C 0.21706 0.46365 0.32298 0.0
C1308 C 0.20476 0.48751 0.32193 0.0
C1309 C 0.20219 0.50257 0.36169 0.0
C1310 C 0.21266 0.49308 0.40322 0.0
C1311 C 0.22581 0.4689 0.40453 0.0
C1312 C 0.22727 0.45387 0.36393 0.0
H1313 H 0.51199 0.74391 0.61726 0.0
H1314 H 0.4363 0.78 0.63013 0.0
H1315 H 0.44753 0.79512 0.70795 0.0
H1316 H 0.51313 0.7176 0.7217 0.0
H1317 H 0.54718 0.72219 0.73438 0.0
H1318 H 0.53653 0.72044 0.67573 0.0
H1319 H 0.55763 0.76528 0.6588 0.0
H1320 H 0.56863 0.76708 0.71758 0.0
H1321 H 0.54923 0.79296 0.69374 0.0
H1322 H 0.46204 0.79668 0.78926 0.0
H1323 H 0.48017 0.78674 0.86604 0.0
H1324 H 0.54724 0.7512 0.80105 0.0
C1325 C 0.49846 0.75624 0.63561 0.0
C1326 C 0.47349 0.76119 0.61758 0.0
C1327 C 0.45569 0.77633 0.64327 0.0
C1328 C 0.4619 0.78502 0.68751 0.0
C1329 C 0.48611 0.7786 0.70563 0.0
C1330 C 0.50437 0.76496 0.68021 0.0
C1331 C 0.52736 0.75739 0.70994 0.0
C1332 C 0.53124 0.72766 0.71047 0.0
C1333 C 0.55219 0.77153 0.69407 0.0
C1334 C 0.51837 0.76738 0.75633 0.0
C1335 C 0.49474 0.77996 0.75307 0.0
C1336 C 0.48096 0.78765 0.79217 0.0
C1337 C 0.49135 0.78187 0.83571 0.0
C1338 C 0.5153 0.76856 0.83976 0.0
C1339 C 0.52924 0.76206 0.79935 0.0
H1340 H 0.26898 0.47618 0.90542 0.0
H1341 H 0.20309 0.52848 0.90938 0.0
H1342 H 0.19201 0.51655 0.82905 0.0
H1343 H 0.28905 0.48887 0.79525 0.0
H1344 H 0.29786 0.4559 0.78126 0.0
H1345 H 0.29857 0.46656 0.84004 0.0
H1346 H 0.26729 0.42905 0.86309 0.0
H1347 H 0.26666 0.41811 0.80428 0.0
H1348 H 0.23665 0.42543 0.83358 0.0
H1349 H 0.19311 0.50373 0.74339 0.0
H1350 H 0.20321 0.48736 0.66497 0.0
H1351 H 0.26586 0.441 0.72204 0.0
C1352 C 0.25183 0.48459 0.88969 0.0
C1353 C 0.23681 0.50312 0.91329 0.0
C1354 C 0.21461 0.51395 0.8918 0.0
C1355 C 0.20827 0.50738 0.84619 0.0
C1356 C 0.22396 0.48947 0.82326 0.0
C1357 C 0.2449 0.47776 0.84488 0.0
C1358 C 0.25928 0.45977 0.81282 0.0
C1359 C 0.28786 0.4683 0.80701 0.0
C1360 C 0.25734 0.43141 0.82944 0.0
C1361 C 0.24388 0.46391 0.76922 0.0
C1362 C 0.2236 0.48112 0.77547 0.0
C1363 C 0.2085 0.48968 0.73842 0.0
C1364 C 0.21438 0.48038 0.69402 0.0
C1365 C 0.23497 0.46252 0.68738 0.0
C1366 C 0.2495 0.45407 0.72583 0.0
H1367 H 0.53495 0.73539 0.16218 0.0
H1368 H 0.4697 0.77052 0.09072 0.0
H1369 H 0.45127 0.78411 0.1656 0.0
H1370 H 0.49978 0.70793 0.24948 0.0
H1371 H 0.52391 0.71306 0.29355 0.0
H1372 H 0.53377 0.71023 0.23456 0.0
H1373 H 0.55712 0.75492 0.23982 0.0
H1374 H 0.54713 0.75796 0.29898 0.0
H1375 H 0.53916 0.78313 0.25819 0.0
H1376 H 0.43709 0.78804 0.24821 0.0
H1377 H 0.42735 0.78032 0.33018 0.0
H1378 H 0.50231 0.7431 0.34736 0.0
C1379 C 0.51703 0.74642 0.16194 0.0
C1380 C 0.50378 0.75191 0.12037 0.0
C1381 C 0.48028 0.76619 0.12198 0.0
C1382 C 0.46975 0.77408 0.16438 0.0
C1383 C 0.48312 0.76782 0.20473 0.0
C1384 C 0.50634 0.7544 0.20372 0.0
C1385 C 0.51565 0.74763 0.25168 0.0
C1386 C 0.51842 0.71797 0.25764 0.0
C1387 C 0.54129 0.76176 0.26282 0.0
C1388 C 0.49342 0.75827 0.28004 0.0
C1389 C 0.47508 0.7703 0.25241 0.0
C1390 C 0.45157 0.7792 0.27022 0.0
C1391 C 0.44623 0.77476 0.31687 0.0
C1392 C 0.46426 0.76146 0.34528 0.0
C1393 C 0.48855 0.75406 0.3269 0.0
H1394 H 0.73968 0.45444 0.86335 0.0
H1395 H 0.77614 0.51922 0.93427 0.0
H1396 H 0.79282 0.53569 0.85971 0.0
H1397 H 0.78925 0.44581 0.77232 0.0
H1398 H 0.76491 0.43874 0.72946 0.0
H1399 H 0.75923 0.43009 0.78871 0.0
H1400 H 0.71626 0.45647 0.78854 0.0
H1401 H 0.72161 0.46472 0.72928 0.0
H1402 H 0.71692 0.49014 0.77107 0.0
H1403 H 0.80172 0.54715 0.77692 0.0
H1404 H 0.79682 0.55612 0.69409 0.0
H1405 H 0.75407 0.48395 0.67749 0.0
C1406 C 0.75163 0.47183 0.86353 0.0
C1407 C 0.75683 0.4854 0.90487 0.0
C1408 C 0.77198 0.50843 0.90317 0.0
C1409 C 0.78173 0.51777 0.861 0.0
C1410 C 0.77618 0.50383 0.82092 0.0
C1411 C 0.76126 0.48146 0.82192 0.0
C1412 C 0.75538 0.47168 0.77389 0.0
C1413 C 0.76795 0.445 0.76562 0.0
C1414 C 0.7258 0.47072 0.7652 0.0
C1415 C 0.7685 0.4926 0.74535 0.0
C1416 C 0.78097 0.51061 0.77313 0.0
C1417 C 0.79239 0.53296 0.7549 0.0
C1418 C 0.78967 0.53781 0.70768 0.0
C1419 C 0.77536 0.52056 0.67919 0.0
C1420 C 0.76584 0.49704 0.69799 0.0
H1421 H 0.54261 0.23251 0.28466 0.0
H1422 H 0.469 0.21848 0.35377 0.0
H1423 H 0.44867 0.20852 0.27878 0.0
H1424 H 0.51779 0.26759 0.19751 0.0
H1425 H 0.53954 0.25611 0.15338 0.0
H1426 H 0.5497 0.25573 0.21239 0.0
H1427 H 0.55917 0.20635 0.2068 0.0
H1428 H 0.54904 0.20658 0.14744 0.0
H1429 H 0.53395 0.18446 0.1876 0.0
H1430 H 0.43478 0.20795 0.19684 0.0
H1431 H 0.42774 0.21892 0.11531 0.0
H1432 H 0.51017 0.23427 0.09873 0.0
C1433 C 0.52242 0.22641 0.28443 0.0
C1434 C 0.50746 0.22602 0.32535 0.0
C1435 C 0.48093 0.21868 0.32308 0.0
C1436 C 0.46926 0.21288 0.28059 0.0
C1437 C 0.4844 0.21441 0.24076 0.0
C1438 C 0.51048 0.22092 0.24239 0.0
C1439 C 0.52158 0.22507 0.1946 0.0
C1440 C 0.53278 0.25276 0.18919 0.0
C1441 C 0.54215 0.20437 0.18346 0.0
C1442 C 0.49735 0.22126 0.16574 0.0
C1443 C 0.47628 0.21444 0.193 0.0
C1444 C 0.45122 0.21266 0.17508 0.0
C1445 C 0.44742 0.21896 0.12873 0.0
C1446 C 0.4685 0.22708 0.10072 0.0
C1447 C 0.49391 0.2273 0.11904 0.0
H1448 H 0.36103 0.22154 0.03602 0.0
H1449 H 0.3443 0.23982 0.89334 0.0
H1450 H 0.30664 0.20999 0.8953 0.0
H1451 H 0.3497 0.15586 0.02719 0.0
H1452 H 0.33502 0.15164 0.083 0.0
H1453 H 0.35784 0.1777 0.0735 0.0
H1454 H 0.32372 0.21129 0.10099 0.0
H1455 H 0.30082 0.18526 0.11114 0.0
H1456 H 0.29207 0.21206 0.07427 0.0
H1457 H 0.27474 0.17481 0.90927 0.0
H1458 H 0.24967 0.13659 0.93466 0.0
H1459 H 0.28745 0.14022 0.06817 0.0
C1460 C 0.34893 0.21988 0.00567 0.0
C1461 C 0.35539 0.23308 0.96462 0.0
C1462 C 0.33959 0.22989 0.92515 0.0
C1463 C 0.31813 0.2131 0.92599 0.0
C1464 C 0.31279 0.1997 0.96653 0.0
C1465 C 0.32759 0.20298 0.00578 0.0
C1466 C 0.31926 0.1843 0.04334 0.0
C1467 C 0.3418 0.16631 0.05756 0.0
C1468 C 0.30831 0.19912 0.08489 0.0
C1469 C 0.29807 0.16944 0.01848 0.0
C1470 C 0.29444 0.17891 0.97447 0.0
C1471 C 0.27709 0.16744 0.94388 0.0
C1472 C 0.26306 0.14562 0.9586 0.0
C1473 C 0.26659 0.1354 0.00345 0.0
C1474 C 0.28417 0.14769 0.03383 0.0
H1475 H 0.20975 0.64346 0.07603 0.0
H1476 H 0.1954 0.59231 0.9602 0.0
H1477 H 0.16766 0.6258 0.92438 0.0
H1478 H 0.14409 0.66726 0.08184 0.0
H1479 H 0.15343 0.69971 0.09866 0.0
H1480 H 0.17378 0.67252 0.11358 0.0
H1481 H 0.2129 0.69497 0.07337 0.0
H1482 H 0.19256 0.72211 0.05788 0.0
H1483 H 0.21009 0.70469 0.01401 0.0
H1484 H 0.14264 0.66464 0.90028 0.0
H1485 H 0.11552 0.70395 0.89468 0.0
H1486 H 0.1426 0.72874 0.02913 0.0
C1487 C 0.20077 0.63946 0.0431 0.0
C1488 C 0.20468 0.6155 0.02062 0.0
C1489 C 0.19243 0.61059 0.97793 0.0
C1490 C 0.17688 0.62954 0.95716 0.0
C1491 C 0.17348 0.65306 0.97997 0.0
C1492 C 0.18457 0.65793 0.02241 0.0
C1493 C 0.17595 0.68402 0.04109 0.0
C1494 C 0.16091 0.68067 0.08647 0.0
C1495 C 0.19927 0.70254 0.04692 0.0
C1496 C 0.15824 0.69293 0.00255 0.0
C1497 C 0.15763 0.675 0.96722 0.0
C1498 C 0.14284 0.67882 0.92774 0.0
C1499 C 0.12763 0.70128 0.92478 0.0
C1500 C 0.12694 0.71932 0.96152 0.0
C1501 C 0.14275 0.71523 1.00059 0.0
H1502 H 0.7088 0.85815 0.97841 0.0
H1503 H 0.72371 0.85061 0.12481 0.0
H1504 H 0.69133 0.81517 0.12936 0.0
H1505 H 0.64097 0.84918 0.98489 0.0
H1506 H 0.63846 0.83103 0.93209 0.0
H1507 H 0.66429 0.85438 0.93945 0.0
H1508 H 0.69849 0.81874 0.92201 0.0
H1509 H 0.67274 0.79528 0.91431 0.0
H1510 H 0.69837 0.78907 0.95515 0.0
H1511 H 0.65599 0.78221 0.11882 0.0
H1512 H 0.61999 0.75373 0.09386 0.0
H1513 H 0.62785 0.78339 0.95455 0.0
C1514 C 0.70557 0.8488 0.01131 0.0
C1515 C 0.71884 0.85708 0.05122 0.0
C1516 C 0.71377 0.84458 0.09376 0.0
C1517 C 0.69547 0.8244 0.0967 0.0
C1518 C 0.68245 0.81702 0.05683 0.0
C1519 C 0.68729 0.82877 0.01493 0.0
C1520 C 0.66979 0.81801 0.97769 0.0
C1521 C 0.65234 0.83942 0.95736 0.0
C1522 C 0.68581 0.80446 0.94007 0.0
C1523 C 0.65411 0.7986 0.00537 0.0
C1524 C 0.66183 0.7982 0.05085 0.0
C1525 C 0.64985 0.78221 0.08324 0.0
C1526 C 0.6294 0.76614 0.0687 0.0
C1527 C 0.62109 0.76633 0.02223 0.0
C1528 C 0.63373 0.78277 0.99029 0.0
H1529 H 0.78863 0.37256 0.9626 0.0
H1530 H 0.77805 0.36178 0.10958 0.0
H1531 H 0.80217 0.32062 0.1059 0.0
H1532 H 0.78465 0.30409 0.92964 0.0
H1533 H 0.81017 0.30667 0.88733 0.0
H1534 H 0.79007 0.33445 0.89997 0.0
H1535 H 0.83114 0.36187 0.91883 0.0
H1536 H 0.85131 0.33433 0.90555 0.0
H1537 H 0.85404 0.34996 0.96078 0.0
H1538 H 0.82739 0.28186 0.0879 0.0
H1539 H 0.85884 0.25009 0.05876 0.0
H1540 H 0.85553 0.28624 0.92369 0.0
C1541 C 0.79139 0.36143 0.99386 0.0
C1542 C 0.78153 0.37021 0.03632 0.0
C1543 C 0.78568 0.35544 0.07675 0.0
C1544 C 0.79904 0.33189 0.07496 0.0
C1545 C 0.80826 0.32359 0.03257 0.0
C1546 C 0.80512 0.33802 0.99287 0.0
C1547 C 0.81915 0.32564 0.95274 0.0
C1548 C 0.79985 0.31721 0.91521 0.0
C1549 C 0.84016 0.34404 0.93336 0.0
C1550 C 0.83106 0.30232 0.97653 0.0
C1551 C 0.82392 0.30129 0.0223 0.0
C1552 C 0.83314 0.28232 0.05212 0.0
C1553 C 0.85102 0.26441 0.03519 0.0
C1554 C 0.85974 0.26587 0.98904 0.0
C1555 C 0.84901 0.28456 0.95898 0.0
H1556 H 0.7203 0.14492 0.55545 0.0
H1557 H 0.67474 0.07648 0.51962 0.0
H1558 H 0.63633 0.10397 0.50752 0.0
H1559 H 0.6667 0.17953 0.61515 0.0
H1560 H 0.67707 0.21088 0.59401 0.0
H1561 H 0.7007 0.18564 0.604 0.0
H1562 H 0.71675 0.19009 0.5199 0.0
H1563 H 0.69313 0.21521 0.50958 0.0
H1564 H 0.69373 0.18674 0.47349 0.0
H1565 H 0.60484 0.13845 0.48958 0.0
H1566 H 0.58044 0.1786 0.4725 0.0
H1567 H 0.64458 0.22507 0.52437 0.0
C1568 C 0.70214 0.13569 0.54575 0.0
C1569 C 0.70058 0.10853 0.53841 0.0
C1570 C 0.67647 0.09721 0.52558 0.0
C1571 C 0.65448 0.11265 0.51864 0.0
C1572 C 0.65679 0.13933 0.52532 0.0
C1573 C 0.67983 0.15081 0.53917 0.0
C1574 C 0.67714 0.18013 0.54204 0.0
C1575 C 0.6806 0.1896 0.59177 0.0
C1576 C 0.69632 0.19384 0.5093 0.0
C1577 C 0.64925 0.18331 0.5261 0.0
C1578 C 0.63795 0.15944 0.5167 0.0
C1579 C 0.61319 0.15724 0.49773 0.0
C1580 C 0.59958 0.18007 0.48793 0.0
C1581 C 0.61065 0.20466 0.49768 0.0
C1582 C 0.63561 0.20636 0.5176 0.0
H1583 H 0.13003 0.29161 0.42986 0.0
H1584 H 0.12135 0.25624 0.56481 0.0
H1585 H 0.1597 0.28053 0.59215 0.0
H1586 H 0.20091 0.29213 0.42827 0.0
H1587 H 0.20278 0.32318 0.39955 0.0
H1588 H 0.17532 0.30202 0.38967 0.0
H1589 H 0.14389 0.3389 0.41398 0.0
H1590 H 0.17122 0.36017 0.42371 0.0
H1591 H 0.14808 0.35428 0.46916 0.0
H1592 H 0.19738 0.31007 0.6061 0.0
H1593 H 0.23167 0.34374 0.60609 0.0
H1594 H 0.2162 0.35942 0.46188 0.0
C1595 C 0.13626 0.28883 0.46508 0.0
C1596 C 0.12268 0.272 0.49515 0.0
C1597 C 0.13143 0.26901 0.54107 0.0
C1598 C 0.15325 0.28265 0.55693 0.0
C1599 C 0.16615 0.29909 0.52642 0.0
C1600 C 0.15803 0.30225 0.48149 0.0
C1601 C 0.1748 0.32186 0.45627 0.0
C1602 C 0.18932 0.30902 0.41607 0.0
C1603 C 0.15852 0.34518 0.43984 0.0
C1604 C 0.19333 0.32953 0.49433 0.0
C1605 C 0.1881 0.31604 0.53441 0.0
C1606 C 0.20185 0.32061 0.57484 0.0
C1607 C 0.22124 0.33979 0.57449 0.0
C1608 C 0.22667 0.35413 0.53394 0.0
C1609 C 0.21275 0.34857 0.49325 0.0
H1610 H 0.35255 0.78742 0.44874 0.0
H1611 H 0.34768 0.7514 0.58375 0.0
H1612 H 0.31297 0.78176 0.60535 0.0
H1613 H 0.34503 0.85157 0.48652 0.0
H1614 H 0.32547 0.86222 0.43866 0.0
H1615 H 0.34817 0.83595 0.43134 0.0
H1616 H 0.311 0.80606 0.40207 0.0
H1617 H 0.28817 0.83233 0.40899 0.0
H1618 H 0.28231 0.80153 0.4369 0.0
H1619 H 0.28209 0.81758 0.61524 0.0
H1620 H 0.25502 0.85689 0.61212 0.0
H1621 H 0.27926 0.87014 0.4708 0.0
C1622 C 0.34382 0.78565 0.48249 0.0
C1623 C 0.35281 0.76712 0.51457 0.0
C1624 C 0.34119 0.76556 0.55868 0.0
C1625 C 0.32138 0.78262 0.57126 0.0
C1626 C 0.31337 0.80102 0.5393 0.0
C1627 C 0.32402 0.80263 0.49576 0.0
C1628 C 0.31277 0.82529 0.46914 0.0
C1629 C 0.33414 0.84491 0.45564 0.0
C1630 C 0.29766 0.81572 0.42677 0.0
C1631 C 0.29465 0.83642 0.50504 0.0
C1632 C 0.29522 0.82197 0.54508 0.0
C1633 C 0.28117 0.82895 0.58395 0.0
C1634 C 0.26598 0.85139 0.58188 0.0
C1635 C 0.26503 0.86653 0.54118 0.0
C1636 C 0.27945 0.85882 0.50223 0.0
H1637 H 0.86587 0.71569 0.53476 0.0
H1638 H 0.84432 0.73632 0.39515 0.0
H1639 H 0.8043 0.70994 0.40237 0.0
H1640 H 0.84701 0.6505 0.52666 0.0
H1641 H 0.83519 0.64781 0.58482 0.0
H1642 H 0.86029 0.67104 0.57112 0.0
H1643 H 0.83203 0.70813 0.60469 0.0
H1644 H 0.80678 0.68497 0.61852 0.0
H1645 H 0.79944 0.71292 0.58337 0.0
H1646 H 0.76861 0.6794 0.4224 0.0
H1647 H 0.74072 0.64416 0.45173 0.0
H1648 H 0.78619 0.64179 0.57764 0.0
C1649 C 0.85242 0.71508 0.5061 0.0
C1650 C 0.85798 0.72818 0.46454 0.0
C1651 C 0.84034 0.72642 0.4273 0.0
C1652 C 0.81752 0.71165 0.43118 0.0
C1653 C 0.81275 0.69868 0.47241 0.0
C1654 C 0.82974 0.7001 0.50915 0.0
C1655 C 0.82128 0.6823 0.54794 0.0
C1656 C 0.84218 0.6617 0.5582 0.0
C1657 C 0.81447 0.69803 0.59119 0.0
C1658 C 0.79721 0.67021 0.52678 0.0
C1659 C 0.79242 0.68031 0.48356 0.0
C1660 C 0.77199 0.67148 0.45635 0.0
C1661 C 0.75628 0.6514 0.47338 0.0
C1662 C 0.76127 0.64015 0.51704 0.0
C1663 C 0.78176 0.65007 0.54432 0.0
loop_
_geom_bond_atom_site_label_1
_geom_bond_atom_site_label_2
_geom_bond_distance
_geom_bond_site_symmetry_2
_ccdc_geom_bond_type
O0 Zn1 1.953 . S
O0 C16 1.225 . S
Zn1 O0 1.953 . S
Zn1 O2 1.949 . S
Zn1 O8 1.919 . S
Zn1 O13 1.924 . S
O2 Zn1 1.949 . S
O2 Zn3 1.923 . S
O2 Zn4 1.950 . S
O2 Zn5 1.925 1_554 S
Zn3 O2 1.923 . S
Zn3 O6 1.933 1_554 S
Zn3 O9 1.944 . S
Zn3 O10 1.965 . S
Zn4 O2 1.950 . S
Zn4 O11 1.938 . S
Zn4 O12 1.906 . S
Zn4 O22 1.953 . S
Zn5 O2 1.925 1_556 S
Zn5 O7 1.947 . S
Zn5 O14 1.974 1_556 S
Zn5 O15 1.917 . S
O6 Zn3 1.933 1_556 S
O6 C17 1.226 . S
O7 Zn5 1.947 . S
O7 C17 1.307 . S
O8 Zn1 1.919 . S
O8 C19 1.253 . S
O9 Zn3 1.944 . S
O9 C19 1.284 . S
O10 Zn3 1.965 . S
O10 C18 1.303 . S
O11 Zn4 1.938 . S
O11 C18 1.247 . S
O12 Zn4 1.906 . S
O12 C20 1.304 . S
O13 Zn1 1.924 . S
O13 C21 1.319 . S
O14 Zn5 1.974 1_554 S
O14 C20 1.272 . S
O15 Zn5 1.917 . S
O15 C21 1.226 1_556 S
C16 O0 1.225 . S
C16 O22 1.298 . S
C17 O6 1.226 . S
C17 O7 1.307 . S
C18 O10 1.303 . S
C18 O11 1.247 . S
C19 O8 1.253 . S
C19 O9 1.284 . S
C20 O12 1.304 . S
C20 O14 1.272 . S
C21 O13 1.319 . S
C21 O15 1.226 1_554 S
O22 Zn4 1.953 . S
O22 C16 1.298 . S
O23 Zn24 1.953 . S
O23 C39 1.225 . S
Zn24 O23 1.953 . S
Zn24 O25 1.949 . S
Zn24 O31 1.919 . S
Zn24 O36 1.924 . S
O25 Zn24 1.949 . S
O25 Zn26 1.923 . S
O25 Zn27 1.950 . S
O25 Zn28 1.935 1_556 S
Zn26 O25 1.923 . S
Zn26 O29 1.933 1_556 S
Zn26 O32 1.953 . S
Zn26 O33 1.965 . S
Zn27 O25 1.950 . S
Zn27 O34 1.938 . S
Zn27 O35 1.906 . S
Zn27 O45 1.953 . S
Zn28 O25 1.935 1_554 S
Zn28 O30 1.940 . S
Zn28 O37 1.975 1_554 S
Zn28 O38 1.914 . S
O29 Zn26 1.933 1_554 S
O29 C40 1.226 . S
O30 Zn28 1.940 . S
O30 C40 1.307 . S
O31 Zn24 1.919 . S
O31 C42 1.253 . S
O32 Zn26 1.953 . S
O32 C42 1.285 . S
O33 Zn26 1.965 . S
O33 C41 1.303 . S
O34 Zn27 1.938 . S
O34 C41 1.247 . S
O35 Zn27 1.906 . S
O35 C43 1.304 . S
O36 Zn24 1.924 . S
O36 C44 1.325 . S
O37 Zn28 1.975 1_556 S
O37 C43 1.272 . S
O38 Zn28 1.914 . S
O38 C44 1.222 1_554 S
C39 O23 1.225 . S
C39 O45 1.298 . S
C40 O29 1.226 . S
C40 O30 1.307 . S
C41 O33 1.303 . S
C41 O34 1.247 . S
C42 O31 1.253 . S
C42 O32 1.285 . S
C43 O35 1.304 . S
C43 O37 1.272 . S
C44 O36 1.325 . S
C44 O38 1.222 1_556 S
O45 Zn27 1.953 . S
O45 C39 1.298 . S
O46 Zn47 1.953 . S
O46 C62 1.225 . S
Zn47 O46 1.953 . S
Zn47 O48 1.949 . S
Zn47 O54 1.919 . S
Zn47 O59 1.924 . S
O48 Zn47 1.949 . S
O48 Zn49 1.923 . S
O48 Zn50 1.950 . S
O48 Zn51 1.936 1_554 S
Zn49 O48 1.923 . S
Zn49 O52 1.933 1_554 S
Zn49 O55 1.951 . S
Zn49 O56 1.965 . S
Zn50 O48 1.950 . S
Zn50 O57 1.938 . S
Zn50 O58 1.906 . S
Zn50 O68 1.953 . S
Zn51 O48 1.936 1_556 S
Zn51 O53 1.939 . S
Zn51 O60 1.975 1_556 S
Zn51 O61 1.913 . S
O52 Zn49 1.933 1_556 S
O52 C63 1.226 . S
O53 Zn51 1.939 . S
O53 C63 1.307 . S
O54 Zn47 1.919 . S
O54 C65 1.253 . S
O55 Zn49 1.951 . S
O55 C65 1.285 . S
O56 Zn49 1.965 . S
O56 C64 1.303 . S
O57 Zn50 1.938 . S
O57 C64 1.247 . S
O58 Zn50 1.906 . S
O58 C66 1.304 . S
O59 Zn47 1.924 . S
O59 C67 1.326 . S
O60 Zn51 1.975 1_554 S
O60 C66 1.272 . S
O61 Zn51 1.913 . S
O61 C67 1.221 1_556 S
C62 O46 1.225 . S
C62 O68 1.298 . S
C63 O52 1.226 . S
C63 O53 1.307 . S
C64 O56 1.303 . S
C64 O57 1.247 . S
C65 O54 1.253 . S
C65 O55 1.285 . S
C66 O58 1.304 . S
C66 O60 1.272 . S
C67 O59 1.326 . S
C67 O61 1.221 1_554 S
O68 Zn50 1.953 . S
O68 C62 1.298 . S
O69 Zn70 1.953 . S
O69 C85 1.225 . S
Zn70 O69 1.953 . S
Zn70 O71 1.949 . S
Zn70 O77 1.919 . S
Zn70 O82 1.924 . S
O71 Zn70 1.949 . S
O71 Zn72 1.923 . S
O71 Zn73 1.950 . S
O71 Zn74 1.945 1_556 S
Zn72 O71 1.923 . S
Zn72 O75 1.933 1_556 S
Zn72 O78 1.954 . S
Zn72 O79 1.965 . S
Zn73 O71 1.950 . S
Zn73 O80 1.938 . S
Zn73 O81 1.906 . S
Zn73 O91 1.953 . S
Zn74 O71 1.945 1_554 S
Zn74 O76 1.932 . S
Zn74 O83 1.977 1_554 S
Zn74 O84 1.910 . S
O75 Zn72 1.933 1_554 S
O75 C86 1.226 . S
O76 Zn74 1.932 . S
O76 C86 1.307 . S
O77 Zn70 1.919 . S
O77 C88 1.253 . S
O78 Zn72 1.954 . S
O78 C88 1.286 . S
O79 Zn72 1.965 . S
O79 C87 1.303 . S
O80 Zn73 1.938 . S
O80 C87 1.247 . S
O81 Zn73 1.906 . S
O81 C89 1.304 . S
O82 Zn70 1.924 . S
O82 C90 1.312 1_556 S
O83 Zn74 1.977 1_556 S
O83 C89 1.272 . S
O84 Zn74 1.910 . S
O84 C90 1.230 . S
C85 O69 1.225 . S
C85 O91 1.298 . S
C86 O75 1.226 . S
C86 O76 1.307 . S
C87 O79 1.303 . S
C87 O80 1.247 . S
C88 O77 1.253 . S
C88 O78 1.286 . S
C89 O81 1.304 . S
C89 O83 1.272 . S
C90 O82 1.312 1_554 S
C90 O84 1.230 . S
O91 Zn73 1.953 . S
O91 C85 1.298 . S
O92 Zn93 1.953 . S
O92 C108 1.225 . S
Zn93 O92 1.953 . S
Zn93 O94 1.949 . S
Zn93 O100 1.919 . S
Zn93 O105 1.924 . S
O94 Zn93 1.949 . S
O94 Zn95 1.923 . S
O94 Zn96 1.950 . S
O94 Zn97 1.945 . S
Zn95 O94 1.923 . S
Zn95 O98 1.933 . S
Zn95 O101 1.941 . S
Zn95 O102 1.965 . S
Zn96 O94 1.950 . S
Zn96 O103 1.938 . S
Zn96 O104 1.906 . S
Zn96 O114 1.953 . S
Zn97 O94 1.945 . S
Zn97 O99 1.932 . S
Zn97 O106 1.977 . S
Zn97 O107 1.910 . S
O98 Zn95 1.933 . S
O98 C109 1.226 . S
O99 Zn97 1.932 . S
O99 C109 1.307 . S
O100 Zn93 1.919 . S
O100 C111 1.253 . S
O101 Zn95 1.941 . S
O101 C111 1.283 . S
O102 Zn95 1.965 . S
O102 C110 1.303 . S
O103 Zn96 1.938 . S
O103 C110 1.247 . S
O104 Zn96 1.906 . S
O104 C112 1.304 . S
O105 Zn93 1.924 . S
O105 C113 1.311 . S
O106 Zn97 1.977 . S
O106 C112 1.272 . S
O107 Zn97 1.910 . S
O107 C113 1.231 . S
C108 O92 1.225 . S
C108 O114 1.298 . S
C109 O98 1.226 . S
C109 O99 1.307 . S
C110 O102 1.303 . S
C110 O103 1.247 . S
C111 O100 1.253 . S
C111 O101 1.283 . S
C112 O104 1.304 . S
C112 O106 1.272 . S
C113 O105 1.311 . S
C113 O107 1.231 . S
O114 Zn96 1.953 . S
O114 C108 1.298 . S
O115 Zn116 1.953 . S
O115 C131 1.225 . S
Zn116 O115 1.953 . S
Zn116 O117 1.949 . S
Zn116 O123 1.919 . S
Zn116 O128 1.924 . S
O117 Zn116 1.949 . S
O117 Zn118 1.923 . S
O117 Zn119 1.950 . S
O117 Zn120 1.945 . S
Zn118 O117 1.923 . S
Zn118 O121 1.933 . S
Zn118 O124 1.944 . S
Zn118 O125 1.965 . S
Zn119 O117 1.950 . S
Zn119 O126 1.938 . S
Zn119 O127 1.906 . S
Zn119 O137 1.953 . S
Zn120 O117 1.945 . S
Zn120 O122 1.932 . S
Zn120 O129 1.977 . S
Zn120 O130 1.910 . S
O121 Zn118 1.933 . S
O121 C132 1.226 . S
O122 Zn120 1.932 . S
O122 C132 1.307 . S
O123 Zn116 1.919 . S
O123 C134 1.253 . S
O124 Zn118 1.944 . S
O124 C134 1.284 . S
O125 Zn118 1.965 . S
O125 C133 1.303 . S
O126 Zn119 1.938 . S
O126 C133 1.247 . S
O127 Zn119 1.906 . S
O127 C135 1.304 . S
O128 Zn116 1.924 . S
O128 C136 1.311 . S
O129 Zn120 1.977 . S
O129 C135 1.272 . S
O130 Zn120 1.910 . S
O130 C136 1.231 . S
C131 O115 1.225 . S
C131 O137 1.298 . S
C132 O121 1.226 . S
C132 O122 1.307 . S
C133 O125 1.303 . S
C133 O126 1.247 . S
C134 O123 1.253 . S
C134 O124 1.284 . S
C135 O127 1.304 . S
C135 O129 1.272 . S
C136 O128 1.311 . S
C136 O130 1.231 . S
O137 Zn119 1.953 . S
O137 C131 1.298 . S
O138 Zn139 1.953 . S
O138 C154 1.225 . S
Zn139 O138 1.953 . S
Zn139 O140 1.949 . S
Zn139 O146 1.919 . S
Zn139 O151 1.924 . S
O140 Zn139 1.949 . S
O140 Zn141 1.923 . S
O140 Zn142 1.950 . S
O140 Zn143 1.945 . S
Zn141 O140 1.923 . S
Zn141 O144 1.933 . S
Zn141 O147 1.940 . S
Zn141 O148 1.965 . S
Zn142 O140 1.950 . S
Zn142 O149 1.938 . S
Zn142 O150 1.906 . S
Zn142 O160 1.953 . S
Zn143 O140 1.945 . S
Zn143 O145 1.932 . S
Zn143 O152 1.977 . S
Zn143 O153 1.910 . S
O144 Zn141 1.933 . S
O144 C155 1.226 . S
O145 Zn143 1.932 . S
O145 C155 1.307 . S
O146 Zn139 1.919 . S
O146 C157 1.253 . S
O147 Zn141 1.940 . S
O147 C157 1.283 . S
O148 Zn141 1.965 . S
O148 C156 1.303 . S
O149 Zn142 1.938 . S
O149 C156 1.247 . S
O150 Zn142 1.906 . S
O150 C158 1.304 . S
O151 Zn139 1.924 . S
O151 C159 1.311 . S
O152 Zn143 1.977 . S
O152 C158 1.272 . S
O153 Zn143 1.910 . S
O153 C159 1.231 . S
C154 O138 1.225 . S
C154 O160 1.298 . S
C155 O144 1.226 . S
C155 O145 1.307 . S
C156 O148 1.303 . S
C156 O149 1.247 . S
C157 O146 1.253 . S
C157 O147 1.283 . S
C158 O150 1.304 . S
C158 O152 1.272 . S
C159 O151 1.311 . S
C159 O153 1.231 . S
O160 Zn142 1.953 . S
O160 C154 1.298 . S
O161 Zn162 1.953 . S
O161 C177 1.225 . S
Zn162 O161 1.953 . S
Zn162 O163 1.949 . S
Zn162 O169 1.919 . S
Zn162 O174 1.924 . S
O163 Zn162 1.949 . S
O163 Zn164 1.923 . S
O163 Zn165 1.950 . S
O163 Zn166 1.945 . S
Zn164 O163 1.923 . S
Zn164 O167 1.933 . S
Zn164 O170 1.941 1_655 S
Zn164 O171 1.965 . S
Zn165 O163 1.950 . S
Zn165 O172 1.938 . S
Zn165 O173 1.906 . S
Zn165 O183 1.953 . S
Zn166 O163 1.945 . S
Zn166 O168 1.932 . S
Zn166 O175 1.977 . S
Zn166 O176 1.910 . S
O167 Zn164 1.933 . S
O167 C178 1.226 . S
O168 Zn166 1.932 . S
O168 C178 1.307 . S
O169 Zn162 1.919 . S
O169 C180 1.253 . S
O170 Zn164 1.941 1_455 S
O170 C180 1.283 1_455 S
O171 Zn164 1.965 . S
O171 C179 1.303 . S
O172 Zn165 1.938 . S
O172 C179 1.247 . S
O173 Zn165 1.906 . S
O173 C181 1.304 . S
O174 Zn162 1.924 . S
O174 C182 1.311 . S
O175 Zn166 1.977 . S
O175 C181 1.272 . S
O176 Zn166 1.910 . S
O176 C182 1.231 . S
C177 O161 1.225 . S
C177 O183 1.298 . S
C178 O167 1.226 . S
C178 O168 1.307 . S
C179 O171 1.303 . S
C179 O172 1.247 . S
C180 O169 1.253 . S
C180 O170 1.283 1_655 S
C181 O173 1.304 . S
C181 O175 1.272 . S
C182 O174 1.311 . S
C182 O176 1.231 . S
O183 Zn165 1.953 . S
O183 C177 1.298 . S
O184 Zn185 1.953 . S
O184 C200 1.225 . S
Zn185 O184 1.953 . S
Zn185 O186 1.949 . S
Zn185 O192 1.919 . S
Zn185 O197 1.924 . S
O186 Zn185 1.949 . S
O186 Zn187 1.923 . S
O186 Zn188 1.950 . S
O186 Zn189 1.945 . S
Zn187 O186 1.923 . S
Zn187 O190 1.933 . S
Zn187 O193 1.941 . S
Zn187 O194 1.965 . S
Zn188 O186 1.950 . S
Zn188 O195 1.938 . S
Zn188 O196 1.906 . S
Zn188 O206 1.953 . S
Zn189 O186 1.945 . S
Zn189 O191 1.932 . S
Zn189 O198 1.977 . S
Zn189 O199 1.910 . S
O190 Zn187 1.933 . S
O190 C201 1.226 . S
O191 Zn189 1.932 . S
O191 C201 1.307 . S
O192 Zn185 1.919 . S
O192 C203 1.253 . S
O193 Zn187 1.941 . S
O193 C203 1.283 . S
O194 Zn187 1.965 . S
O194 C202 1.303 . S
O195 Zn188 1.938 . S
O195 C202 1.247 . S
O196 Zn188 1.906 . S
O196 C204 1.304 . S
O197 Zn185 1.924 . S
O197 C205 1.311 . S
O198 Zn189 1.977 . S
O198 C204 1.272 . S
O199 Zn189 1.910 . S
O199 C205 1.231 . S
C200 O184 1.225 . S
C200 O206 1.298 . S
C201 O190 1.226 . S
C201 O191 1.307 . S
C202 O194 1.303 . S
C202 O195 1.247 . S
C203 O192 1.253 . S
C203 O193 1.283 . S
C204 O196 1.304 . S
C204 O198 1.272 . S
C205 O197 1.311 . S
C205 O199 1.231 . S
O206 Zn188 1.953 . S
O206 C200 1.298 . S
O207 Zn208 1.953 . S
O207 C223 1.225 . S
Zn208 O207 1.953 . S
Zn208 O209 1.949 . S
Zn208 O215 1.919 . S
Zn208 O220 1.924 . S
O209 Zn208 1.949 . S
O209 Zn210 1.923 . S
O209 Zn211 1.950 . S
O209 Zn212 1.945 . S
Zn210 O209 1.923 . S
Zn210 O213 1.933 . S
Zn210 O216 1.941 . S
Zn210 O217 1.965 . S
Zn211 O209 1.950 . S
Zn211 O218 1.938 . S
Zn211 O219 1.906 . S
Zn211 O229 1.953 . S
Zn212 O209 1.945 . S
Zn212 O214 1.932 . S
Zn212 O221 1.977 . S
Zn212 O222 1.910 . S
O213 Zn210 1.933 . S
O213 C224 1.226 . S
O214 Zn212 1.932 . S
O214 C224 1.307 . S
O215 Zn208 1.919 . S
O215 C226 1.253 . S
O216 Zn210 1.941 . S
O216 C226 1.283 . S
O217 Zn210 1.965 . S
O217 C225 1.303 . S
O218 Zn211 1.938 . S
O218 C225 1.247 . S
O219 Zn211 1.906 . S
O219 C227 1.304 . S
O220 Zn208 1.924 . S
O220 C228 1.311 . S
O221 Zn212 1.977 . S
O221 C227 1.272 . S
O222 Zn212 1.910 . S
O222 C228 1.231 . S
C223 O207 1.225 . S
C223 O229 1.298 . S
C224 O213 1.226 . S
C224 O214 1.307 . S
C225 O217 1.303 . S
C225 O218 1.247 . S
C226 O215 1.253 . S
C226 O216 1.283 . S
C227 O219 1.304 . S
C227 O221 1.272 . S
C228 O220 1.311 . S
C228 O222 1.231 . S
O229 Zn211 1.953 . S
O229 C223 1.298 . S
O230 Zn231 1.953 . S
O230 C246 1.225 . S
Zn231 O230 1.953 . S
Zn231 O232 1.949 . S
Zn231 O238 1.919 . S
Zn231 O243 1.924 . S
O232 Zn231 1.949 . S
O232 Zn233 1.923 . S
O232 Zn234 1.950 . S
O232 Zn235 1.945 . S
Zn233 O232 1.923 . S
Zn233 O236 1.933 . S
Zn233 O239 1.941 . S
Zn233 O240 1.965 . S
Zn234 O232 1.950 . S
Zn234 O241 1.938 . S
Zn234 O242 1.906 . S
Zn234 O252 1.953 . S
Zn235 O232 1.945 . S
Zn235 O237 1.932 . S
Zn235 O244 1.977 . S
Zn235 O245 1.910 . S
O236 Zn233 1.933 . S
O236 C247 1.226 . S
O237 Zn235 1.932 . S
O237 C247 1.307 . S
O238 Zn231 1.919 . S
O238 C249 1.253 . S
O239 Zn233 1.941 . S
O239 C249 1.283 . S
O240 Zn233 1.965 . S
O240 C248 1.303 . S
O241 Zn234 1.938 . S
O241 C248 1.247 . S
O242 Zn234 1.906 . S
O242 C250 1.304 . S
O243 Zn231 1.924 . S
O243 C251 1.311 . S
O244 Zn235 1.977 . S
O244 C250 1.272 . S
O245 Zn235 1.910 . S
O245 C251 1.231 . S
C246 O230 1.225 . S
C246 O252 1.298 . S
C247 O236 1.226 . S
C247 O237 1.307 . S
C248 O240 1.303 . S
C248 O241 1.247 . S
C249 O238 1.253 . S
C249 O239 1.283 . S
C250 O242 1.304 . S
C250 O244 1.272 . S
C251 O243 1.311 . S
C251 O245 1.231 . S
O252 Zn234 1.953 . S
O252 C246 1.298 . S
O253 Zn254 1.953 . S
O253 C269 1.225 . S
Zn254 O253 1.953 . S
Zn254 O255 1.949 . S
Zn254 O261 1.919 . S
Zn254 O266 1.924 . S
O255 Zn254 1.949 . S
O255 Zn256 1.923 . S
O255 Zn257 1.950 . S
O255 Zn258 1.945 . S
Zn256 O255 1.923 . S
Zn256 O259 1.933 . S
Zn256 O262 1.941 . S
Zn256 O263 1.965 . S
Zn257 O255 1.950 . S
Zn257 O264 1.938 . S
Zn257 O265 1.906 . S
Zn257 O275 1.953 . S
Zn258 O255 1.945 . S
Zn258 O260 1.932 . S
Zn258 O267 1.977 . S
Zn258 O268 1.910 . S
O259 Zn256 1.933 . S
O259 C270 1.226 . S
O260 Zn258 1.932 . S
O260 C270 1.307 . S
O261 Zn254 1.919 . S
O261 C272 1.253 . S
O262 Zn256 1.941 . S
O262 C272 1.283 . S
O263 Zn256 1.965 . S
O263 C271 1.303 . S
O264 Zn257 1.938 . S
O264 C271 1.247 . S
O265 Zn257 1.906 . S
O265 C273 1.304 . S
O266 Zn254 1.924 . S
O266 C274 1.311 . S
O267 Zn258 1.977 . S
O267 C273 1.272 . S
O268 Zn258 1.910 . S
O268 C274 1.231 . S
C269 O253 1.225 . S
C269 O275 1.298 . S
C270 O259 1.226 . S
C270 O260 1.307 . S
C271 O263 1.303 . S
C271 O264 1.247 . S
C272 O261 1.253 . S
C272 O262 1.283 . S
C273 O265 1.304 . S
C273 O267 1.272 . S
C274 O266 1.311 . S
C274 O268 1.231 . S
O275 Zn257 1.953 . S
O275 C269 1.298 . S
O276 Zn277 1.953 1_556 S
O276 C292 1.225 . S
Zn277 O276 1.953 1_554 S
Zn277 O278 1.949 . S
Zn277 O284 1.919 . S
Zn277 O289 1.924 . S
O278 Zn277 1.949 . S
O278 Zn279 1.923 . S
O278 Zn280 1.950 . S
O278 Zn281 1.945 . S
Zn279 O278 1.923 . S
Zn279 O282 1.933 . S
Zn279 O285 1.941 . S
Zn279 O286 1.965 . S
Zn280 O278 1.950 . S
Zn280 O287 1.938 . S
Zn280 O288 1.906 1_554 S
Zn280 O298 1.953 1_554 S
Zn281 O278 1.945 . S
Zn281 O283 1.932 . S
Zn281 O290 1.977 . S
Zn281 O291 1.910 . S
O282 Zn279 1.933 . S
O282 C293 1.226 . S
O283 Zn281 1.932 . S
O283 C293 1.307 . S
O284 Zn277 1.919 . S
O284 C295 1.253 . S
O285 Zn279 1.941 . S
O285 C295 1.283 . S
O286 Zn279 1.965 . S
O286 C294 1.303 . S
O287 Zn280 1.938 . S
O287 C294 1.247 . S
O288 Zn280 1.906 1_556 S
O288 C296 1.301 1_556 S
O289 Zn277 1.924 . S
O289 C297 1.311 . S
O290 Zn281 1.977 . S
O290 C296 1.277 . S
O291 Zn281 1.910 . S
O291 C297 1.231 . S
C292 O276 1.225 . S
C292 O298 1.298 . S
C293 O282 1.226 . S
C293 O283 1.307 . S
C294 O286 1.303 . S
C294 O287 1.247 . S
C295 O284 1.253 . S
C295 O285 1.283 . S
C296 O288 1.301 1_554 S
C296 O290 1.277 . S
C297 O289 1.311 . S
C297 O291 1.231 . S
O298 Zn280 1.953 1_556 S
O298 C292 1.298 . S
O299 Zn300 1.953 . S
O299 C315 1.225 . S
Zn300 O299 1.953 . S
Zn300 O301 1.949 . S
Zn300 O307 1.919 . S
Zn300 O312 1.924 . S
O301 Zn300 1.949 . S
O301 Zn302 1.923 . S
O301 Zn303 1.950 . S
O301 Zn304 1.922 1_556 S
Zn302 O301 1.923 . S
Zn302 O305 1.933 1_556 S
Zn302 O308 1.941 . S
Zn302 O309 1.965 . S
Zn303 O301 1.950 . S
Zn303 O310 1.938 . S
Zn303 O311 1.906 . S
Zn303 O321 1.953 . S
Zn304 O301 1.922 1_554 S
Zn304 O306 1.949 . S
Zn304 O313 1.973 1_554 S
Zn304 O314 1.918 . S
O305 Zn302 1.933 1_554 S
O305 C316 1.226 . S
O306 Zn304 1.949 . S
O306 C316 1.307 . S
O307 Zn300 1.919 . S
O307 C318 1.253 . S
O308 Zn302 1.941 . S
O308 C318 1.283 . S
O309 Zn302 1.965 . S
O309 C317 1.303 . S
O310 Zn303 1.938 . S
O310 C317 1.247 . S
O311 Zn303 1.906 . S
O311 C319 1.304 . S
O312 Zn300 1.924 . S
O312 C320 1.316 . S
O313 Zn304 1.973 1_556 S
O313 C319 1.272 . S
O314 Zn304 1.918 . S
O314 C320 1.228 1_554 S
C315 O299 1.225 . S
C315 O321 1.298 . S
C316 O305 1.226 . S
C316 O306 1.307 . S
C317 O309 1.303 . S
C317 O310 1.247 . S
C318 O307 1.253 . S
C318 O308 1.283 . S
C319 O311 1.304 . S
C319 O313 1.272 . S
C320 O312 1.316 . S
C320 O314 1.228 1_556 S
O321 Zn303 1.953 . S
O321 C315 1.298 . S
O322 Zn323 1.953 . S
O322 C338 1.225 . S
Zn323 O322 1.953 . S
Zn323 O324 1.949 . S
Zn323 O330 1.919 . S
Zn323 O335 1.924 . S
O324 Zn323 1.949 . S
O324 Zn325 1.923 . S
O324 Zn326 1.950 . S
O324 Zn327 1.923 1_554 S
Zn325 O324 1.923 . S
Zn325 O328 1.933 1_554 S
Zn325 O331 1.941 . S
Zn325 O332 1.965 . S
Zn326 O324 1.950 . S
Zn326 O333 1.938 . S
Zn326 O334 1.906 . S
Zn326 O344 1.953 . S
Zn327 O324 1.923 1_556 S
Zn327 O329 1.949 . S
Zn327 O336 1.973 1_556 S
Zn327 O337 1.918 . S
O328 Zn325 1.933 1_556 S
O328 C339 1.226 . S
O329 Zn327 1.949 . S
O329 C339 1.307 . S
O330 Zn323 1.919 . S
O330 C341 1.253 . S
O331 Zn325 1.941 . S
O331 C341 1.283 . S
O332 Zn325 1.965 . S
O332 C340 1.303 . S
O333 Zn326 1.938 . S
O333 C340 1.247 . S
O334 Zn326 1.906 . S
O334 C342 1.304 . S
O335 Zn323 1.924 . S
O335 C343 1.316 . S
O336 Zn327 1.973 1_554 S
O336 C342 1.272 . S
O337 Zn327 1.918 . S
O337 C343 1.228 1_556 S
C338 O322 1.225 . S
C338 O344 1.298 . S
C339 O328 1.226 . S
C339 O329 1.307 . S
C340 O332 1.303 . S
C340 O333 1.247 . S
C341 O330 1.253 . S
C341 O331 1.283 . S
C342 O334 1.304 . S
C342 O336 1.272 . S
C343 O335 1.316 . S
C343 O337 1.228 1_554 S
O344 Zn326 1.953 . S
O344 C338 1.298 . S
O345 Zn346 1.953 . S
O345 C361 1.225 . S
Zn346 O345 1.953 . S
Zn346 O347 1.949 . S
Zn346 O353 1.919 . S
Zn346 O358 1.924 . S
O347 Zn346 1.949 . S
O347 Zn348 1.923 . S
O347 Zn349 1.950 . S
O347 Zn350 1.943 1_556 S
Zn348 O347 1.923 . S
Zn348 O351 1.933 1_556 S
Zn348 O354 1.941 . S
Zn348 O355 1.965 . S
Zn349 O347 1.950 . S
Zn349 O356 1.938 . S
Zn349 O357 1.906 . S
Zn349 O367 1.953 . S
Zn350 O347 1.943 1_554 S
Zn350 O352 1.934 . S
Zn350 O359 1.976 1_554 S
Zn350 O360 1.911 . S
O351 Zn348 1.933 1_554 S
O351 C362 1.226 . S
O352 Zn350 1.934 . S
O352 C362 1.307 . S
O353 Zn346 1.919 . S
O353 C364 1.253 . S
O354 Zn348 1.941 . S
O354 C364 1.283 . S
O355 Zn348 1.965 . S
O355 C363 1.303 . S
O356 Zn349 1.938 . S
O356 C363 1.247 . S
O357 Zn349 1.906 . S
O357 C365 1.304 . S
O358 Zn346 1.924 . S
O358 C366 1.311 . S
O359 Zn350 1.976 1_556 S
O359 C365 1.272 . S
O360 Zn350 1.911 . S
O360 C366 1.231 1_554 S
C361 O345 1.225 . S
C361 O367 1.298 . S
C362 O351 1.226 . S
C362 O352 1.307 . S
C363 O355 1.303 . S
C363 O356 1.247 . S
C364 O353 1.253 . S
C364 O354 1.283 . S
C365 O357 1.304 . S
C365 O359 1.272 . S
C366 O358 1.311 . S
C366 O360 1.231 1_556 S
O367 Zn349 1.953 . S
O367 C361 1.298 . S
H368 C380 0.930 . S
H369 C382 0.930 . S
H370 C383 0.930 . S
H371 C387 0.959 . S
H372 C387 0.959 . S
H373 C387 0.961 . S
H374 C388 0.960 . S
H375 C388 0.961 . S
H376 C388 0.959 . S
H377 C391 0.929 . S
H378 C392 0.931 . S
H379 C394 0.930 . S
C380 H368 0.930 . S
C380 C381 1.399 . S
C380 C385 1.399 . S
C381 C380 1.399 . S
C381 C382 1.376 . S
C382 H369 0.930 . S
C382 C381 1.376 . S
C382 C383 1.388 . S
C383 H370 0.930 . S
C383 C382 1.388 . S
C383 C384 1.390 . S
C384 C383 1.390 . S
C384 C385 1.394 . S
C384 C390 1.465 . S
C385 C380 1.399 . S
C385 C384 1.394 . S
C385 C386 1.516 . S
C386 C385 1.516 . S
C386 C387 1.502 . S
C386 C388 1.561 . S
C386 C389 1.526 . S
C387 H371 0.959 . S
C387 H372 0.959 . S
C387 H373 0.961 . S
C387 C386 1.502 . S
C388 H374 0.960 . S
C388 H375 0.961 . S
C388 H376 0.959 . S
C388 C386 1.561 . S
C389 C386 1.526 . S
C389 C390 1.396 . S
C389 C394 1.390 . S
C390 C384 1.465 . S
C390 C389 1.396 . S
C390 C391 1.399 . S
C391 H377 0.929 . S
C391 C390 1.399 . S
C391 C392 1.385 . S
C392 H378 0.931 . S
C392 C391 1.385 . S
C392 C393 1.389 . S
C393 C392 1.389 . S
C393 C394 1.387 . S
C394 H379 0.930 . S
C394 C389 1.390 . S
C394 C393 1.387 . S
H395 C407 0.930 . S
H396 C409 0.930 . S
H397 C410 0.930 . S
H398 C414 0.959 . S
H399 C414 0.959 . S
H400 C414 0.961 . S
H401 C415 0.960 . S
H402 C415 0.961 . S
H403 C415 0.959 . S
H404 C418 0.929 . S
H405 C419 0.931 . S
H406 C421 0.930 . S
C407 H395 0.930 . S
C407 C408 1.399 . S
C407 C412 1.399 . S
C408 C407 1.399 . S
C408 C409 1.376 . S
C409 H396 0.930 . S
C409 C408 1.376 . S
C409 C410 1.388 . S
C410 H397 0.930 . S
C410 C409 1.388 . S
C410 C411 1.390 . S
C411 C410 1.390 . S
C411 C412 1.394 . S
C411 C417 1.465 . S
C412 C407 1.399 . S
C412 C411 1.394 . S
C412 C413 1.516 . S
C413 C412 1.516 . S
C413 C414 1.502 . S
C413 C415 1.561 . S
C413 C416 1.526 . S
C414 H398 0.959 . S
C414 H399 0.959 . S
C414 H400 0.961 . S
C414 C413 1.502 . S
C415 H401 0.960 . S
C415 H402 0.961 . S
C415 H403 0.959 . S
C415 C413 1.561 . S
C416 C413 1.526 . S
C416 C417 1.396 . S
C416 C421 1.390 . S
C417 C411 1.465 . S
C417 C416 1.396 . S
C417 C418 1.399 . S
C418 H404 0.929 . S
C418 C417 1.399 . S
C418 C419 1.385 . S
C419 H405 0.931 . S
C419 C418 1.385 . S
C419 C420 1.389 . S
C420 C419 1.389 . S
C420 C421 1.387 . S
C421 H406 0.930 . S
C421 C416 1.390 . S
C421 C420 1.387 . S
H422 C434 0.930 . S
H423 C436 0.930 . S
H424 C437 0.930 . S
H425 C441 0.959 . S
H426 C441 0.959 . S
H427 C441 0.961 . S
H428 C442 0.960 . S
H429 C442 0.961 . S
H430 C442 0.959 . S
H431 C445 0.929 . S
H432 C446 0.931 . S
H433 C448 0.930 . S
C434 H422 0.930 . S
C434 C435 1.399 . S
C434 C439 1.399 . S
C435 C434 1.399 . S
C435 C436 1.376 . S
C436 H423 0.930 . S
C436 C435 1.376 . S
C436 C437 1.388 . S
C437 H424 0.930 . S
C437 C436 1.388 . S
C437 C438 1.390 . S
C438 C437 1.390 . S
C438 C439 1.394 . S
C438 C444 1.465 . S
C439 C434 1.399 . S
C439 C438 1.394 . S
C439 C440 1.516 . S
C440 C439 1.516 . S
C440 C441 1.502 . S
C440 C442 1.561 . S
C440 C443 1.526 . S
C441 H425 0.959 . S
C441 H426 0.959 . S
C441 H427 0.961 . S
C441 C440 1.502 . S
C442 H428 0.960 . S
C442 H429 0.961 . S
C442 H430 0.959 . S
C442 C440 1.561 . S
C443 C440 1.526 . S
C443 C444 1.396 . S
C443 C448 1.390 . S
C444 C438 1.465 . S
C444 C443 1.396 . S
C444 C445 1.399 . S
C445 H431 0.929 . S
C445 C444 1.399 . S
C445 C446 1.385 . S
C446 H432 0.931 . S
C446 C445 1.385 . S
C446 C447 1.389 . S
C447 C446 1.389 . S
C447 C448 1.387 . S
C448 H433 0.930 . S
C448 C443 1.390 . S
C448 C447 1.387 . S
H449 C461 0.930 . S
H450 C463 0.930 . S
H451 C464 0.930 . S
H452 C468 0.959 . S
H453 C468 0.959 . S
H454 C468 0.961 . S
H455 C469 0.960 . S
H456 C469 0.961 . S
H457 C469 0.959 . S
H458 C472 0.929 . S
H459 C473 0.931 . S
H460 C475 0.930 . S
C461 H449 0.930 . S
C461 C462 1.399 . S
C461 C466 1.399 . S
C462 C461 1.399 . S
C462 C463 1.376 . S
C463 H450 0.930 . S
C463 C462 1.376 . S
C463 C464 1.388 . S
C464 H451 0.930 . S
C464 C463 1.388 . S
C464 C465 1.390 . S
C465 C464 1.390 . S
C465 C466 1.394 . S
C465 C471 1.465 . S
C466 C461 1.399 . S
C466 C465 1.394 . S
C466 C467 1.516 . S
C467 C466 1.516 . S
C467 C468 1.502 . S
C467 C469 1.561 . S
C467 C470 1.526 . S
C468 H452 0.959 . S
C468 H453 0.959 . S
C468 H454 0.961 . S
C468 C467 1.502 . S
C469 H455 0.960 . S
C469 H456 0.961 . S
C469 H457 0.959 . S
C469 C467 1.561 . S
C470 C467 1.526 . S
C470 C471 1.396 . S
C470 C475 1.390 . S
C471 C465 1.465 . S
C471 C470 1.396 . S
C471 C472 1.399 . S
C472 H458 0.929 . S
C472 C471 1.399 . S
C472 C473 1.385 . S
C473 H459 0.931 . S
C473 C472 1.385 . S
C473 C474 1.389 . S
C474 C473 1.389 . S
C474 C475 1.387 . S
C475 H460 0.930 . S
C475 C470 1.390 . S
C475 C474 1.387 . S
H476 C488 0.930 . S
H477 C490 0.930 . S
H478 C491 0.930 . S
H479 C495 0.959 . S
H480 C495 0.959 . S
H481 C495 0.961 . S
H482 C496 0.960 . S
H483 C496 0.961 . S
H484 C496 0.959 . S
H485 C499 0.929 . S
H486 C500 0.931 . S
H487 C502 0.930 . S
C488 H476 0.930 . S
C488 C489 1.399 . S
C488 C493 1.399 . S
C489 C488 1.399 . S
C489 C490 1.376 . S
C490 H477 0.930 . S
C490 C489 1.376 . S
C490 C491 1.388 . S
C491 H478 0.930 . S
C491 C490 1.388 . S
C491 C492 1.390 . S
C492 C491 1.390 . S
C492 C493 1.394 . S
C492 C498 1.465 . S
C493 C488 1.399 . S
C493 C492 1.394 . S
C493 C494 1.516 . S
C494 C493 1.516 . S
C494 C495 1.502 . S
C494 C496 1.561 . S
C494 C497 1.526 . S
C495 H479 0.959 . S
C495 H480 0.959 . S
C495 H481 0.961 . S
C495 C494 1.502 . S
C496 H482 0.960 . S
C496 H483 0.961 . S
C496 H484 0.959 . S
C496 C494 1.561 . S
C497 C494 1.526 . S
C497 C498 1.396 . S
C497 C502 1.390 . S
C498 C492 1.465 . S
C498 C497 1.396 . S
C498 C499 1.399 . S
C499 H485 0.929 . S
C499 C498 1.399 . S
C499 C500 1.385 . S
C500 H486 0.931 . S
C500 C499 1.385 . S
C500 C501 1.389 . S
C501 C500 1.389 . S
C501 C502 1.387 . S
C502 H487 0.930 . S
C502 C497 1.390 . S
C502 C501 1.387 . S
H503 C515 0.930 . S
H504 C517 0.930 . S
H505 C518 0.930 . S
H506 C522 0.959 . S
H507 C522 0.959 . S
H508 C522 0.961 . S
H509 C523 0.960 . S
H510 C523 0.961 . S
H511 C523 0.959 . S
H512 C526 0.929 . S
H513 C527 0.931 . S
H514 C529 0.930 . S
C515 H503 0.930 . S
C515 C516 1.399 . S
C515 C520 1.399 . S
C516 C515 1.399 . S
C516 C517 1.376 . S
C517 H504 0.930 . S
C517 C516 1.376 . S
C517 C518 1.388 . S
C518 H505 0.930 . S
C518 C517 1.388 . S
C518 C519 1.390 . S
C519 C518 1.390 . S
C519 C520 1.394 . S
C519 C525 1.465 . S
C520 C515 1.399 . S
C520 C519 1.394 . S
C520 C521 1.516 . S
C521 C520 1.516 . S
C521 C522 1.502 . S
C521 C523 1.561 . S
C521 C524 1.526 . S
C522 H506 0.959 . S
C522 H507 0.959 . S
C522 H508 0.961 . S
C522 C521 1.502 . S
C523 H509 0.960 . S
C523 H510 0.961 . S
C523 H511 0.959 . S
C523 C521 1.561 . S
C524 C521 1.526 . S
C524 C525 1.396 . S
C524 C529 1.390 . S
C525 C519 1.465 . S
C525 C524 1.396 . S
C525 C526 1.399 . S
C526 H512 0.929 . S
C526 C525 1.399 . S
C526 C527 1.385 . S
C527 H513 0.931 . S
C527 C526 1.385 . S
C527 C528 1.389 . S
C528 C527 1.389 . S
C528 C529 1.387 . S
C529 H514 0.930 . S
C529 C524 1.390 . S
C529 C528 1.387 . S
H530 C542 0.930 . S
H531 C544 0.930 . S
H532 C545 0.930 . S
H533 C549 0.959 . S
H534 C549 0.959 . S
H535 C549 0.961 . S
H536 C550 0.960 . S
H537 C550 0.961 . S
H538 C550 0.959 . S
H539 C553 0.929 . S
H540 C554 0.931 . S
H541 C556 0.930 . S
C542 H530 0.930 . S
C542 C543 1.399 . S
C542 C547 1.399 . S
C543 C542 1.399 . S
C543 C544 1.376 . S
C544 H531 0.930 . S
C544 C543 1.376 . S
C544 C545 1.388 . S
C545 H532 0.930 . S
C545 C544 1.388 . S
C545 C546 1.390 . S
C546 C545 1.390 . S
C546 C547 1.394 . S
C546 C552 1.465 . S
C547 C542 1.399 . S
C547 C546 1.394 . S
C547 C548 1.516 . S
C548 C547 1.516 . S
C548 C549 1.502 . S
C548 C550 1.561 . S
C548 C551 1.526 . S
C549 H533 0.959 . S
C549 H534 0.959 . S
C549 H535 0.961 . S
C549 C548 1.502 . S
C550 H536 0.960 . S
C550 H537 0.961 . S
C550 H538 0.959 . S
C550 C548 1.561 . S
C551 C548 1.526 . S
C551 C552 1.396 . S
C551 C556 1.390 . S
C552 C546 1.465 . S
C552 C551 1.396 . S
C552 C553 1.399 . S
C553 H539 0.929 . S
C553 C552 1.399 . S
C553 C554 1.385 . S
C554 H540 0.931 . S
C554 C553 1.385 . S
C554 C555 1.389 . S
C555 C554 1.389 . S
C555 C556 1.387 . S
C556 H541 0.930 . S
C556 C551 1.390 . S
C556 C555 1.387 . S
H557 C569 0.930 . S
H558 C571 0.930 . S
H559 C572 0.930 . S
H560 C576 0.959 . S
H561 C576 0.959 . S
H562 C576 0.961 . S
H563 C577 0.960 . S
H564 C577 0.961 . S
H565 C577 0.959 . S
H566 C580 0.929 . S
H567 C581 0.931 . S
H568 C583 0.930 . S
C569 H557 0.930 . S
C569 C570 1.399 . S
C569 C574 1.399 . S
C570 C569 1.399 . S
C570 C571 1.376 . S
C571 H558 0.930 . S
C571 C570 1.376 . S
C571 C572 1.388 . S
C572 H559 0.930 . S
C572 C571 1.388 . S
C572 C573 1.390 . S
C573 C572 1.390 . S
C573 C574 1.394 . S
C573 C579 1.465 . S
C574 C569 1.399 . S
C574 C573 1.394 . S
C574 C575 1.516 . S
C575 C574 1.516 . S
C575 C576 1.502 . S
C575 C577 1.561 . S
C575 C578 1.526 . S
C576 H560 0.959 . S
C576 H561 0.959 . S
C576 H562 0.961 . S
C576 C575 1.502 . S
C577 H563 0.960 . S
C577 H564 0.961 . S
C577 H565 0.959 . S
C577 C575 1.561 . S
C578 C575 1.526 . S
C578 C579 1.396 . S
C578 C583 1.390 . S
C579 C573 1.465 . S
C579 C578 1.396 . S
C579 C580 1.399 . S
C580 H566 0.929 . S
C580 C579 1.399 . S
C580 C581 1.385 . S
C581 H567 0.931 . S
C581 C580 1.385 . S
C581 C582 1.389 . S
C582 C581 1.389 . S
C582 C583 1.387 . S
C583 H568 0.930 . S
C583 C578 1.390 . S
C583 C582 1.387 . S
H584 C596 0.930 . S
H585 C598 0.932 . S
H586 C599 0.930 . S
H587 C603 0.959 . S
H588 C603 0.959 . S
H589 C603 0.961 . S
H590 C604 0.960 . S
H591 C604 0.961 . S
H592 C604 0.959 . S
H593 C607 0.929 . S
H594 C608 0.931 . S
H595 C610 0.930 . S
C596 H584 0.930 . S
C596 C597 1.399 . S
C596 C601 1.399 . S
C597 C596 1.399 . S
C597 C598 1.373 1_554 S
C598 H585 0.932 . S
C598 C597 1.373 1_556 S
C598 C599 1.390 . S
C599 H586 0.930 . S
C599 C598 1.390 . S
C599 C600 1.390 1_556 S
C600 C599 1.390 1_554 S
C600 C601 1.394 . S
C600 C606 1.465 . S
C601 C596 1.399 . S
C601 C600 1.394 . S
C601 C602 1.516 . S
C602 C601 1.516 . S
C602 C603 1.502 . S
C602 C604 1.561 . S
C602 C605 1.526 . S
C603 H587 0.959 . S
C603 H588 0.959 . S
C603 H589 0.961 . S
C603 C602 1.502 . S
C604 H590 0.960 . S
C604 H591 0.961 . S
C604 H592 0.959 . S
C604 C602 1.561 . S
C605 C602 1.526 . S
C605 C606 1.396 . S
C605 C610 1.390 . S
C606 C600 1.465 . S
C606 C605 1.396 . S
C606 C607 1.399 1_554 S
C607 H593 0.929 . S
C607 C606 1.399 1_556 S
C607 C608 1.385 . S
C608 H594 0.931 . S
C608 C607 1.385 . S
C608 C609 1.389 1_556 S
C609 C608 1.389 1_554 S
C609 C610 1.387 . S
C610 H595 0.930 . S
C610 C605 1.390 . S
C610 C609 1.387 . S
H611 C623 0.930 . S
H612 C625 0.930 . S
H613 C626 0.930 . S
H614 C630 0.959 . S
H615 C630 0.959 . S
H616 C630 0.961 . S
H617 C631 0.960 . S
H618 C631 0.961 1_556 S
H619 C631 0.959 . S
H620 C634 0.929 . S
H621 C635 0.931 . S
H622 C637 0.930 . S
C623 H611 0.930 . S
C623 C624 1.399 . S
C623 C628 1.399 . S
C624 C623 1.399 . S
C624 C625 1.376 1_556 S
C625 H612 0.930 . S
C625 C624 1.376 1_554 S
C625 C626 1.388 . S
C626 H613 0.930 . S
C626 C625 1.388 . S
C626 C627 1.390 1_554 S
C627 C626 1.390 1_556 S
C627 C628 1.394 . S
C627 C633 1.465 . S
C628 C623 1.399 . S
C628 C627 1.394 . S
C628 C629 1.516 . S
C629 C628 1.516 . S
C629 C630 1.502 . S
C629 C631 1.561 1_556 S
C629 C632 1.526 . S
C630 H614 0.959 . S
C630 H615 0.959 . S
C630 H616 0.961 . S
C630 C629 1.502 . S
C631 H617 0.960 . S
C631 H618 0.961 1_554 S
C631 H619 0.959 . S
C631 C629 1.561 1_554 S
C632 C629 1.526 . S
C632 C633 1.396 . S
C632 C637 1.390 . S
C633 C627 1.465 . S
C633 C632 1.396 . S
C633 C634 1.399 . S
C634 H620 0.929 . S
C634 C633 1.399 . S
C634 C635 1.385 . S
C635 H621 0.931 . S
C635 C634 1.385 . S
C635 C636 1.389 . S
C636 C635 1.389 . S
C636 C637 1.387 . S
C637 H622 0.930 . S
C637 C632 1.390 . S
C637 C636 1.387 . S
H638 C650 0.930 . S
H639 C652 0.930 . S
H640 C653 0.930 . S
H641 C657 0.959 1_554 S
H642 C657 0.959 . S
H643 C657 0.961 . S
H644 C658 0.960 . S
H645 C658 0.961 . S
H646 C658 0.959 . S
H647 C661 0.929 . S
H648 C662 0.931 . S
H649 C664 0.930 . S
C650 H638 0.930 . S
C650 C651 1.399 1_556 S
C650 C655 1.399 1_556 S
C651 C650 1.399 1_554 S
C651 C652 1.376 . S
C652 H639 0.930 . S
C652 C651 1.376 . S
C652 C653 1.388 . S
C653 H640 0.930 . S
C653 C652 1.388 . S
C653 C654 1.390 . S
C654 C653 1.390 . S
C654 C655 1.394 . S
C654 C660 1.465 . S
C655 C650 1.399 1_554 S
C655 C654 1.394 . S
C655 C656 1.516 1_554 S
C656 C655 1.516 1_556 S
C656 C657 1.502 . S
C656 C658 1.561 . S
C656 C659 1.526 1_556 S
C657 H641 0.959 1_556 S
C657 H642 0.959 . S
C657 H643 0.961 . S
C657 C656 1.502 . S
C658 H644 0.960 . S
C658 H645 0.961 . S
C658 H646 0.959 . S
C658 C656 1.561 . S
C659 C656 1.526 1_554 S
C659 C660 1.396 . S
C659 C664 1.390 . S
C660 C654 1.465 . S
C660 C659 1.396 . S
C660 C661 1.399 . S
C661 H647 0.929 . S
C661 C660 1.399 . S
C661 C662 1.385 . S
C662 H648 0.931 . S
C662 C661 1.385 . S
C662 C663 1.389 . S
C663 C662 1.389 . S
C663 C664 1.387 . S
C664 H649 0.930 . S
C664 C659 1.390 . S
C664 C663 1.387 . S
H665 C677 0.930 1_554 S
H666 C679 0.930 . S
H667 C680 0.930 . S
H668 C684 0.959 1_556 S
H669 C684 0.959 . S
H670 C684 0.961 . S
H671 C685 0.960 . S
H672 C685 0.961 . S
H673 C685 0.959 . S
H674 C688 0.929 . S
H675 C689 0.931 . S
H676 C691 0.930 . S
C677 H665 0.930 1_556 S
C677 C678 1.399 . S
C677 C682 1.399 . S
C678 C677 1.399 . S
C678 C679 1.376 . S
C679 H666 0.930 . S
C679 C678 1.376 . S
C679 C680 1.388 . S
C680 H667 0.930 . S
C680 C679 1.388 . S
C680 C681 1.390 . S
C681 C680 1.390 . S
C681 C682 1.394 . S
C681 C687 1.465 . S
C682 C677 1.399 . S
C682 C681 1.394 . S
C682 C683 1.516 1_556 S
C683 C682 1.516 1_554 S
C683 C684 1.502 . S
C683 C685 1.561 . S
C683 C686 1.526 1_554 S
C684 H668 0.959 1_554 S
C684 H669 0.959 . S
C684 H670 0.961 . S
C684 C683 1.502 . S
C685 H671 0.960 . S
C685 H672 0.961 . S
C685 H673 0.959 . S
C685 C683 1.561 . S
C686 C683 1.526 1_556 S
C686 C687 1.396 . S
C686 C691 1.390 1_556 S
C687 C681 1.465 . S
C687 C686 1.396 . S
C687 C688 1.399 . S
C688 H674 0.929 . S
C688 C687 1.399 . S
C688 C689 1.385 . S
C689 H675 0.931 . S
C689 C688 1.385 . S
C689 C690 1.389 . S
C690 C689 1.389 . S
C690 C691 1.387 1_556 S
C691 H676 0.930 . S
C691 C686 1.390 1_554 S
C691 C690 1.387 1_554 S
H692 C704 0.930 . S
H693 C706 0.930 . S
H694 C707 0.930 . S
H695 C711 0.959 . S
H696 C711 0.959 . S
H697 C711 0.961 . S
H698 C712 0.960 . S
H699 C712 0.961 . S
H700 C712 0.959 . S
H701 C715 0.929 . S
H702 C716 0.931 . S
H703 C718 0.930 . S
C704 H692 0.930 . S
C704 C705 1.399 . S
C704 C709 1.399 . S
C705 C704 1.399 . S
C705 C706 1.376 . S
C706 H693 0.930 . S
C706 C705 1.376 . S
C706 C707 1.388 . S
C707 H694 0.930 . S
C707 C706 1.388 . S
C707 C708 1.390 . S
C708 C707 1.390 . S
C708 C709 1.394 . S
C708 C714 1.465 . S
C709 C704 1.399 . S
C709 C708 1.394 . S
C709 C710 1.516 . S
C710 C709 1.516 . S
C710 C711 1.502 . S
C710 C712 1.561 . S
C710 C713 1.526 . S
C711 H695 0.959 . S
C711 H696 0.959 . S
C711 H697 0.961 . S
C711 C710 1.502 . S
C712 H698 0.960 . S
C712 H699 0.961 . S
C712 H700 0.959 . S
C712 C710 1.561 . S
C713 C710 1.526 . S
C713 C714 1.396 . S
C713 C718 1.390 . S
C714 C708 1.465 . S
C714 C713 1.396 . S
C714 C715 1.399 . S
C715 H701 0.929 . S
C715 C714 1.399 . S
C715 C716 1.385 . S
C716 H702 0.931 . S
C716 C715 1.385 . S
C716 C717 1.389 . S
C717 C716 1.389 . S
C717 C718 1.387 . S
C718 H703 0.930 . S
C718 C713 1.390 . S
C718 C717 1.387 . S
H719 C731 0.930 . S
H720 C733 0.930 . S
H721 C734 0.930 . S
H722 C738 0.959 . S
H723 C738 0.959 . S
H724 C738 0.961 . S
H725 C739 0.960 . S
H726 C739 0.961 . S
H727 C739 0.959 . S
H728 C742 0.929 . S
H729 C743 0.931 . S
H730 C745 0.930 . S
C731 H719 0.930 . S
C731 C732 1.399 . S
C731 C736 1.399 . S
C732 C731 1.399 . S
C732 C733 1.376 . S
C733 H720 0.930 . S
C733 C732 1.376 . S
C733 C734 1.388 . S
C734 H721 0.930 . S
C734 C733 1.388 . S
C734 C735 1.390 . S
C735 C734 1.390 . S
C735 C736 1.394 . S
C735 C741 1.465 . S
C736 C731 1.399 . S
C736 C735 1.394 . S
C736 C737 1.516 . S
C737 C736 1.516 . S
C737 C738 1.502 . S
C737 C739 1.561 . S
C737 C740 1.526 . S
C738 H722 0.959 . S
C738 H723 0.959 . S
C738 H724 0.961 . S
C738 C737 1.502 . S
C739 H725 0.960 . S
C739 H726 0.961 . S
C739 H727 0.959 . S
C739 C737 1.561 . S
C740 C737 1.526 . S
C740 C741 1.396 . S
C740 C745 1.390 . S
C741 C735 1.465 . S
C741 C740 1.396 . S
C741 C742 1.399 . S
C742 H728 0.929 . S
C742 C741 1.399 . S
C742 C743 1.385 . S
C743 H729 0.931 . S
C743 C742 1.385 . S
C743 C744 1.389 . S
C744 C743 1.389 . S
C744 C745 1.387 . S
C745 H730 0.930 . S
C745 C740 1.390 . S
C745 C744 1.387 . S
H746 C758 0.930 . S
H747 C760 0.930 . S
H748 C761 0.930 . S
H749 C765 0.959 . S
H750 C765 0.959 . S
H751 C765 0.961 . S
H752 C766 0.960 . S
H753 C766 0.961 . S
H754 C766 0.959 . S
H755 C769 0.929 . S
H756 C770 0.931 . S
H757 C772 0.930 . S
C758 H746 0.930 . S
C758 C759 1.399 . S
C758 C763 1.399 . S
C759 C758 1.399 . S
C759 C760 1.376 . S
C760 H747 0.930 . S
C760 C759 1.376 . S
C760 C761 1.388 . S
C761 H748 0.930 . S
C761 C760 1.388 . S
C761 C762 1.390 . S
C762 C761 1.390 . S
C762 C763 1.394 . S
C762 C768 1.465 . S
C763 C758 1.399 . S
C763 C762 1.394 . S
C763 C764 1.516 . S
C764 C763 1.516 . S
C764 C765 1.502 . S
C764 C766 1.561 . S
C764 C767 1.526 . S
C765 H749 0.959 . S
C765 H750 0.959 . S
C765 H751 0.961 . S
C765 C764 1.502 . S
C766 H752 0.960 . S
C766 H753 0.961 . S
C766 H754 0.959 . S
C766 C764 1.561 . S
C767 C764 1.526 . S
C767 C768 1.396 . S
C767 C772 1.390 . S
C768 C762 1.465 . S
C768 C767 1.396 . S
C768 C769 1.399 . S
C769 H755 0.929 . S
C769 C768 1.399 . S
C769 C770 1.385 . S
C770 H756 0.931 . S
C770 C769 1.385 . S
C770 C771 1.389 . S
C771 C770 1.389 . S
C771 C772 1.387 . S
C772 H757 0.930 . S
C772 C767 1.390 . S
C772 C771 1.387 . S
H773 C785 0.930 . S
H774 C787 0.930 . S
H775 C788 0.930 . S
H776 C792 0.959 . S
H777 C792 0.959 . S
H778 C792 0.961 . S
H779 C793 0.960 . S
H780 C793 0.961 . S
H781 C793 0.959 . S
H782 C796 0.929 . S
H783 C797 0.931 . S
H784 C799 0.930 . S
C785 H773 0.930 . S
C785 C786 1.399 . S
C785 C790 1.399 . S
C786 C785 1.399 . S
C786 C787 1.376 . S
C787 H774 0.930 . S
C787 C786 1.376 . S
C787 C788 1.388 . S
C788 H775 0.930 . S
C788 C787 1.388 . S
C788 C789 1.390 . S
C789 C788 1.390 . S
C789 C790 1.394 . S
C789 C795 1.465 . S
C790 C785 1.399 . S
C790 C789 1.394 . S
C790 C791 1.516 . S
C791 C790 1.516 . S
C791 C792 1.502 . S
C791 C793 1.561 . S
C791 C794 1.526 . S
C792 H776 0.959 . S
C792 H777 0.959 . S
C792 H778 0.961 . S
C792 C791 1.502 . S
C793 H779 0.960 . S
C793 H780 0.961 . S
C793 H781 0.959 . S
C793 C791 1.561 . S
C794 C791 1.526 . S
C794 C795 1.396 . S
C794 C799 1.390 . S
C795 C789 1.465 . S
C795 C794 1.396 . S
C795 C796 1.399 . S
C796 H782 0.929 . S
C796 C795 1.399 . S
C796 C797 1.385 . S
C797 H783 0.931 . S
C797 C796 1.385 . S
C797 C798 1.389 . S
C798 C797 1.389 . S
C798 C799 1.387 . S
C799 H784 0.930 . S
C799 C794 1.390 . S
C799 C798 1.387 . S
H800 C812 0.930 . S
H801 C814 0.930 . S
H802 C815 0.930 . S
H803 C819 0.959 . S
H804 C819 0.959 . S
H805 C819 0.961 . S
H806 C820 0.960 . S
H807 C820 0.961 . S
H808 C820 0.959 . S
H809 C823 0.929 . S
H810 C824 0.931 . S
H811 C826 0.930 . S
C812 H800 0.930 . S
C812 C813 1.399 . S
C812 C817 1.399 . S
C813 C812 1.399 . S
C813 C814 1.376 . S
C814 H801 0.930 . S
C814 C813 1.376 . S
C814 C815 1.388 . S
C815 H802 0.930 . S
C815 C814 1.388 . S
C815 C816 1.390 . S
C816 C815 1.390 . S
C816 C817 1.394 . S
C816 C822 1.465 . S
C817 C812 1.399 . S
C817 C816 1.394 . S
C817 C818 1.516 . S
C818 C817 1.516 . S
C818 C819 1.502 . S
C818 C820 1.561 . S
C818 C821 1.526 . S
C819 H803 0.959 . S
C819 H804 0.959 . S
C819 H805 0.961 . S
C819 C818 1.502 . S
C820 H806 0.960 . S
C820 H807 0.961 . S
C820 H808 0.959 . S
C820 C818 1.561 . S
C821 C818 1.526 . S
C821 C822 1.396 . S
C821 C826 1.390 . S
C822 C816 1.465 . S
C822 C821 1.396 . S
C822 C823 1.399 . S
C823 H809 0.929 . S
C823 C822 1.399 . S
C823 C824 1.385 . S
C824 H810 0.931 . S
C824 C823 1.385 . S
C824 C825 1.389 . S
C825 C824 1.389 . S
C825 C826 1.387 . S
C826 H811 0.930 . S
C826 C821 1.390 . S
C826 C825 1.387 . S
H827 C839 0.930 . S
H828 C841 0.930 . S
H829 C842 0.930 . S
H830 C846 0.959 . S
H831 C846 0.959 . S
H832 C846 0.961 . S
H833 C847 0.960 . S
H834 C847 0.961 . S
H835 C847 0.959 . S
H836 C850 0.929 . S
H837 C851 0.931 . S
H838 C853 0.930 . S
C839 H827 0.930 . S
C839 C840 1.399 . S
C839 C844 1.399 . S
C840 C839 1.399 . S
C840 C841 1.376 . S
C841 H828 0.930 . S
C841 C840 1.376 . S
C841 C842 1.388 . S
C842 H829 0.930 . S
C842 C841 1.388 . S
C842 C843 1.390 . S
C843 C842 1.390 . S
C843 C844 1.394 . S
C843 C849 1.465 . S
C844 C839 1.399 . S
C844 C843 1.394 . S
C844 C845 1.516 . S
C845 C844 1.516 . S
C845 C846 1.502 . S
C845 C847 1.561 . S
C845 C848 1.526 . S
C846 H830 0.959 . S
C846 H831 0.959 . S
C846 H832 0.961 . S
C846 C845 1.502 . S
C847 H833 0.960 . S
C847 H834 0.961 . S
C847 H835 0.959 . S
C847 C845 1.561 . S
C848 C845 1.526 . S
C848 C849 1.396 . S
C848 C853 1.390 . S
C849 C843 1.465 . S
C849 C848 1.396 . S
C849 C850 1.399 . S
C850 H836 0.929 . S
C850 C849 1.399 . S
C850 C851 1.385 . S
C851 H837 0.931 . S
C851 C850 1.385 . S
C851 C852 1.389 . S
C852 C851 1.389 . S
C852 C853 1.387 . S
C853 H838 0.930 . S
C853 C848 1.390 . S
C853 C852 1.387 . S
H854 C866 0.930 . S
H855 C868 0.930 . S
H856 C869 0.930 . S
H857 C873 0.959 . S
H858 C873 0.959 . S
H859 C873 0.961 . S
H860 C874 0.960 . S
H861 C874 0.961 . S
H862 C874 0.959 . S
H863 C877 0.929 . S
H864 C878 0.931 . S
H865 C880 0.930 . S
C866 H854 0.930 . S
C866 C867 1.399 . S
C866 C871 1.399 . S
C867 C866 1.399 . S
C867 C868 1.376 . S
C868 H855 0.930 . S
C868 C867 1.376 . S
C868 C869 1.388 . S
C869 H856 0.930 . S
C869 C868 1.388 . S
C869 C870 1.390 . S
C870 C869 1.390 . S
C870 C871 1.394 . S
C870 C876 1.465 . S
C871 C866 1.399 . S
C871 C870 1.394 . S
C871 C872 1.516 . S
C872 C871 1.516 . S
C872 C873 1.502 . S
C872 C874 1.561 . S
C872 C875 1.526 . S
C873 H857 0.959 . S
C873 H858 0.959 . S
C873 H859 0.961 . S
C873 C872 1.502 . S
C874 H860 0.960 . S
C874 H861 0.961 . S
C874 H862 0.959 . S
C874 C872 1.561 . S
C875 C872 1.526 . S
C875 C876 1.396 . S
C875 C880 1.390 . S
C876 C870 1.465 . S
C876 C875 1.396 . S
C876 C877 1.399 . S
C877 H863 0.929 . S
C877 C876 1.399 . S
C877 C878 1.385 . S
C878 H864 0.931 . S
C878 C877 1.385 . S
C878 C879 1.389 . S
C879 C878 1.389 . S
C879 C880 1.387 . S
C880 H865 0.930 . S
C880 C875 1.390 . S
C880 C879 1.387 . S
H881 C893 0.930 . S
H882 C895 0.930 . S
H883 C896 0.930 . S
H884 C900 0.959 . S
H885 C900 0.959 . S
H886 C900 0.961 . S
H887 C901 0.960 . S
H888 C901 0.961 . S
H889 C901 0.959 . S
H890 C904 0.929 . S
H891 C905 0.931 . S
H892 C907 0.930 . S
C893 H881 0.930 . S
C893 C894 1.399 . S
C893 C898 1.399 . S
C894 C893 1.399 . S
C894 C895 1.376 . S
C895 H882 0.930 . S
C895 C894 1.376 . S
C895 C896 1.388 . S
C896 H883 0.930 . S
C896 C895 1.388 . S
C896 C897 1.390 . S
C897 C896 1.390 . S
C897 C898 1.394 . S
C897 C903 1.465 . S
C898 C893 1.399 . S
C898 C897 1.394 . S
C898 C899 1.516 . S
C899 C898 1.516 . S
C899 C900 1.502 . S
C899 C901 1.561 . S
C899 C902 1.526 . S
C900 H884 0.959 . S
C900 H885 0.959 . S
C900 H886 0.961 . S
C900 C899 1.502 . S
C901 H887 0.960 . S
C901 H888 0.961 . S
C901 H889 0.959 . S
C901 C899 1.561 . S
C902 C899 1.526 . S
C902 C903 1.396 . S
C902 C907 1.390 . S
C903 C897 1.465 . S
C903 C902 1.396 . S
C903 C904 1.399 . S
C904 H890 0.929 . S
C904 C903 1.399 . S
C904 C905 1.385 . S
C905 H891 0.931 . S
C905 C904 1.385 . S
C905 C906 1.389 . S
C906 C905 1.389 . S
C906 C907 1.387 . S
C907 H892 0.930 . S
C907 C902 1.390 . S
C907 C906 1.387 . S
H908 C920 0.930 . S
H909 C922 0.930 . S
H910 C923 0.930 . S
H911 C927 0.959 . S
H912 C927 0.959 . S
H913 C927 0.961 . S
H914 C928 0.960 . S
H915 C928 0.961 . S
H916 C928 0.959 1_554 S
H917 C931 0.929 . S
H918 C932 0.931 . S
H919 C934 0.930 1_556 S
C920 H908 0.930 . S
C920 C921 1.399 1_556 S
C920 C925 1.399 1_556 S
C921 C920 1.399 1_554 S
C921 C922 1.376 . S
C922 H909 0.930 . S
C922 C921 1.376 . S
C922 C923 1.388 . S
C923 H910 0.930 . S
C923 C922 1.388 . S
C923 C924 1.390 . S
C924 C923 1.390 . S
C924 C925 1.394 . S
C924 C930 1.465 . S
C925 C920 1.399 1_554 S
C925 C924 1.394 . S
C925 C926 1.516 1_554 S
C926 C925 1.516 1_556 S
C926 C927 1.502 . S
C926 C928 1.561 . S
C926 C929 1.526 1_556 S
C927 H911 0.959 . S
C927 H912 0.959 . S
C927 H913 0.961 . S
C927 C926 1.502 . S
C928 H914 0.960 . S
C928 H915 0.961 . S
C928 H916 0.959 1_556 S
C928 C926 1.561 . S
C929 C926 1.526 1_554 S
C929 C930 1.396 . S
C929 C934 1.390 . S
C930 C924 1.465 . S
C930 C929 1.396 . S
C930 C931 1.399 . S
C931 H917 0.929 . S
C931 C930 1.399 . S
C931 C932 1.385 . S
C932 H918 0.931 . S
C932 C931 1.385 . S
C932 C933 1.389 . S
C933 C932 1.389 . S
C933 C934 1.387 . S
C934 H919 0.930 1_554 S
C934 C929 1.390 . S
C934 C933 1.387 . S
H935 C947 0.930 . S
H936 C949 0.930 . S
H937 C950 0.930 . S
H938 C954 0.959 . S
H939 C954 0.959 . S
H940 C954 0.961 . S
H941 C955 0.960 . S
H942 C955 0.961 . S
H943 C955 0.959 . S
H944 C958 0.929 . S
H945 C959 0.931 . S
H946 C961 0.930 . S
C947 H935 0.930 . S
C947 C948 1.399 . S
C947 C952 1.399 . S
C948 C947 1.399 . S
C948 C949 1.376 1_556 S
C949 H936 0.930 . S
C949 C948 1.376 1_554 S
C949 C950 1.388 . S
C950 H937 0.930 . S
C950 C949 1.388 . S
C950 C951 1.390 1_554 S
C951 C950 1.390 1_556 S
C951 C952 1.394 . S
C951 C957 1.465 . S
C952 C947 1.399 . S
C952 C951 1.394 . S
C952 C953 1.516 . S
C953 C952 1.516 . S
C953 C954 1.502 . S
C953 C955 1.561 . S
C953 C956 1.526 . S
C954 H938 0.959 . S
C954 H939 0.959 . S
C954 H940 0.961 . S
C954 C953 1.502 . S
C955 H941 0.960 . S
C955 H942 0.961 . S
C955 H943 0.959 . S
C955 C953 1.561 . S
C956 C953 1.526 . S
C956 C957 1.396 . S
C956 C961 1.390 . S
C957 C951 1.465 . S
C957 C956 1.396 . S
C957 C958 1.399 1_556 S
C958 H944 0.929 . S
C958 C957 1.399 1_554 S
C958 C959 1.385 . S
C959 H945 0.931 . S
C959 C958 1.385 . S
C959 C960 1.389 1_554 S
C960 C959 1.389 1_556 S
C960 C961 1.387 . S
C961 H946 0.930 . S
C961 C956 1.390 . S
C961 C960 1.387 . S
H962 C974 0.930 . S
H963 C976 0.930 . S
H964 C977 0.930 . S
H965 C981 0.959 . S
H966 C981 0.959 . S
H967 C981 0.961 . S
H968 C982 0.960 . S
H969 C982 0.961 . S
H970 C982 0.959 . S
H971 C985 0.929 . S
H972 C986 0.931 1_556 S
H973 C988 0.930 . S
C974 H962 0.930 . S
C974 C975 1.399 . S
C974 C979 1.399 . S
C975 C974 1.399 . S
C975 C976 1.376 1_554 S
C976 H963 0.930 . S
C976 C975 1.376 1_556 S
C976 C977 1.388 . S
C977 H964 0.930 . S
C977 C976 1.388 . S
C977 C978 1.390 1_556 S
C978 C977 1.390 1_554 S
C978 C979 1.394 . S
C978 C984 1.465 . S
C979 C974 1.399 . S
C979 C978 1.394 . S
C979 C980 1.516 . S
C980 C979 1.516 . S
C980 C981 1.502 . S
C980 C982 1.561 . S
C980 C983 1.526 . S
C981 H965 0.959 . S
C981 H966 0.959 . S
C981 H967 0.961 . S
C981 C980 1.502 . S
C982 H968 0.960 . S
C982 H969 0.961 . S
C982 H970 0.959 . S
C982 C980 1.561 . S
C983 C980 1.526 . S
C983 C984 1.396 . S
C983 C988 1.390 . S
C984 C978 1.465 . S
C984 C983 1.396 . S
C984 C985 1.399 1_554 S
C985 H971 0.929 . S
C985 C984 1.399 1_556 S
C985 C986 1.385 1_556 S
C986 H972 0.931 1_554 S
C986 C985 1.385 1_554 S
C986 C987 1.389 . S
C987 C986 1.389 . S
C987 C988 1.387 . S
C988 H973 0.930 . S
C988 C983 1.390 . S
C988 C987 1.387 . S
H989 C1001 0.930 1_554 S
H990 C1003 0.930 . S
H991 C1004 0.930 . S
H992 C1008 0.959 . S
H993 C1008 0.959 . S
H994 C1008 0.961 . S
H995 C1009 0.960 . S
H996 C1009 0.961 . S
H997 C1009 0.959 . S
H998 C1012 0.929 . S
H999 C1013 0.931 . S
H1000 C1015 0.930 . S
C1001 H989 0.930 1_556 S
C1001 C1002 1.399 . S
C1001 C1006 1.399 . S
C1002 C1001 1.399 . S
C1002 C1003 1.376 . S
C1003 H990 0.930 . S
C1003 C1002 1.376 . S
C1003 C1004 1.388 . S
C1004 H991 0.930 . S
C1004 C1003 1.388 . S
C1004 C1005 1.390 . S
C1005 C1004 1.390 . S
C1005 C1006 1.394 . S
C1005 C1011 1.465 . S
C1006 C1001 1.399 . S
C1006 C1005 1.394 . S
C1006 C1007 1.516 1_556 S
C1007 C1006 1.516 1_554 S
C1007 C1008 1.502 . S
C1007 C1009 1.561 . S
C1007 C1010 1.538 . S
C1008 H992 0.959 . S
C1008 H993 0.959 . S
C1008 H994 0.961 . S
C1008 C1007 1.502 . S
C1009 H995 0.960 . S
C1009 H996 0.961 . S
C1009 H997 0.959 . S
C1009 C1007 1.561 . S
C1010 C1007 1.538 . S
C1010 C1011 1.372 1_554 S
C1010 C1015 1.398 . S
C1011 C1005 1.465 . S
C1011 C1010 1.372 1_556 S
C1011 C1012 1.399 . S
C1012 H998 0.929 . S
C1012 C1011 1.399 . S
C1012 C1013 1.385 . S
C1013 H999 0.931 . S
C1013 C1012 1.385 . S
C1013 C1014 1.389 . S
C1014 C1013 1.389 . S
C1014 C1015 1.387 1_556 S
C1015 H1000 0.930 . S
C1015 C1010 1.398 . S
C1015 C1014 1.387 1_554 S
H1016 C1028 0.930 . S
H1017 C1030 0.930 . S
H1018 C1031 0.930 . S
H1019 C1035 0.959 . S
H1020 C1035 0.959 . S
H1021 C1035 0.961 . S
H1022 C1036 0.960 . S
H1023 C1036 0.961 . S
H1024 C1036 0.959 . S
H1025 C1039 0.929 . S
H1026 C1040 0.931 . S
H1027 C1042 0.930 . S
C1028 H1016 0.930 . S
C1028 C1029 1.399 1_545 S
C1028 C1033 1.399 . S
C1029 C1028 1.399 1_565 S
C1029 C1030 1.376 . S
C1030 H1017 0.930 . S
C1030 C1029 1.376 . S
C1030 C1031 1.388 . S
C1031 H1018 0.930 . S
C1031 C1030 1.388 . S
C1031 C1032 1.390 . S
C1032 C1031 1.390 . S
C1032 C1033 1.394 1_565 S
C1032 C1038 1.465 . S
C1033 C1028 1.399 . S
C1033 C1032 1.394 1_545 S
C1033 C1034 1.516 . S
C1034 C1033 1.516 . S
C1034 C1035 1.502 . S
C1034 C1036 1.561 . S
C1034 C1037 1.526 . S
C1035 H1019 0.959 . S
C1035 H1020 0.959 . S
C1035 H1021 0.961 . S
C1035 C1034 1.502 . S
C1036 H1022 0.960 . S
C1036 H1023 0.961 . S
C1036 H1024 0.959 . S
C1036 C1034 1.561 . S
C1037 C1034 1.526 . S
C1037 C1038 1.396 1_545 S
C1037 C1042 1.390 . S
C1038 C1032 1.465 . S
C1038 C1037 1.396 1_565 S
C1038 C1039 1.399 . S
C1039 H1025 0.929 . S
C1039 C1038 1.399 . S
C1039 C1040 1.385 . S
C1040 H1026 0.931 . S
C1040 C1039 1.385 . S
C1040 C1041 1.389 1_565 S
C1041 C1040 1.389 1_545 S
C1041 C1042 1.387 . S
C1042 H1027 0.930 . S
C1042 C1037 1.390 . S
C1042 C1041 1.387 . S
H1043 C1055 0.930 . S
H1044 C1057 0.930 . S
H1045 C1058 0.930 . S
H1046 C1062 0.959 . S
H1047 C1062 0.959 . S
H1048 C1062 0.961 . S
H1049 C1063 0.960 . S
H1050 C1063 0.961 . S
H1051 C1063 0.959 . S
H1052 C1066 0.929 . S
H1053 C1067 0.931 . S
H1054 C1069 0.930 . S
C1055 H1043 0.930 . S
C1055 C1056 1.399 . S
C1055 C1060 1.399 . S
C1056 C1055 1.399 . S
C1056 C1057 1.376 . S
C1057 H1044 0.930 . S
C1057 C1056 1.376 . S
C1057 C1058 1.388 1_655 S
C1058 H1045 0.930 . S
C1058 C1057 1.388 1_455 S
C1058 C1059 1.390 . S
C1059 C1058 1.390 . S
C1059 C1060 1.394 1_455 S
C1059 C1065 1.465 . S
C1060 C1055 1.399 . S
C1060 C1059 1.394 1_655 S
C1060 C1061 1.516 . S
C1061 C1060 1.516 . S
C1061 C1062 1.502 . S
C1061 C1063 1.561 1_655 S
C1061 C1064 1.526 1_655 S
C1062 H1046 0.959 . S
C1062 H1047 0.959 . S
C1062 H1048 0.961 . S
C1062 C1061 1.502 . S
C1063 H1049 0.960 . S
C1063 H1050 0.961 . S
C1063 H1051 0.959 . S
C1063 C1061 1.561 1_455 S
C1064 C1061 1.526 1_455 S
C1064 C1065 1.396 . S
C1064 C1069 1.390 . S
C1065 C1059 1.465 . S
C1065 C1064 1.396 . S
C1065 C1066 1.399 . S
C1066 H1052 0.929 . S
C1066 C1065 1.399 . S
C1066 C1067 1.385 . S
C1067 H1053 0.931 . S
C1067 C1066 1.385 . S
C1067 C1068 1.389 . S
C1068 C1067 1.389 . S
C1068 C1069 1.387 . S
C1069 H1054 0.930 . S
C1069 C1064 1.390 . S
C1069 C1068 1.387 . S
H1070 C1082 0.962 . S
H1071 C1084 0.930 . S
H1072 C1085 0.930 . S
H1073 C1089 0.959 . S
H1074 C1089 0.959 . S
H1075 C1089 0.961 . S
H1076 C1090 0.960 . S
H1077 C1090 0.961 . S
H1078 C1090 0.959 . S
H1079 C1093 0.929 . S
H1080 C1094 0.931 . S
H1081 C1096 0.930 . S
C1082 H1070 0.962 . S
C1082 C1083 1.362 1_545 S
C1082 C1087 1.405 . S
C1083 C1082 1.362 1_565 S
C1083 C1084 1.376 . S
C1084 H1071 0.930 . S
C1084 C1083 1.376 . S
C1084 C1085 1.388 . S
C1085 H1072 0.930 . S
C1085 C1084 1.388 . S
C1085 C1086 1.390 . S
C1086 C1085 1.390 . S
C1086 C1087 1.394 1_565 S
C1086 C1092 1.465 . S
C1087 C1082 1.405 . S
C1087 C1086 1.394 1_545 S
C1087 C1088 1.516 . S
C1088 C1087 1.516 . S
C1088 C1089 1.502 . S
C1088 C1090 1.561 . S
C1088 C1091 1.526 . S
C1089 H1073 0.959 . S
C1089 H1074 0.959 . S
C1089 H1075 0.961 . S
C1089 C1088 1.502 . S
C1090 H1076 0.960 . S
C1090 H1077 0.961 . S
C1090 H1078 0.959 . S
C1090 C1088 1.561 . S
C1091 C1088 1.526 . S
C1091 C1092 1.396 1_545 S
C1091 C1096 1.390 . S
C1092 C1086 1.465 . S
C1092 C1091 1.396 1_565 S
C1092 C1093 1.399 . S
C1093 H1079 0.929 . S
C1093 C1092 1.399 . S
C1093 C1094 1.385 . S
C1094 H1080 0.931 . S
C1094 C1093 1.385 . S
C1094 C1095 1.389 1_565 S
C1095 C1094 1.389 1_545 S
C1095 C1096 1.387 . S
C1096 H1081 0.930 . S
C1096 C1091 1.390 . S
C1096 C1095 1.387 . S
H1097 C1109 0.930 . S
H1098 C1111 0.930 . S
H1099 C1112 0.930 . S
H1100 C1116 0.959 . S
H1101 C1116 0.959 . S
H1102 C1116 0.961 . S
H1103 C1117 0.960 . S
H1104 C1117 0.961 . S
H1105 C1117 0.959 . S
H1106 C1120 0.929 . S
H1107 C1121 0.931 . S
H1108 C1123 0.930 . S
C1109 H1097 0.930 . S
C1109 C1110 1.399 . S
C1109 C1114 1.399 . S
C1110 C1109 1.399 . S
C1110 C1111 1.376 . S
C1111 H1098 0.930 . S
C1111 C1110 1.376 . S
C1111 C1112 1.388 1_655 S
C1112 H1099 0.930 . S
C1112 C1111 1.388 1_455 S
C1112 C1113 1.390 . S
C1113 C1112 1.390 . S
C1113 C1114 1.394 1_455 S
C1113 C1119 1.465 . S
C1114 C1109 1.399 . S
C1114 C1113 1.394 1_655 S
C1114 C1115 1.516 . S
C1115 C1114 1.516 . S
C1115 C1116 1.502 . S
C1115 C1117 1.561 1_655 S
C1115 C1118 1.526 1_655 S
C1116 H1100 0.959 . S
C1116 H1101 0.959 . S
C1116 H1102 0.961 . S
C1116 C1115 1.502 . S
C1117 H1103 0.960 . S
C1117 H1104 0.961 . S
C1117 H1105 0.959 . S
C1117 C1115 1.561 1_455 S
C1118 C1115 1.526 1_455 S
C1118 C1119 1.396 . S
C1118 C1123 1.390 . S
C1119 C1113 1.465 . S
C1119 C1118 1.396 . S
C1119 C1120 1.399 . S
C1120 H1106 0.929 . S
C1120 C1119 1.399 . S
C1120 C1121 1.385 . S
C1121 H1107 0.931 . S
C1121 C1120 1.385 . S
C1121 C1122 1.389 . S
C1122 C1121 1.389 . S
C1122 C1123 1.387 . S
C1123 H1108 0.930 . S
C1123 C1118 1.390 . S
C1123 C1122 1.387 . S
H1124 C1136 0.930 . S
H1125 C1138 0.930 . S
H1126 C1139 0.930 . S
H1127 C1143 0.959 . S
H1128 C1143 0.959 . S
H1129 C1143 0.961 . S
H1130 C1144 0.960 . S
H1131 C1144 0.961 . S
H1132 C1144 0.959 . S
H1133 C1147 0.929 . S
H1134 C1148 0.931 . S
H1135 C1150 0.930 . S
C1136 H1124 0.930 . S
C1136 C1137 1.399 1_545 S
C1136 C1141 1.399 . S
C1137 C1136 1.399 1_565 S
C1137 C1138 1.376 . S
C1138 H1125 0.930 . S
C1138 C1137 1.376 . S
C1138 C1139 1.388 . S
C1139 H1126 0.930 . S
C1139 C1138 1.388 . S
C1139 C1140 1.390 . S
C1140 C1139 1.390 . S
C1140 C1141 1.394 1_565 S
C1140 C1146 1.465 . S
C1141 C1136 1.399 . S
C1141 C1140 1.394 1_545 S
C1141 C1142 1.516 . S
C1142 C1141 1.516 . S
C1142 C1143 1.502 . S
C1142 C1144 1.561 . S
C1142 C1145 1.526 . S
C1143 H1127 0.959 . S
C1143 H1128 0.959 . S
C1143 H1129 0.961 . S
C1143 C1142 1.502 . S
C1144 H1130 0.960 . S
C1144 H1131 0.961 . S
C1144 H1132 0.959 . S
C1144 C1142 1.561 . S
C1145 C1142 1.526 . S
C1145 C1146 1.396 1_545 S
C1145 C1150 1.390 . S
C1146 C1140 1.465 . S
C1146 C1145 1.396 1_565 S
C1146 C1147 1.399 . S
C1147 H1133 0.929 . S
C1147 C1146 1.399 . S
C1147 C1148 1.385 . S
C1148 H1134 0.931 . S
C1148 C1147 1.385 . S
C1148 C1149 1.389 1_565 S
C1149 C1148 1.389 1_545 S
C1149 C1150 1.387 . S
C1150 H1135 0.930 . S
C1150 C1145 1.390 . S
C1150 C1149 1.387 . S
H1151 C1163 0.930 . S
H1152 C1165 0.930 . S
H1153 C1166 0.930 . S
H1154 C1170 0.959 . S
H1155 C1170 0.959 . S
H1156 C1170 0.961 . S
H1157 C1171 0.960 . S
H1158 C1171 0.962 1_655 S
H1159 C1171 0.959 . S
H1160 C1174 0.929 . S
H1161 C1175 0.931 . S
H1162 C1177 0.930 . S
C1163 H1151 0.930 . S
C1163 C1164 1.399 . S
C1163 C1168 1.399 . S
C1164 C1163 1.399 . S
C1164 C1165 1.376 . S
C1165 H1152 0.930 . S
C1165 C1164 1.376 . S
C1165 C1166 1.388 . S
C1166 H1153 0.930 . S
C1166 C1165 1.388 . S
C1166 C1167 1.390 . S
C1167 C1166 1.390 . S
C1167 C1168 1.394 . S
C1167 C1173 1.465 . S
C1168 C1163 1.399 . S
C1168 C1167 1.394 . S
C1168 C1169 1.516 1_455 S
C1169 C1168 1.516 1_655 S
C1169 C1170 1.502 . S
C1169 C1171 1.561 1_655 S
C1169 C1172 1.526 . S
C1170 H1154 0.959 . S
C1170 H1155 0.959 . S
C1170 H1156 0.961 . S
C1170 C1169 1.502 . S
C1171 H1157 0.960 . S
C1171 H1158 0.962 1_455 S
C1171 H1159 0.959 . S
C1171 C1169 1.561 1_455 S
C1172 C1169 1.526 . S
C1172 C1173 1.396 1_655 S
C1172 C1177 1.390 . S
C1173 C1167 1.465 . S
C1173 C1172 1.396 1_455 S
C1173 C1174 1.399 . S
C1174 H1160 0.929 . S
C1174 C1173 1.399 . S
C1174 C1175 1.385 1_455 S
C1175 H1161 0.931 . S
C1175 C1174 1.385 1_655 S
C1175 C1176 1.389 . S
C1176 C1175 1.389 . S
C1176 C1177 1.387 . S
C1177 H1162 0.930 . S
C1177 C1172 1.390 . S
C1177 C1176 1.387 . S
H1178 C1190 0.930 . S
H1179 C1192 0.930 . S
H1180 C1193 0.930 . S
H1181 C1197 0.959 . S
H1182 C1197 0.959 . S
H1183 C1197 0.961 . S
H1184 C1198 0.960 . S
H1185 C1198 0.961 . S
H1186 C1198 0.959 . S
H1187 C1201 0.929 . S
H1188 C1202 0.931 . S
H1189 C1204 0.930 . S
C1190 H1178 0.930 . S
C1190 C1191 1.399 . S
C1190 C1195 1.399 . S
C1191 C1190 1.399 . S
C1191 C1192 1.376 1_565 S
C1192 H1179 0.930 . S
C1192 C1191 1.376 1_545 S
C1192 C1193 1.388 . S
C1193 H1180 0.930 . S
C1193 C1192 1.388 . S
C1193 C1194 1.390 . S
C1194 C1193 1.390 . S
C1194 C1195 1.394 1_545 S
C1194 C1200 1.465 . S
C1195 C1190 1.399 . S
C1195 C1194 1.394 1_565 S
C1195 C1196 1.516 . S
C1196 C1195 1.516 . S
C1196 C1197 1.502 . S
C1196 C1198 1.561 . S
C1196 C1199 1.526 . S
C1197 H1181 0.959 . S
C1197 H1182 0.959 . S
C1197 H1183 0.961 . S
C1197 C1196 1.502 . S
C1198 H1184 0.960 . S
C1198 H1185 0.961 . S
C1198 H1186 0.959 . S
C1198 C1196 1.561 . S
C1199 C1196 1.526 . S
C1199 C1200 1.396 1_565 S
C1199 C1204 1.390 . S
C1200 C1194 1.465 . S
C1200 C1199 1.396 1_545 S
C1200 C1201 1.399 . S
C1201 H1187 0.929 . S
C1201 C1200 1.399 . S
C1201 C1202 1.385 . S
C1202 H1188 0.931 . S
C1202 C1201 1.385 . S
C1202 C1203 1.389 . S
C1203 C1202 1.389 . S
C1203 C1204 1.387 1_545 S
C1204 H1189 0.930 . S
C1204 C1199 1.390 . S
C1204 C1203 1.387 1_565 S
H1205 C1217 0.930 . S
H1206 C1219 0.930 . S
H1207 C1220 0.930 . S
H1208 C1224 0.959 . S
H1209 C1224 0.959 . S
H1210 C1224 0.961 . S
H1211 C1225 0.960 . S
H1212 C1225 0.961 . S
H1213 C1225 0.959 . S
H1214 C1228 0.929 . S
H1215 C1229 0.931 . S
H1216 C1231 0.930 . S
C1217 H1205 0.930 . S
C1217 C1218 1.399 . S
C1217 C1222 1.399 . S
C1218 C1217 1.399 . S
C1218 C1219 1.376 . S
C1219 H1206 0.930 . S
C1219 C1218 1.376 . S
C1219 C1220 1.388 1_455 S
C1220 H1207 0.930 . S
C1220 C1219 1.388 1_655 S
C1220 C1221 1.390 . S
C1221 C1220 1.390 . S
C1221 C1222 1.394 1_655 S
C1221 C1227 1.465 . S
C1222 C1217 1.399 . S
C1222 C1221 1.394 1_455 S
C1222 C1223 1.516 . S
C1223 C1222 1.516 . S
C1223 C1224 1.502 . S
C1223 C1225 1.561 1_455 S
C1223 C1226 1.526 1_455 S
C1224 H1208 0.959 . S
C1224 H1209 0.959 . S
C1224 H1210 0.961 . S
C1224 C1223 1.502 . S
C1225 H1211 0.960 . S
C1225 H1212 0.961 . S
C1225 H1213 0.959 . S
C1225 C1223 1.561 1_655 S
C1226 C1223 1.526 1_655 S
C1226 C1227 1.396 . S
C1226 C1231 1.390 . S
C1227 C1221 1.465 . S
C1227 C1226 1.396 . S
C1227 C1228 1.399 . S
C1228 H1214 0.929 . S
C1228 C1227 1.399 . S
C1228 C1229 1.385 . S
C1229 H1215 0.931 . S
C1229 C1228 1.385 . S
C1229 C1230 1.389 . S
C1230 C1229 1.389 . S
C1230 C1231 1.387 . S
C1231 H1216 0.930 . S
C1231 C1226 1.390 . S
C1231 C1230 1.387 . S
H1232 C1244 0.930 . S
H1233 C1246 0.930 . S
H1234 C1247 0.930 . S
H1235 C1251 0.959 . S
H1236 C1251 0.959 . S
H1237 C1251 0.961 . S
H1238 C1252 0.960 . S
H1239 C1252 0.961 . S
H1240 C1252 0.959 . S
H1241 C1255 0.929 . S
H1242 C1256 0.931 . S
H1243 C1258 0.930 . S
C1244 H1232 0.930 . S
C1244 C1245 1.399 . S
C1244 C1249 1.399 . S
C1245 C1244 1.399 . S
C1245 C1246 1.376 . S
C1246 H1233 0.930 . S
C1246 C1245 1.376 . S
C1246 C1247 1.388 . S
C1247 H1234 0.930 . S
C1247 C1246 1.388 . S
C1247 C1248 1.390 . S
C1248 C1247 1.390 . S
C1248 C1249 1.394 . S
C1248 C1254 1.465 . S
C1249 C1244 1.399 . S
C1249 C1248 1.394 . S
C1249 C1250 1.516 . S
C1250 C1249 1.516 . S
C1250 C1251 1.502 . S
C1250 C1252 1.561 . S
C1250 C1253 1.526 . S
C1251 H1235 0.959 . S
C1251 H1236 0.959 . S
C1251 H1237 0.961 . S
C1251 C1250 1.502 . S
C1252 H1238 0.960 . S
C1252 H1239 0.961 . S
C1252 H1240 0.959 . S
C1252 C1250 1.561 . S
C1253 C1250 1.526 . S
C1253 C1254 1.396 . S
C1253 C1258 1.390 . S
C1254 C1248 1.465 . S
C1254 C1253 1.396 . S
C1254 C1255 1.399 . S
C1255 H1241 0.929 . S
C1255 C1254 1.399 . S
C1255 C1256 1.385 . S
C1256 H1242 0.931 . S
C1256 C1255 1.385 . S
C1256 C1257 1.389 . S
C1257 C1256 1.389 . S
C1257 C1258 1.387 . S
C1258 H1243 0.930 . S
C1258 C1253 1.390 . S
C1258 C1257 1.387 . S
H1259 C1271 0.930 . S
H1260 C1273 0.930 . S
H1261 C1274 0.930 . S
H1262 C1278 0.959 . S
H1263 C1278 0.959 . S
H1264 C1278 0.961 . S
H1265 C1279 0.960 . S
H1266 C1279 0.961 . S
H1267 C1279 0.959 . S
H1268 C1282 0.929 . S
H1269 C1283 0.931 . S
H1270 C1285 0.930 . S
C1271 H1259 0.930 . S
C1271 C1272 1.399 . S
C1271 C1276 1.399 . S
C1272 C1271 1.399 . S
C1272 C1273 1.376 . S
C1273 H1260 0.930 . S
C1273 C1272 1.376 . S
C1273 C1274 1.388 . S
C1274 H1261 0.930 . S
C1274 C1273 1.388 . S
C1274 C1275 1.390 . S
C1275 C1274 1.390 . S
C1275 C1276 1.394 . S
C1275 C1281 1.465 . S
C1276 C1271 1.399 . S
C1276 C1275 1.394 . S
C1276 C1277 1.516 . S
C1277 C1276 1.516 . S
C1277 C1278 1.502 . S
C1277 C1279 1.561 . S
C1277 C1280 1.526 . S
C1278 H1262 0.959 . S
C1278 H1263 0.959 . S
C1278 H1264 0.961 . S
C1278 C1277 1.502 . S
C1279 H1265 0.960 . S
C1279 H1266 0.961 . S
C1279 H1267 0.959 . S
C1279 C1277 1.561 . S
C1280 C1277 1.526 . S
C1280 C1281 1.396 . S
C1280 C1285 1.390 . S
C1281 C1275 1.465 . S
C1281 C1280 1.396 . S
C1281 C1282 1.399 . S
C1282 H1268 0.929 . S
C1282 C1281 1.399 . S
C1282 C1283 1.385 . S
C1283 H1269 0.931 . S
C1283 C1282 1.385 . S
C1283 C1284 1.389 . S
C1284 C1283 1.389 . S
C1284 C1285 1.387 . S
C1285 H1270 0.930 . S
C1285 C1280 1.390 . S
C1285 C1284 1.387 . S
H1286 C1298 0.930 . S
H1287 C1300 0.930 . S
H1288 C1301 0.930 . S
H1289 C1305 0.959 . S
H1290 C1305 0.959 . S
H1291 C1305 0.961 . S
H1292 C1306 0.960 . S
H1293 C1306 0.961 . S
H1294 C1306 0.959 . S
H1295 C1309 0.929 . S
H1296 C1310 0.931 . S
H1297 C1312 0.930 . S
C1298 H1286 0.930 . S
C1298 C1299 1.399 . S
C1298 C1303 1.399 . S
C1299 C1298 1.399 . S
C1299 C1300 1.376 . S
C1300 H1287 0.930 . S
C1300 C1299 1.376 . S
C1300 C1301 1.388 . S
C1301 H1288 0.930 . S
C1301 C1300 1.388 . S
C1301 C1302 1.390 . S
C1302 C1301 1.390 . S
C1302 C1303 1.394 . S
C1302 C1308 1.465 . S
C1303 C1298 1.399 . S
C1303 C1302 1.394 . S
C1303 C1304 1.516 . S
C1304 C1303 1.516 . S
C1304 C1305 1.502 . S
C1304 C1306 1.561 . S
C1304 C1307 1.526 . S
C1305 H1289 0.959 . S
C1305 H1290 0.959 . S
C1305 H1291 0.961 . S
C1305 C1304 1.502 . S
C1306 H1292 0.960 . S
C1306 H1293 0.961 . S
C1306 H1294 0.959 . S
C1306 C1304 1.561 . S
C1307 C1304 1.526 . S
C1307 C1308 1.396 . S
C1307 C1312 1.390 . S
C1308 C1302 1.465 . S
C1308 C1307 1.396 . S
C1308 C1309 1.399 . S
C1309 H1295 0.929 . S
C1309 C1308 1.399 . S
C1309 C1310 1.385 . S
C1310 H1296 0.931 . S
C1310 C1309 1.385 . S
C1310 C1311 1.389 . S
C1311 C1310 1.389 . S
C1311 C1312 1.387 . S
C1312 H1297 0.930 . S
C1312 C1307 1.390 . S
C1312 C1311 1.387 . S
H1313 C1325 0.930 . S
H1314 C1327 0.930 . S
H1315 C1328 0.930 . S
H1316 C1332 0.959 . S
H1317 C1332 0.959 . S
H1318 C1332 0.961 . S
H1319 C1333 0.960 . S
H1320 C1333 0.961 . S
H1321 C1333 0.959 . S
H1322 C1336 0.929 . S
H1323 C1337 0.931 . S
H1324 C1339 0.930 . S
C1325 H1313 0.930 . S
C1325 C1326 1.399 . S
C1325 C1330 1.399 . S
C1326 C1325 1.399 . S
C1326 C1327 1.376 . S
C1327 H1314 0.930 . S
C1327 C1326 1.376 . S
C1327 C1328 1.388 . S
C1328 H1315 0.930 . S
C1328 C1327 1.388 . S
C1328 C1329 1.390 . S
C1329 C1328 1.390 . S
C1329 C1330 1.394 . S
C1329 C1335 1.465 . S
C1330 C1325 1.399 . S
C1330 C1329 1.394 . S
C1330 C1331 1.516 . S
C1331 C1330 1.516 . S
C1331 C1332 1.502 . S
C1331 C1333 1.561 . S
C1331 C1334 1.526 . S
C1332 H1316 0.959 . S
C1332 H1317 0.959 . S
C1332 H1318 0.961 . S
C1332 C1331 1.502 . S
C1333 H1319 0.960 . S
C1333 H1320 0.961 . S
C1333 H1321 0.959 . S
C1333 C1331 1.561 . S
C1334 C1331 1.526 . S
C1334 C1335 1.396 . S
C1334 C1339 1.390 . S
C1335 C1329 1.465 . S
C1335 C1334 1.396 . S
C1335 C1336 1.399 . S
C1336 H1322 0.929 . S
C1336 C1335 1.399 . S
C1336 C1337 1.385 . S
C1337 H1323 0.931 . S
C1337 C1336 1.385 . S
C1337 C1338 1.389 . S
C1338 C1337 1.389 . S
C1338 C1339 1.387 . S
C1339 H1324 0.930 . S
C1339 C1334 1.390 . S
C1339 C1338 1.387 . S
H1340 C1352 0.930 . S
H1341 C1354 0.930 . S
H1342 C1355 0.930 . S
H1343 C1359 0.959 . S
H1344 C1359 0.959 . S
H1345 C1359 0.961 . S
H1346 C1360 0.960 . S
H1347 C1360 0.961 . S
H1348 C1360 0.959 . S
H1349 C1363 0.929 . S
H1350 C1364 0.931 . S
H1351 C1366 0.930 . S
C1352 H1340 0.930 . S
C1352 C1353 1.399 . S
C1352 C1357 1.399 . S
C1353 C1352 1.399 . S
C1353 C1354 1.376 . S
C1354 H1341 0.930 . S
C1354 C1353 1.376 . S
C1354 C1355 1.388 . S
C1355 H1342 0.930 . S
C1355 C1354 1.388 . S
C1355 C1356 1.390 . S
C1356 C1355 1.390 . S
C1356 C1357 1.394 . S
C1356 C1362 1.465 . S
C1357 C1352 1.399 . S
C1357 C1356 1.394 . S
C1357 C1358 1.516 . S
C1358 C1357 1.516 . S
C1358 C1359 1.502 . S
C1358 C1360 1.561 . S
C1358 C1361 1.526 . S
C1359 H1343 0.959 . S
C1359 H1344 0.959 . S
C1359 H1345 0.961 . S
C1359 C1358 1.502 . S
C1360 H1346 0.960 . S
C1360 H1347 0.961 . S
C1360 H1348 0.959 . S
C1360 C1358 1.561 . S
C1361 C1358 1.526 . S
C1361 C1362 1.396 . S
C1361 C1366 1.390 . S
C1362 C1356 1.465 . S
C1362 C1361 1.396 . S
C1362 C1363 1.399 . S
C1363 H1349 0.929 . S
C1363 C1362 1.399 . S
C1363 C1364 1.385 . S
C1364 H1350 0.931 . S
C1364 C1363 1.385 . S
C1364 C1365 1.389 . S
C1365 C1364 1.389 . S
C1365 C1366 1.387 . S
C1366 H1351 0.930 . S
C1366 C1361 1.390 . S
C1366 C1365 1.387 . S
H1367 C1379 0.930 . S
H1368 C1381 0.930 . S
H1369 C1382 0.930 . S
H1370 C1386 0.959 . S
H1371 C1386 0.959 . S
H1372 C1386 0.961 . S
H1373 C1387 0.960 . S
H1374 C1387 0.961 . S
H1375 C1387 0.959 . S
H1376 C1390 0.929 . S
H1377 C1391 0.931 . S
H1378 C1393 0.930 . S
C1379 H1367 0.930 . S
C1379 C1380 1.399 . S
C1379 C1384 1.399 . S
C1380 C1379 1.399 . S
C1380 C1381 1.376 . S
C1381 H1368 0.930 . S
C1381 C1380 1.376 . S
C1381 C1382 1.388 . S
C1382 H1369 0.930 . S
C1382 C1381 1.388 . S
C1382 C1383 1.390 . S
C1383 C1382 1.390 . S
C1383 C1384 1.394 . S
C1383 C1389 1.465 . S
C1384 C1379 1.399 . S
C1384 C1383 1.394 . S
C1384 C1385 1.516 . S
C1385 C1384 1.516 . S
C1385 C1386 1.502 . S
C1385 C1387 1.561 . S
C1385 C1388 1.526 . S
C1386 H1370 0.959 . S
C1386 H1371 0.959 . S
C1386 H1372 0.961 . S
C1386 C1385 1.502 . S
C1387 H1373 0.960 . S
C1387 H1374 0.961 . S
C1387 H1375 0.959 . S
C1387 C1385 1.561 . S
C1388 C1385 1.526 . S
C1388 C1389 1.396 . S
C1388 C1393 1.390 . S
C1389 C1383 1.465 . S
C1389 C1388 1.396 . S
C1389 C1390 1.399 . S
C1390 H1376 0.929 . S
C1390 C1389 1.399 . S
C1390 C1391 1.385 . S
C1391 H1377 0.931 . S
C1391 C1390 1.385 . S
C1391 C1392 1.389 . S
C1392 C1391 1.389 . S
C1392 C1393 1.387 . S
C1393 H1378 0.930 . S
C1393 C1388 1.390 . S
C1393 C1392 1.387 . S
H1394 C1406 0.930 . S
H1395 C1408 0.930 . S
H1396 C1409 0.930 . S
H1397 C1413 0.959 . S
H1398 C1413 0.959 . S
H1399 C1413 0.961 . S
H1400 C1414 0.960 . S
H1401 C1414 0.961 . S
H1402 C1414 0.959 . S
H1403 C1417 0.929 . S
H1404 C1418 0.931 . S
H1405 C1420 0.930 . S
C1406 H1394 0.930 . S
C1406 C1407 1.399 . S
C1406 C1411 1.399 . S
C1407 C1406 1.399 . S
C1407 C1408 1.376 . S
C1408 H1395 0.930 . S
C1408 C1407 1.376 . S
C1408 C1409 1.388 . S
C1409 H1396 0.930 . S
C1409 C1408 1.388 . S
C1409 C1410 1.390 . S
C1410 C1409 1.390 . S
C1410 C1411 1.394 . S
C1410 C1416 1.465 . S
C1411 C1406 1.399 . S
C1411 C1410 1.394 . S
C1411 C1412 1.516 . S
C1412 C1411 1.516 . S
C1412 C1413 1.502 . S
C1412 C1414 1.561 . S
C1412 C1415 1.526 . S
C1413 H1397 0.959 . S
C1413 H1398 0.959 . S
C1413 H1399 0.961 . S
C1413 C1412 1.502 . S
C1414 H1400 0.960 . S
C1414 H1401 0.961 . S
C1414 H1402 0.959 . S
C1414 C1412 1.561 . S
C1415 C1412 1.526 . S
C1415 C1416 1.396 . S
C1415 C1420 1.390 . S
C1416 C1410 1.465 . S
C1416 C1415 1.396 . S
C1416 C1417 1.399 . S
C1417 H1403 0.929 . S
C1417 C1416 1.399 . S
C1417 C1418 1.385 . S
C1418 H1404 0.931 . S
C1418 C1417 1.385 . S
C1418 C1419 1.389 . S
C1419 C1418 1.389 . S
C1419 C1420 1.387 . S
C1420 H1405 0.930 . S
C1420 C1415 1.390 . S
C1420 C1419 1.387 . S
H1421 C1433 0.930 . S
H1422 C1435 0.930 . S
H1423 C1436 0.930 . S
H1424 C1440 0.959 . S
H1425 C1440 0.959 . S
H1426 C1440 0.961 . S
H1427 C1441 0.960 . S
H1428 C1441 0.961 . S
H1429 C1441 0.959 . S
H1430 C1444 0.929 . S
H1431 C1445 0.931 . S
H1432 C1447 0.930 . S
C1433 H1421 0.930 . S
C1433 C1434 1.399 . S
C1433 C1438 1.399 . S
C1434 C1433 1.399 . S
C1434 C1435 1.376 . S
C1435 H1422 0.930 . S
C1435 C1434 1.376 . S
C1435 C1436 1.388 . S
C1436 H1423 0.930 . S
C1436 C1435 1.388 . S
C1436 C1437 1.390 . S
C1437 C1436 1.390 . S
C1437 C1438 1.394 . S
C1437 C1443 1.465 . S
C1438 C1433 1.399 . S
C1438 C1437 1.394 . S
C1438 C1439 1.516 . S
C1439 C1438 1.516 . S
C1439 C1440 1.502 . S
C1439 C1441 1.561 . S
C1439 C1442 1.526 . S
C1440 H1424 0.959 . S
C1440 H1425 0.959 . S
C1440 H1426 0.961 . S
C1440 C1439 1.502 . S
C1441 H1427 0.960 . S
C1441 H1428 0.961 . S
C1441 H1429 0.959 . S
C1441 C1439 1.561 . S
C1442 C1439 1.526 . S
C1442 C1443 1.396 . S
C1442 C1447 1.390 . S
C1443 C1437 1.465 . S
C1443 C1442 1.396 . S
C1443 C1444 1.399 . S
C1444 H1430 0.929 . S
C1444 C1443 1.399 . S
C1444 C1445 1.385 . S
C1445 H1431 0.931 . S
C1445 C1444 1.385 . S
C1445 C1446 1.389 . S
C1446 C1445 1.389 . S
C1446 C1447 1.387 . S
C1447 H1432 0.930 . S
C1447 C1442 1.390 . S
C1447 C1446 1.387 . S
H1448 C1460 0.930 . S
H1449 C1462 0.930 . S
H1450 C1463 0.930 . S
H1451 C1467 0.959 . S
H1452 C1467 0.959 . S
H1453 C1467 0.961 . S
H1454 C1468 0.960 . S
H1455 C1468 0.961 . S
H1456 C1468 0.959 . S
H1457 C1471 0.929 . S
H1458 C1472 0.931 . S
H1459 C1474 0.930 . S
C1460 H1448 0.930 . S
C1460 C1461 1.399 1_554 S
C1460 C1465 1.399 . S
C1461 C1460 1.399 1_556 S
C1461 C1462 1.376 . S
C1462 H1449 0.930 . S
C1462 C1461 1.376 . S
C1462 C1463 1.388 . S
C1463 H1450 0.930 . S
C1463 C1462 1.388 . S
C1463 C1464 1.390 . S
C1464 C1463 1.390 . S
C1464 C1465 1.394 1_556 S
C1464 C1470 1.465 . S
C1465 C1460 1.399 . S
C1465 C1464 1.394 1_554 S
C1465 C1466 1.516 . S
C1466 C1465 1.516 . S
C1466 C1467 1.502 . S
C1466 C1468 1.561 . S
C1466 C1469 1.526 . S
C1467 H1451 0.959 . S
C1467 H1452 0.959 . S
C1467 H1453 0.961 . S
C1467 C1466 1.502 . S
C1468 H1454 0.960 . S
C1468 H1455 0.961 . S
C1468 H1456 0.959 . S
C1468 C1466 1.561 . S
C1469 C1466 1.526 . S
C1469 C1470 1.396 1_554 S
C1469 C1474 1.390 . S
C1470 C1464 1.465 . S
C1470 C1469 1.396 1_556 S
C1470 C1471 1.399 . S
C1471 H1457 0.929 . S
C1471 C1470 1.399 . S
C1471 C1472 1.385 . S
C1472 H1458 0.931 . S
C1472 C1471 1.385 . S
C1472 C1473 1.389 1_556 S
C1473 C1472 1.389 1_554 S
C1473 C1474 1.387 . S
C1474 H1459 0.930 . S
C1474 C1469 1.390 . S
C1474 C1473 1.387 . S
H1475 C1487 0.930 . S
H1476 C1489 0.930 . S
H1477 C1490 0.930 . S
H1478 C1494 0.959 . S
H1479 C1494 0.959 . S
H1480 C1494 0.961 . S
H1481 C1495 0.960 . S
H1482 C1495 0.961 . S
H1483 C1495 0.959 . S
H1484 C1498 0.929 . S
H1485 C1499 0.931 . S
H1486 C1501 0.930 . S
C1487 H1475 0.930 . S
C1487 C1488 1.399 . S
C1487 C1492 1.399 . S
C1488 C1487 1.399 . S
C1488 C1489 1.376 . S
C1489 H1476 0.930 . S
C1489 C1488 1.376 . S
C1489 C1490 1.388 . S
C1490 H1477 0.930 . S
C1490 C1489 1.388 . S
C1490 C1491 1.390 . S
C1491 C1490 1.390 . S
C1491 C1492 1.394 . S
C1491 C1497 1.465 1_554 S
C1492 C1487 1.399 . S
C1492 C1491 1.394 . S
C1492 C1493 1.516 1_554 S
C1493 C1492 1.516 1_556 S
C1493 C1494 1.502 1_556 S
C1493 C1495 1.561 . S
C1493 C1496 1.526 . S
C1494 H1478 0.959 . S
C1494 H1479 0.959 . S
C1494 H1480 0.961 . S
C1494 C1493 1.502 1_554 S
C1495 H1481 0.960 . S
C1495 H1482 0.961 . S
C1495 H1483 0.959 . S
C1495 C1493 1.561 . S
C1496 C1493 1.526 . S
C1496 C1497 1.396 . S
C1496 C1501 1.390 . S
C1497 C1491 1.465 1_556 S
C1497 C1496 1.396 . S
C1497 C1498 1.399 . S
C1498 H1484 0.929 . S
C1498 C1497 1.399 . S
C1498 C1499 1.385 . S
C1499 H1485 0.931 . S
C1499 C1498 1.385 . S
C1499 C1500 1.389 . S
C1500 C1499 1.389 . S
C1500 C1501 1.387 . S
C1501 H1486 0.930 . S
C1501 C1496 1.390 . S
C1501 C1500 1.387 . S
H1502 C1514 0.930 . S
H1503 C1516 0.930 . S
H1504 C1517 0.930 . S
H1505 C1521 0.959 . S
H1506 C1521 0.959 . S
H1507 C1521 0.961 . S
H1508 C1522 0.960 . S
H1509 C1522 0.961 . S
H1510 C1522 0.959 . S
H1511 C1525 0.929 . S
H1512 C1526 0.931 . S
H1513 C1528 0.930 . S
C1514 H1502 0.930 . S
C1514 C1515 1.399 1_556 S
C1514 C1519 1.399 . S
C1515 C1514 1.399 1_554 S
C1515 C1516 1.376 . S
C1516 H1503 0.930 . S
C1516 C1515 1.376 . S
C1516 C1517 1.388 . S
C1517 H1504 0.930 . S
C1517 C1516 1.388 . S
C1517 C1518 1.390 . S
C1518 C1517 1.390 . S
C1518 C1519 1.394 1_554 S
C1518 C1524 1.465 . S
C1519 C1514 1.399 . S
C1519 C1518 1.394 1_556 S
C1519 C1520 1.516 . S
C1520 C1519 1.516 . S
C1520 C1521 1.502 . S
C1520 C1522 1.561 . S
C1520 C1523 1.526 . S
C1521 H1505 0.959 . S
C1521 H1506 0.959 . S
C1521 H1507 0.961 . S
C1521 C1520 1.502 . S
C1522 H1508 0.960 . S
C1522 H1509 0.961 . S
C1522 H1510 0.959 . S
C1522 C1520 1.561 . S
C1523 C1520 1.526 . S
C1523 C1524 1.396 1_556 S
C1523 C1528 1.390 . S
C1524 C1518 1.465 . S
C1524 C1523 1.396 1_554 S
C1524 C1525 1.399 . S
C1525 H1511 0.929 . S
C1525 C1524 1.399 . S
C1525 C1526 1.385 . S
C1526 H1512 0.931 . S
C1526 C1525 1.385 . S
C1526 C1527 1.389 1_554 S
C1527 C1526 1.389 1_556 S
C1527 C1528 1.387 . S
C1528 H1513 0.930 . S
C1528 C1523 1.390 . S
C1528 C1527 1.387 . S
H1529 C1541 0.930 . S
H1530 C1543 0.930 . S
H1531 C1544 0.930 . S
H1532 C1548 0.959 . S
H1533 C1548 0.959 . S
H1534 C1548 0.961 . S
H1535 C1549 0.960 . S
H1536 C1549 0.961 . S
H1537 C1549 0.959 . S
H1538 C1552 0.929 . S
H1539 C1553 0.931 . S
H1540 C1555 0.930 . S
C1541 H1529 0.930 . S
C1541 C1542 1.399 1_556 S
C1541 C1546 1.399 . S
C1542 C1541 1.399 1_554 S
C1542 C1543 1.376 . S
C1543 H1530 0.930 . S
C1543 C1542 1.376 . S
C1543 C1544 1.388 . S
C1544 H1531 0.930 . S
C1544 C1543 1.388 . S
C1544 C1545 1.390 . S
C1545 C1544 1.390 . S
C1545 C1546 1.394 1_554 S
C1545 C1551 1.465 . S
C1546 C1541 1.399 . S
C1546 C1545 1.394 1_556 S
C1546 C1547 1.516 . S
C1547 C1546 1.516 . S
C1547 C1548 1.502 . S
C1547 C1549 1.561 . S
C1547 C1550 1.526 . S
C1548 H1532 0.959 . S
C1548 H1533 0.959 . S
C1548 H1534 0.961 . S
C1548 C1547 1.502 . S
C1549 H1535 0.960 . S
C1549 H1536 0.961 . S
C1549 H1537 0.959 . S
C1549 C1547 1.561 . S
C1550 C1547 1.526 . S
C1550 C1551 1.396 1_556 S
C1550 C1555 1.390 . S
C1551 C1545 1.465 . S
C1551 C1550 1.396 1_554 S
C1551 C1552 1.399 . S
C1552 H1538 0.929 . S
C1552 C1551 1.399 . S
C1552 C1553 1.385 . S
C1553 H1539 0.931 . S
C1553 C1552 1.385 . S
C1553 C1554 1.389 1_554 S
C1554 C1553 1.389 1_556 S
C1554 C1555 1.387 . S
C1555 H1540 0.930 . S
C1555 C1550 1.390 . S
C1555 C1554 1.387 . S
H1556 C1568 0.930 . S
H1557 C1570 0.930 . S
H1558 C1571 0.930 . S
H1559 C1575 0.959 . S
H1560 C1575 0.959 . S
H1561 C1575 0.961 . S
H1562 C1576 0.960 . S
H1563 C1576 0.961 . S
H1564 C1576 0.959 . S
H1565 C1579 0.929 . S
H1566 C1580 0.931 . S
H1567 C1582 0.930 . S
C1568 H1556 0.930 . S
C1568 C1569 1.399 . S
C1568 C1573 1.399 . S
C1569 C1568 1.399 . S
C1569 C1570 1.376 . S
C1570 H1557 0.930 . S
C1570 C1569 1.376 . S
C1570 C1571 1.388 . S
C1571 H1558 0.930 . S
C1571 C1570 1.388 . S
C1571 C1572 1.390 . S
C1572 C1571 1.390 . S
C1572 C1573 1.394 . S
C1572 C1578 1.465 . S
C1573 C1568 1.399 . S
C1573 C1572 1.394 . S
C1573 C1574 1.516 . S
C1574 C1573 1.516 . S
C1574 C1575 1.502 . S
C1574 C1576 1.561 . S
C1574 C1577 1.526 . S
C1575 H1559 0.959 . S
C1575 H1560 0.959 . S
C1575 H1561 0.961 . S
C1575 C1574 1.502 . S
C1576 H1562 0.960 . S
C1576 H1563 0.961 . S
C1576 H1564 0.959 . S
C1576 C1574 1.561 . S
C1577 C1574 1.526 . S
C1577 C1578 1.396 . S
C1577 C1582 1.390 . S
C1578 C1572 1.465 . S
C1578 C1577 1.396 . S
C1578 C1579 1.399 . S
C1579 H1565 0.929 . S
C1579 C1578 1.399 . S
C1579 C1580 1.385 . S
C1580 H1566 0.931 . S
C1580 C1579 1.385 . S
C1580 C1581 1.389 . S
C1581 C1580 1.389 . S
C1581 C1582 1.387 . S
C1582 H1567 0.930 . S
C1582 C1577 1.390 . S
C1582 C1581 1.387 . S
H1583 C1595 0.930 . S
H1584 C1597 0.930 . S
H1585 C1598 0.930 . S
H1586 C1602 0.959 . S
H1587 C1602 0.959 . S
H1588 C1602 0.961 . S
H1589 C1603 0.960 . S
H1590 C1603 0.961 . S
H1591 C1603 0.959 . S
H1592 C1606 0.929 . S
H1593 C1607 0.931 . S
H1594 C1609 0.930 . S
C1595 H1583 0.930 . S
C1595 C1596 1.399 . S
C1595 C1600 1.399 . S
C1596 C1595 1.399 . S
C1596 C1597 1.376 . S
C1597 H1584 0.930 . S
C1597 C1596 1.376 . S
C1597 C1598 1.388 . S
C1598 H1585 0.930 . S
C1598 C1597 1.388 . S
C1598 C1599 1.390 . S
C1599 C1598 1.390 . S
C1599 C1600 1.394 . S
C1599 C1605 1.465 . S
C1600 C1595 1.399 . S
C1600 C1599 1.394 . S
C1600 C1601 1.516 . S
C1601 C1600 1.516 . S
C1601 C1602 1.502 . S
C1601 C1603 1.561 . S
C1601 C1604 1.526 . S
C1602 H1586 0.959 . S
C1602 H1587 0.959 . S
C1602 H1588 0.961 . S
C1602 C1601 1.502 . S
C1603 H1589 0.960 . S
C1603 H1590 0.961 . S
C1603 H1591 0.959 . S
C1603 C1601 1.561 . S
C1604 C1601 1.526 . S
C1604 C1605 1.396 . S
C1604 C1609 1.390 . S
C1605 C1599 1.465 . S
C1605 C1604 1.396 . S
C1605 C1606 1.399 . S
C1606 H1592 0.929 . S
C1606 C1605 1.399 . S
C1606 C1607 1.385 . S
C1607 H1593 0.931 . S
C1607 C1606 1.385 . S
C1607 C1608 1.389 . S
C1608 C1607 1.389 . S
C1608 C1609 1.387 . S
C1609 H1594 0.930 . S
C1609 C1604 1.390 . S
C1609 C1608 1.387 . S
H1610 C1622 0.930 . S
H1611 C1624 0.930 . S
H1612 C1625 0.930 . S
H1613 C1629 0.959 . S
H1614 C1629 0.959 . S
H1615 C1629 0.961 . S
H1616 C1630 0.960 . S
H1617 C1630 0.961 . S
H1618 C1630 0.959 . S
H1619 C1633 0.929 . S
H1620 C1634 0.931 . S
H1621 C1636 0.930 . S
C1622 H1610 0.930 . S
C1622 C1623 1.399 . S
C1622 C1627 1.399 . S
C1623 C1622 1.399 . S
C1623 C1624 1.376 . S
C1624 H1611 0.930 . S
C1624 C1623 1.376 . S
C1624 C1625 1.388 . S
C1625 H1612 0.930 . S
C1625 C1624 1.388 . S
C1625 C1626 1.390 . S
C1626 C1625 1.390 . S
C1626 C1627 1.394 . S
C1626 C1632 1.465 . S
C1627 C1622 1.399 . S
C1627 C1626 1.394 . S
C1627 C1628 1.516 . S
C1628 C1627 1.516 . S
C1628 C1629 1.502 . S
C1628 C1630 1.561 . S
C1628 C1631 1.526 . S
C1629 H1613 0.959 . S
C1629 H1614 0.959 . S
C1629 H1615 0.961 . S
C1629 C1628 1.502 . S
C1630 H1616 0.960 . S
C1630 H1617 0.961 . S
C1630 H1618 0.959 . S
C1630 C1628 1.561 . S
C1631 C1628 1.526 . S
C1631 C1632 1.396 . S
C1631 C1636 1.390 . S
C1632 C1626 1.465 . S
C1632 C1631 1.396 . S
C1632 C1633 1.399 . S
C1633 H1619 0.929 . S
C1633 C1632 1.399 . S
C1633 C1634 1.385 . S
C1634 H1620 0.931 . S
C1634 C1633 1.385 . S
C1634 C1635 1.389 . S
C1635 C1634 1.389 . S
C1635 C1636 1.387 . S
C1636 H1621 0.930 . S
C1636 C1631 1.390 . S
C1636 C1635 1.387 . S
H1637 C1649 0.930 . S
H1638 C1651 0.930 . S
H1639 C1652 0.930 . S
H1640 C1656 0.959 . S
H1641 C1656 0.959 . S
H1642 C1656 0.961 . S
H1643 C1657 0.960 . S
H1644 C1657 0.961 . S
H1645 C1657 0.959 . S
H1646 C1660 0.929 . S
H1647 C1661 0.931 . S
H1648 C1663 0.930 . S
C1649 H1637 0.930 . S
C1649 C1650 1.399 . S
C1649 C1654 1.399 . S
C1650 C1649 1.399 . S
C1650 C1651 1.376 . S
C1651 H1638 0.930 . S
C1651 C1650 1.376 . S
C1651 C1652 1.388 . S
C1652 H1639 0.930 . S
C1652 C1651 1.388 . S
C1652 C1653 1.390 . S
C1653 C1652 1.390 . S
C1653 C1654 1.394 . S
C1653 C1659 1.465 . S
C1654 C1649 1.399 . S
C1654 C1653 1.394 . S
C1654 C1655 1.516 . S
C1655 C1654 1.516 . S
C1655 C1656 1.502 . S
C1655 C1657 1.561 . S
C1655 C1658 1.526 . S
C1656 H1640 0.959 . S
C1656 H1641 0.959 . S
C1656 H1642 0.961 . S
C1656 C1655 1.502 . S
C1657 H1643 0.960 . S
C1657 H1644 0.961 . S
C1657 H1645 0.959 . S
C1657 C1655 1.561 . S
C1658 C1655 1.526 . S
C1658 C1659 1.396 . S
C1658 C1663 1.390 . S
C1659 C1653 1.465 . S
C1659 C1658 1.396 . S
C1659 C1660 1.399 . S
C1660 H1646 0.929 . S
C1660 C1659 1.399 . S
C1660 C1661 1.385 . S
C1661 H1647 0.931 . S
C1661 C1660 1.385 . S
C1661 C1662 1.389 . S
C1662 C1661 1.389 . S
C1662 C1663 1.387 . S
C1663 H1648 0.930 . S
C1663 C1658 1.390 . S
C1663 C1662 1.387 . S
C381 C16 1.086 . S
C393 C131 1.109 . S
C408 C39 1.121 . S
C420 C154 1.050 . S
C435 C177 1.046 . S
C447 C62 1.104 . S
C462 C109 1.102 . S
C474 C85 1.054 . S
C489 C315 1.124 . S
C501 C200 1.054 . S
C516 C223 1.081 . S
C528 C338 1.087 . S
C543 C361 1.052 . S
C555 C246 1.118 . S
C570 C293 1.115 . S
C582 C269 1.040 . S
C597 C19 1.572 1_565 S
C609 C44 1.540 1_554 S
C624 C67 1.550 1_556 S
C636 C42 1.554 1_655 S
C651 C90 1.512 . S
C663 C65 1.570 1_545 S
C678 C88 1.560 1_455 S
C690 C21 1.508 1_556 S
C705 C110 1.569 1_565 S
C717 C182 1.536 . S
C732 C112 1.545 . S
C744 C134 1.533 1_655 S
C759 C136 1.491 . S
C771 C157 1.569 1_545 S
C786 C159 1.561 . S
C798 C180 1.546 1_455 S
C813 C203 1.535 . S
C825 C228 1.550 . S
C840 C251 1.553 . S
C852 C226 1.537 . S
C867 C249 1.578 . S
C879 C274 1.565 . S
C894 C272 1.577 . S
C906 C205 1.499 . S
C921 C366 1.522 1_554 S
C933 C294 1.564 . S
C948 C296 1.541 1_556 S
C960 C318 1.538 . S
C975 C320 1.487 1_554 S
C987 C341 1.567 . S
C1002 C364 1.532 . S
C1014 C343 1.539 1_556 S
C1029 C156 1.425 . S
C1041 C17 1.460 . S
C1056 C179 1.476 . S
C1068 C40 1.466 . S
C1083 C63 1.446 . S
C1095 C111 1.420 . S
C1110 C86 1.480 . S
C1122 C133 1.457 . S
C1137 C64 1.499 . S
C1149 C108 1.521 . S
C1164 C132 1.467 . S
C1176 C87 1.484 . S
C1191 C155 1.450 . S
C1203 C18 1.425 . S
C1218 C41 1.458 . S
C1230 C178 1.436 . S
C1245 C201 1.433 . S
C1257 C340 1.469 . S
C1272 C224 1.477 . S
C1284 C363 1.454 . S
C1299 C295 1.412 . S
C1311 C247 1.464 . S
C1326 C270 1.431 . S
C1338 C317 1.448 . S
C1353 C292 1.506 . S
C1365 C248 1.526 . S
C1380 C316 1.471 . S
C1392 C271 1.483 . S
C1407 C339 1.448 . S
C1419 C202 1.425 . S
C1434 C225 1.462 . S
C1446 C362 1.435 . S
C1461 C365 1.245 . S
C1473 C20 1.249 . S
C1488 C297 1.290 . S
C1500 C43 1.297 . S
C1515 C66 1.232 . S
C1527 C319 1.237 . S
C1542 C342 1.249 . S
C1554 C89 1.238 . S
C1569 C113 1.285 . S
C1581 C227 1.260 . S
C1596 C135 1.260 . S
C1608 C250 1.256 . S
C1623 C273 1.209 . S
C1635 C158 1.209 . S
C1650 C181 1.243 . S
C1662 C204 1.248 . S
