# Generated by pormake.
# Topology zfo, (5)-cn, num edge types: 1
# Building blocks:
#     Node 0, Type 0, BuildingBlock: BEQFEK_clean_sbu_0, # of connection points: 5
#     Node 1, Type 0, BuildingBlock: BEQFEK_clean_sbu_0, # of connection points: 5
#     Node 2, Type 0, BuildingBlock: BEQFEK_clean_sbu_0, # of connection points: 5
#     Node 3, Type 0, BuildingBlock: BEQFEK_clean_sbu_0, # of connection points: 5
#     Node 4, Type 0, BuildingBlock: BEQFEK_clean_sbu_0, # of connection points: 5
#     Node 5, Type 0, BuildingBlock: BEQFEK_clean_sbu_0, # of connection points: 5
#     Node 6, Type 0, BuildingBlock: BEQFEK_clean_sbu_0, # of connection points: 5
#     Node 7, Type 0, BuildingBlock: BEQFEK_clean_sbu_0, # of connection points: 5
#     Node 8, Type 0, BuildingBlock: BEQFEK_clean_sbu_0, # of connection points: 5
#     Node 9, Type 0, BuildingBlock: BEQFEK_clean_sbu_0, # of connection points: 5
#     Node 10, Type 0, BuildingBlock: BEQFEK_clean_sbu_0, # of connection points: 5
#     Node 11, Type 0, BuildingBlock: BEQFEK_clean_sbu_0, # of connection points: 5
#     Node 12, Type 0, BuildingBlock: BEQFEK_clean_sbu_0, # of connection points: 5
#     Node 13, Type 0, BuildingBlock: BEQFEK_clean_sbu_0, # of connection points: 5
#     Node 14, Type 0, BuildingBlock: BEQFEK_clean_sbu_0, # of connection points: 5
#     Node 15, Type 0, BuildingBlock: BEQFEK_clean_sbu_0, # of connection points: 5
#     Edge 16, Type (0, 0), BuildingBlock: KIFKEQ_clean_linker_1, # of connection points: 2
#     Edge 17, Type (0, 0), BuildingBlock: KIFKEQ_clean_linker_1, # of connection points: 2
#     Edge 18, Type (0, 0), BuildingBlock: KIFKEQ_clean_linker_1, # of connection points: 2
#     Edge 19, Type (0, 0), BuildingBlock: KIFKEQ_clean_linker_1, # of connection points: 2
#     Edge 20, Type (0, 0), BuildingBlock: KIFKEQ_clean_linker_1, # of connection points: 2
#     Edge 21, Type (0, 0), BuildingBlock: KIFKEQ_clean_linker_1, # of connection points: 2
#     Edge 22, Type (0, 0), BuildingBlock: KIFKEQ_clean_linker_1, # of connection points: 2
#     Edge 23, Type (0, 0), BuildingBlock: KIFKEQ_clean_linker_1, # of connection points: 2
#     Edge 24, Type (0, 0), BuildingBlock: KIFKEQ_clean_linker_1, # of connection points: 2
#     Edge 25, Type (0, 0), BuildingBlock: KIFKEQ_clean_linker_1, # of connection points: 2
#     Edge 26, Type (0, 0), BuildingBlock: KIFKEQ_clean_linker_1, # of connection points: 2
#     Edge 27, Type (0, 0), BuildingBlock: KIFKEQ_clean_linker_1, # of connection points: 2
#     Edge 28, Type (0, 0), BuildingBlock: KIFKEQ_clean_linker_1, # of connection points: 2
#     Edge 29, Type (0, 0), BuildingBlock: KIFKEQ_clean_linker_1, # of connection points: 2
#     Edge 30, Type (0, 0), BuildingBlock: KIFKEQ_clean_linker_1, # of connection points: 2
#     Edge 31, Type (0, 0), BuildingBlock: KIFKEQ_clean_linker_1, # of connection points: 2
#     Edge 32, Type (0, 0), BuildingBlock: KIFKEQ_clean_linker_1, # of connection points: 2
#     Edge 33, Type (0, 0), BuildingBlock: KIFKEQ_clean_linker_1, # of connection points: 2
#     Edge 34, Type (0, 0), BuildingBlock: KIFKEQ_clean_linker_1, # of connection points: 2
#     Edge 35, Type (0, 0), BuildingBlock: KIFKEQ_clean_linker_1, # of connection points: 2
#     Edge 36, Type (0, 0), BuildingBlock: KIFKEQ_clean_linker_1, # of connection points: 2
#     Edge 37, Type (0, 0), BuildingBlock: KIFKEQ_clean_linker_1, # of connection points: 2
#     Edge 38, Type (0, 0), BuildingBlock: KIFKEQ_clean_linker_1, # of connection points: 2
#     Edge 39, Type (0, 0), BuildingBlock: KIFKEQ_clean_linker_1, # of connection points: 2
#     Edge 40, Type (0, 0), BuildingBlock: KIFKEQ_clean_linker_1, # of connection points: 2
#     Edge 41, Type (0, 0), BuildingBlock: KIFKEQ_clean_linker_1, # of connection points: 2
#     Edge 42, Type (0, 0), BuildingBlock: KIFKEQ_clean_linker_1, # of connection points: 2
#     Edge 43, Type (0, 0), BuildingBlock: KIFKEQ_clean_linker_1, # of connection points: 2
#     Edge 44, Type (0, 0), BuildingBlock: KIFKEQ_clean_linker_1, # of connection points: 2
#     Edge 45, Type (0, 0), BuildingBlock: KIFKEQ_clean_linker_1, # of connection points: 2
#     Edge 46, Type (0, 0), BuildingBlock: KIFKEQ_clean_linker_1, # of connection points: 2
#     Edge 47, Type (0, 0), BuildingBlock: KIFKEQ_clean_linker_1, # of connection points: 2
#     Edge 48, Type (0, 0), BuildingBlock: KIFKEQ_clean_linker_1, # of connection points: 2
#     Edge 49, Type (0, 0), BuildingBlock: KIFKEQ_clean_linker_1, # of connection points: 2
#     Edge 50, Type (0, 0), BuildingBlock: KIFKEQ_clean_linker_1, # of connection points: 2
#     Edge 51, Type (0, 0), BuildingBlock: KIFKEQ_clean_linker_1, # of connection points: 2
#     Edge 52, Type (0, 0), BuildingBlock: KIFKEQ_clean_linker_1, # of connection points: 2
#     Edge 53, Type (0, 0), BuildingBlock: KIFKEQ_clean_linker_1, # of connection points: 2
#     Edge 54, Type (0, 0), BuildingBlock: KIFKEQ_clean_linker_1, # of connection points: 2
#     Edge 55, Type (0, 0), BuildingBlock: KIFKEQ_clean_linker_1, # of connection points: 2
# Relax obj value: 0.171
# Max RMSD: 0.173
# Mean RMSD: 0.165
data_MOF--net-zfo--node1-BEQFEK_clean_sbu_0--edge1-KIFKEQ_clean_linker_1
_symmetry_space_group_name_H-M    P1
_symmetry_Int_Tables_number       1
_symmetry_cell_setting            triclinic
loop_
_symmetry_equiv_pos_as_xyz
'x, y, z'
_cell_length_a     33.23061
_cell_length_b     33.217102
_cell_length_c     67.413276
_cell_angle_alpha  90.040673
_cell_angle_beta   89.972213
_cell_angle_gamma 90.042799
loop_
_atom_site_label
_atom_site_type_symbol
_atom_site_fract_x
_atom_site_fract_y
_atom_site_fract_z
_atom_type_partial_charge
Co0 Co 0.10818 0.20129 0.09671 0.0
Co1 Co 0.10783 0.20478 0.14347 0.0
C2 C 0.05636 0.25979 0.11968 0.0
O3 O 0.06798 0.24399 0.10341 0.0
O4 O 0.07058 0.24846 0.13627 0.0
C5 C 0.11676 0.23333 0.05715 0.0
O6 O 0.11094 0.26802 0.06607 0.0
C7 C 0.12339 0.23787 0.18323 0.0
C8 C 0.12868 0.18242 0.2011 0.0
C9 C 0.13227 0.22398 0.20222 0.0
N10 N 0.11573 0.20592 0.17154 0.0
N11 N 0.1181 0.17296 0.18241 0.0
C12 C 0.12654 0.28006 0.17557 0.0
H13 H 0.12925 0.28011 0.15916 0.0
H14 H 0.15291 0.29562 0.18216 0.0
H15 H 0.09896 0.2969 0.17972 0.0
C16 C 0.19623 0.20504 0.10384 0.0
N17 N 0.1579 0.20715 0.11036 0.0
N18 N 0.15787 0.20886 0.12987 0.0
C19 C 0.19624 0.20841 0.13638 0.0
C20 C 0.22185 0.2056 0.12014 0.0
C21 C 0.20752 0.19795 0.08263 0.0
H22 H 0.18839 0.17372 0.07634 0.0
H23 H 0.20185 0.22581 0.07401 0.0
H24 H 0.23959 0.1893 0.08104 0.0
O25 O 0.08407 0.149 0.10393 0.0
O26 O 0.08153 0.15258 0.13686 0.0
H27 H 0.19611 0.18434 0.16585 0.0
H28 H 0.24113 0.2125 0.15984 0.0
C29 C 0.20812 0.21083 0.15778 0.0
H30 H 0.19516 0.23837 0.16435 0.0
H31 H 0.11415 0.14388 0.17687 0.0
O32 O 0.11697 0.20125 0.06744 0.0
C33 C 0.07446 0.134 0.12067 0.0
Co34 Co 0.7983 0.10278 0.59665 0.0
Co35 Co 0.79208 0.10413 0.64332 0.0
C36 C 0.73913 0.05097 0.61952 0.0
O37 O 0.75552 0.06256 0.6034 0.0
O38 O 0.74963 0.06554 0.63617 0.0
C39 C 0.76936 0.12493 0.55772 0.0
O40 O 0.73828 0.13931 0.56747 0.0
C41 C 0.759 0.11675 0.68363 0.0
C42 C 0.81293 0.13853 0.69949 0.0
C43 C 0.77183 0.13278 0.70164 0.0
N44 N 0.7908 0.11478 0.67127 0.0
N45 N 0.82306 0.12693 0.68103 0.0
C46 C 0.71757 0.10295 0.67815 0.0
H47 H 0.71944 0.0743 0.66983 0.0
H48 H 0.7032 0.12571 0.66842 0.0
H49 H 0.69866 0.09788 0.69148 0.0
C50 C 0.79576 0.19164 0.60337 0.0
N51 N 0.792 0.15324 0.6097 0.0
N52 N 0.78661 0.15332 0.62905 0.0
C53 C 0.78473 0.19172 0.63545 0.0
C54 C 0.79124 0.21728 0.61951 0.0
C55 C 0.80911 0.20333 0.58296 0.0
H56 H 0.82759 0.1791 0.57628 0.0
H57 H 0.78225 0.20847 0.57354 0.0
H58 H 0.82691 0.23161 0.58333 0.0
O59 O 0.85039 0.07981 0.6045 0.0
O60 O 0.84547 0.07894 0.63741 0.0
H61 H 0.80315 0.20021 0.66556 0.0
H62 H 0.76576 0.23573 0.65725 0.0
C63 C 0.77576 0.20393 0.65637 0.0
H64 H 0.75145 0.18477 0.6624 0.0
H65 H 0.85172 0.12908 0.67477 0.0
O66 O 0.79813 0.10882 0.56728 0.0
C67 C 0.8649 0.0715 0.62149 0.0
Co68 Co 0.89716 0.79913 0.0959 0.0
Co69 Co 0.89571 0.79656 0.14267 0.0
C70 C 0.9507 0.74371 0.11896 0.0
O71 O 0.93882 0.75814 0.10248 0.0
O72 O 0.93591 0.7555 0.13536 0.0
C73 C 0.8931 0.7681 0.05612 0.0
O74 O 0.90183 0.73382 0.06481 0.0
C75 C 0.87658 0.76048 0.18142 0.0
C76 C 0.87088 0.8145 0.20032 0.0
C77 C 0.86595 0.773 0.20046 0.0
N78 N 0.88595 0.7932 0.17057 0.0
N79 N 0.88317 0.82528 0.18207 0.0
C80 C 0.87849 0.71838 0.1735 0.0
H81 H 0.90007 0.71635 0.16106 0.0
H82 H 0.84851 0.70943 0.16777 0.0
H83 H 0.88772 0.69704 0.18531 0.0
C84 C 0.80939 0.78676 0.1022 0.0
N85 N 0.84745 0.78961 0.10904 0.0
N86 N 0.84677 0.78955 0.12858 0.0
C87 C 0.80826 0.78697 0.13475 0.0
C88 C 0.78346 0.78463 0.11829 0.0
C89 C 0.79825 0.78712 0.08071 0.0
H90 H 0.81335 0.76165 0.07311 0.0
H91 H 0.76526 0.78447 0.07857 0.0
H92 H 0.80917 0.81543 0.07382 0.0
O93 O 0.91836 0.85264 0.10377 0.0
O94 O 0.91889 0.85021 0.13675 0.0
H95 H 0.76231 0.79951 0.15678 0.0
H96 H 0.7998 0.76345 0.16398 0.0
C97 C 0.79476 0.79192 0.15582 0.0
H98 H 0.81209 0.81633 0.16302 0.0
H99 H 0.88823 0.85471 0.17725 0.0
O100 O 0.88929 0.79965 0.06665 0.0
C101 C 0.92601 0.86866 0.12055 0.0
Co102 Co 0.19749 0.89213 0.59707 0.0
Co103 Co 0.20282 0.89175 0.64384 0.0
C104 C 0.25679 0.94382 0.61961 0.0
O105 O 0.24076 0.93186 0.60346 0.0
O106 O 0.24547 0.93003 0.6363 0.0
C107 C 0.2294 0.88102 0.55789 0.0
O108 O 0.26405 0.88392 0.56717 0.0
C109 C 0.23635 0.87856 0.68398 0.0
C110 C 0.18193 0.85992 0.70039 0.0
C111 C 0.22331 0.86371 0.70219 0.0
N112 N 0.20433 0.88176 0.67185 0.0
N113 N 0.17182 0.87145 0.68192 0.0
C114 C 0.27827 0.88991 0.67808 0.0
H115 H 0.2776 0.91758 0.66899 0.0
H116 H 0.29159 0.86546 0.66898 0.0
H117 H 0.29746 0.89565 0.69124 0.0
C118 C 0.20137 0.80408 0.60383 0.0
N119 N 0.20399 0.84237 0.61038 0.0
N120 N 0.20782 0.84227 0.62981 0.0
C121 C 0.20907 0.80383 0.63617 0.0
C122 C 0.20428 0.77837 0.62001 0.0
C123 C 0.1915 0.79285 0.58288 0.0
H124 H 0.16812 0.81343 0.57699 0.0
H125 H 0.21889 0.79624 0.57361 0.0
H126 H 0.18054 0.76139 0.58175 0.0
O127 O 0.14545 0.91573 0.60491 0.0
O128 O 0.1497 0.91699 0.63784 0.0
H129 H 0.18778 0.79724 0.66593 0.0
H130 H 0.22361 0.75924 0.65853 0.0
C131 C 0.21557 0.79153 0.65728 0.0
H132 H 0.2405 0.80933 0.66369 0.0
H133 H 0.1429 0.87053 0.6759 0.0
O134 O 0.19699 0.88362 0.56784 0.0
C135 C 0.13064 0.92435 0.62183 0.0
Co136 Co 0.60326 0.29717 0.92056 0.0
Co137 Co 0.60371 0.29698 0.87376 0.0
C138 C 0.5499 0.24222 0.89764 0.0
O139 O 0.56263 0.25519 0.91427 0.0
O140 O 0.56355 0.2558 0.88133 0.0
C141 C 0.60987 0.26627 0.96021 0.0
O142 O 0.60127 0.23189 0.95153 0.0
C143 C 0.6231 0.25923 0.8356 0.0
C144 C 0.62494 0.31148 0.8154 0.0
C145 C 0.63192 0.27031 0.81615 0.0
N146 N 0.61265 0.29245 0.84582 0.0
N147 N 0.61321 0.32347 0.83358 0.0
C148 C 0.62391 0.21791 0.84449 0.0
H149 H 0.65458 0.2113 0.85008 0.0
H150 H 0.61549 0.1949 0.83329 0.0
H151 H 0.60303 0.21588 0.85721 0.0
C152 C 0.69105 0.28677 0.91357 0.0
N153 N 0.65278 0.28919 0.90699 0.0
N154 N 0.653 0.29023 0.88746 0.0
C155 C 0.6914 0.28904 0.88104 0.0
C156 C 0.71664 0.28629 0.89731 0.0
C157 C 0.70269 0.28586 0.93499 0.0
H158 H 0.68764 0.26002 0.94231 0.0
H159 H 0.73571 0.28294 0.93692 0.0
H160 H 0.69212 0.31382 0.94234 0.0
O161 O 0.57981 0.34988 0.91295 0.0
O162 O 0.58097 0.35074 0.87993 0.0
H163 H 0.73606 0.3061 0.85914 0.0
H164 H 0.70136 0.26765 0.8515 0.0
C165 C 0.70426 0.29603 0.86001 0.0
H166 H 0.68509 0.31938 0.85311 0.0
H167 H 0.60686 0.35303 0.83779 0.0
O168 O 0.61242 0.29797 0.94972 0.0
C169 C 0.57262 0.36737 0.89649 0.0
Co170 Co 0.70088 0.60412 0.41995 0.0
Co171 Co 0.69839 0.60894 0.37331 0.0
C172 C 0.75515 0.55377 0.39525 0.0
O173 O 0.74428 0.5657 0.41239 0.0
O174 O 0.73914 0.56802 0.37966 0.0
C175 C 0.73241 0.61766 0.45927 0.0
O176 O 0.76631 0.62508 0.44993 0.0
C177 C 0.73506 0.62936 0.33494 0.0
C178 C 0.68181 0.63471 0.31555 0.0
C179 C 0.72328 0.63974 0.31576 0.0
N180 N 0.70198 0.61992 0.3455 0.0
N181 N 0.67034 0.62259 0.33373 0.0
C182 C 0.77686 0.62783 0.34323 0.0
H183 H 0.77856 0.60702 0.35596 0.0
H184 H 0.78562 0.65813 0.34863 0.0
H185 H 0.7986 0.61795 0.33171 0.0
C186 C 0.70817 0.69356 0.41471 0.0
N187 N 0.70666 0.65554 0.40756 0.0
N188 N 0.70583 0.65702 0.38803 0.0
C189 C 0.70698 0.69578 0.38219 0.0
C190 C 0.709 0.72004 0.39882 0.0
C191 C 0.70737 0.70445 0.43624 0.0
H192 H 0.73738 0.6985 0.44277 0.0
H193 H 0.70025 0.73675 0.43846 0.0
H194 H 0.68479 0.68574 0.4441 0.0
O195 O 0.64827 0.58002 0.41226 0.0
O196 O 0.64494 0.58593 0.37941 0.0
H197 H 0.69355 0.74236 0.36063 0.0
H198 H 0.72936 0.70511 0.3528 0.0
C199 C 0.70122 0.70988 0.36128 0.0
H200 H 0.67659 0.69266 0.35418 0.0
H201 H 0.64078 0.61728 0.33828 0.0
O202 O 0.70114 0.60873 0.44933 0.0
C203 C 0.6296 0.57508 0.3959 0.0
Co204 Co 0.3932 0.70274 0.92169 0.0
Co205 Co 0.39199 0.70277 0.87488 0.0
C206 C 0.44469 0.75904 0.89852 0.0
O207 O 0.43228 0.74609 0.91521 0.0
O208 O 0.43142 0.74463 0.88231 0.0
C209 C 0.38703 0.73323 0.96152 0.0
O210 O 0.39491 0.76786 0.95294 0.0
C211 C 0.37232 0.73964 0.8365 0.0
C212 C 0.36949 0.68661 0.81678 0.0
C213 C 0.36298 0.72788 0.8172 0.0
N214 N 0.38258 0.70671 0.84696 0.0
N215 N 0.38144 0.67522 0.835 0.0
C216 C 0.3722 0.78133 0.845 0.0
H217 H 0.3934 0.78368 0.85756 0.0
H218 H 0.34174 0.78854 0.85071 0.0
H219 H 0.38063 0.80376 0.83353 0.0
C220 C 0.30511 0.71173 0.91507 0.0
N221 N 0.34331 0.7095 0.90835 0.0
N222 N 0.34286 0.70871 0.88882 0.0
C223 C 0.30441 0.71 0.88253 0.0
C224 C 0.27939 0.71247 0.89889 0.0
C225 C 0.29366 0.71247 0.93652 0.0
H226 H 0.30793 0.73888 0.94374 0.0
H227 H 0.26057 0.71426 0.93852 0.0
H228 H 0.30525 0.68497 0.94389 0.0
O229 O 0.418 0.65058 0.91393 0.0
O230 O 0.41577 0.64958 0.88093 0.0
H231 H 0.30977 0.68037 0.85436 0.0
H232 H 0.2592 0.69486 0.86058 0.0
C233 C 0.29126 0.70402 0.86148 0.0
H234 H 0.29493 0.73256 0.85319 0.0
H235 H 0.38754 0.64576 0.83944 0.0
O236 O 0.38464 0.70165 0.95091 0.0
C237 C 0.42502 0.6332 0.8974 0.0
Co238 Co 0.29343 0.39625 0.41952 0.0
Co239 Co 0.29346 0.39548 0.37281 0.0
C240 C 0.23575 0.44639 0.39607 0.0
O241 O 0.2498 0.4347 0.41266 0.0
O242 O 0.24946 0.43289 0.37975 0.0
C243 C 0.26264 0.38105 0.45906 0.0
O244 O 0.22823 0.37463 0.45 0.0
C245 C 0.25923 0.37533 0.33405 0.0
C246 C 0.3124 0.37871 0.31445 0.0
C247 C 0.27172 0.36915 0.31457 0.0
N248 N 0.29111 0.38742 0.3448 0.0
N249 N 0.32264 0.39006 0.33293 0.0
C250 C 0.21895 0.36631 0.34296 0.0
H251 H 0.22135 0.36346 0.35932 0.0
H252 H 0.20633 0.33817 0.33661 0.0
H253 H 0.19804 0.39141 0.33958 0.0
C254 C 0.28838 0.30732 0.41259 0.0
N255 N 0.28863 0.34579 0.40608 0.0
N256 N 0.28922 0.3457 0.38653 0.0
C257 C 0.28954 0.3073 0.38004 0.0
C258 C 0.28848 0.28183 0.39626 0.0
C259 C 0.28868 0.29532 0.43397 0.0
H260 H 0.31193 0.31281 0.44204 0.0
H261 H 0.25896 0.30231 0.44059 0.0
H262 H 0.29445 0.26268 0.43585 0.0
O263 O 0.34526 0.42197 0.41227 0.0
O264 O 0.34567 0.42122 0.37928 0.0
H265 H 0.31747 0.31508 0.35157 0.0
H266 H 0.30699 0.2635 0.35784 0.0
C267 C 0.29559 0.29482 0.35889 0.0
H268 H 0.26648 0.29634 0.35093 0.0
H269 H 0.35146 0.39822 0.33761 0.0
O270 O 0.29368 0.38972 0.44888 0.0
C271 C 0.3622 0.43007 0.39578 0.0
Co272 Co 0.92172 0.78516 0.86862 0.0
Co273 Co 0.83903 0.83047 0.87121 0.0
C274 C 0.87625 0.79213 0.90698 0.0
O275 O 0.90578 0.77926 0.89683 0.0
O276 O 0.8483 0.81241 0.8989 0.0
C277 C 0.98173 0.7264 0.87753 0.0
O278 O 0.9553 0.71428 0.89073 0.0
C279 C 0.75332 0.83825 0.87994 0.0
C280 C 0.73353 0.88599 0.85935 0.0
C281 C 0.71957 0.85898 0.87342 0.0
N282 N 0.78553 0.85168 0.86986 0.0
N283 N 0.77363 0.88063 0.85777 0.0
C284 C 0.75576 0.80727 0.89604 0.0
H285 H 0.77531 0.81893 0.90802 0.0
H286 H 0.76974 0.7794 0.89012 0.0
H287 H 0.72619 0.80039 0.90279 0.0
C288 C 0.88096 0.74605 0.83452 0.0
N289 N 0.88057 0.76962 0.85081 0.0
N290 N 0.84538 0.78753 0.85228 0.0
C291 C 0.82176 0.77485 0.83724 0.0
C292 C 0.84362 0.74858 0.82524 0.0
C293 C 0.91808 0.72594 0.82677 0.0
H294 H 0.94474 0.74519 0.8296 0.0
H295 H 0.92246 0.69707 0.83476 0.0
H296 H 0.91591 0.7198 0.81064 0.0
O297 O 0.93592 0.84185 0.86363 0.0
O298 O 0.87788 0.8749 0.86542 0.0
H299 H 0.77821 0.81925 0.82915 0.0
H300 H 0.76305 0.76813 0.82363 0.0
C301 C 0.77896 0.78765 0.83443 0.0
H302 H 0.76282 0.78591 0.84877 0.0
H303 H 0.79269 0.89598 0.84807 0.0
O304 O 0.97207 0.75402 0.86537 0.0
C305 C 0.91592 0.87448 0.86281 0.0
Co306 Co 0.21754 0.91885 0.37193 0.0
Co307 Co 0.168 0.83823 0.37208 0.0
C308 C 0.20947 0.86899 0.40875 0.0
O309 O 0.22422 0.89878 0.39939 0.0
O310 O 0.18694 0.84352 0.40003 0.0
C311 C 0.27355 0.98143 0.38247 0.0
O312 O 0.28194 0.95773 0.39749 0.0
C313 C 0.15445 0.7524 0.3789 0.0
C314 C 0.10629 0.73773 0.3575 0.0
C315 C 0.13109 0.72099 0.37179 0.0
N316 N 0.14382 0.78628 0.36939 0.0
N317 N 0.11462 0.77744 0.35679 0.0
C318 C 0.1893 0.7496 0.39289 0.0
H319 H 0.2127 0.77197 0.38883 0.0
H320 H 0.20259 0.71896 0.39278 0.0
H321 H 0.17867 0.75638 0.40814 0.0
C322 C 0.25427 0.8801 0.33655 0.0
N323 N 0.23046 0.87915 0.35274 0.0
N324 N 0.21063 0.84482 0.35315 0.0
C325 C 0.22183 0.82251 0.33736 0.0
C326 C 0.24954 0.8442 0.32613 0.0
C327 C 0.27713 0.9167 0.33014 0.0
H328 H 0.25806 0.94382 0.33206 0.0
H329 H 0.30396 0.92029 0.33977 0.0
H330 H 0.2869 0.91463 0.31444 0.0
O331 O 0.16111 0.93589 0.36853 0.0
O332 O 0.12548 0.87935 0.36732 0.0
H333 H 0.17445 0.78366 0.32768 0.0
H334 H 0.22429 0.76573 0.32155 0.0
C335 C 0.20595 0.78128 0.33297 0.0
H336 H 0.2063 0.76291 0.34666 0.0
H337 H 0.10124 0.79828 0.34729 0.0
O338 O 0.24954 0.96911 0.36908 0.0
C339 C 0.12762 0.91766 0.3667 0.0
Co340 Co 0.07782 0.21919 0.8705 0.0
Co341 Co 0.15857 0.17053 0.87104 0.0
C342 C 0.1262 0.21004 0.90783 0.0
O343 O 0.09623 0.22406 0.89837 0.0
O344 O 0.15269 0.18881 0.89909 0.0
C345 C 0.01628 0.27572 0.88102 0.0
O346 O 0.0409 0.2848 0.89559 0.0
C347 C 0.24435 0.15991 0.87784 0.0
C348 C 0.25989 0.10839 0.85858 0.0
C349 C 0.27607 0.13585 0.87183 0.0
N350 N 0.21077 0.14715 0.86874 0.0
N351 N 0.22011 0.11602 0.8574 0.0
C352 C 0.24639 0.19661 0.89069 0.0
H353 H 0.22282 0.21848 0.88626 0.0
H354 H 0.27646 0.21105 0.88972 0.0
H355 H 0.24098 0.1877 0.90633 0.0
C356 C 0.11832 0.25942 0.83662 0.0
N357 N 0.1184 0.23399 0.85218 0.0
N358 N 0.15242 0.2137 0.85235 0.0
C359 C 0.17519 0.22581 0.83686 0.0
C360 C 0.15434 0.25519 0.82632 0.0
C361 C 0.08355 0.28587 0.83133 0.0
H362 H 0.07203 0.30095 0.84488 0.0
H363 H 0.09224 0.30891 0.82021 0.0
H364 H 0.05891 0.267 0.82523 0.0
O365 O 0.06126 0.16293 0.86548 0.0
O366 O 0.11801 0.12771 0.86589 0.0
H367 H 0.22582 0.21798 0.81678 0.0
H368 H 0.23648 0.21054 0.8428 0.0
C369 C 0.21383 0.206 0.83094 0.0
H370 H 0.20874 0.1732 0.82923 0.0
H371 H 0.19951 0.10059 0.84853 0.0
O372 O 0.02773 0.25112 0.8677 0.0
C373 C 0.07987 0.12958 0.86407 0.0
Co374 Co 0.78218 0.07968 0.37145 0.0
Co375 Co 0.83058 0.16058 0.37259 0.0
C376 C 0.78805 0.12853 0.40861 0.0
O377 O 0.77521 0.09821 0.39903 0.0
O378 O 0.80949 0.15526 0.40019 0.0
C379 C 0.72414 0.0189 0.38111 0.0
O380 O 0.71375 0.04417 0.3952 0.0
C381 C 0.8356 0.24728 0.37672 0.0
C382 C 0.89775 0.26141 0.36738 0.0
C383 C 0.8626 0.27861 0.37442 0.0
N384 N 0.8537 0.21297 0.37121 0.0
N385 N 0.89096 0.22149 0.36573 0.0
C386 C 0.79382 0.24954 0.38496 0.0
H387 H 0.77764 0.22067 0.38269 0.0
H388 H 0.77679 0.27429 0.37782 0.0
H389 H 0.79546 0.25616 0.40108 0.0
C390 C 0.74607 0.11854 0.33613 0.0
N391 N 0.7693 0.11976 0.3525 0.0
N392 N 0.7897 0.15375 0.35278 0.0
C393 C 0.78005 0.17532 0.3365 0.0
C394 C 0.7521 0.15373 0.32533 0.0
C395 C 0.72281 0.08207 0.32991 0.0
H396 H 0.7427 0.05528 0.33047 0.0
H397 H 0.69788 0.07699 0.34058 0.0
H398 H 0.71036 0.08512 0.31473 0.0
O399 O 0.83877 0.06319 0.36809 0.0
O400 O 0.874 0.12006 0.36834 0.0
H401 H 0.83148 0.21288 0.33141 0.0
H402 H 0.78757 0.22715 0.31709 0.0
C403 C 0.79819 0.21536 0.33153 0.0
H404 H 0.7896 0.23741 0.34308 0.0
H405 H 0.9118 0.20007 0.36094 0.0
O406 O 0.75023 0.02964 0.36835 0.0
C407 C 0.8722 0.08179 0.36705 0.0
Co408 Co 0.42338 0.71418 0.148 0.0
Co409 Co 0.34173 0.66685 0.14693 0.0
C410 C 0.37549 0.70606 0.11047 0.0
O411 O 0.40556 0.71936 0.12011 0.0
O412 O 0.34841 0.68522 0.119 0.0
C413 C 0.48467 0.77117 0.13783 0.0
O414 O 0.45911 0.78171 0.12393 0.0
C415 C 0.25591 0.65819 0.13966 0.0
C416 C 0.23874 0.6066 0.15852 0.0
C417 C 0.2235 0.63468 0.14534 0.0
N418 N 0.28898 0.64452 0.14888 0.0
N419 N 0.27866 0.61337 0.15999 0.0
C420 C 0.25501 0.69525 0.12706 0.0
H421 H 0.27911 0.7164 0.1317 0.0
H422 H 0.22534 0.71045 0.12807 0.0
H423 H 0.26032 0.68662 0.11138 0.0
C424 C 0.38267 0.75534 0.18152 0.0
N425 N 0.38266 0.72965 0.16605 0.0
N426 N 0.34826 0.70995 0.16565 0.0
C427 C 0.32515 0.72277 0.18087 0.0
C428 C 0.34618 0.75196 0.19147 0.0
C429 C 0.41773 0.78128 0.18703 0.0
H430 H 0.42965 0.79636 0.17358 0.0
H431 H 0.40921 0.8043 0.19821 0.0
H432 H 0.44201 0.76202 0.19314 0.0
O433 O 0.43879 0.65769 0.15305 0.0
O434 O 0.38148 0.62329 0.15218 0.0
H435 H 0.27373 0.71624 0.20055 0.0
H436 H 0.26365 0.70921 0.17445 0.0
C437 C 0.2858 0.70397 0.18647 0.0
H438 H 0.28988 0.67104 0.18814 0.0
H439 H 0.29868 0.59731 0.16888 0.0
O440 O 0.47391 0.74552 0.1508 0.0
C441 C 0.4196 0.6246 0.15425 0.0
Co442 Co 0.2802 0.42281 0.64601 0.0
Co443 Co 0.32659 0.34021 0.6439 0.0
C444 C 0.28646 0.37605 0.60808 0.0
O445 O 0.27453 0.40624 0.618 0.0
O446 O 0.30648 0.348 0.61626 0.0
C447 C 0.22047 0.48118 0.6366 0.0
O448 O 0.21009 0.45441 0.62321 0.0
C449 C 0.33825 0.25485 0.63447 0.0
C450 C 0.37899 0.23412 0.6582 0.0
C451 C 0.3563 0.22067 0.64228 0.0
N452 N 0.34866 0.28678 0.64562 0.0
N453 N 0.37376 0.27432 0.65954 0.0
C454 C 0.31365 0.25788 0.61594 0.0
H455 H 0.32832 0.27964 0.6058 0.0
H456 H 0.28314 0.26923 0.61962 0.0
H457 H 0.31144 0.22891 0.60788 0.0
C458 C 0.24252 0.38265 0.68062 0.0
N459 N 0.26584 0.38181 0.66425 0.0
N460 N 0.28433 0.34682 0.66315 0.0
C461 C 0.27238 0.32389 0.67861 0.0
C462 C 0.24596 0.34593 0.69041 0.0
C463 C 0.2217 0.41979 0.68788 0.0
H464 H 0.2418 0.44621 0.68603 0.0
H465 H 0.19444 0.42501 0.67874 0.0
H466 H 0.21284 0.41725 0.70369 0.0
O467 O 0.33671 0.4381 0.65012 0.0
O468 O 0.37058 0.38039 0.64911 0.0
H469 H 0.31697 0.28224 0.68852 0.0
H470 H 0.26594 0.26577 0.69271 0.0
C471 C 0.28618 0.28166 0.68221 0.0
H472 H 0.28674 0.26477 0.66804 0.0
H473 H 0.38608 0.29296 0.67041 0.0
O474 O 0.2478 0.47255 0.6491 0.0
C475 C 0.36966 0.41866 0.65099 0.0
Co476 Co 0.5797 0.28056 0.14682 0.0
Co477 Co 0.6618 0.32772 0.14569 0.0
C478 C 0.62753 0.29002 0.10912 0.0
O479 O 0.59747 0.27694 0.11885 0.0
O480 O 0.65516 0.31015 0.11763 0.0
C481 C 0.51992 0.22284 0.13586 0.0
O482 O 0.54611 0.21395 0.12195 0.0
C483 C 0.74787 0.33762 0.13856 0.0
C484 C 0.76427 0.38807 0.15834 0.0
C485 C 0.78003 0.36101 0.14476 0.0
N486 N 0.71451 0.35037 0.1479 0.0
N487 N 0.72439 0.38087 0.15955 0.0
C488 C 0.74927 0.30139 0.12538 0.0
H489 H 0.72538 0.27968 0.12965 0.0
H490 H 0.77911 0.28648 0.12617 0.0
H491 H 0.74392 0.31095 0.10984 0.0
C492 C 0.62059 0.23907 0.18006 0.0
N493 N 0.62072 0.26469 0.16459 0.0
N494 N 0.65531 0.28406 0.16409 0.0
C495 C 0.67847 0.27094 0.17921 0.0
C496 C 0.65723 0.24203 0.18987 0.0
C497 C 0.58511 0.21396 0.18586 0.0
H498 H 0.56081 0.23396 0.19138 0.0
H499 H 0.57346 0.19786 0.17263 0.0
H500 H 0.59304 0.19182 0.19754 0.0
O501 O 0.56419 0.33673 0.15249 0.0
O502 O 0.62164 0.37094 0.15127 0.0
H503 H 0.71402 0.322 0.18724 0.0
H504 H 0.73085 0.27569 0.19836 0.0
C505 C 0.71807 0.28928 0.18474 0.0
H506 H 0.73963 0.28522 0.17235 0.0
H507 H 0.70411 0.39614 0.16865 0.0
O508 O 0.52949 0.24817 0.14923 0.0
C509 C 0.58357 0.36972 0.15365 0.0
Co510 Co 0.71768 0.57544 0.64578 0.0
Co511 Co 0.67045 0.65748 0.64424 0.0
C512 C 0.71032 0.6239 0.60816 0.0
O513 O 0.72273 0.59375 0.61798 0.0
O514 O 0.68986 0.65157 0.61643 0.0
C515 C 0.77563 0.51562 0.63491 0.0
O516 O 0.78422 0.54128 0.62071 0.0
C517 C 0.65843 0.7434 0.63681 0.0
C518 C 0.60945 0.75923 0.65753 0.0
C519 C 0.63511 0.77529 0.64339 0.0
N520 N 0.64694 0.7099 0.64645 0.0
N521 N 0.61729 0.71946 0.65867 0.0
C522 C 0.69407 0.7455 0.62327 0.0
H523 H 0.71626 0.72186 0.62717 0.0
H524 H 0.70875 0.77548 0.6241 0.0
H525 H 0.68386 0.74051 0.6078 0.0
C526 C 0.75441 0.61537 0.68092 0.0
N527 N 0.73143 0.61604 0.66443 0.0
N528 N 0.71287 0.65098 0.66327 0.0
C529 C 0.72441 0.67407 0.67872 0.0
C530 C 0.75065 0.65217 0.69067 0.0
C531 C 0.77534 0.57843 0.68831 0.0
H532 H 0.75745 0.55127 0.68459 0.0
H533 H 0.80498 0.57587 0.68083 0.0
H534 H 0.78013 0.57962 0.70458 0.0
O535 O 0.66148 0.55908 0.64986 0.0
O536 O 0.62716 0.61649 0.64922 0.0
H537 H 0.67889 0.71611 0.68728 0.0
H538 H 0.72956 0.73237 0.69296 0.0
C539 C 0.71049 0.71642 0.68198 0.0
H540 H 0.71179 0.7332 0.66782 0.0
H541 H 0.60317 0.69906 0.66815 0.0
O542 O 0.75043 0.52558 0.64825 0.0
C543 C 0.62839 0.57821 0.6509 0.0
H544 H 0.06869 0.0783 0.09101 0.0
H545 H 0.03227 0.10113 0.15152 0.0
H546 H 0.0324 0.01473 0.09148 0.0
H547 H 0.99447 0.03831 0.15174 0.0
H548 H 0.96467 0.90394 0.15184 0.0
H549 H 0.00104 0.96753 0.15213 0.0
H550 H 0.96656 0.98823 0.09115 0.0
H551 H 0.93168 0.92382 0.09063 0.0
C552 C 0.05273 0.06984 0.10439 0.0
C553 C 0.05337 0.09478 0.12122 0.0
C554 C 0.03161 0.03349 0.10461 0.0
C555 C 0.01014 0.02142 0.12159 0.0
C556 C 0.01105 0.04631 0.13849 0.0
C557 C 0.03261 0.08245 0.13834 0.0
C558 C 0.96468 0.92218 0.13852 0.0
C559 C 0.94545 0.90872 0.12117 0.0
C560 C 0.98542 0.95878 0.13871 0.0
C561 C 0.98702 0.98302 0.12163 0.0
C562 C 0.96679 0.96998 0.10445 0.0
C563 C 0.94649 0.93316 0.10418 0.0
H564 H 0.09679 0.96422 0.65328 0.0
H565 H 0.07466 0.92993 0.59241 0.0
H566 H 0.03325 0.00096 0.65387 0.0
H567 H 0.01068 0.96515 0.59321 0.0
H568 H 0.92167 0.06677 0.59241 0.0
H569 H 0.98567 0.03162 0.59335 0.0
H570 H 0.96169 0.99455 0.65367 0.0
H571 H 0.8981 0.03122 0.65296 0.0
C572 C 0.07814 0.96412 0.64011 0.0
C573 C 0.09093 0.94443 0.62275 0.0
C574 C 0.04162 0.98505 0.64046 0.0
C575 C 0.01694 0.98641 0.62352 0.0
C576 C 0.02933 0.96567 0.60638 0.0
C577 C 0.06594 0.94518 0.60595 0.0
C578 C 0.93009 0.05127 0.60592 0.0
C579 C 0.90468 0.05163 0.62257 0.0
C580 C 0.96672 0.03082 0.60641 0.0
C581 C 0.9787 0.00972 0.6235 0.0
C582 C 0.95363 0.01073 0.64032 0.0
C583 C 0.91708 0.03163 0.63989 0.0
H584 H 0.46727 0.59882 0.92765 0.0
H585 H 0.43055 0.57895 0.86695 0.0
H586 H 0.50438 0.53584 0.92723 0.0
H587 H 0.46622 0.5149 0.86677 0.0
H588 H 0.53261 0.4025 0.92728 0.0
H589 H 0.49615 0.46579 0.92732 0.0
H590 H 0.53119 0.48607 0.86635 0.0
H591 H 0.56625 0.42163 0.86608 0.0
C592 C 0.46667 0.58071 0.91429 0.0
C593 C 0.44591 0.59388 0.89734 0.0
C594 C 0.48785 0.54443 0.91406 0.0
C595 C 0.48834 0.52009 0.89697 0.0
C596 C 0.46717 0.53313 0.88008 0.0
C597 C 0.44641 0.56972 0.88023 0.0
C598 C 0.53271 0.42053 0.9139 0.0
C599 C 0.55237 0.40702 0.89668 0.0
C600 C 0.5119 0.45701 0.91394 0.0
C601 C 0.51067 0.48123 0.89685 0.0
C602 C 0.53084 0.46793 0.87969 0.0
C603 C 0.55123 0.43112 0.87956 0.0
H604 H 0.59544 0.53197 0.42599 0.0
H605 H 0.57395 0.57243 0.36602 0.0
H606 H 0.53152 0.49638 0.42578 0.0
H607 H 0.50911 0.5382 0.36607 0.0
H608 H 0.41524 0.43835 0.36499 0.0
H609 H 0.4797 0.4733 0.36511 0.0
H610 H 0.46135 0.50599 0.42656 0.0
H611 H 0.39784 0.46965 0.42663 0.0
C612 C 0.57682 0.5337 0.41284 0.0
C613 C 0.58981 0.55503 0.39602 0.0
C614 C 0.54 0.51341 0.41274 0.0
C615 C 0.515 0.51436 0.39591 0.0
C616 C 0.52784 0.53616 0.37917 0.0
C617 C 0.56491 0.55607 0.37918 0.0
C618 C 0.42506 0.45292 0.37854 0.0
C619 C 0.40148 0.45109 0.39582 0.0
C620 C 0.46191 0.47323 0.37858 0.0
C621 C 0.47582 0.4926 0.39584 0.0
C622 C 0.45204 0.49086 0.41309 0.0
C623 C 0.41546 0.47015 0.41311 0.0
H624 H 0.10464 0.05176 0.86926 0.0
H625 H 0.00144 0.12294 0.85234 0.0
H626 H 0.0641 0.9909 0.86707 0.0
H627 H 0.96125 0.06196 0.84936 0.0
H628 H 0.89069 0.95113 0.87113 0.0
H629 H 0.93036 0.01279 0.86965 0.0
H630 H 0.03072 0.94576 0.84566 0.0
H631 H 0.99162 0.88405 0.84792 0.0
C632 C 0.07346 0.05435 0.86475 0.0
C633 C 0.05624 0.09223 0.8611 0.0
C634 C 0.05018 0.01939 0.86338 0.0
C635 C 0.00924 0.0214 0.85809 0.0
C636 C 0.99241 0.05926 0.85385 0.0
C637 C 0.01557 0.09424 0.85544 0.0
C638 C 0.92108 0.94968 0.86535 0.0
C639 C 0.93811 0.91266 0.85982 0.0
C640 C 0.94385 0.98509 0.86442 0.0
C641 C 0.98399 0.98431 0.8577 0.0
C642 C 0.00031 0.94744 0.85137 0.0
C643 C 0.97775 0.91204 0.85253 0.0
H644 H 0.05321 0.89274 0.35411 0.0
H645 H 0.11807 0.99751 0.37469 0.0
H646 H 0.99191 0.93276 0.35177 0.0
H647 H 0.05674 0.03694 0.3733 0.0
H648 H 0.94709 0.10796 0.35577 0.0
H649 H 0.00863 0.0683 0.35321 0.0
H650 H 0.94333 0.96242 0.3722 0.0
H651 H 0.88184 0.00153 0.37379 0.0
C652 C 0.05434 0.92427 0.3582 0.0
C653 C 0.09048 0.94189 0.36462 0.0
C654 C 0.01914 0.94722 0.35697 0.0
C655 C 0.01914 0.98818 0.36244 0.0
C656 C 0.05554 0.00578 0.36862 0.0
C657 C 0.09078 0.98301 0.36956 0.0
C658 C 0.94594 0.07615 0.35926 0.0
C659 C 0.9096 0.05795 0.365 0.0
C660 C 0.98126 0.0534 0.35791 0.0
C661 C 0.98116 0.01204 0.36256 0.0
C662 C 0.94461 0.99391 0.36812 0.0
C663 C 0.90928 0.01649 0.36919 0.0
H664 H 0.50667 0.3777 0.16736 0.0
H665 H 0.60858 0.44704 0.1469 0.0
H666 H 0.46711 0.43902 0.17016 0.0
H667 H 0.56855 0.50826 0.14889 0.0
H668 H 0.49702 0.61682 0.16721 0.0
H669 H 0.53673 0.55556 0.16976 0.0
H670 H 0.43468 0.48605 0.14943 0.0
H671 H 0.39453 0.54722 0.14769 0.0
C672 C 0.52066 0.40609 0.16346 0.0
C673 C 0.56075 0.40746 0.15682 0.0
C674 C 0.49785 0.44127 0.16494 0.0
C675 C 0.51439 0.47869 0.15958 0.0
C676 C 0.55487 0.48014 0.15341 0.0
C677 C 0.57785 0.44497 0.15217 0.0
C678 C 0.48295 0.5884 0.16346 0.0
C679 C 0.44264 0.58692 0.15716 0.0
C680 C 0.50583 0.55325 0.16479 0.0
C681 C 0.48915 0.51576 0.15964 0.0
C682 C 0.44848 0.51423 0.15379 0.0
C683 C 0.42543 0.54937 0.15269 0.0
H684 H 0.38095 0.49866 0.64438 0.0
H685 H 0.44401 0.39115 0.66251 0.0
H686 H 0.44305 0.53669 0.64596 0.0
H687 H 0.50628 0.42982 0.66515 0.0
H688 H 0.61729 0.4983 0.64377 0.0
H689 H 0.55528 0.46001 0.64543 0.0
H690 H 0.4922 0.56619 0.66576 0.0
H691 H 0.55426 0.60509 0.66304 0.0
C692 C 0.40804 0.48324 0.64904 0.0
C693 C 0.40754 0.44177 0.65323 0.0
C694 C 0.44376 0.50523 0.65011 0.0
C695 C 0.47997 0.48655 0.65571 0.0
C696 C 0.47923 0.44518 0.66041 0.0
C697 C 0.44349 0.42298 0.65902 0.0
C698 C 0.59023 0.51349 0.6487 0.0
C699 C 0.59068 0.55485 0.65317 0.0
C700 C 0.55458 0.49136 0.6498 0.0
C701 C 0.51844 0.50981 0.65572 0.0
C702 C 0.51917 0.55103 0.66074 0.0
C703 C 0.55481 0.57336 0.65931 0.0
H704 H 0.13469 0.16746 0.03435 0.0
H705 H 0.11052 0.29502 0.03047 0.0
H706 H 0.14009 0.16396 0.99829 0.0
H707 H 0.11644 0.29155 0.99445 0.0
H708 H 0.07683 0.25613 0.93107 0.0
H709 H 0.07755 0.26292 0.96698 0.0
H710 H 0.18198 0.18588 0.97008 0.0
H711 H 0.18109 0.17862 0.93402 0.0
C712 C 0.13078 0.19481 0.02583 0.0
C713 C 0.12192 0.23148 0.03531 0.0
C714 C 0.13417 0.19285 1.00516 0.0
C715 C 0.12861 0.22746 0.99347 0.0
C716 C 0.12042 0.26424 1.00299 0.0
C717 C 0.11722 0.26625 0.02366 0.0
C718 C 0.10021 0.24086 0.93933 0.0
C719 C 0.12883 0.2167 0.92959 0.0
C720 C 0.10072 0.24494 0.95996 0.0
C721 C 0.12976 0.22487 0.97143 0.0
C722 C 0.15891 0.20136 0.96169 0.0
C723 C 0.15854 0.19742 0.94101 0.0
H724 H 0.76525 0.0673 0.43302 0.0
H725 H 0.79537 0.19394 0.43333 0.0
H726 H 0.75982 0.06823 0.46907 0.0
H727 H 0.78904 0.19478 0.46961 0.0
H728 H 0.72821 0.1764 0.53339 0.0
H729 H 0.73076 0.17958 0.49704 0.0
H730 H 0.81623 0.08188 0.49641 0.0
H731 H 0.81446 0.07915 0.53261 0.0
C732 C 0.77014 0.0955 0.44073 0.0
C733 C 0.7809 0.13055 0.43029 0.0
C734 C 0.76724 0.0959 0.46138 0.0
C735 C 0.77425 0.13149 0.47205 0.0
C736 C 0.78343 0.16699 0.46166 0.0
C737 C 0.78713 0.16645 0.44095 0.0
C738 C 0.74759 0.15569 0.52547 0.0
C739 C 0.77106 0.12745 0.53583 0.0
C740 C 0.74916 0.15767 0.50473 0.0
C741 C 0.77354 0.13086 0.49401 0.0
C742 C 0.79699 0.10269 0.50436 0.0
C743 C 0.79607 0.10126 0.52506 0.0
H744 H 0.82385 0.82341 0.93437 0.0
H745 H 0.92802 0.74629 0.92906 0.0
H746 H 0.82547 0.81553 0.97025 0.0
H747 H 0.93023 0.73934 0.965 0.0
H748 H 0.90143 0.70696 0.02921 0.0
H749 H 0.8947 0.71057 0.99323 0.0
H750 H 0.86762 0.83745 0.99763 0.0
H751 H 0.87357 0.83371 0.03359 0.0
C752 C 0.84687 0.80446 0.94079 0.0
C753 C 0.87569 0.78536 0.92875 0.0
C754 C 0.84805 0.80029 0.96142 0.0
C755 C 0.87808 0.77696 0.97053 0.0
C756 C 0.90641 0.75718 0.95847 0.0
C757 C 0.90525 0.76136 0.93784 0.0
C758 C 0.89386 0.7356 0.02251 0.0
C759 C 0.88813 0.77007 0.03429 0.0
C760 C 0.89022 0.7377 1.00187 0.0
C761 C 0.88067 0.7743 0.99253 0.0
C762 C 0.87448 0.80866 1.00434 0.0
C763 C 0.87817 0.80657 0.02498 0.0
H764 H 0.1747 0.81626 0.43499 0.0
H765 H 0.25918 0.91508 0.43181 0.0
H766 H 0.18127 0.81568 0.47106 0.0
H767 H 0.26528 0.9147 0.46776 0.0
H768 H 0.29249 0.88188 0.53183 0.0
H769 H 0.29013 0.87473 0.49583 0.0
H770 H 0.16105 0.86054 0.49857 0.0
H771 H 0.16339 0.86722 0.53458 0.0
C772 C 0.19496 0.83759 0.44192 0.0
C773 C 0.21629 0.86582 0.43045 0.0
C774 C 0.19849 0.83743 0.46262 0.0
C775 C 0.22363 0.86528 0.47229 0.0
C776 C 0.24594 0.89259 0.46077 0.0
C777 C 0.24227 0.89291 0.44013 0.0
C778 C 0.26362 0.87702 0.52478 0.0
C779 C 0.2281 0.87534 0.53609 0.0
C780 C 0.26227 0.87309 0.50413 0.0
C781 C 0.2254 0.86714 0.49432 0.0
C782 C 0.18998 0.86464 0.50568 0.0
C783 C 0.1913 0.86879 0.52632 0.0
H784 H 0.57495 0.24653 0.08647 0.0
H785 H 0.68288 0.31882 0.08237 0.0
H786 H 0.57389 0.23952 0.05062 0.0
H787 H 0.68196 0.31131 0.0463 0.0
H788 H 0.63232 0.33142 0.98252 0.0
H789 H 0.63993 0.33497 0.01847 0.0
H790 H 0.61022 0.2087 0.02299 0.0
H791 H 0.60202 0.20522 0.9871 0.0
C792 C 0.59876 0.26058 0.07797 0.0
C793 C 0.62896 0.28335 0.08737 0.0
C794 C 0.59823 0.25637 0.05737 0.0
C795 C 0.62781 0.27489 0.04559 0.0
C796 C 0.65849 0.29703 0.05496 0.0
C797 C 0.65914 0.30112 0.07564 0.0
C798 C 0.62754 0.30437 0.99117 0.0
C799 C 0.61626 0.2681 0.98194 0.0
C800 C 0.63222 0.30635 0.01177 0.0
C801 C 0.62558 0.27214 0.0236 0.0
C802 C 0.61506 0.23571 0.01432 0.0
C803 C 0.61052 0.23369 0.99373 0.0
H804 H 0.72633 0.56035 0.58394 0.0
H805 H 0.70932 0.68933 0.5833 0.0
H806 H 0.73246 0.56037 0.54786 0.0
H807 H 0.71654 0.68921 0.54705 0.0
H808 H 0.78078 0.66112 0.48416 0.0
H809 H 0.77702 0.66473 0.52049 0.0
H810 H 0.67627 0.58279 0.51993 0.0
H811 H 0.67916 0.57992 0.4837 0.0
C812 C 0.72444 0.58879 0.57614 0.0
C813 C 0.71721 0.62487 0.58647 0.0
C814 C 0.72777 0.58869 0.5555 0.0
C815 C 0.72483 0.62474 0.54479 0.0
C816 C 0.71898 0.66106 0.55506 0.0
C817 C 0.71473 0.66108 0.57574 0.0
C818 C 0.7578 0.64397 0.49181 0.0
C819 C 0.73031 0.62016 0.48113 0.0
C820 C 0.75557 0.64622 0.51253 0.0
C821 C 0.72644 0.62395 0.52288 0.0
C822 C 0.69908 0.60009 0.51222 0.0
C823 C 0.70069 0.59857 0.49153 0.0
H824 H 0.31975 0.67709 0.084 0.0
H825 H 0.42665 0.75099 0.08768 0.0
H826 H 0.31929 0.68548 0.04801 0.0
H827 H 0.42638 0.75884 0.05183 0.0
H828 H 0.39526 0.79388 0.98866 0.0
H829 H 0.38875 0.78958 0.02463 0.0
H830 H 0.3605 0.66302 0.01972 0.0
H831 H 0.36642 0.66738 0.98372 0.0
C832 C 0.34299 0.69532 0.07719 0.0
C833 C 0.3733 0.71327 0.08877 0.0
C834 C 0.34285 0.69991 0.05655 0.0
C835 C 0.37287 0.72272 0.04705 0.0
C836 C 0.40255 0.74145 0.05869 0.0
C837 C 0.4028 0.73675 0.07927 0.0
C838 C 0.38744 0.76517 0.99523 0.0
C839 C 0.38159 0.73092 0.98331 0.0
C840 C 0.38388 0.76268 0.01586 0.0
C841 C 0.37425 0.72593 0.02505 0.0
C842 C 0.36754 0.69188 0.0131 0.0
C843 C 0.37123 0.69432 0.99246 0.0
H844 H 0.27958 0.31041 0.58353 0.0
H845 H 0.27794 0.44044 0.58359 0.0
H846 H 0.2725 0.31048 0.54731 0.0
H847 H 0.27156 0.44035 0.54748 0.0
H848 H 0.31866 0.41605 0.48303 0.0
H849 H 0.32218 0.41393 0.51924 0.0
H850 H 0.21693 0.33788 0.52081 0.0
H851 H 0.21269 0.3407 0.48449 0.0
C852 C 0.27777 0.33892 0.57584 0.0
C853 C 0.2796 0.37539 0.58639 0.0
C854 C 0.27347 0.33894 0.55516 0.0
C855 C 0.27178 0.37543 0.54468 0.0
C856 C 0.2731 0.41184 0.55524 0.0
C857 C 0.27652 0.41182 0.57589 0.0
C858 C 0.2963 0.39882 0.49108 0.0
C859 C 0.26531 0.37865 0.48094 0.0
C860 C 0.29824 0.39776 0.51178 0.0
C861 C 0.26977 0.37582 0.52274 0.0
C862 C 0.23927 0.35492 0.51264 0.0
C863 C 0.23678 0.35669 0.49192 0.0
H864 H 0.1873 0.1965 0.22858 0.0
H865 H 0.11559 0.30133 0.21501 0.0
H866 H 0.21894 0.23259 0.25577 0.0
H867 H 0.14874 0.33822 0.24179 0.0
H868 H 0.19141 0.37667 0.30455 0.0
H869 H 0.15563 0.34165 0.27801 0.0
H870 H 0.26714 0.28674 0.25923 0.0
H871 H 0.30239 0.32016 0.2862 0.0
C872 C 0.1783 0.22733 0.23136 0.0
C873 C 0.14956 0.2463 0.21929 0.0
C874 C 0.19678 0.24817 0.24685 0.0
C875 C 0.18693 0.28854 0.25074 0.0
C876 C 0.15712 0.30719 0.23914 0.0
C877 C 0.13855 0.28623 0.22358 0.0
C878 C 0.20813 0.35657 0.295 0.0
C879 C 0.24957 0.35036 0.29785 0.0
C880 C 0.18772 0.33699 0.27957 0.0
C881 C 0.20842 0.31095 0.26666 0.0
C882 C 0.25009 0.30587 0.26917 0.0
C883 C 0.27039 0.32536 0.28453 0.0
H884 H 0.79516 0.13705 0.74016 0.0
H885 H 0.69561 0.16548 0.70151 0.0
H886 H 0.75995 0.16833 0.76773 0.0
H887 H 0.65863 0.19296 0.72934 0.0
H888 H 0.62445 0.28455 0.77663 0.0
H889 H 0.65646 0.24931 0.7493 0.0
H890 H 0.70888 0.16501 0.79075 0.0
H891 H 0.68055 0.20269 0.81797 0.0
C892 C 0.76521 0.14888 0.73768 0.0
C893 C 0.7478 0.14748 0.71872 0.0
C894 C 0.74475 0.16655 0.75356 0.0
C895 C 0.70608 0.18305 0.75095 0.0
C896 C 0.68842 0.18097 0.732 0.0
C897 C 0.70927 0.16404 0.71604 0.0
C898 C 0.64271 0.25838 0.7799 0.0
C899 C 0.64875 0.24595 0.7996 0.0
C900 C 0.66079 0.23779 0.76416 0.0
C901 C 0.68516 0.20387 0.76766 0.0
C902 C 0.69068 0.19112 0.78737 0.0
C903 C 0.6733 0.21225 0.80311 0.0
H904 H 0.79496 0.68276 0.31674 0.0
H905 H 0.70492 0.63644 0.27651 0.0
H906 H 0.83278 0.7089 0.28917 0.0
H907 H 0.74037 0.66705 0.24893 0.0
H908 H 0.82274 0.70134 0.19988 0.0
H909 H 0.7938 0.66591 0.22759 0.0
H910 H 0.83407 0.76057 0.26698 0.0
H911 H 0.86725 0.79356 0.23944 0.0
C912 C 0.78348 0.67717 0.30204 0.0
C913 C 0.74747 0.65581 0.29896 0.0
C914 C 0.80478 0.69346 0.28609 0.0
C915 C 0.78992 0.69033 0.26661 0.0
C916 C 0.75358 0.66939 0.26355 0.0
C917 C 0.73286 0.65216 0.27947 0.0
C918 C 0.82736 0.71377 0.21447 0.0
C919 C 0.84892 0.74975 0.21735 0.0
C920 C 0.80948 0.69387 0.23047 0.0
C921 C 0.81132 0.71011 0.24973 0.0
C922 C 0.83265 0.74631 0.25256 0.0
C923 C 0.8514 0.76562 0.23665 0.0
H924 H 0.31545 0.79637 0.81862 0.0
H925 H 0.36906 0.7116 0.77781 0.0
H926 H 0.28711 0.83326 0.7912 0.0
H927 H 0.33687 0.74601 0.75034 0.0
H928 H 0.29835 0.82828 0.70191 0.0
H929 H 0.33523 0.80113 0.72977 0.0
H930 H 0.2356 0.83033 0.76852 0.0
H931 H 0.20066 0.86145 0.74087 0.0
C932 C 0.32216 0.78598 0.80383 0.0
C933 C 0.34606 0.75172 0.80052 0.0
C934 C 0.30473 0.80665 0.78798 0.0
C935 C 0.3095 0.79287 0.76838 0.0
C936 C 0.33315 0.75834 0.76509 0.0
C937 C 0.35133 0.73823 0.78093 0.0
C938 C 0.28508 0.83081 0.7165 0.0
C939 C 0.24716 0.84868 0.71925 0.0
C940 C 0.30584 0.81403 0.73249 0.0
C941 C 0.28863 0.81335 0.75157 0.0
C942 C 0.2505 0.83102 0.75425 0.0
C943 C 0.23016 0.84859 0.73832 0.0
H944 H 0.80786 0.78957 0.79502 0.0
H945 H 0.85418 0.67231 0.81039 0.0
H946 H 0.78597 0.76367 0.76291 0.0
H947 H 0.83385 0.64678 0.77764 0.0
H948 H 0.82665 0.64298 0.706 0.0
H949 H 0.85077 0.66378 0.73895 0.0
H950 H 0.73214 0.7078 0.75324 0.0
H951 H 0.70771 0.68547 0.72093 0.0
C952 C 0.81313 0.75816 0.79159 0.0
C953 C 0.83199 0.73275 0.8054 0.0
C954 C 0.80087 0.74345 0.77315 0.0
C955 C 0.80802 0.7032 0.76787 0.0
C956 C 0.8281 0.67798 0.78135 0.0
C957 C 0.83971 0.69257 0.80004 0.0
C958 C 0.80571 0.65663 0.71632 0.0
C959 C 0.76549 0.66329 0.71075 0.0
C960 C 0.81949 0.66853 0.73511 0.0
C961 C 0.79338 0.68777 0.7485 0.0
C962 C 0.75303 0.69359 0.74307 0.0
C963 C 0.73915 0.68107 0.72452 0.0
H964 H 0.20648 0.8183 0.29427 0.0
H965 H 0.32725 0.84754 0.31271 0.0
H966 H 0.23132 0.79849 0.26175 0.0
H967 H 0.3523 0.82976 0.27967 0.0
H968 H 0.38641 0.74799 0.2266 0.0
H969 H 0.36426 0.7729 0.25894 0.0
H970 H 0.25771 0.82286 0.23161 0.0
H971 H 0.27959 0.79662 0.19949 0.0
C972 C 0.23844 0.82055 0.2913 0.0
C973 C 0.26502 0.83395 0.30608 0.0
C974 C 0.25268 0.80976 0.27254 0.0
C975 C 0.29391 0.81255 0.26794 0.0
C976 C 0.32045 0.82669 0.2827 0.0
C977 C 0.30613 0.83723 0.30157 0.0
C978 C 0.35851 0.76473 0.22757 0.0
C979 C 0.33456 0.77034 0.21066 0.0
C980 C 0.34581 0.77915 0.24607 0.0
C981 C 0.30897 0.79973 0.24802 0.0
C982 C 0.28579 0.80643 0.23083 0.0
C983 C 0.29838 0.79172 0.21239 0.0
H984 H 0.2221 0.29734 0.8172 0.0
H985 H 0.11189 0.25248 0.79175 0.0
H986 H 0.24293 0.32262 0.78473 0.0
H987 H 0.13282 0.27671 0.75909 0.0
H988 H 0.16929 0.35187 0.70511 0.0
H989 H 0.14566 0.33399 0.7384 0.0
H990 H 0.2662 0.29683 0.75402 0.0
H991 H 0.28971 0.31649 0.72125 0.0
C992 C 0.20234 0.29304 0.80459 0.0
C993 C 0.1655 0.27296 0.80691 0.0
C994 C 0.2143 0.30725 0.78596 0.0
C995 C 0.18977 0.30144 0.76914 0.0
C996 C 0.15233 0.2822 0.77167 0.0
C997 C 0.14032 0.2682 0.79036 0.0
C998 C 0.19063 0.34017 0.71579 0.0
C999 C 0.23123 0.33526 0.71056 0.0
C1000 C 0.17711 0.32959 0.7348 0.0
C1001 C 0.20396 0.31388 0.749 0.0
C1002 C 0.24466 0.30933 0.74368 0.0
C1003 C 0.25811 0.32004 0.72475 0.0
H1004 H 0.67415 0.15536 0.31257 0.0
H1005 H 0.79617 0.17258 0.29258 0.0
H1006 H 0.64938 0.172 0.27939 0.0
H1007 H 0.77184 0.19162 0.25985 0.0
H1008 H 0.72148 0.1942 0.19802 0.0
H1009 H 0.74284 0.16869 0.23034 0.0
H1010 H 0.64048 0.22692 0.25772 0.0
H1011 H 0.61864 0.25073 0.22518 0.0
C1012 C 0.6956 0.1629 0.30105 0.0
C1013 C 0.73698 0.16326 0.30516 0.0
C1014 C 0.68148 0.1728 0.28208 0.0
C1015 C 0.7085 0.18346 0.26683 0.0
C1016 C 0.75001 0.18312 0.27102 0.0
C1017 C 0.76404 0.17281 0.28989 0.0
C1018 C 0.70346 0.201 0.21099 0.0
C1019 C 0.6685 0.22428 0.20922 0.0
C1020 C 0.71579 0.18675 0.22955 0.0
C1021 C 0.69366 0.19596 0.24681 0.0
C1022 C 0.65807 0.21864 0.24483 0.0
C1023 C 0.64556 0.23247 0.22621 0.0
H1024 H 0.48244 0.19841 0.10202 0.0
H1025 H 0.46126 0.22082 0.16431 0.0
H1026 H 0.41025 0.18885 0.09689 0.0
H1027 H 0.38905 0.21013 0.15916 0.0
H1028 H 0.26592 0.15247 0.14191 0.0
H1029 H 0.33924 0.15052 0.14564 0.0
H1030 H 0.35087 0.24468 0.10194 0.0
H1031 H 0.27737 0.24803 0.09893 0.0
C1032 C 0.46252 0.20032 0.1147 0.0
C1033 C 0.47746 0.21049 0.13358 0.0
C1034 C 0.42125 0.19509 0.1117 0.0
C1035 C 0.39433 0.19896 0.12761 0.0
C1036 C 0.40937 0.20687 0.14669 0.0
C1037 C 0.45058 0.21301 0.14962 0.0
C1038 C 0.28422 0.17281 0.13316 0.0
C1039 C 0.26614 0.201 0.12044 0.0
C1040 C 0.32601 0.17154 0.13523 0.0
C1041 C 0.35045 0.19759 0.12416 0.0
C1042 C 0.33253 0.22419 0.11058 0.0
C1043 C 0.29064 0.22607 0.10884 0.0
H1044 H 0.83649 0.26033 0.64569 0.0
H1045 H 0.75887 0.27372 0.59481 0.0
H1046 H 0.83955 0.33347 0.64939 0.0
H1047 H 0.76307 0.3471 0.59809 0.0
H1048 H 0.80517 0.47793 0.60202 0.0
H1049 H 0.81507 0.40572 0.59727 0.0
H1050 H 0.78387 0.38485 0.65856 0.0
H1051 H 0.77338 0.45703 0.66334 0.0
C1052 C 0.8202 0.27898 0.63526 0.0
C1053 C 0.79669 0.26149 0.62023 0.0
C1054 C 0.82216 0.32074 0.63733 0.0
C1055 C 0.80134 0.34581 0.62412 0.0
C1056 C 0.7796 0.32838 0.60841 0.0
C1057 C 0.77717 0.28651 0.60652 0.0
C1058 C 0.80116 0.45807 0.6146 0.0
C1059 C 0.78827 0.47313 0.63305 0.0
C1060 C 0.80656 0.41674 0.6118 0.0
C1061 C 0.79994 0.38981 0.6275 0.0
C1062 C 0.78933 0.40504 0.64624 0.0
C1063 C 0.78326 0.4463 0.64896 0.0
H1064 H 0.52235 0.80563 0.10603 0.0
H1065 H 0.5446 0.75928 0.16489 0.0
H1066 H 0.59456 0.81026 0.10022 0.0
H1067 H 0.61676 0.76517 0.15933 0.0
H1068 H 0.73714 0.72727 0.13497 0.0
H1069 H 0.66445 0.72844 0.13988 0.0
H1070 H 0.65785 0.84178 0.10851 0.0
H1071 H 0.73083 0.8396 0.10316 0.0
C1072 C 0.54263 0.79736 0.11792 0.0
C1073 C 0.52776 0.78158 0.13584 0.0
C1074 C 0.58408 0.80004 0.11457 0.0
C1075 C 0.61147 0.78727 0.12914 0.0
C1076 C 0.59648 0.77413 0.14756 0.0
C1077 C 0.55511 0.77114 0.15084 0.0
C1078 C 0.71988 0.752 0.12886 0.0
C1079 C 0.73916 0.78317 0.11859 0.0
C1080 C 0.67841 0.75306 0.1319 0.0
C1081 C 0.65536 0.78561 0.12492 0.0
C1082 C 0.67465 0.81621 0.11402 0.0
C1083 C 0.71629 0.81496 0.11087 0.0
H1084 H 0.22146 0.54039 0.66469 0.0
H1085 H 0.19141 0.51744 0.60334 0.0
H1086 H 0.21043 0.61242 0.65939 0.0
H1087 H 0.18131 0.58952 0.59803 0.0
H1088 H 0.24099 0.72182 0.59686 0.0
H1089 H 0.23652 0.64841 0.60021 0.0
H1090 H 0.15174 0.66252 0.64824 0.0
H1091 H 0.15491 0.73567 0.64434 0.0
C1092 C 0.21184 0.55066 0.6502 0.0
C1093 C 0.20739 0.52337 0.63444 0.0
C1094 C 0.20548 0.59177 0.64718 0.0
C1095 C 0.19533 0.60629 0.62827 0.0
C1096 C 0.18934 0.57892 0.6127 0.0
C1097 C 0.19486 0.53773 0.61581 0.0
C1098 C 0.22078 0.70911 0.60781 0.0
C1099 C 0.1988 0.73422 0.62055 0.0
C1100 C 0.21822 0.66727 0.60973 0.0
C1101 C 0.19401 0.65007 0.62459 0.0
C1102 C 0.17089 0.67518 0.63682 0.0
C1103 C 0.1729 0.71688 0.63465 0.0
H1104 H 0.95843 0.26748 0.85256 0.0
H1105 H 0.97651 0.30703 0.91298 0.0
H1106 H 0.88594 0.27333 0.85694 0.0
H1107 H 0.90399 0.31151 0.9176 0.0
H1108 H 0.76838 0.34028 0.91408 0.0
H1109 H 0.84147 0.34379 0.90937 0.0
H1110 H 0.83673 0.23475 0.87433 0.0
H1111 H 0.76393 0.23231 0.87864 0.0
C1112 C 0.94694 0.27786 0.86671 0.0
C1113 C 0.97319 0.28636 0.88248 0.0
C1114 C 0.90537 0.28082 0.8693 0.0
C1115 C 0.88909 0.29196 0.88778 0.0
C1116 C 0.91545 0.30289 0.90317 0.0
C1117 C 0.95709 0.30029 0.90051 0.0
C1118 C 0.78333 0.31689 0.90564 0.0
C1119 C 0.76097 0.28591 0.89679 0.0
C1120 C 0.82503 0.31891 0.90287 0.0
C1121 C 0.84493 0.28987 0.89123 0.0
C1122 C 0.82233 0.25822 0.88294 0.0
C1123 C 0.78078 0.25643 0.8856 0.0
H1124 H 0.65227 0.77202 0.41297 0.0
H1125 H 0.76743 0.7669 0.38365 0.0
H1126 H 0.65023 0.84518 0.40799 0.0
H1127 H 0.76625 0.8397 0.37902 0.0
H1128 H 0.73669 0.95951 0.35381 0.0
H1129 H 0.73004 0.88726 0.35888 0.0
H1130 H 0.68182 0.90851 0.4175 0.0
H1131 H 0.68739 0.98087 0.41221 0.0
C1132 C 0.67753 0.78686 0.40591 0.0
C1133 C 0.71019 0.76433 0.39883 0.0
C1134 C 0.67634 0.82856 0.40296 0.0
C1135 C 0.70779 0.84818 0.39283 0.0
C1136 C 0.74106 0.82545 0.38643 0.0
C1137 C 0.7421 0.78394 0.38931 0.0
C1138 C 0.72398 0.9488 0.36763 0.0
C1139 C 0.71304 0.97591 0.38269 0.0
C1140 C 0.72053 0.90738 0.37063 0.0
C1141 C 0.70634 0.89212 0.38879 0.0
C1142 C 0.69291 0.91926 0.40335 0.0
C1143 C 0.69612 0.96078 0.4003 0.0
H1144 H 0.01804 0.69087 0.90937 0.0
H1145 H 0.04232 0.73803 0.85085 0.0
H1146 H 0.09005 0.68586 0.91566 0.0
H1147 H 0.11426 0.73166 0.85685 0.0
H1148 H 0.23353 0.76975 0.88207 0.0
H1149 H 0.16102 0.76836 0.8767 0.0
H1150 H 0.15375 0.65483 0.9079 0.0
H1151 H 0.22658 0.65733 0.91377 0.0
C1152 C 0.03874 0.69915 0.89765 0.0
C1153 C 0.02454 0.71537 0.8797 0.0
C1154 C 0.08006 0.69628 0.90127 0.0
C1155 C 0.10794 0.70924 0.88694 0.0
C1156 C 0.09359 0.72261 0.86845 0.0
C1157 C 0.05236 0.72587 0.86491 0.0
C1158 C 0.21614 0.74495 0.88805 0.0
C1159 C 0.23515 0.71383 0.89842 0.0
C1160 C 0.17478 0.74376 0.88475 0.0
C1161 C 0.15164 0.71105 0.89152 0.0
C1162 C 0.17065 0.68049 0.90254 0.0
C1163 C 0.21218 0.68193 0.90598 0.0
H1164 H 0.3441 0.23002 0.41167 0.0
H1165 H 0.23319 0.23446 0.37862 0.0
H1166 H 0.34649 0.15674 0.40735 0.0
H1167 H 0.23469 0.16152 0.37463 0.0
H1168 H 0.26397 0.03821 0.35355 0.0
H1169 H 0.27125 0.11084 0.35698 0.0
H1170 H 0.31346 0.0951 0.4171 0.0
H1171 H 0.3074 0.02242 0.41345 0.0
C1172 C 0.31989 0.21506 0.40382 0.0
C1173 C 0.28826 0.23746 0.39563 0.0
C1174 C 0.32127 0.17324 0.40127 0.0
C1175 C 0.29101 0.15325 0.39045 0.0
C1176 C 0.259 0.17594 0.38263 0.0
C1177 C 0.25779 0.2176 0.38511 0.0
C1178 C 0.2755 0.05021 0.36737 0.0
C1179 C 0.28466 0.02455 0.38329 0.0
C1180 C 0.27931 0.09187 0.36942 0.0
C1181 C 0.29209 0.10888 0.38748 0.0
C1182 C 0.3036 0.08307 0.40298 0.0
C1183 C 0.30005 0.04134 0.40089 0.0
H1184 H 0.50142 0.77248 0.92703 0.0
H1185 H 0.46667 0.80772 0.86774 0.0
H1186 H 0.56686 0.80484 0.92223 0.0
H1187 H 0.53191 0.84072 0.86327 0.0
H1188 H 0.65949 0.91381 0.87964 0.0
H1189 H 0.5885 0.89956 0.88777 0.0
H1190 H 0.61319 0.77223 0.8856 0.0
H1191 H 0.68281 0.7861 0.87642 0.0
C1192 C 0.50709 0.78841 0.91329 0.0
C1193 C 0.47914 0.78712 0.89766 0.0
C1194 C 0.54448 0.80688 0.91058 0.0
C1195 C 0.554 0.82512 0.89242 0.0
C1196 C 0.52486 0.82708 0.87745 0.0
C1197 C 0.48772 0.80803 0.88 0.0
C1198 C 0.64959 0.88285 0.88096 0.0
C1199 C 0.67694 0.85102 0.87826 0.0
C1200 C 0.60926 0.87481 0.88565 0.0
C1201 C 0.59613 0.8349 0.88778 0.0
C1202 C 0.62316 0.80323 0.88455 0.0
C1203 C 0.663 0.81121 0.87952 0.0
H1204 H 0.17977 0.46353 0.36768 0.0
H1205 H 0.22973 0.50769 0.42262 0.0
H1206 H 0.14371 0.52674 0.36328 0.0
H1207 H 0.19646 0.57175 0.41767 0.0
H1208 H 0.12941 0.68516 0.40808 0.0
H1209 H 0.14295 0.61467 0.41577 0.0
H1210 H 0.15937 0.59052 0.35314 0.0
H1211 H 0.14291 0.66016 0.3457 0.0
C1212 C 0.1826 0.48667 0.37894 0.0
C1213 C 0.2077 0.48082 0.39542 0.0
C1214 C 0.16236 0.52317 0.37632 0.0
C1215 C 0.16774 0.55512 0.38983 0.0
C1216 C 0.19096 0.54808 0.40697 0.0
C1217 C 0.2103 0.51121 0.40983 0.0
C1218 C 0.13526 0.66434 0.39604 0.0
C1219 C 0.13545 0.67784 0.37634 0.0
C1220 C 0.14336 0.624 0.4004 0.0
C1221 C 0.15289 0.59653 0.38515 0.0
C1222 C 0.15154 0.61017 0.36535 0.0
C1223 C 0.14242 0.65026 0.36101 0.0
H1224 H 0.53351 0.18451 0.87006 0.0
H1225 H 0.48687 0.2396 0.92327 0.0
H1226 H 0.47031 0.1485 0.86552 0.0
H1227 H 0.4227 0.20642 0.91809 0.0
H1228 H 0.3098 0.13819 0.90853 0.0
H1229 H 0.37976 0.15285 0.91683 0.0
H1230 H 0.40726 0.16309 0.85422 0.0
H1231 H 0.33813 0.14541 0.84626 0.0
C1232 C 0.50975 0.18854 0.88089 0.0
C1233 C 0.51491 0.21493 0.89695 0.0
C1234 C 0.47327 0.16832 0.87819 0.0
C1235 C 0.44066 0.17508 0.89113 0.0
C1236 C 0.4469 0.19982 0.90786 0.0
C1237 C 0.48379 0.21911 0.91085 0.0
C1238 C 0.33125 0.14293 0.89665 0.0
C1239 C 0.31889 0.14097 0.8768 0.0
C1240 C 0.37128 0.15167 0.90135 0.0
C1241 C 0.39953 0.15978 0.88626 0.0
C1242 C 0.38699 0.15638 0.86633 0.0
C1243 C 0.34722 0.14657 0.86168 0.0
H1244 H 0.89839 0.33017 0.40052 0.0
H1245 H 0.80887 0.32354 0.35434 0.0
H1246 H 0.88121 0.40141 0.40616 0.0
H1247 H 0.79185 0.39416 0.35976 0.0
H1248 H 0.78292 0.50257 0.4242 0.0
H1249 H 0.81702 0.43814 0.41899 0.0
H1250 H 0.82442 0.46279 0.35624 0.0
H1251 H 0.79052 0.52683 0.36129 0.0
C1252 C 0.87536 0.34421 0.3915 0.0
C1253 C 0.85458 0.32175 0.37715 0.0
C1254 C 0.86548 0.38469 0.39475 0.0
C1255 C 0.83536 0.40326 0.38333 0.0
C1256 C 0.81553 0.38078 0.36861 0.0
C1257 C 0.82495 0.34038 0.36561 0.0
C1258 C 0.79276 0.49472 0.40938 0.0
C1259 C 0.78325 0.51946 0.39311 0.0
C1260 C 0.81235 0.45788 0.40641 0.0
C1261 C 0.82265 0.44528 0.38716 0.0
C1262 C 0.81613 0.47151 0.37118 0.0
C1263 C 0.79675 0.50822 0.37412 0.0
H1264 H 0.01501 0.74355 0.09405 0.0
H1265 H 0.96612 0.68394 0.14554 0.0
H1266 H 0.07903 0.71012 0.09924 0.0
H1267 H 0.02921 0.64784 0.15004 0.0
H1268 H 0.16056 0.64303 0.17052 0.0
H1269 H 0.09187 0.66178 0.16228 0.0
H1270 H 0.12162 0.65605 0.09978 0.0
H1271 H 0.19112 0.64014 0.10841 0.0
C1272 C 0.0176 0.72209 0.10607 0.0
C1273 C 0.98584 0.71664 0.11952 0.0
C1274 C 0.05438 0.70266 0.10907 0.0
C1275 C 0.05991 0.67656 0.12532 0.0
C1276 C 0.02676 0.66868 0.13777 0.0
C1277 C 0.99036 0.68897 0.13507 0.0
C1278 C 0.15207 0.64542 0.15505 0.0
C1279 C 0.18092 0.64071 0.14009 0.0
C1280 C 0.11256 0.65586 0.15023 0.0
C1281 C 0.1008 0.66081 0.13027 0.0
C1282 C 0.12953 0.65366 0.1153 0.0
C1283 C 0.1693 0.64423 0.12018 0.0
H1284 H 0.40928 0.15752 0.64201 0.0
H1285 H 0.28422 0.18702 0.63262 0.0
H1286 H 0.39457 0.08665 0.63393 0.0
H1287 H 0.27033 0.11762 0.62351 0.0
H1288 H 0.26394 0.0012 0.5909 0.0
H1289 H 0.29561 0.06716 0.59447 0.0
H1290 H 0.34299 0.03226 0.65147 0.0
H1291 H 0.31099 0.96633 0.64811 0.0
C1292 C 0.37895 0.14904 0.63787 0.0
C1293 C 0.34826 0.17812 0.63707 0.0
C1294 C 0.37063 0.10871 0.63321 0.0
C1295 C 0.33162 0.09715 0.62754 0.0
C1296 C 0.30095 0.1261 0.62715 0.0
C1297 C 0.30902 0.16593 0.6322 0.0
C1298 C 0.28214 0.00704 0.60392 0.0
C1299 C 0.28436 0.97881 0.6194 0.0
C1300 C 0.30012 0.04484 0.60597 0.0
C1301 C 0.32128 0.05473 0.62333 0.0
C1302 C 0.32687 0.02524 0.63794 0.0
C1303 C 0.30834 0.98763 0.63605 0.0
H1304 H 0.81344 0.35677 0.10793 0.0
H1305 H 0.84268 0.35356 0.17017 0.0
H1306 H 0.88362 0.34338 0.09957 0.0
H1307 H 0.91213 0.3373 0.16219 0.0
H1308 H 0.03886 0.3192 0.14629 0.0
H1309 H 0.97462 0.35344 0.15051 0.0
H1310 H 0.92849 0.29142 0.09878 0.0
H1311 H 0.99351 0.25995 0.09389 0.0
C1312 C 0.83508 0.35305 0.1198 0.0
C1313 C 0.82286 0.3558 0.13966 0.0
C1314 C 0.87529 0.3451 0.11507 0.0
C1315 C 0.90397 0.33869 0.13014 0.0
C1316 C 0.89153 0.34273 0.15006 0.0
C1317 C 0.85155 0.3517 0.15473 0.0
C1318 C 0.01522 0.31396 0.13553 0.0
C1319 C 0.02108 0.28681 0.11982 0.0
C1320 C 0.97812 0.33312 0.13807 0.0
C1321 C 0.9456 0.32461 0.12532 0.0
C1322 C 0.95254 0.29931 0.10887 0.0
C1323 C 0.98998 0.28103 0.10604 0.0
H1324 H 0.74013 0.98757 0.59399 0.0
H1325 H 0.67803 0.03417 0.6453 0.0
H1326 H 0.70744 0.9229 0.59849 0.0
H1327 H 0.64303 0.97019 0.64921 0.0
H1328 H 0.64204 0.83788 0.66898 0.0
H1329 H 0.65891 0.90734 0.6612 0.0
H1330 H 0.65361 0.8793 0.59852 0.0
H1331 H 0.63917 0.80916 0.60664 0.0
C1332 C 0.71829 0.98438 0.60582 0.0
C1333 C 0.71201 0.01571 0.61944 0.0
C1334 C 0.69932 0.94718 0.60842 0.0
C1335 C 0.67294 0.94071 0.62449 0.0
C1336 C 0.66411 0.97341 0.63707 0.0
C1337 C 0.68382 0.0103 0.63473 0.0
C1338 C 0.64406 0.84686 0.65356 0.0
C1339 C 0.63996 0.81827 0.63841 0.0
C1340 C 0.65344 0.88682 0.64902 0.0
C1341 C 0.65802 0.8993 0.62915 0.0
C1342 C 0.65144 0.87084 0.61398 0.0
C1343 C 0.64292 0.83067 0.61858 0.0
loop_
_geom_bond_atom_site_label_1
_geom_bond_atom_site_label_2
_geom_bond_distance
_geom_bond_site_symmetry_2
_ccdc_geom_bond_type
Co0 O3 1.970 . S
Co0 N17 1.989 . S
Co0 O25 1.967 . S
Co0 O32 1.920 . S
Co1 O4 1.966 . S
Co1 N10 2.022 . S
Co1 N18 1.993 . S
Co1 O26 1.941 . S
C2 O3 1.258 . S
C2 O4 1.263 . S
O3 Co0 1.970 . S
O3 C2 1.258 . S
O4 Co1 1.966 . S
O4 C2 1.263 . S
C5 O6 1.235 . S
C5 O32 1.289 . S
O6 C5 1.235 . S
C7 C9 1.400 . S
C7 N10 1.351 . S
C7 C12 1.501 . S
C8 C9 1.387 . S
C8 N11 1.341 . S
C9 C7 1.400 . S
C9 C8 1.387 . S
N10 Co1 2.022 . S
N10 C7 1.351 . S
N10 N11 1.365 . S
N11 C8 1.341 . S
N11 N10 1.365 . S
N11 H31 0.862 . S
C12 C7 1.501 . S
C12 H13 0.961 . S
C12 H14 0.961 . S
C12 H15 0.960 . S
H13 C12 0.961 . S
H14 C12 0.961 . S
H15 C12 0.960 . S
C16 N17 1.342 . S
C16 C20 1.401 . S
C16 C21 1.499 . S
N17 Co0 1.989 . S
N17 C16 1.342 . S
N17 N18 1.388 . S
N18 Co1 1.993 . S
N18 N17 1.388 . S
N18 C19 1.346 . S
C19 N18 1.346 . S
C19 C20 1.396 . S
C19 C29 1.510 . S
C20 C16 1.401 . S
C20 C19 1.396 . S
C21 C16 1.499 . S
C21 H22 0.959 . S
C21 H23 0.960 . S
C21 H24 0.961 . S
H22 C21 0.959 . S
H23 C21 0.960 . S
H24 C21 0.961 . S
O25 Co0 1.967 . S
O25 C33 1.258 . S
O26 Co1 1.941 . S
O26 C33 1.266 . S
H27 C29 0.959 . S
H28 C29 0.961 . S
C29 C19 1.510 . S
C29 H27 0.959 . S
C29 H28 0.961 . S
C29 H30 0.960 . S
H30 C29 0.960 . S
H31 N11 0.862 . S
O32 Co0 1.920 . S
O32 C5 1.289 . S
C33 O25 1.258 . S
C33 O26 1.266 . S
Co34 O37 1.970 . S
Co34 N51 1.989 . S
Co34 O59 1.967 . S
Co34 O66 1.920 . S
Co35 O38 1.966 . S
Co35 N44 2.022 . S
Co35 N52 1.993 . S
Co35 O60 1.941 . S
C36 O37 1.258 . S
C36 O38 1.263 . S
O37 Co34 1.970 . S
O37 C36 1.258 . S
O38 Co35 1.966 . S
O38 C36 1.263 . S
C39 O40 1.235 . S
C39 O66 1.289 . S
O40 C39 1.235 . S
C41 C43 1.400 . S
C41 N44 1.351 . S
C41 C46 1.501 . S
C42 C43 1.387 . S
C42 N45 1.341 . S
C43 C41 1.400 . S
C43 C42 1.387 . S
N44 Co35 2.022 . S
N44 C41 1.351 . S
N44 N45 1.365 . S
N45 C42 1.341 . S
N45 N44 1.365 . S
N45 H65 0.862 . S
C46 C41 1.501 . S
C46 H47 0.961 . S
C46 H48 0.961 . S
C46 H49 0.960 . S
H47 C46 0.961 . S
H48 C46 0.961 . S
H49 C46 0.960 . S
C50 N51 1.342 . S
C50 C54 1.401 . S
C50 C55 1.499 . S
N51 Co34 1.989 . S
N51 C50 1.342 . S
N51 N52 1.388 . S
N52 Co35 1.993 . S
N52 N51 1.388 . S
N52 C53 1.346 . S
C53 N52 1.346 . S
C53 C54 1.396 . S
C53 C63 1.510 . S
C54 C50 1.401 . S
C54 C53 1.396 . S
C55 C50 1.499 . S
C55 H56 0.959 . S
C55 H57 0.960 . S
C55 H58 0.961 . S
H56 C55 0.959 . S
H57 C55 0.960 . S
H58 C55 0.961 . S
O59 Co34 1.967 . S
O59 C67 1.258 . S
O60 Co35 1.941 . S
O60 C67 1.266 . S
H61 C63 0.959 . S
H62 C63 0.961 . S
C63 C53 1.510 . S
C63 H61 0.959 . S
C63 H62 0.961 . S
C63 H64 0.960 . S
H64 C63 0.960 . S
H65 N45 0.862 . S
O66 Co34 1.920 . S
O66 C39 1.289 . S
C67 O59 1.258 . S
C67 O60 1.266 . S
Co68 O71 1.970 . S
Co68 N85 1.989 . S
Co68 O93 1.967 . S
Co68 O100 1.920 . S
Co69 O72 1.966 . S
Co69 N78 2.022 . S
Co69 N86 1.993 . S
Co69 O94 1.941 . S
C70 O71 1.258 . S
C70 O72 1.263 . S
O71 Co68 1.970 . S
O71 C70 1.258 . S
O72 Co69 1.966 . S
O72 C70 1.263 . S
C73 O74 1.235 . S
C73 O100 1.289 . S
O74 C73 1.235 . S
C75 C77 1.400 . S
C75 N78 1.351 . S
C75 C80 1.501 . S
C76 C77 1.387 . S
C76 N79 1.341 . S
C77 C75 1.400 . S
C77 C76 1.387 . S
N78 Co69 2.022 . S
N78 C75 1.351 . S
N78 N79 1.365 . S
N79 C76 1.341 . S
N79 N78 1.365 . S
N79 H99 0.862 . S
C80 C75 1.501 . S
C80 H81 0.961 . S
C80 H82 0.961 . S
C80 H83 0.960 . S
H81 C80 0.961 . S
H82 C80 0.961 . S
H83 C80 0.960 . S
C84 N85 1.342 . S
C84 C88 1.401 . S
C84 C89 1.499 . S
N85 Co68 1.989 . S
N85 C84 1.342 . S
N85 N86 1.388 . S
N86 Co69 1.993 . S
N86 N85 1.388 . S
N86 C87 1.346 . S
C87 N86 1.346 . S
C87 C88 1.396 . S
C87 C97 1.510 . S
C88 C84 1.401 . S
C88 C87 1.396 . S
C89 C84 1.499 . S
C89 H90 0.959 . S
C89 H91 0.960 . S
C89 H92 0.961 . S
H90 C89 0.959 . S
H91 C89 0.960 . S
H92 C89 0.961 . S
O93 Co68 1.967 . S
O93 C101 1.258 . S
O94 Co69 1.941 . S
O94 C101 1.266 . S
H95 C97 0.959 . S
H96 C97 0.961 . S
C97 C87 1.510 . S
C97 H95 0.959 . S
C97 H96 0.961 . S
C97 H98 0.960 . S
H98 C97 0.960 . S
H99 N79 0.862 . S
O100 Co68 1.920 . S
O100 C73 1.289 . S
C101 O93 1.258 . S
C101 O94 1.266 . S
Co102 O105 1.970 . S
Co102 N119 1.989 . S
Co102 O127 1.967 . S
Co102 O134 1.920 . S
Co103 O106 1.966 . S
Co103 N112 2.022 . S
Co103 N120 1.993 . S
Co103 O128 1.941 . S
C104 O105 1.258 . S
C104 O106 1.263 . S
O105 Co102 1.970 . S
O105 C104 1.258 . S
O106 Co103 1.966 . S
O106 C104 1.263 . S
C107 O108 1.235 . S
C107 O134 1.289 . S
O108 C107 1.235 . S
C109 C111 1.400 . S
C109 N112 1.351 . S
C109 C114 1.501 . S
C110 C111 1.387 . S
C110 N113 1.341 . S
C111 C109 1.400 . S
C111 C110 1.387 . S
N112 Co103 2.022 . S
N112 C109 1.351 . S
N112 N113 1.365 . S
N113 C110 1.341 . S
N113 N112 1.365 . S
N113 H133 0.862 . S
C114 C109 1.501 . S
C114 H115 0.961 . S
C114 H116 0.961 . S
C114 H117 0.960 . S
H115 C114 0.961 . S
H116 C114 0.961 . S
H117 C114 0.960 . S
C118 N119 1.342 . S
C118 C122 1.401 . S
C118 C123 1.499 . S
N119 Co102 1.989 . S
N119 C118 1.342 . S
N119 N120 1.388 . S
N120 Co103 1.993 . S
N120 N119 1.388 . S
N120 C121 1.346 . S
C121 N120 1.346 . S
C121 C122 1.396 . S
C121 C131 1.510 . S
C122 C118 1.401 . S
C122 C121 1.396 . S
C123 C118 1.499 . S
C123 H124 0.959 . S
C123 H125 0.960 . S
C123 H126 0.961 . S
H124 C123 0.959 . S
H125 C123 0.960 . S
H126 C123 0.961 . S
O127 Co102 1.967 . S
O127 C135 1.258 . S
O128 Co103 1.941 . S
O128 C135 1.266 . S
H129 C131 0.959 . S
H130 C131 0.961 . S
C131 C121 1.510 . S
C131 H129 0.959 . S
C131 H130 0.961 . S
C131 H132 0.960 . S
H132 C131 0.960 . S
H133 N113 0.862 . S
O134 Co102 1.920 . S
O134 C107 1.289 . S
C135 O127 1.258 . S
C135 O128 1.266 . S
Co136 O139 1.970 . S
Co136 N153 1.989 . S
Co136 O161 1.967 . S
Co136 O168 1.920 . S
Co137 O140 1.966 . S
Co137 N146 2.022 . S
Co137 N154 1.993 . S
Co137 O162 1.941 . S
C138 O139 1.258 . S
C138 O140 1.263 . S
O139 Co136 1.970 . S
O139 C138 1.258 . S
O140 Co137 1.966 . S
O140 C138 1.263 . S
C141 O142 1.235 . S
C141 O168 1.289 . S
O142 C141 1.235 . S
C143 C145 1.400 . S
C143 N146 1.351 . S
C143 C148 1.501 . S
C144 C145 1.387 . S
C144 N147 1.341 . S
C145 C143 1.400 . S
C145 C144 1.387 . S
N146 Co137 2.022 . S
N146 C143 1.351 . S
N146 N147 1.365 . S
N147 C144 1.341 . S
N147 N146 1.365 . S
N147 H167 0.862 . S
C148 C143 1.501 . S
C148 H149 0.961 . S
C148 H150 0.961 . S
C148 H151 0.960 . S
H149 C148 0.961 . S
H150 C148 0.961 . S
H151 C148 0.960 . S
C152 N153 1.342 . S
C152 C156 1.401 . S
C152 C157 1.499 . S
N153 Co136 1.989 . S
N153 C152 1.342 . S
N153 N154 1.388 . S
N154 Co137 1.993 . S
N154 N153 1.388 . S
N154 C155 1.346 . S
C155 N154 1.346 . S
C155 C156 1.396 . S
C155 C165 1.510 . S
C156 C152 1.401 . S
C156 C155 1.396 . S
C157 C152 1.499 . S
C157 H158 0.959 . S
C157 H159 0.960 . S
C157 H160 0.961 . S
H158 C157 0.959 . S
H159 C157 0.960 . S
H160 C157 0.961 . S
O161 Co136 1.967 . S
O161 C169 1.258 . S
O162 Co137 1.941 . S
O162 C169 1.266 . S
H163 C165 0.959 . S
H164 C165 0.961 . S
C165 C155 1.510 . S
C165 H163 0.959 . S
C165 H164 0.961 . S
C165 H166 0.960 . S
H166 C165 0.960 . S
H167 N147 0.862 . S
O168 Co136 1.920 . S
O168 C141 1.289 . S
C169 O161 1.258 . S
C169 O162 1.266 . S
Co170 O173 1.970 . S
Co170 N187 1.989 . S
Co170 O195 1.967 . S
Co170 O202 1.920 . S
Co171 O174 1.966 . S
Co171 N180 2.022 . S
Co171 N188 1.993 . S
Co171 O196 1.941 . S
C172 O173 1.258 . S
C172 O174 1.263 . S
O173 Co170 1.970 . S
O173 C172 1.258 . S
O174 Co171 1.966 . S
O174 C172 1.263 . S
C175 O176 1.235 . S
C175 O202 1.289 . S
O176 C175 1.235 . S
C177 C179 1.400 . S
C177 N180 1.351 . S
C177 C182 1.501 . S
C178 C179 1.387 . S
C178 N181 1.341 . S
C179 C177 1.400 . S
C179 C178 1.387 . S
N180 Co171 2.022 . S
N180 C177 1.351 . S
N180 N181 1.365 . S
N181 C178 1.341 . S
N181 N180 1.365 . S
N181 H201 0.862 . S
C182 C177 1.501 . S
C182 H183 0.961 . S
C182 H184 0.961 . S
C182 H185 0.960 . S
H183 C182 0.961 . S
H184 C182 0.961 . S
H185 C182 0.960 . S
C186 N187 1.342 . S
C186 C190 1.401 . S
C186 C191 1.499 . S
N187 Co170 1.989 . S
N187 C186 1.342 . S
N187 N188 1.388 . S
N188 Co171 1.993 . S
N188 N187 1.388 . S
N188 C189 1.346 . S
C189 N188 1.346 . S
C189 C190 1.396 . S
C189 C199 1.510 . S
C190 C186 1.401 . S
C190 C189 1.396 . S
C191 C186 1.499 . S
C191 H192 0.959 . S
C191 H193 0.960 . S
C191 H194 0.961 . S
H192 C191 0.959 . S
H193 C191 0.960 . S
H194 C191 0.961 . S
O195 Co170 1.967 . S
O195 C203 1.258 . S
O196 Co171 1.941 . S
O196 C203 1.266 . S
H197 C199 0.959 . S
H198 C199 0.961 . S
C199 C189 1.510 . S
C199 H197 0.959 . S
C199 H198 0.961 . S
C199 H200 0.960 . S
H200 C199 0.960 . S
H201 N181 0.862 . S
O202 Co170 1.920 . S
O202 C175 1.289 . S
C203 O195 1.258 . S
C203 O196 1.266 . S
Co204 O207 1.970 . S
Co204 N221 1.989 . S
Co204 O229 1.967 . S
Co204 O236 1.920 . S
Co205 O208 1.966 . S
Co205 N214 2.022 . S
Co205 N222 1.993 . S
Co205 O230 1.941 . S
C206 O207 1.258 . S
C206 O208 1.263 . S
O207 Co204 1.970 . S
O207 C206 1.258 . S
O208 Co205 1.966 . S
O208 C206 1.263 . S
C209 O210 1.235 . S
C209 O236 1.289 . S
O210 C209 1.235 . S
C211 C213 1.400 . S
C211 N214 1.351 . S
C211 C216 1.501 . S
C212 C213 1.387 . S
C212 N215 1.341 . S
C213 C211 1.400 . S
C213 C212 1.387 . S
N214 Co205 2.022 . S
N214 C211 1.351 . S
N214 N215 1.365 . S
N215 C212 1.341 . S
N215 N214 1.365 . S
N215 H235 0.862 . S
C216 C211 1.501 . S
C216 H217 0.961 . S
C216 H218 0.961 . S
C216 H219 0.960 . S
H217 C216 0.961 . S
H218 C216 0.961 . S
H219 C216 0.960 . S
C220 N221 1.342 . S
C220 C224 1.401 . S
C220 C225 1.499 . S
N221 Co204 1.989 . S
N221 C220 1.342 . S
N221 N222 1.388 . S
N222 Co205 1.993 . S
N222 N221 1.388 . S
N222 C223 1.346 . S
C223 N222 1.346 . S
C223 C224 1.396 . S
C223 C233 1.510 . S
C224 C220 1.401 . S
C224 C223 1.396 . S
C225 C220 1.499 . S
C225 H226 0.959 . S
C225 H227 0.960 . S
C225 H228 0.961 . S
H226 C225 0.959 . S
H227 C225 0.960 . S
H228 C225 0.961 . S
O229 Co204 1.967 . S
O229 C237 1.258 . S
O230 Co205 1.941 . S
O230 C237 1.266 . S
H231 C233 0.959 . S
H232 C233 0.961 . S
C233 C223 1.510 . S
C233 H231 0.959 . S
C233 H232 0.961 . S
C233 H234 0.960 . S
H234 C233 0.960 . S
H235 N215 0.862 . S
O236 Co204 1.920 . S
O236 C209 1.289 . S
C237 O229 1.258 . S
C237 O230 1.266 . S
Co238 O241 1.970 . S
Co238 N255 1.989 . S
Co238 O263 1.967 . S
Co238 O270 1.920 . S
Co239 O242 1.966 . S
Co239 N248 2.022 . S
Co239 N256 1.993 . S
Co239 O264 1.941 . S
C240 O241 1.258 . S
C240 O242 1.263 . S
O241 Co238 1.970 . S
O241 C240 1.258 . S
O242 Co239 1.966 . S
O242 C240 1.263 . S
C243 O244 1.235 . S
C243 O270 1.289 . S
O244 C243 1.235 . S
C245 C247 1.400 . S
C245 N248 1.351 . S
C245 C250 1.501 . S
C246 C247 1.387 . S
C246 N249 1.341 . S
C247 C245 1.400 . S
C247 C246 1.387 . S
N248 Co239 2.022 . S
N248 C245 1.351 . S
N248 N249 1.365 . S
N249 C246 1.341 . S
N249 N248 1.365 . S
N249 H269 0.862 . S
C250 C245 1.501 . S
C250 H251 0.961 . S
C250 H252 0.961 . S
C250 H253 0.960 . S
H251 C250 0.961 . S
H252 C250 0.961 . S
H253 C250 0.960 . S
C254 N255 1.342 . S
C254 C258 1.401 . S
C254 C259 1.499 . S
N255 Co238 1.989 . S
N255 C254 1.342 . S
N255 N256 1.388 . S
N256 Co239 1.993 . S
N256 N255 1.388 . S
N256 C257 1.346 . S
C257 N256 1.346 . S
C257 C258 1.396 . S
C257 C267 1.510 . S
C258 C254 1.401 . S
C258 C257 1.396 . S
C259 C254 1.499 . S
C259 H260 0.959 . S
C259 H261 0.960 . S
C259 H262 0.961 . S
H260 C259 0.959 . S
H261 C259 0.960 . S
H262 C259 0.961 . S
O263 Co238 1.967 . S
O263 C271 1.258 . S
O264 Co239 1.941 . S
O264 C271 1.266 . S
H265 C267 0.959 . S
H266 C267 0.961 . S
C267 C257 1.510 . S
C267 H265 0.959 . S
C267 H266 0.961 . S
C267 H268 0.960 . S
H268 C267 0.960 . S
H269 N249 0.862 . S
O270 Co238 1.920 . S
O270 C243 1.289 . S
C271 O263 1.258 . S
C271 O264 1.266 . S
Co272 O275 1.970 . S
Co272 N289 1.989 . S
Co272 O297 1.967 . S
Co272 O304 1.920 1_655 S
Co273 O276 1.966 . S
Co273 N282 2.022 . S
Co273 N290 1.993 . S
Co273 O298 1.941 . S
C274 O275 1.258 . S
C274 O276 1.263 . S
O275 Co272 1.970 . S
O275 C274 1.258 . S
O276 Co273 1.966 . S
O276 C274 1.263 . S
C277 O278 1.235 . S
C277 O304 1.289 . S
O278 C277 1.235 . S
C279 C281 1.400 . S
C279 N282 1.351 . S
C279 C284 1.501 . S
C280 C281 1.387 . S
C280 N283 1.341 . S
C281 C279 1.400 . S
C281 C280 1.387 . S
N282 Co273 2.022 . S
N282 C279 1.351 . S
N282 N283 1.365 . S
N283 C280 1.341 . S
N283 N282 1.365 . S
N283 H303 0.862 . S
C284 C279 1.501 . S
C284 H285 0.961 . S
C284 H286 0.961 . S
C284 H287 0.960 . S
H285 C284 0.961 . S
H286 C284 0.961 . S
H287 C284 0.960 . S
C288 N289 1.342 . S
C288 C292 1.401 . S
C288 C293 1.499 . S
N289 Co272 1.989 . S
N289 C288 1.342 . S
N289 N290 1.388 . S
N290 Co273 1.993 . S
N290 N289 1.388 . S
N290 C291 1.346 . S
C291 N290 1.346 . S
C291 C292 1.396 . S
C291 C301 1.510 . S
C292 C288 1.401 . S
C292 C291 1.396 . S
C293 C288 1.499 . S
C293 H294 0.945 1_655 S
C293 H295 0.960 . S
C293 H296 0.961 . S
H294 C293 0.945 1_455 S
H295 C293 0.960 . S
H296 C293 0.961 . S
O297 Co272 1.967 . S
O297 C305 1.258 . S
O298 Co273 1.941 . S
O298 C305 1.266 . S
H299 C301 0.959 . S
H300 C301 0.961 . S
C301 C291 1.510 . S
C301 H299 0.959 . S
C301 H300 0.961 . S
C301 H302 0.960 . S
H302 C301 0.960 . S
H303 N283 0.862 . S
O304 Co272 1.920 1_455 S
O304 C277 1.289 . S
C305 O297 1.258 . S
C305 O298 1.266 . S
Co306 O309 1.970 . S
Co306 N323 1.989 . S
Co306 O331 1.967 . S
Co306 O338 1.920 1_565 S
Co307 O310 1.966 . S
Co307 N316 2.022 . S
Co307 N324 1.993 . S
Co307 O332 1.941 . S
C308 O309 1.258 . S
C308 O310 1.263 . S
O309 Co306 1.970 . S
O309 C308 1.258 . S
O310 Co307 1.966 . S
O310 C308 1.263 . S
C311 O312 1.235 . S
C311 O338 1.289 . S
O312 C311 1.235 . S
C313 C315 1.400 . S
C313 N316 1.351 . S
C313 C318 1.501 . S
C314 C315 1.387 . S
C314 N317 1.341 . S
C315 C313 1.400 . S
C315 C314 1.387 . S
N316 Co307 2.022 . S
N316 C313 1.351 . S
N316 N317 1.365 . S
N317 C314 1.341 . S
N317 N316 1.365 . S
N317 H337 0.862 . S
C318 C313 1.501 . S
C318 H319 0.961 . S
C318 H320 0.961 . S
C318 H321 0.960 . S
H319 C318 0.961 . S
H320 C318 0.961 . S
H321 C318 0.960 . S
C322 N323 1.342 . S
C322 C326 1.401 . S
C322 C327 1.499 . S
N323 Co306 1.989 . S
N323 C322 1.342 . S
N323 N324 1.388 . S
N324 Co307 1.993 . S
N324 N323 1.388 . S
N324 C325 1.346 . S
C325 N324 1.346 . S
C325 C326 1.396 . S
C325 C335 1.510 . S
C326 C322 1.401 . S
C326 C325 1.396 . S
C327 C322 1.499 . S
C327 H328 0.945 1_565 S
C327 H329 0.960 . S
C327 H330 0.961 . S
H328 C327 0.945 1_545 S
H329 C327 0.960 . S
H330 C327 0.961 . S
O331 Co306 1.967 . S
O331 C339 1.258 . S
O332 Co307 1.941 . S
O332 C339 1.266 . S
H333 C335 0.959 . S
H334 C335 0.961 . S
C335 C325 1.510 . S
C335 H333 0.959 . S
C335 H334 0.961 . S
C335 H336 0.960 . S
H336 C335 0.960 . S
H337 N317 0.862 . S
O338 Co306 1.920 1_545 S
O338 C311 1.289 . S
C339 O331 1.258 . S
C339 O332 1.266 . S
Co340 O343 1.970 . S
Co340 N357 1.989 . S
Co340 O365 1.967 . S
Co340 O372 1.920 1_455 S
Co341 O344 1.966 . S
Co341 N350 2.022 . S
Co341 N358 1.993 . S
Co341 O366 1.941 . S
C342 O343 1.258 . S
C342 O344 1.263 . S
O343 Co340 1.970 . S
O343 C342 1.258 . S
O344 Co341 1.966 . S
O344 C342 1.263 . S
C345 O346 1.235 . S
C345 O372 1.289 . S
O346 C345 1.235 . S
C347 C349 1.400 . S
C347 N350 1.351 . S
C347 C352 1.501 . S
C348 C349 1.387 . S
C348 N351 1.341 . S
C349 C347 1.400 . S
C349 C348 1.387 . S
N350 Co341 2.022 . S
N350 C347 1.351 . S
N350 N351 1.365 . S
N351 C348 1.341 . S
N351 N350 1.365 . S
N351 H371 0.862 . S
C352 C347 1.501 . S
C352 H353 0.961 . S
C352 H354 0.961 . S
C352 H355 0.960 . S
H353 C352 0.961 . S
H354 C352 0.961 . S
H355 C352 0.960 . S
C356 N357 1.342 . S
C356 C360 1.401 . S
C356 C361 1.499 . S
N357 Co340 1.989 . S
N357 C356 1.342 . S
N357 N358 1.388 . S
N358 Co341 1.993 . S
N358 N357 1.388 . S
N358 C359 1.346 . S
C359 N358 1.346 . S
C359 C360 1.396 . S
C359 C369 1.510 . S
C360 C356 1.401 . S
C360 C359 1.396 . S
C361 C356 1.499 . S
C361 H362 0.945 1_455 S
C361 H363 0.960 . S
C361 H364 0.961 . S
H362 C361 0.945 1_655 S
H363 C361 0.960 . S
H364 C361 0.961 . S
O365 Co340 1.967 . S
O365 C373 1.258 . S
O366 Co341 1.941 . S
O366 C373 1.266 . S
H367 C369 0.959 . S
H368 C369 0.961 . S
C369 C359 1.510 . S
C369 H367 0.959 . S
C369 H368 0.961 . S
C369 H370 0.960 . S
H370 C369 0.960 . S
H371 N351 0.862 . S
O372 Co340 1.920 1_655 S
O372 C345 1.289 . S
C373 O365 1.258 . S
C373 O366 1.266 . S
Co374 O377 1.970 . S
Co374 N391 1.989 . S
Co374 O399 1.967 . S
Co374 O406 1.920 1_545 S
Co375 O378 1.966 . S
Co375 N384 2.022 . S
Co375 N392 1.993 . S
Co375 O400 1.941 . S
C376 O377 1.258 . S
C376 O378 1.263 . S
O377 Co374 1.970 . S
O377 C376 1.258 . S
O378 Co375 1.966 . S
O378 C376 1.263 . S
C379 O380 1.235 . S
C379 O406 1.289 . S
O380 C379 1.235 . S
C381 C383 1.400 . S
C381 N384 1.351 . S
C381 C386 1.501 . S
C382 C383 1.387 . S
C382 N385 1.341 . S
C383 C381 1.400 . S
C383 C382 1.387 . S
N384 Co375 2.022 . S
N384 C381 1.351 . S
N384 N385 1.365 . S
N385 C382 1.341 . S
N385 N384 1.365 . S
N385 H405 0.862 . S
C386 C381 1.501 . S
C386 H387 0.961 . S
C386 H388 0.961 . S
C386 H389 0.960 . S
H387 C386 0.961 . S
H388 C386 0.961 . S
H389 C386 0.960 . S
C390 N391 1.342 . S
C390 C394 1.401 . S
C390 C395 1.499 . S
N391 Co374 1.989 . S
N391 C390 1.342 . S
N391 N392 1.388 . S
N392 Co375 1.993 . S
N392 N391 1.388 . S
N392 C393 1.346 . S
C393 N392 1.346 . S
C393 C394 1.396 . S
C393 C403 1.510 . S
C394 C390 1.401 . S
C394 C393 1.396 . S
C395 C390 1.499 . S
C395 H396 0.945 1_545 S
C395 H397 0.960 . S
C395 H398 0.961 . S
H396 C395 0.945 1_565 S
H397 C395 0.960 . S
H398 C395 0.961 . S
O399 Co374 1.967 . S
O399 C407 1.258 . S
O400 Co375 1.941 . S
O400 C407 1.266 . S
H401 C403 0.959 . S
H402 C403 0.961 . S
C403 C393 1.510 . S
C403 H401 0.959 . S
C403 H402 0.961 . S
C403 H404 0.960 . S
H404 C403 0.960 . S
H405 N385 0.862 . S
O406 Co374 1.920 1_565 S
O406 C379 1.289 . S
C407 O399 1.258 . S
C407 O400 1.266 . S
Co408 O411 1.970 . S
Co408 N425 1.989 . S
Co408 O433 1.967 . S
Co408 O440 1.920 . S
Co409 O412 1.966 . S
Co409 N418 2.022 . S
Co409 N426 1.993 . S
Co409 O434 1.941 . S
C410 O411 1.258 . S
C410 O412 1.263 . S
O411 Co408 1.970 . S
O411 C410 1.258 . S
O412 Co409 1.966 . S
O412 C410 1.263 . S
C413 O414 1.235 . S
C413 O440 1.289 . S
O414 C413 1.235 . S
C415 C417 1.400 . S
C415 N418 1.351 . S
C415 C420 1.501 . S
C416 C417 1.387 . S
C416 N419 1.341 . S
C417 C415 1.400 . S
C417 C416 1.387 . S
N418 Co409 2.022 . S
N418 C415 1.351 . S
N418 N419 1.365 . S
N419 C416 1.341 . S
N419 N418 1.365 . S
N419 H439 0.862 . S
C420 C415 1.501 . S
C420 H421 0.961 . S
C420 H422 0.961 . S
C420 H423 0.960 . S
H421 C420 0.961 . S
H422 C420 0.961 . S
H423 C420 0.960 . S
C424 N425 1.342 . S
C424 C428 1.401 . S
C424 C429 1.499 . S
N425 Co408 1.989 . S
N425 C424 1.342 . S
N425 N426 1.388 . S
N426 Co409 1.993 . S
N426 N425 1.388 . S
N426 C427 1.346 . S
C427 N426 1.346 . S
C427 C428 1.396 . S
C427 C437 1.510 . S
C428 C424 1.401 . S
C428 C427 1.396 . S
C429 C424 1.499 . S
C429 H430 0.959 . S
C429 H431 0.960 . S
C429 H432 0.961 . S
H430 C429 0.959 . S
H431 C429 0.960 . S
H432 C429 0.961 . S
O433 Co408 1.967 . S
O433 C441 1.258 . S
O434 Co409 1.941 . S
O434 C441 1.266 . S
H435 C437 0.959 . S
H436 C437 0.961 . S
C437 C427 1.510 . S
C437 H435 0.959 . S
C437 H436 0.961 . S
C437 H438 0.960 . S
H438 C437 0.960 . S
H439 N419 0.862 . S
O440 Co408 1.920 . S
O440 C413 1.289 . S
C441 O433 1.258 . S
C441 O434 1.266 . S
Co442 O445 1.970 . S
Co442 N459 1.989 . S
Co442 O467 1.967 . S
Co442 O474 1.920 . S
Co443 O446 1.966 . S
Co443 N452 2.022 . S
Co443 N460 1.993 . S
Co443 O468 1.941 . S
C444 O445 1.258 . S
C444 O446 1.263 . S
O445 Co442 1.970 . S
O445 C444 1.258 . S
O446 Co443 1.966 . S
O446 C444 1.263 . S
C447 O448 1.235 . S
C447 O474 1.289 . S
O448 C447 1.235 . S
C449 C451 1.400 . S
C449 N452 1.351 . S
C449 C454 1.501 . S
C450 C451 1.387 . S
C450 N453 1.341 . S
C451 C449 1.400 . S
C451 C450 1.387 . S
N452 Co443 2.022 . S
N452 C449 1.351 . S
N452 N453 1.365 . S
N453 C450 1.341 . S
N453 N452 1.365 . S
N453 H473 0.862 . S
C454 C449 1.501 . S
C454 H455 0.961 . S
C454 H456 0.961 . S
C454 H457 0.960 . S
H455 C454 0.961 . S
H456 C454 0.961 . S
H457 C454 0.960 . S
C458 N459 1.342 . S
C458 C462 1.401 . S
C458 C463 1.499 . S
N459 Co442 1.989 . S
N459 C458 1.342 . S
N459 N460 1.388 . S
N460 Co443 1.993 . S
N460 N459 1.388 . S
N460 C461 1.346 . S
C461 N460 1.346 . S
C461 C462 1.396 . S
C461 C471 1.510 . S
C462 C458 1.401 . S
C462 C461 1.396 . S
C463 C458 1.499 . S
C463 H464 0.959 . S
C463 H465 0.960 . S
C463 H466 0.961 . S
H464 C463 0.959 . S
H465 C463 0.960 . S
H466 C463 0.961 . S
O467 Co442 1.967 . S
O467 C475 1.258 . S
O468 Co443 1.941 . S
O468 C475 1.266 . S
H469 C471 0.959 . S
H470 C471 0.961 . S
C471 C461 1.510 . S
C471 H469 0.959 . S
C471 H470 0.961 . S
C471 H472 0.960 . S
H472 C471 0.960 . S
H473 N453 0.862 . S
O474 Co442 1.920 . S
O474 C447 1.289 . S
C475 O467 1.258 . S
C475 O468 1.266 . S
Co476 O479 1.970 . S
Co476 N493 1.989 . S
Co476 O501 1.967 . S
Co476 O508 1.920 . S
Co477 O480 1.966 . S
Co477 N486 2.022 . S
Co477 N494 1.993 . S
Co477 O502 1.941 . S
C478 O479 1.258 . S
C478 O480 1.263 . S
O479 Co476 1.970 . S
O479 C478 1.258 . S
O480 Co477 1.966 . S
O480 C478 1.263 . S
C481 O482 1.235 . S
C481 O508 1.289 . S
O482 C481 1.235 . S
C483 C485 1.400 . S
C483 N486 1.351 . S
C483 C488 1.501 . S
C484 C485 1.387 . S
C484 N487 1.341 . S
C485 C483 1.400 . S
C485 C484 1.387 . S
N486 Co477 2.022 . S
N486 C483 1.351 . S
N486 N487 1.365 . S
N487 C484 1.341 . S
N487 N486 1.365 . S
N487 H507 0.862 . S
C488 C483 1.501 . S
C488 H489 0.961 . S
C488 H490 0.961 . S
C488 H491 0.960 . S
H489 C488 0.961 . S
H490 C488 0.961 . S
H491 C488 0.960 . S
C492 N493 1.342 . S
C492 C496 1.401 . S
C492 C497 1.499 . S
N493 Co476 1.989 . S
N493 C492 1.342 . S
N493 N494 1.388 . S
N494 Co477 1.993 . S
N494 N493 1.388 . S
N494 C495 1.346 . S
C495 N494 1.346 . S
C495 C496 1.396 . S
C495 C505 1.510 . S
C496 C492 1.401 . S
C496 C495 1.396 . S
C497 C492 1.499 . S
C497 H498 0.959 . S
C497 H499 0.960 . S
C497 H500 0.961 . S
H498 C497 0.959 . S
H499 C497 0.960 . S
H500 C497 0.961 . S
O501 Co476 1.967 . S
O501 C509 1.258 . S
O502 Co477 1.941 . S
O502 C509 1.266 . S
H503 C505 0.959 . S
H504 C505 0.961 . S
C505 C495 1.510 . S
C505 H503 0.959 . S
C505 H504 0.961 . S
C505 H506 0.960 . S
H506 C505 0.960 . S
H507 N487 0.862 . S
O508 Co476 1.920 . S
O508 C481 1.289 . S
C509 O501 1.258 . S
C509 O502 1.266 . S
Co510 O513 1.970 . S
Co510 N527 1.989 . S
Co510 O535 1.967 . S
Co510 O542 1.920 . S
Co511 O514 1.966 . S
Co511 N520 2.022 . S
Co511 N528 1.993 . S
Co511 O536 1.941 . S
C512 O513 1.258 . S
C512 O514 1.263 . S
O513 Co510 1.970 . S
O513 C512 1.258 . S
O514 Co511 1.966 . S
O514 C512 1.263 . S
C515 O516 1.235 . S
C515 O542 1.289 . S
O516 C515 1.235 . S
C517 C519 1.400 . S
C517 N520 1.351 . S
C517 C522 1.501 . S
C518 C519 1.387 . S
C518 N521 1.341 . S
C519 C517 1.400 . S
C519 C518 1.387 . S
N520 Co511 2.022 . S
N520 C517 1.351 . S
N520 N521 1.365 . S
N521 C518 1.341 . S
N521 N520 1.365 . S
N521 H541 0.862 . S
C522 C517 1.501 . S
C522 H523 0.961 . S
C522 H524 0.961 . S
C522 H525 0.960 . S
H523 C522 0.961 . S
H524 C522 0.961 . S
H525 C522 0.960 . S
C526 N527 1.342 . S
C526 C530 1.401 . S
C526 C531 1.499 . S
N527 Co510 1.989 . S
N527 C526 1.342 . S
N527 N528 1.388 . S
N528 Co511 1.993 . S
N528 N527 1.388 . S
N528 C529 1.346 . S
C529 N528 1.346 . S
C529 C530 1.396 . S
C529 C539 1.510 . S
C530 C526 1.401 . S
C530 C529 1.396 . S
C531 C526 1.499 . S
C531 H532 0.959 . S
C531 H533 0.960 . S
C531 H534 0.961 . S
H532 C531 0.959 . S
H533 C531 0.960 . S
H534 C531 0.961 . S
O535 Co510 1.967 . S
O535 C543 1.258 . S
O536 Co511 1.941 . S
O536 C543 1.266 . S
H537 C539 0.959 . S
H538 C539 0.961 . S
C539 C529 1.510 . S
C539 H537 0.959 . S
C539 H538 0.961 . S
C539 H540 0.960 . S
H540 C539 0.960 . S
H541 N521 0.862 . S
O542 Co510 1.920 . S
O542 C515 1.289 . S
C543 O535 1.258 . S
C543 O536 1.266 . S
H544 C552 0.950 . S
H545 C557 0.950 1_655 S
H546 C554 0.950 . S
H547 C556 0.950 . S
H548 C558 0.950 . S
H549 C560 0.950 . S
H550 C562 0.950 . S
H551 C563 0.950 1_455 S
C552 H544 0.950 . S
C552 C553 1.386 . S
C552 C554 1.391 . S
C553 C552 1.386 . S
C553 C557 1.393 . S
C554 H546 0.950 . S
C554 C552 1.391 . S
C554 C555 1.400 . S
C555 C554 1.400 . S
C555 C556 1.398 1_455 S
C555 C561 1.491 1_445 S
C556 H547 0.950 . S
C556 C555 1.398 1_655 S
C556 C557 1.391 1_655 S
C557 H545 0.950 1_455 S
C557 C553 1.393 . S
C557 C556 1.391 1_455 S
C558 H548 0.950 . S
C558 C559 1.386 . S
C558 C560 1.391 . S
C559 C558 1.386 . S
C559 C563 1.393 . S
C560 H549 0.950 . S
C560 C558 1.391 . S
C560 C561 1.400 . S
C561 C555 1.491 1_665 S
C561 C560 1.400 . S
C561 C562 1.398 1_655 S
C562 H550 0.950 . S
C562 C561 1.398 1_455 S
C562 C563 1.391 1_455 S
C563 H551 0.950 1_655 S
C563 C559 1.393 . S
C563 C562 1.391 1_655 S
H564 C572 0.950 . S
H565 C577 0.950 1_545 S
H566 C574 0.950 . S
H567 C576 0.950 . S
H568 C578 0.950 . S
H569 C580 0.950 . S
H570 C582 0.950 . S
H571 C583 0.950 1_565 S
C572 H564 0.950 . S
C572 C573 1.386 . S
C572 C574 1.391 . S
C573 C572 1.386 . S
C573 C577 1.393 . S
C574 H566 0.950 . S
C574 C572 1.391 . S
C574 C575 1.400 . S
C575 C574 1.400 . S
C575 C576 1.398 1_565 S
C575 C581 1.491 1_465 S
C576 H567 0.950 . S
C576 C575 1.398 1_545 S
C576 C577 1.391 1_545 S
C577 H565 0.950 1_565 S
C577 C573 1.393 . S
C577 C576 1.391 1_565 S
C578 H568 0.950 . S
C578 C579 1.386 . S
C578 C580 1.391 . S
C579 C578 1.386 . S
C579 C583 1.393 . S
C580 H569 0.950 . S
C580 C578 1.391 . S
C580 C581 1.400 . S
C581 C575 1.491 1_645 S
C581 C580 1.400 . S
C581 C582 1.398 1_545 S
C582 H570 0.950 . S
C582 C581 1.398 1_565 S
C582 C583 1.391 1_565 S
C583 H571 0.950 1_545 S
C583 C579 1.393 . S
C583 C582 1.391 1_545 S
H584 C592 0.950 . S
H585 C597 0.950 . S
H586 C594 0.950 . S
H587 C596 0.950 . S
H588 C598 0.950 . S
H589 C600 0.950 . S
H590 C602 0.950 . S
H591 C603 0.950 . S
C592 H584 0.950 . S
C592 C593 1.386 . S
C592 C594 1.391 . S
C593 C592 1.386 . S
C593 C597 1.393 . S
C594 H586 0.950 . S
C594 C592 1.391 . S
C594 C595 1.400 . S
C595 C594 1.400 . S
C595 C596 1.398 . S
C595 C601 1.491 . S
C596 H587 0.950 . S
C596 C595 1.398 . S
C596 C597 1.391 . S
C597 H585 0.950 . S
C597 C593 1.393 . S
C597 C596 1.391 . S
C598 H588 0.950 . S
C598 C599 1.386 . S
C598 C600 1.391 . S
C599 C598 1.386 . S
C599 C603 1.393 . S
C600 H589 0.950 . S
C600 C598 1.391 . S
C600 C601 1.400 . S
C601 C595 1.491 . S
C601 C600 1.400 . S
C601 C602 1.398 . S
C602 H590 0.950 . S
C602 C601 1.398 . S
C602 C603 1.391 . S
C603 H591 0.950 . S
C603 C599 1.393 . S
C603 C602 1.391 . S
H604 C612 0.950 . S
H605 C617 0.950 . S
H606 C614 0.950 . S
H607 C616 0.950 . S
H608 C618 0.950 . S
H609 C620 0.950 . S
H610 C622 0.950 . S
H611 C623 0.950 . S
C612 H604 0.950 . S
C612 C613 1.386 . S
C612 C614 1.391 . S
C613 C612 1.386 . S
C613 C617 1.393 . S
C614 H606 0.950 . S
C614 C612 1.391 . S
C614 C615 1.400 . S
C615 C614 1.400 . S
C615 C616 1.398 . S
C615 C621 1.491 . S
C616 H607 0.950 . S
C616 C615 1.398 . S
C616 C617 1.391 . S
C617 H605 0.950 . S
C617 C613 1.393 . S
C617 C616 1.391 . S
C618 H608 0.950 . S
C618 C619 1.386 . S
C618 C620 1.391 . S
C619 C618 1.386 . S
C619 C623 1.393 . S
C620 H609 0.950 . S
C620 C618 1.391 . S
C620 C621 1.400 . S
C621 C615 1.491 . S
C621 C620 1.400 . S
C621 C622 1.398 . S
C622 H610 0.950 . S
C622 C621 1.398 . S
C622 C623 1.391 . S
C623 H611 0.950 . S
C623 C619 1.393 . S
C623 C622 1.391 . S
H624 C632 0.950 . S
H625 C637 0.950 1_655 S
H626 C634 0.950 . S
H627 C636 0.950 . S
H628 C638 0.950 . S
H629 C640 0.950 . S
H630 C642 0.950 . S
H631 C643 0.950 1_455 S
C632 H624 0.950 . S
C632 C633 1.386 . S
C632 C634 1.391 . S
C633 C632 1.386 . S
C633 C637 1.393 . S
C634 H626 0.950 . S
C634 C632 1.391 . S
C634 C635 1.400 . S
C635 C634 1.400 . S
C635 C636 1.398 1_455 S
C635 C641 1.491 1_445 S
C636 H627 0.950 . S
C636 C635 1.398 1_655 S
C636 C637 1.391 1_655 S
C637 H625 0.950 1_455 S
C637 C633 1.393 . S
C637 C636 1.391 1_455 S
C638 H628 0.950 . S
C638 C639 1.386 . S
C638 C640 1.391 . S
C639 C638 1.386 . S
C639 C643 1.393 . S
C640 H629 0.950 . S
C640 C638 1.391 . S
C640 C641 1.400 . S
C641 C635 1.491 1_665 S
C641 C640 1.400 . S
C641 C642 1.398 1_655 S
C642 H630 0.950 . S
C642 C641 1.398 1_455 S
C642 C643 1.391 1_455 S
C643 H631 0.950 1_655 S
C643 C639 1.393 . S
C643 C642 1.391 1_655 S
H644 C652 0.950 . S
H645 C657 0.950 1_545 S
H646 C654 0.950 . S
H647 C656 0.950 . S
H648 C658 0.950 . S
H649 C660 0.950 . S
H650 C662 0.950 . S
H651 C663 0.950 1_565 S
C652 H644 0.950 . S
C652 C653 1.386 . S
C652 C654 1.391 . S
C653 C652 1.386 . S
C653 C657 1.393 . S
C654 H646 0.950 . S
C654 C652 1.391 . S
C654 C655 1.400 . S
C655 C654 1.400 . S
C655 C656 1.398 1_565 S
C655 C661 1.491 1_465 S
C656 H647 0.950 . S
C656 C655 1.398 1_545 S
C656 C657 1.391 1_545 S
C657 H645 0.950 1_565 S
C657 C653 1.393 . S
C657 C656 1.391 1_565 S
C658 H648 0.950 . S
C658 C659 1.386 . S
C658 C660 1.391 . S
C659 C658 1.386 . S
C659 C663 1.393 . S
C660 H649 0.950 . S
C660 C658 1.391 . S
C660 C661 1.400 . S
C661 C655 1.491 1_645 S
C661 C660 1.400 . S
C661 C662 1.398 1_545 S
C662 H650 0.950 . S
C662 C661 1.398 1_565 S
C662 C663 1.391 1_565 S
C663 H651 0.950 1_545 S
C663 C659 1.393 . S
C663 C662 1.391 1_545 S
H664 C672 0.950 . S
H665 C677 0.950 . S
H666 C674 0.950 . S
H667 C676 0.950 . S
H668 C678 0.950 . S
H669 C680 0.950 . S
H670 C682 0.950 . S
H671 C683 0.950 . S
C672 H664 0.950 . S
C672 C673 1.386 . S
C672 C674 1.391 . S
C673 C672 1.386 . S
C673 C677 1.393 . S
C674 H666 0.950 . S
C674 C672 1.391 . S
C674 C675 1.400 . S
C675 C674 1.400 . S
C675 C676 1.398 . S
C675 C681 1.491 . S
C676 H667 0.950 . S
C676 C675 1.398 . S
C676 C677 1.391 . S
C677 H665 0.950 . S
C677 C673 1.393 . S
C677 C676 1.391 . S
C678 H668 0.950 . S
C678 C679 1.386 . S
C678 C680 1.391 . S
C679 C678 1.386 . S
C679 C683 1.393 . S
C680 H669 0.950 . S
C680 C678 1.391 . S
C680 C681 1.400 . S
C681 C675 1.491 . S
C681 C680 1.400 . S
C681 C682 1.398 . S
C682 H670 0.950 . S
C682 C681 1.398 . S
C682 C683 1.391 . S
C683 H671 0.950 . S
C683 C679 1.393 . S
C683 C682 1.391 . S
H684 C692 0.950 . S
H685 C697 0.950 . S
H686 C694 0.950 . S
H687 C696 0.950 . S
H688 C698 0.950 . S
H689 C700 0.950 . S
H690 C702 0.950 . S
H691 C703 0.950 . S
C692 H684 0.950 . S
C692 C693 1.386 . S
C692 C694 1.391 . S
C693 C692 1.386 . S
C693 C697 1.393 . S
C694 H686 0.950 . S
C694 C692 1.391 . S
C694 C695 1.400 . S
C695 C694 1.400 . S
C695 C696 1.398 . S
C695 C701 1.491 . S
C696 H687 0.950 . S
C696 C695 1.398 . S
C696 C697 1.391 . S
C697 H685 0.950 . S
C697 C693 1.393 . S
C697 C696 1.391 . S
C698 H688 0.950 . S
C698 C699 1.386 . S
C698 C700 1.391 . S
C699 C698 1.386 . S
C699 C703 1.393 . S
C700 H689 0.950 . S
C700 C698 1.391 . S
C700 C701 1.400 . S
C701 C695 1.491 . S
C701 C700 1.400 . S
C701 C702 1.398 . S
C702 H690 0.950 . S
C702 C701 1.398 . S
C702 C703 1.391 . S
C703 H691 0.950 . S
C703 C699 1.393 . S
C703 C702 1.391 . S
H704 C712 0.950 . S
H705 C717 0.950 . S
H706 C714 0.950 . S
H707 C716 0.958 . S
H708 C718 0.950 . S
H709 C720 0.950 . S
H710 C722 0.950 . S
H711 C723 0.950 . S
C712 H704 0.950 . S
C712 C713 1.386 . S
C712 C714 1.391 1_554 S
C713 C712 1.386 . S
C713 C717 1.393 . S
C714 H706 0.950 . S
C714 C712 1.391 1_556 S
C714 C715 1.400 . S
C715 C714 1.400 . S
C715 C716 1.408 . S
C715 C721 1.491 . S
C716 H707 0.958 . S
C716 C715 1.408 . S
C716 C717 1.373 1_556 S
C717 H705 0.950 . S
C717 C713 1.393 . S
C717 C716 1.373 1_554 S
C718 H708 0.950 . S
C718 C719 1.386 . S
C718 C720 1.391 . S
C719 C718 1.386 . S
C719 C723 1.393 . S
C720 H709 0.950 . S
C720 C718 1.391 . S
C720 C721 1.400 . S
C721 C715 1.491 . S
C721 C720 1.400 . S
C721 C722 1.398 . S
C722 H710 0.950 . S
C722 C721 1.398 . S
C722 C723 1.391 . S
C723 H711 0.950 . S
C723 C719 1.393 . S
C723 C722 1.391 . S
H724 C732 0.950 . S
H725 C737 0.950 . S
H726 C734 0.950 . S
H727 C736 0.950 . S
H728 C738 0.950 . S
H729 C740 0.950 . S
H730 C742 0.950 . S
H731 C743 0.950 . S
C732 H724 0.950 . S
C732 C733 1.386 . S
C732 C734 1.391 . S
C733 C732 1.386 . S
C733 C737 1.393 . S
C734 H726 0.950 . S
C734 C732 1.391 . S
C734 C735 1.400 . S
C735 C734 1.400 . S
C735 C736 1.398 . S
C735 C741 1.491 . S
C736 H727 0.950 . S
C736 C735 1.398 . S
C736 C737 1.391 . S
C737 H725 0.950 . S
C737 C733 1.393 . S
C737 C736 1.391 . S
C738 H728 0.950 . S
C738 C739 1.386 . S
C738 C740 1.391 . S
C739 C738 1.386 . S
C739 C743 1.393 . S
C740 H729 0.950 . S
C740 C738 1.391 . S
C740 C741 1.400 . S
C741 C735 1.491 . S
C741 C740 1.400 . S
C741 C742 1.398 . S
C742 H730 0.950 . S
C742 C741 1.398 . S
C742 C743 1.391 . S
C743 H731 0.950 . S
C743 C739 1.393 . S
C743 C742 1.391 . S
H744 C752 0.950 . S
H745 C757 0.950 . S
H746 C754 0.950 . S
H747 C756 0.950 . S
H748 C758 0.950 . S
H749 C760 0.964 . S
H750 C762 0.950 . S
H751 C763 0.950 . S
C752 H744 0.950 . S
C752 C753 1.386 . S
C752 C754 1.391 . S
C753 C752 1.386 . S
C753 C757 1.393 . S
C754 H746 0.950 . S
C754 C752 1.391 . S
C754 C755 1.400 . S
C755 C754 1.400 . S
C755 C756 1.398 . S
C755 C761 1.491 . S
C756 H747 0.950 . S
C756 C755 1.398 . S
C756 C757 1.391 . S
C757 H745 0.950 . S
C757 C753 1.393 . S
C757 C756 1.391 . S
C758 H748 0.950 . S
C758 C759 1.386 . S
C758 C760 1.362 1_554 S
C759 C758 1.386 . S
C759 C763 1.393 . S
C760 H749 0.964 . S
C760 C758 1.362 1_556 S
C760 C761 1.416 . S
C761 C755 1.491 . S
C761 C760 1.416 . S
C761 C762 1.398 . S
C762 H750 0.950 . S
C762 C761 1.398 . S
C762 C763 1.391 1_556 S
C763 H751 0.950 . S
C763 C759 1.393 . S
C763 C762 1.391 1_554 S
H764 C772 0.950 . S
H765 C777 0.950 . S
H766 C774 0.950 . S
H767 C776 0.950 . S
H768 C778 0.950 . S
H769 C780 0.950 . S
H770 C782 0.950 . S
H771 C783 0.950 . S
C772 H764 0.950 . S
C772 C773 1.386 . S
C772 C774 1.391 . S
C773 C772 1.386 . S
C773 C777 1.393 . S
C774 H766 0.950 . S
C774 C772 1.391 . S
C774 C775 1.400 . S
C775 C774 1.400 . S
C775 C776 1.398 . S
C775 C781 1.491 . S
C776 H767 0.950 . S
C776 C775 1.398 . S
C776 C777 1.391 . S
C777 H765 0.950 . S
C777 C773 1.393 . S
C777 C776 1.391 . S
C778 H768 0.950 . S
C778 C779 1.386 . S
C778 C780 1.391 . S
C779 C778 1.386 . S
C779 C783 1.393 . S
C780 H769 0.950 . S
C780 C778 1.391 . S
C780 C781 1.400 . S
C781 C775 1.491 . S
C781 C780 1.400 . S
C781 C782 1.398 . S
C782 H770 0.950 . S
C782 C781 1.398 . S
C782 C783 1.391 . S
C783 H771 0.950 . S
C783 C779 1.393 . S
C783 C782 1.391 . S
H784 C792 0.950 . S
H785 C797 0.950 . S
H786 C794 0.950 . S
H787 C796 0.950 . S
H788 C798 0.950 . S
H789 C800 0.972 . S
H790 C802 0.978 . S
H791 C803 0.950 . S
C792 H784 0.950 . S
C792 C793 1.386 . S
C792 C794 1.391 . S
C793 C792 1.386 . S
C793 C797 1.393 . S
C794 H786 0.950 . S
C794 C792 1.391 . S
C794 C795 1.400 . S
C795 C794 1.400 . S
C795 C796 1.398 . S
C795 C801 1.491 . S
C796 H787 0.950 . S
C796 C795 1.398 . S
C796 C797 1.391 . S
C797 H785 0.950 . S
C797 C793 1.393 . S
C797 C796 1.391 . S
C798 H788 0.950 . S
C798 C799 1.386 . S
C798 C800 1.348 1_556 S
C799 C798 1.386 . S
C799 C803 1.393 . S
C800 H789 0.972 . S
C800 C798 1.348 1_554 S
C800 C801 1.423 . S
C801 C795 1.491 . S
C801 C800 1.423 . S
C801 C802 1.427 . S
C802 H790 0.978 . S
C802 C801 1.427 . S
C802 C803 1.336 1_554 S
C803 H791 0.950 . S
C803 C799 1.393 . S
C803 C802 1.336 1_556 S
H804 C812 0.950 . S
H805 C817 0.950 . S
H806 C814 0.950 . S
H807 C816 0.950 . S
H808 C818 0.950 . S
H809 C820 0.950 . S
H810 C822 0.950 . S
H811 C823 0.950 . S
C812 H804 0.950 . S
C812 C813 1.386 . S
C812 C814 1.391 . S
C813 C812 1.386 . S
C813 C817 1.393 . S
C814 H806 0.950 . S
C814 C812 1.391 . S
C814 C815 1.400 . S
C815 C814 1.400 . S
C815 C816 1.398 . S
C815 C821 1.491 . S
C816 H807 0.950 . S
C816 C815 1.398 . S
C816 C817 1.391 . S
C817 H805 0.950 . S
C817 C813 1.393 . S
C817 C816 1.391 . S
C818 H808 0.950 . S
C818 C819 1.386 . S
C818 C820 1.391 . S
C819 C818 1.386 . S
C819 C823 1.393 . S
C820 H809 0.950 . S
C820 C818 1.391 . S
C820 C821 1.400 . S
C821 C815 1.491 . S
C821 C820 1.400 . S
C821 C822 1.398 . S
C822 H810 0.950 . S
C822 C821 1.398 . S
C822 C823 1.391 . S
C823 H811 0.950 . S
C823 C819 1.393 . S
C823 C822 1.391 . S
H824 C832 0.950 . S
H825 C837 0.950 . S
H826 C834 0.950 . S
H827 C836 0.950 . S
H828 C838 0.950 . S
H829 C840 0.970 . S
H830 C842 0.950 . S
H831 C843 0.950 . S
C832 H824 0.950 . S
C832 C833 1.386 . S
C832 C834 1.391 . S
C833 C832 1.386 . S
C833 C837 1.393 . S
C834 H826 0.950 . S
C834 C832 1.391 . S
C834 C835 1.400 . S
C835 C834 1.400 . S
C835 C836 1.398 . S
C835 C841 1.491 . S
C836 H827 0.950 . S
C836 C835 1.398 . S
C836 C837 1.391 . S
C837 H825 0.950 . S
C837 C833 1.393 . S
C837 C836 1.391 . S
C838 H828 0.950 . S
C838 C839 1.386 . S
C838 C840 1.350 1_556 S
C839 C838 1.386 . S
C839 C843 1.393 . S
C840 H829 0.970 . S
C840 C838 1.350 1_554 S
C840 C841 1.422 . S
C841 C835 1.491 . S
C841 C840 1.422 . S
C841 C842 1.398 . S
C842 H830 0.950 . S
C842 C841 1.398 . S
C842 C843 1.391 1_554 S
C843 H831 0.950 . S
C843 C839 1.393 . S
C843 C842 1.391 1_556 S
H844 C852 0.950 . S
H845 C857 0.950 . S
H846 C854 0.950 . S
H847 C856 0.950 . S
H848 C858 0.950 . S
H849 C860 0.950 . S
H850 C862 0.950 . S
H851 C863 0.950 . S
C852 H844 0.950 . S
C852 C853 1.386 . S
C852 C854 1.391 . S
C853 C852 1.386 . S
C853 C857 1.393 . S
C854 H846 0.950 . S
C854 C852 1.391 . S
C854 C855 1.400 . S
C855 C854 1.400 . S
C855 C856 1.398 . S
C855 C861 1.491 . S
C856 H847 0.950 . S
C856 C855 1.398 . S
C856 C857 1.391 . S
C857 H845 0.950 . S
C857 C853 1.393 . S
C857 C856 1.391 . S
C858 H848 0.950 . S
C858 C859 1.386 . S
C858 C860 1.391 . S
C859 C858 1.386 . S
C859 C863 1.393 . S
C860 H849 0.950 . S
C860 C858 1.391 . S
C860 C861 1.400 . S
C861 C855 1.491 . S
C861 C860 1.400 . S
C861 C862 1.398 . S
C862 H850 0.950 . S
C862 C861 1.398 . S
C862 C863 1.391 . S
C863 H851 0.950 . S
C863 C859 1.393 . S
C863 C862 1.391 . S
H864 C872 0.950 . S
H865 C877 0.950 . S
H866 C874 0.950 . S
H867 C876 0.950 . S
H868 C878 0.950 . S
H869 C880 0.950 . S
H870 C882 0.950 . S
H871 C883 0.950 . S
C872 H864 0.950 . S
C872 C873 1.386 . S
C872 C874 1.391 . S
C873 C872 1.386 . S
C873 C877 1.393 . S
C874 H866 0.950 . S
C874 C872 1.391 . S
C874 C875 1.400 . S
C875 C874 1.400 . S
C875 C876 1.398 . S
C875 C881 1.491 . S
C876 H867 0.950 . S
C876 C875 1.398 . S
C876 C877 1.391 . S
C877 H865 0.950 . S
C877 C873 1.393 . S
C877 C876 1.391 . S
C878 H868 0.950 . S
C878 C879 1.386 . S
C878 C880 1.391 . S
C879 C878 1.386 . S
C879 C883 1.393 . S
C880 H869 0.950 . S
C880 C878 1.391 . S
C880 C881 1.400 . S
C881 C875 1.491 . S
C881 C880 1.400 . S
C881 C882 1.398 . S
C882 H870 0.950 . S
C882 C881 1.398 . S
C882 C883 1.391 . S
C883 H871 0.950 . S
C883 C879 1.393 . S
C883 C882 1.391 . S
H884 C892 0.950 . S
H885 C897 0.950 . S
H886 C894 0.950 . S
H887 C896 0.950 . S
H888 C898 0.950 . S
H889 C900 0.950 . S
H890 C902 0.950 . S
H891 C903 0.950 . S
C892 H884 0.950 . S
C892 C893 1.386 . S
C892 C894 1.391 . S
C893 C892 1.386 . S
C893 C897 1.393 . S
C894 H886 0.950 . S
C894 C892 1.391 . S
C894 C895 1.400 . S
C895 C894 1.400 . S
C895 C896 1.398 . S
C895 C901 1.491 . S
C896 H887 0.950 . S
C896 C895 1.398 . S
C896 C897 1.391 . S
C897 H885 0.950 . S
C897 C893 1.393 . S
C897 C896 1.391 . S
C898 H888 0.950 . S
C898 C899 1.386 . S
C898 C900 1.391 . S
C899 C898 1.386 . S
C899 C903 1.393 . S
C900 H889 0.950 . S
C900 C898 1.391 . S
C900 C901 1.400 . S
C901 C895 1.491 . S
C901 C900 1.400 . S
C901 C902 1.398 . S
C902 H890 0.950 . S
C902 C901 1.398 . S
C902 C903 1.391 . S
C903 H891 0.950 . S
C903 C899 1.393 . S
C903 C902 1.391 . S
H904 C912 0.950 . S
H905 C917 0.950 . S
H906 C914 0.950 . S
H907 C916 0.950 . S
H908 C918 0.950 . S
H909 C920 0.950 . S
H910 C922 0.950 . S
H911 C923 0.950 . S
C912 H904 0.950 . S
C912 C913 1.386 . S
C912 C914 1.391 . S
C913 C912 1.386 . S
C913 C917 1.393 . S
C914 H906 0.950 . S
C914 C912 1.391 . S
C914 C915 1.400 . S
C915 C914 1.400 . S
C915 C916 1.398 . S
C915 C921 1.491 . S
C916 H907 0.950 . S
C916 C915 1.398 . S
C916 C917 1.391 . S
C917 H905 0.950 . S
C917 C913 1.393 . S
C917 C916 1.391 . S
C918 H908 0.950 . S
C918 C919 1.386 . S
C918 C920 1.391 . S
C919 C918 1.386 . S
C919 C923 1.393 . S
C920 H909 0.950 . S
C920 C918 1.391 . S
C920 C921 1.400 . S
C921 C915 1.491 . S
C921 C920 1.400 . S
C921 C922 1.398 . S
C922 H910 0.950 . S
C922 C921 1.398 . S
C922 C923 1.391 . S
C923 H911 0.950 . S
C923 C919 1.393 . S
C923 C922 1.391 . S
H924 C932 0.950 . S
H925 C937 0.950 . S
H926 C934 0.950 . S
H927 C936 0.950 . S
H928 C938 0.950 . S
H929 C940 0.950 . S
H930 C942 0.950 . S
H931 C943 0.950 . S
C932 H924 0.950 . S
C932 C933 1.386 . S
C932 C934 1.391 . S
C933 C932 1.386 . S
C933 C937 1.393 . S
C934 H926 0.950 . S
C934 C932 1.391 . S
C934 C935 1.400 . S
C935 C934 1.400 . S
C935 C936 1.398 . S
C935 C941 1.491 . S
C936 H927 0.950 . S
C936 C935 1.398 . S
C936 C937 1.391 . S
C937 H925 0.950 . S
C937 C933 1.393 . S
C937 C936 1.391 . S
C938 H928 0.950 . S
C938 C939 1.386 . S
C938 C940 1.391 . S
C939 C938 1.386 . S
C939 C943 1.393 . S
C940 H929 0.950 . S
C940 C938 1.391 . S
C940 C941 1.400 . S
C941 C935 1.491 . S
C941 C940 1.400 . S
C941 C942 1.398 . S
C942 H930 0.950 . S
C942 C941 1.398 . S
C942 C943 1.391 . S
C943 H931 0.950 . S
C943 C939 1.393 . S
C943 C942 1.391 . S
H944 C952 0.950 . S
H945 C957 0.950 . S
H946 C954 0.950 . S
H947 C956 0.950 . S
H948 C958 0.950 . S
H949 C960 0.950 . S
H950 C962 0.950 . S
H951 C963 0.950 . S
C952 H944 0.950 . S
C952 C953 1.386 . S
C952 C954 1.391 . S
C953 C952 1.386 . S
C953 C957 1.393 . S
C954 H946 0.950 . S
C954 C952 1.391 . S
C954 C955 1.400 . S
C955 C954 1.400 . S
C955 C956 1.398 . S
C955 C961 1.491 . S
C956 H947 0.950 . S
C956 C955 1.398 . S
C956 C957 1.391 . S
C957 H945 0.950 . S
C957 C953 1.393 . S
C957 C956 1.391 . S
C958 H948 0.950 . S
C958 C959 1.386 . S
C958 C960 1.391 . S
C959 C958 1.386 . S
C959 C963 1.393 . S
C960 H949 0.950 . S
C960 C958 1.391 . S
C960 C961 1.400 . S
C961 C955 1.491 . S
C961 C960 1.400 . S
C961 C962 1.398 . S
C962 H950 0.950 . S
C962 C961 1.398 . S
C962 C963 1.391 . S
C963 H951 0.950 . S
C963 C959 1.393 . S
C963 C962 1.391 . S
H964 C972 0.950 . S
H965 C977 0.950 . S
H966 C974 0.950 . S
H967 C976 0.950 . S
H968 C978 0.950 . S
H969 C980 0.950 . S
H970 C982 0.950 . S
H971 C983 0.950 . S
C972 H964 0.950 . S
C972 C973 1.386 . S
C972 C974 1.391 . S
C973 C972 1.386 . S
C973 C977 1.393 . S
C974 H966 0.950 . S
C974 C972 1.391 . S
C974 C975 1.400 . S
C975 C974 1.400 . S
C975 C976 1.398 . S
C975 C981 1.491 . S
C976 H967 0.950 . S
C976 C975 1.398 . S
C976 C977 1.391 . S
C977 H965 0.950 . S
C977 C973 1.393 . S
C977 C976 1.391 . S
C978 H968 0.950 . S
C978 C979 1.386 . S
C978 C980 1.391 . S
C979 C978 1.386 . S
C979 C983 1.393 . S
C980 H969 0.950 . S
C980 C978 1.391 . S
C980 C981 1.400 . S
C981 C975 1.491 . S
C981 C980 1.400 . S
C981 C982 1.398 . S
C982 H970 0.950 . S
C982 C981 1.398 . S
C982 C983 1.391 . S
C983 H971 0.950 . S
C983 C979 1.393 . S
C983 C982 1.391 . S
H984 C992 0.950 . S
H985 C997 0.950 . S
H986 C994 0.950 . S
H987 C996 0.950 . S
H988 C998 0.950 . S
H989 C1000 0.950 . S
H990 C1002 0.950 . S
H991 C1003 0.950 . S
C992 H984 0.950 . S
C992 C993 1.386 . S
C992 C994 1.391 . S
C993 C992 1.386 . S
C993 C997 1.393 . S
C994 H986 0.950 . S
C994 C992 1.391 . S
C994 C995 1.400 . S
C995 C994 1.400 . S
C995 C996 1.398 . S
C995 C1001 1.491 . S
C996 H987 0.950 . S
C996 C995 1.398 . S
C996 C997 1.391 . S
C997 H985 0.950 . S
C997 C993 1.393 . S
C997 C996 1.391 . S
C998 H988 0.950 . S
C998 C999 1.386 . S
C998 C1000 1.391 . S
C999 C998 1.386 . S
C999 C1003 1.393 . S
C1000 H989 0.950 . S
C1000 C998 1.391 . S
C1000 C1001 1.400 . S
C1001 C995 1.491 . S
C1001 C1000 1.400 . S
C1001 C1002 1.398 . S
C1002 H990 0.950 . S
C1002 C1001 1.398 . S
C1002 C1003 1.391 . S
C1003 H991 0.950 . S
C1003 C999 1.393 . S
C1003 C1002 1.391 . S
H1004 C1012 0.950 . S
H1005 C1017 0.950 . S
H1006 C1014 0.950 . S
H1007 C1016 0.950 . S
H1008 C1018 0.950 . S
H1009 C1020 0.950 . S
H1010 C1022 0.950 . S
H1011 C1023 0.950 . S
C1012 H1004 0.950 . S
C1012 C1013 1.386 . S
C1012 C1014 1.391 . S
C1013 C1012 1.386 . S
C1013 C1017 1.393 . S
C1014 H1006 0.950 . S
C1014 C1012 1.391 . S
C1014 C1015 1.400 . S
C1015 C1014 1.400 . S
C1015 C1016 1.398 . S
C1015 C1021 1.491 . S
C1016 H1007 0.950 . S
C1016 C1015 1.398 . S
C1016 C1017 1.391 . S
C1017 H1005 0.950 . S
C1017 C1013 1.393 . S
C1017 C1016 1.391 . S
C1018 H1008 0.950 . S
C1018 C1019 1.386 . S
C1018 C1020 1.391 . S
C1019 C1018 1.386 . S
C1019 C1023 1.393 . S
C1020 H1009 0.950 . S
C1020 C1018 1.391 . S
C1020 C1021 1.400 . S
C1021 C1015 1.491 . S
C1021 C1020 1.400 . S
C1021 C1022 1.398 . S
C1022 H1010 0.950 . S
C1022 C1021 1.398 . S
C1022 C1023 1.391 . S
C1023 H1011 0.950 . S
C1023 C1019 1.393 . S
C1023 C1022 1.391 . S
H1024 C1032 0.950 . S
H1025 C1037 0.950 . S
H1026 C1034 0.950 . S
H1027 C1036 0.950 . S
H1028 C1038 0.950 . S
H1029 C1040 0.950 . S
H1030 C1042 0.950 . S
H1031 C1043 0.950 . S
C1032 H1024 0.950 . S
C1032 C1033 1.386 . S
C1032 C1034 1.391 . S
C1033 C1032 1.386 . S
C1033 C1037 1.393 . S
C1034 H1026 0.950 . S
C1034 C1032 1.391 . S
C1034 C1035 1.400 . S
C1035 C1034 1.400 . S
C1035 C1036 1.398 . S
C1035 C1041 1.491 . S
C1036 H1027 0.950 . S
C1036 C1035 1.398 . S
C1036 C1037 1.391 . S
C1037 H1025 0.950 . S
C1037 C1033 1.393 . S
C1037 C1036 1.391 . S
C1038 H1028 0.950 . S
C1038 C1039 1.386 . S
C1038 C1040 1.391 . S
C1039 C1038 1.386 . S
C1039 C1043 1.393 . S
C1040 H1029 0.950 . S
C1040 C1038 1.391 . S
C1040 C1041 1.400 . S
C1041 C1035 1.491 . S
C1041 C1040 1.400 . S
C1041 C1042 1.398 . S
C1042 H1030 0.950 . S
C1042 C1041 1.398 . S
C1042 C1043 1.391 . S
C1043 H1031 0.950 . S
C1043 C1039 1.393 . S
C1043 C1042 1.391 . S
H1044 C1052 0.950 . S
H1045 C1057 0.950 . S
H1046 C1054 0.950 . S
H1047 C1056 0.950 . S
H1048 C1058 0.950 . S
H1049 C1060 0.950 . S
H1050 C1062 0.950 . S
H1051 C1063 0.950 . S
C1052 H1044 0.950 . S
C1052 C1053 1.386 . S
C1052 C1054 1.391 . S
C1053 C1052 1.386 . S
C1053 C1057 1.393 . S
C1054 H1046 0.950 . S
C1054 C1052 1.391 . S
C1054 C1055 1.400 . S
C1055 C1054 1.400 . S
C1055 C1056 1.398 . S
C1055 C1061 1.491 . S
C1056 H1047 0.950 . S
C1056 C1055 1.398 . S
C1056 C1057 1.391 . S
C1057 H1045 0.950 . S
C1057 C1053 1.393 . S
C1057 C1056 1.391 . S
C1058 H1048 0.950 . S
C1058 C1059 1.386 . S
C1058 C1060 1.391 . S
C1059 C1058 1.386 . S
C1059 C1063 1.393 . S
C1060 H1049 0.950 . S
C1060 C1058 1.391 . S
C1060 C1061 1.400 . S
C1061 C1055 1.491 . S
C1061 C1060 1.400 . S
C1061 C1062 1.398 . S
C1062 H1050 0.950 . S
C1062 C1061 1.398 . S
C1062 C1063 1.391 . S
C1063 H1051 0.950 . S
C1063 C1059 1.393 . S
C1063 C1062 1.391 . S
H1064 C1072 0.950 . S
H1065 C1077 0.950 . S
H1066 C1074 0.950 . S
H1067 C1076 0.950 . S
H1068 C1078 0.950 . S
H1069 C1080 0.950 . S
H1070 C1082 0.950 . S
H1071 C1083 0.950 . S
C1072 H1064 0.950 . S
C1072 C1073 1.386 . S
C1072 C1074 1.391 . S
C1073 C1072 1.386 . S
C1073 C1077 1.393 . S
C1074 H1066 0.950 . S
C1074 C1072 1.391 . S
C1074 C1075 1.400 . S
C1075 C1074 1.400 . S
C1075 C1076 1.398 . S
C1075 C1081 1.491 . S
C1076 H1067 0.950 . S
C1076 C1075 1.398 . S
C1076 C1077 1.391 . S
C1077 H1065 0.950 . S
C1077 C1073 1.393 . S
C1077 C1076 1.391 . S
C1078 H1068 0.950 . S
C1078 C1079 1.386 . S
C1078 C1080 1.391 . S
C1079 C1078 1.386 . S
C1079 C1083 1.393 . S
C1080 H1069 0.950 . S
C1080 C1078 1.391 . S
C1080 C1081 1.400 . S
C1081 C1075 1.491 . S
C1081 C1080 1.400 . S
C1081 C1082 1.398 . S
C1082 H1070 0.950 . S
C1082 C1081 1.398 . S
C1082 C1083 1.391 . S
C1083 H1071 0.950 . S
C1083 C1079 1.393 . S
C1083 C1082 1.391 . S
H1084 C1092 0.950 . S
H1085 C1097 0.950 . S
H1086 C1094 0.950 . S
H1087 C1096 0.950 . S
H1088 C1098 0.950 . S
H1089 C1100 0.950 . S
H1090 C1102 0.950 . S
H1091 C1103 0.950 . S
C1092 H1084 0.950 . S
C1092 C1093 1.386 . S
C1092 C1094 1.391 . S
C1093 C1092 1.386 . S
C1093 C1097 1.393 . S
C1094 H1086 0.950 . S
C1094 C1092 1.391 . S
C1094 C1095 1.400 . S
C1095 C1094 1.400 . S
C1095 C1096 1.398 . S
C1095 C1101 1.491 . S
C1096 H1087 0.950 . S
C1096 C1095 1.398 . S
C1096 C1097 1.391 . S
C1097 H1085 0.950 . S
C1097 C1093 1.393 . S
C1097 C1096 1.391 . S
C1098 H1088 0.950 . S
C1098 C1099 1.386 . S
C1098 C1100 1.391 . S
C1099 C1098 1.386 . S
C1099 C1103 1.393 . S
C1100 H1089 0.950 . S
C1100 C1098 1.391 . S
C1100 C1101 1.400 . S
C1101 C1095 1.491 . S
C1101 C1100 1.400 . S
C1101 C1102 1.398 . S
C1102 H1090 0.950 . S
C1102 C1101 1.398 . S
C1102 C1103 1.391 . S
C1103 H1091 0.950 . S
C1103 C1099 1.393 . S
C1103 C1102 1.391 . S
H1104 C1112 0.950 . S
H1105 C1117 0.950 . S
H1106 C1114 0.950 . S
H1107 C1116 0.950 . S
H1108 C1118 0.950 . S
H1109 C1120 0.950 . S
H1110 C1122 0.950 . S
H1111 C1123 0.950 . S
C1112 H1104 0.950 . S
C1112 C1113 1.386 . S
C1112 C1114 1.391 . S
C1113 C1112 1.386 . S
C1113 C1117 1.393 . S
C1114 H1106 0.950 . S
C1114 C1112 1.391 . S
C1114 C1115 1.400 . S
C1115 C1114 1.400 . S
C1115 C1116 1.398 . S
C1115 C1121 1.491 . S
C1116 H1107 0.950 . S
C1116 C1115 1.398 . S
C1116 C1117 1.391 . S
C1117 H1105 0.950 . S
C1117 C1113 1.393 . S
C1117 C1116 1.391 . S
C1118 H1108 0.950 . S
C1118 C1119 1.386 . S
C1118 C1120 1.391 . S
C1119 C1118 1.386 . S
C1119 C1123 1.393 . S
C1120 H1109 0.950 . S
C1120 C1118 1.391 . S
C1120 C1121 1.400 . S
C1121 C1115 1.491 . S
C1121 C1120 1.400 . S
C1121 C1122 1.398 . S
C1122 H1110 0.950 . S
C1122 C1121 1.398 . S
C1122 C1123 1.391 . S
C1123 H1111 0.950 . S
C1123 C1119 1.393 . S
C1123 C1122 1.391 . S
H1124 C1132 0.950 . S
H1125 C1137 0.950 . S
H1126 C1134 0.950 . S
H1127 C1136 0.950 . S
H1128 C1138 0.950 . S
H1129 C1140 0.950 . S
H1130 C1142 0.950 . S
H1131 C1143 0.950 . S
C1132 H1124 0.950 . S
C1132 C1133 1.386 . S
C1132 C1134 1.391 . S
C1133 C1132 1.386 . S
C1133 C1137 1.393 . S
C1134 H1126 0.950 . S
C1134 C1132 1.391 . S
C1134 C1135 1.400 . S
C1135 C1134 1.400 . S
C1135 C1136 1.398 . S
C1135 C1141 1.491 . S
C1136 H1127 0.950 . S
C1136 C1135 1.398 . S
C1136 C1137 1.391 . S
C1137 H1125 0.950 . S
C1137 C1133 1.393 . S
C1137 C1136 1.391 . S
C1138 H1128 0.950 . S
C1138 C1139 1.386 . S
C1138 C1140 1.391 . S
C1139 C1138 1.386 . S
C1139 C1143 1.393 . S
C1140 H1129 0.950 . S
C1140 C1138 1.391 . S
C1140 C1141 1.400 . S
C1141 C1135 1.491 . S
C1141 C1140 1.400 . S
C1141 C1142 1.398 . S
C1142 H1130 0.950 . S
C1142 C1141 1.398 . S
C1142 C1143 1.391 . S
C1143 H1131 0.950 . S
C1143 C1139 1.393 . S
C1143 C1142 1.391 . S
H1144 C1152 0.950 . S
H1145 C1157 0.950 . S
H1146 C1154 0.950 . S
H1147 C1156 0.950 . S
H1148 C1158 0.950 . S
H1149 C1160 0.950 . S
H1150 C1162 0.950 . S
H1151 C1163 0.950 . S
C1152 H1144 0.950 . S
C1152 C1153 1.386 . S
C1152 C1154 1.391 . S
C1153 C1152 1.386 . S
C1153 C1157 1.393 . S
C1154 H1146 0.950 . S
C1154 C1152 1.391 . S
C1154 C1155 1.400 . S
C1155 C1154 1.400 . S
C1155 C1156 1.398 . S
C1155 C1161 1.491 . S
C1156 H1147 0.950 . S
C1156 C1155 1.398 . S
C1156 C1157 1.391 . S
C1157 H1145 0.950 . S
C1157 C1153 1.393 . S
C1157 C1156 1.391 . S
C1158 H1148 0.950 . S
C1158 C1159 1.386 . S
C1158 C1160 1.391 . S
C1159 C1158 1.386 . S
C1159 C1163 1.393 . S
C1160 H1149 0.950 . S
C1160 C1158 1.391 . S
C1160 C1161 1.400 . S
C1161 C1155 1.491 . S
C1161 C1160 1.400 . S
C1161 C1162 1.398 . S
C1162 H1150 0.950 . S
C1162 C1161 1.398 . S
C1162 C1163 1.391 . S
C1163 H1151 0.950 . S
C1163 C1159 1.393 . S
C1163 C1162 1.391 . S
H1164 C1172 0.950 . S
H1165 C1177 0.950 . S
H1166 C1174 0.950 . S
H1167 C1176 0.950 . S
H1168 C1178 0.950 . S
H1169 C1180 0.950 . S
H1170 C1182 0.950 . S
H1171 C1183 0.950 . S
C1172 H1164 0.950 . S
C1172 C1173 1.386 . S
C1172 C1174 1.391 . S
C1173 C1172 1.386 . S
C1173 C1177 1.393 . S
C1174 H1166 0.950 . S
C1174 C1172 1.391 . S
C1174 C1175 1.400 . S
C1175 C1174 1.400 . S
C1175 C1176 1.398 . S
C1175 C1181 1.491 . S
C1176 H1167 0.950 . S
C1176 C1175 1.398 . S
C1176 C1177 1.391 . S
C1177 H1165 0.950 . S
C1177 C1173 1.393 . S
C1177 C1176 1.391 . S
C1178 H1168 0.950 . S
C1178 C1179 1.386 . S
C1178 C1180 1.391 . S
C1179 C1178 1.386 . S
C1179 C1183 1.393 . S
C1180 H1169 0.950 . S
C1180 C1178 1.391 . S
C1180 C1181 1.400 . S
C1181 C1175 1.491 . S
C1181 C1180 1.400 . S
C1181 C1182 1.398 . S
C1182 H1170 0.950 . S
C1182 C1181 1.398 . S
C1182 C1183 1.391 . S
C1183 H1171 0.950 . S
C1183 C1179 1.393 . S
C1183 C1182 1.391 . S
H1184 C1192 0.950 . S
H1185 C1197 0.950 . S
H1186 C1194 0.950 . S
H1187 C1196 0.950 . S
H1188 C1198 0.950 . S
H1189 C1200 0.950 . S
H1190 C1202 0.950 . S
H1191 C1203 0.950 . S
C1192 H1184 0.950 . S
C1192 C1193 1.386 . S
C1192 C1194 1.391 . S
C1193 C1192 1.386 . S
C1193 C1197 1.393 . S
C1194 H1186 0.950 . S
C1194 C1192 1.391 . S
C1194 C1195 1.400 . S
C1195 C1194 1.400 . S
C1195 C1196 1.398 . S
C1195 C1201 1.491 . S
C1196 H1187 0.950 . S
C1196 C1195 1.398 . S
C1196 C1197 1.391 . S
C1197 H1185 0.950 . S
C1197 C1193 1.393 . S
C1197 C1196 1.391 . S
C1198 H1188 0.950 . S
C1198 C1199 1.386 . S
C1198 C1200 1.391 . S
C1199 C1198 1.386 . S
C1199 C1203 1.393 . S
C1200 H1189 0.950 . S
C1200 C1198 1.391 . S
C1200 C1201 1.400 . S
C1201 C1195 1.491 . S
C1201 C1200 1.400 . S
C1201 C1202 1.398 . S
C1202 H1190 0.950 . S
C1202 C1201 1.398 . S
C1202 C1203 1.391 . S
C1203 H1191 0.950 . S
C1203 C1199 1.393 . S
C1203 C1202 1.391 . S
H1204 C1212 0.950 . S
H1205 C1217 0.950 . S
H1206 C1214 0.950 . S
H1207 C1216 0.950 . S
H1208 C1218 0.950 . S
H1209 C1220 0.950 . S
H1210 C1222 0.950 . S
H1211 C1223 0.950 . S
C1212 H1204 0.950 . S
C1212 C1213 1.386 . S
C1212 C1214 1.391 . S
C1213 C1212 1.386 . S
C1213 C1217 1.393 . S
C1214 H1206 0.950 . S
C1214 C1212 1.391 . S
C1214 C1215 1.400 . S
C1215 C1214 1.400 . S
C1215 C1216 1.398 . S
C1215 C1221 1.491 . S
C1216 H1207 0.950 . S
C1216 C1215 1.398 . S
C1216 C1217 1.391 . S
C1217 H1205 0.950 . S
C1217 C1213 1.393 . S
C1217 C1216 1.391 . S
C1218 H1208 0.950 . S
C1218 C1219 1.386 . S
C1218 C1220 1.391 . S
C1219 C1218 1.386 . S
C1219 C1223 1.393 . S
C1220 H1209 0.950 . S
C1220 C1218 1.391 . S
C1220 C1221 1.400 . S
C1221 C1215 1.491 . S
C1221 C1220 1.400 . S
C1221 C1222 1.398 . S
C1222 H1210 0.950 . S
C1222 C1221 1.398 . S
C1222 C1223 1.391 . S
C1223 H1211 0.950 . S
C1223 C1219 1.393 . S
C1223 C1222 1.391 . S
H1224 C1232 0.950 . S
H1225 C1237 0.950 . S
H1226 C1234 0.950 . S
H1227 C1236 0.950 . S
H1228 C1238 0.950 . S
H1229 C1240 0.950 . S
H1230 C1242 0.950 . S
H1231 C1243 0.950 . S
C1232 H1224 0.950 . S
C1232 C1233 1.386 . S
C1232 C1234 1.391 . S
C1233 C1232 1.386 . S
C1233 C1237 1.393 . S
C1234 H1226 0.950 . S
C1234 C1232 1.391 . S
C1234 C1235 1.400 . S
C1235 C1234 1.400 . S
C1235 C1236 1.398 . S
C1235 C1241 1.491 . S
C1236 H1227 0.950 . S
C1236 C1235 1.398 . S
C1236 C1237 1.391 . S
C1237 H1225 0.950 . S
C1237 C1233 1.393 . S
C1237 C1236 1.391 . S
C1238 H1228 0.950 . S
C1238 C1239 1.386 . S
C1238 C1240 1.391 . S
C1239 C1238 1.386 . S
C1239 C1243 1.393 . S
C1240 H1229 0.950 . S
C1240 C1238 1.391 . S
C1240 C1241 1.400 . S
C1241 C1235 1.491 . S
C1241 C1240 1.400 . S
C1241 C1242 1.398 . S
C1242 H1230 0.950 . S
C1242 C1241 1.398 . S
C1242 C1243 1.391 . S
C1243 H1231 0.950 . S
C1243 C1239 1.393 . S
C1243 C1242 1.391 . S
H1244 C1252 0.950 . S
H1245 C1257 0.950 . S
H1246 C1254 0.950 . S
H1247 C1256 0.950 . S
H1248 C1258 0.950 . S
H1249 C1260 0.950 . S
H1250 C1262 0.950 . S
H1251 C1263 0.950 . S
C1252 H1244 0.950 . S
C1252 C1253 1.386 . S
C1252 C1254 1.391 . S
C1253 C1252 1.386 . S
C1253 C1257 1.393 . S
C1254 H1246 0.950 . S
C1254 C1252 1.391 . S
C1254 C1255 1.400 . S
C1255 C1254 1.400 . S
C1255 C1256 1.398 . S
C1255 C1261 1.491 . S
C1256 H1247 0.950 . S
C1256 C1255 1.398 . S
C1256 C1257 1.391 . S
C1257 H1245 0.950 . S
C1257 C1253 1.393 . S
C1257 C1256 1.391 . S
C1258 H1248 0.950 . S
C1258 C1259 1.386 . S
C1258 C1260 1.391 . S
C1259 C1258 1.386 . S
C1259 C1263 1.393 . S
C1260 H1249 0.950 . S
C1260 C1258 1.391 . S
C1260 C1261 1.400 . S
C1261 C1255 1.491 . S
C1261 C1260 1.400 . S
C1261 C1262 1.398 . S
C1262 H1250 0.950 . S
C1262 C1261 1.398 . S
C1262 C1263 1.391 . S
C1263 H1251 0.950 . S
C1263 C1259 1.393 . S
C1263 C1262 1.391 . S
H1264 C1272 0.950 . S
H1265 C1277 0.950 . S
H1266 C1274 0.950 . S
H1267 C1276 0.950 . S
H1268 C1278 0.950 . S
H1269 C1280 0.950 . S
H1270 C1282 0.950 . S
H1271 C1283 0.950 . S
C1272 H1264 0.950 . S
C1272 C1273 1.386 . S
C1272 C1274 1.391 . S
C1273 C1272 1.386 . S
C1273 C1277 1.393 . S
C1274 H1266 0.950 . S
C1274 C1272 1.391 . S
C1274 C1275 1.400 . S
C1275 C1274 1.400 . S
C1275 C1276 1.398 . S
C1275 C1281 1.491 . S
C1276 H1267 0.950 . S
C1276 C1275 1.398 . S
C1276 C1277 1.391 . S
C1277 H1265 0.950 . S
C1277 C1273 1.393 . S
C1277 C1276 1.391 . S
C1278 H1268 0.950 . S
C1278 C1279 1.386 . S
C1278 C1280 1.391 . S
C1279 C1278 1.386 . S
C1279 C1283 1.393 . S
C1280 H1269 0.950 . S
C1280 C1278 1.391 . S
C1280 C1281 1.400 . S
C1281 C1275 1.491 . S
C1281 C1280 1.400 . S
C1281 C1282 1.398 . S
C1282 H1270 0.950 . S
C1282 C1281 1.398 . S
C1282 C1283 1.391 . S
C1283 H1271 0.950 . S
C1283 C1279 1.393 . S
C1283 C1282 1.391 . S
H1284 C1292 0.950 . S
H1285 C1297 0.950 . S
H1286 C1294 0.950 . S
H1287 C1296 0.950 . S
H1288 C1298 0.950 . S
H1289 C1300 0.950 . S
H1290 C1302 0.950 . S
H1291 C1303 0.950 . S
C1292 H1284 0.950 . S
C1292 C1293 1.386 . S
C1292 C1294 1.391 . S
C1293 C1292 1.386 . S
C1293 C1297 1.393 . S
C1294 H1286 0.950 . S
C1294 C1292 1.391 . S
C1294 C1295 1.400 . S
C1295 C1294 1.400 . S
C1295 C1296 1.398 . S
C1295 C1301 1.491 . S
C1296 H1287 0.950 . S
C1296 C1295 1.398 . S
C1296 C1297 1.391 . S
C1297 H1285 0.950 . S
C1297 C1293 1.393 . S
C1297 C1296 1.391 . S
C1298 H1288 0.950 . S
C1298 C1299 1.386 . S
C1298 C1300 1.391 . S
C1299 C1298 1.386 . S
C1299 C1303 1.393 . S
C1300 H1289 0.950 . S
C1300 C1298 1.391 . S
C1300 C1301 1.400 . S
C1301 C1295 1.491 . S
C1301 C1300 1.400 . S
C1301 C1302 1.398 . S
C1302 H1290 0.950 . S
C1302 C1301 1.398 . S
C1302 C1303 1.391 . S
C1303 H1291 0.950 . S
C1303 C1299 1.393 . S
C1303 C1302 1.391 . S
H1304 C1312 0.950 . S
H1305 C1317 0.950 . S
H1306 C1314 0.950 . S
H1307 C1316 0.950 . S
H1308 C1318 0.950 . S
H1309 C1320 0.950 . S
H1310 C1322 0.950 . S
H1311 C1323 0.950 . S
C1312 H1304 0.950 . S
C1312 C1313 1.386 . S
C1312 C1314 1.391 . S
C1313 C1312 1.386 . S
C1313 C1317 1.393 . S
C1314 H1306 0.950 . S
C1314 C1312 1.391 . S
C1314 C1315 1.400 . S
C1315 C1314 1.400 . S
C1315 C1316 1.398 . S
C1315 C1321 1.491 . S
C1316 H1307 0.950 . S
C1316 C1315 1.398 . S
C1316 C1317 1.391 . S
C1317 H1305 0.950 . S
C1317 C1313 1.393 . S
C1317 C1316 1.391 . S
C1318 H1308 0.950 . S
C1318 C1319 1.386 . S
C1318 C1320 1.391 . S
C1319 C1318 1.386 . S
C1319 C1323 1.393 . S
C1320 H1309 0.950 . S
C1320 C1318 1.391 . S
C1320 C1321 1.400 . S
C1321 C1315 1.491 . S
C1321 C1320 1.400 . S
C1321 C1322 1.398 . S
C1322 H1310 0.950 . S
C1322 C1321 1.398 . S
C1322 C1323 1.391 . S
C1323 H1311 0.950 . S
C1323 C1319 1.393 . S
C1323 C1322 1.391 . S
H1324 C1332 0.950 . S
H1325 C1337 0.950 . S
H1326 C1334 0.950 . S
H1327 C1336 0.950 . S
H1328 C1338 0.950 . S
H1329 C1340 0.950 . S
H1330 C1342 0.950 . S
H1331 C1343 0.950 . S
C1332 H1324 0.950 . S
C1332 C1333 1.386 . S
C1332 C1334 1.391 . S
C1333 C1332 1.386 . S
C1333 C1337 1.393 . S
C1334 H1326 0.950 . S
C1334 C1332 1.391 . S
C1334 C1335 1.400 . S
C1335 C1334 1.400 . S
C1335 C1336 1.398 . S
C1335 C1341 1.491 . S
C1336 H1327 0.950 . S
C1336 C1335 1.398 . S
C1336 C1337 1.391 . S
C1337 H1325 0.950 . S
C1337 C1333 1.393 . S
C1337 C1336 1.391 . S
C1338 H1328 0.950 . S
C1338 C1339 1.386 . S
C1338 C1340 1.391 . S
C1339 C1338 1.386 . S
C1339 C1343 1.393 . S
C1340 H1329 0.950 . S
C1340 C1338 1.391 . S
C1340 C1341 1.400 . S
C1341 C1335 1.491 . S
C1341 C1340 1.400 . S
C1341 C1342 1.398 . S
C1342 H1330 0.950 . S
C1342 C1341 1.398 . S
C1342 C1343 1.391 . S
C1343 H1331 0.950 . S
C1343 C1339 1.393 . S
C1343 C1342 1.391 . S
C553 C33 1.741 . S
C559 C101 1.743 . S
C573 C135 1.739 . S
C579 C67 1.740 . S
C593 C237 1.742 . S
C599 C169 1.741 . S
C613 C203 1.743 . S
C619 C271 1.744 . S
C633 C373 1.774 . S
C639 C305 1.776 . S
C653 C339 1.772 . S
C659 C407 1.774 . S
C673 C509 1.777 . S
C679 C441 1.775 . S
C693 C475 1.776 . S
C699 C543 1.774 . S
C713 C5 1.520 . S
C719 C342 1.532 . S
C733 C376 1.531 . S
C739 C39 1.519 . S
C753 C274 1.535 . S
C759 C73 1.526 . S
C773 C308 1.535 . S
C779 C107 1.526 . S
C793 C478 1.528 . S
C799 C141 1.513 . S
C813 C512 1.530 . S
C819 C175 1.518 . S
C833 C410 1.536 . S
C839 C209 1.527 . S
C853 C444 1.535 . S
C859 C243 1.526 . S
C873 C9 1.405 . S
C879 C247 1.382 . S
C893 C43 1.382 . S
C899 C145 1.406 . S
C913 C179 1.409 . S
C919 C77 1.383 . S
C933 C213 1.409 . S
C939 C111 1.381 . S
C953 C292 2.095 . S
C959 C530 2.095 . S
C973 C326 2.096 . S
C979 C428 2.090 . S
C993 C360 2.092 . S
C999 C462 2.096 . S
C1013 C394 2.090 . S
C1019 C496 2.096 . S
C1033 C481 0.982 . S
C1039 C20 0.987 . S
C1053 C54 0.994 . S
C1059 C515 1.001 . S
C1073 C413 1.004 . S
C1079 C88 1.005 . S
C1093 C447 0.998 . S
C1099 C122 0.991 . S
C1113 C345 0.981 . S
C1119 C156 0.977 . S
C1133 C190 1.001 . S
C1139 C379 0.996 . S
C1153 C277 0.998 . S
C1159 C224 1.003 . S
C1173 C258 1.000 . S
C1179 C311 1.004 . S
C1193 C206 0.912 . S
C1199 C281 0.912 . S
C1213 C240 0.929 . S
C1219 C315 0.920 . S
C1233 C138 0.929 . S
C1239 C349 0.918 . S
C1253 C383 0.893 . S
C1259 C172 0.912 . S
C1273 C70 0.903 1_455 S
C1279 C417 0.899 . S
C1293 C451 0.896 . S
C1299 C104 0.914 1_545 S
C1313 C485 0.884 . S
C1319 C2 0.899 1_655 S
C1333 C36 0.903 1_565 S
C1339 C519 0.899 . S
