# Generated by pormake.
# Topology qdl, (4)-cn, num edge types: 1
# Building blocks:
#     Node 0, Type 0, BuildingBlock: ESEHIV_clean_sbu_0, # of connection points: 4
#     Node 1, Type 0, BuildingBlock: ESEHIV_clean_sbu_0, # of connection points: 4
#     Node 2, Type 0, BuildingBlock: ESEHIV_clean_sbu_0, # of connection points: 4
#     Node 3, Type 0, BuildingBlock: ESEHIV_clean_sbu_0, # of connection points: 4
#     Node 4, Type 0, BuildingBlock: ESEHIV_clean_sbu_0, # of connection points: 4
#     Node 5, Type 0, BuildingBlock: ESEHIV_clean_sbu_0, # of connection points: 4
#     Edge 6, Type (0, 0), BuildingBlock: XUDNAN_clean_linker_2, # of connection points: 2
#     Edge 7, Type (0, 0), BuildingBlock: XUDNAN_clean_linker_2, # of connection points: 2
#     Edge 8, Type (0, 0), BuildingBlock: XUDNAN_clean_linker_2, # of connection points: 2
#     Edge 9, Type (0, 0), BuildingBlock: XUDNAN_clean_linker_2, # of connection points: 2
#     Edge 10, Type (0, 0), BuildingBlock: XUDNAN_clean_linker_2, # of connection points: 2
#     Edge 11, Type (0, 0), BuildingBlock: XUDNAN_clean_linker_2, # of connection points: 2
#     Edge 12, Type (0, 0), BuildingBlock: XUDNAN_clean_linker_2, # of connection points: 2
#     Edge 13, Type (0, 0), BuildingBlock: XUDNAN_clean_linker_2, # of connection points: 2
#     Edge 14, Type (0, 0), BuildingBlock: XUDNAN_clean_linker_2, # of connection points: 2
#     Edge 15, Type (0, 0), BuildingBlock: XUDNAN_clean_linker_2, # of connection points: 2
#     Edge 16, Type (0, 0), BuildingBlock: XUDNAN_clean_linker_2, # of connection points: 2
#     Edge 17, Type (0, 0), BuildingBlock: XUDNAN_clean_linker_2, # of connection points: 2
# Relax obj value: 0.000
# Max RMSD: 0.127
# Mean RMSD: 0.084
data_MOF--net-qdl--node1-ESEHIV_clean_sbu_0--edge1-XUDNAN_clean_linker_2
_symmetry_space_group_name_H-M    P1
_symmetry_Int_Tables_number       1
_symmetry_cell_setting            triclinic
loop_
_symmetry_equiv_pos_as_xyz
'x, y, z'
_cell_length_a     15.078048
_cell_length_b     17.583517
_cell_length_c     94.065472
_cell_angle_alpha  100.24195
_cell_angle_beta   100.14837
_cell_angle_gamma 115.52169
loop_
_atom_site_label
_atom_site_type_symbol
_atom_site_fract_x
_atom_site_fract_y
_atom_site_fract_z
_atom_type_partial_charge
Cu0 Cu 0.40855 0.21252 0.09799 0.0
N1 N 0.48927 0.15369 0.09987 0.0
N2 N 0.5212 0.03873 0.09974 0.0
C3 C 0.45675 0.06709 0.09351 0.0
C4 C 0.59842 0.11171 0.11021 0.0
C5 C 0.57827 0.18137 0.11034 0.0
O6 O 0.3372 0.19678 0.11388 0.0
C7 C 0.36677 0.18207 0.06702 0.0
O8 O 0.46751 0.22451 0.07122 0.0
H9 H 0.38266 1.02446 0.08537 0.0
H10 H 0.62208 0.24599 0.11832 0.0
N11 N 0.48295 0.33649 0.10108 0.0
N12 N 0.51213 0.47407 0.10108 0.0
C13 C 0.44229 0.38724 0.09683 0.0
C14 C 0.58231 0.39344 0.10823 0.0
C15 C 0.60035 0.47764 0.10826 0.0
C16 C 0.31817 0.13249 0.11955 0.0
O17 O 0.33202 0.06732 0.11323 0.0
H18 H 0.36214 0.36075 0.09096 0.0
H19 H 0.63816 0.37559 0.11317 0.0
O20 O 0.32047 0.16567 0.07715 0.0
H21 H 0.6632 0.11462 0.11783 0.0
H22 H 0.67347 0.53678 0.11309 0.0
Cu23 Cu 0.23065 0.21051 0.4212 0.0
N24 N 0.18029 0.14304 0.40083 0.0
N25 N 0.15679 0.11156 0.37579 0.0
C26 C 0.21118 0.17262 0.38932 0.0
C27 C 0.08928 0.04067 0.37897 0.0
C28 C 0.10396 0.06019 0.39436 0.0
O29 O 0.37966 0.27787 0.42534 0.0
C30 C 0.0616 0.22637 0.42266 0.0
O31 O 0.02888 0.14121 0.41932 0.0
H32 H 0.27038 0.23878 0.39085 0.0
H33 H 0.06049 1.01746 0.40036 0.0
N34 N 0.20653 0.14337 0.43512 0.0
N35 N 0.19359 0.1142 0.45726 0.0
C36 C 0.21307 0.17551 0.44963 0.0
C37 C 0.18163 0.05838 0.4334 0.0
C38 C 0.17369 0.04026 0.44698 0.0
C39 C 0.42047 0.22766 0.42413 0.0
O40 O 0.36011 0.14229 0.42025 0.0
H41 H 0.23112 0.2429 0.45438 0.0
H42 H 0.17128 1.01293 0.42308 0.0
O43 O 0.15543 0.27683 0.42384 0.0
H44 H 0.03295 0.97897 0.37076 0.0
H45 H 0.1564 0.97762 0.4491 0.0
Cu46 Cu 0.04684 0.11861 0.76761 0.0
N47 N 0.90355 0.04635 0.76374 0.0
N48 N 0.75862 0.92699 0.76289 0.0
C49 C 0.8627 0.96847 0.76693 0.0
C50 C 0.7334 0.98205 0.75692 0.0
C51 C 0.82249 0.05518 0.75744 0.0
O52 O 0.10545 0.11228 0.78755 0.0
C53 C 0.05295 0.08857 0.73825 0.0
O54 O 0.99441 0.12635 0.7384 0.0
H55 H 0.90963 0.94334 0.77223 0.0
H56 H 0.82751 0.11023 0.75336 0.0
N57 N 0.09422 0.23944 0.76884 0.0
N58 N 0.20476 0.37647 0.76892 0.0
C59 C 0.18874 0.29346 0.7681 0.0
C60 C 0.04796 0.28981 0.77015 0.0
C61 C 0.11562 0.37397 0.77021 0.0
C62 C 0.07099 0.13965 0.79767 0.0
O63 O 1.00994 0.17245 0.79378 0.0
H64 H 0.244 0.27107 0.76671 0.0
H65 H 0.9706 0.26716 0.77101 0.0
O66 O 0.08609 0.07397 0.75041 0.0
H67 H 0.65617 0.97005 0.75222 0.0
H68 H 0.10021 0.42907 0.7713 0.0
Cu69 Cu 0.2068 0.14725 0.60486 0.0
N70 N 0.17532 0.06854 0.61673 0.0
N71 N 0.15497 1.02145 0.63721 0.0
C72 C 0.17038 0.08836 0.63102 0.0
C73 C 0.14959 0.95687 0.62631 0.0
C74 C 0.16198 0.98597 0.61372 0.0
O75 O 0.13431 0.21472 0.60872 0.0
C76 C 0.39432 0.16446 0.60493 0.0
O77 O 0.33147 0.08064 0.59816 0.0
H78 H 0.18147 0.15192 0.63694 0.0
H79 H 0.16346 0.95003 0.60325 0.0
N80 N 0.16073 0.09219 0.58384 0.0
N81 N 0.14782 0.07901 0.55921 0.0
C82 C 0.19344 0.13313 0.57349 0.0
C83 C 0.09198 1.00884 0.57589 0.0
C84 C 0.08382 1.00054 0.56075 0.0
C85 C 0.03723 0.16597 0.60412 0.0
O86 O 1.00088 0.0814 0.59799 0.0
H87 H 0.25074 0.20149 0.57652 0.0
H88 H 0.04986 0.95784 0.58071 0.0
O89 O 0.35667 0.21298 0.60979 0.0
H90 H 0.13787 0.89313 0.62735 0.0
H91 H 0.03313 0.94135 0.55163 0.0
Cu92 Cu 0.09511 0.16929 0.93268 0.0
N93 N 0.14772 0.29222 0.93558 0.0
N94 N 0.25923 0.42937 0.93579 0.0
C95 C 0.23471 0.34302 0.93241 0.0
C96 C 0.1833 0.43232 0.9413 0.0
C97 C 0.11512 0.34815 0.94117 0.0
O98 O 0.12156 0.1289 0.91373 0.0
C99 C 0.12613 0.16968 0.96224 0.0
O100 O 0.06168 0.20136 0.96046 0.0
H101 H 0.27879 0.31609 0.92764 0.0
H102 H 0.04738 0.32948 0.94505 0.0
N103 N 0.95234 0.10088 0.9301 0.0
N104 N 0.8069 0.98255 0.92939 0.0
C105 C 0.90873 1.0168 0.93075 0.0
C106 C 0.87538 0.12115 0.92828 0.0
C107 C 0.78597 0.0486 0.92783 0.0
C108 C 0.07349 0.14203 0.90261 0.0
O109 O 1.01171 0.17418 0.90513 0.0
H110 H 0.95238 0.9824 0.93261 0.0
H111 H 0.88365 0.18433 0.92747 0.0
O112 O 0.15938 0.1523 0.95114 0.0
H113 H 0.17771 0.49109 0.94542 0.0
H114 H 0.71134 0.04502 0.92637 0.0
Cu115 Cu 0.05266 0.08589 0.23893 0.0
N116 N 0.97668 0.14779 0.23667 0.0
N117 N 0.94894 0.2637 0.23588 0.0
C118 C 1.01933 0.23496 0.23799 0.0
C119 C 0.85799 0.19085 0.23309 0.0
C120 C 0.87527 0.1199 0.2336 0.0
O121 O 0.14195 0.11516 0.22563 0.0
C122 C 0.06368 0.09334 0.26877 0.0
O123 O 0.96445 0.04746 0.26221 0.0
H124 H 0.10102 0.27611 0.24031 0.0
H125 H 0.81787 0.05289 0.23194 0.0
N126 N 0.97784 0.96115 0.23336 0.0
N127 N 0.95145 0.82277 0.23184 0.0
C128 C 1.01504 0.91019 0.23839 0.0
C129 C 0.88701 0.90418 0.2232 0.0
C130 C 0.87041 0.81926 0.22228 0.0
C131 C 0.09991 0.10922 0.21213 0.0
O132 O 1.00163 0.08546 0.20814 0.0
H133 H 0.0887 0.93775 0.24663 0.0
H134 H 0.83761 0.92291 0.2166 0.0
O135 O 0.1229 0.12121 0.26055 0.0
H136 H 0.78398 0.18878 0.23106 0.0
H137 H 0.80485 0.75987 0.21476 0.0
H138 H 0.63188 0.9768 0.11638 0.0
H139 H 0.37389 0.89166 0.07726 0.0
H140 H 0.34297 0.73917 0.07354 0.0
H141 H 0.72278 0.82996 0.10099 0.0
H142 H 0.7597 0.81067 0.11874 0.0
H143 H 0.76145 0.91341 0.11842 0.0
H144 H 0.6419 0.88954 0.13569 0.0
H145 H 0.63956 0.78665 0.13607 0.0
H146 H 0.52114 0.7898 0.13011 0.0
H147 H 0.33784 0.59226 0.07428 0.0
H148 H 0.36326 0.46814 0.07894 0.0
H149 H 0.62593 0.64881 0.11726 0.0
C150 C 0.56909 0.92704 0.10693 0.0
C151 C 0.50523 0.9485 0.09719 0.0
C152 C 0.42384 0.87886 0.08507 0.0
C153 C 0.40564 0.79126 0.0828 0.0
C154 C 0.46949 0.77294 0.09266 0.0
C155 C 0.54999 0.83913 0.10445 0.0
C156 C 0.60771 0.80213 0.11344 0.0
C157 C 0.71953 0.84138 0.11285 0.0
C158 C 0.60221 0.81798 0.1298 0.0
C159 C 0.54718 0.70474 0.10489 0.0
C160 C 0.46744 0.68916 0.09297 0.0
C161 C 0.40024 0.6041 0.08359 0.0
C162 C 0.41498 0.53355 0.08639 0.0
C163 C 0.49668 0.54751 0.09847 0.0
C164 C 0.56337 0.635 0.10781 0.0
H165 H 0.52441 0.14406 0.43276 0.0
H166 H 0.56789 0.38247 0.421 0.0
H167 H 0.74854 0.42001 0.42193 0.0
H168 H 0.78504 0.23153 0.45791 0.0
H169 H 0.78506 0.12866 0.45148 0.0
H170 H 0.66649 0.12958 0.45189 0.0
H171 H 0.58839 0.04268 0.42354 0.0
H172 H 0.7065 0.04194 0.42301 0.0
H173 H 0.65297 0.08611 0.41015 0.0
H174 H 0.92197 0.4195 0.42144 0.0
H175 H 0.0614 0.38105 0.41965 0.0
H176 H 0.89437 0.14277 0.43167 0.0
C177 C 0.57227 0.20523 0.43066 0.0
C178 C 0.53227 0.26038 0.42681 0.0
C179 C 0.59747 0.3397 0.42413 0.0
C180 C 0.69999 0.36125 0.42459 0.0
C181 C 0.73596 0.30336 0.42798 0.0
C182 C 0.67354 0.22745 0.43114 0.0
C183 C 0.7253 0.17203 0.43341 0.0
C184 C 0.74144 0.16509 0.44964 0.0
C185 C 0.66471 0.08035 0.42184 0.0
C186 C 0.82585 0.22661 0.43056 0.0
C187 C 0.83234 0.30287 0.42763 0.0
C188 C 0.91764 0.36041 0.42391 0.0
C189 C 0.99661 0.33832 0.42295 0.0
C190 C 0.9885 0.25881 0.42547 0.0
C191 C 0.90289 0.20393 0.42962 0.0
H192 H 0.5514 0.85548 0.76045 0.0
H193 H 0.80739 0.8 0.76839 0.0
H194 H 0.69433 0.65645 0.77105 0.0
H195 H 0.42974 0.74988 0.78641 0.0
H196 H 0.30105 0.70554 0.77449 0.0
H197 H 0.40203 0.80569 0.77334 0.0
H198 H 0.36127 0.7369 0.74474 0.0
H199 H 0.26001 0.63661 0.7458 0.0
H200 H 0.36072 0.63383 0.73822 0.0
H201 H 0.55412 0.51745 0.77301 0.0
H202 H 0.39732 0.39338 0.77376 0.0
H203 H 0.22694 0.53263 0.76365 0.0
C204 C 0.58413 0.81339 0.76268 0.0
C205 C 0.69011 0.84125 0.76431 0.0
C206 C 0.72807 0.78273 0.76731 0.0
C207 C 0.66385 0.70002 0.76878 0.0
C208 C 0.56068 0.67518 0.76716 0.0
C209 C 0.52071 0.72988 0.76413 0.0
C210 C 0.40642 0.68624 0.76281 0.0
C211 C 0.38349 0.74006 0.77499 0.0
C212 C 0.34339 0.67259 0.74695 0.0
C213 C 0.38871 0.59866 0.76558 0.0
C214 C 0.47901 0.594 0.76808 0.0
C215 C 0.48283 0.52027 0.77098 0.0
C216 C 0.39238 0.44936 0.77128 0.0
C217 C 0.29776 0.45132 0.76865 0.0
C218 C 0.29699 0.52796 0.7658 0.0
H219 H 0.47349 0.09358 0.58647 0.0
H220 H 0.56422 0.30854 0.62606 0.0
H221 H 0.74715 0.34638 0.62899 0.0
H222 H 0.63863 1.02075 0.60028 0.0
H223 H 0.66297 0.99076 0.5826 0.0
H224 H 0.544 0.99072 0.58273 0.0
H225 H 0.5777 0.09769 0.56614 0.0
H226 H 0.69701 0.09783 0.56591 0.0
H227 H 0.69563 0.20017 0.57225 0.0
H228 H 0.92136 0.34712 0.62869 0.0
H229 H 0.0598 0.3102 0.62529 0.0
H230 H 0.84534 0.0946 0.58593 0.0
C231 C 0.53171 0.14975 0.59564 0.0
C232 C 0.50475 0.19803 0.60606 0.0
C233 C 0.5834 0.27108 0.61787 0.0
C234 C 0.68734 0.29278 0.61961 0.0
C235 C 0.71084 0.24154 0.6093 0.0
C236 C 0.63442 0.17209 0.59745 0.0
C237 C 0.67603 0.12243 0.58841 0.0
C238 C 0.62756 1.0255 0.58852 0.0
C239 C 0.6607 0.13004 0.57222 0.0
C240 C 0.7878 0.17247 0.59724 0.0
C241 C 0.80786 0.24186 0.60915 0.0
C242 C 0.90617 0.29363 0.61925 0.0
C243 C 0.9845 0.27253 0.61723 0.0
C244 C 0.9632 0.19959 0.60535 0.0
C245 C 0.86416 0.15082 0.59513 0.0
H246 H 0.29613 0.60033 0.93816 0.0
H247 H 0.43015 0.42762 0.92992 0.0
H248 H 0.5804 0.54881 0.92709 0.0
H249 H 0.3872 0.72235 0.91205 0.0
H250 H 0.41404 0.82643 0.92402 0.0
H251 H 0.31455 0.72565 0.92524 0.0
H252 H 0.40178 0.76812 0.9538 0.0
H253 H 0.5014 0.86912 0.95267 0.0
H254 H 0.53424 0.79417 0.96016 0.0
H255 H 0.71867 0.68901 0.92509 0.0
H256 H 0.8342 0.83743 0.92437 0.0
H257 H 0.61723 0.92425 0.9347 0.0
C258 C 0.35678 0.58744 0.93581 0.0
C259 C 0.34878 0.50238 0.93419 0.0
C260 C 0.43142 0.4903 0.93104 0.0
C261 C 0.51833 0.55946 0.92946 0.0
C262 C 0.52326 0.64164 0.9311 0.0
C263 C 0.4449 0.6562 0.93425 0.0
C264 C 0.47055 0.75156 0.93559 0.0
C265 C 0.39189 0.75677 0.9235 0.0
C266 C 0.4774 0.7985 0.9515 0.0
C267 C 0.57537 0.78805 0.9327 0.0
C268 C 0.604 0.72323 0.93013 0.0
C269 C 0.69713 0.74036 0.92717 0.0
C270 C 0.76297 0.82569 0.92689 0.0
C271 C 0.7366 0.8943 0.92959 0.0
C272 C 0.64057 0.8742 0.93249 0.0
H273 H 0.81183 0.31812 0.22447 0.0
H274 H 0.12892 0.41579 0.24949 0.0
H275 H 0.16252 0.56715 0.25097 0.0
H276 H 0.86097 0.47541 0.20301 0.0
H277 H 0.74903 0.48742 0.20386 0.0
H278 H 0.74875 0.38566 0.20462 0.0
H279 H 0.70113 0.39721 0.22975 0.0
H280 H 0.70108 0.49895 0.22906 0.0
H281 H 0.78057 0.49497 0.24534 0.0
H282 H 0.16342 0.70966 0.24978 0.0
H283 H 0.13193 0.83138 0.24609 0.0
H284 H 0.81262 0.64498 0.22246 0.0
C285 C 0.88829 0.37105 0.23035 0.0
C286 C 0.9677 0.35337 0.23678 0.0
C287 C 0.06668 0.42587 0.24423 0.0
C288 C 0.08661 0.51281 0.24522 0.0
C289 C 1.00703 0.52757 0.23875 0.0
C290 C 0.90972 0.45879 0.23147 0.0
C291 C 0.83802 0.49328 0.2255 0.0
C292 C 0.79677 0.45836 0.20822 0.0
C293 C 0.74999 0.4697 0.23285 0.0
C294 C 0.91027 0.59207 0.23057 0.0
C295 C 1.00734 0.61013 0.23819 0.0
C296 C 0.08743 0.69614 0.24388 0.0
C297 C 0.06827 0.76547 0.24176 0.0
C298 C 0.96932 0.74966 0.23401 0.0
C299 C 0.88944 0.66083 0.22837 0.0
H300 H 0.03947 0.132 0.18465 0.0
H301 H 0.28855 0.11889 0.21333 0.0
H302 H 0.37502 0.13147 0.19312 0.0
H303 H 0.0294 1.00472 0.15029 0.0
H304 H 1.00305 0.06945 0.13901 0.0
H305 H 0.96384 0.0645 0.15597 0.0
H306 H 0.06466 0.23438 0.16611 0.0
H307 H 0.10399 0.23995 0.14914 0.0
H308 H 0.19895 0.29095 0.16726 0.0
H309 H 0.4256 0.13115 0.16894 0.0
H310 H 0.44351 0.12835 0.14326 0.0
H311 H 0.16693 0.15045 0.13055 0.0
C312 C 0.11279 0.13265 0.18677 0.0
C313 C 0.15717 0.12424 0.20062 0.0
C314 C 0.25324 0.1256 0.20289 0.0
C315 C 0.30274 0.13253 0.19144 0.0
C316 C 0.25595 0.1393 0.17786 0.0
C317 C 0.16369 0.14056 0.17555 0.0
C318 C 0.12882 0.14712 0.15983 0.0
C319 C 1.02516 0.06666 0.15074 0.0
C320 C 0.12384 0.23324 0.16064 0.0
C321 C 0.21488 0.14751 0.1535 0.0
C322 C 0.2872 0.14267 0.16411 0.0
C323 C 0.37039 0.13643 0.16066 0.0
C324 C 0.37981 0.13472 0.14605 0.0
C325 C 0.30751 0.14046 0.13504 0.0
C326 C 0.22444 0.14788 0.13886 0.0
H327 H 0.0922 0.9655 0.53108 0.0
H328 H 0.23802 0.24313 0.55534 0.0
H329 H 0.26632 0.28104 0.53205 0.0
H330 H 0.25495 0.98422 0.50682 0.0
H331 H 0.15302 0.90259 0.49058 0.0
H332 H 0.14468 0.89626 0.50924 0.0
H333 H 0.96994 0.8956 0.50327 0.0
H334 H 0.9776 0.90166 0.48458 0.0
H335 H 0.96055 0.98289 0.49671 0.0
H336 H 0.28078 0.29006 0.50609 0.0
H337 H 0.27773 0.26947 0.47948 0.0
H338 H 0.1155 0.98602 0.47146 0.0
C339 C 0.12949 0.03435 0.53158 0.0
C340 C 0.1633 0.10101 0.54533 0.0
C341 C 0.2126 0.19025 0.54522 0.0
C342 C 0.22864 0.21273 0.53194 0.0
C343 C 0.19468 0.14554 0.5187 0.0
C344 C 0.14576 0.05813 0.51838 0.0
C345 C 0.11612 0.99876 0.50257 0.0
C346 C 0.17045 0.94212 0.50229 0.0
C347 C 0.9991 0.94134 0.49642 0.0
C348 C 0.15631 0.06654 0.49409 0.0
C349 C 0.20145 0.15076 0.50364 0.0
C350 C 0.24495 0.22431 0.49849 0.0
C351 C 0.2422 0.2117 0.48322 0.0
C352 C 0.19575 0.12597 0.47305 0.0
C353 C 0.15232 0.0526 0.47874 0.0
H354 H 0.97847 0.16996 0.81862 0.0
H355 H 0.20558 0.08848 0.81215 0.0
H356 H 0.23184 0.0758 0.83836 0.0
H357 H 0.1024 0.30037 0.8566 0.0
H358 H 0.98399 0.26825 0.86159 0.0
H359 H 0.98543 0.26956 0.84255 0.0
H360 H 0.84452 0.10613 0.83277 0.0
H361 H 0.84286 0.10421 0.85179 0.0
H362 H 0.86538 1.02529 0.84008 0.0
H363 H 0.23256 0.07648 0.86663 0.0
H364 H 0.20653 0.08917 0.89221 0.0
H365 H 0.97551 0.16625 0.87814 0.0
C366 C 0.03423 0.14956 0.8226 0.0
C367 C 0.09042 0.13076 0.81327 0.0
C368 C 0.1617 0.10352 0.81907 0.0
C369 C 0.17696 0.09613 0.83396 0.0
C370 C 0.11978 0.11551 0.84284 0.0
C371 C 0.04956 0.14134 0.83721 0.0
C372 C 0.99643 0.15846 0.84862 0.0
C373 C 1.01844 0.25487 0.85257 0.0
C374 C 0.88045 0.09471 0.84297 0.0
C375 C 0.04783 0.13919 0.86174 0.0
C376 C 0.11894 0.11445 0.85839 0.0
C377 C 0.17653 0.09543 0.86923 0.0
C378 C 0.16119 0.1026 0.88374 0.0
C379 C 0.08875 0.12847 0.88727 0.0
C380 C 0.03143 0.14605 0.87596 0.0
H381 H 0.44864 0.2237 0.04385 0.0
H382 H 0.15803 0.09093 0.05357 0.0
H383 H 0.06664 0.06044 0.02694 0.0
H384 H 0.37111 0.32943 0.01974 0.0
H385 H 0.44442 0.31862 1.00704 0.0
H386 H 0.48663 0.32306 0.02644 0.0
H387 H 0.48776 0.17513 0.01797 0.0
H388 H 0.44507 0.17002 0.99851 0.0
H389 H 0.37309 0.08026 1.00552 0.0
H390 H 1.00704 0.05453 0.99987 0.0
H391 H 0.98244 0.07666 0.97459 0.0
H392 H 0.31146 0.21177 0.98202 0.0
C393 C 0.36572 0.18706 0.04038 0.0
C394 C 0.31053 0.15925 0.05087 0.0
C395 C 0.20209 0.11259 0.0458 0.0
C396 C 0.14958 0.0948 0.03067 0.0
C397 C 0.20646 0.12377 0.02069 0.0
C398 C 0.3122 0.1689 0.02534 0.0
C399 C 0.35507 0.19728 0.01258 0.0
C400 C 0.41799 0.29806 0.0167 0.0
C401 C 0.41904 0.15301 1.0084 0.0
C402 C 0.25682 0.16257 1.00005 0.0
C403 C 0.17209 0.11975 1.00499 0.0
C404 C 0.07279 0.08678 0.99586 0.0
C405 C 0.05961 0.09958 0.9815 0.0
C406 C 0.14491 0.14449 0.97626 0.0
C407 C 0.24491 0.17494 0.98556 0.0
H408 H 0.9541 1.01786 0.28724 0.0
H409 H 0.26035 0.20306 0.28782 0.0
H410 H 0.31925 0.22824 0.31544 0.0
H411 H 0.95065 0.13295 0.32223 0.0
H412 H 0.87983 0.03433 0.32728 0.0
H413 H 0.86373 0.03147 0.30773 0.0
H414 H 0.91145 0.90596 0.30309 0.0
H415 H 0.92771 0.90839 0.32263 0.0
H416 H 0.03094 0.92157 0.31442 0.0
H417 H 0.34165 0.23486 0.34359 0.0
H418 H 0.32732 0.21838 0.36882 0.0
H419 H 1.00611 1.02682 0.34907 0.0
C420 C 0.03376 0.0639 0.2931 0.0
C421 C 0.10252 0.10884 0.2853 0.0
C422 C 0.20617 0.16787 0.29351 0.0
C423 C 0.24018 0.1826 0.30921 0.0
C424 C 0.16981 0.13732 0.31653 0.0
C425 C 0.06884 0.07875 0.30866 0.0
C426 C 1.00795 0.03755 0.31896 0.0
C427 C 0.92039 0.06048 0.31905 0.0
C428 C 0.96714 0.93744 0.31451 0.0
C429 C 0.08997 0.08228 0.33397 0.0
C430 C 0.18288 0.13987 0.3324 0.0
C431 C 0.26918 0.18969 0.34486 0.0
C432 C 0.26018 0.18023 0.35919 0.0
C433 C 0.1657 0.12104 0.36102 0.0
C434 C 0.07987 0.07162 0.34813 0.0
H435 H 0.08542 0.10996 0.65504 0.0
H436 H 0.21225 0.93042 0.65401 0.0
H437 H 0.20342 0.92859 0.67996 0.0
H438 H 0.21508 0.23663 0.69401 0.0
H439 H 0.10693 0.24911 0.69714 0.0
H440 H 0.12526 0.23703 0.67862 0.0
H441 H 0.94281 0.1036 0.66761 0.0
H442 H 0.92393 0.1153 0.68609 0.0
H443 H 0.90789 1.01195 0.67547 0.0
H444 H 0.18238 0.94909 0.70673 0.0
H445 H 0.14263 0.98427 0.73082 0.0
H446 H 0.02627 0.14684 0.71364 0.0
C447 C 0.11216 0.07083 0.6603 0.0
C448 C 0.14974 1.02046 0.65242 0.0
C449 C 0.18227 0.96895 0.6597 0.0
C450 C 0.17811 0.96791 0.67451 0.0
C451 C 0.14058 1.01831 0.68194 0.0
C452 C 0.10764 0.06841 0.67501 0.0
C453 C 0.06804 0.11498 0.68523 0.0
C454 C 0.13271 0.21539 0.68897 0.0
C455 C 0.9539 0.08461 0.67818 0.0
C456 C 0.0838 0.08345 0.69899 0.0
C457 C 0.12641 1.02824 0.69699 0.0
C458 C 0.14864 0.99207 0.70836 0.0
C459 C 0.12603 1.01247 0.72202 0.0
C460 C 0.08072 0.06782 0.72415 0.0
C461 C 0.06007 0.10366 0.71241 0.0
loop_
_geom_bond_atom_site_label_1
_geom_bond_atom_site_label_2
_geom_bond_distance
_geom_bond_site_symmetry_2
_ccdc_geom_bond_type
Cu0 N1 1.999 . S
Cu0 O6 1.974 . S
Cu0 N11 1.985 . S
Cu0 O20 1.959 . S
N1 Cu0 1.999 . S
N1 C3 1.263 . S
N1 C5 1.389 . S
N2 C3 1.358 1_565 S
N2 C4 1.400 1_565 S
C3 N1 1.263 . S
C3 N2 1.358 1_545 S
C3 H9 0.930 . S
C4 N2 1.400 1_545 S
C4 C5 1.351 . S
C4 H21 0.930 1_545 S
C5 N1 1.389 . S
C5 C4 1.351 . S
C5 H10 0.930 . S
O6 Cu0 1.974 . S
O6 C16 1.282 . S
C7 O8 1.261 . S
C7 O20 1.251 . S
O8 C7 1.261 . S
H9 C3 0.930 . S
H10 C5 0.930 . S
N11 Cu0 1.985 . S
N11 C13 1.335 . S
N11 C14 1.390 . S
N12 C13 1.345 . S
N12 C15 1.336 . S
C13 N11 1.335 . S
C13 N12 1.345 . S
C13 H18 0.930 . S
C14 N11 1.390 . S
C14 C15 1.346 . S
C14 H19 0.930 . S
C15 N12 1.336 . S
C15 C14 1.346 . S
C15 H22 0.929 . S
C16 O6 1.282 . S
C16 O17 1.216 . S
O17 C16 1.216 . S
H18 C13 0.930 . S
H19 C14 0.930 . S
O20 Cu0 1.959 . S
O20 C7 1.251 . S
H21 C4 0.930 1_565 S
H22 C15 0.929 . S
Cu23 N24 1.999 . S
Cu23 O29 1.974 . S
Cu23 N34 1.985 . S
Cu23 O43 1.959 . S
N24 Cu23 1.999 . S
N24 C26 1.263 . S
N24 C28 1.389 . S
N25 C26 1.358 . S
N25 C27 1.400 . S
C26 N24 1.263 . S
C26 N25 1.358 . S
C26 H32 0.930 . S
C27 N25 1.400 . S
C27 C28 1.351 . S
C27 H44 0.930 . S
C28 N24 1.389 . S
C28 C27 1.351 . S
C28 H33 0.930 . S
O29 Cu23 1.974 . S
O29 C39 1.282 1_545 S
C30 O31 1.261 . S
C30 O43 1.251 1_665 S
O31 C30 1.261 . S
H32 C26 0.930 . S
H33 C28 0.930 . S
N34 Cu23 1.985 . S
N34 C36 1.335 . S
N34 C37 1.390 1_545 S
N35 C36 1.345 . S
N35 C38 1.336 1_545 S
C36 N34 1.335 . S
C36 N35 1.345 . S
C36 H41 0.930 . S
C37 N34 1.390 1_565 S
C37 C38 1.346 . S
C37 H42 0.930 . S
C38 N35 1.336 1_565 S
C38 C37 1.346 . S
C38 H45 0.929 . S
C39 O29 1.282 1_565 S
C39 O40 1.216 . S
O40 C39 1.216 . S
H41 C36 0.930 . S
H42 C37 0.930 . S
O43 Cu23 1.959 . S
O43 C30 1.251 1_445 S
H44 C27 0.930 . S
H45 C38 0.929 . S
Cu46 N47 1.999 1_455 S
Cu46 O52 1.974 . S
Cu46 N57 1.985 . S
Cu46 O66 1.959 . S
N47 Cu46 1.999 1_655 S
N47 C49 1.263 1_545 S
N47 C51 1.389 1_545 S
N48 C49 1.358 . S
N48 C50 1.400 . S
C49 N47 1.263 1_565 S
C49 N48 1.358 . S
C49 H55 0.930 1_565 S
C50 N48 1.400 . S
C50 C51 1.351 . S
C50 H67 0.930 . S
C51 N47 1.389 1_565 S
C51 C50 1.351 . S
C51 H56 0.930 . S
O52 Cu46 1.974 . S
O52 C62 1.282 1_455 S
C53 O54 1.261 . S
C53 O66 1.251 1_655 S
O54 C53 1.261 . S
H55 C49 0.930 1_545 S
H56 C51 0.930 . S
N57 Cu46 1.985 . S
N57 C59 1.335 . S
N57 C60 1.390 . S
N58 C59 1.345 . S
N58 C61 1.336 . S
C59 N57 1.335 . S
C59 N58 1.345 . S
C59 H64 0.930 . S
C60 N57 1.390 . S
C60 C61 1.346 . S
C60 H65 0.930 . S
C61 N58 1.336 . S
C61 C60 1.346 . S
C61 H68 0.929 . S
C62 O52 1.282 1_655 S
C62 O63 1.216 . S
O63 C62 1.216 . S
H64 C59 0.930 . S
H65 C60 0.930 . S
O66 Cu46 1.959 . S
O66 C53 1.251 1_455 S
H67 C50 0.930 . S
H68 C61 0.929 . S
Cu69 N70 1.999 . S
Cu69 O75 1.974 1_455 S
Cu69 N80 1.985 1_455 S
Cu69 O89 1.959 . S
N70 Cu69 1.999 . S
N70 C72 1.263 1_455 S
N70 C74 1.389 . S
N71 C72 1.358 1_455 S
N71 C73 1.400 . S
C72 N70 1.263 1_655 S
C72 N71 1.358 1_655 S
C72 H78 0.930 . S
C73 N71 1.400 . S
C73 C74 1.351 . S
C73 H90 0.930 . S
C74 N70 1.389 . S
C74 C73 1.351 . S
C74 H79 0.930 . S
O75 Cu69 1.974 1_655 S
O75 C85 1.282 1_545 S
C76 O77 1.261 . S
C76 O89 1.251 1_565 S
O77 C76 1.261 . S
H78 C72 0.930 . S
H79 C74 0.930 . S
N80 Cu69 1.985 1_655 S
N80 C82 1.334 1_655 S
N80 C83 1.391 1_545 S
N81 C82 1.345 . S
N81 C84 1.336 1_445 S
C82 N80 1.334 1_455 S
C82 N81 1.345 . S
C82 H87 0.930 . S
C83 N80 1.391 1_565 S
C83 C84 1.346 . S
C83 H88 0.930 . S
C84 N81 1.336 1_665 S
C84 C83 1.346 . S
C84 H91 0.929 . S
C85 O75 1.282 1_565 S
C85 O86 1.216 . S
O86 C85 1.216 . S
H87 C82 0.930 . S
H88 C83 0.930 . S
O89 Cu69 1.959 . S
O89 C76 1.251 1_545 S
H90 C73 0.930 . S
H91 C84 0.929 . S
Cu92 N93 1.999 . S
Cu92 O98 1.974 . S
Cu92 N103 1.985 1_455 S
Cu92 O112 1.959 . S
N93 Cu92 1.999 . S
N93 C95 1.263 . S
N93 C97 1.389 . S
N94 C95 1.358 . S
N94 C96 1.400 . S
C95 N93 1.263 . S
C95 N94 1.358 . S
C95 H101 0.930 . S
C96 N94 1.400 . S
C96 C97 1.351 . S
C96 H113 0.930 . S
C97 N93 1.389 . S
C97 C96 1.351 . S
C97 H102 0.930 . S
O98 Cu92 1.974 . S
O98 C108 1.282 . S
C99 O100 1.261 . S
C99 O112 1.251 . S
O100 C99 1.261 . S
H101 C95 0.930 . S
H102 C97 0.930 . S
N103 Cu92 1.985 1_655 S
N103 C105 1.335 . S
N103 C106 1.390 . S
N104 C105 1.345 1_565 S
N104 C107 1.336 . S
C105 N103 1.335 . S
C105 N104 1.345 1_545 S
C105 H110 0.930 . S
C106 N103 1.390 . S
C106 C107 1.346 1_545 S
C106 H111 0.930 . S
C107 N104 1.336 . S
C107 C106 1.346 1_565 S
C107 H114 0.929 . S
C108 O98 1.282 . S
C108 O109 1.216 1_455 S
O109 C108 1.216 1_655 S
H110 C105 0.930 . S
H111 C106 0.930 . S
O112 Cu92 1.959 . S
O112 C99 1.251 . S
H113 C96 0.930 . S
H114 C107 0.929 . S
Cu115 N116 1.999 . S
Cu115 O121 1.974 . S
Cu115 N126 1.985 . S
Cu115 O135 1.959 . S
N116 Cu115 1.999 . S
N116 C118 1.263 . S
N116 C120 1.389 . S
N117 C118 1.358 . S
N117 C119 1.400 . S
C118 N116 1.263 . S
C118 N117 1.358 . S
C118 H124 0.930 . S
C119 N117 1.400 . S
C119 C120 1.351 . S
C119 H136 0.930 . S
C120 N116 1.389 . S
C120 C119 1.351 . S
C120 H125 0.930 . S
O121 Cu115 1.974 . S
O121 C131 1.282 . S
C122 O123 1.261 . S
C122 O135 1.251 . S
O123 C122 1.261 . S
H124 C118 0.930 . S
H125 C120 0.930 . S
N126 Cu115 1.985 . S
N126 C128 1.335 1_545 S
N126 C129 1.390 1_545 S
N127 C128 1.345 . S
N127 C130 1.336 . S
C128 N126 1.335 1_565 S
C128 N127 1.345 . S
C128 H133 0.930 1_565 S
C129 N126 1.390 1_565 S
C129 C130 1.346 . S
C129 H134 0.930 . S
C130 N127 1.336 . S
C130 C129 1.346 . S
C130 H137 0.929 . S
C131 O121 1.282 . S
C131 O132 1.216 . S
O132 C131 1.216 . S
H133 C128 0.930 1_545 S
H134 C129 0.930 . S
O135 Cu115 1.959 . S
O135 C122 1.251 . S
H136 C119 0.930 . S
H137 C130 0.929 . S
H138 C150 0.930 . S
H139 C152 0.930 . S
H140 C153 0.930 . S
H141 C157 0.959 . S
H142 C157 0.959 . S
H143 C157 0.961 . S
H144 C158 0.960 . S
H145 C158 0.961 . S
H146 C158 0.959 . S
H147 C161 0.929 . S
H148 C162 0.931 . S
H149 C164 0.930 . S
C150 H138 0.930 . S
C150 C151 1.399 . S
C150 C155 1.399 . S
C151 C150 1.399 . S
C151 C152 1.376 . S
C152 H139 0.930 . S
C152 C151 1.376 . S
C152 C153 1.388 . S
C153 H140 0.930 . S
C153 C152 1.388 . S
C153 C154 1.390 . S
C154 C153 1.390 . S
C154 C155 1.394 . S
C154 C160 1.465 . S
C155 C150 1.399 . S
C155 C154 1.394 . S
C155 C156 1.516 . S
C156 C155 1.516 . S
C156 C157 1.502 . S
C156 C158 1.561 . S
C156 C159 1.526 . S
C157 H141 0.959 . S
C157 H142 0.959 . S
C157 H143 0.961 . S
C157 C156 1.502 . S
C158 H144 0.960 . S
C158 H145 0.961 . S
C158 H146 0.959 . S
C158 C156 1.561 . S
C159 C156 1.526 . S
C159 C160 1.396 . S
C159 C164 1.390 . S
C160 C154 1.465 . S
C160 C159 1.396 . S
C160 C161 1.399 . S
C161 H147 0.929 . S
C161 C160 1.399 . S
C161 C162 1.385 . S
C162 H148 0.931 . S
C162 C161 1.385 . S
C162 C163 1.389 . S
C163 C162 1.389 . S
C163 C164 1.387 . S
C164 H149 0.930 . S
C164 C159 1.390 . S
C164 C163 1.387 . S
H165 C177 0.930 . S
H166 C179 0.930 . S
H167 C180 0.930 . S
H168 C184 0.959 . S
H169 C184 0.959 . S
H170 C184 0.961 . S
H171 C185 0.960 . S
H172 C185 0.961 . S
H173 C185 0.959 . S
H174 C188 0.929 . S
H175 C189 0.931 . S
H176 C191 0.930 . S
C177 H165 0.930 . S
C177 C178 1.399 1_565 S
C177 C182 1.399 . S
C178 C177 1.399 1_545 S
C178 C179 1.376 . S
C179 H166 0.930 . S
C179 C178 1.376 . S
C179 C180 1.388 . S
C180 H167 0.930 . S
C180 C179 1.388 . S
C180 C181 1.390 . S
C181 C180 1.390 . S
C181 C182 1.394 1_545 S
C181 C187 1.465 . S
C182 C177 1.399 . S
C182 C181 1.394 1_565 S
C182 C183 1.516 . S
C183 C182 1.516 . S
C183 C184 1.502 . S
C183 C185 1.561 . S
C183 C186 1.526 . S
C184 H168 0.959 . S
C184 H169 0.959 . S
C184 H170 0.961 . S
C184 C183 1.502 . S
C185 H171 0.960 . S
C185 H172 0.961 . S
C185 H173 0.959 . S
C185 C183 1.561 . S
C186 C183 1.526 . S
C186 C187 1.396 1_565 S
C186 C191 1.390 . S
C187 C181 1.465 . S
C187 C186 1.396 1_545 S
C187 C188 1.399 . S
C188 H174 0.929 . S
C188 C187 1.399 . S
C188 C189 1.385 . S
C189 H175 0.931 . S
C189 C188 1.385 . S
C189 C190 1.389 . S
C190 C189 1.389 . S
C190 C191 1.387 1_545 S
C191 H176 0.930 . S
C191 C186 1.390 . S
C191 C190 1.387 1_565 S
H192 C204 0.930 . S
H193 C206 0.930 . S
H194 C207 0.930 . S
H195 C211 0.959 . S
H196 C211 0.959 . S
H197 C211 0.961 . S
H198 C212 0.960 . S
H199 C212 0.961 . S
H200 C212 0.959 . S
H201 C215 0.929 . S
H202 C216 0.931 . S
H203 C218 0.930 . S
C204 H192 0.930 . S
C204 C205 1.399 . S
C204 C209 1.399 . S
C205 C204 1.399 . S
C205 C206 1.376 . S
C206 H193 0.930 . S
C206 C205 1.376 . S
C206 C207 1.388 . S
C207 H194 0.930 . S
C207 C206 1.388 . S
C207 C208 1.390 . S
C208 C207 1.390 . S
C208 C209 1.394 . S
C208 C214 1.465 . S
C209 C204 1.399 . S
C209 C208 1.394 . S
C209 C210 1.516 . S
C210 C209 1.516 . S
C210 C211 1.502 . S
C210 C212 1.561 . S
C210 C213 1.526 . S
C211 H195 0.959 . S
C211 H196 0.959 . S
C211 H197 0.961 . S
C211 C210 1.502 . S
C212 H198 0.960 . S
C212 H199 0.961 . S
C212 H200 0.959 . S
C212 C210 1.561 . S
C213 C210 1.526 . S
C213 C214 1.396 . S
C213 C218 1.390 . S
C214 C208 1.465 . S
C214 C213 1.396 . S
C214 C215 1.399 . S
C215 H201 0.929 . S
C215 C214 1.399 . S
C215 C216 1.385 . S
C216 H202 0.931 . S
C216 C215 1.385 . S
C216 C217 1.389 . S
C217 C216 1.389 . S
C217 C218 1.387 . S
C218 H203 0.930 . S
C218 C213 1.390 . S
C218 C217 1.387 . S
H219 C231 0.930 . S
H220 C233 0.930 . S
H221 C234 0.930 . S
H222 C238 0.959 . S
H223 C238 0.959 . S
H224 C238 0.961 . S
H225 C239 0.960 . S
H226 C239 0.961 . S
H227 C239 0.959 . S
H228 C242 0.929 . S
H229 C243 0.931 . S
H230 C245 0.930 . S
C231 H219 0.930 . S
C231 C232 1.399 1_545 S
C231 C236 1.399 . S
C232 C231 1.399 1_565 S
C232 C233 1.376 . S
C233 H220 0.930 . S
C233 C232 1.376 . S
C233 C234 1.388 . S
C234 H221 0.930 . S
C234 C233 1.388 . S
C234 C235 1.390 . S
C235 C234 1.390 . S
C235 C236 1.394 1_565 S
C235 C241 1.465 . S
C236 C231 1.399 . S
C236 C235 1.394 1_545 S
C236 C237 1.516 . S
C237 C236 1.516 . S
C237 C238 1.502 . S
C237 C239 1.561 . S
C237 C240 1.526 . S
C238 H222 0.959 . S
C238 H223 0.959 . S
C238 H224 0.961 . S
C238 C237 1.502 . S
C239 H225 0.960 . S
C239 H226 0.961 . S
C239 H227 0.959 . S
C239 C237 1.561 . S
C240 C237 1.526 . S
C240 C241 1.396 1_545 S
C240 C245 1.390 . S
C241 C235 1.465 . S
C241 C240 1.396 1_565 S
C241 C242 1.399 . S
C242 H228 0.929 . S
C242 C241 1.399 . S
C242 C243 1.385 . S
C243 H229 0.931 . S
C243 C242 1.385 . S
C243 C244 1.389 . S
C244 C243 1.389 . S
C244 C245 1.387 1_565 S
C245 H230 0.930 . S
C245 C240 1.390 . S
C245 C244 1.387 1_545 S
H246 C258 0.930 . S
H247 C260 0.930 . S
H248 C261 0.930 . S
H249 C265 0.959 . S
H250 C265 0.959 . S
H251 C265 0.961 . S
H252 C266 0.960 . S
H253 C266 0.961 . S
H254 C266 0.959 . S
H255 C269 0.929 . S
H256 C270 0.931 . S
H257 C272 0.930 . S
C258 H246 0.930 . S
C258 C259 1.399 . S
C258 C263 1.399 . S
C259 C258 1.399 . S
C259 C260 1.376 . S
C260 H247 0.930 . S
C260 C259 1.376 . S
C260 C261 1.388 . S
C261 H248 0.930 . S
C261 C260 1.388 . S
C261 C262 1.390 . S
C262 C261 1.390 . S
C262 C263 1.394 . S
C262 C268 1.465 . S
C263 C258 1.399 . S
C263 C262 1.394 . S
C263 C264 1.516 . S
C264 C263 1.516 . S
C264 C265 1.502 . S
C264 C266 1.561 . S
C264 C267 1.526 . S
C265 H249 0.959 . S
C265 H250 0.959 . S
C265 H251 0.961 . S
C265 C264 1.502 . S
C266 H252 0.960 . S
C266 H253 0.961 . S
C266 H254 0.959 . S
C266 C264 1.561 . S
C267 C264 1.526 . S
C267 C268 1.396 . S
C267 C272 1.390 . S
C268 C262 1.465 . S
C268 C267 1.396 . S
C268 C269 1.399 . S
C269 H255 0.929 . S
C269 C268 1.399 . S
C269 C270 1.385 . S
C270 H256 0.931 . S
C270 C269 1.385 . S
C270 C271 1.389 . S
C271 C270 1.389 . S
C271 C272 1.387 . S
C272 H257 0.930 . S
C272 C267 1.390 . S
C272 C271 1.387 . S
H273 C285 0.930 . S
H274 C287 0.930 . S
H275 C288 0.930 . S
H276 C292 0.959 . S
H277 C292 0.959 . S
H278 C292 0.961 . S
H279 C293 0.960 . S
H280 C293 0.961 . S
H281 C293 0.959 . S
H282 C296 0.929 . S
H283 C297 0.931 . S
H284 C299 0.930 . S
C285 H273 0.930 . S
C285 C286 1.399 . S
C285 C290 1.399 . S
C286 C285 1.399 . S
C286 C287 1.376 . S
C287 H274 0.930 . S
C287 C286 1.376 . S
C287 C288 1.388 . S
C288 H275 0.930 . S
C288 C287 1.388 . S
C288 C289 1.390 . S
C289 C288 1.390 . S
C289 C290 1.394 . S
C289 C295 1.465 . S
C290 C285 1.399 . S
C290 C289 1.394 . S
C290 C291 1.516 . S
C291 C290 1.516 . S
C291 C292 1.502 . S
C291 C293 1.561 . S
C291 C294 1.526 . S
C292 H276 0.959 . S
C292 H277 0.959 . S
C292 H278 0.961 . S
C292 C291 1.502 . S
C293 H279 0.960 . S
C293 H280 0.961 . S
C293 H281 0.959 . S
C293 C291 1.561 . S
C294 C291 1.526 . S
C294 C295 1.396 . S
C294 C299 1.390 . S
C295 C289 1.465 . S
C295 C294 1.396 . S
C295 C296 1.399 . S
C296 H282 0.929 . S
C296 C295 1.399 . S
C296 C297 1.385 . S
C297 H283 0.931 . S
C297 C296 1.385 . S
C297 C298 1.389 . S
C298 C297 1.389 . S
C298 C299 1.387 . S
C299 H284 0.930 . S
C299 C294 1.390 . S
C299 C298 1.387 . S
H300 C312 0.930 . S
H301 C314 0.930 . S
H302 C315 0.930 . S
H303 C319 0.959 . S
H304 C319 0.959 . S
H305 C319 0.961 . S
H306 C320 0.960 . S
H307 C320 0.961 . S
H308 C320 0.959 . S
H309 C323 0.929 . S
H310 C324 0.931 . S
H311 C326 0.930 . S
C312 H300 0.930 . S
C312 C313 1.399 . S
C312 C317 1.399 . S
C313 C312 1.399 . S
C313 C314 1.376 . S
C314 H301 0.930 . S
C314 C313 1.376 . S
C314 C315 1.388 . S
C315 H302 0.930 . S
C315 C314 1.388 . S
C315 C316 1.390 . S
C316 C315 1.390 . S
C316 C317 1.394 . S
C316 C322 1.465 . S
C317 C312 1.399 . S
C317 C316 1.394 . S
C317 C318 1.516 . S
C318 C317 1.516 . S
C318 C319 1.502 . S
C318 C320 1.561 . S
C318 C321 1.526 . S
C319 H303 0.959 . S
C319 H304 0.959 . S
C319 H305 0.961 . S
C319 C318 1.502 . S
C320 H306 0.960 . S
C320 H307 0.961 . S
C320 H308 0.959 . S
C320 C318 1.561 . S
C321 C318 1.526 . S
C321 C322 1.396 . S
C321 C326 1.390 . S
C322 C316 1.465 . S
C322 C321 1.396 . S
C322 C323 1.399 . S
C323 H309 0.929 . S
C323 C322 1.399 . S
C323 C324 1.385 . S
C324 H310 0.931 . S
C324 C323 1.385 . S
C324 C325 1.389 . S
C325 C324 1.389 . S
C325 C326 1.387 . S
C326 H311 0.930 . S
C326 C321 1.390 . S
C326 C325 1.387 . S
H327 C339 0.930 . S
H328 C341 0.930 . S
H329 C342 0.930 . S
H330 C346 0.959 . S
H331 C346 0.959 . S
H332 C346 0.961 . S
H333 C347 0.960 . S
H334 C347 0.961 . S
H335 C347 0.959 . S
H336 C350 0.929 . S
H337 C351 0.931 . S
H338 C353 0.930 . S
C339 H327 0.930 . S
C339 C340 1.399 1_565 S
C339 C344 1.399 . S
C340 C339 1.399 1_545 S
C340 C341 1.376 . S
C341 H328 0.930 . S
C341 C340 1.376 . S
C341 C342 1.388 . S
C342 H329 0.930 . S
C342 C341 1.388 . S
C342 C343 1.390 . S
C343 C342 1.390 . S
C343 C344 1.394 1_545 S
C343 C349 1.465 . S
C344 C339 1.399 . S
C344 C343 1.394 1_565 S
C344 C345 1.516 . S
C345 C344 1.516 . S
C345 C346 1.502 . S
C345 C347 1.561 1_455 S
C345 C348 1.526 . S
C346 H330 0.959 . S
C346 H331 0.959 . S
C346 H332 0.961 . S
C346 C345 1.502 . S
C347 H333 0.960 . S
C347 H334 0.961 . S
C347 H335 0.959 . S
C347 C345 1.561 1_655 S
C348 C345 1.526 . S
C348 C349 1.396 1_565 S
C348 C353 1.390 . S
C349 C343 1.465 . S
C349 C348 1.396 1_545 S
C349 C350 1.399 . S
C350 H336 0.929 . S
C350 C349 1.399 . S
C350 C351 1.385 . S
C351 H337 0.931 . S
C351 C350 1.385 . S
C351 C352 1.389 . S
C352 C351 1.389 . S
C352 C353 1.387 1_545 S
C353 H338 0.930 . S
C353 C348 1.390 . S
C353 C352 1.387 1_565 S
H354 C366 0.930 . S
H355 C368 0.930 . S
H356 C369 0.930 . S
H357 C373 0.959 . S
H358 C373 0.959 1_565 S
H359 C373 0.961 1_565 S
H360 C374 0.960 1_565 S
H361 C374 0.961 1_565 S
H362 C374 0.959 1_455 S
H363 C377 0.929 . S
H364 C378 0.931 . S
H365 C380 0.930 . S
C366 H354 0.930 . S
C366 C367 1.400 . S
C366 C371 1.399 . S
C367 C366 1.400 . S
C367 C368 1.376 1_655 S
C368 H355 0.930 . S
C368 C367 1.376 1_455 S
C368 C369 1.388 . S
C369 H356 0.930 . S
C369 C368 1.388 . S
C369 C370 1.390 . S
C370 C369 1.390 . S
C370 C371 1.394 1_455 S
C370 C376 1.465 . S
C371 C366 1.399 . S
C371 C370 1.394 1_655 S
C371 C372 1.516 . S
C372 C371 1.516 . S
C372 C373 1.502 . S
C372 C374 1.561 . S
C372 C375 1.526 . S
C373 H357 0.959 . S
C373 H358 0.959 1_545 S
C373 H359 0.961 1_545 S
C373 C372 1.502 . S
C374 H360 0.960 1_545 S
C374 H361 0.961 1_545 S
C374 H362 0.959 1_655 S
C374 C372 1.561 . S
C375 C372 1.526 . S
C375 C376 1.396 1_655 S
C375 C380 1.390 . S
C376 C370 1.465 . S
C376 C375 1.396 1_455 S
C376 C377 1.399 . S
C377 H363 0.929 . S
C377 C376 1.399 . S
C377 C378 1.385 . S
C378 H364 0.931 . S
C378 C377 1.385 . S
C378 C379 1.389 . S
C379 C378 1.389 . S
C379 C380 1.387 1_455 S
C380 H365 0.930 . S
C380 C375 1.390 . S
C380 C379 1.387 1_655 S
H381 C393 0.930 . S
H382 C395 0.930 . S
H383 C396 0.930 . S
H384 C400 0.959 . S
H385 C400 0.959 . S
H386 C400 0.961 1_554 S
H387 C401 0.969 1_554 S
H388 C401 0.961 1_565 S
H389 C401 0.959 . S
H390 C404 0.929 . S
H391 C405 0.931 . S
H392 C407 0.930 . S
C393 H381 0.930 . S
C393 C394 1.399 . S
C393 C398 1.399 . S
C394 C393 1.399 . S
C394 C395 1.376 . S
C395 H382 0.930 . S
C395 C394 1.376 . S
C395 C396 1.388 . S
C396 H383 0.930 . S
C396 C395 1.388 . S
C396 C397 1.390 . S
C397 C396 1.390 . S
C397 C398 1.394 . S
C397 C403 1.465 1_554 S
C398 C393 1.399 . S
C398 C397 1.394 . S
C398 C399 1.516 1_554 S
C399 C398 1.516 1_556 S
C399 C400 1.502 . S
C399 C401 1.561 1_455 S
C399 C402 1.526 . S
C400 H384 0.959 . S
C400 H385 0.959 . S
C400 H386 0.961 1_556 S
C400 C399 1.502 . S
C401 H387 0.969 1_556 S
C401 H388 0.961 1_545 S
C401 H389 0.959 . S
C401 C399 1.561 1_655 S
C402 C399 1.526 . S
C402 C403 1.396 . S
C402 C407 1.390 . S
C403 C397 1.465 1_556 S
C403 C402 1.396 . S
C403 C404 1.399 . S
C404 H390 0.929 . S
C404 C403 1.399 . S
C404 C405 1.385 . S
C405 H391 0.931 . S
C405 C404 1.385 . S
C405 C406 1.389 . S
C406 C405 1.389 . S
C406 C407 1.387 . S
C407 H392 0.930 . S
C407 C402 1.390 . S
C407 C406 1.387 . S
H408 C420 0.930 . S
H409 C422 0.930 . S
H410 C423 0.930 . S
H411 C427 0.953 1_645 S
H412 C427 0.955 1_655 S
H413 C427 0.961 1_655 S
H414 C428 0.960 . S
H415 C428 0.961 . S
H416 C428 0.959 . S
H417 C431 0.929 . S
H418 C432 0.931 . S
H419 C434 0.930 1_565 S
C420 H408 0.930 . S
C420 C421 1.399 . S
C420 C425 1.399 . S
C421 C420 1.399 . S
C421 C422 1.376 . S
C422 H409 0.930 . S
C422 C421 1.376 . S
C422 C423 1.388 . S
C423 H410 0.930 . S
C423 C422 1.388 . S
C423 C424 1.390 . S
C424 C423 1.390 . S
C424 C425 1.394 . S
C424 C430 1.465 . S
C425 C420 1.399 . S
C425 C424 1.394 . S
C425 C426 1.516 1_545 S
C426 C425 1.516 1_565 S
C426 C427 1.512 . S
C426 C428 1.561 . S
C426 C429 1.526 1_565 S
C427 H411 0.953 1_465 S
C427 H412 0.955 1_455 S
C427 H413 0.961 1_455 S
C427 C426 1.512 . S
C428 H414 0.960 . S
C428 H415 0.961 . S
C428 H416 0.959 . S
C428 C426 1.561 . S
C429 C426 1.526 1_545 S
C429 C430 1.396 . S
C429 C434 1.390 . S
C430 C424 1.465 . S
C430 C429 1.396 . S
C430 C431 1.399 . S
C431 H417 0.929 . S
C431 C430 1.399 . S
C431 C432 1.385 . S
C432 H418 0.931 . S
C432 C431 1.385 . S
C432 C433 1.389 . S
C433 C432 1.389 . S
C433 C434 1.387 . S
C434 H419 0.930 1_545 S
C434 C429 1.390 . S
C434 C433 1.387 . S
H435 C447 0.930 . S
H436 C449 0.930 . S
H437 C450 0.930 . S
H438 C454 0.959 . S
H439 C454 0.959 . S
H440 C454 0.961 . S
H441 C455 0.960 . S
H442 C455 0.961 . S
H443 C455 0.959 1_655 S
H444 C458 0.929 1_565 S
H445 C459 0.931 1_565 S
H446 C461 0.930 . S
C447 H435 0.930 . S
C447 C448 1.399 1_455 S
C447 C452 1.399 . S
C448 C447 1.399 1_655 S
C448 C449 1.376 1_545 S
C449 H436 0.930 . S
C449 C448 1.376 1_565 S
C449 C450 1.388 . S
C450 H437 0.930 . S
C450 C449 1.388 . S
C450 C451 1.390 1_565 S
C451 C450 1.390 1_545 S
C451 C452 1.394 1_655 S
C451 C457 1.465 . S
C452 C447 1.399 . S
C452 C451 1.394 1_455 S
C452 C453 1.516 . S
C453 C452 1.516 . S
C453 C454 1.502 . S
C453 C455 1.561 . S
C453 C456 1.526 . S
C454 H438 0.959 . S
C454 H439 0.959 . S
C454 H440 0.961 . S
C454 C453 1.502 . S
C455 H441 0.960 . S
C455 H442 0.961 . S
C455 H443 0.959 1_455 S
C455 C453 1.561 . S
C456 C453 1.526 . S
C456 C457 1.396 1_455 S
C456 C461 1.390 . S
C457 C451 1.465 . S
C457 C456 1.396 1_655 S
C457 C458 1.399 . S
C458 H444 0.929 1_545 S
C458 C457 1.399 . S
C458 C459 1.385 . S
C459 H445 0.931 1_545 S
C459 C458 1.385 . S
C459 C460 1.389 . S
C460 C459 1.389 . S
C460 C461 1.387 1_655 S
C461 H446 0.930 . S
C461 C456 1.390 . S
C461 C460 1.387 1_455 S
C151 N2 1.424 . S
C163 N12 1.485 . S
C178 C39 1.490 1_545 S
C190 C30 1.480 1_545 S
C205 N48 1.444 . S
C217 N58 1.440 . S
C232 C76 1.478 . S
C244 C85 1.468 . S
C259 N94 1.485 . S
C271 N104 1.435 . S
C286 N117 1.438 . S
C298 N127 1.484 . S
C313 C131 1.464 . S
C325 C16 1.474 . S
C340 N81 1.442 . S
C352 N35 1.477 . S
C367 C62 1.517 . S
C379 C108 1.530 . S
C394 C7 1.512 . S
C406 C99 1.514 . S
C421 C122 1.483 . S
C433 N25 1.431 . S
C448 N71 1.504 1_655 S
C460 C53 1.504 . S
