# Generated by pormake.
# Topology umg, (4)-cn, num edge types: 1
# Building blocks:
#     Node 0, Type 0, BuildingBlock: ESEHIV_clean_sbu_0, # of connection points: 4
#     Node 1, Type 0, BuildingBlock: ESEHIV_clean_sbu_0, # of connection points: 4
#     Node 2, Type 0, BuildingBlock: ESEHIV_clean_sbu_0, # of connection points: 4
#     Node 3, Type 0, BuildingBlock: ESEHIV_clean_sbu_0, # of connection points: 4
#     Node 4, Type 0, BuildingBlock: ESEHIV_clean_sbu_0, # of connection points: 4
#     Node 5, Type 0, BuildingBlock: ESEHIV_clean_sbu_0, # of connection points: 4
#     Node 6, Type 0, BuildingBlock: ESEHIV_clean_sbu_0, # of connection points: 4
#     Node 7, Type 0, BuildingBlock: ESEHIV_clean_sbu_0, # of connection points: 4
#     Node 8, Type 0, BuildingBlock: ESEHIV_clean_sbu_0, # of connection points: 4
#     Node 9, Type 0, BuildingBlock: ESEHIV_clean_sbu_0, # of connection points: 4
#     Node 10, Type 0, BuildingBlock: ESEHIV_clean_sbu_0, # of connection points: 4
#     Node 11, Type 0, BuildingBlock: ESEHIV_clean_sbu_0, # of connection points: 4
#     Edge 12, Type (0, 0), BuildingBlock: CIFDUS_clean_linker_0, # of connection points: 2
#     Edge 13, Type (0, 0), BuildingBlock: CIFDUS_clean_linker_0, # of connection points: 2
#     Edge 14, Type (0, 0), BuildingBlock: CIFDUS_clean_linker_0, # of connection points: 2
#     Edge 15, Type (0, 0), BuildingBlock: CIFDUS_clean_linker_0, # of connection points: 2
#     Edge 16, Type (0, 0), BuildingBlock: CIFDUS_clean_linker_0, # of connection points: 2
#     Edge 17, Type (0, 0), BuildingBlock: CIFDUS_clean_linker_0, # of connection points: 2
#     Edge 18, Type (0, 0), BuildingBlock: CIFDUS_clean_linker_0, # of connection points: 2
#     Edge 19, Type (0, 0), BuildingBlock: CIFDUS_clean_linker_0, # of connection points: 2
#     Edge 20, Type (0, 0), BuildingBlock: CIFDUS_clean_linker_0, # of connection points: 2
#     Edge 21, Type (0, 0), BuildingBlock: CIFDUS_clean_linker_0, # of connection points: 2
#     Edge 22, Type (0, 0), BuildingBlock: CIFDUS_clean_linker_0, # of connection points: 2
#     Edge 23, Type (0, 0), BuildingBlock: CIFDUS_clean_linker_0, # of connection points: 2
#     Edge 24, Type (0, 0), BuildingBlock: CIFDUS_clean_linker_0, # of connection points: 2
#     Edge 25, Type (0, 0), BuildingBlock: CIFDUS_clean_linker_0, # of connection points: 2
#     Edge 26, Type (0, 0), BuildingBlock: CIFDUS_clean_linker_0, # of connection points: 2
#     Edge 27, Type (0, 0), BuildingBlock: CIFDUS_clean_linker_0, # of connection points: 2
#     Edge 28, Type (0, 0), BuildingBlock: CIFDUS_clean_linker_0, # of connection points: 2
#     Edge 29, Type (0, 0), BuildingBlock: CIFDUS_clean_linker_0, # of connection points: 2
#     Edge 30, Type (0, 0), BuildingBlock: CIFDUS_clean_linker_0, # of connection points: 2
#     Edge 31, Type (0, 0), BuildingBlock: CIFDUS_clean_linker_0, # of connection points: 2
#     Edge 32, Type (0, 0), BuildingBlock: CIFDUS_clean_linker_0, # of connection points: 2
#     Edge 33, Type (0, 0), BuildingBlock: CIFDUS_clean_linker_0, # of connection points: 2
#     Edge 34, Type (0, 0), BuildingBlock: CIFDUS_clean_linker_0, # of connection points: 2
#     Edge 35, Type (0, 0), BuildingBlock: CIFDUS_clean_linker_0, # of connection points: 2
# Relax obj value: 0.031
# Max RMSD: 0.114
# Mean RMSD: 0.085
data_MOF--net-umg--node1-ESEHIV_clean_sbu_0--edge1-CIFDUS_clean_linker_0
_symmetry_space_group_name_H-M    P1
_symmetry_Int_Tables_number       1
_symmetry_cell_setting            triclinic
loop_
_symmetry_equiv_pos_as_xyz
'x, y, z'
_cell_length_a     25.280476
_cell_length_b     30.419969
_cell_length_c     79.674945
_cell_angle_alpha  89.884395
_cell_angle_beta   89.999612
_cell_angle_gamma 114.32406
loop_
_atom_site_label
_atom_site_type_symbol
_atom_site_fract_x
_atom_site_fract_y
_atom_site_fract_z
_atom_type_partial_charge
Cu0 Cu 0.37205 0.59226 0.10863 0.0
N1 N 0.39282 0.63623 0.09069 0.0
N2 N 0.40659 0.66735 0.06473 0.0
C3 C 0.39351 0.62716 0.07413 0.0
C4 C 0.41528 0.7031 0.07584 0.0
C5 C 0.40667 0.68381 0.0918 0.0
O6 O 0.41529 0.55135 0.10727 0.0
C7 C 0.25464 0.54398 0.09617 0.0
O8 O 0.27824 0.54834 0.08125 0.0
H9 H 0.38399 0.5917 0.06908 0.0
H10 H 0.40884 0.70289 0.1034 0.0
N11 N 0.38994 0.62633 0.12892 0.0
N12 N 0.37708 0.65857 0.15303 0.0
C13 C 0.35199 0.635 0.1388 0.0
C14 C 0.44091 0.64515 0.13713 0.0
C15 C 0.43314 0.66504 0.15198 0.0
C16 C 0.46986 0.57049 0.1043 0.0
O17 O 0.4954 0.61723 0.10163 0.0
H18 H 0.30648 0.62314 0.13575 0.0
H19 H 0.48083 0.64412 0.13274 0.0
O20 O 0.28733 0.55693 0.10904 0.0
H21 H 0.42495 0.74024 0.07266 0.0
H22 H 0.46639 0.68311 0.16122 0.0
Cu23 Cu 0.80363 0.27613 0.4424 0.0
N24 N 0.77691 0.20985 0.44508 0.0
N25 N 0.71167 0.13408 0.4483 0.0
C26 C 0.72033 0.17992 0.44498 0.0
C27 C 0.76509 0.13498 0.45041 0.0
C28 C 0.80544 0.18207 0.44853 0.0
O29 O 0.77623 0.29973 0.46155 0.0
C30 C 0.79244 0.27396 0.40778 0.0
O31 O 0.82369 0.24877 0.40938 0.0
H32 H 0.68608 0.19162 0.4425 0.0
H33 H 0.85195 0.19516 0.44996 0.0
N34 N 0.88374 0.30828 0.44289 0.0
N35 N 0.96781 0.37301 0.44463 0.0
C36 C 0.91018 0.35478 0.44735 0.0
C37 C 0.92594 0.29613 0.43714 0.0
C38 C 0.97814 0.33622 0.4382 0.0
C39 C 0.72407 0.29336 0.46424 0.0
O40 O 0.68473 0.27326 0.45259 0.0
H41 H 0.88673 0.37566 0.45145 0.0
H42 H 0.91899 0.26154 0.43179 0.0
O43 O 0.77719 0.28949 0.42095 0.0
H44 H 0.77419 0.10414 0.45354 0.0
H45 H 1.01994 0.33851 0.43404 0.0
Cu46 Cu 0.45995 0.74493 0.74389 0.0
N47 N 0.50306 0.70816 0.74147 0.0
N48 N 0.52245 0.64281 0.74107 0.0
C49 C 0.48471 0.66146 0.74584 0.0
C50 C 0.56631 0.67937 0.73337 0.0
C51 C 0.55397 0.71954 0.73352 0.0
O52 O 0.4144 0.72415 0.76446 0.0
C53 C 0.43024 0.7622 0.71084 0.0
O54 O 0.47516 0.80372 0.71254 0.0
H55 H 0.44389 0.64147 0.75217 0.0
H56 H 0.57925 0.75403 0.72771 0.0
N57 N 0.50853 0.81028 0.74665 0.0
N58 N 0.53734 0.8898 0.74992 0.0
C59 C 0.49238 0.84733 0.74654 0.0
C60 C 0.56542 0.82984 0.75046 0.0
C61 C 0.58336 0.87887 0.75242 0.0
C62 C 0.44247 0.72284 0.77762 0.0
O63 O 0.49847 0.73449 0.77635 0.0
H64 H 0.44825 0.84295 0.74433 0.0
H65 H 0.59183 0.8098 0.75202 0.0
O66 O 0.41387 0.73329 0.72331 0.0
H67 H 0.6034 0.67678 0.72742 0.0
H68 H 0.62697 0.90446 0.7554 0.0
Cu69 Cu 0.80713 0.43763 0.1034 0.0
N70 N 0.7999 0.40546 0.08307 0.0
N71 N 0.79228 0.39046 0.05557 0.0
C72 C 0.77677 0.41152 0.06845 0.0
C73 C 0.82605 0.37046 0.06231 0.0
C74 C 0.83089 0.37997 0.07921 0.0
O75 O 0.76022 0.47557 0.10326 0.0
C76 C 0.92158 0.48176 0.1181 0.0
O77 O 0.89596 0.4665 0.13262 0.0
H78 H 0.75326 0.43407 0.06705 0.0
H79 H 0.85885 0.37214 0.08785 0.0
N80 N 0.78426 0.39261 0.12098 0.0
N81 N 0.76085 0.3611 0.14671 0.0
C82 C 0.76825 0.39893 0.1366 0.0
C83 C 0.78627 0.34905 0.1212 0.0
C84 C 0.77201 0.3296 0.13705 0.0
C85 C 0.7048 0.45494 0.10382 0.0
O86 O 0.67945 0.40761 0.10453 0.0
H87 H 0.76458 0.43152 0.14064 0.0
H88 H 0.79842 0.33277 0.11071 0.0
O89 O 0.89079 0.47659 0.10497 0.0
H90 H 0.84806 0.35239 0.05535 0.0
H91 H 0.77016 0.29505 0.14116 0.0
Cu92 Cu 0.34945 0.75205 0.43268 0.0
N93 N 0.36653 0.81434 0.4399 0.0
N94 N 0.43004 0.88994 0.44465 0.0
C95 C 0.41337 0.85192 0.43418 0.0
C96 C 0.39073 0.87632 0.45722 0.0
C97 C 0.35168 0.82929 0.45432 0.0
O98 O 0.38561 0.72533 0.4489 0.0
C99 C 0.35253 0.72878 0.39762 0.0
O100 O 0.31651 0.68447 0.40136 0.0
H101 H 0.4384 0.84944 0.42349 0.0
H102 H 0.31898 0.80618 0.46295 0.0
N103 N 0.27072 0.71315 0.43386 0.0
N104 N 0.19122 0.64451 0.43506 0.0
C105 C 0.24916 0.66486 0.43315 0.0
C106 C 0.22492 0.72403 0.43656 0.0
C107 C 0.17544 0.68139 0.43736 0.0
C108 C 0.43487 0.75055 0.45534 0.0
O109 O 0.46969 0.79005 0.4476 0.0
H110 H 0.27581 0.64494 0.43161 0.0
H111 H 0.22745 0.76018 0.43803 0.0
O112 O 0.37526 0.75905 0.40937 0.0
H113 H 0.39359 0.8969 0.46852 0.0
H114 H 0.13146 0.67776 0.43935 0.0
Cu115 Cu 0.58909 0.28007 0.74667 0.0
N116 N 0.55071 0.32073 0.74924 0.0
N117 N 0.53378 0.38731 0.75007 0.0
C118 C 0.57127 0.36811 0.74555 0.0
C119 C 0.48807 0.35051 0.75699 0.0
C120 C 0.49881 0.30965 0.75654 0.0
O121 O 0.63121 0.28369 0.76728 0.0
C122 C 0.62144 0.31072 0.71363 0.0
O123 O 0.57306 0.31694 0.71407 0.0
H124 H 0.61299 0.38799 0.73968 0.0
H125 H 0.47134 0.27457 0.76157 0.0
N126 N 0.53584 0.21628 0.74405 0.0
N127 N 0.50132 0.1359 0.7423 0.0
C128 C 0.54733 0.17721 0.74622 0.0
C129 C 0.48081 0.1994 0.73849 0.0
C130 C 0.4593 0.14982 0.73746 0.0
C131 C 0.66342 0.32386 0.77389 0.0
O132 O 0.67454 0.36387 0.76547 0.0
H133 H 0.58946 0.17945 0.75002 0.0
H134 H 0.45832 0.22161 0.73509 0.0
O135 O 0.63823 0.29637 0.72679 0.0
H136 H 0.45029 0.35312 0.76246 0.0
H137 H 0.41617 0.12604 0.73335 0.0
Cu138 Cu 0.49416 0.76815 0.5843 0.0
N139 N 0.54734 0.83237 0.58518 0.0
N140 N 0.57834 0.9126 0.5858 0.0
C141 C 0.53244 0.86962 0.58739 0.0
C142 C 0.62405 0.90182 0.58247 0.0
C143 C 0.60475 0.8522 0.5821 0.0
O144 O 0.46668 0.75803 0.56127 0.0
C145 C 0.42055 0.72899 0.61284 0.0
O146 O 0.42912 0.68978 0.6103 0.0
H147 H 0.48812 0.86511 0.58934 0.0
H148 H 0.63033 0.83207 0.57929 0.0
N149 N 0.52987 0.72657 0.5888 0.0
N150 N 0.5441 0.65873 0.58941 0.0
C151 C 0.51313 0.68156 0.58274 0.0
C152 C 0.57319 0.73275 0.59961 0.0
C153 C 0.58212 0.69095 0.60001 0.0
C154 C 0.42408 0.72259 0.55501 0.0
O155 O 0.38847 0.68872 0.5649 0.0
H156 H 0.47719 0.6652 0.57417 0.0
H157 H 0.59568 0.76496 0.60697 0.0
O158 O 0.43791 0.76246 0.60185 0.0
H159 H 0.66809 0.92783 0.58022 0.0
H160 H 0.61385 0.68475 0.60763 0.0
Cu161 Cu 0.73377 0.44751 0.91534 0.0
N162 N 0.70423 0.41196 0.9348 0.0
N163 N 0.69096 0.3912 0.96184 0.0
C164 C 0.72788 0.42022 0.95023 0.0
C165 C 0.64241 0.36364 0.95337 0.0
C166 C 0.65075 0.37657 0.93668 0.0
O167 O 0.81685 0.48747 0.91806 0.0
C168 C 0.6947 0.52232 0.91891 0.0
O169 O 0.74005 0.54178 0.92878 0.0
H170 H 0.77021 0.44834 0.953 0.0
H171 H 0.61945 0.36228 0.92666 0.0
N172 N 0.72449 0.40563 0.89744 0.0
N173 N 0.72058 0.37832 0.87121 0.0
C174 C 0.72556 0.41615 0.881 0.0
C175 C 0.71852 0.35968 0.89819 0.0
C176 C 0.71613 0.34273 0.88206 0.0
C177 C 0.85136 0.4666 0.91937 0.0
O178 O 0.82955 0.41924 0.91928 0.0
H179 H 0.72969 0.45089 0.8764 0.0
H180 H 0.71705 0.34019 0.90967 0.0
O181 O 0.68647 0.48342 0.91125 0.0
H182 H 0.60352 0.33645 0.95888 0.0
H183 H 0.71252 0.30719 0.87868 0.0
Cu184 Cu 0.257 0.77384 0.26892 0.0
N185 N 0.17518 0.74396 0.26931 0.0
N186 N 0.08345 0.68742 0.27114 0.0
C187 C 0.14061 0.69627 0.27029 0.0
C188 C 0.08259 0.73156 0.27069 0.0
C189 C 0.13885 0.76608 0.2696 0.0
O190 O 0.28633 0.74715 0.25074 0.0
C191 C 0.28613 0.78028 0.30378 0.0
O192 O 0.26877 0.81545 0.30413 0.0
H193 H 0.15733 0.66876 0.27043 0.0
H194 H 0.15239 0.80475 0.26937 0.0
N195 N 0.28446 0.84113 0.26523 0.0
N196 N 0.33637 0.92146 0.26585 0.0
C197 C 0.32634 0.87858 0.27326 0.0
C198 C 0.26796 0.86131 0.25235 0.0
C199 C 0.29974 0.91056 0.25268 0.0
C200 C 0.26501 0.74042 0.23599 0.0
O201 O 0.22007 0.75034 0.23286 0.0
H202 H 0.35021 0.87452 0.28398 0.0
H203 H 0.23536 0.84142 0.24319 0.0
O204 O 0.28501 0.75879 0.29001 0.0
H205 H 0.04422 0.73879 0.27158 0.0
H206 H 0.29585 0.93646 0.24398 0.0
Cu207 Cu 0.58834 0.29306 0.58713 0.0
N208 N 0.54368 0.2278 0.59137 0.0
N209 N 0.51925 0.14852 0.59412 0.0
C210 C 0.56077 0.19165 0.58936 0.0
C211 C 0.47408 0.15825 0.59912 0.0
C212 C 0.48931 0.20709 0.59743 0.0
O213 O 0.62547 0.29867 0.56558 0.0
C214 C 0.65756 0.29998 0.61649 0.0
O215 O 0.65203 0.2561 0.61306 0.0
H216 H 0.6036 0.19742 0.58496 0.0
H217 H 0.46285 0.22625 0.60053 0.0
N218 N 0.54193 0.32705 0.58542 0.0
N219 N 0.51886 0.39039 0.58678 0.0
C220 C 0.55585 0.3713 0.59183 0.0
C221 C 0.49433 0.31751 0.576 0.0
C222 C 0.47996 0.35664 0.5768 0.0
C223 C 0.67892 0.3213 0.56206 0.0
O224 O 0.71633 0.34278 0.57403 0.0
H225 H 0.59438 0.39024 0.59927 0.0
H226 H 0.47306 0.28527 0.56856 0.0
O227 O 0.63946 0.32214 0.60597 0.0
H228 H 0.43276 0.13211 0.60368 0.0
H229 H 0.44449 0.36039 0.57027 0.0
Cu230 Cu 0.31789 0.60237 0.91886 0.0
N231 N 0.33822 0.63796 0.93882 0.0
N232 N 0.35573 0.65473 0.96617 0.0
C233 C 0.33657 0.61978 0.95435 0.0
C234 C 0.36989 0.69649 0.95763 0.0
C235 C 0.35913 0.68604 0.9408 0.0
O236 O 0.23491 0.55988 0.91964 0.0
C237 C 0.42318 0.59425 0.91746 0.0
O238 O 0.44114 0.64108 0.91939 0.0
H239 H 0.32263 0.58165 0.95682 0.0
H240 H 0.36642 0.71173 0.93072 0.0
N241 N 0.33008 0.64244 0.90002 0.0
N242 N 0.35185 0.66953 0.87366 0.0
C243 C 0.35512 0.63876 0.88546 0.0
C244 C 0.31052 0.67688 0.89733 0.0
C245 C 0.32381 0.6936 0.88109 0.0
C246 C 0.19933 0.57832 0.92346 0.0
O247 O 0.22009 0.62415 0.92754 0.0
H248 H 0.3737 0.61289 0.88338 0.0
H249 H 0.28737 0.68857 0.90643 0.0
O250 O 0.36863 0.5684 0.91676 0.0
H251 H 0.38632 0.73214 0.96312 0.0
H252 H 0.31382 0.7214 0.87522 0.0
Cu253 Cu 0.70757 0.31097 0.27828 0.0
N254 N 0.72526 0.37744 0.27914 0.0
N255 N 0.78082 0.45709 0.27771 0.0
C256 C 0.77952 0.4122 0.27736 0.0
C257 C 0.72476 0.45001 0.27984 0.0
C258 C 0.69067 0.40096 0.28071 0.0
O259 O 0.73412 0.30241 0.25613 0.0
C260 C 0.73219 0.31174 0.31149 0.0
O261 O 0.69884 0.33529 0.31091 0.0
H262 H 0.81712 0.4044 0.27538 0.0
H263 H 0.64403 0.38369 0.28219 0.0
N264 N 0.62835 0.26822 0.27969 0.0
N265 N 0.55099 0.19708 0.27781 0.0
C266 C 0.60485 0.22476 0.27205 0.0
C267 C 0.58748 0.26806 0.29058 0.0
C268 C 0.53986 0.2242 0.28949 0.0
C269 C 0.70727 0.31443 0.24469 0.0
O270 O 0.66544 0.32699 0.24922 0.0
H271 H 0.62819 0.21253 0.26314 0.0
H272 H 0.59275 0.29681 0.29927 0.0
O273 O 0.74499 0.297 0.29773 0.0
H274 H 0.70925 0.47818 0.28074 0.0
H275 H 0.50055 0.21278 0.2969 0.0
H276 H 0.42661 0.72063 0.98807 0.0
H277 H 0.2947 0.5751 0.98492 0.0
H278 H 0.30104 0.56518 0.01513 0.0
H279 H 0.34135 0.59882 0.04274 0.0
H280 H 0.47151 0.74489 0.04589 0.0
H281 H 0.46784 0.75378 0.0155 0.0
C282 C 0.39886 0.68683 0.99395 0.0
C283 C 0.36013 0.64876 0.98409 0.0
C284 C 0.40226 0.68147 1.01142 0.0
C285 C 0.3254 0.60493 0.99204 0.0
C286 C 0.32874 0.59927 1.00939 0.0
C287 C 0.36947 0.63236 0.03676 0.0
C288 C 0.40662 0.67116 0.04664 0.0
C289 C 0.36683 0.63735 0.01923 0.0
C290 C 0.44207 0.71464 0.03865 0.0
C291 C 0.44012 0.7197 0.02124 0.0
H292 H 0.82136 0.24809 0.37753 0.0
H293 H 0.72848 0.32476 0.39992 0.0
H294 H 0.70338 0.34373 0.3721 0.0
H295 H 0.70713 0.33835 0.3417 0.0
H296 H 0.7987 0.26152 0.31875 0.0
H297 H 0.82541 0.24302 0.34665 0.0
C298 C 0.79557 0.26892 0.37634 0.0
C299 C 0.77675 0.28492 0.39084 0.0
C300 C 0.78127 0.27976 0.36025 0.0
C301 C 0.74348 0.31193 0.38903 0.0
C302 C 0.72915 0.32285 0.37311 0.0
C303 C 0.73309 0.31761 0.3427 0.0
C304 C 0.7509 0.30133 0.32811 0.0
C305 C 0.74779 0.30694 0.35868 0.0
C306 C 0.78449 0.27454 0.32976 0.0
C307 C 0.79963 0.26389 0.3457 0.0
H308 H 0.43083 0.81801 0.68422 0.0
H309 H 0.38108 0.66978 0.69892 0.0
H310 H 0.36576 0.64495 0.6695 0.0
H311 H 0.38088 0.66729 0.63951 0.0
H312 H 0.42988 0.81584 0.62504 0.0
H313 H 0.42995 0.83828 0.65437 0.0
C314 C 0.41538 0.78013 0.681 0.0
C315 C 0.40784 0.7459 0.69372 0.0
C316 C 0.40704 0.76617 0.66405 0.0
C317 C 0.38718 0.69688 0.68939 0.0
C318 C 0.37887 0.6827 0.67253 0.0
C319 C 0.39029 0.70439 0.64273 0.0
C320 C 0.40638 0.73987 0.63003 0.0
C321 C 0.39078 0.71728 0.65972 0.0
C322 C 0.41772 0.78769 0.63448 0.0
C323 C 0.41816 0.80071 0.6513 0.0
H324 H 0.69272 0.3808 0.04068 0.0
H325 H 0.87161 0.40956 0.03101 0.0
H326 H 0.85643 0.41392 1.00088 0.0
H327 H 0.79156 0.40719 0.9772 0.0
H328 H 0.61139 0.37473 0.98647 0.0
H329 H 0.62728 0.37381 0.01675 0.0
C330 C 0.7282 0.38833 0.03191 0.0
C331 C 0.78305 0.39471 0.03795 0.0
C332 C 0.71879 0.38978 0.01455 0.0
C333 C 0.82886 0.40401 0.02656 0.0
C334 C 0.82025 0.40664 1.00937 0.0
C335 C 0.75599 0.40033 0.98588 0.0
C336 C 0.70049 0.39109 0.97965 0.0
C337 C 0.76532 0.3992 1.00321 0.0
C338 C 0.65442 0.38146 0.99099 0.0
C339 C 0.66354 0.38117 1.00829 0.0
H340 H 0.33926 0.83456 0.33081 0.0
H341 H 0.2712 0.6889 0.31203 0.0
H342 H 0.29024 0.66006 0.3391 0.0
H343 H 0.31883 0.67563 0.36887 0.0
H344 H 0.39157 0.82228 0.38703 0.0
H345 H 0.37925 0.85131 0.35942 0.0
C346 C 0.32908 0.79658 0.33263 0.0
C347 C 0.30316 0.7638 0.31955 0.0
C348 C 0.34109 0.78041 0.34812 0.0
C349 C 0.29108 0.7148 0.32194 0.0
C350 C 0.30182 0.69829 0.33743 0.0
C351 C 0.3329 0.71401 0.36671 0.0
C352 C 0.35546 0.74655 0.38011 0.0
C353 C 0.32582 0.73065 0.35072 0.0
C354 C 0.37399 0.79626 0.37701 0.0
C355 C 0.36658 0.81298 0.36122 0.0
H356 H 0.63122 0.37153 0.688 0.0
H357 H 0.6724 0.25266 0.70246 0.0
H358 H 0.69638 0.24299 0.6733 0.0
H359 H 0.68987 0.26024 0.64326 0.0
H360 H 0.64972 0.38034 0.62921 0.0
H361 H 0.64256 0.39828 0.65864 0.0
C362 C 0.64682 0.34428 0.6848 0.0
C363 C 0.64932 0.31243 0.69723 0.0
C364 C 0.66022 0.33887 0.66806 0.0
C365 C 0.6702 0.27762 0.69305 0.0
C366 C 0.68345 0.27185 0.67637 0.0
C367 C 0.68096 0.29105 0.64663 0.0
C368 C 0.66894 0.31807 0.63399 0.0
C369 C 0.67632 0.30105 0.66367 0.0
C370 C 0.6584 0.35839 0.63862 0.0
C371 C 0.65396 0.36862 0.65548 0.0
H372 H 0.23098 0.72357 0.20326 0.0
H373 H 0.35994 0.71893 0.23788 0.0
H374 H 0.40589 0.69313 0.21528 0.0
H375 H 0.40996 0.67228 0.18564 0.0
H376 H 0.2816 0.67781 0.15101 0.0
H377 H 0.23477 0.70229 0.17367 0.0
C378 C 0.26906 0.71683 0.2059 0.0
C379 C 0.29188 0.72331 0.2223 0.0
C380 C 0.29544 0.70204 0.19282 0.0
C381 C 0.3413 0.71429 0.22542 0.0
C382 C 0.36772 0.69956 0.21248 0.0
C383 C 0.37207 0.67922 0.18299 0.0
C384 C 0.34956 0.67316 0.16654 0.0
C385 C 0.34535 0.69353 0.19611 0.0
C386 C 0.29966 0.68157 0.1635 0.0
C387 C 0.27295 0.69586 0.17647 0.0
H388 H 0.79463 0.33096 0.49114 0.0
H389 H 0.61497 0.27455 0.47579 0.0
H390 H 0.58575 0.27978 0.50466 0.0
H391 H 0.6105 0.29564 0.53439 0.0
H392 H 0.78985 0.35158 0.54993 0.0
H393 H 0.81988 0.35114 0.52076 0.0
C394 C 0.74908 0.32022 0.49405 0.0
C395 C 0.70701 0.30206 0.48129 0.0
C396 C 0.73249 0.32279 0.51071 0.0
C397 C 0.64827 0.28857 0.48532 0.0
C398 C 0.63148 0.29135 0.50185 0.0
C399 C 0.65624 0.30783 0.53143 0.0
C400 C 0.69786 0.32316 0.54437 0.0
C401 C 0.67312 0.30755 0.51468 0.0
C402 C 0.75692 0.33943 0.54024 0.0
C403 C 0.7741 0.33917 0.52356 0.0
H404 H 0.48366 0.69542 0.80518 0.0
H405 H 0.33834 0.7225 0.78768 0.0
H406 H 0.29698 0.70813 0.81605 0.0
H407 H 0.30423 0.6905 0.84612 0.0
H408 H 0.44872 0.66154 0.86304 0.0
H409 H 0.48828 0.67383 0.83458 0.0
C410 C 0.4428 0.69805 0.80753 0.0
C411 C 0.41435 0.7104 0.79435 0.0
C412 C 0.41928 0.68952 0.82379 0.0
C413 C 0.36109 0.71301 0.79759 0.0
C414 C 0.33758 0.705 0.81383 0.0
C415 C 0.34444 0.68705 0.84354 0.0
C416 C 0.37376 0.67544 0.8567 0.0
C417 C 0.36666 0.69376 0.82707 0.0
C418 C 0.42524 0.67017 0.85314 0.0
C419 C 0.44797 0.67739 0.83688 0.0
H420 H 0.79702 0.31599 0.17038 0.0
H421 H 0.69153 0.39523 0.16255 0.0
H422 H 0.66562 0.3871 0.19226 0.0
H423 H 0.67258 0.35763 0.22019 0.0
H424 H 0.77951 0.27995 0.22887 0.0
H425 H 0.80514 0.28702 0.19895 0.0
C426 C 0.76803 0.33111 0.17519 0.0
C427 C 0.74602 0.35609 0.16427 0.0
C428 C 0.75367 0.32656 0.19235 0.0
C429 C 0.70936 0.37627 0.17072 0.0
C430 C 0.69435 0.37142 0.18767 0.0
C431 C 0.70135 0.34197 0.2156 0.0
C432 C 0.7238 0.31796 0.22675 0.0
C433 C 0.71623 0.34667 0.19857 0.0
C434 C 0.76158 0.29852 0.22055 0.0
C435 C 0.77616 0.30255 0.20346 0.0
H436 H 0.50494 0.77176 0.53161 0.0
H437 H 0.32951 0.66373 0.53671 0.0
H438 H 0.31938 0.65894 0.50611 0.0
H439 H 0.35859 0.68915 0.47801 0.0
H440 H 0.53418 0.79751 0.47327 0.0
H441 H 0.54626 0.79761 0.50364 0.0
C442 C 0.46437 0.74713 0.52606 0.0
C443 C 0.41772 0.71863 0.53648 0.0
C444 C 0.45905 0.74433 0.50851 0.0
C445 C 0.36595 0.68633 0.52902 0.0
C446 C 0.36018 0.68353 0.51151 0.0
C447 C 0.39992 0.71215 0.48356 0.0
C448 C 0.44538 0.74345 0.47329 0.0
C449 C 0.40628 0.71273 0.50113 0.0
C450 C 0.49844 0.7731 0.4808 0.0
C451 C 0.50529 0.77343 0.49821 0.0
H452 H 0.67986 0.29823 0.85179 0.0
H453 H 0.7598 0.45391 0.84935 0.0
H454 H 0.75295 0.45062 0.81889 0.0
H455 H 0.71968 0.40383 0.79297 0.0
H456 H 0.64104 0.24819 0.79543 0.0
H457 H 0.65384 0.25142 0.82582 0.0
C458 C 0.69669 0.33155 0.84468 0.0
C459 C 0.71964 0.37626 0.85307 0.0
C460 C 0.69314 0.32947 0.82708 0.0
C461 C 0.74065 0.4189 0.84342 0.0
C462 C 0.73719 0.41711 0.82592 0.0
C463 C 0.70603 0.37056 0.8001 0.0
C464 C 0.67904 0.32586 0.7919 0.0
C465 C 0.71279 0.37262 0.81763 0.0
C466 C 0.66177 0.28315 0.80139 0.0
C467 C 0.66882 0.28494 0.8188 0.0
H468 H 0.9846 0.4865 0.08985 0.0
H469 H 1.00229 0.51234 0.14321 0.0
H470 H 0.10632 0.53271 0.1413 0.0
H471 H 0.19228 0.54195 0.12452 0.0
H472 H 0.17342 0.51405 0.07125 0.0
H473 H 0.07009 0.49529 0.07316 0.0
C474 C 1.01127 0.49713 0.10105 0.0
C475 C 0.98556 0.49823 0.11664 0.0
C476 C 0.07092 0.50785 0.09992 0.0
C477 C 1.02084 0.51135 0.13104 0.0
C478 C 0.08037 0.52283 0.12997 0.0
C479 C 0.16555 0.53142 0.11334 0.0
C480 C 0.19091 0.5293 0.09777 0.0
C481 C 0.10585 0.52079 0.11449 0.0
C482 C 0.15536 0.51589 0.08342 0.0
C483 C 0.09613 0.50531 0.08448 0.0
H484 H 0.68788 0.04285 0.43944 0.0
H485 H 0.61123 0.13414 0.45986 0.0
H486 H 0.5162 0.06596 0.46077 0.0
H487 H 0.45426 0.98015 0.45516 0.0
H488 H 0.5319 0.88982 0.43443 0.0
H489 H 0.62672 0.95745 0.43422 0.0
C490 C 0.65044 0.04757 0.44424 0.0
C491 C 0.65646 0.09334 0.44952 0.0
C492 C 0.59591 1.00839 0.44455 0.0
C493 C 0.60747 0.09928 0.45552 0.0
C494 C 0.55319 0.0603 0.4561 0.0
C495 C 0.49208 0.97548 0.45066 0.0
C496 C 0.48584 0.93031 0.44461 0.0
C497 C 0.54677 1.01472 0.45052 0.0
C498 C 0.53515 0.92452 0.43877 0.0
C499 C 0.5896 0.96309 0.43878 0.0
H500 H 0.44962 0.41991 0.74806 0.0
H501 H 0.63563 0.46687 0.74813 0.0
H502 H 0.64866 0.55052 0.7451 0.0
H503 H 0.60717 0.61067 0.74288 0.0
H504 H 0.42109 0.5632 0.74302 0.0
H505 H 0.4083 0.47972 0.74596 0.0
C506 C 0.49304 0.44839 0.74759 0.0
C507 C 0.54148 0.43684 0.74831 0.0
C508 C 0.50028 0.49651 0.746 0.0
C509 C 0.59745 0.4744 0.74737 0.0
C510 C 0.60499 0.5224 0.74575 0.0
C511 C 0.56385 0.58205 0.74344 0.0
C512 C 0.51525 0.59342 0.7428 0.0
C513 C 0.55671 0.53389 0.74505 0.0
C514 C 0.45936 0.55579 0.74375 0.0
C515 C 0.45194 0.50788 0.74532 0.0
H516 H 0.5958 0.12335 0.57717 0.0
H517 H 0.45206 0.06863 0.61199 0.0
H518 H 0.45825 0.991 0.61256 0.0
H519 H 0.50443 0.93828 0.60334 0.0
H520 H 0.64921 0.99306 0.56904 0.0
H521 H 0.64381 0.07142 0.5686 0.0
C522 C 0.5661 0.09482 0.58505 0.0
C523 C 0.52329 0.10237 0.59445 0.0
C524 C 0.57039 0.05016 0.58554 0.0
C525 C 0.48486 0.06417 0.60436 0.0
C526 C 0.48861 1.01962 0.60482 0.0
C527 C 0.53463 0.96727 0.5957 0.0
C528 C 0.57701 0.95961 0.58619 0.0
C529 C 0.53107 1.01217 0.59543 0.0
C530 C 0.61653 0.99797 0.57661 0.0
C531 C 0.61318 0.04273 0.57626 0.0
H532 H 0.53916 0.63961 0.92286 0.0
H533 H 0.40518 0.50108 0.90952 0.0
H534 H 0.47785 0.46725 0.90777 0.0
H535 H 0.57963 0.4768 0.91072 0.0
H536 H 0.71159 0.61491 0.9254 0.0
H537 H 0.63961 0.64917 0.92576 0.0
C538 C 0.52564 0.60199 0.91951 0.0
C539 C 0.4666 0.57298 0.91632 0.0
C540 C 0.56748 0.58274 0.91872 0.0
C541 C 0.45018 0.52426 0.91209 0.0
C542 C 0.4918 0.50492 0.91106 0.0
C543 C 0.59269 0.51452 0.91383 0.0
C544 C 0.65111 0.54333 0.91795 0.0
C545 C 0.55061 0.5338 0.9144 0.0
C546 C 0.66706 0.59194 0.92219 0.0
C547 C 0.62587 0.61156 0.92242 0.0
H548 H 0.97051 0.66712 0.2642 0.0
H549 H 0.08313 0.60224 0.28203 0.0
H550 H 0.99965 0.52514 0.28542 0.0
H551 H 0.89392 0.47609 0.28399 0.0
H552 H 0.7818 0.54176 0.26647 0.0
H553 H 0.86547 0.61847 0.26278 0.0
C554 C 0.97712 0.63643 0.26897 0.0
C555 C 1.03378 0.64119 0.27285 0.0
C556 C 0.92862 0.59205 0.2711 0.0
C557 C 0.04067 0.60014 0.27872 0.0
C558 C 0.99266 0.55585 0.28079 0.0
C559 C 0.88766 0.50699 0.27924 0.0
C560 C 0.83103 0.50268 0.27558 0.0
C561 C 0.93634 0.55135 0.27706 0.0
C562 C 0.82431 0.54371 0.26965 0.0
C563 C 0.87239 0.58773 0.26742 0.0
H564 H 0.58673 0.42143 0.10658 0.0
H565 H 0.74153 0.55286 0.10052 0.0
H566 H 0.68263 0.59951 0.09994 0.0
H567 H 0.5874 0.6033 0.10119 0.0
H568 H 0.43244 0.47225 0.10762 0.0
H569 H 0.4912 0.42531 0.10798 0.0
C570 C 0.60773 0.4603 0.10512 0.0
C571 C 0.66879 0.48346 0.10358 0.0
C572 C 0.57348 0.48704 0.10485 0.0
C573 C 0.69487 0.53392 0.10175 0.0
C574 C 0.66111 0.56068 0.1014 0.0
C575 C 0.56625 0.56443 0.10264 0.0
C576 C 0.50527 0.54146 0.10434 0.0
C577 C 0.60041 0.53766 0.10293 0.0
C578 C 0.47908 0.49103 0.10628 0.0
C579 C 0.51276 0.46412 0.10649 0.0
H580 H 0.06254 0.421 0.42566 0.0
H581 H 0.96065 0.43812 0.46649 0.0
H582 H 1.01981 0.5249 0.46674 0.0
H583 H 0.09956 0.59647 0.45489 0.0
H584 H 0.20294 0.57878 0.41469 0.0
H585 H 0.14449 0.49172 0.41466 0.0
C586 C 0.05392 0.44355 0.4348 0.0
C587 C 1.00701 0.42312 0.44595 0.0
C588 C 0.08809 0.49343 0.43488 0.0
C589 C 0.99599 0.45307 0.4576 0.0
C590 C 1.02982 0.50269 0.45777 0.0
C591 C 0.10874 0.57342 0.44608 0.0
C592 C 0.15505 0.59373 0.43477 0.0
C593 C 0.07548 0.52337 0.44631 0.0
C594 C 0.16751 0.56366 0.42355 0.0
C595 C 0.13416 0.51399 0.42353 0.0
H596 H 0.56795 0.10329 0.76056 0.0
H597 H 0.42925 0.05894 0.72418 0.0
H598 H 0.42686 0.97805 0.72377 0.0
H599 H 0.46647 0.92047 0.73296 0.0
H600 H 0.6065 0.96545 0.76884 0.0
H601 H 0.60699 0.04579 0.76988 0.0
C602 C 0.53749 0.07618 0.75242 0.0
C603 C 0.49897 0.08759 0.74239 0.0
C604 C 0.53686 0.0298 0.75205 0.0
C605 C 0.45902 0.05136 0.73219 0.0
C606 C 0.45785 1.00503 0.73185 0.0
C607 C 0.49666 0.94767 0.74114 0.0
C608 C 0.53647 0.93688 0.75078 0.0
C609 C 0.49676 0.9939 0.74166 0.0
C610 C 0.57593 0.97289 0.76112 0.0
C611 C 0.57602 1.01881 0.76179 0.0
H612 H 0.56931 0.60046 0.61055 0.0
H613 H 0.49927 0.60537 0.56155 0.0
H614 H 0.48232 0.52149 0.55672 0.0
H615 H 0.4894 0.44703 0.56613 0.0
H616 H 0.56135 0.44268 0.61484 0.0
H617 H 0.57619 0.52611 0.61998 0.0
C618 C 0.55091 0.58343 0.59875 0.0
C619 C 0.53562 0.60942 0.58646 0.0
C620 C 0.54158 0.53515 0.59599 0.0
C621 C 0.51084 0.58624 0.57134 0.0
C622 C 0.50133 0.53824 0.56852 0.0
C623 C 0.50762 0.46415 0.57794 0.0
C624 C 0.52422 0.43864 0.59008 0.0
C625 C 0.51648 0.51231 0.58076 0.0
C626 C 0.54871 0.46166 0.60523 0.0
C627 C 0.5571 0.50934 0.60819 0.0
H628 H 0.11539 0.61216 0.92584 0.0
H629 H 0.13903 0.48062 0.91915 0.0
H630 H 1.0337 0.43473 0.91757 0.0
H631 H 0.93506 0.4321 0.91786 0.0
H632 H 0.91183 0.56408 0.92377 0.0
H633 H 1.017 0.60966 0.92587 0.0
C634 C 0.09765 0.5734 0.9241 0.0
C635 C 0.13533 0.5499 0.92268 0.0
C636 C 1.03708 0.54735 0.92302 0.0
C637 C 0.11127 0.49969 0.92029 0.0
C638 C 0.05097 0.47343 0.91938 0.0
C639 C 0.95287 0.47084 0.91965 0.0
C640 C 0.91532 0.49456 0.92069 0.0
C641 C 1.01348 0.49689 0.9207 0.0
C642 C 0.93948 0.54484 0.9229 0.0
C643 C 0.99969 0.57093 0.92412 0.0
H644 H 0.40093 0.99496 0.24553 0.0
H645 H 0.36224 0.95571 0.29749 0.0
H646 H 0.42471 0.03849 0.30598 0.0
H647 H 0.48881 0.12311 0.29845 0.0
H648 H 0.53226 0.16042 0.24656 0.0
H649 H 0.4696 0.07776 0.23814 0.0
C650 C 0.40629 1.0046 0.25871 0.0
C651 C 0.37662 0.9693 0.27087 0.0
C652 C 0.44299 0.05208 0.26346 0.0
C653 C 0.38479 0.98211 0.28792 0.0
C654 C 0.42024 0.02952 0.29275 0.0
C655 C 0.48427 0.11301 0.28531 0.0
C656 C 0.51461 0.14794 0.2731 0.0
C657 C 0.44921 0.06497 0.28062 0.0
C658 C 0.50934 0.13419 0.25615 0.0
C659 C 0.47345 0.08697 0.25135 0.0
loop_
_geom_bond_atom_site_label_1
_geom_bond_atom_site_label_2
_geom_bond_distance
_geom_bond_site_symmetry_2
_ccdc_geom_bond_type
Cu0 N1 1.999 . S
Cu0 O6 1.974 . S
Cu0 N11 1.985 . S
Cu0 O20 1.959 . S
N1 Cu0 1.999 . S
N1 C3 1.263 . S
N1 C5 1.389 . S
N2 C3 1.358 . S
N2 C4 1.400 . S
C3 N1 1.263 . S
C3 N2 1.358 . S
C3 H9 0.930 . S
C4 N2 1.400 . S
C4 C5 1.351 . S
C4 H21 0.930 . S
C5 N1 1.389 . S
C5 C4 1.351 . S
C5 H10 0.930 . S
O6 Cu0 1.974 . S
O6 C16 1.282 . S
C7 O8 1.261 . S
C7 O20 1.251 . S
O8 C7 1.261 . S
H9 C3 0.930 . S
H10 C5 0.930 . S
N11 Cu0 1.985 . S
N11 C13 1.335 . S
N11 C14 1.390 . S
N12 C13 1.345 . S
N12 C15 1.336 . S
C13 N11 1.335 . S
C13 N12 1.345 . S
C13 H18 0.930 . S
C14 N11 1.390 . S
C14 C15 1.346 . S
C14 H19 0.930 . S
C15 N12 1.336 . S
C15 C14 1.346 . S
C15 H22 0.929 . S
C16 O6 1.282 . S
C16 O17 1.216 . S
O17 C16 1.216 . S
H18 C13 0.930 . S
H19 C14 0.930 . S
O20 Cu0 1.959 . S
O20 C7 1.251 . S
H21 C4 0.930 . S
H22 C15 0.929 . S
Cu23 N24 1.999 . S
Cu23 O29 1.974 . S
Cu23 N34 1.985 . S
Cu23 O43 1.959 . S
N24 Cu23 1.999 . S
N24 C26 1.263 . S
N24 C28 1.389 . S
N25 C26 1.358 . S
N25 C27 1.400 . S
C26 N24 1.263 . S
C26 N25 1.358 . S
C26 H32 0.930 . S
C27 N25 1.400 . S
C27 C28 1.351 . S
C27 H44 0.930 . S
C28 N24 1.389 . S
C28 C27 1.351 . S
C28 H33 0.930 . S
O29 Cu23 1.974 . S
O29 C39 1.282 . S
C30 O31 1.261 . S
C30 O43 1.251 . S
O31 C30 1.261 . S
H32 C26 0.930 . S
H33 C28 0.930 . S
N34 Cu23 1.985 . S
N34 C36 1.335 . S
N34 C37 1.390 . S
N35 C36 1.345 . S
N35 C38 1.336 . S
C36 N34 1.335 . S
C36 N35 1.345 . S
C36 H41 0.930 . S
C37 N34 1.390 . S
C37 C38 1.346 . S
C37 H42 0.930 . S
C38 N35 1.336 . S
C38 C37 1.346 . S
C38 H45 0.929 . S
C39 O29 1.282 . S
C39 O40 1.216 . S
O40 C39 1.216 . S
H41 C36 0.930 . S
H42 C37 0.930 . S
O43 Cu23 1.959 . S
O43 C30 1.251 . S
H44 C27 0.930 . S
H45 C38 0.929 . S
Cu46 N47 1.999 . S
Cu46 O52 1.974 . S
Cu46 N57 1.985 . S
Cu46 O66 1.959 . S
N47 Cu46 1.999 . S
N47 C49 1.263 . S
N47 C51 1.389 . S
N48 C49 1.358 . S
N48 C50 1.400 . S
C49 N47 1.263 . S
C49 N48 1.358 . S
C49 H55 0.930 . S
C50 N48 1.400 . S
C50 C51 1.351 . S
C50 H67 0.930 . S
C51 N47 1.389 . S
C51 C50 1.351 . S
C51 H56 0.930 . S
O52 Cu46 1.974 . S
O52 C62 1.282 . S
C53 O54 1.261 . S
C53 O66 1.251 . S
O54 C53 1.261 . S
H55 C49 0.930 . S
H56 C51 0.930 . S
N57 Cu46 1.985 . S
N57 C59 1.335 . S
N57 C60 1.390 . S
N58 C59 1.345 . S
N58 C61 1.336 . S
C59 N57 1.335 . S
C59 N58 1.345 . S
C59 H64 0.930 . S
C60 N57 1.390 . S
C60 C61 1.346 . S
C60 H65 0.930 . S
C61 N58 1.336 . S
C61 C60 1.346 . S
C61 H68 0.929 . S
C62 O52 1.282 . S
C62 O63 1.216 . S
O63 C62 1.216 . S
H64 C59 0.930 . S
H65 C60 0.930 . S
O66 Cu46 1.959 . S
O66 C53 1.251 . S
H67 C50 0.930 . S
H68 C61 0.929 . S
Cu69 N70 1.999 . S
Cu69 O75 1.974 . S
Cu69 N80 1.985 . S
Cu69 O89 1.959 . S
N70 Cu69 1.999 . S
N70 C72 1.263 . S
N70 C74 1.389 . S
N71 C72 1.358 . S
N71 C73 1.400 . S
C72 N70 1.263 . S
C72 N71 1.358 . S
C72 H78 0.930 . S
C73 N71 1.400 . S
C73 C74 1.351 . S
C73 H90 0.930 . S
C74 N70 1.389 . S
C74 C73 1.351 . S
C74 H79 0.930 . S
O75 Cu69 1.974 . S
O75 C85 1.282 . S
C76 O77 1.261 . S
C76 O89 1.251 . S
O77 C76 1.261 . S
H78 C72 0.930 . S
H79 C74 0.930 . S
N80 Cu69 1.985 . S
N80 C82 1.335 . S
N80 C83 1.390 . S
N81 C82 1.345 . S
N81 C84 1.336 . S
C82 N80 1.335 . S
C82 N81 1.345 . S
C82 H87 0.930 . S
C83 N80 1.390 . S
C83 C84 1.346 . S
C83 H88 0.930 . S
C84 N81 1.336 . S
C84 C83 1.346 . S
C84 H91 0.929 . S
C85 O75 1.282 . S
C85 O86 1.216 . S
O86 C85 1.216 . S
H87 C82 0.930 . S
H88 C83 0.930 . S
O89 Cu69 1.959 . S
O89 C76 1.251 . S
H90 C73 0.930 . S
H91 C84 0.929 . S
Cu92 N93 1.999 . S
Cu92 O98 1.974 . S
Cu92 N103 1.985 . S
Cu92 O112 1.959 . S
N93 Cu92 1.999 . S
N93 C95 1.263 . S
N93 C97 1.389 . S
N94 C95 1.358 . S
N94 C96 1.400 . S
C95 N93 1.263 . S
C95 N94 1.358 . S
C95 H101 0.930 . S
C96 N94 1.400 . S
C96 C97 1.351 . S
C96 H113 0.930 . S
C97 N93 1.389 . S
C97 C96 1.351 . S
C97 H102 0.930 . S
O98 Cu92 1.974 . S
O98 C108 1.282 . S
C99 O100 1.261 . S
C99 O112 1.251 . S
O100 C99 1.261 . S
H101 C95 0.930 . S
H102 C97 0.930 . S
N103 Cu92 1.985 . S
N103 C105 1.335 . S
N103 C106 1.390 . S
N104 C105 1.345 . S
N104 C107 1.336 . S
C105 N103 1.335 . S
C105 N104 1.345 . S
C105 H110 0.930 . S
C106 N103 1.390 . S
C106 C107 1.346 . S
C106 H111 0.930 . S
C107 N104 1.336 . S
C107 C106 1.346 . S
C107 H114 0.929 . S
C108 O98 1.282 . S
C108 O109 1.216 . S
O109 C108 1.216 . S
H110 C105 0.930 . S
H111 C106 0.930 . S
O112 Cu92 1.959 . S
O112 C99 1.251 . S
H113 C96 0.930 . S
H114 C107 0.929 . S
Cu115 N116 1.999 . S
Cu115 O121 1.974 . S
Cu115 N126 1.985 . S
Cu115 O135 1.959 . S
N116 Cu115 1.999 . S
N116 C118 1.263 . S
N116 C120 1.389 . S
N117 C118 1.358 . S
N117 C119 1.400 . S
C118 N116 1.263 . S
C118 N117 1.358 . S
C118 H124 0.930 . S
C119 N117 1.400 . S
C119 C120 1.351 . S
C119 H136 0.930 . S
C120 N116 1.389 . S
C120 C119 1.351 . S
C120 H125 0.930 . S
O121 Cu115 1.974 . S
O121 C131 1.282 . S
C122 O123 1.261 . S
C122 O135 1.251 . S
O123 C122 1.261 . S
H124 C118 0.930 . S
H125 C120 0.930 . S
N126 Cu115 1.985 . S
N126 C128 1.335 . S
N126 C129 1.390 . S
N127 C128 1.345 . S
N127 C130 1.336 . S
C128 N126 1.335 . S
C128 N127 1.345 . S
C128 H133 0.930 . S
C129 N126 1.390 . S
C129 C130 1.346 . S
C129 H134 0.930 . S
C130 N127 1.336 . S
C130 C129 1.346 . S
C130 H137 0.929 . S
C131 O121 1.282 . S
C131 O132 1.216 . S
O132 C131 1.216 . S
H133 C128 0.930 . S
H134 C129 0.930 . S
O135 Cu115 1.959 . S
O135 C122 1.251 . S
H136 C119 0.930 . S
H137 C130 0.929 . S
Cu138 N139 1.999 . S
Cu138 O144 1.974 . S
Cu138 N149 1.985 . S
Cu138 O158 1.959 . S
N139 Cu138 1.999 . S
N139 C141 1.263 . S
N139 C143 1.389 . S
N140 C141 1.358 . S
N140 C142 1.400 . S
C141 N139 1.263 . S
C141 N140 1.358 . S
C141 H147 0.930 . S
C142 N140 1.400 . S
C142 C143 1.351 . S
C142 H159 0.930 . S
C143 N139 1.389 . S
C143 C142 1.351 . S
C143 H148 0.930 . S
O144 Cu138 1.974 . S
O144 C154 1.282 . S
C145 O146 1.261 . S
C145 O158 1.251 . S
O146 C145 1.261 . S
H147 C141 0.930 . S
H148 C143 0.930 . S
N149 Cu138 1.985 . S
N149 C151 1.335 . S
N149 C152 1.390 . S
N150 C151 1.345 . S
N150 C153 1.336 . S
C151 N149 1.335 . S
C151 N150 1.345 . S
C151 H156 0.930 . S
C152 N149 1.390 . S
C152 C153 1.346 . S
C152 H157 0.930 . S
C153 N150 1.336 . S
C153 C152 1.346 . S
C153 H160 0.929 . S
C154 O144 1.282 . S
C154 O155 1.216 . S
O155 C154 1.216 . S
H156 C151 0.930 . S
H157 C152 0.930 . S
O158 Cu138 1.959 . S
O158 C145 1.251 . S
H159 C142 0.930 . S
H160 C153 0.929 . S
Cu161 N162 1.999 . S
Cu161 O167 1.974 . S
Cu161 N172 1.985 . S
Cu161 O181 1.959 . S
N162 Cu161 1.999 . S
N162 C164 1.263 . S
N162 C166 1.389 . S
N163 C164 1.358 . S
N163 C165 1.400 . S
C164 N162 1.263 . S
C164 N163 1.358 . S
C164 H170 0.930 . S
C165 N163 1.400 . S
C165 C166 1.351 . S
C165 H182 0.930 . S
C166 N162 1.389 . S
C166 C165 1.351 . S
C166 H171 0.930 . S
O167 Cu161 1.974 . S
O167 C177 1.282 . S
C168 O169 1.261 . S
C168 O181 1.251 . S
O169 C168 1.261 . S
H170 C164 0.930 . S
H171 C166 0.930 . S
N172 Cu161 1.985 . S
N172 C174 1.335 . S
N172 C175 1.390 . S
N173 C174 1.345 . S
N173 C176 1.336 . S
C174 N172 1.335 . S
C174 N173 1.345 . S
C174 H179 0.930 . S
C175 N172 1.390 . S
C175 C176 1.346 . S
C175 H180 0.930 . S
C176 N173 1.336 . S
C176 C175 1.346 . S
C176 H183 0.929 . S
C177 O167 1.282 . S
C177 O178 1.216 . S
O178 C177 1.216 . S
H179 C174 0.930 . S
H180 C175 0.930 . S
O181 Cu161 1.959 . S
O181 C168 1.251 . S
H182 C165 0.930 . S
H183 C176 0.929 . S
Cu184 N185 1.999 . S
Cu184 O190 1.974 . S
Cu184 N195 1.985 . S
Cu184 O204 1.959 . S
N185 Cu184 1.999 . S
N185 C187 1.263 . S
N185 C189 1.389 . S
N186 C187 1.358 . S
N186 C188 1.400 . S
C187 N185 1.263 . S
C187 N186 1.358 . S
C187 H193 0.930 . S
C188 N186 1.400 . S
C188 C189 1.351 . S
C188 H205 0.930 . S
C189 N185 1.389 . S
C189 C188 1.351 . S
C189 H194 0.930 . S
O190 Cu184 1.974 . S
O190 C200 1.282 . S
C191 O192 1.261 . S
C191 O204 1.251 . S
O192 C191 1.261 . S
H193 C187 0.930 . S
H194 C189 0.930 . S
N195 Cu184 1.985 . S
N195 C197 1.335 . S
N195 C198 1.390 . S
N196 C197 1.345 . S
N196 C199 1.336 . S
C197 N195 1.335 . S
C197 N196 1.345 . S
C197 H202 0.930 . S
C198 N195 1.390 . S
C198 C199 1.346 . S
C198 H203 0.930 . S
C199 N196 1.336 . S
C199 C198 1.346 . S
C199 H206 0.929 . S
C200 O190 1.282 . S
C200 O201 1.216 . S
O201 C200 1.216 . S
H202 C197 0.930 . S
H203 C198 0.930 . S
O204 Cu184 1.959 . S
O204 C191 1.251 . S
H205 C188 0.930 . S
H206 C199 0.929 . S
Cu207 N208 1.999 . S
Cu207 O213 1.974 . S
Cu207 N218 1.985 . S
Cu207 O227 1.959 . S
N208 Cu207 1.999 . S
N208 C210 1.263 . S
N208 C212 1.389 . S
N209 C210 1.358 . S
N209 C211 1.400 . S
C210 N208 1.263 . S
C210 N209 1.358 . S
C210 H216 0.930 . S
C211 N209 1.400 . S
C211 C212 1.351 . S
C211 H228 0.930 . S
C212 N208 1.389 . S
C212 C211 1.351 . S
C212 H217 0.930 . S
O213 Cu207 1.974 . S
O213 C223 1.282 . S
C214 O215 1.261 . S
C214 O227 1.251 . S
O215 C214 1.261 . S
H216 C210 0.930 . S
H217 C212 0.930 . S
N218 Cu207 1.985 . S
N218 C220 1.335 . S
N218 C221 1.390 . S
N219 C220 1.345 . S
N219 C222 1.336 . S
C220 N218 1.335 . S
C220 N219 1.345 . S
C220 H225 0.930 . S
C221 N218 1.390 . S
C221 C222 1.346 . S
C221 H226 0.930 . S
C222 N219 1.336 . S
C222 C221 1.346 . S
C222 H229 0.929 . S
C223 O213 1.282 . S
C223 O224 1.216 . S
O224 C223 1.216 . S
H225 C220 0.930 . S
H226 C221 0.930 . S
O227 Cu207 1.959 . S
O227 C214 1.251 . S
H228 C211 0.930 . S
H229 C222 0.929 . S
Cu230 N231 1.999 . S
Cu230 O236 1.974 . S
Cu230 N241 1.985 . S
Cu230 O250 1.959 . S
N231 Cu230 1.999 . S
N231 C233 1.263 . S
N231 C235 1.389 . S
N232 C233 1.358 . S
N232 C234 1.400 . S
C233 N231 1.263 . S
C233 N232 1.358 . S
C233 H239 0.930 . S
C234 N232 1.400 . S
C234 C235 1.351 . S
C234 H251 0.930 . S
C235 N231 1.389 . S
C235 C234 1.351 . S
C235 H240 0.930 . S
O236 Cu230 1.974 . S
O236 C246 1.282 . S
C237 O238 1.261 . S
C237 O250 1.251 . S
O238 C237 1.261 . S
H239 C233 0.930 . S
H240 C235 0.930 . S
N241 Cu230 1.985 . S
N241 C243 1.335 . S
N241 C244 1.390 . S
N242 C243 1.345 . S
N242 C245 1.336 . S
C243 N241 1.335 . S
C243 N242 1.345 . S
C243 H248 0.930 . S
C244 N241 1.390 . S
C244 C245 1.346 . S
C244 H249 0.930 . S
C245 N242 1.336 . S
C245 C244 1.346 . S
C245 H252 0.929 . S
C246 O236 1.282 . S
C246 O247 1.216 . S
O247 C246 1.216 . S
H248 C243 0.930 . S
H249 C244 0.930 . S
O250 Cu230 1.959 . S
O250 C237 1.251 . S
H251 C234 0.930 . S
H252 C245 0.929 . S
Cu253 N254 1.999 . S
Cu253 O259 1.974 . S
Cu253 N264 1.985 . S
Cu253 O273 1.959 . S
N254 Cu253 1.999 . S
N254 C256 1.263 . S
N254 C258 1.389 . S
N255 C256 1.358 . S
N255 C257 1.400 . S
C256 N254 1.263 . S
C256 N255 1.358 . S
C256 H262 0.930 . S
C257 N255 1.400 . S
C257 C258 1.351 . S
C257 H274 0.930 . S
C258 N254 1.389 . S
C258 C257 1.351 . S
C258 H263 0.930 . S
O259 Cu253 1.974 . S
O259 C269 1.282 . S
C260 O261 1.261 . S
C260 O273 1.251 . S
O261 C260 1.261 . S
H262 C256 0.930 . S
H263 C258 0.930 . S
N264 Cu253 1.985 . S
N264 C266 1.335 . S
N264 C267 1.390 . S
N265 C266 1.345 . S
N265 C268 1.336 . S
C266 N264 1.335 . S
C266 N265 1.345 . S
C266 H271 0.930 . S
C267 N264 1.390 . S
C267 C268 1.346 . S
C267 H272 0.930 . S
C268 N265 1.336 . S
C268 C267 1.346 . S
C268 H275 0.929 . S
C269 O259 1.282 . S
C269 O270 1.216 . S
O270 C269 1.216 . S
H271 C266 0.930 . S
H272 C267 0.930 . S
O273 Cu253 1.959 . S
O273 C260 1.251 . S
H274 C257 0.930 . S
H275 C268 0.929 . S
H276 C282 0.930 . S
H277 C285 0.930 . S
H278 C286 0.930 . S
H279 C287 0.930 . S
H280 C290 0.930 . S
H281 C291 0.930 . S
C282 H276 0.930 . S
C282 C283 1.355 . S
C282 C284 1.415 . S
C283 C282 1.355 . S
C283 C285 1.419 . S
C284 C282 1.415 . S
C284 C289 1.425 1_556 S
C284 C291 1.409 1_556 S
C285 H277 0.930 . S
C285 C283 1.419 . S
C285 C286 1.362 . S
C286 H278 0.930 . S
C286 C285 1.362 . S
C286 C289 1.409 1_556 S
C287 H279 0.930 . S
C287 C288 1.355 . S
C287 C289 1.415 . S
C288 C287 1.355 . S
C288 C290 1.419 . S
C289 C284 1.425 1_554 S
C289 C286 1.409 1_554 S
C289 C287 1.415 . S
C290 H280 0.930 . S
C290 C288 1.419 . S
C290 C291 1.362 . S
C291 H281 0.930 . S
C291 C284 1.409 1_554 S
C291 C290 1.362 . S
H292 C298 0.930 . S
H293 C301 0.930 . S
H294 C302 0.930 . S
H295 C303 0.930 . S
H296 C306 0.930 . S
H297 C307 0.930 . S
C298 H292 0.930 . S
C298 C299 1.355 . S
C298 C300 1.415 . S
C299 C298 1.355 . S
C299 C301 1.419 . S
C300 C298 1.415 . S
C300 C305 1.425 . S
C300 C307 1.409 . S
C301 H293 0.930 . S
C301 C299 1.419 . S
C301 C302 1.362 . S
C302 H294 0.930 . S
C302 C301 1.362 . S
C302 C305 1.409 . S
C303 H295 0.930 . S
C303 C304 1.355 . S
C303 C305 1.415 . S
C304 C303 1.355 . S
C304 C306 1.419 . S
C305 C300 1.425 . S
C305 C302 1.409 . S
C305 C303 1.415 . S
C306 H296 0.930 . S
C306 C304 1.419 . S
C306 C307 1.362 . S
C307 H297 0.930 . S
C307 C300 1.409 . S
C307 C306 1.362 . S
H308 C314 0.930 . S
H309 C317 0.930 . S
H310 C318 0.930 . S
H311 C319 0.930 . S
H312 C322 0.930 . S
H313 C323 0.930 . S
C314 H308 0.930 . S
C314 C315 1.355 . S
C314 C316 1.415 . S
C315 C314 1.355 . S
C315 C317 1.419 . S
C316 C314 1.415 . S
C316 C321 1.425 . S
C316 C323 1.409 . S
C317 H309 0.930 . S
C317 C315 1.419 . S
C317 C318 1.362 . S
C318 H310 0.930 . S
C318 C317 1.362 . S
C318 C321 1.409 . S
C319 H311 0.930 . S
C319 C320 1.355 . S
C319 C321 1.415 . S
C320 C319 1.355 . S
C320 C322 1.419 . S
C321 C316 1.425 . S
C321 C318 1.409 . S
C321 C319 1.415 . S
C322 H312 0.930 . S
C322 C320 1.419 . S
C322 C323 1.362 . S
C323 H313 0.930 . S
C323 C316 1.409 . S
C323 C322 1.362 . S
H324 C330 0.930 . S
H325 C333 0.930 . S
H326 C334 0.930 . S
H327 C335 0.930 . S
H328 C338 0.930 . S
H329 C339 0.930 . S
C330 H324 0.930 . S
C330 C331 1.355 . S
C330 C332 1.415 . S
C331 C330 1.355 . S
C331 C333 1.419 . S
C332 C330 1.415 . S
C332 C337 1.425 1_554 S
C332 C339 1.409 1_554 S
C333 H325 0.930 . S
C333 C331 1.419 . S
C333 C334 1.362 . S
C334 H326 0.930 . S
C334 C333 1.362 . S
C334 C337 1.409 1_554 S
C335 H327 0.930 . S
C335 C336 1.355 . S
C335 C337 1.415 . S
C336 C335 1.355 . S
C336 C338 1.419 . S
C337 C332 1.425 1_556 S
C337 C334 1.409 1_556 S
C337 C335 1.415 . S
C338 H328 0.930 . S
C338 C336 1.419 . S
C338 C339 1.362 . S
C339 H329 0.930 . S
C339 C332 1.409 1_556 S
C339 C338 1.362 . S
H340 C346 0.930 . S
H341 C349 0.930 . S
H342 C350 0.930 . S
H343 C351 0.930 . S
H344 C354 0.930 . S
H345 C355 0.930 . S
C346 H340 0.930 . S
C346 C347 1.355 . S
C346 C348 1.415 . S
C347 C346 1.355 . S
C347 C349 1.419 . S
C348 C346 1.415 . S
C348 C353 1.425 . S
C348 C355 1.409 . S
C349 H341 0.930 . S
C349 C347 1.419 . S
C349 C350 1.362 . S
C350 H342 0.930 . S
C350 C349 1.362 . S
C350 C353 1.409 . S
C351 H343 0.930 . S
C351 C352 1.355 . S
C351 C353 1.415 . S
C352 C351 1.355 . S
C352 C354 1.419 . S
C353 C348 1.425 . S
C353 C350 1.409 . S
C353 C351 1.415 . S
C354 H344 0.930 . S
C354 C352 1.419 . S
C354 C355 1.362 . S
C355 H345 0.930 . S
C355 C348 1.409 . S
C355 C354 1.362 . S
H356 C362 0.930 . S
H357 C365 0.930 . S
H358 C366 0.930 . S
H359 C367 0.930 . S
H360 C370 0.930 . S
H361 C371 0.930 . S
C362 H356 0.930 . S
C362 C363 1.355 . S
C362 C364 1.415 . S
C363 C362 1.355 . S
C363 C365 1.419 . S
C364 C362 1.415 . S
C364 C369 1.425 . S
C364 C371 1.409 . S
C365 H357 0.930 . S
C365 C363 1.419 . S
C365 C366 1.362 . S
C366 H358 0.930 . S
C366 C365 1.362 . S
C366 C369 1.409 . S
C367 H359 0.930 . S
C367 C368 1.355 . S
C367 C369 1.415 . S
C368 C367 1.355 . S
C368 C370 1.419 . S
C369 C364 1.425 . S
C369 C366 1.409 . S
C369 C367 1.415 . S
C370 H360 0.930 . S
C370 C368 1.419 . S
C370 C371 1.362 . S
C371 H361 0.930 . S
C371 C364 1.409 . S
C371 C370 1.362 . S
H372 C378 0.930 . S
H373 C381 0.930 . S
H374 C382 0.930 . S
H375 C383 0.930 . S
H376 C386 0.930 . S
H377 C387 0.930 . S
C378 H372 0.930 . S
C378 C379 1.355 . S
C378 C380 1.415 . S
C379 C378 1.355 . S
C379 C381 1.419 . S
C380 C378 1.415 . S
C380 C385 1.425 . S
C380 C387 1.409 . S
C381 H373 0.930 . S
C381 C379 1.419 . S
C381 C382 1.362 . S
C382 H374 0.930 . S
C382 C381 1.362 . S
C382 C385 1.409 . S
C383 H375 0.930 . S
C383 C384 1.355 . S
C383 C385 1.415 . S
C384 C383 1.355 . S
C384 C386 1.419 . S
C385 C380 1.425 . S
C385 C382 1.409 . S
C385 C383 1.415 . S
C386 H376 0.930 . S
C386 C384 1.419 . S
C386 C387 1.362 . S
C387 H377 0.930 . S
C387 C380 1.409 . S
C387 C386 1.362 . S
H388 C394 0.930 . S
H389 C397 0.930 . S
H390 C398 0.930 . S
H391 C399 0.930 . S
H392 C402 0.930 . S
H393 C403 0.930 . S
C394 H388 0.930 . S
C394 C395 1.355 . S
C394 C396 1.415 . S
C395 C394 1.355 . S
C395 C397 1.419 . S
C396 C394 1.415 . S
C396 C401 1.425 . S
C396 C403 1.409 . S
C397 H389 0.930 . S
C397 C395 1.419 . S
C397 C398 1.362 . S
C398 H390 0.930 . S
C398 C397 1.362 . S
C398 C401 1.409 . S
C399 H391 0.930 . S
C399 C400 1.355 . S
C399 C401 1.415 . S
C400 C399 1.355 . S
C400 C402 1.419 . S
C401 C396 1.425 . S
C401 C398 1.409 . S
C401 C399 1.415 . S
C402 H392 0.930 . S
C402 C400 1.419 . S
C402 C403 1.362 . S
C403 H393 0.930 . S
C403 C396 1.409 . S
C403 C402 1.362 . S
H404 C410 0.930 . S
H405 C413 0.930 . S
H406 C414 0.930 . S
H407 C415 0.930 . S
H408 C418 0.930 . S
H409 C419 0.930 . S
C410 H404 0.930 . S
C410 C411 1.355 . S
C410 C412 1.415 . S
C411 C410 1.355 . S
C411 C413 1.419 . S
C412 C410 1.415 . S
C412 C417 1.425 . S
C412 C419 1.409 . S
C413 H405 0.930 . S
C413 C411 1.419 . S
C413 C414 1.362 . S
C414 H406 0.930 . S
C414 C413 1.362 . S
C414 C417 1.409 . S
C415 H407 0.930 . S
C415 C416 1.355 . S
C415 C417 1.415 . S
C416 C415 1.355 . S
C416 C418 1.419 . S
C417 C412 1.425 . S
C417 C414 1.409 . S
C417 C415 1.415 . S
C418 H408 0.930 . S
C418 C416 1.419 . S
C418 C419 1.362 . S
C419 H409 0.930 . S
C419 C412 1.409 . S
C419 C418 1.362 . S
H420 C426 0.930 . S
H421 C429 0.930 . S
H422 C430 0.930 . S
H423 C431 0.930 . S
H424 C434 0.930 . S
H425 C435 0.930 . S
C426 H420 0.930 . S
C426 C427 1.355 . S
C426 C428 1.415 . S
C427 C426 1.355 . S
C427 C429 1.419 . S
C428 C426 1.415 . S
C428 C433 1.425 . S
C428 C435 1.409 . S
C429 H421 0.930 . S
C429 C427 1.419 . S
C429 C430 1.362 . S
C430 H422 0.930 . S
C430 C429 1.362 . S
C430 C433 1.409 . S
C431 H423 0.930 . S
C431 C432 1.355 . S
C431 C433 1.415 . S
C432 C431 1.355 . S
C432 C434 1.419 . S
C433 C428 1.425 . S
C433 C430 1.409 . S
C433 C431 1.415 . S
C434 H424 0.930 . S
C434 C432 1.419 . S
C434 C435 1.362 . S
C435 H425 0.930 . S
C435 C428 1.409 . S
C435 C434 1.362 . S
H436 C442 0.930 . S
H437 C445 0.930 . S
H438 C446 0.930 . S
H439 C447 0.930 . S
H440 C450 0.930 . S
H441 C451 0.930 . S
C442 H436 0.930 . S
C442 C443 1.355 . S
C442 C444 1.415 . S
C443 C442 1.355 . S
C443 C445 1.419 . S
C444 C442 1.415 . S
C444 C449 1.425 . S
C444 C451 1.409 . S
C445 H437 0.930 . S
C445 C443 1.419 . S
C445 C446 1.362 . S
C446 H438 0.930 . S
C446 C445 1.362 . S
C446 C449 1.409 . S
C447 H439 0.930 . S
C447 C448 1.355 . S
C447 C449 1.415 . S
C448 C447 1.355 . S
C448 C450 1.419 . S
C449 C444 1.425 . S
C449 C446 1.409 . S
C449 C447 1.415 . S
C450 H440 0.930 . S
C450 C448 1.419 . S
C450 C451 1.362 . S
C451 H441 0.930 . S
C451 C444 1.409 . S
C451 C450 1.362 . S
H452 C458 0.930 . S
H453 C461 0.930 . S
H454 C462 0.930 . S
H455 C463 0.930 . S
H456 C466 0.930 . S
H457 C467 0.930 . S
C458 H452 0.930 . S
C458 C459 1.355 . S
C458 C460 1.415 . S
C459 C458 1.355 . S
C459 C461 1.419 . S
C460 C458 1.415 . S
C460 C465 1.425 . S
C460 C467 1.409 . S
C461 H453 0.930 . S
C461 C459 1.419 . S
C461 C462 1.362 . S
C462 H454 0.930 . S
C462 C461 1.362 . S
C462 C465 1.409 . S
C463 H455 0.930 . S
C463 C464 1.355 . S
C463 C465 1.415 . S
C464 C463 1.355 . S
C464 C466 1.419 . S
C465 C460 1.425 . S
C465 C462 1.409 . S
C465 C463 1.415 . S
C466 H456 0.930 . S
C466 C464 1.419 . S
C466 C467 1.362 . S
C467 H457 0.930 . S
C467 C460 1.409 . S
C467 C466 1.362 . S
H468 C474 0.930 . S
H469 C477 0.930 . S
H470 C478 0.930 1_455 S
H471 C479 0.930 . S
H472 C482 0.930 . S
H473 C483 0.930 1_655 S
C474 H468 0.930 . S
C474 C475 1.355 . S
C474 C476 1.415 . S
C475 C474 1.355 . S
C475 C477 1.419 . S
C476 C474 1.415 . S
C476 C481 1.425 1_655 S
C476 C483 1.409 1_655 S
C477 H469 0.930 . S
C477 C475 1.419 . S
C477 C478 1.362 . S
C478 H470 0.930 1_655 S
C478 C477 1.362 . S
C478 C481 1.409 1_655 S
C479 H471 0.930 . S
C479 C480 1.355 . S
C479 C481 1.415 . S
C480 C479 1.355 . S
C480 C482 1.419 . S
C481 C476 1.425 1_455 S
C481 C478 1.409 1_455 S
C481 C479 1.415 . S
C482 H472 0.930 . S
C482 C480 1.419 . S
C482 C483 1.362 . S
C483 H473 0.930 1_455 S
C483 C476 1.409 1_455 S
C483 C482 1.362 . S
H484 C490 0.930 . S
H485 C493 0.930 . S
H486 C494 0.930 . S
H487 C495 0.930 . S
H488 C498 0.930 . S
H489 C499 0.930 . S
C490 H484 0.930 . S
C490 C491 1.355 . S
C490 C492 1.415 1_545 S
C491 C490 1.355 . S
C491 C493 1.419 . S
C492 C490 1.415 1_565 S
C492 C497 1.425 1_565 S
C492 C499 1.409 . S
C493 H485 0.930 . S
C493 C491 1.419 . S
C493 C494 1.362 . S
C494 H486 0.930 . S
C494 C493 1.362 . S
C494 C497 1.409 . S
C495 H487 0.930 . S
C495 C496 1.355 . S
C495 C497 1.415 1_565 S
C496 C495 1.355 . S
C496 C498 1.419 . S
C497 C492 1.425 1_545 S
C497 C494 1.409 . S
C497 C495 1.415 1_545 S
C498 H488 0.930 . S
C498 C496 1.419 . S
C498 C499 1.362 . S
C499 H489 0.930 . S
C499 C492 1.409 . S
C499 C498 1.362 . S
H500 C506 0.930 . S
H501 C509 0.930 . S
H502 C510 0.930 . S
H503 C511 0.930 . S
H504 C514 0.930 . S
H505 C515 0.930 . S
C506 H500 0.930 . S
C506 C507 1.355 . S
C506 C508 1.415 . S
C507 C506 1.355 . S
C507 C509 1.419 . S
C508 C506 1.415 . S
C508 C513 1.425 . S
C508 C515 1.409 . S
C509 H501 0.930 . S
C509 C507 1.419 . S
C509 C510 1.362 . S
C510 H502 0.930 . S
C510 C509 1.362 . S
C510 C513 1.409 . S
C511 H503 0.930 . S
C511 C512 1.355 . S
C511 C513 1.415 . S
C512 C511 1.355 . S
C512 C514 1.419 . S
C513 C508 1.425 . S
C513 C510 1.409 . S
C513 C511 1.415 . S
C514 H504 0.930 . S
C514 C512 1.419 . S
C514 C515 1.362 . S
C515 H505 0.930 . S
C515 C508 1.409 . S
C515 C514 1.362 . S
H516 C522 0.930 . S
H517 C525 0.930 . S
H518 C526 0.930 . S
H519 C527 0.930 . S
H520 C530 0.930 . S
H521 C531 0.930 . S
C522 H516 0.930 . S
C522 C523 1.355 . S
C522 C524 1.415 . S
C523 C522 1.355 . S
C523 C525 1.419 . S
C524 C522 1.415 . S
C524 C529 1.425 1_545 S
C524 C531 1.409 . S
C525 H517 0.930 . S
C525 C523 1.419 . S
C525 C526 1.362 1_545 S
C526 H518 0.930 . S
C526 C525 1.362 1_565 S
C526 C529 1.409 . S
C527 H519 0.930 . S
C527 C528 1.355 . S
C527 C529 1.415 . S
C528 C527 1.355 . S
C528 C530 1.419 . S
C529 C524 1.425 1_565 S
C529 C526 1.409 . S
C529 C527 1.415 . S
C530 H520 0.930 . S
C530 C528 1.419 . S
C530 C531 1.362 1_565 S
C531 H521 0.930 . S
C531 C524 1.409 . S
C531 C530 1.362 1_545 S
H532 C538 0.930 . S
H533 C541 0.930 . S
H534 C542 0.930 . S
H535 C543 0.930 . S
H536 C546 0.930 . S
H537 C547 0.930 . S
C538 H532 0.930 . S
C538 C539 1.355 . S
C538 C540 1.415 . S
C539 C538 1.355 . S
C539 C541 1.419 . S
C540 C538 1.415 . S
C540 C545 1.425 . S
C540 C547 1.409 . S
C541 H533 0.930 . S
C541 C539 1.419 . S
C541 C542 1.362 . S
C542 H534 0.930 . S
C542 C541 1.362 . S
C542 C545 1.409 . S
C543 H535 0.930 . S
C543 C544 1.355 . S
C543 C545 1.415 . S
C544 C543 1.355 . S
C544 C546 1.419 . S
C545 C540 1.425 . S
C545 C542 1.409 . S
C545 C543 1.415 . S
C546 H536 0.930 . S
C546 C544 1.419 . S
C546 C547 1.362 . S
C547 H537 0.930 . S
C547 C540 1.409 . S
C547 C546 1.362 . S
H548 C554 0.930 . S
H549 C557 0.930 . S
H550 C558 0.930 . S
H551 C559 0.930 . S
H552 C562 0.930 . S
H553 C563 0.930 . S
C554 H548 0.930 . S
C554 C555 1.355 . S
C554 C556 1.415 1_455 S
C555 C554 1.355 . S
C555 C557 1.419 . S
C556 C554 1.415 1_655 S
C556 C561 1.425 1_655 S
C556 C563 1.409 . S
C557 H549 0.930 . S
C557 C555 1.419 . S
C557 C558 1.362 . S
C558 H550 0.930 . S
C558 C557 1.362 . S
C558 C561 1.409 . S
C559 H551 0.930 . S
C559 C560 1.355 . S
C559 C561 1.415 1_655 S
C560 C559 1.355 . S
C560 C562 1.419 . S
C561 C556 1.425 1_455 S
C561 C558 1.409 . S
C561 C559 1.415 1_455 S
C562 H552 0.930 . S
C562 C560 1.419 . S
C562 C563 1.362 . S
C563 H553 0.930 . S
C563 C556 1.409 . S
C563 C562 1.362 . S
H564 C570 0.930 . S
H565 C573 0.930 . S
H566 C574 0.930 . S
H567 C575 0.930 . S
H568 C578 0.930 . S
H569 C579 0.930 . S
C570 H564 0.930 . S
C570 C571 1.355 . S
C570 C572 1.415 . S
C571 C570 1.355 . S
C571 C573 1.419 . S
C572 C570 1.415 . S
C572 C577 1.425 . S
C572 C579 1.409 . S
C573 H565 0.930 . S
C573 C571 1.419 . S
C573 C574 1.362 . S
C574 H566 0.930 . S
C574 C573 1.362 . S
C574 C577 1.409 . S
C575 H567 0.930 . S
C575 C576 1.355 . S
C575 C577 1.415 . S
C576 C575 1.355 . S
C576 C578 1.419 . S
C577 C572 1.425 . S
C577 C574 1.409 . S
C577 C575 1.415 . S
C578 H568 0.930 . S
C578 C576 1.419 . S
C578 C579 1.362 . S
C579 H569 0.930 . S
C579 C572 1.409 . S
C579 C578 1.362 . S
H580 C586 0.930 1_455 S
H581 C589 0.930 . S
H582 C590 0.930 . S
H583 C591 0.930 1_655 S
H584 C594 0.930 . S
H585 C595 0.930 . S
C586 H580 0.930 1_655 S
C586 C587 1.355 . S
C586 C588 1.415 1_655 S
C587 C586 1.355 . S
C587 C589 1.419 . S
C588 C586 1.415 1_455 S
C588 C593 1.425 1_455 S
C588 C595 1.409 . S
C589 H581 0.930 . S
C589 C587 1.419 . S
C589 C590 1.362 . S
C590 H582 0.930 . S
C590 C589 1.362 . S
C590 C593 1.409 . S
C591 H583 0.930 1_455 S
C591 C592 1.355 . S
C591 C593 1.415 1_455 S
C592 C591 1.355 . S
C592 C594 1.419 . S
C593 C588 1.425 1_655 S
C593 C590 1.409 . S
C593 C591 1.415 1_655 S
C594 H584 0.930 . S
C594 C592 1.419 . S
C594 C595 1.362 . S
C595 H585 0.930 . S
C595 C588 1.409 . S
C595 C594 1.362 . S
H596 C602 0.930 . S
H597 C605 0.930 . S
H598 C606 0.927 1_565 S
H599 C607 0.930 . S
H600 C610 0.930 . S
H601 C611 0.926 1_545 S
C602 H596 0.930 . S
C602 C603 1.355 . S
C602 C604 1.415 . S
C603 C602 1.355 . S
C603 C605 1.419 . S
C604 C602 1.415 . S
C604 C609 1.425 1_545 S
C604 C611 1.403 1_545 S
C605 H597 0.930 . S
C605 C603 1.419 . S
C605 C606 1.372 . S
C606 H598 0.927 1_545 S
C606 C605 1.372 . S
C606 C609 1.403 1_545 S
C607 H599 0.930 . S
C607 C608 1.355 . S
C607 C609 1.415 . S
C608 C607 1.355 . S
C608 C610 1.419 . S
C609 C604 1.425 1_565 S
C609 C606 1.403 1_565 S
C609 C607 1.415 . S
C610 H600 0.930 . S
C610 C608 1.419 . S
C610 C611 1.373 . S
C611 H601 0.926 1_565 S
C611 C604 1.403 1_565 S
C611 C610 1.373 . S
H612 C618 0.930 . S
H613 C621 0.930 . S
H614 C622 0.930 . S
H615 C623 0.930 . S
H616 C626 0.930 . S
H617 C627 0.930 . S
C618 H612 0.930 . S
C618 C619 1.355 . S
C618 C620 1.415 . S
C619 C618 1.355 . S
C619 C621 1.419 . S
C620 C618 1.415 . S
C620 C625 1.425 . S
C620 C627 1.409 . S
C621 H613 0.930 . S
C621 C619 1.419 . S
C621 C622 1.362 . S
C622 H614 0.930 . S
C622 C621 1.362 . S
C622 C625 1.409 . S
C623 H615 0.930 . S
C623 C624 1.355 . S
C623 C625 1.415 . S
C624 C623 1.355 . S
C624 C626 1.419 . S
C625 C620 1.425 . S
C625 C622 1.409 . S
C625 C623 1.415 . S
C626 H616 0.930 . S
C626 C624 1.419 . S
C626 C627 1.362 . S
C627 H617 0.930 . S
C627 C620 1.409 . S
C627 C626 1.362 . S
H628 C634 0.930 . S
H629 C637 0.930 . S
H630 C638 0.930 . S
H631 C639 0.930 . S
H632 C642 0.930 . S
H633 C643 0.930 . S
C634 H628 0.930 . S
C634 C635 1.355 . S
C634 C636 1.415 . S
C635 C634 1.355 . S
C635 C637 1.419 . S
C636 C634 1.415 . S
C636 C641 1.425 1_455 S
C636 C643 1.409 1_455 S
C637 H629 0.930 . S
C637 C635 1.419 . S
C637 C638 1.362 . S
C638 H630 0.930 . S
C638 C637 1.362 . S
C638 C641 1.409 1_455 S
C639 H631 0.930 . S
C639 C640 1.355 . S
C639 C641 1.415 . S
C640 C639 1.355 . S
C640 C642 1.419 . S
C641 C636 1.425 1_655 S
C641 C638 1.409 1_655 S
C641 C639 1.415 . S
C642 H632 0.930 . S
C642 C640 1.419 . S
C642 C643 1.362 . S
C643 H633 0.930 . S
C643 C636 1.409 1_655 S
C643 C642 1.362 . S
H644 C650 0.930 . S
H645 C653 0.930 . S
H646 C654 0.930 . S
H647 C655 0.930 . S
H648 C658 0.930 . S
H649 C659 0.930 . S
C650 H644 0.930 . S
C650 C651 1.355 . S
C650 C652 1.415 . S
C651 C650 1.355 . S
C651 C653 1.419 . S
C652 C650 1.415 . S
C652 C657 1.425 1_565 S
C652 C659 1.409 . S
C653 H645 0.930 . S
C653 C651 1.419 . S
C653 C654 1.362 1_565 S
C654 H646 0.930 . S
C654 C653 1.362 1_545 S
C654 C657 1.409 . S
C655 H647 0.930 . S
C655 C656 1.355 . S
C655 C657 1.415 . S
C656 C655 1.355 . S
C656 C658 1.419 . S
C657 C652 1.425 1_545 S
C657 C654 1.409 . S
C657 C655 1.415 . S
C658 H648 0.930 . S
C658 C656 1.419 . S
C658 C659 1.362 1_545 S
C659 H649 0.930 . S
C659 C652 1.409 . S
C659 C658 1.362 1_565 S
C283 N232 1.586 . S
C288 N2 1.539 . S
C299 C30 1.606 . S
C304 C260 1.630 . S
C315 C53 1.610 . S
C320 C145 1.610 . S
C331 N71 1.543 . S
C336 N163 1.556 . S
C347 C191 1.610 . S
C352 C99 1.623 . S
C363 C122 1.658 . S
C368 C214 1.639 . S
C379 C200 1.605 . S
C384 N12 1.657 . S
C395 C39 1.585 . S
C400 C223 1.581 . S
C411 C62 1.644 . S
C416 N242 1.612 . S
C427 N81 1.617 . S
C432 C269 1.654 . S
C443 C154 1.579 . S
C448 C108 1.600 . S
C459 N173 1.652 . S
C464 C131 1.640 . S
C475 C76 1.242 . S
C480 C7 1.228 . S
C491 N25 1.193 . S
C496 N94 1.223 . S
C507 N117 1.158 . S
C512 N48 1.169 . S
C523 N209 1.178 . S
C528 N140 1.175 . S
C539 C237 1.232 . S
C544 C168 1.253 . S
C555 N186 1.135 . S
C560 N255 1.176 . S
C571 C85 1.904 . S
C576 C16 1.894 . S
C587 N35 1.729 . S
C592 N104 1.760 . S
C603 N127 1.830 . S
C608 N58 1.788 . S
C619 N150 1.742 . S
C624 N219 1.788 . S
C635 C246 1.891 . S
C640 C177 1.904 . S
C651 N196 1.829 . S
C656 N265 1.806 . S
