# Generated by pormake.
# Topology sth, (5)-cn, num edge types: 1
# Building blocks:
#     Node 0, Type 0, BuildingBlock: XOMCOT_clean_sbu_0, # of connection points: 5
#     Node 1, Type 0, BuildingBlock: XOMCOT_clean_sbu_0, # of connection points: 5
#     Node 2, Type 0, BuildingBlock: XOMCOT_clean_sbu_0, # of connection points: 5
#     Node 3, Type 0, BuildingBlock: XOMCOT_clean_sbu_0, # of connection points: 5
#     Node 4, Type 0, BuildingBlock: XOMCOT_clean_sbu_0, # of connection points: 5
#     Node 5, Type 0, BuildingBlock: XOMCOT_clean_sbu_0, # of connection points: 5
#     Node 6, Type 0, BuildingBlock: XOMCOT_clean_sbu_0, # of connection points: 5
#     Node 7, Type 0, BuildingBlock: XOMCOT_clean_sbu_0, # of connection points: 5
#     Node 8, Type 0, BuildingBlock: XOMCOT_clean_sbu_0, # of connection points: 5
#     Node 9, Type 0, BuildingBlock: XOMCOT_clean_sbu_0, # of connection points: 5
#     Node 10, Type 0, BuildingBlock: XOMCOT_clean_sbu_0, # of connection points: 5
#     Node 11, Type 0, BuildingBlock: XOMCOT_clean_sbu_0, # of connection points: 5
#     Node 12, Type 0, BuildingBlock: XOMCOT_clean_sbu_0, # of connection points: 5
#     Node 13, Type 0, BuildingBlock: XOMCOT_clean_sbu_0, # of connection points: 5
#     Node 14, Type 0, BuildingBlock: XOMCOT_clean_sbu_0, # of connection points: 5
#     Node 15, Type 0, BuildingBlock: XOMCOT_clean_sbu_0, # of connection points: 5
#     Node 16, Type 0, BuildingBlock: XOMCOT_clean_sbu_0, # of connection points: 5
#     Node 17, Type 0, BuildingBlock: XOMCOT_clean_sbu_0, # of connection points: 5
#     Edge 18, Type (0, 0), BuildingBlock: ZUJKAS_clean_linker_0, # of connection points: 2
#     Edge 19, Type (0, 0), BuildingBlock: ZUJKAS_clean_linker_0, # of connection points: 2
#     Edge 20, Type (0, 0), BuildingBlock: ZUJKAS_clean_linker_0, # of connection points: 2
#     Edge 21, Type (0, 0), BuildingBlock: ZUJKAS_clean_linker_0, # of connection points: 2
#     Edge 22, Type (0, 0), BuildingBlock: ZUJKAS_clean_linker_0, # of connection points: 2
#     Edge 23, Type (0, 0), BuildingBlock: ZUJKAS_clean_linker_0, # of connection points: 2
#     Edge 24, Type (0, 0), BuildingBlock: ZUJKAS_clean_linker_0, # of connection points: 2
#     Edge 25, Type (0, 0), BuildingBlock: ZUJKAS_clean_linker_0, # of connection points: 2
#     Edge 26, Type (0, 0), BuildingBlock: ZUJKAS_clean_linker_0, # of connection points: 2
#     Edge 27, Type (0, 0), BuildingBlock: ZUJKAS_clean_linker_0, # of connection points: 2
#     Edge 28, Type (0, 0), BuildingBlock: ZUJKAS_clean_linker_0, # of connection points: 2
#     Edge 29, Type (0, 0), BuildingBlock: ZUJKAS_clean_linker_0, # of connection points: 2
#     Edge 30, Type (0, 0), BuildingBlock: ZUJKAS_clean_linker_0, # of connection points: 2
#     Edge 31, Type (0, 0), BuildingBlock: ZUJKAS_clean_linker_0, # of connection points: 2
#     Edge 32, Type (0, 0), BuildingBlock: ZUJKAS_clean_linker_0, # of connection points: 2
#     Edge 33, Type (0, 0), BuildingBlock: ZUJKAS_clean_linker_0, # of connection points: 2
#     Edge 34, Type (0, 0), BuildingBlock: ZUJKAS_clean_linker_0, # of connection points: 2
#     Edge 35, Type (0, 0), BuildingBlock: ZUJKAS_clean_linker_0, # of connection points: 2
#     Edge 36, Type (0, 0), BuildingBlock: ZUJKAS_clean_linker_0, # of connection points: 2
#     Edge 37, Type (0, 0), BuildingBlock: ZUJKAS_clean_linker_0, # of connection points: 2
#     Edge 38, Type (0, 0), BuildingBlock: ZUJKAS_clean_linker_0, # of connection points: 2
#     Edge 39, Type (0, 0), BuildingBlock: ZUJKAS_clean_linker_0, # of connection points: 2
#     Edge 40, Type (0, 0), BuildingBlock: ZUJKAS_clean_linker_0, # of connection points: 2
#     Edge 41, Type (0, 0), BuildingBlock: ZUJKAS_clean_linker_0, # of connection points: 2
#     Edge 42, Type (0, 0), BuildingBlock: ZUJKAS_clean_linker_0, # of connection points: 2
#     Edge 43, Type (0, 0), BuildingBlock: ZUJKAS_clean_linker_0, # of connection points: 2
#     Edge 44, Type (0, 0), BuildingBlock: ZUJKAS_clean_linker_0, # of connection points: 2
#     Edge 45, Type (0, 0), BuildingBlock: ZUJKAS_clean_linker_0, # of connection points: 2
#     Edge 46, Type (0, 0), BuildingBlock: ZUJKAS_clean_linker_0, # of connection points: 2
#     Edge 47, Type (0, 0), BuildingBlock: ZUJKAS_clean_linker_0, # of connection points: 2
#     Edge 48, Type (0, 0), BuildingBlock: ZUJKAS_clean_linker_0, # of connection points: 2
#     Edge 49, Type (0, 0), BuildingBlock: ZUJKAS_clean_linker_0, # of connection points: 2
#     Edge 50, Type (0, 0), BuildingBlock: ZUJKAS_clean_linker_0, # of connection points: 2
#     Edge 51, Type (0, 0), BuildingBlock: ZUJKAS_clean_linker_0, # of connection points: 2
#     Edge 52, Type (0, 0), BuildingBlock: ZUJKAS_clean_linker_0, # of connection points: 2
#     Edge 53, Type (0, 0), BuildingBlock: ZUJKAS_clean_linker_0, # of connection points: 2
#     Edge 54, Type (0, 0), BuildingBlock: ZUJKAS_clean_linker_0, # of connection points: 2
#     Edge 55, Type (0, 0), BuildingBlock: ZUJKAS_clean_linker_0, # of connection points: 2
#     Edge 56, Type (0, 0), BuildingBlock: ZUJKAS_clean_linker_0, # of connection points: 2
#     Edge 57, Type (0, 0), BuildingBlock: ZUJKAS_clean_linker_0, # of connection points: 2
#     Edge 58, Type (0, 0), BuildingBlock: ZUJKAS_clean_linker_0, # of connection points: 2
#     Edge 59, Type (0, 0), BuildingBlock: ZUJKAS_clean_linker_0, # of connection points: 2
#     Edge 60, Type (0, 0), BuildingBlock: ZUJKAS_clean_linker_0, # of connection points: 2
#     Edge 61, Type (0, 0), BuildingBlock: ZUJKAS_clean_linker_0, # of connection points: 2
#     Edge 62, Type (0, 0), BuildingBlock: ZUJKAS_clean_linker_0, # of connection points: 2
# Relax obj value: 0.186
# Max RMSD: 0.216
# Mean RMSD: 0.216
data_MOF--net-sth--node1-XOMCOT_clean_sbu_0--edge1-ZUJKAS_clean_linker_0
_symmetry_space_group_name_H-M    P1
_symmetry_Int_Tables_number       1
_symmetry_cell_setting            triclinic
loop_
_symmetry_equiv_pos_as_xyz
'x, y, z'
_cell_length_a     51.510859
_cell_length_b     51.446133
_cell_length_c     98.646398
_cell_angle_alpha  89.932182
_cell_angle_beta   89.945436
_cell_angle_gamma 119.92887
loop_
_atom_site_label
_atom_site_type_symbol
_atom_site_fract_x
_atom_site_fract_y
_atom_site_fract_z
_atom_type_partial_charge
Co0 Co 0.11697 0.28365 0.22669 0.0
C1 C 0.17456 0.31329 0.21163 0.0
C2 C 0.17377 0.34011 0.22812 0.0
C3 C 0.20035 0.35626 0.22126 0.0
N4 N 0.1577 0.31318 0.22214 0.0
N5 N 0.20083 0.33952 0.21084 0.0
H6 H 0.16726 0.29507 0.20446 0.0
H7 H 0.16634 0.34774 0.23672 0.0
C8 C 0.11925 0.22801 0.23266 0.0
O9 O 0.10417 0.22648 0.24368 0.0
N10 N 0.07533 0.25417 0.23077 0.0
C11 C 0.05457 0.25852 0.23715 0.0
C12 C 0.02744 0.23231 0.23689 0.0
C13 C 0.0598 0.22578 0.22602 0.0
N14 N 0.03087 0.21166 0.23 0.0
C15 C 0.116 0.29981 0.25452 0.0
C16 C 0.16113 0.29027 0.26379 0.0
C17 C 0.14697 0.29996 0.27301 0.0
C18 C 0.12446 0.30518 0.2681 0.0
C19 C 0.15204 0.28534 0.2502 0.0
N20 N 0.12858 0.28859 0.24583 0.0
H21 H 0.10029 0.30616 0.25092 0.0
H22 H 0.16416 0.27923 0.24316 0.0
H23 H 0.05805 0.27945 0.2412 0.0
H24 H 0.06924 0.2157 0.21951 0.0
O25 O 0.10627 0.31451 0.22563 0.0
O26 O 0.10434 0.28637 0.20831 0.0
O27 O 0.12681 0.24993 0.22435 0.0
C28 C 0.10008 0.30774 0.21294 0.0
H29 H 0.21794 0.37869 0.22376 0.0
H30 H 1.00683 0.22876 0.24149 0.0
H31 H 0.17911 0.28653 0.26699 0.0
H32 H 0.11403 0.31434 0.27458 0.0
Co33 Co 0.74905 0.84825 0.228 0.0
C34 C 0.70312 0.86691 0.22179 0.0
C35 C 0.74089 0.88456 0.20824 0.0
C36 C 0.72316 0.89622 0.20459 0.0
N37 N 0.72867 0.86644 0.21904 0.0
N38 N 0.69951 0.88528 0.21307 0.0
H39 H 0.68822 0.85511 0.23015 0.0
H40 H 0.76181 0.88948 0.2035 0.0
C41 C 0.80705 0.90125 0.23665 0.0
O42 O 0.80483 0.88728 0.24813 0.0
N43 N 0.77167 0.83098 0.23599 0.0
C44 C 0.76498 0.80989 0.24563 0.0
C45 C 0.78891 0.80496 0.24698 0.0
C46 C 0.79899 0.83759 0.23136 0.0
N47 N 0.81038 0.82266 0.23804 0.0
C48 C 0.71765 0.83168 0.2533 0.0
C49 C 0.73851 0.88856 0.26361 0.0
C50 C 0.72121 0.86372 0.27201 0.0
C51 C 0.70985 0.83503 0.26645 0.0
C52 C 0.74572 0.88412 0.25039 0.0
N53 N 0.7371 0.85589 0.24575 0.0
H54 H 0.70808 0.80932 0.24926 0.0
H55 H 0.75845 0.90347 0.24399 0.0
H56 H 0.74432 0.79833 0.25124 0.0
H57 H 0.81028 0.85312 0.22312 0.0
O58 O 0.71532 0.80885 0.22498 0.0
O59 O 0.75303 0.83263 0.21061 0.0
O60 O 0.78672 0.88884 0.22761 0.0
C61 C 0.7278 0.80858 0.21359 0.0
H62 H 0.72739 0.91186 0.19639 0.0
H63 H 0.79047 0.78979 0.2541 0.0
H64 H 0.74702 0.9112 0.26728 0.0
H65 H 0.69503 0.81514 0.27223 0.0
Co66 Co 0.17666 0.90483 0.2305 0.0
C67 C 0.1484 0.84424 0.21741 0.0
C68 C 0.17837 0.84919 0.2336 0.0
C69 C 0.16743 0.82119 0.22805 0.0
N70 N 0.16641 0.86364 0.22702 0.0
N71 N 0.14868 0.81797 0.2178 0.0
H72 H 0.13606 0.84954 0.21011 0.0
H73 H 0.19423 0.85853 0.24185 0.0
C74 C 0.11826 0.90113 0.23586 0.0
O75 O 0.13175 0.91812 0.24642 0.0
N76 N 0.18798 0.94699 0.23351 0.0
C77 C 0.21393 0.9686 0.2389 0.0
C78 C 0.21546 0.99591 0.23767 0.0
C79 C 0.17491 0.96223 0.22838 0.0
N80 N 0.19087 0.99199 0.23109 0.0
C81 C 0.19293 0.9095 0.25879 0.0
C82 C 0.13987 0.86144 0.26786 0.0
C83 C 0.16306 0.87705 0.27721 0.0
C84 C 0.18987 0.90134 0.27246 0.0
C85 C 0.14383 0.87049 0.25426 0.0
N86 N 0.16983 0.89493 0.24989 0.0
H87 H 0.21455 0.92653 0.25534 0.0
H88 H 0.12617 0.85724 0.24715 0.0
H89 H 0.23181 0.96555 0.24274 0.0
H90 H 0.15473 0.95206 0.22234 0.0
O91 O 0.21841 0.91631 0.22981 0.0
O92 O 0.19212 0.91589 0.21202 0.0
O93 O 0.13302 0.89352 0.22787 0.0
C94 C 0.21786 0.92122 0.21694 0.0
H95 H 0.17288 0.80446 0.2314 0.0
H96 H 0.23358 0.01714 0.24122 0.0
H97 H 0.11889 0.84222 0.27099 0.0
H98 H 0.2089 0.91324 0.27914 0.0
Co99 Co 0.28328 0.12969 0.79076 0.0
C100 C 0.32652 0.19438 0.79914 0.0
C101 C 0.31392 0.16277 0.81544 0.0
C102 C 0.33283 0.19073 0.82046 0.0
N103 N 0.30985 0.16456 0.80199 0.0
N104 N 0.34065 0.21066 0.8103 0.0
H105 H 0.32772 0.20424 0.78932 0.0
H106 H 0.30331 0.14269 0.82155 0.0
C107 C 0.24705 0.1607 0.7939 0.0
O108 O 0.27098 0.18652 0.79124 0.0
N109 N 0.25638 0.09466 0.78042 0.0
C110 C 0.26222 0.08265 0.76952 0.0
C111 C 0.23661 0.05601 0.76637 0.0
C112 C 0.22767 0.07539 0.78376 0.0
N113 N 0.21494 0.05162 0.77534 0.0
C114 C 0.3238 0.16533 0.76976 0.0
C115 C 0.28076 0.16193 0.75199 0.0
C116 C 0.31014 0.17313 0.74717 0.0
C117 C 0.33194 0.17554 0.75643 0.0
C118 C 0.27353 0.15187 0.76539 0.0
N119 N 0.29486 0.15328 0.77408 0.0
H120 H 0.34053 0.16564 0.77648 0.0
H121 H 0.25031 0.14096 0.76845 0.0
H122 H 0.28366 0.09223 0.76443 0.0
H123 H 0.21673 0.07807 0.79258 0.0
O124 O 0.31324 0.11745 0.79043 0.0
O125 O 0.27754 0.10306 0.8059 0.0
O126 O 0.24852 0.13665 0.7942 0.0
C127 C 0.30071 0.10195 0.80132 0.0
H128 H 0.33924 0.19622 0.83098 0.0
H129 H 0.23422 0.04095 0.7582 0.0
H130 H 0.26313 0.15978 0.74531 0.0
H131 H 0.35481 0.18353 0.75323 0.0
Co132 Co 0.89028 0.15504 0.78732 0.0
C133 C 0.83272 0.12642 0.80319 0.0
C134 C 0.84384 0.16978 0.79567 0.0
C135 C 0.81813 0.15889 0.80322 0.0
N136 N 0.85276 0.14914 0.79522 0.0
N137 N 0.81103 0.13157 0.80792 0.0
H138 H 0.83452 0.10708 0.80603 0.0
H139 H 0.85579 0.19208 0.79143 0.0
C140 C 0.85236 0.08819 0.78491 0.0
O141 O 0.83117 0.09195 0.77948 0.0
N142 N 0.92786 0.16147 0.78 0.0
C143 C 0.94251 0.17829 0.76912 0.0
C144 C 0.96916 0.17843 0.76772 0.0
C145 C 0.946 0.15212 0.78526 0.0
N146 N 0.97137 0.16209 0.77789 0.0
C147 C 0.86592 0.16963 0.7643 0.0
C148 C 0.86804 0.12956 0.74635 0.0
C149 C 0.85872 0.14932 0.74165 0.0
C150 C 0.85757 0.16938 0.75086 0.0
C151 C 0.87641 0.13068 0.75993 0.0
N152 N 0.87457 0.15006 0.76887 0.0
H153 H 0.86688 0.18677 0.7708 0.0
H154 H 0.88552 0.11675 0.76311 0.0
H155 H 0.93462 0.19011 0.76279 0.0
H156 H 0.94087 0.13863 0.79436 0.0
O157 O 0.90746 0.19779 0.78874 0.0
O158 O 0.90923 0.16875 0.8049 0.0
O159 O 0.87665 0.11089 0.78901 0.0
C160 C 0.91622 0.19561 0.80082 0.0
H161 H 0.80574 0.17039 0.80517 0.0
H162 H 0.98614 0.19055 0.7601 0.0
H163 H 0.87015 0.11432 0.73946 0.0
H164 H 0.85088 0.18532 0.74763 0.0
Co165 Co 0.86385 0.74618 0.79435 0.0
C166 C 0.87736 0.69957 0.80678 0.0
C167 C 0.89201 0.73997 0.8182 0.0
C168 C 0.8982 0.72122 0.82557 0.0
N169 N 0.87899 0.72674 0.80639 0.0
N170 N 0.88896 0.6958 0.81847 0.0
H171 H 0.86741 0.68257 0.79907 0.0
H172 H 0.89635 0.76191 0.82134 0.0
C173 C 0.92983 0.78501 0.79379 0.0
O174 O 0.93047 0.75999 0.79215 0.0
N175 N 0.84917 0.76712 0.7834 0.0
C176 C 0.82911 0.7567 0.77323 0.0
C177 C 0.82364 0.7793 0.76925 0.0
C178 C 0.8555 0.79551 0.78553 0.0
N179 N 0.84033 0.80368 0.77703 0.0
C180 C 0.85898 0.70316 0.77442 0.0
C181 C 0.8934 0.7448 0.75489 0.0
C182 C 0.87742 0.71443 0.7513 0.0
C183 C 0.86061 0.69341 0.76136 0.0
C184 C 0.89131 0.75357 0.76805 0.0
N185 N 0.8744 0.73289 0.77773 0.0
H186 H 0.84341 0.6869 0.78152 0.0
H187 H 0.90157 0.77727 0.77008 0.0
H188 H 0.81883 0.7342 0.76918 0.0
H189 H 0.87006 0.80946 0.79357 0.0
O190 O 0.82364 0.71313 0.79641 0.0
O191 O 0.84463 0.75244 0.81006 0.0
O192 O 0.90459 0.78401 0.79503 0.0
C193 C 0.82116 0.72687 0.80693 0.0
H194 H 0.90887 0.72598 0.83541 0.0
H195 H 0.80844 0.7778 0.76133 0.0
H196 H 0.90641 0.76186 0.74741 0.0
H197 H 0.84714 0.66981 0.75894 0.0
Co198 Co 0.78783 0.61585 0.56466 0.0
C199 C 0.84481 0.64407 0.54903 0.0
C200 C 0.84595 0.67103 0.56588 0.0
C201 C 0.87252 0.6863 0.55893 0.0
N202 N 0.82867 0.64452 0.55975 0.0
N203 N 0.87183 0.66953 0.54826 0.0
H204 H 0.8365 0.62599 0.54174 0.0
H205 H 0.83946 0.67899 0.57468 0.0
C206 C 0.78813 0.55918 0.57052 0.0
O207 O 0.77313 0.55755 0.58158 0.0
N208 N 0.74622 0.58707 0.5691 0.0
C209 C 0.72646 0.59129 0.57642 0.0
C210 C 0.69894 0.56551 0.57609 0.0
C211 C 0.72979 0.55922 0.56385 0.0
N212 N 0.70117 0.54527 0.56827 0.0
C213 C 0.78919 0.63502 0.59218 0.0
C214 C 0.83073 0.62079 0.60202 0.0
C215 C 0.81805 0.63251 0.61103 0.0
C216 C 0.79751 0.64025 0.6058 0.0
C217 C 0.82192 0.61617 0.58839 0.0
N218 N 0.79996 0.62152 0.58377 0.0
H219 H 0.77501 0.64311 0.58833 0.0
H220 H 0.83308 0.60854 0.58153 0.0
H221 H 0.73089 0.61181 0.58129 0.0
H222 H 0.73848 0.54942 0.55675 0.0
O223 O 0.77771 0.64714 0.56313 0.0
O224 O 0.77473 0.61732 0.54631 0.0
O225 O 0.7967 0.58166 0.56249 0.0
C226 C 0.7709 0.63918 0.55056 0.0
H227 H 0.89089 0.70821 0.56157 0.0
H228 H 0.67889 0.56191 0.58128 0.0
H229 H 0.84728 0.61514 0.60542 0.0
H230 H 0.78844 0.65109 0.61207 0.0
Co231 Co 0.41751 0.18115 0.56168 0.0
C232 C 0.36995 0.19767 0.55542 0.0
C233 C 0.40508 0.21212 0.54057 0.0
C234 C 0.38536 0.22096 0.53633 0.0
N235 N 0.39552 0.19739 0.55246 0.0
N236 N 0.3634 0.21196 0.54561 0.0
H237 H 0.35657 0.18782 0.56444 0.0
H238 H 0.42528 0.21629 0.53536 0.0
C239 C 0.47427 0.23533 0.57029 0.0
O240 O 0.4724 0.22119 0.58167 0.0
N241 N 0.44155 0.16571 0.56988 0.0
C242 C 0.43663 0.14698 0.5804 0.0
C243 C 0.46097 0.14272 0.58169 0.0
C244 C 0.46836 0.17174 0.56477 0.0
N245 N 0.48095 0.15839 0.57184 0.0
C246 C 0.38498 0.16358 0.58673 0.0
C247 C 0.40364 0.22003 0.59706 0.0
C248 C 0.38558 0.19492 0.60519 0.0
C249 C 0.37575 0.16643 0.59967 0.0
C250 C 0.41223 0.21612 0.58403 0.0
N251 N 0.40448 0.18812 0.57935 0.0
H252 H 0.37663 0.1413 0.58275 0.0
H253 H 0.42499 0.23567 0.57776 0.0
H254 H 0.41692 0.13657 0.58669 0.0
H255 H 0.47869 0.18633 0.55614 0.0
O256 O 0.38515 0.14082 0.55868 0.0
O257 O 0.42254 0.16583 0.54435 0.0
O258 O 0.454 0.2227 0.56123 0.0
C259 C 0.39794 0.14109 0.5473 0.0
H260 H 0.38715 0.23348 0.5272 0.0
H261 H 0.46344 0.12874 0.58918 0.0
H262 H 0.41081 0.24249 0.60066 0.0
H263 H 0.3615 0.14627 0.60541 0.0
Co264 Co 0.84273 0.23624 0.55687 0.0
C265 C 0.81947 0.18169 0.53919 0.0
C266 C 0.85849 0.18959 0.55018 0.0
C267 C 0.85017 0.16536 0.54189 0.0
N268 N 0.83872 0.19946 0.54894 0.0
N269 N 0.82558 0.16025 0.53495 0.0
H270 H 0.80205 0.18502 0.53489 0.0
H271 H 0.87889 0.20013 0.556 0.0
C272 C 0.77612 0.1973 0.556 0.0
O273 O 0.77991 0.17586 0.56117 0.0
N274 N 0.84758 0.27316 0.56429 0.0
C275 C 0.86489 0.28812 0.57493 0.0
C276 C 0.86374 0.314 0.57676 0.0
C277 C 0.83628 0.29021 0.55967 0.0
N278 N 0.84573 0.3154 0.56718 0.0
C279 C 0.851 0.20936 0.58081 0.0
C280 C 0.80572 0.20853 0.59615 0.0
C281 C 0.8231 0.19725 0.60182 0.0
C282 C 0.84616 0.19811 0.59397 0.0
C283 C 0.81132 0.21957 0.58283 0.0
N284 N 0.83296 0.21871 0.57508 0.0
H285 H 0.87032 0.21187 0.57554 0.0
H286 H 0.79859 0.22938 0.57887 0.0
H287 H 0.87781 0.28086 0.58084 0.0
H288 H 0.82155 0.28428 0.551 0.0
O289 O 0.88541 0.25297 0.55772 0.0
O290 O 0.86139 0.25701 0.53997 0.0
O291 O 0.79902 0.22268 0.55304 0.0
C292 C 0.88679 0.26287 0.54549 0.0
H293 H 0.86171 0.15272 0.54099 0.0
H294 H 0.87597 0.33087 0.58437 0.0
H295 H 0.78814 0.20905 0.60195 0.0
H296 H 0.86127 0.19126 0.59815 0.0
Co297 Co 0.95048 0.46859 0.11956 0.0
C298 C 0.98686 0.52689 0.13481 0.0
C299 C 0.96922 0.53174 0.11588 0.0
C300 C 0.98252 0.55888 0.12236 0.0
N301 N 0.97197 0.5115 0.12354 0.0
N302 N 0.99347 0.55595 0.13429 0.0
H303 H 0.9913 0.51686 0.14349 0.0
H304 H 0.95695 0.52681 0.10647 0.0
C305 C 0.88545 0.45471 0.11578 0.0
O306 O 0.87678 0.42806 0.11072 0.0
N307 N 0.92847 0.42574 0.11582 0.0
C308 C 0.93203 0.41099 0.10536 0.0
C309 C 0.91074 0.38101 0.10637 0.0
C310 C 0.90625 0.40428 0.12344 0.0
N311 N 0.89417 0.37684 0.11765 0.0
C312 C 0.9873 0.49382 0.0962 0.0
C313 C 0.94277 0.47455 0.07686 0.0
C314 C 0.97276 0.49069 0.0726 0.0
C315 C 0.99513 0.50057 0.08255 0.0
C316 C 0.93589 0.46844 0.09065 0.0
N317 N 0.95801 0.47791 0.10018 0.0
H318 H 1.00493 0.5016 0.10367 0.0
H319 H 0.9128 0.45525 0.09342 0.0
H320 H 0.94835 0.42131 0.09733 0.0
H321 H 0.89796 0.40911 0.13262 0.0
O322 O 0.98528 0.46506 0.12322 0.0
O323 O 0.95138 0.45883 0.13863 0.0
O324 O 0.91271 0.47195 0.11937 0.0
C325 C 0.97563 0.45796 0.13558 0.0
H326 H 0.98335 0.57914 0.1187 0.0
H327 H 0.90682 0.36397 0.09895 0.0
H328 H 0.92464 0.4659 0.06959 0.0
H329 H 0.01861 0.51358 0.07987 0.0
Co330 Co 0.56103 0.48946 0.12675 0.0
C331 C 0.49703 0.46725 0.13499 0.0
C332 C 0.52116 0.45316 0.14804 0.0
C333 C 0.49198 0.43945 0.15231 0.0
N334 N 0.5244 0.47038 0.13716 0.0
N335 N 0.47687 0.44822 0.14414 0.0
H336 H 0.49166 0.47741 0.12665 0.0
H337 H 0.53872 0.44991 0.15225 0.0
C338 C 0.56645 0.43731 0.11662 0.0
O339 O 0.57626 0.45134 0.10498 0.0
N340 N 0.59901 0.50774 0.11708 0.0
C341 C 0.60998 0.5273 0.10664 0.0
C342 C 0.63888 0.53358 0.10395 0.0
C343 C 0.62165 0.50323 0.12077 0.0
N344 N 0.64607 0.5182 0.11283 0.0
C345 C 0.5399 0.50588 0.10334 0.0
C346 C 0.50603 0.44951 0.09222 0.0
C347 C 0.5101 0.47457 0.08479 0.0
C348 C 0.52654 0.50291 0.09074 0.0
C349 C 0.51959 0.45353 0.10498 0.0
N350 N 0.53816 0.48171 0.10992 0.0
H351 H 0.55253 0.52807 0.10757 0.0
H352 H 0.51516 0.43393 0.11077 0.0
H353 H 0.59846 0.53681 0.10129 0.0
H354 H 0.6201 0.48913 0.12923 0.0
O355 O 0.56635 0.52849 0.13072 0.0
O356 O 0.58376 0.5052 0.14345 0.0
O357 O 0.55937 0.44937 0.12618 0.0
C358 C 0.58147 0.52898 0.14132 0.0
H359 H 0.48233 0.4237 0.16063 0.0
H360 H 0.65324 0.54803 0.09596 0.0
H361 H 0.4925 0.42706 0.08823 0.0
H362 H 0.53009 0.52295 0.08551 0.0
Co363 Co 0.53777 0.07589 0.12904 0.0
C364 C 0.5509 0.0347 0.14583 0.0
C365 C 0.58328 0.05826 0.13017 0.0
C366 C 0.59281 0.04209 0.13762 0.0
N367 N 0.55708 0.05383 0.13526 0.0
N368 N 0.57256 0.02735 0.14747 0.0
H369 H 0.53187 0.0273 0.15254 0.0
H370 H 0.59522 0.07309 0.12181 0.0
C371 C 0.59009 0.14099 0.12611 0.0
O372 O 0.57339 0.14932 0.1195 0.0
N373 N 0.51852 0.09802 0.12293 0.0
C374 C 0.50355 0.09461 0.11128 0.0
C375 C 0.49564 0.1165 0.11059 0.0
C376 C 0.51772 0.12057 0.12955 0.0
N377 N 0.50508 0.13325 0.12198 0.0
C378 C 0.5297 0.03821 0.10645 0.0
C379 C 0.56036 0.08235 0.0873 0.0
C380 C 0.54468 0.05235 0.08306 0.0
C381 C 0.52972 0.0301 0.09293 0.0
C382 C 0.55974 0.0895 0.10093 0.0
N383 N 0.54395 0.06762 0.11031 0.0
H384 H 0.51752 0.02075 0.11383 0.0
H385 H 0.57102 0.11269 0.10361 0.0
H386 H 0.49962 0.07816 0.10356 0.0
H387 H 0.52838 0.12893 0.13926 0.0
O388 O 0.49841 0.04155 0.13161 0.0
O389 O 0.52295 0.07581 0.1473 0.0
O390 O 0.57924 0.11372 0.13008 0.0
C391 C 0.49841 0.05163 0.14366 0.0
H392 H 0.61335 0.04156 0.13607 0.0
H393 H 0.48552 0.12087 0.10193 0.0
H394 H 0.57269 0.10032 0.08011 0.0
H395 H 0.51714 1.00661 0.09019 0.0
Co396 Co 0.45444 0.94617 0.89629 0.0
C397 C 0.51369 0.9732 0.8825 0.0
C398 C 0.50973 1.00411 0.8958 0.0
C399 C 0.5373 0.01879 0.88962 0.0
N400 N 0.49495 0.9756 0.89135 0.0
N401 N 0.53981 0.99943 0.88123 0.0
H402 H 0.50804 0.95301 0.87687 0.0
H403 H 0.50089 0.01364 0.90296 0.0
C404 C 0.45669 0.89152 0.90402 0.0
O405 O 0.44092 0.89053 0.9147 0.0
N406 N 0.41319 0.91651 0.90083 0.0
C407 C 0.39322 0.91957 0.90854 0.0
C408 C 0.36617 0.8933 0.90818 0.0
C409 C 0.39734 0.88879 0.89537 0.0
N410 N 0.36882 0.87384 0.89996 0.0
C411 C 0.45529 0.969 0.92303 0.0
C412 C 0.49844 0.95834 0.93396 0.0
C413 C 0.48566 0.97119 0.94222 0.0
C414 C 0.46404 0.9768 0.93649 0.0
C415 C 0.48901 0.95092 0.9205 0.0
N416 N 0.46636 0.95462 0.91538 0.0
H417 H 0.44048 0.97579 0.91866 0.0
H418 H 0.50052 0.94283 0.91413 0.0
H419 H 0.39706 0.93959 0.91368 0.0
H420 H 0.4067 0.87966 0.88826 0.0
O421 O 0.44238 0.97575 0.89353 0.0
O422 O 0.44158 0.94508 0.87763 0.0
O423 O 0.46507 0.91305 0.89547 0.0
C424 C 0.43633 0.9665 0.88108 0.0
H425 H 0.55427 0.04197 0.89121 0.0
H426 H 0.34588 0.88923 0.91329 0.0
H427 H 0.51622 0.95486 0.93772 0.0
H428 H 0.454 0.98735 0.94231 0.0
Co429 Co 0.08151 0.51462 0.88752 0.0
C430 C 0.03299 0.52759 0.87707 0.0
C431 C 0.06602 0.53234 0.86251 0.0
C432 C 0.04612 0.5385 0.85617 0.0
N433 N 0.05792 0.52515 0.87559 0.0
N434 N 0.02531 0.5355 0.86526 0.0
H435 H 0.02083 0.52414 0.88642 0.0
H436 H 0.08566 0.53363 0.85788 0.0
C437 C 0.11672 0.58088 0.88487 0.0
O438 O 0.09145 0.58071 0.88696 0.0
N439 N 0.10641 0.50452 0.89831 0.0
C440 C 0.09954 0.48719 0.90947 0.0
C441 C 0.12416 0.48455 0.91288 0.0
C442 C 0.13463 0.5119 0.89504 0.0
N443 N 0.14613 0.49999 0.90372 0.0
C444 C 0.0402 0.50926 0.90828 0.0
C445 C 0.0826 0.54922 0.92614 0.0
C446 C 0.05305 0.53127 0.93072 0.0
C447 C 0.03159 0.51165 0.92146 0.0
C448 C 0.09024 0.54627 0.91284 0.0
N449 N 0.06917 0.52644 0.90404 0.0
H450 H 0.02379 0.49216 0.90173 0.0
H451 H 0.11361 0.55836 0.91002 0.0
H452 H 0.07807 0.47678 0.91456 0.0
H453 H 0.14634 0.52556 0.88633 0.0
O454 O 0.05052 0.47307 0.88725 0.0
O455 O 0.08744 0.49403 0.87231 0.0
O456 O 0.117 0.55617 0.88479 0.0
C457 C 0.06342 0.47009 0.87653 0.0
H458 H 0.04745 0.54568 0.84575 0.0
H459 H 0.12542 0.47153 0.92122 0.0
H460 H 0.1 0.56455 0.93294 0.0
H461 H 1.00867 0.49677 0.92461 0.0
Co462 Co 0.50697 0.56563 0.89858 0.0
C463 C 0.47833 0.50955 0.88222 0.0
C464 C 0.50798 0.50941 0.8975 0.0
C465 C 0.49759 0.48377 0.88991 0.0
N466 N 0.49592 0.52556 0.89271 0.0
N467 N 0.47908 0.48386 0.88026 0.0
H468 H 0.4663 0.5171 0.87583 0.0
H469 H 0.52392 0.51626 0.90572 0.0
C470 C 0.44989 0.56288 0.90592 0.0
O471 O 0.46396 0.57747 0.91693 0.0
N472 N 0.51896 0.60673 0.90393 0.0
C473 C 0.54404 0.62646 0.9106 0.0
C474 C 0.54646 0.65429 0.91038 0.0
C475 C 0.50737 0.62356 0.89921 0.0
N476 N 0.52335 0.65246 0.90324 0.0
C477 C 0.5252 0.56248 0.92589 0.0
C478 C 0.47066 0.51644 0.93482 0.0
C479 C 0.49478 0.52899 0.94391 0.0
C480 C 0.5224 0.55216 0.9392 0.0
C481 C 0.47448 0.52752 0.92155 0.0
N482 N 0.50114 0.55138 0.91739 0.0
H483 H 0.54716 0.57853 0.92233 0.0
H484 H 0.45605 0.51643 0.91454 0.0
H485 H 0.56088 0.62201 0.91458 0.0
H486 H 0.48831 0.61513 0.89247 0.0
O487 O 0.54852 0.5771 0.89663 0.0
O488 O 0.5209 0.5807 0.88035 0.0
O489 O 0.46362 0.55569 0.89716 0.0
C490 C 0.54693 0.58499 0.88429 0.0
H491 H 0.50344 0.46644 0.89132 0.0
H492 H 0.56425 0.67446 0.91493 0.0
H493 H 0.44922 0.49769 0.93779 0.0
H494 H 0.5419 0.56226 0.9457 0.0
Co495 Co 0.61355 0.79271 0.45683 0.0
C496 C 0.65196 0.85843 0.46371 0.0
C497 C 0.61135 0.83457 0.47532 0.0
C498 C 0.62533 0.86407 0.47905 0.0
N499 N 0.62772 0.83091 0.46566 0.0
N500 N 0.65073 0.87915 0.47176 0.0
H501 H 0.66948 0.86334 0.45638 0.0
H502 H 0.59026 0.81687 0.47923 0.0
C503 C 0.55479 0.7803 0.44481 0.0
O504 O 0.56092 0.76941 0.434 0.0
N505 N 0.59702 0.75303 0.44884 0.0
C506 C 0.60815 0.74063 0.44021 0.0
C507 C 0.58674 0.71081 0.43828 0.0
C508 C 0.56975 0.73036 0.45237 0.0
N509 N 0.56253 0.70467 0.44584 0.0
C510 C 0.6509 0.81106 0.43326 0.0
C511 C 0.62535 0.83987 0.41986 0.0
C512 C 0.64656 0.83517 0.41297 0.0
C513 C 0.66028 0.82174 0.42015 0.0
C514 C 0.61681 0.82901 0.43315 0.0
N515 N 0.62789 0.81269 0.43927 0.0
H516 H 0.66194 0.80086 0.43848 0.0
H517 H 0.60094 0.83337 0.43835 0.0
H518 H 0.6301 0.75182 0.43567 0.0
H519 H 0.55529 0.73276 0.4596 0.0
O520 O 0.64904 0.79177 0.46226 0.0
O521 O 0.6076 0.7735 0.47452 0.0
O522 O 0.57335 0.79048 0.45468 0.0
C523 C 0.63465 0.7778 0.47314 0.0
H524 H 0.61746 0.87379 0.48661 0.0
H525 H 0.58862 0.69511 0.43162 0.0
H526 H 0.61479 0.85103 0.41495 0.0
H527 H 0.67803 0.81915 0.41563 0.0
Co528 Co 0.22688 0.82126 0.46041 0.0
C529 C 0.16269 0.80015 0.46914 0.0
C530 C 0.19441 0.82099 0.48517 0.0
C531 C 0.1664 0.812 0.49022 0.0
N532 N 0.19252 0.81388 0.47186 0.0
N533 N 0.14646 0.79877 0.48019 0.0
H534 H 0.15274 0.79116 0.45939 0.0
H535 H 0.21461 0.83146 0.49116 0.0
C536 C 0.19302 0.75374 0.46107 0.0
O537 O 0.16945 0.75426 0.45643 0.0
N538 N 0.26131 0.82856 0.44972 0.0
C539 C 0.27388 0.84795 0.43935 0.0
C540 C 0.29957 0.84789 0.43543 0.0
C541 C 0.2794 0.81708 0.45202 0.0
N542 N 0.30295 0.82845 0.44342 0.0
C543 C 0.1912 0.8295 0.44073 0.0
C544 C 0.195 0.79365 0.42087 0.0
C545 C 0.18331 0.81229 0.41743 0.0
C546 C 0.18065 0.82965 0.42771 0.0
C547 C 0.20517 0.79404 0.43407 0.0
N548 N 0.20346 0.81204 0.4438 0.0
H549 H 0.19075 0.84451 0.44826 0.0
H550 H 0.21628 0.78138 0.43622 0.0
H551 H 0.26522 0.8615 0.43509 0.0
H552 H 0.27598 0.80159 0.46017 0.0
O553 O 0.24106 0.86377 0.46069 0.0
O554 O 0.2539 0.84016 0.47566 0.0
O555 O 0.21741 0.7783 0.4632 0.0
C556 C 0.25643 0.86535 0.47138 0.0
H557 H 0.16093 0.81394 0.50063 0.0
H558 H 0.31463 0.8612 0.42736 0.0
H559 H 0.19805 0.78028 0.41324 0.0
H560 H 0.17149 0.84415 0.42562 0.0
Co561 Co 0.20567 0.4077 0.45933 0.0
C562 C 0.21952 0.36542 0.47491 0.0
C563 C 0.24781 0.38557 0.45758 0.0
C564 C 0.25662 0.36753 0.46392 0.0
N565 N 0.22429 0.38409 0.46428 0.0
N566 N 0.23892 0.3548 0.47482 0.0
H567 H 0.20254 0.35986 0.48259 0.0
H568 H 0.25835 0.39941 0.44876 0.0
C569 C 0.25918 0.4716 0.45585 0.0
O570 O 0.24235 0.48162 0.45074 0.0
N571 N 0.18709 0.43141 0.45459 0.0
C572 C 0.16946 0.42792 0.44387 0.0
C573 C 0.16121 0.44961 0.4444 0.0
C574 C 0.18778 0.45395 0.46191 0.0
N575 N 0.17316 0.46627 0.45565 0.0
C576 C 0.19495 0.37004 0.43642 0.0
C577 C 0.22225 0.41434 0.41699 0.0
C578 C 0.20813 0.38424 0.41294 0.0
C579 C 0.19463 0.36194 0.42289 0.0
C580 C 0.2224 0.42148 0.43067 0.0
N581 N 0.20869 0.39947 0.44023 0.0
H582 H 0.18398 0.35255 0.44393 0.0
H583 H 0.2326 0.44468 0.43335 0.0
H584 H 0.16339 0.41117 0.43604 0.0
H585 H 0.2002 0.46218 0.47126 0.0
O586 O 0.16621 0.37441 0.4626 0.0
O587 O 0.19387 0.40804 0.47809 0.0
O588 O 0.24787 0.44405 0.45938 0.0
C589 C 0.16833 0.38459 0.47482 0.0
H590 H 0.27542 0.36486 0.461 0.0
H591 H 0.14857 0.45365 0.43675 0.0
H592 H 0.23298 0.43227 0.40962 0.0
H593 H 0.18316 0.3384 0.4202 0.0
H594 H 0.43392 0.39064 0.14329 0.0
H595 H 0.38167 0.37012 0.15027 0.0
H596 H 0.39683 0.45998 0.15523 0.0
H597 H 0.44908 0.48038 0.14781 0.0
H598 H 0.36899 0.37963 0.17545 0.0
H599 H 0.31351 0.41809 0.13891 0.0
H600 H 0.34824 0.41897 0.1351 0.0
H601 H 0.34826 0.44787 0.14534 0.0
C602 C 0.42564 0.40588 0.14539 0.0
C603 C 0.44522 0.43699 0.14496 0.0
C604 C 0.39591 0.39422 0.14943 0.0
C605 C 0.3852 0.41344 0.15326 0.0
C606 C 0.40432 0.44465 0.15207 0.0
H607 H 0.23987 0.39614 0.20253 0.0
H608 H 0.28275 0.41204 0.18745 0.0
C609 C 0.43413 0.45634 0.14784 0.0
C610 C 0.35574 0.40083 0.16025 0.0
H611 H 0.28841 0.39881 0.16011 0.0
C612 C 0.35122 0.38351 0.17197 0.0
C613 C 0.33266 0.40608 0.1558 0.0
C614 C 0.33573 0.42354 0.14303 0.0
C615 C 0.32466 0.37193 0.17954 0.0
C616 C 0.30167 0.37739 0.17517 0.0
C617 C 0.306 0.39449 0.16339 0.0
C618 C 0.27387 0.3671 0.18325 0.0
C619 C 0.32193 0.3549 0.19243 0.0
C620 C 0.25414 0.33644 0.18565 0.0
C621 C 0.22965 0.32723 0.19442 0.0
C622 C 0.22447 0.34855 0.20092 0.0
C623 C 0.24356 0.37914 0.19797 0.0
C624 C 0.26795 0.38829 0.18923 0.0
H625 H 0.34392 0.35825 0.19587 0.0
H626 H 0.31212 0.36192 0.20071 0.0
H627 H 0.30688 0.33057 0.19065 0.0
H628 H 0.25807 0.31967 0.18098 0.0
H629 H 0.2154 0.30354 0.19645 0.0
H630 H 0.63928 0.84854 0.21182 0.0
H631 H 0.60263 0.86397 0.20535 0.0
H632 H 0.67291 0.95664 0.206 0.0
H633 H 0.70892 0.94124 0.21259 0.0
H634 H 0.61925 0.94942 0.21553 0.0
H635 H 0.60421 0.89083 0.16619 0.0
H636 H 0.59478 0.86833 0.1813 0.0
H637 H 0.63309 0.89609 0.17801 0.0
C638 C 0.64646 0.87217 0.21101 0.0
C639 C 0.67682 0.89376 0.21265 0.0
C640 C 0.6257 0.88098 0.20715 0.0
C641 C 0.63514 0.91148 0.2049 0.0
C642 C 0.66503 0.93301 0.20761 0.0
H643 H 0.62271 0.04059 0.16114 0.0
H644 H 0.63008 1.00833 0.17702 0.0
C645 C 0.68561 0.92424 0.21138 0.0
C646 C 0.6154 0.92151 0.19852 0.0
H647 H 0.58576 0.92398 0.16784 0.0
C648 C 0.61126 0.94329 0.20522 0.0
C649 C 0.60502 0.91363 0.18501 0.0
C650 C 0.60956 0.8911 0.17711 0.0
C651 C 0.59876 0.9586 0.19853 0.0
C652 C 0.5902 0.95206 0.1848 0.0
C653 C 0.59224 0.92882 0.1784 0.0
C654 C 0.58406 0.97228 0.17634 0.0
C655 C 0.59612 0.98277 0.20596 0.0
C656 C 0.55562 0.9628 0.17076 0.0
C657 C 0.55129 0.9815 0.16175 0.0
C658 C 0.57553 0.00952 0.15797 0.0
C659 C 0.60372 0.01905 0.16383 0.0
C660 C 0.6079 1.00071 0.17294 0.0
H661 H 0.59639 0.98008 0.21713 0.0
H662 H 0.61534 1.00498 0.20317 0.0
H663 H 0.57519 0.98259 0.20308 0.0
H664 H 0.537 0.94081 0.17317 0.0
H665 H 0.52944 0.97361 0.15727 0.0
H666 H 0.03967 0.56715 0.15116 0.0
H667 H 0.06573 0.61029 0.16661 0.0
H668 H 1.00414 0.64046 0.15554 0.0
H669 H 0.97817 0.59768 0.14037 0.0
H670 H 0.0933 0.67231 0.15854 0.0
H671 H 1.00499 0.64471 0.19717 0.0
H672 H 1.00447 0.61699 0.18578 0.0
H673 H 0.99244 0.64244 0.18 0.0
C674 C 0.03145 0.58272 0.15226 0.0
C675 C 1.00699 0.57909 0.14449 0.0
C676 C 0.0464 0.60743 0.161 0.0
C677 C 0.03675 0.62854 0.16233 0.0
C678 C 1.0118 0.62435 0.15487 0.0
H679 H 0.09698 0.79973 0.20359 0.0
H680 H 0.07031 0.7543 0.18968 0.0
C681 C 0.99712 0.59998 0.14609 0.0
C682 C 0.0536 0.65601 0.17078 0.0
H683 H 0.04602 0.6948 0.1972 0.0
C684 C 0.08309 0.67709 0.16709 0.0
C685 C 0.04014 0.66249 0.18182 0.0
C686 C 1.00886 0.64037 0.18653 0.0
C687 C 0.09923 0.70467 0.1739 0.0
C688 C 0.0858 0.71118 0.18496 0.0
C689 C 0.05633 0.68999 0.1887 0.0
C690 C 0.1023 0.73933 0.19305 0.0
C691 C 0.13023 0.72696 0.16891 0.0
C692 C 0.12905 0.74608 0.19964 0.0
C693 C 0.14439 0.77204 0.20747 0.0
C694 C 0.13323 0.79192 0.20911 0.0
C695 C 0.10641 0.78519 0.20247 0.0
C696 C 0.09103 0.75909 0.19459 0.0
H697 H 0.13349 0.7228 0.15816 0.0
H698 H 0.13465 0.75033 0.16983 0.0
H699 H 0.14704 0.72478 0.17508 0.0
H700 H 0.13799 0.73102 0.19887 0.0
H701 H 0.16511 0.77648 0.21222 0.0
H702 H 0.42432 0.46481 0.86903 0.0
H703 H 0.39782 0.42251 0.85322 0.0
H704 H 0.47449 0.40995 0.8523 0.0
H705 H 0.50087 0.45184 0.86797 0.0
H706 H 0.43619 0.40746 0.82457 0.0
H707 H 0.37929 0.33221 0.86867 0.0
H708 H 0.38408 0.36943 0.86801 0.0
H709 H 0.41597 0.36482 0.87056 0.0
C710 C 0.43564 0.45334 0.86524 0.0
C711 C 0.46453 0.46141 0.86987 0.0
C712 C 0.42053 0.42923 0.85623 0.0
C713 C 0.43427 0.41318 0.8516 0.0
C714 C 0.46355 0.4221 0.85573 0.0
H715 H 0.39123 0.24118 0.82459 0.0
H716 H 0.41315 0.29283 0.83263 0.0
C717 C 0.47848 0.44588 0.86478 0.0
C718 C 0.41751 0.3853 0.84355 0.0
H719 H 0.37446 0.30948 0.84751 0.0
C720 C 0.42219 0.38603 0.82949 0.0
C721 C 0.39955 0.35745 0.85006 0.0
C722 C 0.39425 0.3556 0.86516 0.0
C723 C 0.41001 0.35937 0.82184 0.0
C724 C 0.39293 0.33146 0.82846 0.0
C725 C 0.38752 0.33092 0.84244 0.0
C726 C 0.38265 0.30231 0.8215 0.0
C727 C 0.41652 0.361 0.80687 0.0
C728 C 0.3589 0.2908 0.81215 0.0
C729 C 0.34645 0.26116 0.80745 0.0
C730 C 0.35746 0.24269 0.81215 0.0
C731 C 0.38238 0.25499 0.82083 0.0
C732 C 0.39481 0.28443 0.82545 0.0
H733 H 0.43241 0.38424 0.80346 0.0
H734 H 0.42603 0.34639 0.80435 0.0
H735 H 0.39533 0.3526 0.80112 0.0
H736 H 0.34896 0.30412 0.80908 0.0
H737 H 0.32695 0.25203 0.80094 0.0
H738 H 0.78337 0.14864 0.82623 0.0
H739 H 0.73605 0.11652 0.83789 0.0
H740 H 0.73215 0.03836 0.81991 0.0
H741 H 0.77968 0.0706 0.80799 0.0
H742 H 0.67884 0.06455 0.81906 0.0
H743 H 0.71609 0.03272 0.86613 0.0
H744 H 0.73959 0.06922 0.85865 0.0
H745 H 0.73436 0.03635 0.85001 0.0
C746 C 0.77258 0.12463 0.82478 0.0
C747 C 0.78515 0.1122 0.81606 0.0
C748 C 0.74563 0.10631 0.83151 0.0
C749 C 0.73066 0.07516 0.82972 0.0
C750 C 0.74351 0.0624 0.82144 0.0
H751 H 0.56004 0.96198 0.87339 0.0
H752 H 0.60482 0.97525 0.85955 0.0
C753 C 0.77068 0.0808 0.8147 0.0
C754 C 0.70063 0.05667 0.83586 0.0
H755 H 0.66584 0.0222 0.86542 0.0
C756 C 0.67583 0.05475 0.82909 0.0
C757 C 0.69685 0.04387 0.84889 0.0
C758 C 0.72301 0.04542 0.85643 0.0
C759 C 0.6475 0.04152 0.83528 0.0
C760 C 0.64404 0.03038 0.84867 0.0
C761 C 0.66852 0.03079 0.85516 0.0
C762 C 0.61627 0.02145 0.85658 0.0
C763 C 0.62166 0.04032 0.82756 0.0
C764 C 0.608 0.04299 0.85952 0.0
C765 C 0.58269 0.03553 0.86738 0.0
C766 C 0.56501 1.00632 0.87254 0.0
C767 C 0.57307 0.98457 0.86946 0.0
C768 C 0.59868 0.99216 0.86163 0.0
H769 H 0.62536 0.04109 0.81643 0.0
H770 H 0.60028 0.01969 0.83008 0.0
H771 H 0.61944 0.06003 0.83034 0.0
H772 H 0.62144 0.06581 0.85589 0.0
H773 H 0.57695 0.05272 0.86942 0.0
H774 H 1.00382 0.56232 0.882 0.0
H775 H 0.9704 0.58152 0.87548 0.0
H776 H 0.96164 0.54415 0.8355 0.0
H777 H 0.99398 0.52434 0.8421 0.0
H778 H 0.98442 0.62298 0.85587 0.0
H779 H 0.87658 0.52313 0.84245 0.0
H780 H 0.90497 0.52057 0.85212 0.0
H781 H 0.90743 0.52337 0.83391 0.0
C782 C 0.99389 0.55738 0.872 0.0
C783 C 1.00164 0.54201 0.86253 0.0
C784 C 0.97497 0.5685 0.86824 0.0
C785 C 0.96324 0.56407 0.85502 0.0
C786 C 0.96978 0.54736 0.84583 0.0
H787 H 0.90427 0.66143 0.80333 0.0
H788 H 0.91903 0.62584 0.81219 0.0
C789 C 0.9886 0.53633 0.84957 0.0
C790 C 0.94745 0.57994 0.85021 0.0
H791 H 0.88539 0.57027 0.83314 0.0
C792 C 0.96258 0.61136 0.85109 0.0
C793 C 0.91903 0.56486 0.84383 0.0
C794 C 0.90094 0.5311 0.84314 0.0
C795 C 0.95052 0.62811 0.84547 0.0
C796 C 0.92249 0.61309 0.83885 0.0
C797 C 0.90704 0.58169 0.8381 0.0
C798 C 0.90883 0.63007 0.83308 0.0
C799 C 0.96805 0.66188 0.84643 0.0
C800 C 0.89721 0.64318 0.84182 0.0
C801 C 0.88885 0.6633 0.8368 0.0
C802 C 0.89191 0.67073 0.82294 0.0
C803 C 0.90155 0.65596 0.81402 0.0
C804 C 0.91006 0.63578 0.81908 0.0
H805 H 0.9913 0.67027 0.85005 0.0
H806 H 0.96894 0.67213 0.8364 0.0
H807 H 0.95665 0.66952 0.85361 0.0
H808 H 0.89591 0.6389 0.85262 0.0
H809 H 0.88108 0.67404 0.84386 0.0
H810 H 0.80907 0.74763 0.83044 0.0
H811 H 0.76187 0.72427 0.84333 0.0
H812 H 0.72194 0.65364 0.81364 0.0
H813 H 0.76879 0.67638 0.80091 0.0
H814 H 0.70348 0.70997 0.83582 0.0
H815 H 0.70792 0.60747 0.84905 0.0
H816 H 0.73984 0.64076 0.84237 0.0
H817 H 0.71081 0.61507 0.83118 0.0
C818 C 0.79022 0.7271 0.82669 0.0
C819 C 0.79278 0.71371 0.81473 0.0
C820 C 0.76327 0.71383 0.83404 0.0
C821 C 0.73853 0.68692 0.82956 0.0
C822 C 0.74089 0.67401 0.81745 0.0
H823 H 0.55235 0.6053 0.85801 0.0
H824 H 0.59831 0.63045 0.8443 0.0
C825 C 0.76772 0.68714 0.81016 0.0
C826 C 0.71025 0.67206 0.83754 0.0
H827 H 0.66222 0.60655 0.85366 0.0
C828 C 0.69447 0.6874 0.83977 0.0
C829 C 0.69866 0.6427 0.84279 0.0
C830 C 0.7153 0.62561 0.84136 0.0
C831 C 0.66723 0.67402 0.84698 0.0
C832 C 0.65523 0.64433 0.85188 0.0
C833 C 0.67121 0.62916 0.84975 0.0
C834 C 0.62706 0.62907 0.85995 0.0
C835 C 0.6519 0.69203 0.84954 0.0
C836 C 0.62775 0.6192 0.87313 0.0
C837 C 0.60162 0.60461 0.88087 0.0
C838 C 0.57407 0.59946 0.87562 0.0
C839 C 0.57323 0.60901 0.86235 0.0
C840 C 0.59952 0.62361 0.85455 0.0
H841 H 0.66737 0.71643 0.84802 0.0
H842 H 0.63297 0.6848 0.84235 0.0
H843 H 0.64276 0.68832 0.86 0.0
H844 H 0.64867 0.62303 0.8775 0.0
H845 H 0.60313 0.59759 0.89106 0.0
H846 H 0.42557 0.01225 0.88612 0.0
H847 H 0.40217 0.0326 0.87131 0.0
H848 H 0.39379 0.9707 0.83988 0.0
H849 H 0.41706 0.94982 0.85481 0.0
H850 H 0.4204 0.05978 0.84622 0.0
H851 H 0.30831 0.95718 0.84308 0.0
H852 H 0.33585 0.96157 0.85554 0.0
H853 H 0.33938 0.95242 0.83832 0.0
C854 C 0.41879 1.00288 0.87606 0.0
C855 C 0.42312 0.97931 0.87167 0.0
C856 C 0.4054 0.0146 0.86759 0.0
C857 C 0.39584 1.00297 0.85454 0.0
C858 C 0.40049 0.97969 0.85 0.0
H859 H 0.34799 0.09541 0.79348 0.0
H860 H 0.37058 0.07029 0.80571 0.0
C861 C 0.41398 0.96792 0.85851 0.0
C862 C 0.3814 0.01573 0.84577 0.0
H863 H 0.31564 0.99904 0.83013 0.0
C864 C 0.39755 0.04646 0.84264 0.0
C865 C 0.35142 0.99843 0.84126 0.0
C866 C 0.33254 0.96562 0.84479 0.0
C867 C 0.38459 0.06037 0.83518 0.0
C868 C 0.35475 0.04302 0.83051 0.0
C869 C 0.33856 0.01227 0.83363 0.0
C870 C 0.33983 0.05664 0.82267 0.0
C871 C 0.40272 0.09375 0.83271 0.0
C872 C 0.31436 0.05649 0.82788 0.0
C873 C 0.30124 0.07073 0.82086 0.0
C874 C 0.31329 0.08528 0.80844 0.0
C875 C 0.33827 0.08462 0.80306 0.0
C876 C 0.35132 0.07037 0.81008 0.0
H877 H 0.4221 0.10484 0.83972 0.0
H878 H 0.41153 0.09788 0.82219 0.0
H879 H 0.38866 0.10438 0.83392 0.0
H880 H 0.30502 0.04593 0.83755 0.0
H881 H 0.282 0.07077 0.82527 0.0
H882 H 0.01584 0.41696 0.88447 0.0
H883 H 0.9934 0.36892 0.8727 0.0
H884 H 0.05929 0.40878 0.84088 0.0
H885 H 0.08228 0.45709 0.85275 0.0
H886 H 0.96826 0.35713 0.84756 0.0
H887 H 0.06105 0.33179 0.84927 0.0
H888 H 0.06032 0.36012 0.8598 0.0
H889 H 0.07147 0.368 0.84232 0.0
C890 C 0.02578 0.41552 0.87502 0.0
C891 C 0.05085 0.44085 0.86953 0.0
C892 C 1.01291 0.38799 0.86832 0.0
C893 C 0.02485 0.38513 0.856 0.0
C894 C 0.05007 0.41031 0.85052 0.0
H895 H 0.93249 0.25303 0.7942 0.0
H896 H 0.95912 0.29787 0.80811 0.0
C897 C 0.06306 0.43794 0.85726 0.0
C898 C 1.00958 0.35624 0.84854 0.0
H899 H 0.01962 0.30072 0.83502 0.0
C900 C 0.97947 0.34474 0.84489 0.0
C901 C 0.02409 0.33988 0.84521 0.0
C902 C 0.05593 0.35037 0.84945 0.0
C903 C 0.96368 0.31771 0.83774 0.0
C904 C 0.97851 0.30195 0.83394 0.0
C905 C 1.00839 0.31298 0.83787 0.0
C906 C 0.96353 0.27461 0.82544 0.0
C907 C 0.93117 0.30618 0.83436 0.0
C908 C 0.95786 0.24668 0.83045 0.0
C909 C 0.94259 0.22081 0.82248 0.0
C910 C 0.93299 0.22261 0.80935 0.0
C911 C 0.93937 0.25078 0.8043 0.0
C912 C 0.95453 0.27647 0.81225 0.0
H913 H 0.92111 0.31628 0.84099 0.0
H914 H 0.92943 0.31211 0.82371 0.0
H915 H 0.91789 0.28139 0.83537 0.0
H916 H 0.96479 0.24483 0.84061 0.0
H917 H 0.93813 0.19946 0.82662 0.0
H918 H 0.67123 0.76114 0.21511 0.0
H919 H 0.64998 0.71398 0.20269 0.0
H920 H 0.73303 0.74612 0.18082 0.0
H921 H 0.75429 0.79403 0.19304 0.0
H922 H 0.68559 0.71678 0.16431 0.0
H923 H 0.66763 0.64742 0.20996 0.0
H924 H 0.6494 0.66922 0.21148 0.0
H925 H 0.68964 0.68783 0.21027 0.0
C926 C 0.68499 0.75828 0.20761 0.0
C927 C 0.71452 0.78123 0.20511 0.0
C928 C 0.67288 0.73115 0.20061 0.0
C929 C 0.69017 0.72609 0.19112 0.0
C930 C 0.71937 0.74937 0.18823 0.0
H931 H 0.62662 0.54389 0.15977 0.0
H932 H 0.65549 0.5919 0.17169 0.0
C933 C 0.73146 0.77676 0.19516 0.0
C934 C 0.6774 0.69661 0.18413 0.0
H935 H 0.64085 0.62102 0.18998 0.0
C936 C 0.67611 0.69586 0.16992 0.0
C937 C 0.66561 0.66925 0.19141 0.0
C938 C 0.66843 0.66844 0.20661 0.0
C939 C 0.66214 0.66855 0.16283 0.0
C940 C 0.64836 0.64118 0.17017 0.0
C941 C 0.6509 0.64193 0.18435 0.0
C942 C 0.63041 0.61166 0.16335 0.0
C943 C 0.66246 0.66936 0.14754 0.0
C944 C 0.60612 0.60641 0.15508 0.0
C945 C 0.58981 0.5792 0.14824 0.0
C946 C 0.59704 0.55637 0.14972 0.0
C947 C 0.62049 0.56105 0.15847 0.0
C948 C 0.63706 0.5885 0.16523 0.0
H949 H 0.68176 0.69043 0.14363 0.0
H950 H 0.6636 0.65004 0.14321 0.0
H951 H 0.64167 0.66846 0.14387 0.0
H952 H 0.59987 0.62348 0.15382 0.0
H953 H 0.57167 0.57619 0.14168 0.0
H954 H 0.22711 0.93921 0.19011 0.0
H955 H 0.27448 0.96055 0.17732 0.0
H956 H 0.31905 0.95255 0.21271 0.0
H957 H 0.27227 0.93117 0.22539 0.0
H958 H 0.33028 0.01268 0.18291 0.0
H959 H 0.34154 0.91103 0.18343 0.0
H960 H 0.30678 0.90993 0.18741 0.0
H961 H 0.33583 0.92193 0.19995 0.0
C962 C 0.24697 0.94179 0.1951 0.0
C963 C 0.24578 0.93327 0.20874 0.0
C964 C 0.27405 0.95407 0.18781 0.0
C965 C 0.3003 0.95777 0.194 0.0
C966 C 0.29907 0.9494 0.20762 0.0
H967 H 0.48698 0.07143 0.16769 0.0
H968 H 0.43931 0.0491 0.18019 0.0
C969 C 0.2722 0.93726 0.21488 0.0
C970 C 0.32923 0.97088 0.18644 0.0
H971 H 0.38476 0.95666 0.17685 0.0
C972 C 0.34213 1.00039 0.18151 0.0
C973 C 0.34465 0.95481 0.18452 0.0
C974 C 0.3314 0.92258 0.18899 0.0
C975 C 0.37021 0.0144 0.17495 0.0
C976 C 0.38608 0.99865 0.17345 0.0
C977 C 0.37288 0.96894 0.17816 0.0
C978 C 0.41563 0.0119 0.16637 0.0
C979 C 0.38237 0.04575 0.16947 0.0
C980 C 0.41862 0.9979 0.15475 0.0
C981 C 0.4458 0.01043 0.1477 0.0
C982 C 0.47082 0.03723 0.15212 0.0
C983 C 0.46817 0.05079 0.16402 0.0
C984 C 0.44083 0.0382 0.17109 0.0
H985 H 0.36457 0.05184 0.1685 0.0
H986 H 0.39966 0.06195 0.17651 0.0
H987 H 0.39298 0.04817 0.1594 0.0
H988 H 0.39966 0.97753 0.15094 0.0
H989 H 0.44699 0.9993 0.1386 0.0
H990 H 0.08225 0.29835 0.18613 0.0
H991 H 0.06188 0.32482 0.17296 0.0
H992 H 0.06986 0.37843 0.20795 0.0
H993 H 0.09034 0.35264 0.221 0.0
H994 H 1.01053 0.32997 0.17788 0.0
H995 H 0.1133 0.4417 0.17863 0.0
H996 H 0.11347 0.40769 0.18297 0.0
H997 H 0.10144 0.42545 0.19518 0.0
C998 C 0.07982 0.31591 0.19096 0.0
C999 C 0.08815 0.32349 0.20459 0.0
C1000 C 0.06811 0.33096 0.18345 0.0
C1001 C 0.06477 0.35398 0.1894 0.0
C1002 C 0.0728 0.36126 0.20303 0.0
H1003 H 0.95477 0.42914 0.1601 0.0
H1004 H 0.9761 0.40425 0.17368 0.0
C1005 C 0.08441 0.34631 0.2105 0.0
C1006 C 0.05249 0.37023 0.18158 0.0
H1007 H 0.06849 0.44032 0.1715 0.0
C1008 C 0.02324 0.35407 0.17642 0.0
C1009 C 0.06913 0.40168 0.17958 0.0
C1010 C 0.10118 0.42014 0.18426 0.0
C1011 C 1.01004 0.36856 0.16953 0.0
C1012 C 0.02635 0.40015 0.16794 0.0
C1013 C 0.05578 0.4162 0.1729 0.0
C1014 C 0.01407 0.4168 0.1604 0.0
C1015 C 0.97898 0.34982 0.16377 0.0
C1016 C 0.02893 0.43327 0.14878 0.0
C1017 C 0.01701 0.44771 0.14113 0.0
C1018 C 0.98996 0.44621 0.14494 0.0
C1019 C 0.97567 0.43079 0.15691 0.0
C1020 C 0.98766 0.41625 0.16458 0.0
H1021 H 0.97249 0.32578 0.163 0.0
H1022 H 0.9626 0.35146 0.17051 0.0
H1023 H 0.97736 0.35799 0.15355 0.0
H1024 H 0.04942 0.43426 0.14538 0.0
H1025 H 0.02867 0.45942 0.13199 0.0
H1026 H 0.1057 0.74359 0.47108 0.0
H1027 H 0.05246 0.71484 0.47771 0.0
H1028 H 0.06241 0.7912 0.50012 0.0
H1029 H 0.11532 0.81956 0.49366 0.0
H1030 H 0.03464 0.70509 0.50654 0.0
H1031 H 0.98278 0.76073 0.47835 0.0
H1032 H 0.01707 0.76228 0.47291 0.0
H1033 H 0.01773 0.78626 0.48631 0.0
C1034 C 0.09616 0.75437 0.47709 0.0
C1035 C 0.11445 0.78377 0.48184 0.0
C1036 C 0.0659 0.73794 0.48094 0.0
C1037 C 0.05343 0.75099 0.48932 0.0
C1038 C 0.07141 0.78082 0.4935 0.0
H1039 H 0.91432 0.726 0.54123 0.0
H1040 H 0.95539 0.74075 0.52535 0.0
C1041 C 0.10161 0.79698 0.48985 0.0
C1042 C 0.02272 0.73301 0.49496 0.0
H1043 H 0.95679 0.73308 0.49824 0.0
C1044 C 0.01726 0.71062 0.50453 0.0
C1045 C 1.00023 0.74041 0.49233 0.0
C1046 C 1.00455 0.76356 0.48182 0.0
C1047 C 0.99073 0.69696 0.51225 0.0
C1048 C 0.96878 0.70545 0.5101 0.0
C1049 C 0.97359 0.72659 0.49994 0.0
C1050 C 0.9425 0.69551 0.51928 0.0
C1051 C 0.9874 0.67511 0.52327 0.0
C1052 C 0.92108 0.66505 0.52108 0.0
C1053 C 0.89757 0.65639 0.53042 0.0
C1054 C 0.89496 0.67807 0.53807 0.0
C1055 C 0.9159 0.70856 0.53583 0.0
C1056 C 0.93933 0.71711 0.5266 0.0
H1057 H 1.00882 0.67556 0.52537 0.0
H1058 H 0.97935 0.68011 0.53282 0.0
H1059 H 0.97069 0.65204 0.52007 0.0
H1060 H 0.92266 0.64795 0.51534 0.0
H1061 H 0.88188 0.63275 0.53184 0.0
H1062 H 0.22783 0.35063 0.50201 0.0
H1063 H 0.24063 0.32301 0.51864 0.0
H1064 H 0.27094 0.28854 0.48624 0.0
H1065 H 0.25794 0.3155 0.46969 0.0
H1066 H 0.22498 0.25316 0.51807 0.0
H1067 H 0.3444 0.34289 0.51419 0.0
H1068 H 0.31384 0.34951 0.51041 0.0
H1069 H 0.32405 0.32976 0.49853 0.0
C1070 C 0.23659 0.33662 0.49844 0.0
C1071 C 0.24226 0.3356 0.48454 0.0
C1072 C 0.24396 0.32094 0.50794 0.0
C1073 C 0.25698 0.30397 0.50366 0.0
C1074 C 0.26112 0.30167 0.48976 0.0
H1075 H 0.31568 0.18519 0.52934 0.0
H1076 H 0.28476 0.20658 0.52208 0.0
C1077 C 0.25384 0.31726 0.48032 0.0
C1078 C 0.26863 0.29047 0.51353 0.0
H1079 H 0.33441 0.29784 0.52511 0.0
C1080 C 0.24884 0.26309 0.51982 0.0
C1081 C 0.29974 0.30356 0.51585 0.0
C1082 C 0.32187 0.33317 0.50949 0.0
C1083 C 0.25958 0.24785 0.5279 0.0
C1084 C 0.29085 0.26023 0.52963 0.0
C1085 C 0.31044 0.28831 0.52384 0.0
C1086 C 0.30417 0.24354 0.53627 0.0
C1087 C 0.23742 0.21843 0.53436 0.0
C1088 C 0.32487 0.25663 0.54691 0.0
C1089 C 0.34228 0.24412 0.55114 0.0
C1090 C 0.33942 0.21849 0.54474 0.0
C1091 C 0.31753 0.20443 0.53468 0.0
C1092 C 0.29996 0.21674 0.53052 0.0
H1093 H 0.21516 0.21666 0.53567 0.0
H1094 H 0.23447 0.19977 0.52771 0.0
H1095 H 0.24547 0.21561 0.54439 0.0
H1096 H 0.32881 0.27751 0.55139 0.0
H1097 H 0.35968 0.2558 0.55861 0.0
H1098 H 0.63602 0.92219 0.47369 0.0
H1099 H 0.66865 0.97396 0.48092 0.0
H1100 H 0.74441 0.95983 0.48032 0.0
H1101 H 0.71144 0.90755 0.47303 0.0
H1102 H 0.70041 0.98374 0.50622 0.0
H1103 H 0.77601 0.04559 0.46308 0.0
H1104 H 0.74013 0.01204 0.4607 0.0
H1105 H 0.77117 1.00931 0.46721 0.0
C1106 C 0.65977 0.93036 0.47478 0.0
C1107 C 0.67122 0.91088 0.47291 0.0
C1108 C 0.67838 0.95992 0.4789 0.0
C1109 C 0.70892 0.97075 0.48118 0.0
C1110 C 0.72093 0.952 0.47846 0.0
H1111 H 0.84709 0.1304 0.52024 0.0
H1112 H 0.8183 0.0855 0.50665 0.0
C1113 C 0.70218 0.92223 0.47427 0.0
C1114 C 0.72689 1.00012 0.48804 0.0
H1115 H 0.78502 0.07161 0.48387 0.0
C1116 C 0.71886 1.00301 0.50132 0.0
C1117 C 0.75102 0.02508 0.48166 0.0
C1118 C 0.76015 0.02314 0.46734 0.0
C1119 C 0.7345 0.03007 0.50848 0.0
C1120 C 0.75838 0.05533 0.50205 0.0
C1121 C 0.76652 0.05238 0.48875 0.0
C1122 C 0.77608 0.08441 0.50926 0.0
C1123 C 0.72584 0.03095 0.52303 0.0
C1124 C 0.7622 0.0995 0.51492 0.0
C1125 C 0.77859 0.12504 0.52296 0.0
C1126 C 0.80927 0.1362 0.52538 0.0
C1127 C 0.82338 0.12207 0.51896 0.0
C1128 C 0.80698 0.09648 0.51103 0.0
H1129 H 0.71291 1.00809 0.52747 0.0
H1130 H 0.74593 0.0444 0.5294 0.0
H1131 H 0.7115 0.04138 0.52347 0.0
H1132 H 0.73851 0.09107 0.5134 0.0
H1133 H 0.76696 0.13531 0.52769 0.0
H1134 H 0.42003 0.13297 0.52321 0.0
H1135 H 0.39856 0.08733 0.50925 0.0
H1136 H 0.32641 0.0424 0.53799 0.0
H1137 H 0.34731 0.08764 0.5518 0.0
H1138 H 0.38615 0.02882 0.5159 0.0
H1139 H 0.28221 0.0294 0.50211 0.0
H1140 H 0.31432 0.06165 0.5093 0.0
H1141 H 0.2886 0.03144 0.52006 0.0
C1142 C 0.39949 0.11341 0.52649 0.0
C1143 C 0.38525 0.11405 0.53856 0.0
C1144 C 0.38731 0.08732 0.51853 0.0
C1145 C 0.36061 0.06156 0.52247 0.0
C1146 C 0.34666 0.06214 0.53459 0.0
H1147 H 0.28379 0.87549 0.49629 0.0
H1148 H 0.31099 0.92348 0.50833 0.0
C1149 C 0.35874 0.08807 0.54251 0.0
C1150 C 0.34725 0.03386 0.51407 0.0
H1151 H 0.28287 0.9842 0.49779 0.0
C1152 C 0.36366 0.01915 0.51184 0.0
C1153 C 0.31802 0.0214 0.50865 0.0
C1154 C 0.29984 0.03692 0.51002 0.0
C1155 C 0.35132 0.99194 0.50463 0.0
C1156 C 0.3216 0.97884 0.49971 0.0
C1157 C 0.30552 0.99398 0.50168 0.0
C1158 C 0.30674 0.9498 0.49224 0.0
C1159 C 0.3704 0.97772 0.5022 0.0
C1160 C 0.2949 0.94841 0.47928 0.0
C1161 C 0.2791 0.92105 0.47248 0.0
C1162 C 0.27473 0.89433 0.47847 0.0
C1163 C 0.28697 0.8957 0.49136 0.0
C1164 C 0.30268 0.92317 0.49822 0.0
H1165 H 0.39465 0.9943 0.50318 0.0
H1166 H 0.36471 0.95982 0.50985 0.0
H1167 H 0.36629 0.96743 0.49197 0.0
H1168 H 0.29763 0.96856 0.47445 0.0
H1169 H 0.27004 0.92085 0.46255 0.0
H1170 H 0.11631 0.33214 0.4713 0.0
H1171 H 0.06958 0.31365 0.48387 0.0
H1172 H 0.11238 0.38907 0.51103 0.0
H1173 H 0.15949 0.40808 0.49829 0.0
H1174 H 0.05516 0.29737 0.51057 0.0
H1175 H 0.03931 0.39356 0.49737 0.0
H1176 H 0.06646 0.38673 0.48894 0.0
H1177 H 0.07425 0.40345 0.50549 0.0
C1178 C 0.11596 0.34472 0.48003 0.0
C1179 C 0.14163 0.37166 0.48378 0.0
C1180 C 0.08915 0.33411 0.48719 0.0
C1181 C 0.08725 0.35024 0.49823 0.0
C1182 C 0.11315 0.37657 0.50237 0.0
H1183 H 0.94169 0.28083 0.55617 0.0
H1184 H 0.98976 0.30295 0.54451 0.0
C1185 C 0.14014 0.38721 0.49519 0.0
C1186 C 0.05799 0.33928 0.50522 0.0
H1187 H 1.00357 0.35697 0.51226 0.0
C1188 C 0.04394 0.31045 0.51097 0.0
C1189 C 0.04305 0.35611 0.5055 0.0
C1190 C 0.05633 0.38658 0.4989 0.0
C1191 C 0.01562 0.29815 0.51712 0.0
C1192 C 1.00105 0.31529 0.51773 0.0
C1193 C 0.01484 0.34395 0.51184 0.0
C1194 C 0.97187 0.30392 0.52482 0.0
C1195 C 1.0013 0.26668 0.52273 0.0
C1196 C 0.94584 0.2981 0.51772 0.0
C1197 C 0.91806 0.28544 0.52441 0.0
C1198 C 0.916 0.27858 0.53831 0.0
C1199 C 0.94235 0.28554 0.54543 0.0
C1200 C 0.96992 0.29813 0.53878 0.0
H1201 H 1.0115 0.25392 0.51839 0.0
H1202 H 1.00452 0.26773 0.53388 0.0
H1203 H 0.97686 0.2542 0.52066 0.0
H1204 H 0.9469 0.30258 0.50694 0.0
H1205 H 0.89819 0.28039 0.51866 0.0
H1206 H 0.73869 0.61811 0.52701 0.0
H1207 H 0.71422 0.64062 0.51407 0.0
H1208 H 0.75013 0.71555 0.54167 0.0
H1209 H 0.77348 0.69259 0.55489 0.0
H1210 H 0.69369 0.69746 0.53714 0.0
H1211 H 0.74871 0.70812 0.48753 0.0
H1212 H 0.72901 0.67023 0.49364 0.0
H1213 H 0.76092 0.69825 0.50283 0.0
C1214 C 0.74162 0.63954 0.53021 0.0
C1215 C 0.75812 0.65364 0.54193 0.0
C1216 C 0.72771 0.65249 0.52277 0.0
C1217 C 0.73062 0.68009 0.52674 0.0
C1218 C 0.74747 0.69428 0.53836 0.0
H1219 H 0.69357 0.7955 0.47627 0.0
H1220 H 0.71556 0.77189 0.48998 0.0
C1221 C 0.76093 0.68116 0.5459 0.0
C1222 C 0.71548 0.69395 0.51914 0.0
H1223 H 0.70856 0.71827 0.48782 0.0
C1224 C 0.69704 0.70208 0.52635 0.0
C1225 C 0.72001 0.70034 0.50509 0.0
C1226 C 0.74097 0.69407 0.49684 0.0
C1227 C 0.6832 0.71649 0.51997 0.0
C1228 C 0.68706 0.72212 0.50584 0.0
C1229 C 0.70537 0.71383 0.49863 0.0
C1230 C 0.67337 0.73757 0.49837 0.0
C1231 C 0.66543 0.72638 0.52855 0.0
C1232 C 0.64227 0.72656 0.49861 0.0
C1233 C 0.62967 0.74051 0.49095 0.0
C1234 C 0.64787 0.76531 0.48267 0.0
C1235 C 0.67895 0.77646 0.48257 0.0
C1236 C 0.69154 0.76286 0.49036 0.0
H1237 H 0.67206 0.72861 0.53939 0.0
H1238 H 0.66842 0.7482 0.525 0.0
H1239 H 0.6413 0.70933 0.5279 0.0
H1240 H 0.62758 0.70666 0.50439 0.0
H1241 H 0.6056 0.73111 0.49105 0.0
H1242 H 0.20367 0.3244 0.28382 0.0
H1243 H 0.21831 0.336 0.30761 0.0
H1244 H 0.12595 0.30232 0.31873 0.0
H1245 H 0.11097 0.28914 0.2952 0.0
H1246 H 0.21325 0.37441 0.32383 0.0
H1247 H 0.14955 0.26151 0.3466 0.0
H1248 H 0.15449 0.26724 0.32852 0.0
H1249 H 0.12539 0.27053 0.33714 0.0
C1250 C 0.18637 0.31877 0.29137 0.0
C1251 C 0.1561 0.30577 0.28754 0.0
C1252 C 0.19483 0.32567 0.30496 0.0
C1253 C 0.17321 0.31964 0.31503 0.0
C1254 C 0.14301 0.30654 0.31124 0.0
H1255 H 0.19371 0.40817 0.39148 0.0
H1256 H 0.1882 0.39297 0.36772 0.0
C1257 C 0.13452 0.29943 0.29771 0.0
C1258 C 0.18222 0.32861 0.32935 0.0
H1259 H 0.16563 0.30309 0.36195 0.0
C1260 C 0.20312 0.35872 0.33216 0.0
C1261 C 0.16949 0.30809 0.34025 0.0
C1262 C 0.14875 0.27499 0.33797 0.0
C1263 C 0.21067 0.3691 0.34554 0.0
C1264 C 0.19628 0.34902 0.35644 0.0
C1265 C 0.17635 0.31865 0.35363 0.0
C1266 C 0.20086 0.35909 0.37082 0.0
C1267 C 0.23413 0.40147 0.34781 0.0
C1268 C 0.20901 0.3446 0.3806 0.0
C1269 C 0.21172 0.35296 0.39425 0.0
C1270 C 0.20644 0.37607 0.39839 0.0
C1271 C 0.19848 0.39068 0.38857 0.0
C1272 C 0.19544 0.38208 0.37496 0.0
H1273 H 0.24979 0.41062 0.33907 0.0
H1274 H 0.22298 0.41507 0.34889 0.0
H1275 H 0.24731 0.40418 0.35713 0.0
H1276 H 0.21316 0.3267 0.37768 0.0
H1277 H 0.21802 0.34139 0.40157 0.0
H1278 H 0.72146 0.83053 0.29352 0.0
H1279 H 0.70968 0.83379 0.31715 0.0
H1280 H 0.6971 0.90852 0.30747 0.0
H1281 H 0.70799 0.90475 0.28352 0.0
H1282 H 0.73811 0.88073 0.33519 0.0
H1283 H 0.61946 0.85148 0.32765 0.0
H1284 H 0.64071 0.84569 0.31464 0.0
H1285 H 0.64719 0.88274 0.31801 0.0
C1286 C 0.71584 0.84747 0.29633 0.0
C1287 C 0.71526 0.86709 0.28654 0.0
C1288 C 0.70933 0.84945 0.3099 0.0
C1289 C 0.70206 0.87109 0.31409 0.0
C1290 C 0.7021 0.89126 0.30444 0.0
H1291 H 0.65235 0.88453 0.39899 0.0
H1292 H 0.66631 0.89748 0.37506 0.0
C1293 C 0.70865 0.88929 0.29078 0.0
C1294 C 0.69469 0.87216 0.32861 0.0
H1295 H 0.63701 0.85836 0.35011 0.0
C1296 C 0.71611 0.87622 0.33843 0.0
C1297 C 0.666 0.86637 0.33287 0.0
C1298 C 0.64186 0.8611 0.32279 0.0
C1299 C 0.70933 0.87358 0.35233 0.0
C1300 C 0.68028 0.86646 0.35656 0.0
C1301 C 0.65926 0.86384 0.34682 0.0
C1302 C 0.67061 0.85854 0.37088 0.0
C1303 C 0.73306 0.87765 0.36242 0.0
C1304 C 0.66774 0.83208 0.37634 0.0
C1305 C 0.65952 0.82448 0.38987 0.0
C1306 C 0.65411 0.84327 0.39837 0.0
C1307 C 0.65626 0.86949 0.39277 0.0
C1308 C 0.66436 0.87701 0.37912 0.0
H1309 H 0.75589 0.89016 0.35795 0.0
H1310 H 0.73215 0.88977 0.37155 0.0
H1311 H 0.72904 0.85528 0.36569 0.0
H1312 H 0.67192 0.81723 0.37009 0.0
H1313 H 0.65728 0.80369 0.39366 0.0
H1314 H 0.18221 0.91251 0.29983 0.0
H1315 H 0.18068 0.89695 0.3234 0.0
H1316 H 0.13544 0.80428 0.31102 0.0
H1317 H 0.1375 0.81968 0.28735 0.0
H1318 H 0.13086 0.85831 0.33997 0.0
H1319 H 0.20866 0.81398 0.33235 0.0
H1320 H 0.20484 0.83794 0.32009 0.0
H1321 H 0.17669 0.79905 0.32131 0.0
C1322 C 0.17204 0.88881 0.3021 0.0
C1323 C 0.16017 0.86737 0.29166 0.0
C1324 C 0.17103 0.87995 0.31559 0.0
C1325 C 0.15834 0.84949 0.31896 0.0
C1326 C 0.14576 0.82794 0.30864 0.0
H1327 H 0.15662 0.76863 0.39783 0.0
H1328 H 0.14761 0.77535 0.374 0.0
C1329 C 0.14667 0.83678 0.29512 0.0
C1330 C 0.15866 0.84053 0.33327 0.0
H1331 H 0.18886 0.80975 0.3543 0.0
C1332 C 0.14343 0.84758 0.3431 0.0
C1333 C 0.17494 0.82637 0.33733 0.0
C1334 C 0.19244 0.81904 0.32727 0.0
C1335 C 0.14422 0.84107 0.35689 0.0
C1336 C 0.16123 0.82772 0.36101 0.0
C1337 C 0.17583 0.81996 0.35114 0.0
C1338 C 0.16562 0.82327 0.37557 0.0
C1339 C 0.12667 0.84844 0.3669 0.0
C1340 C 0.17906 0.84797 0.38433 0.0
C1341 C 0.1843 0.84424 0.3979 0.0
C1342 C 0.17639 0.81568 0.40306 0.0
C1343 C 0.16307 0.79093 0.39422 0.0
C1344 C 0.15781 0.79472 0.38061 0.0
H1345 H 0.10789 0.84947 0.36189 0.0
H1346 H 0.11745 0.83161 0.3752 0.0
H1347 H 0.1417 0.87074 0.37143 0.0
H1348 H 0.18612 0.87035 0.38061 0.0
H1349 H 0.19534 0.86395 0.40426 0.0
H1350 H 0.33138 0.16127 0.61791 0.0
H1351 H 0.31943 0.16206 0.64182 0.0
H1352 H 0.40862 0.23578 0.64873 0.0
H1353 H 0.42089 0.23498 0.62477 0.0
H1354 H 0.34877 0.15239 0.66332 0.0
H1355 H 0.35593 0.26335 0.66819 0.0
H1356 H 0.35267 0.24566 0.65198 0.0
H1357 H 0.38804 0.26405 0.66063 0.0
C1358 C 0.34848 0.17779 0.62447 0.0
C1359 C 0.37722 0.19793 0.61939 0.0
C1360 C 0.34153 0.17829 0.63815 0.0
C1361 C 0.36302 0.19908 0.6471 0.0
C1362 C 0.39146 0.21987 0.642 0.0
H1363 H 0.36178 0.21801 0.73536 0.0
H1364 H 0.37505 0.22501 0.71124 0.0
C1365 C 0.39845 0.21939 0.62828 0.0
C1366 C 0.35617 0.19734 0.66187 0.0
H1367 H 0.34927 0.23603 0.68851 0.0
C1368 C 0.3488 0.17067 0.66881 0.0
C1369 C 0.35648 0.22127 0.66908 0.0
C1370 C 0.36346 0.25015 0.66211 0.0
C1371 C 0.34184 0.16727 0.68271 0.0
C1372 C 0.34155 0.19095 0.68989 0.0
C1373 C 0.34935 0.21783 0.68301 0.0
C1374 C 0.33285 0.18791 0.70448 0.0
C1375 C 0.33541 0.13846 0.68963 0.0
C1376 C 0.30444 0.16525 0.70872 0.0
C1377 C 0.29687 0.161 0.72249 0.0
C1378 C 0.31743 0.17955 0.73241 0.0
C1379 C 0.34551 0.203 0.72807 0.0
C1380 C 0.35309 0.20718 0.71426 0.0
H1381 H 0.34478 0.12649 0.68385 0.0
H1382 H 0.3448 0.14277 0.70004 0.0
H1383 H 0.31081 0.1234 0.69035 0.0
H1384 H 0.2882 0.15044 0.70136 0.0
H1385 H 0.27519 0.14249 0.72536 0.0
H1386 H 0.8249 0.10246 0.72449 0.0
H1387 H 0.81409 0.10533 0.70042 0.0
H1388 H 0.86688 0.20178 0.70199 0.0
H1389 H 0.87787 0.19916 0.72589 0.0
H1390 H 0.7881 0.14412 0.68862 0.0
H1391 H 0.90049 0.1703 0.66981 0.0
H1392 H 0.88522 0.1512 0.6857 0.0
H1393 H 0.89973 0.19088 0.68441 0.0
C1394 C 0.83426 0.12423 0.71966 0.0
C1395 C 0.85212 0.15058 0.72708 0.0
C1396 C 0.82794 0.12584 0.70598 0.0
C1397 C 0.83974 0.15377 0.69949 0.0
C1398 C 0.8576 0.18004 0.70685 0.0
H1399 H 0.81199 0.22155 0.62434 0.0
H1400 H 0.81192 0.20735 0.64805 0.0
C1401 C 0.86372 0.17849 0.72051 0.0
C1402 C 0.83386 0.1558 0.68497 0.0
H1403 H 0.86848 0.17529 0.65414 0.0
C1404 C 0.80552 0.15067 0.68103 0.0
C1405 C 0.85664 0.16421 0.67515 0.0
C1406 C 0.88723 0.16931 0.67888 0.0
C1407 C 0.79963 0.15457 0.66749 0.0
C1408 C 0.82276 0.16395 0.65774 0.0
C1409 C 0.85082 0.16821 0.66165 0.0
C1410 C 0.81875 0.17008 0.64344 0.0
C1411 C 0.76881 0.14866 0.66369 0.0
C1412 C 0.8223 0.15366 0.63299 0.0
C1413 C 0.82224 0.16163 0.61946 0.0
C1414 C 0.81895 0.18642 0.61609 0.0
C1415 C 0.81421 0.20213 0.62657 0.0
C1416 C 0.81419 0.19406 0.64013 0.0
H1417 H 0.75186 0.13496 0.67149 0.0
H1418 H 0.76922 0.17036 0.66273 0.0
H1419 H 0.76176 0.13695 0.65379 0.0
H1420 H 0.82585 0.13508 0.63533 0.0
H1421 H 0.82549 0.14878 0.61163 0.0
H1422 H 0.88076 0.66653 0.74102 0.0
H1423 H 0.87597 0.6507 0.71725 0.0
H1424 H 0.86375 0.72466 0.70546 0.0
H1425 H 0.86912 0.74082 0.72901 0.0
H1426 H 0.83047 0.63223 0.70029 0.0
H1427 H 0.9256 0.73406 0.67841 0.0
H1428 H 0.92072 0.72775 0.69646 0.0
H1429 H 0.90103 0.74318 0.68746 0.0
C1430 C 0.87735 0.67953 0.73332 0.0
C1431 C 0.87577 0.70518 0.73688 0.0
C1432 C 0.87464 0.67051 0.71974 0.0
C1433 C 0.87018 0.68687 0.70947 0.0
C1434 C 0.86824 0.71224 0.71307 0.0
H1435 H 0.7822 0.62584 0.63285 0.0
H1436 H 0.79657 0.63736 0.65652 0.0
C1437 C 0.87124 0.72143 0.72658 0.0
C1438 C 0.86583 0.67664 0.6951 0.0
H1439 H 0.88741 0.70149 0.66266 0.0
C1440 C 0.84322 0.64727 0.69208 0.0
C1441 C 0.88283 0.69593 0.68434 0.0
C1442 C 0.90911 0.72685 0.68685 0.0
C1443 C 0.83621 0.63719 0.67863 0.0
C1444 C 0.85161 0.65729 0.66784 0.0
C1445 C 0.8752 0.68616 0.67088 0.0
C1446 C 0.84283 0.64936 0.65339 0.0
C1447 C 0.81238 0.60505 0.67616 0.0
C1448 C 0.8642 0.65309 0.64355 0.0
C1449 C 0.8562 0.64725 0.62985 0.0
C1450 C 0.82662 0.63758 0.62567 0.0
C1451 C 0.80526 0.63359 0.6356 0.0
C1452 C 0.81334 0.63969 0.64924 0.0
H1453 H 0.81075 0.59044 0.6848 0.0
H1454 H 0.79033 0.60377 0.67512 0.0
H1455 H 0.81692 0.59608 0.66677 0.0
H1456 H 0.88718 0.6608 0.64646 0.0
H1457 H 0.8734 0.65106 0.62252 0.0
H1458 H 0.01944 0.4905 0.05922 0.0
H1459 H 0.03255 0.50014 0.03525 0.0
H1460 H 0.95642 0.51194 0.02837 0.0
H1461 H 0.94392 0.50376 0.05249 0.0
H1462 H 1.00088 0.46908 0.0134 0.0
H1463 H 0.02207 0.58573 0.00997 0.0
H1464 H 0.0185 0.56722 0.02598 0.0
H1465 H 0.98565 0.55949 0.01647 0.0
C1466 C 1.00576 0.49573 0.0527 0.0
C1467 C 0.98072 0.49658 0.0579 0.0
C1468 C 1.01317 0.50099 0.03894 0.0
C1469 C 0.99579 0.50726 0.03 0.0
C1470 C 0.9706 0.50783 0.03509 0.0
H1471 H 1.00265 0.52847 0.94176 0.0
H1472 H 0.98829 0.52307 0.96578 0.0
C1473 C 0.96323 0.50272 0.04889 0.0
C1474 C 1.00353 0.51203 0.0153 0.0
H1475 H 0.02155 0.5621 0.98921 0.0
C1476 C 1.00549 0.48948 1.00815 0.0
C1477 C 1.00948 0.53863 1.00839 0.0
C1478 C 1.00911 0.56429 0.01561 0.0
C1479 C 1.01307 0.49269 0.99432 0.0
C1480 C 0.01913 0.51928 0.98745 0.0
C1481 C 0.01685 0.54172 0.99451 0.0
C1482 C 0.02852 0.52431 0.97299 0.0
C1483 C 0.01428 0.46746 0.98711 0.0
C1484 C 0.05616 0.52745 0.96913 0.0
C1485 C 0.06445 0.5306 0.95546 0.0
C1486 C 0.04524 0.53066 0.94533 0.0
C1487 C 0.01785 0.52827 0.94928 0.0
C1488 C 1.00966 0.5253 0.963 0.0
H1489 H 1.00278 0.44616 0.99295 0.0
H1490 H 1.00382 0.46368 0.97693 0.0
H1491 H 0.03802 0.47353 0.9857 0.0
H1492 H 0.07117 0.52701 0.9767 0.0
H1493 H 0.08551 0.53198 0.9528 0.0
H1494 H 0.48295 0.5035 0.07347 0.0
H1495 H 0.47338 0.50666 0.04943 0.0
H1496 H 0.50292 0.44373 0.03998 0.0
H1497 H 0.51277 0.4406 0.06405 0.0
H1498 H 0.51952 0.5277 0.03035 0.0
H1499 H 0.42717 0.41446 0.01641 0.0
H1500 H 0.43495 0.4274 0.03375 0.0
H1501 H 0.45771 0.41485 0.02539 0.0
C1502 C 0.48698 0.48995 0.06631 0.0
C1503 C 0.49888 0.47199 0.07067 0.0
C1504 C 0.4814 0.49172 0.05257 0.0
C1505 C 0.48734 0.47539 0.0429 0.0
C1506 C 0.49769 0.45616 0.04728 0.0
H1507 H 0.5351 0.52074 0.95879 0.0
H1508 H 0.53164 0.50649 0.98263 0.0
C1509 C 0.5033 0.45438 0.06105 0.0
C1510 C 0.48595 0.48116 0.02823 0.0
H1511 H 0.45294 0.44816 0.99819 0.0
C1512 C 0.50482 0.51033 0.02334 0.0
C1513 C 0.46669 0.45851 0.01911 0.0
C1514 C 0.44526 0.42708 0.0239 0.0
C1515 C 0.50536 0.51736 0.00956 0.0
C1516 C 0.48672 0.49458 1.00038 0.0
C1517 C 0.46736 0.46551 1.00526 0.0
C1518 C 0.48753 0.50079 0.98565 0.0
C1519 C 0.52586 0.54917 1.0049 0.0
C1520 C 0.46354 0.50165 0.97937 0.0
C1521 C 0.46555 0.51014 0.96573 0.0
C1522 C 0.49157 0.51781 0.95813 0.0
C1523 C 0.51503 0.51573 0.96439 0.0
C1524 C 0.51304 0.50737 0.978 0.0
H1525 H 0.53426 0.56517 0.01352 0.0
H1526 H 0.54545 0.55041 0.99958 0.0
H1527 H 0.51414 0.55634 0.99766 0.0
H1528 H 0.44366 0.49666 0.98513 0.0
H1529 H 0.44713 0.51164 0.96129 0.0
H1530 H 0.54576 1.00427 0.07144 0.0
H1531 H 0.53966 0.99019 0.04745 0.0
H1532 H 0.53261 0.06806 0.03753 0.0
H1533 H 0.53828 0.0821 0.06142 0.0
H1534 H 0.49086 0.97773 0.03075 0.0
H1535 H 0.5953 0.07341 0.0104 0.0
H1536 H 0.58974 0.06441 0.02825 0.0
H1537 H 0.57343 0.08453 0.02045 0.0
C1538 C 0.54294 0.01844 0.06416 0.0
C1539 C 0.54268 0.04444 0.0684 0.0
C1540 C 0.53959 0.01041 0.05044 0.0
C1541 C 0.53615 0.02831 0.04066 0.0
C1542 C 0.53598 0.05429 0.04484 0.0
H1543 H 0.49521 0.02168 0.95582 0.0
H1544 H 0.50814 0.03399 0.97967 0.0
C1545 C 0.53928 0.06231 0.05853 0.0
C1546 C 0.53119 0.01911 0.02619 0.0
H1547 H 0.55814 0.04295 0.9942 0.0
C1548 C 0.50574 0.9918 0.02275 0.0
C1549 C 0.55059 0.03753 0.01578 0.0
C1550 C 0.57895 0.06648 0.01888 0.0
C1551 C 0.49857 0.98293 0.00916 0.0
C1552 C 0.51771 1.00162 0.99873 0.0
C1553 C 0.54347 0.02866 1.00219 0.0
C1554 C 0.5107 0.99416 0.98415 0.0
C1555 C 0.46996 0.9542 1.00607 0.0
C1556 C 0.50835 0.9679 0.97864 0.0
C1557 C 0.50066 0.96062 0.965 0.0
C1558 C 0.49529 0.97954 0.95657 0.0
C1559 C 0.49854 1.00625 0.96206 0.0
C1560 C 0.50618 0.01347 0.97568 0.0
H1561 H 0.45445 0.94623 0.01489 0.0
H1562 H 0.45821 0.95719 0.99729 0.0
H1563 H 0.47539 0.93647 1.00346 0.0
H1564 H 0.5123 0.95294 0.98492 0.0
H1565 H 0.4983 0.93986 0.96113 0.0
H1566 H 0.22973 0.05094 0.2264 0.0
H1567 H 0.21783 0.09111 0.22409 0.0
H1568 H 0.1236 0.02636 0.2264 0.0
H1569 H 0.13541 0.9858 0.2288 0.0
H1570 H 0.13965 0.07408 0.20646 0.0
H1571 H 0.18774 0.11753 0.25736 0.0
H1572 H 0.21241 0.11332 0.24583 0.0
H1573 H 0.17885 0.08071 0.25161 0.0
C1574 C 0.20644 0.04514 0.2264 0.0
C1575 C 0.18354 0.01511 0.22801 0.0
C1576 C 0.19968 0.06818 0.22504 0.0
C1577 C 0.16986 0.06187 0.22531 0.0
C1578 C 0.1468 0.03179 0.2262 0.0
H1579 H 0.10239 0.17804 0.24793 0.0
H1580 H 0.11487 0.13871 0.24483 0.0
C1581 C 0.15357 1.00861 0.22754 0.0
C1582 C 0.16301 0.08682 0.22552 0.0
H1583 H 0.17249 0.14637 0.24459 0.0
C1584 C 0.14686 0.08994 0.21477 0.0
C1585 C 0.17223 0.1074 0.23642 0.0
C1586 C 0.18854 0.10455 0.24853 0.0
C1587 C 0.13982 0.11317 0.21464 0.0
C1588 C 0.14934 0.1339 0.22549 0.0
C1589 C 0.16546 0.1307 0.2362 0.0
C1590 C 0.14088 0.15766 0.22658 0.0
C1591 C 0.12155 0.1149 0.20311 0.0
C1592 C 0.1513 0.18165 0.21731 0.0
C1593 C 0.1442 0.20456 0.21908 0.0
C1594 C 0.12664 0.20386 0.23017 0.0
C1595 C 0.11608 0.17957 0.23929 0.0
C1596 C 0.12317 0.1569 0.23754 0.0
H1597 H 0.11146 0.09426 0.19681 0.0
H1598 H 0.10337 0.1185 0.20703 0.0
H1599 H 0.13619 0.13424 0.19651 0.0
H1600 H 0.16538 0.18297 0.20888 0.0
H1601 H 0.15274 0.22292 0.21189 0.0
H1602 H 0.85516 0.93392 0.25317 0.0
H1603 H 0.89423 0.98637 0.25051 0.0
H1604 H 0.85387 0.99172 0.21311 0.0
H1605 H 0.8149 0.93915 0.21556 0.0
H1606 H 0.9165 0.01942 0.21175 0.0
H1607 H 0.87931 0.05655 0.25691 0.0
H1608 H 0.88736 0.02698 0.26028 0.0
H1609 H 0.85674 0.02012 0.24931 0.0
C1610 C 0.85463 0.94618 0.24434 0.0
C1611 C 0.83174 0.93241 0.23464 0.0
C1612 C 0.87691 0.9762 0.24287 0.0
C1613 C 0.87661 0.99305 0.23174 0.0
C1614 C 0.8544 0.97913 0.22181 0.0
H1615 H 0.97068 0.18745 0.22841 0.0
H1616 H 0.93316 0.13411 0.22757 0.0
C1617 C 0.83214 0.94909 0.22325 0.0
C1618 C 0.89905 0.02539 0.2306 0.0
H1619 H 0.9249 0.09254 0.24666 0.0
C1620 C 0.91833 0.03547 0.21935 0.0
C1621 C 0.90103 0.0463 0.24043 0.0
C1622 C 0.87985 0.03707 0.25235 0.0
C1623 C 0.93997 0.0659 0.21778 0.0
C1624 C 0.9426 0.08664 0.22785 0.0
C1625 C 0.92297 0.07658 0.23899 0.0
C1626 C 0.9655 0.11894 0.22714 0.0
C1627 C 0.95945 0.07562 0.20527 0.0
C1628 C 0.99615 0.12814 0.22707 0.0
C1629 C 0.01763 0.15863 0.22753 0.0
C1630 C 1.00884 0.18047 0.22821 0.0
C1631 C 0.97814 0.17118 0.22802 0.0
C1632 C 0.95669 0.14072 0.2275 0.0
H1633 H 0.94919 0.05905 0.19694 0.0
H1634 H 0.96357 0.09778 0.2016 0.0
H1635 H 0.98137 0.0776 0.20774 0.0
H1636 H 1.00347 0.11173 0.22713 0.0
H1637 H 0.04107 0.16503 0.2279 0.0
H1638 H 0.86046 0.87239 0.22932 0.0
H1639 H 0.91052 0.87918 0.22676 0.0
H1640 H 0.8782 0.78853 0.2405 0.0
H1641 H 0.82775 0.78157 0.24314 0.0
H1642 H 0.92921 0.82724 0.25308 0.0
H1643 H 0.94503 0.84946 0.19802 0.0
H1644 H 0.93468 0.87398 0.20629 0.0
H1645 H 0.90884 0.83418 0.20608 0.0
C1646 C 0.86377 0.85365 0.23156 0.0
C1647 C 0.83991 0.82629 0.23631 0.0
C1648 C 0.89249 0.85756 0.23005 0.0
C1649 C 0.8981 0.83416 0.23311 0.0
C1650 C 0.8744 0.80685 0.23794 0.0
H1651 H 0.07838 0.85706 0.21854 0.0
H1652 H 0.02394 0.83722 0.21715 0.0
C1653 C 0.84559 0.80293 0.23951 0.0
C1654 C 0.92912 0.83909 0.23214 0.0
H1655 H 0.99008 0.86578 0.21115 0.0
C1656 C 0.94233 0.83522 0.24385 0.0
C1657 C 0.94624 0.84902 0.22004 0.0
C1658 C 0.93286 0.85159 0.20686 0.0
C1659 C 0.97251 0.84256 0.24399 0.0
C1660 C 0.99022 0.85464 0.23218 0.0
C1661 C 0.97664 0.85693 0.22025 0.0
C1662 C 0.02321 0.86706 0.2324 0.0
C1663 C 0.98529 0.8377 0.25687 0.0
C1664 C 0.04093 0.89095 0.24109 0.0
C1665 C 0.07176 0.90226 0.2419 0.0
C1666 C 0.08581 0.89012 0.23394 0.0
C1667 C 0.06826 0.86687 0.22482 0.0
C1668 C 0.03717 0.85548 0.22404 0.0
H1669 H 0.96748 0.82014 0.26334 0.0
H1670 H 1.00233 0.83106 0.25465 0.0
H1671 H 0.99619 0.85887 0.26276 0.0
H1672 H 0.03083 0.90079 0.24738 0.0
H1673 H 0.08455 0.92042 0.2489 0.0
H1674 H 0.99357 0.15991 0.80251 0.0
H1675 H 0.0397 0.15846 0.80699 0.0
H1676 H 0.05206 0.15332 0.76402 0.0
H1677 H 1.0066 0.1557 0.75954 0.0
H1678 H 0.05885 0.1197 0.80189 0.0
H1679 H 0.13058 0.22496 0.77388 0.0
H1680 H 0.09189 0.21244 0.77775 0.0
H1681 H 0.10157 0.19746 0.76334 0.0
C1682 C 1.00605 0.15822 0.79405 0.0
C1683 C 0.99675 0.15831 0.78067 0.0
C1684 C 0.03244 0.15748 0.79661 0.0
C1685 C 0.04984 0.1566 0.78582 0.0
C1686 C 0.03963 0.15504 0.77249 0.0
H1687 H 0.19169 0.11201 0.78936 0.0
H1688 H 0.14367 0.11073 0.78858 0.0
C1689 C 1.01358 0.15625 0.76994 0.0
C1690 C 0.07888 0.15779 0.78844 0.0
H1691 H 0.15286 0.19543 0.77961 0.0
C1692 C 0.07947 0.1364 0.7971 0.0
C1693 C 0.10597 0.17998 0.78245 0.0
C1694 C 0.10759 0.20519 0.77397 0.0
C1695 C 0.10619 0.13606 0.79963 0.0
C1696 C 0.13293 0.15718 0.79299 0.0
C1697 C 0.1324 0.17901 0.78461 0.0
C1698 C 0.16173 0.15717 0.79444 0.0
C1699 C 0.1055 0.11341 0.80957 0.0
C1700 C 0.18816 0.18382 0.79771 0.0
C1701 C 0.21578 0.18478 0.79784 0.0
C1702 C 0.21755 0.15902 0.79484 0.0
C1703 C 0.19103 0.13214 0.79191 0.0
C1704 C 0.16346 0.13133 0.79155 0.0
H1705 H 0.08689 0.10632 0.81697 0.0
H1706 H 0.10177 0.09314 0.80397 0.0
H1707 H 0.12688 0.12251 0.81524 0.0
H1708 H 0.18751 0.2041 0.79995 0.0
H1709 H 0.2358 0.2058 0.80015 0.0
H1710 H 0.89357 0.0729 0.79344 0.0
H1711 H 0.89012 0.02385 0.79195 0.0
H1712 H 0.80155 0.9862 0.77494 0.0
H1713 H 0.80458 0.03511 0.77653 0.0
H1714 H 0.80675 0.94991 0.79501 0.0
H1715 H 0.89654 0.98642 0.75625 0.0
H1716 H 0.90738 1.00913 0.77126 0.0
H1717 H 0.87892 1.00819 0.7604 0.0
C1718 C 0.87324 0.05418 0.78947 0.0
C1719 C 0.84941 0.05801 0.78503 0.0
C1720 C 0.87141 0.02619 0.78853 0.0
C1721 C 0.84582 1.00154 0.78309 0.0
C1722 C 0.82159 1.00501 0.77908 0.0
H1723 H 0.79609 0.81432 0.76879 0.0
H1724 H 0.79655 0.86212 0.76972 0.0
C1725 C 0.82339 0.03299 0.78 0.0
C1726 C 0.84442 0.97219 0.78148 0.0
H1727 H 0.87872 0.9381 0.76584 0.0
C1728 C 0.82235 0.94724 0.78857 0.0
C1729 C 0.86476 0.96879 0.77304 0.0
C1730 C 0.88808 0.99446 0.7647 0.0
C1731 C 0.8206 0.91913 0.78776 0.0
C1732 C 0.84114 0.91581 0.77942 0.0
C1733 C 0.86301 0.94071 0.77223 0.0
C1734 C 0.84097 0.88695 0.77836 0.0
C1735 C 0.79736 0.89347 0.79613 0.0
C1736 C 0.86616 0.88527 0.78246 0.0
C1737 C 0.86609 0.85811 0.7818 0.0
C1738 C 0.84084 0.83201 0.77697 0.0
C1739 C 0.81592 0.83395 0.77252 0.0
C1740 C 0.81601 0.86119 0.77319 0.0
H1741 H 0.78822 0.90141 0.80433 0.0
H1742 H 0.77849 0.8782 0.7895 0.0
H1743 H 0.80691 0.88039 0.80076 0.0
H1744 H 0.88578 0.90494 0.78635 0.0
H1745 H 0.88588 0.8576 0.78507 0.0
H1746 H 0.16549 0.05129 0.78492 0.0
H1747 H 0.11569 1.00746 0.78839 0.0
H1748 H 0.14677 0.95028 0.77188 0.0
H1749 H 0.19672 0.99399 0.76846 0.0
H1750 H 0.07632 0.9607 0.76776 0.0
H1751 H 0.11212 0.91729 0.8113 0.0
H1752 H 0.13281 0.956 0.80589 0.0
H1753 H 0.13528 0.92762 0.79636 0.0
C1754 C 0.16173 0.02938 0.78204 0.0
C1755 C 0.18513 0.02609 0.7765 0.0
C1756 C 0.13324 1.00441 0.78396 0.0
C1757 C 0.12768 0.97565 0.78052 0.0
C1758 C 0.15072 0.97231 0.7747 0.0
H1759 H 0.98563 0.79382 0.78869 0.0
H1760 H 0.03212 0.8411 0.78577 0.0
C1761 C 0.17917 0.99731 0.77266 0.0
C1762 C 0.09798 0.94902 0.78329 0.0
H1763 H 0.06303 0.8863 0.80308 0.0
C1764 C 0.07326 0.94446 0.77552 0.0
C1765 C 0.09418 0.92803 0.79345 0.0
C1766 C 0.11988 0.93242 0.80233 0.0
C1767 C 0.04494 0.91877 0.77732 0.0
C1768 C 0.04117 0.89753 0.78741 0.0
C1769 C 0.06587 0.90255 0.79536 0.0
C1770 C 1.01238 0.86901 0.78937 0.0
C1771 C 0.0197 0.91409 0.76804 0.0
C1772 C 0.98567 0.86882 0.79257 0.0
C1773 C 0.95876 0.8416 0.79416 0.0
C1774 C 0.9582 0.81411 0.79275 0.0
C1775 C 0.98514 0.8145 0.78985 0.0
C1776 C 1.01184 0.84158 0.78818 0.0
H1777 H 0.02807 0.92833 0.75881 0.0
H1778 H 1.00633 0.89026 0.76488 0.0
H1779 H 1.00463 0.92016 0.77349 0.0
H1780 H 0.98562 0.88969 0.79387 0.0
H1781 H 0.93844 0.84211 0.79644 0.0
H1782 H 0.8246 0.55666 0.55069 0.0
H1783 H 0.83423 0.51517 0.54623 0.0
H1784 H 0.7748 0.46452 0.57895 0.0
H1785 H 0.76497 0.50534 0.5834 0.0
H1786 H 0.85827 0.49014 0.56427 0.0
H1787 H 0.74484 0.4041 0.54773 0.0
H1788 H 0.75671 0.44359 0.54825 0.0
H1789 H 0.74443 0.42133 0.56348 0.0
C1790 C 0.81344 0.53657 0.55685 0.0
C1791 C 0.79403 0.53436 0.56741 0.0
C1792 C 0.81896 0.51291 0.55429 0.0
C1793 C 0.80482 0.48652 0.56211 0.0
C1794 C 0.78545 0.48434 0.5726 0.0
H1795 H 0.84879 0.35499 0.58616 0.0
H1796 H 0.84018 0.397 0.58296 0.0
C1797 C 0.78008 0.50791 0.5752 0.0
C1798 C 0.81135 0.46174 0.55996 0.0
H1799 H 0.77732 0.38589 0.55531 0.0
C1800 C 0.84067 0.46744 0.56208 0.0
C1801 C 0.78848 0.43215 0.55695 0.0
C1802 C 0.7569 0.42493 0.55383 0.0
C1803 C 0.84736 0.44407 0.56204 0.0
C1804 C 0.82406 0.4142 0.55997 0.0
C1805 C 0.7951 0.40873 0.55707 0.0
C1806 C 0.829 0.38829 0.56171 0.0
C1807 C 0.87924 0.4515 0.56446 0.0
C1808 C 0.82469 0.36877 0.55091 0.0
C1809 C 0.82979 0.34461 0.55269 0.0
C1810 C 0.83907 0.3394 0.56534 0.0
C1811 C 0.84246 0.3586 0.57619 0.0
C1812 C 0.83749 0.38271 0.57439 0.0
H1813 H 0.89541 0.47532 0.562 0.0
H1814 H 0.88203 0.44779 0.57532 0.0
H1815 H 0.88486 0.4369 0.5583 0.0
H1816 H 0.81787 0.37252 0.54106 0.0
H1817 H 0.82706 0.33045 0.54408 0.0
H1818 H 0.7094 0.4978 0.5643 0.0
H1819 H 0.67053 0.44507 0.56253 0.0
H1820 H 0.60237 0.47019 0.56552 0.0
H1821 H 0.64119 0.52294 0.56743 0.0
H1822 H 0.59239 0.42599 0.58295 0.0
H1823 H 0.61519 0.39683 0.53195 0.0
H1824 H 0.6475 0.41288 0.54275 0.0
H1825 H 0.63111 0.43512 0.53764 0.0
C1826 C 0.68614 0.49214 0.56428 0.0
C1827 C 0.67836 0.51455 0.56599 0.0
C1828 C 0.66392 0.46197 0.56325 0.0
C1829 C 0.6335 0.45366 0.56371 0.0
C1830 C 0.6257 0.47607 0.56511 0.0
H1831 H 0.48116 0.27441 0.5498 0.0
H1832 H 0.51971 0.32738 0.54785 0.0
C1833 C 0.64789 0.50619 0.56625 0.0
C1834 C 0.60981 0.42154 0.56377 0.0
H1835 H 0.58235 0.35581 0.54621 0.0
C1836 C 0.59009 0.41071 0.57486 0.0
C1837 C 0.6066 0.40165 0.55315 0.0
C1838 C 0.62603 0.41224 0.54063 0.0
C1839 C 0.56766 0.38049 0.57577 0.0
C1840 C 0.56524 0.36034 0.56544 0.0
C1841 C 0.58448 0.37124 0.55419 0.0
C1842 C 0.54286 0.32789 0.56622 0.0
C1843 C 0.54651 0.37049 0.58773 0.0
C1844 C 0.54352 0.31045 0.57702 0.0
C1845 C 0.52151 0.28028 0.5782 0.0
C1846 C 0.49852 0.26683 0.56853 0.0
C1847 C 0.4985 0.28409 0.55745 0.0
C1848 C 0.52051 0.31435 0.55631 0.0
H1849 H 0.546 0.38969 0.59261 0.0
H1850 H 0.52339 0.35371 0.58463 0.0
H1851 H 0.55411 0.35998 0.59541 0.0
H1852 H 0.56095 0.32027 0.58462 0.0
H1853 H 0.52241 0.26759 0.58677 0.0
H1854 H 0.75946 0.23919 0.54998 0.0
H1855 H 0.70909 0.23288 0.55136 0.0
H1856 H 0.67317 0.1401 0.56252 0.0
H1857 H 0.72312 0.14601 0.56095 0.0
H1858 H 0.63746 0.14786 0.54405 0.0
H1859 H 0.66631 0.22697 0.58712 0.0
H1860 H 0.68947 0.24267 0.57236 0.0
H1861 H 0.69052 0.21306 0.58158 0.0
C1862 C 0.74079 0.21735 0.55258 0.0
C1863 C 0.74543 0.19315 0.55543 0.0
C1864 C 0.71203 0.21385 0.55348 0.0
C1865 C 0.68739 0.18615 0.55731 0.0
C1866 C 0.69182 0.16172 0.55963 0.0
H1867 H 0.51601 0.1506 0.59013 0.0
H1868 H 0.56558 0.15651 0.5862 0.0
C1869 C 0.72048 0.16518 0.55874 0.0
C1870 C 0.65704 0.18252 0.55916 0.0
H1871 H 0.61762 0.20698 0.57796 0.0
C1872 C 0.63313 0.16084 0.55144 0.0
C1873 C 0.65127 0.19909 0.56897 0.0
C1874 C 0.67564 0.22157 0.57809 0.0
C1875 C 0.60373 0.15546 0.55318 0.0
C1876 C 0.59809 0.17253 0.56277 0.0
C1877 C 0.62196 0.19405 0.57055 0.0
C1878 C 0.56756 0.16818 0.565 0.0
C1879 C 0.57886 0.13101 0.54496 0.0
C1880 C 0.55213 0.17287 0.55442 0.0
C1881 C 0.52366 0.16928 0.55661 0.0
C1882 C 0.50998 0.16112 0.56948 0.0
C1883 C 0.52555 0.15647 0.58006 0.0
C1884 C 0.55405 0.16007 0.57785 0.0
H1885 H 0.58535 0.11493 0.54089 0.0
H1886 H 0.55821 0.1184 0.55115 0.0
H1887 H 0.57361 0.14123 0.53625 0.0
H1888 H 0.56225 0.17964 0.54447 0.0
H1889 H 0.51238 0.1728 0.54817 0.0
H1890 H 0.82746 0.42558 0.10709 0.0
H1891 H 0.79215 0.44405 0.10677 0.0
H1892 H 0.8585 0.52723 0.12477 0.0
H1893 H 0.89436 0.50895 0.12512 0.0
H1894 H 0.79906 0.49952 0.13693 0.0
H1895 H 0.79647 0.51041 0.08109 0.0
H1896 H 0.79118 0.47481 0.08664 0.0
H1897 H 0.82629 0.50836 0.08975 0.0
C1898 C 0.8347 0.44784 0.11099 0.0
C1899 C 0.86386 0.46583 0.11609 0.0
C1900 C 0.81448 0.4584 0.11072 0.0
C1901 C 0.82288 0.48716 0.11553 0.0
C1902 C 0.8517 0.50504 0.1209 0.0
H1903 H 0.70131 0.55934 0.10337 0.0
H1904 H 0.74719 0.55612 0.10443 0.0
C1905 C 0.87212 0.49454 0.12111 0.0
C1906 C 0.80104 0.49794 0.11517 0.0
H1907 H 0.75638 0.51003 0.09356 0.0
C1908 C 0.79002 0.50227 0.12746 0.0
C1909 C 0.78958 0.50189 0.1028 0.0
C1910 C 0.80166 0.49892 0.0893 0.0
C1911 C 0.76664 0.50886 0.1277 0.0
C1912 C 0.75386 0.51089 0.11533 0.0
C1913 C 0.76603 0.50821 0.10303 0.0
C1914 C 0.72649 0.51353 0.11495 0.0
C1915 C 0.75544 0.5131 0.14118 0.0
C1916 C 0.69959 0.49042 0.12029 0.0
C1917 C 0.67337 0.49201 0.11958 0.0
C1918 C 0.67338 0.51681 0.11351 0.0
C1919 C 0.70039 0.53987 0.10806 0.0
C1920 C 0.72668 0.53817 0.10872 0.0
H1921 H 0.77265 0.51944 0.14923 0.0
H1922 H 0.74889 0.53061 0.14054 0.0
H1923 H 0.73544 0.4917 0.14425 0.0
H1924 H 0.69876 0.47082 0.12482 0.0
H1925 H 0.65297 0.47343 0.12358 0.0
H1926 H 0.47157 0.15447 0.11021 0.0
H1927 H 0.48135 0.20608 0.1107 0.0
H1928 H 0.55328 0.22966 0.13908 0.0
H1929 H 0.54473 0.17873 0.13818 0.0
H1930 H 0.48237 0.24377 0.13052 0.0
H1931 H 0.59573 0.28802 0.10831 0.0
H1932 H 0.56884 0.24846 0.10905 0.0
H1933 H 0.59029 0.26766 0.12382 0.0
C1934 C 0.48949 0.17057 0.11656 0.0
C1935 C 0.50761 0.1623 0.12397 0.0
C1936 C 0.49493 0.20007 0.11689 0.0
C1937 C 0.51855 0.22192 0.12466 0.0
C1938 C 0.53543 0.21336 0.13274 0.0
H1939 H 0.54891 0.4026 0.13956 0.0
H1940 H 0.53747 0.35061 0.14192 0.0
C1941 C 0.53016 0.18395 0.13235 0.0
C1942 C 0.52623 0.25383 0.12388 0.0
H1943 H 0.58264 0.32393 0.11544 0.0
C1944 C 0.50428 0.26132 0.12723 0.0
C1945 C 0.5547 0.27664 0.11936 0.0
C1946 C 0.57867 0.26983 0.11479 0.0
C1947 C 0.51009 0.29103 0.1263 0.0
C1948 C 0.53886 0.31396 0.12217 0.0
C1949 C 0.56071 0.3064 0.11873 0.0
C1950 C 0.54652 0.34581 0.12091 0.0
C1951 C 0.4851 0.29739 0.12939 0.0
C1952 C 0.55653 0.36083 0.10845 0.0
C1953 C 0.56352 0.3907 0.10712 0.0
C1954 C 0.56062 0.40619 0.11822 0.0
C1955 C 0.55117 0.39128 0.13077 0.0
C1956 C 0.54437 0.36145 0.13211 0.0
H1957 H 0.46277 0.27679 0.12874 0.0
H1958 H 0.48783 0.30622 0.13987 0.0
H1959 H 0.48555 0.31443 0.12232 0.0
H1960 H 0.55855 0.34929 0.09969 0.0
H1961 H 0.57076 0.40148 0.09731 0.0
H1962 H 0.61923 0.19998 0.11877 0.0
H1963 H 0.67279 0.23558 0.11923 0.0
H1964 H 0.68903 0.16834 0.13686 0.0
H1965 H 0.63496 0.13205 0.13639 0.0
H1966 H 0.72188 0.23029 0.14902 0.0
H1967 H 0.73352 0.2282 0.09315 0.0
H1968 H 0.70329 0.23352 0.09876 0.0
H1969 H 0.70228 0.19878 0.10233 0.0
C1970 C 0.63402 0.19258 0.1228 0.0
C1971 C 0.62266 0.16294 0.12744 0.0
C1972 C 0.66473 0.21305 0.12303 0.0
C1973 C 0.68494 0.20452 0.1279 0.0
C1974 C 0.67379 0.17532 0.13298 0.0
H1975 H 0.87664 0.31913 0.11092 0.0
H1976 H 0.82731 0.27496 0.11461 0.0
C1977 C 0.64289 0.15463 0.13271 0.0
C1978 C 0.71765 0.22623 0.12732 0.0
H1979 H 0.77412 0.26795 0.10498 0.0
C1980 C 0.73346 0.23829 0.13941 0.0
C1981 C 0.7328 0.23643 0.11478 0.0
C1982 C 0.71724 0.22343 0.1015 0.0
C1983 C 0.76371 0.26122 0.13926 0.0
C1984 C 0.7784 0.27253 0.12668 0.0
C1985 C 0.76288 0.25949 0.11463 0.0
C1986 C 0.80934 0.29873 0.12569 0.0
C1987 C 0.77962 0.27322 0.15256 0.0
C1988 C 0.81583 0.32684 0.13075 0.0
C1989 C 0.84398 0.3522 0.12858 0.0
C1990 C 0.86634 0.35012 0.12122 0.0
C1991 C 0.85999 0.32172 0.1165 0.0
C1992 C 0.83179 0.29638 0.11865 0.0
H1993 H 0.7687 0.25671 0.1609 0.0
H1994 H 0.80347 0.27913 0.15187 0.0
H1995 H 0.77887 0.29377 0.15524 0.0
H1996 H 0.79872 0.32945 0.13592 0.0
H1997 H 0.84765 0.37363 0.13217 0.0
H1998 H 0.49136 0.88627 0.88406 0.0
H1999 H 0.50387 0.84622 0.88163 0.0
H2000 H 0.45147 0.80245 0.91724 0.0
H2001 H 0.43923 0.84213 0.91982 0.0
H2002 H 0.50771 0.80839 0.91776 0.0
H2003 H 0.45004 0.75885 0.86905 0.0
H2004 H 0.47587 0.79858 0.8688 0.0
H2005 H 0.44248 0.78389 0.87892 0.0
C2006 C 0.48243 0.86803 0.89132 0.0
C2007 C 0.46433 0.86748 0.90214 0.0
C2008 C 0.48943 0.84506 0.88988 0.0
C2009 C 0.47833 0.82114 0.89918 0.0
C2010 C 0.46025 0.82061 0.90993 0.0
H2011 H 0.4691 0.64816 0.89967 0.0
H2012 H 0.45896 0.68982 0.89753 0.0
C2013 C 0.45329 0.84342 0.91138 0.0
C2014 C 0.4863 0.79712 0.89823 0.0
H2015 H 0.47783 0.73832 0.87884 0.0
C2016 C 0.5013 0.79317 0.90922 0.0
C2017 C 0.47758 0.77704 0.88716 0.0
C2018 C 0.46038 0.77951 0.87534 0.0
C2019 C 0.50769 0.76966 0.90949 0.0
C2020 C 0.49938 0.74979 0.89834 0.0
C2021 C 0.48438 0.7537 0.88733 0.0
C2022 C 0.50559 0.72451 0.89818 0.0
C2023 C 0.52254 0.76579 0.92191 0.0
C2024 C 0.53516 0.73014 0.89882 0.0
C2025 C 0.54097 0.70646 0.90008 0.0
C2026 C 0.51735 0.67658 0.9006 0.0
C2027 C 0.48777 0.6709 0.89926 0.0
C2028 C 0.48196 0.69468 0.89806 0.0
H2029 H 0.52066 0.77803 0.93079 0.0
H2030 H 0.51252 0.74172 0.92464 0.0
H2031 H 0.5467 0.7748 0.91979 0.0
H2032 H 0.55377 0.75295 0.89862 0.0
H2033 H 0.56402 0.7116 0.90078 0.0
H2034 H 0.32146 0.83717 0.91578 0.0
H2035 H 0.28269 0.78584 0.91093 0.0
H2036 H 0.32573 0.78896 0.87298 0.0
H2037 H 0.36434 0.84092 0.87758 0.0
H2038 H 0.26412 0.7651 0.8706 0.0
H2039 H 0.28994 0.71043 0.91268 0.0
H2040 H 0.28497 0.74079 0.91837 0.0
H2041 H 0.31563 0.74831 0.90722 0.0
C2042 C 0.32267 0.82713 0.90635 0.0
C2043 C 0.34608 0.84331 0.89707 0.0
C2044 C 0.30066 0.79757 0.90368 0.0
C2045 C 0.30161 0.78337 0.89171 0.0
C2046 C 0.32475 0.79941 0.88234 0.0
H2047 H 0.17408 0.59054 0.88302 0.0
H2048 H 0.22084 0.63889 0.88281 0.0
C2049 C 0.34689 0.82907 0.88502 0.0
C2050 C 0.27767 0.75217 0.88886 0.0
H2051 H 0.24132 0.68179 0.90254 0.0
C2052 C 0.25936 0.74677 0.87747 0.0
C2053 C 0.27181 0.72814 0.89769 0.0
C2054 C 0.29182 0.73209 0.90959 0.0
C2055 C 0.23439 0.71834 0.87509 0.0
C2056 C 0.22729 0.69486 0.88446 0.0
C2057 C 0.24654 0.69987 0.89544 0.0
C2058 C 0.19907 0.66557 0.88358 0.0
C2059 C 0.2157 0.71381 0.86261 0.0
C2060 C 0.17134 0.66451 0.88412 0.0
C2061 C 0.14466 0.63701 0.88422 0.0
C2062 C 0.14511 0.6099 0.8839 0.0
C2063 C 0.17292 0.61098 0.88323 0.0
C2064 C 0.19966 0.63859 0.88312 0.0
H2065 H 0.22903 0.73004 0.85449 0.0
H2066 H 0.20628 0.6907 0.85857 0.0
H2067 H 0.19685 0.71752 0.86524 0.0
H2068 H 0.17031 0.68498 0.88482 0.0
H2069 H 0.12368 0.63705 0.88481 0.0
H2070 H 0.40892 0.52363 0.88751 0.0
H2071 H 0.35607 0.51014 0.88521 0.0
H2072 H 0.36677 0.57041 0.9178 0.0
H2073 H 0.4191 0.58395 0.92018 0.0
H2074 H 0.30968 0.48618 0.90683 0.0
H2075 H 0.3306 0.59502 0.88568 0.0
H2076 H 0.3583 0.58327 0.8852 0.0
H2077 H 0.35202 0.59805 0.90056 0.0
C2078 C 0.40001 0.53411 0.89412 0.0
C2079 C 0.41823 0.55488 0.90401 0.0
C2080 C 0.36984 0.52631 0.89282 0.0
C2081 C 0.35765 0.5395 0.90126 0.0
C2082 C 0.37583 0.56024 0.91109 0.0
H2083 H 0.17836 0.49519 0.9244 0.0
H2084 H 0.22895 0.50218 0.92312 0.0
C2085 C 0.40575 0.56784 0.91246 0.0
C2086 C 0.32583 0.53152 0.9001 0.0
H2087 H 0.28135 0.56192 0.89384 0.0
C2088 C 0.30339 0.50259 0.90386 0.0
C2089 C 0.31773 0.55294 0.89614 0.0
C2090 C 0.34087 0.58401 0.89155 0.0
C2091 C 0.27306 0.49482 0.90418 0.0
C2092 C 0.26511 0.51667 0.90078 0.0
C2093 C 0.2875 0.54528 0.89658 0.0
C2094 C 0.23373 0.5105 0.9015 0.0
C2095 C 0.24978 0.46333 0.90814 0.0
C2096 C 0.21972 0.51311 0.88982 0.0
C2097 C 0.19087 0.50914 0.89052 0.0
C2098 C 0.17542 0.50273 0.90297 0.0
C2099 C 0.18941 0.49976 0.91464 0.0
C2100 C 0.21833 0.50371 0.91392 0.0
H2101 H 0.25839 0.44747 0.90708 0.0
H2102 H 0.24339 0.46315 0.9189 0.0
H2103 H 0.22931 0.4552 0.90185 0.0
H2104 H 0.23119 0.51834 0.88013 0.0
H2105 H 0.18071 0.51105 0.88127 0.0
H2106 H 0.54165 0.81387 0.462 0.0
H2107 H 0.49732 0.81959 0.4618 0.0
H2108 H 0.46108 0.75743 0.42846 0.0
H2109 H 0.5058 0.75227 0.42834 0.0
H2110 H 0.456 0.80551 0.42381 0.0
H2111 H 0.41427 0.76418 0.47559 0.0
H2112 H 0.45223 0.79454 0.47561 0.0
H2113 H 0.44329 0.75952 0.46769 0.0
C2114 C 0.52412 0.80118 0.4547 0.0
C2115 C 0.52723 0.78257 0.44519 0.0
C2116 C 0.49867 0.80434 0.45466 0.0
C2117 C 0.47555 0.78854 0.44527 0.0
C2118 C 0.47854 0.76978 0.43583 0.0
H2119 H 0.30045 0.77629 0.45039 0.0
H2120 H 0.3418 0.76568 0.45032 0.0
C2121 C 0.50413 0.76685 0.43578 0.0
C2122 C 0.44893 0.79265 0.44487 0.0
H2123 H 0.39286 0.79022 0.46434 0.0
C2124 C 0.44207 0.80195 0.43265 0.0
C2125 C 0.43042 0.78757 0.45633 0.0
C2126 C 0.43521 0.7756 0.4695 0.0
C2127 C 0.41769 0.80692 0.43166 0.0
C2128 C 0.40011 0.80332 0.44331 0.0
C2129 C 0.40654 0.79336 0.45545 0.0
C2130 C 0.37495 0.80973 0.44314 0.0
C2131 C 0.41076 0.81548 0.41806 0.0
C2132 C 0.3798 0.83811 0.43926 0.0
C2133 C 0.35615 0.84412 0.43919 0.0
C2134 C 0.32723 0.82206 0.44324 0.0
C2135 C 0.3225 0.79381 0.44731 0.0
C2136 C 0.3461 0.7877 0.44724 0.0
H2137 H 0.4199 0.80818 0.40961 0.0
H2138 H 0.38625 0.80548 0.41657 0.0
H2139 H 0.42128 0.84025 0.41747 0.0
H2140 H 0.402 0.85577 0.43645 0.0
H2141 H 0.36065 0.86627 0.43626 0.0
H2142 H 0.13185 0.48252 0.44963 0.0
H2143 H 0.13669 0.53198 0.45294 0.0
H2144 H 0.22223 0.56317 0.47221 0.0
H2145 H 0.21781 0.51406 0.46877 0.0
H2146 H 0.1472 0.56722 0.47789 0.0
H2147 H 0.23909 0.62239 0.43999 0.0
H2148 H 0.2149 0.58221 0.44074 0.0
H2149 H 0.24411 0.60085 0.45303 0.0
C2150 C 0.15163 0.49987 0.45461 0.0
C2151 C 0.17446 0.49429 0.45888 0.0
C2152 C 0.15431 0.52807 0.45655 0.0
C2153 C 0.18 0.55134 0.46266 0.0
C2154 C 0.20238 0.54562 0.46734 0.0
H2155 H 0.23789 0.74288 0.46916 0.0
H2156 H 0.23542 0.69414 0.47102 0.0
C2157 C 0.19964 0.51739 0.46548 0.0
C2158 C 0.1837 0.58181 0.46375 0.0
H2159 H 0.22429 0.65315 0.45131 0.0
C2160 C 0.1641 0.58606 0.47212 0.0
C2161 C 0.20592 0.60638 0.45629 0.0
C2162 C 0.22714 0.60288 0.44692 0.0
C2163 C 0.16605 0.61423 0.4732 0.0
C2164 C 0.1877 0.63865 0.46542 0.0
C2165 C 0.20771 0.63449 0.45727 0.0
C2166 C 0.18893 0.66818 0.46499 0.0
C2167 C 0.14508 0.61761 0.48279 0.0
C2168 C 0.16375 0.66988 0.46088 0.0
C2169 C 0.16504 0.6976 0.45987 0.0
C2170 C 0.19168 0.72439 0.4628 0.0
C2171 C 0.21696 0.7227 0.4669 0.0
C2172 C 0.2156 0.69486 0.46795 0.0
H2173 H 0.13731 0.60061 0.49103 0.0
H2174 H 0.15595 0.64028 0.48741 0.0
H2175 H 0.12504 0.6142 0.47711 0.0
H2176 H 0.14317 0.64977 0.45817 0.0
H2177 H 0.14517 0.69797 0.45658 0.0
H2178 H 0.55119 0.64724 0.44369 0.0
H2179 H 0.50169 0.60131 0.44488 0.0
H2180 H 0.45979 0.65523 0.44997 0.0
H2181 H 0.50865 0.70075 0.44873 0.0
H2182 H 0.45454 0.58676 0.46835 0.0
H2183 H 0.41823 0.59541 0.41634 0.0
H2184 H 0.45722 0.61192 0.42103 0.0
H2185 H 0.43626 0.62974 0.42589 0.0
C2186 C 0.53135 0.64916 0.44499 0.0
C2187 C 0.5338 0.67754 0.44622 0.0
C2188 C 0.5032 0.62301 0.44574 0.0
C2189 C 0.47719 0.62499 0.4475 0.0
C2190 C 0.47962 0.65327 0.4486 0.0
H2191 H 0.28914 0.53226 0.45296 0.0
H2192 H 0.34301 0.56592 0.45125 0.0
C2193 C 0.50759 0.67924 0.44798 0.0
C2194 C 0.44716 0.59785 0.44823 0.0
H2195 H 0.38012 0.5631 0.43173 0.0
C2196 C 0.43832 0.58107 0.46028 0.0
C2197 C 0.42619 0.59072 0.43768 0.0
C2198 C 0.43488 0.6077 0.42444 0.0
C2199 C 0.40842 0.55835 0.46234 0.0
C2200 C 0.3871 0.5521 0.45198 0.0
C2201 C 0.39644 0.56798 0.43969 0.0
C2202 C 0.35455 0.53119 0.45399 0.0
C2203 C 0.39952 0.54242 0.47583 0.0
C2204 C 0.34305 0.50039 0.4563 0.0
C2205 C 0.31204 0.48095 0.45739 0.0
C2206 C 0.29207 0.492 0.45603 0.0
C2207 C 0.30381 0.52292 0.45398 0.0
C2208 C 0.33465 0.54225 0.45298 0.0
H2209 H 0.41734 0.55373 0.48358 0.0
H2210 H 0.37862 0.54115 0.47965 0.0
H2211 H 0.3952 0.51916 0.47458 0.0
H2212 H 0.35796 0.49128 0.45691 0.0
H2213 H 0.3037 0.45721 0.45887 0.0
loop_
_geom_bond_atom_site_label_1
_geom_bond_atom_site_label_2
_geom_bond_distance
_geom_bond_site_symmetry_2
_ccdc_geom_bond_type
Co0 N4 2.148 . S
Co0 N10 2.128 . S
Co0 N20 2.194 . S
Co0 O25 2.351 . S
Co0 O26 2.155 . S
Co0 O27 2.096 . S
C1 N4 1.301 . S
C1 N5 1.328 . S
C1 H6 0.930 . S
C2 C3 1.333 . S
C2 N4 1.317 . S
C2 H7 0.930 . S
C3 C2 1.333 . S
C3 N5 1.350 . S
C3 H29 0.931 . S
N4 Co0 2.148 . S
N4 C1 1.301 . S
N4 C2 1.317 . S
N5 C1 1.328 . S
N5 C3 1.350 . S
H6 C1 0.930 . S
H7 C2 0.930 . S
C8 O9 1.224 . S
C8 O27 1.247 . S
O9 C8 1.224 . S
N10 Co0 2.128 . S
N10 C11 1.355 . S
N10 C13 1.311 . S
C11 N10 1.355 . S
C11 C12 1.363 . S
C11 H23 0.929 . S
C12 C11 1.363 . S
C12 N14 1.375 . S
C12 H30 0.931 . S
C13 N10 1.311 . S
C13 N14 1.347 . S
C13 H24 0.929 . S
N14 C12 1.375 . S
N14 C13 1.347 . S
C15 C18 1.365 . S
C15 N20 1.328 . S
C15 H21 0.929 . S
C16 C17 1.362 . S
C16 C19 1.378 . S
C16 H31 0.929 . S
C17 C16 1.362 . S
C17 C18 1.366 . S
C18 C15 1.365 . S
C18 C17 1.366 . S
C18 H32 0.930 . S
C19 C16 1.378 . S
C19 N20 1.315 . S
C19 H22 0.930 . S
N20 Co0 2.194 . S
N20 C15 1.328 . S
N20 C19 1.315 . S
H21 C15 0.929 . S
H22 C19 0.930 . S
H23 C11 0.929 . S
H24 C13 0.929 . S
O25 Co0 2.351 . S
O25 C28 1.244 . S
O26 Co0 2.155 . S
O26 C28 1.240 . S
O27 Co0 2.096 . S
O27 C8 1.247 . S
C28 O25 1.244 . S
C28 O26 1.240 . S
H29 C3 0.931 . S
H30 C12 0.931 . S
H31 C16 0.929 . S
H32 C18 0.930 . S
Co33 N37 2.148 . S
Co33 N43 2.128 . S
Co33 N53 2.194 . S
Co33 O58 2.351 . S
Co33 O59 2.155 . S
Co33 O60 2.096 . S
C34 N37 1.301 . S
C34 N38 1.328 . S
C34 H39 0.930 . S
C35 C36 1.333 . S
C35 N37 1.317 . S
C35 H40 0.930 . S
C36 C35 1.333 . S
C36 N38 1.350 . S
C36 H62 0.931 . S
N37 Co33 2.148 . S
N37 C34 1.301 . S
N37 C35 1.317 . S
N38 C34 1.328 . S
N38 C36 1.350 . S
H39 C34 0.930 . S
H40 C35 0.930 . S
C41 O42 1.224 . S
C41 O60 1.247 . S
O42 C41 1.224 . S
N43 Co33 2.128 . S
N43 C44 1.355 . S
N43 C46 1.311 . S
C44 N43 1.355 . S
C44 C45 1.363 . S
C44 H56 0.929 . S
C45 C44 1.363 . S
C45 N47 1.375 . S
C45 H63 0.931 . S
C46 N43 1.311 . S
C46 N47 1.347 . S
C46 H57 0.929 . S
N47 C45 1.375 . S
N47 C46 1.347 . S
C48 C51 1.365 . S
C48 N53 1.328 . S
C48 H54 0.929 . S
C49 C50 1.362 . S
C49 C52 1.378 . S
C49 H64 0.929 . S
C50 C49 1.362 . S
C50 C51 1.366 . S
C51 C48 1.365 . S
C51 C50 1.366 . S
C51 H65 0.930 . S
C52 C49 1.378 . S
C52 N53 1.315 . S
C52 H55 0.930 . S
N53 Co33 2.194 . S
N53 C48 1.328 . S
N53 C52 1.315 . S
H54 C48 0.929 . S
H55 C52 0.930 . S
H56 C44 0.929 . S
H57 C46 0.929 . S
O58 Co33 2.351 . S
O58 C61 1.244 . S
O59 Co33 2.155 . S
O59 C61 1.240 . S
O60 Co33 2.096 . S
O60 C41 1.247 . S
C61 O58 1.244 . S
C61 O59 1.240 . S
H62 C36 0.931 . S
H63 C45 0.931 . S
H64 C49 0.929 . S
H65 C51 0.930 . S
Co66 N70 2.148 . S
Co66 N76 2.128 . S
Co66 N86 2.194 . S
Co66 O91 2.351 . S
Co66 O92 2.155 . S
Co66 O93 2.096 . S
C67 N70 1.301 . S
C67 N71 1.328 . S
C67 H72 0.930 . S
C68 C69 1.333 . S
C68 N70 1.317 . S
C68 H73 0.930 . S
C69 C68 1.333 . S
C69 N71 1.350 . S
C69 H95 0.931 . S
N70 Co66 2.148 . S
N70 C67 1.301 . S
N70 C68 1.317 . S
N71 C67 1.328 . S
N71 C69 1.350 . S
H72 C67 0.930 . S
H73 C68 0.930 . S
C74 O75 1.224 . S
C74 O93 1.247 . S
O75 C74 1.224 . S
N76 Co66 2.128 . S
N76 C77 1.355 . S
N76 C79 1.311 . S
C77 N76 1.355 . S
C77 C78 1.363 . S
C77 H89 0.929 . S
C78 C77 1.363 . S
C78 N80 1.375 . S
C78 H96 0.931 . S
C79 N76 1.311 . S
C79 N80 1.347 . S
C79 H90 0.929 . S
N80 C78 1.375 . S
N80 C79 1.347 . S
C81 C84 1.365 . S
C81 N86 1.328 . S
C81 H87 0.929 . S
C82 C83 1.362 . S
C82 C85 1.378 . S
C82 H97 0.929 . S
C83 C82 1.362 . S
C83 C84 1.366 . S
C84 C81 1.365 . S
C84 C83 1.366 . S
C84 H98 0.930 . S
C85 C82 1.378 . S
C85 N86 1.315 . S
C85 H88 0.930 . S
N86 Co66 2.194 . S
N86 C81 1.328 . S
N86 C85 1.315 . S
H87 C81 0.929 . S
H88 C85 0.930 . S
H89 C77 0.929 . S
H90 C79 0.929 . S
O91 Co66 2.351 . S
O91 C94 1.244 . S
O92 Co66 2.155 . S
O92 C94 1.240 . S
O93 Co66 2.096 . S
O93 C74 1.247 . S
C94 O91 1.244 . S
C94 O92 1.240 . S
H95 C69 0.931 . S
H96 C78 0.931 . S
H97 C82 0.929 . S
H98 C84 0.930 . S
Co99 N103 2.148 . S
Co99 N109 2.128 . S
Co99 N119 2.194 . S
Co99 O124 2.351 . S
Co99 O125 2.155 . S
Co99 O126 2.096 . S
C100 N103 1.301 . S
C100 N104 1.328 . S
C100 H105 0.930 . S
C101 C102 1.333 . S
C101 N103 1.317 . S
C101 H106 0.930 . S
C102 C101 1.333 . S
C102 N104 1.350 . S
C102 H128 0.931 . S
N103 Co99 2.148 . S
N103 C100 1.301 . S
N103 C101 1.317 . S
N104 C100 1.328 . S
N104 C102 1.350 . S
H105 C100 0.930 . S
H106 C101 0.930 . S
C107 O108 1.224 . S
C107 O126 1.247 . S
O108 C107 1.224 . S
N109 Co99 2.128 . S
N109 C110 1.355 . S
N109 C112 1.311 . S
C110 N109 1.355 . S
C110 C111 1.363 . S
C110 H122 0.929 . S
C111 C110 1.363 . S
C111 N113 1.375 . S
C111 H129 0.931 . S
C112 N109 1.311 . S
C112 N113 1.347 . S
C112 H123 0.929 . S
N113 C111 1.375 . S
N113 C112 1.347 . S
C114 C117 1.365 . S
C114 N119 1.328 . S
C114 H120 0.929 . S
C115 C116 1.362 . S
C115 C118 1.378 . S
C115 H130 0.929 . S
C116 C115 1.362 . S
C116 C117 1.366 . S
C117 C114 1.365 . S
C117 C116 1.366 . S
C117 H131 0.930 . S
C118 C115 1.378 . S
C118 N119 1.315 . S
C118 H121 0.930 . S
N119 Co99 2.194 . S
N119 C114 1.328 . S
N119 C118 1.315 . S
H120 C114 0.929 . S
H121 C118 0.930 . S
H122 C110 0.929 . S
H123 C112 0.929 . S
O124 Co99 2.351 . S
O124 C127 1.244 . S
O125 Co99 2.155 . S
O125 C127 1.240 . S
O126 Co99 2.096 . S
O126 C107 1.247 . S
C127 O124 1.244 . S
C127 O125 1.240 . S
H128 C102 0.931 . S
H129 C111 0.931 . S
H130 C115 0.929 . S
H131 C117 0.930 . S
Co132 N136 2.148 . S
Co132 N142 2.128 . S
Co132 N152 2.194 . S
Co132 O157 2.351 . S
Co132 O158 2.155 . S
Co132 O159 2.096 . S
C133 N136 1.301 . S
C133 N137 1.328 . S
C133 H138 0.930 . S
C134 C135 1.333 . S
C134 N136 1.317 . S
C134 H139 0.930 . S
C135 C134 1.333 . S
C135 N137 1.350 . S
C135 H161 0.931 . S
N136 Co132 2.148 . S
N136 C133 1.301 . S
N136 C134 1.317 . S
N137 C133 1.328 . S
N137 C135 1.350 . S
H138 C133 0.930 . S
H139 C134 0.930 . S
C140 O141 1.224 . S
C140 O159 1.247 . S
O141 C140 1.224 . S
N142 Co132 2.128 . S
N142 C143 1.355 . S
N142 C145 1.311 . S
C143 N142 1.355 . S
C143 C144 1.363 . S
C143 H155 0.929 . S
C144 C143 1.363 . S
C144 N146 1.375 . S
C144 H162 0.931 . S
C145 N142 1.311 . S
C145 N146 1.347 . S
C145 H156 0.929 . S
N146 C144 1.375 . S
N146 C145 1.347 . S
C147 C150 1.365 . S
C147 N152 1.328 . S
C147 H153 0.929 . S
C148 C149 1.362 . S
C148 C151 1.378 . S
C148 H163 0.929 . S
C149 C148 1.362 . S
C149 C150 1.366 . S
C150 C147 1.365 . S
C150 C149 1.366 . S
C150 H164 0.930 . S
C151 C148 1.378 . S
C151 N152 1.315 . S
C151 H154 0.930 . S
N152 Co132 2.194 . S
N152 C147 1.328 . S
N152 C151 1.315 . S
H153 C147 0.929 . S
H154 C151 0.930 . S
H155 C143 0.929 . S
H156 C145 0.929 . S
O157 Co132 2.351 . S
O157 C160 1.244 . S
O158 Co132 2.155 . S
O158 C160 1.240 . S
O159 Co132 2.096 . S
O159 C140 1.247 . S
C160 O157 1.244 . S
C160 O158 1.240 . S
H161 C135 0.931 . S
H162 C144 0.931 . S
H163 C148 0.929 . S
H164 C150 0.930 . S
Co165 N169 2.148 . S
Co165 N175 2.128 . S
Co165 N185 2.194 . S
Co165 O190 2.351 . S
Co165 O191 2.155 . S
Co165 O192 2.096 . S
C166 N169 1.301 . S
C166 N170 1.328 . S
C166 H171 0.930 . S
C167 C168 1.333 . S
C167 N169 1.317 . S
C167 H172 0.930 . S
C168 C167 1.333 . S
C168 N170 1.350 . S
C168 H194 0.931 . S
N169 Co165 2.148 . S
N169 C166 1.301 . S
N169 C167 1.317 . S
N170 C166 1.328 . S
N170 C168 1.350 . S
H171 C166 0.930 . S
H172 C167 0.930 . S
C173 O174 1.224 . S
C173 O192 1.247 . S
O174 C173 1.224 . S
N175 Co165 2.128 . S
N175 C176 1.355 . S
N175 C178 1.311 . S
C176 N175 1.355 . S
C176 C177 1.363 . S
C176 H188 0.929 . S
C177 C176 1.363 . S
C177 N179 1.375 . S
C177 H195 0.931 . S
C178 N175 1.311 . S
C178 N179 1.347 . S
C178 H189 0.929 . S
N179 C177 1.375 . S
N179 C178 1.347 . S
C180 C183 1.365 . S
C180 N185 1.328 . S
C180 H186 0.929 . S
C181 C182 1.362 . S
C181 C184 1.378 . S
C181 H196 0.929 . S
C182 C181 1.362 . S
C182 C183 1.366 . S
C183 C180 1.365 . S
C183 C182 1.366 . S
C183 H197 0.930 . S
C184 C181 1.378 . S
C184 N185 1.315 . S
C184 H187 0.930 . S
N185 Co165 2.194 . S
N185 C180 1.328 . S
N185 C184 1.315 . S
H186 C180 0.929 . S
H187 C184 0.930 . S
H188 C176 0.929 . S
H189 C178 0.929 . S
O190 Co165 2.351 . S
O190 C193 1.244 . S
O191 Co165 2.155 . S
O191 C193 1.240 . S
O192 Co165 2.096 . S
O192 C173 1.247 . S
C193 O190 1.244 . S
C193 O191 1.240 . S
H194 C168 0.931 . S
H195 C177 0.931 . S
H196 C181 0.929 . S
H197 C183 0.930 . S
Co198 N202 2.148 . S
Co198 N208 2.128 . S
Co198 N218 2.194 . S
Co198 O223 2.351 . S
Co198 O224 2.155 . S
Co198 O225 2.096 . S
C199 N202 1.301 . S
C199 N203 1.328 . S
C199 H204 0.930 . S
C200 C201 1.333 . S
C200 N202 1.317 . S
C200 H205 0.930 . S
C201 C200 1.333 . S
C201 N203 1.350 . S
C201 H227 0.931 . S
N202 Co198 2.148 . S
N202 C199 1.301 . S
N202 C200 1.317 . S
N203 C199 1.328 . S
N203 C201 1.350 . S
H204 C199 0.930 . S
H205 C200 0.930 . S
C206 O207 1.224 . S
C206 O225 1.247 . S
O207 C206 1.224 . S
N208 Co198 2.128 . S
N208 C209 1.355 . S
N208 C211 1.311 . S
C209 N208 1.355 . S
C209 C210 1.363 . S
C209 H221 0.929 . S
C210 C209 1.363 . S
C210 N212 1.375 . S
C210 H228 0.931 . S
C211 N208 1.311 . S
C211 N212 1.347 . S
C211 H222 0.929 . S
N212 C210 1.375 . S
N212 C211 1.347 . S
C213 C216 1.365 . S
C213 N218 1.328 . S
C213 H219 0.929 . S
C214 C215 1.362 . S
C214 C217 1.378 . S
C214 H229 0.929 . S
C215 C214 1.362 . S
C215 C216 1.366 . S
C216 C213 1.365 . S
C216 C215 1.366 . S
C216 H230 0.930 . S
C217 C214 1.378 . S
C217 N218 1.315 . S
C217 H220 0.930 . S
N218 Co198 2.194 . S
N218 C213 1.328 . S
N218 C217 1.315 . S
H219 C213 0.929 . S
H220 C217 0.930 . S
H221 C209 0.929 . S
H222 C211 0.929 . S
O223 Co198 2.351 . S
O223 C226 1.244 . S
O224 Co198 2.155 . S
O224 C226 1.240 . S
O225 Co198 2.096 . S
O225 C206 1.247 . S
C226 O223 1.244 . S
C226 O224 1.240 . S
H227 C201 0.931 . S
H228 C210 0.931 . S
H229 C214 0.929 . S
H230 C216 0.930 . S
Co231 N235 2.148 . S
Co231 N241 2.128 . S
Co231 N251 2.194 . S
Co231 O256 2.351 . S
Co231 O257 2.155 . S
Co231 O258 2.096 . S
C232 N235 1.301 . S
C232 N236 1.328 . S
C232 H237 0.930 . S
C233 C234 1.333 . S
C233 N235 1.317 . S
C233 H238 0.930 . S
C234 C233 1.333 . S
C234 N236 1.350 . S
C234 H260 0.931 . S
N235 Co231 2.148 . S
N235 C232 1.301 . S
N235 C233 1.317 . S
N236 C232 1.328 . S
N236 C234 1.350 . S
H237 C232 0.930 . S
H238 C233 0.930 . S
C239 O240 1.224 . S
C239 O258 1.247 . S
O240 C239 1.224 . S
N241 Co231 2.128 . S
N241 C242 1.355 . S
N241 C244 1.311 . S
C242 N241 1.355 . S
C242 C243 1.363 . S
C242 H254 0.929 . S
C243 C242 1.363 . S
C243 N245 1.375 . S
C243 H261 0.931 . S
C244 N241 1.311 . S
C244 N245 1.347 . S
C244 H255 0.929 . S
N245 C243 1.375 . S
N245 C244 1.347 . S
C246 C249 1.365 . S
C246 N251 1.328 . S
C246 H252 0.929 . S
C247 C248 1.362 . S
C247 C250 1.378 . S
C247 H262 0.929 . S
C248 C247 1.362 . S
C248 C249 1.366 . S
C249 C246 1.365 . S
C249 C248 1.366 . S
C249 H263 0.930 . S
C250 C247 1.378 . S
C250 N251 1.315 . S
C250 H253 0.930 . S
N251 Co231 2.194 . S
N251 C246 1.328 . S
N251 C250 1.315 . S
H252 C246 0.929 . S
H253 C250 0.930 . S
H254 C242 0.929 . S
H255 C244 0.929 . S
O256 Co231 2.351 . S
O256 C259 1.244 . S
O257 Co231 2.155 . S
O257 C259 1.240 . S
O258 Co231 2.096 . S
O258 C239 1.247 . S
C259 O256 1.244 . S
C259 O257 1.240 . S
H260 C234 0.931 . S
H261 C243 0.931 . S
H262 C247 0.929 . S
H263 C249 0.930 . S
Co264 N268 2.148 . S
Co264 N274 2.128 . S
Co264 N284 2.194 . S
Co264 O289 2.351 . S
Co264 O290 2.155 . S
Co264 O291 2.096 . S
C265 N268 1.301 . S
C265 N269 1.328 . S
C265 H270 0.930 . S
C266 C267 1.333 . S
C266 N268 1.317 . S
C266 H271 0.930 . S
C267 C266 1.333 . S
C267 N269 1.350 . S
C267 H293 0.931 . S
N268 Co264 2.148 . S
N268 C265 1.301 . S
N268 C266 1.317 . S
N269 C265 1.328 . S
N269 C267 1.350 . S
H270 C265 0.930 . S
H271 C266 0.930 . S
C272 O273 1.224 . S
C272 O291 1.247 . S
O273 C272 1.224 . S
N274 Co264 2.128 . S
N274 C275 1.355 . S
N274 C277 1.311 . S
C275 N274 1.355 . S
C275 C276 1.363 . S
C275 H287 0.929 . S
C276 C275 1.363 . S
C276 N278 1.375 . S
C276 H294 0.931 . S
C277 N274 1.311 . S
C277 N278 1.347 . S
C277 H288 0.929 . S
N278 C276 1.375 . S
N278 C277 1.347 . S
C279 C282 1.365 . S
C279 N284 1.328 . S
C279 H285 0.929 . S
C280 C281 1.362 . S
C280 C283 1.378 . S
C280 H295 0.929 . S
C281 C280 1.362 . S
C281 C282 1.366 . S
C282 C279 1.365 . S
C282 C281 1.366 . S
C282 H296 0.930 . S
C283 C280 1.378 . S
C283 N284 1.315 . S
C283 H286 0.930 . S
N284 Co264 2.194 . S
N284 C279 1.328 . S
N284 C283 1.315 . S
H285 C279 0.929 . S
H286 C283 0.930 . S
H287 C275 0.929 . S
H288 C277 0.929 . S
O289 Co264 2.351 . S
O289 C292 1.244 . S
O290 Co264 2.155 . S
O290 C292 1.240 . S
O291 Co264 2.096 . S
O291 C272 1.247 . S
C292 O289 1.244 . S
C292 O290 1.240 . S
H293 C267 0.931 . S
H294 C276 0.931 . S
H295 C280 0.929 . S
H296 C282 0.930 . S
Co297 N301 2.148 . S
Co297 N307 2.128 . S
Co297 N317 2.194 . S
Co297 O322 2.351 . S
Co297 O323 2.155 . S
Co297 O324 2.096 . S
C298 N301 1.301 . S
C298 N302 1.328 . S
C298 H303 0.930 . S
C299 C300 1.333 . S
C299 N301 1.317 . S
C299 H304 0.930 . S
C300 C299 1.333 . S
C300 N302 1.350 . S
C300 H326 0.931 . S
N301 Co297 2.148 . S
N301 C298 1.301 . S
N301 C299 1.317 . S
N302 C298 1.328 . S
N302 C300 1.350 . S
H303 C298 0.930 . S
H304 C299 0.930 . S
C305 O306 1.224 . S
C305 O324 1.247 . S
O306 C305 1.224 . S
N307 Co297 2.128 . S
N307 C308 1.355 . S
N307 C310 1.311 . S
C308 N307 1.355 . S
C308 C309 1.363 . S
C308 H320 0.929 . S
C309 C308 1.363 . S
C309 N311 1.375 . S
C309 H327 0.931 . S
C310 N307 1.311 . S
C310 N311 1.347 . S
C310 H321 0.929 . S
N311 C309 1.375 . S
N311 C310 1.347 . S
C312 C315 1.365 . S
C312 N317 1.328 . S
C312 H318 0.929 . S
C313 C314 1.362 . S
C313 C316 1.378 . S
C313 H328 0.929 . S
C314 C313 1.362 . S
C314 C315 1.366 . S
C315 C312 1.365 . S
C315 C314 1.366 . S
C315 H329 0.967 . S
C316 C313 1.378 . S
C316 N317 1.315 . S
C316 H319 0.930 . S
N317 Co297 2.194 . S
N317 C312 1.328 . S
N317 C316 1.315 . S
H318 C312 0.929 . S
H319 C316 0.930 . S
H320 C308 0.929 . S
H321 C310 0.929 . S
O322 Co297 2.351 . S
O322 C325 1.244 . S
O323 Co297 2.155 . S
O323 C325 1.240 . S
O324 Co297 2.096 . S
O324 C305 1.247 . S
C325 O322 1.244 . S
C325 O323 1.240 . S
H326 C300 0.931 . S
H327 C309 0.931 . S
H328 C313 0.929 . S
H329 C315 0.967 . S
Co330 N334 2.148 . S
Co330 N340 2.128 . S
Co330 N350 2.194 . S
Co330 O355 2.351 . S
Co330 O356 2.155 . S
Co330 O357 2.096 . S
C331 N334 1.301 . S
C331 N335 1.328 . S
C331 H336 0.930 . S
C332 C333 1.333 . S
C332 N334 1.317 . S
C332 H337 0.930 . S
C333 C332 1.333 . S
C333 N335 1.350 . S
C333 H359 0.931 . S
N334 Co330 2.148 . S
N334 C331 1.301 . S
N334 C332 1.317 . S
N335 C331 1.328 . S
N335 C333 1.350 . S
H336 C331 0.930 . S
H337 C332 0.930 . S
C338 O339 1.224 . S
C338 O357 1.247 . S
O339 C338 1.224 . S
N340 Co330 2.128 . S
N340 C341 1.355 . S
N340 C343 1.311 . S
C341 N340 1.355 . S
C341 C342 1.363 . S
C341 H353 0.929 . S
C342 C341 1.363 . S
C342 N344 1.375 . S
C342 H360 0.931 . S
C343 N340 1.311 . S
C343 N344 1.347 . S
C343 H354 0.929 . S
N344 C342 1.375 . S
N344 C343 1.347 . S
C345 C348 1.365 . S
C345 N350 1.328 . S
C345 H351 0.929 . S
C346 C347 1.362 . S
C346 C349 1.378 . S
C346 H361 0.929 . S
C347 C346 1.362 . S
C347 C348 1.366 . S
C348 C345 1.365 . S
C348 C347 1.366 . S
C348 H362 0.930 . S
C349 C346 1.378 . S
C349 N350 1.315 . S
C349 H352 0.930 . S
N350 Co330 2.194 . S
N350 C345 1.328 . S
N350 C349 1.315 . S
H351 C345 0.929 . S
H352 C349 0.930 . S
H353 C341 0.929 . S
H354 C343 0.929 . S
O355 Co330 2.351 . S
O355 C358 1.244 . S
O356 Co330 2.155 . S
O356 C358 1.240 . S
O357 Co330 2.096 . S
O357 C338 1.247 . S
C358 O355 1.244 . S
C358 O356 1.240 . S
H359 C333 0.931 . S
H360 C342 0.931 . S
H361 C346 0.929 . S
H362 C348 0.930 . S
Co363 N367 2.148 . S
Co363 N373 2.128 . S
Co363 N383 2.194 . S
Co363 O388 2.351 . S
Co363 O389 2.155 . S
Co363 O390 2.096 . S
C364 N367 1.301 . S
C364 N368 1.328 . S
C364 H369 0.930 . S
C365 C366 1.333 . S
C365 N367 1.317 . S
C365 H370 0.930 . S
C366 C365 1.333 . S
C366 N368 1.350 . S
C366 H392 0.931 . S
N367 Co363 2.148 . S
N367 C364 1.301 . S
N367 C365 1.317 . S
N368 C364 1.328 . S
N368 C366 1.350 . S
H369 C364 0.930 . S
H370 C365 0.930 . S
C371 O372 1.224 . S
C371 O390 1.247 . S
O372 C371 1.224 . S
N373 Co363 2.128 . S
N373 C374 1.355 . S
N373 C376 1.311 . S
C374 N373 1.355 . S
C374 C375 1.363 . S
C374 H386 0.929 . S
C375 C374 1.363 . S
C375 N377 1.375 . S
C375 H393 0.931 . S
C376 N373 1.311 . S
C376 N377 1.347 . S
C376 H387 0.929 . S
N377 C375 1.375 . S
N377 C376 1.347 . S
C378 C381 1.365 . S
C378 N383 1.328 . S
C378 H384 0.929 . S
C379 C380 1.362 . S
C379 C382 1.378 . S
C379 H394 0.929 . S
C380 C379 1.362 . S
C380 C381 1.366 . S
C381 C378 1.365 . S
C381 C380 1.366 . S
C381 H395 0.930 1_545 S
C382 C379 1.378 . S
C382 N383 1.315 . S
C382 H385 0.930 . S
N383 Co363 2.194 . S
N383 C378 1.328 . S
N383 C382 1.315 . S
H384 C378 0.929 . S
H385 C382 0.930 . S
H386 C374 0.929 . S
H387 C376 0.929 . S
O388 Co363 2.351 . S
O388 C391 1.244 . S
O389 Co363 2.155 . S
O389 C391 1.240 . S
O390 Co363 2.096 . S
O390 C371 1.247 . S
C391 O388 1.244 . S
C391 O389 1.240 . S
H392 C366 0.931 . S
H393 C375 0.931 . S
H394 C379 0.929 . S
H395 C381 0.930 1_565 S
Co396 N400 2.148 . S
Co396 N406 2.128 . S
Co396 N416 2.194 . S
Co396 O421 2.351 . S
Co396 O422 2.155 . S
Co396 O423 2.096 . S
C397 N400 1.301 . S
C397 N401 1.328 . S
C397 H402 0.930 . S
C398 C399 1.333 . S
C398 N400 1.317 . S
C398 H403 0.930 . S
C399 C398 1.333 . S
C399 N401 1.350 . S
C399 H425 0.931 . S
N400 Co396 2.148 . S
N400 C397 1.301 . S
N400 C398 1.317 . S
N401 C397 1.328 . S
N401 C399 1.350 . S
H402 C397 0.930 . S
H403 C398 0.930 . S
C404 O405 1.224 . S
C404 O423 1.247 . S
O405 C404 1.224 . S
N406 Co396 2.128 . S
N406 C407 1.355 . S
N406 C409 1.311 . S
C407 N406 1.355 . S
C407 C408 1.363 . S
C407 H419 0.929 . S
C408 C407 1.363 . S
C408 N410 1.375 . S
C408 H426 0.931 . S
C409 N406 1.311 . S
C409 N410 1.347 . S
C409 H420 0.929 . S
N410 C408 1.375 . S
N410 C409 1.347 . S
C411 C414 1.365 . S
C411 N416 1.328 . S
C411 H417 0.929 . S
C412 C413 1.362 . S
C412 C415 1.378 . S
C412 H427 0.929 . S
C413 C412 1.362 . S
C413 C414 1.366 . S
C414 C411 1.365 . S
C414 C413 1.366 . S
C414 H428 0.967 . S
C415 C412 1.378 . S
C415 N416 1.315 . S
C415 H418 0.930 . S
N416 Co396 2.194 . S
N416 C411 1.328 . S
N416 C415 1.315 . S
H417 C411 0.929 . S
H418 C415 0.930 . S
H419 C407 0.929 . S
H420 C409 0.929 . S
O421 Co396 2.351 . S
O421 C424 1.244 . S
O422 Co396 2.155 . S
O422 C424 1.240 . S
O423 Co396 2.096 . S
O423 C404 1.247 . S
C424 O421 1.244 . S
C424 O422 1.240 . S
H425 C399 0.931 . S
H426 C408 0.931 . S
H427 C412 0.929 . S
H428 C414 0.967 . S
Co429 N433 2.148 . S
Co429 N439 2.128 . S
Co429 N449 2.194 . S
Co429 O454 2.351 . S
Co429 O455 2.155 . S
Co429 O456 2.096 . S
C430 N433 1.301 . S
C430 N434 1.328 . S
C430 H435 0.930 . S
C431 C432 1.333 . S
C431 N433 1.317 . S
C431 H436 0.930 . S
C432 C431 1.333 . S
C432 N434 1.350 . S
C432 H458 0.931 . S
N433 Co429 2.148 . S
N433 C430 1.301 . S
N433 C431 1.317 . S
N434 C430 1.328 . S
N434 C432 1.350 . S
H435 C430 0.930 . S
H436 C431 0.930 . S
C437 O438 1.224 . S
C437 O456 1.247 . S
O438 C437 1.224 . S
N439 Co429 2.128 . S
N439 C440 1.355 . S
N439 C442 1.311 . S
C440 N439 1.355 . S
C440 C441 1.363 . S
C440 H452 0.929 . S
C441 C440 1.363 . S
C441 N443 1.375 . S
C441 H459 0.931 . S
C442 N439 1.311 . S
C442 N443 1.347 . S
C442 H453 0.929 . S
N443 C441 1.375 . S
N443 C442 1.347 . S
C444 C447 1.365 . S
C444 N449 1.328 . S
C444 H450 0.929 . S
C445 C446 1.362 . S
C445 C448 1.378 . S
C445 H460 0.929 . S
C446 C445 1.362 . S
C446 C447 1.366 . S
C447 C444 1.365 . S
C447 C446 1.366 . S
C447 H461 0.930 1_455 S
C448 C445 1.378 . S
C448 N449 1.315 . S
C448 H451 0.930 . S
N449 Co429 2.194 . S
N449 C444 1.328 . S
N449 C448 1.315 . S
H450 C444 0.929 . S
H451 C448 0.930 . S
H452 C440 0.929 . S
H453 C442 0.929 . S
O454 Co429 2.351 . S
O454 C457 1.244 . S
O455 Co429 2.155 . S
O455 C457 1.240 . S
O456 Co429 2.096 . S
O456 C437 1.247 . S
C457 O454 1.244 . S
C457 O455 1.240 . S
H458 C432 0.931 . S
H459 C441 0.931 . S
H460 C445 0.929 . S
H461 C447 0.930 1_655 S
Co462 N466 2.148 . S
Co462 N472 2.128 . S
Co462 N482 2.194 . S
Co462 O487 2.351 . S
Co462 O488 2.155 . S
Co462 O489 2.096 . S
C463 N466 1.301 . S
C463 N467 1.328 . S
C463 H468 0.930 . S
C464 C465 1.333 . S
C464 N466 1.317 . S
C464 H469 0.930 . S
C465 C464 1.333 . S
C465 N467 1.350 . S
C465 H491 0.931 . S
N466 Co462 2.148 . S
N466 C463 1.301 . S
N466 C464 1.317 . S
N467 C463 1.328 . S
N467 C465 1.350 . S
H468 C463 0.930 . S
H469 C464 0.930 . S
C470 O471 1.224 . S
C470 O489 1.247 . S
O471 C470 1.224 . S
N472 Co462 2.128 . S
N472 C473 1.355 . S
N472 C475 1.311 . S
C473 N472 1.355 . S
C473 C474 1.363 . S
C473 H485 0.929 . S
C474 C473 1.363 . S
C474 N476 1.375 . S
C474 H492 0.931 . S
C475 N472 1.311 . S
C475 N476 1.347 . S
C475 H486 0.929 . S
N476 C474 1.375 . S
N476 C475 1.347 . S
C477 C480 1.365 . S
C477 N482 1.328 . S
C477 H483 0.929 . S
C478 C479 1.362 . S
C478 C481 1.378 . S
C478 H493 0.929 . S
C479 C478 1.362 . S
C479 C480 1.366 . S
C480 C477 1.365 . S
C480 C479 1.366 . S
C480 H494 0.930 . S
C481 C478 1.378 . S
C481 N482 1.315 . S
C481 H484 0.930 . S
N482 Co462 2.194 . S
N482 C477 1.328 . S
N482 C481 1.315 . S
H483 C477 0.929 . S
H484 C481 0.930 . S
H485 C473 0.929 . S
H486 C475 0.929 . S
O487 Co462 2.351 . S
O487 C490 1.244 . S
O488 Co462 2.155 . S
O488 C490 1.240 . S
O489 Co462 2.096 . S
O489 C470 1.247 . S
C490 O487 1.244 . S
C490 O488 1.240 . S
H491 C465 0.931 . S
H492 C474 0.931 . S
H493 C478 0.929 . S
H494 C480 0.930 . S
Co495 N499 2.148 . S
Co495 N505 2.128 . S
Co495 N515 2.194 . S
Co495 O520 2.351 . S
Co495 O521 2.155 . S
Co495 O522 2.096 . S
C496 N499 1.301 . S
C496 N500 1.328 . S
C496 H501 0.930 . S
C497 C498 1.333 . S
C497 N499 1.317 . S
C497 H502 0.930 . S
C498 C497 1.333 . S
C498 N500 1.350 . S
C498 H524 0.931 . S
N499 Co495 2.148 . S
N499 C496 1.301 . S
N499 C497 1.317 . S
N500 C496 1.328 . S
N500 C498 1.350 . S
H501 C496 0.930 . S
H502 C497 0.930 . S
C503 O504 1.224 . S
C503 O522 1.247 . S
O504 C503 1.224 . S
N505 Co495 2.128 . S
N505 C506 1.355 . S
N505 C508 1.311 . S
C506 N505 1.355 . S
C506 C507 1.363 . S
C506 H518 0.929 . S
C507 C506 1.363 . S
C507 N509 1.375 . S
C507 H525 0.931 . S
C508 N505 1.311 . S
C508 N509 1.347 . S
C508 H519 0.929 . S
N509 C507 1.375 . S
N509 C508 1.347 . S
C510 C513 1.365 . S
C510 N515 1.328 . S
C510 H516 0.929 . S
C511 C512 1.362 . S
C511 C514 1.378 . S
C511 H526 0.929 . S
C512 C511 1.362 . S
C512 C513 1.366 . S
C513 C510 1.365 . S
C513 C512 1.366 . S
C513 H527 0.930 . S
C514 C511 1.378 . S
C514 N515 1.315 . S
C514 H517 0.930 . S
N515 Co495 2.194 . S
N515 C510 1.328 . S
N515 C514 1.315 . S
H516 C510 0.929 . S
H517 C514 0.930 . S
H518 C506 0.929 . S
H519 C508 0.929 . S
O520 Co495 2.351 . S
O520 C523 1.244 . S
O521 Co495 2.155 . S
O521 C523 1.240 . S
O522 Co495 2.096 . S
O522 C503 1.247 . S
C523 O520 1.244 . S
C523 O521 1.240 . S
H524 C498 0.931 . S
H525 C507 0.931 . S
H526 C511 0.929 . S
H527 C513 0.930 . S
Co528 N532 2.148 . S
Co528 N538 2.128 . S
Co528 N548 2.194 . S
Co528 O553 2.351 . S
Co528 O554 2.155 . S
Co528 O555 2.096 . S
C529 N532 1.301 . S
C529 N533 1.328 . S
C529 H534 0.930 . S
C530 C531 1.333 . S
C530 N532 1.317 . S
C530 H535 0.930 . S
C531 C530 1.333 . S
C531 N533 1.350 . S
C531 H557 0.931 . S
N532 Co528 2.148 . S
N532 C529 1.301 . S
N532 C530 1.317 . S
N533 C529 1.328 . S
N533 C531 1.350 . S
H534 C529 0.930 . S
H535 C530 0.930 . S
C536 O537 1.224 . S
C536 O555 1.247 . S
O537 C536 1.224 . S
N538 Co528 2.128 . S
N538 C539 1.355 . S
N538 C541 1.311 . S
C539 N538 1.355 . S
C539 C540 1.363 . S
C539 H551 0.929 . S
C540 C539 1.363 . S
C540 N542 1.375 . S
C540 H558 0.931 . S
C541 N538 1.311 . S
C541 N542 1.347 . S
C541 H552 0.929 . S
N542 C540 1.375 . S
N542 C541 1.347 . S
C543 C546 1.365 . S
C543 N548 1.328 . S
C543 H549 0.929 . S
C544 C545 1.362 . S
C544 C547 1.378 . S
C544 H559 0.929 . S
C545 C544 1.362 . S
C545 C546 1.366 . S
C546 C543 1.365 . S
C546 C545 1.366 . S
C546 H560 0.930 . S
C547 C544 1.378 . S
C547 N548 1.315 . S
C547 H550 0.930 . S
N548 Co528 2.194 . S
N548 C543 1.328 . S
N548 C547 1.315 . S
H549 C543 0.929 . S
H550 C547 0.930 . S
H551 C539 0.929 . S
H552 C541 0.929 . S
O553 Co528 2.351 . S
O553 C556 1.244 . S
O554 Co528 2.155 . S
O554 C556 1.240 . S
O555 Co528 2.096 . S
O555 C536 1.247 . S
C556 O553 1.244 . S
C556 O554 1.240 . S
H557 C531 0.931 . S
H558 C540 0.931 . S
H559 C544 0.929 . S
H560 C546 0.930 . S
Co561 N565 2.148 . S
Co561 N571 2.128 . S
Co561 N581 2.194 . S
Co561 O586 2.351 . S
Co561 O587 2.155 . S
Co561 O588 2.096 . S
C562 N565 1.301 . S
C562 N566 1.328 . S
C562 H567 0.930 . S
C563 C564 1.333 . S
C563 N565 1.317 . S
C563 H568 0.930 . S
C564 C563 1.333 . S
C564 N566 1.350 . S
C564 H590 0.931 . S
N565 Co561 2.148 . S
N565 C562 1.301 . S
N565 C563 1.317 . S
N566 C562 1.328 . S
N566 C564 1.350 . S
H567 C562 0.930 . S
H568 C563 0.930 . S
C569 O570 1.224 . S
C569 O588 1.247 . S
O570 C569 1.224 . S
N571 Co561 2.128 . S
N571 C572 1.355 . S
N571 C574 1.311 . S
C572 N571 1.355 . S
C572 C573 1.363 . S
C572 H584 0.929 . S
C573 C572 1.363 . S
C573 N575 1.375 . S
C573 H591 0.931 . S
C574 N571 1.311 . S
C574 N575 1.347 . S
C574 H585 0.929 . S
N575 C573 1.375 . S
N575 C574 1.347 . S
C576 C579 1.365 . S
C576 N581 1.328 . S
C576 H582 0.929 . S
C577 C578 1.362 . S
C577 C580 1.378 . S
C577 H592 0.929 . S
C578 C577 1.362 . S
C578 C579 1.366 . S
C579 C576 1.365 . S
C579 C578 1.366 . S
C579 H593 0.930 . S
C580 C577 1.378 . S
C580 N581 1.315 . S
C580 H583 0.930 . S
N581 Co561 2.194 . S
N581 C576 1.328 . S
N581 C580 1.315 . S
H582 C576 0.929 . S
H583 C580 0.930 . S
H584 C572 0.929 . S
H585 C574 0.929 . S
O586 Co561 2.351 . S
O586 C589 1.244 . S
O587 Co561 2.155 . S
O587 C589 1.240 . S
O588 Co561 2.096 . S
O588 C569 1.247 . S
C589 O586 1.244 . S
C589 O587 1.240 . S
H590 C564 0.931 . S
H591 C573 0.931 . S
H592 C577 0.929 . S
H593 C579 0.930 . S
H594 C602 0.929 . S
H595 C604 0.930 . S
H596 C606 0.930 . S
H597 C609 0.929 . S
H598 C612 0.930 . S
H599 C614 0.960 . S
H600 C614 0.960 . S
H601 C614 0.960 . S
C602 H594 0.929 . S
C602 C603 1.377 . S
C602 C604 1.384 . S
C603 C602 1.377 . S
C603 C609 1.390 . S
C604 H595 0.930 . S
C604 C602 1.384 . S
C604 C605 1.372 . S
C605 C604 1.372 . S
C605 C606 1.400 . S
C605 C610 1.490 . S
C606 H596 0.930 . S
C606 C605 1.400 . S
C606 C609 1.386 . S
H607 C623 0.930 . S
H608 C624 0.931 . S
C609 H597 0.929 . S
C609 C603 1.390 . S
C609 C606 1.386 . S
C610 C605 1.490 . S
C610 C612 1.395 . S
C610 C613 1.403 . S
H611 C617 0.930 . S
C612 H598 0.930 . S
C612 C610 1.395 . S
C612 C615 1.403 . S
C613 C610 1.403 . S
C613 C614 1.524 . S
C613 C617 1.400 . S
C614 H599 0.960 . S
C614 H600 0.960 . S
C614 H601 0.960 . S
C614 C613 1.524 . S
C615 C612 1.403 . S
C615 C616 1.392 . S
C615 C619 1.495 . S
C616 C615 1.392 . S
C616 C617 1.385 . S
C616 C618 1.478 . S
C617 H611 0.930 . S
C617 C613 1.400 . S
C617 C616 1.385 . S
C618 C616 1.478 . S
C618 C620 1.381 . S
C618 C624 1.383 . S
C619 C615 1.495 . S
C619 H625 0.959 . S
C619 H626 0.961 . S
C619 H627 0.960 . S
C620 C618 1.381 . S
C620 C621 1.394 . S
C620 H628 0.930 . S
C621 C620 1.394 . S
C621 C622 1.383 . S
C621 H629 0.929 . S
C622 C621 1.383 . S
C622 C623 1.377 . S
C623 H607 0.930 . S
C623 C622 1.377 . S
C623 C624 1.379 . S
C624 H608 0.931 . S
C624 C618 1.383 . S
C624 C623 1.379 . S
H625 C619 0.959 . S
H626 C619 0.961 . S
H627 C619 0.960 . S
H628 C620 0.930 . S
H629 C621 0.929 . S
H630 C638 0.929 . S
H631 C640 0.930 . S
H632 C642 0.930 . S
H633 C645 0.929 . S
H634 C648 0.930 . S
H635 C650 0.960 . S
H636 C650 0.960 . S
H637 C650 0.960 . S
C638 H630 0.929 . S
C638 C639 1.377 . S
C638 C640 1.384 . S
C639 C638 1.377 . S
C639 C645 1.390 . S
C640 H631 0.930 . S
C640 C638 1.384 . S
C640 C641 1.372 . S
C641 C640 1.372 . S
C641 C642 1.400 . S
C641 C646 1.490 . S
C642 H632 0.930 . S
C642 C641 1.400 . S
C642 C645 1.386 . S
H643 C659 0.930 1_545 S
H644 C660 0.931 . S
C645 H633 0.929 . S
C645 C639 1.390 . S
C645 C642 1.386 . S
C646 C641 1.490 . S
C646 C648 1.395 . S
C646 C649 1.403 . S
H647 C653 0.930 . S
C648 H634 0.930 . S
C648 C646 1.395 . S
C648 C651 1.403 . S
C649 C646 1.403 . S
C649 C650 1.524 . S
C649 C653 1.400 . S
C650 H635 0.960 . S
C650 H636 0.960 . S
C650 H637 0.960 . S
C650 C649 1.524 . S
C651 C648 1.403 . S
C651 C652 1.392 . S
C651 C655 1.495 . S
C652 C651 1.392 . S
C652 C653 1.385 . S
C652 C654 1.478 . S
C653 H647 0.930 . S
C653 C649 1.400 . S
C653 C652 1.385 . S
C654 C652 1.478 . S
C654 C656 1.381 . S
C654 C660 1.383 . S
C655 C651 1.495 . S
C655 H661 0.959 . S
C655 H662 0.961 . S
C655 H663 0.960 . S
C656 C654 1.381 . S
C656 C657 1.394 . S
C656 H664 0.930 . S
C657 C656 1.394 . S
C657 C658 1.383 . S
C657 H665 0.929 . S
C658 C657 1.383 . S
C658 C659 1.377 . S
C659 H643 0.930 1_565 S
C659 C658 1.377 . S
C659 C660 1.379 . S
C660 H644 0.931 . S
C660 C654 1.383 . S
C660 C659 1.379 . S
H661 C655 0.959 . S
H662 C655 0.961 . S
H663 C655 0.960 . S
H664 C656 0.930 . S
H665 C657 0.929 . S
H666 C674 0.929 . S
H667 C676 0.930 . S
H668 C678 0.930 . S
H669 C681 0.915 1_655 S
H670 C684 0.930 . S
H671 C686 0.960 . S
H672 C686 0.960 . S
H673 C686 0.960 . S
C674 H666 0.929 . S
C674 C675 1.377 . S
C674 C676 1.384 . S
C675 C674 1.377 . S
C675 C681 1.403 . S
C676 H667 0.930 . S
C676 C674 1.384 . S
C676 C677 1.372 . S
C677 C676 1.372 . S
C677 C678 1.400 . S
C677 C682 1.490 . S
C678 H668 0.930 . S
C678 C677 1.400 . S
C678 C681 1.386 . S
H679 C695 0.930 . S
H680 C696 0.931 . S
C681 H669 0.915 1_455 S
C681 C675 1.403 . S
C681 C678 1.386 . S
C682 C677 1.490 . S
C682 C684 1.395 . S
C682 C685 1.403 . S
H683 C689 0.930 . S
C684 H670 0.930 . S
C684 C682 1.395 . S
C684 C687 1.403 . S
C685 C682 1.403 . S
C685 C686 1.524 . S
C685 C689 1.400 . S
C686 H671 0.960 . S
C686 H672 0.960 . S
C686 H673 0.960 . S
C686 C685 1.524 . S
C687 C684 1.403 . S
C687 C688 1.392 . S
C687 C691 1.495 . S
C688 C687 1.392 . S
C688 C689 1.385 . S
C688 C690 1.478 . S
C689 H683 0.930 . S
C689 C685 1.400 . S
C689 C688 1.385 . S
C690 C688 1.478 . S
C690 C692 1.381 . S
C690 C696 1.383 . S
C691 C687 1.495 . S
C691 H697 0.959 . S
C691 H698 0.961 . S
C691 H699 0.960 . S
C692 C690 1.381 . S
C692 C693 1.394 . S
C692 H700 0.930 . S
C693 C692 1.394 . S
C693 C694 1.383 . S
C693 H701 0.929 . S
C694 C693 1.383 . S
C694 C695 1.377 . S
C695 H679 0.930 . S
C695 C694 1.377 . S
C695 C696 1.379 . S
C696 H680 0.931 . S
C696 C690 1.383 . S
C696 C695 1.379 . S
H697 C691 0.959 . S
H698 C691 0.961 . S
H699 C691 0.960 . S
H700 C692 0.930 . S
H701 C693 0.929 . S
H702 C710 0.929 . S
H703 C712 0.930 . S
H704 C714 0.930 . S
H705 C717 0.929 . S
H706 C720 0.930 . S
H707 C722 0.960 . S
H708 C722 0.960 . S
H709 C722 0.960 . S
C710 H702 0.929 . S
C710 C711 1.377 . S
C710 C712 1.384 . S
C711 C710 1.377 . S
C711 C717 1.390 . S
C712 H703 0.930 . S
C712 C710 1.384 . S
C712 C713 1.372 . S
C713 C712 1.372 . S
C713 C714 1.400 . S
C713 C718 1.490 . S
C714 H704 0.930 . S
C714 C713 1.400 . S
C714 C717 1.386 . S
H715 C731 0.930 . S
H716 C732 0.931 . S
C717 H705 0.929 . S
C717 C711 1.390 . S
C717 C714 1.386 . S
C718 C713 1.490 . S
C718 C720 1.395 . S
C718 C721 1.403 . S
H719 C725 0.930 . S
C720 H706 0.930 . S
C720 C718 1.395 . S
C720 C723 1.403 . S
C721 C718 1.403 . S
C721 C722 1.524 . S
C721 C725 1.400 . S
C722 H707 0.960 . S
C722 H708 0.960 . S
C722 H709 0.960 . S
C722 C721 1.524 . S
C723 C720 1.403 . S
C723 C724 1.392 . S
C723 C727 1.495 . S
C724 C723 1.392 . S
C724 C725 1.385 . S
C724 C726 1.478 . S
C725 H719 0.930 . S
C725 C721 1.400 . S
C725 C724 1.385 . S
C726 C724 1.478 . S
C726 C728 1.381 . S
C726 C732 1.383 . S
C727 C723 1.495 . S
C727 H733 0.959 . S
C727 H734 0.961 . S
C727 H735 0.960 . S
C728 C726 1.381 . S
C728 C729 1.394 . S
C728 H736 0.930 . S
C729 C728 1.394 . S
C729 C730 1.383 . S
C729 H737 0.929 . S
C730 C729 1.383 . S
C730 C731 1.377 . S
C731 H715 0.930 . S
C731 C730 1.377 . S
C731 C732 1.379 . S
C732 H716 0.931 . S
C732 C726 1.383 . S
C732 C731 1.379 . S
H733 C727 0.959 . S
H734 C727 0.961 . S
H735 C727 0.960 . S
H736 C728 0.930 . S
H737 C729 0.929 . S
H738 C746 0.929 . S
H739 C748 0.930 . S
H740 C750 0.930 . S
H741 C753 0.929 . S
H742 C756 0.930 . S
H743 C758 0.960 . S
H744 C758 0.960 . S
H745 C758 0.960 . S
C746 H738 0.929 . S
C746 C747 1.377 . S
C746 C748 1.384 . S
C747 C746 1.377 . S
C747 C753 1.390 . S
C748 H739 0.930 . S
C748 C746 1.384 . S
C748 C749 1.372 . S
C749 C748 1.372 . S
C749 C750 1.400 . S
C749 C754 1.490 . S
C750 H740 0.930 . S
C750 C749 1.400 . S
C750 C753 1.386 . S
H751 C767 0.895 1_565 S
H752 C768 0.931 . S
C753 H741 0.929 . S
C753 C747 1.390 . S
C753 C750 1.386 . S
C754 C749 1.490 . S
C754 C756 1.395 . S
C754 C757 1.403 . S
H755 C761 0.930 . S
C756 H742 0.930 . S
C756 C754 1.395 . S
C756 C759 1.403 . S
C757 C754 1.403 . S
C757 C758 1.524 . S
C757 C761 1.400 . S
C758 H743 0.960 . S
C758 H744 0.960 . S
C758 H745 0.960 . S
C758 C757 1.524 . S
C759 C756 1.403 . S
C759 C760 1.392 . S
C759 C763 1.495 . S
C760 C759 1.392 . S
C760 C761 1.385 . S
C760 C762 1.478 . S
C761 H755 0.930 . S
C761 C757 1.400 . S
C761 C760 1.385 . S
C762 C760 1.478 . S
C762 C764 1.381 . S
C762 C768 1.383 . S
C763 C759 1.495 . S
C763 H769 0.959 . S
C763 H770 0.961 . S
C763 H771 0.960 . S
C764 C762 1.381 . S
C764 C765 1.394 . S
C764 H772 0.930 . S
C765 C764 1.394 . S
C765 C766 1.383 . S
C765 H773 0.929 . S
C766 C765 1.383 . S
C766 C767 1.411 . S
C767 H751 0.895 1_545 S
C767 C766 1.411 . S
C767 C768 1.381 . S
C768 H752 0.931 . S
C768 C762 1.383 . S
C768 C767 1.381 . S
H769 C763 0.959 . S
H770 C763 0.961 . S
H771 C763 0.960 . S
H772 C764 0.930 . S
H773 C765 0.929 . S
H774 C782 0.929 . S
H775 C784 0.930 . S
H776 C786 0.930 . S
H777 C789 0.929 1_455 S
H778 C792 0.930 . S
H779 C794 0.960 . S
H780 C794 0.960 . S
H781 C794 0.960 . S
C782 H774 0.929 . S
C782 C783 1.377 . S
C782 C784 1.384 . S
C783 C782 1.377 . S
C783 C789 1.390 . S
C784 H775 0.930 . S
C784 C782 1.384 . S
C784 C785 1.372 . S
C785 C784 1.372 . S
C785 C786 1.400 . S
C785 C790 1.490 . S
C786 H776 0.930 . S
C786 C785 1.400 . S
C786 C789 1.386 . S
H787 C803 0.930 . S
H788 C804 0.931 . S
C789 H777 0.929 1_655 S
C789 C783 1.390 . S
C789 C786 1.386 . S
C790 C785 1.490 . S
C790 C792 1.395 . S
C790 C793 1.403 . S
H791 C797 0.930 . S
C792 H778 0.930 . S
C792 C790 1.395 . S
C792 C795 1.403 . S
C793 C790 1.403 . S
C793 C794 1.524 . S
C793 C797 1.400 . S
C794 H779 0.960 . S
C794 H780 0.960 . S
C794 H781 0.960 . S
C794 C793 1.524 . S
C795 C792 1.403 . S
C795 C796 1.392 . S
C795 C799 1.495 . S
C796 C795 1.392 . S
C796 C797 1.385 . S
C796 C798 1.478 . S
C797 H791 0.930 . S
C797 C793 1.400 . S
C797 C796 1.385 . S
C798 C796 1.478 . S
C798 C800 1.381 . S
C798 C804 1.383 . S
C799 C795 1.495 . S
C799 H805 0.959 . S
C799 H806 0.961 . S
C799 H807 0.960 . S
C800 C798 1.381 . S
C800 C801 1.394 . S
C800 H808 0.930 . S
C801 C800 1.394 . S
C801 C802 1.383 . S
C801 H809 0.929 . S
C802 C801 1.383 . S
C802 C803 1.377 . S
C803 H787 0.930 . S
C803 C802 1.377 . S
C803 C804 1.379 . S
C804 H788 0.931 . S
C804 C798 1.383 . S
C804 C803 1.379 . S
H805 C799 0.959 . S
H806 C799 0.961 . S
H807 C799 0.960 . S
H808 C800 0.930 . S
H809 C801 0.929 . S
H810 C818 0.929 . S
H811 C820 0.930 . S
H812 C822 0.930 . S
H813 C825 0.929 . S
H814 C828 0.930 . S
H815 C830 0.960 . S
H816 C830 0.960 . S
H817 C830 0.960 . S
C818 H810 0.929 . S
C818 C819 1.377 . S
C818 C820 1.384 . S
C819 C818 1.377 . S
C819 C825 1.390 . S
C820 H811 0.930 . S
C820 C818 1.384 . S
C820 C821 1.372 . S
C821 C820 1.372 . S
C821 C822 1.400 . S
C821 C826 1.490 . S
C822 H812 0.930 . S
C822 C821 1.400 . S
C822 C825 1.386 . S
H823 C839 0.930 . S
H824 C840 0.931 . S
C825 H813 0.929 . S
C825 C819 1.390 . S
C825 C822 1.386 . S
C826 C821 1.490 . S
C826 C828 1.395 . S
C826 C829 1.403 . S
H827 C833 0.930 . S
C828 H814 0.930 . S
C828 C826 1.395 . S
C828 C831 1.403 . S
C829 C826 1.403 . S
C829 C830 1.524 . S
C829 C833 1.400 . S
C830 H815 0.960 . S
C830 H816 0.960 . S
C830 H817 0.960 . S
C830 C829 1.524 . S
C831 C828 1.403 . S
C831 C832 1.392 . S
C831 C835 1.495 . S
C832 C831 1.392 . S
C832 C833 1.385 . S
C832 C834 1.478 . S
C833 H827 0.930 . S
C833 C829 1.400 . S
C833 C832 1.385 . S
C834 C832 1.478 . S
C834 C836 1.381 . S
C834 C840 1.383 . S
C835 C831 1.495 . S
C835 H841 0.959 . S
C835 H842 0.961 . S
C835 H843 0.960 . S
C836 C834 1.381 . S
C836 C837 1.394 . S
C836 H844 0.930 . S
C837 C836 1.394 . S
C837 C838 1.383 . S
C837 H845 0.929 . S
C838 C837 1.383 . S
C838 C839 1.377 . S
C839 H823 0.930 . S
C839 C838 1.377 . S
C839 C840 1.379 . S
C840 H824 0.931 . S
C840 C834 1.383 . S
C840 C839 1.379 . S
H841 C835 0.959 . S
H842 C835 0.961 . S
H843 C835 0.960 . S
H844 C836 0.930 . S
H845 C837 0.929 . S
H846 C854 0.929 . S
H847 C856 0.938 . S
H848 C858 0.930 . S
H849 C861 0.929 . S
H850 C864 0.930 . S
H851 C866 0.960 . S
H852 C866 0.960 . S
H853 C866 0.960 . S
C854 H846 0.929 . S
C854 C855 1.377 . S
C854 C856 1.376 1_565 S
C855 C854 1.377 . S
C855 C861 1.390 . S
C856 H847 0.938 . S
C856 C854 1.376 1_545 S
C856 C857 1.372 1_545 S
C857 C856 1.372 1_565 S
C857 C858 1.400 . S
C857 C862 1.490 1_565 S
C858 H848 0.930 . S
C858 C857 1.400 . S
C858 C861 1.386 . S
H859 C875 0.930 . S
H860 C876 0.931 . S
C861 H849 0.929 . S
C861 C855 1.390 . S
C861 C858 1.386 . S
C862 C857 1.490 1_545 S
C862 C864 1.395 . S
C862 C865 1.403 1_545 S
H863 C869 0.930 . S
C864 H850 0.930 . S
C864 C862 1.395 . S
C864 C867 1.403 . S
C865 C862 1.403 1_565 S
C865 C866 1.524 . S
C865 C869 1.400 1_565 S
C866 H851 0.960 . S
C866 H852 0.960 . S
C866 H853 0.960 . S
C866 C865 1.524 . S
C867 C864 1.403 . S
C867 C868 1.392 . S
C867 C871 1.495 . S
C868 C867 1.392 . S
C868 C869 1.385 . S
C868 C870 1.478 . S
C869 H863 0.930 . S
C869 C865 1.400 1_545 S
C869 C868 1.385 . S
C870 C868 1.478 . S
C870 C872 1.381 . S
C870 C876 1.383 . S
C871 C867 1.495 . S
C871 H877 0.959 . S
C871 H878 0.961 . S
C871 H879 0.960 . S
C872 C870 1.381 . S
C872 C873 1.394 . S
C872 H880 0.930 . S
C873 C872 1.394 . S
C873 C874 1.383 . S
C873 H881 0.929 . S
C874 C873 1.383 . S
C874 C875 1.377 . S
C875 H859 0.930 . S
C875 C874 1.377 . S
C875 C876 1.379 . S
C876 H860 0.931 . S
C876 C870 1.383 . S
C876 C875 1.379 . S
H877 C871 0.959 . S
H878 C871 0.961 . S
H879 C871 0.960 . S
H880 C872 0.930 . S
H881 C873 0.929 . S
H882 C890 0.929 . S
H883 C892 0.930 . S
H884 C894 0.930 . S
H885 C897 0.929 . S
H886 C900 0.930 . S
H887 C902 0.960 . S
H888 C902 0.960 . S
H889 C902 0.960 . S
C890 H882 0.929 . S
C890 C891 1.377 . S
C890 C892 1.384 1_455 S
C891 C890 1.377 . S
C891 C897 1.390 . S
C892 H883 0.930 . S
C892 C890 1.384 1_655 S
C892 C893 1.372 . S
C893 C892 1.372 . S
C893 C894 1.400 1_655 S
C893 C898 1.490 . S
C894 H884 0.930 . S
C894 C893 1.400 1_455 S
C894 C897 1.386 . S
H895 C911 0.930 . S
H896 C912 0.931 . S
C897 H885 0.929 . S
C897 C891 1.390 . S
C897 C894 1.386 . S
C898 C893 1.490 . S
C898 C900 1.395 . S
C898 C901 1.386 1_655 S
H899 C905 0.930 . S
C900 H886 0.930 . S
C900 C898 1.395 . S
C900 C903 1.403 . S
C901 C898 1.386 1_455 S
C901 C902 1.542 . S
C901 C905 1.398 1_455 S
C902 H887 0.960 . S
C902 H888 0.960 . S
C902 H889 0.960 . S
C902 C901 1.542 . S
C903 C900 1.403 . S
C903 C904 1.392 . S
C903 C907 1.495 . S
C904 C903 1.392 . S
C904 C905 1.385 . S
C904 C906 1.478 . S
C905 H899 0.930 . S
C905 C901 1.398 1_655 S
C905 C904 1.385 . S
C906 C904 1.478 . S
C906 C908 1.381 . S
C906 C912 1.383 . S
C907 C903 1.495 . S
C907 H913 0.959 . S
C907 H914 0.961 . S
C907 H915 0.960 . S
C908 C906 1.381 . S
C908 C909 1.394 . S
C908 H916 0.930 . S
C909 C908 1.394 . S
C909 C910 1.383 . S
C909 H917 0.929 . S
C910 C909 1.383 . S
C910 C911 1.377 . S
C911 H895 0.930 . S
C911 C910 1.377 . S
C911 C912 1.379 . S
C912 H896 0.931 . S
C912 C906 1.383 . S
C912 C911 1.379 . S
H913 C907 0.959 . S
H914 C907 0.961 . S
H915 C907 0.960 . S
H916 C908 0.930 . S
H917 C909 0.929 . S
H918 C926 0.929 . S
H919 C928 0.930 . S
H920 C930 0.930 . S
H921 C933 0.929 . S
H922 C936 0.930 . S
H923 C938 0.960 . S
H924 C938 0.960 . S
H925 C938 0.960 . S
C926 H918 0.929 . S
C926 C927 1.377 . S
C926 C928 1.384 . S
C927 C926 1.377 . S
C927 C933 1.390 . S
C928 H919 0.930 . S
C928 C926 1.384 . S
C928 C929 1.372 . S
C929 C928 1.372 . S
C929 C930 1.400 . S
C929 C934 1.490 . S
C930 H920 0.930 . S
C930 C929 1.400 . S
C930 C933 1.386 . S
H931 C947 0.930 . S
H932 C948 0.931 . S
C933 H921 0.929 . S
C933 C927 1.390 . S
C933 C930 1.386 . S
C934 C929 1.490 . S
C934 C936 1.395 . S
C934 C937 1.403 . S
H935 C941 0.930 . S
C936 H922 0.930 . S
C936 C934 1.395 . S
C936 C939 1.403 . S
C937 C934 1.403 . S
C937 C938 1.524 . S
C937 C941 1.400 . S
C938 H923 0.960 . S
C938 H924 0.960 . S
C938 H925 0.960 . S
C938 C937 1.524 . S
C939 C936 1.403 . S
C939 C940 1.392 . S
C939 C943 1.495 . S
C940 C939 1.392 . S
C940 C941 1.385 . S
C940 C942 1.478 . S
C941 H935 0.930 . S
C941 C937 1.400 . S
C941 C940 1.385 . S
C942 C940 1.478 . S
C942 C944 1.381 . S
C942 C948 1.383 . S
C943 C939 1.495 . S
C943 H949 0.959 . S
C943 H950 0.961 . S
C943 H951 0.960 . S
C944 C942 1.381 . S
C944 C945 1.394 . S
C944 H952 0.930 . S
C945 C944 1.394 . S
C945 C946 1.383 . S
C945 H953 0.929 . S
C946 C945 1.383 . S
C946 C947 1.377 . S
C947 H931 0.930 . S
C947 C946 1.377 . S
C947 C948 1.379 . S
C948 H932 0.931 . S
C948 C942 1.383 . S
C948 C947 1.379 . S
H949 C943 0.959 . S
H950 C943 0.961 . S
H951 C943 0.960 . S
H952 C944 0.930 . S
H953 C945 0.929 . S
H954 C962 0.929 . S
H955 C964 0.930 . S
H956 C966 0.930 . S
H957 C969 0.929 . S
H958 C972 0.930 . S
H959 C974 0.960 . S
H960 C974 0.960 . S
H961 C974 0.960 . S
C962 H954 0.929 . S
C962 C963 1.377 . S
C962 C964 1.384 . S
C963 C962 1.377 . S
C963 C969 1.390 . S
C964 H955 0.930 . S
C964 C962 1.384 . S
C964 C965 1.372 . S
C965 C964 1.372 . S
C965 C966 1.400 . S
C965 C970 1.490 . S
C966 H956 0.930 . S
C966 C965 1.400 . S
C966 C969 1.386 . S
H967 C983 0.930 . S
H968 C984 0.931 . S
C969 H957 0.929 . S
C969 C963 1.390 . S
C969 C966 1.386 . S
C970 C965 1.490 . S
C970 C972 1.395 . S
C970 C973 1.403 . S
H971 C977 0.930 . S
C972 H958 0.930 . S
C972 C970 1.395 . S
C972 C975 1.403 . S
C973 C970 1.403 . S
C973 C974 1.524 . S
C973 C977 1.400 . S
C974 H959 0.960 . S
C974 H960 0.960 . S
C974 H961 0.960 . S
C974 C973 1.524 . S
C975 C972 1.403 . S
C975 C976 1.392 . S
C975 C979 1.495 1_565 S
C976 C975 1.392 . S
C976 C977 1.385 . S
C976 C978 1.478 1_565 S
C977 H971 0.930 . S
C977 C973 1.400 . S
C977 C976 1.385 . S
C978 C976 1.478 1_545 S
C978 C980 1.387 . S
C978 C984 1.383 . S
C979 C975 1.495 1_545 S
C979 H985 0.959 . S
C979 H986 0.961 . S
C979 H987 0.960 . S
C980 C978 1.387 . S
C980 C981 1.393 . S
C980 H988 0.927 1_545 S
C981 C980 1.393 . S
C981 C982 1.383 . S
C981 H989 0.929 . S
C982 C981 1.383 . S
C982 C983 1.377 . S
C983 H967 0.930 . S
C983 C982 1.377 . S
C983 C984 1.379 . S
C984 H968 0.931 . S
C984 C978 1.383 . S
C984 C983 1.379 . S
H985 C979 0.959 . S
H986 C979 0.961 . S
H987 C979 0.960 . S
H988 C980 0.927 1_565 S
H989 C981 0.929 . S
H990 C998 0.929 . S
H991 C1000 0.930 . S
H992 C1002 0.930 . S
H993 C1005 0.929 . S
H994 C1008 0.930 . S
H995 C1010 0.960 . S
H996 C1010 0.960 . S
H997 C1010 0.960 . S
C998 H990 0.929 . S
C998 C999 1.377 . S
C998 C1000 1.384 . S
C999 C998 1.377 . S
C999 C1005 1.390 . S
C1000 H991 0.930 . S
C1000 C998 1.384 . S
C1000 C1001 1.372 . S
C1001 C1000 1.372 . S
C1001 C1002 1.400 . S
C1001 C1006 1.490 . S
C1002 H992 0.930 . S
C1002 C1001 1.400 . S
C1002 C1005 1.386 . S
H1003 C1019 0.930 . S
H1004 C1020 0.931 . S
C1005 H993 0.929 . S
C1005 C999 1.390 . S
C1005 C1002 1.386 . S
C1006 C1001 1.490 . S
C1006 C1008 1.395 . S
C1006 C1009 1.403 . S
H1007 C1013 0.930 . S
C1008 H994 0.930 . S
C1008 C1006 1.395 . S
C1008 C1011 1.403 . S
C1009 C1006 1.403 . S
C1009 C1010 1.524 . S
C1009 C1013 1.400 . S
C1010 H995 0.960 . S
C1010 H996 0.960 . S
C1010 H997 0.960 . S
C1010 C1009 1.524 . S
C1011 C1008 1.403 . S
C1011 C1012 1.392 . S
C1011 C1015 1.495 1_455 S
C1012 C1011 1.392 . S
C1012 C1013 1.385 . S
C1012 C1014 1.478 1_455 S
C1013 H1007 0.930 . S
C1013 C1009 1.400 . S
C1013 C1012 1.385 . S
C1014 C1012 1.478 1_655 S
C1014 C1016 1.381 . S
C1014 C1020 1.383 . S
C1015 C1011 1.495 1_655 S
C1015 H1021 0.959 . S
C1015 H1022 0.961 . S
C1015 H1023 0.960 . S
C1016 C1014 1.381 . S
C1016 C1017 1.392 . S
C1016 H1024 0.933 1_655 S
C1017 C1016 1.392 . S
C1017 C1018 1.383 . S
C1017 H1025 0.929 . S
C1018 C1017 1.383 . S
C1018 C1019 1.377 . S
C1019 H1003 0.930 . S
C1019 C1018 1.377 . S
C1019 C1020 1.379 . S
C1020 H1004 0.931 . S
C1020 C1014 1.383 . S
C1020 C1019 1.379 . S
H1021 C1015 0.959 . S
H1022 C1015 0.961 . S
H1023 C1015 0.960 . S
H1024 C1016 0.933 1_455 S
H1025 C1017 0.929 . S
H1026 C1034 0.929 . S
H1027 C1036 0.930 . S
H1028 C1038 0.930 . S
H1029 C1041 0.929 . S
H1030 C1044 0.930 . S
H1031 C1046 0.960 1_655 S
H1032 C1046 0.960 . S
H1033 C1046 0.960 . S
C1034 H1026 0.929 . S
C1034 C1035 1.377 . S
C1034 C1036 1.384 . S
C1035 C1034 1.377 . S
C1035 C1041 1.390 . S
C1036 H1027 0.930 . S
C1036 C1034 1.384 . S
C1036 C1037 1.372 . S
C1037 C1036 1.372 . S
C1037 C1038 1.400 . S
C1037 C1042 1.490 . S
C1038 H1028 0.930 . S
C1038 C1037 1.400 . S
C1038 C1041 1.386 . S
H1039 C1055 0.930 . S
H1040 C1056 0.931 . S
C1041 H1029 0.929 . S
C1041 C1035 1.390 . S
C1041 C1038 1.386 . S
C1042 C1037 1.490 . S
C1042 C1044 1.395 . S
C1042 C1045 1.403 . S
H1043 C1049 0.930 . S
C1044 H1030 0.930 . S
C1044 C1042 1.395 . S
C1044 C1047 1.403 1_455 S
C1045 C1042 1.403 . S
C1045 C1046 1.524 . S
C1045 C1049 1.400 1_455 S
C1046 H1031 0.960 1_455 S
C1046 H1032 0.960 . S
C1046 H1033 0.960 . S
C1046 C1045 1.524 . S
C1047 C1044 1.403 1_655 S
C1047 C1048 1.392 . S
C1047 C1051 1.495 . S
C1048 C1047 1.392 . S
C1048 C1049 1.385 . S
C1048 C1050 1.478 . S
C1049 H1043 0.930 . S
C1049 C1045 1.400 1_655 S
C1049 C1048 1.385 . S
C1050 C1048 1.478 . S
C1050 C1052 1.381 . S
C1050 C1056 1.383 . S
C1051 C1047 1.495 . S
C1051 H1057 0.959 1_655 S
C1051 H1058 0.961 . S
C1051 H1059 0.960 . S
C1052 C1050 1.381 . S
C1052 C1053 1.394 . S
C1052 H1060 0.930 . S
C1053 C1052 1.394 . S
C1053 C1054 1.383 . S
C1053 H1061 0.929 . S
C1054 C1053 1.383 . S
C1054 C1055 1.377 . S
C1055 H1039 0.930 . S
C1055 C1054 1.377 . S
C1055 C1056 1.379 . S
C1056 H1040 0.931 . S
C1056 C1050 1.383 . S
C1056 C1055 1.379 . S
H1057 C1051 0.959 1_455 S
H1058 C1051 0.961 . S
H1059 C1051 0.960 . S
H1060 C1052 0.930 . S
H1061 C1053 0.929 . S
H1062 C1070 0.929 . S
H1063 C1072 0.930 . S
H1064 C1074 0.930 . S
H1065 C1077 0.929 . S
H1066 C1080 0.930 . S
H1067 C1082 0.960 . S
H1068 C1082 0.960 . S
H1069 C1082 0.960 . S
C1070 H1062 0.929 . S
C1070 C1071 1.377 . S
C1070 C1072 1.384 . S
C1071 C1070 1.377 . S
C1071 C1077 1.390 . S
C1072 H1063 0.930 . S
C1072 C1070 1.384 . S
C1072 C1073 1.372 . S
C1073 C1072 1.372 . S
C1073 C1074 1.400 . S
C1073 C1078 1.490 . S
C1074 H1064 0.930 . S
C1074 C1073 1.400 . S
C1074 C1077 1.386 . S
H1075 C1091 0.930 . S
H1076 C1092 0.931 . S
C1077 H1065 0.929 . S
C1077 C1071 1.390 . S
C1077 C1074 1.386 . S
C1078 C1073 1.490 . S
C1078 C1080 1.395 . S
C1078 C1081 1.403 . S
H1079 C1085 0.930 . S
C1080 H1066 0.930 . S
C1080 C1078 1.395 . S
C1080 C1083 1.403 . S
C1081 C1078 1.403 . S
C1081 C1082 1.524 . S
C1081 C1085 1.400 . S
C1082 H1067 0.960 . S
C1082 H1068 0.960 . S
C1082 H1069 0.960 . S
C1082 C1081 1.524 . S
C1083 C1080 1.403 . S
C1083 C1084 1.392 . S
C1083 C1087 1.495 . S
C1084 C1083 1.392 . S
C1084 C1085 1.385 . S
C1084 C1086 1.478 . S
C1085 H1079 0.930 . S
C1085 C1081 1.400 . S
C1085 C1084 1.385 . S
C1086 C1084 1.478 . S
C1086 C1088 1.381 . S
C1086 C1092 1.383 . S
C1087 C1083 1.495 . S
C1087 H1093 0.959 . S
C1087 H1094 0.961 . S
C1087 H1095 0.960 . S
C1088 C1086 1.381 . S
C1088 C1089 1.394 . S
C1088 H1096 0.930 . S
C1089 C1088 1.394 . S
C1089 C1090 1.383 . S
C1089 H1097 0.929 . S
C1090 C1089 1.383 . S
C1090 C1091 1.377 . S
C1091 H1075 0.930 . S
C1091 C1090 1.377 . S
C1091 C1092 1.379 . S
C1092 H1076 0.931 . S
C1092 C1086 1.383 . S
C1092 C1091 1.379 . S
H1093 C1087 0.959 . S
H1094 C1087 0.961 . S
H1095 C1087 0.960 . S
H1096 C1088 0.930 . S
H1097 C1089 0.929 . S
H1098 C1106 0.929 . S
H1099 C1108 0.930 . S
H1100 C1110 0.930 . S
H1101 C1113 0.929 . S
H1102 C1116 0.930 . S
H1103 C1118 0.976 . S
H1104 C1118 0.966 . S
H1105 C1118 0.929 1_565 S
C1106 H1098 0.929 . S
C1106 C1107 1.377 . S
C1106 C1108 1.384 . S
C1107 C1106 1.377 . S
C1107 C1113 1.390 . S
C1108 H1099 0.930 . S
C1108 C1106 1.384 . S
C1108 C1109 1.372 . S
C1109 C1108 1.372 . S
C1109 C1110 1.400 . S
C1109 C1114 1.490 . S
C1110 H1100 0.930 . S
C1110 C1109 1.400 . S
C1110 C1113 1.386 . S
H1111 C1127 0.930 . S
H1112 C1128 0.931 . S
C1113 H1101 0.929 . S
C1113 C1107 1.390 . S
C1113 C1110 1.386 . S
C1114 C1109 1.490 . S
C1114 C1116 1.395 . S
C1114 C1117 1.403 . S
H1115 C1121 0.930 . S
C1116 H1102 0.930 . S
C1116 C1114 1.395 . S
C1116 C1119 1.403 . S
C1117 C1114 1.403 . S
C1117 C1118 1.532 1_565 S
C1117 C1121 1.400 1_565 S
C1118 H1103 0.976 . S
C1118 H1104 0.966 . S
C1118 H1105 0.929 1_545 S
C1118 C1117 1.532 1_545 S
C1119 C1116 1.403 . S
C1119 C1120 1.392 1_565 S
C1119 C1123 1.495 . S
C1120 C1119 1.392 1_545 S
C1120 C1121 1.385 . S
C1120 C1122 1.478 . S
C1121 H1115 0.930 . S
C1121 C1117 1.400 1_545 S
C1121 C1120 1.385 . S
C1122 C1120 1.478 . S
C1122 C1124 1.381 . S
C1122 C1128 1.383 . S
C1123 C1119 1.495 . S
C1123 H1129 0.959 . S
C1123 H1130 0.961 . S
C1123 H1131 0.960 1_565 S
C1124 C1122 1.381 . S
C1124 C1125 1.394 . S
C1124 H1132 0.930 . S
C1125 C1124 1.394 . S
C1125 C1126 1.383 . S
C1125 H1133 0.929 . S
C1126 C1125 1.383 . S
C1126 C1127 1.377 . S
C1127 H1111 0.930 . S
C1127 C1126 1.377 . S
C1127 C1128 1.379 . S
C1128 H1112 0.931 . S
C1128 C1122 1.383 . S
C1128 C1127 1.379 . S
H1129 C1123 0.959 . S
H1130 C1123 0.961 . S
H1131 C1123 0.960 1_545 S
H1132 C1124 0.930 . S
H1133 C1125 0.929 . S
H1134 C1142 0.929 . S
H1135 C1144 0.930 . S
H1136 C1146 0.930 . S
H1137 C1149 0.929 . S
H1138 C1152 0.930 . S
H1139 C1154 0.960 1_565 S
H1140 C1154 0.960 . S
H1141 C1154 0.960 . S
C1142 H1134 0.929 . S
C1142 C1143 1.377 . S
C1142 C1144 1.384 . S
C1143 C1142 1.377 . S
C1143 C1149 1.390 . S
C1144 H1135 0.930 . S
C1144 C1142 1.384 . S
C1144 C1145 1.372 . S
C1145 C1144 1.372 . S
C1145 C1146 1.400 . S
C1145 C1150 1.490 . S
C1146 H1136 0.930 . S
C1146 C1145 1.400 . S
C1146 C1149 1.386 . S
H1147 C1163 0.930 . S
H1148 C1164 0.931 . S
C1149 H1137 0.929 . S
C1149 C1143 1.390 . S
C1149 C1146 1.386 . S
C1150 C1145 1.490 . S
C1150 C1152 1.395 . S
C1150 C1153 1.403 . S
H1151 C1157 0.930 . S
C1152 H1138 0.930 . S
C1152 C1150 1.395 . S
C1152 C1155 1.403 1_545 S
C1153 C1150 1.403 . S
C1153 C1154 1.524 . S
C1153 C1157 1.400 1_545 S
C1154 H1139 0.960 1_545 S
C1154 H1140 0.960 . S
C1154 H1141 0.960 . S
C1154 C1153 1.524 . S
C1155 C1152 1.403 1_565 S
C1155 C1156 1.392 . S
C1155 C1159 1.495 . S
C1156 C1155 1.392 . S
C1156 C1157 1.385 . S
C1156 C1158 1.478 . S
C1157 H1151 0.930 . S
C1157 C1153 1.400 1_565 S
C1157 C1156 1.385 . S
C1158 C1156 1.478 . S
C1158 C1160 1.381 . S
C1158 C1164 1.383 . S
C1159 C1155 1.495 . S
C1159 H1165 0.959 1_565 S
C1159 H1166 0.961 . S
C1159 H1167 0.960 . S
C1160 C1158 1.381 . S
C1160 C1161 1.394 . S
C1160 H1168 0.930 . S
C1161 C1160 1.394 . S
C1161 C1162 1.383 . S
C1161 H1169 0.929 . S
C1162 C1161 1.383 . S
C1162 C1163 1.377 . S
C1163 H1147 0.930 . S
C1163 C1162 1.377 . S
C1163 C1164 1.379 . S
C1164 H1148 0.931 . S
C1164 C1158 1.383 . S
C1164 C1163 1.379 . S
H1165 C1159 0.959 1_545 S
H1166 C1159 0.961 . S
H1167 C1159 0.960 . S
H1168 C1160 0.930 . S
H1169 C1161 0.929 . S
H1170 C1178 0.929 . S
H1171 C1180 0.930 . S
H1172 C1182 0.930 . S
H1173 C1185 0.929 . S
H1174 C1188 0.930 . S
H1175 C1190 0.960 . S
H1176 C1190 0.960 . S
H1177 C1190 0.960 . S
C1178 H1170 0.929 . S
C1178 C1179 1.377 . S
C1178 C1180 1.384 . S
C1179 C1178 1.377 . S
C1179 C1185 1.390 . S
C1180 H1171 0.930 . S
C1180 C1178 1.384 . S
C1180 C1181 1.372 . S
C1181 C1180 1.372 . S
C1181 C1182 1.400 . S
C1181 C1186 1.490 . S
C1182 H1172 0.930 . S
C1182 C1181 1.400 . S
C1182 C1185 1.386 . S
H1183 C1199 0.930 . S
H1184 C1200 0.931 . S
C1185 H1173 0.929 . S
C1185 C1179 1.390 . S
C1185 C1182 1.386 . S
C1186 C1181 1.490 . S
C1186 C1188 1.395 . S
C1186 C1189 1.403 . S
H1187 C1193 0.930 . S
C1188 H1174 0.930 . S
C1188 C1186 1.395 . S
C1188 C1191 1.403 1_455 S
C1189 C1186 1.403 . S
C1189 C1190 1.524 . S
C1189 C1193 1.400 1_455 S
C1190 H1175 0.960 . S
C1190 H1176 0.960 . S
C1190 H1177 0.960 . S
C1190 C1189 1.524 . S
C1191 C1188 1.403 1_655 S
C1191 C1192 1.392 . S
C1191 C1195 1.495 . S
C1192 C1191 1.392 . S
C1192 C1193 1.385 . S
C1192 C1194 1.478 . S
C1193 H1187 0.930 . S
C1193 C1189 1.400 1_655 S
C1193 C1192 1.385 . S
C1194 C1192 1.478 . S
C1194 C1196 1.381 . S
C1194 C1200 1.383 . S
C1195 C1191 1.495 . S
C1195 H1201 0.959 . S
C1195 H1202 0.961 . S
C1195 H1203 0.960 . S
C1196 C1194 1.381 . S
C1196 C1197 1.394 . S
C1196 H1204 0.930 . S
C1197 C1196 1.394 . S
C1197 C1198 1.383 . S
C1197 H1205 0.929 . S
C1198 C1197 1.383 . S
C1198 C1199 1.377 . S
C1199 H1183 0.930 . S
C1199 C1198 1.377 . S
C1199 C1200 1.379 . S
C1200 H1184 0.931 . S
C1200 C1194 1.383 . S
C1200 C1199 1.379 . S
H1201 C1195 0.959 . S
H1202 C1195 0.961 . S
H1203 C1195 0.960 . S
H1204 C1196 0.930 . S
H1205 C1197 0.929 . S
H1206 C1214 0.929 . S
H1207 C1216 0.930 . S
H1208 C1218 0.930 . S
H1209 C1221 0.929 . S
H1210 C1224 0.930 . S
H1211 C1226 0.960 . S
H1212 C1226 0.960 . S
H1213 C1226 0.960 . S
C1214 H1206 0.929 . S
C1214 C1215 1.377 . S
C1214 C1216 1.384 . S
C1215 C1214 1.377 . S
C1215 C1221 1.390 . S
C1216 H1207 0.930 . S
C1216 C1214 1.384 . S
C1216 C1217 1.372 . S
C1217 C1216 1.372 . S
C1217 C1218 1.400 . S
C1217 C1222 1.490 . S
C1218 H1208 0.930 . S
C1218 C1217 1.400 . S
C1218 C1221 1.386 . S
H1219 C1235 0.930 . S
H1220 C1236 0.931 . S
C1221 H1209 0.929 . S
C1221 C1215 1.390 . S
C1221 C1218 1.386 . S
C1222 C1217 1.490 . S
C1222 C1224 1.395 . S
C1222 C1225 1.403 . S
H1223 C1229 0.930 . S
C1224 H1210 0.930 . S
C1224 C1222 1.395 . S
C1224 C1227 1.403 . S
C1225 C1222 1.403 . S
C1225 C1226 1.524 . S
C1225 C1229 1.400 . S
C1226 H1211 0.960 . S
C1226 H1212 0.960 . S
C1226 H1213 0.960 . S
C1226 C1225 1.524 . S
C1227 C1224 1.403 . S
C1227 C1228 1.392 . S
C1227 C1231 1.495 . S
C1228 C1227 1.392 . S
C1228 C1229 1.385 . S
C1228 C1230 1.478 . S
C1229 H1223 0.930 . S
C1229 C1225 1.400 . S
C1229 C1228 1.385 . S
C1230 C1228 1.478 . S
C1230 C1232 1.381 . S
C1230 C1236 1.383 . S
C1231 C1227 1.495 . S
C1231 H1237 0.959 . S
C1231 H1238 0.961 . S
C1231 H1239 0.960 . S
C1232 C1230 1.381 . S
C1232 C1233 1.394 . S
C1232 H1240 0.930 . S
C1233 C1232 1.394 . S
C1233 C1234 1.383 . S
C1233 H1241 0.929 . S
C1234 C1233 1.383 . S
C1234 C1235 1.377 . S
C1235 H1219 0.930 . S
C1235 C1234 1.377 . S
C1235 C1236 1.379 . S
C1236 H1220 0.931 . S
C1236 C1230 1.383 . S
C1236 C1235 1.379 . S
H1237 C1231 0.959 . S
H1238 C1231 0.961 . S
H1239 C1231 0.960 . S
H1240 C1232 0.930 . S
H1241 C1233 0.929 . S
H1242 C1250 0.929 . S
H1243 C1252 0.930 . S
H1244 C1254 0.930 . S
H1245 C1257 0.929 . S
H1246 C1260 0.930 . S
H1247 C1262 0.960 . S
H1248 C1262 0.960 . S
H1249 C1262 0.960 . S
C1250 H1242 0.929 . S
C1250 C1251 1.377 . S
C1250 C1252 1.384 . S
C1251 C1250 1.377 . S
C1251 C1257 1.390 . S
C1252 H1243 0.930 . S
C1252 C1250 1.384 . S
C1252 C1253 1.372 . S
C1253 C1252 1.372 . S
C1253 C1254 1.400 . S
C1253 C1258 1.490 . S
C1254 H1244 0.930 . S
C1254 C1253 1.400 . S
C1254 C1257 1.386 . S
H1255 C1271 0.930 . S
H1256 C1272 0.931 . S
C1257 H1245 0.929 . S
C1257 C1251 1.390 . S
C1257 C1254 1.386 . S
C1258 C1253 1.490 . S
C1258 C1260 1.395 . S
C1258 C1261 1.403 . S
H1259 C1265 0.930 . S
C1260 H1246 0.930 . S
C1260 C1258 1.395 . S
C1260 C1263 1.403 . S
C1261 C1258 1.403 . S
C1261 C1262 1.524 . S
C1261 C1265 1.400 . S
C1262 H1247 0.960 . S
C1262 H1248 0.960 . S
C1262 H1249 0.960 . S
C1262 C1261 1.524 . S
C1263 C1260 1.403 . S
C1263 C1264 1.392 . S
C1263 C1267 1.495 . S
C1264 C1263 1.392 . S
C1264 C1265 1.385 . S
C1264 C1266 1.478 . S
C1265 H1259 0.930 . S
C1265 C1261 1.400 . S
C1265 C1264 1.385 . S
C1266 C1264 1.478 . S
C1266 C1268 1.381 . S
C1266 C1272 1.383 . S
C1267 C1263 1.495 . S
C1267 H1273 0.959 . S
C1267 H1274 0.961 . S
C1267 H1275 0.960 . S
C1268 C1266 1.381 . S
C1268 C1269 1.394 . S
C1268 H1276 0.930 . S
C1269 C1268 1.394 . S
C1269 C1270 1.383 . S
C1269 H1277 0.929 . S
C1270 C1269 1.383 . S
C1270 C1271 1.377 . S
C1271 H1255 0.930 . S
C1271 C1270 1.377 . S
C1271 C1272 1.379 . S
C1272 H1256 0.931 . S
C1272 C1266 1.383 . S
C1272 C1271 1.379 . S
H1273 C1267 0.959 . S
H1274 C1267 0.961 . S
H1275 C1267 0.960 . S
H1276 C1268 0.930 . S
H1277 C1269 0.929 . S
H1278 C1286 0.929 . S
H1279 C1288 0.930 . S
H1280 C1290 0.930 . S
H1281 C1293 0.929 . S
H1282 C1296 0.930 . S
H1283 C1298 0.960 . S
H1284 C1298 0.960 . S
H1285 C1298 0.960 . S
C1286 H1278 0.929 . S
C1286 C1287 1.377 . S
C1286 C1288 1.384 . S
C1287 C1286 1.377 . S
C1287 C1293 1.390 . S
C1288 H1279 0.930 . S
C1288 C1286 1.384 . S
C1288 C1289 1.372 . S
C1289 C1288 1.372 . S
C1289 C1290 1.400 . S
C1289 C1294 1.490 . S
C1290 H1280 0.930 . S
C1290 C1289 1.400 . S
C1290 C1293 1.386 . S
H1291 C1307 0.930 . S
H1292 C1308 0.931 . S
C1293 H1281 0.929 . S
C1293 C1287 1.390 . S
C1293 C1290 1.386 . S
C1294 C1289 1.490 . S
C1294 C1296 1.395 . S
C1294 C1297 1.403 . S
H1295 C1301 0.930 . S
C1296 H1282 0.930 . S
C1296 C1294 1.395 . S
C1296 C1299 1.403 . S
C1297 C1294 1.403 . S
C1297 C1298 1.524 . S
C1297 C1301 1.400 . S
C1298 H1283 0.960 . S
C1298 H1284 0.960 . S
C1298 H1285 0.960 . S
C1298 C1297 1.524 . S
C1299 C1296 1.403 . S
C1299 C1300 1.392 . S
C1299 C1303 1.495 . S
C1300 C1299 1.392 . S
C1300 C1301 1.385 . S
C1300 C1302 1.478 . S
C1301 H1295 0.930 . S
C1301 C1297 1.400 . S
C1301 C1300 1.385 . S
C1302 C1300 1.478 . S
C1302 C1304 1.381 . S
C1302 C1308 1.383 . S
C1303 C1299 1.495 . S
C1303 H1309 0.959 . S
C1303 H1310 0.961 . S
C1303 H1311 0.960 . S
C1304 C1302 1.381 . S
C1304 C1305 1.394 . S
C1304 H1312 0.930 . S
C1305 C1304 1.394 . S
C1305 C1306 1.383 . S
C1305 H1313 0.929 . S
C1306 C1305 1.383 . S
C1306 C1307 1.377 . S
C1307 H1291 0.930 . S
C1307 C1306 1.377 . S
C1307 C1308 1.379 . S
C1308 H1292 0.931 . S
C1308 C1302 1.383 . S
C1308 C1307 1.379 . S
H1309 C1303 0.959 . S
H1310 C1303 0.961 . S
H1311 C1303 0.960 . S
H1312 C1304 0.930 . S
H1313 C1305 0.929 . S
H1314 C1322 0.929 . S
H1315 C1324 0.930 . S
H1316 C1326 0.930 . S
H1317 C1329 0.929 . S
H1318 C1332 0.930 . S
H1319 C1334 0.960 . S
H1320 C1334 0.960 . S
H1321 C1334 0.960 . S
C1322 H1314 0.929 . S
C1322 C1323 1.377 . S
C1322 C1324 1.384 . S
C1323 C1322 1.377 . S
C1323 C1329 1.390 . S
C1324 H1315 0.930 . S
C1324 C1322 1.384 . S
C1324 C1325 1.372 . S
C1325 C1324 1.372 . S
C1325 C1326 1.400 . S
C1325 C1330 1.490 . S
C1326 H1316 0.930 . S
C1326 C1325 1.400 . S
C1326 C1329 1.386 . S
H1327 C1343 0.930 . S
H1328 C1344 0.931 . S
C1329 H1317 0.929 . S
C1329 C1323 1.390 . S
C1329 C1326 1.386 . S
C1330 C1325 1.490 . S
C1330 C1332 1.395 . S
C1330 C1333 1.403 . S
H1331 C1337 0.930 . S
C1332 H1318 0.930 . S
C1332 C1330 1.395 . S
C1332 C1335 1.403 . S
C1333 C1330 1.403 . S
C1333 C1334 1.524 . S
C1333 C1337 1.400 . S
C1334 H1319 0.960 . S
C1334 H1320 0.960 . S
C1334 H1321 0.960 . S
C1334 C1333 1.524 . S
C1335 C1332 1.403 . S
C1335 C1336 1.392 . S
C1335 C1339 1.495 . S
C1336 C1335 1.392 . S
C1336 C1337 1.385 . S
C1336 C1338 1.478 . S
C1337 H1331 0.930 . S
C1337 C1333 1.400 . S
C1337 C1336 1.385 . S
C1338 C1336 1.478 . S
C1338 C1340 1.381 . S
C1338 C1344 1.383 . S
C1339 C1335 1.495 . S
C1339 H1345 0.959 . S
C1339 H1346 0.961 . S
C1339 H1347 0.960 . S
C1340 C1338 1.381 . S
C1340 C1341 1.394 . S
C1340 H1348 0.930 . S
C1341 C1340 1.394 . S
C1341 C1342 1.383 . S
C1341 H1349 0.929 . S
C1342 C1341 1.383 . S
C1342 C1343 1.377 . S
C1343 H1327 0.930 . S
C1343 C1342 1.377 . S
C1343 C1344 1.379 . S
C1344 H1328 0.931 . S
C1344 C1338 1.383 . S
C1344 C1343 1.379 . S
H1345 C1339 0.959 . S
H1346 C1339 0.961 . S
H1347 C1339 0.960 . S
H1348 C1340 0.930 . S
H1349 C1341 0.929 . S
H1350 C1358 0.929 . S
H1351 C1360 0.930 . S
H1352 C1362 0.930 . S
H1353 C1365 0.929 . S
H1354 C1368 0.930 . S
H1355 C1370 0.960 . S
H1356 C1370 0.960 . S
H1357 C1370 0.960 . S
C1358 H1350 0.929 . S
C1358 C1359 1.377 . S
C1358 C1360 1.384 . S
C1359 C1358 1.377 . S
C1359 C1365 1.390 . S
C1360 H1351 0.930 . S
C1360 C1358 1.384 . S
C1360 C1361 1.372 . S
C1361 C1360 1.372 . S
C1361 C1362 1.400 . S
C1361 C1366 1.490 . S
C1362 H1352 0.930 . S
C1362 C1361 1.400 . S
C1362 C1365 1.386 . S
H1363 C1379 0.930 . S
H1364 C1380 0.931 . S
C1365 H1353 0.929 . S
C1365 C1359 1.390 . S
C1365 C1362 1.386 . S
C1366 C1361 1.490 . S
C1366 C1368 1.395 . S
C1366 C1369 1.403 . S
H1367 C1373 0.930 . S
C1368 H1354 0.930 . S
C1368 C1366 1.395 . S
C1368 C1371 1.403 . S
C1369 C1366 1.403 . S
C1369 C1370 1.524 . S
C1369 C1373 1.400 . S
C1370 H1355 0.960 . S
C1370 H1356 0.960 . S
C1370 H1357 0.960 . S
C1370 C1369 1.524 . S
C1371 C1368 1.403 . S
C1371 C1372 1.392 . S
C1371 C1375 1.495 . S
C1372 C1371 1.392 . S
C1372 C1373 1.385 . S
C1372 C1374 1.478 . S
C1373 H1367 0.930 . S
C1373 C1369 1.400 . S
C1373 C1372 1.385 . S
C1374 C1372 1.478 . S
C1374 C1376 1.381 . S
C1374 C1380 1.383 . S
C1375 C1371 1.495 . S
C1375 H1381 0.959 . S
C1375 H1382 0.961 . S
C1375 H1383 0.960 . S
C1376 C1374 1.381 . S
C1376 C1377 1.394 . S
C1376 H1384 0.930 . S
C1377 C1376 1.394 . S
C1377 C1378 1.383 . S
C1377 H1385 0.929 . S
C1378 C1377 1.383 . S
C1378 C1379 1.377 . S
C1379 H1363 0.930 . S
C1379 C1378 1.377 . S
C1379 C1380 1.379 . S
C1380 H1364 0.931 . S
C1380 C1374 1.383 . S
C1380 C1379 1.379 . S
H1381 C1375 0.959 . S
H1382 C1375 0.961 . S
H1383 C1375 0.960 . S
H1384 C1376 0.930 . S
H1385 C1377 0.929 . S
H1386 C1394 0.929 . S
H1387 C1396 0.930 . S
H1388 C1398 0.930 . S
H1389 C1401 0.929 . S
H1390 C1404 0.930 . S
H1391 C1406 0.960 . S
H1392 C1406 0.960 . S
H1393 C1406 0.960 . S
C1394 H1386 0.929 . S
C1394 C1395 1.377 . S
C1394 C1396 1.384 . S
C1395 C1394 1.377 . S
C1395 C1401 1.390 . S
C1396 H1387 0.930 . S
C1396 C1394 1.384 . S
C1396 C1397 1.372 . S
C1397 C1396 1.372 . S
C1397 C1398 1.400 . S
C1397 C1402 1.490 . S
C1398 H1388 0.930 . S
C1398 C1397 1.400 . S
C1398 C1401 1.386 . S
H1399 C1415 0.930 . S
H1400 C1416 0.931 . S
C1401 H1389 0.929 . S
C1401 C1395 1.390 . S
C1401 C1398 1.386 . S
C1402 C1397 1.490 . S
C1402 C1404 1.395 . S
C1402 C1405 1.403 . S
H1403 C1409 0.930 . S
C1404 H1390 0.930 . S
C1404 C1402 1.395 . S
C1404 C1407 1.403 . S
C1405 C1402 1.403 . S
C1405 C1406 1.524 . S
C1405 C1409 1.400 . S
C1406 H1391 0.960 . S
C1406 H1392 0.960 . S
C1406 H1393 0.960 . S
C1406 C1405 1.524 . S
C1407 C1404 1.403 . S
C1407 C1408 1.392 . S
C1407 C1411 1.495 . S
C1408 C1407 1.392 . S
C1408 C1409 1.385 . S
C1408 C1410 1.478 . S
C1409 H1403 0.930 . S
C1409 C1405 1.400 . S
C1409 C1408 1.385 . S
C1410 C1408 1.478 . S
C1410 C1412 1.381 . S
C1410 C1416 1.383 . S
C1411 C1407 1.495 . S
C1411 H1417 0.959 . S
C1411 H1418 0.961 . S
C1411 H1419 0.960 . S
C1412 C1410 1.381 . S
C1412 C1413 1.394 . S
C1412 H1420 0.930 . S
C1413 C1412 1.394 . S
C1413 C1414 1.383 . S
C1413 H1421 0.929 . S
C1414 C1413 1.383 . S
C1414 C1415 1.377 . S
C1415 H1399 0.930 . S
C1415 C1414 1.377 . S
C1415 C1416 1.379 . S
C1416 H1400 0.931 . S
C1416 C1410 1.383 . S
C1416 C1415 1.379 . S
H1417 C1411 0.959 . S
H1418 C1411 0.961 . S
H1419 C1411 0.960 . S
H1420 C1412 0.930 . S
H1421 C1413 0.929 . S
H1422 C1430 0.929 . S
H1423 C1432 0.930 . S
H1424 C1434 0.930 . S
H1425 C1437 0.929 . S
H1426 C1440 0.930 . S
H1427 C1442 0.960 . S
H1428 C1442 0.960 . S
H1429 C1442 0.960 . S
C1430 H1422 0.929 . S
C1430 C1431 1.377 . S
C1430 C1432 1.384 . S
C1431 C1430 1.377 . S
C1431 C1437 1.390 . S
C1432 H1423 0.930 . S
C1432 C1430 1.384 . S
C1432 C1433 1.372 . S
C1433 C1432 1.372 . S
C1433 C1434 1.400 . S
C1433 C1438 1.490 . S
C1434 H1424 0.930 . S
C1434 C1433 1.400 . S
C1434 C1437 1.386 . S
H1435 C1451 0.930 . S
H1436 C1452 0.931 . S
C1437 H1425 0.929 . S
C1437 C1431 1.390 . S
C1437 C1434 1.386 . S
C1438 C1433 1.490 . S
C1438 C1440 1.395 . S
C1438 C1441 1.403 . S
H1439 C1445 0.930 . S
C1440 H1426 0.930 . S
C1440 C1438 1.395 . S
C1440 C1443 1.403 . S
C1441 C1438 1.403 . S
C1441 C1442 1.524 . S
C1441 C1445 1.400 . S
C1442 H1427 0.960 . S
C1442 H1428 0.960 . S
C1442 H1429 0.960 . S
C1442 C1441 1.524 . S
C1443 C1440 1.403 . S
C1443 C1444 1.392 . S
C1443 C1447 1.495 . S
C1444 C1443 1.392 . S
C1444 C1445 1.385 . S
C1444 C1446 1.478 . S
C1445 H1439 0.930 . S
C1445 C1441 1.400 . S
C1445 C1444 1.385 . S
C1446 C1444 1.478 . S
C1446 C1448 1.381 . S
C1446 C1452 1.383 . S
C1447 C1443 1.495 . S
C1447 H1453 0.959 . S
C1447 H1454 0.961 . S
C1447 H1455 0.960 . S
C1448 C1446 1.381 . S
C1448 C1449 1.394 . S
C1448 H1456 0.930 . S
C1449 C1448 1.394 . S
C1449 C1450 1.383 . S
C1449 H1457 0.929 . S
C1450 C1449 1.383 . S
C1450 C1451 1.377 . S
C1451 H1435 0.930 . S
C1451 C1450 1.377 . S
C1451 C1452 1.379 . S
C1452 H1436 0.931 . S
C1452 C1446 1.383 . S
C1452 C1451 1.379 . S
H1453 C1447 0.959 . S
H1454 C1447 0.961 . S
H1455 C1447 0.960 . S
H1456 C1448 0.930 . S
H1457 C1449 0.929 . S
H1458 C1466 0.953 . S
H1459 C1468 0.930 1_455 S
H1460 C1470 0.930 . S
H1461 C1473 0.929 . S
H1462 C1476 0.930 . S
H1463 C1478 0.960 . S
H1464 C1478 0.960 . S
H1465 C1478 0.960 . S
C1466 H1458 0.953 . S
C1466 C1467 1.377 . S
C1466 C1468 1.384 . S
C1467 C1466 1.377 . S
C1467 C1473 1.390 . S
C1468 H1459 0.930 1_655 S
C1468 C1466 1.384 . S
C1468 C1469 1.372 . S
C1469 C1468 1.372 . S
C1469 C1470 1.400 . S
C1469 C1474 1.490 . S
C1470 H1460 0.930 . S
C1470 C1469 1.400 . S
C1470 C1473 1.386 . S
H1471 C1487 0.930 1_655 S
H1472 C1488 0.931 . S
C1473 H1461 0.929 . S
C1473 C1467 1.390 . S
C1473 C1470 1.386 . S
C1474 C1469 1.490 . S
C1474 C1476 1.395 . S
C1474 C1477 1.403 1_655 S
H1475 C1481 0.930 . S
C1476 H1462 0.930 . S
C1476 C1474 1.395 . S
C1476 C1479 1.403 1_554 S
C1477 C1474 1.403 1_455 S
C1477 C1478 1.524 . S
C1477 C1481 1.400 1_554 S
C1478 H1463 0.960 . S
C1478 H1464 0.960 . S
C1478 H1465 0.960 . S
C1478 C1477 1.524 . S
C1479 C1476 1.403 1_556 S
C1479 C1480 1.392 1_655 S
C1479 C1483 1.495 . S
C1480 C1479 1.392 1_455 S
C1480 C1481 1.385 . S
C1480 C1482 1.478 . S
C1481 H1475 0.930 . S
C1481 C1477 1.400 1_556 S
C1481 C1480 1.385 . S
C1482 C1480 1.478 . S
C1482 C1484 1.381 . S
C1482 C1488 1.383 1_455 S
C1483 C1479 1.495 . S
C1483 H1489 0.959 . S
C1483 H1490 0.961 . S
C1483 H1491 0.960 . S
C1484 C1482 1.381 . S
C1484 C1485 1.394 . S
C1484 H1492 0.930 . S
C1485 C1484 1.394 . S
C1485 C1486 1.383 . S
C1485 H1493 0.929 . S
C1486 C1485 1.383 . S
C1486 C1487 1.377 . S
C1487 H1471 0.930 1_455 S
C1487 C1486 1.377 . S
C1487 C1488 1.379 1_455 S
C1488 H1472 0.931 . S
C1488 C1482 1.383 1_655 S
C1488 C1487 1.379 1_655 S
H1489 C1483 0.959 . S
H1490 C1483 0.961 . S
H1491 C1483 0.960 . S
H1492 C1484 0.930 . S
H1493 C1485 0.929 . S
H1494 C1502 0.929 . S
H1495 C1504 0.930 . S
H1496 C1506 0.930 . S
H1497 C1509 0.929 . S
H1498 C1512 0.930 . S
H1499 C1514 0.960 . S
H1500 C1514 0.960 . S
H1501 C1514 0.960 . S
C1502 H1494 0.929 . S
C1502 C1503 1.377 . S
C1502 C1504 1.384 . S
C1503 C1502 1.377 . S
C1503 C1509 1.390 . S
C1504 H1495 0.930 . S
C1504 C1502 1.384 . S
C1504 C1505 1.372 . S
C1505 C1504 1.372 . S
C1505 C1506 1.400 . S
C1505 C1510 1.490 . S
C1506 H1496 0.930 . S
C1506 C1505 1.400 . S
C1506 C1509 1.386 . S
H1507 C1523 0.930 . S
H1508 C1524 0.931 . S
C1509 H1497 0.929 . S
C1509 C1503 1.390 . S
C1509 C1506 1.386 . S
C1510 C1505 1.490 . S
C1510 C1512 1.395 . S
C1510 C1513 1.403 . S
H1511 C1517 0.930 . S
C1512 H1498 0.930 . S
C1512 C1510 1.395 . S
C1512 C1515 1.403 1_554 S
C1513 C1510 1.403 . S
C1513 C1514 1.524 . S
C1513 C1517 1.400 1_554 S
C1514 H1499 0.960 . S
C1514 H1500 0.960 . S
C1514 H1501 0.960 . S
C1514 C1513 1.524 . S
C1515 C1512 1.403 1_556 S
C1515 C1516 1.392 . S
C1515 C1519 1.495 . S
C1516 C1515 1.392 . S
C1516 C1517 1.385 . S
C1516 C1518 1.478 . S
C1517 H1511 0.930 . S
C1517 C1513 1.400 1_556 S
C1517 C1516 1.385 . S
C1518 C1516 1.478 . S
C1518 C1520 1.381 . S
C1518 C1524 1.383 . S
C1519 C1515 1.495 . S
C1519 H1525 0.959 . S
C1519 H1526 0.961 . S
C1519 H1527 0.960 . S
C1520 C1518 1.381 . S
C1520 C1521 1.394 . S
C1520 H1528 0.930 . S
C1521 C1520 1.394 . S
C1521 C1522 1.383 . S
C1521 H1529 0.929 . S
C1522 C1521 1.383 . S
C1522 C1523 1.377 . S
C1523 H1507 0.930 . S
C1523 C1522 1.377 . S
C1523 C1524 1.379 . S
C1524 H1508 0.931 . S
C1524 C1518 1.383 . S
C1524 C1523 1.379 . S
H1525 C1519 0.959 . S
H1526 C1519 0.961 . S
H1527 C1519 0.960 . S
H1528 C1520 0.930 . S
H1529 C1521 0.929 . S
H1530 C1538 0.929 . S
H1531 C1540 0.930 . S
H1532 C1542 0.930 . S
H1533 C1545 0.929 . S
H1534 C1548 0.930 . S
H1535 C1550 0.960 . S
H1536 C1550 0.960 . S
H1537 C1550 0.960 . S
C1538 H1530 0.929 . S
C1538 C1539 1.377 1_565 S
C1538 C1540 1.384 . S
C1539 C1538 1.377 1_545 S
C1539 C1545 1.390 . S
C1540 H1531 0.930 . S
C1540 C1538 1.384 . S
C1540 C1541 1.372 1_565 S
C1541 C1540 1.372 1_545 S
C1541 C1542 1.400 . S
C1541 C1546 1.490 . S
C1542 H1532 0.930 . S
C1542 C1541 1.400 . S
C1542 C1545 1.386 . S
H1543 C1559 0.930 . S
H1544 C1560 0.931 . S
C1545 H1533 0.929 . S
C1545 C1539 1.390 . S
C1545 C1542 1.386 . S
C1546 C1541 1.490 . S
C1546 C1548 1.395 1_545 S
C1546 C1549 1.403 . S
H1547 C1553 0.930 . S
C1548 H1534 0.930 . S
C1548 C1546 1.395 1_565 S
C1548 C1551 1.403 1_554 S
C1549 C1546 1.403 . S
C1549 C1550 1.524 . S
C1549 C1553 1.400 1_554 S
C1550 H1535 0.960 . S
C1550 H1536 0.960 . S
C1550 H1537 0.960 . S
C1550 C1549 1.524 . S
C1551 C1548 1.403 1_556 S
C1551 C1552 1.392 . S
C1551 C1555 1.495 . S
C1552 C1551 1.392 . S
C1552 C1553 1.385 1_565 S
C1552 C1554 1.478 . S
C1553 H1547 0.930 . S
C1553 C1549 1.400 1_556 S
C1553 C1552 1.385 1_545 S
C1554 C1552 1.478 . S
C1554 C1556 1.381 . S
C1554 C1560 1.383 1_565 S
C1555 C1551 1.495 . S
C1555 H1561 0.959 . S
C1555 H1562 0.961 . S
C1555 H1563 0.960 . S
C1556 C1554 1.381 . S
C1556 C1557 1.394 . S
C1556 H1564 0.930 . S
C1557 C1556 1.394 . S
C1557 C1558 1.383 . S
C1557 H1565 0.929 . S
C1558 C1557 1.383 . S
C1558 C1559 1.377 1_565 S
C1559 H1543 0.930 . S
C1559 C1558 1.377 1_545 S
C1559 C1560 1.379 . S
C1560 H1544 0.931 . S
C1560 C1554 1.383 1_545 S
C1560 C1559 1.379 . S
H1561 C1555 0.959 . S
H1562 C1555 0.961 . S
H1563 C1555 0.960 . S
H1564 C1556 0.930 . S
H1565 C1557 0.929 . S
H1566 C1574 0.929 . S
H1567 C1576 0.930 . S
H1568 C1578 0.930 . S
H1569 C1581 0.929 . S
H1570 C1584 0.930 . S
H1571 C1586 0.960 . S
H1572 C1586 0.960 . S
H1573 C1586 0.960 . S
C1574 H1566 0.929 . S
C1574 C1575 1.377 1_545 S
C1574 C1576 1.384 . S
C1575 C1574 1.377 1_565 S
C1575 C1581 1.390 . S
C1576 H1567 0.930 . S
C1576 C1574 1.384 . S
C1576 C1577 1.372 . S
C1577 C1576 1.372 . S
C1577 C1578 1.400 . S
C1577 C1582 1.490 . S
C1578 H1568 0.930 . S
C1578 C1577 1.400 . S
C1578 C1581 1.386 1_545 S
H1579 C1595 0.930 . S
H1580 C1596 0.931 . S
C1581 H1569 0.929 . S
C1581 C1575 1.390 . S
C1581 C1578 1.386 1_565 S
C1582 C1577 1.490 . S
C1582 C1584 1.395 . S
C1582 C1585 1.403 . S
H1583 C1589 0.930 . S
C1584 H1570 0.930 . S
C1584 C1582 1.395 . S
C1584 C1587 1.403 . S
C1585 C1582 1.403 . S
C1585 C1586 1.524 . S
C1585 C1589 1.400 . S
C1586 H1571 0.960 . S
C1586 H1572 0.960 . S
C1586 H1573 0.960 . S
C1586 C1585 1.524 . S
C1587 C1584 1.403 . S
C1587 C1588 1.392 . S
C1587 C1591 1.495 . S
C1588 C1587 1.392 . S
C1588 C1589 1.385 . S
C1588 C1590 1.478 . S
C1589 H1583 0.930 . S
C1589 C1585 1.400 . S
C1589 C1588 1.385 . S
C1590 C1588 1.478 . S
C1590 C1592 1.381 . S
C1590 C1596 1.383 . S
C1591 C1587 1.495 . S
C1591 H1597 0.959 . S
C1591 H1598 0.961 . S
C1591 H1599 0.960 . S
C1592 C1590 1.381 . S
C1592 C1593 1.394 . S
C1592 H1600 0.930 . S
C1593 C1592 1.394 . S
C1593 C1594 1.383 . S
C1593 H1601 0.929 . S
C1594 C1593 1.383 . S
C1594 C1595 1.377 . S
C1595 H1579 0.930 . S
C1595 C1594 1.377 . S
C1595 C1596 1.379 . S
C1596 H1580 0.931 . S
C1596 C1590 1.383 . S
C1596 C1595 1.379 . S
H1597 C1591 0.959 . S
H1598 C1591 0.961 . S
H1599 C1591 0.960 . S
H1600 C1592 0.930 . S
H1601 C1593 0.929 . S
H1602 C1610 0.929 . S
H1603 C1612 0.930 . S
H1604 C1614 0.904 1_545 S
H1605 C1617 0.929 . S
H1606 C1620 0.930 . S
H1607 C1622 0.960 . S
H1608 C1622 0.960 . S
H1609 C1622 0.960 . S
C1610 H1602 0.929 . S
C1610 C1611 1.377 . S
C1610 C1612 1.384 . S
C1611 C1610 1.377 . S
C1611 C1617 1.390 . S
C1612 H1603 0.930 . S
C1612 C1610 1.384 . S
C1612 C1613 1.372 . S
C1613 C1612 1.372 . S
C1613 C1614 1.400 . S
C1613 C1618 1.490 1_565 S
C1614 H1604 0.904 1_565 S
C1614 C1613 1.400 . S
C1614 C1617 1.386 . S
H1615 C1631 0.930 . S
H1616 C1632 0.931 . S
C1617 H1605 0.929 . S
C1617 C1611 1.390 . S
C1617 C1614 1.386 . S
C1618 C1613 1.490 1_545 S
C1618 C1620 1.395 . S
C1618 C1621 1.403 . S
H1619 C1625 0.930 . S
C1620 H1606 0.930 . S
C1620 C1618 1.395 . S
C1620 C1623 1.403 . S
C1621 C1618 1.403 . S
C1621 C1622 1.524 . S
C1621 C1625 1.400 . S
C1622 H1607 0.960 . S
C1622 H1608 0.960 . S
C1622 H1609 0.960 . S
C1622 C1621 1.524 . S
C1623 C1620 1.403 . S
C1623 C1624 1.392 . S
C1623 C1627 1.495 . S
C1624 C1623 1.392 . S
C1624 C1625 1.385 . S
C1624 C1626 1.478 . S
C1625 H1619 0.930 . S
C1625 C1621 1.400 . S
C1625 C1624 1.385 . S
C1626 C1624 1.478 . S
C1626 C1628 1.381 . S
C1626 C1632 1.383 . S
C1627 C1623 1.495 . S
C1627 H1633 0.959 . S
C1627 H1634 0.961 . S
C1627 H1635 0.960 . S
C1628 C1626 1.381 . S
C1628 C1629 1.394 1_655 S
C1628 H1636 0.930 . S
C1629 C1628 1.394 1_455 S
C1629 C1630 1.383 . S
C1629 H1637 0.929 . S
C1630 C1629 1.383 . S
C1630 C1631 1.377 1_455 S
C1631 H1615 0.930 . S
C1631 C1630 1.377 1_655 S
C1631 C1632 1.379 . S
C1632 H1616 0.931 . S
C1632 C1626 1.383 . S
C1632 C1631 1.379 . S
H1633 C1627 0.959 . S
H1634 C1627 0.961 . S
H1635 C1627 0.960 . S
H1636 C1628 0.930 . S
H1637 C1629 0.929 . S
H1638 C1646 0.929 . S
H1639 C1648 0.930 . S
H1640 C1650 0.930 . S
H1641 C1653 0.929 . S
H1642 C1656 0.930 . S
H1643 C1658 0.960 . S
H1644 C1658 0.960 . S
H1645 C1658 0.960 . S
C1646 H1638 0.929 . S
C1646 C1647 1.377 . S
C1646 C1648 1.384 . S
C1647 C1646 1.377 . S
C1647 C1653 1.390 . S
C1648 H1639 0.930 . S
C1648 C1646 1.384 . S
C1648 C1649 1.372 . S
C1649 C1648 1.372 . S
C1649 C1650 1.400 . S
C1649 C1654 1.490 . S
C1650 H1640 0.930 . S
C1650 C1649 1.400 . S
C1650 C1653 1.386 . S
H1651 C1667 0.930 . S
H1652 C1668 0.931 1_655 S
C1653 H1641 0.929 . S
C1653 C1647 1.390 . S
C1653 C1650 1.386 . S
C1654 C1649 1.490 . S
C1654 C1656 1.395 . S
C1654 C1657 1.403 . S
H1655 C1661 0.930 . S
C1656 H1642 0.930 . S
C1656 C1654 1.395 . S
C1656 C1659 1.403 . S
C1657 C1654 1.403 . S
C1657 C1658 1.524 . S
C1657 C1661 1.400 . S
C1658 H1643 0.960 . S
C1658 H1644 0.960 . S
C1658 H1645 0.960 . S
C1658 C1657 1.524 . S
C1659 C1656 1.403 . S
C1659 C1660 1.392 . S
C1659 C1663 1.495 . S
C1660 C1659 1.392 . S
C1660 C1661 1.385 . S
C1660 C1662 1.478 1_655 S
C1661 H1655 0.930 . S
C1661 C1657 1.400 . S
C1661 C1660 1.385 . S
C1662 C1660 1.478 1_455 S
C1662 C1664 1.381 . S
C1662 C1668 1.383 . S
C1663 C1659 1.495 . S
C1663 H1669 0.959 . S
C1663 H1670 0.961 . S
C1663 H1671 0.960 1_655 S
C1664 C1662 1.381 . S
C1664 C1665 1.394 . S
C1664 H1672 0.930 . S
C1665 C1664 1.394 . S
C1665 C1666 1.383 . S
C1665 H1673 0.929 . S
C1666 C1665 1.383 . S
C1666 C1667 1.377 . S
C1667 H1651 0.930 . S
C1667 C1666 1.377 . S
C1667 C1668 1.379 . S
C1668 H1652 0.931 1_455 S
C1668 C1662 1.383 . S
C1668 C1667 1.379 . S
H1669 C1663 0.959 . S
H1670 C1663 0.961 . S
H1671 C1663 0.960 1_455 S
H1672 C1664 0.930 . S
H1673 C1665 0.929 . S
H1674 C1682 0.929 . S
H1675 C1684 0.930 . S
H1676 C1686 0.930 . S
H1677 C1689 0.929 1_655 S
H1678 C1692 0.930 . S
H1679 C1694 0.960 . S
H1680 C1694 0.960 . S
H1681 C1694 0.960 . S
C1682 H1674 0.929 . S
C1682 C1683 1.377 1_455 S
C1682 C1684 1.384 . S
C1683 C1682 1.377 1_655 S
C1683 C1689 1.390 1_655 S
C1684 H1675 0.930 . S
C1684 C1682 1.384 . S
C1684 C1685 1.372 . S
C1685 C1684 1.372 . S
C1685 C1686 1.400 . S
C1685 C1690 1.490 . S
C1686 H1676 0.930 . S
C1686 C1685 1.400 . S
C1686 C1689 1.386 . S
H1687 C1703 0.930 . S
H1688 C1704 0.931 . S
C1689 H1677 0.929 1_455 S
C1689 C1683 1.390 1_455 S
C1689 C1686 1.386 . S
C1690 C1685 1.490 . S
C1690 C1692 1.395 . S
C1690 C1693 1.403 . S
H1691 C1697 0.930 . S
C1692 H1678 0.930 . S
C1692 C1690 1.395 . S
C1692 C1695 1.403 . S
C1693 C1690 1.403 . S
C1693 C1694 1.524 . S
C1693 C1697 1.400 . S
C1694 H1679 0.960 . S
C1694 H1680 0.960 . S
C1694 H1681 0.960 . S
C1694 C1693 1.524 . S
C1695 C1692 1.403 . S
C1695 C1696 1.392 . S
C1695 C1699 1.495 . S
C1696 C1695 1.392 . S
C1696 C1697 1.385 . S
C1696 C1698 1.478 . S
C1697 H1691 0.930 . S
C1697 C1693 1.400 . S
C1697 C1696 1.385 . S
C1698 C1696 1.478 . S
C1698 C1700 1.381 . S
C1698 C1704 1.383 . S
C1699 C1695 1.495 . S
C1699 H1705 0.959 . S
C1699 H1706 0.961 . S
C1699 H1707 0.960 . S
C1700 C1698 1.381 . S
C1700 C1701 1.394 . S
C1700 H1708 0.930 . S
C1701 C1700 1.394 . S
C1701 C1702 1.383 . S
C1701 H1709 0.929 . S
C1702 C1701 1.383 . S
C1702 C1703 1.377 . S
C1703 H1687 0.930 . S
C1703 C1702 1.377 . S
C1703 C1704 1.379 . S
C1704 H1688 0.931 . S
C1704 C1698 1.383 . S
C1704 C1703 1.379 . S
H1705 C1699 0.959 . S
H1706 C1699 0.961 . S
H1707 C1699 0.960 . S
H1708 C1700 0.930 . S
H1709 C1701 0.929 . S
H1710 C1718 0.929 . S
H1711 C1720 0.930 1_565 S
H1712 C1722 0.930 . S
H1713 C1725 0.929 . S
H1714 C1728 0.930 . S
H1715 C1730 0.960 . S
H1716 C1730 0.960 . S
H1717 C1730 0.960 1_545 S
C1718 H1710 0.929 . S
C1718 C1719 1.377 . S
C1718 C1720 1.384 . S
C1719 C1718 1.377 . S
C1719 C1725 1.390 . S
C1720 H1711 0.930 1_545 S
C1720 C1718 1.384 . S
C1720 C1721 1.372 . S
C1721 C1720 1.372 . S
C1721 C1722 1.400 . S
C1721 C1726 1.490 1_545 S
C1722 H1712 0.930 . S
C1722 C1721 1.400 . S
C1722 C1725 1.386 . S
H1723 C1739 0.930 . S
H1724 C1740 0.931 . S
C1725 H1713 0.929 . S
C1725 C1719 1.390 . S
C1725 C1722 1.386 . S
C1726 C1721 1.490 1_565 S
C1726 C1728 1.395 . S
C1726 C1729 1.403 . S
H1727 C1733 0.930 . S
C1728 H1714 0.930 . S
C1728 C1726 1.395 . S
C1728 C1731 1.403 . S
C1729 C1726 1.403 . S
C1729 C1730 1.524 . S
C1729 C1733 1.400 . S
C1730 H1715 0.960 . S
C1730 H1716 0.960 . S
C1730 H1717 0.960 1_565 S
C1730 C1729 1.524 . S
C1731 C1728 1.403 . S
C1731 C1732 1.392 . S
C1731 C1735 1.495 . S
C1732 C1731 1.392 . S
C1732 C1733 1.385 . S
C1732 C1734 1.478 . S
C1733 H1727 0.930 . S
C1733 C1729 1.400 . S
C1733 C1732 1.385 . S
C1734 C1732 1.478 . S
C1734 C1736 1.381 . S
C1734 C1740 1.383 . S
C1735 C1731 1.495 . S
C1735 H1741 0.959 . S
C1735 H1742 0.961 . S
C1735 H1743 0.960 . S
C1736 C1734 1.381 . S
C1736 C1737 1.394 . S
C1736 H1744 0.930 . S
C1737 C1736 1.394 . S
C1737 C1738 1.383 . S
C1737 H1745 0.929 . S
C1738 C1737 1.383 . S
C1738 C1739 1.377 . S
C1739 H1723 0.930 . S
C1739 C1738 1.377 . S
C1739 C1740 1.379 . S
C1740 H1724 0.931 . S
C1740 C1734 1.383 . S
C1740 C1739 1.379 . S
H1741 C1735 0.959 . S
H1742 C1735 0.961 . S
H1743 C1735 0.960 . S
H1744 C1736 0.930 . S
H1745 C1737 0.929 . S
H1746 C1754 0.929 1_545 S
H1747 C1756 0.930 . S
H1748 C1758 0.930 . S
H1749 C1761 0.929 . S
H1750 C1764 0.930 . S
H1751 C1766 0.960 . S
H1752 C1766 0.960 . S
H1753 C1766 0.960 . S
C1754 H1746 0.929 1_565 S
C1754 C1755 1.377 1_565 S
C1754 C1756 1.384 . S
C1755 C1754 1.377 1_545 S
C1755 C1761 1.390 1_545 S
C1756 H1747 0.930 . S
C1756 C1754 1.384 . S
C1756 C1757 1.372 . S
C1757 C1756 1.372 . S
C1757 C1758 1.400 . S
C1757 C1762 1.490 . S
C1758 H1748 0.930 . S
C1758 C1757 1.400 . S
C1758 C1761 1.386 . S
H1759 C1775 0.930 . S
H1760 C1776 0.931 . S
C1761 H1749 0.929 . S
C1761 C1755 1.390 1_565 S
C1761 C1758 1.386 . S
C1762 C1757 1.490 . S
C1762 C1764 1.395 . S
C1762 C1765 1.403 . S
H1763 C1769 0.930 . S
C1764 H1750 0.930 . S
C1764 C1762 1.395 . S
C1764 C1767 1.403 . S
C1765 C1762 1.403 . S
C1765 C1766 1.524 . S
C1765 C1769 1.400 . S
C1766 H1751 0.960 . S
C1766 H1752 0.960 . S
C1766 H1753 0.960 . S
C1766 C1765 1.524 . S
C1767 C1764 1.403 . S
C1767 C1768 1.392 . S
C1767 C1771 1.495 . S
C1768 C1767 1.392 . S
C1768 C1769 1.385 . S
C1768 C1770 1.478 1_455 S
C1769 H1763 0.930 . S
C1769 C1765 1.400 . S
C1769 C1768 1.385 . S
C1770 C1768 1.478 1_655 S
C1770 C1772 1.381 . S
C1770 C1776 1.383 . S
C1771 C1767 1.495 . S
C1771 H1777 0.959 . S
C1771 H1778 0.961 1_455 S
C1771 H1779 0.960 . S
C1772 C1770 1.381 . S
C1772 C1773 1.394 . S
C1772 H1780 0.930 . S
C1773 C1772 1.394 . S
C1773 C1774 1.383 . S
C1773 H1781 0.929 . S
C1774 C1773 1.383 . S
C1774 C1775 1.377 . S
C1775 H1759 0.930 . S
C1775 C1774 1.377 . S
C1775 C1776 1.379 . S
C1776 H1760 0.931 . S
C1776 C1770 1.383 . S
C1776 C1775 1.379 . S
H1777 C1771 0.959 . S
H1778 C1771 0.961 1_655 S
H1779 C1771 0.960 . S
H1780 C1772 0.930 . S
H1781 C1773 0.929 . S
H1782 C1790 0.929 . S
H1783 C1792 0.930 . S
H1784 C1794 0.930 . S
H1785 C1797 0.929 . S
H1786 C1800 0.930 . S
H1787 C1802 0.960 . S
H1788 C1802 0.960 . S
H1789 C1802 0.960 . S
C1790 H1782 0.929 . S
C1790 C1791 1.377 . S
C1790 C1792 1.384 . S
C1791 C1790 1.377 . S
C1791 C1797 1.390 . S
C1792 H1783 0.930 . S
C1792 C1790 1.384 . S
C1792 C1793 1.372 . S
C1793 C1792 1.372 . S
C1793 C1794 1.400 . S
C1793 C1798 1.490 . S
C1794 H1784 0.930 . S
C1794 C1793 1.400 . S
C1794 C1797 1.386 . S
H1795 C1811 0.930 . S
H1796 C1812 0.931 . S
C1797 H1785 0.929 . S
C1797 C1791 1.390 . S
C1797 C1794 1.386 . S
C1798 C1793 1.490 . S
C1798 C1800 1.395 . S
C1798 C1801 1.403 . S
H1799 C1805 0.930 . S
C1800 H1786 0.930 . S
C1800 C1798 1.395 . S
C1800 C1803 1.403 . S
C1801 C1798 1.403 . S
C1801 C1802 1.524 . S
C1801 C1805 1.400 . S
C1802 H1787 0.960 . S
C1802 H1788 0.960 . S
C1802 H1789 0.960 . S
C1802 C1801 1.524 . S
C1803 C1800 1.403 . S
C1803 C1804 1.392 . S
C1803 C1807 1.495 . S
C1804 C1803 1.392 . S
C1804 C1805 1.385 . S
C1804 C1806 1.478 . S
C1805 H1799 0.930 . S
C1805 C1801 1.400 . S
C1805 C1804 1.385 . S
C1806 C1804 1.478 . S
C1806 C1808 1.381 . S
C1806 C1812 1.383 . S
C1807 C1803 1.495 . S
C1807 H1813 0.959 . S
C1807 H1814 0.961 . S
C1807 H1815 0.960 . S
C1808 C1806 1.381 . S
C1808 C1809 1.394 . S
C1808 H1816 0.930 . S
C1809 C1808 1.394 . S
C1809 C1810 1.383 . S
C1809 H1817 0.929 . S
C1810 C1809 1.383 . S
C1810 C1811 1.377 . S
C1811 H1795 0.930 . S
C1811 C1810 1.377 . S
C1811 C1812 1.379 . S
C1812 H1796 0.931 . S
C1812 C1806 1.383 . S
C1812 C1811 1.379 . S
H1813 C1807 0.959 . S
H1814 C1807 0.961 . S
H1815 C1807 0.960 . S
H1816 C1808 0.930 . S
H1817 C1809 0.929 . S
H1818 C1826 0.929 . S
H1819 C1828 0.930 . S
H1820 C1830 0.930 . S
H1821 C1833 0.929 . S
H1822 C1836 0.930 . S
H1823 C1838 0.960 . S
H1824 C1838 0.960 . S
H1825 C1838 0.960 . S
C1826 H1818 0.929 . S
C1826 C1827 1.377 . S
C1826 C1828 1.384 . S
C1827 C1826 1.377 . S
C1827 C1833 1.390 . S
C1828 H1819 0.930 . S
C1828 C1826 1.384 . S
C1828 C1829 1.372 . S
C1829 C1828 1.372 . S
C1829 C1830 1.400 . S
C1829 C1834 1.490 . S
C1830 H1820 0.930 . S
C1830 C1829 1.400 . S
C1830 C1833 1.386 . S
H1831 C1847 0.930 . S
H1832 C1848 0.931 . S
C1833 H1821 0.929 . S
C1833 C1827 1.390 . S
C1833 C1830 1.386 . S
C1834 C1829 1.490 . S
C1834 C1836 1.395 . S
C1834 C1837 1.403 . S
H1835 C1841 0.930 . S
C1836 H1822 0.930 . S
C1836 C1834 1.395 . S
C1836 C1839 1.403 . S
C1837 C1834 1.403 . S
C1837 C1838 1.524 . S
C1837 C1841 1.400 . S
C1838 H1823 0.960 . S
C1838 H1824 0.960 . S
C1838 H1825 0.960 . S
C1838 C1837 1.524 . S
C1839 C1836 1.403 . S
C1839 C1840 1.392 . S
C1839 C1843 1.495 . S
C1840 C1839 1.392 . S
C1840 C1841 1.385 . S
C1840 C1842 1.478 . S
C1841 H1835 0.930 . S
C1841 C1837 1.400 . S
C1841 C1840 1.385 . S
C1842 C1840 1.478 . S
C1842 C1844 1.381 . S
C1842 C1848 1.383 . S
C1843 C1839 1.495 . S
C1843 H1849 0.959 . S
C1843 H1850 0.961 . S
C1843 H1851 0.960 . S
C1844 C1842 1.381 . S
C1844 C1845 1.394 . S
C1844 H1852 0.930 . S
C1845 C1844 1.394 . S
C1845 C1846 1.383 . S
C1845 H1853 0.929 . S
C1846 C1845 1.383 . S
C1846 C1847 1.377 . S
C1847 H1831 0.930 . S
C1847 C1846 1.377 . S
C1847 C1848 1.379 . S
C1848 H1832 0.931 . S
C1848 C1842 1.383 . S
C1848 C1847 1.379 . S
H1849 C1843 0.959 . S
H1850 C1843 0.961 . S
H1851 C1843 0.960 . S
H1852 C1844 0.930 . S
H1853 C1845 0.929 . S
H1854 C1862 0.929 . S
H1855 C1864 0.930 . S
H1856 C1866 0.930 . S
H1857 C1869 0.929 . S
H1858 C1872 0.930 . S
H1859 C1874 0.960 . S
H1860 C1874 0.960 . S
H1861 C1874 0.960 . S
C1862 H1854 0.929 . S
C1862 C1863 1.377 . S
C1862 C1864 1.384 . S
C1863 C1862 1.377 . S
C1863 C1869 1.390 . S
C1864 H1855 0.930 . S
C1864 C1862 1.384 . S
C1864 C1865 1.372 . S
C1865 C1864 1.372 . S
C1865 C1866 1.400 . S
C1865 C1870 1.490 . S
C1866 H1856 0.930 . S
C1866 C1865 1.400 . S
C1866 C1869 1.386 . S
H1867 C1883 0.930 . S
H1868 C1884 0.931 . S
C1869 H1857 0.929 . S
C1869 C1863 1.390 . S
C1869 C1866 1.386 . S
C1870 C1865 1.490 . S
C1870 C1872 1.395 . S
C1870 C1873 1.403 . S
H1871 C1877 0.930 . S
C1872 H1858 0.930 . S
C1872 C1870 1.395 . S
C1872 C1875 1.403 . S
C1873 C1870 1.403 . S
C1873 C1874 1.524 . S
C1873 C1877 1.400 . S
C1874 H1859 0.960 . S
C1874 H1860 0.960 . S
C1874 H1861 0.960 . S
C1874 C1873 1.524 . S
C1875 C1872 1.403 . S
C1875 C1876 1.392 . S
C1875 C1879 1.495 . S
C1876 C1875 1.392 . S
C1876 C1877 1.385 . S
C1876 C1878 1.478 . S
C1877 H1871 0.930 . S
C1877 C1873 1.400 . S
C1877 C1876 1.385 . S
C1878 C1876 1.478 . S
C1878 C1880 1.381 . S
C1878 C1884 1.383 . S
C1879 C1875 1.495 . S
C1879 H1885 0.959 . S
C1879 H1886 0.961 . S
C1879 H1887 0.960 . S
C1880 C1878 1.381 . S
C1880 C1881 1.394 . S
C1880 H1888 0.930 . S
C1881 C1880 1.394 . S
C1881 C1882 1.383 . S
C1881 H1889 0.929 . S
C1882 C1881 1.383 . S
C1882 C1883 1.377 . S
C1883 H1867 0.930 . S
C1883 C1882 1.377 . S
C1883 C1884 1.379 . S
C1884 H1868 0.931 . S
C1884 C1878 1.383 . S
C1884 C1883 1.379 . S
H1885 C1879 0.959 . S
H1886 C1879 0.961 . S
H1887 C1879 0.960 . S
H1888 C1880 0.930 . S
H1889 C1881 0.929 . S
H1890 C1898 0.929 . S
H1891 C1900 0.930 . S
H1892 C1902 0.930 . S
H1893 C1905 0.929 . S
H1894 C1908 0.930 . S
H1895 C1910 0.960 . S
H1896 C1910 0.960 . S
H1897 C1910 0.960 . S
C1898 H1890 0.929 . S
C1898 C1899 1.377 . S
C1898 C1900 1.384 . S
C1899 C1898 1.377 . S
C1899 C1905 1.390 . S
C1900 H1891 0.930 . S
C1900 C1898 1.384 . S
C1900 C1901 1.372 . S
C1901 C1900 1.372 . S
C1901 C1902 1.400 . S
C1901 C1906 1.490 . S
C1902 H1892 0.930 . S
C1902 C1901 1.400 . S
C1902 C1905 1.386 . S
H1903 C1919 0.930 . S
H1904 C1920 0.931 . S
C1905 H1893 0.929 . S
C1905 C1899 1.390 . S
C1905 C1902 1.386 . S
C1906 C1901 1.490 . S
C1906 C1908 1.395 . S
C1906 C1909 1.403 . S
H1907 C1913 0.930 . S
C1908 H1894 0.930 . S
C1908 C1906 1.395 . S
C1908 C1911 1.403 . S
C1909 C1906 1.403 . S
C1909 C1910 1.524 . S
C1909 C1913 1.400 . S
C1910 H1895 0.960 . S
C1910 H1896 0.960 . S
C1910 H1897 0.960 . S
C1910 C1909 1.524 . S
C1911 C1908 1.403 . S
C1911 C1912 1.392 . S
C1911 C1915 1.495 . S
C1912 C1911 1.392 . S
C1912 C1913 1.385 . S
C1912 C1914 1.478 . S
C1913 H1907 0.930 . S
C1913 C1909 1.400 . S
C1913 C1912 1.385 . S
C1914 C1912 1.478 . S
C1914 C1916 1.381 . S
C1914 C1920 1.383 . S
C1915 C1911 1.495 . S
C1915 H1921 0.959 . S
C1915 H1922 0.961 . S
C1915 H1923 0.960 . S
C1916 C1914 1.381 . S
C1916 C1917 1.394 . S
C1916 H1924 0.930 . S
C1917 C1916 1.394 . S
C1917 C1918 1.383 . S
C1917 H1925 0.929 . S
C1918 C1917 1.383 . S
C1918 C1919 1.377 . S
C1919 H1903 0.930 . S
C1919 C1918 1.377 . S
C1919 C1920 1.379 . S
C1920 H1904 0.931 . S
C1920 C1914 1.383 . S
C1920 C1919 1.379 . S
H1921 C1915 0.959 . S
H1922 C1915 0.961 . S
H1923 C1915 0.960 . S
H1924 C1916 0.930 . S
H1925 C1917 0.929 . S
H1926 C1934 0.929 . S
H1927 C1936 0.930 . S
H1928 C1938 0.930 . S
H1929 C1941 0.929 . S
H1930 C1944 0.930 . S
H1931 C1946 0.960 . S
H1932 C1946 0.960 . S
H1933 C1946 0.960 . S
C1934 H1926 0.929 . S
C1934 C1935 1.377 . S
C1934 C1936 1.384 . S
C1935 C1934 1.377 . S
C1935 C1941 1.390 . S
C1936 H1927 0.930 . S
C1936 C1934 1.384 . S
C1936 C1937 1.372 . S
C1937 C1936 1.372 . S
C1937 C1938 1.400 . S
C1937 C1942 1.490 . S
C1938 H1928 0.930 . S
C1938 C1937 1.400 . S
C1938 C1941 1.386 . S
H1939 C1955 0.930 . S
H1940 C1956 0.931 . S
C1941 H1929 0.929 . S
C1941 C1935 1.390 . S
C1941 C1938 1.386 . S
C1942 C1937 1.490 . S
C1942 C1944 1.395 . S
C1942 C1945 1.403 . S
H1943 C1949 0.930 . S
C1944 H1930 0.930 . S
C1944 C1942 1.395 . S
C1944 C1947 1.403 . S
C1945 C1942 1.403 . S
C1945 C1946 1.524 . S
C1945 C1949 1.400 . S
C1946 H1931 0.960 . S
C1946 H1932 0.960 . S
C1946 H1933 0.960 . S
C1946 C1945 1.524 . S
C1947 C1944 1.403 . S
C1947 C1948 1.392 . S
C1947 C1951 1.495 . S
C1948 C1947 1.392 . S
C1948 C1949 1.385 . S
C1948 C1950 1.478 . S
C1949 H1943 0.930 . S
C1949 C1945 1.400 . S
C1949 C1948 1.385 . S
C1950 C1948 1.478 . S
C1950 C1952 1.381 . S
C1950 C1956 1.383 . S
C1951 C1947 1.495 . S
C1951 H1957 0.959 . S
C1951 H1958 0.961 . S
C1951 H1959 0.960 . S
C1952 C1950 1.381 . S
C1952 C1953 1.394 . S
C1952 H1960 0.930 . S
C1953 C1952 1.394 . S
C1953 C1954 1.383 . S
C1953 H1961 0.929 . S
C1954 C1953 1.383 . S
C1954 C1955 1.377 . S
C1955 H1939 0.930 . S
C1955 C1954 1.377 . S
C1955 C1956 1.379 . S
C1956 H1940 0.931 . S
C1956 C1950 1.383 . S
C1956 C1955 1.379 . S
H1957 C1951 0.959 . S
H1958 C1951 0.961 . S
H1959 C1951 0.960 . S
H1960 C1952 0.930 . S
H1961 C1953 0.929 . S
H1962 C1970 0.929 . S
H1963 C1972 0.930 . S
H1964 C1974 0.930 . S
H1965 C1977 0.929 . S
H1966 C1980 0.930 . S
H1967 C1982 0.960 . S
H1968 C1982 0.960 . S
H1969 C1982 0.960 . S
C1970 H1962 0.929 . S
C1970 C1971 1.377 . S
C1970 C1972 1.384 . S
C1971 C1970 1.377 . S
C1971 C1977 1.390 . S
C1972 H1963 0.930 . S
C1972 C1970 1.384 . S
C1972 C1973 1.372 . S
C1973 C1972 1.372 . S
C1973 C1974 1.400 . S
C1973 C1978 1.490 . S
C1974 H1964 0.930 . S
C1974 C1973 1.400 . S
C1974 C1977 1.386 . S
H1975 C1991 0.930 . S
H1976 C1992 0.931 . S
C1977 H1965 0.929 . S
C1977 C1971 1.390 . S
C1977 C1974 1.386 . S
C1978 C1973 1.490 . S
C1978 C1980 1.395 . S
C1978 C1981 1.403 . S
H1979 C1985 0.930 . S
C1980 H1966 0.930 . S
C1980 C1978 1.395 . S
C1980 C1983 1.403 . S
C1981 C1978 1.403 . S
C1981 C1982 1.524 . S
C1981 C1985 1.400 . S
C1982 H1967 0.960 . S
C1982 H1968 0.960 . S
C1982 H1969 0.960 . S
C1982 C1981 1.524 . S
C1983 C1980 1.403 . S
C1983 C1984 1.392 . S
C1983 C1987 1.495 . S
C1984 C1983 1.392 . S
C1984 C1985 1.385 . S
C1984 C1986 1.478 . S
C1985 H1979 0.930 . S
C1985 C1981 1.400 . S
C1985 C1984 1.385 . S
C1986 C1984 1.478 . S
C1986 C1988 1.381 . S
C1986 C1992 1.383 . S
C1987 C1983 1.495 . S
C1987 H1993 0.959 . S
C1987 H1994 0.961 . S
C1987 H1995 0.960 . S
C1988 C1986 1.381 . S
C1988 C1989 1.394 . S
C1988 H1996 0.930 . S
C1989 C1988 1.394 . S
C1989 C1990 1.383 . S
C1989 H1997 0.929 . S
C1990 C1989 1.383 . S
C1990 C1991 1.377 . S
C1991 H1975 0.930 . S
C1991 C1990 1.377 . S
C1991 C1992 1.379 . S
C1992 H1976 0.931 . S
C1992 C1986 1.383 . S
C1992 C1991 1.379 . S
H1993 C1987 0.959 . S
H1994 C1987 0.961 . S
H1995 C1987 0.960 . S
H1996 C1988 0.930 . S
H1997 C1989 0.929 . S
H1998 C2006 0.929 . S
H1999 C2008 0.930 . S
H2000 C2010 0.930 . S
H2001 C2013 0.929 . S
H2002 C2016 0.930 . S
H2003 C2018 0.960 . S
H2004 C2018 0.960 . S
H2005 C2018 0.960 . S
C2006 H1998 0.929 . S
C2006 C2007 1.377 . S
C2006 C2008 1.384 . S
C2007 C2006 1.377 . S
C2007 C2013 1.390 . S
C2008 H1999 0.930 . S
C2008 C2006 1.384 . S
C2008 C2009 1.372 . S
C2009 C2008 1.372 . S
C2009 C2010 1.400 . S
C2009 C2014 1.490 . S
C2010 H2000 0.930 . S
C2010 C2009 1.400 . S
C2010 C2013 1.386 . S
H2011 C2027 0.930 . S
H2012 C2028 0.931 . S
C2013 H2001 0.929 . S
C2013 C2007 1.390 . S
C2013 C2010 1.386 . S
C2014 C2009 1.490 . S
C2014 C2016 1.395 . S
C2014 C2017 1.403 . S
H2015 C2021 0.930 . S
C2016 H2002 0.930 . S
C2016 C2014 1.395 . S
C2016 C2019 1.403 . S
C2017 C2014 1.403 . S
C2017 C2018 1.524 . S
C2017 C2021 1.400 . S
C2018 H2003 0.960 . S
C2018 H2004 0.960 . S
C2018 H2005 0.960 . S
C2018 C2017 1.524 . S
C2019 C2016 1.403 . S
C2019 C2020 1.392 . S
C2019 C2023 1.495 . S
C2020 C2019 1.392 . S
C2020 C2021 1.385 . S
C2020 C2022 1.478 . S
C2021 H2015 0.930 . S
C2021 C2017 1.400 . S
C2021 C2020 1.385 . S
C2022 C2020 1.478 . S
C2022 C2024 1.381 . S
C2022 C2028 1.383 . S
C2023 C2019 1.495 . S
C2023 H2029 0.959 . S
C2023 H2030 0.961 . S
C2023 H2031 0.960 . S
C2024 C2022 1.381 . S
C2024 C2025 1.394 . S
C2024 H2032 0.930 . S
C2025 C2024 1.394 . S
C2025 C2026 1.383 . S
C2025 H2033 0.929 . S
C2026 C2025 1.383 . S
C2026 C2027 1.377 . S
C2027 H2011 0.930 . S
C2027 C2026 1.377 . S
C2027 C2028 1.379 . S
C2028 H2012 0.931 . S
C2028 C2022 1.383 . S
C2028 C2027 1.379 . S
H2029 C2023 0.959 . S
H2030 C2023 0.961 . S
H2031 C2023 0.960 . S
H2032 C2024 0.930 . S
H2033 C2025 0.929 . S
H2034 C2042 0.929 . S
H2035 C2044 0.930 . S
H2036 C2046 0.930 . S
H2037 C2049 0.929 . S
H2038 C2052 0.930 . S
H2039 C2054 0.960 . S
H2040 C2054 0.960 . S
H2041 C2054 0.960 . S
C2042 H2034 0.929 . S
C2042 C2043 1.377 . S
C2042 C2044 1.384 . S
C2043 C2042 1.377 . S
C2043 C2049 1.390 . S
C2044 H2035 0.930 . S
C2044 C2042 1.384 . S
C2044 C2045 1.372 . S
C2045 C2044 1.372 . S
C2045 C2046 1.400 . S
C2045 C2050 1.490 . S
C2046 H2036 0.930 . S
C2046 C2045 1.400 . S
C2046 C2049 1.386 . S
H2047 C2063 0.930 . S
H2048 C2064 0.931 . S
C2049 H2037 0.929 . S
C2049 C2043 1.390 . S
C2049 C2046 1.386 . S
C2050 C2045 1.490 . S
C2050 C2052 1.395 . S
C2050 C2053 1.403 . S
H2051 C2057 0.930 . S
C2052 H2038 0.930 . S
C2052 C2050 1.395 . S
C2052 C2055 1.403 . S
C2053 C2050 1.403 . S
C2053 C2054 1.524 . S
C2053 C2057 1.400 . S
C2054 H2039 0.960 . S
C2054 H2040 0.960 . S
C2054 H2041 0.960 . S
C2054 C2053 1.524 . S
C2055 C2052 1.403 . S
C2055 C2056 1.392 . S
C2055 C2059 1.495 . S
C2056 C2055 1.392 . S
C2056 C2057 1.385 . S
C2056 C2058 1.478 . S
C2057 H2051 0.930 . S
C2057 C2053 1.400 . S
C2057 C2056 1.385 . S
C2058 C2056 1.478 . S
C2058 C2060 1.381 . S
C2058 C2064 1.383 . S
C2059 C2055 1.495 . S
C2059 H2065 0.959 . S
C2059 H2066 0.961 . S
C2059 H2067 0.960 . S
C2060 C2058 1.381 . S
C2060 C2061 1.394 . S
C2060 H2068 0.930 . S
C2061 C2060 1.394 . S
C2061 C2062 1.383 . S
C2061 H2069 0.929 . S
C2062 C2061 1.383 . S
C2062 C2063 1.377 . S
C2063 H2047 0.930 . S
C2063 C2062 1.377 . S
C2063 C2064 1.379 . S
C2064 H2048 0.931 . S
C2064 C2058 1.383 . S
C2064 C2063 1.379 . S
H2065 C2059 0.959 . S
H2066 C2059 0.961 . S
H2067 C2059 0.960 . S
H2068 C2060 0.930 . S
H2069 C2061 0.929 . S
H2070 C2078 0.929 . S
H2071 C2080 0.930 . S
H2072 C2082 0.930 . S
H2073 C2085 0.929 . S
H2074 C2088 0.930 . S
H2075 C2090 0.960 . S
H2076 C2090 0.960 . S
H2077 C2090 0.960 . S
C2078 H2070 0.929 . S
C2078 C2079 1.377 . S
C2078 C2080 1.384 . S
C2079 C2078 1.377 . S
C2079 C2085 1.390 . S
C2080 H2071 0.930 . S
C2080 C2078 1.384 . S
C2080 C2081 1.372 . S
C2081 C2080 1.372 . S
C2081 C2082 1.400 . S
C2081 C2086 1.490 . S
C2082 H2072 0.930 . S
C2082 C2081 1.400 . S
C2082 C2085 1.386 . S
H2083 C2099 0.930 . S
H2084 C2100 0.931 . S
C2085 H2073 0.929 . S
C2085 C2079 1.390 . S
C2085 C2082 1.386 . S
C2086 C2081 1.490 . S
C2086 C2088 1.395 . S
C2086 C2089 1.403 . S
H2087 C2093 0.930 . S
C2088 H2074 0.930 . S
C2088 C2086 1.395 . S
C2088 C2091 1.403 . S
C2089 C2086 1.403 . S
C2089 C2090 1.524 . S
C2089 C2093 1.400 . S
C2090 H2075 0.960 . S
C2090 H2076 0.960 . S
C2090 H2077 0.960 . S
C2090 C2089 1.524 . S
C2091 C2088 1.403 . S
C2091 C2092 1.392 . S
C2091 C2095 1.495 . S
C2092 C2091 1.392 . S
C2092 C2093 1.385 . S
C2092 C2094 1.478 . S
C2093 H2087 0.930 . S
C2093 C2089 1.400 . S
C2093 C2092 1.385 . S
C2094 C2092 1.478 . S
C2094 C2096 1.381 . S
C2094 C2100 1.383 . S
C2095 C2091 1.495 . S
C2095 H2101 0.959 . S
C2095 H2102 0.961 . S
C2095 H2103 0.960 . S
C2096 C2094 1.381 . S
C2096 C2097 1.394 . S
C2096 H2104 0.930 . S
C2097 C2096 1.394 . S
C2097 C2098 1.383 . S
C2097 H2105 0.929 . S
C2098 C2097 1.383 . S
C2098 C2099 1.377 . S
C2099 H2083 0.930 . S
C2099 C2098 1.377 . S
C2099 C2100 1.379 . S
C2100 H2084 0.931 . S
C2100 C2094 1.383 . S
C2100 C2099 1.379 . S
H2101 C2095 0.959 . S
H2102 C2095 0.961 . S
H2103 C2095 0.960 . S
H2104 C2096 0.930 . S
H2105 C2097 0.929 . S
H2106 C2114 0.929 . S
H2107 C2116 0.930 . S
H2108 C2118 0.930 . S
H2109 C2121 0.929 . S
H2110 C2124 0.930 . S
H2111 C2126 0.960 . S
H2112 C2126 0.960 . S
H2113 C2126 0.960 . S
C2114 H2106 0.929 . S
C2114 C2115 1.377 . S
C2114 C2116 1.384 . S
C2115 C2114 1.377 . S
C2115 C2121 1.390 . S
C2116 H2107 0.930 . S
C2116 C2114 1.384 . S
C2116 C2117 1.372 . S
C2117 C2116 1.372 . S
C2117 C2118 1.400 . S
C2117 C2122 1.490 . S
C2118 H2108 0.930 . S
C2118 C2117 1.400 . S
C2118 C2121 1.386 . S
H2119 C2135 0.930 . S
H2120 C2136 0.931 . S
C2121 H2109 0.929 . S
C2121 C2115 1.390 . S
C2121 C2118 1.386 . S
C2122 C2117 1.490 . S
C2122 C2124 1.395 . S
C2122 C2125 1.403 . S
H2123 C2129 0.930 . S
C2124 H2110 0.930 . S
C2124 C2122 1.395 . S
C2124 C2127 1.403 . S
C2125 C2122 1.403 . S
C2125 C2126 1.524 . S
C2125 C2129 1.400 . S
C2126 H2111 0.960 . S
C2126 H2112 0.960 . S
C2126 H2113 0.960 . S
C2126 C2125 1.524 . S
C2127 C2124 1.403 . S
C2127 C2128 1.392 . S
C2127 C2131 1.495 . S
C2128 C2127 1.392 . S
C2128 C2129 1.385 . S
C2128 C2130 1.478 . S
C2129 H2123 0.930 . S
C2129 C2125 1.400 . S
C2129 C2128 1.385 . S
C2130 C2128 1.478 . S
C2130 C2132 1.381 . S
C2130 C2136 1.383 . S
C2131 C2127 1.495 . S
C2131 H2137 0.959 . S
C2131 H2138 0.961 . S
C2131 H2139 0.960 . S
C2132 C2130 1.381 . S
C2132 C2133 1.394 . S
C2132 H2140 0.930 . S
C2133 C2132 1.394 . S
C2133 C2134 1.383 . S
C2133 H2141 0.929 . S
C2134 C2133 1.383 . S
C2134 C2135 1.377 . S
C2135 H2119 0.930 . S
C2135 C2134 1.377 . S
C2135 C2136 1.379 . S
C2136 H2120 0.931 . S
C2136 C2130 1.383 . S
C2136 C2135 1.379 . S
H2137 C2131 0.959 . S
H2138 C2131 0.961 . S
H2139 C2131 0.960 . S
H2140 C2132 0.930 . S
H2141 C2133 0.929 . S
H2142 C2150 0.929 . S
H2143 C2152 0.930 . S
H2144 C2154 0.930 . S
H2145 C2157 0.929 . S
H2146 C2160 0.930 . S
H2147 C2162 0.960 . S
H2148 C2162 0.960 . S
H2149 C2162 0.960 . S
C2150 H2142 0.929 . S
C2150 C2151 1.377 . S
C2150 C2152 1.384 . S
C2151 C2150 1.377 . S
C2151 C2157 1.390 . S
C2152 H2143 0.930 . S
C2152 C2150 1.384 . S
C2152 C2153 1.372 . S
C2153 C2152 1.372 . S
C2153 C2154 1.400 . S
C2153 C2158 1.490 . S
C2154 H2144 0.930 . S
C2154 C2153 1.400 . S
C2154 C2157 1.386 . S
H2155 C2171 0.930 . S
H2156 C2172 0.931 . S
C2157 H2145 0.929 . S
C2157 C2151 1.390 . S
C2157 C2154 1.386 . S
C2158 C2153 1.490 . S
C2158 C2160 1.395 . S
C2158 C2161 1.403 . S
H2159 C2165 0.930 . S
C2160 H2146 0.930 . S
C2160 C2158 1.395 . S
C2160 C2163 1.403 . S
C2161 C2158 1.403 . S
C2161 C2162 1.524 . S
C2161 C2165 1.400 . S
C2162 H2147 0.960 . S
C2162 H2148 0.960 . S
C2162 H2149 0.960 . S
C2162 C2161 1.524 . S
C2163 C2160 1.403 . S
C2163 C2164 1.392 . S
C2163 C2167 1.495 . S
C2164 C2163 1.392 . S
C2164 C2165 1.385 . S
C2164 C2166 1.478 . S
C2165 H2159 0.930 . S
C2165 C2161 1.400 . S
C2165 C2164 1.385 . S
C2166 C2164 1.478 . S
C2166 C2168 1.381 . S
C2166 C2172 1.383 . S
C2167 C2163 1.495 . S
C2167 H2173 0.959 . S
C2167 H2174 0.961 . S
C2167 H2175 0.960 . S
C2168 C2166 1.381 . S
C2168 C2169 1.394 . S
C2168 H2176 0.930 . S
C2169 C2168 1.394 . S
C2169 C2170 1.383 . S
C2169 H2177 0.929 . S
C2170 C2169 1.383 . S
C2170 C2171 1.377 . S
C2171 H2155 0.930 . S
C2171 C2170 1.377 . S
C2171 C2172 1.379 . S
C2172 H2156 0.931 . S
C2172 C2166 1.383 . S
C2172 C2171 1.379 . S
H2173 C2167 0.959 . S
H2174 C2167 0.961 . S
H2175 C2167 0.960 . S
H2176 C2168 0.930 . S
H2177 C2169 0.929 . S
H2178 C2186 0.929 . S
H2179 C2188 0.930 . S
H2180 C2190 0.930 . S
H2181 C2193 0.929 . S
H2182 C2196 0.930 . S
H2183 C2198 0.960 . S
H2184 C2198 0.960 . S
H2185 C2198 0.960 . S
C2186 H2178 0.929 . S
C2186 C2187 1.377 . S
C2186 C2188 1.384 . S
C2187 C2186 1.377 . S
C2187 C2193 1.390 . S
C2188 H2179 0.930 . S
C2188 C2186 1.384 . S
C2188 C2189 1.372 . S
C2189 C2188 1.372 . S
C2189 C2190 1.400 . S
C2189 C2194 1.490 . S
C2190 H2180 0.930 . S
C2190 C2189 1.400 . S
C2190 C2193 1.386 . S
H2191 C2207 0.930 . S
H2192 C2208 0.931 . S
C2193 H2181 0.929 . S
C2193 C2187 1.390 . S
C2193 C2190 1.386 . S
C2194 C2189 1.490 . S
C2194 C2196 1.395 . S
C2194 C2197 1.403 . S
H2195 C2201 0.930 . S
C2196 H2182 0.930 . S
C2196 C2194 1.395 . S
C2196 C2199 1.403 . S
C2197 C2194 1.403 . S
C2197 C2198 1.524 . S
C2197 C2201 1.400 . S
C2198 H2183 0.960 . S
C2198 H2184 0.960 . S
C2198 H2185 0.960 . S
C2198 C2197 1.524 . S
C2199 C2196 1.403 . S
C2199 C2200 1.392 . S
C2199 C2203 1.495 . S
C2200 C2199 1.392 . S
C2200 C2201 1.385 . S
C2200 C2202 1.478 . S
C2201 H2195 0.930 . S
C2201 C2197 1.400 . S
C2201 C2200 1.385 . S
C2202 C2200 1.478 . S
C2202 C2204 1.381 . S
C2202 C2208 1.383 . S
C2203 C2199 1.495 . S
C2203 H2209 0.959 . S
C2203 H2210 0.961 . S
C2203 H2211 0.960 . S
C2204 C2202 1.381 . S
C2204 C2205 1.394 . S
C2204 H2212 0.930 . S
C2205 C2204 1.394 . S
C2205 C2206 1.383 . S
C2205 H2213 0.929 . S
C2206 C2205 1.383 . S
C2206 C2207 1.377 . S
C2207 H2191 0.930 . S
C2207 C2206 1.377 . S
C2207 C2208 1.379 . S
C2208 H2192 0.931 . S
C2208 C2202 1.383 . S
C2208 C2207 1.379 . S
H2209 C2203 0.959 . S
H2210 C2203 0.961 . S
H2211 C2203 0.960 . S
H2212 C2204 0.930 . S
H2213 C2205 0.929 . S
C603 N335 1.854 . S
C622 N5 1.839 . S
C639 N38 1.855 . S
C658 N368 1.854 1_565 S
C675 N302 1.856 1_455 S
C694 N71 1.850 . S
C711 N467 1.852 . S
C730 N104 1.850 . S
C747 N137 1.856 . S
C766 N401 1.850 1_545 S
C783 N434 1.860 1_655 S
C802 N170 1.826 . S
C819 C193 1.754 . S
C838 C490 1.735 . S
C855 C424 1.749 . S
C874 C127 1.757 . S
C891 C457 1.749 . S
C910 C160 1.757 . S
C927 C61 1.751 . S
C946 C358 1.742 . S
C963 C94 1.754 . S
C982 C391 1.738 . S
C999 C28 1.754 . S
C1018 C325 1.736 . S
C1035 N533 1.856 . S
C1054 N203 1.833 . S
C1071 N566 1.849 . S
C1090 N236 1.865 . S
C1107 N500 1.854 . S
C1126 N269 1.840 . S
C1143 C259 1.754 . S
C1162 C556 1.737 . S
C1179 C589 1.749 . S
C1198 C292 1.752 . S
C1215 C226 1.754 . S
C1234 C523 1.749 . S
C1251 C17 1.229 . S
C1270 C578 1.222 . S
C1287 C50 1.232 . S
C1306 C512 1.234 . S
C1323 C83 1.232 . S
C1342 C545 1.235 . S
C1359 C248 1.231 . S
C1378 C116 1.230 . S
C1395 C149 1.229 . S
C1414 C281 1.219 . S
C1431 C182 1.229 . S
C1450 C215 1.220 . S
C1467 C314 1.232 . S
C1486 C446 1.235 . S
C1503 C347 1.232 . S
C1522 C479 1.232 . S
C1539 C380 1.231 . S
C1558 C413 1.228 . S
C1575 N80 1.358 . S
C1594 C8 1.366 . S
C1611 C41 1.347 . S
C1630 N14 1.342 . S
C1647 N47 1.357 . S
C1666 C74 1.326 . S
C1683 N146 1.356 . S
C1702 C107 1.365 . S
C1719 C140 1.353 . S
C1738 N179 1.354 . S
C1755 N113 1.355 . S
C1774 C173 1.359 . S
C1791 C206 1.351 . S
C1810 N278 1.341 . S
C1827 N212 1.355 . S
C1846 C239 1.332 . S
C1863 C272 1.353 . S
C1882 N245 1.351 . S
C1899 C305 1.347 . S
C1918 N344 1.339 . S
C1935 N377 1.361 . S
C1954 C338 1.346 . S
C1971 C371 1.346 . S
C1990 N311 1.346 . S
C2007 C404 1.351 . S
C2026 N476 1.369 . S
C2043 N410 1.360 . S
C2062 C437 1.331 . S
C2079 C470 1.351 . S
C2098 N443 1.342 . S
C2115 C503 1.353 . S
C2134 N542 1.361 . S
C2151 N575 1.360 . S
C2170 C536 1.332 . S
C2187 N509 1.361 . S
C2206 C569 1.359 . S
