# Generated by pormake.
# Topology fcq, (5)-cn, num edge types: 1
# Building blocks:
#     Node 0, Type 0, BuildingBlock: XOMCOT_clean_sbu_1, # of connection points: 5
#     Node 1, Type 0, BuildingBlock: XOMCOT_clean_sbu_1, # of connection points: 5
#     Node 2, Type 0, BuildingBlock: XOMCOT_clean_sbu_1, # of connection points: 5
#     Node 3, Type 0, BuildingBlock: XOMCOT_clean_sbu_1, # of connection points: 5
#     Node 4, Type 0, BuildingBlock: XOMCOT_clean_sbu_1, # of connection points: 5
#     Node 5, Type 0, BuildingBlock: XOMCOT_clean_sbu_1, # of connection points: 5
#     Node 6, Type 0, BuildingBlock: XOMCOT_clean_sbu_1, # of connection points: 5
#     Node 7, Type 0, BuildingBlock: XOMCOT_clean_sbu_1, # of connection points: 5
#     Node 8, Type 0, BuildingBlock: XOMCOT_clean_sbu_1, # of connection points: 5
#     Node 9, Type 0, BuildingBlock: XOMCOT_clean_sbu_1, # of connection points: 5
#     Node 10, Type 0, BuildingBlock: XOMCOT_clean_sbu_1, # of connection points: 5
#     Node 11, Type 0, BuildingBlock: XOMCOT_clean_sbu_1, # of connection points: 5
#     Node 12, Type 0, BuildingBlock: XOMCOT_clean_sbu_1, # of connection points: 5
#     Node 13, Type 0, BuildingBlock: XOMCOT_clean_sbu_1, # of connection points: 5
#     Node 14, Type 0, BuildingBlock: XOMCOT_clean_sbu_1, # of connection points: 5
#     Node 15, Type 0, BuildingBlock: XOMCOT_clean_sbu_1, # of connection points: 5
#     Node 16, Type 0, BuildingBlock: XOMCOT_clean_sbu_1, # of connection points: 5
#     Node 17, Type 0, BuildingBlock: XOMCOT_clean_sbu_1, # of connection points: 5
#     Node 18, Type 0, BuildingBlock: XOMCOT_clean_sbu_1, # of connection points: 5
#     Node 19, Type 0, BuildingBlock: XOMCOT_clean_sbu_1, # of connection points: 5
#     Node 20, Type 0, BuildingBlock: XOMCOT_clean_sbu_1, # of connection points: 5
#     Node 21, Type 0, BuildingBlock: XOMCOT_clean_sbu_1, # of connection points: 5
#     Node 22, Type 0, BuildingBlock: XOMCOT_clean_sbu_1, # of connection points: 5
#     Node 23, Type 0, BuildingBlock: XOMCOT_clean_sbu_1, # of connection points: 5
#     Node 24, Type 0, BuildingBlock: XOMCOT_clean_sbu_1, # of connection points: 5
#     Node 25, Type 0, BuildingBlock: XOMCOT_clean_sbu_1, # of connection points: 5
#     Node 26, Type 0, BuildingBlock: XOMCOT_clean_sbu_1, # of connection points: 5
#     Node 27, Type 0, BuildingBlock: XOMCOT_clean_sbu_1, # of connection points: 5
#     Node 28, Type 0, BuildingBlock: XOMCOT_clean_sbu_1, # of connection points: 5
#     Node 29, Type 0, BuildingBlock: XOMCOT_clean_sbu_1, # of connection points: 5
#     Node 30, Type 0, BuildingBlock: XOMCOT_clean_sbu_1, # of connection points: 5
#     Node 31, Type 0, BuildingBlock: XOMCOT_clean_sbu_1, # of connection points: 5
#     Node 32, Type 0, BuildingBlock: XOMCOT_clean_sbu_1, # of connection points: 5
#     Node 33, Type 0, BuildingBlock: XOMCOT_clean_sbu_1, # of connection points: 5
#     Node 34, Type 0, BuildingBlock: XOMCOT_clean_sbu_1, # of connection points: 5
#     Node 35, Type 0, BuildingBlock: XOMCOT_clean_sbu_1, # of connection points: 5
#     Node 36, Type 0, BuildingBlock: XOMCOT_clean_sbu_1, # of connection points: 5
#     Node 37, Type 0, BuildingBlock: XOMCOT_clean_sbu_1, # of connection points: 5
#     Node 38, Type 0, BuildingBlock: XOMCOT_clean_sbu_1, # of connection points: 5
#     Node 39, Type 0, BuildingBlock: XOMCOT_clean_sbu_1, # of connection points: 5
#     Node 40, Type 0, BuildingBlock: XOMCOT_clean_sbu_1, # of connection points: 5
#     Node 41, Type 0, BuildingBlock: XOMCOT_clean_sbu_1, # of connection points: 5
#     Node 42, Type 0, BuildingBlock: XOMCOT_clean_sbu_1, # of connection points: 5
#     Node 43, Type 0, BuildingBlock: XOMCOT_clean_sbu_1, # of connection points: 5
#     Node 44, Type 0, BuildingBlock: XOMCOT_clean_sbu_1, # of connection points: 5
#     Node 45, Type 0, BuildingBlock: XOMCOT_clean_sbu_1, # of connection points: 5
#     Node 46, Type 0, BuildingBlock: XOMCOT_clean_sbu_1, # of connection points: 5
#     Node 47, Type 0, BuildingBlock: XOMCOT_clean_sbu_1, # of connection points: 5
#     Edge 48, Type (0, 0), BuildingBlock: EZIPEK_clean_linker_0, # of connection points: 2
#     Edge 49, Type (0, 0), BuildingBlock: EZIPEK_clean_linker_0, # of connection points: 2
#     Edge 50, Type (0, 0), BuildingBlock: EZIPEK_clean_linker_0, # of connection points: 2
#     Edge 51, Type (0, 0), BuildingBlock: EZIPEK_clean_linker_0, # of connection points: 2
#     Edge 52, Type (0, 0), BuildingBlock: EZIPEK_clean_linker_0, # of connection points: 2
#     Edge 53, Type (0, 0), BuildingBlock: EZIPEK_clean_linker_0, # of connection points: 2
#     Edge 54, Type (0, 0), BuildingBlock: EZIPEK_clean_linker_0, # of connection points: 2
#     Edge 55, Type (0, 0), BuildingBlock: EZIPEK_clean_linker_0, # of connection points: 2
#     Edge 56, Type (0, 0), BuildingBlock: EZIPEK_clean_linker_0, # of connection points: 2
#     Edge 57, Type (0, 0), BuildingBlock: EZIPEK_clean_linker_0, # of connection points: 2
#     Edge 58, Type (0, 0), BuildingBlock: EZIPEK_clean_linker_0, # of connection points: 2
#     Edge 59, Type (0, 0), BuildingBlock: EZIPEK_clean_linker_0, # of connection points: 2
#     Edge 60, Type (0, 0), BuildingBlock: EZIPEK_clean_linker_0, # of connection points: 2
#     Edge 61, Type (0, 0), BuildingBlock: EZIPEK_clean_linker_0, # of connection points: 2
#     Edge 62, Type (0, 0), BuildingBlock: EZIPEK_clean_linker_0, # of connection points: 2
#     Edge 63, Type (0, 0), BuildingBlock: EZIPEK_clean_linker_0, # of connection points: 2
#     Edge 64, Type (0, 0), BuildingBlock: EZIPEK_clean_linker_0, # of connection points: 2
#     Edge 65, Type (0, 0), BuildingBlock: EZIPEK_clean_linker_0, # of connection points: 2
#     Edge 66, Type (0, 0), BuildingBlock: EZIPEK_clean_linker_0, # of connection points: 2
#     Edge 67, Type (0, 0), BuildingBlock: EZIPEK_clean_linker_0, # of connection points: 2
#     Edge 68, Type (0, 0), BuildingBlock: EZIPEK_clean_linker_0, # of connection points: 2
#     Edge 69, Type (0, 0), BuildingBlock: EZIPEK_clean_linker_0, # of connection points: 2
#     Edge 70, Type (0, 0), BuildingBlock: EZIPEK_clean_linker_0, # of connection points: 2
#     Edge 71, Type (0, 0), BuildingBlock: EZIPEK_clean_linker_0, # of connection points: 2
#     Edge 72, Type (0, 0), BuildingBlock: EZIPEK_clean_linker_0, # of connection points: 2
#     Edge 73, Type (0, 0), BuildingBlock: EZIPEK_clean_linker_0, # of connection points: 2
#     Edge 74, Type (0, 0), BuildingBlock: EZIPEK_clean_linker_0, # of connection points: 2
#     Edge 75, Type (0, 0), BuildingBlock: EZIPEK_clean_linker_0, # of connection points: 2
#     Edge 76, Type (0, 0), BuildingBlock: EZIPEK_clean_linker_0, # of connection points: 2
#     Edge 77, Type (0, 0), BuildingBlock: EZIPEK_clean_linker_0, # of connection points: 2
#     Edge 78, Type (0, 0), BuildingBlock: EZIPEK_clean_linker_0, # of connection points: 2
#     Edge 79, Type (0, 0), BuildingBlock: EZIPEK_clean_linker_0, # of connection points: 2
#     Edge 80, Type (0, 0), BuildingBlock: EZIPEK_clean_linker_0, # of connection points: 2
#     Edge 81, Type (0, 0), BuildingBlock: EZIPEK_clean_linker_0, # of connection points: 2
#     Edge 82, Type (0, 0), BuildingBlock: EZIPEK_clean_linker_0, # of connection points: 2
#     Edge 83, Type (0, 0), BuildingBlock: EZIPEK_clean_linker_0, # of connection points: 2
#     Edge 84, Type (0, 0), BuildingBlock: EZIPEK_clean_linker_0, # of connection points: 2
#     Edge 85, Type (0, 0), BuildingBlock: EZIPEK_clean_linker_0, # of connection points: 2
#     Edge 86, Type (0, 0), BuildingBlock: EZIPEK_clean_linker_0, # of connection points: 2
#     Edge 87, Type (0, 0), BuildingBlock: EZIPEK_clean_linker_0, # of connection points: 2
#     Edge 88, Type (0, 0), BuildingBlock: EZIPEK_clean_linker_0, # of connection points: 2
#     Edge 89, Type (0, 0), BuildingBlock: EZIPEK_clean_linker_0, # of connection points: 2
#     Edge 90, Type (0, 0), BuildingBlock: EZIPEK_clean_linker_0, # of connection points: 2
#     Edge 91, Type (0, 0), BuildingBlock: EZIPEK_clean_linker_0, # of connection points: 2
#     Edge 92, Type (0, 0), BuildingBlock: EZIPEK_clean_linker_0, # of connection points: 2
#     Edge 93, Type (0, 0), BuildingBlock: EZIPEK_clean_linker_0, # of connection points: 2
#     Edge 94, Type (0, 0), BuildingBlock: EZIPEK_clean_linker_0, # of connection points: 2
#     Edge 95, Type (0, 0), BuildingBlock: EZIPEK_clean_linker_0, # of connection points: 2
#     Edge 96, Type (0, 0), BuildingBlock: EZIPEK_clean_linker_0, # of connection points: 2
#     Edge 97, Type (0, 0), BuildingBlock: EZIPEK_clean_linker_0, # of connection points: 2
#     Edge 98, Type (0, 0), BuildingBlock: EZIPEK_clean_linker_0, # of connection points: 2
#     Edge 99, Type (0, 0), BuildingBlock: EZIPEK_clean_linker_0, # of connection points: 2
#     Edge 100, Type (0, 0), BuildingBlock: EZIPEK_clean_linker_0, # of connection points: 2
#     Edge 101, Type (0, 0), BuildingBlock: EZIPEK_clean_linker_0, # of connection points: 2
#     Edge 102, Type (0, 0), BuildingBlock: EZIPEK_clean_linker_0, # of connection points: 2
#     Edge 103, Type (0, 0), BuildingBlock: EZIPEK_clean_linker_0, # of connection points: 2
#     Edge 104, Type (0, 0), BuildingBlock: EZIPEK_clean_linker_0, # of connection points: 2
#     Edge 105, Type (0, 0), BuildingBlock: EZIPEK_clean_linker_0, # of connection points: 2
#     Edge 106, Type (0, 0), BuildingBlock: EZIPEK_clean_linker_0, # of connection points: 2
#     Edge 107, Type (0, 0), BuildingBlock: EZIPEK_clean_linker_0, # of connection points: 2
#     Edge 108, Type (0, 0), BuildingBlock: EZIPEK_clean_linker_0, # of connection points: 2
#     Edge 109, Type (0, 0), BuildingBlock: EZIPEK_clean_linker_0, # of connection points: 2
#     Edge 110, Type (0, 0), BuildingBlock: EZIPEK_clean_linker_0, # of connection points: 2
#     Edge 111, Type (0, 0), BuildingBlock: EZIPEK_clean_linker_0, # of connection points: 2
#     Edge 112, Type (0, 0), BuildingBlock: EZIPEK_clean_linker_0, # of connection points: 2
#     Edge 113, Type (0, 0), BuildingBlock: EZIPEK_clean_linker_0, # of connection points: 2
#     Edge 114, Type (0, 0), BuildingBlock: EZIPEK_clean_linker_0, # of connection points: 2
#     Edge 115, Type (0, 0), BuildingBlock: EZIPEK_clean_linker_0, # of connection points: 2
#     Edge 116, Type (0, 0), BuildingBlock: EZIPEK_clean_linker_0, # of connection points: 2
#     Edge 117, Type (0, 0), BuildingBlock: EZIPEK_clean_linker_0, # of connection points: 2
#     Edge 118, Type (0, 0), BuildingBlock: EZIPEK_clean_linker_0, # of connection points: 2
#     Edge 119, Type (0, 0), BuildingBlock: EZIPEK_clean_linker_0, # of connection points: 2
#     Edge 120, Type (0, 0), BuildingBlock: EZIPEK_clean_linker_0, # of connection points: 2
#     Edge 121, Type (0, 0), BuildingBlock: EZIPEK_clean_linker_0, # of connection points: 2
#     Edge 122, Type (0, 0), BuildingBlock: EZIPEK_clean_linker_0, # of connection points: 2
#     Edge 123, Type (0, 0), BuildingBlock: EZIPEK_clean_linker_0, # of connection points: 2
#     Edge 124, Type (0, 0), BuildingBlock: EZIPEK_clean_linker_0, # of connection points: 2
#     Edge 125, Type (0, 0), BuildingBlock: EZIPEK_clean_linker_0, # of connection points: 2
#     Edge 126, Type (0, 0), BuildingBlock: EZIPEK_clean_linker_0, # of connection points: 2
#     Edge 127, Type (0, 0), BuildingBlock: EZIPEK_clean_linker_0, # of connection points: 2
#     Edge 128, Type (0, 0), BuildingBlock: EZIPEK_clean_linker_0, # of connection points: 2
#     Edge 129, Type (0, 0), BuildingBlock: EZIPEK_clean_linker_0, # of connection points: 2
#     Edge 130, Type (0, 0), BuildingBlock: EZIPEK_clean_linker_0, # of connection points: 2
#     Edge 131, Type (0, 0), BuildingBlock: EZIPEK_clean_linker_0, # of connection points: 2
#     Edge 132, Type (0, 0), BuildingBlock: EZIPEK_clean_linker_0, # of connection points: 2
#     Edge 133, Type (0, 0), BuildingBlock: EZIPEK_clean_linker_0, # of connection points: 2
#     Edge 134, Type (0, 0), BuildingBlock: EZIPEK_clean_linker_0, # of connection points: 2
#     Edge 135, Type (0, 0), BuildingBlock: EZIPEK_clean_linker_0, # of connection points: 2
#     Edge 136, Type (0, 0), BuildingBlock: EZIPEK_clean_linker_0, # of connection points: 2
#     Edge 137, Type (0, 0), BuildingBlock: EZIPEK_clean_linker_0, # of connection points: 2
#     Edge 138, Type (0, 0), BuildingBlock: EZIPEK_clean_linker_0, # of connection points: 2
#     Edge 139, Type (0, 0), BuildingBlock: EZIPEK_clean_linker_0, # of connection points: 2
#     Edge 140, Type (0, 0), BuildingBlock: EZIPEK_clean_linker_0, # of connection points: 2
#     Edge 141, Type (0, 0), BuildingBlock: EZIPEK_clean_linker_0, # of connection points: 2
#     Edge 142, Type (0, 0), BuildingBlock: EZIPEK_clean_linker_0, # of connection points: 2
#     Edge 143, Type (0, 0), BuildingBlock: EZIPEK_clean_linker_0, # of connection points: 2
#     Edge 144, Type (0, 0), BuildingBlock: EZIPEK_clean_linker_0, # of connection points: 2
#     Edge 145, Type (0, 0), BuildingBlock: EZIPEK_clean_linker_0, # of connection points: 2
#     Edge 146, Type (0, 0), BuildingBlock: EZIPEK_clean_linker_0, # of connection points: 2
#     Edge 147, Type (0, 0), BuildingBlock: EZIPEK_clean_linker_0, # of connection points: 2
#     Edge 148, Type (0, 0), BuildingBlock: EZIPEK_clean_linker_0, # of connection points: 2
#     Edge 149, Type (0, 0), BuildingBlock: EZIPEK_clean_linker_0, # of connection points: 2
#     Edge 150, Type (0, 0), BuildingBlock: EZIPEK_clean_linker_0, # of connection points: 2
#     Edge 151, Type (0, 0), BuildingBlock: EZIPEK_clean_linker_0, # of connection points: 2
#     Edge 152, Type (0, 0), BuildingBlock: EZIPEK_clean_linker_0, # of connection points: 2
#     Edge 153, Type (0, 0), BuildingBlock: EZIPEK_clean_linker_0, # of connection points: 2
#     Edge 154, Type (0, 0), BuildingBlock: EZIPEK_clean_linker_0, # of connection points: 2
#     Edge 155, Type (0, 0), BuildingBlock: EZIPEK_clean_linker_0, # of connection points: 2
#     Edge 156, Type (0, 0), BuildingBlock: EZIPEK_clean_linker_0, # of connection points: 2
#     Edge 157, Type (0, 0), BuildingBlock: EZIPEK_clean_linker_0, # of connection points: 2
#     Edge 158, Type (0, 0), BuildingBlock: EZIPEK_clean_linker_0, # of connection points: 2
#     Edge 159, Type (0, 0), BuildingBlock: EZIPEK_clean_linker_0, # of connection points: 2
#     Edge 160, Type (0, 0), BuildingBlock: EZIPEK_clean_linker_0, # of connection points: 2
#     Edge 161, Type (0, 0), BuildingBlock: EZIPEK_clean_linker_0, # of connection points: 2
#     Edge 162, Type (0, 0), BuildingBlock: EZIPEK_clean_linker_0, # of connection points: 2
#     Edge 163, Type (0, 0), BuildingBlock: EZIPEK_clean_linker_0, # of connection points: 2
#     Edge 164, Type (0, 0), BuildingBlock: EZIPEK_clean_linker_0, # of connection points: 2
#     Edge 165, Type (0, 0), BuildingBlock: EZIPEK_clean_linker_0, # of connection points: 2
#     Edge 166, Type (0, 0), BuildingBlock: EZIPEK_clean_linker_0, # of connection points: 2
#     Edge 167, Type (0, 0), BuildingBlock: EZIPEK_clean_linker_0, # of connection points: 2
# Relax obj value: 0.453
# Max RMSD: 0.267
# Mean RMSD: 0.267
data_MOF--net-fcq--node1-XOMCOT_clean_sbu_1--edge1-EZIPEK_clean_linker_0
_symmetry_space_group_name_H-M    P1
_symmetry_Int_Tables_number       1
_symmetry_cell_setting            triclinic
loop_
_symmetry_equiv_pos_as_xyz
'x, y, z'
_cell_length_a     50.648069
_cell_length_b     50.642503
_cell_length_c     50.596773
_cell_angle_alpha  90.002932
_cell_angle_beta   89.948353
_cell_angle_gamma 90.021029
loop_
_atom_site_label
_atom_site_type_symbol
_atom_site_fract_x
_atom_site_fract_y
_atom_site_fract_z
_atom_type_partial_charge
C0 C 0.2035 0.23714 0.41309 0.0
C1 C 0.22215 0.24692 0.43023 0.0
N2 N 0.21564 0.23916 0.45474 0.0
N3 N 0.18576 0.2222 0.42638 0.0
C4 C 0.19305 0.22519 0.452 0.0
H5 H 0.20346 0.24017 0.39196 0.0
Co6 Co 0.15964 0.20179 0.40841 0.0
C7 C 0.15669 0.17327 0.46097 0.0
O8 O 0.18233 0.16952 0.46136 0.0
N9 N 0.13398 0.1828 0.38956 0.0
C10 C 0.11456 0.15431 0.36247 0.0
C11 C 0.1381 0.16557 0.36962 0.0
C12 C 0.10746 0.18282 0.39299 0.0
N13 N 0.0952 0.16513 0.37716 0.0
O14 O 0.13502 0.23025 0.41245 0.0
H15 H 0.15706 0.16107 0.3609 0.0
H16 H 0.09736 0.19542 0.407 0.0
O17 O 0.14597 0.18577 0.44175 0.0
C18 C 0.13533 0.24755 0.39421 0.0
O19 O 0.15291 0.24524 0.37524 0.0
N20 N 0.18444 0.17387 0.40257 0.0
C21 C 0.22103 0.13485 0.38898 0.0
C22 C 0.19902 0.12861 0.40439 0.0
C23 C 0.18058 0.14823 0.41026 0.0
C24 C 0.20496 0.17967 0.38603 0.0
C25 C 0.22363 0.16056 0.37921 0.0
H26 H 0.16293 0.14247 0.4204 0.0
H27 H 0.20648 0.19891 0.37717 0.0
H28 H 0.18278 0.21686 0.46858 0.0
H29 H 0.23966 0.25805 0.42504 0.0
H30 H 0.1118 0.1393 0.34748 0.0
H31 H 0.19599 0.1087 0.4116 0.0
H32 H 0.24004 0.16582 0.3665 0.0
C33 C 0.4959 0.5572 0.82435 0.0
C34 C 0.50179 0.5384 0.80561 0.0
N35 N 0.48702 0.54306 0.78401 0.0
N36 N 0.47734 0.57373 0.81486 0.0
C37 C 0.4725 0.5648 0.78999 0.0
H38 H 0.50337 0.55775 0.84435 0.0
Co39 Co 0.45911 0.59663 0.83781 0.0
C40 C 0.41547 0.6206 0.80848 0.0
O41 O 0.40103 0.61493 0.82928 0.0
N42 N 0.44108 0.61987 0.86194 0.0
C43 C 0.41325 0.63729 0.89132 0.0
C44 C 0.42446 0.61444 0.88222 0.0
C45 C 0.44034 0.64667 0.86025 0.0
N46 N 0.42311 0.65769 0.87751 0.0
O47 O 0.48675 0.62254 0.83453 0.0
H48 H 0.41946 0.59529 0.8898 0.0
H49 H 0.45188 0.65788 0.84616 0.0
O50 O 0.43961 0.61289 0.80821 0.0
C51 C 0.50227 0.62314 0.85436 0.0
O52 O 0.49811 0.60667 0.87399 0.0
N53 N 0.43369 0.56987 0.84199 0.0
C54 C 0.39703 0.53077 0.85324 0.0
C55 C 0.39812 0.54198 0.82802 0.0
C56 C 0.41685 0.56134 0.82267 0.0
C57 C 0.43537 0.55631 0.86518 0.0
C58 C 0.41635 0.53754 0.87182 0.0
H59 H 0.41754 0.56943 0.80298 0.0
H60 H 0.45056 0.56143 0.87931 0.0
H61 H 0.45745 0.57287 0.77716 0.0
H62 H 0.5151 0.52186 0.80803 0.0
H63 H 0.39853 0.63878 0.90678 0.0
H64 H 0.38424 0.53617 0.8128 0.0
H65 H 0.41661 0.52851 0.89123 0.0
C66 C 0.78961 0.258 0.40777 0.0
C67 C 0.77092 0.25178 0.42646 0.0
N68 N 0.7782 0.26259 0.44964 0.0
N69 N 0.80864 0.27295 0.41881 0.0
C70 C 0.80138 0.27515 0.44458 0.0
H71 H 0.78867 0.25322 0.38695 0.0
Co72 Co 0.8333 0.28976 0.39669 0.0
C73 C 0.85901 0.33217 0.4259 0.0
O74 O 0.85189 0.34775 0.40644 0.0
N75 N 0.8585 0.30641 0.37311 0.0
C76 C 0.87888 0.33584 0.34728 0.0
C77 C 0.85494 0.3259 0.35507 0.0
C78 C 0.88524 0.30415 0.37438 0.0
N79 N 0.89809 0.32239 0.35963 0.0
O80 O 0.85713 0.26091 0.40264 0.0
H81 H 0.83649 0.33441 0.3491 0.0
H82 H 0.89524 0.29029 0.38691 0.0
O83 O 0.85023 0.30843 0.42624 0.0
C84 C 0.8634 0.24448 0.38472 0.0
O85 O 0.85478 0.24825 0.36052 0.0
N86 N 0.80794 0.31665 0.39159 0.0
C87 C 0.76548 0.35115 0.38536 0.0
C88 C 0.77772 0.34816 0.40993 0.0
C89 C 0.79878 0.3309 0.41264 0.0
C90 C 0.79471 0.31753 0.36811 0.0
C91 C 0.77433 0.33578 0.36407 0.0
H92 H 0.80704 0.32846 0.4321 0.0
H93 H 0.80041 0.30438 0.35224 0.0
H94 H 0.81188 0.28701 0.45894 0.0
H95 H 0.75282 0.24089 0.42314 0.0
H96 H 0.88193 0.35255 0.33428 0.0
H97 H 0.77085 0.35898 0.42709 0.0
H98 H 0.76502 0.33724 0.34487 0.0
C99 C 0.52137 0.96202 0.85488 0.0
C100 C 0.51026 0.98294 0.84152 0.0
N101 N 0.5019 0.97425 0.81784 0.0
N102 N 0.52056 0.94017 0.83959 0.0
C103 C 0.50681 0.94795 0.818 0.0
H104 H 0.53193 0.9634 0.87339 0.0
Co105 Co 0.54217 0.91017 0.84666 0.0
C106 C 0.54789 0.91011 0.78467 0.0
O107 O 0.54195 0.93469 0.77911 0.0
N108 N 0.56393 0.88134 0.85422 0.0
C109 C 0.59937 0.85555 0.85255 0.0
C110 C 0.58708 0.87695 0.84168 0.0
C111 C 0.56295 0.86266 0.87333 0.0
N112 N 0.58424 0.84654 0.8724 0.0
O113 O 0.51226 0.88749 0.84533 0.0
H114 H 0.595 0.88907 0.82597 0.0
H115 H 0.54746 0.8613 0.88796 0.0
O116 O 0.54856 0.90261 0.80883 0.0
C117 C 0.4962 0.88879 0.86462 0.0
O118 O 0.50062 0.90611 0.88345 0.0
N119 N 0.57158 0.93214 0.84994 0.0
C120 C 0.6126 0.96659 0.86124 0.0
C121 C 0.6036 0.96348 0.83528 0.0
C122 C 0.58331 0.94584 0.82998 0.0
C123 C 0.58069 0.93423 0.87523 0.0
C124 C 0.6017 0.95101 0.88129 0.0
H125 H 0.57684 0.94395 0.81 0.0
H126 H 0.57128 0.92304 0.89083 0.0
H127 H 0.50191 0.93504 0.80176 0.0
H128 H 0.51136 0.00349 0.84731 0.0
H129 H 0.6184 0.84758 0.84689 0.0
H130 H 0.61189 0.97502 0.81926 0.0
H131 H 0.60858 0.95269 0.90148 0.0
C132 C 0.1996 0.76137 0.08733 0.0
C133 C 0.21834 0.75483 0.06883 0.0
N134 N 0.21031 0.76389 0.04519 0.0
N135 N 0.17978 0.77471 0.07563 0.0
C136 C 0.18666 0.77563 0.04971 0.0
H137 H 0.20097 0.75792 0.10837 0.0
Co138 Co 0.15433 0.79088 0.0972 0.0
C139 C 0.13183 0.83341 0.0637 0.0
O140 O 0.13645 0.84972 0.0834 0.0
N141 N 0.12924 0.80543 0.12078 0.0
C142 C 0.11042 0.81386 0.15981 0.0
C143 C 0.13123 0.80195 0.14721 0.0
C144 C 0.10562 0.81767 0.11778 0.0
N145 N 0.09445 0.82378 0.1412 0.0
O146 O 0.13067 0.76192 0.09186 0.0
H147 H 0.14646 0.79056 0.15686 0.0
H148 H 0.09631 0.82173 0.09902 0.0
O149 O 0.13838 0.80914 0.06648 0.0
C150 C 0.1316 0.74307 0.10845 0.0
O151 O 0.14937 0.74385 0.12734 0.0
N152 N 0.17842 0.81925 0.10303 0.0
C153 C 0.21303 0.86122 0.11132 0.0
C154 C 0.20638 0.85346 0.08571 0.0
C155 C 0.18924 0.83236 0.082 0.0
C156 C 0.18654 0.82535 0.12805 0.0
C157 C 0.20305 0.84693 0.13274 0.0
H158 H 0.18416 0.82711 0.06203 0.0
H159 H 0.18079 0.81344 0.14461 0.0
H160 H 0.17564 0.78618 0.0348 0.0
H161 H 0.23697 0.74504 0.07256 0.0
H162 H 0.10689 0.81469 0.1809 0.0
H163 H 0.21419 0.86384 0.06868 0.0
H164 H 0.20851 0.85202 0.1528 0.0
C165 C 0.01211 0.53289 0.15336 0.0
C166 C 0.00548 0.51346 0.17121 0.0
N167 N 0.01159 0.522 0.19562 0.0
N168 N 0.02282 0.55363 0.16622 0.0
C169 C 0.02146 0.5467 0.19212 0.0
H170 H 0.01119 0.53112 0.13208 0.0
Co171 Co 0.0423 0.57963 0.14751 0.0
C172 C 0.08618 0.59537 0.18331 0.0
O173 O 0.10343 0.58979 0.16478 0.0
N174 N 0.06206 0.60582 0.128 0.0
C175 C 0.09482 0.62668 0.10699 0.0
C176 C 0.08497 0.6027 0.11441 0.0
C177 C 0.05832 0.63245 0.12765 0.0
N178 N 0.07827 0.6455 0.11549 0.0
O179 O 0.01585 0.60543 0.15521 0.0
H180 H 0.09577 0.58459 0.11178 0.0
H181 H 0.04196 0.64236 0.13714 0.0
O182 O 0.06154 0.59061 0.17967 0.0
C183 C 0.99682 0.60591 0.13882 0.0
O184 O 0.99666 0.58865 0.11942 0.0
N185 N 0.06648 0.55311 0.13868 0.0
C186 C 0.09999 0.51299 0.12254 0.0
C187 C 0.09793 0.51958 0.14927 0.0
C188 C 0.08083 0.53954 0.15695 0.0
C189 C 0.06617 0.54502 0.11294 0.0
C190 C 0.08374 0.52569 0.10414 0.0
H191 H 0.07939 0.54425 0.17755 0.0
H192 H 0.05324 0.55471 0.09897 0.0
H193 H 0.02848 0.55891 0.20804 0.0
H194 H 0.99814 0.49393 0.16652 0.0
H195 H 0.11349 0.6302 0.09715 0.0
H196 H 0.10978 0.5096 0.16403 0.0
H197 H 0.08466 0.52069 0.08334 0.0
C198 C 0.80534 0.74684 0.08621 0.0
C199 C 0.78784 0.75584 0.06749 0.0
N200 N 0.79182 0.7422 0.04504 0.0
N201 N 0.82033 0.72742 0.07584 0.0
C202 C 0.81181 0.72519 0.05051 0.0
H203 H 0.80598 0.75295 0.10667 0.0
Co204 Co 0.84223 0.70685 0.09772 0.0
C205 C 0.86288 0.66256 0.06727 0.0
O206 O 0.85383 0.64751 0.08636 0.0
N207 N 0.86486 0.68661 0.12069 0.0
C208 C 0.88229 0.6546 0.14539 0.0
C209 C 0.85936 0.66698 0.13803 0.0
C210 C 0.89169 0.68639 0.11926 0.0
N211 N 0.90274 0.66664 0.13344 0.0
O212 O 0.8694 0.73267 0.09446 0.0
H213 H 0.84006 0.66018 0.14371 0.0
H214 H 0.90298 0.69998 0.10726 0.0
O215 O 0.85733 0.68727 0.06765 0.0
C216 C 0.8698 0.74899 0.11354 0.0
O217 O 0.85255 0.74628 0.13276 0.0
N218 N 0.81392 0.68314 0.10165 0.0
C219 C 0.77049 0.65105 0.11103 0.0
C220 C 0.78196 0.65191 0.08594 0.0
C221 C 0.80335 0.66859 0.08147 0.0
C222 C 0.8012 0.68449 0.12536 0.0
C223 C 0.77992 0.66786 0.13085 0.0
H224 H 0.81133 0.66968 0.06173 0.0
H225 H 0.80835 0.69785 0.14044 0.0
H226 H 0.81876 0.71024 0.03688 0.0
H227 H 0.7724 0.77032 0.0705 0.0
H228 H 0.88376 0.63733 0.15792 0.0
H229 H 0.77429 0.63994 0.06993 0.0
H230 H 0.7708 0.66822 0.15021 0.0
C231 C 0.97505 0.95882 0.17035 0.0
C232 C 0.98305 0.97995 0.18548 0.0
N233 N 0.98762 0.97123 0.21015 0.0
N234 N 0.97397 0.93688 0.18548 0.0
C235 C 0.98317 0.9449 0.20928 0.0
H236 H 0.9679 0.95995 0.15025 0.0
Co237 Co 0.955 0.90662 0.1747 0.0
C238 C 0.94196 0.90111 0.23549 0.0
O239 O 0.94274 0.92559 0.244 0.0
N240 N 0.93534 0.87718 0.16353 0.0
C241 C 0.90046 0.85059 0.16078 0.0
C242 C 0.91051 0.87271 0.17241 0.0
C243 C 0.93973 0.85752 0.14591 0.0
N244 N 0.91879 0.84104 0.14426 0.0
O245 O 0.98605 0.88566 0.17798 0.0
H246 H 0.90038 0.88452 0.18704 0.0
H247 H 0.9578 0.85505 0.13479 0.0
O248 O 0.94566 0.89627 0.21098 0.0
C249 C 1.00033 0.88439 0.15733 0.0
O250 O 0.99329 0.89784 0.13628 0.0
N251 N 0.92514 0.92736 0.16938 0.0
C252 C 0.88169 0.95627 0.1531 0.0
C253 C 0.8875 0.95379 0.18004 0.0
C254 C 0.90934 0.93896 0.18784 0.0
C255 C 0.9198 0.92984 0.1431 0.0
C256 C 0.89783 0.94384 0.13448 0.0
H257 H 0.91327 0.93686 0.20852 0.0
H258 H 0.93265 0.92053 0.12877 0.0
H259 H 0.98526 0.93215 0.2262 0.0
H260 H 0.98281 0.0005 0.17959 0.0
H261 H 0.88143 0.84163 0.1647 0.0
H262 H 0.87524 0.96321 0.19485 0.0
H263 H 0.89375 0.94543 0.11353 0.0
C264 C 0.40935 0.21078 0.23491 0.0
C265 C 0.42212 0.23267 0.24506 0.0
N266 N 0.44797 0.22692 0.24721 0.0
N267 N 0.42718 0.1915 0.23034 0.0
C268 C 0.45032 0.20177 0.23871 0.0
H269 H 0.38887 0.20984 0.22895 0.0
Co270 Co 0.4214 0.16139 0.2094 0.0
C271 C 0.47901 0.14567 0.20614 0.0
O272 O 0.47798 0.12916 0.22612 0.0
N273 N 0.41553 0.13163 0.18772 0.0
C274 C 0.4187 0.10585 0.15217 0.0
C275 C 0.4293 0.12698 0.16524 0.0
C276 C 0.39621 0.11306 0.18758 0.0
N277 N 0.39789 0.09724 0.1661 0.0
O278 O 0.42598 0.13952 0.2399 0.0
H279 H 0.44544 0.13892 0.15798 0.0
H280 H 0.38086 0.1115 0.20235 0.0
O281 O 0.45883 0.15936 0.19994 0.0
C282 C 0.40409 0.13492 0.25148 0.0
O283 O 0.38249 0.14479 0.24103 0.0
N284 N 0.41494 0.18297 0.18046 0.0
C285 C 0.40093 0.21688 0.13988 0.0
C286 C 0.42668 0.21693 0.14992 0.0
C287 C 0.43337 0.19969 0.17017 0.0
C288 C 0.38985 0.18236 0.17069 0.0
C289 C 0.38249 0.19891 0.14991 0.0
H290 H 0.45313 0.20048 0.17809 0.0
H291 H 0.37544 0.16915 0.17932 0.0
H292 H 0.46892 0.19179 0.23689 0.0
H293 H 0.41355 0.25199 0.24824 0.0
H294 H 0.42535 0.0977 0.13354 0.0
H295 H 0.44137 0.23062 0.14248 0.0
H296 H 0.36249 0.19836 0.14235 0.0
C297 C 0.46478 0.34307 0.00326 0.0
C298 C 0.4834 0.32487 0.99522 0.0
N299 N 0.47394 0.30053 1.00013 0.0
N300 N 0.44375 0.33034 0.01357 0.0
C301 C 0.44957 0.30441 0.01045 0.0
H302 H 0.46748 0.36425 0.00389 0.0
Co303 Co 0.41797 0.34714 0.03478 0.0
C304 C 0.40569 0.30856 0.07736 0.0
O305 O 0.40929 0.3275 0.09466 0.0
N306 N 0.39155 0.36461 0.0563 0.0
C307 C 0.37078 0.38461 0.08978 0.0
C308 C 0.39472 0.37772 0.07949 0.0
C309 C 0.36484 0.36447 0.05304 0.0
N310 N 0.35187 0.37626 0.07328 0.0
O311 O 0.39168 0.33999 0.00825 0.0
H312 H 0.41287 0.38052 0.09013 0.0
H313 H 0.35489 0.35534 0.03652 0.0
O314 O 0.40909 0.31317 0.05264 0.0
C315 C 0.38952 0.35808 0.99086 0.0
O316 O 0.40466 0.37906 0.99278 0.0
N317 N 0.44515 0.35566 0.05909 0.0
C318 C 0.48338 0.37004 0.09584 0.0
C319 C 0.47832 0.34347 0.09046 0.0
C320 C 0.4594 0.33675 0.07183 0.0
C321 C 0.4524 0.38158 0.06138 0.0
C322 C 0.47071 0.3894 0.08065 0.0
H323 H 0.45602 0.31627 0.06804 0.0
H324 H 0.44243 0.39639 0.04966 0.0
H325 H 0.4368 0.28859 0.01672 0.0
H326 H 0.50328 0.32919 0.98863 0.0
H327 H 0.3674 0.39438 0.10852 0.0
H328 H 0.48852 0.32794 0.10109 0.0
H329 H 0.47463 0.41017 0.0839 0.0
C330 C 0.58352 0.2979 0.25267 0.0
C331 C 0.56387 0.28106 0.26105 0.0
N332 N 0.54053 0.29103 0.25329 0.0
N333 N 0.57276 0.31826 0.23928 0.0
C334 C 0.54641 0.3139 0.2407 0.0
H335 H 0.60453 0.29455 0.25452 0.0
Co336 Co 0.59398 0.34172 0.21969 0.0
C337 C 0.56341 0.35772 0.17232 0.0
O338 O 0.58392 0.35022 0.1584 0.0
N339 N 0.61664 0.36588 0.20022 0.0
C340 C 0.64095 0.38476 0.16849 0.0
C341 C 0.6326 0.36144 0.17907 0.0
C342 C 0.61702 0.39266 0.2024 0.0
N343 N 0.63092 0.40454 0.1829 0.0
O344 O 0.58664 0.36852 0.24563 0.0
H345 H 0.63615 0.34299 0.16934 0.0
H346 H 0.60655 0.40349 0.21732 0.0
O347 O 0.56353 0.35461 0.19762 0.0
C348 C 0.60436 0.37258 0.263 0.0
O349 O 0.62705 0.36019 0.26066 0.0
N350 N 0.60128 0.31352 0.19626 0.0
C351 C 0.61296 0.27732 0.15702 0.0
C352 C 0.58672 0.28333 0.163 0.0
C353 C 0.58131 0.30134 0.18292 0.0
C354 C 0.62625 0.30349 0.19466 0.0
C355 C 0.63295 0.28641 0.17391 0.0
H356 H 0.56111 0.30684 0.18629 0.0
H357 H 0.6416 0.31128 0.20732 0.0
H358 H 0.5318 0.32646 0.23178 0.0
H359 H 0.5666 0.26199 0.27032 0.0
H360 H 0.65239 0.38708 0.15054 0.0
H361 H 0.57066 0.27566 0.15111 0.0
H362 H 0.65344 0.28147 0.17034 0.0
C363 C 0.54884 0.1648 0.01222 0.0
C364 C 0.529 0.18141 0.00381 0.0
N365 N 0.53606 0.20628 0.0097 0.0
N366 N 0.56784 0.17882 0.02472 0.0
C367 C 0.55997 0.20425 0.02139 0.0
H368 H 0.54933 0.14365 0.00935 0.0
Co369 Co 0.59935 0.16383 0.03935 0.0
C370 C 0.59948 0.21411 0.06969 0.0
O371 O 0.5746 0.2103 0.07598 0.0
N372 N 0.63132 0.1493 0.05195 0.0
C373 C 0.67482 0.1479 0.058 0.0
C374 C 0.65461 0.16086 0.0458 0.0
C375 C 0.63815 0.12861 0.06759 0.0
N376 N 0.66456 0.12784 0.07192 0.0
O377 O 0.61689 0.17083 0.00657 0.0
H378 H 0.6568 0.17851 0.03398 0.0
H379 H 0.62411 0.11516 0.07647 0.0
O380 O 0.6111 0.19811 0.05397 0.0
C381 C 0.618 0.15098 0.99119 0.0
O382 O 0.60441 0.12975 0.99739 0.0
N383 N 0.58167 0.15512 0.07203 0.0
C384 C 0.55297 0.1474 0.11876 0.0
C385 C 0.57884 0.15708 0.11959 0.0
C386 C 0.59286 0.1606 0.09604 0.0
C387 C 0.55773 0.14268 0.07139 0.0
C388 C 0.54273 0.13934 0.09438 0.0
H389 H 0.61244 0.16863 0.09708 0.0
H390 H 0.54982 0.13533 0.05315 0.0
H391 H 0.57145 0.22122 0.02702 0.0
H392 H 0.51078 0.17572 0.9942 0.0
H393 H 0.69549 0.15335 0.05753 0.0
H394 H 0.58777 0.16273 0.1382 0.0
H395 H 0.52318 0.13077 0.09309 0.0
C396 C 0.41622 0.79194 0.2645 0.0
C397 C 0.43303 0.77079 0.26149 0.0
N398 N 0.45746 0.77865 0.2683 0.0
N399 N 0.42988 0.81298 0.27351 0.0
C400 C 0.4551 0.80426 0.27541 0.0
H401 H 0.39518 0.79177 0.26096 0.0
Co402 Co 0.41453 0.84519 0.28364 0.0
C403 C 0.46791 0.86973 0.29653 0.0
O404 O 0.47233 0.88218 0.27422 0.0
N405 N 0.39916 0.87747 0.29388 0.0
C406 C 0.39488 0.9207 0.30081 0.0
C407 C 0.40767 0.90163 0.28632 0.0
C408 C 0.38045 0.88253 0.31238 0.0
N409 N 0.37801 0.90861 0.31737 0.0
O410 O 0.4245 0.86032 0.25035 0.0
H411 H 0.42337 0.90525 0.27232 0.0
H412 H 0.36999 0.86749 0.32336 0.0
O413 O 0.447 0.85624 0.29989 0.0
C414 C 0.40866 0.85537 0.23149 0.0
O415 O 0.38765 0.84114 0.23701 0.0
N416 N 0.40366 0.82924 0.31535 0.0
C417 C 0.39127 0.79298 0.35438 0.0
C418 C 0.41221 0.81057 0.35793 0.0
C419 C 0.41801 0.82882 0.33823 0.0
C420 C 0.38126 0.81444 0.31311 0.0
C421 C 0.37452 0.7961 0.33262 0.0
H422 H 0.43502 0.84122 0.34108 0.0
H423 H 0.3697 0.8155 0.29518 0.0
H424 H 0.47141 0.81603 0.2825 0.0
H425 H 0.42776 0.75111 0.25504 0.0
H426 H 0.39859 0.94175 0.30021 0.0
H427 H 0.42519 0.80886 0.37486 0.0
H428 H 0.35803 0.78284 0.32954 0.0
C429 C 0.04541 0.34967 0.98209 0.0
C430 C 0.0255 0.3324 0.9885 0.0
N431 N 0.03182 0.3085 0.9789 0.0
N432 N 0.06398 0.33733 0.96744 0.0
C433 C 0.05557 0.31179 0.96693 0.0
H434 H 0.04621 0.37026 0.98769 0.0
Co435 Co 0.09281 0.35752 0.95367 0.0
C436 C 0.09859 0.30988 0.91912 0.0
O437 O 0.07356 0.31095 0.91246 0.0
N438 N 0.12041 0.37865 0.94157 0.0
C439 C 0.14107 0.41508 0.92833 0.0
C440 C 0.11847 0.40515 0.93973 0.0
C441 C 0.14458 0.37288 0.93175 0.0
N442 N 0.15737 0.39473 0.92338 0.0
O443 O 0.11329 0.34841 0.98402 0.0
H444 H 0.10123 0.41638 0.94545 0.0
H445 H 0.15244 0.3531 0.93013 0.0
O446 O 0.10823 0.32672 0.93525 0.0
C447 C 0.11452 0.3647 0.0031 0.0
O448 O 0.10085 0.3867 0.00198 0.0
N449 N 0.07259 0.36779 0.92362 0.0
C450 C 0.03973 0.37754 0.88057 0.0
C451 C 0.06492 0.36689 0.87682 0.0
C452 C 0.08155 0.36368 0.8985 0.0
C453 C 0.0496 0.38137 0.92722 0.0
C454 C 0.0329 0.38664 0.90588 0.0
H455 H 0.10112 0.35648 0.89515 0.0
H456 H 0.0439 0.38801 0.94662 0.0
H457 H 0.0663 0.29569 0.95813 0.0
H458 H 0.00773 0.33698 0.9995 0.0
H459 H 0.14487 0.43546 0.92312 0.0
H460 H 0.0715 0.36054 0.85746 0.0
H461 H 0.01413 0.39629 0.90936 0.0
C462 C 0.59142 0.70185 0.26029 0.0
C463 C 0.57226 0.71983 0.25349 0.0
N464 N 0.55092 0.71515 0.26855 0.0
N465 N 0.58261 0.68616 0.28002 0.0
C466 C 0.55742 0.69443 0.28406 0.0
H467 H 0.61114 0.70105 0.25215 0.0
Co468 Co 0.60572 0.66156 0.29623 0.0
C469 C 0.55958 0.65057 0.33233 0.0
O470 O 0.55896 0.67471 0.34177 0.0
N471 N 0.62937 0.63781 0.31078 0.0
C472 C 0.66667 0.62125 0.32687 0.0
C473 C 0.65553 0.64211 0.31342 0.0
C474 C 0.62506 0.61407 0.32205 0.0
N475 N 0.64734 0.60386 0.33225 0.0
O476 O 0.60027 0.63767 0.26767 0.0
H477 H 0.66559 0.65977 0.30685 0.0
H478 H 0.6059 0.60478 0.32364 0.0
O479 O 0.57635 0.644 0.31468 0.0
C480 C 0.61687 0.6376 0.24883 0.0
O481 O 0.63638 0.65472 0.24927 0.0
N482 N 0.61257 0.68517 0.32456 0.0
C483 C 0.62205 0.7215 0.36484 0.0
C484 C 0.61604 0.69525 0.37089 0.0
C485 C 0.61238 0.67716 0.35039 0.0
C486 C 0.62081 0.71009 0.31846 0.0
C487 C 0.6256 0.7286 0.3383 0.0
H488 H 0.60836 0.6569 0.35536 0.0
H489 H 0.62379 0.71581 0.29816 0.0
H490 H 0.54391 0.68613 0.29816 0.0
H491 H 0.57398 0.73547 0.23901 0.0
H492 H 0.68702 0.61941 0.3331 0.0
H493 H 0.6139 0.68887 0.39121 0.0
H494 H 0.63121 0.74855 0.33297 0.0
C495 C 0.94906 0.1782 0.99739 0.0
C496 C 0.96796 0.19704 0.00263 0.0
N497 N 0.96353 0.21806 0.98695 0.0
N498 N 0.93274 0.18708 0.97835 0.0
C499 C 0.94188 0.21163 0.97254 0.0
H500 H 0.94836 0.15849 0.00558 0.0
Co501 Co 0.90999 0.16421 0.9601 0.0
C502 C 0.88572 0.19477 0.91686 0.0
O503 O 0.89053 0.17419 0.90184 0.0
N504 N 0.88704 0.14038 0.94187 0.0
C505 C 0.86997 0.11194 0.91299 0.0
C506 C 0.89277 0.121 0.92435 0.0
C507 C 0.86025 0.14161 0.9415 0.0
N508 N 0.84943 0.12499 0.92359 0.0
O509 O 0.88378 0.16706 0.9882 0.0
H510 H 0.91212 0.11436 0.91871 0.0
H511 H 0.84891 0.15506 0.95363 0.0
O512 O 0.89381 0.19416 0.94089 0.0
C513 C 0.88273 0.14707 0.00363 0.0
O514 O 0.89903 0.12734 0.99941 0.0
N515 N 0.93694 0.16003 0.93457 0.0
C516 C 0.9793 0.14873 0.9013 0.0
C517 C 0.96612 0.1729 0.89934 0.0
C518 C 0.94525 0.1784 0.91653 0.0
C519 C 0.95114 0.13746 0.93813 0.0
C520 C 0.97183 0.13094 0.92113 0.0
H521 H 0.93647 0.19775 0.91562 0.0
H522 H 0.94568 0.12397 0.9538 0.0
H523 H 0.9341 0.22382 0.95681 0.0
H524 H 0.98445 0.19502 0.01608 0.0
H525 H 0.86859 0.09724 0.8975 0.0
H526 H 0.97227 0.18756 0.88501 0.0
H527 H 0.98221 0.11242 0.92369 0.0
C528 C 0.25097 0.42075 0.18929 0.0
C529 C 0.25553 0.43998 0.208 0.0
N530 N 0.23472 0.45647 0.20832 0.0
N531 N 0.22739 0.42499 0.17767 0.0
C532 C 0.21805 0.44718 0.18959 0.0
H533 H 0.26345 0.40388 0.18544 0.0
Co534 Co 0.21133 0.39991 0.15521 0.0
C535 C 0.16794 0.42803 0.12833 0.0
O536 O 0.15238 0.40778 0.1331 0.0
N537 N 0.19608 0.37387 0.13265 0.0
C538 C 0.17744 0.33734 0.11638 0.0
C539 C 0.18944 0.34854 0.13808 0.0
C540 C 0.18951 0.37678 0.10685 0.0
N541 N 0.17703 0.35545 0.09702 0.0
O542 O 0.2387 0.40447 0.12953 0.0
H543 H 0.19246 0.33861 0.15665 0.0
H544 H 0.19243 0.39481 0.09574 0.0
O545 O 0.19138 0.42782 0.1376 0.0
C546 C 0.25642 0.38668 0.12892 0.0
O547 O 0.25525 0.36733 0.14619 0.0
N548 N 0.18519 0.3945 0.18134 0.0
C549 C 0.15159 0.38271 0.22332 0.0
C550 C 0.14832 0.40602 0.20896 0.0
C551 C 0.16546 0.41169 0.18818 0.0
C552 C 0.18952 0.37255 0.19629 0.0
C553 C 0.17238 0.36571 0.21676 0.0
H554 H 0.16307 0.43037 0.17839 0.0
H555 H 0.20668 0.36044 0.1925 0.0
H556 H 0.199 0.45585 0.18554 0.0
H557 H 0.27222 0.44105 0.22131 0.0
H558 H 0.1684 0.318 0.11536 0.0
H559 H 0.13296 0.41998 0.21415 0.0
H560 H 0.17591 0.3479 0.22807 0.0
C561 C 0.24726 0.57399 0.30599 0.0
C562 C 0.25286 0.55495 0.28738 0.0
N563 N 0.23229 0.53819 0.2861 0.0
N564 N 0.22329 0.56934 0.31667 0.0
C565 C 0.21471 0.54715 0.3042 0.0
H566 H 0.2594 0.59095 0.31053 0.0
Co567 Co 0.20631 0.59382 0.33916 0.0
C568 C 0.16174 0.56624 0.36494 0.0
O569 O 0.14803 0.58786 0.36098 0.0
N570 N 0.18972 0.61921 0.36196 0.0
C571 C 0.16182 0.64891 0.37855 0.0
C572 C 0.17304 0.63917 0.3559 0.0
C573 C 0.1893 0.61854 0.38883 0.0
N574 N 0.1718 0.63582 0.39939 0.0
O575 O 0.23383 0.58925 0.36518 0.0
H576 H 0.16769 0.64564 0.3364 0.0
H577 H 0.20079 0.60476 0.40041 0.0
O578 O 0.18541 0.56534 0.35587 0.0
C579 C 0.25062 0.60803 0.366 0.0
O580 O 0.24756 0.62818 0.34993 0.0
N581 N 0.1809 0.59929 0.3124 0.0
C582 C 0.14309 0.61387 0.27461 0.0
C583 C 0.14214 0.58917 0.28746 0.0
C584 C 0.16109 0.58226 0.30596 0.0
C585 C 0.18501 0.62103 0.29709 0.0
C586 C 0.16631 0.62887 0.27829 0.0
H587 H 0.15947 0.56306 0.31489 0.0
H588 H 0.20229 0.63313 0.3005 0.0
H589 H 0.19565 0.53816 0.30746 0.0
H590 H 0.27015 0.55416 0.27481 0.0
H591 H 0.14667 0.66395 0.37957 0.0
H592 H 0.12701 0.5747 0.28323 0.0
H593 H 0.1707 0.64641 0.2672 0.0
C594 C 0.83988 0.50825 0.96533 0.0
C595 C 0.82213 0.50123 0.98473 0.0
N596 N 0.79762 0.50522 0.97539 0.0
N597 N 0.82675 0.51718 0.94392 0.0
C598 C 0.80093 0.51416 0.95034 0.0
H599 H 0.86113 0.50867 0.96744 0.0
Co600 Co 0.84418 0.53558 0.91645 0.0
C601 C 0.80831 0.57881 0.90048 0.0
O602 O 0.82825 0.59514 0.90294 0.0
N603 N 0.86287 0.5542 0.88845 0.0
C604 C 0.88475 0.58555 0.86629 0.0
C605 C 0.87774 0.57641 0.89066 0.0
C606 C 0.86222 0.55004 0.86182 0.0
N607 N 0.87492 0.5692 0.84796 0.0
O608 O 0.83527 0.5078 0.89271 0.0
H609 H 0.88168 0.58735 0.90842 0.0
H610 H 0.8521 0.53371 0.85263 0.0
O611 O 0.81133 0.55431 0.90621 0.0
C612 C 0.85306 0.4902 0.89122 0.0
O613 O 0.87504 0.49402 0.90451 0.0
N614 N 0.85386 0.56111 0.94162 0.0
C615 C 0.87069 0.59556 0.98071 0.0
C616 C 0.844 0.59392 0.97419 0.0
C617 C 0.83593 0.57616 0.95497 0.0
C618 C 0.87965 0.56077 0.94948 0.0
C619 C 0.88878 0.57868 0.96838 0.0
H620 H 0.8152 0.57444 0.95112 0.0
H621 H 0.89334 0.54721 0.94022 0.0
H622 H 0.78482 0.51919 0.93739 0.0
H623 H 0.82684 0.49524 0.00471 0.0
H624 H 0.89549 0.6036 0.86223 0.0
H625 H 0.82945 0.60598 0.98424 0.0
H626 H 0.90948 0.57901 0.97373 0.0
C627 C 0.76906 0.90323 0.29197 0.0
C628 C 0.76423 0.92313 0.27411 0.0
N629 N 0.7684 0.94642 0.28617 0.0
N630 N 0.77637 0.91374 0.31537 0.0
C631 C 0.77548 0.94029 0.31132 0.0
H632 H 0.7682 0.88227 0.28794 0.0
Co633 Co 0.78828 0.89239 0.344 0.0
C634 C 0.83516 0.9209 0.36312 0.0
O635 O 0.84732 0.89798 0.36345 0.0
N636 N 0.79865 0.87064 0.37318 0.0
C637 C 0.80333 0.83541 0.39948 0.0
C638 C 0.79321 0.84463 0.37589 0.0
C639 C 0.80966 0.87713 0.3968 0.0
N640 N 0.81386 0.856 0.41243 0.0
O641 O 0.7586 0.90302 0.36553 0.0
H642 H 0.78255 0.83294 0.36153 0.0
H643 H 0.81474 0.89694 0.4028 0.0
O644 O 0.81058 0.92194 0.35688 0.0
C645 C 0.73505 0.89786 0.35815 0.0
O646 O 0.73092 0.89094 0.3335 0.0
N647 N 0.81706 0.88038 0.32213 0.0
C648 C 0.86189 0.86641 0.29328 0.0
C649 C 0.85196 0.89202 0.29208 0.0
C650 C 0.83001 0.89873 0.30705 0.0
C651 C 0.82465 0.85446 0.3206 0.0
C652 C 0.84766 0.84714 0.307 0.0
H653 H 0.82454 0.91925 0.30768 0.0
H654 H 0.81352 0.83923 0.33022 0.0
H655 H 0.78102 0.95477 0.32604 0.0
H656 H 0.75871 0.92072 0.25358 0.0
H657 H 0.80335 0.81518 0.40639 0.0
H658 H 0.86245 0.90736 0.28142 0.0
H659 H 0.85457 0.82692 0.30771 0.0
C660 C 0.65599 0.48707 0.47124 0.0
C661 C 0.67577 0.49365 0.48868 0.0
N662 N 0.69906 0.49021 0.47641 0.0
N663 N 0.66668 0.47894 0.44818 0.0
C664 C 0.69305 0.48191 0.45167 0.0
H665 H 0.63507 0.48679 0.47554 0.0
Co666 Co 0.64543 0.46471 0.42102 0.0
C667 C 0.67521 0.41734 0.40309 0.0
O668 O 0.65376 0.40339 0.40753 0.0
N669 N 0.6228 0.45261 0.39381 0.0
C670 C 0.58599 0.44841 0.36987 0.0
C671 C 0.59697 0.4592 0.39226 0.0
C672 C 0.62742 0.43957 0.37088 0.0
N673 N 0.60527 0.43602 0.35657 0.0
O674 O 0.656 0.49263 0.39835 0.0
H675 H 0.5867 0.47139 0.40649 0.0
H676 H 0.64666 0.4336 0.36404 0.0
O677 O 0.67494 0.4424 0.40735 0.0
C678 C 0.64162 0.51318 0.39903 0.0
O679 O 0.62176 0.51419 0.41572 0.0
N680 N 0.63452 0.43719 0.44456 0.0
C681 C 0.62126 0.39716 0.48001 0.0
C682 C 0.6475 0.40462 0.47657 0.0
C683 C 0.65366 0.42461 0.45887 0.0
C684 C 0.60859 0.43089 0.44875 0.0
C685 C 0.60155 0.41032 0.46582 0.0
H686 H 0.67407 0.42959 0.45622 0.0
H687 H 0.59304 0.44184 0.43943 0.0
H688 H 0.70763 0.47746 0.43675 0.0
H689 H 0.67334 0.49916 0.50921 0.0
H690 H 0.56554 0.44955 0.36376 0.0
H691 H 0.66319 0.39498 0.48746 0.0
H692 H 0.58094 0.40527 0.46856 0.0
C693 C 0.25359 0.58632 0.69214 0.0
C694 C 0.24792 0.56696 0.71033 0.0
N695 N 0.26504 0.54694 0.70689 0.0
N696 N 0.27373 0.57849 0.6766 0.0
C697 C 0.2804 0.55432 0.68619 0.0
H698 H 0.24452 0.6056 0.69122 0.0
Co699 Co 0.28873 0.60157 0.65145 0.0
C700 C 0.33057 0.5696 0.62584 0.0
O701 O 0.34698 0.58937 0.62969 0.0
N702 N 0.30278 0.62609 0.62619 0.0
C703 C 0.31461 0.66433 0.60741 0.0
C704 C 0.30316 0.65267 0.62912 0.0
C705 C 0.3124 0.62246 0.60135 0.0
N706 N 0.32052 0.64522 0.59008 0.0
O707 O 0.25877 0.59662 0.62862 0.0
H708 H 0.29507 0.66338 0.64564 0.0
H709 H 0.31357 0.60359 0.59148 0.0
O710 O 0.30682 0.5718 0.63415 0.0
C711 C 0.24135 0.61477 0.62971 0.0
O712 O 0.2448 0.63458 0.6461 0.0
N713 N 0.31705 0.60756 0.67522 0.0
C714 C 0.3532 0.61927 0.71507 0.0
C715 C 0.35269 0.59418 0.70367 0.0
C716 C 0.33425 0.5886 0.68399 0.0
C717 C 0.31656 0.6316 0.68732 0.0
C718 C 0.33509 0.63827 0.70654 0.0
H719 H 0.33345 0.56868 0.67666 0.0
H720 H 0.30074 0.64519 0.68335 0.0
H721 H 0.29674 0.54269 0.67891 0.0
H722 H 0.23327 0.5681 0.72588 0.0
H723 H 0.31857 0.68515 0.60463 0.0
H724 H 0.36575 0.57874 0.71064 0.0
H725 H 0.33415 0.65746 0.71596 0.0
C726 C 0.84212 0.48367 0.53327 0.0
C727 C 0.8224 0.49215 0.51662 0.0
N728 N 0.79914 0.48848 0.52886 0.0
N729 N 0.83141 0.47417 0.55579 0.0
C730 C 0.80513 0.47821 0.55285 0.0
H731 H 0.86296 0.4829 0.52862 0.0
Co732 Co 0.85244 0.4566 0.58108 0.0
C733 C 0.82048 0.40948 0.59571 0.0
O734 O 0.84129 0.39493 0.5903 0.0
N735 N 0.87495 0.44094 0.60636 0.0
C736 C 0.91188 0.434 0.62941 0.0
C737 C 0.90112 0.44607 0.60762 0.0
C738 C 0.87005 0.42712 0.62875 0.0
N739 N 0.89224 0.42206 0.6426 0.0
O740 O 0.84395 0.48267 0.60677 0.0
H741 H 0.91163 0.45896 0.59422 0.0
H742 H 0.85059 0.42203 0.63576 0.0
O743 O 0.82197 0.43471 0.59328 0.0
C744 C 0.85815 0.50333 0.60586 0.0
O745 O 0.87583 0.50552 0.58696 0.0
N746 N 0.86164 0.43107 0.55487 0.0
C747 C 0.87348 0.39463 0.51541 0.0
C748 C 0.84735 0.40108 0.52098 0.0
C749 C 0.84192 0.41952 0.54051 0.0
C750 C 0.88738 0.42584 0.5486 0.0
C751 C 0.89377 0.40711 0.52934 0.0
H752 H 0.82168 0.42434 0.54428 0.0
H753 H 0.90322 0.43657 0.55768 0.0
H754 H 0.79056 0.47308 0.56756 0.0
H755 H 0.8248 0.49887 0.49645 0.0
H756 H 0.93232 0.43466 0.63562 0.0
H757 H 0.83126 0.39221 0.51001 0.0
H758 H 0.91426 0.40314 0.52465 0.0
C759 C 0.16335 0.01399 0.5387 0.0
C760 C 0.17917 0.00822 0.51724 0.0
N761 N 0.20417 0.00559 0.52588 0.0
N762 N 0.17841 0.01534 0.56066 0.0
C763 C 0.20296 0.009 0.55231 0.0
H764 H 0.14264 0.01915 0.53797 0.0
Co765 Co 0.16807 0.02961 0.59333 0.0
C766 C 0.21055 0.0662 0.60886 0.0
O767 O 0.19136 0.08257 0.61498 0.0
N768 N 0.15768 0.04324 0.62703 0.0
C769 C 0.16202 0.0506 0.67034 0.0
C770 C 0.17222 0.03781 0.6488 0.0
C771 C 0.13816 0.05921 0.63628 0.0
N772 N 0.14075 0.06419 0.66245 0.0
O773 O 0.17589 0.99618 0.61007 0.0
H774 H 0.19017 0.02634 0.64882 0.0
H775 H 0.12283 0.06788 0.62435 0.0
O776 O 0.20476 0.04312 0.59999 0.0
C777 C 0.15505 0.9827 0.61433 0.0
O778 O 0.1324 0.99276 0.60663 0.0
N779 N 0.15847 0.06127 0.57535 0.0
C780 C 0.14226 0.10216 0.54204 0.0
C781 C 0.16888 0.09553 0.54412 0.0
C782 C 0.17646 0.07472 0.56031 0.0
C783 C 0.13221 0.0669 0.57274 0.0
C784 C 0.12364 0.08775 0.5566 0.0
H785 H 0.19674 0.06868 0.55951 0.0
H786 H 0.11772 0.05438 0.58219 0.0
H787 H 0.21997 0.0082 0.56513 0.0
H788 H 0.17325 0.00837 0.49669 0.0
H789 H 0.17011 0.05073 0.69014 0.0
H790 H 0.18363 0.1056 0.53231 0.0
H791 H 0.10275 0.0918 0.55458 0.0
C792 C 0.7101 0.73329 0.91504 0.0
C793 C 0.7311 0.74168 0.93012 0.0
N794 N 0.72271 0.74477 0.95512 0.0
N795 N 0.68848 0.73036 0.93042 0.0
C796 C 0.69654 0.73906 0.95449 0.0
H797 H 0.71124 0.72717 0.8946 0.0
Co798 Co 0.65932 0.71001 0.91791 0.0
C799 C 0.65418 0.6932 0.97766 0.0
O800 O 0.67789 0.69776 0.98703 0.0
N801 N 0.63135 0.6892 0.90469 0.0
C802 C 0.60773 0.6527 0.89801 0.0
C803 C 0.6292 0.66319 0.91049 0.0
C804 C 0.61089 0.69392 0.88807 0.0
N805 N 0.59615 0.67196 0.88406 0.0
O806 O 0.63593 0.73904 0.92382 0.0
H807 H 0.64209 0.65247 0.92369 0.0
H808 H 0.60666 0.71292 0.87933 0.0
O809 O 0.64943 0.69699 0.95315 0.0
C810 C 0.63512 0.75628 0.90563 0.0
O811 O 0.65045 0.75349 0.88487 0.0
N812 N 0.68233 0.68208 0.91075 0.0
C813 C 0.71749 0.64297 0.8954 0.0
C814 C 0.7137 0.64886 0.92217 0.0
C815 C 0.69567 0.66816 0.92944 0.0
C816 C 0.68557 0.6765 0.88455 0.0
C817 C 0.70258 0.65639 0.87641 0.0
H818 H 0.69287 0.67199 0.95 0.0
H819 H 0.67475 0.68772 0.86993 0.0
H820 H 0.68392 0.74032 0.97159 0.0
H821 H 0.75149 0.74284 0.92378 0.0
H822 H 0.60043 0.63269 0.89991 0.0
H823 H 0.72474 0.63865 0.93741 0.0
H824 H 0.70476 0.65197 0.85558 0.0
C825 C 0.98856 0.04253 0.34697 0.0
C826 C 0.99665 0.02566 0.32726 0.0
N827 N 0.98528 0.03337 0.30454 0.0
N828 N 0.97204 0.06079 0.33684 0.0
C829 C 0.97056 0.05482 0.31076 0.0
H830 H 0.99338 0.04084 0.36772 0.0
Co831 Co 0.95402 0.08475 0.35859 0.0
C832 C 0.90778 0.10289 0.32742 0.0
O833 O 0.89397 0.10435 0.34932 0.0
N834 N 0.93735 0.10921 0.38157 0.0
C835 C 0.9214 0.13039 0.41688 0.0
C836 C 0.93292 0.10747 0.40792 0.0
C837 C 0.93 0.13422 0.37553 0.0
N838 N 0.91937 0.14694 0.39631 0.0
O839 O 0.97973 0.11105 0.35142 0.0
H840 H 0.93814 0.09109 0.42039 0.0
H841 H 0.93163 0.14278 0.35599 0.0
O842 O 0.93236 0.09677 0.3284 0.0
C843 C 0.99859 0.11015 0.36793 0.0
O844 O 0.99829 0.09156 0.38606 0.0
N845 N 0.92938 0.05772 0.36634 0.0
C846 C 0.89634 0.01508 0.37688 0.0
C847 C 0.89775 0.02574 0.35155 0.0
C848 C 0.91489 0.04645 0.34653 0.0
C849 C 0.92957 0.04627 0.39078 0.0
C850 C 0.91259 0.02526 0.39676 0.0
H851 H 0.91711 0.05245 0.32624 0.0
H852 H 0.94405 0.05216 0.4052 0.0
H853 H 0.95783 0.06492 0.29688 0.0
H854 H 0.00894 0.00833 0.32959 0.0
H855 H 0.91458 0.13444 0.43675 0.0
H856 H 0.88672 0.0171 0.33535 0.0
H857 H 0.91336 0.016 0.41604 0.0
C858 C 0.29702 0.75455 0.91632 0.0
C859 C 0.27689 0.74722 0.93313 0.0
N860 N 0.28007 0.76017 0.95613 0.0
N861 N 0.31283 0.77212 0.92859 0.0
C862 C 0.30207 0.77499 0.95296 0.0
H863 H 0.2986 0.74919 0.89571 0.0
Co864 Co 0.33655 0.79411 0.91068 0.0
C865 C 0.36817 0.81093 0.95773 0.0
O866 O 0.38918 0.79706 0.95152 0.0
N867 N 0.36028 0.81702 0.89216 0.0
C868 C 0.37723 0.85236 0.87185 0.0
C869 C 0.35459 0.84046 0.88045 0.0
C870 C 0.38696 0.81524 0.88988 0.0
N871 N 0.39757 0.83664 0.87793 0.0
O872 O 0.36364 0.76788 0.91317 0.0
H873 H 0.33555 0.84973 0.87921 0.0
H874 H 0.39868 0.79929 0.89787 0.0
O875 O 0.3476 0.81013 0.94332 0.0
C876 C 0.36419 0.75152 0.89409 0.0
O877 O 0.34622 0.75367 0.87551 0.0
N878 N 0.30926 0.81851 0.90699 0.0
C879 C 0.27379 0.85766 0.893 0.0
C880 C 0.28431 0.8569 0.91856 0.0
C881 C 0.30219 0.83715 0.92521 0.0
C882 C 0.29694 0.81725 0.88308 0.0
C883 C 0.27963 0.83719 0.87531 0.0
H884 H 0.31061 0.83748 0.94476 0.0
H885 H 0.30237 0.80192 0.86921 0.0
H886 H 0.30871 0.78937 0.96732 0.0
H887 H 0.2603 0.73463 0.92832 0.0
H888 H 0.37881 0.87166 0.86276 0.0
H889 H 0.27957 0.87211 0.93286 0.0
H890 H 0.27152 0.8371 0.85551 0.0
C891 C 0.00332 0.44241 0.3286 0.0
C892 C 0.99643 0.46027 0.30933 0.0
N893 N 0.01106 0.45537 0.28768 0.0
N894 N 0.02236 0.42624 0.31939 0.0
C895 C 0.02657 0.43448 0.29419 0.0
H896 H 0.99604 0.44225 0.34869 0.0
Co897 Co 0.04056 0.40378 0.3427 0.0
C898 C 0.08635 0.38196 0.31486 0.0
O899 O 0.09989 0.38825 0.33605 0.0
N900 N 0.05834 0.38087 0.36734 0.0
C901 C 0.08717 0.36396 0.39602 0.0
C902 C 0.07566 0.38667 0.3869 0.0
C903 C 0.05882 0.35402 0.3663 0.0
N904 N 0.07681 0.34332 0.38296 0.0
O905 O 0.01453 0.37685 0.3373 0.0
H906 H 0.08149 0.40602 0.39334 0.0
H907 H 0.04727 0.34253 0.35249 0.0
O908 O 0.062 0.3888 0.31384 0.0
C909 C 0.99582 0.37665 0.35411 0.0
O910 O 0.99612 0.39418 0.37326 0.0
N911 N 0.0646 0.43163 0.34845 0.0
C912 C 0.0966 0.47471 0.36007 0.0
C913 C 0.09801 0.46262 0.3353 0.0
C914 C 0.08145 0.44138 0.32967 0.0
C915 C 0.06116 0.44497 0.3716 0.0
C916 C 0.07771 0.46595 0.37832 0.0
H917 H 0.08202 0.43322 0.31 0.0
H918 H 0.04612 0.43853 0.38537 0.0
H919 H 0.04177 0.42653 0.28143 0.0
H920 H 0.98252 0.47637 0.31138 0.0
H921 H 0.10284 0.36276 0.41053 0.0
H922 H 0.11157 0.46978 0.32035 0.0
H923 H 0.07554 0.47553 0.39734 0.0
C924 C 0.69893 0.25149 0.58272 0.0
C925 C 0.71759 0.24578 0.5638 0.0
N926 N 0.71154 0.25915 0.54164 0.0
N927 N 0.68108 0.26855 0.57281 0.0
C928 C 0.68912 0.27266 0.5475 0.0
H929 H 0.69935 0.24502 0.60308 0.0
Co930 Co 0.65768 0.28603 0.5959 0.0
C931 C 0.63346 0.32898 0.56471 0.0
O932 O 0.63943 0.34526 0.58407 0.0
N933 N 0.6343 0.30273 0.62051 0.0
C934 C 0.61732 0.32125 0.65688 0.0
C935 C 0.63854 0.30789 0.64644 0.0
C936 C 0.60925 0.31138 0.61649 0.0
N937 N 0.59913 0.32377 0.6378 0.0
O938 O 0.63219 0.25844 0.59194 0.0
H939 H 0.65573 0.30231 0.65757 0.0
H940 H 0.59874 0.30932 0.59802 0.0
O941 O 0.64081 0.30486 0.5663 0.0
C942 C 0.63253 0.24066 0.60967 0.0
O943 O 0.6503 0.24206 0.62851 0.0
N944 N 0.68385 0.31238 0.60045 0.0
C945 C 0.72683 0.34615 0.60785 0.0
C946 C 0.71409 0.34468 0.58338 0.0
C947 C 0.6928 0.32767 0.58005 0.0
C948 C 0.69729 0.31227 0.62382 0.0
C949 C 0.71794 0.32999 0.62846 0.0
H950 H 0.68443 0.32615 0.56056 0.0
H951 H 0.69297 0.2975 0.63852 0.0
H952 H 0.67998 0.28666 0.53421 0.0
H953 H 0.73499 0.23365 0.56644 0.0
H954 H 0.6157 0.32933 0.67662 0.0
H955 H 0.72095 0.35621 0.56669 0.0
H956 H 0.72781 0.33003 0.64745 0.0
C957 C 0.49479 0.0527 0.68392 0.0
C958 C 0.48573 0.03445 0.70206 0.0
N959 N 0.49694 0.03977 0.72556 0.0
N960 N 0.51174 0.06943 0.69587 0.0
C961 C 0.51246 0.0611 0.72132 0.0
H962 H 0.49068 0.05262 0.66296 0.0
Co963 Co 0.53369 0.09366 0.67812 0.0
C964 C 0.55166 0.12675 0.72197 0.0
O965 O 0.53683 0.14659 0.71439 0.0
N966 N 0.55664 0.11778 0.66065 0.0
C967 C 0.59474 0.13805 0.65191 0.0
C968 C 0.583 0.11772 0.66515 0.0
C969 C 0.55295 0.13869 0.64425 0.0
N970 N 0.57594 0.15144 0.63902 0.0
O971 O 0.5071 0.12027 0.6817 0.0
H972 H 0.59318 0.10441 0.67836 0.0
H973 H 0.53388 0.14512 0.63716 0.0
O974 O 0.55012 0.10438 0.71057 0.0
C975 C 0.48985 0.12019 0.66351 0.0
O976 O 0.49172 0.10264 0.6445 0.0
N977 N 0.55867 0.06691 0.67325 0.0
C978 C 0.59965 0.03276 0.66061 0.0
C979 C 0.59346 0.03799 0.6871 0.0
C980 C 0.57288 0.05534 0.69306 0.0
C981 C 0.56331 0.06062 0.64749 0.0
C982 C 0.58411 0.04394 0.64066 0.0
H983 H 0.56895 0.05998 0.71351 0.0
H984 H 0.55162 0.06975 0.63211 0.0
H985 H 0.52576 0.06897 0.73604 0.0
H986 H 0.47334 0.01752 0.69793 0.0
H987 H 0.61539 0.14354 0.6528 0.0
H988 H 0.60493 0.02933 0.70294 0.0
H989 H 0.58827 0.04005 0.62002 0.0
C990 C 0.30311 0.24083 0.58293 0.0
C991 C 0.28147 0.24971 0.56892 0.0
N992 N 0.28541 0.24411 0.54323 0.0
N993 N 0.32052 0.22954 0.56617 0.0
C994 C 0.30929 0.2323 0.54207 0.0
H995 H 0.30519 0.24093 0.6042 0.0
Co996 Co 0.35002 0.20958 0.57704 0.0
C997 C 0.35455 0.17962 0.52387 0.0
O998 O 0.34126 0.15887 0.53176 0.0
N999 N 0.37952 0.18991 0.58844 0.0
C1000 C 0.40699 0.1561 0.5939 0.0
C1001 C 0.38719 0.16626 0.57874 0.0
C1002 C 0.39474 0.19333 0.61021 0.0
N1003 N 0.41163 0.17296 0.61378 0.0
O1004 O 0.37216 0.2401 0.57211 0.0
H1005 H 0.3778 0.15566 0.563 0.0
H1006 H 0.39231 0.20941 0.62408 0.0
O1007 O 0.35852 0.1991 0.53961 0.0
C1008 C 0.37337 0.25633 0.59134 0.0
O1009 O 0.35961 0.25149 0.61282 0.0
N1010 N 0.32754 0.18023 0.58443 0.0
C1011 C 0.29498 0.13839 0.59981 0.0
C1012 C 0.29039 0.15192 0.57615 0.0
C1013 C 0.30674 0.17287 0.56896 0.0
C1014 C 0.33087 0.16844 0.60855 0.0
C1015 C 0.31554 0.14681 0.61616 0.0
H1016 H 0.30321 0.18243 0.55034 0.0
H1017 H 0.34547 0.17576 0.62221 0.0
H1018 H 0.31714 0.22364 0.52432 0.0
H1019 H 0.26345 0.25776 0.57713 0.0
H1020 H 0.41602 0.13684 0.59168 0.0
H1021 H 0.27447 0.14605 0.5631 0.0
H1022 H 0.31938 0.13706 0.63482 0.0
C1023 C 0.48768 0.46432 0.65076 0.0
C1024 C 0.4927 0.48359 0.6692 0.0
N1025 N 0.48378 0.47525 0.69283 0.0
N1026 N 0.47536 0.44379 0.66239 0.0
C1027 C 0.47354 0.45084 0.68828 0.0
H1028 H 0.49156 0.46567 0.62978 0.0
Co1029 Co 0.46112 0.41701 0.64069 0.0
C1030 C 0.41764 0.39444 0.67213 0.0
O1031 O 0.40196 0.39888 0.6519 0.0
N1032 N 0.44822 0.39024 0.61734 0.0
C1033 C 0.44171 0.36861 0.57931 0.0
C1034 C 0.45242 0.39071 0.59092 0.0
C1035 C 0.43663 0.36635 0.62136 0.0
N1036 N 0.43177 0.35337 0.59857 0.0
O1037 O 0.49037 0.39435 0.6488 0.0
H1038 H 0.46345 0.40579 0.58061 0.0
H1039 H 0.43239 0.35794 0.6405 0.0
O1040 O 0.44175 0.40177 0.67056 0.0
C1041 C 0.50965 0.39331 0.63267 0.0
O1042 O 0.50965 0.40882 0.61187 0.0
N1043 N 0.43267 0.44035 0.63236 0.0
C1044 C 0.39501 0.47899 0.62085 0.0
C1045 C 0.39976 0.47142 0.64694 0.0
C1046 C 0.4187 0.45224 0.65227 0.0
C1047 C 0.42871 0.44824 0.60685 0.0
C1048 C 0.40937 0.46689 0.60055 0.0
H1049 H 0.42232 0.44725 0.67265 0.0
H1050 H 0.44118 0.44116 0.59123 0.0
H1051 H 0.46365 0.43911 0.70317 0.0
H1052 H 0.50163 0.50266 0.66545 0.0
H1053 H 0.44161 0.36382 0.55846 0.0
H1054 H 0.38922 0.48065 0.66314 0.0
H1055 H 0.40653 0.47276 0.58017 0.0
C1056 C 0.9076 0.69357 0.74944 0.0
C1057 C 0.92676 0.71149 0.75666 0.0
N1058 N 0.94821 0.70725 0.74156 0.0
N1059 N 0.91681 0.67811 0.72979 0.0
C1060 C 0.94187 0.6867 0.72568 0.0
H1061 H 0.88756 0.69303 0.7568 0.0
Co1062 Co 0.89445 0.65608 0.70996 0.0
C1063 C 0.92451 0.63898 0.6632 0.0
O1064 O 0.90338 0.64542 0.64965 0.0
N1065 N 0.87123 0.63335 0.6904 0.0
C1066 C 0.84488 0.61589 0.65969 0.0
C1067 C 0.85205 0.63865 0.67249 0.0
C1068 C 0.87396 0.60669 0.68891 0.0
N1069 N 0.8589 0.59578 0.66976 0.0
O1070 O 0.89998 0.6279 0.73491 0.0
H1071 H 0.84472 0.65776 0.66702 0.0
H1072 H 0.8881 0.59558 0.70041 0.0
O1073 O 0.92435 0.64324 0.6882 0.0
C1074 C 0.88266 0.626 0.75309 0.0
O1075 O 0.86319 0.64316 0.75345 0.0
N1076 N 0.88835 0.68511 0.68712 0.0
C1077 C 0.87823 0.72956 0.65622 0.0
C1078 C 0.90357 0.71872 0.65744 0.0
C1079 C 0.90823 0.69664 0.67293 0.0
C1080 C 0.86427 0.69715 0.68844 0.0
C1081 C 0.85826 0.71853 0.67193 0.0
H1082 H 0.92813 0.68926 0.67363 0.0
H1083 H 0.84926 0.68936 0.70153 0.0
H1084 H 0.95462 0.67943 0.71015 0.0
H1085 H 0.92463 0.72738 0.77082 0.0
H1086 H 0.83126 0.61442 0.64327 0.0
H1087 H 0.91978 0.72725 0.64634 0.0
H1088 H 0.83848 0.72663 0.67181 0.0
C1089 C 0.95669 0.85171 0.52259 0.0
C1090 C 0.97531 0.83364 0.5146 0.0
N1091 N 0.96541 0.80928 0.51827 0.0
N1092 N 0.93518 0.83897 0.53183 0.0
C1093 C 0.94073 0.81302 0.52804 0.0
H1094 H 0.95939 0.87288 0.52342 0.0
Co1095 Co 0.90937 0.85778 0.55108 0.0
C1096 C 0.89292 0.82297 0.59537 0.0
O1097 O 0.89877 0.84227 0.61162 0.0
N1098 N 0.88317 0.87814 0.57047 0.0
C1099 C 0.86216 0.90008 0.60268 0.0
C1100 C 0.88605 0.89175 0.59347 0.0
C1101 C 0.85671 0.87965 0.56604 0.0
N1102 N 0.84358 0.89222 0.58566 0.0
O1103 O 0.88383 0.84951 0.52361 0.0
H1104 H 0.90367 0.89352 0.60511 0.0
H1105 H 0.84681 0.87065 0.54959 0.0
O1106 O 0.89736 0.82569 0.57049 0.0
C1107 C 0.87811 0.86595 0.50541 0.0
O1108 O 0.88841 0.88974 0.50647 0.0
N1109 N 0.9361 0.86558 0.57642 0.0
C1110 C 0.97232 0.87663 0.61622 0.0
C1111 C 0.96689 0.85055 0.60909 0.0
C1112 C 0.94892 0.84549 0.58901 0.0
C1113 C 0.94474 0.89092 0.57983 0.0
C1114 C 0.96183 0.89712 0.60075 0.0
H1115 H 0.9443 0.82531 0.58454 0.0
H1116 H 0.93633 0.90663 0.56803 0.0
H1117 H 0.92748 0.79716 0.53309 0.0
H1118 H 0.99513 0.83798 0.50784 0.0
H1119 H 0.85846 0.90979 0.6214 0.0
H1120 H 0.97545 0.83418 0.61989 0.0
H1121 H 0.96622 0.91756 0.60523 0.0
C1122 C 0.08194 0.78399 0.73258 0.0
C1123 C 0.06448 0.76362 0.73674 0.0
N1124 N 0.03982 0.77327 0.73479 0.0
N1125 N 0.06846 0.80644 0.72778 0.0
C1126 C 0.04271 0.79934 0.72948 0.0
H1127 H 0.10324 0.78241 0.73219 0.0
Co1128 Co 0.08552 0.83773 0.71769 0.0
C1129 C 0.04029 0.87278 0.70577 0.0
O1130 O 0.04654 0.88943 0.72462 0.0
N1131 N 0.10341 0.86953 0.70734 0.0
C1132 C 0.11754 0.91131 0.70754 0.0
C1133 C 0.10569 0.89172 0.72208 0.0
C1134 C 0.1149 0.8763 0.68394 0.0
N1135 N 0.12333 0.90167 0.68348 0.0
O1136 O 0.07681 0.85287 0.7515 0.0
H1137 H 0.09868 0.89415 0.74208 0.0
H1138 H 0.11665 0.86324 0.66716 0.0
O1139 O 0.05357 0.85171 0.70217 0.0
C1140 C 0.09025 0.84553 0.77146 0.0
O1141 O 0.10985 0.82907 0.76716 0.0
N1142 N 0.09453 0.82117 0.68576 0.0
C1143 C 0.10876 0.78589 0.64604 0.0
C1144 C 0.08262 0.79447 0.64846 0.0
C1145 C 0.07587 0.81218 0.66843 0.0
C1146 C 0.12024 0.81353 0.68325 0.0
C1147 C 0.12796 0.79645 0.66298 0.0
H1148 H 0.05527 0.81698 0.67099 0.0
H1149 H 0.13461 0.82005 0.69765 0.0
H1150 H 0.02641 0.81266 0.72598 0.0
H1151 H 0.06942 0.74316 0.74045 0.0
H1152 H 0.12158 0.93126 0.71411 0.0
H1153 H 0.06731 0.78653 0.63579 0.0
H1154 H 0.14835 0.79016 0.66159 0.0
C1155 C 0.0456 0.67762 0.50002 0.0
C1156 C 0.02708 0.6965 0.49388 0.0
N1157 N 0.03119 0.71757 0.50953 0.0
N1158 N 0.06136 0.68657 0.51954 0.0
C1159 C 0.05217 0.71115 0.52484 0.0
H1160 H 0.04645 0.65789 0.49192 0.0
Co1161 Co 0.08462 0.66391 0.53725 0.0
C1162 C 0.108 0.69529 0.58063 0.0
O1163 O 0.10362 0.67502 0.5963 0.0
N1164 N 0.108 0.63971 0.55388 0.0
C1165 C 0.12609 0.60257 0.56929 0.0
C1166 C 0.10391 0.61366 0.55831 0.0
C1167 C 0.13357 0.64345 0.561 0.0
N1168 N 0.14461 0.62141 0.57104 0.0
O1169 O 0.11061 0.66835 0.51013 0.0
H1170 H 0.08628 0.60284 0.55349 0.0
H1171 H 0.1439 0.66208 0.55929 0.0
O1172 O 0.10031 0.69378 0.55661 0.0
C1173 C 0.11058 0.6505 0.49243 0.0
O1174 O 0.09232 0.63207 0.4935 0.0
N1175 N 0.05804 0.65856 0.56318 0.0
C1176 C 0.01642 0.64695 0.59746 0.0
C1177 C 0.02875 0.67162 0.59832 0.0
C1178 C 0.0492 0.67724 0.58067 0.0
C1179 C 0.04466 0.63533 0.56077 0.0
C1180 C 0.02443 0.62868 0.57829 0.0
H1181 H 0.05717 0.69695 0.58072 0.0
H1182 H 0.04912 0.62218 0.54459 0.0
H1183 H 0.05938 0.72342 0.54076 0.0
H1184 H 0.01103 0.69449 0.47992 0.0
H1185 H 0.12836 0.58238 0.57593 0.0
H1186 H 0.02213 0.68664 0.61206 0.0
H1187 H 0.0144 0.6099 0.57626 0.0
C1188 C 0.90913 0.29011 0.76688 0.0
C1189 C 0.92515 0.26864 0.76218 0.0
N1190 N 0.9504 0.27633 0.7652 0.0
N1191 N 0.92421 0.31118 0.77309 0.0
C1192 C 0.94935 0.30221 0.77166 0.0
H1193 H 0.88778 0.29012 0.76701 0.0
Co1194 Co 0.91055 0.34305 0.7856 0.0
C1195 C 0.9621 0.37137 0.79617 0.0
O1196 O 0.96 0.3886 0.77693 0.0
N1197 N 0.89658 0.3758 0.79822 0.0
C1198 C 0.89149 0.41943 0.80201 0.0
C1199 C 0.9026 0.39958 0.78752 0.0
C1200 C 0.88092 0.38212 0.81914 0.0
N1201 N 0.878 0.40852 0.82202 0.0
O1202 O 0.91721 0.35899 0.7521 0.0
H1203 H 0.91434 0.40282 0.77005 0.0
H1204 H 0.87232 0.36802 0.83261 0.0
O1205 O 0.94466 0.35346 0.79917 0.0
C1206 C 0.8979 0.35799 0.73602 0.0
O1207 O 0.87676 0.34441 0.74246 0.0
N1208 N 0.90274 0.32592 0.81761 0.0
C1209 C 0.88883 0.28982 0.85668 0.0
C1210 C 0.91504 0.29798 0.85391 0.0
C1211 C 0.92167 0.31595 0.83412 0.0
C1212 C 0.877 0.31857 0.82049 0.0
C1213 C 0.86947 0.30099 0.84039 0.0
H1214 H 0.94233 0.31997 0.83099 0.0
H1215 H 0.86245 0.32553 0.80649 0.0
H1216 H 0.96655 0.31395 0.77644 0.0
H1217 H 0.91879 0.24873 0.75768 0.0
H1218 H 0.89322 0.44041 0.79824 0.0
H1219 H 0.93051 0.28914 0.86575 0.0
H1220 H 0.84911 0.29458 0.84171 0.0
C1221 C 0.54015 0.83454 0.49323 0.0
C1222 C 0.52285 0.81468 0.49991 0.0
N1223 N 0.53263 0.79169 0.49085 0.0
N1224 N 0.56073 0.82436 0.47975 0.0
C1225 C 0.55574 0.79804 0.47883 0.0
H1226 H 0.53738 0.85539 0.49694 0.0
Co1227 Co 0.58568 0.84708 0.46425 0.0
C1228 C 0.61736 0.79897 0.44854 0.0
O1229 O 0.62305 0.79179 0.47281 0.0
N1230 N 0.61046 0.87093 0.44945 0.0
C1231 C 0.62976 0.90859 0.43711 0.0
C1232 C 0.60901 0.89755 0.45077 0.0
C1233 C 0.63321 0.86638 0.4361 0.0
N1234 N 0.64506 0.88892 0.428 0.0
O1235 O 0.6089 0.84217 0.4937 0.0
H1236 H 0.59392 0.90844 0.46121 0.0
H1237 H 0.64105 0.84696 0.432 0.0
O1238 O 0.60232 0.81875 0.44516 0.0
C1239 C 0.6086 0.86024 0.51116 0.0
O1240 O 0.59237 0.88025 0.50838 0.0
N1241 N 0.56241 0.85232 0.43535 0.0
C1242 C 0.53176 0.86145 0.39046 0.0
C1243 C 0.53946 0.8358 0.39717 0.0
C1244 C 0.55464 0.83164 0.41978 0.0
C1245 C 0.55295 0.87704 0.43035 0.0
C1246 C 0.53825 0.88222 0.40756 0.0
H1247 H 0.56034 0.81167 0.42448 0.0
H1248 H 0.55674 0.89294 0.44394 0.0
H1249 H 0.56783 0.78395 0.46829 0.0
H1250 H 0.50405 0.81699 0.50984 0.0
H1251 H 0.63336 0.92945 0.43408 0.0
H1252 H 0.53409 0.81918 0.38481 0.0
H1253 H 0.53179 0.90218 0.40341 0.0
C1254 C 0.08353 0.19964 0.75139 0.0
C1255 C 0.06356 0.2169 0.74498 0.0
N1256 N 0.04244 0.21109 0.76004 0.0
N1257 N 0.07513 0.18305 0.77045 0.0
C1258 C 0.04979 0.1903 0.77513 0.0
H1259 H 0.1035 0.20016 0.74381 0.0
Co1260 Co 0.09854 0.16101 0.78846 0.0
C1261 C 0.07052 0.14023 0.83499 0.0
O1262 O 0.09215 0.14594 0.84807 0.0
N1263 N 0.12326 0.13828 0.80631 0.0
C1264 C 0.15228 0.12194 0.83512 0.0
C1265 C 0.14377 0.14423 0.82244 0.0
C1266 C 0.12115 0.11162 0.80852 0.0
N1267 N 0.13794 0.10132 0.82663 0.0
O1268 O 0.09308 0.1342 0.76194 0.0
H1269 H 0.15162 0.16348 0.82651 0.0
H1270 H 0.10639 0.10016 0.79834 0.0
O1271 O 0.06968 0.14609 0.81032 0.0
C1272 C 0.11121 0.13297 0.74452 0.0
O1273 O 0.13161 0.14884 0.747 0.0
N1274 N 0.10414 0.18897 0.8126 0.0
C1275 C 0.1149 0.2304 0.84695 0.0
C1276 C 0.08988 0.21886 0.84645 0.0
C1277 C 0.08475 0.1985 0.82884 0.0
C1278 C 0.12738 0.20242 0.8104 0.0
C1279 C 0.13379 0.2224 0.82837 0.0
H1280 H 0.065 0.19064 0.82839 0.0
H1281 H 0.14159 0.19661 0.79552 0.0
H1282 H 0.03752 0.18181 0.79043 0.0
H1283 H 0.06479 0.23327 0.73128 0.0
H1284 H 0.16735 0.1211 0.85027 0.0
H1285 H 0.07445 0.22546 0.85975 0.0
H1286 H 0.1531 0.23157 0.82771 0.0
C1287 C 0.46197 0.65421 0.48232 0.0
C1288 C 0.48174 0.67015 0.49218 0.0
N1289 N 0.47316 0.69528 0.49176 0.0
N1290 N 0.44111 0.66921 0.4752 0.0
C1291 C 0.44807 0.69396 0.48266 0.0
H1292 H 0.46371 0.63333 0.47815 0.0
Co1293 Co 0.41337 0.65671 0.45309 0.0
C1294 C 0.41757 0.71387 0.42793 0.0
O1295 O 0.44085 0.72236 0.43542 0.0
N1296 N 0.38598 0.64421 0.43086 0.0
C1297 C 0.36304 0.63922 0.39361 0.0
C1298 C 0.3857 0.64902 0.40455 0.0
C1299 C 0.36301 0.63112 0.43537 0.0
N1300 N 0.34875 0.62809 0.41294 0.0
O1301 O 0.38799 0.66712 0.4794 0.0
H1302 H 0.40086 0.65957 0.39389 0.0
H1303 H 0.35645 0.62461 0.45463 0.0
O1304 O 0.4091 0.69095 0.43451 0.0
C1305 C 0.3843 0.6491 0.49662 0.0
O1306 O 0.39739 0.62682 0.49424 0.0
N1307 N 0.43857 0.64469 0.42834 0.0
C1308 C 0.47576 0.62648 0.39229 0.0
C1309 C 0.47662 0.65243 0.40143 0.0
C1310 C 0.45799 0.66101 0.41954 0.0
C1311 C 0.43808 0.61884 0.42054 0.0
C1312 C 0.4564 0.60931 0.40206 0.0
H1313 H 0.45923 0.6808 0.4265 0.0
H1314 H 0.42322 0.60565 0.42842 0.0
H1315 H 0.43553 0.71102 0.48033 0.0
H1316 H 0.50173 0.66412 0.49673 0.0
H1317 H 0.35695 0.64101 0.37318 0.0
H1318 H 0.49165 0.66605 0.39454 0.0
H1319 H 0.45555 0.58896 0.39555 0.0
C1320 C 0.7442 0.91307 0.70739 0.0
C1321 C 0.7558 0.92912 0.72611 0.0
N1322 N 0.74526 0.95339 0.72392 0.0
N1323 N 0.72658 0.92719 0.69324 0.0
C1324 C 0.72773 0.95179 0.70387 0.0
H1325 H 0.74761 0.89213 0.70507 0.0
Co1326 Co 0.7031 0.91305 0.66799 0.0
C1327 C 0.68625 0.96207 0.64145 0.0
O1328 O 0.69852 0.95574 0.61948 0.0
N1329 N 0.67881 0.89953 0.64286 0.0
C1330 C 0.64016 0.89346 0.62266 0.0
C1331 C 0.6525 0.90406 0.64422 0.0
C1332 C 0.68192 0.8863 0.61977 0.0
N1333 N 0.65866 0.88255 0.60718 0.0
O1334 O 0.72897 0.91794 0.64071 0.0
H1335 H 0.64286 0.91561 0.65935 0.0
H1336 H 0.70076 0.88087 0.61153 0.0
O1337 O 0.68789 0.94739 0.6618 0.0
C1338 C 0.74586 0.89937 0.63897 0.0
O1339 O 0.74385 0.87933 0.65534 0.0
N1340 N 0.67881 0.90629 0.69494 0.0
C1341 C 0.63484 0.89345 0.72482 0.0
C1342 C 0.6444 0.91942 0.72446 0.0
C1343 C 0.66652 0.92552 0.70928 0.0
C1344 C 0.67165 0.88045 0.69759 0.0
C1345 C 0.64913 0.87361 0.71195 0.0
H1346 H 0.6726 0.94589 0.70778 0.0
H1347 H 0.682 0.86544 0.68644 0.0
H1348 H 0.71523 0.96801 0.69795 0.0
H1349 H 0.77011 0.92324 0.74084 0.0
H1350 H 0.61936 0.89489 0.61792 0.0
H1351 H 0.63378 0.93512 0.73439 0.0
H1352 H 0.64216 0.85339 0.71184 0.0
C1353 C 0.74666 0.08896 0.7893 0.0
C1354 C 0.75704 0.0692 0.77393 0.0
N1355 N 0.75505 0.04577 0.78673 0.0
N1356 N 0.7369 0.07847 0.81161 0.0
C1357 C 0.74247 0.05236 0.8097 0.0
H1358 H 0.74421 0.10937 0.7835 0.0
Co1359 Co 0.71446 0.09727 0.83467 0.0
C1360 C 0.67242 0.05843 0.84802 0.0
O1361 O 0.65425 0.07566 0.84166 0.0
N1362 N 0.69146 0.11693 0.85841 0.0
C1363 C 0.65591 0.13646 0.87599 0.0
C1364 C 0.66694 0.12661 0.85351 0.0
C1365 C 0.69482 0.12226 0.88461 0.0
N1366 N 0.67326 0.13365 0.89571 0.0
O1367 O 0.73917 0.09287 0.86266 0.0
H1368 H 0.65612 0.12502 0.83534 0.0
H1369 H 0.71228 0.1171 0.89573 0.0
O1370 O 0.69692 0.06415 0.84557 0.0
C1371 C 0.75782 0.10966 0.86201 0.0
O1372 O 0.75855 0.12669 0.84242 0.0
N1373 N 0.6917 0.10301 0.80604 0.0
C1374 C 0.65096 0.11612 0.7726 0.0
C1375 C 0.65819 0.08963 0.77573 0.0
C1376 C 0.67923 0.08348 0.79231 0.0
C1377 C 0.68876 0.1287 0.7985 0.0
C1378 C 0.66756 0.13591 0.78248 0.0
H1379 H 0.68411 0.06308 0.79559 0.0
H1380 H 0.70061 0.14386 0.80778 0.0
H1381 H 0.73573 0.03867 0.82441 0.0
H1382 H 0.7634 0.07195 0.75372 0.0
H1383 H 0.63609 0.14423 0.878 0.0
H1384 H 0.64649 0.07392 0.76712 0.0
H1385 H 0.66303 0.15661 0.77952 0.0
C1386 C 0.3431 0.01644 0.45933 0.0
C1387 C 0.32456 0.01037 0.47836 0.0
N1388 N 0.30049 0.01246 0.46737 0.0
N1389 N 0.3307 0.02252 0.43653 0.0
C1390 C 0.30467 0.01969 0.44201 0.0
H1391 H 0.36427 0.017 0.46204 0.0
Co1392 Co 0.34756 0.03321 0.40521 0.0
C1393 C 0.30315 0.05665 0.37356 0.0
O1394 O 0.31022 0.04615 0.3509 0.0
N1395 N 0.365 0.043 0.373 0.0
C1396 C 0.38159 0.03829 0.33236 0.0
C1397 C 0.37204 0.02539 0.35413 0.0
C1398 C 0.37182 0.06667 0.36225 0.0
N1399 N 0.38161 0.06429 0.33742 0.0
O1400 O 0.33542 0.0013 0.38859 0.0
H1401 H 0.37025 0.00425 0.35554 0.0
H1402 H 0.36957 0.0854 0.37214 0.0
O1403 O 0.31621 0.05188 0.39446 0.0
C1404 C 0.34601 0.97949 0.39526 0.0
O1405 O 0.36418 0.98029 0.41378 0.0
N1406 N 0.35929 0.06446 0.42249 0.0
C1407 C 0.37378 0.11122 0.44813 0.0
C1408 C 0.34789 0.10176 0.44944 0.0
C1409 C 0.34102 0.07872 0.43636 0.0
C1410 C 0.38506 0.07251 0.42208 0.0
C1411 C 0.39257 0.09648 0.43397 0.0
H1412 H 0.32069 0.07247 0.43742 0.0
H1413 H 0.39968 0.06083 0.41178 0.0
H1414 H 0.28902 0.02362 0.42801 0.0
H1415 H 0.32836 0.00555 0.49885 0.0
H1416 H 0.38803 0.02923 0.31407 0.0
H1417 H 0.3328 0.11243 0.46026 0.0
H1418 H 0.41277 0.10329 0.43229 0.0
C1419 C 0.25822 0.4176 0.793 0.0
C1420 C 0.25084 0.43575 0.77403 0.0
N1421 N 0.26596 0.45748 0.77681 0.0
N1422 N 0.27736 0.42802 0.80826 0.0
C1423 C 0.28161 0.45237 0.79783 0.0
H1424 H 0.25124 0.39749 0.7945 0.0
Co1425 Co 0.29771 0.40944 0.8333 0.0
C1426 C 0.31469 0.45466 0.86565 0.0
O1427 O 0.30053 0.44733 0.88608 0.0
N1428 N 0.31947 0.39122 0.85827 0.0
C1429 C 0.35693 0.3809 0.87909 0.0
C1430 C 0.34618 0.39243 0.85721 0.0
C1431 C 0.31464 0.3784 0.88141 0.0
N1432 N 0.3372 0.3725 0.89461 0.0
O1433 O 0.26989 0.41403 0.85928 0.0
H1434 H 0.35753 0.40285 0.84245 0.0
H1435 H 0.29517 0.37466 0.88921 0.0
O1436 O 0.31449 0.44151 0.84424 0.0
C1437 C 0.2525 0.39589 0.86117 0.0
O1438 O 0.255 0.37468 0.84643 0.0
N1439 N 0.3231 0.40392 0.80697 0.0
C1440 C 0.3574 0.39175 0.76592 0.0
C1441 C 0.35503 0.41777 0.77486 0.0
C1442 C 0.33795 0.42345 0.79566 0.0
C1443 C 0.32518 0.37847 0.79849 0.0
C1444 C 0.3427 0.37181 0.77826 0.0
H1445 H 0.33661 0.44362 0.80231 0.0
H1446 H 0.31314 0.36332 0.80755 0.0
H1447 H 0.29676 0.4658 0.8046 0.0
H1448 H 0.2366 0.43264 0.7584 0.0
H1449 H 0.37767 0.38062 0.88431 0.0
H1450 H 0.36621 0.43356 0.7657 0.0
H1451 H 0.34419 0.35149 0.77173 0.0
C1452 C 0.16188 0.98381 0.95827 0.0
C1453 C 0.18046 0.99032 0.97709 0.0
N1454 N 0.20444 0.98384 0.96764 0.0
N1455 N 0.17405 0.97318 0.93707 0.0
C1456 C 0.20008 0.97359 0.94335 0.0
H1457 H 0.14072 0.98586 0.96026 0.0
Co1458 Co 0.15622 0.95862 0.90793 0.0
C1459 C 0.20595 0.94608 0.87895 0.0
O1460 O 0.20639 0.96745 0.86427 0.0
N1461 N 0.13858 0.9439 0.87788 0.0
C1462 C 0.13028 0.93633 0.83517 0.0
C1463 C 0.14297 0.95234 0.85282 0.0
C1464 C 0.12259 0.92254 0.87458 0.0
N1465 N 0.11763 0.91747 0.84876 0.0
O1466 O 0.16345 0.98967 0.88801 0.0
H1467 H 0.15572 0.96843 0.84711 0.0
H1468 H 0.11562 0.91007 0.89041 0.0
O1469 O 0.18768 0.94207 0.8957 0.0
C1470 C 0.14688 0.00837 0.89011 0.0
O1471 O 0.12824 0.00654 0.90812 0.0
N1472 N 0.14811 0.92905 0.92886 0.0
C1473 C 0.13456 0.89318 0.96841 0.0
C1474 C 0.16025 0.89381 0.95821 0.0
C1475 C 0.16668 0.91189 0.93838 0.0
C1476 C 0.12294 0.92847 0.93839 0.0
C1477 C 0.11552 0.91016 0.95768 0.0
H1478 H 0.187 0.91297 0.93206 0.0
H1479 H 0.10872 0.9428 0.9314 0.0
H1480 H 0.21555 0.96564 0.93096 0.0
H1481 H 0.17666 0.99846 0.99651 0.0
H1482 H 0.131 0.93783 0.81383 0.0
H1483 H 0.17548 0.88114 0.96628 0.0
H1484 H 0.0955 0.91024 0.96523 0.0
C1485 C 0.75811 0.07983 0.20575 0.0
C1486 C 0.7515 0.06331 0.2265 0.0
N1487 N 0.76328 0.03982 0.22253 0.0
N1488 N 0.77398 0.06684 0.18872 0.0
C1489 C 0.77669 0.04245 0.19959 0.0
H1490 H 0.75302 0.10049 0.20408 0.0
Co1491 Co 0.7938 0.08243 0.16108 0.0
C1492 C 0.79846 0.02904 0.13756 0.0
O1493 O 0.77479 0.02881 0.12701 0.0
N1494 N 0.81492 0.09738 0.13365 0.0
C1495 C 0.85156 0.1034 0.10986 0.0
C1496 C 0.84088 0.09138 0.13155 0.0
C1497 C 0.81031 0.11325 0.11242 0.0
N1498 N 0.83247 0.11712 0.09776 0.0
O1499 O 0.76445 0.07882 0.13764 0.0
H1500 H 0.85147 0.07807 0.14441 0.0
H1501 H 0.79112 0.12105 0.10726 0.0
O1502 O 0.80682 0.04873 0.15071 0.0
C1503 C 0.74836 0.09807 0.13699 0.0
O1504 O 0.75328 0.1189 0.15168 0.0
N1505 N 0.82134 0.0874 0.18495 0.0
C1506 C 0.85537 0.09886 0.2262 0.0
C1507 C 0.8538 0.07316 0.21616 0.0
C1508 C 0.83651 0.06774 0.19549 0.0
C1509 C 0.82368 0.11277 0.1936 0.0
C1510 C 0.84075 0.11902 0.21431 0.0
H1511 H 0.83453 0.04756 0.18895 0.0
H1512 H 0.81125 0.12794 0.18516 0.0
H1513 H 0.78972 0.02735 0.19204 0.0
H1514 H 0.73995 0.06849 0.24375 0.0
H1515 H 0.87162 0.10128 0.10275 0.0
H1516 H 0.86457 0.05714 0.22539 0.0
H1517 H 0.84125 0.13895 0.22206 0.0
C1518 C 0.34218 0.98521 0.03822 0.0
C1519 C 0.3251 0.9915 0.01797 0.0
N1520 N 0.30035 0.9896 0.02726 0.0
N1521 N 0.32834 0.97821 0.06004 0.0
C1522 C 0.30291 0.98281 0.05293 0.0
H1523 H 0.36341 0.98521 0.03665 0.0
Co1524 Co 0.34264 0.96329 0.0919 0.0
C1525 C 0.28908 0.93742 0.09271 0.0
O1526 O 0.29096 0.93088 0.06767 0.0
N1527 N 0.35642 0.9494 0.12337 0.0
C1528 C 0.359 0.94047 0.16637 0.0
C1529 C 0.34637 0.95516 0.14747 0.0
C1530 C 0.37553 0.93134 0.12824 0.0
N1531 N 0.37714 0.92544 0.15424 0.0
O1532 O 0.33749 0.9964 0.1097 0.0
H1533 H 0.33004 0.96845 0.15102 0.0
H1534 H 0.38718 0.92179 0.11306 0.0
O1535 O 0.30756 0.95062 0.10377 0.0
C1536 C 0.35837 0.01047 0.10924 0.0
O1537 O 0.37821 0.00276 0.09439 0.0
N1538 N 0.35054 0.9311 0.0742 0.0
C1539 C 0.36288 0.88855 0.04169 0.0
C1540 C 0.34497 0.88544 0.06253 0.0
C1541 C 0.33985 0.90681 0.07926 0.0
C1542 C 0.3708 0.93309 0.05657 0.0
C1543 C 0.37703 0.9122 0.03972 0.0
H1544 H 0.32693 0.90379 0.09581 0.0
H1545 H 0.38209 0.9511 0.05536 0.0
H1546 H 0.28627 0.98064 0.06594 0.0
H1547 H 0.33036 0.9959 0.9977 0.0
H1548 H 0.35453 0.94002 0.18729 0.0
H1549 H 0.33458 0.86696 0.0654 0.0
H1550 H 0.39195 0.91482 0.02459 0.0
C1551 C 0.66216 0.50149 0.0508 0.0
C1552 C 0.68137 0.49362 0.03323 0.0
N1553 N 0.70395 0.50621 0.03934 0.0
N1554 N 0.67238 0.51915 0.0679 0.0
C1555 C 0.69809 0.5214 0.06063 0.0
H1556 H 0.64156 0.49588 0.05022 0.0
Co1557 Co 0.65057 0.53844 0.09098 0.0
C1558 C 0.68026 0.5843 0.10975 0.0
O1559 O 0.65945 0.59816 0.10299 0.0
N1560 N 0.62781 0.55745 0.11513 0.0
C1561 C 0.60223 0.58767 0.13457 0.0
C1562 C 0.60844 0.57553 0.11121 0.0
C1563 C 0.63148 0.55815 0.14179 0.0
N1564 N 0.61689 0.57698 0.1539 0.0
O1565 O 0.65663 0.51315 0.11803 0.0
H1566 H 0.60005 0.5815 0.09272 0.0
H1567 H 0.64568 0.54598 0.15208 0.0
O1568 O 0.68049 0.55957 0.10427 0.0
C1569 C 0.63929 0.49514 0.11998 0.0
O1570 O 0.61971 0.49479 0.10296 0.0
N1571 N 0.64424 0.5622 0.06298 0.0
C1572 C 0.63223 0.60283 0.02869 0.0
C1573 C 0.65855 0.59721 0.03478 0.0
C1574 C 0.66419 0.5766 0.05189 0.0
C1575 C 0.61954 0.5635 0.05236 0.0
C1576 C 0.61258 0.58488 0.03626 0.0
H1577 H 0.68445 0.57369 0.05772 0.0
H1578 H 0.60445 0.5499 0.059 0.0
H1579 H 0.71182 0.53514 0.06953 0.0
H1580 H 0.67872 0.48059 0.01647 0.0
H1581 H 0.58856 0.60393 0.13703 0.0
H1582 H 0.67437 0.61012 0.02832 0.0
H1583 H 0.59207 0.58824 0.03129 0.0
C1584 C 0.09351 0.30085 0.36332 0.0
C1585 C 0.08578 0.31621 0.38559 0.0
C1586 C 0.10817 0.28462 0.41484 0.0
C1587 C 0.11521 0.26901 0.3926 0.0
N1588 N 0.10449 0.25709 0.34769 0.0
N1589 N 0.07729 0.31671 0.43237 0.0
C1590 C 0.10452 0.27542 0.36749 0.0
C1591 C 0.09027 0.30598 0.41132 0.0
N1592 N 0.09233 0.3108 0.3383 0.0
N1593 N 0.11962 0.28044 0.4389 0.0
H1594 H 0.06322 0.33159 0.43004 0.0
H1595 H 0.07824 0.30879 0.45136 0.0
H1596 H 0.13371 0.26589 0.44237 0.0
H1597 H 0.1169 0.29315 0.45488 0.0
H1598 H 0.10043 0.30106 0.32205 0.0
H1599 H 0.08603 0.32976 0.33388 0.0
H1600 H 0.09497 0.26016 0.32968 0.0
H1601 H 0.11103 0.23775 0.35052 0.0
C1602 C 0.52391 0.65985 0.87933 0.0
C1603 C 0.52386 0.64291 0.85692 0.0
C1604 C 0.56938 0.65635 0.84692 0.0
C1605 C 0.57074 0.66901 0.87175 0.0
N1606 N 0.5499 0.68407 0.91151 0.0
N1607 N 0.54599 0.62564 0.81837 0.0
C1608 C 0.54791 0.67178 0.88756 0.0
C1609 C 0.54622 0.64189 0.83994 0.0
N1610 N 0.501 0.66424 0.8929 0.0
N1611 N 0.59084 0.65758 0.83065 0.0
H1612 H 0.52938 0.61497 0.81258 0.0
H1613 H 0.56248 0.62178 0.80673 0.0
H1614 H 0.60788 0.66787 0.83603 0.0
H1615 H 0.59113 0.65041 0.81138 0.0
H1616 H 0.49897 0.67838 0.90769 0.0
H1617 H 0.48331 0.65509 0.88794 0.0
H1618 H 0.53514 0.68388 0.92582 0.0
H1619 H 0.5671 0.6936 0.91757 0.0
C1620 C 0.86381 0.19498 0.38583 0.0
C1621 C 0.8768 0.21923 0.39155 0.0
C1622 C 0.91773 0.19525 0.40137 0.0
C1623 C 0.90481 0.17127 0.39558 0.0
N1624 N 0.86486 0.14704 0.3877 0.0
N1625 N 0.91339 0.24142 0.4128 0.0
C1626 C 0.87758 0.17078 0.38938 0.0
C1627 C 0.90295 0.21912 0.40181 0.0
N1628 N 0.8382 0.19512 0.37726 0.0
N1629 N 0.9443 0.19512 0.40596 0.0
H1630 H 0.90259 0.25865 0.41538 0.0
H1631 H 0.93158 0.24194 0.42233 0.0
H1632 H 0.95532 0.17771 0.40639 0.0
H1633 H 0.95566 0.2122 0.40741 0.0
H1634 H 0.82871 0.17871 0.36933 0.0
H1635 H 0.8264 0.21199 0.37749 0.0
H1636 H 0.84452 0.14499 0.38567 0.0
H1637 H 0.87452 0.12909 0.39042 0.0
C1638 C 0.44133 0.849 0.89609 0.0
C1639 C 0.42485 0.84369 0.87414 0.0
C1640 C 0.45603 0.86629 0.84484 0.0
C1641 C 0.47312 0.87072 0.8667 0.0
N1642 N 0.48571 0.85795 0.911 0.0
N1643 N 0.41988 0.84027 0.82716 0.0
C1644 C 0.46697 0.85934 0.89165 0.0
C1645 C 0.43355 0.84986 0.84831 0.0
N1646 N 0.43203 0.84596 0.92123 0.0
N1647 N 0.45985 0.87921 0.82143 0.0
H1648 H 0.40344 0.82803 0.82948 0.0
H1649 H 0.42641 0.84217 0.80772 0.0
H1650 H 0.47503 0.89268 0.8182 0.0
H1651 H 0.44631 0.87858 0.80595 0.0
H1652 H 0.44235 0.8524 0.93784 0.0
H1653 H 0.41308 0.83927 0.92545 0.0
H1654 H 0.4828 0.84776 0.92866 0.0
H1655 H 0.50508 0.8643 0.90818 0.0
C1656 C 0.10724 0.70572 0.08565 0.0
C1657 C 0.11168 0.72147 0.10842 0.0
C1658 C 0.08722 0.68967 0.13565 0.0
C1659 C 0.0835 0.67348 0.11303 0.0
N1660 N 0.08135 0.67057 0.06581 0.0
N1661 N 0.09715 0.73345 0.15217 0.0
C1662 C 0.09049 0.68328 0.08774 0.0
C1663 C 0.09875 0.71506 0.13248 0.0
N1664 N 0.12033 0.7109 0.0626 0.0
N1665 N 0.08148 0.68046 0.16035 0.0
H1666 H 0.10461 0.75252 0.15005 0.0
H1667 H 0.08585 0.73081 0.16919 0.0
H1668 H 0.0728 0.66225 0.16397 0.0
H1669 H 0.08715 0.69023 0.17756 0.0
H1670 H 0.11996 0.69826 0.04637 0.0
H1671 H 0.13326 0.72673 0.06026 0.0
H1672 H 0.08392 0.67776 0.04668 0.0
H1673 H 0.06877 0.65428 0.06719 0.0
C1674 C 0.94595 0.65337 0.11235 0.0
C1675 C 0.9301 0.65813 0.13522 0.0
C1676 C 0.96118 0.63237 0.16212 0.0
C1677 C 0.97647 0.6271 0.13925 0.0
N1678 N 0.98923 0.64149 0.0957 0.0
N1679 N 0.92914 0.66147 0.18258 0.0
C1680 C 0.97076 0.64061 0.11539 0.0
C1681 C 0.94002 0.65072 0.16037 0.0
N1682 N 0.93709 0.65921 0.08756 0.0
N1683 N 0.96562 0.61886 0.18505 0.0
H1684 H 0.91441 0.67586 0.18159 0.0
H1685 H 0.93677 0.65843 0.20146 0.0
H1686 H 0.98055 0.60488 0.18717 0.0
H1687 H 0.95308 0.62004 0.20134 0.0
H1688 H 0.94672 0.65294 0.07046 0.0
H1689 H 0.91904 0.66787 0.08348 0.0
H1690 H 0.98725 0.65328 0.07893 0.0
H1691 H 0.00784 0.63288 0.09758 0.0
C1692 C 0.92063 0.79297 0.14557 0.0
C1693 C 0.91625 0.81622 0.13086 0.0
C1694 C 0.89022 0.79156 0.09841 0.0
C1695 C 0.8904 0.76961 0.11587 0.0
N1696 N 0.9083 0.74742 0.15402 0.0
N1697 N 0.89986 0.83836 0.09256 0.0
C1698 C 0.90692 0.76954 0.13857 0.0
C1699 C 0.90255 0.81548 0.10657 0.0
N1700 N 0.93693 0.79405 0.16703 0.0
N1701 N 0.87746 0.78978 0.07468 0.0
H1702 H 0.90945 0.85572 0.09821 0.0
H1703 H 0.88793 0.8405 0.07598 0.0
H1704 H 0.86763 0.77279 0.06852 0.0
H1705 H 0.87793 0.80441 0.06026 0.0
H1706 H 0.9425 0.77782 0.17829 0.0
H1707 H 0.9462 0.81149 0.17278 0.0
H1708 H 0.91808 0.74634 0.17203 0.0
H1709 H 0.89908 0.72977 0.14892 0.0
C1710 C 0.02437 0.84076 0.15938 0.0
C1711 C 0.0251 0.86872 0.15663 0.0
C1712 C 0.07165 0.86666 0.14329 0.0
C1713 C 0.07084 0.83884 0.14581 0.0
N1714 N 0.04829 0.79908 0.15819 0.0
N1715 N 0.05031 0.90876 0.15172 0.0
C1716 C 0.0477 0.82582 0.15454 0.0
C1717 C 0.04901 0.88181 0.1501 0.0
N1718 N 0.00119 0.82847 0.16568 0.0
N1719 N 0.09419 0.87849 0.13429 0.0
H1720 H 0.03435 0.92035 0.15769 0.0
H1721 H 0.06762 0.9196 0.14951 0.0
H1722 H 0.11164 0.8681 0.13094 0.0
H1723 H 0.09538 0.89826 0.12884 0.0
H1724 H 0.99822 0.80818 0.16476 0.0
H1725 H 0.98436 0.83871 0.17143 0.0
H1726 H 0.03332 0.78828 0.16719 0.0
H1727 H 0.06454 0.78755 0.15296 0.0
C1728 C 0.38215 0.12582 0.29504 0.0
C1729 C 0.402 0.11903 0.27632 0.0
C1730 C 0.41352 0.08139 0.30444 0.0
C1731 C 0.38978 0.08465 0.31901 0.0
N1732 N 0.34839 0.10808 0.32354 0.0
N1733 N 0.43399 0.08641 0.26168 0.0
C1734 C 0.37327 0.1065 0.31329 0.0
C1735 C 0.41729 0.09587 0.28066 0.0
N1736 N 0.37204 0.1508 0.2958 0.0
N1737 N 0.43255 0.06461 0.31344 0.0
H1738 H 0.43606 0.09486 0.24306 0.0
H1739 H 0.44356 0.06827 0.26344 0.0
H1740 H 0.43085 0.05484 0.33153 0.0
H1741 H 0.45105 0.06299 0.30454 0.0
H1742 H 0.35882 0.15694 0.31037 0.0
H1743 H 0.37944 0.16609 0.28411 0.0
H1744 H 0.33508 0.12279 0.31805 0.0
H1745 H 0.33993 0.09311 0.33479 0.0
C1746 C 0.37029 0.33732 0.94957 0.0
C1747 C 0.36932 0.35711 0.96947 0.0
C1748 C 0.33895 0.38334 0.94225 0.0
C1749 C 0.34127 0.36446 0.9217 0.0
N1750 N 0.3527 0.32087 0.90785 0.0
N1751 N 0.34682 0.39468 0.98812 0.0
C1752 C 0.3546 0.34038 0.92635 0.0
C1753 C 0.35154 0.37864 0.96691 0.0
N1754 N 0.38758 0.31673 0.9519 0.0
N1755 N 0.32644 0.40672 0.93751 0.0
H1756 H 0.35614 0.39214 0.00628 0.0
H1757 H 0.33206 0.40898 0.98848 0.0
H1758 H 0.31627 0.41048 0.92009 0.0
H1759 H 0.32723 0.42289 0.95019 0.0
H1760 H 0.3914 0.3033 0.93681 0.0
H1761 H 0.39931 0.31377 0.96854 0.0
H1762 H 0.36015 0.3019 0.91043 0.0
H1763 H 0.34144 0.32328 0.89073 0.0
C1764 C 0.59304 0.4156 0.28598 0.0
C1765 C 0.59909 0.38823 0.28744 0.0
C1766 C 0.60358 0.39209 0.33568 0.0
C1767 C 0.6023 0.4199 0.33332 0.0
N1768 N 0.59756 0.45869 0.30654 0.0
N1769 N 0.6079 0.34962 0.31401 0.0
C1770 C 0.59732 0.43181 0.30856 0.0
C1771 C 0.60366 0.37624 0.31247 0.0
N1772 N 0.58246 0.426 0.26348 0.0
N1773 N 0.60372 0.38095 0.36028 0.0
H1774 H 0.60486 0.3369 0.29808 0.0
H1775 H 0.61498 0.34017 0.33084 0.0
H1776 H 0.60326 0.39218 0.37756 0.0
H1777 H 0.60222 0.36075 0.36373 0.0
H1778 H 0.57596 0.44545 0.26197 0.0
H1779 H 0.57689 0.41444 0.24746 0.0
H1780 H 0.59706 0.46871 0.28858 0.0
H1781 H 0.60039 0.47095 0.32286 0.0
C1782 C 0.65685 0.16579 0.92803 0.0
C1783 C 0.66737 0.14038 0.92286 0.0
C1784 C 0.65389 0.12674 0.96728 0.0
C1785 C 0.63767 0.14955 0.96934 0.0
N1786 N 0.6232 0.19106 0.95073 0.0
N1787 N 0.67503 0.0957 0.93796 0.0
C1788 C 0.63939 0.16951 0.94974 0.0
C1789 C 0.66614 0.12067 0.94276 0.0
N1790 N 0.66329 0.18616 0.91159 0.0
N1791 N 0.65808 0.11116 0.98891 0.0
H1792 H 0.6847 0.09021 0.92072 0.0
H1793 H 0.67122 0.07988 0.95058 0.0
H1794 H 0.65036 0.11562 0.00749 0.0
H1795 H 0.67164 0.09569 0.98911 0.0
H1796 H 0.658 0.2057 0.91524 0.0
H1797 H 0.67633 0.18363 0.89578 0.0
H1798 H 0.62176 0.20472 0.93541 0.0
H1799 H 0.60958 0.19426 0.96584 0.0
C1800 C 0.41324 0.91231 0.18394 0.0
C1801 C 0.39218 0.90504 0.16705 0.0
C1802 C 0.3936 0.86007 0.18454 0.0
C1803 C 0.41017 0.86905 0.20522 0.0
N1804 N 0.44646 0.89798 0.21539 0.0
N1805 N 0.36276 0.87189 0.14993 0.0
C1806 C 0.42344 0.89351 0.20219 0.0
C1807 C 0.38301 0.87863 0.16639 0.0
N1808 N 0.42252 0.93759 0.18314 0.0
N1809 N 0.38877 0.83367 0.182 0.0
H1810 H 0.35473 0.885 0.13626 0.0
H1811 H 0.35294 0.85384 0.1508 0.0
H1812 H 0.39794 0.81978 0.19419 0.0
H1813 H 0.37844 0.82544 0.16624 0.0
H1814 H 0.43563 0.9454 0.19691 0.0
H1815 H 0.41609 0.95109 0.16896 0.0
H1816 H 0.45777 0.91501 0.21327 0.0
H1817 H 0.45618 0.88292 0.22547 0.0
C1818 C 0.17394 0.35446 0.04839 0.0
C1819 C 0.1613 0.35487 0.07331 0.0
C1820 C 0.11804 0.35617 0.0516 0.0
C1821 C 0.13076 0.35902 0.0268 0.0
N1822 N 0.1709 0.36343 0.00142 0.0
N1823 N 0.12161 0.36001 0.09912 0.0
C1824 C 0.15878 0.35859 0.02507 0.0
C1825 C 0.13338 0.35653 0.07507 0.0
N1826 N 0.20046 0.34982 0.04721 0.0
N1827 N 0.09131 0.35252 0.05265 0.0
H1828 H 0.13215 0.36083 0.11676 0.0
H1829 H 0.10168 0.36451 0.10141 0.0
H1830 H 0.07948 0.35186 0.03578 0.0
H1831 H 0.08122 0.34762 0.06992 0.0
H1832 H 0.21074 0.34674 0.02965 0.0
H1833 H 0.21182 0.34687 0.06414 0.0
H1834 H 0.19115 0.36628 0.99937 0.0
H1835 H 0.16047 0.36649 0.98397 0.0
C1836 C 0.59209 0.61098 0.21425 0.0
C1837 C 0.61591 0.61727 0.22762 0.0
C1838 C 0.64116 0.59284 0.19435 0.0
C1839 C 0.61725 0.58617 0.18107 0.0
N1840 N 0.57033 0.58003 0.185 0.0
N1841 N 0.66096 0.60447 0.23627 0.0
C1842 C 0.59282 0.59225 0.19338 0.0
C1843 C 0.63976 0.60499 0.21959 0.0
N1844 N 0.56913 0.62389 0.22005 0.0
N1845 N 0.6652 0.58946 0.18265 0.0
H1846 H 0.66014 0.61195 0.25547 0.0
H1847 H 0.67805 0.59374 0.23221 0.0
H1848 H 0.66784 0.58187 0.16383 0.0
H1849 H 0.68262 0.59688 0.19071 0.0
H1850 H 0.55199 0.62159 0.20889 0.0
H1851 H 0.56771 0.63873 0.23422 0.0
H1852 H 0.55221 0.58222 0.19453 0.0
H1853 H 0.57068 0.56535 0.1705 0.0
C1854 C 0.86347 0.16121 0.04777 0.0
C1855 C 0.86272 0.14437 0.02527 0.0
C1856 C 0.8337 0.11353 0.04928 0.0
C1857 C 0.83603 0.12933 0.07219 0.0
N1858 N 0.84722 0.17048 0.09227 0.0
N1859 N 0.84167 0.10833 0.00232 0.0
C1860 C 0.84875 0.15416 0.07086 0.0
C1861 C 0.84587 0.12185 0.0253 0.0
N1862 N 0.87967 0.1828 0.04773 0.0
N1863 N 0.82142 0.08959 0.05116 0.0
H1864 H 0.85075 0.11351 0.98462 0.0
H1865 H 0.8277 0.0934 1.00022 0.0
H1866 H 0.81162 0.08355 0.06826 0.0
H1867 H 0.82184 0.07529 0.03639 0.0
H1868 H 0.8834 0.19434 0.06432 0.0
H1869 H 0.89047 0.18865 0.0312 0.0
H1870 H 0.8543 0.18976 0.09255 0.0
H1871 H 0.83674 0.16512 0.10924 0.0
C1872 C 0.31523 0.40538 0.0854 0.0
C1873 C 0.32394 0.37981 0.07823 0.0
C1874 C 0.28213 0.36187 0.09477 0.0
C1875 C 0.27714 0.38607 0.10805 0.0
N1876 N 0.2898 0.43143 0.11632 0.0
N1877 N 0.31475 0.33306 0.07524 0.0
C1878 C 0.29352 0.40827 0.10298 0.0
C1879 C 0.3069 0.35788 0.08212 0.0
N1880 N 0.32841 0.42681 0.07575 0.0
N1881 N 0.26297 0.34288 0.09391 0.0
H1882 H 0.33196 0.32915 0.06481 0.0
H1883 H 0.30469 0.31608 0.08108 0.0
H1884 H 0.24433 0.3456 0.10227 0.0
H1885 H 0.2645 0.32584 0.08248 0.0
H1886 H 0.32199 0.44617 0.07847 0.0
H1887 H 0.34423 0.42477 0.06264 0.0
H1888 H 0.30305 0.44715 0.11539 0.0
H1889 H 0.27472 0.43437 0.12999 0.0
C1890 C 0.31754 0.59426 0.39773 0.0
C1891 C 0.32197 0.61917 0.40951 0.0
C1892 C 0.27587 0.63125 0.40148 0.0
C1893 C 0.27293 0.60859 0.38518 0.0
N1894 N 0.29066 0.56769 0.36821 0.0
N1895 N 0.30603 0.66176 0.42277 0.0
C1896 C 0.29344 0.58943 0.38396 0.0
C1897 C 0.3011 0.63752 0.41202 0.0
N1898 N 0.33694 0.57563 0.39927 0.0
N1899 N 0.25447 0.6468 0.40675 0.0
H1900 H 0.32426 0.66675 0.43091 0.0
H1901 H 0.29269 0.67739 0.42228 0.0
H1902 H 0.23579 0.64277 0.39917 0.0
H1903 H 0.25464 0.66214 0.42044 0.0
H1904 H 0.33469 0.55619 0.39299 0.0
H1905 H 0.35473 0.57931 0.40904 0.0
H1906 H 0.30592 0.5546 0.36402 0.0
H1907 H 0.27325 0.56322 0.35823 0.0
C1908 C 0.87185 0.42278 0.8687 0.0
C1909 C 0.86395 0.42342 0.84186 0.0
C1910 C 0.83974 0.4647 0.84959 0.0
C1911 C 0.8499 0.46524 0.87581 0.0
N1912 N 0.86391 0.43913 0.91298 0.0
N1913 N 0.83306 0.43886 0.80959 0.0
C1914 C 0.862 0.44226 0.88623 0.0
C1915 C 0.84528 0.4424 0.83337 0.0
N1916 N 0.89015 0.40495 0.87719 0.0
N1917 N 0.82599 0.48563 0.83964 0.0
H1918 H 0.83678 0.42232 0.79782 0.0
H1919 H 0.81762 0.45063 0.80285 0.0
H1920 H 0.81872 0.50095 0.85119 0.0
H1921 H 0.82192 0.48795 0.81961 0.0
H1922 H 0.89899 0.40592 0.89575 0.0
H1923 H 0.89777 0.39015 0.86522 0.0
H1924 H 0.87066 0.42181 0.92181 0.0
H1925 H 0.85577 0.45273 0.92619 0.0
C1926 C 0.66953 0.87654 0.38752 0.0
C1927 C 0.66802 0.89138 0.41112 0.0
C1928 C 0.7098 0.91308 0.39922 0.0
C1929 C 0.7129 0.89537 0.37759 0.0
N1930 N 0.69925 0.85343 0.35869 0.0
N1931 N 0.69041 0.91923 0.44261 0.0
C1932 C 0.69383 0.87503 0.37392 0.0
C1933 C 0.68927 0.90837 0.41797 0.0
N1934 N 0.64754 0.86483 0.37732 0.0
N1935 N 0.72545 0.93492 0.40144 0.0
H1936 H 0.67651 0.91502 0.45722 0.0
H1937 H 0.70665 0.92995 0.44932 0.0
H1938 H 0.7397 0.94001 0.38748 0.0
H1939 H 0.72227 0.94946 0.41567 0.0
H1940 H 0.64758 0.85516 0.35911 0.0
H1941 H 0.62879 0.8679 0.38526 0.0
H1942 H 0.68624 0.83753 0.35711 0.0
H1943 H 0.71794 0.84965 0.35091 0.0
C1944 C 0.6501 0.56133 0.39298 0.0
C1945 C 0.64685 0.53598 0.38148 0.0
C1946 C 0.64938 0.55566 0.33725 0.0
C1947 C 0.64901 0.58099 0.34888 0.0
N1948 N 0.64587 0.60865 0.38734 0.0
N1949 N 0.64079 0.50894 0.34254 0.0
C1950 C 0.64866 0.58405 0.37665 0.0
C1951 C 0.64613 0.533 0.35352 0.0
N1952 N 0.65536 0.56359 0.41939 0.0
N1953 N 0.65287 0.55348 0.31057 0.0
H1954 H 0.63789 0.49192 0.35368 0.0
H1955 H 0.63726 0.50613 0.32248 0.0
H1956 H 0.65481 0.56997 0.29833 0.0
H1957 H 0.65596 0.53559 0.30091 0.0
H1958 H 0.66034 0.58138 0.42843 0.0
H1959 H 0.65736 0.54726 0.43181 0.0
H1960 H 0.64245 0.61198 0.40736 0.0
H1961 H 0.64492 0.62571 0.37584 0.0
C1962 C 0.19205 0.61383 0.62741 0.0
C1963 C 0.21664 0.61362 0.6139 0.0
C1964 C 0.1932 0.61652 0.57146 0.0
C1965 C 0.16909 0.61941 0.58529 0.0
N1966 N 0.14561 0.62515 0.62614 0.0
N1967 N 0.24109 0.61765 0.57312 0.0
C1968 C 0.16856 0.61928 0.61321 0.0
C1969 C 0.21739 0.61554 0.58586 0.0
N1970 N 0.19103 0.60774 0.65369 0.0
N1971 N 0.19276 0.61433 0.54457 0.0
H1972 H 0.25914 0.6168 0.58294 0.0
H1973 H 0.24292 0.62199 0.55309 0.0
H1974 H 0.17529 0.61562 0.53374 0.0
H1975 H 0.20924 0.6095 0.53324 0.0
H1976 H 0.17348 0.60504 0.66408 0.0
H1977 H 0.20772 0.60258 0.66448 0.0
H1978 H 0.14453 0.62836 0.64645 0.0
H1979 H 0.12802 0.6292 0.61625 0.0
C1980 C 0.88296 0.55656 0.65133 0.0
C1981 C 0.8591 0.56913 0.65932 0.0
C1982 C 0.83355 0.5359 0.63493 0.0
C1983 C 0.85741 0.52341 0.62723 0.0
N1984 N 0.90331 0.5158 0.63718 0.0
N1985 N 0.81238 0.56492 0.66662 0.0
C1986 C 0.88161 0.53175 0.63848 0.0
C1987 C 0.83459 0.55674 0.65373 0.0
N1988 N 0.90684 0.56872 0.65403 0.0
N1989 N 0.81018 0.52915 0.62331 0.0
H1990 H 0.81297 0.57945 0.68124 0.0
H1991 H 0.79425 0.55533 0.66494 0.0
H1992 H 0.80853 0.51442 0.60902 0.0
H1993 H 0.79277 0.53969 0.62631 0.0
H1994 H 0.92413 0.56137 0.64559 0.0
H1995 H 0.90936 0.58733 0.66207 0.0
H1996 H 0.9208 0.51986 0.64724 0.0
H1997 H 0.90272 0.49703 0.62875 0.0
C1998 C 0.13593 0.93763 0.619 0.0
C1999 C 0.15473 0.95635 0.62792 0.0
C2000 C 0.16007 0.93006 0.66837 0.0
C2001 C 0.13638 0.91631 0.66252 0.0
N2002 N 0.10174 0.90667 0.63104 0.0
N2003 N 0.18803 0.96796 0.66015 0.0
C2004 C 0.1246 0.91948 0.63724 0.0
C2005 C 0.16819 0.95162 0.65212 0.0
N2006 N 0.12907 0.93724 0.5929 0.0
N2007 N 0.17505 0.92191 0.68925 0.0
H2008 H 0.19717 0.98141 0.64765 0.0
H2009 H 0.19547 0.9681 0.67933 0.0
H2010 H 0.16991 0.90548 0.70061 0.0
H2011 H 0.19369 0.92947 0.69352 0.0
H2012 H 0.11724 0.92263 0.58453 0.0
H2013 H 0.13785 0.94984 0.57911 0.0
H2014 H 0.09088 0.91072 0.61406 0.0
H2015 H 0.09244 0.89336 0.64355 0.0
C2016 C 0.63001 0.80497 0.91123 0.0
C2017 C 0.6181 0.77996 0.90756 0.0
C2018 C 0.57897 0.80063 0.88834 0.0
C2019 C 0.59184 0.82541 0.88982 0.0
N2020 N 0.62483 0.8527 0.90989 0.0
N2021 N 0.57806 0.75496 0.90297 0.0
C2022 C 0.61575 0.82802 0.90403 0.0
C2023 C 0.59136 0.77815 0.89969 0.0
N2024 N 0.65528 0.80644 0.92054 0.0
N2025 N 0.556 0.79827 0.87447 0.0
H2026 H 0.58662 0.73891 0.91259 0.0
H2027 H 0.55799 0.75273 0.8991 0.0
H2028 H 0.54644 0.81442 0.86605 0.0
H2029 H 0.54726 0.78018 0.87008 0.0
H2030 H 0.6663 0.82379 0.92099 0.0
H2031 H 0.66551 0.78982 0.9272 0.0
H2032 H 0.64131 0.85634 0.92162 0.0
H2033 H 0.61423 0.86963 0.90476 0.0
C2034 C 0.02672 0.14055 0.39421 0.0
C2035 C 0.01941 0.13072 0.36905 0.0
C2036 C 0.0562 0.15528 0.3498 0.0
C2037 C 0.06748 0.15831 0.37528 0.0
N2038 N 0.06292 0.15183 0.42267 0.0
N2039 N 0.02832 0.12827 0.32207 0.0
C2040 C 0.05244 0.15091 0.39787 0.0
C2041 C 0.0341 0.13835 0.34642 0.0
N2042 N 0.00898 0.14014 0.41456 0.0
N2043 N 0.06675 0.16866 0.32891 0.0
H2044 H 0.01278 0.11526 0.31861 0.0
H2045 H 0.04038 0.13121 0.30564 0.0
H2046 H 0.08226 0.18205 0.3313 0.0
H2047 H 0.05821 0.16876 0.31018 0.0
H2048 H 0.01261 0.14912 0.43274 0.0
H2049 H 0.98956 0.13368 0.41211 0.0
H2050 H 0.05358 0.14348 0.43904 0.0
H2051 H 0.08161 0.15891 0.42686 0.0
C2052 C 0.41226 0.69459 0.90737 0.0
C2053 C 0.41529 0.68503 0.88118 0.0
C2054 C 0.39532 0.72613 0.86539 0.0
C2055 C 0.38545 0.73132 0.89113 0.0
N2056 N 0.38407 0.71865 0.93737 0.0
N2057 N 0.4076 0.69234 0.83434 0.0
C2058 C 0.39416 0.71541 0.91254 0.0
C2059 C 0.40672 0.70113 0.8598 0.0
N2060 N 0.42669 0.68356 0.92725 0.0
N2061 N 0.39415 0.74521 0.84635 0.0
H2062 H 0.4148 0.674 0.82882 0.0
H2063 H 0.39874 0.70247 0.81876 0.0
H2064 H 0.38726 0.76424 0.85026 0.0
H2065 H 0.40302 0.74313 0.82787 0.0
H2066 H 0.4268 0.69099 0.94646 0.0
H2067 H 0.44082 0.66899 0.92359 0.0
H2068 H 0.38804 0.70557 0.95276 0.0
H2069 H 0.36998 0.73278 0.94221 0.0
C2070 C 0.94182 0.33321 0.38093 0.0
C2071 C 0.92604 0.32873 0.358 0.0
C2072 C 0.9592 0.35147 0.33078 0.0
C2073 C 0.97455 0.35635 0.35372 0.0
N2074 N 0.98569 0.34231 0.39776 0.0
N2075 N 0.9255 0.32402 0.31075 0.0
C2076 C 0.96758 0.34394 0.37783 0.0
C2077 C 0.93684 0.33461 0.33278 0.0
N2078 N 0.93207 0.32919 0.40576 0.0
N2079 N 0.96465 0.36413 0.30757 0.0
H2080 H 0.90969 0.31083 0.31196 0.0
H2081 H 0.93362 0.32591 0.29191 0.0
H2082 H 0.98038 0.37715 0.30518 0.0
H2083 H 0.95217 0.3633 0.29123 0.0
H2084 H 0.94195 0.33526 0.42276 0.0
H2085 H 0.91322 0.32237 0.40978 0.0
H2086 H 0.98256 0.33132 0.4149 0.0
H2087 H 0.00497 0.34932 0.39572 0.0
C2088 C 0.57808 0.19991 0.64075 0.0
C2089 C 0.58088 0.17631 0.62605 0.0
C2090 C 0.60993 0.19909 0.5945 0.0
C2091 C 0.61097 0.22094 0.61201 0.0
N2092 N 0.59419 0.2441 0.65003 0.0
N2093 N 0.5964 0.15335 0.58784 0.0
C2094 C 0.594 0.22212 0.63433 0.0
C2095 C 0.59541 0.17618 0.60215 0.0
N2096 N 0.56075 0.20058 0.66137 0.0
N2097 N 0.62347 0.20005 0.57115 0.0
H2098 H 0.58506 0.13689 0.59295 0.0
H2099 H 0.60849 0.15038 0.57148 0.0
H2100 H 0.63465 0.21639 0.56546 0.0
H2101 H 0.62247 0.18553 0.55665 0.0
H2102 H 0.55582 0.21751 0.6719 0.0
H2103 H 0.54985 0.18413 0.66693 0.0
H2104 H 0.58481 0.24547 0.66826 0.0
H2105 H 0.60445 0.26119 0.64496 0.0
C2106 C 0.45296 0.17826 0.63892 0.0
C2107 C 0.42778 0.16656 0.63622 0.0
C2108 C 0.44154 0.12906 0.6633 0.0
C2109 C 0.46759 0.13913 0.66291 0.0
N2110 N 0.49533 0.17746 0.66124 0.0
N2111 N 0.39527 0.1364 0.65264 0.0
C2112 C 0.47233 0.16532 0.6545 0.0
C2113 C 0.4211 0.14393 0.65118 0.0
N2114 N 0.45885 0.20054 0.62499 0.0
N2115 N 0.43688 0.1048 0.6741 0.0
H2116 H 0.38034 0.14742 0.64367 0.0
H2117 H 0.38847 0.12084 0.66422 0.0
H2118 H 0.45152 0.09442 0.68426 0.0
H2119 H 0.41896 0.09485 0.6727 0.0
H2120 H 0.47779 0.20844 0.62363 0.0
H2121 H 0.44471 0.21041 0.61379 0.0
H2122 H 0.49948 0.19716 0.657 0.0
H2123 H 0.50879 0.1684 0.67385 0.0
C2124 C 0.37491 0.30574 0.59208 0.0
C2125 C 0.38863 0.28141 0.58957 0.0
C2126 C 0.43099 0.30525 0.58997 0.0
C2127 C 0.41729 0.32906 0.59521 0.0
N2128 N 0.37675 0.35263 0.6021 0.0
N2129 N 0.4296 0.25738 0.58666 0.0
C2130 C 0.38936 0.32945 0.59649 0.0
C2131 C 0.41668 0.281 0.58831 0.0
N2132 N 0.34807 0.30622 0.5891 0.0
N2133 N 0.45774 0.30601 0.58655 0.0
H2134 H 0.4198 0.23942 0.58448 0.0
H2135 H 0.44993 0.25524 0.5886 0.0
H2136 H 0.46868 0.32331 0.58883 0.0
H2137 H 0.46899 0.29008 0.58011 0.0
H2138 H 0.33693 0.32345 0.58828 0.0
H2139 H 0.33701 0.28933 0.585 0.0
H2140 H 0.35674 0.35397 0.60659 0.0
H2141 H 0.38669 0.3706 0.6037 0.0
C2142 C 0.52852 0.34725 0.63712 0.0
C2143 C 0.53229 0.37512 0.63701 0.0
C2144 C 0.58028 0.36875 0.63681 0.0
C2145 C 0.57652 0.34105 0.63824 0.0
N2146 N 0.5479 0.30384 0.64397 0.0
N2147 N 0.56143 0.41233 0.64271 0.0
C2148 C 0.55082 0.3303 0.63972 0.0
C2149 C 0.55812 0.38584 0.63861 0.0
N2150 N 0.50387 0.33696 0.63341 0.0
N2151 N 0.60502 0.37865 0.63255 0.0
H2152 H 0.54562 0.42537 0.64479 0.0
H2153 H 0.57966 0.42097 0.64667 0.0
H2154 H 0.62169 0.3667 0.63101 0.0
H2155 H 0.60871 0.39841 0.62822 0.0
H2156 H 0.50019 0.31696 0.63043 0.0
H2157 H 0.4871 0.34864 0.63144 0.0
H2158 H 0.52986 0.29483 0.64795 0.0
H2159 H 0.56404 0.29115 0.64553 0.0
C2160 C 0.85857 0.59117 0.77864 0.0
C2161 C 0.88277 0.60418 0.77296 0.0
C2162 C 0.9029 0.58053 0.81004 0.0
C2163 C 0.8775 0.57392 0.81978 0.0
N2164 N 0.83035 0.57238 0.81225 0.0
N2165 N 0.92872 0.61124 0.78409 0.0
C2166 C 0.85509 0.57849 0.80353 0.0
C2167 C 0.90541 0.59837 0.78844 0.0
N2168 N 0.83903 0.59069 0.76005 0.0
N2169 N 0.92457 0.57023 0.82224 0.0
H2170 H 0.9315 0.62494 0.76902 0.0
H2171 H 0.94483 0.6098 0.79679 0.0
H2172 H 0.92281 0.55701 0.838 0.0
H2173 H 0.94372 0.57253 0.81505 0.0
H2174 H 0.82183 0.57957 0.76209 0.0
H2175 H 0.84144 0.59898 0.74131 0.0
H2176 H 0.81325 0.57865 0.80269 0.0
H2177 H 0.82664 0.56239 0.82977 0.0
C2178 C 0.85805 0.85824 0.43302 0.0
C2179 C 0.83038 0.85518 0.4357 0.0
C2180 C 0.83569 0.85004 0.48365 0.0
C2181 C 0.86255 0.85805 0.48149 0.0
N2182 N 0.90013 0.86782 0.45378 0.0
N2183 N 0.79223 0.84984 0.46327 0.0
C2184 C 0.87396 0.86155 0.456 0.0
C2185 C 0.81904 0.85134 0.46096 0.0
N2186 N 0.8691 0.85693 0.40841 0.0
N2187 N 0.82623 0.84041 0.507 0.0
H2188 H 0.77972 0.85059 0.44691 0.0
H2189 H 0.7824 0.84996 0.48136 0.0
H2190 H 0.83828 0.83695 0.52324 0.0
H2191 H 0.80734 0.8326 0.5092 0.0
H2192 H 0.88934 0.85673 0.4049 0.0
H2193 H 0.85791 0.85356 0.39144 0.0
H2194 H 0.90889 0.87415 0.43627 0.0
H2195 H 0.91311 0.86732 0.46977 0.0
C2196 C 0.11405 0.8699 0.8372 0.0
C2197 C 0.10351 0.89586 0.83662 0.0
C2198 C 0.07326 0.88266 0.80099 0.0
C2199 C 0.08813 0.85918 0.79779 0.0
N2200 N 0.10986 0.82465 0.822 0.0
N2201 N 0.07035 0.92605 0.82148 0.0
C2202 C 0.10452 0.85088 0.81889 0.0
C2203 C 0.08184 0.90173 0.81986 0.0
N2204 N 0.13441 0.86391 0.85378 0.0
N2205 N 0.05026 0.88582 0.78733 0.0
H2206 H 0.07533 0.93948 0.83632 0.0
H2207 H 0.0566 0.93316 0.80797 0.0
H2208 H 0.04191 0.87046 0.77645 0.0
H2209 H 0.03777 0.90198 0.78945 0.0
H2210 H 0.14512 0.8464 0.85259 0.0
H2211 H 0.14162 0.87698 0.86788 0.0
H2212 H 0.12003 0.81698 0.83814 0.0
H2213 H 0.10096 0.8103 0.81015 0.0
C2214 C 0.14025 0.66983 0.45664 0.0
C2215 C 0.13206 0.64815 0.47242 0.0
C2216 C 0.1549 0.61762 0.44262 0.0
C2217 C 0.16302 0.63928 0.42654 0.0
N2218 N 0.17244 0.68578 0.42495 0.0
N2219 N 0.14161 0.60367 0.48641 0.0
C2220 C 0.15873 0.66535 0.43593 0.0
C2221 C 0.14279 0.6228 0.46739 0.0
N2222 N 0.12937 0.69426 0.46008 0.0
N2223 N 0.15675 0.59218 0.43395 0.0
H2224 H 0.13377 0.60719 0.50516 0.0
H2225 H 0.15126 0.58558 0.48465 0.0
H2226 H 0.16409 0.58681 0.41565 0.0
H2227 H 0.14829 0.57635 0.44403 0.0
H2228 H 0.13284 0.70989 0.44712 0.0
H2229 H 0.11522 0.69843 0.47442 0.0
H2230 H 0.17164 0.70501 0.43226 0.0
H2231 H 0.1869 0.68269 0.41055 0.0
C2232 C 0.88095 0.41474 0.68962 0.0
C2233 C 0.89459 0.40689 0.66658 0.0
C2234 C 0.91323 0.36879 0.69005 0.0
C2235 C 0.89737 0.37513 0.7123 0.0
N2236 N 0.86371 0.40246 0.73251 0.0
N2237 N 0.92093 0.37652 0.64289 0.0
C2238 C 0.88047 0.3976 0.71186 0.0
C2239 C 0.91023 0.38389 0.66646 0.0
N2240 N 0.86959 0.43918 0.69057 0.0
N2241 N 0.93097 0.3485 0.69155 0.0
H2242 H 0.93127 0.35903 0.63965 0.0
H2243 H 0.93127 0.35903 0.63965 0.0
H2244 H 0.93271 0.33639 0.70814 0.0
H2245 H 0.94517 0.34465 0.6772 0.0
H2246 H 0.86154 0.44733 0.70766 0.0
H2247 H 0.87059 0.45243 0.67481 0.0
H2248 H 0.84894 0.41673 0.73196 0.0
H2249 H 0.86324 0.39107 0.74964 0.0
C2250 C 0.64697 0.88075 0.53406 0.0
C2251 C 0.62767 0.8605 0.53334 0.0
C2252 C 0.63838 0.84875 0.57904 0.0
C2253 C 0.6535 0.87215 0.5812 0.0
N2254 N 0.67245 0.91085 0.56114 0.0
N2255 N 0.60556 0.82395 0.55427 0.0
C2256 C 0.65841 0.88797 0.55864 0.0
C2257 C 0.62394 0.84368 0.55543 0.0
N2258 N 0.65432 0.89294 0.51112 0.0
N2259 N 0.6376 0.83183 0.60002 0.0
H2260 H 0.5952 0.81942 0.53704 0.0
H2261 H 0.59975 0.81277 0.57051 0.0
H2262 H 0.64812 0.83557 0.61737 0.0
H2263 H 0.62855 0.81339 0.59955 0.0
H2264 H 0.66986 0.90634 0.50983 0.0
H2265 H 0.64653 0.88751 0.49284 0.0
H2266 H 0.67388 0.92499 0.54627 0.0
H2267 H 0.68159 0.91644 0.5787 0.0
C2268 C 0.10475 0.08796 0.72245 0.0
C2269 C 0.10969 0.11558 0.72062 0.0
C2270 C 0.129 0.10955 0.67653 0.0
C2271 C 0.12592 0.0819 0.67913 0.0
N2272 N 0.10483 0.04525 0.70021 0.0
N2273 N 0.11584 0.15292 0.69183 0.0
C2274 C 0.11166 0.07133 0.70074 0.0
C2275 C 0.11828 0.12642 0.69621 0.0
N2276 N 0.09458 0.07742 0.74509 0.0
N2277 N 0.14373 0.11964 0.65631 0.0
H2278 H 0.10699 0.1655 0.70557 0.0
H2279 H 0.11972 0.16177 0.67365 0.0
H2280 H 0.15195 0.10793 0.64153 0.0
H2281 H 0.14933 0.1394 0.65522 0.0
H2282 H 0.09435 0.05728 0.74918 0.0
H2283 H 0.08629 0.08883 0.75999 0.0
H2284 H 0.09257 0.03632 0.7141 0.0
H2285 H 0.10972 0.03304 0.68432 0.0
C2286 C 0.36416 0.6459 0.56849 0.0
C2287 C 0.33638 0.6482 0.5666 0.0
C2288 C 0.33992 0.65594 0.51877 0.0
C2289 C 0.3678 0.65319 0.52065 0.0
N2290 N 0.40687 0.65242 0.54771 0.0
N2291 N 0.29767 0.65913 0.54174 0.0
C2292 C 0.38003 0.65018 0.5457 0.0
C2293 C 0.32423 0.65445 0.54221 0.0
N2294 N 0.37526 0.6391 0.59213 0.0
N2295 N 0.32845 0.65906 0.49455 0.0
H2296 H 0.28589 0.65737 0.55858 0.0
H2297 H 0.2875 0.66607 0.5253 0.0
H2298 H 0.33939 0.66211 0.47741 0.0
H2299 H 0.30821 0.65803 0.49118 0.0
H2300 H 0.395 0.63387 0.59436 0.0
H2301 H 0.36426 0.63712 0.60945 0.0
H2302 H 0.417 0.65282 0.56559 0.0
H2303 H 0.41893 0.65651 0.53148 0.0
C2304 C 0.8056 0.91983 0.59719 0.0
C2305 C 0.8156 0.89457 0.59072 0.0
C2306 C 0.7743 0.87501 0.60649 0.0
C2307 C 0.76748 0.89931 0.61889 0.0
N2308 N 0.77882 0.94511 0.62748 0.0
N2309 N 0.80955 0.84717 0.59065 0.0
C2310 C 0.78334 0.92205 0.61418 0.0
C2311 C 0.7998 0.87188 0.59522 0.0
N2312 N 0.81815 0.94167 0.58762 0.0
N2313 N 0.75642 0.85484 0.6053 0.0
H2314 H 0.82792 0.84351 0.5823 0.0
H2315 H 0.80011 0.83005 0.59709 0.0
H2316 H 0.73744 0.85626 0.61306 0.0
H2317 H 0.75946 0.8378 0.59416 0.0
H2318 H 0.81074 0.96074 0.58976 0.0
H2319 H 0.83452 0.94017 0.57514 0.0
H2320 H 0.79168 0.96116 0.6267 0.0
H2321 H 0.76378 0.94767 0.64124 0.0
C2322 C 0.81259 0.0956 0.91189 0.0
C2323 C 0.82219 0.12166 0.91546 0.0
C2324 C 0.78213 0.13815 0.89395 0.0
C2325 C 0.77698 0.11248 0.88406 0.0
N2326 N 0.78809 0.06602 0.88352 0.0
N2327 N 0.81525 0.16871 0.90893 0.0
C2328 C 0.79203 0.0908 0.89341 0.0
C2329 C 0.8065 0.14332 0.90678 0.0
N2330 N 0.82343 0.07549 0.92616 0.0
N2331 N 0.7636 0.15757 0.89122 0.0
H2332 H 0.83299 0.17403 0.91757 0.0
H2333 H 0.8058 0.1846 0.8999 0.0
H2334 H 0.74523 0.15418 0.88252 0.0
H2335 H 0.76522 0.17599 0.90027 0.0
H2336 H 0.81602 0.0563 0.92596 0.0
H2337 H 0.83795 0.07891 0.9404 0.0
H2338 H 0.80058 0.05022 0.8877 0.0
H2339 H 0.77369 0.06157 0.86954 0.0
C2340 C 0.33328 0.95685 0.35212 0.0
C2341 C 0.34424 0.95548 0.37788 0.0
C2342 C 0.37059 0.91709 0.36516 0.0
C2343 C 0.36347 0.92135 0.33836 0.0
N2344 N 0.33574 0.94241 0.30623 0.0
N2345 N 0.36004 0.92559 0.41112 0.0
C2346 C 0.34374 0.94018 0.3319 0.0
C2347 C 0.35861 0.93267 0.38513 0.0
N2348 N 0.31206 0.97283 0.34757 0.0
N2349 N 0.3903 0.89982 0.37146 0.0
H2350 H 0.34963 0.93581 0.42572 0.0
H2351 H 0.3685 0.90798 0.41757 0.0
H2352 H 0.40024 0.88846 0.35753 0.0
H2353 H 0.39833 0.89836 0.39035 0.0
H2354 H 0.30241 0.97436 0.32951 0.0
H2355 H 0.30203 0.98223 0.36293 0.0
H2356 H 0.32362 0.95743 0.29921 0.0
H2357 H 0.34193 0.92923 0.29163 0.0
C2358 C 0.20556 0.40179 0.92059 0.0
C2359 C 0.1813 0.39595 0.90804 0.0
C2360 C 0.20311 0.39634 0.86484 0.0
C2361 C 0.22804 0.39918 0.87745 0.0
N2362 N 0.25327 0.40498 0.9175 0.0
N2363 N 0.15643 0.38633 0.86888 0.0
C2364 C 0.22934 0.40232 0.90541 0.0
C2365 C 0.17997 0.39283 0.88033 0.0
N2366 N 0.20556 0.40714 0.94706 0.0
N2367 N 0.20141 0.39848 0.83797 0.0
H2368 H 0.13884 0.38515 0.87952 0.0
H2369 H 0.15452 0.38045 0.84926 0.0
H2370 H 0.21773 0.40248 0.82615 0.0
H2371 H 0.18369 0.39914 0.82761 0.0
H2372 H 0.22188 0.41413 0.95739 0.0
H2373 H 0.18849 0.40593 0.95857 0.0
H2374 H 0.25608 0.40399 0.93784 0.0
H2375 H 0.27073 0.40751 0.90704 0.0
C2376 C 0.16804 0.04368 0.86144 0.0
C2377 C 0.14537 0.02947 0.86973 0.0
C2378 C 0.11698 0.06068 0.84623 0.0
C2379 C 0.13968 0.07477 0.83733 0.0
N2380 N 0.1863 0.07293 0.82826 0.0
N2381 N 0.10009 0.01821 0.85991 0.0
C2382 C 0.16508 0.06395 0.84224 0.0
C2383 C 0.12042 0.03593 0.85885 0.0
N2384 N 0.19208 0.03901 0.8727 0.0
N2385 N 0.09227 0.0712 0.84452 0.0
H2386 H 0.10232 0.99919 0.86754 0.0
H2387 H 0.0822 0.02121 0.85019 0.0
H2388 H 0.08829 0.08976 0.83699 0.0
H2389 H 0.07584 0.06251 0.85341 0.0
H2390 H 0.20857 0.05076 0.86898 0.0
H2391 H 0.19506 0.02506 0.88754 0.0
H2392 H 0.20498 0.06441 0.82957 0.0
H2393 H 0.18432 0.0868 0.81313 0.0
C2394 C 0.69992 0.10598 0.13307 0.0
C2395 C 0.72371 0.09736 0.12098 0.0
C2396 C 0.70101 0.09689 0.07823 0.0
C2397 C 0.68008 0.11161 0.0894 0.0
N2398 N 0.65967 0.13103 0.12778 0.0
N2399 N 0.74696 0.08415 0.08125 0.0
C2400 C 0.67918 0.11587 0.11704 0.0
C2401 C 0.72415 0.09196 0.09339 0.0
N2402 N 0.6972 0.1046 0.15989 0.0
N2403 N 0.69884 0.08856 0.05269 0.0
H2404 H 0.7644 0.08021 0.09133 0.0
H2405 H 0.74911 0.08312 0.06081 0.0
H2406 H 0.68191 0.09235 0.04153 0.0
H2407 H 0.71234 0.07596 0.04363 0.0
H2408 H 0.67953 0.1086 0.16964 0.0
H2409 H 0.7118 0.09656 0.17201 0.0
H2410 H 0.65995 0.13762 0.14729 0.0
H2411 H 0.64399 0.13841 0.11678 0.0
C2412 C 0.39045 0.04963 0.16487 0.0
C2413 C 0.38168 0.07521 0.15844 0.0
C2414 C 0.35072 0.05671 0.12597 0.0
C2415 C 0.36305 0.03173 0.12899 0.0
N2416 N 0.39497 0.00408 0.15133 0.0
N2417 N 0.35329 0.10407 0.13409 0.0
C2418 C 0.38269 0.02797 0.14881 0.0
C2419 C 0.3613 0.07896 0.13969 0.0
N2420 N 0.40681 0.04641 0.18606 0.0
N2421 N 0.32948 0.05921 0.10954 0.0
H2422 H 0.36033 0.12037 0.14458 0.0
H2423 H 0.34062 0.10891 0.11865 0.0
H2424 H 0.32183 0.04337 0.09881 0.0
H2425 H 0.31829 0.07636 0.10793 0.0
H2426 H 0.41231 0.0281 0.19359 0.0
H2427 H 0.41299 0.06232 0.19763 0.0
H2428 H 0.41152 0.00095 0.16308 0.0
H2429 H 0.38964 0.98753 0.14041 0.0
C2430 C 0.61128 0.44827 0.1704 0.0
C2431 C 0.63362 0.43212 0.17589 0.0
C2432 C 0.66163 0.46114 0.14912 0.0
C2433 C 0.6391 0.47641 0.14253 0.0
N2434 N 0.59588 0.49119 0.1559 0.0
N2435 N 0.68071 0.42957 0.17968 0.0
C2436 C 0.61503 0.47218 0.15623 0.0
C2437 C 0.65908 0.44107 0.16853 0.0
N2438 N 0.58634 0.44036 0.17689 0.0
N2439 N 0.68482 0.46422 0.13565 0.0
H2440 H 0.67892 0.41498 0.19416 0.0
H2441 H 0.69989 0.43641 0.17669 0.0
H2442 H 0.68751 0.47806 0.12067 0.0
H2443 H 0.70083 0.45151 0.13791 0.0
H2444 H 0.56947 0.44994 0.17005 0.0
H2445 H 0.58201 0.42328 0.18732 0.0
H2446 H 0.57893 0.49026 0.16754 0.0
H2447 H 0.59845 0.50928 0.14637 0.0
C2448 C 0.28815 0.10191 0.38666 0.0
C2449 C 0.28218 0.07718 0.37485 0.0
C2450 C 0.23646 0.09194 0.36851 0.0
C2451 C 0.24188 0.11483 0.38387 0.0
N2452 N 0.27186 0.1384 0.41256 0.0
N2453 N 0.24946 0.04714 0.35757 0.0
C2454 C 0.26743 0.11891 0.39438 0.0
C2455 C 0.256 0.07177 0.36644 0.0
N2456 N 0.31372 0.10985 0.38942 0.0
N2457 N 0.21302 0.0898 0.35536 0.0
H2458 H 0.26313 0.03183 0.35599 0.0
H2459 H 0.23009 0.0413 0.35387 0.0
H2460 H 0.19845 0.10433 0.35615 0.0
H2461 H 0.20904 0.07483 0.34182 0.0
H2462 H 0.31896 0.12886 0.39529 0.0
H2463 H 0.32948 0.09848 0.38294 0.0
H2464 H 0.28964 0.14028 0.42278 0.0
H2465 H 0.25705 0.15092 0.4195 0.0
C2466 C 0.32827 0.50168 0.85963 0.0
C2467 C 0.33435 0.47583 0.86822 0.0
C2468 C 0.38143 0.48581 0.86734 0.0
C2469 C 0.37549 0.51216 0.85999 0.0
N2470 N 0.34306 0.54701 0.85633 0.0
N2471 N 0.3654 0.44607 0.88835 0.0
C2472 C 0.34879 0.52072 0.85837 0.0
C2473 C 0.36054 0.46885 0.87482 0.0
N2474 N 0.30312 0.50781 0.85206 0.0
N2475 N 0.40666 0.4764 0.86563 0.0
H2476 H 0.35019 0.43391 0.89498 0.0
H2477 H 0.38399 0.44098 0.89552 0.0
H2478 H 0.42248 0.48776 0.85893 0.0
H2479 H 0.41139 0.45655 0.86827 0.0
H2480 H 0.29821 0.52542 0.84262 0.0
H2481 H 0.28744 0.49454 0.85383 0.0
H2482 H 0.32391 0.55445 0.85733 0.0
H2483 H 0.35758 0.56163 0.85632 0.0
C2484 C 0.72499 0.41016 0.40262 0.0
C2485 C 0.69934 0.40319 0.39363 0.0
C2486 C 0.71745 0.3619 0.37602 0.0
C2487 C 0.74324 0.3702 0.38312 0.0
N2488 N 0.77177 0.40676 0.39408 0.0
N2489 N 0.67413 0.37647 0.36284 0.0
C2490 C 0.74704 0.39612 0.39287 0.0
C2491 C 0.69651 0.38043 0.3773 0.0
N2492 N 0.72842 0.4277 0.42271 0.0
N2493 N 0.71227 0.33615 0.36987 0.0
H2494 H 0.65899 0.3903 0.36187 0.0
H2495 H 0.67221 0.36104 0.34932 0.0
H2496 H 0.72652 0.32136 0.37012 0.0
H2497 H 0.69313 0.32907 0.36716 0.0
H2498 H 0.74685 0.43186 0.43092 0.0
H2499 H 0.71273 0.43447 0.43395 0.0
H2500 H 0.77512 0.42629 0.39972 0.0
H2501 H 0.78832 0.39689 0.38673 0.0
C2502 C 0.64353 0.03253 0.87788 0.0
C2503 C 0.66335 0.03254 0.85806 0.0
C2504 C 0.65694 0.98511 0.85246 0.0
C2505 C 0.63291 0.98692 0.86653 0.0
N2506 N 0.60236 0.01325 0.89224 0.0
N2507 N 0.68643 0.0086 0.82369 0.0
C2508 C 0.62618 0.01066 0.8798 0.0
C2509 C 0.67003 0.00863 0.84504 0.0
N2510 N 0.64083 0.0538 0.89426 0.0
N2511 N 0.66636 0.96097 0.84502 0.0
H2512 H 0.69494 0.02563 0.81622 0.0
H2513 H 0.68912 0.99212 0.81168 0.0
H2514 H 0.65675 0.94346 0.85019 0.0
H2515 H 0.68484 0.95842 0.8363 0.0
H2516 H 0.62825 0.05392 0.91058 0.0
H2517 H 0.65309 0.07029 0.89294 0.0
H2518 H 0.5953 0.03125 0.8993 0.0
H2519 H 0.58872 0.99797 0.89392 0.0
C2520 C 0.25672 0.88088 0.12455 0.0
C2521 C 0.23061 0.88428 0.11503 0.0
C2522 C 0.24128 0.92906 0.10048 0.0
C2523 C 0.26775 0.92486 0.10833 0.0
N2524 N 0.29701 0.90237 0.1383 0.0
N2525 N 0.19579 0.91401 0.1022 0.0
C2526 C 0.27418 0.90271 0.1241 0.0
C2527 C 0.2221 0.90934 0.10587 0.0
N2528 N 0.26558 0.85652 0.13205 0.0
N2529 N 0.23486 0.95149 0.087 0.0
H2530 H 0.18139 0.89986 0.10639 0.0
H2531 H 0.1881 0.93246 0.09737 0.0
H2532 H 0.24814 0.96707 0.08494 0.0
H2533 H 0.21682 0.95436 0.07757 0.0
H2534 H 0.28536 0.8526 0.13614 0.0
H2535 H 0.25376 0.83969 0.13207 0.0
H2536 H 0.30171 0.88751 0.15174 0.0
H2537 H 0.30964 0.91851 0.13886 0.0
C2538 C 0.16534 0.47781 0.12129 0.0
C2539 C 0.15633 0.45187 0.11554 0.0
C2540 C 0.11244 0.46823 0.10493 0.0
C2541 C 0.12005 0.49339 0.11449 0.0
N2542 N 0.15497 0.52472 0.12219 0.0
N2543 N 0.12777 0.42648 0.08745 0.0
C2544 C 0.14706 0.49904 0.11948 0.0
C2545 C 0.13199 0.44854 0.10232 0.0
N2546 N 0.19089 0.48213 0.12865 0.0
N2547 N 0.08652 0.4624 0.10028 0.0
H2548 H 0.14275 0.41267 0.08432 0.0
H2549 H 0.11095 0.42369 0.07592 0.0
H2550 H 0.07131 0.47603 0.10257 0.0
H2551 H 0.07997 0.44335 0.09604 0.0
H2552 H 0.19744 0.49951 0.13745 0.0
H2553 H 0.2059 0.46859 0.1249 0.0
H2554 H 0.17457 0.53056 0.12408 0.0
H2555 H 0.14186 0.54051 0.12027 0.0
C2556 C 0.70128 0.62633 0.12494 0.0
C2557 C 0.70418 0.59901 0.11918 0.0
C2558 C 0.75225 0.60536 0.11735 0.0
C2559 C 0.74802 0.63307 0.1161 0.0
N2560 N 0.71799 0.67013 0.1168 0.0
N2561 N 0.73341 0.56129 0.11807 0.0
C2562 C 0.72246 0.64366 0.11972 0.0
C2563 C 0.73003 0.58802 0.11802 0.0
N2564 N 0.67858 0.63564 0.13617 0.0
N2565 N 0.77749 0.59585 0.11871 0.0
H2566 H 0.71894 0.54836 0.12489 0.0
H2567 H 0.75086 0.55195 0.11258 0.0
H2568 H 0.79403 0.60814 0.11868 0.0
H2569 H 0.78223 0.5761 0.1217 0.0
H2570 H 0.67648 0.65503 0.14274 0.0
H2571 H 0.66321 0.62327 0.14204 0.0
H2572 H 0.69908 0.67823 0.11634 0.0
H2573 H 0.73286 0.68368 0.11242 0.0
C2574 C 0.86337 0.99633 0.13047 0.0
C2575 C 0.85898 0.97243 0.14445 0.0
C2576 C 0.81199 0.98283 0.1486 0.0
C2577 C 0.81656 0.0066 0.13456 0.0
N2578 N 0.84382 0.03167 0.10486 0.0
N2579 N 0.82842 0.9394 0.16019 0.0
C2580 C 0.84139 0.01175 0.12292 0.0
C2581 C 0.83298 0.96448 0.15131 0.0
N2582 N 0.88847 0.00525 0.12601 0.0
N2583 N 0.78822 0.97851 0.16063 0.0
H2584 H 0.84341 0.9254 0.16208 0.0
H2585 H 0.80956 0.93177 0.16326 0.0
H2586 H 0.77215 0.99117 0.15846 0.0
H2587 H 0.78493 0.96318 0.17397 0.0
H2588 H 0.89256 0.02395 0.11844 0.0
H2589 H 0.90531 0.9951 0.13205 0.0
H2590 H 0.861 0.0351 0.09405 0.0
H2591 H 0.82768 0.04297 0.09882 0.0
C2592 C 0.40789 0.23521 0.09513 0.0
C2593 C 0.39401 0.23639 0.11927 0.0
C2594 C 0.37909 0.28082 0.10809 0.0
C2595 C 0.39851 0.28204 0.08782 0.0
N2596 N 0.4346 0.2602 0.06508 0.0
N2597 N 0.36647 0.26086 0.14961 0.0
C2598 C 0.41333 0.25899 0.08151 0.0
C2599 C 0.37905 0.25911 0.12578 0.0
N2600 N 0.41711 0.21153 0.08612 0.0
N2601 N 0.36108 0.30071 0.11078 0.0
H2602 H 0.36583 0.24543 0.1632 0.0
H2603 H 0.35812 0.2783 0.15666 0.0
H2604 H 0.36088 0.31714 0.09839 0.0
H2605 H 0.34499 0.29968 0.12359 0.0
H2606 H 0.42574 0.20922 0.06755 0.0
H2607 H 0.4135 0.19389 0.09619 0.0
H2608 H 0.44746 0.24443 0.062 0.0
H2609 H 0.44136 0.27775 0.05727 0.0
C2610 C 0.5458 0.3844 0.13465 0.0
C2611 C 0.54041 0.36819 0.15708 0.0
C2612 C 0.49407 0.36677 0.1435 0.0
C2613 C 0.5012 0.37637 0.11825 0.0
N2614 N 0.53459 0.39399 0.08917 0.0
N2615 N 0.50888 0.34021 0.1798 0.0
C2616 C 0.52714 0.3857 0.11376 0.0
C2617 C 0.51422 0.35892 0.16123 0.0
N2618 N 0.569 0.39807 0.13301 0.0
N2619 N 0.46803 0.3637 0.1498 0.0
H2620 H 0.52355 0.33116 0.19069 0.0
H2621 H 0.4905 0.33115 0.18178 0.0
H2622 H 0.45297 0.36913 0.1368 0.0
H2623 H 0.46165 0.35848 0.16869 0.0
H2624 H 0.5728 0.41205 0.11837 0.0
H2625 H 0.58335 0.39732 0.14771 0.0
H2626 H 0.55416 0.39782 0.08405 0.0
H2627 H 0.52152 0.39537 0.07335 0.0
C2628 C 0.63081 0.22529 0.10585 0.0
C2629 C 0.61433 0.23411 0.08508 0.0
C2630 C 0.60959 0.27629 0.10788 0.0
C2631 C 0.61869 0.26412 0.13148 0.0
N2632 N 0.63789 0.22607 0.15301 0.0
N2633 N 0.5906 0.26956 0.06442 0.0
C2634 C 0.62986 0.23852 0.13048 0.0
C2635 C 0.60492 0.26036 0.08531 0.0
N2636 N 0.64736 0.2045 0.102 0.0
N2637 N 0.60526 0.30291 0.10729 0.0
H2638 H 0.58865 0.25873 0.04699 0.0
H2639 H 0.58025 0.28732 0.06472 0.0
H2640 H 0.60932 0.31503 0.12347 0.0
H2641 H 0.60029 0.31317 0.09017 0.0
H2642 H 0.66102 0.19822 0.11606 0.0
H2643 H 0.64948 0.19592 0.08348 0.0
H2644 H 0.64349 0.20626 0.15336 0.0
H2645 H 0.63699 0.23481 0.17163 0.0
C2646 C 0.50678 0.12136 0.1724 0.0
C2647 C 0.50138 0.14479 0.18695 0.0
C2648 C 0.52927 0.17001 0.15638 0.0
C2649 C 0.53634 0.14633 0.14311 0.0
N2650 N 0.53695 0.09871 0.1429 0.0
N2651 N 0.5142 0.18938 0.19732 0.0
C2652 C 0.52673 0.12173 0.15255 0.0
C2653 C 0.51468 0.16852 0.18029 0.0
N2654 N 0.49196 0.09914 0.17628 0.0
N2655 N 0.53536 0.19403 0.14564 0.0
H2656 H 0.5058 0.18787 0.21601 0.0
H2657 H 0.52524 0.20651 0.19446 0.0
H2658 H 0.54527 0.19618 0.1277 0.0
H2659 H 0.52825 0.21178 0.15325 0.0
H2660 H 0.49313 0.08265 0.16401 0.0
H2661 H 0.47682 0.09787 0.19017 0.0
H2662 H 0.53249 0.08027 0.15089 0.0
H2663 H 0.55191 0.09824 0.12872 0.0
C2664 C 0.38593 0.74935 0.41506 0.0
C2665 C 0.40373 0.72923 0.40735 0.0
C2666 C 0.40436 0.74632 0.36206 0.0
C2667 C 0.39044 0.76894 0.37098 0.0
N2668 N 0.36636 0.79202 0.40479 0.0
N2669 N 0.42924 0.7073 0.37368 0.0
C2670 C 0.38031 0.77024 0.39708 0.0
C2671 C 0.41225 0.72702 0.38072 0.0
N2672 N 0.37479 0.74846 0.43965 0.0
N2673 N 0.41056 0.74362 0.33586 0.0
H2674 H 0.4339 0.69186 0.38631 0.0
H2675 H 0.43948 0.70659 0.35586 0.0
H2676 H 0.40637 0.75791 0.32167 0.0
H2677 H 0.41814 0.72641 0.3276 0.0
H2678 H 0.36024 0.76143 0.44614 0.0
H2679 H 0.37875 0.73323 0.45298 0.0
H2680 H 0.36074 0.7958 0.42421 0.0
H2681 H 0.36106 0.80693 0.39158 0.0
C2682 C 0.00859 0.3826 0.81183 0.0
C2683 C 0.98215 0.37499 0.81744 0.0
C2684 C 0.9947 0.36611 0.86311 0.0
C2685 C 0.01997 0.37731 0.8587 0.0
N2686 N 0.04813 0.40275 0.82961 0.0
N2687 N 0.94901 0.3704 0.85172 0.0
C2688 C 0.02614 0.38758 0.83325 0.0
C2689 C 0.97483 0.37001 0.84407 0.0
N2690 N 0.01745 0.38397 0.78639 0.0
N2691 N 0.9897 0.35078 0.88476 0.0
H2692 H 0.9339 0.37616 0.83904 0.0
H2693 H 0.94327 0.36842 0.87143 0.0
H2694 H 0.00427 0.3453 0.89824 0.0
H2695 H 0.97181 0.34087 0.88731 0.0
H2696 H 0.03723 0.38724 0.78169 0.0
H2697 H 0.00581 0.379 0.77017 0.0
H2698 H 0.05218 0.41238 0.81186 0.0
H2699 H 0.06062 0.40806 0.8451 0.0
C2700 C 0.61095 0.78587 0.40076 0.0
C2701 C 0.62444 0.78199 0.42506 0.0
C2702 C 0.64246 0.74072 0.40641 0.0
C2703 C 0.62326 0.74195 0.38594 0.0
N2704 N 0.58533 0.76424 0.36728 0.0
N2705 N 0.65865 0.75799 0.44812 0.0
C2706 C 0.60631 0.76405 0.38423 0.0
C2707 C 0.64185 0.75995 0.42715 0.0
N2708 N 0.60447 0.81052 0.3921 0.0
N2709 N 0.66201 0.72215 0.40525 0.0
H2710 H 0.66326 0.77406 0.46012 0.0
H2711 H 0.66854 0.74068 0.45312 0.0
H2712 H 0.66351 0.70847 0.38993 0.0
H2713 H 0.678 0.72158 0.41814 0.0
H2714 H 0.59611 0.81389 0.37356 0.0
H2715 H 0.61107 0.82756 0.40141 0.0
H2716 H 0.57151 0.77952 0.36712 0.0
H2717 H 0.58016 0.74802 0.35569 0.0
C2718 C 0.99799 0.13791 0.85629 0.0
C2719 C 0.002 0.14269 0.8837 0.0
C2720 C 0.04851 0.13166 0.87858 0.0
C2721 C 0.04612 0.13369 0.85068 0.0
N2722 N 0.01726 0.13108 0.81281 0.0
N2723 N 0.03214 0.1473 0.92042 0.0
C2724 C 0.02038 0.13444 0.83938 0.0
C2725 C 0.02752 0.14027 0.89475 0.0
N2726 N 0.97283 0.13573 0.84674 0.0
N2727 N 0.07036 0.12049 0.88972 0.0
H2728 H 0.01753 0.15472 0.93291 0.0
H2729 H 0.05109 0.14827 0.9284 0.0
H2730 H 0.08514 0.11159 0.87851 0.0
H2731 H 0.07195 0.11683 0.90993 0.0
H2732 H 0.96826 0.13018 0.82749 0.0
H2733 H 0.95616 0.13773 0.8587 0.0
H2734 H 1.00003 0.13574 0.80264 0.0
H2735 H 0.03184 0.12262 0.801 0.0
C2736 C 0.08987 0.37205 0.26532 0.0
C2737 C 0.10132 0.3727 0.29098 0.0
C2738 C 0.1454 0.37593 0.27196 0.0
C2739 C 0.1343 0.3772 0.24634 0.0
N2740 N 0.09709 0.36904 0.21781 0.0
N2741 N 0.13963 0.35882 0.31591 0.0
C2742 C 0.10677 0.37299 0.24272 0.0
C2743 C 0.129 0.36924 0.29343 0.0
N2744 N 0.06316 0.36989 0.26251 0.0
N2745 N 0.17121 0.38256 0.27627 0.0
H2746 H 0.12799 0.35139 0.33119 0.0
H2747 H 0.15963 0.35429 0.31766 0.0
H2748 H 0.18386 0.38907 0.26137 0.0
H2749 H 0.17918 0.38423 0.2952 0.0
H2750 H 0.05321 0.37368 0.24494 0.0
H2751 H 0.051 0.3633 0.27777 0.0
H2752 H 0.07764 0.36383 0.21376 0.0
H2753 H 0.10913 0.36893 0.20107 0.0
C2754 C 0.12548 0.6365 0.23288 0.0
C2755 C 0.12109 0.62118 0.25573 0.0
C2756 C 0.08749 0.59577 0.2332 0.0
C2757 C 0.09597 0.60649 0.20865 0.0
N2758 N 0.1215 0.63985 0.1854 0.0
N2759 N 0.08522 0.60264 0.28048 0.0
C2760 C 0.11435 0.62792 0.20853 0.0
C2761 C 0.09738 0.60672 0.2568 0.0
N2762 N 0.13602 0.66113 0.23534 0.0
N2763 N 0.07325 0.57299 0.23424 0.0
H2764 H 0.09266 0.61098 0.29785 0.0
H2765 H 0.06689 0.59339 0.28213 0.0
H2766 H 0.07014 0.56146 0.21759 0.0
H2767 H 0.06832 0.56362 0.25192 0.0
H2768 H 0.13792 0.67432 0.21966 0.0
H2769 H 0.13853 0.66974 0.25391 0.0
H2770 H 0.1372 0.65308 0.18402 0.0
H2771 H 0.11239 0.63592 0.16738 0.0
C2772 C 0.87529 0.65949 0.01838 0.0
C2773 C 0.87614 0.64914 0.04451 0.0
C2774 C 0.88345 0.60457 0.02747 0.0
C2775 C 0.87868 0.61414 0.00168 0.0
N2776 N 0.87812 0.65043 0.97113 0.0
N2777 N 0.89485 0.61517 0.07246 0.0
C2778 C 0.87733 0.64166 0.99667 0.0
C2779 C 0.88504 0.6228 0.0485 0.0
N2780 N 0.87234 0.68596 0.01431 0.0
N2781 N 0.88433 0.57802 0.03231 0.0
H2782 H 0.89639 0.62799 0.08847 0.0
H2783 H 0.90404 0.59704 0.0756 0.0
H2784 H 0.88336 0.56377 0.01749 0.0
H2785 H 0.88419 0.57003 0.05129 0.0
H2786 H 0.86716 0.69429 0.99626 0.0
H2787 H 0.8764 0.6999 0.02886 0.0
H2788 H 0.87881 0.67022 0.96569 0.0
H2789 H 0.88003 0.63753 0.95513 0.0
C2790 C 0.9161 0.85936 0.24335 0.0
C2791 C 0.93153 0.88023 0.25358 0.0
C2792 C 0.91003 0.87391 0.29627 0.0
C2793 C 0.88875 0.86188 0.28273 0.0
N2794 N 0.87289 0.83899 0.24415 0.0
N2795 N 0.95027 0.8999 0.29252 0.0
C2796 C 0.89239 0.85268 0.25663 0.0
C2797 C 0.93109 0.88474 0.28121 0.0
N2798 N 0.92472 0.84527 0.22214 0.0
N2799 N 0.90939 0.87543 0.32318 0.0
H2800 H 0.96697 0.90581 0.28192 0.0
H2801 H 0.94972 0.90642 0.31202 0.0
H2802 H 0.89384 0.86734 0.33409 0.0
H2803 H 0.9248 0.8828 0.3346 0.0
H2804 H 0.91486 0.8286 0.21514 0.0
H2805 H 0.94335 0.84852 0.21391 0.0
H2806 H 0.87373 0.83427 0.2241 0.0
H2807 H 0.85557 0.83337 0.25384 0.0
C2808 C 0.60457 0.38257 0.52426 0.0
C2809 C 0.61515 0.37594 0.49918 0.0
C2810 C 0.62571 0.3313 0.51501 0.0
C2811 C 0.61985 0.34003 0.541 0.0
N2812 N 0.59059 0.36668 0.56714 0.0
N2813 N 0.63185 0.34338 0.4688 0.0
C2814 C 0.60486 0.36334 0.5445 0.0
C2815 C 0.62406 0.34984 0.49386 0.0
N2816 N 0.59636 0.40774 0.5295 0.0
N2817 N 0.63153 0.30537 0.51048 0.0
H2818 H 0.62919 0.35612 0.45279 0.0
H2819 H 0.64136 0.3259 0.46376 0.0
H2820 H 0.62914 0.29087 0.52485 0.0
H2821 H 0.63553 0.29745 0.49195 0.0
H2822 H 0.59171 0.41438 0.54842 0.0
H2823 H 0.59581 0.42264 0.51531 0.0
H2824 H 0.5775 0.38226 0.57017 0.0
H2825 H 0.58953 0.35196 0.58148 0.0
C2826 C 0.37392 0.63407 0.78536 0.0
C2827 C 0.40151 0.62957 0.78396 0.0
C2828 C 0.39808 0.62609 0.73566 0.0
C2829 C 0.37014 0.6245 0.73836 0.0
N2830 N 0.33162 0.62334 0.76671 0.0
N2831 N 0.44049 0.63381 0.7571 0.0
C2832 C 0.35805 0.62785 0.76338 0.0
C2833 C 0.41397 0.6292 0.75881 0.0
N2834 N 0.36293 0.64534 0.80728 0.0
N2835 N 0.40919 0.62425 0.71109 0.0
H2836 H 0.45146 0.64035 0.77325 0.0
H2837 H 0.45116 0.63421 0.73956 0.0
H2838 H 0.39795 0.62352 0.69383 0.0
H2839 H 0.42935 0.6228 0.70756 0.0
H2840 H 0.34317 0.65102 0.80823 0.0
H2841 H 0.37423 0.65229 0.82299 0.0
H2842 H 0.32266 0.62274 0.78526 0.0
H2843 H 0.31911 0.61745 0.75145 0.0
C2844 C 0.88483 0.38689 0.46811 0.0
C2845 C 0.879 0.37635 0.49337 0.0
C2846 C 0.87316 0.33234 0.47409 0.0
C2847 C 0.87336 0.34419 0.44873 0.0
N2848 N 0.89403 0.37799 0.4221 0.0
N2849 N 0.87001 0.33906 0.52153 0.0
C2850 C 0.88399 0.36999 0.44587 0.0
C2851 C 0.87438 0.34891 0.49676 0.0
N2852 N 0.88906 0.41339 0.46503 0.0
N2853 N 0.87358 0.30548 0.47643 0.0
H2854 H 0.87221 0.3505 0.53854 0.0
H2855 H 0.86319 0.32001 0.52518 0.0
H2856 H 0.87664 0.29313 0.46024 0.0
H2857 H 0.87481 0.2956 0.49441 0.0
H2858 H 0.88967 0.4227 0.44669 0.0
H2859 H 0.89029 0.42653 0.48084 0.0
H2860 H 0.90437 0.39557 0.41949 0.0
H2861 H 0.89488 0.36563 0.40566 0.0
C2862 C 0.13917 0.1496 0.52895 0.0
C2863 C 0.1347 0.12273 0.52255 0.0
C2864 C 0.13015 0.13449 0.47583 0.0
C2865 C 0.14074 0.1597 0.48158 0.0
N2866 N 0.15001 0.19372 0.51314 0.0
N2867 N 0.12417 0.08925 0.49039 0.0
C2868 C 0.14314 0.16814 0.50815 0.0
C2869 C 0.12891 0.11519 0.49619 0.0
N2870 N 0.14011 0.15695 0.55492 0.0
N2871 N 0.12163 0.12902 0.45087 0.0
H2872 H 0.12236 0.07474 0.5049 0.0
H2873 H 0.12323 0.08184 0.47122 0.0
H2874 H 0.12202 0.14317 0.43597 0.0
H2875 H 0.11176 0.11176 0.44566 0.0
H2876 H 0.14219 0.17634 0.56137 0.0
H2877 H 0.137 0.14349 0.57023 0.0
H2878 H 0.15499 0.20101 0.53169 0.0
H2879 H 0.15036 0.20786 0.49816 0.0
C2880 C 0.78207 0.61133 0.87442 0.0
C2881 C 0.78231 0.59034 0.89309 0.0
C2882 C 0.73522 0.59772 0.90041 0.0
C2883 C 0.73735 0.62272 0.88825 0.0
N2884 N 0.76438 0.65443 0.86467 0.0
N2885 N 0.75873 0.56747 0.92802 0.0
C2886 C 0.76099 0.62971 0.87493 0.0
C2887 C 0.7586 0.58392 0.90676 0.0
N2888 N 0.80218 0.61406 0.85664 0.0
N2889 N 0.71104 0.58817 0.90755 0.0
H2890 H 0.77606 0.5607 0.93635 0.0
H2891 H 0.74213 0.56399 0.93972 0.0
H2892 H 0.69362 0.59833 0.90322 0.0
H2893 H 0.70838 0.5692 0.91511 0.0
H2894 H 0.80172 0.62773 0.84125 0.0
H2895 H 0.81793 0.60086 0.85568 0.0
H2896 H 0.7825 0.66116 0.85757 0.0
H2897 H 0.74989 0.66898 0.86513 0.0
C2898 C 0.87738 0.94677 0.3599 0.0
C2899 C 0.85082 0.94506 0.36913 0.0
C2900 C 0.85511 0.98961 0.38779 0.0
C2901 C 0.88197 0.98995 0.38004 0.0
N2902 N 0.92055 0.9659 0.36619 0.0
N2903 N 0.81699 0.96263 0.39812 0.0
C2904 C 0.89374 0.96732 0.36899 0.0
C2905 C 0.84033 0.96584 0.38496 0.0
N2906 N 0.88655 0.93032 0.34062 0.0
N2907 N 0.84362 0.0121 0.3972 0.0
H2908 H 0.80617 0.94515 0.39773 0.0
H2909 H 0.80977 0.97635 0.41165 0.0
H2910 H 0.85432 0.02941 0.4005 0.0
H2911 H 0.82335 0.01393 0.40027 0.0
H2912 H 0.90475 0.93289 0.33134 0.0
H2913 H 0.87485 0.91636 0.33139 0.0
H2914 H 0.93024 0.94871 0.36032 0.0
H2915 H 0.93318 0.98096 0.37235 0.0
C2916 C 0.23102 0.87711 0.87704 0.0
C2917 C 0.2577 0.88061 0.88467 0.0
C2918 C 0.25208 0.92867 0.88365 0.0
C2919 C 0.22561 0.92495 0.87554 0.0
N2920 N 0.19327 0.89661 0.85544 0.0
N2921 N 0.29568 0.90941 0.88724 0.0
C2922 C 0.21625 0.89943 0.86918 0.0
C2923 C 0.26894 0.90635 0.88537 0.0
N2924 N 0.21916 0.85293 0.87892 0.0
N2925 N 0.26074 0.95313 0.89102 0.0
H2926 H 0.30869 0.89345 0.88774 0.0
H2927 H 0.30505 0.92765 0.88555 0.0
H2928 H 0.24908 0.97003 0.8895 0.0
H2929 H 0.27887 0.95633 0.90018 0.0
H2930 H 0.19896 0.85017 0.87612 0.0
H2931 H 0.22887 0.83612 0.88574 0.0
H2932 H 0.18708 0.87854 0.84778 0.0
H2933 H 0.18235 0.91281 0.84897 0.0
C2934 C 0.14175 0.49365 0.36888 0.0
C2935 C 0.11404 0.4974 0.36629 0.0
C2936 C 0.11944 0.54378 0.37758 0.0
C2937 C 0.14704 0.54175 0.373 0.0
N2938 N 0.18535 0.51344 0.37219 0.0
N2939 N 0.07666 0.52709 0.36537 0.0
C2940 C 0.15857 0.5162 0.37115 0.0
C2941 C 0.10286 0.52269 0.37013 0.0
N2942 N 0.15172 0.46859 0.37003 0.0
N2943 N 0.10906 0.56541 0.38987 0.0
H2944 H 0.06376 0.51244 0.35883 0.0
H2945 H 0.06841 0.54595 0.36538 0.0
H2946 H 0.12081 0.58029 0.39781 0.0
H2947 H 0.08925 0.56671 0.39536 0.0
H2948 H 0.17141 0.46421 0.37388 0.0
H2949 H 0.13981 0.45181 0.36901 0.0
H2950 H 0.19533 0.49634 0.36667 0.0
H2951 H 0.19761 0.52824 0.37956 0.0
C2952 C 0.79703 0.3718 0.61818 0.0
C2953 C 0.7955 0.39579 0.60361 0.0
C2954 C 0.74749 0.39061 0.60279 0.0
C2955 C 0.75002 0.36396 0.61076 0.0
N2956 N 0.7794 0.32775 0.62168 0.0
N2957 N 0.76802 0.42357 0.5759 0.0
C2958 C 0.77535 0.35409 0.6176 0.0
C2959 C 0.77032 0.40443 0.59462 0.0
N2960 N 0.81892 0.36585 0.63273 0.0
N2961 N 0.72325 0.40235 0.60192 0.0
H2962 H 0.78421 0.43055 0.5656 0.0
H2963 H 0.74999 0.42904 0.56761 0.0
H2964 H 0.70613 0.39272 0.60821 0.0
H2965 H 0.72084 0.42238 0.59771 0.0
H2966 H 0.81986 0.34939 0.64509 0.0
H2967 H 0.83465 0.37891 0.63501 0.0
H2968 H 0.79819 0.31974 0.62425 0.0
H2969 H 0.76465 0.31357 0.61968 0.0
C2970 C 0.64052 0.97697 0.63135 0.0
C2971 C 0.66587 0.98293 0.64157 0.0
C2972 C 0.64865 0.02422 0.65998 0.0
C2973 C 0.6226 0.01585 0.65367 0.0
N2974 N 0.59344 0.98189 0.63717 0.0
N2975 N 0.6945 0.01173 0.66624 0.0
C2976 C 0.61843 0.99165 0.64022 0.0
C2977 C 0.67008 0.00648 0.65607 0.0
N2978 N 0.63753 0.95743 0.61301 0.0
N2979 N 0.65299 0.04936 0.66883 0.0
H2980 H 0.71099 1.00015 0.66192 0.0
H2981 H 0.69812 0.02679 0.67978 0.0
H2982 H 0.63787 0.06312 0.67128 0.0
H2983 H 0.67176 0.05735 0.67143 0.0
H2984 H 0.61982 0.95385 0.60316 0.0
H2985 H 0.65337 0.94665 0.60557 0.0
H2986 H 0.58958 0.96297 0.63007 0.0
H2987 H 0.57667 0.99157 0.64419 0.0
C2988 C 0.24346 0.09389 0.63212 0.0
C2989 C 0.23805 0.07684 0.61054 0.0
C2990 C 0.27807 0.09347 0.58882 0.0
C2991 C 0.27847 0.11507 0.60654 0.0
N2992 N 0.26023 0.13662 0.64511 0.0
N2993 N 0.25121 0.06097 0.56721 0.0
C2994 C 0.2612 0.11529 0.62861 0.0
C2995 C 0.25598 0.07623 0.58881 0.0
N2996 N 0.2311 0.08987 0.65577 0.0
N2997 N 0.29868 0.08967 0.57179 0.0
H2998 H 0.2358 0.04775 0.56626 0.0
H2999 H 0.26171 0.06271 0.54957 0.0
H3000 H 0.31526 0.10193 0.57162 0.0
H3001 H 0.30057 0.0729 0.55998 0.0
H3002 H 0.23568 0.1005 0.6728 0.0
H3003 H 0.21844 0.07389 0.65887 0.0
H3004 H 0.2459 0.13879 0.65974 0.0
H3005 H 0.27221 0.15318 0.64283 0.0
C3006 C 0.38462 0.52507 0.60529 0.0
C3007 C 0.3758 0.50046 0.61535 0.0
C3008 C 0.33157 0.51905 0.62274 0.0
C3009 C 0.34155 0.54425 0.6152 0.0
N3010 N 0.37161 0.56678 0.58607 0.0
N3011 N 0.33937 0.47169 0.62568 0.0
C3012 C 0.36613 0.54568 0.60195 0.0
C3013 C 0.34869 0.4967 0.62157 0.0
N3014 N 0.41084 0.52955 0.60068 0.0
N3015 N 0.30605 0.51635 0.63096 0.0
H3016 H 0.35143 0.45503 0.62434 0.0
H3017 H 0.31951 0.46709 0.62823 0.0
H3018 H 0.2915 0.53022 0.62677 0.0
H3019 H 0.29903 0.4999 0.64109 0.0
H3020 H 0.41831 0.54815 0.59599 0.0
H3021 H 0.42546 0.51544 0.60385 0.0
H3022 H 0.38853 0.56797 0.57438 0.0
H3023 H 0.35759 0.5814 0.58224 0.0
C3024 C 0.88269 0.7499 0.61174 0.0
C3025 C 0.87376 0.7523 0.63815 0.0
C3026 C 0.86696 0.79936 0.63031 0.0
C3027 C 0.88306 0.79788 0.60728 0.0
N3028 N 0.91145 0.77037 0.58026 0.0
N3029 N 0.85995 0.78119 0.67379 0.0
C3030 C 0.89188 0.77272 0.59856 0.0
C3031 C 0.86607 0.77747 0.64777 0.0
N3032 N 0.88399 0.72569 0.59997 0.0
N3033 N 0.85279 0.82165 0.63575 0.0
H3034 H 0.86027 0.76616 0.6878 0.0
H3035 H 0.85695 0.79988 0.6819 0.0
H3036 H 0.85236 0.83787 0.62308 0.0
H3037 H 0.83925 0.8227 0.65126 0.0
H3038 H 0.88909 0.7233 0.58014 0.0
H3039 H 0.87724 0.70861 0.60938 0.0
H3040 H 0.9196 0.75225 0.57483 0.0
H3041 H 0.92238 0.78647 0.57403 0.0
C3042 C 0.02754 0.89555 0.664 0.0
C3043 C 0.0201 0.8799 0.68596 0.0
C3044 C 0.97748 0.87123 0.66513 0.0
C3045 C 0.98743 0.8816 0.64096 0.0
N3046 N 0.02306 0.90241 0.61692 0.0
N3047 N 0.98766 0.85348 0.70848 0.0
C3048 C 0.01258 0.89394 0.64032 0.0
C3049 C 0.99483 0.86809 0.68694 0.0
N3050 N 0.04887 0.91192 0.66576 0.0
N3051 N 0.95133 0.86485 0.66724 0.0
H3052 H 0.99924 0.85248 0.7255 0.0
H3053 H 0.97089 0.84159 0.70901 0.0
H3054 H 0.93796 0.86784 0.65184 0.0
H3055 H 0.94242 0.85919 0.68491 0.0
H3056 H 0.05332 0.92603 0.65144 0.0
H3057 H 0.06052 0.91319 0.6827 0.0
H3058 H 0.04243 0.90905 0.61506 0.0
H3059 H 0.01322 0.90085 0.59892 0.0
C3060 C 0.11154 0.76821 0.59958 0.0
C3061 C 0.11521 0.7643 0.62715 0.0
C3062 C 0.12868 0.71888 0.61842 0.0
C3063 C 0.11771 0.72053 0.59278 0.0
N3064 N 0.10604 0.7488 0.55607 0.0
N3065 N 0.12541 0.73447 0.66321 0.0
C3066 C 0.11157 0.74589 0.58229 0.0
C3067 C 0.12377 0.73939 0.6367 0.0
N3068 N 0.10878 0.79331 0.59002 0.0
N3069 N 0.144 0.69775 0.62512 0.0
H3070 H 0.12058 0.74831 0.67766 0.0
H3071 H 0.12906 0.71569 0.67082 0.0
H3072 H 0.14924 0.68334 0.6113 0.0
H3073 H 0.15403 0.69644 0.64306 0.0
H3074 H 0.10807 0.79799 0.57002 0.0
H3075 H 0.10937 0.80991 0.60223 0.0
H3076 H 0.09696 0.76543 0.54812 0.0
H3077 H 0.11153 0.73488 0.54197 0.0
C3078 C 0.96826 0.63789 0.60387 0.0
C3079 C 0.99365 0.64107 0.61505 0.0
C3080 C 0.97494 0.63428 0.6595 0.0
C3081 C 0.9493 0.63262 0.64802 0.0
N3082 N 0.92546 0.61803 0.60923 0.0
N3083 N 0.02253 0.63608 0.65251 0.0
C3084 C 0.9472 0.62965 0.62017 0.0
C3085 C 0.99743 0.63746 0.64266 0.0
N3086 N 0.9638 0.64391 0.57792 0.0
N3087 N 0.97796 0.63218 0.68621 0.0
H3088 H 0.03928 0.63799 0.64064 0.0
H3089 H 0.027 0.63123 0.67198 0.0
H3090 H 0.96369 0.62364 0.69832 0.0
H3091 H 0.99496 0.63787 0.69625 0.0
H3092 H 0.94492 0.64438 0.56973 0.0
H3093 H 0.97844 0.65104 0.56529 0.0
H3094 H 0.9241 0.61356 0.58916 0.0
H3095 H 0.91046 0.60969 0.62059 0.0
C3096 C 0.88293 0.26819 0.90129 0.0
C3097 C 0.88262 0.26644 0.87325 0.0
C3098 C 0.87168 0.21958 0.87617 0.0
C3099 C 0.87739 0.22001 0.90364 0.0
N3100 N 0.87519 0.24614 0.94334 0.0
N3101 N 0.87996 0.23954 0.83379 0.0
C3102 C 0.87919 0.24481 0.91667 0.0
C3103 C 0.87748 0.24199 0.86061 0.0
N3104 N 0.88751 0.29206 0.91304 0.0
N3105 N 0.85955 0.19821 0.86506 0.0
H3106 H 0.88502 0.25513 0.82132 0.0
H3107 H 0.87957 0.22137 0.82413 0.0
H3108 H 0.85303 0.18216 0.87612 0.0
H3109 H 0.85275 0.19799 0.84562 0.0
H3110 H 0.8911 0.29447 0.93313 0.0
H3111 H 0.88886 0.30962 0.90233 0.0
H3112 H 0.87505 0.2636 0.95414 0.0
H3113 H 0.86844 0.23001 0.95421 0.0
C3114 C 0.47662 0.8817 0.34348 0.0
C3115 C 0.48641 0.87192 0.31912 0.0
C3116 C 0.52819 0.86075 0.34079 0.0
C3117 C 0.51655 0.8663 0.36577 0.0
N3118 N 0.47772 0.87794 0.39103 0.0
N3119 N 0.52079 0.8496 0.2948 0.0
C3120 C 0.49027 0.87584 0.36719 0.0
C3121 C 0.51213 0.86095 0.31772 0.0
N3122 N 0.45448 0.89704 0.34389 0.0
N3123 N 0.55467 0.85586 0.33905 0.0
H3124 H 0.50979 0.84969 0.27739 0.0
H3125 H 0.53804 0.83847 0.29358 0.0
H3126 H 0.56715 0.8561 0.35545 0.0
H3127 H 0.56466 0.85412 0.32113 0.0
H3128 H 0.44793 0.90685 0.36077 0.0
H3129 H 0.44449 0.90234 0.3267 0.0
H3130 H 0.45764 0.88209 0.39277 0.0
H3131 H 0.48662 0.87298 0.40892 0.0
C3132 C 0.11389 0.26359 0.91343 0.0
C3133 C 0.11544 0.29028 0.90556 0.0
C3134 C 0.12422 0.27747 0.86003 0.0
C3135 C 0.12053 0.25067 0.86726 0.0
N3136 N 0.12082 0.21763 0.90157 0.0
N3137 N 0.13519 0.32121 0.87566 0.0
C3138 C 0.11853 0.24352 0.89436 0.0
C3139 C 0.12505 0.29675 0.88022 0.0
N3140 N 0.10703 0.25767 0.93882 0.0
N3141 N 0.12499 0.28487 0.83408 0.0
H3142 H 0.13805 0.33444 0.89111 0.0
H3143 H 0.14403 0.32666 0.85787 0.0
H3144 H 0.12372 0.27153 0.81847 0.0
H3145 H 0.12475 0.30456 0.8281 0.0
H3146 H 0.10228 0.23873 0.94526 0.0
H3147 H 0.10579 0.27225 0.95335 0.0
H3148 H 0.12126 0.21127 0.92113 0.0
H3149 H 0.12465 0.20271 0.88786 0.0
C3150 C 0.5436 0.6192 0.36673 0.0
C3151 C 0.53967 0.63157 0.34196 0.0
C3152 C 0.49199 0.62634 0.34599 0.0
C3153 C 0.49578 0.61851 0.37258 0.0
N3154 N 0.52353 0.59935 0.40577 0.0
N3155 N 0.51227 0.63771 0.30385 0.0
C3156 C 0.52118 0.61174 0.38192 0.0
C3157 C 0.51445 0.63175 0.33007 0.0
N3158 N 0.56868 0.61591 0.37599 0.0
N3159 N 0.46694 0.63044 0.3369 0.0
H3160 H 0.52888 0.64097 0.29206 0.0
H3161 H 0.49462 0.63711 0.29337 0.0
H3162 H 0.45035 0.62566 0.34819 0.0
H3163 H 0.46255 0.63893 0.3187 0.0
H3164 H 0.57335 0.60925 0.39485 0.0
H3165 H 0.5851 0.61972 0.3642 0.0
H3166 H 0.54131 0.59298 0.4138 0.0
H3167 H 0.50701 0.59388 0.41685 0.0
C3168 C 0.57922 0.87427 0.77128 0.0
C3169 C 0.56139 0.89425 0.76383 0.0
C3170 C 0.58612 0.90055 0.72296 0.0
C3171 C 0.60809 0.88837 0.7355 0.0
N3172 N 0.6249 0.86077 0.77073 0.0
N3173 N 0.5411 0.91702 0.72762 0.0
C3174 C 0.60436 0.87369 0.75908 0.0
C3175 C 0.5625 0.90411 0.73771 0.0
N3176 N 0.5717 0.85561 0.78912 0.0
N3177 N 0.58826 0.90881 0.69734 0.0
H3178 H 0.52307 0.91728 0.73767 0.0
H3179 H 0.54083 0.92676 0.70954 0.0
H3180 H 0.60513 0.90524 0.68607 0.0
H3181 H 0.57309 0.91761 0.68667 0.0
H3182 H 0.58337 0.83932 0.7938 0.0
H3183 H 0.55259 0.85528 0.7969 0.0
H3184 H 0.62341 0.85211 0.78937 0.0
H3185 H 0.64377 0.86012 0.76251 0.0
C3186 C 0.57673 0.11656 0.7629 0.0
C3187 C 0.57468 0.13114 0.7392 0.0
C3188 C 0.62251 0.13736 0.73798 0.0
C3189 C 0.62467 0.12282 0.76175 0.0
N3190 N 0.6034 0.10552 0.80093 0.0
N3191 N 0.59419 0.16309 0.7096 0.0
C3192 C 0.6016 0.11457 0.77555 0.0
C3193 C 0.59709 0.14422 0.72861 0.0
N3194 N 0.55496 0.10419 0.77298 0.0
N3195 N 0.64453 0.14328 0.72351 0.0
H3196 H 0.57584 0.16901 0.70265 0.0
H3197 H 0.60971 0.17479 0.70283 0.0
H3198 H 0.66355 0.13804 0.72939 0.0
H3199 H 0.64373 0.15121 0.70453 0.0
H3200 H 0.5558 0.09035 0.78818 0.0
H3201 H 0.53608 0.10711 0.76525 0.0
H3202 H 0.58703 0.1015 0.81273 0.0
H3203 H 0.62121 0.10445 0.81113 0.0
C3204 C 0.36337 0.1588 0.45478 0.0
C3205 C 0.3796 0.13692 0.46137 0.0
C3206 C 0.39284 0.16036 0.5014 0.0
C3207 C 0.37007 0.1762 0.49925 0.0
N3208 N 0.3364 0.19464 0.4717 0.0
N3209 N 0.41173 0.11778 0.4912 0.0
C3210 C 0.35663 0.17723 0.47486 0.0
C3211 C 0.39565 0.13826 0.48436 0.0
N3212 N 0.35374 0.16105 0.42972 0.0
N3213 N 0.411 0.16606 0.52037 0.0
H3214 H 0.41418 0.10103 0.47955 0.0
H3215 H 0.42146 0.11683 0.50932 0.0
H3216 H 0.40908 0.18294 0.53209 0.0
H3217 H 0.42886 0.15602 0.52222 0.0
H3218 H 0.34279 0.17718 0.42319 0.0
H3219 H 0.35906 0.14771 0.4149 0.0
H3220 H 0.32352 0.19438 0.45567 0.0
H3221 H 0.33254 0.20913 0.4858 0.0
C3222 C 0.40248 0.38922 0.74521 0.0
C3223 C 0.37467 0.38582 0.74301 0.0
C3224 C 0.37978 0.3743 0.69648 0.0
C3225 C 0.40595 0.384 0.6972 0.0
N3226 N 0.44537 0.38667 0.72367 0.0
N3227 N 0.3364 0.37652 0.71587 0.0
C3228 C 0.41846 0.38738 0.72205 0.0
C3229 C 0.3632 0.37817 0.7186 0.0
N3230 N 0.41335 0.39471 0.76932 0.0
N3231 N 0.37125 0.36035 0.67503 0.0
H3232 H 0.32318 0.38009 0.73124 0.0
H3233 H 0.32719 0.37393 0.69763 0.0
H3234 H 0.38401 0.35518 0.65966 0.0
H3235 H 0.35294 0.35099 0.67424 0.0
H3236 H 0.43282 0.40063 0.77208 0.0
H3237 H 0.40249 0.39406 0.78684 0.0
H3238 H 0.45595 0.38821 0.7412 0.0
H3239 H 0.45718 0.3809 0.70782 0.0
C3240 C 0.12977 0.84819 0.98953 0.0
C3241 C 0.12832 0.87617 0.99165 0.0
C3242 C 0.1147 0.87152 0.03769 0.0
C3243 C 0.12329 0.84493 0.03766 0.0
N3244 N 0.13119 0.80566 0.01169 0.0
N3245 N 0.12177 0.91473 0.01923 0.0
C3246 C 0.12834 0.83241 0.01295 0.0
C3247 C 0.12104 0.88794 0.01603 0.0
N3248 N 0.13162 0.83685 0.96507 0.0
N3249 N 0.09995 0.88088 0.05825 0.0
H3250 H 0.12771 0.92774 0.00441 0.0
H3251 H 0.11905 0.9238 0.03753 0.0
H3252 H 0.09328 0.86852 0.07337 0.0
H3253 H 0.0916 0.8997 0.05835 0.0
H3254 H 0.13075 0.81661 0.96167 0.0
H3255 H 0.132 0.84792 0.94768 0.0
H3256 H 0.13926 0.79577 0.99557 0.0
H3257 H 0.12446 0.79314 0.02657 0.0
C3258 C 0.89383 0.11378 0.25409 0.0
C3259 C 0.86806 0.10317 0.25213 0.0
C3260 C 0.86865 0.09129 0.29874 0.0
C3261 C 0.89377 0.1038 0.30161 0.0
N3262 N 0.92696 0.1327 0.28295 0.0
N3263 N 0.82803 0.08936 0.27393 0.0
C3264 C 0.90548 0.11672 0.27952 0.0
C3265 C 0.85452 0.0945 0.27494 0.0
N3266 N 0.9073 0.1206 0.23172 0.0
N3267 N 0.8588 0.07475 0.31771 0.0
H3268 H 0.81682 0.09163 0.2568 0.0
H3269 H 0.81672 0.08555 0.29074 0.0
H3270 H 0.86839 0.07009 0.33518 0.0
H3271 H 0.84215 0.06302 0.3147 0.0
H3272 H 0.92723 0.12571 0.23171 0.0
H3273 H 0.89895 0.11937 0.21291 0.0
H3274 H 0.93482 0.14436 0.26792 0.0
H3275 H 0.93521 0.13654 0.30143 0.0
C3276 C 0.3759 0.84298 0.02582 0.0
C3277 C 0.36508 0.8683 0.02053 0.0
C3278 C 0.36188 0.85721 0.97367 0.0
C3279 C 0.36916 0.83075 0.97935 0.0
N3280 N 0.37959 0.79734 0.01172 0.0
N3281 N 0.34198 0.89714 0.9903 0.0
C3282 C 0.37537 0.82329 0.00568 0.0
C3283 C 0.35638 0.87473 0.9947 0.0
N3284 N 0.38721 0.83795 0.0498 0.0
N3285 N 0.36127 0.86601 0.94817 0.0
H3286 H 0.33678 0.91029 0.00528 0.0
H3287 H 0.33285 0.90118 0.97229 0.0
H3288 H 0.36677 0.85423 0.93225 0.0
H3289 H 0.35836 0.88576 0.94315 0.0
H3290 H 0.39775 0.82077 0.05387 0.0
H3291 H 0.38803 0.85195 0.0649 0.0
H3292 H 0.38141 0.79043 0.03102 0.0
H3293 H 0.37904 0.78234 0.99762 0.0
C3294 C 0.64002 0.67565 0.02179 0.0
C3295 C 0.63541 0.6778 0.99432 0.0
C3296 C 0.61644 0.63388 0.99285 0.0
C3297 C 0.626 0.62959 0.01878 0.0
N3298 N 0.63562 0.64866 0.06134 0.0
N3299 N 0.60229 0.66755 0.96204 0.0
C3300 C 0.63378 0.65148 0.03455 0.0
C3301 C 0.61803 0.65969 0.98232 0.0
N3302 N 0.6509 0.6964 0.03509 0.0
N3303 N 0.60749 0.61345 0.97777 0.0
H3304 H 0.60195 0.68719 0.95576 0.0
H3305 H 0.58771 0.65543 0.95399 0.0
H3306 H 0.60628 0.59415 0.9848 0.0
H3307 H 0.60277 0.61571 0.95783 0.0
H3308 H 0.65745 0.69547 0.05455 0.0
H3309 H 0.65319 0.71486 0.02615 0.0
H3310 H 0.64029 0.66397 0.07423 0.0
H3311 H 0.63024 0.63115 0.07082 0.0
C3312 C 0.24044 0.26597 0.48771 0.0
C3313 C 0.23216 0.24098 0.47799 0.0
C3314 C 0.25389 0.2196 0.51537 0.0
C3315 C 0.26565 0.24382 0.52266 0.0
N3316 N 0.27183 0.29014 0.51494 0.0
N3317 N 0.23752 0.19362 0.47902 0.0
C3318 C 0.25935 0.26713 0.5086 0.0
C3319 C 0.24061 0.21762 0.49088 0.0
N3320 N 0.22963 0.28842 0.47749 0.0
N3321 N 0.25464 0.19875 0.53234 0.0
H3322 H 0.23032 0.1916 0.45984 0.0
H3323 H 0.24523 0.17624 0.48689 0.0
H3324 H 0.26205 0.20071 0.55145 0.0
H3325 H 0.24481 0.18101 0.52874 0.0
H3326 H 0.23318 0.30717 0.48517 0.0
H3327 H 0.2152 0.28798 0.46279 0.0
H3328 H 0.27009 0.30737 0.50385 0.0
H3329 H 0.28532 0.29136 0.53048 0.0
C3330 C 0.50894 0.52082 0.74616 0.0
C3331 C 0.48567 0.52618 0.76081 0.0
C3332 C 0.46052 0.49835 0.72987 0.0
C3333 C 0.48428 0.49077 0.717 0.0
N3334 N 0.53174 0.49057 0.71682 0.0
N3335 N 0.44055 0.51442 0.77033 0.0
C3336 C 0.5087 0.50079 0.72637 0.0
C3337 C 0.46175 0.51335 0.75372 0.0
N3338 N 0.53107 0.53556 0.75055 0.0
N3339 N 0.43675 0.49241 0.71872 0.0
H3340 H 0.44133 0.52382 0.78861 0.0
H3341 H 0.42336 0.50353 0.76729 0.0
H3342 H 0.43514 0.48269 0.70068 0.0
H3343 H 0.41887 0.49958 0.72598 0.0
H3344 H 0.54797 0.53424 0.73887 0.0
H3345 H 0.53152 0.55102 0.76416 0.0
H3346 H 0.55021 0.49537 0.7245 0.0
H3347 H 0.53213 0.47518 0.70311 0.0
C3348 C 0.73887 0.28483 0.50953 0.0
C3349 C 0.72788 0.26049 0.51806 0.0
C3350 C 0.75441 0.23756 0.48445 0.0
C3351 C 0.76254 0.26214 0.4737 0.0
N3352 N 0.75699 0.30941 0.47273 0.0
N3353 N 0.72155 0.21408 0.51024 0.0
C3354 C 0.75326 0.2859 0.48534 0.0
C3355 C 0.73465 0.23693 0.50451 0.0
N3356 N 0.7368 0.30667 0.52513 0.0
N3357 N 0.76621 0.21485 0.47603 0.0
H3358 H 0.7063 0.21326 0.52409 0.0
H3359 H 0.72394 0.19674 0.4994 0.0
H3360 H 0.78151 0.21484 0.4622 0.0
H3361 H 0.7628 0.19652 0.48473 0.0
H3362 H 0.74637 0.32441 0.52093 0.0
H3363 H 0.72816 0.306 0.54378 0.0
H3364 H 0.74855 0.32703 0.47922 0.0
H3365 H 0.76597 0.31073 0.45429 0.0
C3366 C 0.47456 0.01852 0.76398 0.0
C3367 C 0.49753 0.02248 0.74834 0.0
C3368 C 0.52343 0.99678 0.77995 0.0
C3369 C 0.50017 0.99059 0.79438 0.0
N3370 N 0.45317 0.99326 0.79904 0.0
N3371 N 0.54177 0.00905 0.73759 0.0
C3372 C 0.47552 0.00075 0.78598 0.0
C3373 C 0.52139 0.00977 0.75524 0.0
N3374 N 0.45222 0.03241 0.75824 0.0
N3375 N 0.54763 0.99117 0.79027 0.0
H3376 H 0.5402 0.01688 0.71861 0.0
H3377 H 0.55886 0.99801 0.74061 0.0
H3378 H 0.54998 0.98236 0.80865 0.0
H3379 H 0.56526 0.99759 0.78179 0.0
H3380 H 0.43541 0.03232 0.7701 0.0
H3381 H 0.45123 0.04557 0.74241 0.0
H3382 H 0.4342 0.99797 0.7927 0.0
H3383 H 0.45374 0.98078 0.81545 0.0
C3384 C 0.23446 0.73841 0.01115 0.0
C3385 C 0.22584 0.7631 0.02115 0.0
C3386 C 0.24954 0.78535 0.98518 0.0
C3387 C 0.26136 0.76107 0.97776 0.0
N3388 N 0.26801 0.71483 0.98641 0.0
N3389 N 0.2303 0.81051 0.02089 0.0
C3390 C 0.25452 0.73761 0.99144 0.0
C3391 C 0.23466 0.78677 0.00897 0.0
N3392 N 0.22301 0.71574 0.02021 0.0
N3393 N 0.25169 0.80683 0.96903 0.0
H3394 H 0.22126 0.81209 0.03928 0.0
H3395 H 0.23835 0.82816 0.014 0.0
H3396 H 0.26098 0.80594 0.95067 0.0
H3397 H 0.24164 0.82445 0.97247 0.0
H3398 H 0.22679 0.69722 0.01209 0.0
H3399 H 0.20773 0.71589 0.03406 0.0
H3400 H 0.26562 0.69767 0.99751 0.0
H3401 H 0.28344 0.71387 0.97278 0.0
C3402 C 0.98808 0.47547 0.24923 0.0
C3403 C 0.01158 0.47158 0.26403 0.0
C3404 C 0.03552 0.49923 0.23223 0.0
C3405 C 0.0115 0.50585 0.21938 0.0
N3406 N 0.96416 0.50334 0.21837 0.0
N3407 N 0.05622 0.48538 0.27301 0.0
C3408 C 0.98752 0.49481 0.22871 0.0
C3409 C 0.03493 0.48508 0.25651 0.0
N3410 N 0.96659 0.45999 0.25424 0.0
N3411 N 0.05901 0.50496 0.22044 0.0
H3412 H 0.05596 0.47649 0.29157 0.0
H3413 H 0.07291 0.49691 0.26948 0.0
H3414 H 0.05995 0.51299 0.20158 0.0
H3415 H 0.07716 0.49871 0.22786 0.0
H3416 H 0.94962 0.46018 0.24263 0.0
H3417 H 0.96679 0.44509 0.26847 0.0
H3418 H 0.94582 0.49787 0.22593 0.0
H3419 H 0.96323 0.51788 0.20379 0.0
C3420 C 0.74526 0.72024 0.99113 0.0
C3421 C 0.73985 0.74444 0.97809 0.0
C3422 C 0.77191 0.76649 0.00716 0.0
C3423 C 0.77477 0.74284 0.02203 0.0
N3424 N 0.75839 0.69929 0.03195 0.0
N3425 N 0.7461 0.79122 0.97491 0.0
C3426 C 0.7598 0.72027 0.01508 0.0
C3427 C 0.75264 0.76782 0.98653 0.0
N3428 N 0.73769 0.69701 0.97989 0.0
N3429 N 0.78828 0.78729 0.01222 0.0
H3430 H 0.73231 0.79237 0.95963 0.0
H3431 H 0.7528 0.80948 0.98159 0.0
H3432 H 0.80293 0.78649 0.02668 0.0
H3433 H 0.78886 0.80435 1.00075 0.0
H3434 H 0.74306 0.6786 0.98735 0.0
H3435 H 0.7288 0.69636 0.9614 0.0
H3436 H 0.74587 0.68325 0.02884 0.0
H3437 H 0.76732 0.6994 0.05048 0.0
C3438 C 0.00944 0.01659 0.26534 0.0
C3439 C 0.98565 0.01874 0.28003 0.0
C3440 C 0.96277 0.9922 0.24673 0.0
C3441 C 0.98708 0.98755 0.23359 0.0
N3442 N 0.03394 0.99346 0.23093 0.0
N3443 N 0.94117 0.00389 0.28777 0.0
C3444 C 0.01059 0.99928 0.24308 0.0
C3445 C 0.96267 0.0053 0.27153 0.0
N3446 N 0.03063 0.03168 0.2724 0.0
N3447 N 0.93964 0.98489 0.23503 0.0
H3448 H 0.94088 0.01227 0.30657 0.0
H3449 H 0.92477 0.99214 0.28374 0.0
H3450 H 0.93904 0.97603 0.21649 0.0
H3451 H 0.92113 0.98998 0.24245 0.0
H3452 H 0.04795 0.03288 0.26138 0.0
H3453 H 0.03001 0.04469 0.28839 0.0
H3454 H 0.05228 0.99932 0.23812 0.0
H3455 H 0.03494 0.98119 0.21438 0.0
C3456 C 0.47878 0.25422 0.27398 0.0
C3457 C 0.46941 0.24567 0.24904 0.0
C3458 C 0.50752 0.26591 0.22745 0.0
C3459 C 0.51604 0.27637 0.25196 0.0
N3460 N 0.50849 0.28331 0.29826 0.0
N3461 N 0.4707 0.2498 0.20177 0.0
C3462 C 0.50119 0.27139 0.27522 0.0
C3463 C 0.48248 0.25365 0.22567 0.0
N3464 N 0.46662 0.24532 0.29634 0.0
N3465 N 0.52421 0.26596 0.20631 0.0
H3466 H 0.45167 0.24219 0.20018 0.0
H3467 H 0.47842 0.25701 0.18408 0.0
H3468 H 0.54377 0.27191 0.20806 0.0
H3469 H 0.51981 0.25691 0.18834 0.0
H3470 H 0.47377 0.24869 0.31532 0.0
H3471 H 0.44997 0.23319 0.29564 0.0
H3472 H 0.49743 0.28235 0.31559 0.0
H3473 H 0.52487 0.29577 0.29941 0.0
C3474 C 0.49458 0.26099 0.97956 0.0
C3475 C 0.48968 0.27672 0.00216 0.0
C3476 C 0.51276 0.24432 0.02975 0.0
C3477 C 0.52008 0.22986 0.00693 0.0
N3478 N 0.5214 0.22652 0.95952 0.0
N3479 N 0.50063 0.28697 0.04723 0.0
C3480 C 0.51184 0.23872 0.98159 0.0
C3481 C 0.50063 0.26939 0.02686 0.0
N3482 N 0.48256 0.26733 0.9563 0.0
N3483 N 0.5164 0.23361 0.05423 0.0
H3484 H 0.49392 0.30622 0.04486 0.0
H3485 H 0.51022 0.28355 0.06512 0.0
H3486 H 0.52378 0.2146 0.05699 0.0
H3487 H 0.50929 0.24235 0.07148 0.0
H3488 H 0.48323 0.25539 0.93956 0.0
H3489 H 0.47033 0.28382 0.95446 0.0
H3490 H 0.51805 0.23335 0.94041 0.0
H3491 H 0.53462 0.21077 0.96049 0.0
C3492 C 0.5192 0.74431 0.29211 0.0
C3493 C 0.52683 0.73044 0.26894 0.0
C3494 C 0.49023 0.75094 0.24478 0.0
C3495 C 0.48103 0.76257 0.26856 0.0
N3496 N 0.48358 0.76567 0.31597 0.0
N3497 N 0.51658 0.71635 0.22475 0.0
C3498 C 0.49463 0.75793 0.29259 0.0
C3499 C 0.51142 0.73256 0.24568 0.0
N3500 N 0.53596 0.74549 0.31319 0.0
N3501 N 0.47939 0.75832 0.22122 0.0
H3502 H 0.53143 0.70209 0.22523 0.0
H3503 H 0.50453 0.71524 0.20811 0.0
H3504 H 0.46453 0.77251 0.21986 0.0
H3505 H 0.48689 0.75238 0.203 0.0
H3506 H 0.53253 0.75739 0.32963 0.0
H3507 H 0.55456 0.73668 0.31308 0.0
H3508 H 0.49141 0.76064 0.33432 0.0
H3509 H 0.46517 0.77482 0.31704 0.0
C3510 C 0.00652 0.27612 0.00576 0.0
C3511 C 0.01566 0.28486 0.98072 0.0
C3512 C 0.99267 0.24745 0.96001 0.0
C3513 C 0.98055 0.24104 0.98452 0.0
N3514 N 0.9723 0.25283 0.02985 0.0
N3515 N 0.01223 0.28196 0.93326 0.0
C3516 C 0.98648 0.25643 0.00718 0.0
C3517 C 0.00731 0.27138 0.95758 0.0
N3518 N 0.01771 0.28595 0.02823 0.0
N3519 N 0.9914 0.2301 0.93945 0.0
H3520 H 0.02155 0.30013 0.93073 0.0
H3521 H 0.00451 0.27408 0.91588 0.0
H3522 H 0.98261 0.2116 0.94125 0.0
H3523 H 0.00175 0.23278 0.92183 0.0
H3524 H 0.01346 0.27867 0.04702 0.0
H3525 H 0.03336 0.29934 0.02779 0.0
H3526 H 0.97414 0.26507 0.0463 0.0
H3527 H 0.95677 0.23936 0.03115 0.0
C3528 C 0.23041 0.50402 0.21983 0.0
C3529 C 0.23002 0.47715 0.22759 0.0
C3530 C 0.22863 0.49059 0.27435 0.0
C3531 C 0.22878 0.51748 0.26659 0.0
N3532 N 0.22288 0.54975 0.23233 0.0
N3533 N 0.22185 0.44485 0.26138 0.0
C3534 C 0.2275 0.52415 0.23936 0.0
C3535 C 0.22695 0.47046 0.25467 0.0
N3536 N 0.23473 0.51025 0.19394 0.0
N3537 N 0.23134 0.48432 0.30044 0.0
H3538 H 0.21987 0.42999 0.24723 0.0
H3539 H 0.21707 0.43885 0.28047 0.0
H3540 H 0.23268 0.49863 0.3152 0.0
H3541 H 0.23412 0.46512 0.30725 0.0
H3542 H 0.238 0.52943 0.18728 0.0
H3543 H 0.23689 0.49591 0.1793 0.0
H3544 H 0.21942 0.55575 0.21295 0.0
H3545 H 0.21992 0.56462 0.2463 0.0
C3546 C 0.73654 0.52943 0.01085 0.0
C3547 C 0.72789 0.50606 0.02361 0.0
C3548 C 0.7636 0.48144 0.0016 0.0
C3549 C 0.77371 0.50536 0.99116 0.0
N3550 N 0.77376 0.55286 0.99233 0.0
N3551 N 0.73553 0.4605 0.0345 0.0
C3552 C 0.76127 0.5296 0.9976 0.0
C3553 C 0.7421 0.48218 0.01988 0.0
N3554 N 0.72059 0.55111 0.01025 0.0
N3555 N 0.77427 0.45804 0.99355 0.0
H3556 H 0.72036 0.46078 0.04845 0.0
H3557 H 0.74652 0.44312 0.03452 0.0
H3558 H 0.78987 0.45712 0.9801 0.0
H3559 H 0.76633 0.43971 0.99846 0.0
H3560 H 0.72499 0.56795 0.99924 0.0
H3561 H 0.70162 0.55102 0.0182 0.0
H3562 H 0.76664 0.57112 0.9986 0.0
H3563 H 0.79273 0.55348 0.98446 0.0
C3564 C 0.78826 0.01068 0.25314 0.0
C3565 C 0.76418 0.0176 0.24062 0.0
C3566 C 0.74213 0.98092 0.26364 0.0
C3567 C 0.76683 0.97201 0.27335 0.0
N3568 N 0.81412 0.9765 0.27447 0.0
N3569 N 0.71866 0.00786 0.2316 0.0
C3570 C 0.79011 0.98651 0.26751 0.0
C3571 C 0.74114 0.00242 0.24542 0.0
N3572 N 0.80916 0.02764 0.25183 0.0
N3573 N 0.71959 0.96889 0.27226 0.0
H3574 H 0.71754 0.02321 0.2179 0.0
H3575 H 0.70188 0.99599 0.23211 0.0
H3576 H 0.71992 0.95339 0.28585 0.0
H3577 H 0.7007 0.97571 0.2679 0.0
H3578 H 0.82652 0.02511 0.26255 0.0
H3579 H 0.80805 0.04566 0.24196 0.0
H3580 H 0.83199 0.98462 0.2683 0.0
H3581 H 0.81618 0.95879 0.2847 0.0
C3582 C 0.7365 0.46559 0.49588 0.0
C3583 C 0.72455 0.48998 0.48927 0.0
C3584 C 0.76065 0.51347 0.51174 0.0
C3585 C 0.77364 0.48908 0.51605 0.0
N3586 N 0.77699 0.44271 0.50635 0.0
N3587 N 0.72591 0.53732 0.48851 0.0
C3588 C 0.7624 0.46533 0.50645 0.0
C3589 C 0.73684 0.51405 0.49658 0.0
N3590 N 0.72257 0.4427 0.49321 0.0
N3591 N 0.771 0.53589 0.52253 0.0
H3592 H 0.70854 0.53801 0.47745 0.0
H3593 H 0.73483 0.55564 0.49114 0.0
H3594 H 0.78847 0.53573 0.53347 0.0
H3595 H 0.76155 0.55414 0.5222 0.0
H3596 H 0.72935 0.42449 0.49998 0.0
H3597 H 0.70303 0.44248 0.48696 0.0
H3598 H 0.77075 0.42527 0.49739 0.0
H3599 H 0.79653 0.44232 0.51261 0.0
C3600 C 0.26993 0.52794 0.75193 0.0
C3601 C 0.26791 0.5242 0.72418 0.0
C3602 C 0.27057 0.47632 0.73142 0.0
C3603 C 0.26743 0.48006 0.75911 0.0
N3604 N 0.25962 0.51023 0.79514 0.0
N3605 N 0.2621 0.49406 0.68778 0.0
C3606 C 0.26597 0.50614 0.76925 0.0
C3607 C 0.26718 0.49814 0.71394 0.0
N3608 N 0.27661 0.55214 0.76171 0.0
N3609 N 0.27802 0.45225 0.72187 0.0
H3610 H 0.2584 0.50945 0.67464 0.0
H3611 H 0.25901 0.47534 0.6798 0.0
H3612 H 0.28264 0.43643 0.7342 0.0
H3613 H 0.2827 0.44904 0.70206 0.0
H3614 H 0.2805 0.55545 0.78167 0.0
H3615 H 0.28138 0.56802 0.74947 0.0
H3616 H 0.25611 0.52895 0.80295 0.0
H3617 H 0.2551 0.49485 0.80806 0.0
C3618 C 0.23743 0.03217 0.50173 0.0
C3619 C 0.22779 0.00713 0.50992 0.0
C3620 C 0.26489 0.9855 0.48733 0.0
C3621 C 0.27553 0.01061 0.48105 0.0
N3622 N 0.27453 0.05781 0.48545 0.0
N3623 N 0.23265 0.96015 0.51255 0.0
C3624 C 0.26243 0.03397 0.48903 0.0
C3625 C 0.24165 0.98379 0.50324 0.0
N3626 N 0.22241 0.05418 0.50579 0.0
N3627 N 0.27688 0.96342 0.47754 0.0
H3628 H 0.21531 0.95857 0.5236 0.0
H3629 H 0.24288 0.94244 0.51061 0.0
H3630 H 0.29391 0.96438 0.46594 0.0
H3631 H 0.26919 0.94445 0.47936 0.0
H3632 H 0.22694 0.07267 0.49801 0.0
H3633 H 0.2042 0.05359 0.5153 0.0
H3634 H 0.26752 0.07545 0.49334 0.0
H3635 H 0.29291 0.05966 0.47634 0.0
C3636 C 0.99881 0.75517 0.71473 0.0
C3637 C 0.01576 0.75797 0.73686 0.0
C3638 C 0.98913 0.72545 0.76122 0.0
C3639 C 0.97111 0.72426 0.73988 0.0
N3640 N 0.95517 0.74311 0.69932 0.0
N3641 N 0.02419 0.74993 0.7829 0.0
C3642 C 0.97493 0.7406 0.71744 0.0
C3643 C 0.01006 0.74425 0.76065 0.0
N3644 N 0.00606 0.76542 0.69085 0.0
N3645 N 0.98656 0.70807 0.78168 0.0
H3646 H 0.03899 0.76426 0.78319 0.0
H3647 H 0.01958 0.74238 0.80149 0.0
H3648 H 0.9715 0.69403 0.78239 0.0
H3649 H 0.00048 0.70613 0.79669 0.0
H3650 H 0.99569 0.7618 0.67345 0.0
H3651 H 0.02383 0.77541 0.68795 0.0
H3652 H 0.9558 0.75646 0.68367 0.0
H3653 H 0.93693 0.73391 0.70176 0.0
C3654 C 0.0104 0.75724 0.48962 0.0
C3655 C 0.01408 0.74035 0.51168 0.0
C3656 C 0.98618 0.76943 0.53845 0.0
C3657 C 0.98032 0.78494 0.51581 0.0
N3658 N 0.9831 0.79071 0.46877 0.0
N3659 N 0.99965 0.72663 0.55489 0.0
C3660 C 0.99134 0.77791 0.49102 0.0
C3661 C 1.00021 0.74532 0.53547 0.0
N3662 N 0.02586 0.75412 0.46774 0.0
N3663 N 0.97992 0.77849 0.56301 0.0
H3664 H 0.00857 0.70822 0.55273 0.0
H3665 H 0.9879 0.7283 0.57174 0.0
H3666 H 0.9717 0.79702 0.56597 0.0
H3667 H 0.98577 0.76908 0.58035 0.0
H3668 H 0.02587 0.76729 0.45193 0.0
H3669 H 0.04046 0.73966 0.46651 0.0
H3670 H 0.98859 0.78503 0.44976 0.0
H3671 H 0.96874 0.80547 0.46929 0.0
C3672 C 0.00158 0.22847 0.73975 0.0
C3673 C 0.01857 0.22662 0.76188 0.0
C3674 C 0.9888 0.25534 0.78712 0.0
C3675 C 0.97344 0.25956 0.7641 0.0
N3676 N 0.96748 0.25358 0.71735 0.0
N3677 N 0.03146 0.24288 0.80469 0.0
C3678 C 0.98043 0.24699 0.74006 0.0
C3679 C 0.01301 0.24127 0.78512 0.0
N3680 N 0.00539 0.21205 0.7187 0.0
N3681 N 0.97977 0.26396 0.81104 0.0
H3682 H 0.04996 0.23407 0.80311 0.0
H3683 H 0.02951 0.25521 0.82106 0.0
H3684 H 0.96163 0.27344 0.81327 0.0
H3685 H 0.98894 0.25934 0.82887 0.0
H3686 H 0.99229 0.21064 0.70292 0.0
H3687 H 0.02052 0.19807 0.71824 0.0
H3688 H 0.97322 0.247 0.69871 0.0
H3689 H 0.95242 0.26763 0.7169 0.0
C3690 C 0.50122 0.72791 0.46822 0.0
C3691 C 0.48975 0.71861 0.49206 0.0
C3692 C 0.51103 0.75518 0.5158 0.0
C3693 C 0.51907 0.76646 0.49133 0.0
N3694 N 0.51593 0.76617 0.44378 0.0
N3695 N 0.48203 0.72415 0.53845 0.0
C3696 C 0.51262 0.75351 0.46737 0.0
C3697 C 0.49417 0.73253 0.51588 0.0
N3698 N 0.50209 0.71192 0.44659 0.0
N3699 N 0.52032 0.76559 0.53886 0.0
H3700 H 0.47023 0.70724 0.53891 0.0
H3701 H 0.48227 0.73478 0.55607 0.0
H3702 H 0.53348 0.78144 0.53926 0.0
H3703 H 0.51703 0.75706 0.55729 0.0
H3704 H 0.51202 0.71693 0.42924 0.0
H3705 H 0.49588 0.69238 0.44731 0.0
H3706 H 0.50929 0.75844 0.42589 0.0
H3707 H 0.52242 0.78564 0.44245 0.0
C3708 C 0.76703 0.99636 0.73255 0.0
C3709 C 0.75025 0.97569 0.74109 0.0
C3710 C 0.74771 0.99637 0.78494 0.0
C3711 C 0.75938 0.01968 0.77463 0.0
N3712 N 0.79424 0.03355 0.74559 0.0
N3713 N 0.72399 0.95588 0.7754 0.0
C3714 C 0.77318 0.01741 0.75024 0.0
C3715 C 0.74049 0.97561 0.76736 0.0
N3716 N 0.77681 0.99599 0.70741 0.0
N3717 N 0.74759 0.99219 0.81153 0.0
H3718 H 0.71808 0.94063 0.76286 0.0
H3719 H 0.71463 0.95586 0.79373 0.0
H3720 H 0.75888 0.00392 0.82414 0.0
H3721 H 0.74074 0.97484 0.82023 0.0
H3722 H 0.78677 0.01187 0.69895 0.0
H3723 H 0.77348 0.98028 0.69449 0.0
H3724 H 0.80664 0.03174 0.72925 0.0
H3725 H 0.80124 0.0465 0.76004 0.0
C3726 C 0.26315 0.01176 0.00445 0.0
C3727 C 0.27649 0.98829 0.01163 0.0
C3728 C 0.24167 0.96184 0.99058 0.0
C3729 C 0.22917 0.98531 0.98187 0.0
N3730 N 0.2296 0.03246 0.97699 0.0
N3731 N 0.28156 0.94129 0.00731 0.0
C3732 C 0.24038 0.01029 0.98787 0.0
C3733 C 0.26662 0.96338 0.00343 0.0
N3734 N 0.2721 0.03533 0.01397 0.0
N3735 N 0.22909 0.93817 0.98759 0.0
H3736 H 0.29999 0.94188 0.01644 0.0
H3737 H 0.27682 0.92286 0.99949 0.0
H3738 H 0.21055 0.93648 0.9788 0.0
H3739 H 0.23586 0.92061 0.99587 0.0
H3740 H 0.26204 0.05311 0.01169 0.0
H3741 H 0.28895 0.03673 0.02575 0.0
H3742 H 0.23798 0.05117 0.97855 0.0
H3743 H 0.21321 0.03176 0.96453 0.0
loop_
_geom_bond_atom_site_label_1
_geom_bond_atom_site_label_2
_geom_bond_distance
_geom_bond_site_symmetry_2
_ccdc_geom_bond_type
C0 C1 1.351 . S
C0 N3 1.368 . S
C0 H5 0.931 . S
C1 C0 1.351 . S
C1 N2 1.373 . S
C1 H29 0.930 . S
N2 C1 1.373 . S
N2 C4 1.340 . S
N3 C0 1.368 . S
N3 C4 1.321 . S
N3 Co6 2.135 . S
C4 N2 1.340 . S
C4 N3 1.321 . S
C4 H28 0.930 . S
H5 C0 0.931 . S
Co6 N3 2.135 . S
Co6 N9 2.121 . S
Co6 O14 2.055 . S
Co6 O17 2.039 . S
Co6 N20 2.140 . S
C7 O8 1.227 . S
C7 O17 1.265 . S
O8 C7 1.227 . S
N9 Co6 2.121 . S
N9 C11 1.375 . S
N9 C12 1.313 . S
C10 C11 1.338 . S
C10 N13 1.377 . S
C10 H30 0.930 . S
C11 N9 1.375 . S
C11 C10 1.338 . S
C11 H15 0.931 . S
C12 N9 1.313 . S
C12 N13 1.344 . S
C12 H16 0.930 . S
N13 C10 1.377 . S
N13 C12 1.344 . S
O14 Co6 2.055 . S
O14 C18 1.253 . S
H15 C11 0.931 . S
H16 C12 0.930 . S
O17 Co6 2.039 . S
O17 C7 1.265 . S
C18 O14 1.253 . S
C18 O19 1.227 . S
O19 C18 1.227 . S
N20 Co6 2.140 . S
N20 C23 1.346 . S
N20 C24 1.345 . S
C21 C22 1.387 . S
C21 C25 1.391 . S
C22 C21 1.387 . S
C22 C23 1.369 . S
C22 H31 0.929 . S
C23 N20 1.346 . S
C23 C22 1.369 . S
C23 H26 0.928 . S
C24 N20 1.345 . S
C24 C25 1.371 . S
C24 H27 0.931 . S
C25 C21 1.391 . S
C25 C24 1.371 . S
C25 H32 0.930 . S
H26 C23 0.928 . S
H27 C24 0.931 . S
H28 C4 0.930 . S
H29 C1 0.930 . S
H30 C10 0.930 . S
H31 C22 0.929 . S
H32 C25 0.930 . S
C33 C34 1.351 . S
C33 N36 1.368 . S
C33 H38 0.931 . S
C34 C33 1.351 . S
C34 N35 1.373 . S
C34 H62 0.930 . S
N35 C34 1.373 . S
N35 C37 1.340 . S
N36 C33 1.368 . S
N36 C37 1.321 . S
N36 Co39 2.135 . S
C37 N35 1.340 . S
C37 N36 1.321 . S
C37 H61 0.930 . S
H38 C33 0.931 . S
Co39 N36 2.135 . S
Co39 N42 2.121 . S
Co39 O47 2.055 . S
Co39 O50 2.039 . S
Co39 N53 2.140 . S
C40 O41 1.227 . S
C40 O50 1.265 . S
O41 C40 1.227 . S
N42 Co39 2.121 . S
N42 C44 1.375 . S
N42 C45 1.313 . S
C43 C44 1.338 . S
C43 N46 1.377 . S
C43 H63 0.930 . S
C44 N42 1.375 . S
C44 C43 1.338 . S
C44 H48 0.931 . S
C45 N42 1.313 . S
C45 N46 1.344 . S
C45 H49 0.930 . S
N46 C43 1.377 . S
N46 C45 1.344 . S
O47 Co39 2.055 . S
O47 C51 1.253 . S
H48 C44 0.931 . S
H49 C45 0.930 . S
O50 Co39 2.039 . S
O50 C40 1.265 . S
C51 O47 1.253 . S
C51 O52 1.227 . S
O52 C51 1.227 . S
N53 Co39 2.140 . S
N53 C56 1.346 . S
N53 C57 1.345 . S
C54 C55 1.387 . S
C54 C58 1.391 . S
C55 C54 1.387 . S
C55 C56 1.369 . S
C55 H64 0.929 . S
C56 N53 1.346 . S
C56 C55 1.369 . S
C56 H59 0.928 . S
C57 N53 1.345 . S
C57 C58 1.371 . S
C57 H60 0.931 . S
C58 C54 1.391 . S
C58 C57 1.371 . S
C58 H65 0.930 . S
H59 C56 0.928 . S
H60 C57 0.931 . S
H61 C37 0.930 . S
H62 C34 0.930 . S
H63 C43 0.930 . S
H64 C55 0.929 . S
H65 C58 0.930 . S
C66 C67 1.351 . S
C66 N69 1.368 . S
C66 H71 0.931 . S
C67 C66 1.351 . S
C67 N68 1.373 . S
C67 H95 0.930 . S
N68 C67 1.373 . S
N68 C70 1.340 . S
N69 C66 1.368 . S
N69 C70 1.321 . S
N69 Co72 2.135 . S
C70 N68 1.340 . S
C70 N69 1.321 . S
C70 H94 0.930 . S
H71 C66 0.931 . S
Co72 N69 2.135 . S
Co72 N75 2.121 . S
Co72 O80 2.055 . S
Co72 O83 2.039 . S
Co72 N86 2.140 . S
C73 O74 1.227 . S
C73 O83 1.265 . S
O74 C73 1.227 . S
N75 Co72 2.121 . S
N75 C77 1.375 . S
N75 C78 1.313 . S
C76 C77 1.338 . S
C76 N79 1.377 . S
C76 H96 0.930 . S
C77 N75 1.375 . S
C77 C76 1.338 . S
C77 H81 0.931 . S
C78 N75 1.313 . S
C78 N79 1.344 . S
C78 H82 0.930 . S
N79 C76 1.377 . S
N79 C78 1.344 . S
O80 Co72 2.055 . S
O80 C84 1.253 . S
H81 C77 0.931 . S
H82 C78 0.930 . S
O83 Co72 2.039 . S
O83 C73 1.265 . S
C84 O80 1.253 . S
C84 O85 1.227 . S
O85 C84 1.227 . S
N86 Co72 2.140 . S
N86 C89 1.346 . S
N86 C90 1.345 . S
C87 C88 1.387 . S
C87 C91 1.391 . S
C88 C87 1.387 . S
C88 C89 1.369 . S
C88 H97 0.929 . S
C89 N86 1.346 . S
C89 C88 1.369 . S
C89 H92 0.928 . S
C90 N86 1.345 . S
C90 C91 1.371 . S
C90 H93 0.931 . S
C91 C87 1.391 . S
C91 C90 1.371 . S
C91 H98 0.930 . S
H92 C89 0.928 . S
H93 C90 0.931 . S
H94 C70 0.930 . S
H95 C67 0.930 . S
H96 C76 0.930 . S
H97 C88 0.929 . S
H98 C91 0.930 . S
C99 C100 1.351 . S
C99 N102 1.368 . S
C99 H104 0.931 . S
C100 C99 1.351 . S
C100 N101 1.373 . S
C100 H128 0.930 . S
N101 C100 1.373 . S
N101 C103 1.340 . S
N102 C99 1.368 . S
N102 C103 1.321 . S
N102 Co105 2.135 . S
C103 N101 1.340 . S
C103 N102 1.321 . S
C103 H127 0.930 . S
H104 C99 0.931 . S
Co105 N102 2.135 . S
Co105 N108 2.121 . S
Co105 O113 2.055 . S
Co105 O116 2.039 . S
Co105 N119 2.140 . S
C106 O107 1.227 . S
C106 O116 1.265 . S
O107 C106 1.227 . S
N108 Co105 2.121 . S
N108 C110 1.375 . S
N108 C111 1.313 . S
C109 C110 1.338 . S
C109 N112 1.377 . S
C109 H129 0.930 . S
C110 N108 1.375 . S
C110 C109 1.338 . S
C110 H114 0.931 . S
C111 N108 1.313 . S
C111 N112 1.344 . S
C111 H115 0.930 . S
N112 C109 1.377 . S
N112 C111 1.344 . S
O113 Co105 2.055 . S
O113 C117 1.253 . S
H114 C110 0.931 . S
H115 C111 0.930 . S
O116 Co105 2.039 . S
O116 C106 1.265 . S
C117 O113 1.253 . S
C117 O118 1.227 . S
O118 C117 1.227 . S
N119 Co105 2.140 . S
N119 C122 1.346 . S
N119 C123 1.345 . S
C120 C121 1.387 . S
C120 C124 1.391 . S
C121 C120 1.387 . S
C121 C122 1.369 . S
C121 H130 0.929 . S
C122 N119 1.346 . S
C122 C121 1.369 . S
C122 H125 0.928 . S
C123 N119 1.345 . S
C123 C124 1.371 . S
C123 H126 0.931 . S
C124 C120 1.391 . S
C124 C123 1.371 . S
C124 H131 0.930 . S
H125 C122 0.928 . S
H126 C123 0.931 . S
H127 C103 0.930 . S
H128 C100 0.930 . S
H129 C109 0.930 . S
H130 C121 0.929 . S
H131 C124 0.930 . S
C132 C133 1.351 . S
C132 N135 1.368 . S
C132 H137 0.931 . S
C133 C132 1.351 . S
C133 N134 1.373 . S
C133 H161 0.930 . S
N134 C133 1.373 . S
N134 C136 1.340 . S
N135 C132 1.368 . S
N135 C136 1.321 . S
N135 Co138 2.135 . S
C136 N134 1.340 . S
C136 N135 1.321 . S
C136 H160 0.930 . S
H137 C132 0.931 . S
Co138 N135 2.135 . S
Co138 N141 2.121 . S
Co138 O146 2.055 . S
Co138 O149 2.039 . S
Co138 N152 2.140 . S
C139 O140 1.227 . S
C139 O149 1.265 . S
O140 C139 1.227 . S
N141 Co138 2.121 . S
N141 C143 1.375 . S
N141 C144 1.313 . S
C142 C143 1.338 . S
C142 N145 1.377 . S
C142 H162 0.930 . S
C143 N141 1.375 . S
C143 C142 1.338 . S
C143 H147 0.931 . S
C144 N141 1.313 . S
C144 N145 1.344 . S
C144 H148 0.930 . S
N145 C142 1.377 . S
N145 C144 1.344 . S
O146 Co138 2.055 . S
O146 C150 1.253 . S
H147 C143 0.931 . S
H148 C144 0.930 . S
O149 Co138 2.039 . S
O149 C139 1.265 . S
C150 O146 1.253 . S
C150 O151 1.227 . S
O151 C150 1.227 . S
N152 Co138 2.140 . S
N152 C155 1.346 . S
N152 C156 1.345 . S
C153 C154 1.387 . S
C153 C157 1.391 . S
C154 C153 1.387 . S
C154 C155 1.369 . S
C154 H163 0.929 . S
C155 N152 1.346 . S
C155 C154 1.369 . S
C155 H158 0.928 . S
C156 N152 1.345 . S
C156 C157 1.371 . S
C156 H159 0.931 . S
C157 C153 1.391 . S
C157 C156 1.371 . S
C157 H164 0.930 . S
H158 C155 0.928 . S
H159 C156 0.931 . S
H160 C136 0.930 . S
H161 C133 0.930 . S
H162 C142 0.930 . S
H163 C154 0.929 . S
H164 C157 0.930 . S
C165 C166 1.351 . S
C165 N168 1.368 . S
C165 H170 0.931 . S
C166 C165 1.351 . S
C166 N167 1.373 . S
C166 H194 0.930 . S
N167 C166 1.373 . S
N167 C169 1.340 . S
N168 C165 1.368 . S
N168 C169 1.321 . S
N168 Co171 2.135 . S
C169 N167 1.340 . S
C169 N168 1.321 . S
C169 H193 0.930 . S
H170 C165 0.931 . S
Co171 N168 2.135 . S
Co171 N174 2.121 . S
Co171 O179 2.055 . S
Co171 O182 2.039 . S
Co171 N185 2.140 . S
C172 O173 1.227 . S
C172 O182 1.265 . S
O173 C172 1.227 . S
N174 Co171 2.121 . S
N174 C176 1.375 . S
N174 C177 1.313 . S
C175 C176 1.338 . S
C175 N178 1.377 . S
C175 H195 0.930 . S
C176 N174 1.375 . S
C176 C175 1.338 . S
C176 H180 0.931 . S
C177 N174 1.313 . S
C177 N178 1.344 . S
C177 H181 0.930 . S
N178 C175 1.377 . S
N178 C177 1.344 . S
O179 Co171 2.055 . S
O179 C183 1.253 . S
H180 C176 0.931 . S
H181 C177 0.930 . S
O182 Co171 2.039 . S
O182 C172 1.265 . S
C183 O179 1.253 . S
C183 O184 1.227 . S
O184 C183 1.227 . S
N185 Co171 2.140 . S
N185 C188 1.346 . S
N185 C189 1.345 . S
C186 C187 1.387 . S
C186 C190 1.391 . S
C187 C186 1.387 . S
C187 C188 1.369 . S
C187 H196 0.929 . S
C188 N185 1.346 . S
C188 C187 1.369 . S
C188 H191 0.928 . S
C189 N185 1.345 . S
C189 C190 1.371 . S
C189 H192 0.931 . S
C190 C186 1.391 . S
C190 C189 1.371 . S
C190 H197 0.930 . S
H191 C188 0.928 . S
H192 C189 0.931 . S
H193 C169 0.930 . S
H194 C166 0.930 . S
H195 C175 0.930 . S
H196 C187 0.929 . S
H197 C190 0.930 . S
C198 C199 1.351 . S
C198 N201 1.368 . S
C198 H203 0.931 . S
C199 C198 1.351 . S
C199 N200 1.373 . S
C199 H227 0.930 . S
N200 C199 1.373 . S
N200 C202 1.340 . S
N201 C198 1.368 . S
N201 C202 1.321 . S
N201 Co204 2.135 . S
C202 N200 1.340 . S
C202 N201 1.321 . S
C202 H226 0.930 . S
H203 C198 0.931 . S
Co204 N201 2.135 . S
Co204 N207 2.121 . S
Co204 O212 2.055 . S
Co204 O215 2.039 . S
Co204 N218 2.140 . S
C205 O206 1.227 . S
C205 O215 1.265 . S
O206 C205 1.227 . S
N207 Co204 2.121 . S
N207 C209 1.375 . S
N207 C210 1.313 . S
C208 C209 1.338 . S
C208 N211 1.377 . S
C208 H228 0.930 . S
C209 N207 1.375 . S
C209 C208 1.338 . S
C209 H213 0.931 . S
C210 N207 1.313 . S
C210 N211 1.344 . S
C210 H214 0.930 . S
N211 C208 1.377 . S
N211 C210 1.344 . S
O212 Co204 2.055 . S
O212 C216 1.253 . S
H213 C209 0.931 . S
H214 C210 0.930 . S
O215 Co204 2.039 . S
O215 C205 1.265 . S
C216 O212 1.253 . S
C216 O217 1.227 . S
O217 C216 1.227 . S
N218 Co204 2.140 . S
N218 C221 1.346 . S
N218 C222 1.345 . S
C219 C220 1.387 . S
C219 C223 1.391 . S
C220 C219 1.387 . S
C220 C221 1.369 . S
C220 H229 0.929 . S
C221 N218 1.346 . S
C221 C220 1.369 . S
C221 H224 0.928 . S
C222 N218 1.345 . S
C222 C223 1.371 . S
C222 H225 0.931 . S
C223 C219 1.391 . S
C223 C222 1.371 . S
C223 H230 0.930 . S
H224 C221 0.928 . S
H225 C222 0.931 . S
H226 C202 0.930 . S
H227 C199 0.930 . S
H228 C208 0.930 . S
H229 C220 0.929 . S
H230 C223 0.930 . S
C231 C232 1.351 . S
C231 N234 1.368 . S
C231 H236 0.931 . S
C232 C231 1.351 . S
C232 N233 1.373 . S
C232 H260 0.930 . S
N233 C232 1.373 . S
N233 C235 1.340 . S
N234 C231 1.368 . S
N234 C235 1.321 . S
N234 Co237 2.135 . S
C235 N233 1.340 . S
C235 N234 1.321 . S
C235 H259 0.930 . S
H236 C231 0.931 . S
Co237 N234 2.135 . S
Co237 N240 2.121 . S
Co237 O245 2.055 . S
Co237 O248 2.039 . S
Co237 N251 2.140 . S
C238 O239 1.227 . S
C238 O248 1.265 . S
O239 C238 1.227 . S
N240 Co237 2.121 . S
N240 C242 1.375 . S
N240 C243 1.313 . S
C241 C242 1.338 . S
C241 N244 1.377 . S
C241 H261 0.930 . S
C242 N240 1.375 . S
C242 C241 1.338 . S
C242 H246 0.931 . S
C243 N240 1.313 . S
C243 N244 1.344 . S
C243 H247 0.930 . S
N244 C241 1.377 . S
N244 C243 1.344 . S
O245 Co237 2.055 . S
O245 C249 1.253 . S
H246 C242 0.931 . S
H247 C243 0.930 . S
O248 Co237 2.039 . S
O248 C238 1.265 . S
C249 O245 1.253 . S
C249 O250 1.227 . S
O250 C249 1.227 . S
N251 Co237 2.140 . S
N251 C254 1.346 . S
N251 C255 1.345 . S
C252 C253 1.387 . S
C252 C256 1.391 . S
C253 C252 1.387 . S
C253 C254 1.369 . S
C253 H262 0.929 . S
C254 N251 1.346 . S
C254 C253 1.369 . S
C254 H257 0.928 . S
C255 N251 1.345 . S
C255 C256 1.371 . S
C255 H258 0.931 . S
C256 C252 1.391 . S
C256 C255 1.371 . S
C256 H263 0.930 . S
H257 C254 0.928 . S
H258 C255 0.931 . S
H259 C235 0.930 . S
H260 C232 0.930 . S
H261 C241 0.930 . S
H262 C253 0.929 . S
H263 C256 0.930 . S
C264 C265 1.351 . S
C264 N267 1.368 . S
C264 H269 0.931 . S
C265 C264 1.351 . S
C265 N266 1.373 . S
C265 H293 0.930 . S
N266 C265 1.373 . S
N266 C268 1.340 . S
N267 C264 1.368 . S
N267 C268 1.321 . S
N267 Co270 2.135 . S
C268 N266 1.340 . S
C268 N267 1.321 . S
C268 H292 0.930 . S
H269 C264 0.931 . S
Co270 N267 2.135 . S
Co270 N273 2.121 . S
Co270 O278 2.055 . S
Co270 O281 2.039 . S
Co270 N284 2.140 . S
C271 O272 1.227 . S
C271 O281 1.265 . S
O272 C271 1.227 . S
N273 Co270 2.121 . S
N273 C275 1.375 . S
N273 C276 1.313 . S
C274 C275 1.338 . S
C274 N277 1.377 . S
C274 H294 0.930 . S
C275 N273 1.375 . S
C275 C274 1.338 . S
C275 H279 0.931 . S
C276 N273 1.313 . S
C276 N277 1.344 . S
C276 H280 0.930 . S
N277 C274 1.377 . S
N277 C276 1.344 . S
O278 Co270 2.055 . S
O278 C282 1.253 . S
H279 C275 0.931 . S
H280 C276 0.930 . S
O281 Co270 2.039 . S
O281 C271 1.265 . S
C282 O278 1.253 . S
C282 O283 1.227 . S
O283 C282 1.227 . S
N284 Co270 2.140 . S
N284 C287 1.346 . S
N284 C288 1.345 . S
C285 C286 1.387 . S
C285 C289 1.391 . S
C286 C285 1.387 . S
C286 C287 1.369 . S
C286 H295 0.929 . S
C287 N284 1.346 . S
C287 C286 1.369 . S
C287 H290 0.928 . S
C288 N284 1.345 . S
C288 C289 1.371 . S
C288 H291 0.931 . S
C289 C285 1.391 . S
C289 C288 1.371 . S
C289 H296 0.930 . S
H290 C287 0.928 . S
H291 C288 0.931 . S
H292 C268 0.930 . S
H293 C265 0.930 . S
H294 C274 0.930 . S
H295 C286 0.929 . S
H296 C289 0.930 . S
C297 C298 1.351 . S
C297 N300 1.368 . S
C297 H302 0.931 . S
C298 C297 1.351 . S
C298 N299 1.373 . S
C298 H326 0.930 . S
N299 C298 1.373 . S
N299 C301 1.340 . S
N300 C297 1.368 . S
N300 C301 1.321 . S
N300 Co303 2.135 . S
C301 N299 1.340 . S
C301 N300 1.321 . S
C301 H325 0.930 . S
H302 C297 0.931 . S
Co303 N300 2.135 . S
Co303 N306 2.121 . S
Co303 O311 2.055 . S
Co303 O314 2.039 . S
Co303 N317 2.140 . S
C304 O305 1.227 . S
C304 O314 1.265 . S
O305 C304 1.227 . S
N306 Co303 2.121 . S
N306 C308 1.375 . S
N306 C309 1.313 . S
C307 C308 1.338 . S
C307 N310 1.377 . S
C307 H327 0.930 . S
C308 N306 1.375 . S
C308 C307 1.338 . S
C308 H312 0.931 . S
C309 N306 1.313 . S
C309 N310 1.344 . S
C309 H313 0.930 . S
N310 C307 1.377 . S
N310 C309 1.344 . S
O311 Co303 2.055 . S
O311 C315 1.253 . S
H312 C308 0.931 . S
H313 C309 0.930 . S
O314 Co303 2.039 . S
O314 C304 1.265 . S
C315 O311 1.253 . S
C315 O316 1.227 . S
O316 C315 1.227 . S
N317 Co303 2.140 . S
N317 C320 1.346 . S
N317 C321 1.345 . S
C318 C319 1.387 . S
C318 C322 1.391 . S
C319 C318 1.387 . S
C319 C320 1.369 . S
C319 H328 0.929 . S
C320 N317 1.346 . S
C320 C319 1.369 . S
C320 H323 0.928 . S
C321 N317 1.345 . S
C321 C322 1.371 . S
C321 H324 0.931 . S
C322 C318 1.391 . S
C322 C321 1.371 . S
C322 H329 0.930 . S
H323 C320 0.928 . S
H324 C321 0.931 . S
H325 C301 0.930 . S
H326 C298 0.930 . S
H327 C307 0.930 . S
H328 C319 0.929 . S
H329 C322 0.930 . S
C330 C331 1.351 . S
C330 N333 1.368 . S
C330 H335 0.931 . S
C331 C330 1.351 . S
C331 N332 1.373 . S
C331 H359 0.930 . S
N332 C331 1.373 . S
N332 C334 1.340 . S
N333 C330 1.368 . S
N333 C334 1.321 . S
N333 Co336 2.135 . S
C334 N332 1.340 . S
C334 N333 1.321 . S
C334 H358 0.930 . S
H335 C330 0.931 . S
Co336 N333 2.135 . S
Co336 N339 2.121 . S
Co336 O344 2.055 . S
Co336 O347 2.039 . S
Co336 N350 2.140 . S
C337 O338 1.227 . S
C337 O347 1.265 . S
O338 C337 1.227 . S
N339 Co336 2.121 . S
N339 C341 1.375 . S
N339 C342 1.313 . S
C340 C341 1.338 . S
C340 N343 1.377 . S
C340 H360 0.930 . S
C341 N339 1.375 . S
C341 C340 1.338 . S
C341 H345 0.931 . S
C342 N339 1.313 . S
C342 N343 1.344 . S
C342 H346 0.930 . S
N343 C340 1.377 . S
N343 C342 1.344 . S
O344 Co336 2.055 . S
O344 C348 1.253 . S
H345 C341 0.931 . S
H346 C342 0.930 . S
O347 Co336 2.039 . S
O347 C337 1.265 . S
C348 O344 1.253 . S
C348 O349 1.227 . S
O349 C348 1.227 . S
N350 Co336 2.140 . S
N350 C353 1.346 . S
N350 C354 1.345 . S
C351 C352 1.387 . S
C351 C355 1.391 . S
C352 C351 1.387 . S
C352 C353 1.369 . S
C352 H361 0.929 . S
C353 N350 1.346 . S
C353 C352 1.369 . S
C353 H356 0.928 . S
C354 N350 1.345 . S
C354 C355 1.371 . S
C354 H357 0.931 . S
C355 C351 1.391 . S
C355 C354 1.371 . S
C355 H362 0.930 . S
H356 C353 0.928 . S
H357 C354 0.931 . S
H358 C334 0.930 . S
H359 C331 0.930 . S
H360 C340 0.930 . S
H361 C352 0.929 . S
H362 C355 0.930 . S
C363 C364 1.351 . S
C363 N366 1.368 . S
C363 H368 0.931 . S
C364 C363 1.351 . S
C364 N365 1.373 . S
C364 H392 0.930 . S
N365 C364 1.373 . S
N365 C367 1.340 . S
N366 C363 1.368 . S
N366 C367 1.321 . S
N366 Co369 2.135 . S
C367 N365 1.340 . S
C367 N366 1.321 . S
C367 H391 0.930 . S
H368 C363 0.931 . S
Co369 N366 2.135 . S
Co369 N372 2.121 . S
Co369 O377 2.055 . S
Co369 O380 2.039 . S
Co369 N383 2.140 . S
C370 O371 1.227 . S
C370 O380 1.265 . S
O371 C370 1.227 . S
N372 Co369 2.121 . S
N372 C374 1.375 . S
N372 C375 1.313 . S
C373 C374 1.338 . S
C373 N376 1.377 . S
C373 H393 0.930 . S
C374 N372 1.375 . S
C374 C373 1.338 . S
C374 H378 0.931 . S
C375 N372 1.313 . S
C375 N376 1.344 . S
C375 H379 0.930 . S
N376 C373 1.377 . S
N376 C375 1.344 . S
O377 Co369 2.055 . S
O377 C381 1.253 . S
H378 C374 0.931 . S
H379 C375 0.930 . S
O380 Co369 2.039 . S
O380 C370 1.265 . S
C381 O377 1.253 . S
C381 O382 1.227 . S
O382 C381 1.227 . S
N383 Co369 2.140 . S
N383 C386 1.346 . S
N383 C387 1.345 . S
C384 C385 1.387 . S
C384 C388 1.391 . S
C385 C384 1.387 . S
C385 C386 1.369 . S
C385 H394 0.929 . S
C386 N383 1.346 . S
C386 C385 1.369 . S
C386 H389 0.928 . S
C387 N383 1.345 . S
C387 C388 1.371 . S
C387 H390 0.931 . S
C388 C384 1.391 . S
C388 C387 1.371 . S
C388 H395 0.930 . S
H389 C386 0.928 . S
H390 C387 0.931 . S
H391 C367 0.930 . S
H392 C364 0.930 . S
H393 C373 0.930 . S
H394 C385 0.929 . S
H395 C388 0.930 . S
C396 C397 1.351 . S
C396 N399 1.368 . S
C396 H401 0.931 . S
C397 C396 1.351 . S
C397 N398 1.373 . S
C397 H425 0.930 . S
N398 C397 1.373 . S
N398 C400 1.340 . S
N399 C396 1.368 . S
N399 C400 1.321 . S
N399 Co402 2.135 . S
C400 N398 1.340 . S
C400 N399 1.321 . S
C400 H424 0.930 . S
H401 C396 0.931 . S
Co402 N399 2.135 . S
Co402 N405 2.121 . S
Co402 O410 2.055 . S
Co402 O413 2.039 . S
Co402 N416 2.140 . S
C403 O404 1.227 . S
C403 O413 1.265 . S
O404 C403 1.227 . S
N405 Co402 2.121 . S
N405 C407 1.375 . S
N405 C408 1.313 . S
C406 C407 1.338 . S
C406 N409 1.377 . S
C406 H426 0.930 . S
C407 N405 1.375 . S
C407 C406 1.338 . S
C407 H411 0.931 . S
C408 N405 1.313 . S
C408 N409 1.344 . S
C408 H412 0.930 . S
N409 C406 1.377 . S
N409 C408 1.344 . S
O410 Co402 2.055 . S
O410 C414 1.253 . S
H411 C407 0.931 . S
H412 C408 0.930 . S
O413 Co402 2.039 . S
O413 C403 1.265 . S
C414 O410 1.253 . S
C414 O415 1.227 . S
O415 C414 1.227 . S
N416 Co402 2.140 . S
N416 C419 1.346 . S
N416 C420 1.345 . S
C417 C418 1.387 . S
C417 C421 1.391 . S
C418 C417 1.387 . S
C418 C419 1.369 . S
C418 H427 0.929 . S
C419 N416 1.346 . S
C419 C418 1.369 . S
C419 H422 0.928 . S
C420 N416 1.345 . S
C420 C421 1.371 . S
C420 H423 0.931 . S
C421 C417 1.391 . S
C421 C420 1.371 . S
C421 H428 0.930 . S
H422 C419 0.928 . S
H423 C420 0.931 . S
H424 C400 0.930 . S
H425 C397 0.930 . S
H426 C406 0.930 . S
H427 C418 0.929 . S
H428 C421 0.930 . S
C429 C430 1.351 . S
C429 N432 1.368 . S
C429 H434 0.931 . S
C430 C429 1.351 . S
C430 N431 1.373 . S
C430 H458 0.930 . S
N431 C430 1.373 . S
N431 C433 1.340 . S
N432 C429 1.368 . S
N432 C433 1.321 . S
N432 Co435 2.135 . S
C433 N431 1.340 . S
C433 N432 1.321 . S
C433 H457 0.930 . S
H434 C429 0.931 . S
Co435 N432 2.135 . S
Co435 N438 2.121 . S
Co435 O443 2.055 . S
Co435 O446 2.039 . S
Co435 N449 2.140 . S
C436 O437 1.227 . S
C436 O446 1.265 . S
O437 C436 1.227 . S
N438 Co435 2.121 . S
N438 C440 1.375 . S
N438 C441 1.313 . S
C439 C440 1.338 . S
C439 N442 1.377 . S
C439 H459 0.930 . S
C440 N438 1.375 . S
C440 C439 1.338 . S
C440 H444 0.931 . S
C441 N438 1.313 . S
C441 N442 1.344 . S
C441 H445 0.930 . S
N442 C439 1.377 . S
N442 C441 1.344 . S
O443 Co435 2.055 . S
O443 C447 1.253 . S
H444 C440 0.931 . S
H445 C441 0.930 . S
O446 Co435 2.039 . S
O446 C436 1.265 . S
C447 O443 1.253 . S
C447 O448 1.227 . S
O448 C447 1.227 . S
N449 Co435 2.140 . S
N449 C452 1.346 . S
N449 C453 1.345 . S
C450 C451 1.387 . S
C450 C454 1.391 . S
C451 C450 1.387 . S
C451 C452 1.369 . S
C451 H460 0.929 . S
C452 N449 1.346 . S
C452 C451 1.369 . S
C452 H455 0.928 . S
C453 N449 1.345 . S
C453 C454 1.371 . S
C453 H456 0.931 . S
C454 C450 1.391 . S
C454 C453 1.371 . S
C454 H461 0.930 . S
H455 C452 0.928 . S
H456 C453 0.931 . S
H457 C433 0.930 . S
H458 C430 0.930 . S
H459 C439 0.930 . S
H460 C451 0.929 . S
H461 C454 0.930 . S
C462 C463 1.351 . S
C462 N465 1.368 . S
C462 H467 0.931 . S
C463 C462 1.351 . S
C463 N464 1.373 . S
C463 H491 0.930 . S
N464 C463 1.373 . S
N464 C466 1.340 . S
N465 C462 1.368 . S
N465 C466 1.321 . S
N465 Co468 2.135 . S
C466 N464 1.340 . S
C466 N465 1.321 . S
C466 H490 0.930 . S
H467 C462 0.931 . S
Co468 N465 2.135 . S
Co468 N471 2.121 . S
Co468 O476 2.055 . S
Co468 O479 2.039 . S
Co468 N482 2.140 . S
C469 O470 1.227 . S
C469 O479 1.265 . S
O470 C469 1.227 . S
N471 Co468 2.121 . S
N471 C473 1.375 . S
N471 C474 1.313 . S
C472 C473 1.338 . S
C472 N475 1.377 . S
C472 H492 0.930 . S
C473 N471 1.375 . S
C473 C472 1.338 . S
C473 H477 0.931 . S
C474 N471 1.313 . S
C474 N475 1.344 . S
C474 H478 0.930 . S
N475 C472 1.377 . S
N475 C474 1.344 . S
O476 Co468 2.055 . S
O476 C480 1.253 . S
H477 C473 0.931 . S
H478 C474 0.930 . S
O479 Co468 2.039 . S
O479 C469 1.265 . S
C480 O476 1.253 . S
C480 O481 1.227 . S
O481 C480 1.227 . S
N482 Co468 2.140 . S
N482 C485 1.346 . S
N482 C486 1.345 . S
C483 C484 1.387 . S
C483 C487 1.391 . S
C484 C483 1.387 . S
C484 C485 1.369 . S
C484 H493 0.929 . S
C485 N482 1.346 . S
C485 C484 1.369 . S
C485 H488 0.928 . S
C486 N482 1.345 . S
C486 C487 1.371 . S
C486 H489 0.931 . S
C487 C483 1.391 . S
C487 C486 1.371 . S
C487 H494 0.930 . S
H488 C485 0.928 . S
H489 C486 0.931 . S
H490 C466 0.930 . S
H491 C463 0.930 . S
H492 C472 0.930 . S
H493 C484 0.929 . S
H494 C487 0.930 . S
C495 C496 1.351 . S
C495 N498 1.368 . S
C495 H500 0.931 . S
C496 C495 1.351 . S
C496 N497 1.373 . S
C496 H524 0.930 . S
N497 C496 1.373 . S
N497 C499 1.340 . S
N498 C495 1.368 . S
N498 C499 1.321 . S
N498 Co501 2.135 . S
C499 N497 1.340 . S
C499 N498 1.321 . S
C499 H523 0.930 . S
H500 C495 0.931 . S
Co501 N498 2.135 . S
Co501 N504 2.121 . S
Co501 O509 2.055 . S
Co501 O512 2.039 . S
Co501 N515 2.140 . S
C502 O503 1.227 . S
C502 O512 1.265 . S
O503 C502 1.227 . S
N504 Co501 2.121 . S
N504 C506 1.375 . S
N504 C507 1.313 . S
C505 C506 1.338 . S
C505 N508 1.377 . S
C505 H525 0.930 . S
C506 N504 1.375 . S
C506 C505 1.338 . S
C506 H510 0.931 . S
C507 N504 1.313 . S
C507 N508 1.344 . S
C507 H511 0.930 . S
N508 C505 1.377 . S
N508 C507 1.344 . S
O509 Co501 2.055 . S
O509 C513 1.253 . S
H510 C506 0.931 . S
H511 C507 0.930 . S
O512 Co501 2.039 . S
O512 C502 1.265 . S
C513 O509 1.253 . S
C513 O514 1.227 . S
O514 C513 1.227 . S
N515 Co501 2.140 . S
N515 C518 1.346 . S
N515 C519 1.345 . S
C516 C517 1.387 . S
C516 C520 1.391 . S
C517 C516 1.387 . S
C517 C518 1.369 . S
C517 H526 0.929 . S
C518 N515 1.346 . S
C518 C517 1.369 . S
C518 H521 0.928 . S
C519 N515 1.345 . S
C519 C520 1.371 . S
C519 H522 0.931 . S
C520 C516 1.391 . S
C520 C519 1.371 . S
C520 H527 0.930 . S
H521 C518 0.928 . S
H522 C519 0.931 . S
H523 C499 0.930 . S
H524 C496 0.930 . S
H525 C505 0.930 . S
H526 C517 0.929 . S
H527 C520 0.930 . S
C528 C529 1.351 . S
C528 N531 1.368 . S
C528 H533 0.931 . S
C529 C528 1.351 . S
C529 N530 1.373 . S
C529 H557 0.930 . S
N530 C529 1.373 . S
N530 C532 1.340 . S
N531 C528 1.368 . S
N531 C532 1.321 . S
N531 Co534 2.135 . S
C532 N530 1.340 . S
C532 N531 1.321 . S
C532 H556 0.930 . S
H533 C528 0.931 . S
Co534 N531 2.135 . S
Co534 N537 2.121 . S
Co534 O542 2.055 . S
Co534 O545 2.039 . S
Co534 N548 2.140 . S
C535 O536 1.227 . S
C535 O545 1.265 . S
O536 C535 1.227 . S
N537 Co534 2.121 . S
N537 C539 1.375 . S
N537 C540 1.313 . S
C538 C539 1.338 . S
C538 N541 1.377 . S
C538 H558 0.930 . S
C539 N537 1.375 . S
C539 C538 1.338 . S
C539 H543 0.931 . S
C540 N537 1.313 . S
C540 N541 1.344 . S
C540 H544 0.930 . S
N541 C538 1.377 . S
N541 C540 1.344 . S
O542 Co534 2.055 . S
O542 C546 1.253 . S
H543 C539 0.931 . S
H544 C540 0.930 . S
O545 Co534 2.039 . S
O545 C535 1.265 . S
C546 O542 1.253 . S
C546 O547 1.227 . S
O547 C546 1.227 . S
N548 Co534 2.140 . S
N548 C551 1.346 . S
N548 C552 1.345 . S
C549 C550 1.387 . S
C549 C553 1.391 . S
C550 C549 1.387 . S
C550 C551 1.369 . S
C550 H559 0.929 . S
C551 N548 1.346 . S
C551 C550 1.369 . S
C551 H554 0.928 . S
C552 N548 1.345 . S
C552 C553 1.371 . S
C552 H555 0.931 . S
C553 C549 1.391 . S
C553 C552 1.371 . S
C553 H560 0.930 . S
H554 C551 0.928 . S
H555 C552 0.931 . S
H556 C532 0.930 . S
H557 C529 0.930 . S
H558 C538 0.930 . S
H559 C550 0.929 . S
H560 C553 0.930 . S
C561 C562 1.351 . S
C561 N564 1.368 . S
C561 H566 0.931 . S
C562 C561 1.351 . S
C562 N563 1.373 . S
C562 H590 0.930 . S
N563 C562 1.373 . S
N563 C565 1.340 . S
N564 C561 1.368 . S
N564 C565 1.321 . S
N564 Co567 2.135 . S
C565 N563 1.340 . S
C565 N564 1.321 . S
C565 H589 0.930 . S
H566 C561 0.931 . S
Co567 N564 2.135 . S
Co567 N570 2.121 . S
Co567 O575 2.055 . S
Co567 O578 2.039 . S
Co567 N581 2.140 . S
C568 O569 1.227 . S
C568 O578 1.265 . S
O569 C568 1.227 . S
N570 Co567 2.121 . S
N570 C572 1.375 . S
N570 C573 1.313 . S
C571 C572 1.338 . S
C571 N574 1.377 . S
C571 H591 0.930 . S
C572 N570 1.375 . S
C572 C571 1.338 . S
C572 H576 0.931 . S
C573 N570 1.313 . S
C573 N574 1.344 . S
C573 H577 0.930 . S
N574 C571 1.377 . S
N574 C573 1.344 . S
O575 Co567 2.055 . S
O575 C579 1.253 . S
H576 C572 0.931 . S
H577 C573 0.930 . S
O578 Co567 2.039 . S
O578 C568 1.265 . S
C579 O575 1.253 . S
C579 O580 1.227 . S
O580 C579 1.227 . S
N581 Co567 2.140 . S
N581 C584 1.346 . S
N581 C585 1.345 . S
C582 C583 1.387 . S
C582 C586 1.391 . S
C583 C582 1.387 . S
C583 C584 1.369 . S
C583 H592 0.929 . S
C584 N581 1.346 . S
C584 C583 1.369 . S
C584 H587 0.928 . S
C585 N581 1.345 . S
C585 C586 1.371 . S
C585 H588 0.931 . S
C586 C582 1.391 . S
C586 C585 1.371 . S
C586 H593 0.930 . S
H587 C584 0.928 . S
H588 C585 0.931 . S
H589 C565 0.930 . S
H590 C562 0.930 . S
H591 C571 0.930 . S
H592 C583 0.929 . S
H593 C586 0.930 . S
C594 C595 1.351 . S
C594 N597 1.368 . S
C594 H599 0.931 . S
C595 C594 1.351 . S
C595 N596 1.373 . S
C595 H623 0.930 . S
N596 C595 1.373 . S
N596 C598 1.340 . S
N597 C594 1.368 . S
N597 C598 1.321 . S
N597 Co600 2.135 . S
C598 N596 1.340 . S
C598 N597 1.321 . S
C598 H622 0.930 . S
H599 C594 0.931 . S
Co600 N597 2.135 . S
Co600 N603 2.121 . S
Co600 O608 2.055 . S
Co600 O611 2.039 . S
Co600 N614 2.140 . S
C601 O602 1.227 . S
C601 O611 1.265 . S
O602 C601 1.227 . S
N603 Co600 2.121 . S
N603 C605 1.375 . S
N603 C606 1.313 . S
C604 C605 1.338 . S
C604 N607 1.377 . S
C604 H624 0.930 . S
C605 N603 1.375 . S
C605 C604 1.338 . S
C605 H609 0.931 . S
C606 N603 1.313 . S
C606 N607 1.344 . S
C606 H610 0.930 . S
N607 C604 1.377 . S
N607 C606 1.344 . S
O608 Co600 2.055 . S
O608 C612 1.253 . S
H609 C605 0.931 . S
H610 C606 0.930 . S
O611 Co600 2.039 . S
O611 C601 1.265 . S
C612 O608 1.253 . S
C612 O613 1.227 . S
O613 C612 1.227 . S
N614 Co600 2.140 . S
N614 C617 1.346 . S
N614 C618 1.345 . S
C615 C616 1.387 . S
C615 C619 1.391 . S
C616 C615 1.387 . S
C616 C617 1.369 . S
C616 H625 0.929 . S
C617 N614 1.346 . S
C617 C616 1.369 . S
C617 H620 0.928 . S
C618 N614 1.345 . S
C618 C619 1.371 . S
C618 H621 0.931 . S
C619 C615 1.391 . S
C619 C618 1.371 . S
C619 H626 0.930 . S
H620 C617 0.928 . S
H621 C618 0.931 . S
H622 C598 0.930 . S
H623 C595 0.930 . S
H624 C604 0.930 . S
H625 C616 0.929 . S
H626 C619 0.930 . S
C627 C628 1.351 . S
C627 N630 1.368 . S
C627 H632 0.931 . S
C628 C627 1.351 . S
C628 N629 1.373 . S
C628 H656 0.930 . S
N629 C628 1.373 . S
N629 C631 1.340 . S
N630 C627 1.368 . S
N630 C631 1.321 . S
N630 Co633 2.135 . S
C631 N629 1.340 . S
C631 N630 1.321 . S
C631 H655 0.930 . S
H632 C627 0.931 . S
Co633 N630 2.135 . S
Co633 N636 2.121 . S
Co633 O641 2.055 . S
Co633 O644 2.039 . S
Co633 N647 2.140 . S
C634 O635 1.227 . S
C634 O644 1.265 . S
O635 C634 1.227 . S
N636 Co633 2.121 . S
N636 C638 1.375 . S
N636 C639 1.313 . S
C637 C638 1.338 . S
C637 N640 1.377 . S
C637 H657 0.930 . S
C638 N636 1.375 . S
C638 C637 1.338 . S
C638 H642 0.931 . S
C639 N636 1.313 . S
C639 N640 1.344 . S
C639 H643 0.930 . S
N640 C637 1.377 . S
N640 C639 1.344 . S
O641 Co633 2.055 . S
O641 C645 1.253 . S
H642 C638 0.931 . S
H643 C639 0.930 . S
O644 Co633 2.039 . S
O644 C634 1.265 . S
C645 O641 1.253 . S
C645 O646 1.227 . S
O646 C645 1.227 . S
N647 Co633 2.140 . S
N647 C650 1.346 . S
N647 C651 1.345 . S
C648 C649 1.387 . S
C648 C652 1.391 . S
C649 C648 1.387 . S
C649 C650 1.369 . S
C649 H658 0.929 . S
C650 N647 1.346 . S
C650 C649 1.369 . S
C650 H653 0.928 . S
C651 N647 1.345 . S
C651 C652 1.371 . S
C651 H654 0.931 . S
C652 C648 1.391 . S
C652 C651 1.371 . S
C652 H659 0.930 . S
H653 C650 0.928 . S
H654 C651 0.931 . S
H655 C631 0.930 . S
H656 C628 0.930 . S
H657 C637 0.930 . S
H658 C649 0.929 . S
H659 C652 0.930 . S
C660 C661 1.351 . S
C660 N663 1.368 . S
C660 H665 0.931 . S
C661 C660 1.351 . S
C661 N662 1.373 . S
C661 H689 0.930 . S
N662 C661 1.373 . S
N662 C664 1.340 . S
N663 C660 1.368 . S
N663 C664 1.321 . S
N663 Co666 2.135 . S
C664 N662 1.340 . S
C664 N663 1.321 . S
C664 H688 0.930 . S
H665 C660 0.931 . S
Co666 N663 2.135 . S
Co666 N669 2.121 . S
Co666 O674 2.055 . S
Co666 O677 2.039 . S
Co666 N680 2.140 . S
C667 O668 1.227 . S
C667 O677 1.265 . S
O668 C667 1.227 . S
N669 Co666 2.121 . S
N669 C671 1.375 . S
N669 C672 1.313 . S
C670 C671 1.338 . S
C670 N673 1.377 . S
C670 H690 0.930 . S
C671 N669 1.375 . S
C671 C670 1.338 . S
C671 H675 0.931 . S
C672 N669 1.313 . S
C672 N673 1.344 . S
C672 H676 0.930 . S
N673 C670 1.377 . S
N673 C672 1.344 . S
O674 Co666 2.055 . S
O674 C678 1.253 . S
H675 C671 0.931 . S
H676 C672 0.930 . S
O677 Co666 2.039 . S
O677 C667 1.265 . S
C678 O674 1.253 . S
C678 O679 1.227 . S
O679 C678 1.227 . S
N680 Co666 2.140 . S
N680 C683 1.346 . S
N680 C684 1.345 . S
C681 C682 1.387 . S
C681 C685 1.391 . S
C682 C681 1.387 . S
C682 C683 1.369 . S
C682 H691 0.929 . S
C683 N680 1.346 . S
C683 C682 1.369 . S
C683 H686 0.928 . S
C684 N680 1.345 . S
C684 C685 1.371 . S
C684 H687 0.931 . S
C685 C681 1.391 . S
C685 C684 1.371 . S
C685 H692 0.930 . S
H686 C683 0.928 . S
H687 C684 0.931 . S
H688 C664 0.930 . S
H689 C661 0.930 . S
H690 C670 0.930 . S
H691 C682 0.929 . S
H692 C685 0.930 . S
C693 C694 1.351 . S
C693 N696 1.368 . S
C693 H698 0.931 . S
C694 C693 1.351 . S
C694 N695 1.373 . S
C694 H722 0.930 . S
N695 C694 1.373 . S
N695 C697 1.340 . S
N696 C693 1.368 . S
N696 C697 1.321 . S
N696 Co699 2.135 . S
C697 N695 1.340 . S
C697 N696 1.321 . S
C697 H721 0.930 . S
H698 C693 0.931 . S
Co699 N696 2.135 . S
Co699 N702 2.121 . S
Co699 O707 2.055 . S
Co699 O710 2.039 . S
Co699 N713 2.140 . S
C700 O701 1.227 . S
C700 O710 1.265 . S
O701 C700 1.227 . S
N702 Co699 2.121 . S
N702 C704 1.375 . S
N702 C705 1.313 . S
C703 C704 1.338 . S
C703 N706 1.377 . S
C703 H723 0.930 . S
C704 N702 1.375 . S
C704 C703 1.338 . S
C704 H708 0.931 . S
C705 N702 1.313 . S
C705 N706 1.344 . S
C705 H709 0.930 . S
N706 C703 1.377 . S
N706 C705 1.344 . S
O707 Co699 2.055 . S
O707 C711 1.253 . S
H708 C704 0.931 . S
H709 C705 0.930 . S
O710 Co699 2.039 . S
O710 C700 1.265 . S
C711 O707 1.253 . S
C711 O712 1.227 . S
O712 C711 1.227 . S
N713 Co699 2.140 . S
N713 C716 1.346 . S
N713 C717 1.345 . S
C714 C715 1.387 . S
C714 C718 1.391 . S
C715 C714 1.387 . S
C715 C716 1.369 . S
C715 H724 0.929 . S
C716 N713 1.346 . S
C716 C715 1.369 . S
C716 H719 0.928 . S
C717 N713 1.345 . S
C717 C718 1.371 . S
C717 H720 0.931 . S
C718 C714 1.391 . S
C718 C717 1.371 . S
C718 H725 0.930 . S
H719 C716 0.928 . S
H720 C717 0.931 . S
H721 C697 0.930 . S
H722 C694 0.930 . S
H723 C703 0.930 . S
H724 C715 0.929 . S
H725 C718 0.930 . S
C726 C727 1.351 . S
C726 N729 1.368 . S
C726 H731 0.931 . S
C727 C726 1.351 . S
C727 N728 1.373 . S
C727 H755 0.930 . S
N728 C727 1.373 . S
N728 C730 1.340 . S
N729 C726 1.368 . S
N729 C730 1.321 . S
N729 Co732 2.135 . S
C730 N728 1.340 . S
C730 N729 1.321 . S
C730 H754 0.930 . S
H731 C726 0.931 . S
Co732 N729 2.135 . S
Co732 N735 2.121 . S
Co732 O740 2.055 . S
Co732 O743 2.039 . S
Co732 N746 2.140 . S
C733 O734 1.227 . S
C733 O743 1.265 . S
O734 C733 1.227 . S
N735 Co732 2.121 . S
N735 C737 1.375 . S
N735 C738 1.313 . S
C736 C737 1.338 . S
C736 N739 1.377 . S
C736 H756 0.930 . S
C737 N735 1.375 . S
C737 C736 1.338 . S
C737 H741 0.931 . S
C738 N735 1.313 . S
C738 N739 1.344 . S
C738 H742 0.930 . S
N739 C736 1.377 . S
N739 C738 1.344 . S
O740 Co732 2.055 . S
O740 C744 1.253 . S
H741 C737 0.931 . S
H742 C738 0.930 . S
O743 Co732 2.039 . S
O743 C733 1.265 . S
C744 O740 1.253 . S
C744 O745 1.227 . S
O745 C744 1.227 . S
N746 Co732 2.140 . S
N746 C749 1.346 . S
N746 C750 1.345 . S
C747 C748 1.387 . S
C747 C751 1.391 . S
C748 C747 1.387 . S
C748 C749 1.369 . S
C748 H757 0.929 . S
C749 N746 1.346 . S
C749 C748 1.369 . S
C749 H752 0.928 . S
C750 N746 1.345 . S
C750 C751 1.371 . S
C750 H753 0.931 . S
C751 C747 1.391 . S
C751 C750 1.371 . S
C751 H758 0.930 . S
H752 C749 0.928 . S
H753 C750 0.931 . S
H754 C730 0.930 . S
H755 C727 0.930 . S
H756 C736 0.930 . S
H757 C748 0.929 . S
H758 C751 0.930 . S
C759 C760 1.351 . S
C759 N762 1.368 . S
C759 H764 0.931 . S
C760 C759 1.351 . S
C760 N761 1.373 . S
C760 H788 0.930 . S
N761 C760 1.373 . S
N761 C763 1.340 . S
N762 C759 1.368 . S
N762 C763 1.321 . S
N762 Co765 2.135 . S
C763 N761 1.340 . S
C763 N762 1.321 . S
C763 H787 0.930 . S
H764 C759 0.931 . S
Co765 N762 2.135 . S
Co765 N768 2.121 . S
Co765 O773 2.055 . S
Co765 O776 2.039 . S
Co765 N779 2.140 . S
C766 O767 1.227 . S
C766 O776 1.265 . S
O767 C766 1.227 . S
N768 Co765 2.121 . S
N768 C770 1.375 . S
N768 C771 1.313 . S
C769 C770 1.338 . S
C769 N772 1.377 . S
C769 H789 0.930 . S
C770 N768 1.375 . S
C770 C769 1.338 . S
C770 H774 0.931 . S
C771 N768 1.313 . S
C771 N772 1.344 . S
C771 H775 0.930 . S
N772 C769 1.377 . S
N772 C771 1.344 . S
O773 Co765 2.055 . S
O773 C777 1.253 . S
H774 C770 0.931 . S
H775 C771 0.930 . S
O776 Co765 2.039 . S
O776 C766 1.265 . S
C777 O773 1.253 . S
C777 O778 1.227 . S
O778 C777 1.227 . S
N779 Co765 2.140 . S
N779 C782 1.346 . S
N779 C783 1.345 . S
C780 C781 1.387 . S
C780 C784 1.391 . S
C781 C780 1.387 . S
C781 C782 1.369 . S
C781 H790 0.929 . S
C782 N779 1.346 . S
C782 C781 1.369 . S
C782 H785 0.928 . S
C783 N779 1.345 . S
C783 C784 1.371 . S
C783 H786 0.931 . S
C784 C780 1.391 . S
C784 C783 1.371 . S
C784 H791 0.930 . S
H785 C782 0.928 . S
H786 C783 0.931 . S
H787 C763 0.930 . S
H788 C760 0.930 . S
H789 C769 0.930 . S
H790 C781 0.929 . S
H791 C784 0.930 . S
C792 C793 1.351 . S
C792 N795 1.368 . S
C792 H797 0.931 . S
C793 C792 1.351 . S
C793 N794 1.373 . S
C793 H821 0.930 . S
N794 C793 1.373 . S
N794 C796 1.340 . S
N795 C792 1.368 . S
N795 C796 1.321 . S
N795 Co798 2.135 . S
C796 N794 1.340 . S
C796 N795 1.321 . S
C796 H820 0.930 . S
H797 C792 0.931 . S
Co798 N795 2.135 . S
Co798 N801 2.121 . S
Co798 O806 2.055 . S
Co798 O809 2.039 . S
Co798 N812 2.140 . S
C799 O800 1.227 . S
C799 O809 1.265 . S
O800 C799 1.227 . S
N801 Co798 2.121 . S
N801 C803 1.375 . S
N801 C804 1.313 . S
C802 C803 1.338 . S
C802 N805 1.377 . S
C802 H822 0.930 . S
C803 N801 1.375 . S
C803 C802 1.338 . S
C803 H807 0.931 . S
C804 N801 1.313 . S
C804 N805 1.344 . S
C804 H808 0.930 . S
N805 C802 1.377 . S
N805 C804 1.344 . S
O806 Co798 2.055 . S
O806 C810 1.253 . S
H807 C803 0.931 . S
H808 C804 0.930 . S
O809 Co798 2.039 . S
O809 C799 1.265 . S
C810 O806 1.253 . S
C810 O811 1.227 . S
O811 C810 1.227 . S
N812 Co798 2.140 . S
N812 C815 1.346 . S
N812 C816 1.345 . S
C813 C814 1.387 . S
C813 C817 1.391 . S
C814 C813 1.387 . S
C814 C815 1.369 . S
C814 H823 0.929 . S
C815 N812 1.346 . S
C815 C814 1.369 . S
C815 H818 0.928 . S
C816 N812 1.345 . S
C816 C817 1.371 . S
C816 H819 0.931 . S
C817 C813 1.391 . S
C817 C816 1.371 . S
C817 H824 0.930 . S
H818 C815 0.928 . S
H819 C816 0.931 . S
H820 C796 0.930 . S
H821 C793 0.930 . S
H822 C802 0.930 . S
H823 C814 0.929 . S
H824 C817 0.930 . S
C825 C826 1.351 . S
C825 N828 1.368 . S
C825 H830 0.931 . S
C826 C825 1.351 . S
C826 N827 1.373 . S
C826 H854 0.930 . S
N827 C826 1.373 . S
N827 C829 1.340 . S
N828 C825 1.368 . S
N828 C829 1.321 . S
N828 Co831 2.135 . S
C829 N827 1.340 . S
C829 N828 1.321 . S
C829 H853 0.930 . S
H830 C825 0.931 . S
Co831 N828 2.135 . S
Co831 N834 2.121 . S
Co831 O839 2.055 . S
Co831 O842 2.039 . S
Co831 N845 2.140 . S
C832 O833 1.227 . S
C832 O842 1.265 . S
O833 C832 1.227 . S
N834 Co831 2.121 . S
N834 C836 1.375 . S
N834 C837 1.313 . S
C835 C836 1.338 . S
C835 N838 1.377 . S
C835 H855 0.930 . S
C836 N834 1.375 . S
C836 C835 1.338 . S
C836 H840 0.931 . S
C837 N834 1.313 . S
C837 N838 1.344 . S
C837 H841 0.930 . S
N838 C835 1.377 . S
N838 C837 1.344 . S
O839 Co831 2.055 . S
O839 C843 1.253 . S
H840 C836 0.931 . S
H841 C837 0.930 . S
O842 Co831 2.039 . S
O842 C832 1.265 . S
C843 O839 1.253 . S
C843 O844 1.227 . S
O844 C843 1.227 . S
N845 Co831 2.140 . S
N845 C848 1.346 . S
N845 C849 1.345 . S
C846 C847 1.387 . S
C846 C850 1.391 . S
C847 C846 1.387 . S
C847 C848 1.369 . S
C847 H856 0.929 . S
C848 N845 1.346 . S
C848 C847 1.369 . S
C848 H851 0.928 . S
C849 N845 1.345 . S
C849 C850 1.371 . S
C849 H852 0.931 . S
C850 C846 1.391 . S
C850 C849 1.371 . S
C850 H857 0.930 . S
H851 C848 0.928 . S
H852 C849 0.931 . S
H853 C829 0.930 . S
H854 C826 0.930 . S
H855 C835 0.930 . S
H856 C847 0.929 . S
H857 C850 0.930 . S
C858 C859 1.351 . S
C858 N861 1.368 . S
C858 H863 0.931 . S
C859 C858 1.351 . S
C859 N860 1.373 . S
C859 H887 0.930 . S
N860 C859 1.373 . S
N860 C862 1.340 . S
N861 C858 1.368 . S
N861 C862 1.321 . S
N861 Co864 2.135 . S
C862 N860 1.340 . S
C862 N861 1.321 . S
C862 H886 0.930 . S
H863 C858 0.931 . S
Co864 N861 2.135 . S
Co864 N867 2.121 . S
Co864 O872 2.055 . S
Co864 O875 2.039 . S
Co864 N878 2.140 . S
C865 O866 1.227 . S
C865 O875 1.265 . S
O866 C865 1.227 . S
N867 Co864 2.121 . S
N867 C869 1.375 . S
N867 C870 1.313 . S
C868 C869 1.338 . S
C868 N871 1.377 . S
C868 H888 0.930 . S
C869 N867 1.375 . S
C869 C868 1.338 . S
C869 H873 0.931 . S
C870 N867 1.313 . S
C870 N871 1.344 . S
C870 H874 0.930 . S
N871 C868 1.377 . S
N871 C870 1.344 . S
O872 Co864 2.055 . S
O872 C876 1.253 . S
H873 C869 0.931 . S
H874 C870 0.930 . S
O875 Co864 2.039 . S
O875 C865 1.265 . S
C876 O872 1.253 . S
C876 O877 1.227 . S
O877 C876 1.227 . S
N878 Co864 2.140 . S
N878 C881 1.346 . S
N878 C882 1.345 . S
C879 C880 1.387 . S
C879 C883 1.391 . S
C880 C879 1.387 . S
C880 C881 1.369 . S
C880 H889 0.929 . S
C881 N878 1.346 . S
C881 C880 1.369 . S
C881 H884 0.928 . S
C882 N878 1.345 . S
C882 C883 1.371 . S
C882 H885 0.931 . S
C883 C879 1.391 . S
C883 C882 1.371 . S
C883 H890 0.930 . S
H884 C881 0.928 . S
H885 C882 0.931 . S
H886 C862 0.930 . S
H887 C859 0.930 . S
H888 C868 0.930 . S
H889 C880 0.929 . S
H890 C883 0.930 . S
C891 C892 1.351 . S
C891 N894 1.368 . S
C891 H896 0.931 . S
C892 C891 1.351 . S
C892 N893 1.373 . S
C892 H920 0.930 . S
N893 C892 1.373 . S
N893 C895 1.340 . S
N894 C891 1.368 . S
N894 C895 1.321 . S
N894 Co897 2.135 . S
C895 N893 1.340 . S
C895 N894 1.321 . S
C895 H919 0.930 . S
H896 C891 0.931 . S
Co897 N894 2.135 . S
Co897 N900 2.121 . S
Co897 O905 2.055 . S
Co897 O908 2.039 . S
Co897 N911 2.140 . S
C898 O899 1.227 . S
C898 O908 1.265 . S
O899 C898 1.227 . S
N900 Co897 2.121 . S
N900 C902 1.375 . S
N900 C903 1.313 . S
C901 C902 1.338 . S
C901 N904 1.377 . S
C901 H921 0.930 . S
C902 N900 1.375 . S
C902 C901 1.338 . S
C902 H906 0.931 . S
C903 N900 1.313 . S
C903 N904 1.344 . S
C903 H907 0.930 . S
N904 C901 1.377 . S
N904 C903 1.344 . S
O905 Co897 2.055 . S
O905 C909 1.253 . S
H906 C902 0.931 . S
H907 C903 0.930 . S
O908 Co897 2.039 . S
O908 C898 1.265 . S
C909 O905 1.253 . S
C909 O910 1.227 . S
O910 C909 1.227 . S
N911 Co897 2.140 . S
N911 C914 1.346 . S
N911 C915 1.345 . S
C912 C913 1.387 . S
C912 C916 1.391 . S
C913 C912 1.387 . S
C913 C914 1.369 . S
C913 H922 0.929 . S
C914 N911 1.346 . S
C914 C913 1.369 . S
C914 H917 0.928 . S
C915 N911 1.345 . S
C915 C916 1.371 . S
C915 H918 0.931 . S
C916 C912 1.391 . S
C916 C915 1.371 . S
C916 H923 0.930 . S
H917 C914 0.928 . S
H918 C915 0.931 . S
H919 C895 0.930 . S
H920 C892 0.930 . S
H921 C901 0.930 . S
H922 C913 0.929 . S
H923 C916 0.930 . S
C924 C925 1.351 . S
C924 N927 1.368 . S
C924 H929 0.931 . S
C925 C924 1.351 . S
C925 N926 1.373 . S
C925 H953 0.930 . S
N926 C925 1.373 . S
N926 C928 1.340 . S
N927 C924 1.368 . S
N927 C928 1.321 . S
N927 Co930 2.135 . S
C928 N926 1.340 . S
C928 N927 1.321 . S
C928 H952 0.930 . S
H929 C924 0.931 . S
Co930 N927 2.135 . S
Co930 N933 2.121 . S
Co930 O938 2.055 . S
Co930 O941 2.039 . S
Co930 N944 2.140 . S
C931 O932 1.227 . S
C931 O941 1.265 . S
O932 C931 1.227 . S
N933 Co930 2.121 . S
N933 C935 1.375 . S
N933 C936 1.313 . S
C934 C935 1.338 . S
C934 N937 1.377 . S
C934 H954 0.930 . S
C935 N933 1.375 . S
C935 C934 1.338 . S
C935 H939 0.931 . S
C936 N933 1.313 . S
C936 N937 1.344 . S
C936 H940 0.930 . S
N937 C934 1.377 . S
N937 C936 1.344 . S
O938 Co930 2.055 . S
O938 C942 1.253 . S
H939 C935 0.931 . S
H940 C936 0.930 . S
O941 Co930 2.039 . S
O941 C931 1.265 . S
C942 O938 1.253 . S
C942 O943 1.227 . S
O943 C942 1.227 . S
N944 Co930 2.140 . S
N944 C947 1.346 . S
N944 C948 1.345 . S
C945 C946 1.387 . S
C945 C949 1.391 . S
C946 C945 1.387 . S
C946 C947 1.369 . S
C946 H955 0.929 . S
C947 N944 1.346 . S
C947 C946 1.369 . S
C947 H950 0.928 . S
C948 N944 1.345 . S
C948 C949 1.371 . S
C948 H951 0.931 . S
C949 C945 1.391 . S
C949 C948 1.371 . S
C949 H956 0.930 . S
H950 C947 0.928 . S
H951 C948 0.931 . S
H952 C928 0.930 . S
H953 C925 0.930 . S
H954 C934 0.930 . S
H955 C946 0.929 . S
H956 C949 0.930 . S
C957 C958 1.351 . S
C957 N960 1.368 . S
C957 H962 0.931 . S
C958 C957 1.351 . S
C958 N959 1.373 . S
C958 H986 0.930 . S
N959 C958 1.373 . S
N959 C961 1.340 . S
N960 C957 1.368 . S
N960 C961 1.321 . S
N960 Co963 2.135 . S
C961 N959 1.340 . S
C961 N960 1.321 . S
C961 H985 0.930 . S
H962 C957 0.931 . S
Co963 N960 2.135 . S
Co963 N966 2.121 . S
Co963 O971 2.055 . S
Co963 O974 2.039 . S
Co963 N977 2.140 . S
C964 O965 1.227 . S
C964 O974 1.265 . S
O965 C964 1.227 . S
N966 Co963 2.121 . S
N966 C968 1.375 . S
N966 C969 1.313 . S
C967 C968 1.338 . S
C967 N970 1.377 . S
C967 H987 0.930 . S
C968 N966 1.375 . S
C968 C967 1.338 . S
C968 H972 0.931 . S
C969 N966 1.313 . S
C969 N970 1.344 . S
C969 H973 0.930 . S
N970 C967 1.377 . S
N970 C969 1.344 . S
O971 Co963 2.055 . S
O971 C975 1.253 . S
H972 C968 0.931 . S
H973 C969 0.930 . S
O974 Co963 2.039 . S
O974 C964 1.265 . S
C975 O971 1.253 . S
C975 O976 1.227 . S
O976 C975 1.227 . S
N977 Co963 2.140 . S
N977 C980 1.346 . S
N977 C981 1.345 . S
C978 C979 1.387 . S
C978 C982 1.391 . S
C979 C978 1.387 . S
C979 C980 1.369 . S
C979 H988 0.929 . S
C980 N977 1.346 . S
C980 C979 1.369 . S
C980 H983 0.928 . S
C981 N977 1.345 . S
C981 C982 1.371 . S
C981 H984 0.931 . S
C982 C978 1.391 . S
C982 C981 1.371 . S
C982 H989 0.930 . S
H983 C980 0.928 . S
H984 C981 0.931 . S
H985 C961 0.930 . S
H986 C958 0.930 . S
H987 C967 0.930 . S
H988 C979 0.929 . S
H989 C982 0.930 . S
C990 C991 1.351 . S
C990 N993 1.368 . S
C990 H995 0.931 . S
C991 C990 1.351 . S
C991 N992 1.373 . S
C991 H1019 0.930 . S
N992 C991 1.373 . S
N992 C994 1.340 . S
N993 C990 1.368 . S
N993 C994 1.321 . S
N993 Co996 2.135 . S
C994 N992 1.340 . S
C994 N993 1.321 . S
C994 H1018 0.930 . S
H995 C990 0.931 . S
Co996 N993 2.135 . S
Co996 N999 2.121 . S
Co996 O1004 2.055 . S
Co996 O1007 2.039 . S
Co996 N1010 2.140 . S
C997 O998 1.227 . S
C997 O1007 1.265 . S
O998 C997 1.227 . S
N999 Co996 2.121 . S
N999 C1001 1.375 . S
N999 C1002 1.313 . S
C1000 C1001 1.338 . S
C1000 N1003 1.377 . S
C1000 H1020 0.930 . S
C1001 N999 1.375 . S
C1001 C1000 1.338 . S
C1001 H1005 0.931 . S
C1002 N999 1.313 . S
C1002 N1003 1.344 . S
C1002 H1006 0.930 . S
N1003 C1000 1.377 . S
N1003 C1002 1.344 . S
O1004 Co996 2.055 . S
O1004 C1008 1.253 . S
H1005 C1001 0.931 . S
H1006 C1002 0.930 . S
O1007 Co996 2.039 . S
O1007 C997 1.265 . S
C1008 O1004 1.253 . S
C1008 O1009 1.227 . S
O1009 C1008 1.227 . S
N1010 Co996 2.140 . S
N1010 C1013 1.346 . S
N1010 C1014 1.345 . S
C1011 C1012 1.387 . S
C1011 C1015 1.391 . S
C1012 C1011 1.387 . S
C1012 C1013 1.369 . S
C1012 H1021 0.929 . S
C1013 N1010 1.346 . S
C1013 C1012 1.369 . S
C1013 H1016 0.928 . S
C1014 N1010 1.345 . S
C1014 C1015 1.371 . S
C1014 H1017 0.931 . S
C1015 C1011 1.391 . S
C1015 C1014 1.371 . S
C1015 H1022 0.930 . S
H1016 C1013 0.928 . S
H1017 C1014 0.931 . S
H1018 C994 0.930 . S
H1019 C991 0.930 . S
H1020 C1000 0.930 . S
H1021 C1012 0.929 . S
H1022 C1015 0.930 . S
C1023 C1024 1.351 . S
C1023 N1026 1.368 . S
C1023 H1028 0.931 . S
C1024 C1023 1.351 . S
C1024 N1025 1.373 . S
C1024 H1052 0.930 . S
N1025 C1024 1.373 . S
N1025 C1027 1.340 . S
N1026 C1023 1.368 . S
N1026 C1027 1.321 . S
N1026 Co1029 2.135 . S
C1027 N1025 1.340 . S
C1027 N1026 1.321 . S
C1027 H1051 0.930 . S
H1028 C1023 0.931 . S
Co1029 N1026 2.135 . S
Co1029 N1032 2.121 . S
Co1029 O1037 2.055 . S
Co1029 O1040 2.039 . S
Co1029 N1043 2.140 . S
C1030 O1031 1.227 . S
C1030 O1040 1.265 . S
O1031 C1030 1.227 . S
N1032 Co1029 2.121 . S
N1032 C1034 1.375 . S
N1032 C1035 1.313 . S
C1033 C1034 1.338 . S
C1033 N1036 1.377 . S
C1033 H1053 0.930 . S
C1034 N1032 1.375 . S
C1034 C1033 1.338 . S
C1034 H1038 0.931 . S
C1035 N1032 1.313 . S
C1035 N1036 1.344 . S
C1035 H1039 0.930 . S
N1036 C1033 1.377 . S
N1036 C1035 1.344 . S
O1037 Co1029 2.055 . S
O1037 C1041 1.253 . S
H1038 C1034 0.931 . S
H1039 C1035 0.930 . S
O1040 Co1029 2.039 . S
O1040 C1030 1.265 . S
C1041 O1037 1.253 . S
C1041 O1042 1.227 . S
O1042 C1041 1.227 . S
N1043 Co1029 2.140 . S
N1043 C1046 1.346 . S
N1043 C1047 1.345 . S
C1044 C1045 1.387 . S
C1044 C1048 1.391 . S
C1045 C1044 1.387 . S
C1045 C1046 1.369 . S
C1045 H1054 0.929 . S
C1046 N1043 1.346 . S
C1046 C1045 1.369 . S
C1046 H1049 0.928 . S
C1047 N1043 1.345 . S
C1047 C1048 1.371 . S
C1047 H1050 0.931 . S
C1048 C1044 1.391 . S
C1048 C1047 1.371 . S
C1048 H1055 0.930 . S
H1049 C1046 0.928 . S
H1050 C1047 0.931 . S
H1051 C1027 0.930 . S
H1052 C1024 0.930 . S
H1053 C1033 0.930 . S
H1054 C1045 0.929 . S
H1055 C1048 0.930 . S
C1056 C1057 1.351 . S
C1056 N1059 1.368 . S
C1056 H1061 0.931 . S
C1057 C1056 1.351 . S
C1057 N1058 1.373 . S
C1057 H1085 0.930 . S
N1058 C1057 1.373 . S
N1058 C1060 1.340 . S
N1059 C1056 1.368 . S
N1059 C1060 1.321 . S
N1059 Co1062 2.135 . S
C1060 N1058 1.340 . S
C1060 N1059 1.321 . S
C1060 H1084 0.930 . S
H1061 C1056 0.931 . S
Co1062 N1059 2.135 . S
Co1062 N1065 2.121 . S
Co1062 O1070 2.055 . S
Co1062 O1073 2.039 . S
Co1062 N1076 2.140 . S
C1063 O1064 1.227 . S
C1063 O1073 1.265 . S
O1064 C1063 1.227 . S
N1065 Co1062 2.121 . S
N1065 C1067 1.375 . S
N1065 C1068 1.313 . S
C1066 C1067 1.338 . S
C1066 N1069 1.377 . S
C1066 H1086 0.930 . S
C1067 N1065 1.375 . S
C1067 C1066 1.338 . S
C1067 H1071 0.931 . S
C1068 N1065 1.313 . S
C1068 N1069 1.344 . S
C1068 H1072 0.930 . S
N1069 C1066 1.377 . S
N1069 C1068 1.344 . S
O1070 Co1062 2.055 . S
O1070 C1074 1.253 . S
H1071 C1067 0.931 . S
H1072 C1068 0.930 . S
O1073 Co1062 2.039 . S
O1073 C1063 1.265 . S
C1074 O1070 1.253 . S
C1074 O1075 1.227 . S
O1075 C1074 1.227 . S
N1076 Co1062 2.140 . S
N1076 C1079 1.346 . S
N1076 C1080 1.345 . S
C1077 C1078 1.387 . S
C1077 C1081 1.391 . S
C1078 C1077 1.387 . S
C1078 C1079 1.369 . S
C1078 H1087 0.929 . S
C1079 N1076 1.346 . S
C1079 C1078 1.369 . S
C1079 H1082 0.928 . S
C1080 N1076 1.345 . S
C1080 C1081 1.371 . S
C1080 H1083 0.931 . S
C1081 C1077 1.391 . S
C1081 C1080 1.371 . S
C1081 H1088 0.930 . S
H1082 C1079 0.928 . S
H1083 C1080 0.931 . S
H1084 C1060 0.930 . S
H1085 C1057 0.930 . S
H1086 C1066 0.930 . S
H1087 C1078 0.929 . S
H1088 C1081 0.930 . S
C1089 C1090 1.351 . S
C1089 N1092 1.368 . S
C1089 H1094 0.931 . S
C1090 C1089 1.351 . S
C1090 N1091 1.373 . S
C1090 H1118 0.930 . S
N1091 C1090 1.373 . S
N1091 C1093 1.340 . S
N1092 C1089 1.368 . S
N1092 C1093 1.321 . S
N1092 Co1095 2.135 . S
C1093 N1091 1.340 . S
C1093 N1092 1.321 . S
C1093 H1117 0.930 . S
H1094 C1089 0.931 . S
Co1095 N1092 2.135 . S
Co1095 N1098 2.121 . S
Co1095 O1103 2.055 . S
Co1095 O1106 2.039 . S
Co1095 N1109 2.140 . S
C1096 O1097 1.227 . S
C1096 O1106 1.265 . S
O1097 C1096 1.227 . S
N1098 Co1095 2.121 . S
N1098 C1100 1.375 . S
N1098 C1101 1.313 . S
C1099 C1100 1.338 . S
C1099 N1102 1.377 . S
C1099 H1119 0.930 . S
C1100 N1098 1.375 . S
C1100 C1099 1.338 . S
C1100 H1104 0.931 . S
C1101 N1098 1.313 . S
C1101 N1102 1.344 . S
C1101 H1105 0.930 . S
N1102 C1099 1.377 . S
N1102 C1101 1.344 . S
O1103 Co1095 2.055 . S
O1103 C1107 1.253 . S
H1104 C1100 0.931 . S
H1105 C1101 0.930 . S
O1106 Co1095 2.039 . S
O1106 C1096 1.265 . S
C1107 O1103 1.253 . S
C1107 O1108 1.227 . S
O1108 C1107 1.227 . S
N1109 Co1095 2.140 . S
N1109 C1112 1.346 . S
N1109 C1113 1.345 . S
C1110 C1111 1.387 . S
C1110 C1114 1.391 . S
C1111 C1110 1.387 . S
C1111 C1112 1.369 . S
C1111 H1120 0.929 . S
C1112 N1109 1.346 . S
C1112 C1111 1.369 . S
C1112 H1115 0.928 . S
C1113 N1109 1.345 . S
C1113 C1114 1.371 . S
C1113 H1116 0.931 . S
C1114 C1110 1.391 . S
C1114 C1113 1.371 . S
C1114 H1121 0.930 . S
H1115 C1112 0.928 . S
H1116 C1113 0.931 . S
H1117 C1093 0.930 . S
H1118 C1090 0.930 . S
H1119 C1099 0.930 . S
H1120 C1111 0.929 . S
H1121 C1114 0.930 . S
C1122 C1123 1.351 . S
C1122 N1125 1.368 . S
C1122 H1127 0.931 . S
C1123 C1122 1.351 . S
C1123 N1124 1.373 . S
C1123 H1151 0.930 . S
N1124 C1123 1.373 . S
N1124 C1126 1.340 . S
N1125 C1122 1.368 . S
N1125 C1126 1.321 . S
N1125 Co1128 2.135 . S
C1126 N1124 1.340 . S
C1126 N1125 1.321 . S
C1126 H1150 0.930 . S
H1127 C1122 0.931 . S
Co1128 N1125 2.135 . S
Co1128 N1131 2.121 . S
Co1128 O1136 2.055 . S
Co1128 O1139 2.039 . S
Co1128 N1142 2.140 . S
C1129 O1130 1.227 . S
C1129 O1139 1.265 . S
O1130 C1129 1.227 . S
N1131 Co1128 2.121 . S
N1131 C1133 1.375 . S
N1131 C1134 1.313 . S
C1132 C1133 1.338 . S
C1132 N1135 1.377 . S
C1132 H1152 0.930 . S
C1133 N1131 1.375 . S
C1133 C1132 1.338 . S
C1133 H1137 0.931 . S
C1134 N1131 1.313 . S
C1134 N1135 1.344 . S
C1134 H1138 0.930 . S
N1135 C1132 1.377 . S
N1135 C1134 1.344 . S
O1136 Co1128 2.055 . S
O1136 C1140 1.253 . S
H1137 C1133 0.931 . S
H1138 C1134 0.930 . S
O1139 Co1128 2.039 . S
O1139 C1129 1.265 . S
C1140 O1136 1.253 . S
C1140 O1141 1.227 . S
O1141 C1140 1.227 . S
N1142 Co1128 2.140 . S
N1142 C1145 1.346 . S
N1142 C1146 1.345 . S
C1143 C1144 1.387 . S
C1143 C1147 1.391 . S
C1144 C1143 1.387 . S
C1144 C1145 1.369 . S
C1144 H1153 0.929 . S
C1145 N1142 1.346 . S
C1145 C1144 1.369 . S
C1145 H1148 0.928 . S
C1146 N1142 1.345 . S
C1146 C1147 1.371 . S
C1146 H1149 0.931 . S
C1147 C1143 1.391 . S
C1147 C1146 1.371 . S
C1147 H1154 0.930 . S
H1148 C1145 0.928 . S
H1149 C1146 0.931 . S
H1150 C1126 0.930 . S
H1151 C1123 0.930 . S
H1152 C1132 0.930 . S
H1153 C1144 0.929 . S
H1154 C1147 0.930 . S
C1155 C1156 1.351 . S
C1155 N1158 1.368 . S
C1155 H1160 0.931 . S
C1156 C1155 1.351 . S
C1156 N1157 1.373 . S
C1156 H1184 0.930 . S
N1157 C1156 1.373 . S
N1157 C1159 1.340 . S
N1158 C1155 1.368 . S
N1158 C1159 1.321 . S
N1158 Co1161 2.135 . S
C1159 N1157 1.340 . S
C1159 N1158 1.321 . S
C1159 H1183 0.930 . S
H1160 C1155 0.931 . S
Co1161 N1158 2.135 . S
Co1161 N1164 2.121 . S
Co1161 O1169 2.055 . S
Co1161 O1172 2.039 . S
Co1161 N1175 2.140 . S
C1162 O1163 1.227 . S
C1162 O1172 1.265 . S
O1163 C1162 1.227 . S
N1164 Co1161 2.121 . S
N1164 C1166 1.375 . S
N1164 C1167 1.313 . S
C1165 C1166 1.338 . S
C1165 N1168 1.377 . S
C1165 H1185 0.930 . S
C1166 N1164 1.375 . S
C1166 C1165 1.338 . S
C1166 H1170 0.931 . S
C1167 N1164 1.313 . S
C1167 N1168 1.344 . S
C1167 H1171 0.930 . S
N1168 C1165 1.377 . S
N1168 C1167 1.344 . S
O1169 Co1161 2.055 . S
O1169 C1173 1.253 . S
H1170 C1166 0.931 . S
H1171 C1167 0.930 . S
O1172 Co1161 2.039 . S
O1172 C1162 1.265 . S
C1173 O1169 1.253 . S
C1173 O1174 1.227 . S
O1174 C1173 1.227 . S
N1175 Co1161 2.140 . S
N1175 C1178 1.346 . S
N1175 C1179 1.345 . S
C1176 C1177 1.387 . S
C1176 C1180 1.391 . S
C1177 C1176 1.387 . S
C1177 C1178 1.369 . S
C1177 H1186 0.929 . S
C1178 N1175 1.346 . S
C1178 C1177 1.369 . S
C1178 H1181 0.928 . S
C1179 N1175 1.345 . S
C1179 C1180 1.371 . S
C1179 H1182 0.931 . S
C1180 C1176 1.391 . S
C1180 C1179 1.371 . S
C1180 H1187 0.930 . S
H1181 C1178 0.928 . S
H1182 C1179 0.931 . S
H1183 C1159 0.930 . S
H1184 C1156 0.930 . S
H1185 C1165 0.930 . S
H1186 C1177 0.929 . S
H1187 C1180 0.930 . S
C1188 C1189 1.351 . S
C1188 N1191 1.368 . S
C1188 H1193 0.931 . S
C1189 C1188 1.351 . S
C1189 N1190 1.373 . S
C1189 H1217 0.930 . S
N1190 C1189 1.373 . S
N1190 C1192 1.340 . S
N1191 C1188 1.368 . S
N1191 C1192 1.321 . S
N1191 Co1194 2.135 . S
C1192 N1190 1.340 . S
C1192 N1191 1.321 . S
C1192 H1216 0.930 . S
H1193 C1188 0.931 . S
Co1194 N1191 2.135 . S
Co1194 N1197 2.121 . S
Co1194 O1202 2.055 . S
Co1194 O1205 2.039 . S
Co1194 N1208 2.140 . S
C1195 O1196 1.227 . S
C1195 O1205 1.265 . S
O1196 C1195 1.227 . S
N1197 Co1194 2.121 . S
N1197 C1199 1.375 . S
N1197 C1200 1.313 . S
C1198 C1199 1.338 . S
C1198 N1201 1.377 . S
C1198 H1218 0.930 . S
C1199 N1197 1.375 . S
C1199 C1198 1.338 . S
C1199 H1203 0.931 . S
C1200 N1197 1.313 . S
C1200 N1201 1.344 . S
C1200 H1204 0.930 . S
N1201 C1198 1.377 . S
N1201 C1200 1.344 . S
O1202 Co1194 2.055 . S
O1202 C1206 1.253 . S
H1203 C1199 0.931 . S
H1204 C1200 0.930 . S
O1205 Co1194 2.039 . S
O1205 C1195 1.265 . S
C1206 O1202 1.253 . S
C1206 O1207 1.227 . S
O1207 C1206 1.227 . S
N1208 Co1194 2.140 . S
N1208 C1211 1.346 . S
N1208 C1212 1.345 . S
C1209 C1210 1.387 . S
C1209 C1213 1.391 . S
C1210 C1209 1.387 . S
C1210 C1211 1.369 . S
C1210 H1219 0.929 . S
C1211 N1208 1.346 . S
C1211 C1210 1.369 . S
C1211 H1214 0.928 . S
C1212 N1208 1.345 . S
C1212 C1213 1.371 . S
C1212 H1215 0.931 . S
C1213 C1209 1.391 . S
C1213 C1212 1.371 . S
C1213 H1220 0.930 . S
H1214 C1211 0.928 . S
H1215 C1212 0.931 . S
H1216 C1192 0.930 . S
H1217 C1189 0.930 . S
H1218 C1198 0.930 . S
H1219 C1210 0.929 . S
H1220 C1213 0.930 . S
C1221 C1222 1.351 . S
C1221 N1224 1.368 . S
C1221 H1226 0.931 . S
C1222 C1221 1.351 . S
C1222 N1223 1.373 . S
C1222 H1250 0.930 . S
N1223 C1222 1.373 . S
N1223 C1225 1.340 . S
N1224 C1221 1.368 . S
N1224 C1225 1.321 . S
N1224 Co1227 2.135 . S
C1225 N1223 1.340 . S
C1225 N1224 1.321 . S
C1225 H1249 0.930 . S
H1226 C1221 0.931 . S
Co1227 N1224 2.135 . S
Co1227 N1230 2.121 . S
Co1227 O1235 2.055 . S
Co1227 O1238 2.039 . S
Co1227 N1241 2.140 . S
C1228 O1229 1.227 . S
C1228 O1238 1.265 . S
O1229 C1228 1.227 . S
N1230 Co1227 2.121 . S
N1230 C1232 1.375 . S
N1230 C1233 1.313 . S
C1231 C1232 1.338 . S
C1231 N1234 1.377 . S
C1231 H1251 0.930 . S
C1232 N1230 1.375 . S
C1232 C1231 1.338 . S
C1232 H1236 0.931 . S
C1233 N1230 1.313 . S
C1233 N1234 1.344 . S
C1233 H1237 0.930 . S
N1234 C1231 1.377 . S
N1234 C1233 1.344 . S
O1235 Co1227 2.055 . S
O1235 C1239 1.253 . S
H1236 C1232 0.931 . S
H1237 C1233 0.930 . S
O1238 Co1227 2.039 . S
O1238 C1228 1.265 . S
C1239 O1235 1.253 . S
C1239 O1240 1.227 . S
O1240 C1239 1.227 . S
N1241 Co1227 2.140 . S
N1241 C1244 1.346 . S
N1241 C1245 1.345 . S
C1242 C1243 1.387 . S
C1242 C1246 1.391 . S
C1243 C1242 1.387 . S
C1243 C1244 1.369 . S
C1243 H1252 0.929 . S
C1244 N1241 1.346 . S
C1244 C1243 1.369 . S
C1244 H1247 0.928 . S
C1245 N1241 1.345 . S
C1245 C1246 1.371 . S
C1245 H1248 0.931 . S
C1246 C1242 1.391 . S
C1246 C1245 1.371 . S
C1246 H1253 0.930 . S
H1247 C1244 0.928 . S
H1248 C1245 0.931 . S
H1249 C1225 0.930 . S
H1250 C1222 0.930 . S
H1251 C1231 0.930 . S
H1252 C1243 0.929 . S
H1253 C1246 0.930 . S
C1254 C1255 1.351 . S
C1254 N1257 1.368 . S
C1254 H1259 0.931 . S
C1255 C1254 1.351 . S
C1255 N1256 1.373 . S
C1255 H1283 0.930 . S
N1256 C1255 1.373 . S
N1256 C1258 1.340 . S
N1257 C1254 1.368 . S
N1257 C1258 1.321 . S
N1257 Co1260 2.135 . S
C1258 N1256 1.340 . S
C1258 N1257 1.321 . S
C1258 H1282 0.930 . S
H1259 C1254 0.931 . S
Co1260 N1257 2.135 . S
Co1260 N1263 2.121 . S
Co1260 O1268 2.055 . S
Co1260 O1271 2.039 . S
Co1260 N1274 2.140 . S
C1261 O1262 1.227 . S
C1261 O1271 1.265 . S
O1262 C1261 1.227 . S
N1263 Co1260 2.121 . S
N1263 C1265 1.375 . S
N1263 C1266 1.313 . S
C1264 C1265 1.338 . S
C1264 N1267 1.377 . S
C1264 H1284 0.930 . S
C1265 N1263 1.375 . S
C1265 C1264 1.338 . S
C1265 H1269 0.931 . S
C1266 N1263 1.313 . S
C1266 N1267 1.344 . S
C1266 H1270 0.930 . S
N1267 C1264 1.377 . S
N1267 C1266 1.344 . S
O1268 Co1260 2.055 . S
O1268 C1272 1.253 . S
H1269 C1265 0.931 . S
H1270 C1266 0.930 . S
O1271 Co1260 2.039 . S
O1271 C1261 1.265 . S
C1272 O1268 1.253 . S
C1272 O1273 1.227 . S
O1273 C1272 1.227 . S
N1274 Co1260 2.140 . S
N1274 C1277 1.346 . S
N1274 C1278 1.345 . S
C1275 C1276 1.387 . S
C1275 C1279 1.391 . S
C1276 C1275 1.387 . S
C1276 C1277 1.369 . S
C1276 H1285 0.929 . S
C1277 N1274 1.346 . S
C1277 C1276 1.369 . S
C1277 H1280 0.928 . S
C1278 N1274 1.345 . S
C1278 C1279 1.371 . S
C1278 H1281 0.931 . S
C1279 C1275 1.391 . S
C1279 C1278 1.371 . S
C1279 H1286 0.930 . S
H1280 C1277 0.928 . S
H1281 C1278 0.931 . S
H1282 C1258 0.930 . S
H1283 C1255 0.930 . S
H1284 C1264 0.930 . S
H1285 C1276 0.929 . S
H1286 C1279 0.930 . S
C1287 C1288 1.351 . S
C1287 N1290 1.368 . S
C1287 H1292 0.931 . S
C1288 C1287 1.351 . S
C1288 N1289 1.373 . S
C1288 H1316 0.930 . S
N1289 C1288 1.373 . S
N1289 C1291 1.340 . S
N1290 C1287 1.368 . S
N1290 C1291 1.321 . S
N1290 Co1293 2.135 . S
C1291 N1289 1.340 . S
C1291 N1290 1.321 . S
C1291 H1315 0.930 . S
H1292 C1287 0.931 . S
Co1293 N1290 2.135 . S
Co1293 N1296 2.121 . S
Co1293 O1301 2.055 . S
Co1293 O1304 2.039 . S
Co1293 N1307 2.140 . S
C1294 O1295 1.227 . S
C1294 O1304 1.265 . S
O1295 C1294 1.227 . S
N1296 Co1293 2.121 . S
N1296 C1298 1.375 . S
N1296 C1299 1.313 . S
C1297 C1298 1.338 . S
C1297 N1300 1.377 . S
C1297 H1317 0.930 . S
C1298 N1296 1.375 . S
C1298 C1297 1.338 . S
C1298 H1302 0.931 . S
C1299 N1296 1.313 . S
C1299 N1300 1.344 . S
C1299 H1303 0.930 . S
N1300 C1297 1.377 . S
N1300 C1299 1.344 . S
O1301 Co1293 2.055 . S
O1301 C1305 1.253 . S
H1302 C1298 0.931 . S
H1303 C1299 0.930 . S
O1304 Co1293 2.039 . S
O1304 C1294 1.265 . S
C1305 O1301 1.253 . S
C1305 O1306 1.227 . S
O1306 C1305 1.227 . S
N1307 Co1293 2.140 . S
N1307 C1310 1.346 . S
N1307 C1311 1.345 . S
C1308 C1309 1.387 . S
C1308 C1312 1.391 . S
C1309 C1308 1.387 . S
C1309 C1310 1.369 . S
C1309 H1318 0.929 . S
C1310 N1307 1.346 . S
C1310 C1309 1.369 . S
C1310 H1313 0.928 . S
C1311 N1307 1.345 . S
C1311 C1312 1.371 . S
C1311 H1314 0.931 . S
C1312 C1308 1.391 . S
C1312 C1311 1.371 . S
C1312 H1319 0.930 . S
H1313 C1310 0.928 . S
H1314 C1311 0.931 . S
H1315 C1291 0.930 . S
H1316 C1288 0.930 . S
H1317 C1297 0.930 . S
H1318 C1309 0.929 . S
H1319 C1312 0.930 . S
C1320 C1321 1.351 . S
C1320 N1323 1.368 . S
C1320 H1325 0.931 . S
C1321 C1320 1.351 . S
C1321 N1322 1.373 . S
C1321 H1349 0.930 . S
N1322 C1321 1.373 . S
N1322 C1324 1.340 . S
N1323 C1320 1.368 . S
N1323 C1324 1.321 . S
N1323 Co1326 2.135 . S
C1324 N1322 1.340 . S
C1324 N1323 1.321 . S
C1324 H1348 0.930 . S
H1325 C1320 0.931 . S
Co1326 N1323 2.135 . S
Co1326 N1329 2.121 . S
Co1326 O1334 2.055 . S
Co1326 O1337 2.039 . S
Co1326 N1340 2.140 . S
C1327 O1328 1.227 . S
C1327 O1337 1.265 . S
O1328 C1327 1.227 . S
N1329 Co1326 2.121 . S
N1329 C1331 1.375 . S
N1329 C1332 1.313 . S
C1330 C1331 1.338 . S
C1330 N1333 1.377 . S
C1330 H1350 0.930 . S
C1331 N1329 1.375 . S
C1331 C1330 1.338 . S
C1331 H1335 0.931 . S
C1332 N1329 1.313 . S
C1332 N1333 1.344 . S
C1332 H1336 0.930 . S
N1333 C1330 1.377 . S
N1333 C1332 1.344 . S
O1334 Co1326 2.055 . S
O1334 C1338 1.253 . S
H1335 C1331 0.931 . S
H1336 C1332 0.930 . S
O1337 Co1326 2.039 . S
O1337 C1327 1.265 . S
C1338 O1334 1.253 . S
C1338 O1339 1.227 . S
O1339 C1338 1.227 . S
N1340 Co1326 2.140 . S
N1340 C1343 1.346 . S
N1340 C1344 1.345 . S
C1341 C1342 1.387 . S
C1341 C1345 1.391 . S
C1342 C1341 1.387 . S
C1342 C1343 1.369 . S
C1342 H1351 0.929 . S
C1343 N1340 1.346 . S
C1343 C1342 1.369 . S
C1343 H1346 0.928 . S
C1344 N1340 1.345 . S
C1344 C1345 1.371 . S
C1344 H1347 0.931 . S
C1345 C1341 1.391 . S
C1345 C1344 1.371 . S
C1345 H1352 0.930 . S
H1346 C1343 0.928 . S
H1347 C1344 0.931 . S
H1348 C1324 0.930 . S
H1349 C1321 0.930 . S
H1350 C1330 0.930 . S
H1351 C1342 0.929 . S
H1352 C1345 0.930 . S
C1353 C1354 1.351 . S
C1353 N1356 1.368 . S
C1353 H1358 0.931 . S
C1354 C1353 1.351 . S
C1354 N1355 1.373 . S
C1354 H1382 0.930 . S
N1355 C1354 1.373 . S
N1355 C1357 1.340 . S
N1356 C1353 1.368 . S
N1356 C1357 1.321 . S
N1356 Co1359 2.135 . S
C1357 N1355 1.340 . S
C1357 N1356 1.321 . S
C1357 H1381 0.930 . S
H1358 C1353 0.931 . S
Co1359 N1356 2.135 . S
Co1359 N1362 2.121 . S
Co1359 O1367 2.055 . S
Co1359 O1370 2.039 . S
Co1359 N1373 2.140 . S
C1360 O1361 1.227 . S
C1360 O1370 1.265 . S
O1361 C1360 1.227 . S
N1362 Co1359 2.121 . S
N1362 C1364 1.375 . S
N1362 C1365 1.313 . S
C1363 C1364 1.338 . S
C1363 N1366 1.377 . S
C1363 H1383 0.930 . S
C1364 N1362 1.375 . S
C1364 C1363 1.338 . S
C1364 H1368 0.931 . S
C1365 N1362 1.313 . S
C1365 N1366 1.344 . S
C1365 H1369 0.930 . S
N1366 C1363 1.377 . S
N1366 C1365 1.344 . S
O1367 Co1359 2.055 . S
O1367 C1371 1.253 . S
H1368 C1364 0.931 . S
H1369 C1365 0.930 . S
O1370 Co1359 2.039 . S
O1370 C1360 1.265 . S
C1371 O1367 1.253 . S
C1371 O1372 1.227 . S
O1372 C1371 1.227 . S
N1373 Co1359 2.140 . S
N1373 C1376 1.346 . S
N1373 C1377 1.345 . S
C1374 C1375 1.387 . S
C1374 C1378 1.391 . S
C1375 C1374 1.387 . S
C1375 C1376 1.369 . S
C1375 H1384 0.929 . S
C1376 N1373 1.346 . S
C1376 C1375 1.369 . S
C1376 H1379 0.928 . S
C1377 N1373 1.345 . S
C1377 C1378 1.371 . S
C1377 H1380 0.931 . S
C1378 C1374 1.391 . S
C1378 C1377 1.371 . S
C1378 H1385 0.930 . S
H1379 C1376 0.928 . S
H1380 C1377 0.931 . S
H1381 C1357 0.930 . S
H1382 C1354 0.930 . S
H1383 C1363 0.930 . S
H1384 C1375 0.929 . S
H1385 C1378 0.930 . S
C1386 C1387 1.351 . S
C1386 N1389 1.368 . S
C1386 H1391 0.931 . S
C1387 C1386 1.351 . S
C1387 N1388 1.373 . S
C1387 H1415 0.930 . S
N1388 C1387 1.373 . S
N1388 C1390 1.340 . S
N1389 C1386 1.368 . S
N1389 C1390 1.321 . S
N1389 Co1392 2.135 . S
C1390 N1388 1.340 . S
C1390 N1389 1.321 . S
C1390 H1414 0.930 . S
H1391 C1386 0.931 . S
Co1392 N1389 2.135 . S
Co1392 N1395 2.121 . S
Co1392 O1400 2.055 . S
Co1392 O1403 2.039 . S
Co1392 N1406 2.140 . S
C1393 O1394 1.227 . S
C1393 O1403 1.265 . S
O1394 C1393 1.227 . S
N1395 Co1392 2.121 . S
N1395 C1397 1.375 . S
N1395 C1398 1.313 . S
C1396 C1397 1.338 . S
C1396 N1399 1.377 . S
C1396 H1416 0.930 . S
C1397 N1395 1.375 . S
C1397 C1396 1.338 . S
C1397 H1401 0.931 . S
C1398 N1395 1.313 . S
C1398 N1399 1.344 . S
C1398 H1402 0.930 . S
N1399 C1396 1.377 . S
N1399 C1398 1.344 . S
O1400 Co1392 2.055 . S
O1400 C1404 1.253 . S
H1401 C1397 0.931 . S
H1402 C1398 0.930 . S
O1403 Co1392 2.039 . S
O1403 C1393 1.265 . S
C1404 O1400 1.253 . S
C1404 O1405 1.227 . S
O1405 C1404 1.227 . S
N1406 Co1392 2.140 . S
N1406 C1409 1.346 . S
N1406 C1410 1.345 . S
C1407 C1408 1.387 . S
C1407 C1411 1.391 . S
C1408 C1407 1.387 . S
C1408 C1409 1.369 . S
C1408 H1417 0.929 . S
C1409 N1406 1.346 . S
C1409 C1408 1.369 . S
C1409 H1412 0.928 . S
C1410 N1406 1.345 . S
C1410 C1411 1.371 . S
C1410 H1413 0.931 . S
C1411 C1407 1.391 . S
C1411 C1410 1.371 . S
C1411 H1418 0.930 . S
H1412 C1409 0.928 . S
H1413 C1410 0.931 . S
H1414 C1390 0.930 . S
H1415 C1387 0.930 . S
H1416 C1396 0.930 . S
H1417 C1408 0.929 . S
H1418 C1411 0.930 . S
C1419 C1420 1.351 . S
C1419 N1422 1.368 . S
C1419 H1424 0.931 . S
C1420 C1419 1.351 . S
C1420 N1421 1.373 . S
C1420 H1448 0.930 . S
N1421 C1420 1.373 . S
N1421 C1423 1.340 . S
N1422 C1419 1.368 . S
N1422 C1423 1.321 . S
N1422 Co1425 2.135 . S
C1423 N1421 1.340 . S
C1423 N1422 1.321 . S
C1423 H1447 0.930 . S
H1424 C1419 0.931 . S
Co1425 N1422 2.135 . S
Co1425 N1428 2.121 . S
Co1425 O1433 2.055 . S
Co1425 O1436 2.039 . S
Co1425 N1439 2.140 . S
C1426 O1427 1.227 . S
C1426 O1436 1.265 . S
O1427 C1426 1.227 . S
N1428 Co1425 2.121 . S
N1428 C1430 1.375 . S
N1428 C1431 1.313 . S
C1429 C1430 1.338 . S
C1429 N1432 1.377 . S
C1429 H1449 0.930 . S
C1430 N1428 1.375 . S
C1430 C1429 1.338 . S
C1430 H1434 0.931 . S
C1431 N1428 1.313 . S
C1431 N1432 1.344 . S
C1431 H1435 0.930 . S
N1432 C1429 1.377 . S
N1432 C1431 1.344 . S
O1433 Co1425 2.055 . S
O1433 C1437 1.253 . S
H1434 C1430 0.931 . S
H1435 C1431 0.930 . S
O1436 Co1425 2.039 . S
O1436 C1426 1.265 . S
C1437 O1433 1.253 . S
C1437 O1438 1.227 . S
O1438 C1437 1.227 . S
N1439 Co1425 2.140 . S
N1439 C1442 1.346 . S
N1439 C1443 1.345 . S
C1440 C1441 1.387 . S
C1440 C1444 1.391 . S
C1441 C1440 1.387 . S
C1441 C1442 1.369 . S
C1441 H1450 0.929 . S
C1442 N1439 1.346 . S
C1442 C1441 1.369 . S
C1442 H1445 0.928 . S
C1443 N1439 1.345 . S
C1443 C1444 1.371 . S
C1443 H1446 0.931 . S
C1444 C1440 1.391 . S
C1444 C1443 1.371 . S
C1444 H1451 0.930 . S
H1445 C1442 0.928 . S
H1446 C1443 0.931 . S
H1447 C1423 0.930 . S
H1448 C1420 0.930 . S
H1449 C1429 0.930 . S
H1450 C1441 0.929 . S
H1451 C1444 0.930 . S
C1452 C1453 1.351 . S
C1452 N1455 1.368 . S
C1452 H1457 0.931 . S
C1453 C1452 1.351 . S
C1453 N1454 1.373 . S
C1453 H1481 0.930 . S
N1454 C1453 1.373 . S
N1454 C1456 1.340 . S
N1455 C1452 1.368 . S
N1455 C1456 1.321 . S
N1455 Co1458 2.135 . S
C1456 N1454 1.340 . S
C1456 N1455 1.321 . S
C1456 H1480 0.930 . S
H1457 C1452 0.931 . S
Co1458 N1455 2.135 . S
Co1458 N1461 2.121 . S
Co1458 O1466 2.055 . S
Co1458 O1469 2.039 . S
Co1458 N1472 2.140 . S
C1459 O1460 1.227 . S
C1459 O1469 1.265 . S
O1460 C1459 1.227 . S
N1461 Co1458 2.121 . S
N1461 C1463 1.375 . S
N1461 C1464 1.313 . S
C1462 C1463 1.338 . S
C1462 N1465 1.377 . S
C1462 H1482 0.930 . S
C1463 N1461 1.375 . S
C1463 C1462 1.338 . S
C1463 H1467 0.931 . S
C1464 N1461 1.313 . S
C1464 N1465 1.344 . S
C1464 H1468 0.930 . S
N1465 C1462 1.377 . S
N1465 C1464 1.344 . S
O1466 Co1458 2.055 . S
O1466 C1470 1.253 . S
H1467 C1463 0.931 . S
H1468 C1464 0.930 . S
O1469 Co1458 2.039 . S
O1469 C1459 1.265 . S
C1470 O1466 1.253 . S
C1470 O1471 1.227 . S
O1471 C1470 1.227 . S
N1472 Co1458 2.140 . S
N1472 C1475 1.346 . S
N1472 C1476 1.345 . S
C1473 C1474 1.387 . S
C1473 C1477 1.391 . S
C1474 C1473 1.387 . S
C1474 C1475 1.369 . S
C1474 H1483 0.929 . S
C1475 N1472 1.346 . S
C1475 C1474 1.369 . S
C1475 H1478 0.928 . S
C1476 N1472 1.345 . S
C1476 C1477 1.371 . S
C1476 H1479 0.931 . S
C1477 C1473 1.391 . S
C1477 C1476 1.371 . S
C1477 H1484 0.930 . S
H1478 C1475 0.928 . S
H1479 C1476 0.931 . S
H1480 C1456 0.930 . S
H1481 C1453 0.930 . S
H1482 C1462 0.930 . S
H1483 C1474 0.929 . S
H1484 C1477 0.930 . S
C1485 C1486 1.351 . S
C1485 N1488 1.368 . S
C1485 H1490 0.931 . S
C1486 C1485 1.351 . S
C1486 N1487 1.373 . S
C1486 H1514 0.930 . S
N1487 C1486 1.373 . S
N1487 C1489 1.340 . S
N1488 C1485 1.368 . S
N1488 C1489 1.321 . S
N1488 Co1491 2.135 . S
C1489 N1487 1.340 . S
C1489 N1488 1.321 . S
C1489 H1513 0.930 . S
H1490 C1485 0.931 . S
Co1491 N1488 2.135 . S
Co1491 N1494 2.121 . S
Co1491 O1499 2.055 . S
Co1491 O1502 2.039 . S
Co1491 N1505 2.140 . S
C1492 O1493 1.227 . S
C1492 O1502 1.265 . S
O1493 C1492 1.227 . S
N1494 Co1491 2.121 . S
N1494 C1496 1.375 . S
N1494 C1497 1.313 . S
C1495 C1496 1.338 . S
C1495 N1498 1.377 . S
C1495 H1515 0.930 . S
C1496 N1494 1.375 . S
C1496 C1495 1.338 . S
C1496 H1500 0.931 . S
C1497 N1494 1.313 . S
C1497 N1498 1.344 . S
C1497 H1501 0.930 . S
N1498 C1495 1.377 . S
N1498 C1497 1.344 . S
O1499 Co1491 2.055 . S
O1499 C1503 1.253 . S
H1500 C1496 0.931 . S
H1501 C1497 0.930 . S
O1502 Co1491 2.039 . S
O1502 C1492 1.265 . S
C1503 O1499 1.253 . S
C1503 O1504 1.227 . S
O1504 C1503 1.227 . S
N1505 Co1491 2.140 . S
N1505 C1508 1.346 . S
N1505 C1509 1.345 . S
C1506 C1507 1.387 . S
C1506 C1510 1.391 . S
C1507 C1506 1.387 . S
C1507 C1508 1.369 . S
C1507 H1516 0.929 . S
C1508 N1505 1.346 . S
C1508 C1507 1.369 . S
C1508 H1511 0.928 . S
C1509 N1505 1.345 . S
C1509 C1510 1.371 . S
C1509 H1512 0.931 . S
C1510 C1506 1.391 . S
C1510 C1509 1.371 . S
C1510 H1517 0.930 . S
H1511 C1508 0.928 . S
H1512 C1509 0.931 . S
H1513 C1489 0.930 . S
H1514 C1486 0.930 . S
H1515 C1495 0.930 . S
H1516 C1507 0.929 . S
H1517 C1510 0.930 . S
C1518 C1519 1.351 . S
C1518 N1521 1.368 . S
C1518 H1523 0.931 . S
C1519 C1518 1.351 . S
C1519 N1520 1.373 . S
C1519 H1547 0.930 . S
N1520 C1519 1.373 . S
N1520 C1522 1.340 . S
N1521 C1518 1.368 . S
N1521 C1522 1.321 . S
N1521 Co1524 2.135 . S
C1522 N1520 1.340 . S
C1522 N1521 1.321 . S
C1522 H1546 0.930 . S
H1523 C1518 0.931 . S
Co1524 N1521 2.135 . S
Co1524 N1527 2.121 . S
Co1524 O1532 2.055 . S
Co1524 O1535 2.039 . S
Co1524 N1538 2.140 . S
C1525 O1526 1.227 . S
C1525 O1535 1.265 . S
O1526 C1525 1.227 . S
N1527 Co1524 2.121 . S
N1527 C1529 1.375 . S
N1527 C1530 1.313 . S
C1528 C1529 1.338 . S
C1528 N1531 1.377 . S
C1528 H1548 0.930 . S
C1529 N1527 1.375 . S
C1529 C1528 1.338 . S
C1529 H1533 0.931 . S
C1530 N1527 1.313 . S
C1530 N1531 1.344 . S
C1530 H1534 0.930 . S
N1531 C1528 1.377 . S
N1531 C1530 1.344 . S
O1532 Co1524 2.055 . S
O1532 C1536 1.253 . S
H1533 C1529 0.931 . S
H1534 C1530 0.930 . S
O1535 Co1524 2.039 . S
O1535 C1525 1.265 . S
C1536 O1532 1.253 . S
C1536 O1537 1.227 . S
O1537 C1536 1.227 . S
N1538 Co1524 2.140 . S
N1538 C1541 1.346 . S
N1538 C1542 1.345 . S
C1539 C1540 1.387 . S
C1539 C1543 1.391 . S
C1540 C1539 1.387 . S
C1540 C1541 1.369 . S
C1540 H1549 0.929 . S
C1541 N1538 1.346 . S
C1541 C1540 1.369 . S
C1541 H1544 0.928 . S
C1542 N1538 1.345 . S
C1542 C1543 1.371 . S
C1542 H1545 0.931 . S
C1543 C1539 1.391 . S
C1543 C1542 1.371 . S
C1543 H1550 0.930 . S
H1544 C1541 0.928 . S
H1545 C1542 0.931 . S
H1546 C1522 0.930 . S
H1547 C1519 0.930 . S
H1548 C1528 0.930 . S
H1549 C1540 0.929 . S
H1550 C1543 0.930 . S
C1551 C1552 1.351 . S
C1551 N1554 1.368 . S
C1551 H1556 0.931 . S
C1552 C1551 1.351 . S
C1552 N1553 1.373 . S
C1552 H1580 0.930 . S
N1553 C1552 1.373 . S
N1553 C1555 1.340 . S
N1554 C1551 1.368 . S
N1554 C1555 1.321 . S
N1554 Co1557 2.135 . S
C1555 N1553 1.340 . S
C1555 N1554 1.321 . S
C1555 H1579 0.930 . S
H1556 C1551 0.931 . S
Co1557 N1554 2.135 . S
Co1557 N1560 2.121 . S
Co1557 O1565 2.055 . S
Co1557 O1568 2.039 . S
Co1557 N1571 2.140 . S
C1558 O1559 1.227 . S
C1558 O1568 1.265 . S
O1559 C1558 1.227 . S
N1560 Co1557 2.121 . S
N1560 C1562 1.375 . S
N1560 C1563 1.313 . S
C1561 C1562 1.338 . S
C1561 N1564 1.377 . S
C1561 H1581 0.930 . S
C1562 N1560 1.375 . S
C1562 C1561 1.338 . S
C1562 H1566 0.931 . S
C1563 N1560 1.313 . S
C1563 N1564 1.344 . S
C1563 H1567 0.930 . S
N1564 C1561 1.377 . S
N1564 C1563 1.344 . S
O1565 Co1557 2.055 . S
O1565 C1569 1.253 . S
H1566 C1562 0.931 . S
H1567 C1563 0.930 . S
O1568 Co1557 2.039 . S
O1568 C1558 1.265 . S
C1569 O1565 1.253 . S
C1569 O1570 1.227 . S
O1570 C1569 1.227 . S
N1571 Co1557 2.140 . S
N1571 C1574 1.346 . S
N1571 C1575 1.345 . S
C1572 C1573 1.387 . S
C1572 C1576 1.391 . S
C1573 C1572 1.387 . S
C1573 C1574 1.369 . S
C1573 H1582 0.929 . S
C1574 N1571 1.346 . S
C1574 C1573 1.369 . S
C1574 H1577 0.928 . S
C1575 N1571 1.345 . S
C1575 C1576 1.371 . S
C1575 H1578 0.931 . S
C1576 C1572 1.391 . S
C1576 C1575 1.371 . S
C1576 H1583 0.930 . S
H1577 C1574 0.928 . S
H1578 C1575 0.931 . S
H1579 C1555 0.930 . S
H1580 C1552 0.930 . S
H1581 C1561 0.930 . S
H1582 C1573 0.929 . S
H1583 C1576 0.930 . S
C1584 C1585 1.363 . S
C1584 C1590 1.379 . S
C1584 N1592 1.356 . S
C1585 C1584 1.363 . S
C1585 C1591 1.363 . S
C1586 C1587 1.363 . S
C1586 C1591 1.379 . S
C1586 N1593 1.356 . S
C1587 C1586 1.363 . S
C1587 C1590 1.363 . S
N1588 C1590 1.356 . S
N1588 H1600 0.984 . S
N1588 H1601 0.985 . S
N1589 C1591 1.356 . S
N1589 H1594 0.984 . S
N1589 H1595 0.985 . S
C1590 C1584 1.379 . S
C1590 C1587 1.363 . S
C1590 N1588 1.356 . S
C1591 C1585 1.363 . S
C1591 C1586 1.379 . S
C1591 N1589 1.356 . S
N1592 C1584 1.356 . S
N1592 H1598 0.984 . S
N1592 H1599 0.984 . S
N1593 C1586 1.356 . S
N1593 H1596 0.984 . S
N1593 H1597 0.985 . S
H1594 N1589 0.984 . S
H1595 N1589 0.985 . S
H1596 N1593 0.984 . S
H1597 N1593 0.985 . S
H1598 N1592 0.984 . S
H1599 N1592 0.984 . S
H1600 N1588 0.984 . S
H1601 N1588 0.985 . S
C1602 C1603 1.363 . S
C1602 C1608 1.379 . S
C1602 N1610 1.356 . S
C1603 C1602 1.363 . S
C1603 C1609 1.363 . S
C1604 C1605 1.363 . S
C1604 C1609 1.379 . S
C1604 N1611 1.356 . S
C1605 C1604 1.363 . S
C1605 C1608 1.363 . S
N1606 C1608 1.356 . S
N1606 H1618 0.984 . S
N1606 H1619 0.985 . S
N1607 C1609 1.356 . S
N1607 H1612 0.984 . S
N1607 H1613 0.985 . S
C1608 C1602 1.379 . S
C1608 C1605 1.363 . S
C1608 N1606 1.356 . S
C1609 C1603 1.363 . S
C1609 C1604 1.379 . S
C1609 N1607 1.356 . S
N1610 C1602 1.356 . S
N1610 H1616 0.984 . S
N1610 H1617 0.984 . S
N1611 C1604 1.356 . S
N1611 H1614 0.984 . S
N1611 H1615 0.985 . S
H1612 N1607 0.984 . S
H1613 N1607 0.985 . S
H1614 N1611 0.984 . S
H1615 N1611 0.985 . S
H1616 N1610 0.984 . S
H1617 N1610 0.984 . S
H1618 N1606 0.984 . S
H1619 N1606 0.985 . S
C1620 C1621 1.363 . S
C1620 C1626 1.379 . S
C1620 N1628 1.356 . S
C1621 C1620 1.363 . S
C1621 C1627 1.363 . S
C1622 C1623 1.363 . S
C1622 C1627 1.379 . S
C1622 N1629 1.356 . S
C1623 C1622 1.363 . S
C1623 C1626 1.363 . S
N1624 C1626 1.356 . S
N1624 H1636 0.984 . S
N1624 H1637 0.985 . S
N1625 C1627 1.356 . S
N1625 H1630 0.984 . S
N1625 H1631 0.985 . S
C1626 C1620 1.379 . S
C1626 C1623 1.363 . S
C1626 N1624 1.356 . S
C1627 C1621 1.363 . S
C1627 C1622 1.379 . S
C1627 N1625 1.356 . S
N1628 C1620 1.356 . S
N1628 H1634 0.984 . S
N1628 H1635 0.984 . S
N1629 C1622 1.356 . S
N1629 H1632 0.984 . S
N1629 H1633 0.985 . S
H1630 N1625 0.984 . S
H1631 N1625 0.985 . S
H1632 N1629 0.984 . S
H1633 N1629 0.985 . S
H1634 N1628 0.984 . S
H1635 N1628 0.984 . S
H1636 N1624 0.984 . S
H1637 N1624 0.985 . S
C1638 C1639 1.363 . S
C1638 C1644 1.379 . S
C1638 N1646 1.356 . S
C1639 C1638 1.363 . S
C1639 C1645 1.363 . S
C1640 C1641 1.363 . S
C1640 C1645 1.379 . S
C1640 N1647 1.356 . S
C1641 C1640 1.363 . S
C1641 C1644 1.363 . S
N1642 C1644 1.356 . S
N1642 H1654 0.984 . S
N1642 H1655 0.985 . S
N1643 C1645 1.356 . S
N1643 H1648 0.984 . S
N1643 H1649 0.985 . S
C1644 C1638 1.379 . S
C1644 C1641 1.363 . S
C1644 N1642 1.356 . S
C1645 C1639 1.363 . S
C1645 C1640 1.379 . S
C1645 N1643 1.356 . S
N1646 C1638 1.356 . S
N1646 H1652 0.984 . S
N1646 H1653 0.984 . S
N1647 C1640 1.356 . S
N1647 H1650 0.984 . S
N1647 H1651 0.985 . S
H1648 N1643 0.984 . S
H1649 N1643 0.985 . S
H1650 N1647 0.984 . S
H1651 N1647 0.985 . S
H1652 N1646 0.984 . S
H1653 N1646 0.984 . S
H1654 N1642 0.984 . S
H1655 N1642 0.985 . S
C1656 C1657 1.363 . S
C1656 C1662 1.379 . S
C1656 N1664 1.356 . S
C1657 C1656 1.363 . S
C1657 C1663 1.363 . S
C1658 C1659 1.363 . S
C1658 C1663 1.379 . S
C1658 N1665 1.356 . S
C1659 C1658 1.363 . S
C1659 C1662 1.363 . S
N1660 C1662 1.356 . S
N1660 H1672 0.984 . S
N1660 H1673 0.985 . S
N1661 C1663 1.356 . S
N1661 H1666 0.984 . S
N1661 H1667 0.985 . S
C1662 C1656 1.379 . S
C1662 C1659 1.363 . S
C1662 N1660 1.356 . S
C1663 C1657 1.363 . S
C1663 C1658 1.379 . S
C1663 N1661 1.356 . S
N1664 C1656 1.356 . S
N1664 H1670 0.984 . S
N1664 H1671 0.984 . S
N1665 C1658 1.356 . S
N1665 H1668 0.984 . S
N1665 H1669 0.985 . S
H1666 N1661 0.984 . S
H1667 N1661 0.985 . S
H1668 N1665 0.984 . S
H1669 N1665 0.985 . S
H1670 N1664 0.984 . S
H1671 N1664 0.984 . S
H1672 N1660 0.984 . S
H1673 N1660 0.985 . S
C1674 C1675 1.363 . S
C1674 C1680 1.379 . S
C1674 N1682 1.356 . S
C1675 C1674 1.363 . S
C1675 C1681 1.363 . S
C1676 C1677 1.363 . S
C1676 C1681 1.379 . S
C1676 N1683 1.356 . S
C1677 C1676 1.363 . S
C1677 C1680 1.363 . S
N1678 C1680 1.356 1_455 S
N1678 H1690 0.984 . S
N1678 H1691 0.985 . S
N1679 C1681 1.356 . S
N1679 H1684 0.984 . S
N1679 H1685 0.985 . S
C1680 C1674 1.379 . S
C1680 C1677 1.363 . S
C1680 N1678 1.356 1_655 S
C1681 C1675 1.363 . S
C1681 C1676 1.379 . S
C1681 N1679 1.356 . S
N1682 C1674 1.356 . S
N1682 H1688 0.984 . S
N1682 H1689 0.984 . S
N1683 C1676 1.356 . S
N1683 H1686 0.984 1_655 S
N1683 H1687 0.985 . S
H1684 N1679 0.984 . S
H1685 N1679 0.985 . S
H1686 N1683 0.984 1_455 S
H1687 N1683 0.985 . S
H1688 N1682 0.984 . S
H1689 N1682 0.984 . S
H1690 N1678 0.984 . S
H1691 N1678 0.985 . S
C1692 C1693 1.363 . S
C1692 C1698 1.379 . S
C1692 N1700 1.356 . S
C1693 C1692 1.363 . S
C1693 C1699 1.363 . S
C1694 C1695 1.363 . S
C1694 C1699 1.379 . S
C1694 N1701 1.356 . S
C1695 C1694 1.363 . S
C1695 C1698 1.363 . S
N1696 C1698 1.356 . S
N1696 H1708 0.984 . S
N1696 H1709 0.985 . S
N1697 C1699 1.356 . S
N1697 H1702 0.984 . S
N1697 H1703 0.985 . S
C1698 C1692 1.379 . S
C1698 C1695 1.363 . S
C1698 N1696 1.356 . S
C1699 C1693 1.363 . S
C1699 C1694 1.379 . S
C1699 N1697 1.356 . S
N1700 C1692 1.356 . S
N1700 H1706 0.984 . S
N1700 H1707 0.984 . S
N1701 C1694 1.356 . S
N1701 H1704 0.984 . S
N1701 H1705 0.985 . S
H1702 N1697 0.984 . S
H1703 N1697 0.985 . S
H1704 N1701 0.984 . S
H1705 N1701 0.985 . S
H1706 N1700 0.984 . S
H1707 N1700 0.984 . S
H1708 N1696 0.984 . S
H1709 N1696 0.985 . S
C1710 C1711 1.363 . S
C1710 C1716 1.379 . S
C1710 N1718 1.356 1_455 S
C1711 C1710 1.363 . S
C1711 C1717 1.363 . S
C1712 C1713 1.363 . S
C1712 C1717 1.379 . S
C1712 N1719 1.356 . S
C1713 C1712 1.363 . S
C1713 C1716 1.363 . S
N1714 C1716 1.356 . S
N1714 H1726 0.984 . S
N1714 H1727 0.985 . S
N1715 C1717 1.356 . S
N1715 H1720 0.984 1_455 S
N1715 H1721 0.985 . S
C1716 C1710 1.379 . S
C1716 C1713 1.363 . S
C1716 N1714 1.356 . S
C1717 C1711 1.363 . S
C1717 C1712 1.379 . S
C1717 N1715 1.356 . S
N1718 C1710 1.356 1_655 S
N1718 H1724 0.986 . S
N1718 H1725 0.984 . S
N1719 C1712 1.356 . S
N1719 H1722 0.984 . S
N1719 H1723 0.985 . S
H1720 N1715 0.984 1_655 S
H1721 N1715 0.985 . S
H1722 N1719 0.984 . S
H1723 N1719 0.985 . S
H1724 N1718 0.986 . S
H1725 N1718 0.984 . S
H1726 N1714 0.984 . S
H1727 N1714 0.985 . S
C1728 C1729 1.363 . S
C1728 C1734 1.379 . S
C1728 N1736 1.356 . S
C1729 C1728 1.363 . S
C1729 C1735 1.363 . S
C1730 C1731 1.363 . S
C1730 C1735 1.379 . S
C1730 N1737 1.356 . S
C1731 C1730 1.363 . S
C1731 C1734 1.363 . S
N1732 C1734 1.356 . S
N1732 H1744 0.984 . S
N1732 H1745 0.985 . S
N1733 C1735 1.356 . S
N1733 H1738 0.984 . S
N1733 H1739 0.985 . S
C1734 C1728 1.379 . S
C1734 C1731 1.363 . S
C1734 N1732 1.356 . S
C1735 C1729 1.363 . S
C1735 C1730 1.379 . S
C1735 N1733 1.356 . S
N1736 C1728 1.356 . S
N1736 H1742 0.984 . S
N1736 H1743 0.984 . S
N1737 C1730 1.356 . S
N1737 H1740 0.984 . S
N1737 H1741 0.985 . S
H1738 N1733 0.984 . S
H1739 N1733 0.985 . S
H1740 N1737 0.984 . S
H1741 N1737 0.985 . S
H1742 N1736 0.984 . S
H1743 N1736 0.984 . S
H1744 N1732 0.984 . S
H1745 N1732 0.985 . S
C1746 C1747 1.363 . S
C1746 C1752 1.379 . S
C1746 N1754 1.356 . S
C1747 C1746 1.363 . S
C1747 C1753 1.363 . S
C1748 C1749 1.363 . S
C1748 C1753 1.379 . S
C1748 N1755 1.356 . S
C1749 C1748 1.363 . S
C1749 C1752 1.363 . S
N1750 C1752 1.356 . S
N1750 H1762 0.984 . S
N1750 H1763 0.985 . S
N1751 C1753 1.356 1_554 S
N1751 H1756 0.984 . S
N1751 H1757 0.985 . S
C1752 C1746 1.379 . S
C1752 C1749 1.363 . S
C1752 N1750 1.356 . S
C1753 C1747 1.363 . S
C1753 C1748 1.379 . S
C1753 N1751 1.356 1_556 S
N1754 C1746 1.356 . S
N1754 H1760 0.984 . S
N1754 H1761 1.012 . S
N1755 C1748 1.356 . S
N1755 H1758 0.984 . S
N1755 H1759 0.985 . S
H1756 N1751 0.984 . S
H1757 N1751 0.985 . S
H1758 N1755 0.984 . S
H1759 N1755 0.985 . S
H1760 N1754 0.984 . S
H1761 N1754 1.012 . S
H1762 N1750 0.984 . S
H1763 N1750 0.985 . S
C1764 C1765 1.363 . S
C1764 C1770 1.379 . S
C1764 N1772 1.356 . S
C1765 C1764 1.363 . S
C1765 C1771 1.363 . S
C1766 C1767 1.363 . S
C1766 C1771 1.379 . S
C1766 N1773 1.356 . S
C1767 C1766 1.363 . S
C1767 C1770 1.363 . S
N1768 C1770 1.356 . S
N1768 H1780 0.984 . S
N1768 H1781 0.985 . S
N1769 C1771 1.356 . S
N1769 H1774 0.984 . S
N1769 H1775 0.985 . S
C1770 C1764 1.379 . S
C1770 C1767 1.363 . S
C1770 N1768 1.356 . S
C1771 C1765 1.363 . S
C1771 C1766 1.379 . S
C1771 N1769 1.356 . S
N1772 C1764 1.356 . S
N1772 H1778 0.984 . S
N1772 H1779 0.984 . S
N1773 C1766 1.356 . S
N1773 H1776 0.984 . S
N1773 H1777 0.985 . S
H1774 N1769 0.984 . S
H1775 N1769 0.985 . S
H1776 N1773 0.984 . S
H1777 N1773 0.985 . S
H1778 N1772 0.984 . S
H1779 N1772 0.984 . S
H1780 N1768 0.984 . S
H1781 N1768 0.985 . S
C1782 C1783 1.363 . S
C1782 C1788 1.379 . S
C1782 N1790 1.356 . S
C1783 C1782 1.363 . S
C1783 C1789 1.363 . S
C1784 C1785 1.363 . S
C1784 C1789 1.379 . S
C1784 N1791 1.356 1_556 S
C1785 C1784 1.363 . S
C1785 C1788 1.363 . S
N1786 C1788 1.356 . S
N1786 H1798 0.984 . S
N1786 H1799 0.985 1_556 S
N1787 C1789 1.356 . S
N1787 H1792 0.984 . S
N1787 H1793 0.985 . S
C1788 C1782 1.379 . S
C1788 C1785 1.363 . S
C1788 N1786 1.356 . S
C1789 C1783 1.363 . S
C1789 C1784 1.379 . S
C1789 N1787 1.356 . S
N1790 C1782 1.356 . S
N1790 H1796 0.984 . S
N1790 H1797 0.984 . S
N1791 C1784 1.356 1_554 S
N1791 H1794 0.984 . S
N1791 H1795 0.985 . S
H1792 N1787 0.984 . S
H1793 N1787 0.985 . S
H1794 N1791 0.984 . S
H1795 N1791 0.985 . S
H1796 N1790 0.984 . S
H1797 N1790 0.984 . S
H1798 N1786 0.984 . S
H1799 N1786 0.985 1_554 S
C1800 C1801 1.363 . S
C1800 C1806 1.379 . S
C1800 N1808 1.356 . S
C1801 C1800 1.363 . S
C1801 C1807 1.363 . S
C1802 C1803 1.363 . S
C1802 C1807 1.379 . S
C1802 N1809 1.356 . S
C1803 C1802 1.363 . S
C1803 C1806 1.363 . S
N1804 C1806 1.356 . S
N1804 H1816 0.984 . S
N1804 H1817 0.985 . S
N1805 C1807 1.356 . S
N1805 H1810 0.984 . S
N1805 H1811 0.985 . S
C1806 C1800 1.379 . S
C1806 C1803 1.363 . S
C1806 N1804 1.356 . S
C1807 C1801 1.363 . S
C1807 C1802 1.379 . S
C1807 N1805 1.356 . S
N1808 C1800 1.356 . S
N1808 H1814 0.984 . S
N1808 H1815 0.984 . S
N1809 C1802 1.356 . S
N1809 H1812 0.984 . S
N1809 H1813 0.985 . S
H1810 N1805 0.984 . S
H1811 N1805 0.985 . S
H1812 N1809 0.984 . S
H1813 N1809 0.985 . S
H1814 N1808 0.984 . S
H1815 N1808 0.984 . S
H1816 N1804 0.984 . S
H1817 N1804 0.985 . S
C1818 C1819 1.363 . S
C1818 C1824 1.379 . S
C1818 N1826 1.356 . S
C1819 C1818 1.363 . S
C1819 C1825 1.363 . S
C1820 C1821 1.363 . S
C1820 C1825 1.379 . S
C1820 N1827 1.356 1_554 S
C1821 C1820 1.363 . S
C1821 C1824 1.363 . S
N1822 C1824 1.356 . S
N1822 H1834 0.984 . S
N1822 H1835 0.985 1_554 S
N1823 C1825 1.356 . S
N1823 H1828 0.984 . S
N1823 H1829 0.985 . S
C1824 C1818 1.379 . S
C1824 C1821 1.363 . S
C1824 N1822 1.356 . S
C1825 C1819 1.363 . S
C1825 C1820 1.379 . S
C1825 N1823 1.356 . S
N1826 C1818 1.356 . S
N1826 H1832 0.984 . S
N1826 H1833 0.984 . S
N1827 C1820 1.356 1_556 S
N1827 H1830 0.984 . S
N1827 H1831 0.985 . S
H1828 N1823 0.984 . S
H1829 N1823 0.985 . S
H1830 N1827 0.984 . S
H1831 N1827 0.985 . S
H1832 N1826 0.984 . S
H1833 N1826 0.984 . S
H1834 N1822 0.984 . S
H1835 N1822 0.985 1_556 S
C1836 C1837 1.363 . S
C1836 C1842 1.379 . S
C1836 N1844 1.356 . S
C1837 C1836 1.363 . S
C1837 C1843 1.363 . S
C1838 C1839 1.363 . S
C1838 C1843 1.379 . S
C1838 N1845 1.356 . S
C1839 C1838 1.363 . S
C1839 C1842 1.363 . S
N1840 C1842 1.356 . S
N1840 H1852 0.984 . S
N1840 H1853 0.985 . S
N1841 C1843 1.356 . S
N1841 H1846 0.984 . S
N1841 H1847 0.985 . S
C1842 C1836 1.379 . S
C1842 C1839 1.363 . S
C1842 N1840 1.356 . S
C1843 C1837 1.363 . S
C1843 C1838 1.379 . S
C1843 N1841 1.356 . S
N1844 C1836 1.356 . S
N1844 H1850 0.984 . S
N1844 H1851 0.984 . S
N1845 C1838 1.356 . S
N1845 H1848 0.984 . S
N1845 H1849 0.985 . S
H1846 N1841 0.984 . S
H1847 N1841 0.985 . S
H1848 N1845 0.984 . S
H1849 N1845 0.985 . S
H1850 N1844 0.984 . S
H1851 N1844 0.984 . S
H1852 N1840 0.984 . S
H1853 N1840 0.985 . S
C1854 C1855 1.363 . S
C1854 C1860 1.379 . S
C1854 N1862 1.356 . S
C1855 C1854 1.363 . S
C1855 C1861 1.363 . S
C1856 C1857 1.363 . S
C1856 C1861 1.379 . S
C1856 N1863 1.356 . S
C1857 C1856 1.363 . S
C1857 C1860 1.363 . S
N1858 C1860 1.356 . S
N1858 H1870 0.984 . S
N1858 H1871 0.985 . S
N1859 C1861 1.356 1_556 S
N1859 H1864 0.984 . S
N1859 H1865 0.985 . S
C1860 C1854 1.379 . S
C1860 C1857 1.363 . S
C1860 N1858 1.356 . S
C1861 C1855 1.363 . S
C1861 C1856 1.379 . S
C1861 N1859 1.356 1_554 S
N1862 C1854 1.356 . S
N1862 H1868 0.984 . S
N1862 H1869 0.976 1_554 S
N1863 C1856 1.356 . S
N1863 H1866 0.984 . S
N1863 H1867 0.985 . S
H1864 N1859 0.984 . S
H1865 N1859 0.985 . S
H1866 N1863 0.984 . S
H1867 N1863 0.985 . S
H1868 N1862 0.984 . S
H1869 N1862 0.976 1_556 S
H1870 N1858 0.984 . S
H1871 N1858 0.985 . S
C1872 C1873 1.363 . S
C1872 C1878 1.379 . S
C1872 N1880 1.356 . S
C1873 C1872 1.363 . S
C1873 C1879 1.363 . S
C1874 C1875 1.363 . S
C1874 C1879 1.379 . S
C1874 N1881 1.356 . S
C1875 C1874 1.363 . S
C1875 C1878 1.363 . S
N1876 C1878 1.356 . S
N1876 H1888 0.984 . S
N1876 H1889 0.985 . S
N1877 C1879 1.356 . S
N1877 H1882 0.984 . S
N1877 H1883 0.985 . S
C1878 C1872 1.379 . S
C1878 C1875 1.363 . S
C1878 N1876 1.356 . S
C1879 C1873 1.363 . S
C1879 C1874 1.379 . S
C1879 N1877 1.356 . S
N1880 C1872 1.356 . S
N1880 H1886 0.984 . S
N1880 H1887 0.984 . S
N1881 C1874 1.356 . S
N1881 H1884 0.984 . S
N1881 H1885 0.985 . S
H1882 N1877 0.984 . S
H1883 N1877 0.985 . S
H1884 N1881 0.984 . S
H1885 N1881 0.985 . S
H1886 N1880 0.984 . S
H1887 N1880 0.984 . S
H1888 N1876 0.984 . S
H1889 N1876 0.985 . S
C1890 C1891 1.363 . S
C1890 C1896 1.379 . S
C1890 N1898 1.356 . S
C1891 C1890 1.363 . S
C1891 C1897 1.363 . S
C1892 C1893 1.363 . S
C1892 C1897 1.379 . S
C1892 N1899 1.356 . S
C1893 C1892 1.363 . S
C1893 C1896 1.363 . S
N1894 C1896 1.356 . S
N1894 H1906 0.984 . S
N1894 H1907 0.985 . S
N1895 C1897 1.356 . S
N1895 H1900 0.984 . S
N1895 H1901 0.985 . S
C1896 C1890 1.379 . S
C1896 C1893 1.363 . S
C1896 N1894 1.356 . S
C1897 C1891 1.363 . S
C1897 C1892 1.379 . S
C1897 N1895 1.356 . S
N1898 C1890 1.356 . S
N1898 H1904 0.984 . S
N1898 H1905 0.984 . S
N1899 C1892 1.356 . S
N1899 H1902 0.984 . S
N1899 H1903 0.985 . S
H1900 N1895 0.984 . S
H1901 N1895 0.985 . S
H1902 N1899 0.984 . S
H1903 N1899 0.985 . S
H1904 N1898 0.984 . S
H1905 N1898 0.984 . S
H1906 N1894 0.984 . S
H1907 N1894 0.985 . S
C1908 C1909 1.363 . S
C1908 C1914 1.379 . S
C1908 N1916 1.356 . S
C1909 C1908 1.363 . S
C1909 C1915 1.363 . S
C1910 C1911 1.363 . S
C1910 C1915 1.379 . S
C1910 N1917 1.356 . S
C1911 C1910 1.363 . S
C1911 C1914 1.363 . S
N1912 C1914 1.356 . S
N1912 H1924 0.984 . S
N1912 H1925 0.985 . S
N1913 C1915 1.356 . S
N1913 H1918 0.984 . S
N1913 H1919 0.985 . S
C1914 C1908 1.379 . S
C1914 C1911 1.363 . S
C1914 N1912 1.356 . S
C1915 C1909 1.363 . S
C1915 C1910 1.379 . S
C1915 N1913 1.356 . S
N1916 C1908 1.356 . S
N1916 H1922 0.984 . S
N1916 H1923 0.984 . S
N1917 C1910 1.356 . S
N1917 H1920 0.984 . S
N1917 H1921 0.985 . S
H1918 N1913 0.984 . S
H1919 N1913 0.985 . S
H1920 N1917 0.984 . S
H1921 N1917 0.985 . S
H1922 N1916 0.984 . S
H1923 N1916 0.984 . S
H1924 N1912 0.984 . S
H1925 N1912 0.985 . S
C1926 C1927 1.363 . S
C1926 C1932 1.379 . S
C1926 N1934 1.356 . S
C1927 C1926 1.363 . S
C1927 C1933 1.363 . S
C1928 C1929 1.363 . S
C1928 C1933 1.379 . S
C1928 N1935 1.356 . S
C1929 C1928 1.363 . S
C1929 C1932 1.363 . S
N1930 C1932 1.356 . S
N1930 H1942 0.984 . S
N1930 H1943 0.985 . S
N1931 C1933 1.356 . S
N1931 H1936 0.984 . S
N1931 H1937 0.985 . S
C1932 C1926 1.379 . S
C1932 C1929 1.363 . S
C1932 N1930 1.356 . S
C1933 C1927 1.363 . S
C1933 C1928 1.379 . S
C1933 N1931 1.356 . S
N1934 C1926 1.356 . S
N1934 H1940 0.984 . S
N1934 H1941 0.984 . S
N1935 C1928 1.356 . S
N1935 H1938 0.984 . S
N1935 H1939 0.985 . S
H1936 N1931 0.984 . S
H1937 N1931 0.985 . S
H1938 N1935 0.984 . S
H1939 N1935 0.985 . S
H1940 N1934 0.984 . S
H1941 N1934 0.984 . S
H1942 N1930 0.984 . S
H1943 N1930 0.985 . S
C1944 C1945 1.363 . S
C1944 C1950 1.379 . S
C1944 N1952 1.356 . S
C1945 C1944 1.363 . S
C1945 C1951 1.363 . S
C1946 C1947 1.363 . S
C1946 C1951 1.379 . S
C1946 N1953 1.356 . S
C1947 C1946 1.363 . S
C1947 C1950 1.363 . S
N1948 C1950 1.356 . S
N1948 H1960 0.984 . S
N1948 H1961 0.985 . S
N1949 C1951 1.356 . S
N1949 H1954 0.984 . S
N1949 H1955 0.985 . S
C1950 C1944 1.379 . S
C1950 C1947 1.363 . S
C1950 N1948 1.356 . S
C1951 C1945 1.363 . S
C1951 C1946 1.379 . S
C1951 N1949 1.356 . S
N1952 C1944 1.356 . S
N1952 H1958 0.984 . S
N1952 H1959 0.984 . S
N1953 C1946 1.356 . S
N1953 H1956 0.984 . S
N1953 H1957 0.985 . S
H1954 N1949 0.984 . S
H1955 N1949 0.985 . S
H1956 N1953 0.984 . S
H1957 N1953 0.985 . S
H1958 N1952 0.984 . S
H1959 N1952 0.984 . S
H1960 N1948 0.984 . S
H1961 N1948 0.985 . S
C1962 C1963 1.363 . S
C1962 C1968 1.379 . S
C1962 N1970 1.356 . S
C1963 C1962 1.363 . S
C1963 C1969 1.363 . S
C1964 C1965 1.363 . S
C1964 C1969 1.379 . S
C1964 N1971 1.356 . S
C1965 C1964 1.363 . S
C1965 C1968 1.363 . S
N1966 C1968 1.356 . S
N1966 H1978 0.984 . S
N1966 H1979 0.985 . S
N1967 C1969 1.356 . S
N1967 H1972 0.984 . S
N1967 H1973 0.985 . S
C1968 C1962 1.379 . S
C1968 C1965 1.363 . S
C1968 N1966 1.356 . S
C1969 C1963 1.363 . S
C1969 C1964 1.379 . S
C1969 N1967 1.356 . S
N1970 C1962 1.356 . S
N1970 H1976 0.984 . S
N1970 H1977 0.984 . S
N1971 C1964 1.356 . S
N1971 H1974 0.984 . S
N1971 H1975 0.985 . S
H1972 N1967 0.984 . S
H1973 N1967 0.985 . S
H1974 N1971 0.984 . S
H1975 N1971 0.985 . S
H1976 N1970 0.984 . S
H1977 N1970 0.984 . S
H1978 N1966 0.984 . S
H1979 N1966 0.985 . S
C1980 C1981 1.363 . S
C1980 C1986 1.379 . S
C1980 N1988 1.356 . S
C1981 C1980 1.363 . S
C1981 C1987 1.363 . S
C1982 C1983 1.363 . S
C1982 C1987 1.379 . S
C1982 N1989 1.356 . S
C1983 C1982 1.363 . S
C1983 C1986 1.363 . S
N1984 C1986 1.356 . S
N1984 H1996 0.984 . S
N1984 H1997 0.985 . S
N1985 C1987 1.356 . S
N1985 H1990 0.984 . S
N1985 H1991 0.985 . S
C1986 C1980 1.379 . S
C1986 C1983 1.363 . S
C1986 N1984 1.356 . S
C1987 C1981 1.363 . S
C1987 C1982 1.379 . S
C1987 N1985 1.356 . S
N1988 C1980 1.356 . S
N1988 H1994 0.984 . S
N1988 H1995 0.984 . S
N1989 C1982 1.356 . S
N1989 H1992 0.984 . S
N1989 H1993 0.985 . S
H1990 N1985 0.984 . S
H1991 N1985 0.985 . S
H1992 N1989 0.984 . S
H1993 N1989 0.985 . S
H1994 N1988 0.984 . S
H1995 N1988 0.984 . S
H1996 N1984 0.984 . S
H1997 N1984 0.985 . S
C1998 C1999 1.363 . S
C1998 C2004 1.379 . S
C1998 N2006 1.356 . S
C1999 C1998 1.363 . S
C1999 C2005 1.363 . S
C2000 C2001 1.363 . S
C2000 C2005 1.379 . S
C2000 N2007 1.356 . S
C2001 C2000 1.363 . S
C2001 C2004 1.363 . S
N2002 C2004 1.356 . S
N2002 H2014 0.984 . S
N2002 H2015 0.985 . S
N2003 C2005 1.356 1_545 S
N2003 H2008 0.984 . S
N2003 H2009 0.985 . S
C2004 C1998 1.379 . S
C2004 C2001 1.363 . S
C2004 N2002 1.356 . S
C2005 C1999 1.363 . S
C2005 C2000 1.379 . S
C2005 N2003 1.356 1_565 S
N2006 C1998 1.356 . S
N2006 H2012 0.984 . S
N2006 H2013 0.984 1_565 S
N2007 C2000 1.356 . S
N2007 H2010 0.984 . S
N2007 H2011 0.985 . S
H2008 N2003 0.984 . S
H2009 N2003 0.985 . S
H2010 N2007 0.984 . S
H2011 N2007 0.985 . S
H2012 N2006 0.984 . S
H2013 N2006 0.984 1_545 S
H2014 N2002 0.984 . S
H2015 N2002 0.985 . S
C2016 C2017 1.363 . S
C2016 C2022 1.379 . S
C2016 N2024 1.356 . S
C2017 C2016 1.363 . S
C2017 C2023 1.363 . S
C2018 C2019 1.363 . S
C2018 C2023 1.379 . S
C2018 N2025 1.356 . S
C2019 C2018 1.363 . S
C2019 C2022 1.363 . S
N2020 C2022 1.356 . S
N2020 H2032 0.984 . S
N2020 H2033 0.985 . S
N2021 C2023 1.356 . S
N2021 H2026 0.984 . S
N2021 H2027 0.985 . S
C2022 C2016 1.379 . S
C2022 C2019 1.363 . S
C2022 N2020 1.356 . S
C2023 C2017 1.363 . S
C2023 C2018 1.379 . S
C2023 N2021 1.356 . S
N2024 C2016 1.356 . S
N2024 H2030 0.984 . S
N2024 H2031 0.984 . S
N2025 C2018 1.356 . S
N2025 H2028 0.984 . S
N2025 H2029 0.985 . S
H2026 N2021 0.984 . S
H2027 N2021 0.985 . S
H2028 N2025 0.984 . S
H2029 N2025 0.985 . S
H2030 N2024 0.984 . S
H2031 N2024 0.984 . S
H2032 N2020 0.984 . S
H2033 N2020 0.985 . S
C2034 C2035 1.363 . S
C2034 C2040 1.379 . S
C2034 N2042 1.356 1_455 S
C2035 C2034 1.363 . S
C2035 C2041 1.363 . S
C2036 C2037 1.363 . S
C2036 C2041 1.379 . S
C2036 N2043 1.356 . S
C2037 C2036 1.363 . S
C2037 C2040 1.363 . S
N2038 C2040 1.356 . S
N2038 H2050 0.984 . S
N2038 H2051 0.985 . S
N2039 C2041 1.356 . S
N2039 H2044 0.984 1_455 S
N2039 H2045 0.985 . S
C2040 C2034 1.379 . S
C2040 C2037 1.363 . S
C2040 N2038 1.356 . S
C2041 C2035 1.363 . S
C2041 C2036 1.379 . S
C2041 N2039 1.356 . S
N2042 C2034 1.356 1_655 S
N2042 H2048 0.984 . S
N2042 H2049 0.984 . S
N2043 C2036 1.356 . S
N2043 H2046 0.984 . S
N2043 H2047 0.985 . S
H2044 N2039 0.984 1_655 S
H2045 N2039 0.985 . S
H2046 N2043 0.984 . S
H2047 N2043 0.985 . S
H2048 N2042 0.984 . S
H2049 N2042 0.984 . S
H2050 N2038 0.984 . S
H2051 N2038 0.985 . S
C2052 C2053 1.363 . S
C2052 C2058 1.379 . S
C2052 N2060 1.356 . S
C2053 C2052 1.363 . S
C2053 C2059 1.363 . S
C2054 C2055 1.363 . S
C2054 C2059 1.379 . S
C2054 N2061 1.356 . S
C2055 C2054 1.363 . S
C2055 C2058 1.363 . S
N2056 C2058 1.356 . S
N2056 H2068 0.984 . S
N2056 H2069 0.985 . S
N2057 C2059 1.356 . S
N2057 H2062 0.984 . S
N2057 H2063 0.985 . S
C2058 C2052 1.379 . S
C2058 C2055 1.363 . S
C2058 N2056 1.356 . S
C2059 C2053 1.363 . S
C2059 C2054 1.379 . S
C2059 N2057 1.356 . S
N2060 C2052 1.356 . S
N2060 H2066 0.984 . S
N2060 H2067 0.984 . S
N2061 C2054 1.356 . S
N2061 H2064 0.984 . S
N2061 H2065 0.985 . S
H2062 N2057 0.984 . S
H2063 N2057 0.985 . S
H2064 N2061 0.984 . S
H2065 N2061 0.985 . S
H2066 N2060 0.984 . S
H2067 N2060 0.984 . S
H2068 N2056 0.984 . S
H2069 N2056 0.985 . S
C2070 C2071 1.363 . S
C2070 C2076 1.379 . S
C2070 N2078 1.356 . S
C2071 C2070 1.363 . S
C2071 C2077 1.363 . S
C2072 C2073 1.363 . S
C2072 C2077 1.379 . S
C2072 N2079 1.356 . S
C2073 C2072 1.363 . S
C2073 C2076 1.363 . S
N2074 C2076 1.356 1_455 S
N2074 H2086 0.984 . S
N2074 H2087 0.985 . S
N2075 C2077 1.356 . S
N2075 H2080 0.984 . S
N2075 H2081 0.985 . S
C2076 C2070 1.379 . S
C2076 C2073 1.363 . S
C2076 N2074 1.356 1_655 S
C2077 C2071 1.363 . S
C2077 C2072 1.379 . S
C2077 N2075 1.356 . S
N2078 C2070 1.356 . S
N2078 H2084 0.984 . S
N2078 H2085 0.984 . S
N2079 C2072 1.356 . S
N2079 H2082 0.984 1_655 S
N2079 H2083 0.985 . S
H2080 N2075 0.984 . S
H2081 N2075 0.985 . S
H2082 N2079 0.984 1_455 S
H2083 N2079 0.985 . S
H2084 N2078 0.984 . S
H2085 N2078 0.984 . S
H2086 N2074 0.984 . S
H2087 N2074 0.985 . S
C2088 C2089 1.363 . S
C2088 C2094 1.379 . S
C2088 N2096 1.356 . S
C2089 C2088 1.363 . S
C2089 C2095 1.363 . S
C2090 C2091 1.363 . S
C2090 C2095 1.379 . S
C2090 N2097 1.356 . S
C2091 C2090 1.363 . S
C2091 C2094 1.363 . S
N2092 C2094 1.356 . S
N2092 H2104 0.984 . S
N2092 H2105 0.985 . S
N2093 C2095 1.356 . S
N2093 H2098 0.984 . S
N2093 H2099 0.985 . S
C2094 C2088 1.379 . S
C2094 C2091 1.363 . S
C2094 N2092 1.356 . S
C2095 C2089 1.363 . S
C2095 C2090 1.379 . S
C2095 N2093 1.356 . S
N2096 C2088 1.356 . S
N2096 H2102 0.984 . S
N2096 H2103 0.984 . S
N2097 C2090 1.356 . S
N2097 H2100 0.984 . S
N2097 H2101 0.985 . S
H2098 N2093 0.984 . S
H2099 N2093 0.985 . S
H2100 N2097 0.984 . S
H2101 N2097 0.985 . S
H2102 N2096 0.984 . S
H2103 N2096 0.984 . S
H2104 N2092 0.984 . S
H2105 N2092 0.985 . S
C2106 C2107 1.363 . S
C2106 C2112 1.379 . S
C2106 N2114 1.356 . S
C2107 C2106 1.363 . S
C2107 C2113 1.363 . S
C2108 C2109 1.363 . S
C2108 C2113 1.379 . S
C2108 N2115 1.356 . S
C2109 C2108 1.363 . S
C2109 C2112 1.363 . S
N2110 C2112 1.356 . S
N2110 H2122 0.984 . S
N2110 H2123 0.985 . S
N2111 C2113 1.356 . S
N2111 H2116 0.984 . S
N2111 H2117 0.985 . S
C2112 C2106 1.379 . S
C2112 C2109 1.363 . S
C2112 N2110 1.356 . S
C2113 C2107 1.363 . S
C2113 C2108 1.379 . S
C2113 N2111 1.356 . S
N2114 C2106 1.356 . S
N2114 H2120 0.984 . S
N2114 H2121 0.984 . S
N2115 C2108 1.356 . S
N2115 H2118 0.984 . S
N2115 H2119 0.985 . S
H2116 N2111 0.984 . S
H2117 N2111 0.985 . S
H2118 N2115 0.984 . S
H2119 N2115 0.985 . S
H2120 N2114 0.984 . S
H2121 N2114 0.984 . S
H2122 N2110 0.984 . S
H2123 N2110 0.985 . S
C2124 C2125 1.363 . S
C2124 C2130 1.379 . S
C2124 N2132 1.356 . S
C2125 C2124 1.363 . S
C2125 C2131 1.363 . S
C2126 C2127 1.363 . S
C2126 C2131 1.379 . S
C2126 N2133 1.356 . S
C2127 C2126 1.363 . S
C2127 C2130 1.363 . S
N2128 C2130 1.356 . S
N2128 H2140 0.984 . S
N2128 H2141 0.985 . S
N2129 C2131 1.356 . S
N2129 H2134 0.984 . S
N2129 H2135 0.985 . S
C2130 C2124 1.379 . S
C2130 C2127 1.363 . S
C2130 N2128 1.356 . S
C2131 C2125 1.363 . S
C2131 C2126 1.379 . S
C2131 N2129 1.356 . S
N2132 C2124 1.356 . S
N2132 H2138 0.984 . S
N2132 H2139 0.984 . S
N2133 C2126 1.356 . S
N2133 H2136 0.984 . S
N2133 H2137 0.985 . S
H2134 N2129 0.984 . S
H2135 N2129 0.985 . S
H2136 N2133 0.984 . S
H2137 N2133 0.985 . S
H2138 N2132 0.984 . S
H2139 N2132 0.984 . S
H2140 N2128 0.984 . S
H2141 N2128 0.985 . S
C2142 C2143 1.363 . S
C2142 C2148 1.379 . S
C2142 N2150 1.356 . S
C2143 C2142 1.363 . S
C2143 C2149 1.363 . S
C2144 C2145 1.363 . S
C2144 C2149 1.379 . S
C2144 N2151 1.356 . S
C2145 C2144 1.363 . S
C2145 C2148 1.363 . S
N2146 C2148 1.356 . S
N2146 H2158 0.984 . S
N2146 H2159 0.985 . S
N2147 C2149 1.356 . S
N2147 H2152 0.984 . S
N2147 H2153 0.985 . S
C2148 C2142 1.379 . S
C2148 C2145 1.363 . S
C2148 N2146 1.356 . S
C2149 C2143 1.363 . S
C2149 C2144 1.379 . S
C2149 N2147 1.356 . S
N2150 C2142 1.356 . S
N2150 H2156 0.984 . S
N2150 H2157 0.984 . S
N2151 C2144 1.356 . S
N2151 H2154 0.984 . S
N2151 H2155 0.985 . S
H2152 N2147 0.984 . S
H2153 N2147 0.985 . S
H2154 N2151 0.984 . S
H2155 N2151 0.985 . S
H2156 N2150 0.984 . S
H2157 N2150 0.984 . S
H2158 N2146 0.984 . S
H2159 N2146 0.985 . S
C2160 C2161 1.363 . S
C2160 C2166 1.379 . S
C2160 N2168 1.356 . S
C2161 C2160 1.363 . S
C2161 C2167 1.363 . S
C2162 C2163 1.363 . S
C2162 C2167 1.379 . S
C2162 N2169 1.356 . S
C2163 C2162 1.363 . S
C2163 C2166 1.363 . S
N2164 C2166 1.356 . S
N2164 H2176 0.984 . S
N2164 H2177 0.985 . S
N2165 C2167 1.356 . S
N2165 H2170 0.984 . S
N2165 H2171 0.985 . S
C2166 C2160 1.379 . S
C2166 C2163 1.363 . S
C2166 N2164 1.356 . S
C2167 C2161 1.363 . S
C2167 C2162 1.379 . S
C2167 N2165 1.356 . S
N2168 C2160 1.356 . S
N2168 H2174 0.984 . S
N2168 H2175 0.984 . S
N2169 C2162 1.356 . S
N2169 H2172 0.984 . S
N2169 H2173 0.985 . S
H2170 N2165 0.984 . S
H2171 N2165 0.985 . S
H2172 N2169 0.984 . S
H2173 N2169 0.985 . S
H2174 N2168 0.984 . S
H2175 N2168 0.984 . S
H2176 N2164 0.984 . S
H2177 N2164 0.985 . S
C2178 C2179 1.363 . S
C2178 C2184 1.379 . S
C2178 N2186 1.356 . S
C2179 C2178 1.363 . S
C2179 C2185 1.363 . S
C2180 C2181 1.363 . S
C2180 C2185 1.379 . S
C2180 N2187 1.356 . S
C2181 C2180 1.363 . S
C2181 C2184 1.363 . S
N2182 C2184 1.356 . S
N2182 H2194 0.984 . S
N2182 H2195 0.985 . S
N2183 C2185 1.356 . S
N2183 H2188 0.984 . S
N2183 H2189 0.985 . S
C2184 C2178 1.379 . S
C2184 C2181 1.363 . S
C2184 N2182 1.356 . S
C2185 C2179 1.363 . S
C2185 C2180 1.379 . S
C2185 N2183 1.356 . S
N2186 C2178 1.356 . S
N2186 H2192 0.984 . S
N2186 H2193 0.984 . S
N2187 C2180 1.356 . S
N2187 H2190 0.984 . S
N2187 H2191 0.985 . S
H2188 N2183 0.984 . S
H2189 N2183 0.985 . S
H2190 N2187 0.984 . S
H2191 N2187 0.985 . S
H2192 N2186 0.984 . S
H2193 N2186 0.984 . S
H2194 N2182 0.984 . S
H2195 N2182 0.985 . S
C2196 C2197 1.363 . S
C2196 C2202 1.379 . S
C2196 N2204 1.356 . S
C2197 C2196 1.363 . S
C2197 C2203 1.363 . S
C2198 C2199 1.363 . S
C2198 C2203 1.379 . S
C2198 N2205 1.356 . S
C2199 C2198 1.363 . S
C2199 C2202 1.363 . S
N2200 C2202 1.356 . S
N2200 H2212 0.984 . S
N2200 H2213 0.985 . S
N2201 C2203 1.356 . S
N2201 H2206 0.984 . S
N2201 H2207 0.985 . S
C2202 C2196 1.379 . S
C2202 C2199 1.363 . S
C2202 N2200 1.356 . S
C2203 C2197 1.363 . S
C2203 C2198 1.379 . S
C2203 N2201 1.356 . S
N2204 C2196 1.356 . S
N2204 H2210 0.984 . S
N2204 H2211 0.984 . S
N2205 C2198 1.356 . S
N2205 H2208 0.984 . S
N2205 H2209 0.985 . S
H2206 N2201 0.984 . S
H2207 N2201 0.985 . S
H2208 N2205 0.984 . S
H2209 N2205 0.985 . S
H2210 N2204 0.984 . S
H2211 N2204 0.984 . S
H2212 N2200 0.984 . S
H2213 N2200 0.985 . S
C2214 C2215 1.363 . S
C2214 C2220 1.379 . S
C2214 N2222 1.356 . S
C2215 C2214 1.363 . S
C2215 C2221 1.363 . S
C2216 C2217 1.363 . S
C2216 C2221 1.379 . S
C2216 N2223 1.356 . S
C2217 C2216 1.363 . S
C2217 C2220 1.363 . S
N2218 C2220 1.356 . S
N2218 H2230 0.984 . S
N2218 H2231 0.985 . S
N2219 C2221 1.356 . S
N2219 H2224 0.984 . S
N2219 H2225 0.985 . S
C2220 C2214 1.379 . S
C2220 C2217 1.363 . S
C2220 N2218 1.356 . S
C2221 C2215 1.363 . S
C2221 C2216 1.379 . S
C2221 N2219 1.356 . S
N2222 C2214 1.356 . S
N2222 H2228 0.984 . S
N2222 H2229 0.984 . S
N2223 C2216 1.356 . S
N2223 H2226 0.984 . S
N2223 H2227 0.985 . S
H2224 N2219 0.984 . S
H2225 N2219 0.985 . S
H2226 N2223 0.984 . S
H2227 N2223 0.985 . S
H2228 N2222 0.984 . S
H2229 N2222 0.984 . S
H2230 N2218 0.984 . S
H2231 N2218 0.985 . S
C2232 C2233 1.363 . S
C2232 C2238 1.379 . S
C2232 N2240 1.356 . S
C2233 C2232 1.363 . S
C2233 C2239 1.363 . S
C2234 C2235 1.363 . S
C2234 C2239 1.379 . S
C2234 N2241 1.356 . S
C2235 C2234 1.363 . S
C2235 C2238 1.363 . S
N2236 C2238 1.356 . S
N2236 H2248 0.984 . S
N2236 H2249 0.985 . S
N2237 C2239 1.356 . S
N2237 H2242 0.984 . S
N2237 H2243 0.985 . S
C2238 C2232 1.379 . S
C2238 C2235 1.363 . S
C2238 N2236 1.356 . S
C2239 C2233 1.363 . S
C2239 C2234 1.379 . S
C2239 N2237 1.356 . S
N2240 C2232 1.356 . S
N2240 H2246 0.984 . S
N2240 H2247 0.984 . S
N2241 C2234 1.356 . S
N2241 H2244 0.984 . S
N2241 H2245 0.985 . S
H2242 N2237 0.984 . S
H2243 N2237 0.985 . S
H2244 N2241 0.984 . S
H2245 N2241 0.985 . S
H2246 N2240 0.984 . S
H2247 N2240 0.984 . S
H2248 N2236 0.984 . S
H2249 N2236 0.985 . S
C2250 C2251 1.363 . S
C2250 C2256 1.379 . S
C2250 N2258 1.356 . S
C2251 C2250 1.363 . S
C2251 C2257 1.363 . S
C2252 C2253 1.363 . S
C2252 C2257 1.379 . S
C2252 N2259 1.356 . S
C2253 C2252 1.363 . S
C2253 C2256 1.363 . S
N2254 C2256 1.356 . S
N2254 H2266 0.984 . S
N2254 H2267 0.985 . S
N2255 C2257 1.356 . S
N2255 H2260 0.984 . S
N2255 H2261 0.985 . S
C2256 C2250 1.379 . S
C2256 C2253 1.363 . S
C2256 N2254 1.356 . S
C2257 C2251 1.363 . S
C2257 C2252 1.379 . S
C2257 N2255 1.356 . S
N2258 C2250 1.356 . S
N2258 H2264 0.984 . S
N2258 H2265 0.984 . S
N2259 C2252 1.356 . S
N2259 H2262 0.984 . S
N2259 H2263 0.985 . S
H2260 N2255 0.984 . S
H2261 N2255 0.985 . S
H2262 N2259 0.984 . S
H2263 N2259 0.985 . S
H2264 N2258 0.984 . S
H2265 N2258 0.984 . S
H2266 N2254 0.984 . S
H2267 N2254 0.985 . S
C2268 C2269 1.363 . S
C2268 C2274 1.379 . S
C2268 N2276 1.356 . S
C2269 C2268 1.363 . S
C2269 C2275 1.363 . S
C2270 C2271 1.363 . S
C2270 C2275 1.379 . S
C2270 N2277 1.356 . S
C2271 C2270 1.363 . S
C2271 C2274 1.363 . S
N2272 C2274 1.356 . S
N2272 H2284 0.984 . S
N2272 H2285 0.985 . S
N2273 C2275 1.356 . S
N2273 H2278 0.984 . S
N2273 H2279 0.985 . S
C2274 C2268 1.379 . S
C2274 C2271 1.363 . S
C2274 N2272 1.356 . S
C2275 C2269 1.363 . S
C2275 C2270 1.379 . S
C2275 N2273 1.356 . S
N2276 C2268 1.356 . S
N2276 H2282 0.984 . S
N2276 H2283 0.984 . S
N2277 C2270 1.356 . S
N2277 H2280 0.984 . S
N2277 H2281 0.985 . S
H2278 N2273 0.984 . S
H2279 N2273 0.985 . S
H2280 N2277 0.984 . S
H2281 N2277 0.985 . S
H2282 N2276 0.984 . S
H2283 N2276 0.984 . S
H2284 N2272 0.984 . S
H2285 N2272 0.985 . S
C2286 C2287 1.363 . S
C2286 C2292 1.379 . S
C2286 N2294 1.356 . S
C2287 C2286 1.363 . S
C2287 C2293 1.363 . S
C2288 C2289 1.363 . S
C2288 C2293 1.379 . S
C2288 N2295 1.356 . S
C2289 C2288 1.363 . S
C2289 C2292 1.363 . S
N2290 C2292 1.356 . S
N2290 H2302 0.984 . S
N2290 H2303 0.985 . S
N2291 C2293 1.356 . S
N2291 H2296 0.984 . S
N2291 H2297 0.985 . S
C2292 C2286 1.379 . S
C2292 C2289 1.363 . S
C2292 N2290 1.356 . S
C2293 C2287 1.363 . S
C2293 C2288 1.379 . S
C2293 N2291 1.356 . S
N2294 C2286 1.356 . S
N2294 H2300 0.984 . S
N2294 H2301 0.984 . S
N2295 C2288 1.356 . S
N2295 H2298 0.984 . S
N2295 H2299 0.985 . S
H2296 N2291 0.984 . S
H2297 N2291 0.985 . S
H2298 N2295 0.984 . S
H2299 N2295 0.985 . S
H2300 N2294 0.984 . S
H2301 N2294 0.984 . S
H2302 N2290 0.984 . S
H2303 N2290 0.985 . S
C2304 C2305 1.363 . S
C2304 C2310 1.379 . S
C2304 N2312 1.356 . S
C2305 C2304 1.363 . S
C2305 C2311 1.363 . S
C2306 C2307 1.363 . S
C2306 C2311 1.379 . S
C2306 N2313 1.356 . S
C2307 C2306 1.363 . S
C2307 C2310 1.363 . S
N2308 C2310 1.356 . S
N2308 H2320 0.984 . S
N2308 H2321 0.985 . S
N2309 C2311 1.356 . S
N2309 H2314 0.984 . S
N2309 H2315 0.985 . S
C2310 C2304 1.379 . S
C2310 C2307 1.363 . S
C2310 N2308 1.356 . S
C2311 C2305 1.363 . S
C2311 C2306 1.379 . S
C2311 N2309 1.356 . S
N2312 C2304 1.356 . S
N2312 H2318 0.984 . S
N2312 H2319 0.984 . S
N2313 C2306 1.356 . S
N2313 H2316 0.984 . S
N2313 H2317 0.985 . S
H2314 N2309 0.984 . S
H2315 N2309 0.985 . S
H2316 N2313 0.984 . S
H2317 N2313 0.985 . S
H2318 N2312 0.984 . S
H2319 N2312 0.984 . S
H2320 N2308 0.984 . S
H2321 N2308 0.985 . S
C2322 C2323 1.363 . S
C2322 C2328 1.379 . S
C2322 N2330 1.356 . S
C2323 C2322 1.363 . S
C2323 C2329 1.363 . S
C2324 C2325 1.363 . S
C2324 C2329 1.379 . S
C2324 N2331 1.356 . S
C2325 C2324 1.363 . S
C2325 C2328 1.363 . S
N2326 C2328 1.356 . S
N2326 H2338 0.984 . S
N2326 H2339 0.985 . S
N2327 C2329 1.356 . S
N2327 H2332 0.984 . S
N2327 H2333 0.985 . S
C2328 C2322 1.379 . S
C2328 C2325 1.363 . S
C2328 N2326 1.356 . S
C2329 C2323 1.363 . S
C2329 C2324 1.379 . S
C2329 N2327 1.356 . S
N2330 C2322 1.356 . S
N2330 H2336 0.984 . S
N2330 H2337 0.984 . S
N2331 C2324 1.356 . S
N2331 H2334 0.984 . S
N2331 H2335 0.985 . S
H2332 N2327 0.984 . S
H2333 N2327 0.985 . S
H2334 N2331 0.984 . S
H2335 N2331 0.985 . S
H2336 N2330 0.984 . S
H2337 N2330 0.984 . S
H2338 N2326 0.984 . S
H2339 N2326 0.985 . S
C2340 C2341 1.363 . S
C2340 C2346 1.379 . S
C2340 N2348 1.356 1_565 S
C2341 C2340 1.363 . S
C2341 C2347 1.363 . S
C2342 C2343 1.363 . S
C2342 C2347 1.379 . S
C2342 N2349 1.356 . S
C2343 C2342 1.363 . S
C2343 C2346 1.363 . S
N2344 C2346 1.356 . S
N2344 H2356 0.984 . S
N2344 H2357 0.985 . S
N2345 C2347 1.356 . S
N2345 H2350 0.984 1_565 S
N2345 H2351 0.985 . S
C2346 C2340 1.379 . S
C2346 C2343 1.363 . S
C2346 N2344 1.356 . S
C2347 C2341 1.363 . S
C2347 C2342 1.379 . S
C2347 N2345 1.356 . S
N2348 C2340 1.356 1_545 S
N2348 H2354 0.984 . S
N2348 H2355 0.984 . S
N2349 C2342 1.356 . S
N2349 H2352 0.984 . S
N2349 H2353 0.985 . S
H2350 N2345 0.984 1_545 S
H2351 N2345 0.985 . S
H2352 N2349 0.984 . S
H2353 N2349 0.985 . S
H2354 N2348 0.984 . S
H2355 N2348 0.984 . S
H2356 N2344 0.984 . S
H2357 N2344 0.985 . S
C2358 C2359 1.363 . S
C2358 C2364 1.379 . S
C2358 N2366 1.356 . S
C2359 C2358 1.363 . S
C2359 C2365 1.363 . S
C2360 C2361 1.363 . S
C2360 C2365 1.379 . S
C2360 N2367 1.356 . S
C2361 C2360 1.363 . S
C2361 C2364 1.363 . S
N2362 C2364 1.356 . S
N2362 H2374 0.984 . S
N2362 H2375 0.985 . S
N2363 C2365 1.356 . S
N2363 H2368 0.984 . S
N2363 H2369 0.985 . S
C2364 C2358 1.379 . S
C2364 C2361 1.363 . S
C2364 N2362 1.356 . S
C2365 C2359 1.363 . S
C2365 C2360 1.379 . S
C2365 N2363 1.356 . S
N2366 C2358 1.356 . S
N2366 H2372 0.984 . S
N2366 H2373 0.984 . S
N2367 C2360 1.356 . S
N2367 H2370 0.984 . S
N2367 H2371 0.985 . S
H2368 N2363 0.984 . S
H2369 N2363 0.985 . S
H2370 N2367 0.984 . S
H2371 N2367 0.985 . S
H2372 N2366 0.984 . S
H2373 N2366 0.984 . S
H2374 N2362 0.984 . S
H2375 N2362 0.985 . S
C2376 C2377 1.363 . S
C2376 C2382 1.379 . S
C2376 N2384 1.356 . S
C2377 C2376 1.363 . S
C2377 C2383 1.363 . S
C2378 C2379 1.363 . S
C2378 C2383 1.379 . S
C2378 N2385 1.356 . S
C2379 C2378 1.363 . S
C2379 C2382 1.363 . S
N2380 C2382 1.356 . S
N2380 H2392 0.984 . S
N2380 H2393 0.985 . S
N2381 C2383 1.356 1_565 S
N2381 H2386 0.984 . S
N2381 H2387 0.985 . S
C2382 C2376 1.379 . S
C2382 C2379 1.363 . S
C2382 N2380 1.356 . S
C2383 C2377 1.363 . S
C2383 C2378 1.379 . S
C2383 N2381 1.356 1_545 S
N2384 C2376 1.356 . S
N2384 H2390 0.984 . S
N2384 H2391 0.984 1_545 S
N2385 C2378 1.356 . S
N2385 H2388 0.984 . S
N2385 H2389 0.985 . S
H2386 N2381 0.984 . S
H2387 N2381 0.985 . S
H2388 N2385 0.984 . S
H2389 N2385 0.985 . S
H2390 N2384 0.984 . S
H2391 N2384 0.984 1_565 S
H2392 N2380 0.984 . S
H2393 N2380 0.985 . S
C2394 C2395 1.363 . S
C2394 C2400 1.379 . S
C2394 N2402 1.356 . S
C2395 C2394 1.363 . S
C2395 C2401 1.363 . S
C2396 C2397 1.363 . S
C2396 C2401 1.379 . S
C2396 N2403 1.356 . S
C2397 C2396 1.363 . S
C2397 C2400 1.363 . S
N2398 C2400 1.356 . S
N2398 H2410 0.984 . S
N2398 H2411 0.985 . S
N2399 C2401 1.356 . S
N2399 H2404 0.984 . S
N2399 H2405 0.985 . S
C2400 C2394 1.379 . S
C2400 C2397 1.363 . S
C2400 N2398 1.356 . S
C2401 C2395 1.363 . S
C2401 C2396 1.379 . S
C2401 N2399 1.356 . S
N2402 C2394 1.356 . S
N2402 H2408 0.984 . S
N2402 H2409 0.984 . S
N2403 C2396 1.356 . S
N2403 H2406 0.984 . S
N2403 H2407 0.985 . S
H2404 N2399 0.984 . S
H2405 N2399 0.985 . S
H2406 N2403 0.984 . S
H2407 N2403 0.985 . S
H2408 N2402 0.984 . S
H2409 N2402 0.984 . S
H2410 N2398 0.984 . S
H2411 N2398 0.985 . S
C2412 C2413 1.363 . S
C2412 C2418 1.379 . S
C2412 N2420 1.356 . S
C2413 C2412 1.363 . S
C2413 C2419 1.363 . S
C2414 C2415 1.363 . S
C2414 C2419 1.379 . S
C2414 N2421 1.356 . S
C2415 C2414 1.363 . S
C2415 C2418 1.363 . S
N2416 C2418 1.356 1_565 S
N2416 H2428 0.984 . S
N2416 H2429 0.985 . S
N2417 C2419 1.356 . S
N2417 H2422 0.984 . S
N2417 H2423 0.985 . S
C2418 C2412 1.379 . S
C2418 C2415 1.363 . S
C2418 N2416 1.356 1_545 S
C2419 C2413 1.363 . S
C2419 C2414 1.379 . S
C2419 N2417 1.356 . S
N2420 C2412 1.356 . S
N2420 H2426 0.984 . S
N2420 H2427 0.984 . S
N2421 C2414 1.356 . S
N2421 H2424 0.984 1_545 S
N2421 H2425 0.985 . S
H2422 N2417 0.984 . S
H2423 N2417 0.985 . S
H2424 N2421 0.984 1_565 S
H2425 N2421 0.985 . S
H2426 N2420 0.984 . S
H2427 N2420 0.984 . S
H2428 N2416 0.984 . S
H2429 N2416 0.985 . S
C2430 C2431 1.363 . S
C2430 C2436 1.379 . S
C2430 N2438 1.356 . S
C2431 C2430 1.363 . S
C2431 C2437 1.363 . S
C2432 C2433 1.363 . S
C2432 C2437 1.379 . S
C2432 N2439 1.356 . S
C2433 C2432 1.363 . S
C2433 C2436 1.363 . S
N2434 C2436 1.356 . S
N2434 H2446 0.984 . S
N2434 H2447 0.985 . S
N2435 C2437 1.356 . S
N2435 H2440 0.984 . S
N2435 H2441 0.985 . S
C2436 C2430 1.379 . S
C2436 C2433 1.363 . S
C2436 N2434 1.356 . S
C2437 C2431 1.363 . S
C2437 C2432 1.379 . S
C2437 N2435 1.356 . S
N2438 C2430 1.356 . S
N2438 H2444 0.984 . S
N2438 H2445 0.984 . S
N2439 C2432 1.356 . S
N2439 H2442 0.984 . S
N2439 H2443 0.985 . S
H2440 N2435 0.984 . S
H2441 N2435 0.985 . S
H2442 N2439 0.984 . S
H2443 N2439 0.985 . S
H2444 N2438 0.984 . S
H2445 N2438 0.984 . S
H2446 N2434 0.984 . S
H2447 N2434 0.985 . S
C2448 C2449 1.363 . S
C2448 C2454 1.379 . S
C2448 N2456 1.356 . S
C2449 C2448 1.363 . S
C2449 C2455 1.363 . S
C2450 C2451 1.363 . S
C2450 C2455 1.379 . S
C2450 N2457 1.356 . S
C2451 C2450 1.363 . S
C2451 C2454 1.363 . S
N2452 C2454 1.356 . S
N2452 H2464 0.984 . S
N2452 H2465 0.985 . S
N2453 C2455 1.356 . S
N2453 H2458 0.984 . S
N2453 H2459 0.985 . S
C2454 C2448 1.379 . S
C2454 C2451 1.363 . S
C2454 N2452 1.356 . S
C2455 C2449 1.363 . S
C2455 C2450 1.379 . S
C2455 N2453 1.356 . S
N2456 C2448 1.356 . S
N2456 H2462 0.984 . S
N2456 H2463 0.984 . S
N2457 C2450 1.356 . S
N2457 H2460 0.984 . S
N2457 H2461 0.985 . S
H2458 N2453 0.984 . S
H2459 N2453 0.985 . S
H2460 N2457 0.984 . S
H2461 N2457 0.985 . S
H2462 N2456 0.984 . S
H2463 N2456 0.984 . S
H2464 N2452 0.984 . S
H2465 N2452 0.985 . S
C2466 C2467 1.363 . S
C2466 C2472 1.379 . S
C2466 N2474 1.356 . S
C2467 C2466 1.363 . S
C2467 C2473 1.363 . S
C2468 C2469 1.363 . S
C2468 C2473 1.379 . S
C2468 N2475 1.356 . S
C2469 C2468 1.363 . S
C2469 C2472 1.363 . S
N2470 C2472 1.356 . S
N2470 H2482 0.984 . S
N2470 H2483 0.985 . S
N2471 C2473 1.356 . S
N2471 H2476 0.984 . S
N2471 H2477 0.985 . S
C2472 C2466 1.379 . S
C2472 C2469 1.363 . S
C2472 N2470 1.356 . S
C2473 C2467 1.363 . S
C2473 C2468 1.379 . S
C2473 N2471 1.356 . S
N2474 C2466 1.356 . S
N2474 H2480 0.984 . S
N2474 H2481 0.984 . S
N2475 C2468 1.356 . S
N2475 H2478 0.984 . S
N2475 H2479 0.985 . S
H2476 N2471 0.984 . S
H2477 N2471 0.985 . S
H2478 N2475 0.984 . S
H2479 N2475 0.985 . S
H2480 N2474 0.984 . S
H2481 N2474 0.984 . S
H2482 N2470 0.984 . S
H2483 N2470 0.985 . S
C2484 C2485 1.363 . S
C2484 C2490 1.379 . S
C2484 N2492 1.356 . S
C2485 C2484 1.363 . S
C2485 C2491 1.363 . S
C2486 C2487 1.363 . S
C2486 C2491 1.379 . S
C2486 N2493 1.356 . S
C2487 C2486 1.363 . S
C2487 C2490 1.363 . S
N2488 C2490 1.356 . S
N2488 H2500 0.984 . S
N2488 H2501 0.985 . S
N2489 C2491 1.356 . S
N2489 H2494 0.984 . S
N2489 H2495 0.985 . S
C2490 C2484 1.379 . S
C2490 C2487 1.363 . S
C2490 N2488 1.356 . S
C2491 C2485 1.363 . S
C2491 C2486 1.379 . S
C2491 N2489 1.356 . S
N2492 C2484 1.356 . S
N2492 H2498 0.984 . S
N2492 H2499 0.984 . S
N2493 C2486 1.356 . S
N2493 H2496 0.984 . S
N2493 H2497 0.985 . S
H2494 N2489 0.984 . S
H2495 N2489 0.985 . S
H2496 N2493 0.984 . S
H2497 N2493 0.985 . S
H2498 N2492 0.984 . S
H2499 N2492 0.984 . S
H2500 N2488 0.984 . S
H2501 N2488 0.985 . S
C2502 C2503 1.363 . S
C2502 C2508 1.379 1_545 S
C2502 N2510 1.356 . S
C2503 C2502 1.363 . S
C2503 C2509 1.363 1_545 S
C2504 C2505 1.363 . S
C2504 C2509 1.379 . S
C2504 N2511 1.356 . S
C2505 C2504 1.363 . S
C2505 C2508 1.363 . S
N2506 C2508 1.356 . S
N2506 H2518 0.984 . S
N2506 H2519 0.985 . S
N2507 C2509 1.356 1_545 S
N2507 H2512 0.984 . S
N2507 H2513 0.985 . S
C2508 C2502 1.379 1_565 S
C2508 C2505 1.363 . S
C2508 N2506 1.356 . S
C2509 C2503 1.363 1_565 S
C2509 C2504 1.379 . S
C2509 N2507 1.356 1_565 S
N2510 C2502 1.356 . S
N2510 H2516 0.984 . S
N2510 H2517 0.984 . S
N2511 C2504 1.356 . S
N2511 H2514 0.984 . S
N2511 H2515 0.985 . S
H2512 N2507 0.984 . S
H2513 N2507 0.985 . S
H2514 N2511 0.984 . S
H2515 N2511 0.985 . S
H2516 N2510 0.984 . S
H2517 N2510 0.984 . S
H2518 N2506 0.984 . S
H2519 N2506 0.985 . S
C2520 C2521 1.363 . S
C2520 C2526 1.379 . S
C2520 N2528 1.356 . S
C2521 C2520 1.363 . S
C2521 C2527 1.363 . S
C2522 C2523 1.363 . S
C2522 C2527 1.379 . S
C2522 N2529 1.356 . S
C2523 C2522 1.363 . S
C2523 C2526 1.363 . S
N2524 C2526 1.356 . S
N2524 H2536 0.984 . S
N2524 H2537 0.985 . S
N2525 C2527 1.356 . S
N2525 H2530 0.984 . S
N2525 H2531 0.985 . S
C2526 C2520 1.379 . S
C2526 C2523 1.363 . S
C2526 N2524 1.356 . S
C2527 C2521 1.363 . S
C2527 C2522 1.379 . S
C2527 N2525 1.356 . S
N2528 C2520 1.356 . S
N2528 H2534 0.984 . S
N2528 H2535 0.984 . S
N2529 C2522 1.356 . S
N2529 H2532 0.984 . S
N2529 H2533 0.985 . S
H2530 N2525 0.984 . S
H2531 N2525 0.985 . S
H2532 N2529 0.984 . S
H2533 N2529 0.985 . S
H2534 N2528 0.984 . S
H2535 N2528 0.984 . S
H2536 N2524 0.984 . S
H2537 N2524 0.985 . S
C2538 C2539 1.363 . S
C2538 C2544 1.379 . S
C2538 N2546 1.356 . S
C2539 C2538 1.363 . S
C2539 C2545 1.363 . S
C2540 C2541 1.363 . S
C2540 C2545 1.379 . S
C2540 N2547 1.356 . S
C2541 C2540 1.363 . S
C2541 C2544 1.363 . S
N2542 C2544 1.356 . S
N2542 H2554 0.984 . S
N2542 H2555 0.985 . S
N2543 C2545 1.356 . S
N2543 H2548 0.984 . S
N2543 H2549 0.985 . S
C2544 C2538 1.379 . S
C2544 C2541 1.363 . S
C2544 N2542 1.356 . S
C2545 C2539 1.363 . S
C2545 C2540 1.379 . S
C2545 N2543 1.356 . S
N2546 C2538 1.356 . S
N2546 H2552 0.984 . S
N2546 H2553 0.984 . S
N2547 C2540 1.356 . S
N2547 H2550 0.984 . S
N2547 H2551 0.985 . S
H2548 N2543 0.984 . S
H2549 N2543 0.985 . S
H2550 N2547 0.984 . S
H2551 N2547 0.985 . S
H2552 N2546 0.984 . S
H2553 N2546 0.984 . S
H2554 N2542 0.984 . S
H2555 N2542 0.985 . S
C2556 C2557 1.363 . S
C2556 C2562 1.379 . S
C2556 N2564 1.356 . S
C2557 C2556 1.363 . S
C2557 C2563 1.363 . S
C2558 C2559 1.363 . S
C2558 C2563 1.379 . S
C2558 N2565 1.356 . S
C2559 C2558 1.363 . S
C2559 C2562 1.363 . S
N2560 C2562 1.356 . S
N2560 H2572 0.984 . S
N2560 H2573 0.985 . S
N2561 C2563 1.356 . S
N2561 H2566 0.984 . S
N2561 H2567 0.985 . S
C2562 C2556 1.379 . S
C2562 C2559 1.363 . S
C2562 N2560 1.356 . S
C2563 C2557 1.363 . S
C2563 C2558 1.379 . S
C2563 N2561 1.356 . S
N2564 C2556 1.356 . S
N2564 H2570 0.984 . S
N2564 H2571 0.984 . S
N2565 C2558 1.356 . S
N2565 H2568 0.984 . S
N2565 H2569 0.985 . S
H2566 N2561 0.984 . S
H2567 N2561 0.985 . S
H2568 N2565 0.984 . S
H2569 N2565 0.985 . S
H2570 N2564 0.984 . S
H2571 N2564 0.984 . S
H2572 N2560 0.984 . S
H2573 N2560 0.985 . S
C2574 C2575 1.363 . S
C2574 C2580 1.379 1_565 S
C2574 N2582 1.356 . S
C2575 C2574 1.363 . S
C2575 C2581 1.363 . S
C2576 C2577 1.363 1_565 S
C2576 C2581 1.379 . S
C2576 N2583 1.367 . S
C2577 C2576 1.363 1_545 S
C2577 C2580 1.363 . S
N2578 C2580 1.356 . S
N2578 H2590 0.984 . S
N2578 H2591 0.985 . S
N2579 C2581 1.356 . S
N2579 H2584 0.984 . S
N2579 H2585 0.985 . S
C2580 C2574 1.379 1_545 S
C2580 C2577 1.363 . S
C2580 N2578 1.356 . S
C2581 C2575 1.363 . S
C2581 C2576 1.379 . S
C2581 N2579 1.356 . S
N2582 C2574 1.356 . S
N2582 H2588 0.984 . S
N2582 H2589 0.984 . S
N2583 C2576 1.367 . S
N2583 H2586 0.958 1_565 S
N2583 H2587 1.001 . S
H2584 N2579 0.984 . S
H2585 N2579 0.985 . S
H2586 N2583 0.958 1_545 S
H2587 N2583 1.001 . S
H2588 N2582 0.984 . S
H2589 N2582 0.984 . S
H2590 N2578 0.984 . S
H2591 N2578 0.985 . S
C2592 C2593 1.363 . S
C2592 C2598 1.379 . S
C2592 N2600 1.356 . S
C2593 C2592 1.363 . S
C2593 C2599 1.363 . S
C2594 C2595 1.363 . S
C2594 C2599 1.379 . S
C2594 N2601 1.356 . S
C2595 C2594 1.363 . S
C2595 C2598 1.363 . S
N2596 C2598 1.356 . S
N2596 H2608 0.984 . S
N2596 H2609 0.985 . S
N2597 C2599 1.356 . S
N2597 H2602 0.984 . S
N2597 H2603 0.985 . S
C2598 C2592 1.379 . S
C2598 C2595 1.363 . S
C2598 N2596 1.356 . S
C2599 C2593 1.363 . S
C2599 C2594 1.379 . S
C2599 N2597 1.356 . S
N2600 C2592 1.356 . S
N2600 H2606 0.984 . S
N2600 H2607 0.984 . S
N2601 C2594 1.356 . S
N2601 H2604 0.984 . S
N2601 H2605 0.985 . S
H2602 N2597 0.984 . S
H2603 N2597 0.985 . S
H2604 N2601 0.984 . S
H2605 N2601 0.985 . S
H2606 N2600 0.984 . S
H2607 N2600 0.984 . S
H2608 N2596 0.984 . S
H2609 N2596 0.985 . S
C2610 C2611 1.363 . S
C2610 C2616 1.379 . S
C2610 N2618 1.356 . S
C2611 C2610 1.363 . S
C2611 C2617 1.363 . S
C2612 C2613 1.363 . S
C2612 C2617 1.379 . S
C2612 N2619 1.356 . S
C2613 C2612 1.363 . S
C2613 C2616 1.363 . S
N2614 C2616 1.356 . S
N2614 H2626 0.984 . S
N2614 H2627 0.985 . S
N2615 C2617 1.356 . S
N2615 H2620 0.984 . S
N2615 H2621 0.985 . S
C2616 C2610 1.379 . S
C2616 C2613 1.363 . S
C2616 N2614 1.356 . S
C2617 C2611 1.363 . S
C2617 C2612 1.379 . S
C2617 N2615 1.356 . S
N2618 C2610 1.356 . S
N2618 H2624 0.984 . S
N2618 H2625 0.984 . S
N2619 C2612 1.356 . S
N2619 H2622 0.984 . S
N2619 H2623 0.985 . S
H2620 N2615 0.984 . S
H2621 N2615 0.985 . S
H2622 N2619 0.984 . S
H2623 N2619 0.985 . S
H2624 N2618 0.984 . S
H2625 N2618 0.984 . S
H2626 N2614 0.984 . S
H2627 N2614 0.985 . S
C2628 C2629 1.363 . S
C2628 C2634 1.379 . S
C2628 N2636 1.356 . S
C2629 C2628 1.363 . S
C2629 C2635 1.363 . S
C2630 C2631 1.363 . S
C2630 C2635 1.379 . S
C2630 N2637 1.356 . S
C2631 C2630 1.363 . S
C2631 C2634 1.363 . S
N2632 C2634 1.356 . S
N2632 H2644 0.984 . S
N2632 H2645 0.985 . S
N2633 C2635 1.356 . S
N2633 H2638 0.984 . S
N2633 H2639 0.985 . S
C2634 C2628 1.379 . S
C2634 C2631 1.363 . S
C2634 N2632 1.356 . S
C2635 C2629 1.363 . S
C2635 C2630 1.379 . S
C2635 N2633 1.356 . S
N2636 C2628 1.356 . S
N2636 H2642 0.984 . S
N2636 H2643 0.984 . S
N2637 C2630 1.356 . S
N2637 H2640 0.984 . S
N2637 H2641 0.985 . S
H2638 N2633 0.984 . S
H2639 N2633 0.985 . S
H2640 N2637 0.984 . S
H2641 N2637 0.985 . S
H2642 N2636 0.984 . S
H2643 N2636 0.984 . S
H2644 N2632 0.984 . S
H2645 N2632 0.985 . S
C2646 C2647 1.363 . S
C2646 C2652 1.379 . S
C2646 N2654 1.356 . S
C2647 C2646 1.363 . S
C2647 C2653 1.363 . S
C2648 C2649 1.363 . S
C2648 C2653 1.379 . S
C2648 N2655 1.356 . S
C2649 C2648 1.363 . S
C2649 C2652 1.363 . S
N2650 C2652 1.356 . S
N2650 H2662 0.984 . S
N2650 H2663 0.985 . S
N2651 C2653 1.356 . S
N2651 H2656 0.984 . S
N2651 H2657 0.985 . S
C2652 C2646 1.379 . S
C2652 C2649 1.363 . S
C2652 N2650 1.356 . S
C2653 C2647 1.363 . S
C2653 C2648 1.379 . S
C2653 N2651 1.356 . S
N2654 C2646 1.356 . S
N2654 H2660 0.984 . S
N2654 H2661 0.984 . S
N2655 C2648 1.356 . S
N2655 H2658 0.984 . S
N2655 H2659 0.985 . S
H2656 N2651 0.984 . S
H2657 N2651 0.985 . S
H2658 N2655 0.984 . S
H2659 N2655 0.985 . S
H2660 N2654 0.984 . S
H2661 N2654 0.984 . S
H2662 N2650 0.984 . S
H2663 N2650 0.985 . S
C2664 C2665 1.363 . S
C2664 C2670 1.379 . S
C2664 N2672 1.356 . S
C2665 C2664 1.363 . S
C2665 C2671 1.363 . S
C2666 C2667 1.363 . S
C2666 C2671 1.379 . S
C2666 N2673 1.356 . S
C2667 C2666 1.363 . S
C2667 C2670 1.363 . S
N2668 C2670 1.356 . S
N2668 H2680 0.984 . S
N2668 H2681 0.985 . S
N2669 C2671 1.356 . S
N2669 H2674 0.984 . S
N2669 H2675 0.985 . S
C2670 C2664 1.379 . S
C2670 C2667 1.363 . S
C2670 N2668 1.356 . S
C2671 C2665 1.363 . S
C2671 C2666 1.379 . S
C2671 N2669 1.356 . S
N2672 C2664 1.356 . S
N2672 H2678 0.984 . S
N2672 H2679 0.984 . S
N2673 C2666 1.356 . S
N2673 H2676 0.984 . S
N2673 H2677 0.985 . S
H2674 N2669 0.984 . S
H2675 N2669 0.985 . S
H2676 N2673 0.984 . S
H2677 N2673 0.985 . S
H2678 N2672 0.984 . S
H2679 N2672 0.984 . S
H2680 N2668 0.984 . S
H2681 N2668 0.985 . S
C2682 C2683 1.363 1_455 S
C2682 C2688 1.379 . S
C2682 N2690 1.356 1_455 S
C2683 C2682 1.363 1_655 S
C2683 C2689 1.363 . S
C2684 C2685 1.363 . S
C2684 C2689 1.379 1_455 S
C2684 N2691 1.356 . S
C2685 C2684 1.363 . S
C2685 C2688 1.363 . S
N2686 C2688 1.356 . S
N2686 H2698 0.984 . S
N2686 H2699 0.985 . S
N2687 C2689 1.356 . S
N2687 H2692 0.984 . S
N2687 H2693 0.985 . S
C2688 C2682 1.379 . S
C2688 C2685 1.363 . S
C2688 N2686 1.356 . S
C2689 C2683 1.363 . S
C2689 C2684 1.379 1_655 S
C2689 N2687 1.356 . S
N2690 C2682 1.356 1_655 S
N2690 H2696 0.984 1_655 S
N2690 H2697 0.984 . S
N2691 C2684 1.356 . S
N2691 H2694 0.984 . S
N2691 H2695 0.985 . S
H2692 N2687 0.984 . S
H2693 N2687 0.985 . S
H2694 N2691 0.984 . S
H2695 N2691 0.985 . S
H2696 N2690 0.984 1_455 S
H2697 N2690 0.984 . S
H2698 N2686 0.984 . S
H2699 N2686 0.985 . S
C2700 C2701 1.363 . S
C2700 C2706 1.379 . S
C2700 N2708 1.356 . S
C2701 C2700 1.363 . S
C2701 C2707 1.363 . S
C2702 C2703 1.363 . S
C2702 C2707 1.379 . S
C2702 N2709 1.356 . S
C2703 C2702 1.363 . S
C2703 C2706 1.363 . S
N2704 C2706 1.356 . S
N2704 H2716 0.984 . S
N2704 H2717 0.985 . S
N2705 C2707 1.356 . S
N2705 H2710 0.984 . S
N2705 H2711 0.985 . S
C2706 C2700 1.379 . S
C2706 C2703 1.363 . S
C2706 N2704 1.356 . S
C2707 C2701 1.363 . S
C2707 C2702 1.379 . S
C2707 N2705 1.356 . S
N2708 C2700 1.356 . S
N2708 H2714 0.984 . S
N2708 H2715 0.984 . S
N2709 C2702 1.356 . S
N2709 H2712 0.984 . S
N2709 H2713 0.985 . S
H2710 N2705 0.984 . S
H2711 N2705 0.985 . S
H2712 N2709 0.984 . S
H2713 N2709 0.985 . S
H2714 N2708 0.984 . S
H2715 N2708 0.984 . S
H2716 N2704 0.984 . S
H2717 N2704 0.985 . S
C2718 C2719 1.363 . S
C2718 C2724 1.379 . S
C2718 N2726 1.356 . S
C2719 C2718 1.363 . S
C2719 C2725 1.363 . S
C2720 C2721 1.363 . S
C2720 C2725 1.379 1_455 S
C2720 N2727 1.356 . S
C2721 C2720 1.363 . S
C2721 C2724 1.363 1_455 S
N2722 C2724 1.356 1_455 S
N2722 H2734 0.984 1_455 S
N2722 H2735 0.985 . S
N2723 C2725 1.356 . S
N2723 H2728 0.984 . S
N2723 H2729 0.985 . S
C2724 C2718 1.379 . S
C2724 C2721 1.363 1_655 S
C2724 N2722 1.356 1_655 S
C2725 C2719 1.363 . S
C2725 C2720 1.379 1_655 S
C2725 N2723 1.356 . S
N2726 C2718 1.356 . S
N2726 H2732 0.984 . S
N2726 H2733 0.984 . S
N2727 C2720 1.356 . S
N2727 H2730 0.984 . S
N2727 H2731 0.985 . S
H2728 N2723 0.984 . S
H2729 N2723 0.985 . S
H2730 N2727 0.984 . S
H2731 N2727 0.985 . S
H2732 N2726 0.984 . S
H2733 N2726 0.984 . S
H2734 N2722 0.984 1_655 S
H2735 N2722 0.985 . S
C2736 C2737 1.363 . S
C2736 C2742 1.379 . S
C2736 N2744 1.356 . S
C2737 C2736 1.363 . S
C2737 C2743 1.363 . S
C2738 C2739 1.363 . S
C2738 C2743 1.379 . S
C2738 N2745 1.356 . S
C2739 C2738 1.363 . S
C2739 C2742 1.363 . S
N2740 C2742 1.356 . S
N2740 H2752 0.984 . S
N2740 H2753 0.985 . S
N2741 C2743 1.356 . S
N2741 H2746 0.984 . S
N2741 H2747 0.985 . S
C2742 C2736 1.379 . S
C2742 C2739 1.363 . S
C2742 N2740 1.356 . S
C2743 C2737 1.363 . S
C2743 C2738 1.379 . S
C2743 N2741 1.356 . S
N2744 C2736 1.356 . S
N2744 H2750 0.984 . S
N2744 H2751 0.984 . S
N2745 C2738 1.356 . S
N2745 H2748 0.984 . S
N2745 H2749 0.985 . S
H2746 N2741 0.984 . S
H2747 N2741 0.985 . S
H2748 N2745 0.984 . S
H2749 N2745 0.985 . S
H2750 N2744 0.984 . S
H2751 N2744 0.984 . S
H2752 N2740 0.984 . S
H2753 N2740 0.985 . S
C2754 C2755 1.363 . S
C2754 C2760 1.379 . S
C2754 N2762 1.356 . S
C2755 C2754 1.363 . S
C2755 C2761 1.363 . S
C2756 C2757 1.363 . S
C2756 C2761 1.379 . S
C2756 N2763 1.356 . S
C2757 C2756 1.363 . S
C2757 C2760 1.363 . S
N2758 C2760 1.356 . S
N2758 H2770 0.984 . S
N2758 H2771 0.985 . S
N2759 C2761 1.356 . S
N2759 H2764 0.984 . S
N2759 H2765 0.985 . S
C2760 C2754 1.379 . S
C2760 C2757 1.363 . S
C2760 N2758 1.356 . S
C2761 C2755 1.363 . S
C2761 C2756 1.379 . S
C2761 N2759 1.356 . S
N2762 C2754 1.356 . S
N2762 H2768 0.984 . S
N2762 H2769 0.984 . S
N2763 C2756 1.356 . S
N2763 H2766 0.984 . S
N2763 H2767 0.985 . S
H2764 N2759 0.984 . S
H2765 N2759 0.985 . S
H2766 N2763 0.984 . S
H2767 N2763 0.985 . S
H2768 N2762 0.984 . S
H2769 N2762 0.984 . S
H2770 N2758 0.984 . S
H2771 N2758 0.985 . S
C2772 C2773 1.363 1_556 S
C2772 C2778 1.379 . S
C2772 N2780 1.356 1_556 S
C2773 C2772 1.363 1_554 S
C2773 C2779 1.363 . S
C2774 C2775 1.363 . S
C2774 C2779 1.379 1_556 S
C2774 N2781 1.356 . S
C2775 C2774 1.363 . S
C2775 C2778 1.363 . S
N2776 C2778 1.356 . S
N2776 H2788 0.984 . S
N2776 H2789 0.985 . S
N2777 C2779 1.356 . S
N2777 H2782 0.984 . S
N2777 H2783 0.985 . S
C2778 C2772 1.379 . S
C2778 C2775 1.363 . S
C2778 N2776 1.356 . S
C2779 C2773 1.363 . S
C2779 C2774 1.379 1_554 S
C2779 N2777 1.356 . S
N2780 C2772 1.356 1_554 S
N2780 H2786 0.984 1_554 S
N2780 H2787 0.984 . S
N2781 C2774 1.356 . S
N2781 H2784 0.984 . S
N2781 H2785 0.985 . S
H2782 N2777 0.984 . S
H2783 N2777 0.985 . S
H2784 N2781 0.984 . S
H2785 N2781 0.985 . S
H2786 N2780 0.984 1_556 S
H2787 N2780 0.984 . S
H2788 N2776 0.984 . S
H2789 N2776 0.985 . S
C2790 C2791 1.363 . S
C2790 C2796 1.379 . S
C2790 N2798 1.356 . S
C2791 C2790 1.363 . S
C2791 C2797 1.363 . S
C2792 C2793 1.363 . S
C2792 C2797 1.379 . S
C2792 N2799 1.356 . S
C2793 C2792 1.363 . S
C2793 C2796 1.363 . S
N2794 C2796 1.356 . S
N2794 H2806 0.984 . S
N2794 H2807 0.985 . S
N2795 C2797 1.356 . S
N2795 H2800 0.984 . S
N2795 H2801 0.985 . S
C2796 C2790 1.379 . S
C2796 C2793 1.363 . S
C2796 N2794 1.356 . S
C2797 C2791 1.363 . S
C2797 C2792 1.379 . S
C2797 N2795 1.356 . S
N2798 C2790 1.356 . S
N2798 H2804 0.984 . S
N2798 H2805 0.984 . S
N2799 C2792 1.356 . S
N2799 H2802 0.984 . S
N2799 H2803 0.985 . S
H2800 N2795 0.984 . S
H2801 N2795 0.985 . S
H2802 N2799 0.984 . S
H2803 N2799 0.985 . S
H2804 N2798 0.984 . S
H2805 N2798 0.984 . S
H2806 N2794 0.984 . S
H2807 N2794 0.985 . S
C2808 C2809 1.363 . S
C2808 C2814 1.379 . S
C2808 N2816 1.356 . S
C2809 C2808 1.363 . S
C2809 C2815 1.363 . S
C2810 C2811 1.363 . S
C2810 C2815 1.379 . S
C2810 N2817 1.356 . S
C2811 C2810 1.363 . S
C2811 C2814 1.363 . S
N2812 C2814 1.356 . S
N2812 H2824 0.984 . S
N2812 H2825 0.985 . S
N2813 C2815 1.356 . S
N2813 H2818 0.984 . S
N2813 H2819 0.985 . S
C2814 C2808 1.379 . S
C2814 C2811 1.363 . S
C2814 N2812 1.356 . S
C2815 C2809 1.363 . S
C2815 C2810 1.379 . S
C2815 N2813 1.356 . S
N2816 C2808 1.356 . S
N2816 H2822 0.984 . S
N2816 H2823 0.984 . S
N2817 C2810 1.356 . S
N2817 H2820 0.984 . S
N2817 H2821 0.985 . S
H2818 N2813 0.984 . S
H2819 N2813 0.985 . S
H2820 N2817 0.984 . S
H2821 N2817 0.985 . S
H2822 N2816 0.984 . S
H2823 N2816 0.984 . S
H2824 N2812 0.984 . S
H2825 N2812 0.985 . S
C2826 C2827 1.363 . S
C2826 C2832 1.379 . S
C2826 N2834 1.356 . S
C2827 C2826 1.363 . S
C2827 C2833 1.363 . S
C2828 C2829 1.363 . S
C2828 C2833 1.379 . S
C2828 N2835 1.356 . S
C2829 C2828 1.363 . S
C2829 C2832 1.363 . S
N2830 C2832 1.356 . S
N2830 H2842 0.984 . S
N2830 H2843 0.985 . S
N2831 C2833 1.356 . S
N2831 H2836 0.984 . S
N2831 H2837 0.985 . S
C2832 C2826 1.379 . S
C2832 C2829 1.363 . S
C2832 N2830 1.356 . S
C2833 C2827 1.363 . S
C2833 C2828 1.379 . S
C2833 N2831 1.356 . S
N2834 C2826 1.356 . S
N2834 H2840 0.984 . S
N2834 H2841 0.984 . S
N2835 C2828 1.356 . S
N2835 H2838 0.984 . S
N2835 H2839 0.985 . S
H2836 N2831 0.984 . S
H2837 N2831 0.985 . S
H2838 N2835 0.984 . S
H2839 N2835 0.985 . S
H2840 N2834 0.984 . S
H2841 N2834 0.984 . S
H2842 N2830 0.984 . S
H2843 N2830 0.985 . S
C2844 C2845 1.363 . S
C2844 C2850 1.379 . S
C2844 N2852 1.356 . S
C2845 C2844 1.363 . S
C2845 C2851 1.363 . S
C2846 C2847 1.363 . S
C2846 C2851 1.379 . S
C2846 N2853 1.356 . S
C2847 C2846 1.363 . S
C2847 C2850 1.363 . S
N2848 C2850 1.356 . S
N2848 H2860 0.984 . S
N2848 H2861 0.985 . S
N2849 C2851 1.356 . S
N2849 H2854 0.984 . S
N2849 H2855 0.985 . S
C2850 C2844 1.379 . S
C2850 C2847 1.363 . S
C2850 N2848 1.356 . S
C2851 C2845 1.363 . S
C2851 C2846 1.379 . S
C2851 N2849 1.356 . S
N2852 C2844 1.356 . S
N2852 H2858 0.984 . S
N2852 H2859 0.984 . S
N2853 C2846 1.356 . S
N2853 H2856 0.984 . S
N2853 H2857 0.985 . S
H2854 N2849 0.984 . S
H2855 N2849 0.985 . S
H2856 N2853 0.984 . S
H2857 N2853 0.985 . S
H2858 N2852 0.984 . S
H2859 N2852 0.984 . S
H2860 N2848 0.984 . S
H2861 N2848 0.985 . S
C2862 C2863 1.363 . S
C2862 C2868 1.379 . S
C2862 N2870 1.356 . S
C2863 C2862 1.363 . S
C2863 C2869 1.363 . S
C2864 C2865 1.363 . S
C2864 C2869 1.379 . S
C2864 N2871 1.356 . S
C2865 C2864 1.363 . S
C2865 C2868 1.363 . S
N2866 C2868 1.356 . S
N2866 H2878 0.984 . S
N2866 H2879 0.985 . S
N2867 C2869 1.356 . S
N2867 H2872 0.984 . S
N2867 H2873 0.985 . S
C2868 C2862 1.379 . S
C2868 C2865 1.363 . S
C2868 N2866 1.356 . S
C2869 C2863 1.363 . S
C2869 C2864 1.379 . S
C2869 N2867 1.356 . S
N2870 C2862 1.356 . S
N2870 H2876 0.984 . S
N2870 H2877 0.984 . S
N2871 C2864 1.356 . S
N2871 H2874 0.984 . S
N2871 H2875 0.985 . S
H2872 N2867 0.984 . S
H2873 N2867 0.985 . S
H2874 N2871 0.984 . S
H2875 N2871 0.985 . S
H2876 N2870 0.984 . S
H2877 N2870 0.984 . S
H2878 N2866 0.984 . S
H2879 N2866 0.985 . S
C2880 C2881 1.363 . S
C2880 C2886 1.379 . S
C2880 N2888 1.356 . S
C2881 C2880 1.363 . S
C2881 C2887 1.363 . S
C2882 C2883 1.363 . S
C2882 C2887 1.379 . S
C2882 N2889 1.356 . S
C2883 C2882 1.363 . S
C2883 C2886 1.363 . S
N2884 C2886 1.356 . S
N2884 H2896 0.984 . S
N2884 H2897 0.985 . S
N2885 C2887 1.356 . S
N2885 H2890 0.984 . S
N2885 H2891 0.985 . S
C2886 C2880 1.379 . S
C2886 C2883 1.363 . S
C2886 N2884 1.356 . S
C2887 C2881 1.363 . S
C2887 C2882 1.379 . S
C2887 N2885 1.356 . S
N2888 C2880 1.356 . S
N2888 H2894 0.984 . S
N2888 H2895 0.984 . S
N2889 C2882 1.356 . S
N2889 H2892 0.984 . S
N2889 H2893 0.985 . S
H2890 N2885 0.984 . S
H2891 N2885 0.985 . S
H2892 N2889 0.984 . S
H2893 N2889 0.985 . S
H2894 N2888 0.984 . S
H2895 N2888 0.984 . S
H2896 N2884 0.984 . S
H2897 N2884 0.985 . S
C2898 C2899 1.363 . S
C2898 C2904 1.379 1_565 S
C2898 N2906 1.356 . S
C2899 C2898 1.363 . S
C2899 C2905 1.363 1_565 S
C2900 C2901 1.363 . S
C2900 C2905 1.379 . S
C2900 N2907 1.356 . S
C2901 C2900 1.363 . S
C2901 C2904 1.363 . S
N2902 C2904 1.356 . S
N2902 H2914 0.984 . S
N2902 H2915 0.985 . S
N2903 C2905 1.356 1_565 S
N2903 H2908 0.984 . S
N2903 H2909 0.985 . S
C2904 C2898 1.379 1_545 S
C2904 C2901 1.363 . S
C2904 N2902 1.356 . S
C2905 C2899 1.363 1_545 S
C2905 C2900 1.379 . S
C2905 N2903 1.356 1_545 S
N2906 C2898 1.356 . S
N2906 H2912 0.984 . S
N2906 H2913 0.984 . S
N2907 C2900 1.356 . S
N2907 H2910 0.984 . S
N2907 H2911 0.985 . S
H2908 N2903 0.984 . S
H2909 N2903 0.985 . S
H2910 N2907 0.984 . S
H2911 N2907 0.985 . S
H2912 N2906 0.984 . S
H2913 N2906 0.984 . S
H2914 N2902 0.984 . S
H2915 N2902 0.985 . S
C2916 C2917 1.363 . S
C2916 C2922 1.379 . S
C2916 N2924 1.356 . S
C2917 C2916 1.363 . S
C2917 C2923 1.363 . S
C2918 C2919 1.363 . S
C2918 C2923 1.379 . S
C2918 N2925 1.356 . S
C2919 C2918 1.363 . S
C2919 C2922 1.363 . S
N2920 C2922 1.356 . S
N2920 H2932 0.984 . S
N2920 H2933 0.985 . S
N2921 C2923 1.356 . S
N2921 H2926 0.984 . S
N2921 H2927 0.985 . S
C2922 C2916 1.379 . S
C2922 C2919 1.363 . S
C2922 N2920 1.356 . S
C2923 C2917 1.363 . S
C2923 C2918 1.379 . S
C2923 N2921 1.356 . S
N2924 C2916 1.356 . S
N2924 H2930 0.984 . S
N2924 H2931 0.984 . S
N2925 C2918 1.356 . S
N2925 H2928 0.984 . S
N2925 H2929 0.985 . S
H2926 N2921 0.984 . S
H2927 N2921 0.985 . S
H2928 N2925 0.984 . S
H2929 N2925 0.985 . S
H2930 N2924 0.984 . S
H2931 N2924 0.984 . S
H2932 N2920 0.984 . S
H2933 N2920 0.985 . S
C2934 C2935 1.363 . S
C2934 C2940 1.379 . S
C2934 N2942 1.356 . S
C2935 C2934 1.363 . S
C2935 C2941 1.363 . S
C2936 C2937 1.363 . S
C2936 C2941 1.379 . S
C2936 N2943 1.356 . S
C2937 C2936 1.363 . S
C2937 C2940 1.363 . S
N2938 C2940 1.356 . S
N2938 H2950 0.984 . S
N2938 H2951 0.985 . S
N2939 C2941 1.356 . S
N2939 H2944 0.984 . S
N2939 H2945 0.985 . S
C2940 C2934 1.379 . S
C2940 C2937 1.363 . S
C2940 N2938 1.356 . S
C2941 C2935 1.363 . S
C2941 C2936 1.379 . S
C2941 N2939 1.356 . S
N2942 C2934 1.356 . S
N2942 H2948 0.984 . S
N2942 H2949 0.984 . S
N2943 C2936 1.356 . S
N2943 H2946 0.984 . S
N2943 H2947 0.985 . S
H2944 N2939 0.984 . S
H2945 N2939 0.985 . S
H2946 N2943 0.984 . S
H2947 N2943 0.985 . S
H2948 N2942 0.984 . S
H2949 N2942 0.984 . S
H2950 N2938 0.984 . S
H2951 N2938 0.985 . S
C2952 C2953 1.363 . S
C2952 C2958 1.379 . S
C2952 N2960 1.356 . S
C2953 C2952 1.363 . S
C2953 C2959 1.363 . S
C2954 C2955 1.363 . S
C2954 C2959 1.379 . S
C2954 N2961 1.356 . S
C2955 C2954 1.363 . S
C2955 C2958 1.363 . S
N2956 C2958 1.356 . S
N2956 H2968 0.984 . S
N2956 H2969 0.985 . S
N2957 C2959 1.356 . S
N2957 H2962 0.984 . S
N2957 H2963 0.985 . S
C2958 C2952 1.379 . S
C2958 C2955 1.363 . S
C2958 N2956 1.356 . S
C2959 C2953 1.363 . S
C2959 C2954 1.379 . S
C2959 N2957 1.356 . S
N2960 C2952 1.356 . S
N2960 H2966 0.984 . S
N2960 H2967 0.984 . S
N2961 C2954 1.356 . S
N2961 H2964 0.984 . S
N2961 H2965 0.985 . S
H2962 N2957 0.984 . S
H2963 N2957 0.985 . S
H2964 N2961 0.984 . S
H2965 N2961 0.985 . S
H2966 N2960 0.984 . S
H2967 N2960 0.984 . S
H2968 N2956 0.984 . S
H2969 N2956 0.985 . S
C2970 C2971 1.359 1_545 S
C2970 C2976 1.387 . S
C2970 N2978 1.350 1_545 S
C2971 C2970 1.359 1_565 S
C2971 C2977 1.363 1_565 S
C2972 C2973 1.363 . S
C2972 C2977 1.379 . S
C2972 N2979 1.356 . S
C2973 C2972 1.363 . S
C2973 C2976 1.363 . S
N2974 C2976 1.356 . S
N2974 H2986 0.984 . S
N2974 H2987 0.985 . S
N2975 C2977 1.356 1_565 S
N2975 H2980 0.984 . S
N2975 H2981 0.985 . S
C2976 C2970 1.387 . S
C2976 C2973 1.363 . S
C2976 N2974 1.356 . S
C2977 C2971 1.363 1_545 S
C2977 C2972 1.379 . S
C2977 N2975 1.356 1_545 S
N2978 C2970 1.350 1_565 S
N2978 H2984 0.984 . S
N2978 H2985 0.984 . S
N2979 C2972 1.356 . S
N2979 H2982 0.984 . S
N2979 H2983 0.985 . S
H2980 N2975 0.984 . S
H2981 N2975 0.985 . S
H2982 N2979 0.984 . S
H2983 N2979 0.985 . S
H2984 N2978 0.984 . S
H2985 N2978 0.984 . S
H2986 N2974 0.984 . S
H2987 N2974 0.985 . S
C2988 C2989 1.363 . S
C2988 C2994 1.379 . S
C2988 N2996 1.356 . S
C2989 C2988 1.363 . S
C2989 C2995 1.363 . S
C2990 C2991 1.363 . S
C2990 C2995 1.379 . S
C2990 N2997 1.356 . S
C2991 C2990 1.363 . S
C2991 C2994 1.363 . S
N2992 C2994 1.356 . S
N2992 H3004 0.984 . S
N2992 H3005 0.985 . S
N2993 C2995 1.356 . S
N2993 H2998 0.984 . S
N2993 H2999 0.985 . S
C2994 C2988 1.379 . S
C2994 C2991 1.363 . S
C2994 N2992 1.356 . S
C2995 C2989 1.363 . S
C2995 C2990 1.379 . S
C2995 N2993 1.356 . S
N2996 C2988 1.356 . S
N2996 H3002 0.984 . S
N2996 H3003 0.984 . S
N2997 C2990 1.356 . S
N2997 H3000 0.984 . S
N2997 H3001 0.985 . S
H2998 N2993 0.984 . S
H2999 N2993 0.985 . S
H3000 N2997 0.984 . S
H3001 N2997 0.985 . S
H3002 N2996 0.984 . S
H3003 N2996 0.984 . S
H3004 N2992 0.984 . S
H3005 N2992 0.985 . S
C3006 C3007 1.363 . S
C3006 C3012 1.379 . S
C3006 N3014 1.356 . S
C3007 C3006 1.363 . S
C3007 C3013 1.363 . S
C3008 C3009 1.363 . S
C3008 C3013 1.379 . S
C3008 N3015 1.356 . S
C3009 C3008 1.363 . S
C3009 C3012 1.363 . S
N3010 C3012 1.356 . S
N3010 H3022 0.984 . S
N3010 H3023 0.985 . S
N3011 C3013 1.356 . S
N3011 H3016 0.984 . S
N3011 H3017 0.985 . S
C3012 C3006 1.379 . S
C3012 C3009 1.363 . S
C3012 N3010 1.356 . S
C3013 C3007 1.363 . S
C3013 C3008 1.379 . S
C3013 N3011 1.356 . S
N3014 C3006 1.356 . S
N3014 H3020 0.984 . S
N3014 H3021 0.984 . S
N3015 C3008 1.356 . S
N3015 H3018 0.984 . S
N3015 H3019 0.985 . S
H3016 N3011 0.984 . S
H3017 N3011 0.985 . S
H3018 N3015 0.984 . S
H3019 N3015 0.985 . S
H3020 N3014 0.984 . S
H3021 N3014 0.984 . S
H3022 N3010 0.984 . S
H3023 N3010 0.985 . S
C3024 C3025 1.363 . S
C3024 C3030 1.379 . S
C3024 N3032 1.356 . S
C3025 C3024 1.363 . S
C3025 C3031 1.363 . S
C3026 C3027 1.363 . S
C3026 C3031 1.379 . S
C3026 N3033 1.356 . S
C3027 C3026 1.363 . S
C3027 C3030 1.363 . S
N3028 C3030 1.356 . S
N3028 H3040 0.984 . S
N3028 H3041 0.985 . S
N3029 C3031 1.356 . S
N3029 H3034 0.984 . S
N3029 H3035 0.985 . S
C3030 C3024 1.379 . S
C3030 C3027 1.363 . S
C3030 N3028 1.356 . S
C3031 C3025 1.363 . S
C3031 C3026 1.379 . S
C3031 N3029 1.356 . S
N3032 C3024 1.356 . S
N3032 H3038 0.984 . S
N3032 H3039 0.984 . S
N3033 C3026 1.356 . S
N3033 H3036 0.984 . S
N3033 H3037 0.985 . S
H3034 N3029 0.984 . S
H3035 N3029 0.985 . S
H3036 N3033 0.984 . S
H3037 N3033 0.985 . S
H3038 N3032 0.984 . S
H3039 N3032 0.984 . S
H3040 N3028 0.984 . S
H3041 N3028 0.985 . S
C3042 C3043 1.363 . S
C3042 C3048 1.379 1_455 S
C3042 N3050 1.356 . S
C3043 C3042 1.363 . S
C3043 C3049 1.363 1_455 S
C3044 C3045 1.363 . S
C3044 C3049 1.379 . S
C3044 N3051 1.356 . S
C3045 C3044 1.363 . S
C3045 C3048 1.363 . S
N3046 C3048 1.356 . S
N3046 H3058 0.984 . S
N3046 H3059 0.985 . S
N3047 C3049 1.356 1_455 S
N3047 H3052 0.984 . S
N3047 H3053 0.985 1_455 S
C3048 C3042 1.379 1_655 S
C3048 C3045 1.363 . S
C3048 N3046 1.356 . S
C3049 C3043 1.363 1_655 S
C3049 C3044 1.379 . S
C3049 N3047 1.356 1_655 S
N3050 C3042 1.356 . S
N3050 H3056 0.984 . S
N3050 H3057 0.984 . S
N3051 C3044 1.356 . S
N3051 H3054 0.984 . S
N3051 H3055 0.985 . S
H3052 N3047 0.984 . S
H3053 N3047 0.985 1_655 S
H3054 N3051 0.984 . S
H3055 N3051 0.985 . S
H3056 N3050 0.984 . S
H3057 N3050 0.984 . S
H3058 N3046 0.984 . S
H3059 N3046 0.985 . S
C3060 C3061 1.363 . S
C3060 C3066 1.379 . S
C3060 N3068 1.356 . S
C3061 C3060 1.363 . S
C3061 C3067 1.363 . S
C3062 C3063 1.363 . S
C3062 C3067 1.379 . S
C3062 N3069 1.356 . S
C3063 C3062 1.363 . S
C3063 C3066 1.363 . S
N3064 C3066 1.356 . S
N3064 H3076 0.984 . S
N3064 H3077 0.985 . S
N3065 C3067 1.356 . S
N3065 H3070 0.984 . S
N3065 H3071 0.985 . S
C3066 C3060 1.379 . S
C3066 C3063 1.363 . S
C3066 N3064 1.356 . S
C3067 C3061 1.363 . S
C3067 C3062 1.379 . S
C3067 N3065 1.356 . S
N3068 C3060 1.356 . S
N3068 H3074 0.984 . S
N3068 H3075 0.984 . S
N3069 C3062 1.356 . S
N3069 H3072 0.984 . S
N3069 H3073 0.985 . S
H3070 N3065 0.984 . S
H3071 N3065 0.985 . S
H3072 N3069 0.984 . S
H3073 N3069 0.985 . S
H3074 N3068 0.984 . S
H3075 N3068 0.984 . S
H3076 N3064 0.984 . S
H3077 N3064 0.985 . S
C3078 C3079 1.363 . S
C3078 C3084 1.379 1_455 S
C3078 N3086 1.356 . S
C3079 C3078 1.363 . S
C3079 C3085 1.363 . S
C3080 C3081 1.363 1_455 S
C3080 C3085 1.379 . S
C3080 N3087 1.347 1_455 S
C3081 C3080 1.363 1_655 S
C3081 C3084 1.363 . S
N3082 C3084 1.356 . S
N3082 H3094 0.984 . S
N3082 H3095 0.985 . S
N3083 C3085 1.356 . S
N3083 H3088 0.984 . S
N3083 H3089 0.985 . S
C3084 C3078 1.379 1_655 S
C3084 C3081 1.363 . S
C3084 N3082 1.356 . S
C3085 C3079 1.363 . S
C3085 C3080 1.379 . S
C3085 N3083 1.356 . S
N3086 C3078 1.356 . S
N3086 H3092 0.984 . S
N3086 H3093 0.984 . S
N3087 C3080 1.347 1_655 S
N3087 H3090 1.006 . S
N3087 H3091 0.972 1_655 S
H3088 N3083 0.984 . S
H3089 N3083 0.985 . S
H3090 N3087 1.006 . S
H3091 N3087 0.972 1_455 S
H3092 N3086 0.984 . S
H3093 N3086 0.984 . S
H3094 N3082 0.984 . S
H3095 N3082 0.985 . S
C3096 C3097 1.363 . S
C3096 C3102 1.379 . S
C3096 N3104 1.356 . S
C3097 C3096 1.363 . S
C3097 C3103 1.363 . S
C3098 C3099 1.363 . S
C3098 C3103 1.379 . S
C3098 N3105 1.356 . S
C3099 C3098 1.363 . S
C3099 C3102 1.363 . S
N3100 C3102 1.356 . S
N3100 H3112 0.984 . S
N3100 H3113 0.985 . S
N3101 C3103 1.356 . S
N3101 H3106 0.984 . S
N3101 H3107 0.985 . S
C3102 C3096 1.379 . S
C3102 C3099 1.363 . S
C3102 N3100 1.356 . S
C3103 C3097 1.363 . S
C3103 C3098 1.379 . S
C3103 N3101 1.356 . S
N3104 C3096 1.356 . S
N3104 H3110 0.984 . S
N3104 H3111 0.984 . S
N3105 C3098 1.356 . S
N3105 H3108 0.984 . S
N3105 H3109 0.985 . S
H3106 N3101 0.984 . S
H3107 N3101 0.985 . S
H3108 N3105 0.984 . S
H3109 N3105 0.985 . S
H3110 N3104 0.984 . S
H3111 N3104 0.984 . S
H3112 N3100 0.984 . S
H3113 N3100 0.985 . S
C3114 C3115 1.363 . S
C3114 C3120 1.379 . S
C3114 N3122 1.356 . S
C3115 C3114 1.363 . S
C3115 C3121 1.363 . S
C3116 C3117 1.363 . S
C3116 C3121 1.379 . S
C3116 N3123 1.356 . S
C3117 C3116 1.363 . S
C3117 C3120 1.363 . S
N3118 C3120 1.356 . S
N3118 H3130 0.984 . S
N3118 H3131 0.985 . S
N3119 C3121 1.356 . S
N3119 H3124 0.984 . S
N3119 H3125 0.985 . S
C3120 C3114 1.379 . S
C3120 C3117 1.363 . S
C3120 N3118 1.356 . S
C3121 C3115 1.363 . S
C3121 C3116 1.379 . S
C3121 N3119 1.356 . S
N3122 C3114 1.356 . S
N3122 H3128 0.984 . S
N3122 H3129 0.984 . S
N3123 C3116 1.356 . S
N3123 H3126 0.984 . S
N3123 H3127 0.985 . S
H3124 N3119 0.984 . S
H3125 N3119 0.985 . S
H3126 N3123 0.984 . S
H3127 N3123 0.985 . S
H3128 N3122 0.984 . S
H3129 N3122 0.984 . S
H3130 N3118 0.984 . S
H3131 N3118 0.985 . S
C3132 C3133 1.363 . S
C3132 C3138 1.379 . S
C3132 N3140 1.356 . S
C3133 C3132 1.363 . S
C3133 C3139 1.363 . S
C3134 C3135 1.363 . S
C3134 C3139 1.379 . S
C3134 N3141 1.356 . S
C3135 C3134 1.363 . S
C3135 C3138 1.363 . S
N3136 C3138 1.356 . S
N3136 H3148 0.984 . S
N3136 H3149 0.985 . S
N3137 C3139 1.356 . S
N3137 H3142 0.984 . S
N3137 H3143 0.985 . S
C3138 C3132 1.379 . S
C3138 C3135 1.363 . S
C3138 N3136 1.356 . S
C3139 C3133 1.363 . S
C3139 C3134 1.379 . S
C3139 N3137 1.356 . S
N3140 C3132 1.356 . S
N3140 H3146 0.984 . S
N3140 H3147 0.984 . S
N3141 C3134 1.356 . S
N3141 H3144 0.984 . S
N3141 H3145 0.985 . S
H3142 N3137 0.984 . S
H3143 N3137 0.985 . S
H3144 N3141 0.984 . S
H3145 N3141 0.985 . S
H3146 N3140 0.984 . S
H3147 N3140 0.984 . S
H3148 N3136 0.984 . S
H3149 N3136 0.985 . S
C3150 C3151 1.363 . S
C3150 C3156 1.379 . S
C3150 N3158 1.356 . S
C3151 C3150 1.363 . S
C3151 C3157 1.363 . S
C3152 C3153 1.363 . S
C3152 C3157 1.379 . S
C3152 N3159 1.356 . S
C3153 C3152 1.363 . S
C3153 C3156 1.363 . S
N3154 C3156 1.356 . S
N3154 H3166 0.984 . S
N3154 H3167 0.985 . S
N3155 C3157 1.356 . S
N3155 H3160 0.984 . S
N3155 H3161 0.985 . S
C3156 C3150 1.379 . S
C3156 C3153 1.363 . S
C3156 N3154 1.356 . S
C3157 C3151 1.363 . S
C3157 C3152 1.379 . S
C3157 N3155 1.356 . S
N3158 C3150 1.356 . S
N3158 H3164 0.984 . S
N3158 H3165 0.984 . S
N3159 C3152 1.356 . S
N3159 H3162 0.984 . S
N3159 H3163 0.985 . S
H3160 N3155 0.984 . S
H3161 N3155 0.985 . S
H3162 N3159 0.984 . S
H3163 N3159 0.985 . S
H3164 N3158 0.984 . S
H3165 N3158 0.984 . S
H3166 N3154 0.984 . S
H3167 N3154 0.985 . S
C3168 C3169 1.363 . S
C3168 C3174 1.379 . S
C3168 N3176 1.356 . S
C3169 C3168 1.363 . S
C3169 C3175 1.363 . S
C3170 C3171 1.363 . S
C3170 C3175 1.379 . S
C3170 N3177 1.356 . S
C3171 C3170 1.363 . S
C3171 C3174 1.363 . S
N3172 C3174 1.356 . S
N3172 H3184 0.984 . S
N3172 H3185 0.985 . S
N3173 C3175 1.356 . S
N3173 H3178 0.984 . S
N3173 H3179 0.985 . S
C3174 C3168 1.379 . S
C3174 C3171 1.363 . S
C3174 N3172 1.356 . S
C3175 C3169 1.363 . S
C3175 C3170 1.379 . S
C3175 N3173 1.356 . S
N3176 C3168 1.356 . S
N3176 H3182 0.984 . S
N3176 H3183 0.984 . S
N3177 C3170 1.356 . S
N3177 H3180 0.984 . S
N3177 H3181 0.985 . S
H3178 N3173 0.984 . S
H3179 N3173 0.985 . S
H3180 N3177 0.984 . S
H3181 N3177 0.985 . S
H3182 N3176 0.984 . S
H3183 N3176 0.984 . S
H3184 N3172 0.984 . S
H3185 N3172 0.985 . S
C3186 C3187 1.363 . S
C3186 C3192 1.379 . S
C3186 N3194 1.356 . S
C3187 C3186 1.363 . S
C3187 C3193 1.363 . S
C3188 C3189 1.363 . S
C3188 C3193 1.379 . S
C3188 N3195 1.356 . S
C3189 C3188 1.363 . S
C3189 C3192 1.363 . S
N3190 C3192 1.356 . S
N3190 H3202 0.984 . S
N3190 H3203 0.985 . S
N3191 C3193 1.356 . S
N3191 H3196 0.984 . S
N3191 H3197 0.985 . S
C3192 C3186 1.379 . S
C3192 C3189 1.363 . S
C3192 N3190 1.356 . S
C3193 C3187 1.363 . S
C3193 C3188 1.379 . S
C3193 N3191 1.356 . S
N3194 C3186 1.356 . S
N3194 H3200 0.984 . S
N3194 H3201 0.984 . S
N3195 C3188 1.356 . S
N3195 H3198 0.984 . S
N3195 H3199 0.985 . S
H3196 N3191 0.984 . S
H3197 N3191 0.985 . S
H3198 N3195 0.984 . S
H3199 N3195 0.985 . S
H3200 N3194 0.984 . S
H3201 N3194 0.984 . S
H3202 N3190 0.984 . S
H3203 N3190 0.985 . S
C3204 C3205 1.363 . S
C3204 C3210 1.379 . S
C3204 N3212 1.356 . S
C3205 C3204 1.363 . S
C3205 C3211 1.363 . S
C3206 C3207 1.363 . S
C3206 C3211 1.379 . S
C3206 N3213 1.356 . S
C3207 C3206 1.363 . S
C3207 C3210 1.363 . S
N3208 C3210 1.356 . S
N3208 H3220 0.984 . S
N3208 H3221 0.985 . S
N3209 C3211 1.356 . S
N3209 H3214 0.984 . S
N3209 H3215 0.985 . S
C3210 C3204 1.379 . S
C3210 C3207 1.363 . S
C3210 N3208 1.356 . S
C3211 C3205 1.363 . S
C3211 C3206 1.379 . S
C3211 N3209 1.356 . S
N3212 C3204 1.356 . S
N3212 H3218 0.984 . S
N3212 H3219 0.984 . S
N3213 C3206 1.356 . S
N3213 H3216 0.984 . S
N3213 H3217 0.985 . S
H3214 N3209 0.984 . S
H3215 N3209 0.985 . S
H3216 N3213 0.984 . S
H3217 N3213 0.985 . S
H3218 N3212 0.984 . S
H3219 N3212 0.984 . S
H3220 N3208 0.984 . S
H3221 N3208 0.985 . S
C3222 C3223 1.363 . S
C3222 C3228 1.379 . S
C3222 N3230 1.356 . S
C3223 C3222 1.363 . S
C3223 C3229 1.363 . S
C3224 C3225 1.363 . S
C3224 C3229 1.379 . S
C3224 N3231 1.356 . S
C3225 C3224 1.363 . S
C3225 C3228 1.363 . S
N3226 C3228 1.356 . S
N3226 H3238 0.984 . S
N3226 H3239 0.985 . S
N3227 C3229 1.356 . S
N3227 H3232 0.984 . S
N3227 H3233 0.985 . S
C3228 C3222 1.379 . S
C3228 C3225 1.363 . S
C3228 N3226 1.356 . S
C3229 C3223 1.363 . S
C3229 C3224 1.379 . S
C3229 N3227 1.356 . S
N3230 C3222 1.356 . S
N3230 H3236 0.984 . S
N3230 H3237 0.984 . S
N3231 C3224 1.356 . S
N3231 H3234 0.984 . S
N3231 H3235 0.985 . S
H3232 N3227 0.984 . S
H3233 N3227 0.985 . S
H3234 N3231 0.984 . S
H3235 N3231 0.985 . S
H3236 N3230 0.984 . S
H3237 N3230 0.984 . S
H3238 N3226 0.984 . S
H3239 N3226 0.985 . S
C3240 C3241 1.363 . S
C3240 C3246 1.379 . S
C3240 N3248 1.356 . S
C3241 C3240 1.363 . S
C3241 C3247 1.363 . S
C3242 C3243 1.363 . S
C3242 C3247 1.379 1_554 S
C3242 N3249 1.356 . S
C3243 C3242 1.363 . S
C3243 C3246 1.363 1_554 S
N3244 C3246 1.356 1_554 S
N3244 H3256 0.984 1_554 S
N3244 H3257 0.985 . S
N3245 C3247 1.356 . S
N3245 H3250 0.984 . S
N3245 H3251 0.985 . S
C3246 C3240 1.379 . S
C3246 C3243 1.363 1_556 S
C3246 N3244 1.356 1_556 S
C3247 C3241 1.363 . S
C3247 C3242 1.379 1_556 S
C3247 N3245 1.356 . S
N3248 C3240 1.356 . S
N3248 H3254 0.984 . S
N3248 H3255 0.984 . S
N3249 C3242 1.356 . S
N3249 H3252 0.984 . S
N3249 H3253 0.985 . S
H3250 N3245 0.984 . S
H3251 N3245 0.985 . S
H3252 N3249 0.984 . S
H3253 N3249 0.985 . S
H3254 N3248 0.984 . S
H3255 N3248 0.984 . S
H3256 N3244 0.984 1_556 S
H3257 N3244 0.985 . S
C3258 C3259 1.363 . S
C3258 C3264 1.379 . S
C3258 N3266 1.356 . S
C3259 C3258 1.363 . S
C3259 C3265 1.363 . S
C3260 C3261 1.363 . S
C3260 C3265 1.379 . S
C3260 N3267 1.356 . S
C3261 C3260 1.363 . S
C3261 C3264 1.363 . S
N3262 C3264 1.356 . S
N3262 H3274 0.984 . S
N3262 H3275 0.985 . S
N3263 C3265 1.356 . S
N3263 H3268 0.984 . S
N3263 H3269 0.985 . S
C3264 C3258 1.379 . S
C3264 C3261 1.363 . S
C3264 N3262 1.356 . S
C3265 C3259 1.363 . S
C3265 C3260 1.379 . S
C3265 N3263 1.356 . S
N3266 C3258 1.356 . S
N3266 H3272 0.984 . S
N3266 H3273 0.984 . S
N3267 C3260 1.356 . S
N3267 H3270 0.984 . S
N3267 H3271 0.985 . S
H3268 N3263 0.984 . S
H3269 N3263 0.985 . S
H3270 N3267 0.984 . S
H3271 N3267 0.985 . S
H3272 N3266 0.984 . S
H3273 N3266 0.984 . S
H3274 N3262 0.984 . S
H3275 N3262 0.985 . S
C3276 C3277 1.363 . S
C3276 C3282 1.379 . S
C3276 N3284 1.356 . S
C3277 C3276 1.363 . S
C3277 C3283 1.363 . S
C3278 C3279 1.363 1_554 S
C3278 C3283 1.379 . S
C3278 N3285 1.356 1_554 S
C3279 C3278 1.363 1_556 S
C3279 C3282 1.363 1_556 S
N3280 C3282 1.356 1_556 S
N3280 H3292 0.984 . S
N3280 H3293 0.985 . S
N3281 C3283 1.356 . S
N3281 H3286 0.984 . S
N3281 H3287 0.985 . S
C3282 C3276 1.379 . S
C3282 C3279 1.363 1_554 S
C3282 N3280 1.356 1_554 S
C3283 C3277 1.363 . S
C3283 C3278 1.379 . S
C3283 N3281 1.356 . S
N3284 C3276 1.356 . S
N3284 H3290 0.984 . S
N3284 H3291 0.984 . S
N3285 C3278 1.356 1_556 S
N3285 H3288 0.984 . S
N3285 H3289 0.985 . S
H3286 N3281 0.984 . S
H3287 N3281 0.985 . S
H3288 N3285 0.984 . S
H3289 N3285 0.985 . S
H3290 N3284 0.984 . S
H3291 N3284 0.984 . S
H3292 N3280 0.984 . S
H3293 N3280 0.985 . S
C3294 C3295 1.363 1_554 S
C3294 C3300 1.379 . S
C3294 N3302 1.364 . S
C3295 C3294 1.363 1_556 S
C3295 C3301 1.363 . S
C3296 C3297 1.363 . S
C3296 C3301 1.379 1_554 S
C3296 N3303 1.356 . S
C3297 C3296 1.363 . S
C3297 C3300 1.363 . S
N3298 C3300 1.356 . S
N3298 H3310 0.984 . S
N3298 H3311 0.985 . S
N3299 C3301 1.356 . S
N3299 H3304 0.984 . S
N3299 H3305 0.985 . S
C3300 C3294 1.379 . S
C3300 C3297 1.363 . S
C3300 N3298 1.356 . S
C3301 C3295 1.363 . S
C3301 C3296 1.379 1_556 S
C3301 N3299 1.356 . S
N3302 C3294 1.364 . S
N3302 H3308 0.997 . S
N3302 H3309 0.964 1_554 S
N3303 C3296 1.356 . S
N3303 H3306 0.984 . S
N3303 H3307 0.985 . S
H3304 N3299 0.984 . S
H3305 N3299 0.985 . S
H3306 N3303 0.984 . S
H3307 N3303 0.985 . S
H3308 N3302 0.997 . S
H3309 N3302 0.964 1_556 S
H3310 N3298 0.984 . S
H3311 N3298 0.985 . S
C3312 C3313 1.363 . S
C3312 C3318 1.379 . S
C3312 N3320 1.356 . S
C3313 C3312 1.363 . S
C3313 C3319 1.363 . S
C3314 C3315 1.363 . S
C3314 C3319 1.379 . S
C3314 N3321 1.356 . S
C3315 C3314 1.363 . S
C3315 C3318 1.363 . S
N3316 C3318 1.356 . S
N3316 H3328 0.984 . S
N3316 H3329 0.985 . S
N3317 C3319 1.356 . S
N3317 H3322 0.984 . S
N3317 H3323 0.985 . S
C3318 C3312 1.379 . S
C3318 C3315 1.363 . S
C3318 N3316 1.356 . S
C3319 C3313 1.363 . S
C3319 C3314 1.379 . S
C3319 N3317 1.356 . S
N3320 C3312 1.356 . S
N3320 H3326 0.984 . S
N3320 H3327 0.984 . S
N3321 C3314 1.356 . S
N3321 H3324 0.984 . S
N3321 H3325 0.985 . S
H3322 N3317 0.984 . S
H3323 N3317 0.985 . S
H3324 N3321 0.984 . S
H3325 N3321 0.985 . S
H3326 N3320 0.984 . S
H3327 N3320 0.984 . S
H3328 N3316 0.984 . S
H3329 N3316 0.985 . S
C3330 C3331 1.363 . S
C3330 C3336 1.379 . S
C3330 N3338 1.356 . S
C3331 C3330 1.363 . S
C3331 C3337 1.363 . S
C3332 C3333 1.363 . S
C3332 C3337 1.379 . S
C3332 N3339 1.356 . S
C3333 C3332 1.363 . S
C3333 C3336 1.363 . S
N3334 C3336 1.356 . S
N3334 H3346 0.984 . S
N3334 H3347 0.985 . S
N3335 C3337 1.356 . S
N3335 H3340 0.984 . S
N3335 H3341 0.985 . S
C3336 C3330 1.379 . S
C3336 C3333 1.363 . S
C3336 N3334 1.356 . S
C3337 C3331 1.363 . S
C3337 C3332 1.379 . S
C3337 N3335 1.356 . S
N3338 C3330 1.356 . S
N3338 H3344 0.984 . S
N3338 H3345 0.984 . S
N3339 C3332 1.356 . S
N3339 H3342 0.984 . S
N3339 H3343 0.985 . S
H3340 N3335 0.984 . S
H3341 N3335 0.985 . S
H3342 N3339 0.984 . S
H3343 N3339 0.985 . S
H3344 N3338 0.984 . S
H3345 N3338 0.984 . S
H3346 N3334 0.984 . S
H3347 N3334 0.985 . S
C3348 C3349 1.363 . S
C3348 C3354 1.379 . S
C3348 N3356 1.356 . S
C3349 C3348 1.363 . S
C3349 C3355 1.363 . S
C3350 C3351 1.363 . S
C3350 C3355 1.379 . S
C3350 N3357 1.356 . S
C3351 C3350 1.363 . S
C3351 C3354 1.363 . S
N3352 C3354 1.356 . S
N3352 H3364 0.984 . S
N3352 H3365 0.985 . S
N3353 C3355 1.356 . S
N3353 H3358 0.984 . S
N3353 H3359 0.985 . S
C3354 C3348 1.379 . S
C3354 C3351 1.363 . S
C3354 N3352 1.356 . S
C3355 C3349 1.363 . S
C3355 C3350 1.379 . S
C3355 N3353 1.356 . S
N3356 C3348 1.356 . S
N3356 H3362 0.984 . S
N3356 H3363 0.984 . S
N3357 C3350 1.356 . S
N3357 H3360 0.984 . S
N3357 H3361 0.985 . S
H3358 N3353 0.984 . S
H3359 N3353 0.985 . S
H3360 N3357 0.984 . S
H3361 N3357 0.985 . S
H3362 N3356 0.984 . S
H3363 N3356 0.984 . S
H3364 N3352 0.984 . S
H3365 N3352 0.985 . S
C3366 C3367 1.363 . S
C3366 C3372 1.379 1_545 S
C3366 N3374 1.356 . S
C3367 C3366 1.363 . S
C3367 C3373 1.363 . S
C3368 C3369 1.363 . S
C3368 C3373 1.379 1_565 S
C3368 N3375 1.356 . S
C3369 C3368 1.363 . S
C3369 C3372 1.363 . S
N3370 C3372 1.356 . S
N3370 H3382 0.984 . S
N3370 H3383 0.985 . S
N3371 C3373 1.356 . S
N3371 H3376 0.984 . S
N3371 H3377 0.985 . S
C3372 C3366 1.379 1_565 S
C3372 C3369 1.363 . S
C3372 N3370 1.356 . S
C3373 C3367 1.363 . S
C3373 C3368 1.379 1_545 S
C3373 N3371 1.356 . S
N3374 C3366 1.356 . S
N3374 H3380 0.984 . S
N3374 H3381 0.984 . S
N3375 C3368 1.356 . S
N3375 H3378 0.984 . S
N3375 H3379 0.985 . S
H3376 N3371 0.984 . S
H3377 N3371 0.985 . S
H3378 N3375 0.984 . S
H3379 N3375 0.985 . S
H3380 N3374 0.984 . S
H3381 N3374 0.984 . S
H3382 N3370 0.984 . S
H3383 N3370 0.985 . S
C3384 C3385 1.363 . S
C3384 C3390 1.379 . S
C3384 N3392 1.356 . S
C3385 C3384 1.363 . S
C3385 C3391 1.363 1_554 S
C3386 C3387 1.363 . S
C3386 C3391 1.379 . S
C3386 N3393 1.356 . S
C3387 C3386 1.363 . S
C3387 C3390 1.363 1_556 S
N3388 C3390 1.356 . S
N3388 H3400 0.984 . S
N3388 H3401 0.985 1_554 S
N3389 C3391 1.356 . S
N3389 H3394 0.984 1_556 S
N3389 H3395 0.985 . S
C3390 C3384 1.379 . S
C3390 C3387 1.363 1_554 S
C3390 N3388 1.356 . S
C3391 C3385 1.363 1_556 S
C3391 C3386 1.379 . S
C3391 N3389 1.356 . S
N3392 C3384 1.356 . S
N3392 H3398 0.984 . S
N3392 H3399 0.984 . S
N3393 C3386 1.356 . S
N3393 H3396 0.984 . S
N3393 H3397 0.985 . S
H3394 N3389 0.984 1_554 S
H3395 N3389 0.985 . S
H3396 N3393 0.984 . S
H3397 N3393 0.985 . S
H3398 N3392 0.984 . S
H3399 N3392 0.984 . S
H3400 N3388 0.984 . S
H3401 N3388 0.985 1_556 S
C3402 C3403 1.363 . S
C3402 C3408 1.379 . S
C3402 N3410 1.356 . S
C3403 C3402 1.363 . S
C3403 C3409 1.363 . S
C3404 C3405 1.363 . S
C3404 C3409 1.379 . S
C3404 N3411 1.356 . S
C3405 C3404 1.363 . S
C3405 C3408 1.363 . S
N3406 C3408 1.356 . S
N3406 H3418 0.984 1_455 S
N3406 H3419 0.985 . S
N3407 C3409 1.356 . S
N3407 H3412 0.984 . S
N3407 H3413 0.985 . S
C3408 C3402 1.379 . S
C3408 C3405 1.363 . S
C3408 N3406 1.356 . S
C3409 C3403 1.363 . S
C3409 C3404 1.379 . S
C3409 N3407 1.356 . S
N3410 C3402 1.356 . S
N3410 H3416 0.984 1_455 S
N3410 H3417 0.984 . S
N3411 C3404 1.356 . S
N3411 H3414 0.984 . S
N3411 H3415 0.985 . S
H3412 N3407 0.984 . S
H3413 N3407 0.985 . S
H3414 N3411 0.984 . S
H3415 N3411 0.985 . S
H3416 N3410 0.984 1_655 S
H3417 N3410 0.984 . S
H3418 N3406 0.984 1_655 S
H3419 N3406 0.985 . S
C3420 C3421 1.363 1_554 S
C3420 C3426 1.379 . S
C3420 N3428 1.356 . S
C3421 C3420 1.363 1_556 S
C3421 C3427 1.363 . S
C3422 C3423 1.363 1_556 S
C3422 C3427 1.379 . S
C3422 N3429 1.356 . S
C3423 C3422 1.363 1_554 S
C3423 C3426 1.363 . S
N3424 C3426 1.356 . S
N3424 H3436 0.984 . S
N3424 H3437 0.985 . S
N3425 C3427 1.356 . S
N3425 H3430 0.984 . S
N3425 H3431 0.985 . S
C3426 C3420 1.379 . S
C3426 C3423 1.363 . S
C3426 N3424 1.356 . S
C3427 C3421 1.363 . S
C3427 C3422 1.379 . S
C3427 N3425 1.356 . S
N3428 C3420 1.356 . S
N3428 H3434 0.984 . S
N3428 H3435 0.984 1_554 S
N3429 C3422 1.356 . S
N3429 H3432 0.984 1_556 S
N3429 H3433 0.985 . S
H3430 N3425 0.984 . S
H3431 N3425 0.985 . S
H3432 N3429 0.984 1_554 S
H3433 N3429 0.985 . S
H3434 N3428 0.984 . S
H3435 N3428 0.984 1_556 S
H3436 N3424 0.984 . S
H3437 N3424 0.985 . S
C3438 C3439 1.363 . S
C3438 C3444 1.379 1_545 S
C3438 N3446 1.356 . S
C3439 C3438 1.363 . S
C3439 C3445 1.363 . S
C3440 C3441 1.363 . S
C3440 C3445 1.379 1_565 S
C3440 N3447 1.356 . S
C3441 C3440 1.363 . S
C3441 C3444 1.363 . S
N3442 C3444 1.356 . S
N3442 H3454 0.984 1_655 S
N3442 H3455 0.985 . S
N3443 C3445 1.356 . S
N3443 H3448 0.984 . S
N3443 H3449 0.985 . S
C3444 C3438 1.379 1_565 S
C3444 C3441 1.363 . S
C3444 N3442 1.356 . S
C3445 C3439 1.363 . S
C3445 C3440 1.379 1_545 S
C3445 N3443 1.356 . S
N3446 C3438 1.356 . S
N3446 H3452 0.984 1_655 S
N3446 H3453 0.984 . S
N3447 C3440 1.356 . S
N3447 H3450 0.984 . S
N3447 H3451 0.985 . S
H3448 N3443 0.984 . S
H3449 N3443 0.985 . S
H3450 N3447 0.984 . S
H3451 N3447 0.985 . S
H3452 N3446 0.984 1_455 S
H3453 N3446 0.984 . S
H3454 N3442 0.984 1_455 S
H3455 N3442 0.985 . S
C3456 C3457 1.363 . S
C3456 C3462 1.379 . S
C3456 N3464 1.356 . S
C3457 C3456 1.363 . S
C3457 C3463 1.363 . S
C3458 C3459 1.363 . S
C3458 C3463 1.379 . S
C3458 N3465 1.356 . S
C3459 C3458 1.363 . S
C3459 C3462 1.363 . S
N3460 C3462 1.356 . S
N3460 H3472 0.984 . S
N3460 H3473 0.985 . S
N3461 C3463 1.356 . S
N3461 H3466 0.984 . S
N3461 H3467 0.985 . S
C3462 C3456 1.379 . S
C3462 C3459 1.363 . S
C3462 N3460 1.356 . S
C3463 C3457 1.363 . S
C3463 C3458 1.379 . S
C3463 N3461 1.356 . S
N3464 C3456 1.356 . S
N3464 H3470 0.984 . S
N3464 H3471 0.984 . S
N3465 C3458 1.356 . S
N3465 H3468 0.984 . S
N3465 H3469 0.985 . S
H3466 N3461 0.984 . S
H3467 N3461 0.985 . S
H3468 N3465 0.984 . S
H3469 N3465 0.985 . S
H3470 N3464 0.984 . S
H3471 N3464 0.984 . S
H3472 N3460 0.984 . S
H3473 N3460 0.985 . S
C3474 C3475 1.363 . S
C3474 C3480 1.379 . S
C3474 N3482 1.357 1_554 S
C3475 C3474 1.363 . S
C3475 C3481 1.363 . S
C3476 C3477 1.363 . S
C3476 C3481 1.379 . S
C3476 N3483 1.356 . S
C3477 C3476 1.363 . S
C3477 C3480 1.363 . S
N3478 C3480 1.357 1_556 S
N3478 H3490 0.983 . S
N3478 H3491 0.985 1_556 S
N3479 C3481 1.356 . S
N3479 H3484 0.984 . S
N3479 H3485 0.985 . S
C3480 C3474 1.379 . S
C3480 C3477 1.363 . S
C3480 N3478 1.357 1_554 S
C3481 C3475 1.363 . S
C3481 C3476 1.379 . S
C3481 N3479 1.356 . S
N3482 C3474 1.357 1_556 S
N3482 H3488 0.983 . S
N3482 H3489 0.985 1_556 S
N3483 C3476 1.356 . S
N3483 H3486 0.984 . S
N3483 H3487 0.985 . S
H3484 N3479 0.984 . S
H3485 N3479 0.985 . S
H3486 N3483 0.984 . S
H3487 N3483 0.985 . S
H3488 N3482 0.983 . S
H3489 N3482 0.985 1_554 S
H3490 N3478 0.983 . S
H3491 N3478 0.985 1_554 S
C3492 C3493 1.363 . S
C3492 C3498 1.379 . S
C3492 N3500 1.356 . S
C3493 C3492 1.363 . S
C3493 C3499 1.363 . S
C3494 C3495 1.363 . S
C3494 C3499 1.379 . S
C3494 N3501 1.356 . S
C3495 C3494 1.363 . S
C3495 C3498 1.363 . S
N3496 C3498 1.356 . S
N3496 H3508 0.984 . S
N3496 H3509 0.985 . S
N3497 C3499 1.356 . S
N3497 H3502 0.984 . S
N3497 H3503 0.985 . S
C3498 C3492 1.379 . S
C3498 C3495 1.363 . S
C3498 N3496 1.356 . S
C3499 C3493 1.363 . S
C3499 C3494 1.379 . S
C3499 N3497 1.356 . S
N3500 C3492 1.356 . S
N3500 H3506 0.984 . S
N3500 H3507 0.984 . S
N3501 C3494 1.356 . S
N3501 H3504 0.984 . S
N3501 H3505 0.985 . S
H3502 N3497 0.984 . S
H3503 N3497 0.985 . S
H3504 N3501 0.984 . S
H3505 N3501 0.985 . S
H3506 N3500 0.984 . S
H3507 N3500 0.984 . S
H3508 N3496 0.984 . S
H3509 N3496 0.985 . S
C3510 C3511 1.363 . S
C3510 C3516 1.379 1_455 S
C3510 N3518 1.357 1_556 S
C3511 C3510 1.363 . S
C3511 C3517 1.363 . S
C3512 C3513 1.363 . S
C3512 C3517 1.379 1_655 S
C3512 N3519 1.356 . S
C3513 C3512 1.363 . S
C3513 C3516 1.363 . S
N3514 C3516 1.357 1_554 S
N3514 H3526 0.983 . S
N3514 H3527 0.985 1_554 S
N3515 C3517 1.356 . S
N3515 H3520 0.984 . S
N3515 H3521 0.985 . S
C3516 C3510 1.379 1_655 S
C3516 C3513 1.363 . S
C3516 N3514 1.357 1_556 S
C3517 C3511 1.363 . S
C3517 C3512 1.379 1_455 S
C3517 N3515 1.356 . S
N3518 C3510 1.357 1_554 S
N3518 H3524 0.983 . S
N3518 H3525 0.985 1_554 S
N3519 C3512 1.356 . S
N3519 H3522 0.984 . S
N3519 H3523 0.985 . S
H3520 N3515 0.984 . S
H3521 N3515 0.985 . S
H3522 N3519 0.984 . S
H3523 N3519 0.985 . S
H3524 N3518 0.983 . S
H3525 N3518 0.985 1_556 S
H3526 N3514 0.983 . S
H3527 N3514 0.985 1_556 S
C3528 C3529 1.363 . S
C3528 C3534 1.379 . S
C3528 N3536 1.356 . S
C3529 C3528 1.363 . S
C3529 C3535 1.363 . S
C3530 C3531 1.363 . S
C3530 C3535 1.379 . S
C3530 N3537 1.356 . S
C3531 C3530 1.363 . S
C3531 C3534 1.363 . S
N3532 C3534 1.356 . S
N3532 H3544 0.984 . S
N3532 H3545 0.985 . S
N3533 C3535 1.356 . S
N3533 H3538 0.984 . S
N3533 H3539 0.985 . S
C3534 C3528 1.379 . S
C3534 C3531 1.363 . S
C3534 N3532 1.356 . S
C3535 C3529 1.363 . S
C3535 C3530 1.379 . S
C3535 N3533 1.356 . S
N3536 C3528 1.356 . S
N3536 H3542 0.984 . S
N3536 H3543 0.984 . S
N3537 C3530 1.356 . S
N3537 H3540 0.984 . S
N3537 H3541 0.985 . S
H3538 N3533 0.984 . S
H3539 N3533 0.985 . S
H3540 N3537 0.984 . S
H3541 N3537 0.985 . S
H3542 N3536 0.984 . S
H3543 N3536 0.984 . S
H3544 N3532 0.984 . S
H3545 N3532 0.985 . S
C3546 C3547 1.363 . S
C3546 C3552 1.379 1_554 S
C3546 N3554 1.356 . S
C3547 C3546 1.363 . S
C3547 C3553 1.363 . S
C3548 C3549 1.363 . S
C3548 C3553 1.379 1_556 S
C3548 N3555 1.356 . S
C3549 C3548 1.363 . S
C3549 C3552 1.363 . S
N3550 C3552 1.356 . S
N3550 H3562 0.984 . S
N3550 H3563 0.985 . S
N3551 C3553 1.356 . S
N3551 H3556 0.984 . S
N3551 H3557 0.985 . S
C3552 C3546 1.379 1_556 S
C3552 C3549 1.363 . S
C3552 N3550 1.356 . S
C3553 C3547 1.363 . S
C3553 C3548 1.379 1_554 S
C3553 N3551 1.356 . S
N3554 C3546 1.356 . S
N3554 H3560 0.984 . S
N3554 H3561 0.984 . S
N3555 C3548 1.356 . S
N3555 H3558 0.984 . S
N3555 H3559 0.985 . S
H3556 N3551 0.984 . S
H3557 N3551 0.985 . S
H3558 N3555 0.984 . S
H3559 N3555 0.985 . S
H3560 N3554 0.984 . S
H3561 N3554 0.984 . S
H3562 N3550 0.984 . S
H3563 N3550 0.985 . S
C3564 C3565 1.363 . S
C3564 C3570 1.379 . S
C3564 N3572 1.356 . S
C3565 C3564 1.363 . S
C3565 C3571 1.363 1_545 S
C3566 C3567 1.363 . S
C3566 C3571 1.379 . S
C3566 N3573 1.356 . S
C3567 C3566 1.363 . S
C3567 C3570 1.363 1_565 S
N3568 C3570 1.356 . S
N3568 H3580 0.984 . S
N3568 H3581 0.985 1_545 S
N3569 C3571 1.356 . S
N3569 H3574 0.984 1_565 S
N3569 H3575 0.985 . S
C3570 C3564 1.379 . S
C3570 C3567 1.363 1_545 S
C3570 N3568 1.356 . S
C3571 C3565 1.363 1_565 S
C3571 C3566 1.379 . S
C3571 N3569 1.356 . S
N3572 C3564 1.356 . S
N3572 H3578 0.984 . S
N3572 H3579 0.984 . S
N3573 C3566 1.356 . S
N3573 H3576 0.984 . S
N3573 H3577 0.985 . S
H3574 N3569 0.984 1_545 S
H3575 N3569 0.985 . S
H3576 N3573 0.984 . S
H3577 N3573 0.985 . S
H3578 N3572 0.984 . S
H3579 N3572 0.984 . S
H3580 N3568 0.984 . S
H3581 N3568 0.985 1_565 S
C3582 C3583 1.363 . S
C3582 C3588 1.379 . S
C3582 N3590 1.356 . S
C3583 C3582 1.363 . S
C3583 C3589 1.363 . S
C3584 C3585 1.363 . S
C3584 C3589 1.379 . S
C3584 N3591 1.356 . S
C3585 C3584 1.363 . S
C3585 C3588 1.363 . S
N3586 C3588 1.356 . S
N3586 H3598 0.984 . S
N3586 H3599 0.985 . S
N3587 C3589 1.356 . S
N3587 H3592 0.984 . S
N3587 H3593 0.985 . S
C3588 C3582 1.379 . S
C3588 C3585 1.363 . S
C3588 N3586 1.356 . S
C3589 C3583 1.363 . S
C3589 C3584 1.379 . S
C3589 N3587 1.356 . S
N3590 C3582 1.356 . S
N3590 H3596 0.984 . S
N3590 H3597 0.984 . S
N3591 C3584 1.356 . S
N3591 H3594 0.984 . S
N3591 H3595 0.985 . S
H3592 N3587 0.984 . S
H3593 N3587 0.985 . S
H3594 N3591 0.984 . S
H3595 N3591 0.985 . S
H3596 N3590 0.984 . S
H3597 N3590 0.984 . S
H3598 N3586 0.984 . S
H3599 N3586 0.985 . S
C3600 C3601 1.363 . S
C3600 C3606 1.379 . S
C3600 N3608 1.356 . S
C3601 C3600 1.363 . S
C3601 C3607 1.363 . S
C3602 C3603 1.363 . S
C3602 C3607 1.379 . S
C3602 N3609 1.356 . S
C3603 C3602 1.363 . S
C3603 C3606 1.363 . S
N3604 C3606 1.356 . S
N3604 H3616 0.984 . S
N3604 H3617 0.985 . S
N3605 C3607 1.356 . S
N3605 H3610 0.984 . S
N3605 H3611 0.985 . S
C3606 C3600 1.379 . S
C3606 C3603 1.363 . S
C3606 N3604 1.356 . S
C3607 C3601 1.363 . S
C3607 C3602 1.379 . S
C3607 N3605 1.356 . S
N3608 C3600 1.356 . S
N3608 H3614 0.984 . S
N3608 H3615 0.984 . S
N3609 C3602 1.356 . S
N3609 H3612 0.984 . S
N3609 H3613 0.985 . S
H3610 N3605 0.984 . S
H3611 N3605 0.985 . S
H3612 N3609 0.984 . S
H3613 N3609 0.985 . S
H3614 N3608 0.984 . S
H3615 N3608 0.984 . S
H3616 N3604 0.984 . S
H3617 N3604 0.985 . S
C3618 C3619 1.363 . S
C3618 C3624 1.379 . S
C3618 N3626 1.356 . S
C3619 C3618 1.363 . S
C3619 C3625 1.363 . S
C3620 C3621 1.363 . S
C3620 C3625 1.379 . S
C3620 N3627 1.357 1_545 S
C3621 C3620 1.363 . S
C3621 C3624 1.363 . S
N3622 C3624 1.356 . S
N3622 H3634 0.984 . S
N3622 H3635 0.985 . S
N3623 C3625 1.357 1_565 S
N3623 H3628 0.985 1_565 S
N3623 H3629 0.983 . S
C3624 C3618 1.379 . S
C3624 C3621 1.363 . S
C3624 N3622 1.356 . S
C3625 C3619 1.363 . S
C3625 C3620 1.379 . S
C3625 N3623 1.357 1_545 S
N3626 C3618 1.356 . S
N3626 H3632 0.984 . S
N3626 H3633 0.984 . S
N3627 C3620 1.357 1_565 S
N3627 H3630 0.985 1_565 S
N3627 H3631 0.983 . S
H3628 N3623 0.985 1_545 S
H3629 N3623 0.983 . S
H3630 N3627 0.985 1_545 S
H3631 N3627 0.983 . S
H3632 N3626 0.984 . S
H3633 N3626 0.984 . S
H3634 N3622 0.984 . S
H3635 N3622 0.985 . S
C3636 C3637 1.363 1_655 S
C3636 C3642 1.379 . S
C3636 N3644 1.356 . S
C3637 C3636 1.363 1_455 S
C3637 C3643 1.363 . S
C3638 C3639 1.363 1_455 S
C3638 C3643 1.379 . S
C3638 N3645 1.356 . S
C3639 C3638 1.363 1_655 S
C3639 C3642 1.363 . S
N3640 C3642 1.356 . S
N3640 H3652 0.984 . S
N3640 H3653 0.985 . S
N3641 C3643 1.356 . S
N3641 H3646 0.984 . S
N3641 H3647 0.985 . S
C3642 C3636 1.379 . S
C3642 C3639 1.363 . S
C3642 N3640 1.356 . S
C3643 C3637 1.363 . S
C3643 C3638 1.379 . S
C3643 N3641 1.356 . S
N3644 C3636 1.356 . S
N3644 H3650 0.984 . S
N3644 H3651 0.984 1_655 S
N3645 C3638 1.356 . S
N3645 H3648 0.984 1_455 S
N3645 H3649 0.985 . S
H3646 N3641 0.984 . S
H3647 N3641 0.985 . S
H3648 N3645 0.984 1_655 S
H3649 N3645 0.985 . S
H3650 N3644 0.984 . S
H3651 N3644 0.984 1_455 S
H3652 N3640 0.984 . S
H3653 N3640 0.985 . S
C3654 C3655 1.363 . S
C3654 C3660 1.379 1_455 S
C3654 N3662 1.356 . S
C3655 C3654 1.363 . S
C3655 C3661 1.363 . S
C3656 C3657 1.363 . S
C3656 C3661 1.379 1_655 S
C3656 N3663 1.356 . S
C3657 C3656 1.363 . S
C3657 C3660 1.363 . S
N3658 C3660 1.356 . S
N3658 H3670 0.984 . S
N3658 H3671 0.985 . S
N3659 C3661 1.356 . S
N3659 H3664 0.984 . S
N3659 H3665 0.985 . S
C3660 C3654 1.379 1_655 S
C3660 C3657 1.363 . S
C3660 N3658 1.356 . S
C3661 C3655 1.363 . S
C3661 C3656 1.379 1_455 S
C3661 N3659 1.356 . S
N3662 C3654 1.356 . S
N3662 H3668 0.984 . S
N3662 H3669 0.984 . S
N3663 C3656 1.356 . S
N3663 H3666 0.984 . S
N3663 H3667 0.985 . S
H3664 N3659 0.984 . S
H3665 N3659 0.985 . S
H3666 N3663 0.984 . S
H3667 N3663 0.985 . S
H3668 N3662 0.984 . S
H3669 N3662 0.984 . S
H3670 N3658 0.984 . S
H3671 N3658 0.985 . S
C3672 C3673 1.363 . S
C3672 C3678 1.379 . S
C3672 N3680 1.356 . S
C3673 C3672 1.363 . S
C3673 C3679 1.363 1_455 S
C3674 C3675 1.363 . S
C3674 C3679 1.379 . S
C3674 N3681 1.356 . S
C3675 C3674 1.363 . S
C3675 C3678 1.363 1_655 S
N3676 C3678 1.356 . S
N3676 H3688 0.984 . S
N3676 H3689 0.985 1_455 S
N3677 C3679 1.356 . S
N3677 H3682 0.984 1_655 S
N3677 H3683 0.985 . S
C3678 C3672 1.379 . S
C3678 C3675 1.363 1_455 S
C3678 N3676 1.356 . S
C3679 C3673 1.363 1_655 S
C3679 C3674 1.379 . S
C3679 N3677 1.356 . S
N3680 C3672 1.356 . S
N3680 H3686 0.984 . S
N3680 H3687 0.984 . S
N3681 C3674 1.356 . S
N3681 H3684 0.984 . S
N3681 H3685 0.985 . S
H3682 N3677 0.984 1_455 S
H3683 N3677 0.985 . S
H3684 N3681 0.984 . S
H3685 N3681 0.985 . S
H3686 N3680 0.984 . S
H3687 N3680 0.984 . S
H3688 N3676 0.984 . S
H3689 N3676 0.985 1_655 S
C3690 C3691 1.363 . S
C3690 C3696 1.379 . S
C3690 N3698 1.356 . S
C3691 C3690 1.363 . S
C3691 C3697 1.363 . S
C3692 C3693 1.363 . S
C3692 C3697 1.379 . S
C3692 N3699 1.356 . S
C3693 C3692 1.363 . S
C3693 C3696 1.363 . S
N3694 C3696 1.356 . S
N3694 H3706 0.984 . S
N3694 H3707 0.985 . S
N3695 C3697 1.356 . S
N3695 H3700 0.984 . S
N3695 H3701 0.985 . S
C3696 C3690 1.379 . S
C3696 C3693 1.363 . S
C3696 N3694 1.356 . S
C3697 C3691 1.363 . S
C3697 C3692 1.379 . S
C3697 N3695 1.356 . S
N3698 C3690 1.356 . S
N3698 H3704 0.984 . S
N3698 H3705 0.984 . S
N3699 C3692 1.356 . S
N3699 H3702 0.984 . S
N3699 H3703 0.985 . S
H3700 N3695 0.984 . S
H3701 N3695 0.985 . S
H3702 N3699 0.984 . S
H3703 N3699 0.985 . S
H3704 N3698 0.984 . S
H3705 N3698 0.984 . S
H3706 N3694 0.984 . S
H3707 N3694 0.985 . S
C3708 C3709 1.363 1_545 S
C3708 C3714 1.379 . S
C3708 N3716 1.356 . S
C3709 C3708 1.363 1_565 S
C3709 C3715 1.363 . S
C3710 C3711 1.363 1_565 S
C3710 C3715 1.379 . S
C3710 N3717 1.356 . S
C3711 C3710 1.363 1_545 S
C3711 C3714 1.363 . S
N3712 C3714 1.356 . S
N3712 H3724 0.984 . S
N3712 H3725 0.985 . S
N3713 C3715 1.356 . S
N3713 H3718 0.984 . S
N3713 H3719 0.985 . S
C3714 C3708 1.379 . S
C3714 C3711 1.363 . S
C3714 N3712 1.356 . S
C3715 C3709 1.363 . S
C3715 C3710 1.379 . S
C3715 N3713 1.356 . S
N3716 C3708 1.356 . S
N3716 H3722 0.984 . S
N3716 H3723 0.984 1_545 S
N3717 C3710 1.356 . S
N3717 H3720 0.984 1_565 S
N3717 H3721 0.985 . S
H3718 N3713 0.984 . S
H3719 N3713 0.985 . S
H3720 N3717 0.984 1_545 S
H3721 N3717 0.985 . S
H3722 N3716 0.984 . S
H3723 N3716 0.984 1_565 S
H3724 N3712 0.984 . S
H3725 N3712 0.985 . S
C3726 C3727 1.363 . S
C3726 C3732 1.379 1_554 S
C3726 N3734 1.357 1_565 S
C3727 C3726 1.363 . S
C3727 C3733 1.363 . S
C3728 C3729 1.363 . S
C3728 C3733 1.379 1_556 S
C3728 N3735 1.356 . S
C3729 C3728 1.363 . S
C3729 C3732 1.363 . S
N3730 C3732 1.357 1_545 S
N3730 H3742 0.983 . S
N3730 H3743 0.985 1_545 S
N3731 C3733 1.356 . S
N3731 H3736 0.984 . S
N3731 H3737 0.985 . S
C3732 C3726 1.379 1_556 S
C3732 C3729 1.363 . S
C3732 N3730 1.357 1_565 S
C3733 C3727 1.363 . S
C3733 C3728 1.379 1_554 S
C3733 N3731 1.356 . S
N3734 C3726 1.357 1_545 S
N3734 H3740 0.983 . S
N3734 H3741 0.985 1_545 S
N3735 C3728 1.356 . S
N3735 H3738 0.984 . S
N3735 H3739 0.985 . S
H3736 N3731 0.984 . S
H3737 N3731 0.985 . S
H3738 N3735 0.984 . S
H3739 N3735 0.985 . S
H3740 N3734 0.983 . S
H3741 N3734 0.985 1_565 S
H3742 N3730 0.983 . S
H3743 N3730 0.985 1_565 S
C1585 N904 1.294 . S
C1587 C18 1.345 . S
C1603 C51 1.345 . S
C1605 N805 1.294 . S
C1621 C84 1.345 . S
C1623 N838 1.294 . S
C1639 N871 1.294 . S
C1641 C117 1.345 . S
C1657 C150 1.345 . S
C1659 N178 1.294 . S
C1675 N211 1.294 . S
C1677 C183 1.345 1_655 S
C1693 N244 1.294 . S
C1695 C216 1.345 . S
C1711 C249 1.345 1_455 S
C1713 N145 1.294 . S
C1729 C282 1.345 . S
C1731 N1399 1.294 . S
C1747 C315 1.345 1_556 S
C1749 N1432 1.294 . S
C1765 C348 1.345 . S
C1767 N673 1.294 . S
C1783 N1366 1.294 . S
C1785 C381 1.345 1_556 S
C1801 N1531 1.294 . S
C1803 C414 1.345 . S
C1819 N541 1.294 . S
C1821 C447 1.345 1_554 S
C1837 C480 1.345 . S
C1839 N1564 1.294 . S
C1855 C513 1.345 1_554 S
C1857 N1498 1.294 . S
C1873 N310 1.294 . S
C1875 C546 1.345 . S
C1891 N1300 1.294 . S
C1893 C579 1.345 . S
C1909 N1201 1.294 . S
C1911 C612 1.345 . S
C1927 N1234 1.294 . S
C1929 C645 1.345 . S
C1945 C678 1.345 . S
C1947 N475 1.294 . S
C1963 C711 1.345 . S
C1965 N1168 1.294 . S
C1981 N1069 1.294 . S
C1983 C744 1.345 . S
C1999 C777 1.345 1_565 S
C2001 N1135 1.294 . S
C2017 C810 1.345 . S
C2019 N112 1.294 . S
C2035 C843 1.345 1_455 S
C2037 N13 1.294 . S
C2053 N46 1.294 . S
C2055 C876 1.345 . S
C2071 N79 1.294 . S
C2073 C909 1.345 1_655 S
C2089 N970 1.294 . S
C2091 C942 1.345 . S
C2107 N1003 1.294 . S
C2109 C975 1.345 . S
C2125 C1008 1.345 . S
C2127 N1036 1.294 . S
C2143 C1041 1.345 . S
C2145 N937 1.294 . S
C2161 C1074 1.345 . S
C2163 N607 1.294 . S
C2179 N640 1.294 . S
C2181 C1107 1.345 . S
C2197 N1465 1.294 . S
C2199 C1140 1.345 . S
C2215 C1173 1.345 . S
C2217 N574 1.294 . S
C2233 N739 1.294 . S
C2235 C1206 1.345 . S
C2251 C1239 1.345 . S
C2253 N1333 1.294 . S
C2269 C1272 1.345 . S
C2271 N772 1.294 . S
C2287 N706 1.294 . S
C2289 C1305 1.345 . S
C2305 N1102 1.294 . S
C2307 C1338 1.345 . S
C2323 N508 1.294 . S
C2325 C1371 1.345 . S
C2341 C1404 1.345 1_565 S
C2343 N409 1.294 . S
C2359 N442 1.294 . S
C2361 C1437 1.345 . S
C2377 C1470 1.345 1_545 S
C2379 N1267 1.294 . S
C2395 C1503 1.345 . S
C2397 N376 1.294 . S
C2413 N277 1.294 . S
C2415 C1536 1.345 1_545 S
C2431 N343 1.294 . S
C2433 C1569 1.345 . S
C2449 C1393 0.842 . S
C2451 C21 0.818 . S
C2467 C1426 0.842 . S
C2469 C54 0.818 . S
C2485 C667 0.842 . S
C2487 C87 0.818 . S
C2503 C1360 0.842 . S
C2505 C120 0.818 . S
C2521 C153 0.818 . S
C2523 C1525 0.842 . S
C2539 C535 0.842 . S
C2541 C186 0.818 . S
C2557 C1558 0.842 . S
C2559 C219 0.818 . S
C2575 C252 0.818 . S
C2577 C1492 0.842 . S
C2593 C285 0.818 . S
C2595 C304 0.842 . S
C2611 C337 0.842 . S
C2613 C318 0.818 . S
C2629 C370 0.842 . S
C2631 C351 0.818 . S
C2647 C271 0.842 . S
C2649 C384 0.818 . S
C2665 C1294 0.842 . S
C2667 C417 0.818 . S
C2683 C1195 0.842 . S
C2685 C450 0.818 . S
C2701 C1228 0.842 . S
C2703 C483 0.818 . S
C2719 C516 0.818 . S
C2721 C1261 0.842 . S
C2737 C898 0.842 . S
C2739 C549 0.818 . S
C2755 C582 0.818 . S
C2757 C172 0.842 . S
C2773 C205 0.842 . S
C2775 C615 0.818 . S
C2791 C238 0.842 . S
C2793 C648 0.818 . S
C2809 C681 0.818 . S
C2811 C931 0.842 . S
C2827 C40 0.842 . S
C2829 C714 0.818 . S
C2845 C747 0.818 . S
C2847 C73 0.842 . S
C2863 C780 0.818 . S
C2865 C7 0.842 . S
C2881 C601 0.842 . S
C2883 C813 0.818 . S
C2899 C634 0.842 . S
C2901 C846 0.818 . S
C2917 C879 0.818 . S
C2919 C1459 0.842 . S
C2935 C912 0.818 . S
C2937 C568 0.842 . S
C2953 C733 0.842 . S
C2955 C945 0.818 . S
C2971 C1327 0.842 . S
C2973 C978 0.818 . S
C2989 C766 0.842 . S
C2991 C1011 0.818 . S
C3007 C1044 0.818 . S
C3009 C700 0.842 . S
C3025 C1077 0.818 . S
C3027 C1096 0.842 . S
C3043 C1129 0.842 . S
C3045 C1110 0.818 . S
C3061 C1143 0.818 . S
C3063 C1162 0.842 . S
C3079 C1176 0.818 . S
C3081 C1063 0.842 . S
C3097 C1209 0.818 . S
C3099 C502 0.842 . S
C3115 C403 0.842 . S
C3117 C1242 0.818 . S
C3133 C436 0.842 . S
C3135 C1275 0.818 . S
C3151 C469 0.842 . S
C3153 C1308 0.818 . S
C3169 C106 0.842 . S
C3171 C1341 0.818 . S
C3187 C964 0.842 . S
C3189 C1374 0.818 . S
C3205 C1407 0.818 . S
C3207 C997 0.842 . S
C3223 C1440 0.818 . S
C3225 C1030 0.842 . S
C3241 C1473 0.818 . S
C3243 C139 0.842 . S
C3259 C1506 0.818 . S
C3261 C832 0.842 . S
C3277 C1539 0.818 . S
C3279 C865 0.842 . S
C3295 C799 0.842 . S
C3297 C1572 0.818 . S
C3313 N2 1.224 . S
C3315 N992 1.224 . S
C3331 N35 1.224 . S
C3333 N1025 1.224 . S
C3349 N926 1.224 . S
C3351 N68 1.224 . S
C3367 N959 1.224 . S
C3369 N101 1.224 . S
C3385 N134 1.224 . S
C3387 N860 1.224 . S
C3403 N893 1.224 . S
C3405 N167 1.224 . S
C3421 N794 1.224 . S
C3423 N200 1.224 . S
C3439 N827 1.224 . S
C3441 N233 1.224 . S
C3457 N266 1.224 . S
C3459 N332 1.224 . S
C3475 N299 1.225 . S
C3477 N365 1.225 . S
C3493 N464 1.225 . S
C3495 N398 1.225 . S
C3511 N431 1.224 . S
C3513 N497 1.224 . S
C3529 N530 1.224 . S
C3531 N563 1.224 . S
C3547 N1553 1.224 . S
C3549 N596 1.224 . S
C3565 N1487 1.224 . S
C3567 N629 1.224 . S
C3583 N662 1.224 . S
C3585 N728 1.224 . S
C3601 N695 1.224 . S
C3603 N1421 1.224 . S
C3619 N761 1.224 . S
C3621 N1388 1.224 . S
C3637 N1124 1.224 . S
C3639 N1058 1.224 . S
C3655 N1157 1.225 . S
C3657 N1091 1.225 . S
C3673 N1256 1.225 . S
C3675 N1190 1.225 . S
C3691 N1289 1.224 . S
C3693 N1223 1.224 . S
C3709 N1322 1.224 . S
C3711 N1355 1.224 . S
C3727 N1520 1.224 . S
C3729 N1454 1.224 . S
