# Generated by pormake.
# Topology zfh, (5)-cn, num edge types: 1
# Building blocks:
#     Node 0, Type 0, BuildingBlock: XOMCOT_clean_sbu_1, # of connection points: 5
#     Node 1, Type 0, BuildingBlock: XOMCOT_clean_sbu_1, # of connection points: 5
#     Node 2, Type 0, BuildingBlock: XOMCOT_clean_sbu_1, # of connection points: 5
#     Node 3, Type 0, BuildingBlock: XOMCOT_clean_sbu_1, # of connection points: 5
#     Node 4, Type 0, BuildingBlock: XOMCOT_clean_sbu_1, # of connection points: 5
#     Node 5, Type 0, BuildingBlock: XOMCOT_clean_sbu_1, # of connection points: 5
#     Node 6, Type 0, BuildingBlock: XOMCOT_clean_sbu_1, # of connection points: 5
#     Node 7, Type 0, BuildingBlock: XOMCOT_clean_sbu_1, # of connection points: 5
#     Node 8, Type 0, BuildingBlock: XOMCOT_clean_sbu_1, # of connection points: 5
#     Node 9, Type 0, BuildingBlock: XOMCOT_clean_sbu_1, # of connection points: 5
#     Node 10, Type 0, BuildingBlock: XOMCOT_clean_sbu_1, # of connection points: 5
#     Node 11, Type 0, BuildingBlock: XOMCOT_clean_sbu_1, # of connection points: 5
#     Node 12, Type 0, BuildingBlock: XOMCOT_clean_sbu_1, # of connection points: 5
#     Node 13, Type 0, BuildingBlock: XOMCOT_clean_sbu_1, # of connection points: 5
#     Node 14, Type 0, BuildingBlock: XOMCOT_clean_sbu_1, # of connection points: 5
#     Node 15, Type 0, BuildingBlock: XOMCOT_clean_sbu_1, # of connection points: 5
#     Edge 16, Type (0, 0), BuildingBlock: XUDNAN_clean_linker_2, # of connection points: 2
#     Edge 17, Type (0, 0), BuildingBlock: XUDNAN_clean_linker_2, # of connection points: 2
#     Edge 18, Type (0, 0), BuildingBlock: XUDNAN_clean_linker_2, # of connection points: 2
#     Edge 19, Type (0, 0), BuildingBlock: XUDNAN_clean_linker_2, # of connection points: 2
#     Edge 20, Type (0, 0), BuildingBlock: XUDNAN_clean_linker_2, # of connection points: 2
#     Edge 21, Type (0, 0), BuildingBlock: XUDNAN_clean_linker_2, # of connection points: 2
#     Edge 22, Type (0, 0), BuildingBlock: XUDNAN_clean_linker_2, # of connection points: 2
#     Edge 23, Type (0, 0), BuildingBlock: XUDNAN_clean_linker_2, # of connection points: 2
#     Edge 24, Type (0, 0), BuildingBlock: XUDNAN_clean_linker_2, # of connection points: 2
#     Edge 25, Type (0, 0), BuildingBlock: XUDNAN_clean_linker_2, # of connection points: 2
#     Edge 26, Type (0, 0), BuildingBlock: XUDNAN_clean_linker_2, # of connection points: 2
#     Edge 27, Type (0, 0), BuildingBlock: XUDNAN_clean_linker_2, # of connection points: 2
#     Edge 28, Type (0, 0), BuildingBlock: XUDNAN_clean_linker_2, # of connection points: 2
#     Edge 29, Type (0, 0), BuildingBlock: XUDNAN_clean_linker_2, # of connection points: 2
#     Edge 30, Type (0, 0), BuildingBlock: XUDNAN_clean_linker_2, # of connection points: 2
#     Edge 31, Type (0, 0), BuildingBlock: XUDNAN_clean_linker_2, # of connection points: 2
#     Edge 32, Type (0, 0), BuildingBlock: XUDNAN_clean_linker_2, # of connection points: 2
#     Edge 33, Type (0, 0), BuildingBlock: XUDNAN_clean_linker_2, # of connection points: 2
#     Edge 34, Type (0, 0), BuildingBlock: XUDNAN_clean_linker_2, # of connection points: 2
#     Edge 35, Type (0, 0), BuildingBlock: XUDNAN_clean_linker_2, # of connection points: 2
#     Edge 36, Type (0, 0), BuildingBlock: XUDNAN_clean_linker_2, # of connection points: 2
#     Edge 37, Type (0, 0), BuildingBlock: XUDNAN_clean_linker_2, # of connection points: 2
#     Edge 38, Type (0, 0), BuildingBlock: XUDNAN_clean_linker_2, # of connection points: 2
#     Edge 39, Type (0, 0), BuildingBlock: XUDNAN_clean_linker_2, # of connection points: 2
#     Edge 40, Type (0, 0), BuildingBlock: XUDNAN_clean_linker_2, # of connection points: 2
#     Edge 41, Type (0, 0), BuildingBlock: XUDNAN_clean_linker_2, # of connection points: 2
#     Edge 42, Type (0, 0), BuildingBlock: XUDNAN_clean_linker_2, # of connection points: 2
#     Edge 43, Type (0, 0), BuildingBlock: XUDNAN_clean_linker_2, # of connection points: 2
#     Edge 44, Type (0, 0), BuildingBlock: XUDNAN_clean_linker_2, # of connection points: 2
#     Edge 45, Type (0, 0), BuildingBlock: XUDNAN_clean_linker_2, # of connection points: 2
#     Edge 46, Type (0, 0), BuildingBlock: XUDNAN_clean_linker_2, # of connection points: 2
#     Edge 47, Type (0, 0), BuildingBlock: XUDNAN_clean_linker_2, # of connection points: 2
#     Edge 48, Type (0, 0), BuildingBlock: XUDNAN_clean_linker_2, # of connection points: 2
#     Edge 49, Type (0, 0), BuildingBlock: XUDNAN_clean_linker_2, # of connection points: 2
#     Edge 50, Type (0, 0), BuildingBlock: XUDNAN_clean_linker_2, # of connection points: 2
#     Edge 51, Type (0, 0), BuildingBlock: XUDNAN_clean_linker_2, # of connection points: 2
#     Edge 52, Type (0, 0), BuildingBlock: XUDNAN_clean_linker_2, # of connection points: 2
#     Edge 53, Type (0, 0), BuildingBlock: XUDNAN_clean_linker_2, # of connection points: 2
#     Edge 54, Type (0, 0), BuildingBlock: XUDNAN_clean_linker_2, # of connection points: 2
#     Edge 55, Type (0, 0), BuildingBlock: XUDNAN_clean_linker_2, # of connection points: 2
# Relax obj value: 0.226
# Max RMSD: 0.218
# Mean RMSD: 0.218
data_MOF--net-zfh--node1-XOMCOT_clean_sbu_1--edge1-XUDNAN_clean_linker_2
_symmetry_space_group_name_H-M    P1
_symmetry_Int_Tables_number       1
_symmetry_cell_setting            triclinic
loop_
_symmetry_equiv_pos_as_xyz
'x, y, z'
_cell_length_a     39.786362
_cell_length_b     39.739662
_cell_length_c     52.262672
_cell_angle_alpha  90.143372
_cell_angle_beta   89.988871
_cell_angle_gamma 89.904717
loop_
_atom_site_label
_atom_site_type_symbol
_atom_site_fract_x
_atom_site_fract_y
_atom_site_fract_z
_atom_type_partial_charge
C0 C 0.53839 0.24876 0.37972 0.0
C1 C 0.51954 0.27698 0.37433 0.0
N2 N 0.49241 0.27722 0.38982 0.0
N3 N 0.52313 0.23127 0.39845 0.0
C4 C 0.49519 0.24913 0.40412 0.0
H5 H 0.56229 0.2421 0.37122 0.0
Co6 Co 0.53934 0.19414 0.41622 0.0
C7 C 0.47115 0.16632 0.43045 0.0
O8 O 0.47573 0.16913 0.45525 0.0
N9 N 0.55596 0.15706 0.43439 0.0
C10 C 0.56561 0.10686 0.45183 0.0
C11 C 0.54287 0.12613 0.43834 0.0
C12 C 0.58676 0.15573 0.44522 0.0
N13 N 0.5932 0.12558 0.45587 0.0
O14 O 0.53124 0.21783 0.44785 0.0
H15 H 0.51896 0.11745 0.43112 0.0
H16 H 0.60461 0.17621 0.44478 0.0
O17 O 0.49443 0.17496 0.41501 0.0
C18 C 0.55664 0.23701 0.45114 0.0
O19 O 0.581 0.23558 0.43417 0.0
N20 N 0.55074 0.17299 0.38535 0.0
C21 C 0.57685 0.15082 0.33863 0.0
C22 C 0.54193 0.15307 0.34242 0.0
C23 C 0.52932 0.16436 0.36601 0.0
C24 C 0.58458 0.17038 0.38208 0.0
C25 C 0.5981 0.15878 0.35918 0.0
H26 H 0.5026 0.16771 0.36819 0.0
H27 H 0.60137 0.17856 0.39708 0.0
H28 H 0.47832 0.24267 0.41958 0.0
H29 H 0.52582 0.29623 0.36053 0.0
H30 H 0.56276 0.08074 0.45724 0.0
H31 H 0.52457 0.1477 0.32699 0.0
H32 H 0.62517 0.15698 0.35742 0.0
C33 C 0.25799 0.54477 0.38864 0.0
C34 C 0.22885 0.5268 0.38534 0.0
N35 N 0.23166 0.49728 0.39793 0.0
N36 N 0.2794 0.52671 0.40306 0.0
C37 C 0.26274 0.49797 0.40851 0.0
H38 H 0.2626 0.57011 0.38204 0.0
Co39 Co 0.31921 0.5427 0.41694 0.0
C40 C 0.36904 0.48918 0.40842 0.0
O41 O 0.38993 0.513 0.40133 0.0
N42 N 0.35913 0.55943 0.43242 0.0
C43 C 0.4005 0.56344 0.46103 0.0
C44 C 0.3761 0.54295 0.45099 0.0
C45 C 0.37324 0.59047 0.43226 0.0
N46 N 0.3986 0.59349 0.44933 0.0
O47 O 0.30126 0.53486 0.45038 0.0
H48 H 0.37012 0.51795 0.4577 0.0
H49 H 0.36357 0.61148 0.42155 0.0
O50 O 0.33907 0.49703 0.41528 0.0
C51 C 0.29016 0.56289 0.45877 0.0
O52 O 0.29389 0.58992 0.44464 0.0
N53 N 0.33428 0.55356 0.38366 0.0
C54 C 0.34837 0.57792 0.33464 0.0
C55 C 0.34755 0.54318 0.33937 0.0
C56 C 0.33949 0.53148 0.36389 0.0
C57 C 0.33303 0.58719 0.37887 0.0
C58 C 0.34085 0.59996 0.35483 0.0
H59 H 0.33627 0.50477 0.36662 0.0
H60 H 0.32416 0.60423 0.3935 0.0
H61 H 0.27283 0.47864 0.42084 0.0
H62 H 0.20668 0.53585 0.37555 0.0
H63 H 0.4174 0.55703 0.47649 0.0
H64 H 0.3516 0.52524 0.32404 0.0
H65 H 0.34026 0.62694 0.352 0.0
C66 C 0.97789 0.25398 0.3798 0.0
C67 C 0.99999 0.22738 0.37937 0.0
N68 N 0.02682 0.23575 0.39361 0.0
N69 N 0.99092 0.27913 0.39404 0.0
C70 C 0.02086 0.26719 0.40239 0.0
H71 H 0.9536 0.25488 0.37054 0.0
Co72 Co 0.96758 0.31884 0.40068 0.0
C73 C 0.02039 0.37219 0.40069 0.0
O74 O 1.00011 0.39167 0.38769 0.0
N75 N 0.94173 0.35916 0.40761 0.0
C76 C 0.91192 0.40653 0.4027 0.0
C77 C 0.93283 0.3839 0.39104 0.0
C78 C 0.92489 0.36768 0.42935 0.0
N79 N 0.90672 0.39635 0.4268 0.0
O80 O 0.96516 0.30596 0.43575 0.0
H81 H 0.94087 0.38608 0.3714 0.0
H82 H 0.92538 0.35306 0.44674 0.0
O83 O 0.0107 0.34272 0.40728 0.0
C84 C 0.94038 0.28639 0.43983 0.0
O85 O 0.91903 0.28098 0.42108 0.0
N86 N 0.96842 0.32822 0.36555 0.0
C87 C 0.96167 0.34499 0.31425 0.0
C88 C 0.99359 0.3435 0.32558 0.0
C89 C 0.99651 0.33432 0.35128 0.0
C90 C 0.93787 0.32528 0.35397 0.0
C91 C 0.93375 0.33438 0.32844 0.0
H92 H 0.02122 0.33271 0.35972 0.0
H93 H 0.91623 0.31785 0.36514 0.0
H94 H 0.03771 0.28098 0.41482 0.0
H95 H 0.99661 0.2036 0.36955 0.0
H96 H 0.90039 0.42819 0.39373 0.0
H97 H 0.01593 0.3504 0.31498 0.0
H98 H 0.90887 0.33378 0.32005 0.0
C99 C 0.25005 0.9807 0.36818 0.0
C100 C 0.27843 0.99973 0.36393 0.0
N101 N 0.28097 0.02266 0.38286 0.0
N102 N 0.23447 0.99202 0.38945 0.0
C103 C 0.25408 0.01744 0.39806 0.0
H104 H 0.24141 0.95991 0.35654 0.0
Co105 Co 0.1953 0.97573 0.4047 0.0
C106 C 0.16588 0.03932 0.4244 0.0
O107 O 0.16215 0.02642 0.44734 0.0
N108 N 0.15606 0.95918 0.42018 0.0
C109 C 0.10233 0.94825 0.42838 0.0
C110 C 0.12423 0.96994 0.41649 0.0
C111 C 0.15282 0.93084 0.43423 0.0
N112 N 0.12035 0.92354 0.43947 0.0
O113 O 0.21666 0.97984 0.43736 0.0
H114 H 0.11723 0.9914 0.40496 0.0
H115 H 0.17371 0.91479 0.43932 0.0
O116 O 0.17846 0.02153 0.40644 0.0
C117 C 0.23484 0.95426 0.44235 0.0
O118 O 0.23498 0.929 0.42607 0.0
N119 N 0.17542 0.9692 0.37249 0.0
C120 C 0.14222 0.95159 0.32748 0.0
C121 C 0.15058 0.98528 0.33241 0.0
C122 C 0.16718 0.99368 0.35525 0.0
C123 C 0.16917 0.93622 0.36717 0.0
C124 C 0.15213 0.92691 0.34498 0.0
H125 H 0.17312 0.01972 0.35912 0.0
H126 H 0.17667 0.91706 0.38069 0.0
H127 H 0.24859 0.03208 0.41506 0.0
H128 H 0.29613 0.99665 0.34836 0.0
H129 H 0.0752 0.95026 0.42845 0.0
H130 H 0.14344 1.00495 0.31915 0.0
H131 H 0.14645 0.90061 0.34163 0.0
C132 C 0.01864 0.77413 0.12543 0.0
C133 C 0.99709 0.74807 0.13096 0.0
N134 N 0.97622 0.7439 0.11094 0.0
N135 N 0.01095 0.78672 0.10219 0.0
C136 C 0.98508 0.76761 0.09381 0.0
H137 H 0.03918 0.78263 0.13732 0.0
Co138 Co 0.03341 0.8198 0.0836 0.0
C139 C 0.98198 0.87313 0.07588 0.0
O140 O 1.00564 0.89563 0.07976 0.0
N141 N 0.05658 0.85214 0.06367 0.0
C142 C 0.07058 0.88156 0.02903 0.0
C143 C 0.04589 0.86284 0.04055 0.0
C144 C 0.08841 0.86411 0.06533 0.0
N145 N 0.09756 0.88233 0.04459 0.0
O146 O 0.02957 0.79199 0.05356 0.0
H147 H 0.02216 0.85597 0.03193 0.0
H148 H 0.10532 0.85822 0.08072 0.0
O149 O 0.98961 0.84176 0.0763 0.0
C150 C 0.05433 0.7719 0.05068 0.0
O151 O 0.07944 0.77386 0.06695 0.0
N152 N 0.03924 0.84517 0.11428 0.0
C153 C 0.05203 0.87317 0.16268 0.0
C154 C 0.0193 0.87221 0.1527 0.0
C155 C 0.01334 0.85742 0.12883 0.0
C156 C 0.07093 0.84452 0.12426 0.0
C157 C 0.07805 0.85906 0.14806 0.0
H158 H 0.98758 0.85425 0.12293 0.0
H159 H 0.09047 0.83062 0.11456 0.0
H160 H 0.97337 0.7706 0.07526 0.0
H161 H 0.99765 0.73245 0.1479 0.0
H162 H 0.06933 0.89187 0.00992 0.0
H163 H 0.99822 0.8819 0.16357 0.0
H164 H 0.10339 0.85753 0.15554 0.0
C165 C 0.73859 0.03334 0.11689 0.0
C166 C 0.76867 0.01628 0.11843 0.0
N167 N 0.76711 0.9891 0.103 0.0
N168 N 0.71793 0.01696 0.10067 0.0
C169 C 0.73598 0.99 0.09262 0.0
H170 H 0.73302 0.05719 0.12592 0.0
Co171 Co 0.67758 0.03316 0.08682 0.0
C172 C 0.65273 0.9637 0.07433 0.0
O173 O 0.65825 0.96707 0.04969 0.0
N174 N 0.63766 0.05026 0.07241 0.0
C175 C 0.58776 0.05875 0.05408 0.0
C176 C 0.60902 0.03508 0.06467 0.0
C177 C 0.6329 0.08309 0.06662 0.0
N178 N 0.60286 0.08894 0.05553 0.0
O179 O 0.69529 0.02481 0.05354 0.0
H180 H 0.6036 0.0086 0.06641 0.0
H181 H 0.65148 0.10244 0.06993 0.0
O182 O 0.65878 0.98809 0.0896 0.0
C183 C 0.712 0.0508 0.0472 0.0
O184 O 0.7111 0.07706 0.06253 0.0
N185 N 0.66197 0.04468 0.1195 0.0
C186 C 0.64678 0.07107 0.16771 0.0
C187 C 0.64143 0.03683 0.16232 0.0
C188 C 0.64926 0.02404 0.13798 0.0
C189 C 0.66649 0.07803 0.12429 0.0
C190 C 0.65875 0.09179 0.14805 0.0
H191 H 0.64588 0.99758 0.13442 0.0
H192 H 0.67731 0.09394 0.10974 0.0
H193 H 0.7274 0.97277 0.07795 0.0
H194 H 0.79043 0.02398 0.12939 0.0
H195 H 0.56303 0.0542 0.04617 0.0
H196 H 0.63244 0.01986 0.17698 0.0
H197 H 0.66274 0.11846 0.15107 0.0
C198 C 0.47246 0.73606 0.12547 0.0
C199 C 0.49211 0.76322 0.13203 0.0
N200 N 0.51731 0.76555 0.11493 0.0
N201 N 0.48561 0.72088 0.10461 0.0
C202 C 0.51284 0.73962 0.09857 0.0
H203 H 0.44945 0.72861 0.13487 0.0
Co204 Co 0.46759 0.68545 0.08539 0.0
C205 C 0.51964 0.63237 0.09009 0.0
O206 O 0.49576 0.61038 0.09471 0.0
N207 N 0.44905 0.65078 0.06463 0.0
C208 C 0.44346 0.61573 0.03147 0.0
C209 C 0.46583 0.63292 0.04662 0.0
C210 C 0.41625 0.64494 0.05908 0.0
N211 N 0.41217 0.62343 0.03927 0.0
O212 O 0.47859 0.70917 0.05492 0.0
H213 H 0.49259 0.63419 0.04324 0.0
H214 H 0.39559 0.65872 0.06741 0.0
O215 O 0.51187 0.66313 0.08577 0.0
C216 C 0.45323 0.72735 0.04945 0.0
O217 O 0.42654 0.72533 0.0642 0.0
N218 N 0.45379 0.66412 0.11603 0.0
C219 C 0.42559 0.646 0.16313 0.0
C220 C 0.46056 0.64542 0.15958 0.0
C221 C 0.47423 0.65522 0.136 0.0
C222 C 0.4199 0.66537 0.11954 0.0
C223 C 0.40527 0.65554 0.1425 0.0
H224 H 0.50116 0.65774 0.13449 0.0
H225 H 0.40411 0.67675 0.1053 0.0
H226 H 0.52865 0.73483 0.08209 0.0
H227 H 0.48736 0.78085 0.14745 0.0
H228 H 0.44979 0.60011 0.01517 0.0
H229 H 0.47727 0.63948 0.17529 0.0
H230 H 0.3782 0.65695 0.14437 0.0
C231 C 0.76664 0.47094 0.1162 0.0
C232 C 0.73691 0.48763 0.12108 0.0
N233 N 0.73575 0.5154 0.10631 0.0
N234 N 0.78414 0.48816 0.09848 0.0
C235 C 0.76476 0.51512 0.0929 0.0
H236 H 0.7744 0.44714 0.12429 0.0
Co237 Co 0.82308 0.47479 0.08153 0.0
C238 C 0.84812 0.54272 0.06633 0.0
O239 O 0.8497 0.53492 0.04192 0.0
N240 N 0.86209 0.46093 0.06446 0.0
C241 C 0.91576 0.45159 0.05495 0.0
C242 C 0.89341 0.4738 0.06596 0.0
C243 C 0.86608 0.43099 0.05257 0.0
N244 N 0.89852 0.42449 0.04671 0.0
O245 O 0.80046 0.48123 0.04968 0.0
H246 H 0.90005 0.49664 0.07601 0.0
H247 H 0.84596 0.413 0.05024 0.0
O248 O 0.83843 0.52089 0.08255 0.0
C249 C 0.78306 0.45494 0.0453 0.0
O250 O 0.78513 0.42988 0.06161 0.0
N251 N 0.84402 0.46544 0.11256 0.0
C252 C 0.88002 0.44258 0.15458 0.0
C253 C 0.87265 0.47694 0.15198 0.0
C254 C 0.85458 0.488 0.13059 0.0
C255 C 0.84916 0.43184 0.11578 0.0
C256 C 0.86759 0.41989 0.13644 0.0
H257 H 0.84947 0.51452 0.12846 0.0
H258 H 0.83963 0.41426 0.10173 0.0
H259 H 0.77096 0.53312 0.07813 0.0
H260 H 0.71736 0.47952 0.13407 0.0
H261 H 0.94276 0.45461 0.0541 0.0
H262 H 0.88152 0.49503 0.16596 0.0
H263 H 0.87215 0.3931 0.13821 0.0
C264 C 0.48037 0.76092 0.60495 0.0
C265 C 0.49992 0.73249 0.60774 0.0
N266 N 0.53065 0.73896 0.5981 0.0
N267 N 0.49872 0.78518 0.59364 0.0
C268 C 0.52921 0.77105 0.58967 0.0
H269 H 0.45411 0.76341 0.60996 0.0
Co270 Co 0.48207 0.8258 0.581 0.0
C271 C 0.53644 0.87352 0.59338 0.0
O272 O 0.51334 0.89302 0.60367 0.0
N273 N 0.46433 0.86595 0.56647 0.0
C274 C 0.45854 0.91304 0.54365 0.0
C275 C 0.48102 0.89079 0.55416 0.0
C276 C 0.43158 0.87255 0.56122 0.0
N277 N 0.42741 0.90151 0.54811 0.0
O278 O 0.48989 0.80919 0.54731 0.0
H279 H 0.50784 0.89184 0.55123 0.0
H280 H 0.41118 0.85567 0.56582 0.0
O281 O 0.5277 0.84576 0.58272 0.0
C282 C 0.46455 0.79159 0.54093 0.0
O283 O 0.43862 0.79065 0.55648 0.0
N284 N 0.47235 0.84001 0.61514 0.0
C285 C 0.4562 0.85646 0.66579 0.0
C286 C 0.48826 0.84441 0.65949 0.0
C287 C 0.4957 0.83598 0.63416 0.0
C288 C 0.44054 0.85007 0.62131 0.0
C289 C 0.43216 0.85917 0.64635 0.0
H290 H 0.52036 0.82604 0.62985 0.0
H291 H 0.42094 0.84999 0.60722 0.0
H292 H 0.54946 0.78348 0.57961 0.0
H293 H 0.49204 0.70883 0.616 0.0
H294 H 0.46464 0.93475 0.53208 0.0
H295 H 0.50743 0.84141 0.67402 0.0
H296 H 0.40668 0.86701 0.65063 0.0
C297 C 0.75841 0.47447 0.62183 0.0
C298 C 0.79025 0.48808 0.62279 0.0
N299 N 0.79219 0.51241 0.60503 0.0
N300 N 0.74034 0.49017 0.60351 0.0
C301 C 0.76197 0.51291 0.5934 0.0
H302 H 0.74962 0.45345 0.63306 0.0
Co303 Co 0.69815 0.4771 0.59038 0.0
C304 C 0.69003 0.55128 0.60206 0.0
O305 O 0.7141 0.55072 0.61924 0.0
N306 N 0.65688 0.46287 0.57684 0.0
C307 C 0.60235 0.45612 0.56907 0.0
C308 C 0.6262 0.47678 0.57996 0.0
C309 C 0.65101 0.43375 0.56417 0.0
N310 N 0.61799 0.42893 0.55916 0.0
O311 O 0.71608 0.48213 0.55666 0.0
H312 H 0.62122 0.4998 0.59033 0.0
H313 H 0.67046 0.41565 0.55974 0.0
O314 O 0.68151 0.52421 0.59037 0.0
C315 C 0.73304 0.4557 0.55143 0.0
O316 O 0.73282 0.43089 0.56802 0.0
N317 N 0.6818 0.46806 0.6233 0.0
C318 C 0.66253 0.43975 0.67002 0.0
C319 C 0.66096 0.47478 0.66621 0.0
C320 C 0.6704 0.48849 0.64251 0.0
C321 C 0.68254 0.43412 0.62651 0.0
C322 C 0.67264 0.41947 0.64938 0.0
H323 H 0.66862 0.51526 0.64002 0.0
H324 H 0.69123 0.41821 0.61104 0.0
H325 H 0.756 0.52886 0.57725 0.0
H326 H 0.81059 0.48035 0.63523 0.0
H327 H 0.57554 0.46072 0.56875 0.0
H328 H 0.65316 0.49154 0.68145 0.0
H329 H 0.67309 0.3923 0.65075 0.0
C330 C 0.02815 0.76036 0.62502 0.0
C331 C 0.01067 0.7902 0.62339 0.0
N332 N 0.99449 0.79085 0.60077 0.0
N333 N 0.02237 0.74174 0.60383 0.0
C334 C 1.00232 0.76144 0.58923 0.0
H335 H 0.04514 0.75342 0.64028 0.0
Co336 Co 0.04441 0.7018 0.59385 0.0
C337 C 0.96981 0.6812 0.59047 0.0
O338 O 0.95764 0.70964 0.59932 0.0
N339 N 0.06747 0.66289 0.58346 0.0
C340 C 0.0838 0.60988 0.57717 0.0
C341 C 0.05874 0.63035 0.58673 0.0
C342 C 0.09815 0.66155 0.57242 0.0
N343 N 0.10861 0.62966 0.56835 0.0
O344 O 0.04516 0.71821 0.5593 0.0
H345 H 0.03635 0.62199 0.59649 0.0
H346 H 0.11291 0.68354 0.56784 0.0
O347 O 1.00165 0.67736 0.58798 0.0
C348 C 0.06904 0.73931 0.55656 0.0
O349 O 0.08956 0.74418 0.57593 0.0
N350 N 0.04635 0.6872 0.62814 0.0
C351 C 0.05675 0.67444 0.68039 0.0
C352 C 0.02425 0.68027 0.67056 0.0
C353 C 0.01955 0.686 0.6444 0.0
C354 C 0.07801 0.68179 0.63719 0.0
C355 C 0.08365 0.67442 0.66291 0.0
H356 H 0.99462 0.69169 0.63765 0.0
H357 H 0.09932 0.68383 0.62447 0.0
H358 H 0.99374 0.75435 0.57033 0.0
H359 H 0.01114 0.81047 0.63725 0.0
H360 H 0.08442 0.58265 0.57768 0.0
H361 H 1.00248 0.68168 0.68289 0.0
H362 H 0.10916 0.66916 0.66876 0.0
C363 C 0.77906 0.03308 0.63496 0.0
C364 C 0.75136 0.0128 0.63795 0.0
N365 N 0.7497 0.99161 0.61779 0.0
N366 N 0.79488 0.02465 0.61306 0.0
C367 C 0.77656 0.9992 0.6031 0.0
H368 H 0.7865 0.0535 0.64744 0.0
Co369 Co 0.83066 0.04729 0.59797 0.0
C370 C 0.85969 0.99225 0.56718 0.0
O371 O 0.85506 0.0096 0.54611 0.0
N372 N 0.86651 0.06993 0.58283 0.0
C373 C 0.91826 0.08607 0.57284 0.0
C374 C 0.89933 0.0615 0.58433 0.0
C375 C 0.86604 0.09959 0.57026 0.0
N376 N 0.89731 0.11004 0.56405 0.0
O377 O 0.8059 0.0496 0.56647 0.0
H378 H 0.90895 0.03932 0.59381 0.0
H379 H 0.84332 0.11377 0.56655 0.0
O380 O 0.85061 1.00455 0.58865 0.0
C381 C 0.78005 0.06855 0.56723 0.0
O382 O 0.77289 0.08468 0.58852 0.0
N383 N 0.85363 0.04729 0.62921 0.0
C384 C 0.88661 0.05396 0.67603 0.0
C385 C 0.87939 0.02197 0.66595 0.0
C386 C 0.86262 0.01917 0.64251 0.0
C387 C 0.8598 0.07849 0.63892 0.0
C388 C 0.87659 0.08242 0.66211 0.0
H389 H 0.85617 0.9945 0.63539 0.0
H390 H 0.85174 0.10053 0.62846 0.0
H391 H 0.7817 0.98789 0.58464 0.0
H392 H 0.73338 0.01414 0.65346 0.0
H393 H 0.94537 0.0863 0.57113 0.0
H394 H 0.8859 0.99933 0.67633 0.0
H395 H 0.88181 0.10762 0.66895 0.0
C396 C 0.99103 0.22301 0.88991 0.0
C397 C 0.01024 0.25176 0.88813 0.0
N398 N 0.02756 0.25538 0.91011 0.0
N399 N 0.99667 0.20836 0.91277 0.0
C400 C 0.01892 0.22881 0.92464 0.0
H401 H 0.97369 0.21376 0.87561 0.0
Co402 Co 0.9767 0.1701 0.92673 0.0
C403 C 0.04124 0.15275 0.95278 0.0
O404 O 0.03409 0.16985 0.97362 0.0
N405 N 0.95696 0.13187 0.94086 0.0
C406 C 0.94648 0.07916 0.95241 0.0
C407 C 0.97059 0.10095 0.94357 0.0
C408 C 0.92458 0.1282 0.948 0.0
N409 N 0.91744 0.09629 0.95509 0.0
O410 O 0.97395 0.19299 0.95884 0.0
H411 H 0.99612 0.0942 0.9387 0.0
H412 H 0.90629 0.1483 0.94695 0.0
O413 O 0.02068 0.15205 0.93412 0.0
C414 C 0.94861 0.2126 0.95965 0.0
O415 O 0.92695 0.21145 0.94067 0.0
N416 N 0.97666 0.14903 0.89478 0.0
C417 C 0.96774 0.12039 0.84651 0.0
C418 C 1.00016 0.12457 0.85673 0.0
C419 C 1.00413 0.13918 0.88097 0.0
C420 C 0.94514 0.14532 0.88511 0.0
C421 C 0.94007 0.13078 0.86119 0.0
H422 H 0.02921 0.14323 0.88825 0.0
H423 H 0.92373 0.15394 0.89607 0.0
H424 H 0.02842 0.22454 0.94373 0.0
H425 H 0.01064 0.26918 0.87224 0.0
H426 H 0.95016 0.05272 0.95642 0.0
H427 H 0.02224 0.11743 0.84588 0.0
H428 H 0.91458 0.12769 0.85432 0.0
C429 C 0.26251 0.97755 0.88026 0.0
C430 C 0.23312 0.99572 0.88306 0.0
N431 N 0.23539 0.01448 0.90454 0.0
N432 N 0.28341 0.98496 0.8998 0.0
C433 C 0.26597 0.00725 0.91421 0.0
H434 H 0.26786 0.95995 0.86502 0.0
Co435 Co 0.32596 0.96818 0.90936 0.0
C436 C 0.33591 0.04122 0.89999 0.0
O437 O 0.31374 0.04052 0.88138 0.0
N438 N 0.36732 0.95116 0.91944 0.0
C439 C 0.42125 0.943 0.92852 0.0
C440 C 0.39812 0.96527 0.91865 0.0
C441 C 0.37233 0.9204 0.9295 0.0
N442 N 0.40491 0.91478 0.93544 0.0
O443 O 0.3117 0.96965 0.94442 0.0
H444 H 0.40355 0.99017 0.91154 0.0
H445 H 0.35231 0.90244 0.93233 0.0
O446 O 0.34362 0.01427 0.912 0.0
C447 C 0.29313 0.94451 0.94966 0.0
O448 O 0.28787 0.92169 0.9319 0.0
N449 N 0.3394 0.963 0.87525 0.0
C450 C 0.36587 0.93725 0.82987 0.0
C451 C 0.37484 0.9695 0.83835 0.0
C452 C 0.3618 0.98175 0.86148 0.0
C453 C 0.32973 0.93209 0.86672 0.0
C454 C 0.34254 0.91876 0.84407 0.0
H455 H 0.37167 1.00503 0.86887 0.0
H456 H 0.31319 0.91695 0.8784 0.0
H457 H 0.27575 0.01777 0.93176 0.0
H458 H 0.21188 0.99507 0.87015 0.0
H459 H 0.44783 0.94767 0.93102 0.0
H460 H 0.39348 0.98407 0.82812 0.0
H461 H 0.33525 0.89364 0.8382 0.0
C462 C 0.53299 0.25811 0.88456 0.0
C463 C 0.51457 0.22878 0.88345 0.0
N464 N 0.48798 0.23216 0.89916 0.0
N465 N 0.51788 0.27992 0.90078 0.0
C466 C 0.4908 0.26303 0.90959 0.0
H467 H 0.55645 0.26256 0.87477 0.0
Co468 Co 0.53371 0.32099 0.91381 0.0
C469 C 0.46228 0.33667 0.89898 0.0
O470 O 0.46381 0.31663 0.87896 0.0
N471 N 0.55003 0.36113 0.9271 0.0
C472 C 0.5584 0.4149 0.93678 0.0
C473 C 0.53587 0.39202 0.92702 0.0
C474 C 0.58105 0.36584 0.93685 0.0
N475 N 0.58689 0.39841 0.9429 0.0
O476 O 0.52674 0.30384 0.94773 0.0
H477 H 0.51114 0.3979 0.91972 0.0
H478 H 0.59938 0.34583 0.9386 0.0
O479 O 0.48802 0.34009 0.91344 0.0
C480 C 0.55008 0.28303 0.95322 0.0
O481 O 0.57451 0.27829 0.93669 0.0
N482 N 0.54437 0.33655 0.88092 0.0
C483 C 0.57423 0.35479 0.83446 0.0
C484 C 0.54148 0.36552 0.84064 0.0
C485 C 0.52727 0.35682 0.8643 0.0
C486 C 0.57661 0.3274 0.87577 0.0
C487 C 0.59203 0.33631 0.85291 0.0
H488 H 0.50302 0.36703 0.86909 0.0
H489 H 0.59057 0.31305 0.88977 0.0
H490 H 0.47386 0.27291 0.92399 0.0
H491 H 0.52021 0.20676 0.87199 0.0
H492 H 0.55405 0.44162 0.93913 0.0
H493 H 0.52679 0.38039 0.82739 0.0
H494 H 0.61792 0.32884 0.84997 0.0
C495 C 0.21877 0.49945 0.86265 0.0
C496 C 0.24842 0.48163 0.86123 0.0
N497 N 0.25828 0.47407 0.88515 0.0
N498 N 0.20977 0.50329 0.88745 0.0
C499 C 0.2344 0.48722 0.90058 0.0
H500 H 0.20496 0.50857 0.84633 0.0
Co501 Co 0.17116 0.52328 0.90299 0.0
C502 C 0.15365 0.46213 0.91008 0.0
O503 O 0.14737 0.47032 0.88621 0.0
N504 N 0.1333 0.54228 0.91856 0.0
C505 C 0.07981 0.55342 0.92732 0.0
C506 C 0.10149 0.53187 0.91485 0.0
C507 C 0.13041 0.57011 0.93341 0.0
N508 N 0.09802 0.57766 0.93891 0.0
O509 O 0.20069 0.54591 0.92771 0.0
H510 H 0.09443 0.51044 0.90326 0.0
H511 H 0.15157 0.5854 0.93915 0.0
O512 O 0.16692 0.48433 0.92462 0.0
C513 C 0.22898 0.56019 0.92361 0.0
O514 O 0.24023 0.56302 0.90007 0.0
N515 N 0.17084 0.55907 0.87967 0.0
C516 C 0.14497 0.60393 0.84381 0.0
C517 C 0.14228 0.56929 0.84011 0.0
C518 C 0.15467 0.54749 0.85847 0.0
C519 C 0.17456 0.59296 0.88354 0.0
C520 C 0.16197 0.61602 0.86548 0.0
H521 H 0.14931 0.52099 0.85656 0.0
H522 H 0.18471 0.60248 0.90127 0.0
H523 H 0.23458 0.48493 0.92121 0.0
H524 H 0.26185 0.47508 0.8439 0.0
H525 H 0.0527 0.55143 0.92757 0.0
H526 H 0.12862 0.55913 0.8239 0.0
H527 H 0.16352 0.64279 0.86922 0.0
H528 H 0.31248 0.04125 0.42694 0.0
H529 H 0.30836 0.06004 0.34538 0.0
H530 H 0.35391 0.10193 0.34962 0.0
H531 H 0.33237 0.12735 0.44737 0.0
H532 H 0.36117 0.11401 0.47197 0.0
H533 H 0.32642 0.08742 0.46303 0.0
H534 H 0.36761 0.03847 0.45372 0.0
H535 H 0.4025 0.06481 0.46263 0.0
H536 H 0.40184 0.04483 0.43163 0.0
H537 H 0.39994 0.14084 0.36229 0.0
H538 H 0.44716 0.17138 0.38181 0.0
H539 H 0.4249 0.12556 0.45518 0.0
C540 C 0.32094 0.05464 0.41012 0.0
C541 C 0.30681 0.04773 0.38581 0.0
C542 C 0.31894 0.06503 0.36408 0.0
C543 C 0.34463 0.08895 0.36636 0.0
C544 C 0.35823 0.09506 0.3905 0.0
C545 C 0.34709 0.07825 0.412 0.0
C546 C 0.36775 0.08801 0.43534 0.0
C547 C 0.3456 0.10522 0.45563 0.0
C548 C 0.38601 0.05719 0.44648 0.0
C549 C 0.39236 0.11272 0.42351 0.0
C550 C 0.386 0.11665 0.39769 0.0
C551 C 0.40532 0.13779 0.38245 0.0
C552 C 0.43232 0.15486 0.39371 0.0
C553 C 0.44027 0.15046 0.41992 0.0
C554 C 0.41952 0.12952 0.4351 0.0
H555 H 0.42997 0.46637 0.39211 0.0
H556 H 0.3342 0.43169 0.42175 0.0
H557 H 0.35474 0.37277 0.41924 0.0
H558 H 0.44319 0.39902 0.34744 0.0
H559 H 0.48793 0.39765 0.35278 0.0
H560 H 0.46534 0.43661 0.35684 0.0
H561 H 0.48813 0.44193 0.40315 0.0
H562 H 0.5109 0.40309 0.39921 0.0
H563 H 0.48171 0.40789 0.42535 0.0
H564 H 0.38723 0.31737 0.41407 0.0
H565 H 0.42799 0.27122 0.40669 0.0
H566 H 0.50151 0.34379 0.3804 0.0
C567 C 0.41314 0.4465 0.39809 0.0
C568 C 0.38044 0.45368 0.40718 0.0
C569 C 0.35936 0.42679 0.41475 0.0
C570 C 0.37082 0.39328 0.41336 0.0
C571 C 0.4033 0.38719 0.40428 0.0
C572 C 0.42406 0.41317 0.39676 0.0
C573 C 0.45794 0.40038 0.38788 0.0
C574 C 0.46393 0.40892 0.35955 0.0
C575 C 0.48634 0.41414 0.40492 0.0
C576 C 0.45323 0.36301 0.39164 0.0
C577 C 0.42161 0.35576 0.40111 0.0
C578 C 0.41199 0.32284 0.4066 0.0
C579 C 0.43535 0.29681 0.40245 0.0
C580 C 0.46795 0.3038 0.39285 0.0
C581 C 0.47669 0.33742 0.38728 0.0
H582 H 0.05256 0.41898 0.3723 0.0
H583 H 0.06802 0.35077 0.43588 0.0
H584 H 0.12591 0.37339 0.44136 0.0
H585 H 0.13676 0.41307 0.34626 0.0
H586 H 0.13706 0.45666 0.33681 0.0
H587 H 0.09801 0.43384 0.33782 0.0
H588 H 0.07303 0.47896 0.36834 0.0
H589 H 0.11198 0.50183 0.36751 0.0
H590 H 0.0946 0.48882 0.39775 0.0
H591 H 0.18128 0.40789 0.44113 0.0
H592 H 0.22794 0.44779 0.43444 0.0
H593 H 0.17506 0.4898 0.3692 0.0
C594 C 0.06801 0.4086 0.38742 0.0
C595 C 0.05566 0.38336 0.40389 0.0
C596 C 0.077 0.37019 0.4231 0.0
C597 C 0.10984 0.38292 0.42632 0.0
C598 C 0.12096 0.40833 0.40988 0.0
C599 C 0.10062 0.42061 0.39062 0.0
C600 C 0.11774 0.44799 0.37548 0.0
C601 C 0.12269 0.43723 0.34744 0.0
C602 C 0.09817 0.48136 0.3774 0.0
C603 C 0.15085 0.44995 0.38948 0.0
C604 C 0.15247 0.42699 0.40927 0.0
C605 C 0.18031 0.4256 0.42545 0.0
C606 C 0.20687 0.4484 0.4214 0.0
C607 C 0.2055 0.47231 0.40124 0.0
C608 C 0.17714 0.47239 0.38497 0.0
H609 H 0.11773 0.07554 0.45041 0.0
H610 H 0.18404 0.07972 0.38458 0.0
H611 H 0.15977 0.13469 0.37261 0.0
H612 H 0.04688 0.10716 0.41901 0.0
H613 H 0.03105 0.1309 0.44587 0.0
H614 H 0.0566 0.0942 0.45121 0.0
H615 H 0.09794 0.12979 0.47833 0.0
H616 H 0.07249 0.16669 0.473 0.0
H617 H 0.11648 0.16704 0.46472 0.0
H618 H 0.12513 0.18657 0.36554 0.0
H619 H 0.08046 0.23011 0.36293 0.0
H620 H 0.03583 0.1922 0.43249 0.0
C621 C 0.12767 0.08841 0.43382 0.0
C622 C 0.15301 0.07348 0.41855 0.0
C623 C 0.16471 0.09071 0.3966 0.0
C624 C 0.1512 0.12204 0.38971 0.0
C625 C 0.1259 0.13586 0.40493 0.0
C626 C 0.11416 0.11958 0.4265 0.0
C627 C 0.08469 0.13842 0.43821 0.0
C628 C 0.05294 0.11635 0.43858 0.0
C629 C 0.09343 0.15125 0.46517 0.0
C630 C 0.08119 0.16735 0.41952 0.0
C631 C 0.10558 0.16569 0.40069 0.0
C632 C 0.1063 0.18847 0.38042 0.0
C633 C 0.08107 0.21313 0.3791 0.0
C634 C 0.05557 0.21475 0.39785 0.0
C635 C 0.05583 0.19188 0.41844 0.0
H636 H 0.83374 1.00389 0.10151 0.0
H637 H 0.76236 0.92311 0.08957 0.0
H638 H 0.80934 0.88429 0.07916 0.0
H639 H 0.89047 0.98044 0.05037 0.0
H640 H 0.92749 0.99242 0.06803 0.0
H641 H 0.88814 0.01354 0.07395 0.0
H642 H 0.8923 0.99859 0.12211 0.0
H643 H 0.93171 0.97759 0.11636 0.0
H644 H 0.89767 0.95525 0.13142 0.0
H645 H 0.86562 0.85358 0.07233 0.0
H646 H 0.92489 0.83474 0.06872 0.0
H647 H 0.95805 0.93685 0.0839 0.0
C648 C 0.82793 0.978 0.09687 0.0
C649 C 0.79433 0.96646 0.09658 0.0
C650 C 0.78787 0.93252 0.08983 0.0
C651 C 0.81442 0.9103 0.08395 0.0
C652 C 0.84729 0.92252 0.08458 0.0
C653 C 0.854 0.9557 0.09071 0.0
C654 C 0.89136 0.9628 0.09012 0.0
C655 C 0.89985 0.98884 0.06938 0.0
C656 C 0.90399 0.97422 0.11657 0.0
C657 C 0.90481 0.92832 0.08316 0.0
C658 C 0.87913 0.90531 0.08 0.0
C659 C 0.88585 0.87153 0.07451 0.0
C660 C 0.9196 0.86104 0.07247 0.0
C661 C 0.94625 0.88429 0.0758 0.0
C662 C 0.93843 0.9184 0.08092 0.0
H663 H 0.53912 0.79717 0.07194 0.0
H664 H 0.54968 0.79478 0.15442 0.0
H665 H 0.58883 0.84301 0.15246 0.0
H666 H 0.62582 0.8227 0.05678 0.0
H667 H 0.61293 0.85015 0.03117 0.0
H668 H 0.58827 0.8135 0.03877 0.0
H669 H 0.5356 0.85103 0.04461 0.0
H670 H 0.56002 0.8878 0.03712 0.0
H671 H 0.53697 0.88585 0.06677 0.0
H672 H 0.62493 0.89233 0.14186 0.0
H673 H 0.65367 0.94162 0.12374 0.0
H674 H 0.61788 0.91447 0.04802 0.0
C675 C 0.55032 0.80642 0.08947 0.0
C676 C 0.54178 0.79212 0.11336 0.0
C677 C 0.55604 0.80544 0.13601 0.0
C678 C 0.57835 0.83268 0.13504 0.0
C679 C 0.58594 0.84653 0.11125 0.0
C680 C 0.57229 0.834 0.08886 0.0
C681 C 0.58281 0.85509 0.06604 0.0
C682 C 0.60371 0.8341 0.04707 0.0
C683 C 0.55201 0.87088 0.05287 0.0
C684 C 0.6042 0.88162 0.07916 0.0
C685 C 0.60591 0.8759 0.1052 0.0
C686 C 0.62365 0.89716 0.12152 0.0
C687 C 0.63965 0.92533 0.11105 0.0
C688 C 0.63756 0.93237 0.08453 0.0
C689 C 0.62 0.90981 0.06836 0.0
H690 H 0.54377 0.57 0.10248 0.0
H691 H 0.57623 0.66983 0.07986 0.0
H692 H 0.63553 0.65097 0.08193 0.0
H693 H 0.60998 0.55443 0.14737 0.0
H694 H 0.61347 0.51041 0.13938 0.0
H695 H 0.57381 0.53178 0.13577 0.0
H696 H 0.57133 0.51358 0.08814 0.0
H697 H 0.61091 0.49204 0.09163 0.0
H698 H 0.60591 0.52361 0.06723 0.0
H699 H 0.69159 0.6204 0.08618 0.0
H700 H 0.73923 0.58123 0.09267 0.0
H701 H 0.66926 0.50207 0.11289 0.0
C702 C 0.56327 0.58798 0.09788 0.0
C703 C 0.55529 0.62142 0.09093 0.0
C704 C 0.58169 0.64408 0.08519 0.0
C705 C 0.61545 0.63359 0.08634 0.0
C706 C 0.62236 0.60042 0.09333 0.0
C707 C 0.59695 0.578 0.09903 0.0
C708 C 0.61087 0.5438 0.10616 0.0
C709 C 0.60147 0.53458 0.13381 0.0
C710 C 0.59906 0.51667 0.08715 0.0
C711 C 0.64817 0.55037 0.10358 0.0
C712 C 0.65436 0.58311 0.0961 0.0
C713 C 0.68697 0.59474 0.09207 0.0
C714 C 0.71387 0.57228 0.09571 0.0
C715 C 0.70805 0.53859 0.1034 0.0
C716 C 0.67466 0.52774 0.10744 0.0
H717 H 0.96348 0.7077 0.06783 0.0
H718 H 0.93447 0.72008 0.14721 0.0
H719 H 0.8947 0.6726 0.14303 0.0
H720 H 0.88062 0.68191 0.04296 0.0
H721 H 0.89831 0.65128 0.02129 0.0
H722 H 0.92195 0.68834 0.0297 0.0
H723 H 0.97139 0.65097 0.04479 0.0
H724 H 0.94799 0.61379 0.0365 0.0
H725 H 0.96398 0.61897 0.06853 0.0
H726 H 0.86051 0.6226 0.13106 0.0
H727 H 0.83592 0.571 0.11295 0.0
H728 H 0.88835 0.5889 0.0414 0.0
C729 C 0.94815 0.7008 0.08411 0.0
C730 C 0.95164 0.71768 0.10781 0.0
C731 C 0.93201 0.70741 0.12895 0.0
C732 C 0.9093 0.68064 0.12669 0.0
C733 C 0.90671 0.66422 0.10317 0.0
C734 C 0.92567 0.67374 0.08225 0.0
C735 C 0.9199 0.65014 0.05979 0.0
C736 C 0.90426 0.66905 0.03709 0.0
C737 C 0.95277 0.63242 0.05195 0.0
C738 C 0.89509 0.62561 0.07149 0.0
C739 C 0.88758 0.63454 0.09643 0.0
C740 C 0.86614 0.61538 0.11154 0.0
C741 C 0.85242 0.58597 0.1011 0.0
C742 C 0.86038 0.57569 0.07582 0.0
C743 C 0.88157 0.59619 0.06071 0.0
H744 H 0.56107 0.9294 0.61689 0.0
H745 H 0.59211 0.84322 0.57144 0.0
H746 H 0.65101 0.86372 0.57276 0.0
H747 H 0.61559 0.98964 0.58801 0.0
H748 H 0.62324 0.01167 0.61762 0.0
H749 H 0.58412 0.98986 0.61284 0.0
H750 H 0.59443 0.95567 0.65436 0.0
H751 H 0.63365 0.97732 0.65921 0.0
H752 H 0.63285 0.932 0.6578 0.0
H753 H 0.70686 0.89541 0.57881 0.0
H754 H 0.75375 0.93381 0.58986 0.0
H755 H 0.68424 0.9979 0.63141 0.0
C756 C 0.58012 0.91469 0.60713 0.0
C757 C 0.57193 0.88473 0.59396 0.0
C758 C 0.5978 0.86629 0.58161 0.0
C759 C 0.63128 0.87776 0.58227 0.0
C760 C 0.63836 0.90758 0.59542 0.0
C761 C 0.61338 0.92565 0.60766 0.0
C762 C 0.62709 0.9568 0.62059 0.0
C763 C 0.61159 0.98887 0.60907 0.0
C764 C 0.62169 0.95534 0.64971 0.0
C765 C 0.66383 0.9536 0.61379 0.0
C766 C 0.67 0.9252 0.59918 0.0
C767 C 0.70223 0.91761 0.59032 0.0
C768 C 0.72867 0.93962 0.59659 0.0
C769 C 0.72275 0.96872 0.6117 0.0
C770 C 0.68981 0.97557 0.62031 0.0
H771 H 0.62261 0.56055 0.59161 0.0
H772 H 0.71594 0.61424 0.60436 0.0
H773 H 0.68555 0.66833 0.60176 0.0
H774 H 0.58303 0.62261 0.54812 0.0
H775 H 0.54194 0.61688 0.56194 0.0
H776 H 0.57157 0.58252 0.56161 0.0
H777 H 0.56539 0.57678 0.61076 0.0
H778 H 0.53602 0.61128 0.61122 0.0
H779 H 0.57319 0.61283 0.63091 0.0
H780 H 0.64501 0.71645 0.6 0.0
H781 H 0.59649 0.75533 0.60112 0.0
H782 H 0.52873 0.67086 0.59158 0.0
C783 C 0.6367 0.58371 0.59322 0.0
C784 C 0.6717 0.58325 0.59788 0.0
C785 C 0.68914 0.61407 0.60067 0.0
C786 C 0.67212 0.64492 0.59915 0.0
C787 C 0.63752 0.64458 0.59506 0.0
C788 C 0.61992 0.61483 0.59219 0.0
C789 C 0.58243 0.62155 0.59008 0.0
C790 C 0.56895 0.61022 0.56388 0.0
C791 C 0.56313 0.60461 0.61206 0.0
C792 C 0.58177 0.65961 0.59263 0.0
C793 C 0.61388 0.67239 0.59507 0.0
C794 C 0.61974 0.70676 0.59797 0.0
C795 C 0.59207 0.72867 0.59851 0.0
C796 C 0.55886 0.71617 0.59653 0.0
C797 C 0.55379 0.68113 0.59342 0.0
H798 H 0.79665 0.58031 0.60548 0.0
H799 H 0.85321 0.48907 0.59145 0.0
H800 H 0.90414 0.52292 0.58217 0.0
H801 H 0.83848 0.63432 0.55834 0.0
H802 H 0.83834 0.67064 0.57907 0.0
H803 H 0.80569 0.63947 0.58184 0.0
H804 H 0.81968 0.63206 0.6299 0.0
H805 H 0.85227 0.66322 0.62729 0.0
H806 H 0.8621 0.62187 0.63928 0.0
H807 H 0.94892 0.56694 0.57503 0.0
H808 H 0.98579 0.61673 0.57522 0.0
H809 H 0.90124 0.67928 0.59777 0.0
C810 C 0.81973 0.56771 0.60003 0.0
C811 C 0.82122 0.53225 0.59878 0.0
C812 C 0.85183 0.51627 0.5923 0.0
C813 C 0.88069 0.53529 0.58693 0.0
C814 C 0.8786 0.57028 0.58851 0.0
C815 C 0.84899 0.58635 0.59521 0.0
C816 C 0.85423 0.62402 0.59776 0.0
C817 C 0.83292 0.64324 0.57807 0.0
C818 C 0.84663 0.63598 0.62519 0.0
C819 C 0.89143 0.62661 0.59168 0.0
C820 C 0.90485 0.59541 0.58593 0.0
C821 C 0.93871 0.59145 0.57973 0.0
C822 C 0.95958 0.61993 0.58004 0.0
C823 C 0.9468 0.65196 0.58707 0.0
C824 C 0.91202 0.65523 0.59245 0.0
H825 H 0.87902 0.95343 0.60791 0.0
H826 H 0.88298 0.95794 0.52499 0.0
H827 H 0.91674 0.90562 0.52439 0.0
H828 H 0.9626 0.92589 0.61716 0.0
H829 H 0.95267 0.89889 0.64376 0.0
H830 H 0.9272 0.93543 0.63748 0.0
H831 H 0.87401 0.89803 0.63516 0.0
H832 H 0.89926 0.86134 0.64157 0.0
H833 H 0.8731 0.86273 0.61344 0.0
H834 H 0.952 0.85368 0.5332 0.0
H835 H 0.98565 0.80674 0.55058 0.0
H836 H 0.95834 0.83694 0.62768 0.0
C837 C 0.88663 0.94338 0.58956 0.0
C838 C 0.87823 0.95986 0.56649 0.0
C839 C 0.88901 0.94578 0.54294 0.0
C840 C 0.90821 0.91606 0.5424 0.0
C841 C 0.91638 0.90076 0.56557 0.0
C842 C 0.90584 0.91395 0.5887 0.0
C843 C 0.91878 0.8934 0.61098 0.0
C844 C 0.94167 0.91468 0.62836 0.0
C845 C 0.88954 0.87796 0.62618 0.0
C846 C 0.93855 0.86667 0.59681 0.0
C847 C 0.93674 0.87119 0.57063 0.0
C848 C 0.95336 0.84977 0.55366 0.0
C849 C 0.97228 0.82305 0.56372 0.0
C850 C 0.97456 0.81802 0.59052 0.0
C851 C 0.95735 0.84023 0.60715 0.0
H852 H 0.16854 0.01935 0.89234 0.0
H853 H 0.24566 0.06235 0.94144 0.0
H854 H 0.20379 0.09986 0.96063 0.0
H855 H 0.12694 0.09725 0.87939 0.0
H856 H 0.0854 0.07921 0.8793 0.0
H857 H 0.12108 0.05383 0.87036 0.0
H858 H 0.10521 0.01017 0.90506 0.0
H859 H 0.06954 0.03546 0.91423 0.0
H860 H 0.10043 0.02366 0.93782 0.0
H861 H 0.15355 0.13353 0.97462 0.0
H862 H 0.09915 0.16298 0.98006 0.0
H863 H 0.05584 0.10072 0.92024 0.0
C864 C 0.17685 0.03663 0.90703 0.0
C865 C 0.21068 0.03717 0.91542 0.0
C866 C 0.22001 0.06043 0.93487 0.0
C867 C 0.19634 0.08217 0.94591 0.0
C868 C 0.16336 0.08081 0.93723 0.0
C869 C 0.15363 0.05886 0.91809 0.0
C870 C 0.11681 0.06339 0.91156 0.0
C871 C 0.11231 0.07406 0.88349 0.0
C872 C 0.09682 0.03126 0.91753 0.0
C873 C 0.1076 0.09166 0.92976 0.0
C874 C 0.13466 0.10103 0.94467 0.0
C875 C 0.13215 0.12646 0.96302 0.0
C876 C 0.10118 0.14298 0.96603 0.0
C877 C 0.07337 0.13428 0.9505 0.0
C878 C 0.07672 0.10815 0.93226 0.0
H879 H 0.40358 0.05128 0.90569 0.0
H880 H 0.30751 0.10277 0.90471 0.0
H881 H 0.33653 0.15749 0.90885 0.0
H882 H 0.44879 0.11068 0.94934 0.0
H883 H 0.48719 0.10742 0.93121 0.0
H884 H 0.45879 0.07217 0.93267 0.0
H885 H 0.45647 0.07072 0.88309 0.0
H886 H 0.48449 0.10614 0.88156 0.0
H887 H 0.44414 0.10807 0.86594 0.0
H888 H 0.37557 0.20639 0.90997 0.0
H889 H 0.42229 0.24678 0.90515 0.0
H890 H 0.4934 0.16411 0.90237 0.0
C891 C 0.38875 0.07405 0.9072 0.0
C892 C 0.35337 0.07302 0.90543 0.0
C893 C 0.33466 0.10326 0.90634 0.0
C894 C 0.3509 0.13435 0.90877 0.0
C895 C 0.38589 0.13471 0.90992 0.0
C896 C 0.40467 0.1054 0.90907 0.0
C897 C 0.44198 0.11308 0.90773 0.0
C898 C 0.46026 0.10007 0.93167 0.0
C899 C 0.45768 0.09865 0.88311 0.0
C900 C 0.44111 0.1512 0.90727 0.0
C901 C 0.40854 0.16312 0.90916 0.0
C902 C 0.4012 0.19739 0.90868 0.0
C903 C 0.42783 0.22012 0.90599 0.0
C904 C 0.46129 0.20847 0.90335 0.0
C905 C 0.46798 0.17357 0.90418 0.0
H906 H 0.408 0.34364 0.8671 0.0
H907 H 0.44877 0.37921 0.93928 0.0
H908 H 0.39994 0.41726 0.94435 0.0
H909 H 0.37812 0.42278 0.84561 0.0
H910 H 0.34092 0.40599 0.83065 0.0
H911 H 0.37801 0.38027 0.8335 0.0
H912 H 0.3436 0.33461 0.85718 0.0
H913 H 0.30633 0.36013 0.85431 0.0
H914 H 0.31997 0.34596 0.88536 0.0
H915 H 0.34685 0.45273 0.94079 0.0
H916 H 0.29484 0.48291 0.92854 0.0
H917 H 0.28978 0.4244 0.85851 0.0
C918 C 0.40657 0.35913 0.88414 0.0
C919 C 0.43222 0.35828 0.90285 0.0
C920 C 0.42943 0.37932 0.9247 0.0
C921 C 0.40176 0.40102 0.92775 0.0
C922 C 0.37711 0.40145 0.90878 0.0
C923 C 0.3793 0.38103 0.8874 0.0
C924 C 0.35013 0.387 0.86934 0.0
C925 C 0.36255 0.39977 0.84324 0.0
C926 C 0.32874 0.35503 0.86638 0.0
C927 C 0.33125 0.41417 0.88377 0.0
C928 C 0.34703 0.42204 0.90657 0.0
C929 C 0.33423 0.44659 0.92304 0.0
C930 C 0.30459 0.4635 0.916 0.0
C931 C 0.2882 0.45599 0.8926 0.0
C932 C 0.30185 0.43093 0.8764 0.0
H933 H 0.14755 0.40725 0.88037 0.0
H934 H 0.13421 0.44146 0.9585 0.0
H935 H 0.10494 0.38788 0.96874 0.0
H936 H 0.06915 0.37598 0.87261 0.0
H937 H 0.08091 0.3407 0.85278 0.0
H938 H 0.10658 0.37783 0.85321 0.0
H939 H 0.15864 0.34245 0.86611 0.0
H940 H 0.13327 0.30493 0.86525 0.0
H941 H 0.15649 0.31551 0.89376 0.0
H942 H 0.07012 0.33327 0.96809 0.0
H943 H 0.0347 0.28403 0.95707 0.0
H944 H 0.06975 0.28871 0.87872 0.0
C945 C 0.13937 0.40314 0.89988 0.0
C946 C 0.14322 0.42835 0.91871 0.0
C947 C 0.13194 0.42218 0.94393 0.0
C948 C 0.11516 0.39191 0.94981 0.0
C949 C 0.11031 0.36821 0.93029 0.0
C950 C 0.12256 0.3735 0.90589 0.0
C951 C 0.11144 0.34632 0.88748 0.0
C952 C 0.0908 0.36111 0.86523 0.0
C953 C 0.14177 0.3261 0.87757 0.0
C954 C 0.08982 0.32536 0.90496 0.0
C955 C 0.08988 0.33784 0.92972 0.0
C956 C 0.07039 0.32313 0.94886 0.0
C957 C 0.05038 0.29518 0.94245 0.0
C958 C 0.04957 0.28266 0.91702 0.0
C959 C 0.06981 0.29788 0.89824 0.0
H960 H 0.55482 0.1044 0.30252 0.0
H961 H 0.63185 0.17967 0.3165 0.0
H962 H 0.65849 0.16548 0.27554 0.0
H963 H 0.60772 0.04339 0.27114 0.0
H964 H 0.57682 0.03149 0.24759 0.0
H965 H 0.56356 0.04665 0.27851 0.0
H966 H 0.5278 0.09308 0.25686 0.0
H967 H 0.54075 0.0779 0.22587 0.0
H968 H 0.54744 0.12134 0.23447 0.0
H969 H 0.67792 0.14304 0.23419 0.0
H970 H 0.68695 0.11628 0.19236 0.0
H971 H 0.59583 0.05764 0.20249 0.0
C972 C 0.57716 0.11802 0.2969 0.0
C973 C 0.59158 0.14268 0.31314 0.0
C974 C 0.62083 0.15994 0.30492 0.0
C975 C 0.63609 0.15225 0.28155 0.0
C976 C 0.62167 0.1275 0.26629 0.0
C977 C 0.5927 0.11084 0.27337 0.0
C978 C 0.58215 0.0859 0.2528 0.0
C979 C 0.5826 0.04971 0.26314 0.0
C980 C 0.54748 0.09512 0.24185 0.0
C981 C 0.6098 0.09127 0.23319 0.0
C982 C 0.63236 0.11525 0.24158 0.0
C983 C 0.66024 0.1245 0.22722 0.0
C984 C 0.66499 0.10927 0.20336 0.0
C985 C 0.64179 0.08527 0.19382 0.0
C986 C 0.61404 0.07585 0.2092 0.0
H987 H 0.39602 0.55733 0.29939 0.0
H988 H 0.31461 0.62877 0.31076 0.0
H989 H 0.3263 0.6537 0.26867 0.0
H990 H 0.45213 0.61356 0.26729 0.0
H991 H 0.46754 0.58266 0.24485 0.0
H992 H 0.45282 0.56965 0.27588 0.0
H993 H 0.41063 0.5287 0.25454 0.0
H994 H 0.42539 0.54141 0.22344 0.0
H995 H 0.38134 0.54453 0.23115 0.0
H996 H 0.34734 0.67231 0.22664 0.0
H997 H 0.37495 0.68212 0.1853 0.0
H998 H 0.44181 0.59756 0.19919 0.0
C999 C 0.38048 0.578 0.29288 0.0
C1000 C 0.35467 0.59138 0.30857 0.0
C1001 C 0.33499 0.61856 0.2994 0.0
C1002 C 0.34129 0.63278 0.27543 0.0
C1003 C 0.36722 0.61946 0.26069 0.0
C1004 C 0.3864 0.59255 0.26886 0.0
C1005 C 0.41278 0.58328 0.24903 0.0
C1006 C 0.44843 0.58755 0.25992 0.0
C1007 C 0.40719 0.54735 0.23894 0.0
C1008 C 0.40542 0.60931 0.22857 0.0
C1009 C 0.37905 0.62988 0.23583 0.0
C1010 C 0.36774 0.65612 0.22054 0.0
C1011 C 0.38349 0.66132 0.19698 0.0
C1012 C 0.41016 0.64021 0.18869 0.0
C1013 C 0.42147 0.61407 0.20492 0.0
H1014 H 0.86798 0.44971 0.20575 0.0
H1015 H 0.93727 0.40552 0.15118 0.0
H1016 H 0.96856 0.37858 0.18657 0.0
H1017 H 0.92909 0.46349 0.25818 0.0
H1018 H 0.89906 0.45205 0.28247 0.0
H1019 H 0.88491 0.47119 0.25315 0.0
H1020 H 0.84484 0.42083 0.2454 0.0
H1021 H 0.85908 0.40139 0.27451 0.0
H1022 H 0.86175 0.37871 0.24467 0.0
H1023 H 0.98978 0.35339 0.22755 0.0
H1024 H 0.99868 0.33089 0.27118 0.0
H1025 H 0.91436 0.39019 0.29865 0.0
C1026 C 0.89027 0.43508 0.20143 0.0
C1027 C 0.90061 0.42987 0.17594 0.0
C1028 C 0.92924 0.40982 0.17072 0.0
C1029 C 0.94714 0.39454 0.19065 0.0
C1030 C 0.93589 0.39946 0.21562 0.0
C1031 C 0.90814 0.41928 0.22108 0.0
C1032 C 0.89967 0.4183 0.24929 0.0
C1033 C 0.90342 0.45334 0.26149 0.0
C1034 C 0.86424 0.40395 0.25371 0.0
C1035 C 0.92657 0.3944 0.25872 0.0
C1036 C 0.94749 0.38414 0.2391 0.0
C1037 C 0.97372 0.36143 0.24313 0.0
C1038 C 0.97861 0.34882 0.26791 0.0
C1039 C 0.95709 0.35867 0.28817 0.0
C1040 C 0.93095 0.38192 0.28344 0.0
H1041 H 0.15749 0.959 0.27641 0.0
H1042 H 0.0815 0.92099 0.3282 0.0
H1043 H 0.04849 0.90006 0.29141 0.0
H1044 H 0.10033 0.98352 0.22399 0.0
H1045 H 0.12894 0.96971 0.19935 0.0
H1046 H 0.14504 0.98467 0.22953 0.0
H1047 H 0.17778 0.9288 0.23531 0.0
H1048 H 0.16166 0.91363 0.20524 0.0
H1049 H 0.15538 0.88943 0.23397 0.0
H1050 H 0.02529 0.88066 0.24964 0.0
H1051 H 0.01384 0.86239 0.20543 0.0
H1052 H 0.1053 0.91153 0.17999 0.0
C1053 C 0.13356 0.94686 0.27983 0.0
C1054 C 0.12171 0.94184 0.30502 0.0
C1055 C 0.09077 0.92515 0.30897 0.0
C1056 C 0.07188 0.91326 0.28823 0.0
C1057 C 0.0844 0.91806 0.26361 0.0
C1058 C 0.11453 0.93438 0.25926 0.0
C1059 C 0.12323 0.93415 0.23096 0.0
C1060 C 0.12445 0.97016 0.22033 0.0
C1061 C 0.15648 0.91538 0.2261 0.0
C1062 C 0.09351 0.91481 0.22022 0.0
C1063 C 0.07127 0.90614 0.23939 0.0
C1064 C 0.04233 0.8876 0.2344 0.0
C1065 C 0.03594 0.8775 0.20916 0.0
C1066 C 0.05846 0.88576 0.18911 0.0
C1067 C 0.08759 0.90479 0.19485 0.0
H1068 H 0.37071 0.96012 0.78035 0.0
H1069 H 0.3999 0.87814 0.83027 0.0
H1070 H 0.42822 0.84977 0.79407 0.0
H1071 H 0.3517 0.90833 0.72621 0.0
H1072 H 0.36729 0.93776 0.70288 0.0
H1073 H 0.35116 0.95283 0.733 0.0
H1074 H 0.40729 0.98381 0.74167 0.0
H1075 H 0.42358 0.96886 0.71153 0.0
H1076 H 0.44621 0.96052 0.74072 0.0
H1077 H 0.45269 0.83 0.75274 0.0
H1078 H 0.46929 0.81839 0.70804 0.0
H1079 H 0.42253 0.9119 0.68417 0.0
C1080 C 0.38337 0.93636 0.78359 0.0
C1081 C 0.38328 0.92123 0.80799 0.0
C1082 C 0.39965 0.88995 0.81161 0.0
C1083 C 0.41589 0.87376 0.79123 0.0
C1084 C 0.4153 0.8891 0.76732 0.0
C1085 C 0.39933 0.91957 0.7633 0.0
C1086 C 0.40109 0.92965 0.73537 0.0
C1087 C 0.36571 0.93228 0.72368 0.0
C1088 C 0.42072 0.96267 0.73214 0.0
C1089 C 0.42037 0.90002 0.72437 0.0
C1090 C 0.42864 0.87714 0.74321 0.0
C1091 C 0.44644 0.84775 0.73781 0.0
C1092 C 0.45589 0.84145 0.71241 0.0
C1093 C 0.44725 0.86426 0.6927 0.0
C1094 C 0.4293 0.89394 0.69885 0.0
H1095 H 0.56473 0.41059 0.8029 0.0
H1096 H 0.61942 0.31588 0.80784 0.0
H1097 H 0.64948 0.32961 0.76839 0.0
H1098 H 0.55352 0.40532 0.7337 0.0
H1099 H 0.55724 0.45009 0.72906 0.0
H1100 H 0.54085 0.43396 0.75872 0.0
H1101 H 0.58624 0.46724 0.78365 0.0
H1102 H 0.60303 0.48315 0.75404 0.0
H1103 H 0.62999 0.46092 0.77599 0.0
H1104 H 0.67629 0.35429 0.73032 0.0
H1105 H 0.69236 0.38432 0.69136 0.0
H1106 H 0.61521 0.45949 0.70647 0.0
C1107 C 0.58271 0.39248 0.79565 0.0
C1108 C 0.59023 0.36252 0.80925 0.0
C1109 C 0.61401 0.33968 0.79869 0.0
C1110 C 0.63113 0.34707 0.77605 0.0
C1111 C 0.62372 0.37702 0.76361 0.0
C1112 C 0.59957 0.39904 0.77259 0.0
C1113 C 0.59538 0.42861 0.75447 0.0
C1114 C 0.55962 0.42953 0.74332 0.0
C1115 C 0.60419 0.46195 0.76784 0.0
C1116 C 0.62116 0.41971 0.73409 0.0
C1117 C 0.63748 0.39009 0.74011 0.0
C1118 C 0.66317 0.37711 0.72502 0.0
C1119 C 0.67189 0.39432 0.70272 0.0
C1120 C 0.65444 0.42387 0.69516 0.0
C1121 C 0.62906 0.43698 0.71146 0.0
H1122 H 0.11553 0.68474 0.70854 0.0
H1123 H 0.01211 0.65063 0.71699 0.0
H1124 H 0.02209 0.64139 0.76259 0.0
H1125 H 0.14831 0.61881 0.74492 0.0
H1126 H 0.18221 0.64317 0.75834 0.0
H1127 H 0.16517 0.65418 0.72763 0.0
H1128 H 0.15352 0.71461 0.74423 0.0
H1129 H 0.17006 0.70351 0.77521 0.0
H1130 H 0.12821 0.72059 0.7725 0.0
H1131 H 0.04375 0.63075 0.80632 0.0
H1132 H 0.0777 0.61005 0.84253 0.0
H1133 H 0.16854 0.64353 0.80482 0.0
C1134 C 0.0947 0.67523 0.71962 0.0
C1135 C 0.06268 0.66908 0.70851 0.0
C1136 C 0.03657 0.65694 0.72458 0.0
C1137 C 0.042 0.6514 0.75074 0.0
C1138 C 0.07385 0.65745 0.76076 0.0
C1139 C 0.09996 0.66842 0.74558 0.0
C1140 C 0.13299 0.66804 0.76011 0.0
C1141 C 0.15867 0.64465 0.74698 0.0
C1142 C 0.14701 0.70383 0.76319 0.0
C1143 C 0.12152 0.65402 0.78561 0.0
C1144 C 0.08706 0.64926 0.78579 0.0
C1145 C 0.07065 0.63474 0.80653 0.0
C1146 C 0.09006 0.62328 0.82706 0.0
C1147 C 0.12552 0.62586 0.82654 0.0
C1148 C 0.14139 0.64233 0.80595 0.0
H1149 H 0.92219 0.14099 0.81056 0.0
H1150 H 1.00099 0.06735 0.82361 0.0
H1151 H 0.98961 0.04229 0.78106 0.0
H1152 H 0.86476 0.0848 0.78039 0.0
H1153 H 0.84935 0.11589 0.75822 0.0
H1154 H 0.86507 0.12875 0.78902 0.0
H1155 H 0.90739 0.1689 0.76699 0.0
H1156 H 0.89177 0.1562 0.73611 0.0
H1157 H 0.93593 0.15241 0.74326 0.0
H1158 H 0.96786 0.02446 0.73712 0.0
H1159 H 0.93896 0.01652 0.69561 0.0
H1160 H 0.87298 0.10048 0.71342 0.0
C1161 C 0.937 0.11946 0.80462 0.0
C1162 C 0.96239 0.10604 0.82052 0.0
C1163 C 0.98162 0.07828 0.81168 0.0
C1164 C 0.97518 0.06376 0.78762 0.0
C1165 C 0.94949 0.07733 0.77267 0.0
C1166 C 0.93081 0.10463 0.78087 0.0
C1167 C 0.90423 0.11429 0.76158 0.0
C1168 C 0.86876 0.1107 0.77299 0.0
C1169 C 0.91021 0.15007 0.75138 0.0
C1170 C 0.91072 0.08809 0.74117 0.0
C1171 C 0.93693 0.06699 0.74779 0.0
C1172 C 0.9473 0.04085 0.73177 0.0
C1173 C 0.93058 0.03639 0.70832 0.0
C1174 C 0.90377 0.05795 0.70115 0.0
C1175 C 0.89373 0.08391 0.71803 0.0
H1176 H 0.60168 0.09817 0.50261 0.0
H1177 H 0.65463 0.12983 0.43453 0.0
H1178 H 0.70881 0.11261 0.4541 0.0
H1179 H 0.6614 0.131 0.54586 0.0
H1180 H 0.65675 0.09794 0.56915 0.0
H1181 H 0.62221 0.10856 0.54847 0.0
H1182 H 0.61903 0.04654 0.53316 0.0
H1183 H 0.65375 0.03582 0.55374 0.0
H1184 H 0.65596 0.02666 0.51999 0.0
H1185 H 0.75729 0.09279 0.48172 0.0
H1186 H 0.79665 0.07941 0.51717 0.0
H1187 H 0.71209 0.06591 0.56834 0.0
C1188 C 0.62474 0.10083 0.4918 0.0
C1189 C 0.62431 0.11479 0.46705 0.0
C1190 C 0.65479 0.11896 0.45352 0.0
C1191 C 0.68549 0.10908 0.4644 0.0
C1192 C 0.68522 0.09552 0.48899 0.0
C1193 C 0.65565 0.09184 0.50267 0.0
C1194 C 0.66249 0.08 0.52968 0.0
C1195 C 0.64999 0.10593 0.54945 0.0
C1196 C 0.64688 0.04519 0.53441 0.0
C1197 C 0.7005 0.07807 0.52918 0.0
C1198 C 0.71315 0.08625 0.50537 0.0
C1199 C 0.74766 0.08631 0.50043 0.0
C1200 C 0.7698 0.07856 0.52054 0.0
C1201 C 0.75721 0.07177 0.54527 0.0
C1202 C 0.7222 0.07112 0.54951 0.0
H1203 H 0.42514 0.60871 0.49584 0.0
H1204 H 0.41069 0.64805 0.4193 0.0
H1205 H 0.43528 0.7023 0.43299 0.0
H1206 H 0.40055 0.67898 0.52801 0.0
H1207 H 0.43045 0.6753 0.55377 0.0
H1208 H 0.41706 0.63834 0.5368 0.0
H1209 H 0.47916 0.62392 0.5263 0.0
H1210 H 0.49274 0.66108 0.54321 0.0
H1211 H 0.50508 0.65459 0.51039 0.0
H1212 H 0.4548 0.75456 0.45674 0.0
H1213 H 0.46462 0.79976 0.48885 0.0
H1214 H 0.46659 0.72521 0.54901 0.0
C1215 C 0.42815 0.62821 0.48164 0.0
C1216 C 0.41607 0.62395 0.45642 0.0
C1217 C 0.41954 0.65075 0.43877 0.0
C1218 C 0.4338 0.68155 0.44631 0.0
C1219 C 0.44483 0.68507 0.47151 0.0
C1220 C 0.4423 0.65896 0.48885 0.0
C1221 C 0.45248 0.66998 0.51546 0.0
C1222 C 0.4234 0.6654 0.53461 0.0
C1223 C 0.48425 0.65128 0.52435 0.0
C1224 C 0.45974 0.70674 0.51065 0.0
C1225 C 0.45594 0.71498 0.48511 0.0
C1226 C 0.4586 0.74824 0.47666 0.0
C1227 C 0.46432 0.77372 0.4949 0.0
C1228 C 0.46693 0.76557 0.5211 0.0
C1229 C 0.46544 0.73173 0.52891 0.0
H1230 H 0.8693 0.36502 0.46332 0.0
H1231 H 0.8915 0.46263 0.43053 0.0
H1232 H 0.84777 0.48863 0.45765 0.0
H1233 H 0.78077 0.37574 0.46734 0.0
H1234 H 0.77646 0.35424 0.49749 0.0
H1235 H 0.81031 0.3433 0.47613 0.0
H1236 H 0.85381 0.35501 0.51195 0.0
H1237 H 0.82007 0.36544 0.53355 0.0
H1238 H 0.85347 0.39516 0.5281 0.0
H1239 H 0.80011 0.50383 0.48768 0.0
H1240 H 0.75536 0.50725 0.52062 0.0
H1241 H 0.76474 0.39977 0.53342 0.0
C1242 C 0.86538 0.39193 0.46218 0.0
C1243 C 0.88375 0.41175 0.44471 0.0
C1244 C 0.87744 0.44687 0.44354 0.0
C1245 C 0.85269 0.46189 0.4589 0.0
C1246 C 0.8344 0.4415 0.47542 0.0
C1247 C 0.84067 0.40734 0.47734 0.0
C1248 C 0.81736 0.39105 0.49652 0.0
C1249 C 0.7949 0.36452 0.48359 0.0
C1250 C 0.83737 0.37578 0.51886 0.0
C1251 C 0.79708 0.42136 0.50505 0.0
C1252 C 0.80712 0.45024 0.49262 0.0
C1253 C 0.79202 0.48135 0.49755 0.0
C1254 C 0.76648 0.48305 0.51613 0.0
C1255 C 0.7565 0.45382 0.52952 0.0
C1256 C 0.77176 0.42261 0.52351 0.0
H1257 H 0.15175 0.88759 0.4767 0.0
H1258 H 0.05972 0.89321 0.43244 0.0
H1259 H 0.03748 0.84396 0.45562 0.0
H1260 H 0.15664 0.7962 0.47981 0.0
H1261 H 0.17234 0.79625 0.51216 0.0
H1262 H 0.18147 0.83104 0.49126 0.0
H1263 H 0.15586 0.87249 0.52431 0.0
H1264 H 0.14682 0.8379 0.54535 0.0
H1265 H 0.11355 0.86589 0.53557 0.0
H1266 H 0.02458 0.79453 0.485 0.0
H1267 H 0.02159 0.7515 0.51922 0.0
H1268 H 0.12227 0.77857 0.54349 0.0
C1269 C 0.12713 0.87821 0.47161 0.0
C1270 C 0.10755 0.89436 0.45271 0.0
C1271 C 0.0751 0.88159 0.44703 0.0
C1272 C 0.06234 0.8534 0.45995 0.0
C1273 C 0.08229 0.83816 0.47853 0.0
C1274 C 0.11398 0.85021 0.48437 0.0
C1275 C 0.12985 0.83031 0.50586 0.0
C1276 C 0.16198 0.81238 0.49672 0.0
C1277 C 0.13692 0.853 0.52915 0.0
C1278 C 0.10205 0.80538 0.51139 0.0
C1279 C 0.07488 0.81003 0.49533 0.0
C1280 C 0.04585 0.7905 0.49753 0.0
C1281 C 0.04441 0.766 0.51691 0.0
C1282 C 0.07173 0.76153 0.53393 0.0
C1283 C 0.101 0.78122 0.53073 0.0
H1284 H 0.22944 0.96716 0.95261 0.0
H1285 H 0.30716 0.9168 0.99597 0.0
H1286 H 0.26543 0.90228 0.0294 0.0
H1287 H 0.17704 0.99745 0.00926 0.0
H1288 H 0.13866 0.98934 0.99201 0.0
H1289 H 0.17585 1.00225 0.97498 0.0
H1290 H 0.171 0.94969 0.94609 0.0
H1291 H 0.13433 0.93607 0.96319 0.0
H1292 H 0.17016 0.90847 0.96045 0.0
H1293 H 0.21389 0.88443 0.05334 0.0
H1294 H 0.15779 0.8659 0.06673 0.0
H1295 H 0.11301 0.92881 0.00796 0.0
C1296 C 0.23787 0.95468 0.96986 0.0
C1297 C 0.27153 0.94407 0.97238 0.0
C1298 C 0.28163 0.92608 0.99433 0.0
C1299 C 0.25805 0.91764 0.01328 0.0
C1300 C 0.22462 0.92747 0.00985 0.0
C1301 C 0.21463 0.94606 0.98883 0.0
C1302 C 0.17673 0.94986 0.98789 0.0
C1303 C 0.16647 0.98693 0.99125 0.0
C1304 C 0.16224 0.93512 0.96294 0.0
C1305 C 0.16679 0.92903 0.01093 0.0
C1306 C 0.19475 0.91682 0.02358 0.0
C1307 C 0.19182 0.89452 0.04399 0.0
C1308 C 0.1596 0.88412 0.05149 0.0
C1309 C 0.13047 0.89577 0.03853 0.0
C1310 C 0.13444 0.91916 0.01833 0.0
H1311 H 0.56964 0.1011 0.01116 0.0
H1312 H 0.60881 0.14899 0.07938 0.0
H1313 H 0.59058 0.20454 0.06307 0.0
H1314 H 0.59881 0.16198 0.96888 0.0
H1315 H 0.5635 0.15986 0.94732 0.0
H1316 H 0.57465 0.12378 0.9662 0.0
H1317 H 0.51417 0.12211 0.9845 0.0
H1318 H 0.50304 0.15861 0.96589 0.0
H1319 H 0.49713 0.15889 9e-05 0.0
H1320 H 0.57262 0.25532 0.03771 0.0
H1321 H 0.56194 0.29719 0.00348 0.0
H1322 H 0.53677 0.21656 0.95111 0.0
C1323 C 0.57349 0.12325 0.02289 0.0
C1324 C 0.59022 0.12085 0.04666 0.0
C1325 C 0.59595 0.15042 0.06116 0.0
C1326 C 0.58544 0.18198 0.05213 0.0
C1327 C 0.56936 0.18362 0.02845 0.0
C1328 C 0.56363 0.15503 0.01392 0.0
C1329 C 0.5496 0.16403 0.98783 0.0
C1330 C 0.57305 0.1517 0.9663 0.0
C1331 C 0.51386 0.15008 0.98439 0.0
C1332 C 0.54926 0.20211 0.9897 0.0
C1333 C 0.55994 0.21295 0.01351 0.0
C1334 C 0.56367 0.24714 0.01916 0.0
C1335 C 0.55733 0.27076 -0.00025 0.0
C1336 C 0.54779 0.25995 0.97506 0.0
C1337 C 0.54311 0.22533 0.97015 0.0
H1338 H 0.29611 0.5734 0.92184 0.0
H1339 H 0.21138 0.57024 0.97406 0.0
H1340 H 0.24908 0.58648 0.00981 0.0
H1341 H 0.35594 0.53768 0.96474 0.0
H1342 H 0.39019 0.56334 0.95351 0.0
H1343 H 0.35623 0.55267 0.93223 0.0
H1344 H 0.34568 0.61598 0.92333 0.0
H1345 H 0.3797 0.62687 0.94448 0.0
H1346 H 0.33841 0.64428 0.94978 0.0
H1347 H 0.29702 0.60349 0.0398 0.0
H1348 H 0.35052 0.61812 0.06131 0.0
H1349 H 0.40292 0.60872 0.98886 0.0
C1350 C 0.2853 0.57642 0.94073 0.0
C1351 C 0.25073 0.57083 0.94514 0.0
C1352 C 0.23779 0.57448 0.97025 0.0
C1353 C 0.25901 0.58371 0.99064 0.0
C1354 C 0.29308 0.58887 0.98558 0.0
C1355 C 0.30607 0.58521 0.96121 0.0
C1356 C 0.3436 0.59126 0.96074 0.0
C1357 C 0.3626 0.55934 0.95231 0.0
C1358 C 0.35234 0.62139 0.94357 0.0
C1359 C 0.34983 0.59916 0.98865 0.0
C1360 C 0.32045 0.59779 0.00272 0.0
C1361 C 0.32013 0.60459 0.02892 0.0
C1362 C 0.3506 0.61302 0.04096 0.0
C1363 C 0.38101 0.61443 0.02685 0.0
C1364 C 0.38035 0.60733 0.00034 0.0
H1365 H 0.86665 0.379 0.01638 0.0
H1366 H 0.96108 0.39863 0.05511 0.0
H1367 H 0.98342 0.34443 0.03936 0.0
H1368 H 0.8642 0.28945 0.02881 0.0
H1369 H 0.84637 0.27946 0.99801 0.0
H1370 H 0.8377 0.31958 0.01275 0.0
H1371 H 0.86 0.35028 0.97248 0.0
H1372 H 0.86844 0.3103 0.95755 0.0
H1373 H 0.90163 0.34082 0.96084 0.0
H1374 H 0.99571 0.2878 0.01853 0.0
H1375 H 0.9977 0.2358 0.99233 0.0
H1376 H 0.89478 0.25345 0.96831 0.0
C1377 C 0.89191 0.37182 0.02177 0.0
C1378 C 0.91204 0.39321 0.037 0.0
C1379 C 0.94524 0.383 0.04321 0.0
C1380 C 0.95807 0.35205 0.03455 0.0
C1381 C 0.93741 0.33149 0.01974 0.0
C1382 C 0.90508 0.34108 0.01332 0.0
C1383 C 0.88829 0.31504 0.99651 0.0
C1384 C 0.85731 0.3 0.00982 0.0
C1385 C 0.87907 0.33001 0.97029 0.0
C1386 C 0.91632 0.28942 0.99424 0.0
C1387 C 0.9444 0.29913 0.00791 0.0
C1388 C 0.97376 0.27983 0.00792 0.0
C1389 C 0.97461 0.25023 0.99312 0.0
C1390 C 0.94635 0.24045 0.97841 0.0
C1391 C 0.91675 0.2601 0.97946 0.0
H1392 H 0.26148 0.89912 0.46539 0.0
H1393 H 0.26303 0.0082 0.46724 0.0
H1394 H 0.3098 0.00644 0.49851 0.0
H1395 H 0.28351 0.88595 0.53405 0.0
H1396 H 0.30871 0.84949 0.52658 0.0
H1397 H 0.2727 0.85966 0.50713 0.0
H1398 H 0.31055 0.85981 0.46678 0.0
H1399 H 0.34666 0.84998 0.48606 0.0
H1400 H 0.34696 0.88675 0.46593 0.0
H1401 H 0.3615 0.99241 0.52445 0.0
H1402 H 0.41158 0.96743 0.54518 0.0
H1403 H 0.37484 0.86755 0.5275 0.0
C1404 C 0.27109 0.92264 0.47289 0.0
C1405 C 0.25858 0.95381 0.46407 0.0
C1406 C 0.27195 0.98407 0.47408 0.0
C1407 C 0.29857 0.98328 0.49176 0.0
C1408 C 0.31098 0.95203 0.49953 0.0
C1409 C 0.29727 0.92225 0.49071 0.0
C1410 C 0.31639 0.892 0.50068 0.0
C1411 C 0.29399 0.87051 0.51815 0.0
C1412 C 0.331 0.87092 0.47854 0.0
C1413 C 0.34383 0.90934 0.51576 0.0
C1414 C 0.3402 0.94396 0.51498 0.0
C1415 C 0.36415 0.96536 0.52565 0.0
C1416 C 0.39256 0.951 0.53724 0.0
C1417 C 0.39675 0.91563 0.53818 0.0
C1418 C 0.37176 0.89462 0.52764 0.0
H1419 H 0.61183 0.27295 0.46455 0.0
H1420 H 0.50673 0.25953 0.48408 0.0
H1421 H 0.51119 0.3065 0.51541 0.0
H1422 H 0.64184 0.29458 0.52814 0.0
H1423 H 0.67154 0.32482 0.51603 0.0
H1424 H 0.6601 0.2889 0.49686 0.0
H1425 H 0.64253 0.32862 0.45992 0.0
H1426 H 0.65369 0.36463 0.47901 0.0
H1427 H 0.61193 0.36122 0.46589 0.0
H1428 H 0.5274 0.35786 0.54288 0.0
H1429 H 0.55349 0.40656 0.56454 0.0
H1430 H 0.64746 0.38569 0.52542 0.0
C1431 C 0.58971 0.2795 0.47557 0.0
C1432 C 0.55888 0.26248 0.47189 0.0
C1433 C 0.53065 0.27202 0.48673 0.0
C1434 C 0.53297 0.29874 0.50448 0.0
C1435 C 0.56372 0.31542 0.50718 0.0
C1436 C 0.59161 0.30588 0.49318 0.0
C1437 C 0.62152 0.32824 0.49872 0.0
C1438 C 0.65045 0.30792 0.51065 0.0
C1439 C 0.63307 0.34677 0.47444 0.0
C1440 C 0.60619 0.35228 0.5179 0.0
C1441 C 0.57288 0.34455 0.52264 0.0
C1442 C 0.55348 0.36395 0.53931 0.0
C1443 C 0.56851 0.3918 0.5514 0.0
C1444 C 0.60267 0.40015 0.54678 0.0
C1445 C 0.62154 0.37988 0.52977 0.0
H1446 H 0.23024 0.5346 0.47216 0.0
H1447 H 0.30814 0.60238 0.49826 0.0
H1448 H 0.27138 0.6219 0.53335 0.0
H1449 H 0.16607 0.58965 0.47886 0.0
H1450 H 0.1344 0.56064 0.48975 0.0
H1451 H 0.16884 0.54566 0.47056 0.0
H1452 H 0.18478 0.5024 0.50544 0.0
H1453 H 0.14989 0.51674 0.52464 0.0
H1454 H 0.19175 0.51647 0.53783 0.0
H1455 H 0.22367 0.642 0.55954 0.0
H1456 H 0.16878 0.65819 0.57799 0.0
H1457 H 0.12061 0.57779 0.53565 0.0
C1458 C 0.24002 0.55211 0.48621 0.0
C1459 C 0.27227 0.5663 0.4832 0.0
C1460 C 0.2838 0.59065 0.50085 0.0
C1461 C 0.26305 0.60196 0.52073 0.0
C1462 C 0.23074 0.58872 0.5226 0.0
C1463 C 0.21935 0.56393 0.5061 0.0
C1464 C 0.18223 0.55705 0.5104 0.0
C1465 C 0.1617 0.56366 0.48594 0.0
C1466 C 0.17686 0.52102 0.52017 0.0
C1467 C 0.17433 0.5828 0.53105 0.0
C1468 C 0.20278 0.60056 0.53793 0.0
C1469 C 0.20136 0.62776 0.55479 0.0
C1470 C 0.17009 0.637 0.56497 0.0
C1471 C 0.14065 0.61909 0.55835 0.0
C1472 C 0.14293 0.59139 0.54141 0.0
H1473 H 0.88822 0.24605 0.45403 0.0
H1474 H 0.98567 0.28194 0.47942 0.0
H1475 H 0.98281 0.2436 0.5166 0.0
H1476 H 0.85116 0.23368 0.51832 0.0
H1477 H 0.82917 0.19624 0.50836 0.0
H1478 H 0.8372 0.22935 0.48566 0.0
H1479 H 0.86683 0.18651 0.45572 0.0
H1480 H 0.85912 0.15338 0.47835 0.0
H1481 H 0.90141 0.16187 0.46783 0.0
H1482 H 0.97213 0.19677 0.54798 0.0
H1483 H 0.95358 0.14679 0.57217 0.0
H1484 H 0.86295 0.14189 0.52631 0.0
C1485 C 0.90869 0.24643 0.46768 0.0
C1486 C 0.93715 0.26709 0.46388 0.0
C1487 C 0.96351 0.26654 0.48207 0.0
C1488 C 0.96211 0.24481 0.50321 0.0
C1489 C 0.93404 0.22411 0.50598 0.0
C1490 C 0.90764 0.22503 0.48884 0.0
C1491 C 0.88132 0.1988 0.49515 0.0
C1492 C 0.84773 0.21552 0.50231 0.0
C1493 C 0.87694 0.17366 0.47294 0.0
C1494 C 0.89744 0.18228 0.51814 0.0
C1495 C 0.92774 0.19736 0.52418 0.0
C1496 C 0.94825 0.18508 0.54363 0.0
C1497 C 0.93763 0.15655 0.55713 0.0
C1498 C 0.90679 0.14056 0.55114 0.0
C1499 C 0.88631 0.15398 0.53161 0.0
H1500 H 0.74329 0.1048 0.02678 0.0
H1501 H 0.73843 0.99596 0.02173 0.0
H1502 H 0.78832 0.99616 0.99329 0.0
H1503 H 0.77553 0.12118 0.9611 0.0
H1504 H 0.80204 0.15479 0.97246 0.0
H1505 H 0.76276 0.1461 0.9883 0.0
H1506 H 0.79444 0.13973 0.03136 0.0
H1507 H 0.83377 0.14792 0.01567 0.0
H1508 H 0.82836 0.10976 0.03377 0.0
H1509 H 0.84317 0.00831 0.97021 0.0
H1510 H 0.89652 0.03093 0.95355 0.0
H1511 H 0.86565 0.13157 0.97598 0.0
C1512 C 0.75205 0.08102 0.01909 0.0
C1513 C 0.7369 0.05037 0.02627 0.0
C1514 C 0.74939 0.01976 0.01612 0.0
C1515 C 0.77777 0.01966 6e-05 0.0
C1516 C 0.79299 0.05038 0.99426 0.0
C1517 C 0.78025 0.08051 0.00328 0.0
C1518 C 0.80277 0.10981 0.99655 0.0
C1519 C 0.78469 0.13442 0.97852 0.0
C1520 C 0.81559 0.12783 0.02078 0.0
C1521 C 0.83082 0.09145 0.98294 0.0
C1522 C 0.82463 0.05727 0.9815 0.0
C1523 C 0.84803 0.03508 0.97099 0.0
C1524 C 0.87847 0.04818 0.96181 0.0
C1525 C 0.88546 0.08315 0.96342 0.0
C1526 C 0.861 0.10489 0.97395 0.0
H1527 H 0.37132 0.87092 0.96584 0.0
H1528 H 0.47 0.89296 0.93479 0.0
H1529 H 0.49365 0.84488 0.95881 0.0
H1530 H 0.39752 0.84936 0.02737 0.0
H1531 H 0.36703 0.81629 0.03135 0.0
H1532 H 0.35802 0.85111 0.01052 0.0
H1533 H 0.34717 0.80973 0.97299 0.0
H1534 H 0.35609 0.77471 0.99373 0.0
H1535 H 0.37913 0.77959 0.96428 0.0
H1536 H 0.50666 0.79526 0.98853 0.0
H1537 H 0.50733 0.74989 0.02113 0.0
H1538 H 0.39955 0.76116 0.03065 0.0
C1539 C 0.39776 0.86536 0.96352 0.0
C1540 C 0.4187 0.88576 0.94827 0.0
C1541 C 0.45343 0.87791 0.9465 0.0
C1542 C 0.46707 0.8505 0.95994 0.0
C1543 C 0.44561 0.83108 0.97493 0.0
C1544 C 0.41166 0.8382 0.97665 0.0
C1545 C 0.39398 0.81461 0.99476 0.0
C1546 C 0.37823 0.83401 0.01733 0.0
C1547 C 0.36754 0.7934 0.98058 0.0
C1548 C 0.42332 0.7933 0.00331 0.0
C1549 C 0.45295 0.80288 0.99166 0.0
C1550 C 0.4835 0.78734 0.99755 0.0
C1551 C 0.48367 0.76157 0.016 0.0
C1552 C 0.4535 0.75195 0.02833 0.0
C1553 C 0.42306 0.76783 0.02154 0.0
H1554 H 0.74964 0.39927 0.02947 0.0
H1555 H 0.75906 0.50625 0.01478 0.0
H1556 H 0.71162 0.50275 0.98407 0.0
H1557 H 0.72532 0.3735 0.96447 0.0
H1558 H 0.6965 0.34223 0.97629 0.0
H1559 H 0.73345 0.35286 0.99452 0.0
H1560 H 0.69602 0.36651 0.03382 0.0
H1561 H 0.65899 0.35624 0.01571 0.0
H1562 H 0.66262 0.39695 0.03072 0.0
H1563 H 0.65946 0.48785 0.95812 0.0
H1564 H 0.6088 0.46308 0.93839 0.0
H1565 H 0.63387 0.3663 0.97162 0.0
C1566 C 0.74222 0.42194 0.01948 0.0
C1567 C 0.75808 0.45305 0.02443 0.0
C1568 C 0.74744 0.4821 0.01106 0.0
C1569 C 0.72049 0.48033 0.99367 0.0
C1570 C 0.70479 0.4493 0.98982 0.0
C1571 C 0.71555 0.4206 0.00223 0.0
C1572 C 0.69342 0.39071 0.99617 0.0
C1573 C 0.71337 0.36321 0.98201 0.0
C1574 C 0.67678 0.37681 0.02055 0.0
C1575 C 0.66793 0.40713 0.97879 0.0
C1576 C 0.67496 0.44085 0.97517 0.0
C1577 C 0.65394 0.46142 0.96069 0.0
C1578 C 0.62503 0.44715 0.94974 0.0
C1579 C 0.61725 0.41266 0.95342 0.0
C1580 C 0.63929 0.39253 0.96802 0.0
H1581 H 0.10594 0.72923 0.03855 0.0
H1582 H 1.00292 0.75334 0.01826 0.0
H1583 H 1.00297 0.70636 0.98699 0.0
H1584 H 0.13415 0.70626 0.97507 0.0
H1585 H 0.16074 0.6727 0.98641 0.0
H1586 H 0.15265 0.70871 0.00651 0.0
H1587 H 0.131 0.66936 0.04236 0.0
H1588 H 0.13894 0.63327 0.02235 0.0
H1589 H 0.09758 0.64013 0.03546 0.0
H1590 H 0.01437 0.6556 0.9585 0.0
H1591 H 0.03594 0.60638 0.93484 0.0
H1592 H 0.13129 0.61527 0.97464 0.0
C1593 C 0.0834 0.72487 0.02743 0.0
C1594 C 0.05443 0.74514 0.03079 0.0
C1595 C 0.02548 0.73838 0.01588 0.0
C1596 C 0.02527 0.71167 0.99813 0.0
C1597 C 0.05423 0.69206 0.99547 0.0
C1598 C 0.08279 0.69846 0.00967 0.0
C1599 C 0.11051 0.67347 0.00356 0.0
C1600 C 0.14133 0.69136 0.99221 0.0
C1601 C 0.12005 0.65284 0.02735 0.0
C1602 C 0.09312 0.65184 0.9837 0.0
C1603 C 0.06069 0.66294 0.97929 0.0
C1604 C 0.03971 0.64672 0.96187 0.0
C1605 C 0.05218 0.61853 0.94862 0.0
C1606 C 0.08539 0.60662 0.95282 0.0
C1607 C 0.10598 0.62374 0.97067 0.0
loop_
_geom_bond_atom_site_label_1
_geom_bond_atom_site_label_2
_geom_bond_distance
_geom_bond_site_symmetry_2
_ccdc_geom_bond_type
C0 C1 1.351 . S
C0 N3 1.368 . S
C0 H5 0.931 . S
C1 C0 1.351 . S
C1 N2 1.373 . S
C1 H29 0.930 . S
N2 C1 1.373 . S
N2 C4 1.340 . S
N3 C0 1.368 . S
N3 C4 1.321 . S
N3 Co6 2.135 . S
C4 N2 1.340 . S
C4 N3 1.321 . S
C4 H28 0.930 . S
H5 C0 0.931 . S
Co6 N3 2.135 . S
Co6 N9 2.121 . S
Co6 O14 2.055 . S
Co6 O17 2.039 . S
Co6 N20 2.140 . S
C7 O8 1.227 . S
C7 O17 1.265 . S
O8 C7 1.227 . S
N9 Co6 2.121 . S
N9 C11 1.375 . S
N9 C12 1.313 . S
C10 C11 1.338 . S
C10 N13 1.377 . S
C10 H30 0.930 . S
C11 N9 1.375 . S
C11 C10 1.338 . S
C11 H15 0.931 . S
C12 N9 1.313 . S
C12 N13 1.344 . S
C12 H16 0.930 . S
N13 C10 1.377 . S
N13 C12 1.344 . S
O14 Co6 2.055 . S
O14 C18 1.253 . S
H15 C11 0.931 . S
H16 C12 0.930 . S
O17 Co6 2.039 . S
O17 C7 1.265 . S
C18 O14 1.253 . S
C18 O19 1.227 . S
O19 C18 1.227 . S
N20 Co6 2.140 . S
N20 C23 1.346 . S
N20 C24 1.345 . S
C21 C22 1.387 . S
C21 C25 1.391 . S
C22 C21 1.387 . S
C22 C23 1.369 . S
C22 H31 0.929 . S
C23 N20 1.346 . S
C23 C22 1.369 . S
C23 H26 0.928 . S
C24 N20 1.345 . S
C24 C25 1.371 . S
C24 H27 0.931 . S
C25 C21 1.391 . S
C25 C24 1.371 . S
C25 H32 0.930 . S
H26 C23 0.928 . S
H27 C24 0.931 . S
H28 C4 0.930 . S
H29 C1 0.930 . S
H30 C10 0.930 . S
H31 C22 0.929 . S
H32 C25 0.930 . S
C33 C34 1.351 . S
C33 N36 1.368 . S
C33 H38 0.931 . S
C34 C33 1.351 . S
C34 N35 1.373 . S
C34 H62 0.930 . S
N35 C34 1.373 . S
N35 C37 1.340 . S
N36 C33 1.368 . S
N36 C37 1.321 . S
N36 Co39 2.135 . S
C37 N35 1.340 . S
C37 N36 1.321 . S
C37 H61 0.930 . S
H38 C33 0.931 . S
Co39 N36 2.135 . S
Co39 N42 2.121 . S
Co39 O47 2.055 . S
Co39 O50 2.039 . S
Co39 N53 2.140 . S
C40 O41 1.227 . S
C40 O50 1.265 . S
O41 C40 1.227 . S
N42 Co39 2.121 . S
N42 C44 1.375 . S
N42 C45 1.313 . S
C43 C44 1.338 . S
C43 N46 1.377 . S
C43 H63 0.930 . S
C44 N42 1.375 . S
C44 C43 1.338 . S
C44 H48 0.931 . S
C45 N42 1.313 . S
C45 N46 1.344 . S
C45 H49 0.930 . S
N46 C43 1.377 . S
N46 C45 1.344 . S
O47 Co39 2.055 . S
O47 C51 1.253 . S
H48 C44 0.931 . S
H49 C45 0.930 . S
O50 Co39 2.039 . S
O50 C40 1.265 . S
C51 O47 1.253 . S
C51 O52 1.227 . S
O52 C51 1.227 . S
N53 Co39 2.140 . S
N53 C56 1.346 . S
N53 C57 1.345 . S
C54 C55 1.387 . S
C54 C58 1.391 . S
C55 C54 1.387 . S
C55 C56 1.369 . S
C55 H64 0.929 . S
C56 N53 1.346 . S
C56 C55 1.369 . S
C56 H59 0.928 . S
C57 N53 1.345 . S
C57 C58 1.371 . S
C57 H60 0.931 . S
C58 C54 1.391 . S
C58 C57 1.371 . S
C58 H65 0.930 . S
H59 C56 0.928 . S
H60 C57 0.931 . S
H61 C37 0.930 . S
H62 C34 0.930 . S
H63 C43 0.930 . S
H64 C55 0.929 . S
H65 C58 0.930 . S
C66 C67 1.358 . S
C66 N69 1.368 . S
C66 H71 0.931 . S
C67 C66 1.358 . S
C67 N68 1.363 1_655 S
C67 H95 0.932 . S
N68 C67 1.363 1_455 S
N68 C70 1.340 . S
N69 C66 1.368 . S
N69 C70 1.321 1_655 S
N69 Co72 2.135 . S
C70 N68 1.340 . S
C70 N69 1.321 1_455 S
C70 H94 0.930 . S
H71 C66 0.931 . S
Co72 N69 2.135 . S
Co72 N75 2.121 . S
Co72 O80 2.055 . S
Co72 O83 2.039 1_655 S
Co72 N86 2.140 . S
C73 O74 1.227 . S
C73 O83 1.265 . S
O74 C73 1.227 . S
N75 Co72 2.121 . S
N75 C77 1.375 . S
N75 C78 1.313 . S
C76 C77 1.338 . S
C76 N79 1.377 . S
C76 H96 0.930 . S
C77 N75 1.375 . S
C77 C76 1.338 . S
C77 H81 0.931 . S
C78 N75 1.313 . S
C78 N79 1.344 . S
C78 H82 0.930 . S
N79 C76 1.377 . S
N79 C78 1.344 . S
O80 Co72 2.055 . S
O80 C84 1.253 . S
H81 C77 0.931 . S
H82 C78 0.930 . S
O83 Co72 2.039 1_455 S
O83 C73 1.265 . S
C84 O80 1.253 . S
C84 O85 1.227 . S
O85 C84 1.227 . S
N86 Co72 2.140 . S
N86 C89 1.346 . S
N86 C90 1.345 . S
C87 C88 1.387 . S
C87 C91 1.391 . S
C88 C87 1.387 . S
C88 C89 1.369 . S
C88 H97 0.929 . S
C89 N86 1.346 . S
C89 C88 1.369 . S
C89 H92 0.928 . S
C90 N86 1.345 . S
C90 C91 1.371 . S
C90 H93 0.931 . S
C91 C87 1.391 . S
C91 C90 1.371 . S
C91 H98 0.930 . S
H92 C89 0.928 . S
H93 C90 0.931 . S
H94 C70 0.930 . S
H95 C67 0.932 . S
H96 C76 0.930 . S
H97 C88 0.929 . S
H98 C91 0.930 . S
C99 C100 1.358 . S
C99 N102 1.368 . S
C99 H104 0.931 . S
C100 C99 1.358 . S
C100 N101 1.363 1_565 S
C100 H128 0.932 . S
N101 C100 1.363 1_545 S
N101 C103 1.340 . S
N102 C99 1.368 . S
N102 C103 1.321 1_565 S
N102 Co105 2.135 . S
C103 N101 1.340 . S
C103 N102 1.321 1_545 S
C103 H127 0.930 . S
H104 C99 0.931 . S
Co105 N102 2.135 . S
Co105 N108 2.121 . S
Co105 O113 2.055 . S
Co105 O116 2.039 1_565 S
Co105 N119 2.140 . S
C106 O107 1.227 . S
C106 O116 1.265 . S
O107 C106 1.227 . S
N108 Co105 2.121 . S
N108 C110 1.375 . S
N108 C111 1.313 . S
C109 C110 1.338 . S
C109 N112 1.377 . S
C109 H129 0.930 . S
C110 N108 1.375 . S
C110 C109 1.338 . S
C110 H114 0.931 . S
C111 N108 1.313 . S
C111 N112 1.344 . S
C111 H115 0.930 . S
N112 C109 1.377 . S
N112 C111 1.344 . S
O113 Co105 2.055 . S
O113 C117 1.253 . S
H114 C110 0.931 . S
H115 C111 0.930 . S
O116 Co105 2.039 1_545 S
O116 C106 1.265 . S
C117 O113 1.253 . S
C117 O118 1.227 . S
O118 C117 1.227 . S
N119 Co105 2.140 . S
N119 C122 1.346 . S
N119 C123 1.345 . S
C120 C121 1.387 . S
C120 C124 1.391 . S
C121 C120 1.387 . S
C121 C122 1.369 . S
C121 H130 0.929 . S
C122 N119 1.346 . S
C122 C121 1.369 . S
C122 H125 0.928 . S
C123 N119 1.345 . S
C123 C124 1.371 . S
C123 H126 0.931 . S
C124 C120 1.391 . S
C124 C123 1.371 . S
C124 H131 0.930 . S
H125 C122 0.928 . S
H126 C123 0.931 . S
H127 C103 0.930 . S
H128 C100 0.932 . S
H129 C109 0.930 . S
H130 C121 0.929 . S
H131 C124 0.930 . S
C132 C133 1.358 . S
C132 N135 1.368 . S
C132 H137 0.931 . S
C133 C132 1.358 . S
C133 N134 1.363 1_455 S
C133 H161 0.932 . S
N134 C133 1.363 1_655 S
N134 C136 1.340 . S
N135 C132 1.368 . S
N135 C136 1.321 1_455 S
N135 Co138 2.135 . S
C136 N134 1.340 . S
C136 N135 1.321 1_655 S
C136 H160 0.930 . S
H137 C132 0.931 . S
Co138 N135 2.135 . S
Co138 N141 2.121 . S
Co138 O146 2.055 . S
Co138 O149 2.039 1_455 S
Co138 N152 2.140 . S
C139 O140 1.227 . S
C139 O149 1.265 . S
O140 C139 1.227 . S
N141 Co138 2.121 . S
N141 C143 1.375 . S
N141 C144 1.313 . S
C142 C143 1.338 . S
C142 N145 1.377 . S
C142 H162 0.930 . S
C143 N141 1.375 . S
C143 C142 1.338 . S
C143 H147 0.931 . S
C144 N141 1.313 . S
C144 N145 1.344 . S
C144 H148 0.930 . S
N145 C142 1.377 . S
N145 C144 1.344 . S
O146 Co138 2.055 . S
O146 C150 1.253 . S
H147 C143 0.931 . S
H148 C144 0.930 . S
O149 Co138 2.039 1_655 S
O149 C139 1.265 . S
C150 O146 1.253 . S
C150 O151 1.227 . S
O151 C150 1.227 . S
N152 Co138 2.140 . S
N152 C155 1.346 . S
N152 C156 1.345 . S
C153 C154 1.387 . S
C153 C157 1.391 . S
C154 C153 1.387 . S
C154 C155 1.369 . S
C154 H163 0.929 . S
C155 N152 1.346 . S
C155 C154 1.369 . S
C155 H158 0.928 . S
C156 N152 1.345 . S
C156 C157 1.371 . S
C156 H159 0.931 . S
C157 C153 1.391 . S
C157 C156 1.371 . S
C157 H164 0.930 . S
H158 C155 0.928 . S
H159 C156 0.931 . S
H160 C136 0.930 . S
H161 C133 0.932 . S
H162 C142 0.930 . S
H163 C154 0.929 . S
H164 C157 0.930 . S
C165 C166 1.358 . S
C165 N168 1.368 . S
C165 H170 0.931 . S
C166 C165 1.358 . S
C166 N167 1.363 1_545 S
C166 H194 0.932 . S
N167 C166 1.363 1_565 S
N167 C169 1.340 . S
N168 C165 1.368 . S
N168 C169 1.321 1_545 S
N168 Co171 2.135 . S
C169 N167 1.340 . S
C169 N168 1.321 1_565 S
C169 H193 0.930 . S
H170 C165 0.931 . S
Co171 N168 2.135 . S
Co171 N174 2.121 . S
Co171 O179 2.055 . S
Co171 O182 2.039 1_545 S
Co171 N185 2.140 . S
C172 O173 1.227 . S
C172 O182 1.265 . S
O173 C172 1.227 . S
N174 Co171 2.121 . S
N174 C176 1.375 . S
N174 C177 1.313 . S
C175 C176 1.338 . S
C175 N178 1.377 . S
C175 H195 0.930 . S
C176 N174 1.375 . S
C176 C175 1.338 . S
C176 H180 0.931 . S
C177 N174 1.313 . S
C177 N178 1.344 . S
C177 H181 0.930 . S
N178 C175 1.377 . S
N178 C177 1.344 . S
O179 Co171 2.055 . S
O179 C183 1.253 . S
H180 C176 0.931 . S
H181 C177 0.930 . S
O182 Co171 2.039 1_565 S
O182 C172 1.265 . S
C183 O179 1.253 . S
C183 O184 1.227 . S
O184 C183 1.227 . S
N185 Co171 2.140 . S
N185 C188 1.346 . S
N185 C189 1.345 . S
C186 C187 1.387 . S
C186 C190 1.391 . S
C187 C186 1.387 . S
C187 C188 1.369 . S
C187 H196 0.929 . S
C188 N185 1.346 . S
C188 C187 1.369 . S
C188 H191 0.928 . S
C189 N185 1.345 . S
C189 C190 1.371 . S
C189 H192 0.931 . S
C190 C186 1.391 . S
C190 C189 1.371 . S
C190 H197 0.930 . S
H191 C188 0.928 . S
H192 C189 0.931 . S
H193 C169 0.930 . S
H194 C166 0.932 . S
H195 C175 0.930 . S
H196 C187 0.929 . S
H197 C190 0.930 . S
C198 C199 1.351 . S
C198 N201 1.368 . S
C198 H203 0.931 . S
C199 C198 1.351 . S
C199 N200 1.373 . S
C199 H227 0.930 . S
N200 C199 1.373 . S
N200 C202 1.340 . S
N201 C198 1.368 . S
N201 C202 1.321 . S
N201 Co204 2.135 . S
C202 N200 1.340 . S
C202 N201 1.321 . S
C202 H226 0.930 . S
H203 C198 0.931 . S
Co204 N201 2.135 . S
Co204 N207 2.121 . S
Co204 O212 2.055 . S
Co204 O215 2.039 . S
Co204 N218 2.140 . S
C205 O206 1.227 . S
C205 O215 1.265 . S
O206 C205 1.227 . S
N207 Co204 2.121 . S
N207 C209 1.375 . S
N207 C210 1.313 . S
C208 C209 1.338 . S
C208 N211 1.377 . S
C208 H228 0.930 . S
C209 N207 1.375 . S
C209 C208 1.338 . S
C209 H213 0.931 . S
C210 N207 1.313 . S
C210 N211 1.344 . S
C210 H214 0.930 . S
N211 C208 1.377 . S
N211 C210 1.344 . S
O212 Co204 2.055 . S
O212 C216 1.253 . S
H213 C209 0.931 . S
H214 C210 0.930 . S
O215 Co204 2.039 . S
O215 C205 1.265 . S
C216 O212 1.253 . S
C216 O217 1.227 . S
O217 C216 1.227 . S
N218 Co204 2.140 . S
N218 C221 1.346 . S
N218 C222 1.345 . S
C219 C220 1.387 . S
C219 C223 1.391 . S
C220 C219 1.387 . S
C220 C221 1.369 . S
C220 H229 0.929 . S
C221 N218 1.346 . S
C221 C220 1.369 . S
C221 H224 0.928 . S
C222 N218 1.345 . S
C222 C223 1.371 . S
C222 H225 0.931 . S
C223 C219 1.391 . S
C223 C222 1.371 . S
C223 H230 0.930 . S
H224 C221 0.928 . S
H225 C222 0.931 . S
H226 C202 0.930 . S
H227 C199 0.930 . S
H228 C208 0.930 . S
H229 C220 0.929 . S
H230 C223 0.930 . S
C231 C232 1.351 . S
C231 N234 1.368 . S
C231 H236 0.931 . S
C232 C231 1.351 . S
C232 N233 1.373 . S
C232 H260 0.930 . S
N233 C232 1.373 . S
N233 C235 1.340 . S
N234 C231 1.368 . S
N234 C235 1.321 . S
N234 Co237 2.135 . S
C235 N233 1.340 . S
C235 N234 1.321 . S
C235 H259 0.930 . S
H236 C231 0.931 . S
Co237 N234 2.135 . S
Co237 N240 2.121 . S
Co237 O245 2.055 . S
Co237 O248 2.039 . S
Co237 N251 2.140 . S
C238 O239 1.227 . S
C238 O248 1.265 . S
O239 C238 1.227 . S
N240 Co237 2.121 . S
N240 C242 1.375 . S
N240 C243 1.313 . S
C241 C242 1.338 . S
C241 N244 1.377 . S
C241 H261 0.930 . S
C242 N240 1.375 . S
C242 C241 1.338 . S
C242 H246 0.931 . S
C243 N240 1.313 . S
C243 N244 1.344 . S
C243 H247 0.930 . S
N244 C241 1.377 . S
N244 C243 1.344 . S
O245 Co237 2.055 . S
O245 C249 1.253 . S
H246 C242 0.931 . S
H247 C243 0.930 . S
O248 Co237 2.039 . S
O248 C238 1.265 . S
C249 O245 1.253 . S
C249 O250 1.227 . S
O250 C249 1.227 . S
N251 Co237 2.140 . S
N251 C254 1.346 . S
N251 C255 1.345 . S
C252 C253 1.387 . S
C252 C256 1.391 . S
C253 C252 1.387 . S
C253 C254 1.369 . S
C253 H262 0.929 . S
C254 N251 1.346 . S
C254 C253 1.369 . S
C254 H257 0.928 . S
C255 N251 1.345 . S
C255 C256 1.371 . S
C255 H258 0.931 . S
C256 C252 1.391 . S
C256 C255 1.371 . S
C256 H263 0.930 . S
H257 C254 0.928 . S
H258 C255 0.931 . S
H259 C235 0.930 . S
H260 C232 0.930 . S
H261 C241 0.930 . S
H262 C253 0.929 . S
H263 C256 0.930 . S
C264 C265 1.351 . S
C264 N267 1.368 . S
C264 H269 0.931 . S
C265 C264 1.351 . S
C265 N266 1.373 . S
C265 H293 0.930 . S
N266 C265 1.373 . S
N266 C268 1.340 . S
N267 C264 1.368 . S
N267 C268 1.321 . S
N267 Co270 2.135 . S
C268 N266 1.340 . S
C268 N267 1.321 . S
C268 H292 0.930 . S
H269 C264 0.931 . S
Co270 N267 2.135 . S
Co270 N273 2.121 . S
Co270 O278 2.055 . S
Co270 O281 2.039 . S
Co270 N284 2.140 . S
C271 O272 1.227 . S
C271 O281 1.265 . S
O272 C271 1.227 . S
N273 Co270 2.121 . S
N273 C275 1.375 . S
N273 C276 1.313 . S
C274 C275 1.338 . S
C274 N277 1.377 . S
C274 H294 0.930 . S
C275 N273 1.375 . S
C275 C274 1.338 . S
C275 H279 0.931 . S
C276 N273 1.313 . S
C276 N277 1.344 . S
C276 H280 0.930 . S
N277 C274 1.377 . S
N277 C276 1.344 . S
O278 Co270 2.055 . S
O278 C282 1.253 . S
H279 C275 0.931 . S
H280 C276 0.930 . S
O281 Co270 2.039 . S
O281 C271 1.265 . S
C282 O278 1.253 . S
C282 O283 1.227 . S
O283 C282 1.227 . S
N284 Co270 2.140 . S
N284 C287 1.346 . S
N284 C288 1.345 . S
C285 C286 1.387 . S
C285 C289 1.391 . S
C286 C285 1.387 . S
C286 C287 1.369 . S
C286 H295 0.929 . S
C287 N284 1.346 . S
C287 C286 1.369 . S
C287 H290 0.928 . S
C288 N284 1.345 . S
C288 C289 1.371 . S
C288 H291 0.931 . S
C289 C285 1.391 . S
C289 C288 1.371 . S
C289 H296 0.930 . S
H290 C287 0.928 . S
H291 C288 0.931 . S
H292 C268 0.930 . S
H293 C265 0.930 . S
H294 C274 0.930 . S
H295 C286 0.929 . S
H296 C289 0.930 . S
C297 C298 1.351 . S
C297 N300 1.368 . S
C297 H302 0.931 . S
C298 C297 1.351 . S
C298 N299 1.373 . S
C298 H326 0.930 . S
N299 C298 1.373 . S
N299 C301 1.340 . S
N300 C297 1.368 . S
N300 C301 1.321 . S
N300 Co303 2.135 . S
C301 N299 1.340 . S
C301 N300 1.321 . S
C301 H325 0.930 . S
H302 C297 0.931 . S
Co303 N300 2.135 . S
Co303 N306 2.121 . S
Co303 O311 2.055 . S
Co303 O314 2.039 . S
Co303 N317 2.140 . S
C304 O305 1.227 . S
C304 O314 1.265 . S
O305 C304 1.227 . S
N306 Co303 2.121 . S
N306 C308 1.375 . S
N306 C309 1.313 . S
C307 C308 1.338 . S
C307 N310 1.377 . S
C307 H327 0.930 . S
C308 N306 1.375 . S
C308 C307 1.338 . S
C308 H312 0.931 . S
C309 N306 1.313 . S
C309 N310 1.344 . S
C309 H313 0.930 . S
N310 C307 1.377 . S
N310 C309 1.344 . S
O311 Co303 2.055 . S
O311 C315 1.253 . S
H312 C308 0.931 . S
H313 C309 0.930 . S
O314 Co303 2.039 . S
O314 C304 1.265 . S
C315 O311 1.253 . S
C315 O316 1.227 . S
O316 C315 1.227 . S
N317 Co303 2.140 . S
N317 C320 1.346 . S
N317 C321 1.345 . S
C318 C319 1.387 . S
C318 C322 1.391 . S
C319 C318 1.387 . S
C319 C320 1.369 . S
C319 H328 0.929 . S
C320 N317 1.346 . S
C320 C319 1.369 . S
C320 H323 0.928 . S
C321 N317 1.345 . S
C321 C322 1.371 . S
C321 H324 0.931 . S
C322 C318 1.391 . S
C322 C321 1.371 . S
C322 H329 0.930 . S
H323 C320 0.928 . S
H324 C321 0.931 . S
H325 C301 0.930 . S
H326 C298 0.930 . S
H327 C307 0.930 . S
H328 C319 0.929 . S
H329 C322 0.930 . S
C330 C331 1.358 . S
C330 N333 1.368 . S
C330 H335 0.931 . S
C331 C330 1.358 . S
C331 N332 1.363 1_455 S
C331 H359 0.932 . S
N332 C331 1.363 1_655 S
N332 C334 1.340 . S
N333 C330 1.368 . S
N333 C334 1.321 1_455 S
N333 Co336 2.135 . S
C334 N332 1.340 . S
C334 N333 1.321 1_655 S
C334 H358 0.930 . S
H335 C330 0.931 . S
Co336 N333 2.135 . S
Co336 N339 2.121 . S
Co336 O344 2.055 . S
Co336 O347 2.039 1_455 S
Co336 N350 2.140 . S
C337 O338 1.227 . S
C337 O347 1.265 . S
O338 C337 1.227 . S
N339 Co336 2.121 . S
N339 C341 1.375 . S
N339 C342 1.313 . S
C340 C341 1.338 . S
C340 N343 1.377 . S
C340 H360 0.930 . S
C341 N339 1.375 . S
C341 C340 1.338 . S
C341 H345 0.931 . S
C342 N339 1.313 . S
C342 N343 1.344 . S
C342 H346 0.930 . S
N343 C340 1.377 . S
N343 C342 1.344 . S
O344 Co336 2.055 . S
O344 C348 1.253 . S
H345 C341 0.931 . S
H346 C342 0.930 . S
O347 Co336 2.039 1_655 S
O347 C337 1.265 . S
C348 O344 1.253 . S
C348 O349 1.227 . S
O349 C348 1.227 . S
N350 Co336 2.140 . S
N350 C353 1.346 . S
N350 C354 1.345 . S
C351 C352 1.387 . S
C351 C355 1.391 . S
C352 C351 1.387 . S
C352 C353 1.369 . S
C352 H361 0.929 . S
C353 N350 1.346 . S
C353 C352 1.369 . S
C353 H356 0.928 . S
C354 N350 1.345 . S
C354 C355 1.371 . S
C354 H357 0.931 . S
C355 C351 1.391 . S
C355 C354 1.371 . S
C355 H362 0.930 . S
H356 C353 0.928 . S
H357 C354 0.931 . S
H358 C334 0.930 . S
H359 C331 0.932 . S
H360 C340 0.930 . S
H361 C352 0.929 . S
H362 C355 0.930 . S
C363 C364 1.358 . S
C363 N366 1.368 . S
C363 H368 0.931 . S
C364 C363 1.358 . S
C364 N365 1.363 1_545 S
C364 H392 0.932 . S
N365 C364 1.363 1_565 S
N365 C367 1.340 . S
N366 C363 1.368 . S
N366 C367 1.321 1_545 S
N366 Co369 2.135 . S
C367 N365 1.340 . S
C367 N366 1.321 1_565 S
C367 H391 0.930 . S
H368 C363 0.931 . S
Co369 N366 2.135 . S
Co369 N372 2.121 . S
Co369 O377 2.055 . S
Co369 O380 2.039 1_545 S
Co369 N383 2.140 . S
C370 O371 1.227 . S
C370 O380 1.265 . S
O371 C370 1.227 . S
N372 Co369 2.121 . S
N372 C374 1.375 . S
N372 C375 1.313 . S
C373 C374 1.338 . S
C373 N376 1.377 . S
C373 H393 0.930 . S
C374 N372 1.375 . S
C374 C373 1.338 . S
C374 H378 0.931 . S
C375 N372 1.313 . S
C375 N376 1.344 . S
C375 H379 0.930 . S
N376 C373 1.377 . S
N376 C375 1.344 . S
O377 Co369 2.055 . S
O377 C381 1.253 . S
H378 C374 0.931 . S
H379 C375 0.930 . S
O380 Co369 2.039 1_565 S
O380 C370 1.265 . S
C381 O377 1.253 . S
C381 O382 1.227 . S
O382 C381 1.227 . S
N383 Co369 2.140 . S
N383 C386 1.346 . S
N383 C387 1.345 . S
C384 C385 1.387 . S
C384 C388 1.391 . S
C385 C384 1.387 . S
C385 C386 1.369 . S
C385 H394 0.929 . S
C386 N383 1.346 . S
C386 C385 1.369 . S
C386 H389 0.928 . S
C387 N383 1.345 . S
C387 C388 1.371 . S
C387 H390 0.931 . S
C388 C384 1.391 . S
C388 C387 1.371 . S
C388 H395 0.930 . S
H389 C386 0.928 . S
H390 C387 0.931 . S
H391 C367 0.930 . S
H392 C364 0.932 . S
H393 C373 0.930 . S
H394 C385 0.929 . S
H395 C388 0.930 . S
C396 C397 1.358 . S
C396 N399 1.368 . S
C396 H401 0.931 . S
C397 C396 1.358 . S
C397 N398 1.363 1_655 S
C397 H425 0.932 . S
N398 C397 1.363 1_455 S
N398 C400 1.340 . S
N399 C396 1.368 . S
N399 C400 1.321 1_655 S
N399 Co402 2.135 . S
C400 N398 1.340 . S
C400 N399 1.321 1_455 S
C400 H424 0.930 . S
H401 C396 0.931 . S
Co402 N399 2.135 . S
Co402 N405 2.121 . S
Co402 O410 2.055 . S
Co402 O413 2.039 1_655 S
Co402 N416 2.140 . S
C403 O404 1.227 . S
C403 O413 1.265 . S
O404 C403 1.227 . S
N405 Co402 2.121 . S
N405 C407 1.375 . S
N405 C408 1.313 . S
C406 C407 1.338 . S
C406 N409 1.377 . S
C406 H426 0.930 . S
C407 N405 1.375 . S
C407 C406 1.338 . S
C407 H411 0.931 . S
C408 N405 1.313 . S
C408 N409 1.344 . S
C408 H412 0.930 . S
N409 C406 1.377 . S
N409 C408 1.344 . S
O410 Co402 2.055 . S
O410 C414 1.253 . S
H411 C407 0.931 . S
H412 C408 0.930 . S
O413 Co402 2.039 1_455 S
O413 C403 1.265 . S
C414 O410 1.253 . S
C414 O415 1.227 . S
O415 C414 1.227 . S
N416 Co402 2.140 . S
N416 C419 1.346 . S
N416 C420 1.345 . S
C417 C418 1.387 . S
C417 C421 1.391 . S
C418 C417 1.387 . S
C418 C419 1.369 . S
C418 H427 0.929 . S
C419 N416 1.346 . S
C419 C418 1.369 . S
C419 H422 0.928 . S
C420 N416 1.345 . S
C420 C421 1.371 . S
C420 H423 0.931 . S
C421 C417 1.391 . S
C421 C420 1.371 . S
C421 H428 0.930 . S
H422 C419 0.928 . S
H423 C420 0.931 . S
H424 C400 0.930 . S
H425 C397 0.932 . S
H426 C406 0.930 . S
H427 C418 0.929 . S
H428 C421 0.930 . S
C429 C430 1.358 . S
C429 N432 1.368 . S
C429 H434 0.931 . S
C430 C429 1.358 . S
C430 N431 1.363 1_565 S
C430 H458 0.932 . S
N431 C430 1.363 1_545 S
N431 C433 1.340 . S
N432 C429 1.368 . S
N432 C433 1.321 1_565 S
N432 Co435 2.135 . S
C433 N431 1.340 . S
C433 N432 1.321 1_545 S
C433 H457 0.930 . S
H434 C429 0.931 . S
Co435 N432 2.135 . S
Co435 N438 2.121 . S
Co435 O443 2.055 . S
Co435 O446 2.039 1_565 S
Co435 N449 2.140 . S
C436 O437 1.227 . S
C436 O446 1.265 . S
O437 C436 1.227 . S
N438 Co435 2.121 . S
N438 C440 1.375 . S
N438 C441 1.313 . S
C439 C440 1.338 . S
C439 N442 1.377 . S
C439 H459 0.930 . S
C440 N438 1.375 . S
C440 C439 1.338 . S
C440 H444 0.931 . S
C441 N438 1.313 . S
C441 N442 1.344 . S
C441 H445 0.930 . S
N442 C439 1.377 . S
N442 C441 1.344 . S
O443 Co435 2.055 . S
O443 C447 1.253 . S
H444 C440 0.931 . S
H445 C441 0.930 . S
O446 Co435 2.039 1_545 S
O446 C436 1.265 . S
C447 O443 1.253 . S
C447 O448 1.227 . S
O448 C447 1.227 . S
N449 Co435 2.140 . S
N449 C452 1.346 . S
N449 C453 1.345 . S
C450 C451 1.387 . S
C450 C454 1.391 . S
C451 C450 1.387 . S
C451 C452 1.369 . S
C451 H460 0.929 . S
C452 N449 1.346 . S
C452 C451 1.369 . S
C452 H455 0.928 . S
C453 N449 1.345 . S
C453 C454 1.371 . S
C453 H456 0.931 . S
C454 C450 1.391 . S
C454 C453 1.371 . S
C454 H461 0.930 . S
H455 C452 0.928 . S
H456 C453 0.931 . S
H457 C433 0.930 . S
H458 C430 0.932 . S
H459 C439 0.930 . S
H460 C451 0.929 . S
H461 C454 0.930 . S
C462 C463 1.351 . S
C462 N465 1.368 . S
C462 H467 0.931 . S
C463 C462 1.351 . S
C463 N464 1.373 . S
C463 H491 0.930 . S
N464 C463 1.373 . S
N464 C466 1.340 . S
N465 C462 1.368 . S
N465 C466 1.321 . S
N465 Co468 2.135 . S
C466 N464 1.340 . S
C466 N465 1.321 . S
C466 H490 0.930 . S
H467 C462 0.931 . S
Co468 N465 2.135 . S
Co468 N471 2.121 . S
Co468 O476 2.055 . S
Co468 O479 2.039 . S
Co468 N482 2.140 . S
C469 O470 1.227 . S
C469 O479 1.265 . S
O470 C469 1.227 . S
N471 Co468 2.121 . S
N471 C473 1.375 . S
N471 C474 1.313 . S
C472 C473 1.338 . S
C472 N475 1.377 . S
C472 H492 0.930 . S
C473 N471 1.375 . S
C473 C472 1.338 . S
C473 H477 0.931 . S
C474 N471 1.313 . S
C474 N475 1.344 . S
C474 H478 0.930 . S
N475 C472 1.377 . S
N475 C474 1.344 . S
O476 Co468 2.055 . S
O476 C480 1.253 . S
H477 C473 0.931 . S
H478 C474 0.930 . S
O479 Co468 2.039 . S
O479 C469 1.265 . S
C480 O476 1.253 . S
C480 O481 1.227 . S
O481 C480 1.227 . S
N482 Co468 2.140 . S
N482 C485 1.346 . S
N482 C486 1.345 . S
C483 C484 1.387 . S
C483 C487 1.391 . S
C484 C483 1.387 . S
C484 C485 1.369 . S
C484 H493 0.929 . S
C485 N482 1.346 . S
C485 C484 1.369 . S
C485 H488 0.928 . S
C486 N482 1.345 . S
C486 C487 1.371 . S
C486 H489 0.931 . S
C487 C483 1.391 . S
C487 C486 1.371 . S
C487 H494 0.930 . S
H488 C485 0.928 . S
H489 C486 0.931 . S
H490 C466 0.930 . S
H491 C463 0.930 . S
H492 C472 0.930 . S
H493 C484 0.929 . S
H494 C487 0.930 . S
C495 C496 1.351 . S
C495 N498 1.368 . S
C495 H500 0.931 . S
C496 C495 1.351 . S
C496 N497 1.373 . S
C496 H524 0.930 . S
N497 C496 1.373 . S
N497 C499 1.340 . S
N498 C495 1.368 . S
N498 C499 1.321 . S
N498 Co501 2.135 . S
C499 N497 1.340 . S
C499 N498 1.321 . S
C499 H523 0.930 . S
H500 C495 0.931 . S
Co501 N498 2.135 . S
Co501 N504 2.121 . S
Co501 O509 2.055 . S
Co501 O512 2.039 . S
Co501 N515 2.140 . S
C502 O503 1.227 . S
C502 O512 1.265 . S
O503 C502 1.227 . S
N504 Co501 2.121 . S
N504 C506 1.375 . S
N504 C507 1.313 . S
C505 C506 1.338 . S
C505 N508 1.377 . S
C505 H525 0.930 . S
C506 N504 1.375 . S
C506 C505 1.338 . S
C506 H510 0.931 . S
C507 N504 1.313 . S
C507 N508 1.344 . S
C507 H511 0.930 . S
N508 C505 1.377 . S
N508 C507 1.344 . S
O509 Co501 2.055 . S
O509 C513 1.253 . S
H510 C506 0.931 . S
H511 C507 0.930 . S
O512 Co501 2.039 . S
O512 C502 1.265 . S
C513 O509 1.253 . S
C513 O514 1.227 . S
O514 C513 1.227 . S
N515 Co501 2.140 . S
N515 C518 1.346 . S
N515 C519 1.345 . S
C516 C517 1.387 . S
C516 C520 1.391 . S
C517 C516 1.387 . S
C517 C518 1.369 . S
C517 H526 0.929 . S
C518 N515 1.346 . S
C518 C517 1.369 . S
C518 H521 0.928 . S
C519 N515 1.345 . S
C519 C520 1.371 . S
C519 H522 0.931 . S
C520 C516 1.391 . S
C520 C519 1.371 . S
C520 H527 0.930 . S
H521 C518 0.928 . S
H522 C519 0.931 . S
H523 C499 0.930 . S
H524 C496 0.930 . S
H525 C505 0.930 . S
H526 C517 0.929 . S
H527 C520 0.930 . S
H528 C540 0.930 . S
H529 C542 0.930 . S
H530 C543 0.930 . S
H531 C547 0.959 . S
H532 C547 0.959 . S
H533 C547 0.961 . S
H534 C548 0.960 . S
H535 C548 0.961 . S
H536 C548 0.959 . S
H537 C551 0.929 . S
H538 C552 0.931 . S
H539 C554 0.930 . S
C540 H528 0.930 . S
C540 C541 1.399 . S
C540 C545 1.399 . S
C541 C540 1.399 . S
C541 C542 1.376 . S
C542 H529 0.930 . S
C542 C541 1.376 . S
C542 C543 1.388 . S
C543 H530 0.930 . S
C543 C542 1.388 . S
C543 C544 1.390 . S
C544 C543 1.390 . S
C544 C545 1.394 . S
C544 C550 1.465 . S
C545 C540 1.399 . S
C545 C544 1.394 . S
C545 C546 1.516 . S
C546 C545 1.516 . S
C546 C547 1.502 . S
C546 C548 1.561 . S
C546 C549 1.526 . S
C547 H531 0.959 . S
C547 H532 0.959 . S
C547 H533 0.961 . S
C547 C546 1.502 . S
C548 H534 0.960 . S
C548 H535 0.961 . S
C548 H536 0.959 . S
C548 C546 1.561 . S
C549 C546 1.526 . S
C549 C550 1.396 . S
C549 C554 1.390 . S
C550 C544 1.465 . S
C550 C549 1.396 . S
C550 C551 1.399 . S
C551 H537 0.929 . S
C551 C550 1.399 . S
C551 C552 1.385 . S
C552 H538 0.931 . S
C552 C551 1.385 . S
C552 C553 1.389 . S
C553 C552 1.389 . S
C553 C554 1.387 . S
C554 H539 0.930 . S
C554 C549 1.390 . S
C554 C553 1.387 . S
H555 C567 0.930 . S
H556 C569 0.930 . S
H557 C570 0.930 . S
H558 C574 0.959 . S
H559 C574 0.959 . S
H560 C574 0.961 . S
H561 C575 0.960 . S
H562 C575 0.961 . S
H563 C575 0.959 . S
H564 C578 0.929 . S
H565 C579 0.931 . S
H566 C581 0.930 . S
C567 H555 0.930 . S
C567 C568 1.399 . S
C567 C572 1.399 . S
C568 C567 1.399 . S
C568 C569 1.376 . S
C569 H556 0.930 . S
C569 C568 1.376 . S
C569 C570 1.388 . S
C570 H557 0.930 . S
C570 C569 1.388 . S
C570 C571 1.390 . S
C571 C570 1.390 . S
C571 C572 1.394 . S
C571 C577 1.465 . S
C572 C567 1.399 . S
C572 C571 1.394 . S
C572 C573 1.516 . S
C573 C572 1.516 . S
C573 C574 1.502 . S
C573 C575 1.561 . S
C573 C576 1.526 . S
C574 H558 0.959 . S
C574 H559 0.959 . S
C574 H560 0.961 . S
C574 C573 1.502 . S
C575 H561 0.960 . S
C575 H562 0.961 . S
C575 H563 0.959 . S
C575 C573 1.561 . S
C576 C573 1.526 . S
C576 C577 1.396 . S
C576 C581 1.390 . S
C577 C571 1.465 . S
C577 C576 1.396 . S
C577 C578 1.399 . S
C578 H564 0.929 . S
C578 C577 1.399 . S
C578 C579 1.385 . S
C579 H565 0.931 . S
C579 C578 1.385 . S
C579 C580 1.389 . S
C580 C579 1.389 . S
C580 C581 1.387 . S
C581 H566 0.930 . S
C581 C576 1.390 . S
C581 C580 1.387 . S
H582 C594 0.930 . S
H583 C596 0.930 . S
H584 C597 0.930 . S
H585 C601 0.959 . S
H586 C601 0.959 . S
H587 C601 0.961 . S
H588 C602 0.960 . S
H589 C602 0.961 . S
H590 C602 0.959 . S
H591 C605 0.929 . S
H592 C606 0.931 . S
H593 C608 0.930 . S
C594 H582 0.930 . S
C594 C595 1.399 . S
C594 C599 1.399 . S
C595 C594 1.399 . S
C595 C596 1.376 . S
C596 H583 0.930 . S
C596 C595 1.376 . S
C596 C597 1.388 . S
C597 H584 0.930 . S
C597 C596 1.388 . S
C597 C598 1.390 . S
C598 C597 1.390 . S
C598 C599 1.394 . S
C598 C604 1.465 . S
C599 C594 1.399 . S
C599 C598 1.394 . S
C599 C600 1.516 . S
C600 C599 1.516 . S
C600 C601 1.502 . S
C600 C602 1.561 . S
C600 C603 1.526 . S
C601 H585 0.959 . S
C601 H586 0.959 . S
C601 H587 0.961 . S
C601 C600 1.502 . S
C602 H588 0.960 . S
C602 H589 0.961 . S
C602 H590 0.959 . S
C602 C600 1.561 . S
C603 C600 1.526 . S
C603 C604 1.396 . S
C603 C608 1.390 . S
C604 C598 1.465 . S
C604 C603 1.396 . S
C604 C605 1.399 . S
C605 H591 0.929 . S
C605 C604 1.399 . S
C605 C606 1.385 . S
C606 H592 0.931 . S
C606 C605 1.385 . S
C606 C607 1.389 . S
C607 C606 1.389 . S
C607 C608 1.387 . S
C608 H593 0.930 . S
C608 C603 1.390 . S
C608 C607 1.387 . S
H609 C621 0.930 . S
H610 C623 0.930 . S
H611 C624 0.930 . S
H612 C628 0.959 . S
H613 C628 0.959 . S
H614 C628 0.961 . S
H615 C629 0.960 . S
H616 C629 0.961 . S
H617 C629 0.959 . S
H618 C632 0.929 . S
H619 C633 0.931 . S
H620 C635 0.930 . S
C621 H609 0.930 . S
C621 C622 1.399 . S
C621 C626 1.399 . S
C622 C621 1.399 . S
C622 C623 1.376 . S
C623 H610 0.930 . S
C623 C622 1.376 . S
C623 C624 1.388 . S
C624 H611 0.930 . S
C624 C623 1.388 . S
C624 C625 1.390 . S
C625 C624 1.390 . S
C625 C626 1.394 . S
C625 C631 1.465 . S
C626 C621 1.399 . S
C626 C625 1.394 . S
C626 C627 1.516 . S
C627 C626 1.516 . S
C627 C628 1.502 . S
C627 C629 1.561 . S
C627 C630 1.526 . S
C628 H612 0.959 . S
C628 H613 0.959 . S
C628 H614 0.961 . S
C628 C627 1.502 . S
C629 H615 0.960 . S
C629 H616 0.961 . S
C629 H617 0.959 . S
C629 C627 1.561 . S
C630 C627 1.526 . S
C630 C631 1.396 . S
C630 C635 1.390 . S
C631 C625 1.465 . S
C631 C630 1.396 . S
C631 C632 1.399 . S
C632 H618 0.929 . S
C632 C631 1.399 . S
C632 C633 1.385 . S
C633 H619 0.931 . S
C633 C632 1.385 . S
C633 C634 1.389 . S
C634 C633 1.389 . S
C634 C635 1.387 . S
C635 H620 0.930 . S
C635 C630 1.390 . S
C635 C634 1.387 . S
H636 C648 0.930 . S
H637 C650 0.930 . S
H638 C651 0.930 . S
H639 C655 0.959 . S
H640 C655 0.959 . S
H641 C655 0.961 . S
H642 C656 0.960 . S
H643 C656 0.961 . S
H644 C656 0.959 . S
H645 C659 0.929 . S
H646 C660 0.931 . S
H647 C662 0.930 . S
C648 H636 0.930 . S
C648 C649 1.399 . S
C648 C653 1.399 . S
C649 C648 1.399 . S
C649 C650 1.376 . S
C650 H637 0.930 . S
C650 C649 1.376 . S
C650 C651 1.388 . S
C651 H638 0.930 . S
C651 C650 1.388 . S
C651 C652 1.390 . S
C652 C651 1.390 . S
C652 C653 1.394 . S
C652 C658 1.465 . S
C653 C648 1.399 . S
C653 C652 1.394 . S
C653 C654 1.516 . S
C654 C653 1.516 . S
C654 C655 1.502 . S
C654 C656 1.561 . S
C654 C657 1.526 . S
C655 H639 0.959 . S
C655 H640 0.959 . S
C655 H641 0.961 . S
C655 C654 1.502 . S
C656 H642 0.960 . S
C656 H643 0.961 . S
C656 H644 0.959 . S
C656 C654 1.561 . S
C657 C654 1.526 . S
C657 C658 1.396 . S
C657 C662 1.390 . S
C658 C652 1.465 . S
C658 C657 1.396 . S
C658 C659 1.399 . S
C659 H645 0.929 . S
C659 C658 1.399 . S
C659 C660 1.385 . S
C660 H646 0.931 . S
C660 C659 1.385 . S
C660 C661 1.389 . S
C661 C660 1.389 . S
C661 C662 1.387 . S
C662 H647 0.930 . S
C662 C657 1.390 . S
C662 C661 1.387 . S
H663 C675 0.930 . S
H664 C677 0.930 . S
H665 C678 0.930 . S
H666 C682 0.959 . S
H667 C682 0.959 . S
H668 C682 0.961 . S
H669 C683 0.960 . S
H670 C683 0.961 . S
H671 C683 0.959 . S
H672 C686 0.929 . S
H673 C687 0.931 . S
H674 C689 0.930 . S
C675 H663 0.930 . S
C675 C676 1.399 . S
C675 C680 1.399 . S
C676 C675 1.399 . S
C676 C677 1.376 . S
C677 H664 0.930 . S
C677 C676 1.376 . S
C677 C678 1.388 . S
C678 H665 0.930 . S
C678 C677 1.388 . S
C678 C679 1.390 . S
C679 C678 1.390 . S
C679 C680 1.394 . S
C679 C685 1.465 . S
C680 C675 1.399 . S
C680 C679 1.394 . S
C680 C681 1.516 . S
C681 C680 1.516 . S
C681 C682 1.502 . S
C681 C683 1.561 . S
C681 C684 1.526 . S
C682 H666 0.959 . S
C682 H667 0.959 . S
C682 H668 0.961 . S
C682 C681 1.502 . S
C683 H669 0.960 . S
C683 H670 0.961 . S
C683 H671 0.959 . S
C683 C681 1.561 . S
C684 C681 1.526 . S
C684 C685 1.396 . S
C684 C689 1.390 . S
C685 C679 1.465 . S
C685 C684 1.396 . S
C685 C686 1.399 . S
C686 H672 0.929 . S
C686 C685 1.399 . S
C686 C687 1.385 . S
C687 H673 0.931 . S
C687 C686 1.385 . S
C687 C688 1.389 . S
C688 C687 1.389 . S
C688 C689 1.387 . S
C689 H674 0.930 . S
C689 C684 1.390 . S
C689 C688 1.387 . S
H690 C702 0.930 . S
H691 C704 0.930 . S
H692 C705 0.930 . S
H693 C709 0.959 . S
H694 C709 0.959 . S
H695 C709 0.961 . S
H696 C710 0.960 . S
H697 C710 0.961 . S
H698 C710 0.959 . S
H699 C713 0.929 . S
H700 C714 0.931 . S
H701 C716 0.930 . S
C702 H690 0.930 . S
C702 C703 1.399 . S
C702 C707 1.399 . S
C703 C702 1.399 . S
C703 C704 1.376 . S
C704 H691 0.930 . S
C704 C703 1.376 . S
C704 C705 1.388 . S
C705 H692 0.930 . S
C705 C704 1.388 . S
C705 C706 1.390 . S
C706 C705 1.390 . S
C706 C707 1.394 . S
C706 C712 1.465 . S
C707 C702 1.399 . S
C707 C706 1.394 . S
C707 C708 1.516 . S
C708 C707 1.516 . S
C708 C709 1.502 . S
C708 C710 1.561 . S
C708 C711 1.526 . S
C709 H693 0.959 . S
C709 H694 0.959 . S
C709 H695 0.961 . S
C709 C708 1.502 . S
C710 H696 0.960 . S
C710 H697 0.961 . S
C710 H698 0.959 . S
C710 C708 1.561 . S
C711 C708 1.526 . S
C711 C712 1.396 . S
C711 C716 1.390 . S
C712 C706 1.465 . S
C712 C711 1.396 . S
C712 C713 1.399 . S
C713 H699 0.929 . S
C713 C712 1.399 . S
C713 C714 1.385 . S
C714 H700 0.931 . S
C714 C713 1.385 . S
C714 C715 1.389 . S
C715 C714 1.389 . S
C715 C716 1.387 . S
C716 H701 0.930 . S
C716 C711 1.390 . S
C716 C715 1.387 . S
H717 C729 0.930 . S
H718 C731 0.930 . S
H719 C732 0.930 . S
H720 C736 0.959 . S
H721 C736 0.959 . S
H722 C736 0.961 . S
H723 C737 0.960 . S
H724 C737 0.961 . S
H725 C737 0.959 . S
H726 C740 0.929 . S
H727 C741 0.931 . S
H728 C743 0.930 . S
C729 H717 0.930 . S
C729 C730 1.399 . S
C729 C734 1.399 . S
C730 C729 1.399 . S
C730 C731 1.376 . S
C731 H718 0.930 . S
C731 C730 1.376 . S
C731 C732 1.388 . S
C732 H719 0.930 . S
C732 C731 1.388 . S
C732 C733 1.390 . S
C733 C732 1.390 . S
C733 C734 1.394 . S
C733 C739 1.465 . S
C734 C729 1.399 . S
C734 C733 1.394 . S
C734 C735 1.516 . S
C735 C734 1.516 . S
C735 C736 1.502 . S
C735 C737 1.561 . S
C735 C738 1.526 . S
C736 H720 0.959 . S
C736 H721 0.959 . S
C736 H722 0.961 . S
C736 C735 1.502 . S
C737 H723 0.960 . S
C737 H724 0.961 . S
C737 H725 0.959 . S
C737 C735 1.561 . S
C738 C735 1.526 . S
C738 C739 1.396 . S
C738 C743 1.390 . S
C739 C733 1.465 . S
C739 C738 1.396 . S
C739 C740 1.399 . S
C740 H726 0.929 . S
C740 C739 1.399 . S
C740 C741 1.385 . S
C741 H727 0.931 . S
C741 C740 1.385 . S
C741 C742 1.389 . S
C742 C741 1.389 . S
C742 C743 1.387 . S
C743 H728 0.930 . S
C743 C738 1.390 . S
C743 C742 1.387 . S
H744 C756 0.930 . S
H745 C758 0.930 . S
H746 C759 0.930 . S
H747 C763 0.959 . S
H748 C763 0.959 . S
H749 C763 0.961 . S
H750 C764 0.960 . S
H751 C764 0.961 . S
H752 C764 0.959 . S
H753 C767 0.929 . S
H754 C768 0.931 . S
H755 C770 0.930 . S
C756 H744 0.930 . S
C756 C757 1.399 . S
C756 C761 1.399 . S
C757 C756 1.399 . S
C757 C758 1.376 . S
C758 H745 0.930 . S
C758 C757 1.376 . S
C758 C759 1.388 . S
C759 H746 0.930 . S
C759 C758 1.388 . S
C759 C760 1.390 . S
C760 C759 1.390 . S
C760 C761 1.394 . S
C760 C766 1.465 . S
C761 C756 1.399 . S
C761 C760 1.394 . S
C761 C762 1.516 . S
C762 C761 1.516 . S
C762 C763 1.502 . S
C762 C764 1.561 . S
C762 C765 1.526 . S
C763 H747 0.959 . S
C763 H748 0.959 . S
C763 H749 0.961 . S
C763 C762 1.502 . S
C764 H750 0.960 . S
C764 H751 0.961 . S
C764 H752 0.959 . S
C764 C762 1.561 . S
C765 C762 1.526 . S
C765 C766 1.396 . S
C765 C770 1.390 . S
C766 C760 1.465 . S
C766 C765 1.396 . S
C766 C767 1.399 . S
C767 H753 0.929 . S
C767 C766 1.399 . S
C767 C768 1.385 . S
C768 H754 0.931 . S
C768 C767 1.385 . S
C768 C769 1.389 . S
C769 C768 1.389 . S
C769 C770 1.387 . S
C770 H755 0.930 . S
C770 C765 1.390 . S
C770 C769 1.387 . S
H771 C783 0.930 . S
H772 C785 0.930 . S
H773 C786 0.930 . S
H774 C790 0.959 . S
H775 C790 0.959 . S
H776 C790 0.961 . S
H777 C791 0.960 . S
H778 C791 0.961 . S
H779 C791 0.959 . S
H780 C794 0.929 . S
H781 C795 0.931 . S
H782 C797 0.930 . S
C783 H771 0.930 . S
C783 C784 1.399 . S
C783 C788 1.399 . S
C784 C783 1.399 . S
C784 C785 1.376 . S
C785 H772 0.930 . S
C785 C784 1.376 . S
C785 C786 1.388 . S
C786 H773 0.930 . S
C786 C785 1.388 . S
C786 C787 1.390 . S
C787 C786 1.390 . S
C787 C788 1.394 . S
C787 C793 1.465 . S
C788 C783 1.399 . S
C788 C787 1.394 . S
C788 C789 1.516 . S
C789 C788 1.516 . S
C789 C790 1.502 . S
C789 C791 1.561 . S
C789 C792 1.526 . S
C790 H774 0.959 . S
C790 H775 0.959 . S
C790 H776 0.961 . S
C790 C789 1.502 . S
C791 H777 0.960 . S
C791 H778 0.961 . S
C791 H779 0.959 . S
C791 C789 1.561 . S
C792 C789 1.526 . S
C792 C793 1.396 . S
C792 C797 1.390 . S
C793 C787 1.465 . S
C793 C792 1.396 . S
C793 C794 1.399 . S
C794 H780 0.929 . S
C794 C793 1.399 . S
C794 C795 1.385 . S
C795 H781 0.931 . S
C795 C794 1.385 . S
C795 C796 1.389 . S
C796 C795 1.389 . S
C796 C797 1.387 . S
C797 H782 0.930 . S
C797 C792 1.390 . S
C797 C796 1.387 . S
H798 C810 0.930 . S
H799 C812 0.930 . S
H800 C813 0.930 . S
H801 C817 0.959 . S
H802 C817 0.959 . S
H803 C817 0.961 . S
H804 C818 0.960 . S
H805 C818 0.961 . S
H806 C818 0.959 . S
H807 C821 0.929 . S
H808 C822 0.931 . S
H809 C824 0.930 . S
C810 H798 0.930 . S
C810 C811 1.399 . S
C810 C815 1.399 . S
C811 C810 1.399 . S
C811 C812 1.376 . S
C812 H799 0.930 . S
C812 C811 1.376 . S
C812 C813 1.388 . S
C813 H800 0.930 . S
C813 C812 1.388 . S
C813 C814 1.390 . S
C814 C813 1.390 . S
C814 C815 1.394 . S
C814 C820 1.465 . S
C815 C810 1.399 . S
C815 C814 1.394 . S
C815 C816 1.516 . S
C816 C815 1.516 . S
C816 C817 1.502 . S
C816 C818 1.561 . S
C816 C819 1.526 . S
C817 H801 0.959 . S
C817 H802 0.959 . S
C817 H803 0.961 . S
C817 C816 1.502 . S
C818 H804 0.960 . S
C818 H805 0.961 . S
C818 H806 0.959 . S
C818 C816 1.561 . S
C819 C816 1.526 . S
C819 C820 1.396 . S
C819 C824 1.390 . S
C820 C814 1.465 . S
C820 C819 1.396 . S
C820 C821 1.399 . S
C821 H807 0.929 . S
C821 C820 1.399 . S
C821 C822 1.385 . S
C822 H808 0.931 . S
C822 C821 1.385 . S
C822 C823 1.389 . S
C823 C822 1.389 . S
C823 C824 1.387 . S
C824 H809 0.930 . S
C824 C819 1.390 . S
C824 C823 1.387 . S
H825 C837 0.930 . S
H826 C839 0.930 . S
H827 C840 0.930 . S
H828 C844 0.959 . S
H829 C844 0.959 . S
H830 C844 0.961 . S
H831 C845 0.960 . S
H832 C845 0.961 . S
H833 C845 0.959 . S
H834 C848 0.929 . S
H835 C849 0.931 . S
H836 C851 0.930 . S
C837 H825 0.930 . S
C837 C838 1.399 . S
C837 C842 1.399 . S
C838 C837 1.399 . S
C838 C839 1.376 . S
C839 H826 0.930 . S
C839 C838 1.376 . S
C839 C840 1.388 . S
C840 H827 0.930 . S
C840 C839 1.388 . S
C840 C841 1.390 . S
C841 C840 1.390 . S
C841 C842 1.394 . S
C841 C847 1.465 . S
C842 C837 1.399 . S
C842 C841 1.394 . S
C842 C843 1.516 . S
C843 C842 1.516 . S
C843 C844 1.502 . S
C843 C845 1.561 . S
C843 C846 1.526 . S
C844 H828 0.959 . S
C844 H829 0.959 . S
C844 H830 0.961 . S
C844 C843 1.502 . S
C845 H831 0.960 . S
C845 H832 0.961 . S
C845 H833 0.959 . S
C845 C843 1.561 . S
C846 C843 1.526 . S
C846 C847 1.396 . S
C846 C851 1.390 . S
C847 C841 1.465 . S
C847 C846 1.396 . S
C847 C848 1.399 . S
C848 H834 0.929 . S
C848 C847 1.399 . S
C848 C849 1.385 . S
C849 H835 0.931 . S
C849 C848 1.385 . S
C849 C850 1.389 . S
C850 C849 1.389 . S
C850 C851 1.387 . S
C851 H836 0.930 . S
C851 C846 1.390 . S
C851 C850 1.387 . S
H852 C864 0.930 . S
H853 C866 0.930 . S
H854 C867 0.930 . S
H855 C871 0.959 . S
H856 C871 0.959 . S
H857 C871 0.961 . S
H858 C872 0.960 . S
H859 C872 0.961 . S
H860 C872 0.959 . S
H861 C875 0.929 . S
H862 C876 0.931 . S
H863 C878 0.930 . S
C864 H852 0.930 . S
C864 C865 1.399 . S
C864 C869 1.399 . S
C865 C864 1.399 . S
C865 C866 1.376 . S
C866 H853 0.930 . S
C866 C865 1.376 . S
C866 C867 1.388 . S
C867 H854 0.930 . S
C867 C866 1.388 . S
C867 C868 1.390 . S
C868 C867 1.390 . S
C868 C869 1.394 . S
C868 C874 1.465 . S
C869 C864 1.399 . S
C869 C868 1.394 . S
C869 C870 1.516 . S
C870 C869 1.516 . S
C870 C871 1.502 . S
C870 C872 1.561 . S
C870 C873 1.526 . S
C871 H855 0.959 . S
C871 H856 0.959 . S
C871 H857 0.961 . S
C871 C870 1.502 . S
C872 H858 0.960 . S
C872 H859 0.961 . S
C872 H860 0.959 . S
C872 C870 1.561 . S
C873 C870 1.526 . S
C873 C874 1.396 . S
C873 C878 1.390 . S
C874 C868 1.465 . S
C874 C873 1.396 . S
C874 C875 1.399 . S
C875 H861 0.929 . S
C875 C874 1.399 . S
C875 C876 1.385 . S
C876 H862 0.931 . S
C876 C875 1.385 . S
C876 C877 1.389 . S
C877 C876 1.389 . S
C877 C878 1.387 . S
C878 H863 0.930 . S
C878 C873 1.390 . S
C878 C877 1.387 . S
H879 C891 0.930 . S
H880 C893 0.930 . S
H881 C894 0.930 . S
H882 C898 0.959 . S
H883 C898 0.959 . S
H884 C898 0.961 . S
H885 C899 0.960 . S
H886 C899 0.961 . S
H887 C899 0.959 . S
H888 C902 0.929 . S
H889 C903 0.931 . S
H890 C905 0.930 . S
C891 H879 0.930 . S
C891 C892 1.399 . S
C891 C896 1.399 . S
C892 C891 1.399 . S
C892 C893 1.376 . S
C893 H880 0.930 . S
C893 C892 1.376 . S
C893 C894 1.388 . S
C894 H881 0.930 . S
C894 C893 1.388 . S
C894 C895 1.390 . S
C895 C894 1.390 . S
C895 C896 1.394 . S
C895 C901 1.465 . S
C896 C891 1.399 . S
C896 C895 1.394 . S
C896 C897 1.516 . S
C897 C896 1.516 . S
C897 C898 1.502 . S
C897 C899 1.561 . S
C897 C900 1.526 . S
C898 H882 0.959 . S
C898 H883 0.959 . S
C898 H884 0.961 . S
C898 C897 1.502 . S
C899 H885 0.960 . S
C899 H886 0.961 . S
C899 H887 0.959 . S
C899 C897 1.561 . S
C900 C897 1.526 . S
C900 C901 1.396 . S
C900 C905 1.390 . S
C901 C895 1.465 . S
C901 C900 1.396 . S
C901 C902 1.399 . S
C902 H888 0.929 . S
C902 C901 1.399 . S
C902 C903 1.385 . S
C903 H889 0.931 . S
C903 C902 1.385 . S
C903 C904 1.389 . S
C904 C903 1.389 . S
C904 C905 1.387 . S
C905 H890 0.930 . S
C905 C900 1.390 . S
C905 C904 1.387 . S
H906 C918 0.930 . S
H907 C920 0.930 . S
H908 C921 0.930 . S
H909 C925 0.959 . S
H910 C925 0.959 . S
H911 C925 0.961 . S
H912 C926 0.960 . S
H913 C926 0.961 . S
H914 C926 0.959 . S
H915 C929 0.929 . S
H916 C930 0.931 . S
H917 C932 0.930 . S
C918 H906 0.930 . S
C918 C919 1.399 . S
C918 C923 1.399 . S
C919 C918 1.399 . S
C919 C920 1.376 . S
C920 H907 0.930 . S
C920 C919 1.376 . S
C920 C921 1.388 . S
C921 H908 0.930 . S
C921 C920 1.388 . S
C921 C922 1.390 . S
C922 C921 1.390 . S
C922 C923 1.394 . S
C922 C928 1.465 . S
C923 C918 1.399 . S
C923 C922 1.394 . S
C923 C924 1.516 . S
C924 C923 1.516 . S
C924 C925 1.502 . S
C924 C926 1.561 . S
C924 C927 1.526 . S
C925 H909 0.959 . S
C925 H910 0.959 . S
C925 H911 0.961 . S
C925 C924 1.502 . S
C926 H912 0.960 . S
C926 H913 0.961 . S
C926 H914 0.959 . S
C926 C924 1.561 . S
C927 C924 1.526 . S
C927 C928 1.396 . S
C927 C932 1.390 . S
C928 C922 1.465 . S
C928 C927 1.396 . S
C928 C929 1.399 . S
C929 H915 0.929 . S
C929 C928 1.399 . S
C929 C930 1.385 . S
C930 H916 0.931 . S
C930 C929 1.385 . S
C930 C931 1.389 . S
C931 C930 1.389 . S
C931 C932 1.387 . S
C932 H917 0.930 . S
C932 C927 1.390 . S
C932 C931 1.387 . S
H933 C945 0.930 . S
H934 C947 0.930 . S
H935 C948 0.930 . S
H936 C952 0.959 . S
H937 C952 0.959 . S
H938 C952 0.961 . S
H939 C953 0.960 . S
H940 C953 0.961 . S
H941 C953 0.959 . S
H942 C956 0.929 . S
H943 C957 0.931 . S
H944 C959 0.930 . S
C945 H933 0.930 . S
C945 C946 1.399 . S
C945 C950 1.399 . S
C946 C945 1.399 . S
C946 C947 1.376 . S
C947 H934 0.930 . S
C947 C946 1.376 . S
C947 C948 1.388 . S
C948 H935 0.930 . S
C948 C947 1.388 . S
C948 C949 1.390 . S
C949 C948 1.390 . S
C949 C950 1.394 . S
C949 C955 1.465 . S
C950 C945 1.399 . S
C950 C949 1.394 . S
C950 C951 1.516 . S
C951 C950 1.516 . S
C951 C952 1.502 . S
C951 C953 1.561 . S
C951 C954 1.526 . S
C952 H936 0.959 . S
C952 H937 0.959 . S
C952 H938 0.961 . S
C952 C951 1.502 . S
C953 H939 0.960 . S
C953 H940 0.961 . S
C953 H941 0.959 . S
C953 C951 1.561 . S
C954 C951 1.526 . S
C954 C955 1.396 . S
C954 C959 1.390 . S
C955 C949 1.465 . S
C955 C954 1.396 . S
C955 C956 1.399 . S
C956 H942 0.929 . S
C956 C955 1.399 . S
C956 C957 1.385 . S
C957 H943 0.931 . S
C957 C956 1.385 . S
C957 C958 1.389 . S
C958 C957 1.389 . S
C958 C959 1.387 . S
C959 H944 0.930 . S
C959 C954 1.390 . S
C959 C958 1.387 . S
H960 C972 0.930 . S
H961 C974 0.930 . S
H962 C975 0.930 . S
H963 C979 0.959 . S
H964 C979 0.959 . S
H965 C979 0.961 . S
H966 C980 0.960 . S
H967 C980 0.961 . S
H968 C980 0.959 . S
H969 C983 0.929 . S
H970 C984 0.931 . S
H971 C986 0.930 . S
C972 H960 0.930 . S
C972 C973 1.399 . S
C972 C977 1.399 . S
C973 C972 1.399 . S
C973 C974 1.376 . S
C974 H961 0.930 . S
C974 C973 1.376 . S
C974 C975 1.388 . S
C975 H962 0.930 . S
C975 C974 1.388 . S
C975 C976 1.390 . S
C976 C975 1.390 . S
C976 C977 1.394 . S
C976 C982 1.465 . S
C977 C972 1.399 . S
C977 C976 1.394 . S
C977 C978 1.516 . S
C978 C977 1.516 . S
C978 C979 1.502 . S
C978 C980 1.561 . S
C978 C981 1.526 . S
C979 H963 0.959 . S
C979 H964 0.959 . S
C979 H965 0.961 . S
C979 C978 1.502 . S
C980 H966 0.960 . S
C980 H967 0.961 . S
C980 H968 0.959 . S
C980 C978 1.561 . S
C981 C978 1.526 . S
C981 C982 1.396 . S
C981 C986 1.390 . S
C982 C976 1.465 . S
C982 C981 1.396 . S
C982 C983 1.399 . S
C983 H969 0.929 . S
C983 C982 1.399 . S
C983 C984 1.385 . S
C984 H970 0.931 . S
C984 C983 1.385 . S
C984 C985 1.389 . S
C985 C984 1.389 . S
C985 C986 1.387 . S
C986 H971 0.930 . S
C986 C981 1.390 . S
C986 C985 1.387 . S
H987 C999 0.930 . S
H988 C1001 0.930 . S
H989 C1002 0.930 . S
H990 C1006 0.959 . S
H991 C1006 0.959 . S
H992 C1006 0.961 . S
H993 C1007 0.960 . S
H994 C1007 0.961 . S
H995 C1007 0.959 . S
H996 C1010 0.929 . S
H997 C1011 0.931 . S
H998 C1013 0.930 . S
C999 H987 0.930 . S
C999 C1000 1.399 . S
C999 C1004 1.399 . S
C1000 C999 1.399 . S
C1000 C1001 1.376 . S
C1001 H988 0.930 . S
C1001 C1000 1.376 . S
C1001 C1002 1.388 . S
C1002 H989 0.930 . S
C1002 C1001 1.388 . S
C1002 C1003 1.390 . S
C1003 C1002 1.390 . S
C1003 C1004 1.394 . S
C1003 C1009 1.465 . S
C1004 C999 1.399 . S
C1004 C1003 1.394 . S
C1004 C1005 1.516 . S
C1005 C1004 1.516 . S
C1005 C1006 1.502 . S
C1005 C1007 1.561 . S
C1005 C1008 1.526 . S
C1006 H990 0.959 . S
C1006 H991 0.959 . S
C1006 H992 0.961 . S
C1006 C1005 1.502 . S
C1007 H993 0.960 . S
C1007 H994 0.961 . S
C1007 H995 0.959 . S
C1007 C1005 1.561 . S
C1008 C1005 1.526 . S
C1008 C1009 1.396 . S
C1008 C1013 1.390 . S
C1009 C1003 1.465 . S
C1009 C1008 1.396 . S
C1009 C1010 1.399 . S
C1010 H996 0.929 . S
C1010 C1009 1.399 . S
C1010 C1011 1.385 . S
C1011 H997 0.931 . S
C1011 C1010 1.385 . S
C1011 C1012 1.389 . S
C1012 C1011 1.389 . S
C1012 C1013 1.387 . S
C1013 H998 0.930 . S
C1013 C1008 1.390 . S
C1013 C1012 1.387 . S
H1014 C1026 0.930 . S
H1015 C1028 0.930 . S
H1016 C1029 0.930 . S
H1017 C1033 0.959 . S
H1018 C1033 0.959 . S
H1019 C1033 0.961 . S
H1020 C1034 0.960 . S
H1021 C1034 0.961 . S
H1022 C1034 0.959 . S
H1023 C1037 0.929 . S
H1024 C1038 0.931 . S
H1025 C1040 0.930 . S
C1026 H1014 0.930 . S
C1026 C1027 1.399 . S
C1026 C1031 1.399 . S
C1027 C1026 1.399 . S
C1027 C1028 1.376 . S
C1028 H1015 0.930 . S
C1028 C1027 1.376 . S
C1028 C1029 1.388 . S
C1029 H1016 0.930 . S
C1029 C1028 1.388 . S
C1029 C1030 1.390 . S
C1030 C1029 1.390 . S
C1030 C1031 1.394 . S
C1030 C1036 1.465 . S
C1031 C1026 1.399 . S
C1031 C1030 1.394 . S
C1031 C1032 1.516 . S
C1032 C1031 1.516 . S
C1032 C1033 1.502 . S
C1032 C1034 1.561 . S
C1032 C1035 1.526 . S
C1033 H1017 0.959 . S
C1033 H1018 0.959 . S
C1033 H1019 0.961 . S
C1033 C1032 1.502 . S
C1034 H1020 0.960 . S
C1034 H1021 0.961 . S
C1034 H1022 0.959 . S
C1034 C1032 1.561 . S
C1035 C1032 1.526 . S
C1035 C1036 1.396 . S
C1035 C1040 1.390 . S
C1036 C1030 1.465 . S
C1036 C1035 1.396 . S
C1036 C1037 1.399 . S
C1037 H1023 0.929 . S
C1037 C1036 1.399 . S
C1037 C1038 1.385 . S
C1038 H1024 0.931 . S
C1038 C1037 1.385 . S
C1038 C1039 1.389 . S
C1039 C1038 1.389 . S
C1039 C1040 1.387 . S
C1040 H1025 0.930 . S
C1040 C1035 1.390 . S
C1040 C1039 1.387 . S
H1041 C1053 0.930 . S
H1042 C1055 0.930 . S
H1043 C1056 0.930 . S
H1044 C1060 0.959 . S
H1045 C1060 0.959 . S
H1046 C1060 0.961 . S
H1047 C1061 0.960 . S
H1048 C1061 0.961 . S
H1049 C1061 0.959 . S
H1050 C1064 0.929 . S
H1051 C1065 0.931 . S
H1052 C1067 0.930 . S
C1053 H1041 0.930 . S
C1053 C1054 1.399 . S
C1053 C1058 1.399 . S
C1054 C1053 1.399 . S
C1054 C1055 1.376 . S
C1055 H1042 0.930 . S
C1055 C1054 1.376 . S
C1055 C1056 1.388 . S
C1056 H1043 0.930 . S
C1056 C1055 1.388 . S
C1056 C1057 1.390 . S
C1057 C1056 1.390 . S
C1057 C1058 1.394 . S
C1057 C1063 1.465 . S
C1058 C1053 1.399 . S
C1058 C1057 1.394 . S
C1058 C1059 1.516 . S
C1059 C1058 1.516 . S
C1059 C1060 1.502 . S
C1059 C1061 1.561 . S
C1059 C1062 1.526 . S
C1060 H1044 0.959 . S
C1060 H1045 0.959 . S
C1060 H1046 0.961 . S
C1060 C1059 1.502 . S
C1061 H1047 0.960 . S
C1061 H1048 0.961 . S
C1061 H1049 0.959 . S
C1061 C1059 1.561 . S
C1062 C1059 1.526 . S
C1062 C1063 1.396 . S
C1062 C1067 1.390 . S
C1063 C1057 1.465 . S
C1063 C1062 1.396 . S
C1063 C1064 1.399 . S
C1064 H1050 0.929 . S
C1064 C1063 1.399 . S
C1064 C1065 1.385 . S
C1065 H1051 0.931 . S
C1065 C1064 1.385 . S
C1065 C1066 1.389 . S
C1066 C1065 1.389 . S
C1066 C1067 1.387 . S
C1067 H1052 0.930 . S
C1067 C1062 1.390 . S
C1067 C1066 1.387 . S
H1068 C1080 0.930 . S
H1069 C1082 0.930 . S
H1070 C1083 0.930 . S
H1071 C1087 0.959 . S
H1072 C1087 0.959 . S
H1073 C1087 0.961 . S
H1074 C1088 0.960 . S
H1075 C1088 0.961 . S
H1076 C1088 0.959 . S
H1077 C1091 0.929 . S
H1078 C1092 0.931 . S
H1079 C1094 0.930 . S
C1080 H1068 0.930 . S
C1080 C1081 1.399 . S
C1080 C1085 1.399 . S
C1081 C1080 1.399 . S
C1081 C1082 1.376 . S
C1082 H1069 0.930 . S
C1082 C1081 1.376 . S
C1082 C1083 1.388 . S
C1083 H1070 0.930 . S
C1083 C1082 1.388 . S
C1083 C1084 1.390 . S
C1084 C1083 1.390 . S
C1084 C1085 1.394 . S
C1084 C1090 1.465 . S
C1085 C1080 1.399 . S
C1085 C1084 1.394 . S
C1085 C1086 1.516 . S
C1086 C1085 1.516 . S
C1086 C1087 1.502 . S
C1086 C1088 1.561 . S
C1086 C1089 1.526 . S
C1087 H1071 0.959 . S
C1087 H1072 0.959 . S
C1087 H1073 0.961 . S
C1087 C1086 1.502 . S
C1088 H1074 0.960 . S
C1088 H1075 0.961 . S
C1088 H1076 0.959 . S
C1088 C1086 1.561 . S
C1089 C1086 1.526 . S
C1089 C1090 1.396 . S
C1089 C1094 1.390 . S
C1090 C1084 1.465 . S
C1090 C1089 1.396 . S
C1090 C1091 1.399 . S
C1091 H1077 0.929 . S
C1091 C1090 1.399 . S
C1091 C1092 1.385 . S
C1092 H1078 0.931 . S
C1092 C1091 1.385 . S
C1092 C1093 1.389 . S
C1093 C1092 1.389 . S
C1093 C1094 1.387 . S
C1094 H1079 0.930 . S
C1094 C1089 1.390 . S
C1094 C1093 1.387 . S
H1095 C1107 0.930 . S
H1096 C1109 0.930 . S
H1097 C1110 0.930 . S
H1098 C1114 0.959 . S
H1099 C1114 0.959 . S
H1100 C1114 0.961 . S
H1101 C1115 0.960 . S
H1102 C1115 0.961 . S
H1103 C1115 0.959 . S
H1104 C1118 0.929 . S
H1105 C1119 0.931 . S
H1106 C1121 0.930 . S
C1107 H1095 0.930 . S
C1107 C1108 1.399 . S
C1107 C1112 1.399 . S
C1108 C1107 1.399 . S
C1108 C1109 1.376 . S
C1109 H1096 0.930 . S
C1109 C1108 1.376 . S
C1109 C1110 1.388 . S
C1110 H1097 0.930 . S
C1110 C1109 1.388 . S
C1110 C1111 1.390 . S
C1111 C1110 1.390 . S
C1111 C1112 1.394 . S
C1111 C1117 1.465 . S
C1112 C1107 1.399 . S
C1112 C1111 1.394 . S
C1112 C1113 1.516 . S
C1113 C1112 1.516 . S
C1113 C1114 1.502 . S
C1113 C1115 1.561 . S
C1113 C1116 1.526 . S
C1114 H1098 0.959 . S
C1114 H1099 0.959 . S
C1114 H1100 0.961 . S
C1114 C1113 1.502 . S
C1115 H1101 0.960 . S
C1115 H1102 0.961 . S
C1115 H1103 0.959 . S
C1115 C1113 1.561 . S
C1116 C1113 1.526 . S
C1116 C1117 1.396 . S
C1116 C1121 1.390 . S
C1117 C1111 1.465 . S
C1117 C1116 1.396 . S
C1117 C1118 1.399 . S
C1118 H1104 0.929 . S
C1118 C1117 1.399 . S
C1118 C1119 1.385 . S
C1119 H1105 0.931 . S
C1119 C1118 1.385 . S
C1119 C1120 1.389 . S
C1120 C1119 1.389 . S
C1120 C1121 1.387 . S
C1121 H1106 0.930 . S
C1121 C1116 1.390 . S
C1121 C1120 1.387 . S
H1122 C1134 0.930 . S
H1123 C1136 0.930 . S
H1124 C1137 0.930 . S
H1125 C1141 0.959 . S
H1126 C1141 0.959 . S
H1127 C1141 0.961 . S
H1128 C1142 0.960 . S
H1129 C1142 0.961 . S
H1130 C1142 0.959 . S
H1131 C1145 0.929 . S
H1132 C1146 0.931 . S
H1133 C1148 0.930 . S
C1134 H1122 0.930 . S
C1134 C1135 1.399 . S
C1134 C1139 1.399 . S
C1135 C1134 1.399 . S
C1135 C1136 1.376 . S
C1136 H1123 0.930 . S
C1136 C1135 1.376 . S
C1136 C1137 1.388 . S
C1137 H1124 0.930 . S
C1137 C1136 1.388 . S
C1137 C1138 1.390 . S
C1138 C1137 1.390 . S
C1138 C1139 1.394 . S
C1138 C1144 1.465 . S
C1139 C1134 1.399 . S
C1139 C1138 1.394 . S
C1139 C1140 1.516 . S
C1140 C1139 1.516 . S
C1140 C1141 1.502 . S
C1140 C1142 1.561 . S
C1140 C1143 1.526 . S
C1141 H1125 0.959 . S
C1141 H1126 0.959 . S
C1141 H1127 0.961 . S
C1141 C1140 1.502 . S
C1142 H1128 0.960 . S
C1142 H1129 0.961 . S
C1142 H1130 0.959 . S
C1142 C1140 1.561 . S
C1143 C1140 1.526 . S
C1143 C1144 1.396 . S
C1143 C1148 1.390 . S
C1144 C1138 1.465 . S
C1144 C1143 1.396 . S
C1144 C1145 1.399 . S
C1145 H1131 0.929 . S
C1145 C1144 1.399 . S
C1145 C1146 1.385 . S
C1146 H1132 0.931 . S
C1146 C1145 1.385 . S
C1146 C1147 1.389 . S
C1147 C1146 1.389 . S
C1147 C1148 1.387 . S
C1148 H1133 0.930 . S
C1148 C1143 1.390 . S
C1148 C1147 1.387 . S
H1149 C1161 0.930 . S
H1150 C1163 0.930 . S
H1151 C1164 0.930 . S
H1152 C1168 0.959 . S
H1153 C1168 0.959 . S
H1154 C1168 0.961 . S
H1155 C1169 0.960 . S
H1156 C1169 0.961 . S
H1157 C1169 0.959 . S
H1158 C1172 0.929 . S
H1159 C1173 0.931 . S
H1160 C1175 0.930 . S
C1161 H1149 0.930 . S
C1161 C1162 1.399 . S
C1161 C1166 1.399 . S
C1162 C1161 1.399 . S
C1162 C1163 1.376 . S
C1163 H1150 0.930 . S
C1163 C1162 1.376 . S
C1163 C1164 1.388 . S
C1164 H1151 0.930 . S
C1164 C1163 1.388 . S
C1164 C1165 1.390 . S
C1165 C1164 1.390 . S
C1165 C1166 1.394 . S
C1165 C1171 1.465 . S
C1166 C1161 1.399 . S
C1166 C1165 1.394 . S
C1166 C1167 1.516 . S
C1167 C1166 1.516 . S
C1167 C1168 1.502 . S
C1167 C1169 1.561 . S
C1167 C1170 1.526 . S
C1168 H1152 0.959 . S
C1168 H1153 0.959 . S
C1168 H1154 0.961 . S
C1168 C1167 1.502 . S
C1169 H1155 0.960 . S
C1169 H1156 0.961 . S
C1169 H1157 0.959 . S
C1169 C1167 1.561 . S
C1170 C1167 1.526 . S
C1170 C1171 1.396 . S
C1170 C1175 1.390 . S
C1171 C1165 1.465 . S
C1171 C1170 1.396 . S
C1171 C1172 1.399 . S
C1172 H1158 0.929 . S
C1172 C1171 1.399 . S
C1172 C1173 1.385 . S
C1173 H1159 0.931 . S
C1173 C1172 1.385 . S
C1173 C1174 1.389 . S
C1174 C1173 1.389 . S
C1174 C1175 1.387 . S
C1175 H1160 0.930 . S
C1175 C1170 1.390 . S
C1175 C1174 1.387 . S
H1176 C1188 0.930 . S
H1177 C1190 0.930 . S
H1178 C1191 0.930 . S
H1179 C1195 0.959 . S
H1180 C1195 0.959 . S
H1181 C1195 0.961 . S
H1182 C1196 0.960 . S
H1183 C1196 0.961 . S
H1184 C1196 0.959 . S
H1185 C1199 0.929 . S
H1186 C1200 0.931 . S
H1187 C1202 0.930 . S
C1188 H1176 0.930 . S
C1188 C1189 1.399 . S
C1188 C1193 1.399 . S
C1189 C1188 1.399 . S
C1189 C1190 1.376 . S
C1190 H1177 0.930 . S
C1190 C1189 1.376 . S
C1190 C1191 1.388 . S
C1191 H1178 0.930 . S
C1191 C1190 1.388 . S
C1191 C1192 1.390 . S
C1192 C1191 1.390 . S
C1192 C1193 1.394 . S
C1192 C1198 1.465 . S
C1193 C1188 1.399 . S
C1193 C1192 1.394 . S
C1193 C1194 1.516 . S
C1194 C1193 1.516 . S
C1194 C1195 1.502 . S
C1194 C1196 1.561 . S
C1194 C1197 1.526 . S
C1195 H1179 0.959 . S
C1195 H1180 0.959 . S
C1195 H1181 0.961 . S
C1195 C1194 1.502 . S
C1196 H1182 0.960 . S
C1196 H1183 0.961 . S
C1196 H1184 0.959 . S
C1196 C1194 1.561 . S
C1197 C1194 1.526 . S
C1197 C1198 1.396 . S
C1197 C1202 1.390 . S
C1198 C1192 1.465 . S
C1198 C1197 1.396 . S
C1198 C1199 1.399 . S
C1199 H1185 0.929 . S
C1199 C1198 1.399 . S
C1199 C1200 1.385 . S
C1200 H1186 0.931 . S
C1200 C1199 1.385 . S
C1200 C1201 1.389 . S
C1201 C1200 1.389 . S
C1201 C1202 1.387 . S
C1202 H1187 0.930 . S
C1202 C1197 1.390 . S
C1202 C1201 1.387 . S
H1203 C1215 0.930 . S
H1204 C1217 0.930 . S
H1205 C1218 0.930 . S
H1206 C1222 0.959 . S
H1207 C1222 0.959 . S
H1208 C1222 0.961 . S
H1209 C1223 0.960 . S
H1210 C1223 0.961 . S
H1211 C1223 0.959 . S
H1212 C1226 0.929 . S
H1213 C1227 0.931 . S
H1214 C1229 0.930 . S
C1215 H1203 0.930 . S
C1215 C1216 1.399 . S
C1215 C1220 1.399 . S
C1216 C1215 1.399 . S
C1216 C1217 1.376 . S
C1217 H1204 0.930 . S
C1217 C1216 1.376 . S
C1217 C1218 1.388 . S
C1218 H1205 0.930 . S
C1218 C1217 1.388 . S
C1218 C1219 1.390 . S
C1219 C1218 1.390 . S
C1219 C1220 1.394 . S
C1219 C1225 1.465 . S
C1220 C1215 1.399 . S
C1220 C1219 1.394 . S
C1220 C1221 1.516 . S
C1221 C1220 1.516 . S
C1221 C1222 1.502 . S
C1221 C1223 1.561 . S
C1221 C1224 1.526 . S
C1222 H1206 0.959 . S
C1222 H1207 0.959 . S
C1222 H1208 0.961 . S
C1222 C1221 1.502 . S
C1223 H1209 0.960 . S
C1223 H1210 0.961 . S
C1223 H1211 0.959 . S
C1223 C1221 1.561 . S
C1224 C1221 1.526 . S
C1224 C1225 1.396 . S
C1224 C1229 1.390 . S
C1225 C1219 1.465 . S
C1225 C1224 1.396 . S
C1225 C1226 1.399 . S
C1226 H1212 0.929 . S
C1226 C1225 1.399 . S
C1226 C1227 1.385 . S
C1227 H1213 0.931 . S
C1227 C1226 1.385 . S
C1227 C1228 1.389 . S
C1228 C1227 1.389 . S
C1228 C1229 1.387 . S
C1229 H1214 0.930 . S
C1229 C1224 1.390 . S
C1229 C1228 1.387 . S
H1230 C1242 0.930 . S
H1231 C1244 0.930 . S
H1232 C1245 0.930 . S
H1233 C1249 0.959 . S
H1234 C1249 0.959 . S
H1235 C1249 0.961 . S
H1236 C1250 0.960 . S
H1237 C1250 0.961 . S
H1238 C1250 0.959 . S
H1239 C1253 0.929 . S
H1240 C1254 0.931 . S
H1241 C1256 0.930 . S
C1242 H1230 0.930 . S
C1242 C1243 1.399 . S
C1242 C1247 1.399 . S
C1243 C1242 1.399 . S
C1243 C1244 1.376 . S
C1244 H1231 0.930 . S
C1244 C1243 1.376 . S
C1244 C1245 1.388 . S
C1245 H1232 0.930 . S
C1245 C1244 1.388 . S
C1245 C1246 1.390 . S
C1246 C1245 1.390 . S
C1246 C1247 1.394 . S
C1246 C1252 1.465 . S
C1247 C1242 1.399 . S
C1247 C1246 1.394 . S
C1247 C1248 1.516 . S
C1248 C1247 1.516 . S
C1248 C1249 1.502 . S
C1248 C1250 1.561 . S
C1248 C1251 1.526 . S
C1249 H1233 0.959 . S
C1249 H1234 0.959 . S
C1249 H1235 0.961 . S
C1249 C1248 1.502 . S
C1250 H1236 0.960 . S
C1250 H1237 0.961 . S
C1250 H1238 0.959 . S
C1250 C1248 1.561 . S
C1251 C1248 1.526 . S
C1251 C1252 1.396 . S
C1251 C1256 1.390 . S
C1252 C1246 1.465 . S
C1252 C1251 1.396 . S
C1252 C1253 1.399 . S
C1253 H1239 0.929 . S
C1253 C1252 1.399 . S
C1253 C1254 1.385 . S
C1254 H1240 0.931 . S
C1254 C1253 1.385 . S
C1254 C1255 1.389 . S
C1255 C1254 1.389 . S
C1255 C1256 1.387 . S
C1256 H1241 0.930 . S
C1256 C1251 1.390 . S
C1256 C1255 1.387 . S
H1257 C1269 0.930 . S
H1258 C1271 0.930 . S
H1259 C1272 0.930 . S
H1260 C1276 0.959 . S
H1261 C1276 0.959 . S
H1262 C1276 0.961 . S
H1263 C1277 0.960 . S
H1264 C1277 0.961 . S
H1265 C1277 0.959 . S
H1266 C1280 0.929 . S
H1267 C1281 0.931 . S
H1268 C1283 0.930 . S
C1269 H1257 0.930 . S
C1269 C1270 1.399 . S
C1269 C1274 1.399 . S
C1270 C1269 1.399 . S
C1270 C1271 1.376 . S
C1271 H1258 0.930 . S
C1271 C1270 1.376 . S
C1271 C1272 1.388 . S
C1272 H1259 0.930 . S
C1272 C1271 1.388 . S
C1272 C1273 1.390 . S
C1273 C1272 1.390 . S
C1273 C1274 1.394 . S
C1273 C1279 1.465 . S
C1274 C1269 1.399 . S
C1274 C1273 1.394 . S
C1274 C1275 1.516 . S
C1275 C1274 1.516 . S
C1275 C1276 1.502 . S
C1275 C1277 1.561 . S
C1275 C1278 1.526 . S
C1276 H1260 0.959 . S
C1276 H1261 0.959 . S
C1276 H1262 0.961 . S
C1276 C1275 1.502 . S
C1277 H1263 0.960 . S
C1277 H1264 0.961 . S
C1277 H1265 0.959 . S
C1277 C1275 1.561 . S
C1278 C1275 1.526 . S
C1278 C1279 1.396 . S
C1278 C1283 1.390 . S
C1279 C1273 1.465 . S
C1279 C1278 1.396 . S
C1279 C1280 1.399 . S
C1280 H1266 0.929 . S
C1280 C1279 1.399 . S
C1280 C1281 1.385 . S
C1281 H1267 0.931 . S
C1281 C1280 1.385 . S
C1281 C1282 1.389 . S
C1282 C1281 1.389 . S
C1282 C1283 1.387 . S
C1283 H1268 0.930 . S
C1283 C1278 1.390 . S
C1283 C1282 1.387 . S
H1284 C1296 0.930 . S
H1285 C1298 0.930 . S
H1286 C1299 0.930 . S
H1287 C1303 0.959 . S
H1288 C1303 0.959 . S
H1289 C1303 0.961 . S
H1290 C1304 0.960 . S
H1291 C1304 0.961 . S
H1292 C1304 0.959 . S
H1293 C1307 0.908 1_556 S
H1294 C1308 0.931 . S
H1295 C1310 0.930 . S
C1296 H1284 0.930 . S
C1296 C1297 1.399 . S
C1296 C1301 1.399 . S
C1297 C1296 1.399 . S
C1297 C1298 1.376 . S
C1298 H1285 0.930 . S
C1298 C1297 1.376 . S
C1298 C1299 1.388 . S
C1299 H1286 0.930 . S
C1299 C1298 1.388 . S
C1299 C1300 1.390 . S
C1300 C1299 1.390 . S
C1300 C1301 1.394 . S
C1300 C1306 1.489 . S
C1301 C1296 1.399 . S
C1301 C1300 1.394 . S
C1301 C1302 1.516 1_556 S
C1302 C1301 1.516 1_554 S
C1302 C1303 1.502 . S
C1302 C1304 1.561 . S
C1302 C1305 1.526 . S
C1303 H1287 0.959 . S
C1303 H1288 0.959 . S
C1303 H1289 0.961 . S
C1303 C1302 1.502 . S
C1304 H1290 0.960 . S
C1304 H1291 0.961 . S
C1304 H1292 0.959 . S
C1304 C1302 1.561 . S
C1305 C1302 1.526 . S
C1305 C1306 1.371 1_554 S
C1305 C1310 1.390 . S
C1306 C1300 1.489 . S
C1306 C1305 1.371 1_556 S
C1306 C1307 1.397 1_556 S
C1307 H1293 0.908 1_554 S
C1307 C1306 1.397 1_554 S
C1307 C1308 1.409 . S
C1308 H1294 0.931 . S
C1308 C1307 1.409 . S
C1308 C1309 1.389 . S
C1309 C1308 1.389 . S
C1309 C1310 1.387 . S
C1310 H1295 0.930 . S
C1310 C1305 1.390 . S
C1310 C1309 1.387 . S
H1311 C1323 0.930 . S
H1312 C1325 0.930 . S
H1313 C1326 0.930 1_556 S
H1314 C1330 0.959 1_556 S
H1315 C1330 0.959 . S
H1316 C1330 0.961 . S
H1317 C1331 0.960 . S
H1318 C1331 0.961 . S
H1319 C1331 0.959 . S
H1320 C1334 0.929 . S
H1321 C1335 0.931 . S
H1322 C1337 0.930 . S
C1323 H1311 0.930 . S
C1323 C1324 1.399 . S
C1323 C1328 1.399 . S
C1324 C1323 1.399 . S
C1324 C1325 1.376 . S
C1325 H1312 0.930 . S
C1325 C1324 1.376 . S
C1325 C1326 1.388 . S
C1326 H1313 0.930 1_554 S
C1326 C1325 1.388 . S
C1326 C1327 1.390 . S
C1327 C1326 1.390 . S
C1327 C1328 1.394 . S
C1327 C1333 1.465 1_554 S
C1328 C1323 1.399 . S
C1328 C1327 1.394 . S
C1328 C1329 1.516 . S
C1329 C1328 1.516 . S
C1329 C1330 1.502 . S
C1329 C1331 1.561 . S
C1329 C1332 1.526 1_554 S
C1330 H1314 0.959 1_554 S
C1330 H1315 0.959 . S
C1330 H1316 0.961 . S
C1330 C1329 1.502 . S
C1331 H1317 0.960 . S
C1331 H1318 0.961 . S
C1331 H1319 0.959 . S
C1331 C1329 1.561 . S
C1332 C1329 1.526 1_556 S
C1332 C1333 1.396 . S
C1332 C1337 1.390 . S
C1333 C1327 1.465 1_556 S
C1333 C1332 1.396 . S
C1333 C1334 1.399 . S
C1334 H1320 0.929 . S
C1334 C1333 1.399 . S
C1334 C1335 1.385 . S
C1335 H1321 0.931 . S
C1335 C1334 1.385 . S
C1335 C1336 1.389 . S
C1336 C1335 1.389 . S
C1336 C1337 1.387 . S
C1337 H1322 0.930 . S
C1337 C1332 1.390 . S
C1337 C1336 1.387 . S
H1338 C1350 0.930 . S
H1339 C1352 0.930 . S
H1340 C1353 0.930 1_554 S
H1341 C1357 0.959 . S
H1342 C1357 0.959 . S
H1343 C1357 0.961 . S
H1344 C1358 0.960 . S
H1345 C1358 0.961 . S
H1346 C1358 0.959 . S
H1347 C1361 0.929 . S
H1348 C1362 0.931 . S
H1349 C1364 0.930 . S
C1350 H1338 0.930 . S
C1350 C1351 1.399 . S
C1350 C1355 1.399 . S
C1351 C1350 1.399 . S
C1351 C1352 1.376 . S
C1352 H1339 0.930 . S
C1352 C1351 1.376 . S
C1352 C1353 1.388 . S
C1353 H1340 0.930 1_556 S
C1353 C1352 1.388 . S
C1353 C1354 1.390 . S
C1354 C1353 1.390 . S
C1354 C1355 1.394 . S
C1354 C1360 1.465 1_556 S
C1355 C1350 1.399 . S
C1355 C1354 1.394 . S
C1355 C1356 1.516 . S
C1356 C1355 1.516 . S
C1356 C1357 1.502 . S
C1356 C1358 1.561 . S
C1356 C1359 1.526 1_556 S
C1357 H1341 0.959 . S
C1357 H1342 0.959 . S
C1357 H1343 0.961 . S
C1357 C1356 1.502 . S
C1358 H1344 0.960 . S
C1358 H1345 0.961 . S
C1358 H1346 0.959 . S
C1358 C1356 1.561 . S
C1359 C1356 1.526 1_554 S
C1359 C1360 1.396 . S
C1359 C1364 1.390 . S
C1360 C1354 1.465 1_554 S
C1360 C1359 1.396 . S
C1360 C1361 1.399 . S
C1361 H1347 0.929 . S
C1361 C1360 1.399 . S
C1361 C1362 1.385 . S
C1362 H1348 0.931 . S
C1362 C1361 1.385 . S
C1362 C1363 1.389 . S
C1363 C1362 1.389 . S
C1363 C1364 1.387 . S
C1364 H1349 0.930 . S
C1364 C1359 1.390 . S
C1364 C1363 1.387 . S
H1365 C1377 0.930 . S
H1366 C1379 0.930 . S
H1367 C1380 0.930 . S
H1368 C1384 0.959 . S
H1369 C1384 0.959 . S
H1370 C1384 0.961 . S
H1371 C1385 0.960 . S
H1372 C1385 0.961 . S
H1373 C1385 0.959 . S
H1374 C1388 0.929 . S
H1375 C1389 0.931 . S
H1376 C1391 0.930 . S
C1377 H1365 0.930 . S
C1377 C1378 1.399 . S
C1377 C1382 1.399 . S
C1378 C1377 1.399 . S
C1378 C1379 1.376 . S
C1379 H1366 0.930 . S
C1379 C1378 1.376 . S
C1379 C1380 1.388 . S
C1380 H1367 0.930 . S
C1380 C1379 1.388 . S
C1380 C1381 1.390 . S
C1381 C1380 1.390 . S
C1381 C1382 1.394 . S
C1381 C1387 1.465 1_554 S
C1382 C1377 1.399 . S
C1382 C1381 1.394 . S
C1382 C1383 1.516 1_554 S
C1383 C1382 1.516 1_556 S
C1383 C1384 1.502 . S
C1383 C1385 1.561 . S
C1383 C1386 1.526 . S
C1384 H1368 0.959 . S
C1384 H1369 0.959 . S
C1384 H1370 0.961 . S
C1384 C1383 1.502 . S
C1385 H1371 0.960 . S
C1385 H1372 0.961 . S
C1385 H1373 0.959 . S
C1385 C1383 1.561 . S
C1386 C1383 1.526 . S
C1386 C1387 1.396 . S
C1386 C1391 1.390 . S
C1387 C1381 1.465 1_556 S
C1387 C1386 1.396 . S
C1387 C1388 1.399 . S
C1388 H1374 0.929 . S
C1388 C1387 1.399 . S
C1388 C1389 1.385 . S
C1389 H1375 0.931 . S
C1389 C1388 1.385 . S
C1389 C1390 1.389 . S
C1390 C1389 1.389 . S
C1390 C1391 1.387 . S
C1391 H1376 0.930 . S
C1391 C1386 1.390 . S
C1391 C1390 1.387 . S
H1392 C1404 0.930 . S
H1393 C1406 0.930 . S
H1394 C1407 0.930 . S
H1395 C1411 0.959 . S
H1396 C1411 0.959 . S
H1397 C1411 0.961 . S
H1398 C1412 0.960 . S
H1399 C1412 0.961 . S
H1400 C1412 0.959 . S
H1401 C1415 0.929 . S
H1402 C1416 0.931 . S
H1403 C1418 0.930 . S
C1404 H1392 0.930 . S
C1404 C1405 1.399 . S
C1404 C1409 1.399 . S
C1405 C1404 1.399 . S
C1405 C1406 1.376 . S
C1406 H1393 0.930 . S
C1406 C1405 1.376 . S
C1406 C1407 1.388 . S
C1407 H1394 0.930 . S
C1407 C1406 1.388 . S
C1407 C1408 1.390 . S
C1408 C1407 1.390 . S
C1408 C1409 1.394 . S
C1408 C1414 1.465 . S
C1409 C1404 1.399 . S
C1409 C1408 1.394 . S
C1409 C1410 1.516 . S
C1410 C1409 1.516 . S
C1410 C1411 1.502 . S
C1410 C1412 1.561 . S
C1410 C1413 1.526 . S
C1411 H1395 0.959 . S
C1411 H1396 0.959 . S
C1411 H1397 0.961 . S
C1411 C1410 1.502 . S
C1412 H1398 0.960 . S
C1412 H1399 0.961 . S
C1412 H1400 0.959 . S
C1412 C1410 1.561 . S
C1413 C1410 1.526 . S
C1413 C1414 1.396 . S
C1413 C1418 1.390 . S
C1414 C1408 1.465 . S
C1414 C1413 1.396 . S
C1414 C1415 1.399 . S
C1415 H1401 0.929 . S
C1415 C1414 1.399 . S
C1415 C1416 1.385 . S
C1416 H1402 0.931 . S
C1416 C1415 1.385 . S
C1416 C1417 1.389 . S
C1417 C1416 1.389 . S
C1417 C1418 1.387 . S
C1418 H1403 0.930 . S
C1418 C1413 1.390 . S
C1418 C1417 1.387 . S
H1419 C1431 0.930 . S
H1420 C1433 0.930 . S
H1421 C1434 0.930 . S
H1422 C1438 0.959 . S
H1423 C1438 0.959 . S
H1424 C1438 0.961 . S
H1425 C1439 0.960 . S
H1426 C1439 0.961 . S
H1427 C1439 0.959 . S
H1428 C1442 0.929 . S
H1429 C1443 0.931 . S
H1430 C1445 0.930 . S
C1431 H1419 0.930 . S
C1431 C1432 1.399 . S
C1431 C1436 1.399 . S
C1432 C1431 1.399 . S
C1432 C1433 1.376 . S
C1433 H1420 0.930 . S
C1433 C1432 1.376 . S
C1433 C1434 1.388 . S
C1434 H1421 0.930 . S
C1434 C1433 1.388 . S
C1434 C1435 1.390 . S
C1435 C1434 1.390 . S
C1435 C1436 1.394 . S
C1435 C1441 1.465 . S
C1436 C1431 1.399 . S
C1436 C1435 1.394 . S
C1436 C1437 1.516 . S
C1437 C1436 1.516 . S
C1437 C1438 1.502 . S
C1437 C1439 1.561 . S
C1437 C1440 1.526 . S
C1438 H1422 0.959 . S
C1438 H1423 0.959 . S
C1438 H1424 0.961 . S
C1438 C1437 1.502 . S
C1439 H1425 0.960 . S
C1439 H1426 0.961 . S
C1439 H1427 0.959 . S
C1439 C1437 1.561 . S
C1440 C1437 1.526 . S
C1440 C1441 1.396 . S
C1440 C1445 1.390 . S
C1441 C1435 1.465 . S
C1441 C1440 1.396 . S
C1441 C1442 1.399 . S
C1442 H1428 0.929 . S
C1442 C1441 1.399 . S
C1442 C1443 1.385 . S
C1443 H1429 0.931 . S
C1443 C1442 1.385 . S
C1443 C1444 1.389 . S
C1444 C1443 1.389 . S
C1444 C1445 1.387 . S
C1445 H1430 0.930 . S
C1445 C1440 1.390 . S
C1445 C1444 1.387 . S
H1446 C1458 0.930 . S
H1447 C1460 0.930 . S
H1448 C1461 0.930 . S
H1449 C1465 0.959 . S
H1450 C1465 0.959 . S
H1451 C1465 0.961 . S
H1452 C1466 0.960 . S
H1453 C1466 0.961 . S
H1454 C1466 0.959 . S
H1455 C1469 0.929 . S
H1456 C1470 0.931 . S
H1457 C1472 0.930 . S
C1458 H1446 0.930 . S
C1458 C1459 1.399 . S
C1458 C1463 1.399 . S
C1459 C1458 1.399 . S
C1459 C1460 1.376 . S
C1460 H1447 0.930 . S
C1460 C1459 1.376 . S
C1460 C1461 1.388 . S
C1461 H1448 0.930 . S
C1461 C1460 1.388 . S
C1461 C1462 1.390 . S
C1462 C1461 1.390 . S
C1462 C1463 1.394 . S
C1462 C1468 1.465 . S
C1463 C1458 1.399 . S
C1463 C1462 1.394 . S
C1463 C1464 1.516 . S
C1464 C1463 1.516 . S
C1464 C1465 1.502 . S
C1464 C1466 1.561 . S
C1464 C1467 1.526 . S
C1465 H1449 0.959 . S
C1465 H1450 0.959 . S
C1465 H1451 0.961 . S
C1465 C1464 1.502 . S
C1466 H1452 0.960 . S
C1466 H1453 0.961 . S
C1466 H1454 0.959 . S
C1466 C1464 1.561 . S
C1467 C1464 1.526 . S
C1467 C1468 1.396 . S
C1467 C1472 1.390 . S
C1468 C1462 1.465 . S
C1468 C1467 1.396 . S
C1468 C1469 1.399 . S
C1469 H1455 0.929 . S
C1469 C1468 1.399 . S
C1469 C1470 1.385 . S
C1470 H1456 0.931 . S
C1470 C1469 1.385 . S
C1470 C1471 1.389 . S
C1471 C1470 1.389 . S
C1471 C1472 1.387 . S
C1472 H1457 0.930 . S
C1472 C1467 1.390 . S
C1472 C1471 1.387 . S
H1473 C1485 0.930 . S
H1474 C1487 0.930 . S
H1475 C1488 0.930 . S
H1476 C1492 0.959 . S
H1477 C1492 0.959 . S
H1478 C1492 0.961 . S
H1479 C1493 0.960 . S
H1480 C1493 0.961 . S
H1481 C1493 0.959 . S
H1482 C1496 0.929 . S
H1483 C1497 0.931 . S
H1484 C1499 0.930 . S
C1485 H1473 0.930 . S
C1485 C1486 1.399 . S
C1485 C1490 1.399 . S
C1486 C1485 1.399 . S
C1486 C1487 1.376 . S
C1487 H1474 0.930 . S
C1487 C1486 1.376 . S
C1487 C1488 1.388 . S
C1488 H1475 0.930 . S
C1488 C1487 1.388 . S
C1488 C1489 1.390 . S
C1489 C1488 1.390 . S
C1489 C1490 1.394 . S
C1489 C1495 1.465 . S
C1490 C1485 1.399 . S
C1490 C1489 1.394 . S
C1490 C1491 1.516 . S
C1491 C1490 1.516 . S
C1491 C1492 1.502 . S
C1491 C1493 1.561 . S
C1491 C1494 1.526 . S
C1492 H1476 0.959 . S
C1492 H1477 0.959 . S
C1492 H1478 0.961 . S
C1492 C1491 1.502 . S
C1493 H1479 0.960 . S
C1493 H1480 0.961 . S
C1493 H1481 0.959 . S
C1493 C1491 1.561 . S
C1494 C1491 1.526 . S
C1494 C1495 1.396 . S
C1494 C1499 1.390 . S
C1495 C1489 1.465 . S
C1495 C1494 1.396 . S
C1495 C1496 1.399 . S
C1496 H1482 0.929 . S
C1496 C1495 1.399 . S
C1496 C1497 1.385 . S
C1497 H1483 0.931 . S
C1497 C1496 1.385 . S
C1497 C1498 1.389 . S
C1498 C1497 1.389 . S
C1498 C1499 1.387 . S
C1499 H1484 0.930 . S
C1499 C1494 1.390 . S
C1499 C1498 1.387 . S
H1500 C1512 0.930 . S
H1501 C1514 0.930 . S
H1502 C1515 0.930 . S
H1503 C1519 0.959 1_556 S
H1504 C1519 0.959 1_556 S
H1505 C1519 0.961 . S
H1506 C1520 0.960 . S
H1507 C1520 0.961 . S
H1508 C1520 0.959 . S
H1509 C1523 0.929 . S
H1510 C1524 0.931 . S
H1511 C1526 0.930 . S
C1512 H1500 0.930 . S
C1512 C1513 1.399 . S
C1512 C1517 1.399 . S
C1513 C1512 1.399 . S
C1513 C1514 1.376 . S
C1514 H1501 0.930 . S
C1514 C1513 1.376 . S
C1514 C1515 1.388 . S
C1515 H1502 0.930 . S
C1515 C1514 1.388 . S
C1515 C1516 1.390 . S
C1516 C1515 1.390 . S
C1516 C1517 1.394 . S
C1516 C1522 1.465 1_554 S
C1517 C1512 1.399 . S
C1517 C1516 1.394 . S
C1517 C1518 1.516 . S
C1518 C1517 1.516 . S
C1518 C1519 1.502 . S
C1518 C1520 1.561 . S
C1518 C1521 1.526 1_554 S
C1519 H1503 0.959 1_554 S
C1519 H1504 0.959 1_554 S
C1519 H1505 0.961 . S
C1519 C1518 1.502 . S
C1520 H1506 0.960 . S
C1520 H1507 0.961 . S
C1520 H1508 0.959 . S
C1520 C1518 1.561 . S
C1521 C1518 1.526 1_556 S
C1521 C1522 1.396 . S
C1521 C1526 1.390 . S
C1522 C1516 1.465 1_556 S
C1522 C1521 1.396 . S
C1522 C1523 1.399 . S
C1523 H1509 0.929 . S
C1523 C1522 1.399 . S
C1523 C1524 1.385 . S
C1524 H1510 0.931 . S
C1524 C1523 1.385 . S
C1524 C1525 1.389 . S
C1525 C1524 1.389 . S
C1525 C1526 1.387 . S
C1526 H1511 0.930 . S
C1526 C1521 1.390 . S
C1526 C1525 1.387 . S
H1527 C1539 0.930 . S
H1528 C1541 0.930 . S
H1529 C1542 0.930 1_554 S
H1530 C1546 0.959 . S
H1531 C1546 0.959 . S
H1532 C1546 0.961 . S
H1533 C1547 0.960 . S
H1534 C1547 0.961 . S
H1535 C1547 0.959 . S
H1536 C1550 0.929 . S
H1537 C1551 0.931 . S
H1538 C1553 0.930 . S
C1539 H1527 0.930 . S
C1539 C1540 1.399 . S
C1539 C1544 1.399 . S
C1540 C1539 1.399 . S
C1540 C1541 1.376 . S
C1541 H1528 0.930 . S
C1541 C1540 1.376 . S
C1541 C1542 1.388 . S
C1542 H1529 0.930 1_556 S
C1542 C1541 1.388 . S
C1542 C1543 1.390 . S
C1543 C1542 1.390 . S
C1543 C1544 1.394 . S
C1543 C1549 1.465 1_556 S
C1544 C1539 1.399 . S
C1544 C1543 1.394 . S
C1544 C1545 1.516 . S
C1545 C1544 1.516 . S
C1545 C1546 1.502 . S
C1545 C1547 1.561 . S
C1545 C1548 1.526 1_556 S
C1546 H1530 0.959 . S
C1546 H1531 0.959 . S
C1546 H1532 0.961 . S
C1546 C1545 1.502 . S
C1547 H1533 0.960 . S
C1547 H1534 0.961 . S
C1547 H1535 0.959 . S
C1547 C1545 1.561 . S
C1548 C1545 1.526 1_554 S
C1548 C1549 1.396 . S
C1548 C1553 1.390 . S
C1549 C1543 1.465 1_554 S
C1549 C1548 1.396 . S
C1549 C1550 1.399 . S
C1550 H1536 0.929 . S
C1550 C1549 1.399 . S
C1550 C1551 1.385 . S
C1551 H1537 0.931 . S
C1551 C1550 1.385 . S
C1551 C1552 1.389 . S
C1552 C1551 1.389 . S
C1552 C1553 1.387 . S
C1553 H1538 0.930 . S
C1553 C1548 1.390 . S
C1553 C1552 1.387 . S
H1554 C1566 0.930 . S
H1555 C1568 0.930 . S
H1556 C1569 0.930 . S
H1557 C1573 0.959 1_556 S
H1558 C1573 0.959 1_556 S
H1559 C1573 0.961 . S
H1560 C1574 0.960 . S
H1561 C1574 0.961 . S
H1562 C1574 0.959 . S
H1563 C1577 0.929 . S
H1564 C1578 0.931 . S
H1565 C1580 0.930 . S
C1566 H1554 0.930 . S
C1566 C1567 1.399 . S
C1566 C1571 1.399 . S
C1567 C1566 1.399 . S
C1567 C1568 1.376 . S
C1568 H1555 0.930 . S
C1568 C1567 1.376 . S
C1568 C1569 1.388 . S
C1569 H1556 0.930 . S
C1569 C1568 1.388 . S
C1569 C1570 1.390 . S
C1570 C1569 1.390 . S
C1570 C1571 1.394 . S
C1570 C1576 1.465 1_554 S
C1571 C1566 1.399 . S
C1571 C1570 1.394 . S
C1571 C1572 1.516 . S
C1572 C1571 1.516 . S
C1572 C1573 1.502 . S
C1572 C1574 1.561 . S
C1572 C1575 1.526 1_554 S
C1573 H1557 0.959 1_554 S
C1573 H1558 0.959 1_554 S
C1573 H1559 0.961 . S
C1573 C1572 1.502 . S
C1574 H1560 0.960 . S
C1574 H1561 0.961 . S
C1574 H1562 0.959 . S
C1574 C1572 1.561 . S
C1575 C1572 1.526 1_556 S
C1575 C1576 1.396 . S
C1575 C1580 1.390 . S
C1576 C1570 1.465 1_556 S
C1576 C1575 1.396 . S
C1576 C1577 1.399 . S
C1577 H1563 0.929 . S
C1577 C1576 1.399 . S
C1577 C1578 1.385 . S
C1578 H1564 0.931 . S
C1578 C1577 1.385 . S
C1578 C1579 1.389 . S
C1579 C1578 1.389 . S
C1579 C1580 1.387 . S
C1580 H1565 0.930 . S
C1580 C1575 1.390 . S
C1580 C1579 1.387 . S
H1581 C1593 0.930 . S
H1582 C1595 0.930 . S
H1583 C1596 0.930 . S
H1584 C1600 0.959 . S
H1585 C1600 0.959 . S
H1586 C1600 0.961 . S
H1587 C1601 0.960 . S
H1588 C1601 0.961 . S
H1589 C1601 0.959 . S
H1590 C1604 0.929 . S
H1591 C1605 0.931 . S
H1592 C1607 0.930 . S
C1593 H1581 0.930 . S
C1593 C1594 1.399 . S
C1593 C1598 1.399 . S
C1594 C1593 1.399 . S
C1594 C1595 1.376 . S
C1595 H1582 0.930 . S
C1595 C1594 1.376 . S
C1595 C1596 1.388 . S
C1596 H1583 0.930 . S
C1596 C1595 1.388 . S
C1596 C1597 1.390 . S
C1597 C1596 1.390 . S
C1597 C1598 1.394 . S
C1597 C1603 1.465 . S
C1598 C1593 1.399 . S
C1598 C1597 1.394 . S
C1598 C1599 1.516 1_554 S
C1599 C1598 1.516 1_556 S
C1599 C1600 1.502 . S
C1599 C1601 1.561 . S
C1599 C1602 1.526 . S
C1600 H1584 0.959 . S
C1600 H1585 0.959 . S
C1600 H1586 0.961 . S
C1600 C1599 1.502 . S
C1601 H1587 0.960 . S
C1601 H1588 0.961 . S
C1601 H1589 0.959 . S
C1601 C1599 1.561 . S
C1602 C1599 1.526 . S
C1602 C1603 1.396 1_556 S
C1602 C1607 1.390 . S
C1603 C1597 1.465 . S
C1603 C1602 1.396 1_554 S
C1603 C1604 1.399 . S
C1604 H1590 0.929 . S
C1604 C1603 1.399 . S
C1604 C1605 1.385 1_554 S
C1605 H1591 0.931 . S
C1605 C1604 1.385 1_556 S
C1605 C1606 1.389 . S
C1606 C1605 1.389 . S
C1606 C1607 1.387 . S
C1607 H1592 0.930 . S
C1607 C1602 1.390 . S
C1607 C1606 1.387 . S
C541 N101 1.473 . S
C553 C7 1.537 . S
C568 C40 1.604 . S
C580 N2 1.372 . S
C595 C73 1.608 . S
C607 N35 1.375 . S
C622 C106 1.537 . S
C634 N68 1.483 . S
C649 N167 1.438 . S
C661 C139 1.605 . S
C676 N200 1.426 . S
C688 C172 1.549 . S
C703 C205 1.589 . S
C715 N233 1.471 . S
C730 N134 1.430 . S
C742 C238 1.547 . S
C757 C271 1.614 . S
C769 N365 1.373 . S
C784 C304 1.549 . S
C796 N266 1.463 . S
C811 N299 1.416 . S
C823 C337 1.576 . S
C838 C370 1.598 . S
C850 N332 1.416 . S
C865 N431 1.467 . S
C877 C403 1.568 . S
C892 C436 1.547 . S
C904 N464 1.467 . S
C919 C469 1.595 . S
C931 N497 1.387 . S
C946 C502 1.550 . S
C958 N398 1.462 . S
C973 C21 1.625 . S
C985 C186 1.592 . S
C1000 C54 1.603 . S
C1012 C219 1.624 . S
C1027 C252 1.587 . S
C1039 C87 1.624 . S
C1054 C120 1.593 . S
C1066 C153 1.625 . S
C1081 C450 1.580 . S
C1093 C285 1.625 . S
C1108 C483 1.612 . S
C1120 C318 1.608 . S
C1135 C351 1.586 . S
C1147 C516 1.597 . S
C1162 C417 1.590 . S
C1174 C384 1.592 . S
C1189 N13 1.146 . S
C1201 C381 1.141 . S
C1216 N46 1.156 . S
C1228 C282 1.134 . S
C1243 N79 1.109 . S
C1255 C315 1.135 . S
C1270 N112 1.099 . S
C1282 C348 1.144 . S
C1297 C447 1.149 . S
C1309 N145 1.114 . S
C1324 N178 1.136 . S
C1336 C480 1.145 . S
C1351 C513 1.126 . S
C1363 N211 1.143 . S
C1378 N244 1.116 . S
C1390 C414 1.132 . S
C1405 C117 1.128 . S
C1417 N277 1.145 . S
C1432 C18 1.140 . S
C1444 N310 1.112 . S
C1459 C51 1.140 . S
C1471 N343 1.134 . S
C1486 C84 1.127 . S
C1498 N376 1.152 . S
C1513 C183 1.138 . S
C1525 N409 1.118 . S
C1540 N442 1.101 . S
C1552 C216 1.146 . S
C1567 C249 1.138 . S
C1579 N475 1.118 . S
C1594 C150 1.149 . S
C1606 N508 1.102 . S
