# Generated by pormake.
# Topology sni, (6)-cn, num edge types: 1
# Building blocks:
#     Node 0, Type 0, BuildingBlock: OJICUG_clean_sbu_0, # of connection points: 6
#     Node 1, Type 0, BuildingBlock: OJICUG_clean_sbu_0, # of connection points: 6
#     Node 2, Type 0, BuildingBlock: OJICUG_clean_sbu_0, # of connection points: 6
#     Node 3, Type 0, BuildingBlock: OJICUG_clean_sbu_0, # of connection points: 6
#     Node 4, Type 0, BuildingBlock: OJICUG_clean_sbu_0, # of connection points: 6
#     Node 5, Type 0, BuildingBlock: OJICUG_clean_sbu_0, # of connection points: 6
#     Node 6, Type 0, BuildingBlock: OJICUG_clean_sbu_0, # of connection points: 6
#     Node 7, Type 0, BuildingBlock: OJICUG_clean_sbu_0, # of connection points: 6
#     Edge 8, Type (0, 0), BuildingBlock: CIFDUS_clean_linker_0, # of connection points: 2
#     Edge 9, Type (0, 0), BuildingBlock: CIFDUS_clean_linker_0, # of connection points: 2
#     Edge 10, Type (0, 0), BuildingBlock: CIFDUS_clean_linker_0, # of connection points: 2
#     Edge 11, Type (0, 0), BuildingBlock: CIFDUS_clean_linker_0, # of connection points: 2
#     Edge 12, Type (0, 0), BuildingBlock: CIFDUS_clean_linker_0, # of connection points: 2
#     Edge 13, Type (0, 0), BuildingBlock: CIFDUS_clean_linker_0, # of connection points: 2
#     Edge 14, Type (0, 0), BuildingBlock: CIFDUS_clean_linker_0, # of connection points: 2
#     Edge 15, Type (0, 0), BuildingBlock: CIFDUS_clean_linker_0, # of connection points: 2
#     Edge 16, Type (0, 0), BuildingBlock: CIFDUS_clean_linker_0, # of connection points: 2
#     Edge 17, Type (0, 0), BuildingBlock: CIFDUS_clean_linker_0, # of connection points: 2
#     Edge 18, Type (0, 0), BuildingBlock: CIFDUS_clean_linker_0, # of connection points: 2
#     Edge 19, Type (0, 0), BuildingBlock: CIFDUS_clean_linker_0, # of connection points: 2
#     Edge 20, Type (0, 0), BuildingBlock: CIFDUS_clean_linker_0, # of connection points: 2
#     Edge 21, Type (0, 0), BuildingBlock: CIFDUS_clean_linker_0, # of connection points: 2
#     Edge 22, Type (0, 0), BuildingBlock: CIFDUS_clean_linker_0, # of connection points: 2
#     Edge 23, Type (0, 0), BuildingBlock: CIFDUS_clean_linker_0, # of connection points: 2
#     Edge 24, Type (0, 0), BuildingBlock: CIFDUS_clean_linker_0, # of connection points: 2
#     Edge 25, Type (0, 0), BuildingBlock: CIFDUS_clean_linker_0, # of connection points: 2
#     Edge 26, Type (0, 0), BuildingBlock: CIFDUS_clean_linker_0, # of connection points: 2
#     Edge 27, Type (0, 0), BuildingBlock: CIFDUS_clean_linker_0, # of connection points: 2
#     Edge 28, Type (0, 0), BuildingBlock: CIFDUS_clean_linker_0, # of connection points: 2
#     Edge 29, Type (0, 0), BuildingBlock: CIFDUS_clean_linker_0, # of connection points: 2
#     Edge 30, Type (0, 0), BuildingBlock: CIFDUS_clean_linker_0, # of connection points: 2
#     Edge 31, Type (0, 0), BuildingBlock: CIFDUS_clean_linker_0, # of connection points: 2
# Relax obj value: 0.093
# Max RMSD: 0.105
# Mean RMSD: 0.105
data_MOF--net-sni--node1-OJICUG_clean_sbu_0--edge1-CIFDUS_clean_linker_0
_symmetry_space_group_name_H-M    P1
_symmetry_Int_Tables_number       1
_symmetry_cell_setting            triclinic
loop_
_symmetry_equiv_pos_as_xyz
'x, y, z'
_cell_length_a     35.770167
_cell_length_b     35.485225
_cell_length_c     19.953211
_cell_angle_alpha  89.70264
_cell_angle_beta   89.979137
_cell_angle_gamma 90.722386
loop_
_atom_site_label
_atom_site_type_symbol
_atom_site_fract_x
_atom_site_fract_y
_atom_site_fract_z
_atom_type_partial_charge
Sc0 Sc 0.59566 0.10372 0.00757 0.0
Sc1 Sc 0.6886 0.13582 -0.00752 0.0
Sc2 Sc 0.61392 0.20107 -0.00434 0.0
O3 O 0.6328 0.14696 -0.00173 0.0
C4 C 0.55301 0.1583 0.90619 0.0
C5 C 0.65354 0.07068 0.90098 0.0
C6 C 0.68064 0.20491 0.88912 0.0
C7 C 0.66158 0.07555 0.1019 0.0
C8 C 0.56075 0.1639 0.10697 0.0
C9 C 0.68614 0.20739 0.08981 0.0
O10 O 0.5593 0.12621 0.93213 0.0
O11 O 0.68062 0.09272 0.91634 0.0
O12 O 0.6499 0.21663 0.9128 0.0
O13 O 0.6275 0.0771 0.08472 0.0
O14 O 0.57566 0.19267 0.07903 0.0
O15 O 0.7015 0.17759 0.06813 0.0
O16 O 0.5656 0.13062 0.08611 0.0
O17 O 0.68744 0.0939 0.07203 0.0
O18 O 0.65518 0.21942 0.06738 0.0
O19 O 0.62208 0.07156 0.93052 0.0
O20 O 0.57059 0.18808 0.92359 0.0
O21 O 0.69745 0.17646 0.91304 0.0
Sc22 Sc 0.89539 0.61616 0.9677 0.0
Sc23 Sc 0.86308 0.70872 0.98293 0.0
Sc24 Sc 0.79945 0.63077 -0.00846 0.0
O25 O 0.85251 0.65195 0.98079 0.0
C26 C 0.83127 0.57582 0.88077 0.0
C27 C 0.91538 0.68118 0.8633 0.0
C28 C 0.78704 0.7042 0.9006 0.0
C29 C 0.93315 0.67835 0.0626 0.0
C30 C 0.84745 0.57291 0.07938 0.0
C31 C 0.80173 0.69833 0.09766 0.0
O32 O 0.86518 0.58276 0.8957 0.0
O33 O 0.89802 0.70739 0.89318 0.0
O34 O 0.77721 0.67106 0.91925 0.0
O35 O 0.93122 0.64543 0.03781 0.0
O36 O 0.81634 0.58832 0.06523 0.0
O37 O 0.82912 0.71635 0.07153 0.0
O38 O 0.87748 0.58081 0.04821 0.0
O39 O 0.91038 0.70407 0.04755 0.0
O40 O 0.78849 0.66796 0.07324 0.0
O41 O 0.91672 0.64772 0.88544 0.0
O42 O 0.80399 0.59068 0.91105 0.0
O43 O 0.81669 0.72051 0.92041 0.0
Sc44 Sc 0.29473 0.85953 -0.00615 0.0
Sc45 Sc 0.36939 0.79463 0.98446 0.0
Sc46 Sc 0.38432 0.89034 0.94518 0.0
O47 O 0.34942 0.84808 0.97471 0.0
C48 C 0.31036 0.90891 0.86355 0.0
C49 C 0.28953 0.78095 0.91736 0.0
C50 C 0.41036 0.82317 0.85194 0.0
C51 C 0.31419 0.80045 0.10957 0.0
C52 C 0.33589 0.93109 0.05652 0.0
C53 C 0.43563 0.84436 0.04647 0.0
O54 O 0.28768 0.89253 0.90341 0.0
O55 O 0.3228 0.77097 0.93028 0.0
O56 O 0.40687 0.85769 0.86606 0.0
O57 O 0.29525 0.82734 0.08528 0.0
O58 O 0.36492 0.92792 0.02058 0.0
O59 O 0.41769 0.81337 0.0404 0.0
O60 O 0.30803 0.90865 0.05252 0.0
O61 O 0.34141 0.7857 0.07877 0.0
O62 O 0.42703 0.87405 0.0145 0.0
O63 O 0.27581 0.81173 0.93752 0.0
O64 O 0.34539 0.91038 0.87277 0.0
O65 O 0.39952 0.79655 0.89034 0.0
Sc66 Sc 0.1209 0.40869 0.00263 0.0
Sc67 Sc 0.13346 0.31163 0.98376 0.0
Sc68 Sc 0.21192 0.37392 -0.0077 0.0
O69 O 0.15556 0.36459 -0.00705 0.0
C70 C 0.18014 0.43914 0.89755 0.0
C71 C 0.07441 0.35759 0.8995 0.0
C72 C 0.20179 0.31071 0.88056 0.0
C73 C 0.08459 0.34831 0.10074 0.0
C74 C 0.18833 0.43485 0.09746 0.0
C75 C 0.20373 0.29856 0.07945 0.0
O76 O 0.14724 0.43695 0.9212 0.0
O77 O 0.09244 0.32758 0.91012 0.0
O78 O 0.2193 0.3376 0.90869 0.0
O79 O 0.09311 0.38207 0.08493 0.0
O80 O 0.21178 0.41112 0.07692 0.0
O81 O 0.1721 0.2894 0.05514 0.0
O82 O 0.15575 0.43771 0.07322 0.0
O83 O 0.09457 0.31983 0.06661 0.0
O84 O 0.22159 0.32833 0.0622 0.0
O85 O 0.08064 0.38762 0.93201 0.0
O86 O 0.20749 0.42034 0.92068 0.0
O87 O 0.17039 0.29802 0.90153 0.0
Sc88 Sc 0.62408 0.7946 0.47039 0.0
Sc89 Sc 0.68504 0.87217 0.50141 0.0
Sc90 Sc 0.58827 0.8853 0.48728 0.0
O91 O 0.63263 0.85065 0.4863 0.0
C92 C 0.56833 0.83214 0.36509 0.0
C93 C 0.69888 0.80999 0.38837 0.0
C94 C 0.64986 0.9367 0.41254 0.0
C95 C 0.68606 0.79506 0.58492 0.0
C96 C 0.55433 0.81222 0.56082 0.0
C97 C 0.63599 0.91858 0.60724 0.0
O98 O 0.58516 0.80387 0.38956 0.0
O99 O 0.70939 0.83832 0.42279 0.0
O100 O 0.61718 0.92903 0.43372 0.0
O101 O 0.66174 0.77893 0.54837 0.0
O102 O 0.5532 0.8463 0.5414 0.0
O103 O 0.66721 0.90914 0.58185 0.0
O104 O 0.57986 0.78989 0.5432 0.0
O105 O 0.6965 0.8293 0.5765 0.0
O106 O 0.6047 0.90937 0.58142 0.0
O107 O 0.66796 0.7928 0.39788 0.0
O108 O 0.56849 0.86433 0.3928 0.0
O109 O 0.67815 0.91695 0.42767 0.0
Sc110 Sc 0.19413 0.63931 0.5 0.0
Sc111 Sc 0.11936 0.7039 0.48505 0.0
Sc112 Sc 0.10319 0.60673 0.46592 0.0
O113 O 0.13895 0.65009 0.48381 0.0
C114 C 0.17532 0.5831 0.38247 0.0
C115 C 0.19861 0.71555 0.41436 0.0
C116 C 0.07774 0.66788 0.35912 0.0
C117 C 0.17544 0.70153 0.60938 0.0
C118 C 0.15432 0.57117 0.57881 0.0
C119 C 0.05202 0.65969 0.55571 0.0
O120 O 0.1988 0.60349 0.41373 0.0
O121 O 0.1655 0.72549 0.42768 0.0
O122 O 0.08041 0.63451 0.38124 0.0
O123 O 0.19439 0.67433 0.58676 0.0
O124 O 0.12351 0.57443 0.54804 0.0
O125 O 0.07062 0.68961 0.54344 0.0
O126 O 0.18277 0.59183 0.56595 0.0
O127 O 0.1479 0.71577 0.57816 0.0
O128 O 0.06068 0.62791 0.53152 0.0
O129 O 0.21267 0.68525 0.43664 0.0
O130 O 0.14089 0.58095 0.39727 0.0
O131 O 0.08928 0.69676 0.39111 0.0
Sc132 Sc 0.35978 0.17935 0.50228 0.0
Sc133 Sc 0.28035 0.1205 0.47641 0.0
Sc134 Sc 0.369 0.08117 0.49709 0.0
O135 O 0.3363 0.12713 0.4921 0.0
C136 C 0.42193 0.13901 0.41631 0.0
C137 C 0.2999 0.19213 0.38576 0.0
C138 C 0.31521 0.06037 0.3769 0.0
C139 C 0.28365 0.1867 0.58387 0.0
C140 C 0.40335 0.13093 0.61329 0.0
C141 C 0.29528 0.05215 0.57356 0.0
O142 O 0.40388 0.1685 0.43086 0.0
O143 O 0.28088 0.16247 0.39867 0.0
O144 O 0.34703 0.06014 0.40502 0.0
O145 O 0.31779 0.19561 0.57372 0.0
O146 O 0.39396 0.09906 0.58935 0.0
O147 O 0.2741 0.07832 0.55368 0.0
O148 O 0.39468 0.16204 0.58555 0.0
O149 O 0.26654 0.16131 0.55088 0.0
O150 O 0.32894 0.04903 0.55439 0.0
O151 O 0.328 0.2025 0.42039 0.0
O152 O 0.41335 0.10675 0.43983 0.0
O153 O 0.28755 0.07855 0.39947 0.0
Sc154 Sc 0.80447 0.3663 0.49134 0.0
Sc155 Sc 0.87417 0.29548 0.49403 0.0
Sc156 Sc 0.89977 0.39056 0.48062 0.0
O157 O 0.85929 0.35068 0.48876 0.0
C158 C 0.83929 0.42202 0.37939 0.0
C159 C 0.80327 0.29358 0.3963 0.0
C160 C 0.93494 0.32572 0.39086 0.0
C161 C 0.80579 0.29801 0.59733 0.0
C162 C 0.84171 0.43195 0.57667 0.0
C163 C 0.93382 0.33571 0.59047 0.0
O164 O 0.81153 0.40748 0.41075 0.0
O165 O 0.8328 0.27959 0.42114 0.0
O166 O 0.93297 0.35907 0.41269 0.0
O167 O 0.79068 0.32708 0.57182 0.0
O168 O 0.87267 0.42797 0.54696 0.0
O169 O 0.91722 0.30631 0.56835 0.0
O170 O 0.81381 0.40997 0.56671 0.0
O171 O 0.83605 0.28443 0.57511 0.0
O172 O 0.92932 0.36828 0.56509 0.0
O173 O 0.78975 0.32476 0.41588 0.0
O174 O 0.87301 0.41622 0.39634 0.0
O175 O 0.91408 0.29911 0.41243 0.0
H176 H 0.44152 0.1976 0.33213 0.0
H177 H 0.47286 0.08481 0.39038 0.0
H178 H 0.51981 0.08399 0.30268 0.0
H179 H 0.54889 0.11276 0.2048 0.0
H180 H 0.51913 0.2252 0.14368 0.0
H181 H 0.475 0.22884 0.23766 0.0
C182 C 0.45893 0.17306 0.32612 0.0
C183 C 0.45317 0.14115 0.36744 0.0
C184 C 0.486 0.17254 0.27483 0.0
C185 C 0.47617 0.10962 0.35897 0.0
C186 C 0.50314 0.10905 0.30874 0.0
C187 C 0.53283 0.13817 0.212 0.0
C188 C 0.53678 0.16842 0.16676 0.0
C189 C 0.50768 0.13995 0.26555 0.0
C190 C 0.51644 0.20145 0.17774 0.0
C191 C 0.49113 0.20346 0.23127 0.0
H192 H 0.79093 0.53993 0.15553 0.0
H193 H 0.91085 0.54117 0.12658 0.0
H194 H 0.91793 0.49416 0.2132 0.0
H195 H 0.89157 0.45326 0.29797 0.0
H196 H 0.77245 0.45037 0.33251 0.0
H197 H 0.7638 0.49694 0.24271 0.0
C198 C 0.81855 0.52993 0.16831 0.0
C199 C 0.85017 0.54436 0.13401 0.0
C200 C 0.82276 0.50239 0.21909 0.0
C201 C 0.88579 0.53084 0.15143 0.0
C202 C 0.89005 0.50377 0.20124 0.0
C203 C 0.86356 0.46259 0.28614 0.0
C204 C 0.83277 0.4483 0.32238 0.0
C205 C 0.85886 0.48943 0.23536 0.0
C206 C 0.79675 0.46079 0.30549 0.0
C207 C 0.79179 0.48757 0.25426 0.0
H208 H 0.54761 0.88666 0.27768 0.0
H209 H 0.54127 0.76651 0.31153 0.0
H210 H 0.50187 0.75918 0.21233 0.0
H211 H 0.46565 0.78754 0.12094 0.0
H212 H 0.47282 0.90786 0.08738 0.0
H213 H 0.51584 0.91424 0.18108 0.0
C214 C 0.53769 0.85884 0.26328 0.0
C215 C 0.54688 0.82727 0.30243 0.0
C216 C 0.51521 0.85481 0.20623 0.0
C217 C 0.53445 0.79132 0.28237 0.0
C218 C 0.51186 0.7871 0.22574 0.0
C219 C 0.4769 0.81512 0.13361 0.0
C220 C 0.46558 0.84716 0.09746 0.0
C221 C 0.50154 0.81874 0.18798 0.0
C222 C 0.48083 0.88264 0.11431 0.0
C223 C 0.50537 0.88642 0.16817 0.0
H224 H 0.17326 0.50825 0.10316 0.0
H225 H 0.22613 0.4187 0.21299 0.0
H226 H 0.23241 0.4597 0.31128 0.0
H227 H 0.21384 0.51814 0.37001 0.0
H228 H 0.15973 0.60622 0.25832 0.0
H229 H 0.16348 0.56909 0.15591 0.0
C230 C 0.18672 0.49801 0.14837 0.0
C231 C 0.19863 0.46061 0.15186 0.0
C232 C 0.1899 0.52148 0.20407 0.0
C233 C 0.21665 0.44753 0.20978 0.0
C234 C 0.22004 0.47086 0.26587 0.0
C235 C 0.20406 0.52942 0.3226 0.0
C236 C 0.1866 0.56456 0.32077 0.0
C237 C 0.20556 0.50747 0.26428 0.0
C238 C 0.17338 0.57913 0.25997 0.0
C239 C 0.1753 0.55788 0.20177 0.0
H240 H 0.48417 0.83732 0.57178 0.0
H241 H 0.56159 0.75961 0.66094 0.0
H242 H 0.51955 0.75059 0.75693 0.0
H243 H 0.46597 0.77384 0.82359 0.0
H244 H 0.39187 0.85491 0.7346 0.0
H245 H 0.42695 0.8532 0.63006 0.0
C246 C 0.49152 0.81787 0.61169 0.0
C247 C 0.5261 0.79977 0.61023 0.0
C248 C 0.46787 0.81371 0.66701 0.0
C249 C 0.53507 0.77403 0.66133 0.0
C250 C 0.5112 0.7691 0.7164 0.0
C251 C 0.45709 0.7902 0.78051 0.0
C252 C 0.42684 0.81479 0.78648 0.0
C253 C 0.47827 0.79008 0.72109 0.0
C254 C 0.41543 0.83612 0.73087 0.0
C255 C 0.43548 0.83524 0.67128 0.0
H256 H 0.12939 0.44859 0.80191 0.0
H257 H 0.24145 0.4818 0.85744 0.0
H258 H 0.24436 0.52518 0.76072 0.0
H259 H 0.21258 0.55624 0.66463 0.0
H260 H 0.09998 0.52075 0.61358 0.0
H261 H 0.09984 0.47571 0.70489 0.0
C262 C 0.15455 0.46533 0.79299 0.0
C263 C 0.18491 0.46268 0.83711 0.0
C264 C 0.1558 0.48989 0.73837 0.0
C265 C 0.21767 0.48364 0.82406 0.0
C266 C 0.2192 0.50848 0.7691 0.0
C267 C 0.18815 0.53848 0.67329 0.0
C268 C 0.15621 0.54235 0.6325 0.0
C269 C 0.18808 0.5123 0.72652 0.0
C270 C 0.12487 0.51886 0.64425 0.0
C271 C 0.12468 0.49294 0.69652 0.0
H272 H 0.44262 0.19038 0.66573 0.0
H273 H 0.41758 0.07221 0.69785 0.0
H274 H 0.46056 0.07089 0.79229 0.0
H275 H 0.5073 0.10203 0.8621 0.0
H276 H 0.53374 0.21988 0.83024 0.0
H277 H 0.48797 0.22245 0.73949 0.0
C278 C 0.44626 0.16443 0.69377 0.0
C279 C 0.42702 0.13141 0.67423 0.0
C280 C 0.47144 0.16367 0.74782 0.0
C281 C 0.4322 0.09801 0.71123 0.0
C282 C 0.4568 0.09718 0.76534 0.0
C283 C 0.50311 0.1284 0.83559 0.0
C284 C 0.52424 0.16063 0.85286 0.0
C285 C 0.47697 0.12966 0.78337 0.0
C286 C 0.51803 0.19455 0.818 0.0
C287 C 0.49185 0.19606 0.76602 0.0
H288 H 0.87224 0.56816 0.76936 0.0
H289 H 0.77353 0.52453 0.8679 0.0
H290 H 0.7659 0.47677 0.78001 0.0
H291 H 0.79072 0.44458 0.67858 0.0
H292 H 0.88885 0.49196 0.58154 0.0
H293 H 0.89291 0.54094 0.66484 0.0
C294 C 0.84893 0.54829 0.77145 0.0
C295 C 0.82385 0.54939 0.82528 0.0
C296 C 0.84466 0.52137 0.72097 0.0
C297 C 0.7933 0.52407 0.82678 0.0
C298 C 0.78903 0.4967 0.77672 0.0
C299 C 0.81264 0.46589 0.67536 0.0
C300 C 0.83984 0.46384 0.62444 0.0
C301 C 0.81499 0.49463 0.72399 0.0
C302 C 0.86791 0.49205 0.62078 0.0
C303 C 0.87034 0.52033 0.66841 0.0
H304 H 0.92188 0.63296 0.76172 0.0
H305 H 0.95422 0.745 0.8232 0.0
H306 H -0.00242 0.74975 0.72777 0.0
H307 H 0.0316 0.71836 0.63595 0.0
H308 H -0.00021 0.60482 0.58022 0.0
H309 H 0.95088 0.60434 0.66485 0.0
C310 C 0.9381 0.65867 0.7538 0.0
C311 C 0.93544 0.68838 0.79981 0.0
C312 C 0.9634 0.66064 0.70054 0.0
C313 C 0.95591 0.72178 0.78836 0.0
C314 C 0.9809 0.72429 0.73425 0.0
C315 C 0.01368 0.69368 0.64174 0.0
C316 C 0.01986 0.66142 0.60236 0.0
C317 C 0.98577 0.69334 0.6914 0.0
C318 C -0.00385 0.62982 0.61034 0.0
C319 C 0.96807 0.62951 0.65867 0.0
H320 H 0.30948 0.97827 0.57977 0.0
H321 H 0.25218 0.06682 0.68322 0.0
H322 H 0.24494 0.02616 0.78228 0.0
H323 H 0.26635 0.96995 0.84548 0.0
H324 H 0.32624 0.88352 0.74112 0.0
H325 H 0.32046 0.91826 0.63586 0.0
C326 C 0.29457 0.98824 0.6235 0.0
C327 C 0.28199 0.02546 0.62513 0.0
C328 C 0.29129 0.96512 0.68016 0.0
C329 C 0.26219 0.03815 0.68127 0.0
C330 C 0.25834 0.01504 0.73799 0.0
C331 C 0.27681 0.95832 0.79903 0.0
C332 C 0.29683 0.92459 0.80029 0.0
C333 C 0.27438 0.97912 0.73904 0.0
C334 C 0.31082 0.90962 0.74058 0.0
C335 C 0.30771 0.92953 0.68067 0.0
H336 H 0.95933 0.39223 0.6693 0.0
H337 H 0.96535 0.27178 0.64309 0.0
H338 H 0.00889 0.26759 0.73743 0.0
H339 H 0.0465 0.29868 0.82561 0.0
H340 H 0.03876 0.41928 0.85061 0.0
H341 H 0.9946 0.42264 0.75848 0.0
C342 C 0.97017 0.36498 0.68394 0.0
C343 C 0.95932 0.33242 0.64868 0.0
C344 C -0.00509 0.36277 0.73814 0.0
C345 C 0.97326 0.29733 0.66925 0.0
C346 C -0.00178 0.29493 0.72312 0.0
C347 C 0.03507 0.32567 0.81106 0.0
C348 C 0.04614 0.35864 0.84518 0.0
C349 C 0.00943 0.32753 0.75771 0.0
C350 C 0.03081 0.39335 0.82566 0.0
C351 C 0.00556 0.3954 0.77271 0.0
H352 H 0.60201 0.01955 0.85782 0.0
H353 H 0.71494 0.05866 0.82034 0.0
H354 H 0.72045 0.01344 0.72861 0.0
H355 H 0.69203 0.96423 0.65623 0.0
H356 H 0.57844 0.92735 0.69456 0.0
H357 H 0.57463 0.97016 0.78906 0.0
C358 C 0.62799 0.01832 0.82994 0.0
C359 C 0.65796 0.04277 0.84613 0.0
C360 C 0.63088 0.99253 0.77725 0.0
C361 C 0.69133 0.04036 0.80911 0.0
C362 C 0.69451 0.01446 0.75659 0.0
C363 C 0.66661 0.96528 0.68574 0.0
C364 C 0.63553 0.94259 0.66798 0.0
C365 C 0.66433 0.99055 0.73987 0.0
C366 C 0.60272 0.94458 0.70659 0.0
C367 C 0.60047 0.9691 0.76075 0.0
H368 H 0.03016 0.29533 0.13013 0.0
H369 H 0.0919 0.38964 0.21243 0.0
H370 H 0.05327 0.3879 0.31252 0.0
H371 H -0.00112 0.36422 0.37168 0.0
H372 H 0.93388 0.27176 0.29163 0.0
H373 H 0.97714 0.26762 0.1962 0.0
C374 C 0.03534 0.31502 0.17055 0.0
C375 C 0.06342 0.34294 0.16357 0.0
C376 C 0.01235 0.31439 0.22799 0.0
C377 C 0.07001 0.36834 0.21618 0.0
C378 C 0.04801 0.36735 0.27351 0.0
C379 C 0.99419 0.34295 0.33358 0.0
C380 C 0.96293 0.31878 0.33797 0.0
C381 C 0.01854 0.34127 0.27902 0.0
C382 C 0.95774 0.29081 0.28911 0.0
C383 C 0.98234 0.28861 0.23444 0.0
H384 H 0.70277 0.95067 0.31465 0.0
H385 H 0.60446 0.99681 0.40779 0.0
H386 H 0.60164 0.04565 0.32259 0.0
H387 H 0.62231 0.07111 0.21549 0.0
H388 H 0.72052 0.02753 0.11976 0.0
H389 H 0.72852 0.9822 0.21224 0.0
C390 C 0.68126 0.97188 0.31688 0.0
C391 C 0.65345 0.96956 0.36681 0.0
C392 C 0.6795 0.0001 0.26691 0.0
C393 C 0.6258 0.9974 0.36921 0.0
C394 C 0.6241 0.02544 0.32051 0.0
C395 C 0.64572 0.05193 0.21529 0.0
C396 C 0.67044 0.05207 0.1608 0.0
C397 C 0.65 0.02629 0.26808 0.0
C398 C 0.70109 0.02771 0.1614 0.0
C399 C 0.70551 0.00174 0.21403 0.0
H400 H -0.00408 0.63895 0.08849 0.0
H401 H 0.93476 0.73661 0.1519 0.0
H402 H 0.97798 0.7458 0.24518 0.0
H403 H 0.02863 0.72118 0.31681 0.0
H404 H 0.08787 0.62238 0.25349 0.0
H405 H 0.05053 0.61905 0.1517 0.0
C406 C 0.99222 0.66245 0.12234 0.0
C407 C 0.96181 0.68657 0.11396 0.0
C408 C 0.01689 0.6674 0.17608 0.0
C409 C 0.95782 0.71736 0.15751 0.0
C410 C 0.98248 0.72264 0.21102 0.0
C411 C 0.03385 0.6996 0.27977 0.0
C412 C 0.06045 0.67181 0.29271 0.0
C413 C 0.01152 0.69719 0.22193 0.0
C414 C 0.06707 0.6438 0.2447 0.0
C415 C 0.04569 0.64177 0.18664 0.0
H416 H 0.27776 0.95289 0.13557 0.0
H417 H 0.39469 0.97543 0.09481 0.0
H418 H 0.39763 0.01883 0.18838 0.0
H419 H 0.3687 0.04681 0.28621 0.0
H420 H 0.25193 0.02601 0.32811 0.0
H421 H 0.24717 0.98559 0.22907 0.0
C422 C 0.30379 0.96753 0.14681 0.0
C423 C 0.33602 0.96051 0.10861 0.0
C424 C 0.30542 0.99253 0.201 0.0
C425 C 0.36943 0.9801 0.12338 0.0
C426 C 0.37125 0.00488 0.17709 0.0
C427 C 0.34216 0.03348 0.27358 0.0
C428 C 0.31087 0.03872 0.3147 0.0
C429 C 0.33968 0.01065 0.21694 0.0
C430 C 0.27643 0.02213 0.29711 0.0
C431 C 0.27376 -0.00101 0.24074 0.0
H432 H 0.74321 0.31518 0.32085 0.0
H433 H 0.82178 0.22471 0.34639 0.0
H434 H 0.79316 0.19076 0.25373 0.0
H435 H 0.74606 0.18638 0.16512 0.0
H436 H 0.6671 0.27638 0.13937 0.0
H437 H 0.69578 0.31065 0.23202 0.0
C438 C 0.75403 0.28799 0.30639 0.0
C439 C 0.78467 0.27269 0.34092 0.0
C440 C 0.73748 0.26844 0.25265 0.0
C441 C 0.79827 0.23738 0.32101 0.0
C442 C 0.78195 0.21784 0.26781 0.0
C443 C 0.73517 0.21356 0.17944 0.0
C444 C 0.70446 0.22867 0.14496 0.0
C445 C 0.75162 0.23312 0.23314 0.0
C446 C 0.69068 0.26391 0.16484 0.0
C447 C 0.70705 0.2836 0.21797 0.0
H448 H 0.8092 0.7688 0.15269 0.0
H449 H 0.75221 0.66153 0.17868 0.0
H450 H 0.71669 0.68664 0.27146 0.0
H451 H 0.69919 0.73915 0.34135 0.0
H452 H 0.75509 0.84692 0.31909 0.0
H453 H 0.79383 0.82137 0.22893 0.0
C454 C 0.78927 0.75086 0.17908 0.0
C455 C 0.78314 0.71344 0.15796 0.0
C456 C 0.76854 0.76555 0.23271 0.0
C457 C 0.75725 0.69056 0.19301 0.0
C458 C 0.73686 0.70485 0.24625 0.0
C459 C 0.71978 0.75719 0.31678 0.0
C460 C 0.72389 0.795 0.33615 0.0
C461 C 0.74179 0.74239 0.26564 0.0
C462 C 0.7513 0.81771 0.30482 0.0
C463 C 0.77338 0.80313 0.25326 0.0
H464 H 0.26014 0.82588 0.19278 0.0
H465 H 0.34087 0.73717 0.17181 0.0
H466 H 0.31449 0.70486 0.26948 0.0
H467 H 0.2642 0.69836 0.35265 0.0
H468 H 0.18247 0.78641 0.37034 0.0
H469 H 0.21385 0.82241 0.28226 0.0
C470 C 0.27228 0.79967 0.2098 0.0
C471 C 0.302 0.78369 0.17415 0.0
C472 C 0.25662 0.78089 0.26513 0.0
C473 C 0.31773 0.74999 0.19781 0.0
C474 C 0.30259 0.73139 0.25359 0.0
C475 C 0.25353 0.72565 0.33794 0.0
C476 C 0.22066 0.73931 0.36738 0.0
C477 C 0.27134 0.74604 0.28639 0.0
C478 C 0.20739 0.77488 0.3479 0.0
C479 C 0.22531 0.79556 0.2975 0.0
H480 H 0.24525 0.17666 0.29563 0.0
H481 H 0.32858 0.26091 0.34647 0.0
H482 H 0.3073 0.30072 0.25419 0.0
H483 H 0.2633 0.31257 0.16178 0.0
H484 H 0.17986 0.22784 0.1134 0.0
H485 H 0.20317 0.18734 0.20212 0.0
C486 C 0.2589 0.20369 0.28669 0.0
C487 C 0.28829 0.21582 0.32836 0.0
C488 C 0.24648 0.22646 0.23399 0.0
C489 C 0.30577 0.25085 0.31538 0.0
C490 C 0.29362 0.27368 0.26263 0.0
C491 C 0.25039 0.28515 0.17033 0.0
C492 C 0.21971 0.27347 0.13114 0.0
C493 C 0.26374 0.26191 0.22198 0.0
C494 C 0.20331 0.2378 0.14304 0.0
C495 C 0.21661 0.21451 0.19379 0.0
H496 H 0.22666 0.67359 0.69558 0.0
H497 H 0.15104 0.76644 0.66836 0.0
H498 H 0.17686 0.79699 0.76784 0.0
H499 H 0.22548 0.80051 0.85386 0.0
H500 H 0.3031 0.70897 0.87668 0.0
H501 H 0.27141 0.67448 0.78742 0.0
C502 C 0.21556 0.70042 0.71144 0.0
C503 C 0.18747 0.71807 0.67373 0.0
C504 C 0.23096 0.7181 0.76761 0.0
C505 C 0.17294 0.75242 0.69601 0.0
C506 C 0.18773 0.76994 0.7528 0.0
C507 C 0.23516 0.77274 0.84017 0.0
C508 C 0.26697 0.75757 0.87127 0.0
C509 C 0.21746 0.75351 0.78773 0.0
C510 C 0.27898 0.7215 0.85299 0.0
C511 C 0.26093 0.70179 0.80191 0.0
H512 H 0.30372 0.25117 0.64773 0.0
H513 H 0.21634 0.16623 0.63898 0.0
H514 H 0.18245 0.19778 0.7282 0.0
H515 H 0.17853 0.2485 0.81114 0.0
H516 H 0.26619 0.33337 0.81839 0.0
H517 H 0.29872 0.30282 0.72721 0.0
C518 C 0.27728 0.23951 0.6653 0.0
C519 C 0.26277 0.20632 0.63691 0.0
C520 C 0.25786 0.25777 0.71643 0.0
C521 C 0.22822 0.19182 0.65988 0.0
C522 C 0.20879 0.20979 0.711 0.0
C523 C 0.20462 0.26044 0.79256 0.0
C524 C 0.2199 0.29302 0.82216 0.0
C525 C 0.22346 0.24268 0.73994 0.0
C526 C 0.25376 0.30815 0.79711 0.0
C527 C 0.27252 0.29071 0.74485 0.0
H528 H 0.73609 0.31 0.65019 0.0
H529 H 0.8339 0.24084 0.67317 0.0
H530 H 0.80367 0.206 0.76369 0.0
H531 H 0.74976 0.19447 0.83603 0.0
H532 H 0.65161 0.26314 0.81507 0.0
H533 H 0.68171 0.29856 0.72416 0.0
C534 C 0.75087 0.28744 0.67517 0.0
C535 C 0.78728 0.27817 0.65442 0.0
C536 C 0.73324 0.26718 0.72748 0.0
C537 C 0.80585 0.24867 0.68752 0.0
C538 C 0.78858 0.22861 0.73947 0.0
C539 C 0.73476 0.21707 0.81158 0.0
C540 C 0.69837 0.22594 0.83255 0.0
C541 C 0.75226 0.23747 0.75965 0.0
C542 C 0.67964 0.25558 0.80018 0.0
C543 C 0.69686 0.27593 0.74813 0.0
H544 H 0.71957 0.8209 0.69824 0.0
H545 H 0.68734 0.71849 0.59648 0.0
H546 H 0.71225 0.68089 0.68837 0.0
H547 H 0.74602 0.67694 0.79586 0.0
H548 H 0.77829 0.77964 0.89643 0.0
H549 H 0.75001 0.81705 0.80775 0.0
C550 C 0.71816 0.79037 0.69606 0.0
C551 C 0.70197 0.77262 0.64035 0.0
C552 C 0.73224 0.76884 0.74929 0.0
C553 C 0.69977 0.73296 0.63879 0.0
C554 C 0.71394 0.71136 0.69138 0.0
C555 C 0.74615 0.70746 0.79879 0.0
C556 C 0.76431 0.72549 0.85224 0.0
C557 C 0.73043 0.72896 0.74681 0.0
C558 C 0.76466 0.76512 0.85532 0.0
C559 C 0.74865 0.78658 0.80456 0.0
loop_
_geom_bond_atom_site_label_1
_geom_bond_atom_site_label_2
_geom_bond_distance
_geom_bond_site_symmetry_2
_ccdc_geom_bond_type
Sc0 O3 2.025 . S
Sc0 O10 2.105 1_554 S
Sc0 O13 2.105 . S
Sc0 O16 2.105 . S
Sc0 O19 2.105 1_554 S
Sc1 O3 2.025 . S
Sc1 O11 2.105 1_554 S
Sc1 O15 2.105 . S
Sc1 O17 2.105 . S
Sc1 O21 2.105 1_554 S
Sc2 O3 2.025 . S
Sc2 O12 2.105 1_554 S
Sc2 O14 2.105 . S
Sc2 O18 2.105 . S
Sc2 O20 2.105 1_554 S
O3 Sc0 2.025 . S
O3 Sc1 2.025 . S
O3 Sc2 2.025 . S
C4 O10 1.268 . S
C4 O20 1.268 . S
C5 O11 1.268 . S
C5 O19 1.268 . S
C6 O12 1.268 . S
C6 O21 1.268 . S
C7 O13 1.268 . S
C7 O17 1.268 . S
C8 O14 1.268 . S
C8 O16 1.268 . S
C9 O15 1.268 . S
C9 O18 1.268 . S
O10 Sc0 2.105 1_556 S
O10 C4 1.268 . S
O11 Sc1 2.105 1_556 S
O11 C5 1.268 . S
O12 Sc2 2.105 1_556 S
O12 C6 1.268 . S
O13 Sc0 2.105 . S
O13 C7 1.268 . S
O14 Sc2 2.105 . S
O14 C8 1.268 . S
O15 Sc1 2.105 . S
O15 C9 1.268 . S
O16 Sc0 2.105 . S
O16 C8 1.268 . S
O17 Sc1 2.105 . S
O17 C7 1.268 . S
O18 Sc2 2.105 . S
O18 C9 1.268 . S
O19 Sc0 2.105 1_556 S
O19 C5 1.268 . S
O20 Sc2 2.105 1_556 S
O20 C4 1.268 . S
O21 Sc1 2.105 1_556 S
O21 C6 1.268 . S
Sc22 O25 2.025 . S
Sc22 O32 2.105 1_554 S
Sc22 O35 2.105 . S
Sc22 O38 2.105 . S
Sc22 O41 2.105 1_554 S
Sc23 O25 2.025 . S
Sc23 O33 2.105 1_554 S
Sc23 O37 2.105 . S
Sc23 O39 2.105 . S
Sc23 O43 2.105 1_554 S
Sc24 O25 2.025 . S
Sc24 O34 2.105 1_554 S
Sc24 O36 2.105 . S
Sc24 O40 2.105 . S
Sc24 O42 2.105 1_554 S
O25 Sc22 2.025 . S
O25 Sc23 2.025 . S
O25 Sc24 2.025 . S
C26 O32 1.268 . S
C26 O42 1.268 . S
C27 O33 1.268 . S
C27 O41 1.268 . S
C28 O34 1.268 . S
C28 O43 1.268 . S
C29 O35 1.268 . S
C29 O39 1.268 . S
C30 O36 1.268 . S
C30 O38 1.268 . S
C31 O37 1.268 . S
C31 O40 1.268 . S
O32 Sc22 2.105 1_556 S
O32 C26 1.268 . S
O33 Sc23 2.105 1_556 S
O33 C27 1.268 . S
O34 Sc24 2.105 1_556 S
O34 C28 1.268 . S
O35 Sc22 2.105 . S
O35 C29 1.268 . S
O36 Sc24 2.105 . S
O36 C30 1.268 . S
O37 Sc23 2.105 . S
O37 C31 1.268 . S
O38 Sc22 2.105 . S
O38 C30 1.268 . S
O39 Sc23 2.105 . S
O39 C29 1.268 . S
O40 Sc24 2.105 . S
O40 C31 1.268 . S
O41 Sc22 2.105 1_556 S
O41 C27 1.268 . S
O42 Sc24 2.105 1_556 S
O42 C26 1.268 . S
O43 Sc23 2.105 1_556 S
O43 C28 1.268 . S
Sc44 O47 2.025 . S
Sc44 O54 2.105 1_554 S
Sc44 O57 2.105 . S
Sc44 O60 2.105 . S
Sc44 O63 2.105 1_554 S
Sc45 O47 2.025 . S
Sc45 O55 2.105 1_554 S
Sc45 O59 2.105 . S
Sc45 O61 2.105 . S
Sc45 O65 2.105 1_554 S
Sc46 O47 2.025 . S
Sc46 O56 2.105 1_554 S
Sc46 O58 2.105 . S
Sc46 O62 2.105 . S
Sc46 O64 2.105 1_554 S
O47 Sc44 2.025 . S
O47 Sc45 2.025 . S
O47 Sc46 2.025 . S
C48 O54 1.268 . S
C48 O64 1.268 . S
C49 O55 1.268 . S
C49 O63 1.268 . S
C50 O56 1.268 . S
C50 O65 1.268 . S
C51 O57 1.268 . S
C51 O61 1.268 . S
C52 O58 1.268 . S
C52 O60 1.268 . S
C53 O59 1.268 . S
C53 O62 1.268 . S
O54 Sc44 2.105 1_556 S
O54 C48 1.268 . S
O55 Sc45 2.105 1_556 S
O55 C49 1.268 . S
O56 Sc46 2.105 1_556 S
O56 C50 1.268 . S
O57 Sc44 2.105 . S
O57 C51 1.268 . S
O58 Sc46 2.105 . S
O58 C52 1.268 . S
O59 Sc45 2.105 . S
O59 C53 1.268 . S
O60 Sc44 2.105 . S
O60 C52 1.268 . S
O61 Sc45 2.105 . S
O61 C51 1.268 . S
O62 Sc46 2.105 . S
O62 C53 1.268 . S
O63 Sc44 2.105 1_556 S
O63 C49 1.268 . S
O64 Sc46 2.105 1_556 S
O64 C48 1.268 . S
O65 Sc45 2.105 1_556 S
O65 C50 1.268 . S
Sc66 O69 2.025 . S
Sc66 O76 2.105 1_554 S
Sc66 O79 2.105 . S
Sc66 O82 2.105 . S
Sc66 O85 2.105 1_554 S
Sc67 O69 2.025 . S
Sc67 O77 2.105 1_554 S
Sc67 O81 2.105 . S
Sc67 O83 2.105 . S
Sc67 O87 2.105 1_554 S
Sc68 O69 2.025 . S
Sc68 O78 2.105 1_554 S
Sc68 O80 2.105 . S
Sc68 O84 2.105 . S
Sc68 O86 2.105 1_554 S
O69 Sc66 2.025 . S
O69 Sc67 2.025 . S
O69 Sc68 2.025 . S
C70 O76 1.268 . S
C70 O86 1.268 . S
C71 O77 1.268 . S
C71 O85 1.268 . S
C72 O78 1.268 . S
C72 O87 1.268 . S
C73 O79 1.268 . S
C73 O83 1.268 . S
C74 O80 1.268 . S
C74 O82 1.268 . S
C75 O81 1.268 . S
C75 O84 1.268 . S
O76 Sc66 2.105 1_556 S
O76 C70 1.268 . S
O77 Sc67 2.105 1_556 S
O77 C71 1.268 . S
O78 Sc68 2.105 1_556 S
O78 C72 1.268 . S
O79 Sc66 2.105 . S
O79 C73 1.268 . S
O80 Sc68 2.105 . S
O80 C74 1.268 . S
O81 Sc67 2.105 . S
O81 C75 1.268 . S
O82 Sc66 2.105 . S
O82 C74 1.268 . S
O83 Sc67 2.105 . S
O83 C73 1.268 . S
O84 Sc68 2.105 . S
O84 C75 1.268 . S
O85 Sc66 2.105 1_556 S
O85 C71 1.268 . S
O86 Sc68 2.105 1_556 S
O86 C70 1.268 . S
O87 Sc67 2.105 1_556 S
O87 C72 1.268 . S
Sc88 O91 2.025 . S
Sc88 O98 2.105 . S
Sc88 O101 2.105 . S
Sc88 O104 2.105 . S
Sc88 O107 2.105 . S
Sc89 O91 2.025 . S
Sc89 O99 2.105 . S
Sc89 O103 2.105 . S
Sc89 O105 2.105 . S
Sc89 O109 2.105 . S
Sc90 O91 2.025 . S
Sc90 O100 2.105 . S
Sc90 O102 2.105 . S
Sc90 O106 2.105 . S
Sc90 O108 2.105 . S
O91 Sc88 2.025 . S
O91 Sc89 2.025 . S
O91 Sc90 2.025 . S
C92 O98 1.268 . S
C92 O108 1.268 . S
C93 O99 1.268 . S
C93 O107 1.268 . S
C94 O100 1.268 . S
C94 O109 1.268 . S
C95 O101 1.268 . S
C95 O105 1.268 . S
C96 O102 1.268 . S
C96 O104 1.268 . S
C97 O103 1.268 . S
C97 O106 1.268 . S
O98 Sc88 2.105 . S
O98 C92 1.268 . S
O99 Sc89 2.105 . S
O99 C93 1.268 . S
O100 Sc90 2.105 . S
O100 C94 1.268 . S
O101 Sc88 2.105 . S
O101 C95 1.268 . S
O102 Sc90 2.105 . S
O102 C96 1.268 . S
O103 Sc89 2.105 . S
O103 C97 1.268 . S
O104 Sc88 2.105 . S
O104 C96 1.268 . S
O105 Sc89 2.105 . S
O105 C95 1.268 . S
O106 Sc90 2.105 . S
O106 C97 1.268 . S
O107 Sc88 2.105 . S
O107 C93 1.268 . S
O108 Sc90 2.105 . S
O108 C92 1.268 . S
O109 Sc89 2.105 . S
O109 C94 1.268 . S
Sc110 O113 2.025 . S
Sc110 O120 2.105 . S
Sc110 O123 2.105 . S
Sc110 O126 2.105 . S
Sc110 O129 2.105 . S
Sc111 O113 2.025 . S
Sc111 O121 2.105 . S
Sc111 O125 2.105 . S
Sc111 O127 2.105 . S
Sc111 O131 2.105 . S
Sc112 O113 2.025 . S
Sc112 O122 2.105 . S
Sc112 O124 2.105 . S
Sc112 O128 2.105 . S
Sc112 O130 2.105 . S
O113 Sc110 2.025 . S
O113 Sc111 2.025 . S
O113 Sc112 2.025 . S
C114 O120 1.268 . S
C114 O130 1.268 . S
C115 O121 1.268 . S
C115 O129 1.268 . S
C116 O122 1.268 . S
C116 O131 1.268 . S
C117 O123 1.268 . S
C117 O127 1.268 . S
C118 O124 1.268 . S
C118 O126 1.268 . S
C119 O125 1.268 . S
C119 O128 1.268 . S
O120 Sc110 2.105 . S
O120 C114 1.268 . S
O121 Sc111 2.105 . S
O121 C115 1.268 . S
O122 Sc112 2.105 . S
O122 C116 1.268 . S
O123 Sc110 2.105 . S
O123 C117 1.268 . S
O124 Sc112 2.105 . S
O124 C118 1.268 . S
O125 Sc111 2.105 . S
O125 C119 1.268 . S
O126 Sc110 2.105 . S
O126 C118 1.268 . S
O127 Sc111 2.105 . S
O127 C117 1.268 . S
O128 Sc112 2.105 . S
O128 C119 1.268 . S
O129 Sc110 2.105 . S
O129 C115 1.268 . S
O130 Sc112 2.105 . S
O130 C114 1.268 . S
O131 Sc111 2.105 . S
O131 C116 1.268 . S
Sc132 O135 2.025 . S
Sc132 O142 2.105 . S
Sc132 O145 2.105 . S
Sc132 O148 2.105 . S
Sc132 O151 2.105 . S
Sc133 O135 2.025 . S
Sc133 O143 2.105 . S
Sc133 O147 2.105 . S
Sc133 O149 2.105 . S
Sc133 O153 2.105 . S
Sc134 O135 2.025 . S
Sc134 O144 2.105 . S
Sc134 O146 2.105 . S
Sc134 O150 2.105 . S
Sc134 O152 2.105 . S
O135 Sc132 2.025 . S
O135 Sc133 2.025 . S
O135 Sc134 2.025 . S
C136 O142 1.268 . S
C136 O152 1.268 . S
C137 O143 1.268 . S
C137 O151 1.268 . S
C138 O144 1.268 . S
C138 O153 1.268 . S
C139 O145 1.268 . S
C139 O149 1.268 . S
C140 O146 1.268 . S
C140 O148 1.268 . S
C141 O147 1.268 . S
C141 O150 1.268 . S
O142 Sc132 2.105 . S
O142 C136 1.268 . S
O143 Sc133 2.105 . S
O143 C137 1.268 . S
O144 Sc134 2.105 . S
O144 C138 1.268 . S
O145 Sc132 2.105 . S
O145 C139 1.268 . S
O146 Sc134 2.105 . S
O146 C140 1.268 . S
O147 Sc133 2.105 . S
O147 C141 1.268 . S
O148 Sc132 2.105 . S
O148 C140 1.268 . S
O149 Sc133 2.105 . S
O149 C139 1.268 . S
O150 Sc134 2.105 . S
O150 C141 1.268 . S
O151 Sc132 2.105 . S
O151 C137 1.268 . S
O152 Sc134 2.105 . S
O152 C136 1.268 . S
O153 Sc133 2.105 . S
O153 C138 1.268 . S
Sc154 O157 2.025 . S
Sc154 O164 2.105 . S
Sc154 O167 2.105 . S
Sc154 O170 2.105 . S
Sc154 O173 2.105 . S
Sc155 O157 2.025 . S
Sc155 O165 2.105 . S
Sc155 O169 2.105 . S
Sc155 O171 2.105 . S
Sc155 O175 2.105 . S
Sc156 O157 2.025 . S
Sc156 O166 2.105 . S
Sc156 O168 2.105 . S
Sc156 O172 2.105 . S
Sc156 O174 2.105 . S
O157 Sc154 2.025 . S
O157 Sc155 2.025 . S
O157 Sc156 2.025 . S
C158 O164 1.268 . S
C158 O174 1.268 . S
C159 O165 1.268 . S
C159 O173 1.268 . S
C160 O166 1.268 . S
C160 O175 1.268 . S
C161 O167 1.268 . S
C161 O171 1.268 . S
C162 O168 1.268 . S
C162 O170 1.268 . S
C163 O169 1.268 . S
C163 O172 1.268 . S
O164 Sc154 2.105 . S
O164 C158 1.268 . S
O165 Sc155 2.105 . S
O165 C159 1.268 . S
O166 Sc156 2.105 . S
O166 C160 1.268 . S
O167 Sc154 2.105 . S
O167 C161 1.268 . S
O168 Sc156 2.105 . S
O168 C162 1.268 . S
O169 Sc155 2.105 . S
O169 C163 1.268 . S
O170 Sc154 2.105 . S
O170 C162 1.268 . S
O171 Sc155 2.105 . S
O171 C161 1.268 . S
O172 Sc156 2.105 . S
O172 C163 1.268 . S
O173 Sc154 2.105 . S
O173 C159 1.268 . S
O174 Sc156 2.105 . S
O174 C158 1.268 . S
O175 Sc155 2.105 . S
O175 C160 1.268 . S
H176 C182 0.930 . S
H177 C185 0.930 . S
H178 C186 0.930 . S
H179 C187 0.930 . S
H180 C190 0.930 . S
H181 C191 0.930 . S
C182 H176 0.930 . S
C182 C183 1.355 . S
C182 C184 1.415 . S
C183 C182 1.355 . S
C183 C185 1.419 . S
C184 C182 1.415 . S
C184 C189 1.425 . S
C184 C191 1.409 . S
C185 H177 0.930 . S
C185 C183 1.419 . S
C185 C186 1.362 . S
C186 H178 0.930 . S
C186 C185 1.362 . S
C186 C189 1.409 . S
C187 H179 0.930 . S
C187 C188 1.355 . S
C187 C189 1.415 . S
C188 C187 1.355 . S
C188 C190 1.419 . S
C189 C184 1.425 . S
C189 C186 1.409 . S
C189 C187 1.415 . S
C190 H180 0.930 . S
C190 C188 1.419 . S
C190 C191 1.362 . S
C191 H181 0.930 . S
C191 C184 1.409 . S
C191 C190 1.362 . S
H192 C198 0.930 . S
H193 C201 0.930 . S
H194 C202 0.930 . S
H195 C203 0.930 . S
H196 C206 0.930 . S
H197 C207 0.930 . S
C198 H192 0.930 . S
C198 C199 1.355 . S
C198 C200 1.415 . S
C199 C198 1.355 . S
C199 C201 1.419 . S
C200 C198 1.415 . S
C200 C205 1.425 . S
C200 C207 1.409 . S
C201 H193 0.930 . S
C201 C199 1.419 . S
C201 C202 1.362 . S
C202 H194 0.930 . S
C202 C201 1.362 . S
C202 C205 1.409 . S
C203 H195 0.930 . S
C203 C204 1.355 . S
C203 C205 1.415 . S
C204 C203 1.355 . S
C204 C206 1.419 . S
C205 C200 1.425 . S
C205 C202 1.409 . S
C205 C203 1.415 . S
C206 H196 0.930 . S
C206 C204 1.419 . S
C206 C207 1.362 . S
C207 H197 0.930 . S
C207 C200 1.409 . S
C207 C206 1.362 . S
H208 C214 0.930 . S
H209 C217 0.930 . S
H210 C218 0.930 . S
H211 C219 0.930 . S
H212 C222 0.930 . S
H213 C223 0.930 . S
C214 H208 0.930 . S
C214 C215 1.355 . S
C214 C216 1.415 . S
C215 C214 1.355 . S
C215 C217 1.419 . S
C216 C214 1.415 . S
C216 C221 1.425 . S
C216 C223 1.409 . S
C217 H209 0.930 . S
C217 C215 1.419 . S
C217 C218 1.362 . S
C218 H210 0.930 . S
C218 C217 1.362 . S
C218 C221 1.409 . S
C219 H211 0.930 . S
C219 C220 1.355 . S
C219 C221 1.415 . S
C220 C219 1.355 . S
C220 C222 1.419 . S
C221 C216 1.425 . S
C221 C218 1.409 . S
C221 C219 1.415 . S
C222 H212 0.930 . S
C222 C220 1.419 . S
C222 C223 1.362 . S
C223 H213 0.930 . S
C223 C216 1.409 . S
C223 C222 1.362 . S
H224 C230 0.930 . S
H225 C233 0.930 . S
H226 C234 0.930 . S
H227 C235 0.930 . S
H228 C238 0.930 . S
H229 C239 0.930 . S
C230 H224 0.930 . S
C230 C231 1.355 . S
C230 C232 1.415 . S
C231 C230 1.355 . S
C231 C233 1.419 . S
C232 C230 1.415 . S
C232 C237 1.425 . S
C232 C239 1.409 . S
C233 H225 0.930 . S
C233 C231 1.419 . S
C233 C234 1.362 . S
C234 H226 0.930 . S
C234 C233 1.362 . S
C234 C237 1.409 . S
C235 H227 0.930 . S
C235 C236 1.355 . S
C235 C237 1.415 . S
C236 C235 1.355 . S
C236 C238 1.419 . S
C237 C232 1.425 . S
C237 C234 1.409 . S
C237 C235 1.415 . S
C238 H228 0.930 . S
C238 C236 1.419 . S
C238 C239 1.362 . S
C239 H229 0.930 . S
C239 C232 1.409 . S
C239 C238 1.362 . S
H240 C246 0.930 . S
H241 C249 0.930 . S
H242 C250 0.930 . S
H243 C251 0.930 . S
H244 C254 0.930 . S
H245 C255 0.930 . S
C246 H240 0.930 . S
C246 C247 1.355 . S
C246 C248 1.415 . S
C247 C246 1.355 . S
C247 C249 1.419 . S
C248 C246 1.415 . S
C248 C253 1.425 . S
C248 C255 1.409 . S
C249 H241 0.930 . S
C249 C247 1.419 . S
C249 C250 1.362 . S
C250 H242 0.930 . S
C250 C249 1.362 . S
C250 C253 1.409 . S
C251 H243 0.930 . S
C251 C252 1.355 . S
C251 C253 1.415 . S
C252 C251 1.355 . S
C252 C254 1.419 . S
C253 C248 1.425 . S
C253 C250 1.409 . S
C253 C251 1.415 . S
C254 H244 0.930 . S
C254 C252 1.419 . S
C254 C255 1.362 . S
C255 H245 0.930 . S
C255 C248 1.409 . S
C255 C254 1.362 . S
H256 C262 0.930 . S
H257 C265 0.930 . S
H258 C266 0.930 . S
H259 C267 0.930 . S
H260 C270 0.930 . S
H261 C271 0.930 . S
C262 H256 0.930 . S
C262 C263 1.355 . S
C262 C264 1.415 . S
C263 C262 1.355 . S
C263 C265 1.419 . S
C264 C262 1.415 . S
C264 C269 1.425 . S
C264 C271 1.409 . S
C265 H257 0.930 . S
C265 C263 1.419 . S
C265 C266 1.362 . S
C266 H258 0.930 . S
C266 C265 1.362 . S
C266 C269 1.409 . S
C267 H259 0.930 . S
C267 C268 1.355 . S
C267 C269 1.415 . S
C268 C267 1.355 . S
C268 C270 1.419 . S
C269 C264 1.425 . S
C269 C266 1.409 . S
C269 C267 1.415 . S
C270 H260 0.930 . S
C270 C268 1.419 . S
C270 C271 1.362 . S
C271 H261 0.930 . S
C271 C264 1.409 . S
C271 C270 1.362 . S
H272 C278 0.930 . S
H273 C281 0.930 . S
H274 C282 0.930 . S
H275 C283 0.930 . S
H276 C286 0.930 . S
H277 C287 0.930 . S
C278 H272 0.930 . S
C278 C279 1.355 . S
C278 C280 1.415 . S
C279 C278 1.355 . S
C279 C281 1.419 . S
C280 C278 1.415 . S
C280 C285 1.425 . S
C280 C287 1.409 . S
C281 H273 0.930 . S
C281 C279 1.419 . S
C281 C282 1.362 . S
C282 H274 0.930 . S
C282 C281 1.362 . S
C282 C285 1.409 . S
C283 H275 0.930 . S
C283 C284 1.355 . S
C283 C285 1.415 . S
C284 C283 1.355 . S
C284 C286 1.419 . S
C285 C280 1.425 . S
C285 C282 1.409 . S
C285 C283 1.415 . S
C286 H276 0.930 . S
C286 C284 1.419 . S
C286 C287 1.362 . S
C287 H277 0.930 . S
C287 C280 1.409 . S
C287 C286 1.362 . S
H288 C294 0.930 . S
H289 C297 0.930 . S
H290 C298 0.930 . S
H291 C299 0.930 . S
H292 C302 0.930 . S
H293 C303 0.930 . S
C294 H288 0.930 . S
C294 C295 1.355 . S
C294 C296 1.415 . S
C295 C294 1.355 . S
C295 C297 1.419 . S
C296 C294 1.415 . S
C296 C301 1.425 . S
C296 C303 1.409 . S
C297 H289 0.930 . S
C297 C295 1.419 . S
C297 C298 1.362 . S
C298 H290 0.930 . S
C298 C297 1.362 . S
C298 C301 1.409 . S
C299 H291 0.930 . S
C299 C300 1.355 . S
C299 C301 1.415 . S
C300 C299 1.355 . S
C300 C302 1.419 . S
C301 C296 1.425 . S
C301 C298 1.409 . S
C301 C299 1.415 . S
C302 H292 0.930 . S
C302 C300 1.419 . S
C302 C303 1.362 . S
C303 H293 0.930 . S
C303 C296 1.409 . S
C303 C302 1.362 . S
H304 C310 0.930 . S
H305 C313 0.930 . S
H306 C314 0.930 . S
H307 C315 0.930 . S
H308 C318 0.930 . S
H309 C319 0.930 . S
C310 H304 0.930 . S
C310 C311 1.355 . S
C310 C312 1.415 . S
C311 C310 1.355 . S
C311 C313 1.419 . S
C312 C310 1.415 . S
C312 C317 1.425 1_655 S
C312 C319 1.409 . S
C313 H305 0.930 . S
C313 C311 1.419 . S
C313 C314 1.362 1_655 S
C314 H306 0.930 . S
C314 C313 1.362 1_455 S
C314 C317 1.409 . S
C315 H307 0.930 . S
C315 C316 1.355 . S
C315 C317 1.415 . S
C316 C315 1.355 . S
C316 C318 1.419 . S
C317 C312 1.425 1_455 S
C317 C314 1.409 . S
C317 C315 1.415 . S
C318 H308 0.930 . S
C318 C316 1.419 . S
C318 C319 1.362 1_455 S
C319 H309 0.930 . S
C319 C312 1.409 . S
C319 C318 1.362 1_655 S
H320 C326 0.930 . S
H321 C329 0.930 . S
H322 C330 0.930 . S
H323 C331 0.930 . S
H324 C334 0.930 . S
H325 C335 0.930 . S
C326 H320 0.930 . S
C326 C327 1.355 . S
C326 C328 1.415 . S
C327 C326 1.355 . S
C327 C329 1.419 . S
C328 C326 1.415 . S
C328 C333 1.425 1_545 S
C328 C335 1.409 1_545 S
C329 H321 0.930 . S
C329 C327 1.419 . S
C329 C330 1.362 . S
C330 H322 0.930 . S
C330 C329 1.362 . S
C330 C333 1.409 1_545 S
C331 H323 0.930 . S
C331 C332 1.355 . S
C331 C333 1.415 . S
C332 C331 1.355 . S
C332 C334 1.419 . S
C333 C328 1.425 1_565 S
C333 C330 1.409 1_565 S
C333 C331 1.415 . S
C334 H324 0.930 . S
C334 C332 1.419 . S
C334 C335 1.362 . S
C335 H325 0.930 . S
C335 C328 1.409 1_565 S
C335 C334 1.362 . S
H336 C342 0.930 . S
H337 C345 0.930 . S
H338 C346 0.924 1_455 S
H339 C347 0.930 . S
H340 C350 0.930 . S
H341 C351 0.924 1_655 S
C342 H336 0.930 . S
C342 C343 1.355 . S
C342 C344 1.415 . S
C343 C342 1.355 . S
C343 C345 1.419 . S
C344 C342 1.415 . S
C344 C349 1.425 1_655 S
C344 C351 1.406 1_655 S
C345 H337 0.930 . S
C345 C343 1.419 . S
C345 C346 1.372 . S
C346 H338 0.924 1_655 S
C346 C345 1.372 . S
C346 C349 1.406 1_655 S
C347 H339 0.930 . S
C347 C348 1.355 . S
C347 C349 1.415 . S
C348 C347 1.355 . S
C348 C350 1.419 . S
C349 C344 1.425 1_455 S
C349 C346 1.406 1_455 S
C349 C347 1.415 . S
C350 H340 0.930 . S
C350 C348 1.419 . S
C350 C351 1.372 . S
C351 H341 0.924 1_455 S
C351 C344 1.406 1_455 S
C351 C350 1.372 . S
H352 C358 0.930 . S
H353 C361 0.930 . S
H354 C362 0.930 . S
H355 C363 0.930 . S
H356 C366 0.930 . S
H357 C367 0.930 . S
C358 H352 0.930 . S
C358 C359 1.355 . S
C358 C360 1.415 1_545 S
C359 C358 1.355 . S
C359 C361 1.419 . S
C360 C358 1.415 1_565 S
C360 C365 1.425 1_565 S
C360 C367 1.409 . S
C361 H353 0.930 . S
C361 C359 1.419 . S
C361 C362 1.362 . S
C362 H354 0.930 . S
C362 C361 1.362 . S
C362 C365 1.409 . S
C363 H355 0.930 . S
C363 C364 1.355 . S
C363 C365 1.415 1_565 S
C364 C363 1.355 . S
C364 C366 1.419 . S
C365 C360 1.425 1_545 S
C365 C362 1.409 . S
C365 C363 1.415 1_545 S
C366 H356 0.930 . S
C366 C364 1.419 . S
C366 C367 1.362 . S
C367 H357 0.930 . S
C367 C360 1.409 . S
C367 C366 1.362 . S
H368 C374 0.930 . S
H369 C377 0.930 . S
H370 C378 0.930 . S
H371 C379 0.930 . S
H372 C382 0.930 . S
H373 C383 0.930 . S
C374 H368 0.930 . S
C374 C375 1.355 . S
C374 C376 1.415 1_455 S
C375 C374 1.355 . S
C375 C377 1.419 . S
C376 C374 1.415 1_655 S
C376 C381 1.425 1_655 S
C376 C383 1.409 . S
C377 H369 0.930 . S
C377 C375 1.419 . S
C377 C378 1.362 . S
C378 H370 0.930 . S
C378 C377 1.362 . S
C378 C381 1.409 . S
C379 H371 0.930 . S
C379 C380 1.355 . S
C379 C381 1.415 1_655 S
C380 C379 1.355 . S
C380 C382 1.419 . S
C381 C376 1.425 1_455 S
C381 C378 1.409 . S
C381 C379 1.415 1_455 S
C382 H372 0.930 . S
C382 C380 1.419 . S
C382 C383 1.362 . S
C383 H373 0.930 . S
C383 C376 1.409 . S
C383 C382 1.362 . S
H384 C390 0.930 . S
H385 C393 0.930 . S
H386 C394 0.930 . S
H387 C395 0.930 . S
H388 C398 0.930 . S
H389 C399 0.930 . S
C390 H384 0.930 . S
C390 C391 1.355 . S
C390 C392 1.415 . S
C391 C390 1.355 . S
C391 C393 1.419 . S
C392 C390 1.415 . S
C392 C397 1.425 1_565 S
C392 C399 1.409 1_565 S
C393 H385 0.930 . S
C393 C391 1.419 . S
C393 C394 1.362 . S
C394 H386 0.930 . S
C394 C393 1.362 . S
C394 C397 1.409 1_565 S
C395 H387 0.930 . S
C395 C396 1.355 . S
C395 C397 1.415 . S
C396 C395 1.355 . S
C396 C398 1.419 . S
C397 C392 1.425 1_545 S
C397 C394 1.409 1_545 S
C397 C395 1.415 . S
C398 H388 0.930 . S
C398 C396 1.419 . S
C398 C399 1.362 . S
C399 H389 0.930 . S
C399 C392 1.409 1_545 S
C399 C398 1.362 . S
H400 C406 0.930 . S
H401 C409 0.930 . S
H402 C410 0.930 . S
H403 C411 0.930 . S
H404 C414 0.930 . S
H405 C415 0.930 . S
C406 H400 0.930 . S
C406 C407 1.355 . S
C406 C408 1.415 1_655 S
C407 C406 1.355 . S
C407 C409 1.419 . S
C408 C406 1.415 1_455 S
C408 C413 1.425 1_455 S
C408 C415 1.409 . S
C409 H401 0.930 . S
C409 C407 1.419 . S
C409 C410 1.362 . S
C410 H402 0.930 . S
C410 C409 1.362 . S
C410 C413 1.409 . S
C411 H403 0.930 . S
C411 C412 1.355 . S
C411 C413 1.415 1_455 S
C412 C411 1.355 . S
C412 C414 1.419 . S
C413 C408 1.425 1_655 S
C413 C410 1.409 . S
C413 C411 1.415 1_655 S
C414 H404 0.930 . S
C414 C412 1.419 . S
C414 C415 1.362 . S
C415 H405 0.930 . S
C415 C408 1.409 . S
C415 C414 1.362 . S
H416 C422 0.930 . S
H417 C425 0.930 . S
H418 C426 0.923 1_545 S
H419 C427 0.930 . S
H420 C430 0.930 . S
H421 C431 0.923 1_565 S
C422 H416 0.930 . S
C422 C423 1.355 . S
C422 C424 1.415 . S
C423 C422 1.355 . S
C423 C425 1.419 . S
C424 C422 1.415 . S
C424 C429 1.425 1_565 S
C424 C431 1.405 1_565 S
C425 H417 0.930 . S
C425 C423 1.419 . S
C425 C426 1.374 . S
C426 H418 0.923 1_565 S
C426 C425 1.374 . S
C426 C429 1.405 1_565 S
C427 H419 0.930 . S
C427 C428 1.355 . S
C427 C429 1.415 . S
C428 C427 1.355 . S
C428 C430 1.419 . S
C429 C424 1.425 1_545 S
C429 C426 1.405 1_545 S
C429 C427 1.415 . S
C430 H420 0.930 . S
C430 C428 1.419 . S
C430 C431 1.374 . S
C431 H421 0.923 1_545 S
C431 C424 1.405 1_545 S
C431 C430 1.374 . S
H432 C438 0.930 . S
H433 C441 0.930 . S
H434 C442 0.930 . S
H435 C443 0.930 . S
H436 C446 0.930 . S
H437 C447 0.930 . S
C438 H432 0.930 . S
C438 C439 1.355 . S
C438 C440 1.415 . S
C439 C438 1.355 . S
C439 C441 1.419 . S
C440 C438 1.415 . S
C440 C445 1.425 . S
C440 C447 1.409 . S
C441 H433 0.930 . S
C441 C439 1.419 . S
C441 C442 1.362 . S
C442 H434 0.930 . S
C442 C441 1.362 . S
C442 C445 1.409 . S
C443 H435 0.930 . S
C443 C444 1.355 . S
C443 C445 1.415 . S
C444 C443 1.355 . S
C444 C446 1.419 . S
C445 C440 1.425 . S
C445 C442 1.409 . S
C445 C443 1.415 . S
C446 H436 0.930 . S
C446 C444 1.419 . S
C446 C447 1.362 . S
C447 H437 0.930 . S
C447 C440 1.409 . S
C447 C446 1.362 . S
H448 C454 0.930 . S
H449 C457 0.930 . S
H450 C458 0.930 . S
H451 C459 0.930 . S
H452 C462 0.930 . S
H453 C463 0.930 . S
C454 H448 0.930 . S
C454 C455 1.355 . S
C454 C456 1.415 . S
C455 C454 1.355 . S
C455 C457 1.419 . S
C456 C454 1.415 . S
C456 C461 1.425 . S
C456 C463 1.409 . S
C457 H449 0.930 . S
C457 C455 1.419 . S
C457 C458 1.362 . S
C458 H450 0.930 . S
C458 C457 1.362 . S
C458 C461 1.409 . S
C459 H451 0.930 . S
C459 C460 1.355 . S
C459 C461 1.415 . S
C460 C459 1.355 . S
C460 C462 1.419 . S
C461 C456 1.425 . S
C461 C458 1.409 . S
C461 C459 1.415 . S
C462 H452 0.930 . S
C462 C460 1.419 . S
C462 C463 1.362 . S
C463 H453 0.930 . S
C463 C456 1.409 . S
C463 C462 1.362 . S
H464 C470 0.930 . S
H465 C473 0.930 . S
H466 C474 0.930 . S
H467 C475 0.930 . S
H468 C478 0.930 . S
H469 C479 0.930 . S
C470 H464 0.930 . S
C470 C471 1.355 . S
C470 C472 1.415 . S
C471 C470 1.355 . S
C471 C473 1.419 . S
C472 C470 1.415 . S
C472 C477 1.425 . S
C472 C479 1.409 . S
C473 H465 0.930 . S
C473 C471 1.419 . S
C473 C474 1.362 . S
C474 H466 0.930 . S
C474 C473 1.362 . S
C474 C477 1.409 . S
C475 H467 0.930 . S
C475 C476 1.355 . S
C475 C477 1.415 . S
C476 C475 1.355 . S
C476 C478 1.419 . S
C477 C472 1.425 . S
C477 C474 1.409 . S
C477 C475 1.415 . S
C478 H468 0.930 . S
C478 C476 1.419 . S
C478 C479 1.362 . S
C479 H469 0.930 . S
C479 C472 1.409 . S
C479 C478 1.362 . S
H480 C486 0.930 . S
H481 C489 0.930 . S
H482 C490 0.930 . S
H483 C491 0.930 . S
H484 C494 0.930 . S
H485 C495 0.930 . S
C486 H480 0.930 . S
C486 C487 1.355 . S
C486 C488 1.415 . S
C487 C486 1.355 . S
C487 C489 1.419 . S
C488 C486 1.415 . S
C488 C493 1.425 . S
C488 C495 1.409 . S
C489 H481 0.930 . S
C489 C487 1.419 . S
C489 C490 1.362 . S
C490 H482 0.930 . S
C490 C489 1.362 . S
C490 C493 1.409 . S
C491 H483 0.930 . S
C491 C492 1.355 . S
C491 C493 1.415 . S
C492 C491 1.355 . S
C492 C494 1.419 . S
C493 C488 1.425 . S
C493 C490 1.409 . S
C493 C491 1.415 . S
C494 H484 0.930 . S
C494 C492 1.419 . S
C494 C495 1.362 . S
C495 H485 0.930 . S
C495 C488 1.409 . S
C495 C494 1.362 . S
H496 C502 0.930 . S
H497 C505 0.930 . S
H498 C506 0.930 . S
H499 C507 0.930 . S
H500 C510 0.930 . S
H501 C511 0.930 . S
C502 H496 0.930 . S
C502 C503 1.355 . S
C502 C504 1.415 . S
C503 C502 1.355 . S
C503 C505 1.419 . S
C504 C502 1.415 . S
C504 C509 1.425 . S
C504 C511 1.409 . S
C505 H497 0.930 . S
C505 C503 1.419 . S
C505 C506 1.362 . S
C506 H498 0.930 . S
C506 C505 1.362 . S
C506 C509 1.409 . S
C507 H499 0.930 . S
C507 C508 1.355 . S
C507 C509 1.415 . S
C508 C507 1.355 . S
C508 C510 1.419 . S
C509 C504 1.425 . S
C509 C506 1.409 . S
C509 C507 1.415 . S
C510 H500 0.930 . S
C510 C508 1.419 . S
C510 C511 1.362 . S
C511 H501 0.930 . S
C511 C504 1.409 . S
C511 C510 1.362 . S
H512 C518 0.930 . S
H513 C521 0.930 . S
H514 C522 0.930 . S
H515 C523 0.930 . S
H516 C526 0.930 . S
H517 C527 0.930 . S
C518 H512 0.930 . S
C518 C519 1.355 . S
C518 C520 1.415 . S
C519 C518 1.355 . S
C519 C521 1.419 . S
C520 C518 1.415 . S
C520 C525 1.425 . S
C520 C527 1.409 . S
C521 H513 0.930 . S
C521 C519 1.419 . S
C521 C522 1.362 . S
C522 H514 0.930 . S
C522 C521 1.362 . S
C522 C525 1.409 . S
C523 H515 0.930 . S
C523 C524 1.355 . S
C523 C525 1.415 . S
C524 C523 1.355 . S
C524 C526 1.419 . S
C525 C520 1.425 . S
C525 C522 1.409 . S
C525 C523 1.415 . S
C526 H516 0.930 . S
C526 C524 1.419 . S
C526 C527 1.362 . S
C527 H517 0.930 . S
C527 C520 1.409 . S
C527 C526 1.362 . S
H528 C534 0.930 . S
H529 C537 0.930 . S
H530 C538 0.930 . S
H531 C539 0.930 . S
H532 C542 0.930 . S
H533 C543 0.930 . S
C534 H528 0.930 . S
C534 C535 1.355 . S
C534 C536 1.415 . S
C535 C534 1.355 . S
C535 C537 1.419 . S
C536 C534 1.415 . S
C536 C541 1.425 . S
C536 C543 1.409 . S
C537 H529 0.930 . S
C537 C535 1.419 . S
C537 C538 1.362 . S
C538 H530 0.930 . S
C538 C537 1.362 . S
C538 C541 1.409 . S
C539 H531 0.930 . S
C539 C540 1.355 . S
C539 C541 1.415 . S
C540 C539 1.355 . S
C540 C542 1.419 . S
C541 C536 1.425 . S
C541 C538 1.409 . S
C541 C539 1.415 . S
C542 H532 0.930 . S
C542 C540 1.419 . S
C542 C543 1.362 . S
C543 H533 0.930 . S
C543 C536 1.409 . S
C543 C542 1.362 . S
H544 C550 0.930 . S
H545 C553 0.930 . S
H546 C554 0.930 . S
H547 C555 0.930 . S
H548 C558 0.930 . S
H549 C559 0.930 . S
C550 H544 0.930 . S
C550 C551 1.355 . S
C550 C552 1.415 . S
C551 C550 1.355 . S
C551 C553 1.419 . S
C552 C550 1.415 . S
C552 C557 1.425 . S
C552 C559 1.409 . S
C553 H545 0.930 . S
C553 C551 1.419 . S
C553 C554 1.362 . S
C554 H546 0.930 . S
C554 C553 1.362 . S
C554 C557 1.409 . S
C555 H547 0.930 . S
C555 C556 1.355 . S
C555 C557 1.415 . S
C556 C555 1.355 . S
C556 C558 1.419 . S
C557 C552 1.425 . S
C557 C554 1.409 . S
C557 C555 1.415 . S
C558 H548 0.930 . S
C558 C556 1.419 . S
C558 C559 1.362 . S
C559 H549 0.930 . S
C559 C552 1.409 . S
C559 C558 1.362 . S
C183 C136 1.463 . S
C188 C8 1.461 . S
C199 C30 1.421 . S
C204 C158 1.435 . S
C215 C92 1.419 . S
C220 C53 1.418 . S
C231 C74 1.443 . S
C236 C114 1.424 . S
C247 C96 1.456 . S
C252 C50 1.466 . S
C263 C70 1.452 . S
C268 C118 1.435 . S
C279 C140 1.421 . S
C284 C4 1.419 . S
C295 C26 1.464 . S
C300 C162 1.462 . S
C311 C27 1.418 . S
C316 C119 1.421 . S
C327 C141 1.443 . S
C332 C48 1.427 . S
C343 C163 1.432 . S
C348 C71 1.421 . S
C359 C5 1.463 . S
C364 C97 1.454 . S
C375 C73 1.460 . S
C380 C160 1.462 . S
C391 C94 1.428 . S
C396 C7 1.445 . S
C407 C29 1.463 . S
C412 C116 1.461 . S
C423 C52 1.419 . S
C428 C138 1.431 . S
C439 C159 1.226 . S
C444 C9 1.225 . S
C455 C31 1.255 . S
C460 C93 1.253 . S
C471 C51 1.254 . S
C476 C115 1.252 . S
C487 C137 1.235 . S
C492 C75 1.233 . S
C503 C117 1.253 . S
C508 C49 1.255 . S
C519 C139 1.256 . S
C524 C72 1.258 . S
C535 C161 1.224 . S
C540 C6 1.226 . S
C551 C95 1.242 . S
C556 C28 1.243 . S
