# Generated by pormake.
# Topology soi, (5)-cn, num edge types: 1
# Building blocks:
#     Node 0, Type 0, BuildingBlock: BEQFEK_clean_sbu_0, # of connection points: 5
#     Node 1, Type 0, BuildingBlock: BEQFEK_clean_sbu_0, # of connection points: 5
#     Node 2, Type 0, BuildingBlock: BEQFEK_clean_sbu_0, # of connection points: 5
#     Node 3, Type 0, BuildingBlock: BEQFEK_clean_sbu_0, # of connection points: 5
#     Node 4, Type 0, BuildingBlock: BEQFEK_clean_sbu_0, # of connection points: 5
#     Node 5, Type 0, BuildingBlock: BEQFEK_clean_sbu_0, # of connection points: 5
#     Node 6, Type 0, BuildingBlock: BEQFEK_clean_sbu_0, # of connection points: 5
#     Node 7, Type 0, BuildingBlock: BEQFEK_clean_sbu_0, # of connection points: 5
#     Node 8, Type 0, BuildingBlock: BEQFEK_clean_sbu_0, # of connection points: 5
#     Node 9, Type 0, BuildingBlock: BEQFEK_clean_sbu_0, # of connection points: 5
#     Node 10, Type 0, BuildingBlock: BEQFEK_clean_sbu_0, # of connection points: 5
#     Node 11, Type 0, BuildingBlock: BEQFEK_clean_sbu_0, # of connection points: 5
#     Node 12, Type 0, BuildingBlock: BEQFEK_clean_sbu_0, # of connection points: 5
#     Node 13, Type 0, BuildingBlock: BEQFEK_clean_sbu_0, # of connection points: 5
#     Node 14, Type 0, BuildingBlock: BEQFEK_clean_sbu_0, # of connection points: 5
#     Node 15, Type 0, BuildingBlock: BEQFEK_clean_sbu_0, # of connection points: 5
#     Edge 16, Type (0, 0), None
#     Edge 17, Type (0, 0), None
#     Edge 18, Type (0, 0), None
#     Edge 19, Type (0, 0), None
#     Edge 20, Type (0, 0), None
#     Edge 21, Type (0, 0), None
#     Edge 22, Type (0, 0), None
#     Edge 23, Type (0, 0), None
#     Edge 24, Type (0, 0), None
#     Edge 25, Type (0, 0), None
#     Edge 26, Type (0, 0), None
#     Edge 27, Type (0, 0), None
#     Edge 28, Type (0, 0), None
#     Edge 29, Type (0, 0), None
#     Edge 30, Type (0, 0), None
#     Edge 31, Type (0, 0), None
#     Edge 32, Type (0, 0), None
#     Edge 33, Type (0, 0), None
#     Edge 34, Type (0, 0), None
#     Edge 35, Type (0, 0), None
#     Edge 36, Type (0, 0), None
#     Edge 37, Type (0, 0), None
#     Edge 38, Type (0, 0), None
#     Edge 39, Type (0, 0), None
#     Edge 40, Type (0, 0), None
#     Edge 41, Type (0, 0), None
#     Edge 42, Type (0, 0), None
#     Edge 43, Type (0, 0), None
#     Edge 44, Type (0, 0), None
#     Edge 45, Type (0, 0), None
#     Edge 46, Type (0, 0), None
#     Edge 47, Type (0, 0), None
#     Edge 48, Type (0, 0), None
#     Edge 49, Type (0, 0), None
#     Edge 50, Type (0, 0), None
#     Edge 51, Type (0, 0), None
#     Edge 52, Type (0, 0), None
#     Edge 53, Type (0, 0), None
#     Edge 54, Type (0, 0), None
#     Edge 55, Type (0, 0), None
# Relax obj value: 0.093
# Max RMSD: 0.189
# Mean RMSD: 0.172
data_MOF--net-soi--node1-BEQFEK_clean_sbu_0--edge1-none
_symmetry_space_group_name_H-M    P1
_symmetry_Int_Tables_number       1
_symmetry_cell_setting            triclinic
loop_
_symmetry_equiv_pos_as_xyz
'x, y, z'
_cell_length_a     16.992655
_cell_length_b     13.200453
_cell_length_c     43.182334
_cell_angle_alpha  90.036317
_cell_angle_beta   89.917202
_cell_angle_gamma 90.183364
loop_
_atom_site_label
_atom_site_type_symbol
_atom_site_fract_x
_atom_site_fract_y
_atom_site_fract_z
_atom_type_partial_charge
Co0 Co 0.33136 0.10979 0.17151 0.0
Co1 Co 0.32266 0.10938 0.09749 0.0
C2 C 0.2184 0.23715 0.13764 0.0
O3 O 0.24018 0.20125 0.16361 0.0
O4 O 0.24689 0.20462 0.11261 0.0
C5 C 0.27093 0.05246 0.22929 0.0
O6 O 0.20676 0.06026 0.21254 0.0
C7 C 0.21438 0.07513 0.04669 0.0
C8 C 0.28241 0.11643 1.00505 0.0
C9 C 0.20765 0.08873 0.01498 0.0
N10 N 0.28915 0.09486 0.05523 0.0
N11 N 0.32972 0.11908 0.03016 0.0
C12 C 0.15002 0.04579 0.06872 0.0
H13 H 0.17255 0.0389 0.09271 0.0
H14 H 0.12411 0.97228 0.06141 0.0
H15 H 0.1022 0.10271 0.06801 0.0
C16 C 0.31822 0.88884 0.15997 0.0
N17 N 0.32518 0.9851 0.1498 0.0
N18 N 0.32129 0.98515 0.11937 0.0
C19 C 0.31097 0.88939 0.10947 0.0
C20 C 0.30416 0.82583 0.13502 0.0
C21 C 0.32568 0.85535 0.19294 0.0
H22 H 0.37096 0.90098 0.20499 0.0
H23 H 0.26802 0.86288 0.20473 0.0
H24 H 0.34353 0.77462 0.19417 0.0
O25 O 0.42297 0.18978 0.15629 0.0
O26 O 0.42234 0.18506 0.10428 0.0
H27 H 0.32783 0.78122 0.0727 0.0
H28 H 0.243 0.86107 0.06862 0.0
C29 C 0.30536 0.85934 0.07608 0.0
H30 H 0.34023 0.9118 0.06145 0.0
H31 H 0.38875 0.14113 0.03032 0.0
O32 O 0.33645 0.07759 0.21716 0.0
C33 C 0.45121 0.21609 0.12998 0.0
Co34 Co 0.63866 0.3927 0.17107 0.0
Co35 Co 0.64684 0.39194 0.0971 0.0
C36 C 0.7516 0.26474 0.13732 0.0
O37 O 0.73006 0.3012 0.16329 0.0
O38 O 0.72263 0.29657 0.11232 0.0
C39 C 0.69835 0.45076 0.22886 0.0
O40 O 0.76282 0.44252 0.21223 0.0
C41 C 0.75562 0.42687 0.04664 0.0
C42 C 0.68943 0.38421 1.00473 0.0
C43 C 0.76356 0.41305 0.01498 0.0
N44 N 0.68078 0.40615 0.05487 0.0
N45 N 0.64127 0.38112 0.02964 0.0
C46 C 0.81887 0.45772 0.06894 0.0
H47 H 0.79556 0.46391 0.09286 0.0
H48 H 0.84389 0.53188 0.06179 0.0
H49 H 0.86764 0.40216 0.06837 0.0
C50 C 0.65206 0.61353 0.15928 0.0
N51 N 0.64479 0.51716 0.14922 0.0
N52 N 0.6484 0.51671 0.11878 0.0
C53 C 0.6589 0.61235 0.10877 0.0
C54 C 0.66614 0.6762 0.13424 0.0
C55 C 0.64473 0.64746 0.19223 0.0
H56 H 0.59926 0.60226 0.20436 0.0
H57 H 0.70235 0.6397 0.20396 0.0
H58 H 0.62715 0.72831 0.19343 0.0
O59 O 0.54711 0.31236 0.15605 0.0
O60 O 0.54706 0.31658 0.10403 0.0
H61 H 0.64092 0.72013 0.07207 0.0
H62 H 0.72619 0.64137 0.06772 0.0
C63 C 0.66392 0.64225 0.07537 0.0
H64 H 0.62926 0.58934 0.06082 0.0
H65 H 0.58243 0.35823 0.02956 0.0
O66 O 0.63302 0.42561 0.21665 0.0
C67 C 0.51852 0.28578 0.12984 0.0
Co68 Co 0.33151 0.89285 0.42132 0.0
Co69 Co 0.32204 0.90137 0.34791 0.0
C70 C 0.45039 0.78742 0.37829 0.0
O71 O 0.42183 0.81253 0.40466 0.0
O72 O 0.42222 0.82156 0.3528 0.0
C73 C 0.33646 0.92036 0.49618 0.0
O74 O 0.40423 0.94055 0.50939 0.0
C75 C 0.3235 0.97175 0.28068 0.0
C76 C 0.19475 0.97707 0.27378 0.0
C77 C 0.26539 0.0027 0.25992 0.0
N78 N 0.28791 0.93361 0.30621 0.0
N79 N 0.2111 0.93572 0.30142 0.0
C80 C 0.41064 0.98239 0.27695 0.0
H81 H 0.4413 0.96251 0.29879 0.0
H82 H 0.42576 0.06107 0.27005 0.0
H83 H 0.43085 0.93121 0.25818 0.0
C84 C 0.31059 0.11318 0.41381 0.0
N85 N 0.32333 0.02013 0.40196 0.0
N86 N 0.32244 0.02491 0.37158 0.0
C87 C 0.31014 0.1222 0.36326 0.0
C88 C 0.29812 0.18094 0.38961 0.0
C89 C 0.30652 0.13477 0.44783 0.0
H90 H 0.35624 0.0969 0.45958 0.0
H91 H 0.31104 0.21684 0.45292 0.0
H92 H 0.25063 0.10418 0.45738 0.0
O93 O 0.24042 0.80799 0.41426 0.0
O94 O 0.24158 0.80205 0.36312 0.0
H95 H 0.2529 0.13655 0.31939 0.0
H96 H 0.31585 0.24252 0.32918 0.0
C97 C 0.30897 0.15908 0.33055 0.0
H98 H 0.35897 0.1254 0.31795 0.0
H99 H 0.16932 0.91297 0.31775 0.0
O100 O 0.33422 0.90956 0.46697 0.0
C101 C 0.21542 0.77099 0.38909 0.0
Co102 Co 0.63643 0.61012 0.42086 0.0
Co103 Co 0.64575 0.60243 0.34736 0.0
C104 C 0.51728 0.71601 0.37828 0.0
O105 O 0.5455 0.69054 0.40467 0.0
O106 O 0.54576 0.68237 0.35273 0.0
C107 C 0.63579 0.58203 0.49567 0.0
O108 O 0.56718 0.56121 0.50817 0.0
C109 C 0.64487 0.53225 0.28006 0.0
C110 C 0.77376 0.52653 0.27339 0.0
C111 C 0.70335 0.501 0.25942 0.0
N112 N 0.68004 0.57041 0.30565 0.0
N113 N 0.75694 0.56811 0.30099 0.0
C114 C 0.55779 0.52179 0.27616 0.0
H115 H 0.52673 0.54182 0.29795 0.0
H116 H 0.54269 0.44312 0.26923 0.0
H117 H 0.538 0.57294 0.25737 0.0
C118 C 0.65641 0.38995 0.41295 0.0
N119 N 0.64426 0.48323 0.40127 0.0
N120 N 0.64529 0.47882 0.37088 0.0
C121 C 0.65714 0.38155 0.3624 0.0
C122 C 0.66868 0.32247 0.38865 0.0
C123 C 0.66017 0.36781 0.44693 0.0
H124 H 0.6115 0.40751 0.45887 0.0
H125 H 0.65377 0.28582 0.45186 0.0
H126 H 0.71689 0.39589 0.45639 0.0
O127 O 0.72683 0.69522 0.41334 0.0
O128 O 0.72637 0.70146 0.36228 0.0
H129 H 0.71427 0.3672 0.31844 0.0
H130 H 0.65104 0.26148 0.32821 0.0
C131 C 0.65815 0.34488 0.32965 0.0
H132 H 0.60819 0.37886 0.31717 0.0
H133 H 0.79845 0.59073 0.3174 0.0
O134 O 0.64051 0.59397 0.46655 0.0
C135 C 0.75217 0.73234 0.38827 0.0
Co136 Co 0.64767 0.90458 0.93502 0.0
Co137 Co 0.62257 0.88614 0.86304 0.0
C138 C 0.51597 0.78753 0.91324 0.0
O139 O 0.54717 0.82297 0.93792 0.0
O140 O 0.54207 0.81148 0.88654 0.0
C141 C 0.71268 0.89888 0.99883 0.0
O142 O 0.68588 0.80578 1.0012 0.0
C143 C 0.55091 0.97114 0.80651 0.0
C144 C 0.601 0.87098 0.77091 0.0
C145 C 0.55868 0.95974 0.77476 0.0
N146 N 0.58949 0.8953 0.82071 0.0
N147 N 0.6166 0.83345 0.79918 0.0
C148 C 0.50845 0.05501 0.82277 0.0
H149 H 0.50414 0.03999 0.84798 0.0
H150 H 0.53856 0.12832 0.81865 0.0
H151 H 0.44841 0.06207 0.81293 0.0
C152 C 0.65049 0.12161 0.91733 0.0
N153 N 0.63705 0.02396 0.9099 0.0
N154 N 0.64148 0.01439 0.87972 0.0
C155 C 0.66509 0.10276 0.86713 0.0
C156 C 0.67001 0.17529 0.89049 0.0
C157 C 0.6544 0.15941 0.95 0.0
H158 H 0.61728 0.11162 0.96532 0.0
H159 H 0.63361 0.23892 0.95132 0.0
H160 H 0.71622 0.1567 0.95822 0.0
O161 O 0.72556 0.80618 0.91718 0.0
O162 O 0.71654 0.80364 0.86606 0.0
H163 H 0.76572 0.1281 0.83811 0.0
H164 H 0.67475 0.17219 0.82221 0.0
C165 C 0.70219 0.11002 0.83564 0.0
H166 H 0.69764 0.03761 0.82286 0.0
H167 H 0.65093 0.76982 0.80375 0.0
O168 O 0.6985 0.95002 0.9746 0.0
C169 C 0.74846 0.77316 0.89094 0.0
Co170 Co 0.31674 0.59908 0.9345 0.0
Co171 Co 0.34401 0.61725 0.86253 0.0
C172 C 0.44883 0.71642 0.91319 0.0
O173 O 0.41718 0.68089 0.93783 0.0
O174 O 0.42336 0.69232 0.88642 0.0
C175 C 0.26042 0.59779 0.99993 0.0
O176 O 0.3075 0.67482 1.0054 0.0
C177 C 0.41712 0.532 0.80617 0.0
C178 C 0.36752 0.63201 0.77052 0.0
C179 C 0.4097 0.5432 0.77441 0.0
N180 N 0.3784 0.60796 0.82034 0.0
N181 N 0.35162 0.66973 0.79877 0.0
C182 C 0.45941 0.44827 0.82249 0.0
H183 H 0.46301 0.46317 0.84773 0.0
H184 H 0.42971 0.37478 0.81821 0.0
H185 H 0.51974 0.44165 0.81284 0.0
C186 C 0.31532 0.38215 0.91685 0.0
N187 N 0.32854 0.47979 0.90946 0.0
N188 N 0.3251 0.48919 0.87926 0.0
C189 C 0.30236 0.40064 0.86657 0.0
C190 C 0.29711 0.3282 0.8899 0.0
C191 C 0.30972 0.34494 0.94954 0.0
H192 H 0.34483 0.39417 0.96515 0.0
H193 H 0.3317 0.26604 0.95118 0.0
H194 H 0.2473 0.34609 0.95715 0.0
O195 O 0.24068 0.69744 0.91604 0.0
O196 O 0.24966 0.69914 0.86497 0.0
H197 H 0.20234 0.37495 0.83735 0.0
H198 H 0.29368 0.33107 0.82162 0.0
C199 C 0.26588 0.39318 0.83501 0.0
H200 H 0.27047 0.46558 0.82225 0.0
H201 H 0.3172 0.73336 0.8033 0.0
O202 O 0.26024 0.55673 0.97336 0.0
C203 C 0.2178 0.73008 0.88983 0.0
Co204 Co 0.65172 0.10802 0.5918 0.0
Co205 Co 0.63155 0.12159 0.6647 0.0
C206 C 0.5204 0.21805 0.6165 0.0
O207 O 0.55088 0.18435 0.59154 0.0
O208 O 0.5482 0.19567 0.64298 0.0
C209 C 0.70233 0.06564 0.52345 0.0
O210 O 0.64194 0.00905 0.51556 0.0
C211 C 0.55686 0.03349 0.72036 0.0
C212 C 0.60813 0.12897 0.75698 0.0
C213 C 0.56263 0.04302 0.75221 0.0
N214 N 0.59915 0.10808 0.70696 0.0
N215 N 0.62731 0.16699 0.72908 0.0
C216 C 0.51224 0.95319 0.70321 0.0
H217 H 0.51084 0.96954 0.67802 0.0
H218 H 0.53893 0.87794 0.70735 0.0
H219 H 0.45111 0.94949 0.71226 0.0
C220 C 0.65859 0.88821 0.6089 0.0
N221 N 0.64681 0.98591 0.61625 0.0
N222 N 0.64991 0.99484 0.64656 0.0
C223 C 0.67077 0.90579 0.65927 0.0
C224 C 0.67504 0.83362 0.63596 0.0
C225 C 0.66262 0.85143 0.57622 0.0
H226 H 0.72355 0.86043 0.56732 0.0
H227 H 0.62222 0.89661 0.5617 0.0
H228 H 0.64527 0.77075 0.57472 0.0
O229 O 0.72638 0.20219 0.61087 0.0
O230 O 0.72626 0.20494 0.66192 0.0
H231 H 0.76892 0.87363 0.68882 0.0
H232 H 0.67531 0.83774 0.70448 0.0
C233 C 0.70644 0.89695 0.69093 0.0
H234 H 0.70551 0.97008 0.70341 0.0
H235 H 0.6639 0.22933 0.72517 0.0
O236 O 0.70737 0.10153 0.55067 0.0
C237 C 0.75434 0.23449 0.63618 0.0
Co238 Co 0.32041 0.39348 0.59116 0.0
Co239 Co 0.33859 0.38048 0.66419 0.0
C240 C 0.45142 0.2843 0.61647 0.0
O241 O 0.42139 0.31778 0.59148 0.0
O242 O 0.42297 0.3066 0.64288 0.0
C243 C 0.26425 0.44143 0.52308 0.0
O244 O 0.30806 0.52105 0.51712 0.0
C245 C 0.41189 0.46935 0.72 0.0
C246 C 0.36046 0.37382 0.75659 0.0
C247 C 0.40589 0.45986 0.75185 0.0
N248 N 0.36987 0.3946 0.70657 0.0
N249 N 0.3416 0.33568 0.72867 0.0
C250 C 0.45661 0.54968 0.70288 0.0
H251 H 0.45853 0.53306 0.67771 0.0
H252 H 0.42958 0.62483 0.70692 0.0
H253 H 0.51755 0.55381 0.71206 0.0
C254 C 0.31299 0.61447 0.60862 0.0
N255 N 0.32403 0.51637 0.6157 0.0
N256 N 0.31986 0.50697 0.64599 0.0
C257 C 0.29848 0.59575 0.65881 0.0
C258 C 0.29523 0.66847 0.63568 0.0
C259 C 0.31345 0.65326 0.57619 0.0
H260 H 0.2549 0.64019 0.56554 0.0
H261 H 0.35894 0.61228 0.56278 0.0
H262 H 0.32732 0.73509 0.57558 0.0
O263 O 0.24445 0.29942 0.60996 0.0
O264 O 0.24435 0.2967 0.66105 0.0
H265 H 0.19956 0.62792 0.68809 0.0
H266 H 0.29282 0.66263 0.70419 0.0
C267 C 0.26185 0.60401 0.69036 0.0
H268 H 0.26212 0.53053 0.70263 0.0
H269 H 0.30523 0.27315 0.72474 0.0
O270 O 0.26934 0.39643 0.54902 0.0
C271 C 0.2163 0.26728 0.63531 0.0
Co272 Co 0.83133 0.60985 0.6715 0.0
Co273 Co 0.82261 0.60945 0.59747 0.0
C274 C 0.71829 0.73713 0.63763 0.0
O275 O 0.74011 0.70125 0.6636 0.0
O276 O 0.74681 0.70467 0.61259 0.0
C277 C 0.77093 0.55257 0.72929 0.0
O278 O 0.70676 0.56042 0.71254 0.0
C279 C 0.71431 0.57519 0.54668 0.0
C280 C 0.78229 0.61651 0.50503 0.0
C281 C 0.70753 0.58883 0.51497 0.0
N282 N 0.78908 0.59494 0.55521 0.0
N283 N 0.82962 0.61918 0.53013 0.0
C284 C 0.64997 0.5458 0.56872 0.0
H285 H 0.67252 0.53895 0.5927 0.0
H286 H 0.62412 0.47225 0.56142 0.0
H287 H 0.60211 0.60265 0.568 0.0
C288 C 0.81804 0.38893 0.65997 0.0
N289 N 0.82514 0.48516 0.64978 0.0
N290 N 0.82122 0.48522 0.61935 0.0
C291 C 0.81076 0.38948 0.60945 0.0
C292 C 0.80378 0.32603 0.63501 0.0
C293 C 0.82546 0.35542 0.69293 0.0
H294 H 0.87077 0.40099 0.70499 0.0
H295 H 0.76781 0.36297 0.70472 0.0
H296 H 0.84328 0.27467 0.69416 0.0
O297 O 0.92293 0.68983 0.65627 0.0
O298 O 0.92229 0.68512 0.60425 0.0
H299 H 0.82762 0.28128 0.57269 0.0
H300 H 0.74275 0.36104 0.56862 0.0
C301 C 0.80512 0.35938 0.57607 0.0
H302 H 0.83995 0.41184 0.56142 0.0
H303 H 0.88865 0.64123 0.53028 0.0
O304 O 0.83646 0.57765 0.71714 0.0
C305 C 0.95118 0.71613 0.62995 0.0
Co306 Co 0.13861 0.89268 0.67106 0.0
Co307 Co 0.14684 0.89193 0.59706 0.0
C308 C 0.25163 0.76481 0.63731 0.0
O309 O 0.23005 0.80125 0.66328 0.0
O310 O 0.22264 0.79658 0.6123 0.0
C311 C 0.19829 0.95069 0.72885 0.0
O312 O 0.26276 0.9424 0.71223 0.0
C313 C 0.25566 0.92683 0.5466 0.0
C314 C 0.1896 0.88422 0.50465 0.0
C315 C 0.26371 0.91303 0.51494 0.0
N316 N 0.1808 0.90611 0.5548 0.0
N317 N 0.14137 0.88111 0.52955 0.0
C318 C 0.31885 0.95766 0.56893 0.0
H319 H 0.29547 0.96387 0.59284 0.0
H320 H 0.34391 0.03181 0.56179 0.0
H321 H 0.3676 0.90208 0.56839 0.0
C322 C 0.15215 0.11346 0.65929 0.0
N323 N 0.14477 0.01712 0.64921 0.0
N324 N 0.14841 0.01669 0.61877 0.0
C325 C 0.15906 0.11232 0.60877 0.0
C326 C 0.16644 0.17603 0.63426 0.0
C327 C 0.14481 0.14741 0.69224 0.0
H328 H 0.09933 0.10224 0.70437 0.0
H329 H 0.20243 0.13965 0.70397 0.0
H330 H 0.12725 0.22826 0.69343 0.0
O331 O 0.04709 0.81235 0.65602 0.0
O332 O 0.04705 0.81657 0.604 0.0
H333 H 0.14113 0.22015 0.57208 0.0
H334 H 0.22643 0.14145 0.56775 0.0
C335 C 0.16415 0.14227 0.57537 0.0
H336 H 0.12953 0.08938 0.56081 0.0
H337 H 0.08252 0.85824 0.52945 0.0
O338 O 0.13295 0.92556 0.71664 0.0
C339 C 0.0185 0.78579 0.62982 0.0
Co340 Co 0.83151 0.39284 0.9213 0.0
Co341 Co 0.82198 0.40136 0.8479 0.0
C342 C 0.95039 0.28744 0.87833 0.0
O343 O 0.92192 0.31261 0.9047 0.0
O344 O 0.92214 0.3215 0.85284 0.0
C345 C 0.8361 0.42023 0.99613 0.0
O346 O 0.9041 0.44028 1.00917 0.0
C347 C 0.82351 0.47181 0.78067 0.0
C348 C 0.69476 0.47707 0.77375 0.0
C349 C 0.7654 0.50275 0.75991 0.0
N350 N 0.78791 0.43362 0.8062 0.0
N351 N 0.7111 0.43569 0.8014 0.0
C352 C 0.91064 0.48251 0.77695 0.0
H353 H 0.9413 0.46261 0.79879 0.0
H354 H 0.92573 0.56123 0.77007 0.0
H355 H 0.93089 0.4314 0.75818 0.0
C356 C 0.8104 0.61312 0.91382 0.0
N357 N 0.82328 0.52012 0.90196 0.0
N358 N 0.82235 0.5249 0.87158 0.0
C359 C 0.8099 0.62216 0.86326 0.0
C360 C 0.79771 0.68077 0.88962 0.0
C361 C 0.80627 0.63467 0.94784 0.0
H362 H 0.85596 0.59676 0.9596 0.0
H363 H 0.81078 0.71674 0.95294 0.0
H364 H 0.75035 0.60408 0.95737 0.0
O365 O 0.74054 0.30787 0.91419 0.0
O366 O 0.7414 0.30212 0.86306 0.0
H367 H 0.75266 0.63652 0.81939 0.0
H368 H 0.81557 0.74252 0.82919 0.0
C369 C 0.80872 0.65907 0.83055 0.0
H370 H 0.85874 0.62544 0.81795 0.0
H371 H 0.66932 0.41291 0.81771 0.0
O372 O 0.83329 0.40933 0.96693 0.0
C373 C 0.71535 0.27102 0.88904 0.0
Co374 Co 0.13642 0.11014 0.92086 0.0
Co375 Co 0.14573 0.10247 0.84735 0.0
C376 C 0.01727 0.21604 0.8783 0.0
O377 O 0.04548 0.19052 0.90469 0.0
O378 O 0.04577 0.18245 0.85274 0.0
C379 C 0.13593 0.08206 0.99567 0.0
O380 O 0.06728 0.06131 1.00815 0.0
C381 C 0.1448 0.03226 0.78005 0.0
C382 C 0.2737 0.02654 0.77338 0.0
C383 C 0.20328 1.00098 0.75941 0.0
N384 N 0.17998 0.07045 0.80563 0.0
N385 N 0.25687 0.06815 0.80097 0.0
C386 C 0.05772 0.02177 0.77616 0.0
H387 H 0.02667 0.04181 0.79795 0.0
H388 H 0.04263 0.94309 0.76923 0.0
H389 H 0.03792 0.0729 0.75736 0.0
C390 C 0.15652 0.89002 0.91295 0.0
N391 N 0.14426 0.98327 0.90126 0.0
N392 N 0.14528 0.97887 0.87087 0.0
C393 C 0.15723 0.88162 0.86238 0.0
C394 C 0.16894 0.82265 0.88863 0.0
C395 C 0.16033 0.86787 0.94692 0.0
H396 H 0.11168 0.90757 0.95887 0.0
H397 H 0.15394 0.78588 0.95186 0.0
H398 H 0.21707 0.89594 0.95637 0.0
O399 O 0.22678 0.19529 0.91332 0.0
O400 O 0.22644 0.20141 0.86225 0.0
H401 H 0.21434 0.86725 0.81842 0.0
H402 H 0.15112 0.76155 0.8282 0.0
C403 C 0.15823 0.84495 0.82963 0.0
H404 H 0.10826 0.8789 0.81716 0.0
H405 H 0.29839 0.0908 0.81737 0.0
O406 O 0.14072 0.09402 0.96655 0.0
C407 C 0.25221 0.23229 0.88825 0.0
Co408 Co 0.14784 0.40448 0.43502 0.0
Co409 Co 0.12272 0.38606 0.36303 0.0
C410 C 0.01611 0.28747 0.41323 0.0
O411 O 0.04734 0.32286 0.43792 0.0
O412 O 0.04221 0.31143 0.38653 0.0
C413 C 0.21252 0.399 0.49889 0.0
O414 O 0.18505 0.30626 0.50138 0.0
C415 C 0.05104 0.47113 0.30651 0.0
C416 C 0.10111 0.37099 0.27091 0.0
C417 C 0.0588 0.45976 0.27476 0.0
N418 N 0.08962 0.39527 0.32071 0.0
N419 N 0.11672 0.33344 0.29918 0.0
C420 C 0.00859 0.55499 0.32279 0.0
H421 H 0.0043 0.53996 0.348 0.0
H422 H 0.03871 0.62831 0.31867 0.0
H423 H 0.94855 0.56206 0.31295 0.0
C424 C 0.15065 0.62147 0.41736 0.0
N425 N 0.13718 0.52385 0.40991 0.0
N426 N 0.14164 0.5143 0.37973 0.0
C427 C 0.16529 0.60268 0.36715 0.0
C428 C 0.17031 0.67509 0.39053 0.0
C429 C 0.15456 0.65924 0.45003 0.0
H430 H 0.11748 0.61139 0.46535 0.0
H431 H 0.1337 0.73872 0.45135 0.0
H432 H 0.21639 0.65663 0.45824 0.0
O433 O 0.22576 0.30616 0.41717 0.0
O434 O 0.2167 0.30355 0.36605 0.0
H435 H 0.26588 0.62808 0.3381 0.0
H436 H 0.17489 0.67215 0.32223 0.0
C437 C 0.20236 0.60998 0.33565 0.0
H438 H 0.1978 0.53758 0.32286 0.0
H439 H 0.15104 0.26979 0.30373 0.0
O440 O 0.19882 0.44989 0.47457 0.0
C441 C 0.24866 0.27315 0.39092 0.0
Co442 Co 0.81679 0.09915 0.43451 0.0
Co443 Co 0.84405 0.11732 0.36253 0.0
C444 C 0.94893 0.21642 0.41318 0.0
O445 O 0.91725 0.18095 0.43782 0.0
O446 O 0.92346 0.19233 0.38641 0.0
C447 C 0.76038 0.09795 0.49992 0.0
O448 O 0.80709 0.17537 0.50535 0.0
C449 C 0.91704 0.032 0.30617 0.0
C450 C 0.86744 0.13201 0.27052 0.0
C451 C 0.90959 0.04319 0.27441 0.0
N452 N 0.87837 0.108 0.32033 0.0
N453 N 0.85158 0.16976 0.29877 0.0
C454 C 0.95933 0.94827 0.32249 0.0
H455 H 0.96295 0.96318 0.34773 0.0
H456 H 0.92962 0.87479 0.31821 0.0
H457 H 0.01965 0.94163 0.31282 0.0
C458 C 0.81528 0.88224 0.41687 0.0
N459 N 0.82858 0.97987 0.40946 0.0
N460 N 0.82509 0.98927 0.37926 0.0
C461 C 0.80225 0.90075 0.36658 0.0
C462 C 0.79688 0.8284 0.38993 0.0
C463 C 0.80974 0.84501 0.44955 0.0
H464 H 0.84492 0.8942 0.46516 0.0
H465 H 0.83171 0.7661 0.45118 0.0
H466 H 0.74734 0.84616 0.45718 0.0
O467 O 0.74063 0.19744 0.41607 0.0
O468 O 0.74971 0.19927 0.36499 0.0
H469 H 0.70223 0.87504 0.33736 0.0
H470 H 0.79358 0.83121 0.32162 0.0
C471 C 0.76577 0.8933 0.33501 0.0
H472 H 0.77035 0.96571 0.32227 0.0
H473 H 0.81718 0.23341 0.3033 0.0
O474 O 0.76043 0.05668 0.47338 0.0
C475 C 0.71778 0.23009 0.38985 0.0
Co476 Co 0.15185 0.60806 0.09181 0.0
Co477 Co 0.13165 0.62165 0.16471 0.0
C478 C 0.02049 0.71808 0.11651 0.0
O479 O 0.051 0.68442 0.09155 0.0
O480 O 0.04827 0.69569 0.14299 0.0
C481 C 0.20226 0.56576 0.02345 0.0
O482 O 0.14158 0.50973 0.01554 0.0
C483 C 0.05696 0.53355 0.22037 0.0
C484 C 0.10826 0.62899 0.257 0.0
C485 C 0.06275 0.54306 0.25222 0.0
N486 N 0.09925 0.60814 0.20698 0.0
N487 N 0.12743 0.66703 0.2291 0.0
C488 C 0.01233 0.45327 0.20322 0.0
H489 H 0.01094 0.46962 0.17803 0.0
H490 H 0.039 0.378 0.20736 0.0
H491 H 0.9512 0.44959 0.21227 0.0
C492 C 0.15879 0.3883 0.10891 0.0
N493 N 0.14692 0.48598 0.11626 0.0
N494 N 0.15 0.49489 0.14658 0.0
C495 C 0.17091 0.40586 0.15928 0.0
C496 C 0.17534 0.33378 0.13596 0.0
C497 C 0.16292 0.35155 0.07622 0.0
H498 H 0.22391 0.36036 0.06737 0.0
H499 H 0.12268 0.39685 0.06167 0.0
H500 H 0.14544 0.27092 0.07471 0.0
O501 O 0.22658 0.70217 0.11088 0.0
O502 O 0.22635 0.70502 0.16193 0.0
H503 H 0.26901 0.37363 0.18886 0.0
H504 H 0.17536 0.33783 0.2045 0.0
C505 C 0.20654 0.39701 0.19096 0.0
H506 H 0.20562 0.47015 0.20343 0.0
H507 H 0.16404 0.72936 0.22519 0.0
O508 O 0.20752 0.60142 0.05069 0.0
C509 C 0.25451 0.73447 0.13619 0.0
Co510 Co 0.82043 0.89339 0.09114 0.0
Co511 Co 0.83858 0.88038 0.16418 0.0
C512 C 0.95147 0.78426 0.11648 0.0
O513 O 0.92141 0.81769 0.09149 0.0
O514 O 0.92302 0.80656 0.14289 0.0
C515 C 0.76417 0.94155 0.02306 0.0
O516 O 0.80737 0.02178 0.01719 0.0
C517 C 0.9118 0.9693 0.22 0.0
C518 C 0.86033 0.8738 0.25659 0.0
C519 C 0.90577 0.95984 0.25184 0.0
N520 N 0.8698 0.89453 0.20657 0.0
N521 N 0.8415 0.83563 0.22867 0.0
C522 C 0.95653 0.04961 0.20288 0.0
H523 H 0.95847 0.03298 0.17771 0.0
H524 H 0.9295 0.12477 0.20691 0.0
H525 H 0.01746 0.05375 0.21206 0.0
C526 C 0.81296 0.1144 0.10862 0.0
N527 N 0.82403 0.01629 0.11569 0.0
N528 N 0.81982 0.00686 0.14598 0.0
C529 C 0.79836 0.0956 0.15881 0.0
C530 C 0.79501 0.16827 0.13568 0.0
C531 C 0.81355 0.15331 0.07621 0.0
H532 H 0.755 0.14037 0.06553 0.0
H533 H 0.85906 0.11233 0.06281 0.0
H534 H 0.82747 0.23512 0.07563 0.0
O535 O 0.74435 0.79938 0.10993 0.0
O536 O 0.74436 0.79658 0.16102 0.0
H537 H 0.69945 0.12782 0.18809 0.0
H538 H 0.79272 0.16236 0.20421 0.0
C539 C 0.76172 0.10382 0.19036 0.0
H540 H 0.76193 0.0303 0.20261 0.0
H541 H 0.80514 0.77309 0.22474 0.0
O542 O 0.76957 0.89632 0.04895 0.0
C543 C 0.71623 0.76726 0.13528 0.0
loop_
_geom_bond_atom_site_label_1
_geom_bond_atom_site_label_2
_geom_bond_distance
_geom_bond_site_symmetry_2
_ccdc_geom_bond_type
Co0 O3 1.970 . S
Co0 N17 1.987 1_545 S
Co0 O25 1.967 . S
Co0 O32 1.920 . S
Co1 O4 1.966 . S
Co1 N10 2.022 . S
Co1 N18 1.993 . S
Co1 O26 1.941 . S
C2 O3 1.258 . S
C2 O4 1.263 . S
O3 Co0 1.970 . S
O3 C2 1.258 . S
O4 Co1 1.966 . S
O4 C2 1.263 . S
C5 O6 1.235 . S
C5 O32 1.289 . S
O6 C5 1.235 . S
C7 C9 1.400 1_554 S
C7 N10 1.351 . S
C7 C12 1.501 . S
C8 C9 1.387 . S
C8 N11 1.341 1_556 S
C9 C7 1.400 1_556 S
C9 C8 1.387 . S
N10 Co1 2.022 . S
N10 C7 1.351 . S
N10 N11 1.365 . S
N11 C8 1.341 1_554 S
N11 N10 1.365 . S
N11 H31 0.862 . S
C12 C7 1.501 . S
C12 H13 0.961 . S
C12 H14 0.961 . S
C12 H15 0.960 . S
H13 C12 0.961 . S
H14 C12 0.961 . S
H15 C12 0.960 . S
C16 N17 1.344 . S
C16 C20 1.401 . S
C16 C21 1.499 . S
N17 Co0 1.987 1_565 S
N17 C16 1.344 . S
N17 N18 1.388 1_565 S
N18 Co1 1.993 . S
N18 N17 1.388 1_545 S
N18 C19 1.346 1_545 S
C19 N18 1.346 1_565 S
C19 C20 1.396 . S
C19 C29 1.510 . S
C20 C16 1.401 . S
C20 C19 1.396 . S
C21 C16 1.499 . S
C21 H22 0.959 . S
C21 H23 0.960 . S
C21 H24 0.961 . S
H22 C21 0.959 . S
H23 C21 0.960 . S
H24 C21 0.961 . S
O25 Co0 1.967 . S
O25 C33 1.258 . S
O26 Co1 1.941 . S
O26 C33 1.266 . S
H27 C29 0.959 . S
H28 C29 0.961 . S
C29 C19 1.510 . S
C29 H27 0.959 . S
C29 H28 0.961 . S
C29 H30 0.960 . S
H30 C29 0.960 . S
H31 N11 0.862 . S
O32 Co0 1.920 . S
O32 C5 1.289 . S
C33 O25 1.258 . S
C33 O26 1.266 . S
Co34 O37 1.970 . S
Co34 N51 1.989 . S
Co34 O59 1.967 . S
Co34 O66 1.920 . S
Co35 O38 1.966 . S
Co35 N44 2.022 . S
Co35 N52 1.993 . S
Co35 O60 1.941 . S
C36 O37 1.258 . S
C36 O38 1.263 . S
O37 Co34 1.970 . S
O37 C36 1.258 . S
O38 Co35 1.966 . S
O38 C36 1.263 . S
C39 O40 1.235 . S
C39 O66 1.289 . S
O40 C39 1.235 . S
C41 C43 1.400 1_554 S
C41 N44 1.351 . S
C41 C46 1.501 . S
C42 C43 1.387 . S
C42 N45 1.341 1_556 S
C43 C41 1.400 1_556 S
C43 C42 1.387 . S
N44 Co35 2.022 . S
N44 C41 1.351 . S
N44 N45 1.365 . S
N45 C42 1.341 1_554 S
N45 N44 1.365 . S
N45 H65 0.862 . S
C46 C41 1.501 . S
C46 H47 0.961 . S
C46 H48 0.961 . S
C46 H49 0.960 . S
H47 C46 0.961 . S
H48 C46 0.961 . S
H49 C46 0.960 . S
C50 N51 1.342 . S
C50 C54 1.401 . S
C50 C55 1.499 . S
N51 Co34 1.989 . S
N51 C50 1.342 . S
N51 N52 1.388 . S
N52 Co35 1.993 . S
N52 N51 1.388 . S
N52 C53 1.346 . S
C53 N52 1.346 . S
C53 C54 1.396 . S
C53 C63 1.510 . S
C54 C50 1.401 . S
C54 C53 1.396 . S
C55 C50 1.499 . S
C55 H56 0.959 . S
C55 H57 0.960 . S
C55 H58 0.961 . S
H56 C55 0.959 . S
H57 C55 0.960 . S
H58 C55 0.961 . S
O59 Co34 1.967 . S
O59 C67 1.258 . S
O60 Co35 1.941 . S
O60 C67 1.266 . S
H61 C63 0.959 . S
H62 C63 0.961 . S
C63 C53 1.510 . S
C63 H61 0.959 . S
C63 H62 0.961 . S
C63 H64 0.960 . S
H64 C63 0.960 . S
H65 N45 0.862 . S
O66 Co34 1.920 . S
O66 C39 1.289 . S
C67 O59 1.258 . S
C67 O60 1.266 . S
Co68 O71 1.970 . S
Co68 N85 1.989 1_565 S
Co68 O93 1.967 . S
Co68 O100 1.920 . S
Co69 O72 1.966 . S
Co69 N78 2.022 . S
Co69 N86 1.993 1_565 S
Co69 O94 1.941 . S
C70 O71 1.258 . S
C70 O72 1.263 . S
O71 Co68 1.970 . S
O71 C70 1.258 . S
O72 Co69 1.966 . S
O72 C70 1.263 . S
C73 O74 1.235 . S
C73 O100 1.289 . S
O74 C73 1.235 . S
C75 C77 1.400 . S
C75 N78 1.351 . S
C75 C80 1.501 . S
C76 C77 1.387 . S
C76 N79 1.341 . S
C77 C75 1.400 . S
C77 C76 1.387 . S
N78 Co69 2.022 . S
N78 C75 1.351 . S
N78 N79 1.365 . S
N79 C76 1.341 . S
N79 N78 1.365 . S
N79 H99 0.862 . S
C80 C75 1.501 . S
C80 H81 0.961 . S
C80 H82 0.961 . S
C80 H83 0.960 . S
H81 C80 0.961 . S
H82 C80 0.961 . S
H83 C80 0.960 . S
C84 N85 1.342 . S
C84 C88 1.401 . S
C84 C89 1.499 . S
N85 Co68 1.989 1_545 S
N85 C84 1.342 . S
N85 N86 1.388 . S
N86 Co69 1.993 1_545 S
N86 N85 1.388 . S
N86 C87 1.346 . S
C87 N86 1.346 . S
C87 C88 1.396 . S
C87 C97 1.510 . S
C88 C84 1.401 . S
C88 C87 1.396 . S
C89 C84 1.499 . S
C89 H90 0.959 . S
C89 H91 0.960 . S
C89 H92 0.961 . S
H90 C89 0.959 . S
H91 C89 0.960 . S
H92 C89 0.961 . S
O93 Co68 1.967 . S
O93 C101 1.258 . S
O94 Co69 1.941 . S
O94 C101 1.266 . S
H95 C97 0.959 . S
H96 C97 0.961 . S
C97 C87 1.510 . S
C97 H95 0.959 . S
C97 H96 0.961 . S
C97 H98 0.960 . S
H98 C97 0.960 . S
H99 N79 0.862 . S
O100 Co68 1.920 . S
O100 C73 1.289 . S
C101 O93 1.258 . S
C101 O94 1.266 . S
Co102 O105 1.970 . S
Co102 N119 1.989 . S
Co102 O127 1.967 . S
Co102 O134 1.920 . S
Co103 O106 1.966 . S
Co103 N112 2.022 . S
Co103 N120 1.993 . S
Co103 O128 1.941 . S
C104 O105 1.258 . S
C104 O106 1.263 . S
O105 Co102 1.970 . S
O105 C104 1.258 . S
O106 Co103 1.966 . S
O106 C104 1.263 . S
C107 O108 1.235 . S
C107 O134 1.289 . S
O108 C107 1.235 . S
C109 C111 1.400 . S
C109 N112 1.351 . S
C109 C114 1.501 . S
C110 C111 1.387 . S
C110 N113 1.341 . S
C111 C109 1.400 . S
C111 C110 1.387 . S
N112 Co103 2.022 . S
N112 C109 1.351 . S
N112 N113 1.365 . S
N113 C110 1.341 . S
N113 N112 1.365 . S
N113 H133 0.862 . S
C114 C109 1.501 . S
C114 H115 0.961 . S
C114 H116 0.961 . S
C114 H117 0.960 . S
H115 C114 0.961 . S
H116 C114 0.961 . S
H117 C114 0.960 . S
C118 N119 1.342 . S
C118 C122 1.401 . S
C118 C123 1.499 . S
N119 Co102 1.989 . S
N119 C118 1.342 . S
N119 N120 1.388 . S
N120 Co103 1.993 . S
N120 N119 1.388 . S
N120 C121 1.346 . S
C121 N120 1.346 . S
C121 C122 1.396 . S
C121 C131 1.510 . S
C122 C118 1.401 . S
C122 C121 1.396 . S
C123 C118 1.499 . S
C123 H124 0.959 . S
C123 H125 0.960 . S
C123 H126 0.961 . S
H124 C123 0.959 . S
H125 C123 0.960 . S
H126 C123 0.961 . S
O127 Co102 1.967 . S
O127 C135 1.258 . S
O128 Co103 1.941 . S
O128 C135 1.266 . S
H129 C131 0.959 . S
H130 C131 0.961 . S
C131 C121 1.510 . S
C131 H129 0.959 . S
C131 H130 0.961 . S
C131 H132 0.960 . S
H132 C131 0.960 . S
H133 N113 0.862 . S
O134 Co102 1.920 . S
O134 C107 1.289 . S
C135 O127 1.258 . S
C135 O128 1.266 . S
Co136 O139 1.970 . S
Co136 N153 1.989 . S
Co136 O161 1.967 . S
Co136 O168 1.920 . S
Co137 O140 1.966 . S
Co137 N146 2.022 . S
Co137 N154 1.993 1_565 S
Co137 O162 1.941 . S
C138 O139 1.258 . S
C138 O140 1.263 . S
O139 Co136 1.970 . S
O139 C138 1.258 . S
O140 Co137 1.966 . S
O140 C138 1.263 . S
C141 O142 1.235 . S
C141 O168 1.289 . S
O142 C141 1.235 . S
C143 C145 1.400 . S
C143 N146 1.351 . S
C143 C148 1.501 . S
C144 C145 1.387 . S
C144 N147 1.341 . S
C145 C143 1.400 . S
C145 C144 1.387 . S
N146 Co137 2.022 . S
N146 C143 1.351 . S
N146 N147 1.365 . S
N147 C144 1.341 . S
N147 N146 1.365 . S
N147 H167 0.862 . S
C148 C143 1.501 . S
C148 H149 0.961 . S
C148 H150 0.961 . S
C148 H151 0.960 . S
H149 C148 0.961 . S
H150 C148 0.961 . S
H151 C148 0.960 . S
C152 N153 1.342 1_545 S
C152 C156 1.401 . S
C152 C157 1.499 . S
N153 Co136 1.989 . S
N153 C152 1.342 1_565 S
N153 N154 1.388 1_565 S
N154 Co137 1.993 1_545 S
N154 N153 1.388 1_545 S
N154 C155 1.346 . S
C155 N154 1.346 . S
C155 C156 1.396 . S
C155 C165 1.510 . S
C156 C152 1.401 . S
C156 C155 1.396 . S
C157 C152 1.499 . S
C157 H158 0.959 . S
C157 H159 0.960 . S
C157 H160 0.961 . S
H158 C157 0.959 . S
H159 C157 0.960 . S
H160 C157 0.961 . S
O161 Co136 1.967 . S
O161 C169 1.258 . S
O162 Co137 1.941 . S
O162 C169 1.266 . S
H163 C165 0.959 . S
H164 C165 0.961 . S
C165 C155 1.510 . S
C165 H163 0.959 . S
C165 H164 0.961 . S
C165 H166 0.960 . S
H166 C165 0.960 . S
H167 N147 0.862 . S
O168 Co136 1.920 . S
O168 C141 1.289 . S
C169 O161 1.258 . S
C169 O162 1.266 . S
Co170 O173 1.970 . S
Co170 N187 1.989 . S
Co170 O195 1.967 . S
Co170 O202 1.920 . S
Co171 O174 1.966 . S
Co171 N180 2.022 . S
Co171 N188 1.993 . S
Co171 O196 1.941 . S
C172 O173 1.258 . S
C172 O174 1.263 . S
O173 Co170 1.970 . S
O173 C172 1.258 . S
O174 Co171 1.966 . S
O174 C172 1.263 . S
C175 O176 1.235 . S
C175 O202 1.289 . S
O176 C175 1.235 . S
C177 C179 1.400 . S
C177 N180 1.351 . S
C177 C182 1.501 . S
C178 C179 1.387 . S
C178 N181 1.341 . S
C179 C177 1.400 . S
C179 C178 1.387 . S
N180 Co171 2.022 . S
N180 C177 1.351 . S
N180 N181 1.365 . S
N181 C178 1.341 . S
N181 N180 1.365 . S
N181 H201 0.862 . S
C182 C177 1.501 . S
C182 H183 0.961 . S
C182 H184 0.961 . S
C182 H185 0.960 . S
H183 C182 0.961 . S
H184 C182 0.961 . S
H185 C182 0.960 . S
C186 N187 1.342 . S
C186 C190 1.401 . S
C186 C191 1.499 . S
N187 Co170 1.989 . S
N187 C186 1.342 . S
N187 N188 1.388 . S
N188 Co171 1.993 . S
N188 N187 1.388 . S
N188 C189 1.346 . S
C189 N188 1.346 . S
C189 C190 1.396 . S
C189 C199 1.510 . S
C190 C186 1.401 . S
C190 C189 1.396 . S
C191 C186 1.499 . S
C191 H192 0.959 . S
C191 H193 0.960 . S
C191 H194 0.961 . S
H192 C191 0.959 . S
H193 C191 0.960 . S
H194 C191 0.961 . S
O195 Co170 1.967 . S
O195 C203 1.258 . S
O196 Co171 1.941 . S
O196 C203 1.266 . S
H197 C199 0.959 . S
H198 C199 0.961 . S
C199 C189 1.510 . S
C199 H197 0.959 . S
C199 H198 0.961 . S
C199 H200 0.960 . S
H200 C199 0.960 . S
H201 N181 0.862 . S
O202 Co170 1.920 . S
O202 C175 1.289 . S
C203 O195 1.258 . S
C203 O196 1.266 . S
Co204 O207 1.970 . S
Co204 N221 1.989 . S
Co204 O229 1.967 . S
Co204 O236 1.920 . S
Co205 O208 1.966 . S
Co205 N214 2.022 . S
Co205 N222 1.993 . S
Co205 O230 1.941 . S
C206 O207 1.258 . S
C206 O208 1.263 . S
O207 Co204 1.970 . S
O207 C206 1.258 . S
O208 Co205 1.966 . S
O208 C206 1.263 . S
C209 O210 1.235 . S
C209 O236 1.289 . S
O210 C209 1.235 . S
C211 C213 1.400 . S
C211 N214 1.351 . S
C211 C216 1.501 . S
C212 C213 1.387 . S
C212 N215 1.341 . S
C213 C211 1.400 . S
C213 C212 1.387 . S
N214 Co205 2.022 . S
N214 C211 1.351 . S
N214 N215 1.365 . S
N215 C212 1.341 . S
N215 N214 1.365 . S
N215 H235 0.862 . S
C216 C211 1.501 . S
C216 H217 0.961 . S
C216 H218 0.961 . S
C216 H219 0.960 . S
H217 C216 0.961 . S
H218 C216 0.961 . S
H219 C216 0.960 . S
C220 N221 1.342 1_565 S
C220 C224 1.401 . S
C220 C225 1.499 . S
N221 Co204 1.989 . S
N221 C220 1.342 1_545 S
N221 N222 1.388 . S
N222 Co205 1.993 . S
N222 N221 1.388 . S
N222 C223 1.346 1_545 S
C223 N222 1.346 1_565 S
C223 C224 1.396 . S
C223 C233 1.510 . S
C224 C220 1.401 . S
C224 C223 1.396 . S
C225 C220 1.499 . S
C225 H226 0.959 . S
C225 H227 0.960 . S
C225 H228 0.961 . S
H226 C225 0.959 . S
H227 C225 0.960 . S
H228 C225 0.961 . S
O229 Co204 1.967 . S
O229 C237 1.258 . S
O230 Co205 1.941 . S
O230 C237 1.266 . S
H231 C233 0.959 . S
H232 C233 0.961 . S
C233 C223 1.510 . S
C233 H231 0.959 . S
C233 H232 0.961 . S
C233 H234 0.960 . S
H234 C233 0.960 . S
H235 N215 0.862 . S
O236 Co204 1.920 . S
O236 C209 1.289 . S
C237 O229 1.258 . S
C237 O230 1.266 . S
Co238 O241 1.970 . S
Co238 N255 1.989 . S
Co238 O263 1.967 . S
Co238 O270 1.920 . S
Co239 O242 1.966 . S
Co239 N248 2.022 . S
Co239 N256 1.993 . S
Co239 O264 1.941 . S
C240 O241 1.258 . S
C240 O242 1.263 . S
O241 Co238 1.970 . S
O241 C240 1.258 . S
O242 Co239 1.966 . S
O242 C240 1.263 . S
C243 O244 1.235 . S
C243 O270 1.289 . S
O244 C243 1.235 . S
C245 C247 1.400 . S
C245 N248 1.351 . S
C245 C250 1.501 . S
C246 C247 1.387 . S
C246 N249 1.341 . S
C247 C245 1.400 . S
C247 C246 1.387 . S
N248 Co239 2.022 . S
N248 C245 1.351 . S
N248 N249 1.365 . S
N249 C246 1.341 . S
N249 N248 1.365 . S
N249 H269 0.862 . S
C250 C245 1.501 . S
C250 H251 0.961 . S
C250 H252 0.961 . S
C250 H253 0.960 . S
H251 C250 0.961 . S
H252 C250 0.961 . S
H253 C250 0.960 . S
C254 N255 1.342 . S
C254 C258 1.401 . S
C254 C259 1.499 . S
N255 Co238 1.989 . S
N255 C254 1.342 . S
N255 N256 1.388 . S
N256 Co239 1.993 . S
N256 N255 1.388 . S
N256 C257 1.346 . S
C257 N256 1.346 . S
C257 C258 1.396 . S
C257 C267 1.510 . S
C258 C254 1.401 . S
C258 C257 1.396 . S
C259 C254 1.499 . S
C259 H260 0.959 . S
C259 H261 0.960 . S
C259 H262 0.961 . S
H260 C259 0.959 . S
H261 C259 0.960 . S
H262 C259 0.961 . S
O263 Co238 1.967 . S
O263 C271 1.258 . S
O264 Co239 1.941 . S
O264 C271 1.266 . S
H265 C267 0.959 . S
H266 C267 0.961 . S
C267 C257 1.510 . S
C267 H265 0.959 . S
C267 H266 0.961 . S
C267 H268 0.960 . S
H268 C267 0.960 . S
H269 N249 0.862 . S
O270 Co238 1.920 . S
O270 C243 1.289 . S
C271 O263 1.258 . S
C271 O264 1.266 . S
Co272 O275 1.970 . S
Co272 N289 1.989 . S
Co272 O297 1.967 . S
Co272 O304 1.920 . S
Co273 O276 1.966 . S
Co273 N282 2.022 . S
Co273 N290 1.993 . S
Co273 O298 1.941 . S
C274 O275 1.258 . S
C274 O276 1.263 . S
O275 Co272 1.970 . S
O275 C274 1.258 . S
O276 Co273 1.966 . S
O276 C274 1.263 . S
C277 O278 1.235 . S
C277 O304 1.289 . S
O278 C277 1.235 . S
C279 C281 1.400 . S
C279 N282 1.351 . S
C279 C284 1.501 . S
C280 C281 1.387 . S
C280 N283 1.341 . S
C281 C279 1.400 . S
C281 C280 1.387 . S
N282 Co273 2.022 . S
N282 C279 1.351 . S
N282 N283 1.365 . S
N283 C280 1.341 . S
N283 N282 1.365 . S
N283 H303 0.862 . S
C284 C279 1.501 . S
C284 H285 0.961 . S
C284 H286 0.961 . S
C284 H287 0.960 . S
H285 C284 0.961 . S
H286 C284 0.961 . S
H287 C284 0.960 . S
C288 N289 1.342 . S
C288 C292 1.401 . S
C288 C293 1.499 . S
N289 Co272 1.989 . S
N289 C288 1.342 . S
N289 N290 1.388 . S
N290 Co273 1.993 . S
N290 N289 1.388 . S
N290 C291 1.346 . S
C291 N290 1.346 . S
C291 C292 1.396 . S
C291 C301 1.510 . S
C292 C288 1.401 . S
C292 C291 1.396 . S
C293 C288 1.499 . S
C293 H294 0.959 . S
C293 H295 0.960 . S
C293 H296 0.961 . S
H294 C293 0.959 . S
H295 C293 0.960 . S
H296 C293 0.961 . S
O297 Co272 1.967 . S
O297 C305 1.258 . S
O298 Co273 1.941 . S
O298 C305 1.266 . S
H299 C301 0.959 . S
H300 C301 0.961 . S
C301 C291 1.510 . S
C301 H299 0.959 . S
C301 H300 0.961 . S
C301 H302 0.960 . S
H302 C301 0.960 . S
H303 N283 0.862 . S
O304 Co272 1.920 . S
O304 C277 1.289 . S
C305 O297 1.258 . S
C305 O298 1.266 . S
Co306 O309 1.970 . S
Co306 N323 1.987 1_565 S
Co306 O331 1.967 . S
Co306 O338 1.920 . S
Co307 O310 1.966 . S
Co307 N316 2.022 . S
Co307 N324 1.993 . S
Co307 O332 1.941 . S
C308 O309 1.258 . S
C308 O310 1.263 . S
O309 Co306 1.970 . S
O309 C308 1.258 . S
O310 Co307 1.966 . S
O310 C308 1.263 . S
C311 O312 1.235 . S
C311 O338 1.289 . S
O312 C311 1.235 . S
C313 C315 1.400 . S
C313 N316 1.351 . S
C313 C318 1.501 . S
C314 C315 1.387 . S
C314 N317 1.341 . S
C315 C313 1.400 . S
C315 C314 1.387 . S
N316 Co307 2.022 . S
N316 C313 1.351 . S
N316 N317 1.365 . S
N317 C314 1.341 . S
N317 N316 1.365 . S
N317 H337 0.862 . S
C318 C313 1.501 . S
C318 H319 0.961 . S
C318 H320 0.961 . S
C318 H321 0.960 . S
H319 C318 0.961 . S
H320 C318 0.961 . S
H321 C318 0.960 . S
C322 N323 1.344 . S
C322 C326 1.401 . S
C322 C327 1.499 . S
N323 Co306 1.987 1_545 S
N323 C322 1.344 . S
N323 N324 1.388 1_545 S
N324 Co307 1.993 . S
N324 N323 1.388 1_565 S
N324 C325 1.346 1_565 S
C325 N324 1.346 1_545 S
C325 C326 1.396 . S
C325 C335 1.510 . S
C326 C322 1.401 . S
C326 C325 1.396 . S
C327 C322 1.499 . S
C327 H328 0.959 . S
C327 H329 0.960 . S
C327 H330 0.961 . S
H328 C327 0.959 . S
H329 C327 0.960 . S
H330 C327 0.961 . S
O331 Co306 1.967 . S
O331 C339 1.258 . S
O332 Co307 1.941 . S
O332 C339 1.266 . S
H333 C335 0.959 . S
H334 C335 0.961 . S
C335 C325 1.510 . S
C335 H333 0.959 . S
C335 H334 0.961 . S
C335 H336 0.960 . S
H336 C335 0.960 . S
H337 N317 0.862 . S
O338 Co306 1.920 . S
O338 C311 1.289 . S
C339 O331 1.258 . S
C339 O332 1.266 . S
Co340 O343 1.970 . S
Co340 N357 1.989 . S
Co340 O365 1.967 . S
Co340 O372 1.920 . S
Co341 O344 1.966 . S
Co341 N350 2.022 . S
Co341 N358 1.993 . S
Co341 O366 1.941 . S
C342 O343 1.258 . S
C342 O344 1.263 . S
O343 Co340 1.970 . S
O343 C342 1.258 . S
O344 Co341 1.966 . S
O344 C342 1.263 . S
C345 O346 1.235 . S
C345 O372 1.289 . S
O346 C345 1.235 . S
C347 C349 1.400 . S
C347 N350 1.351 . S
C347 C352 1.501 1_655 S
C348 C349 1.387 . S
C348 N351 1.341 . S
C349 C347 1.400 . S
C349 C348 1.387 . S
N350 Co341 2.022 . S
N350 C347 1.351 . S
N350 N351 1.365 . S
N351 C348 1.341 . S
N351 N350 1.365 . S
N351 H371 0.862 . S
C352 C347 1.501 1_455 S
C352 H353 0.961 . S
C352 H354 0.961 . S
C352 H355 0.960 . S
H353 C352 0.961 . S
H354 C352 0.961 . S
H355 C352 0.960 . S
C356 N357 1.342 . S
C356 C360 1.401 . S
C356 C361 1.499 . S
N357 Co340 1.989 . S
N357 C356 1.342 . S
N357 N358 1.388 . S
N358 Co341 1.993 . S
N358 N357 1.388 . S
N358 C359 1.346 . S
C359 N358 1.346 . S
C359 C360 1.396 . S
C359 C369 1.510 . S
C360 C356 1.401 . S
C360 C359 1.396 . S
C361 C356 1.499 . S
C361 H362 0.959 . S
C361 H363 0.960 . S
C361 H364 0.961 . S
H362 C361 0.959 . S
H363 C361 0.960 . S
H364 C361 0.961 . S
O365 Co340 1.967 . S
O365 C373 1.258 . S
O366 Co341 1.941 . S
O366 C373 1.266 . S
H367 C369 0.959 . S
H368 C369 0.961 . S
C369 C359 1.510 . S
C369 H367 0.959 . S
C369 H368 0.961 . S
C369 H370 0.960 . S
H370 C369 0.960 . S
H371 N351 0.862 . S
O372 Co340 1.920 . S
O372 C345 1.289 . S
C373 O365 1.258 . S
C373 O366 1.266 . S
Co374 O377 1.970 . S
Co374 N391 1.989 1_545 S
Co374 O399 1.967 . S
Co374 O406 1.920 . S
Co375 O378 1.966 . S
Co375 N384 2.022 . S
Co375 N392 1.993 1_545 S
Co375 O400 1.941 . S
C376 O377 1.258 . S
C376 O378 1.263 . S
O377 Co374 1.970 . S
O377 C376 1.258 . S
O378 Co375 1.966 . S
O378 C376 1.263 . S
C379 O380 1.235 . S
C379 O406 1.289 . S
O380 C379 1.235 . S
C381 C383 1.400 . S
C381 N384 1.351 . S
C381 C386 1.501 1_455 S
C382 C383 1.387 . S
C382 N385 1.341 . S
C383 C381 1.400 . S
C383 C382 1.387 . S
N384 Co375 2.022 . S
N384 C381 1.351 . S
N384 N385 1.365 . S
N385 C382 1.341 . S
N385 N384 1.365 . S
N385 H405 0.862 . S
C386 C381 1.501 1_655 S
C386 H387 0.961 . S
C386 H388 0.961 . S
C386 H389 0.960 . S
H387 C386 0.961 . S
H388 C386 0.961 . S
H389 C386 0.960 . S
C390 N391 1.342 . S
C390 C394 1.401 . S
C390 C395 1.499 . S
N391 Co374 1.989 1_565 S
N391 C390 1.342 . S
N391 N392 1.388 . S
N392 Co375 1.993 1_565 S
N392 N391 1.388 . S
N392 C393 1.346 . S
C393 N392 1.346 . S
C393 C394 1.396 . S
C393 C403 1.510 . S
C394 C390 1.401 . S
C394 C393 1.396 . S
C395 C390 1.499 . S
C395 H396 0.959 . S
C395 H397 0.960 . S
C395 H398 0.961 . S
H396 C395 0.959 . S
H397 C395 0.960 . S
H398 C395 0.961 . S
O399 Co374 1.967 . S
O399 C407 1.258 . S
O400 Co375 1.941 . S
O400 C407 1.266 . S
H401 C403 0.959 . S
H402 C403 0.961 . S
C403 C393 1.510 . S
C403 H401 0.959 . S
C403 H402 0.961 . S
C403 H404 0.960 . S
H404 C403 0.960 . S
H405 N385 0.862 . S
O406 Co374 1.920 . S
O406 C379 1.289 . S
C407 O399 1.258 . S
C407 O400 1.266 . S
Co408 O411 1.970 . S
Co408 N425 1.989 . S
Co408 O433 1.967 . S
Co408 O440 1.920 . S
Co409 O412 1.966 . S
Co409 N418 2.022 . S
Co409 N426 1.993 . S
Co409 O434 1.941 . S
C410 O411 1.258 . S
C410 O412 1.263 . S
O411 Co408 1.970 . S
O411 C410 1.258 . S
O412 Co409 1.966 . S
O412 C410 1.263 . S
C413 O414 1.235 . S
C413 O440 1.289 . S
O414 C413 1.235 . S
C415 C417 1.400 . S
C415 N418 1.351 . S
C415 C420 1.501 . S
C416 C417 1.387 . S
C416 N419 1.341 . S
C417 C415 1.400 . S
C417 C416 1.387 . S
N418 Co409 2.022 . S
N418 C415 1.351 . S
N418 N419 1.365 . S
N419 C416 1.341 . S
N419 N418 1.365 . S
N419 H439 0.862 . S
C420 C415 1.501 . S
C420 H421 0.961 . S
C420 H422 0.961 1_455 S
C420 H423 0.960 1_455 S
H421 C420 0.961 . S
H422 C420 0.961 1_655 S
H423 C420 0.960 1_655 S
C424 N425 1.342 . S
C424 C428 1.401 . S
C424 C429 1.499 . S
N425 Co408 1.989 . S
N425 C424 1.342 . S
N425 N426 1.388 . S
N426 Co409 1.993 . S
N426 N425 1.388 . S
N426 C427 1.346 . S
C427 N426 1.346 . S
C427 C428 1.396 . S
C427 C437 1.510 . S
C428 C424 1.401 . S
C428 C427 1.396 . S
C429 C424 1.499 . S
C429 H430 0.959 . S
C429 H431 0.960 . S
C429 H432 0.961 . S
H430 C429 0.959 . S
H431 C429 0.960 . S
H432 C429 0.961 . S
O433 Co408 1.967 . S
O433 C441 1.258 . S
O434 Co409 1.941 . S
O434 C441 1.266 . S
H435 C437 0.959 . S
H436 C437 0.961 . S
C437 C427 1.510 . S
C437 H435 0.959 . S
C437 H436 0.961 . S
C437 H438 0.960 . S
H438 C437 0.960 . S
H439 N419 0.862 . S
O440 Co408 1.920 . S
O440 C413 1.289 . S
C441 O433 1.258 . S
C441 O434 1.266 . S
Co442 O445 1.970 . S
Co442 N459 1.989 . S
Co442 O467 1.967 . S
Co442 O474 1.920 . S
Co443 O446 1.966 . S
Co443 N452 2.022 . S
Co443 N460 1.993 1_545 S
Co443 O468 1.941 . S
C444 O445 1.258 . S
C444 O446 1.263 . S
O445 Co442 1.970 . S
O445 C444 1.258 . S
O446 Co443 1.966 . S
O446 C444 1.263 . S
C447 O448 1.235 . S
C447 O474 1.289 . S
O448 C447 1.235 . S
C449 C451 1.400 . S
C449 N452 1.351 . S
C449 C454 1.501 . S
C450 C451 1.387 . S
C450 N453 1.341 . S
C451 C449 1.400 . S
C451 C450 1.387 . S
N452 Co443 2.022 . S
N452 C449 1.351 . S
N452 N453 1.365 . S
N453 C450 1.341 . S
N453 N452 1.365 . S
N453 H473 0.862 . S
C454 C449 1.501 . S
C454 H455 0.961 . S
C454 H456 0.961 1_655 S
C454 H457 0.960 1_655 S
H455 C454 0.961 . S
H456 C454 0.961 1_455 S
H457 C454 0.960 1_455 S
C458 N459 1.342 1_565 S
C458 C462 1.401 . S
C458 C463 1.499 . S
N459 Co442 1.989 . S
N459 C458 1.342 1_545 S
N459 N460 1.388 1_545 S
N460 Co443 1.993 1_565 S
N460 N459 1.388 1_565 S
N460 C461 1.346 . S
C461 N460 1.346 . S
C461 C462 1.396 . S
C461 C471 1.510 . S
C462 C458 1.401 . S
C462 C461 1.396 . S
C463 C458 1.499 . S
C463 H464 0.959 . S
C463 H465 0.960 . S
C463 H466 0.961 . S
H464 C463 0.959 . S
H465 C463 0.960 . S
H466 C463 0.961 . S
O467 Co442 1.967 . S
O467 C475 1.258 . S
O468 Co443 1.941 . S
O468 C475 1.266 . S
H469 C471 0.959 . S
H470 C471 0.961 . S
C471 C461 1.510 . S
C471 H469 0.959 . S
C471 H470 0.961 . S
C471 H472 0.960 . S
H472 C471 0.960 . S
H473 N453 0.862 . S
O474 Co442 1.920 . S
O474 C447 1.289 . S
C475 O467 1.258 . S
C475 O468 1.266 . S
Co476 O479 1.970 . S
Co476 N493 1.989 . S
Co476 O501 1.967 . S
Co476 O508 1.920 . S
Co477 O480 1.966 . S
Co477 N486 2.022 . S
Co477 N494 1.993 . S
Co477 O502 1.941 . S
C478 O479 1.258 . S
C478 O480 1.263 . S
O479 Co476 1.970 . S
O479 C478 1.258 . S
O480 Co477 1.966 . S
O480 C478 1.263 . S
C481 O482 1.235 . S
C481 O508 1.289 . S
O482 C481 1.235 . S
C483 C485 1.400 . S
C483 N486 1.351 . S
C483 C488 1.501 . S
C484 C485 1.387 . S
C484 N487 1.341 . S
C485 C483 1.400 . S
C485 C484 1.387 . S
N486 Co477 2.022 . S
N486 C483 1.351 . S
N486 N487 1.365 . S
N487 C484 1.341 . S
N487 N486 1.365 . S
N487 H507 0.862 . S
C488 C483 1.501 . S
C488 H489 0.961 . S
C488 H490 0.961 1_455 S
C488 H491 0.960 1_455 S
H489 C488 0.961 . S
H490 C488 0.961 1_655 S
H491 C488 0.960 1_655 S
C492 N493 1.342 . S
C492 C496 1.401 . S
C492 C497 1.499 . S
N493 Co476 1.989 . S
N493 C492 1.342 . S
N493 N494 1.388 . S
N494 Co477 1.993 . S
N494 N493 1.388 . S
N494 C495 1.346 . S
C495 N494 1.346 . S
C495 C496 1.396 . S
C495 C505 1.510 . S
C496 C492 1.401 . S
C496 C495 1.396 . S
C497 C492 1.499 . S
C497 H498 0.959 . S
C497 H499 0.960 . S
C497 H500 0.961 . S
H498 C497 0.959 . S
H499 C497 0.960 . S
H500 C497 0.961 . S
O501 Co476 1.967 . S
O501 C509 1.258 . S
O502 Co477 1.941 . S
O502 C509 1.266 . S
H503 C505 0.959 . S
H504 C505 0.961 . S
C505 C495 1.510 . S
C505 H503 0.959 . S
C505 H504 0.961 . S
C505 H506 0.960 . S
H506 C505 0.960 . S
H507 N487 0.862 . S
O508 Co476 1.920 . S
O508 C481 1.289 . S
C509 O501 1.258 . S
C509 O502 1.266 . S
Co510 O513 1.970 . S
Co510 N527 1.989 . S
Co510 O535 1.967 . S
Co510 O542 1.920 . S
Co511 O514 1.966 . S
Co511 N520 2.022 . S
Co511 N528 1.993 . S
Co511 O536 1.941 . S
C512 O513 1.258 . S
C512 O514 1.263 . S
O513 Co510 1.970 . S
O513 C512 1.258 . S
O514 Co511 1.966 . S
O514 C512 1.263 . S
C515 O516 1.235 . S
C515 O542 1.289 . S
O516 C515 1.235 . S
C517 C519 1.400 . S
C517 N520 1.351 . S
C517 C522 1.501 . S
C518 C519 1.387 . S
C518 N521 1.341 . S
C519 C517 1.400 . S
C519 C518 1.387 . S
N520 Co511 2.022 . S
N520 C517 1.351 . S
N520 N521 1.365 . S
N521 C518 1.341 . S
N521 N520 1.365 . S
N521 H541 0.862 . S
C522 C517 1.501 . S
C522 H523 0.961 . S
C522 H524 0.961 1_655 S
C522 H525 0.960 1_655 S
H523 C522 0.961 . S
H524 C522 0.961 1_455 S
H525 C522 0.960 1_455 S
C526 N527 1.342 1_545 S
C526 C530 1.401 . S
C526 C531 1.499 . S
N527 Co510 1.989 . S
N527 C526 1.342 1_565 S
N527 N528 1.388 . S
N528 Co511 1.993 . S
N528 N527 1.388 . S
N528 C529 1.346 1_565 S
C529 N528 1.346 1_545 S
C529 C530 1.396 . S
C529 C539 1.510 . S
C530 C526 1.401 . S
C530 C529 1.396 . S
C531 C526 1.499 . S
C531 H532 0.959 . S
C531 H533 0.960 . S
C531 H534 0.961 . S
H532 C531 0.959 . S
H533 C531 0.960 . S
H534 C531 0.961 . S
O535 Co510 1.967 . S
O535 C543 1.258 . S
O536 Co511 1.941 . S
O536 C543 1.266 . S
H537 C539 0.959 . S
H538 C539 0.961 . S
C539 C529 1.510 . S
C539 H537 0.959 . S
C539 H538 0.961 . S
C539 H540 0.960 . S
H540 C539 0.960 . S
H541 N521 0.862 . S
O542 Co510 1.920 . S
O542 C515 1.289 . S
C543 O535 1.258 . S
C543 O536 1.266 . S
C20 C509 0.849 . S
C54 C543 0.849 . S
C88 C441 0.868 . S
C475 C122 0.868 . S
C156 C373 1.376 . S
C190 C407 1.376 . S
C224 C274 1.254 . S
C308 C258 1.254 . S
C292 C237 0.849 . S
C271 C326 0.849 . S
C360 C169 0.868 . S
C394 C203 0.868 . S
C428 C101 1.376 . S
C462 C135 1.376 . S
C2 C496 1.254 . S
C36 C530 1.254 . S
C9 C379 2.420 . S
C345 C43 2.420 . S
C73 C315 2.420 . S
C281 C107 2.420 . S
C141 C515 3.304 1_556 S
C481 C175 3.304 1_554 S
C209 C447 3.304 . S
C243 C413 3.304 . S
C5 C77 2.372 1_545 S
C39 C111 2.372 . S
C145 C213 1.329 1_565 S
C247 C179 1.329 . S
C349 C277 2.372 . S
C383 C311 2.372 1_545 S
C417 C485 1.329 . S
C451 C519 1.329 1_545 S
C67 C33 1.739 . S
C70 C104 1.953 . S
C138 C172 1.893 . S
C240 C206 1.789 . S
C305 C339 1.739 1_655 S
C376 C342 1.953 1_455 S
C410 C444 1.893 1_455 S
C512 C478 1.789 1_655 S
