# Generated by pormake.
# Topology whz, (6)-cn, num edge types: 1
# Building blocks:
#     Node 0, Type 0, BuildingBlock: JUFBIX_clean_sbu_0, # of connection points: 6
#     Node 1, Type 0, BuildingBlock: JUFBIX_clean_sbu_0, # of connection points: 6
#     Node 2, Type 0, BuildingBlock: JUFBIX_clean_sbu_0, # of connection points: 6
#     Node 3, Type 0, BuildingBlock: JUFBIX_clean_sbu_0, # of connection points: 6
#     Node 4, Type 0, BuildingBlock: JUFBIX_clean_sbu_0, # of connection points: 6
#     Node 5, Type 0, BuildingBlock: JUFBIX_clean_sbu_0, # of connection points: 6
#     Node 6, Type 0, BuildingBlock: JUFBIX_clean_sbu_0, # of connection points: 6
#     Node 7, Type 0, BuildingBlock: JUFBIX_clean_sbu_0, # of connection points: 6
#     Node 8, Type 0, BuildingBlock: JUFBIX_clean_sbu_0, # of connection points: 6
#     Node 9, Type 0, BuildingBlock: JUFBIX_clean_sbu_0, # of connection points: 6
#     Node 10, Type 0, BuildingBlock: JUFBIX_clean_sbu_0, # of connection points: 6
#     Node 11, Type 0, BuildingBlock: JUFBIX_clean_sbu_0, # of connection points: 6
#     Node 12, Type 0, BuildingBlock: JUFBIX_clean_sbu_0, # of connection points: 6
#     Node 13, Type 0, BuildingBlock: JUFBIX_clean_sbu_0, # of connection points: 6
#     Node 14, Type 0, BuildingBlock: JUFBIX_clean_sbu_0, # of connection points: 6
#     Node 15, Type 0, BuildingBlock: JUFBIX_clean_sbu_0, # of connection points: 6
#     Edge 16, Type (0, 0), BuildingBlock: TEMPAE_clean_linker_10, # of connection points: 2
#     Edge 17, Type (0, 0), BuildingBlock: TEMPAE_clean_linker_10, # of connection points: 2
#     Edge 18, Type (0, 0), BuildingBlock: TEMPAE_clean_linker_10, # of connection points: 2
#     Edge 19, Type (0, 0), BuildingBlock: TEMPAE_clean_linker_10, # of connection points: 2
#     Edge 20, Type (0, 0), BuildingBlock: TEMPAE_clean_linker_10, # of connection points: 2
#     Edge 21, Type (0, 0), BuildingBlock: TEMPAE_clean_linker_10, # of connection points: 2
#     Edge 22, Type (0, 0), BuildingBlock: TEMPAE_clean_linker_10, # of connection points: 2
#     Edge 23, Type (0, 0), BuildingBlock: TEMPAE_clean_linker_10, # of connection points: 2
#     Edge 24, Type (0, 0), BuildingBlock: TEMPAE_clean_linker_10, # of connection points: 2
#     Edge 25, Type (0, 0), BuildingBlock: TEMPAE_clean_linker_10, # of connection points: 2
#     Edge 26, Type (0, 0), BuildingBlock: TEMPAE_clean_linker_10, # of connection points: 2
#     Edge 27, Type (0, 0), BuildingBlock: TEMPAE_clean_linker_10, # of connection points: 2
#     Edge 28, Type (0, 0), BuildingBlock: TEMPAE_clean_linker_10, # of connection points: 2
#     Edge 29, Type (0, 0), BuildingBlock: TEMPAE_clean_linker_10, # of connection points: 2
#     Edge 30, Type (0, 0), BuildingBlock: TEMPAE_clean_linker_10, # of connection points: 2
#     Edge 31, Type (0, 0), BuildingBlock: TEMPAE_clean_linker_10, # of connection points: 2
#     Edge 32, Type (0, 0), BuildingBlock: TEMPAE_clean_linker_10, # of connection points: 2
#     Edge 33, Type (0, 0), BuildingBlock: TEMPAE_clean_linker_10, # of connection points: 2
#     Edge 34, Type (0, 0), BuildingBlock: TEMPAE_clean_linker_10, # of connection points: 2
#     Edge 35, Type (0, 0), BuildingBlock: TEMPAE_clean_linker_10, # of connection points: 2
#     Edge 36, Type (0, 0), BuildingBlock: TEMPAE_clean_linker_10, # of connection points: 2
#     Edge 37, Type (0, 0), BuildingBlock: TEMPAE_clean_linker_10, # of connection points: 2
#     Edge 38, Type (0, 0), BuildingBlock: TEMPAE_clean_linker_10, # of connection points: 2
#     Edge 39, Type (0, 0), BuildingBlock: TEMPAE_clean_linker_10, # of connection points: 2
#     Edge 40, Type (0, 0), BuildingBlock: TEMPAE_clean_linker_10, # of connection points: 2
#     Edge 41, Type (0, 0), BuildingBlock: TEMPAE_clean_linker_10, # of connection points: 2
#     Edge 42, Type (0, 0), BuildingBlock: TEMPAE_clean_linker_10, # of connection points: 2
#     Edge 43, Type (0, 0), BuildingBlock: TEMPAE_clean_linker_10, # of connection points: 2
#     Edge 44, Type (0, 0), BuildingBlock: TEMPAE_clean_linker_10, # of connection points: 2
#     Edge 45, Type (0, 0), BuildingBlock: TEMPAE_clean_linker_10, # of connection points: 2
#     Edge 46, Type (0, 0), BuildingBlock: TEMPAE_clean_linker_10, # of connection points: 2
#     Edge 47, Type (0, 0), BuildingBlock: TEMPAE_clean_linker_10, # of connection points: 2
#     Edge 48, Type (0, 0), BuildingBlock: TEMPAE_clean_linker_10, # of connection points: 2
#     Edge 49, Type (0, 0), BuildingBlock: TEMPAE_clean_linker_10, # of connection points: 2
#     Edge 50, Type (0, 0), BuildingBlock: TEMPAE_clean_linker_10, # of connection points: 2
#     Edge 51, Type (0, 0), BuildingBlock: TEMPAE_clean_linker_10, # of connection points: 2
#     Edge 52, Type (0, 0), BuildingBlock: TEMPAE_clean_linker_10, # of connection points: 2
#     Edge 53, Type (0, 0), BuildingBlock: TEMPAE_clean_linker_10, # of connection points: 2
#     Edge 54, Type (0, 0), BuildingBlock: TEMPAE_clean_linker_10, # of connection points: 2
#     Edge 55, Type (0, 0), BuildingBlock: TEMPAE_clean_linker_10, # of connection points: 2
#     Edge 56, Type (0, 0), BuildingBlock: TEMPAE_clean_linker_10, # of connection points: 2
#     Edge 57, Type (0, 0), BuildingBlock: TEMPAE_clean_linker_10, # of connection points: 2
#     Edge 58, Type (0, 0), BuildingBlock: TEMPAE_clean_linker_10, # of connection points: 2
#     Edge 59, Type (0, 0), BuildingBlock: TEMPAE_clean_linker_10, # of connection points: 2
#     Edge 60, Type (0, 0), BuildingBlock: TEMPAE_clean_linker_10, # of connection points: 2
#     Edge 61, Type (0, 0), BuildingBlock: TEMPAE_clean_linker_10, # of connection points: 2
#     Edge 62, Type (0, 0), BuildingBlock: TEMPAE_clean_linker_10, # of connection points: 2
#     Edge 63, Type (0, 0), BuildingBlock: TEMPAE_clean_linker_10, # of connection points: 2
# Relax obj value: 0.407
# Max RMSD: 0.257
# Mean RMSD: 0.257
data_MOF--net-whz--node1-JUFBIX_clean_sbu_0--edge1-TEMPAE_clean_linker_10
_symmetry_space_group_name_H-M    P1
_symmetry_Int_Tables_number       1
_symmetry_cell_setting            triclinic
loop_
_symmetry_equiv_pos_as_xyz
'x, y, z'
_cell_length_a     40.991358
_cell_length_b     40.975557
_cell_length_c     46.203624
_cell_angle_alpha  90.023779
_cell_angle_beta   90.07411
_cell_angle_gamma 90.014625
loop_
_atom_site_label
_atom_site_type_symbol
_atom_site_fract_x
_atom_site_fract_y
_atom_site_fract_z
_atom_type_partial_charge
Co0 Co 0.26343 0.13823 0.12698 0.0
C1 C 0.32055 0.10528 0.1446 0.0
Co2 Co 0.30969 0.16462 0.1185 0.0
C3 C 0.19574 0.11973 0.14012 0.0
C4 C 0.22665 0.08002 0.12752 0.0
N5 N 0.22694 0.11237 0.13316 0.0
N6 N 0.17629 0.09316 0.13857 0.0
C7 C 0.19567 0.06823 0.13077 0.0
H8 H 0.18717 0.14418 0.14468 0.0
H9 H 0.24744 0.06605 0.12018 0.0
C10 C 0.25186 0.1987 0.10458 0.0
N11 N 0.34689 0.19001 0.11064 0.0
C12 C 0.37505 0.1954 0.12545 0.0
C13 C 0.34926 0.20933 0.08707 0.0
N14 N 0.39425 0.21777 0.11212 0.0
C15 C 0.37799 0.22645 0.08804 0.0
C16 C 0.28815 0.12784 0.07165 0.0
O17 O 0.23717 0.17304 0.1129 0.0
O18 O 0.28287 0.19902 0.10429 0.0
O19 O 0.31165 0.14613 0.07969 0.0
O20 O 0.26599 0.12094 0.08966 0.0
O21 O 0.33603 0.12978 0.1345 0.0
H22 H 0.331 0.21113 0.07022 0.0
H23 H 0.38099 0.1838 0.14583 0.0
O24 O 0.28978 0.10436 0.1419 0.0
O25 O 0.26045 0.15616 0.16396 0.0
O26 O 0.30592 0.18344 0.15622 0.0
C27 C 0.28148 0.17693 0.17232 0.0
H28 H 0.18769 0.04341 0.12689 0.0
H29 H 0.38651 0.24383 0.07209 0.0
Co30 Co 0.62346 0.51211 0.38355 0.0
C31 C 0.65916 0.56795 0.39798 0.0
Co32 Co 0.5998 0.5585 0.3706 0.0
C33 C 0.64575 0.44441 0.38781 0.0
C34 C 0.6569 0.47366 0.42496 0.0
N35 N 0.64315 0.47503 0.39843 0.0
N36 N 0.66024 0.42408 0.40695 0.0
C37 C 0.66735 0.44249 0.43025 0.0
H38 H 0.63653 0.43703 0.36684 0.0
H39 H 0.65883 0.49404 0.43976 0.0
C40 C 0.5632 0.50211 0.3593 0.0
N41 N 0.57935 0.59636 0.35648 0.0
C42 C 0.56938 0.62422 0.36975 0.0
C43 C 0.56868 0.5994 0.32899 0.0
N44 N 0.55267 0.64419 0.35155 0.0
C45 C 0.55254 0.62851 0.3259 0.0
C46 C 0.63951 0.5274 0.32823 0.0
O47 O 0.58742 0.48731 0.37041 0.0
O48 O 0.56455 0.53292 0.356 0.0
O49 O 0.62274 0.5529 0.33395 0.0
O50 O 0.6441 0.50635 0.34796 0.0
O51 O 0.63539 0.58372 0.38686 0.0
H52 H 0.57171 0.58115 0.3123 0.0
H53 H 0.57331 0.62922 0.3925 0.0
O54 O 0.65883 0.53703 0.39706 0.0
O55 O 0.60203 0.51724 0.41876 0.0
O56 O 0.5764 0.56198 0.40625 0.0
C57 C 0.58105 0.53898 0.42425 0.0
H58 H 0.67952 0.43405 0.44966 0.0
H59 H 0.54144 0.6374 0.30615 0.0
Co60 Co 0.25006 0.87549 0.63568 0.0
C61 C 0.19508 0.91352 0.64671 0.0
Co62 Co 0.20363 0.85251 0.62179 0.0
C63 C 0.31816 0.89627 0.64087 0.0
C64 C 0.28835 0.90915 0.67716 0.0
N65 N 0.28725 0.89471 0.65091 0.0
N66 N 0.33839 0.91071 0.66014 0.0
C67 C 0.31966 0.91888 0.68291 0.0
H68 H 0.32581 0.88636 0.62024 0.0
H69 H 0.26767 0.91205 0.69146 0.0
C70 C 0.25902 0.81379 0.61385 0.0
N71 N 0.16555 0.83251 0.60738 0.0
C72 C 0.13776 0.8224 0.62069 0.0
C73 C 0.16235 0.82196 0.57987 0.0
N74 N 0.11769 0.80577 0.6025 0.0
C75 C 0.13322 0.80583 0.5768 0.0
C76 C 0.23757 0.88911 0.57901 0.0
O77 O 0.27397 0.83783 0.62516 0.0
O78 O 0.22848 0.81595 0.60918 0.0
O79 O 0.21122 0.87367 0.58459 0.0
O80 O 0.25815 0.89368 0.59919 0.0
O81 O 0.17909 0.88957 0.63611 0.0
H82 H 0.18055 0.82493 0.56316 0.0
H83 H 0.13294 0.8261 0.64348 0.0
O84 O 0.226 0.91254 0.64653 0.0
O85 O 0.24231 0.85669 0.67195 0.0
O86 O 0.19805 0.83111 0.6581 0.0
C87 C 0.21933 0.83705 0.67743 0.0
H88 H 0.32801 0.93128 0.70224 0.0
H89 H 0.12428 0.79478 0.55704 0.0
Co90 Co 0.88852 0.50094 0.88553 0.0
C91 C 0.85346 0.44416 0.89793 0.0
Co92 Co 0.91358 0.45528 0.87263 0.0
C93 C 0.86508 0.56831 0.89035 0.0
C94 C 0.85269 0.53788 0.92638 0.0
N95 N 0.86752 0.53738 0.90031 0.0
N96 N 0.84971 0.58795 0.9095 0.0
C97 C 0.84183 0.56882 0.93208 0.0
H98 H 0.8752 0.57644 0.86995 0.0
H99 H 0.85048 0.5171 0.94068 0.0
C100 C 0.94938 0.51252 0.86319 0.0
N101 N 0.93522 0.41801 0.85873 0.0
C102 C 0.94487 0.39004 0.872 0.0
C103 C 0.94692 0.41543 0.83157 0.0
N104 N 0.96236 0.37039 0.85411 0.0
C105 C 0.96335 0.38644 0.82866 0.0
C106 C 0.87465 0.48612 0.82953 0.0
O107 O 0.92458 0.52663 0.87396 0.0
O108 O 0.94867 0.48177 0.85924 0.0
O109 O 0.89163 0.46082 0.83546 0.0
O110 O 0.86917 0.5069 0.84932 0.0
O111 O 0.8781 0.42911 0.88761 0.0
H112 H 0.94426 0.43384 0.81497 0.0
H113 H 0.94002 0.38468 0.89452 0.0
O114 O 0.85309 0.47509 0.89745 0.0
O115 O 0.90873 0.4956 0.92142 0.0
O116 O 0.93601 0.45188 0.90885 0.0
C117 C 0.93031 0.47445 0.92704 0.0
H118 H 0.82905 0.57668 0.95135 0.0
H119 H 0.9751 0.37787 0.80913 0.0
Co120 Co 0.70797 0.85356 0.88561 0.0
C121 C 0.762 0.81495 0.89827 0.0
Co122 Co 0.75555 0.87556 0.87321 0.0
C123 C 0.64138 0.82521 0.88415 0.0
C124 C 0.66095 0.8301 0.92689 0.0
N125 N 0.66825 0.83555 0.89882 0.0
N126 N 0.61768 0.81419 0.90213 0.0
C127 C 0.63003 0.81735 0.92897 0.0
H128 H 0.63905 0.82609 0.86082 0.0
H129 H 0.67715 0.83479 0.94488 0.0
C130 C 0.70188 0.91338 0.85778 0.0
N131 N 0.79418 0.89313 0.85913 0.0
C132 C 0.82418 0.89601 0.87112 0.0
C133 C 0.79751 0.9049 0.83201 0.0
N134 N 0.84599 0.90865 0.85224 0.0
C135 C 0.8292 0.91429 0.8277 0.0
C136 C 0.72787 0.83356 0.8323 0.0
O137 O 0.6852 0.89031 0.86896 0.0
O138 O 0.73278 0.91187 0.85862 0.0
O139 O 0.75042 0.85358 0.83816 0.0
O140 O 0.70419 0.83017 0.84981 0.0
O141 O 0.77798 0.83863 0.8875 0.0
H142 H 0.77808 0.90628 0.81619 0.0
H143 H 0.83006 0.88838 0.89294 0.0
O144 O 0.73114 0.81724 0.90078 0.0
O145 O 0.7141 0.87645 0.9223 0.0
O146 O 0.76126 0.8966 0.90859 0.0
C147 C 0.73995 0.89264 0.92815 0.0
H148 H 0.61774 0.81032 0.94874 0.0
H149 H 0.83914 0.92481 0.8081 0.0
Co150 Co 0.41037 0.45373 0.63397 0.0
C151 C 0.44951 0.5088 0.64249 0.0
Co152 Co 0.38818 0.50049 0.61982 0.0
C153 C 0.43962 0.38752 0.63512 0.0
C154 C 0.44046 0.41225 0.67592 0.0
N155 N 0.42989 0.41547 0.64842 0.0
N156 N 0.45607 0.36733 0.65331 0.0
C157 C 0.45628 0.38295 0.67899 0.0
H158 H 0.43582 0.38266 0.61233 0.0
H159 H 0.43773 0.43054 0.69262 0.0
C160 C 0.34979 0.44585 0.60842 0.0
N161 N 0.3694 0.53803 0.60477 0.0
C162 C 0.36677 0.5685 0.61577 0.0
C163 C 0.35579 0.53987 0.5782 0.0
N164 N 0.35242 0.5892 0.59685 0.0
C165 C 0.34547 0.57119 0.57327 0.0
C166 C 0.42658 0.46937 0.57848 0.0
O167 O 0.37331 0.4296 0.61943 0.0
O168 O 0.35122 0.47677 0.60836 0.0
O169 O 0.4074 0.49279 0.5838 0.0
O170 O 0.43195 0.44799 0.59784 0.0
O171 O 0.4258 0.52405 0.631 0.0
H172 H 0.35362 0.51966 0.56325 0.0
H173 H 0.37566 0.57545 0.63697 0.0
O174 O 0.447 0.47824 0.64693 0.0
O175 O 0.38898 0.46136 0.67091 0.0
O176 O 0.36952 0.50837 0.65598 0.0
C177 C 0.37352 0.48776 0.67617 0.0
H178 H 0.46732 0.37394 0.69873 0.0
H179 H 0.33332 0.57995 0.55396 0.0
Co180 Co 0.80823 0.16071 0.3853 0.0
C181 C 0.75283 0.19928 0.39301 0.0
Co182 Co 0.76213 0.13833 0.36984 0.0
C183 C 0.87402 0.1904 0.38723 0.0
C184 C 0.84898 0.1909 0.42784 0.0
N185 N 0.84607 0.18042 0.40029 0.0
N186 N 0.89393 0.20694 0.4056 0.0
C187 C 0.87814 0.20695 0.43117 0.0
H188 H 0.87907 0.18673 0.36447 0.0
H189 H 0.83058 0.18796 0.44437 0.0
C190 C 0.81716 0.10043 0.35933 0.0
N191 N 0.72494 0.1194 0.35434 0.0
C192 C 0.69447 0.11659 0.36521 0.0
C193 C 0.72325 0.10598 0.32771 0.0
N194 N 0.67389 0.10229 0.34615 0.0
C195 C 0.69198 0.09557 0.3226 0.0
C196 C 0.79327 0.17809 0.32979 0.0
O197 O 0.83295 0.12407 0.37069 0.0
O198 O 0.78626 0.10163 0.35854 0.0
O199 O 0.77015 0.15814 0.33385 0.0
O200 O 0.81405 0.18297 0.34974 0.0
O201 O 0.73814 0.17563 0.38087 0.0
H202 H 0.74352 0.10401 0.31284 0.0
H203 H 0.68743 0.12535 0.38641 0.0
O204 O 0.78321 0.19691 0.39832 0.0
O205 O 0.8005 0.13886 0.42176 0.0
O206 O 0.75387 0.1193 0.406 0.0
C207 C 0.7741 0.12329 0.42655 0.0
H208 H 0.88691 0.21801 0.45098 0.0
H209 H 0.6833 0.08352 0.3032 0.0
Co210 Co 0.10608 0.5605 0.13352 0.0
C211 C 0.06666 0.50561 0.14118 0.0
Co212 Co 0.12821 0.51367 0.11915 0.0
C213 C 0.07685 0.62697 0.135 0.0
C214 C 0.07599 0.60187 0.17559 0.0
N215 N 0.08658 0.59887 0.1481 0.0
N216 N 0.06039 0.64703 0.15332 0.0
C217 C 0.06019 0.63115 0.17886 0.0
H218 H 0.08063 0.63204 0.11227 0.0
H219 H 0.07867 0.58342 0.19215 0.0
C220 C 0.16707 0.56822 0.10872 0.0
N221 N 0.14676 0.47595 0.10393 0.0
C222 C 0.14752 0.44489 0.11388 0.0
C223 C 0.16119 0.47457 0.07772 0.0
N224 N 0.16145 0.42431 0.09459 0.0
C225 C 0.17012 0.44301 0.07192 0.0
C226 C 0.08984 0.54524 0.0779 0.0
O227 O 0.14342 0.58449 0.11946 0.0
O228 O 0.16549 0.5373 0.10829 0.0
O229 O 0.1092 0.52184 0.08289 0.0
O230 O 0.08474 0.56652 0.0974 0.0
O231 O 0.09037 0.49037 0.12975 0.0
H232 H 0.16457 0.49523 0.06346 0.0
H233 H 0.13734 0.43739 0.13444 0.0
O234 O 0.06926 0.53608 0.146 0.0
O235 O 0.12712 0.55246 0.17049 0.0
O236 O 0.14644 0.50534 0.15558 0.0
C237 C 0.14225 0.52589 0.17584 0.0
H238 H 0.04915 0.63995 0.19865 0.0
H239 H 0.1823 0.43446 0.05257 0.0
Co240 Co 0.76288 0.63656 0.63714 0.0
C241 C 0.8182 0.59889 0.64767 0.0
Co242 Co 0.80897 0.65972 0.62267 0.0
C243 C 0.69523 0.61467 0.64154 0.0
C244 C 0.7244 0.60295 0.6786 0.0
N245 N 0.72583 0.61711 0.65226 0.0
N246 N 0.67484 0.5999 0.66041 0.0
C247 C 0.69318 0.59247 0.68368 0.0
H248 H 0.68795 0.62408 0.62061 0.0
H249 H 0.74481 0.60059 0.69332 0.0
C250 C 0.75331 0.69803 0.61514 0.0
N251 N 0.84679 0.68 0.60815 0.0
C252 C 0.87478 0.68989 0.62132 0.0
C253 C 0.84953 0.69102 0.58077 0.0
N254 N 0.89453 0.70687 0.60317 0.0
C255 C 0.8786 0.70726 0.57764 0.0
C256 C 0.77494 0.62293 0.58028 0.0
O257 O 0.73866 0.67394 0.62658 0.0
O258 O 0.7838 0.69609 0.61026 0.0
O259 O 0.80122 0.63864 0.58551 0.0
O260 O 0.75479 0.61818 0.6007 0.0
O261 O 0.83386 0.62284 0.63674 0.0
H262 H 0.83108 0.68829 0.5642 0.0
H263 H 0.87997 0.68579 0.64401 0.0
O264 O 0.78728 0.59976 0.64804 0.0
O265 O 0.77064 0.65564 0.67338 0.0
O266 O 0.8147 0.68113 0.65895 0.0
C267 C 0.79362 0.67548 0.67847 0.0
H268 H 0.68468 0.57995 0.70287 0.0
H269 H 0.88721 0.71869 0.55797 0.0
Co270 Co 0.13137 0.01528 0.88576 0.0
C271 C 0.1672 0.07212 0.89636 0.0
Co272 Co 0.10622 0.06078 0.87248 0.0
C273 C 0.15445 0.94788 0.89084 0.0
C274 C 0.16765 0.97854 0.92655 0.0
N275 N 0.15241 0.97891 0.90063 0.0
N276 N 0.16996 0.92829 0.90996 0.0
C277 C 0.17834 0.94755 0.93235 0.0
H278 H 0.14396 0.93964 0.8706 0.0
H279 H 0.17026 0.99944 0.94068 0.0
C280 C 0.06983 1.00369 0.86459 0.0
N281 N 0.08448 0.09795 0.85842 0.0
C282 C 0.07489 0.12598 0.87162 0.0
C283 C 0.07262 0.10039 0.83129 0.0
N284 N 0.05732 0.14556 0.85372 0.0
C285 C 0.05621 0.12938 0.82831 0.0
C286 C 0.14376 0.0287 0.82916 0.0
O287 O 0.0948 0.98964 0.87517 0.0
O288 O 0.0706 0.03435 0.86022 0.0
O289 O 0.12706 0.05421 0.83497 0.0
O290 O 0.14977 0.00842 0.84925 0.0
O291 O 0.14231 0.08697 0.88625 0.0
H292 H 0.07513 0.08189 0.81474 0.0
H293 H 0.07987 0.13143 0.89412 0.0
O294 O 0.16743 0.04117 0.89668 0.0
O295 O 0.11204 0.02147 0.92196 0.0
O296 O 0.08488 0.06517 0.90912 0.0
C297 C 0.09084 0.04299 0.92762 0.0
H298 H 0.19135 0.93973 0.95154 0.0
H299 H 0.04438 0.13785 0.80876 0.0
Co300 Co 0.75299 0.37782 0.13362 0.0
C301 C 0.6966 0.41318 0.1469 0.0
Co302 Co 0.70693 0.35269 0.12207 0.0
C303 C 0.82038 0.40103 0.13665 0.0
C304 C 0.7912 0.41419 0.17327 0.0
N305 N 0.7898 0.39895 0.14739 0.0
N306 N 0.8407 0.41659 0.15513 0.0
C307 C 0.82236 0.42496 0.17808 0.0
H308 H 0.8278 0.39052 0.11619 0.0
H309 H 0.7709 0.41673 0.18804 0.0
C310 C 0.76383 0.31658 0.11181 0.0
N311 N 0.66944 0.33082 0.10903 0.0
C312 C 0.64023 0.32443 0.12167 0.0
C313 C 0.6678 0.31576 0.08315 0.0
N314 N 0.62049 0.30599 0.10453 0.0
C315 C 0.63818 0.30055 0.08038 0.0
C316 C 0.73694 0.39067 0.07785 0.0
O317 O 0.77845 0.34155 0.12176 0.0
O318 O 0.73298 0.31727 0.10899 0.0
O319 O 0.71186 0.37359 0.08429 0.0
O320 O 0.75797 0.39671 0.0973 0.0
O321 O 0.68122 0.3886 0.13677 0.0
H322 H 0.68731 0.31529 0.06741 0.0
H323 H 0.63372 0.33312 0.14301 0.0
O324 O 0.7275 0.4134 0.14586 0.0
O325 O 0.74859 0.35823 0.16962 0.0
O326 O 0.70407 0.33123 0.1589 0.0
C327 C 0.72738 0.33716 0.17635 0.0
H328 H 0.83092 0.43801 0.19701 0.0
H329 H 0.63078 0.28586 0.06206 0.0
Co330 Co 0.38762 1.00026 0.38561 0.0
C331 C 0.3493 0.9453 0.39575 0.0
Co332 Co 0.41014 0.95412 0.37065 0.0
C333 C 0.36631 0.06797 0.3919 0.0
C334 C 0.35501 0.03769 0.42829 0.0
N335 N 0.36879 0.03706 0.40176 0.0
N336 N 0.35184 0.08777 0.41146 0.0
C337 C 0.34469 0.06874 0.43432 0.0
H338 H 0.37528 0.07585 0.37101 0.0
H339 H 0.35266 0.01681 0.44245 0.0
C340 C 0.4492 0.00939 0.36366 0.0
N341 N 0.42969 0.91625 0.35557 0.0
C342 C 0.43939 0.88818 0.36864 0.0
C343 C 0.44031 0.91336 0.32808 0.0
N344 N 0.45588 0.86818 0.35035 0.0
C345 C 0.45615 0.88407 0.32481 0.0
C346 C 0.37376 0.98959 0.32861 0.0
O347 O 0.42538 0.02423 0.37538 0.0
O348 O 0.44681 0.97897 0.35848 0.0
O349 O 0.38901 0.96295 0.33357 0.0
O350 O 0.36923 0.0095 0.3493 0.0
O351 O 0.37296 0.92946 0.38455 0.0
H352 H 0.43761 0.93184 0.31156 0.0
H353 H 0.43552 0.88308 0.39136 0.0
O354 O 0.35051 0.97621 0.39618 0.0
O355 O 0.40661 0.99142 0.42161 0.0
O356 O 0.43165 0.94732 0.40679 0.0
C357 C 0.426 0.9681 0.42658 0.0
H358 H 0.33227 0.0766 0.45377 0.0
H359 H 0.46722 0.87529 0.30503 0.0
Co360 Co 0.20297 0.35124 0.38447 0.0
C361 C 0.25822 0.31223 0.39426 0.0
Co362 Co 0.25007 0.37241 0.36987 0.0
C363 C 0.13684 0.32223 0.38657 0.0
C364 C 0.16181 0.32239 0.42727 0.0
N365 N 0.16483 0.33231 0.39958 0.0
N366 N 0.11682 0.30616 0.40512 0.0
C367 C 0.13257 0.30657 0.43074 0.0
H368 H 0.13186 0.32541 0.36374 0.0
H369 H 0.18024 0.32546 0.44382 0.0
C370 C 0.19541 0.41081 0.35751 0.0
N371 N 0.28761 0.39055 0.35414 0.0
C372 C 0.31806 0.39413 0.36503 0.0
C373 C 0.28937 0.40256 0.32699 0.0
N374 N 0.33865 0.4075 0.34548 0.0
C375 C 0.32059 0.41284 0.3216 0.0
C376 C 0.21847 0.33212 0.32975 0.0
O377 O 0.17893 0.38803 0.36939 0.0
O378 O 0.22627 0.40871 0.35691 0.0
O379 O 0.24252 0.35077 0.33452 0.0
O380 O 0.19668 0.32866 0.34899 0.0
O381 O 0.27365 0.33566 0.38258 0.0
H382 H 0.26915 0.40366 0.31195 0.0
H383 H 0.32509 0.3866 0.38662 0.0
O384 O 0.22755 0.31473 0.39807 0.0
O385 O 0.21098 0.37353 0.42077 0.0
O386 O 0.25781 0.39302 0.40551 0.0
C387 C 0.23725 0.38928 0.4258 0.0
H388 H 0.12373 0.2959 0.45067 0.0
H389 H 0.32927 0.42386 0.30176 0.0
Co390 Co 0.91553 0.95705 0.13673 0.0
C391 C 0.95101 0.01386 0.14858 0.0
Co392 Co 0.89159 1.00309 0.12292 0.0
C393 C 0.94635 0.89141 0.13714 0.0
C394 C 0.9468 0.91569 0.17815 0.0
N395 N 0.93623 0.91909 0.15068 0.0
N396 N 0.96305 0.8712 0.15516 0.0
C397 C 0.96303 0.88656 0.18097 0.0
H398 H 0.94249 0.88671 0.11433 0.0
H399 H 0.94358 0.93367 0.19504 0.0
C400 C 0.85623 0.94719 0.10902 0.0
N401 N 0.87177 0.04027 0.10819 0.0
C402 C 0.86957 0.07093 0.11886 0.0
C403 C 0.85813 0.04191 0.08162 0.0
N404 N 0.8555 0.09154 0.0997 0.0
C405 C 0.84821 0.07328 0.07635 0.0
C406 C 0.93375 0.97565 0.0823 0.0
O407 O 0.8802 0.93165 0.12009 0.0
O408 O 0.85634 0.97811 0.10962 0.0
O409 O 0.91291 0.99774 0.08726 0.0
O410 O 0.9391 0.95388 0.10132 0.0
O411 O 0.92724 0.02796 0.13614 0.0
H412 H 0.85612 0.02163 0.06673 0.0
H413 H 0.87895 0.07818 0.13981 0.0
O414 O 0.95027 0.98301 0.15196 0.0
O415 O 0.89226 0.96214 0.17297 0.0
O416 O 0.87104 0.0087 0.15871 0.0
C417 C 0.87543 0.98762 0.1785 0.0
H418 H 0.97404 0.87743 0.20067 0.0
H419 H 0.83644 0.08203 0.05685 0.0
Co420 Co 0.31135 0.66312 0.88532 0.0
C421 C 0.25702 0.70115 0.89879 0.0
Co422 Co 0.26371 0.64083 0.87344 0.0
C423 C 0.37792 0.69159 0.88374 0.0
C424 C 0.3581 0.68746 0.92641 0.0
N425 N 0.35098 0.68149 0.89837 0.0
N426 N 0.4015 0.70296 0.90175 0.0
C427 C 0.38898 0.70028 0.92854 0.0
H428 H 0.38039 0.69028 0.86045 0.0
H429 H 0.34178 0.68307 0.94435 0.0
C430 C 0.31756 0.60362 0.85725 0.0
N431 N 0.22515 0.62285 0.85941 0.0
C432 C 0.19504 0.62003 0.87113 0.0
C433 C 0.22208 0.61082 0.83234 0.0
N434 N 0.17344 0.6072 0.85209 0.0
C435 C 0.19046 0.60135 0.82777 0.0
C436 C 0.29038 0.68328 0.83244 0.0
O437 O 0.33431 0.62683 0.86815 0.0
O438 O 0.28669 0.60486 0.85861 0.0
O439 O 0.2682 0.66294 0.83846 0.0
O440 O 0.3143 0.68694 0.84969 0.0
O441 O 0.24104 0.67745 0.88799 0.0
H442 H 0.24162 0.60941 0.81667 0.0
H443 H 0.18892 0.62791 0.89282 0.0
O444 O 0.28793 0.69902 0.90103 0.0
O445 O 0.30612 0.63975 0.92183 0.0
O446 O 0.25867 0.61961 0.90875 0.0
C447 C 0.28049 0.6234 0.92797 0.0
H448 H 0.40115 0.70767 0.9483 0.0
H449 H 0.18072 0.59069 0.80813 0.0
Co450 Co 0.5998 0.05745 0.63546 0.0
C451 C 0.56368 1.00115 0.64795 0.0
Co452 Co 0.62317 0.01081 0.62267 0.0
C453 C 0.56923 0.12309 0.6357 0.0
C454 C 0.56917 0.09907 0.67683 0.0
N455 N 0.57943 0.0955 0.6493 0.0
N456 N 0.55278 0.14341 0.65376 0.0
C457 C 0.55303 0.12823 0.67964 0.0
H458 H 0.57285 0.12765 0.61286 0.0
H459 H 0.57252 0.08117 0.69377 0.0
C460 C 0.65853 0.06655 0.60752 0.0
N461 N 0.64275 0.97351 0.60812 0.0
C462 C 0.64584 0.94318 0.61927 0.0
C463 C 0.6558 0.97154 0.58136 0.0
N464 N 0.65992 0.92244 0.60025 0.0
C465 C 0.66628 0.94029 0.57648 0.0
C466 C 0.57998 0.03687 0.58219 0.0
O467 O 0.63499 0.08248 0.61876 0.0
O468 O 0.65805 0.03563 0.60833 0.0
O469 O 0.60092 0.0151 0.58776 0.0
O470 O 0.5758 0.06028 0.59988 0.0
O471 O 0.58768 0.98616 0.63676 0.0
H472 H 0.65718 0.99154 0.56614 0.0
H473 H 0.63722 0.93627 0.64055 0.0
O474 O 0.56496 0.03204 0.65069 0.0
O475 O 0.62341 0.05252 0.67193 0.0
O476 O 0.64464 1.00593 0.65788 0.0
C477 C 0.64057 0.02723 0.67748 0.0
H478 H 0.54223 0.13751 0.69936 0.0
H479 H 0.6779 0.93139 0.55698 0.0
C480 C 0.29062 0.22657 0.20262 0.0
C481 C 0.27419 0.19702 0.19803 0.0
C482 C 0.28006 0.24854 0.22392 0.0
C483 C 0.25254 0.24062 0.24104 0.0
C484 C 0.23654 0.21038 0.23716 0.0
C485 C 0.24757 0.18891 0.21572 0.0
C486 C 0.29808 0.28038 0.2279 0.0
C487 C 0.20738 0.20097 0.25529 0.0
C488 C 0.24498 0.28217 0.31362 0.0
C489 C 0.22281 0.30715 0.30758 0.0
C490 C 0.25479 0.26037 0.29213 0.0
C491 C 0.24149 0.26328 0.26403 0.0
C492 C 0.21825 0.28805 0.25796 0.0
C493 C 0.20931 0.31008 0.27994 0.0
C494 C 0.27993 0.23476 0.29948 0.0
C495 C 0.20364 0.29176 0.22815 0.0
H496 H 0.31102 0.23311 0.18888 0.0
H497 H 0.23472 0.16611 0.21228 0.0
H498 H 0.28122 0.30116 0.22429 0.0
H499 H 0.30726 0.28232 0.25045 0.0
H500 H 0.31906 0.28281 0.21285 0.0
H501 H 0.1973 0.17676 0.24916 0.0
H502 H 0.21433 0.20028 0.2785 0.0
H503 H 0.18788 0.21955 0.25292 0.0
H504 H 0.25561 0.28044 0.33508 0.0
H505 H 0.1926 0.32993 0.27538 0.0
H506 H 0.29972 0.23436 0.28313 0.0
H507 H 0.26829 0.21032 0.29947 0.0
H508 H 0.29104 0.23913 0.32106 0.0
H509 H 0.22317 0.29723 0.21227 0.0
H510 H 0.18516 0.31157 0.22722 0.0
H511 H 0.19199 0.26855 0.22133 0.0
C512 C 0.48007 0.46463 0.55391 0.0
C513 C 0.44674 0.47176 0.55237 0.0
C514 C 0.50147 0.47571 0.53239 0.0
C515 C 0.48895 0.49387 0.50877 0.0
C516 C 0.45499 0.49913 0.50617 0.0
C517 C 0.43427 0.48814 0.52814 0.0
C518 C 0.53758 0.46947 0.53569 0.0
C519 C 0.44071 0.51748 0.48079 0.0
C520 C 0.5472 0.55005 0.46845 0.0
C521 C 0.55589 0.53005 0.44525 0.0
C522 C 0.52508 0.53865 0.48944 0.0
C523 C 0.51135 0.50696 0.48651 0.0
C524 C 0.51928 0.48741 0.46239 0.0
C525 C 0.54159 0.49915 0.4422 0.0
C526 C 0.51701 0.56004 0.51504 0.0
C527 C 0.50506 0.45367 0.45828 0.0
H528 H 0.48975 0.45249 0.57293 0.0
H529 H 0.40843 0.49373 0.52708 0.0
H530 H 0.54736 0.45767 0.5159 0.0
H531 H 0.55061 0.49302 0.53841 0.0
H532 H 0.54317 0.4537 0.55461 0.0
H533 H 0.41363 0.5183 0.48147 0.0
H534 H 0.45012 0.54288 0.48066 0.0
H535 H 0.44831 0.50592 0.46016 0.0
H536 H 0.55841 0.57389 0.47065 0.0
H537 H 0.54824 0.48384 0.42397 0.0
H538 H 0.525 0.54793 0.53532 0.0
H539 H 0.49023 0.56357 0.51653 0.0
H540 H 0.52894 0.58433 0.51367 0.0
H541 H 0.51526 0.43698 0.47488 0.0
H542 H 0.51059 0.44346 0.43655 0.0
H543 H 0.47822 0.45407 0.46121 0.0
C544 C 0.21524 0.78362 0.70245 0.0
C545 C 0.22233 0.817 0.70365 0.0
C546 C 0.22669 0.7624 0.72402 0.0
C547 C 0.24521 0.77511 0.74737 0.0
C548 C 0.25054 0.80911 0.7496 0.0
C549 C 0.23915 0.82965 0.7276 0.0
C550 C 0.22034 0.72625 0.72111 0.0
C551 C 0.26936 0.82363 0.77461 0.0
C552 C 0.2509 0.72327 0.81455 0.0
C553 C 0.28161 0.70861 0.81142 0.0
C554 C 0.23911 0.74541 0.79417 0.0
C555 C 0.25843 0.75291 0.76982 0.0
C556 C 0.28998 0.7389 0.76685 0.0
C557 C 0.30141 0.71689 0.78798 0.0
C558 C 0.20552 0.75988 0.79831 0.0
C559 C 0.31116 0.74652 0.74104 0.0
H560 H 0.20277 0.77375 0.68367 0.0
H561 H 0.24474 0.85552 0.72842 0.0
H562 H 0.24381 0.71314 0.71834 0.0
H563 H 0.20874 0.71671 0.74106 0.0
H564 H 0.20435 0.72048 0.70235 0.0
H565 H 0.27025 0.85071 0.77367 0.0
H566 H 0.25814 0.81629 0.79546 0.0
H567 H 0.29472 0.81415 0.77453 0.0
H568 H 0.23575 0.717 0.83298 0.0
H569 H 0.32508 0.70541 0.78568 0.0
H570 H 0.18874 0.75007 0.78157 0.0
H571 H 0.20622 0.78677 0.79562 0.0
H572 H 0.19521 0.75419 0.81997 0.0
H573 H 0.29886 0.7382 0.72093 0.0
H574 H 0.33543 0.73457 0.74245 0.0
H575 H 0.31472 0.77328 0.73915 0.0
C576 C 0.96615 0.46299 0.97011 0.0
C577 C 0.95502 0.48395 0.94843 0.0
C578 C 0.98885 0.47422 0.99077 0.0
C579 C 1.00097 0.50665 0.98886 0.0
C580 C 0.99054 0.52728 0.96623 0.0
C581 C 0.96746 0.51578 0.94655 0.0
C582 C 0.99938 0.45175 0.0149 0.0
C583 C 1.00317 0.56176 0.96304 0.0
C584 C 0.03483 0.54778 0.05597 0.0
C585 C 0.06833 0.54236 0.05263 0.0
C586 C 0.01254 0.53615 0.03536 0.0
C587 C 0.02426 0.51945 0.01063 0.0
C588 C 0.05823 0.51582 0.00628 0.0
C589 C 0.07988 0.527 0.02756 0.0
C590 C 0.97645 0.54035 0.04073 0.0
C591 C 0.07163 0.49912 0.97969 0.0
H592 H 0.95653 0.43839 0.97136 0.0
H593 H 0.95912 0.53184 0.9294 0.0
H594 H 0.0263 0.44896 0.01474 0.0
H595 H 0.99261 0.46253 0.0361 0.0
H596 H 0.98804 0.42721 0.01312 0.0
H597 H 0.99631 0.57273 0.9419 0.0
H598 H 0.99296 0.5772 0.98056 0.0
H599 H 0.03012 0.56241 0.96515 0.0
H600 H 0.02586 0.55895 0.07571 0.0
H601 H 0.10583 0.52253 0.0252 0.0
H602 H 0.96467 0.51604 0.04259 0.0
H603 H 0.96489 0.55311 0.0222 0.0
H604 H 0.9714 0.55439 0.0608 0.0
H605 H 0.06463 0.47297 0.97993 0.0
H606 H 0.09864 0.50084 0.97841 0.0
H607 H 0.06103 0.51006 0.95983 0.0
C608 C 0.71525 0.79973 0.78823 0.0
C609 C 0.73587 0.80812 0.81114 0.0
C610 C 0.72569 0.77715 0.76718 0.0
C611 C 0.75701 0.76256 0.76975 0.0
C612 C 0.77718 0.77021 0.79358 0.0
C613 C 0.76642 0.79301 0.81383 0.0
C614 C 0.70367 0.76949 0.74188 0.0
C615 C 0.81055 0.75508 0.79732 0.0
C616 C 0.77391 0.68451 0.72851 0.0
C617 C 0.79078 0.69627 0.70428 0.0
C618 C 0.7632 0.70577 0.75024 0.0
C619 C 0.76917 0.73962 0.74741 0.0
C620 C 0.78752 0.75144 0.72366 0.0
C621 C 0.79837 0.72952 0.70242 0.0
C622 C 0.74459 0.69218 0.77573 0.0
C623 C 0.79444 0.78741 0.72002 0.0
H624 H 0.69168 0.81152 0.7863 0.0
H625 H 0.78219 0.79931 0.83187 0.0
H626 H 0.71568 0.77696 0.7214 0.0
H627 H 0.69932 0.74281 0.74057 0.0
H628 H 0.67977 0.78215 0.74346 0.0
H629 H 0.82156 0.76098 0.81869 0.0
H630 H 0.80918 0.72816 0.79508 0.0
H631 H 0.82708 0.76416 0.78013 0.0
H632 H 0.7679 0.65877 0.72984 0.0
H633 H 0.81084 0.73872 0.68341 0.0
H634 H 0.71953 0.70239 0.776 0.0
H635 H 0.75657 0.69951 0.79628 0.0
H636 H 0.74291 0.66512 0.77511 0.0
H637 H 0.77113 0.8009 0.71758 0.0
H638 H 0.80993 0.79249 0.70083 0.0
H639 H 0.80684 0.79713 0.73955 0.0
C640 C 0.76897 0.30899 0.20558 0.0
C641 C 0.73572 0.31476 0.20016 0.0
C642 C 0.77907 0.28617 0.22605 0.0
C643 C 0.75539 0.2692 0.24224 0.0
C644 C 0.7217 0.27508 0.23731 0.0
C645 C 0.71217 0.29751 0.2158 0.0
C646 C 0.81517 0.27983 0.22992 0.0
C647 C 0.6959 0.2578 0.2548 0.0
C648 C 0.78164 0.19033 0.27828 0.0
C649 C 0.78969 0.20135 0.30603 0.0
C650 C 0.77075 0.21225 0.25707 0.0
C651 C 0.76639 0.24554 0.26443 0.0
C652 C 0.7746 0.25669 0.2925 0.0
C653 C 0.78676 0.23449 0.31285 0.0
C654 C 0.76342 0.19975 0.22701 0.0
C655 C 0.76967 0.29185 0.30131 0.0
H656 H 0.7874 0.32162 0.19302 0.0
H657 H 0.68654 0.30175 0.21142 0.0
H658 H 0.82263 0.28556 0.25243 0.0
H659 H 0.82049 0.25362 0.22613 0.0
H660 H 0.83037 0.29456 0.21491 0.0
H661 H 0.67086 0.26571 0.24884 0.0
H662 H 0.69782 0.23105 0.25153 0.0
H663 H 0.69979 0.26257 0.2782 0.0
H664 H 0.78323 0.16448 0.27341 0.0
H665 H 0.79189 0.24267 0.33472 0.0
H666 H 0.77629 0.21475 0.21061 0.0
H667 H 0.73691 0.20184 0.22258 0.0
H668 H 0.77078 0.17384 0.22418 0.0
H669 H 0.7855 0.30796 0.28811 0.0
H670 H 0.77531 0.29605 0.32454 0.0
H671 H 0.74404 0.29924 0.29716 0.0
C672 C 0.9888 0.97394 0.06 0.0
C673 C 0.9553 0.97979 0.05716 0.0
C674 C 0.01079 0.98514 0.03897 0.0
C675 C 0.99877 1.00188 0.01433 0.0
C676 C 0.96479 1.00634 0.01071 0.0
C677 C 0.94347 0.99554 0.03236 0.0
C678 C 0.0469 0.98 0.04354 0.0
C679 C 0.95102 0.02313 0.98428 0.0
C680 C 0.05701 0.05601 0.97158 0.0
C681 C 0.0667 0.03446 0.9498 0.0
C682 C 0.03483 0.04573 0.993 0.0
C683 C 0.0217 0.01364 0.99181 0.0
C684 C 0.03068 0.99241 0.96911 0.0
C685 C 0.05332 1.00297 0.94865 0.0
C686 C 0.02583 0.06885 0.01712 0.0
C687 C 0.0168 0.95834 0.96659 0.0
H688 H 0.99801 0.96239 0.07948 0.0
H689 H 0.91753 1.00025 0.03032 0.0
H690 H 0.05696 0.96494 0.0257 0.0
H691 H 0.0598 1.0038 0.04308 0.0
H692 H 0.05233 0.96773 0.06443 0.0
H693 H 0.92392 0.02384 0.98443 0.0
H694 H 0.96033 0.04852 0.98311 0.0
H695 H 0.95915 0.01038 0.96437 0.0
H696 H 0.06735 0.08035 0.97227 0.0
H697 H 0.06052 0.98647 0.93143 0.0
H698 H 0.03269 0.05804 0.03829 0.0
H699 H 0.99904 0.07271 0.01741 0.0
H700 H 0.03807 0.09291 0.01493 0.0
H701 H 0.02585 0.94314 0.98476 0.0
H702 H 0.02367 0.94631 0.94591 0.0
H703 H 0.9898 0.95892 0.96808 0.0
C704 C 0.43358 0.98616 0.47721 0.0
C705 C 0.44614 0.97016 0.45283 0.0
C706 C 0.45422 0.99702 0.49937 0.0
C707 C 0.48822 0.99198 0.49685 0.0
C708 C 0.50084 0.97418 0.47307 0.0
C709 C 0.47953 0.96324 0.45134 0.0
C710 C 0.4398 0.01507 0.52484 0.0
C711 C 0.53699 0.96817 0.46983 0.0
C712 C 0.54605 0.04815 0.53796 0.0
C713 C 0.55479 0.02801 0.56106 0.0
C714 C 0.52408 0.0368 0.51676 0.0
C715 C 0.51053 1.00499 0.51933 0.0
C716 C 0.51853 0.98528 0.54333 0.0
C717 C 0.54066 0.99699 0.56378 0.0
C718 C 0.51596 0.05839 0.4913 0.0
C719 C 0.50452 0.95141 0.54706 0.0
H720 H 0.40771 0.99161 0.47825 0.0
H721 H 0.4893 0.95141 0.43223 0.0
H722 H 0.44901 0.04053 0.52515 0.0
H723 H 0.41271 0.01568 0.5241 0.0
H724 H 0.4475 1.00342 0.54542 0.0
H725 H 0.54266 0.95253 0.45084 0.0
H726 H 0.54987 0.99181 0.46724 0.0
H727 H 0.54685 0.95633 0.48957 0.0
H728 H 0.55713 0.07207 0.53599 0.0
H729 H 0.54731 0.98158 0.58196 0.0
H730 H 0.48916 0.06175 0.48969 0.0
H731 H 0.52411 0.04653 0.47095 0.0
H732 H 0.52772 0.08275 0.49293 0.0
H733 H 0.47759 0.95188 0.54474 0.0
H734 H 0.51073 0.94065 0.56844 0.0
H735 H 0.51416 0.93515 0.52988 0.0
C736 C 0.18548 0.11506 0.93122 0.0
C737 C 0.19333 0.08932 0.91251 0.0
C738 C 0.20697 0.12435 0.95357 0.0
C739 C 0.23724 0.10791 0.95688 0.0
C740 C 0.24674 0.08462 0.93589 0.0
C741 C 0.22452 0.07529 0.91422 0.0
C742 C 0.19572 0.14927 0.97543 0.0
C743 C 0.2791 0.06722 0.93791 0.0
C744 C 0.29245 0.13864 0.01807 0.0
C745 C 0.28241 0.11854 0.04098 0.0
C746 C 0.2793 0.13459 0.99001 0.0
C747 C 0.25538 0.11017 0.98497 0.0
C748 C 0.247 0.08851 0.00765 0.0
C749 C 0.26077 0.0928 0.03516 0.0
C750 C 0.28959 0.15765 0.96629 0.0
C751 C 0.22179 0.06197 1.00346 0.0
H752 H 0.16132 0.12579 0.93018 0.0
H753 H 0.23078 0.05545 0.89971 0.0
H754 H 0.18923 0.13669 0.99591 0.0
H755 H 0.21554 0.16683 0.9804 0.0
H756 H 0.17403 0.16303 0.96774 0.0
H757 H 0.28577 0.05542 0.91708 0.0
H758 H 0.2988 0.08438 0.94425 0.0
H759 H 0.27766 0.048 0.95477 0.0
H760 H 0.3089 0.15878 0.02241 0.0
H761 H 0.25301 0.07705 0.05271 0.0
H762 H 0.27025 0.17619 0.96292 0.0
H763 H 0.29291 0.14441 0.94554 0.0
H764 H 0.31263 0.17054 0.97178 0.0
H765 H 0.19786 0.07308 0.99802 0.0
H766 H 0.21869 0.04662 0.02309 0.0
H767 H 0.22877 0.04591 0.98517 0.0
C768 C 0.67115 0.49336 0.29339 0.0
C769 C 0.64922 0.51909 0.29812 0.0
C770 C 0.67612 0.48041 0.26562 0.0
C771 C 0.65869 0.4934 0.24176 0.0
C772 C 0.63762 0.52039 0.2461 0.0
C773 C 0.63316 0.53298 0.27424 0.0
C774 C 0.6992 0.45194 0.26205 0.0
C775 C 0.6187 0.53504 0.22127 0.0
C776 C 0.69719 0.46763 0.17088 0.0
C777 C 0.68048 0.43843 0.16496 0.0
C778 C 0.68851 0.48748 0.19442 0.0
C779 C 0.66247 0.47792 0.21262 0.0
C780 C 0.64345 0.45025 0.20502 0.0
C781 C 0.65264 0.43083 0.1812 0.0
C782 C 0.70927 0.51689 0.20137 0.0
C783 C 0.61524 0.43937 0.22362 0.0
H784 H 0.6837 0.48247 0.31166 0.0
H785 H 0.61589 0.55261 0.2777 0.0
H786 H 0.68557 0.43027 0.25421 0.0
H787 H 0.71802 0.45777 0.2456 0.0
H788 H 0.71168 0.4454 0.2826 0.0
H789 H 0.60611 0.55797 0.22756 0.0
H790 H 0.63512 0.5402 0.20276 0.0
H791 H 0.60013 0.5173 0.21364 0.0
H792 H 0.71864 0.47382 0.1583 0.0
H793 H 0.63969 0.40826 0.17691 0.0
H794 H 0.72558 0.51106 0.21985 0.0
H795 H 0.69388 0.5379 0.20787 0.0
H796 H 0.72466 0.52428 0.1827 0.0
H797 H 0.62479 0.42861 0.24398 0.0
H798 H 0.59993 0.42077 0.21256 0.0
H799 H 0.59968 0.46045 0.22959 0.0
C800 C 0.2315 0.88312 0.52495 0.0
C801 C 0.24676 0.8979 0.54884 0.0
C802 C 0.24371 0.8874 0.49666 0.0
C803 C 0.2717 0.90706 0.49212 0.0
C804 C 0.2864 0.92297 0.51606 0.0
C805 C 0.27385 0.91814 0.54399 0.0
C806 C 0.22733 0.87001 0.47179 0.0
C807 C 0.31602 0.94453 0.5123 0.0
C808 C 0.33112 0.90062 0.42914 0.0
C809 C 0.32401 0.92936 0.41392 0.0
C810 C 0.31246 0.89139 0.45342 0.0
C811 C 0.28609 0.91133 0.46258 0.0
C812 C 0.27689 0.93844 0.44546 0.0
C813 C 0.2959 0.94708 0.42138 0.0
C814 C 0.32288 0.86201 0.47078 0.0
C815 C 0.24892 0.9603 0.45412 0.0
H816 H 0.2108 0.86715 0.52846 0.0
H817 H 0.28585 0.92969 0.56224 0.0
H818 H 0.2215 0.88751 0.45421 0.0
H819 H 0.24422 0.85156 0.46263 0.0
H820 H 0.20451 0.85752 0.47852 0.0
H821 H 0.32412 0.95573 0.533 0.0
H822 H 0.33652 0.93006 0.50332 0.0
H823 H 0.31061 0.96436 0.49666 0.0
H824 H 0.35287 0.88689 0.4237 0.0
H825 H 0.29013 0.96927 0.40966 0.0
H826 H 0.3014 0.84729 0.47729 0.0
H827 H 0.33526 0.87027 0.49087 0.0
H828 H 0.34001 0.8462 0.45852 0.0
H829 H 0.22746 0.94567 0.46084 0.0
H830 H 0.2415 0.97688 0.43627 0.0
H831 H 0.25639 0.97544 0.47292 0.0
C832 C 0.81738 0.54447 0.67163 0.0
C833 C 0.83441 0.57336 0.66536 0.0
C834 C 0.82613 0.52475 0.69524 0.0
C835 C 0.85251 0.53417 0.71318 0.0
C836 C 0.87186 0.56144 0.70516 0.0
C837 C 0.86263 0.5807 0.68125 0.0
C838 C 0.80504 0.49572 0.7026 0.0
C839 C 0.9004 0.57219 0.72348 0.0
C840 C 0.84385 0.52035 0.79415 0.0
C841 C 0.86541 0.49438 0.79926 0.0
C842 C 0.83906 0.5329 0.76622 0.0
C843 C 0.85623 0.51922 0.74254 0.0
C844 C 0.87695 0.49204 0.74727 0.0
C845 C 0.88129 0.4799 0.77559 0.0
C846 C 0.81638 0.56165 0.76225 0.0
C847 C 0.89555 0.47664 0.72264 0.0
H848 H 0.79561 0.53853 0.65933 0.0
H849 H 0.87582 0.60305 0.6767 0.0
H850 H 0.8202 0.47464 0.70939 0.0
H851 H 0.78886 0.50209 0.72099 0.0
H852 H 0.7895 0.48819 0.68404 0.0
H853 H 0.91595 0.59028 0.71207 0.0
H854 H 0.8912 0.58355 0.74369 0.0
H855 H 0.91564 0.55097 0.72973 0.0
H856 H 0.83142 0.5317 0.81224 0.0
H857 H 0.89825 0.46004 0.77932 0.0
H858 H 0.79732 0.55571 0.74601 0.0
H859 H 0.83026 0.58292 0.75394 0.0
H860 H 0.8042 0.56888 0.78274 0.0
H861 H 0.87896 0.47129 0.70426 0.0
H862 H 0.90789 0.45369 0.72927 0.0
H863 H 0.9143 0.49397 0.7147 0.0
C864 C 0.80153 0.9477 0.08568 0.0
C865 C 0.83093 0.93113 0.09097 0.0
C866 C 0.78141 0.93933 0.06223 0.0
C867 C 0.7909 0.91374 0.04348 0.0
C868 C 0.81883 0.89479 0.05043 0.0
C869 C 0.83854 0.90368 0.07419 0.0
C870 C 0.75176 0.96001 0.05596 0.0
C871 C 0.8296 0.86703 0.03124 0.0
C872 C 0.73497 0.88548 0.98204 0.0
C873 C 0.74842 0.90207 0.95829 0.0
C874 C 0.74801 0.88938 0.0101 0.0
C875 C 0.775 0.91046 0.01447 0.0
C876 C 0.78751 0.92847 0.99078 0.0
C877 C 0.77414 0.92402 0.96309 0.0
C878 C 0.7339 0.86983 0.03474 0.0
C879 C 0.81593 0.95163 0.99442 0.0
H880 H 0.79538 0.96885 0.0987 0.0
H881 H 0.86128 0.89088 0.07801 0.0
H882 H 0.75718 0.97669 0.03766 0.0
H883 H 0.73075 0.94458 0.04947 0.0
H884 H 0.74458 0.97502 0.07494 0.0
H885 H 0.84845 0.85163 0.04184 0.0
H886 H 0.80853 0.85143 0.02524 0.0
H887 H 0.84 0.87705 0.01094 0.0
H888 H 0.71539 0.86815 0.97851 0.0
H889 H 0.7847 0.93695 0.9449 0.0
H890 H 0.7291 0.88577 0.05368 0.0
H891 H 0.75179 0.85108 0.04169 0.0
H892 H 0.71086 0.85735 0.02854 0.0
H893 H 0.81031 0.97006 0.0113 0.0
H894 H 0.82206 0.9646 0.97403 0.0
H895 H 0.8378 0.93794 1.00172 0.0
C896 C 0.3614 0.58414 0.82362 0.0
C897 C 0.3324 0.57806 0.83874 0.0
C898 C 0.37046 0.5645 0.79994 0.0
C899 C 0.35013 0.53818 0.79136 0.0
C900 C 0.32268 0.53006 0.80842 0.0
C901 C 0.31413 0.5501 0.83184 0.0
C902 C 0.40015 0.57382 0.78251 0.0
C903 C 0.30049 0.50206 0.80038 0.0
C904 C 0.34375 0.52419 0.71033 0.0
C905 C 0.36404 0.49705 0.70607 0.0
C906 C 0.33867 0.53726 0.738 0.0
C907 C 0.35426 0.52291 0.76224 0.0
C908 C 0.37373 0.49467 0.75832 0.0
C909 C 0.37837 0.48202 0.73025 0.0
C910 C 0.31736 0.56716 0.74112 0.0
C911 C 0.39064 0.47861 0.7836 0.0
H912 H 0.3756 0.60571 0.82875 0.0
H913 H 0.29182 0.54505 0.84361 0.0
H914 H 0.41463 0.55188 0.77684 0.0
H915 H 0.39226 0.58543 0.76197 0.0
H916 H 0.41607 0.59126 0.79435 0.0
H917 H 0.28374 0.49548 0.81833 0.0
H918 H 0.28555 0.50906 0.78132 0.0
H919 H 0.31487 0.48019 0.79429 0.0
H920 H 0.3325 0.53594 0.69182 0.0
H921 H 0.39434 0.46124 0.72714 0.0
H922 H 0.33196 0.58774 0.74984 0.0
H923 H 0.29738 0.5623 0.75671 0.0
H924 H 0.30639 0.57488 0.72022 0.0
H925 H 0.40974 0.49518 0.79221 0.0
H926 H 0.40229 0.45514 0.77743 0.0
H927 H 0.37308 0.47402 0.80138 0.0
C928 C 0.7789 0.12883 0.48057 0.0
C929 C 0.76431 0.11406 0.45636 0.0
C930 C 0.76593 0.12449 0.50853 0.0
C931 C 0.73788 0.10476 0.51234 0.0
C932 C 0.72391 0.08877 0.48811 0.0
C933 C 0.73721 0.09369 0.4605 0.0
C934 C 0.78149 0.14195 0.53377 0.0
C935 C 0.69429 0.06708 0.49119 0.0
C936 C 0.71207 0.06468 0.58236 0.0
C937 C 0.68367 0.08224 0.58915 0.0
C938 C 0.73165 0.0734 0.55873 0.0
C939 C 0.72271 0.10044 0.54145 0.0
C940 C 0.69597 0.12023 0.54997 0.0
C941 C 0.67671 0.11089 0.57379 0.0
C942 C 0.76001 0.05171 0.55069 0.0
C943 C 0.68591 0.14957 0.53238 0.0
H944 H 0.79961 0.14491 0.47755 0.0
H945 H 0.72577 0.08218 0.44195 0.0
H946 H 0.76433 0.16049 0.54238 0.0
H947 H 0.78668 0.12454 0.55157 0.0
H948 H 0.80456 0.15436 0.52762 0.0
H949 H 0.68688 0.05582 0.47031 0.0
H950 H 0.69931 0.04731 0.50698 0.0
H951 H 0.67346 0.08148 0.49965 0.0
H952 H 0.71777 0.04263 0.59431 0.0
H953 H 0.65477 0.12452 0.57884 0.0
H954 H 0.78159 0.06648 0.54455 0.0
H955 H 0.75321 0.03662 0.53166 0.0
H956 H 0.76696 0.03508 0.56865 0.0
H957 H 0.70751 0.16444 0.52645 0.0
H958 H 0.6683 0.16525 0.54422 0.0
H959 H 0.67425 0.14128 0.51197 0.0
C960 C 0.19826 0.46461 0.33281 0.0
C961 C 0.18006 0.43661 0.33962 0.0
C962 C 0.18999 0.48436 0.30912 0.0
C963 C 0.16283 0.47594 0.29175 0.0
C964 C 0.14239 0.44971 0.30034 0.0
C965 C 0.15123 0.43032 0.32427 0.0
C966 C 0.21232 0.51221 0.30106 0.0
C967 C 0.11294 0.44015 0.28265 0.0
C968 C 0.13618 0.5317 0.22978 0.0
C969 C 0.15088 0.51641 0.20592 0.0
C970 C 0.14003 0.51915 0.25798 0.0
C971 C 0.15916 0.49078 0.2624 0.0
C972 C 0.17508 0.47609 0.23851 0.0
C973 C 0.1707 0.48901 0.21067 0.0
C974 C 0.12268 0.53551 0.28285 0.0
C975 C 0.19611 0.44608 0.2422 0.0
H976 H 0.22049 0.46974 0.34474 0.0
H977 H 0.13714 0.40866 0.32929 0.0
H978 H 0.22757 0.50486 0.28233 0.0
H979 H 0.19808 0.53399 0.29448 0.0
H980 H 0.22879 0.51908 0.31919 0.0
H981 H 0.09673 0.4231 0.29458 0.0
H982 H 0.09868 0.46203 0.27633 0.0
H983 H 0.12109 0.42797 0.26245 0.0
H984 H 0.12055 0.55267 0.22632 0.0
H985 H 0.18218 0.47703 0.1924 0.0
H986 H 0.14 0.54049 0.30079 0.0
H987 H 0.10359 0.51896 0.29143 0.0
H988 H 0.11097 0.55881 0.27628 0.0
H989 H 0.21583 0.45096 0.25809 0.0
H990 H 0.20741 0.43808 0.22153 0.0
H991 H 0.18121 0.42568 0.25082 0.0
C992 C 0.77919 0.6298 0.52621 0.0
C993 C 0.76511 0.61424 0.55023 0.0
C994 C 0.76607 0.62577 0.49819 0.0
C995 C 0.73837 0.60556 0.49407 0.0
C996 C 0.72491 0.58885 0.51811 0.0
C997 C 0.73835 0.59345 0.54577 0.0
C998 C 0.78114 0.644 0.47319 0.0
C999 C 0.69568 0.56668 0.51478 0.0
C1000 C 0.67679 0.61185 0.43256 0.0
C1001 C 0.68417 0.58368 0.41664 0.0
C1002 C 0.69593 0.62097 0.45664 0.0
C1003 C 0.72304 0.60148 0.46486 0.0
C1004 C 0.73233 0.57494 0.4471 0.0
C1005 C 0.71283 0.5664 0.42326 0.0
C1006 C 0.68539 0.64974 0.47473 0.0
C1007 C 0.76107 0.55358 0.45477 0.0
H1008 H 0.79961 0.64621 0.52945 0.0
H1009 H 0.72727 0.58131 0.56414 0.0
H1010 H 0.78664 0.627 0.45515 0.0
H1011 H 0.76354 0.66229 0.46485 0.0
H1012 H 0.80395 0.65681 0.47951 0.0
H1013 H 0.68859 0.55492 0.5355 0.0
H1014 H 0.67454 0.58084 0.50656 0.0
H1015 H 0.70097 0.54728 0.49869 0.0
H1016 H 0.65464 0.62524 0.42774 0.0
H1017 H 0.71885 0.54468 0.41095 0.0
H1018 H 0.70673 0.66491 0.48086 0.0
H1019 H 0.67402 0.6408 0.49502 0.0
H1020 H 0.6674 0.66531 0.46319 0.0
H1021 H 0.78244 0.5686 0.46107 0.0
H1022 H 0.76819 0.53739 0.43654 0.0
H1023 H 0.75464 0.53805 0.47359 0.0
C1024 C 0.13578 0.03386 0.77523 0.0
C1025 C 0.15206 0.01963 0.79884 0.0
C1026 C 0.13932 0.0212 0.74699 0.0
C1027 C 0.15968 0.99374 0.74225 0.0
C1028 C 0.17719 0.98023 0.76584 0.0
C1029 C 0.17315 0.99328 0.79371 0.0
C1030 C 0.12034 0.0364 0.72247 0.0
C1031 C 0.1995 0.95121 0.76186 0.0
C1032 C 0.15162 0.93197 0.68115 0.0
C1033 C 0.17946 0.93914 0.66474 0.0
C1034 C 0.14311 0.95131 0.70523 0.0
C1035 C 0.1628 0.97848 0.71292 0.0
C1036 C 0.18884 0.98768 0.69456 0.0
C1037 C 0.19685 0.96791 0.67077 0.0
C1038 C 0.11491 0.9408 0.72399 0.0
C1039 C 0.21031 0.01655 0.70159 0.0
H1040 H 0.11916 0.05399 0.77896 0.0
H1041 H 0.18588 0.98209 0.81173 0.0
H1042 H 0.13671 0.04176 0.70397 0.0
H1043 H 0.1016 0.01894 0.71467 0.0
H1044 H 0.10796 0.05932 0.72912 0.0
H1045 H 0.21198 0.9441 0.78226 0.0
H1046 H 0.18527 0.92998 0.75389 0.0
H1047 H 0.21832 0.95677 0.74534 0.0
H1048 H 0.13818 0.9097 0.67682 0.0
H1049 H 0.21834 0.97372 0.65811 0.0
H1050 H 0.09992 0.96214 0.73042 0.0
H1051 H 0.12447 0.92946 0.7441 0.0
H1052 H 0.09901 0.92276 0.71286 0.0
H1053 H 0.19545 0.03782 0.70841 0.0
H1054 H 0.22565 0.02381 0.68286 0.0
H1055 H 0.22669 0.01016 0.71987 0.0
C1056 C 0.76959 0.42227 0.04207 0.0
C1057 C 0.74496 0.39927 0.04743 0.0
C1058 C 0.78284 0.42632 0.01434 0.0
C1059 C 0.77122 0.40693 0.9911 0.0
C1060 C 0.74516 0.38484 0.99597 0.0
C1061 C 0.73231 0.38126 0.02412 0.0
C1062 C 0.81028 0.45052 0.01021 0.0
C1063 C 0.73191 0.36392 0.9718 0.0
C1064 C 0.79795 0.44319 0.91968 0.0
C1065 C 0.82803 0.42754 0.91535 0.0
C1066 C 0.77743 0.43452 0.94274 0.0
C1067 C 0.78732 0.40973 0.96217 0.0
C1068 C 0.81603 0.39159 0.95614 0.0
C1069 C 0.83604 0.40064 0.93269 0.0
C1070 C 0.74685 0.45417 0.94791 0.0
C1071 C 0.82737 0.36477 0.97612 0.0
H1072 H 0.77949 0.43635 0.05992 0.0
H1073 H 0.71355 0.36316 0.0281 0.0
H1074 H 0.83271 0.4375 1.00332 0.0
H1075 H 0.80395 0.46814 0.99287 0.0
H1076 H 0.81583 0.46439 0.03028 0.0
H1077 H 0.70907 0.35118 0.97811 0.0
H1078 H 0.72704 0.3789 0.95227 0.0
H1079 H 0.75033 0.3453 0.96576 0.0
H1080 H 0.79151 0.46391 0.90623 0.0
H1081 H 0.8593 0.38855 0.92962 0.0
H1082 H 0.75128 0.47184 0.9657 0.0
H1083 H 0.72639 0.43816 0.95461 0.0
H1084 H 0.73941 0.46805 0.92834 0.0
H1085 H 0.83705 0.37574 0.99636 0.0
H1086 H 0.84692 0.34973 0.96618 0.0
H1087 H 0.80674 0.34864 0.98214 0.0
C1088 C 0.31884 0.05217 0.17096 0.0
C1089 C 0.33595 0.08094 0.16428 0.0
C1090 C 0.32696 0.0332 0.19525 0.0
C1091 C 0.35302 0.04301 0.2134 0.0
C1092 C 0.37229 0.07032 0.20528 0.0
C1093 C 0.36352 0.089 0.18081 0.0
C1094 C 0.30577 1.00431 0.20281 0.0
C1095 C 0.40061 0.08137 0.22372 0.0
C1096 C 0.34465 0.02683 0.29428 0.0
C1097 C 0.36541 1.00002 0.29859 0.0
C1098 C 0.3402 0.0406 0.2667 0.0
C1099 C 0.35713 0.02754 0.2426 0.0
C1100 C 0.37748 0.99992 0.24661 0.0
C1101 C 0.38126 0.98639 0.27451 0.0
C1102 C 0.31782 0.06968 0.26351 0.0
C1103 C 0.3961 0.98533 0.2216 0.0
H1104 H 0.29759 0.04558 0.15823 0.0
H1105 H 0.37679 0.11123 0.17599 0.0
H1106 H 0.32093 0.98299 0.20895 0.0
H1107 H 0.29033 0.01054 0.22174 0.0
H1108 H 0.28952 0.99716 0.18461 0.0
H1109 H 0.41603 0.09964 0.2124 0.0
H1110 H 0.39122 0.09257 0.24393 0.0
H1111 H 0.41604 0.06028 0.22999 0.0
H1112 H 0.33233 0.03762 0.3127 0.0
H1113 H 0.39771 0.96599 0.27762 0.0
H1114 H 0.29861 0.06437 0.24724 0.0
H1115 H 0.33185 0.09103 0.25559 0.0
H1116 H 0.30585 0.07644 0.28422 0.0
H1117 H 0.37924 0.9794 0.20355 0.0
H1118 H 0.40947 0.96283 0.22788 0.0
H1119 H 0.41393 1.00341 0.21329 0.0
C1120 C 0.33079 0.40135 0.57523 0.0
C1121 C 0.32425 0.43034 0.59026 0.0
C1122 C 0.31191 0.39232 0.55101 0.0
C1123 C 0.28597 0.41276 0.54175 0.0
C1124 C 0.27728 0.44014 0.55872 0.0
C1125 C 0.29646 0.44854 0.58276 0.0
C1126 C 0.32169 0.3626 0.53381 0.0
C1127 C 0.24974 0.4625 0.5499 0.0
C1128 C 0.27387 0.41869 0.46034 0.0
C1129 C 0.24647 0.39883 0.45574 0.0
C1130 C 0.28646 0.4238 0.48825 0.0
C1131 C 0.27144 0.40852 0.51231 0.0
C1132 C 0.24308 0.38935 0.508 0.0
C1133 C 0.23085 0.38483 0.47977 0.0
C1134 C 0.31646 0.44487 0.49184 0.0
C1135 C 0.22641 0.37264 0.53303 0.0
H1136 H 0.35227 0.38723 0.58077 0.0
H1137 H 0.29111 0.47089 0.59441 0.0
H1138 H 0.29989 0.34824 0.52743 0.0
H1139 H 0.33412 0.37044 0.51365 0.0
H1140 H 0.33857 0.34656 0.54614 0.0
H1141 H 0.24267 0.47936 0.56766 0.0
H1142 H 0.2575 0.47735 0.53104 0.0
H1143 H 0.22798 0.44827 0.54321 0.0
H1144 H 0.28613 0.42961 0.44196 0.0
H1145 H 0.20987 0.36917 0.47644 0.0
H1146 H 0.33675 0.4301 0.50085 0.0
H1147 H 0.31149 0.4649 0.50739 0.0
H1148 H 0.32464 0.45576 0.47106 0.0
H1149 H 0.24286 0.3538 0.54223 0.0
H1150 H 0.20321 0.36071 0.52644 0.0
H1151 H 0.22117 0.39042 0.55053 0.0
C1152 C 0.88058 0.98086 0.23241 0.0
C1153 C 0.86547 0.99577 0.20854 0.0
C1154 C 0.87591 0.99293 0.26068 0.0
C1155 C 0.85559 0.02045 0.26512 0.0
C1156 C 0.83908 0.03453 0.24123 0.0
C1157 C 0.84423 0.02206 0.21334 0.0
C1158 C 0.89382 0.97715 0.28555 0.0
C1159 C 0.81681 0.06363 0.24494 0.0
C1160 C 0.81602 0.04607 0.33541 0.0
C1161 C 0.83333 0.07474 0.34191 0.0
C1162 C 0.82486 0.02625 0.31192 0.0
C1163 C 0.85165 0.03535 0.29443 0.0
C1164 C 0.87129 0.0623 0.30276 0.0
C1165 C 0.86193 0.08169 0.32652 0.0
C1166 C 0.80345 0.99756 0.30417 0.0
C1167 C 0.90032 0.07261 0.28492 0.0
H1168 H 0.89729 0.96076 0.22891 0.0
H1169 H 0.8324 0.03372 0.19506 0.0
H1170 H 0.91284 0.99408 0.29373 0.0
H1171 H 0.87688 0.97219 0.30373 0.0
H1172 H 0.90575 0.95393 0.27908 0.0
H1173 H 0.80503 0.07106 0.2243 0.0
H1174 H 0.79743 0.05799 0.26092 0.0
H1175 H 0.83091 0.08467 0.25346 0.0
H1176 H 0.79398 0.04043 0.34737 0.0
H1177 H 0.87535 0.10385 0.33131 0.0
H1178 H 0.81839 0.97627 0.29754 0.0
H1179 H 0.78766 1.00424 0.28556 0.0
H1180 H 0.78751 0.99023 0.32248 0.0
H1181 H 0.91531 0.05115 0.27885 0.0
H1182 H 0.91597 0.09041 0.29663 0.0
H1183 H 0.89166 0.08418 0.2646 0.0
C1184 C 0.22178 0.56612 0.08551 0.0
C1185 C 0.19322 0.58383 0.09143 0.0
C1186 C 0.24201 0.57441 0.06215 0.0
C1187 C 0.23342 0.60097 0.04415 0.0
C1188 C 0.20658 0.62102 0.05191 0.0
C1189 C 0.18681 0.61226 0.07557 0.0
C1190 C 0.27061 0.55263 0.05508 0.0
C1191 C 0.19675 0.6498 0.03351 0.0
C1192 C 0.28805 0.62873 0.98183 0.0
C1193 C 0.27298 0.61339 0.95813 0.0
C1194 C 0.27612 0.62436 0.01018 0.0
C1195 C 0.24856 0.60416 0.01488 0.0
C1196 C 0.23443 0.5873 0.99119 0.0
C1197 C 0.24679 0.59211 0.96323 0.0
C1198 C 0.29202 0.64257 0.03482 0.0
C1199 C 0.20528 0.56514 0.99515 0.0
H1200 H 0.22702 0.54422 0.09783 0.0
H1201 H 0.16473 0.62598 0.0799 0.0
H1202 H 0.26398 0.53639 0.03676 0.0
H1203 H 0.29204 0.56727 0.0483 0.0
H1204 H 0.27768 0.53713 0.07378 0.0
H1205 H 0.17892 0.6658 0.04475 0.0
H1206 H 0.21841 0.66453 0.02748 0.0
H1207 H 0.18541 0.64085 0.01317 0.0
H1208 H 0.30808 0.64546 0.9781 0.0
H1209 H 0.23503 0.58008 0.9451 0.0
H1210 H 0.29638 0.62604 0.05344 0.0
H1211 H 0.27546 0.66222 0.04237 0.0
H1212 H 0.31557 0.65379 0.02833 0.0
H1213 H 0.21079 0.54608 0.01148 0.0
H1214 H 0.1979 0.55296 0.97468 0.0
H1215 H 0.18425 0.57948 1.00332 0.0
C1216 C 0.67318 0.99326 0.71159 0.0
C1217 C 0.65165 0.01945 0.70732 0.0
C1218 C 0.67921 0.98066 0.73928 0.0
C1219 C 0.6635 0.99464 0.76359 0.0
C1220 C 0.64311 0.02225 0.75971 0.0
C1221 C 0.63737 0.03433 0.73158 0.0
C1222 C 0.70139 0.95138 0.7423 0.0
C1223 C 0.62623 0.03809 0.78508 0.0
C1224 C 0.65762 0.93284 0.82455 0.0
C1225 C 0.68672 0.93903 0.83954 0.0
C1226 C 0.64811 0.9526 0.80107 0.0
C1227 C 0.66805 0.97927 0.79264 0.0
C1228 C 0.69557 0.98751 0.80965 0.0
C1229 C 0.70465 0.96721 0.83277 0.0
C1230 C 0.61846 0.94302 0.78365 0.0
C1231 C 0.71722 0.01597 0.80185 0.0
H1232 H 0.68445 0.98165 0.69303 0.0
H1233 H 0.62048 0.05439 0.7285 0.0
H1234 H 0.72135 0.95678 0.75781 0.0
H1235 H 0.68741 0.93039 0.75105 0.0
H1236 H 0.7124 0.94396 0.72135 0.0
H1237 H 0.61469 0.06166 0.77906 0.0
H1238 H 0.60701 0.02151 0.7934 0.0
H1239 H 0.64375 0.04242 0.803 0.0
H1240 H 0.64368 0.91108 0.82957 0.0
H1241 H 0.72705 0.97233 0.84444 0.0
H1242 H 0.62639 0.93195 0.76289 0.0
H1243 H 0.60351 0.96478 0.77838 0.0
H1244 H 0.60297 0.92506 0.79529 0.0
H1245 H 0.73233 0.0094 0.78281 0.0
H1246 H 0.73382 0.02272 0.81991 0.0
H1247 H 0.70242 0.03761 0.79586 0.0
C1248 C 0.43162 0.26407 0.11903 0.0
C1249 C 0.42576 0.2304 0.12048 0.0
C1250 C 0.46334 0.27683 0.12138 0.0
C1251 C 0.49018 0.25534 0.12458 0.0
C1252 C 0.48417 0.22138 0.12781 0.0
C1253 C 0.45196 0.20933 0.12595 0.0
C1254 C 0.46826 0.31318 0.11836 0.0
C1255 C 0.51194 0.1975 0.13096 0.0
C1256 C 0.56792 0.28332 0.08704 0.0
C1257 C 0.58774 0.29382 0.11012 0.0
C1258 C 0.53673 0.27017 0.09166 0.0
C1259 C 0.5242 0.26791 0.12012 0.0
C1260 C 0.54367 0.27886 0.14362 0.0
C1261 C 0.57521 0.29153 0.13838 0.0
C1262 C 0.51702 0.25888 0.06585 0.0
C1263 C 0.53108 0.27735 0.17425 0.0
H1264 H 0.4113 0.28035 0.1149 0.0
H1265 H 0.44748 0.18329 0.12678 0.0
H1266 H 0.48559 0.32226 0.13499 0.0
H1267 H 0.47893 0.31861 0.09684 0.0
H1268 H 0.44497 0.32685 0.12041 0.0
H1269 H 0.50326 0.1728 0.1372 0.0
H1270 H 0.5251 0.19555 0.11005 0.0
H1271 H 0.52969 0.20617 0.14738 0.0
H1272 H 0.57656 0.28558 0.06504 0.0
H1273 H 0.5901 0.2993 0.15647 0.0
H1274 H 0.49457 0.27383 0.06384 0.0
H1275 H 0.50931 0.23315 0.06886 0.0
H1276 H 0.53087 0.26071 0.04526 0.0
H1277 H 0.50841 0.29199 0.17614 0.0
H1278 H 0.54916 0.28663 0.19019 0.0
H1279 H 0.52475 0.25182 0.17993 0.0
C1280 C 0.55011 0.69729 0.37771 0.0
C1281 C 0.53711 0.67529 0.35744 0.0
C1282 C 0.5369 0.72894 0.381 0.0
C1283 C 0.51004 0.73883 0.36365 0.0
C1284 C 0.49591 0.71608 0.34426 0.0
C1285 C 0.5095 0.68477 0.34148 0.0
C1286 C 0.5526 0.75225 0.40211 0.0
C1287 C 0.46723 0.72526 0.32539 0.0
C1288 C 0.45876 0.81551 0.37714 0.0
C1289 C 0.47132 0.83701 0.35628 0.0
C1290 C 0.47204 0.78396 0.38088 0.0
C1291 C 0.49853 0.77362 0.36337 0.0
C1292 C 0.5122 0.79583 0.34328 0.0
C1293 C 0.49855 0.82708 0.34007 0.0
C1294 C 0.45684 0.76123 0.40271 0.0
C1295 C 0.54048 0.78614 0.32419 0.0
H1296 H 0.5714 0.69025 0.39014 0.0
H1297 H 0.49869 0.66774 0.32632 0.0
H1298 H 0.56558 0.77169 0.39002 0.0
H1299 H 0.53377 0.76432 0.41562 0.0
H1300 H 0.57037 0.7398 0.41652 0.0
H1301 H 0.4576 0.70413 0.31295 0.0
H1302 H 0.44723 0.73545 0.33877 0.0
H1303 H 0.47472 0.74448 0.30984 0.0
H1304 H 0.43778 0.82288 0.38979 0.0
H1305 H 0.50908 0.8437 0.32445 0.0
H1306 H 0.47597 0.74966 0.41626 0.0
H1307 H 0.44372 0.74138 0.39124 0.0
H1308 H 0.43928 0.77404 0.41706 0.0
H1309 H 0.56078 0.77638 0.3375 0.0
H1310 H 0.54979 0.8069 0.31113 0.0
H1311 H 0.5327 0.76645 0.3092 0.0
C1312 C 0.93482 0.75044 0.59334 0.0
C1313 C 0.92555 0.72262 0.60911 0.0
C1314 C 0.966 0.76433 0.59627 0.0
C1315 C 0.98885 0.75031 0.61562 0.0
C1316 C 0.97918 0.72323 0.63276 0.0
C1317 C 0.94766 0.70972 0.62933 0.0
C1318 C 0.97493 0.79323 0.5776 0.0
C1319 C 1.0026 0.70763 0.65382 0.0
C1320 C 0.07701 0.76264 0.59221 0.0
C1321 C 0.08674 0.78993 0.60852 0.0
C1322 C 0.04588 0.74872 0.59532 0.0
C1323 C 0.02356 0.76214 0.61544 0.0
C1324 C 0.03372 0.78864 0.6331 0.0
C1325 C 0.06517 0.80222 0.62944 0.0
C1326 C 0.0364 0.72046 0.57605 0.0
C1327 C 0.01089 0.80355 0.655 0.0
H1328 H 0.91772 0.76119 0.57822 0.0
H1329 H 0.94081 0.6883 0.64162 0.0
H1330 H 0.98492 0.81324 0.59113 0.0
H1331 H 0.99423 0.78602 0.56203 0.0
H1332 H 0.95374 0.80273 0.56519 0.0
H1333 H 0.9903 0.68964 0.6681 0.0
H1334 H 0.02217 0.69491 0.64169 0.0
H1335 H 0.01445 0.7265 0.66748 0.0
H1336 H 0.09369 0.75231 0.57654 0.0
H1337 H 0.07237 0.82322 0.64218 0.0
H1338 H 0.01666 0.72818 0.56109 0.0
H1339 H 0.0268 0.7 0.58923 0.0
H1340 H 0.05722 0.71139 0.56296 0.0
H1341 H 0.99099 0.81665 0.64358 0.0
H1342 H 0.02359 0.82109 0.66949 0.0
H1343 H 0.99941 0.78425 0.66839 0.0
C1344 C 1.00529 0.3294 0.84438 0.0
C1345 C 0.97763 0.33915 0.86011 0.0
C1346 C 0.01861 0.29799 0.84731 0.0
C1347 C 1.00425 0.27543 0.86669 0.0
C1348 C 0.97738 0.2856 0.88384 0.0
C1349 C 0.96437 0.3173 0.88034 0.0
C1350 C 0.04727 0.28849 0.82858 0.0
C1351 C 0.9615 0.26253 0.905 0.0
C1352 C 0.01479 0.18691 0.84355 0.0
C1353 C 0.04209 0.17685 0.85968 0.0
C1354 C 1.00149 0.21832 0.84659 0.0
C1355 C 0.01546 0.24054 0.86655 0.0
C1356 C 0.04193 0.23006 0.88408 0.0
C1357 C 0.05497 0.19839 0.88042 0.0
C1358 C 0.97329 0.22818 0.82741 0.0
C1359 C 0.05735 0.25275 0.90587 0.0
H1360 H 0.01635 0.34627 0.82927 0.0
H1361 H 0.94307 0.32451 0.89262 0.0
H1362 H 0.06719 0.2783 0.84209 0.0
H1363 H 0.03969 0.26917 0.81312 0.0
H1364 H 0.05703 0.30945 0.81604 0.0
H1365 H 0.94384 0.27522 0.91934 0.0
H1366 H 0.94833 0.24314 0.89296 0.0
H1367 H 0.98023 0.25038 0.91859 0.0
H1368 H 1.00395 0.1703 0.82806 0.0
H1369 H 0.07598 0.19098 0.89303 0.0
H1370 H 0.98122 0.24781 0.81244 0.0
H1371 H 0.95304 0.23809 0.84066 0.0
H1372 H 0.96384 0.20747 0.81433 0.0
H1373 H 0.07076 0.27236 0.89438 0.0
H1374 H 0.0747 0.23982 0.92036 0.0
H1375 H 0.03832 0.26466 0.91928 0.0
C1376 C 0.58204 0.77666 0.87415 0.0
C1377 C 0.58586 0.80097 0.89526 0.0
C1378 C 0.55201 0.76009 0.87074 0.0
C1379 C 0.52501 0.7685 0.88848 0.0
C1380 C 0.5284 0.79443 0.90858 0.0
C1381 C 0.55875 0.81 0.91192 0.0
C1382 C 0.54977 0.73237 0.84935 0.0
C1383 C 0.50032 0.80484 0.92759 0.0
C1384 C 0.43735 0.74011 0.8737 0.0
C1385 C 0.43338 0.71602 0.89497 0.0
C1386 C 0.46742 0.75663 0.87041 0.0
C1387 C 0.49429 0.7484 0.88843 0.0
C1388 C 0.49075 0.72267 0.90869 0.0
C1389 C 0.46037 0.70715 0.9119 0.0
C1390 C 0.46982 0.78412 0.84883 0.0
C1391 C 0.51869 0.71246 0.928 0.0
H1392 H 0.60302 0.76941 0.86144 0.0
H1393 H 0.56159 0.82894 0.92811 0.0
H1394 H 0.54784 0.70893 0.86125 0.0
H1395 H 0.52753 0.73479 0.83582 0.0
H1396 H 0.57143 0.73123 0.83496 0.0
H1397 H 0.50581 0.82755 0.93981 0.0
H1398 H 0.47809 0.80888 0.91434 0.0
H1399 H 0.49471 0.7852 0.94335 0.0
H1400 H 0.41646 0.74724 0.86079 0.0
H1401 H 0.4574 0.68839 0.92821 0.0
H1402 H 0.49218 0.78159 0.83552 0.0
H1403 H 0.47163 0.80769 0.86057 0.0
H1404 H 0.44828 0.78509 0.83423 0.0
H1405 H 0.54102 0.7083 0.91497 0.0
H1406 H 0.51311 0.68986 0.94032 0.0
H1407 H 0.52416 0.73225 0.94367 0.0
C1408 C 0.49906 0.32649 0.66328 0.0
C1409 C 0.47156 0.33622 0.64728 0.0
C1410 C 0.51264 0.29519 0.66024 0.0
C1411 C 0.4986 0.2727 0.64056 0.0
C1412 C 0.47185 0.28285 0.6232 0.0
C1413 C 0.45867 0.31448 0.62674 0.0
C1414 C 0.5412 0.28574 0.67915 0.0
C1415 C 0.45626 0.25982 0.60178 0.0
C1416 C 0.54985 0.19599 0.62682 0.0
C1417 C 0.53715 0.1744 0.64755 0.0
C1418 C 0.53661 0.22759 0.62318 0.0
C1419 C 0.51001 0.23785 0.64061 0.0
C1420 C 0.49615 0.2155 0.66047 0.0
C1421 C 0.50977 0.18423 0.66361 0.0
C1422 C 0.55202 0.25046 0.60158 0.0
C1423 C 0.46776 0.22508 0.67947 0.0
H1424 H 0.50981 0.3433 0.67866 0.0
H1425 H 0.43748 0.3217 0.61426 0.0
H1426 H 0.5336 0.26636 0.6945 0.0
H1427 H 0.56125 0.27566 0.66576 0.0
H1428 H 0.55081 0.30671 0.69182 0.0
H1429 H 0.43859 0.27248 0.5874 0.0
H1430 H 0.47516 0.2479 0.58825 0.0
H1431 H 0.44317 0.24025 0.61362 0.0
H1432 H 0.57094 0.18869 0.61431 0.0
H1433 H 0.49919 0.16753 0.67914 0.0
H1434 H 0.56527 0.27007 0.61327 0.0
H1435 H 0.53301 0.26234 0.58811 0.0
H1436 H 0.56952 0.23768 0.58715 0.0
H1437 H 0.47551 0.24455 0.6947 0.0
H1438 H 0.45825 0.2042 0.69227 0.0
H1439 H 0.4476 0.23509 0.66613 0.0
C1440 C 0.07647 0.26292 0.41566 0.0
C1441 C 0.08583 0.29031 0.39938 0.0
C1442 C 0.04535 0.24892 0.41276 0.0
C1443 C 0.02268 0.26244 0.39296 0.0
C1444 C 0.03245 0.28911 0.37538 0.0
C1445 C 0.06392 0.30271 0.37876 0.0
C1446 C 0.03629 0.22043 0.43187 0.0
C1447 C 0.00919 0.30419 0.35389 0.0
C1448 C 0.94675 0.2101 0.37919 0.0
C1449 C 0.92492 0.22271 0.39975 0.0
C1450 C 0.9782 0.22367 0.37566 0.0
C1451 C 0.98805 0.25051 0.39303 0.0
C1452 C 0.96548 0.26423 0.41277 0.0
C1453 C 0.93437 0.25026 0.41581 0.0
C1454 C 1.00135 0.20838 0.35423 0.0
C1455 C 0.97464 0.2929 0.43168 0.0
H1456 H 0.09344 0.25258 0.43111 0.0
H1457 H 0.07088 0.32381 0.36609 0.0
H1458 H 0.01683 0.22794 0.44716 0.0
H1459 H 0.02647 0.20009 0.41862 0.0
H1460 H 0.05738 0.21125 0.44461 0.0
H1461 H 0.02155 0.32199 0.33946 0.0
H1462 H 0.9976 0.285 0.3404 0.0
H1463 H 0.9894 0.31702 0.36566 0.0
H1464 H 0.93974 0.18887 0.36668 0.0
H1465 H 0.91747 0.26078 0.4312 0.0
H1466 H 0.0212 0.19567 0.36605 0.0
H1467 H 0.01287 0.22744 0.34059 0.0
H1468 H 0.98892 0.19044 0.33995 0.0
H1469 H 0.99419 0.28553 0.44697 0.0
H1470 H 0.95362 0.30219 0.44439 0.0
H1471 H 0.98438 0.31311 0.41827 0.0
C1472 C 0.05768 0.70029 0.12732 0.0
C1473 C 0.04484 0.67822 0.14758 0.0
C1474 C 0.04442 0.73197 0.12411 0.0
C1475 C 0.01764 0.74187 0.14152 0.0
C1476 C 1.00369 0.71907 0.16093 0.0
C1477 C 0.01733 0.68774 0.16364 0.0
C1478 C 0.05995 0.7553 0.10298 0.0
C1479 C 0.9751 0.7282 0.17988 0.0
C1480 C 1.00602 0.83023 0.16512 0.0
C1481 C 0.97868 0.84014 0.14897 0.0
C1482 C 0.01972 0.79899 0.16188 0.0
C1483 C 1.00601 0.7767 0.14182 0.0
C1484 C 0.9794 0.78702 0.12436 0.0
C1485 C 0.96608 0.81859 0.12811 0.0
C1486 C 0.04811 0.78938 0.18093 0.0
C1487 C 0.96411 0.76425 0.10257 0.0
H1488 H 0.07886 0.69326 0.1148 0.0
H1489 H 1.0066 0.67071 0.1788 0.0
H1490 H 0.04103 0.76723 0.08945 0.0
H1491 H 0.07287 0.77484 0.11505 0.0
H1492 H 0.07775 0.7429 0.08859 0.0
H1493 H 0.9656 0.70706 0.19235 0.0
H1494 H 0.98262 0.74747 0.1954 0.0
H1495 H 0.95499 0.73831 0.16653 0.0
H1496 H 0.01656 0.84686 0.18076 0.0
H1497 H 0.94501 0.82591 0.11552 0.0
H1498 H 0.06836 0.7796 0.16759 0.0
H1499 H 0.04042 0.76971 0.19596 0.0
H1500 H 0.05747 0.81019 0.19394 0.0
H1501 H 0.98319 0.75266 0.089 0.0
H1502 H 0.94648 0.77702 0.08824 0.0
H1503 H 0.95106 0.74441 0.11408 0.0
C1504 C 0.25105 0.25788 0.09198 0.0
C1505 C 0.23381 0.22956 0.09956 0.0
C1506 C 0.23578 0.28848 0.09157 0.0
C1507 C 0.20228 0.29094 0.09865 0.0
C1508 C 0.18435 0.26234 0.10522 0.0
C1509 C 0.20035 0.23195 0.10568 0.0
C1510 C 0.25582 0.31834 0.08435 0.0
C1511 C 0.14852 0.26395 0.11255 0.0
C1512 C 0.17709 0.37586 0.1232 0.0
C1513 C 0.16681 0.38968 0.09701 0.0
C1514 C 0.18713 0.34305 0.12449 0.0
C1515 C 0.18643 0.32367 0.09904 0.0
C1516 C 0.17393 0.337 0.07306 0.0
C1517 C 0.16446 0.36986 0.07234 0.0
C1518 C 0.20035 0.32975 0.15263 0.0
C1519 C 0.17223 0.3171 0.04558 0.0
H1520 H 0.27689 0.25636 0.08723 0.0
H1521 H 0.18687 0.21025 0.11175 0.0
H1522 H 0.24501 0.33127 0.06556 0.0
H1523 H 0.25563 0.33553 0.10292 0.0
H1524 H 0.28156 0.31221 0.07916 0.0
H1525 H 0.13756 0.23933 0.11517 0.0
H1526 H 0.14514 0.27773 0.133 0.0
H1527 H 0.13501 0.27722 0.09538 0.0
H1528 H 0.17898 0.39118 0.14225 0.0
H1529 H 0.15592 0.3804 0.05221 0.0
H1530 H 0.22699 0.32556 0.15054 0.0
H1531 H 0.18893 0.30589 0.15772 0.0
H1532 H 0.19613 0.34668 0.17103 0.0
H1533 H 0.19728 0.3124 0.03753 0.0
H1534 H 0.15826 0.32972 0.02827 0.0
H1535 H 0.16072 0.29306 0.0498 0.0
C1536 C 0.39381 0.41241 0.32513 0.0
C1537 C 0.37265 0.41545 0.3488 0.0
C1538 C 0.4261 0.42351 0.32664 0.0
C1539 C 0.43747 0.43835 0.35239 0.0
C1540 C 0.41665 0.44028 0.37682 0.0
C1541 C 0.38446 0.42857 0.37478 0.0
C1542 C 0.44764 0.42051 0.30027 0.0
C1543 C 0.42791 0.456 0.40465 0.0
C1544 C 0.52864 0.45178 0.36256 0.0
C1545 C 0.532 0.48464 0.35446 0.0
C1546 C 0.49808 0.43626 0.36186 0.0
C1547 C 0.47023 0.45403 0.35291 0.0
C1548 C 0.47361 0.48695 0.34408 0.0
C1549 C 0.50443 0.5018 0.34487 0.0
C1550 C 0.49548 0.40109 0.3713 0.0
C1551 C 0.4445 0.50675 0.3344 0.0
H1552 H 0.38482 0.40176 0.30518 0.0
H1553 H 0.36808 0.43107 0.39303 0.0
H1554 H 0.45322 0.44516 0.29166 0.0
H1555 H 0.4712 0.40892 0.30615 0.0
H1556 H 0.436 0.40593 0.2828 0.0
H1557 H 0.40949 0.45388 0.42217 0.0
H1558 H 0.45095 0.44458 0.41207 0.0
H1559 H 0.43304 0.48224 0.40089 0.0
H1560 H 0.54974 0.43839 0.37026 0.0
H1561 H 0.50671 0.52722 0.33873 0.0
H1562 H 0.48331 0.38637 0.35426 0.0
H1563 H 0.48023 0.39942 0.39106 0.0
H1564 H 0.51971 0.39015 0.37603 0.0
H1565 H 0.43257 0.49481 0.31561 0.0
H1566 H 0.45127 0.53205 0.32817 0.0
H1567 H 0.42624 0.50794 0.35207 0.0
C1568 C 0.30942 0.77924 0.61571 0.0
C1569 C 0.27607 0.78235 0.60934 0.0
C1570 C 0.325 0.74874 0.61445 0.0
C1571 C 0.30674 0.72072 0.60677 0.0
C1572 C 0.27322 0.7238 0.59985 0.0
C1573 C 0.25834 0.75457 0.60111 0.0
C1574 C 0.36084 0.74642 0.62171 0.0
C1575 C 0.2529 0.69448 0.59156 0.0
C1576 C 0.34622 0.64438 0.57677 0.0
C1577 C 0.34491 0.62324 0.60059 0.0
C1578 C 0.33533 0.67669 0.57888 0.0
C1579 C 0.32254 0.68809 0.60544 0.0
C1580 C 0.32253 0.66733 0.62999 0.0
C1581 C 0.33392 0.63511 0.62729 0.0
C1582 C 0.33621 0.69816 0.55232 0.0
C1583 C 0.30899 0.67863 0.65868 0.0
H1584 H 0.32329 0.80056 0.6222 0.0
H1585 H 0.23254 0.75667 0.59631 0.0
H1586 H 0.36433 0.73044 0.64084 0.0
H1587 H 0.37432 0.73514 0.60346 0.0
H1588 H 0.37178 0.77065 0.62644 0.0
H1589 H 0.22712 0.70101 0.58693 0.0
H1590 H 0.26335 0.68257 0.57209 0.0
H1591 H 0.25333 0.67626 0.60931 0.0
H1592 H 0.35527 0.63536 0.55625 0.0
H1593 H 0.33276 0.61873 0.64567 0.0
H1594 H 0.34793 0.72188 0.55745 0.0
H1595 H 0.31094 0.70341 0.54507 0.0
H1596 H 0.34962 0.68659 0.53413 0.0
H1597 H 0.32025 0.70216 0.66513 0.0
H1598 H 0.31316 0.66052 0.67618 0.0
H1599 H 0.28235 0.68285 0.6566 0.0
C1600 C 0.00807 0.51447 0.84883 0.0
C1601 C 0.9804 0.5306 0.85947 0.0
C1602 C 0.03873 0.52966 0.84885 0.0
C1603 C 0.04184 0.56186 0.85967 0.0
C1604 C 0.01391 0.57859 0.86983 0.0
C1605 C 0.9835 0.56276 0.86961 0.0
C1606 C 0.06793 0.51099 0.83778 0.0
C1607 C 0.01628 0.61293 0.8815 0.0
C1608 C 0.12809 0.58574 0.88156 0.0
C1609 C 0.13932 0.60035 0.85606 0.0
C1610 C 0.09583 0.57427 0.88361 0.0
C1611 C 0.07439 0.57797 0.8597 0.0
C1612 C 0.08515 0.59462 0.83466 0.0
C1613 C 0.11752 0.60542 0.83311 0.0
C1614 C 0.08529 0.55653 0.91065 0.0
C1615 C 0.06297 0.59957 0.80891 0.0
H1616 H 1.00597 0.48957 0.84111 0.0
H1617 H 0.96233 0.57531 0.87818 0.0
H1618 H 0.07937 0.5244 0.81957 0.0
H1619 H 0.08652 0.50881 0.85515 0.0
H1620 H 0.0614 0.48609 0.8302 0.0
H1621 H 0.99207 0.62299 0.88757 0.0
H1622 H 0.03227 0.61328 0.90089 0.0
H1623 H 0.02754 0.62921 0.86514 0.0
H1624 H 0.14503 0.58168 0.89922 0.0
H1625 H 0.12616 0.61718 0.81356 0.0
H1626 H 0.08241 0.53016 0.9058 0.0
H1627 H 0.06128 0.56566 0.91812 0.0
H1628 H 0.10325 0.55923 0.92852 0.0
H1629 H 0.05758 0.57565 0.7987 0.0
H1630 H 0.07404 0.61578 0.79233 0.0
H1631 H 0.03939 0.61025 0.81587 0.0
C1632 C 0.75989 0.75586 0.91125 0.0
C1633 C 0.77836 0.7833 0.90348 0.0
C1634 C 0.77392 0.72468 0.91194 0.0
C1635 C 0.80732 0.72084 0.90494 0.0
C1636 C 0.8264 0.74854 0.89804 0.0
C1637 C 0.81167 0.77946 0.89732 0.0
C1638 C 0.75275 0.6957 0.9194 0.0
C1639 C 0.86214 0.74542 0.89069 0.0
C1640 C 0.84474 0.64207 0.93185 0.0
C1641 C 0.84292 0.62225 0.90717 0.0
C1642 C 0.83465 0.6747 0.93107 0.0
C1643 C 0.82205 0.68771 0.90502 0.0
C1644 C 0.82138 0.6682 0.87966 0.0
C1645 C 0.83211 0.63566 0.881 0.0
C1646 C 0.83628 0.69484 0.95843 0.0
C1647 C 0.80806 0.68128 0.85149 0.0
H1648 H 0.73411 0.75854 0.91588 0.0
H1649 H 0.8261 0.80049 0.89111 0.0
H1650 H 0.75229 0.67832 0.90097 0.0
H1651 H 0.76307 0.68254 0.93829 0.0
H1652 H 0.72727 0.70287 0.92453 0.0
H1653 H 0.87406 0.76956 0.88783 0.0
H1654 H 0.87515 0.73184 0.90797 0.0
H1655 H 0.86495 0.73129 0.87037 0.0
H1656 H 0.85363 0.63177 0.95197 0.0
H1657 H 0.8306 0.62025 0.86199 0.0
H1658 H 0.81121 0.70061 0.96587 0.0
H1659 H 0.84879 0.71837 0.9542 0.0
H1660 H 0.8493 0.68197 0.97616 0.0
H1661 H 0.78188 0.68755 0.85407 0.0
H1662 H 0.81048 0.66349 0.83347 0.0
H1663 H 0.82103 0.70403 0.8455 0.0
C1664 C 0.61992 0.59353 0.68092 0.0
C1665 C 0.64074 0.5926 0.65688 0.0
C1666 C 0.58749 0.58302 0.67885 0.0
C1667 C 0.57567 0.57098 0.65213 0.0
C1668 C 0.59613 0.57131 0.62742 0.0
C1669 C 0.62847 0.58233 0.63008 0.0
C1670 C 0.56632 0.58353 0.70558 0.0
C1671 C 0.58439 0.55852 0.59857 0.0
C1672 C 0.50863 0.50734 0.65539 0.0
C1673 C 0.48103 0.5255 0.64748 0.0
C1674 C 0.53951 0.52191 0.65696 0.0
C1675 C 0.54288 0.55557 0.65073 0.0
C1676 C 0.51503 0.57428 0.64347 0.0
C1677 C 0.48441 0.55899 0.64184 0.0
C1678 C 0.56865 0.50111 0.66475 0.0
C1679 C 0.51768 0.61029 0.63699 0.0
H1680 H 0.62927 0.60203 0.70153 0.0
H1681 H 0.64461 0.58147 0.61154 0.0
H1682 H 0.54268 0.5956 0.70087 0.0
H1683 H 0.56086 0.55815 0.7124 0.0
H1684 H 0.57822 0.5964 0.72394 0.0
H1685 H 0.60239 0.56282 0.58102 0.0
H1686 H 0.57981 0.53189 0.60019 0.0
H1687 H 0.56098 0.57023 0.59248 0.0
H1688 H 0.5063 0.48142 0.65963 0.0
H1689 H 0.46322 0.57319 0.63564 0.0
H1690 H 0.58082 0.51104 0.68432 0.0
H1691 H 0.58673 0.50169 0.6469 0.0
H1692 H 0.56186 0.4753 0.66897 0.0
H1693 H 0.52934 0.62318 0.65542 0.0
H1694 H 0.49352 0.62161 0.63271 0.0
H1695 H 0.53345 0.6141 0.61778 0.0
C1696 C 0.75375 0.25871 0.40468 0.0
C1697 C 0.73584 0.23072 0.39738 0.0
C1698 C 0.7389 0.28949 0.40546 0.0
C1699 C 0.70524 0.29234 0.39905 0.0
C1700 C 0.68683 0.26413 0.3923 0.0
C1701 C 0.70237 0.23362 0.39146 0.0
C1702 C 0.75939 0.31905 0.41265 0.0
C1703 C 0.65087 0.26628 0.38547 0.0
C1704 C 0.66641 0.3694 0.42802 0.0
C1705 C 0.66743 0.38992 0.40377 0.0
C1706 C 0.67719 0.33703 0.42642 0.0
C1707 C 0.68945 0.32495 0.39991 0.0
C1708 C 0.68899 0.34503 0.37493 0.0
C1709 C 0.67784 0.37735 0.37716 0.0
C1710 C 0.67686 0.31628 0.45343 0.0
C1711 C 0.70208 0.33308 0.3463 0.0
H1712 H 0.77967 0.25675 0.40901 0.0
H1713 H 0.6884 0.21213 0.38566 0.0
H1714 H 0.75877 0.33657 0.39435 0.0
H1715 H 0.74925 0.33173 0.43185 0.0
H1716 H 0.78523 0.31263 0.41718 0.0
H1717 H 0.63984 0.24194 0.3814 0.0
H1718 H 0.6377 0.27807 0.40365 0.0
H1719 H 0.64708 0.28174 0.36604 0.0
H1720 H 0.65776 0.37895 0.44848 0.0
H1721 H 0.67878 0.39327 0.35845 0.0
H1722 H 0.70228 0.31119 0.46036 0.0
H1723 H 0.66501 0.29245 0.449 0.0
H1724 H 0.66386 0.32835 0.4716 0.0
H1725 H 0.72907 0.33172 0.34751 0.0
H1726 H 0.69537 0.34959 0.32818 0.0
H1727 H 0.69294 0.3082 0.34138 0.0
C1728 C 0.88757 0.43323 0.1252 0.0
C1729 C 0.87493 0.4231 0.15186 0.0
C1730 C 0.92006 0.44388 0.12294 0.0
C1731 C 0.94022 0.44391 0.1479 0.0
C1732 C 0.92803 0.43183 0.17442 0.0
C1733 C 0.89547 0.42173 0.17609 0.0
C1734 C 0.93226 0.45672 0.09429 0.0
C1735 C 0.94888 0.43101 0.2014 0.0
C1736 C 0.03163 0.45561 0.1394 0.0
C1737 C 0.035 0.48902 0.14543 0.0
C1738 C 1.00093 0.44046 0.14021 0.0
C1739 C 0.97302 0.45924 0.14703 0.0
C1740 C 0.97636 0.49282 0.15361 0.0
C1741 C 0.00731 0.50726 0.15286 0.0
C1742 C 0.99829 0.40453 0.13335 0.0
C1743 C 0.94712 0.51366 0.16098 0.0
H1744 H 0.8716 0.43437 0.10653 0.0
H1745 H 0.88577 0.41332 0.19658 0.0
H1746 H 0.93682 0.48335 0.09603 0.0
H1747 H 0.95577 0.44502 0.0885 0.0
H1748 H 0.91453 0.45245 0.07647 0.0
H1749 H 0.93672 0.41797 0.2195 0.0
H1750 H 0.97255 0.41893 0.19687 0.0
H1751 H 0.95428 0.45631 0.20849 0.0
H1752 H 0.05291 0.44138 0.13353 0.0
H1753 H 0.00965 0.53313 0.15735 0.0
H1754 H 0.98281 0.40097 0.11389 0.0
H1755 H 0.9863 0.39148 0.15149 0.0
H1756 H 0.02247 0.39318 0.12933 0.0
H1757 H 0.92937 0.51319 0.14282 0.0
H1758 H 0.95388 0.53944 0.16541 0.0
H1759 H 0.93456 0.50369 0.18031 0.0
C1760 C 0.75347 0.75718 0.6023 0.0
C1761 C 0.73604 0.72937 0.61087 0.0
C1762 C 0.7385 0.7879 0.60143 0.0
C1763 C 0.70521 0.79089 0.60911 0.0
C1764 C 0.68722 0.76283 0.6171 0.0
C1765 C 0.70288 0.73237 0.61794 0.0
C1766 C 0.7585 0.81728 0.59276 0.0
C1767 C 0.65162 0.76508 0.62518 0.0
C1768 C 0.67892 0.87648 0.63034 0.0
C1769 C 0.66722 0.88837 0.60387 0.0
C1770 C 0.6902 0.8442 0.63278 0.0
C1771 C 0.68935 0.82346 0.60822 0.0
C1772 C 0.67576 0.83487 0.58196 0.0
C1773 C 0.66499 0.86722 0.5801 0.0
C1774 C 0.70457 0.83284 0.66115 0.0
C1775 C 0.67399 0.81341 0.55541 0.0
H1776 H 0.77913 0.75513 0.59695 0.0
H1777 H 0.68926 0.71102 0.6247 0.0
H1778 H 0.74742 0.82922 0.57358 0.0
H1779 H 0.75863 0.83545 0.61057 0.0
H1780 H 0.78414 0.8108 0.58752 0.0
H1781 H 0.64085 0.74081 0.63002 0.0
H1782 H 0.64874 0.78093 0.64448 0.0
H1783 H 0.63756 0.77648 0.60731 0.0
H1784 H 0.68074 0.89288 0.64867 0.0
H1785 H 0.65535 0.87628 0.55979 0.0
H1786 H 0.73115 0.82865 0.65853 0.0
H1787 H 0.69352 0.80929 0.66777 0.0
H1788 H 0.70089 0.85091 0.67879 0.0
H1789 H 0.69901 0.8082 0.54753 0.0
H1790 H 0.65995 0.82497 0.53757 0.0
H1791 H 0.66249 0.78967 0.56079 0.0
C1792 C 0.90211 0.91059 0.83388 0.0
C1793 C 0.88004 0.91558 0.85659 0.0
C1794 C 0.93446 0.92139 0.83585 0.0
C1795 C 0.94491 0.93798 0.86107 0.0
C1796 C 0.92322 0.94158 0.88475 0.0
C1797 C 0.89098 0.93011 0.88228 0.0
C1798 C 0.95693 0.91654 0.81032 0.0
C1799 C 0.93347 0.9592 0.91199 0.0
C1800 C 0.03571 0.95354 0.8715 0.0
C1801 C 0.03874 0.98565 0.86124 0.0
C1802 C 1.00533 0.93763 0.87167 0.0
C1803 C 0.97737 0.95425 0.86137 0.0
C1804 C 0.9804 0.98644 0.85055 0.0
C1805 C 0.01101 1.00169 0.85056 0.0
C1806 C 1.00306 0.9033 0.88332 0.0
C1807 C 0.95116 1.005 0.83934 0.0
H1808 H 0.89372 0.89887 0.8142 0.0
H1809 H 0.87384 0.93408 0.89976 0.0
H1810 H 0.96233 0.94049 0.80021 0.0
H1811 H 0.98048 0.90594 0.81753 0.0
H1812 H 0.9461 0.9003 0.79361 0.0
H1813 H 0.91506 0.95689 0.92949 0.0
H1814 H 0.95712 0.94962 0.91996 0.0
H1815 H 0.937 0.9855 0.90718 0.0
H1816 H 0.05692 0.94106 0.8801 0.0
H1817 H 0.01306 0.02655 0.84274 0.0
H1818 H 0.99185 0.88697 0.86692 0.0
H1819 H 0.98707 0.9029 0.90266 0.0
H1820 H 0.0273 0.8933 0.88945 0.0
H1821 H 0.93998 0.99164 0.82094 0.0
H1822 H 0.95759 0.02999 0.83198 0.0
H1823 H 0.9324 1.00693 0.85654 0.0
C1824 C 0.83787 0.13866 0.12901 0.0
C1825 C 0.84921 0.1259 0.10277 0.0
C1826 C 0.82732 0.17124 0.1309 0.0
C1827 C 0.8286 0.19144 0.10601 0.0
C1828 C 0.84202 0.17916 0.08001 0.0
C1829 C 0.85198 0.14649 0.07868 0.0
C1830 C 0.813 0.18341 0.15899 0.0
C1831 C 0.84432 0.2 0.05313 0.0
C1832 C 0.76441 0.25751 0.09879 0.0
C1833 C 0.78159 0.28552 0.10735 0.0
C1834 C 0.77953 0.22687 0.09823 0.0
C1835 C 0.81278 0.2241 0.10617 0.0
C1836 C 0.8306 0.25237 0.11396 0.0
C1837 C 0.81476 0.28279 0.11454 0.0
C1838 C 0.75965 0.19729 0.08977 0.0
C1839 C 0.86617 0.25038 0.12228 0.0
H1840 H 0.83564 0.12269 0.14759 0.0
H1841 H 0.86133 0.13674 0.05853 0.0
H1842 H 0.82381 0.20729 0.16502 0.0
H1843 H 0.78637 0.18719 0.15628 0.0
H1844 H 0.81693 0.16596 0.17706 0.0
H1845 H 0.85865 0.18798 0.03574 0.0
H1846 H 0.81945 0.20504 0.04474 0.0
H1847 H 0.85576 0.22386 0.05827 0.0
H1848 H 0.73876 0.25933 0.09328 0.0
H1849 H 0.82817 0.30427 0.12135 0.0
H1850 H 0.75936 0.17947 0.10784 0.0
H1851 H 0.77093 0.185 0.07087 0.0
H1852 H 0.73406 0.20363 0.08418 0.0
H1853 H 0.86889 0.23545 0.14216 0.0
H1854 H 0.87699 0.27482 0.12631 0.0
H1855 H 0.88027 0.2381 0.10493 0.0
C1856 C 0.4839 0.05973 0.3654 0.0
C1857 C 0.48065 0.02637 0.35909 0.0
C1858 C 0.51442 0.07524 0.36391 0.0
C1859 C 0.5423 0.05689 0.35611 0.0
C1860 C 0.53907 0.02337 0.34926 0.0
C1861 C 0.50829 0.00857 0.3507 0.0
C1862 C 0.51691 0.11111 0.37108 0.0
C1863 C 0.56825 1.00295 0.34087 0.0
C1864 C 0.61873 0.09602 0.32598 0.0
C1865 C 0.63988 0.09468 0.34981 0.0
C1866 C 0.58638 0.08527 0.32812 0.0
C1867 C 0.57498 0.07256 0.35472 0.0
C1868 C 0.59579 0.07246 0.37925 0.0
C1869 C 0.62803 0.08374 0.37653 0.0
C1870 C 0.56484 0.08624 0.30159 0.0
C1871 C 0.58452 0.05896 0.40796 0.0
H1872 H 0.46268 0.07365 0.37198 0.0
H1873 H 0.50607 0.98276 0.34593 0.0
H1874 H 0.53298 0.11458 0.39017 0.0
H1875 H 0.52817 0.12451 0.35278 0.0
H1876 H 0.49275 0.12214 0.37583 0.0
H1877 H 0.56159 0.97717 0.33628 0.0
H1878 H 0.58007 0.01336 0.32136 0.0
H1879 H 0.58658 1.0033 0.35857 0.0
H1880 H 0.62774 0.10503 0.30545 0.0
H1881 H 0.64442 0.08255 0.39491 0.0
H1882 H 0.54119 0.09806 0.30673 0.0
H1883 H 0.55945 0.06099 0.29435 0.0
H1884 H 0.57641 0.09961 0.28338 0.0
H1885 H 0.5611 0.07036 0.41445 0.0
H1886 H 0.60271 0.06301 0.42544 0.0
H1887 H 0.58011 0.03234 0.40589 0.0
C1888 C 0.25683 0.25321 0.40767 0.0
C1889 C 0.27496 0.28086 0.39987 0.0
C1890 C 0.27155 0.22239 0.40944 0.0
C1891 C 0.30528 0.21916 0.40353 0.0
C1892 C 0.32394 0.24708 0.39646 0.0
C1893 C 0.30853 0.27761 0.39461 0.0
C1894 C 0.25077 0.19311 0.41684 0.0
C1895 C 0.36 0.24462 0.39026 0.0
C1896 C 0.34405 0.1421 0.43298 0.0
C1897 C 0.34378 0.12174 0.40858 0.0
C1898 C 0.33286 0.17436 0.43135 0.0
C1899 C 0.32077 0.18639 0.40473 0.0
C1900 C 0.32153 0.16626 0.37978 0.0
C1901 C 0.33334 0.13422 0.38196 0.0
C1902 C 0.3329 0.19516 0.45834 0.0
C1903 C 0.30911 0.17821 0.35095 0.0
H1904 H 0.23085 0.25542 0.41154 0.0
H1905 H 0.32271 0.29883 0.38845 0.0
H1906 H 0.25132 0.17536 0.3987 0.0
H1907 H 0.26074 0.18059 0.43621 0.0
H1908 H 0.22498 0.19983 0.42117 0.0
H1909 H 0.37145 0.26893 0.38706 0.0
H1910 H 0.37267 0.232 0.4083 0.0
H1911 H 0.36393 0.22984 0.37046 0.0
H1912 H 0.35265 0.13257 0.45348 0.0
H1913 H 0.33304 0.11844 0.36314 0.0
H1914 H 0.30742 0.20052 0.46488 0.0
H1915 H 0.34504 0.21887 0.45405 0.0
H1916 H 0.3455 0.18302 0.47672 0.0
H1917 H 0.28413 0.18831 0.35326 0.0
H1918 H 0.3086 0.15861 0.33434 0.0
H1919 H 0.32517 0.19808 0.34309 0.0
C1920 C 0.00807 0.01662 0.1674 0.0
C1921 C 0.98099 0.03246 0.15534 0.0
C1922 C 0.03864 0.03195 0.16834 0.0
C1923 C 0.04216 0.0638 0.15685 0.0
C1924 C 0.01435 0.08095 0.14702 0.0
C1925 C 0.98402 0.06508 0.14642 0.0
C1926 C 0.06767 0.01294 0.17935 0.0
C1927 C 0.01703 0.11498 0.13474 0.0
C1928 C 0.12596 0.10223 0.16646 0.0
C1929 C 0.14153 0.09124 0.14136 0.0
C1930 C 0.0929 0.09487 0.17144 0.0
C1931 C 0.07536 0.07646 0.1506 0.0
C1932 C 0.0906 0.06741 0.12431 0.0
C1933 C 0.12356 0.07475 0.12015 0.0
C1934 C 0.07741 0.10503 0.19963 0.0
C1935 C 0.07268 0.04831 0.10122 0.0
H1936 H 1.00586 0.99156 0.17467 0.0
H1937 H 0.96314 0.07766 0.1373 0.0
H1938 H 0.08317 1.00558 0.16079 0.0
H1939 H 0.0828 0.02828 0.1939 0.0
H1940 H 0.06024 0.99057 0.19122 0.0
H1941 H 0.99286 0.12716 0.13336 0.0
H1942 H 0.03359 0.13026 0.14806 0.0
H1943 H 0.02747 0.11366 0.11262 0.0
H1944 H 0.14011 0.11486 0.18282 0.0
H1945 H 0.13578 0.06664 0.10064 0.0
H1946 H 0.07443 0.0833 0.21369 0.0
H1947 H 0.05277 0.11539 0.19585 0.0
H1948 H 0.09247 0.1233 0.21137 0.0
H1949 H 0.06699 0.02349 0.10938 0.0
H1950 H 0.08719 0.04586 0.08104 0.0
H1951 H 0.04919 0.06031 0.09583 0.0
C1952 C 0.1871 0.88031 0.88161 0.0
C1953 C 0.17647 0.89392 0.90774 0.0
C1954 C 0.19761 0.8477 0.88036 0.0
C1955 C 0.19689 0.82831 0.90577 0.0
C1956 C 0.1844 0.84151 0.93178 0.0
C1957 C 0.17456 0.87423 0.93248 0.0
C1958 C 0.21088 0.83445 0.85225 0.0
C1959 C 0.18267 0.82149 0.95917 0.0
C1960 C 0.20726 0.73654 0.89808 0.0
C1961 C 0.2406 0.73272 0.90423 0.0
C1962 C 0.1925 0.76745 0.89887 0.0
C1963 C 0.21158 0.79515 0.90582 0.0
C1964 C 0.24498 0.79132 0.91287 0.0
C1965 C 0.25904 0.76015 0.91212 0.0
C1966 C 0.15675 0.77055 0.89147 0.0
C1967 C 0.26616 0.8203 0.92038 0.0
H1968 H 0.18867 0.89564 0.86256 0.0
H1969 H 0.16583 0.8847 0.95256 0.0
H1970 H 0.23717 0.82865 0.85478 0.0
H1971 H 0.19824 0.81142 0.84652 0.0
H1972 H 0.20803 0.85197 0.83408 0.0
H1973 H 0.16961 0.83446 0.97682 0.0
H1974 H 0.17014 0.79796 0.95495 0.0
H1975 H 0.20771 0.81573 0.96676 0.0
H1976 H 0.19285 0.71552 0.89178 0.0
H1977 H 0.28483 0.75749 0.91676 0.0
H1978 H 0.15394 0.78446 0.87103 0.0
H1979 H 0.14379 0.78434 0.90863 0.0
H1980 H 0.14479 0.74641 0.88878 0.0
H1981 H 0.26665 0.83764 0.90194 0.0
H1982 H 0.29163 0.81312 0.9256 0.0
H1983 H 0.25583 0.8335 0.93922 0.0
C1984 C 0.39287 0.91466 0.68199 0.0
C1985 C 0.37275 0.917 0.65753 0.0
C1986 C 0.42551 0.92468 0.68104 0.0
C1987 C 0.4382 0.93775 0.65507 0.0
C1988 C 0.41843 0.93873 0.62987 0.0
C1989 C 0.3859 0.92806 0.63136 0.0
C1990 C 0.44594 0.9227 0.70821 0.0
C1991 C 0.43115 0.95256 0.60179 0.0
C1992 C 0.50489 1.00138 0.66176 0.0
C1993 C 0.53264 0.98377 0.65337 0.0
C1994 C 0.4741 0.98655 0.66255 0.0
C1995 C 0.471 0.95318 0.65507 0.0
C1996 C 0.49906 0.93491 0.64763 0.0
C1997 C 0.52957 0.95046 0.64677 0.0
C1998 C 0.44473 1.00689 0.67056 0.0
C1999 C 0.49672 0.89922 0.63981 0.0
H2000 H 0.38276 0.90558 0.70209 0.0
H2001 H 0.37025 0.92996 0.61252 0.0
H2002 H 0.46969 0.91084 0.70355 0.0
H2003 H 0.45121 0.94768 0.71624 0.0
H2004 H 0.43351 0.90888 0.7257 0.0
H2005 H 0.41337 0.94989 0.58377 0.0
H2006 H 0.43682 0.97886 0.60457 0.0
H2007 H 0.45415 0.94016 0.59565 0.0
H2008 H 0.50697 0.02715 0.66676 0.0
H2009 H 0.55086 0.93671 0.64008 0.0
H2010 H 0.43203 0.99593 0.68938 0.0
H2011 H 0.42715 1.00727 0.65227 0.0
H2012 H 0.45136 0.03245 0.67604 0.0
H2013 H 0.48323 0.88565 0.65678 0.0
H2014 H 0.52111 0.88784 0.637 0.0
H2015 H 0.48288 0.89645 0.6193 0.0
loop_
_geom_bond_atom_site_label_1
_geom_bond_atom_site_label_2
_geom_bond_distance
_geom_bond_site_symmetry_2
_ccdc_geom_bond_type
Co0 N5 2.057 . S
Co0 O17 2.021 . S
Co0 O20 2.062 . S
Co0 O24 2.117 . S
Co0 O25 2.020 . S
C1 O21 1.259 . S
C1 O24 1.258 . S
Co2 N11 2.057 . S
Co2 O18 2.117 . S
Co2 O19 2.020 . S
Co2 O21 2.021 . S
Co2 O26 2.062 . S
C3 N5 1.316 . S
C3 N6 1.347 . S
C3 H8 0.931 . S
C4 N5 1.375 . S
C4 C7 1.350 . S
C4 H9 0.930 . S
N5 Co0 2.057 . S
N5 C3 1.316 . S
N5 C4 1.375 . S
N6 C3 1.347 . S
N6 C7 1.373 . S
C7 C4 1.350 . S
C7 N6 1.373 . S
C7 H28 0.931 . S
H8 C3 0.931 . S
H9 C4 0.930 . S
C10 O17 1.259 . S
C10 O18 1.258 . S
N11 Co2 2.057 . S
N11 C12 1.316 . S
N11 C13 1.375 . S
C12 N11 1.316 . S
C12 N14 1.347 . S
C12 H23 0.931 . S
C13 N11 1.375 . S
C13 C15 1.350 . S
C13 H22 0.930 . S
N14 C12 1.347 . S
N14 C15 1.373 . S
C15 C13 1.350 . S
C15 N14 1.373 . S
C15 H29 0.931 . S
C16 O19 1.256 . S
C16 O20 1.255 . S
O17 Co0 2.021 . S
O17 C10 1.259 . S
O18 Co2 2.117 . S
O18 C10 1.258 . S
O19 Co2 2.020 . S
O19 C16 1.256 . S
O20 Co0 2.062 . S
O20 C16 1.255 . S
O21 C1 1.259 . S
O21 Co2 2.021 . S
H22 C13 0.930 . S
H23 C12 0.931 . S
O24 Co0 2.117 . S
O24 C1 1.258 . S
O25 Co0 2.020 . S
O25 C27 1.256 . S
O26 Co2 2.062 . S
O26 C27 1.255 . S
C27 O25 1.256 . S
C27 O26 1.255 . S
H28 C7 0.931 . S
H29 C15 0.931 . S
Co30 N35 2.057 . S
Co30 O47 2.021 . S
Co30 O50 2.062 . S
Co30 O54 2.117 . S
Co30 O55 2.020 . S
C31 O51 1.259 . S
C31 O54 1.258 . S
Co32 N41 2.057 . S
Co32 O48 2.117 . S
Co32 O49 2.020 . S
Co32 O51 2.021 . S
Co32 O56 2.062 . S
C33 N35 1.316 . S
C33 N36 1.347 . S
C33 H38 0.931 . S
C34 N35 1.375 . S
C34 C37 1.350 . S
C34 H39 0.930 . S
N35 Co30 2.057 . S
N35 C33 1.316 . S
N35 C34 1.375 . S
N36 C33 1.347 . S
N36 C37 1.373 . S
C37 C34 1.350 . S
C37 N36 1.373 . S
C37 H58 0.931 . S
H38 C33 0.931 . S
H39 C34 0.930 . S
C40 O47 1.259 . S
C40 O48 1.258 . S
N41 Co32 2.057 . S
N41 C42 1.316 . S
N41 C43 1.375 . S
C42 N41 1.316 . S
C42 N44 1.347 . S
C42 H53 0.931 . S
C43 N41 1.375 . S
C43 C45 1.350 . S
C43 H52 0.930 . S
N44 C42 1.347 . S
N44 C45 1.373 . S
C45 C43 1.350 . S
C45 N44 1.373 . S
C45 H59 0.931 . S
C46 O49 1.256 . S
C46 O50 1.255 . S
O47 Co30 2.021 . S
O47 C40 1.259 . S
O48 Co32 2.117 . S
O48 C40 1.258 . S
O49 Co32 2.020 . S
O49 C46 1.256 . S
O50 Co30 2.062 . S
O50 C46 1.255 . S
O51 C31 1.259 . S
O51 Co32 2.021 . S
H52 C43 0.930 . S
H53 C42 0.931 . S
O54 Co30 2.117 . S
O54 C31 1.258 . S
O55 Co30 2.020 . S
O55 C57 1.256 . S
O56 Co32 2.062 . S
O56 C57 1.255 . S
C57 O55 1.256 . S
C57 O56 1.255 . S
H58 C37 0.931 . S
H59 C45 0.931 . S
Co60 N65 2.057 . S
Co60 O77 2.021 . S
Co60 O80 2.062 . S
Co60 O84 2.117 . S
Co60 O85 2.020 . S
C61 O81 1.259 . S
C61 O84 1.258 . S
Co62 N71 2.057 . S
Co62 O78 2.117 . S
Co62 O79 2.020 . S
Co62 O81 2.021 . S
Co62 O86 2.062 . S
C63 N65 1.316 . S
C63 N66 1.347 . S
C63 H68 0.931 . S
C64 N65 1.375 . S
C64 C67 1.350 . S
C64 H69 0.930 . S
N65 Co60 2.057 . S
N65 C63 1.316 . S
N65 C64 1.375 . S
N66 C63 1.347 . S
N66 C67 1.373 . S
C67 C64 1.350 . S
C67 N66 1.373 . S
C67 H88 0.931 . S
H68 C63 0.931 . S
H69 C64 0.930 . S
C70 O77 1.259 . S
C70 O78 1.258 . S
N71 Co62 2.057 . S
N71 C72 1.316 . S
N71 C73 1.375 . S
C72 N71 1.316 . S
C72 N74 1.347 . S
C72 H83 0.931 . S
C73 N71 1.375 . S
C73 C75 1.350 . S
C73 H82 0.930 . S
N74 C72 1.347 . S
N74 C75 1.373 . S
C75 C73 1.350 . S
C75 N74 1.373 . S
C75 H89 0.931 . S
C76 O79 1.256 . S
C76 O80 1.255 . S
O77 Co60 2.021 . S
O77 C70 1.259 . S
O78 Co62 2.117 . S
O78 C70 1.258 . S
O79 Co62 2.020 . S
O79 C76 1.256 . S
O80 Co60 2.062 . S
O80 C76 1.255 . S
O81 C61 1.259 . S
O81 Co62 2.021 . S
H82 C73 0.930 . S
H83 C72 0.931 . S
O84 Co60 2.117 . S
O84 C61 1.258 . S
O85 Co60 2.020 . S
O85 C87 1.256 . S
O86 Co62 2.062 . S
O86 C87 1.255 . S
C87 O85 1.256 . S
C87 O86 1.255 . S
H88 C67 0.931 . S
H89 C75 0.931 . S
Co90 N95 2.057 . S
Co90 O107 2.021 . S
Co90 O110 2.062 . S
Co90 O114 2.117 . S
Co90 O115 2.020 . S
C91 O111 1.259 . S
C91 O114 1.258 . S
Co92 N101 2.057 . S
Co92 O108 2.117 . S
Co92 O109 2.020 . S
Co92 O111 2.021 . S
Co92 O116 2.062 . S
C93 N95 1.316 . S
C93 N96 1.347 . S
C93 H98 0.931 . S
C94 N95 1.375 . S
C94 C97 1.350 . S
C94 H99 0.930 . S
N95 Co90 2.057 . S
N95 C93 1.316 . S
N95 C94 1.375 . S
N96 C93 1.347 . S
N96 C97 1.373 . S
C97 C94 1.350 . S
C97 N96 1.373 . S
C97 H118 0.931 . S
H98 C93 0.931 . S
H99 C94 0.930 . S
C100 O107 1.259 . S
C100 O108 1.258 . S
N101 Co92 2.057 . S
N101 C102 1.316 . S
N101 C103 1.375 . S
C102 N101 1.316 . S
C102 N104 1.347 . S
C102 H113 0.931 . S
C103 N101 1.375 . S
C103 C105 1.350 . S
C103 H112 0.930 . S
N104 C102 1.347 . S
N104 C105 1.373 . S
C105 C103 1.350 . S
C105 N104 1.373 . S
C105 H119 0.931 . S
C106 O109 1.256 . S
C106 O110 1.255 . S
O107 Co90 2.021 . S
O107 C100 1.259 . S
O108 Co92 2.117 . S
O108 C100 1.258 . S
O109 Co92 2.020 . S
O109 C106 1.256 . S
O110 Co90 2.062 . S
O110 C106 1.255 . S
O111 C91 1.259 . S
O111 Co92 2.021 . S
H112 C103 0.930 . S
H113 C102 0.931 . S
O114 Co90 2.117 . S
O114 C91 1.258 . S
O115 Co90 2.020 . S
O115 C117 1.256 . S
O116 Co92 2.062 . S
O116 C117 1.255 . S
C117 O115 1.256 . S
C117 O116 1.255 . S
H118 C97 0.931 . S
H119 C105 0.931 . S
Co120 N125 2.057 . S
Co120 O137 2.021 . S
Co120 O140 2.062 . S
Co120 O144 2.117 . S
Co120 O145 2.020 . S
C121 O141 1.259 . S
C121 O144 1.258 . S
Co122 N131 2.057 . S
Co122 O138 2.117 . S
Co122 O139 2.020 . S
Co122 O141 2.021 . S
Co122 O146 2.062 . S
C123 N125 1.316 . S
C123 N126 1.347 . S
C123 H128 0.931 . S
C124 N125 1.375 . S
C124 C127 1.350 . S
C124 H129 0.930 . S
N125 Co120 2.057 . S
N125 C123 1.316 . S
N125 C124 1.375 . S
N126 C123 1.347 . S
N126 C127 1.373 . S
C127 C124 1.350 . S
C127 N126 1.373 . S
C127 H148 0.931 . S
H128 C123 0.931 . S
H129 C124 0.930 . S
C130 O137 1.259 . S
C130 O138 1.258 . S
N131 Co122 2.057 . S
N131 C132 1.316 . S
N131 C133 1.375 . S
C132 N131 1.316 . S
C132 N134 1.347 . S
C132 H143 0.931 . S
C133 N131 1.375 . S
C133 C135 1.350 . S
C133 H142 0.930 . S
N134 C132 1.347 . S
N134 C135 1.373 . S
C135 C133 1.350 . S
C135 N134 1.373 . S
C135 H149 0.931 . S
C136 O139 1.256 . S
C136 O140 1.255 . S
O137 Co120 2.021 . S
O137 C130 1.259 . S
O138 Co122 2.117 . S
O138 C130 1.258 . S
O139 Co122 2.020 . S
O139 C136 1.256 . S
O140 Co120 2.062 . S
O140 C136 1.255 . S
O141 C121 1.259 . S
O141 Co122 2.021 . S
H142 C133 0.930 . S
H143 C132 0.931 . S
O144 Co120 2.117 . S
O144 C121 1.258 . S
O145 Co120 2.020 . S
O145 C147 1.256 . S
O146 Co122 2.062 . S
O146 C147 1.255 . S
C147 O145 1.256 . S
C147 O146 1.255 . S
H148 C127 0.931 . S
H149 C135 0.931 . S
Co150 N155 2.057 . S
Co150 O167 2.021 . S
Co150 O170 2.062 . S
Co150 O174 2.117 . S
Co150 O175 2.020 . S
C151 O171 1.259 . S
C151 O174 1.258 . S
Co152 N161 2.057 . S
Co152 O168 2.117 . S
Co152 O169 2.020 . S
Co152 O171 2.021 . S
Co152 O176 2.062 . S
C153 N155 1.316 . S
C153 N156 1.347 . S
C153 H158 0.931 . S
C154 N155 1.375 . S
C154 C157 1.350 . S
C154 H159 0.930 . S
N155 Co150 2.057 . S
N155 C153 1.316 . S
N155 C154 1.375 . S
N156 C153 1.347 . S
N156 C157 1.373 . S
C157 C154 1.350 . S
C157 N156 1.373 . S
C157 H178 0.931 . S
H158 C153 0.931 . S
H159 C154 0.930 . S
C160 O167 1.259 . S
C160 O168 1.258 . S
N161 Co152 2.057 . S
N161 C162 1.316 . S
N161 C163 1.375 . S
C162 N161 1.316 . S
C162 N164 1.347 . S
C162 H173 0.931 . S
C163 N161 1.375 . S
C163 C165 1.350 . S
C163 H172 0.930 . S
N164 C162 1.347 . S
N164 C165 1.373 . S
C165 C163 1.350 . S
C165 N164 1.373 . S
C165 H179 0.931 . S
C166 O169 1.256 . S
C166 O170 1.255 . S
O167 Co150 2.021 . S
O167 C160 1.259 . S
O168 Co152 2.117 . S
O168 C160 1.258 . S
O169 Co152 2.020 . S
O169 C166 1.256 . S
O170 Co150 2.062 . S
O170 C166 1.255 . S
O171 C151 1.259 . S
O171 Co152 2.021 . S
H172 C163 0.930 . S
H173 C162 0.931 . S
O174 Co150 2.117 . S
O174 C151 1.258 . S
O175 Co150 2.020 . S
O175 C177 1.256 . S
O176 Co152 2.062 . S
O176 C177 1.255 . S
C177 O175 1.256 . S
C177 O176 1.255 . S
H178 C157 0.931 . S
H179 C165 0.931 . S
Co180 N185 2.057 . S
Co180 O197 2.021 . S
Co180 O200 2.062 . S
Co180 O204 2.117 . S
Co180 O205 2.020 . S
C181 O201 1.259 . S
C181 O204 1.258 . S
Co182 N191 2.057 . S
Co182 O198 2.117 . S
Co182 O199 2.020 . S
Co182 O201 2.021 . S
Co182 O206 2.062 . S
C183 N185 1.316 . S
C183 N186 1.347 . S
C183 H188 0.931 . S
C184 N185 1.375 . S
C184 C187 1.350 . S
C184 H189 0.930 . S
N185 Co180 2.057 . S
N185 C183 1.316 . S
N185 C184 1.375 . S
N186 C183 1.347 . S
N186 C187 1.373 . S
C187 C184 1.350 . S
C187 N186 1.373 . S
C187 H208 0.931 . S
H188 C183 0.931 . S
H189 C184 0.930 . S
C190 O197 1.259 . S
C190 O198 1.258 . S
N191 Co182 2.057 . S
N191 C192 1.316 . S
N191 C193 1.375 . S
C192 N191 1.316 . S
C192 N194 1.347 . S
C192 H203 0.931 . S
C193 N191 1.375 . S
C193 C195 1.350 . S
C193 H202 0.930 . S
N194 C192 1.347 . S
N194 C195 1.373 . S
C195 C193 1.350 . S
C195 N194 1.373 . S
C195 H209 0.931 . S
C196 O199 1.256 . S
C196 O200 1.255 . S
O197 Co180 2.021 . S
O197 C190 1.259 . S
O198 Co182 2.117 . S
O198 C190 1.258 . S
O199 Co182 2.020 . S
O199 C196 1.256 . S
O200 Co180 2.062 . S
O200 C196 1.255 . S
O201 C181 1.259 . S
O201 Co182 2.021 . S
H202 C193 0.930 . S
H203 C192 0.931 . S
O204 Co180 2.117 . S
O204 C181 1.258 . S
O205 Co180 2.020 . S
O205 C207 1.256 . S
O206 Co182 2.062 . S
O206 C207 1.255 . S
C207 O205 1.256 . S
C207 O206 1.255 . S
H208 C187 0.931 . S
H209 C195 0.931 . S
Co210 N215 2.057 . S
Co210 O227 2.021 . S
Co210 O230 2.062 . S
Co210 O234 2.117 . S
Co210 O235 2.020 . S
C211 O231 1.259 . S
C211 O234 1.258 . S
Co212 N221 2.057 . S
Co212 O228 2.117 . S
Co212 O229 2.020 . S
Co212 O231 2.021 . S
Co212 O236 2.062 . S
C213 N215 1.316 . S
C213 N216 1.347 . S
C213 H218 0.931 . S
C214 N215 1.375 . S
C214 C217 1.350 . S
C214 H219 0.930 . S
N215 Co210 2.057 . S
N215 C213 1.316 . S
N215 C214 1.375 . S
N216 C213 1.347 . S
N216 C217 1.373 . S
C217 C214 1.350 . S
C217 N216 1.373 . S
C217 H238 0.931 . S
H218 C213 0.931 . S
H219 C214 0.930 . S
C220 O227 1.259 . S
C220 O228 1.258 . S
N221 Co212 2.057 . S
N221 C222 1.316 . S
N221 C223 1.375 . S
C222 N221 1.316 . S
C222 N224 1.347 . S
C222 H233 0.931 . S
C223 N221 1.375 . S
C223 C225 1.350 . S
C223 H232 0.930 . S
N224 C222 1.347 . S
N224 C225 1.373 . S
C225 C223 1.350 . S
C225 N224 1.373 . S
C225 H239 0.931 . S
C226 O229 1.256 . S
C226 O230 1.255 . S
O227 Co210 2.021 . S
O227 C220 1.259 . S
O228 Co212 2.117 . S
O228 C220 1.258 . S
O229 Co212 2.020 . S
O229 C226 1.256 . S
O230 Co210 2.062 . S
O230 C226 1.255 . S
O231 C211 1.259 . S
O231 Co212 2.021 . S
H232 C223 0.930 . S
H233 C222 0.931 . S
O234 Co210 2.117 . S
O234 C211 1.258 . S
O235 Co210 2.020 . S
O235 C237 1.256 . S
O236 Co212 2.062 . S
O236 C237 1.255 . S
C237 O235 1.256 . S
C237 O236 1.255 . S
H238 C217 0.931 . S
H239 C225 0.931 . S
Co240 N245 2.057 . S
Co240 O257 2.021 . S
Co240 O260 2.062 . S
Co240 O264 2.117 . S
Co240 O265 2.020 . S
C241 O261 1.259 . S
C241 O264 1.258 . S
Co242 N251 2.057 . S
Co242 O258 2.117 . S
Co242 O259 2.020 . S
Co242 O261 2.021 . S
Co242 O266 2.062 . S
C243 N245 1.316 . S
C243 N246 1.347 . S
C243 H248 0.931 . S
C244 N245 1.375 . S
C244 C247 1.350 . S
C244 H249 0.930 . S
N245 Co240 2.057 . S
N245 C243 1.316 . S
N245 C244 1.375 . S
N246 C243 1.347 . S
N246 C247 1.373 . S
C247 C244 1.350 . S
C247 N246 1.373 . S
C247 H268 0.931 . S
H248 C243 0.931 . S
H249 C244 0.930 . S
C250 O257 1.259 . S
C250 O258 1.258 . S
N251 Co242 2.057 . S
N251 C252 1.316 . S
N251 C253 1.375 . S
C252 N251 1.316 . S
C252 N254 1.347 . S
C252 H263 0.931 . S
C253 N251 1.375 . S
C253 C255 1.350 . S
C253 H262 0.930 . S
N254 C252 1.347 . S
N254 C255 1.373 . S
C255 C253 1.350 . S
C255 N254 1.373 . S
C255 H269 0.931 . S
C256 O259 1.256 . S
C256 O260 1.255 . S
O257 Co240 2.021 . S
O257 C250 1.259 . S
O258 Co242 2.117 . S
O258 C250 1.258 . S
O259 Co242 2.020 . S
O259 C256 1.256 . S
O260 Co240 2.062 . S
O260 C256 1.255 . S
O261 C241 1.259 . S
O261 Co242 2.021 . S
H262 C253 0.930 . S
H263 C252 0.931 . S
O264 Co240 2.117 . S
O264 C241 1.258 . S
O265 Co240 2.020 . S
O265 C267 1.256 . S
O266 Co242 2.062 . S
O266 C267 1.255 . S
C267 O265 1.256 . S
C267 O266 1.255 . S
H268 C247 0.931 . S
H269 C255 0.931 . S
Co270 N275 2.057 . S
Co270 O287 2.021 . S
Co270 O290 2.062 . S
Co270 O294 2.117 1_565 S
Co270 O295 2.020 . S
C271 O291 1.259 . S
C271 O294 1.258 . S
Co272 N281 2.057 . S
Co272 O288 2.117 . S
Co272 O289 2.020 . S
Co272 O291 2.021 . S
Co272 O296 2.062 . S
C273 N275 1.316 . S
C273 N276 1.347 . S
C273 H278 0.931 . S
C274 N275 1.375 . S
C274 C277 1.350 . S
C274 H279 0.930 . S
N275 Co270 2.057 . S
N275 C273 1.316 . S
N275 C274 1.375 . S
N276 C273 1.347 . S
N276 C277 1.373 . S
C277 C274 1.350 . S
C277 N276 1.373 . S
C277 H298 0.931 . S
H278 C273 0.931 . S
H279 C274 0.930 . S
C280 O287 1.259 . S
C280 O288 1.258 1_565 S
N281 Co272 2.057 . S
N281 C282 1.316 . S
N281 C283 1.375 . S
C282 N281 1.316 . S
C282 N284 1.347 . S
C282 H293 0.931 . S
C283 N281 1.375 . S
C283 C285 1.350 . S
C283 H292 0.930 . S
N284 C282 1.347 . S
N284 C285 1.373 . S
C285 C283 1.350 . S
C285 N284 1.373 . S
C285 H299 0.931 . S
C286 O289 1.256 . S
C286 O290 1.255 1_545 S
O287 Co270 2.021 . S
O287 C280 1.259 . S
O288 Co272 2.117 . S
O288 C280 1.258 1_545 S
O289 Co272 2.020 . S
O289 C286 1.256 . S
O290 Co270 2.062 . S
O290 C286 1.255 1_565 S
O291 C271 1.259 . S
O291 Co272 2.021 . S
H292 C283 0.930 . S
H293 C282 0.931 . S
O294 Co270 2.117 1_545 S
O294 C271 1.258 . S
O295 Co270 2.020 . S
O295 C297 1.256 1_565 S
O296 Co272 2.062 . S
O296 C297 1.255 . S
C297 O295 1.256 1_545 S
C297 O296 1.255 . S
H298 C277 0.931 . S
H299 C285 0.931 . S
Co300 N305 2.057 . S
Co300 O317 2.021 . S
Co300 O320 2.062 . S
Co300 O324 2.117 . S
Co300 O325 2.020 . S
C301 O321 1.259 . S
C301 O324 1.258 . S
Co302 N311 2.057 . S
Co302 O318 2.117 . S
Co302 O319 2.020 . S
Co302 O321 2.021 . S
Co302 O326 2.062 . S
C303 N305 1.316 . S
C303 N306 1.347 . S
C303 H308 0.931 . S
C304 N305 1.375 . S
C304 C307 1.350 . S
C304 H309 0.930 . S
N305 Co300 2.057 . S
N305 C303 1.316 . S
N305 C304 1.375 . S
N306 C303 1.347 . S
N306 C307 1.373 . S
C307 C304 1.350 . S
C307 N306 1.373 . S
C307 H328 0.931 . S
H308 C303 0.931 . S
H309 C304 0.930 . S
C310 O317 1.259 . S
C310 O318 1.258 . S
N311 Co302 2.057 . S
N311 C312 1.316 . S
N311 C313 1.375 . S
C312 N311 1.316 . S
C312 N314 1.347 . S
C312 H323 0.931 . S
C313 N311 1.375 . S
C313 C315 1.350 . S
C313 H322 0.930 . S
N314 C312 1.347 . S
N314 C315 1.373 . S
C315 C313 1.350 . S
C315 N314 1.373 . S
C315 H329 0.931 . S
C316 O319 1.256 . S
C316 O320 1.255 . S
O317 Co300 2.021 . S
O317 C310 1.259 . S
O318 Co302 2.117 . S
O318 C310 1.258 . S
O319 Co302 2.020 . S
O319 C316 1.256 . S
O320 Co300 2.062 . S
O320 C316 1.255 . S
O321 C301 1.259 . S
O321 Co302 2.021 . S
H322 C313 0.930 . S
H323 C312 0.931 . S
O324 Co300 2.117 . S
O324 C301 1.258 . S
O325 Co300 2.020 . S
O325 C327 1.256 . S
O326 Co302 2.062 . S
O326 C327 1.255 . S
C327 O325 1.256 . S
C327 O326 1.255 . S
H328 C307 0.931 . S
H329 C315 0.931 . S
Co330 N335 2.057 . S
Co330 O347 2.021 . S
Co330 O350 2.062 . S
Co330 O354 2.117 1_545 S
Co330 O355 2.020 . S
C331 O351 1.259 . S
C331 O354 1.258 . S
Co332 N341 2.057 . S
Co332 O348 2.117 . S
Co332 O349 2.020 . S
Co332 O351 2.021 . S
Co332 O356 2.062 . S
C333 N335 1.316 . S
C333 N336 1.347 . S
C333 H338 0.931 . S
C334 N335 1.375 . S
C334 C337 1.350 . S
C334 H339 0.930 . S
N335 Co330 2.057 . S
N335 C333 1.316 . S
N335 C334 1.375 . S
N336 C333 1.347 . S
N336 C337 1.373 . S
C337 C334 1.350 . S
C337 N336 1.373 . S
C337 H358 0.931 . S
H338 C333 0.931 . S
H339 C334 0.930 . S
C340 O347 1.259 . S
C340 O348 1.258 1_545 S
N341 Co332 2.057 . S
N341 C342 1.316 . S
N341 C343 1.375 . S
C342 N341 1.316 . S
C342 N344 1.347 . S
C342 H353 0.931 . S
C343 N341 1.375 . S
C343 C345 1.350 . S
C343 H352 0.930 . S
N344 C342 1.347 . S
N344 C345 1.373 . S
C345 C343 1.350 . S
C345 N344 1.373 . S
C345 H359 0.931 . S
C346 O349 1.256 . S
C346 O350 1.255 1_565 S
O347 Co330 2.021 . S
O347 C340 1.259 . S
O348 Co332 2.117 . S
O348 C340 1.258 1_565 S
O349 Co332 2.020 . S
O349 C346 1.256 . S
O350 Co330 2.062 . S
O350 C346 1.255 1_545 S
O351 C331 1.259 . S
O351 Co332 2.021 . S
H352 C343 0.930 . S
H353 C342 0.931 . S
O354 Co330 2.117 1_565 S
O354 C331 1.258 . S
O355 Co330 2.020 . S
O355 C357 1.256 1_545 S
O356 Co332 2.062 . S
O356 C357 1.255 . S
C357 O355 1.256 1_565 S
C357 O356 1.255 . S
H358 C337 0.931 . S
H359 C345 0.931 . S
Co360 N365 2.057 . S
Co360 O377 2.021 . S
Co360 O380 2.062 . S
Co360 O384 2.117 . S
Co360 O385 2.020 . S
C361 O381 1.259 . S
C361 O384 1.258 . S
Co362 N371 2.057 . S
Co362 O378 2.117 . S
Co362 O379 2.020 . S
Co362 O381 2.021 . S
Co362 O386 2.062 . S
C363 N365 1.316 . S
C363 N366 1.347 . S
C363 H368 0.931 . S
C364 N365 1.375 . S
C364 C367 1.350 . S
C364 H369 0.930 . S
N365 Co360 2.057 . S
N365 C363 1.316 . S
N365 C364 1.375 . S
N366 C363 1.347 . S
N366 C367 1.373 . S
C367 C364 1.350 . S
C367 N366 1.373 . S
C367 H388 0.931 . S
H368 C363 0.931 . S
H369 C364 0.930 . S
C370 O377 1.259 . S
C370 O378 1.258 . S
N371 Co362 2.057 . S
N371 C372 1.316 . S
N371 C373 1.375 . S
C372 N371 1.316 . S
C372 N374 1.347 . S
C372 H383 0.931 . S
C373 N371 1.375 . S
C373 C375 1.350 . S
C373 H382 0.930 . S
N374 C372 1.347 . S
N374 C375 1.373 . S
C375 C373 1.350 . S
C375 N374 1.373 . S
C375 H389 0.931 . S
C376 O379 1.256 . S
C376 O380 1.255 . S
O377 Co360 2.021 . S
O377 C370 1.259 . S
O378 Co362 2.117 . S
O378 C370 1.258 . S
O379 Co362 2.020 . S
O379 C376 1.256 . S
O380 Co360 2.062 . S
O380 C376 1.255 . S
O381 C361 1.259 . S
O381 Co362 2.021 . S
H382 C373 0.930 . S
H383 C372 0.931 . S
O384 Co360 2.117 . S
O384 C361 1.258 . S
O385 Co360 2.020 . S
O385 C387 1.256 . S
O386 Co362 2.062 . S
O386 C387 1.255 . S
C387 O385 1.256 . S
C387 O386 1.255 . S
H388 C367 0.931 . S
H389 C375 0.931 . S
Co390 N395 2.057 . S
Co390 O407 2.021 . S
Co390 O410 2.062 . S
Co390 O414 2.117 . S
Co390 O415 2.020 . S
C391 O411 1.259 . S
C391 O414 1.258 1_545 S
Co392 N401 2.057 . S
Co392 O408 2.117 1_545 S
Co392 O409 2.020 . S
Co392 O411 2.021 . S
Co392 O416 2.062 . S
C393 N395 1.316 . S
C393 N396 1.347 . S
C393 H398 0.931 . S
C394 N395 1.375 . S
C394 C397 1.350 . S
C394 H399 0.930 . S
N395 Co390 2.057 . S
N395 C393 1.316 . S
N395 C394 1.375 . S
N396 C393 1.347 . S
N396 C397 1.373 . S
C397 C394 1.350 . S
C397 N396 1.373 . S
C397 H418 0.931 . S
H398 C393 0.931 . S
H399 C394 0.930 . S
C400 O407 1.259 . S
C400 O408 1.258 . S
N401 Co392 2.057 . S
N401 C402 1.316 . S
N401 C403 1.375 . S
C402 N401 1.316 . S
C402 N404 1.347 . S
C402 H413 0.931 . S
C403 N401 1.375 . S
C403 C405 1.350 . S
C403 H412 0.930 . S
N404 C402 1.347 . S
N404 C405 1.373 . S
C405 C403 1.350 . S
C405 N404 1.373 . S
C405 H419 0.931 . S
C406 O409 1.256 1_565 S
C406 O410 1.255 . S
O407 Co390 2.021 . S
O407 C400 1.259 . S
O408 Co392 2.117 1_565 S
O408 C400 1.258 . S
O409 Co392 2.020 . S
O409 C406 1.256 1_545 S
O410 Co390 2.062 . S
O410 C406 1.255 . S
O411 C391 1.259 . S
O411 Co392 2.021 . S
H412 C403 0.930 . S
H413 C402 0.931 . S
O414 Co390 2.117 . S
O414 C391 1.258 1_565 S
O415 Co390 2.020 . S
O415 C417 1.256 . S
O416 Co392 2.062 . S
O416 C417 1.255 1_545 S
C417 O415 1.256 . S
C417 O416 1.255 1_565 S
H418 C397 0.931 . S
H419 C405 0.931 . S
Co420 N425 2.057 . S
Co420 O437 2.021 . S
Co420 O440 2.062 . S
Co420 O444 2.117 . S
Co420 O445 2.020 . S
C421 O441 1.259 . S
C421 O444 1.258 . S
Co422 N431 2.057 . S
Co422 O438 2.117 . S
Co422 O439 2.020 . S
Co422 O441 2.021 . S
Co422 O446 2.062 . S
C423 N425 1.316 . S
C423 N426 1.347 . S
C423 H428 0.931 . S
C424 N425 1.375 . S
C424 C427 1.350 . S
C424 H429 0.930 . S
N425 Co420 2.057 . S
N425 C423 1.316 . S
N425 C424 1.375 . S
N426 C423 1.347 . S
N426 C427 1.373 . S
C427 C424 1.350 . S
C427 N426 1.373 . S
C427 H448 0.931 . S
H428 C423 0.931 . S
H429 C424 0.930 . S
C430 O437 1.259 . S
C430 O438 1.258 . S
N431 Co422 2.057 . S
N431 C432 1.316 . S
N431 C433 1.375 . S
C432 N431 1.316 . S
C432 N434 1.347 . S
C432 H443 0.931 . S
C433 N431 1.375 . S
C433 C435 1.350 . S
C433 H442 0.930 . S
N434 C432 1.347 . S
N434 C435 1.373 . S
C435 C433 1.350 . S
C435 N434 1.373 . S
C435 H449 0.931 . S
C436 O439 1.256 . S
C436 O440 1.255 . S
O437 Co420 2.021 . S
O437 C430 1.259 . S
O438 Co422 2.117 . S
O438 C430 1.258 . S
O439 Co422 2.020 . S
O439 C436 1.256 . S
O440 Co420 2.062 . S
O440 C436 1.255 . S
O441 C421 1.259 . S
O441 Co422 2.021 . S
H442 C433 0.930 . S
H443 C432 0.931 . S
O444 Co420 2.117 . S
O444 C421 1.258 . S
O445 Co420 2.020 . S
O445 C447 1.256 . S
O446 Co422 2.062 . S
O446 C447 1.255 . S
C447 O445 1.256 . S
C447 O446 1.255 . S
H448 C427 0.931 . S
H449 C435 0.931 . S
Co450 N455 2.057 . S
Co450 O467 2.021 . S
Co450 O470 2.062 . S
Co450 O474 2.117 . S
Co450 O475 2.020 . S
C451 O471 1.259 . S
C451 O474 1.258 1_565 S
Co452 N461 2.057 . S
Co452 O468 2.117 1_565 S
Co452 O469 2.020 . S
Co452 O471 2.021 . S
Co452 O476 2.062 . S
C453 N455 1.316 . S
C453 N456 1.347 . S
C453 H458 0.931 . S
C454 N455 1.375 . S
C454 C457 1.350 . S
C454 H459 0.930 . S
N455 Co450 2.057 . S
N455 C453 1.316 . S
N455 C454 1.375 . S
N456 C453 1.347 . S
N456 C457 1.373 . S
C457 C454 1.350 . S
C457 N456 1.373 . S
C457 H478 0.931 . S
H458 C453 0.931 . S
H459 C454 0.930 . S
C460 O467 1.259 . S
C460 O468 1.258 . S
N461 Co452 2.057 . S
N461 C462 1.316 . S
N461 C463 1.375 . S
C462 N461 1.316 . S
C462 N464 1.347 . S
C462 H473 0.931 . S
C463 N461 1.375 . S
C463 C465 1.350 . S
C463 H472 0.930 . S
N464 C462 1.347 . S
N464 C465 1.373 . S
C465 C463 1.350 . S
C465 N464 1.373 . S
C465 H479 0.931 . S
C466 O469 1.256 1_545 S
C466 O470 1.255 . S
O467 Co450 2.021 . S
O467 C460 1.259 . S
O468 Co452 2.117 1_545 S
O468 C460 1.258 . S
O469 Co452 2.020 . S
O469 C466 1.256 1_565 S
O470 Co450 2.062 . S
O470 C466 1.255 . S
O471 C451 1.259 . S
O471 Co452 2.021 . S
H472 C463 0.930 . S
H473 C462 0.931 . S
O474 Co450 2.117 . S
O474 C451 1.258 1_545 S
O475 Co450 2.020 . S
O475 C477 1.256 . S
O476 Co452 2.062 . S
O476 C477 1.255 1_565 S
C477 O475 1.256 . S
C477 O476 1.255 1_545 S
H478 C457 0.931 . S
H479 C465 0.931 . S
C480 C481 1.391 . S
C480 C482 1.394 . S
C480 H496 0.931 . S
C481 C480 1.391 . S
C481 C485 1.376 . S
C482 C480 1.394 . S
C482 C483 1.369 . S
C482 C486 1.531 . S
C483 C482 1.369 . S
C483 C484 1.410 . S
C483 C491 1.503 . S
C484 C483 1.410 . S
C484 C485 1.392 . S
C484 C487 1.511 . S
C485 C481 1.376 . S
C485 C484 1.392 . S
C485 H497 0.929 . S
C486 C482 1.531 . S
C486 H498 0.960 . S
C486 H499 0.962 . S
C486 H500 0.960 . S
C487 C484 1.511 . S
C487 H501 0.961 . S
C487 H502 0.961 . S
C487 H503 0.961 . S
C488 C489 1.370 . S
C488 C490 1.363 . S
C488 H504 0.931 . S
C489 C488 1.370 . S
C489 C493 1.408 . S
C490 C488 1.363 . S
C490 C491 1.370 . S
C490 C494 1.524 . S
C491 C483 1.503 . S
C491 C490 1.370 . S
C491 C492 1.403 . S
C492 C491 1.403 . S
C492 C493 1.404 . S
C492 C495 1.539 . S
C493 C489 1.408 . S
C493 C492 1.404 . S
C493 H505 0.930 . S
C494 C490 1.524 . S
C494 H506 0.956 . S
C494 H507 0.961 . S
C494 H508 0.961 . S
C495 C492 1.539 . S
C495 H509 0.958 . S
C495 H510 0.961 . S
C495 H511 0.960 . S
H496 C480 0.931 . S
H497 C485 0.929 . S
H498 C486 0.960 . S
H499 C486 0.962 . S
H500 C486 0.960 . S
H501 C487 0.961 . S
H502 C487 0.961 . S
H503 C487 0.961 . S
H504 C488 0.931 . S
H505 C493 0.930 . S
H506 C494 0.956 . S
H507 C494 0.961 . S
H508 C494 0.961 . S
H509 C495 0.958 . S
H510 C495 0.961 . S
H511 C495 0.960 . S
C512 C513 1.391 . S
C512 C514 1.394 . S
C512 H528 0.931 . S
C513 C512 1.391 . S
C513 C517 1.376 . S
C514 C512 1.394 . S
C514 C515 1.369 . S
C514 C518 1.531 . S
C515 C514 1.369 . S
C515 C516 1.410 . S
C515 C523 1.503 . S
C516 C515 1.410 . S
C516 C517 1.392 . S
C516 C519 1.511 . S
C517 C513 1.376 . S
C517 C516 1.392 . S
C517 H529 0.929 . S
C518 C514 1.531 . S
C518 H530 0.960 . S
C518 H531 0.962 . S
C518 H532 0.960 . S
C519 C516 1.511 . S
C519 H533 0.961 . S
C519 H534 0.961 . S
C519 H535 0.961 . S
C520 C521 1.370 . S
C520 C522 1.363 . S
C520 H536 0.931 . S
C521 C520 1.370 . S
C521 C525 1.408 . S
C522 C520 1.363 . S
C522 C523 1.370 . S
C522 C526 1.524 . S
C523 C515 1.503 . S
C523 C522 1.370 . S
C523 C524 1.403 . S
C524 C523 1.403 . S
C524 C525 1.404 . S
C524 C527 1.539 . S
C525 C521 1.408 . S
C525 C524 1.404 . S
C525 H537 0.930 . S
C526 C522 1.524 . S
C526 H538 0.956 . S
C526 H539 0.961 . S
C526 H540 0.961 . S
C527 C524 1.539 . S
C527 H541 0.958 . S
C527 H542 0.961 . S
C527 H543 0.960 . S
H528 C512 0.931 . S
H529 C517 0.929 . S
H530 C518 0.960 . S
H531 C518 0.962 . S
H532 C518 0.960 . S
H533 C519 0.961 . S
H534 C519 0.961 . S
H535 C519 0.961 . S
H536 C520 0.931 . S
H537 C525 0.930 . S
H538 C526 0.956 . S
H539 C526 0.961 . S
H540 C526 0.961 . S
H541 C527 0.958 . S
H542 C527 0.961 . S
H543 C527 0.960 . S
C544 C545 1.391 . S
C544 C546 1.394 . S
C544 H560 0.931 . S
C545 C544 1.391 . S
C545 C549 1.376 . S
C546 C544 1.394 . S
C546 C547 1.369 . S
C546 C550 1.531 . S
C547 C546 1.369 . S
C547 C548 1.410 . S
C547 C555 1.503 . S
C548 C547 1.410 . S
C548 C549 1.392 . S
C548 C551 1.511 . S
C549 C545 1.376 . S
C549 C548 1.392 . S
C549 H561 0.929 . S
C550 C546 1.531 . S
C550 H562 0.960 . S
C550 H563 0.962 . S
C550 H564 0.960 . S
C551 C548 1.511 . S
C551 H565 0.961 . S
C551 H566 0.961 . S
C551 H567 0.961 . S
C552 C553 1.370 . S
C552 C554 1.363 . S
C552 H568 0.931 . S
C553 C552 1.370 . S
C553 C557 1.408 . S
C554 C552 1.363 . S
C554 C555 1.370 . S
C554 C558 1.524 . S
C555 C547 1.503 . S
C555 C554 1.370 . S
C555 C556 1.403 . S
C556 C555 1.403 . S
C556 C557 1.404 . S
C556 C559 1.539 . S
C557 C553 1.408 . S
C557 C556 1.404 . S
C557 H569 0.930 . S
C558 C554 1.524 . S
C558 H570 0.956 . S
C558 H571 0.961 . S
C558 H572 0.961 . S
C559 C556 1.539 . S
C559 H573 0.958 . S
C559 H574 0.961 . S
C559 H575 0.960 . S
H560 C544 0.931 . S
H561 C549 0.929 . S
H562 C550 0.960 . S
H563 C550 0.962 . S
H564 C550 0.960 . S
H565 C551 0.961 . S
H566 C551 0.961 . S
H567 C551 0.961 . S
H568 C552 0.931 . S
H569 C557 0.930 . S
H570 C558 0.956 . S
H571 C558 0.961 . S
H572 C558 0.961 . S
H573 C559 0.958 . S
H574 C559 0.961 . S
H575 C559 0.960 . S
C576 C577 1.391 . S
C576 C578 1.394 . S
C576 H592 0.931 . S
C577 C576 1.391 . S
C577 C581 1.376 . S
C578 C576 1.394 . S
C578 C579 1.369 . S
C578 C582 1.531 1_556 S
C579 C578 1.369 . S
C579 C580 1.410 . S
C579 C587 1.503 1_656 S
C580 C579 1.410 . S
C580 C581 1.392 . S
C580 C583 1.511 1_655 S
C581 C577 1.376 . S
C581 C580 1.392 . S
C581 H593 0.929 . S
C582 C578 1.531 1_554 S
C582 H594 0.960 . S
C582 H595 0.962 . S
C582 H596 0.960 . S
C583 C580 1.511 1_455 S
C583 H597 0.961 . S
C583 H598 0.961 . S
C583 H599 0.961 . S
C584 C585 1.370 . S
C584 C586 1.363 . S
C584 H600 0.931 . S
C585 C584 1.370 . S
C585 C589 1.408 . S
C586 C584 1.363 . S
C586 C587 1.370 . S
C586 C590 1.524 1_455 S
C587 C579 1.503 1_454 S
C587 C586 1.370 . S
C587 C588 1.403 . S
C588 C587 1.403 . S
C588 C589 1.404 . S
C588 C591 1.539 1_554 S
C589 C585 1.408 . S
C589 C588 1.404 . S
C589 H601 0.930 . S
C590 C586 1.524 1_655 S
C590 H602 0.956 . S
C590 H603 0.961 . S
C590 H604 0.961 . S
C591 C588 1.539 1_556 S
C591 H605 0.958 . S
C591 H606 0.961 . S
C591 H607 0.960 . S
H592 C576 0.931 . S
H593 C581 0.929 . S
H594 C582 0.960 . S
H595 C582 0.962 . S
H596 C582 0.960 . S
H597 C583 0.961 . S
H598 C583 0.961 . S
H599 C583 0.961 . S
H600 C584 0.931 . S
H601 C589 0.930 . S
H602 C590 0.956 . S
H603 C590 0.961 . S
H604 C590 0.961 . S
H605 C591 0.958 . S
H606 C591 0.961 . S
H607 C591 0.960 . S
C608 C609 1.391 . S
C608 C610 1.394 . S
C608 H624 0.931 . S
C609 C608 1.391 . S
C609 C613 1.376 . S
C610 C608 1.394 . S
C610 C611 1.369 . S
C610 C614 1.531 . S
C611 C610 1.369 . S
C611 C612 1.410 . S
C611 C619 1.503 . S
C612 C611 1.410 . S
C612 C613 1.392 . S
C612 C615 1.511 . S
C613 C609 1.376 . S
C613 C612 1.392 . S
C613 H625 0.929 . S
C614 C610 1.531 . S
C614 H626 0.960 . S
C614 H627 0.962 . S
C614 H628 0.960 . S
C615 C612 1.511 . S
C615 H629 0.961 . S
C615 H630 0.961 . S
C615 H631 0.961 . S
C616 C617 1.370 . S
C616 C618 1.363 . S
C616 H632 0.931 . S
C617 C616 1.370 . S
C617 C621 1.408 . S
C618 C616 1.363 . S
C618 C619 1.370 . S
C618 C622 1.524 . S
C619 C611 1.503 . S
C619 C618 1.370 . S
C619 C620 1.403 . S
C620 C619 1.403 . S
C620 C621 1.404 . S
C620 C623 1.539 . S
C621 C617 1.408 . S
C621 C620 1.404 . S
C621 H633 0.930 . S
C622 C618 1.524 . S
C622 H634 0.956 . S
C622 H635 0.961 . S
C622 H636 0.961 . S
C623 C620 1.539 . S
C623 H637 0.958 . S
C623 H638 0.961 . S
C623 H639 0.960 . S
H624 C608 0.931 . S
H625 C613 0.929 . S
H626 C614 0.960 . S
H627 C614 0.962 . S
H628 C614 0.960 . S
H629 C615 0.961 . S
H630 C615 0.961 . S
H631 C615 0.961 . S
H632 C616 0.931 . S
H633 C621 0.930 . S
H634 C622 0.956 . S
H635 C622 0.961 . S
H636 C622 0.961 . S
H637 C623 0.958 . S
H638 C623 0.961 . S
H639 C623 0.960 . S
C640 C641 1.391 . S
C640 C642 1.394 . S
C640 H656 0.931 . S
C641 C640 1.391 . S
C641 C645 1.376 . S
C642 C640 1.394 . S
C642 C643 1.369 . S
C642 C646 1.531 . S
C643 C642 1.369 . S
C643 C644 1.410 . S
C643 C651 1.503 . S
C644 C643 1.410 . S
C644 C645 1.392 . S
C644 C647 1.511 . S
C645 C641 1.376 . S
C645 C644 1.392 . S
C645 H657 0.929 . S
C646 C642 1.531 . S
C646 H658 0.960 . S
C646 H659 0.962 . S
C646 H660 0.960 . S
C647 C644 1.511 . S
C647 H661 0.961 . S
C647 H662 0.961 . S
C647 H663 0.961 . S
C648 C649 1.370 . S
C648 C650 1.363 . S
C648 H664 0.931 . S
C649 C648 1.370 . S
C649 C653 1.408 . S
C650 C648 1.363 . S
C650 C651 1.370 . S
C650 C654 1.524 . S
C651 C643 1.503 . S
C651 C650 1.370 . S
C651 C652 1.403 . S
C652 C651 1.403 . S
C652 C653 1.404 . S
C652 C655 1.539 . S
C653 C649 1.408 . S
C653 C652 1.404 . S
C653 H665 0.930 . S
C654 C650 1.524 . S
C654 H666 0.956 . S
C654 H667 0.961 . S
C654 H668 0.961 . S
C655 C652 1.539 . S
C655 H669 0.958 . S
C655 H670 0.961 . S
C655 H671 0.960 . S
H656 C640 0.931 . S
H657 C645 0.929 . S
H658 C646 0.960 . S
H659 C646 0.962 . S
H660 C646 0.960 . S
H661 C647 0.961 . S
H662 C647 0.961 . S
H663 C647 0.961 . S
H664 C648 0.931 . S
H665 C653 0.930 . S
H666 C654 0.956 . S
H667 C654 0.961 . S
H668 C654 0.961 . S
H669 C655 0.958 . S
H670 C655 0.961 . S
H671 C655 0.960 . S
C672 C673 1.391 . S
C672 C674 1.394 . S
C672 H688 0.931 . S
C673 C672 1.391 . S
C673 C677 1.376 . S
C674 C672 1.394 . S
C674 C675 1.369 . S
C674 C678 1.531 1_655 S
C675 C674 1.369 . S
C675 C676 1.410 1_554 S
C675 C683 1.503 1_664 S
C676 C675 1.410 1_556 S
C676 C677 1.392 1_556 S
C676 C679 1.511 . S
C677 C673 1.376 . S
C677 C676 1.392 1_554 S
C677 H689 0.929 . S
C678 C674 1.531 1_455 S
C678 H690 0.960 . S
C678 H691 0.962 1_565 S
C678 H692 0.960 . S
C679 C676 1.511 . S
C679 H693 0.961 . S
C679 H694 0.961 1_565 S
C679 H695 0.961 . S
C680 C681 1.370 . S
C680 C682 1.363 . S
C680 H696 0.931 . S
C681 C680 1.370 . S
C681 C685 1.408 1_545 S
C682 C680 1.363 . S
C682 C683 1.370 . S
C682 C686 1.524 1_456 S
C683 C675 1.503 1_446 S
C683 C682 1.370 . S
C683 C684 1.403 1_545 S
C684 C683 1.403 1_565 S
C684 C685 1.404 . S
C684 C687 1.539 . S
C685 C681 1.408 1_565 S
C685 C684 1.404 . S
C685 H697 0.930 . S
C686 C682 1.524 1_654 S
C686 H698 0.956 1_655 S
C686 H699 0.961 1_554 S
C686 H700 0.957 1_654 S
C687 C684 1.539 . S
C687 H701 0.958 . S
C687 H702 0.961 . S
C687 H703 0.960 . S
H688 C672 0.931 . S
H689 C677 0.929 . S
H690 C678 0.960 . S
H691 C678 0.962 1_545 S
H692 C678 0.960 . S
H693 C679 0.961 . S
H694 C679 0.961 1_545 S
H695 C679 0.961 . S
H696 C680 0.931 . S
H697 C685 0.930 . S
H698 C686 0.956 1_455 S
H699 C686 0.961 1_556 S
H700 C686 0.957 1_456 S
H701 C687 0.958 . S
H702 C687 0.961 . S
H703 C687 0.960 . S
C704 C705 1.391 . S
C704 C706 1.394 1_565 S
C704 H720 0.931 1_565 S
C705 C704 1.391 . S
C705 C709 1.376 . S
C706 C704 1.394 1_545 S
C706 C707 1.369 1_545 S
C706 C710 1.531 . S
C707 C706 1.369 1_565 S
C707 C708 1.410 . S
C707 C715 1.503 1_565 S
C708 C707 1.410 . S
C708 C709 1.392 . S
C708 C711 1.511 . S
C709 C705 1.376 . S
C709 C708 1.392 . S
C709 H721 0.929 . S
C710 C706 1.531 . S
C710 H722 0.960 . S
C710 H723 0.962 . S
C710 H724 0.960 . S
C711 C708 1.511 . S
C711 H725 0.961 . S
C711 H726 0.961 . S
C711 H727 0.961 . S
C712 C713 1.370 . S
C712 C714 1.363 . S
C712 H728 0.931 . S
C713 C712 1.370 . S
C713 C717 1.408 1_545 S
C714 C712 1.363 . S
C714 C715 1.370 . S
C714 C718 1.524 . S
C715 C707 1.503 1_545 S
C715 C714 1.370 . S
C715 C716 1.403 1_545 S
C716 C715 1.403 1_565 S
C716 C717 1.404 . S
C716 C719 1.539 . S
C717 C713 1.408 1_565 S
C717 C716 1.404 . S
C717 H729 0.930 . S
C718 C714 1.524 . S
C718 H730 0.956 . S
C718 H731 0.961 . S
C718 H732 0.961 . S
C719 C716 1.539 . S
C719 H733 0.958 . S
C719 H734 0.961 . S
C719 H735 0.960 . S
H720 C704 0.931 1_545 S
H721 C709 0.929 . S
H722 C710 0.960 . S
H723 C710 0.962 . S
H724 C710 0.960 . S
H725 C711 0.961 . S
H726 C711 0.961 . S
H727 C711 0.961 . S
H728 C712 0.931 . S
H729 C717 0.930 . S
H730 C718 0.956 . S
H731 C718 0.961 . S
H732 C718 0.961 . S
H733 C719 0.958 . S
H734 C719 0.961 . S
H735 C719 0.960 . S
C736 C737 1.391 . S
C736 C738 1.394 . S
C736 H752 0.931 . S
C737 C736 1.391 . S
C737 C741 1.376 . S
C738 C736 1.394 . S
C738 C739 1.369 . S
C738 C742 1.531 1_556 S
C739 C738 1.369 . S
C739 C740 1.410 . S
C739 C747 1.503 1_556 S
C740 C739 1.410 . S
C740 C741 1.392 . S
C740 C743 1.511 . S
C741 C737 1.376 . S
C741 C740 1.392 . S
C741 H753 0.929 . S
C742 C738 1.531 1_554 S
C742 H754 0.960 . S
C742 H755 0.962 . S
C742 H756 0.960 . S
C743 C740 1.511 . S
C743 H757 0.961 . S
C743 H758 0.961 . S
C743 H759 0.961 . S
C744 C745 1.370 . S
C744 C746 1.363 . S
C744 H760 0.931 . S
C745 C744 1.370 . S
C745 C749 1.408 . S
C746 C744 1.363 . S
C746 C747 1.370 . S
C746 C750 1.524 . S
C747 C739 1.503 1_554 S
C747 C746 1.370 . S
C747 C748 1.403 . S
C748 C747 1.403 . S
C748 C749 1.404 . S
C748 C751 1.539 . S
C749 C745 1.408 . S
C749 C748 1.404 . S
C749 H761 0.930 . S
C750 C746 1.524 . S
C750 H762 0.956 . S
C750 H763 0.961 1_554 S
C750 H764 0.961 . S
C751 C748 1.539 . S
C751 H765 0.958 . S
C751 H766 0.961 . S
C751 H767 0.960 1_554 S
H752 C736 0.931 . S
H753 C741 0.929 . S
H754 C742 0.960 . S
H755 C742 0.962 . S
H756 C742 0.960 . S
H757 C743 0.961 . S
H758 C743 0.961 . S
H759 C743 0.961 . S
H760 C744 0.931 . S
H761 C749 0.930 . S
H762 C750 0.956 . S
H763 C750 0.961 1_556 S
H764 C750 0.961 . S
H765 C751 0.958 . S
H766 C751 0.961 . S
H767 C751 0.960 1_556 S
C768 C769 1.391 . S
C768 C770 1.394 . S
C768 H784 0.931 . S
C769 C768 1.391 . S
C769 C773 1.376 . S
C770 C768 1.394 . S
C770 C771 1.369 . S
C770 C774 1.531 . S
C771 C770 1.369 . S
C771 C772 1.410 . S
C771 C779 1.503 . S
C772 C771 1.410 . S
C772 C773 1.392 . S
C772 C775 1.511 . S
C773 C769 1.376 . S
C773 C772 1.392 . S
C773 H785 0.929 . S
C774 C770 1.531 . S
C774 H786 0.960 . S
C774 H787 0.962 . S
C774 H788 0.960 . S
C775 C772 1.511 . S
C775 H789 0.961 . S
C775 H790 0.961 . S
C775 H791 0.961 . S
C776 C777 1.370 . S
C776 C778 1.363 . S
C776 H792 0.931 . S
C777 C776 1.370 . S
C777 C781 1.408 . S
C778 C776 1.363 . S
C778 C779 1.370 . S
C778 C782 1.524 . S
C779 C771 1.503 . S
C779 C778 1.370 . S
C779 C780 1.403 . S
C780 C779 1.403 . S
C780 C781 1.404 . S
C780 C783 1.539 . S
C781 C777 1.408 . S
C781 C780 1.404 . S
C781 H793 0.930 . S
C782 C778 1.524 . S
C782 H794 0.956 . S
C782 H795 0.961 . S
C782 H796 0.961 . S
C783 C780 1.539 . S
C783 H797 0.958 . S
C783 H798 0.961 . S
C783 H799 0.960 . S
H784 C768 0.931 . S
H785 C773 0.929 . S
H786 C774 0.960 . S
H787 C774 0.962 . S
H788 C774 0.960 . S
H789 C775 0.961 . S
H790 C775 0.961 . S
H791 C775 0.961 . S
H792 C776 0.931 . S
H793 C781 0.930 . S
H794 C782 0.956 . S
H795 C782 0.961 . S
H796 C782 0.961 . S
H797 C783 0.958 . S
H798 C783 0.961 . S
H799 C783 0.960 . S
C800 C801 1.391 . S
C800 C802 1.394 . S
C800 H816 0.931 . S
C801 C800 1.391 . S
C801 C805 1.376 . S
C802 C800 1.394 . S
C802 C803 1.369 . S
C802 C806 1.531 . S
C803 C802 1.369 . S
C803 C804 1.410 . S
C803 C811 1.503 . S
C804 C803 1.410 . S
C804 C805 1.392 . S
C804 C807 1.511 . S
C805 C801 1.376 . S
C805 C804 1.392 . S
C805 H817 0.929 . S
C806 C802 1.531 . S
C806 H818 0.960 . S
C806 H819 0.962 . S
C806 H820 0.960 . S
C807 C804 1.511 . S
C807 H821 0.961 . S
C807 H822 0.961 . S
C807 H823 0.961 . S
C808 C809 1.370 . S
C808 C810 1.363 . S
C808 H824 0.931 . S
C809 C808 1.370 . S
C809 C813 1.408 . S
C810 C808 1.363 . S
C810 C811 1.370 . S
C810 C814 1.524 . S
C811 C803 1.503 . S
C811 C810 1.370 . S
C811 C812 1.403 . S
C812 C811 1.403 . S
C812 C813 1.404 . S
C812 C815 1.539 . S
C813 C809 1.408 . S
C813 C812 1.404 . S
C813 H825 0.930 . S
C814 C810 1.524 . S
C814 H826 0.956 . S
C814 H827 0.961 . S
C814 H828 0.961 . S
C815 C812 1.539 . S
C815 H829 0.958 . S
C815 H830 0.961 . S
C815 H831 0.960 . S
H816 C800 0.931 . S
H817 C805 0.929 . S
H818 C806 0.960 . S
H819 C806 0.962 . S
H820 C806 0.960 . S
H821 C807 0.961 . S
H822 C807 0.961 . S
H823 C807 0.961 . S
H824 C808 0.931 . S
H825 C813 0.930 . S
H826 C814 0.956 . S
H827 C814 0.961 . S
H828 C814 0.961 . S
H829 C815 0.958 . S
H830 C815 0.961 . S
H831 C815 0.960 . S
C832 C833 1.391 . S
C832 C834 1.394 . S
C832 H848 0.931 . S
C833 C832 1.391 . S
C833 C837 1.376 . S
C834 C832 1.394 . S
C834 C835 1.369 . S
C834 C838 1.531 . S
C835 C834 1.369 . S
C835 C836 1.410 . S
C835 C843 1.503 . S
C836 C835 1.410 . S
C836 C837 1.392 . S
C836 C839 1.511 . S
C837 C833 1.376 . S
C837 C836 1.392 . S
C837 H849 0.929 . S
C838 C834 1.531 . S
C838 H850 0.960 . S
C838 H851 0.962 . S
C838 H852 0.960 . S
C839 C836 1.511 . S
C839 H853 0.961 . S
C839 H854 0.961 . S
C839 H855 0.961 . S
C840 C841 1.370 . S
C840 C842 1.363 . S
C840 H856 0.931 . S
C841 C840 1.370 . S
C841 C845 1.408 . S
C842 C840 1.363 . S
C842 C843 1.370 . S
C842 C846 1.524 . S
C843 C835 1.503 . S
C843 C842 1.370 . S
C843 C844 1.403 . S
C844 C843 1.403 . S
C844 C845 1.404 . S
C844 C847 1.539 . S
C845 C841 1.408 . S
C845 C844 1.404 . S
C845 H857 0.930 . S
C846 C842 1.524 . S
C846 H858 0.956 . S
C846 H859 0.961 . S
C846 H860 0.961 . S
C847 C844 1.539 . S
C847 H861 0.958 . S
C847 H862 0.961 . S
C847 H863 0.960 . S
H848 C832 0.931 . S
H849 C837 0.929 . S
H850 C838 0.960 . S
H851 C838 0.962 . S
H852 C838 0.960 . S
H853 C839 0.961 . S
H854 C839 0.961 . S
H855 C839 0.961 . S
H856 C840 0.931 . S
H857 C845 0.930 . S
H858 C846 0.956 . S
H859 C846 0.961 . S
H860 C846 0.961 . S
H861 C847 0.958 . S
H862 C847 0.961 . S
H863 C847 0.960 . S
C864 C865 1.391 . S
C864 C866 1.394 . S
C864 H880 0.931 . S
C865 C864 1.391 . S
C865 C869 1.376 . S
C866 C864 1.394 . S
C866 C867 1.369 . S
C866 C870 1.531 . S
C867 C866 1.369 . S
C867 C868 1.410 . S
C867 C875 1.503 1_554 S
C868 C867 1.410 . S
C868 C869 1.392 . S
C868 C871 1.511 1_554 S
C869 C865 1.376 . S
C869 C868 1.392 . S
C869 H881 0.929 . S
C870 C866 1.531 . S
C870 H882 0.960 . S
C870 H883 0.962 . S
C870 H884 0.960 . S
C871 C868 1.511 1_556 S
C871 H885 0.961 1_556 S
C871 H886 0.961 . S
C871 H887 0.961 . S
C872 C873 1.370 . S
C872 C874 1.363 . S
C872 H888 0.931 . S
C873 C872 1.370 . S
C873 C877 1.408 . S
C874 C872 1.363 . S
C874 C875 1.370 . S
C874 C878 1.524 1_556 S
C875 C867 1.503 1_556 S
C875 C874 1.370 . S
C875 C876 1.403 . S
C876 C875 1.403 . S
C876 C877 1.404 . S
C876 C879 1.539 . S
C877 C873 1.408 . S
C877 C876 1.404 . S
C877 H889 0.930 . S
C878 C874 1.524 1_554 S
C878 H890 0.956 . S
C878 H891 0.961 . S
C878 H892 0.961 . S
C879 C876 1.539 . S
C879 H893 0.958 . S
C879 H894 0.961 . S
C879 H895 0.960 . S
H880 C864 0.931 . S
H881 C869 0.929 . S
H882 C870 0.960 . S
H883 C870 0.962 . S
H884 C870 0.960 . S
H885 C871 0.961 1_554 S
H886 C871 0.961 . S
H887 C871 0.961 . S
H888 C872 0.931 . S
H889 C877 0.930 . S
H890 C878 0.956 . S
H891 C878 0.961 . S
H892 C878 0.961 . S
H893 C879 0.958 . S
H894 C879 0.961 . S
H895 C879 0.960 . S
C896 C897 1.391 . S
C896 C898 1.394 . S
C896 H912 0.931 . S
C897 C896 1.391 . S
C897 C901 1.376 . S
C898 C896 1.394 . S
C898 C899 1.369 . S
C898 C902 1.531 . S
C899 C898 1.369 . S
C899 C900 1.410 . S
C899 C907 1.503 . S
C900 C899 1.410 . S
C900 C901 1.392 . S
C900 C903 1.511 . S
C901 C897 1.376 . S
C901 C900 1.392 . S
C901 H913 0.929 . S
C902 C898 1.531 . S
C902 H914 0.960 . S
C902 H915 0.962 . S
C902 H916 0.960 . S
C903 C900 1.511 . S
C903 H917 0.961 . S
C903 H918 0.961 . S
C903 H919 0.961 . S
C904 C905 1.370 . S
C904 C906 1.363 . S
C904 H920 0.931 . S
C905 C904 1.370 . S
C905 C909 1.408 . S
C906 C904 1.363 . S
C906 C907 1.370 . S
C906 C910 1.524 . S
C907 C899 1.503 . S
C907 C906 1.370 . S
C907 C908 1.403 . S
C908 C907 1.403 . S
C908 C909 1.404 . S
C908 C911 1.539 . S
C909 C905 1.408 . S
C909 C908 1.404 . S
C909 H921 0.930 . S
C910 C906 1.524 . S
C910 H922 0.956 . S
C910 H923 0.961 . S
C910 H924 0.961 . S
C911 C908 1.539 . S
C911 H925 0.958 . S
C911 H926 0.961 . S
C911 H927 0.960 . S
H912 C896 0.931 . S
H913 C901 0.929 . S
H914 C902 0.960 . S
H915 C902 0.962 . S
H916 C902 0.960 . S
H917 C903 0.961 . S
H918 C903 0.961 . S
H919 C903 0.961 . S
H920 C904 0.931 . S
H921 C909 0.930 . S
H922 C910 0.956 . S
H923 C910 0.961 . S
H924 C910 0.961 . S
H925 C911 0.958 . S
H926 C911 0.961 . S
H927 C911 0.960 . S
C928 C929 1.391 . S
C928 C930 1.394 . S
C928 H944 0.931 . S
C929 C928 1.391 . S
C929 C933 1.376 . S
C930 C928 1.394 . S
C930 C931 1.369 . S
C930 C934 1.531 . S
C931 C930 1.369 . S
C931 C932 1.410 . S
C931 C939 1.503 . S
C932 C931 1.410 . S
C932 C933 1.392 . S
C932 C935 1.511 . S
C933 C929 1.376 . S
C933 C932 1.392 . S
C933 H945 0.929 . S
C934 C930 1.531 . S
C934 H946 0.960 . S
C934 H947 0.962 . S
C934 H948 0.960 . S
C935 C932 1.511 . S
C935 H949 0.961 . S
C935 H950 0.961 . S
C935 H951 0.961 . S
C936 C937 1.370 . S
C936 C938 1.363 . S
C936 H952 0.931 . S
C937 C936 1.370 . S
C937 C941 1.408 . S
C938 C936 1.363 . S
C938 C939 1.370 . S
C938 C942 1.524 . S
C939 C931 1.503 . S
C939 C938 1.370 . S
C939 C940 1.403 . S
C940 C939 1.403 . S
C940 C941 1.404 . S
C940 C943 1.539 . S
C941 C937 1.408 . S
C941 C940 1.404 . S
C941 H953 0.930 . S
C942 C938 1.524 . S
C942 H954 0.956 . S
C942 H955 0.961 . S
C942 H956 0.961 . S
C943 C940 1.539 . S
C943 H957 0.958 . S
C943 H958 0.961 . S
C943 H959 0.960 . S
H944 C928 0.931 . S
H945 C933 0.929 . S
H946 C934 0.960 . S
H947 C934 0.962 . S
H948 C934 0.960 . S
H949 C935 0.961 . S
H950 C935 0.961 . S
H951 C935 0.961 . S
H952 C936 0.931 . S
H953 C941 0.930 . S
H954 C942 0.956 . S
H955 C942 0.961 . S
H956 C942 0.961 . S
H957 C943 0.958 . S
H958 C943 0.961 . S
H959 C943 0.960 . S
C960 C961 1.391 . S
C960 C962 1.394 . S
C960 H976 0.931 . S
C961 C960 1.391 . S
C961 C965 1.376 . S
C962 C960 1.394 . S
C962 C963 1.369 . S
C962 C966 1.531 . S
C963 C962 1.369 . S
C963 C964 1.410 . S
C963 C971 1.503 . S
C964 C963 1.410 . S
C964 C965 1.392 . S
C964 C967 1.511 . S
C965 C961 1.376 . S
C965 C964 1.392 . S
C965 H977 0.929 . S
C966 C962 1.531 . S
C966 H978 0.960 . S
C966 H979 0.962 . S
C966 H980 0.960 . S
C967 C964 1.511 . S
C967 H981 0.961 . S
C967 H982 0.961 . S
C967 H983 0.961 . S
C968 C969 1.370 . S
C968 C970 1.363 . S
C968 H984 0.931 . S
C969 C968 1.370 . S
C969 C973 1.408 . S
C970 C968 1.363 . S
C970 C971 1.370 . S
C970 C974 1.524 . S
C971 C963 1.503 . S
C971 C970 1.370 . S
C971 C972 1.403 . S
C972 C971 1.403 . S
C972 C973 1.404 . S
C972 C975 1.539 . S
C973 C969 1.408 . S
C973 C972 1.404 . S
C973 H985 0.930 . S
C974 C970 1.524 . S
C974 H986 0.956 . S
C974 H987 0.961 . S
C974 H988 0.961 . S
C975 C972 1.539 . S
C975 H989 0.958 . S
C975 H990 0.961 . S
C975 H991 0.960 . S
H976 C960 0.931 . S
H977 C965 0.929 . S
H978 C966 0.960 . S
H979 C966 0.962 . S
H980 C966 0.960 . S
H981 C967 0.961 . S
H982 C967 0.961 . S
H983 C967 0.961 . S
H984 C968 0.931 . S
H985 C973 0.930 . S
H986 C974 0.956 . S
H987 C974 0.961 . S
H988 C974 0.961 . S
H989 C975 0.958 . S
H990 C975 0.961 . S
H991 C975 0.960 . S
C992 C993 1.391 . S
C992 C994 1.394 . S
C992 H1008 0.931 . S
C993 C992 1.391 . S
C993 C997 1.376 . S
C994 C992 1.394 . S
C994 C995 1.369 . S
C994 C998 1.531 . S
C995 C994 1.369 . S
C995 C996 1.410 . S
C995 C1003 1.503 . S
C996 C995 1.410 . S
C996 C997 1.392 . S
C996 C999 1.511 . S
C997 C993 1.376 . S
C997 C996 1.392 . S
C997 H1009 0.929 . S
C998 C994 1.531 . S
C998 H1010 0.960 . S
C998 H1011 0.962 . S
C998 H1012 0.960 . S
C999 C996 1.511 . S
C999 H1013 0.961 . S
C999 H1014 0.961 . S
C999 H1015 0.961 . S
C1000 C1001 1.370 . S
C1000 C1002 1.363 . S
C1000 H1016 0.931 . S
C1001 C1000 1.370 . S
C1001 C1005 1.408 . S
C1002 C1000 1.363 . S
C1002 C1003 1.370 . S
C1002 C1006 1.524 . S
C1003 C995 1.503 . S
C1003 C1002 1.370 . S
C1003 C1004 1.403 . S
C1004 C1003 1.403 . S
C1004 C1005 1.404 . S
C1004 C1007 1.539 . S
C1005 C1001 1.408 . S
C1005 C1004 1.404 . S
C1005 H1017 0.930 . S
C1006 C1002 1.524 . S
C1006 H1018 0.956 . S
C1006 H1019 0.961 . S
C1006 H1020 0.961 . S
C1007 C1004 1.539 . S
C1007 H1021 0.958 . S
C1007 H1022 0.961 . S
C1007 H1023 0.960 . S
H1008 C992 0.931 . S
H1009 C997 0.929 . S
H1010 C998 0.960 . S
H1011 C998 0.962 . S
H1012 C998 0.960 . S
H1013 C999 0.961 . S
H1014 C999 0.961 . S
H1015 C999 0.961 . S
H1016 C1000 0.931 . S
H1017 C1005 0.930 . S
H1018 C1006 0.956 . S
H1019 C1006 0.961 . S
H1020 C1006 0.961 . S
H1021 C1007 0.958 . S
H1022 C1007 0.961 . S
H1023 C1007 0.960 . S
C1024 C1025 1.391 . S
C1024 C1026 1.394 1_545 S
C1024 H1040 0.931 . S
C1025 C1024 1.391 . S
C1025 C1029 1.386 . S
C1026 C1024 1.394 1_565 S
C1026 C1027 1.369 . S
C1026 C1030 1.531 . S
C1027 C1026 1.369 . S
C1027 C1028 1.410 . S
C1027 C1035 1.503 . S
C1028 C1027 1.410 . S
C1028 C1029 1.380 1_565 S
C1028 C1031 1.511 . S
C1029 C1025 1.386 . S
C1029 C1028 1.380 1_545 S
C1029 H1041 0.932 . S
C1030 C1026 1.531 . S
C1030 H1042 0.960 . S
C1030 H1043 0.962 . S
C1030 H1044 0.960 1_565 S
C1031 C1028 1.511 . S
C1031 H1045 0.961 . S
C1031 H1046 0.961 . S
C1031 H1047 0.961 . S
C1032 C1033 1.370 . S
C1032 C1034 1.363 . S
C1032 H1048 0.931 . S
C1033 C1032 1.370 . S
C1033 C1037 1.408 . S
C1034 C1032 1.363 . S
C1034 C1035 1.370 . S
C1034 C1038 1.524 . S
C1035 C1027 1.503 . S
C1035 C1034 1.370 . S
C1035 C1036 1.403 . S
C1036 C1035 1.403 . S
C1036 C1037 1.404 . S
C1036 C1039 1.539 1_565 S
C1037 C1033 1.408 . S
C1037 C1036 1.404 . S
C1037 H1049 0.930 . S
C1038 C1034 1.524 . S
C1038 H1050 0.956 . S
C1038 H1051 0.961 . S
C1038 H1052 0.961 . S
C1039 C1036 1.539 1_545 S
C1039 H1053 0.958 . S
C1039 H1054 0.961 . S
C1039 H1055 0.960 . S
H1040 C1024 0.931 . S
H1041 C1029 0.932 . S
H1042 C1030 0.960 . S
H1043 C1030 0.962 . S
H1044 C1030 0.960 1_545 S
H1045 C1031 0.961 . S
H1046 C1031 0.961 . S
H1047 C1031 0.961 . S
H1048 C1032 0.931 . S
H1049 C1037 0.930 . S
H1050 C1038 0.956 . S
H1051 C1038 0.961 . S
H1052 C1038 0.961 . S
H1053 C1039 0.958 . S
H1054 C1039 0.961 . S
H1055 C1039 0.960 . S
C1056 C1057 1.391 . S
C1056 C1058 1.394 . S
C1056 H1072 0.931 . S
C1057 C1056 1.391 . S
C1057 C1061 1.376 . S
C1058 C1056 1.394 . S
C1058 C1059 1.369 . S
C1058 C1062 1.531 . S
C1059 C1058 1.369 . S
C1059 C1060 1.410 . S
C1059 C1067 1.503 1_554 S
C1060 C1059 1.410 . S
C1060 C1061 1.392 . S
C1060 C1063 1.511 1_554 S
C1061 C1057 1.376 . S
C1061 C1060 1.392 . S
C1061 H1073 0.929 . S
C1062 C1058 1.531 . S
C1062 H1074 0.960 . S
C1062 H1075 0.962 . S
C1062 H1076 0.960 . S
C1063 C1060 1.511 1_556 S
C1063 H1077 0.961 . S
C1063 H1078 0.961 . S
C1063 H1079 0.961 . S
C1064 C1065 1.370 . S
C1064 C1066 1.363 . S
C1064 H1080 0.931 . S
C1065 C1064 1.370 . S
C1065 C1069 1.408 . S
C1066 C1064 1.363 . S
C1066 C1067 1.370 . S
C1066 C1070 1.524 1_556 S
C1067 C1059 1.503 1_556 S
C1067 C1066 1.370 . S
C1067 C1068 1.403 . S
C1068 C1067 1.403 . S
C1068 C1069 1.404 . S
C1068 C1071 1.539 . S
C1069 C1065 1.408 . S
C1069 C1068 1.404 . S
C1069 H1081 0.930 . S
C1070 C1066 1.524 1_554 S
C1070 H1082 0.956 . S
C1070 H1083 0.961 . S
C1070 H1084 0.961 . S
C1071 C1068 1.539 . S
C1071 H1085 0.958 . S
C1071 H1086 0.961 . S
C1071 H1087 0.960 . S
H1072 C1056 0.931 . S
H1073 C1061 0.929 . S
H1074 C1062 0.960 . S
H1075 C1062 0.962 . S
H1076 C1062 0.960 . S
H1077 C1063 0.961 . S
H1078 C1063 0.961 . S
H1079 C1063 0.961 . S
H1080 C1064 0.931 . S
H1081 C1069 0.930 . S
H1082 C1070 0.956 . S
H1083 C1070 0.961 . S
H1084 C1070 0.961 . S
H1085 C1071 0.958 . S
H1086 C1071 0.961 . S
H1087 C1071 0.960 . S
C1088 C1089 1.391 . S
C1088 C1090 1.394 . S
C1088 H1104 0.931 . S
C1089 C1088 1.391 . S
C1089 C1093 1.376 . S
C1090 C1088 1.394 . S
C1090 C1091 1.369 . S
C1090 C1094 1.531 . S
C1091 C1090 1.369 . S
C1091 C1092 1.410 . S
C1091 C1099 1.503 . S
C1092 C1091 1.410 . S
C1092 C1093 1.392 . S
C1092 C1095 1.511 . S
C1093 C1089 1.376 . S
C1093 C1092 1.392 . S
C1093 H1105 0.929 . S
C1094 C1090 1.531 . S
C1094 H1106 0.960 . S
C1094 H1107 0.962 . S
C1094 H1108 0.960 . S
C1095 C1092 1.511 . S
C1095 H1109 0.961 . S
C1095 H1110 0.961 . S
C1095 H1111 0.961 . S
C1096 C1097 1.370 1_545 S
C1096 C1098 1.363 . S
C1096 H1112 0.931 . S
C1097 C1096 1.370 1_565 S
C1097 C1101 1.408 . S
C1098 C1096 1.363 . S
C1098 C1099 1.370 . S
C1098 C1102 1.524 . S
C1099 C1091 1.503 . S
C1099 C1098 1.370 . S
C1099 C1100 1.403 1_545 S
C1100 C1099 1.403 1_565 S
C1100 C1101 1.404 . S
C1100 C1103 1.539 . S
C1101 C1097 1.408 . S
C1101 C1100 1.404 . S
C1101 H1113 0.930 . S
C1102 C1098 1.524 . S
C1102 H1114 0.956 . S
C1102 H1115 0.961 . S
C1102 H1116 0.961 . S
C1103 C1100 1.539 . S
C1103 H1117 0.958 . S
C1103 H1118 0.961 . S
C1103 H1119 0.960 . S
H1104 C1088 0.931 . S
H1105 C1093 0.929 . S
H1106 C1094 0.960 . S
H1107 C1094 0.962 . S
H1108 C1094 0.960 . S
H1109 C1095 0.961 . S
H1110 C1095 0.961 . S
H1111 C1095 0.961 . S
H1112 C1096 0.931 . S
H1113 C1101 0.930 . S
H1114 C1102 0.956 . S
H1115 C1102 0.961 . S
H1116 C1102 0.961 . S
H1117 C1103 0.958 . S
H1118 C1103 0.961 . S
H1119 C1103 0.960 . S
C1120 C1121 1.391 . S
C1120 C1122 1.394 . S
C1120 H1136 0.931 . S
C1121 C1120 1.391 . S
C1121 C1125 1.376 . S
C1122 C1120 1.394 . S
C1122 C1123 1.369 . S
C1122 C1126 1.531 . S
C1123 C1122 1.369 . S
C1123 C1124 1.410 . S
C1123 C1131 1.503 . S
C1124 C1123 1.410 . S
C1124 C1125 1.392 . S
C1124 C1127 1.511 . S
C1125 C1121 1.376 . S
C1125 C1124 1.392 . S
C1125 H1137 0.929 . S
C1126 C1122 1.531 . S
C1126 H1138 0.960 . S
C1126 H1139 0.962 . S
C1126 H1140 0.960 . S
C1127 C1124 1.511 . S
C1127 H1141 0.961 . S
C1127 H1142 0.961 . S
C1127 H1143 0.961 . S
C1128 C1129 1.370 . S
C1128 C1130 1.363 . S
C1128 H1144 0.931 . S
C1129 C1128 1.370 . S
C1129 C1133 1.408 . S
C1130 C1128 1.363 . S
C1130 C1131 1.370 . S
C1130 C1134 1.524 . S
C1131 C1123 1.503 . S
C1131 C1130 1.370 . S
C1131 C1132 1.403 . S
C1132 C1131 1.403 . S
C1132 C1133 1.404 . S
C1132 C1135 1.539 . S
C1133 C1129 1.408 . S
C1133 C1132 1.404 . S
C1133 H1145 0.930 . S
C1134 C1130 1.524 . S
C1134 H1146 0.956 . S
C1134 H1147 0.961 . S
C1134 H1148 0.961 . S
C1135 C1132 1.539 . S
C1135 H1149 0.958 . S
C1135 H1150 0.961 . S
C1135 H1151 0.960 . S
H1136 C1120 0.931 . S
H1137 C1125 0.929 . S
H1138 C1126 0.960 . S
H1139 C1126 0.962 . S
H1140 C1126 0.960 . S
H1141 C1127 0.961 . S
H1142 C1127 0.961 . S
H1143 C1127 0.961 . S
H1144 C1128 0.931 . S
H1145 C1133 0.930 . S
H1146 C1134 0.956 . S
H1147 C1134 0.961 . S
H1148 C1134 0.961 . S
H1149 C1135 0.958 . S
H1150 C1135 0.961 . S
H1151 C1135 0.960 . S
C1152 C1153 1.391 1_545 S
C1152 C1154 1.394 . S
C1152 H1168 0.931 . S
C1153 C1152 1.391 1_565 S
C1153 C1157 1.376 . S
C1154 C1152 1.394 . S
C1154 C1155 1.369 . S
C1154 C1158 1.531 . S
C1155 C1154 1.369 . S
C1155 C1156 1.410 . S
C1155 C1163 1.503 . S
C1156 C1155 1.410 . S
C1156 C1157 1.392 1_545 S
C1156 C1159 1.511 . S
C1157 C1153 1.376 . S
C1157 C1156 1.392 1_565 S
C1157 H1169 0.929 . S
C1158 C1154 1.531 . S
C1158 H1170 0.960 . S
C1158 H1171 0.962 . S
C1158 H1172 0.960 . S
C1159 C1156 1.511 . S
C1159 H1173 0.961 1_545 S
C1159 H1174 0.961 . S
C1159 H1175 0.961 . S
C1160 C1161 1.370 . S
C1160 C1162 1.363 . S
C1160 H1176 0.931 . S
C1161 C1160 1.370 . S
C1161 C1165 1.408 . S
C1162 C1160 1.363 . S
C1162 C1163 1.370 . S
C1162 C1166 1.524 1_545 S
C1163 C1155 1.503 . S
C1163 C1162 1.370 . S
C1163 C1164 1.403 . S
C1164 C1163 1.403 . S
C1164 C1165 1.404 . S
C1164 C1167 1.539 . S
C1165 C1161 1.408 . S
C1165 C1164 1.404 . S
C1165 H1177 0.930 . S
C1166 C1162 1.524 1_565 S
C1166 H1178 0.956 . S
C1166 H1179 0.961 . S
C1166 H1180 0.961 . S
C1167 C1164 1.539 . S
C1167 H1181 0.958 . S
C1167 H1182 0.961 . S
C1167 H1183 0.960 . S
H1168 C1152 0.931 . S
H1169 C1157 0.929 . S
H1170 C1158 0.960 . S
H1171 C1158 0.962 . S
H1172 C1158 0.960 . S
H1173 C1159 0.961 1_565 S
H1174 C1159 0.961 . S
H1175 C1159 0.961 . S
H1176 C1160 0.931 . S
H1177 C1165 0.930 . S
H1178 C1166 0.956 . S
H1179 C1166 0.961 . S
H1180 C1166 0.961 . S
H1181 C1167 0.958 . S
H1182 C1167 0.961 . S
H1183 C1167 0.960 . S
C1184 C1185 1.391 . S
C1184 C1186 1.394 . S
C1184 H1200 0.931 . S
C1185 C1184 1.391 . S
C1185 C1189 1.376 . S
C1186 C1184 1.394 . S
C1186 C1187 1.369 . S
C1186 C1190 1.531 . S
C1187 C1186 1.369 . S
C1187 C1188 1.410 . S
C1187 C1195 1.503 1_554 S
C1188 C1187 1.410 . S
C1188 C1189 1.392 . S
C1188 C1191 1.511 1_554 S
C1189 C1185 1.376 . S
C1189 C1188 1.392 . S
C1189 H1201 0.929 . S
C1190 C1186 1.531 . S
C1190 H1202 0.960 . S
C1190 H1203 0.962 . S
C1190 H1204 0.960 . S
C1191 C1188 1.511 1_556 S
C1191 H1205 0.961 . S
C1191 H1206 0.961 . S
C1191 H1207 0.961 . S
C1192 C1193 1.370 . S
C1192 C1194 1.363 . S
C1192 H1208 0.931 . S
C1193 C1192 1.370 . S
C1193 C1197 1.408 . S
C1194 C1192 1.363 . S
C1194 C1195 1.370 . S
C1194 C1198 1.524 . S
C1195 C1187 1.503 1_556 S
C1195 C1194 1.370 . S
C1195 C1196 1.403 . S
C1196 C1195 1.403 . S
C1196 C1197 1.404 . S
C1196 C1199 1.539 . S
C1197 C1193 1.408 . S
C1197 C1196 1.404 . S
C1197 H1209 0.930 . S
C1198 C1194 1.524 . S
C1198 H1210 0.956 1_556 S
C1198 H1211 0.961 . S
C1198 H1212 0.961 . S
C1199 C1196 1.539 . S
C1199 H1213 0.958 . S
C1199 H1214 0.961 . S
C1199 H1215 0.960 . S
H1200 C1184 0.931 . S
H1201 C1189 0.929 . S
H1202 C1190 0.960 . S
H1203 C1190 0.962 . S
H1204 C1190 0.960 . S
H1205 C1191 0.961 . S
H1206 C1191 0.961 . S
H1207 C1191 0.961 . S
H1208 C1192 0.931 . S
H1209 C1197 0.930 . S
H1210 C1198 0.956 1_554 S
H1211 C1198 0.961 . S
H1212 C1198 0.961 . S
H1213 C1199 0.958 . S
H1214 C1199 0.961 . S
H1215 C1199 0.960 . S
C1216 C1217 1.391 1_565 S
C1216 C1218 1.394 . S
C1216 H1232 0.931 . S
C1217 C1216 1.391 1_545 S
C1217 C1221 1.376 . S
C1218 C1216 1.394 . S
C1218 C1219 1.369 . S
C1218 C1222 1.531 . S
C1219 C1218 1.369 . S
C1219 C1220 1.410 . S
C1219 C1227 1.503 . S
C1220 C1219 1.410 . S
C1220 C1221 1.392 1_565 S
C1220 C1223 1.511 1_565 S
C1221 C1217 1.376 . S
C1221 C1220 1.392 1_545 S
C1221 H1233 0.929 . S
C1222 C1218 1.531 . S
C1222 H1234 0.960 . S
C1222 H1235 0.962 . S
C1222 H1236 0.960 . S
C1223 C1220 1.511 1_545 S
C1223 H1237 0.961 . S
C1223 H1238 0.961 . S
C1223 H1239 0.961 1_545 S
C1224 C1225 1.370 . S
C1224 C1226 1.363 . S
C1224 H1240 0.931 . S
C1225 C1224 1.370 . S
C1225 C1229 1.408 . S
C1226 C1224 1.363 . S
C1226 C1227 1.370 . S
C1226 C1230 1.524 . S
C1227 C1219 1.503 . S
C1227 C1226 1.370 . S
C1227 C1228 1.403 . S
C1228 C1227 1.403 . S
C1228 C1229 1.404 . S
C1228 C1231 1.539 . S
C1229 C1225 1.408 . S
C1229 C1228 1.404 . S
C1229 H1241 0.930 . S
C1230 C1226 1.524 . S
C1230 H1242 0.956 . S
C1230 H1243 0.961 1_565 S
C1230 H1244 0.961 . S
C1231 C1228 1.539 . S
C1231 H1245 0.958 . S
C1231 H1246 0.961 . S
C1231 H1247 0.960 . S
H1232 C1216 0.931 . S
H1233 C1221 0.929 . S
H1234 C1222 0.960 . S
H1235 C1222 0.962 . S
H1236 C1222 0.960 . S
H1237 C1223 0.961 . S
H1238 C1223 0.961 . S
H1239 C1223 0.961 1_565 S
H1240 C1224 0.931 . S
H1241 C1229 0.930 . S
H1242 C1230 0.956 . S
H1243 C1230 0.961 1_545 S
H1244 C1230 0.961 . S
H1245 C1231 0.958 . S
H1246 C1231 0.961 . S
H1247 C1231 0.960 . S
C1248 C1249 1.391 . S
C1248 C1250 1.394 . S
C1248 H1264 0.931 . S
C1249 C1248 1.391 . S
C1249 C1253 1.376 . S
C1250 C1248 1.394 . S
C1250 C1251 1.369 . S
C1250 C1254 1.531 . S
C1251 C1250 1.369 . S
C1251 C1252 1.410 . S
C1251 C1259 1.503 . S
C1252 C1251 1.410 . S
C1252 C1253 1.392 . S
C1252 C1255 1.511 . S
C1253 C1249 1.376 . S
C1253 C1252 1.392 . S
C1253 H1265 0.929 . S
C1254 C1250 1.531 . S
C1254 H1266 0.960 . S
C1254 H1267 0.962 . S
C1254 H1268 0.960 . S
C1255 C1252 1.511 . S
C1255 H1269 0.961 . S
C1255 H1270 0.961 . S
C1255 H1271 0.961 . S
C1256 C1257 1.370 . S
C1256 C1258 1.363 . S
C1256 H1272 0.931 . S
C1257 C1256 1.370 . S
C1257 C1261 1.408 . S
C1258 C1256 1.363 . S
C1258 C1259 1.370 . S
C1258 C1262 1.524 . S
C1259 C1251 1.503 . S
C1259 C1258 1.370 . S
C1259 C1260 1.403 . S
C1260 C1259 1.403 . S
C1260 C1261 1.404 . S
C1260 C1263 1.539 . S
C1261 C1257 1.408 . S
C1261 C1260 1.404 . S
C1261 H1273 0.930 . S
C1262 C1258 1.524 . S
C1262 H1274 0.956 . S
C1262 H1275 0.961 . S
C1262 H1276 0.961 . S
C1263 C1260 1.539 . S
C1263 H1277 0.958 . S
C1263 H1278 0.961 . S
C1263 H1279 0.960 . S
H1264 C1248 0.931 . S
H1265 C1253 0.929 . S
H1266 C1254 0.960 . S
H1267 C1254 0.962 . S
H1268 C1254 0.960 . S
H1269 C1255 0.961 . S
H1270 C1255 0.961 . S
H1271 C1255 0.961 . S
H1272 C1256 0.931 . S
H1273 C1261 0.930 . S
H1274 C1262 0.956 . S
H1275 C1262 0.961 . S
H1276 C1262 0.961 . S
H1277 C1263 0.958 . S
H1278 C1263 0.961 . S
H1279 C1263 0.960 . S
C1280 C1281 1.391 . S
C1280 C1282 1.394 . S
C1280 H1296 0.931 . S
C1281 C1280 1.391 . S
C1281 C1285 1.376 . S
C1282 C1280 1.394 . S
C1282 C1283 1.369 . S
C1282 C1286 1.531 . S
C1283 C1282 1.369 . S
C1283 C1284 1.410 . S
C1283 C1291 1.503 . S
C1284 C1283 1.410 . S
C1284 C1285 1.392 . S
C1284 C1287 1.511 . S
C1285 C1281 1.376 . S
C1285 C1284 1.392 . S
C1285 H1297 0.929 . S
C1286 C1282 1.531 . S
C1286 H1298 0.960 . S
C1286 H1299 0.962 . S
C1286 H1300 0.960 . S
C1287 C1284 1.511 . S
C1287 H1301 0.961 . S
C1287 H1302 0.961 . S
C1287 H1303 0.961 . S
C1288 C1289 1.370 . S
C1288 C1290 1.363 . S
C1288 H1304 0.931 . S
C1289 C1288 1.370 . S
C1289 C1293 1.408 . S
C1290 C1288 1.363 . S
C1290 C1291 1.370 . S
C1290 C1294 1.524 . S
C1291 C1283 1.503 . S
C1291 C1290 1.370 . S
C1291 C1292 1.403 . S
C1292 C1291 1.403 . S
C1292 C1293 1.404 . S
C1292 C1295 1.539 . S
C1293 C1289 1.408 . S
C1293 C1292 1.404 . S
C1293 H1305 0.930 . S
C1294 C1290 1.524 . S
C1294 H1306 0.956 . S
C1294 H1307 0.961 . S
C1294 H1308 0.961 . S
C1295 C1292 1.539 . S
C1295 H1309 0.958 . S
C1295 H1310 0.961 . S
C1295 H1311 0.960 . S
H1296 C1280 0.931 . S
H1297 C1285 0.929 . S
H1298 C1286 0.960 . S
H1299 C1286 0.962 . S
H1300 C1286 0.960 . S
H1301 C1287 0.961 . S
H1302 C1287 0.961 . S
H1303 C1287 0.961 . S
H1304 C1288 0.931 . S
H1305 C1293 0.930 . S
H1306 C1294 0.956 . S
H1307 C1294 0.961 . S
H1308 C1294 0.961 . S
H1309 C1295 0.958 . S
H1310 C1295 0.961 . S
H1311 C1295 0.960 . S
C1312 C1313 1.391 . S
C1312 C1314 1.394 . S
C1312 H1328 0.931 . S
C1313 C1312 1.391 . S
C1313 C1317 1.376 . S
C1314 C1312 1.394 . S
C1314 C1315 1.369 . S
C1314 C1318 1.531 . S
C1315 C1314 1.369 . S
C1315 C1316 1.410 . S
C1315 C1323 1.503 1_655 S
C1316 C1315 1.410 . S
C1316 C1317 1.392 . S
C1316 C1319 1.511 1_655 S
C1317 C1313 1.376 . S
C1317 C1316 1.392 . S
C1317 H1329 0.929 . S
C1318 C1314 1.531 . S
C1318 H1330 0.960 . S
C1318 H1331 0.962 . S
C1318 H1332 0.960 . S
C1319 C1316 1.511 1_455 S
C1319 H1333 0.961 . S
C1319 H1334 0.961 . S
C1319 H1335 0.961 . S
C1320 C1321 1.370 . S
C1320 C1322 1.363 . S
C1320 H1336 0.931 . S
C1321 C1320 1.370 . S
C1321 C1325 1.408 . S
C1322 C1320 1.363 . S
C1322 C1323 1.370 . S
C1322 C1326 1.524 . S
C1323 C1315 1.503 1_455 S
C1323 C1322 1.370 . S
C1323 C1324 1.403 . S
C1324 C1323 1.403 . S
C1324 C1325 1.404 . S
C1324 C1327 1.539 . S
C1325 C1321 1.408 . S
C1325 C1324 1.404 . S
C1325 H1337 0.930 . S
C1326 C1322 1.524 . S
C1326 H1338 0.956 1_455 S
C1326 H1339 0.961 . S
C1326 H1340 0.961 . S
C1327 C1324 1.539 . S
C1327 H1341 0.958 . S
C1327 H1342 0.961 . S
C1327 H1343 0.960 . S
H1328 C1312 0.931 . S
H1329 C1317 0.929 . S
H1330 C1318 0.960 . S
H1331 C1318 0.962 . S
H1332 C1318 0.960 . S
H1333 C1319 0.961 . S
H1334 C1319 0.961 . S
H1335 C1319 0.961 . S
H1336 C1320 0.931 . S
H1337 C1325 0.930 . S
H1338 C1326 0.956 1_655 S
H1339 C1326 0.961 . S
H1340 C1326 0.961 . S
H1341 C1327 0.958 . S
H1342 C1327 0.961 . S
H1343 C1327 0.960 . S
C1344 C1345 1.391 . S
C1344 C1346 1.394 1_655 S
C1344 H1360 0.931 1_655 S
C1345 C1344 1.391 . S
C1345 C1349 1.376 . S
C1346 C1344 1.394 1_455 S
C1346 C1347 1.369 1_455 S
C1346 C1350 1.531 . S
C1347 C1346 1.369 1_655 S
C1347 C1348 1.410 . S
C1347 C1355 1.503 1_655 S
C1348 C1347 1.410 . S
C1348 C1349 1.392 . S
C1348 C1351 1.511 . S
C1349 C1345 1.376 . S
C1349 C1348 1.392 . S
C1349 H1361 0.929 . S
C1350 C1346 1.531 . S
C1350 H1362 0.960 . S
C1350 H1363 0.962 . S
C1350 H1364 0.960 . S
C1351 C1348 1.511 . S
C1351 H1365 0.961 . S
C1351 H1366 0.961 . S
C1351 H1367 0.961 . S
C1352 C1353 1.370 . S
C1352 C1354 1.363 . S
C1352 H1368 0.931 . S
C1353 C1352 1.370 . S
C1353 C1357 1.408 . S
C1354 C1352 1.363 . S
C1354 C1355 1.370 . S
C1354 C1358 1.524 . S
C1355 C1347 1.503 1_455 S
C1355 C1354 1.370 . S
C1355 C1356 1.403 . S
C1356 C1355 1.403 . S
C1356 C1357 1.404 . S
C1356 C1359 1.539 . S
C1357 C1353 1.408 . S
C1357 C1356 1.404 . S
C1357 H1369 0.930 . S
C1358 C1354 1.524 . S
C1358 H1370 0.956 . S
C1358 H1371 0.961 1_455 S
C1358 H1372 0.961 . S
C1359 C1356 1.539 . S
C1359 H1373 0.958 . S
C1359 H1374 0.961 . S
C1359 H1375 0.960 1_455 S
H1360 C1344 0.931 1_455 S
H1361 C1349 0.929 . S
H1362 C1350 0.960 . S
H1363 C1350 0.962 . S
H1364 C1350 0.960 . S
H1365 C1351 0.961 . S
H1366 C1351 0.961 . S
H1367 C1351 0.961 . S
H1368 C1352 0.931 . S
H1369 C1357 0.930 . S
H1370 C1358 0.956 . S
H1371 C1358 0.961 1_655 S
H1372 C1358 0.961 . S
H1373 C1359 0.958 . S
H1374 C1359 0.961 . S
H1375 C1359 0.960 1_655 S
C1376 C1377 1.391 . S
C1376 C1378 1.394 . S
C1376 H1392 0.931 . S
C1377 C1376 1.391 . S
C1377 C1381 1.376 . S
C1378 C1376 1.394 . S
C1378 C1379 1.369 . S
C1378 C1382 1.531 . S
C1379 C1378 1.369 . S
C1379 C1380 1.410 . S
C1379 C1387 1.503 . S
C1380 C1379 1.410 . S
C1380 C1381 1.392 . S
C1380 C1383 1.511 . S
C1381 C1377 1.376 . S
C1381 C1380 1.392 . S
C1381 H1393 0.929 . S
C1382 C1378 1.531 . S
C1382 H1394 0.960 . S
C1382 H1395 0.962 . S
C1382 H1396 0.960 . S
C1383 C1380 1.511 . S
C1383 H1397 0.961 . S
C1383 H1398 0.961 . S
C1383 H1399 0.961 . S
C1384 C1385 1.370 . S
C1384 C1386 1.363 . S
C1384 H1400 0.931 . S
C1385 C1384 1.370 . S
C1385 C1389 1.408 . S
C1386 C1384 1.363 . S
C1386 C1387 1.370 . S
C1386 C1390 1.524 . S
C1387 C1379 1.503 . S
C1387 C1386 1.370 . S
C1387 C1388 1.403 . S
C1388 C1387 1.403 . S
C1388 C1389 1.404 . S
C1388 C1391 1.539 . S
C1389 C1385 1.408 . S
C1389 C1388 1.404 . S
C1389 H1401 0.930 . S
C1390 C1386 1.524 . S
C1390 H1402 0.956 . S
C1390 H1403 0.961 . S
C1390 H1404 0.961 . S
C1391 C1388 1.539 . S
C1391 H1405 0.958 . S
C1391 H1406 0.961 . S
C1391 H1407 0.960 . S
H1392 C1376 0.931 . S
H1393 C1381 0.929 . S
H1394 C1382 0.960 . S
H1395 C1382 0.962 . S
H1396 C1382 0.960 . S
H1397 C1383 0.961 . S
H1398 C1383 0.961 . S
H1399 C1383 0.961 . S
H1400 C1384 0.931 . S
H1401 C1389 0.930 . S
H1402 C1390 0.956 . S
H1403 C1390 0.961 . S
H1404 C1390 0.961 . S
H1405 C1391 0.958 . S
H1406 C1391 0.961 . S
H1407 C1391 0.960 . S
C1408 C1409 1.391 . S
C1408 C1410 1.394 . S
C1408 H1424 0.931 . S
C1409 C1408 1.391 . S
C1409 C1413 1.376 . S
C1410 C1408 1.394 . S
C1410 C1411 1.369 . S
C1410 C1414 1.531 . S
C1411 C1410 1.369 . S
C1411 C1412 1.410 . S
C1411 C1419 1.503 . S
C1412 C1411 1.410 . S
C1412 C1413 1.392 . S
C1412 C1415 1.511 . S
C1413 C1409 1.376 . S
C1413 C1412 1.392 . S
C1413 H1425 0.929 . S
C1414 C1410 1.531 . S
C1414 H1426 0.960 . S
C1414 H1427 0.962 . S
C1414 H1428 0.960 . S
C1415 C1412 1.511 . S
C1415 H1429 0.961 . S
C1415 H1430 0.961 . S
C1415 H1431 0.961 . S
C1416 C1417 1.370 . S
C1416 C1418 1.363 . S
C1416 H1432 0.931 . S
C1417 C1416 1.370 . S
C1417 C1421 1.408 . S
C1418 C1416 1.363 . S
C1418 C1419 1.370 . S
C1418 C1422 1.524 . S
C1419 C1411 1.503 . S
C1419 C1418 1.370 . S
C1419 C1420 1.403 . S
C1420 C1419 1.403 . S
C1420 C1421 1.404 . S
C1420 C1423 1.539 . S
C1421 C1417 1.408 . S
C1421 C1420 1.404 . S
C1421 H1433 0.930 . S
C1422 C1418 1.524 . S
C1422 H1434 0.956 . S
C1422 H1435 0.961 . S
C1422 H1436 0.961 . S
C1423 C1420 1.539 . S
C1423 H1437 0.958 . S
C1423 H1438 0.961 . S
C1423 H1439 0.960 . S
H1424 C1408 0.931 . S
H1425 C1413 0.929 . S
H1426 C1414 0.960 . S
H1427 C1414 0.962 . S
H1428 C1414 0.960 . S
H1429 C1415 0.961 . S
H1430 C1415 0.961 . S
H1431 C1415 0.961 . S
H1432 C1416 0.931 . S
H1433 C1421 0.930 . S
H1434 C1422 0.956 . S
H1435 C1422 0.961 . S
H1436 C1422 0.961 . S
H1437 C1423 0.958 . S
H1438 C1423 0.961 . S
H1439 C1423 0.960 . S
C1440 C1441 1.391 . S
C1440 C1442 1.394 . S
C1440 H1456 0.931 . S
C1441 C1440 1.391 . S
C1441 C1445 1.376 . S
C1442 C1440 1.394 . S
C1442 C1443 1.369 . S
C1442 C1446 1.531 . S
C1443 C1442 1.369 . S
C1443 C1444 1.410 . S
C1443 C1451 1.503 1_455 S
C1444 C1443 1.410 . S
C1444 C1445 1.392 . S
C1444 C1447 1.511 1_455 S
C1445 C1441 1.376 . S
C1445 C1444 1.392 . S
C1445 H1457 0.929 . S
C1446 C1442 1.531 . S
C1446 H1458 0.960 . S
C1446 H1459 0.962 . S
C1446 H1460 0.960 . S
C1447 C1444 1.511 1_655 S
C1447 H1461 0.961 . S
C1447 H1462 0.961 . S
C1447 H1463 0.961 . S
C1448 C1449 1.370 . S
C1448 C1450 1.363 . S
C1448 H1464 0.931 . S
C1449 C1448 1.370 . S
C1449 C1453 1.408 . S
C1450 C1448 1.363 . S
C1450 C1451 1.370 . S
C1450 C1454 1.524 . S
C1451 C1443 1.503 1_655 S
C1451 C1450 1.370 . S
C1451 C1452 1.403 . S
C1452 C1451 1.403 . S
C1452 C1453 1.404 . S
C1452 C1455 1.539 . S
C1453 C1449 1.408 . S
C1453 C1452 1.404 . S
C1453 H1465 0.930 . S
C1454 C1450 1.524 . S
C1454 H1466 0.956 1_655 S
C1454 H1467 0.961 . S
C1454 H1468 0.961 . S
C1455 C1452 1.539 . S
C1455 H1469 0.958 . S
C1455 H1470 0.961 . S
C1455 H1471 0.960 . S
H1456 C1440 0.931 . S
H1457 C1445 0.929 . S
H1458 C1446 0.960 . S
H1459 C1446 0.962 . S
H1460 C1446 0.960 . S
H1461 C1447 0.961 . S
H1462 C1447 0.961 . S
H1463 C1447 0.961 . S
H1464 C1448 0.931 . S
H1465 C1453 0.930 . S
H1466 C1454 0.956 1_455 S
H1467 C1454 0.961 . S
H1468 C1454 0.961 . S
H1469 C1455 0.958 . S
H1470 C1455 0.961 . S
H1471 C1455 0.960 . S
C1472 C1473 1.391 . S
C1472 C1474 1.394 . S
C1472 H1488 0.931 . S
C1473 C1472 1.391 . S
C1473 C1477 1.376 . S
C1474 C1472 1.394 . S
C1474 C1475 1.369 . S
C1474 C1478 1.531 . S
C1475 C1474 1.369 . S
C1475 C1476 1.410 1_455 S
C1475 C1483 1.503 1_455 S
C1476 C1475 1.410 1_655 S
C1476 C1477 1.392 1_655 S
C1476 C1479 1.511 . S
C1477 C1473 1.376 . S
C1477 C1476 1.392 1_455 S
C1477 H1489 0.929 . S
C1478 C1474 1.531 . S
C1478 H1490 0.960 . S
C1478 H1491 0.962 . S
C1478 H1492 0.960 . S
C1479 C1476 1.511 . S
C1479 H1493 0.961 . S
C1479 H1494 0.961 . S
C1479 H1495 0.961 . S
C1480 C1481 1.370 . S
C1480 C1482 1.368 . S
C1480 H1496 0.931 . S
C1481 C1480 1.370 . S
C1481 C1485 1.408 . S
C1482 C1480 1.368 . S
C1482 C1483 1.374 . S
C1482 C1486 1.516 1_655 S
C1483 C1475 1.503 1_655 S
C1483 C1482 1.374 . S
C1483 C1484 1.403 . S
C1484 C1483 1.403 . S
C1484 C1485 1.404 . S
C1484 C1487 1.539 . S
C1485 C1481 1.408 . S
C1485 C1484 1.404 . S
C1485 H1497 0.930 . S
C1486 C1482 1.516 1_455 S
C1486 H1498 0.956 . S
C1486 H1499 0.961 . S
C1486 H1500 0.961 . S
C1487 C1484 1.539 . S
C1487 H1501 0.958 . S
C1487 H1502 0.961 . S
C1487 H1503 0.960 . S
H1488 C1472 0.931 . S
H1489 C1477 0.929 . S
H1490 C1478 0.960 . S
H1491 C1478 0.962 . S
H1492 C1478 0.960 . S
H1493 C1479 0.961 . S
H1494 C1479 0.961 . S
H1495 C1479 0.961 . S
H1496 C1480 0.931 . S
H1497 C1485 0.930 . S
H1498 C1486 0.956 . S
H1499 C1486 0.961 . S
H1500 C1486 0.961 . S
H1501 C1487 0.958 . S
H1502 C1487 0.961 . S
H1503 C1487 0.960 . S
C1504 C1505 1.391 . S
C1504 C1506 1.394 . S
C1504 H1520 0.931 . S
C1505 C1504 1.391 . S
C1505 C1509 1.376 . S
C1506 C1504 1.394 . S
C1506 C1507 1.369 . S
C1506 C1510 1.531 . S
C1507 C1506 1.369 . S
C1507 C1508 1.410 . S
C1507 C1515 1.503 . S
C1508 C1507 1.410 . S
C1508 C1509 1.392 . S
C1508 C1511 1.511 . S
C1509 C1505 1.376 . S
C1509 C1508 1.392 . S
C1509 H1521 0.929 . S
C1510 C1506 1.531 . S
C1510 H1522 0.960 . S
C1510 H1523 0.962 . S
C1510 H1524 0.960 . S
C1511 C1508 1.511 . S
C1511 H1525 0.961 . S
C1511 H1526 0.961 . S
C1511 H1527 0.961 . S
C1512 C1513 1.370 . S
C1512 C1514 1.363 . S
C1512 H1528 0.931 . S
C1513 C1512 1.370 . S
C1513 C1517 1.408 . S
C1514 C1512 1.363 . S
C1514 C1515 1.370 . S
C1514 C1518 1.524 . S
C1515 C1507 1.503 . S
C1515 C1514 1.370 . S
C1515 C1516 1.403 . S
C1516 C1515 1.403 . S
C1516 C1517 1.404 . S
C1516 C1519 1.539 . S
C1517 C1513 1.408 . S
C1517 C1516 1.404 . S
C1517 H1529 0.930 . S
C1518 C1514 1.524 . S
C1518 H1530 0.956 . S
C1518 H1531 0.961 . S
C1518 H1532 0.961 . S
C1519 C1516 1.539 . S
C1519 H1533 0.958 . S
C1519 H1534 0.961 . S
C1519 H1535 0.960 . S
H1520 C1504 0.931 . S
H1521 C1509 0.929 . S
H1522 C1510 0.960 . S
H1523 C1510 0.962 . S
H1524 C1510 0.960 . S
H1525 C1511 0.961 . S
H1526 C1511 0.961 . S
H1527 C1511 0.961 . S
H1528 C1512 0.931 . S
H1529 C1517 0.930 . S
H1530 C1518 0.956 . S
H1531 C1518 0.961 . S
H1532 C1518 0.961 . S
H1533 C1519 0.958 . S
H1534 C1519 0.961 . S
H1535 C1519 0.960 . S
C1536 C1537 1.391 . S
C1536 C1538 1.394 . S
C1536 H1552 0.931 . S
C1537 C1536 1.391 . S
C1537 C1541 1.376 . S
C1538 C1536 1.394 . S
C1538 C1539 1.369 . S
C1538 C1542 1.531 . S
C1539 C1538 1.369 . S
C1539 C1540 1.410 . S
C1539 C1547 1.503 . S
C1540 C1539 1.410 . S
C1540 C1541 1.392 . S
C1540 C1543 1.511 . S
C1541 C1537 1.376 . S
C1541 C1540 1.392 . S
C1541 H1553 0.929 . S
C1542 C1538 1.531 . S
C1542 H1554 0.960 . S
C1542 H1555 0.962 . S
C1542 H1556 0.960 . S
C1543 C1540 1.511 . S
C1543 H1557 0.961 . S
C1543 H1558 0.961 . S
C1543 H1559 0.961 . S
C1544 C1545 1.370 . S
C1544 C1546 1.363 . S
C1544 H1560 0.931 . S
C1545 C1544 1.370 . S
C1545 C1549 1.408 . S
C1546 C1544 1.363 . S
C1546 C1547 1.370 . S
C1546 C1550 1.524 . S
C1547 C1539 1.503 . S
C1547 C1546 1.370 . S
C1547 C1548 1.403 . S
C1548 C1547 1.403 . S
C1548 C1549 1.404 . S
C1548 C1551 1.539 . S
C1549 C1545 1.408 . S
C1549 C1548 1.404 . S
C1549 H1561 0.930 . S
C1550 C1546 1.524 . S
C1550 H1562 0.956 . S
C1550 H1563 0.961 . S
C1550 H1564 0.961 . S
C1551 C1548 1.539 . S
C1551 H1565 0.958 . S
C1551 H1566 0.961 . S
C1551 H1567 0.960 . S
H1552 C1536 0.931 . S
H1553 C1541 0.929 . S
H1554 C1542 0.960 . S
H1555 C1542 0.962 . S
H1556 C1542 0.960 . S
H1557 C1543 0.961 . S
H1558 C1543 0.961 . S
H1559 C1543 0.961 . S
H1560 C1544 0.931 . S
H1561 C1549 0.930 . S
H1562 C1550 0.956 . S
H1563 C1550 0.961 . S
H1564 C1550 0.961 . S
H1565 C1551 0.958 . S
H1566 C1551 0.961 . S
H1567 C1551 0.960 . S
C1568 C1569 1.391 . S
C1568 C1570 1.394 . S
C1568 H1584 0.931 . S
C1569 C1568 1.391 . S
C1569 C1573 1.376 . S
C1570 C1568 1.394 . S
C1570 C1571 1.369 . S
C1570 C1574 1.531 . S
C1571 C1570 1.369 . S
C1571 C1572 1.410 . S
C1571 C1579 1.503 . S
C1572 C1571 1.410 . S
C1572 C1573 1.392 . S
C1572 C1575 1.511 . S
C1573 C1569 1.376 . S
C1573 C1572 1.392 . S
C1573 H1585 0.929 . S
C1574 C1570 1.531 . S
C1574 H1586 0.960 . S
C1574 H1587 0.962 . S
C1574 H1588 0.960 . S
C1575 C1572 1.511 . S
C1575 H1589 0.961 . S
C1575 H1590 0.961 . S
C1575 H1591 0.961 . S
C1576 C1577 1.370 . S
C1576 C1578 1.363 . S
C1576 H1592 0.931 . S
C1577 C1576 1.370 . S
C1577 C1581 1.408 . S
C1578 C1576 1.363 . S
C1578 C1579 1.370 . S
C1578 C1582 1.524 . S
C1579 C1571 1.503 . S
C1579 C1578 1.370 . S
C1579 C1580 1.403 . S
C1580 C1579 1.403 . S
C1580 C1581 1.404 . S
C1580 C1583 1.539 . S
C1581 C1577 1.408 . S
C1581 C1580 1.404 . S
C1581 H1593 0.930 . S
C1582 C1578 1.524 . S
C1582 H1594 0.956 . S
C1582 H1595 0.961 . S
C1582 H1596 0.961 . S
C1583 C1580 1.539 . S
C1583 H1597 0.958 . S
C1583 H1598 0.961 . S
C1583 H1599 0.960 . S
H1584 C1568 0.931 . S
H1585 C1573 0.929 . S
H1586 C1574 0.960 . S
H1587 C1574 0.962 . S
H1588 C1574 0.960 . S
H1589 C1575 0.961 . S
H1590 C1575 0.961 . S
H1591 C1575 0.961 . S
H1592 C1576 0.931 . S
H1593 C1581 0.930 . S
H1594 C1582 0.956 . S
H1595 C1582 0.961 . S
H1596 C1582 0.961 . S
H1597 C1583 0.958 . S
H1598 C1583 0.961 . S
H1599 C1583 0.960 . S
C1600 C1601 1.391 . S
C1600 C1602 1.394 1_655 S
C1600 H1616 0.931 . S
C1601 C1600 1.391 . S
C1601 C1605 1.376 . S
C1602 C1600 1.394 1_455 S
C1602 C1603 1.369 . S
C1602 C1606 1.531 . S
C1603 C1602 1.369 . S
C1603 C1604 1.410 . S
C1603 C1611 1.503 . S
C1604 C1603 1.410 . S
C1604 C1605 1.392 1_455 S
C1604 C1607 1.511 . S
C1605 C1601 1.376 . S
C1605 C1604 1.392 1_655 S
C1605 H1617 0.929 . S
C1606 C1602 1.531 . S
C1606 H1618 0.960 . S
C1606 H1619 0.962 . S
C1606 H1620 0.960 . S
C1607 C1604 1.511 . S
C1607 H1621 0.961 1_455 S
C1607 H1622 0.961 . S
C1607 H1623 0.961 . S
C1608 C1609 1.370 . S
C1608 C1610 1.363 . S
C1608 H1624 0.931 . S
C1609 C1608 1.370 . S
C1609 C1613 1.408 . S
C1610 C1608 1.363 . S
C1610 C1611 1.370 . S
C1610 C1614 1.524 . S
C1611 C1603 1.503 . S
C1611 C1610 1.370 . S
C1611 C1612 1.403 . S
C1612 C1611 1.403 . S
C1612 C1613 1.404 . S
C1612 C1615 1.539 . S
C1613 C1609 1.408 . S
C1613 C1612 1.404 . S
C1613 H1625 0.930 . S
C1614 C1610 1.524 . S
C1614 H1626 0.956 . S
C1614 H1627 0.961 . S
C1614 H1628 0.961 . S
C1615 C1612 1.539 . S
C1615 H1629 0.958 . S
C1615 H1630 0.961 . S
C1615 H1631 0.960 . S
H1616 C1600 0.931 . S
H1617 C1605 0.929 . S
H1618 C1606 0.960 . S
H1619 C1606 0.962 . S
H1620 C1606 0.960 . S
H1621 C1607 0.961 1_655 S
H1622 C1607 0.961 . S
H1623 C1607 0.961 . S
H1624 C1608 0.931 . S
H1625 C1613 0.930 . S
H1626 C1614 0.956 . S
H1627 C1614 0.961 . S
H1628 C1614 0.961 . S
H1629 C1615 0.958 . S
H1630 C1615 0.961 . S
H1631 C1615 0.960 . S
C1632 C1633 1.391 . S
C1632 C1634 1.394 . S
C1632 H1648 0.931 . S
C1633 C1632 1.391 . S
C1633 C1637 1.376 . S
C1634 C1632 1.394 . S
C1634 C1635 1.369 . S
C1634 C1638 1.531 . S
C1635 C1634 1.369 . S
C1635 C1636 1.410 . S
C1635 C1643 1.503 . S
C1636 C1635 1.410 . S
C1636 C1637 1.392 . S
C1636 C1639 1.511 . S
C1637 C1633 1.376 . S
C1637 C1636 1.392 . S
C1637 H1649 0.929 . S
C1638 C1634 1.531 . S
C1638 H1650 0.960 . S
C1638 H1651 0.962 . S
C1638 H1652 0.960 . S
C1639 C1636 1.511 . S
C1639 H1653 0.961 . S
C1639 H1654 0.961 . S
C1639 H1655 0.961 . S
C1640 C1641 1.370 . S
C1640 C1642 1.363 . S
C1640 H1656 0.931 . S
C1641 C1640 1.370 . S
C1641 C1645 1.408 . S
C1642 C1640 1.363 . S
C1642 C1643 1.370 . S
C1642 C1646 1.524 . S
C1643 C1635 1.503 . S
C1643 C1642 1.370 . S
C1643 C1644 1.403 . S
C1644 C1643 1.403 . S
C1644 C1645 1.404 . S
C1644 C1647 1.539 . S
C1645 C1641 1.408 . S
C1645 C1644 1.404 . S
C1645 H1657 0.930 . S
C1646 C1642 1.524 . S
C1646 H1658 0.956 . S
C1646 H1659 0.961 . S
C1646 H1660 0.961 . S
C1647 C1644 1.539 . S
C1647 H1661 0.958 . S
C1647 H1662 0.961 . S
C1647 H1663 0.960 . S
H1648 C1632 0.931 . S
H1649 C1637 0.929 . S
H1650 C1638 0.960 . S
H1651 C1638 0.962 . S
H1652 C1638 0.960 . S
H1653 C1639 0.961 . S
H1654 C1639 0.961 . S
H1655 C1639 0.961 . S
H1656 C1640 0.931 . S
H1657 C1645 0.930 . S
H1658 C1646 0.956 . S
H1659 C1646 0.961 . S
H1660 C1646 0.961 . S
H1661 C1647 0.958 . S
H1662 C1647 0.961 . S
H1663 C1647 0.960 . S
C1664 C1665 1.391 . S
C1664 C1666 1.394 . S
C1664 H1680 0.931 . S
C1665 C1664 1.391 . S
C1665 C1669 1.376 . S
C1666 C1664 1.394 . S
C1666 C1667 1.369 . S
C1666 C1670 1.531 . S
C1667 C1666 1.369 . S
C1667 C1668 1.410 . S
C1667 C1675 1.503 . S
C1668 C1667 1.410 . S
C1668 C1669 1.392 . S
C1668 C1671 1.511 . S
C1669 C1665 1.376 . S
C1669 C1668 1.392 . S
C1669 H1681 0.929 . S
C1670 C1666 1.531 . S
C1670 H1682 0.960 . S
C1670 H1683 0.962 . S
C1670 H1684 0.960 . S
C1671 C1668 1.511 . S
C1671 H1685 0.961 . S
C1671 H1686 0.961 . S
C1671 H1687 0.961 . S
C1672 C1673 1.370 . S
C1672 C1674 1.363 . S
C1672 H1688 0.931 . S
C1673 C1672 1.370 . S
C1673 C1677 1.408 . S
C1674 C1672 1.363 . S
C1674 C1675 1.370 . S
C1674 C1678 1.524 . S
C1675 C1667 1.503 . S
C1675 C1674 1.370 . S
C1675 C1676 1.403 . S
C1676 C1675 1.403 . S
C1676 C1677 1.404 . S
C1676 C1679 1.539 . S
C1677 C1673 1.408 . S
C1677 C1676 1.404 . S
C1677 H1689 0.930 . S
C1678 C1674 1.524 . S
C1678 H1690 0.956 . S
C1678 H1691 0.961 . S
C1678 H1692 0.961 . S
C1679 C1676 1.539 . S
C1679 H1693 0.958 . S
C1679 H1694 0.961 . S
C1679 H1695 0.960 . S
H1680 C1664 0.931 . S
H1681 C1669 0.929 . S
H1682 C1670 0.960 . S
H1683 C1670 0.962 . S
H1684 C1670 0.960 . S
H1685 C1671 0.961 . S
H1686 C1671 0.961 . S
H1687 C1671 0.961 . S
H1688 C1672 0.931 . S
H1689 C1677 0.930 . S
H1690 C1678 0.956 . S
H1691 C1678 0.961 . S
H1692 C1678 0.961 . S
H1693 C1679 0.958 . S
H1694 C1679 0.961 . S
H1695 C1679 0.960 . S
C1696 C1697 1.391 . S
C1696 C1698 1.394 . S
C1696 H1712 0.931 . S
C1697 C1696 1.391 . S
C1697 C1701 1.376 . S
C1698 C1696 1.394 . S
C1698 C1699 1.369 . S
C1698 C1702 1.531 . S
C1699 C1698 1.369 . S
C1699 C1700 1.410 . S
C1699 C1707 1.503 . S
C1700 C1699 1.410 . S
C1700 C1701 1.392 . S
C1700 C1703 1.511 . S
C1701 C1697 1.376 . S
C1701 C1700 1.392 . S
C1701 H1713 0.929 . S
C1702 C1698 1.531 . S
C1702 H1714 0.960 . S
C1702 H1715 0.962 . S
C1702 H1716 0.960 . S
C1703 C1700 1.511 . S
C1703 H1717 0.961 . S
C1703 H1718 0.961 . S
C1703 H1719 0.961 . S
C1704 C1705 1.370 . S
C1704 C1706 1.363 . S
C1704 H1720 0.931 . S
C1705 C1704 1.370 . S
C1705 C1709 1.408 . S
C1706 C1704 1.363 . S
C1706 C1707 1.370 . S
C1706 C1710 1.524 . S
C1707 C1699 1.503 . S
C1707 C1706 1.370 . S
C1707 C1708 1.403 . S
C1708 C1707 1.403 . S
C1708 C1709 1.404 . S
C1708 C1711 1.539 . S
C1709 C1705 1.408 . S
C1709 C1708 1.404 . S
C1709 H1721 0.930 . S
C1710 C1706 1.524 . S
C1710 H1722 0.956 . S
C1710 H1723 0.961 . S
C1710 H1724 0.961 . S
C1711 C1708 1.539 . S
C1711 H1725 0.958 . S
C1711 H1726 0.961 . S
C1711 H1727 0.960 . S
H1712 C1696 0.931 . S
H1713 C1701 0.929 . S
H1714 C1702 0.960 . S
H1715 C1702 0.962 . S
H1716 C1702 0.960 . S
H1717 C1703 0.961 . S
H1718 C1703 0.961 . S
H1719 C1703 0.961 . S
H1720 C1704 0.931 . S
H1721 C1709 0.930 . S
H1722 C1710 0.956 . S
H1723 C1710 0.961 . S
H1724 C1710 0.961 . S
H1725 C1711 0.958 . S
H1726 C1711 0.961 . S
H1727 C1711 0.960 . S
C1728 C1729 1.391 . S
C1728 C1730 1.394 . S
C1728 H1744 0.931 . S
C1729 C1728 1.391 . S
C1729 C1733 1.376 . S
C1730 C1728 1.394 . S
C1730 C1731 1.369 . S
C1730 C1734 1.531 . S
C1731 C1730 1.369 . S
C1731 C1732 1.410 . S
C1731 C1739 1.503 . S
C1732 C1731 1.410 . S
C1732 C1733 1.392 . S
C1732 C1735 1.511 . S
C1733 C1729 1.376 . S
C1733 C1732 1.392 . S
C1733 H1745 0.929 . S
C1734 C1730 1.531 . S
C1734 H1746 0.960 . S
C1734 H1747 0.962 . S
C1734 H1748 0.960 . S
C1735 C1732 1.511 . S
C1735 H1749 0.961 . S
C1735 H1750 0.961 . S
C1735 H1751 0.961 . S
C1736 C1737 1.370 . S
C1736 C1738 1.363 1_455 S
C1736 H1752 0.931 . S
C1737 C1736 1.370 . S
C1737 C1741 1.408 . S
C1738 C1736 1.363 1_655 S
C1738 C1739 1.370 . S
C1738 C1742 1.524 . S
C1739 C1731 1.503 . S
C1739 C1738 1.370 . S
C1739 C1740 1.403 . S
C1740 C1739 1.403 . S
C1740 C1741 1.404 1_655 S
C1740 C1743 1.539 . S
C1741 C1737 1.408 . S
C1741 C1740 1.404 1_455 S
C1741 H1753 0.930 . S
C1742 C1738 1.524 . S
C1742 H1754 0.956 . S
C1742 H1755 0.961 . S
C1742 H1756 0.961 . S
C1743 C1740 1.539 . S
C1743 H1757 0.958 . S
C1743 H1758 0.961 . S
C1743 H1759 0.960 . S
H1744 C1728 0.931 . S
H1745 C1733 0.929 . S
H1746 C1734 0.960 . S
H1747 C1734 0.962 . S
H1748 C1734 0.960 . S
H1749 C1735 0.961 . S
H1750 C1735 0.961 . S
H1751 C1735 0.961 . S
H1752 C1736 0.931 . S
H1753 C1741 0.930 . S
H1754 C1742 0.956 . S
H1755 C1742 0.961 . S
H1756 C1742 0.961 . S
H1757 C1743 0.958 . S
H1758 C1743 0.961 . S
H1759 C1743 0.960 . S
C1760 C1761 1.391 . S
C1760 C1762 1.394 . S
C1760 H1776 0.931 . S
C1761 C1760 1.391 . S
C1761 C1765 1.376 . S
C1762 C1760 1.394 . S
C1762 C1763 1.369 . S
C1762 C1766 1.531 . S
C1763 C1762 1.369 . S
C1763 C1764 1.410 . S
C1763 C1771 1.503 . S
C1764 C1763 1.410 . S
C1764 C1765 1.392 . S
C1764 C1767 1.511 . S
C1765 C1761 1.376 . S
C1765 C1764 1.392 . S
C1765 H1777 0.929 . S
C1766 C1762 1.531 . S
C1766 H1778 0.960 . S
C1766 H1779 0.962 . S
C1766 H1780 0.960 . S
C1767 C1764 1.511 . S
C1767 H1781 0.961 . S
C1767 H1782 0.961 . S
C1767 H1783 0.961 . S
C1768 C1769 1.370 . S
C1768 C1770 1.363 . S
C1768 H1784 0.931 . S
C1769 C1768 1.370 . S
C1769 C1773 1.408 . S
C1770 C1768 1.363 . S
C1770 C1771 1.370 . S
C1770 C1774 1.524 . S
C1771 C1763 1.503 . S
C1771 C1770 1.370 . S
C1771 C1772 1.403 . S
C1772 C1771 1.403 . S
C1772 C1773 1.404 . S
C1772 C1775 1.539 . S
C1773 C1769 1.408 . S
C1773 C1772 1.404 . S
C1773 H1785 0.930 . S
C1774 C1770 1.524 . S
C1774 H1786 0.956 . S
C1774 H1787 0.961 . S
C1774 H1788 0.961 . S
C1775 C1772 1.539 . S
C1775 H1789 0.958 . S
C1775 H1790 0.961 . S
C1775 H1791 0.960 . S
H1776 C1760 0.931 . S
H1777 C1765 0.929 . S
H1778 C1766 0.960 . S
H1779 C1766 0.962 . S
H1780 C1766 0.960 . S
H1781 C1767 0.961 . S
H1782 C1767 0.961 . S
H1783 C1767 0.961 . S
H1784 C1768 0.931 . S
H1785 C1773 0.930 . S
H1786 C1774 0.956 . S
H1787 C1774 0.961 . S
H1788 C1774 0.961 . S
H1789 C1775 0.958 . S
H1790 C1775 0.961 . S
H1791 C1775 0.960 . S
C1792 C1793 1.391 . S
C1792 C1794 1.394 . S
C1792 H1808 0.931 . S
C1793 C1792 1.391 . S
C1793 C1797 1.376 . S
C1794 C1792 1.394 . S
C1794 C1795 1.369 . S
C1794 C1798 1.531 . S
C1795 C1794 1.369 . S
C1795 C1796 1.410 . S
C1795 C1803 1.503 . S
C1796 C1795 1.410 . S
C1796 C1797 1.392 . S
C1796 C1799 1.511 . S
C1797 C1793 1.376 . S
C1797 C1796 1.392 . S
C1797 H1809 0.929 . S
C1798 C1794 1.531 . S
C1798 H1810 0.960 . S
C1798 H1811 0.962 . S
C1798 H1812 0.960 . S
C1799 C1796 1.511 . S
C1799 H1813 0.961 . S
C1799 H1814 0.961 . S
C1799 H1815 0.961 . S
C1800 C1801 1.370 . S
C1800 C1802 1.363 1_455 S
C1800 H1816 0.931 . S
C1801 C1800 1.370 . S
C1801 C1805 1.408 1_565 S
C1802 C1800 1.363 1_655 S
C1802 C1803 1.370 . S
C1802 C1806 1.524 . S
C1803 C1795 1.503 . S
C1803 C1802 1.370 . S
C1803 C1804 1.403 . S
C1804 C1803 1.403 . S
C1804 C1805 1.404 1_665 S
C1804 C1807 1.539 1_565 S
C1805 C1801 1.408 1_545 S
C1805 C1804 1.404 1_445 S
C1805 H1817 0.930 . S
C1806 C1802 1.524 . S
C1806 H1818 0.956 . S
C1806 H1819 0.961 . S
C1806 H1820 0.961 1_655 S
C1807 C1804 1.539 1_545 S
C1807 H1821 0.958 . S
C1807 H1822 0.961 . S
C1807 H1823 0.960 . S
H1808 C1792 0.931 . S
H1809 C1797 0.929 . S
H1810 C1798 0.960 . S
H1811 C1798 0.962 . S
H1812 C1798 0.960 . S
H1813 C1799 0.961 . S
H1814 C1799 0.961 . S
H1815 C1799 0.961 . S
H1816 C1800 0.931 . S
H1817 C1805 0.930 . S
H1818 C1806 0.956 . S
H1819 C1806 0.961 . S
H1820 C1806 0.961 1_455 S
H1821 C1807 0.958 . S
H1822 C1807 0.961 . S
H1823 C1807 0.960 . S
C1824 C1825 1.391 . S
C1824 C1826 1.394 . S
C1824 H1840 0.931 . S
C1825 C1824 1.391 . S
C1825 C1829 1.376 . S
C1826 C1824 1.394 . S
C1826 C1827 1.369 . S
C1826 C1830 1.531 . S
C1827 C1826 1.369 . S
C1827 C1828 1.410 . S
C1827 C1835 1.503 . S
C1828 C1827 1.410 . S
C1828 C1829 1.392 . S
C1828 C1831 1.511 . S
C1829 C1825 1.376 . S
C1829 C1828 1.392 . S
C1829 H1841 0.929 . S
C1830 C1826 1.531 . S
C1830 H1842 0.960 . S
C1830 H1843 0.962 . S
C1830 H1844 0.960 . S
C1831 C1828 1.511 . S
C1831 H1845 0.961 . S
C1831 H1846 0.961 . S
C1831 H1847 0.961 . S
C1832 C1833 1.370 . S
C1832 C1834 1.363 . S
C1832 H1848 0.931 . S
C1833 C1832 1.370 . S
C1833 C1837 1.408 . S
C1834 C1832 1.363 . S
C1834 C1835 1.370 . S
C1834 C1838 1.524 . S
C1835 C1827 1.503 . S
C1835 C1834 1.370 . S
C1835 C1836 1.403 . S
C1836 C1835 1.403 . S
C1836 C1837 1.404 . S
C1836 C1839 1.539 . S
C1837 C1833 1.408 . S
C1837 C1836 1.404 . S
C1837 H1849 0.930 . S
C1838 C1834 1.524 . S
C1838 H1850 0.956 . S
C1838 H1851 0.961 . S
C1838 H1852 0.961 . S
C1839 C1836 1.539 . S
C1839 H1853 0.958 . S
C1839 H1854 0.961 . S
C1839 H1855 0.960 . S
H1840 C1824 0.931 . S
H1841 C1829 0.929 . S
H1842 C1830 0.960 . S
H1843 C1830 0.962 . S
H1844 C1830 0.960 . S
H1845 C1831 0.961 . S
H1846 C1831 0.961 . S
H1847 C1831 0.961 . S
H1848 C1832 0.931 . S
H1849 C1837 0.930 . S
H1850 C1838 0.956 . S
H1851 C1838 0.961 . S
H1852 C1838 0.961 . S
H1853 C1839 0.958 . S
H1854 C1839 0.961 . S
H1855 C1839 0.960 . S
C1856 C1857 1.391 . S
C1856 C1858 1.394 . S
C1856 H1872 0.931 . S
C1857 C1856 1.391 . S
C1857 C1861 1.376 1_545 S
C1858 C1856 1.394 . S
C1858 C1859 1.369 . S
C1858 C1862 1.531 . S
C1859 C1858 1.369 . S
C1859 C1860 1.410 . S
C1859 C1867 1.503 . S
C1860 C1859 1.410 . S
C1860 C1861 1.392 1_545 S
C1860 C1863 1.511 1_545 S
C1861 C1857 1.376 1_565 S
C1861 C1860 1.392 1_565 S
C1861 H1873 0.929 . S
C1862 C1858 1.531 . S
C1862 H1874 0.960 . S
C1862 H1875 0.962 . S
C1862 H1876 0.960 . S
C1863 C1860 1.511 1_565 S
C1863 H1877 0.961 . S
C1863 H1878 0.961 1_565 S
C1863 H1879 0.961 . S
C1864 C1865 1.370 . S
C1864 C1866 1.363 . S
C1864 H1880 0.931 . S
C1865 C1864 1.370 . S
C1865 C1869 1.408 . S
C1866 C1864 1.363 . S
C1866 C1867 1.370 . S
C1866 C1870 1.524 . S
C1867 C1859 1.503 . S
C1867 C1866 1.370 . S
C1867 C1868 1.403 . S
C1868 C1867 1.403 . S
C1868 C1869 1.404 . S
C1868 C1871 1.539 . S
C1869 C1865 1.408 . S
C1869 C1868 1.404 . S
C1869 H1881 0.930 . S
C1870 C1866 1.524 . S
C1870 H1882 0.956 . S
C1870 H1883 0.961 . S
C1870 H1884 0.961 . S
C1871 C1868 1.539 . S
C1871 H1885 0.958 . S
C1871 H1886 0.961 . S
C1871 H1887 0.960 . S
H1872 C1856 0.931 . S
H1873 C1861 0.929 . S
H1874 C1862 0.960 . S
H1875 C1862 0.962 . S
H1876 C1862 0.960 . S
H1877 C1863 0.961 . S
H1878 C1863 0.961 1_545 S
H1879 C1863 0.961 . S
H1880 C1864 0.931 . S
H1881 C1869 0.930 . S
H1882 C1870 0.956 . S
H1883 C1870 0.961 . S
H1884 C1870 0.961 . S
H1885 C1871 0.958 . S
H1886 C1871 0.961 . S
H1887 C1871 0.960 . S
C1888 C1889 1.391 . S
C1888 C1890 1.394 . S
C1888 H1904 0.931 . S
C1889 C1888 1.391 . S
C1889 C1893 1.376 . S
C1890 C1888 1.394 . S
C1890 C1891 1.369 . S
C1890 C1894 1.531 . S
C1891 C1890 1.369 . S
C1891 C1892 1.410 . S
C1891 C1899 1.503 . S
C1892 C1891 1.410 . S
C1892 C1893 1.392 . S
C1892 C1895 1.511 . S
C1893 C1889 1.376 . S
C1893 C1892 1.392 . S
C1893 H1905 0.929 . S
C1894 C1890 1.531 . S
C1894 H1906 0.960 . S
C1894 H1907 0.962 . S
C1894 H1908 0.960 . S
C1895 C1892 1.511 . S
C1895 H1909 0.961 . S
C1895 H1910 0.961 . S
C1895 H1911 0.961 . S
C1896 C1897 1.370 . S
C1896 C1898 1.363 . S
C1896 H1912 0.931 . S
C1897 C1896 1.370 . S
C1897 C1901 1.408 . S
C1898 C1896 1.363 . S
C1898 C1899 1.370 . S
C1898 C1902 1.524 . S
C1899 C1891 1.503 . S
C1899 C1898 1.370 . S
C1899 C1900 1.403 . S
C1900 C1899 1.403 . S
C1900 C1901 1.404 . S
C1900 C1903 1.539 . S
C1901 C1897 1.408 . S
C1901 C1900 1.404 . S
C1901 H1913 0.930 . S
C1902 C1898 1.524 . S
C1902 H1914 0.956 . S
C1902 H1915 0.961 . S
C1902 H1916 0.961 . S
C1903 C1900 1.539 . S
C1903 H1917 0.958 . S
C1903 H1918 0.961 . S
C1903 H1919 0.960 . S
H1904 C1888 0.931 . S
H1905 C1893 0.929 . S
H1906 C1894 0.960 . S
H1907 C1894 0.962 . S
H1908 C1894 0.960 . S
H1909 C1895 0.961 . S
H1910 C1895 0.961 . S
H1911 C1895 0.961 . S
H1912 C1896 0.931 . S
H1913 C1901 0.930 . S
H1914 C1902 0.956 . S
H1915 C1902 0.961 . S
H1916 C1902 0.961 . S
H1917 C1903 0.958 . S
H1918 C1903 0.961 . S
H1919 C1903 0.960 . S
C1920 C1921 1.385 1_565 S
C1920 C1922 1.388 1_665 S
C1920 H1936 0.942 . S
C1921 C1920 1.385 1_545 S
C1921 C1925 1.376 . S
C1922 C1920 1.388 1_445 S
C1922 C1923 1.369 . S
C1922 C1926 1.531 1_545 S
C1923 C1922 1.369 . S
C1923 C1924 1.410 . S
C1923 C1931 1.503 . S
C1924 C1923 1.410 . S
C1924 C1925 1.392 1_455 S
C1924 C1927 1.511 . S
C1925 C1921 1.376 . S
C1925 C1924 1.392 1_655 S
C1925 H1937 0.929 . S
C1926 C1922 1.531 1_565 S
C1926 H1938 0.960 1_565 S
C1926 H1939 0.962 . S
C1926 H1940 0.960 . S
C1927 C1924 1.511 . S
C1927 H1941 0.961 1_455 S
C1927 H1942 0.961 . S
C1927 H1943 0.961 . S
C1928 C1929 1.370 . S
C1928 C1930 1.363 . S
C1928 H1944 0.931 . S
C1929 C1928 1.370 . S
C1929 C1933 1.408 . S
C1930 C1928 1.363 . S
C1930 C1931 1.370 . S
C1930 C1934 1.524 . S
C1931 C1923 1.503 . S
C1931 C1930 1.370 . S
C1931 C1932 1.403 . S
C1932 C1931 1.403 . S
C1932 C1933 1.404 . S
C1932 C1935 1.539 . S
C1933 C1929 1.408 . S
C1933 C1932 1.404 . S
C1933 H1945 0.930 . S
C1934 C1930 1.524 . S
C1934 H1946 0.956 . S
C1934 H1947 0.961 . S
C1934 H1948 0.961 . S
C1935 C1932 1.539 . S
C1935 H1949 0.958 . S
C1935 H1950 0.961 . S
C1935 H1951 0.960 . S
H1936 C1920 0.942 . S
H1937 C1925 0.929 . S
H1938 C1926 0.960 1_545 S
H1939 C1926 0.962 . S
H1940 C1926 0.960 . S
H1941 C1927 0.961 1_655 S
H1942 C1927 0.961 . S
H1943 C1927 0.961 . S
H1944 C1928 0.931 . S
H1945 C1933 0.930 . S
H1946 C1934 0.956 . S
H1947 C1934 0.961 . S
H1948 C1934 0.961 . S
H1949 C1935 0.958 . S
H1950 C1935 0.961 . S
H1951 C1935 0.960 . S
C1952 C1953 1.391 . S
C1952 C1954 1.394 . S
C1952 H1968 0.931 . S
C1953 C1952 1.391 . S
C1953 C1957 1.376 . S
C1954 C1952 1.394 . S
C1954 C1955 1.369 . S
C1954 C1958 1.531 . S
C1955 C1954 1.369 . S
C1955 C1956 1.410 . S
C1955 C1963 1.503 . S
C1956 C1955 1.410 . S
C1956 C1957 1.392 . S
C1956 C1959 1.511 . S
C1957 C1953 1.376 . S
C1957 C1956 1.392 . S
C1957 H1969 0.929 . S
C1958 C1954 1.531 . S
C1958 H1970 0.960 . S
C1958 H1971 0.962 . S
C1958 H1972 0.960 . S
C1959 C1956 1.511 . S
C1959 H1973 0.961 . S
C1959 H1974 0.961 . S
C1959 H1975 0.961 . S
C1960 C1961 1.370 . S
C1960 C1962 1.363 . S
C1960 H1976 0.931 . S
C1961 C1960 1.370 . S
C1961 C1965 1.408 . S
C1962 C1960 1.363 . S
C1962 C1963 1.370 . S
C1962 C1966 1.524 . S
C1963 C1955 1.503 . S
C1963 C1962 1.370 . S
C1963 C1964 1.403 . S
C1964 C1963 1.403 . S
C1964 C1965 1.404 . S
C1964 C1967 1.539 . S
C1965 C1961 1.408 . S
C1965 C1964 1.404 . S
C1965 H1977 0.930 . S
C1966 C1962 1.524 . S
C1966 H1978 0.956 . S
C1966 H1979 0.961 . S
C1966 H1980 0.961 . S
C1967 C1964 1.539 . S
C1967 H1981 0.958 . S
C1967 H1982 0.961 . S
C1967 H1983 0.960 . S
H1968 C1952 0.931 . S
H1969 C1957 0.929 . S
H1970 C1958 0.960 . S
H1971 C1958 0.962 . S
H1972 C1958 0.960 . S
H1973 C1959 0.961 . S
H1974 C1959 0.961 . S
H1975 C1959 0.961 . S
H1976 C1960 0.931 . S
H1977 C1965 0.930 . S
H1978 C1966 0.956 . S
H1979 C1966 0.961 . S
H1980 C1966 0.961 . S
H1981 C1967 0.958 . S
H1982 C1967 0.961 . S
H1983 C1967 0.960 . S
C1984 C1985 1.391 . S
C1984 C1986 1.394 . S
C1984 H2000 0.931 . S
C1985 C1984 1.391 . S
C1985 C1989 1.376 . S
C1986 C1984 1.394 . S
C1986 C1987 1.369 . S
C1986 C1990 1.531 . S
C1987 C1986 1.369 . S
C1987 C1988 1.410 . S
C1987 C1995 1.503 . S
C1988 C1987 1.410 . S
C1988 C1989 1.392 . S
C1988 C1991 1.511 . S
C1989 C1985 1.376 . S
C1989 C1988 1.392 . S
C1989 H2001 0.929 . S
C1990 C1986 1.531 . S
C1990 H2002 0.960 1_565 S
C1990 H2003 0.962 1_565 S
C1990 H2004 0.960 1_565 S
C1991 C1988 1.511 . S
C1991 H2005 0.961 . S
C1991 H2006 0.961 . S
C1991 H2007 0.961 . S
C1992 C1993 1.370 . S
C1992 C1994 1.363 . S
C1992 H2008 0.931 . S
C1993 C1992 1.370 . S
C1993 C1997 1.408 . S
C1994 C1992 1.363 . S
C1994 C1995 1.370 . S
C1994 C1998 1.524 . S
C1995 C1987 1.503 . S
C1995 C1994 1.370 . S
C1995 C1996 1.403 . S
C1996 C1995 1.403 . S
C1996 C1997 1.404 . S
C1996 C1999 1.539 . S
C1997 C1993 1.408 . S
C1997 C1996 1.404 . S
C1997 H2009 0.930 . S
C1998 C1994 1.524 . S
C1998 H2010 0.956 . S
C1998 H2011 0.961 . S
C1998 H2012 0.961 . S
C1999 C1996 1.539 . S
C1999 H2013 0.958 . S
C1999 H2014 0.961 . S
C1999 H2015 0.960 . S
H2000 C1984 0.931 . S
H2001 C1989 0.929 . S
H2002 C1990 0.960 1_545 S
H2003 C1990 0.962 1_545 S
H2004 C1990 0.960 1_545 S
H2005 C1991 0.961 . S
H2006 C1991 0.961 . S
H2007 C1991 0.961 . S
H2008 C1992 0.931 . S
H2009 C1997 0.930 . S
H2010 C1998 0.956 . S
H2011 C1998 0.961 . S
H2012 C1998 0.961 . S
H2013 C1999 0.958 . S
H2014 C1999 0.961 . S
H2015 C1999 0.960 . S
C481 C27 0.835 . S
C489 C376 0.902 . S
C513 C166 0.928 . S
C521 C57 0.864 . S
C545 C87 0.836 . S
C553 C436 0.901 . S
C577 C117 0.884 . S
C585 C226 0.886 . S
C609 C136 0.893 . S
C617 C267 0.883 . S
C641 C327 0.924 . S
C649 C196 0.865 . S
C673 C406 0.914 . S
C681 C297 0.868 . S
C705 C357 0.928 . S
C713 C466 0.865 . S
C737 C271 1.538 . S
C745 C16 1.526 . S
C769 C46 1.482 . S
C777 C301 1.525 . S
C801 C76 1.511 . S
C809 C331 1.525 . S
C833 C241 1.535 . S
C841 C106 1.507 . S
C865 C400 1.510 . S
C873 C147 1.511 . S
C897 C430 1.539 . S
C905 C177 1.525 . S
C929 C207 1.482 . S
C937 C460 1.526 . S
C961 C370 1.506 . S
C969 C237 1.507 . S
C993 C256 1.527 . S
C1001 C31 1.529 . S
C1025 C286 1.539 . S
C1033 C61 1.541 . S
C1057 C316 1.505 . S
C1065 C91 1.539 . S
C1089 C1 1.551 . S
C1097 C346 1.524 . S
C1121 C160 1.530 . S
C1129 C387 1.508 . S
C1153 C417 1.489 . S
C1161 C190 1.523 . S
C1185 C220 1.533 . S
C1193 C447 1.523 . S
C1217 C477 1.502 . S
C1225 C130 1.525 . S
C1249 N14 1.352 . S
C1257 N314 1.332 . S
C1281 N44 1.328 . S
C1289 N344 1.319 . S
C1313 N254 1.346 . S
C1321 N74 1.337 . S
C1345 N104 1.344 . S
C1353 N284 1.338 . S
C1377 N126 1.300 . S
C1385 N426 1.329 . S
C1409 N156 1.339 . S
C1417 N456 1.321 . S
C1441 N366 1.309 . S
C1449 N186 1.321 . S
C1473 N216 1.328 . S
C1481 N396 1.342 . S
C1505 C10 1.184 . S
C1513 N224 1.160 . S
C1537 N374 1.171 . S
C1545 C40 1.132 . S
C1569 C70 1.104 . S
C1577 N164 1.175 . S
C1601 C100 1.171 . S
C1609 N434 1.168 . S
C1633 C121 1.106 . S
C1641 N96 1.179 . S
C1665 N246 1.189 . S
C1673 C151 1.130 . S
C1697 C181 1.109 . S
C1705 N36 1.179 . S
C1729 N306 1.137 . S
C1737 C211 1.162 . S
C1761 C250 1.167 . S
C1769 N464 1.170 . S
C1793 N134 1.142 . S
C1801 C280 1.149 . S
C1825 N404 1.192 . S
C1833 C310 1.133 . S
C1857 C340 1.109 . S
C1865 N194 1.170 . S
C1889 C361 1.112 . S
C1897 N336 1.179 . S
C1921 C391 1.105 . S
C1929 N6 1.179 . S
C1953 N276 1.145 . S
C1961 C421 1.152 . S
C1985 N66 1.147 . S
C1993 C451 1.162 . S
