# Generated by pormake.
# Topology npo, (4)-cn, num edge types: 1
# Building blocks:
#     Node 0, Type 0, BuildingBlock: QUQFOY_clean_sbu_1, # of connection points: 4
#     Node 1, Type 0, BuildingBlock: QUQFOY_clean_sbu_1, # of connection points: 4
#     Node 2, Type 0, BuildingBlock: QUQFOY_clean_sbu_1, # of connection points: 4
#     Node 3, Type 0, BuildingBlock: QUQFOY_clean_sbu_1, # of connection points: 4
#     Node 4, Type 0, BuildingBlock: QUQFOY_clean_sbu_1, # of connection points: 4
#     Node 5, Type 0, BuildingBlock: QUQFOY_clean_sbu_1, # of connection points: 4
#     Edge 6, Type (0, 0), BuildingBlock: CIFDUS_clean_linker_0, # of connection points: 2
#     Edge 7, Type (0, 0), BuildingBlock: CIFDUS_clean_linker_0, # of connection points: 2
#     Edge 8, Type (0, 0), BuildingBlock: CIFDUS_clean_linker_0, # of connection points: 2
#     Edge 9, Type (0, 0), BuildingBlock: CIFDUS_clean_linker_0, # of connection points: 2
#     Edge 10, Type (0, 0), BuildingBlock: CIFDUS_clean_linker_0, # of connection points: 2
#     Edge 11, Type (0, 0), BuildingBlock: CIFDUS_clean_linker_0, # of connection points: 2
#     Edge 12, Type (0, 0), BuildingBlock: CIFDUS_clean_linker_0, # of connection points: 2
#     Edge 13, Type (0, 0), BuildingBlock: CIFDUS_clean_linker_0, # of connection points: 2
#     Edge 14, Type (0, 0), BuildingBlock: CIFDUS_clean_linker_0, # of connection points: 2
#     Edge 15, Type (0, 0), BuildingBlock: CIFDUS_clean_linker_0, # of connection points: 2
#     Edge 16, Type (0, 0), BuildingBlock: CIFDUS_clean_linker_0, # of connection points: 2
#     Edge 17, Type (0, 0), BuildingBlock: CIFDUS_clean_linker_0, # of connection points: 2
# Relax obj value: 0.262
# Max RMSD: 0.246
# Mean RMSD: 0.246
data_MOF--net-npo--node1-QUQFOY_clean_sbu_1--edge1-CIFDUS_clean_linker_0
_symmetry_space_group_name_H-M    P1
_symmetry_Int_Tables_number       1
_symmetry_cell_setting            triclinic
loop_
_symmetry_equiv_pos_as_xyz
'x, y, z'
_cell_length_a     38.954208
_cell_length_b     38.85292
_cell_length_c     24.881599
_cell_angle_alpha  90.707315
_cell_angle_beta   90.030316
_cell_angle_gamma 120.18448
loop_
_atom_site_label
_atom_site_type_symbol
_atom_site_fract_x
_atom_site_fract_y
_atom_site_fract_z
_atom_type_partial_charge
O0 O 0.60279 0.13923 0.29672 0.0
Cd1 Cd 0.54217 0.10706 0.30601 0.0
Cd2 Cd 0.54351 0.11254 0.19625 0.0
O3 O 0.60414 0.14396 0.2085 0.0
O4 O 0.5371 0.09513 0.38393 0.0
O5 O 0.51338 0.04824 0.32075 0.0
C6 C 0.51858 0.05787 0.37119 0.0
C7 C 0.5179 0.06178 0.13136 0.0
C8 C 0.62222 0.15187 0.25346 0.0
C9 C 0.50422 0.1504 0.25666 0.0
O10 O 0.51377 0.14309 0.21088 0.0
O11 O 0.51225 0.13787 0.29904 0.0
O12 O 0.53593 0.09875 0.1182 0.0
O13 O 0.51428 0.05351 0.18194 0.0
O14 O 0.44806 0.6059 0.8133 0.0
Cd15 Cd 0.42076 0.54496 0.8182 0.0
Cd16 Cd 0.4212 0.55167 0.70544 0.0
O17 O 0.45158 0.61157 0.72513 0.0
O18 O 0.4261 0.5376 0.89609 0.0
O19 O 0.45269 0.51824 0.83275 0.0
C20 C 0.44704 0.52165 0.88323 0.0
C21 C 0.44241 0.53142 0.62965 0.0
C22 C 0.45832 0.62743 0.77178 0.0
C23 C 0.34177 0.50848 0.76163 0.0
O24 O 0.36078 0.52151 0.7181 0.0
O25 O 0.36023 0.51355 0.80578 0.0
O26 O 0.42468 0.55168 0.62551 0.0
O27 O 0.4486 0.52281 0.67734 0.0
O28 O 0.83197 0.37485 0.18606 0.0
Cd29 Cd 0.86567 0.43575 0.18044 0.0
Cd30 Cd 0.85995 0.42987 0.29333 0.0
O31 O 0.83027 0.36987 0.27432 0.0
O32 O 0.87832 0.44269 0.10253 0.0
O33 O 0.92438 0.46243 0.16593 0.0
C34 C 0.91527 0.45872 0.11543 0.0
C35 C 0.90142 0.45034 0.36925 0.0
C36 C 0.8209 0.35365 0.22789 0.0
C37 C 0.8234 0.47249 0.23655 0.0
O38 O 0.82966 0.45987 0.28025 0.0
O39 O 0.83655 0.46711 0.19243 0.0
O40 O 0.86337 0.43015 0.37328 0.0
O41 O 0.91628 0.45882 0.32159 0.0
O42 O 0.45449 0.84192 0.70653 0.0
Cd43 Cd 0.42596 0.87396 0.69768 0.0
Cd44 Cd 0.42164 0.86765 0.80735 0.0
O45 O 0.45109 0.83662 0.79469 0.0
O46 O 0.43272 0.88598 0.61978 0.0
O47 O 0.45597 0.93282 0.68301 0.0
C48 C 0.45147 0.92322 0.63255 0.0
C49 C 0.44663 0.91836 0.87229 0.0
C50 C 0.46132 0.82907 0.74957 0.0
C51 C 0.34447 0.8299 0.7467 0.0
O52 O 0.36128 0.83686 0.79252 0.0
O53 O 0.36513 0.84292 0.70446 0.0
O54 O 0.42787 0.88137 0.88542 0.0
O55 O 0.45122 0.92666 0.82172 0.0
O56 O 0.51134 0.36599 0.29582 0.0
Cd57 Cd 0.54129 0.42495 0.32045 0.0
Cd58 Cd 0.54833 0.43712 0.20882 0.0
O59 O 0.52055 0.37601 0.20869 0.0
O60 O 0.53394 0.42159 0.39983 0.0
O61 O 0.51336 0.45345 0.34801 0.0
C62 C 0.51719 0.44276 0.39556 0.0
C63 C 0.52485 0.46335 0.14409 0.0
C64 C 0.50745 0.35244 0.24807 0.0
C65 C 0.62383 0.47003 0.27284 0.0
O66 O 0.60808 0.46755 0.22716 0.0
O67 O 0.60225 0.45486 0.31389 0.0
O68 O 0.54653 0.44819 0.13137 0.0
O69 O 0.51711 0.46455 0.19434 0.0
O70 O 0.13064 0.51195 0.77146 0.0
Cd71 Cd 0.10138 0.54226 0.79029 0.0
Cd72 Cd 0.10685 0.55539 0.67894 0.0
O73 O 0.13793 0.52556 0.68501 0.0
O74 O 0.08835 0.53072 0.86762 0.0
O75 O 0.04263 0.51486 0.80458 0.0
C76 C 0.0515 0.51578 0.85482 0.0
C77 C 0.06496 0.538 0.60376 0.0
C78 C 0.14414 0.50999 0.72575 0.0
C79 C 0.14548 0.62729 0.75232 0.0
O80 O 0.13585 0.61416 0.70438 0.0
O81 O 0.13493 0.60337 0.79129 0.0
O82 O 0.10295 0.55926 0.59964 0.0
O83 O 0.05038 0.52698 0.65121 0.0
H84 H 0.49398 0.19172 0.1767 0.0
H85 H 0.4822 0.17373 0.34815 0.0
H86 H 0.47499 0.23214 0.35957 0.0
H87 H 0.48433 0.29451 0.32298 0.0
H88 H 0.49915 0.31401 0.15198 0.0
H89 H 0.49209 0.24855 0.1384 0.0
C90 C 0.48889 0.19997 0.21644 0.0
C91 C 0.48965 0.17891 0.26159 0.0
C92 C 0.48583 0.23426 0.22299 0.0
C93 C 0.48243 0.18975 0.31271 0.0
C94 C 0.47844 0.2233 0.31937 0.0
C95 C 0.48512 0.28414 0.28258 0.0
C96 C 0.49328 0.30961 0.23879 0.0
C97 C 0.48206 0.24683 0.27511 0.0
C98 C 0.49356 0.29534 0.18662 0.0
C99 C 0.48968 0.2579 0.17876 0.0
H100 H 0.29351 0.49648 0.67586 0.0
H101 H 0.29253 0.48672 0.84863 0.0
H102 H 0.22631 0.47864 0.85153 0.0
H103 H 0.17495 0.48716 0.80695 0.0
H104 H 0.17793 0.50057 0.63468 0.0
H105 H 0.23664 0.49365 0.62974 0.0
C106 C 0.27851 0.4917 0.7141 0.0
C107 C 0.29844 0.49326 0.76205 0.0
C108 C 0.24091 0.48824 0.71569 0.0
C109 C 0.27819 0.48627 0.8111 0.0
C110 C 0.24034 0.48183 0.81287 0.0
C111 C 0.18781 0.4876 0.76814 0.0
C112 C 0.1726 0.49539 0.72145 0.0
C113 C 0.22232 0.48477 0.76569 0.0
C114 C 0.18939 0.49531 0.67143 0.0
C115 C 0.22311 0.4915 0.66854 0.0
H116 H 0.67224 0.18949 0.17044 0.0
H117 H 0.66918 0.18035 0.34339 0.0
H118 H 0.73487 0.23951 0.35007 0.0
H119 H 0.78722 0.29989 0.3081 0.0
H120 H 0.78895 0.31032 0.13537 0.0
H121 H 0.73024 0.24432 0.12749 0.0
C122 C 0.68627 0.19986 0.20955 0.0
C123 C 0.66533 0.18104 0.25636 0.0
C124 C 0.72369 0.23451 0.21329 0.0
C125 C 0.6843 0.19458 0.30665 0.0
C126 C 0.72186 0.22856 0.3106 0.0
C127 C 0.77532 0.28742 0.26862 0.0
C128 C 0.79193 0.3105 0.22255 0.0
C129 C 0.74095 0.24979 0.26436 0.0
C130 C 0.77646 0.29353 0.17166 0.0
C131 C 0.74272 0.25579 0.16706 0.0
H132 H 0.47366 0.79091 0.8319 0.0
H133 H 0.48004 0.80145 0.65913 0.0
H134 H 0.48663 0.74248 0.65142 0.0
H135 H 0.47854 0.68182 0.6924 0.0
H136 H 0.46958 0.67 0.86495 0.0
H137 H 0.47682 0.73584 0.87391 0.0
C138 C 0.47739 0.78088 0.79261 0.0
C139 C 0.47534 0.80005 0.74614 0.0
C140 C 0.48021 0.74634 0.78828 0.0
C141 C 0.48088 0.78696 0.69561 0.0
C142 C 0.48449 0.75307 0.69108 0.0
C143 C 0.47904 0.69395 0.73208 0.0
C144 C 0.47251 0.67052 0.77777 0.0
C145 C 0.48228 0.7315 0.73695 0.0
C146 C 0.47392 0.68706 0.82893 0.0
C147 C 0.4779 0.72472 0.83415 0.0
H148 H 0.67713 0.49246 0.19123 0.0
H149 H 0.6676 0.48028 0.36371 0.0
H150 H 0.73345 0.48765 0.36844 0.0
H151 H 0.78746 0.48489 0.32225 0.0
H152 H 0.79535 0.49342 0.14932 0.0
H153 H 0.73696 0.50104 0.14643 0.0
C154 C 0.6898 0.49238 0.23003 0.0
C155 C 0.66699 0.48481 0.27687 0.0
C156 C 0.72726 0.49548 0.23237 0.0
C157 C 0.68417 0.48537 0.32686 0.0
C158 C 0.72183 0.48944 0.32963 0.0
C159 C 0.777 0.48931 0.28397 0.0
C160 C 0.79519 0.48753 0.236 0.0
C161 C 0.74271 0.4925 0.2824 0.0
C162 C 0.78161 0.49405 0.18688 0.0
C163 C 0.74804 0.49821 0.18512 0.0
H164 H 0.29273 0.78765 0.82608 0.0
H165 H 0.29922 0.80727 0.65501 0.0
H166 H 0.23358 0.74878 0.64276 0.0
H167 H 0.18046 0.68595 0.67838 0.0
H168 H 0.1755 0.66485 0.84897 0.0
H169 H 0.23391 0.7303 0.86354 0.0
C170 C 0.27944 0.77973 0.78625 0.0
C171 C 0.30135 0.80128 0.74143 0.0
C172 C 0.24209 0.7454 0.77922 0.0
C173 C 0.28336 0.79087 0.6902 0.0
C174 C 0.24582 0.75728 0.68307 0.0
C175 C 0.19157 0.69597 0.71891 0.0
C176 C 0.17417 0.67006 0.76228 0.0
C177 C 0.22582 0.73328 0.72695 0.0
C178 C 0.18865 0.68386 0.81464 0.0
C179 C 0.2222 0.72129 0.82306 0.0
H180 H 0.442 0.90899 0.98054 0.0
H181 H 0.48652 -0.00101 0.85839 0.0
H182 H 0.51234 0.05115 0.9279 0.0
H183 H 0.52229 0.07113 0.02312 0.0
H184 H 0.47793 0.98114 0.14529 0.0
H185 H 0.45199 0.92897 0.07578 0.0
C186 C 0.45734 0.94001 0.96903 0.0
C187 C 0.4623 0.95005 0.91428 0.0
C188 C 0.47212 0.96982 0.00917 0.0
C189 C 0.48228 -0.00959 0.90019 0.0
C190 C 0.49705 0.02026 0.93992 0.0
C191 C 0.50693 0.04011 0.03464 0.0
C192 C 0.50205 0.03007 0.08939 0.0
C193 C 0.49214 0.0103 0.9945 0.0
C194 C 0.4821 0.98971 0.10349 0.0
C195 C 0.46725 0.95986 0.06376 0.0
H196 H 0.48432 0.49024 0.40136 0.0
H197 H 0.52057 0.42294 0.4993 0.0
H198 H 0.50106 0.44455 0.58023 0.0
H199 H 0.47425 0.48307 0.62365 0.0
H200 H 0.43775 0.55018 0.52575 0.0
H201 H 0.45689 0.52825 0.44473 0.0
C202 C 0.48781 0.48019 0.44038 0.0
C203 C 0.5039 0.45503 0.44415 0.0
C204 C 0.47663 0.49283 0.48696 0.0
C205 C 0.50828 0.44234 0.49512 0.0
C206 C 0.49718 0.45472 0.54154 0.0
C207 C 0.47056 0.49296 0.58461 0.0
C208 C 0.45467 0.51828 0.58088 0.0
C209 C 0.48147 0.4801 0.538 0.0
C210 C 0.44992 0.53067 0.52988 0.0
C211 C 0.46084 0.51814 0.48342 0.0
H212 H 0.06323 0.51983 0.9627 0.0
H213 H 0.97098 0.48036 0.84182 0.0
H214 H 0.92083 0.45939 0.91209 0.0
H215 H 0.90342 0.45307 0.00752 0.0
H216 H -0.0043 0.49304 0.12842 0.0
H217 H 0.04578 0.51324 0.05815 0.0
C218 C 0.03214 0.50649 0.95162 0.0
C219 C 0.02085 0.50161 0.89704 0.0
C220 C 0.00356 0.4948 0.99217 0.0
C221 C 0.98046 0.48441 0.88348 0.0
C222 C 0.95179 0.47248 0.92364 0.0
C223 C 0.93449 0.46624 0.0186 0.0
C224 C 0.94582 0.47161 0.07319 0.0
C225 C 0.96304 0.47771 0.97807 0.0
C226 C -0.01381 0.48866 0.08675 0.0
C227 C 0.01483 0.50015 0.04659 0.0
H228 H 0.52555 0.07082 0.47895 0.0
H229 H 0.4784 0.97681 0.35867 0.0
H230 H 0.45373 0.92697 0.42931 0.0
H231 H 0.44536 0.9103 0.52481 0.0
H232 H 0.49233 0.00429 0.64511 0.0
H233 H 0.51738 0.05414 0.57447 0.0
C234 C 0.5099 0.03943 0.46808 0.0
C235 C 0.5038 0.02753 0.41359 0.0
C236 C 0.4958 0.01102 0.5088 0.0
C237 C 0.48348 0.98675 0.40028 0.0
C238 C 0.46937 0.95826 0.44064 0.0
C239 C 0.4611 0.94169 0.53569 0.0
C240 C 0.46697 0.95358 0.59018 0.0
C241 C 0.47533 0.97009 0.49497 0.0
C242 C 0.48742 -0.00564 0.60349 0.0
C243 C 0.50173 0.02286 0.56314 0.0
H244 H 0.44043 0.52685 0.99111 0.0
H245 H 0.49293 0.48718 0.87036 0.0
H246 H 0.52231 0.46652 0.94073 0.0
H247 H 0.53273 0.4595 0.03623 0.0
H248 H 0.47986 0.49878 0.15692 0.0
H249 H 0.45107 0.52009 0.08656 0.0
C250 C 0.45826 0.51364 0.98008 0.0
C251 C 0.46442 0.5085 0.92551 0.0
C252 C 0.47507 0.50191 0.02067 0.0
C253 C 0.48766 0.4914 0.91202 0.0
C254 C 0.50451 0.47964 0.95223 0.0
C255 C 0.51504 0.47286 0.04724 0.0
C256 C 0.50849 0.47759 0.1018 0.0
C257 C 0.4984 0.48477 0.00664 0.0
C258 C 0.48539 0.49483 0.11528 0.0
C259 C 0.46887 0.50696 0.07507 0.0
H260 H -0.01557 0.49095 0.59775 0.0
H261 H 0.08836 0.55794 0.5001 0.0
H262 H 0.04722 0.53668 0.41907 0.0
H263 H 0.98178 0.49847 0.37547 0.0
H264 H 0.8778 0.4317 0.47309 0.0
H265 H 0.91888 0.45336 0.55421 0.0
C266 C -0.00194 0.501 0.55877 0.0
C267 C 0.03941 0.52597 0.55511 0.0
C268 C 0.97423 0.48858 0.51213 0.0
C269 C 0.05658 0.53869 0.5042 0.0
C270 C 0.03309 0.52651 0.45772 0.0
C271 C 0.96812 0.48861 0.41448 0.0
C272 C 0.92681 0.46344 0.41809 0.0
C273 C -0.0081 0.50131 0.46115 0.0
C274 C 0.90957 0.45109 0.46904 0.0
C275 C 0.93302 0.46347 0.51556 0.0
loop_
_geom_bond_atom_site_label_1
_geom_bond_atom_site_label_2
_geom_bond_distance
_geom_bond_site_symmetry_2
_ccdc_geom_bond_type
O0 Cd1 2.223 . S
O0 C8 1.315 . S
Cd1 O0 2.223 . S
Cd1 O4 2.297 . S
Cd1 O5 2.439 . S
Cd1 O11 2.240 . S
Cd2 O3 2.240 . S
Cd2 O10 2.223 . S
Cd2 O12 2.297 . S
Cd2 O13 2.439 . S
O3 Cd2 2.240 . S
O3 C8 1.279 . S
O4 Cd1 2.297 . S
O4 C6 1.247 . S
O5 Cd1 2.439 . S
O5 C6 1.208 . S
C6 O4 1.247 . S
C6 O5 1.208 . S
C7 O12 1.247 . S
C7 O13 1.208 . S
C8 O0 1.315 . S
C8 O3 1.279 . S
C9 O10 1.315 . S
C9 O11 1.279 . S
O10 Cd2 2.223 . S
O10 C9 1.315 . S
O11 Cd1 2.240 . S
O11 C9 1.279 . S
O12 Cd2 2.297 . S
O12 C7 1.247 . S
O13 Cd2 2.439 . S
O13 C7 1.208 . S
O14 Cd15 2.223 . S
O14 C22 1.315 . S
Cd15 O14 2.223 . S
Cd15 O18 2.297 . S
Cd15 O19 2.439 . S
Cd15 O25 2.240 . S
Cd16 O17 2.240 . S
Cd16 O24 2.223 . S
Cd16 O26 2.297 . S
Cd16 O27 2.439 . S
O17 Cd16 2.240 . S
O17 C22 1.279 . S
O18 Cd15 2.297 . S
O18 C20 1.247 . S
O19 Cd15 2.439 . S
O19 C20 1.208 . S
C20 O18 1.247 . S
C20 O19 1.208 . S
C21 O26 1.247 . S
C21 O27 1.208 . S
C22 O14 1.315 . S
C22 O17 1.279 . S
C23 O24 1.315 . S
C23 O25 1.279 . S
O24 Cd16 2.223 . S
O24 C23 1.315 . S
O25 Cd15 2.240 . S
O25 C23 1.279 . S
O26 Cd16 2.297 . S
O26 C21 1.247 . S
O27 Cd16 2.439 . S
O27 C21 1.208 . S
O28 Cd29 2.223 . S
O28 C36 1.315 . S
Cd29 O28 2.223 . S
Cd29 O32 2.297 . S
Cd29 O33 2.439 . S
Cd29 O39 2.240 . S
Cd30 O31 2.240 . S
Cd30 O38 2.223 . S
Cd30 O40 2.297 . S
Cd30 O41 2.439 . S
O31 Cd30 2.240 . S
O31 C36 1.279 . S
O32 Cd29 2.297 . S
O32 C34 1.247 . S
O33 Cd29 2.439 . S
O33 C34 1.208 . S
C34 O32 1.247 . S
C34 O33 1.208 . S
C35 O40 1.247 . S
C35 O41 1.208 . S
C36 O28 1.315 . S
C36 O31 1.279 . S
C37 O38 1.315 . S
C37 O39 1.279 . S
O38 Cd30 2.223 . S
O38 C37 1.315 . S
O39 Cd29 2.240 . S
O39 C37 1.279 . S
O40 Cd30 2.297 . S
O40 C35 1.247 . S
O41 Cd30 2.439 . S
O41 C35 1.208 . S
O42 Cd43 2.223 . S
O42 C50 1.315 . S
Cd43 O42 2.223 . S
Cd43 O46 2.297 . S
Cd43 O47 2.439 . S
Cd43 O53 2.240 . S
Cd44 O45 2.240 . S
Cd44 O52 2.223 . S
Cd44 O54 2.297 . S
Cd44 O55 2.439 . S
O45 Cd44 2.240 . S
O45 C50 1.279 . S
O46 Cd43 2.297 . S
O46 C48 1.247 . S
O47 Cd43 2.439 . S
O47 C48 1.208 . S
C48 O46 1.247 . S
C48 O47 1.208 . S
C49 O54 1.247 . S
C49 O55 1.208 . S
C50 O42 1.315 . S
C50 O45 1.279 . S
C51 O52 1.315 . S
C51 O53 1.279 . S
O52 Cd44 2.223 . S
O52 C51 1.315 . S
O53 Cd43 2.240 . S
O53 C51 1.279 . S
O54 Cd44 2.297 . S
O54 C49 1.247 . S
O55 Cd44 2.439 . S
O55 C49 1.208 . S
O56 Cd57 2.223 . S
O56 C64 1.315 . S
Cd57 O56 2.223 . S
Cd57 O60 2.297 . S
Cd57 O61 2.439 . S
Cd57 O67 2.240 . S
Cd58 O59 2.240 . S
Cd58 O66 2.223 . S
Cd58 O68 2.297 . S
Cd58 O69 2.439 . S
O59 Cd58 2.240 . S
O59 C64 1.279 . S
O60 Cd57 2.297 . S
O60 C62 1.247 . S
O61 Cd57 2.439 . S
O61 C62 1.208 . S
C62 O60 1.247 . S
C62 O61 1.208 . S
C63 O68 1.247 . S
C63 O69 1.208 . S
C64 O56 1.315 . S
C64 O59 1.279 . S
C65 O66 1.315 . S
C65 O67 1.279 . S
O66 Cd58 2.223 . S
O66 C65 1.315 . S
O67 Cd57 2.240 . S
O67 C65 1.279 . S
O68 Cd58 2.297 . S
O68 C63 1.247 . S
O69 Cd58 2.439 . S
O69 C63 1.208 . S
O70 Cd71 2.223 . S
O70 C78 1.315 . S
Cd71 O70 2.223 . S
Cd71 O74 2.297 . S
Cd71 O75 2.439 . S
Cd71 O81 2.240 . S
Cd72 O73 2.240 . S
Cd72 O80 2.223 . S
Cd72 O82 2.297 . S
Cd72 O83 2.439 . S
O73 Cd72 2.240 . S
O73 C78 1.279 . S
O74 Cd71 2.297 . S
O74 C76 1.247 . S
O75 Cd71 2.439 . S
O75 C76 1.208 . S
C76 O74 1.247 . S
C76 O75 1.208 . S
C77 O82 1.247 . S
C77 O83 1.208 . S
C78 O70 1.315 . S
C78 O73 1.279 . S
C79 O80 1.315 . S
C79 O81 1.279 . S
O80 Cd72 2.223 . S
O80 C79 1.315 . S
O81 Cd71 2.240 . S
O81 C79 1.279 . S
O82 Cd72 2.297 . S
O82 C77 1.247 . S
O83 Cd72 2.439 . S
O83 C77 1.208 . S
H84 C90 0.930 . S
H85 C93 0.930 . S
H86 C94 0.930 . S
H87 C95 0.930 . S
H88 C98 0.930 . S
H89 C99 0.930 . S
C90 H84 0.930 . S
C90 C91 1.355 . S
C90 C92 1.415 . S
C91 C90 1.355 . S
C91 C93 1.419 . S
C92 C90 1.415 . S
C92 C97 1.425 . S
C92 C99 1.409 . S
C93 H85 0.930 . S
C93 C91 1.419 . S
C93 C94 1.362 . S
C94 H86 0.930 . S
C94 C93 1.362 . S
C94 C97 1.409 . S
C95 H87 0.930 . S
C95 C96 1.355 . S
C95 C97 1.415 . S
C96 C95 1.355 . S
C96 C98 1.419 . S
C97 C92 1.425 . S
C97 C94 1.409 . S
C97 C95 1.415 . S
C98 H88 0.930 . S
C98 C96 1.419 . S
C98 C99 1.362 . S
C99 H89 0.930 . S
C99 C92 1.409 . S
C99 C98 1.362 . S
H100 C106 0.930 . S
H101 C109 0.930 . S
H102 C110 0.930 . S
H103 C111 0.930 . S
H104 C114 0.930 . S
H105 C115 0.930 . S
C106 H100 0.930 . S
C106 C107 1.355 . S
C106 C108 1.415 . S
C107 C106 1.355 . S
C107 C109 1.419 . S
C108 C106 1.415 . S
C108 C113 1.425 . S
C108 C115 1.409 . S
C109 H101 0.930 . S
C109 C107 1.419 . S
C109 C110 1.362 . S
C110 H102 0.930 . S
C110 C109 1.362 . S
C110 C113 1.409 . S
C111 H103 0.930 . S
C111 C112 1.355 . S
C111 C113 1.415 . S
C112 C111 1.355 . S
C112 C114 1.419 . S
C113 C108 1.425 . S
C113 C110 1.409 . S
C113 C111 1.415 . S
C114 H104 0.930 . S
C114 C112 1.419 . S
C114 C115 1.362 . S
C115 H105 0.930 . S
C115 C108 1.409 . S
C115 C114 1.362 . S
H116 C122 0.930 . S
H117 C125 0.930 . S
H118 C126 0.930 . S
H119 C127 0.930 . S
H120 C130 0.930 . S
H121 C131 0.930 . S
C122 H116 0.930 . S
C122 C123 1.355 . S
C122 C124 1.415 . S
C123 C122 1.355 . S
C123 C125 1.419 . S
C124 C122 1.415 . S
C124 C129 1.425 . S
C124 C131 1.409 . S
C125 H117 0.930 . S
C125 C123 1.419 . S
C125 C126 1.362 . S
C126 H118 0.930 . S
C126 C125 1.362 . S
C126 C129 1.409 . S
C127 H119 0.930 . S
C127 C128 1.355 . S
C127 C129 1.415 . S
C128 C127 1.355 . S
C128 C130 1.419 . S
C129 C124 1.425 . S
C129 C126 1.409 . S
C129 C127 1.415 . S
C130 H120 0.930 . S
C130 C128 1.419 . S
C130 C131 1.362 . S
C131 H121 0.930 . S
C131 C124 1.409 . S
C131 C130 1.362 . S
H132 C138 0.930 . S
H133 C141 0.930 . S
H134 C142 0.930 . S
H135 C143 0.930 . S
H136 C146 0.930 . S
H137 C147 0.930 . S
C138 H132 0.930 . S
C138 C139 1.355 . S
C138 C140 1.415 . S
C139 C138 1.355 . S
C139 C141 1.419 . S
C140 C138 1.415 . S
C140 C145 1.425 . S
C140 C147 1.409 . S
C141 H133 0.930 . S
C141 C139 1.419 . S
C141 C142 1.362 . S
C142 H134 0.930 . S
C142 C141 1.362 . S
C142 C145 1.409 . S
C143 H135 0.930 . S
C143 C144 1.355 . S
C143 C145 1.415 . S
C144 C143 1.355 . S
C144 C146 1.419 . S
C145 C140 1.425 . S
C145 C142 1.409 . S
C145 C143 1.415 . S
C146 H136 0.930 . S
C146 C144 1.419 . S
C146 C147 1.362 . S
C147 H137 0.930 . S
C147 C140 1.409 . S
C147 C146 1.362 . S
H148 C154 0.930 . S
H149 C157 0.930 . S
H150 C158 0.930 . S
H151 C159 0.930 . S
H152 C162 0.930 . S
H153 C163 0.930 . S
C154 H148 0.930 . S
C154 C155 1.355 . S
C154 C156 1.415 . S
C155 C154 1.355 . S
C155 C157 1.419 . S
C156 C154 1.415 . S
C156 C161 1.425 . S
C156 C163 1.409 . S
C157 H149 0.930 . S
C157 C155 1.419 . S
C157 C158 1.362 . S
C158 H150 0.930 . S
C158 C157 1.362 . S
C158 C161 1.409 . S
C159 H151 0.930 . S
C159 C160 1.355 . S
C159 C161 1.415 . S
C160 C159 1.355 . S
C160 C162 1.419 . S
C161 C156 1.425 . S
C161 C158 1.409 . S
C161 C159 1.415 . S
C162 H152 0.930 . S
C162 C160 1.419 . S
C162 C163 1.362 . S
C163 H153 0.930 . S
C163 C156 1.409 . S
C163 C162 1.362 . S
H164 C170 0.930 . S
H165 C173 0.930 . S
H166 C174 0.930 . S
H167 C175 0.930 . S
H168 C178 0.930 . S
H169 C179 0.930 . S
C170 H164 0.930 . S
C170 C171 1.355 . S
C170 C172 1.415 . S
C171 C170 1.355 . S
C171 C173 1.419 . S
C172 C170 1.415 . S
C172 C177 1.425 . S
C172 C179 1.409 . S
C173 H165 0.930 . S
C173 C171 1.419 . S
C173 C174 1.362 . S
C174 H166 0.930 . S
C174 C173 1.362 . S
C174 C177 1.409 . S
C175 H167 0.930 . S
C175 C176 1.355 . S
C175 C177 1.415 . S
C176 C175 1.355 . S
C176 C178 1.419 . S
C177 C172 1.425 . S
C177 C174 1.409 . S
C177 C175 1.415 . S
C178 H168 0.930 . S
C178 C176 1.419 . S
C178 C179 1.362 . S
C179 H169 0.930 . S
C179 C172 1.409 . S
C179 C178 1.362 . S
H180 C186 0.930 . S
H181 C189 0.930 . S
H182 C190 0.930 . S
H183 C191 0.930 . S
H184 C194 0.930 . S
H185 C195 0.930 . S
C186 H180 0.930 . S
C186 C187 1.355 . S
C186 C188 1.415 1_556 S
C187 C186 1.355 . S
C187 C189 1.419 1_565 S
C188 C186 1.415 1_554 S
C188 C193 1.425 1_564 S
C188 C195 1.409 . S
C189 H181 0.930 . S
C189 C187 1.419 1_545 S
C189 C190 1.362 . S
C190 H182 0.930 . S
C190 C189 1.362 . S
C190 C193 1.409 . S
C191 H183 0.930 . S
C191 C192 1.355 . S
C191 C193 1.415 1_554 S
C192 C191 1.355 . S
C192 C194 1.419 1_545 S
C193 C188 1.425 1_546 S
C193 C190 1.409 . S
C193 C191 1.415 1_556 S
C194 H184 0.930 . S
C194 C192 1.419 1_565 S
C194 C195 1.362 . S
C195 H185 0.930 . S
C195 C188 1.409 . S
C195 C194 1.362 . S
H196 C202 0.930 . S
H197 C205 0.930 . S
H198 C206 0.930 . S
H199 C207 0.930 . S
H200 C210 0.930 . S
H201 C211 0.930 . S
C202 H196 0.930 . S
C202 C203 1.355 . S
C202 C204 1.415 . S
C203 C202 1.355 . S
C203 C205 1.419 . S
C204 C202 1.415 . S
C204 C209 1.425 . S
C204 C211 1.409 . S
C205 H197 0.930 . S
C205 C203 1.419 . S
C205 C206 1.362 . S
C206 H198 0.930 . S
C206 C205 1.362 . S
C206 C209 1.409 . S
C207 H199 0.930 . S
C207 C208 1.355 . S
C207 C209 1.415 . S
C208 C207 1.355 . S
C208 C210 1.419 . S
C209 C204 1.425 . S
C209 C206 1.409 . S
C209 C207 1.415 . S
C210 H200 0.930 . S
C210 C208 1.419 . S
C210 C211 1.362 . S
C211 H201 0.930 . S
C211 C204 1.409 . S
C211 C210 1.362 . S
H212 C218 0.930 . S
H213 C221 0.930 . S
H214 C222 0.930 . S
H215 C223 0.930 . S
H216 C226 0.930 . S
H217 C227 0.930 . S
C218 H212 0.930 . S
C218 C219 1.355 . S
C218 C220 1.415 1_556 S
C219 C218 1.355 . S
C219 C221 1.419 1_455 S
C220 C218 1.415 1_554 S
C220 C225 1.425 1_454 S
C220 C227 1.409 . S
C221 H213 0.930 . S
C221 C219 1.419 1_655 S
C221 C222 1.362 . S
C222 H214 0.930 . S
C222 C221 1.362 . S
C222 C225 1.409 . S
C223 H215 0.930 . S
C223 C224 1.355 . S
C223 C225 1.415 1_554 S
C224 C223 1.355 . S
C224 C226 1.419 1_655 S
C225 C220 1.425 1_656 S
C225 C222 1.409 . S
C225 C223 1.415 1_556 S
C226 H216 0.930 . S
C226 C224 1.419 1_455 S
C226 C227 1.362 . S
C227 H217 0.930 . S
C227 C220 1.409 . S
C227 C226 1.362 . S
H228 C234 0.930 . S
H229 C237 0.930 . S
H230 C238 0.930 . S
H231 C239 0.930 . S
H232 C242 0.930 . S
H233 C243 0.930 . S
C234 H228 0.930 . S
C234 C235 1.355 . S
C234 C236 1.415 . S
C235 C234 1.355 . S
C235 C237 1.419 1_545 S
C236 C234 1.415 . S
C236 C241 1.425 1_545 S
C236 C243 1.409 . S
C237 H229 0.930 . S
C237 C235 1.419 1_565 S
C237 C238 1.362 . S
C238 H230 0.930 . S
C238 C237 1.362 . S
C238 C241 1.409 . S
C239 H231 0.930 . S
C239 C240 1.355 . S
C239 C241 1.415 . S
C240 C239 1.355 . S
C240 C242 1.419 1_565 S
C241 C236 1.425 1_565 S
C241 C238 1.409 . S
C241 C239 1.415 . S
C242 H232 0.930 . S
C242 C240 1.419 1_545 S
C242 C243 1.362 . S
C243 H233 0.930 . S
C243 C236 1.409 . S
C243 C242 1.362 . S
H244 C250 0.930 . S
H245 C253 0.930 . S
H246 C254 0.930 . S
H247 C255 0.930 . S
H248 C258 0.930 . S
H249 C259 0.930 . S
C250 H244 0.930 . S
C250 C251 1.355 . S
C250 C252 1.415 . S
C251 C250 1.355 . S
C251 C253 1.419 . S
C252 C250 1.415 . S
C252 C257 1.425 1_556 S
C252 C259 1.409 1_556 S
C253 H245 0.930 . S
C253 C251 1.419 . S
C253 C254 1.362 . S
C254 H246 0.930 . S
C254 C253 1.362 . S
C254 C257 1.409 1_556 S
C255 H247 0.930 . S
C255 C256 1.355 . S
C255 C257 1.415 . S
C256 C255 1.355 . S
C256 C258 1.419 . S
C257 C252 1.425 1_554 S
C257 C254 1.409 1_554 S
C257 C255 1.415 . S
C258 H248 0.930 . S
C258 C256 1.419 . S
C258 C259 1.362 . S
C259 H249 0.930 . S
C259 C252 1.409 1_554 S
C259 C258 1.362 . S
H260 C266 0.930 1_655 S
H261 C269 0.930 . S
H262 C270 0.930 . S
H263 C271 0.930 1_455 S
H264 C274 0.930 . S
H265 C275 0.930 . S
C266 H260 0.930 1_455 S
C266 C267 1.355 . S
C266 C268 1.415 1_455 S
C267 C266 1.355 . S
C267 C269 1.419 . S
C268 C266 1.415 1_655 S
C268 C273 1.425 1_655 S
C268 C275 1.409 . S
C269 H261 0.930 . S
C269 C267 1.419 . S
C269 C270 1.362 . S
C270 H262 0.930 . S
C270 C269 1.362 . S
C270 C273 1.409 . S
C271 H263 0.930 1_655 S
C271 C272 1.355 . S
C271 C273 1.415 1_655 S
C272 C271 1.355 . S
C272 C274 1.419 . S
C273 C268 1.425 1_455 S
C273 C270 1.409 . S
C273 C271 1.415 1_455 S
C274 H264 0.930 . S
C274 C272 1.419 . S
C274 C275 1.362 . S
C275 H265 0.930 . S
C275 C268 1.409 . S
C275 C274 1.362 . S
C91 C9 1.353 . S
C96 C64 1.392 . S
C107 C23 1.354 . S
C112 C78 1.379 . S
C123 C8 1.394 . S
C128 C36 1.383 . S
C139 C50 1.399 . S
C144 C22 1.372 . S
C155 C65 1.353 . S
C160 C37 1.381 . S
C171 C51 1.385 . S
C176 C79 1.352 . S
C187 C49 1.483 . S
C192 C7 1.457 . S
C203 C62 1.441 . S
C208 C21 1.410 . S
C219 C76 1.467 . S
C224 C34 1.480 . S
C235 C6 1.484 . S
C240 C48 1.452 . S
C251 C20 1.473 . S
C256 C63 1.424 . S
C267 C77 1.412 . S
C272 C35 1.435 . S
