# Generated by pormake.
# Topology ukp, (4)-cn, num edge types: 1
# Building blocks:
#     Node 0, Type 0, BuildingBlock: GALJAG_clean_sbu_0, # of connection points: 4
#     Node 1, Type 0, BuildingBlock: GALJAG_clean_sbu_0, # of connection points: 4
#     Node 2, Type 0, BuildingBlock: GALJAG_clean_sbu_0, # of connection points: 4
#     Node 3, Type 0, BuildingBlock: GALJAG_clean_sbu_0, # of connection points: 4
#     Node 4, Type 0, BuildingBlock: GALJAG_clean_sbu_0, # of connection points: 4
#     Node 5, Type 0, BuildingBlock: GALJAG_clean_sbu_0, # of connection points: 4
#     Node 6, Type 0, BuildingBlock: GALJAG_clean_sbu_0, # of connection points: 4
#     Node 7, Type 0, BuildingBlock: GALJAG_clean_sbu_0, # of connection points: 4
#     Node 8, Type 0, BuildingBlock: GALJAG_clean_sbu_0, # of connection points: 4
#     Node 9, Type 0, BuildingBlock: GALJAG_clean_sbu_0, # of connection points: 4
#     Node 10, Type 0, BuildingBlock: GALJAG_clean_sbu_0, # of connection points: 4
#     Node 11, Type 0, BuildingBlock: GALJAG_clean_sbu_0, # of connection points: 4
#     Node 12, Type 0, BuildingBlock: GALJAG_clean_sbu_0, # of connection points: 4
#     Node 13, Type 0, BuildingBlock: GALJAG_clean_sbu_0, # of connection points: 4
#     Node 14, Type 0, BuildingBlock: GALJAG_clean_sbu_0, # of connection points: 4
#     Node 15, Type 0, BuildingBlock: GALJAG_clean_sbu_0, # of connection points: 4
#     Node 16, Type 0, BuildingBlock: GALJAG_clean_sbu_0, # of connection points: 4
#     Node 17, Type 0, BuildingBlock: GALJAG_clean_sbu_0, # of connection points: 4
#     Node 18, Type 0, BuildingBlock: GALJAG_clean_sbu_0, # of connection points: 4
#     Node 19, Type 0, BuildingBlock: GALJAG_clean_sbu_0, # of connection points: 4
#     Node 20, Type 0, BuildingBlock: GALJAG_clean_sbu_0, # of connection points: 4
#     Node 21, Type 0, BuildingBlock: GALJAG_clean_sbu_0, # of connection points: 4
#     Node 22, Type 0, BuildingBlock: GALJAG_clean_sbu_0, # of connection points: 4
#     Node 23, Type 0, BuildingBlock: GALJAG_clean_sbu_0, # of connection points: 4
#     Node 24, Type 0, BuildingBlock: GALJAG_clean_sbu_0, # of connection points: 4
#     Node 25, Type 0, BuildingBlock: GALJAG_clean_sbu_0, # of connection points: 4
#     Node 26, Type 0, BuildingBlock: GALJAG_clean_sbu_0, # of connection points: 4
#     Node 27, Type 0, BuildingBlock: GALJAG_clean_sbu_0, # of connection points: 4
#     Node 28, Type 0, BuildingBlock: GALJAG_clean_sbu_0, # of connection points: 4
#     Node 29, Type 0, BuildingBlock: GALJAG_clean_sbu_0, # of connection points: 4
#     Node 30, Type 0, BuildingBlock: GALJAG_clean_sbu_0, # of connection points: 4
#     Node 31, Type 0, BuildingBlock: GALJAG_clean_sbu_0, # of connection points: 4
#     Node 32, Type 0, BuildingBlock: GALJAG_clean_sbu_0, # of connection points: 4
#     Node 33, Type 0, BuildingBlock: GALJAG_clean_sbu_0, # of connection points: 4
#     Node 34, Type 0, BuildingBlock: GALJAG_clean_sbu_0, # of connection points: 4
#     Node 35, Type 0, BuildingBlock: GALJAG_clean_sbu_0, # of connection points: 4
#     Node 36, Type 0, BuildingBlock: GALJAG_clean_sbu_0, # of connection points: 4
#     Node 37, Type 0, BuildingBlock: GALJAG_clean_sbu_0, # of connection points: 4
#     Node 38, Type 0, BuildingBlock: GALJAG_clean_sbu_0, # of connection points: 4
#     Node 39, Type 0, BuildingBlock: GALJAG_clean_sbu_0, # of connection points: 4
#     Node 40, Type 0, BuildingBlock: GALJAG_clean_sbu_0, # of connection points: 4
#     Node 41, Type 0, BuildingBlock: GALJAG_clean_sbu_0, # of connection points: 4
#     Node 42, Type 0, BuildingBlock: GALJAG_clean_sbu_0, # of connection points: 4
#     Node 43, Type 0, BuildingBlock: GALJAG_clean_sbu_0, # of connection points: 4
#     Node 44, Type 0, BuildingBlock: GALJAG_clean_sbu_0, # of connection points: 4
#     Node 45, Type 0, BuildingBlock: GALJAG_clean_sbu_0, # of connection points: 4
#     Node 46, Type 0, BuildingBlock: GALJAG_clean_sbu_0, # of connection points: 4
#     Node 47, Type 0, BuildingBlock: GALJAG_clean_sbu_0, # of connection points: 4
#     Edge 48, Type (0, 0), BuildingBlock: AJUNOK_clean_linker_0, # of connection points: 2
#     Edge 49, Type (0, 0), BuildingBlock: AJUNOK_clean_linker_0, # of connection points: 2
#     Edge 50, Type (0, 0), BuildingBlock: AJUNOK_clean_linker_0, # of connection points: 2
#     Edge 51, Type (0, 0), BuildingBlock: AJUNOK_clean_linker_0, # of connection points: 2
#     Edge 52, Type (0, 0), BuildingBlock: AJUNOK_clean_linker_0, # of connection points: 2
#     Edge 53, Type (0, 0), BuildingBlock: AJUNOK_clean_linker_0, # of connection points: 2
#     Edge 54, Type (0, 0), BuildingBlock: AJUNOK_clean_linker_0, # of connection points: 2
#     Edge 55, Type (0, 0), BuildingBlock: AJUNOK_clean_linker_0, # of connection points: 2
#     Edge 56, Type (0, 0), BuildingBlock: AJUNOK_clean_linker_0, # of connection points: 2
#     Edge 57, Type (0, 0), BuildingBlock: AJUNOK_clean_linker_0, # of connection points: 2
#     Edge 58, Type (0, 0), BuildingBlock: AJUNOK_clean_linker_0, # of connection points: 2
#     Edge 59, Type (0, 0), BuildingBlock: AJUNOK_clean_linker_0, # of connection points: 2
#     Edge 60, Type (0, 0), BuildingBlock: AJUNOK_clean_linker_0, # of connection points: 2
#     Edge 61, Type (0, 0), BuildingBlock: AJUNOK_clean_linker_0, # of connection points: 2
#     Edge 62, Type (0, 0), BuildingBlock: AJUNOK_clean_linker_0, # of connection points: 2
#     Edge 63, Type (0, 0), BuildingBlock: AJUNOK_clean_linker_0, # of connection points: 2
#     Edge 64, Type (0, 0), BuildingBlock: AJUNOK_clean_linker_0, # of connection points: 2
#     Edge 65, Type (0, 0), BuildingBlock: AJUNOK_clean_linker_0, # of connection points: 2
#     Edge 66, Type (0, 0), BuildingBlock: AJUNOK_clean_linker_0, # of connection points: 2
#     Edge 67, Type (0, 0), BuildingBlock: AJUNOK_clean_linker_0, # of connection points: 2
#     Edge 68, Type (0, 0), BuildingBlock: AJUNOK_clean_linker_0, # of connection points: 2
#     Edge 69, Type (0, 0), BuildingBlock: AJUNOK_clean_linker_0, # of connection points: 2
#     Edge 70, Type (0, 0), BuildingBlock: AJUNOK_clean_linker_0, # of connection points: 2
#     Edge 71, Type (0, 0), BuildingBlock: AJUNOK_clean_linker_0, # of connection points: 2
#     Edge 72, Type (0, 0), BuildingBlock: AJUNOK_clean_linker_0, # of connection points: 2
#     Edge 73, Type (0, 0), BuildingBlock: AJUNOK_clean_linker_0, # of connection points: 2
#     Edge 74, Type (0, 0), BuildingBlock: AJUNOK_clean_linker_0, # of connection points: 2
#     Edge 75, Type (0, 0), BuildingBlock: AJUNOK_clean_linker_0, # of connection points: 2
#     Edge 76, Type (0, 0), BuildingBlock: AJUNOK_clean_linker_0, # of connection points: 2
#     Edge 77, Type (0, 0), BuildingBlock: AJUNOK_clean_linker_0, # of connection points: 2
#     Edge 78, Type (0, 0), BuildingBlock: AJUNOK_clean_linker_0, # of connection points: 2
#     Edge 79, Type (0, 0), BuildingBlock: AJUNOK_clean_linker_0, # of connection points: 2
#     Edge 80, Type (0, 0), BuildingBlock: AJUNOK_clean_linker_0, # of connection points: 2
#     Edge 81, Type (0, 0), BuildingBlock: AJUNOK_clean_linker_0, # of connection points: 2
#     Edge 82, Type (0, 0), BuildingBlock: AJUNOK_clean_linker_0, # of connection points: 2
#     Edge 83, Type (0, 0), BuildingBlock: AJUNOK_clean_linker_0, # of connection points: 2
#     Edge 84, Type (0, 0), BuildingBlock: AJUNOK_clean_linker_0, # of connection points: 2
#     Edge 85, Type (0, 0), BuildingBlock: AJUNOK_clean_linker_0, # of connection points: 2
#     Edge 86, Type (0, 0), BuildingBlock: AJUNOK_clean_linker_0, # of connection points: 2
#     Edge 87, Type (0, 0), BuildingBlock: AJUNOK_clean_linker_0, # of connection points: 2
#     Edge 88, Type (0, 0), BuildingBlock: AJUNOK_clean_linker_0, # of connection points: 2
#     Edge 89, Type (0, 0), BuildingBlock: AJUNOK_clean_linker_0, # of connection points: 2
#     Edge 90, Type (0, 0), BuildingBlock: AJUNOK_clean_linker_0, # of connection points: 2
#     Edge 91, Type (0, 0), BuildingBlock: AJUNOK_clean_linker_0, # of connection points: 2
#     Edge 92, Type (0, 0), BuildingBlock: AJUNOK_clean_linker_0, # of connection points: 2
#     Edge 93, Type (0, 0), BuildingBlock: AJUNOK_clean_linker_0, # of connection points: 2
#     Edge 94, Type (0, 0), BuildingBlock: AJUNOK_clean_linker_0, # of connection points: 2
#     Edge 95, Type (0, 0), BuildingBlock: AJUNOK_clean_linker_0, # of connection points: 2
#     Edge 96, Type (0, 0), BuildingBlock: AJUNOK_clean_linker_0, # of connection points: 2
#     Edge 97, Type (0, 0), BuildingBlock: AJUNOK_clean_linker_0, # of connection points: 2
#     Edge 98, Type (0, 0), BuildingBlock: AJUNOK_clean_linker_0, # of connection points: 2
#     Edge 99, Type (0, 0), BuildingBlock: AJUNOK_clean_linker_0, # of connection points: 2
#     Edge 100, Type (0, 0), BuildingBlock: AJUNOK_clean_linker_0, # of connection points: 2
#     Edge 101, Type (0, 0), BuildingBlock: AJUNOK_clean_linker_0, # of connection points: 2
#     Edge 102, Type (0, 0), BuildingBlock: AJUNOK_clean_linker_0, # of connection points: 2
#     Edge 103, Type (0, 0), BuildingBlock: AJUNOK_clean_linker_0, # of connection points: 2
#     Edge 104, Type (0, 0), BuildingBlock: AJUNOK_clean_linker_0, # of connection points: 2
#     Edge 105, Type (0, 0), BuildingBlock: AJUNOK_clean_linker_0, # of connection points: 2
#     Edge 106, Type (0, 0), BuildingBlock: AJUNOK_clean_linker_0, # of connection points: 2
#     Edge 107, Type (0, 0), BuildingBlock: AJUNOK_clean_linker_0, # of connection points: 2
#     Edge 108, Type (0, 0), BuildingBlock: AJUNOK_clean_linker_0, # of connection points: 2
#     Edge 109, Type (0, 0), BuildingBlock: AJUNOK_clean_linker_0, # of connection points: 2
#     Edge 110, Type (0, 0), BuildingBlock: AJUNOK_clean_linker_0, # of connection points: 2
#     Edge 111, Type (0, 0), BuildingBlock: AJUNOK_clean_linker_0, # of connection points: 2
#     Edge 112, Type (0, 0), BuildingBlock: AJUNOK_clean_linker_0, # of connection points: 2
#     Edge 113, Type (0, 0), BuildingBlock: AJUNOK_clean_linker_0, # of connection points: 2
#     Edge 114, Type (0, 0), BuildingBlock: AJUNOK_clean_linker_0, # of connection points: 2
#     Edge 115, Type (0, 0), BuildingBlock: AJUNOK_clean_linker_0, # of connection points: 2
#     Edge 116, Type (0, 0), BuildingBlock: AJUNOK_clean_linker_0, # of connection points: 2
#     Edge 117, Type (0, 0), BuildingBlock: AJUNOK_clean_linker_0, # of connection points: 2
#     Edge 118, Type (0, 0), BuildingBlock: AJUNOK_clean_linker_0, # of connection points: 2
#     Edge 119, Type (0, 0), BuildingBlock: AJUNOK_clean_linker_0, # of connection points: 2
#     Edge 120, Type (0, 0), BuildingBlock: AJUNOK_clean_linker_0, # of connection points: 2
#     Edge 121, Type (0, 0), BuildingBlock: AJUNOK_clean_linker_0, # of connection points: 2
#     Edge 122, Type (0, 0), BuildingBlock: AJUNOK_clean_linker_0, # of connection points: 2
#     Edge 123, Type (0, 0), BuildingBlock: AJUNOK_clean_linker_0, # of connection points: 2
#     Edge 124, Type (0, 0), BuildingBlock: AJUNOK_clean_linker_0, # of connection points: 2
#     Edge 125, Type (0, 0), BuildingBlock: AJUNOK_clean_linker_0, # of connection points: 2
#     Edge 126, Type (0, 0), BuildingBlock: AJUNOK_clean_linker_0, # of connection points: 2
#     Edge 127, Type (0, 0), BuildingBlock: AJUNOK_clean_linker_0, # of connection points: 2
#     Edge 128, Type (0, 0), BuildingBlock: AJUNOK_clean_linker_0, # of connection points: 2
#     Edge 129, Type (0, 0), BuildingBlock: AJUNOK_clean_linker_0, # of connection points: 2
#     Edge 130, Type (0, 0), BuildingBlock: AJUNOK_clean_linker_0, # of connection points: 2
#     Edge 131, Type (0, 0), BuildingBlock: AJUNOK_clean_linker_0, # of connection points: 2
#     Edge 132, Type (0, 0), BuildingBlock: AJUNOK_clean_linker_0, # of connection points: 2
#     Edge 133, Type (0, 0), BuildingBlock: AJUNOK_clean_linker_0, # of connection points: 2
#     Edge 134, Type (0, 0), BuildingBlock: AJUNOK_clean_linker_0, # of connection points: 2
#     Edge 135, Type (0, 0), BuildingBlock: AJUNOK_clean_linker_0, # of connection points: 2
#     Edge 136, Type (0, 0), BuildingBlock: AJUNOK_clean_linker_0, # of connection points: 2
#     Edge 137, Type (0, 0), BuildingBlock: AJUNOK_clean_linker_0, # of connection points: 2
#     Edge 138, Type (0, 0), BuildingBlock: AJUNOK_clean_linker_0, # of connection points: 2
#     Edge 139, Type (0, 0), BuildingBlock: AJUNOK_clean_linker_0, # of connection points: 2
#     Edge 140, Type (0, 0), BuildingBlock: AJUNOK_clean_linker_0, # of connection points: 2
#     Edge 141, Type (0, 0), BuildingBlock: AJUNOK_clean_linker_0, # of connection points: 2
#     Edge 142, Type (0, 0), BuildingBlock: AJUNOK_clean_linker_0, # of connection points: 2
#     Edge 143, Type (0, 0), BuildingBlock: AJUNOK_clean_linker_0, # of connection points: 2
# Relax obj value: 0.195
# Max RMSD: 0.253
# Mean RMSD: 0.253
data_MOF--net-ukp--node1-GALJAG_clean_sbu_0--edge1-AJUNOK_clean_linker_0
_symmetry_space_group_name_H-M    P1
_symmetry_Int_Tables_number       1
_symmetry_cell_setting            triclinic
loop_
_symmetry_equiv_pos_as_xyz
'x, y, z'
_cell_length_a     45.996302
_cell_length_b     46.003507
_cell_length_c     46.009947
_cell_angle_alpha  90.000204
_cell_angle_beta   89.990042
_cell_angle_gamma 89.972471
loop_
_atom_site_label
_atom_site_type_symbol
_atom_site_fract_x
_atom_site_fract_y
_atom_site_fract_z
_atom_type_partial_charge
In0 In 0.20646 0.27207 0.39118 0.0
O1 O 0.16708 0.24158 0.39255 0.0
O2 O 0.191 0.24883 0.43167 0.0
C3 C 0.20801 0.30332 0.342 0.0
C4 C 0.19975 0.32178 0.42056 0.0
C5 C 0.25171 0.238 0.37673 0.0
O6 O 0.18704 0.28609 0.34714 0.0
O7 O 0.22765 0.30377 0.3611 0.0
O8 O 0.25298 0.25617 0.39739 0.0
O9 O 0.22706 0.23587 0.36489 0.0
C10 C 0.16989 0.23628 0.41941 0.0
O11 O 0.22202 0.30595 0.4244 0.0
O12 O 0.18063 0.31139 0.40379 0.0
In13 In 0.97621 0.95272 0.64745 0.0
O14 O 0.99488 0.90697 0.6545 0.0
O15 O 0.00575 0.94012 0.68487 0.0
C16 C 0.94296 0.9537 0.59924 0.0
C17 C 0.93009 0.95802 0.68299 0.0
C18 C 0.01561 0.99058 0.62638 0.0
O19 O 0.95949 0.93224 0.60461 0.0
O20 O 0.94358 0.97365 0.61798 0.0
O21 O 1.00017 0.99604 0.64852 0.0
O22 O 0.01225 0.96537 0.61607 0.0
C23 C 0.00827 0.91376 0.6776 0.0
O24 O 0.94747 0.97893 0.67877 0.0
O25 O 0.93661 0.93465 0.67014 0.0
In26 In 0.29374 0.74214 0.89128 0.0
O27 O 0.33233 0.77377 0.89239 0.0
O28 O 0.30972 0.76475 0.93194 0.0
C29 C 0.29193 0.71028 0.84256 0.0
C30 C 0.30928 0.69272 0.91754 0.0
C31 C 0.24469 0.77251 0.8811 0.0
O32 O 0.30942 0.73157 0.84471 0.0
O33 O 0.2752 0.70659 0.86393 0.0
O34 O 0.24658 0.7542 0.90163 0.0
O35 O 0.26809 0.77668 0.86735 0.0
C36 C 0.3307 0.77755 0.91965 0.0
O37 O 0.28475 0.70436 0.92273 0.0
O38 O 0.32587 0.70727 0.90114 0.0
In39 In 0.53558 0.04892 0.14443 0.0
O40 O 0.56319 0.02128 0.17505 0.0
O41 O 0.56674 0.06741 0.17774 0.0
C42 C 0.50476 0.00545 0.12046 0.0
C43 C 0.49695 0.08532 0.16954 0.0
C44 C 0.57278 0.05575 0.09923 0.0
O45 O 0.51941 0.0022 0.14349 0.0
O46 O 0.50452 0.03096 0.11047 0.0
O47 O 0.54813 0.06799 0.09951 0.0
O48 O 0.57873 0.04204 0.12204 0.0
C49 C 0.57585 0.04294 0.18633 0.0
O50 O 0.51611 0.09412 0.15186 0.0
O51 O 0.49729 0.05827 0.17421 0.0
In52 In 0.2002 0.73472 0.11156 0.0
O53 O 0.21568 0.70041 0.07857 0.0
O54 O 0.1743 0.69553 0.0993 0.0
C55 C 0.24354 0.77079 0.1267 0.0
C56 C 0.16171 0.76827 0.08284 0.0
C57 C 0.20579 0.70321 0.16021 0.0
O58 O 0.2456 0.75351 0.1053 0.0
O59 O 0.21891 0.77108 0.13892 0.0
O60 O 0.18477 0.72096 0.15726 0.0
O61 O 0.22346 0.70243 0.13925 0.0
C62 C 0.19332 0.68476 0.08268 0.0
O63 O 0.15651 0.75839 0.10806 0.0
O64 O 0.18643 0.76168 0.07277 0.0
In65 In 0.5182 0.95263 0.37068 0.0
O66 O 0.49275 0.91008 0.36611 0.0
O67 O 0.4848 0.94392 0.33544 0.0
C68 C 0.55145 0.95116 0.41874 0.0
C69 C 0.56362 0.94389 0.33505 0.0
C70 C 0.48679 0.99863 0.38825 0.0
O71 O 0.52933 0.93483 0.41629 0.0
O72 O 0.55633 0.96734 0.3972 0.0
O73 O 0.50333 0.99971 0.36622 0.0
O74 O 0.48527 0.97401 0.40029 0.0
C75 C 0.47907 0.91834 0.34365 0.0
O76 O 0.55183 0.96874 0.33721 0.0
O77 O 0.55155 0.9241 0.34977 0.0
In78 In 0.29206 0.2839 0.60393 0.0
O79 O 0.26206 0.31126 0.57508 0.0
O80 O 0.3076 0.3136 0.56768 0.0
C81 C 0.25423 0.24667 0.62906 0.0
C82 C 0.33352 0.24901 0.58155 0.0
C83 C 0.29594 0.32377 0.64689 0.0
O84 O 0.24984 0.25752 0.60417 0.0
O85 O 0.27799 0.25397 0.64059 0.0
O86 O 0.31415 0.30324 0.64468 0.0
O87 O 0.27679 0.32409 0.6274 0.0
C88 C 0.28266 0.32309 0.56128 0.0
O89 O 0.3392 0.26916 0.59939 0.0
O90 O 0.30691 0.24649 0.57516 0.0
In91 In 0.97644 0.03326 0.84618 0.0
O92 O 0.99539 0.07926 0.84416 0.0
O93 O 0.01612 0.04623 0.81935 0.0
C94 C 0.93666 0.0394 0.88924 0.0
C95 C 0.93702 0.02977 0.80279 0.0
C96 C 0.00831 0.98924 0.86871 0.0
O97 O 0.96037 0.05334 0.88945 0.0
O98 O 0.93334 0.0231 0.86759 0.0
O99 O 0.99732 0.98796 0.84354 0.0
O100 O 0.00387 0.0129 0.88178 0.0
C101 C 0.01574 0.07263 0.82689 0.0
O102 O 0.94803 0.00742 0.81444 0.0
O103 O 0.94769 0.05352 0.8115 0.0
In104 In 0.39659 0.20231 0.27145 0.0
O105 O 0.43007 0.22184 0.3031 0.0
O106 O 0.41545 0.17812 0.30903 0.0
C107 C 0.37532 0.24174 0.23413 0.0
C108 C 0.42447 0.16498 0.2362 0.0
C109 C 0.35087 0.2058 0.30738 0.0
O110 O 0.39784 0.24659 0.24935 0.0
O111 O 0.36471 0.21656 0.23689 0.0
O112 O 0.35362 0.1844 0.29007 0.0
O113 O 0.37031 0.22502 0.30537 0.0
C114 C 0.43013 0.19916 0.31884 0.0
O115 O 0.40081 0.15842 0.24875 0.0
O116 O 0.43361 0.19043 0.24128 0.0
In117 In 0.05647 0.13021 0.51823 0.0
O118 O 0.09653 0.13479 0.48904 0.0
O119 O 0.06916 0.17189 0.49593 0.0
C120 C 0.05336 0.08293 0.55182 0.0
C121 C 0.06557 0.15852 0.5678 0.0
C122 C 0.01352 0.11421 0.48241 0.0
O123 O 0.07399 0.08574 0.53358 0.0
O124 O 0.03453 0.10288 0.55163 0.0
O125 O 0.01075 0.13524 0.50008 0.0
O126 O 0.03843 0.10265 0.48196 0.0
C127 C 0.09175 0.16153 0.4842 0.0
O128 O 0.04196 0.16195 0.55382 0.0
O129 O 0.0846 0.14299 0.55535 0.0
In130 In 0.09257 0.78615 0.783 0.0
O131 O 0.06613 0.75591 0.81262 0.0
O132 O 0.05464 0.8006 0.81113 0.0
C133 C 0.1158 0.74659 0.74607 0.0
C134 C 0.06838 0.82735 0.74867 0.0
C135 C 0.13711 0.79426 0.82098 0.0
O136 O 0.09186 0.74244 0.75893 0.0
O137 O 0.12738 0.77083 0.75138 0.0
O138 O 0.13453 0.80938 0.79817 0.0
O139 O 0.11722 0.77588 0.82451 0.0
C140 C 0.05018 0.77602 0.82243 0.0
O141 O 0.08587 0.83332 0.76903 0.0
O142 O 0.06338 0.80053 0.74545 0.0
In143 In 0.46527 0.85871 0.01715 0.0
O144 O 0.47764 0.82395 0.05106 0.0
O145 O 0.44031 0.85081 0.05824 0.0
C146 C 0.51102 0.86827 0.9818 0.0
C147 C 0.42308 0.83488 0.98416 0.0
C148 C 0.47362 0.90787 0.04735 0.0
O149 O 0.51087 0.84784 1.00031 0.0
O150 O 0.48727 0.88186 0.97971 0.0
O151 O 0.45127 0.90471 0.03142 0.0
O152 O 0.49121 0.88685 0.04698 0.0
C153 C 0.45712 0.83138 0.06796 0.0
O154 O 0.42437 0.862 0.98869 0.0
O155 O 0.44324 0.82017 0.99565 0.0
In156 In 0.38964 0.80289 0.23045 0.0
O157 O 0.39112 0.84653 0.2543 0.0
O158 O 0.42295 0.81456 0.26498 0.0
C159 C 0.34377 0.80343 0.19394 0.0
C160 C 0.42788 0.80882 0.18671 0.0
C161 C 0.37241 0.75882 0.26478 0.0
O162 O 0.34531 0.82105 0.2151 0.0
O163 O 0.36471 0.7859 0.19203 0.0
O164 O 0.39497 0.75717 0.24904 0.0
O165 O 0.3592 0.78283 0.26346 0.0
C166 C 0.41318 0.83987 0.26941 0.0
O167 O 0.4234 0.78431 0.19848 0.0
O168 O 0.41438 0.82977 0.19821 0.0
In169 In 0.45651 0.1479 0.48821 0.0
O170 O 0.41311 0.15256 0.51175 0.0
O171 O 0.44503 0.18576 0.51751 0.0
C172 C 0.45669 0.10062 0.45414 0.0
C173 C 0.45018 0.18119 0.44083 0.0
C174 C 0.49813 0.12963 0.52494 0.0
O175 O 0.43774 0.10367 0.474 0.0
O176 O 0.47528 0.12068 0.45253 0.0
O177 O 0.50186 0.15127 0.50823 0.0
O178 O 0.47315 0.11831 0.52367 0.0
C179 C 0.41968 0.17675 0.52323 0.0
O180 O 0.47457 0.1795 0.45369 0.0
O181 O 0.42965 0.16783 0.45325 0.0
In182 In 0.11658 0.19732 0.737 0.0
O183 O 0.11572 0.15497 0.76281 0.0
O184 O 0.0794 0.18374 0.76637 0.0
C185 C 0.16285 0.20278 0.70216 0.0
C186 C 0.08639 0.18347 0.68946 0.0
C187 C 0.13084 0.24368 0.76921 0.0
O188 O 0.16318 0.18478 0.72316 0.0
O189 O 0.14007 0.21786 0.6999 0.0
O190 O 0.10889 0.24369 0.75245 0.0
O191 O 0.14402 0.21963 0.77105 0.0
C192 C 0.09055 0.1595 0.77318 0.0
O193 O 0.08252 0.20784 0.70193 0.0
O194 O 0.10338 0.16626 0.70254 0.0
In195 In 0.03105 0.84518 0.97586 0.0
O196 O 0.07835 0.84091 0.99025 0.0
O197 O 0.04646 0.81859 0.01506 0.0
C198 C 0.03936 0.88911 0.93715 0.0
C199 C 0.02197 0.80183 0.93728 0.0
C200 C 0.98776 0.8678 0.00871 0.0
O201 O 0.04945 0.89005 0.96265 0.0
O202 O 0.02624 0.86594 0.93122 0.0
O203 O 0.98571 0.84317 0.99669 0.0
O204 O 0.0119 0.88016 0.00502 0.0
C205 C 0.07308 0.82439 0.01154 0.0
O206 O 0.00148 0.81728 0.94715 0.0
O207 O 0.04645 0.8069 0.94862 0.0
In208 In 0.26782 0.38278 0.19236 0.0
O209 O 0.30195 0.417 0.2043 0.0
O210 O 0.30272 0.39743 0.1621 0.0
C211 C 0.23525 0.3682 0.23838 0.0
C212 C 0.23017 0.40995 0.15712 0.0
C213 C 0.30281 0.33633 0.1959 0.0
O214 O 0.25269 0.38955 0.23895 0.0
O215 O 0.23319 0.35559 0.21408 0.0
O216 O 0.28336 0.33782 0.17629 0.0
O217 O 0.30361 0.35756 0.21321 0.0
C218 C 0.31481 0.4145 0.17996 0.0
O219 O 0.23661 0.38337 0.1535 0.0
O220 O 0.2423 0.42226 0.17846 0.0
In221 In 0.77759 0.09437 0.7894 0.0
O222 O 0.80885 0.0707 0.75854 0.0
O223 O 0.80921 0.0589 0.80318 0.0
C224 C 0.73793 0.11575 0.75133 0.0
C225 C 0.74549 0.0672 0.83048 0.0
C226 C 0.81323 0.14071 0.7968 0.0
O227 O 0.75113 0.09201 0.74709 0.0
O228 O 0.74439 0.12813 0.77488 0.0
O229 O 0.79175 0.13627 0.81341 0.0
O230 O 0.81658 0.12176 0.77739 0.0
C231 C 0.82035 0.05553 0.77835 0.0
O232 O 0.76311 0.08744 0.83651 0.0
O233 O 0.74405 0.06095 0.80377 0.0
In234 In 0.13381 0.51988 0.04554 0.0
O235 O 0.16805 0.55358 0.03226 0.0
O236 O 0.15205 0.5528 0.07597 0.0
C237 C 0.1159 0.48846 0.99993 0.0
C238 C 0.16098 0.48063 0.07905 0.0
C239 C 0.08853 0.55649 0.04557 0.0
O240 O 0.13793 0.50499 0.99845 0.0
O241 O 0.10428 0.48687 0.02473 0.0
O242 O 0.08985 0.53583 0.06389 0.0
O243 O 0.10919 0.55764 0.02762 0.0
C244 C 0.16805 0.56518 0.05733 0.0
O245 O 0.135 0.48841 0.08413 0.0
O246 O 0.1727 0.49226 0.05708 0.0
In247 In 0.73081 0.89102 0.28942 0.0
O248 O 0.6961 0.92559 0.27858 0.0
O249 O 0.69402 0.9029 0.31903 0.0
C250 C 0.76253 0.87851 0.24202 0.0
C251 C 0.7696 0.91473 0.32628 0.0
C252 C 0.69938 0.84227 0.28399 0.0
O253 O 0.74529 0.90004 0.24282 0.0
O254 O 0.76485 0.86475 0.26568 0.0
O255 O 0.71896 0.84438 0.30338 0.0
O256 O 0.69662 0.86421 0.26779 0.0
C257 C 0.6821 0.92063 0.30181 0.0
O258 O 0.75726 0.89067 0.33151 0.0
O259 O 0.76233 0.92658 0.30257 0.0
In260 In 0.84329 0.97626 0.03053 0.0
O261 O 0.81317 0.94714 0.00365 0.0
O262 O 0.80954 0.94566 0.04968 0.0
C263 C 0.86529 0.00986 0.98752 0.0
C264 C 0.82205 0.01301 0.07136 0.0
C265 C 0.88778 0.93799 0.03624 0.0
O266 O 0.84059 0.99795 0.98567 0.0
O267 O 0.87798 0.00582 0.01145 0.0
O268 O 0.88643 0.96093 0.05133 0.0
O269 O 0.86674 0.9345 0.01918 0.0
C270 C 0.80157 0.9353 0.02556 0.0
O271 O 0.84161 0.99444 0.07664 0.0
O272 O 0.8133 0.01316 0.04532 0.0
In273 In 0.22656 0.60924 0.70828 0.0
O274 O 0.24178 0.60408 0.66121 0.0
O275 O 0.26311 0.57905 0.69369 0.0
C276 C 0.18618 0.65193 0.70502 0.0
C277 C 0.18746 0.56668 0.71763 0.0
C278 C 0.26178 0.63515 0.74745 0.0
O279 O 0.20818 0.65177 0.68845 0.0
O280 O 0.18457 0.63055 0.7219 0.0
O281 O 0.25103 0.61017 0.75154 0.0
O282 O 0.25596 0.64612 0.72303 0.0
C283 C 0.26093 0.58518 0.66701 0.0
O284 O 0.20103 0.57878 0.73827 0.0
O285 O 0.19512 0.57478 0.69255 0.0
In286 In 0.14477 0.48794 0.46324 0.0
O287 O 0.17804 0.45255 0.47511 0.0
O288 O 0.16005 0.45401 0.43223 0.0
C289 C 0.13128 0.52121 0.50942 0.0
C290 C 0.17125 0.5247 0.42658 0.0
C291 C 0.09758 0.45386 0.46473 0.0
O292 O 0.15221 0.50325 0.51 0.0
O293 O 0.11851 0.52314 0.48522 0.0
O294 O 0.09969 0.47426 0.44625 0.0
O295 O 0.11845 0.45183 0.48235 0.0
C296 C 0.17644 0.44101 0.45005 0.0
O297 O 0.14456 0.5184 0.42396 0.0
O298 O 0.18414 0.51308 0.44788 0.0
In299 In 0.36867 0.52234 0.94548 0.0
O300 O 0.36381 0.49244 0.90586 0.0
O301 O 0.32704 0.4992 0.93354 0.0
C302 C 0.41684 0.55486 0.94669 0.0
C303 C 0.3396 0.57169 0.93642 0.0
C304 C 0.38538 0.48916 0.99041 0.0
O305 O 0.41367 0.53539 0.9273 0.0
O306 O 0.39652 0.55682 0.96497 0.0
O307 O 0.36428 0.50684 0.99222 0.0
O308 O 0.39634 0.48686 0.96534 0.0
C309 C 0.3372 0.48726 0.91098 0.0
O310 O 0.3365 0.55754 0.95995 0.0
O311 O 0.35554 0.55967 0.91746 0.0
In312 In 0.72493 0.775 0.91597 0.0
O313 O 0.75269 0.8044 0.94504 0.0
O314 O 0.70682 0.80546 0.95027 0.0
C315 C 0.76594 0.73945 0.89324 0.0
C316 C 0.68326 0.73987 0.93782 0.0
C317 C 0.71889 0.81355 0.8719 0.0
O318 O 0.76902 0.75163 0.91769 0.0
O319 O 0.74184 0.74431 0.88119 0.0
O320 O 0.70205 0.79201 0.87469 0.0
O321 O 0.73813 0.81539 0.89121 0.0
C322 C 0.73107 0.81615 0.95727 0.0
O323 O 0.67863 0.75784 0.91757 0.0
O324 O 0.7092 0.73939 0.94695 0.0
In325 In 0.48738 0.45522 0.13856 0.0
O326 O 0.44907 0.46624 0.16855 0.0
O327 O 0.45014 0.42532 0.1461 0.0
C328 C 0.52306 0.49996 0.12761 0.0
C329 C 0.52039 0.4182 0.16907 0.0
C330 C 0.45662 0.46083 0.08964 0.0
O331 O 0.50397 0.50106 0.14754 0.0
O332 O 0.52494 0.47577 0.11472 0.0
O333 O 0.47451 0.43992 0.09266 0.0
O334 O 0.45612 0.47899 0.1102 0.0
C335 C 0.43596 0.44282 0.16188 0.0
O336 O 0.51744 0.41576 0.14175 0.0
O337 O 0.50735 0.43956 0.1805 0.0
In338 In 0.8057 0.23193 0.38835 0.0
O339 O 0.8486 0.25682 0.3936 0.0
O340 O 0.81503 0.26381 0.42479 0.0
C341 C 0.80511 0.19989 0.33952 0.0
C342 C 0.81164 0.18339 0.41995 0.0
C343 C 0.76054 0.26421 0.37061 0.0
O344 O 0.82333 0.22043 0.34263 0.0
O345 O 0.7879 0.1963 0.36051 0.0
O346 O 0.75892 0.24743 0.39242 0.0
O347 O 0.78541 0.26578 0.35907 0.0
C348 C 0.84044 0.27001 0.41638 0.0
O349 O 0.78865 0.19854 0.42145 0.0
O350 O 0.83179 0.19428 0.4048 0.0
In351 In 0.02895 0.54653 0.65717 0.0
O352 O 0.05854 0.51906 0.68639 0.0
O353 O 0.06063 0.56514 0.6899 0.0
C354 C 0.99227 0.50651 0.63468 0.0
C355 C 0.99352 0.58602 0.68245 0.0
C356 C 0.06701 0.5506 0.61253 0.0
O357 O 0.00529 0.50282 0.65862 0.0
O358 O 0.99701 0.53078 0.62285 0.0
O359 O 0.04641 0.56866 0.6155 0.0
O360 O 0.06816 0.53142 0.63197 0.0
C361 C 0.07072 0.54089 0.69783 0.0
O362 O 0.01034 0.59252 0.66164 0.0
O363 O 0.99442 0.55962 0.68999 0.0
In364 In 0.69403 0.21994 0.61339 0.0
O365 O 0.72337 0.19255 0.58415 0.0
O366 O 0.67757 0.18958 0.57818 0.0
C367 C 0.73826 0.25109 0.63582 0.0
C368 C 0.65571 0.25825 0.59016 0.0
C369 C 0.68759 0.1817 0.65802 0.0
O370 O 0.74 0.23828 0.61157 0.0
O371 O 0.7138 0.2491 0.64803 0.0
O372 O 0.67844 0.20757 0.65979 0.0
O373 O 0.69791 0.17522 0.63365 0.0
C374 C 0.70247 0.18018 0.57124 0.0
O375 O 0.64776 0.23798 0.60698 0.0
O376 O 0.68268 0.25904 0.58536 0.0
In377 In 0.01088 0.46435 0.85246 0.0
O378 O 0.04433 0.48075 0.8189 0.0
O379 O 0.04285 0.4357 0.82924 0.0
C380 C 0.97874 0.51077 0.86848 0.0
C381 C 0.97191 0.42592 0.83151 0.0
C382 C 0.04644 0.46329 0.8989 0.0
O383 O 0.99364 0.51061 0.84531 0.0
O384 O 0.97922 0.48717 0.88247 0.0
O385 O 0.02503 0.44608 0.89684 0.0
O386 O 0.04919 0.48073 0.87799 0.0
C387 C 0.05566 0.45583 0.81575 0.0
O388 O 0.98683 0.42109 0.8541 0.0
O389 O 0.97629 0.45043 0.81981 0.0
In390 In 0.78252 0.77722 0.09264 0.0
O391 O 0.82946 0.76136 0.08992 0.0
O392 O 0.79877 0.74299 0.06061 0.0
C393 C 0.78763 0.81526 0.13726 0.0
C394 C 0.77583 0.81877 0.05173 0.0
C395 C 0.74277 0.73909 0.11367 0.0
O396 O 0.80449 0.79366 0.13475 0.0
O397 O 0.76876 0.81724 0.11761 0.0
O398 O 0.73957 0.75181 0.0895 0.0
O399 O 0.76621 0.74509 0.12649 0.0
C400 C 0.82489 0.74392 0.06916 0.0
O401 O 0.75439 0.80798 0.06513 0.0
O402 O 0.80001 0.80734 0.05778 0.0
In403 In 0.47745 0.54385 0.35676 0.0
O404 O 0.44587 0.51919 0.32732 0.0
O405 O 0.44483 0.56553 0.327 0.0
C406 C 0.51056 0.50076 0.37881 0.0
C407 C 0.5151 0.5798 0.32955 0.0
C408 C 0.44091 0.54941 0.40234 0.0
O409 O 0.49677 0.49814 0.35515 0.0
O410 O 0.5086 0.52553 0.39043 0.0
O411 O 0.4633 0.56535 0.40014 0.0
O412 O 0.43741 0.53173 0.38183 0.0
C413 C 0.43362 0.54208 0.31816 0.0
O414 O 0.49939 0.58815 0.35059 0.0
O415 O 0.51204 0.55335 0.32282 0.0
In416 In 0.90592 0.71645 0.78088 0.0
O417 O 0.91092 0.66921 0.76652 0.0
O418 O 0.93483 0.70119 0.74337 0.0
C419 C 0.86314 0.70911 0.82087 0.0
C420 C 0.94884 0.72679 0.81955 0.0
C421 C 0.88105 0.75755 0.74683 0.0
O422 O 0.86312 0.69547 0.79701 0.0
O423 O 0.8848 0.72532 0.82448 0.0
O424 O 0.90618 0.76045 0.75755 0.0
O425 O 0.8693 0.73338 0.75214 0.0
C426 C 0.92897 0.67454 0.74652 0.0
O427 O 0.93424 0.74707 0.80808 0.0
O428 O 0.94311 0.70179 0.8098 0.0
In429 In 0.54987 0.64688 0.02619 0.0
O430 O 0.59753 0.65327 0.01329 0.0
O431 O 0.56533 0.67802 0.99116 0.0
C432 C 0.55489 0.6028 0.06487 0.0
C433 C 0.53818 0.68812 0.06618 0.0
C434 C 0.51186 0.62389 0.98762 0.0
O435 O 0.57194 0.60505 0.04338 0.0
O436 O 0.53633 0.62276 0.06668 0.0
O437 O 0.50791 0.64831 0.99959 0.0
O438 O 0.53545 0.61169 0.99439 0.0
C439 C 0.59203 0.67237 0.99427 0.0
O440 O 0.51835 0.67335 0.05422 0.0
O441 O 0.56342 0.68321 0.05662 0.0
In442 In 0.60979 0.29311 0.27126 0.0
O443 O 0.57587 0.27579 0.30386 0.0
O444 O 0.59711 0.31638 0.31205 0.0
C445 C 0.62418 0.24998 0.23416 0.0
C446 C 0.5828 0.33305 0.2381 0.0
C447 C 0.65871 0.29122 0.30291 0.0
O448 O 0.60339 0.24753 0.25207 0.0
O449 O 0.63632 0.27454 0.23417 0.0
O450 O 0.65359 0.31238 0.28596 0.0
O451 O 0.63982 0.27137 0.30285 0.0
C452 C 0.57982 0.29703 0.32103 0.0
O453 O 0.60977 0.33434 0.24332 0.0
O454 O 0.56972 0.3117 0.24933 0.0
In455 In 0.95246 0.3663 0.527 0.0
O456 O 0.90966 0.3637 0.50187 0.0
O457 O 0.94251 0.33221 0.49274 0.0
C458 C 0.95268 0.41152 0.56396 0.0
C459 C 0.94415 0.32933 0.57119 0.0
C460 C 0.99724 0.38555 0.49504 0.0
O461 O 0.93539 0.41102 0.54243 0.0
O462 O 0.96929 0.38986 0.56606 0.0
O463 O 0.9988 0.36242 0.50997 0.0
O464 O 0.97268 0.39786 0.49533 0.0
C465 C 0.91707 0.34131 0.48758 0.0
O466 O 0.96893 0.33192 0.55934 0.0
O467 O 0.92403 0.34381 0.55932 0.0
In468 In 0.88491 0.29342 0.7377 0.0
O469 O 0.92166 0.28047 0.70605 0.0
O470 O 0.89754 0.31949 0.69871 0.0
C471 C 0.87277 0.24762 0.77202 0.0
C472 C 0.90683 0.3352 0.77245 0.0
C473 C 0.83742 0.28606 0.70467 0.0
O474 O 0.89459 0.24799 0.75517 0.0
O475 O 0.85845 0.27106 0.77272 0.0
O476 O 0.83817 0.30555 0.72421 0.0
O477 O 0.85987 0.27045 0.70292 0.0
C478 C 0.91667 0.30205 0.68963 0.0
O479 O 0.88278 0.3381 0.75939 0.0
O480 O 0.91922 0.31097 0.7686 0.0
In481 In 0.95724 0.65692 0.97258 0.0
O482 O 0.90983 0.66371 0.98626 0.0
O483 O 0.94262 0.68612 0.00984 0.0
C484 C 0.94972 0.61404 0.9327 0.0
C485 C 0.96963 0.70014 0.93487 0.0
C486 C 0.99606 0.63158 0.00884 0.0
O487 O 0.93517 0.61488 0.95601 0.0
O488 O 0.96702 0.63492 0.92953 0.0
O489 O 1.00042 0.65615 0.99736 0.0
O490 O 0.97177 0.62048 0.00278 0.0
C491 C 0.91579 0.68127 0.00656 0.0
O492 O 0.98917 0.68404 0.94557 0.0
O493 O 0.94437 0.69531 0.94445 0.0
In494 In 0.60441 0.70046 0.22101 0.0
O495 O 0.57375 0.72982 0.19523 0.0
O496 O 0.56896 0.68396 0.19111 0.0
C497 C 0.62858 0.74315 0.253 0.0
C498 C 0.58114 0.66117 0.25818 0.0
C499 C 0.64768 0.69444 0.18118 0.0
O500 O 0.60449 0.74616 0.24013 0.0
O501 O 0.63968 0.7182 0.25078 0.0
O502 O 0.64926 0.68281 0.20604 0.0
O503 O 0.62421 0.70751 0.17646 0.0
C504 C 0.56103 0.7089 0.1827 0.0
O505 O 0.59887 0.65409 0.23838 0.0
O506 O 0.57566 0.68803 0.2594 0.0
In507 In 0.53956 0.35594 0.48513 0.0
O508 O 0.58133 0.35393 0.51185 0.0
O509 O 0.5502 0.32005 0.51743 0.0
C510 C 0.54098 0.40213 0.44945 0.0
C511 C 0.54987 0.32055 0.43984 0.0
C512 C 0.49392 0.37421 0.51697 0.0
O513 O 0.55786 0.40056 0.47123 0.0
O514 O 0.52369 0.3811 0.44657 0.0
O515 O 0.49268 0.35156 0.50127 0.0
O516 O 0.51846 0.38649 0.51739 0.0
C517 C 0.57486 0.33017 0.52422 0.0
O518 O 0.52469 0.32235 0.45103 0.0
O519 O 0.56928 0.33503 0.4528 0.0
In520 In 0.77024 0.89981 0.72243 0.0
O521 O 0.80283 0.93313 0.74027 0.0
O522 O 0.80077 0.92581 0.69454 0.0
C523 C 0.74011 0.88187 0.76936 0.0
C524 C 0.73031 0.92292 0.68604 0.0
C525 C 0.80729 0.85444 0.71829 0.0
O526 O 0.75545 0.90471 0.76968 0.0
O527 O 0.73907 0.86917 0.74509 0.0
O528 O 0.78408 0.8552 0.70348 0.0
O529 O 0.81107 0.87591 0.73475 0.0
C530 C 0.81323 0.93864 0.71536 0.0
O531 O 0.7442 0.89988 0.68019 0.0
O532 O 0.73612 0.93382 0.7106 0.0
In533 In 0.27363 0.61196 0.30077 0.0
O534 O 0.30277 0.58048 0.27577 0.0
O535 O 0.30801 0.58369 0.3218 0.0
C536 C 0.23823 0.63244 0.25874 0.0
C537 C 0.23799 0.58705 0.33995 0.0
C538 C 0.31093 0.65714 0.30277 0.0
O539 O 0.2528 0.60931 0.25581 0.0
O540 O 0.24027 0.6441 0.28342 0.0
O541 O 0.2911 0.65422 0.32167 0.0
O542 O 0.31182 0.63733 0.28399 0.0
C543 C 0.31663 0.57258 0.29818 0.0
O544 O 0.24907 0.61188 0.34409 0.0
O545 O 0.24469 0.57509 0.31617 0.0
In546 In 0.63953 0.02293 0.55981 0.0
O547 O 0.64596 0.00869 0.60723 0.0
O548 O 0.66739 0.98464 0.57404 0.0
C549 C 0.59575 0.06215 0.56397 0.0
C550 C 0.68179 0.06243 0.55016 0.0
C551 C 0.6166 0.98728 0.51919 0.0
O552 O 0.59607 0.0394 0.57946 0.0
O553 O 0.6175 0.06498 0.54772 0.0
O554 O 0.64141 0.99883 0.51644 0.0
O555 O 0.60398 0.99297 0.54285 0.0
C556 C 0.66267 0.98776 0.60089 0.0
O557 O 0.66815 0.05023 0.52968 0.0
O558 O 0.67549 0.0531 0.57519 0.0
In559 In 0.22549 0.39871 0.79335 0.0
O560 O 0.19321 0.43245 0.77542 0.0
O561 O 0.18412 0.41143 0.81589 0.0
C562 C 0.2614 0.3867 0.74854 0.0
C563 C 0.26066 0.42488 0.83242 0.0
C564 C 0.19492 0.34877 0.79297 0.0
O565 O 0.24267 0.40684 0.7473 0.0
O566 O 0.26257 0.37378 0.77265 0.0
O567 O 0.21127 0.3553 0.81419 0.0
O568 O 0.19504 0.36678 0.77234 0.0
C569 C 0.17555 0.42858 0.79622 0.0
O570 O 0.25652 0.39772 0.8324 0.0
O571 O 0.24673 0.43874 0.81329 0.0
In572 In 0.34875 0.48043 0.54168 0.0
O573 O 0.34405 0.49953 0.58747 0.0
O574 O 0.31716 0.51649 0.55391 0.0
C575 C 0.39276 0.4416 0.5468 0.0
C576 C 0.30721 0.43944 0.53662 0.0
C577 C 0.37193 0.51556 0.50065 0.0
O578 O 0.39127 0.46382 0.56301 0.0
O579 O 0.37235 0.43932 0.52879 0.0
O580 O 0.34793 0.50259 0.49712 0.0
O581 O 0.38354 0.51141 0.52512 0.0
C582 C 0.32421 0.51728 0.58043 0.0
O583 O 0.31834 0.45167 0.51463 0.0
O584 O 0.31576 0.44929 0.56078 0.0
In585 In 0.7317 0.10926 0.20095 0.0
O586 O 0.70414 0.08032 0.23064 0.0
O587 O 0.70164 0.07377 0.18492 0.0
C588 C 0.76811 0.13294 0.24055 0.0
C589 C 0.76559 0.08409 0.16001 0.0
C590 C 0.69129 0.15188 0.19676 0.0
O591 O 0.75613 0.10846 0.24415 0.0
O592 O 0.76257 0.14482 0.21648 0.0
O593 O 0.71351 0.15166 0.18047 0.0
O594 O 0.68987 0.13096 0.21422 0.0
C595 C 0.69227 0.06691 0.20978 0.0
O596 O 0.74696 0.10341 0.15382 0.0
O597 O 0.7675 0.0783 0.18678 0.0
In598 In 0.65958 0.9716 0.96439 0.0
O599 O 0.68584 0.94307 0.99577 0.0
O600 O 0.69714 0.94247 0.95102 0.0
C601 C 0.63735 0.01074 0.00247 0.0
C602 C 0.68366 0.00353 0.92124 0.0
C603 C 0.61528 0.93299 0.95822 0.0
O604 O 0.66166 0.99851 0.00631 0.0
O605 O 0.6248 0.00368 0.97919 0.0
O606 O 0.61813 0.95462 0.94149 0.0
O607 O 0.63474 0.93097 0.9773 0.0
C608 C 0.70165 0.93228 0.97608 0.0
O609 O 0.66462 0.98426 0.91662 0.0
O610 O 0.6902 0.00691 0.94771 0.0
In611 In 0.86515 0.01471 0.44777 0.0
O612 O 0.83169 0.04844 0.46379 0.0
O613 O 0.84541 0.04905 0.41958 0.0
C614 C 0.88034 0.98259 0.49418 0.0
C615 C 0.84056 0.97744 0.40989 0.0
C616 C 0.91277 0.0486 0.4483 0.0
O617 O 0.85844 0.99931 0.4943 0.0
O618 O 0.89346 0.98094 0.47012 0.0
O619 O 0.91076 0.02724 0.43095 0.0
O620 O 0.89127 0.05204 0.46487 0.0
C621 C 0.83086 0.06125 0.4394 0.0
O622 O 0.86396 0.99082 0.40435 0.0
O623 O 0.83019 0.98215 0.43492 0.0
C624 C 0.12193 0.17225 0.44009 0.0
C625 C 0.112 0.18024 0.46787 0.0
C626 C 0.14016 0.19084 0.42404 0.0
C627 C 0.14974 0.21742 0.43576 0.0
H628 H 0.11511 0.15184 0.43054 0.0
H629 H 0.14725 0.18416 0.4026 0.0
S630 S 0.13034 0.24771 0.50788 0.0
N631 N 0.11286 0.2164 0.50631 0.0
N632 N 0.14813 0.25059 0.47682 0.0
C633 C 0.14027 0.22532 0.46368 0.0
C634 C 0.12111 0.2069 0.47957 0.0
C635 C 0.03947 0.842 0.7048 0.0
C636 C 0.05414 0.84995 0.73047 0.0
C637 C 0.02516 0.86279 0.6876 0.0
C638 C 0.02472 0.89236 0.69547 0.0
H639 H 0.03898 0.8195 0.69792 0.0
H640 H 0.01407 0.85552 0.66814 0.0
S641 S 0.05938 0.92445 0.76102 0.0
N642 N 0.06716 0.88948 0.76303 0.0
N643 N 0.04022 0.92845 0.73095 0.0
C644 C 0.03939 0.90061 0.72108 0.0
C645 C 0.05409 0.87946 0.73849 0.0
C646 C 0.38922 0.83206 0.94138 0.0
C647 C 0.39894 0.82093 0.96817 0.0
C648 C 0.36715 0.81792 0.92554 0.0
C649 C 0.3534 0.79291 0.93656 0.0
H650 H 0.39925 0.85132 0.9323 0.0
H651 H 0.36066 0.82672 0.90469 0.0
S652 S 0.37033 0.75595 0.00624 0.0
N653 N 0.3931 0.78366 0.00506 0.0
N654 N 0.35092 0.75794 0.97612 0.0
C655 C 0.36253 0.78209 0.96366 0.0
C656 C 0.3855 0.79589 0.97925 0.0
C657 C 0.46496 0.15444 0.20142 0.0
C658 C 0.44115 0.14434 0.21781 0.0
C659 C 0.48233 0.13533 0.1852 0.0
C660 C 0.4768 0.10527 0.18495 0.0
H661 H 0.47051 0.17733 0.20136 0.0
H662 H 0.50068 0.14415 0.17337 0.0
S663 S 0.41632 0.06776 0.22305 0.0
N664 N 0.41227 0.10233 0.23179 0.0
N665 N 0.44506 0.06638 0.2016 0.0
C666 C 0.45268 0.09491 0.20071 0.0
C667 C 0.43481 0.11443 0.21703 0.0
C668 C 0.11047 0.78488 0.07395 0.0
C669 C 0.13987 0.78461 0.06547 0.0
C670 C 0.08908 0.79807 0.05657 0.0
C671 C 0.09629 0.81184 0.0302 0.0
H672 H 0.10375 0.77416 0.09382 0.0
H673 H 0.06668 0.79724 0.06377 0.0
S674 S 0.17033 0.81825 0.99868 0.0
N675 N 0.17516 0.80003 0.02921 0.0
N676 N 0.13514 0.82502 0.99685 0.0
C677 C 0.12571 0.81239 0.02185 0.0
C678 C 0.14744 0.79873 0.03938 0.0
C679 C 0.46286 0.86849 0.32895 0.0
C680 C 0.45979 0.89882 0.32666 0.0
C681 C 0.44725 0.84963 0.31073 0.0
C682 C 0.42755 0.86031 0.28985 0.0
H683 H 0.47823 0.85923 0.3442 0.0
H684 H 0.45097 0.82646 0.31278 0.0
S685 S 0.41 0.93793 0.27658 0.0
N686 N 0.43456 0.93867 0.30275 0.0
N687 N 0.40484 0.90323 0.26897 0.0
C688 C 0.4234 0.89056 0.28815 0.0
C689 C 0.43962 0.90979 0.3064 0.0
C690 C 0.34805 0.20477 0.5534 0.0
C691 C 0.35619 0.23014 0.56845 0.0
C692 C 0.36883 0.18713 0.53969 0.0
C693 C 0.39855 0.19432 0.54017 0.0
H694 H 0.3254 0.19855 0.55197 0.0
H695 H 0.36139 0.16808 0.52799 0.0
S696 S 0.43136 0.25809 0.57726 0.0
N697 N 0.39618 0.26116 0.58368 0.0
N698 N 0.43516 0.22825 0.55769 0.0
C699 C 0.40706 0.21938 0.55558 0.0
C700 C 0.38591 0.2372 0.56977 0.0
C701 C 0.04834 0.14518 0.80444 0.0
C702 C 0.07383 0.13718 0.78949 0.0
C703 C 0.03022 0.12425 0.81728 0.0
C704 C 0.0366 0.0944 0.81529 0.0
H705 H 0.04197 0.16783 0.80577 0.0
H706 H 0.01058 0.13151 0.82804 0.0
S707 S 0.10151 0.06197 0.77989 0.0
N708 N 0.10523 0.09728 0.77469 0.0
N709 N 0.071 0.05797 0.79838 0.0
C710 C 0.06244 0.08612 0.80111 0.0
C711 C 0.08111 0.10748 0.78837 0.0
C712 C 0.22276 0.45298 0.12556 0.0
C713 C 0.21205 0.42661 0.13661 0.0
C714 C 0.20613 0.46994 0.10653 0.0
C715 C 0.17778 0.46167 0.09872 0.0
H716 H 0.24432 0.46041 0.13146 0.0
H717 H 0.21531 0.49003 0.09833 0.0
S718 S 0.13953 0.39478 0.12213 0.0
N719 N 0.17163 0.39271 0.13818 0.0
N720 N 0.13961 0.4255 0.10347 0.0
C721 C 0.16663 0.43552 0.10986 0.0
C722 C 0.184 0.41771 0.12853 0.0
C723 C 0.73321 0.05741 0.88268 0.0
C724 C 0.72859 0.05137 0.85305 0.0
C725 C 0.71834 0.04208 0.90448 0.0
C726 C 0.69815 0.02014 0.89759 0.0
H727 H 0.74869 0.0739 0.88918 0.0
H728 H 0.72294 0.04738 0.92697 0.0
S729 S 0.67768 0.99624 0.82327 0.0
N730 N 0.70197 0.0221 0.81796 0.0
N731 N 0.67405 0.99343 0.85885 0.0
C732 C 0.69303 0.01411 0.86803 0.0
C733 C 0.70824 0.02967 0.84582 0.0
C734 C 0.78738 0.92348 0.37696 0.0
C735 C 0.78985 0.92886 0.34697 0.0
C736 C 0.80438 0.93881 0.39716 0.0
C737 C 0.82497 0.95954 0.38807 0.0
H738 H 0.77144 0.90812 0.38498 0.0
H739 H 0.80108 0.93466 0.4201 0.0
S740 S 0.8413 0.98004 0.31178 0.0
N741 N 0.81529 0.95545 0.30907 0.0
N742 N 0.84776 0.98362 0.3469 0.0
C743 C 0.8285 0.9642 0.35806 0.0
C744 C 0.81078 0.94904 0.33755 0.0
C745 C 0.78778 0.05264 0.08676 0.0
C746 C 0.8095 0.03232 0.09409 0.0
C747 C 0.7744 0.07 0.10804 0.0
C748 C 0.78207 0.06765 0.13756 0.0
H749 H 0.78068 0.05488 0.06442 0.0
H750 H 0.75736 0.08482 0.10134 0.0
S751 S 0.83888 0.01904 0.16811 0.0
N752 N 0.83898 0.01188 0.13296 0.0
N753 N 0.81381 0.04429 0.17283 0.0
C754 C 0.8043 0.04798 0.1451 0.0
C755 C 0.818 0.0304 0.12343 0.0
C756 C 0.29949 0.54942 0.65256 0.0
C757 C 0.27824 0.5699 0.64434 0.0
C758 C 0.31474 0.53309 0.63176 0.0
C759 C 0.30929 0.5364 0.60185 0.0
H760 H 0.30411 0.54559 0.67531 0.0
H761 H 0.3305 0.51726 0.63929 0.0
S762 S 0.25686 0.58813 0.56868 0.0
N763 N 0.25339 0.59338 0.604 0.0
N764 N 0.28188 0.56266 0.565 0.0
C765 C 0.2886 0.55731 0.59326 0.0
C766 C 0.27316 0.57405 0.61446 0.0
C767 C 0.22626 0.54269 0.3684 0.0
C768 C 0.22031 0.57196 0.36201 0.0
C769 C 0.21035 0.52775 0.38965 0.0
C770 C 0.18733 0.54128 0.40447 0.0
H771 H 0.24371 0.53142 0.35729 0.0
H772 H 0.21586 0.50531 0.39429 0.0
S773 S 0.16238 0.61722 0.395 0.0
N774 N 0.18991 0.61397 0.37211 0.0
N775 N 0.15893 0.58526 0.41108 0.0
C776 C 0.18073 0.57032 0.39792 0.0
C777 C 0.19756 0.58586 0.37692 0.0
C778 C 0.29014 0.48073 0.88517 0.0
C779 C 0.31835 0.47051 0.8911 0.0
C780 C 0.27168 0.46583 0.86604 0.0
C781 C 0.28037 0.43961 0.85303 0.0
H782 H 0.28248 0.50076 0.89493 0.0
H783 H 0.25032 0.47475 0.86162 0.0
S784 S 0.35176 0.40326 0.86195 0.0
N785 N 0.35419 0.43274 0.88235 0.0
N786 N 0.31887 0.40386 0.84748 0.0
C787 C 0.30829 0.42882 0.85919 0.0
C788 C 0.32748 0.44453 0.87794 0.0
C789 C 0.64438 0.68559 0.98669 0.0
C790 C 0.61509 0.68831 0.97825 0.0
C791 C 0.66632 0.702 0.97322 0.0
C792 C 0.65987 0.72167 0.95068 0.0
H793 H 0.65039 0.67115 0.00428 0.0
H794 H 0.68846 0.69949 0.98085 0.0
S795 S 0.58674 0.73583 0.91947 0.0
N796 N 0.58095 0.7115 0.94517 0.0
N797 N 0.62206 0.74214 0.91985 0.0
C798 C 0.63074 0.72408 0.94156 0.0
C799 C 0.60841 0.70746 0.95534 0.0
C800 C 0.57812 0.36448 0.19391 0.0
C801 C 0.56729 0.35525 0.22096 0.0
C802 C 0.56264 0.3846 0.17685 0.0
C803 C 0.53645 0.39682 0.18686 0.0
H804 H 0.5983 0.35559 0.18561 0.0
H805 H 0.57139 0.39092 0.15592 0.0
S806 S 0.4996 0.3804 0.25669 0.0
N807 N 0.52899 0.35976 0.25698 0.0
N808 N 0.50063 0.3985 0.2257 0.0
C809 C 0.5258 0.38815 0.21415 0.0
C810 C 0.54104 0.36709 0.23102 0.0
C811 C 0.90832 0.30522 0.44773 0.0
C812 C 0.89708 0.32549 0.46776 0.0
C813 C 0.88989 0.28811 0.43041 0.0
C814 C 0.85949 0.29018 0.43286 0.0
H815 H 0.9316 0.30224 0.44565 0.0
H816 H 0.89957 0.27248 0.41569 0.0
S817 S 0.81897 0.34077 0.48099 0.0
N818 N 0.85351 0.34752 0.48802 0.0
N819 N 0.81893 0.31502 0.456 0.0
C820 C 0.84795 0.31082 0.45231 0.0
C821 C 0.86672 0.32857 0.46959 0.0
C822 C 0.96211 0.65886 0.70613 0.0
C823 C 0.94356 0.65138 0.7293 0.0
C824 C 0.97761 0.63757 0.69068 0.0
C825 C 0.97534 0.60791 0.69785 0.0
H826 H 0.96501 0.68142 0.70006 0.0
H827 H 0.99192 0.64452 0.67331 0.0
S828 S 0.92919 0.57667 0.75631 0.0
N829 N 0.92333 0.61201 0.75824 0.0
N830 N 0.95245 0.57211 0.72938 0.0
C831 C 0.95645 0.60006 0.72065 0.0
C832 C 0.94058 0.62174 0.73631 0.0
C833 C 0.58587 0.28885 0.55807 0.0
C834 C 0.59533 0.314 0.54335 0.0
C835 C 0.6053 0.27153 0.57406 0.0
C836 C 0.63503 0.27845 0.57569 0.0
H837 H 0.56336 0.28211 0.55677 0.0
H838 H 0.59707 0.25202 0.58441 0.0
S839 S 0.67062 0.34307 0.54291 0.0
N840 N 0.63625 0.34583 0.53297 0.0
N841 N 0.67271 0.31318 0.56265 0.0
C842 C 0.64462 0.30405 0.56189 0.0
C843 C 0.62479 0.32184 0.54586 0.0
C844 C 0.9421 0.35206 0.81015 0.0
C845 C 0.92072 0.35885 0.78937 0.0
C846 C 0.95763 0.37397 0.82459 0.0
C847 C 0.95283 0.40353 0.81833 0.0
H848 H 0.94722 0.32959 0.81501 0.0
H849 H 0.97429 0.36761 0.83997 0.0
S850 S 0.89841 0.43295 0.76658 0.0
N851 N 0.89461 0.39733 0.76422 0.0
N852 N 0.92432 0.43849 0.7908 0.0
C853 C 0.93103 0.41066 0.79811 0.0
C854 C 0.91482 0.38834 0.7838 0.0
C855 C 0.84165 0.70774 0.03201 0.0
C856 C 0.8484 0.72696 0.05483 0.0
C857 C 0.86349 0.69261 0.01697 0.0
C858 C 0.89305 0.69617 0.02406 0.0
H859 H 0.81926 0.70456 0.02536 0.0
H860 H 0.85713 0.67842 0.99932 0.0
S861 S 0.92239 0.74318 0.08277 0.0
N862 N 0.88687 0.74807 0.08434 0.0
N863 N 0.92786 0.7198 0.0561 0.0
C864 C 0.9001 0.71492 0.0472 0.0
C865 C 0.87784 0.73026 0.06258 0.0
C866 C 0.53215 0.63005 0.31712 0.0
C867 C 0.53407 0.59985 0.31272 0.0
C868 C 0.54795 0.6496 0.29982 0.0
C869 C 0.56649 0.63977 0.2775 0.0
H870 H 0.51775 0.63878 0.33359 0.0
H871 H 0.54519 0.67266 0.3037 0.0
S872 S 0.58076 0.5627 0.25826 0.0
N873 N 0.5571 0.56097 0.28519 0.0
N874 N 0.58684 0.59765 0.25286 0.0
C875 C 0.56936 0.60959 0.27348 0.0
C876 C 0.55314 0.58966 0.29101 0.0
C877 C 0.69778 0.96443 0.67197 0.0
C878 C 0.71058 0.93749 0.66493 0.0
C879 C 0.68135 0.98006 0.65151 0.0
C880 C 0.67729 0.96949 0.62311 0.0
H881 H 0.70106 0.97396 0.69326 0.0
H882 H 0.67267 0.00106 0.65769 0.0
S883 S 0.70349 0.89875 0.59448 0.0
N884 N 0.71596 0.89991 0.62811 0.0
N885 N 0.68543 0.92939 0.58968 0.0
C886 C 0.68896 0.94209 0.61613 0.0
C887 C 0.70548 0.92606 0.63701 0.0
C888 C 0.23525 0.36252 0.29207 0.0
C889 C 0.22296 0.35522 0.26512 0.0
C890 C 0.22928 0.3461 0.31692 0.0
C891 C 0.21032 0.32209 0.31601 0.0
H892 H 0.25102 0.37992 0.29374 0.0
H893 H 0.24042 0.3518 0.33687 0.0
S894 S 0.16938 0.29636 0.25164 0.0
N895 N 0.1888 0.324 0.23944 0.0
N896 N 0.17707 0.29354 0.2866 0.0
C897 C 0.19615 0.31585 0.28974 0.0
C898 C 0.20259 0.33234 0.26419 0.0
C899 C 0.88671 0.98435 0.54772 0.0
C900 C 0.893 0.97059 0.52123 0.0
C901 C 0.90251 0.9779 0.57284 0.0
C902 C 0.92468 0.95678 0.57288 0.0
H903 H 0.8707 0.00159 0.54875 0.0
H904 H 0.89795 0.99048 0.59216 0.0
S905 S 0.94774 0.91239 0.50971 0.0
N906 N 0.92181 0.93361 0.49672 0.0
N907 N 0.95082 0.92067 0.54452 0.0
C908 C 0.93006 0.94153 0.54697 0.0
C909 C 0.91436 0.94862 0.52104 0.0
C910 C 0.29036 0.70042 0.78906 0.0
C911 C 0.2908 0.69008 0.81772 0.0
C912 C 0.28285 0.68187 0.76598 0.0
C913 C 0.27579 0.65238 0.77085 0.0
H914 H 0.2939 0.72328 0.78468 0.0
H915 H 0.281 0.69113 0.74441 0.0
S916 S 0.27934 0.61396 0.8417 0.0
N917 N 0.2875 0.64802 0.84947 0.0
N918 N 0.27377 0.61312 0.80625 0.0
C919 C 0.27871 0.64139 0.7992 0.0
C920 C 0.28609 0.66029 0.82262 0.0
C921 C 0.63549 0.03061 0.05296 0.0
C922 C 0.62297 0.02864 0.02516 0.0
C923 C 0.61984 0.04205 0.07645 0.0
C924 C 0.59115 0.05219 0.07304 0.0
H925 H 0.65686 0.0216 0.0571 0.0
H926 H 0.6297 0.04128 0.09783 0.0
S927 S 0.5501 0.0562 0.00383 0.0
N928 N 0.58143 0.04115 0.99481 0.0
N929 N 0.5521 0.06269 0.03907 0.0
C930 C 0.57934 0.05282 0.0449 0.0
C931 C 0.59522 0.04098 0.02093 0.0
C932 C 0.22782 0.6591 0.18212 0.0
C933 C 0.20997 0.68376 0.18548 0.0
C934 C 0.23484 0.64127 0.20565 0.0
C935 C 0.22501 0.64781 0.23378 0.0
H936 H 0.23708 0.65377 0.16113 0.0
H937 H 0.24949 0.62319 0.20196 0.0
S938 S 0.17607 0.70871 0.25413 0.0
N939 N 0.18088 0.71264 0.21876 0.0
N940 N 0.195 0.67966 0.26354 0.0
C941 C 0.20619 0.67173 0.23739 0.0
C942 C 0.19847 0.6896 0.21312 0.0
C943 C 0.6139 0.97325 0.46694 0.0
C944 C 0.60177 0.97206 0.49494 0.0
C945 C 0.59798 0.96447 0.44256 0.0
C946 C 0.56944 0.95377 0.44522 0.0
H947 H 0.63523 0.98262 0.46352 0.0
H948 H 0.60766 0.96734 0.42128 0.0
S949 S 0.52912 0.94238 0.51399 0.0
N950 N 0.56051 0.95648 0.52425 0.0
N951 N 0.53074 0.93968 0.47823 0.0
C952 C 0.55787 0.95022 0.47322 0.0
C953 C 0.574 0.95948 0.49814 0.0
C954 C 0.27564 0.36825 0.66998 0.0
C955 C 0.2939 0.34375 0.67201 0.0
C956 C 0.26724 0.38382 0.69475 0.0
C957 C 0.27662 0.37531 0.72253 0.0
H958 H 0.26634 0.37449 0.64924 0.0
H959 H 0.25168 0.4013 0.69222 0.0
S960 S 0.3289 0.316 0.73906 0.0
N961 N 0.32435 0.31423 0.7035 0.0
N962 N 0.30856 0.34341 0.75021 0.0
C963 C 0.29709 0.35258 0.72457 0.0
C964 C 0.30577 0.3368 0.69925 0.0
C965 C 0.90863 0.03496 0.9663 0.0
C966 C 0.88043 0.02352 0.9625 0.0
C967 C 0.92607 0.04245 0.94242 0.0
C968 C 0.91601 0.03853 0.91387 0.0
H969 H 0.91796 0.03668 0.98785 0.0
H970 H 0.94822 0.04943 0.94634 0.0
S971 S 0.84221 0.01432 0.89205 0.0
N972 N 0.84199 0.01247 0.9279 0.0
N973 N 0.87486 0.02623 0.88308 0.0
C974 C 0.8871 0.0294 0.90979 0.0
C975 C 0.86925 0.02201 0.93409 0.0
C976 C 0.29892 0.19824 0.32207 0.0
C977 C 0.32668 0.20928 0.32827 0.0
C978 C 0.27486 0.20597 0.33925 0.0
C979 C 0.27787 0.22462 0.36343 0.0
H980 H 0.29544 0.18505 0.30288 0.0
H981 H 0.25356 0.19846 0.33262 0.0
S982 S 0.34702 0.25514 0.39153 0.0
N983 N 0.35644 0.23705 0.36203 0.0
N984 N 0.31156 0.25075 0.39467 0.0
C985 C 0.30597 0.23366 0.37122 0.0
C986 C 0.33029 0.22625 0.35349 0.0
C987 C 0.04344 0.00741 0.5826 0.0
C988 C 0.03199 0.01339 0.61046 0.0
C989 C 0.05286 0.0299 0.56415 0.0
C990 C 0.05089 0.05901 0.57299 0.0
H991 H 0.04346 0.9854 0.57422 0.0
H992 H 0.05965 0.02464 0.54223 0.0
S993 S 0.02799 0.08599 0.64542 0.0
N994 N 0.0235 0.05043 0.64727 0.0
N995 N 0.04063 0.09249 0.61248 0.0
C996 C 0.04191 0.06506 0.60155 0.0
C997 C 0.03263 0.04228 0.62038 0.0
C998 C 0.18975 0.80523 0.82918 0.0
C999 C 0.16321 0.79464 0.83992 0.0
C1000 C 0.21592 0.79993 0.84397 0.0
C1001 C 0.2165 0.78391 0.87011 0.0
H1002 H 0.19064 0.81603 0.80825 0.0
H1003 H 0.23597 0.80695 0.83386 0.0
S1004 S 0.15205 0.75665 0.91025 0.0
N1005 N 0.1385 0.77123 0.88039 0.0
N1006 N 0.18759 0.76133 0.90818 0.0
C1007 C 0.18978 0.7756 0.8824 0.0
C1008 C 0.16314 0.78091 0.8673 0.0
C1009 C 0.50605 0.95316 0.10766 0.0
C1010 C 0.49327 0.98056 0.10377 0.0
C1011 C 0.49934 0.93003 0.08922 0.0
C1012 C 0.4789 0.93303 0.06664 0.0
H1013 H 0.52242 0.94979 0.12427 0.0
H1014 H 0.51055 0.90961 0.09267 0.0
S1015 S 0.43786 0.99992 0.04842 0.0
N1016 N 0.45855 0.00942 0.07619 0.0
N1017 N 0.44497 0.96527 0.04214 0.0
C1018 C 0.46501 0.95999 0.06317 0.0
C1019 C 0.47242 0.98391 0.0816 0.0
C1020 C 0.29046 0.80752 0.18366 0.0
C1021 C 0.31869 0.80123 0.17393 0.0
C1022 C 0.26608 0.79956 0.16707 0.0
C1023 C 0.26913 0.78522 0.14011 0.0
H1024 H 0.28709 0.81685 0.20501 0.0
H1025 H 0.24471 0.80315 0.17629 0.0
S1026 S 0.33879 0.76927 0.10261 0.0
N1027 N 0.34855 0.78376 0.13395 0.0
N1028 N 0.30289 0.76902 0.10275 0.0
C1029 C 0.29736 0.7813 0.12904 0.0
C1030 C 0.3221 0.78922 0.14599 0.0
C1031 C 0.45958 0.02244 0.42894 0.0
C1032 C 0.47372 0.02481 0.4018 0.0
C1033 C 0.45207 0.04721 0.44512 0.0
C1034 C 0.45865 0.07512 0.43478 0.0
H1035 H 0.45564 0.00129 0.43851 0.0
H1036 H 0.44278 0.0444 0.46659 0.0
S1037 S 0.49049 0.0935 0.36299 0.0
N1038 N 0.49025 0.05761 0.36376 0.0
N1039 N 0.47636 0.10402 0.39426 0.0
C1040 C 0.47064 0.07787 0.40679 0.0
C1041 C 0.47809 0.05274 0.39024 0.0
C1042 C 0.21581 0.20932 0.69185 0.0
C1043 C 0.18712 0.20743 0.68175 0.0
C1044 C 0.23789 0.22048 0.67394 0.0
C1045 C 0.232 0.22987 0.64531 0.0
H1046 H 0.22085 0.20403 0.71423 0.0
H1047 H 0.25941 0.22311 0.68313 0.0
S1048 S 0.16101 0.22436 0.60736 0.0
N1049 N 0.15449 0.21225 0.6405 0.0
N1050 N 0.19589 0.23285 0.60676 0.0
C1051 C 0.20379 0.22572 0.63433 0.0
C1052 C 0.18136 0.21462 0.65261 0.0
C1053 C 0.03954 0.94277 0.92914 0.0
C1054 C 0.03805 0.91458 0.91751 0.0
C1055 C 0.03157 0.96703 0.9125 0.0
C1056 C 0.022 0.96404 0.88354 0.0
H1057 H 0.04503 0.946 0.95182 0.0
H1058 H 0.03151 0.98812 0.92296 0.0
S1059 S 0.01967 0.89533 0.84133 0.0
N1060 N 0.03016 0.88533 0.87417 0.0
N1061 N 0.01545 0.93095 0.84281 0.0
C1062 C 0.02289 0.93622 0.87091 0.0
C1063 C 0.03084 0.91147 0.88793 0.0
C1064 C 0.3498 0.31706 0.21404 0.0
C1065 C 0.32327 0.31184 0.1997 0.0
C1066 C 0.36771 0.2942 0.22305 0.0
C1067 C 0.35962 0.26513 0.21842 0.0
H1068 H 0.35628 0.33906 0.21943 0.0
H1069 H 0.38715 0.29941 0.23528 0.0
S1070 S 0.29411 0.23991 0.17844 0.0
N1071 N 0.29123 0.27571 0.1785 0.0
N1072 N 0.32471 0.23241 0.19568 0.0
C1073 C 0.33415 0.25962 0.20222 0.0
C1074 C 0.31601 0.28307 0.19277 0.0
C1075 C 0.85762 0.16753 0.78131 0.0
C1076 C 0.83137 0.16732 0.79708 0.0
C1077 C 0.8724 0.1935 0.77551 0.0
C1078 C 0.86135 0.22038 0.785 0.0
H1079 H 0.86608 0.14759 0.77202 0.0
H1080 H 0.89152 0.19262 0.7618 0.0
S1081 S 0.79595 0.23121 0.83112 0.0
N1082 N 0.79693 0.19581 0.82523 0.0
N1083 N 0.82455 0.24479 0.8142 0.0
C1084 C 0.83648 0.22022 0.80292 0.0
C1085 C 0.82152 0.19365 0.80901 0.0
C1086 C 0.01304 0.58657 0.03442 0.0
C1087 C 0.01889 0.61503 0.02452 0.0
C1088 C 0.0355 0.56815 0.04391 0.0
C1089 C 0.06449 0.57756 0.04354 0.0
H1090 H 0.9912 0.57786 0.03332 0.0
H1091 H 0.03039 0.54583 0.04946 0.0
S1092 S 0.09095 0.65131 0.02466 0.0
N1093 N 0.05554 0.65276 0.01889 0.0
N1094 N 0.09761 0.61801 0.03626 0.0
C1095 C 0.07034 0.60658 0.03602 0.0
C1096 C 0.04756 0.6254 0.02665 0.0
C1097 C 0.63695 0.79631 0.25698 0.0
C1098 C 0.64475 0.76803 0.26536 0.0
C1099 C 0.65457 0.82005 0.2638 0.0
C1100 C 0.68038 0.81667 0.27991 0.0
H1101 H 0.61781 0.80006 0.24376 0.0
H1102 H 0.64811 0.84123 0.25578 0.0
S1103 S 0.70914 0.7475 0.30951 0.0
N1104 N 0.67916 0.73803 0.29214 0.0
N1105 N 0.71191 0.78311 0.30575 0.0
C1106 C 0.68767 0.78877 0.28987 0.0
C1107 C 0.66994 0.76435 0.28242 0.0
C1108 C 0.93425 0.87329 0.01601 0.0
C1109 C 0.96259 0.88313 0.0218 0.0
C1110 C 0.91 0.89054 0.02255 0.0
C1111 C 0.9131 0.91812 0.03546 0.0
H1112 H 0.93078 0.85292 0.00471 0.0
H1113 H 0.8887 0.88272 0.01621 0.0
S1114 S 0.98231 0.95202 0.05898 0.0
N1115 N 0.9922 0.92086 0.04413 0.0
N1116 N 0.94649 0.95309 0.05667 0.0
C1117 C 0.9411 0.92719 0.04355 0.0
C1118 C 0.96588 0.90974 0.03663 0.0
C1119 C 0.13853 0.6716 0.72119 0.0
C1120 C 0.16582 0.67661 0.70827 0.0
C1121 C 0.1214 0.69461 0.73145 0.0
C1122 C 0.13109 0.72352 0.72949 0.0
H1123 H 0.13099 0.64959 0.72481 0.0
H1124 H 0.10129 0.68949 0.74259 0.0
S1125 S 0.1992 0.74849 0.694 0.0
N1126 N 0.20034 0.71271 0.69124 0.0
N1127 N 0.16831 0.75611 0.71067 0.0
C1128 C 0.15733 0.72898 0.7146 0.0
C1129 C 0.17465 0.70548 0.7039 0.0
C1130 C 0.01989 0.42723 0.46844 0.0
C1131 C 0.02297 0.39984 0.48192 0.0
C1132 C 0.04424 0.44404 0.46097 0.0
C1133 C 0.07243 0.43409 0.46699 0.0
H1134 H 0.99851 0.43647 0.46493 0.0
H1135 H 0.0409 0.46561 0.45212 0.0
S1136 S 0.0926 0.36201 0.49712 0.0
N1137 N 0.0567 0.3621 0.49729 0.0
N1138 N 0.10234 0.39375 0.48351 0.0
C1139 C 0.07588 0.4059 0.47835 0.0
C1140 C 0.05117 0.38872 0.48572 0.0
C1141 C 0.4704 0.5628 0.95074 0.0
C1142 C 0.44218 0.57424 0.94918 0.0
C1143 C 0.49348 0.57978 0.96136 0.0
C1144 C 0.48902 0.60873 0.97059 0.0
H1145 H 0.47423 0.54007 0.94589 0.0
H1146 H 0.51455 0.56957 0.96397 0.0
S1147 S 0.41975 0.64988 0.96562 0.0
N1148 N 0.41154 0.61693 0.95401 0.0
N1149 N 0.45477 0.64899 0.97349 0.0
C1150 C 0.46132 0.62103 0.96653 0.0
C1151 C 0.43791 0.6037 0.95598 0.0
C1152 C 0.7353 0.85932 0.84808 0.0
C1153 C 0.71861 0.83369 0.8468 0.0
C1154 C 0.74016 0.87627 0.82327 0.0
C1155 C 0.72878 0.86805 0.79614 0.0
H1156 H 0.74583 0.86569 0.86816 0.0
H1157 H 0.75449 0.89487 0.82506 0.0
S1158 S 0.6799 0.8054 0.78205 0.0
N1159 N 0.68777 0.80289 0.81698 0.0
N1160 N 0.69711 0.83458 0.77017 0.0
C1161 C 0.71018 0.84375 0.79502 0.0
C1162 C 0.70502 0.82661 0.8204 0.0
C1163 C 0.44401 0.45455 0.03695 0.0
C1164 C 0.43629 0.46381 0.06495 0.0
C1165 C 0.42626 0.46108 0.01296 0.0
C1166 C 0.40003 0.4767 0.01628 0.0
H1167 H 0.46456 0.44362 0.03333 0.0
H1168 H 0.43391 0.45509 0.99151 0.0
S1169 S 0.36763 0.50073 0.08613 0.0
N1170 N 0.39906 0.48605 0.09528 0.0
N1171 N 0.3655 0.49756 0.05046 0.0
C1172 C 0.39099 0.4838 0.04456 0.0
C1173 C 0.40922 0.47761 0.06883 0.0
C1174 C 0.79158 0.15308 0.31658 0.0
C1175 C 0.80228 0.18154 0.31332 0.0
C1176 C 0.78265 0.1367 0.29258 0.0
C1177 C 0.78356 0.14831 0.26434 0.0
H1178 H 0.78884 0.1438 0.33805 0.0
H1179 H 0.77335 0.11542 0.29648 0.0
S1180 S 0.81272 0.22078 0.24384 0.0
N1181 N 0.81586 0.21975 0.2796 0.0
N1182 N 0.79864 0.18918 0.23422 0.0
C1183 C 0.79603 0.17608 0.26056 0.0
C1184 C 0.80551 0.19266 0.28512 0.0
C1185 C 0.11152 0.53132 0.58844 0.0
C1186 C 0.08669 0.54921 0.58706 0.0
C1187 C 0.12745 0.52432 0.56345 0.0
C1188 C 0.11902 0.53476 0.53601 0.0
H1189 H 0.11792 0.52138 0.60884 0.0
H1190 H 0.1453 0.5091 0.56545 0.0
S1191 S 0.05851 0.58622 0.52127 0.0
N1192 N 0.05663 0.58017 0.55661 0.0
N1193 N 0.08645 0.56699 0.50948 0.0
C1194 C 0.09572 0.55466 0.53468 0.0
C1195 C 0.07958 0.56193 0.56024 0.0
C1196 C 0.69657 0.17477 0.71112 0.0
C1197 C 0.69262 0.16254 0.68342 0.0
C1198 C 0.70962 0.15876 0.7336 0.0
C1199 C 0.71914 0.12994 0.7292 0.0
H1200 H 0.69161 0.19748 0.71489 0.0
H1201 H 0.7138 0.16969 0.75403 0.0
S1202 S 0.70829 0.08622 0.6623 0.0
N1203 N 0.69523 0.11863 0.65407 0.0
N1204 N 0.71965 0.08859 0.69626 0.0
C1205 C 0.71282 0.11667 0.70241 0.0
C1206 C 0.69956 0.13297 0.67955 0.0
C1207 C 0.09207 0.48098 0.92188 0.0
C1208 C 0.06628 0.46465 0.92415 0.0
C1209 C 0.10938 0.48664 0.94623 0.0
C1210 C 0.10144 0.47637 0.97386 0.0
H1211 H 0.09843 0.49049 0.90129 0.0
H1212 H 0.12816 0.50059 0.94359 0.0
S1213 S 0.03823 0.42906 0.99076 0.0
N1214 N 0.03537 0.43555 0.95558 0.0
N1215 N 0.06782 0.44627 0.00154 0.0
C1216 C 0.07686 0.45821 0.97608 0.0
C1217 C 0.05928 0.45231 0.95117 0.0
C1218 C 0.79105 0.84068 0.21533 0.0
C1219 C 0.77481 0.8667 0.2146 0.0
C1220 C 0.79721 0.8251 0.18984 0.0
C1221 C 0.78718 0.8349 0.16273 0.0
H1222 H 0.79762 0.83131 0.23591 0.0
H1223 H 0.80815 0.80432 0.19165 0.0
S1224 S 0.74876 0.90438 0.1482 0.0
N1225 N 0.75259 0.90357 0.18387 0.0
N1226 N 0.76402 0.87424 0.13605 0.0
C1227 C 0.77321 0.8621 0.16138 0.0
C1228 C 0.7671 0.87805 0.1873 0.0
C1229 C 0.3764 0.52859 0.4482 0.0
C1230 C 0.38728 0.53072 0.47666 0.0
C1231 C 0.39323 0.53707 0.42432 0.0
C1232 C 0.42148 0.54827 0.42792 0.0
H1233 H 0.35545 0.51864 0.44412 0.0
H1234 H 0.38461 0.53337 0.40272 0.0
S1235 S 0.45834 0.56262 0.49801 0.0
N1236 N 0.4268 0.54818 0.50728 0.0
N1237 N 0.45832 0.56419 0.46215 0.0
C1238 C 0.43165 0.55297 0.45627 0.0
C1239 C 0.41457 0.54413 0.48071 0.0
C1240 C 0.81893 0.7294 0.88703 0.0
C1241 C 0.79019 0.72507 0.87758 0.0
C1242 C 0.84256 0.72209 0.86924 0.0
C1243 C 0.8384 0.70989 0.84147 0.0
H1244 H 0.82324 0.74028 0.90745 0.0
H1245 H 0.86424 0.72749 0.87673 0.0
S1246 S 0.76765 0.68969 0.80862 0.0
N1247 N 0.75897 0.70446 0.84016 0.0
N1248 N 0.8035 0.69055 0.80688 0.0
C1249 C 0.80993 0.70302 0.83286 0.0
C1250 C 0.78579 0.71069 0.85089 0.0
C1251 C 0.52821 0.55388 0.12508 0.0
C1252 C 0.53776 0.52628 0.11615 0.0
C1253 C 0.53584 0.5789 0.10952 0.0
C1254 C 0.55347 0.57732 0.08451 0.0
H1255 H 0.51306 0.55607 0.143 0.0
H1256 H 0.52645 0.59944 0.11621 0.0
S1257 S 0.58873 0.51098 0.05538 0.0
N1258 N 0.56928 0.49933 0.08321 0.0
N1259 N 0.58359 0.54648 0.05399 0.0
C1260 C 0.56552 0.5503 0.07706 0.0
C1261 C 0.55766 0.52472 0.09287 0.0
C1262 C 0.68233 0.27229 0.34752 0.0
C1263 C 0.68434 0.28918 0.3221 0.0
C1264 C 0.70685 0.26627 0.36444 0.0
C1265 C 0.73445 0.27654 0.35636 0.0
H1266 H 0.66173 0.26283 0.35395 0.0
H1267 H 0.70433 0.25206 0.38304 0.0
S1268 S 0.75077 0.32448 0.29346 0.0
N1269 N 0.71545 0.31842 0.29111 0.0
N1270 N 0.76191 0.30677 0.32265 0.0
C1271 C 0.73647 0.29501 0.33197 0.0
C1272 C 0.71131 0.30143 0.31489 0.0
C1273 C 0.96494 0.48794 0.59135 0.0
C1274 C 0.9762 0.48302 0.61947 0.0
C1275 C 0.9548 0.4649 0.57406 0.0
C1276 C 0.95582 0.43617 0.58426 0.0
H1277 H 0.96541 0.50953 0.58197 0.0
H1278 H 0.94813 0.46936 0.55192 0.0
S1279 S 0.97835 0.41206 0.65784 0.0
N1280 N 0.98392 0.44753 0.65794 0.0
N1281 N 0.96526 0.40435 0.62534 0.0
C1282 C 0.96477 0.43124 0.61307 0.0
C1283 C 0.97484 0.45464 0.63073 0.0
C1284 C 0.78395 0.28737 0.69419 0.0
C1285 C 0.81241 0.28099 0.68516 0.0
C1286 C 0.75996 0.27882 0.67735 0.0
C1287 C 0.76366 0.26409 0.65072 0.0
H1288 H 0.78015 0.29771 0.715 0.0
H1289 H 0.73834 0.28293 0.68578 0.0
S1290 S 0.83405 0.24579 0.61579 0.0
N1291 N 0.84308 0.26128 0.64684 0.0
N1292 N 0.79819 0.24606 0.61495 0.0
C1293 C 0.7921 0.25937 0.64063 0.0
C1294 C 0.81642 0.26757 0.65795 0.0
C1295 C 0.94357 0.56085 0.92364 0.0
C1296 C 0.95058 0.58859 0.91299 0.0
C1297 C 0.95095 0.53573 0.90799 0.0
C1298 C 0.96544 0.53741 0.88102 0.0
H1299 H 0.93418 0.5584 0.94509 0.0
H1300 H 0.9467 0.51482 0.91794 0.0
S1301 S 0.98334 0.60521 0.84114 0.0
N1302 N 0.969 0.61651 0.87204 0.0
N1303 N 0.98263 0.56934 0.84253 0.0
C1304 C 0.97007 0.56511 0.86893 0.0
C1305 C 0.96272 0.59068 0.88497 0.0
C1306 C 0.70107 0.69942 0.17274 0.0
C1307 C 0.67276 0.69823 0.16136 0.0
C1308 C 0.72407 0.71097 0.15634 0.0
C1309 C 0.71963 0.72162 0.12793 0.0
H1310 H 0.70511 0.69345 0.19515 0.0
H1311 H 0.74512 0.71306 0.16668 0.0
S1312 S 0.65063 0.71788 0.08629 0.0
N1313 N 0.64233 0.70469 0.11863 0.0
N1314 N 0.68554 0.72615 0.08776 0.0
C1315 C 0.69198 0.71799 0.11541 0.0
C1316 C 0.66855 0.70636 0.13216 0.0
C1317 C 0.53523 0.47958 0.42251 0.0
C1318 C 0.52415 0.47584 0.39414 0.0
C1319 C 0.54289 0.45563 0.43983 0.0
C1320 C 0.5395 0.42716 0.42941 0.0
H1321 H 0.53654 0.50108 0.43202 0.0
H1322 H 0.54964 0.45937 0.46208 0.0
S1323 S 0.51653 0.4056 0.35518 0.0
N1324 N 0.51409 0.44141 0.35526 0.0
N1325 N 0.52816 0.39654 0.3879 0.0
C1326 C 0.53068 0.4232 0.40041 0.0
C1327 C 0.52312 0.44751 0.38273 0.0
C1328 C 0.81751 0.80102 0.71705 0.0
C1329 C 0.82777 0.82969 0.71887 0.0
C1330 C 0.83561 0.77748 0.7243 0.0
C1331 C 0.86461 0.78184 0.73332 0.0
H1332 H 0.79491 0.79684 0.71197 0.0
H1333 H 0.82628 0.75586 0.72431 0.0
S1334 S 0.90304 0.85272 0.73646 0.0
N1335 N 0.86954 0.86107 0.72665 0.0
N1336 N 0.9036 0.81699 0.73986 0.0
C1337 C 0.87572 0.81031 0.73272 0.0
C1338 C 0.85725 0.83421 0.72562 0.0
C1339 C 0.3554 0.68069 0.28329 0.0
C1340 C 0.32971 0.68301 0.29979 0.0
C1341 C 0.3704 0.70543 0.27387 0.0
C1342 C 0.36008 0.73344 0.28031 0.0
H1343 H 0.36318 0.65958 0.27628 0.0
H1344 H 0.38915 0.70249 0.25993 0.0
S1345 S 0.2962 0.75123 0.32643 0.0
N1346 N 0.29648 0.71536 0.32501 0.0
N1347 N 0.32452 0.76205 0.30719 0.0
C1348 C 0.33572 0.73604 0.29875 0.0
C1349 C 0.32058 0.71075 0.30857 0.0
C1350 C 0.55094 0.12522 0.53672 0.0
C1351 C 0.52227 0.11568 0.5412 0.0
C1352 C 0.57465 0.10874 0.5464 0.0
C1353 C 0.57067 0.08215 0.56106 0.0
H1354 H 0.55522 0.14461 0.52409 0.0
H1355 H 0.59633 0.11616 0.54087 0.0
S1356 S 0.50004 0.04995 0.58258 0.0
N1357 N 0.49119 0.07978 0.56466 0.0
N1358 N 0.53592 0.04885 0.58274 0.0
C1359 C 0.54219 0.07367 0.56802 0.0
C1360 C 0.51796 0.09043 0.55807 0.0
C1361 C 0.15158 0.32288 0.77378 0.0
C1362 C 0.17641 0.32252 0.79164 0.0
C1363 C 0.13542 0.29762 0.76863 0.0
C1364 C 0.14375 0.27086 0.78077 0.0
H1365 H 0.14503 0.34272 0.76288 0.0
H1366 H 0.11734 0.29883 0.75359 0.0
S1367 S 0.20516 0.25894 0.83183 0.0
N1368 N 0.20694 0.29389 0.82379 0.0
N1369 N 0.17694 0.24607 0.81374 0.0
C1370 C 0.1675 0.27054 0.80016 0.0
C1371 C 0.18374 0.29647 0.80571 0.0
C1372 C 0.44608 0.43203 0.55127 0.0
C1373 C 0.41795 0.42161 0.54568 0.0
C1374 C 0.47066 0.41559 0.54365 0.0
C1375 C 0.46797 0.38808 0.53034 0.0
H1376 H 0.44918 0.4538 0.5597 0.0
H1377 H 0.49189 0.42528 0.54678 0.0
S1378 S 0.39891 0.34879 0.51668 0.0
N1379 N 0.38867 0.38052 0.53 0.0
N1380 N 0.43479 0.34954 0.51596 0.0
C1381 C 0.43993 0.3764 0.52711 0.0
C1382 C 0.41493 0.39322 0.53469 0.0
C1383 C 0.66325 0.22878 0.20277 0.0
C1384 C 0.637 0.22498 0.21823 0.0
C1385 C 0.67972 0.20488 0.1933 0.0
C1386 C 0.67053 0.17636 0.19904 0.0
H1387 H 0.67216 0.25033 0.19957 0.0
H1388 H 0.70075 0.2088 0.18345 0.0
S1389 S 0.60072 0.15453 0.23313 0.0
N1390 N 0.60058 0.1904 0.2347 0.0
N1391 N 0.63147 0.14557 0.21693 0.0
C1392 C 0.64304 0.17229 0.21188 0.0
C1393 C 0.62626 0.19658 0.22146 0.0
C1394 C 0.56519 0.87179 0.98103 0.0
C1395 C 0.53828 0.88013 0.96918 0.0
C1396 C 0.59043 0.88804 0.97573 0.0
C1397 C 0.58983 0.91314 0.95818 0.0
H1398 H 0.56648 0.85382 0.99619 0.0
H1399 H 0.61025 0.8817 0.98675 0.0
S1400 S 0.52595 0.94118 0.91779 0.0
N1401 N 0.51335 0.91289 0.93592 0.0
N1402 N 0.56086 0.94328 0.92589 0.0
C1403 C 0.56369 0.92013 0.94401 0.0
C1404 C 0.53789 0.90366 0.94953 0.0
C1405 C 0.96014 0.11024 0.47439 0.0
C1406 C 0.98832 0.1007 0.46758 0.0
C1407 C 0.93575 0.09397 0.46638 0.0
C1408 C 0.93855 0.06759 0.45109 0.0
H1409 H 0.95685 0.12953 0.48752 0.0
H1410 H 0.91458 0.10152 0.47341 0.0
S1411 S 0.0072 0.03541 0.42389 0.0
N1412 N 0.01748 0.06496 0.44149 0.0
N1413 N 0.9714 0.03442 0.42642 0.0
C1414 C 0.96636 0.05903 0.44195 0.0
C1415 C 0.99133 0.07558 0.45022 0.0
C1416 C 0.19494 0.39157 0.4646 0.0
C1417 C 0.18873 0.41217 0.44274 0.0
C1418 C 0.20011 0.36218 0.45755 0.0
C1419 C 0.19881 0.35275 0.42853 0.0
H1420 H 0.19416 0.3978 0.48729 0.0
H1421 H 0.20352 0.34661 0.47487 0.0
S1422 S 0.18831 0.39868 0.36318 0.0
N1423 N 0.1857 0.42148 0.39076 0.0
N1424 N 0.19436 0.36651 0.37783 0.0
C1425 C 0.19462 0.37345 0.40655 0.0
C1426 C 0.18989 0.40314 0.41358 0.0
C1427 C 0.89354 0.95242 0.72281 0.0
C1428 C 0.90064 0.96205 0.69472 0.0
C1429 C 0.86434 0.94826 0.73094 0.0
C1430 C 0.84165 0.95284 0.71086 0.0
H1431 H 0.9106 0.9462 0.7378 0.0
H1432 H 0.85977 0.93875 0.752 0.0
S1433 S 0.84917 0.98106 0.63584 0.0
N1434 N 0.88286 0.97882 0.64805 0.0
N1435 N 0.82822 0.97037 0.66293 0.0
C1436 C 0.84856 0.96464 0.6836 0.0
C1437 C 0.87807 0.96928 0.67558 0.0
C1438 C 0.3392 0.64885 0.90925 0.0
C1439 C 0.31663 0.66227 0.92491 0.0
C1440 C 0.34563 0.61951 0.91285 0.0
C1441 C 0.3302 0.60219 0.93269 0.0
H1442 H 0.35179 0.66091 0.89341 0.0
H1443 H 0.3633 0.61049 0.90013 0.0
S1444 S 0.26952 0.62667 0.97982 0.0
N1445 N 0.2787 0.65602 0.96124 0.0
N1446 N 0.29166 0.60056 0.96884 0.0
C1447 C 0.30788 0.61525 0.94903 0.0
C1448 C 0.30086 0.64533 0.94491 0.0
C1449 C 0.64167 0.06686 0.2279 0.0
C1450 C 0.66389 0.05241 0.21262 0.0
C1451 C 0.61233 0.06141 0.22163 0.0
C1452 C 0.60439 0.04062 0.20071 0.0
H1453 H 0.64688 0.08483 0.2422 0.0
H1454 H 0.59591 0.07522 0.23137 0.0
S1455 S 0.6545 0.99331 0.15886 0.0
N1456 N 0.67614 0.01416 0.1785 0.0
N1457 N 0.62101 0.0027 0.16782 0.0
C1458 C 0.62638 0.0235 0.1881 0.0
C1459 C 0.65622 0.02972 0.19379 0.0
C1460 C 0.19347 0.64309 0.0471 0.0
C1461 C 0.1923 0.65354 0.07576 0.0
C1462 C 0.18778 0.61358 0.04109 0.0
C1463 C 0.18119 0.59386 0.06366 0.0
H1464 H 0.19708 0.658 0.02925 0.0
H1465 H 0.18683 0.60661 0.01862 0.0
S1466 S 0.18055 0.61016 0.14266 0.0
N1467 N 0.18722 0.64166 0.12689 0.0
N1468 N 0.17786 0.58644 0.11591 0.0
C1469 C 0.18253 0.60386 0.09248 0.0
C1470 C 0.18769 0.63369 0.09844 0.0
C1471 C 0.64054 0.95612 0.30703 0.0
C1472 C 0.65098 0.92746 0.30528 0.0
C1473 C 0.61136 0.96164 0.31474 0.0
C1474 C 0.59192 0.93861 0.32054 0.0
H1475 H 0.65528 0.97422 0.304 0.0
H1476 H 0.60447 0.98395 0.31773 0.0
S1477 S 0.60807 0.8598 0.31397 0.0
N1478 N 0.6392 0.87608 0.30683 0.0
N1479 N 0.58461 0.88622 0.32017 0.0
C1480 C 0.60181 0.90999 0.31647 0.0
C1481 C 0.63132 0.90447 0.30918 0.0
C1482 C 0.27292 0.40343 0.5577 0.0
C1483 C 0.2921 0.41114 0.53519 0.0
C1484 C 0.26642 0.37421 0.56343 0.0
C1485 C 0.27963 0.35179 0.54738 0.0
H1486 H 0.26486 0.41989 0.5725 0.0
H1487 H 0.2537 0.36916 0.58261 0.0
S1488 S 0.32684 0.36061 0.48285 0.0
N1489 N 0.32018 0.3942 0.4937 0.0
N1490 N 0.30914 0.33917 0.50557 0.0
C1491 C 0.29638 0.35928 0.52305 0.0
C1492 C 0.30228 0.38907 0.51663 0.0
C1493 C 0.90112 0.05299 0.76962 0.0
C1494 C 0.90874 0.02934 0.78745 0.0
C1495 C 0.87191 0.05915 0.7633 0.0
C1496 C 0.8494 0.0423 0.77528 0.0
H1497 H 0.91762 0.06824 0.76256 0.0
H1498 H 0.86692 0.07903 0.75169 0.0
S1499 S 0.8579 0.97497 0.81851 0.0
N1500 N 0.89153 0.98619 0.81278 0.0
N1501 N 0.83661 0.99872 0.802 0.0
C1502 C 0.8568 0.01697 0.79053 0.0
C1503 C 0.88656 0.01019 0.79628 0.0
C1504 C 0.4181 0.19045 0.39881 0.0
C1505 C 0.44609 0.19251 0.41092 0.0
C1506 C 0.4136 0.1936 0.36908 0.0
C1507 C 0.4366 0.2 0.35015 0.0
H1508 H 0.39954 0.18455 0.41208 0.0
H1509 H 0.39192 0.18993 0.36067 0.0
S1510 S 0.51344 0.21182 0.37081 0.0
N1511 N 0.49703 0.20387 0.4018 0.0
N1512 N 0.48794 0.21122 0.34548 0.0
C1513 C 0.46435 0.20455 0.36191 0.0
C1514 C 0.46923 0.20057 0.39246 0.0
C1515 C 0.08673 0.14813 0.61581 0.0
C1516 C 0.06905 0.16621 0.59874 0.0
C1517 C 0.09054 0.15321 0.64534 0.0
C1518 C 0.07744 0.1771 0.65922 0.0
H1519 H 0.09763 0.12948 0.60638 0.0
H1520 H 0.10477 0.13859 0.65712 0.0
S1521 S 0.02805 0.2306 0.62449 0.0
N1522 N 0.03696 0.20818 0.59786 0.0
N1523 N 0.04523 0.21874 0.65375 0.0
C1524 C 0.05923 0.19526 0.64261 0.0
C1525 C 0.05476 0.18957 0.61229 0.0
C1526 C 0.04081 0.76512 0.9023 0.0
C1527 C 0.02011 0.7866 0.90904 0.0
C1528 C 0.04763 0.75844 0.87334 0.0
C1529 C 0.03444 0.7736 0.85029 0.0
H1530 H 0.05373 0.7554 0.91943 0.0
H1531 H 0.06569 0.74388 0.86918 0.0
S1532 S 0.97448 0.82698 0.85621 0.0
N1533 N 0.98271 0.81894 0.89021 0.0
N1534 N 0.99632 0.80705 0.83584 0.0
C1535 C 0.01129 0.79241 0.85668 0.0
C1536 C 0.00388 0.79873 0.88612 0.0
C1537 C 0.45036 0.79528 0.10854 0.0
C1538 C 0.45619 0.82371 0.09902 0.0
C1539 C 0.44368 0.78979 0.13796 0.0
C1540 C 0.44283 0.81259 0.15847 0.0
H1541 H 0.44908 0.77767 0.09297 0.0
H1542 H 0.43713 0.76804 0.14417 0.0
S1543 S 0.4614 0.88982 0.14475 0.0
N1544 N 0.46401 0.87402 0.11266 0.0
N1545 N 0.45232 0.86375 0.16765 0.0
C1546 C 0.45119 0.84051 0.14941 0.0
C1547 C 0.45758 0.84606 0.1197 0.0
C1548 C 0.39064 0.44515 0.1926 0.0
C1549 C 0.40449 0.4385 0.16621 0.0
C1550 C 0.36094 0.43881 0.19665 0.0
C1551 C 0.34421 0.42634 0.17417 0.0
H1552 H 0.40303 0.45408 0.21051 0.0
H1553 H 0.35136 0.44268 0.21782 0.0
S1554 S 0.36967 0.40985 0.09931 0.0
N1555 N 0.39883 0.42167 0.11646 0.0
N1556 N 0.34319 0.41123 0.12345 0.0
C1557 C 0.35756 0.42177 0.14704 0.0
C1558 C 0.38768 0.42744 0.14324 0.0
C1559 C 0.7659 0.89925 0.04452 0.0
C1560 C 0.78757 0.90647 0.02423 0.0
C1561 C 0.7592 0.8701 0.0506 0.0
C1562 C 0.77467 0.84734 0.03722 0.0
H1563 H 0.75564 0.91615 0.05733 0.0
H1564 H 0.74406 0.86549 0.06804 0.0
S1565 S 0.83077 0.85473 0.97998 0.0
N1566 N 0.82188 0.88852 0.98825 0.0
N1567 N 0.81008 0.83383 0.00056 0.0
C1568 C 0.79452 0.85429 0.01515 0.0
C1569 C 0.80079 0.8839 0.00841 0.0
C1570 C 0.15095 0.52985 0.70252 0.0
C1571 C 0.15917 0.55217 0.72168 0.0
C1572 C 0.12154 0.52315 0.69799 0.0
C1573 C 0.09951 0.5393 0.71177 0.0
H1574 H 0.16718 0.51926 0.68911 0.0
H1575 H 0.11606 0.50765 0.68112 0.0
S1576 S 0.10974 0.59668 0.76722 0.0
N1577 N 0.1431 0.58736 0.7577 0.0
N1578 N 0.08781 0.57571 0.74804 0.0
C1579 C 0.10751 0.55962 0.73302 0.0
C1580 C 0.13743 0.56584 0.73827 0.0
C1581 C 0.70459 0.88242 0.99641 0.0
C1582 C 0.71746 0.90462 0.97978 0.0
C1583 C 0.71166 0.85316 0.99151 0.0
C1584 C 0.7324 0.84533 0.97048 0.0
H1585 H 0.68665 0.88732 0.01088 0.0
H1586 H 0.69906 0.83651 0.0024 0.0
S1587 S 0.77662 0.89588 0.92591 0.0
N1588 N 0.75492 0.91728 0.9449 0.0
N1589 N 0.76892 0.86239 0.93627 0.0
C1590 C 0.74808 0.86758 0.95657 0.0
C1591 C 0.74042 0.89728 0.9611 0.0
C1592 C 0.81945 0.13341 0.40305 0.0
C1593 C 0.81194 0.15198 0.42605 0.0
C1594 C 0.82282 0.10363 0.40734 0.0
C1595 C 0.81954 0.09112 0.43504 0.0
H1596 H 0.82349 0.14212 0.38153 0.0
H1597 H 0.82965 0.09062 0.38893 0.0
S1598 S 0.79646 0.13007 0.5019 0.0
N1599 N 0.79811 0.15578 0.47682 0.0
N1600 N 0.8056 0.09942 0.48547 0.0
C1601 C 0.81023 0.10919 0.45801 0.0
C1602 C 0.8062 0.13976 0.45338 0.0
C1603 C 0.6844 0.14241 0.53708 0.0
C1604 C 0.70548 0.15142 0.55726 0.0
C1605 C 0.67965 0.11281 0.53156 0.0
C1606 C 0.69522 0.09132 0.54677 0.0
H1607 H 0.66981 0.15819 0.52741 0.0
H1608 H 0.66143 0.10682 0.51788 0.0
S1609 S 0.75618 0.10354 0.5978 0.0
N1610 N 0.74528 0.13655 0.58879 0.0
N1611 N 0.73515 0.08089 0.57953 0.0
C1612 C 0.71827 0.10004 0.56467 0.0
C1613 C 0.72376 0.13018 0.5696 0.0
C1614 C 0.09441 0.42176 0.80033 0.0
C1615 C 0.08485 0.45069 0.80305 0.0
C1616 C 0.12381 0.41518 0.79662 0.0
C1617 C 0.14479 0.43722 0.79488 0.0
H1618 H 0.07934 0.40385 0.80298 0.0
H1619 H 0.13034 0.39253 0.7963 0.0
S1620 S 0.13118 0.51644 0.79675 0.0
N1621 N 0.09864 0.50177 0.80092 0.0
N1622 N 0.15416 0.48906 0.7931 0.0
C1623 C 0.13553 0.46626 0.79497 0.0
C1624 C 0.10542 0.47309 0.79918 0.0
C1625 C 0.36726 0.57054 0.28014 0.0
C1626 C 0.3449 0.55776 0.29658 0.0
C1627 C 0.39645 0.56322 0.28513 0.0
C1628 C 0.40401 0.54219 0.30596 0.0
H1629 H 0.36244 0.58829 0.26542 0.0
H1630 H 0.41327 0.57553 0.27416 0.0
S1631 S 0.35299 0.49963 0.35158 0.0
N1632 N 0.33183 0.52153 0.33253 0.0
N1633 N 0.38655 0.50646 0.34078 0.0
C1634 C 0.38158 0.52719 0.32033 0.0
C1635 C 0.35198 0.53537 0.31597 0.0
C1636 C 0.99035 0.70335 0.88525 0.0
C1637 C 0.97366 0.71623 0.90741 0.0
C1638 C 0.98491 0.7098 0.85595 0.0
C1639 C 0.96323 0.72985 0.84806 0.0
H1640 H 0.00505 0.68562 0.89022 0.0
H1641 H 0.99565 0.69692 0.8394 0.0
S1642 S 0.91904 0.77465 0.89847 0.0
N1643 N 0.93863 0.75359 0.91995 0.0
N1644 N 0.929 0.76646 0.86497 0.0
C1645 C 0.94966 0.74599 0.87021 0.0
C1646 C 0.95474 0.73896 0.89997 0.0
C1647 C 0.5197 0.68613 0.11656 0.0
C1648 C 0.53436 0.70186 0.09483 0.0
C1649 C 0.52573 0.69096 0.14603 0.0
C1650 C 0.5459 0.71224 0.15462 0.0
H1651 H 0.50627 0.66765 0.11081 0.0
H1652 H 0.51668 0.67617 0.16197 0.0
S1653 S 0.58459 0.76367 0.10608 0.0
N1654 N 0.56615 0.74242 0.08379 0.0
N1655 N 0.57644 0.75259 0.13924 0.0
C1656 C 0.5574 0.73082 0.13322 0.0
C1657 C 0.55192 0.72531 0.10321 0.0
C1658 C 0.5924 0.30158 0.37274 0.0
C1659 C 0.5708 0.2969 0.35175 0.0
C1660 C 0.58526 0.30647 0.4018 0.0
C1661 C 0.55612 0.30744 0.41105 0.0
H1662 H 0.6151 0.30257 0.36644 0.0
H1663 H 0.6028 0.31123 0.41679 0.0
S1664 S 0.4915 0.29305 0.36487 0.0
N1665 N 0.51932 0.29041 0.34225 0.0
N1666 N 0.5055 0.3004 0.39715 0.0
C1667 C 0.53428 0.3007 0.3906 0.0
C1668 C 0.54173 0.29529 0.36082 0.0
C1669 C 0.90368 0.30649 0.63809 0.0
C1670 C 0.92567 0.3033 0.65897 0.0
C1671 C 0.91025 0.312 0.60905 0.0
C1672 C 0.93915 0.31537 0.59975 0.0
H1673 H 0.88103 0.30594 0.6445 0.0
H1674 H 0.89233 0.31546 0.59415 0.0
S1675 S 0.00491 0.30708 0.64581 0.0
N1676 N 0.97752 0.30157 0.66841 0.0
N1677 N 0.99024 0.31314 0.61357 0.0
C1678 C 0.96157 0.31055 0.62011 0.0
C1679 C 0.95473 0.30433 0.64987 0.0
loop_
_geom_bond_atom_site_label_1
_geom_bond_atom_site_label_2
_geom_bond_distance
_geom_bond_site_symmetry_2
_ccdc_geom_bond_type
In0 O1 2.294 . S
In0 O2 2.326 . S
In0 O6 2.266 . S
In0 O7 2.326 . S
In0 O8 2.266 . S
In0 O9 2.326 . S
In0 O11 2.294 . S
In0 O12 2.326 . S
O1 In0 2.294 . S
O1 C10 1.240 . S
O2 In0 2.326 . S
O2 C10 1.252 . S
C3 O6 1.252 . S
C3 O7 1.260 . S
C4 O11 1.240 . S
C4 O12 1.252 . S
C5 O8 1.252 . S
C5 O9 1.260 . S
O6 In0 2.266 . S
O6 C3 1.252 . S
O7 In0 2.326 . S
O7 C3 1.260 . S
O8 In0 2.266 . S
O8 C5 1.252 . S
O9 In0 2.326 . S
O9 C5 1.260 . S
C10 O1 1.240 . S
C10 O2 1.252 . S
O11 In0 2.294 . S
O11 C4 1.240 . S
O12 In0 2.326 . S
O12 C4 1.252 . S
In13 O14 2.294 1_655 S
In13 O15 2.326 1_655 S
In13 O19 2.266 . S
In13 O20 2.326 . S
In13 O21 2.266 . S
In13 O22 2.326 1_655 S
In13 O24 2.294 . S
In13 O25 2.326 . S
O14 In13 2.294 1_455 S
O14 C23 1.240 . S
O15 In13 2.326 1_455 S
O15 C23 1.252 . S
C16 O19 1.252 . S
C16 O20 1.260 . S
C17 O24 1.240 . S
C17 O25 1.252 . S
C18 O21 1.252 1_455 S
C18 O22 1.260 . S
O19 In13 2.266 . S
O19 C16 1.252 . S
O20 In13 2.326 . S
O20 C16 1.260 . S
O21 In13 2.266 . S
O21 C18 1.252 1_655 S
O22 In13 2.326 1_455 S
O22 C18 1.260 . S
C23 O14 1.240 . S
C23 O15 1.252 . S
O24 In13 2.294 . S
O24 C17 1.240 . S
O25 In13 2.326 . S
O25 C17 1.252 . S
In26 O27 2.294 . S
In26 O28 2.326 . S
In26 O32 2.266 . S
In26 O33 2.326 . S
In26 O34 2.266 . S
In26 O35 2.326 . S
In26 O37 2.294 . S
In26 O38 2.326 . S
O27 In26 2.294 . S
O27 C36 1.240 . S
O28 In26 2.326 . S
O28 C36 1.252 . S
C29 O32 1.252 . S
C29 O33 1.260 . S
C30 O37 1.240 . S
C30 O38 1.252 . S
C31 O34 1.252 . S
C31 O35 1.260 . S
O32 In26 2.266 . S
O32 C29 1.252 . S
O33 In26 2.326 . S
O33 C29 1.260 . S
O34 In26 2.266 . S
O34 C31 1.252 . S
O35 In26 2.326 . S
O35 C31 1.260 . S
C36 O27 1.240 . S
C36 O28 1.252 . S
O37 In26 2.294 . S
O37 C30 1.240 . S
O38 In26 2.326 . S
O38 C30 1.252 . S
In39 O40 2.294 . S
In39 O41 2.326 . S
In39 O45 2.266 . S
In39 O46 2.326 . S
In39 O47 2.266 . S
In39 O48 2.326 . S
In39 O50 2.294 . S
In39 O51 2.326 . S
O40 In39 2.294 . S
O40 C49 1.240 . S
O41 In39 2.326 . S
O41 C49 1.252 . S
C42 O45 1.252 . S
C42 O46 1.260 . S
C43 O50 1.240 . S
C43 O51 1.252 . S
C44 O47 1.252 . S
C44 O48 1.260 . S
O45 In39 2.266 . S
O45 C42 1.252 . S
O46 In39 2.326 . S
O46 C42 1.260 . S
O47 In39 2.266 . S
O47 C44 1.252 . S
O48 In39 2.326 . S
O48 C44 1.260 . S
C49 O40 1.240 . S
C49 O41 1.252 . S
O50 In39 2.294 . S
O50 C43 1.240 . S
O51 In39 2.326 . S
O51 C43 1.252 . S
In52 O53 2.294 . S
In52 O54 2.326 . S
In52 O58 2.266 . S
In52 O59 2.326 . S
In52 O60 2.266 . S
In52 O61 2.326 . S
In52 O63 2.294 . S
In52 O64 2.326 . S
O53 In52 2.294 . S
O53 C62 1.240 . S
O54 In52 2.326 . S
O54 C62 1.252 . S
C55 O58 1.252 . S
C55 O59 1.260 . S
C56 O63 1.240 . S
C56 O64 1.252 . S
C57 O60 1.252 . S
C57 O61 1.260 . S
O58 In52 2.266 . S
O58 C55 1.252 . S
O59 In52 2.326 . S
O59 C55 1.260 . S
O60 In52 2.266 . S
O60 C57 1.252 . S
O61 In52 2.326 . S
O61 C57 1.260 . S
C62 O53 1.240 . S
C62 O54 1.252 . S
O63 In52 2.294 . S
O63 C56 1.240 . S
O64 In52 2.326 . S
O64 C56 1.252 . S
In65 O66 2.294 . S
In65 O67 2.326 . S
In65 O71 2.266 . S
In65 O72 2.326 . S
In65 O73 2.266 . S
In65 O74 2.326 . S
In65 O76 2.294 . S
In65 O77 2.326 . S
O66 In65 2.294 . S
O66 C75 1.240 . S
O67 In65 2.326 . S
O67 C75 1.252 . S
C68 O71 1.252 . S
C68 O72 1.260 . S
C69 O76 1.240 . S
C69 O77 1.252 . S
C70 O73 1.252 . S
C70 O74 1.260 . S
O71 In65 2.266 . S
O71 C68 1.252 . S
O72 In65 2.326 . S
O72 C68 1.260 . S
O73 In65 2.266 . S
O73 C70 1.252 . S
O74 In65 2.326 . S
O74 C70 1.260 . S
C75 O66 1.240 . S
C75 O67 1.252 . S
O76 In65 2.294 . S
O76 C69 1.240 . S
O77 In65 2.326 . S
O77 C69 1.252 . S
In78 O79 2.294 . S
In78 O80 2.326 . S
In78 O84 2.266 . S
In78 O85 2.326 . S
In78 O86 2.266 . S
In78 O87 2.326 . S
In78 O89 2.294 . S
In78 O90 2.326 . S
O79 In78 2.294 . S
O79 C88 1.240 . S
O80 In78 2.326 . S
O80 C88 1.252 . S
C81 O84 1.252 . S
C81 O85 1.260 . S
C82 O89 1.240 . S
C82 O90 1.252 . S
C83 O86 1.252 . S
C83 O87 1.260 . S
O84 In78 2.266 . S
O84 C81 1.252 . S
O85 In78 2.326 . S
O85 C81 1.260 . S
O86 In78 2.266 . S
O86 C83 1.252 . S
O87 In78 2.326 . S
O87 C83 1.260 . S
C88 O79 1.240 . S
C88 O80 1.252 . S
O89 In78 2.294 . S
O89 C82 1.240 . S
O90 In78 2.326 . S
O90 C82 1.252 . S
In91 O92 2.294 1_655 S
In91 O93 2.326 1_655 S
In91 O97 2.266 . S
In91 O98 2.326 . S
In91 O99 2.266 . S
In91 O100 2.326 1_655 S
In91 O102 2.294 . S
In91 O103 2.326 . S
O92 In91 2.294 1_455 S
O92 C101 1.240 . S
O93 In91 2.326 1_455 S
O93 C101 1.252 . S
C94 O97 1.252 . S
C94 O98 1.260 . S
C95 O102 1.240 . S
C95 O103 1.252 . S
C96 O99 1.252 1_455 S
C96 O100 1.260 . S
O97 In91 2.266 . S
O97 C94 1.252 . S
O98 In91 2.326 . S
O98 C94 1.260 . S
O99 In91 2.266 . S
O99 C96 1.252 1_655 S
O100 In91 2.326 1_455 S
O100 C96 1.260 . S
C101 O92 1.240 . S
C101 O93 1.252 . S
O102 In91 2.294 . S
O102 C95 1.240 . S
O103 In91 2.326 . S
O103 C95 1.252 . S
In104 O105 2.294 . S
In104 O106 2.326 . S
In104 O110 2.266 . S
In104 O111 2.326 . S
In104 O112 2.266 . S
In104 O113 2.326 . S
In104 O115 2.294 . S
In104 O116 2.326 . S
O105 In104 2.294 . S
O105 C114 1.240 . S
O106 In104 2.326 . S
O106 C114 1.252 . S
C107 O110 1.252 . S
C107 O111 1.260 . S
C108 O115 1.240 . S
C108 O116 1.252 . S
C109 O112 1.252 . S
C109 O113 1.260 . S
O110 In104 2.266 . S
O110 C107 1.252 . S
O111 In104 2.326 . S
O111 C107 1.260 . S
O112 In104 2.266 . S
O112 C109 1.252 . S
O113 In104 2.326 . S
O113 C109 1.260 . S
C114 O105 1.240 . S
C114 O106 1.252 . S
O115 In104 2.294 . S
O115 C108 1.240 . S
O116 In104 2.326 . S
O116 C108 1.252 . S
In117 O118 2.294 . S
In117 O119 2.326 . S
In117 O123 2.266 . S
In117 O124 2.326 . S
In117 O125 2.266 . S
In117 O126 2.326 . S
In117 O128 2.294 . S
In117 O129 2.326 . S
O118 In117 2.294 . S
O118 C127 1.240 . S
O119 In117 2.326 . S
O119 C127 1.252 . S
C120 O123 1.252 . S
C120 O124 1.260 . S
C121 O128 1.240 . S
C121 O129 1.252 . S
C122 O125 1.252 . S
C122 O126 1.260 . S
O123 In117 2.266 . S
O123 C120 1.252 . S
O124 In117 2.326 . S
O124 C120 1.260 . S
O125 In117 2.266 . S
O125 C122 1.252 . S
O126 In117 2.326 . S
O126 C122 1.260 . S
C127 O118 1.240 . S
C127 O119 1.252 . S
O128 In117 2.294 . S
O128 C121 1.240 . S
O129 In117 2.326 . S
O129 C121 1.252 . S
In130 O131 2.294 . S
In130 O132 2.326 . S
In130 O136 2.266 . S
In130 O137 2.326 . S
In130 O138 2.266 . S
In130 O139 2.326 . S
In130 O141 2.294 . S
In130 O142 2.326 . S
O131 In130 2.294 . S
O131 C140 1.240 . S
O132 In130 2.326 . S
O132 C140 1.252 . S
C133 O136 1.252 . S
C133 O137 1.260 . S
C134 O141 1.240 . S
C134 O142 1.252 . S
C135 O138 1.252 . S
C135 O139 1.260 . S
O136 In130 2.266 . S
O136 C133 1.252 . S
O137 In130 2.326 . S
O137 C133 1.260 . S
O138 In130 2.266 . S
O138 C135 1.252 . S
O139 In130 2.326 . S
O139 C135 1.260 . S
C140 O131 1.240 . S
C140 O132 1.252 . S
O141 In130 2.294 . S
O141 C134 1.240 . S
O142 In130 2.326 . S
O142 C134 1.252 . S
In143 O144 2.294 . S
In143 O145 2.326 . S
In143 O149 2.266 . S
In143 O150 2.326 1_554 S
In143 O151 2.266 . S
In143 O152 2.326 . S
In143 O154 2.294 1_554 S
In143 O155 2.326 1_554 S
O144 In143 2.294 . S
O144 C153 1.240 . S
O145 In143 2.326 . S
O145 C153 1.252 . S
C146 O149 1.252 1_556 S
C146 O150 1.260 . S
C147 O154 1.240 . S
C147 O155 1.252 . S
C148 O151 1.252 . S
C148 O152 1.260 . S
O149 In143 2.266 . S
O149 C146 1.252 1_554 S
O150 In143 2.326 1_556 S
O150 C146 1.260 . S
O151 In143 2.266 . S
O151 C148 1.252 . S
O152 In143 2.326 . S
O152 C148 1.260 . S
C153 O144 1.240 . S
C153 O145 1.252 . S
O154 In143 2.294 1_556 S
O154 C147 1.240 . S
O155 In143 2.326 1_556 S
O155 C147 1.252 . S
In156 O157 2.294 . S
In156 O158 2.326 . S
In156 O162 2.266 . S
In156 O163 2.326 . S
In156 O164 2.266 . S
In156 O165 2.326 . S
In156 O167 2.294 . S
In156 O168 2.326 . S
O157 In156 2.294 . S
O157 C166 1.240 . S
O158 In156 2.326 . S
O158 C166 1.252 . S
C159 O162 1.252 . S
C159 O163 1.260 . S
C160 O167 1.240 . S
C160 O168 1.252 . S
C161 O164 1.252 . S
C161 O165 1.260 . S
O162 In156 2.266 . S
O162 C159 1.252 . S
O163 In156 2.326 . S
O163 C159 1.260 . S
O164 In156 2.266 . S
O164 C161 1.252 . S
O165 In156 2.326 . S
O165 C161 1.260 . S
C166 O157 1.240 . S
C166 O158 1.252 . S
O167 In156 2.294 . S
O167 C160 1.240 . S
O168 In156 2.326 . S
O168 C160 1.252 . S
In169 O170 2.294 . S
In169 O171 2.326 . S
In169 O175 2.266 . S
In169 O176 2.326 . S
In169 O177 2.266 . S
In169 O178 2.326 . S
In169 O180 2.294 . S
In169 O181 2.326 . S
O170 In169 2.294 . S
O170 C179 1.240 . S
O171 In169 2.326 . S
O171 C179 1.252 . S
C172 O175 1.252 . S
C172 O176 1.260 . S
C173 O180 1.240 . S
C173 O181 1.252 . S
C174 O177 1.252 . S
C174 O178 1.260 . S
O175 In169 2.266 . S
O175 C172 1.252 . S
O176 In169 2.326 . S
O176 C172 1.260 . S
O177 In169 2.266 . S
O177 C174 1.252 . S
O178 In169 2.326 . S
O178 C174 1.260 . S
C179 O170 1.240 . S
C179 O171 1.252 . S
O180 In169 2.294 . S
O180 C173 1.240 . S
O181 In169 2.326 . S
O181 C173 1.252 . S
In182 O183 2.294 . S
In182 O184 2.326 . S
In182 O188 2.266 . S
In182 O189 2.326 . S
In182 O190 2.266 . S
In182 O191 2.326 . S
In182 O193 2.294 . S
In182 O194 2.326 . S
O183 In182 2.294 . S
O183 C192 1.240 . S
O184 In182 2.326 . S
O184 C192 1.252 . S
C185 O188 1.252 . S
C185 O189 1.260 . S
C186 O193 1.240 . S
C186 O194 1.252 . S
C187 O190 1.252 . S
C187 O191 1.260 . S
O188 In182 2.266 . S
O188 C185 1.252 . S
O189 In182 2.326 . S
O189 C185 1.260 . S
O190 In182 2.266 . S
O190 C187 1.252 . S
O191 In182 2.326 . S
O191 C187 1.260 . S
C192 O183 1.240 . S
C192 O184 1.252 . S
O193 In182 2.294 . S
O193 C186 1.240 . S
O194 In182 2.326 . S
O194 C186 1.252 . S
In195 O196 2.294 1_556 S
In195 O197 2.326 1_556 S
In195 O201 2.266 . S
In195 O202 2.326 . S
In195 O203 2.266 . S
In195 O204 2.326 1_556 S
In195 O206 2.294 . S
In195 O207 2.326 . S
O196 In195 2.294 1_554 S
O196 C205 1.240 . S
O197 In195 2.326 1_554 S
O197 C205 1.252 . S
C198 O201 1.252 . S
C198 O202 1.260 . S
C199 O206 1.240 . S
C199 O207 1.252 . S
C200 O203 1.252 1_554 S
C200 O204 1.260 . S
O201 In195 2.266 . S
O201 C198 1.252 . S
O202 In195 2.326 . S
O202 C198 1.260 . S
O203 In195 2.266 . S
O203 C200 1.252 1_556 S
O204 In195 2.326 1_554 S
O204 C200 1.260 . S
C205 O196 1.240 . S
C205 O197 1.252 . S
O206 In195 2.294 . S
O206 C199 1.240 . S
O207 In195 2.326 . S
O207 C199 1.252 . S
In208 O209 2.294 . S
In208 O210 2.326 . S
In208 O214 2.266 . S
In208 O215 2.326 . S
In208 O216 2.266 . S
In208 O217 2.326 . S
In208 O219 2.294 . S
In208 O220 2.326 . S
O209 In208 2.294 . S
O209 C218 1.240 . S
O210 In208 2.326 . S
O210 C218 1.252 . S
C211 O214 1.252 . S
C211 O215 1.260 . S
C212 O219 1.240 . S
C212 O220 1.252 . S
C213 O216 1.252 . S
C213 O217 1.260 . S
O214 In208 2.266 . S
O214 C211 1.252 . S
O215 In208 2.326 . S
O215 C211 1.260 . S
O216 In208 2.266 . S
O216 C213 1.252 . S
O217 In208 2.326 . S
O217 C213 1.260 . S
C218 O209 1.240 . S
C218 O210 1.252 . S
O219 In208 2.294 . S
O219 C212 1.240 . S
O220 In208 2.326 . S
O220 C212 1.252 . S
In221 O222 2.294 . S
In221 O223 2.326 . S
In221 O227 2.266 . S
In221 O228 2.326 . S
In221 O229 2.266 . S
In221 O230 2.326 . S
In221 O232 2.294 . S
In221 O233 2.326 . S
O222 In221 2.294 . S
O222 C231 1.240 . S
O223 In221 2.326 . S
O223 C231 1.252 . S
C224 O227 1.252 . S
C224 O228 1.260 . S
C225 O232 1.240 . S
C225 O233 1.252 . S
C226 O229 1.252 . S
C226 O230 1.260 . S
O227 In221 2.266 . S
O227 C224 1.252 . S
O228 In221 2.326 . S
O228 C224 1.260 . S
O229 In221 2.266 . S
O229 C226 1.252 . S
O230 In221 2.326 . S
O230 C226 1.260 . S
C231 O222 1.240 . S
C231 O223 1.252 . S
O232 In221 2.294 . S
O232 C225 1.240 . S
O233 In221 2.326 . S
O233 C225 1.252 . S
In234 O235 2.294 . S
In234 O236 2.326 . S
In234 O240 2.266 . S
In234 O241 2.326 . S
In234 O242 2.266 . S
In234 O243 2.326 . S
In234 O245 2.294 . S
In234 O246 2.326 . S
O235 In234 2.294 . S
O235 C244 1.240 . S
O236 In234 2.326 . S
O236 C244 1.252 . S
C237 O240 1.252 . S
C237 O241 1.260 . S
C238 O245 1.240 . S
C238 O246 1.252 . S
C239 O242 1.252 . S
C239 O243 1.260 . S
O240 In234 2.266 . S
O240 C237 1.252 . S
O241 In234 2.326 . S
O241 C237 1.260 . S
O242 In234 2.266 . S
O242 C239 1.252 . S
O243 In234 2.326 . S
O243 C239 1.260 . S
C244 O235 1.240 . S
C244 O236 1.252 . S
O245 In234 2.294 . S
O245 C238 1.240 . S
O246 In234 2.326 . S
O246 C238 1.252 . S
In247 O248 2.294 . S
In247 O249 2.326 . S
In247 O253 2.266 . S
In247 O254 2.326 . S
In247 O255 2.266 . S
In247 O256 2.326 . S
In247 O258 2.294 . S
In247 O259 2.326 . S
O248 In247 2.294 . S
O248 C257 1.240 . S
O249 In247 2.326 . S
O249 C257 1.252 . S
C250 O253 1.252 . S
C250 O254 1.260 . S
C251 O258 1.240 . S
C251 O259 1.252 . S
C252 O255 1.252 . S
C252 O256 1.260 . S
O253 In247 2.266 . S
O253 C250 1.252 . S
O254 In247 2.326 . S
O254 C250 1.260 . S
O255 In247 2.266 . S
O255 C252 1.252 . S
O256 In247 2.326 . S
O256 C252 1.260 . S
C257 O248 1.240 . S
C257 O249 1.252 . S
O258 In247 2.294 . S
O258 C251 1.240 . S
O259 In247 2.326 . S
O259 C251 1.252 . S
In260 O261 2.294 . S
In260 O262 2.326 . S
In260 O266 2.266 . S
In260 O267 2.326 1_565 S
In260 O268 2.266 . S
In260 O269 2.326 . S
In260 O271 2.294 1_565 S
In260 O272 2.326 1_565 S
O261 In260 2.294 . S
O261 C270 1.240 . S
O262 In260 2.326 . S
O262 C270 1.252 . S
C263 O266 1.252 1_545 S
C263 O267 1.260 . S
C264 O271 1.240 . S
C264 O272 1.252 . S
C265 O268 1.252 . S
C265 O269 1.260 . S
O266 In260 2.266 . S
O266 C263 1.252 1_565 S
O267 In260 2.326 1_545 S
O267 C263 1.260 . S
O268 In260 2.266 . S
O268 C265 1.252 . S
O269 In260 2.326 . S
O269 C265 1.260 . S
C270 O261 1.240 . S
C270 O262 1.252 . S
O271 In260 2.294 1_545 S
O271 C264 1.240 . S
O272 In260 2.326 1_545 S
O272 C264 1.252 . S
In273 O274 2.294 . S
In273 O275 2.326 . S
In273 O279 2.266 . S
In273 O280 2.326 . S
In273 O281 2.266 . S
In273 O282 2.326 . S
In273 O284 2.294 . S
In273 O285 2.326 . S
O274 In273 2.294 . S
O274 C283 1.240 . S
O275 In273 2.326 . S
O275 C283 1.252 . S
C276 O279 1.252 . S
C276 O280 1.260 . S
C277 O284 1.240 . S
C277 O285 1.252 . S
C278 O281 1.252 . S
C278 O282 1.260 . S
O279 In273 2.266 . S
O279 C276 1.252 . S
O280 In273 2.326 . S
O280 C276 1.260 . S
O281 In273 2.266 . S
O281 C278 1.252 . S
O282 In273 2.326 . S
O282 C278 1.260 . S
C283 O274 1.240 . S
C283 O275 1.252 . S
O284 In273 2.294 . S
O284 C277 1.240 . S
O285 In273 2.326 . S
O285 C277 1.252 . S
In286 O287 2.294 . S
In286 O288 2.326 . S
In286 O292 2.266 . S
In286 O293 2.326 . S
In286 O294 2.266 . S
In286 O295 2.326 . S
In286 O297 2.294 . S
In286 O298 2.326 . S
O287 In286 2.294 . S
O287 C296 1.240 . S
O288 In286 2.326 . S
O288 C296 1.252 . S
C289 O292 1.252 . S
C289 O293 1.260 . S
C290 O297 1.240 . S
C290 O298 1.252 . S
C291 O294 1.252 . S
C291 O295 1.260 . S
O292 In286 2.266 . S
O292 C289 1.252 . S
O293 In286 2.326 . S
O293 C289 1.260 . S
O294 In286 2.266 . S
O294 C291 1.252 . S
O295 In286 2.326 . S
O295 C291 1.260 . S
C296 O287 1.240 . S
C296 O288 1.252 . S
O297 In286 2.294 . S
O297 C290 1.240 . S
O298 In286 2.326 . S
O298 C290 1.252 . S
In299 O300 2.294 . S
In299 O301 2.326 . S
In299 O305 2.266 . S
In299 O306 2.326 . S
In299 O307 2.266 . S
In299 O308 2.326 . S
In299 O310 2.294 . S
In299 O311 2.326 . S
O300 In299 2.294 . S
O300 C309 1.240 . S
O301 In299 2.326 . S
O301 C309 1.252 . S
C302 O305 1.252 . S
C302 O306 1.260 . S
C303 O310 1.240 . S
C303 O311 1.252 . S
C304 O307 1.252 . S
C304 O308 1.260 . S
O305 In299 2.266 . S
O305 C302 1.252 . S
O306 In299 2.326 . S
O306 C302 1.260 . S
O307 In299 2.266 . S
O307 C304 1.252 . S
O308 In299 2.326 . S
O308 C304 1.260 . S
C309 O300 1.240 . S
C309 O301 1.252 . S
O310 In299 2.294 . S
O310 C303 1.240 . S
O311 In299 2.326 . S
O311 C303 1.252 . S
In312 O313 2.294 . S
In312 O314 2.326 . S
In312 O318 2.266 . S
In312 O319 2.326 . S
In312 O320 2.266 . S
In312 O321 2.326 . S
In312 O323 2.294 . S
In312 O324 2.326 . S
O313 In312 2.294 . S
O313 C322 1.240 . S
O314 In312 2.326 . S
O314 C322 1.252 . S
C315 O318 1.252 . S
C315 O319 1.260 . S
C316 O323 1.240 . S
C316 O324 1.252 . S
C317 O320 1.252 . S
C317 O321 1.260 . S
O318 In312 2.266 . S
O318 C315 1.252 . S
O319 In312 2.326 . S
O319 C315 1.260 . S
O320 In312 2.266 . S
O320 C317 1.252 . S
O321 In312 2.326 . S
O321 C317 1.260 . S
C322 O313 1.240 . S
C322 O314 1.252 . S
O323 In312 2.294 . S
O323 C316 1.240 . S
O324 In312 2.326 . S
O324 C316 1.252 . S
In325 O326 2.294 . S
In325 O327 2.326 . S
In325 O331 2.266 . S
In325 O332 2.326 . S
In325 O333 2.266 . S
In325 O334 2.326 . S
In325 O336 2.294 . S
In325 O337 2.326 . S
O326 In325 2.294 . S
O326 C335 1.240 . S
O327 In325 2.326 . S
O327 C335 1.252 . S
C328 O331 1.252 . S
C328 O332 1.260 . S
C329 O336 1.240 . S
C329 O337 1.252 . S
C330 O333 1.252 . S
C330 O334 1.260 . S
O331 In325 2.266 . S
O331 C328 1.252 . S
O332 In325 2.326 . S
O332 C328 1.260 . S
O333 In325 2.266 . S
O333 C330 1.252 . S
O334 In325 2.326 . S
O334 C330 1.260 . S
C335 O326 1.240 . S
C335 O327 1.252 . S
O336 In325 2.294 . S
O336 C329 1.240 . S
O337 In325 2.326 . S
O337 C329 1.252 . S
In338 O339 2.294 . S
In338 O340 2.326 . S
In338 O344 2.266 . S
In338 O345 2.326 . S
In338 O346 2.266 . S
In338 O347 2.326 . S
In338 O349 2.294 . S
In338 O350 2.326 . S
O339 In338 2.294 . S
O339 C348 1.240 . S
O340 In338 2.326 . S
O340 C348 1.252 . S
C341 O344 1.252 . S
C341 O345 1.260 . S
C342 O349 1.240 . S
C342 O350 1.252 . S
C343 O346 1.252 . S
C343 O347 1.260 . S
O344 In338 2.266 . S
O344 C341 1.252 . S
O345 In338 2.326 . S
O345 C341 1.260 . S
O346 In338 2.266 . S
O346 C343 1.252 . S
O347 In338 2.326 . S
O347 C343 1.260 . S
C348 O339 1.240 . S
C348 O340 1.252 . S
O349 In338 2.294 . S
O349 C342 1.240 . S
O350 In338 2.326 . S
O350 C342 1.252 . S
In351 O352 2.294 . S
In351 O353 2.326 . S
In351 O357 2.266 . S
In351 O358 2.326 1_455 S
In351 O359 2.266 . S
In351 O360 2.326 . S
In351 O362 2.294 1_455 S
In351 O363 2.326 1_455 S
O352 In351 2.294 . S
O352 C361 1.240 . S
O353 In351 2.326 . S
O353 C361 1.252 . S
C354 O357 1.252 1_655 S
C354 O358 1.260 . S
C355 O362 1.240 . S
C355 O363 1.252 . S
C356 O359 1.252 . S
C356 O360 1.260 . S
O357 In351 2.266 . S
O357 C354 1.252 1_455 S
O358 In351 2.326 1_655 S
O358 C354 1.260 . S
O359 In351 2.266 . S
O359 C356 1.252 . S
O360 In351 2.326 . S
O360 C356 1.260 . S
C361 O352 1.240 . S
C361 O353 1.252 . S
O362 In351 2.294 1_655 S
O362 C355 1.240 . S
O363 In351 2.326 1_655 S
O363 C355 1.252 . S
In364 O365 2.294 . S
In364 O366 2.326 . S
In364 O370 2.266 . S
In364 O371 2.326 . S
In364 O372 2.266 . S
In364 O373 2.326 . S
In364 O375 2.294 . S
In364 O376 2.326 . S
O365 In364 2.294 . S
O365 C374 1.240 . S
O366 In364 2.326 . S
O366 C374 1.252 . S
C367 O370 1.252 . S
C367 O371 1.260 . S
C368 O375 1.240 . S
C368 O376 1.252 . S
C369 O372 1.252 . S
C369 O373 1.260 . S
O370 In364 2.266 . S
O370 C367 1.252 . S
O371 In364 2.326 . S
O371 C367 1.260 . S
O372 In364 2.266 . S
O372 C369 1.252 . S
O373 In364 2.326 . S
O373 C369 1.260 . S
C374 O365 1.240 . S
C374 O366 1.252 . S
O375 In364 2.294 . S
O375 C368 1.240 . S
O376 In364 2.326 . S
O376 C368 1.252 . S
In377 O378 2.294 . S
In377 O379 2.326 . S
In377 O383 2.266 . S
In377 O384 2.326 1_455 S
In377 O385 2.266 . S
In377 O386 2.326 . S
In377 O388 2.294 1_455 S
In377 O389 2.326 1_455 S
O378 In377 2.294 . S
O378 C387 1.240 . S
O379 In377 2.326 . S
O379 C387 1.252 . S
C380 O383 1.252 1_655 S
C380 O384 1.260 . S
C381 O388 1.240 . S
C381 O389 1.252 . S
C382 O385 1.252 . S
C382 O386 1.260 . S
O383 In377 2.266 . S
O383 C380 1.252 1_455 S
O384 In377 2.326 1_655 S
O384 C380 1.260 . S
O385 In377 2.266 . S
O385 C382 1.252 . S
O386 In377 2.326 . S
O386 C382 1.260 . S
C387 O378 1.240 . S
C387 O379 1.252 . S
O388 In377 2.294 1_655 S
O388 C381 1.240 . S
O389 In377 2.326 1_655 S
O389 C381 1.252 . S
In390 O391 2.294 . S
In390 O392 2.326 . S
In390 O396 2.266 . S
In390 O397 2.326 . S
In390 O398 2.266 . S
In390 O399 2.326 . S
In390 O401 2.294 . S
In390 O402 2.326 . S
O391 In390 2.294 . S
O391 C400 1.240 . S
O392 In390 2.326 . S
O392 C400 1.252 . S
C393 O396 1.252 . S
C393 O397 1.260 . S
C394 O401 1.240 . S
C394 O402 1.252 . S
C395 O398 1.252 . S
C395 O399 1.260 . S
O396 In390 2.266 . S
O396 C393 1.252 . S
O397 In390 2.326 . S
O397 C393 1.260 . S
O398 In390 2.266 . S
O398 C395 1.252 . S
O399 In390 2.326 . S
O399 C395 1.260 . S
C400 O391 1.240 . S
C400 O392 1.252 . S
O401 In390 2.294 . S
O401 C394 1.240 . S
O402 In390 2.326 . S
O402 C394 1.252 . S
In403 O404 2.294 . S
In403 O405 2.326 . S
In403 O409 2.266 . S
In403 O410 2.326 . S
In403 O411 2.266 . S
In403 O412 2.326 . S
In403 O414 2.294 . S
In403 O415 2.326 . S
O404 In403 2.294 . S
O404 C413 1.240 . S
O405 In403 2.326 . S
O405 C413 1.252 . S
C406 O409 1.252 . S
C406 O410 1.260 . S
C407 O414 1.240 . S
C407 O415 1.252 . S
C408 O411 1.252 . S
C408 O412 1.260 . S
O409 In403 2.266 . S
O409 C406 1.252 . S
O410 In403 2.326 . S
O410 C406 1.260 . S
O411 In403 2.266 . S
O411 C408 1.252 . S
O412 In403 2.326 . S
O412 C408 1.260 . S
C413 O404 1.240 . S
C413 O405 1.252 . S
O414 In403 2.294 . S
O414 C407 1.240 . S
O415 In403 2.326 . S
O415 C407 1.252 . S
In416 O417 2.294 . S
In416 O418 2.326 . S
In416 O422 2.266 . S
In416 O423 2.326 . S
In416 O424 2.266 . S
In416 O425 2.326 . S
In416 O427 2.294 . S
In416 O428 2.326 . S
O417 In416 2.294 . S
O417 C426 1.240 . S
O418 In416 2.326 . S
O418 C426 1.252 . S
C419 O422 1.252 . S
C419 O423 1.260 . S
C420 O427 1.240 . S
C420 O428 1.252 . S
C421 O424 1.252 . S
C421 O425 1.260 . S
O422 In416 2.266 . S
O422 C419 1.252 . S
O423 In416 2.326 . S
O423 C419 1.260 . S
O424 In416 2.266 . S
O424 C421 1.252 . S
O425 In416 2.326 . S
O425 C421 1.260 . S
C426 O417 1.240 . S
C426 O418 1.252 . S
O427 In416 2.294 . S
O427 C420 1.240 . S
O428 In416 2.326 . S
O428 C420 1.252 . S
In429 O430 2.294 1_554 S
In429 O431 2.326 1_554 S
In429 O435 2.266 . S
In429 O436 2.326 . S
In429 O437 2.266 . S
In429 O438 2.326 1_554 S
In429 O440 2.294 . S
In429 O441 2.326 . S
O430 In429 2.294 1_556 S
O430 C439 1.240 . S
O431 In429 2.326 1_556 S
O431 C439 1.252 . S
C432 O435 1.252 . S
C432 O436 1.260 . S
C433 O440 1.240 . S
C433 O441 1.252 . S
C434 O437 1.252 1_556 S
C434 O438 1.260 . S
O435 In429 2.266 . S
O435 C432 1.252 . S
O436 In429 2.326 . S
O436 C432 1.260 . S
O437 In429 2.266 . S
O437 C434 1.252 1_554 S
O438 In429 2.326 1_556 S
O438 C434 1.260 . S
C439 O430 1.240 . S
C439 O431 1.252 . S
O440 In429 2.294 . S
O440 C433 1.240 . S
O441 In429 2.326 . S
O441 C433 1.252 . S
In442 O443 2.294 . S
In442 O444 2.326 . S
In442 O448 2.266 . S
In442 O449 2.326 . S
In442 O450 2.266 . S
In442 O451 2.326 . S
In442 O453 2.294 . S
In442 O454 2.326 . S
O443 In442 2.294 . S
O443 C452 1.240 . S
O444 In442 2.326 . S
O444 C452 1.252 . S
C445 O448 1.252 . S
C445 O449 1.260 . S
C446 O453 1.240 . S
C446 O454 1.252 . S
C447 O450 1.252 . S
C447 O451 1.260 . S
O448 In442 2.266 . S
O448 C445 1.252 . S
O449 In442 2.326 . S
O449 C445 1.260 . S
O450 In442 2.266 . S
O450 C447 1.252 . S
O451 In442 2.326 . S
O451 C447 1.260 . S
C452 O443 1.240 . S
C452 O444 1.252 . S
O453 In442 2.294 . S
O453 C446 1.240 . S
O454 In442 2.326 . S
O454 C446 1.252 . S
In455 O456 2.294 . S
In455 O457 2.326 . S
In455 O461 2.266 . S
In455 O462 2.326 . S
In455 O463 2.266 . S
In455 O464 2.326 . S
In455 O466 2.294 . S
In455 O467 2.326 . S
O456 In455 2.294 . S
O456 C465 1.240 . S
O457 In455 2.326 . S
O457 C465 1.252 . S
C458 O461 1.252 . S
C458 O462 1.260 . S
C459 O466 1.240 . S
C459 O467 1.252 . S
C460 O463 1.252 . S
C460 O464 1.260 . S
O461 In455 2.266 . S
O461 C458 1.252 . S
O462 In455 2.326 . S
O462 C458 1.260 . S
O463 In455 2.266 . S
O463 C460 1.252 . S
O464 In455 2.326 . S
O464 C460 1.260 . S
C465 O456 1.240 . S
C465 O457 1.252 . S
O466 In455 2.294 . S
O466 C459 1.240 . S
O467 In455 2.326 . S
O467 C459 1.252 . S
In468 O469 2.294 . S
In468 O470 2.326 . S
In468 O474 2.266 . S
In468 O475 2.326 . S
In468 O476 2.266 . S
In468 O477 2.326 . S
In468 O479 2.294 . S
In468 O480 2.326 . S
O469 In468 2.294 . S
O469 C478 1.240 . S
O470 In468 2.326 . S
O470 C478 1.252 . S
C471 O474 1.252 . S
C471 O475 1.260 . S
C472 O479 1.240 . S
C472 O480 1.252 . S
C473 O476 1.252 . S
C473 O477 1.260 . S
O474 In468 2.266 . S
O474 C471 1.252 . S
O475 In468 2.326 . S
O475 C471 1.260 . S
O476 In468 2.266 . S
O476 C473 1.252 . S
O477 In468 2.326 . S
O477 C473 1.260 . S
C478 O469 1.240 . S
C478 O470 1.252 . S
O479 In468 2.294 . S
O479 C472 1.240 . S
O480 In468 2.326 . S
O480 C472 1.252 . S
In481 O482 2.294 1_556 S
In481 O483 2.326 1_556 S
In481 O487 2.266 . S
In481 O488 2.326 . S
In481 O489 2.266 . S
In481 O490 2.326 1_556 S
In481 O492 2.294 . S
In481 O493 2.326 . S
O482 In481 2.294 1_554 S
O482 C491 1.240 . S
O483 In481 2.326 1_554 S
O483 C491 1.252 . S
C484 O487 1.252 . S
C484 O488 1.260 . S
C485 O492 1.240 . S
C485 O493 1.252 . S
C486 O489 1.252 1_554 S
C486 O490 1.260 . S
O487 In481 2.266 . S
O487 C484 1.252 . S
O488 In481 2.326 . S
O488 C484 1.260 . S
O489 In481 2.266 . S
O489 C486 1.252 1_556 S
O490 In481 2.326 1_554 S
O490 C486 1.260 . S
C491 O482 1.240 . S
C491 O483 1.252 . S
O492 In481 2.294 . S
O492 C485 1.240 . S
O493 In481 2.326 . S
O493 C485 1.252 . S
In494 O495 2.294 . S
In494 O496 2.326 . S
In494 O500 2.266 . S
In494 O501 2.326 . S
In494 O502 2.266 . S
In494 O503 2.326 . S
In494 O505 2.294 . S
In494 O506 2.326 . S
O495 In494 2.294 . S
O495 C504 1.240 . S
O496 In494 2.326 . S
O496 C504 1.252 . S
C497 O500 1.252 . S
C497 O501 1.260 . S
C498 O505 1.240 . S
C498 O506 1.252 . S
C499 O502 1.252 . S
C499 O503 1.260 . S
O500 In494 2.266 . S
O500 C497 1.252 . S
O501 In494 2.326 . S
O501 C497 1.260 . S
O502 In494 2.266 . S
O502 C499 1.252 . S
O503 In494 2.326 . S
O503 C499 1.260 . S
C504 O495 1.240 . S
C504 O496 1.252 . S
O505 In494 2.294 . S
O505 C498 1.240 . S
O506 In494 2.326 . S
O506 C498 1.252 . S
In507 O508 2.294 . S
In507 O509 2.326 . S
In507 O513 2.266 . S
In507 O514 2.326 . S
In507 O515 2.266 . S
In507 O516 2.326 . S
In507 O518 2.294 . S
In507 O519 2.326 . S
O508 In507 2.294 . S
O508 C517 1.240 . S
O509 In507 2.326 . S
O509 C517 1.252 . S
C510 O513 1.252 . S
C510 O514 1.260 . S
C511 O518 1.240 . S
C511 O519 1.252 . S
C512 O515 1.252 . S
C512 O516 1.260 . S
O513 In507 2.266 . S
O513 C510 1.252 . S
O514 In507 2.326 . S
O514 C510 1.260 . S
O515 In507 2.266 . S
O515 C512 1.252 . S
O516 In507 2.326 . S
O516 C512 1.260 . S
C517 O508 1.240 . S
C517 O509 1.252 . S
O518 In507 2.294 . S
O518 C511 1.240 . S
O519 In507 2.326 . S
O519 C511 1.252 . S
In520 O521 2.294 . S
In520 O522 2.326 . S
In520 O526 2.266 . S
In520 O527 2.326 . S
In520 O528 2.266 . S
In520 O529 2.326 . S
In520 O531 2.294 . S
In520 O532 2.326 . S
O521 In520 2.294 . S
O521 C530 1.240 . S
O522 In520 2.326 . S
O522 C530 1.252 . S
C523 O526 1.252 . S
C523 O527 1.260 . S
C524 O531 1.240 . S
C524 O532 1.252 . S
C525 O528 1.252 . S
C525 O529 1.260 . S
O526 In520 2.266 . S
O526 C523 1.252 . S
O527 In520 2.326 . S
O527 C523 1.260 . S
O528 In520 2.266 . S
O528 C525 1.252 . S
O529 In520 2.326 . S
O529 C525 1.260 . S
C530 O521 1.240 . S
C530 O522 1.252 . S
O531 In520 2.294 . S
O531 C524 1.240 . S
O532 In520 2.326 . S
O532 C524 1.252 . S
In533 O534 2.294 . S
In533 O535 2.326 . S
In533 O539 2.266 . S
In533 O540 2.326 . S
In533 O541 2.266 . S
In533 O542 2.326 . S
In533 O544 2.294 . S
In533 O545 2.326 . S
O534 In533 2.294 . S
O534 C543 1.240 . S
O535 In533 2.326 . S
O535 C543 1.252 . S
C536 O539 1.252 . S
C536 O540 1.260 . S
C537 O544 1.240 . S
C537 O545 1.252 . S
C538 O541 1.252 . S
C538 O542 1.260 . S
O539 In533 2.266 . S
O539 C536 1.252 . S
O540 In533 2.326 . S
O540 C536 1.260 . S
O541 In533 2.266 . S
O541 C538 1.252 . S
O542 In533 2.326 . S
O542 C538 1.260 . S
C543 O534 1.240 . S
C543 O535 1.252 . S
O544 In533 2.294 . S
O544 C537 1.240 . S
O545 In533 2.326 . S
O545 C537 1.252 . S
In546 O547 2.294 1_545 S
In546 O548 2.326 1_545 S
In546 O552 2.266 . S
In546 O553 2.326 . S
In546 O554 2.266 . S
In546 O555 2.326 1_545 S
In546 O557 2.294 . S
In546 O558 2.326 . S
O547 In546 2.294 1_565 S
O547 C556 1.240 . S
O548 In546 2.326 1_565 S
O548 C556 1.252 . S
C549 O552 1.252 . S
C549 O553 1.260 . S
C550 O557 1.240 . S
C550 O558 1.252 . S
C551 O554 1.252 1_565 S
C551 O555 1.260 . S
O552 In546 2.266 . S
O552 C549 1.252 . S
O553 In546 2.326 . S
O553 C549 1.260 . S
O554 In546 2.266 . S
O554 C551 1.252 1_545 S
O555 In546 2.326 1_565 S
O555 C551 1.260 . S
C556 O547 1.240 . S
C556 O548 1.252 . S
O557 In546 2.294 . S
O557 C550 1.240 . S
O558 In546 2.326 . S
O558 C550 1.252 . S
In559 O560 2.294 . S
In559 O561 2.326 . S
In559 O565 2.266 . S
In559 O566 2.326 . S
In559 O567 2.266 . S
In559 O568 2.326 . S
In559 O570 2.294 . S
In559 O571 2.326 . S
O560 In559 2.294 . S
O560 C569 1.240 . S
O561 In559 2.326 . S
O561 C569 1.252 . S
C562 O565 1.252 . S
C562 O566 1.260 . S
C563 O570 1.240 . S
C563 O571 1.252 . S
C564 O567 1.252 . S
C564 O568 1.260 . S
O565 In559 2.266 . S
O565 C562 1.252 . S
O566 In559 2.326 . S
O566 C562 1.260 . S
O567 In559 2.266 . S
O567 C564 1.252 . S
O568 In559 2.326 . S
O568 C564 1.260 . S
C569 O560 1.240 . S
C569 O561 1.252 . S
O570 In559 2.294 . S
O570 C563 1.240 . S
O571 In559 2.326 . S
O571 C563 1.252 . S
In572 O573 2.294 . S
In572 O574 2.326 . S
In572 O578 2.266 . S
In572 O579 2.326 . S
In572 O580 2.266 . S
In572 O581 2.326 . S
In572 O583 2.294 . S
In572 O584 2.326 . S
O573 In572 2.294 . S
O573 C582 1.240 . S
O574 In572 2.326 . S
O574 C582 1.252 . S
C575 O578 1.252 . S
C575 O579 1.260 . S
C576 O583 1.240 . S
C576 O584 1.252 . S
C577 O580 1.252 . S
C577 O581 1.260 . S
O578 In572 2.266 . S
O578 C575 1.252 . S
O579 In572 2.326 . S
O579 C575 1.260 . S
O580 In572 2.266 . S
O580 C577 1.252 . S
O581 In572 2.326 . S
O581 C577 1.260 . S
C582 O573 1.240 . S
C582 O574 1.252 . S
O583 In572 2.294 . S
O583 C576 1.240 . S
O584 In572 2.326 . S
O584 C576 1.252 . S
In585 O586 2.294 . S
In585 O587 2.326 . S
In585 O591 2.266 . S
In585 O592 2.326 . S
In585 O593 2.266 . S
In585 O594 2.326 . S
In585 O596 2.294 . S
In585 O597 2.326 . S
O586 In585 2.294 . S
O586 C595 1.240 . S
O587 In585 2.326 . S
O587 C595 1.252 . S
C588 O591 1.252 . S
C588 O592 1.260 . S
C589 O596 1.240 . S
C589 O597 1.252 . S
C590 O593 1.252 . S
C590 O594 1.260 . S
O591 In585 2.266 . S
O591 C588 1.252 . S
O592 In585 2.326 . S
O592 C588 1.260 . S
O593 In585 2.266 . S
O593 C590 1.252 . S
O594 In585 2.326 . S
O594 C590 1.260 . S
C595 O586 1.240 . S
C595 O587 1.252 . S
O596 In585 2.294 . S
O596 C589 1.240 . S
O597 In585 2.326 . S
O597 C589 1.252 . S
In598 O599 2.294 . S
In598 O600 2.326 . S
In598 O604 2.266 . S
In598 O605 2.326 1_565 S
In598 O606 2.266 . S
In598 O607 2.326 . S
In598 O609 2.294 1_565 S
In598 O610 2.326 1_565 S
O599 In598 2.294 . S
O599 C608 1.240 . S
O600 In598 2.326 . S
O600 C608 1.252 . S
C601 O604 1.252 1_545 S
C601 O605 1.260 . S
C602 O609 1.240 . S
C602 O610 1.252 . S
C603 O606 1.252 . S
C603 O607 1.260 . S
O604 In598 2.266 . S
O604 C601 1.252 1_565 S
O605 In598 2.326 1_545 S
O605 C601 1.260 . S
O606 In598 2.266 . S
O606 C603 1.252 . S
O607 In598 2.326 . S
O607 C603 1.260 . S
C608 O599 1.240 . S
C608 O600 1.252 . S
O609 In598 2.294 1_545 S
O609 C602 1.240 . S
O610 In598 2.326 1_545 S
O610 C602 1.252 . S
In611 O612 2.294 . S
In611 O613 2.326 . S
In611 O617 2.266 . S
In611 O618 2.326 1_545 S
In611 O619 2.266 . S
In611 O620 2.326 . S
In611 O622 2.294 1_545 S
In611 O623 2.326 1_545 S
O612 In611 2.294 . S
O612 C621 1.240 . S
O613 In611 2.326 . S
O613 C621 1.252 . S
C614 O617 1.252 1_565 S
C614 O618 1.260 . S
C615 O622 1.240 . S
C615 O623 1.252 . S
C616 O619 1.252 . S
C616 O620 1.260 . S
O617 In611 2.266 . S
O617 C614 1.252 1_545 S
O618 In611 2.326 1_565 S
O618 C614 1.260 . S
O619 In611 2.266 . S
O619 C616 1.252 . S
O620 In611 2.326 . S
O620 C616 1.260 . S
C621 O612 1.240 . S
C621 O613 1.252 . S
O622 In611 2.294 1_565 S
O622 C615 1.240 . S
O623 In611 2.326 1_565 S
O623 C615 1.252 . S
C624 C625 1.369 . S
C624 C626 1.419 . S
C624 H628 0.930 . S
C625 C624 1.369 . S
C625 C634 1.429 . S
C626 C624 1.419 . S
C626 C627 1.363 . S
C626 H629 0.929 . S
C627 C626 1.363 . S
C627 C633 1.428 . S
H628 C624 0.930 . S
H629 C626 0.929 . S
S630 N631 1.613 . S
S630 N632 1.610 . S
N631 S630 1.613 . S
N631 C634 1.350 . S
N632 S630 1.610 . S
N632 C633 1.351 . S
C633 C627 1.428 . S
C633 N632 1.351 . S
C633 C634 1.434 . S
C634 C625 1.429 . S
C634 N631 1.350 . S
C634 C633 1.434 . S
C635 C636 1.369 . S
C635 C637 1.419 . S
C635 H639 0.930 . S
C636 C635 1.369 . S
C636 C645 1.429 . S
C637 C635 1.419 . S
C637 C638 1.363 . S
C637 H640 0.929 . S
C638 C637 1.363 . S
C638 C644 1.428 . S
H639 C635 0.930 . S
H640 C637 0.929 . S
S641 N642 1.613 . S
S641 N643 1.610 . S
N642 S641 1.613 . S
N642 C645 1.350 . S
N643 S641 1.610 . S
N643 C644 1.351 . S
C644 C638 1.428 . S
C644 N643 1.351 . S
C644 C645 1.434 . S
C645 C636 1.429 . S
C645 N642 1.350 . S
C645 C644 1.434 . S
C646 C647 1.369 . S
C646 C648 1.419 . S
C646 H650 0.930 . S
C647 C646 1.369 . S
C647 C656 1.429 . S
C648 C646 1.419 . S
C648 C649 1.363 . S
C648 H651 0.929 . S
C649 C648 1.363 . S
C649 C655 1.428 . S
H650 C646 0.930 . S
H651 C648 0.929 . S
S652 N653 1.613 . S
S652 N654 1.610 . S
N653 S652 1.613 . S
N653 C656 1.350 . S
N654 S652 1.610 . S
N654 C655 1.351 . S
C655 C649 1.428 . S
C655 N654 1.351 . S
C655 C656 1.434 . S
C656 C647 1.429 . S
C656 N653 1.350 . S
C656 C655 1.434 . S
C657 C658 1.369 . S
C657 C659 1.419 . S
C657 H661 0.930 . S
C658 C657 1.369 . S
C658 C667 1.429 . S
C659 C657 1.419 . S
C659 C660 1.363 . S
C659 H662 0.929 . S
C660 C659 1.363 . S
C660 C666 1.428 . S
H661 C657 0.930 . S
H662 C659 0.929 . S
S663 N664 1.613 . S
S663 N665 1.610 . S
N664 S663 1.613 . S
N664 C667 1.350 . S
N665 S663 1.610 . S
N665 C666 1.351 . S
C666 C660 1.428 . S
C666 N665 1.351 . S
C666 C667 1.434 . S
C667 C658 1.429 . S
C667 N664 1.350 . S
C667 C666 1.434 . S
C668 C669 1.369 . S
C668 C670 1.419 . S
C668 H672 0.930 . S
C669 C668 1.369 . S
C669 C678 1.429 . S
C670 C668 1.419 . S
C670 C671 1.363 . S
C670 H673 0.929 . S
C671 C670 1.363 . S
C671 C677 1.428 . S
H672 C668 0.930 . S
H673 C670 0.929 . S
S674 N675 1.613 . S
S674 N676 1.610 . S
N675 S674 1.613 . S
N675 C678 1.350 . S
N676 S674 1.610 . S
N676 C677 1.351 . S
C677 C671 1.428 . S
C677 N676 1.351 . S
C677 C678 1.434 . S
C678 C669 1.429 . S
C678 N675 1.350 . S
C678 C677 1.434 . S
C679 C680 1.369 . S
C679 C681 1.419 . S
C679 H683 0.930 . S
C680 C679 1.369 . S
C680 C689 1.429 . S
C681 C679 1.419 . S
C681 C682 1.363 . S
C681 H684 0.929 . S
C682 C681 1.363 . S
C682 C688 1.428 . S
H683 C679 0.930 . S
H684 C681 0.929 . S
S685 N686 1.613 . S
S685 N687 1.610 . S
N686 S685 1.613 . S
N686 C689 1.350 . S
N687 S685 1.610 . S
N687 C688 1.351 . S
C688 C682 1.428 . S
C688 N687 1.351 . S
C688 C689 1.434 . S
C689 C680 1.429 . S
C689 N686 1.350 . S
C689 C688 1.434 . S
C690 C691 1.369 . S
C690 C692 1.419 . S
C690 H694 0.930 . S
C691 C690 1.369 . S
C691 C700 1.429 . S
C692 C690 1.419 . S
C692 C693 1.363 . S
C692 H695 0.929 . S
C693 C692 1.363 . S
C693 C699 1.428 . S
H694 C690 0.930 . S
H695 C692 0.929 . S
S696 N697 1.613 . S
S696 N698 1.610 . S
N697 S696 1.613 . S
N697 C700 1.350 . S
N698 S696 1.610 . S
N698 C699 1.351 . S
C699 C693 1.428 . S
C699 N698 1.351 . S
C699 C700 1.434 . S
C700 C691 1.429 . S
C700 N697 1.350 . S
C700 C699 1.434 . S
C701 C702 1.369 . S
C701 C703 1.419 . S
C701 H705 0.930 . S
C702 C701 1.369 . S
C702 C711 1.429 . S
C703 C701 1.419 . S
C703 C704 1.363 . S
C703 H706 0.929 . S
C704 C703 1.363 . S
C704 C710 1.428 . S
H705 C701 0.930 . S
H706 C703 0.929 . S
S707 N708 1.613 . S
S707 N709 1.610 . S
N708 S707 1.613 . S
N708 C711 1.350 . S
N709 S707 1.610 . S
N709 C710 1.351 . S
C710 C704 1.428 . S
C710 N709 1.351 . S
C710 C711 1.434 . S
C711 C702 1.429 . S
C711 N708 1.350 . S
C711 C710 1.434 . S
C712 C713 1.369 . S
C712 C714 1.419 . S
C712 H716 0.930 . S
C713 C712 1.369 . S
C713 C722 1.429 . S
C714 C712 1.419 . S
C714 C715 1.363 . S
C714 H717 0.929 . S
C715 C714 1.363 . S
C715 C721 1.428 . S
H716 C712 0.930 . S
H717 C714 0.929 . S
S718 N719 1.613 . S
S718 N720 1.610 . S
N719 S718 1.613 . S
N719 C722 1.350 . S
N720 S718 1.610 . S
N720 C721 1.351 . S
C721 C715 1.428 . S
C721 N720 1.351 . S
C721 C722 1.434 . S
C722 C713 1.429 . S
C722 N719 1.350 . S
C722 C721 1.434 . S
C723 C724 1.369 . S
C723 C725 1.419 . S
C723 H727 0.930 . S
C724 C723 1.369 . S
C724 C733 1.429 . S
C725 C723 1.419 . S
C725 C726 1.363 . S
C725 H728 0.929 . S
C726 C725 1.363 . S
C726 C732 1.428 . S
H727 C723 0.930 . S
H728 C725 0.929 . S
S729 N730 1.613 . S
S729 N731 1.610 . S
N730 S729 1.613 . S
N730 C733 1.350 . S
N731 S729 1.610 . S
N731 C732 1.351 . S
C732 C726 1.428 . S
C732 N731 1.351 . S
C732 C733 1.434 . S
C733 C724 1.429 . S
C733 N730 1.350 . S
C733 C732 1.434 . S
C734 C735 1.369 . S
C734 C736 1.419 . S
C734 H738 0.930 . S
C735 C734 1.369 . S
C735 C744 1.429 . S
C736 C734 1.419 . S
C736 C737 1.363 . S
C736 H739 0.929 . S
C737 C736 1.363 . S
C737 C743 1.428 . S
H738 C734 0.930 . S
H739 C736 0.929 . S
S740 N741 1.613 . S
S740 N742 1.610 . S
N741 S740 1.613 . S
N741 C744 1.350 . S
N742 S740 1.610 . S
N742 C743 1.351 . S
C743 C737 1.428 . S
C743 N742 1.351 . S
C743 C744 1.434 . S
C744 C735 1.429 . S
C744 N741 1.350 . S
C744 C743 1.434 . S
C745 C746 1.369 . S
C745 C747 1.419 . S
C745 H749 0.930 . S
C746 C745 1.369 . S
C746 C755 1.429 . S
C747 C745 1.419 . S
C747 C748 1.363 . S
C747 H750 0.929 . S
C748 C747 1.363 . S
C748 C754 1.428 . S
H749 C745 0.930 . S
H750 C747 0.929 . S
S751 N752 1.613 . S
S751 N753 1.610 . S
N752 S751 1.613 . S
N752 C755 1.350 . S
N753 S751 1.610 . S
N753 C754 1.351 . S
C754 C748 1.428 . S
C754 N753 1.351 . S
C754 C755 1.434 . S
C755 C746 1.429 . S
C755 N752 1.350 . S
C755 C754 1.434 . S
C756 C757 1.369 . S
C756 C758 1.419 . S
C756 H760 0.930 . S
C757 C756 1.369 . S
C757 C766 1.429 . S
C758 C756 1.419 . S
C758 C759 1.363 . S
C758 H761 0.929 . S
C759 C758 1.363 . S
C759 C765 1.428 . S
H760 C756 0.930 . S
H761 C758 0.929 . S
S762 N763 1.613 . S
S762 N764 1.610 . S
N763 S762 1.613 . S
N763 C766 1.350 . S
N764 S762 1.610 . S
N764 C765 1.351 . S
C765 C759 1.428 . S
C765 N764 1.351 . S
C765 C766 1.434 . S
C766 C757 1.429 . S
C766 N763 1.350 . S
C766 C765 1.434 . S
C767 C768 1.369 . S
C767 C769 1.419 . S
C767 H771 0.930 . S
C768 C767 1.369 . S
C768 C777 1.429 . S
C769 C767 1.419 . S
C769 C770 1.363 . S
C769 H772 0.929 . S
C770 C769 1.363 . S
C770 C776 1.428 . S
H771 C767 0.930 . S
H772 C769 0.929 . S
S773 N774 1.613 . S
S773 N775 1.610 . S
N774 S773 1.613 . S
N774 C777 1.350 . S
N775 S773 1.610 . S
N775 C776 1.351 . S
C776 C770 1.428 . S
C776 N775 1.351 . S
C776 C777 1.434 . S
C777 C768 1.429 . S
C777 N774 1.350 . S
C777 C776 1.434 . S
C778 C779 1.369 . S
C778 C780 1.419 . S
C778 H782 0.930 . S
C779 C778 1.369 . S
C779 C788 1.429 . S
C780 C778 1.419 . S
C780 C781 1.363 . S
C780 H783 0.929 . S
C781 C780 1.363 . S
C781 C787 1.428 . S
H782 C778 0.930 . S
H783 C780 0.929 . S
S784 N785 1.613 . S
S784 N786 1.610 . S
N785 S784 1.613 . S
N785 C788 1.350 . S
N786 S784 1.610 . S
N786 C787 1.351 . S
C787 C781 1.428 . S
C787 N786 1.351 . S
C787 C788 1.434 . S
C788 C779 1.429 . S
C788 N785 1.350 . S
C788 C787 1.434 . S
C789 C790 1.369 . S
C789 C791 1.419 . S
C789 H793 0.930 . S
C790 C789 1.369 . S
C790 C799 1.429 . S
C791 C789 1.419 . S
C791 C792 1.363 . S
C791 H794 0.929 . S
C792 C791 1.363 . S
C792 C798 1.428 . S
H793 C789 0.930 . S
H794 C791 0.929 . S
S795 N796 1.613 . S
S795 N797 1.610 . S
N796 S795 1.613 . S
N796 C799 1.350 . S
N797 S795 1.610 . S
N797 C798 1.351 . S
C798 C792 1.428 . S
C798 N797 1.351 . S
C798 C799 1.434 . S
C799 C790 1.429 . S
C799 N796 1.350 . S
C799 C798 1.434 . S
C800 C801 1.369 . S
C800 C802 1.419 . S
C800 H804 0.930 . S
C801 C800 1.369 . S
C801 C810 1.429 . S
C802 C800 1.419 . S
C802 C803 1.363 . S
C802 H805 0.929 . S
C803 C802 1.363 . S
C803 C809 1.428 . S
H804 C800 0.930 . S
H805 C802 0.929 . S
S806 N807 1.613 . S
S806 N808 1.610 . S
N807 S806 1.613 . S
N807 C810 1.350 . S
N808 S806 1.610 . S
N808 C809 1.351 . S
C809 C803 1.428 . S
C809 N808 1.351 . S
C809 C810 1.434 . S
C810 C801 1.429 . S
C810 N807 1.350 . S
C810 C809 1.434 . S
C811 C812 1.369 . S
C811 C813 1.419 . S
C811 H815 0.930 . S
C812 C811 1.369 . S
C812 C821 1.429 . S
C813 C811 1.419 . S
C813 C814 1.363 . S
C813 H816 0.929 . S
C814 C813 1.363 . S
C814 C820 1.428 . S
H815 C811 0.930 . S
H816 C813 0.929 . S
S817 N818 1.613 . S
S817 N819 1.610 . S
N818 S817 1.613 . S
N818 C821 1.350 . S
N819 S817 1.610 . S
N819 C820 1.351 . S
C820 C814 1.428 . S
C820 N819 1.351 . S
C820 C821 1.434 . S
C821 C812 1.429 . S
C821 N818 1.350 . S
C821 C820 1.434 . S
C822 C823 1.369 . S
C822 C824 1.419 . S
C822 H826 0.930 . S
C823 C822 1.369 . S
C823 C832 1.429 . S
C824 C822 1.419 . S
C824 C825 1.363 . S
C824 H827 0.929 . S
C825 C824 1.363 . S
C825 C831 1.428 . S
H826 C822 0.930 . S
H827 C824 0.929 . S
S828 N829 1.613 . S
S828 N830 1.610 . S
N829 S828 1.613 . S
N829 C832 1.350 . S
N830 S828 1.610 . S
N830 C831 1.351 . S
C831 C825 1.428 . S
C831 N830 1.351 . S
C831 C832 1.434 . S
C832 C823 1.429 . S
C832 N829 1.350 . S
C832 C831 1.434 . S
C833 C834 1.369 . S
C833 C835 1.419 . S
C833 H837 0.930 . S
C834 C833 1.369 . S
C834 C843 1.429 . S
C835 C833 1.419 . S
C835 C836 1.363 . S
C835 H838 0.929 . S
C836 C835 1.363 . S
C836 C842 1.428 . S
H837 C833 0.930 . S
H838 C835 0.929 . S
S839 N840 1.613 . S
S839 N841 1.610 . S
N840 S839 1.613 . S
N840 C843 1.350 . S
N841 S839 1.610 . S
N841 C842 1.351 . S
C842 C836 1.428 . S
C842 N841 1.351 . S
C842 C843 1.434 . S
C843 C834 1.429 . S
C843 N840 1.350 . S
C843 C842 1.434 . S
C844 C845 1.369 . S
C844 C846 1.419 . S
C844 H848 0.930 . S
C845 C844 1.369 . S
C845 C854 1.429 . S
C846 C844 1.419 . S
C846 C847 1.363 . S
C846 H849 0.929 . S
C847 C846 1.363 . S
C847 C853 1.428 . S
H848 C844 0.930 . S
H849 C846 0.929 . S
S850 N851 1.613 . S
S850 N852 1.610 . S
N851 S850 1.613 . S
N851 C854 1.350 . S
N852 S850 1.610 . S
N852 C853 1.351 . S
C853 C847 1.428 . S
C853 N852 1.351 . S
C853 C854 1.434 . S
C854 C845 1.429 . S
C854 N851 1.350 . S
C854 C853 1.434 . S
C855 C856 1.369 . S
C855 C857 1.419 . S
C855 H859 0.930 . S
C856 C855 1.369 . S
C856 C865 1.429 . S
C857 C855 1.419 . S
C857 C858 1.363 . S
C857 H860 0.929 . S
C858 C857 1.363 . S
C858 C864 1.428 . S
H859 C855 0.930 . S
H860 C857 0.929 . S
S861 N862 1.613 . S
S861 N863 1.610 . S
N862 S861 1.613 . S
N862 C865 1.350 . S
N863 S861 1.610 . S
N863 C864 1.351 . S
C864 C858 1.428 . S
C864 N863 1.351 . S
C864 C865 1.434 . S
C865 C856 1.429 . S
C865 N862 1.350 . S
C865 C864 1.434 . S
C866 C867 1.369 . S
C866 C868 1.419 . S
C866 H870 0.930 . S
C867 C866 1.369 . S
C867 C876 1.429 . S
C868 C866 1.419 . S
C868 C869 1.363 . S
C868 H871 0.929 . S
C869 C868 1.363 . S
C869 C875 1.428 . S
H870 C866 0.930 . S
H871 C868 0.929 . S
S872 N873 1.613 . S
S872 N874 1.610 . S
N873 S872 1.613 . S
N873 C876 1.350 . S
N874 S872 1.610 . S
N874 C875 1.351 . S
C875 C869 1.428 . S
C875 N874 1.351 . S
C875 C876 1.434 . S
C876 C867 1.429 . S
C876 N873 1.350 . S
C876 C875 1.434 . S
C877 C878 1.369 . S
C877 C879 1.419 . S
C877 H881 0.930 . S
C878 C877 1.369 . S
C878 C887 1.429 . S
C879 C877 1.419 . S
C879 C880 1.363 . S
C879 H882 0.929 . S
C880 C879 1.363 . S
C880 C886 1.428 . S
H881 C877 0.930 . S
H882 C879 0.929 . S
S883 N884 1.613 . S
S883 N885 1.610 . S
N884 S883 1.613 . S
N884 C887 1.350 . S
N885 S883 1.610 . S
N885 C886 1.351 . S
C886 C880 1.428 . S
C886 N885 1.351 . S
C886 C887 1.434 . S
C887 C878 1.429 . S
C887 N884 1.350 . S
C887 C886 1.434 . S
C888 C889 1.369 . S
C888 C890 1.419 . S
C888 H892 0.930 . S
C889 C888 1.369 . S
C889 C898 1.429 . S
C890 C888 1.419 . S
C890 C891 1.363 . S
C890 H893 0.929 . S
C891 C890 1.363 . S
C891 C897 1.428 . S
H892 C888 0.930 . S
H893 C890 0.929 . S
S894 N895 1.613 . S
S894 N896 1.610 . S
N895 S894 1.613 . S
N895 C898 1.350 . S
N896 S894 1.610 . S
N896 C897 1.351 . S
C897 C891 1.428 . S
C897 N896 1.351 . S
C897 C898 1.434 . S
C898 C889 1.429 . S
C898 N895 1.350 . S
C898 C897 1.434 . S
C899 C900 1.369 . S
C899 C901 1.419 . S
C899 H903 0.930 1_565 S
C900 C899 1.369 . S
C900 C909 1.429 . S
C901 C899 1.419 . S
C901 C902 1.363 . S
C901 H904 0.929 . S
C902 C901 1.363 . S
C902 C908 1.428 . S
H903 C899 0.930 1_545 S
H904 C901 0.929 . S
S905 N906 1.613 . S
S905 N907 1.610 . S
N906 S905 1.613 . S
N906 C909 1.350 . S
N907 S905 1.610 . S
N907 C908 1.351 . S
C908 C902 1.428 . S
C908 N907 1.351 . S
C908 C909 1.434 . S
C909 C900 1.429 . S
C909 N906 1.350 . S
C909 C908 1.434 . S
C910 C911 1.369 . S
C910 C912 1.419 . S
C910 H914 0.930 . S
C911 C910 1.369 . S
C911 C920 1.429 . S
C912 C910 1.419 . S
C912 C913 1.363 . S
C912 H915 0.929 . S
C913 C912 1.363 . S
C913 C919 1.428 . S
H914 C910 0.930 . S
H915 C912 0.929 . S
S916 N917 1.613 . S
S916 N918 1.610 . S
N917 S916 1.613 . S
N917 C920 1.350 . S
N918 S916 1.610 . S
N918 C919 1.351 . S
C919 C913 1.428 . S
C919 N918 1.351 . S
C919 C920 1.434 . S
C920 C911 1.429 . S
C920 N917 1.350 . S
C920 C919 1.434 . S
C921 C922 1.387 . S
C921 C923 1.419 . S
C921 H925 0.930 1_545 S
C922 C921 1.387 . S
C922 C931 1.428 . S
C923 C921 1.419 . S
C923 C924 1.363 . S
C923 H926 0.929 . S
C924 C923 1.363 . S
C924 C930 1.428 . S
H925 C921 0.930 1_565 S
H926 C923 0.929 . S
S927 N928 1.613 . S
S927 N929 1.610 1_556 S
N928 S927 1.613 . S
N928 C931 1.351 1_556 S
N929 S927 1.610 1_554 S
N929 C930 1.351 . S
C930 C924 1.428 . S
C930 N929 1.351 . S
C930 C931 1.432 . S
C931 C922 1.428 . S
C931 N928 1.351 1_554 S
C931 C930 1.432 . S
C932 C933 1.369 . S
C932 C934 1.419 . S
C932 H936 0.930 . S
C933 C932 1.369 . S
C933 C942 1.429 . S
C934 C932 1.419 . S
C934 C935 1.363 . S
C934 H937 0.929 . S
C935 C934 1.363 . S
C935 C941 1.428 . S
H936 C932 0.930 . S
H937 C934 0.929 . S
S938 N939 1.613 . S
S938 N940 1.610 . S
N939 S938 1.613 . S
N939 C942 1.350 . S
N940 S938 1.610 . S
N940 C941 1.351 . S
C941 C935 1.428 . S
C941 N940 1.351 . S
C941 C942 1.434 . S
C942 C933 1.429 . S
C942 N939 1.350 . S
C942 C941 1.434 . S
C943 C944 1.369 . S
C943 C945 1.419 . S
C943 H947 0.930 1_565 S
C944 C943 1.369 . S
C944 C953 1.429 . S
C945 C943 1.419 . S
C945 C946 1.363 . S
C945 H948 0.929 . S
C946 C945 1.363 . S
C946 C952 1.428 . S
H947 C943 0.930 1_545 S
H948 C945 0.929 . S
S949 N950 1.613 . S
S949 N951 1.610 . S
N950 S949 1.613 . S
N950 C953 1.350 . S
N951 S949 1.610 . S
N951 C952 1.351 . S
C952 C946 1.428 . S
C952 N951 1.351 . S
C952 C953 1.434 . S
C953 C944 1.429 . S
C953 N950 1.350 . S
C953 C952 1.434 . S
C954 C955 1.369 . S
C954 C956 1.419 . S
C954 H958 0.930 . S
C955 C954 1.369 . S
C955 C964 1.429 . S
C956 C954 1.419 . S
C956 C957 1.363 . S
C956 H959 0.929 . S
C957 C956 1.363 . S
C957 C963 1.428 . S
H958 C954 0.930 . S
H959 C956 0.929 . S
S960 N961 1.613 . S
S960 N962 1.610 . S
N961 S960 1.613 . S
N961 C964 1.350 . S
N962 S960 1.610 . S
N962 C963 1.351 . S
C963 C957 1.428 . S
C963 N962 1.351 . S
C963 C964 1.434 . S
C964 C955 1.429 . S
C964 N961 1.350 . S
C964 C963 1.434 . S
C965 C966 1.369 1_554 S
C965 C967 1.419 1_554 S
C965 H969 0.930 . S
C966 C965 1.369 1_556 S
C966 C975 1.429 . S
C967 C965 1.419 1_556 S
C967 C968 1.363 . S
C967 H970 0.929 . S
C968 C967 1.363 . S
C968 C974 1.428 . S
H969 C965 0.930 . S
H970 C967 0.929 . S
S971 N972 1.613 . S
S971 N973 1.610 . S
N972 S971 1.613 . S
N972 C975 1.350 . S
N973 S971 1.610 . S
N973 C974 1.351 . S
C974 C968 1.428 . S
C974 N973 1.351 . S
C974 C975 1.434 . S
C975 C966 1.429 . S
C975 N972 1.350 . S
C975 C974 1.434 . S
C976 C977 1.369 . S
C976 C978 1.419 . S
C976 H980 0.930 . S
C977 C976 1.369 . S
C977 C986 1.429 . S
C978 C976 1.419 . S
C978 C979 1.363 . S
C978 H981 0.929 . S
C979 C978 1.363 . S
C979 C985 1.428 . S
H980 C976 0.930 . S
H981 C978 0.929 . S
S982 N983 1.613 . S
S982 N984 1.610 . S
N983 S982 1.613 . S
N983 C986 1.350 . S
N984 S982 1.610 . S
N984 C985 1.351 . S
C985 C979 1.428 . S
C985 N984 1.351 . S
C985 C986 1.434 . S
C986 C977 1.429 . S
C986 N983 1.350 . S
C986 C985 1.434 . S
C987 C988 1.369 1_565 S
C987 C989 1.419 1_565 S
C987 H991 0.930 . S
C988 C987 1.369 1_545 S
C988 C997 1.429 . S
C989 C987 1.419 1_545 S
C989 C990 1.363 . S
C989 H992 0.932 . S
C990 C989 1.363 . S
C990 C996 1.428 . S
H991 C987 0.930 . S
H992 C989 0.932 . S
S993 N994 1.613 . S
S993 N995 1.610 . S
N994 S993 1.613 . S
N994 C997 1.350 . S
N995 S993 1.610 . S
N995 C996 1.351 . S
C996 C990 1.428 . S
C996 N995 1.351 . S
C996 C997 1.434 . S
C997 C988 1.429 . S
C997 N994 1.350 . S
C997 C996 1.434 . S
C998 C999 1.369 . S
C998 C1000 1.419 . S
C998 H1002 0.930 . S
C999 C998 1.369 . S
C999 C1008 1.429 . S
C1000 C998 1.419 . S
C1000 C1001 1.363 . S
C1000 H1003 0.929 . S
C1001 C1000 1.363 . S
C1001 C1007 1.428 . S
H1002 C998 0.930 . S
H1003 C1000 0.929 . S
S1004 N1005 1.613 . S
S1004 N1006 1.610 . S
N1005 S1004 1.613 . S
N1005 C1008 1.350 . S
N1006 S1004 1.610 . S
N1006 C1007 1.351 . S
C1007 C1001 1.428 . S
C1007 N1006 1.351 . S
C1007 C1008 1.434 . S
C1008 C999 1.429 . S
C1008 N1005 1.350 . S
C1008 C1007 1.434 . S
C1009 C1010 1.390 . S
C1009 C1011 1.419 . S
C1009 H1013 0.930 . S
C1010 C1009 1.390 . S
C1010 C1019 1.422 1_565 S
C1011 C1009 1.419 . S
C1011 C1012 1.363 . S
C1011 H1014 0.929 . S
C1012 C1011 1.363 . S
C1012 C1018 1.428 . S
H1013 C1009 0.930 . S
H1014 C1011 0.929 . S
S1015 N1016 1.613 . S
S1015 N1017 1.610 . S
N1016 S1015 1.613 . S
N1016 C1019 1.350 . S
N1017 S1015 1.610 . S
N1017 C1018 1.351 1_545 S
C1018 C1012 1.428 . S
C1018 N1017 1.351 1_565 S
C1018 C1019 1.434 1_565 S
C1019 C1010 1.422 1_545 S
C1019 N1016 1.350 . S
C1019 C1018 1.434 1_545 S
C1020 C1021 1.369 . S
C1020 C1022 1.419 . S
C1020 H1024 0.930 . S
C1021 C1020 1.369 . S
C1021 C1030 1.429 . S
C1022 C1020 1.419 . S
C1022 C1023 1.363 . S
C1022 H1025 0.929 . S
C1023 C1022 1.363 . S
C1023 C1029 1.428 . S
H1024 C1020 0.930 . S
H1025 C1022 0.929 . S
S1026 N1027 1.613 . S
S1026 N1028 1.610 . S
N1027 S1026 1.613 . S
N1027 C1030 1.350 . S
N1028 S1026 1.610 . S
N1028 C1029 1.351 . S
C1029 C1023 1.428 . S
C1029 N1028 1.351 . S
C1029 C1030 1.434 . S
C1030 C1021 1.429 . S
C1030 N1027 1.350 . S
C1030 C1029 1.434 . S
C1031 C1032 1.378 . S
C1031 C1033 1.419 . S
C1031 H1035 0.930 . S
C1032 C1031 1.378 . S
C1032 C1041 1.441 . S
C1033 C1031 1.419 . S
C1033 C1034 1.363 . S
C1033 H1036 0.929 . S
C1034 C1033 1.363 . S
C1034 C1040 1.428 . S
H1035 C1031 0.930 . S
H1036 C1033 0.929 . S
S1037 N1038 1.613 . S
S1037 N1039 1.610 . S
N1038 S1037 1.613 . S
N1038 C1041 1.350 . S
N1039 S1037 1.610 . S
N1039 C1040 1.351 . S
C1040 C1034 1.428 . S
C1040 N1039 1.351 . S
C1040 C1041 1.434 . S
C1041 C1032 1.441 . S
C1041 N1038 1.350 . S
C1041 C1040 1.434 . S
C1042 C1043 1.369 . S
C1042 C1044 1.419 . S
C1042 H1046 0.930 . S
C1043 C1042 1.369 . S
C1043 C1052 1.429 . S
C1044 C1042 1.419 . S
C1044 C1045 1.363 . S
C1044 H1047 0.929 . S
C1045 C1044 1.363 . S
C1045 C1051 1.428 . S
H1046 C1042 0.930 . S
H1047 C1044 0.929 . S
S1048 N1049 1.613 . S
S1048 N1050 1.610 . S
N1049 S1048 1.613 . S
N1049 C1052 1.350 . S
N1050 S1048 1.610 . S
N1050 C1051 1.351 . S
C1051 C1045 1.428 . S
C1051 N1050 1.351 . S
C1051 C1052 1.434 . S
C1052 C1043 1.429 . S
C1052 N1049 1.350 . S
C1052 C1051 1.434 . S
C1053 C1054 1.369 . S
C1053 C1055 1.419 . S
C1053 H1057 0.930 . S
C1054 C1053 1.369 . S
C1054 C1063 1.429 . S
C1055 C1053 1.419 . S
C1055 C1056 1.371 . S
C1055 H1058 0.929 1_455 S
C1056 C1055 1.371 . S
C1056 C1062 1.435 . S
H1057 C1053 0.930 . S
H1058 C1055 0.929 1_655 S
S1059 N1060 1.613 . S
S1059 N1061 1.619 . S
N1060 S1059 1.613 . S
N1060 C1063 1.350 . S
N1061 S1059 1.619 . S
N1061 C1062 1.358 . S
C1062 C1056 1.435 . S
C1062 N1061 1.358 . S
C1062 C1063 1.434 . S
C1063 C1054 1.429 . S
C1063 N1060 1.350 . S
C1063 C1062 1.434 . S
C1064 C1065 1.369 . S
C1064 C1066 1.419 . S
C1064 H1068 0.930 . S
C1065 C1064 1.369 . S
C1065 C1074 1.429 . S
C1066 C1064 1.419 . S
C1066 C1067 1.363 . S
C1066 H1069 0.929 . S
C1067 C1066 1.363 . S
C1067 C1073 1.428 . S
H1068 C1064 0.930 . S
H1069 C1066 0.929 . S
S1070 N1071 1.613 . S
S1070 N1072 1.610 . S
N1071 S1070 1.613 . S
N1071 C1074 1.350 . S
N1072 S1070 1.610 . S
N1072 C1073 1.351 . S
C1073 C1067 1.428 . S
C1073 N1072 1.351 . S
C1073 C1074 1.434 . S
C1074 C1065 1.429 . S
C1074 N1071 1.350 . S
C1074 C1073 1.434 . S
C1075 C1076 1.369 . S
C1075 C1077 1.419 . S
C1075 H1079 0.930 . S
C1076 C1075 1.369 . S
C1076 C1085 1.429 . S
C1077 C1075 1.419 . S
C1077 C1078 1.363 . S
C1077 H1080 0.929 . S
C1078 C1077 1.363 . S
C1078 C1084 1.428 . S
H1079 C1075 0.930 . S
H1080 C1077 0.929 . S
S1081 N1082 1.613 . S
S1081 N1083 1.610 . S
N1082 S1081 1.613 . S
N1082 C1085 1.350 . S
N1083 S1081 1.610 . S
N1083 C1084 1.351 . S
C1084 C1078 1.428 . S
C1084 N1083 1.351 . S
C1084 C1085 1.434 . S
C1085 C1076 1.429 . S
C1085 N1082 1.350 . S
C1085 C1084 1.434 . S
C1086 C1087 1.369 1_655 S
C1086 C1088 1.419 1_655 S
C1086 H1090 0.930 . S
C1087 C1086 1.369 1_455 S
C1087 C1096 1.429 . S
C1088 C1086 1.419 1_455 S
C1088 C1089 1.363 . S
C1088 H1091 0.929 1_455 S
C1089 C1088 1.363 . S
C1089 C1095 1.428 . S
H1090 C1086 0.930 . S
H1091 C1088 0.929 1_655 S
S1092 N1093 1.613 . S
S1092 N1094 1.610 . S
N1093 S1092 1.613 . S
N1093 C1096 1.350 . S
N1094 S1092 1.610 . S
N1094 C1095 1.351 . S
C1095 C1089 1.428 . S
C1095 N1094 1.351 . S
C1095 C1096 1.434 . S
C1096 C1087 1.429 . S
C1096 N1093 1.350 . S
C1096 C1095 1.434 . S
C1097 C1098 1.369 . S
C1097 C1099 1.419 . S
C1097 H1101 0.930 . S
C1098 C1097 1.369 . S
C1098 C1107 1.429 . S
C1099 C1097 1.419 . S
C1099 C1100 1.363 . S
C1099 H1102 0.929 . S
C1100 C1099 1.363 . S
C1100 C1106 1.428 . S
H1101 C1097 0.930 . S
H1102 C1099 0.929 . S
S1103 N1104 1.613 . S
S1103 N1105 1.610 . S
N1104 S1103 1.613 . S
N1104 C1107 1.350 . S
N1105 S1103 1.610 . S
N1105 C1106 1.351 . S
C1106 C1100 1.428 . S
C1106 N1105 1.351 . S
C1106 C1107 1.434 . S
C1107 C1098 1.429 . S
C1107 N1104 1.350 . S
C1107 C1106 1.434 . S
C1108 C1109 1.384 . S
C1108 C1110 1.419 . S
C1108 H1112 0.930 . S
C1109 C1108 1.384 . S
C1109 C1118 1.423 1_655 S
C1110 C1108 1.419 . S
C1110 C1111 1.363 . S
C1110 H1113 0.929 . S
C1111 C1110 1.363 . S
C1111 C1117 1.428 . S
H1112 C1108 0.930 . S
H1113 C1110 0.929 . S
S1114 N1115 1.613 . S
S1114 N1116 1.610 . S
N1115 S1114 1.613 . S
N1115 C1118 1.350 . S
N1116 S1114 1.610 . S
N1116 C1117 1.351 1_455 S
C1117 C1111 1.428 . S
C1117 N1116 1.351 1_655 S
C1117 C1118 1.434 1_655 S
C1118 C1109 1.423 1_455 S
C1118 N1115 1.350 . S
C1118 C1117 1.434 1_455 S
C1119 C1120 1.369 . S
C1119 C1121 1.419 . S
C1119 H1123 0.930 . S
C1120 C1119 1.369 . S
C1120 C1129 1.429 . S
C1121 C1119 1.419 . S
C1121 C1122 1.363 . S
C1121 H1124 0.929 . S
C1122 C1121 1.363 . S
C1122 C1128 1.428 . S
H1123 C1119 0.930 . S
H1124 C1121 0.929 . S
S1125 N1126 1.613 . S
S1125 N1127 1.610 . S
N1126 S1125 1.613 . S
N1126 C1129 1.350 . S
N1127 S1125 1.610 . S
N1127 C1128 1.351 . S
C1128 C1122 1.428 . S
C1128 N1127 1.351 . S
C1128 C1129 1.434 . S
C1129 C1120 1.429 . S
C1129 N1126 1.350 . S
C1129 C1128 1.434 . S
C1130 C1131 1.375 . S
C1130 C1132 1.419 . S
C1130 H1134 0.940 . S
C1131 C1130 1.375 . S
C1131 C1140 1.437 . S
C1132 C1130 1.419 . S
C1132 C1133 1.363 . S
C1132 H1135 0.929 . S
C1133 C1132 1.363 . S
C1133 C1139 1.428 . S
H1134 C1130 0.940 . S
H1135 C1132 0.929 . S
S1136 N1137 1.613 . S
S1136 N1138 1.610 . S
N1137 S1136 1.613 . S
N1137 C1140 1.350 . S
N1138 S1136 1.610 . S
N1138 C1139 1.351 . S
C1139 C1133 1.428 . S
C1139 N1138 1.351 . S
C1139 C1140 1.434 . S
C1140 C1131 1.437 . S
C1140 N1137 1.350 . S
C1140 C1139 1.434 . S
C1141 C1142 1.369 . S
C1141 C1143 1.419 . S
C1141 H1145 0.930 . S
C1142 C1141 1.369 . S
C1142 C1151 1.429 . S
C1143 C1141 1.419 . S
C1143 C1144 1.363 . S
C1143 H1146 0.929 . S
C1144 C1143 1.363 . S
C1144 C1150 1.428 . S
H1145 C1141 0.930 . S
H1146 C1143 0.929 . S
S1147 N1148 1.613 . S
S1147 N1149 1.610 . S
N1148 S1147 1.613 . S
N1148 C1151 1.350 . S
N1149 S1147 1.610 . S
N1149 C1150 1.351 . S
C1150 C1144 1.428 . S
C1150 N1149 1.351 . S
C1150 C1151 1.434 . S
C1151 C1142 1.429 . S
C1151 N1148 1.350 . S
C1151 C1150 1.434 . S
C1152 C1153 1.369 . S
C1152 C1154 1.419 . S
C1152 H1156 0.930 . S
C1153 C1152 1.369 . S
C1153 C1162 1.429 . S
C1154 C1152 1.419 . S
C1154 C1155 1.363 . S
C1154 H1157 0.929 . S
C1155 C1154 1.363 . S
C1155 C1161 1.428 . S
H1156 C1152 0.930 . S
H1157 C1154 0.929 . S
S1158 N1159 1.613 . S
S1158 N1160 1.610 . S
N1159 S1158 1.613 . S
N1159 C1162 1.350 . S
N1160 S1158 1.610 . S
N1160 C1161 1.351 . S
C1161 C1155 1.428 . S
C1161 N1160 1.351 . S
C1161 C1162 1.434 . S
C1162 C1153 1.429 . S
C1162 N1159 1.350 . S
C1162 C1161 1.434 . S
C1163 C1164 1.369 . S
C1163 C1165 1.419 . S
C1163 H1167 0.930 . S
C1164 C1163 1.369 . S
C1164 C1173 1.429 . S
C1165 C1163 1.419 . S
C1165 C1166 1.368 . S
C1165 H1168 0.929 1_554 S
C1166 C1165 1.368 . S
C1166 C1172 1.439 . S
H1167 C1163 0.930 . S
H1168 C1165 0.929 1_556 S
S1169 N1170 1.613 . S
S1169 N1171 1.610 . S
N1170 S1169 1.613 . S
N1170 C1173 1.350 . S
N1171 S1169 1.610 . S
N1171 C1172 1.351 . S
C1172 C1166 1.439 . S
C1172 N1171 1.351 . S
C1172 C1173 1.434 . S
C1173 C1164 1.429 . S
C1173 N1170 1.350 . S
C1173 C1172 1.434 . S
C1174 C1175 1.369 . S
C1174 C1176 1.419 . S
C1174 H1178 0.930 . S
C1175 C1174 1.369 . S
C1175 C1184 1.429 . S
C1176 C1174 1.419 . S
C1176 C1177 1.363 . S
C1176 H1179 0.929 . S
C1177 C1176 1.363 . S
C1177 C1183 1.428 . S
H1178 C1174 0.930 . S
H1179 C1176 0.929 . S
S1180 N1181 1.613 . S
S1180 N1182 1.610 . S
N1181 S1180 1.613 . S
N1181 C1184 1.350 . S
N1182 S1180 1.610 . S
N1182 C1183 1.351 . S
C1183 C1177 1.428 . S
C1183 N1182 1.351 . S
C1183 C1184 1.434 . S
C1184 C1175 1.429 . S
C1184 N1181 1.350 . S
C1184 C1183 1.434 . S
C1185 C1186 1.369 . S
C1185 C1187 1.419 . S
C1185 H1189 0.930 . S
C1186 C1185 1.369 . S
C1186 C1195 1.429 . S
C1187 C1185 1.419 . S
C1187 C1188 1.363 . S
C1187 H1190 0.929 . S
C1188 C1187 1.363 . S
C1188 C1194 1.428 . S
H1189 C1185 0.930 . S
H1190 C1187 0.929 . S
S1191 N1192 1.613 . S
S1191 N1193 1.610 . S
N1192 S1191 1.613 . S
N1192 C1195 1.350 . S
N1193 S1191 1.610 . S
N1193 C1194 1.351 . S
C1194 C1188 1.428 . S
C1194 N1193 1.351 . S
C1194 C1195 1.434 . S
C1195 C1186 1.429 . S
C1195 N1192 1.350 . S
C1195 C1194 1.434 . S
C1196 C1197 1.369 . S
C1196 C1198 1.419 . S
C1196 H1200 0.930 . S
C1197 C1196 1.369 . S
C1197 C1206 1.429 . S
C1198 C1196 1.419 . S
C1198 C1199 1.363 . S
C1198 H1201 0.929 . S
C1199 C1198 1.363 . S
C1199 C1205 1.428 . S
H1200 C1196 0.930 . S
H1201 C1198 0.929 . S
S1202 N1203 1.613 . S
S1202 N1204 1.610 . S
N1203 S1202 1.613 . S
N1203 C1206 1.350 . S
N1204 S1202 1.610 . S
N1204 C1205 1.351 . S
C1205 C1199 1.428 . S
C1205 N1204 1.351 . S
C1205 C1206 1.434 . S
C1206 C1197 1.429 . S
C1206 N1203 1.350 . S
C1206 C1205 1.434 . S
C1207 C1208 1.369 . S
C1207 C1209 1.419 . S
C1207 H1211 0.930 . S
C1208 C1207 1.369 . S
C1208 C1217 1.429 . S
C1209 C1207 1.419 . S
C1209 C1210 1.377 . S
C1209 H1212 0.929 . S
C1210 C1209 1.377 . S
C1210 C1216 1.427 1_556 S
H1211 C1207 0.930 . S
H1212 C1209 0.929 . S
S1213 N1214 1.613 1_554 S
S1213 N1215 1.610 . S
N1214 S1213 1.613 1_556 S
N1214 C1217 1.350 . S
N1215 S1213 1.610 . S
N1215 C1216 1.351 . S
C1216 C1210 1.427 1_554 S
C1216 N1215 1.351 . S
C1216 C1217 1.434 1_554 S
C1217 C1208 1.429 . S
C1217 N1214 1.350 . S
C1217 C1216 1.434 1_556 S
C1218 C1219 1.369 . S
C1218 C1220 1.419 . S
C1218 H1222 0.930 . S
C1219 C1218 1.369 . S
C1219 C1228 1.429 . S
C1220 C1218 1.419 . S
C1220 C1221 1.363 . S
C1220 H1223 0.929 . S
C1221 C1220 1.363 . S
C1221 C1227 1.428 . S
H1222 C1218 0.930 . S
H1223 C1220 0.929 . S
S1224 N1225 1.613 . S
S1224 N1226 1.610 . S
N1225 S1224 1.613 . S
N1225 C1228 1.350 . S
N1226 S1224 1.610 . S
N1226 C1227 1.351 . S
C1227 C1221 1.428 . S
C1227 N1226 1.351 . S
C1227 C1228 1.434 . S
C1228 C1219 1.429 . S
C1228 N1225 1.350 . S
C1228 C1227 1.434 . S
C1229 C1230 1.369 . S
C1229 C1231 1.419 . S
C1229 H1233 0.930 . S
C1230 C1229 1.369 . S
C1230 C1239 1.429 . S
C1231 C1229 1.419 . S
C1231 C1232 1.363 . S
C1231 H1234 0.929 . S
C1232 C1231 1.363 . S
C1232 C1238 1.428 . S
H1233 C1229 0.930 . S
H1234 C1231 0.929 . S
S1235 N1236 1.613 . S
S1235 N1237 1.610 . S
N1236 S1235 1.613 . S
N1236 C1239 1.350 . S
N1237 S1235 1.610 . S
N1237 C1238 1.351 . S
C1238 C1232 1.428 . S
C1238 N1237 1.351 . S
C1238 C1239 1.434 . S
C1239 C1230 1.429 . S
C1239 N1236 1.350 . S
C1239 C1238 1.434 . S
C1240 C1241 1.369 . S
C1240 C1242 1.419 . S
C1240 H1244 0.930 . S
C1241 C1240 1.369 . S
C1241 C1250 1.429 . S
C1242 C1240 1.419 . S
C1242 C1243 1.363 . S
C1242 H1245 0.929 . S
C1243 C1242 1.363 . S
C1243 C1249 1.428 . S
H1244 C1240 0.930 . S
H1245 C1242 0.929 . S
S1246 N1247 1.613 . S
S1246 N1248 1.610 . S
N1247 S1246 1.613 . S
N1247 C1250 1.350 . S
N1248 S1246 1.610 . S
N1248 C1249 1.351 . S
C1249 C1243 1.428 . S
C1249 N1248 1.351 . S
C1249 C1250 1.434 . S
C1250 C1241 1.429 . S
C1250 N1247 1.350 . S
C1250 C1249 1.434 . S
C1251 C1252 1.369 . S
C1251 C1253 1.419 . S
C1251 H1255 0.930 . S
C1252 C1251 1.369 . S
C1252 C1261 1.429 . S
C1253 C1251 1.419 . S
C1253 C1254 1.363 . S
C1253 H1256 0.929 . S
C1254 C1253 1.363 . S
C1254 C1260 1.428 . S
H1255 C1251 0.930 . S
H1256 C1253 0.929 . S
S1257 N1258 1.613 . S
S1257 N1259 1.610 . S
N1258 S1257 1.613 . S
N1258 C1261 1.350 . S
N1259 S1257 1.610 . S
N1259 C1260 1.351 . S
C1260 C1254 1.428 . S
C1260 N1259 1.351 . S
C1260 C1261 1.434 . S
C1261 C1252 1.429 . S
C1261 N1258 1.350 . S
C1261 C1260 1.434 . S
C1262 C1263 1.369 . S
C1262 C1264 1.419 . S
C1262 H1266 0.930 . S
C1263 C1262 1.369 . S
C1263 C1272 1.429 . S
C1264 C1262 1.419 . S
C1264 C1265 1.363 . S
C1264 H1267 0.929 . S
C1265 C1264 1.363 . S
C1265 C1271 1.428 . S
H1266 C1262 0.930 . S
H1267 C1264 0.929 . S
S1268 N1269 1.613 . S
S1268 N1270 1.610 . S
N1269 S1268 1.613 . S
N1269 C1272 1.350 . S
N1270 S1268 1.610 . S
N1270 C1271 1.351 . S
C1271 C1265 1.428 . S
C1271 N1270 1.351 . S
C1271 C1272 1.434 . S
C1272 C1263 1.429 . S
C1272 N1269 1.350 . S
C1272 C1271 1.434 . S
C1273 C1274 1.369 . S
C1273 C1275 1.419 . S
C1273 H1277 0.930 1_655 S
C1274 C1273 1.369 . S
C1274 C1283 1.429 . S
C1275 C1273 1.419 . S
C1275 C1276 1.363 . S
C1275 H1278 0.929 . S
C1276 C1275 1.363 . S
C1276 C1282 1.428 . S
H1277 C1273 0.930 1_455 S
H1278 C1275 0.929 . S
S1279 N1280 1.613 . S
S1279 N1281 1.610 . S
N1280 S1279 1.613 . S
N1280 C1283 1.350 . S
N1281 S1279 1.610 . S
N1281 C1282 1.351 . S
C1282 C1276 1.428 . S
C1282 N1281 1.351 . S
C1282 C1283 1.434 . S
C1283 C1274 1.429 . S
C1283 N1280 1.350 . S
C1283 C1282 1.434 . S
C1284 C1285 1.369 . S
C1284 C1286 1.419 . S
C1284 H1288 0.930 . S
C1285 C1284 1.369 . S
C1285 C1294 1.429 . S
C1286 C1284 1.419 . S
C1286 C1287 1.363 . S
C1286 H1289 0.929 . S
C1287 C1286 1.363 . S
C1287 C1293 1.428 . S
H1288 C1284 0.930 . S
H1289 C1286 0.929 . S
S1290 N1291 1.613 . S
S1290 N1292 1.610 . S
N1291 S1290 1.613 . S
N1291 C1294 1.350 . S
N1292 S1290 1.610 . S
N1292 C1293 1.351 . S
C1293 C1287 1.428 . S
C1293 N1292 1.351 . S
C1293 C1294 1.434 . S
C1294 C1285 1.429 . S
C1294 N1291 1.350 . S
C1294 C1293 1.434 . S
C1295 C1296 1.369 . S
C1295 C1297 1.419 . S
C1295 H1299 0.930 . S
C1296 C1295 1.369 . S
C1296 C1305 1.429 . S
C1297 C1295 1.419 . S
C1297 C1298 1.363 . S
C1297 H1300 0.929 . S
C1298 C1297 1.363 . S
C1298 C1304 1.428 . S
H1299 C1295 0.930 . S
H1300 C1297 0.929 . S
S1301 N1302 1.613 . S
S1301 N1303 1.610 . S
N1302 S1301 1.613 . S
N1302 C1305 1.350 . S
N1303 S1301 1.610 . S
N1303 C1304 1.351 . S
C1304 C1298 1.428 . S
C1304 N1303 1.351 . S
C1304 C1305 1.434 . S
C1305 C1296 1.429 . S
C1305 N1302 1.350 . S
C1305 C1304 1.434 . S
C1306 C1307 1.369 . S
C1306 C1308 1.419 . S
C1306 H1310 0.930 . S
C1307 C1306 1.369 . S
C1307 C1316 1.429 . S
C1308 C1306 1.419 . S
C1308 C1309 1.363 . S
C1308 H1311 0.929 . S
C1309 C1308 1.363 . S
C1309 C1315 1.428 . S
H1310 C1306 0.930 . S
H1311 C1308 0.929 . S
S1312 N1313 1.613 . S
S1312 N1314 1.610 . S
N1313 S1312 1.613 . S
N1313 C1316 1.350 . S
N1314 S1312 1.610 . S
N1314 C1315 1.351 . S
C1315 C1309 1.428 . S
C1315 N1314 1.351 . S
C1315 C1316 1.434 . S
C1316 C1307 1.429 . S
C1316 N1313 1.350 . S
C1316 C1315 1.434 . S
C1317 C1318 1.369 . S
C1317 C1319 1.419 . S
C1317 H1321 0.930 . S
C1318 C1317 1.369 . S
C1318 C1327 1.429 . S
C1319 C1317 1.419 . S
C1319 C1320 1.363 . S
C1319 H1322 0.929 . S
C1320 C1319 1.363 . S
C1320 C1326 1.428 . S
H1321 C1317 0.930 . S
H1322 C1319 0.929 . S
S1323 N1324 1.613 . S
S1323 N1325 1.610 . S
N1324 S1323 1.613 . S
N1324 C1327 1.350 . S
N1325 S1323 1.610 . S
N1325 C1326 1.351 . S
C1326 C1320 1.428 . S
C1326 N1325 1.351 . S
C1326 C1327 1.434 . S
C1327 C1318 1.429 . S
C1327 N1324 1.350 . S
C1327 C1326 1.434 . S
C1328 C1329 1.369 . S
C1328 C1330 1.419 . S
C1328 H1332 0.930 . S
C1329 C1328 1.369 . S
C1329 C1338 1.429 . S
C1330 C1328 1.419 . S
C1330 C1331 1.363 . S
C1330 H1333 0.929 . S
C1331 C1330 1.363 . S
C1331 C1337 1.428 . S
H1332 C1328 0.930 . S
H1333 C1330 0.929 . S
S1334 N1335 1.613 . S
S1334 N1336 1.610 . S
N1335 S1334 1.613 . S
N1335 C1338 1.350 . S
N1336 S1334 1.610 . S
N1336 C1337 1.351 . S
C1337 C1331 1.428 . S
C1337 N1336 1.351 . S
C1337 C1338 1.434 . S
C1338 C1329 1.429 . S
C1338 N1335 1.350 . S
C1338 C1337 1.434 . S
C1339 C1340 1.369 . S
C1339 C1341 1.419 . S
C1339 H1343 0.930 . S
C1340 C1339 1.369 . S
C1340 C1349 1.429 . S
C1341 C1339 1.419 . S
C1341 C1342 1.363 . S
C1341 H1344 0.929 . S
C1342 C1341 1.363 . S
C1342 C1348 1.428 . S
H1343 C1339 0.930 . S
H1344 C1341 0.929 . S
S1345 N1346 1.613 . S
S1345 N1347 1.610 . S
N1346 S1345 1.613 . S
N1346 C1349 1.350 . S
N1347 S1345 1.610 . S
N1347 C1348 1.351 . S
C1348 C1342 1.428 . S
C1348 N1347 1.351 . S
C1348 C1349 1.434 . S
C1349 C1340 1.429 . S
C1349 N1346 1.350 . S
C1349 C1348 1.434 . S
C1350 C1351 1.369 . S
C1350 C1352 1.419 . S
C1350 H1354 0.930 . S
C1351 C1350 1.369 . S
C1351 C1360 1.429 . S
C1352 C1350 1.419 . S
C1352 C1353 1.363 . S
C1352 H1355 0.929 . S
C1353 C1352 1.363 . S
C1353 C1359 1.428 . S
H1354 C1350 0.930 . S
H1355 C1352 0.929 . S
S1356 N1357 1.613 . S
S1356 N1358 1.610 . S
N1357 S1356 1.613 . S
N1357 C1360 1.350 . S
N1358 S1356 1.610 . S
N1358 C1359 1.351 . S
C1359 C1353 1.428 . S
C1359 N1358 1.351 . S
C1359 C1360 1.434 . S
C1360 C1351 1.429 . S
C1360 N1357 1.350 . S
C1360 C1359 1.434 . S
C1361 C1362 1.369 . S
C1361 C1363 1.419 . S
C1361 H1365 0.930 . S
C1362 C1361 1.369 . S
C1362 C1371 1.429 . S
C1363 C1361 1.419 . S
C1363 C1364 1.363 . S
C1363 H1366 0.929 . S
C1364 C1363 1.363 . S
C1364 C1370 1.428 . S
H1365 C1361 0.930 . S
H1366 C1363 0.929 . S
S1367 N1368 1.613 . S
S1367 N1369 1.610 . S
N1368 S1367 1.613 . S
N1368 C1371 1.350 . S
N1369 S1367 1.610 . S
N1369 C1370 1.351 . S
C1370 C1364 1.428 . S
C1370 N1369 1.351 . S
C1370 C1371 1.434 . S
C1371 C1362 1.429 . S
C1371 N1368 1.350 . S
C1371 C1370 1.434 . S
C1372 C1373 1.369 . S
C1372 C1374 1.419 . S
C1372 H1376 0.930 . S
C1373 C1372 1.369 . S
C1373 C1382 1.429 . S
C1374 C1372 1.419 . S
C1374 C1375 1.363 . S
C1374 H1377 0.929 . S
C1375 C1374 1.363 . S
C1375 C1381 1.428 . S
H1376 C1372 0.930 . S
H1377 C1374 0.929 . S
S1378 N1379 1.613 . S
S1378 N1380 1.610 . S
N1379 S1378 1.613 . S
N1379 C1382 1.350 . S
N1380 S1378 1.610 . S
N1380 C1381 1.351 . S
C1381 C1375 1.428 . S
C1381 N1380 1.351 . S
C1381 C1382 1.434 . S
C1382 C1373 1.429 . S
C1382 N1379 1.350 . S
C1382 C1381 1.434 . S
C1383 C1384 1.369 . S
C1383 C1385 1.419 . S
C1383 H1387 0.930 . S
C1384 C1383 1.369 . S
C1384 C1393 1.429 . S
C1385 C1383 1.419 . S
C1385 C1386 1.363 . S
C1385 H1388 0.929 . S
C1386 C1385 1.363 . S
C1386 C1392 1.428 . S
H1387 C1383 0.930 . S
H1388 C1385 0.929 . S
S1389 N1390 1.613 . S
S1389 N1391 1.610 . S
N1390 S1389 1.613 . S
N1390 C1393 1.350 . S
N1391 S1389 1.610 . S
N1391 C1392 1.351 . S
C1392 C1386 1.428 . S
C1392 N1391 1.351 . S
C1392 C1393 1.434 . S
C1393 C1384 1.429 . S
C1393 N1390 1.350 . S
C1393 C1392 1.434 . S
C1394 C1395 1.369 . S
C1394 C1396 1.419 . S
C1394 H1398 0.930 . S
C1395 C1394 1.369 . S
C1395 C1404 1.429 . S
C1396 C1394 1.419 . S
C1396 C1397 1.363 . S
C1396 H1399 0.929 . S
C1397 C1396 1.363 . S
C1397 C1403 1.428 . S
H1398 C1394 0.930 . S
H1399 C1396 0.929 . S
S1400 N1401 1.613 . S
S1400 N1402 1.610 . S
N1401 S1400 1.613 . S
N1401 C1404 1.350 . S
N1402 S1400 1.610 . S
N1402 C1403 1.351 . S
C1403 C1397 1.428 . S
C1403 N1402 1.351 . S
C1403 C1404 1.434 . S
C1404 C1395 1.429 . S
C1404 N1401 1.350 . S
C1404 C1403 1.434 . S
C1405 C1406 1.381 . S
C1405 C1407 1.419 . S
C1405 H1409 0.930 . S
C1406 C1405 1.381 . S
C1406 C1415 1.428 1_655 S
C1407 C1405 1.419 . S
C1407 C1408 1.363 . S
C1407 H1410 0.929 . S
C1408 C1407 1.363 . S
C1408 C1414 1.428 . S
H1409 C1405 0.930 . S
H1410 C1407 0.929 . S
S1411 N1412 1.613 . S
S1411 N1413 1.610 1_455 S
N1412 S1411 1.613 . S
N1412 C1415 1.357 . S
N1413 S1411 1.610 1_655 S
N1413 C1414 1.351 . S
C1414 C1408 1.428 . S
C1414 N1413 1.351 . S
C1414 C1415 1.427 1_655 S
C1415 C1406 1.428 1_455 S
C1415 N1412 1.357 . S
C1415 C1414 1.427 1_455 S
C1416 C1417 1.369 . S
C1416 C1418 1.419 . S
C1416 H1420 0.930 . S
C1417 C1416 1.369 . S
C1417 C1426 1.429 . S
C1418 C1416 1.419 . S
C1418 C1419 1.363 . S
C1418 H1421 0.929 . S
C1419 C1418 1.363 . S
C1419 C1425 1.428 . S
H1420 C1416 0.930 . S
H1421 C1418 0.929 . S
S1422 N1423 1.613 . S
S1422 N1424 1.610 . S
N1423 S1422 1.613 . S
N1423 C1426 1.350 . S
N1424 S1422 1.610 . S
N1424 C1425 1.351 . S
C1425 C1419 1.428 . S
C1425 N1424 1.351 . S
C1425 C1426 1.434 . S
C1426 C1417 1.429 . S
C1426 N1423 1.350 . S
C1426 C1425 1.434 . S
C1427 C1428 1.369 . S
C1427 C1429 1.419 . S
C1427 H1431 0.930 . S
C1428 C1427 1.369 . S
C1428 C1437 1.429 . S
C1429 C1427 1.419 . S
C1429 C1430 1.363 . S
C1429 H1432 0.929 . S
C1430 C1429 1.363 . S
C1430 C1436 1.428 . S
H1431 C1427 0.930 . S
H1432 C1429 0.929 . S
S1433 N1434 1.613 . S
S1433 N1435 1.610 . S
N1434 S1433 1.613 . S
N1434 C1437 1.350 . S
N1435 S1433 1.610 . S
N1435 C1436 1.351 . S
C1436 C1430 1.428 . S
C1436 N1435 1.351 . S
C1436 C1437 1.434 . S
C1437 C1428 1.429 . S
C1437 N1434 1.350 . S
C1437 C1436 1.434 . S
C1438 C1439 1.369 . S
C1438 C1440 1.419 . S
C1438 H1442 0.930 . S
C1439 C1438 1.369 . S
C1439 C1448 1.429 . S
C1440 C1438 1.419 . S
C1440 C1441 1.363 . S
C1440 H1443 0.929 . S
C1441 C1440 1.363 . S
C1441 C1447 1.428 . S
H1442 C1438 0.930 . S
H1443 C1440 0.929 . S
S1444 N1445 1.613 . S
S1444 N1446 1.610 . S
N1445 S1444 1.613 . S
N1445 C1448 1.350 . S
N1446 S1444 1.610 . S
N1446 C1447 1.351 . S
C1447 C1441 1.428 . S
C1447 N1446 1.351 . S
C1447 C1448 1.434 . S
C1448 C1439 1.429 . S
C1448 N1445 1.350 . S
C1448 C1447 1.434 . S
C1449 C1450 1.369 . S
C1449 C1451 1.419 . S
C1449 H1453 0.930 . S
C1450 C1449 1.369 . S
C1450 C1459 1.429 . S
C1451 C1449 1.419 . S
C1451 C1452 1.363 . S
C1451 H1454 0.929 . S
C1452 C1451 1.363 . S
C1452 C1458 1.428 . S
H1453 C1449 0.930 . S
H1454 C1451 0.929 . S
S1455 N1456 1.613 . S
S1455 N1457 1.610 . S
N1456 S1455 1.613 . S
N1456 C1459 1.350 . S
N1457 S1455 1.610 . S
N1457 C1458 1.351 . S
C1458 C1452 1.428 . S
C1458 N1457 1.351 . S
C1458 C1459 1.434 . S
C1459 C1450 1.429 . S
C1459 N1456 1.350 . S
C1459 C1458 1.434 . S
C1460 C1461 1.369 . S
C1460 C1462 1.419 . S
C1460 H1464 0.930 . S
C1461 C1460 1.369 . S
C1461 C1470 1.429 . S
C1462 C1460 1.419 . S
C1462 C1463 1.363 . S
C1462 H1465 0.929 . S
C1463 C1462 1.363 . S
C1463 C1469 1.428 . S
H1464 C1460 0.930 . S
H1465 C1462 0.929 . S
S1466 N1467 1.613 . S
S1466 N1468 1.610 . S
N1467 S1466 1.613 . S
N1467 C1470 1.350 . S
N1468 S1466 1.610 . S
N1468 C1469 1.351 . S
C1469 C1463 1.428 . S
C1469 N1468 1.351 . S
C1469 C1470 1.434 . S
C1470 C1461 1.429 . S
C1470 N1467 1.350 . S
C1470 C1469 1.434 . S
C1471 C1472 1.369 . S
C1471 C1473 1.419 . S
C1471 H1475 0.930 . S
C1472 C1471 1.369 . S
C1472 C1481 1.429 . S
C1473 C1471 1.419 . S
C1473 C1474 1.363 . S
C1473 H1476 0.929 . S
C1474 C1473 1.363 . S
C1474 C1480 1.428 . S
H1475 C1471 0.930 . S
H1476 C1473 0.929 . S
S1477 N1478 1.613 . S
S1477 N1479 1.610 . S
N1478 S1477 1.613 . S
N1478 C1481 1.350 . S
N1479 S1477 1.610 . S
N1479 C1480 1.351 . S
C1480 C1474 1.428 . S
C1480 N1479 1.351 . S
C1480 C1481 1.434 . S
C1481 C1472 1.429 . S
C1481 N1478 1.350 . S
C1481 C1480 1.434 . S
C1482 C1483 1.369 . S
C1482 C1484 1.419 . S
C1482 H1486 0.930 . S
C1483 C1482 1.369 . S
C1483 C1492 1.429 . S
C1484 C1482 1.419 . S
C1484 C1485 1.363 . S
C1484 H1487 0.929 . S
C1485 C1484 1.363 . S
C1485 C1491 1.428 . S
H1486 C1482 0.930 . S
H1487 C1484 0.929 . S
S1488 N1489 1.613 . S
S1488 N1490 1.610 . S
N1489 S1488 1.613 . S
N1489 C1492 1.350 . S
N1490 S1488 1.610 . S
N1490 C1491 1.351 . S
C1491 C1485 1.428 . S
C1491 N1490 1.351 . S
C1491 C1492 1.434 . S
C1492 C1483 1.429 . S
C1492 N1489 1.350 . S
C1492 C1491 1.434 . S
C1493 C1494 1.369 . S
C1493 C1495 1.419 . S
C1493 H1497 0.930 . S
C1494 C1493 1.369 . S
C1494 C1503 1.429 . S
C1495 C1493 1.419 . S
C1495 C1496 1.363 . S
C1495 H1498 0.929 . S
C1496 C1495 1.363 . S
C1496 C1502 1.428 . S
H1497 C1493 0.930 . S
H1498 C1495 0.929 . S
S1499 N1500 1.613 . S
S1499 N1501 1.610 . S
N1500 S1499 1.613 . S
N1500 C1503 1.350 . S
N1501 S1499 1.610 . S
N1501 C1502 1.351 . S
C1502 C1496 1.428 . S
C1502 N1501 1.351 . S
C1502 C1503 1.434 . S
C1503 C1494 1.429 . S
C1503 N1500 1.350 . S
C1503 C1502 1.434 . S
C1504 C1505 1.369 . S
C1504 C1506 1.419 . S
C1504 H1508 0.930 . S
C1505 C1504 1.369 . S
C1505 C1514 1.429 . S
C1506 C1504 1.419 . S
C1506 C1507 1.363 . S
C1506 H1509 0.929 . S
C1507 C1506 1.363 . S
C1507 C1513 1.428 . S
H1508 C1504 0.930 . S
H1509 C1506 0.929 . S
S1510 N1511 1.613 . S
S1510 N1512 1.610 . S
N1511 S1510 1.613 . S
N1511 C1514 1.350 . S
N1512 S1510 1.610 . S
N1512 C1513 1.351 . S
C1513 C1507 1.428 . S
C1513 N1512 1.351 . S
C1513 C1514 1.434 . S
C1514 C1505 1.429 . S
C1514 N1511 1.350 . S
C1514 C1513 1.434 . S
C1515 C1516 1.369 . S
C1515 C1517 1.419 . S
C1515 H1519 0.930 . S
C1516 C1515 1.369 . S
C1516 C1525 1.429 . S
C1517 C1515 1.419 . S
C1517 C1518 1.363 . S
C1517 H1520 0.929 . S
C1518 C1517 1.363 . S
C1518 C1524 1.428 . S
H1519 C1515 0.930 . S
H1520 C1517 0.929 . S
S1521 N1522 1.613 . S
S1521 N1523 1.610 . S
N1522 S1521 1.613 . S
N1522 C1525 1.350 . S
N1523 S1521 1.610 . S
N1523 C1524 1.351 . S
C1524 C1518 1.428 . S
C1524 N1523 1.351 . S
C1524 C1525 1.434 . S
C1525 C1516 1.429 . S
C1525 N1522 1.350 . S
C1525 C1524 1.434 . S
C1526 C1527 1.369 . S
C1526 C1528 1.419 . S
C1526 H1530 0.930 . S
C1527 C1526 1.369 . S
C1527 C1536 1.429 . S
C1528 C1526 1.419 . S
C1528 C1529 1.363 . S
C1528 H1531 0.929 . S
C1529 C1528 1.363 . S
C1529 C1535 1.428 . S
H1530 C1526 0.930 . S
H1531 C1528 0.929 . S
S1532 N1533 1.613 . S
S1532 N1534 1.610 . S
N1533 S1532 1.613 . S
N1533 C1536 1.350 . S
N1534 S1532 1.610 . S
N1534 C1535 1.351 . S
C1535 C1529 1.428 . S
C1535 N1534 1.351 . S
C1535 C1536 1.434 . S
C1536 C1527 1.429 . S
C1536 N1533 1.350 . S
C1536 C1535 1.434 . S
C1537 C1538 1.369 . S
C1537 C1539 1.419 . S
C1537 H1541 0.930 . S
C1538 C1537 1.369 . S
C1538 C1547 1.429 . S
C1539 C1537 1.419 . S
C1539 C1540 1.363 . S
C1539 H1542 0.929 . S
C1540 C1539 1.363 . S
C1540 C1546 1.428 . S
H1541 C1537 0.930 . S
H1542 C1539 0.929 . S
S1543 N1544 1.613 . S
S1543 N1545 1.610 . S
N1544 S1543 1.613 . S
N1544 C1547 1.350 . S
N1545 S1543 1.610 . S
N1545 C1546 1.351 . S
C1546 C1540 1.428 . S
C1546 N1545 1.351 . S
C1546 C1547 1.434 . S
C1547 C1538 1.429 . S
C1547 N1544 1.350 . S
C1547 C1546 1.434 . S
C1548 C1549 1.369 . S
C1548 C1550 1.419 . S
C1548 H1552 0.930 . S
C1549 C1548 1.369 . S
C1549 C1558 1.429 . S
C1550 C1548 1.419 . S
C1550 C1551 1.363 . S
C1550 H1553 0.929 . S
C1551 C1550 1.363 . S
C1551 C1557 1.428 . S
H1552 C1548 0.930 . S
H1553 C1550 0.929 . S
S1554 N1555 1.613 . S
S1554 N1556 1.610 . S
N1555 S1554 1.613 . S
N1555 C1558 1.350 . S
N1556 S1554 1.610 . S
N1556 C1557 1.351 . S
C1557 C1551 1.428 . S
C1557 N1556 1.351 . S
C1557 C1558 1.434 . S
C1558 C1549 1.429 . S
C1558 N1555 1.350 . S
C1558 C1557 1.434 . S
C1559 C1560 1.369 . S
C1559 C1561 1.419 . S
C1559 H1563 0.930 . S
C1560 C1559 1.369 . S
C1560 C1569 1.429 . S
C1561 C1559 1.419 . S
C1561 C1562 1.363 . S
C1561 H1564 0.929 . S
C1562 C1561 1.363 . S
C1562 C1568 1.428 . S
H1563 C1559 0.930 . S
H1564 C1561 0.929 . S
S1565 N1566 1.613 . S
S1565 N1567 1.610 . S
N1566 S1565 1.613 . S
N1566 C1569 1.350 . S
N1567 S1565 1.610 . S
N1567 C1568 1.351 . S
C1568 C1562 1.428 . S
C1568 N1567 1.351 . S
C1568 C1569 1.434 . S
C1569 C1560 1.429 . S
C1569 N1566 1.350 . S
C1569 C1568 1.434 . S
C1570 C1571 1.369 . S
C1570 C1572 1.419 . S
C1570 H1574 0.930 . S
C1571 C1570 1.369 . S
C1571 C1580 1.429 . S
C1572 C1570 1.419 . S
C1572 C1573 1.363 . S
C1572 H1575 0.929 . S
C1573 C1572 1.363 . S
C1573 C1579 1.428 . S
H1574 C1570 0.930 . S
H1575 C1572 0.929 . S
S1576 N1577 1.613 . S
S1576 N1578 1.610 . S
N1577 S1576 1.613 . S
N1577 C1580 1.350 . S
N1578 S1576 1.610 . S
N1578 C1579 1.351 . S
C1579 C1573 1.428 . S
C1579 N1578 1.351 . S
C1579 C1580 1.434 . S
C1580 C1571 1.429 . S
C1580 N1577 1.350 . S
C1580 C1579 1.434 . S
C1581 C1582 1.369 . S
C1581 C1583 1.419 . S
C1581 H1585 0.930 . S
C1582 C1581 1.369 . S
C1582 C1591 1.429 . S
C1583 C1581 1.419 . S
C1583 C1584 1.363 . S
C1583 H1586 0.929 . S
C1584 C1583 1.363 . S
C1584 C1590 1.428 . S
H1585 C1581 0.930 . S
H1586 C1583 0.929 . S
S1587 N1588 1.613 . S
S1587 N1589 1.610 . S
N1588 S1587 1.613 . S
N1588 C1591 1.350 . S
N1589 S1587 1.610 . S
N1589 C1590 1.351 . S
C1590 C1584 1.428 . S
C1590 N1589 1.351 . S
C1590 C1591 1.434 . S
C1591 C1582 1.429 . S
C1591 N1588 1.350 . S
C1591 C1590 1.434 . S
C1592 C1593 1.369 . S
C1592 C1594 1.419 . S
C1592 H1596 0.930 . S
C1593 C1592 1.369 . S
C1593 C1602 1.429 . S
C1594 C1592 1.419 . S
C1594 C1595 1.363 . S
C1594 H1597 0.929 . S
C1595 C1594 1.363 . S
C1595 C1601 1.428 . S
H1596 C1592 0.930 . S
H1597 C1594 0.929 . S
S1598 N1599 1.613 . S
S1598 N1600 1.610 . S
N1599 S1598 1.613 . S
N1599 C1602 1.350 . S
N1600 S1598 1.610 . S
N1600 C1601 1.351 . S
C1601 C1595 1.428 . S
C1601 N1600 1.351 . S
C1601 C1602 1.434 . S
C1602 C1593 1.429 . S
C1602 N1599 1.350 . S
C1602 C1601 1.434 . S
C1603 C1604 1.369 . S
C1603 C1605 1.419 . S
C1603 H1607 0.930 . S
C1604 C1603 1.369 . S
C1604 C1613 1.429 . S
C1605 C1603 1.419 . S
C1605 C1606 1.363 . S
C1605 H1608 0.929 . S
C1606 C1605 1.363 . S
C1606 C1612 1.428 . S
H1607 C1603 0.930 . S
H1608 C1605 0.929 . S
S1609 N1610 1.613 . S
S1609 N1611 1.610 . S
N1610 S1609 1.613 . S
N1610 C1613 1.350 . S
N1611 S1609 1.610 . S
N1611 C1612 1.351 . S
C1612 C1606 1.428 . S
C1612 N1611 1.351 . S
C1612 C1613 1.434 . S
C1613 C1604 1.429 . S
C1613 N1610 1.350 . S
C1613 C1612 1.434 . S
C1614 C1615 1.369 . S
C1614 C1616 1.419 . S
C1614 H1618 0.930 . S
C1615 C1614 1.369 . S
C1615 C1624 1.429 . S
C1616 C1614 1.419 . S
C1616 C1617 1.363 . S
C1616 H1619 0.929 . S
C1617 C1616 1.363 . S
C1617 C1623 1.428 . S
H1618 C1614 0.930 . S
H1619 C1616 0.929 . S
S1620 N1621 1.613 . S
S1620 N1622 1.610 . S
N1621 S1620 1.613 . S
N1621 C1624 1.350 . S
N1622 S1620 1.610 . S
N1622 C1623 1.351 . S
C1623 C1617 1.428 . S
C1623 N1622 1.351 . S
C1623 C1624 1.434 . S
C1624 C1615 1.429 . S
C1624 N1621 1.350 . S
C1624 C1623 1.434 . S
C1625 C1626 1.369 . S
C1625 C1627 1.419 . S
C1625 H1629 0.930 . S
C1626 C1625 1.369 . S
C1626 C1635 1.429 . S
C1627 C1625 1.419 . S
C1627 C1628 1.363 . S
C1627 H1630 0.929 . S
C1628 C1627 1.363 . S
C1628 C1634 1.428 . S
H1629 C1625 0.930 . S
H1630 C1627 0.929 . S
S1631 N1632 1.613 . S
S1631 N1633 1.610 . S
N1632 S1631 1.613 . S
N1632 C1635 1.350 . S
N1633 S1631 1.610 . S
N1633 C1634 1.351 . S
C1634 C1628 1.428 . S
C1634 N1633 1.351 . S
C1634 C1635 1.434 . S
C1635 C1626 1.429 . S
C1635 N1632 1.350 . S
C1635 C1634 1.434 . S
C1636 C1637 1.369 . S
C1636 C1638 1.419 . S
C1636 H1640 0.930 . S
C1637 C1636 1.369 . S
C1637 C1646 1.429 . S
C1638 C1636 1.419 . S
C1638 C1639 1.363 . S
C1638 H1641 0.929 . S
C1639 C1638 1.363 . S
C1639 C1645 1.428 . S
H1640 C1636 0.930 . S
H1641 C1638 0.929 . S
S1642 N1643 1.613 . S
S1642 N1644 1.610 . S
N1643 S1642 1.613 . S
N1643 C1646 1.350 . S
N1644 S1642 1.610 . S
N1644 C1645 1.351 . S
C1645 C1639 1.428 . S
C1645 N1644 1.351 . S
C1645 C1646 1.434 . S
C1646 C1637 1.429 . S
C1646 N1643 1.350 . S
C1646 C1645 1.434 . S
C1647 C1648 1.369 . S
C1647 C1649 1.419 . S
C1647 H1651 0.930 . S
C1648 C1647 1.369 . S
C1648 C1657 1.429 . S
C1649 C1647 1.419 . S
C1649 C1650 1.363 . S
C1649 H1652 0.929 . S
C1650 C1649 1.363 . S
C1650 C1656 1.428 . S
H1651 C1647 0.930 . S
H1652 C1649 0.929 . S
S1653 N1654 1.613 . S
S1653 N1655 1.610 . S
N1654 S1653 1.613 . S
N1654 C1657 1.350 . S
N1655 S1653 1.610 . S
N1655 C1656 1.351 . S
C1656 C1650 1.428 . S
C1656 N1655 1.351 . S
C1656 C1657 1.434 . S
C1657 C1648 1.429 . S
C1657 N1654 1.350 . S
C1657 C1656 1.434 . S
C1658 C1659 1.369 . S
C1658 C1660 1.419 . S
C1658 H1662 0.930 . S
C1659 C1658 1.369 . S
C1659 C1668 1.429 . S
C1660 C1658 1.419 . S
C1660 C1661 1.363 . S
C1660 H1663 0.929 . S
C1661 C1660 1.363 . S
C1661 C1667 1.428 . S
H1662 C1658 0.930 . S
H1663 C1660 0.929 . S
S1664 N1665 1.613 . S
S1664 N1666 1.610 . S
N1665 S1664 1.613 . S
N1665 C1668 1.350 . S
N1666 S1664 1.610 . S
N1666 C1667 1.351 . S
C1667 C1661 1.428 . S
C1667 N1666 1.351 . S
C1667 C1668 1.434 . S
C1668 C1659 1.429 . S
C1668 N1665 1.350 . S
C1668 C1667 1.434 . S
C1669 C1670 1.369 . S
C1669 C1671 1.419 . S
C1669 H1673 0.930 . S
C1670 C1669 1.369 . S
C1670 C1679 1.429 . S
C1671 C1669 1.419 . S
C1671 C1672 1.363 . S
C1671 H1674 0.929 . S
C1672 C1671 1.363 . S
C1672 C1678 1.428 . S
H1673 C1669 0.930 . S
H1674 C1671 0.929 . S
S1675 N1676 1.613 . S
S1675 N1677 1.610 . S
N1676 S1675 1.613 . S
N1676 C1679 1.350 . S
N1677 S1675 1.610 . S
N1677 C1678 1.351 . S
C1678 C1672 1.428 . S
C1678 N1677 1.351 . S
C1678 C1679 1.434 . S
C1679 C1670 1.429 . S
C1679 N1676 1.350 . S
C1679 C1678 1.434 . S
C625 C127 1.919 . S
C627 C10 1.923 . S
C636 C134 1.922 . S
C638 C23 1.920 . S
C647 C147 1.920 . S
C649 C36 1.922 . S
C658 C108 1.924 . S
C660 C43 1.920 . S
C669 C56 1.920 . S
C671 C205 1.924 . S
C680 C75 1.922 . S
C682 C166 1.922 . S
C691 C82 1.924 . S
C693 C179 1.919 . S
C702 C192 1.923 . S
C704 C101 1.919 . S
C713 C212 1.922 . S
C715 C238 1.922 . S
C724 C225 1.920 . S
C726 C602 1.924 . S
C735 C251 1.919 . S
C737 C615 1.924 . S
C746 C264 1.924 . S
C748 C589 1.919 . S
C757 C283 1.924 . S
C759 C582 1.919 . S
C768 C537 1.924 . S
C770 C290 1.921 . S
C779 C309 1.924 . S
C781 C563 1.921 . S
C790 C439 1.919 . S
C792 C316 1.923 . S
C801 C446 1.920 . S
C803 C329 1.921 . S
C812 C465 1.922 . S
C814 C348 1.920 . S
C823 C426 1.921 . S
C825 C355 1.921 . S
C834 C517 1.922 . S
C836 C368 1.920 . S
C845 C472 1.925 . S
C847 C381 1.920 . S
C856 C400 1.925 . S
C858 C491 1.920 . S
C867 C407 1.922 . S
C869 C498 1.922 . S
C878 C524 1.922 . S
C880 C556 1.922 . S
C889 C211 1.164 . S
C891 C3 1.153 . S
C900 C614 1.171 . S
C902 C16 1.152 . S
C911 C29 1.139 . S
C913 C278 1.176 . S
C922 C601 1.150 1_554 S
C924 C44 1.149 . S
C933 C57 1.155 . S
C935 C536 1.168 . S
C944 C551 1.171 . S
C946 C68 1.152 . S
C955 C83 1.155 . S
C957 C562 1.169 . S
C966 C263 1.178 1_556 S
C968 C94 1.143 . S
C977 C109 1.144 . S
C979 C5 1.176 . S
C988 C18 1.178 1_545 S
C990 C120 1.142 . S
C999 C135 1.141 . S
C1001 C31 1.177 . S
C1010 C42 1.151 1_565 S
C1012 C148 1.151 . S
C1021 C159 1.139 . S
C1023 C55 1.175 . S
C1032 C70 1.147 1_545 S
C1034 C172 1.146 . S
C1043 C185 1.142 . S
C1045 C81 1.177 . S
C1054 C198 1.152 . S
C1056 C96 1.150 1_565 S
C1065 C213 1.154 . S
C1067 C107 1.166 . S
C1076 C226 1.155 . S
C1078 C471 1.166 . S
C1087 C486 1.177 1_455 S
C1089 C239 1.141 . S
C1098 C497 1.165 . S
C1100 C252 1.153 . S
C1109 C200 1.150 1_655 S
C1111 C265 1.152 . S
C1120 C276 1.148 . S
C1122 C133 1.167 . S
C1131 C460 1.145 1_455 S
C1133 C291 1.147 . S
C1142 C302 1.140 . S
C1144 C434 1.177 . S
C1153 C317 1.152 . S
C1155 C523 1.172 . S
C1164 C330 1.151 . S
C1166 C304 1.150 1_554 S
C1175 C341 1.141 . S
C1177 C588 1.171 . S
C1186 C356 1.155 . S
C1188 C289 1.167 . S
C1197 C369 1.148 . S
C1199 C224 1.175 . S
C1208 C382 1.154 . S
C1210 C237 1.151 1_556 S
C1219 C250 1.167 . S
C1221 C393 1.146 . S
C1230 C577 1.164 . S
C1232 C408 1.151 . S
C1241 C315 1.170 . S
C1243 C419 1.152 . S
C1252 C328 1.169 . S
C1254 C432 1.153 . S
C1263 C447 1.154 . S
C1265 C343 1.169 . S
C1274 C354 1.176 . S
C1276 C458 1.147 . S
C1285 C473 1.146 . S
C1287 C367 1.175 . S
C1296 C484 1.140 . S
C1298 C380 1.177 . S
C1307 C499 1.148 . S
C1309 C395 1.175 . S
C1318 C406 1.178 . S
C1320 C510 1.145 . S
C1329 C525 1.152 . S
C1331 C421 1.172 . S
C1340 C538 1.155 . S
C1342 C161 1.167 . S
C1351 C174 1.176 . S
C1353 C549 1.147 . S
C1362 C564 1.155 . S
C1364 C187 1.166 . S
C1373 C575 1.139 . S
C1375 C512 1.175 . S
C1384 C445 1.171 . S
C1386 C590 1.142 . S
C1395 C146 1.165 . S
C1397 C603 1.153 . S
C1406 C122 1.148 1_655 S
C1408 C616 1.150 . S
C1417 C296 1.428 . S
C1419 C4 1.429 . S
C1428 C17 1.426 . S
C1430 C530 1.433 . S
C1439 C30 1.432 . S
C1441 C303 1.431 . S
C1450 C595 1.434 . S
C1452 C49 1.427 . S
C1461 C62 1.426 . S
C1463 C244 1.433 . S
C1472 C257 1.425 . S
C1474 C69 1.433 . S
C1483 C576 1.426 . S
C1485 C88 1.433 . S
C1494 C95 1.427 . S
C1496 C231 1.433 . S
C1505 C173 1.434 . S
C1507 C114 1.429 . S
C1516 C121 1.434 . S
C1518 C186 1.427 . S
C1527 C199 1.426 . S
C1529 C140 1.433 . S
C1538 C153 1.426 . S
C1540 C160 1.433 . S
C1549 C335 1.426 . S
C1551 C218 1.431 . S
C1560 C270 1.433 . S
C1562 C394 1.430 . S
C1571 C277 1.429 . S
C1573 C361 1.433 . S
C1582 C608 1.434 . S
C1584 C322 1.427 . S
C1593 C342 1.434 . S
C1595 C621 1.427 . S
C1604 C374 1.429 . S
C1606 C550 1.433 . S
C1615 C387 1.432 . S
C1617 C569 1.430 . S
C1626 C543 1.434 . S
C1628 C413 1.427 . S
C1637 C485 1.434 . S
C1639 C420 1.427 . S
C1648 C433 1.434 . S
C1650 C504 1.427 . S
C1659 C452 1.432 . S
C1661 C511 1.431 . S
C1670 C478 1.434 . S
C1672 C459 1.428 . S
