# Generated by pormake.
# Topology gme, (4)-cn, num edge types: 1
# Building blocks:
#     Node 0, Type 0, BuildingBlock: GALJAG_clean_sbu_0, # of connection points: 4
#     Node 1, Type 0, BuildingBlock: GALJAG_clean_sbu_0, # of connection points: 4
#     Node 2, Type 0, BuildingBlock: GALJAG_clean_sbu_0, # of connection points: 4
#     Node 3, Type 0, BuildingBlock: GALJAG_clean_sbu_0, # of connection points: 4
#     Node 4, Type 0, BuildingBlock: GALJAG_clean_sbu_0, # of connection points: 4
#     Node 5, Type 0, BuildingBlock: GALJAG_clean_sbu_0, # of connection points: 4
#     Node 6, Type 0, BuildingBlock: GALJAG_clean_sbu_0, # of connection points: 4
#     Node 7, Type 0, BuildingBlock: GALJAG_clean_sbu_0, # of connection points: 4
#     Node 8, Type 0, BuildingBlock: GALJAG_clean_sbu_0, # of connection points: 4
#     Node 9, Type 0, BuildingBlock: GALJAG_clean_sbu_0, # of connection points: 4
#     Node 10, Type 0, BuildingBlock: GALJAG_clean_sbu_0, # of connection points: 4
#     Node 11, Type 0, BuildingBlock: GALJAG_clean_sbu_0, # of connection points: 4
#     Node 12, Type 0, BuildingBlock: GALJAG_clean_sbu_0, # of connection points: 4
#     Node 13, Type 0, BuildingBlock: GALJAG_clean_sbu_0, # of connection points: 4
#     Node 14, Type 0, BuildingBlock: GALJAG_clean_sbu_0, # of connection points: 4
#     Node 15, Type 0, BuildingBlock: GALJAG_clean_sbu_0, # of connection points: 4
#     Node 16, Type 0, BuildingBlock: GALJAG_clean_sbu_0, # of connection points: 4
#     Node 17, Type 0, BuildingBlock: GALJAG_clean_sbu_0, # of connection points: 4
#     Node 18, Type 0, BuildingBlock: GALJAG_clean_sbu_0, # of connection points: 4
#     Node 19, Type 0, BuildingBlock: GALJAG_clean_sbu_0, # of connection points: 4
#     Node 20, Type 0, BuildingBlock: GALJAG_clean_sbu_0, # of connection points: 4
#     Node 21, Type 0, BuildingBlock: GALJAG_clean_sbu_0, # of connection points: 4
#     Node 22, Type 0, BuildingBlock: GALJAG_clean_sbu_0, # of connection points: 4
#     Node 23, Type 0, BuildingBlock: GALJAG_clean_sbu_0, # of connection points: 4
#     Edge 24, Type (0, 0), BuildingBlock: XUDNAN_clean_linker_2, # of connection points: 2
#     Edge 25, Type (0, 0), BuildingBlock: XUDNAN_clean_linker_2, # of connection points: 2
#     Edge 26, Type (0, 0), BuildingBlock: XUDNAN_clean_linker_2, # of connection points: 2
#     Edge 27, Type (0, 0), BuildingBlock: XUDNAN_clean_linker_2, # of connection points: 2
#     Edge 28, Type (0, 0), BuildingBlock: XUDNAN_clean_linker_2, # of connection points: 2
#     Edge 29, Type (0, 0), BuildingBlock: XUDNAN_clean_linker_2, # of connection points: 2
#     Edge 30, Type (0, 0), BuildingBlock: XUDNAN_clean_linker_2, # of connection points: 2
#     Edge 31, Type (0, 0), BuildingBlock: XUDNAN_clean_linker_2, # of connection points: 2
#     Edge 32, Type (0, 0), BuildingBlock: XUDNAN_clean_linker_2, # of connection points: 2
#     Edge 33, Type (0, 0), BuildingBlock: XUDNAN_clean_linker_2, # of connection points: 2
#     Edge 34, Type (0, 0), BuildingBlock: XUDNAN_clean_linker_2, # of connection points: 2
#     Edge 35, Type (0, 0), BuildingBlock: XUDNAN_clean_linker_2, # of connection points: 2
#     Edge 36, Type (0, 0), BuildingBlock: XUDNAN_clean_linker_2, # of connection points: 2
#     Edge 37, Type (0, 0), BuildingBlock: XUDNAN_clean_linker_2, # of connection points: 2
#     Edge 38, Type (0, 0), BuildingBlock: XUDNAN_clean_linker_2, # of connection points: 2
#     Edge 39, Type (0, 0), BuildingBlock: XUDNAN_clean_linker_2, # of connection points: 2
#     Edge 40, Type (0, 0), BuildingBlock: XUDNAN_clean_linker_2, # of connection points: 2
#     Edge 41, Type (0, 0), BuildingBlock: XUDNAN_clean_linker_2, # of connection points: 2
#     Edge 42, Type (0, 0), BuildingBlock: XUDNAN_clean_linker_2, # of connection points: 2
#     Edge 43, Type (0, 0), BuildingBlock: XUDNAN_clean_linker_2, # of connection points: 2
#     Edge 44, Type (0, 0), BuildingBlock: XUDNAN_clean_linker_2, # of connection points: 2
#     Edge 45, Type (0, 0), BuildingBlock: XUDNAN_clean_linker_2, # of connection points: 2
#     Edge 46, Type (0, 0), BuildingBlock: XUDNAN_clean_linker_2, # of connection points: 2
#     Edge 47, Type (0, 0), BuildingBlock: XUDNAN_clean_linker_2, # of connection points: 2
#     Edge 48, Type (0, 0), BuildingBlock: XUDNAN_clean_linker_2, # of connection points: 2
#     Edge 49, Type (0, 0), BuildingBlock: XUDNAN_clean_linker_2, # of connection points: 2
#     Edge 50, Type (0, 0), BuildingBlock: XUDNAN_clean_linker_2, # of connection points: 2
#     Edge 51, Type (0, 0), BuildingBlock: XUDNAN_clean_linker_2, # of connection points: 2
#     Edge 52, Type (0, 0), BuildingBlock: XUDNAN_clean_linker_2, # of connection points: 2
#     Edge 53, Type (0, 0), BuildingBlock: XUDNAN_clean_linker_2, # of connection points: 2
#     Edge 54, Type (0, 0), BuildingBlock: XUDNAN_clean_linker_2, # of connection points: 2
#     Edge 55, Type (0, 0), BuildingBlock: XUDNAN_clean_linker_2, # of connection points: 2
#     Edge 56, Type (0, 0), BuildingBlock: XUDNAN_clean_linker_2, # of connection points: 2
#     Edge 57, Type (0, 0), BuildingBlock: XUDNAN_clean_linker_2, # of connection points: 2
#     Edge 58, Type (0, 0), BuildingBlock: XUDNAN_clean_linker_2, # of connection points: 2
#     Edge 59, Type (0, 0), BuildingBlock: XUDNAN_clean_linker_2, # of connection points: 2
#     Edge 60, Type (0, 0), BuildingBlock: XUDNAN_clean_linker_2, # of connection points: 2
#     Edge 61, Type (0, 0), BuildingBlock: XUDNAN_clean_linker_2, # of connection points: 2
#     Edge 62, Type (0, 0), BuildingBlock: XUDNAN_clean_linker_2, # of connection points: 2
#     Edge 63, Type (0, 0), BuildingBlock: XUDNAN_clean_linker_2, # of connection points: 2
#     Edge 64, Type (0, 0), BuildingBlock: XUDNAN_clean_linker_2, # of connection points: 2
#     Edge 65, Type (0, 0), BuildingBlock: XUDNAN_clean_linker_2, # of connection points: 2
#     Edge 66, Type (0, 0), BuildingBlock: XUDNAN_clean_linker_2, # of connection points: 2
#     Edge 67, Type (0, 0), BuildingBlock: XUDNAN_clean_linker_2, # of connection points: 2
#     Edge 68, Type (0, 0), BuildingBlock: XUDNAN_clean_linker_2, # of connection points: 2
#     Edge 69, Type (0, 0), BuildingBlock: XUDNAN_clean_linker_2, # of connection points: 2
#     Edge 70, Type (0, 0), BuildingBlock: XUDNAN_clean_linker_2, # of connection points: 2
#     Edge 71, Type (0, 0), BuildingBlock: XUDNAN_clean_linker_2, # of connection points: 2
# Relax obj value: 0.080
# Max RMSD: 0.062
# Mean RMSD: 0.062
data_MOF--net-gme--node1-GALJAG_clean_sbu_0--edge1-XUDNAN_clean_linker_2
_symmetry_space_group_name_H-M    P1
_symmetry_Int_Tables_number       1
_symmetry_cell_setting            triclinic
loop_
_symmetry_equiv_pos_as_xyz
'x, y, z'
_cell_length_a     57.928198
_cell_length_b     57.966498
_cell_length_c     55.653164
_cell_angle_alpha  90.028015
_cell_angle_beta   89.9875
_cell_angle_gamma 120.00245
loop_
_atom_site_label
_atom_site_type_symbol
_atom_site_fract_x
_atom_site_fract_y
_atom_site_fract_z
_atom_type_partial_charge
In0 In 0.40836 0.07464 0.11768 0.0
O1 O 0.38196 0.05135 0.14962 0.0
O2 O 0.41894 0.0864 0.15675 0.0
C3 C 0.38079 0.04525 0.07954 0.0
C4 C 0.4016 0.11677 0.1105 0.0
C5 C 0.45023 0.06662 0.11459 0.0
O6 O 0.37323 0.03806 0.10093 0.0
O7 O 0.40223 0.06722 0.07748 0.0
O8 O 0.45303 0.08957 0.11194 0.0
O9 O 0.42669 0.04835 0.11871 0.0
C10 C 0.39796 0.06709 0.1652 0.0
O11 O 0.42456 0.11917 0.11027 0.0
O12 O 0.3827 0.09349 0.11439 0.0
In13 In 0.32853 0.39151 0.61666 0.0
O14 O 0.30076 0.40857 0.61417 0.0
O15 O 0.28365 0.3663 0.61665 0.0
C16 C 0.37812 0.43398 0.61472 0.0
C17 C 0.32627 0.37714 0.66286 0.0
C18 C 0.32678 0.36995 0.57361 0.0
O19 O 0.35764 0.43644 0.61384 0.0
O20 O 0.3734 0.41033 0.61647 0.0
O21 O 0.33196 0.36128 0.59254 0.0
O22 O 0.32257 0.38909 0.57659 0.0
C23 C 0.27982 0.3859 0.61496 0.0
O24 O 0.32772 0.36311 0.6461 0.0
O25 O 0.3262 0.39785 0.65608 0.0
In26 In 0.92365 0.32344 0.11271 0.0
O27 O 0.95261 0.32429 0.14185 0.0
O28 O 0.92265 0.33325 0.15185 0.0
C29 C 0.94993 0.32585 0.07174 0.0
C30 C 0.88357 0.27263 0.11451 0.0
C31 C 0.91184 0.36257 0.10667 0.0
O32 O 0.96171 0.34019 0.08977 0.0
O33 O 0.92532 0.31037 0.07458 0.0
O34 O 0.89436 0.33853 0.10992 0.0
O35 O 0.93548 0.36695 0.10587 0.0
C36 C 0.94184 0.33043 0.15851 0.0
O37 O 0.88022 0.29168 0.10825 0.0
O38 O 0.90729 0.27919 0.11981 0.0
In39 In 0.58713 0.91716 0.61669 0.0
O40 O 0.56312 0.87359 0.60658 0.0
O41 O 0.6017 0.88714 0.6212 0.0
C42 C 0.53995 0.91416 0.60778 0.0
C43 C 0.5994 0.93067 0.66347 0.0
C44 C 0.61903 0.94844 0.58073 0.0
O45 O 0.54683 0.89878 0.59824 0.0
O46 O 0.55708 0.93148 0.62169 0.0
O47 O 0.60343 0.95359 0.59223 0.0
O48 O 0.61948 0.92811 0.58801 0.0
C49 C 0.58057 0.86786 0.6128 0.0
O50 O 0.61543 0.94361 0.64676 0.0
O51 O 0.57775 0.91114 0.65652 0.0
In52 In 0.65964 0.59425 0.12185 0.0
O53 O 0.68163 0.61748 0.15565 0.0
O54 O 0.64143 0.60739 0.15201 0.0
C55 C 0.66813 0.61924 0.07894 0.0
C56 C 0.69818 0.58143 0.12374 0.0
C57 C 0.61022 0.55143 0.11828 0.0
O58 O 0.66333 0.62833 0.09773 0.0
O59 O 0.66905 0.59823 0.08201 0.0
O60 O 0.62933 0.54997 0.12758 0.0
O61 O 0.61611 0.57429 0.11094 0.0
C62 C 0.66205 0.61792 0.16486 0.0
O63 O 0.67373 0.56416 0.12566 0.0
O64 O 0.70308 0.60513 0.12107 0.0
In65 In 0.06873 0.66464 0.62129 0.0
O66 O 0.0372 0.65391 0.65119 0.0
O67 O 0.07779 0.67027 0.66096 0.0
C68 C 0.03795 0.65846 0.58229 0.0
C69 C 0.10943 0.71488 0.6163 0.0
C70 C 0.08072 0.6256 0.61809 0.0
O71 O 0.04439 0.67693 0.59731 0.0
O72 O 0.04604 0.64257 0.58742 0.0
O73 O 0.09664 0.64918 0.61128 0.0
O74 O 0.05874 0.62179 0.62636 0.0
C75 C 0.0542 0.66147 0.66791 0.0
O76 O 0.11245 0.6949 0.61375 0.0
O77 O 0.08593 0.70942 0.6209 0.0
In78 In 0.92976 0.59635 0.38122 0.0
O79 O 0.96173 0.61351 0.35147 0.0
O80 O 0.92156 0.60046 0.34209 0.0
C81 C 0.95841 0.61833 0.42157 0.0
C82 C 0.88998 0.60705 0.38764 0.0
C83 C 0.92024 0.54586 0.3814 0.0
O84 O 0.96167 0.63183 0.40279 0.0
O85 O 0.94129 0.594 0.41978 0.0
O86 O 0.90232 0.55162 0.38586 0.0
O87 O 0.94288 0.56557 0.3767 0.0
C88 C 0.94528 0.61023 0.33508 0.0
O89 O 0.88584 0.58357 0.38565 0.0
O90 O 0.91417 0.62503 0.38665 0.0
In91 In 0.32953 0.93139 0.88387 0.0
O92 O 0.29896 0.88703 0.8868 0.0
O93 O 0.28512 0.91419 0.87934 0.0
C94 C 0.37694 0.93462 0.89175 0.0
C95 C 0.33438 0.94589 0.83729 0.0
C96 C 0.32684 0.95334 0.92558 0.0
O97 O 0.35588 0.9124 0.88876 0.0
O98 O 0.3738 0.95462 0.8907 0.0
O99 O 0.3353 0.96701 0.90653 0.0
O100 O 0.31961 0.929 0.92331 0.0
C101 C 0.27925 0.89036 0.88297 0.0
O102 O 0.33036 0.95882 0.8535 0.0
O103 O 0.33606 0.92625 0.84477 0.0
In104 In 0.41332 0.33852 0.38121 0.0
O105 O 0.42941 0.31553 0.40117 0.0
O106 O 0.39336 0.29309 0.38156 0.0
C107 C 0.46268 0.38138 0.37613 0.0
C108 C 0.39502 0.33425 0.33598 0.0
C109 C 0.3851 0.34158 0.41835 0.0
O110 O 0.45723 0.35796 0.37141 0.0
O111 O 0.44315 0.38343 0.38337 0.0
O112 O 0.37632 0.33751 0.3971 0.0
O113 O 0.40811 0.34469 0.42062 0.0
C114 C 0.41086 0.29287 0.39492 0.0
O115 O 0.39172 0.34805 0.35171 0.0
O116 O 0.40713 0.32256 0.34324 0.0
In117 In 0.0766 0.41628 0.88306 0.0
O118 O 0.12086 0.44011 0.87582 0.0
O119 O 0.10553 0.40074 0.88938 0.0
C120 C 0.08098 0.46449 0.8898 0.0
C121 C 0.05908 0.40004 0.83762 0.0
C122 C 0.04827 0.38556 0.92083 0.0
O123 O 0.09767 0.45848 0.89764 0.0
O124 O 0.06178 0.44611 0.87835 0.0
O125 O 0.04409 0.37684 0.89958 0.0
O126 O 0.06666 0.40933 0.92288 0.0
C127 C 0.12569 0.42215 0.88252 0.0
O128 O 0.08074 0.40305 0.8456 0.0
O129 O 0.04561 0.40462 0.85275 0.0
In130 In 0.67589 0.07888 0.39165 0.0
O131 O 0.70222 0.11627 0.41332 0.0
O132 O 0.7209 0.10567 0.38616 0.0
C133 C 0.63465 0.08793 0.38975 0.0
C134 C 0.67402 0.06384 0.34544 0.0
C135 C 0.66928 0.04623 0.42887 0.0
O136 O 0.65861 0.10638 0.39109 0.0
O137 O 0.63136 0.06469 0.38934 0.0
O138 O 0.68405 0.04865 0.41122 0.0
O139 O 0.65765 0.05959 0.42724 0.0
C140 C 0.72344 0.12198 0.40236 0.0
O141 O 0.66935 0.04782 0.36262 0.0
O142 O 0.67991 0.08702 0.35174 0.0
In143 In 0.59335 0.66765 0.88819 0.0
O144 O 0.61987 0.66911 0.85698 0.0
O145 O 0.58155 0.6636 0.84889 0.0
C146 C 0.6217 0.66364 0.92491 0.0
C147 C 0.60119 0.71758 0.88893 0.0
C148 C 0.54584 0.6235 0.89629 0.0
O149 O 0.62361 0.65718 0.90365 0.0
O150 O 0.60574 0.67225 0.92753 0.0
O151 O 0.55154 0.64612 0.90426 0.0
O152 O 0.56411 0.6231 0.8843 0.0
C153 C 0.60307 0.66604 0.84099 0.0
O154 O 0.57827 0.69725 0.89008 0.0
O155 O 0.62007 0.7127 0.88767 0.0
In156 In 0.58742 0.92559 0.88581 0.0
O157 O 0.6145 0.95284 0.85563 0.0
O158 O 0.57655 0.91989 0.84656 0.0
C159 C 0.6123 0.9458 0.92777 0.0
C160 C 0.5958 0.88412 0.88441 0.0
C161 C 0.54439 0.93091 0.89313 0.0
O162 O 0.61842 0.95994 0.90895 0.0
O163 O 0.59394 0.92196 0.92522 0.0
O164 O 0.54228 0.90824 0.89049 0.0
O165 O 0.56789 0.95033 0.89205 0.0
C166 C 0.59804 0.93946 0.83923 0.0
O167 O 0.57281 0.88097 0.88814 0.0
O168 O 0.61404 0.90794 0.88124 0.0
In169 In 0.67289 0.60183 0.38133 0.0
O170 O 0.65727 0.62187 0.35519 0.0
O171 O 0.68695 0.61359 0.34287 0.0
C172 C 0.67022 0.61999 0.42534 0.0
C173 C 0.72311 0.61148 0.3853 0.0
C174 C 0.63154 0.55133 0.37763 0.0
O175 O 0.66622 0.62959 0.40645 0.0
O176 O 0.6752 0.60145 0.42191 0.0
O177 O 0.65517 0.55766 0.37258 0.0
O178 O 0.6287 0.57041 0.38467 0.0
C179 C 0.67173 0.62254 0.33793 0.0
O180 O 0.7032 0.58818 0.38434 0.0
O181 O 0.71767 0.63007 0.38418 0.0
In182 In 0.06748 0.67258 0.89092 0.0
O183 O 0.11134 0.70382 0.89408 0.0
O184 O 0.08381 0.71765 0.89042 0.0
C185 C 0.07474 0.6304 0.89679 0.0
C186 C 0.0547 0.66833 0.84384 0.0
C187 C 0.03524 0.66705 0.92833 0.0
O188 O 0.09137 0.65354 0.90382 0.0
O189 O 0.05419 0.62837 0.88697 0.0
O190 O 0.02867 0.66735 0.90677 0.0
O191 O 0.05816 0.67001 0.93099 0.0
C192 C 0.10786 0.72354 0.89242 0.0
O193 O 0.03765 0.66327 0.86014 0.0
O194 O 0.07785 0.67552 0.85135 0.0
In195 In 0.41672 0.08332 0.38818 0.0
O196 O 0.42917 0.12147 0.40866 0.0
O197 O 0.39576 0.10803 0.38555 0.0
C198 C 0.46634 0.09013 0.38765 0.0
C199 C 0.40284 0.07331 0.34139 0.0
C200 C 0.38985 0.04821 0.4237 0.0
O201 O 0.46163 0.10908 0.38663 0.0
O202 O 0.44586 0.06729 0.38887 0.0
O203 O 0.38584 0.04176 0.40179 0.0
O204 O 0.40732 0.07208 0.42752 0.0
C205 C 0.41136 0.1255 0.40021 0.0
O206 O 0.38703 0.05984 0.35808 0.0
O207 O 0.42526 0.0917 0.34838 0.0
In208 In 0.333 0.40677 0.88268 0.0
O209 O 0.31626 0.43464 0.88179 0.0
O210 O 0.28855 0.39313 0.88492 0.0
C211 C 0.37787 0.45299 0.89308 0.0
C212 C 0.33048 0.38845 0.83738 0.0
C213 C 0.3293 0.37462 0.91934 0.0
O214 O 0.35692 0.4438 0.9055 0.0
O215 O 0.37645 0.43866 0.87542 0.0
O216 O 0.35009 0.38717 0.9068 0.0
O217 O 0.31006 0.3775 0.91281 0.0
C218 C 0.2922 0.41648 0.88344 0.0
O219 O 0.32797 0.40819 0.84253 0.0
O220 O 0.33467 0.37762 0.85519 0.0
In221 In 0.93441 0.33795 0.38097 0.0
O222 O 0.96132 0.33653 0.35094 0.0
O223 O 0.92712 0.33871 0.34113 0.0
C224 C 0.96855 0.34224 0.41625 0.0
C225 C 0.88988 0.29236 0.3929 0.0
C226 C 0.92453 0.3787 0.38369 0.0
O227 O 0.96785 0.36208 0.40788 0.0
O228 O 0.95325 0.32056 0.40584 0.0
O229 O 0.90673 0.35471 0.38665 0.0
O230 O 0.94753 0.38227 0.37953 0.0
C231 C 0.94722 0.33764 0.33417 0.0
O232 O 0.8986 0.31353 0.40497 0.0
O233 O 0.90357 0.29414 0.3746 0.0
In234 In 0.07722 0.40898 0.61678 0.0
O235 O 0.12107 0.42073 0.61423 0.0
O236 O 0.09198 0.37948 0.61337 0.0
C237 C 0.08658 0.4594 0.61591 0.0
C238 C 0.06031 0.39555 0.66264 0.0
C239 C 0.04998 0.38671 0.57584 0.0
O240 O 0.10448 0.45366 0.6113 0.0
O241 O 0.06406 0.43972 0.62096 0.0
O242 O 0.04452 0.37402 0.5954 0.0
O243 O 0.0686 0.41052 0.57713 0.0
C244 C 0.11636 0.39701 0.61291 0.0
O245 O 0.04428 0.39146 0.64561 0.0
O246 O 0.08437 0.40596 0.65641 0.0
In247 In 0.66396 0.06262 0.1223 0.0
O248 O 0.66252 0.0365 0.1539 0.0
O249 O 0.66484 0.0736 0.16143 0.0
C250 C 0.66214 0.03439 0.08323 0.0
C251 C 0.71414 0.10362 0.11867 0.0
C252 C 0.61574 0.05867 0.11818 0.0
O253 O 0.66117 0.02592 0.10435 0.0
O254 O 0.66434 0.05714 0.08193 0.0
O255 O 0.63706 0.08086 0.11643 0.0
O256 O 0.61901 0.03906 0.12202 0.0
C257 C 0.66374 0.05279 0.16966 0.0
O258 O 0.69414 0.10659 0.11556 0.0
O259 O 0.70866 0.08011 0.12327 0.0
In260 In 0.58639 0.65573 0.61769 0.0
O261 O 0.61633 0.66558 0.64844 0.0
O262 O 0.57608 0.65291 0.65735 0.0
C263 C 0.61667 0.65759 0.57994 0.0
C264 C 0.58041 0.6985 0.61111 0.0
C265 C 0.54603 0.60482 0.61547 0.0
O266 O 0.6227 0.65587 0.60139 0.0
O267 O 0.5957 0.65888 0.5776 0.0
O268 O 0.54231 0.62445 0.61442 0.0
O269 O 0.57008 0.61086 0.61757 0.0
C270 C 0.5993 0.66031 0.6648 0.0
O271 O 0.56237 0.67504 0.60633 0.0
O272 O 0.60179 0.70055 0.61899 0.0
In273 In 0.91139 0.57731 0.11829 0.0
O274 O 0.86636 0.55191 0.11833 0.0
O275 O 0.88311 0.59408 0.11922 0.0
C276 C 0.90561 0.52811 0.11575 0.0
C277 C 0.93485 0.59867 0.1612 0.0
C278 C 0.93345 0.60444 0.0771 0.0
O279 O 0.89067 0.53342 0.12813 0.0
O280 O 0.92397 0.54775 0.10475 0.0
O281 O 0.94683 0.60853 0.09608 0.0
O282 O 0.90923 0.58706 0.07901 0.0
C283 C 0.86227 0.57135 0.11907 0.0
O284 O 0.94357 0.5877 0.14722 0.0
O285 O 0.91504 0.59963 0.15323 0.0
In286 In 0.32986 0.92346 0.61584 0.0
O287 O 0.33643 0.92069 0.65545 0.0
O288 O 0.33109 0.95284 0.64446 0.0
C289 C 0.33137 0.94726 0.5737 0.0
C290 C 0.2792 0.88333 0.61843 0.0
C291 C 0.37186 0.91632 0.60874 0.0
O292 O 0.34252 0.96067 0.59237 0.0
O293 O 0.31938 0.92242 0.57662 0.0
O294 O 0.34807 0.89787 0.60608 0.0
O295 O 0.37454 0.93844 0.61506 0.0
C296 C 0.33494 0.94083 0.66161 0.0
O297 O 0.29877 0.87948 0.61707 0.0
O298 O 0.28523 0.9075 0.61884 0.0
In299 In 0.40003 0.33072 0.11464 0.0
O300 O 0.37474 0.3341 0.14473 0.0
O301 O 0.40426 0.3241 0.15403 0.0
C302 C 0.3744 0.33045 0.07435 0.0
C303 C 0.39575 0.28277 0.10825 0.0
C304 C 0.44246 0.38037 0.11311 0.0
O305 O 0.36358 0.32642 0.09484 0.0
O306 O 0.39797 0.33458 0.07436 0.0
O307 O 0.44514 0.36001 0.11317 0.0
O308 O 0.4187 0.37549 0.11386 0.0
C309 C 0.38623 0.32858 0.16117 0.0
O310 O 0.4182 0.30395 0.10862 0.0
O311 O 0.37596 0.28603 0.11109 0.0
H312 H 0.43418 0.10073 0.30334 0.0
H313 H 0.35648 0.03389 0.32123 0.0
H314 H 0.34619 0.02488 0.27785 0.0
H315 H 0.41336 0.12331 0.25192 0.0
H316 H 0.44345 0.13251 0.23528 0.0
H317 H 0.44423 0.1336 0.26762 0.0
H318 H 0.46424 0.10235 0.26824 0.0
H319 H 0.46348 0.10113 0.23591 0.0
H320 H 0.447 0.07069 0.25302 0.0
H321 H 0.34513 0.02296 0.23206 0.0
H322 H 0.35312 0.02874 0.18815 0.0
H323 H 0.43141 0.09708 0.20123 0.0
C324 C 0.41494 0.08423 0.29818 0.0
C325 C 0.3961 0.06799 0.31562 0.0
C326 C 0.37118 0.04659 0.30812 0.0
C327 C 0.36519 0.04133 0.28355 0.0
C328 C 0.38433 0.05771 0.26681 0.0
C329 C 0.40867 0.07876 0.27386 0.0
C330 C 0.42594 0.09334 0.25248 0.0
C331 C 0.43209 0.12241 0.25179 0.0
C332 C 0.45168 0.09177 0.25242 0.0
C333 C 0.40758 0.0772 0.23221 0.0
C334 C 0.38367 0.0567 0.24074 0.0
C335 C 0.36376 0.039 0.22521 0.0
C336 C 0.36847 0.04241 0.20033 0.0
C337 C 0.39284 0.06337 0.19132 0.0
C338 C 0.41253 0.08092 0.20756 0.0
H339 H 0.30929 0.39657 0.69843 0.0
H340 H 0.34055 0.34361 0.68538 0.0
H341 H 0.34209 0.3374 0.72946 0.0
H342 H 0.34886 0.43002 0.74695 0.0
H343 H 0.32342 0.43299 0.76298 0.0
H344 H 0.32213 0.4305 0.73077 0.0
H345 H 0.27445 0.38951 0.73309 0.0
H346 H 0.2755 0.39197 0.76539 0.0
H347 H 0.26849 0.36122 0.75111 0.0
H348 H 0.34369 0.34085 0.77586 0.0
H349 H 0.34461 0.35301 0.81884 0.0
H350 H 0.31226 0.40363 0.79935 0.0
C351 C 0.31613 0.38334 0.70478 0.0
C352 C 0.32489 0.37062 0.68862 0.0
C353 C 0.33362 0.35342 0.69758 0.0
C354 C 0.33457 0.34983 0.72253 0.0
C355 C 0.32632 0.36328 0.73805 0.0
C356 C 0.31699 0.37945 0.72936 0.0
C357 C 0.31044 0.39283 0.74933 0.0
C358 C 0.32723 0.42338 0.74738 0.0
C359 C 0.28044 0.38331 0.74975 0.0
C360 C 0.31847 0.38256 0.77076 0.0
C361 C 0.32725 0.36524 0.76413 0.0
C362 C 0.33657 0.35416 0.78118 0.0
C363 C 0.33706 0.36117 0.8055 0.0
C364 C 0.32858 0.3793 0.81233 0.0
C365 C 0.31893 0.38975 0.79469 0.0
H366 H 0.92026 0.34357 0.19555 0.0
H367 H 0.9806 0.32246 0.17933 0.0
H368 H 0.99077 0.32411 0.22288 0.0
H369 H 0.95488 0.38873 0.24503 0.0
H370 H 0.92449 0.37812 0.26163 0.0
H371 H 0.9238 0.37707 0.22928 0.0
H372 H 0.88815 0.32688 0.23063 0.0
H373 H 0.8888 0.32773 0.26294 0.0
H374 H 0.89499 0.30421 0.24714 0.0
H375 H 0.99234 0.32625 0.26926 0.0
H376 H 0.98476 0.32809 0.31299 0.0
H377 H 0.92276 0.34692 0.29699 0.0
C378 C 0.93586 0.33958 0.20104 0.0
C379 C 0.94972 0.33296 0.18408 0.0
C380 C 0.96984 0.3277 0.19207 0.0
C381 C 0.97572 0.3286 0.21673 0.0
C382 C 0.96132 0.33485 0.23304 0.0
C383 C 0.94186 0.34032 0.22538 0.0
C384 C 0.92829 0.3454 0.2462 0.0
C385 C 0.93317 0.37403 0.24549 0.0
C386 C 0.89829 0.32482 0.24675 0.0
C387 C 0.94279 0.34155 0.26694 0.0
C388 C 0.96196 0.33571 0.25918 0.0
C389 C 0.97745 0.33093 0.27546 0.0
C390 C 0.97303 0.33201 0.30023 0.0
C391 C 0.95315 0.33758 0.30834 0.0
C392 C 0.93808 0.34256 0.29138 0.0
H393 H 0.56587 0.90632 0.70096 0.0
H394 H 0.64524 0.97083 0.68406 0.0
H395 H 0.65359 0.98179 0.72745 0.0
H396 H 0.55212 0.93965 0.7487 0.0
H397 H 0.5341 0.90973 0.7663 0.0
H398 H 0.5346 0.90767 0.73404 0.0
H399 H 0.55291 0.87509 0.73735 0.0
H400 H 0.55237 0.87698 0.7696 0.0
H401 H 0.58289 0.8848 0.75435 0.0
H402 H 0.65307 0.9845 0.77358 0.0
H403 H 0.64386 0.97828 0.81738 0.0
H404 H 0.56467 0.9123 0.80243 0.0
C405 C 0.58503 0.92281 0.70631 0.0
C406 C 0.60494 0.93772 0.68918 0.0
C407 C 0.62971 0.95915 0.69694 0.0
C408 C 0.6346 0.96552 0.72152 0.0
C409 C 0.61444 0.95033 0.73797 0.0
C410 C 0.59015 0.92943 0.73058 0.0
C411 C 0.57181 0.9158 0.75158 0.0
C412 C 0.54668 0.91838 0.75006 0.0
C413 C 0.56459 0.88644 0.75332 0.0
C414 C 0.58958 0.93206 0.77208 0.0
C415 C 0.61409 0.95198 0.76402 0.0
C416 C 0.63388 0.96904 0.78002 0.0
C417 C 0.62849 0.96541 0.80483 0.0
C418 C 0.60355 0.94488 0.81328 0.0
C419 C 0.5839 0.92827 0.79657 0.0
H420 H 0.70524 0.63103 0.30052 0.0
H421 H 0.63217 0.63018 0.31925 0.0
H422 H 0.62465 0.63542 0.27627 0.0
H423 H 0.72447 0.67889 0.24891 0.0
H424 H 0.73722 0.66107 0.23211 0.0
H425 H 0.73892 0.66188 0.26447 0.0
H426 H 0.71371 0.61026 0.26541 0.0
H427 H 0.71178 0.60927 0.23318 0.0
H428 H 0.68174 0.59197 0.25079 0.0
H429 H 0.62148 0.63293 0.23088 0.0
H430 H 0.62394 0.62495 0.18749 0.0
H431 H 0.69991 0.629 0.19893 0.0
C432 C 0.68806 0.63274 0.29567 0.0
C433 C 0.66932 0.63031 0.31317 0.0
C434 C 0.6469 0.63228 0.30612 0.0
C435 C 0.64248 0.63523 0.28175 0.0
C436 C 0.66092 0.63664 0.26481 0.0
C437 C 0.6835 0.63588 0.27155 0.0
C438 C 0.69908 0.63541 0.24992 0.0
C439 C 0.72655 0.66083 0.24879 0.0
C440 C 0.7017 0.61023 0.24983 0.0
C441 C 0.68116 0.63478 0.22988 0.0
C442 C 0.65937 0.6358 0.23875 0.0
C443 C 0.63877 0.6328 0.22371 0.0
C444 C 0.6403 0.62822 0.19911 0.0
C445 C 0.66227 0.62671 0.18984 0.0
C446 C 0.68318 0.63068 0.2054 0.0
H447 H 0.08897 0.67681 0.70512 0.0
H448 H 0.00499 0.64366 0.68899 0.0
H449 H 0.9954 0.64224 0.73265 0.0
H450 H 0.08079 0.63817 0.75741 0.0
H451 H 0.10867 0.66492 0.77289 0.0
H452 H 0.10843 0.66355 0.74057 0.0
H453 H 0.1152 0.71125 0.7386 0.0
H454 H 0.11544 0.71276 0.77092 0.0
H455 H 0.09218 0.71845 0.75407 0.0
H456 H 0.99569 0.64454 0.7788 0.0
H457 H 0.00566 0.64966 0.82247 0.0
H458 H 0.08947 0.68104 0.80672 0.0
C459 C 0.06851 0.66926 0.71068 0.0
C460 C 0.04769 0.66035 0.69371 0.0
C461 C 0.02122 0.6506 0.70176 0.0
C462 C 0.01563 0.64975 0.72647 0.0
C463 C 0.03676 0.65873 0.74274 0.0
C464 C 0.06265 0.66828 0.73506 0.0
C465 C 0.08192 0.67656 0.75586 0.0
C466 C 0.09576 0.65979 0.75673 0.0
C467 C 0.10239 0.70653 0.75479 0.0
C468 C 0.06289 0.67011 0.7766 0.0
C469 C 0.03691 0.65993 0.76882 0.0
C470 C 0.01598 0.65251 0.78503 0.0
C471 C 0.02181 0.6555 0.80976 0.0
C472 C 0.04832 0.66572 0.81793 0.0
C473 C 0.069 0.67314 0.80104 0.0
H474 H 0.91012 0.60891 0.19774 0.0
H475 H 0.98142 0.60556 0.18068 0.0
H476 H 0.99514 0.61416 0.22342 0.0
H477 H 0.93855 0.6595 0.24634 0.0
H478 H 0.90842 0.64254 0.26388 0.0
H479 H 0.90675 0.64071 0.23155 0.0
H480 H 0.88132 0.58913 0.23389 0.0
H481 H 0.88299 0.59079 0.26613 0.0
H482 H 0.89592 0.57265 0.2501 0.0
H483 H 0.99871 0.61891 0.26887 0.0
H484 H 0.99038 0.61658 0.31274 0.0
H485 H 0.91561 0.61448 0.29942 0.0
C486 C 0.92902 0.61076 0.20286 0.0
C487 C 0.94492 0.60695 0.18591 0.0
C488 C 0.9691 0.6087 0.1934 0.0
C489 C 0.97706 0.61364 0.2176 0.0
C490 C 0.96056 0.61667 0.23402 0.0
C491 C 0.937 0.61526 0.2269 0.0
C492 C 0.92127 0.61614 0.24822 0.0
C493 C 0.9186 0.64122 0.24744 0.0
C494 C 0.89376 0.59067 0.24966 0.0
C495 C 0.93924 0.61755 0.26853 0.0
C496 C 0.96209 0.6184 0.26006 0.0
C497 C 0.98102 0.61854 0.27567 0.0
C498 C 0.97618 0.61726 0.30054 0.0
C499 C 0.95239 0.61537 0.3094 0.0
C500 C 0.93403 0.61602 0.29314 0.0
H501 H 0.34541 0.92144 0.80118 0.0
H502 H 0.32696 0.98414 0.81481 0.0
H503 H 0.3275 0.99198 0.7709 0.0
H504 H 0.38958 0.95271 0.75025 0.0
H505 H 0.37785 0.92142 0.7349 0.0
H506 H 0.37769 0.92239 0.76724 0.0
H507 H 0.32717 0.88762 0.76741 0.0
H508 H 0.32716 0.88658 0.73511 0.0
H509 H 0.30453 0.89429 0.75062 0.0
H510 H 0.32772 0.99069 0.72461 0.0
H511 H 0.32749 0.98035 0.68127 0.0
H512 H 0.34578 0.91853 0.69965 0.0
C513 C 0.34175 0.93705 0.79502 0.0
C514 C 0.33617 0.95222 0.81138 0.0
C515 C 0.33138 0.97235 0.80254 0.0
C516 C 0.33166 0.97693 0.77766 0.0
C517 C 0.33692 0.96129 0.76198 0.0
C518 C 0.34199 0.94184 0.77045 0.0
C519 C 0.34609 0.92692 0.75019 0.0
C520 C 0.37449 0.93112 0.75068 0.0
C521 C 0.32498 0.8971 0.75088 0.0
C522 C 0.3421 0.94062 0.72886 0.0
C523 C 0.337 0.96053 0.73586 0.0
C524 C 0.3319 0.97527 0.71899 0.0
C525 C 0.33181 0.96929 0.69445 0.0
C526 C 0.33665 0.94868 0.68712 0.0
C527 C 0.34209 0.93447 0.70464 0.0
H528 H 0.40587 0.3105 0.29905 0.0
H529 H 0.36645 0.35546 0.3157 0.0
H530 H 0.35588 0.35544 0.27253 0.0
H531 H 0.43721 0.34506 0.24697 0.0
H532 H 0.43386 0.31644 0.23109 0.0
H533 H 0.43528 0.31733 0.26337 0.0
H534 H 0.39029 0.27288 0.26527 0.0
H535 H 0.38875 0.27182 0.23292 0.0
H536 H 0.36156 0.27017 0.25005 0.0
H537 H 0.35241 0.35278 0.22679 0.0
H538 H 0.35821 0.34954 0.18298 0.0
H539 H 0.4012 0.30763 0.19744 0.0
C540 C 0.39458 0.31995 0.29372 0.0
C541 C 0.3868 0.33284 0.31068 0.0
C542 C 0.37246 0.34535 0.30294 0.0
C543 C 0.36632 0.34536 0.2785 0.0
C544 C 0.37468 0.33277 0.26216 0.0
C545 C 0.38851 0.3203 0.26953 0.0
C546 C 0.3971 0.30994 0.24846 0.0
C547 C 0.42767 0.32299 0.24742 0.0
C548 C 0.38361 0.27939 0.24923 0.0
C549 C 0.38654 0.31906 0.22797 0.0
C550 C 0.37327 0.33181 0.23612 0.0
C551 C 0.36258 0.34265 0.22024 0.0
C552 C 0.36593 0.3407 0.19544 0.0
C553 C 0.38017 0.32839 0.18692 0.0
C554 C 0.39021 0.31716 0.20345 0.0
H555 H 0.08997 0.3944 0.69994 0.0
H556 H 0.01285 0.38541 0.68291 0.0
H557 H 0.00201 0.38159 0.72636 0.0
H558 H 0.06754 0.34834 0.75176 0.0
H559 H 0.09809 0.36874 0.76794 0.0
H560 H 0.09827 0.36796 0.73557 0.0
H561 H 0.11983 0.41937 0.73453 0.0
H562 H 0.11961 0.4203 0.76681 0.0
H563 H 0.10363 0.43487 0.74979 0.0
H564 H 0.00216 0.38402 0.77218 0.0
H565 H 0.01253 0.39052 0.81572 0.0
H566 H 0.08895 0.39639 0.80173 0.0
C567 C 0.07059 0.39115 0.7053 0.0
C568 C 0.05222 0.39019 0.68813 0.0
C569 C 0.02712 0.38603 0.69583 0.0
C570 C 0.02083 0.38387 0.72044 0.0
C571 C 0.03971 0.3855 0.73699 0.0
C572 C 0.06394 0.3887 0.72965 0.0
C573 C 0.08138 0.39115 0.75081 0.0
C574 C 0.08662 0.36764 0.75156 0.0
C575 C 0.10765 0.41802 0.75045 0.0
C576 C 0.06359 0.38975 0.7713 0.0
C577 C 0.03955 0.38632 0.76308 0.0
C578 C 0.02073 0.38625 0.7788 0.0
C579 C 0.02679 0.38999 0.80347 0.0
C580 C 0.05143 0.39374 0.81209 0.0
C581 C 0.06978 0.3932 0.79574 0.0
H582 H 0.67776 0.09435 0.30702 0.0
H583 H 0.66552 0.01645 0.32605 0.0
H584 H 0.66169 0.00462 0.28279 0.0
H585 H 0.63107 0.07256 0.25871 0.0
H586 H 0.65102 0.10177 0.24072 0.0
H587 H 0.65336 0.10389 0.27298 0.0
H588 H 0.7044 0.12279 0.27033 0.0
H589 H 0.70224 0.12076 0.23806 0.0
H590 H 0.71699 0.1044 0.2542 0.0
H591 H 0.65942 0.00192 0.23675 0.0
H592 H 0.65811 0.00829 0.19279 0.0
H593 H 0.67089 0.0877 0.20544 0.0
C594 C 0.6744 0.07481 0.30216 0.0
C595 C 0.67206 0.05633 0.31984 0.0
C596 C 0.66743 0.03091 0.31272 0.0
C597 C 0.66524 0.02405 0.28823 0.0
C598 C 0.66759 0.04281 0.27123 0.0
C599 C 0.672 0.06765 0.27798 0.0
C600 C 0.67336 0.0842 0.25651 0.0
C601 C 0.65086 0.09099 0.25728 0.0
C602 C 0.70089 0.10953 0.25467 0.0
C603 C 0.6691 0.06489 0.23648 0.0
C604 C 0.66587 0.04113 0.24519 0.0
C605 C 0.66187 0.02044 0.22978 0.0
C606 C 0.66116 0.02422 0.20488 0.0
C607 C 0.66432 0.04844 0.19575 0.0
C608 C 0.6683 0.06891 0.21186 0.0
H609 H 0.56598 0.65301 0.70221 0.0
H610 H 0.64696 0.67244 0.68584 0.0
H611 H 0.65697 0.67548 0.7294 0.0
H612 H 0.58211 0.69722 0.75232 0.0
H613 H 0.55272 0.67472 0.76907 0.0
H614 H 0.55215 0.67379 0.73673 0.0
H615 H 0.53716 0.6235 0.73777 0.0
H616 H 0.53773 0.62428 0.77012 0.0
H617 H 0.5569 0.61258 0.75401 0.0
H618 H 0.65768 0.67606 0.77518 0.0
H619 H 0.64939 0.67541 0.81893 0.0
H620 H 0.5681 0.65618 0.80437 0.0
C621 C 0.58583 0.65788 0.70775 0.0
C622 C 0.6057 0.66244 0.69069 0.0
C623 C 0.63146 0.66887 0.69866 0.0
C624 C 0.6373 0.6706 0.72333 0.0
C625 C 0.61717 0.66591 0.7397 0.0
C626 C 0.59199 0.65978 0.73218 0.0
C627 C 0.57391 0.65595 0.75323 0.0
C628 C 0.56469 0.67666 0.75281 0.0
C629 C 0.55002 0.62738 0.75381 0.0
C630 C 0.59281 0.6609 0.77385 0.0
C631 C 0.61765 0.66652 0.76577 0.0
C632 C 0.6383 0.6717 0.78168 0.0
C633 C 0.63341 0.67126 0.80647 0.0
C634 C 0.60813 0.66578 0.815 0.0
C635 C 0.58765 0.66047 0.7984 0.0
H636 H 0.43795 0.17069 0.11084 0.0
H637 H 0.35381 0.11314 0.10217 0.0
H638 H 0.34403 0.14964 0.09808 0.0
H639 H 0.42887 0.21594 0.14681 0.0
H640 H 0.45603 0.24565 0.13388 0.0
H641 H 0.45711 0.21514 0.13413 0.0
H642 H 0.46361 0.21805 0.08794 0.0
H643 H 0.4626 0.24862 0.08756 0.0
H644 H 0.43991 0.22097 0.06906 0.0
H645 H 0.34252 0.19134 0.09747 0.0
H646 H 0.34938 0.23671 0.10047 0.0
H647 H 0.43442 0.26831 0.1096 0.0
C648 C 0.41757 0.16587 0.10772 0.0
C649 C 0.39664 0.13911 0.10675 0.0
C650 C 0.37015 0.1335 0.10299 0.0
C651 C 0.36438 0.15409 0.10056 0.0
C652 C 0.38532 0.18021 0.10193 0.0
C653 C 0.41139 0.18628 0.10538 0.0
C654 C 0.42984 0.21616 0.1074 0.0
C655 C 0.44378 0.22365 0.13202 0.0
C656 C 0.45019 0.22656 0.08676 0.0
C657 C 0.40993 0.22578 0.10494 0.0
C658 C 0.38442 0.20463 0.10163 0.0
C659 C 0.36242 0.20813 0.09984 0.0
C660 C 0.36652 0.23397 0.10163 0.0
C661 C 0.39242 0.256 0.10519 0.0
C662 C 0.41444 0.25184 0.10663 0.0
H663 H 0.17038 0.43116 0.61321 0.0
H664 H 0.11032 0.3473 0.61024 0.0
H665 H 0.14575 0.33545 0.60978 0.0
H666 H 0.21833 0.42715 0.57404 0.0
H667 H 0.24674 0.45115 0.59104 0.0
H668 H 0.21666 0.45307 0.5905 0.0
H669 H 0.21487 0.45128 0.63704 0.0
H670 H 0.24489 0.44927 0.63772 0.0
H671 H 0.21518 0.42405 0.65238 0.0
H672 H 0.18737 0.33261 0.61092 0.0
H673 H 0.23275 0.33897 0.61274 0.0
H674 H 0.26588 0.4247 0.61467 0.0
C675 C 0.16471 0.41032 0.6123 0.0
C676 C 0.13764 0.39012 0.61173 0.0
C677 C 0.13096 0.36307 0.61065 0.0
C678 C 0.15092 0.35615 0.61039 0.0
C679 C 0.17741 0.37652 0.61116 0.0
C680 C 0.18438 0.40305 0.61201 0.0
C681 C 0.21435 0.42102 0.61305 0.0
C682 C 0.22462 0.43916 0.59083 0.0
C683 C 0.22281 0.43736 0.63644 0.0
C684 C 0.22312 0.40042 0.61279 0.0
C685 C 0.20149 0.37488 0.61169 0.0
C686 C 0.20449 0.35251 0.61167 0.0
C687 C 0.23033 0.35633 0.61275 0.0
C688 C 0.25279 0.38232 0.6138 0.0
C689 C 0.24907 0.40461 0.61378 0.0
H690 H 0.83065 0.25487 0.10716 0.0
H691 H 0.8864 0.22786 0.12421 0.0
H692 H 0.84906 0.18141 0.12603 0.0
H693 H 0.77856 0.20997 0.14634 0.0
H694 H 0.75207 0.20482 0.12615 0.0
H695 H 0.78326 0.23576 0.12549 0.0
H696 H 0.78801 0.22926 0.08004 0.0
H697 H 0.75684 0.19827 0.08056 0.0
H698 H 0.78658 0.19906 0.06982 0.0
H699 H 0.80576 0.1382 0.12638 0.0
H700 H 0.75929 0.10107 0.12625 0.0
H701 H 0.73167 0.15638 0.10942 0.0
C702 C 0.83502 0.23917 0.11118 0.0
C703 C 0.86139 0.24488 0.11549 0.0
C704 C 0.86632 0.22386 0.12084 0.0
C705 C 0.84527 0.19745 0.12187 0.0
C706 C 0.81948 0.1925 0.11756 0.0
C707 C 0.81426 0.21276 0.11238 0.0
C708 C 0.7847 0.20216 0.10898 0.0
C709 C 0.77403 0.21387 0.12787 0.0
C710 C 0.77869 0.20751 0.08332 0.0
C711 C 0.77406 0.17275 0.11315 0.0
C712 C 0.79448 0.16761 0.11796 0.0
C713 C 0.78961 0.14197 0.1226 0.0
C714 C 0.76316 0.12103 0.12247 0.0
C715 C 0.7419 0.12587 0.1178 0.0
C716 C 0.74751 0.15208 0.11298 0.0
H717 H 0.61487 0.75065 0.62322 0.0
H718 H 0.53659 0.69817 0.59297 0.0
H719 H 0.52867 0.73608 0.58957 0.0
H720 H 0.59594 0.78992 0.65857 0.0
H721 H 0.62643 0.82086 0.65345 0.0
H722 H 0.62652 0.78985 0.65272 0.0
H723 H 0.64681 0.80077 0.60991 0.0
H724 H 0.64686 0.83187 0.61053 0.0
H725 H 0.63018 0.80846 0.58652 0.0
H726 H 0.5286 0.77892 0.59037 0.0
H727 H 0.5365 0.82458 0.59493 0.0
H728 H 0.61481 0.8497 0.6248 0.0
C729 C 0.59616 0.74721 0.61571 0.0
C730 C 0.57634 0.72152 0.6083 0.0
C731 C 0.55204 0.71772 0.59872 0.0
C732 C 0.54736 0.73911 0.59672 0.0
C733 C 0.56718 0.76414 0.60436 0.0
C734 C 0.59112 0.76836 0.61362 0.0
C735 C 0.60884 0.79721 0.62091 0.0
C736 C 0.61477 0.79959 0.64802 0.0
C737 C 0.6347 0.81035 0.60608 0.0
C738 C 0.59101 0.80846 0.61445 0.0
C739 C 0.56712 0.789 0.60488 0.0
C740 C 0.54726 0.79437 0.59776 0.0
C741 C 0.55194 0.82036 0.60045 0.0
C742 C 0.57627 0.84066 0.6102 0.0
C743 C 0.59604 0.83458 0.61727 0.0
H744 H 0.75205 0.61553 0.12198 0.0
H745 H 0.6923 0.53166 0.12608 0.0
H746 H 0.72791 0.51999 0.12546 0.0
H747 H 0.79632 0.60855 0.08181 0.0
H748 H 0.82618 0.63397 0.09613 0.0
H749 H 0.79604 0.63574 0.09729 0.0
H750 H 0.79859 0.63777 0.1438 0.0
H751 H 0.82879 0.63609 0.14278 0.0
H752 H 0.80074 0.61205 0.16011 0.0
H753 H 0.76986 0.51748 0.1235 0.0
H754 H 0.81539 0.52422 0.12139 0.0
H755 H 0.84785 0.60983 0.11903 0.0
C756 C 0.74646 0.59471 0.12282 0.0
C757 C 0.71944 0.57447 0.12406 0.0
C758 C 0.7129 0.54747 0.12515 0.0
C759 C 0.73297 0.54066 0.12479 0.0
C760 C 0.75942 0.5611 0.12343 0.0
C761 C 0.76622 0.58758 0.12257 0.0
C762 C 0.79615 0.60571 0.12113 0.0
C763 C 0.80413 0.62194 0.0977 0.0
C764 C 0.80668 0.62398 0.14328 0.0
C765 C 0.80513 0.58527 0.12117 0.0
C766 C 0.78362 0.55967 0.12248 0.0
C767 C 0.78686 0.53743 0.12254 0.0
C768 C 0.81279 0.54147 0.1213 0.0
C769 C 0.83512 0.56754 0.12007 0.0
C770 C 0.83116 0.58968 0.11999 0.0
H771 H 0.2617 0.83001 0.61559 0.0
H772 H 0.23395 0.88686 0.62134 0.0
H773 H 0.1873 0.84985 0.62035 0.0
H774 H 0.21108 0.78514 0.57477 0.0
H775 H 0.20818 0.7556 0.5884 0.0
H776 H 0.23937 0.78653 0.58969 0.0
H777 H 0.23949 0.78326 0.63614 0.0
H778 H 0.20838 0.75225 0.63499 0.0
H779 H 0.21116 0.77941 0.65295 0.0
H780 H 0.14387 0.80674 0.61899 0.0
H781 H 0.10648 0.76036 0.61815 0.0
H782 H 0.16272 0.73177 0.61278 0.0
C783 C 0.24581 0.83467 0.61671 0.0
C784 C 0.25137 0.86126 0.61857 0.0
C785 C 0.23008 0.86659 0.61994 0.0
C786 C 0.20356 0.84574 0.61934 0.0
C787 C 0.19876 0.81974 0.61734 0.0
C788 C 0.21927 0.81413 0.61609 0.0
C789 C 0.20873 0.78447 0.61413 0.0
C790 C 0.21735 0.77754 0.59033 0.0
C791 C 0.21746 0.77425 0.63585 0.0
C792 C 0.17906 0.77424 0.61454 0.0
C793 C 0.17373 0.79491 0.61637 0.0
C794 C 0.14778 0.7904 0.61749 0.0
C795 C 0.1267 0.76401 0.61698 0.0
C796 C 0.13175 0.74254 0.61532 0.0
C797 C 0.15827 0.74781 0.61388 0.0
H798 H 0.83631 0.57178 0.38757 0.0
H799 H 0.89448 0.6561 0.39206 0.0
H800 H 0.85801 0.66651 0.39332 0.0
H801 H 0.79127 0.57806 0.34891 0.0
H802 H 0.76172 0.55188 0.36297 0.0
H803 H 0.79233 0.551 0.36382 0.0
H804 H 0.78983 0.5481 0.41031 0.0
H805 H 0.75912 0.54886 0.40961 0.0
H806 H 0.78685 0.57305 0.42717 0.0
H807 H 0.81517 0.66776 0.39217 0.0
H808 H 0.76907 0.65963 0.38937 0.0
H809 H 0.73921 0.57452 0.38573 0.0
C810 C 0.84137 0.59241 0.38908 0.0
C811 C 0.86819 0.61315 0.38978 0.0
C812 C 0.87404 0.63991 0.39156 0.0
C813 C 0.85347 0.64602 0.39229 0.0
C814 C 0.82723 0.62512 0.39129 0.0
C815 C 0.82113 0.59885 0.38982 0.0
C816 C 0.79134 0.58015 0.38829 0.0
C817 C 0.78373 0.56435 0.36459 0.0
C818 C 0.78119 0.56144 0.41015 0.0
C819 C 0.78164 0.60001 0.38885 0.0
C820 C 0.80262 0.62584 0.39065 0.0
C821 C 0.79857 0.64761 0.39091 0.0
C822 C 0.77236 0.64281 0.38927 0.0
C823 C 0.75062 0.61647 0.38738 0.0
C824 C 0.75543 0.59488 0.38726 0.0
H825 H 0.16093 0.74011 0.89627 0.0
H826 H 0.10563 0.76928 0.88645 0.0
H827 H 0.14361 0.81528 0.88305 0.0
H828 H 0.20937 0.79563 0.93187 0.0
H829 H 0.2375 0.79531 0.91838 0.0
H830 H 0.20593 0.76489 0.92062 0.0
H831 H 0.20635 0.75793 0.87465 0.0
H832 H 0.23784 0.78839 0.87224 0.0
H833 H 0.20984 0.78381 0.85447 0.0
H834 H 0.1876 0.85776 0.87954 0.0
H835 H 0.23442 0.89406 0.87752 0.0
H836 H 0.26098 0.83705 0.88987 0.0
C837 C 0.15679 0.75619 0.89358 0.0
C838 C 0.13036 0.75119 0.89165 0.0
C839 C 0.12575 0.77272 0.88804 0.0
C840 C 0.14718 0.79887 0.88605 0.0
C841 C 0.17301 0.80308 0.88778 0.0
C842 C 0.1779 0.78236 0.89159 0.0
C843 C 0.20752 0.79218 0.89257 0.0
C844 C 0.21555 0.78668 0.91734 0.0
C845 C 0.21587 0.77984 0.87227 0.0
C846 C 0.21858 0.82169 0.8886 0.0
C847 C 0.19834 0.82755 0.88585 0.0
C848 C 0.2036 0.85342 0.88175 0.0
C849 C 0.23026 0.87388 0.88058 0.0
C850 C 0.25132 0.86836 0.88354 0.0
C851 C 0.24531 0.84188 0.88755 0.0
H852 H 0.38191 0.14455 0.37802 0.0
H853 H 0.43892 0.16129 0.43541 0.0
H854 H 0.44115 0.20423 0.44299 0.0
H855 H 0.41277 0.20836 0.35439 0.0
H856 H 0.38268 0.20876 0.34699 0.0
H857 H 0.38243 0.17763 0.34814 0.0
H858 H 0.34387 0.15943 0.3791 0.0
H859 H 0.34389 0.19052 0.37794 0.0
H860 H 0.34767 0.17784 0.40635 0.0
H861 H 0.44168 0.24707 0.44122 0.0
H862 H 0.43954 0.2873 0.43078 0.0
H863 H 0.38177 0.24321 0.37493 0.0
C864 C 0.39432 0.15699 0.39256 0.0
C865 C 0.41016 0.14962 0.40621 0.0
C866 C 0.42658 0.16658 0.42478 0.0
C867 C 0.42792 0.19095 0.42929 0.0
C868 C 0.4126 0.19799 0.41515 0.0
C869 C 0.39595 0.18148 0.39728 0.0
C870 C 0.38326 0.19482 0.38348 0.0
C871 C 0.39075 0.19756 0.35667 0.0
C872 C 0.35287 0.17975 0.38693 0.0
C873 C 0.39613 0.22169 0.39587 0.0
C874 C 0.41277 0.22294 0.41424 0.0
C875 C 0.42837 0.24624 0.42717 0.0
C876 C 0.42711 0.26899 0.42105 0.0
C877 C 0.41036 0.26823 0.40219 0.0
C878 C 0.3944 0.24417 0.3897 0.0
H879 H 0.23885 0.38182 0.89105 0.0
H880 H 0.29598 0.46444 0.87482 0.0
H881 H 0.2595 0.47465 0.87315 0.0
H882 H 0.18646 0.37609 0.85279 0.0
H883 H 0.16002 0.35552 0.87334 0.0
H884 H 0.19062 0.35455 0.87352 0.0
H885 H 0.19655 0.36613 0.91891 0.0
H886 H 0.16594 0.36709 0.91887 0.0
H887 H 0.19637 0.39553 0.92921 0.0
H888 H 0.2173 0.47586 0.87213 0.0
H889 H 0.17152 0.46837 0.87309 0.0
H890 H 0.14135 0.3852 0.89094 0.0
C891 C 0.24363 0.40205 0.88719 0.0
C892 C 0.2702 0.42235 0.88303 0.0
C893 C 0.27575 0.4486 0.87811 0.0
C894 C 0.25519 0.4546 0.87709 0.0
C895 C 0.22922 0.43416 0.88119 0.0
C896 C 0.22333 0.40845 0.88628 0.0
C897 C 0.19365 0.39028 0.89008 0.0
C898 C 0.18201 0.36779 0.87131 0.0
C899 C 0.18779 0.3791 0.9158 0.0
C900 C 0.18383 0.40979 0.88612 0.0
C901 C 0.20472 0.43496 0.88098 0.0
C902 C 0.20075 0.45629 0.87624 0.0
C903 C 0.17468 0.45181 0.8768 0.0
C904 C 0.15294 0.42623 0.88215 0.0
C905 C 0.15762 0.40499 0.88692 0.0
H906 H 0.76866 0.14452 0.37477 0.0
H907 H 0.73464 0.15592 0.44009 0.0
H908 H 0.77508 0.19968 0.44612 0.0
H909 H 0.83868 0.17838 0.39522 0.0
H910 H 0.85128 0.19304 0.36618 0.0
H911 H 0.82089 0.16141 0.36836 0.0
H912 H 0.79611 0.18039 0.34383 0.0
H913 H 0.82633 0.21209 0.34171 0.0
H914 H 0.79667 0.21016 0.35412 0.0
H915 H 0.81728 0.24333 0.44345 0.0
H916 H 0.85896 0.28415 0.43247 0.0
H917 H 0.8655 0.24482 0.36857 0.0
C918 C 0.77 0.156 0.3906 0.0
C919 C 0.74866 0.14682 0.40707 0.0
C920 C 0.75085 0.16258 0.42732 0.0
C921 C 0.77373 0.18742 0.43091 0.0
C922 C 0.7942 0.19617 0.41408 0.0
C923 C 0.79264 0.18094 0.39437 0.0
C924 C 0.81672 0.19574 0.37819 0.0
C925 C 0.83285 0.18128 0.37692 0.0
C926 C 0.80845 0.19983 0.35298 0.0
C927 C 0.83178 0.22184 0.39166 0.0
C928 C 0.81854 0.22157 0.41241 0.0
C929 C 0.82799 0.24372 0.42738 0.0
C930 C 0.85162 0.26682 0.42096 0.0
C931 C 0.86545 0.2676 0.39971 0.0
C932 C 0.85543 0.24473 0.38499 0.0
H933 H 0.5637 0.73318 0.89225 0.0
H934 H 0.6487 0.76373 0.88431 0.0
H935 H 0.6563 0.80954 0.88226 0.0
H936 H 0.5594 0.77898 0.8518 0.0
H937 H 0.53534 0.78249 0.86961 0.0
H938 H 0.53647 0.75202 0.87081 0.0
H939 H 0.54236 0.75664 0.91704 0.0
H940 H 0.54117 0.78708 0.91599 0.0
H941 H 0.56924 0.78681 0.92964 0.0
H942 H 0.65472 0.85162 0.88024 0.0
H943 H 0.64432 0.88795 0.87957 0.0
H944 H 0.56032 0.83046 0.88927 0.0
C945 C 0.58392 0.74953 0.89017 0.0
C946 C 0.60564 0.74495 0.88843 0.0
C947 C 0.63179 0.76682 0.8857 0.0
C948 C 0.6363 0.79289 0.88449 0.0
C949 C 0.61446 0.79672 0.88611 0.0
C950 C 0.5888 0.77571 0.88899 0.0
C951 C 0.56888 0.78538 0.89025 0.0
C952 C 0.54884 0.77404 0.86937 0.0
C953 C 0.55458 0.77858 0.91469 0.0
C954 C 0.58738 0.81511 0.88753 0.0
C955 C 0.61357 0.82115 0.88513 0.0
C956 C 0.63432 0.84718 0.88217 0.0
C957 C 0.62818 0.86766 0.88177 0.0
C958 C 0.60151 0.862 0.88438 0.0
C959 C 0.58087 0.83536 0.88726 0.0
H960 H 0.35993 0.0044 0.94117 0.0
H961 H 0.2952 0.92746 0.96369 0.0
H962 H 0.29916 0.94428 0.00511 0.0
H963 H 0.39935 0.01458 0.99136 0.0
H964 H 0.41246 0.05001 0.99352 0.0
H965 H 0.40186 0.03362 0.96489 0.0
H966 H 0.36966 0.05212 0.9597 0.0
H967 H 0.38035 0.0688 0.98829 0.0
H968 H 0.34546 0.04615 0.98278 0.0
H969 H 0.31287 0.9677 0.04459 0.0
H970 H 0.33589 0.99611 0.07966 0.0
H971 H 0.39286 0.05741 0.03197 0.0
C972 C 0.34608 0.99143 0.9547 0.0
C973 C 0.32702 0.96478 0.94927 0.0
C974 C 0.30979 0.94803 0.96753 0.0
C975 C 0.31185 0.95741 0.99107 0.0
C976 C 0.33134 0.98356 0.99607 0.0
C977 C 0.34815 0.0004 0.97842 0.0
C978 C 0.36909 0.0267 0.98906 0.0
C979 C 0.39735 0.03149 0.98443 0.0
C980 C 0.36594 0.04981 0.97938 0.0
C981 C 0.36183 0.02174 0.01545 0.0
C982 C 0.33976 0.99689 0.01905 0.0
C983 C 0.32999 0.98734 0.04199 0.0
C984 C 0.34322 0.00357 0.06179 0.0
C985 C 0.3661 0.02894 0.05852 0.0
C986 C 0.37531 0.03816 0.03501 0.0
H987 H 0.3952 0.33828 0.46562 0.0
H988 H 0.34057 0.34662 0.41794 0.0
H989 H 0.31635 0.34997 0.4532 0.0
H990 H 0.34531 0.29856 0.5119 0.0
H991 H 0.36867 0.31445 0.53612 0.0
H992 H 0.3803 0.31063 0.50716 0.0
H993 H 0.41327 0.3615 0.50537 0.0
H994 H 0.40183 0.36546 0.53429 0.0
H995 H 0.40076 0.38421 0.50891 0.0
H996 H 0.30179 0.3578 0.49327 0.0
H997 H 0.2968 0.36799 0.53543 0.0
H998 H 0.35899 0.35154 0.55713 0.0
C999 C 0.37796 0.34054 0.4626 0.0
C1000 C 0.36975 0.34232 0.43913 0.0
C1001 C 0.3471 0.34519 0.43583 0.0
C1002 C 0.33322 0.34703 0.45572 0.0
C1003 C 0.34201 0.34545 0.47867 0.0
C1004 C 0.36368 0.34199 0.4822 0.0
C1005 C 0.36976 0.342 0.50865 0.0
C1006 C 0.36576 0.31479 0.51641 0.0
C1007 C 0.39807 0.36464 0.51465 0.0
C1008 C 0.34871 0.34699 0.51949 0.0
C1009 C 0.33282 0.3488 0.50187 0.0
C1010 C 0.31367 0.35582 0.50726 0.0
C1011 C 0.31101 0.36161 0.53119 0.0
C1012 C 0.32721 0.36005 0.54941 0.0
C1013 C 0.34585 0.35207 0.54357 0.0
H1014 H 0.05525 0.40111 0.9678 0.0
H1015 H 0.00485 0.33512 0.92078 0.0
H1016 H 0.97616 0.31078 0.95542 0.0
H1017 H 0.04978 0.36086 0.02104 0.0
H1018 H 0.04931 0.38477 0.04146 0.0
H1019 H 0.06715 0.39577 0.01343 0.0
H1020 H 0.04009 0.41881 0.00236 0.0
H1021 H 0.02215 0.40786 0.03027 0.0
H1022 H 0.00418 0.39958 0.00223 0.0
H1023 H 0.95075 0.29576 0.99425 0.0
H1024 H 0.93082 0.29065 0.03451 0.0
H1025 H 0.99845 0.36611 0.05638 0.0
C1026 C 0.03843 0.38135 0.96484 0.0
C1027 C 0.03226 0.36993 0.94163 0.0
C1028 C 0.00996 0.34415 0.93844 0.0
C1029 C 0.9936 0.33019 0.958 0.0
C1030 C 1e-05 0.34223 0.9806 0.0
C1031 C 0.022 0.36715 0.98413 0.0
C1032 C 0.02374 0.3763 0.00991 0.0
C1033 C 0.049 0.37961 0.02218 0.0
C1034 C 0.02245 0.40216 0.01125 0.0
C1035 C 0.99888 0.35292 0.02023 0.0
C1036 C 0.98556 0.33341 0.00307 0.0
C1037 C 0.9612 0.3107 0.00792 0.0
C1038 C 0.95003 0.30802 0.03081 0.0
C1039 C 0.96323 0.32789 0.04857 0.0
C1040 C 0.98816 0.3504 0.04327 0.0
H1041 H 0.64221 0.04308 0.46974 0.0
H1042 H 0.68982 0.01309 0.4366 0.0
H1043 H 0.68472 0.98659 0.47325 0.0
H1044 H 0.66776 0.04889 0.53003 0.0
H1045 H 0.63596 0.03877 0.54385 0.0
H1046 H 0.64408 0.0557 0.51532 0.0
H1047 H 0.60133 0.01675 0.49656 0.0
H1048 H 0.59299 -0.00018 0.52505 0.0
H1049 H 0.59571 0.98329 0.49866 0.0
H1050 H 0.67248 0.96196 0.51331 0.0
H1051 H 0.65353 0.94082 0.55256 0.0
H1052 H 0.6152 0.98847 0.55897 0.0
C1053 C 0.65163 0.03098 0.47014 0.0
C1054 C 0.66636 0.03004 0.45034 0.0
C1055 C 0.67842 0.01403 0.45161 0.0
C1056 C 0.6757 0.99901 0.47235 0.0
C1057 C 0.66105 0.00048 0.49162 0.0
C1058 C 0.64927 0.01612 0.49063 0.0
C1059 C 0.63407 0.01395 0.51339 0.0
C1060 C 0.6462 0.04093 0.52641 0.0
C1061 C 0.60426 0.00278 0.50809 0.0
C1062 C 0.63872 0.99427 0.5273 0.0
C1063 C 0.65442 0.98678 0.51457 0.0
C1064 C 0.66038 0.96789 0.52351 0.0
C1065 C 0.64959 0.95603 0.54582 0.0
C1066 C 0.63308 0.96316 0.55885 0.0
C1067 C 0.62803 0.98285 0.54957 0.0
H1068 H 0.6466 0.64918 0.06317 0.0
H1069 H 0.69257 0.61287 0.03995 0.0
H1070 H 0.69007 0.62518 0.99799 0.0
H1071 H 0.60161 0.62498 0.01648 0.0
H1072 H 0.59791 0.65389 0.01306 0.0
H1073 H 0.60731 0.64675 0.04169 0.0
H1074 H 0.64956 0.69357 0.04233 0.0
H1075 H 0.64015 0.70098 0.01372 0.0
H1076 H 0.67248 0.70404 0.0174 0.0
H1077 H 0.67796 0.63624 0.95834 0.0
H1078 H 0.65701 0.64534 0.92371 0.0
H1079 H 0.61793 0.67353 0.9724 0.0
C1080 C 0.6569 0.6447 0.04932 0.0
C1081 C 0.67008 0.63042 0.05475 0.0
C1082 C 0.68256 0.62401 0.03612 0.0
C1083 C 0.6813 0.63097 0.01226 0.0
C1084 C 0.66741 0.64428 0.00732 0.0
C1085 C 0.65552 0.65121 0.02532 0.0
C1086 C 0.63941 0.66288 0.0149 0.0
C1087 C 0.60982 0.64612 0.02195 0.0
C1088 C 0.65111 0.69211 0.02254 0.0
C1089 C 0.64344 0.66064 0.98828 0.0
C1090 C 0.65997 0.65023 0.9843 0.0
C1091 C 0.66532 0.6448 0.9612 0.0
C1092 C 0.65328 0.64995 0.94166 0.0
C1093 C 0.63596 0.66023 0.94538 0.0
C1094 C 0.63131 0.66593 0.96899 0.0
H1095 H 0.01287 0.61567 0.55225 0.0
H1096 H 0.03373 0.6983 0.56026 0.0
H1097 H 0.01625 0.69747 0.51949 0.0
H1098 H 0.02964 0.6182 0.49095 0.0
H1099 H 0.00201 0.5858 0.48362 0.0
H1100 H 0.01537 0.59263 0.51364 0.0
H1101 H 0.96866 0.57889 0.53088 0.0
H1102 H 0.95507 0.57165 0.50093 0.0
H1103 H 0.95076 0.59464 0.5196 0.0
H1104 H -0.00016 0.6884 0.4764 0.0
H1105 H 0.98008 0.67004 0.43654 0.0
H1106 H 0.96755 0.59272 0.45811 0.0
C1107 C 0.01344 0.63348 0.54553 0.0
C1108 C 0.02464 0.65706 0.55931 0.0
C1109 C 0.02505 0.67998 0.54998 0.0
C1110 C 0.01534 0.67974 0.52682 0.0
C1111 C 0.00494 0.6563 0.51344 0.0
C1112 C 0.00345 0.63344 0.52266 0.0
C1113 C 0.99104 0.61073 0.50481 0.0
C1114 C 0.01069 0.6013 0.49785 0.0
C1115 C 0.96482 0.58762 0.51464 0.0
C1116 C 0.98606 0.62444 0.48399 0.0
C1117 C 0.9945 0.65081 0.48917 0.0
C1118 C 0.99287 0.66771 0.47226 0.0
C1119 C 0.98182 0.65719 0.44966 0.0
C1120 C 0.97223 0.63 0.44441 0.0
C1121 C 0.97455 0.61355 0.46177 0.0
H1122 H 0.63491 0.99709 0.94451 0.0
H1123 H 0.6161 0.91729 0.96462 0.0
H1124 H 0.63182 0.93277 0.00588 0.0
H1125 H 0.69412 0.03414 0.98438 0.0
H1126 H 0.68528 0.05906 0.99159 0.0
H1127 H 0.67656 0.04278 0.96271 0.0
H1128 H 0.62704 0.02855 0.97019 0.0
H1129 H 0.63557 0.04463 0.99907 0.0
H1130 H 0.61065 0.00988 0.99687 0.0
H1131 H 0.64523 0.9555 0.04563 0.0
H1132 H 0.65418 0.98378 0.08156 0.0
H1133 H 0.6629 0.04856 0.0362 0.0
C1134 C 0.63487 0.98314 0.95746 0.0
C1135 C 0.62463 0.95611 0.95142 0.0
C1136 C 0.62403 0.93814 0.96895 0.0
C1137 C 0.63301 0.94676 0.99238 0.0
C1138 C 0.64239 0.97339 0.99801 0.0
C1139 C 0.64339 0.99136 0.98109 0.0
C1140 C 0.65175 0.01816 0.99247 0.0
C1141 C 0.67853 0.03982 0.98217 0.0
C1142 C 0.62995 0.02573 0.98947 0.0
C1143 C 0.65457 0.0122 0.01847 0.0
C1144 C 0.64951 0.9864 0.0212 0.0
C1145 C 0.64956 0.97586 0.0437 0.0
C1146 C 0.65462 0.99204 0.064 0.0
C1147 C 0.65929 0.01834 0.06165 0.0
C1148 C 0.65962 0.02859 0.03853 0.0
H1149 H 0.64025 0.64161 0.44126 0.0
H1150 H 0.69694 0.6181 0.46455 0.0
H1151 H 0.69292 0.62997 0.50633 0.0
H1152 H 0.65919 0.69679 0.48476 0.0
H1153 H 0.62511 0.68852 0.48943 0.0
H1154 H 0.63518 0.68179 0.46085 0.0
H1155 H 0.59827 0.63223 0.46411 0.0
H1156 H 0.58813 0.63879 0.49265 0.0
H1157 H 0.59716 0.61329 0.49021 0.0
H1158 H 0.68055 0.64118 0.54574 0.0
H1159 H 0.65854 0.64841 0.5806 0.0
H1160 H 0.60818 0.66264 0.53227 0.0
C1161 C 0.65226 0.63962 0.45512 0.0
C1162 C 0.66914 0.62927 0.44975 0.0
C1163 C 0.68399 0.62613 0.46836 0.0
C1164 C 0.68194 0.63293 0.4921 0.0
C1165 C 0.66477 0.64263 0.49696 0.0
C1166 C 0.65006 0.64586 0.47905 0.0
C1167 C 0.63111 0.65412 0.4895 0.0
C1168 C 0.63807 0.68197 0.4806 0.0
C1169 C 0.60195 0.63336 0.48378 0.0
C1170 C 0.63709 0.65446 0.51605 0.0
C1171 C 0.6569 0.64824 0.51991 0.0
C1172 C 0.66517 0.64631 0.54297 0.0
C1173 C 0.65256 0.65045 0.56265 0.0
C1174 C 0.63171 0.65611 0.55913 0.0
C1175 C 0.62419 0.6585 0.5355 0.0
H1176 H 0.9859 0.62887 0.06351 0.0
H1177 H 0.90714 0.60876 0.03841 0.0
H1178 H 0.92572 0.62705 0.9984 0.0
H1179 H 0.02437 0.69046 0.02759 0.0
H1180 H 0.0508 0.68338 0.02167 0.0
H1181 H 0.032 0.67207 0.0492 0.0
H1182 H 0.02033 0.62369 0.03951 0.0
H1183 H 0.03897 0.63481 0.01197 0.0
H1184 H 0.00447 0.60891 0.01132 0.0
H1185 H 0.95198 0.64397 0.96037 0.0
H1186 H 0.98381 0.65689 0.92662 0.0
H1187 H 0.04525 0.6647 0.97606 0.0
C1188 C 0.97274 0.62895 0.04974 0.0
C1189 C 0.94516 0.61769 0.05404 0.0
C1190 C 0.92837 0.61744 0.03545 0.0
C1191 C 0.93875 0.62786 0.01271 0.0
C1192 C 0.96594 0.63834 0.00885 0.0
C1193 C 0.98273 0.63895 0.02682 0.0
C1194 C 0.01069 0.64905 0.01737 0.0
C1195 C 0.03064 0.6753 0.02969 0.0
C1196 C 0.01909 0.62784 0.02021 0.0
C1197 C 0.00685 0.65346 0.99119 0.0
C1198 C 0.98099 0.64753 0.98673 0.0
C1199 C 0.97236 0.64894 0.96368 0.0
C1200 C 0.99056 0.65627 0.94463 0.0
C1201 C 0.01698 0.66186 0.94874 0.0
C1202 C 0.02523 0.66076 0.9724 0.0
H1203 H 0.36344 -0.00058 0.55994 0.0
H1204 H 0.30459 0.92148 0.53322 0.0
H1205 H 0.31115 0.9395 0.49212 0.0
H1206 H 0.34679 0.03865 0.5181 0.0
H1207 H 0.38117 0.06427 0.51478 0.0
H1208 H 0.36989 0.04587 0.5425 0.0
H1209 H 0.4064 0.03268 0.53879 0.0
H1210 H 0.41765 0.05083 0.51102 0.0
H1211 H 0.408 0.01607 0.51197 0.0
H1212 H 0.32679 0.96479 0.45353 0.0
H1213 H 0.34967 0.99633 0.42019 0.0
H1214 H 0.39818 0.05777 0.47187 0.0
C1215 C 0.35155 0.98633 0.5455 0.0
C1216 C 0.33345 0.9591 0.54976 0.0
C1217 C 0.31855 0.94244 0.53036 0.0
C1218 C 0.32209 0.95248 0.50695 0.0
C1219 C 0.34054 0.97926 0.50322 0.0
C1220 C 0.35489 0.99603 0.52195 0.0
C1221 C 0.3745 0.02365 0.51283 0.0
C1222 C 0.36767 0.04433 0.52264 0.0
C1223 C 0.40334 0.03124 0.51902 0.0
C1224 C 0.36934 0.01956 0.48606 0.0
C1225 C 0.34956 0.99387 0.4809 0.0
C1226 C 0.34211 0.98507 0.45734 0.0
C1227 C 0.35524 0.00306 0.43854 0.0
C1228 C 0.3756 0.02945 0.44347 0.0
C1229 C 0.38256 0.03775 0.46756 0.0
H1230 H 0.39644 0.34503 0.02979 0.0
H1231 H 0.32237 0.3179 0.0687 0.0
H1232 H 0.30093 0.32129 0.03143 0.0
H1233 H 0.39256 0.39361 0.99609 0.0
H1234 H 0.40706 0.38871 0.96929 0.0
H1235 H 0.41539 0.38108 0.9982 0.0
H1236 H 0.40018 0.33298 0.98389 0.0
H1237 H 0.3917 0.34047 0.95489 0.0
H1238 H 0.36702 0.31266 0.97203 0.0
H1239 H 0.28883 0.33115 0.99073 0.0
H1240 H 0.28763 0.34874 0.95059 0.0
H1241 H 0.3699 0.36973 0.93878 0.0
C1242 C 0.37557 0.33935 0.03039 0.0
C1243 C 0.36098 0.33105 0.05204 0.0
C1244 C 0.33385 0.32422 0.05223 0.0
C1245 C 0.3215 0.32597 0.03115 0.0
C1246 C 0.33657 0.3345 0.01012 0.0
C1247 C 0.36304 0.3411 0.00962 0.0
C1248 C 0.37549 0.35177 0.98531 0.0
C1249 C 0.399 0.38049 0.98736 0.0
C1250 C 0.3841 0.33337 0.97332 0.0
C1251 C 0.35209 0.3508 0.97233 0.0
C1252 C 0.32971 0.34042 0.9868 0.0
C1253 C 0.30612 0.339 0.97915 0.0
C1254 C 0.30563 0.34901 0.95633 0.0
C1255 C 0.32863 0.36046 0.94157 0.0
C1256 C 0.35191 0.36079 0.94954 0.0
H1257 H 0.04984 0.41254 0.53493 0.0
H1258 H 0.01999 0.33364 0.56506 0.0
H1259 H 0.99928 0.31362 0.52594 0.0
H1260 H 0.99168 0.39629 0.50064 0.0
H1261 H 0.00989 0.41789 0.47596 0.0
H1262 H 0.02358 0.42567 0.50583 0.0
H1263 H 0.06649 0.42705 0.49041 0.0
H1264 H 0.05277 0.41895 0.46052 0.0
H1265 H 0.06397 0.3985 0.47504 0.0
H1266 H 0.98176 0.3024 0.48351 0.0
H1267 H 0.96413 0.30054 0.4427 0.0
H1268 H 0.00401 0.38688 0.44104 0.0
C1269 C 0.03904 0.39104 0.53325 0.0
C1270 C 0.03659 0.37458 0.55292 0.0
C1271 C 0.02203 0.34656 0.55018 0.0
C1272 C 0.01039 0.33505 0.52801 0.0
C1273 C 0.01337 0.35187 0.50889 0.0
C1274 C 0.02703 0.37926 0.5114 0.0
C1275 C 0.02593 0.39289 0.48858 0.0
C1276 C 0.01193 0.40913 0.49303 0.0
C1277 C 0.05396 0.41038 0.47802 0.0
C1278 C 0.00928 0.36888 0.47285 0.0
C1279 C 0.00261 0.34542 0.48475 0.0
C1280 C 0.9869 0.32064 0.47401 0.0
C1281 C 0.9771 0.31979 0.45078 0.0
C1282 C 0.98277 0.34357 0.4387 0.0
C1283 C -0.00049 0.36839 0.44976 0.0
H1284 H 0.50442 0.10242 0.11277 0.0
H1285 H 0.44603 0.01792 0.11371 0.0
H1286 H 0.48213 0.00729 0.11316 0.0
H1287 H 0.55261 0.09755 0.07352 0.0
H1288 H 0.58121 0.12266 0.08958 0.0
H1289 H 0.55081 0.12402 0.08884 0.0
H1290 H 0.55002 0.12458 0.13537 0.0
H1291 H 0.58037 0.12317 0.13625 0.0
H1292 H 0.55117 0.09842 0.15188 0.0
H1293 H 0.52355 0.00528 0.11418 0.0
H1294 H 0.56889 0.01199 0.11663 0.0
H1295 H 0.60171 0.09771 0.11509 0.0
C1296 C 0.49932 0.08171 0.11261 0.0
C1297 C 0.47241 0.06098 0.11324 0.0
C1298 C 0.46648 0.03413 0.11326 0.0
C1299 C 0.48684 0.02786 0.11289 0.0
C1300 C 0.51309 0.04865 0.11252 0.0
C1301 C 0.51951 0.07504 0.11235 0.0
C1302 C 0.54954 0.09339 0.11273 0.0
C1303 C 0.5591 0.11041 0.0898 0.0
C1304 C 0.55828 0.11092 0.13541 0.0
C1305 C 0.55884 0.07312 0.11338 0.0
C1306 C 0.53738 0.04747 0.11316 0.0
C1307 C 0.54057 0.02525 0.11424 0.0
C1308 C 0.56642 0.0293 0.11568 0.0
C1309 C 0.58882 0.05536 0.11602 0.0
C1310 C 0.58495 0.07757 0.11472 0.0
H1311 H 0.49245 0.58707 0.61324 0.0
H1312 H 0.54983 0.55975 0.61606 0.0
H1313 H 0.513 0.51309 0.61541 0.0
H1314 H 0.44387 0.53674 0.65172 0.0
H1315 H 0.41565 0.53342 0.6351 0.0
H1316 H 0.44653 0.56469 0.63516 0.0
H1317 H 0.44754 0.56407 0.58861 0.0
H1318 H 0.41665 0.53278 0.58841 0.0
H1319 H 0.44554 0.53567 0.57335 0.0
H1320 H 0.47023 0.46969 0.61512 0.0
H1321 H 0.42409 0.432 0.61535 0.0
H1322 H 0.39424 0.48735 0.61282 0.0
C1323 C 0.49726 0.57126 0.61361 0.0
C1324 C 0.52398 0.57697 0.61466 0.0
C1325 C 0.52949 0.55578 0.61524 0.0
C1326 C 0.50872 0.52924 0.61486 0.0
C1327 C 0.4826 0.52429 0.6139 0.0
C1328 C 0.47677 0.54466 0.61328 0.0
C1329 C 0.44694 0.53385 0.61266 0.0
C1330 C 0.43771 0.5427 0.63499 0.0
C1331 C 0.43869 0.54208 0.58937 0.0
C1332 C 0.43691 0.50421 0.61311 0.0
C1333 C 0.45784 0.49916 0.61378 0.0
C1334 C 0.45367 0.47336 0.61454 0.0
C1335 C 0.42739 0.4521 0.61468 0.0
C1336 C 0.40561 0.45677 0.61408 0.0
C1337 C 0.4105 0.48319 0.61322 0.0
H1338 H 0.94526 0.41568 0.09702 0.0
H1339 H 0.86343 0.35788 0.11529 0.0
H1340 H 0.85272 0.39395 0.11802 0.0
H1341 H 0.95223 0.46653 0.1361 0.0
H1342 H 0.97179 0.49363 0.11581 0.0
H1343 H 0.97286 0.4632 0.11369 0.0
H1344 H 0.95907 0.45849 0.06889 0.0
H1345 H 0.95815 0.48906 0.07081 0.0
H1346 H 0.92922 0.45897 0.06061 0.0
H1347 H 0.85181 0.43616 0.12259 0.0
H1348 H 0.8598 0.48207 0.12538 0.0
H1349 H 0.94155 0.51277 0.10217 0.0
C1350 C 0.92501 0.41062 0.10124 0.0
C1351 C 0.90516 0.38401 0.10595 0.0
C1352 C 0.87891 0.37813 0.11153 0.0
C1353 C 0.87264 0.39847 0.11316 0.0
C1354 C 0.89276 0.42454 0.10887 0.0
C1355 C 0.91832 0.43069 0.10269 0.0
C1356 C 0.93629 0.46047 0.09945 0.0
C1357 C 0.95967 0.4716 0.11733 0.0
C1358 C 0.94626 0.46713 0.07339 0.0
C1359 C 0.91695 0.47009 0.10529 0.0
C1360 C 0.89198 0.44899 0.11074 0.0
C1361 C 0.87115 0.45284 0.11802 0.0
C1362 C 0.87591 0.47896 0.11967 0.0
C1363 C 0.90121 0.50085 0.11383 0.0
C1364 C 0.92192 0.49632 0.10642 0.0
H1365 H 0.42351 0.94865 0.62311 0.0
H1366 H 0.37163 0.87452 0.58604 0.0
H1367 H 0.40969 0.86711 0.58005 0.0
H1368 H 0.48285 0.96852 0.58707 0.0
H1369 H 0.50517 0.98164 0.61237 0.0
H1370 H 0.47421 0.98192 0.61254 0.0
H1371 H 0.4611 0.95591 0.65275 0.0
H1372 H 0.492 0.95557 0.65273 0.0
H1373 H 0.46078 0.92471 0.65477 0.0
H1374 H 0.45298 0.86744 0.57856 0.0
H1375 H 0.49825 0.87413 0.58361 0.0
H1376 H 0.5217 0.94721 0.62305 0.0
C1377 C 0.42025 0.931 0.61354 0.0
C1378 C 0.39473 0.91221 0.60488 0.0
C1379 C 0.39108 0.88915 0.59277 0.0
C1380 C 0.41256 0.88482 0.58922 0.0
C1381 C 0.43747 0.90366 0.59806 0.0
C1382 C 0.44141 0.92621 0.6101 0.0
C1383 C 0.4699 0.94265 0.61883 0.0
C1384 C 0.48385 0.97032 0.60699 0.0
C1385 C 0.471 0.94482 0.6464 0.0
C1386 C 0.48131 0.92573 0.60993 0.0
C1387 C 0.46233 0.90349 0.59778 0.0
C1388 C 0.46804 0.88478 0.58802 0.0
C1389 C 0.4938 0.88878 0.59095 0.0
C1390 C 0.51342 0.91116 0.60373 0.0
C1391 C 0.50708 0.92992 0.61319 0.0
H1392 H 0.59364 0.49849 0.12589 0.0
H1393 H 0.5654 0.55247 0.1057 0.0
H1394 H 0.51969 0.51444 0.10197 0.0
H1395 H 0.55107 0.44557 0.0851 0.0
H1396 H 0.5454 0.41924 0.10568 0.0
H1397 H 0.57603 0.45072 0.10713 0.0
H1398 H 0.56728 0.4553 0.15206 0.0
H1399 H 0.53665 0.42383 0.15076 0.0
H1400 H 0.53632 0.45324 0.16076 0.0
H1401 H 0.47721 0.47129 0.10138 0.0
H1402 H 0.44017 0.42489 0.10257 0.0
H1403 H 0.4956 0.39804 0.12157 0.0
C1404 C 0.5778 0.50225 0.12073 0.0
C1405 C 0.583 0.52841 0.11615 0.0
C1406 C 0.56184 0.53258 0.10928 0.0
C1407 C 0.53581 0.51113 0.10713 0.0
C1408 C 0.53133 0.48561 0.11173 0.0
C1409 C 0.55167 0.48098 0.11826 0.0
C1410 C 0.54133 0.45147 0.12186 0.0
C1411 C 0.55423 0.44115 0.10387 0.0
C1412 C 0.54565 0.44562 0.14791 0.0
C1413 C 0.51199 0.44031 0.11645 0.0
C1414 C 0.50672 0.46043 0.11077 0.0
C1415 C 0.48107 0.45532 0.10567 0.0
C1416 C 0.46018 0.42891 0.10644 0.0
C1417 C 0.46507 0.40791 0.11206 0.0
C1418 C 0.49135 0.4137 0.11701 0.0
H1419 H 0.05152 0.47625 0.62728 0.0
H1420 H 0.13243 0.50458 0.60272 0.0
H1421 H 0.14003 0.55051 0.60078 0.0
H1422 H 0.03831 0.51881 0.59042 0.0
H1423 H 0.01913 0.52402 0.61306 0.0
H1424 H 0.0203 0.49356 0.61276 0.0
H1425 H 0.03701 0.50187 0.65684 0.0
H1426 H 0.03585 0.53234 0.6573 0.0
H1427 H 0.0664 0.53282 0.66464 0.0
H1428 H 0.13832 0.59322 0.60083 0.0
H1429 H 0.12774 0.62953 0.60363 0.0
H1430 H 0.04814 0.57293 0.62865 0.0
C1431 C 0.07087 0.49212 0.62153 0.0
C1432 C 0.0914 0.48691 0.61513 0.0
C1433 C 0.11644 0.50818 0.60773 0.0
C1434 C 0.12092 0.5343 0.60656 0.0
C1435 C 0.10019 0.53874 0.61293 0.0
C1436 C 0.07569 0.51824 0.62035 0.0
C1437 C 0.0567 0.52823 0.62619 0.0
C1438 C 0.03217 0.51539 0.60962 0.0
C1439 C 0.04852 0.52354 0.65283 0.0
C1440 C 0.07429 0.55757 0.62081 0.0
C1441 C 0.09929 0.56326 0.61315 0.0
C1442 C 0.11884 0.58901 0.60687 0.0
C1443 C 0.11265 0.60948 0.6085 0.0
C1444 C 0.08716 0.60402 0.61639 0.0
C1445 C 0.06783 0.57772 0.62262 0.0
H1446 H 0.95642 0.52923 0.37441 0.0
H1447 H 0.87307 0.50036 0.39057 0.0
H1448 H 0.8651 0.45436 0.39295 0.0
H1449 H 0.94617 0.47375 0.33748 0.0
H1450 H 0.97549 0.4738 0.34841 0.0
H1451 H 0.97448 0.50435 0.34773 0.0
H1452 H 0.98548 0.5111 0.39322 0.0
H1453 H 0.98645 0.48054 0.39406 0.0
H1454 H 0.96463 0.48517 0.41407 0.0
H1455 H 0.86634 0.41167 0.39386 0.0
H1456 H 0.87657 0.37512 0.39294 0.0
H1457 H 0.9592 0.43194 0.3764 0.0
C1458 C 0.93646 0.51322 0.37837 0.0
C1459 C 0.91532 0.51831 0.38228 0.0
C1460 C 0.88953 0.49687 0.38748 0.0
C1461 C 0.88482 0.4707 0.38888 0.0
C1462 C 0.90613 0.46638 0.38505 0.0
C1463 C 0.93143 0.48702 0.37987 0.0
C1464 C 0.95091 0.47703 0.37666 0.0
C1465 C 0.96243 0.48256 0.35105 0.0
C1466 C 0.97318 0.48918 0.39564 0.0
C1467 C 0.93262 0.44752 0.38086 0.0
C1468 C 0.90687 0.4418 0.38566 0.0
C1469 C 0.88642 0.41591 0.39012 0.0
C1470 C 0.89243 0.39529 0.38957 0.0
C1471 C 0.91867 0.40072 0.38462 0.0
C1472 C 0.93897 0.42721 0.38027 0.0
H1473 H 0.49082 0.89464 0.88729 0.0
H1474 H 0.54628 0.97672 0.90685 0.0
H1475 H 0.50896 0.98533 0.91098 0.0
H1476 H 0.4487 0.9086 0.85149 0.0
H1477 H 0.41804 0.87955 0.86048 0.0
H1478 H 0.44877 0.87888 0.8609 0.0
H1479 H 0.44137 0.86536 0.90581 0.0
H1480 H 0.41055 0.86594 0.90552 0.0
H1481 H 0.43609 0.88573 0.9271 0.0
H1482 H 0.46688 0.98625 0.91065 0.0
H1483 H 0.42169 0.97947 0.90581 0.0
H1484 H 0.39233 0.89682 0.88642 0.0
C1485 C 0.49499 0.91428 0.89279 0.0
C1486 C 0.52143 0.935 0.89683 0.0
C1487 C 0.52619 0.96056 0.90366 0.0
C1488 C 0.50512 0.96564 0.90613 0.0
C1489 C 0.47936 0.94496 0.90172 0.0
C1490 C 0.47409 0.91977 0.89523 0.0
C1491 C 0.44456 0.90159 0.89039 0.0
C1492 C 0.43975 0.89157 0.86426 0.0
C1493 C 0.43243 0.87827 0.90828 0.0
C1494 C 0.43424 0.92068 0.89481 0.0
C1495 C 0.45472 0.94552 0.90148 0.0
C1496 C 0.4506 0.96684 0.90565 0.0
C1497 C 0.42486 0.96279 0.90279 0.0
C1498 C 0.4035 0.93761 0.89581 0.0
C1499 C 0.40823 0.9162 0.89201 0.0
H1500 H 0.48032 0.43369 0.3876 0.0
H1501 H 0.50662 0.38078 0.35949 0.0
H1502 H 0.55257 0.41862 0.35642 0.0
H1503 H 0.52317 0.49066 0.35056 0.0
H1504 H 0.52955 0.51453 0.37406 0.0
H1505 H 0.49856 0.48335 0.37359 0.0
H1506 H 0.50747 0.47336 0.41692 0.0
H1507 H 0.53851 0.50447 0.4175 0.0
H1508 H 0.53813 0.47372 0.42348 0.0
H1509 H 0.59569 0.4618 0.35714 0.0
H1510 H 0.63325 0.50784 0.3612 0.0
H1511 H 0.57906 0.5328 0.38881 0.0
C1512 C 0.49573 0.43012 0.38069 0.0
C1513 C 0.48994 0.40433 0.37376 0.0
C1514 C 0.51064 0.4004 0.3649 0.0
C1515 C 0.53679 0.42175 0.36308 0.0
C1516 C 0.54189 0.4469 0.37019 0.0
C1517 C 0.52198 0.45123 0.37878 0.0
C1518 C 0.53293 0.48019 0.3855 0.0
C1519 C 0.5203 0.49293 0.37 0.0
C1520 C 0.52903 0.48309 0.41245 0.0
C1521 C 0.5621 0.49141 0.37941 0.0
C1522 C 0.56682 0.47186 0.3706 0.0
C1523 C 0.59225 0.47731 0.36396 0.0
C1524 C 0.61344 0.50349 0.36635 0.0
C1525 C 0.60904 0.52384 0.37529 0.0
C1526 C 0.58301 0.51765 0.38188 0.0
H1527 H 0.04762 0.48267 0.87505 0.0
H1528 H 0.12128 0.50621 0.91361 0.0
H1529 H 0.12702 0.55082 0.92037 0.0
H1530 H 0.06949 0.5451 0.84541 0.0
H1531 H 0.0378 0.54371 0.8479 0.0
H1532 H 0.0391 0.51335 0.84648 0.0
H1533 H 0.01271 0.49758 0.88642 0.0
H1534 H 0.01136 0.52793 0.88798 0.0
H1535 H 0.02508 0.51854 0.91267 0.0
H1536 H 0.12541 0.59295 0.92233 0.0
H1537 H 0.1165 0.63027 0.91923 0.0
H1538 H 0.04376 0.57955 0.87969 0.0
C1539 C 0.0649 0.49721 0.88497 0.0
C1540 C 0.084 0.49102 0.89383 0.0
C1541 C 0.10639 0.51055 0.90668 0.0
C1542 C 0.10982 0.53593 0.91063 0.0
C1543 C 0.09067 0.54143 0.90166 0.0
C1544 C 0.06864 0.52268 0.88911 0.0
C1545 C 0.05122 0.53392 0.88117 0.0
C1546 C 0.04931 0.53403 0.8536 0.0
C1547 C 0.02345 0.51858 0.89276 0.0
C1548 C 0.06703 0.56194 0.89109 0.0
C1549 C 0.08968 0.56581 0.90289 0.0
C1550 C 0.10768 0.59017 0.91323 0.0
C1551 C 0.10246 0.61122 0.91137 0.0
C1552 C 0.07943 0.60775 0.89929 0.0
C1553 C 0.06146 0.58273 0.88914 0.0
H1554 H 0.58102 0.05161 0.38925 0.0
H1555 H 0.63799 0.13647 0.38846 0.0
H1556 H 0.60099 0.14597 0.38745 0.0
H1557 H 0.53298 0.05375 0.34924 0.0
H1558 H 0.50448 0.02854 0.3653 0.0
H1559 H 0.53543 0.02826 0.36565 0.0
H1560 H 0.53544 0.02907 0.41221 0.0
H1561 H 0.5045 0.02938 0.41201 0.0
H1562 H 0.53303 0.05516 0.42762 0.0
H1563 H 0.55836 0.14646 0.38674 0.0
H1564 H 0.51224 0.138 0.38671 0.0
H1565 H 0.48244 0.05279 0.38831 0.0
C1566 C 0.58567 0.07217 0.3888 0.0
C1567 C 0.61234 0.09333 0.3889 0.0
C1568 C 0.61768 0.11997 0.38838 0.0
C1569 C 0.59683 0.12557 0.38779 0.0
C1570 C 0.57077 0.1043 0.38776 0.0
C1571 C 0.56506 0.07814 0.38826 0.0
C1572 C 0.53523 0.05904 0.38836 0.0
C1573 C 0.52652 0.04136 0.36579 0.0
C1574 C 0.52655 0.04217 0.41143 0.0
C1575 C 0.52511 0.07861 0.3879 0.0
C1576 C 0.546 0.10459 0.3875 0.0
C1577 C 0.54182 0.12622 0.38704 0.0
C1578 C 0.51555 0.12119 0.38703 0.0
C1579 C 0.4938 0.09475 0.38751 0.0
C1580 C 0.49869 0.0732 0.38794 0.0
H1581 H 0.52497 0.57554 0.87308 0.0
H1582 H 0.50757 0.61748 0.92837 0.0
H1583 H 0.46338 0.57757 0.93472 0.0
H1584 H 0.45975 0.54231 0.84757 0.0
H1585 H 0.46002 0.51199 0.84101 0.0
H1586 H 0.49085 0.54329 0.84179 0.0
H1587 H 0.50961 0.52419 0.87345 0.0
H1588 H 0.47881 0.49282 0.87279 0.0
H1589 H 0.49134 0.51016 0.90088 0.0
H1590 H 0.42108 0.53352 0.93472 0.0
H1591 H 0.38245 0.48892 0.92705 0.0
H1592 H 0.42669 0.47606 0.87075 0.0
C1593 C 0.51194 0.57622 0.88668 0.0
C1594 C 0.51968 0.59949 0.90037 0.0
C1595 C 0.50199 0.5998 0.91773 0.0
C1596 C 0.47691 0.57723 0.92151 0.0
C1597 C 0.46982 0.55463 0.90764 0.0
C1598 C 0.48673 0.55398 0.89048 0.0
C1599 C 0.47377 0.52758 0.87726 0.0
C1600 C 0.47093 0.53154 0.85032 0.0
C1601 C 0.48931 0.51282 0.88135 0.0
C1602 C 0.44689 0.51353 0.88962 0.0
C1603 C 0.44514 0.52941 0.90723 0.0
C1604 C 0.42222 0.52088 0.921 0.0
C1605 C 0.4004 0.49551 0.91653 0.0
C1606 C 0.4016 0.47906 0.89831 0.0
C1607 C 0.42523 0.4882 0.88481 0.0
loop_
_geom_bond_atom_site_label_1
_geom_bond_atom_site_label_2
_geom_bond_distance
_geom_bond_site_symmetry_2
_ccdc_geom_bond_type
In0 O1 2.294 . S
In0 O2 2.326 . S
In0 O6 2.266 . S
In0 O7 2.326 . S
In0 O8 2.266 . S
In0 O9 2.326 . S
In0 O11 2.294 . S
In0 O12 2.326 . S
O1 In0 2.294 . S
O1 C10 1.240 . S
O2 In0 2.326 . S
O2 C10 1.252 . S
C3 O6 1.252 . S
C3 O7 1.260 . S
C4 O11 1.240 . S
C4 O12 1.252 . S
C5 O8 1.252 . S
C5 O9 1.260 . S
O6 In0 2.266 . S
O6 C3 1.252 . S
O7 In0 2.326 . S
O7 C3 1.260 . S
O8 In0 2.266 . S
O8 C5 1.252 . S
O9 In0 2.326 . S
O9 C5 1.260 . S
C10 O1 1.240 . S
C10 O2 1.252 . S
O11 In0 2.294 . S
O11 C4 1.240 . S
O12 In0 2.326 . S
O12 C4 1.252 . S
In13 O14 2.294 . S
In13 O15 2.326 . S
In13 O19 2.266 . S
In13 O20 2.326 . S
In13 O21 2.266 . S
In13 O22 2.326 . S
In13 O24 2.294 . S
In13 O25 2.326 . S
O14 In13 2.294 . S
O14 C23 1.240 . S
O15 In13 2.326 . S
O15 C23 1.252 . S
C16 O19 1.252 . S
C16 O20 1.260 . S
C17 O24 1.240 . S
C17 O25 1.252 . S
C18 O21 1.252 . S
C18 O22 1.260 . S
O19 In13 2.266 . S
O19 C16 1.252 . S
O20 In13 2.326 . S
O20 C16 1.260 . S
O21 In13 2.266 . S
O21 C18 1.252 . S
O22 In13 2.326 . S
O22 C18 1.260 . S
C23 O14 1.240 . S
C23 O15 1.252 . S
O24 In13 2.294 . S
O24 C17 1.240 . S
O25 In13 2.326 . S
O25 C17 1.252 . S
In26 O27 2.294 . S
In26 O28 2.326 . S
In26 O32 2.266 . S
In26 O33 2.326 . S
In26 O34 2.266 . S
In26 O35 2.326 . S
In26 O37 2.294 . S
In26 O38 2.326 . S
O27 In26 2.294 . S
O27 C36 1.240 . S
O28 In26 2.326 . S
O28 C36 1.252 . S
C29 O32 1.252 . S
C29 O33 1.260 . S
C30 O37 1.240 . S
C30 O38 1.252 . S
C31 O34 1.252 . S
C31 O35 1.260 . S
O32 In26 2.266 . S
O32 C29 1.252 . S
O33 In26 2.326 . S
O33 C29 1.260 . S
O34 In26 2.266 . S
O34 C31 1.252 . S
O35 In26 2.326 . S
O35 C31 1.260 . S
C36 O27 1.240 . S
C36 O28 1.252 . S
O37 In26 2.294 . S
O37 C30 1.240 . S
O38 In26 2.326 . S
O38 C30 1.252 . S
In39 O40 2.294 . S
In39 O41 2.326 . S
In39 O45 2.266 . S
In39 O46 2.326 . S
In39 O47 2.266 . S
In39 O48 2.326 . S
In39 O50 2.294 . S
In39 O51 2.326 . S
O40 In39 2.294 . S
O40 C49 1.240 . S
O41 In39 2.326 . S
O41 C49 1.252 . S
C42 O45 1.252 . S
C42 O46 1.260 . S
C43 O50 1.240 . S
C43 O51 1.252 . S
C44 O47 1.252 . S
C44 O48 1.260 . S
O45 In39 2.266 . S
O45 C42 1.252 . S
O46 In39 2.326 . S
O46 C42 1.260 . S
O47 In39 2.266 . S
O47 C44 1.252 . S
O48 In39 2.326 . S
O48 C44 1.260 . S
C49 O40 1.240 . S
C49 O41 1.252 . S
O50 In39 2.294 . S
O50 C43 1.240 . S
O51 In39 2.326 . S
O51 C43 1.252 . S
In52 O53 2.294 . S
In52 O54 2.326 . S
In52 O58 2.266 . S
In52 O59 2.326 . S
In52 O60 2.266 . S
In52 O61 2.326 . S
In52 O63 2.294 . S
In52 O64 2.326 . S
O53 In52 2.294 . S
O53 C62 1.240 . S
O54 In52 2.326 . S
O54 C62 1.252 . S
C55 O58 1.252 . S
C55 O59 1.260 . S
C56 O63 1.240 . S
C56 O64 1.252 . S
C57 O60 1.252 . S
C57 O61 1.260 . S
O58 In52 2.266 . S
O58 C55 1.252 . S
O59 In52 2.326 . S
O59 C55 1.260 . S
O60 In52 2.266 . S
O60 C57 1.252 . S
O61 In52 2.326 . S
O61 C57 1.260 . S
C62 O53 1.240 . S
C62 O54 1.252 . S
O63 In52 2.294 . S
O63 C56 1.240 . S
O64 In52 2.326 . S
O64 C56 1.252 . S
In65 O66 2.294 . S
In65 O67 2.326 . S
In65 O71 2.266 . S
In65 O72 2.326 . S
In65 O73 2.266 . S
In65 O74 2.326 . S
In65 O76 2.294 . S
In65 O77 2.326 . S
O66 In65 2.294 . S
O66 C75 1.240 . S
O67 In65 2.326 . S
O67 C75 1.252 . S
C68 O71 1.252 . S
C68 O72 1.260 . S
C69 O76 1.240 . S
C69 O77 1.252 . S
C70 O73 1.252 . S
C70 O74 1.260 . S
O71 In65 2.266 . S
O71 C68 1.252 . S
O72 In65 2.326 . S
O72 C68 1.260 . S
O73 In65 2.266 . S
O73 C70 1.252 . S
O74 In65 2.326 . S
O74 C70 1.260 . S
C75 O66 1.240 . S
C75 O67 1.252 . S
O76 In65 2.294 . S
O76 C69 1.240 . S
O77 In65 2.326 . S
O77 C69 1.252 . S
In78 O79 2.294 . S
In78 O80 2.326 . S
In78 O84 2.266 . S
In78 O85 2.326 . S
In78 O86 2.266 . S
In78 O87 2.326 . S
In78 O89 2.294 . S
In78 O90 2.326 . S
O79 In78 2.294 . S
O79 C88 1.240 . S
O80 In78 2.326 . S
O80 C88 1.252 . S
C81 O84 1.252 . S
C81 O85 1.260 . S
C82 O89 1.240 . S
C82 O90 1.252 . S
C83 O86 1.252 . S
C83 O87 1.260 . S
O84 In78 2.266 . S
O84 C81 1.252 . S
O85 In78 2.326 . S
O85 C81 1.260 . S
O86 In78 2.266 . S
O86 C83 1.252 . S
O87 In78 2.326 . S
O87 C83 1.260 . S
C88 O79 1.240 . S
C88 O80 1.252 . S
O89 In78 2.294 . S
O89 C82 1.240 . S
O90 In78 2.326 . S
O90 C82 1.252 . S
In91 O92 2.294 . S
In91 O93 2.326 . S
In91 O97 2.266 . S
In91 O98 2.326 . S
In91 O99 2.266 . S
In91 O100 2.326 . S
In91 O102 2.294 . S
In91 O103 2.326 . S
O92 In91 2.294 . S
O92 C101 1.240 . S
O93 In91 2.326 . S
O93 C101 1.252 . S
C94 O97 1.252 . S
C94 O98 1.260 . S
C95 O102 1.240 . S
C95 O103 1.252 . S
C96 O99 1.252 . S
C96 O100 1.260 . S
O97 In91 2.266 . S
O97 C94 1.252 . S
O98 In91 2.326 . S
O98 C94 1.260 . S
O99 In91 2.266 . S
O99 C96 1.252 . S
O100 In91 2.326 . S
O100 C96 1.260 . S
C101 O92 1.240 . S
C101 O93 1.252 . S
O102 In91 2.294 . S
O102 C95 1.240 . S
O103 In91 2.326 . S
O103 C95 1.252 . S
In104 O105 2.294 . S
In104 O106 2.326 . S
In104 O110 2.266 . S
In104 O111 2.326 . S
In104 O112 2.266 . S
In104 O113 2.326 . S
In104 O115 2.294 . S
In104 O116 2.326 . S
O105 In104 2.294 . S
O105 C114 1.240 . S
O106 In104 2.326 . S
O106 C114 1.252 . S
C107 O110 1.252 . S
C107 O111 1.260 . S
C108 O115 1.240 . S
C108 O116 1.252 . S
C109 O112 1.252 . S
C109 O113 1.260 . S
O110 In104 2.266 . S
O110 C107 1.252 . S
O111 In104 2.326 . S
O111 C107 1.260 . S
O112 In104 2.266 . S
O112 C109 1.252 . S
O113 In104 2.326 . S
O113 C109 1.260 . S
C114 O105 1.240 . S
C114 O106 1.252 . S
O115 In104 2.294 . S
O115 C108 1.240 . S
O116 In104 2.326 . S
O116 C108 1.252 . S
In117 O118 2.294 . S
In117 O119 2.326 . S
In117 O123 2.266 . S
In117 O124 2.326 . S
In117 O125 2.266 . S
In117 O126 2.326 . S
In117 O128 2.294 . S
In117 O129 2.326 . S
O118 In117 2.294 . S
O118 C127 1.240 . S
O119 In117 2.326 . S
O119 C127 1.252 . S
C120 O123 1.252 . S
C120 O124 1.260 . S
C121 O128 1.240 . S
C121 O129 1.252 . S
C122 O125 1.252 . S
C122 O126 1.260 . S
O123 In117 2.266 . S
O123 C120 1.252 . S
O124 In117 2.326 . S
O124 C120 1.260 . S
O125 In117 2.266 . S
O125 C122 1.252 . S
O126 In117 2.326 . S
O126 C122 1.260 . S
C127 O118 1.240 . S
C127 O119 1.252 . S
O128 In117 2.294 . S
O128 C121 1.240 . S
O129 In117 2.326 . S
O129 C121 1.252 . S
In130 O131 2.294 . S
In130 O132 2.326 . S
In130 O136 2.266 . S
In130 O137 2.326 . S
In130 O138 2.266 . S
In130 O139 2.326 . S
In130 O141 2.294 . S
In130 O142 2.326 . S
O131 In130 2.294 . S
O131 C140 1.240 . S
O132 In130 2.326 . S
O132 C140 1.252 . S
C133 O136 1.252 . S
C133 O137 1.260 . S
C134 O141 1.240 . S
C134 O142 1.252 . S
C135 O138 1.252 . S
C135 O139 1.260 . S
O136 In130 2.266 . S
O136 C133 1.252 . S
O137 In130 2.326 . S
O137 C133 1.260 . S
O138 In130 2.266 . S
O138 C135 1.252 . S
O139 In130 2.326 . S
O139 C135 1.260 . S
C140 O131 1.240 . S
C140 O132 1.252 . S
O141 In130 2.294 . S
O141 C134 1.240 . S
O142 In130 2.326 . S
O142 C134 1.252 . S
In143 O144 2.294 . S
In143 O145 2.326 . S
In143 O149 2.266 . S
In143 O150 2.326 . S
In143 O151 2.266 . S
In143 O152 2.326 . S
In143 O154 2.294 . S
In143 O155 2.326 . S
O144 In143 2.294 . S
O144 C153 1.240 . S
O145 In143 2.326 . S
O145 C153 1.252 . S
C146 O149 1.252 . S
C146 O150 1.260 . S
C147 O154 1.240 . S
C147 O155 1.252 . S
C148 O151 1.252 . S
C148 O152 1.260 . S
O149 In143 2.266 . S
O149 C146 1.252 . S
O150 In143 2.326 . S
O150 C146 1.260 . S
O151 In143 2.266 . S
O151 C148 1.252 . S
O152 In143 2.326 . S
O152 C148 1.260 . S
C153 O144 1.240 . S
C153 O145 1.252 . S
O154 In143 2.294 . S
O154 C147 1.240 . S
O155 In143 2.326 . S
O155 C147 1.252 . S
In156 O157 2.294 . S
In156 O158 2.326 . S
In156 O162 2.266 . S
In156 O163 2.326 . S
In156 O164 2.266 . S
In156 O165 2.326 . S
In156 O167 2.294 . S
In156 O168 2.326 . S
O157 In156 2.294 . S
O157 C166 1.240 . S
O158 In156 2.326 . S
O158 C166 1.252 . S
C159 O162 1.252 . S
C159 O163 1.260 . S
C160 O167 1.240 . S
C160 O168 1.252 . S
C161 O164 1.252 . S
C161 O165 1.260 . S
O162 In156 2.266 . S
O162 C159 1.252 . S
O163 In156 2.326 . S
O163 C159 1.260 . S
O164 In156 2.266 . S
O164 C161 1.252 . S
O165 In156 2.326 . S
O165 C161 1.260 . S
C166 O157 1.240 . S
C166 O158 1.252 . S
O167 In156 2.294 . S
O167 C160 1.240 . S
O168 In156 2.326 . S
O168 C160 1.252 . S
In169 O170 2.294 . S
In169 O171 2.326 . S
In169 O175 2.266 . S
In169 O176 2.326 . S
In169 O177 2.266 . S
In169 O178 2.326 . S
In169 O180 2.294 . S
In169 O181 2.326 . S
O170 In169 2.294 . S
O170 C179 1.240 . S
O171 In169 2.326 . S
O171 C179 1.252 . S
C172 O175 1.252 . S
C172 O176 1.260 . S
C173 O180 1.240 . S
C173 O181 1.252 . S
C174 O177 1.252 . S
C174 O178 1.260 . S
O175 In169 2.266 . S
O175 C172 1.252 . S
O176 In169 2.326 . S
O176 C172 1.260 . S
O177 In169 2.266 . S
O177 C174 1.252 . S
O178 In169 2.326 . S
O178 C174 1.260 . S
C179 O170 1.240 . S
C179 O171 1.252 . S
O180 In169 2.294 . S
O180 C173 1.240 . S
O181 In169 2.326 . S
O181 C173 1.252 . S
In182 O183 2.294 . S
In182 O184 2.326 . S
In182 O188 2.266 . S
In182 O189 2.326 . S
In182 O190 2.266 . S
In182 O191 2.326 . S
In182 O193 2.294 . S
In182 O194 2.326 . S
O183 In182 2.294 . S
O183 C192 1.240 . S
O184 In182 2.326 . S
O184 C192 1.252 . S
C185 O188 1.252 . S
C185 O189 1.260 . S
C186 O193 1.240 . S
C186 O194 1.252 . S
C187 O190 1.252 . S
C187 O191 1.260 . S
O188 In182 2.266 . S
O188 C185 1.252 . S
O189 In182 2.326 . S
O189 C185 1.260 . S
O190 In182 2.266 . S
O190 C187 1.252 . S
O191 In182 2.326 . S
O191 C187 1.260 . S
C192 O183 1.240 . S
C192 O184 1.252 . S
O193 In182 2.294 . S
O193 C186 1.240 . S
O194 In182 2.326 . S
O194 C186 1.252 . S
In195 O196 2.294 . S
In195 O197 2.326 . S
In195 O201 2.266 . S
In195 O202 2.326 . S
In195 O203 2.266 . S
In195 O204 2.326 . S
In195 O206 2.294 . S
In195 O207 2.326 . S
O196 In195 2.294 . S
O196 C205 1.240 . S
O197 In195 2.326 . S
O197 C205 1.252 . S
C198 O201 1.252 . S
C198 O202 1.260 . S
C199 O206 1.240 . S
C199 O207 1.252 . S
C200 O203 1.252 . S
C200 O204 1.260 . S
O201 In195 2.266 . S
O201 C198 1.252 . S
O202 In195 2.326 . S
O202 C198 1.260 . S
O203 In195 2.266 . S
O203 C200 1.252 . S
O204 In195 2.326 . S
O204 C200 1.260 . S
C205 O196 1.240 . S
C205 O197 1.252 . S
O206 In195 2.294 . S
O206 C199 1.240 . S
O207 In195 2.326 . S
O207 C199 1.252 . S
In208 O209 2.294 . S
In208 O210 2.326 . S
In208 O214 2.266 . S
In208 O215 2.326 . S
In208 O216 2.266 . S
In208 O217 2.326 . S
In208 O219 2.294 . S
In208 O220 2.326 . S
O209 In208 2.294 . S
O209 C218 1.240 . S
O210 In208 2.326 . S
O210 C218 1.252 . S
C211 O214 1.252 . S
C211 O215 1.260 . S
C212 O219 1.240 . S
C212 O220 1.252 . S
C213 O216 1.252 . S
C213 O217 1.260 . S
O214 In208 2.266 . S
O214 C211 1.252 . S
O215 In208 2.326 . S
O215 C211 1.260 . S
O216 In208 2.266 . S
O216 C213 1.252 . S
O217 In208 2.326 . S
O217 C213 1.260 . S
C218 O209 1.240 . S
C218 O210 1.252 . S
O219 In208 2.294 . S
O219 C212 1.240 . S
O220 In208 2.326 . S
O220 C212 1.252 . S
In221 O222 2.294 . S
In221 O223 2.326 . S
In221 O227 2.266 . S
In221 O228 2.326 . S
In221 O229 2.266 . S
In221 O230 2.326 . S
In221 O232 2.294 . S
In221 O233 2.326 . S
O222 In221 2.294 . S
O222 C231 1.240 . S
O223 In221 2.326 . S
O223 C231 1.252 . S
C224 O227 1.252 . S
C224 O228 1.260 . S
C225 O232 1.240 . S
C225 O233 1.252 . S
C226 O229 1.252 . S
C226 O230 1.260 . S
O227 In221 2.266 . S
O227 C224 1.252 . S
O228 In221 2.326 . S
O228 C224 1.260 . S
O229 In221 2.266 . S
O229 C226 1.252 . S
O230 In221 2.326 . S
O230 C226 1.260 . S
C231 O222 1.240 . S
C231 O223 1.252 . S
O232 In221 2.294 . S
O232 C225 1.240 . S
O233 In221 2.326 . S
O233 C225 1.252 . S
In234 O235 2.294 . S
In234 O236 2.326 . S
In234 O240 2.266 . S
In234 O241 2.326 . S
In234 O242 2.266 . S
In234 O243 2.326 . S
In234 O245 2.294 . S
In234 O246 2.326 . S
O235 In234 2.294 . S
O235 C244 1.240 . S
O236 In234 2.326 . S
O236 C244 1.252 . S
C237 O240 1.252 . S
C237 O241 1.260 . S
C238 O245 1.240 . S
C238 O246 1.252 . S
C239 O242 1.252 . S
C239 O243 1.260 . S
O240 In234 2.266 . S
O240 C237 1.252 . S
O241 In234 2.326 . S
O241 C237 1.260 . S
O242 In234 2.266 . S
O242 C239 1.252 . S
O243 In234 2.326 . S
O243 C239 1.260 . S
C244 O235 1.240 . S
C244 O236 1.252 . S
O245 In234 2.294 . S
O245 C238 1.240 . S
O246 In234 2.326 . S
O246 C238 1.252 . S
In247 O248 2.294 . S
In247 O249 2.326 . S
In247 O253 2.266 . S
In247 O254 2.326 . S
In247 O255 2.266 . S
In247 O256 2.326 . S
In247 O258 2.294 . S
In247 O259 2.326 . S
O248 In247 2.294 . S
O248 C257 1.240 . S
O249 In247 2.326 . S
O249 C257 1.252 . S
C250 O253 1.252 . S
C250 O254 1.260 . S
C251 O258 1.240 . S
C251 O259 1.252 . S
C252 O255 1.252 . S
C252 O256 1.260 . S
O253 In247 2.266 . S
O253 C250 1.252 . S
O254 In247 2.326 . S
O254 C250 1.260 . S
O255 In247 2.266 . S
O255 C252 1.252 . S
O256 In247 2.326 . S
O256 C252 1.260 . S
C257 O248 1.240 . S
C257 O249 1.252 . S
O258 In247 2.294 . S
O258 C251 1.240 . S
O259 In247 2.326 . S
O259 C251 1.252 . S
In260 O261 2.294 . S
In260 O262 2.326 . S
In260 O266 2.266 . S
In260 O267 2.326 . S
In260 O268 2.266 . S
In260 O269 2.326 . S
In260 O271 2.294 . S
In260 O272 2.326 . S
O261 In260 2.294 . S
O261 C270 1.240 . S
O262 In260 2.326 . S
O262 C270 1.252 . S
C263 O266 1.252 . S
C263 O267 1.260 . S
C264 O271 1.240 . S
C264 O272 1.252 . S
C265 O268 1.252 . S
C265 O269 1.260 . S
O266 In260 2.266 . S
O266 C263 1.252 . S
O267 In260 2.326 . S
O267 C263 1.260 . S
O268 In260 2.266 . S
O268 C265 1.252 . S
O269 In260 2.326 . S
O269 C265 1.260 . S
C270 O261 1.240 . S
C270 O262 1.252 . S
O271 In260 2.294 . S
O271 C264 1.240 . S
O272 In260 2.326 . S
O272 C264 1.252 . S
In273 O274 2.294 . S
In273 O275 2.326 . S
In273 O279 2.266 . S
In273 O280 2.326 . S
In273 O281 2.266 . S
In273 O282 2.326 . S
In273 O284 2.294 . S
In273 O285 2.326 . S
O274 In273 2.294 . S
O274 C283 1.240 . S
O275 In273 2.326 . S
O275 C283 1.252 . S
C276 O279 1.252 . S
C276 O280 1.260 . S
C277 O284 1.240 . S
C277 O285 1.252 . S
C278 O281 1.252 . S
C278 O282 1.260 . S
O279 In273 2.266 . S
O279 C276 1.252 . S
O280 In273 2.326 . S
O280 C276 1.260 . S
O281 In273 2.266 . S
O281 C278 1.252 . S
O282 In273 2.326 . S
O282 C278 1.260 . S
C283 O274 1.240 . S
C283 O275 1.252 . S
O284 In273 2.294 . S
O284 C277 1.240 . S
O285 In273 2.326 . S
O285 C277 1.252 . S
In286 O287 2.294 . S
In286 O288 2.326 . S
In286 O292 2.266 . S
In286 O293 2.326 . S
In286 O294 2.266 . S
In286 O295 2.326 . S
In286 O297 2.294 . S
In286 O298 2.326 . S
O287 In286 2.294 . S
O287 C296 1.240 . S
O288 In286 2.326 . S
O288 C296 1.252 . S
C289 O292 1.252 . S
C289 O293 1.260 . S
C290 O297 1.240 . S
C290 O298 1.252 . S
C291 O294 1.252 . S
C291 O295 1.260 . S
O292 In286 2.266 . S
O292 C289 1.252 . S
O293 In286 2.326 . S
O293 C289 1.260 . S
O294 In286 2.266 . S
O294 C291 1.252 . S
O295 In286 2.326 . S
O295 C291 1.260 . S
C296 O287 1.240 . S
C296 O288 1.252 . S
O297 In286 2.294 . S
O297 C290 1.240 . S
O298 In286 2.326 . S
O298 C290 1.252 . S
In299 O300 2.294 . S
In299 O301 2.326 . S
In299 O305 2.266 . S
In299 O306 2.326 . S
In299 O307 2.266 . S
In299 O308 2.326 . S
In299 O310 2.294 . S
In299 O311 2.326 . S
O300 In299 2.294 . S
O300 C309 1.240 . S
O301 In299 2.326 . S
O301 C309 1.252 . S
C302 O305 1.252 . S
C302 O306 1.260 . S
C303 O310 1.240 . S
C303 O311 1.252 . S
C304 O307 1.252 . S
C304 O308 1.260 . S
O305 In299 2.266 . S
O305 C302 1.252 . S
O306 In299 2.326 . S
O306 C302 1.260 . S
O307 In299 2.266 . S
O307 C304 1.252 . S
O308 In299 2.326 . S
O308 C304 1.260 . S
C309 O300 1.240 . S
C309 O301 1.252 . S
O310 In299 2.294 . S
O310 C303 1.240 . S
O311 In299 2.326 . S
O311 C303 1.252 . S
H312 C324 0.930 . S
H313 C326 0.930 . S
H314 C327 0.930 . S
H315 C331 0.959 . S
H316 C331 0.959 . S
H317 C331 0.961 . S
H318 C332 0.960 . S
H319 C332 0.961 . S
H320 C332 0.959 . S
H321 C335 0.929 . S
H322 C336 0.931 . S
H323 C338 0.930 . S
C324 H312 0.930 . S
C324 C325 1.399 . S
C324 C329 1.399 . S
C325 C324 1.399 . S
C325 C326 1.376 . S
C326 H313 0.930 . S
C326 C325 1.376 . S
C326 C327 1.388 . S
C327 H314 0.930 . S
C327 C326 1.388 . S
C327 C328 1.390 . S
C328 C327 1.390 . S
C328 C329 1.394 . S
C328 C334 1.465 . S
C329 C324 1.399 . S
C329 C328 1.394 . S
C329 C330 1.516 . S
C330 C329 1.516 . S
C330 C331 1.502 . S
C330 C332 1.561 . S
C330 C333 1.526 . S
C331 H315 0.959 . S
C331 H316 0.959 . S
C331 H317 0.961 . S
C331 C330 1.502 . S
C332 H318 0.960 . S
C332 H319 0.961 . S
C332 H320 0.959 . S
C332 C330 1.561 . S
C333 C330 1.526 . S
C333 C334 1.396 . S
C333 C338 1.390 . S
C334 C328 1.465 . S
C334 C333 1.396 . S
C334 C335 1.399 . S
C335 H321 0.929 . S
C335 C334 1.399 . S
C335 C336 1.385 . S
C336 H322 0.931 . S
C336 C335 1.385 . S
C336 C337 1.389 . S
C337 C336 1.389 . S
C337 C338 1.387 . S
C338 H323 0.930 . S
C338 C333 1.390 . S
C338 C337 1.387 . S
H339 C351 0.930 . S
H340 C353 0.930 . S
H341 C354 0.930 . S
H342 C358 0.959 . S
H343 C358 0.959 . S
H344 C358 0.961 . S
H345 C359 0.960 . S
H346 C359 0.961 . S
H347 C359 0.959 . S
H348 C362 0.929 . S
H349 C363 0.931 . S
H350 C365 0.930 . S
C351 H339 0.930 . S
C351 C352 1.399 . S
C351 C356 1.399 . S
C352 C351 1.399 . S
C352 C353 1.376 . S
C353 H340 0.930 . S
C353 C352 1.376 . S
C353 C354 1.388 . S
C354 H341 0.930 . S
C354 C353 1.388 . S
C354 C355 1.390 . S
C355 C354 1.390 . S
C355 C356 1.394 . S
C355 C361 1.465 . S
C356 C351 1.399 . S
C356 C355 1.394 . S
C356 C357 1.516 . S
C357 C356 1.516 . S
C357 C358 1.502 . S
C357 C359 1.561 . S
C357 C360 1.526 . S
C358 H342 0.959 . S
C358 H343 0.959 . S
C358 H344 0.961 . S
C358 C357 1.502 . S
C359 H345 0.960 . S
C359 H346 0.961 . S
C359 H347 0.959 . S
C359 C357 1.561 . S
C360 C357 1.526 . S
C360 C361 1.396 . S
C360 C365 1.390 . S
C361 C355 1.465 . S
C361 C360 1.396 . S
C361 C362 1.399 . S
C362 H348 0.929 . S
C362 C361 1.399 . S
C362 C363 1.385 . S
C363 H349 0.931 . S
C363 C362 1.385 . S
C363 C364 1.389 . S
C364 C363 1.389 . S
C364 C365 1.387 . S
C365 H350 0.930 . S
C365 C360 1.390 . S
C365 C364 1.387 . S
H366 C378 0.930 . S
H367 C380 0.930 . S
H368 C381 0.930 . S
H369 C385 0.959 . S
H370 C385 0.959 . S
H371 C385 0.961 . S
H372 C386 0.960 . S
H373 C386 0.961 . S
H374 C386 0.959 . S
H375 C389 0.929 . S
H376 C390 0.931 . S
H377 C392 0.930 . S
C378 H366 0.930 . S
C378 C379 1.399 . S
C378 C383 1.399 . S
C379 C378 1.399 . S
C379 C380 1.376 . S
C380 H367 0.930 . S
C380 C379 1.376 . S
C380 C381 1.388 . S
C381 H368 0.930 . S
C381 C380 1.388 . S
C381 C382 1.390 . S
C382 C381 1.390 . S
C382 C383 1.394 . S
C382 C388 1.465 . S
C383 C378 1.399 . S
C383 C382 1.394 . S
C383 C384 1.516 . S
C384 C383 1.516 . S
C384 C385 1.502 . S
C384 C386 1.561 . S
C384 C387 1.526 . S
C385 H369 0.959 . S
C385 H370 0.959 . S
C385 H371 0.961 . S
C385 C384 1.502 . S
C386 H372 0.960 . S
C386 H373 0.961 . S
C386 H374 0.959 . S
C386 C384 1.561 . S
C387 C384 1.526 . S
C387 C388 1.396 . S
C387 C392 1.390 . S
C388 C382 1.465 . S
C388 C387 1.396 . S
C388 C389 1.399 . S
C389 H375 0.929 . S
C389 C388 1.399 . S
C389 C390 1.385 . S
C390 H376 0.931 . S
C390 C389 1.385 . S
C390 C391 1.389 . S
C391 C390 1.389 . S
C391 C392 1.387 . S
C392 H377 0.930 . S
C392 C387 1.390 . S
C392 C391 1.387 . S
H393 C405 0.930 . S
H394 C407 0.930 . S
H395 C408 0.930 . S
H396 C412 0.959 . S
H397 C412 0.959 . S
H398 C412 0.961 . S
H399 C413 0.960 . S
H400 C413 0.961 . S
H401 C413 0.959 . S
H402 C416 0.929 . S
H403 C417 0.931 . S
H404 C419 0.930 . S
C405 H393 0.930 . S
C405 C406 1.399 . S
C405 C410 1.399 . S
C406 C405 1.399 . S
C406 C407 1.376 . S
C407 H394 0.930 . S
C407 C406 1.376 . S
C407 C408 1.388 . S
C408 H395 0.930 . S
C408 C407 1.388 . S
C408 C409 1.390 . S
C409 C408 1.390 . S
C409 C410 1.394 . S
C409 C415 1.465 . S
C410 C405 1.399 . S
C410 C409 1.394 . S
C410 C411 1.516 . S
C411 C410 1.516 . S
C411 C412 1.502 . S
C411 C413 1.561 . S
C411 C414 1.526 . S
C412 H396 0.959 . S
C412 H397 0.959 . S
C412 H398 0.961 . S
C412 C411 1.502 . S
C413 H399 0.960 . S
C413 H400 0.961 . S
C413 H401 0.959 . S
C413 C411 1.561 . S
C414 C411 1.526 . S
C414 C415 1.396 . S
C414 C419 1.390 . S
C415 C409 1.465 . S
C415 C414 1.396 . S
C415 C416 1.399 . S
C416 H402 0.929 . S
C416 C415 1.399 . S
C416 C417 1.385 . S
C417 H403 0.931 . S
C417 C416 1.385 . S
C417 C418 1.389 . S
C418 C417 1.389 . S
C418 C419 1.387 . S
C419 H404 0.930 . S
C419 C414 1.390 . S
C419 C418 1.387 . S
H420 C432 0.930 . S
H421 C434 0.930 . S
H422 C435 0.930 . S
H423 C439 0.959 . S
H424 C439 0.959 . S
H425 C439 0.961 . S
H426 C440 0.960 . S
H427 C440 0.961 . S
H428 C440 0.959 . S
H429 C443 0.929 . S
H430 C444 0.931 . S
H431 C446 0.930 . S
C432 H420 0.930 . S
C432 C433 1.399 . S
C432 C437 1.399 . S
C433 C432 1.399 . S
C433 C434 1.376 . S
C434 H421 0.930 . S
C434 C433 1.376 . S
C434 C435 1.388 . S
C435 H422 0.930 . S
C435 C434 1.388 . S
C435 C436 1.390 . S
C436 C435 1.390 . S
C436 C437 1.394 . S
C436 C442 1.465 . S
C437 C432 1.399 . S
C437 C436 1.394 . S
C437 C438 1.516 . S
C438 C437 1.516 . S
C438 C439 1.502 . S
C438 C440 1.561 . S
C438 C441 1.526 . S
C439 H423 0.959 . S
C439 H424 0.959 . S
C439 H425 0.961 . S
C439 C438 1.502 . S
C440 H426 0.960 . S
C440 H427 0.961 . S
C440 H428 0.959 . S
C440 C438 1.561 . S
C441 C438 1.526 . S
C441 C442 1.396 . S
C441 C446 1.390 . S
C442 C436 1.465 . S
C442 C441 1.396 . S
C442 C443 1.399 . S
C443 H429 0.929 . S
C443 C442 1.399 . S
C443 C444 1.385 . S
C444 H430 0.931 . S
C444 C443 1.385 . S
C444 C445 1.389 . S
C445 C444 1.389 . S
C445 C446 1.387 . S
C446 H431 0.930 . S
C446 C441 1.390 . S
C446 C445 1.387 . S
H447 C459 0.930 . S
H448 C461 0.930 . S
H449 C462 0.930 . S
H450 C466 0.959 . S
H451 C466 0.959 . S
H452 C466 0.961 . S
H453 C467 0.960 . S
H454 C467 0.961 . S
H455 C467 0.959 . S
H456 C470 0.929 . S
H457 C471 0.931 . S
H458 C473 0.930 . S
C459 H447 0.930 . S
C459 C460 1.399 . S
C459 C464 1.399 . S
C460 C459 1.399 . S
C460 C461 1.376 . S
C461 H448 0.930 . S
C461 C460 1.376 . S
C461 C462 1.388 . S
C462 H449 0.930 . S
C462 C461 1.388 . S
C462 C463 1.390 . S
C463 C462 1.390 . S
C463 C464 1.394 . S
C463 C469 1.465 . S
C464 C459 1.399 . S
C464 C463 1.394 . S
C464 C465 1.516 . S
C465 C464 1.516 . S
C465 C466 1.502 . S
C465 C467 1.561 . S
C465 C468 1.526 . S
C466 H450 0.959 . S
C466 H451 0.959 . S
C466 H452 0.961 . S
C466 C465 1.502 . S
C467 H453 0.960 . S
C467 H454 0.961 . S
C467 H455 0.959 . S
C467 C465 1.561 . S
C468 C465 1.526 . S
C468 C469 1.396 . S
C468 C473 1.390 . S
C469 C463 1.465 . S
C469 C468 1.396 . S
C469 C470 1.399 . S
C470 H456 0.929 . S
C470 C469 1.399 . S
C470 C471 1.385 . S
C471 H457 0.931 . S
C471 C470 1.385 . S
C471 C472 1.389 . S
C472 C471 1.389 . S
C472 C473 1.387 . S
C473 H458 0.930 . S
C473 C468 1.390 . S
C473 C472 1.387 . S
H474 C486 0.930 . S
H475 C488 0.930 . S
H476 C489 0.930 . S
H477 C493 0.959 . S
H478 C493 0.959 . S
H479 C493 0.961 . S
H480 C494 0.960 . S
H481 C494 0.961 . S
H482 C494 0.959 . S
H483 C497 0.929 . S
H484 C498 0.931 . S
H485 C500 0.930 . S
C486 H474 0.930 . S
C486 C487 1.399 . S
C486 C491 1.399 . S
C487 C486 1.399 . S
C487 C488 1.376 . S
C488 H475 0.930 . S
C488 C487 1.376 . S
C488 C489 1.388 . S
C489 H476 0.930 . S
C489 C488 1.388 . S
C489 C490 1.390 . S
C490 C489 1.390 . S
C490 C491 1.394 . S
C490 C496 1.465 . S
C491 C486 1.399 . S
C491 C490 1.394 . S
C491 C492 1.516 . S
C492 C491 1.516 . S
C492 C493 1.502 . S
C492 C494 1.561 . S
C492 C495 1.526 . S
C493 H477 0.959 . S
C493 H478 0.959 . S
C493 H479 0.961 . S
C493 C492 1.502 . S
C494 H480 0.960 . S
C494 H481 0.961 . S
C494 H482 0.959 . S
C494 C492 1.561 . S
C495 C492 1.526 . S
C495 C496 1.396 . S
C495 C500 1.390 . S
C496 C490 1.465 . S
C496 C495 1.396 . S
C496 C497 1.399 . S
C497 H483 0.929 . S
C497 C496 1.399 . S
C497 C498 1.385 . S
C498 H484 0.931 . S
C498 C497 1.385 . S
C498 C499 1.389 . S
C499 C498 1.389 . S
C499 C500 1.387 . S
C500 H485 0.930 . S
C500 C495 1.390 . S
C500 C499 1.387 . S
H501 C513 0.930 . S
H502 C515 0.930 . S
H503 C516 0.930 . S
H504 C520 0.959 . S
H505 C520 0.959 . S
H506 C520 0.961 . S
H507 C521 0.960 1_545 S
H508 C521 0.961 1_545 S
H509 C521 0.959 . S
H510 C524 0.929 . S
H511 C525 0.931 . S
H512 C527 0.930 . S
C513 H501 0.930 . S
C513 C514 1.399 . S
C513 C518 1.399 . S
C514 C513 1.399 . S
C514 C515 1.376 . S
C515 H502 0.930 . S
C515 C514 1.376 . S
C515 C516 1.388 . S
C516 H503 0.930 . S
C516 C515 1.388 . S
C516 C517 1.390 . S
C517 C516 1.390 . S
C517 C518 1.394 . S
C517 C523 1.465 . S
C518 C513 1.399 . S
C518 C517 1.394 . S
C518 C519 1.516 . S
C519 C518 1.516 . S
C519 C520 1.502 . S
C519 C521 1.561 . S
C519 C522 1.526 . S
C520 H504 0.959 . S
C520 H505 0.959 . S
C520 H506 0.961 . S
C520 C519 1.502 . S
C521 H507 0.960 1_565 S
C521 H508 0.961 1_565 S
C521 H509 0.959 . S
C521 C519 1.561 . S
C522 C519 1.526 . S
C522 C523 1.396 . S
C522 C527 1.390 . S
C523 C517 1.465 . S
C523 C522 1.396 . S
C523 C524 1.399 . S
C524 H510 0.929 . S
C524 C523 1.399 . S
C524 C525 1.385 . S
C525 H511 0.931 . S
C525 C524 1.385 . S
C525 C526 1.389 . S
C526 C525 1.389 . S
C526 C527 1.387 . S
C527 H512 0.930 . S
C527 C522 1.390 . S
C527 C526 1.387 . S
H528 C540 0.930 . S
H529 C542 0.930 . S
H530 C543 0.930 . S
H531 C547 0.959 . S
H532 C547 0.959 . S
H533 C547 0.961 . S
H534 C548 0.960 . S
H535 C548 0.961 . S
H536 C548 0.959 . S
H537 C551 0.929 . S
H538 C552 0.931 . S
H539 C554 0.930 . S
C540 H528 0.930 . S
C540 C541 1.399 . S
C540 C545 1.399 . S
C541 C540 1.399 . S
C541 C542 1.376 . S
C542 H529 0.930 . S
C542 C541 1.376 . S
C542 C543 1.388 . S
C543 H530 0.930 . S
C543 C542 1.388 . S
C543 C544 1.390 . S
C544 C543 1.390 . S
C544 C545 1.394 . S
C544 C550 1.465 . S
C545 C540 1.399 . S
C545 C544 1.394 . S
C545 C546 1.516 . S
C546 C545 1.516 . S
C546 C547 1.502 . S
C546 C548 1.561 . S
C546 C549 1.526 . S
C547 H531 0.959 . S
C547 H532 0.959 . S
C547 H533 0.961 . S
C547 C546 1.502 . S
C548 H534 0.960 . S
C548 H535 0.961 . S
C548 H536 0.959 . S
C548 C546 1.561 . S
C549 C546 1.526 . S
C549 C550 1.396 . S
C549 C554 1.390 . S
C550 C544 1.465 . S
C550 C549 1.396 . S
C550 C551 1.399 . S
C551 H537 0.929 . S
C551 C550 1.399 . S
C551 C552 1.385 . S
C552 H538 0.931 . S
C552 C551 1.385 . S
C552 C553 1.389 . S
C553 C552 1.389 . S
C553 C554 1.387 . S
C554 H539 0.930 . S
C554 C549 1.390 . S
C554 C553 1.387 . S
H555 C567 0.930 . S
H556 C569 0.930 . S
H557 C570 0.930 . S
H558 C574 0.959 . S
H559 C574 0.959 1_655 S
H560 C574 0.960 1_655 S
H561 C575 0.960 . S
H562 C575 0.961 . S
H563 C575 0.959 . S
H564 C578 0.929 . S
H565 C579 0.931 . S
H566 C581 0.930 . S
C567 H555 0.930 . S
C567 C568 1.399 . S
C567 C572 1.399 . S
C568 C567 1.399 . S
C568 C569 1.376 . S
C569 H556 0.930 . S
C569 C568 1.376 . S
C569 C570 1.388 . S
C570 H557 0.930 . S
C570 C569 1.388 . S
C570 C571 1.390 . S
C571 C570 1.390 . S
C571 C572 1.394 . S
C571 C577 1.465 . S
C572 C567 1.399 . S
C572 C571 1.394 . S
C572 C573 1.516 . S
C573 C572 1.516 . S
C573 C574 1.502 . S
C573 C575 1.561 . S
C573 C576 1.526 . S
C574 H558 0.959 . S
C574 H559 0.959 1_455 S
C574 H560 0.960 1_455 S
C574 C573 1.502 . S
C575 H561 0.960 . S
C575 H562 0.961 . S
C575 H563 0.959 . S
C575 C573 1.561 . S
C576 C573 1.526 . S
C576 C577 1.396 . S
C576 C581 1.390 . S
C577 C571 1.465 . S
C577 C576 1.396 . S
C577 C578 1.399 . S
C578 H564 0.929 . S
C578 C577 1.399 . S
C578 C579 1.385 . S
C579 H565 0.931 . S
C579 C578 1.385 . S
C579 C580 1.389 . S
C580 C579 1.389 . S
C580 C581 1.387 . S
C581 H566 0.930 . S
C581 C576 1.390 . S
C581 C580 1.387 . S
H582 C594 0.930 . S
H583 C596 0.930 . S
H584 C597 0.930 . S
H585 C601 0.959 . S
H586 C601 0.959 . S
H587 C601 0.961 . S
H588 C602 0.960 . S
H589 C602 0.961 . S
H590 C602 0.959 . S
H591 C605 0.929 . S
H592 C606 0.931 . S
H593 C608 0.930 . S
C594 H582 0.930 . S
C594 C595 1.399 . S
C594 C599 1.399 . S
C595 C594 1.399 . S
C595 C596 1.376 . S
C596 H583 0.930 . S
C596 C595 1.376 . S
C596 C597 1.388 . S
C597 H584 0.930 . S
C597 C596 1.388 . S
C597 C598 1.390 . S
C598 C597 1.390 . S
C598 C599 1.394 . S
C598 C604 1.465 . S
C599 C594 1.399 . S
C599 C598 1.394 . S
C599 C600 1.516 . S
C600 C599 1.516 . S
C600 C601 1.502 . S
C600 C602 1.561 . S
C600 C603 1.526 . S
C601 H585 0.959 . S
C601 H586 0.959 . S
C601 H587 0.961 . S
C601 C600 1.502 . S
C602 H588 0.960 . S
C602 H589 0.961 . S
C602 H590 0.959 . S
C602 C600 1.561 . S
C603 C600 1.526 . S
C603 C604 1.396 . S
C603 C608 1.390 . S
C604 C598 1.465 . S
C604 C603 1.396 . S
C604 C605 1.399 . S
C605 H591 0.929 . S
C605 C604 1.399 . S
C605 C606 1.385 . S
C606 H592 0.931 . S
C606 C605 1.385 . S
C606 C607 1.389 . S
C607 C606 1.389 . S
C607 C608 1.387 . S
C608 H593 0.930 . S
C608 C603 1.390 . S
C608 C607 1.387 . S
H609 C621 0.930 . S
H610 C623 0.930 . S
H611 C624 0.930 . S
H612 C628 0.959 . S
H613 C628 0.959 . S
H614 C628 0.961 . S
H615 C629 0.960 . S
H616 C629 0.961 . S
H617 C629 0.959 . S
H618 C632 0.929 . S
H619 C633 0.931 . S
H620 C635 0.930 . S
C621 H609 0.930 . S
C621 C622 1.399 . S
C621 C626 1.399 . S
C622 C621 1.399 . S
C622 C623 1.376 . S
C623 H610 0.930 . S
C623 C622 1.376 . S
C623 C624 1.388 . S
C624 H611 0.930 . S
C624 C623 1.388 . S
C624 C625 1.390 . S
C625 C624 1.390 . S
C625 C626 1.394 . S
C625 C631 1.465 . S
C626 C621 1.399 . S
C626 C625 1.394 . S
C626 C627 1.516 . S
C627 C626 1.516 . S
C627 C628 1.502 . S
C627 C629 1.561 . S
C627 C630 1.526 . S
C628 H612 0.959 . S
C628 H613 0.959 . S
C628 H614 0.961 . S
C628 C627 1.502 . S
C629 H615 0.960 . S
C629 H616 0.961 . S
C629 H617 0.959 . S
C629 C627 1.561 . S
C630 C627 1.526 . S
C630 C631 1.396 . S
C630 C635 1.390 . S
C631 C625 1.465 . S
C631 C630 1.396 . S
C631 C632 1.399 . S
C632 H618 0.929 . S
C632 C631 1.399 . S
C632 C633 1.385 . S
C633 H619 0.931 . S
C633 C632 1.385 . S
C633 C634 1.389 . S
C634 C633 1.389 . S
C634 C635 1.387 . S
C635 H620 0.930 . S
C635 C630 1.390 . S
C635 C634 1.387 . S
H636 C648 0.930 . S
H637 C650 0.930 . S
H638 C651 0.930 . S
H639 C655 0.959 . S
H640 C655 0.959 . S
H641 C655 0.961 . S
H642 C656 0.960 . S
H643 C656 0.961 . S
H644 C656 0.959 . S
H645 C659 0.929 . S
H646 C660 0.931 . S
H647 C662 0.930 . S
C648 H636 0.930 . S
C648 C649 1.399 . S
C648 C653 1.399 . S
C649 C648 1.399 . S
C649 C650 1.376 . S
C650 H637 0.930 . S
C650 C649 1.376 . S
C650 C651 1.388 . S
C651 H638 0.930 . S
C651 C650 1.388 . S
C651 C652 1.390 . S
C652 C651 1.390 . S
C652 C653 1.394 . S
C652 C658 1.465 . S
C653 C648 1.399 . S
C653 C652 1.394 . S
C653 C654 1.516 . S
C654 C653 1.516 . S
C654 C655 1.502 . S
C654 C656 1.561 . S
C654 C657 1.526 . S
C655 H639 0.959 . S
C655 H640 0.959 . S
C655 H641 0.961 . S
C655 C654 1.502 . S
C656 H642 0.960 . S
C656 H643 0.961 . S
C656 H644 0.959 . S
C656 C654 1.561 . S
C657 C654 1.526 . S
C657 C658 1.396 . S
C657 C662 1.390 . S
C658 C652 1.465 . S
C658 C657 1.396 . S
C658 C659 1.399 . S
C659 H645 0.929 . S
C659 C658 1.399 . S
C659 C660 1.385 . S
C660 H646 0.931 . S
C660 C659 1.385 . S
C660 C661 1.389 . S
C661 C660 1.389 . S
C661 C662 1.387 . S
C662 H647 0.930 . S
C662 C657 1.390 . S
C662 C661 1.387 . S
H663 C675 0.930 . S
H664 C677 0.930 . S
H665 C678 0.930 . S
H666 C682 0.959 . S
H667 C682 0.959 . S
H668 C682 0.961 . S
H669 C683 0.960 . S
H670 C683 0.961 . S
H671 C683 0.959 . S
H672 C686 0.929 . S
H673 C687 0.931 . S
H674 C689 0.930 . S
C675 H663 0.930 . S
C675 C676 1.399 . S
C675 C680 1.399 . S
C676 C675 1.399 . S
C676 C677 1.376 . S
C677 H664 0.930 . S
C677 C676 1.376 . S
C677 C678 1.388 . S
C678 H665 0.930 . S
C678 C677 1.388 . S
C678 C679 1.390 . S
C679 C678 1.390 . S
C679 C680 1.394 . S
C679 C685 1.465 . S
C680 C675 1.399 . S
C680 C679 1.394 . S
C680 C681 1.516 . S
C681 C680 1.516 . S
C681 C682 1.502 . S
C681 C683 1.561 . S
C681 C684 1.526 . S
C682 H666 0.959 . S
C682 H667 0.959 . S
C682 H668 0.961 . S
C682 C681 1.502 . S
C683 H669 0.960 . S
C683 H670 0.961 . S
C683 H671 0.959 . S
C683 C681 1.561 . S
C684 C681 1.526 . S
C684 C685 1.396 . S
C684 C689 1.390 . S
C685 C679 1.465 . S
C685 C684 1.396 . S
C685 C686 1.399 . S
C686 H672 0.929 . S
C686 C685 1.399 . S
C686 C687 1.385 . S
C687 H673 0.931 . S
C687 C686 1.385 . S
C687 C688 1.389 . S
C688 C687 1.389 . S
C688 C689 1.387 . S
C689 H674 0.930 . S
C689 C684 1.390 . S
C689 C688 1.387 . S
H690 C702 0.930 . S
H691 C704 0.930 . S
H692 C705 0.930 . S
H693 C709 0.959 . S
H694 C709 0.959 . S
H695 C709 0.961 . S
H696 C710 0.960 . S
H697 C710 0.961 . S
H698 C710 0.959 . S
H699 C713 0.929 . S
H700 C714 0.931 . S
H701 C716 0.930 . S
C702 H690 0.930 . S
C702 C703 1.399 . S
C702 C707 1.399 . S
C703 C702 1.399 . S
C703 C704 1.376 . S
C704 H691 0.930 . S
C704 C703 1.376 . S
C704 C705 1.388 . S
C705 H692 0.930 . S
C705 C704 1.388 . S
C705 C706 1.390 . S
C706 C705 1.390 . S
C706 C707 1.394 . S
C706 C712 1.465 . S
C707 C702 1.399 . S
C707 C706 1.394 . S
C707 C708 1.516 . S
C708 C707 1.516 . S
C708 C709 1.502 . S
C708 C710 1.561 . S
C708 C711 1.526 . S
C709 H693 0.959 . S
C709 H694 0.959 . S
C709 H695 0.961 . S
C709 C708 1.502 . S
C710 H696 0.960 . S
C710 H697 0.961 . S
C710 H698 0.959 . S
C710 C708 1.561 . S
C711 C708 1.526 . S
C711 C712 1.396 . S
C711 C716 1.390 . S
C712 C706 1.465 . S
C712 C711 1.396 . S
C712 C713 1.399 . S
C713 H699 0.929 . S
C713 C712 1.399 . S
C713 C714 1.385 . S
C714 H700 0.931 . S
C714 C713 1.385 . S
C714 C715 1.389 . S
C715 C714 1.389 . S
C715 C716 1.387 . S
C716 H701 0.930 . S
C716 C711 1.390 . S
C716 C715 1.387 . S
H717 C729 0.930 . S
H718 C731 0.930 . S
H719 C732 0.930 . S
H720 C736 0.959 . S
H721 C736 0.959 . S
H722 C736 0.961 . S
H723 C737 0.960 . S
H724 C737 0.961 . S
H725 C737 0.959 . S
H726 C740 0.929 . S
H727 C741 0.931 . S
H728 C743 0.930 . S
C729 H717 0.930 . S
C729 C730 1.399 . S
C729 C734 1.399 . S
C730 C729 1.399 . S
C730 C731 1.376 . S
C731 H718 0.930 . S
C731 C730 1.376 . S
C731 C732 1.388 . S
C732 H719 0.930 . S
C732 C731 1.388 . S
C732 C733 1.390 . S
C733 C732 1.390 . S
C733 C734 1.394 . S
C733 C739 1.465 . S
C734 C729 1.399 . S
C734 C733 1.394 . S
C734 C735 1.516 . S
C735 C734 1.516 . S
C735 C736 1.502 . S
C735 C737 1.561 . S
C735 C738 1.526 . S
C736 H720 0.959 . S
C736 H721 0.959 . S
C736 H722 0.961 . S
C736 C735 1.502 . S
C737 H723 0.960 . S
C737 H724 0.961 . S
C737 H725 0.959 . S
C737 C735 1.561 . S
C738 C735 1.526 . S
C738 C739 1.396 . S
C738 C743 1.390 . S
C739 C733 1.465 . S
C739 C738 1.396 . S
C739 C740 1.399 . S
C740 H726 0.929 . S
C740 C739 1.399 . S
C740 C741 1.385 . S
C741 H727 0.931 . S
C741 C740 1.385 . S
C741 C742 1.389 . S
C742 C741 1.389 . S
C742 C743 1.387 . S
C743 H728 0.930 . S
C743 C738 1.390 . S
C743 C742 1.387 . S
H744 C756 0.930 . S
H745 C758 0.930 . S
H746 C759 0.930 . S
H747 C763 0.959 . S
H748 C763 0.959 . S
H749 C763 0.961 . S
H750 C764 0.960 . S
H751 C764 0.961 . S
H752 C764 0.959 . S
H753 C767 0.929 . S
H754 C768 0.931 . S
H755 C770 0.930 . S
C756 H744 0.930 . S
C756 C757 1.399 . S
C756 C761 1.399 . S
C757 C756 1.399 . S
C757 C758 1.376 . S
C758 H745 0.930 . S
C758 C757 1.376 . S
C758 C759 1.388 . S
C759 H746 0.930 . S
C759 C758 1.388 . S
C759 C760 1.390 . S
C760 C759 1.390 . S
C760 C761 1.394 . S
C760 C766 1.465 . S
C761 C756 1.399 . S
C761 C760 1.394 . S
C761 C762 1.516 . S
C762 C761 1.516 . S
C762 C763 1.502 . S
C762 C764 1.561 . S
C762 C765 1.526 . S
C763 H747 0.959 . S
C763 H748 0.959 . S
C763 H749 0.961 . S
C763 C762 1.502 . S
C764 H750 0.960 . S
C764 H751 0.961 . S
C764 H752 0.959 . S
C764 C762 1.561 . S
C765 C762 1.526 . S
C765 C766 1.396 . S
C765 C770 1.390 . S
C766 C760 1.465 . S
C766 C765 1.396 . S
C766 C767 1.399 . S
C767 H753 0.929 . S
C767 C766 1.399 . S
C767 C768 1.385 . S
C768 H754 0.931 . S
C768 C767 1.385 . S
C768 C769 1.389 . S
C769 C768 1.389 . S
C769 C770 1.387 . S
C770 H755 0.930 . S
C770 C765 1.390 . S
C770 C769 1.387 . S
H771 C783 0.930 . S
H772 C785 0.930 . S
H773 C786 0.930 . S
H774 C790 0.959 . S
H775 C790 0.959 . S
H776 C790 0.961 . S
H777 C791 0.960 . S
H778 C791 0.961 . S
H779 C791 0.959 . S
H780 C794 0.929 . S
H781 C795 0.931 . S
H782 C797 0.930 . S
C783 H771 0.930 . S
C783 C784 1.399 . S
C783 C788 1.399 . S
C784 C783 1.399 . S
C784 C785 1.376 . S
C785 H772 0.930 . S
C785 C784 1.376 . S
C785 C786 1.388 . S
C786 H773 0.930 . S
C786 C785 1.388 . S
C786 C787 1.390 . S
C787 C786 1.390 . S
C787 C788 1.394 . S
C787 C793 1.465 . S
C788 C783 1.399 . S
C788 C787 1.394 . S
C788 C789 1.516 . S
C789 C788 1.516 . S
C789 C790 1.502 . S
C789 C791 1.561 . S
C789 C792 1.526 . S
C790 H774 0.959 . S
C790 H775 0.959 . S
C790 H776 0.961 . S
C790 C789 1.502 . S
C791 H777 0.960 . S
C791 H778 0.961 . S
C791 H779 0.959 . S
C791 C789 1.561 . S
C792 C789 1.526 . S
C792 C793 1.396 . S
C792 C797 1.390 . S
C793 C787 1.465 . S
C793 C792 1.396 . S
C793 C794 1.399 . S
C794 H780 0.929 . S
C794 C793 1.399 . S
C794 C795 1.385 . S
C795 H781 0.931 . S
C795 C794 1.385 . S
C795 C796 1.389 . S
C796 C795 1.389 . S
C796 C797 1.387 . S
C797 H782 0.930 . S
C797 C792 1.390 . S
C797 C796 1.387 . S
H798 C810 0.930 . S
H799 C812 0.930 . S
H800 C813 0.930 . S
H801 C817 0.959 . S
H802 C817 0.959 . S
H803 C817 0.961 . S
H804 C818 0.960 . S
H805 C818 0.961 . S
H806 C818 0.959 . S
H807 C821 0.929 . S
H808 C822 0.931 . S
H809 C824 0.930 . S
C810 H798 0.930 . S
C810 C811 1.399 . S
C810 C815 1.399 . S
C811 C810 1.399 . S
C811 C812 1.376 . S
C812 H799 0.930 . S
C812 C811 1.376 . S
C812 C813 1.388 . S
C813 H800 0.930 . S
C813 C812 1.388 . S
C813 C814 1.390 . S
C814 C813 1.390 . S
C814 C815 1.394 . S
C814 C820 1.465 . S
C815 C810 1.399 . S
C815 C814 1.394 . S
C815 C816 1.516 . S
C816 C815 1.516 . S
C816 C817 1.502 . S
C816 C818 1.561 . S
C816 C819 1.526 . S
C817 H801 0.959 . S
C817 H802 0.959 . S
C817 H803 0.961 . S
C817 C816 1.502 . S
C818 H804 0.960 . S
C818 H805 0.961 . S
C818 H806 0.959 . S
C818 C816 1.561 . S
C819 C816 1.526 . S
C819 C820 1.396 . S
C819 C824 1.390 . S
C820 C814 1.465 . S
C820 C819 1.396 . S
C820 C821 1.399 . S
C821 H807 0.929 . S
C821 C820 1.399 . S
C821 C822 1.385 . S
C822 H808 0.931 . S
C822 C821 1.385 . S
C822 C823 1.389 . S
C823 C822 1.389 . S
C823 C824 1.387 . S
C824 H809 0.930 . S
C824 C819 1.390 . S
C824 C823 1.387 . S
H825 C837 0.930 . S
H826 C839 0.930 . S
H827 C840 0.930 . S
H828 C844 0.959 . S
H829 C844 0.959 . S
H830 C844 0.961 . S
H831 C845 0.960 . S
H832 C845 0.961 . S
H833 C845 0.959 . S
H834 C848 0.929 . S
H835 C849 0.931 . S
H836 C851 0.930 . S
C837 H825 0.930 . S
C837 C838 1.399 . S
C837 C842 1.399 . S
C838 C837 1.399 . S
C838 C839 1.376 . S
C839 H826 0.930 . S
C839 C838 1.376 . S
C839 C840 1.388 . S
C840 H827 0.930 . S
C840 C839 1.388 . S
C840 C841 1.390 . S
C841 C840 1.390 . S
C841 C842 1.394 . S
C841 C847 1.465 . S
C842 C837 1.399 . S
C842 C841 1.394 . S
C842 C843 1.516 . S
C843 C842 1.516 . S
C843 C844 1.502 . S
C843 C845 1.561 . S
C843 C846 1.526 . S
C844 H828 0.959 . S
C844 H829 0.959 . S
C844 H830 0.961 . S
C844 C843 1.502 . S
C845 H831 0.960 . S
C845 H832 0.961 . S
C845 H833 0.959 . S
C845 C843 1.561 . S
C846 C843 1.526 . S
C846 C847 1.396 . S
C846 C851 1.390 . S
C847 C841 1.465 . S
C847 C846 1.396 . S
C847 C848 1.399 . S
C848 H834 0.929 . S
C848 C847 1.399 . S
C848 C849 1.385 . S
C849 H835 0.931 . S
C849 C848 1.385 . S
C849 C850 1.389 . S
C850 C849 1.389 . S
C850 C851 1.387 . S
C851 H836 0.930 . S
C851 C846 1.390 . S
C851 C850 1.387 . S
H852 C864 0.930 . S
H853 C866 0.930 . S
H854 C867 0.930 . S
H855 C871 0.959 . S
H856 C871 0.959 . S
H857 C871 0.961 . S
H858 C872 0.960 . S
H859 C872 0.961 . S
H860 C872 0.959 . S
H861 C875 0.929 . S
H862 C876 0.931 . S
H863 C878 0.930 . S
C864 H852 0.930 . S
C864 C865 1.399 . S
C864 C869 1.399 . S
C865 C864 1.399 . S
C865 C866 1.376 . S
C866 H853 0.930 . S
C866 C865 1.376 . S
C866 C867 1.388 . S
C867 H854 0.930 . S
C867 C866 1.388 . S
C867 C868 1.390 . S
C868 C867 1.390 . S
C868 C869 1.394 . S
C868 C874 1.465 . S
C869 C864 1.399 . S
C869 C868 1.394 . S
C869 C870 1.516 . S
C870 C869 1.516 . S
C870 C871 1.502 . S
C870 C872 1.561 . S
C870 C873 1.526 . S
C871 H855 0.959 . S
C871 H856 0.959 . S
C871 H857 0.961 . S
C871 C870 1.502 . S
C872 H858 0.960 . S
C872 H859 0.961 . S
C872 H860 0.959 . S
C872 C870 1.561 . S
C873 C870 1.526 . S
C873 C874 1.396 . S
C873 C878 1.390 . S
C874 C868 1.465 . S
C874 C873 1.396 . S
C874 C875 1.399 . S
C875 H861 0.929 . S
C875 C874 1.399 . S
C875 C876 1.385 . S
C876 H862 0.931 . S
C876 C875 1.385 . S
C876 C877 1.389 . S
C877 C876 1.389 . S
C877 C878 1.387 . S
C878 H863 0.930 . S
C878 C873 1.390 . S
C878 C877 1.387 . S
H879 C891 0.930 . S
H880 C893 0.930 . S
H881 C894 0.930 . S
H882 C898 0.959 . S
H883 C898 0.959 . S
H884 C898 0.961 . S
H885 C899 0.960 . S
H886 C899 0.961 . S
H887 C899 0.959 . S
H888 C902 0.929 . S
H889 C903 0.931 . S
H890 C905 0.930 . S
C891 H879 0.930 . S
C891 C892 1.399 . S
C891 C896 1.399 . S
C892 C891 1.399 . S
C892 C893 1.376 . S
C893 H880 0.930 . S
C893 C892 1.376 . S
C893 C894 1.388 . S
C894 H881 0.930 . S
C894 C893 1.388 . S
C894 C895 1.390 . S
C895 C894 1.390 . S
C895 C896 1.394 . S
C895 C901 1.465 . S
C896 C891 1.399 . S
C896 C895 1.394 . S
C896 C897 1.516 . S
C897 C896 1.516 . S
C897 C898 1.502 . S
C897 C899 1.561 . S
C897 C900 1.526 . S
C898 H882 0.959 . S
C898 H883 0.959 . S
C898 H884 0.961 . S
C898 C897 1.502 . S
C899 H885 0.960 . S
C899 H886 0.961 . S
C899 H887 0.959 . S
C899 C897 1.561 . S
C900 C897 1.526 . S
C900 C901 1.396 . S
C900 C905 1.390 . S
C901 C895 1.465 . S
C901 C900 1.396 . S
C901 C902 1.399 . S
C902 H888 0.929 . S
C902 C901 1.399 . S
C902 C903 1.385 . S
C903 H889 0.931 . S
C903 C902 1.385 . S
C903 C904 1.389 . S
C904 C903 1.389 . S
C904 C905 1.387 . S
C905 H890 0.930 . S
C905 C900 1.390 . S
C905 C904 1.387 . S
H906 C918 0.930 . S
H907 C920 0.930 . S
H908 C921 0.930 . S
H909 C925 0.959 . S
H910 C925 0.959 . S
H911 C925 0.961 . S
H912 C926 0.960 . S
H913 C926 0.961 . S
H914 C926 0.959 . S
H915 C929 0.929 . S
H916 C930 0.931 . S
H917 C932 0.930 . S
C918 H906 0.930 . S
C918 C919 1.399 . S
C918 C923 1.399 . S
C919 C918 1.399 . S
C919 C920 1.376 . S
C920 H907 0.930 . S
C920 C919 1.376 . S
C920 C921 1.388 . S
C921 H908 0.930 . S
C921 C920 1.388 . S
C921 C922 1.390 . S
C922 C921 1.390 . S
C922 C923 1.394 . S
C922 C928 1.465 . S
C923 C918 1.399 . S
C923 C922 1.394 . S
C923 C924 1.516 . S
C924 C923 1.516 . S
C924 C925 1.502 . S
C924 C926 1.561 . S
C924 C927 1.526 . S
C925 H909 0.959 . S
C925 H910 0.959 . S
C925 H911 0.961 . S
C925 C924 1.502 . S
C926 H912 0.960 . S
C926 H913 0.961 . S
C926 H914 0.959 . S
C926 C924 1.561 . S
C927 C924 1.526 . S
C927 C928 1.396 . S
C927 C932 1.390 . S
C928 C922 1.465 . S
C928 C927 1.396 . S
C928 C929 1.399 . S
C929 H915 0.929 . S
C929 C928 1.399 . S
C929 C930 1.385 . S
C930 H916 0.931 . S
C930 C929 1.385 . S
C930 C931 1.389 . S
C931 C930 1.389 . S
C931 C932 1.387 . S
C932 H917 0.930 . S
C932 C927 1.390 . S
C932 C931 1.387 . S
H933 C945 0.930 . S
H934 C947 0.930 . S
H935 C948 0.930 . S
H936 C952 0.959 . S
H937 C952 0.959 . S
H938 C952 0.961 . S
H939 C953 0.960 . S
H940 C953 0.961 . S
H941 C953 0.959 . S
H942 C956 0.929 . S
H943 C957 0.931 . S
H944 C959 0.930 . S
C945 H933 0.930 . S
C945 C946 1.399 . S
C945 C950 1.399 . S
C946 C945 1.399 . S
C946 C947 1.376 . S
C947 H934 0.930 . S
C947 C946 1.376 . S
C947 C948 1.388 . S
C948 H935 0.930 . S
C948 C947 1.388 . S
C948 C949 1.390 . S
C949 C948 1.390 . S
C949 C950 1.394 . S
C949 C955 1.465 . S
C950 C945 1.399 . S
C950 C949 1.394 . S
C950 C951 1.516 . S
C951 C950 1.516 . S
C951 C952 1.502 . S
C951 C953 1.561 . S
C951 C954 1.526 . S
C952 H936 0.959 . S
C952 H937 0.959 . S
C952 H938 0.961 . S
C952 C951 1.502 . S
C953 H939 0.960 . S
C953 H940 0.961 . S
C953 H941 0.959 . S
C953 C951 1.561 . S
C954 C951 1.526 . S
C954 C955 1.396 . S
C954 C959 1.390 . S
C955 C949 1.465 . S
C955 C954 1.396 . S
C955 C956 1.399 . S
C956 H942 0.929 . S
C956 C955 1.399 . S
C956 C957 1.385 . S
C957 H943 0.931 . S
C957 C956 1.385 . S
C957 C958 1.389 . S
C958 C957 1.389 . S
C958 C959 1.387 . S
C959 H944 0.930 . S
C959 C954 1.390 . S
C959 C958 1.387 . S
H960 C972 0.930 1_545 S
H961 C974 0.930 . S
H962 C975 0.930 . S
H963 C979 0.959 . S
H964 C979 0.959 . S
H965 C979 0.961 . S
H966 C980 0.960 . S
H967 C980 0.961 . S
H968 C980 0.959 . S
H969 C983 0.929 . S
H970 C984 0.931 . S
H971 C986 0.930 . S
C972 H960 0.930 1_565 S
C972 C973 1.399 . S
C972 C977 1.399 1_565 S
C973 C972 1.399 . S
C973 C974 1.376 . S
C974 H961 0.930 . S
C974 C973 1.376 . S
C974 C975 1.388 . S
C975 H962 0.930 . S
C975 C974 1.388 . S
C975 C976 1.390 . S
C976 C975 1.390 . S
C976 C977 1.394 1_565 S
C976 C982 1.465 1_556 S
C977 C972 1.399 1_545 S
C977 C976 1.394 1_545 S
C977 C978 1.516 . S
C978 C977 1.516 . S
C978 C979 1.502 . S
C978 C980 1.561 . S
C978 C981 1.526 1_556 S
C979 H963 0.959 . S
C979 H964 0.959 . S
C979 H965 0.961 . S
C979 C978 1.502 . S
C980 H966 0.960 . S
C980 H967 0.961 . S
C980 H968 0.959 . S
C980 C978 1.561 . S
C981 C978 1.526 1_554 S
C981 C982 1.396 1_545 S
C981 C986 1.390 . S
C982 C976 1.465 1_554 S
C982 C981 1.396 1_565 S
C982 C983 1.399 . S
C983 H969 0.929 . S
C983 C982 1.399 . S
C983 C984 1.385 . S
C984 H970 0.931 . S
C984 C983 1.385 . S
C984 C985 1.389 1_565 S
C985 C984 1.389 1_545 S
C985 C986 1.387 . S
C986 H971 0.930 . S
C986 C981 1.390 . S
C986 C985 1.387 . S
H987 C999 0.930 . S
H988 C1001 0.930 . S
H989 C1002 0.930 . S
H990 C1006 0.959 . S
H991 C1006 0.959 . S
H992 C1006 0.961 . S
H993 C1007 0.960 . S
H994 C1007 0.961 . S
H995 C1007 0.959 . S
H996 C1010 0.929 . S
H997 C1011 0.931 . S
H998 C1013 0.930 . S
C999 H987 0.930 . S
C999 C1000 1.399 . S
C999 C1004 1.399 . S
C1000 C999 1.399 . S
C1000 C1001 1.376 . S
C1001 H988 0.930 . S
C1001 C1000 1.376 . S
C1001 C1002 1.388 . S
C1002 H989 0.930 . S
C1002 C1001 1.388 . S
C1002 C1003 1.390 . S
C1003 C1002 1.390 . S
C1003 C1004 1.394 . S
C1003 C1009 1.465 . S
C1004 C999 1.399 . S
C1004 C1003 1.394 . S
C1004 C1005 1.516 . S
C1005 C1004 1.516 . S
C1005 C1006 1.502 . S
C1005 C1007 1.561 . S
C1005 C1008 1.526 . S
C1006 H990 0.959 . S
C1006 H991 0.959 . S
C1006 H992 0.961 . S
C1006 C1005 1.502 . S
C1007 H993 0.960 . S
C1007 H994 0.961 . S
C1007 H995 0.959 . S
C1007 C1005 1.561 . S
C1008 C1005 1.526 . S
C1008 C1009 1.396 . S
C1008 C1013 1.390 . S
C1009 C1003 1.465 . S
C1009 C1008 1.396 . S
C1009 C1010 1.399 . S
C1010 H996 0.929 . S
C1010 C1009 1.399 . S
C1010 C1011 1.385 . S
C1011 H997 0.931 . S
C1011 C1010 1.385 . S
C1011 C1012 1.389 . S
C1012 C1011 1.389 . S
C1012 C1013 1.387 . S
C1013 H998 0.930 . S
C1013 C1008 1.390 . S
C1013 C1012 1.387 . S
H1014 C1026 0.930 . S
H1015 C1028 0.930 1_655 S
H1016 C1029 0.930 . S
H1017 C1033 0.959 . S
H1018 C1033 0.959 . S
H1019 C1033 0.961 . S
H1020 C1034 0.960 1_556 S
H1021 C1034 0.961 . S
H1022 C1034 0.959 1_656 S
H1023 C1037 0.929 . S
H1024 C1038 0.931 . S
H1025 C1040 0.927 1_455 S
C1026 H1014 0.930 . S
C1026 C1027 1.399 . S
C1026 C1031 1.399 . S
C1027 C1026 1.399 . S
C1027 C1028 1.376 . S
C1028 H1015 0.930 1_455 S
C1028 C1027 1.376 . S
C1028 C1029 1.388 1_455 S
C1029 H1016 0.930 . S
C1029 C1028 1.388 1_655 S
C1029 C1030 1.390 . S
C1030 C1029 1.390 . S
C1030 C1031 1.394 1_655 S
C1030 C1036 1.465 1_556 S
C1031 C1026 1.399 . S
C1031 C1030 1.394 1_455 S
C1031 C1032 1.516 1_556 S
C1032 C1031 1.516 1_554 S
C1032 C1033 1.502 . S
C1032 C1034 1.561 . S
C1032 C1035 1.526 1_455 S
C1033 H1017 0.959 . S
C1033 H1018 0.959 . S
C1033 H1019 0.961 . S
C1033 C1032 1.502 . S
C1034 H1020 0.960 1_554 S
C1034 H1021 0.961 . S
C1034 H1022 0.959 1_454 S
C1034 C1032 1.561 . S
C1035 C1032 1.526 1_655 S
C1035 C1036 1.396 . S
C1035 C1040 1.390 . S
C1036 C1030 1.465 1_554 S
C1036 C1035 1.396 . S
C1036 C1037 1.399 . S
C1037 H1023 0.929 . S
C1037 C1036 1.399 . S
C1037 C1038 1.385 . S
C1038 H1024 0.931 . S
C1038 C1037 1.385 . S
C1038 C1039 1.389 . S
C1039 C1038 1.389 . S
C1039 C1040 1.387 . S
C1040 H1025 0.927 1_655 S
C1040 C1035 1.390 . S
C1040 C1039 1.387 . S
H1041 C1053 0.930 . S
H1042 C1055 0.930 1_565 S
H1043 C1056 0.930 . S
H1044 C1060 0.959 . S
H1045 C1060 0.959 . S
H1046 C1060 0.961 . S
H1047 C1061 0.960 . S
H1048 C1061 0.961 . S
H1049 C1061 0.959 . S
H1050 C1064 0.929 . S
H1051 C1065 0.931 . S
H1052 C1067 0.930 1_545 S
C1053 H1041 0.930 . S
C1053 C1054 1.399 . S
C1053 C1058 1.399 . S
C1054 C1053 1.399 . S
C1054 C1055 1.376 . S
C1055 H1042 0.930 1_545 S
C1055 C1054 1.376 . S
C1055 C1056 1.388 1_545 S
C1056 H1043 0.930 . S
C1056 C1055 1.388 1_565 S
C1056 C1057 1.390 . S
C1057 C1056 1.390 . S
C1057 C1058 1.394 1_565 S
C1057 C1063 1.465 . S
C1058 C1053 1.399 . S
C1058 C1057 1.394 1_545 S
C1058 C1059 1.516 . S
C1059 C1058 1.516 . S
C1059 C1060 1.502 . S
C1059 C1061 1.561 . S
C1059 C1062 1.526 . S
C1060 H1044 0.959 . S
C1060 H1045 0.959 . S
C1060 H1046 0.961 . S
C1060 C1059 1.502 . S
C1061 H1047 0.960 . S
C1061 H1048 0.961 . S
C1061 H1049 0.959 . S
C1061 C1059 1.561 . S
C1062 C1059 1.526 . S
C1062 C1063 1.396 1_545 S
C1062 C1067 1.390 1_545 S
C1063 C1057 1.465 . S
C1063 C1062 1.396 1_565 S
C1063 C1064 1.399 . S
C1064 H1050 0.929 . S
C1064 C1063 1.399 . S
C1064 C1065 1.385 . S
C1065 H1051 0.931 . S
C1065 C1064 1.385 . S
C1065 C1066 1.389 . S
C1066 C1065 1.389 . S
C1066 C1067 1.387 . S
C1067 H1052 0.930 1_565 S
C1067 C1062 1.390 1_565 S
C1067 C1066 1.387 . S
H1068 C1080 0.930 . S
H1069 C1082 0.930 . S
H1070 C1083 0.930 . S
H1071 C1087 0.959 . S
H1072 C1087 0.959 . S
H1073 C1087 0.961 . S
H1074 C1088 0.960 . S
H1075 C1088 0.961 1_556 S
H1076 C1088 0.959 1_556 S
H1077 C1091 0.929 . S
H1078 C1092 0.931 . S
H1079 C1094 0.930 . S
C1080 H1068 0.930 . S
C1080 C1081 1.399 . S
C1080 C1085 1.399 . S
C1081 C1080 1.399 . S
C1081 C1082 1.376 . S
C1082 H1069 0.930 . S
C1082 C1081 1.376 . S
C1082 C1083 1.388 . S
C1083 H1070 0.930 . S
C1083 C1082 1.388 . S
C1083 C1084 1.390 . S
C1084 C1083 1.390 . S
C1084 C1085 1.394 . S
C1084 C1090 1.465 1_554 S
C1085 C1080 1.399 . S
C1085 C1084 1.394 . S
C1085 C1086 1.516 . S
C1086 C1085 1.516 . S
C1086 C1087 1.502 . S
C1086 C1088 1.561 . S
C1086 C1089 1.526 1_554 S
C1087 H1071 0.959 . S
C1087 H1072 0.959 . S
C1087 H1073 0.961 . S
C1087 C1086 1.502 . S
C1088 H1074 0.960 . S
C1088 H1075 0.961 1_554 S
C1088 H1076 0.959 1_554 S
C1088 C1086 1.561 . S
C1089 C1086 1.526 1_556 S
C1089 C1090 1.396 . S
C1089 C1094 1.390 . S
C1090 C1084 1.465 1_556 S
C1090 C1089 1.396 . S
C1090 C1091 1.399 . S
C1091 H1077 0.929 . S
C1091 C1090 1.399 . S
C1091 C1092 1.385 . S
C1092 H1078 0.931 . S
C1092 C1091 1.385 . S
C1092 C1093 1.389 . S
C1093 C1092 1.389 . S
C1093 C1094 1.387 . S
C1094 H1079 0.930 . S
C1094 C1089 1.390 . S
C1094 C1093 1.387 . S
H1095 C1107 0.930 . S
H1096 C1109 0.930 . S
H1097 C1110 0.956 . S
H1098 C1114 0.959 . S
H1099 C1114 0.959 . S
H1100 C1114 0.961 . S
H1101 C1115 0.960 . S
H1102 C1115 0.961 . S
H1103 C1115 0.959 . S
H1104 C1118 0.929 . S
H1105 C1119 0.931 . S
H1106 C1121 0.930 . S
C1107 H1095 0.930 . S
C1107 C1108 1.399 . S
C1107 C1112 1.399 . S
C1108 C1107 1.399 . S
C1108 C1109 1.376 . S
C1109 H1096 0.930 . S
C1109 C1108 1.376 . S
C1109 C1110 1.373 1_455 S
C1110 H1097 0.956 . S
C1110 C1109 1.373 1_655 S
C1110 C1111 1.379 . S
C1111 C1110 1.379 . S
C1111 C1112 1.394 1_655 S
C1111 C1117 1.465 . S
C1112 C1107 1.399 . S
C1112 C1111 1.394 1_455 S
C1112 C1113 1.516 . S
C1113 C1112 1.516 . S
C1113 C1114 1.502 . S
C1113 C1115 1.561 1_455 S
C1113 C1116 1.526 1_455 S
C1114 H1098 0.959 . S
C1114 H1099 0.959 . S
C1114 H1100 0.961 . S
C1114 C1113 1.502 . S
C1115 H1101 0.960 . S
C1115 H1102 0.961 . S
C1115 H1103 0.959 . S
C1115 C1113 1.561 1_655 S
C1116 C1113 1.526 1_655 S
C1116 C1117 1.396 . S
C1116 C1121 1.390 . S
C1117 C1111 1.465 . S
C1117 C1116 1.396 . S
C1117 C1118 1.399 . S
C1118 H1104 0.929 . S
C1118 C1117 1.399 . S
C1118 C1119 1.385 . S
C1119 H1105 0.931 . S
C1119 C1118 1.385 . S
C1119 C1120 1.389 . S
C1120 C1119 1.389 . S
C1120 C1121 1.387 . S
C1121 H1106 0.930 . S
C1121 C1116 1.390 . S
C1121 C1120 1.387 . S
H1122 C1134 0.930 1_545 S
H1123 C1136 0.930 . S
H1124 C1137 0.930 . S
H1125 C1141 0.959 . S
H1126 C1141 0.959 . S
H1127 C1141 0.961 . S
H1128 C1142 0.960 . S
H1129 C1142 0.961 . S
H1130 C1142 0.959 . S
H1131 C1145 0.929 . S
H1132 C1146 0.931 . S
H1133 C1148 0.930 . S
C1134 H1122 0.930 1_565 S
C1134 C1135 1.399 . S
C1134 C1139 1.399 1_565 S
C1135 C1134 1.399 . S
C1135 C1136 1.376 . S
C1136 H1123 0.930 . S
C1136 C1135 1.376 . S
C1136 C1137 1.388 . S
C1137 H1124 0.930 . S
C1137 C1136 1.388 . S
C1137 C1138 1.390 . S
C1138 C1137 1.390 . S
C1138 C1139 1.394 1_565 S
C1138 C1144 1.465 1_556 S
C1139 C1134 1.399 1_545 S
C1139 C1138 1.394 1_545 S
C1139 C1140 1.516 . S
C1140 C1139 1.516 . S
C1140 C1141 1.502 . S
C1140 C1142 1.561 . S
C1140 C1143 1.526 1_556 S
C1141 H1125 0.959 . S
C1141 H1126 0.959 . S
C1141 H1127 0.961 . S
C1141 C1140 1.502 . S
C1142 H1128 0.960 . S
C1142 H1129 0.961 . S
C1142 H1130 0.959 . S
C1142 C1140 1.561 . S
C1143 C1140 1.526 1_554 S
C1143 C1144 1.396 1_545 S
C1143 C1148 1.390 . S
C1144 C1138 1.465 1_554 S
C1144 C1143 1.396 1_565 S
C1144 C1145 1.399 . S
C1145 H1131 0.929 . S
C1145 C1144 1.399 . S
C1145 C1146 1.385 . S
C1146 H1132 0.931 . S
C1146 C1145 1.385 . S
C1146 C1147 1.389 1_565 S
C1147 C1146 1.389 1_545 S
C1147 C1148 1.387 . S
C1148 H1133 0.930 . S
C1148 C1143 1.390 . S
C1148 C1147 1.387 . S
H1149 C1161 0.930 . S
H1150 C1163 0.930 . S
H1151 C1164 0.930 . S
H1152 C1168 0.959 . S
H1153 C1168 0.959 . S
H1154 C1168 0.961 . S
H1155 C1169 0.960 . S
H1156 C1169 0.961 . S
H1157 C1169 0.959 . S
H1158 C1172 0.929 . S
H1159 C1173 0.931 . S
H1160 C1175 0.930 . S
C1161 H1149 0.930 . S
C1161 C1162 1.399 . S
C1161 C1166 1.399 . S
C1162 C1161 1.399 . S
C1162 C1163 1.376 . S
C1163 H1150 0.930 . S
C1163 C1162 1.376 . S
C1163 C1164 1.388 . S
C1164 H1151 0.930 . S
C1164 C1163 1.388 . S
C1164 C1165 1.390 . S
C1165 C1164 1.390 . S
C1165 C1166 1.394 . S
C1165 C1171 1.465 . S
C1166 C1161 1.399 . S
C1166 C1165 1.394 . S
C1166 C1167 1.516 . S
C1167 C1166 1.516 . S
C1167 C1168 1.502 . S
C1167 C1169 1.561 . S
C1167 C1170 1.526 . S
C1168 H1152 0.959 . S
C1168 H1153 0.959 . S
C1168 H1154 0.961 . S
C1168 C1167 1.502 . S
C1169 H1155 0.960 . S
C1169 H1156 0.961 . S
C1169 H1157 0.959 . S
C1169 C1167 1.561 . S
C1170 C1167 1.526 . S
C1170 C1171 1.396 . S
C1170 C1175 1.390 . S
C1171 C1165 1.465 . S
C1171 C1170 1.396 . S
C1171 C1172 1.399 . S
C1172 H1158 0.929 . S
C1172 C1171 1.399 . S
C1172 C1173 1.385 . S
C1173 H1159 0.931 . S
C1173 C1172 1.385 . S
C1173 C1174 1.389 . S
C1174 C1173 1.389 . S
C1174 C1175 1.387 . S
C1175 H1160 0.930 . S
C1175 C1170 1.390 . S
C1175 C1174 1.387 . S
H1176 C1188 0.930 . S
H1177 C1190 0.930 . S
H1178 C1191 0.930 . S
H1179 C1195 0.959 1_656 S
H1180 C1195 0.959 1_556 S
H1181 C1195 0.961 . S
H1182 C1196 0.960 . S
H1183 C1196 0.961 . S
H1184 C1196 0.959 . S
H1185 C1199 0.929 . S
H1186 C1200 0.931 . S
H1187 C1202 0.930 . S
C1188 H1176 0.930 . S
C1188 C1189 1.399 . S
C1188 C1193 1.399 . S
C1189 C1188 1.399 . S
C1189 C1190 1.376 . S
C1190 H1177 0.930 . S
C1190 C1189 1.376 . S
C1190 C1191 1.388 . S
C1191 H1178 0.930 . S
C1191 C1190 1.388 . S
C1191 C1192 1.390 . S
C1192 C1191 1.390 . S
C1192 C1193 1.394 . S
C1192 C1198 1.465 1_654 S
C1193 C1188 1.399 . S
C1193 C1192 1.394 . S
C1193 C1194 1.516 1_655 S
C1194 C1193 1.516 1_455 S
C1194 C1195 1.502 . S
C1194 C1196 1.561 . S
C1194 C1197 1.526 1_554 S
C1195 H1179 0.959 1_454 S
C1195 H1180 0.959 1_554 S
C1195 H1181 0.961 . S
C1195 C1194 1.502 . S
C1196 H1182 0.960 . S
C1196 H1183 0.961 . S
C1196 H1184 0.959 . S
C1196 C1194 1.561 . S
C1197 C1194 1.526 1_556 S
C1197 C1198 1.396 . S
C1197 C1202 1.390 . S
C1198 C1192 1.465 1_456 S
C1198 C1197 1.396 . S
C1198 C1199 1.408 1_455 S
C1199 H1185 0.929 . S
C1199 C1198 1.408 1_655 S
C1199 C1200 1.377 1_655 S
C1200 H1186 0.931 . S
C1200 C1199 1.377 1_455 S
C1200 C1201 1.389 . S
C1201 C1200 1.389 . S
C1201 C1202 1.387 . S
C1202 H1187 0.930 . S
C1202 C1197 1.390 . S
C1202 C1201 1.387 . S
H1203 C1215 0.930 1_545 S
H1204 C1217 0.930 . S
H1205 C1218 0.930 . S
H1206 C1222 0.959 . S
H1207 C1222 0.959 . S
H1208 C1222 0.961 . S
H1209 C1223 0.960 . S
H1210 C1223 0.961 . S
H1211 C1223 0.959 . S
H1212 C1226 0.929 . S
H1213 C1227 0.907 1_565 S
H1214 C1229 0.930 . S
C1215 H1203 0.930 1_565 S
C1215 C1216 1.399 . S
C1215 C1220 1.399 1_565 S
C1216 C1215 1.399 . S
C1216 C1217 1.376 . S
C1217 H1204 0.930 . S
C1217 C1216 1.376 . S
C1217 C1218 1.388 . S
C1218 H1205 0.930 . S
C1218 C1217 1.388 . S
C1218 C1219 1.390 . S
C1219 C1218 1.390 . S
C1219 C1220 1.394 1_565 S
C1219 C1225 1.465 . S
C1220 C1215 1.399 1_545 S
C1220 C1219 1.394 1_545 S
C1220 C1221 1.516 . S
C1221 C1220 1.516 . S
C1221 C1222 1.502 . S
C1221 C1223 1.561 . S
C1221 C1224 1.526 . S
C1222 H1206 0.959 . S
C1222 H1207 0.959 . S
C1222 H1208 0.961 . S
C1222 C1221 1.502 . S
C1223 H1209 0.960 . S
C1223 H1210 0.961 . S
C1223 H1211 0.959 . S
C1223 C1221 1.561 . S
C1224 C1221 1.526 . S
C1224 C1225 1.396 1_545 S
C1224 C1229 1.390 . S
C1225 C1219 1.465 . S
C1225 C1224 1.396 1_565 S
C1225 C1226 1.399 . S
C1226 H1212 0.929 . S
C1226 C1225 1.399 . S
C1226 C1227 1.385 1_565 S
C1227 H1213 0.907 1_545 S
C1227 C1226 1.385 1_545 S
C1227 C1228 1.389 . S
C1228 C1227 1.389 . S
C1228 C1229 1.387 . S
C1229 H1214 0.930 . S
C1229 C1224 1.390 . S
C1229 C1228 1.387 . S
H1230 C1242 0.930 . S
H1231 C1244 0.930 . S
H1232 C1245 0.930 . S
H1233 C1249 0.959 . S
H1234 C1249 0.959 . S
H1235 C1249 0.961 . S
H1236 C1250 0.960 . S
H1237 C1250 0.961 . S
H1238 C1250 0.959 . S
H1239 C1253 0.929 . S
H1240 C1254 0.931 . S
H1241 C1256 0.930 . S
C1242 H1230 0.930 . S
C1242 C1243 1.399 . S
C1242 C1247 1.399 . S
C1243 C1242 1.399 . S
C1243 C1244 1.376 . S
C1244 H1231 0.930 . S
C1244 C1243 1.376 . S
C1244 C1245 1.388 . S
C1245 H1232 0.930 . S
C1245 C1244 1.388 . S
C1245 C1246 1.390 . S
C1246 C1245 1.390 . S
C1246 C1247 1.394 . S
C1246 C1252 1.465 1_554 S
C1247 C1242 1.399 . S
C1247 C1246 1.394 . S
C1247 C1248 1.516 1_554 S
C1248 C1247 1.516 1_556 S
C1248 C1249 1.502 . S
C1248 C1250 1.561 . S
C1248 C1251 1.526 . S
C1249 H1233 0.959 . S
C1249 H1234 0.959 . S
C1249 H1235 0.961 . S
C1249 C1248 1.502 . S
C1250 H1236 0.960 . S
C1250 H1237 0.961 . S
C1250 H1238 0.959 . S
C1250 C1248 1.561 . S
C1251 C1248 1.526 . S
C1251 C1252 1.396 . S
C1251 C1256 1.390 . S
C1252 C1246 1.465 1_556 S
C1252 C1251 1.396 . S
C1252 C1253 1.399 . S
C1253 H1239 0.929 . S
C1253 C1252 1.399 . S
C1253 C1254 1.385 . S
C1254 H1240 0.931 . S
C1254 C1253 1.385 . S
C1254 C1255 1.389 . S
C1255 C1254 1.389 . S
C1255 C1256 1.387 . S
C1256 H1241 0.930 . S
C1256 C1251 1.390 . S
C1256 C1255 1.387 . S
H1257 C1269 0.930 . S
H1258 C1271 0.930 . S
H1259 C1272 0.930 . S
H1260 C1276 0.959 . S
H1261 C1276 0.959 . S
H1262 C1276 0.961 1_455 S
H1263 C1277 0.960 . S
H1264 C1277 0.961 . S
H1265 C1277 0.959 . S
H1266 C1280 0.929 . S
H1267 C1281 0.931 . S
H1268 C1283 0.930 . S
C1269 H1257 0.930 . S
C1269 C1270 1.399 . S
C1269 C1274 1.399 . S
C1270 C1269 1.399 . S
C1270 C1271 1.376 . S
C1271 H1258 0.930 . S
C1271 C1270 1.376 . S
C1271 C1272 1.388 . S
C1272 H1259 0.930 . S
C1272 C1271 1.388 . S
C1272 C1273 1.390 . S
C1273 C1272 1.390 . S
C1273 C1274 1.394 . S
C1273 C1279 1.465 1_455 S
C1274 C1269 1.399 . S
C1274 C1273 1.394 . S
C1274 C1275 1.516 . S
C1275 C1274 1.516 . S
C1275 C1276 1.502 1_455 S
C1275 C1277 1.561 . S
C1275 C1278 1.526 1_455 S
C1276 H1260 0.959 . S
C1276 H1261 0.959 . S
C1276 H1262 0.961 1_655 S
C1276 C1275 1.502 1_655 S
C1277 H1263 0.960 . S
C1277 H1264 0.961 . S
C1277 H1265 0.959 . S
C1277 C1275 1.561 . S
C1278 C1275 1.526 1_655 S
C1278 C1279 1.396 . S
C1278 C1283 1.390 . S
C1279 C1273 1.465 1_655 S
C1279 C1278 1.396 . S
C1279 C1280 1.399 . S
C1280 H1266 0.929 . S
C1280 C1279 1.399 . S
C1280 C1281 1.385 . S
C1281 H1267 0.931 . S
C1281 C1280 1.385 . S
C1281 C1282 1.389 . S
C1282 C1281 1.389 . S
C1282 C1283 1.387 . S
C1283 H1268 0.930 . S
C1283 C1278 1.390 . S
C1283 C1282 1.387 . S
H1284 C1296 0.930 . S
H1285 C1298 0.930 . S
H1286 C1299 0.930 . S
H1287 C1303 0.959 . S
H1288 C1303 0.959 . S
H1289 C1303 0.961 . S
H1290 C1304 0.960 . S
H1291 C1304 0.961 . S
H1292 C1304 0.959 . S
H1293 C1307 0.929 . S
H1294 C1308 0.931 . S
H1295 C1310 0.930 . S
C1296 H1284 0.930 . S
C1296 C1297 1.399 . S
C1296 C1301 1.399 . S
C1297 C1296 1.399 . S
C1297 C1298 1.376 . S
C1298 H1285 0.930 . S
C1298 C1297 1.376 . S
C1298 C1299 1.388 . S
C1299 H1286 0.930 . S
C1299 C1298 1.388 . S
C1299 C1300 1.390 . S
C1300 C1299 1.390 . S
C1300 C1301 1.394 . S
C1300 C1306 1.465 . S
C1301 C1296 1.399 . S
C1301 C1300 1.394 . S
C1301 C1302 1.516 . S
C1302 C1301 1.516 . S
C1302 C1303 1.502 . S
C1302 C1304 1.561 . S
C1302 C1305 1.526 . S
C1303 H1287 0.959 . S
C1303 H1288 0.959 . S
C1303 H1289 0.961 . S
C1303 C1302 1.502 . S
C1304 H1290 0.960 . S
C1304 H1291 0.961 . S
C1304 H1292 0.959 . S
C1304 C1302 1.561 . S
C1305 C1302 1.526 . S
C1305 C1306 1.396 . S
C1305 C1310 1.390 . S
C1306 C1300 1.465 . S
C1306 C1305 1.396 . S
C1306 C1307 1.399 . S
C1307 H1293 0.929 . S
C1307 C1306 1.399 . S
C1307 C1308 1.385 . S
C1308 H1294 0.931 . S
C1308 C1307 1.385 . S
C1308 C1309 1.389 . S
C1309 C1308 1.389 . S
C1309 C1310 1.387 . S
C1310 H1295 0.930 . S
C1310 C1305 1.390 . S
C1310 C1309 1.387 . S
H1311 C1323 0.930 . S
H1312 C1325 0.930 . S
H1313 C1326 0.930 . S
H1314 C1330 0.959 . S
H1315 C1330 0.959 . S
H1316 C1330 0.961 . S
H1317 C1331 0.960 . S
H1318 C1331 0.961 . S
H1319 C1331 0.959 . S
H1320 C1334 0.929 . S
H1321 C1335 0.931 . S
H1322 C1337 0.930 . S
C1323 H1311 0.930 . S
C1323 C1324 1.399 . S
C1323 C1328 1.399 . S
C1324 C1323 1.399 . S
C1324 C1325 1.376 . S
C1325 H1312 0.930 . S
C1325 C1324 1.376 . S
C1325 C1326 1.388 . S
C1326 H1313 0.930 . S
C1326 C1325 1.388 . S
C1326 C1327 1.390 . S
C1327 C1326 1.390 . S
C1327 C1328 1.394 . S
C1327 C1333 1.465 . S
C1328 C1323 1.399 . S
C1328 C1327 1.394 . S
C1328 C1329 1.516 . S
C1329 C1328 1.516 . S
C1329 C1330 1.502 . S
C1329 C1331 1.561 . S
C1329 C1332 1.526 . S
C1330 H1314 0.959 . S
C1330 H1315 0.959 . S
C1330 H1316 0.961 . S
C1330 C1329 1.502 . S
C1331 H1317 0.960 . S
C1331 H1318 0.961 . S
C1331 H1319 0.959 . S
C1331 C1329 1.561 . S
C1332 C1329 1.526 . S
C1332 C1333 1.396 . S
C1332 C1337 1.390 . S
C1333 C1327 1.465 . S
C1333 C1332 1.396 . S
C1333 C1334 1.399 . S
C1334 H1320 0.929 . S
C1334 C1333 1.399 . S
C1334 C1335 1.385 . S
C1335 H1321 0.931 . S
C1335 C1334 1.385 . S
C1335 C1336 1.389 . S
C1336 C1335 1.389 . S
C1336 C1337 1.387 . S
C1337 H1322 0.930 . S
C1337 C1332 1.390 . S
C1337 C1336 1.387 . S
H1338 C1350 0.930 . S
H1339 C1352 0.930 . S
H1340 C1353 0.930 . S
H1341 C1357 0.959 . S
H1342 C1357 0.959 . S
H1343 C1357 0.961 . S
H1344 C1358 0.960 . S
H1345 C1358 0.961 . S
H1346 C1358 0.959 . S
H1347 C1361 0.929 . S
H1348 C1362 0.931 . S
H1349 C1364 0.930 . S
C1350 H1338 0.930 . S
C1350 C1351 1.399 . S
C1350 C1355 1.399 . S
C1351 C1350 1.399 . S
C1351 C1352 1.376 . S
C1352 H1339 0.930 . S
C1352 C1351 1.376 . S
C1352 C1353 1.388 . S
C1353 H1340 0.930 . S
C1353 C1352 1.388 . S
C1353 C1354 1.390 . S
C1354 C1353 1.390 . S
C1354 C1355 1.394 . S
C1354 C1360 1.465 . S
C1355 C1350 1.399 . S
C1355 C1354 1.394 . S
C1355 C1356 1.516 . S
C1356 C1355 1.516 . S
C1356 C1357 1.502 . S
C1356 C1358 1.561 . S
C1356 C1359 1.526 . S
C1357 H1341 0.959 . S
C1357 H1342 0.959 . S
C1357 H1343 0.961 . S
C1357 C1356 1.502 . S
C1358 H1344 0.960 . S
C1358 H1345 0.961 . S
C1358 H1346 0.959 . S
C1358 C1356 1.561 . S
C1359 C1356 1.526 . S
C1359 C1360 1.396 . S
C1359 C1364 1.390 . S
C1360 C1354 1.465 . S
C1360 C1359 1.396 . S
C1360 C1361 1.399 . S
C1361 H1347 0.929 . S
C1361 C1360 1.399 . S
C1361 C1362 1.385 . S
C1362 H1348 0.931 . S
C1362 C1361 1.385 . S
C1362 C1363 1.389 . S
C1363 C1362 1.389 . S
C1363 C1364 1.387 . S
C1364 H1349 0.930 . S
C1364 C1359 1.390 . S
C1364 C1363 1.387 . S
H1365 C1377 0.930 . S
H1366 C1379 0.930 . S
H1367 C1380 0.930 . S
H1368 C1384 0.959 . S
H1369 C1384 0.959 . S
H1370 C1384 0.961 . S
H1371 C1385 0.960 . S
H1372 C1385 0.961 . S
H1373 C1385 0.959 . S
H1374 C1388 0.929 . S
H1375 C1389 0.931 . S
H1376 C1391 0.930 . S
C1377 H1365 0.930 . S
C1377 C1378 1.399 . S
C1377 C1382 1.399 . S
C1378 C1377 1.399 . S
C1378 C1379 1.376 . S
C1379 H1366 0.930 . S
C1379 C1378 1.376 . S
C1379 C1380 1.388 . S
C1380 H1367 0.930 . S
C1380 C1379 1.388 . S
C1380 C1381 1.390 . S
C1381 C1380 1.390 . S
C1381 C1382 1.394 . S
C1381 C1387 1.465 . S
C1382 C1377 1.399 . S
C1382 C1381 1.394 . S
C1382 C1383 1.516 . S
C1383 C1382 1.516 . S
C1383 C1384 1.502 . S
C1383 C1385 1.561 . S
C1383 C1386 1.526 . S
C1384 H1368 0.959 . S
C1384 H1369 0.959 . S
C1384 H1370 0.961 . S
C1384 C1383 1.502 . S
C1385 H1371 0.960 . S
C1385 H1372 0.961 . S
C1385 H1373 0.959 . S
C1385 C1383 1.561 . S
C1386 C1383 1.526 . S
C1386 C1387 1.396 . S
C1386 C1391 1.390 . S
C1387 C1381 1.465 . S
C1387 C1386 1.396 . S
C1387 C1388 1.399 . S
C1388 H1374 0.929 . S
C1388 C1387 1.399 . S
C1388 C1389 1.385 . S
C1389 H1375 0.931 . S
C1389 C1388 1.385 . S
C1389 C1390 1.389 . S
C1390 C1389 1.389 . S
C1390 C1391 1.387 . S
C1391 H1376 0.930 . S
C1391 C1386 1.390 . S
C1391 C1390 1.387 . S
H1392 C1404 0.930 . S
H1393 C1406 0.930 . S
H1394 C1407 0.930 . S
H1395 C1411 0.959 . S
H1396 C1411 0.959 . S
H1397 C1411 0.961 . S
H1398 C1412 0.960 . S
H1399 C1412 0.961 . S
H1400 C1412 0.959 . S
H1401 C1415 0.929 . S
H1402 C1416 0.931 . S
H1403 C1418 0.930 . S
C1404 H1392 0.930 . S
C1404 C1405 1.399 . S
C1404 C1409 1.399 . S
C1405 C1404 1.399 . S
C1405 C1406 1.376 . S
C1406 H1393 0.930 . S
C1406 C1405 1.376 . S
C1406 C1407 1.388 . S
C1407 H1394 0.930 . S
C1407 C1406 1.388 . S
C1407 C1408 1.390 . S
C1408 C1407 1.390 . S
C1408 C1409 1.394 . S
C1408 C1414 1.465 . S
C1409 C1404 1.399 . S
C1409 C1408 1.394 . S
C1409 C1410 1.516 . S
C1410 C1409 1.516 . S
C1410 C1411 1.502 . S
C1410 C1412 1.561 . S
C1410 C1413 1.526 . S
C1411 H1395 0.959 . S
C1411 H1396 0.959 . S
C1411 H1397 0.961 . S
C1411 C1410 1.502 . S
C1412 H1398 0.960 . S
C1412 H1399 0.961 . S
C1412 H1400 0.959 . S
C1412 C1410 1.561 . S
C1413 C1410 1.526 . S
C1413 C1414 1.396 . S
C1413 C1418 1.390 . S
C1414 C1408 1.465 . S
C1414 C1413 1.396 . S
C1414 C1415 1.399 . S
C1415 H1401 0.929 . S
C1415 C1414 1.399 . S
C1415 C1416 1.385 . S
C1416 H1402 0.931 . S
C1416 C1415 1.385 . S
C1416 C1417 1.389 . S
C1417 C1416 1.389 . S
C1417 C1418 1.387 . S
C1418 H1403 0.930 . S
C1418 C1413 1.390 . S
C1418 C1417 1.387 . S
H1419 C1431 0.930 . S
H1420 C1433 0.930 . S
H1421 C1434 0.930 . S
H1422 C1438 0.959 . S
H1423 C1438 0.959 . S
H1424 C1438 0.961 . S
H1425 C1439 0.960 . S
H1426 C1439 0.961 . S
H1427 C1439 0.959 . S
H1428 C1442 0.929 . S
H1429 C1443 0.931 . S
H1430 C1445 0.930 . S
C1431 H1419 0.930 . S
C1431 C1432 1.399 . S
C1431 C1436 1.399 . S
C1432 C1431 1.399 . S
C1432 C1433 1.376 . S
C1433 H1420 0.930 . S
C1433 C1432 1.376 . S
C1433 C1434 1.388 . S
C1434 H1421 0.930 . S
C1434 C1433 1.388 . S
C1434 C1435 1.390 . S
C1435 C1434 1.390 . S
C1435 C1436 1.394 . S
C1435 C1441 1.465 . S
C1436 C1431 1.399 . S
C1436 C1435 1.394 . S
C1436 C1437 1.516 . S
C1437 C1436 1.516 . S
C1437 C1438 1.502 . S
C1437 C1439 1.561 . S
C1437 C1440 1.526 . S
C1438 H1422 0.959 . S
C1438 H1423 0.959 . S
C1438 H1424 0.961 . S
C1438 C1437 1.502 . S
C1439 H1425 0.960 . S
C1439 H1426 0.961 . S
C1439 H1427 0.959 . S
C1439 C1437 1.561 . S
C1440 C1437 1.526 . S
C1440 C1441 1.396 . S
C1440 C1445 1.390 . S
C1441 C1435 1.465 . S
C1441 C1440 1.396 . S
C1441 C1442 1.399 . S
C1442 H1428 0.929 . S
C1442 C1441 1.399 . S
C1442 C1443 1.385 . S
C1443 H1429 0.931 . S
C1443 C1442 1.385 . S
C1443 C1444 1.389 . S
C1444 C1443 1.389 . S
C1444 C1445 1.387 . S
C1445 H1430 0.930 . S
C1445 C1440 1.390 . S
C1445 C1444 1.387 . S
H1446 C1458 0.930 . S
H1447 C1460 0.930 . S
H1448 C1461 0.930 . S
H1449 C1465 0.959 . S
H1450 C1465 0.959 . S
H1451 C1465 0.961 . S
H1452 C1466 0.960 . S
H1453 C1466 0.961 . S
H1454 C1466 0.959 . S
H1455 C1469 0.929 . S
H1456 C1470 0.931 . S
H1457 C1472 0.930 . S
C1458 H1446 0.930 . S
C1458 C1459 1.399 . S
C1458 C1463 1.399 . S
C1459 C1458 1.399 . S
C1459 C1460 1.376 . S
C1460 H1447 0.930 . S
C1460 C1459 1.376 . S
C1460 C1461 1.388 . S
C1461 H1448 0.930 . S
C1461 C1460 1.388 . S
C1461 C1462 1.390 . S
C1462 C1461 1.390 . S
C1462 C1463 1.394 . S
C1462 C1468 1.465 . S
C1463 C1458 1.399 . S
C1463 C1462 1.394 . S
C1463 C1464 1.516 . S
C1464 C1463 1.516 . S
C1464 C1465 1.502 . S
C1464 C1466 1.561 . S
C1464 C1467 1.526 . S
C1465 H1449 0.959 . S
C1465 H1450 0.959 . S
C1465 H1451 0.961 . S
C1465 C1464 1.502 . S
C1466 H1452 0.960 . S
C1466 H1453 0.961 . S
C1466 H1454 0.959 . S
C1466 C1464 1.561 . S
C1467 C1464 1.526 . S
C1467 C1468 1.396 . S
C1467 C1472 1.390 . S
C1468 C1462 1.465 . S
C1468 C1467 1.396 . S
C1468 C1469 1.399 . S
C1469 H1455 0.929 . S
C1469 C1468 1.399 . S
C1469 C1470 1.385 . S
C1470 H1456 0.931 . S
C1470 C1469 1.385 . S
C1470 C1471 1.389 . S
C1471 C1470 1.389 . S
C1471 C1472 1.387 . S
C1472 H1457 0.930 . S
C1472 C1467 1.390 . S
C1472 C1471 1.387 . S
H1473 C1485 0.930 . S
H1474 C1487 0.930 . S
H1475 C1488 0.930 . S
H1476 C1492 0.959 . S
H1477 C1492 0.959 . S
H1478 C1492 0.961 . S
H1479 C1493 0.960 . S
H1480 C1493 0.961 . S
H1481 C1493 0.959 . S
H1482 C1496 0.929 . S
H1483 C1497 0.931 . S
H1484 C1499 0.930 . S
C1485 H1473 0.930 . S
C1485 C1486 1.399 . S
C1485 C1490 1.399 . S
C1486 C1485 1.399 . S
C1486 C1487 1.376 . S
C1487 H1474 0.930 . S
C1487 C1486 1.376 . S
C1487 C1488 1.388 . S
C1488 H1475 0.930 . S
C1488 C1487 1.388 . S
C1488 C1489 1.390 . S
C1489 C1488 1.390 . S
C1489 C1490 1.394 . S
C1489 C1495 1.465 . S
C1490 C1485 1.399 . S
C1490 C1489 1.394 . S
C1490 C1491 1.516 . S
C1491 C1490 1.516 . S
C1491 C1492 1.502 . S
C1491 C1493 1.561 . S
C1491 C1494 1.526 . S
C1492 H1476 0.959 . S
C1492 H1477 0.959 . S
C1492 H1478 0.961 . S
C1492 C1491 1.502 . S
C1493 H1479 0.960 . S
C1493 H1480 0.961 . S
C1493 H1481 0.959 . S
C1493 C1491 1.561 . S
C1494 C1491 1.526 . S
C1494 C1495 1.396 . S
C1494 C1499 1.390 . S
C1495 C1489 1.465 . S
C1495 C1494 1.396 . S
C1495 C1496 1.399 . S
C1496 H1482 0.929 . S
C1496 C1495 1.399 . S
C1496 C1497 1.385 . S
C1497 H1483 0.931 . S
C1497 C1496 1.385 . S
C1497 C1498 1.389 . S
C1498 C1497 1.389 . S
C1498 C1499 1.387 . S
C1499 H1484 0.930 . S
C1499 C1494 1.390 . S
C1499 C1498 1.387 . S
H1500 C1512 0.930 . S
H1501 C1514 0.930 . S
H1502 C1515 0.930 . S
H1503 C1519 0.959 . S
H1504 C1519 0.959 . S
H1505 C1519 0.961 . S
H1506 C1520 0.960 . S
H1507 C1520 0.961 . S
H1508 C1520 0.959 . S
H1509 C1523 0.929 . S
H1510 C1524 0.931 . S
H1511 C1526 0.930 . S
C1512 H1500 0.930 . S
C1512 C1513 1.399 . S
C1512 C1517 1.399 . S
C1513 C1512 1.399 . S
C1513 C1514 1.376 . S
C1514 H1501 0.930 . S
C1514 C1513 1.376 . S
C1514 C1515 1.388 . S
C1515 H1502 0.930 . S
C1515 C1514 1.388 . S
C1515 C1516 1.390 . S
C1516 C1515 1.390 . S
C1516 C1517 1.394 . S
C1516 C1522 1.465 . S
C1517 C1512 1.399 . S
C1517 C1516 1.394 . S
C1517 C1518 1.516 . S
C1518 C1517 1.516 . S
C1518 C1519 1.502 . S
C1518 C1520 1.561 . S
C1518 C1521 1.526 . S
C1519 H1503 0.959 . S
C1519 H1504 0.959 . S
C1519 H1505 0.961 . S
C1519 C1518 1.502 . S
C1520 H1506 0.960 . S
C1520 H1507 0.961 . S
C1520 H1508 0.959 . S
C1520 C1518 1.561 . S
C1521 C1518 1.526 . S
C1521 C1522 1.396 . S
C1521 C1526 1.390 . S
C1522 C1516 1.465 . S
C1522 C1521 1.396 . S
C1522 C1523 1.399 . S
C1523 H1509 0.929 . S
C1523 C1522 1.399 . S
C1523 C1524 1.385 . S
C1524 H1510 0.931 . S
C1524 C1523 1.385 . S
C1524 C1525 1.389 . S
C1525 C1524 1.389 . S
C1525 C1526 1.387 . S
C1526 H1511 0.930 . S
C1526 C1521 1.390 . S
C1526 C1525 1.387 . S
H1527 C1539 0.930 . S
H1528 C1541 0.930 . S
H1529 C1542 0.930 . S
H1530 C1546 0.959 . S
H1531 C1546 0.964 . S
H1532 C1546 0.960 1_655 S
H1533 C1547 0.960 . S
H1534 C1547 0.961 . S
H1535 C1547 0.959 . S
H1536 C1550 0.929 . S
H1537 C1551 0.931 . S
H1538 C1553 0.930 . S
C1539 H1527 0.930 . S
C1539 C1540 1.399 . S
C1539 C1544 1.399 . S
C1540 C1539 1.399 . S
C1540 C1541 1.376 . S
C1541 H1528 0.930 . S
C1541 C1540 1.376 . S
C1541 C1542 1.388 . S
C1542 H1529 0.930 . S
C1542 C1541 1.388 . S
C1542 C1543 1.390 . S
C1543 C1542 1.390 . S
C1543 C1544 1.394 . S
C1543 C1549 1.465 . S
C1544 C1539 1.399 . S
C1544 C1543 1.394 . S
C1544 C1545 1.516 . S
C1545 C1544 1.516 . S
C1545 C1546 1.502 . S
C1545 C1547 1.561 . S
C1545 C1548 1.526 . S
C1546 H1530 0.959 . S
C1546 H1531 0.964 . S
C1546 H1532 0.960 1_455 S
C1546 C1545 1.502 . S
C1547 H1533 0.960 . S
C1547 H1534 0.961 . S
C1547 H1535 0.959 . S
C1547 C1545 1.561 . S
C1548 C1545 1.526 . S
C1548 C1549 1.396 . S
C1548 C1553 1.390 . S
C1549 C1543 1.465 . S
C1549 C1548 1.396 . S
C1549 C1550 1.399 . S
C1550 H1536 0.929 . S
C1550 C1549 1.399 . S
C1550 C1551 1.385 . S
C1551 H1537 0.931 . S
C1551 C1550 1.385 . S
C1551 C1552 1.389 . S
C1552 C1551 1.389 . S
C1552 C1553 1.387 . S
C1553 H1538 0.930 . S
C1553 C1548 1.390 . S
C1553 C1552 1.387 . S
H1554 C1566 0.930 . S
H1555 C1568 0.930 . S
H1556 C1569 0.930 . S
H1557 C1573 0.959 . S
H1558 C1573 0.959 . S
H1559 C1573 0.961 . S
H1560 C1574 0.960 1_565 S
H1561 C1574 0.961 1_565 S
H1562 C1574 0.959 . S
H1563 C1577 0.929 . S
H1564 C1578 0.931 . S
H1565 C1580 0.930 . S
C1566 H1554 0.930 . S
C1566 C1567 1.399 . S
C1566 C1571 1.399 . S
C1567 C1566 1.399 . S
C1567 C1568 1.376 . S
C1568 H1555 0.930 . S
C1568 C1567 1.376 . S
C1568 C1569 1.388 . S
C1569 H1556 0.930 . S
C1569 C1568 1.388 . S
C1569 C1570 1.390 . S
C1570 C1569 1.390 . S
C1570 C1571 1.394 . S
C1570 C1576 1.465 . S
C1571 C1566 1.399 . S
C1571 C1570 1.394 . S
C1571 C1572 1.516 . S
C1572 C1571 1.516 . S
C1572 C1573 1.502 . S
C1572 C1574 1.561 . S
C1572 C1575 1.526 . S
C1573 H1557 0.959 . S
C1573 H1558 0.959 . S
C1573 H1559 0.961 . S
C1573 C1572 1.502 . S
C1574 H1560 0.960 1_545 S
C1574 H1561 0.961 1_545 S
C1574 H1562 0.959 . S
C1574 C1572 1.561 . S
C1575 C1572 1.526 . S
C1575 C1576 1.396 . S
C1575 C1580 1.390 . S
C1576 C1570 1.465 . S
C1576 C1575 1.396 . S
C1576 C1577 1.399 . S
C1577 H1563 0.929 . S
C1577 C1576 1.399 . S
C1577 C1578 1.385 . S
C1578 H1564 0.931 . S
C1578 C1577 1.385 . S
C1578 C1579 1.389 . S
C1579 C1578 1.389 . S
C1579 C1580 1.387 . S
C1580 H1565 0.930 . S
C1580 C1575 1.390 . S
C1580 C1579 1.387 . S
H1581 C1593 0.930 . S
H1582 C1595 0.930 . S
H1583 C1596 0.930 . S
H1584 C1600 0.959 . S
H1585 C1600 0.959 . S
H1586 C1600 0.961 . S
H1587 C1601 0.960 . S
H1588 C1601 0.961 . S
H1589 C1601 0.959 . S
H1590 C1604 0.929 . S
H1591 C1605 0.931 . S
H1592 C1607 0.930 . S
C1593 H1581 0.930 . S
C1593 C1594 1.399 . S
C1593 C1598 1.399 . S
C1594 C1593 1.399 . S
C1594 C1595 1.376 . S
C1595 H1582 0.930 . S
C1595 C1594 1.376 . S
C1595 C1596 1.388 . S
C1596 H1583 0.930 . S
C1596 C1595 1.388 . S
C1596 C1597 1.390 . S
C1597 C1596 1.390 . S
C1597 C1598 1.394 . S
C1597 C1603 1.465 . S
C1598 C1593 1.399 . S
C1598 C1597 1.394 . S
C1598 C1599 1.516 . S
C1599 C1598 1.516 . S
C1599 C1600 1.502 . S
C1599 C1601 1.561 . S
C1599 C1602 1.526 . S
C1600 H1584 0.959 . S
C1600 H1585 0.959 . S
C1600 H1586 0.961 . S
C1600 C1599 1.502 . S
C1601 H1587 0.960 . S
C1601 H1588 0.961 . S
C1601 H1589 0.959 . S
C1601 C1599 1.561 . S
C1602 C1599 1.526 . S
C1602 C1603 1.396 . S
C1602 C1607 1.390 . S
C1603 C1597 1.465 . S
C1603 C1602 1.396 . S
C1603 C1604 1.399 . S
C1604 H1590 0.929 . S
C1604 C1603 1.399 . S
C1604 C1605 1.385 . S
C1605 H1591 0.931 . S
C1605 C1604 1.385 . S
C1605 C1606 1.389 . S
C1606 C1605 1.389 . S
C1606 C1607 1.387 . S
C1607 H1592 0.930 . S
C1607 C1602 1.390 . S
C1607 C1606 1.387 . S
C325 C199 1.387 . S
C337 C10 1.393 . S
C352 C17 1.379 . S
C364 C212 1.375 . S
C379 C36 1.397 . S
C391 C231 1.401 . S
C406 C43 1.408 . S
C418 C166 1.406 . S
C433 C179 1.371 . S
C445 C62 1.370 . S
C460 C75 1.400 . S
C472 C186 1.395 . S
C487 C277 1.404 . S
C499 C88 1.406 . S
C514 C95 1.370 . S
C526 C296 1.371 . S
C541 C108 1.397 . S
C553 C309 1.392 . S
C568 C238 1.372 . S
C580 C121 1.371 . S
C595 C134 1.407 . S
C607 C257 1.408 . S
C622 C270 1.406 . S
C634 C153 1.403 . S
C649 C4 1.684 . S
C661 C303 1.681 . S
C676 C244 1.668 . S
C688 C23 1.671 . S
C703 C30 1.685 . S
C715 C251 1.682 . S
C730 C264 1.667 . S
C742 C49 1.669 . S
C757 C56 1.675 . S
C769 C283 1.679 . S
C784 C290 1.688 . S
C796 C69 1.686 . S
C811 C82 1.680 . S
C823 C173 1.683 . S
C838 C192 1.689 . S
C850 C101 1.687 . S
C865 C205 1.666 . S
C877 C114 1.667 . S
C892 C218 1.666 . S
C904 C127 1.667 . S
C919 C140 1.672 . S
C931 C225 1.676 . S
C946 C147 1.683 . S
C958 C160 1.686 . S
C973 C96 1.274 . S
C985 C3 1.301 . S
C1000 C109 1.263 . S
C1012 C18 1.265 . S
C1027 C122 1.301 . S
C1039 C29 1.274 . S
C1054 C135 1.277 . S
C1066 C44 1.258 . S
C1081 C55 1.257 . S
C1093 C146 1.287 . S
C1108 C68 1.302 . S
C1120 C81 1.284 . S
C1135 C159 1.257 . S
C1147 C250 1.297 . S
C1162 C172 1.270 . S
C1174 C263 1.269 . S
C1189 C278 1.266 . S
C1201 C187 1.274 . S
C1216 C289 1.261 . S
C1228 C200 1.280 . S
C1243 C302 1.301 . S
C1255 C213 1.273 . S
C1270 C239 1.289 . S
C1282 C224 1.290 . S
C1297 C5 1.729 . S
C1309 C252 1.730 . S
C1324 C265 1.720 . S
C1336 C16 1.718 . S
C1351 C31 1.713 . S
C1363 C276 1.714 . S
C1378 C291 1.722 . S
C1390 C42 1.725 . S
C1405 C57 1.714 . S
C1417 C304 1.715 . S
C1432 C237 1.725 . S
C1444 C70 1.727 . S
C1459 C83 1.714 . S
C1471 C226 1.714 . S
C1486 C161 1.730 . S
C1498 C94 1.730 . S
C1513 C107 1.715 . S
C1525 C174 1.714 . S
C1540 C120 1.715 . S
C1552 C185 1.714 . S
C1567 C133 1.724 . S
C1579 C198 1.722 . S
C1594 C148 1.716 . S
C1606 C211 1.715 . S
