# Generated by pormake.
# Topology fnt, (5)-cn, num edge types: 1
# Building blocks:
#     Node 0, Type 0, BuildingBlock: BEQFEK_clean_sbu_0, # of connection points: 5
#     Node 1, Type 0, BuildingBlock: BEQFEK_clean_sbu_0, # of connection points: 5
#     Node 2, Type 0, BuildingBlock: BEQFEK_clean_sbu_0, # of connection points: 5
#     Node 3, Type 0, BuildingBlock: BEQFEK_clean_sbu_0, # of connection points: 5
#     Node 4, Type 0, BuildingBlock: BEQFEK_clean_sbu_0, # of connection points: 5
#     Node 5, Type 0, BuildingBlock: BEQFEK_clean_sbu_0, # of connection points: 5
#     Edge 6, Type (0, 0), BuildingBlock: KIFKEQ_clean_linker_1, # of connection points: 2
#     Edge 7, Type (0, 0), BuildingBlock: KIFKEQ_clean_linker_1, # of connection points: 2
#     Edge 8, Type (0, 0), BuildingBlock: KIFKEQ_clean_linker_1, # of connection points: 2
#     Edge 9, Type (0, 0), BuildingBlock: KIFKEQ_clean_linker_1, # of connection points: 2
#     Edge 10, Type (0, 0), BuildingBlock: KIFKEQ_clean_linker_1, # of connection points: 2
#     Edge 11, Type (0, 0), BuildingBlock: KIFKEQ_clean_linker_1, # of connection points: 2
#     Edge 12, Type (0, 0), BuildingBlock: KIFKEQ_clean_linker_1, # of connection points: 2
#     Edge 13, Type (0, 0), BuildingBlock: KIFKEQ_clean_linker_1, # of connection points: 2
#     Edge 14, Type (0, 0), BuildingBlock: KIFKEQ_clean_linker_1, # of connection points: 2
#     Edge 15, Type (0, 0), BuildingBlock: KIFKEQ_clean_linker_1, # of connection points: 2
#     Edge 16, Type (0, 0), BuildingBlock: KIFKEQ_clean_linker_1, # of connection points: 2
#     Edge 17, Type (0, 0), BuildingBlock: KIFKEQ_clean_linker_1, # of connection points: 2
#     Edge 18, Type (0, 0), BuildingBlock: KIFKEQ_clean_linker_1, # of connection points: 2
#     Edge 19, Type (0, 0), BuildingBlock: KIFKEQ_clean_linker_1, # of connection points: 2
#     Edge 20, Type (0, 0), BuildingBlock: KIFKEQ_clean_linker_1, # of connection points: 2
# Relax obj value: 0.222
# Max RMSD: 0.171
# Mean RMSD: 0.171
data_MOF--net-fnt--node1-BEQFEK_clean_sbu_0--edge1-KIFKEQ_clean_linker_1
_symmetry_space_group_name_H-M    P1
_symmetry_Int_Tables_number       1
_symmetry_cell_setting            triclinic
loop_
_symmetry_equiv_pos_as_xyz
'x, y, z'
_cell_length_a     26.269359
_cell_length_b     26.393834
_cell_length_c     53.60261
_cell_angle_alpha  90.148494
_cell_angle_beta   89.88597
_cell_angle_gamma 120.08607
loop_
_atom_site_label
_atom_site_type_symbol
_atom_site_fract_x
_atom_site_fract_y
_atom_site_fract_z
_atom_type_partial_charge
Co0 Co 0.15967 0.38171 0.06795 0.0
Co1 Co 0.17175 0.35096 1.01136 0.0
C2 C 0.2688 0.38578 0.04902 0.0
O3 O 0.24048 0.39218 0.06698 0.0
O4 O 0.2471 0.37128 1.02718 0.0
C5 C 0.14933 0.37079 0.12275 0.0
O6 O 0.18734 0.35235 0.12135 0.0
C7 C 0.20636 0.31455 0.9642 0.0
C8 C 0.12743 0.28843 0.94115 0.0
C9 C 0.18196 0.29216 0.94087 0.0
N10 N 0.16739 0.32237 0.97771 0.0
N11 N 0.12059 0.30703 0.96365 0.0
C12 C 0.26735 0.33288 0.97279 0.0
H13 H 0.28501 0.3734 0.98409 0.0
H14 H 0.26596 0.29768 0.98454 0.0
H15 H 0.29738 0.34124 0.9568 0.0
C16 C 0.057 0.26171 0.06468 0.0
N17 N 0.10397 0.30789 0.05426 0.0
N18 N 0.11124 0.29371 0.03147 0.0
C19 C 0.07111 0.23724 1.02719 0.0
C20 C 0.03483 0.21539 0.04795 0.0
C21 C 0.03302 0.26228 0.08997 0.0
H22 H 0.03273 0.30378 0.09271 0.0
H23 H 0.06146 0.25912 0.10441 0.0
H24 H 0.98749 0.22514 0.09227 0.0
O25 O 0.15686 0.44325 0.04849 0.0
O26 O 0.15973 0.4193 1.00891 0.0
H27 H 0.04588 0.20514 0.98997 0.0
H28 H 0.05529 0.15613 1.01018 0.0
C29 C 0.07295 0.20281 1.00528 0.0
H30 H 0.11878 0.22083 0.99865 0.0
H31 H 0.0838 0.30923 0.96945 0.0
O32 O 0.1348 0.38675 0.1029 0.0
C33 C 0.15539 0.45208 1.02523 0.0
Co34 Co 0.80878 0.15972 0.40366 0.0
Co35 Co 0.8268 0.1951 0.34607 0.0
C36 C 0.83168 0.27688 0.38617 0.0
O37 O 0.82409 0.24132 0.40377 0.0
O38 O 0.832 0.26361 0.3633 0.0
C39 C 0.83201 0.14873 0.45757 0.0
O40 O 0.88381 0.19624 0.4555 0.0
C41 C 0.88836 0.25822 0.29883 0.0
C42 C 0.84122 0.18662 0.27163 0.0
C43 C 0.88695 0.24384 0.27367 0.0
N44 N 0.84628 0.21092 0.31104 0.0
N45 N 0.81791 0.16879 0.29448 0.0
C46 C 0.92779 0.31625 0.31087 0.0
H47 H 0.9066 0.32185 0.32773 0.0
H48 H 0.96954 0.31885 0.31662 0.0
H49 H 0.93851 0.35235 0.29752 0.0
C50 C 0.90512 0.1362 0.39179 0.0
N51 N 0.86921 0.15682 0.38568 0.0
N52 N 0.87803 0.17349 0.3621 0.0
C53 C 0.92113 0.1655 0.35279 0.0
C54 C 0.93943 0.14149 0.3712 0.0
C55 C 0.90061 0.10447 0.41554 0.0
H56 H 0.85425 0.07989 0.42189 0.0
H57 H 0.92746 0.13677 0.43011 0.0
H58 H 0.91693 0.07329 0.41314 0.0
O59 O 0.73448 0.10504 0.38749 0.0
O60 O 0.74503 0.12787 0.34724 0.0
H61 H 0.90892 0.15157 0.31337 0.0
H62 H 0.98304 0.17493 0.3237 0.0
C63 C 0.94408 0.18004 0.32666 0.0
H64 H 0.95761 0.22612 0.32278 0.0
H65 H 0.78351 0.12705 0.2989 0.0
O66 O 0.79835 0.12933 0.43865 0.0
C67 C 0.71478 0.09569 0.36533 0.0
Co68 Co 0.59911 0.78646 0.73706 0.0
Co69 Co 0.62789 0.82307 0.67987 0.0
C70 C 0.59258 0.88791 0.71557 0.0
O71 O 0.5874 0.85533 0.73407 0.0
O72 O 0.60686 0.87915 0.69393 0.0
C73 C 0.62212 0.80154 0.79023 0.0
O74 O 0.64753 0.85744 0.78463 0.0
C75 C 0.67483 0.89517 0.63382 0.0
C76 C 0.68203 0.83299 0.60847 0.0
C77 C 0.69196 0.88965 0.60987 0.0
N78 N 0.65559 0.84407 0.64597 0.0
N79 N 0.65975 0.80709 0.63058 0.0
C80 C 0.68129 0.94934 0.64574 0.0
H81 H 0.69616 0.95227 0.66532 0.0
H82 H 0.71328 0.98923 0.63548 0.0
H83 H 0.63785 0.94683 0.64589 0.0
C84 C 0.71834 0.80044 0.73334 0.0
N85 N 0.6728 0.80336 0.72339 0.0
N86 N 0.68587 0.82196 0.7002 0.0
C87 C 0.74083 0.83371 0.69503 0.0
C88 C 0.76278 0.81954 0.71573 0.0
C89 C 0.71838 0.77687 0.7587 0.0
H90 H 0.67475 0.73823 0.76271 0.0
H91 H 0.72795 0.8112 0.77286 0.0
H92 H 0.75239 0.76382 0.76012 0.0
O93 O 0.5371 0.71872 0.71887 0.0
O94 O 0.55938 0.74226 0.67889 0.0
H95 H 0.76171 0.83003 0.65674 0.0
H96 H 0.82177 0.88644 0.67448 0.0
C97 C 0.77347 0.86329 0.67165 0.0
H98 H 0.76121 0.89577 0.66552 0.0
H99 H 0.64811 0.76428 0.63532 0.0
O100 O 0.59643 0.76392 0.773 0.0
C101 C 0.52754 0.70622 0.69574 0.0
Co102 Co 0.81682 0.62659 0.06767 0.0
Co103 Co 0.79653 0.63461 1.00969 0.0
C104 C 0.70018 0.55045 0.04504 0.0
O105 O 0.73274 0.56711 0.06445 0.0
O106 O 0.72022 0.57204 1.02348 0.0
C107 C 0.82613 0.62209 0.12378 0.0
O108 O 0.76942 0.58503 0.12572 0.0
C109 C 0.74563 0.65855 0.96436 0.0
C110 C 0.81736 0.68061 0.93736 0.0
C111 C 0.76336 0.67746 0.93995 0.0
N112 N 0.78771 0.65164 0.97556 0.0
N113 N 0.82992 0.66411 0.95912 0.0
C114 C 0.69249 0.65208 0.97755 0.0
H115 H 0.69906 0.65434 0.99806 0.0
H116 H 0.68288 0.68658 0.97145 0.0
H117 H 0.65407 0.6088 0.97283 0.0
C118 C 0.8419 0.74763 0.0656 0.0
N119 N 0.82812 0.69706 0.05415 0.0
N120 N 0.82195 0.70202 0.03003 0.0
C121 C 0.83264 0.75667 1.02539 0.0
C122 C 0.84507 0.78687 0.0478 0.0
C123 C 0.84893 0.75686 0.09323 0.0
H124 H 0.89102 0.76016 0.09903 0.0
H125 H 0.81254 0.71873 0.10288 0.0
H126 H 0.84885 0.79722 0.09899 0.0
O127 O 0.86684 0.60268 0.0501 0.0
O128 O 0.85699 0.61049 1.00952 0.0
H129 H 0.85487 0.76433 0.98651 0.0
H130 H 0.85959 0.82927 0.99996 0.0
C131 C 0.83433 0.78069 0.99995 0.0
H132 H 0.78879 0.76614 0.99378 0.0
H133 H 0.8684 0.6633 0.96302 0.0
O134 O 0.84868 0.64123 0.10242 0.0
C135 C 0.88067 0.59919 1.02771 0.0
Co136 Co 0.20075 0.81335 0.39934 0.0
Co137 Co 0.17761 0.78662 0.34119 0.0
C138 C 0.10925 0.69739 0.38169 0.0
O139 O 0.13461 0.73139 0.40012 0.0
O140 O 0.12421 0.71435 0.35929 0.0
C141 C 0.18869 0.8312 0.45268 0.0
O142 O 0.1351 0.78633 0.45052 0.0
C143 C 0.10171 0.75025 0.2958 0.0
C144 C 0.16855 0.77889 0.26599 0.0
C145 C 0.10833 0.75183 0.26993 0.0
N146 N 0.15554 0.77558 0.30642 0.0
N147 N 0.19513 0.79256 0.28842 0.0
C148 C 0.04527 0.7227 0.31022 0.0
H149 H 0.05246 0.71528 0.32986 0.0
H150 H 0.02672 0.75229 0.31019 0.0
H151 H 0.01272 0.6806 0.30146 0.0
C152 C 0.17171 0.90395 0.38538 0.0
N153 N 0.18068 0.85957 0.37929 0.0
N154 N 0.17266 0.84972 0.35509 0.0
C155 C 0.15914 0.88811 0.34505 0.0
C156 C 0.15789 0.92337 0.36387 0.0
C157 C 0.1707 0.92315 0.41159 0.0
H158 H 0.13932 0.88476 0.42277 0.0
H159 H 0.15753 0.95699 0.41249 0.0
H160 H 0.21505 0.94102 0.41994 0.0
O161 O 0.27264 0.8183 0.38522 0.0
O162 O 0.2596 0.80422 0.34426 0.0
H163 H 0.17887 0.88564 0.30637 0.0
H164 H 0.14955 0.93312 0.31338 0.0
C165 C 0.14685 0.89085 0.31799 0.0
H166 H 0.10195 0.85488 0.31355 0.0
H167 H 0.24042 0.81328 0.29145 0.0
O168 O 0.22226 0.8481 0.43367 0.0
C169 C 0.29163 0.81577 0.36361 0.0
Co170 Co 0.34458 0.1874 0.73277 0.0
Co171 Co 0.34319 0.16471 0.6744 0.0
C172 C 0.42435 0.15029 0.70964 0.0
O173 O 0.40455 0.16315 0.72898 0.0
O174 O 0.40565 0.15123 0.68775 0.0
C175 C 0.328 0.17469 0.78851 0.0
O176 O 0.33462 0.12856 0.78805 0.0
C177 C 0.3303 0.10208 0.62584 0.0
C178 C 0.28875 0.14139 0.60325 0.0
C179 C 0.30523 0.0991 0.60257 0.0
N180 N 0.32745 0.14348 0.63963 0.0
N181 N 0.30368 0.16744 0.62573 0.0
C182 C 0.35081 0.06236 0.6357 0.0
H183 H 0.3507 0.06239 0.65639 0.0
H184 H 0.3224 0.01707 0.62866 0.0
H185 H 0.39641 0.07809 0.62914 0.0
C186 C 0.22117 0.09255 0.72739 0.0
N187 N 0.27409 0.13019 0.71761 0.0
N188 N 0.27405 0.11888 0.69363 0.0
C189 C 0.22154 0.07241 0.68762 0.0
C190 C 0.18645 0.05433 0.70879 0.0
C191 C 0.20344 0.09517 0.7537 0.0
H192 H 0.22129 0.1414 0.75942 0.0
H193 H 0.22166 0.07475 0.7662 0.0
H194 H 0.15491 0.0718 0.75583 0.0
O195 O 0.37039 0.26307 0.71704 0.0
O196 O 0.36649 0.24902 0.67619 0.0
H197 H 0.20612 0.07182 0.6484 0.0
H198 H 0.16505 0.00057 0.66283 0.0
C199 C 0.20747 0.04238 0.66277 0.0
H200 H 0.24226 0.03229 0.65778 0.0
H201 H 0.29524 0.19998 0.63201 0.0
O202 O 0.33128 0.20131 0.76829 0.0
C203 C 0.37599 0.28228 0.69493 0.0
H204 H 0.32253 0.33656 1.02369 0.0
H205 H 0.35033 0.45794 0.08337 0.0
H206 H 0.42542 0.36309 1.02556 0.0
H207 H 0.45421 0.48573 0.08493 0.0
H208 H 0.61845 0.50167 1.00805 0.0
H209 H 0.5124 0.45124 1.01237 0.0
H210 H 0.52959 0.4584 0.09265 0.0
H211 H 0.63657 0.51021 0.08836 0.0
C212 C 0.35071 0.36881 0.03729 0.0
C213 C 0.32886 0.39624 0.05298 0.0
C214 C 0.40962 0.38394 0.03838 0.0
C215 C 0.4482 0.42726 0.05506 0.0
C216 C 0.42551 0.45196 0.07194 0.0
C217 C 0.36616 0.43633 0.07099 0.0
C218 C 0.59981 0.49163 1.02665 0.0
C219 C 0.6361 0.51052 0.04785 0.0
C220 C 0.53882 0.46234 0.02914 0.0
C221 C 0.51255 0.45109 0.05288 0.0
C222 C 0.54864 0.46713 0.07412 0.0
C223 C 0.60988 0.49639 0.07164 0.0
H224 H 0.81258 0.35259 0.35904 0.0
H225 H 0.89563 0.3398 0.42629 0.0
H226 H 0.86839 0.45899 0.36206 0.0
H227 H 0.95384 0.44617 0.42864 0.0
H228 H 0.05452 0.64517 0.42589 0.0
H229 H 0.97132 0.54567 0.43146 0.0
H230 H 0.97033 0.51577 0.35207 0.0
H231 H 0.05115 0.61396 0.34648 0.0
C232 C 0.84166 0.37263 0.37483 0.0
C233 C 0.85073 0.33825 0.39216 0.0
C234 C 0.87397 0.43348 0.37648 0.0
C235 C 0.91704 0.46093 0.39509 0.0
C236 C 0.92119 0.42646 0.41403 0.0
C237 C 0.88787 0.36543 0.41266 0.0
C238 C 0.03616 0.61722 0.40968 0.0
C239 C 0.05966 0.63743 0.38577 0.0
C240 C 0.98849 0.56041 0.41287 0.0
C241 C 0.96357 0.52308 0.39218 0.0
C242 C 0.98711 0.54375 0.36836 0.0
C243 C 0.03426 0.60007 0.36519 0.0
H244 H 0.46314 0.12665 0.75322 0.0
H245 H 0.47539 0.11909 0.67296 0.0
H246 H 0.51564 0.07268 0.75775 0.0
H247 H 0.52599 0.06425 0.67748 0.0
H248 H 0.64003 0.98913 0.68918 0.0
H249 H 0.61275 0.06448 0.69059 0.0
H250 H 0.49048 0.97186 0.75037 0.0
H251 H 0.51945 0.89716 0.7494 0.0
C252 C 0.47783 0.1144 0.73657 0.0
C253 C 0.46459 0.12678 0.71272 0.0
C254 C 0.50748 0.08306 0.73918 0.0
C255 C 0.52458 0.06372 0.718 0.0
C256 C 0.51415 0.07902 0.69423 0.0
C257 C 0.4847 0.11027 0.69162 0.0
C258 C 0.60768 0.98509 0.70275 0.0
C259 C 0.58089 0.93666 0.7188 0.0
C260 C 0.59206 0.0283 0.70357 0.0
C261 C 0.54868 0.02369 0.72027 0.0
C262 C 0.52435 0.97697 0.73737 0.0
C263 C 0.54061 0.93397 0.73674 0.0
H264 H 0.43038 0.62736 0.72135 0.0
H265 H 0.53247 0.64635 0.65516 0.0
H266 H 0.38111 0.52126 0.71711 0.0
H267 H 0.48501 0.5402 0.6515 0.0
H268 H 0.37945 0.33911 0.6513 0.0
H269 H 0.40045 0.44032 0.64696 0.0
H270 H 0.42735 0.46452 0.72661 0.0
H271 H 0.4058 0.36476 0.73099 0.0
C272 C 0.44112 0.60881 0.70552 0.0
C273 C 0.48598 0.64493 0.68888 0.0
C274 C 0.41329 0.5481 0.70318 0.0
C275 C 0.43067 0.52244 0.68446 0.0
C276 C 0.4708 0.55859 0.66618 0.0
C277 C 0.49803 0.61949 0.66829 0.0
C278 C 0.38984 0.36623 0.66782 0.0
C279 C 0.39092 0.34381 0.69148 0.0
C280 C 0.40164 0.42401 0.66534 0.0
C281 C 0.4144 0.46007 0.68649 0.0
C282 C 0.41587 0.4375 0.71001 0.0
C283 C 0.40421 0.38027 0.71247 0.0
H284 H 0.93802 0.57231 0.06262 0.0
H285 H 0.93087 0.59506 0.98305 0.0
H286 H 0.01756 0.55271 0.05664 0.0
H287 H 0.01226 0.57572 0.97709 0.0
H288 H 0.08798 0.44395 0.98518 0.0
H289 H 0.02883 0.49118 0.98174 0.0
H290 H 0.12081 0.60142 0.04481 0.0
H291 H 0.17819 0.55255 0.04884 0.0
C292 C 0.95361 0.57345 0.04379 0.0
C293 C 0.9279 0.58522 1.0233 0.0
C294 C -5e-05 0.56294 0.0404 0.0
C295 C 0.02214 0.56395 1.01643 0.0
C296 C -0.00374 0.57508 0.99579 0.0
C297 C 0.94961 0.58588 0.99921 0.0
C298 C 0.09713 0.47985 0.99768 0.0
C299 C 0.13661 0.49378 1.01765 0.0
C300 C 0.06318 0.50691 0.99571 0.0
C301 C 0.06895 0.54864 1.0135 0.0
C302 C 0.11422 0.56806 0.0313 0.0
C303 C 0.14738 0.54045 0.03351 0.0
H304 H 0.35617 0.8428 0.32039 0.0
H305 H 0.37082 0.83728 0.40055 0.0
H306 H 0.46319 0.89974 0.31708 0.0
H307 H 0.47652 0.8955 0.39737 0.0
H308 H 0.66664 -0.00764 0.38964 0.0
H309 H 0.56795 0.90895 0.38511 0.0
H310 H 0.53257 -6e-05 0.32672 0.0
H311 H 0.63305 0.08222 0.33039 0.0
C312 C 0.38217 0.85248 0.33724 0.0
C313 C 0.35499 0.83647 0.36078 0.0
C314 C 0.44345 0.88564 0.33535 0.0
C315 C 0.47847 0.9032 0.35696 0.0
C316 C 0.45123 0.8826 0.38026 0.0
C317 C 0.39029 0.84939 0.38213 0.0
C318 C 0.63787 -0.00584 0.37564 0.0
C319 C 0.65671 0.04407 0.36073 0.0
C320 C 0.58136 0.94639 0.37303 0.0
C321 C 0.54188 0.94808 0.35589 0.0
C322 C 0.56194 -0.00314 0.33997 0.0
C323 C 0.6192 0.04429 0.34222 0.0
H324 H 0.02415 0.15131 0.08929 0.0
H325 H 0.94704 0.1408 1.01705 0.0
H326 H 0.96378 0.04582 0.09387 0.0
H327 H 0.89008 0.03456 1.02058 0.0
H328 H 0.78497 0.84144 0.03417 0.0
H329 H 0.81691 0.94553 0.03913 0.0
H330 H 0.97721 0.97322 0.07422 0.0
H331 H 0.94402 0.86961 0.06996 0.0
C332 C -0.00685 0.12652 0.07466 0.0
C333 C -0.00945 0.15381 0.05268 0.0
C334 C 0.95923 0.06599 0.0771 0.0
C335 C 0.92332 0.03168 0.05733 0.0
C336 C 0.91718 0.05961 0.0362 0.0
C337 C 0.95026 0.12034 0.03401 0.0
C338 C 0.82665 0.87017 0.04316 0.0
C339 C 0.86235 0.84838 0.05169 0.0
C340 C 0.84493 0.92946 0.04601 0.0
C341 C 0.89945 0.96764 0.05717 0.0
C342 C 0.93431 0.94495 0.06612 0.0
C343 C 0.91574 0.8858 0.06349 0.0
H344 H 0.04739 0.88951 0.34996 0.0
H345 H 0.20857 0.03917 0.37526 0.0
H346 H -0.00115 0.94729 0.35042 0.0
H347 H 0.16085 0.09877 0.37483 0.0
H348 H 0.02895 0.15634 0.40142 0.0
H349 H 0.08692 0.10746 0.39796 0.0
H350 H -0.00484 0.02387 0.3297 0.0
H351 H 0.93466 0.0689 0.33439 0.0
C352 C 0.07255 0.93536 0.35512 0.0
C353 C 0.13134 0.96045 0.36246 0.0
C354 C 0.04504 0.96858 0.35528 0.0
C355 C 0.07618 0.02778 0.36248 0.0
C356 C 0.13564 0.05313 0.36942 0.0
C357 C 0.16301 0.01945 0.36952 0.0
C358 C 0.02159 0.12749 0.38573 0.0
C359 C 0.97787 0.1164 0.36811 0.0
C360 C 0.05506 0.10011 0.38356 0.0
C361 C 0.04543 0.06166 0.36359 0.0
C362 C 0.00299 0.05248 0.34551 0.0
C363 C 0.96893 0.0789 0.34797 0.0
H364 H 0.096 0.03167 0.67804 0.0
H365 H 0.13977 0.96913 0.74442 0.0
H366 H -0.00618 0.95383 0.68183 0.0
H367 H 0.03596 0.89287 0.74906 0.0
H368 H 0.83642 0.87572 0.75443 0.0
H369 H 0.94277 0.91614 0.75471 0.0
H370 H 0.93164 0.83213 0.68414 0.0
H371 H 0.82463 0.78949 0.68433 0.0
C372 C 0.08381 0.00058 0.69319 0.0
C373 C 0.12542 0.00594 0.71087 0.0
C374 C 0.0256 0.95613 0.69532 0.0
C375 C 0.00783 0.91723 0.71551 0.0
C376 C 0.04927 0.92218 0.73321 0.0
C377 C 0.10808 0.96595 0.7307 0.0
C378 C 0.85633 0.86353 0.73962 0.0
C379 C 0.823 0.83058 0.71911 0.0
C380 C 0.91704 0.88657 0.73981 0.0
C381 C 0.94475 0.87738 0.71935 0.0
C382 C 0.91076 0.8396 0.70007 0.0
C383 C 0.84996 0.81575 0.7001 0.0
H384 H 0.25203 0.24163 0.94115 0.0
H385 H 0.16521 0.30316 0.89168 0.0
H386 H 0.29172 0.21573 0.90521 0.0
H387 H 0.2022 0.2747 0.85584 0.0
H388 H 0.32254 0.27403 0.79628 0.0
H389 H 0.29101 0.30326 0.83355 0.0
H390 H 0.26337 0.14677 0.8711 0.0
H391 H 0.29668 0.11819 0.83379 0.0
C392 C 0.24216 0.25052 0.92264 0.0
C393 C 0.20691 0.27619 0.91931 0.0
C394 C 0.26405 0.23465 0.90199 0.0
C395 C 0.25077 0.24362 0.87753 0.0
C396 C 0.21458 0.26833 0.87433 0.0
C397 C 0.1929 0.28425 0.89491 0.0
C398 C 0.31008 0.24589 0.8125 0.0
C399 C 0.31191 0.19355 0.81195 0.0
C400 C 0.29157 0.26251 0.83389 0.0
C401 C 0.2739 0.22713 0.85534 0.0
C402 C 0.27707 0.1754 0.85503 0.0
C403 C 0.29595 0.15885 0.83359 0.0
H404 H 0.16638 0.33543 0.16853 0.0
H405 H 0.05842 0.39183 0.13061 0.0
H406 H 0.10609 0.31497 0.20594 0.0
H407 H -0.00132 0.37202 0.1681 0.0
H408 H 0.85986 0.24333 0.22486 0.0
H409 H 0.92702 0.28304 0.18956 0.0
H410 H 0.07493 0.35606 0.24008 0.0
H411 H 0.00744 0.31507 0.27543 0.0
C412 C 0.13039 0.34436 0.16827 0.0
C413 C 0.11713 0.36493 0.14644 0.0
C414 C 0.09596 0.33291 0.1898 0.0
C415 C 0.04723 0.34151 0.19003 0.0
C416 C 0.03537 0.36416 0.16849 0.0
C417 C 0.06991 0.37584 0.14701 0.0
C418 C 0.90668 0.26885 0.22847 0.0
C419 C 0.92814 0.27671 0.253 0.0
C420 C 0.94526 0.29187 0.20822 0.0
C421 C 0.00652 0.32282 0.21192 0.0
C422 C 0.02803 0.3322 0.23654 0.0
C423 C -0.01073 0.3095 0.25687 0.0
H424 H 0.90117 0.15172 0.49647 0.0
H425 H 0.72017 0.07082 0.47247 0.0
H426 H 0.86953 0.09301 0.53473 0.0
H427 H 0.68874 0.01316 0.51079 0.0
H428 H 0.65311 0.96305 0.59415 0.0
H429 H 0.68899 0.03022 0.55853 0.0
H430 H 0.81975 0.98075 0.54358 0.0
H431 H 0.78346 0.9132 0.57902 0.0
C432 C 0.85467 0.12192 0.49947 0.0
C433 C 0.81321 0.11584 0.48141 0.0
C434 C 0.83662 0.08817 0.5213 0.0
C435 C 0.77666 0.0486 0.52575 0.0
C436 C 0.73517 0.04364 0.50797 0.0
C437 C 0.75326 0.07644 0.48597 0.0
C438 C 0.69012 0.9673 0.58349 0.0
C439 C 0.71595 0.93342 0.58948 0.0
C440 C 0.71032 0.00533 0.56301 0.0
C441 C 0.75731 0.01086 0.54834 0.0
C442 C 0.7839 0.97786 0.55469 0.0
C443 C 0.76297 0.93904 0.57487 0.0
H444 H 0.68798 0.87142 0.82887 0.0
H445 H 0.58081 0.68972 0.80763 0.0
H446 H 0.71591 0.84198 0.86715 0.0
H447 H 0.6091 0.66038 0.84604 0.0
H448 H 0.64605 0.62917 0.92737 0.0
H449 H 0.60476 0.65947 0.89332 0.0
H450 H 0.77926 0.7986 0.87448 0.0
H451 H 0.82003 0.76883 0.90832 0.0
C452 C 0.66965 0.82513 0.83249 0.0
C453 C 0.63244 0.783 0.81501 0.0
C454 C 0.68594 0.80828 0.85442 0.0
C455 C 0.66519 0.74885 0.85955 0.0
C456 C 0.62558 0.70649 0.84273 0.0
C457 C 0.60956 0.72338 0.82066 0.0
C458 C 0.6753 0.66688 0.91625 0.0
C459 C 0.73625 0.69694 0.9207 0.0
C460 C 0.65176 0.68386 0.89659 0.0
C461 C 0.68868 0.73169 0.88126 0.0
C462 C 0.74942 0.76217 0.88611 0.0
C463 C 0.77287 0.7448 0.90543 0.0
H464 H 0.94532 0.69337 0.12502 0.0
H465 H 0.79541 0.59371 0.1731 0.0
H466 H 0.01037 0.72254 0.16091 0.0
H467 H 0.86125 0.62297 0.20925 0.0
H468 H -0.00018 0.74584 0.26864 0.0
H469 H 0.92945 0.71212 0.23436 0.0
H470 H 0.04579 0.67628 0.19046 0.0
H471 H 0.11563 0.70887 0.22485 0.0
C472 C 0.9261 0.67757 0.14326 0.0
C473 C 0.86498 0.64085 0.1461 0.0
C474 C 0.9636 0.69411 0.16386 0.0
C475 C 0.94114 0.67467 0.18794 0.0
C476 C 0.87991 0.63887 0.19095 0.0
C477 C 0.84224 0.62193 0.17022 0.0
C478 C 0.0098 0.72919 0.25205 0.0
C479 C 0.06314 0.72907 0.24981 0.0
C480 C 0.9695 0.71027 0.23225 0.0
C481 C 0.98198 0.6916 0.20963 0.0
C482 C 0.03507 0.69108 0.20749 0.0
C483 C 0.07507 0.70964 0.22727 0.0
H484 H 0.20529 0.04916 0.57516 0.0
H485 H 0.36997 0.05167 0.58341 0.0
H486 H 0.17884 0.98098 0.54044 0.0
H487 H 0.34305 0.98243 0.54853 0.0
H488 H 0.29817 0.92261 0.46439 0.0
H489 H 0.32765 0.98332 0.50199 0.0
H490 H 0.15261 0.87812 0.532 0.0
H491 H 0.12299 0.81751 0.49448 0.0
C492 C 0.23575 0.03481 0.56964 0.0
C493 C 0.28954 0.05548 0.5822 0.0
C494 C 0.22033 -0.00469 0.54985 0.0
C495 C 0.25862 0.97591 0.5418 0.0
C496 C 0.31262 -0.0034 0.5543 0.0
C497 C 0.32779 0.03577 0.57442 0.0
C498 C 0.26608 0.91205 0.4791 0.0
C499 C 0.20805 0.86533 0.47631 0.0
C500 C 0.28314 0.94668 0.50072 0.0
C501 C 0.24242 0.93575 0.51993 0.0
C502 C 0.18486 0.8881 0.51741 0.0
C503 C 0.16796 0.85319 0.49592 0.0
loop_
_geom_bond_atom_site_label_1
_geom_bond_atom_site_label_2
_geom_bond_distance
_geom_bond_site_symmetry_2
_ccdc_geom_bond_type
Co0 O3 1.970 . S
Co0 N17 1.989 . S
Co0 O25 1.967 . S
Co0 O32 1.920 . S
Co1 O4 1.966 . S
Co1 N10 2.022 . S
Co1 N18 1.974 1_556 S
Co1 O26 1.941 . S
C2 O3 1.258 . S
C2 O4 1.263 1_554 S
O3 Co0 1.970 . S
O3 C2 1.258 . S
O4 Co1 1.966 . S
O4 C2 1.263 1_556 S
C5 O6 1.235 . S
C5 O32 1.289 . S
O6 C5 1.235 . S
C7 C9 1.400 . S
C7 N10 1.351 . S
C7 C12 1.501 . S
C8 C9 1.387 . S
C8 N11 1.341 . S
C9 C7 1.400 . S
C9 C8 1.387 . S
N10 Co1 2.022 . S
N10 C7 1.351 . S
N10 N11 1.365 . S
N11 C8 1.341 . S
N11 N10 1.365 . S
N11 H31 0.862 . S
C12 C7 1.501 . S
C12 H13 0.961 . S
C12 H14 0.961 . S
C12 H15 0.960 . S
H13 C12 0.961 . S
H14 C12 0.961 . S
H15 C12 0.960 . S
C16 N17 1.342 . S
C16 C20 1.401 . S
C16 C21 1.499 . S
N17 Co0 1.989 . S
N17 C16 1.342 . S
N17 N18 1.430 . S
N18 Co1 1.974 1_554 S
N18 N17 1.430 . S
N18 C19 1.332 1_554 S
C19 N18 1.332 1_556 S
C19 C20 1.396 1_556 S
C19 C29 1.510 . S
C20 C16 1.401 . S
C20 C19 1.396 1_554 S
C21 C16 1.499 . S
C21 H22 0.959 . S
C21 H23 0.960 . S
C21 H24 0.961 . S
H22 C21 0.959 . S
H23 C21 0.960 . S
H24 C21 0.961 . S
O25 Co0 1.967 . S
O25 C33 1.258 . S
O26 Co1 1.941 . S
O26 C33 1.266 1_556 S
H27 C29 0.959 . S
H28 C29 0.961 . S
C29 C19 1.510 . S
C29 H27 0.959 . S
C29 H28 0.961 . S
C29 H30 0.960 . S
H30 C29 0.960 . S
H31 N11 0.862 . S
O32 Co0 1.920 . S
O32 C5 1.289 . S
C33 O25 1.258 . S
C33 O26 1.266 1_554 S
Co34 O37 1.970 . S
Co34 N51 1.989 . S
Co34 O59 1.967 . S
Co34 O66 1.920 . S
Co35 O38 1.966 . S
Co35 N44 2.022 . S
Co35 N52 1.993 . S
Co35 O60 1.941 . S
C36 O37 1.258 . S
C36 O38 1.263 . S
O37 Co34 1.970 . S
O37 C36 1.258 . S
O38 Co35 1.966 . S
O38 C36 1.263 . S
C39 O40 1.235 . S
C39 O66 1.289 . S
O40 C39 1.235 . S
C41 C43 1.400 . S
C41 N44 1.351 . S
C41 C46 1.501 . S
C42 C43 1.387 . S
C42 N45 1.341 . S
C43 C41 1.400 . S
C43 C42 1.387 . S
N44 Co35 2.022 . S
N44 C41 1.351 . S
N44 N45 1.365 . S
N45 C42 1.341 . S
N45 N44 1.365 . S
N45 H65 0.862 . S
C46 C41 1.501 . S
C46 H47 0.961 . S
C46 H48 0.961 1_655 S
C46 H49 0.960 . S
H47 C46 0.961 . S
H48 C46 0.961 1_455 S
H49 C46 0.960 . S
C50 N51 1.342 . S
C50 C54 1.401 . S
C50 C55 1.499 . S
N51 Co34 1.989 . S
N51 C50 1.342 . S
N51 N52 1.388 . S
N52 Co35 1.993 . S
N52 N51 1.388 . S
N52 C53 1.346 . S
C53 N52 1.346 . S
C53 C54 1.396 . S
C53 C63 1.510 . S
C54 C50 1.401 . S
C54 C53 1.396 . S
C55 C50 1.499 . S
C55 H56 0.959 . S
C55 H57 0.960 . S
C55 H58 0.961 . S
H56 C55 0.959 . S
H57 C55 0.960 . S
H58 C55 0.961 . S
O59 Co34 1.967 . S
O59 C67 1.258 . S
O60 Co35 1.941 . S
O60 C67 1.266 . S
H61 C63 0.959 . S
H62 C63 0.961 . S
C63 C53 1.510 . S
C63 H61 0.959 . S
C63 H62 0.961 . S
C63 H64 0.960 . S
H64 C63 0.960 . S
H65 N45 0.862 . S
O66 Co34 1.920 . S
O66 C39 1.289 . S
C67 O59 1.258 . S
C67 O60 1.266 . S
Co68 O71 1.970 . S
Co68 N85 1.989 . S
Co68 O93 1.967 . S
Co68 O100 1.920 . S
Co69 O72 1.966 . S
Co69 N78 2.022 . S
Co69 N86 1.993 . S
Co69 O94 1.941 . S
C70 O71 1.258 . S
C70 O72 1.263 . S
O71 Co68 1.970 . S
O71 C70 1.258 . S
O72 Co69 1.966 . S
O72 C70 1.263 . S
C73 O74 1.235 . S
C73 O100 1.289 . S
O74 C73 1.235 . S
C75 C77 1.400 . S
C75 N78 1.351 . S
C75 C80 1.501 . S
C76 C77 1.387 . S
C76 N79 1.341 . S
C77 C75 1.400 . S
C77 C76 1.387 . S
N78 Co69 2.022 . S
N78 C75 1.351 . S
N78 N79 1.365 . S
N79 C76 1.341 . S
N79 N78 1.365 . S
N79 H99 0.862 . S
C80 C75 1.501 . S
C80 H81 0.961 . S
C80 H82 0.961 1_565 S
C80 H83 0.960 . S
H81 C80 0.961 . S
H82 C80 0.961 1_545 S
H83 C80 0.960 . S
C84 N85 1.342 . S
C84 C88 1.401 . S
C84 C89 1.499 . S
N85 Co68 1.989 . S
N85 C84 1.342 . S
N85 N86 1.388 . S
N86 Co69 1.993 . S
N86 N85 1.388 . S
N86 C87 1.346 . S
C87 N86 1.346 . S
C87 C88 1.396 . S
C87 C97 1.510 . S
C88 C84 1.401 . S
C88 C87 1.396 . S
C89 C84 1.499 . S
C89 H90 0.959 . S
C89 H91 0.960 . S
C89 H92 0.961 . S
H90 C89 0.959 . S
H91 C89 0.960 . S
H92 C89 0.961 . S
O93 Co68 1.967 . S
O93 C101 1.258 . S
O94 Co69 1.941 . S
O94 C101 1.266 . S
H95 C97 0.959 . S
H96 C97 0.961 . S
C97 C87 1.510 . S
C97 H95 0.959 . S
C97 H96 0.961 . S
C97 H98 0.960 . S
H98 C97 0.960 . S
H99 N79 0.862 . S
O100 Co68 1.920 . S
O100 C73 1.289 . S
C101 O93 1.258 . S
C101 O94 1.266 . S
Co102 O105 1.970 . S
Co102 N119 1.989 . S
Co102 O127 1.967 . S
Co102 O134 1.920 . S
Co103 O106 1.966 . S
Co103 N112 2.022 . S
Co103 N120 1.974 1_556 S
Co103 O128 1.941 . S
C104 O105 1.258 . S
C104 O106 1.263 1_554 S
O105 Co102 1.970 . S
O105 C104 1.258 . S
O106 Co103 1.966 . S
O106 C104 1.263 1_556 S
C107 O108 1.235 . S
C107 O134 1.289 . S
O108 C107 1.235 . S
C109 C111 1.400 . S
C109 N112 1.351 . S
C109 C114 1.501 . S
C110 C111 1.387 . S
C110 N113 1.341 . S
C111 C109 1.400 . S
C111 C110 1.387 . S
N112 Co103 2.022 . S
N112 C109 1.351 . S
N112 N113 1.365 . S
N113 C110 1.341 . S
N113 N112 1.365 . S
N113 H133 0.862 . S
C114 C109 1.501 . S
C114 H115 0.961 . S
C114 H116 0.961 . S
C114 H117 0.960 . S
H115 C114 0.961 . S
H116 C114 0.961 . S
H117 C114 0.960 . S
C118 N119 1.342 . S
C118 C122 1.401 . S
C118 C123 1.499 . S
N119 Co102 1.989 . S
N119 C118 1.342 . S
N119 N120 1.430 . S
N120 Co103 1.974 1_554 S
N120 N119 1.430 . S
N120 C121 1.332 1_554 S
C121 N120 1.332 1_556 S
C121 C122 1.396 1_556 S
C121 C131 1.510 . S
C122 C118 1.401 . S
C122 C121 1.396 1_554 S
C123 C118 1.499 . S
C123 H124 0.959 . S
C123 H125 0.960 . S
C123 H126 0.961 . S
H124 C123 0.959 . S
H125 C123 0.960 . S
H126 C123 0.961 . S
O127 Co102 1.967 . S
O127 C135 1.258 . S
O128 Co103 1.941 . S
O128 C135 1.266 1_556 S
H129 C131 0.959 . S
H130 C131 0.961 . S
C131 C121 1.510 . S
C131 H129 0.959 . S
C131 H130 0.961 . S
C131 H132 0.960 . S
H132 C131 0.960 . S
H133 N113 0.862 . S
O134 Co102 1.920 . S
O134 C107 1.289 . S
C135 O127 1.258 . S
C135 O128 1.266 1_554 S
Co136 O139 1.970 . S
Co136 N153 1.989 . S
Co136 O161 1.967 . S
Co136 O168 1.920 . S
Co137 O140 1.966 . S
Co137 N146 2.022 . S
Co137 N154 1.993 . S
Co137 O162 1.941 . S
C138 O139 1.258 . S
C138 O140 1.263 . S
O139 Co136 1.970 . S
O139 C138 1.258 . S
O140 Co137 1.966 . S
O140 C138 1.263 . S
C141 O142 1.235 . S
C141 O168 1.289 . S
O142 C141 1.235 . S
C143 C145 1.400 . S
C143 N146 1.351 . S
C143 C148 1.501 . S
C144 C145 1.387 . S
C144 N147 1.341 . S
C145 C143 1.400 . S
C145 C144 1.387 . S
N146 Co137 2.022 . S
N146 C143 1.351 . S
N146 N147 1.365 . S
N147 C144 1.341 . S
N147 N146 1.365 . S
N147 H167 0.862 . S
C148 C143 1.501 . S
C148 H149 0.961 . S
C148 H150 0.961 1_455 S
C148 H151 0.960 . S
H149 C148 0.961 . S
H150 C148 0.961 1_655 S
H151 C148 0.960 . S
C152 N153 1.342 . S
C152 C156 1.401 . S
C152 C157 1.499 . S
N153 Co136 1.989 . S
N153 C152 1.342 . S
N153 N154 1.388 . S
N154 Co137 1.993 . S
N154 N153 1.388 . S
N154 C155 1.346 . S
C155 N154 1.346 . S
C155 C156 1.396 . S
C155 C165 1.510 . S
C156 C152 1.401 . S
C156 C155 1.396 . S
C157 C152 1.499 . S
C157 H158 0.959 . S
C157 H159 0.960 . S
C157 H160 0.961 . S
H158 C157 0.959 . S
H159 C157 0.960 . S
H160 C157 0.961 . S
O161 Co136 1.967 . S
O161 C169 1.258 . S
O162 Co137 1.941 . S
O162 C169 1.266 . S
H163 C165 0.959 . S
H164 C165 0.961 . S
C165 C155 1.510 . S
C165 H163 0.959 . S
C165 H164 0.961 . S
C165 H166 0.960 . S
H166 C165 0.960 . S
H167 N147 0.862 . S
O168 Co136 1.920 . S
O168 C141 1.289 . S
C169 O161 1.258 . S
C169 O162 1.266 . S
Co170 O173 1.970 . S
Co170 N187 1.989 . S
Co170 O195 1.967 . S
Co170 O202 1.920 . S
Co171 O174 1.966 . S
Co171 N180 2.022 . S
Co171 N188 1.993 . S
Co171 O196 1.941 . S
C172 O173 1.258 . S
C172 O174 1.263 . S
O173 Co170 1.970 . S
O173 C172 1.258 . S
O174 Co171 1.966 . S
O174 C172 1.263 . S
C175 O176 1.235 . S
C175 O202 1.289 . S
O176 C175 1.235 . S
C177 C179 1.400 . S
C177 N180 1.351 . S
C177 C182 1.501 . S
C178 C179 1.387 . S
C178 N181 1.341 . S
C179 C177 1.400 . S
C179 C178 1.387 . S
N180 Co171 2.022 . S
N180 C177 1.351 . S
N180 N181 1.365 . S
N181 C178 1.341 . S
N181 N180 1.365 . S
N181 H201 0.862 . S
C182 C177 1.501 . S
C182 H183 0.961 . S
C182 H184 0.961 1_545 S
C182 H185 0.960 . S
H183 C182 0.961 . S
H184 C182 0.961 1_565 S
H185 C182 0.960 . S
C186 N187 1.342 . S
C186 C190 1.401 . S
C186 C191 1.499 . S
N187 Co170 1.989 . S
N187 C186 1.342 . S
N187 N188 1.388 . S
N188 Co171 1.993 . S
N188 N187 1.388 . S
N188 C189 1.346 . S
C189 N188 1.346 . S
C189 C190 1.396 . S
C189 C199 1.510 . S
C190 C186 1.401 . S
C190 C189 1.396 . S
C191 C186 1.499 . S
C191 H192 0.959 . S
C191 H193 0.960 . S
C191 H194 0.961 . S
H192 C191 0.959 . S
H193 C191 0.960 . S
H194 C191 0.961 . S
O195 Co170 1.967 . S
O195 C203 1.258 . S
O196 Co171 1.941 . S
O196 C203 1.266 . S
H197 C199 0.959 . S
H198 C199 0.961 . S
C199 C189 1.510 . S
C199 H197 0.959 . S
C199 H198 0.961 . S
C199 H200 0.960 . S
H200 C199 0.960 . S
H201 N181 0.862 . S
O202 Co170 1.920 . S
O202 C175 1.289 . S
C203 O195 1.258 . S
C203 O196 1.266 . S
H204 C212 0.950 . S
H205 C217 0.950 . S
H206 C214 0.950 . S
H207 C216 0.950 . S
H208 C218 0.950 . S
H209 C220 0.950 . S
H210 C222 0.950 . S
H211 C223 0.950 . S
C212 H204 0.950 . S
C212 C213 1.386 . S
C212 C214 1.391 . S
C213 C212 1.386 . S
C213 C217 1.393 . S
C214 H206 0.950 . S
C214 C212 1.391 . S
C214 C215 1.400 . S
C215 C214 1.400 . S
C215 C216 1.398 . S
C215 C221 1.491 . S
C216 H207 0.950 . S
C216 C215 1.398 . S
C216 C217 1.391 . S
C217 H205 0.950 . S
C217 C213 1.393 . S
C217 C216 1.391 . S
C218 H208 0.950 . S
C218 C219 1.386 . S
C218 C220 1.391 . S
C219 C218 1.386 . S
C219 C223 1.393 . S
C220 H209 0.950 . S
C220 C218 1.391 . S
C220 C221 1.400 . S
C221 C215 1.491 . S
C221 C220 1.400 . S
C221 C222 1.398 . S
C222 H210 0.950 . S
C222 C221 1.398 . S
C222 C223 1.391 . S
C223 H211 0.950 . S
C223 C219 1.393 . S
C223 C222 1.391 . S
H224 C232 0.950 . S
H225 C237 0.950 . S
H226 C234 0.950 . S
H227 C236 0.950 . S
H228 C238 0.950 . S
H229 C240 0.950 . S
H230 C242 0.950 . S
H231 C243 0.950 . S
C232 H224 0.950 . S
C232 C233 1.386 . S
C232 C234 1.391 . S
C233 C232 1.386 . S
C233 C237 1.393 . S
C234 H226 0.950 . S
C234 C232 1.391 . S
C234 C235 1.400 . S
C235 C234 1.400 . S
C235 C236 1.398 . S
C235 C241 1.491 1_655 S
C236 H227 0.950 . S
C236 C235 1.398 . S
C236 C237 1.391 . S
C237 H225 0.950 . S
C237 C233 1.393 . S
C237 C236 1.391 . S
C238 H228 0.950 . S
C238 C239 1.386 . S
C238 C240 1.391 . S
C239 C238 1.386 . S
C239 C243 1.393 . S
C240 H229 0.950 . S
C240 C238 1.391 . S
C240 C241 1.400 . S
C241 C235 1.491 1_455 S
C241 C240 1.400 . S
C241 C242 1.398 . S
C242 H230 0.950 . S
C242 C241 1.398 . S
C242 C243 1.391 . S
C243 H231 0.950 . S
C243 C239 1.393 . S
C243 C242 1.391 . S
H244 C252 0.950 . S
H245 C257 0.950 . S
H246 C254 0.950 1_565 S
H247 C256 0.950 . S
H248 C258 0.950 . S
H249 C260 0.950 1_545 S
H250 C262 0.950 . S
H251 C263 0.950 . S
C252 H244 0.950 . S
C252 C253 1.386 . S
C252 C254 1.391 . S
C253 C252 1.386 . S
C253 C257 1.393 . S
C254 H246 0.950 1_545 S
C254 C252 1.391 . S
C254 C255 1.400 . S
C255 C254 1.400 . S
C255 C256 1.398 . S
C255 C261 1.491 1_545 S
C256 H247 0.950 . S
C256 C255 1.398 . S
C256 C257 1.391 . S
C257 H245 0.950 . S
C257 C253 1.393 . S
C257 C256 1.391 . S
C258 H248 0.950 . S
C258 C259 1.386 . S
C258 C260 1.391 . S
C259 C258 1.386 . S
C259 C263 1.393 . S
C260 H249 0.950 1_565 S
C260 C258 1.391 . S
C260 C261 1.400 . S
C261 C255 1.491 1_565 S
C261 C260 1.400 . S
C261 C262 1.398 . S
C262 H250 0.950 . S
C262 C261 1.398 . S
C262 C263 1.391 . S
C263 H251 0.950 . S
C263 C259 1.393 . S
C263 C262 1.391 . S
H264 C272 0.950 . S
H265 C277 0.950 . S
H266 C274 0.950 . S
H267 C276 0.950 . S
H268 C278 0.950 . S
H269 C280 0.950 . S
H270 C282 0.950 . S
H271 C283 0.950 . S
C272 H264 0.950 . S
C272 C273 1.386 . S
C272 C274 1.391 . S
C273 C272 1.386 . S
C273 C277 1.393 . S
C274 H266 0.950 . S
C274 C272 1.391 . S
C274 C275 1.400 . S
C275 C274 1.400 . S
C275 C276 1.398 . S
C275 C281 1.491 . S
C276 H267 0.950 . S
C276 C275 1.398 . S
C276 C277 1.391 . S
C277 H265 0.950 . S
C277 C273 1.393 . S
C277 C276 1.391 . S
C278 H268 0.950 . S
C278 C279 1.386 . S
C278 C280 1.391 . S
C279 C278 1.386 . S
C279 C283 1.393 . S
C280 H269 0.950 . S
C280 C278 1.391 . S
C280 C281 1.400 . S
C281 C275 1.491 . S
C281 C280 1.400 . S
C281 C282 1.398 . S
C282 H270 0.950 . S
C282 C281 1.398 . S
C282 C283 1.391 . S
C283 H271 0.950 . S
C283 C279 1.393 . S
C283 C282 1.391 . S
H284 C292 0.950 . S
H285 C297 0.950 . S
H286 C294 0.950 . S
H287 C296 0.950 . S
H288 C298 0.950 . S
H289 C300 0.950 . S
H290 C302 0.950 . S
H291 C303 0.950 . S
C292 H284 0.950 . S
C292 C293 1.386 . S
C292 C294 1.391 . S
C293 C292 1.386 . S
C293 C297 1.393 1_554 S
C294 H286 0.950 . S
C294 C292 1.391 . S
C294 C295 1.400 . S
C295 C294 1.400 . S
C295 C296 1.398 1_554 S
C295 C301 1.491 1_655 S
C296 H287 0.950 . S
C296 C295 1.398 1_556 S
C296 C297 1.391 . S
C297 H285 0.950 . S
C297 C293 1.393 1_556 S
C297 C296 1.391 . S
C298 H288 0.950 . S
C298 C299 1.386 1_556 S
C298 C300 1.391 . S
C299 C298 1.386 1_554 S
C299 C303 1.393 . S
C300 H289 0.950 . S
C300 C298 1.391 . S
C300 C301 1.400 1_556 S
C301 C295 1.491 1_455 S
C301 C300 1.400 1_554 S
C301 C302 1.398 . S
C302 H290 0.950 . S
C302 C301 1.398 . S
C302 C303 1.391 . S
C303 H291 0.950 . S
C303 C299 1.393 . S
C303 C302 1.391 . S
H304 C312 0.950 . S
H305 C317 0.950 . S
H306 C314 0.950 . S
H307 C316 0.950 . S
H308 C318 0.950 . S
H309 C320 0.950 . S
H310 C322 0.950 . S
H311 C323 0.950 . S
C312 H304 0.950 . S
C312 C313 1.386 . S
C312 C314 1.391 . S
C313 C312 1.386 . S
C313 C317 1.393 . S
C314 H306 0.950 . S
C314 C312 1.391 . S
C314 C315 1.400 . S
C315 C314 1.400 . S
C315 C316 1.398 . S
C315 C321 1.491 1_565 S
C316 H307 0.950 . S
C316 C315 1.398 . S
C316 C317 1.391 . S
C317 H305 0.950 . S
C317 C313 1.393 . S
C317 C316 1.391 . S
C318 H308 0.950 . S
C318 C319 1.386 . S
C318 C320 1.391 . S
C319 C318 1.386 . S
C319 C323 1.393 . S
C320 H309 0.950 . S
C320 C318 1.391 . S
C320 C321 1.400 . S
C321 C315 1.491 1_545 S
C321 C320 1.400 . S
C321 C322 1.398 . S
C322 H310 0.950 . S
C322 C321 1.398 . S
C322 C323 1.391 . S
C323 H311 0.950 . S
C323 C319 1.393 . S
C323 C322 1.391 . S
H324 C332 0.950 . S
H325 C337 0.943 1_556 S
H326 C334 0.950 . S
H327 C336 0.938 1_556 S
H328 C338 0.950 . S
H329 C340 0.974 . S
H330 C342 0.950 . S
H331 C343 0.949 . S
C332 H324 0.950 . S
C332 C333 1.386 . S
C332 C334 1.391 . S
C333 C332 1.386 . S
C333 C337 1.399 . S
C334 H326 0.950 . S
C334 C332 1.391 . S
C334 C335 1.400 . S
C335 C334 1.400 . S
C335 C336 1.410 1_455 S
C335 C341 1.491 1_445 S
C336 H327 0.938 1_554 S
C336 C335 1.410 1_655 S
C336 C337 1.391 1_655 S
C337 H325 0.943 1_554 S
C337 C333 1.399 . S
C337 C336 1.391 1_455 S
C338 H328 0.950 . S
C338 C339 1.386 1_556 S
C338 C340 1.393 . S
C339 C338 1.386 1_554 S
C339 C343 1.393 . S
C340 H329 0.974 . S
C340 C338 1.393 . S
C340 C341 1.377 1_556 S
C341 C335 1.491 1_665 S
C341 C340 1.377 1_554 S
C341 C342 1.398 1_655 S
C342 H330 0.950 . S
C342 C341 1.398 1_455 S
C342 C343 1.391 1_455 S
C343 H331 0.949 . S
C343 C339 1.393 . S
C343 C342 1.391 1_655 S
H344 C352 0.950 . S
H345 C357 0.950 . S
H346 C354 0.950 1_655 S
H347 C356 0.950 1_545 S
H348 C358 0.950 . S
H349 C360 0.950 1_455 S
H350 C362 0.950 1_565 S
H351 C363 0.950 . S
C352 H344 0.950 . S
C352 C353 1.386 . S
C352 C354 1.391 . S
C353 C352 1.386 . S
C353 C357 1.393 . S
C354 H346 0.950 1_455 S
C354 C352 1.391 . S
C354 C355 1.400 . S
C355 C354 1.400 . S
C355 C356 1.398 . S
C355 C361 1.491 1_465 S
C356 H347 0.950 1_565 S
C356 C355 1.398 . S
C356 C357 1.391 . S
C357 H345 0.950 . S
C357 C353 1.393 . S
C357 C356 1.391 . S
C358 H348 0.950 . S
C358 C359 1.386 . S
C358 C360 1.391 . S
C359 C358 1.386 . S
C359 C363 1.393 . S
C360 H349 0.950 1_655 S
C360 C358 1.391 . S
C360 C361 1.400 . S
C361 C355 1.491 1_645 S
C361 C360 1.400 . S
C361 C362 1.398 . S
C362 H350 0.950 1_545 S
C362 C361 1.398 . S
C362 C363 1.391 . S
C363 H351 0.950 . S
C363 C359 1.393 . S
C363 C362 1.391 . S
H364 C372 0.950 . S
H365 C377 0.950 . S
H366 C374 0.950 . S
H367 C376 0.950 . S
H368 C378 0.950 . S
H369 C380 0.950 . S
H370 C382 0.950 . S
H371 C383 0.950 . S
C372 H364 0.950 . S
C372 C373 1.386 . S
C372 C374 1.391 . S
C373 C372 1.386 . S
C373 C377 1.393 . S
C374 H366 0.950 . S
C374 C372 1.391 . S
C374 C375 1.400 . S
C375 C374 1.400 . S
C375 C376 1.398 . S
C375 C381 1.491 1_445 S
C376 H367 0.950 . S
C376 C375 1.398 . S
C376 C377 1.391 . S
C377 H365 0.950 . S
C377 C373 1.393 . S
C377 C376 1.391 . S
C378 H368 0.950 . S
C378 C379 1.386 . S
C378 C380 1.391 . S
C379 C378 1.386 . S
C379 C383 1.393 . S
C380 H369 0.950 . S
C380 C378 1.391 . S
C380 C381 1.400 . S
C381 C375 1.491 1_665 S
C381 C380 1.400 . S
C381 C382 1.398 . S
C382 H370 0.950 . S
C382 C381 1.398 . S
C382 C383 1.391 . S
C383 H371 0.950 . S
C383 C379 1.393 . S
C383 C382 1.391 . S
H384 C392 0.950 . S
H385 C397 0.950 . S
H386 C394 0.950 . S
H387 C396 0.950 . S
H388 C398 0.950 . S
H389 C400 0.950 . S
H390 C402 0.950 . S
H391 C403 0.950 . S
C392 H384 0.950 . S
C392 C393 1.386 . S
C392 C394 1.391 . S
C393 C392 1.386 . S
C393 C397 1.393 . S
C394 H386 0.950 . S
C394 C392 1.391 . S
C394 C395 1.400 . S
C395 C394 1.400 . S
C395 C396 1.398 . S
C395 C401 1.491 . S
C396 H387 0.950 . S
C396 C395 1.398 . S
C396 C397 1.391 . S
C397 H385 0.950 . S
C397 C393 1.393 . S
C397 C396 1.391 . S
C398 H388 0.950 . S
C398 C399 1.386 . S
C398 C400 1.391 . S
C399 C398 1.386 . S
C399 C403 1.393 . S
C400 H389 0.950 . S
C400 C398 1.391 . S
C400 C401 1.400 . S
C401 C395 1.491 . S
C401 C400 1.400 . S
C401 C402 1.398 . S
C402 H390 0.950 . S
C402 C401 1.398 . S
C402 C403 1.391 . S
C403 H391 0.950 . S
C403 C399 1.393 . S
C403 C402 1.391 . S
H404 C412 0.950 . S
H405 C417 0.950 . S
H406 C414 0.950 . S
H407 C416 0.950 . S
H408 C418 0.950 . S
H409 C420 0.950 . S
H410 C422 0.950 . S
H411 C423 0.950 . S
C412 H404 0.950 . S
C412 C413 1.386 . S
C412 C414 1.391 . S
C413 C412 1.386 . S
C413 C417 1.393 . S
C414 H406 0.950 . S
C414 C412 1.391 . S
C414 C415 1.400 . S
C415 C414 1.400 . S
C415 C416 1.398 . S
C415 C421 1.491 . S
C416 H407 0.950 . S
C416 C415 1.398 . S
C416 C417 1.391 . S
C417 H405 0.950 . S
C417 C413 1.393 . S
C417 C416 1.391 . S
C418 H408 0.950 . S
C418 C419 1.386 . S
C418 C420 1.391 . S
C419 C418 1.386 . S
C419 C423 1.393 1_655 S
C420 H409 0.950 . S
C420 C418 1.391 . S
C420 C421 1.400 1_655 S
C421 C415 1.491 . S
C421 C420 1.400 1_455 S
C421 C422 1.398 . S
C422 H410 0.950 . S
C422 C421 1.398 . S
C422 C423 1.391 . S
C423 H411 0.950 . S
C423 C419 1.393 1_455 S
C423 C422 1.391 . S
H424 C432 0.950 . S
H425 C437 0.950 . S
H426 C434 0.950 . S
H427 C436 0.950 . S
H428 C438 0.950 . S
H429 C440 0.950 . S
H430 C442 0.950 . S
H431 C443 0.950 . S
C432 H424 0.950 . S
C432 C433 1.386 . S
C432 C434 1.391 . S
C433 C432 1.386 . S
C433 C437 1.393 . S
C434 H426 0.950 . S
C434 C432 1.391 . S
C434 C435 1.400 . S
C435 C434 1.400 . S
C435 C436 1.398 . S
C435 C441 1.491 . S
C436 H427 0.950 . S
C436 C435 1.398 . S
C436 C437 1.391 . S
C437 H425 0.950 . S
C437 C433 1.393 . S
C437 C436 1.391 . S
C438 H428 0.950 . S
C438 C439 1.386 . S
C438 C440 1.391 . S
C439 C438 1.386 . S
C439 C443 1.393 1_565 S
C440 H429 0.950 . S
C440 C438 1.391 . S
C440 C441 1.400 1_565 S
C441 C435 1.491 . S
C441 C440 1.400 1_545 S
C441 C442 1.398 . S
C442 H430 0.950 . S
C442 C441 1.398 . S
C442 C443 1.391 . S
C443 H431 0.950 . S
C443 C439 1.393 1_545 S
C443 C442 1.391 . S
H444 C452 0.950 . S
H445 C457 0.950 . S
H446 C454 0.950 . S
H447 C456 0.950 . S
H448 C458 0.950 . S
H449 C460 0.950 . S
H450 C462 0.950 . S
H451 C463 0.950 . S
C452 H444 0.950 . S
C452 C453 1.386 . S
C452 C454 1.391 . S
C453 C452 1.386 . S
C453 C457 1.393 . S
C454 H446 0.950 . S
C454 C452 1.391 . S
C454 C455 1.400 . S
C455 C454 1.400 . S
C455 C456 1.398 . S
C455 C461 1.491 . S
C456 H447 0.950 . S
C456 C455 1.398 . S
C456 C457 1.391 . S
C457 H445 0.950 . S
C457 C453 1.393 . S
C457 C456 1.391 . S
C458 H448 0.950 . S
C458 C459 1.386 . S
C458 C460 1.391 . S
C459 C458 1.386 . S
C459 C463 1.393 . S
C460 H449 0.950 . S
C460 C458 1.391 . S
C460 C461 1.400 . S
C461 C455 1.491 . S
C461 C460 1.400 . S
C461 C462 1.398 . S
C462 H450 0.950 . S
C462 C461 1.398 . S
C462 C463 1.391 . S
C463 H451 0.950 . S
C463 C459 1.393 . S
C463 C462 1.391 . S
H464 C472 0.950 . S
H465 C477 0.950 . S
H466 C474 0.950 . S
H467 C476 0.950 . S
H468 C478 0.950 . S
H469 C480 0.950 . S
H470 C482 0.945 1_455 S
H471 C483 0.950 . S
C472 H464 0.950 . S
C472 C473 1.386 . S
C472 C474 1.391 . S
C473 C472 1.386 . S
C473 C477 1.393 . S
C474 H466 0.950 . S
C474 C472 1.391 . S
C474 C475 1.400 . S
C475 C474 1.400 . S
C475 C476 1.398 . S
C475 C481 1.491 . S
C476 H467 0.950 . S
C476 C475 1.398 . S
C476 C477 1.391 . S
C477 H465 0.950 . S
C477 C473 1.393 . S
C477 C476 1.391 . S
C478 H468 0.950 . S
C478 C479 1.386 1_655 S
C478 C480 1.391 . S
C479 C478 1.386 1_455 S
C479 C483 1.393 . S
C480 H469 0.950 . S
C480 C478 1.391 . S
C480 C481 1.400 . S
C481 C475 1.491 . S
C481 C480 1.400 . S
C481 C482 1.407 . S
C482 H470 0.945 1_655 S
C482 C481 1.407 . S
C482 C483 1.387 1_655 S
C483 H471 0.950 . S
C483 C479 1.393 . S
C483 C482 1.387 1_455 S
H484 C492 0.950 . S
H485 C497 0.950 . S
H486 C494 0.950 . S
H487 C496 0.950 . S
H488 C498 0.950 . S
H489 C500 0.950 . S
H490 C502 0.950 . S
H491 C503 0.950 . S
C492 H484 0.950 . S
C492 C493 1.386 1_565 S
C492 C494 1.391 . S
C493 C492 1.386 1_545 S
C493 C497 1.393 . S
C494 H486 0.950 . S
C494 C492 1.391 . S
C494 C495 1.400 . S
C495 C494 1.400 . S
C495 C496 1.398 1_565 S
C495 C501 1.491 . S
C496 H487 0.950 . S
C496 C495 1.398 1_545 S
C496 C497 1.391 . S
C497 H485 0.950 . S
C497 C493 1.393 . S
C497 C496 1.391 . S
C498 H488 0.950 . S
C498 C499 1.386 . S
C498 C500 1.391 . S
C499 C498 1.386 . S
C499 C503 1.393 . S
C500 H489 0.950 . S
C500 C498 1.391 . S
C500 C501 1.400 . S
C501 C495 1.491 . S
C501 C500 1.400 . S
C501 C502 1.398 . S
C502 H490 0.950 . S
C502 C501 1.398 . S
C502 C503 1.391 . S
C503 H491 0.950 . S
C503 C499 1.393 . S
C503 C502 1.391 . S
C213 C2 1.420 . S
C219 C104 1.423 . S
C233 C36 1.427 . S
C239 C138 1.428 . S
C253 C172 1.414 . S
C259 C70 1.416 . S
C273 C101 2.048 . S
C279 C203 2.048 . S
C293 C135 2.048 . S
C299 C33 2.048 . S
C313 C169 2.044 . S
C319 C67 2.044 . S
C333 C20 0.475 . S
C339 C122 0.482 . S
C353 C156 0.446 . S
C359 C54 0.453 . S
C373 C190 0.444 . S
C379 C88 0.447 . S
C393 C9 1.633 . S
C399 C175 1.688 . S
C413 C5 1.684 . S
C419 C43 1.641 . S
C433 C39 1.689 . S
C439 C77 1.633 . S
C453 C73 1.689 . S
C459 C111 1.633 . S
C473 C107 1.679 . S
C479 C145 1.654 . S
C493 C179 1.633 . S
C499 C141 1.689 . S
