# Generated by pormake.
# Topology sml, (6)-cn, num edge types: 1
# Building blocks:
#     Node 0, Type 0, BuildingBlock: KUMBOL_clean_sbu_0, # of connection points: 6
#     Node 1, Type 0, BuildingBlock: KUMBOL_clean_sbu_0, # of connection points: 6
#     Node 2, Type 0, BuildingBlock: KUMBOL_clean_sbu_0, # of connection points: 6
#     Node 3, Type 0, BuildingBlock: KUMBOL_clean_sbu_0, # of connection points: 6
#     Node 4, Type 0, BuildingBlock: KUMBOL_clean_sbu_0, # of connection points: 6
#     Node 5, Type 0, BuildingBlock: KUMBOL_clean_sbu_0, # of connection points: 6
#     Edge 6, Type (0, 0), BuildingBlock: UVAHIK_clean_linker_0, # of connection points: 2
#     Edge 7, Type (0, 0), BuildingBlock: UVAHIK_clean_linker_0, # of connection points: 2
#     Edge 8, Type (0, 0), BuildingBlock: UVAHIK_clean_linker_0, # of connection points: 2
#     Edge 9, Type (0, 0), BuildingBlock: UVAHIK_clean_linker_0, # of connection points: 2
#     Edge 10, Type (0, 0), BuildingBlock: UVAHIK_clean_linker_0, # of connection points: 2
#     Edge 11, Type (0, 0), BuildingBlock: UVAHIK_clean_linker_0, # of connection points: 2
#     Edge 12, Type (0, 0), BuildingBlock: UVAHIK_clean_linker_0, # of connection points: 2
#     Edge 13, Type (0, 0), BuildingBlock: UVAHIK_clean_linker_0, # of connection points: 2
#     Edge 14, Type (0, 0), BuildingBlock: UVAHIK_clean_linker_0, # of connection points: 2
#     Edge 15, Type (0, 0), BuildingBlock: UVAHIK_clean_linker_0, # of connection points: 2
#     Edge 16, Type (0, 0), BuildingBlock: UVAHIK_clean_linker_0, # of connection points: 2
#     Edge 17, Type (0, 0), BuildingBlock: UVAHIK_clean_linker_0, # of connection points: 2
#     Edge 18, Type (0, 0), BuildingBlock: UVAHIK_clean_linker_0, # of connection points: 2
#     Edge 19, Type (0, 0), BuildingBlock: UVAHIK_clean_linker_0, # of connection points: 2
#     Edge 20, Type (0, 0), BuildingBlock: UVAHIK_clean_linker_0, # of connection points: 2
#     Edge 21, Type (0, 0), BuildingBlock: UVAHIK_clean_linker_0, # of connection points: 2
#     Edge 22, Type (0, 0), BuildingBlock: UVAHIK_clean_linker_0, # of connection points: 2
#     Edge 23, Type (0, 0), BuildingBlock: UVAHIK_clean_linker_0, # of connection points: 2
# Relax obj value: 0.025
# Max RMSD: 0.145
# Mean RMSD: 0.145
data_MOF--net-sml--node1-KUMBOL_clean_sbu_0--edge1-UVAHIK_clean_linker_0
_symmetry_space_group_name_H-M    P1
_symmetry_Int_Tables_number       1
_symmetry_cell_setting            triclinic
loop_
_symmetry_equiv_pos_as_xyz
'x, y, z'
_cell_length_a     44.486477
_cell_length_b     44.47154
_cell_length_c     28.777761
_cell_angle_alpha  90.087061
_cell_angle_beta   90.001215
_cell_angle_gamma 120.01592
loop_
_atom_site_label
_atom_site_type_symbol
_atom_site_fract_x
_atom_site_fract_y
_atom_site_fract_z
_atom_type_partial_charge
Gd0 Gd 0.23814 0.42125 0.06201 0.0
Gd1 Gd 0.18399 0.4239 0.96516 0.0
C2 C 0.1242 0.4825 0.97402 0.0
C3 C 0.06426 0.43549 0.97131 0.0
C4 C 0.11155 0.42305 0.96712 0.0
C5 C 0.13543 0.45799 0.97107 0.0
C6 C 0.07569 0.41142 0.96591 0.0
C7 C 0.08849 0.47099 0.97544 0.0
C8 C 0.14916 0.51784 0.97356 0.0
C9 C 0.18412 0.52789 0.96801 0.0
N10 N 0.16965 0.46815 0.96852 0.0
C11 C 0.19388 0.50255 0.96466 0.0
H12 H 0.22099 0.51071 0.96044 0.0
C13 C 0.10123 0.36647 0.95142 0.0
N14 N 0.12355 0.40064 0.96147 0.0
C15 C 0.06541 0.35366 0.94979 0.0
C16 C 0.05253 0.37614 0.95775 0.0
H17 H 0.11096 0.3489 0.94555 0.0
H18 H 0.07936 0.4894 0.97819 0.0
H19 H 0.19426 0.33413 0.06907 0.0
H20 H 0.14165 0.53751 0.97593 0.0
H21 H 0.20358 0.55515 0.96641 0.0
H22 H 0.0368 0.42704 0.97099 0.0
H23 H 0.31556 0.49254 0.07529 0.0
H24 H 0.2657 0.29751 0.04817 0.0
H25 H 0.20589 0.28567 0.06228 0.0
H26 H 0.37608 0.40243 0.04247 0.0
H27 H 0.04777 0.32646 0.94264 0.0
H28 H 0.02478 0.36617 0.95644 0.0
H29 H 0.3292 0.34135 0.04001 0.0
H30 H 0.37771 0.50972 0.07107 0.0
N31 N 0.24687 0.37327 0.05811 0.0
C32 C 0.26077 0.31895 0.05126 0.0
C33 C 0.227 0.31217 0.05936 0.0
C34 C 0.28793 0.35336 0.04874 0.0
C35 C 0.28006 0.38028 0.05279 0.0
C36 C 0.22053 0.3398 0.06324 0.0
N37 N 0.29767 0.43938 0.0605 0.0
C38 C 0.30634 0.4145 0.0539 0.0
C39 C 0.3579 0.48286 0.06594 0.0
C40 C 0.36725 0.45778 0.05666 0.0
C41 C 0.32277 0.47307 0.06845 0.0
C42 C 0.34136 0.42299 0.05133 0.0
H43 H 0.39448 0.46539 0.05491 0.0
O44 O 0.25466 0.44909 0.12764 0.0
O45 O 0.20573 0.44253 0.03585 0.0
O46 O 0.23995 0.46759 0.96141 0.0
O47 O 0.2735 0.44903 1.00112 0.0
O48 O 0.25009 0.47647 0.07205 0.0
O49 O 0.21886 0.39363 0.12718 0.0
O50 O 0.17302 0.39848 0.89769 0.0
O51 O 0.21638 0.40307 0.99204 0.0
O52 O 0.1805 0.38065 0.07055 0.0
O53 O 0.14843 0.39858 0.0256 0.0
O54 O 0.17382 0.36891 0.95456 0.0
O55 O 0.20492 0.45441 0.9024 0.0
C56 C 0.22286 0.4731 0.05142 0.0
C57 C 0.34935 0.39643 0.04505 0.0
C58 C 0.32266 0.36165 0.04369 0.0
C59 C 0.23737 0.42115 0.15261 0.0
C60 C 0.25605 0.41701 0.192 0.0
C61 C 0.28346 0.41059 0.18452 0.0
C62 C 0.24642 0.41969 0.23769 0.0
C63 C 0.26416 0.41611 0.276 0.0
C64 C 0.30117 0.40701 0.22219 0.0
C65 C 0.29167 0.40975 0.26761 0.0
C66 C 0.26975 0.46846 0.96931 0.0
C67 C 0.20083 0.37267 0.97615 0.0
C68 C 0.1895 0.42759 0.87485 0.0
C69 C 0.17129 0.43127 0.83451 0.0
C70 C 0.14362 0.43748 0.84072 0.0
C71 C 0.1816 0.42843 0.78928 0.0
C72 C 0.16424 0.43163 0.75021 0.0
C73 C 0.12634 0.44072 0.80231 0.0
C74 C 0.1365 0.43783 0.75738 0.0
C75 C 0.15114 0.38014 0.05976 0.0
H76 H 0.29114 0.40831 0.14967 0.0
H77 H 0.22542 0.42499 0.24331 0.0
H78 H 0.32227 0.40197 0.21618 0.0
H79 H 0.30556 0.40636 0.29616 0.0
H80 H 0.13543 0.43989 0.87517 0.0
H81 H 0.2028 0.4233 0.78462 0.0
H82 H 0.10505 0.44561 0.80737 0.0
H83 H 0.12292 0.44096 0.72822 0.0
Gd84 Gd 0.81757 0.23679 0.3965 0.0
Gd85 Gd 0.75968 0.18373 0.29968 0.0
C86 C 0.6415 0.12245 0.31145 0.0
C87 C 0.62925 0.0628 0.30621 0.0
C88 C 0.68869 0.11068 0.30167 0.0
C89 C 0.67728 0.13418 0.30738 0.0
C90 C 0.66477 0.07475 0.29982 0.0
C91 C 0.61764 0.08662 0.3121 0.0
C92 C 0.6307 0.14708 0.31285 0.0
C93 C 0.65522 0.18224 0.30795 0.0
N94 N 0.70098 0.16855 0.30545 0.0
C95 C 0.69037 0.1925 0.30331 0.0
H96 H 0.70904 0.21973 0.29951 0.0
C97 C 0.73524 0.10132 0.28377 0.0
N98 N 0.72312 0.12318 0.29518 0.0
C99 C 0.71253 0.06544 0.28146 0.0
C100 C 0.67719 0.05204 0.29013 0.0
H101 H 0.76252 0.11144 0.27729 0.0
H102 H 0.59007 0.0771 0.31565 0.0
H103 H 0.85866 0.1905 0.39826 0.0
H104 H 0.60347 0.13917 0.31611 0.0
H105 H 0.64709 0.20146 0.30773 0.0
H106 H 0.61049 0.03526 0.30538 0.0
H107 H 0.82575 0.31493 0.41093 0.0
H108 H 0.96767 0.26049 0.38498 0.0
H109 H 0.91816 0.20067 0.39275 0.0
H110 H 0.97671 0.37253 0.38625 0.0
H111 H 0.72231 0.04815 0.27319 0.0
H112 H 0.65965 0.02425 0.28829 0.0
H113 H 0.98927 0.3246 0.38204 0.0
H114 H 0.87196 0.37669 0.40997 0.0
N115 N 0.8738 0.24402 0.39277 0.0
C116 C 0.94152 0.25621 0.38752 0.0
C117 C 0.91365 0.22243 0.39195 0.0
C118 C 0.93535 0.28411 0.38739 0.0
C119 C 0.90077 0.27707 0.39048 0.0
C120 C 0.87983 0.21679 0.39513 0.0
N121 N 0.8603 0.296 0.39718 0.0
C122 C 0.89375 0.30395 0.39234 0.0
C123 C 0.87845 0.3565 0.40471 0.0
C124 C 0.9129 0.36516 0.39734 0.0
C125 C 0.85239 0.32157 0.40532 0.0
C126 C 0.92101 0.33874 0.39183 0.0
H127 H 0.93308 0.39223 0.39712 0.0
O128 O 0.80676 0.25314 0.46263 0.0
O129 O 0.76337 0.20491 0.37108 0.0
O130 O 0.77185 0.23962 0.29693 0.0
O131 O 0.8238 0.27325 0.33739 0.0
O132 O 0.77542 0.2499 0.40716 0.0
O133 O 0.82414 0.2156 0.46116 0.0
O134 O 0.77298 0.17356 0.23099 0.0
O135 O 0.81324 0.21625 0.32557 0.0
O136 O 0.80008 0.17898 0.40356 0.0
O137 O 0.74967 0.14743 0.35916 0.0
O138 O 0.80477 0.17447 0.28605 0.0
O139 O 0.74807 0.2045 0.23837 0.0
C140 C 0.75088 0.22285 0.38696 0.0
C141 C 0.95542 0.34597 0.38716 0.0
C142 C 0.96258 0.31868 0.38487 0.0
C143 C 0.81602 0.23452 0.48714 0.0
C144 C 0.83887 0.2519 0.52712 0.0
C145 C 0.87309 0.27874 0.52042 0.0
C146 C 0.82631 0.24146 0.57254 0.0
C147 C 0.84784 0.25775 0.61133 0.0
C148 C 0.89453 0.29511 0.55854 0.0
C149 C 0.88208 0.28479 0.60365 0.0
C150 C 0.80016 0.26967 0.30631 0.0
C151 C 0.82815 0.20135 0.30782 0.0
C152 C 0.75937 0.1897 0.20957 0.0
C153 C 0.73692 0.17154 0.16956 0.0
C154 C 0.70304 0.14397 0.17625 0.0
C155 C 0.74949 0.1819 0.12412 0.0
C156 C 0.72827 0.1649 0.08534 0.0
C157 C 0.68195 0.12687 0.13813 0.0
C158 C 0.69438 0.13719 0.09301 0.0
C159 C 0.77102 0.14979 0.39285 0.0
H160 H 0.88324 0.28704 0.48584 0.0
H161 H 0.79996 0.22036 0.57754 0.0
H162 H 0.92089 0.31595 0.5531 0.0
H163 H 0.89918 0.29832 0.63255 0.0
H164 H 0.69289 0.13569 0.21084 0.0
H165 H 0.77557 0.20349 0.11908 0.0
H166 H 0.65586 0.1055 0.14357 0.0
H167 H 0.67756 0.12316 0.06409 0.0
Gd168 Gd 0.58071 0.81764 0.73397 0.0
Gd169 Gd 0.57689 0.75983 0.63736 0.0
C170 C 0.51977 0.64143 0.64617 0.0
C171 C 0.56739 0.62941 0.64464 0.0
C172 C 0.57898 0.68887 0.64024 0.0
C173 C 0.5439 0.6773 0.64349 0.0
C174 C 0.59113 0.66505 0.63971 0.0
C175 C 0.53176 0.61762 0.64792 0.0
C176 C 0.48433 0.63053 0.64528 0.0
C177 C 0.47379 0.65507 0.63977 0.0
N178 N 0.53325 0.70099 0.6408 0.0
C179 C 0.49875 0.69032 0.63674 0.0
H180 H 0.49023 0.70898 0.63259 0.0
C181 C 0.63553 0.73579 0.62645 0.0
N182 N 0.60109 0.72341 0.63507 0.0
C183 C 0.64885 0.71319 0.62571 0.0
C184 C 0.62662 0.6777 0.63292 0.0
H185 H 0.65289 0.7632 0.62113 0.0
H186 H 0.51365 0.58999 0.65043 0.0
H187 H 0.6681 0.86118 0.73585 0.0
H188 H 0.46495 0.60323 0.64743 0.0
H189 H 0.44645 0.64688 0.63795 0.0
H190 H 0.57623 0.61071 0.64475 0.0
H191 H 0.50927 0.82311 0.74859 0.0
H192 H 0.70385 0.9695 0.72106 0.0
H193 H 0.71615 0.92136 0.7296 0.0
H194 H 0.59868 0.97456 0.72231 0.0
H195 H 0.67625 0.72317 0.61971 0.0
H196 H 0.63699 0.66024 0.63224 0.0
H197 H 0.65978 0.98911 0.71785 0.0
H198 H 0.49177 0.86789 0.74729 0.0
N199 N 0.6285 0.87459 0.72988 0.0
C200 C 0.68254 0.94305 0.72387 0.0
C201 C 0.68958 0.91595 0.72875 0.0
C202 C 0.64808 0.93573 0.72374 0.0
C203 C 0.62133 0.90081 0.7272 0.0
C204 C 0.66213 0.88175 0.73233 0.0
N205 N 0.56237 0.85893 0.73452 0.0
C206 C 0.5871 0.89267 0.72926 0.0
C207 C 0.51866 0.87521 0.74193 0.0
C208 C 0.54361 0.90992 0.73419 0.0
C209 C 0.52863 0.84997 0.74275 0.0
C210 C 0.57843 0.91913 0.72851 0.0
H211 H 0.53586 0.92947 0.73379 0.0
O212 O 0.55421 0.80642 0.80057 0.0
O213 O 0.55909 0.76379 0.70811 0.0
O214 O 0.53269 0.77139 0.63434 0.0
O215 O 0.55048 0.82339 0.67455 0.0
O216 O 0.52586 0.77425 0.74606 0.0
O217 O 0.60942 0.82521 0.79808 0.0
O218 O 0.60141 0.77258 0.56934 0.0
O219 O 0.59735 0.81344 0.66312 0.0
O220 O 0.6222 0.80171 0.73984 0.0
O221 O 0.60224 0.74995 0.69837 0.0
O222 O 0.63114 0.8052 0.62439 0.0
O223 O 0.54565 0.74979 0.57513 0.0
C224 C 0.52886 0.7504 0.72472 0.0
C225 C 0.60483 0.95387 0.72341 0.0
C226 C 0.63961 0.96216 0.72096 0.0
C227 C 0.58253 0.81652 0.82456 0.0
C228 C 0.58785 0.83942 0.86444 0.0
C229 C 0.59539 0.87368 0.85757 0.0
C230 C 0.58545 0.82688 0.90992 0.0
C231 C 0.59061 0.84848 0.94862 0.0
C232 C 0.60038 0.89518 0.89559 0.0
C233 C 0.59801 0.88277 0.94078 0.0
C234 C 0.53068 0.79961 0.64342 0.0
C235 C 0.62725 0.82852 0.64567 0.0
C236 C 0.57205 0.76027 0.54708 0.0
C237 C 0.56725 0.73777 0.50691 0.0
C238 C 0.56084 0.70384 0.51336 0.0
C239 C 0.56892 0.75031 0.46158 0.0
C240 C 0.56408 0.72901 0.42265 0.0
C241 C 0.55615 0.68264 0.47509 0.0
C242 C 0.55773 0.69503 0.43007 0.0
C243 C 0.62186 0.77218 0.73098 0.0
H244 H 0.59741 0.88379 0.82291 0.0
H245 H 0.58006 0.80049 0.91507 0.0
H246 H 0.60603 0.92158 0.89003 0.0
H247 H 0.60154 0.89992 0.9696 0.0
H248 H 0.55945 0.69375 0.54788 0.0
H249 H 0.5735 0.77644 0.45674 0.0
H250 H 0.55133 0.65649 0.48033 0.0
H251 H 0.55444 0.67813 0.40103 0.0
Gd252 Gd 0.76136 0.58107 0.05874 0.0
Gd253 Gd 0.8141 0.57492 0.96292 0.0
C254 C 0.87036 0.51306 0.9756 0.0
C255 C 0.93092 0.5585 0.97157 0.0
C256 C 0.88509 0.57296 0.96602 0.0
C257 C 0.86032 0.5384 0.97123 0.0
C258 C 0.92066 0.58335 0.96486 0.0
C259 C 0.9058 0.5234 0.97702 0.0
C260 C 0.84449 0.47804 0.97655 0.0
C261 C 0.80981 0.46905 0.97097 0.0
N262 N 0.82638 0.52934 0.96861 0.0
C263 C 0.80124 0.49517 0.9661 0.0
H264 H 0.77434 0.48784 0.9618 0.0
C265 C 0.89736 0.62984 0.94796 0.0
N266 N 0.8742 0.59615 0.9592 0.0
C267 C 0.93295 0.64141 0.94632 0.0
C268 C 0.9447 0.61818 0.95548 0.0
H269 H 0.8885 0.64799 0.94114 0.0
H270 H 0.91403 0.50435 0.98082 0.0
H271 H 0.80868 0.66835 0.0633 0.0
H272 H 0.85108 0.45777 0.98004 0.0
H273 H 0.78964 0.44201 0.97043 0.0
H274 H 0.95815 0.566 0.9713 0.0
H275 H 0.68257 0.51178 0.07169 0.0
H276 H 0.74031 0.7091 0.04717 0.0
H277 H 0.79957 0.71839 0.05752 0.0
H278 H 0.6275 0.60711 0.04491 0.0
H279 H 0.95127 0.66826 0.93822 0.0
H280 H 0.97227 0.6272 0.95417 0.0
H281 H 0.67612 0.66734 0.04187 0.0
H282 H 0.62114 0.49723 0.06935 0.0
N283 N 0.75515 0.63066 0.05536 0.0
C284 C 0.74413 0.68693 0.04983 0.0
C285 C 0.77759 0.69227 0.05573 0.0
C286 C 0.7159 0.65304 0.04856 0.0
C287 C 0.72234 0.62511 0.05184 0.0
C288 C 0.78263 0.66371 0.05905 0.0
N289 N 0.70244 0.56546 0.05833 0.0
C290 C 0.69509 0.59137 0.0531 0.0
C291 C 0.64168 0.5238 0.06448 0.0
C292 C 0.63365 0.54999 0.05671 0.0
C293 C 0.67643 0.53212 0.06589 0.0
C294 C 0.6605 0.58438 0.05166 0.0
H295 H 0.60672 0.54352 0.0558 0.0
O296 O 0.7444 0.55348 0.12441 0.0
O297 O 0.79234 0.55759 0.03396 0.0
O298 O 0.7576 0.53276 0.95927 0.0
O299 O 0.72536 0.55336 0.99801 0.0
O300 O 0.74651 0.52517 0.06835 0.0
O301 O 0.78197 0.60844 0.12394 0.0
O302 O 0.82534 0.59922 0.89477 0.0
O303 O 0.78294 0.59765 0.98837 0.0
O304 O 0.81938 0.62043 0.06678 0.0
O305 O 0.85032 0.60062 0.02279 0.0
O306 O 0.82614 0.63029 0.95065 0.0
O307 O 0.79304 0.54344 0.90078 0.0
C308 C 0.77361 0.52711 0.04919 0.0
C309 C 0.6539 0.61196 0.04657 0.0
C310 C 0.68157 0.64624 0.04493 0.0
C311 C 0.76289 0.58119 0.14942 0.0
C312 C 0.74533 0.58631 0.18944 0.0
C313 C 0.71906 0.59453 0.1828 0.0
C314 C 0.75479 0.58268 0.23486 0.0
C315 C 0.73797 0.58706 0.27369 0.0
C316 C 0.70232 0.59895 0.22097 0.0
C317 C 0.71161 0.59525 0.26608 0.0
C318 C 0.72832 0.53299 0.96676 0.0
C319 C 0.79941 0.62774 0.97167 0.0
C320 C 0.80856 0.56979 0.87261 0.0
C321 C 0.82643 0.56529 0.83245 0.0
C322 C 0.85322 0.5578 0.83892 0.0
C323 C 0.81673 0.56875 0.78709 0.0
C324 C 0.8338 0.56486 0.74816 0.0
C325 C 0.87021 0.55387 0.80066 0.0
C326 C 0.86064 0.55735 0.75562 0.0
C327 C 0.84828 0.61991 0.05639 0.0
H328 H 0.71153 0.59755 0.1482 0.0
H329 H 0.7749 0.576 0.23985 0.0
H330 H 0.6821 0.60538 0.2156 0.0
H331 H 0.69848 0.5993 0.29503 0.0
H332 H 0.86093 0.55491 0.87347 0.0
H333 H 0.79624 0.5749 0.78224 0.0
H334 H 0.8908 0.54797 0.80591 0.0
H335 H 0.87396 0.55365 0.7266 0.0
Gd336 Gd 0.18136 0.76114 0.39555 0.0
Gd337 Gd 0.23913 0.81413 0.29908 0.0
C338 C 0.35733 0.87329 0.31079 0.0
C339 C 0.37079 0.93336 0.30663 0.0
C340 C 0.31095 0.88632 0.30176 0.0
C341 C 0.3217 0.86227 0.30686 0.0
C342 C 0.3354 0.92212 0.30034 0.0
C343 C 0.38173 0.90898 0.31194 0.0
C344 C 0.36745 0.84814 0.31154 0.0
C345 C 0.34241 0.81317 0.30613 0.0
N346 N 0.29749 0.82806 0.30444 0.0
C347 C 0.30743 0.80362 0.30165 0.0
H348 H 0.28835 0.77652 0.2974 0.0
C349 C 0.26514 0.89694 0.28435 0.0
N350 N 0.27663 0.87451 0.29534 0.0
C351 C 0.2884 0.93272 0.28249 0.0
C352 C 0.32364 0.94542 0.29115 0.0
H353 H 0.23792 0.88733 0.27789 0.0
H354 H 0.4092 0.91795 0.31539 0.0
H355 H 0.14094 0.80808 0.39799 0.0
H356 H 0.39455 0.8555 0.31468 0.0
H357 H 0.35002 0.79356 0.30539 0.0
H358 H 0.38997 0.96078 0.30614 0.0
H359 H 0.17256 0.68273 0.40924 0.0
H360 H 0.03175 0.7388 0.38479 0.0
H361 H 0.08162 0.79843 0.39271 0.0
H362 H 0.02168 0.62631 0.3854 0.0
H363 H 0.27912 0.95046 0.27457 0.0
H364 H 0.34161 0.97313 0.28966 0.0
H365 H 0.00963 0.67459 0.38157 0.0
H366 H 0.12596 0.62113 0.4083 0.0
N367 N 0.12535 0.75445 0.39218 0.0
C368 C 0.05783 0.74285 0.3872 0.0
C369 C 0.0859 0.77653 0.39172 0.0
C370 C 0.0637 0.71475 0.38683 0.0
C371 C 0.09818 0.72149 0.38978 0.0
C372 C 0.11961 0.78186 0.39477 0.0
N373 N 0.1383 0.70208 0.39603 0.0
C374 C 0.10491 0.69442 0.39139 0.0
C375 C 0.11968 0.64148 0.40324 0.0
C376 C 0.08529 0.6331 0.3961 0.0
C377 C 0.14596 0.67633 0.40384 0.0
C378 C 0.07746 0.65972 0.39083 0.0
H379 H 0.06495 0.6061 0.39585 0.0
O380 O 0.19252 0.74463 0.46125 0.0
O381 O 0.23558 0.7927 0.37016 0.0
O382 O 0.22598 0.75795 0.29518 0.0
O383 O 0.17408 0.72478 0.33567 0.0
O384 O 0.22303 0.74719 0.40494 0.0
O385 O 0.17489 0.78201 0.46067 0.0
O386 O 0.22579 0.82503 0.2309 0.0
O387 O 0.18556 0.78201 0.32494 0.0
O388 O 0.19937 0.81904 0.40348 0.0
O389 O 0.24961 0.85039 0.35889 0.0
O390 O 0.19446 0.8242 0.28629 0.0
O391 O 0.25029 0.79364 0.23702 0.0
C392 C 0.24777 0.77431 0.38526 0.0
C393 C 0.04313 0.65279 0.38634 0.0
C394 C 0.03626 0.68028 0.38426 0.0
C395 C 0.18321 0.76307 0.4862 0.0
C396 C 0.16055 0.74545 0.52615 0.0
C397 C 0.12612 0.71902 0.51944 0.0
C398 C 0.17358 0.75506 0.57157 0.0
C399 C 0.15238 0.73821 0.61032 0.0
C400 C 0.10495 0.70223 0.55755 0.0
C401 C 0.1179 0.71167 0.60267 0.0
C402 C 0.19713 0.72822 0.30372 0.0
C403 C 0.17088 0.79727 0.30765 0.0
C404 C 0.23911 0.80884 0.20882 0.0
C405 C 0.26149 0.82718 0.16892 0.0
C406 C 0.29558 0.85433 0.17573 0.0
C407 C 0.24852 0.81757 0.12347 0.0
C408 C 0.26947 0.83504 0.08477 0.0
C409 C 0.31648 0.87176 0.13769 0.0
C410 C 0.30362 0.86226 0.09254 0.0
C411 C 0.22846 0.84815 0.39276 0.0
H412 H 0.11559 0.7114 0.48485 0.0
H413 H 0.20032 0.77532 0.57664 0.0
H414 H 0.07835 0.68189 0.5521 0.0
H415 H 0.10074 0.69851 0.6316 0.0
H416 H 0.30605 0.86199 0.21034 0.0
H417 H 0.22201 0.79679 0.11836 0.0
H418 H 0.34283 0.89264 0.14321 0.0
H419 H 0.32062 0.87592 0.06368 0.0
Gd420 Gd 0.41798 0.18141 0.73298 0.0
Gd421 Gd 0.42323 0.23957 0.63615 0.0
C422 C 0.48198 0.35788 0.64662 0.0
C423 C 0.43493 0.37074 0.64916 0.0
C424 C 0.42236 0.31108 0.64196 0.0
C425 C 0.45742 0.32216 0.64348 0.0
C426 C 0.41068 0.33524 0.64409 0.0
C427 C 0.47053 0.38205 0.65039 0.0
C428 C 0.51729 0.36829 0.64462 0.0
C429 C 0.52725 0.34339 0.63801 0.0
N430 N 0.46754 0.29812 0.63946 0.0
C431 C 0.50187 0.30827 0.63486 0.0
H432 H 0.50994 0.28931 0.63009 0.0
C433 C 0.36504 0.26468 0.63092 0.0
N434 N 0.3997 0.27663 0.63681 0.0
C435 C 0.35216 0.28761 0.63313 0.0
C436 C 0.37504 0.32301 0.6402 0.0
H437 H 0.34721 0.23731 0.62584 0.0
H438 H 0.489 0.40958 0.65327 0.0
H439 H 0.33066 0.13819 0.73305 0.0
H440 H 0.53699 0.39547 0.64706 0.0
H441 H 0.55447 0.35119 0.63559 0.0
H442 H 0.42647 0.38971 0.65121 0.0
H443 H 0.48911 0.17568 0.74948 0.0
H444 H 0.29465 0.02974 0.71844 0.0
H445 H 0.28249 0.07805 0.72615 0.0
H446 H 0.39956 0.02424 0.72255 0.0
H447 H 0.32461 0.27796 0.62946 0.0
H448 H 0.365 0.34073 0.64178 0.0
H449 H 0.33858 0.0099 0.71662 0.0
H450 H 0.50643 0.13077 0.7491 0.0
N451 N 0.37013 0.12454 0.72825 0.0
C452 C 0.31599 0.05616 0.72154 0.0
C453 C 0.30903 0.08336 0.72595 0.0
C454 C 0.3504 0.06335 0.72224 0.0
C455 C 0.37721 0.09823 0.72604 0.0
C456 C 0.33653 0.11752 0.7299 0.0
N457 N 0.4361 0.13996 0.73452 0.0
C458 C 0.41136 0.10624 0.72897 0.0
C459 C 0.47961 0.12352 0.74316 0.0
C460 C 0.45466 0.08882 0.73517 0.0
C461 C 0.46973 0.14884 0.74347 0.0
C462 C 0.41993 0.07971 0.72871 0.0
H463 H 0.46232 0.06921 0.73516 0.0
O464 O 0.44361 0.19265 0.80025 0.0
O465 O 0.44074 0.23505 0.70657 0.0
O466 O 0.46671 0.22698 0.63314 0.0
O467 O 0.44855 0.1753 0.67429 0.0
O468 O 0.47297 0.22464 0.74645 0.0
O469 O 0.38854 0.1744 0.79623 0.0
O470 O 0.3983 0.22822 0.56843 0.0
O471 O 0.40199 0.18587 0.66174 0.0
O472 O 0.3767 0.19785 0.73736 0.0
O473 O 0.40026 0.25075 0.69843 0.0
O474 O 0.36873 0.19463 0.62264 0.0
O475 O 0.45391 0.24908 0.57354 0.0
C476 C 0.47069 0.24846 0.72399 0.0
C477 C 0.3935 0.04499 0.72327 0.0
C478 C 0.35878 0.03683 0.71998 0.0
C479 C 0.41505 0.18286 0.82344 0.0
C480 C 0.40901 0.15996 0.86343 0.0
C481 C 0.4006 0.1254 0.85672 0.0
C482 C 0.4117 0.1728 0.90885 0.0
C483 C 0.40596 0.1512 0.94764 0.0
C484 C 0.39501 0.10389 0.89483 0.0
C485 C 0.39767 0.1166 0.93996 0.0
C486 C 0.46849 0.19874 0.64296 0.0
C487 C 0.37221 0.17107 0.64387 0.0
C488 C 0.42744 0.23971 0.54584 0.0
C489 C 0.43282 0.26269 0.50617 0.0
C490 C 0.43998 0.29683 0.51327 0.0
C491 C 0.43078 0.25032 0.4606 0.0
C492 C 0.43601 0.27198 0.42207 0.0
C493 C 0.44514 0.31843 0.47539 0.0
C494 C 0.44319 0.30619 0.43011 0.0
C495 C 0.37924 0.22851 0.72981 0.0
H496 H 0.39836 0.11506 0.82211 0.0
H497 H 0.4178 0.19943 0.91386 0.0
H498 H 0.38868 0.07726 0.8894 0.0
H499 H 0.39367 0.09943 0.96886 0.0
H500 H 0.44158 0.30677 0.548 0.0
H501 H 0.42558 0.22401 0.45527 0.0
H502 H 0.45055 0.34474 0.48112 0.0
H503 H 0.44682 0.32338 0.40139 0.0
C504 C 0.36862 0.27485 0.76003 0.0
C505 C 0.3587 0.23951 0.75828 0.0
C506 C 0.34983 0.2861 0.78626 0.0
C507 C 0.28526 0.26104 0.88132 0.0
H508 H 0.2778 0.33802 0.83136 0.0
C509 C 0.19962 0.318 0.95234 0.0
C510 C 0.21852 0.35405 0.95981 0.0
C511 C 0.21555 0.30093 0.93182 0.0
C512 C 0.27977 0.31656 0.84575 0.0
H513 H 0.32143 0.18822 0.78343 0.0
H514 H 0.2877 0.20786 0.82864 0.0
H515 H 0.30608 0.31318 0.78583 0.0
H516 H 0.26852 0.40057 0.95044 0.0
H517 H 0.29606 0.37099 0.9144 0.0
H518 H 0.25787 0.26437 0.94098 0.0
C519 C 0.31047 0.22692 0.81007 0.0
C520 C 0.29614 0.3024 0.81984 0.0
C521 C 0.32965 0.21562 0.78401 0.0
C522 C 0.25352 0.37271 0.9464 0.0
C523 C 0.26924 0.35582 0.9254 0.0
C524 C 0.26829 0.27497 0.90704 0.0
C525 C 0.32021 0.26233 0.81115 0.0
C526 C 0.29988 0.27498 0.83764 0.0
C527 C 0.25027 0.31991 0.91725 0.0
C528 C 0.26607 0.30329 0.88974 0.0
H529 H 0.39127 0.29414 0.74146 0.0
H530 H 0.35885 0.31367 0.78726 0.0
H531 H 0.28782 0.24009 0.89625 0.0
H532 H 0.17244 0.30318 0.96179 0.0
H533 H 0.20036 0.27324 0.92545 0.0
C534 C 0.088 0.35617 0.07532 0.0
C535 C 0.11968 0.35887 0.08829 0.0
C536 C 0.05846 0.33793 0.1025 0.0
C537 C 0.02016 0.27628 0.20158 0.0
H538 H 0.95735 0.31284 0.1991 0.0
C539 C 0.88295 0.25569 0.2872 0.0
C540 C 0.8646 0.21946 0.29171 0.0
C541 C 0.91647 0.2728 0.26914 0.0
C542 C 0.9747 0.30245 0.20137 0.0
H543 H 0.14499 0.34435 0.1409 0.0
H544 H 0.09352 0.31387 0.19013 0.0
H545 H 0.01131 0.34263 0.15772 0.0
H546 H 0.86625 0.17242 0.27848 0.0
H547 H 0.92402 0.20198 0.24345 0.0
H548 H 0.98402 0.2371 0.24776 0.0
C549 C 0.09136 0.32496 0.15771 0.0
C550 C 0.00559 0.31925 0.17643 0.0
C551 C 0.12096 0.34263 0.12959 0.0
C552 C 0.88016 0.2005 0.2763 0.0
C553 C 0.91346 0.21756 0.25667 0.0
C554 C 0.98941 0.2598 0.22765 0.0
C555 C 0.05979 0.32282 0.14474 0.0
C556 C 0.02839 0.30599 0.17506 0.0
C557 C 0.93196 0.25403 0.25229 0.0
C558 C 0.96595 0.27239 0.22733 0.0
H559 H 0.08586 0.36865 0.04444 0.0
H560 H 0.03456 0.33607 0.09032 0.0
H561 H 0.03701 0.26522 0.20142 0.0
H562 H 0.87147 0.27106 0.29733 0.0
H563 H 0.92993 0.30087 0.26787 0.0
C564 C 0.77815 0.11958 0.46273 0.0
C565 C 0.76077 0.11824 0.42122 0.0
C566 C 0.76608 0.09005 0.49098 0.0
C567 C 0.686 0.00416 0.50973 0.0
H568 H 0.74664 0.98389 0.58321 0.0
C569 C 0.62733 0.883 0.62391 0.0
C570 C 0.64537 0.86487 0.62913 0.0
C571 C 0.64354 0.91626 0.6049 0.0
C572 C 0.7293 0.98891 0.56252 0.0
H573 H 0.71742 0.08433 0.37699 0.0
H574 H 0.69836 0.03307 0.42329 0.0
H575 H 0.77143 0.03626 0.53577 0.0
H576 H 0.69418 0.86668 0.61646 0.0
H577 H 0.72203 0.92393 0.58007 0.0
H578 H 0.64421 0.9561 0.5332 0.0
C579 C 0.72038 0.05701 0.4355 0.0
C580 C 0.74354 0.01933 0.53579 0.0
C581 C 0.73185 0.08651 0.40813 0.0
C582 C 0.67988 0.88043 0.61372 0.0
C583 C 0.69591 0.91343 0.59327 0.0
C584 C 0.67194 0.97359 0.53544 0.0
C585 C 0.73667 0.05843 0.47797 0.0
C586 C 0.72205 0.02714 0.50854 0.0
C587 C 0.67777 0.93168 0.58802 0.0
C588 C 0.69328 0.96532 0.56221 0.0
H589 H 0.80041 0.14363 0.47416 0.0
H590 H 0.77923 0.09233 0.52356 0.0
H591 H 0.66833 0.00955 0.49043 0.0
H592 H 0.60048 0.87148 0.63405 0.0
H593 H 0.6288 0.92955 0.60289 0.0
C594 C 0.64476 0.73238 0.75033 0.0
C595 C 0.64402 0.7631 0.75948 0.0
C596 C 0.665 0.72322 0.77729 0.0
C597 C 0.69315 0.71973 0.88832 0.0
H598 H 0.77278 0.71907 0.83433 0.0
C599 C 0.80466 0.68328 0.94373 0.0
C600 C 0.78349 0.64824 0.95594 0.0
C601 C 0.79008 0.70203 0.92461 0.0
C602 C 0.7509 0.71955 0.85005 0.0
H603 H 0.66348 0.80778 0.80547 0.0
H604 H 0.69795 0.79077 0.85382 0.0
H605 H 0.74278 0.74347 0.79029 0.0
H606 H 0.73067 0.60502 0.95564 0.0
H607 H 0.70513 0.63802 0.92432 0.0
H608 H 0.69995 0.69386 0.94695 0.0
C609 C 0.68332 0.77446 0.8248 0.0
C610 C 0.73377 0.73339 0.82488 0.0
C611 C 0.66363 0.78412 0.79706 0.0
C612 C 0.74754 0.63225 0.94834 0.0
C613 C 0.7329 0.65112 0.93018 0.0
C614 C 0.70986 0.70522 0.91315 0.0
C615 C 0.68424 0.74405 0.81482 0.0
C616 C 0.70461 0.73325 0.84365 0.0
C617 C 0.75406 0.68605 0.91763 0.0
C618 C 0.73863 0.70467 0.89395 0.0
H619 H 0.6294 0.71502 0.72268 0.0
H620 H 0.66511 0.69945 0.76937 0.0
H621 H 0.67047 0.71913 0.90314 0.0
H622 H 0.83253 0.69601 0.94839 0.0
H623 H 0.80695 0.72889 0.91485 0.0
C624 C 0.11577 0.74324 0.2864 0.0
C625 C 0.13448 0.77947 0.29107 0.0
C626 C 0.08245 0.72645 0.26759 0.0
C627 C 0.02496 0.69731 0.19848 0.0
H628 H 0.96335 0.73533 0.197 0.0
C629 C 0.91136 0.64307 0.07203 0.0
C630 C 0.87996 0.6411 0.08471 0.0
C631 C 0.94104 0.66131 0.09911 0.0
C632 C 0.97998 0.72404 0.19756 0.0
H633 H 0.13354 0.82681 0.27749 0.0
H634 H 0.07614 0.79782 0.2412 0.0
H635 H 0.01603 0.7632 0.24403 0.0
H636 H 0.85529 0.65692 0.13672 0.0
H637 H 0.90688 0.68734 0.18574 0.0
H638 H 0.98841 0.65713 0.15458 0.0
C639 C 0.0863 0.78199 0.25479 0.0
C640 C 0.01058 0.74039 0.22404 0.0
C641 C 0.11938 0.79873 0.27519 0.0
C642 C 0.87909 0.65805 0.12561 0.0
C643 C 0.90879 0.67571 0.15362 0.0
C644 C 0.99421 0.68064 0.1731 0.0
C645 C 0.0675 0.74554 0.25013 0.0
C646 C 0.03377 0.72747 0.22439 0.0
C647 C 0.94011 0.67719 0.14095 0.0
C648 C 0.9716 0.69412 0.17126 0.0
H649 H 0.12683 0.72758 0.29685 0.0
H650 H 0.06874 0.69837 0.26616 0.0
H651 H 0.04214 0.68669 0.19669 0.0
H652 H 0.91316 0.63006 0.04142 0.0
H653 H 0.96473 0.66261 0.08713 0.0
C654 C 0.37179 0.11632 0.62258 0.0
C655 C 0.35397 0.13474 0.62704 0.0
C656 C 0.35553 0.083 0.60363 0.0
C657 C 0.32743 0.02522 0.53468 0.0
H658 H 0.22785 0.96313 0.53322 0.0
C659 C 0.26821 0.91132 0.40837 0.0
C660 C 0.23887 0.87984 0.42109 0.0
C661 C 0.27963 0.94102 0.43545 0.0
C662 C 0.25576 0.9799 0.53377 0.0
H663 H 0.30554 0.13336 0.61298 0.0
H664 H 0.27763 0.07597 0.57664 0.0
H665 H 0.25249 0.01594 0.58004 0.0
H666 H 0.19853 0.85508 0.47317 0.0
H667 H 0.21963 0.90673 0.52215 0.0
H668 H 0.3312 0.98867 0.49092 0.0
C669 C 0.30359 0.08632 0.59041 0.0
C670 C 0.26991 0.01057 0.56012 0.0
C671 C 0.31966 0.11941 0.61084 0.0
C672 C 0.22112 0.87893 0.46203 0.0
C673 C 0.23313 0.90867 0.49002 0.0
C674 C 0.31345 0.9944 0.50939 0.0
C675 C 0.3215 0.06777 0.58601 0.0
C676 C 0.30599 0.03394 0.56045 0.0
C677 C 0.26288 0.94006 0.47731 0.0
C678 C 0.27737 0.97161 0.50756 0.0
H679 H 0.3985 0.12764 0.63334 0.0
H680 H 0.37009 0.06949 0.60233 0.0
H681 H 0.35521 0.04252 0.53291 0.0
H682 H 0.28299 0.91317 0.37775 0.0
H683 H 0.30194 0.96476 0.42345 0.0
C684 C 0.14985 0.411 0.66745 0.0
C685 C 0.17496 0.42877 0.70206 0.0
C686 C 0.15973 0.40951 0.62176 0.0
C687 C 0.23368 0.42023 0.55005 0.0
H688 H 0.18211 0.43153 0.44954 0.0
C689 C 0.27945 0.43619 0.35892 0.0
C690 C 0.254 0.41871 0.32458 0.0
C691 C 0.26999 0.43778 0.40485 0.0
C692 C 0.19656 0.42793 0.47713 0.0
H693 H 0.23029 0.45875 0.71556 0.0
H694 H 0.24755 0.45615 0.63579 0.0
H695 H 0.16546 0.43312 0.52978 0.0
H696 H 0.19855 0.38908 0.31191 0.0
H697 H 0.18204 0.3918 0.39197 0.0
H698 H 0.26476 0.415 0.49737 0.0
C699 C 0.22016 0.44302 0.64415 0.0
C700 C 0.187 0.42883 0.52322 0.0
C701 C 0.21026 0.4445 0.68993 0.0
C702 C 0.21883 0.40317 0.33729 0.0
C703 C 0.20937 0.40472 0.38325 0.0
C704 C 0.24323 0.4193 0.50394 0.0
C705 C 0.195 0.42574 0.60938 0.0
C706 C 0.20538 0.42493 0.5603 0.0
C707 C 0.23483 0.42191 0.4177 0.0
C708 C 0.22477 0.4231 0.46686 0.0
H709 H 0.12244 0.39803 0.67572 0.0
H710 H 0.13965 0.39538 0.59615 0.0
H711 H 0.24812 0.41665 0.57767 0.0
H712 H 0.30678 0.44897 0.35024 0.0
H713 H 0.29031 0.45179 0.43021 0.0
C714 C 0.77517 0.18438 0.02454 0.0
C715 C 0.74122 0.17577 0.03699 0.0
C716 C 0.78675 0.19337 0.97867 0.0
C717 C 0.7542 0.18491 0.85784 0.0
H718 H 0.84802 0.25863 0.83228 0.0
C719 C 0.80107 0.23876 0.67228 0.0
C720 C 0.83486 0.24686 0.65969 0.0
C721 C 0.78946 0.22974 0.71813 0.0
C722 C 0.82185 0.2377 0.83878 0.0
H723 H 0.69325 0.17103 1.01106 0.0
H724 H 0.71342 0.18677 0.93136 0.0
H725 H 0.82852 0.24417 0.91251 0.0
H726 H 0.88247 0.25063 0.68541 0.0
H727 H 0.86229 0.23499 0.76512 0.0
H728 H 0.74752 0.1785 0.78408 0.0
C729 C 0.73091 0.18588 0.95678 0.0
C730 C 0.81066 0.2294 0.88485 0.0
C731 C 0.71934 0.17688 1.00256 0.0
C732 C 0.85653 0.24522 0.69399 0.0
C733 C 0.84496 0.23625 0.73977 0.0
C734 C 0.76538 0.19324 0.81177 0.0
C735 C 0.76469 0.19402 0.94411 0.0
C736 C 0.77668 0.2029 0.89502 0.0
C737 C 0.81135 0.22859 0.75254 0.0
C738 C 0.79936 0.21973 0.80162 0.0
H739 H 0.79257 0.18338 0.05 0.0
H740 H 0.81278 0.19906 0.97011 0.0
H741 H 0.72804 0.16396 0.86431 0.0
H742 H 0.78382 0.24019 0.64696 0.0
H743 H 0.76357 0.2244 0.72682 0.0
C744 C 0.59122 0.77586 0.36179 0.0
C745 C 0.56577 0.74199 0.3744 0.0
C746 C 0.59356 0.78743 0.31597 0.0
C747 C 0.56857 0.75474 0.19531 0.0
H748 H 0.58971 0.84889 0.16972 0.0
C749 C 0.56233 0.80182 1.00958 0.0
C750 C 0.58825 0.83552 0.99704 0.0
C751 C 0.55954 0.79022 0.05546 0.0
C752 C 0.58417 0.82262 0.17622 0.0
H753 H 0.52205 0.69417 0.3488 0.0
H754 H 0.52605 0.71431 0.26916 0.0
H755 H 0.58465 0.82942 0.24997 0.0
H756 H 0.63228 0.883 0.02292 0.0
H757 H 0.62742 0.86283 0.10267 0.0
H758 H 0.56807 0.74795 0.12155 0.0
C759 C 0.5447 0.73175 0.29443 0.0
C760 C 0.58127 0.81145 0.2223 0.0
C761 C 0.54238 0.72019 0.34018 0.0
C762 C 0.61158 0.85713 0.03145 0.0
C763 C 0.60878 0.84556 0.07726 0.0
C764 C 0.57145 0.76591 0.14923 0.0
C765 C 0.57048 0.76543 0.28159 0.0
C766 C 0.57345 0.77736 0.23248 0.0
C767 C 0.58261 0.81203 0.08997 0.0
C768 C 0.57933 0.80001 0.13906 0.0
H769 H 0.60992 0.7932 0.38708 0.0
H770 H 0.61401 0.81338 0.30727 0.0
H771 H 0.56309 0.72849 0.20178 0.0
H772 H 0.54364 0.78463 0.98416 0.0
H773 H 0.53881 0.76439 0.06408 0.0
C774 C 0.84918 0.58533 0.66549 0.0
C775 C 0.82369 0.56834 0.69986 0.0
C776 C 0.83983 0.58741 0.6197 0.0
C777 C 0.76744 0.5802 0.54745 0.0
H778 H 0.81758 0.56663 0.447 0.0
C779 C 0.72222 0.56662 0.35633 0.0
C780 C 0.74783 0.58339 0.32204 0.0
C781 C 0.7314 0.56434 0.40215 0.0
C782 C 0.80354 0.57088 0.47457 0.0
H783 H 0.76825 0.54032 0.71274 0.0
H784 H 0.7519 0.54396 0.63284 0.0
H785 H 0.83355 0.56405 0.5273 0.0
H786 H 0.80329 0.61081 0.30933 0.0
H787 H 0.81934 0.6069 0.38927 0.0
H788 H 0.73746 0.58709 0.49474 0.0
C789 C 0.77921 0.55604 0.64147 0.0
C790 C 0.81272 0.5694 0.5207 0.0
C791 C 0.78858 0.55397 0.68734 0.0
C792 C 0.78287 0.59735 0.33467 0.0
C793 C 0.79206 0.5951 0.38057 0.0
C794 C 0.75828 0.58171 0.50131 0.0
C795 C 0.80471 0.57257 0.60695 0.0
C796 C 0.79482 0.57408 0.55778 0.0
C797 C 0.76645 0.57877 0.41502 0.0
C798 C 0.7762 0.57707 0.46422 0.0
H799 H 0.8765 0.59727 0.67403 0.0
H800 H 0.8602 0.60094 0.59432 0.0
H801 H 0.7534 0.58444 0.57504 0.0
H802 H 0.69495 0.55502 0.34769 0.0
H803 H 0.71092 0.55096 0.42745 0.0
C804 C 0.18654 0.7834 0.67121 0.0
C805 C 0.16585 0.74827 0.65864 0.0
C806 C 0.19791 0.79277 0.71711 0.0
C807 C 0.17779 0.75908 0.83775 0.0
H808 H 0.27036 0.83514 0.86398 0.0
C809 C 0.23584 0.78978 0.02369 0.0
C810 C 0.25608 0.82493 0.0364 0.0
C811 C 0.22449 0.78039 0.97779 0.0
C812 C 0.24427 0.81408 0.85729 0.0
H813 H 0.14196 0.69544 0.68431 0.0
H814 H 0.16191 0.71172 0.7641 0.0
H815 H 0.25193 0.81895 0.78362 0.0
H816 H 0.2792 0.87777 1.0109 0.0
H817 H 0.25942 0.86143 0.93106 0.0
H818 H 0.17016 0.75418 0.91145 0.0
C819 C 0.16874 0.73211 0.73876 0.0
C820 C 0.2337 0.80479 0.81115 0.0
C821 C 0.15733 0.72276 0.69294 0.0
C822 C 0.26421 0.85044 1.00219 0.0
C823 C 0.25288 0.84106 0.95635 0.0
C824 C 0.18837 0.76835 0.8839 0.0
C825 C 0.18896 0.76724 0.75157 0.0
C826 C 0.20031 0.77716 0.80075 0.0
C827 C 0.23308 0.80592 0.94344 0.0
C828 C 0.22175 0.79599 0.89429 0.0
H829 H 0.19322 0.80373 0.64581 0.0
H830 H 0.21307 0.82009 0.72578 0.0
H831 H 0.15169 0.73804 0.8311 0.0
H832 H 0.22947 0.76944 0.04897 0.0
H833 H 0.20965 0.75307 0.969 0.0
C834 C 0.40778 0.22547 0.36077 0.0
C835 C 0.43381 0.25909 0.37359 0.0
C836 C 0.40508 0.2139 0.31485 0.0
C837 C 0.43047 0.24633 0.19429 0.0
H838 H 0.40717 0.15151 0.16849 0.0
C839 C 0.43515 0.19797 1.0085 0.0
C840 C 0.40864 0.16448 0.996 0.0
C841 C 0.43825 0.20981 0.05435 0.0
C842 C 0.41332 0.17797 0.17505 0.0
H843 H 0.47807 0.30648 0.34821 0.0
H844 H 0.47344 0.28631 0.26836 0.0
H845 H 0.41279 0.17122 0.24876 0.0
H846 H 0.3639 0.1177 0.02188 0.0
H847 H 0.36933 0.13829 0.10158 0.0
H848 H 0.43103 0.25307 0.12054 0.0
C849 C 0.45465 0.26909 0.29357 0.0
C850 C 0.41654 0.18928 0.22115 0.0
C851 C 0.45733 0.28066 0.33943 0.0
C852 C 0.38504 0.14337 0.03039 0.0
C853 C 0.38816 0.15518 0.07617 0.0
C854 C 0.42728 0.23502 0.14819 0.0
C855 C 0.42836 0.23564 0.28056 0.0
C856 C 0.42512 0.2236 0.23141 0.0
C857 C 0.41493 0.18847 0.08886 0.0
C858 C 0.41859 0.20067 0.13795 0.0
H859 H 0.38895 0.20834 0.386 0.0
H860 H 0.38423 0.18816 0.30602 0.0
H861 H 0.43656 0.27278 0.20084 0.0
H862 H 0.45405 0.21477 0.98309 0.0
H863 H 0.45943 0.23544 0.06297 0.0
C864 C 0.17456 0.48235 0.07882 0.0
C865 C 0.20901 0.49593 0.06378 0.0
C866 C 0.16375 0.50436 0.09811 0.0
C867 C 0.18801 0.59665 0.10982 0.0
H868 H 0.15264 0.57324 0.2357 0.0
C869 C 0.21699 0.70095 0.24448 0.0
C870 C 0.19103 0.69779 0.2753 0.0
C871 C 0.21132 0.67371 0.21511 0.0
C872 C 0.16177 0.57987 0.20026 0.0
H873 H 0.25886 0.54265 0.05611 0.0
H874 H 0.23997 0.58111 0.08862 0.0
H875 H 0.15561 0.52959 0.18695 0.0
H876 H 0.13868 0.66295 0.29961 0.0
H877 H 0.12902 0.61464 0.24844 0.0
H878 H 0.1956 0.64726 0.12354 0.0
C879 C 0.22118 0.55371 0.08535 0.0
C880 C 0.16342 0.55488 0.17232 0.0
C881 C 0.23207 0.53174 0.06692 0.0
C882 C 0.15933 0.66619 0.27659 0.0
C883 C 0.15373 0.6386 0.24719 0.0
C884 C 0.18629 0.6215 0.13758 0.0
C885 C 0.18716 0.54022 0.10214 0.0
C886 C 0.1779 0.56353 0.12751 0.0
C887 C 0.17957 0.64235 0.21565 0.0
C888 C 0.17456 0.61387 0.18377 0.0
H889 H 0.1565 0.45467 0.07756 0.0
H890 H 0.1374 0.49331 0.11082 0.0
H891 H 0.19876 0.60384 0.07515 0.0
H892 H 0.24188 0.72465 0.24258 0.0
H893 H 0.23209 0.67716 0.19211 0.0
C894 C 0.70394 0.23486 0.40526 0.0
C895 C 0.7147 0.21031 0.40068 0.0
C896 C 0.67358 0.22665 0.42907 0.0
C897 C 0.59199 0.16049 0.47963 0.0
H898 H 0.61513 0.23206 0.57275 0.0
C899 C 0.49457 0.16235 0.61714 0.0
C900 C 0.49514 0.1943 0.61791 0.0
C901 C 0.5197 0.15883 0.59193 0.0
C902 C 0.60822 0.21181 0.54704 0.0
H903 H 0.70138 0.15722 0.41487 0.0
H904 H 0.64759 0.14266 0.45707 0.0
H905 H 0.66031 0.23503 0.52222 0.0
H906 H 0.52255 0.24741 0.59253 0.0
H907 H 0.56584 0.2413 0.54957 0.0
H908 H 0.53937 0.13793 0.50414 0.0
C909 C 0.66269 0.16818 0.44173 0.0
C910 C 0.63406 0.21355 0.51803 0.0
C911 C 0.69331 0.17645 0.41756 0.0
C912 C 0.52123 0.22245 0.59307 0.0
C913 C 0.54626 0.21902 0.56847 0.0
C914 C 0.56585 0.15878 0.50886 0.0
C915 C 0.65354 0.19382 0.44947 0.0
C916 C 0.62608 0.18861 0.48306 0.0
C917 C 0.54597 0.18733 0.56772 0.0
C918 C 0.57366 0.18511 0.54183 0.0
H919 H 0.72006 0.2611 0.39248 0.0
H920 H 0.66674 0.24667 0.43379 0.0
H921 H 0.58529 0.14084 0.45309 0.0
H922 H 0.47458 0.14005 0.63552 0.0
H923 H 0.51891 0.13409 0.59188 0.0
C924 C 0.29689 0.51555 0.91005 0.0
C925 C 0.29996 0.49258 0.94059 0.0
C926 C 0.3242 0.5372 0.88091 0.0
C927 C 0.41823 0.58081 0.86731 0.0
H928 H 0.39563 0.59642 0.74269 0.0
C929 C 0.51817 0.69198 0.75005 0.0
C930 C 0.50538 0.71358 0.73534 0.0
C931 C 0.49543 0.65894 0.76804 0.0
C932 C 0.40242 0.59213 0.77724 0.0
H933 H 0.33452 0.47453 0.96429 0.0
H934 H 0.38284 0.51323 0.91363 0.0
H935 H 0.35131 0.54964 0.78973 0.0
H936 H 0.45937 0.71788 0.72695 0.0
H937 H 0.41966 0.6602 0.75729 0.0
H938 H 0.46902 0.62437 0.8553 0.0
C939 C 0.35901 0.5142 0.91247 0.0
C940 C 0.37705 0.56547 0.80424 0.0
C941 C 0.33139 0.49218 0.94161 0.0
C942 C 0.46966 0.70139 0.73749 0.0
C943 C 0.44698 0.66835 0.75466 0.0
C944 C 0.44371 0.60755 0.84017 0.0
C945 C 0.35548 0.53666 0.88142 0.0
C946 C 0.38424 0.56043 0.85024 0.0
C947 C 0.45965 0.64705 0.77117 0.0
C948 C 0.4356 0.61431 0.79556 0.0
H949 H 0.27326 0.51687 0.90833 0.0
H950 H 0.3209 0.55476 0.85823 0.0
H951 H 0.42454 0.5776 0.90264 0.0
H952 H 0.54578 0.70119 0.74958 0.0
H953 H 0.50586 0.64304 0.78055 0.0
C954 C 0.77551 0.29839 0.25763 0.0
C955 C 0.80414 0.30065 0.28146 0.0
C956 C 0.77842 0.32666 0.23312 0.0
C957 C 0.83763 0.40622 0.17213 0.0
H958 H 0.76132 0.42411 0.18711 0.0
C959 C 0.81955 0.51536 0.08041 0.0
C960 C 0.78554 0.5032 0.06426 0.0
C961 C 0.82768 0.49302 0.10488 0.0
C962 C 0.7828 0.4194 0.18243 0.0
H963 H 0.85867 0.33452 0.29747 0.0
H964 H 0.86373 0.3845 0.254 0.0
H965 H 0.76509 0.38224 0.23737 0.0
H966 H 0.73419 0.45822 0.05801 0.0
H967 H 0.74833 0.41937 0.09995 0.0
H968 H 0.85479 0.44333 0.11622 0.0
C969 C 0.83902 0.36053 0.25473 0.0
C970 C 0.78501 0.3955 0.2113 0.0
C971 C 0.83603 0.33206 0.27985 0.0
C972 C 0.76055 0.46814 0.0702 0.0
C973 C 0.76861 0.44601 0.0944 0.0
C974 C 0.83545 0.43044 0.14306 0.0
C975 C 0.81006 0.35809 0.23147 0.0
C976 C 0.81174 0.38776 0.20557 0.0
C977 C 0.80175 0.45854 0.11377 0.0
C978 C 0.80731 0.43632 0.14706 0.0
H979 H 0.75054 0.27472 0.25783 0.0
H980 H 0.75577 0.32376 0.21497 0.0
H981 H 0.85851 0.4007 0.16698 0.0
H982 H 0.83915 0.54244 0.07668 0.0
H983 H 0.85345 0.50327 0.11937 0.0
C984 C 0.29431 0.76175 0.404 0.0
C985 C 0.28384 0.78652 0.39942 0.0
C986 C 0.32459 0.76972 0.42793 0.0
C987 C 0.40635 0.83603 0.47902 0.0
H988 H 0.38373 0.76394 0.57079 0.0
C989 C 0.50407 0.83531 0.61679 0.0
C990 C 0.50389 0.80356 0.61793 0.0
C991 C 0.47881 0.83837 0.59125 0.0
C992 C 0.39051 0.78431 0.5454 0.0
H993 H 0.29761 0.83975 0.41381 0.0
H994 H 0.35122 0.85387 0.45619 0.0
H995 H 0.33847 0.76074 0.52023 0.0
H996 H 0.47701 0.7503 0.59282 0.0
H997 H 0.43351 0.75563 0.5492 0.0
H998 H 0.45891 0.85904 0.50398 0.0
C999 C 0.33596 0.82836 0.44079 0.0
C1000 C 0.36462 0.78245 0.51637 0.0
C1001 C 0.30543 0.82033 0.4165 0.0
C1002 C 0.47803 0.77513 0.59307 0.0
C1003 C 0.45288 0.77811 0.56811 0.0
C1004 C 0.43254 0.83788 0.50827 0.0
C1005 C 0.34485 0.80253 0.44846 0.0
C1006 C 0.37239 0.80762 0.48192 0.0
C1007 C 0.45277 0.80961 0.56702 0.0
C1008 C 0.42496 0.81138 0.54078 0.0
H1009 H 0.27805 0.73555 0.39106 0.0
H1010 H 0.33121 0.74955 0.43252 0.0
H1011 H 0.41292 0.85589 0.45291 0.0
H1012 H 0.52387 0.85782 0.63516 0.0
H1013 H 0.4793 0.86297 0.59098 0.0
C1014 C 0.70068 0.48543 0.90816 0.0
C1015 C 0.69786 0.50882 0.93832 0.0
C1016 C 0.67332 0.46367 0.87915 0.0
C1017 C 0.57959 0.4197 0.86545 0.0
H1018 H 0.60253 0.40348 0.74124 0.0
C1019 C 0.48079 0.30671 0.74907 0.0
C1020 C 0.49397 0.28537 0.73458 0.0
C1021 C 0.50316 0.33995 0.76685 0.0
C1022 C 0.59564 0.40793 0.77566 0.0
H1023 H 0.66356 0.5273 0.96167 0.0
H1024 H 0.615 0.48825 0.91112 0.0
H1025 H 0.64637 0.45122 0.78778 0.0
H1026 H 0.54034 0.28166 0.72676 0.0
H1027 H 0.57951 0.33978 0.75681 0.0
H1028 H 0.52921 0.37534 0.85383 0.0
C1029 C 0.63879 0.48721 0.91013 0.0
C1030 C 0.62071 0.43517 0.80235 0.0
C1031 C 0.66652 0.50942 0.93917 0.0
C1032 C 0.52976 0.29796 0.73702 0.0
C1033 C 0.55211 0.33123 0.75404 0.0
C1034 C 0.55438 0.3924 0.83859 0.0
C1035 C 0.64217 0.46443 0.87937 0.0
C1036 C 0.61344 0.44042 0.84825 0.0
C1037 C 0.53901 0.35231 0.77012 0.0
C1038 C 0.56267 0.38542 0.79417 0.0
H1039 H 0.72416 0.48385 0.9066 0.0
H1040 H 0.67648 0.44583 0.85678 0.0
H1041 H 0.57325 0.42307 0.9007 0.0
H1042 H 0.45315 0.29721 0.74865 0.0
H1043 H 0.4924 0.35564 0.77907 0.0
loop_
_geom_bond_atom_site_label_1
_geom_bond_atom_site_label_2
_geom_bond_distance
_geom_bond_site_symmetry_2
_ccdc_geom_bond_type
Gd0 N31 2.661 . S
Gd0 N37 2.601 . S
Gd0 O44 2.545 . S
Gd0 O45 2.606 . S
Gd0 O47 2.429 . S
Gd0 O48 2.545 . S
Gd0 O49 2.412 . S
Gd0 O51 2.362 1_554 S
Gd0 O52 2.324 . S
Gd0 C59 2.828 . S
Gd1 N10 2.661 . S
Gd1 N14 2.601 . S
Gd1 O45 2.362 1_556 S
Gd1 O46 2.324 . S
Gd1 O50 2.545 . S
Gd1 O51 2.606 . S
Gd1 O53 2.425 1_556 S
Gd1 O54 2.545 . S
Gd1 O55 2.412 . S
Gd1 C68 2.828 . S
C2 C5 1.417 . S
C2 C7 1.431 . S
C2 C8 1.412 . S
C3 C6 1.437 . S
C3 C7 1.317 . S
C3 H22 0.929 . S
C4 C5 1.426 . S
C4 C6 1.413 . S
C4 N14 1.359 . S
C5 C2 1.417 . S
C5 C4 1.426 . S
C5 N10 1.350 . S
C6 C3 1.437 . S
C6 C4 1.413 . S
C6 C16 1.391 . S
C7 C2 1.431 . S
C7 C3 1.317 . S
C7 H18 0.930 . S
C8 C2 1.412 . S
C8 C9 1.355 . S
C8 H20 0.930 . S
C9 C8 1.355 . S
C9 C11 1.402 . S
C9 H21 0.930 . S
N10 Gd1 2.661 . S
N10 C5 1.350 . S
N10 C11 1.307 . S
C11 C9 1.402 . S
C11 N10 1.307 . S
C11 H12 0.930 . S
H12 C11 0.930 . S
C13 N14 1.334 . S
C13 C15 1.394 . S
C13 H17 0.930 . S
N14 Gd1 2.601 . S
N14 C4 1.359 . S
N14 C13 1.334 . S
C15 C13 1.394 . S
C15 C16 1.359 . S
C15 H27 0.930 . S
C16 C6 1.391 . S
C16 C15 1.359 . S
C16 H28 0.929 . S
H17 C13 0.930 . S
H18 C7 0.930 . S
H19 C36 0.930 . S
H20 C8 0.930 . S
H21 C9 0.930 . S
H22 C3 0.929 . S
H23 C41 0.930 . S
H24 C32 0.930 . S
H25 C33 0.930 . S
H26 C57 0.929 . S
H27 C15 0.930 . S
H28 C16 0.929 . S
H29 C58 0.930 . S
H30 C39 0.930 . S
N31 Gd0 2.661 . S
N31 C35 1.350 . S
N31 C36 1.307 . S
C32 H24 0.930 . S
C32 C33 1.355 . S
C32 C34 1.412 . S
C33 H25 0.930 . S
C33 C32 1.355 . S
C33 C36 1.402 . S
C34 C32 1.412 . S
C34 C35 1.417 . S
C34 C58 1.431 . S
C35 N31 1.350 . S
C35 C34 1.417 . S
C35 C38 1.426 . S
C36 H19 0.930 . S
C36 N31 1.307 . S
C36 C33 1.402 . S
N37 Gd0 2.601 . S
N37 C38 1.359 . S
N37 C41 1.334 . S
C38 C35 1.426 . S
C38 N37 1.359 . S
C38 C42 1.413 . S
C39 H30 0.930 . S
C39 C40 1.359 . S
C39 C41 1.394 . S
C40 C39 1.359 . S
C40 C42 1.391 . S
C40 H43 0.929 . S
C41 H23 0.930 . S
C41 N37 1.334 . S
C41 C39 1.394 . S
C42 C38 1.413 . S
C42 C40 1.391 . S
C42 C57 1.437 . S
H43 C40 0.929 . S
O44 Gd0 2.545 . S
O44 C59 1.258 . S
O45 Gd0 2.606 . S
O45 Gd1 2.362 1_554 S
O45 C56 1.284 . S
O46 Gd1 2.324 . S
O46 C66 1.254 . S
O47 Gd0 2.429 . S
O47 C66 1.268 1_554 S
O48 Gd0 2.545 . S
O48 C56 1.250 . S
O49 Gd0 2.412 . S
O49 C59 1.252 . S
O50 Gd1 2.545 . S
O50 C68 1.258 . S
O51 Gd0 2.362 1_556 S
O51 Gd1 2.606 . S
O51 C67 1.284 . S
O52 Gd0 2.324 . S
O52 C75 1.254 . S
O53 Gd1 2.425 1_554 S
O53 C75 1.275 . S
O54 Gd1 2.545 . S
O54 C67 1.250 . S
O55 Gd1 2.412 . S
O55 C68 1.252 . S
C56 O45 1.284 . S
C56 O48 1.250 . S
C57 H26 0.929 . S
C57 C42 1.437 . S
C57 C58 1.317 . S
C58 H29 0.930 . S
C58 C34 1.431 . S
C58 C57 1.317 . S
C59 Gd0 2.828 . S
C59 O44 1.258 . S
C59 O49 1.252 . S
C59 C60 1.497 . S
C60 C59 1.497 . S
C60 C61 1.395 . S
C60 C62 1.380 . S
C61 C60 1.395 . S
C61 C64 1.398 . S
C61 H76 0.930 . S
C62 C60 1.380 . S
C62 C63 1.391 . S
C62 H77 0.930 . S
C63 C62 1.391 . S
C63 C65 1.387 . S
C64 C61 1.398 . S
C64 C65 1.380 . S
C64 H78 0.930 . S
C65 C63 1.387 . S
C65 C64 1.380 . S
C65 H79 0.930 . S
C66 O46 1.254 . S
C66 O47 1.268 1_556 S
C67 O51 1.284 . S
C67 O54 1.250 . S
C68 Gd1 2.828 . S
C68 O50 1.258 . S
C68 O55 1.252 . S
C68 C69 1.497 . S
C69 C68 1.497 . S
C69 C70 1.395 . S
C69 C71 1.380 . S
C70 C69 1.395 . S
C70 C73 1.398 . S
C70 H80 0.930 . S
C71 C69 1.380 . S
C71 C72 1.391 . S
C71 H81 0.930 . S
C72 C71 1.391 . S
C72 C74 1.387 . S
C73 C70 1.398 . S
C73 C74 1.380 . S
C73 H82 0.930 . S
C74 C72 1.387 . S
C74 C73 1.380 . S
C74 H83 0.930 . S
C75 O52 1.254 . S
C75 O53 1.275 . S
H76 C61 0.930 . S
H77 C62 0.930 . S
H78 C64 0.930 . S
H79 C65 0.930 . S
H80 C70 0.930 . S
H81 C71 0.930 . S
H82 C73 0.930 . S
H83 C74 0.930 . S
Gd84 N115 2.661 . S
Gd84 N121 2.601 . S
Gd84 O128 2.545 . S
Gd84 O129 2.606 . S
Gd84 O131 2.429 . S
Gd84 O132 2.545 . S
Gd84 O133 2.412 . S
Gd84 O135 2.362 . S
Gd84 O136 2.324 . S
Gd84 C143 2.828 . S
Gd85 N94 2.661 . S
Gd85 N98 2.601 . S
Gd85 O129 2.362 . S
Gd85 O130 2.324 . S
Gd85 O134 2.545 . S
Gd85 O135 2.606 . S
Gd85 O137 2.429 . S
Gd85 O138 2.545 . S
Gd85 O139 2.412 . S
Gd85 C152 2.828 . S
C86 C89 1.417 . S
C86 C91 1.431 . S
C86 C92 1.412 . S
C87 C90 1.437 . S
C87 C91 1.317 . S
C87 H106 0.929 . S
C88 C89 1.426 . S
C88 C90 1.413 . S
C88 N98 1.359 . S
C89 C86 1.417 . S
C89 C88 1.426 . S
C89 N94 1.350 . S
C90 C87 1.437 . S
C90 C88 1.413 . S
C90 C100 1.391 . S
C91 C86 1.431 . S
C91 C87 1.317 . S
C91 H102 0.930 . S
C92 C86 1.412 . S
C92 C93 1.355 . S
C92 H104 0.930 . S
C93 C92 1.355 . S
C93 C95 1.402 . S
C93 H105 0.930 . S
N94 Gd85 2.661 . S
N94 C89 1.350 . S
N94 C95 1.307 . S
C95 C93 1.402 . S
C95 N94 1.307 . S
C95 H96 0.930 . S
H96 C95 0.930 . S
C97 N98 1.334 . S
C97 C99 1.394 . S
C97 H101 0.930 . S
N98 Gd85 2.601 . S
N98 C88 1.359 . S
N98 C97 1.334 . S
C99 C97 1.394 . S
C99 C100 1.359 . S
C99 H111 0.930 . S
C100 C90 1.391 . S
C100 C99 1.359 . S
C100 H112 0.929 . S
H101 C97 0.930 . S
H102 C91 0.930 . S
H103 C120 0.930 . S
H104 C92 0.930 . S
H105 C93 0.930 . S
H106 C87 0.929 . S
H107 C125 0.930 . S
H108 C116 0.930 . S
H109 C117 0.930 . S
H110 C141 0.929 . S
H111 C99 0.930 . S
H112 C100 0.929 . S
H113 C142 0.930 . S
H114 C123 0.930 . S
N115 Gd84 2.661 . S
N115 C119 1.350 . S
N115 C120 1.307 . S
C116 H108 0.930 . S
C116 C117 1.355 . S
C116 C118 1.412 . S
C117 H109 0.930 . S
C117 C116 1.355 . S
C117 C120 1.402 . S
C118 C116 1.412 . S
C118 C119 1.417 . S
C118 C142 1.431 . S
C119 N115 1.350 . S
C119 C118 1.417 . S
C119 C122 1.426 . S
C120 H103 0.930 . S
C120 N115 1.307 . S
C120 C117 1.402 . S
N121 Gd84 2.601 . S
N121 C122 1.359 . S
N121 C125 1.334 . S
C122 C119 1.426 . S
C122 N121 1.359 . S
C122 C126 1.413 . S
C123 H114 0.930 . S
C123 C124 1.359 . S
C123 C125 1.394 . S
C124 C123 1.359 . S
C124 C126 1.391 . S
C124 H127 0.929 . S
C125 H107 0.930 . S
C125 N121 1.334 . S
C125 C123 1.394 . S
C126 C122 1.413 . S
C126 C124 1.391 . S
C126 C141 1.437 . S
H127 C124 0.929 . S
O128 Gd84 2.545 . S
O128 C143 1.258 . S
O129 Gd84 2.606 . S
O129 Gd85 2.362 . S
O129 C140 1.284 . S
O130 Gd85 2.324 . S
O130 C150 1.254 . S
O131 Gd84 2.429 . S
O131 C150 1.268 . S
O132 Gd84 2.545 . S
O132 C140 1.250 . S
O133 Gd84 2.412 . S
O133 C143 1.252 . S
O134 Gd85 2.545 . S
O134 C152 1.258 . S
O135 Gd84 2.362 . S
O135 Gd85 2.606 . S
O135 C151 1.284 . S
O136 Gd84 2.324 . S
O136 C159 1.254 . S
O137 Gd85 2.429 . S
O137 C159 1.268 . S
O138 Gd85 2.545 . S
O138 C151 1.250 . S
O139 Gd85 2.412 . S
O139 C152 1.252 . S
C140 O129 1.284 . S
C140 O132 1.250 . S
C141 H110 0.929 . S
C141 C126 1.437 . S
C141 C142 1.317 . S
C142 H113 0.930 . S
C142 C118 1.431 . S
C142 C141 1.317 . S
C143 Gd84 2.828 . S
C143 O128 1.258 . S
C143 O133 1.252 . S
C143 C144 1.497 . S
C144 C143 1.497 . S
C144 C145 1.395 . S
C144 C146 1.380 . S
C145 C144 1.395 . S
C145 C148 1.398 . S
C145 H160 0.930 . S
C146 C144 1.380 . S
C146 C147 1.391 . S
C146 H161 0.930 . S
C147 C146 1.391 . S
C147 C149 1.387 . S
C148 C145 1.398 . S
C148 C149 1.380 . S
C148 H162 0.930 . S
C149 C147 1.387 . S
C149 C148 1.380 . S
C149 H163 0.930 . S
C150 O130 1.254 . S
C150 O131 1.268 . S
C151 O135 1.284 . S
C151 O138 1.250 . S
C152 Gd85 2.828 . S
C152 O134 1.258 . S
C152 O139 1.252 . S
C152 C153 1.497 . S
C153 C152 1.497 . S
C153 C154 1.395 . S
C153 C155 1.380 . S
C154 C153 1.395 . S
C154 C157 1.398 . S
C154 H164 0.930 . S
C155 C153 1.380 . S
C155 C156 1.391 . S
C155 H165 0.930 . S
C156 C155 1.391 . S
C156 C158 1.387 . S
C157 C154 1.398 . S
C157 C158 1.380 . S
C157 H166 0.930 . S
C158 C156 1.387 . S
C158 C157 1.380 . S
C158 H167 0.930 . S
C159 O136 1.254 . S
C159 O137 1.268 . S
H160 C145 0.930 . S
H161 C146 0.930 . S
H162 C148 0.930 . S
H163 C149 0.930 . S
H164 C154 0.930 . S
H165 C155 0.930 . S
H166 C157 0.930 . S
H167 C158 0.930 . S
Gd168 N199 2.661 . S
Gd168 N205 2.601 . S
Gd168 O212 2.545 . S
Gd168 O213 2.606 . S
Gd168 O215 2.429 . S
Gd168 O216 2.545 . S
Gd168 O217 2.412 . S
Gd168 O219 2.362 . S
Gd168 O220 2.324 . S
Gd168 C227 2.828 . S
Gd169 N178 2.661 . S
Gd169 N182 2.601 . S
Gd169 O213 2.362 . S
Gd169 O214 2.324 . S
Gd169 O218 2.545 . S
Gd169 O219 2.606 . S
Gd169 O221 2.429 . S
Gd169 O222 2.545 . S
Gd169 O223 2.412 . S
Gd169 C236 2.828 . S
C170 C173 1.417 . S
C170 C175 1.431 . S
C170 C176 1.412 . S
C171 C174 1.437 . S
C171 C175 1.317 . S
C171 H190 0.929 . S
C172 C173 1.426 . S
C172 C174 1.413 . S
C172 N182 1.359 . S
C173 C170 1.417 . S
C173 C172 1.426 . S
C173 N178 1.350 . S
C174 C171 1.437 . S
C174 C172 1.413 . S
C174 C184 1.391 . S
C175 C170 1.431 . S
C175 C171 1.317 . S
C175 H186 0.930 . S
C176 C170 1.412 . S
C176 C177 1.355 . S
C176 H188 0.930 . S
C177 C176 1.355 . S
C177 C179 1.402 . S
C177 H189 0.930 . S
N178 Gd169 2.661 . S
N178 C173 1.350 . S
N178 C179 1.307 . S
C179 C177 1.402 . S
C179 N178 1.307 . S
C179 H180 0.930 . S
H180 C179 0.930 . S
C181 N182 1.334 . S
C181 C183 1.394 . S
C181 H185 0.930 . S
N182 Gd169 2.601 . S
N182 C172 1.359 . S
N182 C181 1.334 . S
C183 C181 1.394 . S
C183 C184 1.359 . S
C183 H195 0.930 . S
C184 C174 1.391 . S
C184 C183 1.359 . S
C184 H196 0.929 . S
H185 C181 0.930 . S
H186 C175 0.930 . S
H187 C204 0.930 . S
H188 C176 0.930 . S
H189 C177 0.930 . S
H190 C171 0.929 . S
H191 C209 0.930 . S
H192 C200 0.930 . S
H193 C201 0.930 . S
H194 C225 0.929 . S
H195 C183 0.930 . S
H196 C184 0.929 . S
H197 C226 0.930 . S
H198 C207 0.930 . S
N199 Gd168 2.661 . S
N199 C203 1.350 . S
N199 C204 1.307 . S
C200 H192 0.930 . S
C200 C201 1.355 . S
C200 C202 1.412 . S
C201 H193 0.930 . S
C201 C200 1.355 . S
C201 C204 1.402 . S
C202 C200 1.412 . S
C202 C203 1.417 . S
C202 C226 1.431 . S
C203 N199 1.350 . S
C203 C202 1.417 . S
C203 C206 1.426 . S
C204 H187 0.930 . S
C204 N199 1.307 . S
C204 C201 1.402 . S
N205 Gd168 2.601 . S
N205 C206 1.359 . S
N205 C209 1.334 . S
C206 C203 1.426 . S
C206 N205 1.359 . S
C206 C210 1.413 . S
C207 H198 0.930 . S
C207 C208 1.359 . S
C207 C209 1.394 . S
C208 C207 1.359 . S
C208 C210 1.391 . S
C208 H211 0.929 . S
C209 H191 0.930 . S
C209 N205 1.334 . S
C209 C207 1.394 . S
C210 C206 1.413 . S
C210 C208 1.391 . S
C210 C225 1.437 . S
H211 C208 0.929 . S
O212 Gd168 2.545 . S
O212 C227 1.258 . S
O213 Gd168 2.606 . S
O213 Gd169 2.362 . S
O213 C224 1.284 . S
O214 Gd169 2.324 . S
O214 C234 1.254 . S
O215 Gd168 2.429 . S
O215 C234 1.268 . S
O216 Gd168 2.545 . S
O216 C224 1.250 . S
O217 Gd168 2.412 . S
O217 C227 1.252 . S
O218 Gd169 2.545 . S
O218 C236 1.258 . S
O219 Gd168 2.362 . S
O219 Gd169 2.606 . S
O219 C235 1.284 . S
O220 Gd168 2.324 . S
O220 C243 1.254 . S
O221 Gd169 2.429 . S
O221 C243 1.268 . S
O222 Gd169 2.545 . S
O222 C235 1.250 . S
O223 Gd169 2.412 . S
O223 C236 1.252 . S
C224 O213 1.284 . S
C224 O216 1.250 . S
C225 H194 0.929 . S
C225 C210 1.437 . S
C225 C226 1.317 . S
C226 H197 0.930 . S
C226 C202 1.431 . S
C226 C225 1.317 . S
C227 Gd168 2.828 . S
C227 O212 1.258 . S
C227 O217 1.252 . S
C227 C228 1.497 . S
C228 C227 1.497 . S
C228 C229 1.395 . S
C228 C230 1.380 . S
C229 C228 1.395 . S
C229 C232 1.398 . S
C229 H244 0.930 . S
C230 C228 1.380 . S
C230 C231 1.391 . S
C230 H245 0.930 . S
C231 C230 1.391 . S
C231 C233 1.387 . S
C232 C229 1.398 . S
C232 C233 1.380 . S
C232 H246 0.930 . S
C233 C231 1.387 . S
C233 C232 1.380 . S
C233 H247 0.930 . S
C234 O214 1.254 . S
C234 O215 1.268 . S
C235 O219 1.284 . S
C235 O222 1.250 . S
C236 Gd169 2.828 . S
C236 O218 1.258 . S
C236 O223 1.252 . S
C236 C237 1.497 . S
C237 C236 1.497 . S
C237 C238 1.395 . S
C237 C239 1.380 . S
C238 C237 1.395 . S
C238 C241 1.398 . S
C238 H248 0.930 . S
C239 C237 1.380 . S
C239 C240 1.391 . S
C239 H249 0.930 . S
C240 C239 1.391 . S
C240 C242 1.387 . S
C241 C238 1.398 . S
C241 C242 1.380 . S
C241 H250 0.930 . S
C242 C240 1.387 . S
C242 C241 1.380 . S
C242 H251 0.930 . S
C243 O220 1.254 . S
C243 O221 1.268 . S
H244 C229 0.930 . S
H245 C230 0.930 . S
H246 C232 0.930 . S
H247 C233 0.930 . S
H248 C238 0.930 . S
H249 C239 0.930 . S
H250 C241 0.930 . S
H251 C242 0.930 . S
Gd252 N283 2.661 . S
Gd252 N289 2.601 . S
Gd252 O296 2.545 . S
Gd252 O297 2.606 . S
Gd252 O299 2.429 . S
Gd252 O300 2.545 . S
Gd252 O301 2.412 . S
Gd252 O303 2.362 1_554 S
Gd252 O304 2.324 . S
Gd252 C311 2.828 . S
Gd253 N262 2.661 . S
Gd253 N266 2.601 . S
Gd253 O297 2.362 1_556 S
Gd253 O298 2.324 . S
Gd253 O302 2.545 . S
Gd253 O303 2.606 . S
Gd253 O305 2.425 1_556 S
Gd253 O306 2.545 . S
Gd253 O307 2.412 . S
Gd253 C320 2.828 . S
C254 C257 1.417 . S
C254 C259 1.431 . S
C254 C260 1.412 . S
C255 C258 1.437 . S
C255 C259 1.317 . S
C255 H274 0.929 . S
C256 C257 1.426 . S
C256 C258 1.413 . S
C256 N266 1.359 . S
C257 C254 1.417 . S
C257 C256 1.426 . S
C257 N262 1.350 . S
C258 C255 1.437 . S
C258 C256 1.413 . S
C258 C268 1.391 . S
C259 C254 1.431 . S
C259 C255 1.317 . S
C259 H270 0.930 . S
C260 C254 1.412 . S
C260 C261 1.355 . S
C260 H272 0.930 . S
C261 C260 1.355 . S
C261 C263 1.402 . S
C261 H273 0.930 . S
N262 Gd253 2.661 . S
N262 C257 1.350 . S
N262 C263 1.307 . S
C263 C261 1.402 . S
C263 N262 1.307 . S
C263 H264 0.930 . S
H264 C263 0.930 . S
C265 N266 1.334 . S
C265 C267 1.394 . S
C265 H269 0.930 . S
N266 Gd253 2.601 . S
N266 C256 1.359 . S
N266 C265 1.334 . S
C267 C265 1.394 . S
C267 C268 1.359 . S
C267 H279 0.930 . S
C268 C258 1.391 . S
C268 C267 1.359 . S
C268 H280 0.929 . S
H269 C265 0.930 . S
H270 C259 0.930 . S
H271 C288 0.930 . S
H272 C260 0.930 . S
H273 C261 0.930 . S
H274 C255 0.929 . S
H275 C293 0.930 . S
H276 C284 0.930 . S
H277 C285 0.930 . S
H278 C309 0.929 . S
H279 C267 0.930 . S
H280 C268 0.929 . S
H281 C310 0.930 . S
H282 C291 0.930 . S
N283 Gd252 2.661 . S
N283 C287 1.350 . S
N283 C288 1.307 . S
C284 H276 0.930 . S
C284 C285 1.355 . S
C284 C286 1.412 . S
C285 H277 0.930 . S
C285 C284 1.355 . S
C285 C288 1.402 . S
C286 C284 1.412 . S
C286 C287 1.417 . S
C286 C310 1.431 . S
C287 N283 1.350 . S
C287 C286 1.417 . S
C287 C290 1.426 . S
C288 H271 0.930 . S
C288 N283 1.307 . S
C288 C285 1.402 . S
N289 Gd252 2.601 . S
N289 C290 1.359 . S
N289 C293 1.334 . S
C290 C287 1.426 . S
C290 N289 1.359 . S
C290 C294 1.413 . S
C291 H282 0.930 . S
C291 C292 1.359 . S
C291 C293 1.394 . S
C292 C291 1.359 . S
C292 C294 1.391 . S
C292 H295 0.929 . S
C293 H275 0.930 . S
C293 N289 1.334 . S
C293 C291 1.394 . S
C294 C290 1.413 . S
C294 C292 1.391 . S
C294 C309 1.437 . S
H295 C292 0.929 . S
O296 Gd252 2.545 . S
O296 C311 1.258 . S
O297 Gd252 2.606 . S
O297 Gd253 2.362 1_554 S
O297 C308 1.284 . S
O298 Gd253 2.324 . S
O298 C318 1.254 . S
O299 Gd252 2.429 . S
O299 C318 1.268 1_554 S
O300 Gd252 2.545 . S
O300 C308 1.250 . S
O301 Gd252 2.412 . S
O301 C311 1.252 . S
O302 Gd253 2.545 . S
O302 C320 1.258 . S
O303 Gd252 2.362 1_556 S
O303 Gd253 2.606 . S
O303 C319 1.284 . S
O304 Gd252 2.324 . S
O304 C327 1.254 . S
O305 Gd253 2.425 1_554 S
O305 C327 1.275 . S
O306 Gd253 2.545 . S
O306 C319 1.250 . S
O307 Gd253 2.412 . S
O307 C320 1.252 . S
C308 O297 1.284 . S
C308 O300 1.250 . S
C309 H278 0.929 . S
C309 C294 1.437 . S
C309 C310 1.317 . S
C310 H281 0.930 . S
C310 C286 1.431 . S
C310 C309 1.317 . S
C311 Gd252 2.828 . S
C311 O296 1.258 . S
C311 O301 1.252 . S
C311 C312 1.497 . S
C312 C311 1.497 . S
C312 C313 1.395 . S
C312 C314 1.380 . S
C313 C312 1.395 . S
C313 C316 1.398 . S
C313 H328 0.930 . S
C314 C312 1.380 . S
C314 C315 1.391 . S
C314 H329 0.930 . S
C315 C314 1.391 . S
C315 C317 1.387 . S
C316 C313 1.398 . S
C316 C317 1.380 . S
C316 H330 0.930 . S
C317 C315 1.387 . S
C317 C316 1.380 . S
C317 H331 0.930 . S
C318 O298 1.254 . S
C318 O299 1.268 1_556 S
C319 O303 1.284 . S
C319 O306 1.250 . S
C320 Gd253 2.828 . S
C320 O302 1.258 . S
C320 O307 1.252 . S
C320 C321 1.497 . S
C321 C320 1.497 . S
C321 C322 1.395 . S
C321 C323 1.380 . S
C322 C321 1.395 . S
C322 C325 1.398 . S
C322 H332 0.930 . S
C323 C321 1.380 . S
C323 C324 1.391 . S
C323 H333 0.930 . S
C324 C323 1.391 . S
C324 C326 1.387 . S
C325 C322 1.398 . S
C325 C326 1.380 . S
C325 H334 0.930 . S
C326 C324 1.387 . S
C326 C325 1.380 . S
C326 H335 0.930 . S
C327 O304 1.254 . S
C327 O305 1.275 . S
H328 C313 0.930 . S
H329 C314 0.930 . S
H330 C316 0.930 . S
H331 C317 0.930 . S
H332 C322 0.930 . S
H333 C323 0.930 . S
H334 C325 0.930 . S
H335 C326 0.930 . S
Gd336 N367 2.661 . S
Gd336 N373 2.601 . S
Gd336 O380 2.545 . S
Gd336 O381 2.606 . S
Gd336 O383 2.429 . S
Gd336 O384 2.545 . S
Gd336 O385 2.412 . S
Gd336 O387 2.362 . S
Gd336 O388 2.324 . S
Gd336 C395 2.828 . S
Gd337 N346 2.661 . S
Gd337 N350 2.601 . S
Gd337 O381 2.362 . S
Gd337 O382 2.324 . S
Gd337 O386 2.545 . S
Gd337 O387 2.606 . S
Gd337 O389 2.429 . S
Gd337 O390 2.545 . S
Gd337 O391 2.412 . S
Gd337 C404 2.828 . S
C338 C341 1.417 . S
C338 C343 1.431 . S
C338 C344 1.412 . S
C339 C342 1.437 . S
C339 C343 1.317 . S
C339 H358 0.929 . S
C340 C341 1.426 . S
C340 C342 1.413 . S
C340 N350 1.359 . S
C341 C338 1.417 . S
C341 C340 1.426 . S
C341 N346 1.350 . S
C342 C339 1.437 . S
C342 C340 1.413 . S
C342 C352 1.391 . S
C343 C338 1.431 . S
C343 C339 1.317 . S
C343 H354 0.930 . S
C344 C338 1.412 . S
C344 C345 1.355 . S
C344 H356 0.930 . S
C345 C344 1.355 . S
C345 C347 1.402 . S
C345 H357 0.930 . S
N346 Gd337 2.661 . S
N346 C341 1.350 . S
N346 C347 1.307 . S
C347 C345 1.402 . S
C347 N346 1.307 . S
C347 H348 0.930 . S
H348 C347 0.930 . S
C349 N350 1.334 . S
C349 C351 1.394 . S
C349 H353 0.930 . S
N350 Gd337 2.601 . S
N350 C340 1.359 . S
N350 C349 1.334 . S
C351 C349 1.394 . S
C351 C352 1.359 . S
C351 H363 0.930 . S
C352 C342 1.391 . S
C352 C351 1.359 . S
C352 H364 0.929 . S
H353 C349 0.930 . S
H354 C343 0.930 . S
H355 C372 0.930 . S
H356 C344 0.930 . S
H357 C345 0.930 . S
H358 C339 0.929 . S
H359 C377 0.930 . S
H360 C368 0.930 . S
H361 C369 0.930 . S
H362 C393 0.929 . S
H363 C351 0.930 . S
H364 C352 0.929 . S
H365 C394 0.930 . S
H366 C375 0.930 . S
N367 Gd336 2.661 . S
N367 C371 1.350 . S
N367 C372 1.307 . S
C368 H360 0.930 . S
C368 C369 1.355 . S
C368 C370 1.412 . S
C369 H361 0.930 . S
C369 C368 1.355 . S
C369 C372 1.402 . S
C370 C368 1.412 . S
C370 C371 1.417 . S
C370 C394 1.431 . S
C371 N367 1.350 . S
C371 C370 1.417 . S
C371 C374 1.426 . S
C372 H355 0.930 . S
C372 N367 1.307 . S
C372 C369 1.402 . S
N373 Gd336 2.601 . S
N373 C374 1.359 . S
N373 C377 1.334 . S
C374 C371 1.426 . S
C374 N373 1.359 . S
C374 C378 1.413 . S
C375 H366 0.930 . S
C375 C376 1.359 . S
C375 C377 1.394 . S
C376 C375 1.359 . S
C376 C378 1.391 . S
C376 H379 0.929 . S
C377 H359 0.930 . S
C377 N373 1.334 . S
C377 C375 1.394 . S
C378 C374 1.413 . S
C378 C376 1.391 . S
C378 C393 1.437 . S
H379 C376 0.929 . S
O380 Gd336 2.545 . S
O380 C395 1.258 . S
O381 Gd336 2.606 . S
O381 Gd337 2.362 . S
O381 C392 1.284 . S
O382 Gd337 2.324 . S
O382 C402 1.254 . S
O383 Gd336 2.429 . S
O383 C402 1.268 . S
O384 Gd336 2.545 . S
O384 C392 1.250 . S
O385 Gd336 2.412 . S
O385 C395 1.252 . S
O386 Gd337 2.545 . S
O386 C404 1.258 . S
O387 Gd336 2.362 . S
O387 Gd337 2.606 . S
O387 C403 1.284 . S
O388 Gd336 2.324 . S
O388 C411 1.254 . S
O389 Gd337 2.429 . S
O389 C411 1.268 . S
O390 Gd337 2.545 . S
O390 C403 1.250 . S
O391 Gd337 2.412 . S
O391 C404 1.252 . S
C392 O381 1.284 . S
C392 O384 1.250 . S
C393 H362 0.929 . S
C393 C378 1.437 . S
C393 C394 1.317 . S
C394 H365 0.930 . S
C394 C370 1.431 . S
C394 C393 1.317 . S
C395 Gd336 2.828 . S
C395 O380 1.258 . S
C395 O385 1.252 . S
C395 C396 1.497 . S
C396 C395 1.497 . S
C396 C397 1.395 . S
C396 C398 1.380 . S
C397 C396 1.395 . S
C397 C400 1.398 . S
C397 H412 0.930 . S
C398 C396 1.380 . S
C398 C399 1.391 . S
C398 H413 0.930 . S
C399 C398 1.391 . S
C399 C401 1.387 . S
C400 C397 1.398 . S
C400 C401 1.380 . S
C400 H414 0.930 . S
C401 C399 1.387 . S
C401 C400 1.380 . S
C401 H415 0.930 . S
C402 O382 1.254 . S
C402 O383 1.268 . S
C403 O387 1.284 . S
C403 O390 1.250 . S
C404 Gd337 2.828 . S
C404 O386 1.258 . S
C404 O391 1.252 . S
C404 C405 1.497 . S
C405 C404 1.497 . S
C405 C406 1.395 . S
C405 C407 1.380 . S
C406 C405 1.395 . S
C406 C409 1.398 . S
C406 H416 0.930 . S
C407 C405 1.380 . S
C407 C408 1.391 . S
C407 H417 0.930 . S
C408 C407 1.391 . S
C408 C410 1.387 . S
C409 C406 1.398 . S
C409 C410 1.380 . S
C409 H418 0.930 . S
C410 C408 1.387 . S
C410 C409 1.380 . S
C410 H419 0.930 . S
C411 O388 1.254 . S
C411 O389 1.268 . S
H412 C397 0.930 . S
H413 C398 0.930 . S
H414 C400 0.930 . S
H415 C401 0.930 . S
H416 C406 0.930 . S
H417 C407 0.930 . S
H418 C409 0.930 . S
H419 C410 0.930 . S
Gd420 N451 2.661 . S
Gd420 N457 2.601 . S
Gd420 O464 2.545 . S
Gd420 O465 2.606 . S
Gd420 O467 2.429 . S
Gd420 O468 2.545 . S
Gd420 O469 2.412 . S
Gd420 O471 2.362 . S
Gd420 O472 2.324 . S
Gd420 C479 2.828 . S
Gd421 N430 2.661 . S
Gd421 N434 2.601 . S
Gd421 O465 2.362 . S
Gd421 O466 2.324 . S
Gd421 O470 2.545 . S
Gd421 O471 2.606 . S
Gd421 O473 2.429 . S
Gd421 O474 2.545 . S
Gd421 O475 2.412 . S
Gd421 C488 2.828 . S
C422 C425 1.417 . S
C422 C427 1.431 . S
C422 C428 1.412 . S
C423 C426 1.437 . S
C423 C427 1.317 . S
C423 H442 0.929 . S
C424 C425 1.426 . S
C424 C426 1.413 . S
C424 N434 1.359 . S
C425 C422 1.417 . S
C425 C424 1.426 . S
C425 N430 1.350 . S
C426 C423 1.437 . S
C426 C424 1.413 . S
C426 C436 1.391 . S
C427 C422 1.431 . S
C427 C423 1.317 . S
C427 H438 0.930 . S
C428 C422 1.412 . S
C428 C429 1.355 . S
C428 H440 0.930 . S
C429 C428 1.355 . S
C429 C431 1.402 . S
C429 H441 0.930 . S
N430 Gd421 2.661 . S
N430 C425 1.350 . S
N430 C431 1.307 . S
C431 C429 1.402 . S
C431 N430 1.307 . S
C431 H432 0.930 . S
H432 C431 0.930 . S
C433 N434 1.334 . S
C433 C435 1.394 . S
C433 H437 0.930 . S
N434 Gd421 2.601 . S
N434 C424 1.359 . S
N434 C433 1.334 . S
C435 C433 1.394 . S
C435 C436 1.359 . S
C435 H447 0.930 . S
C436 C426 1.391 . S
C436 C435 1.359 . S
C436 H448 0.929 . S
H437 C433 0.930 . S
H438 C427 0.930 . S
H439 C456 0.930 . S
H440 C428 0.930 . S
H441 C429 0.930 . S
H442 C423 0.929 . S
H443 C461 0.930 . S
H444 C452 0.930 . S
H445 C453 0.930 . S
H446 C477 0.929 . S
H447 C435 0.930 . S
H448 C436 0.929 . S
H449 C478 0.930 . S
H450 C459 0.930 . S
N451 Gd420 2.661 . S
N451 C455 1.350 . S
N451 C456 1.307 . S
C452 H444 0.930 . S
C452 C453 1.355 . S
C452 C454 1.412 . S
C453 H445 0.930 . S
C453 C452 1.355 . S
C453 C456 1.402 . S
C454 C452 1.412 . S
C454 C455 1.417 . S
C454 C478 1.431 . S
C455 N451 1.350 . S
C455 C454 1.417 . S
C455 C458 1.426 . S
C456 H439 0.930 . S
C456 N451 1.307 . S
C456 C453 1.402 . S
N457 Gd420 2.601 . S
N457 C458 1.359 . S
N457 C461 1.334 . S
C458 C455 1.426 . S
C458 N457 1.359 . S
C458 C462 1.413 . S
C459 H450 0.930 . S
C459 C460 1.359 . S
C459 C461 1.394 . S
C460 C459 1.359 . S
C460 C462 1.391 . S
C460 H463 0.929 . S
C461 H443 0.930 . S
C461 N457 1.334 . S
C461 C459 1.394 . S
C462 C458 1.413 . S
C462 C460 1.391 . S
C462 C477 1.437 . S
H463 C460 0.929 . S
O464 Gd420 2.545 . S
O464 C479 1.258 . S
O465 Gd420 2.606 . S
O465 Gd421 2.362 . S
O465 C476 1.284 . S
O466 Gd421 2.324 . S
O466 C486 1.254 . S
O467 Gd420 2.429 . S
O467 C486 1.268 . S
O468 Gd420 2.545 . S
O468 C476 1.250 . S
O469 Gd420 2.412 . S
O469 C479 1.252 . S
O470 Gd421 2.545 . S
O470 C488 1.258 . S
O471 Gd420 2.362 . S
O471 Gd421 2.606 . S
O471 C487 1.284 . S
O472 Gd420 2.324 . S
O472 C495 1.254 . S
O473 Gd421 2.429 . S
O473 C495 1.268 . S
O474 Gd421 2.545 . S
O474 C487 1.250 . S
O475 Gd421 2.412 . S
O475 C488 1.252 . S
C476 O465 1.284 . S
C476 O468 1.250 . S
C477 H446 0.929 . S
C477 C462 1.437 . S
C477 C478 1.317 . S
C478 H449 0.930 . S
C478 C454 1.431 . S
C478 C477 1.317 . S
C479 Gd420 2.828 . S
C479 O464 1.258 . S
C479 O469 1.252 . S
C479 C480 1.497 . S
C480 C479 1.497 . S
C480 C481 1.395 . S
C480 C482 1.380 . S
C481 C480 1.395 . S
C481 C484 1.398 . S
C481 H496 0.930 . S
C482 C480 1.380 . S
C482 C483 1.391 . S
C482 H497 0.930 . S
C483 C482 1.391 . S
C483 C485 1.387 . S
C484 C481 1.398 . S
C484 C485 1.380 . S
C484 H498 0.930 . S
C485 C483 1.387 . S
C485 C484 1.380 . S
C485 H499 0.930 . S
C486 O466 1.254 . S
C486 O467 1.268 . S
C487 O471 1.284 . S
C487 O474 1.250 . S
C488 Gd421 2.828 . S
C488 O470 1.258 . S
C488 O475 1.252 . S
C488 C489 1.497 . S
C489 C488 1.497 . S
C489 C490 1.395 . S
C489 C491 1.380 . S
C490 C489 1.395 . S
C490 C493 1.398 . S
C490 H500 0.930 . S
C491 C489 1.380 . S
C491 C492 1.391 . S
C491 H501 0.930 . S
C492 C491 1.391 . S
C492 C494 1.387 . S
C493 C490 1.398 . S
C493 C494 1.380 . S
C493 H502 0.930 . S
C494 C492 1.387 . S
C494 C493 1.380 . S
C494 H503 0.930 . S
C495 O472 1.254 . S
C495 O473 1.268 . S
H496 C481 0.930 . S
H497 C482 0.930 . S
H498 C484 0.930 . S
H499 C485 0.930 . S
H500 C490 0.930 . S
H501 C491 0.930 . S
H502 C493 0.930 . S
H503 C494 0.930 . S
C504 C505 1.349 . S
C504 C506 1.327 . S
C504 H529 0.950 . S
C505 C504 1.349 . S
C505 C521 1.349 . S
C506 C504 1.327 . S
C506 C525 1.429 . S
C506 H530 0.950 . S
C507 C524 1.574 . S
C507 C526 1.368 . S
C507 H531 0.949 . S
H508 C512 0.949 . S
C509 C510 1.349 . S
C509 C511 1.327 . S
C509 H532 0.950 . S
C510 C509 1.349 . S
C510 C522 1.349 . S
C511 C509 1.327 . S
C511 C527 1.429 . S
C511 H533 0.950 . S
C512 H508 0.949 . S
C512 C520 1.574 . S
C512 C528 1.368 . S
H513 C521 0.950 . S
H514 C519 0.950 . S
H515 C520 0.949 . S
H516 C522 0.950 . S
H517 C523 0.950 . S
H518 C524 0.949 . S
C519 H514 0.950 . S
C519 C521 1.327 . S
C519 C525 1.429 . S
C520 C512 1.574 . S
C520 H515 0.949 . S
C520 C526 1.368 . S
C521 C505 1.349 . S
C521 H513 0.950 . S
C521 C519 1.327 . S
C522 C510 1.349 . S
C522 H516 0.950 . S
C522 C523 1.327 . S
C523 H517 0.950 . S
C523 C522 1.327 . S
C523 C527 1.429 . S
C524 C507 1.574 . S
C524 H518 0.949 . S
C524 C528 1.368 . S
C525 C506 1.429 . S
C525 C519 1.429 . S
C525 C526 1.523 . S
C526 C507 1.368 . S
C526 C520 1.368 . S
C526 C525 1.523 . S
C527 C511 1.429 . S
C527 C523 1.429 . S
C527 C528 1.523 . S
C528 C512 1.368 . S
C528 C524 1.368 . S
C528 C527 1.523 . S
H529 C504 0.950 . S
H530 C506 0.950 . S
H531 C507 0.949 . S
H532 C509 0.950 . S
H533 C511 0.950 . S
C534 C535 1.349 . S
C534 C536 1.327 . S
C534 H559 0.950 . S
C535 C534 1.349 . S
C535 C551 1.349 . S
C536 C534 1.327 . S
C536 C555 1.429 . S
C536 H560 0.950 . S
C537 C554 1.574 1_455 S
C537 C556 1.368 . S
C537 H561 0.949 . S
H538 C542 0.949 . S
C539 C540 1.349 . S
C539 C541 1.327 . S
C539 H562 0.950 . S
C540 C539 1.349 . S
C540 C552 1.349 . S
C541 C539 1.327 . S
C541 C557 1.429 . S
C541 H563 0.950 . S
C542 H538 0.949 . S
C542 C550 1.574 1_655 S
C542 C558 1.368 . S
H543 C551 0.950 . S
H544 C549 0.950 . S
H545 C550 0.949 . S
H546 C552 0.950 . S
H547 C553 0.950 . S
H548 C554 0.949 . S
C549 H544 0.950 . S
C549 C551 1.327 . S
C549 C555 1.429 . S
C550 C542 1.574 1_455 S
C550 H545 0.949 . S
C550 C556 1.368 . S
C551 C535 1.349 . S
C551 H543 0.950 . S
C551 C549 1.327 . S
C552 C540 1.349 . S
C552 H546 0.950 . S
C552 C553 1.327 . S
C553 H547 0.950 . S
C553 C552 1.327 . S
C553 C557 1.429 . S
C554 C537 1.574 1_655 S
C554 H548 0.949 . S
C554 C558 1.368 . S
C555 C536 1.429 . S
C555 C549 1.429 . S
C555 C556 1.523 . S
C556 C537 1.368 . S
C556 C550 1.368 . S
C556 C555 1.523 . S
C557 C541 1.429 . S
C557 C553 1.429 . S
C557 C558 1.523 . S
C558 C542 1.368 . S
C558 C554 1.368 . S
C558 C557 1.523 . S
H559 C534 0.950 . S
H560 C536 0.950 . S
H561 C537 0.949 . S
H562 C539 0.950 . S
H563 C541 0.950 . S
C564 C565 1.349 . S
C564 C566 1.327 . S
C564 H589 0.950 . S
C565 C564 1.349 . S
C565 C581 1.349 . S
C566 C564 1.327 . S
C566 C585 1.429 . S
C566 H590 0.950 . S
C567 C584 1.574 1_545 S
C567 C586 1.368 . S
C567 H591 0.949 . S
H568 C572 0.949 . S
C569 C570 1.349 . S
C569 C571 1.327 . S
C569 H592 0.950 . S
C570 C569 1.349 . S
C570 C582 1.349 . S
C571 C569 1.327 . S
C571 C587 1.429 . S
C571 H593 0.950 . S
C572 H568 0.949 . S
C572 C580 1.574 1_565 S
C572 C588 1.368 . S
H573 C581 0.950 . S
H574 C579 0.950 . S
H575 C580 0.949 . S
H576 C582 0.950 . S
H577 C583 0.950 . S
H578 C584 0.949 . S
C579 H574 0.950 . S
C579 C581 1.327 . S
C579 C585 1.429 . S
C580 C572 1.574 1_545 S
C580 H575 0.949 . S
C580 C586 1.368 . S
C581 C565 1.349 . S
C581 H573 0.950 . S
C581 C579 1.327 . S
C582 C570 1.349 . S
C582 H576 0.950 . S
C582 C583 1.327 . S
C583 H577 0.950 . S
C583 C582 1.327 . S
C583 C587 1.429 . S
C584 C567 1.574 1_565 S
C584 H578 0.949 . S
C584 C588 1.368 . S
C585 C566 1.429 . S
C585 C579 1.429 . S
C585 C586 1.523 . S
C586 C567 1.368 . S
C586 C580 1.368 . S
C586 C585 1.523 . S
C587 C571 1.429 . S
C587 C583 1.429 . S
C587 C588 1.523 . S
C588 C572 1.368 . S
C588 C584 1.368 . S
C588 C587 1.523 . S
H589 C564 0.950 . S
H590 C566 0.950 . S
H591 C567 0.949 . S
H592 C569 0.950 . S
H593 C571 0.950 . S
C594 C595 1.349 . S
C594 C596 1.327 . S
C594 H619 0.950 . S
C595 C594 1.349 . S
C595 C611 1.349 . S
C596 C594 1.327 . S
C596 C615 1.429 . S
C596 H620 0.950 . S
C597 C614 1.574 . S
C597 C616 1.368 . S
C597 H621 0.949 . S
H598 C602 0.949 . S
C599 C600 1.349 . S
C599 C601 1.327 . S
C599 H622 0.950 . S
C600 C599 1.349 . S
C600 C612 1.349 . S
C601 C599 1.327 . S
C601 C617 1.429 . S
C601 H623 0.950 . S
C602 H598 0.949 . S
C602 C610 1.574 . S
C602 C618 1.368 . S
H603 C611 0.950 . S
H604 C609 0.950 . S
H605 C610 0.949 . S
H606 C612 0.950 . S
H607 C613 0.950 . S
H608 C614 0.949 . S
C609 H604 0.950 . S
C609 C611 1.327 . S
C609 C615 1.429 . S
C610 C602 1.574 . S
C610 H605 0.949 . S
C610 C616 1.368 . S
C611 C595 1.349 . S
C611 H603 0.950 . S
C611 C609 1.327 . S
C612 C600 1.349 . S
C612 H606 0.950 . S
C612 C613 1.327 . S
C613 H607 0.950 . S
C613 C612 1.327 . S
C613 C617 1.429 . S
C614 C597 1.574 . S
C614 H608 0.949 . S
C614 C618 1.368 . S
C615 C596 1.429 . S
C615 C609 1.429 . S
C615 C616 1.523 . S
C616 C597 1.368 . S
C616 C610 1.368 . S
C616 C615 1.523 . S
C617 C601 1.429 . S
C617 C613 1.429 . S
C617 C618 1.523 . S
C618 C602 1.368 . S
C618 C614 1.368 . S
C618 C617 1.523 . S
H619 C594 0.950 . S
H620 C596 0.950 . S
H621 C597 0.949 . S
H622 C599 0.950 . S
H623 C601 0.950 . S
C624 C625 1.349 . S
C624 C626 1.327 . S
C624 H649 0.950 . S
C625 C624 1.349 . S
C625 C641 1.349 . S
C626 C624 1.327 . S
C626 C645 1.429 . S
C626 H650 0.950 . S
C627 C644 1.574 . S
C627 C646 1.368 . S
C627 H651 0.949 . S
H628 C632 0.949 . S
C629 C630 1.349 . S
C629 C631 1.327 . S
C629 H652 0.950 . S
C630 C629 1.349 . S
C630 C642 1.349 . S
C631 C629 1.327 . S
C631 C647 1.429 . S
C631 H653 0.950 . S
C632 H628 0.949 . S
C632 C640 1.574 1_655 S
C632 C648 1.368 . S
H633 C641 0.950 . S
H634 C639 0.950 . S
H635 C640 0.949 . S
H636 C642 0.950 . S
H637 C643 0.950 . S
H638 C644 0.948 . S
C639 H634 0.950 . S
C639 C641 1.327 . S
C639 C645 1.429 . S
C640 C632 1.574 1_455 S
C640 H635 0.949 . S
C640 C646 1.368 . S
C641 C625 1.349 . S
C641 H633 0.950 . S
C641 C639 1.327 . S
C642 C630 1.349 . S
C642 H636 0.950 . S
C642 C643 1.327 . S
C643 H637 0.950 . S
C643 C642 1.327 . S
C643 C647 1.429 . S
C644 C627 1.574 . S
C644 H638 0.948 . S
C644 C648 1.368 1_455 S
C645 C626 1.429 . S
C645 C639 1.429 . S
C645 C646 1.523 . S
C646 C627 1.368 . S
C646 C640 1.368 . S
C646 C645 1.523 . S
C647 C631 1.429 . S
C647 C643 1.429 . S
C647 C648 1.523 . S
C648 C632 1.368 . S
C648 C644 1.368 1_655 S
C648 C647 1.523 . S
H649 C624 0.950 . S
H650 C626 0.950 . S
H651 C627 0.949 . S
H652 C629 0.950 . S
H653 C631 0.950 . S
C654 C655 1.349 . S
C654 C656 1.327 . S
C654 H679 0.950 . S
C655 C654 1.349 . S
C655 C671 1.349 . S
C656 C654 1.327 . S
C656 C675 1.429 . S
C656 H680 0.950 . S
C657 C674 1.574 . S
C657 C676 1.368 . S
C657 H681 0.949 . S
H658 C662 0.949 . S
C659 C660 1.349 . S
C659 C661 1.327 . S
C659 H682 0.950 . S
C660 C659 1.349 . S
C660 C672 1.349 . S
C661 C659 1.327 . S
C661 C677 1.429 . S
C661 H683 0.950 . S
C662 H658 0.949 . S
C662 C670 1.574 1_565 S
C662 C678 1.368 . S
H663 C671 0.950 . S
H664 C669 0.950 . S
H665 C670 0.949 . S
H666 C672 0.950 . S
H667 C673 0.950 . S
H668 C674 0.948 . S
C669 H664 0.950 . S
C669 C671 1.327 . S
C669 C675 1.429 . S
C670 C662 1.574 1_545 S
C670 H665 0.949 . S
C670 C676 1.368 . S
C671 C655 1.349 . S
C671 H663 0.950 . S
C671 C669 1.327 . S
C672 C660 1.349 . S
C672 H666 0.950 . S
C672 C673 1.327 . S
C673 H667 0.950 . S
C673 C672 1.327 . S
C673 C677 1.429 . S
C674 C657 1.574 . S
C674 H668 0.948 . S
C674 C678 1.368 1_545 S
C675 C656 1.429 . S
C675 C669 1.429 . S
C675 C676 1.523 . S
C676 C657 1.368 . S
C676 C670 1.368 . S
C676 C675 1.523 . S
C677 C661 1.429 . S
C677 C673 1.429 . S
C677 C678 1.523 . S
C678 C662 1.368 . S
C678 C674 1.368 1_565 S
C678 C677 1.523 . S
H679 C654 0.950 . S
H680 C656 0.950 . S
H681 C657 0.949 . S
H682 C659 0.950 . S
H683 C661 0.950 . S
C684 C685 1.349 . S
C684 C686 1.327 . S
C684 H709 0.950 . S
C685 C684 1.349 . S
C685 C701 1.349 . S
C686 C684 1.327 . S
C686 C705 1.429 . S
C686 H710 0.950 . S
C687 C704 1.574 . S
C687 C706 1.368 . S
C687 H711 0.949 . S
H688 C692 0.949 . S
C689 C690 1.349 . S
C689 C691 1.327 . S
C689 H712 0.950 . S
C690 C689 1.349 . S
C690 C702 1.349 . S
C691 C689 1.327 . S
C691 C707 1.429 . S
C691 H713 0.950 . S
C692 H688 0.949 . S
C692 C700 1.574 . S
C692 C708 1.368 . S
H693 C701 0.950 . S
H694 C699 0.950 . S
H695 C700 0.949 . S
H696 C702 0.950 . S
H697 C703 0.950 . S
H698 C704 0.949 . S
C699 H694 0.950 . S
C699 C701 1.327 . S
C699 C705 1.429 . S
C700 C692 1.574 . S
C700 H695 0.949 . S
C700 C706 1.368 . S
C701 C685 1.349 . S
C701 H693 0.950 . S
C701 C699 1.327 . S
C702 C690 1.349 . S
C702 H696 0.950 . S
C702 C703 1.327 . S
C703 H697 0.950 . S
C703 C702 1.327 . S
C703 C707 1.429 . S
C704 C687 1.574 . S
C704 H698 0.949 . S
C704 C708 1.368 . S
C705 C686 1.429 . S
C705 C699 1.429 . S
C705 C706 1.523 . S
C706 C687 1.368 . S
C706 C700 1.368 . S
C706 C705 1.523 . S
C707 C691 1.429 . S
C707 C703 1.429 . S
C707 C708 1.523 . S
C708 C692 1.368 . S
C708 C704 1.368 . S
C708 C707 1.523 . S
H709 C684 0.950 . S
H710 C686 0.950 . S
H711 C687 0.949 . S
H712 C689 0.950 . S
H713 C691 0.950 . S
C714 C715 1.349 . S
C714 C716 1.327 1_554 S
C714 H739 0.950 . S
C715 C714 1.349 . S
C715 C731 1.349 1_554 S
C716 C714 1.327 1_556 S
C716 C735 1.429 . S
C716 H740 0.950 . S
C717 C734 1.574 . S
C717 C736 1.368 . S
C717 H741 0.949 . S
H718 C722 0.949 . S
C719 C720 1.349 . S
C719 C721 1.327 . S
C719 H742 0.950 . S
C720 C719 1.349 . S
C720 C732 1.349 . S
C721 C719 1.327 . S
C721 C737 1.429 . S
C721 H743 0.950 . S
C722 H718 0.949 . S
C722 C730 1.574 . S
C722 C738 1.368 . S
H723 C731 0.950 1_554 S
H724 C729 0.950 . S
H725 C730 0.949 . S
H726 C732 0.950 . S
H727 C733 0.950 . S
H728 C734 0.949 . S
C729 H724 0.950 . S
C729 C731 1.327 . S
C729 C735 1.429 . S
C730 C722 1.574 . S
C730 H725 0.949 . S
C730 C736 1.368 . S
C731 C715 1.349 1_556 S
C731 H723 0.950 1_556 S
C731 C729 1.327 . S
C732 C720 1.349 . S
C732 H726 0.950 . S
C732 C733 1.327 . S
C733 H727 0.950 . S
C733 C732 1.327 . S
C733 C737 1.429 . S
C734 C717 1.574 . S
C734 H728 0.949 . S
C734 C738 1.368 . S
C735 C716 1.429 . S
C735 C729 1.429 . S
C735 C736 1.523 . S
C736 C717 1.368 . S
C736 C730 1.368 . S
C736 C735 1.523 . S
C737 C721 1.429 . S
C737 C733 1.429 . S
C737 C738 1.523 . S
C738 C722 1.368 . S
C738 C734 1.368 . S
C738 C737 1.523 . S
H739 C714 0.950 . S
H740 C716 0.950 . S
H741 C717 0.949 . S
H742 C719 0.950 . S
H743 C721 0.950 . S
C744 C745 1.349 . S
C744 C746 1.327 . S
C744 H769 0.950 . S
C745 C744 1.349 . S
C745 C761 1.349 . S
C746 C744 1.327 . S
C746 C765 1.429 . S
C746 H770 0.950 . S
C747 C764 1.574 . S
C747 C766 1.368 . S
C747 H771 0.949 . S
H748 C752 0.949 . S
C749 C750 1.349 1_554 S
C749 C751 1.327 . S
C749 H772 0.950 1_554 S
C750 C749 1.349 1_556 S
C750 C762 1.349 1_556 S
C751 C749 1.327 . S
C751 C767 1.429 . S
C751 H773 0.950 . S
C752 H748 0.949 . S
C752 C760 1.574 . S
C752 C768 1.368 . S
H753 C761 0.950 . S
H754 C759 0.950 . S
H755 C760 0.949 . S
H756 C762 0.950 1_556 S
H757 C763 0.950 . S
H758 C764 0.949 . S
C759 H754 0.950 . S
C759 C761 1.327 . S
C759 C765 1.429 . S
C760 C752 1.574 . S
C760 H755 0.949 . S
C760 C766 1.368 . S
C761 C745 1.349 . S
C761 H753 0.950 . S
C761 C759 1.327 . S
C762 C750 1.349 1_554 S
C762 H756 0.950 1_554 S
C762 C763 1.327 . S
C763 H757 0.950 . S
C763 C762 1.327 . S
C763 C767 1.429 . S
C764 C747 1.574 . S
C764 H758 0.949 . S
C764 C768 1.368 . S
C765 C746 1.429 . S
C765 C759 1.429 . S
C765 C766 1.523 . S
C766 C747 1.368 . S
C766 C760 1.368 . S
C766 C765 1.523 . S
C767 C751 1.429 . S
C767 C763 1.429 . S
C767 C768 1.523 . S
C768 C752 1.368 . S
C768 C764 1.368 . S
C768 C767 1.523 . S
H769 C744 0.950 . S
H770 C746 0.950 . S
H771 C747 0.949 . S
H772 C749 0.950 1_556 S
H773 C751 0.950 . S
C774 C775 1.349 . S
C774 C776 1.327 . S
C774 H799 0.950 . S
C775 C774 1.349 . S
C775 C791 1.349 . S
C776 C774 1.327 . S
C776 C795 1.429 . S
C776 H800 0.950 . S
C777 C794 1.574 . S
C777 C796 1.368 . S
C777 H801 0.949 . S
H778 C782 0.949 . S
C779 C780 1.349 . S
C779 C781 1.327 . S
C779 H802 0.950 . S
C780 C779 1.349 . S
C780 C792 1.349 . S
C781 C779 1.327 . S
C781 C797 1.429 . S
C781 H803 0.950 . S
C782 H778 0.949 . S
C782 C790 1.574 . S
C782 C798 1.368 . S
H783 C791 0.950 . S
H784 C789 0.950 . S
H785 C790 0.949 . S
H786 C792 0.950 . S
H787 C793 0.950 . S
H788 C794 0.949 . S
C789 H784 0.950 . S
C789 C791 1.327 . S
C789 C795 1.429 . S
C790 C782 1.574 . S
C790 H785 0.949 . S
C790 C796 1.368 . S
C791 C775 1.349 . S
C791 H783 0.950 . S
C791 C789 1.327 . S
C792 C780 1.349 . S
C792 H786 0.950 . S
C792 C793 1.327 . S
C793 H787 0.950 . S
C793 C792 1.327 . S
C793 C797 1.429 . S
C794 C777 1.574 . S
C794 H788 0.949 . S
C794 C798 1.368 . S
C795 C776 1.429 . S
C795 C789 1.429 . S
C795 C796 1.523 . S
C796 C777 1.368 . S
C796 C790 1.368 . S
C796 C795 1.523 . S
C797 C781 1.429 . S
C797 C793 1.429 . S
C797 C798 1.523 . S
C798 C782 1.368 . S
C798 C794 1.368 . S
C798 C797 1.523 . S
H799 C774 0.950 . S
H800 C776 0.950 . S
H801 C777 0.949 . S
H802 C779 0.950 . S
H803 C781 0.950 . S
C804 C805 1.349 . S
C804 C806 1.327 . S
C804 H829 0.950 . S
C805 C804 1.349 . S
C805 C821 1.349 . S
C806 C804 1.327 . S
C806 C825 1.429 . S
C806 H830 0.950 . S
C807 C824 1.574 . S
C807 C826 1.368 . S
C807 H831 0.949 . S
H808 C812 0.949 . S
C809 C810 1.349 . S
C809 C811 1.327 1_554 S
C809 H832 0.950 . S
C810 C809 1.349 . S
C810 C822 1.346 1_554 S
C811 C809 1.327 1_556 S
C811 C827 1.429 . S
C811 H833 0.950 . S
C812 H808 0.949 . S
C812 C820 1.574 . S
C812 C828 1.368 . S
H813 C821 0.950 . S
H814 C819 0.950 . S
H815 C820 0.949 . S
H816 C822 0.947 1_554 S
H817 C823 0.950 . S
H818 C824 0.949 . S
C819 H814 0.950 . S
C819 C821 1.327 . S
C819 C825 1.429 . S
C820 C812 1.574 . S
C820 H815 0.949 . S
C820 C826 1.368 . S
C821 C805 1.349 . S
C821 H813 0.950 . S
C821 C819 1.327 . S
C822 C810 1.346 1_556 S
C822 H816 0.947 1_556 S
C822 C823 1.333 . S
C823 H817 0.950 . S
C823 C822 1.333 . S
C823 C827 1.429 . S
C824 C807 1.574 . S
C824 H818 0.949 . S
C824 C828 1.368 . S
C825 C806 1.429 . S
C825 C819 1.429 . S
C825 C826 1.523 . S
C826 C807 1.368 . S
C826 C820 1.368 . S
C826 C825 1.523 . S
C827 C811 1.429 . S
C827 C823 1.429 . S
C827 C828 1.523 . S
C828 C812 1.368 . S
C828 C824 1.368 . S
C828 C827 1.523 . S
H829 C804 0.950 . S
H830 C806 0.950 . S
H831 C807 0.949 . S
H832 C809 0.950 . S
H833 C811 0.950 . S
C834 C835 1.349 . S
C834 C836 1.327 . S
C834 H859 0.950 . S
C835 C834 1.349 . S
C835 C851 1.349 . S
C836 C834 1.327 . S
C836 C855 1.429 . S
C836 H860 0.950 . S
C837 C854 1.574 . S
C837 C856 1.368 . S
C837 H861 0.949 . S
H838 C842 0.949 . S
C839 C840 1.349 1_554 S
C839 C841 1.327 . S
C839 H862 0.950 1_554 S
C840 C839 1.349 1_556 S
C840 C852 1.349 1_556 S
C841 C839 1.327 . S
C841 C857 1.429 . S
C841 H863 0.950 . S
C842 H838 0.949 . S
C842 C850 1.574 . S
C842 C858 1.368 . S
H843 C851 0.950 . S
H844 C849 0.950 . S
H845 C850 0.949 . S
H846 C852 0.950 1_556 S
H847 C853 0.950 . S
H848 C854 0.949 . S
C849 H844 0.950 . S
C849 C851 1.327 . S
C849 C855 1.429 . S
C850 C842 1.574 . S
C850 H845 0.949 . S
C850 C856 1.368 . S
C851 C835 1.349 . S
C851 H843 0.950 . S
C851 C849 1.327 . S
C852 C840 1.349 1_554 S
C852 H846 0.950 1_554 S
C852 C853 1.327 . S
C853 H847 0.950 . S
C853 C852 1.327 . S
C853 C857 1.429 . S
C854 C837 1.574 . S
C854 H848 0.949 . S
C854 C858 1.368 . S
C855 C836 1.429 . S
C855 C849 1.429 . S
C855 C856 1.523 . S
C856 C837 1.368 . S
C856 C850 1.368 . S
C856 C855 1.523 . S
C857 C841 1.429 . S
C857 C853 1.429 . S
C857 C858 1.523 . S
C858 C842 1.368 . S
C858 C854 1.368 . S
C858 C857 1.523 . S
H859 C834 0.950 . S
H860 C836 0.950 . S
H861 C837 0.949 . S
H862 C839 0.950 1_556 S
H863 C841 0.950 . S
C864 C865 1.349 . S
C864 C866 1.327 . S
C864 H889 0.950 . S
C865 C864 1.349 . S
C865 C881 1.349 . S
C866 C864 1.327 . S
C866 C885 1.429 . S
C866 H890 0.950 . S
C867 C884 1.574 . S
C867 C886 1.368 . S
C867 H891 0.949 . S
H868 C872 0.949 . S
C869 C870 1.349 . S
C869 C871 1.327 . S
C869 H892 0.950 . S
C870 C869 1.349 . S
C870 C882 1.349 . S
C871 C869 1.327 . S
C871 C887 1.429 . S
C871 H893 0.950 . S
C872 H868 0.949 . S
C872 C880 1.574 . S
C872 C888 1.368 . S
H873 C881 0.950 . S
H874 C879 0.950 . S
H875 C880 0.949 . S
H876 C882 0.950 . S
H877 C883 0.950 . S
H878 C884 0.949 . S
C879 H874 0.950 . S
C879 C881 1.327 . S
C879 C885 1.429 . S
C880 C872 1.574 . S
C880 H875 0.949 . S
C880 C886 1.368 . S
C881 C865 1.349 . S
C881 H873 0.950 . S
C881 C879 1.327 . S
C882 C870 1.349 . S
C882 H876 0.950 . S
C882 C883 1.327 . S
C883 H877 0.950 . S
C883 C882 1.327 . S
C883 C887 1.429 . S
C884 C867 1.574 . S
C884 H878 0.949 . S
C884 C888 1.368 . S
C885 C866 1.429 . S
C885 C879 1.429 . S
C885 C886 1.523 . S
C886 C867 1.368 . S
C886 C880 1.368 . S
C886 C885 1.523 . S
C887 C871 1.429 . S
C887 C883 1.429 . S
C887 C888 1.523 . S
C888 C872 1.368 . S
C888 C884 1.368 . S
C888 C887 1.523 . S
H889 C864 0.950 . S
H890 C866 0.950 . S
H891 C867 0.949 . S
H892 C869 0.950 . S
H893 C871 0.950 . S
C894 C895 1.349 . S
C894 C896 1.327 . S
C894 H919 0.950 . S
C895 C894 1.349 . S
C895 C911 1.349 . S
C896 C894 1.327 . S
C896 C915 1.429 . S
C896 H920 0.950 . S
C897 C914 1.574 . S
C897 C916 1.368 . S
C897 H921 0.949 . S
H898 C902 0.949 . S
C899 C900 1.349 . S
C899 C901 1.327 . S
C899 H922 0.950 . S
C900 C899 1.349 . S
C900 C912 1.349 . S
C901 C899 1.327 . S
C901 C917 1.429 . S
C901 H923 0.950 . S
C902 H898 0.949 . S
C902 C910 1.574 . S
C902 C918 1.368 . S
H903 C911 0.950 . S
H904 C909 0.950 . S
H905 C910 0.949 . S
H906 C912 0.950 . S
H907 C913 0.950 . S
H908 C914 0.949 . S
C909 H904 0.950 . S
C909 C911 1.327 . S
C909 C915 1.429 . S
C910 C902 1.574 . S
C910 H905 0.949 . S
C910 C916 1.368 . S
C911 C895 1.349 . S
C911 H903 0.950 . S
C911 C909 1.327 . S
C912 C900 1.349 . S
C912 H906 0.950 . S
C912 C913 1.327 . S
C913 H907 0.950 . S
C913 C912 1.327 . S
C913 C917 1.429 . S
C914 C897 1.574 . S
C914 H908 0.949 . S
C914 C918 1.368 . S
C915 C896 1.429 . S
C915 C909 1.429 . S
C915 C916 1.523 . S
C916 C897 1.368 . S
C916 C910 1.368 . S
C916 C915 1.523 . S
C917 C901 1.429 . S
C917 C913 1.429 . S
C917 C918 1.523 . S
C918 C902 1.368 . S
C918 C914 1.368 . S
C918 C917 1.523 . S
H919 C894 0.950 . S
H920 C896 0.950 . S
H921 C897 0.949 . S
H922 C899 0.950 . S
H923 C901 0.950 . S
C924 C925 1.349 . S
C924 C926 1.327 . S
C924 H949 0.950 . S
C925 C924 1.349 . S
C925 C941 1.349 . S
C926 C924 1.327 . S
C926 C945 1.429 . S
C926 H950 0.950 . S
C927 C944 1.574 . S
C927 C946 1.368 . S
C927 H951 0.949 . S
H928 C932 0.949 . S
C929 C930 1.349 . S
C929 C931 1.327 . S
C929 H952 0.950 . S
C930 C929 1.349 . S
C930 C942 1.349 . S
C931 C929 1.327 . S
C931 C947 1.429 . S
C931 H953 0.950 . S
C932 H928 0.949 . S
C932 C940 1.574 . S
C932 C948 1.368 . S
H933 C941 0.950 . S
H934 C939 0.950 . S
H935 C940 0.949 . S
H936 C942 0.950 . S
H937 C943 0.950 . S
H938 C944 0.949 . S
C939 H934 0.950 . S
C939 C941 1.327 . S
C939 C945 1.429 . S
C940 C932 1.574 . S
C940 H935 0.949 . S
C940 C946 1.368 . S
C941 C925 1.349 . S
C941 H933 0.950 . S
C941 C939 1.327 . S
C942 C930 1.349 . S
C942 H936 0.950 . S
C942 C943 1.327 . S
C943 H937 0.950 . S
C943 C942 1.327 . S
C943 C947 1.429 . S
C944 C927 1.574 . S
C944 H938 0.949 . S
C944 C948 1.368 . S
C945 C926 1.429 . S
C945 C939 1.429 . S
C945 C946 1.523 . S
C946 C927 1.368 . S
C946 C940 1.368 . S
C946 C945 1.523 . S
C947 C931 1.429 . S
C947 C943 1.429 . S
C947 C948 1.523 . S
C948 C932 1.368 . S
C948 C944 1.368 . S
C948 C947 1.523 . S
H949 C924 0.950 . S
H950 C926 0.950 . S
H951 C927 0.949 . S
H952 C929 0.950 . S
H953 C931 0.950 . S
C954 C955 1.349 . S
C954 C956 1.327 . S
C954 H979 0.950 . S
C955 C954 1.349 . S
C955 C971 1.349 . S
C956 C954 1.327 . S
C956 C975 1.429 . S
C956 H980 0.950 . S
C957 C974 1.574 . S
C957 C976 1.368 . S
C957 H981 0.949 . S
H958 C962 0.949 . S
C959 C960 1.349 . S
C959 C961 1.327 . S
C959 H982 0.950 . S
C960 C959 1.349 . S
C960 C972 1.349 . S
C961 C959 1.327 . S
C961 C977 1.429 . S
C961 H983 0.950 . S
C962 H958 0.949 . S
C962 C970 1.574 . S
C962 C978 1.368 . S
H963 C971 0.950 . S
H964 C969 0.950 . S
H965 C970 0.949 . S
H966 C972 0.950 . S
H967 C973 0.950 . S
H968 C974 0.949 . S
C969 H964 0.950 . S
C969 C971 1.327 . S
C969 C975 1.429 . S
C970 C962 1.574 . S
C970 H965 0.949 . S
C970 C976 1.368 . S
C971 C955 1.349 . S
C971 H963 0.950 . S
C971 C969 1.327 . S
C972 C960 1.349 . S
C972 H966 0.950 . S
C972 C973 1.327 . S
C973 H967 0.950 . S
C973 C972 1.327 . S
C973 C977 1.429 . S
C974 C957 1.574 . S
C974 H968 0.949 . S
C974 C978 1.368 . S
C975 C956 1.429 . S
C975 C969 1.429 . S
C975 C976 1.523 . S
C976 C957 1.368 . S
C976 C970 1.368 . S
C976 C975 1.523 . S
C977 C961 1.429 . S
C977 C973 1.429 . S
C977 C978 1.523 . S
C978 C962 1.368 . S
C978 C974 1.368 . S
C978 C977 1.523 . S
H979 C954 0.950 . S
H980 C956 0.950 . S
H981 C957 0.949 . S
H982 C959 0.950 . S
H983 C961 0.950 . S
C984 C985 1.349 . S
C984 C986 1.327 . S
C984 H1009 0.950 . S
C985 C984 1.349 . S
C985 C1001 1.349 . S
C986 C984 1.327 . S
C986 C1005 1.429 . S
C986 H1010 0.950 . S
C987 C1004 1.574 . S
C987 C1006 1.368 . S
C987 H1011 0.949 . S
H988 C992 0.949 . S
C989 C990 1.349 . S
C989 C991 1.327 . S
C989 H1012 0.950 . S
C990 C989 1.349 . S
C990 C1002 1.349 . S
C991 C989 1.327 . S
C991 C1007 1.429 . S
C991 H1013 0.950 . S
C992 H988 0.949 . S
C992 C1000 1.574 . S
C992 C1008 1.368 . S
H993 C1001 0.950 . S
H994 C999 0.950 . S
H995 C1000 0.949 . S
H996 C1002 0.950 . S
H997 C1003 0.950 . S
H998 C1004 0.949 . S
C999 H994 0.950 . S
C999 C1001 1.327 . S
C999 C1005 1.429 . S
C1000 C992 1.574 . S
C1000 H995 0.949 . S
C1000 C1006 1.368 . S
C1001 C985 1.349 . S
C1001 H993 0.950 . S
C1001 C999 1.327 . S
C1002 C990 1.349 . S
C1002 H996 0.950 . S
C1002 C1003 1.327 . S
C1003 H997 0.950 . S
C1003 C1002 1.327 . S
C1003 C1007 1.429 . S
C1004 C987 1.574 . S
C1004 H998 0.949 . S
C1004 C1008 1.368 . S
C1005 C986 1.429 . S
C1005 C999 1.429 . S
C1005 C1006 1.523 . S
C1006 C987 1.368 . S
C1006 C1000 1.368 . S
C1006 C1005 1.523 . S
C1007 C991 1.429 . S
C1007 C1003 1.429 . S
C1007 C1008 1.523 . S
C1008 C992 1.368 . S
C1008 C1004 1.368 . S
C1008 C1007 1.523 . S
H1009 C984 0.950 . S
H1010 C986 0.950 . S
H1011 C987 0.949 . S
H1012 C989 0.950 . S
H1013 C991 0.950 . S
C1014 C1015 1.349 . S
C1014 C1016 1.327 . S
C1014 H1039 0.950 . S
C1015 C1014 1.349 . S
C1015 C1031 1.349 . S
C1016 C1014 1.327 . S
C1016 C1035 1.429 . S
C1016 H1040 0.950 . S
C1017 C1034 1.574 . S
C1017 C1036 1.368 . S
C1017 H1041 0.949 . S
H1018 C1022 0.949 . S
C1019 C1020 1.349 . S
C1019 C1021 1.327 . S
C1019 H1042 0.950 . S
C1020 C1019 1.349 . S
C1020 C1032 1.349 . S
C1021 C1019 1.327 . S
C1021 C1037 1.429 . S
C1021 H1043 0.950 . S
C1022 H1018 0.949 . S
C1022 C1030 1.574 . S
C1022 C1038 1.368 . S
H1023 C1031 0.950 . S
H1024 C1029 0.950 . S
H1025 C1030 0.949 . S
H1026 C1032 0.950 . S
H1027 C1033 0.950 . S
H1028 C1034 0.949 . S
C1029 H1024 0.950 . S
C1029 C1031 1.327 . S
C1029 C1035 1.429 . S
C1030 C1022 1.574 . S
C1030 H1025 0.949 . S
C1030 C1036 1.368 . S
C1031 C1015 1.349 . S
C1031 H1023 0.950 . S
C1031 C1029 1.327 . S
C1032 C1020 1.349 . S
C1032 H1026 0.950 . S
C1032 C1033 1.327 . S
C1033 H1027 0.950 . S
C1033 C1032 1.327 . S
C1033 C1037 1.429 . S
C1034 C1017 1.574 . S
C1034 H1028 0.949 . S
C1034 C1038 1.368 . S
C1035 C1016 1.429 . S
C1035 C1029 1.429 . S
C1035 C1036 1.523 . S
C1036 C1017 1.368 . S
C1036 C1030 1.368 . S
C1036 C1035 1.523 . S
C1037 C1021 1.429 . S
C1037 C1033 1.429 . S
C1037 C1038 1.523 . S
C1038 C1022 1.368 . S
C1038 C1034 1.368 . S
C1038 C1037 1.523 . S
H1039 C1014 0.950 . S
H1040 C1016 0.950 . S
H1041 C1017 0.949 . S
H1042 C1019 0.950 . S
H1043 C1021 0.950 . S
C505 C495 1.431 . S
C510 C67 1.394 . S
C535 C75 1.431 . S
C540 C151 1.394 . S
C565 C159 1.431 . S
C570 C235 1.394 . S
C595 C243 1.431 . S
C600 C319 1.394 . S
C625 C403 1.394 . S
C630 C327 1.431 . S
C655 C487 1.394 . S
C660 C411 1.431 . S
C685 C72 1.315 . S
C690 C63 1.315 . S
C715 C156 1.315 . S
C720 C147 1.315 . S
C745 C240 1.315 . S
C750 C231 1.315 . S
C775 C324 1.315 . S
C780 C315 1.315 . S
C805 C399 1.315 . S
C810 C408 1.315 . S
C835 C492 1.315 . S
C840 C483 1.315 . S
C865 C56 1.307 . S
C870 C402 1.348 . S
C895 C140 1.308 . S
C900 C486 1.348 . S
C925 C66 1.348 . S
C930 C224 1.308 . S
C955 C150 1.348 . S
C960 C308 1.307 . S
C985 C392 1.307 . S
C990 C234 1.348 . S
C1015 C318 1.348 . S
C1020 C476 1.307 . S
