# Generated by pormake.
# Topology mmt, (4)-cn, num edge types: 1
# Building blocks:
#     Node 0, Type 0, BuildingBlock: KUFVIS_clean_sbu_0, # of connection points: 4
#     Node 1, Type 0, BuildingBlock: KUFVIS_clean_sbu_0, # of connection points: 4
#     Node 2, Type 0, BuildingBlock: KUFVIS_clean_sbu_0, # of connection points: 4
#     Node 3, Type 0, BuildingBlock: KUFVIS_clean_sbu_0, # of connection points: 4
#     Node 4, Type 0, BuildingBlock: KUFVIS_clean_sbu_0, # of connection points: 4
#     Node 5, Type 0, BuildingBlock: KUFVIS_clean_sbu_0, # of connection points: 4
#     Node 6, Type 0, BuildingBlock: KUFVIS_clean_sbu_0, # of connection points: 4
#     Node 7, Type 0, BuildingBlock: KUFVIS_clean_sbu_0, # of connection points: 4
#     Edge 8, Type (0, 0), BuildingBlock: ZUJKAS_clean_linker_0, # of connection points: 2
#     Edge 9, Type (0, 0), BuildingBlock: ZUJKAS_clean_linker_0, # of connection points: 2
#     Edge 10, Type (0, 0), BuildingBlock: ZUJKAS_clean_linker_0, # of connection points: 2
#     Edge 11, Type (0, 0), BuildingBlock: ZUJKAS_clean_linker_0, # of connection points: 2
#     Edge 12, Type (0, 0), BuildingBlock: ZUJKAS_clean_linker_0, # of connection points: 2
#     Edge 13, Type (0, 0), BuildingBlock: ZUJKAS_clean_linker_0, # of connection points: 2
#     Edge 14, Type (0, 0), BuildingBlock: ZUJKAS_clean_linker_0, # of connection points: 2
#     Edge 15, Type (0, 0), BuildingBlock: ZUJKAS_clean_linker_0, # of connection points: 2
#     Edge 16, Type (0, 0), BuildingBlock: ZUJKAS_clean_linker_0, # of connection points: 2
#     Edge 17, Type (0, 0), BuildingBlock: ZUJKAS_clean_linker_0, # of connection points: 2
#     Edge 18, Type (0, 0), BuildingBlock: ZUJKAS_clean_linker_0, # of connection points: 2
#     Edge 19, Type (0, 0), BuildingBlock: ZUJKAS_clean_linker_0, # of connection points: 2
#     Edge 20, Type (0, 0), BuildingBlock: ZUJKAS_clean_linker_0, # of connection points: 2
#     Edge 21, Type (0, 0), BuildingBlock: ZUJKAS_clean_linker_0, # of connection points: 2
#     Edge 22, Type (0, 0), BuildingBlock: ZUJKAS_clean_linker_0, # of connection points: 2
#     Edge 23, Type (0, 0), BuildingBlock: ZUJKAS_clean_linker_0, # of connection points: 2
# Relax obj value: 0.035
# Max RMSD: 0.059
# Mean RMSD: 0.059
data_MOF--net-mmt--node1-KUFVIS_clean_sbu_0--edge1-ZUJKAS_clean_linker_0
_symmetry_space_group_name_H-M    P1
_symmetry_Int_Tables_number       1
_symmetry_cell_setting            triclinic
loop_
_symmetry_equiv_pos_as_xyz
'x, y, z'
_cell_length_a     28.826235
_cell_length_b     48.320666
_cell_length_c     56.464993
_cell_angle_alpha  90.021999
_cell_angle_beta   90.010671
_cell_angle_gamma 90.002181
loop_
_atom_site_label
_atom_site_type_symbol
_atom_site_fract_x
_atom_site_fract_y
_atom_site_fract_z
_atom_type_partial_charge
Mn0 Mn 0.09909 0.57465 0.35488 0.0
Mn1 Mn 0.08411 0.61094 0.30427 0.0
C2 C 0.04941 0.55815 0.32589 0.0
C3 C 0.07917 0.56471 0.39408 0.0
C4 C 0.16725 0.57405 0.31304 0.0
O5 O 0.12599 0.61242 0.36352 0.0
O6 O 0.11321 0.63439 0.32906 0.0
C7 C 0.01353 0.65008 0.32242 0.0
N8 N 0.02697 0.63084 0.30618 0.0
C9 C 0.9556 0.63597 0.28453 0.0
C10 C 0.94109 0.65597 0.30094 0.0
C11 C 0.97013 0.66298 0.32001 0.0
C12 C 0.99918 0.6238 0.28787 0.0
H13 H 0.03577 0.65554 0.33709 0.0
C14 C 0.12819 0.63389 0.35041 0.0
O15 O 0.11978 0.55852 0.38564 0.0
O16 O 0.05098 0.57769 0.38004 0.0
N17 N 0.05619 0.59153 0.27842 0.0
C18 C 0.07465 0.57115 0.26465 0.0
C19 C 0.04989 0.56168 0.24483 0.0
C20 C 0.00671 0.57346 0.23922 0.0
C21 C 0.98848 0.59444 0.2536 0.0
C22 C 0.01496 0.60326 0.27297 0.0
H23 H 0.10806 0.56223 0.26874 0.0
O24 O 0.06653 0.54171 0.34178 0.0
O25 O 0.06087 0.58418 0.32767 0.0
O26 O 0.15564 0.56638 0.33386 0.0
O27 O 0.14304 0.59067 0.30051 0.0
C28 C 0.94486 0.60675 0.24963 0.0
C29 C 0.92833 0.6274 0.26515 0.0
H30 H 0.90762 0.66594 0.29915 0.0
H31 H 0.9591 0.67831 0.3328 0.0
H32 H 0.06411 0.54541 0.23383 0.0
H33 H 0.98774 0.56618 0.22388 0.0
H34 H 0.92352 0.60025 0.23485 0.0
H35 H 0.89449 0.63647 0.26208 0.0
Mn36 Mn 0.40864 0.93824 0.35376 0.0
Mn37 Mn 0.42229 0.89827 0.30514 0.0
C38 C 0.4581 0.95223 0.32358 0.0
C39 C 0.42904 0.9505 0.39249 0.0
C40 C 0.3397 0.93613 0.31232 0.0
O41 O 0.38068 0.90134 0.36437 0.0
O42 O 0.39401 0.87677 0.33128 0.0
C43 C 0.4933 0.86052 0.3249 0.0
N44 N 0.47948 0.87858 0.30779 0.0
C45 C 0.54904 0.87066 0.2853 0.0
C46 C 0.56401 0.85189 0.30263 0.0
C47 C 0.53613 0.84694 0.3226 0.0
C48 C 0.50645 0.88396 0.28879 0.0
H49 H 0.47172 0.85645 0.34014 0.0
C50 C 0.37887 0.87888 0.3525 0.0
O51 O 0.38864 0.95658 0.38375 0.0
O52 O 0.45693 0.9365 0.379 0.0
N53 N 0.44938 0.91564 0.27808 0.0
C54 C 0.43 0.93449 0.2631 0.0
C55 C 0.45339 0.94172 0.24219 0.0
C56 C 0.4958 0.92898 0.23662 0.0
C57 C 0.51482 0.90941 0.25219 0.0
C58 C 0.49018 0.90327 0.27287 0.0
H59 H 0.39685 0.94383 0.26701 0.0
O60 O 0.44202 0.96991 0.33878 0.0
O61 O 0.44615 0.92654 0.32689 0.0
O62 O 0.35206 0.94549 0.33252 0.0
O63 O 0.36322 0.91827 0.30072 0.0
C64 C 0.55705 0.89557 0.24791 0.0
C65 C 0.57448 0.87652 0.26461 0.0
H66 H 0.5968 0.84115 0.30078 0.0
H67 H 0.54745 0.83251 0.33607 0.0
H68 H 0.43845 0.95678 0.23024 0.0
H69 H 0.5134 0.93436 0.22032 0.0
H70 H 0.57659 0.89955 0.23189 0.0
H71 H 0.60731 0.86633 0.26127 0.0
Mn72 Mn 0.59919 0.43687 0.15719 0.0
Mn73 Mn 0.58402 0.40039 0.20769 0.0
C74 C 0.54926 0.45323 0.18613 0.0
C75 C 0.5794 0.44678 0.11795 0.0
C76 C 0.66728 0.43729 0.19902 0.0
O77 O 0.62648 0.39919 0.14861 0.0
O78 O 0.61269 0.37688 0.18282 0.0
C79 C 0.51298 0.3615 0.18961 0.0
N80 N 0.5267 0.38066 0.20585 0.0
C81 C 0.4555 0.37566 0.22765 0.0
C82 C 0.44069 0.35574 0.21124 0.0
C83 C 0.4695 0.3487 0.19209 0.0
C84 C 0.49914 0.38773 0.22423 0.0
H85 H 0.53504 0.35602 0.17488 0.0
C86 C 0.62806 0.37756 0.16155 0.0
O87 O 0.61991 0.45308 0.12646 0.0
O88 O 0.55124 0.43371 0.13195 0.0
N89 N 0.55645 0.41985 0.2336 0.0
C90 C 0.57515 0.44019 0.24734 0.0
C91 C 0.55063 0.44968 0.26723 0.0
C92 C 0.50745 0.43796 0.27293 0.0
C93 C 0.48895 0.41705 0.25857 0.0
C94 C 0.5152 0.40821 0.23913 0.0
H95 H 0.60856 0.44904 0.24318 0.0
O96 O 0.56629 0.46972 0.17026 0.0
O97 O 0.5609 0.42723 0.18434 0.0
O98 O 0.65552 0.44525 0.1783 0.0
O99 O 0.6432 0.42046 0.2114 0.0
C100 C 0.44529 0.40484 0.26262 0.0
C101 C 0.42847 0.38425 0.2471 0.0
H102 H 0.40717 0.34584 0.21308 0.0
H103 H 0.45825 0.33343 0.1793 0.0
H104 H 0.56505 0.4659 0.27821 0.0
H105 H 0.48868 0.44525 0.28833 0.0
H106 H 0.42412 0.41135 0.27746 0.0
H107 H 0.3946 0.37526 0.25023 0.0
Mn108 Mn 0.90745 0.07248 0.15537 0.0
Mn109 Mn 0.9255 0.10848 0.20592 0.0
C110 C 0.95763 0.05536 0.18389 0.0
C111 C 0.92575 0.0623 0.11594 0.0
C112 C 0.84101 0.0725 0.198 0.0
O113 O 0.88154 0.11052 0.14698 0.0
O114 O 0.8954 0.13208 0.18153 0.0
C115 C 0.99558 0.14725 0.18671 0.0
N116 N 0.98276 0.12814 0.20318 0.0
C117 C 0.0552 0.13315 0.2239 0.0
C118 C 0.06909 0.15302 0.20725 0.0
C119 C 0.0392 0.16002 0.18853 0.0
C120 C 0.01137 0.1211 0.22114 0.0
H121 H 0.97269 0.15271 0.17231 0.0
C122 C 0.87992 0.13186 0.16027 0.0
O123 O 0.88523 0.0566 0.12473 0.0
O124 O 0.95483 0.07489 0.12978 0.0
N125 N 0.95457 0.08904 0.23141 0.0
C126 C 0.93664 0.06877 0.24545 0.0
C127 C 0.96223 0.05937 0.26502 0.0
C128 C 0.00575 0.07107 0.27005 0.0
C129 C 0.02345 0.09191 0.25538 0.0
C130 C 0.99613 0.10069 0.23631 0.0
H131 H 0.90308 0.05985 0.24176 0.0
O132 O 0.93927 0.03914 0.16819 0.0
O133 O 0.94704 0.08153 0.18223 0.0
O134 O 0.8512 0.06515 0.17689 0.0
O135 O 0.86657 0.08843 0.2105 0.0
C136 C 0.06736 0.10411 0.25877 0.0
C137 C 0.08332 0.12462 0.24296 0.0
H138 H 0.10272 0.16291 0.20858 0.0
H139 H 0.04974 0.17526 0.17555 0.0
H140 H 0.94841 0.04319 0.27623 0.0
H141 H 0.02541 0.06378 0.28516 0.0
H142 H 0.08934 0.09764 0.2733 0.0
H143 H 0.11736 0.13361 0.24558 0.0
Mn144 Mn 0.90133 0.4412 0.65428 0.0
Mn145 Mn 0.92057 0.40615 0.70512 0.0
C146 C 0.95254 0.45862 0.68208 0.0
C147 C 0.91913 0.45012 0.61464 0.0
C148 C 0.83459 0.44093 0.69647 0.0
O149 O 0.87484 0.40288 0.64701 0.0
O150 O 0.8938 0.38097 0.68085 0.0
C151 C 0.99501 0.36896 0.68808 0.0
N152 N 0.97976 0.38845 0.70366 0.0
C153 C 0.05241 0.38784 0.72466 0.0
C154 C 0.06881 0.36762 0.70892 0.0
C155 C 0.04002 0.3582 0.69052 0.0
C156 C 0.00722 0.39773 0.72138 0.0
H157 H 0.973 0.36173 0.67388 0.0
C158 C 0.87634 0.38122 0.65997 0.0
O159 O 0.87882 0.45632 0.62345 0.0
O160 O 0.94814 0.43764 0.62857 0.0
N161 N 0.94653 0.42773 0.73027 0.0
C162 C 0.9261 0.44807 0.74334 0.0
C163 C 0.95058 0.46008 0.76224 0.0
C164 C 0.99557 0.45087 0.76764 0.0
C165 C 0.01565 0.42969 0.75411 0.0
C166 C 0.98943 0.41833 0.73563 0.0
H167 H 0.89147 0.45517 0.73933 0.0
O168 O 0.93433 0.47472 0.66625 0.0
O169 O 0.94098 0.43262 0.68094 0.0
O170 O 0.84587 0.44967 0.67592 0.0
O171 O 0.8595 0.42419 0.70851 0.0
C172 C 0.06095 0.41972 0.75799 0.0
C173 C 0.07936 0.39886 0.74323 0.0
H174 H 0.10356 0.35935 0.71068 0.0
H175 H 0.05251 0.3427 0.67824 0.0
H176 H 0.93484 0.47641 0.7726 0.0
H177 H 0.01441 0.46026 0.78216 0.0
H178 H 0.08215 0.42822 0.77207 0.0
H179 H 0.11445 0.39162 0.74619 0.0
Mn180 Mn 0.60105 0.07251 0.65514 0.0
Mn181 Mn 0.58391 0.10861 0.70573 0.0
C182 C 0.55021 0.05582 0.68357 0.0
C183 C 0.58273 0.06287 0.61561 0.0
C184 C 0.66772 0.072 0.69759 0.0
O185 O 0.62841 0.11035 0.647 0.0
O186 O 0.61332 0.13227 0.68125 0.0
C187 C 0.51327 0.14745 0.68719 0.0
N188 N 0.52659 0.12827 0.70349 0.0
C189 C 0.45489 0.13327 0.72487 0.0
C190 C 0.44049 0.15321 0.70839 0.0
C191 C 0.46975 0.16025 0.68942 0.0
C192 C 0.49858 0.12119 0.72169 0.0
H193 H 0.53571 0.15294 0.67262 0.0
C194 C 0.62947 0.13185 0.66014 0.0
O195 O 0.62294 0.05658 0.62447 0.0
O196 O 0.55396 0.07572 0.62944 0.0
N197 N 0.55562 0.08902 0.73135 0.0
C198 C 0.57403 0.06871 0.7452 0.0
C199 C 0.5491 0.05926 0.76497 0.0
C200 C 0.50579 0.07098 0.77042 0.0
C201 C 0.48761 0.09188 0.75595 0.0
C202 C 0.51427 0.10069 0.73666 0.0
H203 H 0.60756 0.05988 0.74125 0.0
O204 O 0.56787 0.03949 0.66775 0.0
O205 O 0.56176 0.08185 0.68203 0.0
O206 O 0.65676 0.06414 0.67672 0.0
O207 O 0.64303 0.08864 0.70985 0.0
C208 C 0.44387 0.10411 0.75976 0.0
C209 C 0.42742 0.12469 0.74416 0.0
H210 H 0.40694 0.16312 0.71004 0.0
H211 H 0.45882 0.17554 0.67659 0.0
H212 H 0.56331 0.04307 0.77604 0.0
H213 H 0.48668 0.0637 0.78571 0.0
H214 H 0.42239 0.09761 0.77448 0.0
H215 H 0.3935 0.13371 0.7471 0.0
Mn216 Mn 0.40147 0.56933 0.85733 0.0
Mn217 Mn 0.42064 0.60427 0.80642 0.0
C218 C 0.45264 0.55186 0.82954 0.0
C219 C 0.41936 0.5605 0.89698 0.0
C220 C 0.33469 0.5695 0.81514 0.0
O221 O 0.375 0.60767 0.86454 0.0
O222 O 0.39387 0.62948 0.83064 0.0
C223 C 0.49506 0.64152 0.8234 0.0
N224 N 0.47982 0.62199 0.80785 0.0
C225 C 0.55244 0.62261 0.78684 0.0
C226 C 0.56883 0.64286 0.80255 0.0
C227 C 0.54005 0.6523 0.82094 0.0
C228 C 0.50726 0.6127 0.79014 0.0
H229 H 0.47306 0.64878 0.83759 0.0
C230 C 0.37645 0.62929 0.85153 0.0
O231 O 0.37903 0.55428 0.8882 0.0
O232 O 0.44834 0.57295 0.88302 0.0
N233 N 0.4466 0.58265 0.7813 0.0
C234 C 0.42617 0.56229 0.76825 0.0
C235 C 0.45065 0.55026 0.74936 0.0
C236 C 0.49561 0.55948 0.74394 0.0
C237 C 0.51569 0.58069 0.75744 0.0
C238 C 0.48948 0.59206 0.77592 0.0
H239 H 0.39155 0.55518 0.77227 0.0
O240 O 0.43445 0.53579 0.8454 0.0
O241 O 0.44109 0.57786 0.83064 0.0
O242 O 0.34598 0.56082 0.83571 0.0
O243 O 0.35959 0.5862 0.80305 0.0
C244 C 0.56097 0.59068 0.75354 0.0
C245 C 0.57938 0.61157 0.76828 0.0
H246 H 0.60357 0.65116 0.80077 0.0
H247 H 0.55254 0.66784 0.8332 0.0
H248 H 0.4349 0.53391 0.73902 0.0
H249 H 0.51444 0.55008 0.72942 0.0
H250 H 0.58216 0.58217 0.73947 0.0
H251 H 0.61445 0.61883 0.7653 0.0
Mn252 Mn 0.10103 0.9378 0.85509 0.0
Mn253 Mn 0.0842 0.90133 0.80467 0.0
C254 C 0.05038 0.95427 0.82648 0.0
C255 C 0.0823 0.94773 0.89451 0.0
C256 C 0.16798 0.938 0.81275 0.0
O257 O 0.12833 0.90002 0.86349 0.0
O258 O 0.11345 0.87784 0.82933 0.0
C259 C 0.01344 0.86262 0.82328 0.0
N260 N 0.02685 0.8817 0.80692 0.0
C261 C 0.95522 0.8766 0.78548 0.0
C262 C 0.94073 0.85676 0.80203 0.0
C263 C 0.96991 0.84982 0.82106 0.0
C264 C 0.99893 0.88868 0.78865 0.0
H265 H 0.03581 0.8572 0.83791 0.0
C266 C 0.12946 0.87843 0.85047 0.0
O267 O 0.12261 0.95396 0.88573 0.0
O268 O 0.05371 0.93475 0.88067 0.0
N269 N 0.05605 0.92076 0.77892 0.0
C270 C 0.07452 0.94099 0.76501 0.0
C271 C 0.04965 0.95035 0.74519 0.0
C272 C 0.00635 0.93862 0.73973 0.0
C273 C 0.9881 0.9178 0.75427 0.0
C274 C 0.0147 0.90908 0.77362 0.0
H275 H 0.10803 0.94985 0.76897 0.0
O276 O 0.06795 0.97072 0.84224 0.0
O277 O 0.06192 0.92825 0.82819 0.0
O278 O 0.15691 0.94602 0.83357 0.0
O279 O 0.14334 0.92127 0.80055 0.0
C280 C 0.94436 0.90557 0.75046 0.0
C281 C 0.92783 0.88508 0.76613 0.0
H282 H 0.90717 0.84686 0.80038 0.0
H283 H 0.9589 0.83462 0.83395 0.0
H284 H 0.0639 0.96649 0.73407 0.0
H285 H 0.9873 0.94583 0.7244 0.0
H286 H 0.92293 0.912 0.73569 0.0
H287 H 0.8939 0.87607 0.76319 0.0
H288 H 0.20833 0.58895 0.27126 0.0
H289 H 0.27506 0.56761 0.25204 0.0
H290 H 0.28917 0.5107 0.31038 0.0
H291 H 0.22271 0.53226 0.3301 0.0
H292 H 0.37338 0.53191 0.29524 0.0
H293 H 0.27131 0.49274 0.21912 0.0
H294 H 0.26582 0.52939 0.22342 0.0
H295 H 0.24444 0.50599 0.24566 0.0
C296 C 0.2256 0.57196 0.28013 0.0
C297 C 0.20978 0.56221 0.3022 0.0
C298 C 0.26364 0.55968 0.26901 0.0
C299 C 0.28641 0.53717 0.27952 0.0
C300 C 0.27181 0.52792 0.30187 0.0
H301 H 0.46507 0.43035 0.19545 0.0
H302 H 0.40368 0.449 0.22077 0.0
C303 C 0.23382 0.54029 0.31312 0.0
C304 C 0.32528 0.52326 0.26707 0.0
H305 H 0.35333 0.49048 0.21554 0.0
C306 C 0.36904 0.52258 0.2779 0.0
C307 C 0.31937 0.51087 0.24458 0.0
C308 C 0.27261 0.5095 0.23259 0.0
C309 C 0.40739 0.51033 0.26667 0.0
C310 C 0.40198 0.49881 0.24369 0.0
C311 C 0.35783 0.4992 0.2331 0.0
C312 C 0.44116 0.48639 0.2301 0.0
C313 C 0.4529 0.5099 0.27985 0.0
C314 C 0.48282 0.501 0.22671 0.0
C315 C 0.51862 0.48965 0.21312 0.0
C316 C 0.51325 0.46368 0.20233 0.0
C317 C 0.47098 0.44964 0.20473 0.0
C318 C 0.43564 0.46058 0.21887 0.0
H319 H 0.4718 0.52947 0.27629 0.0
H320 H 0.44722 0.50859 0.29928 0.0
H321 H 0.47508 0.49238 0.27439 0.0
H322 H 0.4874 0.52146 0.23417 0.0
H323 H 0.55034 0.50135 0.21073 0.0
H324 H 0.95603 0.00702 0.2082 0.0
H325 H 0.01886 0.98636 0.23137 0.0
H326 H 0.1041 0.05809 0.2177 0.0
H327 H 0.04276 0.0773 0.19266 0.0
H328 H 0.1536 0.01617 0.21264 0.0
H329 H 0.03465 0.97835 0.27348 0.0
H330 H 0.03159 0.01543 0.27145 0.0
H331 H 0.05914 0.99932 0.29646 0.0
C332 C 0.98809 0.01843 0.21045 0.0
C333 C 0.99388 0.0444 0.19971 0.0
C334 C 0.02384 0.00676 0.22389 0.0
C335 C 0.06586 0.02104 0.22717 0.0
C336 C 0.07187 0.04676 0.21589 0.0
H337 H 0.28392 0.97851 0.32797 0.0
H338 H 0.21734 0.999 0.30757 0.0
C339 C 0.03656 0.05803 0.20192 0.0
C340 C 0.10481 0.00847 0.24085 0.0
H341 H 0.13314 0.97638 0.29289 0.0
C342 C 0.149 0.00778 0.2303 0.0
C343 C 0.09924 0.99732 0.26394 0.0
C344 C 0.05364 0.9979 0.27702 0.0
C345 C 0.18739 0.99633 0.24201 0.0
C346 C 0.1814 0.9845 0.2647 0.0
C347 C 0.13755 0.98533 0.27542 0.0
C348 C 0.22033 0.97121 0.27757 0.0
C349 C 0.23421 0.99737 0.23006 0.0
C350 C 0.24331 0.94834 0.26776 0.0
C351 C 0.28141 0.93663 0.27929 0.0
C352 C 0.29713 0.94739 0.30105 0.0
C353 C 0.27292 0.96971 0.31125 0.0
C354 C 0.23485 0.98148 0.29961 0.0
H355 H 0.23545 0.01354 0.21609 0.0
H356 H 0.26223 1.00154 0.24309 0.0
H357 H 0.2413 0.97711 0.22154 0.0
H358 H 0.232 0.93967 0.25103 0.0
H359 H 0.29884 0.91933 0.27096 0.0
H360 H 0.70839 0.42215 0.24074 0.0
H361 H 0.77523 0.44335 0.26001 0.0
H362 H 0.78931 0.50055 0.20188 0.0
H363 H 0.72277 0.47914 0.18212 0.0
H364 H 0.87353 0.47916 0.21691 0.0
H365 H 0.77163 0.51812 0.29316 0.0
H366 H 0.76611 0.48148 0.28874 0.0
H367 H 0.7447 0.505 0.26659 0.0
C368 C 0.72569 0.43917 0.23193 0.0
C369 C 0.70984 0.44905 0.20991 0.0
C370 C 0.76378 0.45137 0.24308 0.0
C371 C 0.78658 0.47391 0.23264 0.0
C372 C 0.77194 0.4833 0.21033 0.0
H373 H 0.96518 0.58093 0.31651 0.0
H374 H 0.90379 0.56212 0.29125 0.0
C375 C 0.7339 0.47101 0.19906 0.0
C376 C 0.82549 0.48775 0.24511 0.0
H377 H 0.85362 0.52051 0.29665 0.0
C378 C 0.86922 0.48846 0.23426 0.0
C379 C 0.81962 0.50011 0.26762 0.0
C380 C 0.77289 0.50143 0.27964 0.0
C381 C 0.90758 0.50074 0.24548 0.0
C382 C 0.9022 0.51225 0.26846 0.0
C383 C 0.85809 0.51181 0.27909 0.0
C384 C 0.94136 0.52475 0.28201 0.0
C385 C 0.95306 0.50121 0.23229 0.0
C386 C 0.98307 0.51019 0.28542 0.0
C387 C 0.01886 0.52162 0.29898 0.0
C388 C 0.01342 0.54762 0.30971 0.0
C389 C 0.97112 0.56161 0.30728 0.0
C390 C 0.93579 0.55058 0.29318 0.0
H391 H 0.94735 0.50245 0.21285 0.0
H392 H 0.97516 0.5188 0.2377 0.0
H393 H 0.97208 0.48169 0.23589 0.0
H394 H 0.9877 0.48972 0.278 0.0
H395 H 0.05061 0.50995 0.3014 0.0
H396 H 0.7682 0.04596 0.17632 0.0
H397 H 0.69889 0.0266 0.19506 0.0
H398 H 0.74867 0.05322 0.26342 0.0
H399 H 0.81691 0.07346 0.24485 0.0
H400 H 0.69192 0.98623 0.2261 0.0
H401 H 0.61811 0.08061 0.2666 0.0
H402 H 0.66446 0.08189 0.24517 0.0
H403 H 0.6768 0.07491 0.27588 0.0
C404 C 0.76417 0.04796 0.19532 0.0
C405 C 0.79813 0.06139 0.20903 0.0
C406 C 0.7245 0.03687 0.20601 0.0
C407 C 0.71806 0.03887 0.23063 0.0
C408 C 0.75204 0.05212 0.24434 0.0
H409 H 0.54497 0.93158 0.31725 0.0
H410 H 0.60719 0.95156 0.29317 0.0
C411 C 0.79136 0.06351 0.23366 0.0
C412 C 0.67727 0.0257 0.24212 0.0
H413 H 0.58865 0.03744 0.28096 0.0
C414 C 0.66908 0.9975 0.23794 0.0
C415 C 0.647 0.04044 0.25731 0.0
C416 C 0.65172 0.07119 0.26131 0.0
C417 C 0.6321 0.98352 0.24881 0.0
C418 C 0.60313 0.99786 0.26494 0.0
C419 C 0.6109 0.02624 0.26879 0.0
C420 C 0.56459 0.98405 0.27805 0.0
C421 C 0.62346 0.95384 0.24214 0.0
C422 C 0.51998 0.99582 0.27809 0.0
C423 C 0.48482 0.98476 0.29228 0.0
C424 C 0.49316 0.96128 0.30625 0.0
C425 C 0.53735 0.94913 0.30597 0.0
C426 C 0.57285 0.96051 0.29211 0.0
H427 H 0.64005 0.94835 0.22501 0.0
H428 H 0.63789 0.93998 0.25595 0.0
H429 H 0.58577 0.95012 0.24063 0.0
H430 H 0.51263 0.01403 0.26755 0.0
H431 H 0.45117 0.99475 0.29259 0.0
H432 H 0.45128 0.50605 0.80179 0.0
H433 H 0.51536 0.48718 0.77811 0.0
H434 H 0.60284 0.55476 0.8006 0.0
H435 H 0.53932 0.57292 0.82493 0.0
H436 H 0.56291 0.50861 0.74126 0.0
H437 H 0.6828 0.48926 0.81616 0.0
H438 H 0.62257 0.49795 0.82053 0.0
H439 H 0.66443 0.52465 0.8144 0.0
C440 C 0.48428 0.51678 0.80156 0.0
C441 C 0.49023 0.54135 0.81444 0.0
C442 C 0.52075 0.50608 0.78805 0.0
C443 C 0.56402 0.51945 0.78768 0.0
C444 C 0.57006 0.54383 0.80088 0.0
H445 H 0.78475 0.48741 0.68488 0.0
H446 H 0.7178 0.5066 0.7059 0.0
C447 C 0.53363 0.55445 0.81445 0.0
C448 C 0.60275 0.5078 0.77351 0.0
H449 H 0.71429 0.48461 0.77753 0.0
C450 C 0.59602 0.50334 0.74917 0.0
C451 C 0.64568 0.50048 0.78393 0.0
C452 C 0.65424 0.50305 0.81022 0.0
C453 C 0.63114 0.49195 0.73492 0.0
C454 C 0.67455 0.48542 0.74523 0.0
C455 C 0.68114 0.4898 0.76959 0.0
C456 C 0.71336 0.47323 0.7314 0.0
C457 C 0.62092 0.48638 0.70915 0.0
C458 C 0.73359 0.44831 0.73888 0.0
C459 C 0.77224 0.43756 0.72717 0.0
C460 C 0.79145 0.45142 0.70759 0.0
C461 C 0.77052 0.47607 0.69974 0.0
C462 C 0.73208 0.48701 0.71168 0.0
H463 H 0.58302 0.48504 0.70575 0.0
H464 H 0.63489 0.50361 0.6983 0.0
H465 H 0.63744 0.46684 0.70316 0.0
H466 H 0.71979 0.4373 0.75404 0.0
H467 H 0.78734 0.41849 0.73366 0.0
H468 H 0.72426 0.03032 0.68121 0.0
H469 H 0.79079 0.00948 0.70147 0.0
H470 H 0.77428 0.06697 0.75926 0.0
H471 H 0.70752 0.08757 0.73952 0.0
H472 H 0.87425 0.0317 0.71689 0.0
H473 H 0.77173 0.99246 0.79278 0.0
H474 H 0.74504 1.00515 0.76599 0.0
H475 H 0.7654 0.02901 0.78815 0.0
C476 C 0.73485 0.03862 0.69819 0.0
C477 C 0.71015 0.06048 0.7088 0.0
C478 C 0.77288 0.02666 0.70974 0.0
C479 C 0.78685 0.0363 0.73209 0.0
C480 C 0.76337 0.05874 0.74231 0.0
H481 H 0.051 1.00246 0.80195 0.0
H482 H 0.98791 0.02238 0.77849 0.0
C483 C 0.72531 0.0706 0.73088 0.0
C484 C 0.82582 0.02289 0.74486 0.0
H485 H 0.8537 0.99095 0.79678 0.0
C486 C 0.86981 0.02251 0.73427 0.0
C487 C 0.81981 0.01072 0.76741 0.0
C488 C 0.77286 0.00907 0.77918 0.0
C489 C 0.90826 0.01073 0.74579 0.0
C490 C 0.90269 0.99938 0.76881 0.0
C491 C 0.85834 0.99952 0.77918 0.0
C492 C 0.94185 0.98723 0.78263 0.0
C493 C 0.95401 0.01063 0.73283 0.0
C494 C 0.93642 0.96151 0.794 0.0
C495 C 0.97182 0.95071 0.80817 0.0
C496 C 0.01408 0.96477 0.81046 0.0
C497 C 0.0193 0.99072 0.79963 0.0
C498 C 0.98341 1.00196 0.78602 0.0
H499 H 0.97231 0.03042 0.73637 0.0
H500 H 0.97659 0.99338 0.7385 0.0
H501 H 0.94873 0.00909 0.71338 0.0
H502 H 0.90454 0.94985 0.79212 0.0
H503 H 0.96601 0.93145 0.81752 0.0
H504 H 0.28734 0.59193 0.77797 0.0
H505 H 0.21979 0.57308 0.7576 0.0
H506 H 0.21797 0.50377 0.80571 0.0
H507 H 0.28492 0.52298 0.82673 0.0
H508 H 0.2143 0.5258 0.73408 0.0
H509 H 0.08316 0.52524 0.8059 0.0
H510 H 0.13756 0.54347 0.80849 0.0
H511 H 0.13507 0.50669 0.81332 0.0
C512 C 0.27228 0.57284 0.78445 0.0
C513 C 0.29154 0.55899 0.80403 0.0
C514 C 0.23363 0.56208 0.77275 0.0
C515 C 0.21344 0.53714 0.78023 0.0
C516 C 0.23221 0.52337 0.79994 0.0
H517 H 0.03924 0.43755 0.68663 0.0
H518 H 0.10281 0.45567 0.71095 0.0
C519 C 0.27065 0.53432 0.81187 0.0
C520 C 0.17462 0.52494 0.7664 0.0
H521 H 0.063 0.50171 0.77038 0.0
C522 C 0.18117 0.52059 0.74203 0.0
C523 C 0.13123 0.51838 0.77671 0.0
C524 C 0.12106 0.52392 0.80249 0.0
C525 C 0.14568 0.50992 0.72769 0.0
C526 C 0.10278 0.50258 0.73811 0.0
C527 C 0.09609 0.50701 0.76246 0.0
C528 C 0.06402 0.49095 0.72394 0.0
C529 C 0.15419 0.50739 0.70139 0.0
C530 C 0.02074 0.50432 0.72361 0.0
C531 C 0.98424 0.49364 0.7101 0.0
C532 C 0.99016 0.4691 0.69718 0.0
C533 C 0.03357 0.45601 0.69713 0.0
C534 C 0.07003 0.4666 0.7107 0.0
H535 H 0.18274 0.5212 0.69546 0.0
H536 H 0.16438 0.4858 0.69719 0.0
H537 H 0.12251 0.51251 0.6911 0.0
H538 H 0.01537 0.5232 0.73358 0.0
H539 H 0.95124 0.50437 0.7099 0.0
H540 H 0.22474 0.97963 0.82907 0.0
H541 H 0.29127 1.00037 0.80875 0.0
H542 H 0.27438 0.94283 0.75102 0.0
H543 H 0.20765 0.92231 0.77084 0.0
H544 H 0.37472 0.9779 0.79315 0.0
H545 H 0.27165 0.01746 0.71755 0.0
H546 H 0.24516 1.00484 0.74441 0.0
H547 H 0.26515 0.98092 0.72222 0.0
C548 C 0.23525 0.9713 0.8121 0.0
C549 C 0.21045 0.94944 0.80153 0.0
C550 C 0.27329 0.98319 0.80051 0.0
C551 C 0.28714 0.97351 0.77815 0.0
C552 C 0.26356 0.95108 0.76798 0.0
H553 H 0.55091 0.00745 0.70785 0.0
H554 H 0.48795 0.98739 0.7313 0.0
C555 C 0.22551 0.93927 0.77945 0.0
C556 C 0.32606 0.98689 0.76533 0.0
H557 H 0.35356 0.01893 0.71341 0.0
C558 C 0.37015 0.98715 0.7758 0.0
C559 C 0.31988 0.99913 0.74281 0.0
C560 C 0.27282 1.00086 0.73116 0.0
C561 C 0.40855 0.9989 0.76421 0.0
C562 C 0.4028 0.01035 0.74123 0.0
C563 C 0.35834 0.0103 0.73097 0.0
C564 C 0.44185 0.02254 0.72736 0.0
C565 C 0.45444 0.99884 0.77705 0.0
C566 C 0.43634 0.04831 0.71609 0.0
C567 C 0.47166 0.05921 0.70191 0.0
C568 C 0.51393 0.04518 0.69953 0.0
C569 C 0.51921 0.01916 0.71024 0.0
C570 C 0.48339 0.00784 0.72385 0.0
H571 H 0.47257 0.97903 0.77341 0.0
H572 H 0.47707 0.01606 0.77138 0.0
H573 H 0.44938 1.00032 0.79652 0.0
H574 H 0.40448 0.05997 0.71806 0.0
H575 H 0.4658 0.07852 0.69266 0.0
H576 H 0.12821 0.5339 0.42617 0.0
H577 H 0.09995 0.51431 0.46349 0.0
H578 H 0.96791 0.55439 0.453 0.0
H579 H 0.99562 0.57377 0.41558 0.0
H580 H 0.06465 0.53966 0.5045 0.0
H581 H 0.93201 0.47293 0.46174 0.0
H582 H 0.97792 0.48949 0.44525 0.0
H583 H 0.9278 0.50896 0.45426 0.0
C584 C 0.09328 0.53872 0.43189 0.0
C585 C 0.06406 0.55525 0.41782 0.0
C586 C 0.07716 0.52747 0.4532 0.0
C587 C 0.03151 0.53241 0.46076 0.0
C588 C 0.00289 0.54977 0.44722 0.0
H589 H 0.86894 0.48063 0.58275 0.0
H590 H 0.89618 0.50011 0.54517 0.0
C591 C 0.01894 0.56102 0.42592 0.0
C592 C 0.01376 0.51926 0.48274 0.0
H593 H 0.9311 0.47484 0.5037 0.0
C594 C 0.03558 0.5254 0.50433 0.0
C595 C 0.97578 0.50068 0.48247 0.0
C596 C 0.9522 0.49237 0.45968 0.0
C597 C 0.01996 0.51383 0.52571 0.0
C598 C 0.98203 0.49522 0.52544 0.0
C599 C 0.96015 0.48911 0.50386 0.0
C600 C 0.96462 0.48191 0.54741 0.0
C601 C 0.04359 0.52212 0.5485 0.0
C602 C 0.99352 0.46449 0.56073 0.0
C603 C 0.97807 0.45332 0.58216 0.0
C604 C 0.93325 0.45922 0.59063 0.0
C605 C 0.90365 0.47571 0.57674 0.0
C606 C 0.91919 0.4869 0.55529 0.0
H607 H 0.06368 0.5416 0.54646 0.0
H608 H 0.0179 0.52493 0.56295 0.0
H609 H 0.06807 0.50555 0.55387 0.0
H610 H 0.02834 0.45985 0.55472 0.0
H611 H 1.00168 0.44058 0.59235 0.0
H612 H 0.37952 0.98203 0.42389 0.0
H613 H 0.40652 1.00161 0.46148 0.0
H614 H 0.53884 0.96147 0.45217 0.0
H615 H 0.51238 0.94208 0.41448 0.0
H616 H 0.4395 0.97563 0.50259 0.0
H617 H 0.575 0.04256 0.46262 0.0
H618 H 0.52989 0.02642 0.44526 0.0
H619 H 0.57936 0.00665 0.45473 0.0
C620 C 0.41431 0.97726 0.42989 0.0
C621 C 0.44389 0.96061 0.41611 0.0
C622 C 0.42969 0.9885 0.45136 0.0
C623 C 0.475 0.98345 0.45941 0.0
C624 C 0.50411 0.96616 0.44605 0.0
H625 H 0.63319 0.03249 0.58374 0.0
H626 H 0.60682 0.01372 0.54573 0.0
C627 C 0.48878 0.95492 0.42459 0.0
C628 C 0.49172 0.99619 0.48182 0.0
H629 H 0.5739 0.03976 0.50456 0.0
C630 C 0.46874 0.98975 0.50302 0.0
C631 C 0.52994 0.01459 0.48235 0.0
C632 C 0.55479 0.02321 0.46002 0.0
C633 C 0.48345 1.0008 0.5248 0.0
C634 C 0.52165 0.01922 0.52533 0.0
C635 C 0.54464 0.02565 0.50412 0.0
C636 C 0.53834 0.0319 0.54776 0.0
C637 C 0.45862 0.99213 0.54712 0.0
C638 C 0.5091 0.04902 0.5612 0.0
C639 C 0.52407 0.05979 0.58291 0.0
C640 C 0.56873 0.05379 0.59154 0.0
C641 C 0.59858 0.03749 0.57762 0.0
C642 C 0.58354 0.02671 0.5559 0.0
H643 H 0.43846 0.97276 0.5445 0.0
H644 H 0.48353 0.98892 0.56187 0.0
H645 H 0.43401 0.00866 0.55243 0.0
H646 H 0.47446 0.05383 0.55502 0.0
H647 H 0.50027 0.07238 0.59312 0.0
H648 H 0.6284 0.47767 0.0859 0.0
H649 H 0.6002 0.49712 0.04851 0.0
H650 H 0.46837 0.45675 0.05885 0.0
H651 H 0.49601 0.4375 0.09634 0.0
H652 H 0.56525 0.47157 0.00746 0.0
H653 H 0.43201 0.53811 0.04991 0.0
H654 H 0.47794 0.52171 0.06649 0.0
H655 H 0.42799 0.50209 0.05746 0.0
C656 C 0.59352 0.47275 0.08013 0.0
C657 C 0.56435 0.45617 0.09418 0.0
C658 C 0.57744 0.48392 0.05878 0.0
C659 C 0.53186 0.47886 0.05114 0.0
C660 C 0.50329 0.46145 0.06467 0.0
H661 H 0.36929 0.53 0.92892 0.0
H662 H 0.39659 0.51067 0.96656 0.0
C663 C 0.5193 0.45029 0.08601 0.0
C664 C 0.51415 0.49191 0.02911 0.0
H665 H 0.43127 0.53607 0.00795 0.0
C666 C 0.53609 0.48576 0.00757 0.0
C667 C 0.47604 0.51041 0.0293 0.0
C668 C 0.45231 0.51872 0.05203 0.0
C669 C 0.52047 0.49722 0.98613 0.0
C670 C 0.48241 0.51575 0.98632 0.0
C671 C 0.46041 0.52187 0.00786 0.0
C672 C 0.46498 0.52894 0.96429 0.0
C673 C 0.54423 0.48891 0.9634 0.0
C674 C 0.49382 0.54635 0.95093 0.0
C675 C 0.47833 0.55744 0.92947 0.0
C676 C 0.43353 0.55147 0.92101 0.0
C677 C 0.40398 0.53498 0.93492 0.0
C678 C 0.41956 0.52387 0.95641 0.0
H679 H 0.56441 0.46948 0.96551 0.0
H680 H 0.51862 0.48601 0.94891 0.0
H681 H 0.56866 0.5055 0.95802 0.0
H682 H 0.52862 0.55106 0.95694 0.0
H683 H 0.5019 0.57017 0.91925 0.0
H684 H 0.13241 0.97826 0.92642 0.0
H685 H 0.10576 0.99704 0.96436 0.0
H686 H 0.97271 0.958 0.95425 0.0
H687 H 0.9992 0.93889 0.91652 0.0
H688 H 0.03111 0.03284 0.97117 0.0
H689 H 0.00539 0.93576 0.02192 0.0
H690 H 0.0386 0.93702 0.99483 0.0
H691 H 0.97627 0.9363 0.99381 0.0
C692 C 0.09773 0.97331 0.93244 0.0
C693 C 0.068 0.95698 0.91847 0.0
C694 C 0.08249 0.98415 0.95409 0.0
C695 C 0.0374 0.9787 0.96229 0.0
C696 C 0.00793 0.96205 0.94854 0.0
H697 H 0.87492 0.03197 0.08417 0.0
H698 H 0.90098 0.01305 0.04615 0.0
C699 C 0.02311 0.95122 0.92691 0.0
C700 C 0.02034 0.99162 0.98454 0.0
H701 H 0.97547 0.97693 0.03912 0.0
C702 C 0.0192 0.02063 0.98609 0.0
C703 C 0.00453 0.97567 1.00394 0.0
C704 C 0.00657 0.94446 1.00372 0.0
C705 C 1.00204 0.03411 0.00634 0.0
C706 C 0.98629 0.01815 0.02574 0.0
C707 C 0.98736 0.98915 0.02419 0.0
C708 C 0.96958 0.03109 0.04806 0.0
C709 C 1.00001 0.06531 0.00657 0.0
C710 C 0.9994 0.0476 0.06173 0.0
C711 C 0.98458 0.05848 0.08341 0.0
C712 C 0.93969 0.05294 0.09195 0.0
C713 C 0.90962 0.03675 0.07806 0.0
C714 C 0.92451 0.02584 0.05637 0.0
H715 H 1.00108 0.07402 0.98837 0.0
H716 H 0.96805 0.07275 0.01551 0.0
H717 H 0.03039 0.07346 0.01642 0.0
H718 H 0.03461 0.0515 0.05593 0.0
H719 H 0.00875 0.0707 0.09373 0.0
H720 H 0.13954 0.68282 0.32708 0.0
H721 H 0.17982 0.72403 0.34035 0.0
H722 H 0.20629 0.68579 0.40801 0.0
H723 H 0.16667 0.6436 0.39455 0.0
H724 H 0.1648 0.75974 0.37675 0.0
H725 H 0.33599 0.70758 0.38702 0.0
H726 H 0.2876 0.69087 0.37269 0.0
H727 H 0.28866 0.69433 0.40435 0.0
C728 C 0.15374 0.68295 0.34484 0.0
C729 C 0.1502 0.65959 0.35963 0.0
C730 C 0.17667 0.70673 0.35245 0.0
C731 C 0.19664 0.70798 0.37507 0.0
C732 C 0.19193 0.68514 0.3903 0.0
H733 H 0.32375 0.87452 0.39248 0.0
H734 H 0.2806 0.83343 0.40574 0.0
C735 C 0.16905 0.66108 0.38262 0.0
C736 C 0.2237 0.73304 0.3817 0.0
H737 H 0.33494 0.75586 0.38895 0.0
C738 C 0.20189 0.75896 0.37992 0.0
C739 C 0.27208 0.73193 0.38587 0.0
C740 C 0.29774 0.70476 0.38748 0.0
C741 C 0.22751 0.7837 0.38029 0.0
C742 C 0.27627 0.78252 0.38312 0.0
C743 C 0.29757 0.75671 0.38682 0.0
C744 C 0.30634 0.80677 0.37784 0.0
C745 C 0.20259 0.81065 0.37571 0.0
C746 C 0.33676 0.80512 0.35853 0.0
C747 C 0.3616 0.82827 0.35113 0.0
C748 C 0.35668 0.85385 0.36279 0.0
C749 C 0.3281 0.85521 0.38299 0.0
C750 C 0.30316 0.8318 0.39048 0.0
H751 H 0.16585 0.80743 0.37043 0.0
H752 H 0.20297 0.8234 0.39205 0.0
H753 H 0.22029 0.82252 0.3615 0.0
H754 H 0.34 0.78608 0.34851 0.0
H755 H 0.38374 0.8262 0.33572 0.0
H756 H 0.82908 0.13983 0.11937 0.0
H757 H 0.78821 0.1821 0.10718 0.0
H758 H 0.83913 0.22406 0.16939 0.0
H759 H 0.88043 0.18263 0.18135 0.0
H760 H 0.71928 0.20806 0.13047 0.0
H761 H 0.86334 0.28178 0.11978 0.0
H762 H 0.87263 0.24484 0.12108 0.0
H763 H 0.8679 0.26489 0.14792 0.0
C764 C 0.83223 0.15823 0.1302 0.0
C765 C 0.85804 0.15772 0.15138 0.0
C766 C 0.80881 0.18236 0.12322 0.0
C767 C 0.81126 0.20646 0.13713 0.0
C768 C 0.83769 0.20605 0.15798 0.0
H769 H 0.62635 0.32622 0.18152 0.0
H770 H 0.66777 0.28503 0.16909 0.0
C771 C 0.86095 0.18211 0.16495 0.0
C772 C 0.78301 0.23136 0.13148 0.0
H773 H 0.78895 0.30193 0.13157 0.0
C774 C 0.73461 0.22856 0.1301 0.0
C775 C 0.8028 0.25815 0.13037 0.0
C776 C 0.85458 0.26255 0.12959 0.0
C777 C 0.70546 0.25186 0.12986 0.0
C778 C 0.7252 0.27863 0.13159 0.0
C779 C 0.77364 0.28145 0.13072 0.0
C780 C 0.69676 0.30339 0.13742 0.0
C781 C 0.65372 0.24749 0.12851 0.0
C782 C 0.69975 0.32784 0.12401 0.0
C783 C 0.67625 0.35184 0.13127 0.0
C784 C 0.64984 0.35186 0.15225 0.0
C785 C 0.64633 0.32713 0.16529 0.0
C786 C 0.66966 0.30332 0.15805 0.0
H787 H 0.64532 0.2285 0.11827 0.0
H788 H 0.63976 0.2447 0.14667 0.0
H789 H 0.63596 0.26539 0.12016 0.0
H790 H 0.72087 0.32847 0.10815 0.0
H791 H 0.67986 0.37052 0.12084 0.0
H792 H 0.67847 0.14036 0.61863 0.0
H793 H 0.71987 0.18258 0.6067 0.0
H794 H 0.67297 0.22346 0.67024 0.0
H795 H 0.63096 0.1822 0.68189 0.0
H796 H 0.66815 0.25737 0.63181 0.0
H797 H 0.8414 0.20667 0.63709 0.0
H798 H 0.8002 0.19192 0.6168 0.0
H799 H 0.78957 0.19022 0.6481 0.0
C800 C 0.67663 0.15845 0.62991 0.0
C801 C 0.65176 0.15766 0.65138 0.0
C802 C 0.70057 0.18251 0.62314 0.0
C803 C 0.70018 0.20607 0.63777 0.0
C804 C 0.67393 0.20557 0.65866 0.0
H805 H 0.87592 0.33098 0.68204 0.0
H806 H 0.83491 0.28927 0.67046 0.0
C807 C 0.65003 0.18177 0.66536 0.0
C808 C 0.72837 0.2311 0.63245 0.0
H809 H 0.84005 0.25474 0.6325 0.0
C810 C 0.70577 0.25683 0.63148 0.0
C811 C 0.77746 0.2303 0.63211 0.0
C812 C 0.80382 0.20338 0.63372 0.0
C813 C 0.73074 0.28181 0.63182 0.0
C814 C 0.77982 0.28103 0.63256 0.0
C815 C 0.80245 0.25529 0.63189 0.0
C816 C 0.80783 0.30617 0.63779 0.0
C817 C 0.70426 0.30872 0.63315 0.0
C818 C 0.80728 0.32956 0.62299 0.0
C819 C 0.83057 0.35385 0.62972 0.0
C820 C 0.85506 0.35505 0.65129 0.0
C821 C 0.85716 0.33108 0.66542 0.0
C822 C 0.83383 0.30703 0.65876 0.0
H823 H 0.66668 0.30542 0.63648 0.0
H824 H 0.71835 0.3221 0.64743 0.0
H825 H 0.70789 0.31996 0.61612 0.0
H826 H 0.78823 0.32921 0.60647 0.0
H827 H 0.82849 0.3718 0.6183 0.0
H828 H 0.3292 0.63894 0.89334 0.0
H829 H 0.28899 0.68157 0.90512 0.0
H830 H 0.33443 0.72109 0.8407 0.0
H831 H 0.3754 0.67936 0.82919 0.0
H832 H 0.34019 0.75589 0.87841 0.0
H833 H 0.16684 0.70506 0.8756 0.0
H834 H 0.20849 0.69075 0.89586 0.0
H835 H 0.21832 0.68831 0.86451 0.0
C836 C 0.33101 0.65681 0.88182 0.0
C837 C 0.35516 0.65549 0.86016 0.0
C838 C 0.30775 0.68112 0.88851 0.0
C839 C 0.30797 0.70441 0.87359 0.0
C840 C 0.33361 0.70342 0.85251 0.0
H841 H 0.13044 0.8278 0.82921 0.0
H842 H 0.1725 0.78664 0.8411 0.0
C843 C 0.35692 0.67936 0.84589 0.0
C844 C 0.28 0.72956 0.87881 0.0
H845 H 0.16831 0.75316 0.87986 0.0
C846 C 0.3026 0.75533 0.87919 0.0
C847 C 0.23094 0.72876 0.87977 0.0
C848 C 0.20449 0.70182 0.87877 0.0
C849 C 0.27756 0.78029 0.87888 0.0
C850 C 0.22847 0.77946 0.87874 0.0
C851 C 0.20593 0.75373 0.88002 0.0
C852 C 0.20017 0.80441 0.87332 0.0
C853 C 0.30386 0.80721 0.87694 0.0
C854 C 0.20077 0.82814 0.88774 0.0
C855 C 0.1768 0.85213 0.88083 0.0
C856 C 0.15169 0.85269 0.85942 0.0
C857 C 0.14971 0.8284 0.84567 0.0
C858 C 0.17363 0.80467 0.85251 0.0
H859 H 0.34139 0.8039 0.87346 0.0
H860 H 0.28936 0.82019 0.8625 0.0
H861 H 0.30048 0.81887 0.89377 0.0
H862 H 0.22029 0.82827 0.90412 0.0
H863 H 0.17884 0.87037 0.89194 0.0
loop_
_geom_bond_atom_site_label_1
_geom_bond_atom_site_label_2
_geom_bond_distance
_geom_bond_site_symmetry_2
_ccdc_geom_bond_type
Mn0 O5 2.095 . S
Mn0 O15 2.162 . S
Mn0 O16 2.297 . S
Mn0 O24 2.385 . S
Mn0 O25 2.209 . S
Mn0 O26 2.094 . S
Mn1 O6 2.121 . S
Mn1 N8 2.257 . S
Mn1 N17 2.282 . S
Mn1 O25 2.215 . S
Mn1 O27 2.117 . S
C2 O24 1.234 . S
C2 O25 1.283 . S
C3 O15 1.281 . S
C3 O16 1.236 . S
C4 O26 1.240 . S
C4 O27 1.264 . S
O5 Mn0 2.095 . S
O5 C14 1.250 . S
O6 Mn1 2.121 . S
O6 C14 1.258 . S
C7 N8 1.326 . S
C7 C11 1.460 . S
C7 H13 0.929 . S
N8 Mn1 2.257 . S
N8 C7 1.326 . S
N8 C12 1.362 . S
C9 C10 1.258 . S
C9 C12 1.431 . S
C9 C29 1.449 . S
C10 C9 1.258 . S
C10 C11 1.477 . S
C10 H30 0.931 . S
C11 C7 1.460 . S
C11 C10 1.477 . S
C11 H31 0.930 . S
C12 N8 1.362 . S
C12 C9 1.431 . S
C12 C22 1.476 . S
H13 C7 0.929 . S
C14 O5 1.250 . S
C14 O6 1.258 . S
O15 Mn0 2.162 . S
O15 C3 1.281 . S
O16 Mn0 2.297 . S
O16 C3 1.236 . S
N17 Mn1 2.282 . S
N17 C18 1.328 . S
N17 C22 1.318 . S
C18 N17 1.328 . S
C18 C19 1.457 . S
C18 H23 0.929 . S
C19 C18 1.457 . S
C19 C20 1.291 . S
C19 H32 0.931 . S
C20 C19 1.291 . S
C20 C21 1.373 . S
C20 H33 0.929 . S
C21 C20 1.373 . S
C21 C22 1.396 . S
C21 C28 1.403 . S
C22 C12 1.476 . S
C22 N17 1.318 . S
C22 C21 1.396 . S
H23 C18 0.929 . S
O24 Mn0 2.385 . S
O24 C2 1.234 . S
O25 Mn0 2.209 . S
O25 Mn1 2.215 . S
O25 C2 1.283 . S
O26 Mn0 2.094 . S
O26 C4 1.240 . S
O27 Mn1 2.117 . S
O27 C4 1.264 . S
C28 C21 1.403 . S
C28 C29 1.399 . S
C28 H34 0.929 . S
C29 C9 1.449 . S
C29 C28 1.399 . S
C29 H35 0.930 1_455 S
H30 C10 0.931 . S
H31 C11 0.930 . S
H32 C19 0.931 . S
H33 C20 0.929 . S
H34 C28 0.929 . S
H35 C29 0.930 1_655 S
Mn36 O41 2.095 . S
Mn36 O51 2.162 . S
Mn36 O52 2.297 . S
Mn36 O60 2.385 . S
Mn36 O61 2.209 . S
Mn36 O62 2.094 . S
Mn37 O42 2.121 . S
Mn37 N44 2.257 . S
Mn37 N53 2.282 . S
Mn37 O61 2.215 . S
Mn37 O63 2.117 . S
C38 O60 1.234 . S
C38 O61 1.283 . S
C39 O51 1.281 . S
C39 O52 1.236 . S
C40 O62 1.240 . S
C40 O63 1.264 . S
O41 Mn36 2.095 . S
O41 C50 1.250 . S
O42 Mn37 2.121 . S
O42 C50 1.258 . S
C43 N44 1.326 . S
C43 C47 1.460 . S
C43 H49 0.929 . S
N44 Mn37 2.257 . S
N44 C43 1.326 . S
N44 C48 1.362 . S
C45 C46 1.258 . S
C45 C48 1.431 . S
C45 C65 1.449 . S
C46 C45 1.258 . S
C46 C47 1.477 . S
C46 H66 0.931 . S
C47 C43 1.460 . S
C47 C46 1.477 . S
C47 H67 0.930 . S
C48 N44 1.362 . S
C48 C45 1.431 . S
C48 C58 1.476 . S
H49 C43 0.929 . S
C50 O41 1.250 . S
C50 O42 1.258 . S
O51 Mn36 2.162 . S
O51 C39 1.281 . S
O52 Mn36 2.297 . S
O52 C39 1.236 . S
N53 Mn37 2.282 . S
N53 C54 1.328 . S
N53 C58 1.318 . S
C54 N53 1.328 . S
C54 C55 1.457 . S
C54 H59 0.929 . S
C55 C54 1.457 . S
C55 C56 1.291 . S
C55 H68 0.929 1_565 S
C56 C55 1.291 . S
C56 C57 1.373 . S
C56 H69 0.929 . S
C57 C56 1.373 . S
C57 C58 1.396 . S
C57 C64 1.403 . S
C58 C48 1.476 . S
C58 N53 1.318 . S
C58 C57 1.396 . S
H59 C54 0.929 . S
O60 Mn36 2.385 . S
O60 C38 1.234 . S
O61 Mn36 2.209 . S
O61 Mn37 2.215 . S
O61 C38 1.283 . S
O62 Mn36 2.094 . S
O62 C40 1.240 . S
O63 Mn37 2.117 . S
O63 C40 1.264 . S
C64 C57 1.403 . S
C64 C65 1.399 . S
C64 H70 0.929 . S
C65 C45 1.449 . S
C65 C64 1.399 . S
C65 H71 0.930 . S
H66 C46 0.931 . S
H67 C47 0.930 . S
H68 C55 0.929 1_545 S
H69 C56 0.929 . S
H70 C64 0.929 . S
H71 C65 0.930 . S
Mn72 O77 2.095 . S
Mn72 O87 2.162 . S
Mn72 O88 2.297 . S
Mn72 O96 2.385 . S
Mn72 O97 2.209 . S
Mn72 O98 2.094 . S
Mn73 O78 2.121 . S
Mn73 N80 2.257 . S
Mn73 N89 2.282 . S
Mn73 O97 2.215 . S
Mn73 O99 2.117 . S
C74 O96 1.234 . S
C74 O97 1.283 . S
C75 O87 1.281 . S
C75 O88 1.236 . S
C76 O98 1.240 . S
C76 O99 1.264 . S
O77 Mn72 2.095 . S
O77 C86 1.250 . S
O78 Mn73 2.121 . S
O78 C86 1.258 . S
C79 N80 1.326 . S
C79 C83 1.460 . S
C79 H85 0.929 . S
N80 Mn73 2.257 . S
N80 C79 1.326 . S
N80 C84 1.362 . S
C81 C82 1.258 . S
C81 C84 1.431 . S
C81 C101 1.449 . S
C82 C81 1.258 . S
C82 C83 1.477 . S
C82 H102 0.931 . S
C83 C79 1.460 . S
C83 C82 1.477 . S
C83 H103 0.930 . S
C84 N80 1.362 . S
C84 C81 1.431 . S
C84 C94 1.476 . S
H85 C79 0.929 . S
C86 O77 1.250 . S
C86 O78 1.258 . S
O87 Mn72 2.162 . S
O87 C75 1.281 . S
O88 Mn72 2.297 . S
O88 C75 1.236 . S
N89 Mn73 2.282 . S
N89 C90 1.328 . S
N89 C94 1.318 . S
C90 N89 1.328 . S
C90 C91 1.457 . S
C90 H95 0.929 . S
C91 C90 1.457 . S
C91 C92 1.291 . S
C91 H104 0.931 . S
C92 C91 1.291 . S
C92 C93 1.373 . S
C92 H105 0.929 . S
C93 C92 1.373 . S
C93 C94 1.396 . S
C93 C100 1.403 . S
C94 C84 1.476 . S
C94 N89 1.318 . S
C94 C93 1.396 . S
H95 C90 0.929 . S
O96 Mn72 2.385 . S
O96 C74 1.234 . S
O97 Mn72 2.209 . S
O97 Mn73 2.215 . S
O97 C74 1.283 . S
O98 Mn72 2.094 . S
O98 C76 1.240 . S
O99 Mn73 2.117 . S
O99 C76 1.264 . S
C100 C93 1.403 . S
C100 C101 1.399 . S
C100 H106 0.929 . S
C101 C81 1.449 . S
C101 C100 1.399 . S
C101 H107 0.930 . S
H102 C82 0.931 . S
H103 C83 0.930 . S
H104 C91 0.931 . S
H105 C92 0.929 . S
H106 C100 0.929 . S
H107 C101 0.930 . S
Mn108 O113 2.095 . S
Mn108 O123 2.162 . S
Mn108 O124 2.297 . S
Mn108 O132 2.385 . S
Mn108 O133 2.209 . S
Mn108 O134 2.094 . S
Mn109 O114 2.121 . S
Mn109 N116 2.257 . S
Mn109 N125 2.282 . S
Mn109 O133 2.215 . S
Mn109 O135 2.117 . S
C110 O132 1.234 . S
C110 O133 1.283 . S
C111 O123 1.281 . S
C111 O124 1.236 . S
C112 O134 1.240 . S
C112 O135 1.264 . S
O113 Mn108 2.095 . S
O113 C122 1.250 . S
O114 Mn109 2.121 . S
O114 C122 1.258 . S
C115 N116 1.326 . S
C115 C119 1.460 . S
C115 H121 0.929 . S
N116 Mn109 2.257 . S
N116 C115 1.326 . S
N116 C120 1.362 . S
C117 C118 1.258 . S
C117 C120 1.431 . S
C117 C137 1.449 . S
C118 C117 1.258 . S
C118 C119 1.477 . S
C118 H138 0.931 . S
C119 C115 1.460 . S
C119 C118 1.477 . S
C119 H139 0.930 . S
C120 N116 1.362 . S
C120 C117 1.431 . S
C120 C130 1.476 . S
H121 C115 0.929 . S
C122 O113 1.250 . S
C122 O114 1.258 . S
O123 Mn108 2.162 . S
O123 C111 1.281 . S
O124 Mn108 2.297 . S
O124 C111 1.236 . S
N125 Mn109 2.282 . S
N125 C126 1.328 . S
N125 C130 1.318 . S
C126 N125 1.328 . S
C126 C127 1.457 . S
C126 H131 0.929 . S
C127 C126 1.457 . S
C127 C128 1.291 . S
C127 H140 0.929 1_545 S
C128 C127 1.291 . S
C128 C129 1.373 . S
C128 H141 0.929 . S
C129 C128 1.373 . S
C129 C130 1.396 . S
C129 C136 1.403 . S
C130 C120 1.476 . S
C130 N125 1.318 . S
C130 C129 1.396 . S
H131 C126 0.929 . S
O132 Mn108 2.385 . S
O132 C110 1.234 . S
O133 Mn108 2.209 . S
O133 Mn109 2.215 . S
O133 C110 1.283 . S
O134 Mn108 2.094 . S
O134 C112 1.240 . S
O135 Mn109 2.117 . S
O135 C112 1.264 . S
C136 C129 1.403 . S
C136 C137 1.399 . S
C136 H142 0.929 . S
C137 C117 1.449 . S
C137 C136 1.399 . S
C137 H143 0.930 1_655 S
H138 C118 0.931 . S
H139 C119 0.930 . S
H140 C127 0.929 1_565 S
H141 C128 0.929 . S
H142 C136 0.929 . S
H143 C137 0.930 1_455 S
Mn144 O149 2.095 . S
Mn144 O159 2.162 . S
Mn144 O160 2.297 . S
Mn144 O168 2.385 . S
Mn144 O169 2.209 . S
Mn144 O170 2.094 . S
Mn145 O150 2.121 . S
Mn145 N152 2.257 . S
Mn145 N161 2.282 . S
Mn145 O169 2.215 . S
Mn145 O171 2.117 . S
C146 O168 1.234 . S
C146 O169 1.283 . S
C147 O159 1.281 . S
C147 O160 1.236 . S
C148 O170 1.240 . S
C148 O171 1.264 . S
O149 Mn144 2.095 . S
O149 C158 1.250 . S
O150 Mn145 2.121 . S
O150 C158 1.258 . S
C151 N152 1.326 . S
C151 C155 1.460 . S
C151 H157 0.929 . S
N152 Mn145 2.257 . S
N152 C151 1.326 . S
N152 C156 1.362 . S
C153 C154 1.258 . S
C153 C156 1.431 . S
C153 C173 1.449 . S
C154 C153 1.258 . S
C154 C155 1.477 . S
C154 H174 0.931 . S
C155 C151 1.460 . S
C155 C154 1.477 . S
C155 H175 0.930 . S
C156 N152 1.362 . S
C156 C153 1.431 . S
C156 C166 1.476 . S
H157 C151 0.929 . S
C158 O149 1.250 . S
C158 O150 1.258 . S
O159 Mn144 2.162 . S
O159 C147 1.281 . S
O160 Mn144 2.297 . S
O160 C147 1.236 . S
N161 Mn145 2.282 . S
N161 C162 1.328 . S
N161 C166 1.318 . S
C162 N161 1.328 . S
C162 C163 1.457 . S
C162 H167 0.929 . S
C163 C162 1.457 . S
C163 C164 1.291 . S
C163 H176 0.931 . S
C164 C163 1.291 . S
C164 C165 1.373 . S
C164 H177 0.929 . S
C165 C164 1.373 . S
C165 C166 1.396 . S
C165 C172 1.403 . S
C166 C156 1.476 . S
C166 N161 1.318 . S
C166 C165 1.396 . S
H167 C162 0.929 . S
O168 Mn144 2.385 . S
O168 C146 1.234 . S
O169 Mn144 2.209 . S
O169 Mn145 2.215 . S
O169 C146 1.283 . S
O170 Mn144 2.094 . S
O170 C148 1.240 . S
O171 Mn145 2.117 . S
O171 C148 1.264 . S
C172 C165 1.403 . S
C172 C173 1.399 . S
C172 H178 0.929 . S
C173 C153 1.449 . S
C173 C172 1.399 . S
C173 H179 0.930 1_655 S
H174 C154 0.931 . S
H175 C155 0.930 . S
H176 C163 0.931 . S
H177 C164 0.929 . S
H178 C172 0.929 . S
H179 C173 0.930 1_455 S
Mn180 O185 2.095 . S
Mn180 O195 2.162 . S
Mn180 O196 2.297 . S
Mn180 O204 2.385 . S
Mn180 O205 2.209 . S
Mn180 O206 2.094 . S
Mn181 O186 2.121 . S
Mn181 N188 2.257 . S
Mn181 N197 2.282 . S
Mn181 O205 2.215 . S
Mn181 O207 2.117 . S
C182 O204 1.234 . S
C182 O205 1.283 . S
C183 O195 1.281 . S
C183 O196 1.236 . S
C184 O206 1.240 . S
C184 O207 1.264 . S
O185 Mn180 2.095 . S
O185 C194 1.250 . S
O186 Mn181 2.121 . S
O186 C194 1.258 . S
C187 N188 1.326 . S
C187 C191 1.460 . S
C187 H193 0.929 . S
N188 Mn181 2.257 . S
N188 C187 1.326 . S
N188 C192 1.362 . S
C189 C190 1.258 . S
C189 C192 1.431 . S
C189 C209 1.449 . S
C190 C189 1.258 . S
C190 C191 1.477 . S
C190 H210 0.931 . S
C191 C187 1.460 . S
C191 C190 1.477 . S
C191 H211 0.930 . S
C192 N188 1.362 . S
C192 C189 1.431 . S
C192 C202 1.476 . S
H193 C187 0.929 . S
C194 O185 1.250 . S
C194 O186 1.258 . S
O195 Mn180 2.162 . S
O195 C183 1.281 . S
O196 Mn180 2.297 . S
O196 C183 1.236 . S
N197 Mn181 2.282 . S
N197 C198 1.328 . S
N197 C202 1.318 . S
C198 N197 1.328 . S
C198 C199 1.457 . S
C198 H203 0.929 . S
C199 C198 1.457 . S
C199 C200 1.291 . S
C199 H212 0.929 1_545 S
C200 C199 1.291 . S
C200 C201 1.373 . S
C200 H213 0.929 . S
C201 C200 1.373 . S
C201 C202 1.396 . S
C201 C208 1.403 . S
C202 C192 1.476 . S
C202 N197 1.318 . S
C202 C201 1.396 . S
H203 C198 0.929 . S
O204 Mn180 2.385 . S
O204 C182 1.234 . S
O205 Mn180 2.209 . S
O205 Mn181 2.215 . S
O205 C182 1.283 . S
O206 Mn180 2.094 . S
O206 C184 1.240 . S
O207 Mn181 2.117 . S
O207 C184 1.264 . S
C208 C201 1.403 . S
C208 C209 1.399 . S
C208 H214 0.929 . S
C209 C189 1.449 . S
C209 C208 1.399 . S
C209 H215 0.930 . S
H210 C190 0.931 . S
H211 C191 0.930 . S
H212 C199 0.929 1_565 S
H213 C200 0.929 . S
H214 C208 0.929 . S
H215 C209 0.930 . S
Mn216 O221 2.095 . S
Mn216 O231 2.162 . S
Mn216 O232 2.297 . S
Mn216 O240 2.385 . S
Mn216 O241 2.209 . S
Mn216 O242 2.094 . S
Mn217 O222 2.121 . S
Mn217 N224 2.257 . S
Mn217 N233 2.282 . S
Mn217 O241 2.215 . S
Mn217 O243 2.117 . S
C218 O240 1.234 . S
C218 O241 1.283 . S
C219 O231 1.281 . S
C219 O232 1.236 . S
C220 O242 1.240 . S
C220 O243 1.264 . S
O221 Mn216 2.095 . S
O221 C230 1.250 . S
O222 Mn217 2.121 . S
O222 C230 1.258 . S
C223 N224 1.326 . S
C223 C227 1.460 . S
C223 H229 0.929 . S
N224 Mn217 2.257 . S
N224 C223 1.326 . S
N224 C228 1.362 . S
C225 C226 1.258 . S
C225 C228 1.431 . S
C225 C245 1.449 . S
C226 C225 1.258 . S
C226 C227 1.477 . S
C226 H246 0.931 . S
C227 C223 1.460 . S
C227 C226 1.477 . S
C227 H247 0.930 . S
C228 N224 1.362 . S
C228 C225 1.431 . S
C228 C238 1.476 . S
H229 C223 0.929 . S
C230 O221 1.250 . S
C230 O222 1.258 . S
O231 Mn216 2.162 . S
O231 C219 1.281 . S
O232 Mn216 2.297 . S
O232 C219 1.236 . S
N233 Mn217 2.282 . S
N233 C234 1.328 . S
N233 C238 1.318 . S
C234 N233 1.328 . S
C234 C235 1.457 . S
C234 H239 0.929 . S
C235 C234 1.457 . S
C235 C236 1.291 . S
C235 H248 0.931 . S
C236 C235 1.291 . S
C236 C237 1.373 . S
C236 H249 0.929 . S
C237 C236 1.373 . S
C237 C238 1.396 . S
C237 C244 1.403 . S
C238 C228 1.476 . S
C238 N233 1.318 . S
C238 C237 1.396 . S
H239 C234 0.929 . S
O240 Mn216 2.385 . S
O240 C218 1.234 . S
O241 Mn216 2.209 . S
O241 Mn217 2.215 . S
O241 C218 1.283 . S
O242 Mn216 2.094 . S
O242 C220 1.240 . S
O243 Mn217 2.117 . S
O243 C220 1.264 . S
C244 C237 1.403 . S
C244 C245 1.399 . S
C244 H250 0.929 . S
C245 C225 1.449 . S
C245 C244 1.399 . S
C245 H251 0.930 . S
H246 C226 0.931 . S
H247 C227 0.930 . S
H248 C235 0.931 . S
H249 C236 0.929 . S
H250 C244 0.929 . S
H251 C245 0.930 . S
Mn252 O257 2.095 . S
Mn252 O267 2.162 . S
Mn252 O268 2.297 . S
Mn252 O276 2.385 . S
Mn252 O277 2.209 . S
Mn252 O278 2.094 . S
Mn253 O258 2.121 . S
Mn253 N260 2.257 . S
Mn253 N269 2.282 . S
Mn253 O277 2.215 . S
Mn253 O279 2.117 . S
C254 O276 1.234 . S
C254 O277 1.283 . S
C255 O267 1.281 . S
C255 O268 1.236 . S
C256 O278 1.240 . S
C256 O279 1.264 . S
O257 Mn252 2.095 . S
O257 C266 1.250 . S
O258 Mn253 2.121 . S
O258 C266 1.258 . S
C259 N260 1.326 . S
C259 C263 1.460 . S
C259 H265 0.929 . S
N260 Mn253 2.257 . S
N260 C259 1.326 . S
N260 C264 1.362 . S
C261 C262 1.258 . S
C261 C264 1.431 . S
C261 C281 1.449 . S
C262 C261 1.258 . S
C262 C263 1.477 . S
C262 H282 0.931 . S
C263 C259 1.460 . S
C263 C262 1.477 . S
C263 H283 0.930 . S
C264 N260 1.362 . S
C264 C261 1.431 . S
C264 C274 1.476 . S
H265 C259 0.929 . S
C266 O257 1.250 . S
C266 O258 1.258 . S
O267 Mn252 2.162 . S
O267 C255 1.281 . S
O268 Mn252 2.297 . S
O268 C255 1.236 . S
N269 Mn253 2.282 . S
N269 C270 1.328 . S
N269 C274 1.318 . S
C270 N269 1.328 . S
C270 C271 1.457 . S
C270 H275 0.929 . S
C271 C270 1.457 . S
C271 C272 1.291 . S
C271 H284 0.929 1_565 S
C272 C271 1.291 . S
C272 C273 1.373 . S
C272 H285 0.929 . S
C273 C272 1.373 . S
C273 C274 1.396 . S
C273 C280 1.403 . S
C274 C264 1.476 . S
C274 N269 1.318 . S
C274 C273 1.396 . S
H275 C270 0.929 . S
O276 Mn252 2.385 . S
O276 C254 1.234 . S
O277 Mn252 2.209 . S
O277 Mn253 2.215 . S
O277 C254 1.283 . S
O278 Mn252 2.094 . S
O278 C256 1.240 . S
O279 Mn253 2.117 . S
O279 C256 1.264 . S
C280 C273 1.403 . S
C280 C281 1.399 . S
C280 H286 0.929 . S
C281 C261 1.449 . S
C281 C280 1.399 . S
C281 H287 0.930 1_455 S
H282 C262 0.931 . S
H283 C263 0.930 . S
H284 C271 0.929 1_545 S
H285 C272 0.929 . S
H286 C280 0.929 . S
H287 C281 0.930 1_655 S
H288 C296 0.929 . S
H289 C298 0.930 . S
H290 C300 0.930 . S
H291 C303 0.929 . S
H292 C306 0.930 . S
H293 C308 0.960 . S
H294 C308 0.960 . S
H295 C308 0.960 . S
C296 H288 0.929 . S
C296 C297 1.377 . S
C296 C298 1.384 . S
C297 C296 1.377 . S
C297 C303 1.390 . S
C298 H289 0.930 . S
C298 C296 1.384 . S
C298 C299 1.372 . S
C299 C298 1.372 . S
C299 C300 1.400 . S
C299 C304 1.490 . S
C300 H290 0.930 . S
C300 C299 1.400 . S
C300 C303 1.386 . S
H301 C317 0.930 . S
H302 C318 0.931 . S
C303 H291 0.929 . S
C303 C297 1.390 . S
C303 C300 1.386 . S
C304 C299 1.490 . S
C304 C306 1.395 . S
C304 C307 1.403 . S
H305 C311 0.930 . S
C306 H292 0.930 . S
C306 C304 1.395 . S
C306 C309 1.403 . S
C307 C304 1.403 . S
C307 C308 1.524 . S
C307 C311 1.400 . S
C308 H293 0.960 . S
C308 H294 0.960 . S
C308 H295 0.960 . S
C308 C307 1.524 . S
C309 C306 1.403 . S
C309 C310 1.392 . S
C309 C313 1.495 . S
C310 C309 1.392 . S
C310 C311 1.385 . S
C310 C312 1.478 . S
C311 H305 0.930 . S
C311 C307 1.400 . S
C311 C310 1.385 . S
C312 C310 1.478 . S
C312 C314 1.381 . S
C312 C318 1.383 . S
C313 C309 1.495 . S
C313 H319 0.959 . S
C313 H320 0.961 . S
C313 H321 0.960 . S
C314 C312 1.381 . S
C314 C315 1.394 . S
C314 H322 0.930 . S
C315 C314 1.394 . S
C315 C316 1.383 . S
C315 H323 0.929 . S
C316 C315 1.383 . S
C316 C317 1.377 . S
C317 H301 0.930 . S
C317 C316 1.377 . S
C317 C318 1.379 . S
C318 H302 0.931 . S
C318 C312 1.383 . S
C318 C317 1.379 . S
H319 C313 0.959 . S
H320 C313 0.961 . S
H321 C313 0.960 . S
H322 C314 0.930 . S
H323 C315 0.929 . S
H324 C332 0.929 1_565 S
H325 C334 0.931 1_565 S
H326 C336 0.930 . S
H327 C339 0.929 . S
H328 C342 0.930 . S
H329 C344 0.960 . S
H330 C344 0.981 . S
H331 C344 0.960 . S
C332 H324 0.929 1_545 S
C332 C333 1.377 . S
C332 C334 1.384 . S
C333 C332 1.377 . S
C333 C339 1.390 . S
C334 H325 0.931 1_545 S
C334 C332 1.384 . S
C334 C335 1.372 1_655 S
C335 C334 1.372 1_455 S
C335 C336 1.400 . S
C335 C340 1.490 . S
C336 H326 0.930 . S
C336 C335 1.400 . S
C336 C339 1.386 1_455 S
H337 C353 0.930 1_545 S
H338 C354 0.931 . S
C339 H327 0.929 . S
C339 C333 1.390 . S
C339 C336 1.386 1_655 S
C340 C335 1.490 . S
C340 C342 1.395 1_545 S
C340 C343 1.403 . S
H341 C347 0.930 . S
C342 H328 0.930 . S
C342 C340 1.395 1_565 S
C342 C345 1.403 . S
C343 C340 1.403 . S
C343 C344 1.524 . S
C343 C347 1.400 . S
C344 H329 0.960 . S
C344 H330 0.981 . S
C344 H331 0.960 . S
C344 C343 1.524 . S
C345 C342 1.403 . S
C345 C346 1.392 . S
C345 C349 1.495 . S
C346 C345 1.392 . S
C346 C347 1.385 1_565 S
C346 C348 1.478 . S
C347 H341 0.930 . S
C347 C343 1.400 . S
C347 C346 1.385 1_545 S
C348 C346 1.478 . S
C348 C350 1.381 . S
C348 C354 1.383 1_565 S
C349 C345 1.495 . S
C349 H355 0.959 . S
C349 H356 0.961 . S
C349 H357 0.960 . S
C350 C348 1.381 . S
C350 C351 1.394 . S
C350 H358 0.930 . S
C351 C350 1.394 . S
C351 C352 1.383 . S
C351 H359 0.929 . S
C352 C351 1.383 . S
C352 C353 1.377 . S
C353 H337 0.930 1_565 S
C353 C352 1.377 . S
C353 C354 1.379 1_565 S
C354 H338 0.931 . S
C354 C348 1.383 1_545 S
C354 C353 1.379 1_545 S
H355 C349 0.959 . S
H356 C349 0.961 . S
H357 C349 0.960 . S
H358 C350 0.930 . S
H359 C351 0.929 . S
H360 C368 0.929 . S
H361 C370 0.930 . S
H362 C372 0.930 . S
H363 C375 0.929 . S
H364 C378 0.930 . S
H365 C380 0.960 . S
H366 C380 0.960 . S
H367 C380 0.960 . S
C368 H360 0.929 . S
C368 C369 1.377 . S
C368 C370 1.384 . S
C369 C368 1.377 . S
C369 C375 1.390 . S
C370 H361 0.930 . S
C370 C368 1.384 . S
C370 C371 1.372 . S
C371 C370 1.372 . S
C371 C372 1.400 . S
C371 C376 1.490 . S
C372 H362 0.930 . S
C372 C371 1.400 . S
C372 C375 1.386 . S
H373 C389 0.930 . S
H374 C390 0.931 . S
C375 H363 0.929 . S
C375 C369 1.390 . S
C375 C372 1.386 . S
C376 C371 1.490 . S
C376 C378 1.395 . S
C376 C379 1.403 . S
H377 C383 0.930 . S
C378 H364 0.930 . S
C378 C376 1.395 . S
C378 C381 1.403 . S
C379 C376 1.403 . S
C379 C380 1.524 . S
C379 C383 1.400 . S
C380 H365 0.960 . S
C380 H366 0.960 . S
C380 H367 0.960 . S
C380 C379 1.524 . S
C381 C378 1.403 . S
C381 C382 1.392 . S
C381 C385 1.495 . S
C382 C381 1.392 . S
C382 C383 1.385 . S
C382 C384 1.478 . S
C383 H377 0.930 . S
C383 C379 1.400 . S
C383 C382 1.385 . S
C384 C382 1.478 . S
C384 C386 1.381 1_655 S
C384 C390 1.383 . S
C385 C381 1.495 . S
C385 H391 0.959 . S
C385 H392 0.961 1_655 S
C385 H393 0.960 1_655 S
C386 C384 1.381 1_455 S
C386 C387 1.394 . S
C386 H394 0.930 . S
C387 C386 1.394 . S
C387 C388 1.383 . S
C387 H395 0.929 . S
C388 C387 1.383 . S
C388 C389 1.377 . S
C389 H373 0.930 . S
C389 C388 1.377 . S
C389 C390 1.379 1_455 S
C390 H374 0.931 . S
C390 C384 1.383 . S
C390 C389 1.379 1_655 S
H391 C385 0.959 . S
H392 C385 0.961 1_455 S
H393 C385 0.960 1_455 S
H394 C386 0.930 . S
H395 C387 0.929 . S
H396 C404 0.929 . S
H397 C406 0.930 . S
H398 C408 0.930 . S
H399 C411 0.929 . S
H400 C414 0.930 . S
H401 C416 0.960 . S
H402 C416 0.960 . S
H403 C416 0.960 . S
C404 H396 0.929 . S
C404 C405 1.377 . S
C404 C406 1.384 . S
C405 C404 1.377 . S
C405 C411 1.390 . S
C406 H397 0.930 . S
C406 C404 1.384 . S
C406 C407 1.372 . S
C407 C406 1.372 . S
C407 C408 1.400 . S
C407 C412 1.490 . S
C408 H398 0.930 . S
C408 C407 1.400 . S
C408 C411 1.386 . S
H409 C425 0.930 . S
H410 C426 0.931 . S
C411 H399 0.929 . S
C411 C405 1.390 . S
C411 C408 1.386 . S
C412 C407 1.490 . S
C412 C414 1.395 1_545 S
C412 C415 1.403 . S
H413 C419 0.930 . S
C414 H400 0.930 . S
C414 C412 1.395 1_565 S
C414 C417 1.403 . S
C415 C412 1.403 . S
C415 C416 1.524 . S
C415 C419 1.400 . S
C416 H401 0.960 . S
C416 H402 0.960 . S
C416 H403 0.960 . S
C416 C415 1.524 . S
C417 C414 1.403 . S
C417 C418 1.392 . S
C417 C421 1.495 . S
C418 C417 1.392 . S
C418 C419 1.385 1_565 S
C418 C420 1.478 . S
C419 H413 0.930 . S
C419 C415 1.400 . S
C419 C418 1.385 1_545 S
C420 C418 1.478 . S
C420 C422 1.381 . S
C420 C426 1.383 . S
C421 C417 1.495 . S
C421 H427 0.959 . S
C421 H428 0.961 . S
C421 H429 0.960 . S
C422 C420 1.381 . S
C422 C423 1.394 . S
C422 H430 0.930 . S
C423 C422 1.394 . S
C423 C424 1.383 . S
C423 H431 0.929 . S
C424 C423 1.383 . S
C424 C425 1.377 . S
C425 H409 0.930 . S
C425 C424 1.377 . S
C425 C426 1.379 . S
C426 H410 0.931 . S
C426 C420 1.383 . S
C426 C425 1.379 . S
H427 C421 0.959 . S
H428 C421 0.961 . S
H429 C421 0.960 . S
H430 C422 0.930 . S
H431 C423 0.929 . S
H432 C440 0.929 . S
H433 C442 0.930 . S
H434 C444 0.930 . S
H435 C447 0.929 . S
H436 C450 0.930 . S
H437 C452 0.960 . S
H438 C452 0.960 . S
H439 C452 0.960 . S
C440 H432 0.929 . S
C440 C441 1.377 . S
C440 C442 1.384 . S
C441 C440 1.377 . S
C441 C447 1.390 . S
C442 H433 0.930 . S
C442 C440 1.384 . S
C442 C443 1.372 . S
C443 C442 1.372 . S
C443 C444 1.400 . S
C443 C448 1.490 . S
C444 H434 0.930 . S
C444 C443 1.400 . S
C444 C447 1.386 . S
H445 C461 0.930 . S
H446 C462 0.931 . S
C447 H435 0.929 . S
C447 C441 1.390 . S
C447 C444 1.386 . S
C448 C443 1.490 . S
C448 C450 1.395 . S
C448 C451 1.403 . S
H449 C455 0.930 . S
C450 H436 0.930 . S
C450 C448 1.395 . S
C450 C453 1.403 . S
C451 C448 1.403 . S
C451 C452 1.524 . S
C451 C455 1.400 . S
C452 H437 0.960 . S
C452 H438 0.960 . S
C452 H439 0.960 . S
C452 C451 1.524 . S
C453 C450 1.403 . S
C453 C454 1.392 . S
C453 C457 1.495 . S
C454 C453 1.392 . S
C454 C455 1.385 . S
C454 C456 1.478 . S
C455 H449 0.930 . S
C455 C451 1.400 . S
C455 C454 1.385 . S
C456 C454 1.478 . S
C456 C458 1.381 . S
C456 C462 1.383 . S
C457 C453 1.495 . S
C457 H463 0.959 . S
C457 H464 0.961 . S
C457 H465 0.960 . S
C458 C456 1.381 . S
C458 C459 1.394 . S
C458 H466 0.930 . S
C459 C458 1.394 . S
C459 C460 1.383 . S
C459 H467 0.929 . S
C460 C459 1.383 . S
C460 C461 1.377 . S
C461 H445 0.930 . S
C461 C460 1.377 . S
C461 C462 1.379 . S
C462 H446 0.931 . S
C462 C456 1.383 . S
C462 C461 1.379 . S
H463 C457 0.959 . S
H464 C457 0.961 . S
H465 C457 0.960 . S
H466 C458 0.930 . S
H467 C459 0.929 . S
H468 C476 0.929 1_565 S
H469 C478 0.930 . S
H470 C480 0.930 . S
H471 C483 0.929 . S
H472 C486 0.930 . S
H473 C488 0.960 . S
H474 C488 0.960 . S
H475 C488 0.960 . S
C476 H468 0.929 1_545 S
C476 C477 1.377 . S
C476 C478 1.384 1_545 S
C477 C476 1.377 . S
C477 C483 1.390 . S
C478 H469 0.930 . S
C478 C476 1.384 1_565 S
C478 C479 1.372 1_565 S
C479 C478 1.372 1_545 S
C479 C480 1.400 . S
C479 C484 1.490 . S
C480 H470 0.930 . S
C480 C479 1.400 . S
C480 C483 1.386 . S
H481 C497 0.930 . S
H482 C498 0.912 1_545 S
C483 H471 0.929 . S
C483 C477 1.390 . S
C483 C480 1.386 . S
C484 C479 1.490 . S
C484 C486 1.395 1_545 S
C484 C487 1.403 . S
H485 C491 0.930 . S
C486 H472 0.930 . S
C486 C484 1.395 1_565 S
C486 C489 1.403 . S
C487 C484 1.403 . S
C487 C488 1.524 . S
C487 C491 1.400 . S
C488 H473 0.960 . S
C488 H474 0.960 . S
C488 H475 0.960 . S
C488 C487 1.524 . S
C489 C486 1.403 . S
C489 C490 1.392 . S
C489 C493 1.495 . S
C490 C489 1.392 . S
C490 C491 1.385 1_565 S
C490 C492 1.478 . S
C491 H485 0.930 . S
C491 C487 1.400 . S
C491 C490 1.385 1_545 S
C492 C490 1.478 . S
C492 C494 1.381 . S
C492 C498 1.383 1_655 S
C493 C489 1.495 . S
C493 H499 0.959 . S
C493 H500 0.961 . S
C493 H501 0.960 . S
C494 C492 1.381 . S
C494 C495 1.394 1_655 S
C494 H502 0.930 . S
C495 C494 1.394 1_455 S
C495 C496 1.383 . S
C495 H503 0.927 1_455 S
C496 C495 1.383 . S
C496 C497 1.377 . S
C497 H481 0.930 . S
C497 C496 1.377 . S
C497 C498 1.379 . S
C498 H482 0.912 1_565 S
C498 C492 1.383 1_455 S
C498 C497 1.379 . S
H499 C493 0.959 . S
H500 C493 0.961 . S
H501 C493 0.960 . S
H502 C494 0.930 . S
H503 C495 0.927 1_655 S
H504 C512 0.929 . S
H505 C514 0.930 . S
H506 C516 0.930 . S
H507 C519 0.929 . S
H508 C522 0.930 . S
H509 C524 0.960 . S
H510 C524 0.960 . S
H511 C524 0.960 . S
C512 H504 0.929 . S
C512 C513 1.377 . S
C512 C514 1.384 . S
C513 C512 1.377 . S
C513 C519 1.390 . S
C514 H505 0.930 . S
C514 C512 1.384 . S
C514 C515 1.372 . S
C515 C514 1.372 . S
C515 C516 1.400 . S
C515 C520 1.490 . S
C516 H506 0.930 . S
C516 C515 1.400 . S
C516 C519 1.386 . S
H517 C533 0.930 . S
H518 C534 0.932 . S
C519 H507 0.929 . S
C519 C513 1.390 . S
C519 C516 1.386 . S
C520 C515 1.490 . S
C520 C522 1.395 . S
C520 C523 1.403 . S
H521 C527 0.930 . S
C522 H508 0.930 . S
C522 C520 1.395 . S
C522 C525 1.403 . S
C523 C520 1.403 . S
C523 C524 1.524 . S
C523 C527 1.400 . S
C524 H509 0.960 . S
C524 H510 0.960 . S
C524 H511 0.960 . S
C524 C523 1.524 . S
C525 C522 1.403 . S
C525 C526 1.392 . S
C525 C529 1.495 . S
C526 C525 1.392 . S
C526 C527 1.385 . S
C526 C528 1.478 . S
C527 H521 0.930 . S
C527 C523 1.400 . S
C527 C526 1.385 . S
C528 C526 1.478 . S
C528 C530 1.381 . S
C528 C534 1.389 . S
C529 C525 1.495 . S
C529 H535 0.959 . S
C529 H536 0.961 . S
C529 H537 0.960 . S
C530 C528 1.381 . S
C530 C531 1.394 1_455 S
C530 H538 0.930 . S
C531 C530 1.394 1_655 S
C531 C532 1.383 . S
C531 H539 0.929 . S
C532 C531 1.383 . S
C532 C533 1.377 . S
C533 H517 0.930 . S
C533 C532 1.377 . S
C533 C534 1.372 1_655 S
C534 H518 0.932 . S
C534 C528 1.389 . S
C534 C533 1.372 1_455 S
H535 C529 0.959 . S
H536 C529 0.961 . S
H537 C529 0.960 . S
H538 C530 0.930 . S
H539 C531 0.929 . S
H540 C548 0.944 . S
H541 C550 0.914 1_545 S
H542 C552 0.930 . S
H543 C555 0.929 . S
H544 C558 0.930 . S
H545 C560 0.960 . S
H546 C560 0.960 . S
H547 C560 0.960 1_565 S
C548 H540 0.944 . S
C548 C549 1.377 . S
C548 C550 1.391 . S
C549 C548 1.377 . S
C549 C555 1.390 . S
C550 H541 0.914 1_565 S
C550 C548 1.391 . S
C550 C551 1.381 . S
C551 C550 1.381 . S
C551 C552 1.400 . S
C551 C556 1.490 . S
C552 H542 0.930 . S
C552 C551 1.400 . S
C552 C555 1.386 . S
H553 C569 0.930 . S
H554 C570 0.931 1_565 S
C555 H543 0.929 . S
C555 C549 1.390 . S
C555 C552 1.386 . S
C556 C551 1.490 . S
C556 C558 1.395 . S
C556 C559 1.403 1_565 S
H557 C563 0.930 . S
C558 H544 0.930 . S
C558 C556 1.395 . S
C558 C561 1.403 1_565 S
C559 C556 1.403 1_545 S
C559 C560 1.524 . S
C559 C563 1.400 . S
C560 H545 0.960 . S
C560 H546 0.960 . S
C560 H547 0.960 1_545 S
C560 C559 1.524 . S
C561 C558 1.403 1_545 S
C561 C562 1.392 . S
C561 C565 1.495 1_545 S
C562 C561 1.392 . S
C562 C563 1.385 . S
C562 C564 1.478 . S
C563 H557 0.930 . S
C563 C559 1.400 . S
C563 C562 1.385 . S
C564 C562 1.478 . S
C564 C566 1.381 . S
C564 C570 1.383 . S
C565 C561 1.495 1_565 S
C565 H571 0.959 . S
C565 H572 0.961 . S
C565 H573 0.960 1_565 S
C566 C564 1.381 . S
C566 C567 1.394 . S
C566 H574 0.930 . S
C567 C566 1.394 . S
C567 C568 1.383 . S
C567 H575 0.929 . S
C568 C567 1.383 . S
C568 C569 1.377 . S
C569 H553 0.930 . S
C569 C568 1.377 . S
C569 C570 1.379 . S
C570 H554 0.931 1_545 S
C570 C564 1.383 . S
C570 C569 1.379 . S
H571 C565 0.959 . S
H572 C565 0.961 . S
H573 C565 0.960 1_545 S
H574 C566 0.930 . S
H575 C567 0.929 . S
H576 C584 0.929 . S
H577 C586 0.930 . S
H578 C588 0.930 . S
H579 C591 0.929 . S
H580 C594 0.930 . S
H581 C596 0.960 . S
H582 C596 0.960 . S
H583 C596 0.960 . S
C584 H576 0.929 . S
C584 C585 1.377 . S
C584 C586 1.384 . S
C585 C584 1.377 . S
C585 C591 1.390 . S
C586 H577 0.930 . S
C586 C584 1.384 . S
C586 C587 1.372 . S
C587 C586 1.372 . S
C587 C588 1.400 . S
C587 C592 1.490 . S
C588 H578 0.930 . S
C588 C587 1.400 . S
C588 C591 1.386 . S
H589 C605 0.930 . S
H590 C606 0.931 . S
C591 H579 0.929 . S
C591 C585 1.390 . S
C591 C588 1.386 . S
C592 C587 1.490 . S
C592 C594 1.395 . S
C592 C595 1.403 1_455 S
H593 C599 0.930 . S
C594 H580 0.930 . S
C594 C592 1.395 . S
C594 C597 1.403 . S
C595 C592 1.403 1_655 S
C595 C596 1.524 . S
C595 C599 1.400 . S
C596 H581 0.960 . S
C596 H582 0.960 . S
C596 H583 0.960 . S
C596 C595 1.524 . S
C597 C594 1.403 . S
C597 C598 1.392 1_455 S
C597 C601 1.495 . S
C598 C597 1.392 1_655 S
C598 C599 1.385 . S
C598 C600 1.478 . S
C599 H593 0.930 . S
C599 C595 1.400 . S
C599 C598 1.385 . S
C600 C598 1.478 . S
C600 C602 1.381 . S
C600 C606 1.383 . S
C601 C597 1.495 . S
C601 H607 0.959 . S
C601 H608 0.961 . S
C601 H609 0.960 . S
C602 C600 1.381 . S
C602 C603 1.394 . S
C602 H610 0.930 . S
C603 C602 1.394 . S
C603 C604 1.383 . S
C603 H611 0.929 . S
C604 C603 1.383 . S
C604 C605 1.377 . S
C605 H589 0.930 . S
C605 C604 1.377 . S
C605 C606 1.379 . S
C606 H590 0.931 . S
C606 C600 1.383 . S
C606 C605 1.379 . S
H607 C601 0.959 . S
H608 C601 0.961 . S
H609 C601 0.960 . S
H610 C602 0.930 . S
H611 C603 0.929 . S
H612 C620 0.929 . S
H613 C622 0.930 1_545 S
H614 C624 0.930 . S
H615 C627 0.929 . S
H616 C630 0.930 . S
H617 C632 0.960 . S
H618 C632 0.960 . S
H619 C632 0.960 1_565 S
C620 H612 0.929 . S
C620 C621 1.377 . S
C620 C622 1.384 . S
C621 C620 1.377 . S
C621 C627 1.390 . S
C622 H613 0.930 1_565 S
C622 C620 1.384 . S
C622 C623 1.372 . S
C623 C622 1.372 . S
C623 C624 1.400 . S
C623 C628 1.490 . S
C624 H614 0.930 . S
C624 C623 1.400 . S
C624 C627 1.386 . S
H625 C641 0.930 . S
H626 C642 0.931 1_565 S
C627 H615 0.929 . S
C627 C621 1.390 . S
C627 C624 1.386 . S
C628 C623 1.490 . S
C628 C630 1.395 . S
C628 C631 1.403 1_565 S
H629 C635 0.930 . S
C630 H616 0.930 . S
C630 C628 1.395 . S
C630 C633 1.403 . S
C631 C628 1.403 1_545 S
C631 C632 1.524 . S
C631 C635 1.400 . S
C632 H617 0.960 . S
C632 H618 0.960 . S
C632 H619 0.960 1_545 S
C632 C631 1.524 . S
C633 C630 1.403 . S
C633 C634 1.392 1_565 S
C633 C637 1.495 . S
C634 C633 1.392 1_545 S
C634 C635 1.385 . S
C634 C636 1.478 . S
C635 H629 0.930 . S
C635 C631 1.400 . S
C635 C634 1.385 . S
C636 C634 1.478 . S
C636 C638 1.381 . S
C636 C642 1.383 . S
C637 C633 1.495 . S
C637 H643 0.959 . S
C637 H644 0.961 . S
C637 H645 0.960 1_565 S
C638 C636 1.381 . S
C638 C639 1.394 . S
C638 H646 0.930 . S
C639 C638 1.394 . S
C639 C640 1.383 . S
C639 H647 0.929 . S
C640 C639 1.383 . S
C640 C641 1.377 . S
C641 H625 0.930 . S
C641 C640 1.377 . S
C641 C642 1.379 . S
C642 H626 0.931 1_545 S
C642 C636 1.383 . S
C642 C641 1.379 . S
H643 C637 0.959 . S
H644 C637 0.961 . S
H645 C637 0.960 1_545 S
H646 C638 0.930 . S
H647 C639 0.929 . S
H648 C656 0.929 . S
H649 C658 0.930 . S
H650 C660 0.930 . S
H651 C663 0.929 . S
H652 C666 0.930 . S
H653 C668 0.960 . S
H654 C668 0.960 . S
H655 C668 0.960 . S
C656 H648 0.929 . S
C656 C657 1.377 . S
C656 C658 1.384 . S
C657 C656 1.377 . S
C657 C663 1.390 . S
C658 H649 0.930 . S
C658 C656 1.384 . S
C658 C659 1.372 . S
C659 C658 1.372 . S
C659 C660 1.400 . S
C659 C664 1.490 . S
C660 H650 0.930 . S
C660 C659 1.400 . S
C660 C663 1.386 . S
H661 C677 0.930 . S
H662 C678 0.931 . S
C663 H651 0.929 . S
C663 C657 1.390 . S
C663 C660 1.386 . S
C664 C659 1.490 . S
C664 C666 1.395 . S
C664 C667 1.403 . S
H665 C671 0.930 . S
C666 H652 0.930 . S
C666 C664 1.395 . S
C666 C669 1.403 1_554 S
C667 C664 1.403 . S
C667 C668 1.524 . S
C667 C671 1.400 1_554 S
C668 H653 0.960 . S
C668 H654 0.960 . S
C668 H655 0.960 . S
C668 C667 1.524 . S
C669 C666 1.403 1_556 S
C669 C670 1.392 . S
C669 C673 1.495 . S
C670 C669 1.392 . S
C670 C671 1.385 . S
C670 C672 1.478 . S
C671 H665 0.930 . S
C671 C667 1.400 1_556 S
C671 C670 1.385 . S
C672 C670 1.478 . S
C672 C674 1.381 . S
C672 C678 1.383 . S
C673 C669 1.495 . S
C673 H679 0.959 . S
C673 H680 0.961 . S
C673 H681 0.960 . S
C674 C672 1.381 . S
C674 C675 1.394 . S
C674 H682 0.930 . S
C675 C674 1.394 . S
C675 C676 1.383 . S
C675 H683 0.929 . S
C676 C675 1.383 . S
C676 C677 1.377 . S
C677 H661 0.930 . S
C677 C676 1.377 . S
C677 C678 1.379 . S
C678 H662 0.931 . S
C678 C672 1.383 . S
C678 C677 1.379 . S
H679 C673 0.959 . S
H680 C673 0.961 . S
H681 C673 0.960 . S
H682 C674 0.930 . S
H683 C675 0.929 . S
H684 C692 0.929 . S
H685 C694 0.930 . S
H686 C696 0.918 1_545 S
H687 C699 0.929 . S
H688 C702 0.930 . S
H689 C704 0.960 . S
H690 C704 0.960 . S
H691 C704 0.960 . S
C692 H684 0.929 . S
C692 C693 1.377 . S
C692 C694 1.384 . S
C693 C692 1.377 . S
C693 C699 1.390 . S
C694 H685 0.930 . S
C694 C692 1.384 . S
C694 C695 1.372 . S
C695 C694 1.372 . S
C695 C696 1.400 . S
C695 C700 1.490 . S
C696 H686 0.918 1_565 S
C696 C695 1.400 . S
C696 C699 1.386 . S
H697 C713 0.930 . S
H698 C714 0.931 . S
C699 H687 0.929 . S
C699 C693 1.390 . S
C699 C696 1.386 . S
C700 C695 1.490 . S
C700 C702 1.395 1_565 S
C700 C703 1.403 1_455 S
H701 C707 0.930 . S
C702 H688 0.930 . S
C702 C700 1.395 1_545 S
C702 C705 1.403 1_556 S
C703 C700 1.403 1_655 S
C703 C704 1.524 . S
C703 C707 1.400 1_556 S
C704 H689 0.960 . S
C704 H690 0.960 . S
C704 H691 0.960 . S
C704 C703 1.524 . S
C705 C702 1.403 1_554 S
C705 C706 1.392 1_455 S
C705 C709 1.495 . S
C706 C705 1.392 1_655 S
C706 C707 1.385 1_545 S
C706 C708 1.478 . S
C707 H701 0.930 . S
C707 C703 1.400 1_554 S
C707 C706 1.385 1_565 S
C708 C706 1.478 . S
C708 C710 1.381 . S
C708 C714 1.383 . S
C709 C705 1.495 . S
C709 H715 0.959 . S
C709 H716 0.961 . S
C709 H717 0.960 . S
C710 C708 1.381 . S
C710 C711 1.394 . S
C710 H718 0.930 1_545 S
C711 C710 1.394 . S
C711 C712 1.383 . S
C711 H719 0.929 . S
C712 C711 1.383 . S
C712 C713 1.377 . S
C713 H697 0.930 . S
C713 C712 1.377 . S
C713 C714 1.379 . S
C714 H698 0.931 . S
C714 C708 1.383 . S
C714 C713 1.379 . S
H715 C709 0.959 . S
H716 C709 0.961 . S
H717 C709 0.960 . S
H718 C710 0.930 1_565 S
H719 C711 0.929 . S
H720 C728 0.929 . S
H721 C730 0.930 . S
H722 C732 0.930 . S
H723 C735 0.929 . S
H724 C738 0.930 . S
H725 C740 0.960 . S
H726 C740 0.960 . S
H727 C740 0.960 . S
C728 H720 0.929 . S
C728 C729 1.377 . S
C728 C730 1.384 . S
C729 C728 1.377 . S
C729 C735 1.390 . S
C730 H721 0.930 . S
C730 C728 1.384 . S
C730 C731 1.372 . S
C731 C730 1.372 . S
C731 C732 1.400 . S
C731 C736 1.490 . S
C732 H722 0.930 . S
C732 C731 1.400 . S
C732 C735 1.386 . S
H733 C749 0.930 . S
H734 C750 0.931 . S
C735 H723 0.929 . S
C735 C729 1.390 . S
C735 C732 1.386 . S
C736 C731 1.490 . S
C736 C738 1.395 . S
C736 C739 1.403 . S
H737 C743 0.930 . S
C738 H724 0.930 . S
C738 C736 1.395 . S
C738 C741 1.403 . S
C739 C736 1.403 . S
C739 C740 1.524 . S
C739 C743 1.400 . S
C740 H725 0.960 . S
C740 H726 0.960 . S
C740 H727 0.960 . S
C740 C739 1.524 . S
C741 C738 1.403 . S
C741 C742 1.392 . S
C741 C745 1.495 . S
C742 C741 1.392 . S
C742 C743 1.385 . S
C742 C744 1.478 . S
C743 H737 0.930 . S
C743 C739 1.400 . S
C743 C742 1.385 . S
C744 C742 1.478 . S
C744 C746 1.381 . S
C744 C750 1.383 . S
C745 C741 1.495 . S
C745 H751 0.959 . S
C745 H752 0.961 . S
C745 H753 0.960 . S
C746 C744 1.381 . S
C746 C747 1.394 . S
C746 H754 0.930 . S
C747 C746 1.394 . S
C747 C748 1.383 . S
C747 H755 0.929 . S
C748 C747 1.383 . S
C748 C749 1.377 . S
C749 H733 0.930 . S
C749 C748 1.377 . S
C749 C750 1.379 . S
C750 H734 0.931 . S
C750 C744 1.383 . S
C750 C749 1.379 . S
H751 C745 0.959 . S
H752 C745 0.961 . S
H753 C745 0.960 . S
H754 C746 0.930 . S
H755 C747 0.929 . S
H756 C764 0.929 . S
H757 C766 0.930 . S
H758 C768 0.930 . S
H759 C771 0.929 . S
H760 C774 0.930 . S
H761 C776 0.960 . S
H762 C776 0.960 . S
H763 C776 0.960 . S
C764 H756 0.929 . S
C764 C765 1.377 . S
C764 C766 1.384 . S
C765 C764 1.377 . S
C765 C771 1.390 . S
C766 H757 0.930 . S
C766 C764 1.384 . S
C766 C767 1.372 . S
C767 C766 1.372 . S
C767 C768 1.400 . S
C767 C772 1.490 . S
C768 H758 0.930 . S
C768 C767 1.400 . S
C768 C771 1.386 . S
H769 C785 0.930 . S
H770 C786 0.931 . S
C771 H759 0.929 . S
C771 C765 1.390 . S
C771 C768 1.386 . S
C772 C767 1.490 . S
C772 C774 1.395 . S
C772 C775 1.403 . S
H773 C779 0.930 . S
C774 H760 0.930 . S
C774 C772 1.395 . S
C774 C777 1.403 . S
C775 C772 1.403 . S
C775 C776 1.524 . S
C775 C779 1.400 . S
C776 H761 0.960 . S
C776 H762 0.960 . S
C776 H763 0.960 . S
C776 C775 1.524 . S
C777 C774 1.403 . S
C777 C778 1.392 . S
C777 C781 1.495 . S
C778 C777 1.392 . S
C778 C779 1.385 . S
C778 C780 1.478 . S
C779 H773 0.930 . S
C779 C775 1.400 . S
C779 C778 1.385 . S
C780 C778 1.478 . S
C780 C782 1.381 . S
C780 C786 1.383 . S
C781 C777 1.495 . S
C781 H787 0.959 . S
C781 H788 0.961 . S
C781 H789 0.960 . S
C782 C780 1.381 . S
C782 C783 1.394 . S
C782 H790 0.930 . S
C783 C782 1.394 . S
C783 C784 1.383 . S
C783 H791 0.929 . S
C784 C783 1.383 . S
C784 C785 1.377 . S
C785 H769 0.930 . S
C785 C784 1.377 . S
C785 C786 1.379 . S
C786 H770 0.931 . S
C786 C780 1.383 . S
C786 C785 1.379 . S
H787 C781 0.959 . S
H788 C781 0.961 . S
H789 C781 0.960 . S
H790 C782 0.930 . S
H791 C783 0.929 . S
H792 C800 0.929 . S
H793 C802 0.930 . S
H794 C804 0.930 . S
H795 C807 0.929 . S
H796 C810 0.930 . S
H797 C812 0.960 . S
H798 C812 0.960 . S
H799 C812 0.960 . S
C800 H792 0.929 . S
C800 C801 1.377 . S
C800 C802 1.384 . S
C801 C800 1.377 . S
C801 C807 1.390 . S
C802 H793 0.930 . S
C802 C800 1.384 . S
C802 C803 1.372 . S
C803 C802 1.372 . S
C803 C804 1.400 . S
C803 C808 1.490 . S
C804 H794 0.930 . S
C804 C803 1.400 . S
C804 C807 1.386 . S
H805 C821 0.930 . S
H806 C822 0.931 . S
C807 H795 0.929 . S
C807 C801 1.390 . S
C807 C804 1.386 . S
C808 C803 1.490 . S
C808 C810 1.395 . S
C808 C811 1.403 . S
H809 C815 0.930 . S
C810 H796 0.930 . S
C810 C808 1.395 . S
C810 C813 1.403 . S
C811 C808 1.403 . S
C811 C812 1.524 . S
C811 C815 1.400 . S
C812 H797 0.960 . S
C812 H798 0.960 . S
C812 H799 0.960 . S
C812 C811 1.524 . S
C813 C810 1.403 . S
C813 C814 1.392 . S
C813 C817 1.495 . S
C814 C813 1.392 . S
C814 C815 1.385 . S
C814 C816 1.478 . S
C815 H809 0.930 . S
C815 C811 1.400 . S
C815 C814 1.385 . S
C816 C814 1.478 . S
C816 C818 1.381 . S
C816 C822 1.383 . S
C817 C813 1.495 . S
C817 H823 0.959 . S
C817 H824 0.961 . S
C817 H825 0.960 . S
C818 C816 1.381 . S
C818 C819 1.394 . S
C818 H826 0.930 . S
C819 C818 1.394 . S
C819 C820 1.383 . S
C819 H827 0.929 . S
C820 C819 1.383 . S
C820 C821 1.377 . S
C821 H805 0.930 . S
C821 C820 1.377 . S
C821 C822 1.379 . S
C822 H806 0.931 . S
C822 C816 1.383 . S
C822 C821 1.379 . S
H823 C817 0.959 . S
H824 C817 0.961 . S
H825 C817 0.960 . S
H826 C818 0.930 . S
H827 C819 0.929 . S
H828 C836 0.929 . S
H829 C838 0.930 . S
H830 C840 0.930 . S
H831 C843 0.929 . S
H832 C846 0.930 . S
H833 C848 0.960 . S
H834 C848 0.960 . S
H835 C848 0.960 . S
C836 H828 0.929 . S
C836 C837 1.377 . S
C836 C838 1.384 . S
C837 C836 1.377 . S
C837 C843 1.390 . S
C838 H829 0.930 . S
C838 C836 1.384 . S
C838 C839 1.372 . S
C839 C838 1.372 . S
C839 C840 1.400 . S
C839 C844 1.490 . S
C840 H830 0.930 . S
C840 C839 1.400 . S
C840 C843 1.386 . S
H841 C857 0.930 . S
H842 C858 0.931 . S
C843 H831 0.929 . S
C843 C837 1.390 . S
C843 C840 1.386 . S
C844 C839 1.490 . S
C844 C846 1.395 . S
C844 C847 1.403 . S
H845 C851 0.930 . S
C846 H832 0.930 . S
C846 C844 1.395 . S
C846 C849 1.403 . S
C847 C844 1.403 . S
C847 C848 1.524 . S
C847 C851 1.400 . S
C848 H833 0.960 . S
C848 H834 0.960 . S
C848 H835 0.960 . S
C848 C847 1.524 . S
C849 C846 1.403 . S
C849 C850 1.392 . S
C849 C853 1.495 . S
C850 C849 1.392 . S
C850 C851 1.385 . S
C850 C852 1.478 . S
C851 H845 0.930 . S
C851 C847 1.400 . S
C851 C850 1.385 . S
C852 C850 1.478 . S
C852 C854 1.381 . S
C852 C858 1.383 . S
C853 C849 1.495 . S
C853 H859 0.959 . S
C853 H860 0.961 . S
C853 H861 0.960 . S
C854 C852 1.381 . S
C854 C855 1.394 . S
C854 H862 0.930 . S
C855 C854 1.394 . S
C855 C856 1.383 . S
C855 H863 0.929 . S
C856 C855 1.383 . S
C856 C857 1.377 . S
C857 H841 0.930 . S
C857 C856 1.377 . S
C857 C858 1.379 . S
C858 H842 0.931 . S
C858 C852 1.383 . S
C858 C857 1.379 . S
H859 C853 0.959 . S
H860 C853 0.961 . S
H861 C853 0.960 . S
H862 C854 0.930 . S
H863 C855 0.929 . S
C297 C4 1.283 . S
C316 C74 1.288 . S
C333 C110 1.292 . S
C352 C40 1.265 . S
C369 C76 1.283 . S
C388 C2 1.288 . S
C405 C112 1.288 . S
C424 C38 1.303 . S
C441 C218 1.292 . S
C460 C148 1.302 . S
C477 C184 1.283 . S
C496 C254 1.302 . S
C513 C220 1.285 . S
C532 C146 1.301 . S
C549 C256 1.288 . S
C568 C182 1.284 . S
C585 C3 1.518 . S
C604 C147 1.512 . S
C621 C39 1.518 . S
C640 C183 1.512 . S
C657 C75 1.518 . S
C676 C219 1.515 . S
C693 C255 1.519 . S
C712 C111 1.514 . S
C729 C14 1.446 . S
C748 C50 1.414 . S
C765 C122 1.454 . S
C784 C86 1.451 . S
C801 C194 1.452 . S
C820 C158 1.434 . S
C837 C230 1.454 . S
C856 C266 1.421 . S
