# Generated by pormake.
# Topology zfx, (5)-cn, num edge types: 1
# Building blocks:
#     Node 0, Type 0, BuildingBlock: BEQFEK_clean_sbu_0, # of connection points: 5
#     Node 1, Type 0, BuildingBlock: BEQFEK_clean_sbu_0, # of connection points: 5
#     Node 2, Type 0, BuildingBlock: BEQFEK_clean_sbu_0, # of connection points: 5
#     Node 3, Type 0, BuildingBlock: BEQFEK_clean_sbu_0, # of connection points: 5
#     Node 4, Type 0, BuildingBlock: BEQFEK_clean_sbu_0, # of connection points: 5
#     Node 5, Type 0, BuildingBlock: BEQFEK_clean_sbu_0, # of connection points: 5
#     Node 6, Type 0, BuildingBlock: BEQFEK_clean_sbu_0, # of connection points: 5
#     Node 7, Type 0, BuildingBlock: BEQFEK_clean_sbu_0, # of connection points: 5
#     Node 8, Type 0, BuildingBlock: BEQFEK_clean_sbu_0, # of connection points: 5
#     Node 9, Type 0, BuildingBlock: BEQFEK_clean_sbu_0, # of connection points: 5
#     Node 10, Type 0, BuildingBlock: BEQFEK_clean_sbu_0, # of connection points: 5
#     Node 11, Type 0, BuildingBlock: BEQFEK_clean_sbu_0, # of connection points: 5
#     Node 12, Type 0, BuildingBlock: BEQFEK_clean_sbu_0, # of connection points: 5
#     Node 13, Type 0, BuildingBlock: BEQFEK_clean_sbu_0, # of connection points: 5
#     Node 14, Type 0, BuildingBlock: BEQFEK_clean_sbu_0, # of connection points: 5
#     Node 15, Type 0, BuildingBlock: BEQFEK_clean_sbu_0, # of connection points: 5
#     Edge 16, Type (0, 0), BuildingBlock: ZUJKAS_clean_linker_0, # of connection points: 2
#     Edge 17, Type (0, 0), BuildingBlock: ZUJKAS_clean_linker_0, # of connection points: 2
#     Edge 18, Type (0, 0), BuildingBlock: ZUJKAS_clean_linker_0, # of connection points: 2
#     Edge 19, Type (0, 0), BuildingBlock: ZUJKAS_clean_linker_0, # of connection points: 2
#     Edge 20, Type (0, 0), BuildingBlock: ZUJKAS_clean_linker_0, # of connection points: 2
#     Edge 21, Type (0, 0), BuildingBlock: ZUJKAS_clean_linker_0, # of connection points: 2
#     Edge 22, Type (0, 0), BuildingBlock: ZUJKAS_clean_linker_0, # of connection points: 2
#     Edge 23, Type (0, 0), BuildingBlock: ZUJKAS_clean_linker_0, # of connection points: 2
#     Edge 24, Type (0, 0), BuildingBlock: ZUJKAS_clean_linker_0, # of connection points: 2
#     Edge 25, Type (0, 0), BuildingBlock: ZUJKAS_clean_linker_0, # of connection points: 2
#     Edge 26, Type (0, 0), BuildingBlock: ZUJKAS_clean_linker_0, # of connection points: 2
#     Edge 27, Type (0, 0), BuildingBlock: ZUJKAS_clean_linker_0, # of connection points: 2
#     Edge 28, Type (0, 0), BuildingBlock: ZUJKAS_clean_linker_0, # of connection points: 2
#     Edge 29, Type (0, 0), BuildingBlock: ZUJKAS_clean_linker_0, # of connection points: 2
#     Edge 30, Type (0, 0), BuildingBlock: ZUJKAS_clean_linker_0, # of connection points: 2
#     Edge 31, Type (0, 0), BuildingBlock: ZUJKAS_clean_linker_0, # of connection points: 2
#     Edge 32, Type (0, 0), BuildingBlock: ZUJKAS_clean_linker_0, # of connection points: 2
#     Edge 33, Type (0, 0), BuildingBlock: ZUJKAS_clean_linker_0, # of connection points: 2
#     Edge 34, Type (0, 0), BuildingBlock: ZUJKAS_clean_linker_0, # of connection points: 2
#     Edge 35, Type (0, 0), BuildingBlock: ZUJKAS_clean_linker_0, # of connection points: 2
#     Edge 36, Type (0, 0), BuildingBlock: ZUJKAS_clean_linker_0, # of connection points: 2
#     Edge 37, Type (0, 0), BuildingBlock: ZUJKAS_clean_linker_0, # of connection points: 2
#     Edge 38, Type (0, 0), BuildingBlock: ZUJKAS_clean_linker_0, # of connection points: 2
#     Edge 39, Type (0, 0), BuildingBlock: ZUJKAS_clean_linker_0, # of connection points: 2
#     Edge 40, Type (0, 0), BuildingBlock: ZUJKAS_clean_linker_0, # of connection points: 2
#     Edge 41, Type (0, 0), BuildingBlock: ZUJKAS_clean_linker_0, # of connection points: 2
#     Edge 42, Type (0, 0), BuildingBlock: ZUJKAS_clean_linker_0, # of connection points: 2
#     Edge 43, Type (0, 0), BuildingBlock: ZUJKAS_clean_linker_0, # of connection points: 2
#     Edge 44, Type (0, 0), BuildingBlock: ZUJKAS_clean_linker_0, # of connection points: 2
#     Edge 45, Type (0, 0), BuildingBlock: ZUJKAS_clean_linker_0, # of connection points: 2
#     Edge 46, Type (0, 0), BuildingBlock: ZUJKAS_clean_linker_0, # of connection points: 2
#     Edge 47, Type (0, 0), BuildingBlock: ZUJKAS_clean_linker_0, # of connection points: 2
#     Edge 48, Type (0, 0), BuildingBlock: ZUJKAS_clean_linker_0, # of connection points: 2
#     Edge 49, Type (0, 0), BuildingBlock: ZUJKAS_clean_linker_0, # of connection points: 2
#     Edge 50, Type (0, 0), BuildingBlock: ZUJKAS_clean_linker_0, # of connection points: 2
#     Edge 51, Type (0, 0), BuildingBlock: ZUJKAS_clean_linker_0, # of connection points: 2
#     Edge 52, Type (0, 0), BuildingBlock: ZUJKAS_clean_linker_0, # of connection points: 2
#     Edge 53, Type (0, 0), BuildingBlock: ZUJKAS_clean_linker_0, # of connection points: 2
#     Edge 54, Type (0, 0), BuildingBlock: ZUJKAS_clean_linker_0, # of connection points: 2
#     Edge 55, Type (0, 0), BuildingBlock: ZUJKAS_clean_linker_0, # of connection points: 2
# Relax obj value: 0.543
# Max RMSD: 0.177
# Mean RMSD: 0.177
data_MOF--net-zfx--node1-BEQFEK_clean_sbu_0--edge1-ZUJKAS_clean_linker_0
_symmetry_space_group_name_H-M    P1
_symmetry_Int_Tables_number       1
_symmetry_cell_setting            triclinic
loop_
_symmetry_equiv_pos_as_xyz
'x, y, z'
_cell_length_a     74.361607
_cell_length_b     74.404664
_cell_length_c     31.374789
_cell_angle_alpha  90.005901
_cell_angle_beta   90.007109
_cell_angle_gamma 90.007258
loop_
_atom_site_label
_atom_site_type_symbol
_atom_site_fract_x
_atom_site_fract_y
_atom_site_fract_z
_atom_type_partial_charge
Co0 Co 0.49847 0.12 0.41157 0.0
Co1 Co 0.53476 0.10871 0.3713 0.0
C2 C 0.53361 0.13473 0.44431 0.0
O3 O 0.51645 0.13393 0.44531 0.0
O4 O 0.54264 0.1258 0.41688 0.0
C5 C 0.46742 0.14083 0.43955 0.0
O6 O 0.47745 0.15534 0.4372 0.0
C7 C 0.56908 0.1083 0.32414 0.0
C8 C 0.56962 0.07995 0.30295 0.0
C9 C 0.57897 0.09599 0.30053 0.0
N10 N 0.55456 0.09985 0.33971 0.0
N11 N 0.55515 0.08284 0.3276 0.0
C12 C 0.57228 0.12807 0.32834 0.0
H13 H 0.56012 0.13492 0.34084 0.0
H14 H 0.57609 0.1339 0.29704 0.0
H15 H 0.58358 0.13036 0.3508 0.0
C16 C 0.49058 0.13082 0.32261 0.0
N17 N 0.50146 0.12348 0.35222 0.0
N18 N 0.51695 0.11925 0.3346 0.0
C19 C 0.51644 0.12406 0.29301 0.0
C20 C 0.4997 0.13151 0.28411 0.0
C21 C 0.47231 0.13829 0.33197 0.0
H22 H 0.47378 0.15026 0.3527 0.0
H23 H 0.46508 0.1424 0.30268 0.0
H24 H 0.4642 0.12811 0.3492 0.0
O25 O 0.49996 0.09461 0.42756 0.0
O26 O 0.52583 0.08668 0.39902 0.0
H27 H 0.52708 0.12361 0.22891 0.0
H28 H 0.54229 0.13156 0.26953 0.0
C29 C 0.53161 0.12162 0.26228 0.0
H30 H 0.53737 0.10796 0.26574 0.0
H31 H 0.54531 0.07334 0.33483 0.0
O32 O 0.47398 0.12575 0.42934 0.0
C33 C 0.5119 0.08286 0.42045 0.0
Co34 Co 0.14122 0.22744 0.6756 0.0
Co35 Co 0.14857 0.26103 0.62004 0.0
C36 C 0.12842 0.26477 0.70126 0.0
O37 O 0.1302 0.24789 0.70696 0.0
O38 O 0.13458 0.2724 0.66782 0.0
C39 C 0.14192 0.20662 0.74512 0.0
O40 O 0.14844 0.22206 0.75836 0.0
C41 C 0.14868 0.29372 0.56593 0.0
C42 C 0.17225 0.28754 0.52543 0.0
C43 C 0.15927 0.30047 0.53306 0.0
N44 N 0.15529 0.2776 0.57718 0.0
N45 N 0.16941 0.27407 0.55305 0.0
C46 C 0.13189 0.30163 0.58432 0.0
H47 H 0.1235 0.29098 0.59904 0.0
H48 H 0.12405 0.30868 0.5593 0.0
H49 H 0.13558 0.31149 0.60937 0.0
C50 C 0.1236 0.21469 0.59616 0.0
N51 N 0.13304 0.22688 0.61867 0.0
N52 N 0.13568 0.24127 0.59518 0.0
C53 C 0.12778 0.23877 0.55687 0.0
C54 C 0.11982 0.22179 0.55609 0.0
C55 C 0.1187 0.19648 0.61272 0.0
H56 H 0.1298 0.1911 0.63258 0.0
H57 H 0.10656 0.19766 0.6331 0.0
H58 H 0.11588 0.18696 0.58632 0.0
O59 O 0.16737 0.22913 0.67905 0.0
O60 O 0.17251 0.2537 0.64183 0.0
H61 H 0.13992 0.25391 0.50675 0.0
H62 H 0.11614 0.24992 0.49932 0.0
C63 C 0.12673 0.25294 0.52313 0.0
H64 H 0.12383 0.26614 0.538 0.0
H65 H 0.17706 0.26236 0.55529 0.0
O66 O 0.13627 0.20526 0.70707 0.0
C67 C 0.17815 0.24076 0.66448 0.0
Co68 Co 0.02821 0.87405 0.91544 0.0
Co69 Co 0.99091 0.88229 0.87617 0.0
C70 C 0.99388 0.86115 0.95707 0.0
O71 O 0.01099 0.86266 0.95626 0.0
O72 O 0.98413 0.86774 0.92741 0.0
C73 C 0.05984 0.85478 0.94515 0.0
O74 O 0.05013 0.84003 0.9446 0.0
C75 C 0.95518 0.8805 0.83374 0.0
C76 C 0.95594 0.90641 0.79924 0.0
C77 C 0.94552 0.89122 0.80549 0.0
N78 N 0.97068 0.88895 0.84296 0.0
N79 N 0.97088 0.90452 0.82274 0.0
C80 C 0.94963 0.86294 0.85296 0.0
H81 H 0.9545 0.86203 0.88626 0.0
H82 H 0.95577 0.85174 0.83477 0.0
H83 H 0.93478 0.86143 0.85245 0.0
C84 C 0.03441 0.85799 0.82986 0.0
N85 N 0.02406 0.86663 0.85855 0.0
N86 N 0.00827 0.87005 0.84146 0.0
C87 C 0.0081 0.86363 0.80113 0.0
C88 C 0.02464 0.85564 0.79259 0.0
C89 C 0.05364 0.85291 0.83719 0.0
H90 H 0.0607 0.86388 0.85425 0.0
H91 H 0.05414 0.84061 0.85711 0.0
H92 H 0.06072 0.85022 0.80672 0.0
O93 O 0.02696 0.90018 0.92088 0.0
O94 O -2e-05 0.90596 0.89532 0.0
H95 H 0.98878 0.8788 0.7658 0.0
H96 H 0.99469 0.85755 0.74143 0.0
C97 C 0.99218 0.86453 0.77209 0.0
H98 H 0.98047 0.85821 0.78792 0.0
H99 H 0.98147 0.91369 0.8241 0.0
O100 O 0.05291 0.86946 0.93323 0.0
C101 C 0.01459 0.91125 0.91198 0.0
Co102 Co 0.38186 0.76116 0.16476 0.0
Co103 Co 0.37401 0.72511 0.11897 0.0
C104 C 0.39556 0.72561 0.19901 0.0
O105 O 0.39357 0.74262 0.20101 0.0
O106 O 0.38899 0.71656 0.16809 0.0
C107 C 0.37973 0.78763 0.22378 0.0
O108 O 0.37013 0.77464 0.24073 0.0
C109 C 0.37631 0.69141 0.06925 0.0
C110 C 0.34954 0.69175 0.03848 0.0
C111 C 0.36536 0.68201 0.04103 0.0
N112 N 0.36729 0.70602 0.08244 0.0
N113 N 0.35124 0.706 0.06436 0.0
C114 C 0.39541 0.68755 0.08111 0.0
H115 H 0.40182 0.69963 0.09524 0.0
H116 H 0.40313 0.6831 0.05272 0.0
H117 H 0.3957 0.6766 0.1051 0.0
C118 C 0.39864 0.77006 0.0823 0.0
N119 N 0.38931 0.75893 0.10779 0.0
N120 N 0.38597 0.74382 0.08749 0.0
C121 C 0.39303 0.74498 0.04787 0.0
C122 C 0.40143 0.76163 0.04342 0.0
C123 C 0.4046 0.78849 0.09523 0.0
H124 H 0.39311 0.79584 0.10957 0.0
H125 H 0.41523 0.78732 0.11989 0.0
H126 H 0.40983 0.79629 0.06776 0.0
O127 O 0.35565 0.7595 0.16983 0.0
O128 O 0.35043 0.73294 0.14146 0.0
H129 H 0.37884 0.72513 0.01174 0.0
H130 H 0.3984 0.73418 0.9849 0.0
C131 C 0.39282 0.72998 0.01611 0.0
H132 H 0.40098 0.71868 0.02849 0.0
H133 H 0.34158 0.71597 0.06889 0.0
O134 O 0.38753 0.78488 0.18837 0.0
C135 C 0.34488 0.74697 0.16027 0.0
Co136 Co 0.50075 0.86902 0.58429 0.0
Co137 Co 0.53556 0.87703 0.63461 0.0
C138 C 0.53774 0.85809 0.55163 0.0
O139 O 0.52072 0.85971 0.54846 0.0
O140 O 0.5461 0.86369 0.58469 0.0
C141 C 0.47585 0.84928 0.53407 0.0
O142 O 0.48858 0.83705 0.53259 0.0
C143 C 0.57008 0.88093 0.68254 0.0
C144 C 0.56077 0.90016 0.73158 0.0
C145 C 0.57577 0.8908 0.71782 0.0
N146 N 0.55251 0.88431 0.67631 0.0
N147 N 0.54714 0.89592 0.7055 0.0
C148 C 0.5812 0.86943 0.65365 0.0
H149 H 0.57644 0.87077 0.62033 0.0
H150 H 0.57967 0.85515 0.66321 0.0
H151 H 0.59561 0.87322 0.65528 0.0
C152 C 0.49064 0.85057 0.66408 0.0
N153 N 0.50216 0.86018 0.64015 0.0
N154 N 0.51698 0.86319 0.66181 0.0
C155 C 0.51541 0.85532 0.70046 0.0
C156 C 0.49864 0.84704 0.70319 0.0
C157 C 0.47199 0.84571 0.65022 0.0
H158 H 0.46584 0.85716 0.63294 0.0
H159 H 0.47268 0.83411 0.62807 0.0
H160 H 0.46334 0.84214 0.67774 0.0
O161 O 0.50069 0.89512 0.58332 0.0
O162 O 0.52662 0.90077 0.61459 0.0
H163 H 0.52975 0.86773 0.75149 0.0
H164 H 0.52812 0.84363 0.75584 0.0
C165 C 0.53001 0.85496 0.73327 0.0
H166 H 0.54331 0.85372 0.71757 0.0
H167 H 0.53407 0.90094 0.7076 0.0
O168 O 0.47803 0.8631 0.55696 0.0
C169 C 0.5125 0.90618 0.59583 0.0
Co170 Co 0.39631 0.23482 0.82278 0.0
Co171 Co 0.38492 0.26741 0.87799 0.0
C172 C 0.40821 0.27282 0.80178 0.0
O173 O 0.40765 0.25592 0.79532 0.0
O174 O 0.40025 0.27987 0.83381 0.0
C175 C 0.39952 0.21501 0.75281 0.0
O176 O 0.39388 0.23075 0.73937 0.0
C177 C 0.38256 0.29875 0.93577 0.0
C178 C 0.35618 0.29328 0.96578 0.0
C179 C 0.37029 0.30539 0.96526 0.0
N180 N 0.37585 0.28347 0.91951 0.0
N181 N 0.36004 0.28038 0.93733 0.0
C182 C 0.40084 0.30589 0.92537 0.0
H183 H 0.40938 0.29511 0.91162 0.0
H184 H 0.40734 0.31149 0.95431 0.0
H185 H 0.39952 0.3168 0.90148 0.0
C186 C 0.41084 0.22186 0.90475 0.0
N187 N 0.40194 0.23403 0.8811 0.0
N188 N 0.39753 0.24787 0.90497 0.0
C189 C 0.40359 0.2449 0.94498 0.0
C190 C 0.41219 0.22826 0.9462 0.0
C191 C 0.41885 0.205 0.88692 0.0
H192 H 0.40791 0.19523 0.88037 0.0
H193 H 0.42564 0.20802 0.85626 0.0
H194 H 0.42868 0.19887 0.90917 0.0
O195 O 0.37039 0.23558 0.81284 0.0
O196 O 0.36236 0.2593 0.85027 0.0
H197 H 0.38624 0.26062 0.98451 0.0
H198 H 0.40574 0.25191 0.01189 0.0
C199 C 0.40078 0.25759 0.98138 0.0
H200 H 0.40787 0.27039 0.97464 0.0
H201 H 0.35198 0.26928 0.93048 0.0
O202 O 0.40319 0.21299 0.79202 0.0
C203 C 0.35844 0.24646 0.82537 0.0
Co204 Co 0.02158 0.12803 0.08018 0.0
Co205 Co 0.98762 0.11426 0.12721 0.0
C206 C 0.98455 0.13993 0.05363 0.0
O207 O 0.00161 0.14018 0.05009 0.0
O208 O 0.97687 0.13063 0.08267 0.0
C209 C 0.0449 0.13416 0.0162 0.0
O210 O 0.02991 0.13022 0.99608 0.0
C211 C 0.95644 0.11208 0.1853 0.0
C212 C 0.95578 0.08279 0.19737 0.0
C213 C 0.94754 0.09879 0.20842 0.0
N214 N 0.96939 0.10417 0.16215 0.0
N215 N 0.96871 0.08665 0.16897 0.0
C216 C 0.95397 0.13201 0.18766 0.0
H217 H 0.96571 0.13904 0.17352 0.0
H218 H 0.9521 0.13633 0.22123 0.0
H219 H 0.94179 0.13582 0.16936 0.0
C220 C 0.03178 0.13987 0.16638 0.0
N221 N 0.02024 0.13186 0.1394 0.0
N222 N 0.00615 0.12592 0.16058 0.0
C223 C 0.00859 0.12976 0.2024 0.0
C224 C 0.02489 0.13879 0.2074 0.0
C225 C 0.04862 0.14917 0.15237 0.0
H226 H 0.04606 0.15668 0.12246 0.0
H227 H 0.05362 0.15864 0.17697 0.0
H228 H 0.05913 0.13895 0.14582 0.0
O229 O 0.02171 0.10234 0.06597 0.0
O230 O 0.99722 0.09279 0.09824 0.0
H231 H 0.0036 0.12287 0.26814 0.0
H232 H 0.98545 0.13405 0.24126 0.0
C233 C 0.99626 0.12394 0.23744 0.0
H234 H 0.99013 0.11077 0.22971 0.0
H235 H 0.97748 0.07734 0.15544 0.0
O236 O 0.04468 0.13563 0.05646 0.0
C237 C 0.01087 0.0898 0.07515 0.0
Co238 Co 0.12866 0.76288 0.31565 0.0
Co239 Co 0.13564 0.72842 0.36853 0.0
C240 C 0.11567 0.7259 0.28703 0.0
O241 O 0.11785 0.74279 0.28234 0.0
O242 O 0.12134 0.71783 0.32038 0.0
C243 C 0.13143 0.78451 0.24893 0.0
O244 O 0.13818 0.76905 0.23646 0.0
C245 C 0.13602 0.69571 0.42359 0.0
C246 C 0.16059 0.70177 0.46075 0.0
C247 C 0.14715 0.68912 0.45566 0.0
N248 N 0.14266 0.71161 0.41069 0.0
N249 N 0.15738 0.71503 0.43286 0.0
C250 C 0.11987 0.68689 0.40434 0.0
H251 H 0.11897 0.69014 0.36995 0.0
H252 H 0.10757 0.69211 0.42009 0.0
H253 H 0.12042 0.67209 0.40852 0.0
C254 C 0.11136 0.77488 0.39583 0.0
N255 N 0.12037 0.76275 0.37222 0.0
N256 N 0.12321 0.74818 0.39495 0.0
C257 C 0.11596 0.75057 0.43402 0.0
C258 C 0.10817 0.76759 0.43592 0.0
C259 C 0.1065 0.79328 0.38043 0.0
H260 H 0.11773 0.79893 0.36142 0.0
H261 H 0.09454 0.7923 0.35939 0.0
H262 H 0.10343 0.80246 0.40733 0.0
O263 O 0.15486 0.76132 0.31368 0.0
O264 O 0.15949 0.73545 0.34579 0.0
H265 H 0.1293 0.73489 0.48143 0.0
H266 H 0.10606 0.73981 0.49378 0.0
C267 C 0.11561 0.7364 0.46785 0.0
H268 H 0.11167 0.72336 0.45356 0.0
H269 H 0.1652 0.72657 0.42913 0.0
O270 O 0.12426 0.78554 0.28559 0.0
C271 C 0.16541 0.749 0.32571 0.0
Co272 Co 0.88927 0.74091 0.34442 0.0
Co273 Co 0.87793 0.77698 0.38472 0.0
C274 C 0.90385 0.77689 0.31327 0.0
O275 O 0.90235 0.75982 0.3118 0.0
O276 O 0.8955 0.78605 0.34141 0.0
C277 C 0.91417 0.71282 0.32205 0.0
O278 O 0.92695 0.72349 0.33607 0.0
C279 C 0.87501 0.81066 0.43433 0.0
C280 C 0.84651 0.80898 0.45423 0.0
C281 C 0.86187 0.81933 0.45822 0.0
N282 N 0.86767 0.79585 0.4172 0.0
N283 N 0.85057 0.79512 0.4286 0.0
C284 C 0.89454 0.81527 0.43112 0.0
H285 H 0.90229 0.80378 0.41802 0.0
H286 H 0.89991 0.81906 0.4629 0.0
H287 H 0.89618 0.82696 0.40952 0.0
C288 C 0.89851 0.73214 0.43392 0.0
N289 N 0.89212 0.74341 0.40393 0.0
N290 N 0.88838 0.75904 0.42141 0.0
C291 C 0.89295 0.75834 0.46315 0.0
C292 C 0.89948 0.74125 0.47234 0.0
C293 C 0.90434 0.7132 0.42558 0.0
H294 H 0.89562 0.70698 0.40104 0.0
H295 H 0.91845 0.71325 0.41421 0.0
H296 H 0.90379 0.70487 0.45478 0.0
O297 O 0.86395 0.74104 0.32817 0.0
O298 O 0.85651 0.76754 0.35416 0.0
H299 H 0.87731 0.77929 0.49161 0.0
H300 H 0.89368 0.76924 0.52701 0.0
C301 C 0.89106 0.77362 0.49376 0.0
H302 H 0.90078 0.78431 0.48517 0.0
H303 H 0.8418 0.78476 0.42018 0.0
O304 O 0.8979 0.71776 0.32443 0.0
C305 C 0.85244 0.75335 0.33385 0.0
Co306 Co 0.63304 0.26303 0.82624 0.0
Co307 Co 0.64202 0.22767 0.87394 0.0
C308 C 0.62068 0.22714 0.79277 0.0
O309 O 0.62175 0.24421 0.79017 0.0
O310 O 0.62775 0.21864 0.82395 0.0
C311 C 0.63582 0.28842 0.76609 0.0
O312 O 0.64386 0.27435 0.74938 0.0
C313 C 0.63977 0.19426 0.92519 0.0
C314 C 0.66624 0.19544 0.95727 0.0
C315 C 0.65059 0.18543 0.95479 0.0
N316 N 0.64864 0.20891 0.9116 0.0
N317 N 0.66451 0.20937 0.93049 0.0
C318 C 0.62173 0.18869 0.90866 0.0
H319 H 0.62013 0.19294 0.87505 0.0
H320 H 0.61106 0.19537 0.92759 0.0
H321 H 0.61999 0.1739 0.91091 0.0
C322 C 0.61637 0.27242 0.90851 0.0
N323 N 0.62547 0.26106 0.88312 0.0
N324 N 0.62937 0.2463 0.90428 0.0
C325 C 0.6229 0.24793 0.94438 0.0
C326 C 0.61444 0.26457 0.94839 0.0
C327 C 0.60896 0.29007 0.89381 0.0
H328 H 0.60348 0.28868 0.86109 0.0
H329 H 0.59818 0.29499 0.91529 0.0
H330 H 0.61999 0.3001 0.89284 0.0
O331 O 0.65927 0.26173 0.82226 0.0
O332 O 0.66567 0.23592 0.85297 0.0
H333 H 0.63977 0.22978 0.9791 0.0
H334 H 0.62199 0.2396 0.01053 0.0
C335 C 0.62555 0.23421 0.97868 0.0
H336 H 0.61703 0.22233 0.97179 0.0
H337 H 0.67404 0.21947 0.92584 0.0
O338 O 0.62811 0.28678 0.80198 0.0
C339 C 0.67062 0.24996 0.83334 0.0
Co340 Co 0.63762 0.73173 0.16769 0.0
Co341 Co 0.64519 0.76665 0.11737 0.0
C342 C 0.6246 0.76848 0.19805 0.0
O343 O 0.62655 0.75149 0.20182 0.0
O344 O 0.63072 0.77686 0.16557 0.0
C345 C 0.61683 0.70455 0.20977 0.0
O346 O 0.60327 0.71577 0.20603 0.0
C347 C 0.64582 0.79972 0.06386 0.0
C348 C 0.67009 0.7937 0.02557 0.0
C349 C 0.65668 0.80632 0.03143 0.0
N350 N 0.65264 0.78388 0.0766 0.0
N351 N 0.66723 0.78052 0.05392 0.0
C352 C 0.62859 0.80751 0.08003 0.0
H353 H 0.6204 0.79701 0.096 0.0
H354 H 0.62086 0.81362 0.05347 0.0
H355 H 0.6317 0.81823 0.10348 0.0
C356 C 0.62132 0.72069 0.0856 0.0
N357 N 0.63012 0.73255 0.1104 0.0
N358 N 0.6326 0.74758 0.08916 0.0
C359 C 0.62503 0.74587 0.05021 0.0
C360 C 0.61772 0.72872 0.04663 0.0
C361 C 0.6154 0.70247 0.10024 0.0
H362 H 0.62662 0.69567 0.11704 0.0
H363 H 0.60408 0.70405 0.12292 0.0
H364 H 0.61078 0.69393 0.07347 0.0
O365 O 0.66374 0.73292 0.17282 0.0
O366 O 0.66873 0.7587 0.14037 0.0
H367 H 0.63897 0.76338 0.00759 0.0
H368 H 0.61719 0.75631 0.98845 0.0
C369 C 0.62493 0.76034 0.01713 0.0
H370 H 0.61906 0.77276 0.03086 0.0
H371 H 0.67503 0.76894 0.05713 0.0
O372 O 0.63193 0.70871 0.19404 0.0
C373 C 0.67444 0.74515 0.16085 0.0
Co374 Co 0.88559 0.26339 0.66536 0.0
Co375 Co 0.87621 0.22816 0.61786 0.0
C376 C 0.89709 0.22714 0.69927 0.0
O377 O 0.89618 0.24423 0.70172 0.0
O378 O 0.89021 0.2187 0.66777 0.0
C379 C 0.88394 0.28915 0.72557 0.0
O380 O 0.87481 0.27578 0.74234 0.0
C381 C 0.8779 0.19462 0.56803 0.0
C382 C 0.85093 0.19494 0.53818 0.0
C383 C 0.86669 0.1851 0.54066 0.0
N384 N 0.86905 0.20934 0.58108 0.0
N385 N 0.85291 0.20936 0.56346 0.0
C386 C 0.89707 0.19076 0.57916 0.0
H387 H 0.90375 0.20306 0.59148 0.0
H388 H 0.90443 0.18565 0.55088 0.0
H389 H 0.89749 0.18032 0.60438 0.0
C390 C 0.90285 0.27228 0.58345 0.0
N391 N 0.8933 0.26117 0.60854 0.0
N392 N 0.88934 0.2464 0.58744 0.0
C393 C 0.89626 0.24776 0.5477 0.0
C394 C 0.90503 0.26425 0.54383 0.0
C395 C 0.9106 0.28975 0.5984 0.0
H396 H 0.91619 0.28811 0.63093 0.0
H397 H 0.92137 0.29463 0.57686 0.0
H398 H 0.89972 0.29994 0.59997 0.0
O399 O 0.85933 0.26285 0.66935 0.0
O400 O 0.8528 0.237 0.63896 0.0
H401 H 0.87991 0.22896 0.51343 0.0
H402 H 0.89743 0.23924 0.4818 0.0
C403 C 0.89399 0.23383 0.51373 0.0
H404 H 0.9029 0.22226 0.52082 0.0
H405 H 0.84332 0.2194 0.5681 0.0
O406 O 0.89152 0.2869 0.68971 0.0
C407 C 0.84792 0.25111 0.6584 0.0
Co408 Co 0.99484 0.61878 0.90361 0.0
Co409 Co 0.03048 0.61032 0.85784 0.0
C410 C 0.03106 0.63256 0.93567 0.0
O411 O 0.01408 0.63044 0.93805 0.0
O412 O 0.04 0.62595 0.90467 0.0
C413 C 0.96941 0.6417 0.9416 0.0
O414 O 0.98076 0.65439 0.93045 0.0
C415 C 0.06425 0.61 0.8083 0.0
C416 C 0.06238 0.58301 0.779 0.0
C417 C 0.07316 0.59814 0.78136 0.0
N418 N 0.04898 0.60212 0.82132 0.0
N419 N 0.04805 0.58594 0.80407 0.0
C420 C 0.06927 0.62895 0.81894 0.0
H421 H 0.05745 0.63638 0.83147 0.0
H422 H 0.07465 0.6359 0.79036 0.0
H423 H 0.07988 0.62886 0.8438 0.0
C424 C 0.98499 0.63346 0.81916 0.0
N425 N 0.99647 0.625 0.84559 0.0
N426 N 0.01183 0.62218 0.8259 0.0
C427 C 0.01071 0.6292 0.78624 0.0
C428 C 0.99363 0.63654 0.78063 0.0
C429 C 0.96669 0.63983 0.83211 0.0
H430 H 0.96808 0.65245 0.85056 0.0
H431 H 0.95796 0.64261 0.80431 0.0
H432 H 0.96012 0.62962 0.85258 0.0
O433 O 0.99565 0.59291 0.91227 0.0
O434 O 0.02213 0.58741 0.88357 0.0
H435 H 0.03109 0.61521 0.75136 0.0
H436 H 0.02117 0.63388 0.72284 0.0
C437 C 0.02571 0.62904 0.75452 0.0
H438 H 0.03674 0.63779 0.76615 0.0
H439 H 0.03744 0.577 0.80881 0.0
O440 O 0.97214 0.62574 0.92929 0.0
C441 C 0.00822 0.58209 0.90333 0.0
Co442 Co 0.52889 0.37819 0.41416 0.0
Co443 Co 0.49249 0.38581 0.37016 0.0
C444 C 0.49343 0.36731 0.45428 0.0
O445 O 0.51051 0.36882 0.45464 0.0
O446 O 0.48417 0.37288 0.42263 0.0
C447 C 0.55594 0.35827 0.45678 0.0
O448 O 0.54369 0.34554 0.45788 0.0
C449 C 0.45741 0.38384 0.32509 0.0
C450 C 0.45988 0.40799 0.2844 0.0
C451 C 0.44865 0.39367 0.29358 0.0
N452 N 0.47319 0.39192 0.33343 0.0
N453 N 0.47442 0.40647 0.30945 0.0
C454 C 0.45075 0.3675 0.34803 0.0
H455 H 0.45452 0.36821 0.38213 0.0
H456 H 0.45714 0.35534 0.3343 0.0
H457 H 0.43592 0.36626 0.34536 0.0
C458 C 0.53619 0.35903 0.33338 0.0
N459 N 0.52555 0.36893 0.3589 0.0
N460 N 0.51014 0.372 0.33965 0.0
C461 C 0.51049 0.364 0.30096 0.0
C462 C 0.52701 0.3554 0.29582 0.0
C463 C 0.55512 0.3539 0.34416 0.0
H464 H 0.56201 0.36533 0.35988 0.0
H465 H 0.55491 0.34242 0.36672 0.0
H466 H 0.56283 0.35 0.31534 0.0
O467 O 0.52863 0.40434 0.41428 0.0
O468 O 0.50192 0.40981 0.3867 0.0
H469 H 0.49256 0.37783 0.25909 0.0
H470 H 0.4975 0.35501 0.24283 0.0
C471 C 0.49501 0.36394 0.27051 0.0
H472 H 0.48275 0.35934 0.28728 0.0
H473 H 0.48543 0.41515 0.30947 0.0
O474 O 0.55259 0.37268 0.43694 0.0
C475 C 0.51654 0.41533 0.403 0.0
Co476 Co 0.00263 0.36832 0.08009 0.0
Co477 Co 0.03774 0.37817 0.12773 0.0
C478 C 0.03901 0.35695 0.04685 0.0
O479 O 0.02195 0.35802 0.04417 0.0
O480 O 0.04744 0.36367 0.07858 0.0
C481 C 0.97716 0.34957 0.02969 0.0
O482 O 0.99038 0.33814 0.02365 0.0
C483 C 0.07024 0.3767 0.18206 0.0
C484 C 0.0699 0.40427 0.20846 0.0
C485 C 0.07905 0.38811 0.21034 0.0
N486 N 0.05635 0.38571 0.16501 0.0
N487 N 0.05641 0.40224 0.18045 0.0
C488 C 0.07522 0.35788 0.16999 0.0
H489 H 0.07187 0.35538 0.13608 0.0
H490 H 0.0674 0.34824 0.18949 0.0
H491 H 0.08978 0.35545 0.17532 0.0
C492 C 0.99324 0.35217 0.16277 0.0
N493 N 0.00468 0.36112 0.13727 0.0
N494 N 0.01926 0.36545 0.15871 0.0
C495 C 0.01734 0.3595 0.19925 0.0
C496 C 0.00079 0.35085 0.20308 0.0
C497 C 0.97578 0.34437 0.14783 0.0
H498 H 0.96607 0.35542 0.14203 0.0
H499 H 0.97792 0.33721 0.11726 0.0
H500 H 0.97004 0.33482 0.17131 0.0
O501 O 0.00293 0.39442 0.0745 0.0
O502 O 0.02871 0.40133 0.10504 0.0
H503 H 0.03604 0.37673 0.23159 0.0
H504 H 0.02407 0.36142 0.26612 0.0
C505 C 0.03049 0.36297 0.23441 0.0
H506 H 0.0417 0.35322 0.23201 0.0
H507 H 0.0469 0.41203 0.17282 0.0
O508 O 0.97923 0.36234 0.05587 0.0
C509 C 0.01459 0.40597 0.08519 0.0
Co510 Co 0.52234 0.62999 0.58619 0.0
Co511 Co 0.48717 0.61528 0.62622 0.0
C512 C 0.48625 0.64199 0.55421 0.0
O513 O 0.50339 0.64251 0.55303 0.0
O514 O 0.47799 0.63228 0.58152 0.0
C515 C 0.55064 0.65372 0.55605 0.0
O516 O 0.53852 0.66654 0.55427 0.0
C517 C 0.45449 0.61237 0.67912 0.0
C518 C 0.4534 0.58293 0.68862 0.0
C519 C 0.4451 0.59884 0.70025 0.0
N520 N 0.46783 0.6047 0.65675 0.0
N521 N 0.46684 0.5871 0.66183 0.0
C522 C 0.45213 0.63227 0.68297 0.0
H523 H 0.4641 0.63942 0.67029 0.0
H524 H 0.44982 0.63613 0.7167 0.0
H525 H 0.44021 0.63643 0.66415 0.0
C526 C 0.52974 0.64028 0.67509 0.0
N527 N 0.51908 0.63268 0.64549 0.0
N528 N 0.50443 0.62638 0.66375 0.0
C529 C 0.50554 0.62967 0.70616 0.0
C530 C 0.52157 0.63863 0.71454 0.0
C531 C 0.54689 0.64994 0.66508 0.0
H532 H 0.54408 0.66071 0.64165 0.0
H533 H 0.55304 0.65616 0.69367 0.0
H534 H 0.55659 0.6404 0.6506 0.0
O535 O 0.52308 0.6046 0.56897 0.0
O536 O 0.49783 0.59447 0.59688 0.0
H537 H 0.49861 0.62208 0.77036 0.0
H538 H 0.48147 0.63393 0.74164 0.0
C539 C 0.49215 0.62364 0.73868 0.0
H540 H 0.48604 0.61068 0.72908 0.0
H541 H 0.47583 0.57792 0.64855 0.0
O542 O 0.5462 0.6383 0.56946 0.0
C543 C 0.51204 0.59191 0.57539 0.0
H544 H 0.53408 0.05395 0.4094 0.0
H545 H 0.53161 0.02441 0.44281 0.0
H546 H 0.4831 0.04107 0.50688 0.0
H547 H 0.48545 0.07076 0.47386 0.0
H548 H 0.50951 0.02411 0.56029 0.0
H549 H 0.49429 0.9848 0.4142 0.0
H550 H 0.51364 -0.00085 0.40989 0.0
H551 H 0.49174 0.00891 0.41685 0.0
C552 C 0.52281 0.05133 0.43035 0.0
C553 C 0.50994 0.0647 0.43888 0.0
C554 C 0.5214 0.03443 0.44928 0.0
C555 C 0.50709 0.03059 0.47691 0.0
C556 C 0.4942 0.04384 0.48549 0.0
H557 H 0.48293 0.92247 0.56183 0.0
H558 H 0.48021 0.95353 0.53788 0.0
C559 C 0.49555 0.06074 0.46648 0.0
C560 C 0.50589 0.01285 0.49761 0.0
H561 H 0.50208 0.96813 0.47617 0.0
C562 C 0.50774 0.01184 0.54206 0.0
C563 C 0.50336 0.99699 0.47364 0.0
C564 C 0.50048 0.99744 0.42604 0.0
C565 C 0.50767 0.99522 0.56312 0.0
C566 C 0.50592 0.9793 0.5389 0.0
C567 C 0.50354 0.98039 0.4946 0.0
C568 C 0.50687 0.96128 0.55842 0.0
C569 C 0.50943 0.99482 0.61101 0.0
C570 C 0.5227 0.95546 0.57848 0.0
C571 C 0.52431 0.93769 0.59234 0.0
C572 C 0.51018 0.92544 0.58588 0.0
C573 C 0.49412 0.93153 0.56708 0.0
C574 C 0.49251 0.94927 0.5534 0.0
H575 H 0.50569 0.00793 0.6255 0.0
H576 H 0.50084 0.98414 0.62504 0.0
H577 H 0.52361 0.99193 0.61962 0.0
H578 H 0.53406 0.96446 0.58192 0.0
H579 H 0.53687 0.93341 0.60662 0.0
H580 H 0.34772 0.22796 0.75494 0.0
H581 H 0.31765 0.22669 0.724 0.0
H582 H 0.29727 0.25913 0.82728 0.0
H583 H 0.32754 0.26111 0.85753 0.0
H584 H 0.28717 0.21355 0.75127 0.0
H585 H 0.27885 0.28676 0.72716 0.0
H586 H 0.30007 0.27688 0.74214 0.0
H587 H 0.28316 0.28133 0.78187 0.0
C588 C 0.33683 0.23482 0.77113 0.0
C589 C 0.34 0.24475 0.80851 0.0
C590 C 0.31966 0.23409 0.75335 0.0
C591 C 0.30529 0.24314 0.77279 0.0
C592 C 0.30827 0.25253 0.81099 0.0
H593 H 0.19289 0.22205 0.73029 0.0
H594 H 0.22413 0.22212 0.75357 0.0
C595 C 0.32553 0.25352 0.82844 0.0
C596 C 0.28716 0.2425 0.75324 0.0
H597 H 0.25241 0.26883 0.71958 0.0
C598 C 0.27962 0.22564 0.74403 0.0
C599 C 0.27749 0.25829 0.74286 0.0
C600 C 0.28539 0.27682 0.74858 0.0
C601 C 0.26249 0.22412 0.72573 0.0
C602 C 0.25237 0.23988 0.71787 0.0
C603 C 0.26009 0.25674 0.72605 0.0
C604 C 0.23356 0.23922 0.70239 0.0
C605 C 0.25559 0.20563 0.71447 0.0
C606 C 0.22833 0.24924 0.66653 0.0
C607 C 0.21034 0.24957 0.65367 0.0
C608 C 0.19732 0.23975 0.6763 0.0
C609 C 0.20265 0.22955 0.71182 0.0
C610 C 0.22055 0.22947 0.72503 0.0
H611 H 0.26684 0.19615 0.70837 0.0
H612 H 0.24769 0.20025 0.74162 0.0
H613 H 0.24682 0.20599 0.68584 0.0
H614 H 0.23814 0.25695 0.64873 0.0
H615 H 0.20662 0.25756 0.62619 0.0
H616 H 0.99089 0.0596 0.08961 0.0
H617 H 0.99536 0.02975 0.05926 0.0
H618 H 0.04205 0.04873 0.99132 0.0
H619 H 0.03765 0.07878 0.02125 0.0
H620 H 0.01747 0.0291 0.94081 0.0
H621 H 0.03466 0.99299 0.08992 0.0
H622 H 0.01434 0.00592 0.09373 0.0
H623 H 0.03546 0.01718 0.08555 0.0
C624 C 0.0022 0.05744 0.06847 0.0
C625 C 0.01395 0.07157 0.05796 0.0
C626 C 0.00477 0.04035 0.05133 0.0
C627 C 0.01917 0.03703 0.02359 0.0
C628 C 0.03093 0.05105 0.01293 0.0
H629 H 0.04423 0.92729 0.9468 0.0
H630 H 0.04736 0.95852 0.96959 0.0
C631 C 0.0284 0.06818 0.03012 0.0
C632 C 0.02143 0.01905 0.00451 0.0
H633 H 0.02637 0.97482 0.03021 0.0
C634 C 0.01964 0.01722 0.96021 0.0
C635 C 0.02452 0.00368 0.02992 0.0
C636 C 0.02754 0.00501 0.07738 0.0
C637 C 0.02005 0.00025 0.94079 0.0
C638 C 0.02206 0.9848 0.96654 0.0
C639 C 0.02465 0.98671 0.01061 0.0
C640 C 0.02077 0.96644 0.9489 0.0
C641 C 0.01825 -0.00099 0.89299 0.0
C642 C 0.00479 0.96061 0.92954 0.0
C643 C 0.00293 0.94278 0.91641 0.0
C644 C 0.01699 0.93043 0.92282 0.0
C645 C 0.03312 0.93643 0.94147 0.0
C646 C 0.03496 0.95427 0.95449 0.0
H647 H 0.02221 0.01179 0.87724 0.0
H648 H 0.02663 0.98795 0.87996 0.0
H649 H 0.004 0.99627 0.88472 0.0
H650 H 0.99353 0.96972 0.92578 0.0
H651 H 0.99032 0.93859 0.90227 0.0
H652 H 0.3288 0.77435 0.20405 0.0
H653 H 0.2983 0.77505 0.23279 0.0
H654 H 0.28768 0.72299 0.17788 0.0
H655 H 0.31813 0.72219 0.14849 0.0
H656 H 0.25978 0.74836 0.16642 0.0
H657 H 0.28211 0.74411 0.33511 0.0
H658 H 0.29221 0.76202 0.30506 0.0
H659 H 0.2968 0.73907 0.29087 0.0
C660 C 0.31996 0.76309 0.19776 0.0
C661 C 0.32594 0.74814 0.17423 0.0
C662 C 0.30259 0.76348 0.21447 0.0
C663 C 0.29094 0.74891 0.20813 0.0
C664 C 0.29658 0.73428 0.18336 0.0
H665 H 0.19178 0.72411 0.34098 0.0
H666 H 0.22255 0.72426 0.31326 0.0
C667 C 0.31397 0.73387 0.16658 0.0
C668 C 0.27288 0.74889 0.22759 0.0
H669 H 0.25105 0.74958 0.32326 0.0
C670 C 0.25784 0.7486 0.20068 0.0
C671 C 0.27049 0.74894 0.27231 0.0
C672 C 0.28624 0.74839 0.30262 0.0
C673 C 0.24036 0.74868 0.21737 0.0
C674 C 0.23797 0.74933 0.26207 0.0
C675 C 0.253 0.74928 0.289 0.0
C676 C 0.21988 0.74989 0.28133 0.0
C677 C 0.22461 0.74783 0.18709 0.0
C678 C 0.20849 0.76453 0.27357 0.0
C679 C 0.19095 0.7645 0.28926 0.0
C680 C 0.18454 0.74984 0.31318 0.0
C681 C 0.19628 0.73556 0.3225 0.0
C682 C 0.21384 0.73561 0.30672 0.0
H683 H 0.2287 0.74302 0.15499 0.0
H684 H 0.21395 0.7388 0.19959 0.0
H685 H 0.21878 0.76147 0.18349 0.0
H686 H 0.21308 0.77583 0.25473 0.0
H687 H 0.18231 0.77578 0.28174 0.0
H688 H 0.83912 0.72512 0.28766 0.0
H689 H 0.80925 0.72239 0.25579 0.0
H690 H 0.79477 0.77434 0.30619 0.0
H691 H 0.8245 0.77715 0.33866 0.0
H692 H 0.76879 0.74759 0.31948 0.0
H693 H 0.79115 0.75012 0.15054 0.0
H694 H 0.80208 0.73337 0.18268 0.0
H695 H 0.80547 0.75677 0.19427 0.0
C696 C 0.8296 0.73597 0.29202 0.0
C697 C 0.83423 0.7514 0.31556 0.0
C698 C 0.81258 0.73443 0.27355 0.0
C699 C 0.79997 0.74829 0.2781 0.0
C700 C 0.80441 0.76355 0.30215 0.0
H701 H 0.70099 0.7697 0.14476 0.0
H702 H 0.7318 0.76944 0.17197 0.0
C703 C 0.8214 0.76512 0.32066 0.0
C704 C 0.78199 0.74682 0.25845 0.0
H705 H 0.76029 0.74406 0.16279 0.0
C706 C 0.76691 0.74679 0.28524 0.0
C707 C 0.77966 0.74597 0.21376 0.0
C708 C 0.79541 0.74671 0.18351 0.0
C709 C 0.74946 0.74587 0.26851 0.0
C710 C 0.74713 0.74467 0.22387 0.0
C711 C 0.7622 0.7448 0.19703 0.0
C712 C 0.72905 0.74396 0.20453 0.0
C713 C 0.73366 0.74661 0.29868 0.0
C714 C 0.71756 0.72945 0.21287 0.0
C715 C 0.69995 0.72956 0.19751 0.0
C716 C 0.69358 0.74417 0.17337 0.0
C717 C 0.70543 0.7583 0.16346 0.0
C718 C 0.72304 0.75817 0.17891 0.0
H719 H 0.73762 0.75158 0.33073 0.0
H720 H 0.72291 0.75545 0.28591 0.0
H721 H 0.728 0.7329 0.30247 0.0
H722 H 0.72211 0.71821 0.23197 0.0
H723 H 0.69123 0.71839 0.20543 0.0
H724 H 0.83306 0.27915 0.70228 0.0
H725 H 0.80274 0.28093 0.73186 0.0
H726 H 0.7898 0.22961 0.67582 0.0
H727 H 0.82004 0.22774 0.64557 0.0
H728 H 0.76248 0.25602 0.66772 0.0
H729 H 0.78741 0.24939 0.83408 0.0
H730 H 0.79734 0.26731 0.80375 0.0
H731 H 0.80124 0.2444 0.78829 0.0
C732 C 0.82373 0.26831 0.69581 0.0
C733 C 0.82902 0.2532 0.67193 0.0
C734 C 0.80646 0.26932 0.71296 0.0
C735 C 0.79425 0.25523 0.70668 0.0
C736 C 0.79915 0.24054 0.68121 0.0
H737 H 0.6983 0.22611 0.84394 0.0
H738 H 0.72865 0.22836 0.81432 0.0
C739 C 0.81642 0.23951 0.66398 0.0
C740 C 0.77652 0.2555 0.72768 0.0
H741 H 0.75622 0.25442 0.8252 0.0
C742 C 0.76106 0.25572 0.70213 0.0
C743 C 0.77484 0.25487 0.77257 0.0
C744 C 0.79106 0.25382 0.80139 0.0
C745 C 0.74387 0.25541 0.72034 0.0
C746 C 0.74219 0.25513 0.76524 0.0
C747 C 0.75764 0.25481 0.7908 0.0
C748 C 0.72443 0.25456 0.78613 0.0
C749 C 0.72765 0.25496 0.6914 0.0
C750 C 0.71233 0.26882 0.78118 0.0
C751 C 0.695 0.26759 0.7979 0.0
C752 C 0.68955 0.25208 0.82011 0.0
C753 C 0.70205 0.23819 0.82683 0.0
C754 C 0.71938 0.23944 0.80996 0.0
H755 H 0.73129 0.25109 0.65831 0.0
H756 H 0.71741 0.24537 0.70351 0.0
H757 H 0.72146 0.26852 0.69036 0.0
H758 H 0.71616 0.28075 0.76359 0.0
H759 H 0.68576 0.27861 0.79248 0.0
H760 H 0.98107 0.56645 0.94889 0.0
H761 H 0.98081 0.53646 0.98054 0.0
H762 H 0.03286 0.52554 0.92579 0.0
H763 H 0.03323 0.55545 0.89352 0.0
H764 H 0.00766 0.49713 0.91781 0.0
H765 H 0.01258 0.52283 0.08381 0.0
H766 H 0.9944 0.53196 0.05291 0.0
H767 H 0.01722 0.53668 0.03786 0.0
C768 C 0.99242 0.55764 0.94325 0.0
C769 C 0.00725 0.5634 0.91898 0.0
C770 C 0.99228 0.54057 0.96159 0.0
C771 C 0.00697 0.52901 0.95612 0.0
C772 C 0.02147 0.53439 0.93057 0.0
H773 H 0.03801 0.43403 0.09568 0.0
H774 H 0.0354 0.46425 0.06557 0.0
C775 C 0.02164 0.55146 0.91218 0.0
C776 C 0.00737 0.51137 0.97751 0.0
H777 H 0.0085 0.49144 0.07544 0.0
C778 C 0.00782 0.49585 0.95225 0.0
C779 C 0.00781 0.50986 0.02244 0.0
C780 C 0.00814 0.5262 0.05095 0.0
C781 C 0.00855 0.47874 0.97079 0.0
C782 C 0.00857 0.47721 0.01572 0.0
C783 C 0.0083 0.49274 0.04101 0.0
C784 C 0.00936 0.45954 0.03691 0.0
C785 C 0.00964 0.46246 0.9422 0.0
C786 C 0.9953 0.4472 0.03182 0.0
C787 C 0.99673 0.42996 0.04885 0.0
C788 C 0.01225 0.42481 0.07145 0.0
C789 C 0.02593 0.43753 0.07825 0.0
C790 C 0.02448 0.45479 0.06111 0.0
H791 H 0.01362 0.4661 0.90917 0.0
H792 H 0.01945 0.45255 0.95485 0.0
H793 H 0.99626 0.45588 0.9408 0.0
H794 H 0.98337 0.4508 0.01391 0.0
H795 H 0.98586 0.42054 0.04337 0.0
H796 H 0.54682 0.43188 0.43279 0.0
H797 H 0.54983 0.46303 0.45623 0.0
H798 H 0.49519 0.47362 0.41771 0.0
H799 H 0.49205 0.44252 0.39358 0.0
H800 H 0.52045 0.50193 0.3989 0.0
H801 H 0.52366 0.47821 0.56702 0.0
H802 H 0.54001 0.46869 0.5314 0.0
H803 H 0.51656 0.46386 0.52382 0.0
C804 C 0.53549 0.44087 0.42878 0.0
C805 C 0.51909 0.43465 0.41194 0.0
C806 C 0.53725 0.45864 0.44225 0.0
C807 C 0.52263 0.47044 0.43935 0.0
C808 C 0.50659 0.46462 0.42032 0.0
H809 H 0.49124 0.56186 0.5828 0.0
H810 H 0.49571 0.53284 0.5484 0.0
C811 C 0.50482 0.44685 0.40667 0.0
C812 C 0.52352 0.48841 0.4591 0.0
H813 H 0.52555 0.50939 0.55564 0.0
C814 C 0.52172 0.50363 0.43311 0.0
C815 C 0.525 0.49044 0.50378 0.0
C816 C 0.52628 0.47446 0.5333 0.0
C817 C 0.5211 0.52094 0.4508 0.0
C818 C 0.5225 0.52294 0.4955 0.0
C819 C 0.52461 0.50773 0.52136 0.0
C820 C 0.52031 0.54055 0.51649 0.0
C821 C 0.51828 0.53688 0.42184 0.0
C822 C 0.53286 0.55436 0.51035 0.0
C823 C 0.53037 0.57103 0.53003 0.0
C824 C 0.5153 0.57407 0.5562 0.0
C825 C 0.50298 0.56002 0.56282 0.0
C826 C 0.50549 0.54341 0.5432 0.0
H827 H 0.51429 0.53275 0.38914 0.0
H828 H 0.50777 0.54593 0.43494 0.0
H829 H 0.53098 0.54465 0.41957 0.0
H830 H 0.54455 0.55226 0.49036 0.0
H831 H 0.54015 0.58156 0.52439 0.0
H832 H 0.51326 0.16123 0.24477 0.0
H833 H 0.49935 0.17833 0.18629 0.0
H834 H 0.45775 0.13814 0.17606 0.0
H835 H 0.47141 0.12135 0.23502 0.0
H836 H 0.49048 0.17114 0.10273 0.0
H837 H 0.42873 0.18336 0.19721 0.0
H838 H 0.44896 0.17425 0.22046 0.0
H839 H 0.43379 0.15991 0.19142 0.0
C840 C 0.50131 0.15597 0.22943 0.0
C841 C 0.49327 0.1401 0.24437 0.0
C842 C 0.49334 0.16575 0.19622 0.0
C843 C 0.47722 0.15977 0.17753 0.0
C844 C 0.46987 0.14329 0.19076 0.0
H845 H 0.40581 0.19474 0.97707 0.0
H846 H 0.42208 0.17895 0.03394 0.0
C847 C 0.47776 0.13361 0.22408 0.0
C848 C 0.46775 0.17098 0.14522 0.0
H849 H 0.42742 0.19113 0.12359 0.0
C850 C 0.47675 0.17563 0.10743 0.0
C851 C 0.44986 0.177 0.15151 0.0
C852 C 0.43982 0.17355 0.19252 0.0
C853 C 0.46813 0.1856 0.07523 0.0
C854 C 0.45011 0.19116 0.08111 0.0
C855 C 0.44121 0.18677 0.1191 0.0
C856 C 0.44006 0.20106 0.04761 0.0
C857 C 0.47816 0.18975 0.03462 0.0
C858 C 0.44456 0.21885 0.03704 0.0
C859 C 0.43518 0.22793 0.00481 0.0
C860 C 0.42123 0.21931 0.98259 0.0
C861 C 0.41656 0.20164 0.99372 0.0
C862 C 0.42582 0.19263 0.02612 0.0
H863 H 0.49096 0.18212 0.03222 0.0
H864 H 0.46969 0.18657 0.00644 0.0
H865 H 0.48134 0.20431 0.03356 0.0
H866 H 0.45539 0.22566 0.05357 0.0
H867 H 0.4391 0.24151 0.99655 0.0
H868 H 0.00954 0.16042 0.26775 0.0
H869 H 0.02431 0.17426 0.32976 0.0
H870 H 0.07375 0.14719 0.29766 0.0
H871 H 0.05901 0.13325 0.23603 0.0
H872 H 0.06429 0.14635 0.38709 0.0
H873 H 0.0625 0.21518 0.31803 0.0
H874 H 0.0414 0.2034 0.31996 0.0
H875 H 0.05909 0.19525 0.28619 0.0
C876 C 0.02349 0.15728 0.27433 0.0
C877 C 0.0332 0.14589 0.247 0.0
C878 C 0.03195 0.16529 0.30949 0.0
C879 C 0.05021 0.16196 0.31795 0.0
C880 C 0.05969 0.15003 0.29158 0.0
H881 H 0.12835 0.21957 0.47147 0.0
H882 H 0.11093 0.20518 0.41438 0.0
C883 C 0.05129 0.14213 0.25636 0.0
C884 C 0.05963 0.17115 0.35364 0.0
H885 H 0.07453 0.21225 0.38735 0.0
C886 C 0.06646 0.16076 0.38729 0.0
C887 C 0.06265 0.18994 0.35353 0.0
C888 C 0.05618 0.20165 0.31741 0.0
C889 C 0.07614 0.16866 0.42096 0.0
C890 C 0.07899 0.18747 0.4211 0.0
C891 C 0.07224 0.19785 0.38732 0.0
C892 C 0.08926 0.19656 0.45561 0.0
C893 C 0.08361 0.15678 0.45567 0.0
C894 C 0.08273 0.19675 0.49759 0.0
C895 C 0.09258 0.20508 0.5301 0.0
C896 C 0.10916 0.21338 0.52128 0.0
C897 C 0.11556 0.21339 0.47913 0.0
C898 C 0.10566 0.20513 0.44656 0.0
H899 H 0.0836 0.14238 0.44627 0.0
H900 H 0.09757 0.1608 0.46392 0.0
H901 H 0.07522 0.15822 0.48471 0.0
H902 H 0.06997 0.19052 0.50518 0.0
H903 H 0.08717 0.20514 0.56214 0.0
H904 H 0.07494 0.78302 0.43487 0.0
H905 H 0.05933 0.79809 0.49386 0.0
H906 H 0.10388 0.78621 0.57721 0.0
H907 H 0.11958 0.77124 0.51815 0.0
H908 H 0.04982 0.78351 0.57742 0.0
H909 H 0.09631 0.8419 0.58606 0.0
H910 H 0.09503 0.8274 0.53997 0.0
H911 H 0.10683 0.82014 0.58683 0.0
C912 C 0.08139 0.78368 0.4658 0.0
C913 C 0.09848 0.77606 0.47202 0.0
C914 C 0.07245 0.79221 0.49944 0.0
C915 C 0.08053 0.79344 0.53977 0.0
C916 C 0.0975 0.7856 0.54621 0.0
H917 H 0.03752 0.8216 0.78678 0.0
H918 H 0.04981 0.8065 0.7237 0.0
C919 C 0.10639 0.77695 0.51261 0.0
C920 C 0.07122 0.80296 0.57506 0.0
H921 H 0.07438 0.83952 0.64058 0.0
C922 C 0.05514 0.79578 0.59117 0.0
C923 C 0.07808 0.81909 0.59256 0.0
C924 C 0.09493 0.82773 0.57536 0.0
C925 C 0.04597 0.80408 0.6251 0.0
C926 C 0.05312 0.81992 0.64342 0.0
C927 C 0.06896 0.82733 0.62659 0.0
C928 C 0.04468 0.82872 0.68091 0.0
C929 C 0.02867 0.7959 0.641 0.0
C930 C 0.03779 0.84626 0.67786 0.0
C931 C 0.03071 0.85488 0.71389 0.0
C932 C 0.03064 0.84615 0.75356 0.0
C933 C 0.0374 0.82857 0.75646 0.0
C934 C 0.04433 0.81992 0.72046 0.0
H935 H 0.02282 0.78638 0.61749 0.0
H936 H 0.03137 0.7884 0.67089 0.0
H937 H 0.01861 0.80651 0.64815 0.0
H938 H 0.03804 0.85333 0.64769 0.0
H939 H 0.02576 0.86851 0.71103 0.0
H940 H 0.39074 0.76658 0.96101 0.0
H941 H 0.40838 0.77959 0.90228 0.0
H942 H 0.45386 0.7855 0.98643 0.0
H943 H 0.43632 0.7724 0.0449 0.0
H944 H 0.42471 0.81452 0.9022 0.0
H945 H 0.475 0.76013 0.87984 0.0
H946 H 0.45396 0.75665 0.90745 0.0
H947 H 0.4723 0.76775 0.93384 0.0
C948 C 0.40458 0.77043 0.96662 0.0
C949 C 0.41225 0.76843 0.00723 0.0
C950 C 0.41461 0.77792 0.93324 0.0
C951 C 0.4325 0.78333 0.93988 0.0
C952 C 0.44019 0.78116 0.9804 0.0
H953 H 0.49616 0.85759 0.78636 0.0
H954 H 0.48071 0.8419 0.84477 0.0
C955 C 0.43015 0.77378 0.01378 0.0
C956 C 0.44286 0.79202 0.90506 0.0
H957 H 0.48036 0.78749 0.84295 0.0
C958 C 0.43685 0.8086 0.88915 0.0
C959 C 0.45863 0.78421 0.88794 0.0
C960 C 0.46533 0.76613 0.90279 0.0
C961 C 0.44634 0.8177 0.857 0.0
C962 C 0.46234 0.8101 0.84057 0.0
C963 C 0.4682 0.79338 0.85597 0.0
C964 C 0.4728 0.81907 0.80633 0.0
C965 C 0.43903 0.83527 0.84037 0.0
C966 C 0.47397 0.81117 0.76581 0.0
C967 C 0.48281 0.82007 0.73261 0.0
C968 C 0.49074 0.83697 0.7394 0.0
C969 C 0.49018 0.84456 0.78036 0.0
C970 C 0.48125 0.83569 0.81357 0.0
H971 H 0.4248 0.83741 0.84989 0.0
H972 H 0.44716 0.84651 0.85342 0.0
H973 H 0.43995 0.83581 0.80506 0.0
H974 H 0.46764 0.79831 0.75961 0.0
H975 H 0.48323 0.81386 0.70139 0.0
H976 H 0.5904 0.91765 0.76494 0.0
H977 H 0.61334 0.91442 0.82022 0.0
H978 H 0.62244 0.85967 0.78093 0.0
H979 H 0.59905 0.86241 0.7274 0.0
H980 H 0.60422 0.88577 0.87974 0.0
H981 H 0.67354 0.87921 0.81754 0.0
H982 H 0.65626 0.89212 0.79079 0.0
H983 H 0.65686 0.86807 0.78555 0.0
C984 C 0.59773 0.90511 0.76712 0.0
C985 C 0.59292 0.89031 0.74158 0.0
C986 C 0.61091 0.90337 0.79849 0.0
C987 C 0.61968 0.8869 0.80421 0.0
C988 C 0.61611 0.87264 0.77621 0.0
H989 H 0.65828 0.80633 0.94588 0.0
H990 H 0.65222 0.83117 0.89756 0.0
C991 C 0.60272 0.87426 0.74531 0.0
C992 C 0.6289 0.88294 0.84468 0.0
H993 H 0.66682 0.86296 0.88243 0.0
C994 C 0.61809 0.88128 0.88107 0.0
C995 C 0.64695 0.87724 0.84592 0.0
C996 C 0.65916 0.87938 0.80794 0.0
C997 C 0.62416 0.87196 0.91708 0.0
C998 C 0.64179 0.86476 0.91698 0.0
C999 C 0.65326 0.86834 0.88234 0.0
C1000 C 0.64721 0.85063 0.9476 0.0
C1001 C 0.61099 0.86835 0.95273 0.0
C1002 C 0.6466 0.8533 0.99194 0.0
C1003 C 0.64952 0.83886 0.01969 0.0
C1004 C 0.6536 0.82179 0.00332 0.0
C1005 C 0.65508 0.81939 0.95918 0.0
C1006 C 0.65176 0.83361 0.93159 0.0
H1007 H 0.59707 0.87246 0.94433 0.0
H1008 H 0.61082 0.85384 0.96101 0.0
H1009 H 0.61506 0.87603 0.98144 0.0
H1010 H 0.64359 0.86642 0.00502 0.0
H1011 H 0.64875 0.84105 0.05377 0.0
H1012 H 0.93583 0.85822 0.77403 0.0
H1013 H 0.91508 0.85259 0.71583 0.0
H1014 H 0.90052 0.90866 0.7134 0.0
H1015 H 0.9207 0.91435 0.77359 0.0
H1016 H 0.87151 0.88361 0.69128 0.0
H1017 H 0.93478 0.87325 0.60148 0.0
H1018 H 0.93329 0.85921 0.64787 0.0
H1019 H 0.93425 0.88324 0.65389 0.0
C1020 C 0.92755 0.86921 0.76303 0.0
C1021 C 0.92984 0.88673 0.77873 0.0
C1022 C 0.91586 0.86601 0.72918 0.0
C1023 C 0.90662 0.8803 0.70998 0.0
C1024 C 0.90764 0.8975 0.72781 0.0
H1025 H 0.88041 0.85098 0.44956 0.0
H1026 H 0.88806 0.87209 0.50677 0.0
C1027 C 0.91919 0.9007 0.76205 0.0
C1028 C 0.8981 0.87758 0.66813 0.0
H1029 H 0.9079 0.86235 0.56866 0.0
C1030 C 0.8794 0.87922 0.66413 0.0
C1031 C 0.90855 0.87264 0.63241 0.0
C1032 C 0.92885 0.87217 0.63389 0.0
C1033 C 0.87073 0.87451 0.62599 0.0
C1034 C 0.88107 0.86761 0.59178 0.0
C1035 C 0.89989 0.86747 0.59489 0.0
C1036 C 0.87292 0.85796 0.55536 0.0
C1037 C 0.8506 0.87663 0.62314 0.0
C1038 C 0.86145 0.84337 0.56336 0.0
C1039 C 0.85702 0.83147 0.5308 0.0
C1040 C 0.86435 0.83368 0.48993 0.0
C1041 C 0.87495 0.84881 0.48113 0.0
C1042 C 0.87915 0.86093 0.51364 0.0
H1043 H 0.84608 0.88855 0.64159 0.0
H1044 H 0.84601 0.87808 0.58964 0.0
H1045 H 0.84403 0.86465 0.63736 0.0
H1046 H 0.85693 0.84039 0.59539 0.0
H1047 H 0.84885 0.81984 0.53841 0.0
H1048 H 0.91975 0.12296 0.21648 0.0
H1049 H 0.90207 0.12879 0.2808 0.0
H1050 H 0.928 0.08435 0.34403 0.0
H1051 H 0.94612 0.07877 0.28048 0.0
H1052 H 0.87928 0.10453 0.33893 0.0
H1053 H 0.94247 0.13222 0.40911 0.0
H1054 H 0.93989 0.12907 0.35241 0.0
H1055 H 0.94301 0.10999 0.38655 0.0
C1056 C 0.92173 0.11448 0.24406 0.0
C1057 C 0.93478 0.10086 0.24404 0.0
C1058 C 0.91141 0.11761 0.28046 0.0
C1059 C 0.91397 0.10709 0.31703 0.0
C1060 C 0.92598 0.09263 0.31603 0.0
H1061 H 0.88632 0.1551 0.56194 0.0
H1062 H 0.89553 0.13082 0.51387 0.0
C1063 C 0.93629 0.08951 0.27972 0.0
C1064 C 0.90588 0.11282 0.35756 0.0
H1065 H 0.91588 0.13678 0.44684 0.0
C1066 C 0.88725 0.11131 0.36302 0.0
C1067 C 0.91644 0.12139 0.38897 0.0
C1068 C 0.93656 0.1234 0.38419 0.0
C1069 C 0.87873 0.11902 0.39845 0.0
C1070 C 0.88914 0.12884 0.42817 0.0
C1071 C 0.90792 0.12924 0.42404 0.0
C1072 C 0.88093 0.14119 0.45944 0.0
C1073 C 0.85864 0.11697 0.40303 0.0
C1074 C 0.86954 0.1549 0.44489 0.0
C1075 C 0.86441 0.16874 0.47207 0.0
C1076 C 0.87089 0.16936 0.51406 0.0
C1077 C 0.88162 0.15523 0.52931 0.0
C1078 C 0.88665 0.14125 0.50211 0.0
H1079 H 0.85409 0.10387 0.38991 0.0
H1080 H 0.85435 0.11793 0.43685 0.0
H1081 H 0.85184 0.12772 0.38457 0.0
H1082 H 0.86541 0.15548 0.41181 0.0
H1083 H 0.85612 0.17948 0.45948 0.0
H1084 H 0.60961 0.11579 0.31271 0.0
H1085 H 0.63029 0.12621 0.25692 0.0
H1086 H 0.60065 0.0956 0.16346 0.0
H1087 H 0.5806 0.08467 0.21902 0.0
H1088 H 0.63574 0.09728 0.14283 0.0
H1089 H 0.60936 0.16525 0.18384 0.0
H1090 H 0.62184 0.15422 0.2252 0.0
H1091 H 0.60062 0.14513 0.20799 0.0
C1092 C 0.60779 0.1111 0.28033 0.0
C1093 C 0.59332 0.09986 0.26972 0.0
C1094 C 0.61957 0.117 0.2486 0.0
C1095 C 0.61664 0.11209 0.20593 0.0
C1096 C 0.60312 0.09962 0.19615 0.0
H1097 H 0.61764 0.17631 0.98798 0.0
H1098 H 0.61181 0.15569 0.04603 0.0
C1099 C 0.59161 0.09345 0.22788 0.0
C1100 C 0.62552 0.12171 0.1706 0.0
H1101 H 0.62671 0.16274 0.12249 0.0
C1102 C 0.63402 0.11164 0.13849 0.0
C1103 C 0.623 0.14042 0.16498 0.0
C1104 C 0.6131 0.15191 0.19707 0.0
C1105 C 0.63925 0.11964 0.09992 0.0
C1106 C 0.63625 0.13821 0.09405 0.0
C1107 C 0.62877 0.14844 0.12713 0.0
C1108 C 0.63955 0.14742 0.05315 0.0
C1109 C 0.64701 0.10803 0.06506 0.0
C1110 C 0.65698 0.149 0.03671 0.0
C1111 C 0.66028 0.1604 0.00226 0.0
C1112 C 0.64624 0.17056 0.98419 0.0
C1113 C 0.62867 0.16827 -0.00037 0.0
C1114 C 0.62535 0.15666 0.03349 0.0
H1115 H 0.64478 0.09349 0.07123 0.0
H1116 H 0.64102 0.11151 0.03371 0.0
H1117 H 0.66172 0.11037 0.06306 0.0
H1118 H 0.66818 0.14225 0.05192 0.0
H1119 H 0.67399 0.162 0.99123 0.0
H1120 H 0.96405 0.62971 0.73249 0.0
H1121 H 0.94948 0.64998 0.68142 0.0
H1122 H 0.99265 0.68812 0.69733 0.0
H1123 H 0.00717 0.66784 0.74884 0.0
H1124 H 0.93886 0.68646 0.70439 0.0
H1125 H 0.98531 0.6842 0.56535 0.0
H1126 H 0.98474 0.66666 0.60517 0.0
H1127 H 0.99524 0.68779 0.61697 0.0
C1128 C 0.97054 0.6423 0.7245 0.0
C1129 C 0.98663 0.64731 0.7446 0.0
C1130 C 0.96221 0.65387 0.69547 0.0
C1131 C 0.96997 0.67056 0.6856 0.0
C1132 C 0.98652 0.67523 0.70418 0.0
H1133 H 0.93053 0.75298 0.50877 0.0
H1134 H 0.94775 0.73797 0.56547 0.0
C1135 C 0.99482 0.66366 0.73344 0.0
C1136 C 0.96005 0.68345 0.65819 0.0
H1137 H 0.96049 0.70376 0.56062 0.0
C1138 C 0.94361 0.69031 0.67299 0.0
C1139 C 0.96638 0.6886 0.61752 0.0
C1140 C 0.98383 0.6814 0.59995 0.0
C1141 C 0.9332 0.70203 0.64801 0.0
C1142 C 0.93919 0.7067 0.60665 0.0
C1143 C 0.95589 0.70021 0.59232 0.0
C1144 C 0.92785 0.71725 0.57662 0.0
C1145 C 0.91595 0.70938 0.66635 0.0
C1146 C 0.91079 0.71086 0.5647 0.0
C1147 C 0.90095 0.71951 0.53277 0.0
C1148 C 0.90806 0.73457 0.51181 0.0
C1149 C 0.92473 0.74148 0.52488 0.0
C1150 C 0.9346 0.73283 0.55694 0.0
H1151 H 0.91635 0.70962 0.70175 0.0
H1152 H 0.91322 0.7232 0.65465 0.0
H1153 H 0.90461 0.70059 0.65667 0.0
H1154 H 0.90543 0.69868 0.57867 0.0
H1155 H 0.88815 0.71391 0.52293 0.0
H1156 H 0.58576 0.7403 0.0141 0.0
H1157 H 0.56693 0.725 0.96076 0.0
H1158 H 0.60766 0.68419 0.9461 0.0
H1159 H 0.6263 0.69933 -0.00031 0.0
H1160 H 0.57274 0.71568 0.87642 0.0
H1161 H 0.56328 0.65455 0.97465 0.0
H1162 H 0.5724 0.67514 0.99608 0.0
H1163 H 0.58652 0.66002 0.96634 0.0
C1164 C 0.5907 0.72817 -0.00099 0.0
C1165 C 0.60735 0.72086 0.01097 0.0
C1166 C 0.57994 0.71941 0.96878 0.0
C1167 C 0.58569 0.7032 0.95023 0.0
C1168 C 0.60273 0.69639 0.96084 0.0
H1169 H 0.55309 0.63058 0.75368 0.0
H1170 H 0.56682 0.64626 0.81429 0.0
C1171 C 0.61342 0.7051 0.9911 0.0
C1172 C 0.57393 0.69334 0.91986 0.0
H1173 H 0.55459 0.65237 0.90146 0.0
C1174 C 0.56858 0.70192 0.8821 0.0
C1175 C 0.56841 0.67539 0.92745 0.0
C1176 C 0.57279 0.66578 0.96852 0.0
C1177 C 0.55852 0.6928 0.85092 0.0
C1178 C 0.5535 0.67469 0.85797 0.0
C1179 C 0.55847 0.66624 0.89615 0.0
C1180 C 0.54417 0.66397 0.82476 0.0
C1181 C 0.55392 0.70235 0.80992 0.0
C1182 C 0.52661 0.66827 0.81168 0.0
C1183 C 0.51872 0.65921 0.77725 0.0
C1184 C 0.52835 0.64585 0.75543 0.0
C1185 C 0.54548 0.6409 0.77006 0.0
C1186 C 0.55331 0.64985 0.80453 0.0
H1187 H 0.56139 0.7152 0.80642 0.0
H1188 H 0.55696 0.69367 0.78204 0.0
H1189 H 0.53931 0.70539 0.8094 0.0
H1190 H 0.51924 0.67895 0.82729 0.0
H1191 H 0.5055 0.66325 0.76638 0.0
H1192 H 0.58841 0.24943 0.99841 0.0
H1193 H 0.57242 0.26341 0.05846 0.0
H1194 H 0.60399 0.31158 0.04253 0.0
H1195 H 0.62018 0.29752 0.98323 0.0
H1196 H 0.6008 0.30058 0.12749 0.0
H1197 H 0.53421 0.30329 0.04736 0.0
H1198 H 0.54448 0.28144 0.04924 0.0
H1199 H 0.55483 0.29905 0.01872 0.0
C1200 C 0.59201 0.26293 0.00811 0.0
C1201 C 0.60545 0.27245 0.9862 0.0
C1202 C 0.58277 0.27097 0.04205 0.0
C1203 C 0.5868 0.28866 0.0545 0.0
C1204 C 0.60056 0.29797 0.03328 0.0
H1205 H 0.5282 0.36488 0.21166 0.0
H1206 H 0.54197 0.34792 0.15284 0.0
C1207 C 0.60976 0.28997 -0.00061 0.0
C1208 C 0.57684 0.29754 0.08974 0.0
H1209 H 0.5353 0.31281 0.11934 0.0
C1210 C 0.58647 0.30321 0.12578 0.0
C1211 C 0.55818 0.30117 0.08717 0.0
C1212 C 0.54729 0.29608 0.04844 0.0
C1213 C 0.57797 0.31231 0.15943 0.0
C1214 C 0.55924 0.31565 0.15725 0.0
C1215 C 0.54961 0.3101 0.12109 0.0
C1216 C 0.54959 0.32521 0.19196 0.0
C1217 C 0.58918 0.31865 0.19661 0.0
C1218 C 0.54883 0.31783 0.23308 0.0
C1219 C 0.54094 0.32745 0.26649 0.0
C1220 C 0.53359 0.34457 0.25936 0.0
C1221 C 0.53368 0.35165 0.21787 0.0
C1222 C 0.54158 0.34202 0.18438 0.0
H1223 H 0.60375 0.31887 0.18879 0.0
H1224 H 0.58504 0.33233 0.20686 0.0
H1225 H 0.58721 0.30937 0.2239 0.0
H1226 H 0.5546 0.30474 0.23948 0.0
H1227 H 0.54085 0.32162 0.29813 0.0
H1228 H 0.93178 0.24851 0.49698 0.0
H1229 H 0.94976 0.26239 0.43998 0.0
H1230 H 0.91809 0.31076 0.45029 0.0
H1231 H 0.90029 0.297 0.50727 0.0
H1232 H 0.94072 0.27672 0.36121 0.0
H1233 H 0.96899 0.32969 0.46571 0.0
H1234 H 0.95726 0.31034 0.48649 0.0
H1235 H 0.94486 0.32925 0.46607 0.0
C1236 C 0.92859 0.26203 0.48665 0.0
C1237 C 0.91479 0.27178 0.50666 0.0
C1238 C 0.93889 0.26997 0.45429 0.0
C1239 C 0.93557 0.28778 0.44157 0.0
C1240 C 0.92125 0.2972 0.46037 0.0
H1241 H 0.96771 0.3571 0.23692 0.0
H1242 H 0.95314 0.34114 0.29604 0.0
C1243 C 0.91103 0.28931 0.49272 0.0
C1244 C 0.94701 0.29662 0.40878 0.0
H1245 H 0.97311 0.33372 0.39069 0.0
C1246 C 0.94796 0.28906 0.3678 0.0
C1247 C 0.9566 0.31267 0.41745 0.0
C1248 C 0.95706 0.32088 0.46143 0.0
C1249 C 0.95767 0.29751 0.33495 0.0
C1250 C 0.96664 0.31387 0.34332 0.0
C1251 C 0.96611 0.3212 0.38443 0.0
C1252 C 0.97593 0.32395 0.30907 0.0
C1253 C 0.95796 0.28923 0.29109 0.0
C1254 C 0.99367 0.31975 0.29746 0.0
C1255 C 0.00203 0.3289 0.2638 0.0
C1256 C 0.9927 0.34227 0.24118 0.0
C1257 C 0.97512 0.34673 0.25366 0.0
C1258 C 0.96681 0.33767 0.28736 0.0
H1259 H 0.95017 0.27651 0.28957 0.0
H1260 H 0.9523 0.29886 0.2676 0.0
H1261 H 0.97207 0.28645 0.28157 0.0
H1262 H 0.00091 0.30922 0.314 0.0
H1263 H 0.01557 0.32518 0.25461 0.0
H1264 H 0.083 0.35681 0.25479 0.0
H1265 H 0.10223 0.35163 0.31613 0.0
H1266 H 0.12382 0.40521 0.30476 0.0
H1267 H 0.1049 0.41035 0.24172 0.0
H1268 H 0.14992 0.37718 0.32556 0.0
H1269 H 0.09054 0.37693 0.43118 0.0
H1270 H 0.08727 0.36253 0.38596 0.0
H1271 H 0.09009 0.38634 0.37807 0.0
C1272 C 0.09232 0.36726 0.26399 0.0
C1273 C 0.0927 0.38386 0.24285 0.0
C1274 C 0.10305 0.3644 0.29966 0.0
C1275 C 0.11412 0.37818 0.31525 0.0
C1276 C 0.11522 0.3945 0.29324 0.0
H1277 H 0.148 0.33409 0.55851 0.0
H1278 H 0.14125 0.35976 0.51216 0.0
C1279 C 0.10447 0.39737 0.25733 0.0
C1280 C 0.1239 0.37533 0.35546 0.0
H1281 H 0.11616 0.35935 0.45525 0.0
C1282 C 0.14267 0.37376 0.35445 0.0
C1283 C 0.11449 0.37163 0.39356 0.0
C1284 C 0.09449 0.37466 0.39746 0.0
C1285 C 0.152 0.36638 0.38911 0.0
C1286 C 0.14216 0.36005 0.4247 0.0
C1287 C 0.12372 0.36384 0.42768 0.0
C1288 C 0.14956 0.34639 0.45409 0.0
C1289 C 0.17216 0.36454 0.38624 0.0
C1290 C 0.1566 0.33046 0.43692 0.0
C1291 C 0.16028 0.31586 0.46311 0.0
C1292 C 0.15665 0.31671 0.50694 0.0
C1293 C 0.15037 0.33288 0.5246 0.0
C1294 C 0.14679 0.34763 0.49829 0.0
H1295 H 0.17807 0.37635 0.36971 0.0
H1296 H 0.17843 0.36324 0.41821 0.0
H1297 H 0.17553 0.35246 0.36706 0.0
H1298 H 0.15826 0.32889 0.40283 0.0
H1299 H 0.16513 0.30356 0.44862 0.0
H1300 H 0.36068 0.30628 0.04812 0.0
H1301 H 0.36659 0.32991 0.09971 0.0
H1302 H 0.38939 0.36299 0.00038 0.0
H1303 H 0.38385 0.33897 0.94853 0.0
H1304 H 0.4119 0.35958 0.06179 0.0
H1305 H 0.34743 0.37713 0.13633 0.0
H1306 H 0.3496 0.35318 0.13685 0.0
H1307 H 0.34854 0.36495 0.08657 0.0
C1308 C 0.36663 0.31873 0.03711 0.0
C1309 C 0.37222 0.32068 0.99466 0.0
C1310 C 0.36976 0.33237 0.06654 0.0
C1311 C 0.37815 0.34839 0.05386 0.0
C1312 C 0.38282 0.35076 0.01081 0.0
H1313 H 0.42474 0.41627 0.25598 0.0
H1314 H 0.40422 0.40882 0.19736 0.0
C1315 C 0.37989 0.33697 0.98138 0.0
C1316 C 0.3849 0.36089 0.08685 0.0
H1317 H 0.37402 0.37815 0.18438 0.0
C1318 C 0.40347 0.36418 0.08783 0.0
C1319 C 0.37396 0.3671 0.12075 0.0
C1320 C 0.35375 0.36555 0.11971 0.0
C1321 C 0.41159 0.37188 0.12356 0.0
C1322 C 0.4009 0.37609 0.15936 0.0
C1323 C 0.38217 0.37445 0.15708 0.0
C1324 C 0.40947 0.38029 0.20036 0.0
C1325 C 0.43174 0.3744 0.12389 0.0
C1326 C 0.41851 0.36657 0.22216 0.0
C1327 C 0.43032 0.37074 0.25515 0.0
C1328 C 0.43303 0.38871 0.26717 0.0
C1329 C 0.42281 0.40229 0.24744 0.0
C1330 C 0.41107 0.3981 0.21414 0.0
H1331 H 0.43738 0.37454 0.0911 0.0
H1332 H 0.43545 0.38713 0.14014 0.0
H1333 H 0.43805 0.36313 0.14161 0.0
H1334 H 0.41747 0.35275 0.21148 0.0
H1335 H 0.43836 0.36002 0.26843 0.0
H1336 H 0.35454 0.67721 0.95973 0.0
H1337 H 0.3641 0.65413 0.90994 0.0
H1338 H 0.39568 0.62897 0.00874 0.0
H1339 H 0.3861 0.65225 0.05914 0.0
H1340 H 0.4152 0.63627 0.93995 0.0
H1341 H 0.3533 0.60234 0.88676 0.0
H1342 H 0.35053 0.6262 0.88318 0.0
H1343 H 0.35405 0.61589 0.93453 0.0
C1344 C 0.36323 0.66656 0.97121 0.0
C1345 C 0.36992 0.66676 0.01305 0.0
C1346 C 0.36852 0.65325 0.94277 0.0
C1347 C 0.38036 0.63966 0.95579 0.0
C1348 C 0.38644 0.63932 0.99817 0.0
H1349 H 0.44373 0.57829 0.77148 0.0
H1350 H 0.42613 0.58382 0.83586 0.0
C1351 C 0.38119 0.65275 0.02671 0.0
C1352 C 0.3884 0.62777 0.92329 0.0
H1353 H 0.37778 0.60362 0.83427 0.0
C1354 C 0.40709 0.62866 0.91758 0.0
C1355 C 0.37778 0.61788 0.89413 0.0
C1356 C 0.35782 0.61538 0.90031 0.0
C1357 C 0.41526 0.62115 0.88162 0.0
C1358 C 0.40444 0.61243 0.85093 0.0
C1359 C 0.38593 0.61051 0.85784 0.0
C1360 C 0.41212 0.60678 0.8099 0.0
C1361 C 0.43525 0.62357 0.87524 0.0
C1362 C 0.40939 0.61746 0.77365 0.0
C1363 C 0.41941 0.61437 0.73677 0.0
C1364 C 0.43233 0.60063 0.73596 0.0
C1365 C 0.43397 0.5891 0.77129 0.0
C1366 C 0.42396 0.5922 0.80809 0.0
H1367 H 0.44138 0.63229 0.90004 0.0
H1368 H 0.44197 0.61026 0.87636 0.0
H1369 H 0.43797 0.62955 0.84345 0.0
H1370 H 0.40018 0.62874 0.77464 0.0
H1371 H 0.41741 0.62303 0.7095 0.0
H1372 H 0.07734 0.58799 0.69945 0.0
H1373 H 0.10062 0.59743 0.65018 0.0
H1374 H 0.12827 0.62482 0.75235 0.0
H1375 H 0.10453 0.61563 0.80195 0.0
H1376 H 0.12138 0.64694 0.69223 0.0
H1377 H 0.15066 0.58784 0.61425 0.0
H1378 H 0.12675 0.58532 0.61295 0.0
H1379 H 0.13827 0.58602 0.66361 0.0
C1380 C 0.08862 0.59563 0.7117 0.0
C1381 C 0.08891 0.60154 0.75415 0.0
C1382 C 0.10211 0.60082 0.68357 0.0
C1383 C 0.11637 0.61166 0.69758 0.0
C1384 C 0.1174 0.61641 0.74087 0.0
H1385 H 0.17328 0.66852 0.49115 0.0
H1386 H 0.16984 0.64763 0.55105 0.0
C1387 C 0.10374 0.61139 0.76901 0.0
C1388 C 0.1276 0.62093 0.66551 0.0
H1389 H 0.14593 0.61448 0.56692 0.0
C1390 C 0.12732 0.63979 0.6656 0.0
C1391 C 0.13561 0.61172 0.63087 0.0
C1392 C 0.138 0.5916 0.63079 0.0
C1393 C 0.13302 0.64956 0.63009 0.0
C1394 C 0.13879 0.64021 0.59343 0.0
C1395 C 0.14093 0.62152 0.59479 0.0
C1396 C 0.14087 0.64972 0.55269 0.0
C1397 C 0.13176 0.66981 0.63108 0.0
C1398 C 0.12562 0.65711 0.53306 0.0
C1399 C 0.12751 0.66907 0.49921 0.0
C1400 C 0.14469 0.67361 0.48424 0.0
C1401 C 0.15987 0.66518 0.5021 0.0
C1402 C 0.15796 0.65325 0.53612 0.0
H1403 H 0.13182 0.67502 0.66427 0.0
H1404 H 0.14307 0.67603 0.61328 0.0
H1405 H 0.11899 0.67406 0.61578 0.0
H1406 H 0.11232 0.65447 0.5457 0.0
H1407 H 0.1156 0.67569 0.48717 0.0
H1408 H 0.3944 0.17931 0.77042 0.0
H1409 H 0.39231 0.1547 0.7183 0.0
H1410 H 0.40328 0.19236 0.6168 0.0
H1411 H 0.40452 0.2168 0.66803 0.0
H1412 H 0.37619 0.16881 0.59569 0.0
H1413 H 0.43536 0.13199 0.66234 0.0
H1414 H 0.41586 0.13561 0.6951 0.0
H1415 H 0.43 0.15426 0.68097 0.0
C1416 C 0.39646 0.18219 0.73692 0.0
C1417 C 0.39979 0.19984 0.72304 0.0
C1418 C 0.39517 0.16818 0.70728 0.0
C1419 C 0.39762 0.17171 0.66371 0.0
C1420 C 0.40105 0.18936 0.6502 0.0
H1421 H 0.44785 0.17034 0.46271 0.0
H1422 H 0.42206 0.17067 0.51071 0.0
C1423 C 0.40198 0.2033 0.6795 0.0
C1424 C 0.39819 0.15733 0.63133 0.0
H1425 H 0.42974 0.1293 0.58982 0.0
C1426 C 0.38748 0.15957 0.59478 0.0
C1427 C 0.41255 0.14489 0.63059 0.0
C1428 C 0.42417 0.14145 0.66921 0.0
C1429 C 0.39277 0.15227 0.55564 0.0
C1430 C 0.40886 0.14232 0.55369 0.0
C1431 C 0.41755 0.13729 0.59154 0.0
C1432 C 0.41969 0.14168 0.51446 0.0
C1433 C 0.38231 0.15687 0.51601 0.0
C1434 C 0.42644 0.1253 0.49959 0.0
C1435 C 0.44117 0.1251 0.47211 0.0
C1436 C 0.44958 0.14129 0.45997 0.0
C1437 C 0.44178 0.15768 0.47191 0.0
C1438 C 0.42689 0.15787 0.49889 0.0
H1439 H 0.36779 0.15854 0.52335 0.0
H1440 H 0.38732 0.1698 0.50296 0.0
H1441 H 0.38393 0.14634 0.4912 0.0
H1442 H 0.42118 0.11272 0.5117 0.0
H1443 H 0.44675 0.1122 0.46306 0.0
H1444 H 0.04968 0.14425 0.93455 0.0
H1445 H 0.07716 0.14286 0.89299 0.0
H1446 H 0.10574 0.12159 0.00178 0.0
H1447 H 0.07816 0.12404 0.04449 0.0
H1448 H 0.12609 0.14388 0.96718 0.0
H1449 H 0.10256 0.1042 0.8335 0.0
H1450 H 0.08543 0.12082 0.83969 0.0
H1451 H 0.08983 0.10512 0.88253 0.0
C1452 C 0.06182 0.13929 0.94958 0.0
C1453 C 0.06189 0.13431 0.99255 0.0
C1454 C 0.07748 0.13812 0.9256 0.0
C1455 C 0.0934 0.13131 0.94362 0.0
C1456 C 0.09355 0.12653 0.98693 0.0
H1457 H 0.14655 0.17103 0.72671 0.0
H1458 H 0.1449 0.14578 0.77688 0.0
C1459 C 0.07789 0.12811 0.01134 0.0
C1460 C 0.11005 0.13149 0.91778 0.0
H1461 H 0.1194 0.13305 0.81214 0.0
C1462 C 0.12503 0.14086 0.93346 0.0
C1463 C 0.10976 0.12636 0.87439 0.0
C1464 C 0.09609 0.11333 0.85695 0.0
C1465 C 0.13752 0.14841 0.90527 0.0
C1466 C 0.13408 0.14748 0.86094 0.0
C1467 C 0.12152 0.13486 0.84605 0.0
C1468 C 0.13919 0.16243 0.83202 0.0
C1469 C 0.15333 0.15857 0.9233 0.0
C1470 C 0.13674 0.18023 0.84605 0.0
C1471 C 0.13813 0.19453 0.8178 0.0
C1472 C 0.14125 0.19135 0.77451 0.0
C1473 C 0.1439 0.1737 0.76006 0.0
C1474 C 0.1431 0.15933 0.78875 0.0
H1475 H 0.15988 0.15045 0.94863 0.0
H1476 H 0.16347 0.16183 0.89849 0.0
H1477 H 0.14858 0.17117 0.93855 0.0
H1478 H 0.13276 0.18316 0.87848 0.0
H1479 H 0.13593 0.20805 0.82954 0.0
H1480 H 0.07894 0.82653 0.97749 0.0
H1481 H 0.10435 0.82851 0.02654 0.0
H1482 H 0.10601 0.88601 0.0103 0.0
H1483 H 0.08079 0.88423 0.96061 0.0
H1484 H 0.14235 0.85083 0.02955 0.0
H1485 H 0.08614 0.87135 0.13663 0.0
H1486 H 0.08063 0.85951 0.08822 0.0
H1487 H 0.08975 0.88181 0.08547 0.0
C1488 C 0.08506 0.83952 0.98321 0.0
C1489 C 0.07758 0.85524 0.96611 0.0
C1490 C 0.09966 0.84063 0.01093 0.0
C1491 C 0.10687 0.85743 0.02201 0.0
C1492 C 0.10061 0.87296 0.00187 0.0
H1493 H 0.12894 0.82014 0.27076 0.0
H1494 H 0.13132 0.84602 0.22257 0.0
C1495 C 0.0861 0.87187 0.97379 0.0
C1496 C 0.11778 0.85855 0.06093 0.0
H1497 H 0.10921 0.85381 0.1665 0.0
C1498 C 0.13549 0.8522 0.05989 0.0
C1499 C 0.10908 0.86111 0.10048 0.0
C1500 C 0.09037 0.86891 0.10317 0.0
C1501 C 0.14364 0.84572 0.09708 0.0
C1502 C 0.13333 0.84468 0.13494 0.0
C1503 C 0.11698 0.85404 0.13726 0.0
C1504 C 0.13613 0.82997 0.16605 0.0
C1505 C 0.16255 0.83852 0.09452 0.0
C1506 C 0.13806 0.81238 0.15049 0.0
C1507 C 0.1368 0.79774 0.17775 0.0
C1508 C 0.13312 0.80029 0.22112 0.0
C1509 C 0.13155 0.81784 0.23723 0.0
C1510 C 0.13314 0.83261 0.20987 0.0
H1511 H 0.17116 0.84795 0.07617 0.0
H1512 H 0.16854 0.83649 0.12659 0.0
H1513 H 0.16254 0.82555 0.07701 0.0
H1514 H 0.13949 0.80977 0.11671 0.0
H1515 H 0.13804 0.78437 0.16442 0.0
H1516 H 0.37167 0.79378 0.30659 0.0
H1517 H 0.38153 0.81865 0.34996 0.0
H1518 H 0.40336 0.84496 0.2386 0.0
H1519 H 0.39432 0.8192 0.19497 0.0
H1520 H 0.428 0.84192 0.29029 0.0
H1521 H 0.37355 0.86772 0.38817 0.0
H1522 H 0.37096 0.8439 0.39141 0.0
H1523 H 0.36881 0.85504 0.34035 0.0
C1524 C 0.37817 0.80504 0.29102 0.0
C1525 C 0.38265 0.80437 0.24766 0.0
C1526 C 0.38351 0.81954 0.31585 0.0
C1527 C 0.39304 0.83393 0.29766 0.0
C1528 C 0.39601 0.83405 0.2534 0.0
H1529 H 0.45141 0.87594 0.51883 0.0
H1530 H 0.43086 0.87813 0.45831 0.0
C1531 C 0.39098 0.81928 0.22858 0.0
C1532 C 0.40349 0.84584 0.32624 0.0
H1533 H 0.40211 0.85921 0.43003 0.0
C1534 C 0.42219 0.84641 0.32014 0.0
C1535 C 0.39617 0.8525 0.36477 0.0
C1536 C 0.37622 0.85492 0.37108 0.0
C1537 C 0.43373 0.85052 0.35386 0.0
C1538 C 0.42634 0.85356 0.39468 0.0
C1539 C 0.40773 0.85594 0.39909 0.0
C1540 C 0.43753 0.85191 0.43323 0.0
C1541 C 0.45376 0.85028 0.34611 0.0
C1542 C 0.44731 0.83602 0.44023 0.0
C1543 C 0.45912 0.83472 0.47452 0.0
C1544 C 0.46112 0.8492 0.5027 0.0
C1545 C 0.45027 0.86457 0.49742 0.0
C1546 C 0.43857 0.86592 0.46283 0.0
H1547 H 0.45692 0.85471 0.31313 0.0
H1548 H 0.461 0.85909 0.36895 0.0
H1549 H 0.45883 0.83634 0.34974 0.0
H1550 H 0.44615 0.82479 0.41843 0.0
H1551 H 0.46712 0.82264 0.47804 0.0
H1552 H 0.57303 0.84654 0.54854 0.0
H1553 H 0.58851 0.83225 0.48829 0.0
H1554 H 0.54045 0.83722 0.4122 0.0
H1555 H 0.52485 0.85085 0.47213 0.0
H1556 H 0.55378 0.80483 0.40421 0.0
H1557 H 0.60906 0.85385 0.3814 0.0
H1558 H 0.60835 0.84458 0.43417 0.0
H1559 H 0.59006 0.85833 0.41554 0.0
C1560 C 0.56581 0.84465 0.5189 0.0
C1561 C 0.54767 0.84984 0.51535 0.0
C1562 C 0.57472 0.8366 0.48431 0.0
C1563 C 0.56576 0.83387 0.4453 0.0
C1564 C 0.54771 0.83916 0.4418 0.0
H1565 H 0.6147 0.80421 0.20074 0.0
H1566 H 0.6002 0.82026 0.25986 0.0
C1567 C 0.53879 0.84699 0.47628 0.0
C1568 C 0.5747 0.82478 0.40852 0.0
H1569 H 0.61096 0.82667 0.34153 0.0
C1570 C 0.56626 0.80968 0.39049 0.0
C1571 C 0.59084 0.83121 0.38998 0.0
C1572 C 0.60003 0.84799 0.40594 0.0
C1573 C 0.57352 0.80077 0.35497 0.0
C1574 C 0.59004 0.80673 0.33751 0.0
C1575 C 0.59839 0.82198 0.35508 0.0
C1576 C 0.59896 0.79711 0.30154 0.0
C1577 C 0.56316 0.78526 0.33598 0.0
C1578 C 0.6033 0.77883 0.30535 0.0
C1579 C 0.61137 0.7696 0.27158 0.0
C1580 C 0.6156 0.77848 0.23322 0.0
C1581 C 0.61156 0.79691 0.22967 0.0
C1582 C 0.60332 0.80612 0.26351 0.0
H1583 H 0.54862 0.78608 0.3439 0.0
H1584 H 0.5646 0.78485 0.30077 0.0
H1585 H 0.56838 0.77246 0.34926 0.0
H1586 H 0.60055 0.77166 0.33467 0.0
H1587 H 0.61446 0.75549 0.27586 0.0
H1588 H 0.91747 0.76224 0.24032 0.0
H1589 H 0.93356 0.77724 0.18296 0.0
H1590 H 0.9312 0.82727 0.25216 0.0
H1591 H 0.91438 0.81239 0.30944 0.0
H1592 H 0.92313 0.83273 0.17135 0.0
H1593 H 0.98495 0.79168 0.17575 0.0
H1594 H 0.96547 0.77782 0.16857 0.0
H1595 H 0.96815 0.79052 0.21711 0.0
C1596 C 0.9205 0.7764 0.24374 0.0
C1597 C 0.91469 0.78606 0.2798 0.0
C1598 C 0.92985 0.78496 0.21086 0.0
C1599 C 0.93402 0.80333 0.21345 0.0
C1600 C 0.92828 0.81305 0.24945 0.0
H1601 H 0.00899 0.85315 0.03432 0.0
H1602 H 0.99444 0.84013 0.09687 0.0
C1603 C 0.9187 0.80452 0.28227 0.0
C1604 C 0.94362 0.81245 0.17766 0.0
H1605 H 0.9802 0.80895 0.1122 0.0
C1606 C 0.93571 0.82763 0.15871 0.0
C1607 C 0.9602 0.80604 0.16138 0.0
C1608 C 0.97027 0.79074 0.18209 0.0
C1609 C 0.94362 0.83623 0.12343 0.0
C1610 C 0.95963 0.82915 0.10556 0.0
C1611 C 0.96779 0.81426 0.12525 0.0
C1612 C 0.96836 0.8371 0.06704 0.0
C1613 C 0.93486 0.85305 0.10631 0.0
C1614 C 0.95872 0.83952 0.02889 0.0
C1615 C 0.96697 0.84722 0.9931 0.0
C1616 C 0.98519 0.85231 0.99432 0.0
C1617 C 0.99495 0.84937 0.03212 0.0
C1618 C 0.98663 0.84193 0.06803 0.0
H1619 H 0.92654 0.85977 0.13102 0.0
H1620 H 0.94503 0.86278 0.09456 0.0
H1621 H 0.92585 0.84941 0.07947 0.0
H1622 H 0.94479 0.83539 0.02667 0.0
H1623 H 0.95908 0.84911 0.96443 0.0
H1624 H 0.91487 0.24098 0.76814 0.0
H1625 H 0.92797 0.22484 0.82818 0.0
H1626 H 0.91152 0.17443 0.7727 0.0
H1627 H 0.89859 0.19051 0.71175 0.0
H1628 H 0.91173 0.20283 0.88667 0.0
H1629 H 0.9644 0.16545 0.79772 0.0
H1630 H 0.95209 0.18391 0.77448 0.0
H1631 H 0.94189 0.16208 0.77858 0.0
C1632 C 0.91412 0.22645 0.76836 0.0
C1633 C 0.90572 0.21707 0.73483 0.0
C1634 C 0.92158 0.21723 0.80292 0.0
C1635 C 0.92089 0.1984 0.8049 0.0
C1636 C 0.91251 0.18894 0.77157 0.0
H1637 H 0.94798 0.13827 0.03919 0.0
H1638 H 0.93123 0.15192 0.98004 0.0
C1639 C 0.90508 0.19817 0.73676 0.0
C1640 C 0.92883 0.18889 0.84223 0.0
H1641 H 0.96168 0.15919 0.87117 0.0
C1642 C 0.9226 0.19322 0.88329 0.0
C1643 C 0.94311 0.17645 0.83786 0.0
C1644 C 0.95091 0.17177 0.79487 0.0
C1645 C 0.9304 0.18566 0.92002 0.0
C1646 C 0.94465 0.1732 0.91561 0.0
C1647 C 0.9507 0.16867 0.87454 0.0
C1648 C 0.9543 0.16553 0.95304 0.0
C1649 C 0.92375 0.19156 0.96324 0.0
C1650 C 0.97281 0.16859 0.95759 0.0
C1651 C 0.98239 0.16078 0.99111 0.0
C1652 C 0.97372 0.14963 0.021 0.0
C1653 C 0.95506 0.14689 0.01702 0.0
C1654 C 0.94546 0.15471 0.98322 0.0
H1655 H 0.9156 0.20405 0.96132 0.0
H1656 H 0.91519 0.18082 0.97702 0.0
H1657 H 0.93519 0.1939 0.98532 0.0
H1658 H 0.97994 0.17692 0.93483 0.0
H1659 H 0.99673 0.16325 0.99304 0.0
H1660 H 0.56993 0.13614 0.46002 0.0
H1661 H 0.58524 0.15115 0.5192 0.0
H1662 H 0.53452 0.17225 0.56314 0.0
H1663 H 0.51906 0.15702 0.50473 0.0
H1664 H 0.58805 0.18618 0.54286 0.0
H1665 H 0.55323 0.14778 0.66959 0.0
H1666 H 0.55213 0.14148 0.61411 0.0
H1667 H 0.53796 0.15912 0.63442 0.0
C1668 C 0.56201 0.14404 0.48214 0.0
C1669 C 0.5432 0.1452 0.47773 0.0
C1670 C 0.5708 0.1526 0.51604 0.0
C1671 C 0.561 0.16249 0.54628 0.0
C1672 C 0.54233 0.16428 0.54097 0.0
H1673 H 0.60224 0.24103 0.7249 0.0
H1674 H 0.58836 0.22487 0.66585 0.0
C1675 C 0.53352 0.15566 0.50726 0.0
C1676 C 0.57027 0.17098 0.58325 0.0
H1677 H 0.5702 0.17327 0.69212 0.0
C1678 C 0.58421 0.18329 0.57549 0.0
C1679 C 0.56552 0.16696 0.62594 0.0
C1680 C 0.55152 0.15298 0.63663 0.0
C1681 C 0.59314 0.19205 0.6091 0.0
C1682 C 0.58776 0.18871 0.65169 0.0
C1683 C 0.57419 0.17601 0.6595 0.0
C1684 C 0.59586 0.19844 0.68847 0.0
C1685 C 0.60844 0.20462 0.5986 0.0
C1686 C 0.60411 0.18897 0.72194 0.0
C1687 C 0.61193 0.1982 0.75625 0.0
C1688 C 0.6116 0.2171 0.75782 0.0
C1689 C 0.60293 0.22649 0.72469 0.0
C1690 C 0.59508 0.21726 0.69061 0.0
H1691 H 0.61436 0.20156 0.56691 0.0
H1692 H 0.60331 0.21862 0.59765 0.0
H1693 H 0.61923 0.20386 0.623 0.0
H1694 H 0.60475 0.17443 0.7212 0.0
H1695 H 0.61844 0.19052 0.78119 0.0
H1696 H 0.95891 0.61686 -0.00036 0.0
H1697 H 0.94683 0.62296 0.06989 0.0
H1698 H 0.94008 0.67885 0.03629 0.0
H1699 H 0.95358 0.673 0.96654 0.0
H1700 H 0.95971 0.67612 0.10255 0.0
H1701 H 0.90104 0.63179 0.12864 0.0
H1702 H 0.92051 0.61922 0.11313 0.0
H1703 H 0.91071 0.63514 0.07656 0.0
C1704 C 0.95433 0.63036 0.00664 0.0
C1705 C 0.95736 0.64457 0.97795 0.0
C1706 C 0.94726 0.63379 0.04687 0.0
C1707 C 0.94249 0.65133 0.05839 0.0
C1708 C 0.94381 0.6652 0.02807 0.0
H1709 H 0.89168 0.69512 0.26865 0.0
H1710 H 0.90034 0.67524 0.21138 0.0
C1711 C 0.95143 0.66189 0.98826 0.0
C1712 C 0.93909 0.65579 0.10353 0.0
H1713 H 0.91411 0.64495 0.1909 0.0
C1714 C 0.94958 0.66943 0.12174 0.0
C1715 C 0.92618 0.64674 0.1287 0.0
C1716 C 0.91387 0.63253 0.11058 0.0
C1717 C 0.94688 0.67508 0.16366 0.0
C1718 C 0.93402 0.666 0.18911 0.0
C1719 C 0.92416 0.65168 0.17155 0.0
C1720 C 0.92828 0.67339 0.23061 0.0
C1721 C 0.95702 0.69149 0.17892 0.0
C1722 C 0.94078 0.67789 0.26246 0.0
C1723 C 0.93601 0.69 0.29457 0.0
C1724 C 0.9185 0.69701 0.29597 0.0
C1725 C 0.90541 0.69027 0.2679 0.0
C1726 C 0.91031 0.67872 0.23519 0.0
H1727 H 0.96347 0.69889 0.15223 0.0
H1728 H 0.94791 0.70094 0.19576 0.0
H1729 H 0.96782 0.68729 0.20118 0.0
H1730 H 0.95455 0.67324 0.26051 0.0
H1731 H 0.94621 0.69463 0.31665 0.0
H1732 H 0.64434 0.6828 0.23529 0.0
H1733 H 0.64426 0.66277 0.29684 0.0
H1734 H 0.58725 0.67136 0.31203 0.0
H1735 H 0.58721 0.69159 0.25093 0.0
H1736 H 0.63406 0.67931 0.37394 0.0
H1737 H 0.59388 0.61813 0.34575 0.0
H1738 H 0.60498 0.63023 0.30316 0.0
H1739 H 0.58334 0.63747 0.32244 0.0
C1740 C 0.63165 0.67999 0.25088 0.0
C1741 C 0.61581 0.68909 0.23896 0.0
C1742 C 0.63167 0.66846 0.28589 0.0
C1743 C 0.61578 0.66557 0.30874 0.0
C1744 C 0.59962 0.67321 0.29429 0.0
H1745 H 0.56355 0.68297 0.51315 0.0
H1746 H 0.58842 0.68287 0.46266 0.0
C1747 C 0.59962 0.68491 0.25961 0.0
C1748 C 0.61641 0.65817 0.35219 0.0
H1749 H 0.59082 0.63194 0.41665 0.0
C1750 C 0.62518 0.66845 0.38346 0.0
C1751 C 0.6052 0.64381 0.36447 0.0
C1752 C 0.59647 0.63166 0.33207 0.0
C1753 C 0.62087 0.66642 0.42661 0.0
C1754 C 0.60754 0.65387 0.43819 0.0
C1755 C 0.60087 0.6418 0.40759 0.0
C1756 C 0.59716 0.65583 0.47786 0.0
C1757 C 0.62938 0.67877 0.45891 0.0
C1758 C 0.59436 0.64098 0.50436 0.0
C1759 C 0.58012 0.641 0.53321 0.0
C1760 C 0.56829 0.65578 0.53527 0.0
C1761 C 0.5723 0.67135 0.51195 0.0
C1762 C 0.58665 0.67135 0.48336 0.0
H1763 H 0.64329 0.68241 0.44925 0.0
H1764 H 0.62144 0.69137 0.46087 0.0
H1765 H 0.62974 0.6725 0.49102 0.0
H1766 H 0.60229 0.62887 0.50037 0.0
H1767 H 0.57755 0.62888 0.55133 0.0
H1768 H 0.56587 0.33105 0.50986 0.0
H1769 H 0.58707 0.33309 0.56898 0.0
H1770 H 0.60179 0.38673 0.53044 0.0
H1771 H 0.58075 0.3848 0.4706 0.0
H1772 H 0.63147 0.36328 0.56217 0.0
H1773 H 0.57331 0.36803 0.67039 0.0
H1774 H 0.57014 0.35028 0.63238 0.0
H1775 H 0.57186 0.37317 0.61414 0.0
C1776 C 0.57387 0.34313 0.5133 0.0
C1777 C 0.57139 0.35787 0.48612 0.0
C1778 C 0.58589 0.34432 0.54717 0.0
C1779 C 0.59551 0.36026 0.55445 0.0
C1780 C 0.59424 0.37446 0.52546 0.0
H1781 H 0.62603 0.32172 0.7956 0.0
H1782 H 0.62297 0.34926 0.7534 0.0
C1783 C 0.58224 0.37326 0.49134 0.0
C1784 C 0.60585 0.36204 0.59413 0.0
H1785 H 0.59956 0.35206 0.69839 0.0
C1786 C 0.62465 0.36145 0.59241 0.0
C1787 C 0.59702 0.36082 0.63381 0.0
C1788 C 0.57696 0.36335 0.63789 0.0
C1789 C 0.63457 0.35652 0.62857 0.0
C1790 C 0.62522 0.35135 0.66595 0.0
C1791 C 0.60682 0.35533 0.66944 0.0
C1792 C 0.63233 0.33721 0.69456 0.0
C1793 C 0.65475 0.35539 0.62525 0.0
C1794 C 0.63915 0.32143 0.67601 0.0
C1795 C 0.641 0.30585 0.69997 0.0
C1796 C 0.63569 0.30556 0.74282 0.0
C1797 C 0.62991 0.32154 0.76232 0.0
C1798 C 0.62836 0.33731 0.73838 0.0
H1799 H 0.66006 0.36758 0.60916 0.0
H1800 H 0.66122 0.35408 0.657 0.0
H1801 H 0.65851 0.34369 0.60519 0.0
H1802 H 0.64169 0.3206 0.6421 0.0
H1803 H 0.6456 0.29377 0.68409 0.0
H1804 H 0.96842 0.32506 0.96868 0.0
H1805 H 0.94693 0.32906 0.91077 0.0
H1806 H 0.93061 0.3801 0.96327 0.0
H1807 H 0.95183 0.37605 0.0221 0.0
H1808 H 0.90197 0.36086 0.93172 0.0
H1809 H 0.95574 0.36382 0.81219 0.0
H1810 H 0.95939 0.34451 0.8452 0.0
H1811 H 0.96006 0.36668 0.86849 0.0
C1812 C 0.9601 0.33701 0.96831 0.0
C1813 C 0.96201 0.35033 -0.00045 0.0
C1814 C 0.94798 0.33939 0.93499 0.0
C1815 C 0.93776 0.35521 0.93204 0.0
C1816 C 0.93868 0.36799 0.96466 0.0
H1817 H 0.89562 0.32179 0.69597 0.0
H1818 H 0.90258 0.34841 0.73887 0.0
C1819 C 0.95074 0.36557 0.99829 0.0
C1820 C 0.92619 0.35796 0.89452 0.0
H1821 H 0.92774 0.34875 0.78883 0.0
C1822 C 0.90751 0.35881 0.90011 0.0
C1823 C 0.93336 0.3566 0.85299 0.0
C1824 C 0.95326 0.35811 0.84438 0.0
C1825 C 0.89593 0.3551 0.86599 0.0
C1826 C 0.9034 0.34961 0.82657 0.0
C1827 C 0.92186 0.35218 0.81939 0.0
C1828 C 0.89402 0.33656 0.79864 0.0
C1829 C 0.87592 0.35566 0.87348 0.0
C1830 C 0.88625 0.32129 0.81751 0.0
C1831 C 0.8821 0.30629 0.79312 0.0
C1832 C 0.88605 0.306 0.74946 0.0
C1833 C 0.89274 0.3216 0.72982 0.0
C1834 C 0.89655 0.33685 0.75422 0.0
H1835 H 0.87231 0.36812 0.89103 0.0
H1836 H 0.86821 0.35522 0.84318 0.0
H1837 H 0.87189 0.34415 0.89388 0.0
H1838 H 0.88475 0.32026 0.85173 0.0
H1839 H 0.87688 0.29448 0.80913 0.0
H1840 H 0.11907 0.2535 0.78093 0.0
H1841 H 0.1046 0.27053 0.83746 0.0
H1842 H 0.10275 0.3173 0.75645 0.0
H1843 H 0.11778 0.30034 0.69941 0.0
H1844 H 0.11296 0.32573 0.83843 0.0
H1845 H 0.05193 0.28325 0.84236 0.0
H1846 H 0.07205 0.27031 0.84934 0.0
H1847 H 0.06819 0.28192 0.79982 0.0
C1848 C 0.11555 0.26739 0.77479 0.0
C1849 C 0.11944 0.27547 0.73526 0.0
C1850 C 0.10717 0.2771 0.80727 0.0
C1851 C 0.10219 0.29509 0.80101 0.0
C1852 C 0.10634 0.30338 0.76193 0.0
H1853 H 0.02598 0.34809 0.9684 0.0
H1854 H 0.04188 0.33448 0.90886 0.0
C1855 C 0.11489 0.29366 0.72931 0.0
C1856 C 0.09272 0.30507 0.83555 0.0
H1857 H 0.05634 0.30276 0.90176 0.0
C1858 C 0.1005 0.32081 0.85209 0.0
C1859 C 0.07633 0.29881 0.85304 0.0
C1860 C 0.06654 0.28276 0.83494 0.0
C1861 C 0.09255 0.33019 0.88626 0.0
C1862 C 0.07661 0.32341 0.90509 0.0
C1863 C 0.06868 0.30788 0.88787 0.0
C1864 C 0.06743 0.33245 0.94156 0.0
C1865 C 0.10114 0.34744 0.90119 0.0
C1866 C 0.0764 0.33587 0.98024 0.0
C1867 C 0.06732 0.3439 0.01456 0.0
C1868 C 0.04899 0.34837 0.01111 0.0
C1869 C 0.04006 0.34476 0.97246 0.0
C1870 C 0.04916 0.33698 0.93819 0.0
H1871 H 0.10985 0.35342 0.87615 0.0
H1872 H 0.09082 0.35749 0.9105 0.0
H1873 H 0.1097 0.34461 0.92937 0.0
H1874 H 0.09036 0.33208 0.98416 0.0
H1875 H 0.07458 0.34639 0.0439 0.0
H1876 H 0.41656 0.30906 0.80535 0.0
H1877 H 0.43128 0.32716 0.74984 0.0
H1878 H 0.4346 0.28038 0.66902 0.0
H1879 H 0.42064 0.26228 0.72413 0.0
H1880 H 0.46526 0.29772 0.66805 0.0
H1881 H 0.41008 0.34664 0.64112 0.0
H1882 H 0.41824 0.34604 0.69495 0.0
H1883 H 0.40716 0.32666 0.67294 0.0
C1884 C 0.42047 0.30266 0.77575 0.0
C1885 C 0.41741 0.28418 0.76939 0.0
C1886 C 0.42875 0.31306 0.74387 0.0
C1887 C 0.43383 0.30522 0.70482 0.0
C1888 C 0.43084 0.28679 0.69872 0.0
H1889 H 0.45868 0.35482 0.46071 0.0
H1890 H 0.44449 0.34041 0.52245 0.0
C1891 C 0.42282 0.27642 0.73049 0.0
C1892 C 0.44267 0.31579 0.67024 0.0
H1893 H 0.43701 0.35136 0.60244 0.0
C1894 C 0.45907 0.30948 0.65381 0.0
C1895 C 0.43451 0.331 0.65112 0.0
C1896 C 0.41645 0.33792 0.66559 0.0
C1897 C 0.46742 0.31771 0.61873 0.0
C1898 C 0.45951 0.33318 0.60022 0.0
C1899 C 0.44316 0.3396 0.61676 0.0
C1900 C 0.46788 0.34261 0.56325 0.0
C1901 C 0.48431 0.3093 0.60096 0.0
C1902 C 0.48561 0.34899 0.56574 0.0
C1903 C 0.49382 0.35695 0.53037 0.0
C1904 C 0.48437 0.35911 0.49182 0.0
C1905 C 0.46638 0.35331 0.4898 0.0
C1906 C 0.45824 0.34511 0.52514 0.0
H1907 H 0.48545 0.29491 0.61004 0.0
H1908 H 0.48471 0.31026 0.56566 0.0
H1909 H 0.49621 0.3164 0.61403 0.0
H1910 H 0.49319 0.34775 0.59506 0.0
H1911 H 0.50761 0.3615 0.53338 0.0
H1912 H 0.44998 0.64031 0.53742 0.0
H1913 H 0.43389 0.65369 0.47711 0.0
H1914 H 0.48291 0.67897 0.43484 0.0
H1915 H 0.49915 0.66548 0.49439 0.0
H1916 H 0.42853 0.68861 0.45167 0.0
H1917 H 0.46726 0.65172 0.3288 0.0
H1918 H 0.4682 0.64595 0.38463 0.0
H1919 H 0.48127 0.66442 0.36433 0.0
C1920 C 0.45733 0.64882 0.51549 0.0
C1921 C 0.47592 0.65166 0.52065 0.0
C1922 C 0.44811 0.65643 0.48093 0.0
C1923 C 0.45728 0.66697 0.45081 0.0
C1924 C 0.47564 0.67047 0.45695 0.0
H1925 H 0.41297 0.741 0.26654 0.0
H1926 H 0.42733 0.72611 0.32675 0.0
C1927 C 0.48488 0.66285 0.49131 0.0
C1928 C 0.44769 0.67434 0.41298 0.0
H1929 H 0.44867 0.67567 0.30404 0.0
C1930 C 0.43287 0.6857 0.41939 0.0
C1931 C 0.45313 0.67028 0.37077 0.0
C1932 C 0.46822 0.65728 0.36159 0.0
C1933 C 0.4237 0.69354 0.38488 0.0
C1934 C 0.42972 0.69021 0.34276 0.0
C1935 C 0.44418 0.6784 0.33629 0.0
C1936 C 0.42141 0.69914 0.30514 0.0
C1937 C 0.40754 0.7052 0.39391 0.0
C1938 C 0.4139 0.68895 0.27186 0.0
C1939 C 0.40578 0.69746 0.23689 0.0
C1940 C 0.40508 0.71634 0.23448 0.0
C1941 C 0.41307 0.72645 0.26738 0.0
C1942 C 0.4212 0.71795 0.30212 0.0
H1943 H 0.40154 0.70208 0.42548 0.0
H1944 H 0.41175 0.71951 0.39425 0.0
H1945 H 0.39705 0.70349 0.36904 0.0
H1946 H 0.41405 0.67441 0.27329 0.0
H1947 H 0.39982 0.68924 0.21214 0.0
H1948 H 0.1038 0.69073 0.28671 0.0
H1949 H 0.08993 0.67434 0.2273 0.0
H1950 H 0.09492 0.72135 0.14773 0.0
H1951 H 0.10814 0.73786 0.20683 0.0
H1952 H 0.06286 0.7072 0.13857 0.0
H1953 H 0.11338 0.6528 0.12379 0.0
H1954 H 0.10342 0.65407 0.1758 0.0
H1955 H 0.11701 0.67237 0.15662 0.0
C1956 C 0.10194 0.69755 0.25654 0.0
C1957 C 0.10709 0.71564 0.2517 0.0
C1958 C 0.09415 0.68811 0.22243 0.0
C1959 C 0.09164 0.69648 0.18263 0.0
C1960 C 0.09672 0.71454 0.17796 0.0
H1961 H 0.06655 0.64322 0.94044 0.0
H1962 H 0.08139 0.65902 -0.00051 0.0
C1963 C 0.10429 0.72399 0.21197 0.0
C1964 C 0.0832 0.68683 0.14602 0.0
H1965 H 0.08681 0.64973 0.08215 0.0
C1966 C 0.06816 0.69465 0.12623 0.0
C1967 C 0.09024 0.6706 0.12926 0.0
C1968 C 0.10701 0.66204 0.14715 0.0
C1969 C 0.05989 0.6867 0.09065 0.0
C1970 C 0.06647 0.6701 0.07497 0.0
C1971 C 0.08165 0.66236 0.09433 0.0
C1972 C 0.05757 0.66047 0.039 0.0
C1973 C 0.04442 0.69642 0.0697 0.0
C1974 C 0.03932 0.6558 0.04165 0.0
C1975 C 0.03079 0.64701 0.0079 0.0
C1976 C 0.04035 0.64232 0.97077 0.0
C1977 C 0.05875 0.64669 0.9684 0.0
C1978 C 0.06726 0.65568 0.00221 0.0
H1979 H 0.04484 0.71108 0.07644 0.0
H1980 H 0.0445 0.69446 0.03462 0.0
H1981 H 0.03156 0.69114 0.08251 0.0
H1982 H 0.03164 0.65887 0.07006 0.0
H1983 H 0.01667 0.64369 0.01124 0.0
loop_
_geom_bond_atom_site_label_1
_geom_bond_atom_site_label_2
_geom_bond_distance
_geom_bond_site_symmetry_2
_ccdc_geom_bond_type
Co0 O3 1.970 . S
Co0 N17 1.989 . S
Co0 O25 1.967 . S
Co0 O32 1.920 . S
Co1 O4 1.966 . S
Co1 N10 2.022 . S
Co1 N18 1.993 . S
Co1 O26 1.941 . S
C2 O3 1.258 . S
C2 O4 1.263 . S
O3 Co0 1.970 . S
O3 C2 1.258 . S
O4 Co1 1.966 . S
O4 C2 1.263 . S
C5 O6 1.235 . S
C5 O32 1.289 . S
O6 C5 1.235 . S
C7 C9 1.400 . S
C7 N10 1.351 . S
C7 C12 1.501 . S
C8 C9 1.387 . S
C8 N11 1.341 . S
C9 C7 1.400 . S
C9 C8 1.387 . S
N10 Co1 2.022 . S
N10 C7 1.351 . S
N10 N11 1.365 . S
N11 C8 1.341 . S
N11 N10 1.365 . S
N11 H31 0.862 . S
C12 C7 1.501 . S
C12 H13 0.961 . S
C12 H14 0.961 . S
C12 H15 0.960 . S
H13 C12 0.961 . S
H14 C12 0.961 . S
H15 C12 0.960 . S
C16 N17 1.342 . S
C16 C20 1.401 . S
C16 C21 1.499 . S
N17 Co0 1.989 . S
N17 C16 1.342 . S
N17 N18 1.388 . S
N18 Co1 1.993 . S
N18 N17 1.388 . S
N18 C19 1.346 . S
C19 N18 1.346 . S
C19 C20 1.396 . S
C19 C29 1.510 . S
C20 C16 1.401 . S
C20 C19 1.396 . S
C21 C16 1.499 . S
C21 H22 0.959 . S
C21 H23 0.960 . S
C21 H24 0.961 . S
H22 C21 0.959 . S
H23 C21 0.960 . S
H24 C21 0.961 . S
O25 Co0 1.967 . S
O25 C33 1.258 . S
O26 Co1 1.941 . S
O26 C33 1.266 . S
H27 C29 0.959 . S
H28 C29 0.961 . S
C29 C19 1.510 . S
C29 H27 0.959 . S
C29 H28 0.961 . S
C29 H30 0.960 . S
H30 C29 0.960 . S
H31 N11 0.862 . S
O32 Co0 1.920 . S
O32 C5 1.289 . S
C33 O25 1.258 . S
C33 O26 1.266 . S
Co34 O37 1.970 . S
Co34 N51 1.989 . S
Co34 O59 1.967 . S
Co34 O66 1.920 . S
Co35 O38 1.966 . S
Co35 N44 2.022 . S
Co35 N52 1.993 . S
Co35 O60 1.941 . S
C36 O37 1.258 . S
C36 O38 1.263 . S
O37 Co34 1.970 . S
O37 C36 1.258 . S
O38 Co35 1.966 . S
O38 C36 1.263 . S
C39 O40 1.235 . S
C39 O66 1.289 . S
O40 C39 1.235 . S
C41 C43 1.400 . S
C41 N44 1.351 . S
C41 C46 1.501 . S
C42 C43 1.387 . S
C42 N45 1.341 . S
C43 C41 1.400 . S
C43 C42 1.387 . S
N44 Co35 2.022 . S
N44 C41 1.351 . S
N44 N45 1.365 . S
N45 C42 1.341 . S
N45 N44 1.365 . S
N45 H65 0.862 . S
C46 C41 1.501 . S
C46 H47 0.961 . S
C46 H48 0.961 . S
C46 H49 0.960 . S
H47 C46 0.961 . S
H48 C46 0.961 . S
H49 C46 0.960 . S
C50 N51 1.342 . S
C50 C54 1.401 . S
C50 C55 1.499 . S
N51 Co34 1.989 . S
N51 C50 1.342 . S
N51 N52 1.388 . S
N52 Co35 1.993 . S
N52 N51 1.388 . S
N52 C53 1.346 . S
C53 N52 1.346 . S
C53 C54 1.396 . S
C53 C63 1.510 . S
C54 C50 1.401 . S
C54 C53 1.396 . S
C55 C50 1.499 . S
C55 H56 0.959 . S
C55 H57 0.960 . S
C55 H58 0.961 . S
H56 C55 0.959 . S
H57 C55 0.960 . S
H58 C55 0.961 . S
O59 Co34 1.967 . S
O59 C67 1.258 . S
O60 Co35 1.941 . S
O60 C67 1.266 . S
H61 C63 0.959 . S
H62 C63 0.961 . S
C63 C53 1.510 . S
C63 H61 0.959 . S
C63 H62 0.961 . S
C63 H64 0.960 . S
H64 C63 0.960 . S
H65 N45 0.862 . S
O66 Co34 1.920 . S
O66 C39 1.289 . S
C67 O59 1.258 . S
C67 O60 1.266 . S
Co68 O71 1.970 . S
Co68 N85 1.989 . S
Co68 O93 1.967 . S
Co68 O100 1.920 . S
Co69 O72 1.966 . S
Co69 N78 2.022 . S
Co69 N86 1.993 1_655 S
Co69 O94 1.938 1_655 S
C70 O71 1.258 1_655 S
C70 O72 1.263 . S
O71 Co68 1.970 . S
O71 C70 1.258 1_455 S
O72 Co69 1.966 . S
O72 C70 1.263 . S
C73 O74 1.235 . S
C73 O100 1.289 . S
O74 C73 1.235 . S
C75 C77 1.400 . S
C75 N78 1.351 . S
C75 C80 1.501 . S
C76 C77 1.387 . S
C76 N79 1.341 . S
C77 C75 1.400 . S
C77 C76 1.387 . S
N78 Co69 2.022 . S
N78 C75 1.351 . S
N78 N79 1.365 . S
N79 C76 1.341 . S
N79 N78 1.365 . S
N79 H99 0.862 . S
C80 C75 1.501 . S
C80 H81 0.961 . S
C80 H82 0.961 . S
C80 H83 0.960 . S
H81 C80 0.961 . S
H82 C80 0.961 . S
H83 C80 0.960 . S
C84 N85 1.342 . S
C84 C88 1.401 . S
C84 C89 1.499 . S
N85 Co68 1.989 . S
N85 C84 1.342 . S
N85 N86 1.388 . S
N86 Co69 1.993 1_455 S
N86 N85 1.388 . S
N86 C87 1.346 . S
C87 N86 1.346 . S
C87 C88 1.396 . S
C87 C97 1.510 . S
C88 C84 1.401 . S
C88 C87 1.396 . S
C89 C84 1.499 . S
C89 H90 0.959 . S
C89 H91 0.960 . S
C89 H92 0.961 . S
H90 C89 0.959 . S
H91 C89 0.960 . S
H92 C89 0.961 . S
O93 Co68 1.967 . S
O93 C101 1.258 . S
O94 Co69 1.938 1_455 S
O94 C101 1.285 . S
H95 C97 0.959 . S
H96 C97 0.961 . S
C97 C87 1.510 . S
C97 H95 0.959 . S
C97 H96 0.961 . S
C97 H98 0.960 . S
H98 C97 0.960 . S
H99 N79 0.862 . S
O100 Co68 1.920 . S
O100 C73 1.289 . S
C101 O93 1.258 . S
C101 O94 1.285 . S
Co102 O105 1.970 . S
Co102 N119 1.989 . S
Co102 O127 1.967 . S
Co102 O134 1.920 . S
Co103 O106 1.966 . S
Co103 N112 2.022 . S
Co103 N120 1.993 . S
Co103 O128 1.941 . S
C104 O105 1.258 . S
C104 O106 1.263 . S
O105 Co102 1.970 . S
O105 C104 1.258 . S
O106 Co103 1.966 . S
O106 C104 1.263 . S
C107 O108 1.235 . S
C107 O134 1.289 . S
O108 C107 1.235 . S
C109 C111 1.400 . S
C109 N112 1.351 . S
C109 C114 1.501 . S
C110 C111 1.387 1_556 S
C110 N113 1.341 1_556 S
C111 C109 1.400 . S
C111 C110 1.387 1_554 S
N112 Co103 2.022 . S
N112 C109 1.351 . S
N112 N113 1.365 . S
N113 C110 1.341 1_554 S
N113 N112 1.365 . S
N113 H133 0.862 . S
C114 C109 1.501 . S
C114 H115 0.961 . S
C114 H116 0.961 . S
C114 H117 0.960 . S
H115 C114 0.961 . S
H116 C114 0.961 . S
H117 C114 0.960 . S
C118 N119 1.342 . S
C118 C122 1.401 . S
C118 C123 1.499 . S
N119 Co102 1.989 . S
N119 C118 1.342 . S
N119 N120 1.388 . S
N120 Co103 1.993 . S
N120 N119 1.388 . S
N120 C121 1.346 . S
C121 N120 1.346 . S
C121 C122 1.396 . S
C121 C131 1.510 . S
C122 C118 1.401 . S
C122 C121 1.396 . S
C123 C118 1.499 . S
C123 H124 0.959 . S
C123 H125 0.960 . S
C123 H126 0.961 . S
H124 C123 0.959 . S
H125 C123 0.960 . S
H126 C123 0.961 . S
O127 Co102 1.967 . S
O127 C135 1.258 . S
O128 Co103 1.941 . S
O128 C135 1.266 . S
H129 C131 0.959 1_556 S
H130 C131 0.962 . S
C131 C121 1.510 . S
C131 H129 0.959 1_554 S
C131 H130 0.962 . S
C131 H132 0.960 . S
H132 C131 0.960 . S
H133 N113 0.862 . S
O134 Co102 1.920 . S
O134 C107 1.289 . S
C135 O127 1.258 . S
C135 O128 1.266 . S
Co136 O139 1.970 . S
Co136 N153 1.989 . S
Co136 O161 1.967 . S
Co136 O168 1.920 . S
Co137 O140 1.966 . S
Co137 N146 2.022 . S
Co137 N154 1.993 . S
Co137 O162 1.941 . S
C138 O139 1.258 . S
C138 O140 1.263 . S
O139 Co136 1.970 . S
O139 C138 1.258 . S
O140 Co137 1.966 . S
O140 C138 1.263 . S
C141 O142 1.235 . S
C141 O168 1.289 . S
O142 C141 1.235 . S
C143 C145 1.400 . S
C143 N146 1.351 . S
C143 C148 1.501 . S
C144 C145 1.387 . S
C144 N147 1.341 . S
C145 C143 1.400 . S
C145 C144 1.387 . S
N146 Co137 2.022 . S
N146 C143 1.351 . S
N146 N147 1.365 . S
N147 C144 1.341 . S
N147 N146 1.365 . S
N147 H167 0.862 . S
C148 C143 1.501 . S
C148 H149 0.961 . S
C148 H150 0.961 . S
C148 H151 0.960 . S
H149 C148 0.961 . S
H150 C148 0.961 . S
H151 C148 0.960 . S
C152 N153 1.342 . S
C152 C156 1.401 . S
C152 C157 1.499 . S
N153 Co136 1.989 . S
N153 C152 1.342 . S
N153 N154 1.388 . S
N154 Co137 1.993 . S
N154 N153 1.388 . S
N154 C155 1.346 . S
C155 N154 1.346 . S
C155 C156 1.396 . S
C155 C165 1.510 . S
C156 C152 1.401 . S
C156 C155 1.396 . S
C157 C152 1.499 . S
C157 H158 0.959 . S
C157 H159 0.960 . S
C157 H160 0.961 . S
H158 C157 0.959 . S
H159 C157 0.960 . S
H160 C157 0.961 . S
O161 Co136 1.967 . S
O161 C169 1.258 . S
O162 Co137 1.941 . S
O162 C169 1.266 . S
H163 C165 0.959 . S
H164 C165 0.961 . S
C165 C155 1.510 . S
C165 H163 0.959 . S
C165 H164 0.961 . S
C165 H166 0.960 . S
H166 C165 0.960 . S
H167 N147 0.862 . S
O168 Co136 1.920 . S
O168 C141 1.289 . S
C169 O161 1.258 . S
C169 O162 1.266 . S
Co170 O173 1.970 . S
Co170 N187 1.989 . S
Co170 O195 1.967 . S
Co170 O202 1.920 . S
Co171 O174 1.966 . S
Co171 N180 2.022 . S
Co171 N188 1.993 . S
Co171 O196 1.941 . S
C172 O173 1.258 . S
C172 O174 1.263 . S
O173 Co170 1.970 . S
O173 C172 1.258 . S
O174 Co171 1.966 . S
O174 C172 1.263 . S
C175 O176 1.235 . S
C175 O202 1.289 . S
O176 C175 1.235 . S
C177 C179 1.400 . S
C177 N180 1.351 . S
C177 C182 1.501 . S
C178 C179 1.387 1_554 S
C178 N181 1.341 1_554 S
C179 C177 1.400 . S
C179 C178 1.387 1_556 S
N180 Co171 2.022 . S
N180 C177 1.351 . S
N180 N181 1.365 . S
N181 C178 1.341 1_556 S
N181 N180 1.365 . S
N181 H201 0.862 . S
C182 C177 1.501 . S
C182 H183 0.961 . S
C182 H184 0.961 . S
C182 H185 0.960 . S
H183 C182 0.961 . S
H184 C182 0.961 . S
H185 C182 0.960 . S
C186 N187 1.342 . S
C186 C190 1.401 . S
C186 C191 1.499 . S
N187 Co170 1.989 . S
N187 C186 1.342 . S
N187 N188 1.388 . S
N188 Co171 1.993 . S
N188 N187 1.388 . S
N188 C189 1.346 . S
C189 N188 1.346 . S
C189 C190 1.396 . S
C189 C199 1.510 . S
C190 C186 1.401 . S
C190 C189 1.396 . S
C191 C186 1.499 . S
C191 H192 0.959 . S
C191 H193 0.960 . S
C191 H194 0.961 . S
H192 C191 0.959 . S
H193 C191 0.960 . S
H194 C191 0.961 . S
O195 Co170 1.967 . S
O195 C203 1.258 . S
O196 Co171 1.941 . S
O196 C203 1.266 . S
H197 C199 0.959 1_554 S
H198 C199 0.962 . S
C199 C189 1.510 . S
C199 H197 0.959 1_556 S
C199 H198 0.962 . S
C199 H200 0.960 . S
H200 C199 0.960 . S
H201 N181 0.862 . S
O202 Co170 1.920 . S
O202 C175 1.289 . S
C203 O195 1.258 . S
C203 O196 1.266 . S
Co204 O207 1.970 . S
Co204 N221 1.989 . S
Co204 O229 1.967 . S
Co204 O236 1.920 . S
Co205 O208 1.966 . S
Co205 N214 2.022 . S
Co205 N222 1.993 1_655 S
Co205 O230 1.938 1_655 S
C206 O207 1.258 1_655 S
C206 O208 1.263 . S
O207 Co204 1.970 . S
O207 C206 1.258 1_455 S
O208 Co205 1.966 . S
O208 C206 1.263 . S
C209 O210 1.235 . S
C209 O236 1.289 . S
O210 C209 1.235 . S
C211 C213 1.400 . S
C211 N214 1.351 . S
C211 C216 1.501 . S
C212 C213 1.387 . S
C212 N215 1.341 . S
C213 C211 1.400 . S
C213 C212 1.387 . S
N214 Co205 2.022 . S
N214 C211 1.351 . S
N214 N215 1.365 . S
N215 C212 1.341 . S
N215 N214 1.365 . S
N215 H235 0.862 . S
C216 C211 1.501 . S
C216 H217 0.961 . S
C216 H218 0.961 . S
C216 H219 0.960 . S
H217 C216 0.961 . S
H218 C216 0.961 . S
H219 C216 0.960 . S
C220 N221 1.342 . S
C220 C224 1.401 . S
C220 C225 1.499 . S
N221 Co204 1.989 . S
N221 C220 1.342 . S
N221 N222 1.388 . S
N222 Co205 1.993 1_455 S
N222 N221 1.388 . S
N222 C223 1.346 . S
C223 N222 1.346 . S
C223 C224 1.396 . S
C223 C233 1.510 . S
C224 C220 1.401 . S
C224 C223 1.396 . S
C225 C220 1.499 . S
C225 H226 0.959 . S
C225 H227 0.960 . S
C225 H228 0.961 . S
H226 C225 0.959 . S
H227 C225 0.960 . S
H228 C225 0.961 . S
O229 Co204 1.967 . S
O229 C237 1.258 . S
O230 Co205 1.938 1_455 S
O230 C237 1.285 . S
H231 C233 0.959 . S
H232 C233 0.961 . S
C233 C223 1.510 . S
C233 H231 0.959 . S
C233 H232 0.961 . S
C233 H234 0.960 . S
H234 C233 0.960 . S
H235 N215 0.862 . S
O236 Co204 1.920 . S
O236 C209 1.289 . S
C237 O229 1.258 . S
C237 O230 1.285 . S
Co238 O241 1.970 . S
Co238 N255 1.989 . S
Co238 O263 1.967 . S
Co238 O270 1.920 . S
Co239 O242 1.966 . S
Co239 N248 2.022 . S
Co239 N256 1.993 . S
Co239 O264 1.941 . S
C240 O241 1.258 . S
C240 O242 1.263 . S
O241 Co238 1.970 . S
O241 C240 1.258 . S
O242 Co239 1.966 . S
O242 C240 1.263 . S
C243 O244 1.235 . S
C243 O270 1.289 . S
O244 C243 1.235 . S
C245 C247 1.400 . S
C245 N248 1.351 . S
C245 C250 1.501 . S
C246 C247 1.387 . S
C246 N249 1.341 . S
C247 C245 1.400 . S
C247 C246 1.387 . S
N248 Co239 2.022 . S
N248 C245 1.351 . S
N248 N249 1.365 . S
N249 C246 1.341 . S
N249 N248 1.365 . S
N249 H269 0.862 . S
C250 C245 1.501 . S
C250 H251 0.961 . S
C250 H252 0.961 . S
C250 H253 0.960 . S
H251 C250 0.961 . S
H252 C250 0.961 . S
H253 C250 0.960 . S
C254 N255 1.342 . S
C254 C258 1.401 . S
C254 C259 1.499 . S
N255 Co238 1.989 . S
N255 C254 1.342 . S
N255 N256 1.388 . S
N256 Co239 1.993 . S
N256 N255 1.388 . S
N256 C257 1.346 . S
C257 N256 1.346 . S
C257 C258 1.396 . S
C257 C267 1.510 . S
C258 C254 1.401 . S
C258 C257 1.396 . S
C259 C254 1.499 . S
C259 H260 0.959 . S
C259 H261 0.960 . S
C259 H262 0.961 . S
H260 C259 0.959 . S
H261 C259 0.960 . S
H262 C259 0.961 . S
O263 Co238 1.967 . S
O263 C271 1.258 . S
O264 Co239 1.941 . S
O264 C271 1.266 . S
H265 C267 0.959 . S
H266 C267 0.961 . S
C267 C257 1.510 . S
C267 H265 0.959 . S
C267 H266 0.961 . S
C267 H268 0.960 . S
H268 C267 0.960 . S
H269 N249 0.862 . S
O270 Co238 1.920 . S
O270 C243 1.289 . S
C271 O263 1.258 . S
C271 O264 1.266 . S
Co272 O275 1.970 . S
Co272 N289 1.989 . S
Co272 O297 1.967 . S
Co272 O304 1.920 . S
Co273 O276 1.966 . S
Co273 N282 2.022 . S
Co273 N290 1.993 . S
Co273 O298 1.941 . S
C274 O275 1.258 . S
C274 O276 1.263 . S
O275 Co272 1.970 . S
O275 C274 1.258 . S
O276 Co273 1.966 . S
O276 C274 1.263 . S
C277 O278 1.235 . S
C277 O304 1.289 . S
O278 C277 1.235 . S
C279 C281 1.400 . S
C279 N282 1.351 . S
C279 C284 1.501 . S
C280 C281 1.387 . S
C280 N283 1.341 . S
C281 C279 1.400 . S
C281 C280 1.387 . S
N282 Co273 2.022 . S
N282 C279 1.351 . S
N282 N283 1.365 . S
N283 C280 1.341 . S
N283 N282 1.365 . S
N283 H303 0.862 . S
C284 C279 1.501 . S
C284 H285 0.961 . S
C284 H286 0.961 . S
C284 H287 0.960 . S
H285 C284 0.961 . S
H286 C284 0.961 . S
H287 C284 0.960 . S
C288 N289 1.342 . S
C288 C292 1.401 . S
C288 C293 1.499 . S
N289 Co272 1.989 . S
N289 C288 1.342 . S
N289 N290 1.388 . S
N290 Co273 1.993 . S
N290 N289 1.388 . S
N290 C291 1.346 . S
C291 N290 1.346 . S
C291 C292 1.396 . S
C291 C301 1.510 . S
C292 C288 1.401 . S
C292 C291 1.396 . S
C293 C288 1.499 . S
C293 H294 0.959 . S
C293 H295 0.960 . S
C293 H296 0.961 . S
H294 C293 0.959 . S
H295 C293 0.960 . S
H296 C293 0.961 . S
O297 Co272 1.967 . S
O297 C305 1.258 . S
O298 Co273 1.941 . S
O298 C305 1.266 . S
H299 C301 0.959 . S
H300 C301 0.961 . S
C301 C291 1.510 . S
C301 H299 0.959 . S
C301 H300 0.961 . S
C301 H302 0.960 . S
H302 C301 0.960 . S
H303 N283 0.862 . S
O304 Co272 1.920 . S
O304 C277 1.289 . S
C305 O297 1.258 . S
C305 O298 1.266 . S
Co306 O309 1.970 . S
Co306 N323 1.989 . S
Co306 O331 1.967 . S
Co306 O338 1.920 . S
Co307 O310 1.966 . S
Co307 N316 2.022 . S
Co307 N324 1.993 . S
Co307 O332 1.941 . S
C308 O309 1.258 . S
C308 O310 1.263 . S
O309 Co306 1.970 . S
O309 C308 1.258 . S
O310 Co307 1.966 . S
O310 C308 1.263 . S
C311 O312 1.235 . S
C311 O338 1.289 . S
O312 C311 1.235 . S
C313 C315 1.400 . S
C313 N316 1.351 . S
C313 C318 1.501 . S
C314 C315 1.387 1_554 S
C314 N317 1.341 1_554 S
C315 C313 1.400 . S
C315 C314 1.387 1_556 S
N316 Co307 2.022 . S
N316 C313 1.351 . S
N316 N317 1.365 . S
N317 C314 1.341 1_556 S
N317 N316 1.365 . S
N317 H337 0.862 . S
C318 C313 1.501 . S
C318 H319 0.961 . S
C318 H320 0.961 . S
C318 H321 0.960 . S
H319 C318 0.961 . S
H320 C318 0.961 . S
H321 C318 0.960 . S
C322 N323 1.342 . S
C322 C326 1.401 . S
C322 C327 1.499 . S
N323 Co306 1.989 . S
N323 C322 1.342 . S
N323 N324 1.388 . S
N324 Co307 1.993 . S
N324 N323 1.388 . S
N324 C325 1.346 . S
C325 N324 1.346 . S
C325 C326 1.396 . S
C325 C335 1.510 . S
C326 C322 1.401 . S
C326 C325 1.396 . S
C327 C322 1.499 . S
C327 H328 0.959 . S
C327 H329 0.960 . S
C327 H330 0.961 . S
H328 C327 0.959 . S
H329 C327 0.960 . S
H330 C327 0.961 . S
O331 Co306 1.967 . S
O331 C339 1.258 . S
O332 Co307 1.941 . S
O332 C339 1.266 . S
H333 C335 0.959 1_554 S
H334 C335 0.962 . S
C335 C325 1.510 . S
C335 H333 0.959 1_556 S
C335 H334 0.962 . S
C335 H336 0.960 . S
H336 C335 0.960 . S
H337 N317 0.862 . S
O338 Co306 1.920 . S
O338 C311 1.289 . S
C339 O331 1.258 . S
C339 O332 1.266 . S
Co340 O343 1.970 . S
Co340 N357 1.989 . S
Co340 O365 1.967 . S
Co340 O372 1.920 . S
Co341 O344 1.966 . S
Co341 N350 2.022 . S
Co341 N358 1.993 . S
Co341 O366 1.941 . S
C342 O343 1.258 . S
C342 O344 1.263 . S
O343 Co340 1.970 . S
O343 C342 1.258 . S
O344 Co341 1.966 . S
O344 C342 1.263 . S
C345 O346 1.235 . S
C345 O372 1.289 . S
O346 C345 1.235 . S
C347 C349 1.400 . S
C347 N350 1.351 . S
C347 C352 1.501 . S
C348 C349 1.387 1_556 S
C348 N351 1.341 1_556 S
C349 C347 1.400 . S
C349 C348 1.387 1_554 S
N350 Co341 2.022 . S
N350 C347 1.351 . S
N350 N351 1.365 . S
N351 C348 1.341 1_554 S
N351 N350 1.365 . S
N351 H371 0.862 . S
C352 C347 1.501 . S
C352 H353 0.961 . S
C352 H354 0.961 . S
C352 H355 0.960 . S
H353 C352 0.961 . S
H354 C352 0.961 . S
H355 C352 0.960 . S
C356 N357 1.342 . S
C356 C360 1.401 . S
C356 C361 1.499 . S
N357 Co340 1.989 . S
N357 C356 1.342 . S
N357 N358 1.388 . S
N358 Co341 1.993 . S
N358 N357 1.388 . S
N358 C359 1.346 . S
C359 N358 1.346 . S
C359 C360 1.396 . S
C359 C369 1.510 . S
C360 C356 1.401 . S
C360 C359 1.396 . S
C361 C356 1.499 . S
C361 H362 0.959 . S
C361 H363 0.960 . S
C361 H364 0.961 . S
H362 C361 0.959 . S
H363 C361 0.960 . S
H364 C361 0.961 . S
O365 Co340 1.967 . S
O365 C373 1.258 . S
O366 Co341 1.941 . S
O366 C373 1.266 . S
H367 C369 0.959 1_556 S
H368 C369 0.962 . S
C369 C359 1.510 . S
C369 H367 0.959 1_554 S
C369 H368 0.962 . S
C369 H370 0.960 . S
H370 C369 0.960 . S
H371 N351 0.862 . S
O372 Co340 1.920 . S
O372 C345 1.289 . S
C373 O365 1.258 . S
C373 O366 1.266 . S
Co374 O377 1.970 . S
Co374 N391 1.989 . S
Co374 O399 1.967 . S
Co374 O406 1.920 . S
Co375 O378 1.966 . S
Co375 N384 2.022 . S
Co375 N392 1.993 . S
Co375 O400 1.941 . S
C376 O377 1.258 . S
C376 O378 1.263 . S
O377 Co374 1.970 . S
O377 C376 1.258 . S
O378 Co375 1.966 . S
O378 C376 1.263 . S
C379 O380 1.235 . S
C379 O406 1.289 . S
O380 C379 1.235 . S
C381 C383 1.400 . S
C381 N384 1.351 . S
C381 C386 1.501 . S
C382 C383 1.387 . S
C382 N385 1.341 . S
C383 C381 1.400 . S
C383 C382 1.387 . S
N384 Co375 2.022 . S
N384 C381 1.351 . S
N384 N385 1.365 . S
N385 C382 1.341 . S
N385 N384 1.365 . S
N385 H405 0.862 . S
C386 C381 1.501 . S
C386 H387 0.961 . S
C386 H388 0.961 . S
C386 H389 0.960 . S
H387 C386 0.961 . S
H388 C386 0.961 . S
H389 C386 0.960 . S
C390 N391 1.342 . S
C390 C394 1.401 . S
C390 C395 1.499 . S
N391 Co374 1.989 . S
N391 C390 1.342 . S
N391 N392 1.388 . S
N392 Co375 1.993 . S
N392 N391 1.388 . S
N392 C393 1.346 . S
C393 N392 1.346 . S
C393 C394 1.396 . S
C393 C403 1.510 . S
C394 C390 1.401 . S
C394 C393 1.396 . S
C395 C390 1.499 . S
C395 H396 0.959 . S
C395 H397 0.960 . S
C395 H398 0.961 . S
H396 C395 0.959 . S
H397 C395 0.960 . S
H398 C395 0.961 . S
O399 Co374 1.967 . S
O399 C407 1.258 . S
O400 Co375 1.941 . S
O400 C407 1.266 . S
H401 C403 0.959 . S
H402 C403 0.961 . S
C403 C393 1.510 . S
C403 H401 0.959 . S
C403 H402 0.961 . S
C403 H404 0.960 . S
H404 C403 0.960 . S
H405 N385 0.862 . S
O406 Co374 1.920 . S
O406 C379 1.289 . S
C407 O399 1.258 . S
C407 O400 1.266 . S
Co408 O411 1.970 . S
Co408 N425 1.989 1_455 S
Co408 O433 1.967 . S
Co408 O440 1.920 1_455 S
Co409 O412 1.966 . S
Co409 N418 2.022 . S
Co409 N426 1.993 . S
Co409 O434 1.941 . S
C410 O411 1.258 . S
C410 O412 1.263 . S
O411 Co408 1.970 . S
O411 C410 1.258 . S
O412 Co409 1.966 . S
O412 C410 1.263 . S
C413 O414 1.235 . S
C413 O440 1.289 . S
O414 C413 1.235 . S
C415 C417 1.400 . S
C415 N418 1.351 . S
C415 C420 1.501 . S
C416 C417 1.387 . S
C416 N419 1.341 . S
C417 C415 1.400 . S
C417 C416 1.387 . S
N418 Co409 2.022 . S
N418 C415 1.351 . S
N418 N419 1.365 . S
N419 C416 1.341 . S
N419 N418 1.365 . S
N419 H439 0.862 . S
C420 C415 1.501 . S
C420 H421 0.961 . S
C420 H422 0.961 . S
C420 H423 0.960 . S
H421 C420 0.961 . S
H422 C420 0.961 . S
H423 C420 0.960 . S
C424 N425 1.342 . S
C424 C428 1.401 . S
C424 C429 1.499 . S
N425 Co408 1.989 1_655 S
N425 C424 1.342 . S
N425 N426 1.388 1_655 S
N426 Co409 1.993 . S
N426 N425 1.388 1_455 S
N426 C427 1.346 . S
C427 N426 1.346 . S
C427 C428 1.396 1_455 S
C427 C437 1.510 . S
C428 C424 1.401 . S
C428 C427 1.396 1_655 S
C429 C424 1.499 . S
C429 H430 0.959 . S
C429 H431 0.960 . S
C429 H432 0.961 . S
H430 C429 0.959 . S
H431 C429 0.960 . S
H432 C429 0.961 . S
O433 Co408 1.967 . S
O433 C441 1.258 . S
O434 Co409 1.941 . S
O434 C441 1.266 . S
H435 C437 0.959 . S
H436 C437 0.961 . S
C437 C427 1.510 . S
C437 H435 0.959 . S
C437 H436 0.961 . S
C437 H438 0.960 . S
H438 C437 0.960 . S
H439 N419 0.862 . S
O440 Co408 1.920 1_655 S
O440 C413 1.289 . S
C441 O433 1.258 . S
C441 O434 1.266 . S
Co442 O445 1.970 . S
Co442 N459 1.989 . S
Co442 O467 1.967 . S
Co442 O474 1.920 . S
Co443 O446 1.966 . S
Co443 N452 2.022 . S
Co443 N460 1.993 . S
Co443 O468 1.941 . S
C444 O445 1.258 . S
C444 O446 1.263 . S
O445 Co442 1.970 . S
O445 C444 1.258 . S
O446 Co443 1.966 . S
O446 C444 1.263 . S
C447 O448 1.235 . S
C447 O474 1.289 . S
O448 C447 1.235 . S
C449 C451 1.400 . S
C449 N452 1.351 . S
C449 C454 1.501 . S
C450 C451 1.387 . S
C450 N453 1.341 . S
C451 C449 1.400 . S
C451 C450 1.387 . S
N452 Co443 2.022 . S
N452 C449 1.351 . S
N452 N453 1.365 . S
N453 C450 1.341 . S
N453 N452 1.365 . S
N453 H473 0.862 . S
C454 C449 1.501 . S
C454 H455 0.961 . S
C454 H456 0.961 . S
C454 H457 0.960 . S
H455 C454 0.961 . S
H456 C454 0.961 . S
H457 C454 0.960 . S
C458 N459 1.342 . S
C458 C462 1.401 . S
C458 C463 1.499 . S
N459 Co442 1.989 . S
N459 C458 1.342 . S
N459 N460 1.388 . S
N460 Co443 1.993 . S
N460 N459 1.388 . S
N460 C461 1.346 . S
C461 N460 1.346 . S
C461 C462 1.396 . S
C461 C471 1.510 . S
C462 C458 1.401 . S
C462 C461 1.396 . S
C463 C458 1.499 . S
C463 H464 0.959 . S
C463 H465 0.960 . S
C463 H466 0.961 . S
H464 C463 0.959 . S
H465 C463 0.960 . S
H466 C463 0.961 . S
O467 Co442 1.967 . S
O467 C475 1.258 . S
O468 Co443 1.941 . S
O468 C475 1.266 . S
H469 C471 0.959 . S
H470 C471 0.961 . S
C471 C461 1.510 . S
C471 H469 0.959 . S
C471 H470 0.961 . S
C471 H472 0.960 . S
H472 C471 0.960 . S
H473 N453 0.862 . S
O474 Co442 1.920 . S
O474 C447 1.289 . S
C475 O467 1.258 . S
C475 O468 1.266 . S
Co476 O479 1.970 . S
Co476 N493 1.989 1_455 S
Co476 O501 1.967 . S
Co476 O508 1.920 1_455 S
Co477 O480 1.966 . S
Co477 N486 2.022 . S
Co477 N494 1.993 . S
Co477 O502 1.941 . S
C478 O479 1.258 . S
C478 O480 1.263 . S
O479 Co476 1.970 . S
O479 C478 1.258 . S
O480 Co477 1.966 . S
O480 C478 1.263 . S
C481 O482 1.235 . S
C481 O508 1.289 . S
O482 C481 1.235 . S
C483 C485 1.400 . S
C483 N486 1.351 . S
C483 C488 1.501 . S
C484 C485 1.387 . S
C484 N487 1.341 . S
C485 C483 1.400 . S
C485 C484 1.387 . S
N486 Co477 2.022 . S
N486 C483 1.351 . S
N486 N487 1.365 . S
N487 C484 1.341 . S
N487 N486 1.365 . S
N487 H507 0.862 . S
C488 C483 1.501 . S
C488 H489 0.961 . S
C488 H490 0.961 . S
C488 H491 0.960 . S
H489 C488 0.961 . S
H490 C488 0.961 . S
H491 C488 0.960 . S
C492 N493 1.342 . S
C492 C496 1.401 . S
C492 C497 1.499 . S
N493 Co476 1.989 1_655 S
N493 C492 1.342 . S
N493 N494 1.388 1_655 S
N494 Co477 1.993 . S
N494 N493 1.388 1_455 S
N494 C495 1.346 . S
C495 N494 1.346 . S
C495 C496 1.396 1_455 S
C495 C505 1.510 . S
C496 C492 1.401 . S
C496 C495 1.396 1_655 S
C497 C492 1.499 . S
C497 H498 0.959 . S
C497 H499 0.960 . S
C497 H500 0.961 . S
H498 C497 0.959 . S
H499 C497 0.960 . S
H500 C497 0.961 . S
O501 Co476 1.967 . S
O501 C509 1.258 . S
O502 Co477 1.941 . S
O502 C509 1.266 . S
H503 C505 0.959 . S
H504 C505 0.961 . S
C505 C495 1.510 . S
C505 H503 0.959 . S
C505 H504 0.961 . S
C505 H506 0.960 . S
H506 C505 0.960 . S
H507 N487 0.862 . S
O508 Co476 1.920 1_655 S
O508 C481 1.289 . S
C509 O501 1.258 . S
C509 O502 1.266 . S
Co510 O513 1.970 . S
Co510 N527 1.989 . S
Co510 O535 1.967 . S
Co510 O542 1.920 . S
Co511 O514 1.966 . S
Co511 N520 2.022 . S
Co511 N528 1.993 . S
Co511 O536 1.941 . S
C512 O513 1.258 . S
C512 O514 1.263 . S
O513 Co510 1.970 . S
O513 C512 1.258 . S
O514 Co511 1.966 . S
O514 C512 1.263 . S
C515 O516 1.235 . S
C515 O542 1.289 . S
O516 C515 1.235 . S
C517 C519 1.400 . S
C517 N520 1.351 . S
C517 C522 1.501 . S
C518 C519 1.387 . S
C518 N521 1.341 . S
C519 C517 1.400 . S
C519 C518 1.387 . S
N520 Co511 2.022 . S
N520 C517 1.351 . S
N520 N521 1.365 . S
N521 C518 1.341 . S
N521 N520 1.365 . S
N521 H541 0.862 . S
C522 C517 1.501 . S
C522 H523 0.961 . S
C522 H524 0.961 . S
C522 H525 0.960 . S
H523 C522 0.961 . S
H524 C522 0.961 . S
H525 C522 0.960 . S
C526 N527 1.342 . S
C526 C530 1.401 . S
C526 C531 1.499 . S
N527 Co510 1.989 . S
N527 C526 1.342 . S
N527 N528 1.388 . S
N528 Co511 1.993 . S
N528 N527 1.388 . S
N528 C529 1.346 . S
C529 N528 1.346 . S
C529 C530 1.396 . S
C529 C539 1.510 . S
C530 C526 1.401 . S
C530 C529 1.396 . S
C531 C526 1.499 . S
C531 H532 0.959 . S
C531 H533 0.960 . S
C531 H534 0.961 . S
H532 C531 0.959 . S
H533 C531 0.960 . S
H534 C531 0.961 . S
O535 Co510 1.967 . S
O535 C543 1.258 . S
O536 Co511 1.941 . S
O536 C543 1.266 . S
H537 C539 0.959 . S
H538 C539 0.961 . S
C539 C529 1.510 . S
C539 H537 0.959 . S
C539 H538 0.961 . S
C539 H540 0.960 . S
H540 C539 0.960 . S
H541 N521 0.862 . S
O542 Co510 1.920 . S
O542 C515 1.289 . S
C543 O535 1.258 . S
C543 O536 1.266 . S
H544 C552 0.929 . S
H545 C554 0.930 . S
H546 C556 0.930 . S
H547 C559 0.929 . S
H548 C562 0.930 . S
H549 C564 0.960 1_565 S
H550 C564 0.960 . S
H551 C564 0.960 . S
C552 H544 0.929 . S
C552 C553 1.377 . S
C552 C554 1.384 . S
C553 C552 1.377 . S
C553 C559 1.390 . S
C554 H545 0.930 . S
C554 C552 1.384 . S
C554 C555 1.372 . S
C555 C554 1.372 . S
C555 C556 1.400 . S
C555 C560 1.490 . S
C556 H546 0.930 . S
C556 C555 1.400 . S
C556 C559 1.386 . S
H557 C573 0.930 . S
H558 C574 0.931 . S
C559 H547 0.929 . S
C559 C553 1.390 . S
C559 C556 1.386 . S
C560 C555 1.490 . S
C560 C562 1.395 . S
C560 C563 1.403 . S
H561 C567 0.930 . S
C562 H548 0.930 . S
C562 C560 1.395 . S
C562 C565 1.403 1_545 S
C563 C560 1.403 . S
C563 C564 1.524 . S
C563 C567 1.400 1_545 S
C564 H549 0.960 1_545 S
C564 H550 0.960 . S
C564 H551 0.960 . S
C564 C563 1.524 . S
C565 C562 1.403 1_565 S
C565 C566 1.392 . S
C565 C569 1.495 . S
C566 C565 1.392 . S
C566 C567 1.385 . S
C566 C568 1.478 . S
C567 H561 0.930 . S
C567 C563 1.400 1_565 S
C567 C566 1.385 . S
C568 C566 1.478 . S
C568 C570 1.381 . S
C568 C574 1.383 . S
C569 C565 1.495 . S
C569 H575 0.944 1_565 S
C569 H576 0.961 . S
C569 H577 0.960 . S
C570 C568 1.381 . S
C570 C571 1.394 . S
C570 H578 0.930 . S
C571 C570 1.394 . S
C571 C572 1.383 . S
C571 H579 0.929 . S
C572 C571 1.383 . S
C572 C573 1.377 . S
C573 H557 0.930 . S
C573 C572 1.377 . S
C573 C574 1.379 . S
C574 H558 0.931 . S
C574 C568 1.383 . S
C574 C573 1.379 . S
H575 C569 0.944 1_545 S
H576 C569 0.961 . S
H577 C569 0.960 . S
H578 C570 0.930 . S
H579 C571 0.929 . S
H580 C588 0.929 . S
H581 C590 0.930 . S
H582 C592 0.930 . S
H583 C595 0.929 . S
H584 C598 0.930 . S
H585 C600 0.960 . S
H586 C600 0.960 . S
H587 C600 0.960 . S
C588 H580 0.929 . S
C588 C589 1.377 . S
C588 C590 1.384 . S
C589 C588 1.377 . S
C589 C595 1.390 . S
C590 H581 0.930 . S
C590 C588 1.384 . S
C590 C591 1.372 . S
C591 C590 1.372 . S
C591 C592 1.400 . S
C591 C596 1.490 . S
C592 H582 0.930 . S
C592 C591 1.400 . S
C592 C595 1.386 . S
H593 C609 0.930 . S
H594 C610 0.931 . S
C595 H583 0.929 . S
C595 C589 1.390 . S
C595 C592 1.386 . S
C596 C591 1.490 . S
C596 C598 1.395 . S
C596 C599 1.403 . S
H597 C603 0.930 . S
C598 H584 0.930 . S
C598 C596 1.395 . S
C598 C601 1.403 . S
C599 C596 1.403 . S
C599 C600 1.524 . S
C599 C603 1.400 . S
C600 H585 0.960 . S
C600 H586 0.960 . S
C600 H587 0.960 . S
C600 C599 1.524 . S
C601 C598 1.403 . S
C601 C602 1.392 . S
C601 C605 1.495 . S
C602 C601 1.392 . S
C602 C603 1.385 . S
C602 C604 1.478 . S
C603 H597 0.930 . S
C603 C599 1.400 . S
C603 C602 1.385 . S
C604 C602 1.478 . S
C604 C606 1.381 . S
C604 C610 1.383 . S
C605 C601 1.495 . S
C605 H611 0.959 . S
C605 H612 0.961 . S
C605 H613 0.960 . S
C606 C604 1.381 . S
C606 C607 1.394 . S
C606 H614 0.930 . S
C607 C606 1.394 . S
C607 C608 1.383 . S
C607 H615 0.929 . S
C608 C607 1.383 . S
C608 C609 1.377 . S
C609 H593 0.930 . S
C609 C608 1.377 . S
C609 C610 1.379 . S
C610 H594 0.931 . S
C610 C604 1.383 . S
C610 C609 1.379 . S
H611 C605 0.959 . S
H612 C605 0.961 . S
H613 C605 0.960 . S
H614 C606 0.930 . S
H615 C607 0.929 . S
H616 C624 0.929 . S
H617 C626 0.930 . S
H618 C628 0.930 . S
H619 C631 0.929 . S
H620 C634 0.930 . S
H621 C636 0.960 . S
H622 C636 0.971 . S
H623 C636 0.960 1_545 S
C624 H616 0.929 . S
C624 C625 1.377 1_655 S
C624 C626 1.384 . S
C625 C624 1.377 1_455 S
C625 C631 1.390 . S
C626 H617 0.930 . S
C626 C624 1.384 . S
C626 C627 1.372 1_655 S
C627 C626 1.372 1_455 S
C627 C628 1.400 . S
C627 C632 1.490 . S
C628 H618 0.930 . S
C628 C627 1.400 . S
C628 C631 1.386 . S
H629 C645 0.930 . S
H630 C646 0.931 . S
C631 H619 0.929 . S
C631 C625 1.390 . S
C631 C628 1.386 . S
C632 C627 1.490 . S
C632 C634 1.395 1_554 S
C632 C635 1.403 1_545 S
H633 C639 0.930 . S
C634 H620 0.930 . S
C634 C632 1.395 1_556 S
C634 C637 1.403 . S
C635 C632 1.403 1_565 S
C635 C636 1.524 . S
C635 C639 1.400 . S
C636 H621 0.960 . S
C636 H622 0.971 . S
C636 H623 0.960 1_565 S
C636 C635 1.524 . S
C637 C634 1.403 . S
C637 C638 1.392 1_545 S
C637 C641 1.495 . S
C638 C637 1.392 1_565 S
C638 C639 1.385 1_556 S
C638 C640 1.478 . S
C639 H633 0.930 . S
C639 C635 1.400 . S
C639 C638 1.385 1_554 S
C640 C638 1.478 . S
C640 C642 1.381 1_455 S
C640 C646 1.383 . S
C641 C637 1.495 . S
C641 H647 0.951 1_455 S
C641 H648 0.961 . S
C641 H649 0.960 1_445 S
C642 C640 1.381 1_655 S
C642 C643 1.394 . S
C642 H650 0.930 . S
C643 C642 1.394 . S
C643 C644 1.383 1_655 S
C643 H651 0.929 . S
C644 C643 1.383 1_455 S
C644 C645 1.377 . S
C645 H629 0.930 . S
C645 C644 1.377 . S
C645 C646 1.379 . S
C646 H630 0.931 . S
C646 C640 1.383 . S
C646 C645 1.379 . S
H647 C641 0.951 1_655 S
H648 C641 0.961 . S
H649 C641 0.960 1_665 S
H650 C642 0.930 . S
H651 C643 0.929 . S
H652 C660 0.929 . S
H653 C662 0.930 . S
H654 C664 0.930 . S
H655 C667 0.929 . S
H656 C670 0.930 . S
H657 C672 0.960 . S
H658 C672 0.960 . S
H659 C672 0.960 . S
C660 H652 0.929 . S
C660 C661 1.377 . S
C660 C662 1.384 . S
C661 C660 1.377 . S
C661 C667 1.390 . S
C662 H653 0.930 . S
C662 C660 1.384 . S
C662 C663 1.372 . S
C663 C662 1.372 . S
C663 C664 1.400 . S
C663 C668 1.490 . S
C664 H654 0.930 . S
C664 C663 1.400 . S
C664 C667 1.386 . S
H665 C681 0.930 . S
H666 C682 0.931 . S
C667 H655 0.929 . S
C667 C661 1.390 . S
C667 C664 1.386 . S
C668 C663 1.490 . S
C668 C670 1.395 . S
C668 C671 1.403 . S
H669 C675 0.930 . S
C670 H656 0.930 . S
C670 C668 1.395 . S
C670 C673 1.403 . S
C671 C668 1.403 . S
C671 C672 1.524 . S
C671 C675 1.400 . S
C672 H657 0.960 . S
C672 H658 0.960 . S
C672 H659 0.960 . S
C672 C671 1.524 . S
C673 C670 1.403 . S
C673 C674 1.392 . S
C673 C677 1.495 . S
C674 C673 1.392 . S
C674 C675 1.385 . S
C674 C676 1.478 . S
C675 H669 0.930 . S
C675 C671 1.400 . S
C675 C674 1.385 . S
C676 C674 1.478 . S
C676 C678 1.381 . S
C676 C682 1.383 . S
C677 C673 1.495 . S
C677 H683 0.959 . S
C677 H684 0.961 . S
C677 H685 0.960 . S
C678 C676 1.381 . S
C678 C679 1.394 . S
C678 H686 0.930 . S
C679 C678 1.394 . S
C679 C680 1.383 . S
C679 H687 0.929 . S
C680 C679 1.383 . S
C680 C681 1.377 . S
C681 H665 0.930 . S
C681 C680 1.377 . S
C681 C682 1.379 . S
C682 H666 0.931 . S
C682 C676 1.383 . S
C682 C681 1.379 . S
H683 C677 0.959 . S
H684 C677 0.961 . S
H685 C677 0.960 . S
H686 C678 0.930 . S
H687 C679 0.929 . S
H688 C696 0.929 . S
H689 C698 0.930 . S
H690 C700 0.930 . S
H691 C703 0.929 . S
H692 C706 0.930 . S
H693 C708 0.960 . S
H694 C708 0.960 . S
H695 C708 0.960 . S
C696 H688 0.929 . S
C696 C697 1.377 . S
C696 C698 1.384 . S
C697 C696 1.377 . S
C697 C703 1.390 . S
C698 H689 0.930 . S
C698 C696 1.384 . S
C698 C699 1.372 . S
C699 C698 1.372 . S
C699 C700 1.400 . S
C699 C704 1.490 . S
C700 H690 0.930 . S
C700 C699 1.400 . S
C700 C703 1.386 . S
H701 C717 0.930 . S
H702 C718 0.931 . S
C703 H691 0.929 . S
C703 C697 1.390 . S
C703 C700 1.386 . S
C704 C699 1.490 . S
C704 C706 1.395 . S
C704 C707 1.403 . S
H705 C711 0.930 . S
C706 H692 0.930 . S
C706 C704 1.395 . S
C706 C709 1.403 . S
C707 C704 1.403 . S
C707 C708 1.524 . S
C707 C711 1.400 . S
C708 H693 0.960 . S
C708 H694 0.960 . S
C708 H695 0.960 . S
C708 C707 1.524 . S
C709 C706 1.403 . S
C709 C710 1.392 . S
C709 C713 1.495 . S
C710 C709 1.392 . S
C710 C711 1.385 . S
C710 C712 1.478 . S
C711 H705 0.930 . S
C711 C707 1.400 . S
C711 C710 1.385 . S
C712 C710 1.478 . S
C712 C714 1.381 . S
C712 C718 1.383 . S
C713 C709 1.495 . S
C713 H719 0.959 . S
C713 H720 0.961 . S
C713 H721 0.960 . S
C714 C712 1.381 . S
C714 C715 1.394 . S
C714 H722 0.930 . S
C715 C714 1.394 . S
C715 C716 1.383 . S
C715 H723 0.929 . S
C716 C715 1.383 . S
C716 C717 1.377 . S
C717 H701 0.930 . S
C717 C716 1.377 . S
C717 C718 1.379 . S
C718 H702 0.931 . S
C718 C712 1.383 . S
C718 C717 1.379 . S
H719 C713 0.959 . S
H720 C713 0.961 . S
H721 C713 0.960 . S
H722 C714 0.930 . S
H723 C715 0.929 . S
H724 C732 0.929 . S
H725 C734 0.930 . S
H726 C736 0.930 . S
H727 C739 0.929 . S
H728 C742 0.930 . S
H729 C744 0.960 . S
H730 C744 0.960 . S
H731 C744 0.960 . S
C732 H724 0.929 . S
C732 C733 1.377 . S
C732 C734 1.384 . S
C733 C732 1.377 . S
C733 C739 1.390 . S
C734 H725 0.930 . S
C734 C732 1.384 . S
C734 C735 1.372 . S
C735 C734 1.372 . S
C735 C736 1.400 . S
C735 C740 1.490 . S
C736 H726 0.930 . S
C736 C735 1.400 . S
C736 C739 1.386 . S
H737 C753 0.930 . S
H738 C754 0.931 . S
C739 H727 0.929 . S
C739 C733 1.390 . S
C739 C736 1.386 . S
C740 C735 1.490 . S
C740 C742 1.395 . S
C740 C743 1.403 . S
H741 C747 0.930 . S
C742 H728 0.930 . S
C742 C740 1.395 . S
C742 C745 1.403 . S
C743 C740 1.403 . S
C743 C744 1.524 . S
C743 C747 1.400 . S
C744 H729 0.960 . S
C744 H730 0.960 . S
C744 H731 0.960 . S
C744 C743 1.524 . S
C745 C742 1.403 . S
C745 C746 1.392 . S
C745 C749 1.495 . S
C746 C745 1.392 . S
C746 C747 1.385 . S
C746 C748 1.478 . S
C747 H741 0.930 . S
C747 C743 1.400 . S
C747 C746 1.385 . S
C748 C746 1.478 . S
C748 C750 1.381 . S
C748 C754 1.383 . S
C749 C745 1.495 . S
C749 H755 0.959 . S
C749 H756 0.961 . S
C749 H757 0.960 . S
C750 C748 1.381 . S
C750 C751 1.394 . S
C750 H758 0.930 . S
C751 C750 1.394 . S
C751 C752 1.383 . S
C751 H759 0.929 . S
C752 C751 1.383 . S
C752 C753 1.377 . S
C753 H737 0.930 . S
C753 C752 1.377 . S
C753 C754 1.379 . S
C754 H738 0.931 . S
C754 C748 1.383 . S
C754 C753 1.379 . S
H755 C749 0.959 . S
H756 C749 0.961 . S
H757 C749 0.960 . S
H758 C750 0.930 . S
H759 C751 0.929 . S
H760 C768 0.929 1_655 S
H761 C770 0.930 1_655 S
H762 C772 0.930 . S
H763 C775 0.929 . S
H764 C778 0.930 . S
H765 C780 0.960 . S
H766 C780 0.960 1_655 S
H767 C780 0.960 . S
C768 H760 0.929 1_455 S
C768 C769 1.377 . S
C768 C770 1.384 . S
C769 C768 1.377 . S
C769 C775 1.390 . S
C770 H761 0.930 1_455 S
C770 C768 1.384 . S
C770 C771 1.372 . S
C771 C770 1.372 . S
C771 C772 1.400 . S
C771 C776 1.490 . S
C772 H762 0.930 . S
C772 C771 1.400 . S
C772 C775 1.386 . S
H773 C789 0.930 . S
H774 C790 0.931 . S
C775 H763 0.929 . S
C775 C769 1.390 . S
C775 C772 1.386 . S
C776 C771 1.490 . S
C776 C778 1.395 . S
C776 C779 1.403 1_556 S
H777 C783 0.930 . S
C778 H764 0.930 . S
C778 C776 1.395 . S
C778 C781 1.403 . S
C779 C776 1.403 1_554 S
C779 C780 1.524 . S
C779 C783 1.400 . S
C780 H765 0.960 . S
C780 H766 0.960 1_455 S
C780 H767 0.960 . S
C780 C779 1.524 . S
C781 C778 1.403 . S
C781 C782 1.392 1_556 S
C781 C785 1.495 . S
C782 C781 1.392 1_554 S
C782 C783 1.385 . S
C782 C784 1.478 . S
C783 H777 0.930 . S
C783 C779 1.400 . S
C783 C782 1.385 . S
C784 C782 1.478 . S
C784 C786 1.381 . S
C784 C790 1.383 . S
C785 C781 1.495 . S
C785 H791 0.959 . S
C785 H792 0.961 . S
C785 H793 0.960 . S
C786 C784 1.381 . S
C786 C787 1.394 . S
C786 H794 0.930 1_455 S
C787 C786 1.394 . S
C787 C788 1.383 . S
C787 H795 0.929 1_455 S
C788 C787 1.383 . S
C788 C789 1.377 . S
C789 H773 0.930 . S
C789 C788 1.377 . S
C789 C790 1.379 . S
C790 H774 0.931 . S
C790 C784 1.383 . S
C790 C789 1.379 . S
H791 C785 0.959 . S
H792 C785 0.961 . S
H793 C785 0.960 . S
H794 C786 0.930 1_655 S
H795 C787 0.929 1_655 S
H796 C804 0.929 . S
H797 C806 0.930 . S
H798 C808 0.930 . S
H799 C811 0.929 . S
H800 C814 0.930 . S
H801 C816 0.960 . S
H802 C816 0.960 . S
H803 C816 0.960 . S
C804 H796 0.929 . S
C804 C805 1.377 . S
C804 C806 1.384 . S
C805 C804 1.377 . S
C805 C811 1.390 . S
C806 H797 0.930 . S
C806 C804 1.384 . S
C806 C807 1.372 . S
C807 C806 1.372 . S
C807 C808 1.400 . S
C807 C812 1.490 . S
C808 H798 0.930 . S
C808 C807 1.400 . S
C808 C811 1.386 . S
H809 C825 0.930 . S
H810 C826 0.931 . S
C811 H799 0.929 . S
C811 C805 1.390 . S
C811 C808 1.386 . S
C812 C807 1.490 . S
C812 C814 1.395 . S
C812 C815 1.403 . S
H813 C819 0.930 . S
C814 H800 0.930 . S
C814 C812 1.395 . S
C814 C817 1.403 . S
C815 C812 1.403 . S
C815 C816 1.524 . S
C815 C819 1.400 . S
C816 H801 0.960 . S
C816 H802 0.960 . S
C816 H803 0.960 . S
C816 C815 1.524 . S
C817 C814 1.403 . S
C817 C818 1.392 . S
C817 C821 1.495 . S
C818 C817 1.392 . S
C818 C819 1.385 . S
C818 C820 1.478 . S
C819 H813 0.930 . S
C819 C815 1.400 . S
C819 C818 1.385 . S
C820 C818 1.478 . S
C820 C822 1.381 . S
C820 C826 1.383 . S
C821 C817 1.495 . S
C821 H827 0.959 . S
C821 H828 0.961 . S
C821 H829 0.960 . S
C822 C820 1.381 . S
C822 C823 1.394 . S
C822 H830 0.930 . S
C823 C822 1.394 . S
C823 C824 1.383 . S
C823 H831 0.929 . S
C824 C823 1.383 . S
C824 C825 1.377 . S
C825 H809 0.930 . S
C825 C824 1.377 . S
C825 C826 1.379 . S
C826 H810 0.931 . S
C826 C820 1.383 . S
C826 C825 1.379 . S
H827 C821 0.959 . S
H828 C821 0.961 . S
H829 C821 0.960 . S
H830 C822 0.930 . S
H831 C823 0.929 . S
H832 C840 0.929 . S
H833 C842 0.930 . S
H834 C844 0.930 . S
H835 C847 0.929 . S
H836 C850 0.930 . S
H837 C852 0.960 . S
H838 C852 0.960 . S
H839 C852 0.960 . S
C840 H832 0.929 . S
C840 C841 1.377 . S
C840 C842 1.384 . S
C841 C840 1.377 . S
C841 C847 1.390 . S
C842 H833 0.930 . S
C842 C840 1.384 . S
C842 C843 1.372 . S
C843 C842 1.372 . S
C843 C844 1.400 . S
C843 C848 1.490 . S
C844 H834 0.930 . S
C844 C843 1.400 . S
C844 C847 1.386 . S
H845 C861 0.930 . S
H846 C862 0.931 . S
C847 H835 0.929 . S
C847 C841 1.390 . S
C847 C844 1.386 . S
C848 C843 1.490 . S
C848 C850 1.395 . S
C848 C851 1.403 . S
H849 C855 0.930 . S
C850 H836 0.930 . S
C850 C848 1.395 . S
C850 C853 1.403 . S
C851 C848 1.403 . S
C851 C852 1.524 . S
C851 C855 1.400 . S
C852 H837 0.960 . S
C852 H838 0.960 . S
C852 H839 0.960 . S
C852 C851 1.524 . S
C853 C850 1.403 . S
C853 C854 1.392 . S
C853 C857 1.495 . S
C854 C853 1.392 . S
C854 C855 1.385 . S
C854 C856 1.478 . S
C855 H849 0.930 . S
C855 C851 1.400 . S
C855 C854 1.385 . S
C856 C854 1.478 . S
C856 C858 1.381 . S
C856 C862 1.383 . S
C857 C853 1.495 . S
C857 H863 0.959 . S
C857 H864 0.961 . S
C857 H865 0.960 . S
C858 C856 1.381 . S
C858 C859 1.394 1_554 S
C858 H866 0.930 . S
C859 C858 1.394 1_556 S
C859 C860 1.383 . S
C859 H867 0.929 . S
C860 C859 1.383 . S
C860 C861 1.377 1_556 S
C861 H845 0.930 . S
C861 C860 1.377 1_554 S
C861 C862 1.379 . S
C862 H846 0.931 . S
C862 C856 1.383 . S
C862 C861 1.379 . S
H863 C857 0.959 . S
H864 C857 0.961 . S
H865 C857 0.960 . S
H866 C858 0.930 . S
H867 C859 0.929 . S
H868 C876 0.929 . S
H869 C878 0.930 . S
H870 C880 0.930 . S
H871 C883 0.929 . S
H872 C886 0.930 . S
H873 C888 0.960 . S
H874 C888 0.960 . S
H875 C888 0.960 . S
C876 H868 0.929 . S
C876 C877 1.377 . S
C876 C878 1.384 . S
C877 C876 1.377 . S
C877 C883 1.390 . S
C878 H869 0.930 . S
C878 C876 1.384 . S
C878 C879 1.372 . S
C879 C878 1.372 . S
C879 C880 1.400 . S
C879 C884 1.490 . S
C880 H870 0.930 . S
C880 C879 1.400 . S
C880 C883 1.386 . S
H881 C897 0.930 . S
H882 C898 0.931 . S
C883 H871 0.929 . S
C883 C877 1.390 . S
C883 C880 1.386 . S
C884 C879 1.490 . S
C884 C886 1.395 . S
C884 C887 1.403 . S
H885 C891 0.930 . S
C886 H872 0.930 . S
C886 C884 1.395 . S
C886 C889 1.403 . S
C887 C884 1.403 . S
C887 C888 1.524 . S
C887 C891 1.400 . S
C888 H873 0.960 . S
C888 H874 0.960 . S
C888 H875 0.960 . S
C888 C887 1.524 . S
C889 C886 1.403 . S
C889 C890 1.392 . S
C889 C893 1.495 . S
C890 C889 1.392 . S
C890 C891 1.385 . S
C890 C892 1.478 . S
C891 H885 0.930 . S
C891 C887 1.400 . S
C891 C890 1.385 . S
C892 C890 1.478 . S
C892 C894 1.381 . S
C892 C898 1.383 . S
C893 C889 1.495 . S
C893 H899 0.959 . S
C893 H900 0.961 . S
C893 H901 0.960 . S
C894 C892 1.381 . S
C894 C895 1.394 . S
C894 H902 0.930 . S
C895 C894 1.394 . S
C895 C896 1.383 . S
C895 H903 0.929 . S
C896 C895 1.383 . S
C896 C897 1.377 . S
C897 H881 0.930 . S
C897 C896 1.377 . S
C897 C898 1.379 . S
C898 H882 0.931 . S
C898 C892 1.383 . S
C898 C897 1.379 . S
H899 C893 0.959 . S
H900 C893 0.961 . S
H901 C893 0.960 . S
H902 C894 0.930 . S
H903 C895 0.929 . S
H904 C912 0.929 . S
H905 C914 0.930 . S
H906 C916 0.930 . S
H907 C919 0.929 . S
H908 C922 0.930 . S
H909 C924 0.960 . S
H910 C924 0.960 . S
H911 C924 0.960 . S
C912 H904 0.929 . S
C912 C913 1.377 . S
C912 C914 1.384 . S
C913 C912 1.377 . S
C913 C919 1.390 . S
C914 H905 0.930 . S
C914 C912 1.384 . S
C914 C915 1.372 . S
C915 C914 1.372 . S
C915 C916 1.400 . S
C915 C920 1.490 . S
C916 H906 0.930 . S
C916 C915 1.400 . S
C916 C919 1.386 . S
H917 C933 0.930 . S
H918 C934 0.931 . S
C919 H907 0.929 . S
C919 C913 1.390 . S
C919 C916 1.386 . S
C920 C915 1.490 . S
C920 C922 1.395 . S
C920 C923 1.403 . S
H921 C927 0.930 . S
C922 H908 0.930 . S
C922 C920 1.395 . S
C922 C925 1.403 . S
C923 C920 1.403 . S
C923 C924 1.524 . S
C923 C927 1.400 . S
C924 H909 0.960 . S
C924 H910 0.960 . S
C924 H911 0.960 . S
C924 C923 1.524 . S
C925 C922 1.403 . S
C925 C926 1.392 . S
C925 C929 1.495 . S
C926 C925 1.392 . S
C926 C927 1.385 . S
C926 C928 1.478 . S
C927 H921 0.930 . S
C927 C923 1.400 . S
C927 C926 1.385 . S
C928 C926 1.478 . S
C928 C930 1.381 . S
C928 C934 1.383 . S
C929 C925 1.495 . S
C929 H935 0.959 . S
C929 H936 0.961 . S
C929 H937 0.960 . S
C930 C928 1.381 . S
C930 C931 1.394 . S
C930 H938 0.930 . S
C931 C930 1.394 . S
C931 C932 1.383 . S
C931 H939 0.929 . S
C932 C931 1.383 . S
C932 C933 1.377 . S
C933 H917 0.930 . S
C933 C932 1.377 . S
C933 C934 1.379 . S
C934 H918 0.931 . S
C934 C928 1.383 . S
C934 C933 1.379 . S
H935 C929 0.959 . S
H936 C929 0.961 . S
H937 C929 0.960 . S
H938 C930 0.930 . S
H939 C931 0.929 . S
H940 C948 0.929 . S
H941 C950 0.930 . S
H942 C952 0.930 . S
H943 C955 0.929 . S
H944 C958 0.930 . S
H945 C960 0.960 . S
H946 C960 0.960 . S
H947 C960 0.960 . S
C948 H940 0.929 . S
C948 C949 1.377 1_556 S
C948 C950 1.384 . S
C949 C948 1.377 1_554 S
C949 C955 1.390 . S
C950 H941 0.930 . S
C950 C948 1.384 . S
C950 C951 1.372 . S
C951 C950 1.372 . S
C951 C952 1.400 . S
C951 C956 1.490 . S
C952 H942 0.930 . S
C952 C951 1.400 . S
C952 C955 1.386 1_556 S
H953 C969 0.930 . S
H954 C970 0.931 . S
C955 H943 0.929 . S
C955 C949 1.390 . S
C955 C952 1.386 1_554 S
C956 C951 1.490 . S
C956 C958 1.395 . S
C956 C959 1.403 . S
H957 C963 0.930 . S
C958 H944 0.930 . S
C958 C956 1.395 . S
C958 C961 1.403 . S
C959 C956 1.403 . S
C959 C960 1.524 . S
C959 C963 1.400 . S
C960 H945 0.960 . S
C960 H946 0.960 . S
C960 H947 0.960 . S
C960 C959 1.524 . S
C961 C958 1.403 . S
C961 C962 1.392 . S
C961 C965 1.495 . S
C962 C961 1.392 . S
C962 C963 1.385 . S
C962 C964 1.478 . S
C963 H957 0.930 . S
C963 C959 1.400 . S
C963 C962 1.385 . S
C964 C962 1.478 . S
C964 C966 1.381 . S
C964 C970 1.383 . S
C965 C961 1.495 . S
C965 H971 0.959 . S
C965 H972 0.961 . S
C965 H973 0.960 . S
C966 C964 1.381 . S
C966 C967 1.394 . S
C966 H974 0.930 . S
C967 C966 1.394 . S
C967 C968 1.383 . S
C967 H975 0.929 . S
C968 C967 1.383 . S
C968 C969 1.377 . S
C969 H953 0.930 . S
C969 C968 1.377 . S
C969 C970 1.379 . S
C970 H954 0.931 . S
C970 C964 1.383 . S
C970 C969 1.379 . S
H971 C965 0.959 . S
H972 C965 0.961 . S
H973 C965 0.960 . S
H974 C966 0.930 . S
H975 C967 0.929 . S
H976 C984 0.929 . S
H977 C986 0.930 . S
H978 C988 0.930 . S
H979 C991 0.929 . S
H980 C994 0.930 . S
H981 C996 0.960 . S
H982 C996 0.960 . S
H983 C996 0.960 . S
C984 H976 0.929 . S
C984 C985 1.377 . S
C984 C986 1.384 . S
C985 C984 1.377 . S
C985 C991 1.390 . S
C986 H977 0.930 . S
C986 C984 1.384 . S
C986 C987 1.372 . S
C987 C986 1.372 . S
C987 C988 1.400 . S
C987 C992 1.490 . S
C988 H978 0.930 . S
C988 C987 1.400 . S
C988 C991 1.386 . S
H989 C1005 0.930 . S
H990 C1006 0.931 . S
C991 H979 0.929 . S
C991 C985 1.390 . S
C991 C988 1.386 . S
C992 C987 1.490 . S
C992 C994 1.395 . S
C992 C995 1.403 . S
H993 C999 0.930 . S
C994 H980 0.930 . S
C994 C992 1.395 . S
C994 C997 1.403 . S
C995 C992 1.403 . S
C995 C996 1.524 . S
C995 C999 1.400 . S
C996 H981 0.960 . S
C996 H982 0.960 . S
C996 H983 0.960 . S
C996 C995 1.524 . S
C997 C994 1.403 . S
C997 C998 1.392 . S
C997 C1001 1.495 . S
C998 C997 1.392 . S
C998 C999 1.385 . S
C998 C1000 1.478 . S
C999 H993 0.930 . S
C999 C995 1.400 . S
C999 C998 1.385 . S
C1000 C998 1.478 . S
C1000 C1002 1.381 . S
C1000 C1006 1.383 . S
C1001 C997 1.495 . S
C1001 H1007 0.959 . S
C1001 H1008 0.961 . S
C1001 H1009 0.960 . S
C1002 C1000 1.381 . S
C1002 C1003 1.394 1_556 S
C1002 H1010 0.930 . S
C1003 C1002 1.394 1_554 S
C1003 C1004 1.383 1_554 S
C1003 H1011 0.929 . S
C1004 C1003 1.383 1_556 S
C1004 C1005 1.377 . S
C1005 H989 0.930 . S
C1005 C1004 1.377 . S
C1005 C1006 1.379 . S
C1006 H990 0.931 . S
C1006 C1000 1.383 . S
C1006 C1005 1.379 . S
H1007 C1001 0.959 . S
H1008 C1001 0.961 . S
H1009 C1001 0.960 . S
H1010 C1002 0.930 . S
H1011 C1003 0.929 . S
H1012 C1020 0.929 . S
H1013 C1022 0.930 . S
H1014 C1024 0.930 . S
H1015 C1027 0.929 . S
H1016 C1030 0.930 . S
H1017 C1032 0.960 . S
H1018 C1032 0.960 . S
H1019 C1032 0.960 . S
C1020 H1012 0.929 . S
C1020 C1021 1.377 . S
C1020 C1022 1.384 . S
C1021 C1020 1.377 . S
C1021 C1027 1.390 . S
C1022 H1013 0.930 . S
C1022 C1020 1.384 . S
C1022 C1023 1.372 . S
C1023 C1022 1.372 . S
C1023 C1024 1.400 . S
C1023 C1028 1.490 . S
C1024 H1014 0.930 . S
C1024 C1023 1.400 . S
C1024 C1027 1.386 . S
H1025 C1041 0.930 . S
H1026 C1042 0.931 . S
C1027 H1015 0.929 . S
C1027 C1021 1.390 . S
C1027 C1024 1.386 . S
C1028 C1023 1.490 . S
C1028 C1030 1.395 . S
C1028 C1031 1.403 . S
H1029 C1035 0.930 . S
C1030 H1016 0.930 . S
C1030 C1028 1.395 . S
C1030 C1033 1.403 . S
C1031 C1028 1.403 . S
C1031 C1032 1.524 . S
C1031 C1035 1.400 . S
C1032 H1017 0.960 . S
C1032 H1018 0.960 . S
C1032 H1019 0.960 . S
C1032 C1031 1.524 . S
C1033 C1030 1.403 . S
C1033 C1034 1.392 . S
C1033 C1037 1.495 . S
C1034 C1033 1.392 . S
C1034 C1035 1.385 . S
C1034 C1036 1.478 . S
C1035 H1029 0.930 . S
C1035 C1031 1.400 . S
C1035 C1034 1.385 . S
C1036 C1034 1.478 . S
C1036 C1038 1.381 . S
C1036 C1042 1.383 . S
C1037 C1033 1.495 . S
C1037 H1043 0.959 . S
C1037 H1044 0.961 . S
C1037 H1045 0.960 . S
C1038 C1036 1.381 . S
C1038 C1039 1.394 . S
C1038 H1046 0.930 . S
C1039 C1038 1.394 . S
C1039 C1040 1.383 . S
C1039 H1047 0.929 . S
C1040 C1039 1.383 . S
C1040 C1041 1.377 . S
C1041 H1025 0.930 . S
C1041 C1040 1.377 . S
C1041 C1042 1.379 . S
C1042 H1026 0.931 . S
C1042 C1036 1.383 . S
C1042 C1041 1.379 . S
H1043 C1037 0.959 . S
H1044 C1037 0.961 . S
H1045 C1037 0.960 . S
H1046 C1038 0.930 . S
H1047 C1039 0.929 . S
H1048 C1056 0.929 . S
H1049 C1058 0.930 . S
H1050 C1060 0.930 . S
H1051 C1063 0.929 . S
H1052 C1066 0.930 . S
H1053 C1068 0.960 . S
H1054 C1068 0.960 . S
H1055 C1068 0.960 . S
C1056 H1048 0.929 . S
C1056 C1057 1.377 . S
C1056 C1058 1.384 . S
C1057 C1056 1.377 . S
C1057 C1063 1.390 . S
C1058 H1049 0.930 . S
C1058 C1056 1.384 . S
C1058 C1059 1.372 . S
C1059 C1058 1.372 . S
C1059 C1060 1.400 . S
C1059 C1064 1.490 . S
C1060 H1050 0.930 . S
C1060 C1059 1.400 . S
C1060 C1063 1.386 . S
H1061 C1077 0.930 . S
H1062 C1078 0.931 . S
C1063 H1051 0.929 . S
C1063 C1057 1.390 . S
C1063 C1060 1.386 . S
C1064 C1059 1.490 . S
C1064 C1066 1.395 . S
C1064 C1067 1.403 . S
H1065 C1071 0.930 . S
C1066 H1052 0.930 . S
C1066 C1064 1.395 . S
C1066 C1069 1.403 . S
C1067 C1064 1.403 . S
C1067 C1068 1.524 . S
C1067 C1071 1.400 . S
C1068 H1053 0.960 . S
C1068 H1054 0.960 . S
C1068 H1055 0.960 . S
C1068 C1067 1.524 . S
C1069 C1066 1.403 . S
C1069 C1070 1.392 . S
C1069 C1073 1.495 . S
C1070 C1069 1.392 . S
C1070 C1071 1.385 . S
C1070 C1072 1.478 . S
C1071 H1065 0.930 . S
C1071 C1067 1.400 . S
C1071 C1070 1.385 . S
C1072 C1070 1.478 . S
C1072 C1074 1.381 . S
C1072 C1078 1.383 . S
C1073 C1069 1.495 . S
C1073 H1079 0.959 . S
C1073 H1080 0.961 . S
C1073 H1081 0.960 . S
C1074 C1072 1.381 . S
C1074 C1075 1.394 . S
C1074 H1082 0.930 . S
C1075 C1074 1.394 . S
C1075 C1076 1.383 . S
C1075 H1083 0.929 . S
C1076 C1075 1.383 . S
C1076 C1077 1.377 . S
C1077 H1061 0.930 . S
C1077 C1076 1.377 . S
C1077 C1078 1.379 . S
C1078 H1062 0.931 . S
C1078 C1072 1.383 . S
C1078 C1077 1.379 . S
H1079 C1073 0.959 . S
H1080 C1073 0.961 . S
H1081 C1073 0.960 . S
H1082 C1074 0.930 . S
H1083 C1075 0.929 . S
H1084 C1092 0.929 . S
H1085 C1094 0.930 . S
H1086 C1096 0.930 . S
H1087 C1099 0.929 . S
H1088 C1102 0.930 . S
H1089 C1104 0.960 . S
H1090 C1104 0.960 . S
H1091 C1104 0.960 . S
C1092 H1084 0.929 . S
C1092 C1093 1.377 . S
C1092 C1094 1.384 . S
C1093 C1092 1.377 . S
C1093 C1099 1.390 . S
C1094 H1085 0.930 . S
C1094 C1092 1.384 . S
C1094 C1095 1.372 . S
C1095 C1094 1.372 . S
C1095 C1096 1.400 . S
C1095 C1100 1.490 . S
C1096 H1086 0.930 . S
C1096 C1095 1.400 . S
C1096 C1099 1.386 . S
H1097 C1113 0.930 1_556 S
H1098 C1114 0.931 . S
C1099 H1087 0.929 . S
C1099 C1093 1.390 . S
C1099 C1096 1.386 . S
C1100 C1095 1.490 . S
C1100 C1102 1.395 . S
C1100 C1103 1.403 . S
H1101 C1107 0.930 . S
C1102 H1088 0.930 . S
C1102 C1100 1.395 . S
C1102 C1105 1.403 . S
C1103 C1100 1.403 . S
C1103 C1104 1.524 . S
C1103 C1107 1.400 . S
C1104 H1089 0.960 . S
C1104 H1090 0.960 . S
C1104 H1091 0.960 . S
C1104 C1103 1.524 . S
C1105 C1102 1.403 . S
C1105 C1106 1.392 . S
C1105 C1109 1.495 . S
C1106 C1105 1.392 . S
C1106 C1107 1.385 . S
C1106 C1108 1.478 . S
C1107 H1101 0.930 . S
C1107 C1103 1.400 . S
C1107 C1106 1.385 . S
C1108 C1106 1.478 . S
C1108 C1110 1.381 . S
C1108 C1114 1.383 . S
C1109 C1105 1.495 . S
C1109 H1115 0.959 . S
C1109 H1116 0.961 . S
C1109 H1117 0.960 . S
C1110 C1108 1.381 . S
C1110 C1111 1.394 . S
C1110 H1118 0.930 . S
C1111 C1110 1.394 . S
C1111 C1112 1.383 . S
C1111 H1119 0.929 . S
C1112 C1111 1.383 . S
C1112 C1113 1.377 . S
C1113 H1097 0.930 1_554 S
C1113 C1112 1.377 . S
C1113 C1114 1.379 . S
C1114 H1098 0.931 . S
C1114 C1108 1.383 . S
C1114 C1113 1.379 . S
H1115 C1109 0.959 . S
H1116 C1109 0.961 . S
H1117 C1109 0.960 . S
H1118 C1110 0.930 . S
H1119 C1111 0.929 . S
H1120 C1128 0.929 . S
H1121 C1130 0.930 . S
H1122 C1132 0.930 . S
H1123 C1135 0.929 . S
H1124 C1138 0.930 . S
H1125 C1140 0.960 . S
H1126 C1140 0.960 . S
H1127 C1140 0.960 . S
C1128 H1120 0.929 . S
C1128 C1129 1.377 . S
C1128 C1130 1.384 . S
C1129 C1128 1.377 . S
C1129 C1135 1.390 . S
C1130 H1121 0.930 . S
C1130 C1128 1.384 . S
C1130 C1131 1.372 . S
C1131 C1130 1.372 . S
C1131 C1132 1.400 . S
C1131 C1136 1.490 . S
C1132 H1122 0.930 . S
C1132 C1131 1.400 . S
C1132 C1135 1.386 . S
H1133 C1149 0.930 . S
H1134 C1150 0.931 . S
C1135 H1123 0.929 . S
C1135 C1129 1.390 . S
C1135 C1132 1.386 . S
C1136 C1131 1.490 . S
C1136 C1138 1.395 . S
C1136 C1139 1.403 . S
H1137 C1143 0.930 . S
C1138 H1124 0.930 . S
C1138 C1136 1.395 . S
C1138 C1141 1.403 . S
C1139 C1136 1.403 . S
C1139 C1140 1.524 . S
C1139 C1143 1.400 . S
C1140 H1125 0.960 . S
C1140 H1126 0.960 . S
C1140 H1127 0.960 . S
C1140 C1139 1.524 . S
C1141 C1138 1.403 . S
C1141 C1142 1.392 . S
C1141 C1145 1.495 . S
C1142 C1141 1.392 . S
C1142 C1143 1.385 . S
C1142 C1144 1.478 . S
C1143 H1137 0.930 . S
C1143 C1139 1.400 . S
C1143 C1142 1.385 . S
C1144 C1142 1.478 . S
C1144 C1146 1.381 . S
C1144 C1150 1.383 . S
C1145 C1141 1.495 . S
C1145 H1151 0.959 . S
C1145 H1152 0.961 . S
C1145 H1153 0.960 . S
C1146 C1144 1.381 . S
C1146 C1147 1.394 . S
C1146 H1154 0.930 . S
C1147 C1146 1.394 . S
C1147 C1148 1.383 . S
C1147 H1155 0.929 . S
C1148 C1147 1.383 . S
C1148 C1149 1.377 . S
C1149 H1133 0.930 . S
C1149 C1148 1.377 . S
C1149 C1150 1.379 . S
C1150 H1134 0.931 . S
C1150 C1144 1.383 . S
C1150 C1149 1.379 . S
H1151 C1145 0.959 . S
H1152 C1145 0.961 . S
H1153 C1145 0.960 . S
H1154 C1146 0.930 . S
H1155 C1147 0.929 . S
H1156 C1164 0.929 1_554 S
H1157 C1166 0.930 . S
H1158 C1168 0.930 . S
H1159 C1171 0.929 . S
H1160 C1174 0.930 . S
H1161 C1176 0.960 . S
H1162 C1176 0.960 . S
H1163 C1176 0.960 . S
C1164 H1156 0.929 1_556 S
C1164 C1165 1.377 1_556 S
C1164 C1166 1.384 . S
C1165 C1164 1.377 1_554 S
C1165 C1171 1.390 1_554 S
C1166 H1157 0.930 . S
C1166 C1164 1.384 . S
C1166 C1167 1.372 . S
C1167 C1166 1.372 . S
C1167 C1168 1.400 . S
C1167 C1172 1.490 . S
C1168 H1158 0.930 . S
C1168 C1167 1.400 . S
C1168 C1171 1.386 . S
H1169 C1185 0.930 . S
H1170 C1186 0.931 . S
C1171 H1159 0.929 . S
C1171 C1165 1.390 1_556 S
C1171 C1168 1.386 . S
C1172 C1167 1.490 . S
C1172 C1174 1.395 . S
C1172 C1175 1.403 . S
H1173 C1179 0.930 . S
C1174 H1160 0.930 . S
C1174 C1172 1.395 . S
C1174 C1177 1.403 . S
C1175 C1172 1.403 . S
C1175 C1176 1.524 . S
C1175 C1179 1.400 . S
C1176 H1161 0.960 . S
C1176 H1162 0.960 . S
C1176 H1163 0.960 . S
C1176 C1175 1.524 . S
C1177 C1174 1.403 . S
C1177 C1178 1.392 . S
C1177 C1181 1.495 . S
C1178 C1177 1.392 . S
C1178 C1179 1.385 . S
C1178 C1180 1.478 . S
C1179 H1173 0.930 . S
C1179 C1175 1.400 . S
C1179 C1178 1.385 . S
C1180 C1178 1.478 . S
C1180 C1182 1.381 . S
C1180 C1186 1.383 . S
C1181 C1177 1.495 . S
C1181 H1187 0.959 . S
C1181 H1188 0.961 . S
C1181 H1189 0.960 . S
C1182 C1180 1.381 . S
C1182 C1183 1.394 . S
C1182 H1190 0.930 . S
C1183 C1182 1.394 . S
C1183 C1184 1.383 . S
C1183 H1191 0.929 . S
C1184 C1183 1.383 . S
C1184 C1185 1.377 . S
C1185 H1169 0.930 . S
C1185 C1184 1.377 . S
C1185 C1186 1.379 . S
C1186 H1170 0.931 . S
C1186 C1180 1.383 . S
C1186 C1185 1.379 . S
H1187 C1181 0.959 . S
H1188 C1181 0.961 . S
H1189 C1181 0.960 . S
H1190 C1182 0.930 . S
H1191 C1183 0.929 . S
H1192 C1200 0.929 . S
H1193 C1202 0.930 . S
H1194 C1204 0.930 . S
H1195 C1207 0.929 . S
H1196 C1210 0.930 . S
H1197 C1212 0.960 . S
H1198 C1212 0.960 . S
H1199 C1212 0.960 . S
C1200 H1192 0.929 . S
C1200 C1201 1.377 1_554 S
C1200 C1202 1.384 . S
C1201 C1200 1.377 1_556 S
C1201 C1207 1.390 . S
C1202 H1193 0.930 . S
C1202 C1200 1.384 . S
C1202 C1203 1.372 . S
C1203 C1202 1.372 . S
C1203 C1204 1.400 . S
C1203 C1208 1.490 . S
C1204 H1194 0.930 . S
C1204 C1203 1.400 . S
C1204 C1207 1.386 1_554 S
H1205 C1221 0.930 . S
H1206 C1222 0.931 . S
C1207 H1195 0.929 . S
C1207 C1201 1.390 . S
C1207 C1204 1.386 1_556 S
C1208 C1203 1.490 . S
C1208 C1210 1.395 . S
C1208 C1211 1.403 . S
H1209 C1215 0.930 . S
C1210 H1196 0.930 . S
C1210 C1208 1.395 . S
C1210 C1213 1.403 . S
C1211 C1208 1.403 . S
C1211 C1212 1.524 . S
C1211 C1215 1.400 . S
C1212 H1197 0.960 . S
C1212 H1198 0.960 . S
C1212 H1199 0.960 . S
C1212 C1211 1.524 . S
C1213 C1210 1.403 . S
C1213 C1214 1.392 . S
C1213 C1217 1.495 . S
C1214 C1213 1.392 . S
C1214 C1215 1.385 . S
C1214 C1216 1.478 . S
C1215 H1209 0.930 . S
C1215 C1211 1.400 . S
C1215 C1214 1.385 . S
C1216 C1214 1.478 . S
C1216 C1218 1.381 . S
C1216 C1222 1.383 . S
C1217 C1213 1.495 . S
C1217 H1223 0.959 . S
C1217 H1224 0.961 . S
C1217 H1225 0.960 . S
C1218 C1216 1.381 . S
C1218 C1219 1.394 . S
C1218 H1226 0.930 . S
C1219 C1218 1.394 . S
C1219 C1220 1.383 . S
C1219 H1227 0.929 . S
C1220 C1219 1.383 . S
C1220 C1221 1.377 . S
C1221 H1205 0.930 . S
C1221 C1220 1.377 . S
C1221 C1222 1.379 . S
C1222 H1206 0.931 . S
C1222 C1216 1.383 . S
C1222 C1221 1.379 . S
H1223 C1217 0.959 . S
H1224 C1217 0.961 . S
H1225 C1217 0.960 . S
H1226 C1218 0.930 . S
H1227 C1219 0.929 . S
H1228 C1236 0.929 . S
H1229 C1238 0.930 . S
H1230 C1240 0.930 . S
H1231 C1243 0.929 . S
H1232 C1246 0.930 . S
H1233 C1248 0.960 . S
H1234 C1248 0.960 . S
H1235 C1248 0.960 . S
C1236 H1228 0.929 . S
C1236 C1237 1.377 . S
C1236 C1238 1.384 . S
C1237 C1236 1.377 . S
C1237 C1243 1.390 . S
C1238 H1229 0.930 . S
C1238 C1236 1.384 . S
C1238 C1239 1.372 . S
C1239 C1238 1.372 . S
C1239 C1240 1.400 . S
C1239 C1244 1.490 . S
C1240 H1230 0.930 . S
C1240 C1239 1.400 . S
C1240 C1243 1.386 . S
H1241 C1257 0.930 . S
H1242 C1258 0.931 . S
C1243 H1231 0.929 . S
C1243 C1237 1.390 . S
C1243 C1240 1.386 . S
C1244 C1239 1.490 . S
C1244 C1246 1.395 . S
C1244 C1247 1.403 . S
H1245 C1251 0.930 . S
C1246 H1232 0.930 . S
C1246 C1244 1.395 . S
C1246 C1249 1.403 . S
C1247 C1244 1.403 . S
C1247 C1248 1.524 . S
C1247 C1251 1.400 . S
C1248 H1233 0.960 . S
C1248 H1234 0.960 . S
C1248 H1235 0.960 . S
C1248 C1247 1.524 . S
C1249 C1246 1.403 . S
C1249 C1250 1.392 . S
C1249 C1253 1.495 . S
C1250 C1249 1.392 . S
C1250 C1251 1.385 . S
C1250 C1252 1.478 . S
C1251 H1245 0.930 . S
C1251 C1247 1.400 . S
C1251 C1250 1.385 . S
C1252 C1250 1.478 . S
C1252 C1254 1.381 . S
C1252 C1258 1.383 . S
C1253 C1249 1.495 . S
C1253 H1259 0.959 . S
C1253 H1260 0.961 . S
C1253 H1261 0.960 . S
C1254 C1252 1.381 . S
C1254 C1255 1.394 . S
C1254 H1262 0.930 . S
C1255 C1254 1.394 . S
C1255 C1256 1.383 . S
C1255 H1263 0.929 . S
C1256 C1255 1.383 . S
C1256 C1257 1.377 . S
C1257 H1241 0.930 . S
C1257 C1256 1.377 . S
C1257 C1258 1.379 . S
C1258 H1242 0.931 . S
C1258 C1252 1.383 . S
C1258 C1257 1.379 . S
H1259 C1253 0.959 . S
H1260 C1253 0.961 . S
H1261 C1253 0.960 . S
H1262 C1254 0.930 . S
H1263 C1255 0.929 . S
H1264 C1272 0.929 . S
H1265 C1274 0.930 . S
H1266 C1276 0.930 . S
H1267 C1279 0.929 . S
H1268 C1282 0.930 . S
H1269 C1284 0.960 . S
H1270 C1284 0.960 . S
H1271 C1284 0.960 . S
C1272 H1264 0.929 . S
C1272 C1273 1.377 . S
C1272 C1274 1.384 . S
C1273 C1272 1.377 . S
C1273 C1279 1.390 . S
C1274 H1265 0.930 . S
C1274 C1272 1.384 . S
C1274 C1275 1.372 . S
C1275 C1274 1.372 . S
C1275 C1276 1.400 . S
C1275 C1280 1.490 . S
C1276 H1266 0.930 . S
C1276 C1275 1.400 . S
C1276 C1279 1.386 . S
H1277 C1293 0.930 . S
H1278 C1294 0.931 . S
C1279 H1267 0.929 . S
C1279 C1273 1.390 . S
C1279 C1276 1.386 . S
C1280 C1275 1.490 . S
C1280 C1282 1.395 . S
C1280 C1283 1.403 . S
H1281 C1287 0.930 . S
C1282 H1268 0.930 . S
C1282 C1280 1.395 . S
C1282 C1285 1.403 . S
C1283 C1280 1.403 . S
C1283 C1284 1.524 . S
C1283 C1287 1.400 . S
C1284 H1269 0.960 . S
C1284 H1270 0.960 . S
C1284 H1271 0.960 . S
C1284 C1283 1.524 . S
C1285 C1282 1.403 . S
C1285 C1286 1.392 . S
C1285 C1289 1.495 . S
C1286 C1285 1.392 . S
C1286 C1287 1.385 . S
C1286 C1288 1.478 . S
C1287 H1281 0.930 . S
C1287 C1283 1.400 . S
C1287 C1286 1.385 . S
C1288 C1286 1.478 . S
C1288 C1290 1.381 . S
C1288 C1294 1.383 . S
C1289 C1285 1.495 . S
C1289 H1295 0.959 . S
C1289 H1296 0.961 . S
C1289 H1297 0.960 . S
C1290 C1288 1.381 . S
C1290 C1291 1.394 . S
C1290 H1298 0.930 . S
C1291 C1290 1.394 . S
C1291 C1292 1.383 . S
C1291 H1299 0.929 . S
C1292 C1291 1.383 . S
C1292 C1293 1.377 . S
C1293 H1277 0.930 . S
C1293 C1292 1.377 . S
C1293 C1294 1.379 . S
C1294 H1278 0.931 . S
C1294 C1288 1.383 . S
C1294 C1293 1.379 . S
H1295 C1289 0.959 . S
H1296 C1289 0.961 . S
H1297 C1289 0.960 . S
H1298 C1290 0.930 . S
H1299 C1291 0.929 . S
H1300 C1308 0.929 . S
H1301 C1310 0.930 . S
H1302 C1312 0.930 . S
H1303 C1315 0.929 1_556 S
H1304 C1318 0.930 . S
H1305 C1320 0.960 . S
H1306 C1320 0.960 . S
H1307 C1320 0.960 . S
C1308 H1300 0.929 . S
C1308 C1309 1.377 . S
C1308 C1310 1.384 . S
C1309 C1308 1.377 . S
C1309 C1315 1.390 . S
C1310 H1301 0.930 . S
C1310 C1308 1.384 . S
C1310 C1311 1.372 . S
C1311 C1310 1.372 . S
C1311 C1312 1.400 . S
C1311 C1316 1.490 . S
C1312 H1302 0.930 . S
C1312 C1311 1.400 . S
C1312 C1315 1.386 . S
H1313 C1329 0.930 . S
H1314 C1330 0.931 . S
C1315 H1303 0.929 1_554 S
C1315 C1309 1.390 . S
C1315 C1312 1.386 . S
C1316 C1311 1.490 . S
C1316 C1318 1.395 . S
C1316 C1319 1.403 . S
H1317 C1323 0.930 . S
C1318 H1304 0.930 . S
C1318 C1316 1.395 . S
C1318 C1321 1.403 . S
C1319 C1316 1.403 . S
C1319 C1320 1.524 . S
C1319 C1323 1.400 . S
C1320 H1305 0.960 . S
C1320 H1306 0.960 . S
C1320 H1307 0.960 . S
C1320 C1319 1.524 . S
C1321 C1318 1.403 . S
C1321 C1322 1.392 . S
C1321 C1325 1.495 . S
C1322 C1321 1.392 . S
C1322 C1323 1.385 . S
C1322 C1324 1.478 . S
C1323 H1317 0.930 . S
C1323 C1319 1.400 . S
C1323 C1322 1.385 . S
C1324 C1322 1.478 . S
C1324 C1326 1.381 . S
C1324 C1330 1.383 . S
C1325 C1321 1.495 . S
C1325 H1331 0.959 . S
C1325 H1332 0.961 . S
C1325 H1333 0.960 . S
C1326 C1324 1.381 . S
C1326 C1327 1.394 . S
C1326 H1334 0.930 . S
C1327 C1326 1.394 . S
C1327 C1328 1.383 . S
C1327 H1335 0.929 . S
C1328 C1327 1.383 . S
C1328 C1329 1.377 . S
C1329 H1313 0.930 . S
C1329 C1328 1.377 . S
C1329 C1330 1.379 . S
C1330 H1314 0.931 . S
C1330 C1324 1.383 . S
C1330 C1329 1.379 . S
H1331 C1325 0.959 . S
H1332 C1325 0.961 . S
H1333 C1325 0.960 . S
H1334 C1326 0.930 . S
H1335 C1327 0.929 . S
H1336 C1344 0.929 . S
H1337 C1346 0.930 . S
H1338 C1348 0.930 . S
H1339 C1351 0.929 . S
H1340 C1354 0.930 . S
H1341 C1356 0.960 . S
H1342 C1356 0.960 . S
H1343 C1356 0.960 . S
C1344 H1336 0.929 . S
C1344 C1345 1.377 . S
C1344 C1346 1.384 . S
C1345 C1344 1.377 . S
C1345 C1351 1.390 1_556 S
C1346 H1337 0.930 . S
C1346 C1344 1.384 . S
C1346 C1347 1.372 . S
C1347 C1346 1.372 . S
C1347 C1348 1.400 . S
C1347 C1352 1.490 . S
C1348 H1338 0.930 . S
C1348 C1347 1.400 . S
C1348 C1351 1.386 1_556 S
H1349 C1365 0.930 . S
H1350 C1366 0.931 . S
C1351 H1339 0.929 . S
C1351 C1345 1.390 1_554 S
C1351 C1348 1.386 1_554 S
C1352 C1347 1.490 . S
C1352 C1354 1.395 . S
C1352 C1355 1.403 . S
H1353 C1359 0.930 . S
C1354 H1340 0.930 . S
C1354 C1352 1.395 . S
C1354 C1357 1.403 . S
C1355 C1352 1.403 . S
C1355 C1356 1.524 . S
C1355 C1359 1.400 . S
C1356 H1341 0.960 . S
C1356 H1342 0.960 . S
C1356 H1343 0.960 . S
C1356 C1355 1.524 . S
C1357 C1354 1.403 . S
C1357 C1358 1.392 . S
C1357 C1361 1.495 . S
C1358 C1357 1.392 . S
C1358 C1359 1.385 . S
C1358 C1360 1.478 . S
C1359 H1353 0.930 . S
C1359 C1355 1.400 . S
C1359 C1358 1.385 . S
C1360 C1358 1.478 . S
C1360 C1362 1.381 . S
C1360 C1366 1.383 . S
C1361 C1357 1.495 . S
C1361 H1367 0.959 . S
C1361 H1368 0.961 . S
C1361 H1369 0.960 . S
C1362 C1360 1.381 . S
C1362 C1363 1.394 . S
C1362 H1370 0.930 . S
C1363 C1362 1.394 . S
C1363 C1364 1.383 . S
C1363 H1371 0.929 . S
C1364 C1363 1.383 . S
C1364 C1365 1.377 . S
C1365 H1349 0.930 . S
C1365 C1364 1.377 . S
C1365 C1366 1.379 . S
C1366 H1350 0.931 . S
C1366 C1360 1.383 . S
C1366 C1365 1.379 . S
H1367 C1361 0.959 . S
H1368 C1361 0.961 . S
H1369 C1361 0.960 . S
H1370 C1362 0.930 . S
H1371 C1363 0.929 . S
H1372 C1380 0.929 . S
H1373 C1382 0.930 . S
H1374 C1384 0.930 . S
H1375 C1387 0.929 . S
H1376 C1390 0.930 . S
H1377 C1392 0.960 . S
H1378 C1392 0.960 . S
H1379 C1392 0.960 . S
C1380 H1372 0.929 . S
C1380 C1381 1.377 . S
C1380 C1382 1.384 . S
C1381 C1380 1.377 . S
C1381 C1387 1.390 . S
C1382 H1373 0.930 . S
C1382 C1380 1.384 . S
C1382 C1383 1.372 . S
C1383 C1382 1.372 . S
C1383 C1384 1.400 . S
C1383 C1388 1.490 . S
C1384 H1374 0.930 . S
C1384 C1383 1.400 . S
C1384 C1387 1.386 . S
H1385 C1401 0.930 . S
H1386 C1402 0.931 . S
C1387 H1375 0.929 . S
C1387 C1381 1.390 . S
C1387 C1384 1.386 . S
C1388 C1383 1.490 . S
C1388 C1390 1.395 . S
C1388 C1391 1.403 . S
H1389 C1395 0.930 . S
C1390 H1376 0.930 . S
C1390 C1388 1.395 . S
C1390 C1393 1.403 . S
C1391 C1388 1.403 . S
C1391 C1392 1.524 . S
C1391 C1395 1.400 . S
C1392 H1377 0.960 . S
C1392 H1378 0.960 . S
C1392 H1379 0.960 . S
C1392 C1391 1.524 . S
C1393 C1390 1.403 . S
C1393 C1394 1.392 . S
C1393 C1397 1.495 . S
C1394 C1393 1.392 . S
C1394 C1395 1.385 . S
C1394 C1396 1.478 . S
C1395 H1389 0.930 . S
C1395 C1391 1.400 . S
C1395 C1394 1.385 . S
C1396 C1394 1.478 . S
C1396 C1398 1.381 . S
C1396 C1402 1.383 . S
C1397 C1393 1.495 . S
C1397 H1403 0.959 . S
C1397 H1404 0.961 . S
C1397 H1405 0.960 . S
C1398 C1396 1.381 . S
C1398 C1399 1.394 . S
C1398 H1406 0.930 . S
C1399 C1398 1.394 . S
C1399 C1400 1.383 . S
C1399 H1407 0.929 . S
C1400 C1399 1.383 . S
C1400 C1401 1.377 . S
C1401 H1385 0.930 . S
C1401 C1400 1.377 . S
C1401 C1402 1.379 . S
C1402 H1386 0.931 . S
C1402 C1396 1.383 . S
C1402 C1401 1.379 . S
H1403 C1397 0.959 . S
H1404 C1397 0.961 . S
H1405 C1397 0.960 . S
H1406 C1398 0.930 . S
H1407 C1399 0.929 . S
H1408 C1416 0.929 . S
H1409 C1418 0.930 . S
H1410 C1420 0.930 . S
H1411 C1423 0.929 . S
H1412 C1426 0.930 . S
H1413 C1428 0.960 . S
H1414 C1428 0.960 . S
H1415 C1428 0.960 . S
C1416 H1408 0.929 . S
C1416 C1417 1.377 . S
C1416 C1418 1.384 . S
C1417 C1416 1.377 . S
C1417 C1423 1.390 . S
C1418 H1409 0.930 . S
C1418 C1416 1.384 . S
C1418 C1419 1.372 . S
C1419 C1418 1.372 . S
C1419 C1420 1.400 . S
C1419 C1424 1.490 . S
C1420 H1410 0.930 . S
C1420 C1419 1.400 . S
C1420 C1423 1.386 . S
H1421 C1437 0.930 . S
H1422 C1438 0.931 . S
C1423 H1411 0.929 . S
C1423 C1417 1.390 . S
C1423 C1420 1.386 . S
C1424 C1419 1.490 . S
C1424 C1426 1.395 . S
C1424 C1427 1.403 . S
H1425 C1431 0.930 . S
C1426 H1412 0.930 . S
C1426 C1424 1.395 . S
C1426 C1429 1.403 . S
C1427 C1424 1.403 . S
C1427 C1428 1.524 . S
C1427 C1431 1.400 . S
C1428 H1413 0.960 . S
C1428 H1414 0.960 . S
C1428 H1415 0.960 . S
C1428 C1427 1.524 . S
C1429 C1426 1.403 . S
C1429 C1430 1.392 . S
C1429 C1433 1.495 . S
C1430 C1429 1.392 . S
C1430 C1431 1.385 . S
C1430 C1432 1.478 . S
C1431 H1425 0.930 . S
C1431 C1427 1.400 . S
C1431 C1430 1.385 . S
C1432 C1430 1.478 . S
C1432 C1434 1.381 . S
C1432 C1438 1.383 . S
C1433 C1429 1.495 . S
C1433 H1439 0.959 . S
C1433 H1440 0.961 . S
C1433 H1441 0.960 . S
C1434 C1432 1.381 . S
C1434 C1435 1.394 . S
C1434 H1442 0.930 . S
C1435 C1434 1.394 . S
C1435 C1436 1.383 . S
C1435 H1443 0.929 . S
C1436 C1435 1.383 . S
C1436 C1437 1.377 . S
C1437 H1421 0.930 . S
C1437 C1436 1.377 . S
C1437 C1438 1.379 . S
C1438 H1422 0.931 . S
C1438 C1432 1.383 . S
C1438 C1437 1.379 . S
H1439 C1433 0.959 . S
H1440 C1433 0.961 . S
H1441 C1433 0.960 . S
H1442 C1434 0.930 . S
H1443 C1435 0.929 . S
H1444 C1452 0.929 1_554 S
H1445 C1454 0.930 . S
H1446 C1456 0.930 . S
H1447 C1459 0.929 . S
H1448 C1462 0.930 . S
H1449 C1464 0.960 . S
H1450 C1464 0.960 . S
H1451 C1464 0.960 . S
C1452 H1444 0.929 1_556 S
C1452 C1453 1.377 . S
C1452 C1454 1.384 . S
C1453 C1452 1.377 . S
C1453 C1459 1.390 . S
C1454 H1445 0.930 . S
C1454 C1452 1.384 . S
C1454 C1455 1.372 . S
C1455 C1454 1.372 . S
C1455 C1456 1.400 . S
C1455 C1460 1.490 . S
C1456 H1446 0.930 . S
C1456 C1455 1.400 . S
C1456 C1459 1.386 . S
H1457 C1473 0.930 . S
H1458 C1474 0.931 . S
C1459 H1447 0.929 . S
C1459 C1453 1.390 . S
C1459 C1456 1.386 . S
C1460 C1455 1.490 . S
C1460 C1462 1.395 . S
C1460 C1463 1.403 . S
H1461 C1467 0.930 . S
C1462 H1448 0.930 . S
C1462 C1460 1.395 . S
C1462 C1465 1.403 . S
C1463 C1460 1.403 . S
C1463 C1464 1.524 . S
C1463 C1467 1.400 . S
C1464 H1449 0.960 . S
C1464 H1450 0.960 . S
C1464 H1451 0.960 . S
C1464 C1463 1.524 . S
C1465 C1462 1.403 . S
C1465 C1466 1.392 . S
C1465 C1469 1.495 . S
C1466 C1465 1.392 . S
C1466 C1467 1.385 . S
C1466 C1468 1.478 . S
C1467 H1461 0.930 . S
C1467 C1463 1.400 . S
C1467 C1466 1.385 . S
C1468 C1466 1.478 . S
C1468 C1470 1.381 . S
C1468 C1474 1.383 . S
C1469 C1465 1.495 . S
C1469 H1475 0.959 . S
C1469 H1476 0.961 . S
C1469 H1477 0.960 . S
C1470 C1468 1.381 . S
C1470 C1471 1.394 . S
C1470 H1478 0.930 . S
C1471 C1470 1.394 . S
C1471 C1472 1.383 . S
C1471 H1479 0.929 . S
C1472 C1471 1.383 . S
C1472 C1473 1.377 . S
C1473 H1457 0.930 . S
C1473 C1472 1.377 . S
C1473 C1474 1.379 . S
C1474 H1458 0.931 . S
C1474 C1468 1.383 . S
C1474 C1473 1.379 . S
H1475 C1469 0.959 . S
H1476 C1469 0.961 . S
H1477 C1469 0.960 . S
H1478 C1470 0.930 . S
H1479 C1471 0.929 . S
H1480 C1488 0.929 . S
H1481 C1490 0.930 . S
H1482 C1492 0.930 . S
H1483 C1495 0.929 . S
H1484 C1498 0.930 . S
H1485 C1500 0.960 . S
H1486 C1500 0.960 . S
H1487 C1500 0.960 . S
C1488 H1480 0.929 . S
C1488 C1489 1.377 1_556 S
C1488 C1490 1.384 1_556 S
C1489 C1488 1.377 1_554 S
C1489 C1495 1.390 . S
C1490 H1481 0.930 . S
C1490 C1488 1.384 1_554 S
C1490 C1491 1.372 . S
C1491 C1490 1.372 . S
C1491 C1492 1.400 . S
C1491 C1496 1.490 . S
C1492 H1482 0.930 . S
C1492 C1491 1.400 . S
C1492 C1495 1.386 . S
H1493 C1509 0.930 . S
H1494 C1510 0.931 . S
C1495 H1483 0.929 . S
C1495 C1489 1.390 . S
C1495 C1492 1.386 . S
C1496 C1491 1.490 . S
C1496 C1498 1.395 . S
C1496 C1499 1.403 . S
H1497 C1503 0.930 . S
C1498 H1484 0.930 . S
C1498 C1496 1.395 . S
C1498 C1501 1.403 . S
C1499 C1496 1.403 . S
C1499 C1500 1.524 . S
C1499 C1503 1.400 . S
C1500 H1485 0.960 . S
C1500 H1486 0.960 . S
C1500 H1487 0.960 . S
C1500 C1499 1.524 . S
C1501 C1498 1.403 . S
C1501 C1502 1.392 . S
C1501 C1505 1.495 . S
C1502 C1501 1.392 . S
C1502 C1503 1.385 . S
C1502 C1504 1.478 . S
C1503 H1497 0.930 . S
C1503 C1499 1.400 . S
C1503 C1502 1.385 . S
C1504 C1502 1.478 . S
C1504 C1506 1.381 . S
C1504 C1510 1.383 . S
C1505 C1501 1.495 . S
C1505 H1511 0.959 . S
C1505 H1512 0.961 . S
C1505 H1513 0.960 . S
C1506 C1504 1.381 . S
C1506 C1507 1.394 . S
C1506 H1514 0.930 . S
C1507 C1506 1.394 . S
C1507 C1508 1.383 . S
C1507 H1515 0.929 . S
C1508 C1507 1.383 . S
C1508 C1509 1.377 . S
C1509 H1493 0.930 . S
C1509 C1508 1.377 . S
C1509 C1510 1.379 . S
C1510 H1494 0.931 . S
C1510 C1504 1.383 . S
C1510 C1509 1.379 . S
H1511 C1505 0.959 . S
H1512 C1505 0.961 . S
H1513 C1505 0.960 . S
H1514 C1506 0.930 . S
H1515 C1507 0.929 . S
H1516 C1524 0.929 . S
H1517 C1526 0.930 . S
H1518 C1528 0.930 . S
H1519 C1531 0.929 . S
H1520 C1534 0.930 . S
H1521 C1536 0.960 . S
H1522 C1536 0.960 . S
H1523 C1536 0.960 . S
C1524 H1516 0.929 . S
C1524 C1525 1.377 . S
C1524 C1526 1.384 . S
C1525 C1524 1.377 . S
C1525 C1531 1.390 . S
C1526 H1517 0.930 . S
C1526 C1524 1.384 . S
C1526 C1527 1.372 . S
C1527 C1526 1.372 . S
C1527 C1528 1.400 . S
C1527 C1532 1.490 . S
C1528 H1518 0.930 . S
C1528 C1527 1.400 . S
C1528 C1531 1.386 . S
H1529 C1545 0.930 . S
H1530 C1546 0.931 . S
C1531 H1519 0.929 . S
C1531 C1525 1.390 . S
C1531 C1528 1.386 . S
C1532 C1527 1.490 . S
C1532 C1534 1.395 . S
C1532 C1535 1.403 . S
H1533 C1539 0.930 . S
C1534 H1520 0.930 . S
C1534 C1532 1.395 . S
C1534 C1537 1.403 . S
C1535 C1532 1.403 . S
C1535 C1536 1.524 . S
C1535 C1539 1.400 . S
C1536 H1521 0.960 . S
C1536 H1522 0.960 . S
C1536 H1523 0.960 . S
C1536 C1535 1.524 . S
C1537 C1534 1.403 . S
C1537 C1538 1.392 . S
C1537 C1541 1.495 . S
C1538 C1537 1.392 . S
C1538 C1539 1.385 . S
C1538 C1540 1.478 . S
C1539 H1533 0.930 . S
C1539 C1535 1.400 . S
C1539 C1538 1.385 . S
C1540 C1538 1.478 . S
C1540 C1542 1.381 . S
C1540 C1546 1.383 . S
C1541 C1537 1.495 . S
C1541 H1547 0.959 . S
C1541 H1548 0.961 . S
C1541 H1549 0.960 . S
C1542 C1540 1.381 . S
C1542 C1543 1.394 . S
C1542 H1550 0.930 . S
C1543 C1542 1.394 . S
C1543 C1544 1.383 . S
C1543 H1551 0.929 . S
C1544 C1543 1.383 . S
C1544 C1545 1.377 . S
C1545 H1529 0.930 . S
C1545 C1544 1.377 . S
C1545 C1546 1.379 . S
C1546 H1530 0.931 . S
C1546 C1540 1.383 . S
C1546 C1545 1.379 . S
H1547 C1541 0.959 . S
H1548 C1541 0.961 . S
H1549 C1541 0.960 . S
H1550 C1542 0.930 . S
H1551 C1543 0.929 . S
H1552 C1560 0.929 . S
H1553 C1562 0.930 . S
H1554 C1564 0.930 . S
H1555 C1567 0.929 . S
H1556 C1570 0.930 . S
H1557 C1572 0.960 . S
H1558 C1572 0.960 . S
H1559 C1572 0.960 . S
C1560 H1552 0.929 . S
C1560 C1561 1.377 . S
C1560 C1562 1.384 . S
C1561 C1560 1.377 . S
C1561 C1567 1.390 . S
C1562 H1553 0.930 . S
C1562 C1560 1.384 . S
C1562 C1563 1.372 . S
C1563 C1562 1.372 . S
C1563 C1564 1.400 . S
C1563 C1568 1.490 . S
C1564 H1554 0.930 . S
C1564 C1563 1.400 . S
C1564 C1567 1.386 . S
H1565 C1581 0.930 . S
H1566 C1582 0.931 . S
C1567 H1555 0.929 . S
C1567 C1561 1.390 . S
C1567 C1564 1.386 . S
C1568 C1563 1.490 . S
C1568 C1570 1.395 . S
C1568 C1571 1.403 . S
H1569 C1575 0.930 . S
C1570 H1556 0.930 . S
C1570 C1568 1.395 . S
C1570 C1573 1.403 . S
C1571 C1568 1.403 . S
C1571 C1572 1.524 . S
C1571 C1575 1.400 . S
C1572 H1557 0.960 . S
C1572 H1558 0.960 . S
C1572 H1559 0.960 . S
C1572 C1571 1.524 . S
C1573 C1570 1.403 . S
C1573 C1574 1.392 . S
C1573 C1577 1.495 . S
C1574 C1573 1.392 . S
C1574 C1575 1.385 . S
C1574 C1576 1.478 . S
C1575 H1569 0.930 . S
C1575 C1571 1.400 . S
C1575 C1574 1.385 . S
C1576 C1574 1.478 . S
C1576 C1578 1.381 . S
C1576 C1582 1.383 . S
C1577 C1573 1.495 . S
C1577 H1583 0.959 . S
C1577 H1584 0.961 . S
C1577 H1585 0.960 . S
C1578 C1576 1.381 . S
C1578 C1579 1.394 . S
C1578 H1586 0.930 . S
C1579 C1578 1.394 . S
C1579 C1580 1.383 . S
C1579 H1587 0.929 . S
C1580 C1579 1.383 . S
C1580 C1581 1.377 . S
C1581 H1565 0.930 . S
C1581 C1580 1.377 . S
C1581 C1582 1.379 . S
C1582 H1566 0.931 . S
C1582 C1576 1.383 . S
C1582 C1581 1.379 . S
H1583 C1577 0.959 . S
H1584 C1577 0.961 . S
H1585 C1577 0.960 . S
H1586 C1578 0.930 . S
H1587 C1579 0.929 . S
H1588 C1596 0.929 . S
H1589 C1598 0.930 . S
H1590 C1600 0.930 . S
H1591 C1603 0.929 . S
H1592 C1606 0.930 . S
H1593 C1608 0.960 . S
H1594 C1608 0.960 . S
H1595 C1608 0.960 . S
C1596 H1588 0.929 . S
C1596 C1597 1.377 . S
C1596 C1598 1.384 . S
C1597 C1596 1.377 . S
C1597 C1603 1.390 . S
C1598 H1589 0.930 . S
C1598 C1596 1.384 . S
C1598 C1599 1.372 . S
C1599 C1598 1.372 . S
C1599 C1600 1.400 . S
C1599 C1604 1.490 . S
C1600 H1590 0.930 . S
C1600 C1599 1.400 . S
C1600 C1603 1.386 . S
H1601 C1617 0.930 . S
H1602 C1618 0.931 . S
C1603 H1591 0.929 . S
C1603 C1597 1.390 . S
C1603 C1600 1.386 . S
C1604 C1599 1.490 . S
C1604 C1606 1.395 . S
C1604 C1607 1.403 . S
H1605 C1611 0.930 . S
C1606 H1592 0.930 . S
C1606 C1604 1.395 . S
C1606 C1609 1.403 . S
C1607 C1604 1.403 . S
C1607 C1608 1.524 . S
C1607 C1611 1.400 . S
C1608 H1593 0.960 . S
C1608 H1594 0.960 . S
C1608 H1595 0.960 . S
C1608 C1607 1.524 . S
C1609 C1606 1.403 . S
C1609 C1610 1.392 . S
C1609 C1613 1.495 . S
C1610 C1609 1.392 . S
C1610 C1611 1.385 . S
C1610 C1612 1.478 . S
C1611 H1605 0.930 . S
C1611 C1607 1.400 . S
C1611 C1610 1.385 . S
C1612 C1610 1.478 . S
C1612 C1614 1.381 . S
C1612 C1618 1.383 . S
C1613 C1609 1.495 . S
C1613 H1619 0.959 . S
C1613 H1620 0.961 . S
C1613 H1621 0.960 . S
C1614 C1612 1.381 . S
C1614 C1615 1.394 1_554 S
C1614 H1622 0.930 . S
C1615 C1614 1.394 1_556 S
C1615 C1616 1.383 . S
C1615 H1623 0.929 . S
C1616 C1615 1.383 . S
C1616 C1617 1.377 1_556 S
C1617 H1601 0.930 . S
C1617 C1616 1.377 1_554 S
C1617 C1618 1.379 . S
C1618 H1602 0.931 . S
C1618 C1612 1.383 . S
C1618 C1617 1.379 . S
H1619 C1613 0.959 . S
H1620 C1613 0.961 . S
H1621 C1613 0.960 . S
H1622 C1614 0.930 . S
H1623 C1615 0.929 . S
H1624 C1632 0.929 . S
H1625 C1634 0.930 . S
H1626 C1636 0.930 . S
H1627 C1639 0.929 . S
H1628 C1642 0.930 . S
H1629 C1644 0.960 . S
H1630 C1644 0.960 . S
H1631 C1644 0.960 . S
C1632 H1624 0.929 . S
C1632 C1633 1.377 . S
C1632 C1634 1.384 . S
C1633 C1632 1.377 . S
C1633 C1639 1.390 . S
C1634 H1625 0.930 . S
C1634 C1632 1.384 . S
C1634 C1635 1.372 . S
C1635 C1634 1.372 . S
C1635 C1636 1.400 . S
C1635 C1640 1.490 . S
C1636 H1626 0.930 . S
C1636 C1635 1.400 . S
C1636 C1639 1.386 . S
H1637 C1653 0.930 . S
H1638 C1654 0.931 . S
C1639 H1627 0.929 . S
C1639 C1633 1.390 . S
C1639 C1636 1.386 . S
C1640 C1635 1.490 . S
C1640 C1642 1.395 . S
C1640 C1643 1.403 . S
H1641 C1647 0.930 . S
C1642 H1628 0.930 . S
C1642 C1640 1.395 . S
C1642 C1645 1.403 . S
C1643 C1640 1.403 . S
C1643 C1644 1.524 . S
C1643 C1647 1.400 . S
C1644 H1629 0.960 . S
C1644 H1630 0.960 . S
C1644 H1631 0.960 . S
C1644 C1643 1.524 . S
C1645 C1642 1.403 . S
C1645 C1646 1.392 . S
C1645 C1649 1.495 . S
C1646 C1645 1.392 . S
C1646 C1647 1.385 . S
C1646 C1648 1.478 . S
C1647 H1641 0.930 . S
C1647 C1643 1.400 . S
C1647 C1646 1.385 . S
C1648 C1646 1.478 . S
C1648 C1650 1.381 . S
C1648 C1654 1.383 . S
C1649 C1645 1.495 . S
C1649 H1655 0.959 . S
C1649 H1656 0.961 . S
C1649 H1657 0.960 . S
C1650 C1648 1.381 . S
C1650 C1651 1.394 . S
C1650 H1658 0.930 . S
C1651 C1650 1.394 . S
C1651 C1652 1.383 1_556 S
C1651 H1659 0.929 . S
C1652 C1651 1.383 1_554 S
C1652 C1653 1.377 . S
C1653 H1637 0.930 . S
C1653 C1652 1.377 . S
C1653 C1654 1.379 1_554 S
C1654 H1638 0.931 . S
C1654 C1648 1.383 . S
C1654 C1653 1.379 1_556 S
H1655 C1649 0.959 . S
H1656 C1649 0.961 . S
H1657 C1649 0.960 . S
H1658 C1650 0.930 . S
H1659 C1651 0.929 . S
H1660 C1668 0.929 . S
H1661 C1670 0.930 . S
H1662 C1672 0.930 . S
H1663 C1675 0.929 . S
H1664 C1678 0.930 . S
H1665 C1680 0.960 . S
H1666 C1680 0.960 . S
H1667 C1680 0.960 . S
C1668 H1660 0.929 . S
C1668 C1669 1.377 . S
C1668 C1670 1.384 . S
C1669 C1668 1.377 . S
C1669 C1675 1.390 . S
C1670 H1661 0.930 . S
C1670 C1668 1.384 . S
C1670 C1671 1.372 . S
C1671 C1670 1.372 . S
C1671 C1672 1.400 . S
C1671 C1676 1.490 . S
C1672 H1662 0.930 . S
C1672 C1671 1.400 . S
C1672 C1675 1.386 . S
H1673 C1689 0.930 . S
H1674 C1690 0.931 . S
C1675 H1663 0.929 . S
C1675 C1669 1.390 . S
C1675 C1672 1.386 . S
C1676 C1671 1.490 . S
C1676 C1678 1.395 . S
C1676 C1679 1.403 . S
H1677 C1683 0.930 . S
C1678 H1664 0.930 . S
C1678 C1676 1.395 . S
C1678 C1681 1.403 . S
C1679 C1676 1.403 . S
C1679 C1680 1.524 . S
C1679 C1683 1.400 . S
C1680 H1665 0.960 . S
C1680 H1666 0.960 . S
C1680 H1667 0.960 . S
C1680 C1679 1.524 . S
C1681 C1678 1.403 . S
C1681 C1682 1.392 . S
C1681 C1685 1.495 . S
C1682 C1681 1.392 . S
C1682 C1683 1.385 . S
C1682 C1684 1.478 . S
C1683 H1677 0.930 . S
C1683 C1679 1.400 . S
C1683 C1682 1.385 . S
C1684 C1682 1.478 . S
C1684 C1686 1.381 . S
C1684 C1690 1.383 . S
C1685 C1681 1.495 . S
C1685 H1691 0.959 . S
C1685 H1692 0.961 . S
C1685 H1693 0.960 . S
C1686 C1684 1.381 . S
C1686 C1687 1.394 . S
C1686 H1694 0.930 . S
C1687 C1686 1.394 . S
C1687 C1688 1.383 . S
C1687 H1695 0.929 . S
C1688 C1687 1.383 . S
C1688 C1689 1.377 . S
C1689 H1673 0.930 . S
C1689 C1688 1.377 . S
C1689 C1690 1.379 . S
C1690 H1674 0.931 . S
C1690 C1684 1.383 . S
C1690 C1689 1.379 . S
H1691 C1685 0.959 . S
H1692 C1685 0.961 . S
H1693 C1685 0.960 . S
H1694 C1686 0.930 . S
H1695 C1687 0.929 . S
H1696 C1704 0.929 . S
H1697 C1706 0.930 . S
H1698 C1708 0.930 . S
H1699 C1711 0.929 . S
H1700 C1714 0.930 . S
H1701 C1716 0.960 . S
H1702 C1716 0.960 . S
H1703 C1716 0.960 . S
C1704 H1696 0.929 . S
C1704 C1705 1.377 . S
C1704 C1706 1.384 . S
C1705 C1704 1.377 . S
C1705 C1711 1.390 1_554 S
C1706 H1697 0.930 . S
C1706 C1704 1.384 . S
C1706 C1707 1.372 . S
C1707 C1706 1.372 . S
C1707 C1708 1.400 . S
C1707 C1712 1.490 . S
C1708 H1698 0.930 . S
C1708 C1707 1.400 . S
C1708 C1711 1.386 1_554 S
H1709 C1725 0.930 . S
H1710 C1726 0.931 . S
C1711 H1699 0.929 . S
C1711 C1705 1.390 1_556 S
C1711 C1708 1.386 1_556 S
C1712 C1707 1.490 . S
C1712 C1714 1.395 . S
C1712 C1715 1.403 . S
H1713 C1719 0.930 . S
C1714 H1700 0.930 . S
C1714 C1712 1.395 . S
C1714 C1717 1.403 . S
C1715 C1712 1.403 . S
C1715 C1716 1.524 . S
C1715 C1719 1.400 . S
C1716 H1701 0.960 . S
C1716 H1702 0.960 . S
C1716 H1703 0.960 . S
C1716 C1715 1.524 . S
C1717 C1714 1.403 . S
C1717 C1718 1.392 . S
C1717 C1721 1.495 . S
C1718 C1717 1.392 . S
C1718 C1719 1.385 . S
C1718 C1720 1.478 . S
C1719 H1713 0.930 . S
C1719 C1715 1.400 . S
C1719 C1718 1.385 . S
C1720 C1718 1.478 . S
C1720 C1722 1.381 . S
C1720 C1726 1.383 . S
C1721 C1717 1.495 . S
C1721 H1727 0.959 . S
C1721 H1728 0.961 . S
C1721 H1729 0.960 . S
C1722 C1720 1.381 . S
C1722 C1723 1.394 . S
C1722 H1730 0.930 . S
C1723 C1722 1.394 . S
C1723 C1724 1.383 . S
C1723 H1731 0.929 . S
C1724 C1723 1.383 . S
C1724 C1725 1.377 . S
C1725 H1709 0.930 . S
C1725 C1724 1.377 . S
C1725 C1726 1.379 . S
C1726 H1710 0.931 . S
C1726 C1720 1.383 . S
C1726 C1725 1.379 . S
H1727 C1721 0.959 . S
H1728 C1721 0.961 . S
H1729 C1721 0.960 . S
H1730 C1722 0.930 . S
H1731 C1723 0.929 . S
H1732 C1740 0.929 . S
H1733 C1742 0.930 . S
H1734 C1744 0.930 . S
H1735 C1747 0.929 . S
H1736 C1750 0.930 . S
H1737 C1752 0.960 . S
H1738 C1752 0.960 . S
H1739 C1752 0.960 . S
C1740 H1732 0.929 . S
C1740 C1741 1.377 . S
C1740 C1742 1.384 . S
C1741 C1740 1.377 . S
C1741 C1747 1.390 . S
C1742 H1733 0.930 . S
C1742 C1740 1.384 . S
C1742 C1743 1.372 . S
C1743 C1742 1.372 . S
C1743 C1744 1.400 . S
C1743 C1748 1.490 . S
C1744 H1734 0.930 . S
C1744 C1743 1.400 . S
C1744 C1747 1.386 . S
H1745 C1761 0.930 . S
H1746 C1762 0.931 . S
C1747 H1735 0.929 . S
C1747 C1741 1.390 . S
C1747 C1744 1.386 . S
C1748 C1743 1.490 . S
C1748 C1750 1.395 . S
C1748 C1751 1.403 . S
H1749 C1755 0.930 . S
C1750 H1736 0.930 . S
C1750 C1748 1.395 . S
C1750 C1753 1.403 . S
C1751 C1748 1.403 . S
C1751 C1752 1.524 . S
C1751 C1755 1.400 . S
C1752 H1737 0.960 . S
C1752 H1738 0.960 . S
C1752 H1739 0.960 . S
C1752 C1751 1.524 . S
C1753 C1750 1.403 . S
C1753 C1754 1.392 . S
C1753 C1757 1.495 . S
C1754 C1753 1.392 . S
C1754 C1755 1.385 . S
C1754 C1756 1.478 . S
C1755 H1749 0.930 . S
C1755 C1751 1.400 . S
C1755 C1754 1.385 . S
C1756 C1754 1.478 . S
C1756 C1758 1.381 . S
C1756 C1762 1.383 . S
C1757 C1753 1.495 . S
C1757 H1763 0.959 . S
C1757 H1764 0.961 . S
C1757 H1765 0.960 . S
C1758 C1756 1.381 . S
C1758 C1759 1.394 . S
C1758 H1766 0.930 . S
C1759 C1758 1.394 . S
C1759 C1760 1.383 . S
C1759 H1767 0.929 . S
C1760 C1759 1.383 . S
C1760 C1761 1.377 . S
C1761 H1745 0.930 . S
C1761 C1760 1.377 . S
C1761 C1762 1.379 . S
C1762 H1746 0.931 . S
C1762 C1756 1.383 . S
C1762 C1761 1.379 . S
H1763 C1757 0.959 . S
H1764 C1757 0.961 . S
H1765 C1757 0.960 . S
H1766 C1758 0.930 . S
H1767 C1759 0.929 . S
H1768 C1776 0.929 . S
H1769 C1778 0.930 . S
H1770 C1780 0.930 . S
H1771 C1783 0.929 . S
H1772 C1786 0.930 . S
H1773 C1788 0.960 . S
H1774 C1788 0.960 . S
H1775 C1788 0.960 . S
C1776 H1768 0.929 . S
C1776 C1777 1.377 . S
C1776 C1778 1.384 . S
C1777 C1776 1.377 . S
C1777 C1783 1.390 . S
C1778 H1769 0.930 . S
C1778 C1776 1.384 . S
C1778 C1779 1.372 . S
C1779 C1778 1.372 . S
C1779 C1780 1.400 . S
C1779 C1784 1.490 . S
C1780 H1770 0.930 . S
C1780 C1779 1.400 . S
C1780 C1783 1.386 . S
H1781 C1797 0.930 . S
H1782 C1798 0.931 . S
C1783 H1771 0.929 . S
C1783 C1777 1.390 . S
C1783 C1780 1.386 . S
C1784 C1779 1.490 . S
C1784 C1786 1.395 . S
C1784 C1787 1.403 . S
H1785 C1791 0.930 . S
C1786 H1772 0.930 . S
C1786 C1784 1.395 . S
C1786 C1789 1.403 . S
C1787 C1784 1.403 . S
C1787 C1788 1.524 . S
C1787 C1791 1.400 . S
C1788 H1773 0.960 . S
C1788 H1774 0.960 . S
C1788 H1775 0.960 . S
C1788 C1787 1.524 . S
C1789 C1786 1.403 . S
C1789 C1790 1.392 . S
C1789 C1793 1.495 . S
C1790 C1789 1.392 . S
C1790 C1791 1.385 . S
C1790 C1792 1.478 . S
C1791 H1785 0.930 . S
C1791 C1787 1.400 . S
C1791 C1790 1.385 . S
C1792 C1790 1.478 . S
C1792 C1794 1.381 . S
C1792 C1798 1.383 . S
C1793 C1789 1.495 . S
C1793 H1799 0.959 . S
C1793 H1800 0.961 . S
C1793 H1801 0.960 . S
C1794 C1792 1.381 . S
C1794 C1795 1.394 . S
C1794 H1802 0.930 . S
C1795 C1794 1.394 . S
C1795 C1796 1.383 . S
C1795 H1803 0.929 . S
C1796 C1795 1.383 . S
C1796 C1797 1.377 . S
C1797 H1781 0.930 . S
C1797 C1796 1.377 . S
C1797 C1798 1.379 . S
C1798 H1782 0.931 . S
C1798 C1792 1.383 . S
C1798 C1797 1.379 . S
H1799 C1793 0.959 . S
H1800 C1793 0.961 . S
H1801 C1793 0.960 . S
H1802 C1794 0.930 . S
H1803 C1795 0.929 . S
H1804 C1812 0.929 1_554 S
H1805 C1814 0.930 . S
H1806 C1816 0.930 . S
H1807 C1819 0.929 . S
H1808 C1822 0.930 . S
H1809 C1824 0.960 . S
H1810 C1824 0.960 . S
H1811 C1824 0.960 . S
C1812 H1804 0.929 1_556 S
C1812 C1813 1.377 . S
C1812 C1814 1.384 . S
C1813 C1812 1.377 . S
C1813 C1819 1.390 . S
C1814 H1805 0.930 . S
C1814 C1812 1.384 . S
C1814 C1815 1.372 . S
C1815 C1814 1.372 . S
C1815 C1816 1.400 . S
C1815 C1820 1.490 . S
C1816 H1806 0.930 . S
C1816 C1815 1.400 . S
C1816 C1819 1.386 . S
H1817 C1833 0.930 . S
H1818 C1834 0.931 . S
C1819 H1807 0.929 . S
C1819 C1813 1.390 . S
C1819 C1816 1.386 . S
C1820 C1815 1.490 . S
C1820 C1822 1.395 . S
C1820 C1823 1.403 . S
H1821 C1827 0.930 . S
C1822 H1808 0.930 . S
C1822 C1820 1.395 . S
C1822 C1825 1.403 . S
C1823 C1820 1.403 . S
C1823 C1824 1.524 . S
C1823 C1827 1.400 . S
C1824 H1809 0.960 . S
C1824 H1810 0.960 . S
C1824 H1811 0.960 . S
C1824 C1823 1.524 . S
C1825 C1822 1.403 . S
C1825 C1826 1.392 . S
C1825 C1829 1.495 . S
C1826 C1825 1.392 . S
C1826 C1827 1.385 . S
C1826 C1828 1.478 . S
C1827 H1821 0.930 . S
C1827 C1823 1.400 . S
C1827 C1826 1.385 . S
C1828 C1826 1.478 . S
C1828 C1830 1.381 . S
C1828 C1834 1.383 . S
C1829 C1825 1.495 . S
C1829 H1835 0.959 . S
C1829 H1836 0.961 . S
C1829 H1837 0.960 . S
C1830 C1828 1.381 . S
C1830 C1831 1.394 . S
C1830 H1838 0.930 . S
C1831 C1830 1.394 . S
C1831 C1832 1.383 . S
C1831 H1839 0.929 . S
C1832 C1831 1.383 . S
C1832 C1833 1.377 . S
C1833 H1817 0.930 . S
C1833 C1832 1.377 . S
C1833 C1834 1.379 . S
C1834 H1818 0.931 . S
C1834 C1828 1.383 . S
C1834 C1833 1.379 . S
H1835 C1829 0.959 . S
H1836 C1829 0.961 . S
H1837 C1829 0.960 . S
H1838 C1830 0.930 . S
H1839 C1831 0.929 . S
H1840 C1848 0.929 . S
H1841 C1850 0.930 . S
H1842 C1852 0.930 . S
H1843 C1855 0.929 . S
H1844 C1858 0.930 . S
H1845 C1860 0.960 . S
H1846 C1860 0.960 . S
H1847 C1860 0.960 . S
C1848 H1840 0.929 . S
C1848 C1849 1.377 . S
C1848 C1850 1.384 . S
C1849 C1848 1.377 . S
C1849 C1855 1.390 . S
C1850 H1841 0.930 . S
C1850 C1848 1.384 . S
C1850 C1851 1.372 . S
C1851 C1850 1.372 . S
C1851 C1852 1.400 . S
C1851 C1856 1.490 . S
C1852 H1842 0.930 . S
C1852 C1851 1.400 . S
C1852 C1855 1.386 . S
H1853 C1869 0.930 . S
H1854 C1870 0.931 . S
C1855 H1843 0.929 . S
C1855 C1849 1.390 . S
C1855 C1852 1.386 . S
C1856 C1851 1.490 . S
C1856 C1858 1.395 . S
C1856 C1859 1.403 . S
H1857 C1863 0.930 . S
C1858 H1844 0.930 . S
C1858 C1856 1.395 . S
C1858 C1861 1.403 . S
C1859 C1856 1.403 . S
C1859 C1860 1.524 . S
C1859 C1863 1.400 . S
C1860 H1845 0.960 . S
C1860 H1846 0.960 . S
C1860 H1847 0.960 . S
C1860 C1859 1.524 . S
C1861 C1858 1.403 . S
C1861 C1862 1.392 . S
C1861 C1865 1.495 . S
C1862 C1861 1.392 . S
C1862 C1863 1.385 . S
C1862 C1864 1.478 . S
C1863 H1857 0.930 . S
C1863 C1859 1.400 . S
C1863 C1862 1.385 . S
C1864 C1862 1.478 . S
C1864 C1866 1.381 . S
C1864 C1870 1.383 . S
C1865 C1861 1.495 . S
C1865 H1871 0.959 . S
C1865 H1872 0.961 . S
C1865 H1873 0.960 . S
C1866 C1864 1.381 . S
C1866 C1867 1.394 1_556 S
C1866 H1874 0.930 . S
C1867 C1866 1.394 1_554 S
C1867 C1868 1.383 . S
C1867 H1875 0.929 . S
C1868 C1867 1.383 . S
C1868 C1869 1.377 1_554 S
C1869 H1853 0.930 . S
C1869 C1868 1.377 1_556 S
C1869 C1870 1.379 . S
C1870 H1854 0.931 . S
C1870 C1864 1.383 . S
C1870 C1869 1.379 . S
H1871 C1865 0.959 . S
H1872 C1865 0.961 . S
H1873 C1865 0.960 . S
H1874 C1866 0.930 . S
H1875 C1867 0.929 . S
H1876 C1884 0.929 . S
H1877 C1886 0.930 . S
H1878 C1888 0.930 . S
H1879 C1891 0.929 . S
H1880 C1894 0.930 . S
H1881 C1896 0.960 . S
H1882 C1896 0.960 . S
H1883 C1896 0.960 . S
C1884 H1876 0.929 . S
C1884 C1885 1.377 . S
C1884 C1886 1.384 . S
C1885 C1884 1.377 . S
C1885 C1891 1.390 . S
C1886 H1877 0.930 . S
C1886 C1884 1.384 . S
C1886 C1887 1.372 . S
C1887 C1886 1.372 . S
C1887 C1888 1.400 . S
C1887 C1892 1.490 . S
C1888 H1878 0.930 . S
C1888 C1887 1.400 . S
C1888 C1891 1.386 . S
H1889 C1905 0.930 . S
H1890 C1906 0.931 . S
C1891 H1879 0.929 . S
C1891 C1885 1.390 . S
C1891 C1888 1.386 . S
C1892 C1887 1.490 . S
C1892 C1894 1.395 . S
C1892 C1895 1.403 . S
H1893 C1899 0.930 . S
C1894 H1880 0.930 . S
C1894 C1892 1.395 . S
C1894 C1897 1.403 . S
C1895 C1892 1.403 . S
C1895 C1896 1.524 . S
C1895 C1899 1.400 . S
C1896 H1881 0.960 . S
C1896 H1882 0.960 . S
C1896 H1883 0.960 . S
C1896 C1895 1.524 . S
C1897 C1894 1.403 . S
C1897 C1898 1.392 . S
C1897 C1901 1.495 . S
C1898 C1897 1.392 . S
C1898 C1899 1.385 . S
C1898 C1900 1.478 . S
C1899 H1893 0.930 . S
C1899 C1895 1.400 . S
C1899 C1898 1.385 . S
C1900 C1898 1.478 . S
C1900 C1902 1.381 . S
C1900 C1906 1.383 . S
C1901 C1897 1.495 . S
C1901 H1907 0.959 . S
C1901 H1908 0.961 . S
C1901 H1909 0.960 . S
C1902 C1900 1.381 . S
C1902 C1903 1.394 . S
C1902 H1910 0.930 . S
C1903 C1902 1.394 . S
C1903 C1904 1.383 . S
C1903 H1911 0.929 . S
C1904 C1903 1.383 . S
C1904 C1905 1.377 . S
C1905 H1889 0.930 . S
C1905 C1904 1.377 . S
C1905 C1906 1.379 . S
C1906 H1890 0.931 . S
C1906 C1900 1.383 . S
C1906 C1905 1.379 . S
H1907 C1901 0.959 . S
H1908 C1901 0.961 . S
H1909 C1901 0.960 . S
H1910 C1902 0.930 . S
H1911 C1903 0.929 . S
H1912 C1920 0.929 . S
H1913 C1922 0.930 . S
H1914 C1924 0.930 . S
H1915 C1927 0.929 . S
H1916 C1930 0.930 . S
H1917 C1932 0.960 . S
H1918 C1932 0.960 . S
H1919 C1932 0.960 . S
C1920 H1912 0.929 . S
C1920 C1921 1.377 . S
C1920 C1922 1.384 . S
C1921 C1920 1.377 . S
C1921 C1927 1.390 . S
C1922 H1913 0.930 . S
C1922 C1920 1.384 . S
C1922 C1923 1.372 . S
C1923 C1922 1.372 . S
C1923 C1924 1.400 . S
C1923 C1928 1.490 . S
C1924 H1914 0.930 . S
C1924 C1923 1.400 . S
C1924 C1927 1.386 . S
H1925 C1941 0.930 . S
H1926 C1942 0.931 . S
C1927 H1915 0.929 . S
C1927 C1921 1.390 . S
C1927 C1924 1.386 . S
C1928 C1923 1.490 . S
C1928 C1930 1.395 . S
C1928 C1931 1.403 . S
H1929 C1935 0.930 . S
C1930 H1916 0.930 . S
C1930 C1928 1.395 . S
C1930 C1933 1.403 . S
C1931 C1928 1.403 . S
C1931 C1932 1.524 . S
C1931 C1935 1.400 . S
C1932 H1917 0.960 . S
C1932 H1918 0.960 . S
C1932 H1919 0.960 . S
C1932 C1931 1.524 . S
C1933 C1930 1.403 . S
C1933 C1934 1.392 . S
C1933 C1937 1.495 . S
C1934 C1933 1.392 . S
C1934 C1935 1.385 . S
C1934 C1936 1.478 . S
C1935 H1929 0.930 . S
C1935 C1931 1.400 . S
C1935 C1934 1.385 . S
C1936 C1934 1.478 . S
C1936 C1938 1.381 . S
C1936 C1942 1.383 . S
C1937 C1933 1.495 . S
C1937 H1943 0.959 . S
C1937 H1944 0.961 . S
C1937 H1945 0.960 . S
C1938 C1936 1.381 . S
C1938 C1939 1.394 . S
C1938 H1946 0.930 . S
C1939 C1938 1.394 . S
C1939 C1940 1.383 . S
C1939 H1947 0.929 . S
C1940 C1939 1.383 . S
C1940 C1941 1.377 . S
C1941 H1925 0.930 . S
C1941 C1940 1.377 . S
C1941 C1942 1.379 . S
C1942 H1926 0.931 . S
C1942 C1936 1.383 . S
C1942 C1941 1.379 . S
H1943 C1937 0.959 . S
H1944 C1937 0.961 . S
H1945 C1937 0.960 . S
H1946 C1938 0.930 . S
H1947 C1939 0.929 . S
H1948 C1956 0.929 . S
H1949 C1958 0.930 . S
H1950 C1960 0.930 . S
H1951 C1963 0.929 . S
H1952 C1966 0.930 . S
H1953 C1968 0.960 . S
H1954 C1968 0.960 . S
H1955 C1968 0.960 . S
C1956 H1948 0.929 . S
C1956 C1957 1.377 . S
C1956 C1958 1.384 . S
C1957 C1956 1.377 . S
C1957 C1963 1.390 . S
C1958 H1949 0.930 . S
C1958 C1956 1.384 . S
C1958 C1959 1.372 . S
C1959 C1958 1.372 . S
C1959 C1960 1.400 . S
C1959 C1964 1.490 . S
C1960 H1950 0.930 . S
C1960 C1959 1.400 . S
C1960 C1963 1.386 . S
H1961 C1977 0.930 . S
H1962 C1978 0.931 . S
C1963 H1951 0.929 . S
C1963 C1957 1.390 . S
C1963 C1960 1.386 . S
C1964 C1959 1.490 . S
C1964 C1966 1.395 . S
C1964 C1967 1.403 . S
H1965 C1971 0.930 . S
C1966 H1952 0.930 . S
C1966 C1964 1.395 . S
C1966 C1969 1.403 . S
C1967 C1964 1.403 . S
C1967 C1968 1.524 . S
C1967 C1971 1.400 . S
C1968 H1953 0.960 . S
C1968 H1954 0.960 . S
C1968 H1955 0.960 . S
C1968 C1967 1.524 . S
C1969 C1966 1.403 . S
C1969 C1970 1.392 . S
C1969 C1973 1.495 . S
C1970 C1969 1.392 . S
C1970 C1971 1.385 . S
C1970 C1972 1.478 . S
C1971 H1965 0.930 . S
C1971 C1967 1.400 . S
C1971 C1970 1.385 . S
C1972 C1970 1.478 . S
C1972 C1974 1.381 . S
C1972 C1978 1.383 . S
C1973 C1969 1.495 . S
C1973 H1979 0.959 . S
C1973 H1980 0.961 . S
C1973 H1981 0.960 . S
C1974 C1972 1.381 . S
C1974 C1975 1.394 . S
C1974 H1982 0.930 . S
C1975 C1974 1.394 . S
C1975 C1976 1.383 1_554 S
C1975 H1983 0.929 . S
C1976 C1975 1.383 1_556 S
C1976 C1977 1.377 . S
C1977 H1961 0.930 . S
C1977 C1976 1.377 . S
C1977 C1978 1.379 1_556 S
C1978 H1962 0.931 . S
C1978 C1972 1.383 . S
C1978 C1977 1.379 1_554 S
H1979 C1973 0.959 . S
H1980 C1973 0.961 . S
H1981 C1973 0.960 . S
H1982 C1974 0.930 . S
H1983 C1975 0.929 . S
C553 C33 0.252 . S
C572 C169 0.274 . S
C589 C203 0.214 . S
C608 C67 0.280 . S
C625 C237 0.242 . S
C644 C101 0.329 . S
C661 C135 0.225 . S
C680 C271 0.132 . S
C697 C305 0.238 . S
C716 C373 0.151 . S
C733 C407 0.244 . S
C752 C339 0.178 . S
C769 C441 0.233 . S
C788 C509 0.137 . S
C805 C475 0.211 . S
C824 C543 0.237 . S
C841 C20 2.110 . S
C860 C190 2.107 . S
C877 C224 2.110 . S
C896 C54 2.108 . S
C913 C258 2.114 . S
C932 C88 2.104 . S
C949 C122 2.111 . S
C968 C156 2.117 . S
C985 C145 0.655 . S
C1004 C349 0.669 1_556 S
C1021 C77 0.653 . S
C1040 C281 0.638 . S
C1057 C213 0.657 . S
C1076 C383 0.658 . S
C1093 C9 0.660 . S
C1112 C315 0.677 1_554 S
C1129 C428 2.114 . S
C1148 C292 2.111 . S
C1165 C360 2.110 . S
C1184 C530 2.098 . S
C1201 C326 2.109 . S
C1220 C462 2.107 . S
C1237 C394 2.110 . S
C1256 C496 2.102 . S
C1273 C485 0.654 . S
C1292 C43 0.645 . S
C1309 C179 0.649 1_554 S
C1328 C451 0.637 . S
C1345 C111 0.651 1_556 S
C1364 C519 0.651 . S
C1381 C417 0.649 . S
C1400 C247 0.630 . S
C1417 C175 1.094 . S
C1436 C5 1.102 . S
C1453 C209 1.087 1_556 S
C1472 C39 1.101 . S
C1489 C73 1.084 1_554 S
C1508 C243 1.124 . S
C1525 C107 1.095 . S
C1544 C141 1.065 . S
C1561 C138 2.617 . S
C1580 C342 2.605 . S
C1597 C274 2.614 . S
C1616 C70 2.620 . S
C1633 C376 2.616 . S
C1652 C206 2.605 . S
C1669 C2 2.616 . S
C1688 C308 2.614 . S
C1705 C413 1.101 1_554 S
C1724 C277 1.048 . S
C1741 C345 1.100 . S
C1760 C515 1.066 . S
C1777 C447 1.084 . S
C1796 C311 1.133 . S
C1813 C481 1.087 1_556 S
C1832 C379 1.101 . S
C1849 C36 2.614 . S
C1868 C478 2.620 . S
C1885 C172 2.617 . S
C1904 C444 2.602 . S
C1921 C512 2.617 . S
C1940 C104 2.609 . S
C1957 C240 2.618 . S
C1976 C410 2.605 . S
