# Generated by pormake.
# Topology afw, (4)-cn, num edge types: 1
# Building blocks:
#     Node 0, Type 0, BuildingBlock: KUFVIS_clean_sbu_0, # of connection points: 4
#     Node 1, Type 0, BuildingBlock: KUFVIS_clean_sbu_0, # of connection points: 4
#     Node 2, Type 0, BuildingBlock: KUFVIS_clean_sbu_0, # of connection points: 4
#     Node 3, Type 0, BuildingBlock: KUFVIS_clean_sbu_0, # of connection points: 4
#     Node 4, Type 0, BuildingBlock: KUFVIS_clean_sbu_0, # of connection points: 4
#     Node 5, Type 0, BuildingBlock: KUFVIS_clean_sbu_0, # of connection points: 4
#     Node 6, Type 0, BuildingBlock: KUFVIS_clean_sbu_0, # of connection points: 4
#     Node 7, Type 0, BuildingBlock: KUFVIS_clean_sbu_0, # of connection points: 4
#     Node 8, Type 0, BuildingBlock: KUFVIS_clean_sbu_0, # of connection points: 4
#     Edge 9, Type (0, 0), BuildingBlock: EZIPEK_clean_linker_0, # of connection points: 2
#     Edge 10, Type (0, 0), BuildingBlock: EZIPEK_clean_linker_0, # of connection points: 2
#     Edge 11, Type (0, 0), BuildingBlock: EZIPEK_clean_linker_0, # of connection points: 2
#     Edge 12, Type (0, 0), BuildingBlock: EZIPEK_clean_linker_0, # of connection points: 2
#     Edge 13, Type (0, 0), BuildingBlock: EZIPEK_clean_linker_0, # of connection points: 2
#     Edge 14, Type (0, 0), BuildingBlock: EZIPEK_clean_linker_0, # of connection points: 2
#     Edge 15, Type (0, 0), BuildingBlock: EZIPEK_clean_linker_0, # of connection points: 2
#     Edge 16, Type (0, 0), BuildingBlock: EZIPEK_clean_linker_0, # of connection points: 2
#     Edge 17, Type (0, 0), BuildingBlock: EZIPEK_clean_linker_0, # of connection points: 2
#     Edge 18, Type (0, 0), BuildingBlock: EZIPEK_clean_linker_0, # of connection points: 2
#     Edge 19, Type (0, 0), BuildingBlock: EZIPEK_clean_linker_0, # of connection points: 2
#     Edge 20, Type (0, 0), BuildingBlock: EZIPEK_clean_linker_0, # of connection points: 2
#     Edge 21, Type (0, 0), BuildingBlock: EZIPEK_clean_linker_0, # of connection points: 2
#     Edge 22, Type (0, 0), BuildingBlock: EZIPEK_clean_linker_0, # of connection points: 2
#     Edge 23, Type (0, 0), BuildingBlock: EZIPEK_clean_linker_0, # of connection points: 2
#     Edge 24, Type (0, 0), BuildingBlock: EZIPEK_clean_linker_0, # of connection points: 2
#     Edge 25, Type (0, 0), BuildingBlock: EZIPEK_clean_linker_0, # of connection points: 2
#     Edge 26, Type (0, 0), BuildingBlock: EZIPEK_clean_linker_0, # of connection points: 2
# Relax obj value: 0.208
# Max RMSD: 0.231
# Mean RMSD: 0.211
data_MOF--net-afw--node1-KUFVIS_clean_sbu_0--edge1-EZIPEK_clean_linker_0
_symmetry_space_group_name_H-M    P1
_symmetry_Int_Tables_number       1
_symmetry_cell_setting            triclinic
loop_
_symmetry_equiv_pos_as_xyz
'x, y, z'
_cell_length_a     30.327955
_cell_length_b     31.415952
_cell_length_c     23.619924
_cell_angle_alpha  91.417963
_cell_angle_beta   90.24006
_cell_angle_gamma 118.82498
loop_
_atom_site_label
_atom_site_type_symbol
_atom_site_fract_x
_atom_site_fract_y
_atom_site_fract_z
_atom_type_partial_charge
Mn0 Mn 0.00315 0.18892 0.99551 0.0
Mn1 Mn 0.1126 0.27591 0.0505 0.0
C2 C 0.07513 0.17971 0.9909 0.0
C3 C 0.92925 0.11545 1.00349 0.0
C4 C 0.06103 0.28762 0.94447 0.0
O5 O 0.9826 0.22957 0.04819 0.0
O6 O 0.05654 0.27362 0.09534 0.0
C7 C 0.11301 0.23537 0.16222 0.0
N8 N 0.1349 0.2515 0.11132 0.0
C9 C 0.2021 0.23447 0.13425 0.0
C10 C 0.18017 0.21748 0.18681 0.0
C11 C 0.1354 0.21791 0.20082 0.0
C12 C 0.17781 0.251 0.0973 0.0
H13 H 0.07844 0.23536 0.17303 0.0
C14 C 0.00951 0.25951 0.08813 0.0
O15 O 0.93311 0.1464 0.9658 0.0
O16 O 0.96579 0.12944 0.04018 0.0
N17 N 0.16956 0.28053 0.01073 0.0
C18 C 0.18689 0.29988 0.95923 0.0
C19 C 0.23251 0.3041 0.93986 0.0
C20 C 0.26006 0.28881 0.9738 0.0
C21 C 0.24202 0.26995 0.02713 0.0
C22 C 0.19666 0.26723 0.04448 0.0
H23 H 0.16625 0.31223 0.93316 0.0
O24 O 0.03755 0.1555 0.95606 0.0
O25 O 0.06952 0.2094 0.02503 0.0
O26 O 0.02909 0.24277 0.93837 0.0
O27 O 0.0927 0.30366 0.98613 0.0
C28 C 0.26732 0.25382 0.06379 0.0
C29 C 0.24712 0.23565 0.11709 0.0
H30 H 0.19738 0.20409 0.21675 0.0
H31 H 0.11819 0.20478 0.24126 0.0
H32 H 0.24641 0.31911 0.89886 0.0
H33 H 0.29508 0.29184 0.95858 0.0
H34 H 0.30221 0.25502 0.0513 0.0
H35 H 0.26672 0.22303 0.14472 0.0
Mn36 Mn 0.8349 0.8397 0.03937 0.0
Mn37 Mn 0.84448 0.74138 0.99697 0.0
C38 C 0.91273 0.84083 0.04646 0.0
C39 C 0.83498 0.91212 0.01605 0.0
C40 C 0.7959 0.74829 0.10747 0.0
O41 O 0.77001 0.79922 0.9929 0.0
O42 O 0.78883 0.74356 0.95637 0.0
C43 C 0.8708 0.76383 0.8768 0.0
N44 N 0.88129 0.75247 0.92866 0.0
C45 C 0.94778 0.74002 0.89097 0.0
C46 C 0.93824 0.75223 0.83729 0.0
C47 C 0.89983 0.7646 0.83029 0.0
C48 C 0.91904 0.74191 0.93619 0.0
H49 H 0.84046 0.77216 0.87096 0.0
C50 C 0.76113 0.76383 0.95865 0.0
O51 O 0.81291 0.88833 0.06071 0.0
O52 O 0.85762 0.8938 0.98557 0.0
N53 N 0.89767 0.73459 0.03144 0.0
C54 C 0.90117 0.72261 0.08571 0.0
C55 C 0.93505 0.70575 0.09901 0.0
C56 C 0.96423 0.70063 0.05618 0.0
C57 C 0.96147 0.71492 1.00113 0.0
C58 C 0.92707 0.73151 0.99041 0.0
H59 H 0.87694 0.72406 0.11816 0.0
O60 O 0.90409 0.87149 0.07567 0.0
O61 O 0.8758 0.81093 0.01365 0.0
O62 O 0.80563 0.79234 0.10388 0.0
O63 O 0.80653 0.72582 0.06852 0.0
C64 C 0.98952 0.71095 0.9558 0.0
C65 C 0.98362 0.72467 0.90109 0.0
H66 H 0.95978 0.75171 0.80107 0.0
H67 H 0.89201 0.77379 0.78895 0.0
H68 H 0.93725 0.69491 0.14163 0.0
H69 H 0.98744 0.6843 0.06576 0.0
H70 H 0.01521 0.69671 0.96213 0.0
H71 H 0.00581 0.72193 0.8668 0.0
Mn72 Mn 0.19623 0.00397 0.02234 0.0
Mn73 Mn 0.20295 0.90896 0.07626 0.0
C74 C 0.12355 0.92757 0.02424 0.0
C75 C 0.17858 0.06848 0.02892 0.0
C76 C 0.24331 0.95037 0.96017 0.0
O77 O 0.2624 0.03816 0.06887 0.0
O78 O 0.25696 0.97126 0.10726 0.0
C79 C 0.18353 0.92252 0.19647 0.0
N80 N 0.17134 0.89393 0.14836 0.0
C81 C 0.10849 0.82533 0.197 0.0
C82 C 0.11977 0.85418 0.24676 0.0
C83 C 0.15726 0.9031 0.24637 0.0
C84 C 0.13435 0.84728 0.14786 0.0
H85 H 0.21292 0.95993 0.19682 0.0
C86 C 0.27787 0.0174 0.1036 0.0
O87 O 0.20523 0.06468 0.98831 0.0
O88 O 0.16699 0.03745 0.0689 0.0
N89 N 0.15209 0.84543 0.05217 0.0
C90 C 0.1503 0.82111 1.00293 0.0
C91 C 0.11902 0.7707 0.99821 0.0
C92 C 0.091 0.74541 0.04479 0.0
C93 C 0.09316 0.7709 0.09514 0.0
C94 C 0.12503 0.82125 0.09733 0.0
H95 H 0.17474 0.83947 0.96863 0.0
O96 O 0.12818 0.96003 0.98854 0.0
O97 O 0.16268 0.94017 0.05706 0.0
O98 O 0.22934 0.98248 0.96173 0.0
O99 O 0.23613 0.92137 1.00062 0.0
C100 C 0.06745 0.74784 0.14434 0.0
C101 C 0.07407 0.77523 0.19483 0.0
H102 H 0.10048 0.83896 0.2857 0.0
H103 H 0.16648 0.92557 0.28468 0.0
H104 H 0.11812 0.7511 0.9595 0.0
H105 H 0.06922 0.70618 0.04192 0.0
H106 H 0.04321 0.70889 0.14416 0.0
H107 H 0.05403 0.75706 0.23231 0.0
Mn108 Mn 0.68106 0.53194 0.3594 0.0
Mn109 Mn 0.78627 0.62898 0.4125 0.0
C110 C 0.75981 0.53722 0.34584 0.0
C111 C 0.61266 0.45374 0.36525 0.0
C112 C 0.73111 0.6319 0.30665 0.0
O113 O 0.65362 0.55993 0.41934 0.0
O114 O 0.72659 0.62056 0.45586 0.0
C115 C 0.79163 0.59555 0.52737 0.0
N116 N 0.81289 0.61193 0.47625 0.0
C117 C 0.89107 0.61719 0.50739 0.0
C118 C 0.86981 0.59977 0.56012 0.0
C119 C 0.8198 0.58871 0.57004 0.0
C120 C 0.86075 0.62206 0.46603 0.0
H121 H 0.75353 0.58782 0.53553 0.0
C122 C 0.6786 0.59423 0.45559 0.0
O123 O 0.61211 0.48504 0.33093 0.0
O124 O 0.65197 0.46843 0.3983 0.0
N125 N 0.84668 0.64075 0.37532 0.0
C126 C 0.86169 0.65777 0.32238 0.0
C127 C 0.91171 0.67396 0.30713 0.0
C128 C 0.94567 0.67258 0.34646 0.0
C129 C 0.92894 0.65275 0.39966 0.0
C130 C 0.87883 0.63799 0.41288 0.0
H131 H 0.83627 0.66053 0.29249 0.0
O132 O 0.72195 0.51078 0.31196 0.0
O133 O 0.7507 0.56075 0.38602 0.0
O134 O 0.69606 0.58808 0.30716 0.0
O135 O 0.76442 0.65096 0.34595 0.0
C136 C 0.96042 0.64879 0.44082 0.0
C137 C 0.9413 0.63039 0.49441 0.0
H138 H 0.89162 0.59503 0.59338 0.0
H139 H 0.8032 0.57548 0.61071 0.0
H140 H 0.92446 0.68895 0.26585 0.0
H141 H 0.9848 0.68853 0.33595 0.0
H142 H -0.00061 0.65987 0.43176 0.0
H143 H 0.96574 0.6272 0.52561 0.0
Mn144 Mn 0.4978 0.17645 0.37012 0.0
Mn145 Mn 0.52531 0.09272 0.31231 0.0
C146 C 0.58043 0.19026 0.3704 0.0
C147 C 0.49392 0.24903 0.36226 0.0
C148 C 0.47545 0.08211 0.42822 0.0
O149 O 0.4354 0.13527 0.31999 0.0
O150 O 0.46135 0.08553 0.28059 0.0
C151 C 0.53896 0.12425 0.19328 0.0
N152 N 0.55794 0.11578 0.24157 0.0
C153 C 0.63754 0.13915 0.19754 0.0
C154 C 0.61881 0.14813 0.14752 0.0
C155 C 0.56934 0.14075 0.14545 0.0
C156 C 0.6057 0.12326 0.24411 0.0
H157 H 0.50095 0.11859 0.1911 0.0
C158 C 0.43013 0.10203 0.28393 0.0
O159 O 0.47025 0.21857 0.40169 0.0
O160 O 0.51571 0.23485 0.32508 0.0
N161 N 0.588 0.09756 0.33676 0.0
C162 C 0.59774 0.07938 0.38395 0.0
C163 C 0.64592 0.08477 0.3933 0.0
C164 C 0.6827 0.10573 0.35185 0.0
C165 C 0.67014 0.11921 0.30067 0.0
C166 C 0.62176 0.11402 0.29463 0.0
H167 H 0.56813 0.05856 0.4124 0.0
O168 O 0.56599 0.21218 0.40702 0.0
O169 O 0.54548 0.15937 0.33622 0.0
O170 O 0.47451 0.12233 0.42828 0.0
O171 O 0.49317 0.06751 0.38721 0.0
C172 C 0.70304 0.13581 0.25467 0.0
C173 C 0.68667 0.14554 0.20304 0.0
H174 H 0.64208 0.16074 0.11048 0.0
H175 H 0.5546 0.14765 0.10701 0.0
H176 H 0.65413 0.07131 0.43144 0.0
H177 H 0.7196 0.10907 0.35864 0.0
H178 H 0.74073 0.14041 0.25823 0.0
H179 H 0.7122 0.158 0.16783 0.0
Mn180 Mn 0.87493 0.36798 0.33663 0.0
Mn181 Mn 0.97283 0.46404 0.27878 0.0
C182 C 0.87963 0.44431 0.34396 0.0
C183 C 0.79406 0.3031 0.33478 0.0
C184 C 0.97948 0.42129 0.39122 0.0
O185 O 0.90233 0.33467 0.28334 0.0
O186 O 0.96395 0.40166 0.24602 0.0
C187 C 0.92922 0.44869 0.16271 0.0
N188 N 0.9493 0.47784 0.20992 0.0
C189 C 0.94229 0.5431 0.16711 0.0
C190 C 0.92112 0.51363 0.11834 0.0
C191 C 0.91441 0.46616 0.11623 0.0
C192 C 0.9547 0.52312 0.21293 0.0
H193 H 0.92418 0.41225 0.16059 0.0
C194 C 0.93837 0.35545 0.24912 0.0
O195 O 0.8284 0.30467 0.36893 0.0
O196 O 0.80813 0.33711 0.29797 0.0
N197 N 0.98733 0.52793 0.3037 0.0
C198 C 0.02047 0.55508 0.34589 0.0
C199 C 0.03764 0.60514 0.35075 0.0
C200 C 0.02309 0.62765 0.30994 0.0
C201 C 0.9912 0.59988 0.26487 0.0
C202 C 0.97568 0.54999 0.26218 0.0
H203 H 0.03782 0.5397 0.37204 0.0
O204 O 0.85432 0.41048 0.37939 0.0
O205 O 0.90305 0.43287 0.30539 0.0
O206 O 0.93406 0.38778 0.3904 0.0
O207 O -0.00125 0.45224 0.35189 0.0
C208 C 0.9782 0.62058 0.21991 0.0
C209 C 0.95285 0.59193 0.17145 0.0
H210 H 0.91052 0.52729 0.082 0.0
H211 H 0.89827 0.44323 0.07865 0.0
H212 H 0.06461 0.62679 0.38376 0.0
H213 H 0.04011 0.66683 0.31118 0.0
H214 H 0.98874 0.65879 0.22154 0.0
H215 H 0.94362 0.60835 0.13679 0.0
Mn216 Mn 0.35378 0.85954 0.67647 0.0
Mn217 Mn 0.45593 0.94908 0.74365 0.0
C218 C 0.42792 0.85461 0.68127 0.0
C219 C 0.27997 0.78426 0.68452 0.0
C220 C 0.41837 0.9582 0.62499 0.0
O221 O 0.32476 0.89577 0.72286 0.0
O222 O 0.39336 0.94589 0.77437 0.0
C223 C 0.43711 0.9089 0.85887 0.0
N224 N 0.46688 0.92411 0.81252 0.0
C225 C 0.52543 0.90182 0.85354 0.0
C226 C 0.49537 0.88595 0.90155 0.0
C227 C 0.45105 0.88956 0.90422 0.0
C228 C 0.50955 0.92065 0.80955 0.0
H229 H 0.4027 0.91104 0.86121 0.0
C230 C 0.34579 0.92537 0.76472 0.0
O231 O 0.28591 0.8127 0.64287 0.0
O232 O 0.31649 0.80069 0.72138 0.0
N233 N 0.51891 0.95432 0.72093 0.0
C234 C 0.54854 0.97982 0.6777 0.0
C235 C 0.5945 0.98028 0.66873 0.0
C236 C 0.61121 0.95734 0.70694 0.0
C237 C 0.58292 0.93639 0.75511 0.0
C238 C 0.53709 0.93662 0.76106 0.0
H239 H 0.53819 1.00158 0.65226 0.0
O240 O 0.39352 0.82942 0.64332 0.0
O241 O 0.41808 0.88267 0.71388 0.0
O242 O 0.38246 0.91452 0.61991 0.0
O243 O 0.44687 0.97533 0.66973 0.0
C244 C 0.59916 0.91673 0.79829 0.0
C245 C 0.57039 0.8994 0.84747 0.0
H246 H 0.50591 0.87087 0.93655 0.0
H247 H 0.42756 0.87726 0.94108 0.0
H248 H 0.61761 0.99943 0.63344 0.0
H249 H 0.64691 0.95811 0.70035 0.0
H250 H 0.63411 0.9155 0.79453 0.0
H251 H 0.58337 0.88461 0.88056 0.0
Mn252 Mn 0.16697 0.49883 0.68623 0.0
Mn253 Mn 0.16947 0.39883 0.63433 0.0
C254 C 0.23984 0.49184 0.69665 0.0
C255 C 0.17913 0.57773 0.67959 0.0
C256 C 0.11751 0.40104 0.74335 0.0
O257 O 0.10827 0.47015 0.62943 0.0
O258 O 0.11871 0.40898 0.59221 0.0
C259 C 0.2042 0.42979 0.51785 0.0
N260 N 0.21029 0.41342 0.56866 0.0
C261 C 0.27884 0.40299 0.53345 0.0
C262 C 0.27387 0.42045 0.48107 0.0
C263 C 0.23657 0.4342 0.47338 0.0
C264 C 0.24681 0.40122 0.57692 0.0
H265 H 0.17502 0.43959 0.51131 0.0
C266 C 0.09807 0.43617 0.59237 0.0
O267 O 0.14837 0.54782 0.7156 0.0
O268 O 0.20079 0.56116 0.64491 0.0
N269 N 0.21796 0.38514 0.66929 0.0
C270 C 0.21641 0.36714 0.72161 0.0
C271 C 0.24779 0.34732 0.7343 0.0
C272 C 0.28 0.3457 0.69293 0.0
C273 C 0.28254 0.36616 0.64015 0.0
C274 C 0.25008 0.38515 0.62976 0.0
H275 H 0.19019 0.36622 0.75291 0.0
O276 O 0.2307 0.51979 0.73039 0.0
O277 O 0.20522 0.46769 0.65833 0.0
O278 O 0.12834 0.44539 0.74178 0.0
O279 O 0.12784 0.37925 0.70348 0.0
C280 C 0.31423 0.36638 0.59651 0.0
C281 C 0.31325 0.38586 0.54368 0.0
H282 H 0.29804 0.42286 0.44627 0.0
H283 H 0.23226 0.44742 0.43298 0.0
H284 H 0.24594 0.33186 0.77525 0.0
H285 H 0.30176 0.32763 0.70194 0.0
H286 H 0.33924 0.3513 0.60284 0.0
H287 H 0.33806 0.38614 0.51065 0.0
Mn288 Mn 0.5272 0.67071 0.70131 0.0
Mn289 Mn 0.51904 0.57241 0.76229 0.0
C290 C 0.45056 0.59943 0.69749 0.0
C291 C 0.52705 0.74494 0.7124 0.0
C292 C 0.57379 0.61279 0.65188 0.0
O293 O 0.59121 0.69637 0.7504 0.0
O294 O 0.56932 0.63116 0.80385 0.0
C295 C 0.48119 0.57649 0.87654 0.0
N296 N 0.47601 0.55231 0.82616 0.0
C297 C 0.40777 0.47905 0.86124 0.0
C298 C 0.41166 0.50337 0.91315 0.0
C299 C 0.44837 0.5524 0.92071 0.0
C300 C 0.44047 0.50539 0.81825 0.0
H301 H 0.51014 0.61384 0.88292 0.0
C302 C 0.59788 0.67585 0.79306 0.0
O303 O 0.54993 0.73653 0.67082 0.0
O304 O 0.50399 0.70969 0.74694 0.0
N305 N 0.47034 0.51288 0.72651 0.0
C306 C 0.46901 0.49592 0.67264 0.0
C307 C 0.43701 0.44669 0.65903 0.0
C308 C 0.40614 0.41586 0.7008 0.0
C309 C 0.40469 0.43511 0.7545 0.0
C310 C 0.43806 0.48428 0.76574 0.0
H311 H 0.49287 0.51956 0.64066 0.0
O312 O 0.45943 0.63453 0.66368 0.0
O313 O 0.4864 0.60814 0.73386 0.0
O314 O 0.55609 0.64166 0.64372 0.0
O315 O 0.5655 0.58897 0.69717 0.0
C316 C 0.37257 0.40733 0.79778 0.0
C317 C 0.37341 0.4295 0.85076 0.0
H318 H 0.38698 0.48466 0.94762 0.0
H319 H 0.45187 0.57134 0.96077 0.0
H320 H 0.43703 0.43231 0.61693 0.0
H321 H 0.38418 0.37745 0.6912 0.0
H322 H 0.34705 0.36892 0.79092 0.0
H323 H 0.34804 0.40792 0.8834 0.0
C324 C 0.17713 0.14173 0.98786 0.0
C325 C 0.15629 0.10181 0.02495 0.0
C326 C 0.0932 0.12566 0.05168 0.0
C327 C 0.10754 0.15824 0.00631 0.0
N328 N 0.15706 0.18838 0.92256 0.0
N329 N 0.08042 0.04689 0.07509 0.0
C330 C 0.1475 0.16341 0.97142 0.0
C331 C 0.1107 0.09134 0.05291 0.0
N332 N 0.22542 0.1602 0.96976 0.0
N333 N 0.06105 0.12529 0.09217 0.0
H334 H 0.08494 0.01646 0.06797 0.0
H335 H 0.04545 0.03782 0.09224 0.0
H336 H 0.04658 0.14927 0.09345 0.0
H337 H 0.05339 0.1044 0.12815 0.0
H338 H 0.24233 0.19045 0.94439 0.0
H339 H 0.25057 0.14985 0.98645 0.0
H340 H 0.18335 0.18951 0.89347 0.0
H341 H 0.13601 0.20468 0.90936 0.0
C342 C 0.83117 0.98887 0.04568 0.0
C343 C 0.84029 0.96106 1.00371 0.0
C344 C 0.89155 0.03462 0.95126 0.0
C345 C 0.89079 0.06328 0.99853 0.0
N346 N 0.85671 0.06867 0.08854 0.0
N347 N 0.85341 0.95519 0.90422 0.0
C348 C 0.85901 0.04062 0.0448 0.0
C349 C 0.86239 0.98325 0.95243 0.0
N350 N 0.7935 0.96603 0.0834 0.0
N351 N 0.92321 0.05575 0.90727 0.0
H352 H 0.82872 0.91789 0.90328 0.0
H353 H 0.86468 0.96943 0.86424 0.0
H354 H 0.94528 0.09311 0.90348 0.0
H355 H 0.93033 0.03592 0.8761 0.0
H356 H 0.78297 0.9842 0.11324 0.0
H357 H 0.7678 0.92908 0.07938 0.0
H358 H 0.83983 0.05496 0.127 0.0
H359 H 0.87347 0.10638 0.08672 0.0
C360 C 0.98883 0.85509 0.98925 0.0
C361 C 0.96513 0.84854 0.04242 0.0
C362 C 0.04816 0.88542 0.0892 0.0
C363 C 0.07127 0.88841 0.03586 0.0
N364 N 0.05934 0.85751 0.93978 0.0
N365 N 0.97198 0.84343 0.14338 0.0
C366 C 0.03976 0.86581 0.98785 0.0
C367 C 0.99474 0.85826 0.09253 0.0
N368 N 0.9654 0.85671 0.94053 0.0
N369 N 0.07556 0.91249 0.13521 0.0
H370 H 0.93291 0.82353 0.14678 0.0
H371 H 0.99212 0.84649 0.18055 0.0
H372 H 0.11386 0.93661 0.13426 0.0
H373 H 0.05903 0.91457 0.17305 0.0
H374 H 0.98364 0.86555 0.90182 0.0
H375 H 0.93009 0.85459 0.93954 0.0
H376 H 0.03733 0.83919 0.90411 0.0
H377 H 0.09636 0.86408 0.9391 0.0
C378 C 0.84617 0.49276 0.29007 0.0
C379 C 0.86687 0.48459 0.34035 0.0
C380 C 0.82075 0.51606 0.39615 0.0
C381 C 0.8043 0.52886 0.34603 0.0
N382 N 0.81676 0.54353 0.24616 0.0
N383 N 0.8866 0.50498 0.43952 0.0
C384 C 0.82327 0.52296 0.29342 0.0
C385 C 0.85963 0.50341 0.39248 0.0
N386 N 0.84169 0.46723 0.24088 0.0
N387 N 0.79573 0.50962 0.44581 0.0
H388 H 0.91467 0.49491 0.43784 0.0
H389 H 0.884 0.52044 0.47809 0.0
H390 H 0.76292 0.51211 0.44986 0.0
H391 H 0.80452 0.49621 0.48161 0.0
H392 H 0.82264 0.46951 0.2052 0.0
H393 H 0.85183 0.4401 0.23716 0.0
H394 H 0.83286 0.54243 0.20756 0.0
H395 H 0.79995 0.56575 0.24759 0.0
C396 C 0.5148 0.32893 0.41478 0.0
C397 C 0.50488 0.30104 0.36322 0.0
C398 C 0.5583 0.37471 0.31198 0.0
C399 C 0.57175 0.40231 0.3638 0.0
N400 N 0.55161 0.40925 0.46086 0.0
N401 N 0.49735 0.30128 0.26209 0.0
C402 C 0.54652 0.38046 0.41424 0.0
C403 C 0.51986 0.32555 0.31159 0.0
N404 N 0.49482 0.30652 0.46421 0.0
N405 N 0.58462 0.39389 0.26386 0.0
H406 H 0.4678 0.26563 0.26161 0.0
H407 H 0.50376 0.31811 0.22323 0.0
H408 H 0.61495 0.42891 0.2622 0.0
H409 H 0.57952 0.37327 0.22674 0.0
H410 H 0.50739 0.32309 0.50406 0.0
H411 H 0.46446 0.27156 0.4654 0.0
H412 H 0.53098 0.39654 0.49756 0.0
H413 H 0.57337 0.44702 0.46098 0.0
C414 C 0.6539 0.23075 0.30459 0.0
C415 C 0.63494 0.21186 0.35867 0.0
C416 C 0.72041 0.25604 0.39823 0.0
C417 C 0.73994 0.26832 0.34273 0.0
N418 N 0.72437 0.25673 0.24168 0.0
N419 N 0.65225 0.20033 0.45519 0.0
C420 C 0.70638 0.252 0.29538 0.0
C421 C 0.66904 0.22183 0.40456 0.0
N422 N 0.6229 0.23171 0.26308 0.0
N423 N 0.74868 0.28068 0.44517 0.0
H424 H 0.61436 0.17777 0.46274 0.0
H425 H 0.67647 0.20217 0.48779 0.0
H426 H 0.78406 0.31117 0.44363 0.0
H427 H 0.73402 0.27541 0.48579 0.0
H428 H 0.63633 0.2496 0.22528 0.0
H429 H 0.5846 0.21921 0.26813 0.0
H430 H 0.70108 0.24382 0.20576 0.0
H431 H 0.76217 0.26838 0.2334 0.0
C432 C 0.45958 0.81399 0.74846 0.0
C433 C 0.46494 0.83849 0.69681 0.0
C434 C 0.53205 0.82002 0.66919 0.0
C435 C 0.51996 0.78891 0.71551 0.0
N436 N 0.496 0.78016 0.81295 0.0
N437 N 0.50491 0.8629 0.60638 0.0
C438 C 0.49121 0.7935 0.75968 0.0
C439 C 0.50146 0.84169 0.65707 0.0
N440 N 0.42177 0.80657 0.78486 0.0
N441 N 0.57437 0.83107 0.63916 0.0
H442 H 0.48261 0.87844 0.59585 0.0
H443 H 0.52687 0.86171 0.57325 0.0
H444 H 0.60013 0.8199 0.65169 0.0
H445 H 0.58757 0.8566 0.60753 0.0
H446 H 0.41259 0.78366 0.81905 0.0
H447 H 0.39698 0.82019 0.77919 0.0
H448 H 0.47919 0.78635 0.84828 0.0
H449 H 0.5225 0.76918 0.8228 0.0
C450 C 0.20884 0.70563 0.63939 0.0
C451 C 0.23816 0.7327 0.68772 0.0
C452 C 0.22035 0.65731 0.73379 0.0
C453 C 0.19482 0.63033 0.68409 0.0
N454 N 0.14958 0.62615 0.59869 0.0
N455 N 0.24622 0.73125 0.78926 0.0
C456 C 0.18456 0.65373 0.63934 0.0
C457 C 0.23548 0.70748 0.73772 0.0
N458 N 0.2035 0.72899 0.59411 0.0
N459 N 0.23274 0.63598 0.77626 0.0
H460 H 0.2539 0.76724 0.79389 0.0
H461 H 0.24093 0.71362 0.82744 0.0
H462 H 0.2233 0.59939 0.7753 0.0
H463 H 0.25638 0.65578 0.81028 0.0
H464 H 0.19017 0.71221 0.55449 0.0
H465 H 0.21069 0.76489 0.5968 0.0
H466 H 0.13718 0.64033 0.56681 0.0
H467 H 0.12896 0.58845 0.60083 0.0
C468 C 0.31927 0.50888 0.74548 0.0
C469 C 0.29274 0.50087 0.69348 0.0
C470 C 0.37399 0.5367 0.64618 0.0
C471 C 0.39902 0.55716 0.69861 0.0
N472 N 0.38967 0.57088 0.79829 0.0
N473 N 0.29902 0.5185 0.59312 0.0
C474 C 0.37054 0.5448 0.74887 0.0
C475 C 0.32089 0.51647 0.64285 0.0
N476 N 0.2948 0.48463 0.79221 0.0
N477 N 0.40096 0.5396 0.59899 0.0
H478 H 0.26165 0.51035 0.58913 0.0
H479 H 0.31974 0.53376 0.55698 0.0
H480 H 0.44013 0.55524 0.60023 0.0
H481 H 0.38379 0.52207 0.56067 0.0
H482 H 0.3134 0.48819 0.83074 0.0
H483 H 0.25751 0.45702 0.78966 0.0
H484 H 0.36797 0.56495 0.83437 0.0
H485 H 0.42506 0.60149 0.80162 0.0
C486 C 0.03434 0.30443 0.848 0.0
C487 C 0.0655 0.32155 0.89773 0.0
C488 C 0.12337 0.3954 0.84934 0.0
C489 C 0.09688 0.37509 0.79706 0.0
N490 N 0.02546 0.31102 0.74672 0.0
N491 N 0.11861 0.39531 0.95127 0.0
C492 C 0.05169 0.32983 0.79648 0.0
C493 C 0.10391 0.37067 0.90028 0.0
N494 N 0.98604 0.26746 0.85163 0.0
N495 N 0.16883 0.43694 0.85061 0.0
H496 H 0.09951 0.38064 0.98843 0.0
H497 H 0.14361 0.43245 0.95527 0.0
H498 H 0.18542 0.45714 0.81519 0.0
H499 H 0.19236 0.4491 0.88642 0.0
H500 H 0.96011 0.25508 0.81808 0.0
H501 H 0.96934 0.25418 0.89037 0.0
H502 H -0.00359 0.27542 0.74161 0.0
H503 H 0.03418 0.33045 0.70951 0.0
C504 C 0.69533 0.69356 0.90174 0.0
C505 C 0.71689 0.74346 0.91865 0.0
C506 C 0.65683 0.75013 0.8541 0.0
C507 C 0.64224 0.70276 0.83142 0.0
N508 N 0.66364 0.63809 0.82149 0.0
N509 N 0.72478 0.82234 0.89801 0.0
C510 C 0.66671 0.67732 0.85125 0.0
C511 C 0.6996 0.7729 0.89136 0.0
N512 N 0.70023 0.66085 0.93457 0.0
N513 N 0.62943 0.7729 0.84216 0.0
H514 H 0.75797 0.84134 0.92155 0.0
H515 H 0.71563 0.8448 0.87462 0.0
H516 H 0.59709 0.75718 0.81662 0.0
H517 H 0.63619 0.80547 0.86228 0.0
H518 H 0.68186 0.62364 0.92468 0.0
H519 H 0.71681 0.66973 0.97482 0.0
H520 H 0.68402 0.62072 0.83329 0.0
H521 H 0.64609 0.62709 0.78168 0.0
C522 C 0.26551 0.89717 0.8237 0.0
C523 C 0.31442 0.93423 0.80805 0.0
C524 C 0.31671 0.98193 0.89366 0.0
C525 C 0.26757 0.94582 0.90727 0.0
N526 N 0.18891 0.88143 0.87077 0.0
N527 N 0.37553 0.01958 0.81821 0.0
C528 C 0.24001 0.90724 0.86785 0.0
C529 C 0.33674 0.97905 0.8401 0.0
N530 N 0.24351 0.85145 0.79962 0.0
N531 N 0.3446 0.01871 0.93187 0.0
H532 H 0.38797 0.02006 0.77699 0.0
H533 H 0.3906 0.05388 0.83796 0.0
H534 H 0.33092 0.02217 0.97122 0.0
H535 H 0.38252 0.04325 0.92621 0.0
H536 H 0.21078 0.82294 0.81537 0.0
H537 H 0.25899 0.83983 0.76794 0.0
H538 H 0.16634 0.85572 0.83985 0.0
H539 H 0.16925 0.89044 0.90034 0.0
C540 C 0.36894 0.11113 0.21509 0.0
C541 C 0.38817 0.0823 0.24025 0.0
C542 C 0.34894 0.02291 0.16244 0.0
C543 C 0.32088 0.04567 0.14448 0.0
N544 N 0.29765 0.10838 0.16559 0.0
N545 N 0.37831 1.00118 0.2456 0.0
C546 C 0.32881 0.089 0.17405 0.0
C547 C 0.37252 0.03518 0.21637 0.0
N548 N 0.38995 0.15979 0.22714 0.0
N549 N 0.3537 0.98988 0.12799 0.0
H550 H 0.39026 0.00663 0.28793 0.0
H551 H 0.36466 0.9656 0.22999 0.0
H552 H 0.34044 0.98283 0.08608 0.0
H553 H 0.37625 0.97458 0.13908 0.0
H554 H 0.37921 0.18211 0.20579 0.0
H555 H 0.42186 0.17904 0.25264 0.0
H556 H 0.30005 0.13734 0.19049 0.0
H557 H 0.26647 0.09301 0.13836 0.0
C558 C 0.93781 0.25635 0.14879 0.0
C559 C 0.98765 0.28211 0.12785 0.0
C560 C 0.0057 0.34658 0.19856 0.0
C561 C 0.95401 0.32627 0.2115 0.0
N562 N 0.86841 0.26456 0.18733 0.0
N563 N 0.06182 0.36139 0.1215 0.0
C564 C 0.91906 0.28178 0.18346 0.0
C565 C 0.01949 0.33017 0.14926 0.0
N566 N 0.90907 0.2076 0.1383 0.0
N567 N 0.04207 0.38066 0.2338 0.0
H568 H 0.07063 0.35325 0.08149 0.0
H569 H 0.08397 0.39762 0.13485 0.0
H570 H 0.03405 0.39043 0.27344 0.0
H571 H 0.08037 0.394 0.22664 0.0
H572 H 0.87411 0.187 0.15669 0.0
H573 H 0.92263 0.18694 0.11721 0.0
H574 H 0.84224 0.2344 0.16357 0.0
H575 H 0.85265 0.28304 0.20899 0.0
C576 C 0.76086 0.71294 0.26186 0.0
C577 C 0.73772 0.66147 0.25552 0.0
C578 C 0.73628 0.67064 0.15317 0.0
C579 C 0.77128 0.72083 0.15924 0.0
N580 N 0.82373 0.78821 0.22385 0.0
N581 N 0.715 0.59265 0.18941 0.0
C582 C 0.78523 0.74199 0.21483 0.0
C583 C 0.72793 0.64029 0.19965 0.0
N584 N 0.75943 0.7342 0.31242 0.0
N585 N 0.71068 0.65185 0.10324 0.0
H586 H 0.71434 0.56931 0.22019 0.0
H587 H 0.71158 0.5781 0.14843 0.0
H588 H 0.71294 0.6741 0.07014 0.0
H589 H 0.68251 0.61574 0.09822 0.0
H590 H 0.77299 0.77155 0.31758 0.0
H591 H 0.7391 0.71397 0.34665 0.0
H592 H 0.83735 0.80274 0.26436 0.0
H593 H 0.84588 0.81002 0.19175 0.0
C594 C 0.07063 0.47374 0.51621 0.0
C595 C 0.06566 0.43151 0.54237 0.0
C596 C 0.01105 0.38287 0.46246 0.0
C597 C 0.01006 0.42471 0.44236 0.0
N598 N 0.02238 0.50443 0.4688 0.0
N599 N 0.02021 0.3437 0.54532 0.0
C600 C 0.03505 0.4687 0.47449 0.0
C601 C 0.0326 0.38522 0.51697 0.0
N602 N 0.11083 0.51839 0.52754 0.0
N603 N 0.99272 0.34142 0.42935 0.0
H604 H 0.03242 0.34405 0.58676 0.0
H605 H 0.99318 0.30944 0.53014 0.0
H606 H 0.97855 0.33896 0.38836 0.0
H607 H -0.00344 0.31144 0.44043 0.0
H608 H 0.11633 0.54891 0.50545 0.0
H609 H 0.14149 0.5236 0.55257 0.0
H610 H 0.03837 0.53608 0.49432 0.0
H611 H 0.99148 0.49904 0.44415 0.0
C612 C 0.6524 0.64275 0.51936 0.0
C613 C 0.65216 0.59855 0.5061 0.0
C614 C 0.60622 0.56344 0.59313 0.0
C615 C 0.60643 0.60826 0.60679 0.0
N616 N 0.6496 0.69513 0.59412 0.0
N617 N 0.64262 0.52233 0.53838 0.0
C618 C 0.63533 0.64931 0.57308 0.0
C619 C 0.63279 0.56037 0.54508 0.0
N620 N 0.6683 0.67836 0.48037 0.0
N621 N 0.58087 0.52324 0.6249 0.0
H622 H 0.66261 0.51866 0.50454 0.0
H623 H 0.63524 0.49665 0.56913 0.0
H624 H 0.57011 0.52371 0.66635 0.0
H625 H 0.57057 0.48824 0.60949 0.0
H626 H 0.66444 0.70942 0.4857 0.0
H627 H 0.68107 0.67472 0.44052 0.0
H628 H 0.67405 0.72648 0.57325 0.0
H629 H 0.64272 0.70194 0.63571 0.0
C630 C 0.39607 0.00362 0.55119 0.0
C631 C 0.43039 0.98944 0.57419 0.0
C632 C 0.4943 0.04375 0.51027 0.0
C633 C 0.45908 0.05245 0.48057 0.0
N634 N 0.37313 0.03607 0.47019 0.0
N635 N 0.50405 0.98146 0.55519 0.0
C636 C 0.40879 0.03115 0.50037 0.0
C637 C 0.47721 0.00531 0.54795 0.0
N638 N 0.35209 0.99167 0.57816 0.0
N639 N 0.54448 0.0741 0.50581 0.0
H640 H 0.49002 0.94996 0.5783 0.0
H641 H 0.53711 0.99038 0.53336 0.0
H642 H 0.558 0.10519 0.48209 0.0
H643 H 0.5713 0.07054 0.53008 0.0
H644 H 0.32773 0.00471 0.56652 0.0
H645 H 0.34194 0.97162 0.61495 0.0
H646 H 0.33496 0.01763 0.47943 0.0
H647 H 0.38137 0.05588 0.43328 0.0
loop_
_geom_bond_atom_site_label_1
_geom_bond_atom_site_label_2
_geom_bond_distance
_geom_bond_site_symmetry_2
_ccdc_geom_bond_type
Mn0 O5 2.095 1_455 S
Mn0 O15 2.162 1_454 S
Mn0 O16 2.297 1_455 S
Mn0 O24 2.385 1_554 S
Mn0 O25 2.209 . S
Mn0 O26 2.094 1_554 S
Mn1 O6 2.121 . S
Mn1 N8 2.257 . S
Mn1 N17 2.282 . S
Mn1 O25 2.215 . S
Mn1 O27 2.117 1_554 S
C2 O24 1.234 1_554 S
C2 O25 1.283 . S
C3 O15 1.281 1_554 S
C3 O16 1.236 . S
C4 O26 1.240 . S
C4 O27 1.264 . S
O5 Mn0 2.095 1_655 S
O5 C14 1.248 1_655 S
O6 Mn1 2.121 . S
O6 C14 1.272 . S
C7 N8 1.326 . S
C7 C11 1.460 . S
C7 H13 0.929 . S
N8 Mn1 2.257 . S
N8 C7 1.326 . S
N8 C12 1.362 . S
C9 C10 1.258 . S
C9 C12 1.431 . S
C9 C29 1.449 . S
C10 C9 1.258 . S
C10 C11 1.477 . S
C10 H30 0.931 . S
C11 C7 1.460 . S
C11 C10 1.477 . S
C11 H31 0.930 . S
C12 N8 1.362 . S
C12 C9 1.431 . S
C12 C22 1.476 . S
H13 C7 0.929 . S
C14 O5 1.248 1_455 S
C14 O6 1.272 . S
O15 Mn0 2.162 1_656 S
O15 C3 1.281 1_556 S
O16 Mn0 2.297 1_655 S
O16 C3 1.236 . S
N17 Mn1 2.282 . S
N17 C18 1.328 1_554 S
N17 C22 1.318 . S
C18 N17 1.328 1_556 S
C18 C19 1.457 . S
C18 H23 0.929 . S
C19 C18 1.457 . S
C19 C20 1.291 . S
C19 H32 0.931 . S
C20 C19 1.291 . S
C20 C21 1.373 1_556 S
C20 H33 0.929 . S
C21 C20 1.373 1_554 S
C21 C22 1.396 . S
C21 C28 1.403 . S
C22 C12 1.476 . S
C22 N17 1.318 . S
C22 C21 1.396 . S
H23 C18 0.929 . S
O24 Mn0 2.385 1_556 S
O24 C2 1.234 1_556 S
O25 Mn0 2.209 . S
O25 Mn1 2.215 . S
O25 C2 1.283 . S
O26 Mn0 2.094 1_556 S
O26 C4 1.240 . S
O27 Mn1 2.117 1_556 S
O27 C4 1.264 . S
C28 C21 1.403 . S
C28 C29 1.399 . S
C28 H34 0.929 . S
C29 C9 1.449 . S
C29 C28 1.399 . S
C29 H35 0.930 . S
H30 C10 0.931 . S
H31 C11 0.930 . S
H32 C19 0.931 . S
H33 C20 0.929 . S
H34 C28 0.929 . S
H35 C29 0.930 . S
Mn36 O41 2.095 1_554 S
Mn36 O51 2.162 . S
Mn36 O52 2.297 1_554 S
Mn36 O60 2.385 . S
Mn36 O61 2.209 1_554 S
Mn36 O62 2.094 . S
Mn37 O42 2.121 . S
Mn37 N44 2.257 . S
Mn37 N53 2.282 1_556 S
Mn37 O61 2.215 . S
Mn37 O63 2.117 1_556 S
C38 O60 1.234 . S
C38 O61 1.283 1_554 S
C39 O51 1.281 . S
C39 O52 1.236 1_554 S
C40 O62 1.240 . S
C40 O63 1.264 . S
O41 Mn36 2.095 1_556 S
O41 C50 1.250 . S
O42 Mn37 2.121 . S
O42 C50 1.258 . S
C43 N44 1.326 . S
C43 C47 1.460 . S
C43 H49 0.929 . S
N44 Mn37 2.257 . S
N44 C43 1.326 . S
N44 C48 1.362 . S
C45 C46 1.258 . S
C45 C48 1.431 . S
C45 C65 1.449 . S
C46 C45 1.258 . S
C46 C47 1.477 . S
C46 H66 0.931 . S
C47 C43 1.460 . S
C47 C46 1.477 . S
C47 H67 0.930 . S
C48 N44 1.362 . S
C48 C45 1.431 . S
C48 C58 1.476 . S
H49 C43 0.929 . S
C50 O41 1.250 . S
C50 O42 1.258 . S
O51 Mn36 2.162 . S
O51 C39 1.281 . S
O52 Mn36 2.297 1_556 S
O52 C39 1.236 1_556 S
N53 Mn37 2.282 1_554 S
N53 C54 1.328 . S
N53 C58 1.318 1_554 S
C54 N53 1.328 . S
C54 C55 1.457 . S
C54 H59 0.929 . S
C55 C54 1.457 . S
C55 C56 1.291 . S
C55 H68 0.931 . S
C56 C55 1.291 . S
C56 C57 1.373 1_554 S
C56 H69 0.929 1_655 S
C57 C56 1.373 1_556 S
C57 C58 1.396 . S
C57 C64 1.403 1_655 S
C58 C48 1.476 . S
C58 N53 1.318 1_556 S
C58 C57 1.396 . S
H59 C54 0.929 . S
O60 Mn36 2.385 . S
O60 C38 1.234 . S
O61 Mn36 2.209 1_556 S
O61 Mn37 2.215 . S
O61 C38 1.283 1_556 S
O62 Mn36 2.094 . S
O62 C40 1.240 . S
O63 Mn37 2.117 1_554 S
O63 C40 1.264 . S
C64 C57 1.403 1_455 S
C64 C65 1.399 1_455 S
C64 H70 0.929 . S
C65 C45 1.449 . S
C65 C64 1.399 1_655 S
C65 H71 0.930 1_655 S
H66 C46 0.931 . S
H67 C47 0.930 . S
H68 C55 0.931 . S
H69 C56 0.929 1_455 S
H70 C64 0.929 . S
H71 C65 0.930 1_455 S
Mn72 O77 2.095 . S
Mn72 O87 2.162 1_554 S
Mn72 O88 2.297 . S
Mn72 O96 2.385 1_544 S
Mn72 O97 2.209 1_545 S
Mn72 O98 2.094 1_554 S
Mn73 O78 2.121 . S
Mn73 N80 2.257 . S
Mn73 N89 2.282 . S
Mn73 O97 2.215 . S
Mn73 O99 2.117 1_554 S
C74 O96 1.234 1_554 S
C74 O97 1.283 . S
C75 O87 1.281 1_554 S
C75 O88 1.236 . S
C76 O98 1.240 1_565 S
C76 O99 1.264 . S
O77 Mn72 2.095 . S
O77 C86 1.250 . S
O78 Mn73 2.121 . S
O78 C86 1.258 1_565 S
C79 N80 1.326 . S
C79 C83 1.460 . S
C79 H85 0.929 . S
N80 Mn73 2.257 . S
N80 C79 1.326 . S
N80 C84 1.362 . S
C81 C82 1.258 . S
C81 C84 1.431 . S
C81 C101 1.449 . S
C82 C81 1.258 . S
C82 C83 1.477 . S
C82 H102 0.931 . S
C83 C79 1.460 . S
C83 C82 1.477 . S
C83 H103 0.930 . S
C84 N80 1.362 . S
C84 C81 1.431 . S
C84 C94 1.476 . S
H85 C79 0.929 . S
C86 O77 1.250 . S
C86 O78 1.258 1_545 S
O87 Mn72 2.162 1_556 S
O87 C75 1.281 1_556 S
O88 Mn72 2.297 . S
O88 C75 1.236 . S
N89 Mn73 2.282 . S
N89 C90 1.328 1_554 S
N89 C94 1.318 . S
C90 N89 1.328 1_556 S
C90 C91 1.457 . S
C90 H95 0.929 . S
C91 C90 1.457 . S
C91 C92 1.291 . S
C91 H104 0.931 . S
C92 C91 1.291 . S
C92 C93 1.373 1_556 S
C92 H105 0.929 . S
C93 C92 1.373 1_554 S
C93 C94 1.396 . S
C93 C100 1.403 . S
C94 C84 1.476 . S
C94 N89 1.318 . S
C94 C93 1.396 . S
H95 C90 0.929 . S
O96 Mn72 2.385 1_566 S
O96 C74 1.234 1_556 S
O97 Mn72 2.209 1_565 S
O97 Mn73 2.215 . S
O97 C74 1.283 . S
O98 Mn72 2.094 1_556 S
O98 C76 1.240 1_545 S
O99 Mn73 2.117 1_556 S
O99 C76 1.264 . S
C100 C93 1.403 . S
C100 C101 1.399 . S
C100 H106 0.929 . S
C101 C81 1.449 . S
C101 C100 1.399 . S
C101 H107 0.930 . S
H102 C82 0.931 . S
H103 C83 0.930 . S
H104 C91 0.931 . S
H105 C92 0.929 . S
H106 C100 0.929 . S
H107 C101 0.930 . S
Mn108 O113 2.095 . S
Mn108 O123 2.162 . S
Mn108 O124 2.297 . S
Mn108 O132 2.385 . S
Mn108 O133 2.209 . S
Mn108 O134 2.094 . S
Mn109 O114 2.121 . S
Mn109 N116 2.257 . S
Mn109 N125 2.282 . S
Mn109 O133 2.215 . S
Mn109 O135 2.117 . S
C110 O132 1.234 . S
C110 O133 1.283 . S
C111 O123 1.281 . S
C111 O124 1.236 . S
C112 O134 1.240 . S
C112 O135 1.264 . S
O113 Mn108 2.095 . S
O113 C122 1.250 . S
O114 Mn109 2.121 . S
O114 C122 1.258 . S
C115 N116 1.326 . S
C115 C119 1.460 . S
C115 H121 0.929 . S
N116 Mn109 2.257 . S
N116 C115 1.326 . S
N116 C120 1.362 . S
C117 C118 1.258 . S
C117 C120 1.431 . S
C117 C137 1.449 . S
C118 C117 1.258 . S
C118 C119 1.477 . S
C118 H138 0.931 . S
C119 C115 1.460 . S
C119 C118 1.477 . S
C119 H139 0.930 . S
C120 N116 1.362 . S
C120 C117 1.431 . S
C120 C130 1.476 . S
H121 C115 0.929 . S
C122 O113 1.250 . S
C122 O114 1.258 . S
O123 Mn108 2.162 . S
O123 C111 1.281 . S
O124 Mn108 2.297 . S
O124 C111 1.236 . S
N125 Mn109 2.282 . S
N125 C126 1.328 . S
N125 C130 1.318 . S
C126 N125 1.328 . S
C126 C127 1.457 . S
C126 H131 0.929 . S
C127 C126 1.457 . S
C127 C128 1.291 . S
C127 H140 0.931 . S
C128 C127 1.291 . S
C128 C129 1.373 . S
C128 H141 0.929 . S
C129 C128 1.373 . S
C129 C130 1.396 . S
C129 C136 1.403 . S
C130 C120 1.476 . S
C130 N125 1.318 . S
C130 C129 1.396 . S
H131 C126 0.929 . S
O132 Mn108 2.385 . S
O132 C110 1.234 . S
O133 Mn108 2.209 . S
O133 Mn109 2.215 . S
O133 C110 1.283 . S
O134 Mn108 2.094 . S
O134 C112 1.240 . S
O135 Mn109 2.117 . S
O135 C112 1.264 . S
C136 C129 1.403 . S
C136 C137 1.399 . S
C136 H142 0.929 1_655 S
C137 C117 1.449 . S
C137 C136 1.399 . S
C137 H143 0.930 . S
H138 C118 0.931 . S
H139 C119 0.930 . S
H140 C127 0.931 . S
H141 C128 0.929 . S
H142 C136 0.929 1_455 S
H143 C137 0.930 . S
Mn144 O149 2.095 . S
Mn144 O159 2.162 . S
Mn144 O160 2.297 . S
Mn144 O168 2.385 . S
Mn144 O169 2.209 . S
Mn144 O170 2.094 . S
Mn145 O150 2.121 . S
Mn145 N152 2.257 . S
Mn145 N161 2.282 . S
Mn145 O169 2.215 . S
Mn145 O171 2.117 . S
C146 O168 1.234 . S
C146 O169 1.283 . S
C147 O159 1.281 . S
C147 O160 1.236 . S
C148 O170 1.240 . S
C148 O171 1.264 . S
O149 Mn144 2.095 . S
O149 C158 1.250 . S
O150 Mn145 2.121 . S
O150 C158 1.258 . S
C151 N152 1.326 . S
C151 C155 1.460 . S
C151 H157 0.929 . S
N152 Mn145 2.257 . S
N152 C151 1.326 . S
N152 C156 1.362 . S
C153 C154 1.258 . S
C153 C156 1.431 . S
C153 C173 1.449 . S
C154 C153 1.258 . S
C154 C155 1.477 . S
C154 H174 0.931 . S
C155 C151 1.460 . S
C155 C154 1.477 . S
C155 H175 0.930 . S
C156 N152 1.362 . S
C156 C153 1.431 . S
C156 C166 1.476 . S
H157 C151 0.929 . S
C158 O149 1.250 . S
C158 O150 1.258 . S
O159 Mn144 2.162 . S
O159 C147 1.281 . S
O160 Mn144 2.297 . S
O160 C147 1.236 . S
N161 Mn145 2.282 . S
N161 C162 1.328 . S
N161 C166 1.318 . S
C162 N161 1.328 . S
C162 C163 1.457 . S
C162 H167 0.929 . S
C163 C162 1.457 . S
C163 C164 1.291 . S
C163 H176 0.931 . S
C164 C163 1.291 . S
C164 C165 1.373 . S
C164 H177 0.929 . S
C165 C164 1.373 . S
C165 C166 1.396 . S
C165 C172 1.403 . S
C166 C156 1.476 . S
C166 N161 1.318 . S
C166 C165 1.396 . S
H167 C162 0.929 . S
O168 Mn144 2.385 . S
O168 C146 1.234 . S
O169 Mn144 2.209 . S
O169 Mn145 2.215 . S
O169 C146 1.283 . S
O170 Mn144 2.094 . S
O170 C148 1.240 . S
O171 Mn145 2.117 . S
O171 C148 1.264 . S
C172 C165 1.403 . S
C172 C173 1.399 . S
C172 H178 0.929 . S
C173 C153 1.449 . S
C173 C172 1.399 . S
C173 H179 0.930 . S
H174 C154 0.931 . S
H175 C155 0.930 . S
H176 C163 0.931 . S
H177 C164 0.929 . S
H178 C172 0.929 . S
H179 C173 0.930 . S
Mn180 O185 2.095 . S
Mn180 O195 2.162 . S
Mn180 O196 2.297 . S
Mn180 O204 2.385 . S
Mn180 O205 2.209 . S
Mn180 O206 2.094 . S
Mn181 O186 2.121 . S
Mn181 N188 2.257 . S
Mn181 N197 2.282 . S
Mn181 O205 2.215 . S
Mn181 O207 2.117 . S
C182 O204 1.234 . S
C182 O205 1.283 . S
C183 O195 1.281 . S
C183 O196 1.236 . S
C184 O206 1.240 . S
C184 O207 1.264 . S
O185 Mn180 2.095 . S
O185 C194 1.250 . S
O186 Mn181 2.121 . S
O186 C194 1.258 . S
C187 N188 1.326 . S
C187 C191 1.460 . S
C187 H193 0.929 . S
N188 Mn181 2.257 . S
N188 C187 1.326 . S
N188 C192 1.362 . S
C189 C190 1.258 . S
C189 C192 1.431 . S
C189 C209 1.449 . S
C190 C189 1.258 . S
C190 C191 1.477 . S
C190 H210 0.931 . S
C191 C187 1.460 . S
C191 C190 1.477 . S
C191 H211 0.930 . S
C192 N188 1.362 . S
C192 C189 1.431 . S
C192 C202 1.476 . S
H193 C187 0.929 . S
C194 O185 1.250 . S
C194 O186 1.258 . S
O195 Mn180 2.162 . S
O195 C183 1.281 . S
O196 Mn180 2.297 . S
O196 C183 1.236 . S
N197 Mn181 2.282 . S
N197 C198 1.328 . S
N197 C202 1.318 . S
C198 N197 1.328 . S
C198 C199 1.457 . S
C198 H203 0.929 . S
C199 C198 1.457 . S
C199 C200 1.291 . S
C199 H212 0.931 . S
C200 C199 1.291 . S
C200 C201 1.373 . S
C200 H213 0.929 . S
C201 C200 1.373 . S
C201 C202 1.396 . S
C201 C208 1.403 . S
C202 C192 1.476 . S
C202 N197 1.318 . S
C202 C201 1.396 . S
H203 C198 0.929 . S
O204 Mn180 2.385 . S
O204 C182 1.234 . S
O205 Mn180 2.209 . S
O205 Mn181 2.215 . S
O205 C182 1.283 . S
O206 Mn180 2.094 . S
O206 C184 1.240 . S
O207 Mn181 2.117 . S
O207 C184 1.264 . S
C208 C201 1.403 . S
C208 C209 1.399 . S
C208 H214 0.929 . S
C209 C189 1.449 . S
C209 C208 1.399 . S
C209 H215 0.930 . S
H210 C190 0.931 . S
H211 C191 0.930 . S
H212 C199 0.931 . S
H213 C200 0.929 . S
H214 C208 0.929 . S
H215 C209 0.930 . S
Mn216 O221 2.095 . S
Mn216 O231 2.162 . S
Mn216 O232 2.297 . S
Mn216 O240 2.385 . S
Mn216 O241 2.209 . S
Mn216 O242 2.094 . S
Mn217 O222 2.121 . S
Mn217 N224 2.257 . S
Mn217 N233 2.282 . S
Mn217 O241 2.215 . S
Mn217 O243 2.117 . S
C218 O240 1.234 . S
C218 O241 1.283 . S
C219 O231 1.281 . S
C219 O232 1.236 . S
C220 O242 1.240 . S
C220 O243 1.264 . S
O221 Mn216 2.095 . S
O221 C230 1.250 . S
O222 Mn217 2.121 . S
O222 C230 1.258 . S
C223 N224 1.326 . S
C223 C227 1.460 . S
C223 H229 0.929 . S
N224 Mn217 2.257 . S
N224 C223 1.326 . S
N224 C228 1.362 . S
C225 C226 1.258 . S
C225 C228 1.431 . S
C225 C245 1.449 . S
C226 C225 1.258 . S
C226 C227 1.477 . S
C226 H246 0.931 . S
C227 C223 1.460 . S
C227 C226 1.477 . S
C227 H247 0.930 . S
C228 N224 1.362 . S
C228 C225 1.431 . S
C228 C238 1.476 . S
H229 C223 0.929 . S
C230 O221 1.250 . S
C230 O222 1.258 . S
O231 Mn216 2.162 . S
O231 C219 1.281 . S
O232 Mn216 2.297 . S
O232 C219 1.236 . S
N233 Mn217 2.282 . S
N233 C234 1.328 . S
N233 C238 1.318 . S
C234 N233 1.328 . S
C234 C235 1.457 . S
C234 H239 0.929 . S
C235 C234 1.457 . S
C235 C236 1.291 . S
C235 H248 0.931 . S
C236 C235 1.291 . S
C236 C237 1.373 . S
C236 H249 0.929 . S
C237 C236 1.373 . S
C237 C238 1.396 . S
C237 C244 1.403 . S
C238 C228 1.476 . S
C238 N233 1.318 . S
C238 C237 1.396 . S
H239 C234 0.929 . S
O240 Mn216 2.385 . S
O240 C218 1.234 . S
O241 Mn216 2.209 . S
O241 Mn217 2.215 . S
O241 C218 1.283 . S
O242 Mn216 2.094 . S
O242 C220 1.240 . S
O243 Mn217 2.117 . S
O243 C220 1.264 . S
C244 C237 1.403 . S
C244 C245 1.399 . S
C244 H250 0.929 . S
C245 C225 1.449 . S
C245 C244 1.399 . S
C245 H251 0.930 . S
H246 C226 0.931 . S
H247 C227 0.930 . S
H248 C235 0.931 . S
H249 C236 0.929 . S
H250 C244 0.929 . S
H251 C245 0.930 . S
Mn252 O257 2.095 . S
Mn252 O267 2.162 . S
Mn252 O268 2.297 . S
Mn252 O276 2.385 . S
Mn252 O277 2.209 . S
Mn252 O278 2.094 . S
Mn253 O258 2.121 . S
Mn253 N260 2.257 . S
Mn253 N269 2.282 . S
Mn253 O277 2.215 . S
Mn253 O279 2.117 . S
C254 O276 1.234 . S
C254 O277 1.283 . S
C255 O267 1.281 . S
C255 O268 1.236 . S
C256 O278 1.240 . S
C256 O279 1.264 . S
O257 Mn252 2.095 . S
O257 C266 1.250 . S
O258 Mn253 2.121 . S
O258 C266 1.258 . S
C259 N260 1.326 . S
C259 C263 1.460 . S
C259 H265 0.929 . S
N260 Mn253 2.257 . S
N260 C259 1.326 . S
N260 C264 1.362 . S
C261 C262 1.258 . S
C261 C264 1.431 . S
C261 C281 1.449 . S
C262 C261 1.258 . S
C262 C263 1.477 . S
C262 H282 0.931 . S
C263 C259 1.460 . S
C263 C262 1.477 . S
C263 H283 0.930 . S
C264 N260 1.362 . S
C264 C261 1.431 . S
C264 C274 1.476 . S
H265 C259 0.929 . S
C266 O257 1.250 . S
C266 O258 1.258 . S
O267 Mn252 2.162 . S
O267 C255 1.281 . S
O268 Mn252 2.297 . S
O268 C255 1.236 . S
N269 Mn253 2.282 . S
N269 C270 1.328 . S
N269 C274 1.318 . S
C270 N269 1.328 . S
C270 C271 1.457 . S
C270 H275 0.929 . S
C271 C270 1.457 . S
C271 C272 1.291 . S
C271 H284 0.931 . S
C272 C271 1.291 . S
C272 C273 1.373 . S
C272 H285 0.929 . S
C273 C272 1.373 . S
C273 C274 1.396 . S
C273 C280 1.403 . S
C274 C264 1.476 . S
C274 N269 1.318 . S
C274 C273 1.396 . S
H275 C270 0.929 . S
O276 Mn252 2.385 . S
O276 C254 1.234 . S
O277 Mn252 2.209 . S
O277 Mn253 2.215 . S
O277 C254 1.283 . S
O278 Mn252 2.094 . S
O278 C256 1.240 . S
O279 Mn253 2.117 . S
O279 C256 1.264 . S
C280 C273 1.403 . S
C280 C281 1.399 . S
C280 H286 0.929 . S
C281 C261 1.449 . S
C281 C280 1.399 . S
C281 H287 0.930 . S
H282 C262 0.931 . S
H283 C263 0.930 . S
H284 C271 0.931 . S
H285 C272 0.929 . S
H286 C280 0.929 . S
H287 C281 0.930 . S
Mn288 O293 2.095 . S
Mn288 O303 2.162 . S
Mn288 O304 2.297 . S
Mn288 O312 2.385 . S
Mn288 O313 2.209 . S
Mn288 O314 2.094 . S
Mn289 O294 2.121 . S
Mn289 N296 2.257 . S
Mn289 N305 2.282 . S
Mn289 O313 2.215 . S
Mn289 O315 2.117 . S
C290 O312 1.234 . S
C290 O313 1.283 . S
C291 O303 1.281 . S
C291 O304 1.236 . S
C292 O314 1.240 . S
C292 O315 1.264 . S
O293 Mn288 2.095 . S
O293 C302 1.250 . S
O294 Mn289 2.121 . S
O294 C302 1.258 . S
C295 N296 1.326 . S
C295 C299 1.460 . S
C295 H301 0.929 . S
N296 Mn289 2.257 . S
N296 C295 1.326 . S
N296 C300 1.362 . S
C297 C298 1.258 . S
C297 C300 1.431 . S
C297 C317 1.449 . S
C298 C297 1.258 . S
C298 C299 1.477 . S
C298 H318 0.931 . S
C299 C295 1.460 . S
C299 C298 1.477 . S
C299 H319 0.930 . S
C300 N296 1.362 . S
C300 C297 1.431 . S
C300 C310 1.476 . S
H301 C295 0.929 . S
C302 O293 1.250 . S
C302 O294 1.258 . S
O303 Mn288 2.162 . S
O303 C291 1.281 . S
O304 Mn288 2.297 . S
O304 C291 1.236 . S
N305 Mn289 2.282 . S
N305 C306 1.328 . S
N305 C310 1.318 . S
C306 N305 1.328 . S
C306 C307 1.457 . S
C306 H311 0.929 . S
C307 C306 1.457 . S
C307 C308 1.291 . S
C307 H320 0.931 . S
C308 C307 1.291 . S
C308 C309 1.373 . S
C308 H321 0.929 . S
C309 C308 1.373 . S
C309 C310 1.396 . S
C309 C316 1.403 . S
C310 C300 1.476 . S
C310 N305 1.318 . S
C310 C309 1.396 . S
H311 C306 0.929 . S
O312 Mn288 2.385 . S
O312 C290 1.234 . S
O313 Mn288 2.209 . S
O313 Mn289 2.215 . S
O313 C290 1.283 . S
O314 Mn288 2.094 . S
O314 C292 1.240 . S
O315 Mn289 2.117 . S
O315 C292 1.264 . S
C316 C309 1.403 . S
C316 C317 1.399 . S
C316 H322 0.929 . S
C317 C297 1.449 . S
C317 C316 1.399 . S
C317 H323 0.930 . S
H318 C298 0.931 . S
H319 C299 0.930 . S
H320 C307 0.931 . S
H321 C308 0.929 . S
H322 C316 0.929 . S
H323 C317 0.930 . S
C324 C325 1.363 1_556 S
C324 C330 1.379 1_556 S
C324 N332 1.356 . S
C325 C324 1.363 1_554 S
C325 C331 1.363 . S
C326 C327 1.363 . S
C326 C331 1.379 . S
C326 N333 1.356 . S
C327 C326 1.363 . S
C327 C330 1.363 . S
N328 C330 1.356 1_556 S
N328 H340 0.984 . S
N328 H341 0.986 . S
N329 C331 1.356 . S
N329 H334 0.984 . S
N329 H335 0.985 . S
C330 C324 1.379 1_554 S
C330 C327 1.363 . S
C330 N328 1.356 1_554 S
C331 C325 1.363 . S
C331 C326 1.379 . S
C331 N329 1.356 . S
N332 C324 1.356 . S
N332 H338 0.984 . S
N332 H339 0.984 . S
N333 C326 1.356 . S
N333 H336 0.984 . S
N333 H337 0.985 . S
H334 N329 0.984 . S
H335 N329 0.985 . S
H336 N333 0.984 . S
H337 N333 0.985 . S
H338 N332 0.984 . S
H339 N332 0.984 . S
H340 N328 0.984 . S
H341 N328 0.986 . S
C342 C343 1.363 . S
C342 C348 1.379 1_565 S
C342 N350 1.356 . S
C343 C342 1.363 . S
C343 C349 1.363 1_554 S
C344 C345 1.363 1_556 S
C344 C349 1.379 1_545 S
C344 N351 1.356 . S
C345 C344 1.363 1_554 S
C345 C348 1.363 . S
N346 C348 1.356 . S
N346 H358 0.984 . S
N346 H359 0.985 . S
N347 C349 1.356 . S
N347 H352 0.984 . S
N347 H353 0.985 . S
C348 C342 1.379 1_545 S
C348 C345 1.363 . S
C348 N346 1.356 . S
C349 C343 1.363 1_556 S
C349 C344 1.379 1_565 S
C349 N347 1.356 . S
N350 C342 1.356 . S
N350 H356 0.984 . S
N350 H357 0.984 . S
N351 C344 1.356 . S
N351 H354 0.984 . S
N351 H355 0.985 . S
H352 N347 0.984 . S
H353 N347 0.985 . S
H354 N351 0.984 . S
H355 N351 0.985 . S
H356 N350 0.984 . S
H357 N350 0.984 . S
H358 N346 0.984 . S
H359 N346 0.985 . S
C360 C361 1.351 1_456 S
C360 C366 1.390 . S
C360 N368 1.353 1_455 S
C361 C360 1.351 1_654 S
C361 C367 1.363 . S
C362 C363 1.363 . S
C362 C367 1.379 1_455 S
C362 N369 1.356 . S
C363 C362 1.363 . S
C363 C366 1.363 1_554 S
N364 C366 1.356 . S
N364 H376 0.984 . S
N364 H377 0.985 . S
N365 C367 1.356 . S
N365 H370 0.984 . S
N365 H371 0.985 . S
C366 C360 1.390 . S
C366 C363 1.363 1_556 S
C366 N364 1.356 . S
C367 C361 1.363 . S
C367 C362 1.379 1_655 S
C367 N365 1.356 . S
N368 C360 1.353 1_655 S
N368 H374 0.984 . S
N368 H375 0.984 . S
N369 C362 1.356 . S
N369 H372 0.984 . S
N369 H373 0.985 . S
H370 N365 0.984 . S
H371 N365 0.985 . S
H372 N369 0.984 . S
H373 N369 0.985 . S
H374 N368 0.984 . S
H375 N368 0.984 . S
H376 N364 0.984 . S
H377 N364 0.985 . S
C378 C379 1.363 . S
C378 C384 1.379 . S
C378 N386 1.356 . S
C379 C378 1.363 . S
C379 C385 1.363 . S
C380 C381 1.363 . S
C380 C385 1.379 . S
C380 N387 1.356 . S
C381 C380 1.363 . S
C381 C384 1.363 . S
N382 C384 1.356 . S
N382 H394 0.984 . S
N382 H395 0.985 . S
N383 C385 1.356 . S
N383 H388 0.984 . S
N383 H389 0.985 . S
C384 C378 1.379 . S
C384 C381 1.363 . S
C384 N382 1.356 . S
C385 C379 1.363 . S
C385 C380 1.379 . S
C385 N383 1.356 . S
N386 C378 1.356 . S
N386 H392 0.984 . S
N386 H393 0.984 . S
N387 C380 1.356 . S
N387 H390 0.984 . S
N387 H391 0.985 . S
H388 N383 0.984 . S
H389 N383 0.985 . S
H390 N387 0.984 . S
H391 N387 0.985 . S
H392 N386 0.984 . S
H393 N386 0.984 . S
H394 N382 0.984 . S
H395 N382 0.985 . S
C396 C397 1.363 . S
C396 C402 1.379 . S
C396 N404 1.356 . S
C397 C396 1.363 . S
C397 C403 1.363 . S
C398 C399 1.363 . S
C398 C403 1.379 . S
C398 N405 1.356 . S
C399 C398 1.363 . S
C399 C402 1.363 . S
N400 C402 1.356 . S
N400 H412 0.984 . S
N400 H413 0.985 . S
N401 C403 1.356 . S
N401 H406 0.984 . S
N401 H407 0.985 . S
C402 C396 1.379 . S
C402 C399 1.363 . S
C402 N400 1.356 . S
C403 C397 1.363 . S
C403 C398 1.379 . S
C403 N401 1.356 . S
N404 C396 1.356 . S
N404 H410 0.984 . S
N404 H411 0.984 . S
N405 C398 1.356 . S
N405 H408 0.984 . S
N405 H409 0.985 . S
H406 N401 0.984 . S
H407 N401 0.985 . S
H408 N405 0.984 . S
H409 N405 0.985 . S
H410 N404 0.984 . S
H411 N404 0.984 . S
H412 N400 0.984 . S
H413 N400 0.985 . S
C414 C415 1.363 . S
C414 C420 1.379 . S
C414 N422 1.356 . S
C415 C414 1.363 . S
C415 C421 1.363 . S
C416 C417 1.363 . S
C416 C421 1.379 . S
C416 N423 1.356 . S
C417 C416 1.363 . S
C417 C420 1.363 . S
N418 C420 1.356 . S
N418 H430 0.984 . S
N418 H431 0.985 . S
N419 C421 1.356 . S
N419 H424 0.984 . S
N419 H425 0.985 . S
C420 C414 1.379 . S
C420 C417 1.363 . S
C420 N418 1.356 . S
C421 C415 1.363 . S
C421 C416 1.379 . S
C421 N419 1.356 . S
N422 C414 1.356 . S
N422 H428 0.984 . S
N422 H429 0.984 . S
N423 C416 1.356 . S
N423 H426 0.984 . S
N423 H427 0.985 . S
H424 N419 0.984 . S
H425 N419 0.985 . S
H426 N423 0.984 . S
H427 N423 0.985 . S
H428 N422 0.984 . S
H429 N422 0.984 . S
H430 N418 0.984 . S
H431 N418 0.985 . S
C432 C433 1.363 . S
C432 C438 1.379 . S
C432 N440 1.356 . S
C433 C432 1.363 . S
C433 C439 1.363 . S
C434 C435 1.363 . S
C434 C439 1.379 . S
C434 N441 1.356 . S
C435 C434 1.363 . S
C435 C438 1.363 . S
N436 C438 1.356 . S
N436 H448 0.984 . S
N436 H449 0.985 . S
N437 C439 1.356 . S
N437 H442 0.984 . S
N437 H443 0.985 . S
C438 C432 1.379 . S
C438 C435 1.363 . S
C438 N436 1.356 . S
C439 C433 1.363 . S
C439 C434 1.379 . S
C439 N437 1.356 . S
N440 C432 1.356 . S
N440 H446 0.984 . S
N440 H447 0.984 . S
N441 C434 1.356 . S
N441 H444 0.984 . S
N441 H445 0.985 . S
H442 N437 0.984 . S
H443 N437 0.985 . S
H444 N441 0.984 . S
H445 N441 0.985 . S
H446 N440 0.984 . S
H447 N440 0.984 . S
H448 N436 0.984 . S
H449 N436 0.985 . S
C450 C451 1.363 . S
C450 C456 1.379 . S
C450 N458 1.356 . S
C451 C450 1.363 . S
C451 C457 1.363 . S
C452 C453 1.363 . S
C452 C457 1.379 . S
C452 N459 1.356 . S
C453 C452 1.363 . S
C453 C456 1.363 . S
N454 C456 1.356 . S
N454 H466 0.984 . S
N454 H467 0.985 . S
N455 C457 1.356 . S
N455 H460 0.984 . S
N455 H461 0.985 . S
C456 C450 1.379 . S
C456 C453 1.363 . S
C456 N454 1.356 . S
C457 C451 1.363 . S
C457 C452 1.379 . S
C457 N455 1.356 . S
N458 C450 1.356 . S
N458 H464 0.984 . S
N458 H465 0.984 . S
N459 C452 1.356 . S
N459 H462 0.984 . S
N459 H463 0.985 . S
H460 N455 0.984 . S
H461 N455 0.985 . S
H462 N459 0.984 . S
H463 N459 0.985 . S
H464 N458 0.984 . S
H465 N458 0.984 . S
H466 N454 0.984 . S
H467 N454 0.985 . S
C468 C469 1.363 . S
C468 C474 1.379 . S
C468 N476 1.356 . S
C469 C468 1.363 . S
C469 C475 1.363 . S
C470 C471 1.363 . S
C470 C475 1.379 . S
C470 N477 1.356 . S
C471 C470 1.363 . S
C471 C474 1.363 . S
N472 C474 1.356 . S
N472 H484 0.984 . S
N472 H485 0.985 . S
N473 C475 1.356 . S
N473 H478 0.984 . S
N473 H479 0.985 . S
C474 C468 1.379 . S
C474 C471 1.363 . S
C474 N472 1.356 . S
C475 C469 1.363 . S
C475 C470 1.379 . S
C475 N473 1.356 . S
N476 C468 1.356 . S
N476 H482 0.984 . S
N476 H483 0.984 . S
N477 C470 1.356 . S
N477 H480 0.984 . S
N477 H481 0.985 . S
H478 N473 0.984 . S
H479 N473 0.985 . S
H480 N477 0.984 . S
H481 N477 0.985 . S
H482 N476 0.984 . S
H483 N476 0.984 . S
H484 N472 0.984 . S
H485 N472 0.985 . S
C486 C487 1.363 . S
C486 C492 1.379 . S
C486 N494 1.365 . S
C487 C486 1.363 . S
C487 C493 1.363 . S
C488 C489 1.363 . S
C488 C493 1.379 . S
C488 N495 1.356 . S
C489 C488 1.363 . S
C489 C492 1.363 . S
N490 C492 1.356 . S
N490 H502 0.984 . S
N490 H503 0.985 . S
N491 C493 1.356 . S
N491 H496 0.984 . S
N491 H497 0.985 . S
C492 C486 1.379 . S
C492 C489 1.363 . S
C492 N490 1.356 . S
C493 C487 1.363 . S
C493 C488 1.379 . S
C493 N491 1.356 . S
N494 C486 1.365 . S
N494 H500 0.974 1_455 S
N494 H501 0.987 1_455 S
N495 C488 1.356 . S
N495 H498 0.984 . S
N495 H499 0.985 . S
H496 N491 0.984 . S
H497 N491 0.985 . S
H498 N495 0.984 . S
H499 N495 0.985 . S
H500 N494 0.974 1_655 S
H501 N494 0.987 1_655 S
H502 N490 0.984 . S
H503 N490 0.985 . S
C504 C505 1.363 . S
C504 C510 1.379 . S
C504 N512 1.356 . S
C505 C504 1.363 . S
C505 C511 1.363 . S
C506 C507 1.363 . S
C506 C511 1.379 . S
C506 N513 1.356 . S
C507 C506 1.363 . S
C507 C510 1.363 . S
N508 C510 1.356 . S
N508 H520 0.984 . S
N508 H521 0.985 . S
N509 C511 1.356 . S
N509 H514 0.984 . S
N509 H515 0.985 . S
C510 C504 1.379 . S
C510 C507 1.363 . S
C510 N508 1.356 . S
C511 C505 1.363 . S
C511 C506 1.379 . S
C511 N509 1.356 . S
N512 C504 1.356 . S
N512 H518 0.984 . S
N512 H519 0.984 . S
N513 C506 1.356 . S
N513 H516 0.984 . S
N513 H517 0.985 . S
H514 N509 0.984 . S
H515 N509 0.985 . S
H516 N513 0.984 . S
H517 N513 0.985 . S
H518 N512 0.984 . S
H519 N512 0.984 . S
H520 N508 0.984 . S
H521 N508 0.985 . S
C522 C523 1.363 . S
C522 C528 1.379 . S
C522 N530 1.356 . S
C523 C522 1.363 . S
C523 C529 1.363 . S
C524 C525 1.363 . S
C524 C529 1.379 . S
C524 N531 1.356 1_565 S
C525 C524 1.363 . S
C525 C528 1.363 . S
N526 C528 1.356 . S
N526 H538 0.984 . S
N526 H539 0.985 . S
N527 C529 1.356 . S
N527 H532 0.984 . S
N527 H533 0.985 1_565 S
C528 C522 1.379 . S
C528 C525 1.363 . S
C528 N526 1.356 . S
C529 C523 1.363 . S
C529 C524 1.379 . S
C529 N527 1.356 . S
N530 C522 1.356 . S
N530 H536 0.984 . S
N530 H537 0.984 . S
N531 C524 1.356 1_545 S
N531 H534 0.984 . S
N531 H535 0.985 . S
H532 N527 0.984 . S
H533 N527 0.985 1_545 S
H534 N531 0.984 . S
H535 N531 0.985 . S
H536 N530 0.984 . S
H537 N530 0.984 . S
H538 N526 0.984 . S
H539 N526 0.985 . S
C540 C541 1.363 . S
C540 C546 1.379 . S
C540 N548 1.356 . S
C541 C540 1.363 . S
C541 C547 1.363 . S
C542 C543 1.363 . S
C542 C547 1.379 . S
C542 N549 1.356 1_545 S
C543 C542 1.363 . S
C543 C546 1.363 . S
N544 C546 1.356 . S
N544 H556 0.984 . S
N544 H557 0.985 . S
N545 C547 1.356 . S
N545 H550 0.984 . S
N545 H551 0.985 1_545 S
C546 C540 1.379 . S
C546 C543 1.363 . S
C546 N544 1.356 . S
C547 C541 1.363 . S
C547 C542 1.379 . S
C547 N545 1.356 . S
N548 C540 1.356 . S
N548 H554 0.984 . S
N548 H555 0.984 . S
N549 C542 1.356 1_565 S
N549 H552 0.984 . S
N549 H553 0.985 . S
H550 N545 0.984 . S
H551 N545 0.985 1_565 S
H552 N549 0.984 . S
H553 N549 0.985 . S
H554 N548 0.984 . S
H555 N548 0.984 . S
H556 N544 0.984 . S
H557 N544 0.985 . S
C558 C559 1.363 . S
C558 C564 1.379 . S
C558 N566 1.356 . S
C559 C558 1.363 . S
C559 C565 1.363 1_655 S
C560 C561 1.363 . S
C560 C565 1.379 1_655 S
C560 N567 1.356 1_655 S
C561 C560 1.363 . S
C561 C564 1.363 . S
N562 C564 1.356 . S
N562 H574 0.984 . S
N562 H575 0.985 . S
N563 C565 1.356 . S
N563 H568 0.984 . S
N563 H569 0.985 . S
C564 C558 1.379 . S
C564 C561 1.363 . S
C564 N562 1.356 . S
C565 C559 1.363 1_455 S
C565 C560 1.379 1_455 S
C565 N563 1.356 . S
N566 C558 1.356 . S
N566 H572 0.984 . S
N566 H573 0.984 . S
N567 C560 1.356 1_455 S
N567 H570 0.984 1_455 S
N567 H571 0.985 . S
H568 N563 0.984 . S
H569 N563 0.985 . S
H570 N567 0.984 1_655 S
H571 N567 0.985 . S
H572 N566 0.984 . S
H573 N566 0.984 . S
H574 N562 0.984 . S
H575 N562 0.985 . S
C576 C577 1.363 . S
C576 C582 1.379 . S
C576 N584 1.356 . S
C577 C576 1.363 . S
C577 C583 1.363 . S
C578 C579 1.363 . S
C578 C583 1.379 . S
C578 N585 1.356 . S
C579 C578 1.363 . S
C579 C582 1.363 . S
N580 C582 1.356 . S
N580 H592 0.984 . S
N580 H593 0.985 . S
N581 C583 1.356 . S
N581 H586 0.984 . S
N581 H587 0.985 . S
C582 C576 1.379 . S
C582 C579 1.363 . S
C582 N580 1.356 . S
C583 C577 1.363 . S
C583 C578 1.379 . S
C583 N581 1.356 . S
N584 C576 1.356 . S
N584 H590 0.984 . S
N584 H591 0.984 . S
N585 C578 1.356 . S
N585 H588 0.984 . S
N585 H589 0.985 . S
H586 N581 0.984 . S
H587 N581 0.985 . S
H588 N585 0.984 . S
H589 N585 0.985 . S
H590 N584 0.984 . S
H591 N584 0.984 . S
H592 N580 0.984 . S
H593 N580 0.985 . S
C594 C595 1.363 . S
C594 C600 1.379 . S
C594 N602 1.356 . S
C595 C594 1.363 . S
C595 C601 1.363 . S
C596 C597 1.363 1_455 S
C596 C601 1.379 . S
C596 N603 1.356 1_455 S
C597 C596 1.363 1_655 S
C597 C600 1.363 1_655 S
N598 C600 1.356 1_655 S
N598 H610 0.984 1_655 S
N598 H611 0.985 . S
N599 C601 1.356 . S
N599 H604 0.984 . S
N599 H605 0.985 . S
C600 C594 1.379 . S
C600 C597 1.363 1_455 S
C600 N598 1.356 1_455 S
C601 C595 1.363 . S
C601 C596 1.379 . S
C601 N599 1.356 . S
N602 C594 1.356 . S
N602 H608 0.984 . S
N602 H609 0.984 . S
N603 C596 1.356 1_655 S
N603 H606 0.984 . S
N603 H607 0.985 . S
H604 N599 0.984 . S
H605 N599 0.985 . S
H606 N603 0.984 . S
H607 N603 0.985 . S
H608 N602 0.984 . S
H609 N602 0.984 . S
H610 N598 0.984 1_455 S
H611 N598 0.985 . S
C612 C613 1.363 . S
C612 C618 1.379 . S
C612 N620 1.356 . S
C613 C612 1.363 . S
C613 C619 1.363 . S
C614 C615 1.363 . S
C614 C619 1.379 . S
C614 N621 1.356 . S
C615 C614 1.363 . S
C615 C618 1.363 . S
N616 C618 1.356 . S
N616 H628 0.984 . S
N616 H629 0.985 . S
N617 C619 1.356 . S
N617 H622 0.984 . S
N617 H623 0.985 . S
C618 C612 1.379 . S
C618 C615 1.363 . S
C618 N616 1.356 . S
C619 C613 1.363 . S
C619 C614 1.379 . S
C619 N617 1.356 . S
N620 C612 1.356 . S
N620 H626 0.984 . S
N620 H627 0.984 . S
N621 C614 1.356 . S
N621 H624 0.984 . S
N621 H625 0.985 . S
H622 N617 0.984 . S
H623 N617 0.985 . S
H624 N621 0.984 . S
H625 N621 0.985 . S
H626 N620 0.984 . S
H627 N620 0.984 . S
H628 N616 0.984 . S
H629 N616 0.985 . S
C630 C631 1.363 . S
C630 C636 1.379 1_565 S
C630 N638 1.356 . S
C631 C630 1.363 . S
C631 C637 1.363 . S
C632 C633 1.363 . S
C632 C637 1.373 1_545 S
C632 N639 1.356 . S
C633 C632 1.363 . S
C633 C636 1.363 . S
N634 C636 1.356 . S
N634 H646 0.984 . S
N634 H647 0.985 . S
N635 C637 1.363 . S
N635 H640 0.984 . S
N635 H641 0.985 . S
C636 C630 1.379 1_545 S
C636 C633 1.363 . S
C636 N634 1.356 . S
C637 C631 1.363 . S
C637 C632 1.373 1_565 S
C637 N635 1.363 . S
N638 C630 1.356 . S
N638 H644 0.984 . S
N638 H645 0.984 . S
N639 C632 1.356 . S
N639 H642 0.984 . S
N639 H643 0.985 . S
H640 N635 0.984 . S
H641 N635 0.985 . S
H642 N639 0.984 . S
H643 N639 0.985 . S
H644 N638 0.984 . S
H645 N638 0.984 . S
H646 N634 0.984 . S
H647 N634 0.985 . S
C325 C75 1.187 . S
C327 C2 1.138 . S
C343 C39 1.196 . S
C345 C3 1.186 . S
C361 C38 1.206 . S
C363 C74 1.222 . S
C379 C182 1.239 . S
C381 C110 1.222 . S
C397 C147 1.144 . S
C399 C111 1.154 . S
C415 C146 1.145 . S
C417 C183 1.191 . S
C433 C218 1.160 . S
C435 C291 1.208 . S
C451 C219 1.101 . S
C453 C255 1.109 . S
C469 C254 1.226 . S
C471 C290 1.242 . S
C487 C4 1.414 . S
C489 C256 1.422 . S
C505 C50 1.404 . S
C507 C302 1.400 . S
C523 C230 1.370 . S
C525 C76 1.391 . S
C541 C158 1.355 . S
C543 C86 1.352 . S
C559 C14 1.365 1_655 S
C561 C194 1.375 . S
C577 C112 1.428 . S
C579 C40 1.425 . S
C595 C266 1.397 . S
C597 C184 1.418 . S
C613 C122 1.417 . S
C615 C292 1.439 . S
C631 C220 1.405 . S
C633 C148 1.402 . S
