# Generated by pormake.
# Topology wkj, (6)-cn, num edge types: 1
# Building blocks:
#     Node 0, Type 0, BuildingBlock: KUMJIN_clean_sbu_0, # of connection points: 6
#     Node 1, Type 0, BuildingBlock: KUMJIN_clean_sbu_0, # of connection points: 6
#     Node 2, Type 0, BuildingBlock: KUMJIN_clean_sbu_0, # of connection points: 6
#     Node 3, Type 0, BuildingBlock: KUMJIN_clean_sbu_0, # of connection points: 6
#     Node 4, Type 0, BuildingBlock: KUMJIN_clean_sbu_0, # of connection points: 6
#     Node 5, Type 0, BuildingBlock: KUMJIN_clean_sbu_0, # of connection points: 6
#     Node 6, Type 0, BuildingBlock: KUMJIN_clean_sbu_0, # of connection points: 6
#     Node 7, Type 0, BuildingBlock: KUMJIN_clean_sbu_0, # of connection points: 6
#     Node 8, Type 0, BuildingBlock: KUMJIN_clean_sbu_0, # of connection points: 6
#     Node 9, Type 0, BuildingBlock: KUMJIN_clean_sbu_0, # of connection points: 6
#     Node 10, Type 0, BuildingBlock: KUMJIN_clean_sbu_0, # of connection points: 6
#     Node 11, Type 0, BuildingBlock: KUMJIN_clean_sbu_0, # of connection points: 6
#     Edge 12, Type (0, 0), BuildingBlock: MIFKUJ_clean_linker_0, # of connection points: 2
#     Edge 13, Type (0, 0), BuildingBlock: MIFKUJ_clean_linker_0, # of connection points: 2
#     Edge 14, Type (0, 0), BuildingBlock: MIFKUJ_clean_linker_0, # of connection points: 2
#     Edge 15, Type (0, 0), BuildingBlock: MIFKUJ_clean_linker_0, # of connection points: 2
#     Edge 16, Type (0, 0), BuildingBlock: MIFKUJ_clean_linker_0, # of connection points: 2
#     Edge 17, Type (0, 0), BuildingBlock: MIFKUJ_clean_linker_0, # of connection points: 2
#     Edge 18, Type (0, 0), BuildingBlock: MIFKUJ_clean_linker_0, # of connection points: 2
#     Edge 19, Type (0, 0), BuildingBlock: MIFKUJ_clean_linker_0, # of connection points: 2
#     Edge 20, Type (0, 0), BuildingBlock: MIFKUJ_clean_linker_0, # of connection points: 2
#     Edge 21, Type (0, 0), BuildingBlock: MIFKUJ_clean_linker_0, # of connection points: 2
#     Edge 22, Type (0, 0), BuildingBlock: MIFKUJ_clean_linker_0, # of connection points: 2
#     Edge 23, Type (0, 0), BuildingBlock: MIFKUJ_clean_linker_0, # of connection points: 2
#     Edge 24, Type (0, 0), BuildingBlock: MIFKUJ_clean_linker_0, # of connection points: 2
#     Edge 25, Type (0, 0), BuildingBlock: MIFKUJ_clean_linker_0, # of connection points: 2
#     Edge 26, Type (0, 0), BuildingBlock: MIFKUJ_clean_linker_0, # of connection points: 2
#     Edge 27, Type (0, 0), BuildingBlock: MIFKUJ_clean_linker_0, # of connection points: 2
#     Edge 28, Type (0, 0), BuildingBlock: MIFKUJ_clean_linker_0, # of connection points: 2
#     Edge 29, Type (0, 0), BuildingBlock: MIFKUJ_clean_linker_0, # of connection points: 2
#     Edge 30, Type (0, 0), BuildingBlock: MIFKUJ_clean_linker_0, # of connection points: 2
#     Edge 31, Type (0, 0), BuildingBlock: MIFKUJ_clean_linker_0, # of connection points: 2
#     Edge 32, Type (0, 0), BuildingBlock: MIFKUJ_clean_linker_0, # of connection points: 2
#     Edge 33, Type (0, 0), BuildingBlock: MIFKUJ_clean_linker_0, # of connection points: 2
#     Edge 34, Type (0, 0), BuildingBlock: MIFKUJ_clean_linker_0, # of connection points: 2
#     Edge 35, Type (0, 0), BuildingBlock: MIFKUJ_clean_linker_0, # of connection points: 2
#     Edge 36, Type (0, 0), BuildingBlock: MIFKUJ_clean_linker_0, # of connection points: 2
#     Edge 37, Type (0, 0), BuildingBlock: MIFKUJ_clean_linker_0, # of connection points: 2
#     Edge 38, Type (0, 0), BuildingBlock: MIFKUJ_clean_linker_0, # of connection points: 2
#     Edge 39, Type (0, 0), BuildingBlock: MIFKUJ_clean_linker_0, # of connection points: 2
#     Edge 40, Type (0, 0), BuildingBlock: MIFKUJ_clean_linker_0, # of connection points: 2
#     Edge 41, Type (0, 0), BuildingBlock: MIFKUJ_clean_linker_0, # of connection points: 2
#     Edge 42, Type (0, 0), BuildingBlock: MIFKUJ_clean_linker_0, # of connection points: 2
#     Edge 43, Type (0, 0), BuildingBlock: MIFKUJ_clean_linker_0, # of connection points: 2
#     Edge 44, Type (0, 0), BuildingBlock: MIFKUJ_clean_linker_0, # of connection points: 2
#     Edge 45, Type (0, 0), BuildingBlock: MIFKUJ_clean_linker_0, # of connection points: 2
#     Edge 46, Type (0, 0), BuildingBlock: MIFKUJ_clean_linker_0, # of connection points: 2
#     Edge 47, Type (0, 0), BuildingBlock: MIFKUJ_clean_linker_0, # of connection points: 2
# Relax obj value: 0.444
# Max RMSD: 0.214
# Mean RMSD: 0.214
data_MOF--net-wkj--node1-KUMJIN_clean_sbu_0--edge1-MIFKUJ_clean_linker_0
_symmetry_space_group_name_H-M    P1
_symmetry_Int_Tables_number       1
_symmetry_cell_setting            triclinic
loop_
_symmetry_equiv_pos_as_xyz
'x, y, z'
_cell_length_a     65.253834
_cell_length_b     65.278478
_cell_length_c     37.530531
_cell_angle_alpha  90.364459
_cell_angle_beta   89.898229
_cell_angle_gamma 119.86153
loop_
_atom_site_label
_atom_site_type_symbol
_atom_site_fract_x
_atom_site_fract_y
_atom_site_fract_z
_atom_type_partial_charge
Eu0 Eu 0.44974 0.08396 0.32605 0.0
C1 C 0.54084 0.09805 0.36483 0.0
C2 C 0.55974 0.1376 0.39092 0.0
C3 C 0.57307 0.11033 0.40758 0.0
C4 C 0.54224 0.12011 0.3686 0.0
C5 C 0.55647 0.09323 0.38439 0.0
C6 C 0.57497 0.13252 0.41026 0.0
C7 C 0.54177 0.05672 0.35175 0.0
N8 N 0.52569 0.08211 0.34042 0.0
C9 C 0.52709 0.06233 0.33222 0.0
C10 C 0.55617 0.07195 0.37839 0.0
Eu11 Eu 0.50587 0.09662 0.30472 0.0
N12 N 0.52742 0.12497 0.34941 0.0
C13 C 0.52899 0.14663 0.35209 0.0
C14 C 0.56153 0.15984 0.39324 0.0
C15 C 0.54594 0.16427 0.374 0.0
H16 H 0.51689 0.05092 0.31035 0.0
H17 H 0.54714 0.18139 0.37569 0.0
H18 H 0.5886 0.14587 0.4269 0.0
H19 H 0.54275 0.04114 0.34544 0.0
H20 H 0.51785 0.15085 0.33666 0.0
H21 H 0.4044 0.9908 0.27705 0.0
H22 H 0.57472 0.17361 0.41012 0.0
H23 H 0.44274 0.12842 0.29195 0.0
H24 H 0.43884 0.02686 0.29648 0.0
H25 H 0.41455 0.1333 0.25784 0.0
H26 H 0.58526 0.10691 0.42248 0.0
H27 H 0.3696 -0.00817 0.25379 0.0
H28 H 0.35207 0.01605 0.23343 0.0
H29 H 0.56794 0.06772 0.39281 0.0
H30 H 0.3561 0.0551 0.22453 0.0
N31 N 0.4231 0.04879 0.29217 0.0
C32 C 0.42344 0.02792 0.29024 0.0
C33 C 0.38449 0.00785 0.26419 0.0
C34 C 0.38537 0.02959 0.26152 0.0
C35 C 0.40399 0.00717 0.27754 0.0
C36 C 0.40533 0.05004 0.27533 0.0
H37 H 0.37962 0.09877 0.23202 0.0
N38 N 0.42754 0.09139 0.28228 0.0
C39 C 0.4127 0.11603 0.25971 0.0
C40 C 0.40792 0.07204 0.26942 0.0
C41 C 0.42953 0.11316 0.27831 0.0
C42 C 0.39293 0.09647 0.24573 0.0
C43 C 0.39018 0.07409 0.25076 0.0
O44 O 0.44085 0.10866 0.3514 0.0
O45 O 0.48672 0.10031 0.3536 0.0
O46 O 0.48588 0.06032 0.32949 0.0
O47 O 0.44844 0.0524 0.34858 0.0
O48 O 0.45877 0.07846 0.38472 0.0
O49 O 0.41506 0.07138 0.34972 0.0
O50 O 0.53076 0.09137 0.27141 0.0
O51 O 0.469 0.07821 0.27781 0.0
O52 O 0.47254 0.12319 0.31507 0.0
O53 O 0.50058 0.12544 0.27696 0.0
O54 O 0.49573 0.07784 0.25061 0.0
O55 O 0.54025 0.12581 0.29348 0.0
C56 C 0.48173 0.09147 0.38622 0.0
C57 C 0.41409 0.09395 0.39839 0.0
C58 C 0.40766 0.07847 0.45829 0.0
C59 C 0.41082 0.07629 0.42202 0.0
C60 C 0.40657 0.09822 0.47088 0.0
C61 C 0.41315 0.11377 0.41087 0.0
C62 C 0.4092 0.11577 0.44706 0.0
C63 C 0.4653 0.04715 0.34538 0.0
C64 C 0.41999 0.09226 0.36135 0.0
C65 C 0.36993 0.05378 0.23847 0.0
C66 C 0.36753 0.03156 0.24384 0.0
C67 C 0.47346 0.07062 0.24738 0.0
C68 C 0.55988 0.1259 0.24234 0.0
C69 C 0.55427 0.14162 0.22585 0.0
C70 C 0.57035 0.15882 0.203 0.0
C71 C 0.59156 0.15913 0.19461 0.0
C72 C 0.58079 0.12598 0.23359 0.0
C73 C 0.59648 0.14244 0.20933 0.0
C74 C 0.4873 0.13405 0.28893 0.0
C75 C 0.54691 0.11361 0.274 0.0
H76 H 0.41092 0.06071 0.41209 0.0
H77 H 0.40402 0.10022 0.49894 0.0
H78 H 0.41573 0.12772 0.39276 0.0
H79 H 0.40852 0.13108 0.45672 0.0
H80 H 0.53817 0.14163 0.23296 0.0
H81 H 0.60416 0.172 0.17628 0.0
H82 H 0.58545 0.11412 0.2467 0.0
H83 H 0.61278 0.14274 0.20275 0.0
Eu84 Eu 0.35752 0.45307 0.66116 0.0
C85 C 0.44472 0.54766 0.69433 0.0
C86 C 0.42702 0.5653 0.73158 0.0
C87 C 0.46944 0.58083 0.73342 0.0
C88 C 0.42481 0.54852 0.70567 0.0
C89 C 0.46719 0.56384 0.70824 0.0
C90 C 0.44942 0.58153 0.74511 0.0
C91 C 0.48383 0.54547 0.67117 0.0
N92 N 0.44206 0.53062 0.67069 0.0
C93 C 0.46119 0.5295 0.65849 0.0
C94 C 0.48682 0.56256 0.69632 0.0
Eu95 Eu 0.40429 0.50908 0.64483 0.0
N96 N 0.40322 0.53225 0.69279 0.0
C97 C 0.38327 0.53201 0.7045 0.0
C98 C 0.4066 0.56501 0.7437 0.0
C99 C 0.38464 0.54821 0.73022 0.0
H100 H 0.459 0.51663 0.63835 0.0
H101 H 0.36873 0.54783 0.73944 0.0
H102 H 0.45142 0.59456 0.7649 0.0
H103 H 0.49912 0.54509 0.66116 0.0
H104 H 0.36624 0.51947 0.69423 0.0
H105 H 0.36972 0.39727 0.56352 0.0
H106 H 0.40758 0.57756 0.76362 0.0
H107 H 0.30295 0.4468 0.67772 0.0
H108 H 0.37566 0.41835 0.61995 0.0
H109 H 0.26694 0.43705 0.64476 0.0
H110 H 0.48659 0.59342 0.74426 0.0
H111 H 0.34047 0.39545 0.52008 0.0
H112 H 0.30729 0.40286 0.50678 0.0
H113 H 0.50441 0.57483 0.70607 0.0
H114 H 0.27893 0.41416 0.52912 0.0
N115 N 0.35241 0.43153 0.60741 0.0
C116 C 0.36378 0.41902 0.6008 0.0
C117 C 0.34353 0.40545 0.54458 0.0
C118 C 0.3299 0.41584 0.55332 0.0
C119 C 0.36004 0.40642 0.56899 0.0
C120 C 0.33443 0.42854 0.58578 0.0
H121 H 0.26314 0.42602 0.58103 0.0
N122 N 0.32094 0.44335 0.63244 0.0
C123 C 0.28135 0.43694 0.63104 0.0
C124 C 0.31829 0.43479 0.59858 0.0
C125 C 0.30196 0.44261 0.64959 0.0
C126 C 0.27939 0.43075 0.59515 0.0
C127 C 0.29755 0.42866 0.57885 0.0
O128 O 0.32515 0.42084 0.67464 0.0
O129 O 0.38376 0.4871 0.69167 0.0
O130 O 0.41768 0.48873 0.67687 0.0
O131 O 0.39062 0.45288 0.65335 0.0
O132 O 0.36197 0.4616 0.72311 0.0
O133 O 0.35855 0.42406 0.68853 0.0
O134 O 0.42896 0.53191 0.60404 0.0
O135 O 0.38118 0.47495 0.61173 0.0
O136 O 0.34334 0.47835 0.66566 0.0
O137 O 0.36798 0.50327 0.62392 0.0
O138 O 0.41771 0.49264 0.60372 0.0
O139 O 0.40611 0.54215 0.63156 0.0
C140 C 0.38051 0.48243 0.72576 0.0
C141 C 0.32606 0.40358 0.72758 0.0
C142 C 0.33156 0.40787 0.79159 0.0
C143 C 0.34024 0.41443 0.75712 0.0
C144 C 0.30767 0.39075 0.79645 0.0
C145 C 0.30228 0.38637 0.73241 0.0
C146 C 0.29309 0.38014 0.76684 0.0
C147 C 0.40933 0.46586 0.67209 0.0
C148 C 0.33563 0.41165 0.69194 0.0
C149 C 0.29455 0.41859 0.54477 0.0
C150 C 0.3107 0.41214 0.53205 0.0
C151 C 0.39816 0.47496 0.59207 0.0
C152 C 0.41524 0.5536 0.57252 0.0
C153 C 0.39152 0.54263 0.56216 0.0
C154 C 0.38502 0.54905 0.53112 0.0
C155 C 0.40237 0.56679 0.50976 0.0
C156 C 0.43266 0.57127 0.55125 0.0
C157 C 0.42615 0.57785 0.51976 0.0
C158 C 0.34724 0.49347 0.64017 0.0
C159 C 0.42145 0.54704 0.60607 0.0
H160 H 0.35852 0.42773 0.75332 0.0
H161 H 0.30051 0.38484 0.82285 0.0
H162 H 0.29087 0.37801 0.70965 0.0
H163 H 0.27476 0.3668 0.77057 0.0
H164 H 0.37778 0.52949 0.5783 0.0
H165 H 0.39748 0.57219 0.48574 0.0
H166 H 0.45107 0.58004 0.55914 0.0
H167 H 0.43946 0.59161 0.50328 0.0
Eu168 Eu 0.90252 0.36749 0.99393 0.0
C169 C 0.86352 0.42768 1.02998 0.0
C170 C 0.82423 0.39639 1.04513 0.0
C171 C 0.83686 0.43682 1.06271 0.0
C172 C 0.8459 0.40425 1.02722 0.0
C173 C 0.85924 0.4442 1.04796 0.0
C174 C 0.81952 0.41289 1.06188 0.0
C175 C 0.89939 0.47409 1.03492 0.0
N176 N 0.88483 0.43429 1.01491 0.0
C177 C 0.90269 0.45702 1.01729 0.0
C178 C 0.87745 0.46772 1.04984 0.0
Eu179 Eu 0.88485 0.40799 0.97178 0.0
N180 N 0.8509 0.38886 1.01003 0.0
C181 C 0.83724 0.36523 1.01678 0.0
C182 C 0.80864 0.37209 1.04756 0.0
C183 C 0.81566 0.35646 1.03463 0.0
H184 H 0.91875 0.46212 1.00304 0.0
H185 H 0.80459 0.33765 1.03872 0.0
H186 H 0.80275 0.40728 1.07499 0.0
H187 H 0.91337 0.49235 1.03567 0.0
H188 H 0.84293 0.353 1.00944 0.0
H189 H 0.9601 0.35971 0.89689 0.0
H190 H 0.79195 0.36528 1.06144 0.0
H191 H 0.85245 0.32476 1.03234 0.0
H192 H 0.94804 0.37962 0.94087 0.0
H193 H 0.82531 0.28162 1.02539 0.0
H194 H 0.8329 0.44939 1.07531 0.0
H195 H 0.9335 0.31748 0.88301 0.0
H196 H 0.89608 0.27998 0.89608 0.0
H197 H 0.87473 0.4812 1.06207 0.0
H198 H 0.85967 0.25873 0.9312 0.0
N199 N 0.91346 0.35051 0.94744 0.0
C200 C 0.93542 0.36198 0.93259 0.0
C201 C 0.92762 0.32654 0.90103 0.0
C202 C 0.90581 0.31431 0.91844 0.0
C203 C 0.94263 0.35041 0.90858 0.0
C204 C 0.89915 0.32683 0.94221 0.0
H205 H 0.83307 0.25923 0.9791 0.0
N206 N 0.87364 0.32682 0.98792 0.0
C207 C 0.84019 0.29076 1.00759 0.0
C208 C 0.87882 0.31458 0.96304 0.0
C209 C 0.85534 0.31512 1.01126 0.0
C210 C 0.84465 0.27816 0.9814 0.0
C211 C 0.86443 0.28992 0.9593 0.0
O212 O 0.90739 0.34078 1.01904 0.0
O213 O 0.89092 0.39217 1.02098 0.0
O214 O 0.92152 0.42577 0.9966 0.0
O215 O 0.93323 0.40065 0.97424 0.0
O216 O 0.89703 0.37369 1.05525 0.0
O217 O 0.93792 0.37526 1.0127 0.0
O218 O 0.89905 0.442 0.9444 0.0
O219 O 0.90458 0.39037 0.94561 0.0
O220 O 0.86787 0.34815 0.96146 0.0
O221 O 0.85456 0.37388 0.94701 0.0
O222 O 0.89946 0.41247 0.91435 0.0
O223 O 0.86155 0.42047 0.95478 0.0
C224 C 0.89186 0.39044 1.05549 0.0
C225 C 0.93823 0.34848 1.05577 0.0
C226 C 0.93266 0.34155 0.1193 0.0
C227 C 0.92844 0.35014 0.08789 0.0
C228 C 0.94616 0.33013 0.1179 0.0
C229 C 0.9516 0.33709 1.05449 0.0
C230 C 0.95544 0.32781 0.08553 0.0
C231 C 0.93835 0.42088 0.98851 0.0
C232 C 0.93002 0.3535 1.02283 0.0
C233 C 0.87051 0.2777 0.93438 0.0
C234 C 0.8912 0.28982 0.91422 0.0
C235 C 0.91003 0.40026 0.91381 0.0
C236 C 0.87209 0.43978 0.90018 0.0
C237 C 0.84887 0.4248 0.88858 0.0
C238 C 0.84346 0.42151 0.8525 0.0
C239 C 0.86119 0.43459 0.82741 0.0
C240 C 0.88967 0.45318 0.87513 0.0
C241 C 0.8841 0.45067 0.83884 0.0
C242 C 0.85228 0.35251 0.94591 0.0
C243 C 0.8779 0.43854 0.9376 0.0
H244 H 0.91718 0.35782 0.08839 0.0
H245 H 0.9503 0.32371 0.14181 0.0
H246 H 0.95832 0.33465 1.02935 0.0
H247 H 0.96568 0.31891 0.08456 0.0
H248 H 0.83509 0.41427 0.90752 0.0
H249 H 0.85731 0.43234 0.79914 0.0
H250 H 0.90774 0.4649 0.88345 0.0
H251 H 0.89768 0.46072 0.8195 0.0
Eu252 Eu 0.52674 0.9059 0.33539 0.0
C253 C 0.42898 0.89051 0.35979 0.0
C254 C 0.4123 0.85442 0.39479 0.0
C255 C 0.39492 0.87979 0.3979 0.0
C256 C 0.42906 0.86994 0.36998 0.0
C257 C 0.41159 0.89529 0.3733 0.0
C258 C 0.39534 0.85951 0.40872 0.0
C259 C 0.42741 0.92966 0.33545 0.0
N260 N 0.44567 0.90571 0.33663 0.0
C261 C 0.44478 0.92468 0.32357 0.0
C262 C 0.41108 0.91523 0.36098 0.0
Eu263 Eu 0.4692 0.89165 0.31152 0.0
N264 N 0.44597 0.86556 0.35681 0.0
C265 C 0.44671 0.84578 0.36651 0.0
C266 C 0.41337 0.83447 0.40552 0.0
C267 C 0.43067 0.83016 0.39135 0.0
H268 H 0.45697 0.93529 0.30295 0.0
H269 H 0.43152 0.8147 0.39934 0.0
H270 H 0.38243 0.84784 0.4279 0.0
H271 H 0.42632 0.94437 0.32444 0.0
H272 H 0.45967 0.84205 0.35515 0.0
H273 H 0.58661 0.98539 0.26051 0.0
H274 H 0.40094 0.8223 0.42474 0.0
H275 H 0.53717 0.8604 0.34869 0.0
H276 H 0.55731 0.96266 0.30556 0.0
H277 H 0.5551 0.84011 0.31693 0.0
H278 H 0.38153 0.88327 0.40864 0.0
H279 H 0.60205 0.96602 0.22078 0.0
H280 H 0.60325 0.9298 0.20351 0.0
H281 H 0.39774 0.91926 0.37027 0.0
H282 H 0.59312 0.88922 0.21727 0.0
N283 N 0.55316 0.92922 0.28952 0.0
C284 C 0.56238 0.95319 0.28732 0.0
C285 C 0.58841 0.95553 0.23994 0.0
C286 C 0.58019 0.93135 0.24367 0.0
C287 C 0.57968 0.96652 0.26219 0.0
C288 C 0.56242 0.91837 0.26924 0.0
H289 H 0.57572 0.8559 0.26005 0.0
N290 N 0.54321 0.88462 0.30662 0.0
C291 C 0.55519 0.8552 0.30499 0.0
C292 C 0.55681 0.89527 0.2774 0.0
C293 C 0.5446 0.86644 0.32248 0.0
C294 C 0.56669 0.86412 0.27278 0.0
C295 C 0.56869 0.88502 0.25955 0.0
O296 O 0.56355 0.91615 0.34606 0.0
O297 O 0.48952 0.89115 0.36038 0.0
O298 O 0.48458 0.92361 0.34915 0.0
O299 O 0.5207 0.93619 0.32721 0.0
O300 O 0.51393 0.89498 0.39514 0.0
O301 O 0.54533 0.92659 0.38253 0.0
O302 O 0.44263 0.89029 0.27409 0.0
O303 O 0.50691 0.9121 0.28729 0.0
O304 O 0.50504 0.86615 0.32852 0.0
O305 O 0.47799 0.86368 0.28774 0.0
O306 O 0.48083 0.91459 0.26139 0.0
O307 O 0.43948 0.85819 0.29752 0.0
C308 C 0.4918 0.88938 0.39499 0.0
C309 C 0.56939 0.9126 0.40658 0.0
C310 C 0.56785 0.90412 0.46968 0.0
C311 C 0.56471 0.91621 0.44147 0.0
C312 C 0.5762 0.88842 0.4629 0.0
C313 C 0.57791 0.89691 0.39985 0.0
C314 C 0.58113 0.88479 0.42793 0.0
C315 C 0.50745 0.9391 0.3501 0.0
C316 C 0.56357 0.92397 0.37766 0.0
C317 C 0.5842 0.89704 0.23146 0.0
C318 C 0.59006 0.92021 0.22372 0.0
C319 C 0.5029 0.92085 0.25772 0.0
C320 C 0.41702 0.85307 0.24636 0.0
C321 C 0.42142 0.8354 0.23373 0.0
C322 C 0.4054 0.81795 0.21074 0.0
C323 C 0.38534 0.81892 0.19916 0.0
C324 C 0.39732 0.85419 0.23422 0.0
C325 C 0.38159 0.83719 0.21042 0.0
C326 C 0.4904 0.85479 0.30225 0.0
C327 C 0.42997 0.86731 0.27701 0.0
H328 H 0.55913 0.92908 0.44675 0.0
H329 H 0.57944 0.87954 0.4846 0.0
H330 H 0.58194 0.89385 0.37302 0.0
H331 H 0.5877 0.87277 0.4226 0.0
H332 H 0.43668 0.83452 0.24308 0.0
H333 H 0.37287 0.8059 0.18066 0.0
H334 H 0.3936 0.86761 0.24426 0.0
H335 H 0.36624 0.83789 0.20122 0.0
Eu336 Eu 0.6137 0.53194 0.66899 0.0
C337 C 0.5273 0.43278 0.67766 0.0
C338 C 0.53795 0.41105 0.71919 0.0
C339 C 0.49676 0.39613 0.70383 0.0
C340 C 0.54451 0.43083 0.69714 0.0
C341 C 0.50335 0.41509 0.68045 0.0
C342 C 0.51399 0.39408 0.72303 0.0
C343 C 0.49418 0.43476 0.63413 0.0
N344 N 0.53406 0.45096 0.6543 0.0
C345 C 0.5179 0.4525 0.63321 0.0
C346 C 0.4868 0.41624 0.6582 0.0
Eu347 Eu 0.57515 0.47392 0.64639 0.0
N348 N 0.56769 0.44754 0.6933 0.0
C349 C 0.58515 0.44514 0.70965 0.0
C350 C 0.55572 0.4085 0.73597 0.0
C351 C 0.57941 0.42549 0.7309 0.0
H352 H 0.52327 0.46681 0.61462 0.0
H353 H 0.59324 0.42354 0.74351 0.0
H354 H 0.50865 0.37896 0.74018 0.0
H355 H 0.48167 0.43497 0.61558 0.0
H356 H 0.60354 0.45815 0.7055 0.0
H357 H 0.58497 0.58099 0.58541 0.0
H358 H 0.55133 0.39339 0.75267 0.0
H359 H 0.67164 0.54544 0.67734 0.0
H360 H 0.58257 0.5559 0.63505 0.0
H361 H 0.70761 0.56219 0.64084 0.0
H362 H 0.4784 0.38254 0.70643 0.0
H363 H 0.61762 0.59449 0.54237 0.0
H364 H 0.65461 0.59595 0.52249 0.0
H365 H 0.46838 0.40258 0.65878 0.0
H366 H 0.68748 0.58924 0.53633 0.0
N367 N 0.61239 0.5529 0.61874 0.0
C368 C 0.59638 0.56056 0.61575 0.0
C369 C 0.6163 0.58282 0.56351 0.0
C370 C 0.63343 0.57615 0.56764 0.0
C371 C 0.59787 0.57525 0.58784 0.0
C372 C 0.63133 0.56126 0.5963 0.0
H373 H 0.70762 0.57719 0.58069 0.0
N374 N 0.65 0.54741 0.63621 0.0
C375 C 0.69153 0.56063 0.63 0.0
C376 C 0.65029 0.55782 0.60465 0.0
C377 C 0.67089 0.55066 0.65028 0.0
C378 C 0.69141 0.56899 0.59604 0.0
C379 C 0.67108 0.56874 0.58369 0.0
O380 O 0.64244 0.56806 0.67399 0.0
O381 O 0.59448 0.49551 0.69685 0.0
O382 O 0.55743 0.48596 0.6861 0.0
O383 O 0.57654 0.52534 0.67254 0.0
O384 O 0.61243 0.52305 0.7298 0.0
O385 O 0.61244 0.55611 0.7085 0.0
O386 O 0.55823 0.4408 0.61509 0.0
O387 O 0.58867 0.51052 0.62148 0.0
O388 O 0.63341 0.51118 0.66977 0.0
O389 O 0.6127 0.4875 0.62371 0.0
O390 O 0.5631 0.48249 0.59332 0.0
O391 O 0.59276 0.45376 0.64058 0.0
C392 C 0.59813 0.50037 0.73152 0.0
C393 C 0.65072 0.58054 0.73264 0.0
C394 C 0.65638 0.5877 0.79569 0.0
C395 C 0.64171 0.58018 0.76603 0.0
C396 C 0.68044 0.59514 0.79263 0.0
C397 C 0.675 0.58809 0.72895 0.0
C398 C 0.68971 0.59511 0.75901 0.0
C399 C 0.56029 0.50735 0.69025 0.0
C400 C 0.63429 0.57235 0.70251 0.0
C401 C 0.6718 0.58111 0.55288 0.0
C402 C 0.65312 0.58501 0.54506 0.0
C403 C 0.57635 0.50523 0.59146 0.0
C404 C 0.58001 0.42066 0.60427 0.0
C405 C 0.5965 0.42988 0.57702 0.0
C406 C 0.60181 0.415 0.55713 0.0
C407 C 0.59234 0.39125 0.56752 0.0
C408 C 0.57027 0.39701 0.61432 0.0
C409 C 0.5768 0.38242 0.59629 0.0
C410 C 0.63228 0.49776 0.64279 0.0
C411 C 0.57479 0.43617 0.62491 0.0
H412 H 0.62311 0.57473 0.76904 0.0
H413 H 0.69193 0.60139 0.81572 0.0
H414 H 0.68261 0.58861 0.70309 0.0
H415 H 0.70831 0.60091 0.75613 0.0
H416 H 0.60402 0.44833 0.56985 0.0
H417 H 0.59563 0.37912 0.55208 0.0
H418 H 0.55793 0.38999 0.63633 0.0
H419 H 0.56923 0.36408 0.60383 0.0
Eu420 Eu 0.07003 0.61367 1.0035 0.0
C421 C 0.08653 0.52862 1.00578 0.0
C422 C 0.11936 0.54144 1.04737 0.0
C423 C 0.09549 0.4999 1.0319 0.0
C424 C 0.10513 0.54664 1.02513 0.0
C425 C 0.0819 0.50515 1.00867 0.0
C426 C 0.11421 0.51798 1.05104 0.0
C427 C 0.05253 0.49404 0.96227 0.0
N428 N 0.07405 0.53419 0.98248 0.0
C429 C 0.05749 0.51745 0.96052 0.0
C430 C 0.06447 0.48778 0.98685 0.0
Eu431 Eu 0.08885 0.57494 0.97577 0.0
N432 N 0.10961 0.56927 1.02194 0.0
C433 C 0.12849 0.58752 1.03888 0.0
C434 C 0.13857 0.56004 1.06503 0.0
C435 C 0.14312 0.58316 1.06083 0.0
H436 H 0.04874 0.5222 0.94068 0.0
H437 H 0.15809 0.59765 1.07407 0.0
H438 H 0.12482 0.51368 1.06827 0.0
H439 H 0.03947 0.48081 0.94464 0.0
H440 H 0.13265 0.60556 1.03454 0.0
H441 H -0.01277 0.58579 0.93159 0.0
H442 H 0.15022 0.55679 0.08147 0.0
H443 H 0.11601 0.67128 1.00806 0.0
H444 H 0.01248 0.58285 0.97652 0.0
H445 H 0.13389 0.70641 0.97036 0.0
H446 H 0.09207 0.48194 1.03452 0.0
H447 H 0.00374 0.61917 0.88969 0.0
H448 H 0.03783 0.65606 0.8679 0.0
H449 H 0.06053 0.4696 0.98809 0.0
H450 H 0.07862 0.68793 0.87638 0.0
N451 N 0.04438 0.61281 0.9581 0.0
C452 C 0.02066 0.59678 0.95727 0.0
C453 C 0.01524 0.61744 0.90855 0.0
C454 C 0.03915 0.63447 0.91042 0.0
C455 C 0.00592 0.59862 0.93216 0.0
C456 C 0.05363 0.63189 0.93598 0.0
H457 H 0.11457 0.70682 0.91424 0.0
N458 N 0.08917 0.64969 0.97021 0.0
C459 C 0.11819 0.69063 0.96139 0.0
C460 C 0.0768 0.65033 0.94134 0.0
C461 C 0.10824 0.67034 0.98223 0.0
C462 C 0.10723 0.69075 0.92974 0.0
C463 C 0.08567 0.67101 0.92039 0.0
O464 O 0.06107 0.64121 1.01236 0.0
O465 O 0.08742 0.59346 1.02724 0.0
O466 O 0.05935 0.55625 1.01588 0.0
O467 O 0.03987 0.57641 1.00464 0.0
O468 O 0.07967 0.61157 1.06292 0.0
O469 O 0.04997 0.61356 1.05077 0.0
O470 O 0.10443 0.55859 0.94274 0.0
O471 O 0.06534 0.58921 0.95405 0.0
O472 O 0.11039 0.633 1.00176 0.0
O473 O 0.11246 0.61275 0.9541 0.0
O474 O 0.0668 0.56359 0.92412 0.0
O475 O 0.12688 0.59386 0.96718 0.0
C476 C 0.08755 0.59684 1.06212 0.0
C477 C 0.06709 0.65327 1.07174 0.0
C478 C 0.07633 0.66446 0.13384 0.0
C479 C 0.06437 0.64719 0.10761 0.0
C480 C 0.0921 0.68782 0.12415 0.0
C481 C 0.08279 0.67691 1.06214 0.0
C482 C 0.09556 0.69392 0.08821 0.0
C483 C 0.04154 0.56008 1.02226 0.0
C484 C 0.05402 0.63488 1.04457 0.0
C485 C 0.07192 0.6723 0.89278 0.0
C486 C 0.04865 0.65421 0.88808 0.0
C487 C 0.05774 0.57732 0.92357 0.0
C488 C 0.14655 0.57617 0.93662 0.0
C489 C 0.16361 0.59679 0.92048 0.0
C490 C 0.18499 0.59888 0.90933 0.0
C491 C 0.19028 0.58118 0.91904 0.0
C492 C 0.15141 0.55813 0.94484 0.0
C493 C 0.17352 0.56092 0.93671 0.0
C494 C 0.12206 0.63215 0.97381 0.0
C495 C 0.12573 0.57571 0.95075 0.0
H496 H 0.0516 0.62928 0.11535 0.0
H497 H 0.10072 0.70142 0.14432 0.0
H498 H 0.08513 0.68239 1.03459 0.0
H499 H 0.10747 0.71202 0.08057 0.0
H500 H 0.15975 0.61085 0.91519 0.0
H501 H 0.20671 0.5822 0.91118 0.0
H502 H 0.13856 0.54247 0.95881 0.0
H503 H 0.17753 0.54719 0.9434 0.0
Eu504 Eu 0.90695 0.53621 0.494 0.0
C505 C 0.86189 0.44064 0.45042 0.0
C506 C 0.82426 0.43664 0.43285 0.0
C507 C 0.83499 0.40798 0.4121 0.0
C508 C 0.84545 0.44826 0.45277 0.0
C509 C 0.8567 0.4204 0.42999 0.0
C510 C 0.81888 0.41618 0.4133 0.0
C511 C 0.89496 0.42608 0.44573 0.0
N512 N 0.88289 0.453 0.46791 0.0
C513 C 0.89945 0.44611 0.46546 0.0
C514 C 0.87331 0.41292 0.42859 0.0
Eu515 Eu 0.88232 0.47763 0.51394 0.0
N516 N 0.85109 0.46811 0.47205 0.0
C517 C 0.83815 0.47918 0.46753 0.0
C518 C 0.80974 0.4467 0.43148 0.0
C519 C 0.81717 0.46849 0.44784 0.0
H520 H 0.9151 0.45455 0.48144 0.0
H521 H 0.80686 0.47723 0.44502 0.0
H522 H 0.80257 0.4069 0.39827 0.0
H523 H 0.90769 0.42012 0.44512 0.0
H524 H 0.84415 0.49662 0.47744 0.0
H525 H -0.00651 0.57532 0.56608 0.0
H526 H 0.79348 0.43848 0.41619 0.0
H527 H 0.86579 0.55384 0.50372 0.0
H528 H 0.95933 0.54409 0.53768 0.0
H529 H 0.86126 0.58495 0.53165 0.0
H530 H 0.83072 0.3923 0.39657 0.0
H531 H -0.00601 0.61175 0.58475 0.0
H532 H 0.97213 0.63332 0.59319 0.0
H533 H 0.86924 0.39668 0.41507 0.0
H534 H 0.93556 0.63483 0.58696 0.0
N535 N 0.94043 0.56305 0.53154 0.0
C536 C 0.95919 0.56021 0.54136 0.0
C537 C 0.97893 0.59828 0.57013 0.0
C538 C 0.95892 0.60025 0.56431 0.0
C539 C 0.97879 0.57788 0.5594 0.0
C540 C 0.9396 0.5821 0.5451 0.0
H541 H 0.89421 0.61659 0.56565 0.0
N542 N 0.90026 0.56498 0.52483 0.0
C543 C 0.87746 0.58447 0.53539 0.0
C544 C 0.91884 0.5828 0.54229 0.0
C545 C 0.88002 0.56633 0.52025 0.0
C546 C 0.8961 0.60232 0.55429 0.0
C547 C 0.91717 0.60187 0.55756 0.0
O548 O 0.88354 0.54075 0.45854 0.0
O549 O 0.88772 0.4998 0.46427 0.0
O550 O 0.92077 0.49205 0.50296 0.0
O551 O 0.9383 0.53149 0.48512 0.0
O552 O 0.91708 0.52516 0.43969 0.0
O553 O 0.92053 0.56895 0.46353 0.0
O554 O 0.88889 0.4504 0.53651 0.0
O555 O 0.90407 0.51373 0.5418 0.0
O556 O 0.87121 0.52214 0.52428 0.0
O557 O 0.85505 0.48365 0.54211 0.0
O558 O 0.89688 0.48565 0.57172 0.0
O559 O 0.85312 0.44406 0.52841 0.0
C560 C 0.90021 0.50339 0.43501 0.0
C561 C 0.89778 0.57025 0.41489 0.0
C562 C 0.89698 0.5658 0.35074 0.0
C563 C 0.89614 0.55685 0.38489 0.0
C564 C 0.89637 0.58708 0.34755 0.0
C565 C 0.89746 0.59141 0.41148 0.0
C566 C 0.89621 0.59953 0.37781 0.0
C567 C 0.93925 0.51237 0.4937 0.0
C568 C 0.89957 0.5623 0.4501 0.0
C569 C 0.93657 0.62011 0.57537 0.0
C570 C 0.95742 0.61933 0.57867 0.0
C571 C 0.90874 0.50847 0.57343 0.0
C572 C 0.85748 0.4201 0.56965 0.0
C573 C 0.84228 0.42267 0.59323 0.0
C574 C 0.82567 0.40318 0.61208 0.0
C575 C 0.8259 0.3818 0.6101 0.0
C576 C 0.8586 0.39921 0.56914 0.0
C577 C 0.84296 0.38014 0.58986 0.0
C578 C 0.85443 0.50342 0.54106 0.0
C579 C 0.86633 0.43547 0.53902 0.0
H580 H 0.8957 0.54018 0.38834 0.0
H581 H 0.89754 0.5951 0.32194 0.0
H582 H 0.89827 0.60165 0.43483 0.0
H583 H 0.89619 0.61602 0.37509 0.0
H584 H 0.84137 0.43883 0.59359 0.0
H585 H 0.81254 0.36629 0.62348 0.0
H586 H 0.87019 0.39703 0.5507 0.0
H587 H 0.84306 0.36362 0.58849 0.0
Eu588 Eu 0.35486 0.89268 0.83158 0.0
C589 C 0.43662 0.87444 0.80926 0.0
C590 C 0.41481 0.8338 0.78799 0.0
C591 C 0.45704 0.85725 0.77743 0.0
C592 C 0.41546 0.85305 0.80648 0.0
C593 C 0.45757 0.87667 0.79467 0.0
C594 C 0.43574 0.8359 0.77408 0.0
C595 C 0.47823 0.91724 0.81523 0.0
N596 N 0.43657 0.89321 0.82516 0.0
C597 C 0.45707 0.91419 0.82942 0.0
C598 C 0.47848 0.89843 0.79767 0.0
Eu599 Eu 0.40096 0.88476 0.85338 0.0
N600 N 0.39523 0.85191 0.81844 0.0
C601 C 0.37381 0.83235 0.81174 0.0
C602 C 0.39295 0.81342 0.78234 0.0
C603 C 0.37235 0.81284 0.79386 0.0
H604 H 0.457 0.9285 0.84391 0.0
H605 H 0.35529 0.79743 0.78871 0.0
H606 H 0.43554 0.82129 0.7599 0.0
H607 H 0.49439 0.93401 0.81819 0.0
H608 H 0.35767 0.83174 0.81917 0.0
H609 H 0.38731 0.98533 0.87647 0.0
H610 H 0.39171 0.79836 0.76808 0.0
H611 H 0.2991 0.84651 0.84931 0.0
H612 H 0.38323 0.95528 0.83496 0.0
H613 H 0.26719 0.83648 0.89117 0.0
H614 H 0.47298 0.85866 0.7661 0.0
H615 H 0.36168 0.97481 0.92927 0.0
H616 H 0.32637 0.94463 0.96082 0.0
H617 H 0.49491 0.90084 0.78676 0.0
H618 H 0.29392 0.90414 0.96557 0.0
N619 N 0.35829 0.92571 0.86627 0.0
C620 C 0.37294 0.94929 0.85887 0.0
C621 C 0.36052 0.96097 0.91182 0.0
C622 C 0.34352 0.93738 0.91718 0.0
C623 C 0.37498 0.96696 0.88213 0.0
C624 C 0.34289 0.91976 0.89411 0.0
H625 H 0.27139 0.86419 0.93919 0.0
N626 N 0.32323 0.87986 0.87386 0.0
C627 C 0.28346 0.85318 0.89391 0.0
C628 C 0.32474 0.89644 0.89755 0.0
C629 C 0.30206 0.85909 0.87028 0.0
C630 C 0.28594 0.86881 0.92097 0.0
C631 C 0.30635 0.89093 0.9225 0.0
O632 O 0.32242 0.87219 0.80188 0.0
O633 O 0.3767 0.87742 0.80467 0.0
O634 O 0.41576 0.91289 0.81067 0.0
O635 O 0.38966 0.92499 0.82504 0.0
O636 O 0.36579 0.8943 0.77159 0.0
O637 O 0.3373 0.91014 0.80709 0.0
O638 O 0.42667 0.89679 0.89722 0.0
O639 O 0.37732 0.89709 0.88288 0.0
O640 O 0.3386 0.85454 0.84864 0.0
O641 O 0.368 0.85495 0.8819 0.0
O642 O 0.41346 0.91962 0.88347 0.0
O643 O 0.40888 0.86026 0.88007 0.0
C644 C 0.37786 0.88339 0.77067 0.0
C645 C 0.3101 0.88999 0.76026 0.0
C646 C 0.31535 0.9026 0.69926 0.0
C647 C 0.32482 0.90361 0.73283 0.0
C648 C 0.29116 0.88793 0.69273 0.0
C649 C 0.28582 0.87519 0.75403 0.0
C650 C 0.27639 0.87416 0.72024 0.0
C651 C 0.40699 0.92691 0.80555 0.0
C652 C 0.31975 0.89024 0.79518 0.0
C653 C 0.3078 0.90819 0.94628 0.0
C654 C 0.32636 0.93129 0.94369 0.0
C655 C 0.39411 0.91653 0.89815 0.0
C656 C 0.4105 0.86729 0.94142 0.0
C657 C 0.392 0.84403 0.94588 0.0
C658 C 0.3813 0.83589 0.97894 0.0
C659 C 0.3886 0.85196 1.00779 0.0
C660 C 0.41764 0.88303 0.97039 0.0
C661 C 0.4065 0.87541 1.00334 0.0
C662 C 0.34536 0.84535 0.87372 0.0
C663 C 0.42048 0.87512 0.90564 0.0
H664 H 0.34359 0.91511 0.73753 0.0
H665 H 0.28378 0.88733 0.66664 0.0
H666 H 0.27426 0.8644 0.77524 0.0
H667 H 0.25768 0.86277 0.71544 0.0
H668 H 0.3859 0.83192 0.92345 0.0
H669 H 0.3813 0.8463 1.03417 0.0
H670 H 0.43151 0.9012 0.96746 0.0
H671 H 0.41209 0.88759 1.02569 0.0
Eu672 Eu 0.45326 0.37199 0.16468 0.0
C673 C 0.55132 0.45796 0.14758 0.0
C674 C 0.57003 0.44405 0.10524 0.0
C675 C 0.58527 0.48618 0.11314 0.0
C676 C 0.55246 0.43937 0.13098 0.0
C677 C 0.56773 0.48154 0.13862 0.0
C678 C 0.58646 0.46751 0.09659 0.0
C679 C 0.54885 0.4945 0.1815 0.0
N680 N 0.53415 0.45305 0.17221 0.0
C681 C 0.53316 0.47094 0.18995 0.0
C682 C 0.56617 0.49983 0.1557 0.0
Eu683 Eu 0.51102 0.41264 0.18713 0.0
N684 N 0.53583 0.41673 0.13883 0.0
C685 C 0.5362 0.39804 0.12287 0.0
C686 C 0.57028 0.42497 0.08837 0.0
C687 C 0.55327 0.40189 0.09717 0.0
H688 H 0.52011 0.46722 0.21028 0.0
H689 H 0.55342 0.38706 0.08438 0.0
H690 H 0.60006 0.47143 1.07689 0.0
H691 H 0.54767 0.50855 0.19511 0.0
H692 H 0.5235 0.38018 0.13041 0.0
H693 H 0.3891 0.40288 0.149 0.0
H694 H 0.58346 0.42787 1.06841 0.0
H695 H 0.45844 0.34127 0.23302 0.0
H696 H 0.41933 0.39346 0.12898 0.0
H697 H 0.44227 0.32789 0.29256 0.0
H698 H 0.59803 0.50418 0.10603 0.0
H699 H 0.37383 0.39382 0.2105 0.0
H700 H 0.373 0.37581 0.26927 0.0
H701 H 0.57839 0.51815 0.1494 0.0
H702 H 0.38712 0.35524 0.30797 0.0
N703 N 0.42362 0.38176 0.18009 0.0
C704 C 0.41389 0.39055 0.15658 0.0
C705 C 0.38765 0.39022 0.20222 0.0
C706 C 0.3962 0.3795 0.22535 0.0
C707 C 0.39631 0.39546 0.16755 0.0
C708 C 0.41442 0.37536 0.21346 0.0
H709 H 0.41268 0.33727 0.31685 0.0
N710 N 0.43996 0.35984 0.22376 0.0
C711 C 0.43684 0.33833 0.27714 0.0
C712 C 0.4225 0.36381 0.23556 0.0
C713 C 0.44633 0.34631 0.24334 0.0
C714 C 0.42005 0.34354 0.29063 0.0
C715 C 0.41241 0.3561 0.26969 0.0
O716 O 0.44024 0.33434 0.15501 0.0
O717 O 0.48973 0.39149 0.1384 0.0
O718 O 0.49965 0.43262 0.15199 0.0
O719 O 0.45964 0.40675 0.14136 0.0
O720 O 0.46223 0.37921 0.10418 0.0
O721 O 0.41759 0.34891 0.14493 0.0
O722 O 0.53271 0.42831 0.23527 0.0
O723 O 0.4746 0.39257 0.21509 0.0
O724 O 0.47177 0.35035 0.16675 0.0
O725 O 0.50377 0.37493 0.20098 0.0
O726 O 0.49532 0.42748 0.22809 0.0
O727 O 0.54317 0.41157 0.19505 0.0
C728 C 0.48521 0.39088 0.10384 0.0
C729 C 0.41423 0.31888 0.10649 0.0
C730 C 0.40807 0.32178 1.04348 0.0
C731 C 0.41608 0.33229 1.07676 0.0
C732 C 0.39992 0.29759 1.03902 0.0
C733 C 0.40589 0.29462 0.10236 0.0
C734 C 0.39907 0.28408 1.06851 0.0
C735 C 0.47924 0.4273 0.13735 0.0
C736 C 0.42034 0.33054 0.14147 0.0
C737 C 0.39482 0.36082 0.28174 0.0
C738 C 0.38679 0.37254 0.25969 0.0
C739 C 0.4748 0.40957 0.23463 0.0
C740 C 0.55811 0.41345 0.25104 0.0
C741 C 0.54502 0.38973 0.26078 0.0
C742 C 0.55551 0.37916 0.28002 0.0
C743 C 0.57946 0.39306 0.29029 0.0
C744 C 0.58179 0.42708 0.26136 0.0
C745 C 0.59238 0.4169 0.28121 0.0
C746 C 0.48993 0.35396 0.18623 0.0
C747 C 0.54856 0.42289 0.22514 0.0
H748 H 0.42243 0.35102 1.0798 0.0
H749 H 0.39343 0.28909 1.01339 0.0
H750 H 0.40443 0.28389 0.12516 0.0
H751 H 0.39246 0.26533 1.06534 0.0
H752 H 0.52665 0.37947 0.25346 0.0
H753 H 0.58795 0.38589 0.30677 0.0
H754 H 0.59219 0.44537 0.25333 0.0
H755 H 0.61063 0.42747 0.28955 0.0
Eu756 Eu 0.07745 0.45479 0.49565 0.0
C757 C 0.08066 0.54826 0.47252 0.0
C758 C 0.1134 0.56888 0.43109 0.0
C759 C 0.08323 0.5802 0.43611 0.0
C760 C 0.10166 0.55143 0.45729 0.0
C761 C 0.07116 0.56246 0.46147 0.0
C762 C 0.10425 0.58341 0.42101 0.0
C763 C 0.03802 0.5403 0.50077 0.0
N764 N 0.06897 0.53065 0.49671 0.0
C765 C 0.04814 0.52682 0.51138 0.0
C766 C 0.04959 0.55822 0.47583 0.0
Eu767 Eu 0.08993 0.51149 0.5146 0.0
N768 N 0.10952 0.53624 0.46588 0.0
C769 C 0.12924 0.53795 0.45009 0.0
C770 C 0.13353 0.57064 0.41476 0.0
C771 C 0.14142 0.55507 0.42421 0.0
H772 H 0.03896 0.51316 0.53081 0.0
H773 H 0.15697 0.55635 0.41172 0.0
H774 H 0.11303 0.59687 0.40092 0.0
H775 H 0.02133 0.53692 0.51197 0.0
H776 H 0.13579 0.52638 0.4582 0.0
H777 H 0.98269 0.38703 0.49601 0.0
H778 H 0.14293 0.58376 0.39445 0.0
H779 H 0.11908 0.45545 0.55027 0.0
H780 H 0.01975 0.41698 0.46939 0.0
H781 H 0.12201 0.44051 0.60796 0.0
H782 H 0.07629 0.5914 0.42766 0.0
H783 H 0.98172 0.37555 0.55873 0.0
H784 H 0.00391 0.3773 0.61328 0.0
H785 H 0.04167 0.56862 0.46772 0.0
H786 H 0.04218 0.39092 0.64285 0.0
N787 N 0.03983 0.42495 0.51762 0.0
C788 C 0.01966 0.41321 0.49734 0.0
C789 C -0.00189 0.38928 0.54745 0.0
C790 C 0.0191 0.39943 0.56706 0.0
C791 C -0.00143 0.39569 0.51208 0.0
C792 C 0.04007 0.41733 0.55125 0.0
H793 H 0.08579 0.4141 0.64132 0.0
N794 N 0.0819 0.44189 0.55255 0.0
C795 C 0.10494 0.43675 0.59792 0.0
C796 C 0.06164 0.42557 0.56872 0.0
C797 C 0.10326 0.44616 0.56552 0.0
C798 C 0.08447 0.42168 0.61641 0.0
C799 C 0.06251 0.41539 0.60146 0.0
O800 O 0.10128 0.44171 0.47954 0.0
O801 O 0.09257 0.49053 0.46803 0.0
O802 O 0.06067 0.49792 0.47415 0.0
O803 O 0.04595 0.45785 0.47952 0.0
O804 O 0.07761 0.46263 0.43452 0.0
O805 O 0.06359 0.41892 0.47607 0.0
O806 O 0.09505 0.53709 0.55805 0.0
O807 O 0.07688 0.47627 0.54584 0.0
O808 O 0.1174 0.4766 0.49927 0.0
O809 O 0.1215 0.50717 0.53437 0.0
O810 O 0.05943 0.49482 0.55471 0.0
O811 O 0.12245 0.54354 0.51951 0.0
C812 C 0.08813 0.48555 0.43381 0.0
C813 C 0.08648 0.41396 0.43251 0.0
C814 C 0.07216 0.40502 0.3717 0.0
C815 C 0.0721 0.41421 0.40523 0.0
C816 C 0.08719 0.39588 0.3648 0.0
C817 C 0.10184 0.4052 0.42558 0.0
C818 C 0.10228 0.39632 0.39166 0.0
C819 C 0.04526 0.47593 0.46587 0.0
C820 C 0.08417 0.42148 0.46845 0.0
C821 C 0.04157 0.39862 0.61778 0.0
C822 C 0.01988 0.3909 0.6009 0.0
C823 C 0.05952 0.47593 0.56458 0.0
C824 C 0.13519 0.56913 0.56637 0.0
C825 C 0.15031 0.56228 0.58164 0.0
C826 C 0.17343 0.57923 0.59106 0.0
C827 C 0.18128 0.60325 0.58393 0.0
C828 C 0.14299 0.59305 0.56049 0.0
C829 C 0.1661 0.61002 0.56881 0.0
C830 C 0.1304 0.4945 0.52051 0.0
C831 C 0.11567 0.55228 0.54489 0.0
H832 H 0.05967 0.42031 0.41051 0.0
H833 H 0.087 0.38821 0.33903 0.0
H834 H 0.11308 0.40481 0.44647 0.0
H835 H 0.11391 0.38927 0.38645 0.0
H836 H 0.14427 0.54364 0.5846 0.0
H837 H 0.19876 0.61709 0.59149 0.0
H838 H 0.13176 0.59844 0.54703 0.0
H839 H 0.17226 0.62848 0.56365 0.0
Eu840 Eu 0.61401 0.07484 0.82233 0.0
C841 C 0.53531 0.10087 0.81484 0.0
C842 C 0.55427 0.13705 0.78077 0.0
C843 C 0.51139 0.11418 0.78379 0.0
C844 C 0.55566 0.11992 0.80171 0.0
C845 C 0.51291 0.0976 0.80563 0.0
C846 C 0.53203 0.13399 0.77169 0.0
C847 C 0.49522 0.062 0.84067 0.0
N848 N 0.53744 0.08488 0.83513 0.0
C849 C 0.5178 0.06595 0.84897 0.0
C850 C 0.49274 0.07772 0.81854 0.0
Eu851 Eu 0.57652 0.09362 0.84971 0.0
N852 N 0.57678 0.1214 0.80887 0.0
C853 C 0.59734 0.14064 0.79819 0.0
C854 C 0.5753 0.15678 0.76971 0.0
C855 C 0.59695 0.15872 0.77886 0.0
H856 H 0.51946 0.0538 0.86648 0.0
H857 H 0.61332 0.1739 0.77047 0.0
H858 H 0.5306 0.1468 0.75523 0.0
H859 H 0.47974 0.04689 0.85152 0.0
H860 H 0.61412 0.14226 0.8048 0.0
H861 H 0.57302 0.97881 0.79569 0.0
H862 H 0.57502 0.1705 0.754 0.0
H863 H 0.64853 0.10592 0.89099 0.0
H864 H 0.5864 0.02001 0.7805 0.0
H865 H 0.66741 0.09972 0.94287 0.0
H866 H 0.49435 0.11194 0.77634 0.0
H867 H 0.58423 0.96912 0.85285 0.0
H868 H 0.60758 0.98311 0.90884 0.0
H869 H 0.47521 0.0745 0.81193 0.0
H870 H 0.63458 0.01595 0.94752 0.0
N871 N 0.60074 0.03374 0.83224 0.0
C872 C 0.58963 0.01618 0.80714 0.0
C873 C 0.58897 0.98724 0.8474 0.0
C874 C 0.60249 0.00537 0.87148 0.0
C875 C 0.58267 -0.0073 0.81501 0.0
C876 C 0.6079 0.02871 0.86345 0.0
H877 H 0.65778 0.05931 0.95938 0.0
N878 N 0.6272 0.06942 0.87843 0.0
C879 C 0.65455 0.08473 0.9275 0.0
C880 C 0.62228 0.04712 0.88631 0.0
C881 C 0.64342 0.08815 0.89821 0.0
C882 C 0.64917 0.06193 0.93661 0.0
C883 C 0.63276 0.04277 0.91619 0.0
O884 O 0.65184 0.0982 0.81464 0.0
O885 O 0.59595 0.09419 0.79716 0.0
O886 O 0.55389 0.05729 0.82629 0.0
O887 O 0.57992 0.05053 0.79412 0.0
O888 O 0.6074 0.07877 0.76211 0.0
O889 O 0.63557 0.06184 0.79731 0.0
O890 O 0.55943 0.09292 0.90026 0.0
O891 O 0.59572 0.07574 0.87647 0.0
O892 O 0.63755 0.1145 0.82959 0.0
O893 O 0.61442 0.12237 0.86631 0.0
O894 O 0.55959 0.05991 0.88255 0.0
O895 O 0.5827 0.12611 0.87489 0.0
C896 C 0.59717 0.09158 0.76181 0.0
C897 C 0.6661 0.0909 0.7619 0.0
C898 C 0.66424 0.08759 0.69754 0.0
C899 C 0.65394 0.07961 0.7308 0.0
C900 C 0.68703 0.10715 0.69494 0.0
C901 C 0.6888 0.11078 0.75944 0.0
C902 C 0.69919 0.11888 0.72599 0.0
C903 C 0.55887 0.04788 0.79895 0.0
C904 C 0.6545 0.08268 0.79653 0.0
C905 C 0.62697 0.01958 0.92444 0.0
C906 C 0.61159 0.00089 0.90244 0.0
C907 C 0.57759 0.0587 0.89408 0.0
C908 C 0.5848 0.12543 0.93682 0.0
C909 C 0.59947 0.14988 0.93935 0.0
C910 C 0.61129 0.16061 0.97103 0.0
C911 C 0.60966 0.14591 0.99968 0.0
C912 C 0.58328 0.11105 0.96547 0.0
C913 C 0.59602 0.12133 0.99659 0.0
C914 C 0.63519 0.1289 0.85157 0.0
C915 C 0.57144 0.11573 0.90379 0.0
H916 H 0.63642 0.06418 0.73223 0.0
H917 H 0.69533 0.11316 0.66919 0.0
H918 H 0.69838 0.12002 0.78327 0.0
H919 H 0.71672 0.13414 0.72415 0.0
H920 H 0.601 0.16063 0.91656 0.0
H921 H 0.6178 0.15318 1.02519 0.0
H922 H 0.57226 0.09201 0.96395 0.0
H923 H 0.59466 0.11026 1.01887 0.0
Eu924 Eu 0.5213 0.60908 0.16916 0.0
C925 C 0.42082 0.54122 0.14773 0.0
C926 C 0.41385 0.56468 0.10434 0.0
C927 C 0.38747 0.52221 0.10683 0.0
C928 C 0.42745 0.56317 0.13239 0.0
C929 C 0.40076 0.52061 0.13491 0.0
C930 C 0.3939 0.54415 0.09176 0.0
C931 C 0.4075 0.49815 0.17971 0.0
N932 N 0.43387 0.53992 0.17494 0.0
C933 C 0.42696 0.51898 0.19199 0.0
C934 C 0.39444 0.49893 0.15089 0.0
Eu935 Eu 0.46433 0.57677 0.19539 0.0
N936 N 0.44745 0.58279 0.14387 0.0
C937 C 0.45406 0.60445 0.12971 0.0
C938 C 0.42101 0.58673 0.08906 0.0
C939 C 0.44118 0.60667 0.10182 0.0
H940 H 0.43674 0.51844 0.21486 0.0
H941 H 0.44673 0.62382 0.09036 0.0
H942 H 0.38341 0.54501 1.0701 0.0
H943 H 0.40244 0.48154 0.1927 0.0
H944 H 0.46934 0.62001 0.13966 0.0
H945 H 0.57871 0.57715 0.11662 0.0
H946 H 0.41109 0.58854 1.06738 0.0
H947 H 0.52636 0.63906 0.24435 0.0
H948 H 0.54644 0.58662 0.11472 0.0
H949 H 0.55228 0.65397 0.29708 0.0
H950 H 0.37206 0.50655 0.09666 0.0
H951 H 0.60348 0.58644 0.17071 0.0
H952 H 0.61413 0.605 0.23152 0.0
H953 H 0.37927 0.48275 0.14156 0.0
H954 H 0.60733 0.62635 0.28011 0.0
N955 N 0.55176 0.59934 0.16818 0.0
C956 C 0.55685 0.59021 0.13874 0.0
C957 C 0.58905 0.59018 0.17026 0.0
C958 C 0.5847 0.6009 0.19949 0.0
C959 C 0.57516 0.58497 0.13965 0.0
C960 C 0.56552 0.60514 0.19778 0.0
H961 H 0.5846 0.64493 0.30454 0.0
N962 N 0.54273 0.62053 0.22324 0.0
C963 C 0.55478 0.64315 0.27752 0.0
C964 C 0.56125 0.61658 0.22569 0.0
C965 C 0.53998 0.63452 0.24776 0.0
C966 C 0.57304 0.63807 0.28157 0.0
C967 C 0.57665 0.62487 0.25532 0.0
O968 O 0.53083 0.64573 0.15943 0.0
O969 O 0.48506 0.58746 0.14226 0.0
O970 O 0.47191 0.54931 0.17563 0.0
O971 O 0.51191 0.57074 0.16237 0.0
O972 O 0.51277 0.5982 0.10935 0.0
O973 O 0.55535 0.63397 0.14556 0.0
O974 O 0.43708 0.55859 0.2361 0.0
O975 O 0.50106 0.59396 0.22228 0.0
O976 O 0.50648 0.6344 0.17684 0.0
O977 O 0.47732 0.61455 0.21723 0.0
O978 O 0.47647 0.56074 0.23937 0.0
O979 O 0.43774 0.58665 0.20383 0.0
C980 C 0.48986 0.58634 0.10813 0.0
C981 C 0.55714 0.66554 0.11312 0.0
C982 C 0.56263 0.66527 1.04968 0.0
C983 C 0.55082 0.65377 0.08066 0.0
C984 C 0.57696 0.68997 1.04997 0.0
C985 C 0.5716 0.69017 0.11392 0.0
C986 C 0.58078 0.70247 0.08205 0.0
C987 C 0.49141 0.55079 0.1634 0.0
C988 C 0.55124 0.6516 0.14567 0.0
C989 C 0.59546 0.62027 0.25743 0.0
C990 C 0.59934 0.60813 0.22974 0.0
C991 C 0.49843 0.57685 0.24373 0.0
C992 C 0.41127 0.5732 0.25106 0.0
C993 C 0.42136 0.59096 0.27672 0.0
C994 C 0.40679 0.59548 0.29871 0.0
C995 C 0.38206 0.58265 0.29346 0.0
C996 C 0.38676 0.56024 0.2463 0.0
C997 C 0.37217 0.56511 0.26738 0.0
C998 C 0.49191 0.63447 0.20113 0.0
C999 C 0.42595 0.5696 0.22622 0.0
H1000 H 0.53935 0.63485 0.08015 0.0
H1001 H 0.58638 0.69933 1.02628 0.0
H1002 H 0.57639 0.6997 0.13905 0.0
H1003 H 0.59221 0.72144 0.08259 0.0
H1004 H 0.44042 0.60095 0.27976 0.0
H1005 H 0.37018 0.58515 0.31076 0.0
H1006 H 0.37899 0.54667 0.22587 0.0
H1007 H 0.35319 0.55507 0.26391 0.0
H1008 H 0.47515 0.16315 0.3252 0.0
H1009 H 0.47487 0.19848 0.30547 0.0
H1010 H 0.50583 0.19546 0.20555 0.0
H1011 H 0.50544 0.15918 0.22512 0.0
H1012 H 0.52634 0.24055 0.2265 0.0
H1013 H 0.44426 0.18605 0.20425 0.0
H1014 H 0.40275 0.15493 0.21271 0.0
H1015 H 0.39972 0.18789 0.31042 0.0
H1016 H 0.44093 0.2198 0.30164 0.0
H1017 H 0.48775 0.31889 0.14202 0.0
H1018 H 0.48839 0.28263 0.15807 0.0
H1019 H 0.49465 0.30233 0.26884 0.0
H1020 H 0.49442 0.33874 0.25251 0.0
H1021 H 0.45508 0.24872 0.2394 0.0
H1022 H 0.53763 0.30796 0.24929 0.0
H1023 H 0.57477 0.34106 0.22615 0.0
H1024 H 0.57478 0.29679 0.14109 0.0
H1025 H 0.53722 0.26374 0.16307 0.0
C1026 C 0.48189 0.16978 0.29886 0.0
C1027 C 0.49015 0.15771 0.27684 0.0
C1028 C 0.48152 0.19017 0.28737 0.0
C1029 C 0.48982 0.19994 0.25345 0.0
C1030 C 0.49903 0.18854 0.23176 0.0
C1031 C 0.49903 0.16773 0.24311 0.0
C1032 C 0.48969 0.22241 0.24188 0.0
C1033 C 0.51057 0.24203 0.22908 0.0
C1034 C 0.46944 0.22522 0.24505 0.0
C1035 C 0.44576 0.20498 0.25267 0.0
C1036 C 0.43481 0.18648 0.22776 0.0
C1037 C 0.41123 0.16895 0.23229 0.0
C1038 C 0.39866 0.16932 0.26224 0.0
C1039 C 0.40953 0.18751 0.28739 0.0
C1040 C 0.43292 0.20545 0.28247 0.0
C1041 C 0.48975 0.31577 0.16977 0.0
C1042 C 0.49208 0.3325 0.19586 0.0
C1043 C 0.48999 0.29484 0.179 0.0
C1044 C 0.49183 0.28946 0.21481 0.0
C1045 C 0.49352 0.30587 0.24098 0.0
C1046 C 0.49386 0.32705 0.2316 0.0
C1047 C 0.49174 0.26676 0.2248 0.0
C1048 C 0.47083 0.24717 0.23717 0.0
C1049 C 0.5118 0.26386 0.22056 0.0
C1050 C 0.53446 0.28356 0.20753 0.0
C1051 C 0.5454 0.30544 0.22538 0.0
C1052 C 0.56653 0.32415 0.21255 0.0
C1053 C 0.57709 0.32103 0.18217 0.0
C1054 C 0.56654 0.2992 0.16458 0.0
C1055 C 0.54531 0.2805 0.17718 0.0
H1056 H 0.59348 0.33552 0.1723 0.0
H1057 H 0.38049 0.15557 0.26588 0.0
H1058 H 0.31505 0.49947 0.67993 0.0
H1059 H 0.27981 0.50033 0.66067 0.0
H1060 H 0.29476 0.4908 0.55164 0.0
H1061 H 0.33122 0.4922 0.57111 0.0
H1062 H 0.27573 0.51184 0.54184 0.0
H1063 H 0.23498 0.44232 0.61595 0.0
H1064 H 0.22455 0.41665 0.66883 0.0
H1065 H 0.22196 0.47009 0.73271 0.0
H1066 H 0.23208 0.49589 0.68007 0.0
H1067 H 0.1574 0.47917 0.48548 0.0
H1068 H 0.19325 0.47945 0.50482 0.0
H1069 H 0.19393 0.51587 0.60127 0.0
H1070 H 0.15754 0.51525 0.58204 0.0
H1071 H 0.20381 0.48084 0.61635 0.0
H1072 H 0.23437 0.54277 0.52609 0.0
H1073 H 0.23666 0.55807 0.46539 0.0
H1074 H 0.25174 0.50569 0.42321 0.0
H1075 H 0.24929 0.48993 0.48356 0.0
C1076 C 0.31106 0.49801 0.65172 0.0
C1077 C 0.32662 0.49632 0.62723 0.0
C1078 C 0.29021 0.49784 0.64052 0.0
C1079 C 0.28318 0.49493 0.60428 0.0
C1080 C 0.29897 0.49328 0.57976 0.0
C1081 C 0.32025 0.49421 0.59092 0.0
C1082 C 0.26046 0.49481 0.5918 0.0
C1083 C 0.26006 0.50452 0.55834 0.0
C1084 C 0.23914 0.48571 0.61223 0.0
C1085 C 0.23503 0.47126 0.64443 0.0
C1086 C 0.23258 0.44871 0.64145 0.0
C1087 C 0.2265 0.43406 0.67127 0.0
C1088 C 0.22288 0.44185 0.7042 0.0
C1089 C 0.22503 0.46418 0.70728 0.0
C1090 C 0.23088 0.47879 0.67747 0.0
C1091 C 0.16528 0.48767 0.51062 0.0
C1092 C 0.15441 0.49771 0.53159 0.0
C1093 C 0.18608 0.48784 0.52175 0.0
C1094 C 0.19716 0.49805 0.55451 0.0
C1095 C 0.18629 0.50802 0.57571 0.0
C1096 C 0.16545 0.50797 0.56441 0.0
C1097 C 0.21945 0.4977 0.56687 0.0
C1098 C 0.21967 0.48801 0.60019 0.0
C1099 C 0.24005 0.50555 0.54547 0.0
C1100 C 0.24147 0.51509 0.50929 0.0
C1101 C 0.23803 0.53444 0.50383 0.0
C1102 C 0.23938 0.5432 0.46949 0.0
C1103 C 0.2443 0.53284 0.44045 0.0
C1104 C 0.24792 0.5137 0.4457 0.0
C1105 C 0.24657 0.50487 0.47996 0.0
H1106 H 0.24533 0.53965 0.4139 0.0
H1107 H 0.21822 0.4305 0.72724 0.0
H1108 H 0.84721 0.31311 0.91079 0.0
H1109 H 0.8111 0.27593 0.89702 0.0
H1110 H 0.76914 0.30488 0.93795 0.0
H1111 H 0.80551 0.34227 0.95206 0.0
H1112 H 0.7535 0.2547 0.96109 0.0
H1113 H 0.77131 0.30058 0.85079 0.0
H1114 H 0.80053 0.32465 0.80505 0.0
H1115 H 0.8118 0.26672 0.78008 0.0
H1116 H 0.78275 0.24238 0.82589 0.0
H1117 H 0.64024 0.16449 0.89856 0.0
H1118 H 0.67592 0.20178 0.91377 0.0
H1119 H 0.71643 0.18445 0.84136 0.0
H1120 H 0.68079 0.14752 0.82575 0.0
H1121 H 0.73407 0.22858 0.83523 0.0
H1122 H 0.71802 0.18129 0.93548 0.0
H1123 H 0.69547 0.15491 0.9848 0.0
H1124 H 0.68875 0.21082 1.03403 0.0
H1125 H 0.71029 0.23724 0.98411 0.0
C1126 C 0.83036 0.31169 0.91695 0.0
C1127 C 0.82965 0.33106 0.93267 0.0
C1128 C 0.80951 0.29022 0.90895 0.0
C1129 C 0.78691 0.28704 0.91646 0.0
C1130 C 0.78609 0.30643 0.93194 0.0
C1131 C 0.80704 0.32809 0.9396 0.0
C1132 C 0.76443 0.26399 0.90674 0.0
C1133 C 0.74898 0.24929 0.93352 0.0
C1134 C 0.75887 0.25575 0.87101 0.0
C1135 C 0.77484 0.26967 0.84164 0.0
C1136 C 0.77992 0.29295 0.83536 0.0
C1137 C 0.79649 0.30666 0.80952 0.0
C1138 C 0.808 0.29721 0.78966 0.0
C1139 C 0.80282 0.27398 0.79542 0.0
C1140 C 0.78624 0.26019 0.82122 0.0
C1141 C 0.65666 0.16853 0.88579 0.0
C1142 C 0.65713 0.15246 0.86091 0.0
C1143 C 0.67738 0.19006 0.89469 0.0
C1144 C 0.6996 0.19646 0.87927 0.0
C1145 C 0.69995 0.18053 0.85397 0.0
C1146 C 0.67927 0.15907 0.84509 0.0
C1147 C 0.72229 0.21939 0.88956 0.0
C1148 C 0.73808 0.23399 0.86289 0.0
C1149 C 0.72864 0.22701 0.9256 0.0
C1150 C 0.7155 0.21119 0.95569 0.0
C1151 C 0.71142 0.18788 0.95652 0.0
C1152 C 0.69876 0.17288 0.98456 0.0
C1153 C 0.69048 0.18111 1.01238 0.0
C1154 C 0.69496 0.20439 1.01227 0.0
C1155 C 0.70731 0.21937 0.98401 0.0
H1156 H 0.68071 0.16949 1.03412 0.0
H1157 H 0.82093 0.3079 0.76982 0.0
H1158 H 0.5043 0.6598 0.26462 0.0
H1159 H 0.50857 0.69849 0.27782 0.0
H1160 H 0.48492 0.70123 0.17175 0.0
H1161 H 0.48328 0.66357 0.15748 0.0
H1162 H 0.51239 0.74483 0.18858 0.0
H1163 H 0.44936 0.68407 0.25909 0.0
H1164 H 0.4371 0.65092 0.29896 0.0
H1165 H 0.48551 0.69673 0.3793 0.0
H1166 H 0.49954 0.73029 0.33785 0.0
H1167 H 0.47891 0.83275 0.23485 0.0
H1168 H 0.48055 0.7975 0.21507 0.0
H1169 H 0.50188 0.79029 0.32077 0.0
H1170 H 0.49867 0.82407 0.34069 0.0
H1171 H 0.47643 0.75002 0.30223 0.0
H1172 H 0.54099 0.81068 0.23853 0.0
H1173 H 0.56069 0.84508 0.19859 0.0
H1174 H 0.51494 0.80421 0.11278 0.0
H1175 H 0.49497 0.76951 0.15207 0.0
C1176 C 0.49988 0.66851 0.24405 0.0
C1177 C 0.49274 0.65779 0.21018 0.0
C1178 C 0.50215 0.69091 0.25171 0.0
C1179 C 0.496 0.7032 0.22662 0.0
C1180 C 0.4895 0.69267 0.19234 0.0
C1181 C 0.48825 0.67071 0.18419 0.0
C1182 C 0.49525 0.726 0.23652 0.0
C1183 C 0.50425 0.74568 0.21333 0.0
C1184 C 0.48555 0.72858 0.26922 0.0
C1185 C 0.47549 0.70946 0.29544 0.0
C1186 C 0.45722 0.68709 0.28538 0.0
C1187 C 0.45009 0.66816 0.30834 0.0
C1188 C 0.46022 0.67158 0.34226 0.0
C1189 C 0.47764 0.69409 0.35311 0.0
C1190 C 0.48536 0.71306 0.32973 0.0
C1191 C 0.48358 0.82342 0.254 0.0
C1192 C 0.48881 0.83175 0.28952 0.0
C1193 C 0.48499 0.8033 0.24246 0.0
C1194 C 0.49192 0.79083 0.26589 0.0
C1195 C 0.49653 0.799 0.30151 0.0
C1196 C 0.49482 0.81873 0.31302 0.0
C1197 C 0.4936 0.76894 0.25456 0.0
C1198 C 0.48469 0.74937 0.27748 0.0
C1199 C 0.50408 0.76701 0.22222 0.0
C1200 C 0.51637 0.78756 0.19827 0.0
C1201 C 0.5351 0.80905 0.21114 0.0
C1202 C 0.54631 0.82858 0.18868 0.0
C1203 C 0.539 0.82685 0.1533 0.0
C1204 C 0.52057 0.80551 0.14021 0.0
C1205 C 0.50935 0.78588 0.16251 0.0
H1206 H 0.54766 0.84203 0.13601 0.0
H1207 H 0.45482 0.65692 0.36014 0.0
H1208 H 0.65692 0.51426 0.58024 0.0
H1209 H 0.69549 0.51943 0.56436 0.0
H1210 H 0.69575 0.48405 0.66094 0.0
H1211 H 0.65883 0.48249 0.67923 0.0
H1212 H 0.73763 0.51279 0.65134 0.0
H1213 H 0.6804 0.46284 0.55633 0.0
H1214 H 0.65302 0.4604 0.5091 0.0
H1215 H 0.70929 0.51912 0.45537 0.0
H1216 H 0.73686 0.52317 0.50331 0.0
H1217 H 0.8258 0.48299 0.60033 0.0
H1218 H 0.78904 0.48257 0.61676 0.0
H1219 H 0.7946 0.52243 0.52257 0.0
H1220 H 0.83041 0.52193 0.50566 0.0
H1221 H 0.75121 0.49334 0.5289 0.0
H1222 H 0.80581 0.54798 0.6089 0.0
H1223 H 0.83833 0.56401 0.65263 0.0
H1224 H 0.79435 0.51023 0.72713 0.0
H1225 H 0.76157 0.49368 0.68357 0.0
C1226 C 0.6651 0.50738 0.59796 0.0
C1227 C 0.65437 0.49759 0.63084 0.0
C1228 C 0.68732 0.51004 0.5886 0.0
C1229 C 0.6988 0.50103 0.61015 0.0
C1230 C 0.68777 0.49104 0.64304 0.0
C1231 C 0.6663 0.48981 0.65347 0.0
C1232 C 0.72201 0.50193 0.59908 0.0
C1233 C 0.7401 0.50794 0.62467 0.0
C1234 C 0.72691 0.49736 0.56366 0.0
C1235 C 0.71068 0.49333 0.53351 0.0
C1236 C 0.68699 0.47511 0.53431 0.0
C1237 C 0.6714 0.47351 0.50752 0.0
C1238 C 0.67938 0.48926 0.47907 0.0
C1239 C 0.70309 0.50685 0.47737 0.0
C1240 C 0.71869 0.50895 0.50447 0.0
C1241 C 0.81932 0.49186 0.58328 0.0
C1242 C 0.83204 0.50345 0.55235 0.0
C1243 C 0.79817 0.49171 0.59278 0.0
C1244 C 0.78875 0.5029 0.57148 0.0
C1245 C 0.80116 0.51384 0.54007 0.0
C1246 C 0.82224 0.51406 0.53073 0.0
C1247 C 0.76609 0.50313 0.58153 0.0
C1248 C 0.74836 0.4976 0.55577 0.0
C1249 C 0.76204 0.50936 0.61612 0.0
C1250 C 0.78132 0.51945 0.64288 0.0
C1251 C 0.8031 0.5395 0.63457 0.0
C1252 C 0.82157 0.54869 0.6593 0.0
C1253 C 0.81843 0.5381 0.69261 0.0
C1254 C 0.79675 0.51839 0.70129 0.0
C1255 C 0.77819 0.50911 0.6766 0.0
H1256 H 0.83277 0.54521 0.71172 0.0
H1257 H 0.66716 0.4879 0.45848 0.0
H1258 H 0.33261 0.79846 0.86079 0.0
H1259 H 0.29677 0.76299 0.88033 0.0
H1260 H 0.2768 0.80664 0.94127 0.0
H1261 H 0.3146 0.8412 0.92665 0.0
H1262 H 0.25492 0.77224 0.97091 0.0
H1263 H 0.25328 0.7754 0.84666 0.0
H1264 H 0.26577 0.77814 0.78399 0.0
H1265 H 0.26605 0.71277 0.79377 0.0
H1266 H 0.25385 0.70978 0.85667 0.0
H1267 H 0.13808 0.65236 0.90765 0.0
H1268 H 0.17475 0.68859 0.89275 0.0
H1269 H 0.19705 0.69544 1.00252 0.0
H1270 H 0.15934 0.66076 1.01763 0.0
H1271 H 0.2154 0.70599 0.88502 0.0
H1272 H 0.23958 0.7474 1.02905 0.0
H1273 H 0.21892 0.7514 0.08147 0.0
H1274 H 0.16026 0.73941 1.01545 0.0
H1275 H 0.18064 0.73555 0.96259 0.0
C1276 C 0.32088 0.80038 0.8792 0.0
C1277 C 0.32639 0.82304 0.89121 0.0
C1278 C 0.29972 0.77993 0.88973 0.0
C1279 C 0.28243 0.78136 0.91098 0.0
C1280 C 0.28887 0.80407 0.92455 0.0
C1281 C 0.31061 0.82425 0.91562 0.0
C1282 C 0.25803 0.75964 0.91898 0.0
C1283 C 0.24652 0.75794 0.95176 0.0
C1284 C 0.24539 0.74078 0.89416 0.0
C1285 C 0.25294 0.74252 0.85649 0.0
C1286 C 0.25617 0.76169 0.83551 0.0
C1287 C 0.26318 0.76328 0.79995 0.0
C1288 C 0.26679 0.74568 0.78495 0.0
C1289 C 0.26332 0.72642 0.80546 0.0
C1290 C 0.25635 0.72476 0.84107 0.0
C1291 C 0.1508 0.6617 0.92862 0.0
C1292 C 0.14552 0.65347 0.96394 0.0
C1293 C 0.17208 0.68264 0.92008 0.0
C1294 C 0.18935 0.69589 0.94633 0.0
C1295 C 0.18423 0.68688 0.98145 0.0
C1296 C 0.16258 0.66654 0.99018 0.0
C1297 C 0.21259 0.71853 0.93703 0.0
C1298 C 0.22383 0.72039 0.90403 0.0
C1299 C 0.22385 0.73856 0.96019 0.0
C1300 C 0.21154 0.74089 0.99194 0.0
C1301 C 0.2223 0.74566 1.02571 0.0
C1302 C 0.21062 0.74788 1.05549 0.0
C1303 C 0.18825 0.74555 1.0518 0.0
C1304 C 0.17753 0.74108 1.01829 0.0
C1305 C 0.18912 0.73884 0.98843 0.0
H1306 H 0.17924 0.74726 1.07489 0.0
H1307 H 0.2722 0.74694 0.7574 0.0
H1308 H 0.59826 0.19014 0.93671 0.0
H1309 H 0.59567 0.22072 0.96778 0.0
H1310 H 0.64286 0.22205 1.04843 0.0
H1311 H 0.64648 0.19141 1.01707 0.0
H1312 H 0.58893 0.17982 1.03881 0.0
H1313 H 0.64038 0.26576 1.04848 0.0
H1314 H 0.65879 0.30518 1.02098 0.0
H1315 H 0.59018 0.29509 0.99571 0.0
H1316 H 0.57138 0.25546 1.02264 0.0
H1317 H 0.59949 0.20622 0.19541 0.0
H1318 H 0.59574 0.22905 0.14789 0.0
H1319 H 0.52395 0.17414 0.12925 0.0
H1320 H 0.52787 0.1505 0.17579 0.0
H1321 H 0.5741 0.24076 0.0925 0.0
H1322 H 0.52342 0.15129 1.07196 0.0
H1323 H 0.50636 0.11007 0.0925 0.0
H1324 H 0.57443 0.12496 0.13055 0.0
H1325 H 0.59177 0.16631 0.11067 0.0
C1326 C 0.60951 0.19758 0.95977 0.0
C1327 C 0.62083 0.18646 0.97638 0.0
C1328 C 0.60826 0.21577 0.97733 0.0
C1329 C 0.61694 0.22149 1.01206 0.0
C1330 C 0.63468 0.21648 1.02242 0.0
C1331 C 0.63622 0.19836 1.00491 0.0
C1332 C 0.59876 0.21664 1.03909 0.0
C1333 C 0.58564 0.19318 1.05048 0.0
C1334 C 0.59316 0.23352 1.05201 0.0
C1335 C 0.6045 0.25764 1.03732 0.0
C1336 C 0.62923 0.27192 1.0369 0.0
C1337 C 0.63974 0.2943 1.02145 0.0
C1338 C 0.62567 0.30262 1.00655 0.0
C1339 C 0.60106 0.28863 1.00727 0.0
C1340 C 0.59048 0.26624 1.02268 0.0
C1341 C 0.58261 0.19934 0.18201 0.0
C1342 C 0.56467 0.17595 0.18702 0.0
C1343 C 0.58018 0.21268 0.15542 0.0
C1344 C 0.56032 0.20206 0.13298 0.0
C1345 C 0.54001 0.18185 0.14498 0.0
C1346 C 0.54238 0.16823 0.17144 0.0
C1347 C 0.56602 0.20446 0.09468 0.0
C1348 C 0.57672 0.22724 1.07989 0.0
C1349 C 0.5693 0.18673 1.07784 0.0
C1350 C 0.55872 0.16203 0.09078 0.0
C1351 C 0.53466 0.14581 0.08509 0.0
C1352 C 0.52496 0.12243 0.09658 0.0
C1353 C 0.53925 0.11497 0.11316 0.0
C1354 C 0.56332 0.13081 0.11802 0.0
C1355 C 0.57307 0.15423 0.10678 0.0
H1356 H 0.53171 0.09688 0.12199 0.0
H1357 H 0.63383 0.31992 0.99448 0.0
H1358 H 0.44325 0.6004 0.34213 0.0
H1359 H 0.44173 0.60503 0.40639 0.0
H1360 H 0.39183 0.62891 0.39196 0.0
H1361 H 0.39395 0.62583 0.32834 0.0
H1362 H 0.38912 0.61839 0.45424 0.0
H1363 H 0.37355 0.54956 0.3479 0.0
H1364 H 0.39484 0.53389 0.31276 0.0
H1365 H 0.44371 0.54972 0.39895 0.0
H1366 H 0.42238 0.56502 0.43477 0.0
H1367 H 0.35239 0.5613 0.55436 0.0
H1368 H 0.31953 0.55595 0.51496 0.0
H1369 H 0.32599 0.5069 0.4518 0.0
H1370 H 0.35824 0.50951 0.4894 0.0
H1371 H 0.35421 0.53489 0.41655 0.0
H1372 H 0.37237 0.61117 0.51876 0.0
H1373 H 0.35155 0.62979 0.54714 0.0
H1374 H 0.29598 0.59736 0.46941 0.0
H1375 H 0.3166 0.57867 0.44043 0.0
C1376 C 0.43275 0.60774 0.35242 0.0
C1377 C 0.41649 0.61023 0.33078 0.0
C1378 C 0.43176 0.61016 0.38927 0.0
C1379 C 0.41305 0.6125 0.40298 0.0
C1380 C 0.40426 0.62397 0.38154 0.0
C1381 C 0.40499 0.62173 0.34493 0.0
C1382 C 0.39465 0.59331 0.42493 0.0
C1383 C 0.38189 0.59981 0.44774 0.0
C1384 C 0.38441 0.56917 0.41445 0.0
C1385 C 0.39708 0.55957 0.39325 0.0
C1386 C 0.389 0.54995 0.35913 0.0
C1387 C 0.40097 0.54098 0.33921 0.0
C1388 C 0.42086 0.54118 0.35338 0.0
C1389 C 0.42853 0.54992 0.38778 0.0
C1390 C 0.4164 0.5586 0.40797 0.0
C1391 C 0.34719 0.54933 0.53177 0.0
C1392 C 0.36001 0.53814 0.52181 0.0
C1393 C 0.32928 0.54701 0.50872 0.0
C1394 C 0.33026 0.53968 0.47369 0.0
C1395 C 0.33206 0.51898 0.47427 0.0
C1396 C 0.35026 0.5202 0.49573 0.0
C1397 C 0.34899 0.5591 0.45034 0.0
C1398 C 0.36147 0.55299 0.42551 0.0
C1399 C 0.35906 0.58354 0.45908 0.0
C1400 C 0.3459 0.59344 0.47763 0.0
C1401 C 0.35567 0.60799 0.50782 0.0
C1402 C 0.34393 0.61856 0.52398 0.0
C1403 C 0.32244 0.61474 0.5101 0.0
C1404 C 0.31259 0.60023 0.48017 0.0
C1405 C 0.32425 0.58959 0.46392 0.0
H1406 H 0.31344 0.62306 0.52252 0.0
H1407 H 0.43016 0.53432 0.3379 0.0
H1408 H 0.80093 0.41306 0.87981 0.0
H1409 H 0.76184 0.38572 0.85639 0.0
H1410 H 0.7938 0.36006 0.78036 0.0
H1411 H 0.83209 0.38654 0.80431 0.0
H1412 H 0.75478 0.33681 0.76546 0.0
H1413 H 0.71299 0.37072 0.82017 0.0
H1414 H 0.70602 0.39345 0.86678 0.0
H1415 H 0.77215 0.45508 0.84149 0.0
H1416 H 0.77934 0.43274 0.79453 0.0
H1417 H 0.77857 0.37596 0.6023 0.0
H1418 H 0.74883 0.36815 0.64777 0.0
H1419 H 0.80114 0.42579 0.71127 0.0
H1420 H 0.83095 0.43361 0.66575 0.0
H1421 H 0.75307 0.40941 0.73431 0.0
H1422 H 0.80962 0.38736 0.72408 0.0
H1423 H 0.83703 0.37486 0.70117 0.0
H1424 H 0.77839 0.30968 0.66387 0.0
H1425 H 0.75047 0.32187 0.68691 0.0
C1426 C 0.79937 0.40152 0.85785 0.0
C1427 C 0.81959 0.40327 0.84151 0.0
C1428 C 0.77696 0.38601 0.84416 0.0
C1429 C 0.77467 0.3731 0.81288 0.0
C1430 C 0.7946 0.37144 0.8019 0.0
C1431 C 0.81689 0.38684 0.81538 0.0
C1432 C 0.75548 0.36775 0.78614 0.0
C1433 C 0.75365 0.35234 0.7585 0.0
C1434 C 0.7511 0.38634 0.77684 0.0
C1435 C 0.7466 0.40013 0.80389 0.0
C1436 C 0.72592 0.38916 0.82447 0.0
C1437 C 0.72196 0.40197 0.85092 0.0
C1438 C 0.73862 0.4257 0.85705 0.0
C1439 C 0.75921 0.43674 0.83659 0.0
C1440 C 0.76317 0.42407 0.8099 0.0
C1441 C 0.78336 0.38757 0.62531 0.0
C1442 C 0.80701 0.40447 0.6319 0.0
C1443 C 0.76631 0.38339 0.65087 0.0
C1444 C 0.77311 0.39582 0.68322 0.0
C1445 C 0.79567 0.41586 0.6865 0.0
C1446 C 0.81278 0.42009 0.66081 0.0
C1447 C 0.76136 0.38308 0.71588 0.0
C1448 C 0.75399 0.39378 0.74129 0.0
C1449 C 0.76172 0.3622 0.72483 0.0
C1450 C 0.77793 0.35569 0.70653 0.0
C1451 C 0.80254 0.37058 0.71022 0.0
C1452 C 0.81817 0.3634 0.69782 0.0
C1453 C 0.80944 0.34136 0.68139 0.0
C1454 C 0.78508 0.32667 0.67686 0.0
C1455 C 0.76931 0.3337 0.68963 0.0
H1456 H 0.82157 0.33581 0.67175 0.0
H1457 H 0.73558 0.43554 0.87769 0.0
H1458 H 0.38363 0.79944 0.94492 0.0
H1459 H 0.37579 0.76406 0.97492 0.0
H1460 H 0.33657 0.77681 1.05536 0.0
H1461 H 0.34344 0.81246 1.02486 0.0
H1462 H 0.39252 0.8079 1.04771 0.0
H1463 H 0.32661 0.72801 1.0568 0.0
H1464 H 0.29879 0.68872 1.03205 0.0
H1465 H 0.35678 0.67825 1.00398 0.0
H1466 H 0.38498 0.71768 1.02808 0.0
H1467 H 0.37472 0.77073 0.20394 0.0
H1468 H 0.37621 0.74844 0.15347 0.0
H1469 H 0.44932 0.80012 0.1365 0.0
H1470 H 0.44753 0.82362 0.18585 0.0
H1471 H 0.3899 0.73624 0.09595 0.0
H1472 H 0.45497 0.82365 1.07722 0.0
H1473 H 0.47914 0.86488 0.09845 0.0
H1474 H 0.41741 0.86234 0.14357 0.0
H1475 H 0.39297 0.82122 0.12224 0.0
C1476 C 0.37194 0.79429 0.96765 0.0
C1477 C 0.36599 0.81007 0.98448 0.0
C1478 C 0.36707 0.77345 0.98459 0.0
C1479 C 0.3581 0.76966 1.0192 0.0
C1480 C 0.34515 0.78065 1.02958 0.0
C1481 C 0.34972 0.80153 1.0127 0.0
C1482 C 0.37451 0.76984 1.04625 0.0
C1483 C 0.39182 0.79215 1.05841 0.0
C1484 C 0.37484 0.74959 1.05788 0.0
C1485 C 0.3579 0.72587 1.04385 0.0
C1486 C 0.33344 0.71743 1.04502 0.0
C1487 C 0.3176 0.69511 1.03119 0.0
C1488 C 0.32602 0.68103 1.01635 0.0
C1489 C 0.35029 0.68919 1.01544 0.0
C1490 C 0.3662 0.7115 1.02921 0.0
C1491 C 0.39143 0.77691 0.19036 0.0
C1492 C 0.41029 0.79976 0.19642 0.0
C1493 C 0.39251 0.76391 0.16171 0.0
C1494 C 0.41208 0.7744 0.13874 0.0
C1495 C 0.43332 0.79301 0.1522 0.0
C1496 C 0.43228 0.80645 0.18056 0.0
C1497 C 0.40602 0.77413 0.10064 0.0
C1498 C 0.39099 0.752 0.08464 0.0
C1499 C 0.40742 0.79472 0.08543 0.0
C1500 C 0.42235 0.81909 0.09949 0.0
C1501 C 0.44667 0.83182 0.0921 0.0
C1502 C 0.46038 0.85519 0.10396 0.0
C1503 C 0.44987 0.86612 0.12274 0.0
C1504 C 0.42559 0.85378 0.12938 0.0
C1505 C 0.41183 0.83045 0.11752 0.0
H1506 H 0.4605 0.88421 0.13186 0.0
H1507 H 0.31372 0.66376 1.00563 0.0
H1508 H 0.56611 0.34344 0.28859 0.0
H1509 H 0.55953 0.32628 0.34708 0.0
H1510 H 0.50501 0.34321 0.3663 0.0
H1511 H 0.51057 0.35995 0.30775 0.0
H1512 H 0.55148 0.38488 0.35683 0.0
H1513 H 0.51848 0.31621 0.4309 0.0
H1514 H 0.50632 0.27496 0.44567 0.0
H1515 H 0.57821 0.29036 0.43628 0.0
H1516 H 0.59075 0.3316 0.4209 0.0
H1517 H 0.59102 0.43987 0.51089 0.0
H1518 H 0.58549 0.43042 0.44969 0.0
H1519 H 0.63008 0.39899 0.45664 0.0
H1520 H 0.63343 0.4062 0.5208 0.0
H1521 H 0.58971 0.36602 0.45447 0.0
H1522 H 0.62498 0.43392 0.38126 0.0
H1523 H 0.63892 0.47518 0.3643 0.0
H1524 H 0.56744 0.46155 0.36218 0.0
H1525 H 0.55302 0.42041 0.38006 0.0
C1526 C 0.55139 0.34195 0.30399 0.0
C1527 C 0.54069 0.35535 0.29522 0.0
C1528 C 0.54742 0.33191 0.33775 0.0
C1529 C 0.53516 0.33816 0.36224 0.0
C1530 C 0.5169 0.34118 0.34833 0.0
C1531 C 0.52033 0.35109 0.31445 0.0
C1532 C 0.55136 0.35675 0.38751 0.0
C1533 C 0.5596 0.3806 0.3784 0.0
C1534 C 0.56296 0.35164 0.41452 0.0
C1535 C 0.55553 0.32698 0.4246 0.0
C1536 C 0.53168 0.31077 0.43181 0.0
C1537 C 0.52472 0.28739 0.44031 0.0
C1538 C 0.54147 0.28004 0.44187 0.0
C1539 C 0.56524 0.29608 0.43508 0.0
C1540 C 0.57229 0.31947 0.42654 0.0
C1541 C 0.6008 0.43204 0.4995 0.0
C1542 C 0.61116 0.4221 0.52096 0.0
C1543 C 0.5979 0.42688 0.46349 0.0
C1544 C 0.60601 0.41239 0.44875 0.0
C1545 C 0.6225 0.40898 0.46813 0.0
C1546 C 0.62432 0.41294 0.5048 0.0
C1547 C 0.59038 0.39409 0.42283 0.0
C1548 C 0.58208 0.37028 0.43207 0.0
C1549 C 0.57935 0.39926 0.39473 0.0
C1550 C 0.58789 0.42388 0.38212 0.0
C1551 C 0.61219 0.43966 0.37728 0.0
C1552 C 0.62019 0.4631 0.36755 0.0
C1553 C 0.60408 0.47098 0.36216 0.0
C1554 C 0.57991 0.45541 0.36629 0.0
C1555 C 0.57181 0.43199 0.37617 0.0
H1556 H 0.61033 0.48915 0.35481 0.0
H1557 H 0.53604 0.26191 0.44837 0.0
H1558 H 0.16725 0.61373 0.85594 0.0
H1559 H 0.18251 0.62033 0.79693 0.0
H1560 H 0.24873 0.62931 0.83584 0.0
H1561 H 0.23311 0.62213 0.8965 0.0
H1562 H 0.21028 0.63795 0.74856 0.0
H1563 H 0.25739 0.59135 0.80763 0.0
H1564 H 0.2535 0.566 0.85886 0.0
H1565 H 0.17882 0.54044 0.86258 0.0
H1566 H 0.18247 0.56612 0.81214 0.0
H1567 H 0.22202 0.59976 0.59362 0.0
H1568 H 0.24109 0.60712 0.65156 0.0
H1569 H 0.17813 0.54906 0.69569 0.0
H1570 H 0.15823 0.54288 0.63938 0.0
H1571 H 0.22317 0.56922 0.73972 0.0
H1572 H 0.16293 0.58021 0.70139 0.0
H1573 H 0.13531 0.58705 0.66568 0.0
H1574 H 0.19152 0.65623 0.63869 0.0
H1575 H 0.21974 0.6494 0.67334 0.0
C1576 C 0.18557 0.61843 0.85286 0.0
C1577 C 0.19844 0.61569 0.88068 0.0
C1578 C 0.19438 0.62229 0.81851 0.0
C1579 C 0.21623 0.62381 0.81189 0.0
C1580 C 0.23134 0.62703 0.84054 0.0
C1581 C 0.22238 0.62287 0.87513 0.0
C1582 C 0.21956 0.61526 0.77714 0.0
C1583 C 0.21411 0.6236 0.74641 0.0
C1584 C 0.22202 0.59485 0.77487 0.0
C1585 C 0.22028 0.58073 0.80652 0.0
C1586 C 0.24023 0.58046 0.81968 0.0
C1587 C 0.23806 0.56608 0.84858 0.0
C1588 C 0.21593 0.55163 0.86398 0.0
C1589 C 0.19595 0.55165 0.85069 0.0
C1590 C 0.1981 0.56628 0.82223 0.0
C1591 C 0.21249 0.58793 0.61529 0.0
C1592 C 0.18796 0.57256 0.61314 0.0
C1593 C 0.22359 0.59193 0.64823 0.0
C1594 C 0.21032 0.57953 0.6779 0.0
C1595 C 0.18828 0.55927 0.67298 0.0
C1596 C 0.17686 0.55583 0.6404 0.0
C1597 C 0.21458 0.59248 0.71152 0.0
C1598 C 0.22117 0.58474 0.74161 0.0
C1599 C 0.20928 0.61099 0.71451 0.0
C1600 C 0.19367 0.61396 0.68884 0.0
C1601 C 0.16962 0.59655 0.68677 0.0
C1602 C 0.15377 0.60053 0.66715 0.0
C1603 C 0.16163 0.62213 0.65016 0.0
C1604 C 0.18547 0.63954 0.65201 0.0
C1605 C 0.20146 0.63552 0.67131 0.0
H1606 H 0.14928 0.62531 0.63532 0.0
H1607 H 0.21427 0.54044 0.88622 0.0
H1608 H 0.36267 0.90913 0.96115 0.0
H1609 H 0.3718 0.93214 1.01749 0.0
H1610 H 0.4414 0.98004 0.97852 0.0
H1611 H 0.43257 0.95702 0.9252 0.0
H1612 H 0.45227 0.98362 1.03841 0.0
H1613 H 0.38405 -0.00615 1.01079 0.0
H1614 H 0.34218 0.98004 0.99712 0.0
H1615 H 0.32072 0.93102 0.08388 0.0
H1616 H 0.36258 0.94541 0.099 0.0
H1617 H 0.49433 0.06715 0.18539 0.0
H1618 H 0.48051 0.04479 0.13132 0.0
H1619 H 0.40916 0.01199 0.16982 0.0
H1620 H 0.42324 0.03841 0.22159 0.0
H1621 H 0.3976 -0.00263 0.11225 0.0
H1622 H 0.46767 -0.00856 0.14415 0.0
H1623 H 0.51005 0.00689 0.157 0.0
H1624 H 0.52876 0.04395 1.05765 0.0
H1625 H 0.48669 0.02983 1.04506 0.0
C1626 C 0.37992 0.92469 0.96395 0.0
C1627 C 0.39649 0.93053 0.93528 0.0
C1628 C 0.3854 0.93845 0.99733 0.0
C1629 C 0.40795 0.95922 1.00513 0.0
C1630 C 0.42392 0.96473 0.97628 0.0
C1631 C 0.41852 0.95108 0.94386 0.0
C1632 C 0.41596 0.97487 1.04173 0.0
C1633 C 0.43989 0.98641 1.05391 0.0
C1634 C 0.40121 0.97958 1.06508 0.0
C1635 C 0.37627 0.97047 1.05571 0.0
C1636 C 0.37035 0.9801 1.02685 0.0
C1637 C 0.34667 0.97231 1.01905 0.0
C1638 C 0.32878 0.95448 1.03939 0.0
C1639 C 0.33458 0.94475 1.06806 0.0
C1640 C 0.35827 0.95288 1.07649 0.0
C1641 C 0.47547 0.0552 0.18339 0.0
C1642 C 0.4607 0.0549 0.21199 0.0
C1643 C 0.46724 0.04105 0.15122 0.0
C1644 C 0.44317 0.02351 0.1444 0.0
C1645 C 0.428 0.02378 0.17222 0.0
C1646 C 0.43632 0.0391 0.20388 0.0
C1647 C 0.43418 0.0063 0.10914 0.0
C1648 C 0.41007 -0.0055 0.09706 0.0
C1649 C 0.44884 0.00105 0.0859 0.0
C1650 C 0.47407 0.00982 0.09392 0.0
C1651 C 0.48085 0.003 0.12519 0.0
C1652 C 0.50479 0.01151 0.1324 0.0
C1653 C 0.52202 0.02616 0.10803 0.0
C1654 C 0.5154 0.03261 1.07653 0.0
C1655 C 0.49154 0.02453 1.06947 0.0
H1656 H 0.54051 0.03254 0.11358 0.0
H1657 H 0.31043 0.94827 1.033 0.0
H1658 H 0.48433 0.40435 0.3072 0.0
H1659 H 0.47112 0.41355 0.36265 0.0
H1660 H 0.42283 0.42752 0.3043 0.0
H1661 H 0.43865 0.42121 0.24851 0.0
H1662 H 0.42072 0.4469 0.35524 0.0
H1663 H 0.41509 0.37372 0.3838 0.0
H1664 H 0.42829 0.34435 0.388 0.0
H1665 H 0.48603 0.39151 0.45535 0.0
H1666 H 0.47322 0.42122 0.45138 0.0
H1667 H 0.37115 0.46157 0.52491 0.0
H1668 H 0.37905 0.44688 0.46875 0.0
H1669 H 0.43914 0.44771 0.51705 0.0
H1670 H 0.42957 0.4601 0.57359 0.0
H1671 H 0.4307 0.41748 0.47109 0.0
H1672 H 0.43126 0.49012 0.44476 0.0
H1673 H 0.41169 0.51408 0.44389 0.0
H1674 H 0.3592 0.4646 0.37158 0.0
H1675 H 0.37779 0.43967 0.37346 0.0
C1676 C 0.47024 0.40853 0.30564 0.0
C1677 C 0.46177 0.40982 0.27111 0.0
C1678 C 0.46208 0.4138 0.3388 0.0
C1679 C 0.44404 0.42036 0.34127 0.0
C1680 C 0.43604 0.42219 0.30641 0.0
C1681 C 0.44493 0.41781 0.27319 0.0
C1682 C 0.43461 0.42614 0.37847 0.0
C1683 C 0.42348 0.44039 0.38011 0.0
C1684 C 0.43608 0.41773 0.41346 0.0
C1685 C 0.44334 0.39972 0.41704 0.0
C1686 C 0.43057 0.37777 0.39956 0.0
C1687 C 0.438 0.3611 0.40185 0.0
C1688 C 0.45802 0.36609 0.42185 0.0
C1689 C 0.47054 0.38769 0.43985 0.0
C1690 C 0.46319 0.40444 0.43765 0.0
C1691 C 0.38577 0.45815 0.52427 0.0
C1692 C 0.39936 0.4622 0.55602 0.0
C1693 C 0.39095 0.4501 0.49076 0.0
C1694 C 0.41087 0.44651 0.48537 0.0
C1695 C 0.42388 0.45009 0.51758 0.0
C1696 C 0.41837 0.45756 0.55095 0.0
C1697 C 0.41851 0.43954 0.44782 0.0
C1698 C 0.4289 0.42473 0.44617 0.0
C1699 C 0.41598 0.44715 0.41285 0.0
C1700 C 0.40581 0.46291 0.40951 0.0
C1701 C 0.41552 0.48432 0.4287 0.0
C1702 C 0.40453 0.49801 0.42818 0.0
C1703 C 0.38424 0.49091 0.40762 0.0
C1704 C 0.37491 0.47008 0.38751 0.0
C1705 C 0.38561 0.45608 0.38844 0.0
H1706 H 0.37576 0.50156 0.40724 0.0
H1707 H 0.46382 0.35321 0.42345 0.0
H1708 H 0.07094 0.45848 0.63025 0.0
H1709 H 0.04809 0.44343 0.68605 0.0
H1710 H -0.00784 0.45136 0.64105 0.0
H1711 H 0.01535 0.46758 0.58716 0.0
H1712 H -0.01144 0.46175 0.70297 0.0
H1713 H 0.98439 0.38611 0.68177 0.0
H1714 H -0.00291 0.35666 0.67165 0.0
H1715 H 0.05093 0.3903 0.75158 0.0
H1716 H 0.03775 0.41925 0.76332 0.0
H1717 H 0.9007 0.40216 0.84227 0.0
H1718 H 0.92494 0.41255 0.78854 0.0
H1719 H 0.98292 0.41813 0.84993 0.0
H1720 H 0.95894 0.40942 0.9045 0.0
H1721 H 0.98659 0.4008 0.78237 0.0
H1722 H 0.98436 0.47423 0.80507 0.0
H1723 H 0.9639 0.49676 0.81771 0.0
H1724 H 0.91633 0.46198 0.73058 0.0
H1725 H 0.93645 0.43919 0.71747 0.0
C1726 C 0.05341 0.45631 0.6312 0.0
C1727 C 0.04514 0.46316 0.60058 0.0
C1728 C 0.03994 0.44771 0.66447 0.0
C1729 C 0.01718 0.4457 0.67064 0.0
C1730 C 0.00929 0.45269 0.64003 0.0
C1731 C 0.02272 0.46142 0.60739 0.0
C1732 C 0.00219 0.43791 0.70775 0.0
C1733 C -0.01171 0.44812 0.71938 0.0
C1734 C 0.00061 0.42029 0.73246 0.0
C1735 C 0.01046 0.40505 0.72285 0.0
C1736 C -0.00086 0.38736 0.69683 0.0
C1737 C 0.00615 0.37056 0.69123 0.0
C1738 C 0.0249 0.37171 0.7108 0.0
C1739 C 0.03649 0.38951 0.73632 0.0
C1740 C 0.02913 0.40599 0.74269 0.0
C1741 C 0.91841 0.40488 0.84497 0.0
C1742 C 0.92606 0.40247 0.8797 0.0
C1743 C 0.93291 0.41148 0.81318 0.0
C1744 C 0.95689 0.41659 0.81256 0.0
C1745 C 0.9648 0.41419 0.84719 0.0
C1746 C 0.95032 0.40814 0.87944 0.0
C1747 C 0.97305 0.42464 0.77686 0.0
C1748 C 0.98705 0.41451 0.76568 0.0
C1749 C 0.97432 0.44196 0.75205 0.0
C1750 C 0.96188 0.4551 0.76029 0.0
C1751 C 0.9695 0.47138 0.7887 0.0
C1752 C 0.95805 0.48425 0.79584 0.0
C1753 C 0.93904 0.48099 0.77473 0.0
C1754 C 0.93114 0.46456 0.74678 0.0
C1755 C 0.94257 0.4517 0.73943 0.0
H1756 H 0.93037 0.49114 0.78013 0.0
H1757 H 0.03043 0.3588 0.70618 0.0
H1758 H 0.5436 0.92892 0.21164 0.0
H1759 H 0.55969 0.95325 0.15739 0.0
H1760 H 0.50305 0.96852 0.16069 0.0
H1761 H 0.48998 0.9481 0.2173 0.0
H1762 H 0.5076 0.95836 0.09047 0.0
H1763 H 0.56752 0.0135 0.17357 0.0
H1764 H 0.60019 0.02518 0.21645 0.0
H1765 H 0.63883 0.00939 0.13877 0.0
H1766 H 0.60632 -0.00255 0.09557 0.0
H1767 H 0.5357 0.02784 0.92868 0.0
H1768 H 0.5259 0.00932 0.98614 0.0
H1769 H 0.59959 0.03769 1.00922 0.0
H1770 H 0.60912 0.06073 0.95382 0.0
H1771 H 0.58837 0.0239 1.06735 0.0
H1772 H 0.53542 0.96685 0.9868 0.0
H1773 H 0.50453 0.94682 0.94098 0.0
H1774 H 0.45408 0.95162 1.00872 0.0
H1775 H 0.485 0.97329 1.05385 0.0
C1776 C 0.53586 0.93924 0.2033 0.0
C1777 C 0.5164 0.93744 0.22361 0.0
C1778 C 0.54465 0.95287 0.17023 0.0
C1779 C 0.53361 0.96449 0.1527 0.0
C1780 C 0.5134 0.9614 0.17193 0.0
C1781 C 0.50562 0.94908 0.20561 0.0
C1782 C 0.54158 0.97845 0.11483 0.0
C1783 C 0.52531 0.97295 0.08613 0.0
C1784 C 0.56494 -0.00285 0.10552 0.0
C1785 C 0.58443 0.00444 0.13146 0.0
C1786 C 0.58292 0.01239 0.16574 0.0
C1787 C 0.60143 0.01909 0.19007 0.0
C1788 C 0.62155 0.01798 0.18037 0.0
C1789 C 0.62324 0.01024 0.14627 0.0
C1790 C 0.6048 0.00355 0.12184 0.0
C1791 C 0.55036 0.03032 0.94519 0.0
C1792 C 0.57389 0.04553 0.93235 0.0
C1793 C 0.54441 0.01851 0.97942 0.0
C1794 C 0.56123 0.01895 1.00446 0.0
C1795 C 0.58501 0.03484 0.99227 0.0
C1796 C 0.59094 0.04797 0.95855 0.0
C1797 C 0.55413 0.00419 1.04223 0.0
C1798 C 0.57051 0.00954 1.07119 0.0
C1799 C 0.53113 0.98416 1.05105 0.0
C1800 C 0.51273 0.97227 1.02332 0.0
C1801 C 0.51785 0.96411 0.9916 0.0
C1802 C 0.50037 0.95263 0.96564 0.0
C1803 C 0.47749 0.94849 0.97159 0.0
C1804 C 0.47199 0.9556 1.00366 0.0
C1805 C 0.48953 0.96766 1.0293 0.0
H1806 H 0.46399 0.9396 0.95147 0.0
H1807 H 0.63584 0.02316 0.19925 0.0
H1808 H 0.60651 0.53329 0.53296 0.0
H1809 H 0.59715 0.54817 0.47882 0.0
H1810 H 0.52523 0.51807 0.51345 0.0
H1811 H 0.53518 0.504 0.56783 0.0
H1812 H 0.51835 0.51217 0.44745 0.0
H1813 H 0.57579 0.59513 0.48908 0.0
H1814 H 0.61454 0.62808 0.50819 0.0
H1815 H 0.64918 0.60847 0.42877 0.0
H1816 H 0.61051 0.57608 0.40822 0.0
H1817 H 0.48449 0.57425 0.3155 0.0
H1818 H 0.49906 0.5657 0.37055 0.0
H1819 H 0.55558 0.56559 0.31219 0.0
H1820 H 0.54018 0.57301 0.25667 0.0
H1821 H 0.57161 0.58797 0.38814 0.0
H1822 H 0.51868 0.50296 0.35364 0.0
H1823 H 0.48397 0.47846 0.31565 0.0
H1824 H 0.44469 0.50566 0.37042 0.0
H1825 H 0.47872 0.52919 0.41024 0.0
C1826 C 0.58899 0.53104 0.5307 0.0
C1827 C 0.57253 0.51906 0.55888 0.0
C1828 C 0.58324 0.53946 0.49823 0.0
C1829 C 0.56005 0.53558 0.48974 0.0
C1830 C 0.54344 0.52258 0.51721 0.0
C1831 C 0.54938 0.51467 0.54976 0.0
C1832 C 0.5527 0.54349 0.45296 0.0
C1833 C 0.53031 0.5291 0.43567 0.0
C1834 C 0.56726 0.56508 0.43357 0.0
C1835 C 0.59043 0.58297 0.44772 0.0
C1836 C 0.59172 0.59776 0.47596 0.0
C1837 C 0.61361 0.61655 0.48664 0.0
C1838 C 0.63433 0.62024 0.46991 0.0
C1839 C 0.63315 0.60547 0.44192 0.0
C1840 C 0.61125 0.58705 0.43052 0.0
C1841 C 0.50051 0.57319 0.31388 0.0
C1842 C 0.51158 0.57644 0.27979 0.0
C1843 C 0.50887 0.5677 0.34632 0.0
C1844 C 0.52904 0.56457 0.34801 0.0
C1845 C 0.5403 0.56791 0.31403 0.0
C1846 C 0.53158 0.57294 0.28132 0.0
C1847 C 0.53729 0.55704 0.38397 0.0
C1848 C 0.5597 0.57126 0.40063 0.0
C1849 C 0.52299 0.53531 0.40258 0.0
C1850 C 0.50108 0.51761 0.38494 0.0
C1851 C 0.50233 0.50304 0.35835 0.0
C1852 C 0.48283 0.48939 0.33649 0.0
C1853 C 0.46217 0.49055 0.34066 0.0
C1854 C 0.46061 0.50456 0.36765 0.0
C1855 C 0.47989 0.51781 0.39017 0.0
H1856 H 0.44742 0.48073 0.32277 0.0
H1857 H 0.65127 0.63461 0.47854 0.0
H1858 H 0.05501 0.6105 0.87375 0.0
H1859 H 0.03038 0.60301 0.81993 0.0
H1860 H 0.00171 0.52859 0.83398 0.0
H1861 H 0.02376 0.53618 0.88967 0.0
H1862 H 0.01258 0.53839 0.76053 0.0
H1863 H 0.96346 0.55828 0.83954 0.0
H1864 H 0.95507 0.58439 0.87724 0.0
H1865 H 0.98527 0.63868 0.79801 0.0
H1866 H -0.0066 0.61271 0.75963 0.0
H1867 H 0.92185 0.48759 0.62531 0.0
H1868 H 0.94362 0.50093 0.68057 0.0
H1869 H 0.95814 0.57144 0.66062 0.0
H1870 H 0.93311 0.55713 0.60631 0.0
H1871 H 0.95736 0.56769 0.73429 0.0
H1872 H 0.02202 0.56374 0.67281 0.0
H1873 H 0.0324 0.54749 0.62057 0.0
H1874 H 0.98024 0.4774 0.65148 0.0
H1875 H 0.97215 0.49315 0.70609 0.0
C1876 C 0.04186 0.59248 0.86783 0.0
C1877 C 0.04027 0.57432 0.8909 0.0
C1878 C 0.02798 0.58793 0.8351 0.0
C1879 C 0.0126 0.56473 0.82072 0.0
C1880 C 0.01215 0.54675 0.84269 0.0
C1881 C 0.02509 0.55131 0.87596 0.0
C1882 C -0.00175 0.559 0.78327 0.0
C1883 C 0.00027 0.54469 0.75595 0.0
C1884 C 0.98263 0.56767 0.77293 0.0
C1885 C 0.97916 0.58366 0.79693 0.0
C1886 C 0.96843 0.57584 0.83033 0.0
C1887 C 0.96349 0.59051 0.85161 0.0
C1888 C 0.96953 0.61314 0.83995 0.0
C1889 C 0.98053 0.62114 0.80698 0.0
C1890 C 0.98519 0.60642 0.78539 0.0
C1891 C 0.92976 0.50623 0.63149 0.0
C1892 C 0.92566 0.52088 0.60764 0.0
C1893 C 0.94329 0.51422 0.66407 0.0
C1894 C 0.95514 0.53809 0.67632 0.0
C1895 C 0.95061 0.55301 0.65334 0.0
C1896 C 0.93627 0.54473 0.62068 0.0
C1897 C 0.97091 0.54624 0.7126 0.0
C1898 C 0.96938 0.5611 0.73934 0.0
C1899 C -0.01194 0.53933 0.72168 0.0
C1900 C -0.00379 0.52948 0.69317 0.0
C1901 C 0.01344 0.54478 0.66901 0.0
C1902 C 0.0192 0.53566 0.63924 0.0
C1903 C 0.00734 0.51131 0.63295 0.0
C1904 C -0.00978 0.4961 0.65699 0.0
C1905 C 0.98538 0.50508 0.68774 0.0
H1906 H 0.01119 0.50427 0.6093 0.0
H1907 H 0.96583 0.62451 0.85657 0.0
H1908 H 0.49637 0.05265 0.39351 0.0
H1909 H 0.49833 0.02265 0.42664 0.0
H1910 H 0.43391 0.96924 0.37701 0.0
H1911 H 0.42951 0.00072 0.34794 0.0
H1912 H 0.45844 0.96437 0.45057 0.0
H1913 H 0.4655 0.97664 0.33332 0.0
H1914 H 0.46998 0.98115 0.26949 0.0
H1915 H 0.5436 0.00381 0.27905 0.0
H1916 H 0.5401 0.00051 0.34308 0.0
H1917 H 0.48769 0.92806 0.41477 0.0
H1918 H 0.50513 0.94319 0.47255 0.0
H1919 H 0.56644 -0.00374 0.42313 0.0
H1920 H 0.55409 0.97445 0.36564 0.0
H1921 H 0.53733 0.0084 0.39715 0.0
H1922 H 0.52053 0.01563 0.5014 0.0
H1923 H 0.50412 0.02347 0.55454 0.0
H1924 H 0.44677 0.9524 0.5538 0.0
H1925 H 0.46287 0.94369 0.50104 0.0
C1926 C 0.48197 0.03469 0.39095 0.0
C1927 C 0.46348 0.02858 0.36725 0.0
C1928 C 0.48304 0.01752 0.40976 0.0
C1929 C 0.4678 -0.00606 0.4002 0.0
C1930 C 0.44677 0.98757 0.38192 0.0
C1931 C 0.44455 0.00534 0.36503 0.0
C1932 C 0.47781 0.9785 0.40297 0.0
C1933 C 0.47547 0.97064 0.43775 0.0
C1934 C 0.49997 0.98757 0.38556 0.0
C1935 C 0.50255 0.98989 0.34538 0.0
C1936 C 0.48296 0.98377 0.32297 0.0
C1937 C 0.48531 0.98582 0.28596 0.0
C1938 C 0.50719 -0.00668 0.27015 0.0
C1939 C 0.52666 -0.00156 0.29134 0.0
C1940 C 0.5244 -0.00342 0.3284 0.0
C1941 C 0.50589 0.9405 0.41621 0.0
C1942 C 0.51854 0.94979 0.38475 0.0
C1943 C 0.51602 0.95051 0.44906 0.0
C1944 C 0.53193 0.97482 0.44721 0.0
C1945 C 0.54981 0.97984 0.42163 0.0
C1946 C 0.54235 0.96808 0.38832 0.0
C1947 C 0.51821 0.98772 0.44228 0.0
C1948 C 0.51995 -0.00285 0.40796 0.0
C1949 C 0.4957 0.97783 0.4587 0.0
C1950 C 0.49305 0.97895 0.4974 0.0
C1951 C 0.50535 0.00112 0.51407 0.0
C1952 C 0.49594 0.00575 0.54435 0.0
C1953 C 0.47482 0.98817 0.55897 0.0
C1954 C 0.46363 0.96563 0.54404 0.0
C1955 C 0.47295 0.96077 0.51395 0.0
H1956 H 0.46653 -0.0079 0.58079 0.0
H1957 H 0.50897 -0.00522 0.24147 0.0
H1958 H 0.42438 0.47047 0.74035 0.0
H1959 H 0.44882 0.45494 0.76274 0.0
H1960 H 0.4392 0.41639 0.66509 0.0
H1961 H 0.41276 0.42975 0.64374 0.0
H1962 H 0.478 0.42649 0.74031 0.0
H1963 H 0.46058 0.45289 0.63468 0.0
H1964 H 0.46782 0.46946 0.57547 0.0
H1965 H 0.52423 0.53479 0.61491 0.0
H1966 H 0.51816 0.51854 0.67442 0.0
H1967 H 0.54913 0.48109 0.74925 0.0
H1968 H 0.53631 0.4883 0.80638 0.0
H1969 H 0.52398 0.53892 0.75911 0.0
H1970 H 0.55167 0.54414 0.71007 0.0
H1971 H 0.49481 0.5083 0.72288 0.0
H1972 H 0.47744 0.46381 0.82789 0.0
H1973 H 0.47239 0.43907 0.88069 0.0
H1974 H 0.50979 0.40946 0.82743 0.0
H1975 H 0.51468 0.43372 0.7745 0.0
C1976 C 0.4271 0.45823 0.72414 0.0
C1977 C 0.4194 0.45333 0.68893 0.0
C1978 C 0.44031 0.44865 0.73711 0.0
C1979 C 0.44866 0.43818 0.71222 0.0
C1980 C 0.43476 0.4268 0.68269 0.0
C1981 C 0.42029 0.43509 0.67013 0.0
C1982 C 0.47438 0.45065 0.70731 0.0
C1983 C 0.48417 0.44507 0.73564 0.0
C1984 C 0.48427 0.47487 0.69867 0.0
C1985 C 0.48767 0.48439 0.66121 0.0
C1986 C 0.47393 0.47092 0.63204 0.0
C1987 C 0.47797 0.48035 0.5977 0.0
C1988 C 0.49551 0.50355 0.59172 0.0
C1989 C 0.51 0.51698 0.61969 0.0
C1990 C 0.50626 0.50749 0.6539 0.0
C1991 C 0.54859 0.49704 0.753 0.0
C1992 C 0.55225 0.51209 0.7242 0.0
C1993 C 0.53835 0.49949 0.78402 0.0
C1994 C 0.52139 0.50586 0.77681 0.0
C1995 C 0.53194 0.52782 0.75836 0.0
C1996 C 0.54703 0.53037 0.72958 0.0
C1997 C 0.49993 0.48541 0.75916 0.0
C1998 C 0.49199 0.49073 0.72739 0.0
C1999 C 0.49468 0.46131 0.76359 0.0
C2000 C 0.49672 0.45101 0.79767 0.0
C2001 C 0.48514 0.45259 0.82807 0.0
C2002 C 0.48203 0.43838 0.85767 0.0
C2003 C 0.49118 0.4231 0.85762 0.0
C2004 C 0.50315 0.4217 0.82774 0.0
C2005 C 0.50601 0.4356 0.79792 0.0
H2006 H 0.48881 0.4122 0.88059 0.0
H2007 H 0.49836 0.51086 0.5652 0.0
H2008 H 0.94195 0.4125 1.05639 0.0
H2009 H 0.97396 0.43826 0.09583 0.0
H2010 H 0.01642 0.47519 1.00539 0.0
H2011 H 0.98325 0.45038 0.96528 0.0
H2012 H 0.01783 0.47308 0.11456 0.0
H2013 H 0.02035 0.51129 1.00899 0.0
H2014 H 0.01338 0.52046 0.94818 0.0
H2015 H 0.94221 0.50026 0.97547 0.0
H2016 H 0.94872 0.49017 1.03641 0.0
H2017 H 0.05401 0.5415 1.07579 0.0
H2018 H 0.04419 0.54065 0.13823 0.0
H2019 H 0.9871 0.55084 0.11146 0.0
H2020 H 0.0051 0.56578 1.05216 0.0
H2021 H 0.97093 0.51083 0.0858 0.0
H2022 H 0.97636 0.46993 0.18269 0.0
H2023 H 0.98628 0.45326 0.23414 0.0
H2024 H 0.06013 0.49849 0.2139 0.0
H2025 H 0.05075 0.51365 0.16067 0.0
C2026 C 0.95819 0.42626 1.0451 0.0
C2027 C 0.9597 0.43179 1.00902 0.0
C2028 C 0.97687 0.44033 1.0673 0.0
C2029 C -0.00381 0.46051 1.05304 0.0
C2030 C 0.00033 0.46129 1.01637 0.0
C2031 C 0.98146 0.44743 0.99377 0.0
C2032 C 0.00189 0.48227 1.07237 0.0
C2033 C 0.01023 0.48393 0.10693 0.0
C2034 C -0.01118 0.49366 1.06403 0.0
C2035 C 0.98439 0.49821 1.02663 0.0
C2036 C 0.00287 0.5077 1.00161 0.0
C2037 C -0.00086 0.51328 0.96719 0.0
C2038 C 0.97718 0.51021 0.95757 0.0
C2039 C 0.95904 0.50195 0.98262 0.0
C2040 C 0.96268 0.49609 1.01698 0.0
C2041 C 0.04125 0.54648 0.08353 0.0
C2042 C 0.03079 0.55395 1.05815 0.0
C2043 C 0.03467 0.54485 0.11908 0.0
C2044 C 0.01098 0.53775 0.12484 0.0
C2045 C 0.0034 0.55118 0.10466 0.0
C2046 C 0.01278 0.55841 1.06995 0.0
C2047 C -0.00394 0.51107 0.12292 0.0
C2048 C 0.98196 0.50327 0.09203 0.0
C2049 C 0.00669 0.49736 0.13272 0.0
C2050 C 0.01278 0.4946 0.16935 0.0
C2051 C -0.00527 0.47714 0.19019 0.0
C2052 C 0.00028 0.46722 0.21881 0.0
C2053 C 0.02391 0.47526 0.22768 0.0
C2054 C 0.04196 0.49289 0.20761 0.0
C2055 C 0.0365 0.50213 0.17809 0.0
H2056 H 0.02818 0.46779 0.2502 0.0
H2057 H 0.97439 0.51472 0.93099 0.0
H2058 H 0.03329 0.43952 0.41852 0.0
H2059 H 0.00629 0.42917 0.36887 0.0
H2060 H 0.00683 0.49506 0.38284 0.0
H2061 H 0.03233 0.50474 0.43329 0.0
H2062 H 0.97183 0.41737 0.40809 0.0
H2063 H 0.96119 0.50079 0.36147 0.0
H2064 H 0.98003 0.53201 0.3188 0.0
H2065 H 0.01288 0.49688 0.27114 0.0
H2066 H -0.01078 0.46131 0.3071 0.0
H2067 H 0.95567 0.49086 0.53818 0.0
H2068 H 0.9527 0.45826 0.50477 0.0
H2069 H 0.98025 0.50383 0.41287 0.0
H2070 H 0.97533 0.53353 0.44436 0.0
H2071 H 0.94017 0.46999 0.39112 0.0
H2072 H 0.92594 0.40013 0.47211 0.0
H2073 H 0.92969 0.38947 0.5339 0.0
H2074 H 0.00156 0.4462 0.53734 0.0
H2075 H -0.00259 0.4581 0.4773 0.0
C2076 C 0.02747 0.45176 0.41102 0.0
C2077 C 0.03262 0.47173 0.43212 0.0
C2078 C 0.01304 0.4464 0.38119 0.0
C2079 C 0.00186 0.45964 0.37519 0.0
C2080 C 0.01278 0.48283 0.38933 0.0
C2081 C 0.02704 0.48832 0.41917 0.0
C2082 C 0.97559 0.44658 0.3756 0.0
C2083 C 0.96633 0.43038 0.40429 0.0
C2084 C 0.96383 0.45941 0.3674 0.0
C2085 C 0.97243 0.47734 0.3378 0.0
C2086 C 0.97041 0.4979 0.3402 0.0
C2087 C 0.9817 0.51639 0.31618 0.0
C2088 C -0.00326 0.51562 0.29086 0.0
C2089 C -0.00061 0.49588 0.2883 0.0
C2090 C 0.98656 0.47633 0.31015 0.0
C2091 C 0.96183 0.49403 0.51084 0.0
C2092 C 0.96159 0.51229 0.49161 0.0
C2093 C 0.96011 0.47502 0.4914 0.0
C2094 C 0.96355 0.47723 0.45433 0.0
C2095 C 0.97404 0.50028 0.43994 0.0
C2096 C 0.97266 0.518 0.45858 0.0
C2097 C 0.95443 0.45655 0.42957 0.0
C2098 C 0.94938 0.46027 0.39457 0.0
C2099 C 0.95907 0.43784 0.4344 0.0
C2100 C 0.96162 0.4298 0.46996 0.0
C2101 C 0.94249 0.41034 0.4862 0.0
C2102 C 0.94454 0.40429 0.52123 0.0
C2103 C 0.96571 0.41743 0.53997 0.0
C2104 C 0.98496 0.43638 0.52349 0.0
C2105 C 0.9829 0.44259 0.48878 0.0
H2106 H 0.96733 0.41275 0.56703 0.0
H2107 H 0.00745 0.53081 0.2745 0.0
H2108 H 0.44523 0.94237 0.76114 0.0
H2109 H 0.46217 0.98016 0.73105 0.0
H2110 H 0.39946 0.98442 0.75233 0.0
H2111 H 0.38081 0.94471 0.77643 0.0
H2112 H 0.43705 0.02631 0.71093 0.0
H2113 H 0.42661 0.98949 0.81762 0.0
H2114 H 0.42208 0.96246 0.86572 0.0
H2115 H 0.49658 0.98851 0.86692 0.0
H2116 H 0.50217 0.01666 0.82225 0.0
H2117 H 0.55304 0.08225 0.77705 0.0
H2118 H 0.52746 0.0827 0.73274 0.0
H2119 H 0.51449 0.01382 0.69973 0.0
H2120 H 0.5432 0.01612 0.74215 0.0
H2121 H 0.50154 0.02289 0.76991 0.0
H2122 H 0.51341 0.07494 0.67171 0.0
H2123 H 0.52191 0.11307 0.64969 0.0
H2124 H 0.46049 0.10618 0.70228 0.0
H2125 H 0.45099 0.06739 0.72454 0.0
C2126 C 0.43455 0.95063 0.75737 0.0
C2127 C 0.41309 0.94248 0.77485 0.0
C2128 C 0.44402 0.97213 0.73996 0.0
C2129 C 0.43279 0.98581 0.7433 0.0
C2130 C 0.40888 0.97467 0.75155 0.0
C2131 C 0.39871 0.95236 0.76658 0.0
C2132 C 0.44783 0.01083 0.75254 0.0
C2133 C 0.45183 0.02731 0.72553 0.0
C2134 C 0.46665 0.01564 0.77618 0.0
C2135 C 0.46418 0.00289 0.81093 0.0
C2136 C 0.44202 0.98903 0.82696 0.0
C2137 C 0.43938 0.97369 0.85468 0.0
C2138 C 0.45886 0.97239 0.86722 0.0
C2139 C 0.48129 0.98838 0.85545 0.0
C2140 C 0.48409 0.00406 0.82858 0.0
C2141 C 0.54376 0.06707 0.76088 0.0
C2142 C 0.54691 0.04775 0.76628 0.0
C2143 C 0.53096 0.06814 0.73271 0.0
C2144 C 0.51675 0.0473 0.71454 0.0
C2145 C 0.52487 0.0306 0.71279 0.0
C2146 C 0.53992 0.03069 0.73955 0.0
C2147 C 0.49245 0.03791 0.72714 0.0
C2148 C 0.48815 0.02577 0.7593 0.0
C2149 C 0.47527 0.04366 0.71546 0.0
C2150 C 0.48081 0.06689 0.69915 0.0
C2151 C 0.50116 0.08076 0.67846 0.0
C2152 C 0.50635 0.1029 0.66587 0.0
C2153 C 0.49169 0.11204 0.67433 0.0
C2154 C 0.47174 0.09897 0.6953 0.0
C2155 C 0.46629 0.07664 0.70754 0.0
H2156 H 0.49585 0.12929 0.66479 0.0
H2157 H 0.45705 0.95939 0.88645 0.0
H2158 H 0.45057 0.52162 0.12903 0.0
H2159 H 0.44932 0.51178 1.06833 0.0
H2160 H 0.52174 0.52686 1.07511 0.0
H2161 H 0.52391 0.54035 0.13547 0.0
H2162 H 0.51806 0.5372 1.01261 0.0
H2163 H 0.45267 0.45862 1.07512 0.0
H2164 H 0.4139 0.43783 0.10438 0.0
H2165 H 0.38714 0.46939 1.03157 0.0
H2166 H 0.42584 0.49032 1.00221 0.0
H2167 H 0.51044 0.47317 0.12599 0.0
H2168 H 0.522 0.49255 1.07025 0.0
H2169 H 0.46811 0.42951 1.01701 0.0
H2170 H 0.45552 0.41059 1.07441 0.0
H2171 H 0.45927 0.4553 0.992 0.0
H2172 H 0.53532 0.47569 0.99745 0.0
H2173 H 0.57696 0.48708 1.00293 0.0
H2174 H 0.59327 0.55651 1.03579 0.0
H2175 H 0.55249 0.54627 1.02815 0.0
C2176 C 0.46618 0.52229 0.11821 0.0
C2177 C 0.48774 0.53279 0.13688 0.0
C2178 C 0.4653 0.51638 0.08266 0.0
C2179 C 0.4851 0.51802 1.06578 0.0
C2180 C 0.50591 0.52556 0.08629 0.0
C2181 C 0.5072 0.53284 0.12147 0.0
C2182 C 0.48389 0.50994 1.02823 0.0
C2183 C 0.50585 0.51846 1.01109 0.0
C2184 C 0.46558 0.48718 1.01747 0.0
C2185 C 0.44192 0.47484 1.0348 0.0
C2186 C 0.4383 0.46034 1.06443 0.0
C2187 C 0.41641 0.44887 0.08152 0.0
C2188 C 0.39788 0.4519 1.06941 0.0
C2189 C 0.40138 0.4667 1.04054 0.0
C2190 C 0.42334 0.47831 1.0235 0.0
C2191 C 0.5006 0.4637 0.10252 0.0
C2192 C 0.48157 0.44071 0.10501 0.0
C2193 C 0.50768 0.47463 1.06975 0.0
C2194 C 0.49553 0.46322 1.03815 0.0
C2195 C 0.47752 0.43938 1.04054 0.0
C2196 C 0.46991 0.42866 1.07367 0.0
C2197 C 0.49586 0.47776 1.00712 0.0
C2198 C 0.47279 0.4731 0.99903 0.0
C2199 C 0.51386 0.50212 1.0061 0.0
C2200 C 0.53986 0.50989 1.00987 0.0
C2201 C 0.54768 0.49358 1.00408 0.0
C2202 C 0.57138 0.4999 1.00815 0.0
C2203 C 0.58782 0.52258 1.01942 0.0
C2204 C 0.58056 0.53897 1.02645 0.0
C2205 C 0.55692 0.53285 1.02164 0.0
H2206 H 0.60613 0.52738 1.02305 0.0
H2207 H 0.38094 0.44306 0.08272 0.0
H2208 H 0.32568 0.94713 0.6879 0.0
H2209 H 0.35319 0.9744 0.64358 0.0
H2210 H 0.36835 0.9204 0.6074 0.0
H2211 H 0.3408 0.8931 0.65199 0.0
H2212 H 0.40407 0.98947 0.62556 0.0
H2213 H 0.35325 0.91457 0.54313 0.0
H2214 H 0.31339 0.8793 0.54012 0.0
H2215 H 0.28214 0.92259 0.56071 0.0
H2216 H 0.32182 0.95797 0.56431 0.0
H2217 H 0.43281 0.05545 0.45578 0.0
H2218 H 0.42408 0.01948 0.48726 0.0
H2219 H 0.36979 0.02361 0.54728 0.0
H2220 H 0.37665 0.05832 0.51318 0.0
H2221 H 0.36337 0.97464 0.50871 0.0
H2222 H 0.4059 0.03184 0.6279 0.0
H2223 H 0.43571 0.0736 0.63843 0.0
H2224 H 0.47615 0.07162 0.54962 0.0
H2225 H 0.44777 0.02927 0.54062 0.0
C2226 C 0.33497 0.94126 0.67035 0.0
C2227 C 0.33095 0.91817 0.67201 0.0
C2228 C 0.35087 0.95682 0.64573 0.0
C2229 C 0.36276 0.94929 0.62273 0.0
C2230 C 0.35937 0.9264 0.6253 0.0
C2231 C 0.34348 0.91083 0.65009 0.0
C2232 C 0.37538 0.96431 0.59259 0.0
C2233 C 0.39601 0.98585 0.59932 0.0
C2234 C 0.36405 0.95971 0.55916 0.0
C2235 C 0.34037 0.93881 0.55365 0.0
C2236 C 0.33783 0.91652 0.5466 0.0
C2237 C 0.3153 0.89653 0.54503 0.0
C2238 C 0.29524 0.89871 0.55014 0.0
C2239 C 0.29767 0.92092 0.55666 0.0
C2240 C 0.32015 0.94093 0.55844 0.0
C2241 C 0.41875 0.04852 0.47533 0.0
C2242 C 0.40517 0.05949 0.48187 0.0
C2243 C 0.41388 0.02806 0.49316 0.0
C2244 C 0.39637 0.0192 0.51921 0.0
C2245 C 0.3833 0.03042 0.52683 0.0
C2246 C 0.38755 0.05042 0.50802 0.0
C2247 C 0.39273 -0.00069 0.541 0.0
C2248 C 0.37307 0.97727 0.53337 0.0
C2249 C 0.40495 0.00353 0.57363 0.0
C2250 C 0.42443 0.0275 0.58312 0.0
C2251 C 0.4215 0.04012 0.61125 0.0
C2252 C 0.43823 0.06388 0.61705 0.0
C2253 C 0.4578 0.07528 0.59462 0.0
C2254 C 0.461 0.06276 0.56694 0.0
C2255 C 0.44479 0.03879 0.56182 0.0
H2256 H 0.47052 0.09377 0.59873 0.0
H2257 H 0.27783 0.88321 0.5491 0.0
H2258 H 0.38649 0.34722 1.05154 0.0
H2259 H 0.38592 0.37546 1.01064 0.0
H2260 H 0.42255 0.35727 0.93189 0.0
H2261 H 0.42454 0.32945 0.97437 0.0
H2262 H 0.43346 0.41334 0.94626 0.0
H2263 H 0.37462 0.33112 0.91204 0.0
H2264 H 0.34429 0.29033 0.92707 0.0
H2265 H 0.30449 0.31642 0.9833 0.0
H2266 H 0.33479 0.35736 0.96909 0.0
H2267 H 0.37649 0.41576 0.78979 0.0
H2268 H 0.40009 0.41828 0.83876 0.0
H2269 H 0.34983 0.41992 0.9113 0.0
H2270 H 0.32523 0.41805 0.86088 0.0
H2271 H 0.35073 0.37812 0.90329 0.0
H2272 H 0.41974 0.45509 0.96265 0.0
H2273 H 0.44718 0.49815 0.95325 0.0
H2274 H 0.46072 0.48428 0.84734 0.0
H2275 H 0.43639 0.44127 0.85747 0.0
C2276 C 0.39479 0.34944 1.02572 0.0
C2277 C 0.40564 0.3363 1.01596 0.0
C2278 C 0.39475 0.36581 1.0027 0.0
C2279 C 0.40468 0.3687 0.96887 0.0
C2280 C 0.4154 0.35555 0.95848 0.0
C2281 C 0.41596 0.33933 0.98216 0.0
C2282 C 0.39907 0.38184 0.94311 0.0
C2283 C 0.41562 0.40559 0.93584 0.0
C2284 C 0.37544 0.37198 0.9316 0.0
C2285 C 0.35709 0.34729 0.93981 0.0
C2286 C 0.35951 0.32815 0.92789 0.0
C2287 C 0.3423 0.30501 0.93621 0.0
C2288 C 0.32251 0.30079 0.95621 0.0
C2289 C 0.31984 0.3197 0.96785 0.0
C2290 C 0.33701 0.34287 0.95965 0.0
C2291 C 0.37097 0.41863 0.81566 0.0
C2292 C 0.34864 0.41643 0.82128 0.0
C2293 C 0.38521 0.42078 0.84407 0.0
C2294 C 0.37748 0.42059 0.87876 0.0
C2295 C 0.35656 0.42128 0.88456 0.0
C2296 C 0.34217 0.41933 0.85581 0.0
C2297 C 0.38514 0.40952 0.9052 0.0
C2298 C 0.36876 0.38599 0.91305 0.0
C2299 C 0.40887 0.41957 0.91635 0.0
C2300 C 0.42585 0.44502 0.91079 0.0
C2301 C 0.42906 0.4613 0.93774 0.0
C2302 C 0.44421 0.48552 0.93244 0.0
C2303 C 0.45557 0.4937 0.89989 0.0
C2304 C 0.45222 0.47769 0.87274 0.0
C2305 C 0.43794 0.45339 0.8784 0.0
H2306 H 0.46697 0.51245 0.89571 0.0
H2307 H 0.30921 0.28287 0.96262 0.0
H2308 H 0.91871 0.3156 0.18096 0.0
H2309 H 0.92807 0.33392 0.23958 0.0
H2310 H 0.93923 0.39932 0.19459 0.0
H2311 H 0.93158 0.38193 0.13601 0.0
H2312 H 0.97948 0.3968 0.20387 0.0
H2313 H 0.91121 0.379 0.26736 0.0
H2314 H 0.87121 0.35467 0.29081 0.0
H2315 H 0.89527 0.31786 0.35779 0.0
H2316 H 0.93549 0.34144 0.33404 0.0
H2317 H 0.06822 0.44004 0.3398 0.0
H2318 H 0.03353 0.43575 0.30749 0.0
H2319 H -0.00074 0.36008 0.31997 0.0
H2320 H 0.03414 0.36436 0.35117 0.0
H2321 H 0.9692 0.37987 0.33311 0.0
H2322 H 0.03013 0.38458 0.2557 0.0
H2323 H 0.06975 0.4038 0.22931 0.0
H2324 H 0.05564 0.45379 0.17716 0.0
H2325 H 0.01579 0.43458 0.20323 0.0
C2326 C 0.92228 0.33361 0.18371 0.0
C2327 C 0.9261 0.34776 0.15371 0.0
C2328 C 0.92709 0.34394 0.21739 0.0
C2329 C 0.93547 0.36826 0.22073 0.0
C2330 C 0.93331 0.38063 0.19208 0.0
C2331 C 0.92901 0.37052 0.15836 0.0
C2332 C 0.95439 0.38134 0.24671 0.0
C2333 C 0.97728 0.39397 0.23241 0.0
C2334 C 0.95106 0.37627 0.28338 0.0
C2335 C 0.92678 0.36224 0.29874 0.0
C2336 C 0.90812 0.36552 0.28668 0.0
C2337 C 0.8853 0.35186 0.30015 0.0
C2338 C 0.88069 0.33473 0.3258 0.0
C2339 C 0.89892 0.33125 0.33803 0.0
C2340 C 0.92183 0.34487 0.32464 0.0
C2341 C 0.05344 0.42254 0.33472 0.0
C2342 C 0.05391 0.40242 0.34659 0.0
C2343 C 0.03356 0.42015 0.31715 0.0
C2344 C 0.01386 0.39764 0.31201 0.0
C2345 C 0.01424 0.37759 0.32432 0.0
C2346 C 0.03429 0.37996 0.34113 0.0
C2347 C -0.00601 0.39439 0.28977 0.0
C2348 C 0.9712 0.38352 0.30479 0.0
C2349 C -0.00281 0.39972 0.253 0.0
C2350 C 0.02063 0.40967 0.23464 0.0
C2351 C 0.03568 0.40024 0.2399 0.0
C2352 C 0.05813 0.41087 0.22441 0.0
C2353 C 0.06555 0.43051 0.20247 0.0
C2354 C 0.05019 0.43901 0.19501 0.0
C2355 C 0.02772 0.42834 0.2104 0.0
H2356 H 0.08297 0.4388 0.19063 0.0
H2357 H 0.86298 0.32414 0.33618 0.0
H2358 H 0.62599 0.08521 0.66534 0.0
H2359 H 0.59755 0.05214 0.62733 0.0
H2360 H 0.64441 0.02343 0.62659 0.0
H2361 H 0.67245 0.056 0.66443 0.0
H2362 H 0.62554 0.03087 0.55759 0.0
H2363 H 0.60525 0.00166 0.67935 0.0
H2364 H 0.5874 -0.00838 0.73844 0.0
H2365 H 0.51948 0.9724 0.69389 0.0
H2366 H 0.53716 0.98158 0.63386 0.0
H2367 H 0.6027 0.92142 0.51846 0.0
H2368 H 0.60971 0.95435 0.55718 0.0
H2369 H 0.53862 0.94026 0.53827 0.0
H2370 H 0.53129 0.90674 0.50017 0.0
H2371 H 0.55729 0.9586 0.60633 0.0
H2372 H 0.57756 0.97751 0.48448 0.0
H2373 H 0.59542 0.97815 0.42616 0.0
H2374 H 0.66441 0.01195 0.47391 0.0
H2375 H 0.64698 0.01106 0.53254 0.0
C2376 C 0.63024 0.07202 0.65611 0.0
C2377 C 0.65138 0.07312 0.6668 0.0
C2378 C 0.61394 0.05311 0.63525 0.0
C2379 C 0.61879 0.03531 0.6252 0.0
C2380 C 0.64041 0.03705 0.63456 0.0
C2381 C 0.65659 0.05581 0.65537 0.0
C2382 C 0.60256 0.01548 0.60258 0.0
C2383 C 0.61039 0.01512 0.56801 0.0
C2384 C 0.58224 -0.00464 0.61593 0.0
C2385 C 0.57279 -0.00628 0.65229 0.0
C2386 C 0.58675 -0.00371 0.68219 0.0
C2387 C 0.57651 0.99023 0.71593 0.0
C2388 C 0.5523 0.98166 0.72025 0.0
C2389 C 0.53828 0.97925 0.6907 0.0
C2390 C 0.54843 0.98498 0.65684 0.0
C2391 C 0.58809 0.92434 0.5244 0.0
C2392 C 0.56672 0.91215 0.50573 0.0
C2393 C 0.59228 0.94349 0.54574 0.0
C2394 C 0.57504 0.95023 0.54862 0.0
C2395 C 0.55226 0.93551 0.53532 0.0
C2396 C 0.54798 0.91618 0.5142 0.0
C2397 C 0.5817 0.97357 0.5631 0.0
C2398 C 0.57176 0.97468 0.59539 0.0
C2399 C 0.60043 -0.00575 0.54811 0.0
C2400 C 0.61091 -0.00578 0.51294 0.0
C2401 C 0.59651 0.9849 0.48258 0.0
C2402 C 0.60657 0.98535 0.44945 0.0
C2403 C 0.63102 -0.00484 0.44632 0.0
C2404 C 0.64547 0.00442 0.47633 0.0
C2405 C 0.63551 0.00395 0.50951 0.0
H2406 H 0.63878 -0.00442 0.42063 0.0
H2407 H 0.54437 0.97675 0.74641 0.0
H2408 H 0.56893 0.62784 1.05928 0.0
H2409 H 0.57496 0.60467 1.01485 0.0
H2410 H 0.5695 0.64709 0.93171 0.0
H2411 H 0.56179 0.67006 0.97679 0.0
H2412 H 0.5491 0.59818 0.91523 0.0
H2413 H 0.62072 0.66195 0.95615 0.0
H2414 H 0.65153 0.68969 0.99736 0.0
H2415 H 0.65806 0.6327 1.04162 0.0
H2416 H 0.62684 0.60447 1.00114 0.0
H2417 H 0.64918 0.62334 0.8096 0.0
H2418 H 0.61749 0.62074 0.84709 0.0
H2419 H 0.60604 0.55444 0.88905 0.0
H2420 H 0.63657 0.55604 0.84887 0.0
H2421 H 0.62673 0.6031 0.93081 0.0
H2422 H 0.56147 0.54474 0.86739 0.0
H2423 H 0.52215 0.51713 0.84368 0.0
H2424 H 0.51128 0.575 0.81841 0.0
H2425 H 0.54856 0.60239 0.84894 0.0
C2426 C 0.56806 0.63186 1.03155 0.0
C2427 C 0.56456 0.65065 1.02138 0.0
C2428 C 0.57174 0.61866 1.00628 0.0
C2429 C 0.57292 0.6245 0.97044 0.0
C2430 C 0.56859 0.64255 0.95961 0.0
C2431 C 0.56447 0.65572 0.98516 0.0
C2432 C 0.58122 0.61321 0.94523 0.0
C2433 C 0.56646 0.59998 0.91724 0.0
C2434 C 0.60318 0.61441 0.95034 0.0
C2435 C 0.62107 0.63101 0.97612 0.0
C2436 C 0.62837 0.65524 0.97516 0.0
C2437 C 0.64599 0.67107 0.99827 0.0
C2438 C 0.65666 0.66295 1.02224 0.0
C2439 C 0.64969 0.63895 1.02317 0.0
C2440 C 0.63199 0.62301 1.00019 0.0
C2441 C 0.64017 0.60849 0.8275 0.0
C2442 C 0.64567 0.59032 0.82777 0.0
C2443 C 0.62143 0.60644 0.84743 0.0
C2444 C 0.60875 0.58681 0.86929 0.0
C2445 C 0.61496 0.56913 0.87103 0.0
C2446 C 0.63309 0.57063 0.84964 0.0
C2447 C 0.59557 0.58979 0.89799 0.0
C2448 C 0.60942 0.60149 0.9278 0.0
C2449 C 0.5738 0.58902 0.89216 0.0
C2450 C 0.5571 0.57532 0.8629 0.0
C2451 C 0.55053 0.55157 0.85763 0.0
C2452 C 0.52838 0.53587 0.84336 0.0
C2453 C 0.51405 0.5442 0.82964 0.0
C2454 C 0.52211 0.5684 0.82973 0.0
C2455 C 0.54343 0.58391 0.84665 0.0
H2456 H 0.49693 0.53195 0.81839 0.0
H2457 H 0.6704 0.67526 1.03998 0.0
H2458 H 0.04834 0.6786 0.16187 0.0
H2459 H 0.01543 0.6537 0.19947 0.0
H2460 H 0.04769 0.61146 0.22411 0.0
H2461 H 0.0796 0.63511 0.18213 0.0
H2462 H 0.00598 0.58421 0.20284 0.0
H2463 H 0.03708 0.64815 0.2877 0.0
H2464 H 0.055 0.69031 0.30375 0.0
H2465 H -0.00735 0.69055 0.26806 0.0
H2466 H 0.97452 0.64855 0.25115 0.0
H2467 H 0.92354 0.54351 0.35175 0.0
H2468 H 0.95218 0.54993 0.30675 0.0
H2469 H 0.9183 0.57506 0.23487 0.0
H2470 H 0.88783 0.56683 0.27906 0.0
H2471 H 0.96169 0.60906 0.28277 0.0
H2472 H 0.92919 0.54273 0.20416 0.0
H2473 H 0.91136 0.5003 0.19366 0.0
H2474 H 0.97698 0.50361 0.21883 0.0
H2475 H -0.00495 0.54618 0.23137 0.0
C2476 C 0.04913 0.66489 0.17695 0.0
C2477 C 0.0664 0.65876 0.16955 0.0
C2478 C 0.03017 0.65049 0.19845 0.0
C2479 C 0.02913 0.6308 0.21512 0.0
C2480 C 0.04812 0.62654 0.21143 0.0
C2481 C 0.0666 0.64033 0.18826 0.0
C2482 C 0.00687 0.61328 0.23211 0.0
C2483 C -0.0035 0.5895 0.22103 0.0
C2484 C -0.00569 0.62038 0.25504 0.0
C2485 C 0.00443 0.64513 0.26815 0.0
C2486 C 0.02714 0.65715 0.28344 0.0
C2487 C 0.03737 0.68106 0.29255 0.0
C2488 C 0.02498 0.6931 0.28692 0.0
C2489 C 0.00222 0.6812 0.27247 0.0
C2490 C -0.00807 0.65731 0.26321 0.0
C2491 C 0.92079 0.54878 0.32577 0.0
C2492 C 0.90436 0.55656 0.32001 0.0
C2493 C 0.93746 0.55245 0.29987 0.0
C2494 C 0.93781 0.56397 0.2685 0.0
C2495 C 0.91843 0.56663 0.25958 0.0
C2496 C 0.90127 0.56227 0.28512 0.0
C2497 C 0.96087 0.58026 0.25315 0.0
C2498 C 0.97137 0.60377 0.26491 0.0
C2499 C 0.97353 0.57274 0.23148 0.0
C2500 C 0.96329 0.54761 0.22029 0.0
C2501 C 0.9398 0.53444 0.2082 0.0
C2502 C 0.92964 0.51026 0.20153 0.0
C2503 C 0.94298 0.49908 0.20541 0.0
C2504 C 0.96661 0.51219 0.21581 0.0
C2505 C 0.97678 0.53635 0.22301 0.0
H2506 H 0.9351 0.48035 0.20016 0.0
H2507 H 0.033 0.71165 0.29375 0.0
H2508 H 0.51951 0.13151 0.42602 0.0
H2509 H 0.53984 0.13366 0.48138 0.0
H2510 H 0.49348 0.05911 0.49552 0.0
H2511 H 0.47345 0.05806 0.44083 0.0
H2512 H 0.50775 0.06095 0.54864 0.0
H2513 H 0.58789 0.12549 0.50409 0.0
H2514 H 0.61507 0.16407 0.47692 0.0
H2515 H 0.57885 0.19523 0.53018 0.0
H2516 H 0.55222 0.15706 0.55903 0.0
H2517 H 0.58728 0.06501 0.69817 0.0
H2518 H 0.57163 0.06625 0.63995 0.0
H2519 H 0.56384 0.12463 0.67372 0.0
H2520 H 0.58082 0.1241 0.73197 0.0
H2521 H 0.578 0.13081 0.59751 0.0
H2522 H 0.48771 0.05694 0.61493 0.0
H2523 H 0.46297 0.01902 0.64489 0.0
H2524 H 0.51873 0.00282 0.63496 0.0
H2525 H 0.54379 0.04074 0.60509 0.0
C2526 C 0.51472 0.1151 0.43909 0.0
C2527 C 0.49637 0.09387 0.42307 0.0
C2528 C 0.5264 0.11631 0.47316 0.0
C2529 C 0.52042 0.09642 0.49625 0.0
C2530 C 0.50076 0.07551 0.48111 0.0
C2531 C 0.48905 0.07459 0.4475 0.0
C2532 C 0.53267 0.09687 0.53525 0.0
C2533 C 0.52331 0.07664 0.55795 0.0
C2534 C 0.55342 0.11631 0.55205 0.0
C2535 C 0.56782 0.13847 0.53288 0.0
C2536 C 0.58563 0.14056 0.50967 0.0
C2537 C 0.60106 0.16237 0.4943 0.0
C2538 C 0.59844 0.18198 0.50135 0.0
C2539 C 0.58069 0.17996 0.52443 0.0
C2540 C 0.56558 0.15833 0.54056 0.0
C2541 C 0.58239 0.07842 0.69423 0.0
C2542 C 0.58598 0.09423 0.72358 0.0
C2543 C 0.5723 0.07863 0.65953 0.0
C2544 C 0.56427 0.09463 0.6494 0.0
C2545 C 0.56865 0.1112 0.67805 0.0
C2546 C 0.57886 0.11098 0.71305 0.0
C2547 C 0.55299 0.09477 0.61002 0.0
C2548 C 0.56246 0.11517 0.58759 0.0
C2549 C 0.53262 0.07524 0.59289 0.0
C2550 C 0.51847 0.05274 0.61142 0.0
C2551 C 0.49484 0.04546 0.61991 0.0
C2552 C 0.48076 0.02401 0.63669 0.0
C2553 C 0.48986 0.00914 0.64315 0.0
C2554 C 0.51236 0.015 0.63119 0.0
C2555 C 0.5268 0.03686 0.61558 0.0
H2556 H 0.47981 -0.00668 0.65797 0.0
H2557 H 0.61029 0.19879 0.48917 0.0
H2558 H 0.36454 0.46764 0.79552 0.0
H2559 H 0.3814 0.48064 0.85381 0.0
H2560 H 0.44313 0.53857 0.80773 0.0
H2561 H 0.42827 0.52079 0.74921 0.0
H2562 H 0.45602 0.55502 0.86242 0.0
H2563 H 0.37636 0.52009 0.88551 0.0
H2564 H 0.33357 0.49193 0.88952 0.0
H2565 H 0.34735 0.44593 0.95377 0.0
H2566 H 0.39025 0.47295 0.94793 0.0
H2567 H 0.50835 0.5958 1.03907 0.0
H2568 H 0.49317 0.57967 0.98061 0.0
H2569 H 0.42517 0.53334 1.02618 0.0
H2570 H 0.44223 0.54655 0.08505 0.0
H2571 H 0.41284 0.51624 0.97223 0.0
H2572 H 0.49959 0.57521 0.88966 0.0
H2573 H 0.53067 0.61745 0.88825 0.0
H2574 H 0.48687 0.63584 0.95005 0.0
H2575 H 0.45518 0.59418 0.95031 0.0
C2576 C 0.38159 0.48361 0.79695 0.0
C2577 C 0.39304 0.49422 0.76405 0.0
C2578 C 0.39147 0.49208 0.83238 0.0
C2579 C 0.41342 0.51346 0.8398 0.0
C2580 C 0.42556 0.52338 0.80665 0.0
C2581 C 0.41628 0.51365 0.77107 0.0
C2582 C 0.42394 0.52436 0.87998 0.0
C2583 C 0.44631 0.54555 0.88581 0.0
C2584 C 0.41204 0.51542 0.91396 0.0
C2585 C 0.38651 0.49819 0.91534 0.0
C2586 C 0.37025 0.50371 0.89983 0.0
C2587 C 0.346 0.48786 0.90221 0.0
C2588 C 0.33777 0.46693 0.92134 0.0
C2589 C 0.35378 0.46184 0.93818 0.0
C2590 C 0.37808 0.47723 0.93491 0.0
C2591 C 0.48987 0.58239 1.03747 0.0
C2592 C 0.47668 0.57484 1.07014 0.0
C2593 C 0.48057 0.57305 1.00211 0.0
C2594 C 0.45645 0.55558 0.99458 0.0
C2595 C 0.44337 0.54737 1.0274 0.0
C2596 C 0.45312 0.55611 1.06305 0.0
C2597 C 0.44557 0.54552 0.95451 0.0
C2598 C 0.42308 0.52484 0.94877 0.0
C2599 C 0.45604 0.55652 0.92073 0.0
C2600 C 0.47519 0.58151 0.9204 0.0
C2601 C 0.49659 0.58831 0.90269 0.0
C2602 C 0.51427 0.61211 0.90211 0.0
C2603 C 0.51087 0.62917 0.91943 0.0
C2604 C 0.48957 0.62259 0.93684 0.0
C2605 C 0.47169 0.59893 0.93702 0.0
H2606 H 0.52468 0.64752 0.91918 0.0
H2607 H 0.31898 0.45478 0.92345 0.0
H2608 H 0.85437 0.39483 0.09219 0.0
H2609 H 0.85344 0.41284 0.14915 0.0
H2610 H 0.92557 0.43176 0.16779 0.0
H2611 H 0.92654 0.41477 0.10998 0.0
H2612 H 0.91035 0.42326 0.23015 0.0
H2613 H 0.8884 0.47185 0.15356 0.0
H2614 H 0.86317 0.48232 0.11829 0.0
H2615 H 0.80388 0.43906 0.18493 0.0
H2616 H 0.82935 0.43042 0.22309 0.0
H2617 H 0.93298 0.50821 0.38192 0.0
H2618 H 0.92925 0.49031 0.32189 0.0
H2619 H 0.85467 0.45034 0.33416 0.0
H2620 H 0.8581 0.47013 0.39188 0.0
H2621 H 0.86831 0.46675 0.25798 0.0
H2622 H 0.87831 0.41737 0.33143 0.0
H2623 H 0.88935 0.39401 0.3701 0.0
H2624 H 0.9537 0.41784 0.3123 0.0
H2625 H 0.94312 0.44086 0.27251 0.0
C2626 C 0.87079 0.40432 0.10641 0.0
C2627 C 0.89122 0.40451 0.09155 0.0
C2628 C 0.87013 0.41455 0.1411 0.0
C2629 C 0.88965 0.42532 0.16578 0.0
C2630 C 0.90976 0.42459 0.15159 0.0
C2631 C 0.91043 0.41471 0.11675 0.0
C2632 C 0.88925 0.43587 0.20561 0.0
C2633 C 0.90165 0.43343 0.23523 0.0
C2634 C 0.87642 0.44771 0.21661 0.0
C2635 C 0.86084 0.45068 0.19133 0.0
C2636 C 0.87006 0.46474 0.16091 0.0
C2637 C 0.85574 0.47044 0.14049 0.0
C2638 C 0.83189 0.46111 0.14899 0.0
C2639 C 0.82235 0.44629 0.17832 0.0
C2640 C 0.83681 0.44131 0.19971 0.0
C2641 C 0.91562 0.49483 0.37312 0.0
C2642 C 0.89621 0.48947 0.39665 0.0
C2643 C 0.9136 0.48413 0.33788 0.0
C2644 C 0.89199 0.46679 0.32177 0.0
C2645 C 0.87223 0.46236 0.34411 0.0
C2646 C 0.87424 0.47341 0.37928 0.0
C2647 C 0.89054 0.45517 0.28216 0.0
C2648 C 0.87775 0.4573 0.25277 0.0
C2649 C 0.90166 0.44155 0.27194 0.0
C2650 C 0.9103 0.43166 0.29966 0.0
C2651 C 0.8953 0.41847 0.32778 0.0
C2652 C 0.90136 0.40513 0.34982 0.0
C2653 C 0.92247 0.40509 0.34454 0.0
C2654 C 0.93743 0.41806 0.31668 0.0
C2655 C 0.93147 0.43132 0.29441 0.0
H2656 H 0.92694 0.39451 0.36145 0.0
H2657 H 0.82083 0.46542 0.13288 0.0
H2658 H 0.4964 0.87255 0.46261 0.0
H2659 H 0.47792 0.86895 0.52128 0.0
H2660 H 0.43484 0.89493 0.47719 0.0
H2661 H 0.45286 0.89827 0.41937 0.0
H2662 H 0.45075 0.91626 0.5487 0.0
H2663 H 0.40905 0.83785 0.50533 0.0
H2664 H 0.40304 0.80014 0.48083 0.0
H2665 H 0.43732 0.79134 0.57226 0.0
H2666 H 0.44384 0.82923 0.59715 0.0
H2667 H 0.37175 0.8949 0.70079 0.0
H2668 H 0.38686 0.8922 0.64235 0.0
H2669 H 0.42758 0.86482 0.69077 0.0
H2670 H 0.41215 0.86753 0.74877 0.0
H2671 H 0.41247 0.84219 0.61778 0.0
H2672 H 0.46272 0.92433 0.65013 0.0
H2673 H 0.46288 0.95614 0.68512 0.0
H2674 H 0.40955 0.95479 0.61702 0.0
H2675 H 0.40749 0.92131 0.5834 0.0
C2676 C 0.48255 0.87706 0.4643 0.0
C2677 C 0.47642 0.88476 0.43217 0.0
C2678 C 0.47171 0.87507 0.49931 0.0
C2679 C 0.45397 0.88143 0.50664 0.0
C2680 C 0.4479 0.88938 0.475 0.0
C2681 C 0.45822 0.8906 0.43991 0.0
C2682 C 0.44221 0.87996 0.5458 0.0
C2683 C 0.44219 0.89969 0.56268 0.0
C2684 C 0.43074 0.85907 0.56777 0.0
C2685 C 0.42717 0.83649 0.55293 0.0
C2686 C 0.41554 0.828 0.52006 0.0
C2687 C 0.41199 0.80658 0.50613 0.0
C2688 C 0.41985 0.79339 0.52493 0.0
C2689 C 0.43127 0.8016 0.55772 0.0
C2690 C 0.43489 0.82305 0.57177 0.0
C2691 C 0.38385 0.88809 0.69997 0.0
C2692 C 0.38953 0.88102 0.73307 0.0
C2693 C 0.39305 0.88671 0.66507 0.0
C2694 C 0.40933 0.87829 0.65894 0.0
C2695 C 0.41511 0.87118 0.69175 0.0
C2696 C 0.40581 0.87265 0.72672 0.0
C2697 C 0.42086 0.87852 0.61994 0.0
C2698 C 0.42095 0.85869 0.60335 0.0
C2699 C 0.43225 0.8991 0.59791 0.0
C2700 C 0.43553 0.92103 0.6137 0.0
C2701 C 0.4512 0.93107 0.64241 0.0
C2702 C 0.45107 0.94893 0.6626 0.0
C2703 C 0.43605 0.9576 0.65332 0.0
C2704 C 0.42093 0.94803 0.62421 0.0
C2705 C 0.42017 0.92938 0.60487 0.0
H2706 H 0.43628 0.97193 0.66823 0.0
H2707 H 0.41704 0.77677 0.51413 0.0
H2708 H 0.56254 0.45174 0.75734 0.0
H2709 H 0.55029 0.43532 0.8155 0.0
H2710 H 0.58801 0.50515 0.85952 0.0
H2711 H 0.60505 0.52058 0.80095 0.0
H2712 H 0.5636 0.42908 0.88088 0.0
H2713 H 0.58074 0.50554 0.92088 0.0
H2714 H 0.58161 0.54189 0.94109 0.0
H2715 H 0.50747 0.51061 0.91988 0.0
H2716 H 0.50622 0.4743 0.8999 0.0
H2717 H 0.52562 0.43673 0.08206 0.0
H2718 H 0.54525 0.45013 1.02442 0.0
H2719 H 0.48935 0.388 0.97544 0.0
H2720 H 0.47321 0.37238 1.03453 0.0
H2721 H 0.51743 0.45509 0.95254 0.0
H2722 H 0.51134 0.37781 0.93949 0.0
H2723 H 0.51844 0.34593 0.95923 0.0
H2724 H 0.59312 0.39464 0.96232 0.0
H2725 H 0.58625 0.42705 0.94435 0.0
C2726 C 0.57106 0.46363 0.77846 0.0
C2727 C 0.58773 0.48783 0.77056 0.0
C2728 C 0.56201 0.45415 0.81361 0.0
C2729 C 0.56637 0.4681 0.84514 0.0
C2730 C 0.5826 0.49258 0.83789 0.0
C2731 C 0.59303 0.50175 0.80283 0.0
C2732 C 0.55444 0.45654 0.88349 0.0
C2733 C 0.55449 0.43597 0.89678 0.0
C2734 C 0.54165 0.46384 0.90736 0.0
C2735 C 0.54373 0.48747 0.9061 0.0
C2736 C 0.56495 0.50692 0.9181 0.0
C2737 C 0.5654 0.52738 0.93058 0.0
C2738 C 0.54469 0.52868 0.93136 0.0
C2739 C 0.5236 0.50975 0.91883 0.0
C2740 C 0.52311 0.48932 0.90629 0.0
C2741 C 0.519 0.42441 1.06034 0.0
C2742 C 0.49911 0.40154 1.06657 0.0
C2743 C 0.52955 0.43301 1.02542 0.0
C2744 C 0.52005 0.42055 0.99253 0.0
C2745 C 0.49901 0.39844 0.99837 0.0
C2746 C 0.48932 0.38933 1.03349 0.0
C2747 C 0.53081 0.43129 0.95352 0.0
C2748 C 0.52884 0.45018 0.9386 0.0
C2749 C 0.54415 0.42434 0.93073 0.0
C2750 C 0.54818 0.40498 0.94184 0.0
C2751 C 0.52917 0.38187 0.94551 0.0
C2752 C 0.53318 0.36367 0.95615 0.0
C2753 C 0.55621 0.3683 0.96237 0.0
C2754 C 0.57527 0.39113 0.95786 0.0
C2755 C 0.57131 0.40943 0.94763 0.0
H2756 H 0.55929 0.35416 0.97039 0.0
H2757 H 0.54498 0.54433 0.94176 0.0
H2758 H 0.07503 0.5208 0.41443 0.0
H2759 H 0.08252 0.54398 0.36171 0.0
H2760 H 0.10077 0.49721 0.30678 0.0
H2761 H 0.10076 0.47956 0.36396 0.0
H2762 H 0.1108 0.52063 0.25945 0.0
H2763 H 0.04208 0.52336 0.31702 0.0
H2764 H 0.02391 0.53726 0.36208 0.0
H2765 H 0.08017 0.60851 0.34794 0.0
H2766 H 0.0984 0.59496 0.30278 0.0
H2767 H 0.09215 0.55507 0.08286 0.0
H2768 H 0.09415 0.53965 0.13961 0.0
H2769 H 0.0905 0.59662 0.19115 0.0
H2770 H 0.08867 0.61212 0.13279 0.0
H2771 H 0.07467 0.57038 0.23931 0.0
H2772 H 0.1434 0.57388 0.18716 0.0
H2773 H 0.16796 0.56661 0.1446 0.0
H2774 H 0.12082 0.49181 0.15226 0.0
H2775 H 0.09619 0.49862 0.19524 0.0
C2776 C 0.08318 0.51699 0.39264 0.0
C2777 C 0.09007 0.49966 0.39744 0.0
C2778 C 0.08529 0.52917 0.35944 0.0
C2779 C 0.09107 0.52289 0.32556 0.0
C2780 C 0.09642 0.50415 0.32998 0.0
C2781 C 0.09623 0.49342 0.36405 0.0
C2782 C 0.09147 0.53478 0.28693 0.0
C2783 C 0.10223 0.53103 0.25607 0.0
C2784 C 0.08203 0.55024 0.27861 0.0
C2785 C 0.07132 0.55811 0.30631 0.0
C2786 C 0.05008 0.54199 0.3229 0.0
C2787 C 0.03997 0.54979 0.34871 0.0
C2788 C 0.05071 0.57376 0.35751 0.0
C2789 C 0.07177 0.58996 0.34092 0.0
C2790 C 0.08204 0.58221 0.31537 0.0
C2791 C 0.09349 0.56575 0.10512 0.0
C2792 C 0.09149 0.58638 0.09948 0.0
C2793 C 0.09418 0.5562 0.13974 0.0
C2794 C 0.09328 0.56642 0.17323 0.0
C2795 C 0.0914 0.58718 0.16796 0.0
C2796 C 0.09055 0.59655 0.13313 0.0
C2797 C 0.09333 0.55552 0.21224 0.0
C2798 C 0.08282 0.55959 0.24295 0.0
C2799 C 0.10364 0.541 0.22074 0.0
C2800 C 0.11778 0.5368 0.19395 0.0
C2801 C 0.13821 0.5559 0.17956 0.0
C2802 C 0.15221 0.55184 0.15554 0.0
C2803 C 0.1459 0.52877 0.14561 0.0
C2804 C 0.12564 0.50968 0.15986 0.0
C2805 C 0.11169 0.51362 0.18414 0.0
H2806 H 0.15673 0.52568 0.12689 0.0
H2807 H 0.04283 0.57976 0.37742 0.0
loop_
_geom_bond_atom_site_label_1
_geom_bond_atom_site_label_2
_geom_bond_distance
_geom_bond_site_symmetry_2
_ccdc_geom_bond_type
Eu0 N31 2.657 . S
Eu0 N38 2.609 . S
Eu0 O44 2.558 . S
Eu0 O45 2.612 . S
Eu0 O47 2.339 . S
Eu0 O48 2.563 . S
Eu0 O49 2.419 . S
Eu0 O51 2.380 . S
Eu0 O52 2.432 . S
Eu0 C64 2.848 . S
C1 C4 1.429 . S
C1 C5 1.411 . S
C1 N8 1.377 . S
C2 C4 1.420 . S
C2 C6 1.423 . S
C2 C14 1.392 . S
C3 C5 1.420 . S
C3 C6 1.351 . S
C3 H26 0.931 . S
C4 C1 1.429 . S
C4 C2 1.420 . S
C4 N12 1.362 . S
C5 C1 1.411 . S
C5 C3 1.420 . S
C5 C10 1.395 . S
C6 C2 1.423 . S
C6 C3 1.351 . S
C6 H18 0.930 . S
C7 C9 1.400 . S
C7 C10 1.386 . S
C7 H19 0.930 . S
N8 C1 1.377 . S
N8 C9 1.321 . S
N8 Eu11 2.609 . S
C9 C7 1.400 . S
C9 N8 1.321 . S
C9 H16 0.930 . S
C10 C5 1.395 . S
C10 C7 1.386 . S
C10 H29 0.930 . S
Eu11 N8 2.609 . S
Eu11 N12 2.657 . S
Eu11 O45 2.380 . S
Eu11 O46 2.432 . S
Eu11 O50 2.558 . S
Eu11 O51 2.612 . S
Eu11 O53 2.339 . S
Eu11 O54 2.563 . S
Eu11 O55 2.419 . S
Eu11 C75 2.848 . S
N12 C4 1.362 . S
N12 Eu11 2.657 . S
N12 C13 1.334 . S
C13 N12 1.334 . S
C13 C15 1.413 . S
C13 H20 0.929 . S
C14 C2 1.392 . S
C14 C15 1.367 . S
C14 H22 0.930 . S
C15 C13 1.413 . S
C15 C14 1.367 . S
C15 H17 0.930 . S
H16 C9 0.930 . S
H17 C15 0.930 . S
H18 C6 0.930 . S
H19 C7 0.930 . S
H20 C13 0.929 . S
H21 C35 0.930 . S
H22 C14 0.930 . S
H23 C41 0.930 . S
H24 C32 0.929 . S
H25 C39 0.930 . S
H26 C3 0.931 . S
H27 C33 0.930 . S
H28 C66 0.930 . S
H29 C10 0.930 . S
H30 C65 0.931 . S
N31 Eu0 2.657 . S
N31 C32 1.334 . S
N31 C36 1.362 . S
C32 H24 0.929 . S
C32 N31 1.334 . S
C32 C35 1.413 . S
C33 H27 0.930 . S
C33 C34 1.392 . S
C33 C35 1.367 . S
C34 C33 1.392 . S
C34 C36 1.420 . S
C34 C66 1.423 . S
C35 H21 0.930 . S
C35 C32 1.413 . S
C35 C33 1.367 . S
C36 N31 1.362 . S
C36 C34 1.420 . S
C36 C40 1.429 . S
H37 C42 0.930 . S
N38 Eu0 2.609 . S
N38 C40 1.377 . S
N38 C41 1.321 . S
C39 H25 0.930 . S
C39 C41 1.400 . S
C39 C42 1.386 . S
C40 C36 1.429 . S
C40 N38 1.377 . S
C40 C43 1.411 . S
C41 H23 0.930 . S
C41 N38 1.321 . S
C41 C39 1.400 . S
C42 H37 0.930 . S
C42 C39 1.386 . S
C42 C43 1.395 . S
C43 C40 1.411 . S
C43 C42 1.395 . S
C43 C65 1.420 . S
O44 Eu0 2.558 . S
O44 C64 1.257 . S
O45 Eu0 2.612 . S
O45 Eu11 2.380 . S
O45 C56 1.276 . S
O46 Eu11 2.432 . S
O46 C63 1.264 . S
O47 Eu0 2.339 . S
O47 C63 1.254 . S
O48 Eu0 2.563 . S
O48 C56 1.235 . S
O49 Eu0 2.419 . S
O49 C64 1.249 . S
O50 Eu11 2.558 . S
O50 C75 1.257 . S
O51 Eu0 2.380 . S
O51 Eu11 2.612 . S
O51 C67 1.276 . S
O52 Eu0 2.432 . S
O52 C74 1.264 . S
O53 Eu11 2.339 . S
O53 C74 1.254 . S
O54 Eu11 2.563 . S
O54 C67 1.235 . S
O55 Eu11 2.419 . S
O55 C75 1.249 . S
C56 O45 1.276 . S
C56 O48 1.235 . S
C57 C59 1.393 . S
C57 C61 1.395 . S
C57 C64 1.492 . S
C58 C59 1.392 . S
C58 C60 1.386 . S
C59 C57 1.393 . S
C59 C58 1.392 . S
C59 H76 0.930 . S
C60 C58 1.386 . S
C60 C62 1.395 . S
C60 H77 0.930 . S
C61 C57 1.395 . S
C61 C62 1.379 . S
C61 H78 0.930 . S
C62 C60 1.395 . S
C62 C61 1.379 . S
C62 H79 0.930 . S
C63 O46 1.264 . S
C63 O47 1.254 . S
C64 Eu0 2.848 . S
C64 O44 1.257 . S
C64 O49 1.249 . S
C64 C57 1.492 . S
C65 H30 0.931 . S
C65 C43 1.420 . S
C65 C66 1.351 . S
C66 H28 0.930 . S
C66 C34 1.423 . S
C66 C65 1.351 . S
C67 O51 1.276 . S
C67 O54 1.235 . S
C68 C69 1.393 . S
C68 C72 1.395 . S
C68 C75 1.492 . S
C69 C68 1.393 . S
C69 C70 1.392 . S
C69 H80 0.930 . S
C70 C69 1.392 . S
C70 C71 1.386 . S
C71 C70 1.386 . S
C71 C73 1.395 . S
C71 H81 0.930 . S
C72 C68 1.395 . S
C72 C73 1.379 . S
C72 H82 0.930 . S
C73 C71 1.395 . S
C73 C72 1.379 . S
C73 H83 0.930 . S
C74 O52 1.264 . S
C74 O53 1.254 . S
C75 Eu11 2.848 . S
C75 O50 1.257 . S
C75 O55 1.249 . S
C75 C68 1.492 . S
H76 C59 0.930 . S
H77 C60 0.930 . S
H78 C61 0.930 . S
H79 C62 0.930 . S
H80 C69 0.930 . S
H81 C71 0.930 . S
H82 C72 0.930 . S
H83 C73 0.930 . S
Eu84 N115 2.657 . S
Eu84 N122 2.609 . S
Eu84 O128 2.558 . S
Eu84 O129 2.612 . S
Eu84 O131 2.339 . S
Eu84 O132 2.563 . S
Eu84 O133 2.419 . S
Eu84 O135 2.380 . S
Eu84 O136 2.432 . S
Eu84 C148 2.848 . S
C85 C88 1.429 . S
C85 C89 1.411 . S
C85 N92 1.377 . S
C86 C88 1.420 . S
C86 C90 1.423 . S
C86 C98 1.392 . S
C87 C89 1.420 . S
C87 C90 1.351 . S
C87 H110 0.931 . S
C88 C85 1.429 . S
C88 C86 1.420 . S
C88 N96 1.362 . S
C89 C85 1.411 . S
C89 C87 1.420 . S
C89 C94 1.395 . S
C90 C86 1.423 . S
C90 C87 1.351 . S
C90 H102 0.930 . S
C91 C93 1.400 . S
C91 C94 1.386 . S
C91 H103 0.930 . S
N92 C85 1.377 . S
N92 C93 1.321 . S
N92 Eu95 2.609 . S
C93 C91 1.400 . S
C93 N92 1.321 . S
C93 H100 0.930 . S
C94 C89 1.395 . S
C94 C91 1.386 . S
C94 H113 0.930 . S
Eu95 N92 2.609 . S
Eu95 N96 2.657 . S
Eu95 O129 2.380 . S
Eu95 O130 2.432 . S
Eu95 O134 2.558 . S
Eu95 O135 2.612 . S
Eu95 O137 2.339 . S
Eu95 O138 2.563 . S
Eu95 O139 2.419 . S
Eu95 C159 2.848 . S
N96 C88 1.362 . S
N96 Eu95 2.657 . S
N96 C97 1.334 . S
C97 N96 1.334 . S
C97 C99 1.413 . S
C97 H104 0.929 . S
C98 C86 1.392 . S
C98 C99 1.367 . S
C98 H106 0.930 . S
C99 C97 1.413 . S
C99 C98 1.367 . S
C99 H101 0.930 . S
H100 C93 0.930 . S
H101 C99 0.930 . S
H102 C90 0.930 . S
H103 C91 0.930 . S
H104 C97 0.929 . S
H105 C119 0.930 . S
H106 C98 0.930 . S
H107 C125 0.930 . S
H108 C116 0.929 . S
H109 C123 0.930 . S
H110 C87 0.931 . S
H111 C117 0.930 . S
H112 C150 0.930 . S
H113 C94 0.930 . S
H114 C149 0.931 . S
N115 Eu84 2.657 . S
N115 C116 1.334 . S
N115 C120 1.362 . S
C116 H108 0.929 . S
C116 N115 1.334 . S
C116 C119 1.413 . S
C117 H111 0.930 . S
C117 C118 1.392 . S
C117 C119 1.367 . S
C118 C117 1.392 . S
C118 C120 1.420 . S
C118 C150 1.423 . S
C119 H105 0.930 . S
C119 C116 1.413 . S
C119 C117 1.367 . S
C120 N115 1.362 . S
C120 C118 1.420 . S
C120 C124 1.429 . S
H121 C126 0.930 . S
N122 Eu84 2.609 . S
N122 C124 1.377 . S
N122 C125 1.321 . S
C123 H109 0.930 . S
C123 C125 1.400 . S
C123 C126 1.386 . S
C124 C120 1.429 . S
C124 N122 1.377 . S
C124 C127 1.411 . S
C125 H107 0.930 . S
C125 N122 1.321 . S
C125 C123 1.400 . S
C126 H121 0.930 . S
C126 C123 1.386 . S
C126 C127 1.395 . S
C127 C124 1.411 . S
C127 C126 1.395 . S
C127 C149 1.420 . S
O128 Eu84 2.558 . S
O128 C148 1.257 . S
O129 Eu84 2.612 . S
O129 Eu95 2.380 . S
O129 C140 1.276 . S
O130 Eu95 2.432 . S
O130 C147 1.264 . S
O131 Eu84 2.339 . S
O131 C147 1.254 . S
O132 Eu84 2.563 . S
O132 C140 1.235 . S
O133 Eu84 2.419 . S
O133 C148 1.249 . S
O134 Eu95 2.558 . S
O134 C159 1.257 . S
O135 Eu84 2.380 . S
O135 Eu95 2.612 . S
O135 C151 1.276 . S
O136 Eu84 2.432 . S
O136 C158 1.264 . S
O137 Eu95 2.339 . S
O137 C158 1.254 . S
O138 Eu95 2.563 . S
O138 C151 1.235 . S
O139 Eu95 2.419 . S
O139 C159 1.249 . S
C140 O129 1.276 . S
C140 O132 1.235 . S
C141 C143 1.393 . S
C141 C145 1.395 . S
C141 C148 1.492 . S
C142 C143 1.392 . S
C142 C144 1.386 . S
C143 C141 1.393 . S
C143 C142 1.392 . S
C143 H160 0.930 . S
C144 C142 1.386 . S
C144 C146 1.395 . S
C144 H161 0.930 . S
C145 C141 1.395 . S
C145 C146 1.379 . S
C145 H162 0.930 . S
C146 C144 1.395 . S
C146 C145 1.379 . S
C146 H163 0.930 . S
C147 O130 1.264 . S
C147 O131 1.254 . S
C148 Eu84 2.848 . S
C148 O128 1.257 . S
C148 O133 1.249 . S
C148 C141 1.492 . S
C149 H114 0.931 . S
C149 C127 1.420 . S
C149 C150 1.351 . S
C150 H112 0.930 . S
C150 C118 1.423 . S
C150 C149 1.351 . S
C151 O135 1.276 . S
C151 O138 1.235 . S
C152 C153 1.393 . S
C152 C156 1.395 . S
C152 C159 1.492 . S
C153 C152 1.393 . S
C153 C154 1.392 . S
C153 H164 0.930 . S
C154 C153 1.392 . S
C154 C155 1.386 . S
C155 C154 1.386 . S
C155 C157 1.395 . S
C155 H165 0.930 . S
C156 C152 1.395 . S
C156 C157 1.379 . S
C156 H166 0.930 . S
C157 C155 1.395 . S
C157 C156 1.379 . S
C157 H167 0.930 . S
C158 O136 1.264 . S
C158 O137 1.254 . S
C159 Eu95 2.848 . S
C159 O134 1.257 . S
C159 O139 1.249 . S
C159 C152 1.492 . S
H160 C143 0.930 . S
H161 C144 0.930 . S
H162 C145 0.930 . S
H163 C146 0.930 . S
H164 C153 0.930 . S
H165 C155 0.930 . S
H166 C156 0.930 . S
H167 C157 0.930 . S
Eu168 N199 2.657 . S
Eu168 N206 2.609 . S
Eu168 O212 2.558 . S
Eu168 O213 2.612 . S
Eu168 O215 2.339 . S
Eu168 O216 2.563 . S
Eu168 O217 2.419 . S
Eu168 O219 2.380 . S
Eu168 O220 2.432 . S
Eu168 C232 2.848 1_556 S
C169 C172 1.429 . S
C169 C173 1.411 . S
C169 N176 1.377 . S
C170 C172 1.420 . S
C170 C174 1.423 . S
C170 C182 1.392 . S
C171 C173 1.420 . S
C171 C174 1.351 . S
C171 H194 0.931 . S
C172 C169 1.429 . S
C172 C170 1.420 . S
C172 N180 1.362 . S
C173 C169 1.411 . S
C173 C171 1.420 . S
C173 C178 1.395 . S
C174 C170 1.423 . S
C174 C171 1.351 . S
C174 H186 0.930 . S
C175 C177 1.400 . S
C175 C178 1.386 . S
C175 H187 0.930 . S
N176 C169 1.377 . S
N176 C177 1.321 . S
N176 Eu179 2.609 . S
C177 C175 1.400 . S
C177 N176 1.321 . S
C177 H184 0.930 . S
C178 C173 1.395 . S
C178 C175 1.386 . S
C178 H197 0.930 . S
Eu179 N176 2.609 . S
Eu179 N180 2.657 . S
Eu179 O213 2.380 . S
Eu179 O214 2.432 . S
Eu179 O218 2.558 . S
Eu179 O219 2.612 . S
Eu179 O221 2.339 . S
Eu179 O222 2.563 . S
Eu179 O223 2.419 . S
Eu179 C243 2.848 . S
N180 C172 1.362 . S
N180 Eu179 2.657 . S
N180 C181 1.334 . S
C181 N180 1.334 . S
C181 C183 1.413 . S
C181 H188 0.929 . S
C182 C170 1.392 . S
C182 C183 1.367 . S
C182 H190 0.930 . S
C183 C181 1.413 . S
C183 C182 1.367 . S
C183 H185 0.930 . S
H184 C177 0.930 . S
H185 C183 0.930 . S
H186 C174 0.930 . S
H187 C175 0.930 . S
H188 C181 0.929 . S
H189 C203 0.930 . S
H190 C182 0.930 . S
H191 C209 0.930 . S
H192 C200 0.929 . S
H193 C207 0.930 . S
H194 C171 0.931 . S
H195 C201 0.930 . S
H196 C234 0.930 . S
H197 C178 0.930 . S
H198 C233 0.931 . S
N199 Eu168 2.657 . S
N199 C200 1.334 . S
N199 C204 1.362 . S
C200 H192 0.929 . S
C200 N199 1.334 . S
C200 C203 1.413 . S
C201 H195 0.930 . S
C201 C202 1.392 . S
C201 C203 1.367 . S
C202 C201 1.392 . S
C202 C204 1.420 . S
C202 C234 1.423 . S
C203 H189 0.930 . S
C203 C200 1.413 . S
C203 C201 1.367 . S
C204 N199 1.362 . S
C204 C202 1.420 . S
C204 C208 1.429 . S
H205 C210 0.930 . S
N206 Eu168 2.609 . S
N206 C208 1.377 . S
N206 C209 1.321 . S
C207 H193 0.930 . S
C207 C209 1.400 . S
C207 C210 1.386 . S
C208 C204 1.429 . S
C208 N206 1.377 . S
C208 C211 1.411 . S
C209 H191 0.930 . S
C209 N206 1.321 . S
C209 C207 1.400 . S
C210 H205 0.930 . S
C210 C207 1.386 . S
C210 C211 1.395 . S
C211 C208 1.411 . S
C211 C210 1.395 . S
C211 C233 1.420 . S
O212 Eu168 2.558 . S
O212 C232 1.257 1_556 S
O213 Eu168 2.612 . S
O213 Eu179 2.380 . S
O213 C224 1.276 . S
O214 Eu179 2.432 . S
O214 C231 1.264 . S
O215 Eu168 2.339 . S
O215 C231 1.254 . S
O216 Eu168 2.563 . S
O216 C224 1.235 . S
O217 Eu168 2.419 . S
O217 C232 1.249 1_556 S
O218 Eu179 2.558 . S
O218 C243 1.257 . S
O219 Eu168 2.380 . S
O219 Eu179 2.612 . S
O219 C235 1.276 . S
O220 Eu168 2.432 . S
O220 C242 1.264 . S
O221 Eu179 2.339 . S
O221 C242 1.254 . S
O222 Eu179 2.563 . S
O222 C235 1.235 . S
O223 Eu179 2.419 . S
O223 C243 1.249 . S
C224 O213 1.276 . S
C224 O216 1.235 . S
C225 C227 1.393 . S
C225 C229 1.395 . S
C225 C232 1.492 . S
C226 C227 1.392 . S
C226 C228 1.386 . S
C227 C225 1.393 . S
C227 C226 1.392 . S
C227 H244 0.930 . S
C228 C226 1.386 . S
C228 C230 1.395 . S
C228 H245 0.930 . S
C229 C225 1.395 . S
C229 C230 1.379 . S
C229 H246 0.930 . S
C230 C228 1.395 . S
C230 C229 1.379 . S
C230 H247 0.930 . S
C231 O214 1.264 . S
C231 O215 1.254 . S
C232 Eu168 2.848 1_554 S
C232 O212 1.257 1_554 S
C232 O217 1.249 1_554 S
C232 C225 1.492 . S
C233 H198 0.931 . S
C233 C211 1.420 . S
C233 C234 1.351 . S
C234 H196 0.930 . S
C234 C202 1.423 . S
C234 C233 1.351 . S
C235 O219 1.276 . S
C235 O222 1.235 . S
C236 C237 1.393 . S
C236 C240 1.395 . S
C236 C243 1.492 . S
C237 C236 1.393 . S
C237 C238 1.392 . S
C237 H248 0.930 . S
C238 C237 1.392 . S
C238 C239 1.386 . S
C239 C238 1.386 . S
C239 C241 1.395 . S
C239 H249 0.930 . S
C240 C236 1.395 . S
C240 C241 1.379 . S
C240 H250 0.930 . S
C241 C239 1.395 . S
C241 C240 1.379 . S
C241 H251 0.930 . S
C242 O220 1.264 . S
C242 O221 1.254 . S
C243 Eu179 2.848 . S
C243 O218 1.257 . S
C243 O223 1.249 . S
C243 C236 1.492 . S
H244 C227 0.930 . S
H245 C228 0.930 . S
H246 C229 0.930 . S
H247 C230 0.930 . S
H248 C237 0.930 . S
H249 C239 0.930 . S
H250 C240 0.930 . S
H251 C241 0.930 . S
Eu252 N283 2.657 . S
Eu252 N290 2.609 . S
Eu252 O296 2.558 . S
Eu252 O297 2.612 . S
Eu252 O299 2.339 . S
Eu252 O300 2.563 . S
Eu252 O301 2.419 . S
Eu252 O303 2.380 . S
Eu252 O304 2.432 . S
Eu252 C316 2.848 . S
C253 C256 1.429 . S
C253 C257 1.411 . S
C253 N260 1.377 . S
C254 C256 1.420 . S
C254 C258 1.423 . S
C254 C266 1.392 . S
C255 C257 1.420 . S
C255 C258 1.351 . S
C255 H278 0.931 . S
C256 C253 1.429 . S
C256 C254 1.420 . S
C256 N264 1.362 . S
C257 C253 1.411 . S
C257 C255 1.420 . S
C257 C262 1.395 . S
C258 C254 1.423 . S
C258 C255 1.351 . S
C258 H270 0.930 . S
C259 C261 1.400 . S
C259 C262 1.386 . S
C259 H271 0.930 . S
N260 C253 1.377 . S
N260 C261 1.321 . S
N260 Eu263 2.609 . S
C261 C259 1.400 . S
C261 N260 1.321 . S
C261 H268 0.930 . S
C262 C257 1.395 . S
C262 C259 1.386 . S
C262 H281 0.930 . S
Eu263 N260 2.609 . S
Eu263 N264 2.657 . S
Eu263 O297 2.380 . S
Eu263 O298 2.432 . S
Eu263 O302 2.558 . S
Eu263 O303 2.612 . S
Eu263 O305 2.339 . S
Eu263 O306 2.563 . S
Eu263 O307 2.419 . S
Eu263 C327 2.848 . S
N264 C256 1.362 . S
N264 Eu263 2.657 . S
N264 C265 1.334 . S
C265 N264 1.334 . S
C265 C267 1.413 . S
C265 H272 0.929 . S
C266 C254 1.392 . S
C266 C267 1.367 . S
C266 H274 0.930 . S
C267 C265 1.413 . S
C267 C266 1.367 . S
C267 H269 0.930 . S
H268 C261 0.930 . S
H269 C267 0.930 . S
H270 C258 0.930 . S
H271 C259 0.930 . S
H272 C265 0.929 . S
H273 C287 0.930 . S
H274 C266 0.930 . S
H275 C293 0.930 . S
H276 C284 0.929 . S
H277 C291 0.930 . S
H278 C255 0.931 . S
H279 C285 0.930 . S
H280 C318 0.930 . S
H281 C262 0.930 . S
H282 C317 0.931 . S
N283 Eu252 2.657 . S
N283 C284 1.334 . S
N283 C288 1.362 . S
C284 H276 0.929 . S
C284 N283 1.334 . S
C284 C287 1.413 . S
C285 H279 0.930 . S
C285 C286 1.392 . S
C285 C287 1.367 . S
C286 C285 1.392 . S
C286 C288 1.420 . S
C286 C318 1.423 . S
C287 H273 0.930 . S
C287 C284 1.413 . S
C287 C285 1.367 . S
C288 N283 1.362 . S
C288 C286 1.420 . S
C288 C292 1.429 . S
H289 C294 0.930 . S
N290 Eu252 2.609 . S
N290 C292 1.377 . S
N290 C293 1.321 . S
C291 H277 0.930 . S
C291 C293 1.400 . S
C291 C294 1.386 . S
C292 C288 1.429 . S
C292 N290 1.377 . S
C292 C295 1.411 . S
C293 H275 0.930 . S
C293 N290 1.321 . S
C293 C291 1.400 . S
C294 H289 0.930 . S
C294 C291 1.386 . S
C294 C295 1.395 . S
C295 C292 1.411 . S
C295 C294 1.395 . S
C295 C317 1.420 . S
O296 Eu252 2.558 . S
O296 C316 1.257 . S
O297 Eu252 2.612 . S
O297 Eu263 2.380 . S
O297 C308 1.276 . S
O298 Eu263 2.432 . S
O298 C315 1.264 . S
O299 Eu252 2.339 . S
O299 C315 1.254 . S
O300 Eu252 2.563 . S
O300 C308 1.235 . S
O301 Eu252 2.419 . S
O301 C316 1.249 . S
O302 Eu263 2.558 . S
O302 C327 1.257 . S
O303 Eu252 2.380 . S
O303 Eu263 2.612 . S
O303 C319 1.276 . S
O304 Eu252 2.432 . S
O304 C326 1.264 . S
O305 Eu263 2.339 . S
O305 C326 1.254 . S
O306 Eu263 2.563 . S
O306 C319 1.235 . S
O307 Eu263 2.419 . S
O307 C327 1.249 . S
C308 O297 1.276 . S
C308 O300 1.235 . S
C309 C311 1.393 . S
C309 C313 1.395 . S
C309 C316 1.492 . S
C310 C311 1.392 . S
C310 C312 1.386 . S
C311 C309 1.393 . S
C311 C310 1.392 . S
C311 H328 0.930 . S
C312 C310 1.386 . S
C312 C314 1.395 . S
C312 H329 0.930 . S
C313 C309 1.395 . S
C313 C314 1.379 . S
C313 H330 0.930 . S
C314 C312 1.395 . S
C314 C313 1.379 . S
C314 H331 0.930 . S
C315 O298 1.264 . S
C315 O299 1.254 . S
C316 Eu252 2.848 . S
C316 O296 1.257 . S
C316 O301 1.249 . S
C316 C309 1.492 . S
C317 H282 0.931 . S
C317 C295 1.420 . S
C317 C318 1.351 . S
C318 H280 0.930 . S
C318 C286 1.423 . S
C318 C317 1.351 . S
C319 O303 1.276 . S
C319 O306 1.235 . S
C320 C321 1.393 . S
C320 C324 1.395 . S
C320 C327 1.492 . S
C321 C320 1.393 . S
C321 C322 1.392 . S
C321 H332 0.930 . S
C322 C321 1.392 . S
C322 C323 1.386 . S
C323 C322 1.386 . S
C323 C325 1.395 . S
C323 H333 0.930 . S
C324 C320 1.395 . S
C324 C325 1.379 . S
C324 H334 0.930 . S
C325 C323 1.395 . S
C325 C324 1.379 . S
C325 H335 0.930 . S
C326 O304 1.264 . S
C326 O305 1.254 . S
C327 Eu263 2.848 . S
C327 O302 1.257 . S
C327 O307 1.249 . S
C327 C320 1.492 . S
H328 C311 0.930 . S
H329 C312 0.930 . S
H330 C313 0.930 . S
H331 C314 0.930 . S
H332 C321 0.930 . S
H333 C323 0.930 . S
H334 C324 0.930 . S
H335 C325 0.930 . S
Eu336 N367 2.657 . S
Eu336 N374 2.609 . S
Eu336 O380 2.558 . S
Eu336 O381 2.612 . S
Eu336 O383 2.339 . S
Eu336 O384 2.563 . S
Eu336 O385 2.419 . S
Eu336 O387 2.380 . S
Eu336 O388 2.432 . S
Eu336 C400 2.848 . S
C337 C340 1.429 . S
C337 C341 1.411 . S
C337 N344 1.377 . S
C338 C340 1.420 . S
C338 C342 1.423 . S
C338 C350 1.392 . S
C339 C341 1.420 . S
C339 C342 1.351 . S
C339 H362 0.931 . S
C340 C337 1.429 . S
C340 C338 1.420 . S
C340 N348 1.362 . S
C341 C337 1.411 . S
C341 C339 1.420 . S
C341 C346 1.395 . S
C342 C338 1.423 . S
C342 C339 1.351 . S
C342 H354 0.930 . S
C343 C345 1.400 . S
C343 C346 1.386 . S
C343 H355 0.930 . S
N344 C337 1.377 . S
N344 C345 1.321 . S
N344 Eu347 2.609 . S
C345 C343 1.400 . S
C345 N344 1.321 . S
C345 H352 0.930 . S
C346 C341 1.395 . S
C346 C343 1.386 . S
C346 H365 0.930 . S
Eu347 N344 2.609 . S
Eu347 N348 2.657 . S
Eu347 O381 2.380 . S
Eu347 O382 2.432 . S
Eu347 O386 2.558 . S
Eu347 O387 2.612 . S
Eu347 O389 2.339 . S
Eu347 O390 2.563 . S
Eu347 O391 2.419 . S
Eu347 C411 2.848 . S
N348 C340 1.362 . S
N348 Eu347 2.657 . S
N348 C349 1.334 . S
C349 N348 1.334 . S
C349 C351 1.413 . S
C349 H356 0.929 . S
C350 C338 1.392 . S
C350 C351 1.367 . S
C350 H358 0.930 . S
C351 C349 1.413 . S
C351 C350 1.367 . S
C351 H353 0.930 . S
H352 C345 0.930 . S
H353 C351 0.930 . S
H354 C342 0.930 . S
H355 C343 0.930 . S
H356 C349 0.929 . S
H357 C371 0.930 . S
H358 C350 0.930 . S
H359 C377 0.930 . S
H360 C368 0.929 . S
H361 C375 0.930 . S
H362 C339 0.931 . S
H363 C369 0.930 . S
H364 C402 0.930 . S
H365 C346 0.930 . S
H366 C401 0.931 . S
N367 Eu336 2.657 . S
N367 C368 1.334 . S
N367 C372 1.362 . S
C368 H360 0.929 . S
C368 N367 1.334 . S
C368 C371 1.413 . S
C369 H363 0.930 . S
C369 C370 1.392 . S
C369 C371 1.367 . S
C370 C369 1.392 . S
C370 C372 1.420 . S
C370 C402 1.423 . S
C371 H357 0.930 . S
C371 C368 1.413 . S
C371 C369 1.367 . S
C372 N367 1.362 . S
C372 C370 1.420 . S
C372 C376 1.429 . S
H373 C378 0.930 . S
N374 Eu336 2.609 . S
N374 C376 1.377 . S
N374 C377 1.321 . S
C375 H361 0.930 . S
C375 C377 1.400 . S
C375 C378 1.386 . S
C376 C372 1.429 . S
C376 N374 1.377 . S
C376 C379 1.411 . S
C377 H359 0.930 . S
C377 N374 1.321 . S
C377 C375 1.400 . S
C378 H373 0.930 . S
C378 C375 1.386 . S
C378 C379 1.395 . S
C379 C376 1.411 . S
C379 C378 1.395 . S
C379 C401 1.420 . S
O380 Eu336 2.558 . S
O380 C400 1.257 . S
O381 Eu336 2.612 . S
O381 Eu347 2.380 . S
O381 C392 1.276 . S
O382 Eu347 2.432 . S
O382 C399 1.264 . S
O383 Eu336 2.339 . S
O383 C399 1.254 . S
O384 Eu336 2.563 . S
O384 C392 1.235 . S
O385 Eu336 2.419 . S
O385 C400 1.249 . S
O386 Eu347 2.558 . S
O386 C411 1.257 . S
O387 Eu336 2.380 . S
O387 Eu347 2.612 . S
O387 C403 1.276 . S
O388 Eu336 2.432 . S
O388 C410 1.264 . S
O389 Eu347 2.339 . S
O389 C410 1.254 . S
O390 Eu347 2.563 . S
O390 C403 1.235 . S
O391 Eu347 2.419 . S
O391 C411 1.249 . S
C392 O381 1.276 . S
C392 O384 1.235 . S
C393 C395 1.393 . S
C393 C397 1.395 . S
C393 C400 1.492 . S
C394 C395 1.392 . S
C394 C396 1.386 . S
C395 C393 1.393 . S
C395 C394 1.392 . S
C395 H412 0.930 . S
C396 C394 1.386 . S
C396 C398 1.395 . S
C396 H413 0.930 . S
C397 C393 1.395 . S
C397 C398 1.379 . S
C397 H414 0.930 . S
C398 C396 1.395 . S
C398 C397 1.379 . S
C398 H415 0.930 . S
C399 O382 1.264 . S
C399 O383 1.254 . S
C400 Eu336 2.848 . S
C400 O380 1.257 . S
C400 O385 1.249 . S
C400 C393 1.492 . S
C401 H366 0.931 . S
C401 C379 1.420 . S
C401 C402 1.351 . S
C402 H364 0.930 . S
C402 C370 1.423 . S
C402 C401 1.351 . S
C403 O387 1.276 . S
C403 O390 1.235 . S
C404 C405 1.393 . S
C404 C408 1.395 . S
C404 C411 1.492 . S
C405 C404 1.393 . S
C405 C406 1.392 . S
C405 H416 0.930 . S
C406 C405 1.392 . S
C406 C407 1.386 . S
C407 C406 1.386 . S
C407 C409 1.395 . S
C407 H417 0.930 . S
C408 C404 1.395 . S
C408 C409 1.379 . S
C408 H418 0.930 . S
C409 C407 1.395 . S
C409 C408 1.379 . S
C409 H419 0.930 . S
C410 O388 1.264 . S
C410 O389 1.254 . S
C411 Eu347 2.848 . S
C411 O386 1.257 . S
C411 O391 1.249 . S
C411 C404 1.492 . S
H412 C395 0.930 . S
H413 C396 0.930 . S
H414 C397 0.930 . S
H415 C398 0.930 . S
H416 C405 0.930 . S
H417 C407 0.930 . S
H418 C408 0.930 . S
H419 C409 0.930 . S
Eu420 N451 2.657 . S
Eu420 N458 2.609 . S
Eu420 O464 2.558 . S
Eu420 O465 2.612 . S
Eu420 O467 2.339 . S
Eu420 O468 2.563 . S
Eu420 O469 2.419 . S
Eu420 O471 2.380 . S
Eu420 O472 2.432 . S
Eu420 C484 2.848 1_556 S
C421 C424 1.429 . S
C421 C425 1.411 . S
C421 N428 1.377 . S
C422 C424 1.420 . S
C422 C426 1.423 . S
C422 C434 1.392 . S
C423 C425 1.420 . S
C423 C426 1.351 . S
C423 H446 0.931 . S
C424 C421 1.429 . S
C424 C422 1.420 . S
C424 N432 1.362 . S
C425 C421 1.411 . S
C425 C423 1.420 . S
C425 C430 1.395 . S
C426 C422 1.423 . S
C426 C423 1.351 . S
C426 H438 0.930 . S
C427 C429 1.400 . S
C427 C430 1.386 . S
C427 H439 0.930 . S
N428 C421 1.377 . S
N428 C429 1.321 . S
N428 Eu431 2.609 . S
C429 C427 1.400 . S
C429 N428 1.321 . S
C429 H436 0.930 . S
C430 C425 1.395 . S
C430 C427 1.386 . S
C430 H449 0.930 . S
Eu431 N428 2.609 . S
Eu431 N432 2.657 . S
Eu431 O465 2.380 . S
Eu431 O466 2.432 . S
Eu431 O470 2.558 . S
Eu431 O471 2.612 . S
Eu431 O473 2.339 . S
Eu431 O474 2.563 . S
Eu431 O475 2.419 . S
Eu431 C495 2.848 . S
N432 C424 1.362 . S
N432 Eu431 2.657 . S
N432 C433 1.334 . S
C433 N432 1.334 . S
C433 C435 1.413 . S
C433 H440 0.929 . S
C434 C422 1.392 . S
C434 C435 1.367 . S
C434 H442 0.930 . S
C435 C433 1.413 . S
C435 C434 1.367 . S
C435 H437 0.930 . S
H436 C429 0.930 . S
H437 C435 0.930 . S
H438 C426 0.930 . S
H439 C427 0.930 . S
H440 C433 0.929 . S
H441 C455 0.930 . S
H442 C434 0.930 . S
H443 C461 0.930 . S
H444 C452 0.929 . S
H445 C459 0.930 . S
H446 C423 0.931 . S
H447 C453 0.930 . S
H448 C486 0.930 . S
H449 C430 0.930 . S
H450 C485 0.931 . S
N451 Eu420 2.657 . S
N451 C452 1.334 . S
N451 C456 1.362 . S
C452 H444 0.929 . S
C452 N451 1.334 . S
C452 C455 1.413 . S
C453 H447 0.930 . S
C453 C454 1.392 . S
C453 C455 1.367 . S
C454 C453 1.392 . S
C454 C456 1.420 . S
C454 C486 1.423 . S
C455 H441 0.930 . S
C455 C452 1.413 . S
C455 C453 1.367 . S
C456 N451 1.362 . S
C456 C454 1.420 . S
C456 C460 1.429 . S
H457 C462 0.930 . S
N458 Eu420 2.609 . S
N458 C460 1.377 . S
N458 C461 1.321 . S
C459 H445 0.930 . S
C459 C461 1.400 . S
C459 C462 1.386 . S
C460 C456 1.429 . S
C460 N458 1.377 . S
C460 C463 1.411 . S
C461 H443 0.930 . S
C461 N458 1.321 . S
C461 C459 1.400 . S
C462 H457 0.930 . S
C462 C459 1.386 . S
C462 C463 1.395 . S
C463 C460 1.411 . S
C463 C462 1.395 . S
C463 C485 1.420 . S
O464 Eu420 2.558 . S
O464 C484 1.257 1_556 S
O465 Eu420 2.612 . S
O465 Eu431 2.380 . S
O465 C476 1.276 . S
O466 Eu431 2.432 . S
O466 C483 1.264 . S
O467 Eu420 2.339 . S
O467 C483 1.254 . S
O468 Eu420 2.563 . S
O468 C476 1.235 . S
O469 Eu420 2.419 . S
O469 C484 1.249 1_556 S
O470 Eu431 2.558 . S
O470 C495 1.257 . S
O471 Eu420 2.380 . S
O471 Eu431 2.612 . S
O471 C487 1.276 . S
O472 Eu420 2.432 . S
O472 C494 1.264 . S
O473 Eu431 2.339 . S
O473 C494 1.254 . S
O474 Eu431 2.563 . S
O474 C487 1.235 . S
O475 Eu431 2.419 . S
O475 C495 1.249 . S
C476 O465 1.276 . S
C476 O468 1.235 . S
C477 C479 1.393 . S
C477 C481 1.395 . S
C477 C484 1.492 . S
C478 C479 1.392 . S
C478 C480 1.386 . S
C479 C477 1.393 . S
C479 C478 1.392 . S
C479 H496 0.930 . S
C480 C478 1.386 . S
C480 C482 1.395 . S
C480 H497 0.930 . S
C481 C477 1.395 . S
C481 C482 1.379 . S
C481 H498 0.930 . S
C482 C480 1.395 . S
C482 C481 1.379 . S
C482 H499 0.930 . S
C483 O466 1.264 . S
C483 O467 1.254 . S
C484 Eu420 2.848 1_554 S
C484 O464 1.257 1_554 S
C484 O469 1.249 1_554 S
C484 C477 1.492 . S
C485 H450 0.931 . S
C485 C463 1.420 . S
C485 C486 1.351 . S
C486 H448 0.930 . S
C486 C454 1.423 . S
C486 C485 1.351 . S
C487 O471 1.276 . S
C487 O474 1.235 . S
C488 C489 1.393 . S
C488 C492 1.395 . S
C488 C495 1.492 . S
C489 C488 1.393 . S
C489 C490 1.392 . S
C489 H500 0.930 . S
C490 C489 1.392 . S
C490 C491 1.386 . S
C491 C490 1.386 . S
C491 C493 1.395 . S
C491 H501 0.930 . S
C492 C488 1.395 . S
C492 C493 1.379 . S
C492 H502 0.930 . S
C493 C491 1.395 . S
C493 C492 1.379 . S
C493 H503 0.930 . S
C494 O472 1.264 . S
C494 O473 1.254 . S
C495 Eu431 2.848 . S
C495 O470 1.257 . S
C495 O475 1.249 . S
C495 C488 1.492 . S
H496 C479 0.930 . S
H497 C480 0.930 . S
H498 C481 0.930 . S
H499 C482 0.930 . S
H500 C489 0.930 . S
H501 C491 0.930 . S
H502 C492 0.930 . S
H503 C493 0.930 . S
Eu504 N535 2.657 . S
Eu504 N542 2.609 . S
Eu504 O548 2.558 . S
Eu504 O549 2.612 . S
Eu504 O551 2.339 . S
Eu504 O552 2.563 . S
Eu504 O553 2.419 . S
Eu504 O555 2.380 . S
Eu504 O556 2.432 . S
Eu504 C568 2.848 . S
C505 C508 1.429 . S
C505 C509 1.411 . S
C505 N512 1.377 . S
C506 C508 1.420 . S
C506 C510 1.423 . S
C506 C518 1.392 . S
C507 C509 1.420 . S
C507 C510 1.351 . S
C507 H530 0.931 . S
C508 C505 1.429 . S
C508 C506 1.420 . S
C508 N516 1.362 . S
C509 C505 1.411 . S
C509 C507 1.420 . S
C509 C514 1.395 . S
C510 C506 1.423 . S
C510 C507 1.351 . S
C510 H522 0.930 . S
C511 C513 1.400 . S
C511 C514 1.386 . S
C511 H523 0.930 . S
N512 C505 1.377 . S
N512 C513 1.321 . S
N512 Eu515 2.609 . S
C513 C511 1.400 . S
C513 N512 1.321 . S
C513 H520 0.930 . S
C514 C509 1.395 . S
C514 C511 1.386 . S
C514 H533 0.930 . S
Eu515 N512 2.609 . S
Eu515 N516 2.657 . S
Eu515 O549 2.380 . S
Eu515 O550 2.432 . S
Eu515 O554 2.558 . S
Eu515 O555 2.612 . S
Eu515 O557 2.339 . S
Eu515 O558 2.563 . S
Eu515 O559 2.419 . S
Eu515 C579 2.848 . S
N516 C508 1.362 . S
N516 Eu515 2.657 . S
N516 C517 1.334 . S
C517 N516 1.334 . S
C517 C519 1.413 . S
C517 H524 0.929 . S
C518 C506 1.392 . S
C518 C519 1.367 . S
C518 H526 0.930 . S
C519 C517 1.413 . S
C519 C518 1.367 . S
C519 H521 0.930 . S
H520 C513 0.930 . S
H521 C519 0.930 . S
H522 C510 0.930 . S
H523 C511 0.930 . S
H524 C517 0.929 . S
H525 C539 0.930 . S
H526 C518 0.930 . S
H527 C545 0.930 . S
H528 C536 0.929 . S
H529 C543 0.930 . S
H530 C507 0.931 . S
H531 C537 0.930 . S
H532 C570 0.930 . S
H533 C514 0.930 . S
H534 C569 0.931 . S
N535 Eu504 2.657 . S
N535 C536 1.334 . S
N535 C540 1.362 . S
C536 H528 0.929 . S
C536 N535 1.334 . S
C536 C539 1.413 . S
C537 H531 0.930 . S
C537 C538 1.392 . S
C537 C539 1.367 . S
C538 C537 1.392 . S
C538 C540 1.420 . S
C538 C570 1.423 . S
C539 H525 0.930 . S
C539 C536 1.413 . S
C539 C537 1.367 . S
C540 N535 1.362 . S
C540 C538 1.420 . S
C540 C544 1.429 . S
H541 C546 0.930 . S
N542 Eu504 2.609 . S
N542 C544 1.377 . S
N542 C545 1.321 . S
C543 H529 0.930 . S
C543 C545 1.400 . S
C543 C546 1.386 . S
C544 C540 1.429 . S
C544 N542 1.377 . S
C544 C547 1.411 . S
C545 H527 0.930 . S
C545 N542 1.321 . S
C545 C543 1.400 . S
C546 H541 0.930 . S
C546 C543 1.386 . S
C546 C547 1.395 . S
C547 C544 1.411 . S
C547 C546 1.395 . S
C547 C569 1.420 . S
O548 Eu504 2.558 . S
O548 C568 1.257 . S
O549 Eu504 2.612 . S
O549 Eu515 2.380 . S
O549 C560 1.276 . S
O550 Eu515 2.432 . S
O550 C567 1.264 . S
O551 Eu504 2.339 . S
O551 C567 1.254 . S
O552 Eu504 2.563 . S
O552 C560 1.235 . S
O553 Eu504 2.419 . S
O553 C568 1.249 . S
O554 Eu515 2.558 . S
O554 C579 1.257 . S
O555 Eu504 2.380 . S
O555 Eu515 2.612 . S
O555 C571 1.276 . S
O556 Eu504 2.432 . S
O556 C578 1.264 . S
O557 Eu515 2.339 . S
O557 C578 1.254 . S
O558 Eu515 2.563 . S
O558 C571 1.235 . S
O559 Eu515 2.419 . S
O559 C579 1.249 . S
C560 O549 1.276 . S
C560 O552 1.235 . S
C561 C563 1.393 . S
C561 C565 1.395 . S
C561 C568 1.492 . S
C562 C563 1.392 . S
C562 C564 1.386 . S
C563 C561 1.393 . S
C563 C562 1.392 . S
C563 H580 0.930 . S
C564 C562 1.386 . S
C564 C566 1.395 . S
C564 H581 0.930 . S
C565 C561 1.395 . S
C565 C566 1.379 . S
C565 H582 0.930 . S
C566 C564 1.395 . S
C566 C565 1.379 . S
C566 H583 0.930 . S
C567 O550 1.264 . S
C567 O551 1.254 . S
C568 Eu504 2.848 . S
C568 O548 1.257 . S
C568 O553 1.249 . S
C568 C561 1.492 . S
C569 H534 0.931 . S
C569 C547 1.420 . S
C569 C570 1.351 . S
C570 H532 0.930 . S
C570 C538 1.423 . S
C570 C569 1.351 . S
C571 O555 1.276 . S
C571 O558 1.235 . S
C572 C573 1.393 . S
C572 C576 1.395 . S
C572 C579 1.492 . S
C573 C572 1.393 . S
C573 C574 1.392 . S
C573 H584 0.930 . S
C574 C573 1.392 . S
C574 C575 1.386 . S
C575 C574 1.386 . S
C575 C577 1.395 . S
C575 H585 0.930 . S
C576 C572 1.395 . S
C576 C577 1.379 . S
C576 H586 0.930 . S
C577 C575 1.395 . S
C577 C576 1.379 . S
C577 H587 0.930 . S
C578 O556 1.264 . S
C578 O557 1.254 . S
C579 Eu515 2.848 . S
C579 O554 1.257 . S
C579 O559 1.249 . S
C579 C572 1.492 . S
H580 C563 0.930 . S
H581 C564 0.930 . S
H582 C565 0.930 . S
H583 C566 0.930 . S
H584 C573 0.930 . S
H585 C575 0.930 . S
H586 C576 0.930 . S
H587 C577 0.930 . S
Eu588 N619 2.657 . S
Eu588 N626 2.609 . S
Eu588 O632 2.558 . S
Eu588 O633 2.612 . S
Eu588 O635 2.339 . S
Eu588 O636 2.563 . S
Eu588 O637 2.419 . S
Eu588 O639 2.380 . S
Eu588 O640 2.432 . S
Eu588 C652 2.848 . S
C589 C592 1.429 . S
C589 C593 1.411 . S
C589 N596 1.377 . S
C590 C592 1.420 . S
C590 C594 1.423 . S
C590 C602 1.392 . S
C591 C593 1.420 . S
C591 C594 1.351 . S
C591 H614 0.931 . S
C592 C589 1.429 . S
C592 C590 1.420 . S
C592 N600 1.362 . S
C593 C589 1.411 . S
C593 C591 1.420 . S
C593 C598 1.395 . S
C594 C590 1.423 . S
C594 C591 1.351 . S
C594 H606 0.930 . S
C595 C597 1.400 . S
C595 C598 1.386 . S
C595 H607 0.930 . S
N596 C589 1.377 . S
N596 C597 1.321 . S
N596 Eu599 2.609 . S
C597 C595 1.400 . S
C597 N596 1.321 . S
C597 H604 0.930 . S
C598 C593 1.395 . S
C598 C595 1.386 . S
C598 H617 0.930 . S
Eu599 N596 2.609 . S
Eu599 N600 2.657 . S
Eu599 O633 2.380 . S
Eu599 O634 2.432 . S
Eu599 O638 2.558 . S
Eu599 O639 2.612 . S
Eu599 O641 2.339 . S
Eu599 O642 2.563 . S
Eu599 O643 2.419 . S
Eu599 C663 2.848 . S
N600 C592 1.362 . S
N600 Eu599 2.657 . S
N600 C601 1.334 . S
C601 N600 1.334 . S
C601 C603 1.413 . S
C601 H608 0.929 . S
C602 C590 1.392 . S
C602 C603 1.367 . S
C602 H610 0.930 . S
C603 C601 1.413 . S
C603 C602 1.367 . S
C603 H605 0.930 . S
H604 C597 0.930 . S
H605 C603 0.930 . S
H606 C594 0.930 . S
H607 C595 0.930 . S
H608 C601 0.929 . S
H609 C623 0.930 . S
H610 C602 0.930 . S
H611 C629 0.930 . S
H612 C620 0.929 . S
H613 C627 0.930 . S
H614 C591 0.931 . S
H615 C621 0.930 . S
H616 C654 0.930 . S
H617 C598 0.930 . S
H618 C653 0.931 . S
N619 Eu588 2.657 . S
N619 C620 1.334 . S
N619 C624 1.362 . S
C620 H612 0.929 . S
C620 N619 1.334 . S
C620 C623 1.413 . S
C621 H615 0.930 . S
C621 C622 1.392 . S
C621 C623 1.367 . S
C622 C621 1.392 . S
C622 C624 1.420 . S
C622 C654 1.423 . S
C623 H609 0.930 . S
C623 C620 1.413 . S
C623 C621 1.367 . S
C624 N619 1.362 . S
C624 C622 1.420 . S
C624 C628 1.429 . S
H625 C630 0.930 . S
N626 Eu588 2.609 . S
N626 C628 1.377 . S
N626 C629 1.321 . S
C627 H613 0.930 . S
C627 C629 1.400 . S
C627 C630 1.386 . S
C628 C624 1.429 . S
C628 N626 1.377 . S
C628 C631 1.411 . S
C629 H611 0.930 . S
C629 N626 1.321 . S
C629 C627 1.400 . S
C630 H625 0.930 . S
C630 C627 1.386 . S
C630 C631 1.395 . S
C631 C628 1.411 . S
C631 C630 1.395 . S
C631 C653 1.420 . S
O632 Eu588 2.558 . S
O632 C652 1.257 . S
O633 Eu588 2.612 . S
O633 Eu599 2.380 . S
O633 C644 1.276 . S
O634 Eu599 2.432 . S
O634 C651 1.264 . S
O635 Eu588 2.339 . S
O635 C651 1.254 . S
O636 Eu588 2.563 . S
O636 C644 1.235 . S
O637 Eu588 2.419 . S
O637 C652 1.249 . S
O638 Eu599 2.558 . S
O638 C663 1.257 . S
O639 Eu588 2.380 . S
O639 Eu599 2.612 . S
O639 C655 1.276 . S
O640 Eu588 2.432 . S
O640 C662 1.264 . S
O641 Eu599 2.339 . S
O641 C662 1.254 . S
O642 Eu599 2.563 . S
O642 C655 1.235 . S
O643 Eu599 2.419 . S
O643 C663 1.249 . S
C644 O633 1.276 . S
C644 O636 1.235 . S
C645 C647 1.393 . S
C645 C649 1.395 . S
C645 C652 1.492 . S
C646 C647 1.392 . S
C646 C648 1.386 . S
C647 C645 1.393 . S
C647 C646 1.392 . S
C647 H664 0.930 . S
C648 C646 1.386 . S
C648 C650 1.395 . S
C648 H665 0.930 . S
C649 C645 1.395 . S
C649 C650 1.379 . S
C649 H666 0.930 . S
C650 C648 1.395 . S
C650 C649 1.379 . S
C650 H667 0.930 . S
C651 O634 1.264 . S
C651 O635 1.254 . S
C652 Eu588 2.848 . S
C652 O632 1.257 . S
C652 O637 1.249 . S
C652 C645 1.492 . S
C653 H618 0.931 . S
C653 C631 1.420 . S
C653 C654 1.351 . S
C654 H616 0.930 . S
C654 C622 1.423 . S
C654 C653 1.351 . S
C655 O639 1.276 . S
C655 O642 1.235 . S
C656 C657 1.393 . S
C656 C660 1.395 . S
C656 C663 1.492 . S
C657 C656 1.393 . S
C657 C658 1.392 . S
C657 H668 0.930 . S
C658 C657 1.392 . S
C658 C659 1.386 . S
C659 C658 1.386 . S
C659 C661 1.395 . S
C659 H669 0.930 . S
C660 C656 1.395 . S
C660 C661 1.379 . S
C660 H670 0.930 . S
C661 C659 1.395 . S
C661 C660 1.379 . S
C661 H671 0.930 . S
C662 O640 1.264 . S
C662 O641 1.254 . S
C663 Eu599 2.848 . S
C663 O638 1.257 . S
C663 O643 1.249 . S
C663 C656 1.492 . S
H664 C647 0.930 . S
H665 C648 0.930 . S
H666 C649 0.930 . S
H667 C650 0.930 . S
H668 C657 0.930 . S
H669 C659 0.930 . S
H670 C660 0.930 . S
H671 C661 0.930 . S
Eu672 N703 2.657 . S
Eu672 N710 2.609 . S
Eu672 O716 2.558 . S
Eu672 O717 2.612 . S
Eu672 O719 2.339 . S
Eu672 O720 2.563 . S
Eu672 O721 2.419 . S
Eu672 O723 2.380 . S
Eu672 O724 2.432 . S
Eu672 C736 2.848 1_554 S
C673 C676 1.429 . S
C673 C677 1.411 . S
C673 N680 1.377 . S
C674 C676 1.420 . S
C674 C678 1.423 . S
C674 C686 1.392 . S
C675 C677 1.420 . S
C675 C678 1.351 . S
C675 H698 0.931 . S
C676 C673 1.429 . S
C676 C674 1.420 . S
C676 N684 1.362 . S
C677 C673 1.411 . S
C677 C675 1.420 . S
C677 C682 1.395 . S
C678 C674 1.423 . S
C678 C675 1.351 . S
C678 H690 0.930 . S
C679 C681 1.400 . S
C679 C682 1.386 . S
C679 H691 0.930 . S
N680 C673 1.377 . S
N680 C681 1.321 . S
N680 Eu683 2.609 . S
C681 C679 1.400 . S
C681 N680 1.321 . S
C681 H688 0.930 . S
C682 C677 1.395 . S
C682 C679 1.386 . S
C682 H701 0.930 . S
Eu683 N680 2.609 . S
Eu683 N684 2.657 . S
Eu683 O717 2.380 . S
Eu683 O718 2.432 . S
Eu683 O722 2.558 . S
Eu683 O723 2.612 . S
Eu683 O725 2.339 . S
Eu683 O726 2.563 . S
Eu683 O727 2.419 . S
Eu683 C747 2.848 . S
N684 C676 1.362 . S
N684 Eu683 2.657 . S
N684 C685 1.334 . S
C685 N684 1.334 . S
C685 C687 1.413 . S
C685 H692 0.929 . S
C686 C674 1.392 . S
C686 C687 1.367 . S
C686 H694 0.930 . S
C687 C685 1.413 . S
C687 C686 1.367 . S
C687 H689 0.930 . S
H688 C681 0.930 . S
H689 C687 0.930 . S
H690 C678 0.930 . S
H691 C679 0.930 . S
H692 C685 0.929 . S
H693 C707 0.930 . S
H694 C686 0.930 . S
H695 C713 0.930 . S
H696 C704 0.929 . S
H697 C711 0.930 . S
H698 C675 0.931 . S
H699 C705 0.930 . S
H700 C738 0.930 . S
H701 C682 0.930 . S
H702 C737 0.931 . S
N703 Eu672 2.657 . S
N703 C704 1.334 . S
N703 C708 1.362 . S
C704 H696 0.929 . S
C704 N703 1.334 . S
C704 C707 1.413 . S
C705 H699 0.930 . S
C705 C706 1.392 . S
C705 C707 1.367 . S
C706 C705 1.392 . S
C706 C708 1.420 . S
C706 C738 1.423 . S
C707 H693 0.930 . S
C707 C704 1.413 . S
C707 C705 1.367 . S
C708 N703 1.362 . S
C708 C706 1.420 . S
C708 C712 1.429 . S
H709 C714 0.930 . S
N710 Eu672 2.609 . S
N710 C712 1.377 . S
N710 C713 1.321 . S
C711 H697 0.930 . S
C711 C713 1.400 . S
C711 C714 1.386 . S
C712 C708 1.429 . S
C712 N710 1.377 . S
C712 C715 1.411 . S
C713 H695 0.930 . S
C713 N710 1.321 . S
C713 C711 1.400 . S
C714 H709 0.930 . S
C714 C711 1.386 . S
C714 C715 1.395 . S
C715 C712 1.411 . S
C715 C714 1.395 . S
C715 C737 1.420 . S
O716 Eu672 2.558 . S
O716 C736 1.257 1_554 S
O717 Eu672 2.612 . S
O717 Eu683 2.380 . S
O717 C728 1.276 . S
O718 Eu683 2.432 . S
O718 C735 1.264 . S
O719 Eu672 2.339 . S
O719 C735 1.254 . S
O720 Eu672 2.563 . S
O720 C728 1.235 . S
O721 Eu672 2.419 . S
O721 C736 1.249 1_554 S
O722 Eu683 2.558 . S
O722 C747 1.257 . S
O723 Eu672 2.380 . S
O723 Eu683 2.612 . S
O723 C739 1.276 . S
O724 Eu672 2.432 . S
O724 C746 1.264 . S
O725 Eu683 2.339 . S
O725 C746 1.254 . S
O726 Eu683 2.563 . S
O726 C739 1.235 . S
O727 Eu683 2.419 . S
O727 C747 1.249 . S
C728 O717 1.276 . S
C728 O720 1.235 . S
C729 C731 1.393 . S
C729 C733 1.395 . S
C729 C736 1.492 . S
C730 C731 1.392 . S
C730 C732 1.386 . S
C731 C729 1.393 . S
C731 C730 1.392 . S
C731 H748 0.930 . S
C732 C730 1.386 . S
C732 C734 1.395 . S
C732 H749 0.930 . S
C733 C729 1.395 . S
C733 C734 1.379 . S
C733 H750 0.930 . S
C734 C732 1.395 . S
C734 C733 1.379 . S
C734 H751 0.930 . S
C735 O718 1.264 . S
C735 O719 1.254 . S
C736 Eu672 2.848 1_556 S
C736 O716 1.257 1_556 S
C736 O721 1.249 1_556 S
C736 C729 1.492 . S
C737 H702 0.931 . S
C737 C715 1.420 . S
C737 C738 1.351 . S
C738 H700 0.930 . S
C738 C706 1.423 . S
C738 C737 1.351 . S
C739 O723 1.276 . S
C739 O726 1.235 . S
C740 C741 1.393 . S
C740 C744 1.395 . S
C740 C747 1.492 . S
C741 C740 1.393 . S
C741 C742 1.392 . S
C741 H752 0.930 . S
C742 C741 1.392 . S
C742 C743 1.386 . S
C743 C742 1.386 . S
C743 C745 1.395 . S
C743 H753 0.930 . S
C744 C740 1.395 . S
C744 C745 1.379 . S
C744 H754 0.930 . S
C745 C743 1.395 . S
C745 C744 1.379 . S
C745 H755 0.930 . S
C746 O724 1.264 . S
C746 O725 1.254 . S
C747 Eu683 2.848 . S
C747 O722 1.257 . S
C747 O727 1.249 . S
C747 C740 1.492 . S
H748 C731 0.930 . S
H749 C732 0.930 . S
H750 C733 0.930 . S
H751 C734 0.930 . S
H752 C741 0.930 . S
H753 C743 0.930 . S
H754 C744 0.930 . S
H755 C745 0.930 . S
Eu756 N787 2.657 . S
Eu756 N794 2.609 . S
Eu756 O800 2.558 . S
Eu756 O801 2.612 . S
Eu756 O803 2.339 . S
Eu756 O804 2.563 . S
Eu756 O805 2.419 . S
Eu756 O807 2.380 . S
Eu756 O808 2.432 . S
Eu756 C820 2.848 . S
C757 C760 1.429 . S
C757 C761 1.411 . S
C757 N764 1.377 . S
C758 C760 1.420 . S
C758 C762 1.423 . S
C758 C770 1.392 . S
C759 C761 1.420 . S
C759 C762 1.351 . S
C759 H782 0.931 . S
C760 C757 1.429 . S
C760 C758 1.420 . S
C760 N768 1.362 . S
C761 C757 1.411 . S
C761 C759 1.420 . S
C761 C766 1.395 . S
C762 C758 1.423 . S
C762 C759 1.351 . S
C762 H774 0.930 . S
C763 C765 1.400 . S
C763 C766 1.386 . S
C763 H775 0.930 . S
N764 C757 1.377 . S
N764 C765 1.321 . S
N764 Eu767 2.609 . S
C765 C763 1.400 . S
C765 N764 1.321 . S
C765 H772 0.930 . S
C766 C761 1.395 . S
C766 C763 1.386 . S
C766 H785 0.930 . S
Eu767 N764 2.609 . S
Eu767 N768 2.657 . S
Eu767 O801 2.380 . S
Eu767 O802 2.432 . S
Eu767 O806 2.558 . S
Eu767 O807 2.612 . S
Eu767 O809 2.339 . S
Eu767 O810 2.563 . S
Eu767 O811 2.419 . S
Eu767 C831 2.848 . S
N768 C760 1.362 . S
N768 Eu767 2.657 . S
N768 C769 1.334 . S
C769 N768 1.334 . S
C769 C771 1.413 . S
C769 H776 0.929 . S
C770 C758 1.392 . S
C770 C771 1.367 . S
C770 H778 0.930 . S
C771 C769 1.413 . S
C771 C770 1.367 . S
C771 H773 0.930 . S
H772 C765 0.930 . S
H773 C771 0.930 . S
H774 C762 0.930 . S
H775 C763 0.930 . S
H776 C769 0.929 . S
H777 C791 0.930 . S
H778 C770 0.930 . S
H779 C797 0.930 . S
H780 C788 0.929 . S
H781 C795 0.930 . S
H782 C759 0.931 . S
H783 C789 0.930 . S
H784 C822 0.930 . S
H785 C766 0.930 . S
H786 C821 0.931 . S
N787 Eu756 2.657 . S
N787 C788 1.334 . S
N787 C792 1.362 . S
C788 H780 0.929 . S
C788 N787 1.334 . S
C788 C791 1.413 . S
C789 H783 0.930 . S
C789 C790 1.392 . S
C789 C791 1.367 . S
C790 C789 1.392 . S
C790 C792 1.420 . S
C790 C822 1.423 . S
C791 H777 0.930 . S
C791 C788 1.413 . S
C791 C789 1.367 . S
C792 N787 1.362 . S
C792 C790 1.420 . S
C792 C796 1.429 . S
H793 C798 0.930 . S
N794 Eu756 2.609 . S
N794 C796 1.377 . S
N794 C797 1.321 . S
C795 H781 0.930 . S
C795 C797 1.400 . S
C795 C798 1.386 . S
C796 C792 1.429 . S
C796 N794 1.377 . S
C796 C799 1.411 . S
C797 H779 0.930 . S
C797 N794 1.321 . S
C797 C795 1.400 . S
C798 H793 0.930 . S
C798 C795 1.386 . S
C798 C799 1.395 . S
C799 C796 1.411 . S
C799 C798 1.395 . S
C799 C821 1.420 . S
O800 Eu756 2.558 . S
O800 C820 1.257 . S
O801 Eu756 2.612 . S
O801 Eu767 2.380 . S
O801 C812 1.276 . S
O802 Eu767 2.432 . S
O802 C819 1.264 . S
O803 Eu756 2.339 . S
O803 C819 1.254 . S
O804 Eu756 2.563 . S
O804 C812 1.235 . S
O805 Eu756 2.419 . S
O805 C820 1.249 . S
O806 Eu767 2.558 . S
O806 C831 1.257 . S
O807 Eu756 2.380 . S
O807 Eu767 2.612 . S
O807 C823 1.276 . S
O808 Eu756 2.432 . S
O808 C830 1.264 . S
O809 Eu767 2.339 . S
O809 C830 1.254 . S
O810 Eu767 2.563 . S
O810 C823 1.235 . S
O811 Eu767 2.419 . S
O811 C831 1.249 . S
C812 O801 1.276 . S
C812 O804 1.235 . S
C813 C815 1.393 . S
C813 C817 1.395 . S
C813 C820 1.492 . S
C814 C815 1.392 . S
C814 C816 1.386 . S
C815 C813 1.393 . S
C815 C814 1.392 . S
C815 H832 0.930 . S
C816 C814 1.386 . S
C816 C818 1.395 . S
C816 H833 0.930 . S
C817 C813 1.395 . S
C817 C818 1.379 . S
C817 H834 0.930 . S
C818 C816 1.395 . S
C818 C817 1.379 . S
C818 H835 0.930 . S
C819 O802 1.264 . S
C819 O803 1.254 . S
C820 Eu756 2.848 . S
C820 O800 1.257 . S
C820 O805 1.249 . S
C820 C813 1.492 . S
C821 H786 0.931 . S
C821 C799 1.420 . S
C821 C822 1.351 . S
C822 H784 0.930 . S
C822 C790 1.423 . S
C822 C821 1.351 . S
C823 O807 1.276 . S
C823 O810 1.235 . S
C824 C825 1.393 . S
C824 C828 1.395 . S
C824 C831 1.492 . S
C825 C824 1.393 . S
C825 C826 1.392 . S
C825 H836 0.930 . S
C826 C825 1.392 . S
C826 C827 1.386 . S
C827 C826 1.386 . S
C827 C829 1.395 . S
C827 H837 0.930 . S
C828 C824 1.395 . S
C828 C829 1.379 . S
C828 H838 0.930 . S
C829 C827 1.395 . S
C829 C828 1.379 . S
C829 H839 0.930 . S
C830 O808 1.264 . S
C830 O809 1.254 . S
C831 Eu767 2.848 . S
C831 O806 1.257 . S
C831 O811 1.249 . S
C831 C824 1.492 . S
H832 C815 0.930 . S
H833 C816 0.930 . S
H834 C817 0.930 . S
H835 C818 0.930 . S
H836 C825 0.930 . S
H837 C827 0.930 . S
H838 C828 0.930 . S
H839 C829 0.930 . S
Eu840 N871 2.657 . S
Eu840 N878 2.609 . S
Eu840 O884 2.558 . S
Eu840 O885 2.612 . S
Eu840 O887 2.339 . S
Eu840 O888 2.563 . S
Eu840 O889 2.419 . S
Eu840 O891 2.380 . S
Eu840 O892 2.432 . S
Eu840 C904 2.848 . S
C841 C844 1.429 . S
C841 C845 1.411 . S
C841 N848 1.377 . S
C842 C844 1.420 . S
C842 C846 1.423 . S
C842 C854 1.392 . S
C843 C845 1.420 . S
C843 C846 1.351 . S
C843 H866 0.931 . S
C844 C841 1.429 . S
C844 C842 1.420 . S
C844 N852 1.362 . S
C845 C841 1.411 . S
C845 C843 1.420 . S
C845 C850 1.395 . S
C846 C842 1.423 . S
C846 C843 1.351 . S
C846 H858 0.930 . S
C847 C849 1.400 . S
C847 C850 1.386 . S
C847 H859 0.930 . S
N848 C841 1.377 . S
N848 C849 1.321 . S
N848 Eu851 2.609 . S
C849 C847 1.400 . S
C849 N848 1.321 . S
C849 H856 0.930 . S
C850 C845 1.395 . S
C850 C847 1.386 . S
C850 H869 0.930 . S
Eu851 N848 2.609 . S
Eu851 N852 2.657 . S
Eu851 O885 2.380 . S
Eu851 O886 2.432 . S
Eu851 O890 2.558 . S
Eu851 O891 2.612 . S
Eu851 O893 2.339 . S
Eu851 O894 2.563 . S
Eu851 O895 2.419 . S
Eu851 C915 2.848 . S
N852 C844 1.362 . S
N852 Eu851 2.657 . S
N852 C853 1.334 . S
C853 N852 1.334 . S
C853 C855 1.413 . S
C853 H860 0.929 . S
C854 C842 1.392 . S
C854 C855 1.367 . S
C854 H862 0.930 . S
C855 C853 1.413 . S
C855 C854 1.367 . S
C855 H857 0.930 . S
H856 C849 0.930 . S
H857 C855 0.930 . S
H858 C846 0.930 . S
H859 C847 0.930 . S
H860 C853 0.929 . S
H861 C875 0.930 . S
H862 C854 0.930 . S
H863 C881 0.930 . S
H864 C872 0.929 . S
H865 C879 0.930 . S
H866 C843 0.931 . S
H867 C873 0.930 . S
H868 C906 0.930 . S
H869 C850 0.930 . S
H870 C905 0.931 . S
N871 Eu840 2.657 . S
N871 C872 1.334 . S
N871 C876 1.362 . S
C872 H864 0.929 . S
C872 N871 1.334 . S
C872 C875 1.413 . S
C873 H867 0.930 . S
C873 C874 1.392 . S
C873 C875 1.367 . S
C874 C873 1.392 . S
C874 C876 1.420 . S
C874 C906 1.423 . S
C875 H861 0.930 . S
C875 C872 1.413 . S
C875 C873 1.367 . S
C876 N871 1.362 . S
C876 C874 1.420 . S
C876 C880 1.429 . S
H877 C882 0.930 . S
N878 Eu840 2.609 . S
N878 C880 1.377 . S
N878 C881 1.321 . S
C879 H865 0.930 . S
C879 C881 1.400 . S
C879 C882 1.386 . S
C880 C876 1.429 . S
C880 N878 1.377 . S
C880 C883 1.411 . S
C881 H863 0.930 . S
C881 N878 1.321 . S
C881 C879 1.400 . S
C882 H877 0.930 . S
C882 C879 1.386 . S
C882 C883 1.395 . S
C883 C880 1.411 . S
C883 C882 1.395 . S
C883 C905 1.420 . S
O884 Eu840 2.558 . S
O884 C904 1.257 . S
O885 Eu840 2.612 . S
O885 Eu851 2.380 . S
O885 C896 1.276 . S
O886 Eu851 2.432 . S
O886 C903 1.264 . S
O887 Eu840 2.339 . S
O887 C903 1.254 . S
O888 Eu840 2.563 . S
O888 C896 1.235 . S
O889 Eu840 2.419 . S
O889 C904 1.249 . S
O890 Eu851 2.558 . S
O890 C915 1.257 . S
O891 Eu840 2.380 . S
O891 Eu851 2.612 . S
O891 C907 1.276 . S
O892 Eu840 2.432 . S
O892 C914 1.264 . S
O893 Eu851 2.339 . S
O893 C914 1.254 . S
O894 Eu851 2.563 . S
O894 C907 1.235 . S
O895 Eu851 2.419 . S
O895 C915 1.249 . S
C896 O885 1.276 . S
C896 O888 1.235 . S
C897 C899 1.393 . S
C897 C901 1.395 . S
C897 C904 1.492 . S
C898 C899 1.392 . S
C898 C900 1.386 . S
C899 C897 1.393 . S
C899 C898 1.392 . S
C899 H916 0.930 . S
C900 C898 1.386 . S
C900 C902 1.395 . S
C900 H917 0.930 . S
C901 C897 1.395 . S
C901 C902 1.379 . S
C901 H918 0.930 . S
C902 C900 1.395 . S
C902 C901 1.379 . S
C902 H919 0.930 . S
C903 O886 1.264 . S
C903 O887 1.254 . S
C904 Eu840 2.848 . S
C904 O884 1.257 . S
C904 O889 1.249 . S
C904 C897 1.492 . S
C905 H870 0.931 . S
C905 C883 1.420 . S
C905 C906 1.351 . S
C906 H868 0.930 . S
C906 C874 1.423 . S
C906 C905 1.351 . S
C907 O891 1.276 . S
C907 O894 1.235 . S
C908 C909 1.393 . S
C908 C912 1.395 . S
C908 C915 1.492 . S
C909 C908 1.393 . S
C909 C910 1.392 . S
C909 H920 0.930 . S
C910 C909 1.392 . S
C910 C911 1.386 . S
C911 C910 1.386 . S
C911 C913 1.395 . S
C911 H921 0.930 . S
C912 C908 1.395 . S
C912 C913 1.379 . S
C912 H922 0.930 . S
C913 C911 1.395 . S
C913 C912 1.379 . S
C913 H923 0.930 . S
C914 O892 1.264 . S
C914 O893 1.254 . S
C915 Eu851 2.848 . S
C915 O890 1.257 . S
C915 O895 1.249 . S
C915 C908 1.492 . S
H916 C899 0.930 . S
H917 C900 0.930 . S
H918 C901 0.930 . S
H919 C902 0.930 . S
H920 C909 0.930 . S
H921 C911 0.930 . S
H922 C912 0.930 . S
H923 C913 0.930 . S
Eu924 N955 2.657 . S
Eu924 N962 2.609 . S
Eu924 O968 2.558 . S
Eu924 O969 2.612 . S
Eu924 O971 2.339 . S
Eu924 O972 2.563 . S
Eu924 O973 2.419 . S
Eu924 O975 2.380 . S
Eu924 O976 2.432 . S
Eu924 C988 2.848 1_554 S
C925 C928 1.429 . S
C925 C929 1.411 . S
C925 N932 1.377 . S
C926 C928 1.420 . S
C926 C930 1.423 . S
C926 C938 1.392 . S
C927 C929 1.420 . S
C927 C930 1.351 . S
C927 H950 0.931 . S
C928 C925 1.429 . S
C928 C926 1.420 . S
C928 N936 1.362 . S
C929 C925 1.411 . S
C929 C927 1.420 . S
C929 C934 1.395 . S
C930 C926 1.423 . S
C930 C927 1.351 . S
C930 H942 0.930 . S
C931 C933 1.400 . S
C931 C934 1.386 . S
C931 H943 0.930 . S
N932 C925 1.377 . S
N932 C933 1.321 . S
N932 Eu935 2.609 . S
C933 C931 1.400 . S
C933 N932 1.321 . S
C933 H940 0.930 . S
C934 C929 1.395 . S
C934 C931 1.386 . S
C934 H953 0.930 . S
Eu935 N932 2.609 . S
Eu935 N936 2.657 . S
Eu935 O969 2.380 . S
Eu935 O970 2.432 . S
Eu935 O974 2.558 . S
Eu935 O975 2.612 . S
Eu935 O977 2.339 . S
Eu935 O978 2.563 . S
Eu935 O979 2.419 . S
Eu935 C999 2.848 . S
N936 C928 1.362 . S
N936 Eu935 2.657 . S
N936 C937 1.334 . S
C937 N936 1.334 . S
C937 C939 1.413 . S
C937 H944 0.929 . S
C938 C926 1.392 . S
C938 C939 1.367 . S
C938 H946 0.930 . S
C939 C937 1.413 . S
C939 C938 1.367 . S
C939 H941 0.930 . S
H940 C933 0.930 . S
H941 C939 0.930 . S
H942 C930 0.930 . S
H943 C931 0.930 . S
H944 C937 0.929 . S
H945 C959 0.930 . S
H946 C938 0.930 . S
H947 C965 0.930 . S
H948 C956 0.929 . S
H949 C963 0.930 . S
H950 C927 0.931 . S
H951 C957 0.930 . S
H952 C990 0.930 . S
H953 C934 0.930 . S
H954 C989 0.931 . S
N955 Eu924 2.657 . S
N955 C956 1.334 . S
N955 C960 1.362 . S
C956 H948 0.929 . S
C956 N955 1.334 . S
C956 C959 1.413 . S
C957 H951 0.930 . S
C957 C958 1.392 . S
C957 C959 1.367 . S
C958 C957 1.392 . S
C958 C960 1.420 . S
C958 C990 1.423 . S
C959 H945 0.930 . S
C959 C956 1.413 . S
C959 C957 1.367 . S
C960 N955 1.362 . S
C960 C958 1.420 . S
C960 C964 1.429 . S
H961 C966 0.930 . S
N962 Eu924 2.609 . S
N962 C964 1.377 . S
N962 C965 1.321 . S
C963 H949 0.930 . S
C963 C965 1.400 . S
C963 C966 1.386 . S
C964 C960 1.429 . S
C964 N962 1.377 . S
C964 C967 1.411 . S
C965 H947 0.930 . S
C965 N962 1.321 . S
C965 C963 1.400 . S
C966 H961 0.930 . S
C966 C963 1.386 . S
C966 C967 1.395 . S
C967 C964 1.411 . S
C967 C966 1.395 . S
C967 C989 1.420 . S
O968 Eu924 2.558 . S
O968 C988 1.257 1_554 S
O969 Eu924 2.612 . S
O969 Eu935 2.380 . S
O969 C980 1.276 . S
O970 Eu935 2.432 . S
O970 C987 1.264 . S
O971 Eu924 2.339 . S
O971 C987 1.254 . S
O972 Eu924 2.563 . S
O972 C980 1.235 . S
O973 Eu924 2.419 . S
O973 C988 1.249 1_554 S
O974 Eu935 2.558 . S
O974 C999 1.257 . S
O975 Eu924 2.380 . S
O975 Eu935 2.612 . S
O975 C991 1.276 . S
O976 Eu924 2.432 . S
O976 C998 1.264 . S
O977 Eu935 2.339 . S
O977 C998 1.254 . S
O978 Eu935 2.563 . S
O978 C991 1.235 . S
O979 Eu935 2.419 . S
O979 C999 1.249 . S
C980 O969 1.276 . S
C980 O972 1.235 . S
C981 C983 1.393 . S
C981 C985 1.395 . S
C981 C988 1.492 . S
C982 C983 1.392 . S
C982 C984 1.386 . S
C983 C981 1.393 . S
C983 C982 1.392 . S
C983 H1000 0.930 . S
C984 C982 1.386 . S
C984 C986 1.395 . S
C984 H1001 0.930 . S
C985 C981 1.395 . S
C985 C986 1.379 . S
C985 H1002 0.930 . S
C986 C984 1.395 . S
C986 C985 1.379 . S
C986 H1003 0.930 . S
C987 O970 1.264 . S
C987 O971 1.254 . S
C988 Eu924 2.848 1_556 S
C988 O968 1.257 1_556 S
C988 O973 1.249 1_556 S
C988 C981 1.492 . S
C989 H954 0.931 . S
C989 C967 1.420 . S
C989 C990 1.351 . S
C990 H952 0.930 . S
C990 C958 1.423 . S
C990 C989 1.351 . S
C991 O975 1.276 . S
C991 O978 1.235 . S
C992 C993 1.393 . S
C992 C996 1.395 . S
C992 C999 1.492 . S
C993 C992 1.393 . S
C993 C994 1.392 . S
C993 H1004 0.930 . S
C994 C993 1.392 . S
C994 C995 1.386 . S
C995 C994 1.386 . S
C995 C997 1.395 . S
C995 H1005 0.930 . S
C996 C992 1.395 . S
C996 C997 1.379 . S
C996 H1006 0.930 . S
C997 C995 1.395 . S
C997 C996 1.379 . S
C997 H1007 0.930 . S
C998 O976 1.264 . S
C998 O977 1.254 . S
C999 Eu935 2.848 . S
C999 O974 1.257 . S
C999 O979 1.249 . S
C999 C992 1.492 . S
H1000 C983 0.930 . S
H1001 C984 0.930 . S
H1002 C985 0.930 . S
H1003 C986 0.930 . S
H1004 C993 0.930 . S
H1005 C995 0.930 . S
H1006 C996 0.930 . S
H1007 C997 0.930 . S
H1008 C1026 0.951 . S
H1009 C1028 0.951 . S
H1010 C1030 0.950 . S
H1011 C1031 0.950 . S
H1012 C1033 0.950 . S
H1013 C1036 0.950 . S
H1014 C1037 0.950 . S
H1015 C1039 0.950 . S
H1016 C1040 0.950 . S
H1017 C1041 0.951 . S
H1018 C1043 0.951 . S
H1019 C1045 0.950 . S
H1020 C1046 0.950 . S
H1021 C1048 0.950 . S
H1022 C1051 0.950 . S
H1023 C1052 0.950 . S
H1024 C1054 0.950 . S
H1025 C1055 0.950 . S
C1026 H1008 0.951 . S
C1026 C1027 1.366 . S
C1026 C1028 1.388 . S
C1027 C1026 1.366 . S
C1027 C1031 1.385 . S
C1028 H1009 0.951 . S
C1028 C1026 1.388 . S
C1028 C1029 1.366 . S
C1029 C1028 1.366 . S
C1029 C1030 1.414 . S
C1029 C1032 1.499 . S
C1030 H1010 0.950 . S
C1030 C1029 1.414 . S
C1030 C1031 1.374 . S
C1031 H1011 0.950 . S
C1031 C1027 1.385 . S
C1031 C1030 1.374 . S
C1032 C1029 1.499 . S
C1032 C1033 1.373 . S
C1032 C1034 1.389 . S
C1033 H1012 0.950 . S
C1033 C1032 1.373 . S
C1033 C1049 1.377 . S
C1034 C1032 1.389 . S
C1034 C1035 1.524 . S
C1034 C1048 1.377 . S
C1035 C1034 1.524 . S
C1035 C1036 1.397 . S
C1035 C1040 1.363 . S
C1036 H1013 0.950 . S
C1036 C1035 1.397 . S
C1036 C1037 1.334 . S
C1037 H1014 0.950 . S
C1037 C1036 1.334 . S
C1037 C1038 1.287 . S
C1038 C1037 1.287 . S
C1038 C1039 1.524 . S
C1038 H1057 0.913 . S
C1039 H1015 0.950 . S
C1039 C1038 1.524 . S
C1039 C1040 1.415 . S
C1040 H1016 0.950 . S
C1040 C1035 1.363 . S
C1040 C1039 1.415 . S
C1041 H1017 0.951 . S
C1041 C1042 1.366 . S
C1041 C1043 1.388 . S
C1042 C1041 1.366 . S
C1042 C1046 1.385 . S
C1043 H1018 0.951 . S
C1043 C1041 1.388 . S
C1043 C1044 1.366 . S
C1044 C1043 1.366 . S
C1044 C1045 1.414 . S
C1044 C1047 1.499 . S
C1045 H1019 0.950 . S
C1045 C1044 1.414 . S
C1045 C1046 1.374 . S
C1046 H1020 0.950 . S
C1046 C1042 1.385 . S
C1046 C1045 1.374 . S
C1047 C1044 1.499 . S
C1047 C1048 1.373 . S
C1047 C1049 1.389 . S
C1048 H1021 0.950 . S
C1048 C1034 1.377 . S
C1048 C1047 1.373 . S
C1049 C1033 1.377 . S
C1049 C1047 1.389 . S
C1049 C1050 1.524 . S
C1050 C1049 1.524 . S
C1050 C1051 1.397 . S
C1050 C1055 1.363 . S
C1051 H1022 0.950 . S
C1051 C1050 1.397 . S
C1051 C1052 1.334 . S
C1052 H1023 0.950 . S
C1052 C1051 1.334 . S
C1052 C1053 1.287 . S
C1053 C1052 1.287 . S
C1053 C1054 1.524 . S
C1053 H1056 0.999 . S
C1054 H1024 0.950 . S
C1054 C1053 1.524 . S
C1054 C1055 1.415 . S
C1055 H1025 0.950 . S
C1055 C1050 1.363 . S
C1055 C1054 1.415 . S
H1056 C1053 0.999 . S
H1057 C1038 0.913 . S
H1058 C1076 0.951 . S
H1059 C1078 0.951 . S
H1060 C1080 0.950 . S
H1061 C1081 0.950 . S
H1062 C1083 0.950 . S
H1063 C1086 0.950 . S
H1064 C1087 0.950 . S
H1065 C1089 0.950 . S
H1066 C1090 0.950 . S
H1067 C1091 0.951 . S
H1068 C1093 0.951 . S
H1069 C1095 0.950 . S
H1070 C1096 0.950 . S
H1071 C1098 0.950 . S
H1072 C1101 0.950 . S
H1073 C1102 0.950 . S
H1074 C1104 0.950 . S
H1075 C1105 0.950 . S
C1076 H1058 0.951 . S
C1076 C1077 1.366 . S
C1076 C1078 1.388 . S
C1077 C1076 1.366 . S
C1077 C1081 1.385 . S
C1078 H1059 0.951 . S
C1078 C1076 1.388 . S
C1078 C1079 1.366 . S
C1079 C1078 1.366 . S
C1079 C1080 1.414 . S
C1079 C1082 1.499 . S
C1080 H1060 0.950 . S
C1080 C1079 1.414 . S
C1080 C1081 1.374 . S
C1081 H1061 0.950 . S
C1081 C1077 1.385 . S
C1081 C1080 1.374 . S
C1082 C1079 1.499 . S
C1082 C1083 1.373 . S
C1082 C1084 1.389 . S
C1083 H1062 0.950 . S
C1083 C1082 1.373 . S
C1083 C1099 1.377 . S
C1084 C1082 1.389 . S
C1084 C1085 1.524 . S
C1084 C1098 1.377 . S
C1085 C1084 1.524 . S
C1085 C1086 1.397 . S
C1085 C1090 1.363 . S
C1086 H1063 0.950 . S
C1086 C1085 1.397 . S
C1086 C1087 1.334 . S
C1087 H1064 0.950 . S
C1087 C1086 1.334 . S
C1087 C1088 1.287 . S
C1088 C1087 1.287 . S
C1088 C1089 1.524 . S
C1088 H1107 0.913 . S
C1089 H1065 0.950 . S
C1089 C1088 1.524 . S
C1089 C1090 1.415 . S
C1090 H1066 0.950 . S
C1090 C1085 1.363 . S
C1090 C1089 1.415 . S
C1091 H1067 0.951 . S
C1091 C1092 1.366 . S
C1091 C1093 1.388 . S
C1092 C1091 1.366 . S
C1092 C1096 1.385 . S
C1093 H1068 0.951 . S
C1093 C1091 1.388 . S
C1093 C1094 1.366 . S
C1094 C1093 1.366 . S
C1094 C1095 1.414 . S
C1094 C1097 1.499 . S
C1095 H1069 0.950 . S
C1095 C1094 1.414 . S
C1095 C1096 1.374 . S
C1096 H1070 0.950 . S
C1096 C1092 1.385 . S
C1096 C1095 1.374 . S
C1097 C1094 1.499 . S
C1097 C1098 1.373 . S
C1097 C1099 1.389 . S
C1098 H1071 0.950 . S
C1098 C1084 1.377 . S
C1098 C1097 1.373 . S
C1099 C1083 1.377 . S
C1099 C1097 1.389 . S
C1099 C1100 1.524 . S
C1100 C1099 1.524 . S
C1100 C1101 1.397 . S
C1100 C1105 1.363 . S
C1101 H1072 0.950 . S
C1101 C1100 1.397 . S
C1101 C1102 1.334 . S
C1102 H1073 0.950 . S
C1102 C1101 1.334 . S
C1102 C1103 1.287 . S
C1103 C1102 1.287 . S
C1103 C1104 1.524 . S
C1103 H1106 0.999 . S
C1104 H1074 0.950 . S
C1104 C1103 1.524 . S
C1104 C1105 1.415 . S
C1105 H1075 0.950 . S
C1105 C1100 1.363 . S
C1105 C1104 1.415 . S
H1106 C1103 0.999 . S
H1107 C1088 0.913 . S
H1108 C1126 0.951 . S
H1109 C1128 0.951 . S
H1110 C1130 0.950 . S
H1111 C1131 0.950 . S
H1112 C1133 0.950 . S
H1113 C1136 0.950 . S
H1114 C1137 0.950 . S
H1115 C1139 0.950 . S
H1116 C1140 0.950 . S
H1117 C1141 0.951 . S
H1118 C1143 0.951 . S
H1119 C1145 0.950 . S
H1120 C1146 0.950 . S
H1121 C1148 0.950 . S
H1122 C1151 0.950 . S
H1123 C1152 0.950 . S
H1124 C1154 0.950 . S
H1125 C1155 0.950 . S
C1126 H1108 0.951 . S
C1126 C1127 1.366 . S
C1126 C1128 1.388 . S
C1127 C1126 1.366 . S
C1127 C1131 1.385 . S
C1128 H1109 0.951 . S
C1128 C1126 1.388 . S
C1128 C1129 1.366 . S
C1129 C1128 1.366 . S
C1129 C1130 1.414 . S
C1129 C1132 1.499 . S
C1130 H1110 0.950 . S
C1130 C1129 1.414 . S
C1130 C1131 1.374 . S
C1131 H1111 0.950 . S
C1131 C1127 1.385 . S
C1131 C1130 1.374 . S
C1132 C1129 1.499 . S
C1132 C1133 1.373 . S
C1132 C1134 1.389 . S
C1133 H1112 0.950 . S
C1133 C1132 1.373 . S
C1133 C1149 1.377 . S
C1134 C1132 1.389 . S
C1134 C1135 1.524 . S
C1134 C1148 1.377 . S
C1135 C1134 1.524 . S
C1135 C1136 1.397 . S
C1135 C1140 1.363 . S
C1136 H1113 0.950 . S
C1136 C1135 1.397 . S
C1136 C1137 1.334 . S
C1137 H1114 0.950 . S
C1137 C1136 1.334 . S
C1137 C1138 1.287 . S
C1138 C1137 1.287 . S
C1138 C1139 1.524 . S
C1138 H1157 0.913 . S
C1139 H1115 0.950 . S
C1139 C1138 1.524 . S
C1139 C1140 1.415 . S
C1140 H1116 0.950 . S
C1140 C1135 1.363 . S
C1140 C1139 1.415 . S
C1141 H1117 0.951 . S
C1141 C1142 1.366 . S
C1141 C1143 1.388 . S
C1142 C1141 1.366 . S
C1142 C1146 1.385 . S
C1143 H1118 0.951 . S
C1143 C1141 1.388 . S
C1143 C1144 1.366 . S
C1144 C1143 1.366 . S
C1144 C1145 1.414 . S
C1144 C1147 1.499 . S
C1145 H1119 0.950 . S
C1145 C1144 1.414 . S
C1145 C1146 1.374 . S
C1146 H1120 0.950 . S
C1146 C1142 1.385 . S
C1146 C1145 1.374 . S
C1147 C1144 1.499 . S
C1147 C1148 1.373 . S
C1147 C1149 1.389 . S
C1148 H1121 0.950 . S
C1148 C1134 1.377 . S
C1148 C1147 1.373 . S
C1149 C1133 1.377 . S
C1149 C1147 1.389 . S
C1149 C1150 1.524 . S
C1150 C1149 1.524 . S
C1150 C1151 1.397 . S
C1150 C1155 1.363 . S
C1151 H1122 0.950 . S
C1151 C1150 1.397 . S
C1151 C1152 1.334 . S
C1152 H1123 0.950 . S
C1152 C1151 1.334 . S
C1152 C1153 1.287 . S
C1153 C1152 1.287 . S
C1153 C1154 1.524 . S
C1153 H1156 0.999 . S
C1154 H1124 0.950 . S
C1154 C1153 1.524 . S
C1154 C1155 1.415 . S
C1155 H1125 0.950 . S
C1155 C1150 1.363 . S
C1155 C1154 1.415 . S
H1156 C1153 0.999 . S
H1157 C1138 0.913 . S
H1158 C1176 0.951 . S
H1159 C1178 0.951 . S
H1160 C1180 0.950 . S
H1161 C1181 0.950 . S
H1162 C1183 0.950 . S
H1163 C1186 0.950 . S
H1164 C1187 0.950 . S
H1165 C1189 0.950 . S
H1166 C1190 0.950 . S
H1167 C1191 0.951 . S
H1168 C1193 0.951 . S
H1169 C1195 0.950 . S
H1170 C1196 0.950 . S
H1171 C1198 0.950 . S
H1172 C1201 0.950 . S
H1173 C1202 0.950 . S
H1174 C1204 0.950 . S
H1175 C1205 0.950 . S
C1176 H1158 0.951 . S
C1176 C1177 1.366 . S
C1176 C1178 1.388 . S
C1177 C1176 1.366 . S
C1177 C1181 1.385 . S
C1178 H1159 0.951 . S
C1178 C1176 1.388 . S
C1178 C1179 1.366 . S
C1179 C1178 1.366 . S
C1179 C1180 1.414 . S
C1179 C1182 1.499 . S
C1180 H1160 0.950 . S
C1180 C1179 1.414 . S
C1180 C1181 1.374 . S
C1181 H1161 0.950 . S
C1181 C1177 1.385 . S
C1181 C1180 1.374 . S
C1182 C1179 1.499 . S
C1182 C1183 1.373 . S
C1182 C1184 1.389 . S
C1183 H1162 0.950 . S
C1183 C1182 1.373 . S
C1183 C1199 1.377 . S
C1184 C1182 1.389 . S
C1184 C1185 1.524 . S
C1184 C1198 1.377 . S
C1185 C1184 1.524 . S
C1185 C1186 1.397 . S
C1185 C1190 1.363 . S
C1186 H1163 0.950 . S
C1186 C1185 1.397 . S
C1186 C1187 1.334 . S
C1187 H1164 0.950 . S
C1187 C1186 1.334 . S
C1187 C1188 1.287 . S
C1188 C1187 1.287 . S
C1188 C1189 1.524 . S
C1188 H1207 0.913 . S
C1189 H1165 0.950 . S
C1189 C1188 1.524 . S
C1189 C1190 1.415 . S
C1190 H1166 0.950 . S
C1190 C1185 1.363 . S
C1190 C1189 1.415 . S
C1191 H1167 0.951 . S
C1191 C1192 1.366 . S
C1191 C1193 1.388 . S
C1192 C1191 1.366 . S
C1192 C1196 1.385 . S
C1193 H1168 0.951 . S
C1193 C1191 1.388 . S
C1193 C1194 1.366 . S
C1194 C1193 1.366 . S
C1194 C1195 1.414 . S
C1194 C1197 1.499 . S
C1195 H1169 0.950 . S
C1195 C1194 1.414 . S
C1195 C1196 1.374 . S
C1196 H1170 0.950 . S
C1196 C1192 1.385 . S
C1196 C1195 1.374 . S
C1197 C1194 1.499 . S
C1197 C1198 1.373 . S
C1197 C1199 1.389 . S
C1198 H1171 0.950 . S
C1198 C1184 1.377 . S
C1198 C1197 1.373 . S
C1199 C1183 1.377 . S
C1199 C1197 1.389 . S
C1199 C1200 1.524 . S
C1200 C1199 1.524 . S
C1200 C1201 1.397 . S
C1200 C1205 1.363 . S
C1201 H1172 0.950 . S
C1201 C1200 1.397 . S
C1201 C1202 1.334 . S
C1202 H1173 0.950 . S
C1202 C1201 1.334 . S
C1202 C1203 1.287 . S
C1203 C1202 1.287 . S
C1203 C1204 1.524 . S
C1203 H1206 0.999 . S
C1204 H1174 0.950 . S
C1204 C1203 1.524 . S
C1204 C1205 1.415 . S
C1205 H1175 0.950 . S
C1205 C1200 1.363 . S
C1205 C1204 1.415 . S
H1206 C1203 0.999 . S
H1207 C1188 0.913 . S
H1208 C1226 0.951 . S
H1209 C1228 0.951 . S
H1210 C1230 0.950 . S
H1211 C1231 0.950 . S
H1212 C1233 0.950 . S
H1213 C1236 0.950 . S
H1214 C1237 0.950 . S
H1215 C1239 0.950 . S
H1216 C1240 0.950 . S
H1217 C1241 0.951 . S
H1218 C1243 0.951 . S
H1219 C1245 0.950 . S
H1220 C1246 0.950 . S
H1221 C1248 0.950 . S
H1222 C1251 0.950 . S
H1223 C1252 0.950 . S
H1224 C1254 0.950 . S
H1225 C1255 0.950 . S
C1226 H1208 0.951 . S
C1226 C1227 1.366 . S
C1226 C1228 1.388 . S
C1227 C1226 1.366 . S
C1227 C1231 1.385 . S
C1228 H1209 0.951 . S
C1228 C1226 1.388 . S
C1228 C1229 1.366 . S
C1229 C1228 1.366 . S
C1229 C1230 1.414 . S
C1229 C1232 1.499 . S
C1230 H1210 0.950 . S
C1230 C1229 1.414 . S
C1230 C1231 1.374 . S
C1231 H1211 0.950 . S
C1231 C1227 1.385 . S
C1231 C1230 1.374 . S
C1232 C1229 1.499 . S
C1232 C1233 1.373 . S
C1232 C1234 1.389 . S
C1233 H1212 0.950 . S
C1233 C1232 1.373 . S
C1233 C1249 1.377 . S
C1234 C1232 1.389 . S
C1234 C1235 1.524 . S
C1234 C1248 1.377 . S
C1235 C1234 1.524 . S
C1235 C1236 1.397 . S
C1235 C1240 1.363 . S
C1236 H1213 0.950 . S
C1236 C1235 1.397 . S
C1236 C1237 1.334 . S
C1237 H1214 0.950 . S
C1237 C1236 1.334 . S
C1237 C1238 1.287 . S
C1238 C1237 1.287 . S
C1238 C1239 1.524 . S
C1238 H1257 0.913 . S
C1239 H1215 0.950 . S
C1239 C1238 1.524 . S
C1239 C1240 1.415 . S
C1240 H1216 0.950 . S
C1240 C1235 1.363 . S
C1240 C1239 1.415 . S
C1241 H1217 0.951 . S
C1241 C1242 1.366 . S
C1241 C1243 1.388 . S
C1242 C1241 1.366 . S
C1242 C1246 1.385 . S
C1243 H1218 0.951 . S
C1243 C1241 1.388 . S
C1243 C1244 1.366 . S
C1244 C1243 1.366 . S
C1244 C1245 1.414 . S
C1244 C1247 1.499 . S
C1245 H1219 0.950 . S
C1245 C1244 1.414 . S
C1245 C1246 1.374 . S
C1246 H1220 0.950 . S
C1246 C1242 1.385 . S
C1246 C1245 1.374 . S
C1247 C1244 1.499 . S
C1247 C1248 1.373 . S
C1247 C1249 1.389 . S
C1248 H1221 0.950 . S
C1248 C1234 1.377 . S
C1248 C1247 1.373 . S
C1249 C1233 1.377 . S
C1249 C1247 1.389 . S
C1249 C1250 1.524 . S
C1250 C1249 1.524 . S
C1250 C1251 1.397 . S
C1250 C1255 1.363 . S
C1251 H1222 0.950 . S
C1251 C1250 1.397 . S
C1251 C1252 1.334 . S
C1252 H1223 0.950 . S
C1252 C1251 1.334 . S
C1252 C1253 1.287 . S
C1253 C1252 1.287 . S
C1253 C1254 1.524 . S
C1253 H1256 0.999 . S
C1254 H1224 0.950 . S
C1254 C1253 1.524 . S
C1254 C1255 1.415 . S
C1255 H1225 0.950 . S
C1255 C1250 1.363 . S
C1255 C1254 1.415 . S
H1256 C1253 0.999 . S
H1257 C1238 0.913 . S
H1258 C1276 0.951 . S
H1259 C1278 0.951 . S
H1260 C1280 0.950 . S
H1261 C1281 0.950 . S
H1262 C1283 0.950 . S
H1263 C1286 0.950 . S
H1264 C1287 0.950 . S
H1265 C1289 0.950 . S
H1266 C1290 0.950 . S
H1267 C1291 0.951 . S
H1268 C1293 0.951 . S
H1269 C1295 0.950 . S
H1270 C1296 0.950 . S
H1271 C1298 0.950 . S
H1272 C1301 0.950 . S
H1273 C1302 0.950 . S
H1274 C1304 0.950 . S
H1275 C1305 0.950 . S
C1276 H1258 0.951 . S
C1276 C1277 1.366 . S
C1276 C1278 1.388 . S
C1277 C1276 1.366 . S
C1277 C1281 1.385 . S
C1278 H1259 0.951 . S
C1278 C1276 1.388 . S
C1278 C1279 1.366 . S
C1279 C1278 1.366 . S
C1279 C1280 1.414 . S
C1279 C1282 1.499 . S
C1280 H1260 0.950 . S
C1280 C1279 1.414 . S
C1280 C1281 1.374 . S
C1281 H1261 0.950 . S
C1281 C1277 1.385 . S
C1281 C1280 1.374 . S
C1282 C1279 1.499 . S
C1282 C1283 1.373 . S
C1282 C1284 1.389 . S
C1283 H1262 0.950 . S
C1283 C1282 1.373 . S
C1283 C1299 1.377 . S
C1284 C1282 1.389 . S
C1284 C1285 1.524 . S
C1284 C1298 1.377 . S
C1285 C1284 1.524 . S
C1285 C1286 1.397 . S
C1285 C1290 1.363 . S
C1286 H1263 0.950 . S
C1286 C1285 1.397 . S
C1286 C1287 1.334 . S
C1287 H1264 0.950 . S
C1287 C1286 1.334 . S
C1287 C1288 1.287 . S
C1288 C1287 1.287 . S
C1288 C1289 1.524 . S
C1288 H1307 0.913 . S
C1289 H1265 0.950 . S
C1289 C1288 1.524 . S
C1289 C1290 1.415 . S
C1290 H1266 0.950 . S
C1290 C1285 1.363 . S
C1290 C1289 1.415 . S
C1291 H1267 0.951 . S
C1291 C1292 1.366 . S
C1291 C1293 1.388 . S
C1292 C1291 1.366 . S
C1292 C1296 1.385 . S
C1293 H1268 0.951 . S
C1293 C1291 1.388 . S
C1293 C1294 1.366 . S
C1294 C1293 1.366 . S
C1294 C1295 1.414 . S
C1294 C1297 1.499 . S
C1295 H1269 0.950 . S
C1295 C1294 1.414 . S
C1295 C1296 1.374 . S
C1296 H1270 0.950 . S
C1296 C1292 1.385 . S
C1296 C1295 1.374 . S
C1297 C1294 1.499 . S
C1297 C1298 1.373 . S
C1297 C1299 1.389 . S
C1298 H1271 0.950 . S
C1298 C1284 1.377 . S
C1298 C1297 1.373 . S
C1299 C1283 1.377 . S
C1299 C1297 1.389 . S
C1299 C1300 1.524 . S
C1300 C1299 1.524 . S
C1300 C1301 1.397 . S
C1300 C1305 1.363 . S
C1301 H1272 0.950 . S
C1301 C1300 1.397 . S
C1301 C1302 1.334 . S
C1302 H1273 0.950 . S
C1302 C1301 1.334 . S
C1302 C1303 1.287 . S
C1303 C1302 1.287 . S
C1303 C1304 1.524 . S
C1303 H1306 0.999 . S
C1304 H1274 0.950 . S
C1304 C1303 1.524 . S
C1304 C1305 1.415 . S
C1305 H1275 0.950 . S
C1305 C1300 1.363 . S
C1305 C1304 1.415 . S
H1306 C1303 0.999 . S
H1307 C1288 0.913 . S
H1308 C1326 0.951 . S
H1309 C1328 0.951 . S
H1310 C1330 0.950 . S
H1311 C1331 0.950 . S
H1312 C1333 0.950 . S
H1313 C1336 0.950 . S
H1314 C1337 0.950 . S
H1315 C1339 0.950 . S
H1316 C1340 0.950 . S
H1317 C1341 0.951 . S
H1318 C1343 0.951 . S
H1319 C1345 0.950 . S
H1320 C1346 0.950 . S
H1321 C1348 0.950 . S
H1322 C1351 0.950 . S
H1323 C1352 0.950 . S
H1324 C1354 0.950 . S
H1325 C1355 0.950 . S
C1326 H1308 0.951 . S
C1326 C1327 1.366 . S
C1326 C1328 1.388 . S
C1327 C1326 1.366 . S
C1327 C1331 1.385 . S
C1328 H1309 0.951 . S
C1328 C1326 1.388 . S
C1328 C1329 1.366 . S
C1329 C1328 1.366 . S
C1329 C1330 1.414 . S
C1329 C1332 1.499 . S
C1330 H1310 0.950 . S
C1330 C1329 1.414 . S
C1330 C1331 1.374 . S
C1331 H1311 0.950 . S
C1331 C1327 1.385 . S
C1331 C1330 1.374 . S
C1332 C1329 1.499 . S
C1332 C1333 1.373 . S
C1332 C1334 1.389 . S
C1333 H1312 0.950 . S
C1333 C1332 1.373 . S
C1333 C1349 1.377 1_556 S
C1334 C1332 1.389 . S
C1334 C1335 1.524 . S
C1334 C1348 1.377 1_556 S
C1335 C1334 1.524 . S
C1335 C1336 1.397 . S
C1335 C1340 1.363 . S
C1336 H1313 0.950 . S
C1336 C1335 1.397 . S
C1336 C1337 1.334 . S
C1337 H1314 0.950 . S
C1337 C1336 1.334 . S
C1337 C1338 1.287 . S
C1338 C1337 1.287 . S
C1338 C1339 1.524 . S
C1338 H1357 0.913 . S
C1339 H1315 0.950 . S
C1339 C1338 1.524 . S
C1339 C1340 1.415 . S
C1340 H1316 0.950 . S
C1340 C1335 1.363 . S
C1340 C1339 1.415 . S
C1341 H1317 0.951 . S
C1341 C1342 1.366 . S
C1341 C1343 1.388 . S
C1342 C1341 1.366 . S
C1342 C1346 1.385 . S
C1343 H1318 0.951 . S
C1343 C1341 1.388 . S
C1343 C1344 1.366 . S
C1344 C1343 1.366 . S
C1344 C1345 1.414 . S
C1344 C1347 1.499 . S
C1345 H1319 0.950 . S
C1345 C1344 1.414 . S
C1345 C1346 1.374 . S
C1346 H1320 0.950 . S
C1346 C1342 1.385 . S
C1346 C1345 1.374 . S
C1347 C1344 1.499 . S
C1347 C1348 1.373 . S
C1347 C1349 1.389 . S
C1348 H1321 0.950 . S
C1348 C1334 1.377 1_554 S
C1348 C1347 1.373 . S
C1349 C1333 1.377 1_554 S
C1349 C1347 1.389 . S
C1349 C1350 1.524 . S
C1350 C1349 1.524 . S
C1350 C1351 1.397 . S
C1350 C1355 1.363 . S
C1351 H1322 0.950 . S
C1351 C1350 1.397 . S
C1351 C1352 1.334 . S
C1352 H1323 0.950 . S
C1352 C1351 1.334 . S
C1352 C1353 1.287 . S
C1353 C1352 1.287 . S
C1353 C1354 1.524 . S
C1353 H1356 0.999 . S
C1354 H1324 0.950 . S
C1354 C1353 1.524 . S
C1354 C1355 1.415 . S
C1355 H1325 0.950 . S
C1355 C1350 1.363 . S
C1355 C1354 1.415 . S
H1356 C1353 0.999 . S
H1357 C1338 0.913 . S
H1358 C1376 0.951 . S
H1359 C1378 0.951 . S
H1360 C1380 0.950 . S
H1361 C1381 0.950 . S
H1362 C1383 0.950 . S
H1363 C1386 0.950 . S
H1364 C1387 0.950 . S
H1365 C1389 0.950 . S
H1366 C1390 0.950 . S
H1367 C1391 0.951 . S
H1368 C1393 0.951 . S
H1369 C1395 0.950 . S
H1370 C1396 0.950 . S
H1371 C1398 0.950 . S
H1372 C1401 0.950 . S
H1373 C1402 0.950 . S
H1374 C1404 0.950 . S
H1375 C1405 0.950 . S
C1376 H1358 0.951 . S
C1376 C1377 1.366 . S
C1376 C1378 1.388 . S
C1377 C1376 1.366 . S
C1377 C1381 1.385 . S
C1378 H1359 0.951 . S
C1378 C1376 1.388 . S
C1378 C1379 1.366 . S
C1379 C1378 1.366 . S
C1379 C1380 1.414 . S
C1379 C1382 1.499 . S
C1380 H1360 0.950 . S
C1380 C1379 1.414 . S
C1380 C1381 1.374 . S
C1381 H1361 0.950 . S
C1381 C1377 1.385 . S
C1381 C1380 1.374 . S
C1382 C1379 1.499 . S
C1382 C1383 1.373 . S
C1382 C1384 1.389 . S
C1383 H1362 0.950 . S
C1383 C1382 1.373 . S
C1383 C1399 1.377 . S
C1384 C1382 1.389 . S
C1384 C1385 1.524 . S
C1384 C1398 1.377 . S
C1385 C1384 1.524 . S
C1385 C1386 1.397 . S
C1385 C1390 1.363 . S
C1386 H1363 0.950 . S
C1386 C1385 1.397 . S
C1386 C1387 1.334 . S
C1387 H1364 0.950 . S
C1387 C1386 1.334 . S
C1387 C1388 1.287 . S
C1388 C1387 1.287 . S
C1388 C1389 1.524 . S
C1388 H1407 0.913 . S
C1389 H1365 0.950 . S
C1389 C1388 1.524 . S
C1389 C1390 1.415 . S
C1390 H1366 0.950 . S
C1390 C1385 1.363 . S
C1390 C1389 1.415 . S
C1391 H1367 0.951 . S
C1391 C1392 1.366 . S
C1391 C1393 1.388 . S
C1392 C1391 1.366 . S
C1392 C1396 1.385 . S
C1393 H1368 0.951 . S
C1393 C1391 1.388 . S
C1393 C1394 1.366 . S
C1394 C1393 1.366 . S
C1394 C1395 1.414 . S
C1394 C1397 1.499 . S
C1395 H1369 0.950 . S
C1395 C1394 1.414 . S
C1395 C1396 1.374 . S
C1396 H1370 0.950 . S
C1396 C1392 1.385 . S
C1396 C1395 1.374 . S
C1397 C1394 1.499 . S
C1397 C1398 1.373 . S
C1397 C1399 1.389 . S
C1398 H1371 0.950 . S
C1398 C1384 1.377 . S
C1398 C1397 1.373 . S
C1399 C1383 1.377 . S
C1399 C1397 1.389 . S
C1399 C1400 1.524 . S
C1400 C1399 1.524 . S
C1400 C1401 1.397 . S
C1400 C1405 1.363 . S
C1401 H1372 0.950 . S
C1401 C1400 1.397 . S
C1401 C1402 1.334 . S
C1402 H1373 0.950 . S
C1402 C1401 1.334 . S
C1402 C1403 1.287 . S
C1403 C1402 1.287 . S
C1403 C1404 1.524 . S
C1403 H1406 0.999 . S
C1404 H1374 0.950 . S
C1404 C1403 1.524 . S
C1404 C1405 1.415 . S
C1405 H1375 0.950 . S
C1405 C1400 1.363 . S
C1405 C1404 1.415 . S
H1406 C1403 0.999 . S
H1407 C1388 0.913 . S
H1408 C1426 0.951 . S
H1409 C1428 0.951 . S
H1410 C1430 0.950 . S
H1411 C1431 0.950 . S
H1412 C1433 0.950 . S
H1413 C1436 0.950 . S
H1414 C1437 0.950 . S
H1415 C1439 0.950 . S
H1416 C1440 0.950 . S
H1417 C1441 0.951 . S
H1418 C1443 0.951 . S
H1419 C1445 0.950 . S
H1420 C1446 0.950 . S
H1421 C1448 0.950 . S
H1422 C1451 0.950 . S
H1423 C1452 0.950 . S
H1424 C1454 0.950 . S
H1425 C1455 0.950 . S
C1426 H1408 0.951 . S
C1426 C1427 1.366 . S
C1426 C1428 1.388 . S
C1427 C1426 1.366 . S
C1427 C1431 1.385 . S
C1428 H1409 0.951 . S
C1428 C1426 1.388 . S
C1428 C1429 1.366 . S
C1429 C1428 1.366 . S
C1429 C1430 1.414 . S
C1429 C1432 1.499 . S
C1430 H1410 0.950 . S
C1430 C1429 1.414 . S
C1430 C1431 1.374 . S
C1431 H1411 0.950 . S
C1431 C1427 1.385 . S
C1431 C1430 1.374 . S
C1432 C1429 1.499 . S
C1432 C1433 1.373 . S
C1432 C1434 1.389 . S
C1433 H1412 0.950 . S
C1433 C1432 1.373 . S
C1433 C1449 1.377 . S
C1434 C1432 1.389 . S
C1434 C1435 1.524 . S
C1434 C1448 1.377 . S
C1435 C1434 1.524 . S
C1435 C1436 1.397 . S
C1435 C1440 1.363 . S
C1436 H1413 0.950 . S
C1436 C1435 1.397 . S
C1436 C1437 1.334 . S
C1437 H1414 0.950 . S
C1437 C1436 1.334 . S
C1437 C1438 1.287 . S
C1438 C1437 1.287 . S
C1438 C1439 1.524 . S
C1438 H1457 0.913 . S
C1439 H1415 0.950 . S
C1439 C1438 1.524 . S
C1439 C1440 1.415 . S
C1440 H1416 0.950 . S
C1440 C1435 1.363 . S
C1440 C1439 1.415 . S
C1441 H1417 0.951 . S
C1441 C1442 1.366 . S
C1441 C1443 1.388 . S
C1442 C1441 1.366 . S
C1442 C1446 1.385 . S
C1443 H1418 0.951 . S
C1443 C1441 1.388 . S
C1443 C1444 1.366 . S
C1444 C1443 1.366 . S
C1444 C1445 1.414 . S
C1444 C1447 1.499 . S
C1445 H1419 0.950 . S
C1445 C1444 1.414 . S
C1445 C1446 1.374 . S
C1446 H1420 0.950 . S
C1446 C1442 1.385 . S
C1446 C1445 1.374 . S
C1447 C1444 1.499 . S
C1447 C1448 1.373 . S
C1447 C1449 1.389 . S
C1448 H1421 0.950 . S
C1448 C1434 1.377 . S
C1448 C1447 1.373 . S
C1449 C1433 1.377 . S
C1449 C1447 1.389 . S
C1449 C1450 1.524 . S
C1450 C1449 1.524 . S
C1450 C1451 1.397 . S
C1450 C1455 1.363 . S
C1451 H1422 0.950 . S
C1451 C1450 1.397 . S
C1451 C1452 1.334 . S
C1452 H1423 0.950 . S
C1452 C1451 1.334 . S
C1452 C1453 1.287 . S
C1453 C1452 1.287 . S
C1453 C1454 1.524 . S
C1453 H1456 0.999 . S
C1454 H1424 0.950 . S
C1454 C1453 1.524 . S
C1454 C1455 1.415 . S
C1455 H1425 0.950 . S
C1455 C1450 1.363 . S
C1455 C1454 1.415 . S
H1456 C1453 0.999 . S
H1457 C1438 0.913 . S
H1458 C1476 0.951 . S
H1459 C1478 0.951 . S
H1460 C1480 0.950 . S
H1461 C1481 0.950 . S
H1462 C1483 0.950 . S
H1463 C1486 0.950 . S
H1464 C1487 0.950 . S
H1465 C1489 0.950 . S
H1466 C1490 0.950 . S
H1467 C1491 0.951 . S
H1468 C1493 0.951 . S
H1469 C1495 0.950 . S
H1470 C1496 0.950 . S
H1471 C1498 0.950 . S
H1472 C1501 0.950 . S
H1473 C1502 0.950 . S
H1474 C1504 0.950 . S
H1475 C1505 0.950 . S
C1476 H1458 0.951 . S
C1476 C1477 1.366 . S
C1476 C1478 1.388 . S
C1477 C1476 1.366 . S
C1477 C1481 1.385 . S
C1478 H1459 0.951 . S
C1478 C1476 1.388 . S
C1478 C1479 1.366 . S
C1479 C1478 1.366 . S
C1479 C1480 1.414 . S
C1479 C1482 1.499 . S
C1480 H1460 0.950 . S
C1480 C1479 1.414 . S
C1480 C1481 1.374 . S
C1481 H1461 0.950 . S
C1481 C1477 1.385 . S
C1481 C1480 1.374 . S
C1482 C1479 1.499 . S
C1482 C1483 1.373 . S
C1482 C1484 1.389 . S
C1483 H1462 0.950 . S
C1483 C1482 1.373 . S
C1483 C1499 1.377 1_556 S
C1484 C1482 1.389 . S
C1484 C1485 1.524 . S
C1484 C1498 1.377 1_556 S
C1485 C1484 1.524 . S
C1485 C1486 1.397 . S
C1485 C1490 1.363 . S
C1486 H1463 0.950 . S
C1486 C1485 1.397 . S
C1486 C1487 1.334 . S
C1487 H1464 0.950 . S
C1487 C1486 1.334 . S
C1487 C1488 1.287 . S
C1488 C1487 1.287 . S
C1488 C1489 1.524 . S
C1488 H1507 0.913 . S
C1489 H1465 0.950 . S
C1489 C1488 1.524 . S
C1489 C1490 1.415 . S
C1490 H1466 0.950 . S
C1490 C1485 1.363 . S
C1490 C1489 1.415 . S
C1491 H1467 0.951 . S
C1491 C1492 1.366 . S
C1491 C1493 1.388 . S
C1492 C1491 1.366 . S
C1492 C1496 1.385 . S
C1493 H1468 0.951 . S
C1493 C1491 1.388 . S
C1493 C1494 1.366 . S
C1494 C1493 1.366 . S
C1494 C1495 1.414 . S
C1494 C1497 1.499 . S
C1495 H1469 0.950 . S
C1495 C1494 1.414 . S
C1495 C1496 1.374 . S
C1496 H1470 0.950 . S
C1496 C1492 1.385 . S
C1496 C1495 1.374 . S
C1497 C1494 1.499 . S
C1497 C1498 1.373 . S
C1497 C1499 1.389 . S
C1498 H1471 0.950 . S
C1498 C1484 1.377 1_554 S
C1498 C1497 1.373 . S
C1499 C1483 1.377 1_554 S
C1499 C1497 1.389 . S
C1499 C1500 1.524 . S
C1500 C1499 1.524 . S
C1500 C1501 1.397 . S
C1500 C1505 1.363 . S
C1501 H1472 0.950 . S
C1501 C1500 1.397 . S
C1501 C1502 1.334 . S
C1502 H1473 0.950 . S
C1502 C1501 1.334 . S
C1502 C1503 1.287 . S
C1503 C1502 1.287 . S
C1503 C1504 1.524 . S
C1503 H1506 0.999 . S
C1504 H1474 0.950 . S
C1504 C1503 1.524 . S
C1504 C1505 1.415 . S
C1505 H1475 0.950 . S
C1505 C1500 1.363 . S
C1505 C1504 1.415 . S
H1506 C1503 0.999 . S
H1507 C1488 0.913 . S
H1508 C1526 0.951 . S
H1509 C1528 0.951 . S
H1510 C1530 0.950 . S
H1511 C1531 0.950 . S
H1512 C1533 0.950 . S
H1513 C1536 0.950 . S
H1514 C1537 0.950 . S
H1515 C1539 0.950 . S
H1516 C1540 0.950 . S
H1517 C1541 0.951 . S
H1518 C1543 0.951 . S
H1519 C1545 0.950 . S
H1520 C1546 0.950 . S
H1521 C1548 0.950 . S
H1522 C1551 0.950 . S
H1523 C1552 0.950 . S
H1524 C1554 0.950 . S
H1525 C1555 0.950 . S
C1526 H1508 0.951 . S
C1526 C1527 1.366 . S
C1526 C1528 1.388 . S
C1527 C1526 1.366 . S
C1527 C1531 1.385 . S
C1528 H1509 0.951 . S
C1528 C1526 1.388 . S
C1528 C1529 1.366 . S
C1529 C1528 1.366 . S
C1529 C1530 1.414 . S
C1529 C1532 1.499 . S
C1530 H1510 0.950 . S
C1530 C1529 1.414 . S
C1530 C1531 1.374 . S
C1531 H1511 0.950 . S
C1531 C1527 1.385 . S
C1531 C1530 1.374 . S
C1532 C1529 1.499 . S
C1532 C1533 1.373 . S
C1532 C1534 1.389 . S
C1533 H1512 0.950 . S
C1533 C1532 1.373 . S
C1533 C1549 1.377 . S
C1534 C1532 1.389 . S
C1534 C1535 1.524 . S
C1534 C1548 1.377 . S
C1535 C1534 1.524 . S
C1535 C1536 1.397 . S
C1535 C1540 1.363 . S
C1536 H1513 0.950 . S
C1536 C1535 1.397 . S
C1536 C1537 1.334 . S
C1537 H1514 0.950 . S
C1537 C1536 1.334 . S
C1537 C1538 1.287 . S
C1538 C1537 1.287 . S
C1538 C1539 1.524 . S
C1538 H1557 0.913 . S
C1539 H1515 0.950 . S
C1539 C1538 1.524 . S
C1539 C1540 1.415 . S
C1540 H1516 0.950 . S
C1540 C1535 1.363 . S
C1540 C1539 1.415 . S
C1541 H1517 0.951 . S
C1541 C1542 1.366 . S
C1541 C1543 1.388 . S
C1542 C1541 1.366 . S
C1542 C1546 1.385 . S
C1543 H1518 0.951 . S
C1543 C1541 1.388 . S
C1543 C1544 1.366 . S
C1544 C1543 1.366 . S
C1544 C1545 1.414 . S
C1544 C1547 1.499 . S
C1545 H1519 0.950 . S
C1545 C1544 1.414 . S
C1545 C1546 1.374 . S
C1546 H1520 0.950 . S
C1546 C1542 1.385 . S
C1546 C1545 1.374 . S
C1547 C1544 1.499 . S
C1547 C1548 1.373 . S
C1547 C1549 1.389 . S
C1548 H1521 0.950 . S
C1548 C1534 1.377 . S
C1548 C1547 1.373 . S
C1549 C1533 1.377 . S
C1549 C1547 1.389 . S
C1549 C1550 1.524 . S
C1550 C1549 1.524 . S
C1550 C1551 1.397 . S
C1550 C1555 1.363 . S
C1551 H1522 0.950 . S
C1551 C1550 1.397 . S
C1551 C1552 1.334 . S
C1552 H1523 0.950 . S
C1552 C1551 1.334 . S
C1552 C1553 1.287 . S
C1553 C1552 1.287 . S
C1553 C1554 1.524 . S
C1553 H1556 0.999 . S
C1554 H1524 0.950 . S
C1554 C1553 1.524 . S
C1554 C1555 1.415 . S
C1555 H1525 0.950 . S
C1555 C1550 1.363 . S
C1555 C1554 1.415 . S
H1556 C1553 0.999 . S
H1557 C1538 0.913 . S
H1558 C1576 0.951 . S
H1559 C1578 0.951 . S
H1560 C1580 0.950 . S
H1561 C1581 0.950 . S
H1562 C1583 0.950 . S
H1563 C1586 0.950 . S
H1564 C1587 0.950 . S
H1565 C1589 0.950 . S
H1566 C1590 0.950 . S
H1567 C1591 0.951 . S
H1568 C1593 0.951 . S
H1569 C1595 0.950 . S
H1570 C1596 0.950 . S
H1571 C1598 0.950 . S
H1572 C1601 0.950 . S
H1573 C1602 0.950 . S
H1574 C1604 0.950 . S
H1575 C1605 0.950 . S
C1576 H1558 0.951 . S
C1576 C1577 1.366 . S
C1576 C1578 1.388 . S
C1577 C1576 1.366 . S
C1577 C1581 1.385 . S
C1578 H1559 0.951 . S
C1578 C1576 1.388 . S
C1578 C1579 1.366 . S
C1579 C1578 1.366 . S
C1579 C1580 1.414 . S
C1579 C1582 1.499 . S
C1580 H1560 0.950 . S
C1580 C1579 1.414 . S
C1580 C1581 1.374 . S
C1581 H1561 0.950 . S
C1581 C1577 1.385 . S
C1581 C1580 1.374 . S
C1582 C1579 1.499 . S
C1582 C1583 1.373 . S
C1582 C1584 1.389 . S
C1583 H1562 0.950 . S
C1583 C1582 1.373 . S
C1583 C1599 1.377 . S
C1584 C1582 1.389 . S
C1584 C1585 1.524 . S
C1584 C1598 1.377 . S
C1585 C1584 1.524 . S
C1585 C1586 1.397 . S
C1585 C1590 1.363 . S
C1586 H1563 0.950 . S
C1586 C1585 1.397 . S
C1586 C1587 1.334 . S
C1587 H1564 0.950 . S
C1587 C1586 1.334 . S
C1587 C1588 1.287 . S
C1588 C1587 1.287 . S
C1588 C1589 1.524 . S
C1588 H1607 0.913 . S
C1589 H1565 0.950 . S
C1589 C1588 1.524 . S
C1589 C1590 1.415 . S
C1590 H1566 0.950 . S
C1590 C1585 1.363 . S
C1590 C1589 1.415 . S
C1591 H1567 0.951 . S
C1591 C1592 1.366 . S
C1591 C1593 1.388 . S
C1592 C1591 1.366 . S
C1592 C1596 1.385 . S
C1593 H1568 0.951 . S
C1593 C1591 1.388 . S
C1593 C1594 1.366 . S
C1594 C1593 1.366 . S
C1594 C1595 1.414 . S
C1594 C1597 1.499 . S
C1595 H1569 0.950 . S
C1595 C1594 1.414 . S
C1595 C1596 1.374 . S
C1596 H1570 0.950 . S
C1596 C1592 1.385 . S
C1596 C1595 1.374 . S
C1597 C1594 1.499 . S
C1597 C1598 1.373 . S
C1597 C1599 1.389 . S
C1598 H1571 0.950 . S
C1598 C1584 1.377 . S
C1598 C1597 1.373 . S
C1599 C1583 1.377 . S
C1599 C1597 1.389 . S
C1599 C1600 1.524 . S
C1600 C1599 1.524 . S
C1600 C1601 1.397 . S
C1600 C1605 1.363 . S
C1601 H1572 0.950 . S
C1601 C1600 1.397 . S
C1601 C1602 1.334 . S
C1602 H1573 0.950 . S
C1602 C1601 1.334 . S
C1602 C1603 1.287 . S
C1603 C1602 1.287 . S
C1603 C1604 1.524 . S
C1603 H1606 0.999 . S
C1604 H1574 0.950 . S
C1604 C1603 1.524 . S
C1604 C1605 1.415 . S
C1605 H1575 0.950 . S
C1605 C1600 1.363 . S
C1605 C1604 1.415 . S
H1606 C1603 0.999 . S
H1607 C1588 0.913 . S
H1608 C1626 0.951 . S
H1609 C1628 0.951 . S
H1610 C1630 0.980 . S
H1611 C1631 0.950 . S
H1612 C1633 0.951 . S
H1613 C1636 0.950 . S
H1614 C1637 0.950 . S
H1615 C1639 0.950 1_554 S
H1616 C1640 0.950 . S
H1617 C1641 0.951 . S
H1618 C1643 0.951 . S
H1619 C1645 0.979 . S
H1620 C1646 0.950 . S
H1621 C1648 0.951 . S
H1622 C1651 0.950 . S
H1623 C1652 0.950 . S
H1624 C1654 0.950 1_556 S
H1625 C1655 0.950 . S
C1626 H1608 0.951 . S
C1626 C1627 1.366 . S
C1626 C1628 1.388 . S
C1627 C1626 1.366 . S
C1627 C1631 1.385 . S
C1628 H1609 0.951 . S
C1628 C1626 1.388 . S
C1628 C1629 1.366 . S
C1629 C1628 1.366 . S
C1629 C1630 1.414 . S
C1629 C1632 1.499 . S
C1630 H1610 0.980 . S
C1630 C1629 1.414 . S
C1630 C1631 1.374 . S
C1631 H1611 0.950 . S
C1631 C1627 1.385 . S
C1631 C1630 1.374 . S
C1632 C1629 1.499 . S
C1632 C1633 1.373 . S
C1632 C1634 1.389 . S
C1633 H1612 0.951 . S
C1633 C1632 1.373 . S
C1633 C1649 1.371 1_566 S
C1634 C1632 1.389 . S
C1634 C1635 1.524 . S
C1634 C1648 1.371 1_566 S
C1635 C1634 1.524 . S
C1635 C1636 1.397 . S
C1635 C1640 1.363 1_556 S
C1636 H1613 0.950 . S
C1636 C1635 1.397 . S
C1636 C1637 1.334 . S
C1637 H1614 0.950 . S
C1637 C1636 1.334 . S
C1637 C1638 1.287 . S
C1638 C1637 1.287 . S
C1638 C1639 1.524 . S
C1638 H1657 0.913 . S
C1639 H1615 0.950 1_556 S
C1639 C1638 1.524 . S
C1639 C1640 1.415 1_556 S
C1640 H1616 0.950 . S
C1640 C1635 1.363 1_554 S
C1640 C1639 1.415 1_554 S
C1641 H1617 0.951 . S
C1641 C1642 1.366 . S
C1641 C1643 1.388 . S
C1642 C1641 1.366 . S
C1642 C1646 1.385 . S
C1643 H1618 0.951 . S
C1643 C1641 1.388 . S
C1643 C1644 1.366 . S
C1644 C1643 1.366 . S
C1644 C1645 1.414 . S
C1644 C1647 1.499 . S
C1645 H1619 0.979 . S
C1645 C1644 1.414 . S
C1645 C1646 1.374 . S
C1646 H1620 0.950 . S
C1646 C1642 1.385 . S
C1646 C1645 1.374 . S
C1647 C1644 1.499 . S
C1647 C1648 1.373 . S
C1647 C1649 1.389 . S
C1648 H1621 0.951 . S
C1648 C1634 1.371 1_544 S
C1648 C1647 1.373 . S
C1649 C1633 1.371 1_544 S
C1649 C1647 1.389 . S
C1649 C1650 1.524 . S
C1650 C1649 1.524 . S
C1650 C1651 1.397 . S
C1650 C1655 1.363 1_554 S
C1651 H1622 0.950 . S
C1651 C1650 1.397 . S
C1651 C1652 1.334 . S
C1652 H1623 0.950 . S
C1652 C1651 1.334 . S
C1652 C1653 1.287 . S
C1653 C1652 1.287 . S
C1653 C1654 1.524 . S
C1653 H1656 0.999 . S
C1654 H1624 0.950 1_554 S
C1654 C1653 1.524 . S
C1654 C1655 1.415 1_554 S
C1655 H1625 0.950 . S
C1655 C1650 1.363 1_556 S
C1655 C1654 1.415 1_556 S
H1656 C1653 0.999 . S
H1657 C1638 0.913 . S
H1658 C1676 0.951 . S
H1659 C1678 0.951 . S
H1660 C1680 0.950 . S
H1661 C1681 0.950 . S
H1662 C1683 0.950 . S
H1663 C1686 0.950 . S
H1664 C1687 0.950 . S
H1665 C1689 0.950 . S
H1666 C1690 0.950 . S
H1667 C1691 0.951 . S
H1668 C1693 0.951 . S
H1669 C1695 0.950 . S
H1670 C1696 0.950 . S
H1671 C1698 0.950 . S
H1672 C1701 0.950 . S
H1673 C1702 0.950 . S
H1674 C1704 0.950 . S
H1675 C1705 0.950 . S
C1676 H1658 0.951 . S
C1676 C1677 1.366 . S
C1676 C1678 1.388 . S
C1677 C1676 1.366 . S
C1677 C1681 1.385 . S
C1678 H1659 0.951 . S
C1678 C1676 1.388 . S
C1678 C1679 1.366 . S
C1679 C1678 1.366 . S
C1679 C1680 1.414 . S
C1679 C1682 1.499 . S
C1680 H1660 0.950 . S
C1680 C1679 1.414 . S
C1680 C1681 1.374 . S
C1681 H1661 0.950 . S
C1681 C1677 1.385 . S
C1681 C1680 1.374 . S
C1682 C1679 1.499 . S
C1682 C1683 1.373 . S
C1682 C1684 1.389 . S
C1683 H1662 0.950 . S
C1683 C1682 1.373 . S
C1683 C1699 1.377 . S
C1684 C1682 1.389 . S
C1684 C1685 1.524 . S
C1684 C1698 1.377 . S
C1685 C1684 1.524 . S
C1685 C1686 1.397 . S
C1685 C1690 1.363 . S
C1686 H1663 0.950 . S
C1686 C1685 1.397 . S
C1686 C1687 1.334 . S
C1687 H1664 0.950 . S
C1687 C1686 1.334 . S
C1687 C1688 1.287 . S
C1688 C1687 1.287 . S
C1688 C1689 1.524 . S
C1688 H1707 0.913 . S
C1689 H1665 0.950 . S
C1689 C1688 1.524 . S
C1689 C1690 1.415 . S
C1690 H1666 0.950 . S
C1690 C1685 1.363 . S
C1690 C1689 1.415 . S
C1691 H1667 0.951 . S
C1691 C1692 1.366 . S
C1691 C1693 1.388 . S
C1692 C1691 1.366 . S
C1692 C1696 1.385 . S
C1693 H1668 0.951 . S
C1693 C1691 1.388 . S
C1693 C1694 1.366 . S
C1694 C1693 1.366 . S
C1694 C1695 1.414 . S
C1694 C1697 1.499 . S
C1695 H1669 0.950 . S
C1695 C1694 1.414 . S
C1695 C1696 1.374 . S
C1696 H1670 0.950 . S
C1696 C1692 1.385 . S
C1696 C1695 1.374 . S
C1697 C1694 1.499 . S
C1697 C1698 1.373 . S
C1697 C1699 1.389 . S
C1698 H1671 0.950 . S
C1698 C1684 1.377 . S
C1698 C1697 1.373 . S
C1699 C1683 1.377 . S
C1699 C1697 1.389 . S
C1699 C1700 1.524 . S
C1700 C1699 1.524 . S
C1700 C1701 1.397 . S
C1700 C1705 1.363 . S
C1701 H1672 0.950 . S
C1701 C1700 1.397 . S
C1701 C1702 1.334 . S
C1702 H1673 0.950 . S
C1702 C1701 1.334 . S
C1702 C1703 1.287 . S
C1703 C1702 1.287 . S
C1703 C1704 1.524 . S
C1703 H1706 0.999 . S
C1704 H1674 0.950 . S
C1704 C1703 1.524 . S
C1704 C1705 1.415 . S
C1705 H1675 0.950 . S
C1705 C1700 1.363 . S
C1705 C1704 1.415 . S
H1706 C1703 0.999 . S
H1707 C1688 0.913 . S
H1708 C1726 0.951 . S
H1709 C1728 0.951 . S
H1710 C1730 0.950 . S
H1711 C1731 0.950 . S
H1712 C1733 0.932 . S
H1713 C1736 0.950 . S
H1714 C1737 0.950 . S
H1715 C1739 0.950 . S
H1716 C1740 0.950 . S
H1717 C1741 0.951 . S
H1718 C1743 0.951 . S
H1719 C1745 0.950 . S
H1720 C1746 0.950 . S
H1721 C1748 0.932 . S
H1722 C1751 0.950 . S
H1723 C1752 0.950 . S
H1724 C1754 0.950 . S
H1725 C1755 0.950 . S
C1726 H1708 0.951 . S
C1726 C1727 1.366 . S
C1726 C1728 1.388 . S
C1727 C1726 1.366 . S
C1727 C1731 1.385 . S
C1728 H1709 0.951 . S
C1728 C1726 1.388 . S
C1728 C1729 1.366 . S
C1729 C1728 1.366 . S
C1729 C1730 1.414 . S
C1729 C1732 1.499 . S
C1730 H1710 0.950 . S
C1730 C1729 1.414 . S
C1730 C1731 1.374 . S
C1731 H1711 0.950 . S
C1731 C1727 1.385 . S
C1731 C1730 1.374 . S
C1732 C1729 1.499 . S
C1732 C1733 1.414 . S
C1732 C1734 1.389 . S
C1733 H1712 0.932 . S
C1733 C1732 1.414 . S
C1733 C1749 1.356 1_455 S
C1734 C1732 1.389 . S
C1734 C1735 1.524 . S
C1734 C1748 1.355 1_455 S
C1735 C1734 1.524 . S
C1735 C1736 1.397 . S
C1735 C1740 1.363 . S
C1736 H1713 0.950 . S
C1736 C1735 1.397 . S
C1736 C1737 1.334 . S
C1737 H1714 0.950 . S
C1737 C1736 1.334 . S
C1737 C1738 1.287 . S
C1738 C1737 1.287 . S
C1738 C1739 1.524 . S
C1738 H1757 0.913 . S
C1739 H1715 0.950 . S
C1739 C1738 1.524 . S
C1739 C1740 1.415 . S
C1740 H1716 0.950 . S
C1740 C1735 1.363 . S
C1740 C1739 1.415 . S
C1741 H1717 0.951 . S
C1741 C1742 1.366 . S
C1741 C1743 1.388 . S
C1742 C1741 1.366 . S
C1742 C1746 1.385 . S
C1743 H1718 0.951 . S
C1743 C1741 1.388 . S
C1743 C1744 1.366 . S
C1744 C1743 1.366 . S
C1744 C1745 1.414 . S
C1744 C1747 1.499 . S
C1745 H1719 0.950 . S
C1745 C1744 1.414 . S
C1745 C1746 1.374 . S
C1746 H1720 0.950 . S
C1746 C1742 1.385 . S
C1746 C1745 1.374 . S
C1747 C1744 1.499 . S
C1747 C1748 1.416 . S
C1747 C1749 1.389 . S
C1748 H1721 0.932 . S
C1748 C1734 1.355 1_655 S
C1748 C1747 1.416 . S
C1749 C1733 1.356 1_655 S
C1749 C1747 1.389 . S
C1749 C1750 1.524 . S
C1750 C1749 1.524 . S
C1750 C1751 1.397 . S
C1750 C1755 1.363 . S
C1751 H1722 0.950 . S
C1751 C1750 1.397 . S
C1751 C1752 1.334 . S
C1752 H1723 0.950 . S
C1752 C1751 1.334 . S
C1752 C1753 1.287 . S
C1753 C1752 1.287 . S
C1753 C1754 1.524 . S
C1753 H1756 0.999 . S
C1754 H1724 0.950 . S
C1754 C1753 1.524 . S
C1754 C1755 1.415 . S
C1755 H1725 0.950 . S
C1755 C1750 1.363 . S
C1755 C1754 1.415 . S
H1756 C1753 0.999 . S
H1757 C1738 0.913 . S
H1758 C1776 0.951 . S
H1759 C1778 0.951 . S
H1760 C1780 0.950 . S
H1761 C1781 0.950 . S
H1762 C1783 0.950 . S
H1763 C1786 0.950 . S
H1764 C1787 0.950 . S
H1765 C1789 0.950 . S
H1766 C1790 0.950 . S
H1767 C1791 0.951 . S
H1768 C1793 0.951 . S
H1769 C1795 0.950 . S
H1770 C1796 0.950 . S
H1771 C1798 0.950 . S
H1772 C1801 0.950 . S
H1773 C1802 0.950 . S
H1774 C1804 0.950 . S
H1775 C1805 0.950 . S
C1776 H1758 0.951 . S
C1776 C1777 1.366 . S
C1776 C1778 1.388 . S
C1777 C1776 1.366 . S
C1777 C1781 1.385 . S
C1778 H1759 0.951 . S
C1778 C1776 1.388 . S
C1778 C1779 1.366 . S
C1779 C1778 1.366 . S
C1779 C1780 1.414 . S
C1779 C1782 1.499 . S
C1780 H1760 0.950 . S
C1780 C1779 1.414 . S
C1780 C1781 1.374 . S
C1781 H1761 0.950 . S
C1781 C1777 1.385 . S
C1781 C1780 1.374 . S
C1782 C1779 1.499 . S
C1782 C1783 1.373 . S
C1782 C1784 1.389 1_565 S
C1783 H1762 0.950 . S
C1783 C1782 1.373 . S
C1783 C1799 1.377 1_554 S
C1784 C1782 1.389 1_545 S
C1784 C1785 1.524 . S
C1784 C1798 1.377 1_554 S
C1785 C1784 1.524 . S
C1785 C1786 1.397 . S
C1785 C1790 1.363 . S
C1786 H1763 0.950 . S
C1786 C1785 1.397 . S
C1786 C1787 1.334 . S
C1787 H1764 0.950 . S
C1787 C1786 1.334 . S
C1787 C1788 1.287 . S
C1788 C1787 1.287 . S
C1788 C1789 1.524 . S
C1788 H1807 0.913 . S
C1789 H1765 0.950 . S
C1789 C1788 1.524 . S
C1789 C1790 1.415 . S
C1790 H1766 0.950 . S
C1790 C1785 1.363 . S
C1790 C1789 1.415 . S
C1791 H1767 0.951 . S
C1791 C1792 1.366 . S
C1791 C1793 1.388 . S
C1792 C1791 1.366 . S
C1792 C1796 1.385 . S
C1793 H1768 0.951 . S
C1793 C1791 1.388 . S
C1793 C1794 1.366 . S
C1794 C1793 1.366 . S
C1794 C1795 1.414 . S
C1794 C1797 1.499 . S
C1795 H1769 0.950 . S
C1795 C1794 1.414 . S
C1795 C1796 1.374 . S
C1796 H1770 0.950 . S
C1796 C1792 1.385 . S
C1796 C1795 1.374 . S
C1797 C1794 1.499 . S
C1797 C1798 1.373 . S
C1797 C1799 1.389 1_545 S
C1798 H1771 0.950 . S
C1798 C1784 1.377 1_556 S
C1798 C1797 1.373 . S
C1799 C1783 1.377 1_556 S
C1799 C1797 1.389 1_565 S
C1799 C1800 1.524 . S
C1800 C1799 1.524 . S
C1800 C1801 1.397 . S
C1800 C1805 1.363 . S
C1801 H1772 0.950 . S
C1801 C1800 1.397 . S
C1801 C1802 1.334 . S
C1802 H1773 0.950 . S
C1802 C1801 1.334 . S
C1802 C1803 1.287 . S
C1803 C1802 1.287 . S
C1803 C1804 1.524 . S
C1803 H1806 0.999 . S
C1804 H1774 0.950 . S
C1804 C1803 1.524 . S
C1804 C1805 1.415 . S
C1805 H1775 0.950 . S
C1805 C1800 1.363 . S
C1805 C1804 1.415 . S
H1806 C1803 0.999 . S
H1807 C1788 0.913 . S
H1808 C1826 0.951 . S
H1809 C1828 0.951 . S
H1810 C1830 0.950 . S
H1811 C1831 0.950 . S
H1812 C1833 0.950 . S
H1813 C1836 0.950 . S
H1814 C1837 0.950 . S
H1815 C1839 0.950 . S
H1816 C1840 0.950 . S
H1817 C1841 0.951 . S
H1818 C1843 0.951 . S
H1819 C1845 0.950 . S
H1820 C1846 0.950 . S
H1821 C1848 0.950 . S
H1822 C1851 0.950 . S
H1823 C1852 0.950 . S
H1824 C1854 0.950 . S
H1825 C1855 0.950 . S
C1826 H1808 0.951 . S
C1826 C1827 1.366 . S
C1826 C1828 1.388 . S
C1827 C1826 1.366 . S
C1827 C1831 1.385 . S
C1828 H1809 0.951 . S
C1828 C1826 1.388 . S
C1828 C1829 1.366 . S
C1829 C1828 1.366 . S
C1829 C1830 1.414 . S
C1829 C1832 1.499 . S
C1830 H1810 0.950 . S
C1830 C1829 1.414 . S
C1830 C1831 1.374 . S
C1831 H1811 0.950 . S
C1831 C1827 1.385 . S
C1831 C1830 1.374 . S
C1832 C1829 1.499 . S
C1832 C1833 1.373 . S
C1832 C1834 1.389 . S
C1833 H1812 0.950 . S
C1833 C1832 1.373 . S
C1833 C1849 1.377 . S
C1834 C1832 1.389 . S
C1834 C1835 1.524 . S
C1834 C1848 1.377 . S
C1835 C1834 1.524 . S
C1835 C1836 1.397 . S
C1835 C1840 1.363 . S
C1836 H1813 0.950 . S
C1836 C1835 1.397 . S
C1836 C1837 1.334 . S
C1837 H1814 0.950 . S
C1837 C1836 1.334 . S
C1837 C1838 1.287 . S
C1838 C1837 1.287 . S
C1838 C1839 1.524 . S
C1838 H1857 0.913 . S
C1839 H1815 0.950 . S
C1839 C1838 1.524 . S
C1839 C1840 1.415 . S
C1840 H1816 0.950 . S
C1840 C1835 1.363 . S
C1840 C1839 1.415 . S
C1841 H1817 0.951 . S
C1841 C1842 1.366 . S
C1841 C1843 1.388 . S
C1842 C1841 1.366 . S
C1842 C1846 1.385 . S
C1843 H1818 0.951 . S
C1843 C1841 1.388 . S
C1843 C1844 1.366 . S
C1844 C1843 1.366 . S
C1844 C1845 1.414 . S
C1844 C1847 1.499 . S
C1845 H1819 0.950 . S
C1845 C1844 1.414 . S
C1845 C1846 1.374 . S
C1846 H1820 0.950 . S
C1846 C1842 1.385 . S
C1846 C1845 1.374 . S
C1847 C1844 1.499 . S
C1847 C1848 1.373 . S
C1847 C1849 1.389 . S
C1848 H1821 0.950 . S
C1848 C1834 1.377 . S
C1848 C1847 1.373 . S
C1849 C1833 1.377 . S
C1849 C1847 1.389 . S
C1849 C1850 1.524 . S
C1850 C1849 1.524 . S
C1850 C1851 1.397 . S
C1850 C1855 1.363 . S
C1851 H1822 0.950 . S
C1851 C1850 1.397 . S
C1851 C1852 1.334 . S
C1852 H1823 0.950 . S
C1852 C1851 1.334 . S
C1852 C1853 1.287 . S
C1853 C1852 1.287 . S
C1853 C1854 1.524 . S
C1853 H1856 0.999 . S
C1854 H1824 0.950 . S
C1854 C1853 1.524 . S
C1854 C1855 1.415 . S
C1855 H1825 0.950 . S
C1855 C1850 1.363 . S
C1855 C1854 1.415 . S
H1856 C1853 0.999 . S
H1857 C1838 0.913 . S
H1858 C1876 0.951 . S
H1859 C1878 0.951 . S
H1860 C1880 0.950 . S
H1861 C1881 0.950 . S
H1862 C1883 0.950 . S
H1863 C1886 0.950 . S
H1864 C1887 0.950 . S
H1865 C1889 0.950 . S
H1866 C1890 0.950 1_455 S
H1867 C1891 0.951 . S
H1868 C1893 0.951 . S
H1869 C1895 0.950 . S
H1870 C1896 0.950 . S
H1871 C1898 0.950 . S
H1872 C1901 0.950 . S
H1873 C1902 0.950 . S
H1874 C1904 0.950 . S
H1875 C1905 0.950 1_655 S
C1876 H1858 0.951 . S
C1876 C1877 1.366 . S
C1876 C1878 1.388 . S
C1877 C1876 1.366 . S
C1877 C1881 1.385 . S
C1878 H1859 0.951 . S
C1878 C1876 1.388 . S
C1878 C1879 1.366 . S
C1879 C1878 1.366 . S
C1879 C1880 1.414 . S
C1879 C1882 1.499 . S
C1880 H1860 0.950 . S
C1880 C1879 1.414 . S
C1880 C1881 1.374 . S
C1881 H1861 0.950 . S
C1881 C1877 1.385 . S
C1881 C1880 1.374 . S
C1882 C1879 1.499 . S
C1882 C1883 1.373 . S
C1882 C1884 1.389 1_455 S
C1883 H1862 0.950 . S
C1883 C1882 1.373 . S
C1883 C1899 1.377 . S
C1884 C1882 1.389 1_655 S
C1884 C1885 1.524 . S
C1884 C1898 1.377 . S
C1885 C1884 1.524 . S
C1885 C1886 1.397 . S
C1885 C1890 1.363 . S
C1886 H1863 0.950 . S
C1886 C1885 1.397 . S
C1886 C1887 1.334 . S
C1887 H1864 0.950 . S
C1887 C1886 1.334 . S
C1887 C1888 1.287 . S
C1888 C1887 1.287 . S
C1888 C1889 1.524 . S
C1888 H1907 0.913 . S
C1889 H1865 0.950 . S
C1889 C1888 1.524 . S
C1889 C1890 1.415 . S
C1890 H1866 0.950 1_655 S
C1890 C1885 1.363 . S
C1890 C1889 1.415 . S
C1891 H1867 0.951 . S
C1891 C1892 1.366 . S
C1891 C1893 1.388 . S
C1892 C1891 1.366 . S
C1892 C1896 1.385 . S
C1893 H1868 0.951 . S
C1893 C1891 1.388 . S
C1893 C1894 1.366 . S
C1894 C1893 1.366 . S
C1894 C1895 1.414 . S
C1894 C1897 1.499 . S
C1895 H1869 0.950 . S
C1895 C1894 1.414 . S
C1895 C1896 1.374 . S
C1896 H1870 0.950 . S
C1896 C1892 1.385 . S
C1896 C1895 1.374 . S
C1897 C1894 1.499 . S
C1897 C1898 1.373 . S
C1897 C1899 1.389 1_655 S
C1898 H1871 0.950 . S
C1898 C1884 1.377 . S
C1898 C1897 1.373 . S
C1899 C1883 1.377 . S
C1899 C1897 1.389 1_455 S
C1899 C1900 1.524 . S
C1900 C1899 1.524 . S
C1900 C1901 1.397 . S
C1900 C1905 1.363 . S
C1901 H1872 0.950 . S
C1901 C1900 1.397 . S
C1901 C1902 1.334 . S
C1902 H1873 0.950 . S
C1902 C1901 1.334 . S
C1902 C1903 1.287 . S
C1903 C1902 1.287 . S
C1903 C1904 1.524 . S
C1903 H1906 0.999 . S
C1904 H1874 0.950 . S
C1904 C1903 1.524 . S
C1904 C1905 1.415 . S
C1905 H1875 0.950 1_455 S
C1905 C1900 1.363 . S
C1905 C1904 1.415 . S
H1906 C1903 0.999 . S
H1907 C1888 0.913 . S
H1908 C1926 0.951 . S
H1909 C1928 0.951 . S
H1910 C1930 0.950 . S
H1911 C1931 0.950 . S
H1912 C1933 0.950 . S
H1913 C1936 0.950 . S
H1914 C1937 0.950 . S
H1915 C1939 0.950 . S
H1916 C1940 0.950 . S
H1917 C1941 0.951 . S
H1918 C1943 0.951 . S
H1919 C1945 0.950 . S
H1920 C1946 0.950 . S
H1921 C1948 0.950 . S
H1922 C1951 0.950 . S
H1923 C1952 0.950 . S
H1924 C1954 0.950 . S
H1925 C1955 0.950 . S
C1926 H1908 0.951 . S
C1926 C1927 1.366 . S
C1926 C1928 1.388 . S
C1927 C1926 1.366 . S
C1927 C1931 1.385 . S
C1928 H1909 0.951 . S
C1928 C1926 1.388 . S
C1928 C1929 1.366 . S
C1929 C1928 1.366 . S
C1929 C1930 1.414 . S
C1929 C1932 1.499 . S
C1930 H1910 0.950 . S
C1930 C1929 1.414 . S
C1930 C1931 1.374 . S
C1931 H1911 0.950 . S
C1931 C1927 1.385 . S
C1931 C1930 1.374 . S
C1932 C1929 1.499 . S
C1932 C1933 1.373 . S
C1932 C1934 1.389 . S
C1933 H1912 0.950 . S
C1933 C1932 1.373 . S
C1933 C1949 1.377 1_545 S
C1934 C1932 1.389 . S
C1934 C1935 1.524 . S
C1934 C1948 1.377 1_545 S
C1935 C1934 1.524 . S
C1935 C1936 1.397 . S
C1935 C1940 1.363 . S
C1936 H1913 0.950 . S
C1936 C1935 1.397 . S
C1936 C1937 1.334 . S
C1937 H1914 0.950 . S
C1937 C1936 1.334 . S
C1937 C1938 1.287 . S
C1938 C1937 1.287 . S
C1938 C1939 1.524 . S
C1938 H1957 0.913 . S
C1939 H1915 0.950 . S
C1939 C1938 1.524 . S
C1939 C1940 1.415 . S
C1940 H1916 0.950 . S
C1940 C1935 1.363 . S
C1940 C1939 1.415 . S
C1941 H1917 0.951 . S
C1941 C1942 1.366 . S
C1941 C1943 1.388 . S
C1942 C1941 1.366 . S
C1942 C1946 1.385 . S
C1943 H1918 0.951 . S
C1943 C1941 1.388 . S
C1943 C1944 1.366 . S
C1944 C1943 1.366 . S
C1944 C1945 1.414 . S
C1944 C1947 1.499 . S
C1945 H1919 0.950 . S
C1945 C1944 1.414 . S
C1945 C1946 1.374 . S
C1946 H1920 0.950 . S
C1946 C1942 1.385 . S
C1946 C1945 1.374 . S
C1947 C1944 1.499 . S
C1947 C1948 1.373 . S
C1947 C1949 1.389 . S
C1948 H1921 0.950 . S
C1948 C1934 1.377 1_565 S
C1948 C1947 1.373 . S
C1949 C1933 1.377 1_565 S
C1949 C1947 1.389 . S
C1949 C1950 1.524 . S
C1950 C1949 1.524 . S
C1950 C1951 1.397 . S
C1950 C1955 1.363 . S
C1951 H1922 0.950 . S
C1951 C1950 1.397 . S
C1951 C1952 1.334 . S
C1952 H1923 0.950 . S
C1952 C1951 1.334 . S
C1952 C1953 1.287 . S
C1953 C1952 1.287 . S
C1953 C1954 1.524 . S
C1953 H1956 0.999 . S
C1954 H1924 0.950 . S
C1954 C1953 1.524 . S
C1954 C1955 1.415 . S
C1955 H1925 0.950 . S
C1955 C1950 1.363 . S
C1955 C1954 1.415 . S
H1956 C1953 0.999 . S
H1957 C1938 0.913 . S
H1958 C1976 0.951 . S
H1959 C1978 0.951 . S
H1960 C1980 0.950 . S
H1961 C1981 0.950 . S
H1962 C1983 0.950 . S
H1963 C1986 0.950 . S
H1964 C1987 0.950 . S
H1965 C1989 0.950 . S
H1966 C1990 0.950 . S
H1967 C1991 0.951 . S
H1968 C1993 0.951 . S
H1969 C1995 0.950 . S
H1970 C1996 0.950 . S
H1971 C1998 0.950 . S
H1972 C2001 0.950 . S
H1973 C2002 0.950 . S
H1974 C2004 0.950 . S
H1975 C2005 0.950 . S
C1976 H1958 0.951 . S
C1976 C1977 1.366 . S
C1976 C1978 1.388 . S
C1977 C1976 1.366 . S
C1977 C1981 1.385 . S
C1978 H1959 0.951 . S
C1978 C1976 1.388 . S
C1978 C1979 1.366 . S
C1979 C1978 1.366 . S
C1979 C1980 1.414 . S
C1979 C1982 1.499 . S
C1980 H1960 0.950 . S
C1980 C1979 1.414 . S
C1980 C1981 1.374 . S
C1981 H1961 0.950 . S
C1981 C1977 1.385 . S
C1981 C1980 1.374 . S
C1982 C1979 1.499 . S
C1982 C1983 1.373 . S
C1982 C1984 1.389 . S
C1983 H1962 0.950 . S
C1983 C1982 1.373 . S
C1983 C1999 1.377 . S
C1984 C1982 1.389 . S
C1984 C1985 1.524 . S
C1984 C1998 1.377 . S
C1985 C1984 1.524 . S
C1985 C1986 1.397 . S
C1985 C1990 1.363 . S
C1986 H1963 0.950 . S
C1986 C1985 1.397 . S
C1986 C1987 1.334 . S
C1987 H1964 0.950 . S
C1987 C1986 1.334 . S
C1987 C1988 1.287 . S
C1988 C1987 1.287 . S
C1988 C1989 1.524 . S
C1988 H2007 0.913 . S
C1989 H1965 0.950 . S
C1989 C1988 1.524 . S
C1989 C1990 1.415 . S
C1990 H1966 0.950 . S
C1990 C1985 1.363 . S
C1990 C1989 1.415 . S
C1991 H1967 0.951 . S
C1991 C1992 1.366 . S
C1991 C1993 1.388 . S
C1992 C1991 1.366 . S
C1992 C1996 1.385 . S
C1993 H1968 0.951 . S
C1993 C1991 1.388 . S
C1993 C1994 1.366 . S
C1994 C1993 1.366 . S
C1994 C1995 1.414 . S
C1994 C1997 1.499 . S
C1995 H1969 0.950 . S
C1995 C1994 1.414 . S
C1995 C1996 1.374 . S
C1996 H1970 0.950 . S
C1996 C1992 1.385 . S
C1996 C1995 1.374 . S
C1997 C1994 1.499 . S
C1997 C1998 1.373 . S
C1997 C1999 1.389 . S
C1998 H1971 0.950 . S
C1998 C1984 1.377 . S
C1998 C1997 1.373 . S
C1999 C1983 1.377 . S
C1999 C1997 1.389 . S
C1999 C2000 1.524 . S
C2000 C1999 1.524 . S
C2000 C2001 1.397 . S
C2000 C2005 1.363 . S
C2001 H1972 0.950 . S
C2001 C2000 1.397 . S
C2001 C2002 1.334 . S
C2002 H1973 0.950 . S
C2002 C2001 1.334 . S
C2002 C2003 1.287 . S
C2003 C2002 1.287 . S
C2003 C2004 1.524 . S
C2003 H2006 0.999 . S
C2004 H1974 0.950 . S
C2004 C2003 1.524 . S
C2004 C2005 1.415 . S
C2005 H1975 0.950 . S
C2005 C2000 1.363 . S
C2005 C2004 1.415 . S
H2006 C2003 0.999 . S
H2007 C1988 0.913 . S
H2008 C2026 0.951 . S
H2009 C2028 0.951 . S
H2010 C2030 0.950 . S
H2011 C2031 0.950 . S
H2012 C2033 0.935 . S
H2013 C2036 0.950 . S
H2014 C2037 0.950 . S
H2015 C2039 0.950 . S
H2016 C2040 0.950 . S
H2017 C2041 0.951 . S
H2018 C2043 0.951 . S
H2019 C2045 0.950 . S
H2020 C2046 0.950 . S
H2021 C2048 0.935 . S
H2022 C2051 0.950 . S
H2023 C2052 0.950 . S
H2024 C2054 0.950 . S
H2025 C2055 0.950 . S
C2026 H2008 0.951 . S
C2026 C2027 1.366 . S
C2026 C2028 1.388 . S
C2027 C2026 1.366 . S
C2027 C2031 1.385 . S
C2028 H2009 0.951 . S
C2028 C2026 1.388 . S
C2028 C2029 1.366 . S
C2029 C2028 1.366 . S
C2029 C2030 1.414 . S
C2029 C2032 1.499 . S
C2030 H2010 0.950 . S
C2030 C2029 1.414 . S
C2030 C2031 1.374 . S
C2031 H2011 0.950 . S
C2031 C2027 1.385 . S
C2031 C2030 1.374 . S
C2032 C2029 1.499 . S
C2032 C2033 1.360 1_655 S
C2032 C2034 1.389 . S
C2033 H2012 0.935 . S
C2033 C2032 1.360 1_455 S
C2033 C2049 1.382 . S
C2034 C2032 1.389 . S
C2034 C2035 1.524 . S
C2034 C2048 1.382 . S
C2035 C2034 1.524 . S
C2035 C2036 1.397 . S
C2035 C2040 1.363 . S
C2036 H2013 0.950 . S
C2036 C2035 1.397 . S
C2036 C2037 1.334 . S
C2037 H2014 0.950 . S
C2037 C2036 1.334 . S
C2037 C2038 1.287 . S
C2038 C2037 1.287 . S
C2038 C2039 1.524 . S
C2038 H2057 0.913 . S
C2039 H2015 0.950 . S
C2039 C2038 1.524 . S
C2039 C2040 1.415 . S
C2040 H2016 0.950 . S
C2040 C2035 1.363 . S
C2040 C2039 1.415 . S
C2041 H2017 0.951 . S
C2041 C2042 1.366 . S
C2041 C2043 1.388 . S
C2042 C2041 1.366 . S
C2042 C2046 1.385 . S
C2043 H2018 0.951 . S
C2043 C2041 1.388 . S
C2043 C2044 1.366 . S
C2044 C2043 1.366 . S
C2044 C2045 1.414 . S
C2044 C2047 1.499 . S
C2045 H2019 0.950 . S
C2045 C2044 1.414 . S
C2045 C2046 1.374 . S
C2046 H2020 0.950 . S
C2046 C2042 1.385 . S
C2046 C2045 1.374 . S
C2047 C2044 1.499 . S
C2047 C2048 1.360 1_455 S
C2047 C2049 1.389 . S
C2048 H2021 0.935 . S
C2048 C2034 1.382 . S
C2048 C2047 1.360 1_655 S
C2049 C2033 1.382 . S
C2049 C2047 1.389 . S
C2049 C2050 1.524 . S
C2050 C2049 1.524 . S
C2050 C2051 1.397 1_556 S
C2050 C2055 1.363 . S
C2051 H2022 0.950 . S
C2051 C2050 1.397 1_554 S
C2051 C2052 1.334 . S
C2052 H2023 0.950 . S
C2052 C2051 1.334 . S
C2052 C2053 1.287 . S
C2053 C2052 1.287 . S
C2053 C2054 1.524 . S
C2053 H2056 0.999 . S
C2054 H2024 0.950 . S
C2054 C2053 1.524 . S
C2054 C2055 1.415 1_554 S
C2055 H2025 0.950 . S
C2055 C2050 1.363 . S
C2055 C2054 1.415 1_556 S
H2056 C2053 0.999 . S
H2057 C2038 0.913 . S
H2058 C2076 0.951 . S
H2059 C2078 0.951 . S
H2060 C2080 0.950 . S
H2061 C2081 0.950 . S
H2062 C2083 0.950 . S
H2063 C2086 0.950 . S
H2064 C2087 0.950 . S
H2065 C2089 0.950 . S
H2066 C2090 0.950 1_655 S
H2067 C2091 0.951 . S
H2068 C2093 0.951 . S
H2069 C2095 0.950 . S
H2070 C2096 0.950 . S
H2071 C2098 0.950 . S
H2072 C2101 0.950 . S
H2073 C2102 0.950 . S
H2074 C2104 0.950 . S
H2075 C2105 0.950 1_455 S
C2076 H2058 0.951 . S
C2076 C2077 1.366 . S
C2076 C2078 1.388 . S
C2077 C2076 1.366 . S
C2077 C2081 1.385 . S
C2078 H2059 0.951 . S
C2078 C2076 1.388 . S
C2078 C2079 1.366 . S
C2079 C2078 1.366 . S
C2079 C2080 1.414 . S
C2079 C2082 1.499 . S
C2080 H2060 0.950 . S
C2080 C2079 1.414 . S
C2080 C2081 1.374 . S
C2081 H2061 0.950 . S
C2081 C2077 1.385 . S
C2081 C2080 1.374 . S
C2082 C2079 1.499 . S
C2082 C2083 1.373 . S
C2082 C2084 1.389 . S
C2083 H2062 0.950 . S
C2083 C2082 1.373 . S
C2083 C2099 1.377 1_455 S
C2084 C2082 1.389 . S
C2084 C2085 1.524 . S
C2084 C2098 1.377 1_455 S
C2085 C2084 1.524 . S
C2085 C2086 1.397 . S
C2085 C2090 1.363 . S
C2086 H2063 0.950 . S
C2086 C2085 1.397 . S
C2086 C2087 1.334 . S
C2087 H2064 0.950 . S
C2087 C2086 1.334 . S
C2087 C2088 1.287 . S
C2088 C2087 1.287 . S
C2088 C2089 1.524 . S
C2088 H2107 0.913 . S
C2089 H2065 0.950 . S
C2089 C2088 1.524 . S
C2089 C2090 1.415 . S
C2090 H2066 0.950 1_455 S
C2090 C2085 1.363 . S
C2090 C2089 1.415 . S
C2091 H2067 0.951 . S
C2091 C2092 1.366 . S
C2091 C2093 1.388 . S
C2092 C2091 1.366 . S
C2092 C2096 1.385 . S
C2093 H2068 0.951 . S
C2093 C2091 1.388 . S
C2093 C2094 1.366 . S
C2094 C2093 1.366 . S
C2094 C2095 1.414 . S
C2094 C2097 1.499 . S
C2095 H2069 0.950 . S
C2095 C2094 1.414 . S
C2095 C2096 1.374 . S
C2096 H2070 0.950 . S
C2096 C2092 1.385 . S
C2096 C2095 1.374 . S
C2097 C2094 1.499 . S
C2097 C2098 1.373 . S
C2097 C2099 1.389 . S
C2098 H2071 0.950 . S
C2098 C2084 1.377 1_655 S
C2098 C2097 1.373 . S
C2099 C2083 1.377 1_655 S
C2099 C2097 1.389 . S
C2099 C2100 1.524 . S
C2100 C2099 1.524 . S
C2100 C2101 1.397 . S
C2100 C2105 1.363 . S
C2101 H2072 0.950 . S
C2101 C2100 1.397 . S
C2101 C2102 1.334 . S
C2102 H2073 0.950 . S
C2102 C2101 1.334 . S
C2102 C2103 1.287 . S
C2103 C2102 1.287 . S
C2103 C2104 1.524 . S
C2103 H2106 0.999 . S
C2104 H2074 0.950 . S
C2104 C2103 1.524 . S
C2104 C2105 1.415 . S
C2105 H2075 0.950 1_655 S
C2105 C2100 1.363 . S
C2105 C2104 1.415 . S
H2106 C2103 0.999 . S
H2107 C2088 0.913 . S
H2108 C2126 0.951 . S
H2109 C2128 0.951 . S
H2110 C2130 0.950 . S
H2111 C2131 0.950 . S
H2112 C2133 0.949 . S
H2113 C2136 0.950 . S
H2114 C2137 0.950 . S
H2115 C2139 0.950 . S
H2116 C2140 0.950 . S
H2117 C2141 0.951 . S
H2118 C2143 0.951 . S
H2119 C2145 0.950 . S
H2120 C2146 0.950 . S
H2121 C2148 0.949 . S
H2122 C2151 0.950 . S
H2123 C2152 0.950 . S
H2124 C2154 0.950 . S
H2125 C2155 0.950 . S
C2126 H2108 0.951 . S
C2126 C2127 1.366 . S
C2126 C2128 1.388 . S
C2127 C2126 1.366 . S
C2127 C2131 1.385 . S
C2128 H2109 0.951 . S
C2128 C2126 1.388 . S
C2128 C2129 1.366 . S
C2129 C2128 1.366 . S
C2129 C2130 1.414 . S
C2129 C2132 1.499 . S
C2130 H2110 0.950 . S
C2130 C2129 1.414 . S
C2130 C2131 1.374 . S
C2131 H2111 0.950 . S
C2131 C2127 1.385 . S
C2131 C2130 1.374 . S
C2132 C2129 1.499 . S
C2132 C2133 1.385 . S
C2132 C2134 1.389 . S
C2133 H2112 0.949 . S
C2133 C2132 1.385 . S
C2133 C2149 1.371 1_565 S
C2134 C2132 1.389 . S
C2134 C2135 1.524 . S
C2134 C2148 1.371 1_565 S
C2135 C2134 1.524 . S
C2135 C2136 1.397 . S
C2135 C2140 1.363 . S
C2136 H2113 0.950 . S
C2136 C2135 1.397 . S
C2136 C2137 1.334 . S
C2137 H2114 0.950 . S
C2137 C2136 1.334 . S
C2137 C2138 1.287 . S
C2138 C2137 1.287 . S
C2138 C2139 1.524 . S
C2138 H2157 0.913 . S
C2139 H2115 0.950 . S
C2139 C2138 1.524 . S
C2139 C2140 1.415 . S
C2140 H2116 0.950 . S
C2140 C2135 1.363 . S
C2140 C2139 1.415 . S
C2141 H2117 0.951 . S
C2141 C2142 1.366 . S
C2141 C2143 1.388 . S
C2142 C2141 1.366 . S
C2142 C2146 1.385 . S
C2143 H2118 0.951 . S
C2143 C2141 1.388 . S
C2143 C2144 1.366 . S
C2144 C2143 1.366 . S
C2144 C2145 1.414 . S
C2144 C2147 1.499 . S
C2145 H2119 0.950 . S
C2145 C2144 1.414 . S
C2145 C2146 1.374 . S
C2146 H2120 0.950 . S
C2146 C2142 1.385 . S
C2146 C2145 1.374 . S
C2147 C2144 1.499 . S
C2147 C2148 1.385 . S
C2147 C2149 1.389 . S
C2148 H2121 0.949 . S
C2148 C2134 1.371 1_545 S
C2148 C2147 1.385 . S
C2149 C2133 1.371 1_545 S
C2149 C2147 1.389 . S
C2149 C2150 1.524 . S
C2150 C2149 1.524 . S
C2150 C2151 1.397 . S
C2150 C2155 1.363 . S
C2151 H2122 0.950 . S
C2151 C2150 1.397 . S
C2151 C2152 1.334 . S
C2152 H2123 0.950 . S
C2152 C2151 1.334 . S
C2152 C2153 1.287 . S
C2153 C2152 1.287 . S
C2153 C2154 1.524 . S
C2153 H2156 0.999 . S
C2154 H2124 0.950 . S
C2154 C2153 1.524 . S
C2154 C2155 1.415 . S
C2155 H2125 0.950 . S
C2155 C2150 1.363 . S
C2155 C2154 1.415 . S
H2156 C2153 0.999 . S
H2157 C2138 0.913 . S
H2158 C2176 0.951 . S
H2159 C2178 0.951 . S
H2160 C2180 0.950 . S
H2161 C2181 0.950 . S
H2162 C2183 0.950 . S
H2163 C2186 0.950 . S
H2164 C2187 0.950 . S
H2165 C2189 0.950 . S
H2166 C2190 0.950 . S
H2167 C2191 0.951 . S
H2168 C2193 0.951 . S
H2169 C2195 0.950 . S
H2170 C2196 0.950 . S
H2171 C2198 0.950 . S
H2172 C2201 0.965 . S
H2173 C2202 0.950 1_556 S
H2174 C2204 0.950 . S
H2175 C2205 0.950 . S
C2176 H2158 0.951 . S
C2176 C2177 1.366 . S
C2176 C2178 1.388 . S
C2177 C2176 1.366 . S
C2177 C2181 1.385 . S
C2178 H2159 0.951 . S
C2178 C2176 1.388 . S
C2178 C2179 1.366 . S
C2179 C2178 1.366 . S
C2179 C2180 1.414 . S
C2179 C2182 1.499 . S
C2180 H2160 0.950 . S
C2180 C2179 1.414 . S
C2180 C2181 1.374 . S
C2181 H2161 0.950 . S
C2181 C2177 1.385 . S
C2181 C2180 1.374 . S
C2182 C2179 1.499 . S
C2182 C2183 1.373 . S
C2182 C2184 1.389 . S
C2183 H2162 0.950 . S
C2183 C2182 1.373 . S
C2183 C2199 1.377 . S
C2184 C2182 1.389 . S
C2184 C2185 1.524 . S
C2184 C2198 1.377 . S
C2185 C2184 1.524 . S
C2185 C2186 1.397 . S
C2185 C2190 1.363 . S
C2186 H2163 0.950 . S
C2186 C2185 1.397 . S
C2186 C2187 1.334 . S
C2187 H2164 0.950 . S
C2187 C2186 1.334 . S
C2187 C2188 1.287 . S
C2188 C2187 1.287 . S
C2188 C2189 1.524 . S
C2188 H2207 0.913 . S
C2189 H2165 0.950 . S
C2189 C2188 1.524 . S
C2189 C2190 1.415 . S
C2190 H2166 0.950 . S
C2190 C2185 1.363 . S
C2190 C2189 1.415 . S
C2191 H2167 0.951 . S
C2191 C2192 1.366 . S
C2191 C2193 1.388 . S
C2192 C2191 1.366 . S
C2192 C2196 1.385 . S
C2193 H2168 0.951 . S
C2193 C2191 1.388 . S
C2193 C2194 1.366 . S
C2194 C2193 1.366 . S
C2194 C2195 1.414 . S
C2194 C2197 1.499 . S
C2195 H2169 0.950 . S
C2195 C2194 1.414 . S
C2195 C2196 1.374 . S
C2196 H2170 0.950 . S
C2196 C2192 1.385 . S
C2196 C2195 1.374 . S
C2197 C2194 1.499 . S
C2197 C2198 1.373 . S
C2197 C2199 1.389 . S
C2198 H2171 0.950 . S
C2198 C2184 1.377 . S
C2198 C2197 1.373 . S
C2199 C2183 1.377 . S
C2199 C2197 1.389 . S
C2199 C2200 1.524 . S
C2200 C2199 1.524 . S
C2200 C2201 1.397 . S
C2200 C2205 1.363 . S
C2201 H2172 0.965 . S
C2201 C2200 1.397 . S
C2201 C2202 1.334 . S
C2202 H2173 0.950 1_554 S
C2202 C2201 1.334 . S
C2202 C2203 1.287 . S
C2203 C2202 1.287 . S
C2203 C2204 1.524 . S
C2203 H2206 0.999 . S
C2204 H2174 0.950 . S
C2204 C2203 1.524 . S
C2204 C2205 1.415 . S
C2205 H2175 0.950 . S
C2205 C2200 1.363 . S
C2205 C2204 1.415 . S
H2206 C2203 0.999 . S
H2207 C2188 0.913 . S
H2208 C2226 0.951 . S
H2209 C2228 0.951 . S
H2210 C2230 0.950 . S
H2211 C2231 0.950 . S
H2212 C2233 0.950 . S
H2213 C2236 0.950 . S
H2214 C2237 0.950 . S
H2215 C2239 0.950 . S
H2216 C2240 0.950 . S
H2217 C2241 0.951 . S
H2218 C2243 0.951 . S
H2219 C2245 0.950 . S
H2220 C2246 0.950 . S
H2221 C2248 0.950 . S
H2222 C2251 0.950 . S
H2223 C2252 0.950 . S
H2224 C2254 0.950 . S
H2225 C2255 0.950 . S
C2226 H2208 0.951 . S
C2226 C2227 1.366 . S
C2226 C2228 1.388 . S
C2227 C2226 1.366 . S
C2227 C2231 1.385 . S
C2228 H2209 0.951 . S
C2228 C2226 1.388 . S
C2228 C2229 1.366 . S
C2229 C2228 1.366 . S
C2229 C2230 1.414 . S
C2229 C2232 1.499 . S
C2230 H2210 0.950 . S
C2230 C2229 1.414 . S
C2230 C2231 1.374 . S
C2231 H2211 0.950 . S
C2231 C2227 1.385 . S
C2231 C2230 1.374 . S
C2232 C2229 1.499 . S
C2232 C2233 1.373 1_565 S
C2232 C2234 1.389 . S
C2233 H2212 0.950 . S
C2233 C2232 1.373 1_545 S
C2233 C2249 1.377 . S
C2234 C2232 1.389 . S
C2234 C2235 1.524 . S
C2234 C2248 1.377 . S
C2235 C2234 1.524 . S
C2235 C2236 1.397 . S
C2235 C2240 1.363 . S
C2236 H2213 0.950 . S
C2236 C2235 1.397 . S
C2236 C2237 1.334 . S
C2237 H2214 0.950 . S
C2237 C2236 1.334 . S
C2237 C2238 1.287 . S
C2238 C2237 1.287 . S
C2238 C2239 1.524 . S
C2238 H2257 0.913 . S
C2239 H2215 0.950 . S
C2239 C2238 1.524 . S
C2239 C2240 1.415 . S
C2240 H2216 0.950 . S
C2240 C2235 1.363 . S
C2240 C2239 1.415 . S
C2241 H2217 0.951 . S
C2241 C2242 1.366 . S
C2241 C2243 1.388 . S
C2242 C2241 1.366 . S
C2242 C2246 1.385 . S
C2243 H2218 0.951 . S
C2243 C2241 1.388 . S
C2243 C2244 1.366 . S
C2244 C2243 1.366 . S
C2244 C2245 1.414 . S
C2244 C2247 1.499 . S
C2245 H2219 0.950 . S
C2245 C2244 1.414 . S
C2245 C2246 1.374 . S
C2246 H2220 0.950 . S
C2246 C2242 1.385 . S
C2246 C2245 1.374 . S
C2247 C2244 1.499 . S
C2247 C2248 1.373 1_545 S
C2247 C2249 1.389 . S
C2248 H2221 0.950 . S
C2248 C2234 1.377 . S
C2248 C2247 1.373 1_565 S
C2249 C2233 1.377 . S
C2249 C2247 1.389 . S
C2249 C2250 1.524 . S
C2250 C2249 1.524 . S
C2250 C2251 1.397 . S
C2250 C2255 1.363 . S
C2251 H2222 0.950 . S
C2251 C2250 1.397 . S
C2251 C2252 1.334 . S
C2252 H2223 0.950 . S
C2252 C2251 1.334 . S
C2252 C2253 1.287 . S
C2253 C2252 1.287 . S
C2253 C2254 1.524 . S
C2253 H2256 0.999 . S
C2254 H2224 0.950 . S
C2254 C2253 1.524 . S
C2254 C2255 1.415 . S
C2255 H2225 0.950 . S
C2255 C2250 1.363 . S
C2255 C2254 1.415 . S
H2256 C2253 0.999 . S
H2257 C2238 0.913 . S
H2258 C2276 0.951 . S
H2259 C2278 0.951 . S
H2260 C2280 0.950 . S
H2261 C2281 0.950 . S
H2262 C2283 0.950 . S
H2263 C2286 0.950 . S
H2264 C2287 0.950 . S
H2265 C2289 0.950 . S
H2266 C2290 0.950 . S
H2267 C2291 0.951 . S
H2268 C2293 0.951 . S
H2269 C2295 0.950 . S
H2270 C2296 0.950 . S
H2271 C2298 0.950 . S
H2272 C2301 0.950 . S
H2273 C2302 0.950 . S
H2274 C2304 0.950 . S
H2275 C2305 0.950 . S
C2276 H2258 0.951 . S
C2276 C2277 1.366 . S
C2276 C2278 1.388 . S
C2277 C2276 1.366 . S
C2277 C2281 1.385 . S
C2278 H2259 0.951 . S
C2278 C2276 1.388 . S
C2278 C2279 1.366 . S
C2279 C2278 1.366 . S
C2279 C2280 1.414 . S
C2279 C2282 1.499 . S
C2280 H2260 0.950 . S
C2280 C2279 1.414 . S
C2280 C2281 1.374 . S
C2281 H2261 0.950 . S
C2281 C2277 1.385 . S
C2281 C2280 1.374 . S
C2282 C2279 1.499 . S
C2282 C2283 1.373 . S
C2282 C2284 1.389 . S
C2283 H2262 0.950 . S
C2283 C2282 1.373 . S
C2283 C2299 1.377 . S
C2284 C2282 1.389 . S
C2284 C2285 1.524 . S
C2284 C2298 1.377 . S
C2285 C2284 1.524 . S
C2285 C2286 1.397 . S
C2285 C2290 1.363 . S
C2286 H2263 0.950 . S
C2286 C2285 1.397 . S
C2286 C2287 1.334 . S
C2287 H2264 0.950 . S
C2287 C2286 1.334 . S
C2287 C2288 1.287 . S
C2288 C2287 1.287 . S
C2288 C2289 1.524 . S
C2288 H2307 0.913 . S
C2289 H2265 0.950 . S
C2289 C2288 1.524 . S
C2289 C2290 1.415 . S
C2290 H2266 0.950 . S
C2290 C2285 1.363 . S
C2290 C2289 1.415 . S
C2291 H2267 0.951 . S
C2291 C2292 1.366 . S
C2291 C2293 1.388 . S
C2292 C2291 1.366 . S
C2292 C2296 1.385 . S
C2293 H2268 0.951 . S
C2293 C2291 1.388 . S
C2293 C2294 1.366 . S
C2294 C2293 1.366 . S
C2294 C2295 1.414 . S
C2294 C2297 1.499 . S
C2295 H2269 0.950 . S
C2295 C2294 1.414 . S
C2295 C2296 1.374 . S
C2296 H2270 0.950 . S
C2296 C2292 1.385 . S
C2296 C2295 1.374 . S
C2297 C2294 1.499 . S
C2297 C2298 1.373 . S
C2297 C2299 1.389 . S
C2298 H2271 0.950 . S
C2298 C2284 1.377 . S
C2298 C2297 1.373 . S
C2299 C2283 1.377 . S
C2299 C2297 1.389 . S
C2299 C2300 1.524 . S
C2300 C2299 1.524 . S
C2300 C2301 1.397 . S
C2300 C2305 1.363 . S
C2301 H2272 0.950 . S
C2301 C2300 1.397 . S
C2301 C2302 1.334 . S
C2302 H2273 0.950 . S
C2302 C2301 1.334 . S
C2302 C2303 1.287 . S
C2303 C2302 1.287 . S
C2303 C2304 1.524 . S
C2303 H2306 0.999 . S
C2304 H2274 0.950 . S
C2304 C2303 1.524 . S
C2304 C2305 1.415 . S
C2305 H2275 0.950 . S
C2305 C2300 1.363 . S
C2305 C2304 1.415 . S
H2306 C2303 0.999 . S
H2307 C2288 0.913 . S
H2308 C2326 0.951 . S
H2309 C2328 0.951 . S
H2310 C2330 0.950 . S
H2311 C2331 0.950 . S
H2312 C2333 0.950 . S
H2313 C2336 0.950 . S
H2314 C2337 0.950 . S
H2315 C2339 0.950 . S
H2316 C2340 0.950 . S
H2317 C2341 0.951 . S
H2318 C2343 0.951 . S
H2319 C2345 0.950 . S
H2320 C2346 0.950 . S
H2321 C2348 0.950 . S
H2322 C2351 0.950 . S
H2323 C2352 0.950 . S
H2324 C2354 0.950 . S
H2325 C2355 0.950 . S
C2326 H2308 0.951 . S
C2326 C2327 1.366 . S
C2326 C2328 1.388 . S
C2327 C2326 1.366 . S
C2327 C2331 1.385 . S
C2328 H2309 0.951 . S
C2328 C2326 1.388 . S
C2328 C2329 1.366 . S
C2329 C2328 1.366 . S
C2329 C2330 1.414 . S
C2329 C2332 1.499 . S
C2330 H2310 0.950 . S
C2330 C2329 1.414 . S
C2330 C2331 1.374 . S
C2331 H2311 0.950 . S
C2331 C2327 1.385 . S
C2331 C2330 1.374 . S
C2332 C2329 1.499 . S
C2332 C2333 1.373 1_655 S
C2332 C2334 1.389 . S
C2333 H2312 0.950 . S
C2333 C2332 1.373 1_455 S
C2333 C2349 1.377 . S
C2334 C2332 1.389 . S
C2334 C2335 1.524 . S
C2334 C2348 1.377 . S
C2335 C2334 1.524 . S
C2335 C2336 1.397 . S
C2335 C2340 1.363 . S
C2336 H2313 0.950 . S
C2336 C2335 1.397 . S
C2336 C2337 1.334 . S
C2337 H2314 0.950 . S
C2337 C2336 1.334 . S
C2337 C2338 1.287 . S
C2338 C2337 1.287 . S
C2338 C2339 1.524 . S
C2338 H2357 0.913 . S
C2339 H2315 0.950 . S
C2339 C2338 1.524 . S
C2339 C2340 1.415 . S
C2340 H2316 0.950 . S
C2340 C2335 1.363 . S
C2340 C2339 1.415 . S
C2341 H2317 0.951 . S
C2341 C2342 1.366 . S
C2341 C2343 1.388 . S
C2342 C2341 1.366 . S
C2342 C2346 1.385 . S
C2343 H2318 0.951 . S
C2343 C2341 1.388 . S
C2343 C2344 1.366 . S
C2344 C2343 1.366 . S
C2344 C2345 1.414 . S
C2344 C2347 1.499 . S
C2345 H2319 0.950 . S
C2345 C2344 1.414 . S
C2345 C2346 1.374 . S
C2346 H2320 0.950 . S
C2346 C2342 1.385 . S
C2346 C2345 1.374 . S
C2347 C2344 1.499 . S
C2347 C2348 1.373 1_455 S
C2347 C2349 1.389 . S
C2348 H2321 0.950 . S
C2348 C2334 1.377 . S
C2348 C2347 1.373 1_655 S
C2349 C2333 1.377 . S
C2349 C2347 1.389 . S
C2349 C2350 1.524 . S
C2350 C2349 1.524 . S
C2350 C2351 1.397 . S
C2350 C2355 1.363 . S
C2351 H2322 0.950 . S
C2351 C2350 1.397 . S
C2351 C2352 1.334 . S
C2352 H2323 0.950 . S
C2352 C2351 1.334 . S
C2352 C2353 1.287 . S
C2353 C2352 1.287 . S
C2353 C2354 1.524 . S
C2353 H2356 0.999 . S
C2354 H2324 0.950 . S
C2354 C2353 1.524 . S
C2354 C2355 1.415 . S
C2355 H2325 0.950 . S
C2355 C2350 1.363 . S
C2355 C2354 1.415 . S
H2356 C2353 0.999 . S
H2357 C2338 0.913 . S
H2358 C2376 0.951 . S
H2359 C2378 0.951 . S
H2360 C2380 0.950 . S
H2361 C2381 0.950 . S
H2362 C2383 0.950 . S
H2363 C2386 0.950 . S
H2364 C2387 0.950 . S
H2365 C2389 0.950 . S
H2366 C2390 0.950 . S
H2367 C2391 0.951 . S
H2368 C2393 0.951 . S
H2369 C2395 0.950 . S
H2370 C2396 0.950 . S
H2371 C2398 0.950 . S
H2372 C2401 0.950 . S
H2373 C2402 0.950 . S
H2374 C2404 0.950 . S
H2375 C2405 0.950 . S
C2376 H2358 0.951 . S
C2376 C2377 1.366 . S
C2376 C2378 1.388 . S
C2377 C2376 1.366 . S
C2377 C2381 1.385 . S
C2378 H2359 0.951 . S
C2378 C2376 1.388 . S
C2378 C2379 1.366 . S
C2379 C2378 1.366 . S
C2379 C2380 1.414 . S
C2379 C2382 1.499 . S
C2380 H2360 0.950 . S
C2380 C2379 1.414 . S
C2380 C2381 1.374 . S
C2381 H2361 0.950 . S
C2381 C2377 1.385 . S
C2381 C2380 1.374 . S
C2382 C2379 1.499 . S
C2382 C2383 1.373 . S
C2382 C2384 1.389 1_545 S
C2383 H2362 0.950 . S
C2383 C2382 1.373 . S
C2383 C2399 1.377 . S
C2384 C2382 1.389 1_565 S
C2384 C2385 1.524 . S
C2384 C2398 1.377 . S
C2385 C2384 1.524 . S
C2385 C2386 1.397 . S
C2385 C2390 1.363 . S
C2386 H2363 0.950 . S
C2386 C2385 1.397 . S
C2386 C2387 1.334 . S
C2387 H2364 0.950 . S
C2387 C2386 1.334 . S
C2387 C2388 1.287 . S
C2388 C2387 1.287 . S
C2388 C2389 1.524 . S
C2388 H2407 0.913 . S
C2389 H2365 0.950 . S
C2389 C2388 1.524 . S
C2389 C2390 1.415 . S
C2390 H2366 0.950 . S
C2390 C2385 1.363 . S
C2390 C2389 1.415 . S
C2391 H2367 0.951 . S
C2391 C2392 1.366 . S
C2391 C2393 1.388 . S
C2392 C2391 1.366 . S
C2392 C2396 1.385 . S
C2393 H2368 0.951 . S
C2393 C2391 1.388 . S
C2393 C2394 1.366 . S
C2394 C2393 1.366 . S
C2394 C2395 1.414 . S
C2394 C2397 1.499 . S
C2395 H2369 0.950 . S
C2395 C2394 1.414 . S
C2395 C2396 1.374 . S
C2396 H2370 0.950 . S
C2396 C2392 1.385 . S
C2396 C2395 1.374 . S
C2397 C2394 1.499 . S
C2397 C2398 1.373 . S
C2397 C2399 1.389 1_565 S
C2398 H2371 0.950 . S
C2398 C2384 1.377 . S
C2398 C2397 1.373 . S
C2399 C2383 1.377 . S
C2399 C2397 1.389 1_545 S
C2399 C2400 1.524 . S
C2400 C2399 1.524 . S
C2400 C2401 1.397 . S
C2400 C2405 1.363 . S
C2401 H2372 0.950 . S
C2401 C2400 1.397 . S
C2401 C2402 1.334 . S
C2402 H2373 0.950 . S
C2402 C2401 1.334 . S
C2402 C2403 1.287 . S
C2403 C2402 1.287 . S
C2403 C2404 1.524 . S
C2403 H2406 0.999 . S
C2404 H2374 0.950 . S
C2404 C2403 1.524 . S
C2404 C2405 1.415 . S
C2405 H2375 0.950 . S
C2405 C2400 1.363 . S
C2405 C2404 1.415 . S
H2406 C2403 0.999 . S
H2407 C2388 0.913 . S
H2408 C2426 0.951 . S
H2409 C2428 0.951 . S
H2410 C2430 0.950 . S
H2411 C2431 0.950 . S
H2412 C2433 0.950 . S
H2413 C2436 0.950 . S
H2414 C2437 0.950 . S
H2415 C2439 0.950 . S
H2416 C2440 0.950 . S
H2417 C2441 0.951 . S
H2418 C2443 0.951 . S
H2419 C2445 0.950 . S
H2420 C2446 0.950 . S
H2421 C2448 0.950 . S
H2422 C2451 0.950 . S
H2423 C2452 0.950 . S
H2424 C2454 0.950 . S
H2425 C2455 0.950 . S
C2426 H2408 0.951 . S
C2426 C2427 1.366 . S
C2426 C2428 1.388 . S
C2427 C2426 1.366 . S
C2427 C2431 1.385 . S
C2428 H2409 0.951 . S
C2428 C2426 1.388 . S
C2428 C2429 1.366 . S
C2429 C2428 1.366 . S
C2429 C2430 1.414 . S
C2429 C2432 1.499 . S
C2430 H2410 0.950 . S
C2430 C2429 1.414 . S
C2430 C2431 1.374 . S
C2431 H2411 0.950 . S
C2431 C2427 1.385 . S
C2431 C2430 1.374 . S
C2432 C2429 1.499 . S
C2432 C2433 1.373 . S
C2432 C2434 1.389 . S
C2433 H2412 0.950 . S
C2433 C2432 1.373 . S
C2433 C2449 1.377 . S
C2434 C2432 1.389 . S
C2434 C2435 1.524 . S
C2434 C2448 1.377 . S
C2435 C2434 1.524 . S
C2435 C2436 1.397 . S
C2435 C2440 1.363 . S
C2436 H2413 0.950 . S
C2436 C2435 1.397 . S
C2436 C2437 1.334 . S
C2437 H2414 0.950 . S
C2437 C2436 1.334 . S
C2437 C2438 1.287 . S
C2438 C2437 1.287 . S
C2438 C2439 1.524 . S
C2438 H2457 0.913 . S
C2439 H2415 0.950 . S
C2439 C2438 1.524 . S
C2439 C2440 1.415 . S
C2440 H2416 0.950 . S
C2440 C2435 1.363 . S
C2440 C2439 1.415 . S
C2441 H2417 0.951 . S
C2441 C2442 1.366 . S
C2441 C2443 1.388 . S
C2442 C2441 1.366 . S
C2442 C2446 1.385 . S
C2443 H2418 0.951 . S
C2443 C2441 1.388 . S
C2443 C2444 1.366 . S
C2444 C2443 1.366 . S
C2444 C2445 1.414 . S
C2444 C2447 1.499 . S
C2445 H2419 0.950 . S
C2445 C2444 1.414 . S
C2445 C2446 1.374 . S
C2446 H2420 0.950 . S
C2446 C2442 1.385 . S
C2446 C2445 1.374 . S
C2447 C2444 1.499 . S
C2447 C2448 1.373 . S
C2447 C2449 1.389 . S
C2448 H2421 0.950 . S
C2448 C2434 1.377 . S
C2448 C2447 1.373 . S
C2449 C2433 1.377 . S
C2449 C2447 1.389 . S
C2449 C2450 1.524 . S
C2450 C2449 1.524 . S
C2450 C2451 1.397 . S
C2450 C2455 1.363 . S
C2451 H2422 0.950 . S
C2451 C2450 1.397 . S
C2451 C2452 1.334 . S
C2452 H2423 0.950 . S
C2452 C2451 1.334 . S
C2452 C2453 1.287 . S
C2453 C2452 1.287 . S
C2453 C2454 1.524 . S
C2453 H2456 0.999 . S
C2454 H2424 0.950 . S
C2454 C2453 1.524 . S
C2454 C2455 1.415 . S
C2455 H2425 0.950 . S
C2455 C2450 1.363 . S
C2455 C2454 1.415 . S
H2456 C2453 0.999 . S
H2457 C2438 0.913 . S
H2458 C2476 0.951 . S
H2459 C2478 0.951 . S
H2460 C2480 0.950 . S
H2461 C2481 0.950 . S
H2462 C2483 0.950 . S
H2463 C2486 0.950 . S
H2464 C2487 0.950 . S
H2465 C2489 0.950 . S
H2466 C2490 0.950 1_655 S
H2467 C2491 0.951 . S
H2468 C2493 0.951 . S
H2469 C2495 0.950 . S
H2470 C2496 0.950 . S
H2471 C2498 0.950 . S
H2472 C2501 0.950 . S
H2473 C2502 0.950 . S
H2474 C2504 0.950 . S
H2475 C2505 0.950 1_455 S
C2476 H2458 0.951 . S
C2476 C2477 1.366 . S
C2476 C2478 1.388 . S
C2477 C2476 1.366 . S
C2477 C2481 1.385 . S
C2478 H2459 0.951 . S
C2478 C2476 1.388 . S
C2478 C2479 1.366 . S
C2479 C2478 1.366 . S
C2479 C2480 1.414 . S
C2479 C2482 1.499 . S
C2480 H2460 0.950 . S
C2480 C2479 1.414 . S
C2480 C2481 1.374 . S
C2481 H2461 0.950 . S
C2481 C2477 1.385 . S
C2481 C2480 1.374 . S
C2482 C2479 1.499 . S
C2482 C2483 1.373 . S
C2482 C2484 1.389 . S
C2483 H2462 0.950 . S
C2483 C2482 1.373 . S
C2483 C2499 1.377 1_455 S
C2484 C2482 1.389 . S
C2484 C2485 1.524 . S
C2484 C2498 1.377 1_455 S
C2485 C2484 1.524 . S
C2485 C2486 1.397 . S
C2485 C2490 1.363 . S
C2486 H2463 0.950 . S
C2486 C2485 1.397 . S
C2486 C2487 1.334 . S
C2487 H2464 0.950 . S
C2487 C2486 1.334 . S
C2487 C2488 1.287 . S
C2488 C2487 1.287 . S
C2488 C2489 1.524 . S
C2488 H2507 0.913 . S
C2489 H2465 0.950 . S
C2489 C2488 1.524 . S
C2489 C2490 1.415 . S
C2490 H2466 0.950 1_455 S
C2490 C2485 1.363 . S
C2490 C2489 1.415 . S
C2491 H2467 0.951 . S
C2491 C2492 1.366 . S
C2491 C2493 1.388 . S
C2492 C2491 1.366 . S
C2492 C2496 1.385 . S
C2493 H2468 0.951 . S
C2493 C2491 1.388 . S
C2493 C2494 1.366 . S
C2494 C2493 1.366 . S
C2494 C2495 1.414 . S
C2494 C2497 1.499 . S
C2495 H2469 0.950 . S
C2495 C2494 1.414 . S
C2495 C2496 1.374 . S
C2496 H2470 0.950 . S
C2496 C2492 1.385 . S
C2496 C2495 1.374 . S
C2497 C2494 1.499 . S
C2497 C2498 1.373 . S
C2497 C2499 1.389 . S
C2498 H2471 0.950 . S
C2498 C2484 1.377 1_655 S
C2498 C2497 1.373 . S
C2499 C2483 1.377 1_655 S
C2499 C2497 1.389 . S
C2499 C2500 1.524 . S
C2500 C2499 1.524 . S
C2500 C2501 1.397 . S
C2500 C2505 1.363 . S
C2501 H2472 0.950 . S
C2501 C2500 1.397 . S
C2501 C2502 1.334 . S
C2502 H2473 0.950 . S
C2502 C2501 1.334 . S
C2502 C2503 1.287 . S
C2503 C2502 1.287 . S
C2503 C2504 1.524 . S
C2503 H2506 0.999 . S
C2504 H2474 0.950 . S
C2504 C2503 1.524 . S
C2504 C2505 1.415 . S
C2505 H2475 0.950 1_655 S
C2505 C2500 1.363 . S
C2505 C2504 1.415 . S
H2506 C2503 0.999 . S
H2507 C2488 0.913 . S
H2508 C2526 0.951 . S
H2509 C2528 0.951 . S
H2510 C2530 0.950 . S
H2511 C2531 0.950 . S
H2512 C2533 0.950 . S
H2513 C2536 0.950 . S
H2514 C2537 0.950 . S
H2515 C2539 0.950 . S
H2516 C2540 0.950 . S
H2517 C2541 0.951 . S
H2518 C2543 0.951 . S
H2519 C2545 0.950 . S
H2520 C2546 0.950 . S
H2521 C2548 0.950 . S
H2522 C2551 0.950 . S
H2523 C2552 0.950 . S
H2524 C2554 0.950 . S
H2525 C2555 0.950 . S
C2526 H2508 0.951 . S
C2526 C2527 1.366 . S
C2526 C2528 1.388 . S
C2527 C2526 1.366 . S
C2527 C2531 1.385 . S
C2528 H2509 0.951 . S
C2528 C2526 1.388 . S
C2528 C2529 1.366 . S
C2529 C2528 1.366 . S
C2529 C2530 1.414 . S
C2529 C2532 1.499 . S
C2530 H2510 0.950 . S
C2530 C2529 1.414 . S
C2530 C2531 1.374 . S
C2531 H2511 0.950 . S
C2531 C2527 1.385 . S
C2531 C2530 1.374 . S
C2532 C2529 1.499 . S
C2532 C2533 1.373 . S
C2532 C2534 1.389 . S
C2533 H2512 0.950 . S
C2533 C2532 1.373 . S
C2533 C2549 1.377 . S
C2534 C2532 1.389 . S
C2534 C2535 1.524 . S
C2534 C2548 1.377 . S
C2535 C2534 1.524 . S
C2535 C2536 1.397 . S
C2535 C2540 1.363 . S
C2536 H2513 0.950 . S
C2536 C2535 1.397 . S
C2536 C2537 1.334 . S
C2537 H2514 0.950 . S
C2537 C2536 1.334 . S
C2537 C2538 1.287 . S
C2538 C2537 1.287 . S
C2538 C2539 1.524 . S
C2538 H2557 0.913 . S
C2539 H2515 0.950 . S
C2539 C2538 1.524 . S
C2539 C2540 1.415 . S
C2540 H2516 0.950 . S
C2540 C2535 1.363 . S
C2540 C2539 1.415 . S
C2541 H2517 0.951 . S
C2541 C2542 1.366 . S
C2541 C2543 1.388 . S
C2542 C2541 1.366 . S
C2542 C2546 1.385 . S
C2543 H2518 0.951 . S
C2543 C2541 1.388 . S
C2543 C2544 1.366 . S
C2544 C2543 1.366 . S
C2544 C2545 1.414 . S
C2544 C2547 1.499 . S
C2545 H2519 0.950 . S
C2545 C2544 1.414 . S
C2545 C2546 1.374 . S
C2546 H2520 0.950 . S
C2546 C2542 1.385 . S
C2546 C2545 1.374 . S
C2547 C2544 1.499 . S
C2547 C2548 1.373 . S
C2547 C2549 1.389 . S
C2548 H2521 0.950 . S
C2548 C2534 1.377 . S
C2548 C2547 1.373 . S
C2549 C2533 1.377 . S
C2549 C2547 1.389 . S
C2549 C2550 1.524 . S
C2550 C2549 1.524 . S
C2550 C2551 1.397 . S
C2550 C2555 1.363 . S
C2551 H2522 0.950 . S
C2551 C2550 1.397 . S
C2551 C2552 1.334 . S
C2552 H2523 0.950 . S
C2552 C2551 1.334 . S
C2552 C2553 1.287 . S
C2553 C2552 1.287 . S
C2553 C2554 1.524 . S
C2553 H2556 0.999 . S
C2554 H2524 0.950 . S
C2554 C2553 1.524 . S
C2554 C2555 1.415 . S
C2555 H2525 0.950 . S
C2555 C2550 1.363 . S
C2555 C2554 1.415 . S
H2556 C2553 0.999 . S
H2557 C2538 0.913 . S
H2558 C2576 0.951 . S
H2559 C2578 0.951 . S
H2560 C2580 0.950 . S
H2561 C2581 0.950 . S
H2562 C2583 0.950 . S
H2563 C2586 0.950 . S
H2564 C2587 0.950 . S
H2565 C2589 0.950 . S
H2566 C2590 0.950 . S
H2567 C2591 0.951 . S
H2568 C2593 0.951 . S
H2569 C2595 0.950 . S
H2570 C2596 0.950 . S
H2571 C2598 0.950 . S
H2572 C2601 0.950 . S
H2573 C2602 0.950 . S
H2574 C2604 0.950 . S
H2575 C2605 0.950 . S
C2576 H2558 0.951 . S
C2576 C2577 1.366 . S
C2576 C2578 1.388 . S
C2577 C2576 1.366 . S
C2577 C2581 1.385 . S
C2578 H2559 0.951 . S
C2578 C2576 1.388 . S
C2578 C2579 1.366 . S
C2579 C2578 1.366 . S
C2579 C2580 1.414 . S
C2579 C2582 1.499 . S
C2580 H2560 0.950 . S
C2580 C2579 1.414 . S
C2580 C2581 1.374 . S
C2581 H2561 0.950 . S
C2581 C2577 1.385 . S
C2581 C2580 1.374 . S
C2582 C2579 1.499 . S
C2582 C2583 1.373 . S
C2582 C2584 1.389 . S
C2583 H2562 0.950 . S
C2583 C2582 1.373 . S
C2583 C2599 1.377 . S
C2584 C2582 1.389 . S
C2584 C2585 1.524 . S
C2584 C2598 1.377 . S
C2585 C2584 1.524 . S
C2585 C2586 1.397 . S
C2585 C2590 1.363 . S
C2586 H2563 0.950 . S
C2586 C2585 1.397 . S
C2586 C2587 1.334 . S
C2587 H2564 0.950 . S
C2587 C2586 1.334 . S
C2587 C2588 1.287 . S
C2588 C2587 1.287 . S
C2588 C2589 1.524 . S
C2588 H2607 0.913 . S
C2589 H2565 0.950 . S
C2589 C2588 1.524 . S
C2589 C2590 1.415 . S
C2590 H2566 0.950 . S
C2590 C2585 1.363 . S
C2590 C2589 1.415 . S
C2591 H2567 0.951 . S
C2591 C2592 1.366 . S
C2591 C2593 1.388 . S
C2592 C2591 1.366 . S
C2592 C2596 1.385 . S
C2593 H2568 0.951 . S
C2593 C2591 1.388 . S
C2593 C2594 1.366 . S
C2594 C2593 1.366 . S
C2594 C2595 1.414 . S
C2594 C2597 1.499 . S
C2595 H2569 0.950 . S
C2595 C2594 1.414 . S
C2595 C2596 1.374 . S
C2596 H2570 0.950 . S
C2596 C2592 1.385 . S
C2596 C2595 1.374 . S
C2597 C2594 1.499 . S
C2597 C2598 1.373 . S
C2597 C2599 1.389 . S
C2598 H2571 0.950 . S
C2598 C2584 1.377 . S
C2598 C2597 1.373 . S
C2599 C2583 1.377 . S
C2599 C2597 1.389 . S
C2599 C2600 1.524 . S
C2600 C2599 1.524 . S
C2600 C2601 1.397 . S
C2600 C2605 1.363 . S
C2601 H2572 0.950 . S
C2601 C2600 1.397 . S
C2601 C2602 1.334 . S
C2602 H2573 0.950 . S
C2602 C2601 1.334 . S
C2602 C2603 1.287 . S
C2603 C2602 1.287 . S
C2603 C2604 1.524 . S
C2603 H2606 0.999 . S
C2604 H2574 0.950 . S
C2604 C2603 1.524 . S
C2604 C2605 1.415 . S
C2605 H2575 0.950 . S
C2605 C2600 1.363 . S
C2605 C2604 1.415 . S
H2606 C2603 0.999 . S
H2607 C2588 0.913 . S
H2608 C2626 0.951 . S
H2609 C2628 0.951 . S
H2610 C2630 0.950 . S
H2611 C2631 0.950 . S
H2612 C2633 0.950 . S
H2613 C2636 0.950 . S
H2614 C2637 0.950 . S
H2615 C2639 0.950 . S
H2616 C2640 0.950 . S
H2617 C2641 0.951 . S
H2618 C2643 0.951 . S
H2619 C2645 0.950 . S
H2620 C2646 0.950 . S
H2621 C2648 0.950 . S
H2622 C2651 0.950 . S
H2623 C2652 0.950 . S
H2624 C2654 0.950 . S
H2625 C2655 0.950 . S
C2626 H2608 0.951 . S
C2626 C2627 1.366 . S
C2626 C2628 1.388 . S
C2627 C2626 1.366 . S
C2627 C2631 1.385 . S
C2628 H2609 0.951 . S
C2628 C2626 1.388 . S
C2628 C2629 1.366 . S
C2629 C2628 1.366 . S
C2629 C2630 1.414 . S
C2629 C2632 1.499 . S
C2630 H2610 0.950 . S
C2630 C2629 1.414 . S
C2630 C2631 1.374 . S
C2631 H2611 0.950 . S
C2631 C2627 1.385 . S
C2631 C2630 1.374 . S
C2632 C2629 1.499 . S
C2632 C2633 1.373 . S
C2632 C2634 1.389 . S
C2633 H2612 0.950 . S
C2633 C2632 1.373 . S
C2633 C2649 1.377 . S
C2634 C2632 1.389 . S
C2634 C2635 1.524 . S
C2634 C2648 1.377 . S
C2635 C2634 1.524 . S
C2635 C2636 1.397 . S
C2635 C2640 1.363 . S
C2636 H2613 0.950 . S
C2636 C2635 1.397 . S
C2636 C2637 1.334 . S
C2637 H2614 0.950 . S
C2637 C2636 1.334 . S
C2637 C2638 1.287 . S
C2638 C2637 1.287 . S
C2638 C2639 1.524 . S
C2638 H2657 0.913 . S
C2639 H2615 0.950 . S
C2639 C2638 1.524 . S
C2639 C2640 1.415 . S
C2640 H2616 0.950 . S
C2640 C2635 1.363 . S
C2640 C2639 1.415 . S
C2641 H2617 0.951 . S
C2641 C2642 1.366 . S
C2641 C2643 1.388 . S
C2642 C2641 1.366 . S
C2642 C2646 1.385 . S
C2643 H2618 0.951 . S
C2643 C2641 1.388 . S
C2643 C2644 1.366 . S
C2644 C2643 1.366 . S
C2644 C2645 1.414 . S
C2644 C2647 1.499 . S
C2645 H2619 0.950 . S
C2645 C2644 1.414 . S
C2645 C2646 1.374 . S
C2646 H2620 0.950 . S
C2646 C2642 1.385 . S
C2646 C2645 1.374 . S
C2647 C2644 1.499 . S
C2647 C2648 1.373 . S
C2647 C2649 1.389 . S
C2648 H2621 0.950 . S
C2648 C2634 1.377 . S
C2648 C2647 1.373 . S
C2649 C2633 1.377 . S
C2649 C2647 1.389 . S
C2649 C2650 1.524 . S
C2650 C2649 1.524 . S
C2650 C2651 1.397 . S
C2650 C2655 1.363 . S
C2651 H2622 0.950 . S
C2651 C2650 1.397 . S
C2651 C2652 1.334 . S
C2652 H2623 0.950 . S
C2652 C2651 1.334 . S
C2652 C2653 1.287 . S
C2653 C2652 1.287 . S
C2653 C2654 1.524 . S
C2653 H2656 0.999 . S
C2654 H2624 0.950 . S
C2654 C2653 1.524 . S
C2654 C2655 1.415 . S
C2655 H2625 0.950 . S
C2655 C2650 1.363 . S
C2655 C2654 1.415 . S
H2656 C2653 0.999 . S
H2657 C2638 0.913 . S
H2658 C2676 0.951 . S
H2659 C2678 0.951 . S
H2660 C2680 0.950 . S
H2661 C2681 0.950 . S
H2662 C2683 0.950 . S
H2663 C2686 0.950 . S
H2664 C2687 0.950 . S
H2665 C2689 0.950 . S
H2666 C2690 0.950 . S
H2667 C2691 0.951 . S
H2668 C2693 0.951 . S
H2669 C2695 0.950 . S
H2670 C2696 0.950 . S
H2671 C2698 0.950 . S
H2672 C2701 0.950 . S
H2673 C2702 0.950 . S
H2674 C2704 0.950 . S
H2675 C2705 0.950 . S
C2676 H2658 0.951 . S
C2676 C2677 1.366 . S
C2676 C2678 1.388 . S
C2677 C2676 1.366 . S
C2677 C2681 1.385 . S
C2678 H2659 0.951 . S
C2678 C2676 1.388 . S
C2678 C2679 1.366 . S
C2679 C2678 1.366 . S
C2679 C2680 1.414 . S
C2679 C2682 1.499 . S
C2680 H2660 0.950 . S
C2680 C2679 1.414 . S
C2680 C2681 1.374 . S
C2681 H2661 0.950 . S
C2681 C2677 1.385 . S
C2681 C2680 1.374 . S
C2682 C2679 1.499 . S
C2682 C2683 1.373 . S
C2682 C2684 1.389 . S
C2683 H2662 0.950 . S
C2683 C2682 1.373 . S
C2683 C2699 1.377 . S
C2684 C2682 1.389 . S
C2684 C2685 1.524 . S
C2684 C2698 1.377 . S
C2685 C2684 1.524 . S
C2685 C2686 1.397 . S
C2685 C2690 1.363 . S
C2686 H2663 0.950 . S
C2686 C2685 1.397 . S
C2686 C2687 1.334 . S
C2687 H2664 0.950 . S
C2687 C2686 1.334 . S
C2687 C2688 1.287 . S
C2688 C2687 1.287 . S
C2688 C2689 1.524 . S
C2688 H2707 0.913 . S
C2689 H2665 0.950 . S
C2689 C2688 1.524 . S
C2689 C2690 1.415 . S
C2690 H2666 0.950 . S
C2690 C2685 1.363 . S
C2690 C2689 1.415 . S
C2691 H2667 0.951 . S
C2691 C2692 1.366 . S
C2691 C2693 1.388 . S
C2692 C2691 1.366 . S
C2692 C2696 1.385 . S
C2693 H2668 0.951 . S
C2693 C2691 1.388 . S
C2693 C2694 1.366 . S
C2694 C2693 1.366 . S
C2694 C2695 1.414 . S
C2694 C2697 1.499 . S
C2695 H2669 0.950 . S
C2695 C2694 1.414 . S
C2695 C2696 1.374 . S
C2696 H2670 0.950 . S
C2696 C2692 1.385 . S
C2696 C2695 1.374 . S
C2697 C2694 1.499 . S
C2697 C2698 1.373 . S
C2697 C2699 1.389 . S
C2698 H2671 0.950 . S
C2698 C2684 1.377 . S
C2698 C2697 1.373 . S
C2699 C2683 1.377 . S
C2699 C2697 1.389 . S
C2699 C2700 1.524 . S
C2700 C2699 1.524 . S
C2700 C2701 1.397 . S
C2700 C2705 1.363 . S
C2701 H2672 0.950 . S
C2701 C2700 1.397 . S
C2701 C2702 1.334 . S
C2702 H2673 0.950 . S
C2702 C2701 1.334 . S
C2702 C2703 1.287 . S
C2703 C2702 1.287 . S
C2703 C2704 1.524 . S
C2703 H2706 0.999 . S
C2704 H2674 0.950 . S
C2704 C2703 1.524 . S
C2704 C2705 1.415 . S
C2705 H2675 0.950 . S
C2705 C2700 1.363 . S
C2705 C2704 1.415 . S
H2706 C2703 0.999 . S
H2707 C2688 0.913 . S
H2708 C2726 0.951 . S
H2709 C2728 0.951 . S
H2710 C2730 0.950 . S
H2711 C2731 0.950 . S
H2712 C2733 0.950 . S
H2713 C2736 0.950 . S
H2714 C2737 0.950 . S
H2715 C2739 0.950 . S
H2716 C2740 0.950 . S
H2717 C2741 0.951 . S
H2718 C2743 0.951 . S
H2719 C2745 0.950 . S
H2720 C2746 0.950 . S
H2721 C2748 0.950 . S
H2722 C2751 0.950 . S
H2723 C2752 0.950 . S
H2724 C2754 0.950 . S
H2725 C2755 0.950 . S
C2726 H2708 0.951 . S
C2726 C2727 1.366 . S
C2726 C2728 1.388 . S
C2727 C2726 1.366 . S
C2727 C2731 1.385 . S
C2728 H2709 0.951 . S
C2728 C2726 1.388 . S
C2728 C2729 1.366 . S
C2729 C2728 1.366 . S
C2729 C2730 1.414 . S
C2729 C2732 1.499 . S
C2730 H2710 0.950 . S
C2730 C2729 1.414 . S
C2730 C2731 1.374 . S
C2731 H2711 0.950 . S
C2731 C2727 1.385 . S
C2731 C2730 1.374 . S
C2732 C2729 1.499 . S
C2732 C2733 1.373 . S
C2732 C2734 1.389 . S
C2733 H2712 0.950 . S
C2733 C2732 1.373 . S
C2733 C2749 1.377 . S
C2734 C2732 1.389 . S
C2734 C2735 1.524 . S
C2734 C2748 1.377 . S
C2735 C2734 1.524 . S
C2735 C2736 1.397 . S
C2735 C2740 1.363 . S
C2736 H2713 0.950 . S
C2736 C2735 1.397 . S
C2736 C2737 1.334 . S
C2737 H2714 0.950 . S
C2737 C2736 1.334 . S
C2737 C2738 1.287 . S
C2738 C2737 1.287 . S
C2738 C2739 1.524 . S
C2738 H2757 0.913 . S
C2739 H2715 0.950 . S
C2739 C2738 1.524 . S
C2739 C2740 1.415 . S
C2740 H2716 0.950 . S
C2740 C2735 1.363 . S
C2740 C2739 1.415 . S
C2741 H2717 0.951 . S
C2741 C2742 1.366 . S
C2741 C2743 1.388 . S
C2742 C2741 1.366 . S
C2742 C2746 1.385 . S
C2743 H2718 0.951 . S
C2743 C2741 1.388 . S
C2743 C2744 1.366 . S
C2744 C2743 1.366 . S
C2744 C2745 1.414 . S
C2744 C2747 1.499 . S
C2745 H2719 0.950 . S
C2745 C2744 1.414 . S
C2745 C2746 1.374 . S
C2746 H2720 0.950 . S
C2746 C2742 1.385 . S
C2746 C2745 1.374 . S
C2747 C2744 1.499 . S
C2747 C2748 1.373 . S
C2747 C2749 1.389 . S
C2748 H2721 0.950 . S
C2748 C2734 1.377 . S
C2748 C2747 1.373 . S
C2749 C2733 1.377 . S
C2749 C2747 1.389 . S
C2749 C2750 1.524 . S
C2750 C2749 1.524 . S
C2750 C2751 1.397 . S
C2750 C2755 1.363 . S
C2751 H2722 0.950 . S
C2751 C2750 1.397 . S
C2751 C2752 1.334 . S
C2752 H2723 0.950 . S
C2752 C2751 1.334 . S
C2752 C2753 1.287 . S
C2753 C2752 1.287 . S
C2753 C2754 1.524 . S
C2753 H2756 0.999 . S
C2754 H2724 0.950 . S
C2754 C2753 1.524 . S
C2754 C2755 1.415 . S
C2755 H2725 0.950 . S
C2755 C2750 1.363 . S
C2755 C2754 1.415 . S
H2756 C2753 0.999 . S
H2757 C2738 0.913 . S
H2758 C2776 0.951 . S
H2759 C2778 0.951 . S
H2760 C2780 0.950 . S
H2761 C2781 0.950 . S
H2762 C2783 0.950 . S
H2763 C2786 0.950 . S
H2764 C2787 0.950 . S
H2765 C2789 0.950 . S
H2766 C2790 0.950 . S
H2767 C2791 0.951 . S
H2768 C2793 0.951 . S
H2769 C2795 0.950 . S
H2770 C2796 0.950 . S
H2771 C2798 0.950 . S
H2772 C2801 0.950 . S
H2773 C2802 0.950 . S
H2774 C2804 0.950 . S
H2775 C2805 0.950 . S
C2776 H2758 0.951 . S
C2776 C2777 1.366 . S
C2776 C2778 1.388 . S
C2777 C2776 1.366 . S
C2777 C2781 1.385 . S
C2778 H2759 0.951 . S
C2778 C2776 1.388 . S
C2778 C2779 1.366 . S
C2779 C2778 1.366 . S
C2779 C2780 1.414 . S
C2779 C2782 1.499 . S
C2780 H2760 0.950 . S
C2780 C2779 1.414 . S
C2780 C2781 1.374 . S
C2781 H2761 0.950 . S
C2781 C2777 1.385 . S
C2781 C2780 1.374 . S
C2782 C2779 1.499 . S
C2782 C2783 1.373 . S
C2782 C2784 1.389 . S
C2783 H2762 0.950 . S
C2783 C2782 1.373 . S
C2783 C2799 1.377 . S
C2784 C2782 1.389 . S
C2784 C2785 1.524 . S
C2784 C2798 1.377 . S
C2785 C2784 1.524 . S
C2785 C2786 1.397 . S
C2785 C2790 1.363 . S
C2786 H2763 0.950 . S
C2786 C2785 1.397 . S
C2786 C2787 1.334 . S
C2787 H2764 0.950 . S
C2787 C2786 1.334 . S
C2787 C2788 1.287 . S
C2788 C2787 1.287 . S
C2788 C2789 1.524 . S
C2788 H2807 0.913 . S
C2789 H2765 0.950 . S
C2789 C2788 1.524 . S
C2789 C2790 1.415 . S
C2790 H2766 0.950 . S
C2790 C2785 1.363 . S
C2790 C2789 1.415 . S
C2791 H2767 0.951 . S
C2791 C2792 1.366 . S
C2791 C2793 1.388 . S
C2792 C2791 1.366 . S
C2792 C2796 1.385 . S
C2793 H2768 0.951 . S
C2793 C2791 1.388 . S
C2793 C2794 1.366 . S
C2794 C2793 1.366 . S
C2794 C2795 1.414 . S
C2794 C2797 1.499 . S
C2795 H2769 0.950 . S
C2795 C2794 1.414 . S
C2795 C2796 1.374 . S
C2796 H2770 0.950 . S
C2796 C2792 1.385 . S
C2796 C2795 1.374 . S
C2797 C2794 1.499 . S
C2797 C2798 1.373 . S
C2797 C2799 1.389 . S
C2798 H2771 0.950 . S
C2798 C2784 1.377 . S
C2798 C2797 1.373 . S
C2799 C2783 1.377 . S
C2799 C2797 1.389 . S
C2799 C2800 1.524 . S
C2800 C2799 1.524 . S
C2800 C2801 1.397 . S
C2800 C2805 1.363 . S
C2801 H2772 0.950 . S
C2801 C2800 1.397 . S
C2801 C2802 1.334 . S
C2802 H2773 0.950 . S
C2802 C2801 1.334 . S
C2802 C2803 1.287 . S
C2803 C2802 1.287 . S
C2803 C2804 1.524 . S
C2803 H2806 0.999 . S
C2804 H2774 0.950 . S
C2804 C2803 1.524 . S
C2804 C2805 1.415 . S
C2805 H2775 0.950 . S
C2805 C2800 1.363 . S
C2805 C2804 1.415 . S
H2806 C2803 0.999 . S
H2807 C2788 0.913 . S
C1027 C74 0.919 . S
C1042 C746 0.920 . S
C1077 C158 0.919 . S
C1092 C830 0.920 . S
C1127 C242 0.919 . S
C1142 C914 0.919 . S
C1177 C998 0.919 . S
C1192 C326 0.919 . S
C1227 C410 0.919 . S
C1242 C578 0.919 . S
C1277 C662 0.920 . S
C1292 C494 0.920 . S
C1327 C910 1.357 . S
C1342 C70 1.358 . S
C1377 C994 1.358 . S
C1392 C154 1.357 . S
C1427 C238 1.357 . S
C1442 C574 1.358 . S
C1477 C658 1.356 . S
C1492 C322 1.357 . S
C1527 C742 1.356 . S
C1542 C406 1.357 . S
C1577 C490 1.357 . S
C1592 C826 1.358 . S
C1627 C655 4.620 . S
C1642 C67 4.620 . S
C1677 C739 4.620 . S
C1692 C151 4.620 . S
C1727 C823 4.620 . S
C1742 C235 4.620 . S
C1777 C319 4.620 . S
C1792 C907 4.620 . S
C1827 C403 4.620 . S
C1842 C991 4.621 . S
C1877 C487 4.620 . S
C1892 C571 4.620 . S
C1927 C63 0.766 . S
C1942 C315 0.763 . S
C1977 C147 0.766 . S
C1992 C399 0.763 . S
C2027 C231 0.766 . S
C2042 C483 0.763 . S
C2077 C819 0.763 . S
C2092 C567 0.766 . S
C2127 C651 0.766 . S
C2142 C903 0.763 . S
C2177 C987 0.765 . S
C2192 C735 0.764 . S
C2227 C646 0.950 . S
C2242 C58 0.949 . S
C2277 C730 0.951 . S
C2292 C142 0.949 . S
C2327 C226 0.949 . S
C2342 C814 0.950 . S
C2377 C898 0.949 . S
C2392 C310 0.950 . S
C2427 C982 0.951 . S
C2442 C394 0.949 . S
C2477 C478 0.951 . S
C2492 C562 0.949 . S
C2527 C56 3.488 . S
C2542 C896 3.488 . S
C2577 C140 3.488 . S
C2592 C980 3.488 1_556 S
C2627 C224 3.488 1_554 S
C2642 C560 3.488 . S
C2677 C308 3.488 . S
C2692 C644 3.488 . S
C2727 C392 3.488 . S
C2742 C728 3.488 1_556 S
C2777 C812 3.488 . S
C2792 C476 3.488 1_554 S
