# Generated by pormake.
# Topology umn, (4)-cn, num edge types: 1
# Building blocks:
#     Node 0, Type 0, BuildingBlock: CEKHIL_clean_sbu_0, # of connection points: 4
#     Node 1, Type 0, BuildingBlock: CEKHIL_clean_sbu_0, # of connection points: 4
#     Node 2, Type 0, BuildingBlock: CEKHIL_clean_sbu_0, # of connection points: 4
#     Node 3, Type 0, BuildingBlock: CEKHIL_clean_sbu_0, # of connection points: 4
#     Node 4, Type 0, BuildingBlock: CEKHIL_clean_sbu_0, # of connection points: 4
#     Node 5, Type 0, BuildingBlock: CEKHIL_clean_sbu_0, # of connection points: 4
#     Node 6, Type 0, BuildingBlock: CEKHIL_clean_sbu_0, # of connection points: 4
#     Node 7, Type 0, BuildingBlock: CEKHIL_clean_sbu_0, # of connection points: 4
#     Node 8, Type 0, BuildingBlock: CEKHIL_clean_sbu_0, # of connection points: 4
#     Node 9, Type 0, BuildingBlock: CEKHIL_clean_sbu_0, # of connection points: 4
#     Node 10, Type 0, BuildingBlock: CEKHIL_clean_sbu_0, # of connection points: 4
#     Node 11, Type 0, BuildingBlock: CEKHIL_clean_sbu_0, # of connection points: 4
#     Node 12, Type 0, BuildingBlock: CEKHIL_clean_sbu_0, # of connection points: 4
#     Node 13, Type 0, BuildingBlock: CEKHIL_clean_sbu_0, # of connection points: 4
#     Node 14, Type 0, BuildingBlock: CEKHIL_clean_sbu_0, # of connection points: 4
#     Node 15, Type 0, BuildingBlock: CEKHIL_clean_sbu_0, # of connection points: 4
#     Node 16, Type 0, BuildingBlock: CEKHIL_clean_sbu_0, # of connection points: 4
#     Node 17, Type 0, BuildingBlock: CEKHIL_clean_sbu_0, # of connection points: 4
#     Node 18, Type 0, BuildingBlock: CEKHIL_clean_sbu_0, # of connection points: 4
#     Node 19, Type 0, BuildingBlock: CEKHIL_clean_sbu_0, # of connection points: 4
#     Node 20, Type 0, BuildingBlock: CEKHIL_clean_sbu_0, # of connection points: 4
#     Node 21, Type 0, BuildingBlock: CEKHIL_clean_sbu_0, # of connection points: 4
#     Node 22, Type 0, BuildingBlock: CEKHIL_clean_sbu_0, # of connection points: 4
#     Node 23, Type 0, BuildingBlock: CEKHIL_clean_sbu_0, # of connection points: 4
#     Node 24, Type 0, BuildingBlock: CEKHIL_clean_sbu_0, # of connection points: 4
#     Node 25, Type 0, BuildingBlock: CEKHIL_clean_sbu_0, # of connection points: 4
#     Node 26, Type 0, BuildingBlock: CEKHIL_clean_sbu_0, # of connection points: 4
#     Node 27, Type 0, BuildingBlock: CEKHIL_clean_sbu_0, # of connection points: 4
#     Node 28, Type 0, BuildingBlock: CEKHIL_clean_sbu_0, # of connection points: 4
#     Node 29, Type 0, BuildingBlock: CEKHIL_clean_sbu_0, # of connection points: 4
#     Node 30, Type 0, BuildingBlock: CEKHIL_clean_sbu_0, # of connection points: 4
#     Node 31, Type 0, BuildingBlock: CEKHIL_clean_sbu_0, # of connection points: 4
#     Node 32, Type 0, BuildingBlock: CEKHIL_clean_sbu_0, # of connection points: 4
#     Node 33, Type 0, BuildingBlock: CEKHIL_clean_sbu_0, # of connection points: 4
#     Node 34, Type 0, BuildingBlock: CEKHIL_clean_sbu_0, # of connection points: 4
#     Node 35, Type 0, BuildingBlock: CEKHIL_clean_sbu_0, # of connection points: 4
#     Edge 36, Type (0, 0), BuildingBlock: TEMPAE_clean_linker_10, # of connection points: 2
#     Edge 37, Type (0, 0), BuildingBlock: TEMPAE_clean_linker_10, # of connection points: 2
#     Edge 38, Type (0, 0), BuildingBlock: TEMPAE_clean_linker_10, # of connection points: 2
#     Edge 39, Type (0, 0), BuildingBlock: TEMPAE_clean_linker_10, # of connection points: 2
#     Edge 40, Type (0, 0), BuildingBlock: TEMPAE_clean_linker_10, # of connection points: 2
#     Edge 41, Type (0, 0), BuildingBlock: TEMPAE_clean_linker_10, # of connection points: 2
#     Edge 42, Type (0, 0), BuildingBlock: TEMPAE_clean_linker_10, # of connection points: 2
#     Edge 43, Type (0, 0), BuildingBlock: TEMPAE_clean_linker_10, # of connection points: 2
#     Edge 44, Type (0, 0), BuildingBlock: TEMPAE_clean_linker_10, # of connection points: 2
#     Edge 45, Type (0, 0), BuildingBlock: TEMPAE_clean_linker_10, # of connection points: 2
#     Edge 46, Type (0, 0), BuildingBlock: TEMPAE_clean_linker_10, # of connection points: 2
#     Edge 47, Type (0, 0), BuildingBlock: TEMPAE_clean_linker_10, # of connection points: 2
#     Edge 48, Type (0, 0), BuildingBlock: TEMPAE_clean_linker_10, # of connection points: 2
#     Edge 49, Type (0, 0), BuildingBlock: TEMPAE_clean_linker_10, # of connection points: 2
#     Edge 50, Type (0, 0), BuildingBlock: TEMPAE_clean_linker_10, # of connection points: 2
#     Edge 51, Type (0, 0), BuildingBlock: TEMPAE_clean_linker_10, # of connection points: 2
#     Edge 52, Type (0, 0), BuildingBlock: TEMPAE_clean_linker_10, # of connection points: 2
#     Edge 53, Type (0, 0), BuildingBlock: TEMPAE_clean_linker_10, # of connection points: 2
#     Edge 54, Type (0, 0), BuildingBlock: TEMPAE_clean_linker_10, # of connection points: 2
#     Edge 55, Type (0, 0), BuildingBlock: TEMPAE_clean_linker_10, # of connection points: 2
#     Edge 56, Type (0, 0), BuildingBlock: TEMPAE_clean_linker_10, # of connection points: 2
#     Edge 57, Type (0, 0), BuildingBlock: TEMPAE_clean_linker_10, # of connection points: 2
#     Edge 58, Type (0, 0), BuildingBlock: TEMPAE_clean_linker_10, # of connection points: 2
#     Edge 59, Type (0, 0), BuildingBlock: TEMPAE_clean_linker_10, # of connection points: 2
#     Edge 60, Type (0, 0), BuildingBlock: TEMPAE_clean_linker_10, # of connection points: 2
#     Edge 61, Type (0, 0), BuildingBlock: TEMPAE_clean_linker_10, # of connection points: 2
#     Edge 62, Type (0, 0), BuildingBlock: TEMPAE_clean_linker_10, # of connection points: 2
#     Edge 63, Type (0, 0), BuildingBlock: TEMPAE_clean_linker_10, # of connection points: 2
#     Edge 64, Type (0, 0), BuildingBlock: TEMPAE_clean_linker_10, # of connection points: 2
#     Edge 65, Type (0, 0), BuildingBlock: TEMPAE_clean_linker_10, # of connection points: 2
#     Edge 66, Type (0, 0), BuildingBlock: TEMPAE_clean_linker_10, # of connection points: 2
#     Edge 67, Type (0, 0), BuildingBlock: TEMPAE_clean_linker_10, # of connection points: 2
#     Edge 68, Type (0, 0), BuildingBlock: TEMPAE_clean_linker_10, # of connection points: 2
#     Edge 69, Type (0, 0), BuildingBlock: TEMPAE_clean_linker_10, # of connection points: 2
#     Edge 70, Type (0, 0), BuildingBlock: TEMPAE_clean_linker_10, # of connection points: 2
#     Edge 71, Type (0, 0), BuildingBlock: TEMPAE_clean_linker_10, # of connection points: 2
#     Edge 72, Type (0, 0), BuildingBlock: TEMPAE_clean_linker_10, # of connection points: 2
#     Edge 73, Type (0, 0), BuildingBlock: TEMPAE_clean_linker_10, # of connection points: 2
#     Edge 74, Type (0, 0), BuildingBlock: TEMPAE_clean_linker_10, # of connection points: 2
#     Edge 75, Type (0, 0), BuildingBlock: TEMPAE_clean_linker_10, # of connection points: 2
#     Edge 76, Type (0, 0), BuildingBlock: TEMPAE_clean_linker_10, # of connection points: 2
#     Edge 77, Type (0, 0), BuildingBlock: TEMPAE_clean_linker_10, # of connection points: 2
#     Edge 78, Type (0, 0), BuildingBlock: TEMPAE_clean_linker_10, # of connection points: 2
#     Edge 79, Type (0, 0), BuildingBlock: TEMPAE_clean_linker_10, # of connection points: 2
#     Edge 80, Type (0, 0), BuildingBlock: TEMPAE_clean_linker_10, # of connection points: 2
#     Edge 81, Type (0, 0), BuildingBlock: TEMPAE_clean_linker_10, # of connection points: 2
#     Edge 82, Type (0, 0), BuildingBlock: TEMPAE_clean_linker_10, # of connection points: 2
#     Edge 83, Type (0, 0), BuildingBlock: TEMPAE_clean_linker_10, # of connection points: 2
#     Edge 84, Type (0, 0), BuildingBlock: TEMPAE_clean_linker_10, # of connection points: 2
#     Edge 85, Type (0, 0), BuildingBlock: TEMPAE_clean_linker_10, # of connection points: 2
#     Edge 86, Type (0, 0), BuildingBlock: TEMPAE_clean_linker_10, # of connection points: 2
#     Edge 87, Type (0, 0), BuildingBlock: TEMPAE_clean_linker_10, # of connection points: 2
#     Edge 88, Type (0, 0), BuildingBlock: TEMPAE_clean_linker_10, # of connection points: 2
#     Edge 89, Type (0, 0), BuildingBlock: TEMPAE_clean_linker_10, # of connection points: 2
#     Edge 90, Type (0, 0), BuildingBlock: TEMPAE_clean_linker_10, # of connection points: 2
#     Edge 91, Type (0, 0), BuildingBlock: TEMPAE_clean_linker_10, # of connection points: 2
#     Edge 92, Type (0, 0), BuildingBlock: TEMPAE_clean_linker_10, # of connection points: 2
#     Edge 93, Type (0, 0), BuildingBlock: TEMPAE_clean_linker_10, # of connection points: 2
#     Edge 94, Type (0, 0), BuildingBlock: TEMPAE_clean_linker_10, # of connection points: 2
#     Edge 95, Type (0, 0), BuildingBlock: TEMPAE_clean_linker_10, # of connection points: 2
#     Edge 96, Type (0, 0), BuildingBlock: TEMPAE_clean_linker_10, # of connection points: 2
#     Edge 97, Type (0, 0), BuildingBlock: TEMPAE_clean_linker_10, # of connection points: 2
#     Edge 98, Type (0, 0), BuildingBlock: TEMPAE_clean_linker_10, # of connection points: 2
#     Edge 99, Type (0, 0), BuildingBlock: TEMPAE_clean_linker_10, # of connection points: 2
#     Edge 100, Type (0, 0), BuildingBlock: TEMPAE_clean_linker_10, # of connection points: 2
#     Edge 101, Type (0, 0), BuildingBlock: TEMPAE_clean_linker_10, # of connection points: 2
#     Edge 102, Type (0, 0), BuildingBlock: TEMPAE_clean_linker_10, # of connection points: 2
#     Edge 103, Type (0, 0), BuildingBlock: TEMPAE_clean_linker_10, # of connection points: 2
#     Edge 104, Type (0, 0), BuildingBlock: TEMPAE_clean_linker_10, # of connection points: 2
#     Edge 105, Type (0, 0), BuildingBlock: TEMPAE_clean_linker_10, # of connection points: 2
#     Edge 106, Type (0, 0), BuildingBlock: TEMPAE_clean_linker_10, # of connection points: 2
#     Edge 107, Type (0, 0), BuildingBlock: TEMPAE_clean_linker_10, # of connection points: 2
# Relax obj value: 0.180
# Max RMSD: 0.212
# Mean RMSD: 0.212
data_MOF--net-umn--node1-CEKHIL_clean_sbu_0--edge1-TEMPAE_clean_linker_10
_symmetry_space_group_name_H-M    P1
_symmetry_Int_Tables_number       1
_symmetry_cell_setting            triclinic
loop_
_symmetry_equiv_pos_as_xyz
'x, y, z'
_cell_length_a     82.691972
_cell_length_b     82.65359
_cell_length_c     36.5369
_cell_angle_alpha  90.009256
_cell_angle_beta   89.970816
_cell_angle_gamma 119.99297
loop_
_atom_site_label
_atom_site_type_symbol
_atom_site_fract_x
_atom_site_fract_y
_atom_site_fract_z
_atom_type_partial_charge
Co0 Co 0.36398 0.10345 0.2275 0.0
O1 O 0.36652 0.12776 0.22387 0.0
O2 O 0.33993 0.10081 0.21794 0.0
C3 C 0.38767 0.10815 0.18986 0.0
O4 O 0.35622 0.07604 0.22844 0.0
Co5 Co 0.39449 0.09935 0.26653 0.0
O6 O 0.38066 0.07351 0.24776 0.0
C7 C 0.36599 0.10099 0.31179 0.0
C8 C 0.34867 0.11896 0.21762 0.0
C9 C 0.36415 0.06638 0.23515 0.0
O10 O 0.35887 0.10271 0.28182 0.0
O11 O 0.38104 0.10014 0.31228 0.0
O12 O 0.37164 0.1047 0.17723 0.0
O13 O 0.39 0.11146 0.22496 0.0
Co14 Co 0.89039 0.25701 0.22949 0.0
O15 O 0.86418 0.24011 0.22288 0.0
O16 O 0.886 0.23194 0.2264 0.0
C17 C 0.89311 0.27794 0.18641 0.0
O18 O 0.91848 0.27012 0.23443 0.0
Co19 Co 0.90527 0.29663 0.25832 0.0
O20 O 0.92933 0.30091 0.23818 0.0
C21 C 0.89486 0.26591 0.31127 0.0
C22 C 0.86858 0.22707 0.2217 0.0
C23 C 0.93192 0.28708 0.2344 0.0
O24 O 0.88819 0.25436 0.28441 0.0
O25 O 0.90201 0.28357 0.30692 0.0
O26 O 0.89304 0.2627 0.17779 0.0
O27 O 0.88947 0.27929 0.22058 0.0
Co28 Co 0.72812 0.6257 0.23184 0.0
O29 O 0.74782 0.62123 0.21785 0.0
O30 O 0.75073 0.64928 0.22505 0.0
C31 C 0.7065 0.60559 0.1918 0.0
O32 O 0.71082 0.63562 0.24394 0.0
Co33 Co 0.69361 0.59497 0.26924 0.0
O34 O 0.68331 0.61171 0.26242 0.0
C35 C 0.7253 0.62068 0.31523 0.0
C36 C 0.75823 0.63925 0.2162 0.0
C37 C 0.69376 0.62881 0.25395 0.0
O38 O 0.73474 0.627 0.28552 0.0
O39 O 0.70834 0.60733 0.3151 0.0
O40 O 0.71935 0.62214 0.18207 0.0
O41 O 0.70841 0.60039 0.22449 0.0
Co42 Co 0.10478 0.36823 0.28824 0.0
O43 O 0.13152 0.37998 0.28968 0.0
O44 O 0.11183 0.34935 0.28983 0.0
C45 C 0.10193 0.38596 0.33222 0.0
O46 O 0.07675 0.35107 0.28872 0.0
Co47 Co 0.0853 0.38941 0.26303 0.0
O48 O 0.0637 0.36917 0.28932 0.0
C49 C 0.09576 0.37019 0.20767 0.0
C50 C 0.12892 0.36315 0.29133 0.0
C51 C 0.0626 0.35333 0.29279 0.0
O52 O 0.10437 0.36673 0.23307 0.0
O53 O 0.0875 0.37956 0.21363 0.0
O54 O 0.10425 0.37199 0.34037 0.0
O55 O 0.10363 0.39033 0.29765 0.0
Co56 Co 0.62415 0.73509 0.29296 0.0
O57 O 0.62017 0.75529 0.30579 0.0
O58 O 0.64795 0.75751 0.29841 0.0
C59 C 0.60419 0.71396 0.33393 0.0
O60 O 0.63359 0.71729 0.28183 0.0
Co61 Co 0.59263 0.70026 0.25711 0.0
O62 O 0.60941 0.68994 0.26317 0.0
C63 C 0.61804 0.73142 0.20966 0.0
C64 C 0.63823 0.76544 0.30652 0.0
C65 C 0.6265 0.7002 0.27178 0.0
O66 O 0.62513 0.74099 0.23895 0.0
O67 O 0.60436 0.71462 0.21057 0.0
O68 O 0.62076 0.72697 0.34321 0.0
O69 O 0.59889 0.71563 0.30119 0.0
Co70 Co 0.25678 0.89343 0.28926 0.0
O71 O 0.23678 0.87079 0.30871 0.0
O72 O 0.23506 0.89614 0.29539 0.0
C73 C 0.27888 0.89594 0.32929 0.0
O74 O 0.27479 0.91948 0.27075 0.0
Co75 Co 0.28905 0.8927 0.25186 0.0
O76 O 0.30041 0.92002 0.24867 0.0
C77 C 0.25692 0.88634 0.2071 0.0
C78 C 0.2271 0.87919 0.30819 0.0
C79 C 0.29117 0.92806 0.25643 0.0
O80 O 0.24837 0.88504 0.23726 0.0
O81 O 0.27359 0.88912 0.20653 0.0
O82 O 0.26706 0.9013 0.33746 0.0
O83 O 0.27568 0.88679 0.29854 0.0
Co84 Co 0.62339 0.88811 0.78795 0.0
O85 O 0.61405 0.86192 0.79491 0.0
O86 O 0.64405 0.88372 0.79245 0.0
C87 C 0.60479 0.89095 0.82956 0.0
O88 O 0.63817 0.91627 0.78271 0.0
Co89 Co 0.59854 0.90236 0.75669 0.0
O90 O 0.61758 0.92633 0.77848 0.0
C91 C 0.62014 0.89262 0.70583 0.0
C92 C 0.63143 0.86626 0.7968 0.0
C93 C 0.63413 0.92938 0.78287 0.0
O94 O 0.62446 0.88578 0.73322 0.0
O95 O 0.6095 0.89968 0.70907 0.0
O96 O 0.61987 0.89099 0.83932 0.0
O97 O 0.60004 0.88698 0.79538 0.0
Co98 Co 0.10144 0.73031 0.78619 0.0
O99 O 0.12668 0.75054 0.78975 0.0
O100 O 0.10131 0.75312 0.79568 0.0
C101 C 0.10425 0.71024 0.82398 0.0
O102 O 0.07348 0.71266 0.78508 0.0
Co103 Co 0.09387 0.69406 0.74838 0.0
O104 O 0.06808 0.68459 0.76577 0.0
C105 C 0.09774 0.72502 0.70244 0.0
C106 C 0.11941 0.761 0.79627 0.0
C107 C 0.06238 0.69532 0.77779 0.0
O108 O 0.10103 0.73468 0.73189 0.0
O109 O 0.09519 0.70841 0.70256 0.0
O110 O 0.10202 0.72362 0.83658 0.0
O111 O 0.10729 0.71074 0.78889 0.0
Co112 Co 0.2579 0.36605 0.79243 0.0
O113 O 0.23896 0.37148 0.80743 0.0
O114 O 0.23433 0.34307 0.79594 0.0
C115 C 0.27942 0.3838 0.83501 0.0
O116 O 0.27422 0.3552 0.77813 0.0
Co117 Co 0.29402 0.39748 0.75963 0.0
O118 O 0.30183 0.37855 0.75809 0.0
C119 C 0.26266 0.37439 0.71036 0.0
C120 C 0.22762 0.35359 0.80637 0.0
C121 C 0.29079 0.36143 0.76551 0.0
O122 O 0.25245 0.36736 0.73894 0.0
O123 O 0.27985 0.38712 0.71243 0.0
O124 O 0.26576 0.36726 0.84249 0.0
O125 O 0.27838 0.39043 0.80328 0.0
Co126 Co 0.88726 0.63024 0.7303 0.0
O127 O 0.86252 0.62549 0.72038 0.0
O128 O 0.88772 0.65367 0.7251 0.0
C129 C 0.8882 0.61056 0.68835 0.0
O130 O 0.91482 0.64033 0.73986 0.0
Co131 Co 0.89127 0.59849 0.7643 0.0
O132 O 0.91817 0.61695 0.7633 0.0
C133 C 0.88578 0.62358 0.8133 0.0
C134 C 0.86988 0.6435 0.71917 0.0
C135 C 0.9248 0.63384 0.75328 0.0
O136 O 0.88332 0.63106 0.78461 0.0
O137 O 0.88862 0.60973 0.81151 0.0
O138 O 0.89113 0.62696 0.67947 0.0
O139 O 0.88188 0.6052 0.72143 0.0
Co140 Co 0.36486 0.25933 0.73631 0.0
O141 O 0.36878 0.2385 0.7302 0.0
O142 O 0.34138 0.23732 0.7259 0.0
C143 C 0.38801 0.27974 0.69934 0.0
O144 O 0.35564 0.27778 0.73982 0.0
Co145 Co 0.39454 0.29443 0.77587 0.0
O146 O 0.3792 0.30526 0.75947 0.0
C147 C 0.36672 0.2632 0.82044 0.0
C148 C 0.35097 0.22878 0.72389 0.0
C149 C 0.36261 0.29516 0.7476 0.0
O150 O 0.36009 0.25402 0.79054 0.0
O151 O 0.38115 0.27957 0.82094 0.0
O152 O 0.37217 0.26706 0.68619 0.0
O153 O 0.39054 0.2782 0.73407 0.0
Co154 Co 0.73114 0.104 0.7295 0.0
O155 O 0.74879 0.13023 0.72565 0.0
O156 O 0.75583 0.10753 0.72573 0.0
C157 C 0.71099 0.10326 0.68681 0.0
O158 O 0.71711 0.07575 0.73137 0.0
Co159 Co 0.69143 0.08953 0.75768 0.0
O160 O 0.68648 0.0658 0.73463 0.0
C161 C 0.72156 0.09814 0.81104 0.0
C162 C 0.7613 0.12519 0.72311 0.0
C163 C 0.69997 0.06273 0.73011 0.0
O164 O 0.73331 0.10464 0.78448 0.0
O165 O 0.70404 0.09178 0.80643 0.0
O166 O 0.72603 0.10305 0.6778 0.0
O167 O 0.7094 0.10598 0.72142 0.0
Co168 Co 0.02743 0.43442 0.56645 0.0
O169 O 0.0324 0.45827 0.54892 0.0
O170 O 0.00419 0.43439 0.56139 0.0
C171 C 0.04562 0.43032 0.52539 0.0
O172 O 0.01699 0.40764 0.58316 0.0
Co173 Co 0.05903 0.43112 0.60187 0.0
O174 O 0.0404 0.40439 0.60641 0.0
C175 C 0.03558 0.44006 0.64854 0.0
C176 C 0.01447 0.45141 0.54959 0.0
C177 C 0.02332 0.39786 0.59807 0.0
O178 O 0.02846 0.44231 0.6191 0.0
O179 O 0.04854 0.43588 0.64792 0.0
O180 O 0.02892 0.4268 0.51737 0.0
O181 O 0.05206 0.43866 0.55668 0.0
Co182 Co 0.55209 0.5891 0.55702 0.0
O183 O 0.52669 0.56907 0.55449 0.0
O184 O 0.55174 0.56586 0.54996 0.0
C185 C 0.54995 0.60883 0.51681 0.0
O186 O 0.58014 0.60649 0.55734 0.0
Co187 Co 0.56037 0.62619 0.59148 0.0
O188 O 0.58529 0.63529 0.56959 0.0
C189 C 0.55634 0.59613 0.64041 0.0
C190 C 0.53365 0.55822 0.54952 0.0
C191 C 0.59109 0.62422 0.56032 0.0
O192 O 0.55256 0.5858 0.61183 0.0
O193 O 0.55935 0.6129 0.63872 0.0
O194 O 0.55162 0.59483 0.50602 0.0
O195 O 0.54673 0.60896 0.55175 0.0
Co196 Co 0.39642 0.95768 0.56852 0.0
O197 O 0.41549 0.95141 0.56039 0.0
O198 O 0.42017 0.98029 0.56411 0.0
C199 C 0.37616 0.93804 0.52589 0.0
O200 O 0.3802 0.96945 0.57452 0.0
Co201 Co 0.35913 0.92889 0.60095 0.0
O202 O 0.35096 0.94663 0.58624 0.0
C203 C 0.38959 0.95247 0.65151 0.0
C204 C 0.4269 0.96927 0.55848 0.0
C205 C 0.36275 0.96362 0.57924 0.0
O206 O 0.40026 0.95883 0.62333 0.0
O207 O 0.37238 0.93983 0.64889 0.0
O208 O 0.39019 0.95415 0.51727 0.0
O209 O 0.37586 0.93298 0.55985 0.0
Co210 Co 0.7661 0.70114 0.62163 0.0
O211 O 0.79135 0.70827 0.63365 0.0
O212 O 0.76795 0.67903 0.62905 0.0
C213 C 0.76377 0.72101 0.66159 0.0
O214 O 0.73832 0.68842 0.61126 0.0
Co215 Co 0.75827 0.72933 0.58407 0.0
O216 O 0.73212 0.70896 0.58322 0.0
C217 C 0.76637 0.70501 0.53807 0.0
C218 C 0.78545 0.69053 0.63614 0.0
C219 C 0.72713 0.69274 0.59547 0.0
O220 O 0.77064 0.69956 0.56761 0.0
O221 O 0.76145 0.71744 0.53832 0.0
O222 O 0.76153 0.70504 0.67185 0.0
O223 O 0.76952 0.72579 0.62801 0.0
Co224 Co 0.29068 0.06762 0.62238 0.0
O225 O 0.28333 0.08567 0.63367 0.0
O226 O 0.3126 0.09195 0.62658 0.0
C227 C 0.2725 0.0461 0.66502 0.0
O228 O 0.30358 0.05274 0.61243 0.0
Co229 Co 0.26185 0.0302 0.58946 0.0
O230 O 0.28243 0.02466 0.58989 0.0
C231 C 0.28478 0.06142 0.53965 0.0
C232 C 0.30103 0.09781 0.63424 0.0
C233 C 0.29896 0.03656 0.59954 0.0
O234 O 0.29063 0.07212 0.5679 0.0
O235 O 0.27269 0.04402 0.54208 0.0
O236 O 0.28841 0.06052 0.67328 0.0
O237 O 0.26662 0.04621 0.63197 0.0
Co238 Co 0.92365 0.22204 0.62825 0.0
O239 O 0.90278 0.19721 0.63212 0.0
O240 O 0.90121 0.22322 0.63495 0.0
C241 C 0.94261 0.21875 0.66834 0.0
O242 O 0.94201 0.24981 0.62702 0.0
Co243 Co 0.96018 0.22851 0.59387 0.0
O244 O 0.97033 0.25417 0.61287 0.0
C245 C 0.9304 0.22508 0.54489 0.0
C246 C 0.89272 0.20509 0.63675 0.0
C247 C 0.95969 0.2604 0.62268 0.0
O248 O 0.92029 0.22214 0.57353 0.0
O249 O 0.94688 0.22732 0.54659 0.0
O250 O 0.92937 0.22164 0.67924 0.0
O251 O 0.94257 0.21541 0.63345 0.0
Co252 Co 0.28923 0.2221 0.12993 0.0
O253 O 0.28043 0.19609 0.13865 0.0
O254 O 0.31023 0.21832 0.13484 0.0
C255 C 0.27049 0.2251 0.17123 0.0
O256 O 0.30378 0.2501 0.12292 0.0
Co257 Co 0.26415 0.23573 0.0978 0.0
O258 O 0.28366 0.26053 0.11556 0.0
C259 C 0.28545 0.22527 0.04749 0.0
C260 C 0.29794 0.20085 0.14015 0.0
C261 C 0.30011 0.2634 0.12053 0.0
O262 O 0.29008 0.21892 0.07528 0.0
O263 O 0.27475 0.23228 0.05039 0.0
O264 O 0.28585 0.22576 0.1811 0.0
O265 O 0.26568 0.22068 0.1372 0.0
Co266 Co 0.76479 0.0659 0.12621 0.0
O267 O 0.79022 0.08591 0.12966 0.0
O268 O 0.76501 0.08885 0.13488 0.0
C269 C 0.76744 0.04589 0.16446 0.0
O270 O 0.7368 0.04916 0.12515 0.0
Co271 Co 0.75449 0.02816 0.09161 0.0
O272 O 0.72934 0.01972 0.11206 0.0
C273 C 0.76001 0.05926 0.04337 0.0
C274 C 0.78306 0.09652 0.13585 0.0
C275 C 0.72483 0.03177 0.12133 0.0
O276 O 0.76443 0.06977 0.07182 0.0
O277 O 0.75618 0.04221 0.04501 0.0
O278 O 0.76537 0.05943 0.17678 0.0
O279 O 0.76992 0.04584 0.12927 0.0
Co280 Co 0.92039 0.69885 0.12622 0.0
O281 O 0.9015 0.70576 0.13063 0.0
O282 O 0.89654 0.67671 0.132 0.0
C283 C 0.9407 0.71922 0.16746 0.0
O284 O 0.93612 0.6864 0.12341 0.0
Co285 Co 0.9587 0.72592 0.09419 0.0
O286 O 0.96604 0.70893 0.11748 0.0
C287 C 0.92805 0.70225 0.04366 0.0
C288 C 0.8899 0.68799 0.13431 0.0
C289 C 0.95366 0.69202 0.12331 0.0
O290 O 0.91712 0.69651 0.07151 0.0
O291 O 0.94541 0.7145 0.0464 0.0
O292 O 0.92623 0.70369 0.1774 0.0
O293 O 0.94129 0.72335 0.13285 0.0
Co294 Co 0.54991 0.95697 0.06595 0.0
O295 O 0.52369 0.94802 0.06108 0.0
O296 O 0.54587 0.9779 0.06389 0.0
C297 C 0.55173 0.93859 0.02226 0.0
O298 O 0.57812 0.97143 0.06934 0.0
Co299 Co 0.56445 0.93173 0.09349 0.0
O300 O 0.58789 0.95056 0.06974 0.0
C301 C 0.55585 0.95309 0.14717 0.0
C302 C 0.5283 0.96551 0.06023 0.0
C303 C 0.59106 0.96722 0.06681 0.0
O304 O 0.54855 0.95759 0.12089 0.0
O305 O 0.56282 0.94246 0.14234 0.0
O306 O 0.55165 0.9538 0.01408 0.0
O307 O 0.5485 0.93361 0.05652 0.0
Co308 Co 0.03263 0.59609 0.06398 0.0
O309 O 0.03963 0.57727 0.05901 0.0
O310 O 0.01065 0.57231 0.05569 0.0
C311 C 0.05413 0.61713 0.02519 0.0
O312 O 0.02005 0.61163 0.06714 0.0
Co313 Co 0.05918 0.63403 0.09874 0.0
O314 O 0.04165 0.64146 0.07849 0.0
C315 C 0.03447 0.60242 0.14692 0.0
C316 C 0.02197 0.5657 0.05387 0.0
C317 C 0.02506 0.62895 0.07052 0.0
O318 O 0.02909 0.59179 0.11854 0.0
O319 O 0.04693 0.61976 0.14519 0.0
O320 O 0.03873 0.60323 0.01319 0.0
O321 O 0.05727 0.61697 0.06005 0.0
Co322 Co 0.40179 0.43717 0.06915 0.0
O323 O 0.41785 0.46372 0.06625 0.0
O324 O 0.42726 0.44282 0.06498 0.0
C325 C 0.38076 0.43512 0.02698 0.0
O326 O 0.38936 0.40892 0.06974 0.0
Co327 Co 0.36217 0.42024 0.09863 0.0
O328 O 0.35853 0.39801 0.07119 0.0
C329 C 0.39283 0.42963 0.15086 0.0
C330 C 0.43141 0.46019 0.0631 0.0
C331 C 0.37242 0.39561 0.06642 0.0
O332 O 0.40426 0.43739 0.12414 0.0
O333 O 0.37512 0.42212 0.14683 0.0
O334 O 0.39642 0.43631 0.01757 0.0
O335 O 0.37904 0.43745 0.06176 0.0
Co336 Co 0.69466 0.76864 0.89808 0.0
O337 O 0.69716 0.79244 0.88726 0.0
O338 O 0.67029 0.76552 0.88921 0.0
C339 C 0.71674 0.77006 0.85959 0.0
O340 O 0.68708 0.74163 0.90756 0.0
Co341 Co 0.727 0.76807 0.93773 0.0
O342 O 0.71225 0.74093 0.92898 0.0
C343 C 0.6991 0.77128 0.98218 0.0
C344 C 0.67914 0.78347 0.88376 0.0
C345 C 0.69531 0.7328 0.91845 0.0
O346 O 0.69151 0.77201 0.95203 0.0
O347 O 0.71404 0.77024 0.98288 0.0
O348 O 0.70025 0.76564 0.84809 0.0
O349 O 0.72056 0.77647 0.89298 0.0
Co350 Co 0.21869 0.92256 0.89858 0.0
O351 O 0.19452 0.90356 0.88282 0.0
O352 O 0.2185 0.89921 0.89372 0.0
C353 C 0.22217 0.94441 0.85666 0.0
O354 O 0.24574 0.93908 0.91347 0.0
Co355 Co 0.22236 0.95764 0.93342 0.0
O356 O 0.24918 0.96606 0.93545 0.0
C357 C 0.21497 0.92602 0.98111 0.0
C358 C 0.2013 0.89242 0.88306 0.0
C359 C 0.25568 0.95547 0.9272 0.0
O360 O 0.21176 0.91624 0.95188 0.0
O361 O 0.21918 0.94316 0.98006 0.0
O362 O 0.22546 0.93105 0.84893 0.0
O363 O 0.21434 0.94294 0.88844 0.0
Co364 Co 0.06429 0.29225 0.89337 0.0
O365 O 0.08423 0.28672 0.8916 0.0
O366 O 0.08738 0.31486 0.88417 0.0
C367 C 0.04405 0.26946 0.85572 0.0
O368 O 0.04714 0.3031 0.89212 0.0
Co369 Co 0.02711 0.26457 0.92977 0.0
O370 O 0.01821 0.28027 0.90624 0.0
C371 C 0.05784 0.29128 0.97674 0.0
C372 C 0.09499 0.30438 0.88473 0.0
C373 C 0.02951 0.29678 0.89521 0.0
O374 O 0.06801 0.29734 0.9478 0.0
O375 O 0.04106 0.27751 0.97594 0.0
O376 O 0.05792 0.2847 0.84296 0.0
O377 O 0.04435 0.26708 0.8909 0.0
Co378 Co 0.43104 0.0305 0.96499 0.0
O379 O 0.45554 0.03392 0.97193 0.0
O380 O 0.42898 0.00676 0.97524 0.0
C381 C 0.4337 0.05361 1.00213 0.0
O382 O 0.40352 0.02165 0.96068 0.0
Co383 Co 0.42619 0.06042 0.92541 0.0
O384 O 0.39998 0.04556 0.94199 0.0
C385 C 0.42958 0.03259 0.88079 0.0
C386 C 0.44707 0.01603 0.97784 0.0
C387 C 0.39329 0.02886 0.95338 0.0
O388 O 0.43198 0.02589 0.91074 0.0
O389 O 0.42765 0.04703 0.88028 0.0
O390 O 0.43026 0.03762 0.01506 0.0
O391 O 0.43817 0.05632 0.96756 0.0
Co392 Co 0.9638 0.40387 0.95808 0.0
O393 O 0.95824 0.42246 0.97504 0.0
O394 O 0.98671 0.42738 0.96303 0.0
C395 C 0.94582 0.38145 0.99908 0.0
O396 O 0.97485 0.38801 0.94185 0.0
Co397 Co 0.93264 0.36843 0.9227 0.0
O398 O 0.95199 0.36132 0.91734 0.0
C399 C 0.95588 0.40087 0.87588 0.0
C400 C 0.97612 0.43385 0.97431 0.0
C401 C 0.96893 0.37211 0.9263 0.0
O402 O 0.96274 0.41043 0.90524 0.0
O403 O 0.94313 0.38365 0.87662 0.0
O404 O 0.96232 0.39494 1.00736 0.0
O405 O 0.93939 0.38312 0.96761 0.0
Co406 Co 0.59007 0.55746 0.95627 0.0
O407 O 0.56802 0.53377 0.96394 0.0
O408 O 0.56906 0.56118 0.96268 0.0
C409 C 0.60858 0.55409 0.9977 0.0
O410 O 0.61013 0.5845 0.95005 0.0
Co411 Co 0.62417 0.55872 0.92141 0.0
O412 O 0.63672 0.58564 0.93255 0.0
C413 C 0.59489 0.55662 0.87272 0.0
C414 C 0.55938 0.54317 0.96702 0.0
C415 C 0.62757 0.59359 0.9419 0.0
O416 O 0.58553 0.55537 0.90169 0.0
O417 O 0.61083 0.5576 0.87416 0.0
O418 O 0.59653 0.55894 1.00719 0.0
O419 O 0.60751 0.54882 0.96366 0.0
Co420 Co 0.95893 0.55749 0.45959 0.0
O421 O 0.95131 0.53146 0.4638 0.0
O422 O 0.98064 0.55493 0.46459 0.0
C423 C 0.93905 0.55796 0.50167 0.0
O424 O 0.97223 0.58569 0.45683 0.0
Co425 Co 0.93262 0.57017 0.42945 0.0
O426 O 0.95085 0.59462 0.45075 0.0
C427 C 0.95542 0.56253 0.37747 0.0
C428 C 0.96898 0.53711 0.46707 0.0
C429 C 0.96755 0.59832 0.45612 0.0
O430 O 0.96089 0.55662 0.40467 0.0
O431 O 0.94364 0.5682 0.3812 0.0
O432 O 0.95447 0.55863 0.51106 0.0
O433 O 0.93475 0.55465 0.46711 0.0
Co434 Co 0.43556 0.3943 0.46073 0.0
O435 O 0.45979 0.41471 0.47235 0.0
O436 O 0.43392 0.41654 0.46869 0.0
C437 C 0.43643 0.37351 0.49981 0.0
O438 O 0.4082 0.37603 0.45099 0.0
Co439 Co 0.4326 0.36009 0.42225 0.0
O440 O 0.40548 0.34951 0.42809 0.0
C441 C 0.43676 0.39139 0.37697 0.0
C442 C 0.45173 0.42466 0.47544 0.0
C443 C 0.3984 0.35927 0.4388 0.0
O444 O 0.43919 0.40058 0.40678 0.0
O445 O 0.43442 0.37486 0.37678 0.0
O446 O 0.4323 0.38587 0.51089 0.0
O447 O 0.44231 0.37539 0.46615 0.0
Co448 Co 0.58816 0.03009 0.45901 0.0
O449 O 0.56857 0.03593 0.46479 0.0
O450 O 0.56494 0.00739 0.46623 0.0
C451 C 0.60872 0.0511 0.49886 0.0
O452 O 0.60478 0.01872 0.45505 0.0
Co453 Co 0.62573 0.05832 0.42496 0.0
O454 O 0.63426 0.04206 0.44739 0.0
C455 C 0.59483 0.03309 0.37618 0.0
C456 C 0.55764 0.01808 0.46922 0.0
C457 C 0.62244 0.02503 0.45393 0.0
O458 O 0.58417 0.02726 0.40445 0.0
O459 O 0.61201 0.04597 0.3781 0.0
O460 O 0.59479 0.03543 0.50989 0.0
O461 O 0.60846 0.05498 0.46437 0.0
Co462 Co 0.22471 0.30021 0.39658 0.0
O463 O 0.20147 0.29939 0.38814 0.0
O464 O 0.22936 0.32519 0.38807 0.0
C465 C 0.2205 0.27724 0.35749 0.0
O466 O 0.25143 0.30613 0.40332 0.0
Co467 Co 0.22411 0.26704 0.4351 0.0
O468 O 0.25084 0.27994 0.42207 0.0
C469 C 0.22262 0.29555 0.4806 0.0
C470 C 0.21138 0.31736 0.38396 0.0
C471 C 0.25964 0.29693 0.4118 0.0
O472 O 0.22277 0.30378 0.45072 0.0
O473 O 0.22244 0.27996 0.48086 0.0
O474 O 0.22581 0.294 0.34624 0.0
O475 O 0.2152 0.27395 0.39165 0.0
Co476 Co 0.70124 0.92836 0.39876 0.0
O477 O 0.70763 0.90926 0.3914 0.0
O478 O 0.67889 0.90494 0.39027 0.0
C479 C 0.72262 0.94977 0.36048 0.0
O480 O 0.6893 0.9444 0.40417 0.0
Co481 Co 0.72871 0.96549 0.43547 0.0
O482 O 0.71165 0.97384 0.41656 0.0
C483 C 0.70339 0.93345 0.48197 0.0
C484 C 0.68986 0.89798 0.38689 0.0
C485 C 0.6949 0.96181 0.40849 0.0
O486 O 0.69801 0.92328 0.45301 0.0
O487 O 0.71604 0.95074 0.48123 0.0
O488 O 0.70705 0.93616 0.34828 0.0
O489 O 0.72599 0.94897 0.39502 0.0
Co490 Co 0.06559 0.77236 0.39385 0.0
O491 O 0.08329 0.7986 0.39033 0.0
O492 O 0.0902 0.77585 0.38829 0.0
C493 C 0.04478 0.77137 0.35263 0.0
O494 O 0.0514 0.74411 0.39576 0.0
Co495 Co 0.02638 0.75838 0.42465 0.0
O496 O 0.02091 0.73454 0.40131 0.0
C497 C 0.05715 0.76629 0.47588 0.0
C498 C 0.09579 0.79359 0.38656 0.0
C499 C 0.03417 0.73124 0.39569 0.0
O500 O 0.06851 0.77285 0.44871 0.0
O501 O 0.0396 0.76016 0.47241 0.0
O502 O 0.05978 0.77137 0.34247 0.0
O503 O 0.04382 0.77444 0.38731 0.0
C504 C 0.31237 0.95561 0.21891 0.0
C505 C 0.29957 0.94798 0.24779 0.0
C506 C 0.32154 0.97478 0.21172 0.0
C507 C 0.31806 0.98651 0.2345 0.0
C508 C 0.3045 0.97878 0.26263 0.0
C509 C 0.29524 0.95948 0.26873 0.0
C510 C 0.33566 0.98255 0.18103 0.0
C511 C 0.30064 0.99097 0.28773 0.0
C512 C 0.35841 0.03486 0.25177 0.0
C513 C 0.35311 0.04593 0.23178 0.0
C514 C 0.34713 0.01547 0.25253 0.0
C515 C 0.33034 0.00694 0.23219 0.0
C516 C 0.32525 0.01791 0.2107 0.0
C517 C 0.33665 0.0374 0.21102 0.0
C518 C 0.3529 0.00417 0.27608 0.0
C519 C 0.30763 0.00911 0.18805 0.0
H520 H 0.31542 0.94662 0.20219 0.0
H521 H 0.28526 0.95352 0.29096 0.0
H522 H 0.33368 0.99267 0.16446 0.0
H523 H 0.34996 0.99016 0.19268 0.0
H524 H 0.33472 0.97139 0.16269 0.0
H525 H 0.2884 0.98266 0.30577 0.0
H526 H 0.31304 -0.00058 0.30522 0.0
H527 H 0.29809 0.00085 0.27163 0.0
H528 H 0.37104 0.04139 0.26808 0.0
H529 H 0.3326 0.04594 0.19536 0.0
H530 H 0.35417 0.99373 0.2591 0.0
H531 H 0.34205 -0.00363 0.2971 0.0
H532 H 0.36643 0.01302 0.29018 0.0
H533 H 0.30727 -0.00186 0.17 0.0
H534 H 0.30638 0.01952 0.17084 0.0
H535 H 0.29527 0.00223 0.20628 0.0
C536 C 0.03967 0.3221 0.26905 0.0
C537 C 0.04385 0.33687 0.29316 0.0
C538 C 0.02112 0.3094 0.25967 0.0
C539 C 0.00665 0.31149 0.27545 0.0
C540 C 0.01078 0.32488 0.3034 0.0
C541 C 0.02944 0.33764 0.31156 0.0
C542 C 0.01727 0.29527 0.22989 0.0
C543 C -0.00435 0.3271 0.32182 0.0
C544 C 0.96574 0.30679 0.22199 0.0
C545 C 0.95109 0.29065 0.23745 0.0
C546 C 0.98423 0.31275 0.23168 0.0
C547 C 0.98797 0.30257 0.2583 0.0
C548 C 0.97331 0.28547 0.27184 0.0
C549 C 0.95496 0.27958 0.26089 0.0
C550 C -0.00042 0.3308 0.21573 0.0
C551 C 0.9767 0.2743 0.30041 0.0
H552 H 0.05089 0.32156 0.25472 0.0
H553 H 0.03277 0.34901 0.33049 0.0
H554 H 0.00429 0.2819 0.23555 0.0
H555 H 0.01533 0.30076 0.20352 0.0
H556 H 0.02903 0.2925 0.22665 0.0
H557 H 0.00084 0.33592 0.34677 0.0
H558 H 0.99039 0.33378 0.30252 0.0
H559 H 0.9837 0.31328 0.32948 0.0
H560 H 0.96264 0.31522 0.20367 0.0
H561 H 0.94354 0.26714 0.27308 0.0
H562 H 0.01149 0.32913 0.20677 0.0
H563 H 0.00483 0.34187 0.23699 0.0
H564 H -0.00534 0.33558 0.19201 0.0
H565 H 0.98994 0.27436 0.29521 0.0
H566 H 0.96506 0.25961 0.30145 0.0
H567 H 0.97782 0.28069 0.32769 0.0
C568 C 0.67075 0.63641 0.28043 0.0
C569 C 0.68612 0.64139 0.25751 0.0
C570 C 0.663 0.64794 0.2839 0.0
C571 C 0.67068 0.66471 0.26351 0.0
C572 C 0.68652 0.67012 0.24108 0.0
C573 C 0.69416 0.65838 0.2385 0.0
C574 C 0.64622 0.64188 0.30844 0.0
C575 C 0.69488 0.68786 0.21876 0.0
C576 C 0.63486 0.67857 0.24178 0.0
C577 C 0.63876 0.69223 0.26837 0.0
C578 C 0.64588 0.67024 0.23863 0.0
C579 C 0.6609 0.67549 0.26319 0.0
C580 C 0.66529 0.68969 0.28942 0.0
C581 C 0.65419 0.69807 0.29148 0.0
C582 C 0.64102 0.65534 0.20992 0.0
C583 C 0.68109 0.69539 0.31629 0.0
H584 H 0.66472 0.62343 0.29571 0.0
H585 H 0.7061 0.66227 0.22086 0.0
H586 H 0.64857 0.65332 0.32743 0.0
H587 H 0.6338 0.63865 0.29158 0.0
H588 H 0.64302 0.6293 0.32483 0.0
H589 H 0.70822 0.69093 0.20552 0.0
H590 H 0.6849 0.68656 0.19711 0.0
H591 H 0.69746 0.69989 0.23623 0.0
H592 H 0.62311 0.67434 0.22344 0.0
H593 H 0.65718 0.70869 0.31198 0.0
H594 H 0.63591 0.6416 0.22341 0.0
H595 H 0.65359 0.65834 0.1938 0.0
H596 H 0.63005 0.6542 0.19081 0.0
H597 H 0.6776 0.68372 0.33555 0.0
H598 H 0.68383 0.70792 0.3324 0.0
H599 H 0.69408 0.69836 0.3018 0.0
C600 C 0.66383 0.95366 0.75571 0.0
C601 C 0.64927 0.9488 0.78073 0.0
C602 C 0.67565 0.97237 0.74591 0.0
C603 C 0.67298 0.98636 0.76232 0.0
C604 C 0.6594 0.98157 0.7902 0.0
C605 C 0.64746 0.96274 0.79864 0.0
C606 C 0.68975 0.9769 0.71573 0.0
C607 C 0.65652 -0.00382 0.80913 0.0
C608 C 0.70603 0.03824 0.75394 0.0
C609 C 0.69568 0.04326 0.73097 0.0
C610 C 0.69945 0.01948 0.76278 0.0
C611 C 0.68243 0.00557 0.74745 0.0
C612 C 0.67297 0.01051 0.72136 0.0
C613 C 0.67956 0.0294 0.7139 0.0
C614 C 0.70977 0.01479 0.79109 0.0
C615 C 0.65507 0.99598 0.70354 0.0
H616 H 0.665 0.94275 0.74155 0.0
H617 H 0.63617 0.95885 0.81804 0.0
H618 H 0.68444 0.97981 0.69014 0.0
H619 H 0.7032 0.98958 0.72243 0.0
H620 H 0.69235 0.96515 0.71045 0.0
H621 H 0.64726 0.99046 0.83341 0.0
H622 H 0.6701 0.00812 0.81799 0.0
H623 H 0.65009 0.00167 0.78975 0.0
H624 H 0.71843 0.04905 0.76743 0.0
H625 H 0.67167 0.03337 0.69599 0.0
H626 H 0.71032 0.00212 0.78318 0.0
H627 H 0.70223 0.0118 0.81758 0.0
H628 H 0.72424 0.02649 0.7953 0.0
H629 H 0.65645 0.98403 0.69368 0.0
H630 H 0.65105 0.0018 0.6801 0.0
H631 H 0.64359 0.9905 0.72394 0.0
C632 C 0.02992 0.67027 0.7644 0.0
C633 C 0.04203 0.68789 0.7794 0.0
C634 C 0.0108 0.66368 0.76162 0.0
C635 C 0.00352 0.67485 0.77472 0.0
C636 C 0.01549 0.69242 0.79085 0.0
C637 C 0.0347 0.69881 0.79284 0.0
C638 C -0.00158 0.64481 0.74422 0.0
C639 C 0.00802 0.70446 0.80568 0.0
C640 C 0.95603 0.65991 0.73461 0.0
C641 C 0.94463 0.6466 0.76044 0.0
C642 C 0.97541 0.67036 0.74002 0.0
C643 C 0.9832 0.66755 0.77228 0.0
C644 C 0.97145 0.65525 0.79974 0.0
C645 C 0.95228 0.64475 0.79327 0.0
C646 C 0.9876 0.68328 0.71006 0.0
C647 C 0.97921 0.65214 0.83479 0.0
H648 H 0.03541 0.66173 0.75382 0.0
H649 H 0.04397 0.71245 0.80448 0.0
H650 H 0.98784 0.6353 0.76425 0.0
H651 H 0.99078 0.64629 0.72067 0.0
H652 H 0.00643 0.63816 0.7344 0.0
H653 H 0.01914 0.71757 0.81823 0.0
H654 H 0.00134 0.70812 0.78334 0.0
H655 H -0.00289 0.69662 0.82656 0.0
H656 H 0.94996 0.66137 0.7094 0.0
H657 H 0.94328 0.63472 0.81361 0.0
H658 H -0.00504 0.67691 0.69601 0.0
H659 H -0.00161 0.69683 0.72162 0.0
H660 H 0.97936 0.68595 0.68938 0.0
H661 H 0.986 0.64376 0.82889 0.0
H662 H 0.96813 0.64458 0.85559 0.0
H663 H 0.98998 0.66564 0.8466 0.0
C664 C 0.3331 0.29404 0.728 0.0
C665 C 0.35051 0.30349 0.74551 0.0
C666 C 0.32103 0.30136 0.72827 0.0
C667 C 0.32651 0.31833 0.74683 0.0
C668 C 0.3441 0.32798 0.76427 0.0
C669 C 0.35594 0.3205 0.76317 0.0
C670 C 0.30245 0.29095 0.70891 0.0
C671 C 0.35038 0.34614 0.78446 0.0
C672 C 0.3087 0.35123 0.72735 0.0
C673 C 0.29739 0.34831 0.75798 0.0
C674 C 0.31702 0.34033 0.72159 0.0
C675 C 0.31423 0.32653 0.74762 0.0
C676 C 0.30185 0.32271 0.77738 0.0
C677 C 0.29336 0.33361 0.78203 0.0
C678 C 0.32983 0.34452 0.68911 0.0
C679 C 0.29871 0.30818 0.80582 0.0
H680 H 0.32886 0.28091 0.71421 0.0
H681 H 0.36931 0.32782 0.77699 0.0
H682 H 0.29093 0.2871 0.72873 0.0
H683 H 0.30137 0.30008 0.68797 0.0
H684 H 0.30042 0.27804 0.69532 0.0
H685 H 0.36429 0.35156 0.79744 0.0
H686 H 0.35111 0.35688 0.76528 0.0
H687 H 0.34011 0.34415 0.80606 0.0
H688 H 0.31143 0.36239 0.70833 0.0
H689 H 0.2845 0.33137 0.80559 0.0
H690 H 0.32722 0.33141 0.6756 0.0
H691 H 0.34455 0.35191 0.69855 0.0
H692 H 0.32811 0.35345 0.66857 0.0
H693 H 0.29607 0.295 0.79262 0.0
H694 H 0.2868 0.30514 0.82416 0.0
H695 H 0.31148 0.31328 0.82279 0.0
C696 C 0.01258 0.37092 0.63981 0.0
C697 C 0.01037 0.37828 0.60693 0.0
C698 C 0.00198 0.3518 0.64709 0.0
C699 C 0.98932 0.33985 0.62029 0.0
C700 C 0.98615 0.34741 0.58807 0.0
C701 C -0.00336 0.3667 0.58194 0.0
C702 C 0.00534 0.34429 0.68219 0.0
C703 C 0.97288 0.33501 0.55874 0.0
C704 C 0.98552 0.29268 0.61092 0.0
C705 C 0.96774 0.28078 0.62545 0.0
C706 C 0.99265 0.31195 0.6093 0.0
C707 C 0.98187 0.31953 0.62314 0.0
C708 C 0.96423 0.30774 0.63913 0.0
C709 C 0.95727 0.28841 0.63987 0.0
C710 C 0.01155 0.32413 0.59189 0.0
C711 C 0.95261 0.31551 0.6548 0.0
H712 H 0.02299 0.38007 0.65944 0.0
H713 H -0.00504 0.37254 0.55662 0.0
H714 H 0.99195 0.33355 0.6944 0.0
H715 H 0.01374 0.33751 0.67626 0.0
H716 H 0.013 0.35552 0.70266 0.0
H717 H 0.97017 0.34314 0.53785 0.0
H718 H 0.97895 0.32734 0.54479 0.0
H719 H 0.95938 0.32447 0.5709 0.0
H720 H 0.99368 0.28692 0.5996 0.0
H721 H 0.94355 0.27928 0.6513 0.0
H722 H 0.02116 0.33466 0.61186 0.0
H723 H 0.01019 0.33183 0.56831 0.0
H724 H 0.01802 0.31595 0.58208 0.0
H725 H 0.96091 0.3267 0.67489 0.0
H726 H 0.93975 0.30459 0.66847 0.0
H727 H 0.94849 0.3219 0.63264 0.0
C728 C 0.6191 0.62026 0.55358 0.0
C729 C 0.61147 0.632 0.55747 0.0
C730 C 0.63842 0.62741 0.55663 0.0
C731 C 0.65018 0.64662 0.56419 0.0
C732 C 0.64265 0.65865 0.56635 0.0
C733 C 0.62343 0.65122 0.5626 0.0
C734 C 0.64611 0.61433 0.55318 0.0
C735 C 0.65479 0.67929 0.57417 0.0
C736 C 0.69581 0.66756 0.61525 0.0
C737 C 0.70812 0.67803 0.58729 0.0
C738 C 0.67679 0.65582 0.6076 0.0
C739 C 0.67034 0.65444 0.57114 0.0
C740 C 0.68319 0.66359 0.54243 0.0
C741 C 0.70196 0.67554 0.55098 0.0
C742 C 0.66344 0.64629 0.63892 0.0
C743 C 0.67694 0.66203 0.50313 0.0
H744 H 0.60996 0.60541 0.54939 0.0
H745 H 0.61773 0.66046 0.5652 0.0
H746 H 0.65864 0.62048 0.53529 0.0
H747 H 0.6505 0.61211 0.58052 0.0
H748 H 0.63563 0.60053 0.54192 0.0
H749 H 0.64669 0.6867 0.57482 0.0
H750 H 0.66186 0.68131 0.60098 0.0
H751 H 0.66582 0.68593 0.55301 0.0
H752 H 0.70079 0.66951 0.64324 0.0
H753 H 0.71176 0.68348 0.52938 0.0
H754 H 0.65336 0.63153 0.63202 0.0
H755 H 0.65529 0.65342 0.64403 0.0
H756 H 0.67084 0.64666 0.66454 0.0
H757 H 0.66621 0.64746 0.4964 0.0
H758 H 0.68881 0.66667 0.48375 0.0
H759 H 0.67057 0.67095 0.49891 0.0
C760 C 0.32598 0.03381 0.62107 0.0
C761 C 0.31344 0.03169 0.59334 0.0
C762 C 0.33754 0.02601 0.61711 0.0
C763 C 0.33655 0.01629 0.58447 0.0
C764 C 0.32533 0.01598 0.555 0.0
C765 C 0.31368 0.0235 0.56001 0.0
C766 C 0.34932 0.02655 0.64913 0.0
C767 C 0.32421 0.00611 0.51948 0.0
C768 C 0.36802 0.99584 0.56867 0.0
C769 C 0.35623 0.97726 0.57956 0.0
C770 C 0.36199 0.00895 0.57053 0.0
C771 C 0.34387 0.00327 0.58383 0.0
C772 C 0.33199 0.98459 0.59508 0.0
C773 C 0.33828 0.97181 0.59259 0.0
C774 C 0.37485 0.02875 0.55796 0.0
C775 C 0.31253 0.97801 0.60954 0.0
H776 H 0.32579 0.04034 0.64668 0.0
H777 H 0.30419 0.02232 0.53832 0.0
H778 H 0.3423 0.0128 0.66317 0.0
H779 H 0.36319 0.02917 0.63982 0.0
H780 H 0.35133 0.03746 0.66931 0.0
H781 H 0.31776 0.01019 0.49731 0.0
H782 H 0.33827 0.00916 0.51047 0.0
H783 H 0.31558 0.99079 0.52361 0.0
H784 H 0.38193 0.00014 0.55861 0.0
H785 H 0.32913 0.95754 0.60138 0.0
H786 H 0.37667 0.03872 0.58005 0.0
H787 H 0.36858 0.03198 0.53425 0.0
H788 H 0.38882 0.03111 0.54982 0.0
H789 H 0.31311 0.98684 0.63294 0.0
H790 H 0.30545 0.96322 0.61872 0.0
H791 H 0.30388 0.97937 0.5879 0.0
C792 C 0.35327 0.363 0.04533 0.0
C793 C 0.36851 0.37628 0.06548 0.0
C794 C 0.34566 0.34394 0.05254 0.0
C795 C 0.35317 0.33828 0.08137 0.0
C796 C 0.36968 0.35156 0.09931 0.0
C797 C 0.37733 0.37053 0.09078 0.0
C798 C 0.32843 0.33009 0.03189 0.0
C799 C 0.37802 0.34607 0.1303 0.0
C800 C 0.31422 0.29743 0.131 0.0
C801 C 0.31566 0.28255 0.11662 0.0
C802 C 0.32734 0.31585 0.12184 0.0
C803 C 0.34181 0.31929 0.09674 0.0
C804 C 0.34387 0.30432 0.08366 0.0
C805 C 0.33083 0.28605 0.09417 0.0
C806 C 0.32501 0.33153 0.13721 0.0
C807 C 0.35885 0.30738 0.05635 0.0
H808 H 0.34657 0.36757 0.02565 0.0
H809 H 0.38906 0.3809 0.10655 0.0
H810 H 0.32932 0.31754 0.02442 0.0
H811 H 0.31597 0.32544 0.04959 0.0
H812 H 0.32635 0.33626 1.00656 0.0
H813 H 0.39258 0.35715 0.13631 0.0
H814 H 0.36951 0.34368 0.15535 0.0
H815 H 0.37791 0.33289 0.12404 0.0
H816 H 0.30248 0.2946 0.14847 0.0
H817 H 0.33175 0.27444 0.0827 0.0
H818 H 0.32039 0.33754 0.11516 0.0
H819 H 0.33851 0.34288 0.14783 0.0
H820 H 0.31453 0.3267 0.15963 0.0
H821 H 0.35482 0.30999 0.02894 0.0
H822 H 0.36077 0.29503 0.05431 0.0
H823 H 0.37239 0.3198 0.06366 0.0
C824 C 0.61566 0.99509 0.09805 0.0
C825 C 0.6105 0.98213 0.06952 0.0
C826 C 0.63442 0.00607 0.10814 0.0
C827 C 0.64816 0.00429 0.08837 0.0
C828 C 0.64308 0.99253 0.05724 0.0
C829 C 0.62418 0.98124 0.04862 0.0
C830 C 0.63927 0.01815 0.14191 0.0
C831 C 0.65747 0.99083 0.03467 0.0
C832 C 0.69978 0.03758 0.10061 0.0
C833 C 0.70504 0.02626 0.11983 0.0
C834 C 0.68109 0.03094 0.0913 0.0
C835 C 0.66744 0.01282 0.10254 0.0
C836 C 0.67255 0.00196 0.12453 0.0
C837 C 0.69143 0.00869 0.13233 0.0
C838 C 0.67626 0.04268 0.06697 0.0
C839 C 0.65822 0.98278 0.13801 0.0
H840 H 0.60493 0.99547 0.1145 0.0
H841 H 0.62002 0.97112 0.02661 0.0
H842 H 0.64281 0.01149 0.16451 0.0
H843 H 0.65168 0.03209 0.13701 0.0
H844 H 0.62749 0.02004 0.15098 0.0
H845 H 0.65156 0.98333 1.0085 0.0
H846 H 0.6695 0.00485 0.02845 0.0
H847 H 0.66285 0.98304 0.05041 0.0
H848 H 0.71043 0.05108 0.09043 0.0
H849 H 0.69561 2e-05 0.14718 0.0
H850 H 0.66361 0.04268 0.07704 0.0
H851 H 0.67314 0.03663 0.03901 0.0
H852 H 0.68789 0.05736 0.06508 0.0
H853 H 0.64613 0.98313 0.15033 0.0
H854 H 0.66412 0.97728 0.15865 0.0
H855 H 0.65292 0.97291 0.11462 0.0
C856 C 0.95079 0.66313 0.09747 0.0
C857 C 0.95963 0.67811 0.12193 0.0
C858 C 0.95899 0.6524 0.08831 0.0
C859 C 0.97606 0.65651 0.10497 0.0
C860 C 0.98411 0.67056 0.13216 0.0
C861 C 0.97596 0.68149 0.13981 0.0
C862 C 0.95025 0.63783 0.0586 0.0
C863 C 0.00198 0.67487 0.15146 0.0
C864 C -0.0044 0.62398 0.09737 0.0
C865 C 0.01051 0.634 0.07324 0.0
C866 C 0.98373 0.63078 0.10717 0.0
C867 C 0.98661 0.64763 0.0914 0.0
C868 C 0.0008 0.65701 0.06483 0.0
C869 C 0.0129 0.65026 0.05663 0.0
C870 C 0.96916 0.62074 0.1364 0.0
C871 C 0.00384 0.6747 0.04655 0.0
H872 H 0.93829 0.66078 0.08326 0.0
H873 H 0.98271 0.69314 0.1587 0.0
H874 H 0.95893 0.64296 0.03349 0.0
H875 H 0.94974 0.62467 0.0668 0.0
H876 H 0.93588 0.63472 0.05181 0.0
H877 H 0.00488 0.68428 0.1753 0.0
H878 H 0.00129 0.6618 0.16105 0.0
H879 H 0.01386 0.68175 0.1321 0.0
H880 H -0.00593 0.61155 0.11067 0.0
H881 H 0.02452 0.65794 0.03806 0.0
H882 H 0.9555 0.619 0.12794 0.0
H883 H 0.97343 0.62922 0.16182 0.0
H884 H 0.96731 0.60677 0.14278 0.0
H885 H 0.99041 0.67291 0.03634 0.0
H886 H 0.01379 0.67884 0.02328 0.0
H887 H 0.00949 0.68628 0.06674 0.0
C888 C 0.65281 0.6237 0.91748 0.0
C889 C 0.63703 0.61407 0.93984 0.0
C890 C 0.66138 0.64302 0.91305 0.0
C891 C 0.65415 0.65294 0.93197 0.0
C892 C 0.63829 0.64337 0.95475 0.0
C893 C 0.62979 0.62394 0.9582 0.0
C894 C 0.67819 0.65282 0.88821 0.0
C895 C 0.6305 0.65368 0.97579 0.0
C896 C 0.68922 0.70355 0.94884 0.0
C897 C 0.68447 0.7124 0.92168 0.0
C898 C 0.67902 0.6842 0.95322 0.0
C899 C 0.66395 0.67348 0.92936 0.0
C900 C 0.65898 0.68231 0.90195 0.0
C901 C 0.66924 0.7018 0.89866 0.0
C902 C 0.68451 0.67523 0.98308 0.0
C903 C 0.64315 0.67115 0.87568 0.0
H904 H 0.65829 0.61608 0.90276 0.0
H905 H 0.61756 0.61649 0.97545 0.0
H906 H 0.6758 0.66116 0.86735 0.0
H907 H 0.69061 0.66267 0.90437 0.0
H908 H 0.68139 0.64289 0.87393 0.0
H909 H 0.61779 0.64408 0.99162 0.0
H910 H 0.6412 0.6637 0.99504 0.0
H911 H 0.62699 0.66192 0.95674 0.0
H912 H 0.70082 0.71181 0.96708 0.0
H913 H 0.66561 0.70871 0.87767 0.0
H914 H 0.68932 0.6661 0.97075 0.0
H915 H 0.67227 0.66628 1.00056 0.0
H916 H 0.69586 0.68571 1.00073 0.0
H917 H 0.64632 0.6618 0.85917 0.0
H918 H 0.64067 0.68022 0.85678 0.0
H919 H 0.63009 0.66213 0.89101 0.0
C920 C 0.36483 -0.00119 0.97013 0.0
C921 C 0.37286 0.01678 0.95493 0.0
C922 C 0.34552 0.98659 0.96848 0.0
C923 C 0.33414 0.99251 0.95096 0.0
C924 C 0.3421 0.01074 0.93623 0.0
C925 C 0.36137 0.0227 0.93862 0.0
C926 C 0.33733 0.96732 0.98499 0.0
C927 C 0.33031 0.01751 0.91735 0.0
C928 C 0.28677 0.95977 0.91082 0.0
C929 C 0.27533 0.9623 0.93555 0.0
C930 C 0.30609 0.96868 0.91661 0.0
C931 C 0.31379 0.97992 0.94818 0.0
C932 C 0.302 0.98116 0.97467 0.0
C933 C 0.28287 0.97247 0.96779 0.0
C934 C 0.31835 0.96721 0.88771 0.0
C935 C 0.3097 0.99269 1.00902 0.0
H936 H 0.37364 0.99418 0.98292 0.0
H937 H 0.36746 0.03653 0.92671 0.0
H938 H 0.32631 0.96499 1.0051 0.0
H939 H 0.33062 0.95659 0.9633 0.0
H940 H 0.34804 0.96516 0.9989 0.0
H941 H 0.33878 0.03201 0.90687 0.0
H942 H 0.32269 0.00819 0.89404 0.0
H943 H 0.31972 0.01705 0.93663 0.0
H944 H 0.28079 0.9518 0.886 0.0
H945 H 0.27382 0.97402 0.98724 0.0
H946 H 0.32877 0.96424 0.90039 0.0
H947 H 0.32617 0.98075 0.8731 0.0
H948 H 0.31011 0.95613 0.86731 0.0
H949 H 0.32017 0.98991 0.02209 0.0
H950 H 0.29854 0.98983 0.02924 0.0
H951 H 0.31684 0.00775 1.00188 0.0
C952 C 0.03453 0.32875 0.88305 0.0
C953 C 0.02228 0.3097 0.8899 0.0
C954 C 0.02818 0.3416 0.88414 0.0
C955 C 0.00925 0.3352 0.89258 0.0
C956 C -0.00339 0.31588 0.89714 0.0
C957 C 0.00327 0.30335 0.89546 0.0
C958 C 0.04189 0.36208 0.87816 0.0
C959 C 0.97623 0.30851 0.90592 0.0
C960 C 0.99277 0.36381 0.94384 0.0
C961 C 0.98227 0.36616 0.91668 0.0
C962 C 0.00287 0.35481 0.93573 0.0
C963 C 0.00265 0.34855 0.8995 0.0
C964 C 0.99348 0.35259 0.87137 0.0
C965 C 0.98307 0.3611 0.88048 0.0
C966 C 0.01238 0.35057 0.96649 0.0
C967 C 0.99347 0.34668 0.83225 0.0
H968 H 0.04923 0.33376 0.87832 0.0
H969 H 0.99365 0.28864 0.90024 0.0
H970 H 0.03582 0.36845 0.86005 0.0
H971 H 0.04511 0.36953 0.90476 0.0
H972 H 0.05518 0.36437 0.86593 0.0
H973 H 0.96815 0.29301 0.9073 0.0
H974 H 0.97498 0.31416 0.93266 0.0
H975 H 0.96978 0.31319 0.88492 0.0
H976 H 0.99202 0.36783 0.97178 0.0
H977 H 0.97505 0.36327 0.85953 0.0
H978 H 0.02681 0.3544 0.95859 0.0
H979 H 0.00465 0.33534 0.97221 0.0
H980 H 0.01294 0.35811 0.99207 0.0
H981 H 0.00749 0.34921 0.82422 0.0
H982 H 0.98917 0.35422 0.8129 0.0
H983 H 0.98353 0.33149 0.8295 0.0
C984 C 0.01362 0.69782 0.38063 0.0
C985 C 0.02966 0.71175 0.39775 0.0
C986 C 0.00659 0.67901 0.3896 0.0
C987 C 0.01549 0.67429 0.41732 0.0
C988 C 0.03239 0.68825 0.43297 0.0
C989 C 0.03945 0.70688 0.42253 0.0
C990 C 0.98887 0.66438 0.3714 0.0
C991 C 0.04204 0.6838 0.46312 0.0
C992 C 0.97987 0.63191 0.46903 0.0
C993 C 0.9823 0.61789 0.45319 0.0
C994 C 0.9917 0.65066 0.45969 0.0
C995 C 0.00574 0.65523 0.43291 0.0
C996 C 0.00889 0.64118 0.4184 0.0
C997 C -0.00277 0.62262 0.42919 0.0
C998 C 0.98834 0.66539 0.47665 0.0
C999 C 0.02341 0.64546 0.38919 0.0
H1000 H 0.00613 0.70171 0.36148 0.0
H1001 H 0.05173 0.71778 0.43615 0.0
H1002 H 0.9902 0.6522 0.36304 0.0
H1003 H 0.9771 0.65932 0.39108 0.0
H1004 H 0.98532 0.66996 0.34691 0.0
H1005 H 0.05637 0.69557 0.46831 0.0
H1006 H 0.03384 0.6809 0.48877 0.0
H1007 H 0.04284 0.67113 0.45646 0.0
H1008 H 0.96827 0.62813 0.48758 0.0
H1009 H -0.00113 0.61165 0.41653 0.0
H1010 H 0.98215 0.67051 0.45596 0.0
H1011 H 0.00172 0.67752 0.48577 0.0
H1012 H 0.97871 0.65991 0.50045 0.0
H1013 H 0.01853 0.6483 0.36296 0.0
H1014 H 0.026 0.63363 0.38487 0.0
H1015 H 0.0368 0.65812 0.39627 0.0
C1016 C 0.28916 0.29926 0.43361 0.0
C1017 C 0.28018 0.30676 0.41295 0.0
C1018 C 0.30854 0.30886 0.43747 0.0
C1019 C 0.31922 0.32625 0.41973 0.0
C1020 C 0.31035 0.33381 0.3983 0.0
C1021 C 0.29084 0.32401 0.39538 0.0
C1022 C 0.31757 0.30044 0.46075 0.0
C1023 C 0.32147 0.35218 0.37845 0.0
C1024 C 0.36806 0.3566 0.45675 0.0
C1025 C 0.37825 0.35144 0.43375 0.0
C1026 C 0.34877 0.34887 0.45193 0.0
C1027 C 0.33975 0.3361 0.42295 0.0
C1028 C 0.35016 0.33145 0.39879 0.0
C1029 C 0.36927 0.33904 0.40475 0.0
C1030 C 0.33794 0.35384 0.47851 0.0
C1031 C 0.34103 0.31811 0.36722 0.0
H1032 H 0.281 0.28602 0.44759 0.0
H1033 H 0.28394 0.32983 0.37933 0.0
H1034 H 0.32713 0.29779 0.44377 0.0
H1035 H 0.32608 0.31037 0.48264 0.0
H1036 H 0.30715 0.28707 0.47369 0.0
H1037 H 0.31242 0.35607 0.36275 0.0
H1038 H 0.32981 0.36347 0.39832 0.0
H1039 H 0.33145 0.35138 0.35927 0.0
H1040 H 0.37507 0.36628 0.47904 0.0
H1041 H 0.37726 0.33537 0.38642 0.0
H1042 H 0.32805 0.34122 0.49418 0.0
H1043 H 0.32955 0.35876 0.46352 0.0
H1044 H 0.34721 0.36485 0.49818 0.0
H1045 H 0.3314 0.3039 0.37787 0.0
H1046 H 0.3514 0.31736 0.34902 0.0
H1047 H 0.33258 0.32243 0.35066 0.0
C1048 C 0.66506 0.95742 0.43227 0.0
C1049 C 0.68092 0.96765 0.41048 0.0
C1050 C 0.65329 0.96453 0.44066 0.0
C1051 C 0.6573 0.98194 0.42583 0.0
C1052 C 0.67263 0.99169 0.40176 0.0
C1053 C 0.68453 0.98457 0.39493 0.0
C1054 C 0.6374 0.95405 0.46725 0.0
C1055 C 0.67694 0.01003 0.38451 0.0
C1056 C 0.62152 -0.00246 0.42588 0.0
C1057 C 0.62907 0.01169 0.45229 0.0
C1058 C 0.6302 0.98717 0.41771 0.0
C1059 C 0.64637 0.99073 0.4374 0.0
C1060 C 0.65314 0.00404 0.46611 0.0
C1061 C 0.6446 0.01471 0.47269 0.0
C1062 C 0.62295 0.97351 0.38622 0.0
C1063 C 0.66999 0.00771 0.48851 0.0
H1064 H 0.66255 0.94445 0.44474 0.0
H1065 H 0.69687 0.99238 0.3781 0.0
H1066 H 0.64044 0.96213 0.49308 0.0
H1067 H 0.62423 0.95248 0.4561 0.0
H1068 H 0.63522 0.93997 0.47378 0.0
H1069 H 0.68797 0.01462 0.36322 0.0
H1070 H 0.66418 0.00884 0.3719 0.0
H1071 H 0.68174 0.02101 0.40587 0.0
H1072 H 0.60964 0.99555 0.40976 0.0
H1073 H 0.65034 0.02576 0.49302 0.0
H1074 H 0.62149 0.95992 0.39437 0.0
H1075 H 0.63311 0.97905 0.36329 0.0
H1076 H 0.60924 0.97108 0.37609 0.0
H1077 H 0.66872 0.99436 0.49791 0.0
H1078 H 0.67185 0.01658 0.51279 0.0
H1079 H 0.68274 0.01492 0.47136 0.0
C1080 C 0.30889 0.0878 0.50095 0.0
C1081 C 0.29467 0.06901 0.50395 0.0
C1082 C 0.32067 0.09439 0.47004 0.0
C1083 C 0.31831 0.08195 0.44115 0.0
C1084 C 0.30355 0.06317 0.44329 0.0
C1085 C 0.29194 0.05696 0.47447 0.0
C1086 C 0.33609 0.11454 0.46893 0.0
C1087 C 0.30043 0.04939 0.41318 0.0
C1088 C 0.33928 0.10028 0.34649 0.0
C1089 C 0.35515 0.09817 0.34643 0.0
C1090 C 0.32749 0.09552 0.37728 0.0
C1091 C 0.33151 0.08838 0.4091 0.0
C1092 C 0.34782 0.08679 0.40973 0.0
C1093 C 0.35943 0.09171 0.37854 0.0
C1094 C 0.31039 0.0976 0.3753 0.0
C1095 C 0.35271 0.0793 0.44304 0.0
H1096 H 0.31129 0.09731 0.52342 0.0
H1097 H 0.28118 0.04239 0.47633 0.0
H1098 H 0.34984 0.11525 0.46941 0.0
H1099 H 0.33537 0.12122 0.44312 0.0
H1100 H 0.3354 0.12272 0.4924 0.0
H1101 H 0.28786 0.03553 0.41807 0.0
H1102 H 0.29884 0.05484 0.38648 0.0
H1103 H 0.31277 0.0475 0.41098 0.0
H1104 H 0.33576 0.10528 0.32205 0.0
H1105 H 0.37154 0.08991 0.37897 0.0
H1106 H 0.31016 0.10603 0.39872 0.0
H1107 H 0.29763 0.08366 0.37727 0.0
H1108 H 0.30977 0.10436 0.34947 0.0
H1109 H 0.3534 0.0875 0.46761 0.0
H1110 H 0.36627 0.0797 0.43995 0.0
H1111 H 0.34164 0.06463 0.44805 0.0
C1112 C 0.9056 0.22666 0.50767 0.0
C1113 C 0.92325 0.22802 0.5093 0.0
C1114 C 0.89956 0.23188 0.47613 0.0
C1115 C 0.91134 0.2386 0.44506 0.0
C1116 C 0.92886 0.23935 0.44591 0.0
C1117 C 0.93461 0.2341 0.47793 0.0
C1118 C 0.88078 0.23081 0.47653 0.0
C1119 C 0.9418 0.24624 0.41328 0.0
C1120 C 0.89104 0.23952 0.35167 0.0
C1121 C 0.89662 0.25854 0.34759 0.0
C1122 C 0.89543 0.2328 0.38336 0.0
C1123 C 0.90557 0.24531 0.41207 0.0
C1124 C 0.91055 0.26435 0.40888 0.0
C1125 C 0.90606 0.27073 0.37678 0.0
C1126 C 0.88979 0.21241 0.38551 0.0
C1127 C 0.92119 0.27815 0.43895 0.0
H1128 H 0.89662 0.22201 0.53155 0.0
H1129 H 0.94826 0.2353 0.47869 0.0
H1130 H 0.88274 0.24504 0.47374 0.0
H1131 H 0.87225 0.22248 0.45292 0.0
H1132 H 0.87288 0.22445 0.50212 0.0
H1133 H 0.95451 0.24512 0.41752 0.0
H1134 H 0.93443 0.23814 0.38851 0.0
H1135 H 0.94617 0.26108 0.40779 0.0
H1136 H 0.8838 0.22989 0.32946 0.0
H1137 H 0.91054 0.28544 0.37411 0.0
H1138 H 0.88182 0.20612 0.41102 0.0
H1139 H 0.90246 0.21103 0.38643 0.0
H1140 H 0.88113 0.20429 0.36179 0.0
H1141 H 0.9137 0.27311 0.46538 0.0
H1142 H 0.92319 0.29223 0.43321 0.0
H1143 H 0.93511 0.27941 0.44228 0.0
C1144 C 0.75609 0.69708 0.47221 0.0
C1145 C 0.76439 0.69439 0.50347 0.0
C1146 C 0.75104 0.68496 0.44184 0.0
C1147 C 0.75432 0.66967 0.4424 0.0
C1148 C 0.76339 0.66732 0.47315 0.0
C1149 C 0.76829 0.67965 0.50315 0.0
C1150 C 0.74149 0.68811 0.40967 0.0
C1151 C 0.76724 0.65132 0.47505 0.0
C1152 C 0.72258 0.62804 0.38135 0.0
C1153 C 0.73368 0.63123 0.35003 0.0
C1154 C 0.72929 0.6401 0.41188 0.0
C1155 C 0.74761 0.6558 0.41143 0.0
C1156 C 0.75918 0.6586 0.38067 0.0
C1157 C 0.75211 0.64636 0.3505 0.0
C1158 C 0.71645 0.63646 0.44405 0.0
C1159 C 0.7788 0.67503 0.37893 0.0
H1160 H 0.75282 0.70824 0.47198 0.0
H1161 H 0.77461 0.67726 0.52701 0.0
H1162 H 0.74888 0.68872 0.38389 0.0
H1163 H 0.72701 0.67622 0.40722 0.0
H1164 H 0.74093 0.70121 0.41235 0.0
H1165 H 0.7755 0.65211 0.49964 0.0
H1166 H 0.75384 0.63789 0.47573 0.0
H1167 H 0.77492 0.65115 0.45028 0.0
H1168 H 0.70831 0.61655 0.38148 0.0
H1169 H 0.7609 0.64911 0.32663 0.0
H1170 H 0.71334 0.64802 0.44662 0.0
H1171 H 0.72334 0.63607 0.46981 0.0
H1172 H 0.70304 0.62311 0.44128 0.0
H1173 H 0.77835 0.68822 0.37832 0.0
H1174 H 0.78649 0.67457 0.35437 0.0
H1175 H 0.78674 0.67543 0.40373 0.0
C1176 C 0.08271 0.36263 0.14344 0.0
C1177 C 0.09331 0.36075 0.17143 0.0
C1178 C 0.0779 0.35157 0.11153 0.0
C1179 C 0.08368 0.33815 0.10738 0.0
C1180 C 0.09489 0.33661 0.13491 0.0
C1181 C 0.09962 0.34793 0.16636 0.0
C1182 C 0.06612 0.35386 0.0827 0.0
C1183 C 0.10134 0.3225 0.1318 0.0
C1184 C 0.05458 0.29681 0.04376 0.0
C1185 C 0.0653 0.30211 0.01153 0.0
C1186 C 0.06055 0.30819 0.07527 0.0
C1187 C 0.07763 0.32543 0.0747 0.0
C1188 C 0.08875 0.33062 0.04264 0.0
C1189 C 0.08252 0.31893 0.01165 0.0
C1190 C 0.04834 0.30196 0.10898 0.0
C1191 C 0.10701 0.34885 0.04067 0.0
H1192 H 0.07766 0.37237 0.14688 0.0
H1193 H 0.10773 0.34618 0.18767 0.0
H1194 H 0.07301 0.3564 0.05557 0.0
H1195 H 0.05243 0.34081 0.08051 0.0
H1196 H 0.06361 0.36558 0.08895 0.0
H1197 H 0.11067 0.32359 0.1547 0.0
H1198 H 0.08906 0.30818 0.13165 0.0
H1199 H 0.10888 0.3244 0.10561 0.0
H1200 H 0.04126 0.28393 0.04419 0.0
H1201 H 0.09098 0.32333 0.98706 0.0
H1202 H 0.04352 0.31202 0.1151 0.0
H1203 H 0.05646 0.30179 0.133 0.0
H1204 H 0.03591 0.28784 0.1057 0.0
H1205 H 0.1044 0.36069 0.04409 0.0
H1206 H 0.11437 0.35059 0.01426 0.0
H1207 H 0.11635 0.3497 0.06328 0.0
C1208 C 0.64267 0.75806 0.17231 0.0
C1209 C 0.62799 0.73942 0.17419 0.0
C1210 C 0.65439 0.76493 0.14135 0.0
C1211 C 0.65155 0.75293 0.11135 0.0
C1212 C 0.63632 0.73434 0.11241 0.0
C1213 C 0.62473 0.72786 0.14361 0.0
C1214 C 0.67025 0.78489 0.14137 0.0
C1215 C 0.63272 0.721 0.08116 0.0
C1216 C 0.67324 0.77205 0.0174 0.0
C1217 C 0.68865 0.7692 0.01703 0.0
C1218 C 0.66143 0.76739 0.04817 0.0
C1219 C 0.6649 0.7595 0.07952 0.0
C1220 C 0.6808 0.7572 0.07986 0.0
C1221 C 0.69249 0.76215 0.04882 0.0
C1222 C 0.64484 0.77034 0.04662 0.0
C1223 C 0.68508 0.7488 0.11255 0.0
H1224 H 0.64544 0.7672 0.19561 0.0
H1225 H 0.6136 0.71342 0.14463 0.0
H1226 H 0.68377 0.78509 0.14169 0.0
H1227 H 0.66993 0.79213 0.11606 0.0
H1228 H 0.66976 0.79285 0.16542 0.0
H1229 H 0.61982 0.70731 0.08528 0.0
H1230 H 0.63147 0.72714 0.05506 0.0
H1231 H 0.6447 0.71858 0.07827 0.0
H1232 H 0.67005 0.77749 0.99315 0.0
H1233 H 0.7042 0.75969 0.04895 0.0
H1234 H 0.64474 0.77838 0.07086 0.0
H1235 H 0.63175 0.75663 0.04735 0.0
H1236 H 0.64482 0.77789 0.02148 0.0
H1237 H 0.68595 0.75673 0.1377 0.0
H1238 H 0.69838 0.74869 0.1093 0.0
H1239 H 0.6736 0.73423 0.11665 0.0
C1240 C 0.22981 0.88478 0.17232 0.0
C1241 C 0.24806 0.88758 0.17219 0.0
C1242 C 0.22249 0.88939 0.14177 0.0
C1243 C 0.23363 0.89711 0.11007 0.0
C1244 C 0.25172 0.89916 0.10907 0.0
C1245 C 0.25867 0.89434 0.13996 0.0
C1246 C 0.2031 0.88678 0.14408 0.0
C1247 C 0.26412 0.90728 0.07593 0.0
C1248 C 0.21231 0.89903 0.01826 0.0
C1249 C 0.21673 0.91782 0.01649 0.0
C1250 C 0.21717 0.89196 0.04887 0.0
C1251 C 0.2268 0.9039 0.07868 0.0
C1252 C 0.23059 0.92264 0.0778 0.0
C1253 C 0.22548 0.92933 0.04692 0.0
C1254 C 0.21269 0.87187 0.04861 0.0
C1255 C 0.24081 0.93592 0.10885 0.0
H1256 H 0.22141 0.87961 0.1969 0.0
H1257 H 0.2728 0.89675 0.13938 0.0
H1258 H 0.20397 0.90061 0.14377 0.0
H1259 H 0.19472 0.87888 0.11997 0.0
H1260 H 0.19565 0.87925 0.16933 0.0
H1261 H 0.27732 0.90692 0.07846 0.0
H1262 H 0.25668 0.8995 0.05093 0.0
H1263 H 0.26763 0.922 0.07211 0.0
H1264 H 0.20562 0.88993 0.99505 0.0
H1265 H 0.22918 0.94388 0.04599 0.0
H1266 H 0.2053 0.86473 0.07414 0.0
H1267 H 0.22583 0.87136 0.0476 0.0
H1268 H 0.20391 0.864 0.02482 0.0
H1269 H 0.23365 0.92987 0.1352 0.0
H1270 H 0.24182 0.94973 0.10504 0.0
H1271 H 0.25515 0.93808 0.11101 0.0
C1272 C 0.64412 0.88981 0.66825 0.0
C1273 C 0.63023 0.89486 0.67052 0.0
C1274 C 0.65623 0.89488 0.63798 0.0
C1275 C 0.65439 0.90514 0.60884 0.0
C1276 C 0.63985 0.90951 0.61004 0.0
C1277 C 0.62801 0.90438 0.64082 0.0
C1278 C 0.67151 0.88994 0.63795 0.0
C1279 C 0.63721 0.9202 0.57935 0.0
C1280 C 0.69634 0.9362 0.54824 0.0
C1281 C 0.69255 0.92531 0.51646 0.0
C1282 C 0.68432 0.92963 0.57879 0.0
C1283 C 0.66799 0.91176 0.57762 0.0
C1284 C 0.66444 0.90044 0.54621 0.0
C1285 C 0.67675 0.90728 0.51622 0.0
C1286 C 0.68879 0.94207 0.61192 0.0
C1287 C 0.64721 0.88135 0.54366 0.0
H1288 H 0.64612 0.88252 0.6909 0.0
H1289 H 0.61743 0.90845 0.64212 0.0
H1290 H 0.671 0.88246 0.61239 0.0
H1291 H 0.68533 0.90291 0.63881 0.0
H1292 H 0.67048 0.88106 0.66168 0.0
H1293 H 0.62459 0.9215 0.58325 0.0
H1294 H 0.64959 0.93443 0.57759 0.0
H1295 H 0.63603 0.91319 0.55277 0.0
H1296 H 0.7084 0.95014 0.5489 0.0
H1297 H 0.67352 0.89867 0.49194 0.0
H1298 H 0.68888 0.93451 0.63694 0.0
H1299 H 0.67781 0.94592 0.61569 0.0
H1300 H 0.70252 0.9551 0.60948 0.0
H1301 H 0.64642 0.87267 0.56747 0.0
H1302 H 0.64691 0.87388 0.51817 0.0
H1303 H 0.63455 0.88276 0.5444 0.0
C1304 C 0.05239 0.75398 0.54062 0.0
C1305 C 0.06449 0.76351 0.51136 0.0
C1306 C 0.05867 0.74867 0.5718 0.0
C1307 C 0.07751 0.75289 0.57394 0.0
C1308 C 0.08995 0.76309 0.54517 0.0
C1309 C 0.08334 0.7683 0.51443 0.0
C1310 C 0.04496 0.738 0.60199 0.0
C1311 C 0.11013 0.76792 0.54622 0.0
C1312 C 0.09671 0.75084 0.66782 0.0
C1313 C 0.09473 0.73291 0.66789 0.0
C1314 C 0.09147 0.75761 0.63736 0.0
C1315 C 0.08409 0.74627 0.60585 0.0
C1316 C 0.08266 0.72844 0.60514 0.0
C1317 C 0.08796 0.72198 0.63607 0.0
C1318 C 0.09329 0.7767 0.63939 0.0
C1319 C 0.07502 0.71594 0.572 0.0
H1320 H 0.03782 0.7501 0.53871 0.0
H1321 H 0.0929 0.77561 0.49215 0.0
H1322 H 0.04315 0.7238 0.60422 0.0
H1323 H 0.05042 0.74508 0.62865 0.0
H1324 H 0.03107 0.73664 0.59717 0.0
H1325 H 0.11825 0.77669 0.52259 0.0
H1326 H 0.11684 0.77549 0.57187 0.0
H1327 H 0.11092 0.75491 0.54604 0.0
H1328 H 0.10189 0.7595 0.69208 0.0
H1329 H 0.08626 0.7081 0.63566 0.0
H1330 H 0.07926 0.77532 0.63754 0.0
H1331 H 0.1016 0.7854 0.61591 0.0
H1332 H 0.10003 0.78414 0.66517 0.0
H1333 H 0.0603 0.71223 0.56737 0.0
H1334 H 0.07555 0.70284 0.57504 0.0
H1335 H 0.08304 0.72341 0.54722 0.0
C1336 C 0.23017 0.30069 0.54812 0.0
C1337 C 0.22483 0.30584 0.51565 0.0
C1338 C 0.23509 0.31203 0.57965 0.0
C1339 C 0.23459 0.32895 0.57894 0.0
C1340 C 0.22842 0.33379 0.54681 0.0
C1341 C 0.22365 0.32225 0.5157 0.0
C1342 C 0.24154 0.30627 0.61332 0.0
C1343 C 0.22751 0.35157 0.54478 0.0
C1344 C 0.23587 0.3517 0.67087 0.0
C1345 C 0.25491 0.36512 0.67435 0.0
C1346 C 0.22897 0.34021 0.63965 0.0
C1347 C 0.24137 0.34199 0.61113 0.0
C1348 C 0.26045 0.35598 0.61379 0.0
C1349 C 0.26694 0.3674 0.64515 0.0
C1350 C 0.20851 0.32569 0.63784 0.0
C1351 C 0.2742 0.35838 0.58414 0.0
H1352 H 0.23126 0.28815 0.54852 0.0
H1353 H 0.21949 0.32643 0.49095 0.0
H1354 H 0.2564 0.31661 0.61885 0.0
H1355 H 0.23337 0.30611 0.63756 0.0
H1356 H 0.24014 0.29225 0.61031 0.0
H1357 H 0.22115 0.35269 0.51883 0.0
H1358 H 0.2193 0.35232 0.56806 0.0
H1359 H 0.2418 0.36381 0.54693 0.0
H1360 H 0.22639 0.34971 0.69316 0.0
H1361 H 0.28169 0.37751 0.6475 0.0
H1362 H 0.20686 0.31152 0.63842 0.0
H1363 H 0.20238 0.32697 0.61176 0.0
H1364 H 0.20045 0.32691 0.66097 0.0
H1365 H 0.27518 0.34551 0.58196 0.0
H1366 H 0.28838 0.37038 0.58951 0.0
H1367 H 0.26932 0.36054 0.55727 0.0
C1368 C 0.90148 0.6785 1.00533 0.0
C1369 C 0.92041 0.69241 1.00805 0.0
C1370 C 0.89448 0.66698 0.97428 0.0
C1371 C 0.90659 0.66936 0.9448 0.0
C1372 C 0.92553 0.6838 0.94664 0.0
C1373 C 0.93221 0.69511 0.97817 0.0
C1374 C 0.87422 0.6518 0.97357 0.0
C1375 C 0.9389 0.68696 0.9157 0.0
C1376 C 0.89509 0.62867 0.87995 0.0
C1377 C 0.88824 0.63342 0.84901 0.0
C1378 C 0.9007 0.63999 0.91154 0.0
C1379 C 0.89953 0.65653 0.91236 0.0
C1380 C 0.89193 0.66099 0.88187 0.0
C1381 C 0.88634 0.6494 0.85076 0.0
C1382 C 0.90851 0.63458 0.9436 0.0
C1383 C 0.89038 0.67843 0.88148 0.0
H1384 H 0.89214 0.67617 0.02806 0.0
H1385 H 0.94685 0.70567 0.97985 0.0
H1386 H 0.8673 0.6531 0.94865 0.0
H1387 H 0.87323 0.63792 0.97249 0.0
H1388 H 0.86642 0.65224 0.99797 0.0
H1389 H 0.95294 0.69929 0.92049 0.0
H1390 H 0.94043 0.67445 0.91228 0.0
H1391 H 0.93329 0.68901 0.88961 0.0
H1392 H 0.89676 0.61648 0.87905 0.0
H1393 H 0.88112 0.65333 0.82718 0.0
H1394 H 0.90094 0.63405 0.96905 0.0
H1395 H 0.92339 0.64529 0.94769 0.0
H1396 H 0.90755 0.6208 0.93958 0.0
H1397 H 0.8825 0.67875 0.90577 0.0
H1398 H 0.88334 0.67947 0.85644 0.0
H1399 H 0.90453 0.69094 0.88298 0.0
C1400 C 0.29303 0.23656 0.98215 0.0
C1401 C 0.29513 0.22693 0.01182 0.0
C1402 C 0.3045 0.24115 0.95088 0.0
C1403 C 0.31849 0.23603 0.94896 0.0
C1404 C 0.32015 0.22561 0.97804 0.0
C1405 C 0.30849 0.22119 1.00895 0.0
C1406 C 0.30212 0.25215 0.92048 0.0
C1407 C 0.33477 0.21978 0.97719 0.0
C1408 C 0.33947 0.23759 0.85483 0.0
C1409 C 0.3558 0.25524 0.85498 0.0
C1410 C 0.32749 0.23099 0.8854 0.0
C1411 C 0.33181 0.24221 0.91719 0.0
C1412 C 0.34861 0.25971 0.91812 0.0
C1413 C 0.36036 0.26598 0.88715 0.0
C1414 C 0.30982 0.21223 0.88316 0.0
C1415 C 0.35386 0.27212 0.95147 0.0
H1416 H 0.28289 0.24119 0.98388 0.0
H1417 H 0.31038 0.2138 0.03155 0.0
H1418 H 0.31487 0.2661 0.9183 0.0
H1419 H 0.30031 0.24496 0.89388 0.0
H1420 H 0.28994 0.25413 0.92504 0.0
H1421 H 0.33346 0.21067 1.00068 0.0
H1422 H 0.33373 0.21224 0.9514 0.0
H1423 H 0.34889 0.23237 0.9779 0.0
H1424 H 0.33569 0.22909 0.83031 0.0
H1425 H 0.37283 0.27964 0.88778 0.0
H1426 H 0.2975 0.21418 0.88453 0.0
H1427 H 0.30892 0.20338 0.90678 0.0
H1428 H 0.30901 0.20466 0.85748 0.0
H1429 H 0.34332 0.27647 0.95611 0.0
H1430 H 0.3678 0.28485 0.94868 0.0
H1431 H 0.35393 0.26433 0.97615 0.0
C1432 C 0.716 0.08622 0.8761 0.0
C1433 C 0.72848 0.09573 0.84733 0.0
C1434 C 0.72196 0.08125 0.90816 0.0
C1435 C 0.74085 0.08579 0.91167 0.0
C1436 C 0.75365 0.09598 0.88339 0.0
C1437 C 0.74735 0.10086 0.85177 0.0
C1438 C 0.70789 0.07059 0.93782 0.0
C1439 C 0.7739 0.10115 0.88592 0.0
C1440 C 0.75898 0.08462 1.0071 0.0
C1441 C 0.75722 0.06678 1.00815 0.0
C1442 C 0.75396 0.09105 0.97585 0.0
C1443 C 0.74712 0.0795 0.9445 0.0
C1444 C 0.74593 0.06178 0.9448 0.0
C1445 C 0.75093 0.05562 0.97656 0.0
C1446 C 0.75543 0.11001 0.97684 0.0
C1447 C 0.73892 0.04909 0.91182 0.0
H1448 H 0.7014 0.08209 0.87313 0.0
H1449 H 0.7572 0.10817 0.82988 0.0
H1450 H 0.70622 0.05647 0.94074 0.0
H1451 H 0.7129 0.0778 0.96451 0.0
H1452 H 0.69399 0.06901 0.93193 0.0
H1453 H 0.78228 0.10987 0.86247 0.0
H1454 H 0.78015 0.10888 0.91166 0.0
H1455 H 0.77492 0.08827 0.88662 0.0
H1456 H 0.76375 0.09343 0.0312 0.0
H1457 H 0.74944 0.04183 0.97689 0.0
H1458 H 0.74134 0.10837 0.97391 0.0
H1459 H 0.76399 0.11866 0.95355 0.0
H1460 H 0.76174 0.11763 1.00272 0.0
H1461 H 0.72421 0.04514 0.90617 0.0
H1462 H 0.73963 0.03614 0.91572 0.0
H1463 H 0.74723 0.05652 0.88728 0.0
C1464 C 0.02941 0.43132 0.71524 0.0
C1465 C 0.02611 0.43917 0.684 0.0
C1466 C 0.01785 0.42667 0.74637 0.0
C1467 C 0.0026 0.42999 0.74656 0.0
C1468 C -0.0002 0.43883 0.71596 0.0
C1469 C 0.01154 0.44329 0.68517 0.0
C1470 C 0.02141 0.41732 0.77839 0.0
C1471 C 0.98383 0.44275 0.71497 0.0
C1472 C 0.9619 0.39824 0.8091 0.0
C1473 C 0.96547 0.40938 0.84046 0.0
C1474 C 0.97349 0.40498 0.778 0.0
C1475 C 0.98909 0.42336 0.77798 0.0
C1476 C 0.99221 0.435 0.80872 0.0
C1477 C 0.9804 0.42791 0.83945 0.0
C1478 C 0.96956 0.39208 0.7458 0.0
C1479 C 0.00858 0.45467 0.80993 0.0
H1480 H 0.04047 0.4279 0.71478 0.0
H1481 H 0.00875 0.44932 0.66133 0.0
H1482 H 0.02223 0.42479 0.80417 0.0
H1483 H 0.00963 0.4028 0.78127 0.0
H1484 H 0.03453 0.41686 0.77514 0.0
H1485 H 0.98442 0.45104 0.69056 0.0
H1486 H 0.97038 0.42936 0.71459 0.0
H1487 H 0.9839 0.45042 0.73994 0.0
H1488 H 0.95056 0.38389 0.80942 0.0
H1489 H 0.98342 0.43672 0.86338 0.0
H1490 H 0.98102 0.38888 0.74285 0.0
H1491 H 0.96903 0.39896 0.72012 0.0
H1492 H 0.95618 0.37872 0.74889 0.0
H1493 H 0.02179 0.45426 0.8103 0.0
H1494 H 0.00824 0.46245 0.83444 0.0
H1495 H 0.00882 0.46248 0.78506 0.0
C1496 C 0.59945 0.56671 0.80642 0.0
C1497 C 0.58763 0.55918 0.83691 0.0
C1498 C 0.59354 0.57189 0.77449 0.0
C1499 C 0.57529 0.5694 0.77267 0.0
C1500 C 0.56305 0.56112 0.80275 0.0
C1501 C 0.56935 0.55619 0.83438 0.0
C1502 C 0.60708 0.58064 0.74314 0.0
C1503 C 0.54343 0.55798 0.80201 0.0
C1504 C 0.5671 0.60051 0.70635 0.0
C1505 C 0.5592 0.58876 0.67587 0.0
C1506 C 0.57212 0.59432 0.73809 0.0
C1507 C 0.56917 0.57588 0.73972 0.0
C1508 C 0.56066 0.56377 0.70957 0.0
C1509 C 0.55582 0.57032 0.67818 0.0
C1510 C 0.58108 0.60772 0.76958 0.0
C1511 C 0.5571 0.54399 0.71006 0.0
H1512 H 0.61363 0.56926 0.80798 0.0
H1513 H 0.56001 0.55038 0.85759 0.0
H1514 H 0.60082 0.57284 0.71746 0.0
H1515 H 0.61008 0.59517 0.73886 0.0
H1516 H 0.62048 0.58093 0.74808 0.0
H1517 H 0.53528 0.55044 0.82668 0.0
H1518 H 0.54391 0.57161 0.80033 0.0
H1519 H 0.53594 0.54984 0.77736 0.0
H1520 H 0.56992 0.61479 0.70504 0.0
H1521 H 0.54974 0.56102 0.655 0.0
H1522 H 0.59542 0.61022 0.77409 0.0
H1523 H 0.57308 0.60157 0.79513 0.0
H1524 H 0.58189 0.62136 0.76467 0.0
H1525 H 0.57057 0.54414 0.71196 0.0
H1526 H 0.5496 0.53603 0.6852 0.0
H1527 H 0.54875 0.53649 0.73451 0.0
C1528 C 0.42032 0.02607 0.81415 0.0
C1529 C 0.42688 0.02179 0.84612 0.0
C1530 C 0.41522 0.01445 0.78299 0.0
C1531 C 0.41674 -0.0019 0.78345 0.0
C1532 C 0.42399 0.99406 0.81509 0.0
C1533 C 0.42892 0.00587 0.8459 0.0
C1534 C 0.40762 0.01939 0.74991 0.0
C1535 C 0.42604 0.97692 0.81681 0.0
C1536 C 0.38512 0.95906 0.71721 0.0
C1537 C 0.39711 0.96209 0.68748 0.0
C1538 C 0.39143 0.97032 0.74888 0.0
C1539 C 0.41025 0.98501 0.75122 0.0
C1540 C 0.42262 0.9876 0.72205 0.0
C1541 C 0.41593 0.97618 0.69069 0.0
C1542 C 0.37773 0.96695 0.77929 0.0
C1543 C 0.4428 0.00294 0.72332 0.0
H1544 H 0.41855 0.0382 0.8138 0.0
H1545 H 0.43395 0.00231 0.87026 0.0
H1546 H 0.41579 0.02018 0.7252 0.0
H1547 H 0.39297 0.00829 0.74497 0.0
H1548 H 0.40798 0.03292 0.75322 0.0
H1549 H 0.43289 0.97628 0.84248 0.0
H1550 H 0.41207 0.96418 0.81502 0.0
H1551 H 0.43434 0.97667 0.79318 0.0
H1552 H 0.37054 0.94836 0.7152 0.0
H1553 H 0.42542 0.97877 0.66809 0.0
H1554 H 0.37579 0.97924 0.78201 0.0
H1555 H 0.38327 0.96523 0.80576 0.0
H1556 H 0.36389 0.95437 0.77434 0.0
H1557 H 0.44359 0.01674 0.72321 0.0
H1558 H 0.45095 0.00234 0.69971 0.0
H1559 H 0.44945 0.00203 0.749 0.0
C1560 C 0.56853 0.96058 0.21168 0.0
C1561 C 0.5585 0.96285 0.18304 0.0
C1562 C 0.57367 0.972 0.24312 0.0
C1563 C 0.56883 0.98617 0.24604 0.0
C1564 C 0.55823 0.98815 0.21782 0.0
C1565 C 0.55312 0.97646 0.18693 0.0
C1566 C 0.58475 0.96923 0.2728 0.0
C1567 C 0.55282 0.00309 0.21963 0.0
C1568 C 0.56969 0.00634 0.34043 0.0
C1569 C 0.58738 0.0226 0.34111 0.0
C1570 C 0.56346 0.99451 0.3097 0.0
C1571 C 0.57502 -0.00095 0.27839 0.0
C1572 C 0.59256 0.0158 0.27822 0.0
C1573 C 0.59856 0.02731 0.30956 0.0
C1574 C 0.54472 0.97678 0.31126 0.0
C1575 C 0.60521 0.02135 0.24519 0.0
H1576 H 0.57289 0.95026 0.20909 0.0
H1577 H 0.54545 0.97851 0.16511 0.0
H1578 H 0.59875 0.98189 0.27509 0.0
H1579 H 0.5777 0.96721 0.29963 0.0
H1580 H 0.58659 0.95701 0.2674 0.0
H1581 H 0.54407 0.00247 0.196 0.0
H1582 H 0.54501 0.00168 0.24523 0.0
H1583 H 0.56558 0.01708 0.2201 0.0
H1584 H 0.56088 0.00239 0.36453 0.0
H1585 H 0.61225 0.03974 0.30961 0.0
H1586 H 0.54668 0.96449 0.30871 0.0
H1587 H 0.53588 0.97627 0.28798 0.0
H1588 H 0.53714 0.97551 0.33716 0.0
H1589 H 0.6095 0.01079 0.2402 0.0
H1590 H 0.61797 0.03522 0.24861 0.0
H1591 H 0.59763 0.02173 0.22046 0.0
C1592 C 0.97939 0.5606 0.33802 0.0
C1593 C 0.96511 0.56505 0.3415 0.0
C1594 C 0.99078 0.56557 0.30664 0.0
C1595 C 0.98786 0.57516 0.2776 0.0
C1596 C 0.97299 0.57901 0.28016 0.0
C1597 C 0.96185 0.57397 0.312 0.0
C1598 C 0.00642 0.56116 0.3052 0.0
C1599 C 0.96923 0.58903 0.2497 0.0
C1600 C 0.02821 0.606 0.21331 0.0
C1601 C 0.02405 0.59469 0.18203 0.0
C1602 C 0.01679 0.59969 0.24474 0.0
C1603 C 0.00068 0.58165 0.24507 0.0
C1604 C -0.00329 0.56997 0.21407 0.0
C1605 C 0.00841 0.57657 0.18313 0.0
C1606 C 0.0217 0.61256 0.2773 0.0
C1607 C 0.97971 0.55067 0.21311 0.0
H1608 H 0.98217 0.55376 0.36045 0.0
H1609 H 0.95097 0.57758 0.3142 0.0
H1610 H 0.00542 0.55333 0.27984 0.0
H1611 H 0.02006 0.57435 0.30449 0.0
H1612 H 0.0063 0.5528 0.32913 0.0
H1613 H 0.95651 0.59004 0.25483 0.0
H1614 H 0.98131 0.60337 0.24665 0.0
H1615 H 0.96753 0.5817 0.22332 0.0
H1616 H 0.04015 0.62002 0.21296 0.0
H1617 H 0.00488 0.56765 0.15925 0.0
H1618 H 0.02273 0.60552 0.30232 0.0
H1619 H 0.01049 0.61597 0.28208 0.0
H1620 H 0.03511 0.62581 0.27347 0.0
H1621 H 0.97976 0.54236 0.2369 0.0
H1622 H 0.97895 0.54299 0.18761 0.0
H1623 H 0.96689 0.55174 0.21516 0.0
C1624 C 0.38867 0.41673 0.21512 0.0
C1625 C 0.40054 0.42728 0.18632 0.0
C1626 C 0.39559 0.41203 0.24621 0.0
C1627 C 0.41488 0.41791 0.24873 0.0
C1628 C 0.42703 0.4291 0.22041 0.0
C1629 C 0.41977 0.43368 0.18978 0.0
C1630 C 0.38213 0.40025 0.27589 0.0
C1631 C 0.44765 0.43569 0.2218 0.0
C1632 C 0.43442 0.41666 0.34288 0.0
C1633 C 0.43392 0.39938 0.34234 0.0
C1634 C 0.42863 0.423 0.31252 0.0
C1635 C 0.42223 0.41193 0.28046 0.0
C1636 C 0.42244 0.39488 0.27908 0.0
C1637 C 0.42823 0.38881 0.30993 0.0
C1638 C 0.42869 0.44126 0.31533 0.0
C1639 C 0.41593 0.38269 0.24536 0.0
H1640 H 0.37381 0.4116 0.21292 0.0
H1641 H 0.42918 0.44179 0.16786 0.0
H1642 H 0.38162 0.3866 0.27759 0.0
H1643 H 0.38697 0.4072 0.30285 0.0
H1644 H 0.36776 0.39763 0.27092 0.0
H1645 H 0.45541 0.44505 0.19856 0.0
H1646 H 0.45376 0.44325 0.24777 0.0
H1647 H 0.44979 0.42347 0.22115 0.0
H1648 H 0.4387 0.42502 0.36761 0.0
H1649 H 0.42765 0.37543 0.309 0.0
H1650 H 0.41416 0.43859 0.31364 0.0
H1651 H 0.43655 0.45052 0.29212 0.0
H1652 H 0.43498 0.44872 0.34134 0.0
H1653 H 0.40091 0.37768 0.24058 0.0
H1654 H 0.41788 0.37037 0.24779 0.0
H1655 H 0.42367 0.39089 0.22094 0.0
C1656 C 0.31996 0.18881 0.13472 0.0
C1657 C 0.30364 0.1872 0.14959 0.0
C1658 C 0.32606 0.17642 0.14508 0.0
C1659 C 0.31592 0.16266 0.17195 0.0
C1660 C 0.29934 0.16094 0.18685 0.0
C1661 C 0.2932 0.17307 0.17494 0.0
C1662 C 0.34349 0.17826 0.12775 0.0
C1663 C 0.28853 0.14683 0.21639 0.0
C1664 C 0.32505 0.1223 0.18177 0.0
C1665 C 0.33907 0.12926 0.20842 0.0
C1666 C 0.31724 0.13299 0.16967 0.0
C1667 C 0.32322 0.1507 0.18565 0.0
C1668 C 0.33676 0.15735 0.21386 0.0
C1669 C 0.34481 0.14667 0.22444 0.0
C1670 C 0.30325 0.12573 0.13876 0.0
C1671 C 0.34301 0.1759 0.23236 0.0
H1672 H 0.32791 0.19971 0.11489 0.0
H1673 H 0.28065 0.17202 0.18662 0.0
H1674 H 0.35469 0.18286 0.14858 0.0
H1675 H 0.34073 0.16452 0.1172 0.0
H1676 H 0.34868 0.18849 0.10488 0.0
H1677 H 0.27563 0.14696 0.22435 0.0
H1678 H 0.28463 0.13256 0.20712 0.0
H1679 H 0.29745 0.14987 0.24102 0.0
H1680 H 0.32081 0.10888 0.16919 0.0
H1681 H 0.35561 0.15193 0.24522 0.0
H1682 H 0.309 0.13525 0.11489 0.0
H1683 H 0.29022 0.12547 0.14704 0.0
H1684 H 0.29972 0.11146 0.13003 0.0
H1685 H 0.35057 0.18742 0.21248 0.0
H1686 H 0.35238 0.17821 0.256 0.0
H1687 H 0.33072 0.1767 0.24212 0.0
C1688 C 0.81282 0.12679 0.13301 0.0
C1689 C 0.79478 0.11602 0.14705 0.0
C1690 C 0.8244 0.14515 0.14515 0.0
C1691 C 0.81792 0.15245 0.17296 0.0
C1692 C 0.79972 0.14152 0.18737 0.0
C1693 C 0.7882 0.1235 0.17369 0.0
C1694 C 0.84353 0.15669 0.12832 0.0
C1695 C 0.7926 0.14864 0.2179 0.0
C1696 C 0.85563 0.19283 0.22676 0.0
C1697 C 0.85474 0.20791 0.21171 0.0
C1698 C 0.84322 0.17454 0.2153 0.0
C1699 C 0.83026 0.17153 0.18712 0.0
C1700 C 0.82933 0.18678 0.17192 0.0
C1701 C 0.84139 0.20482 0.18497 0.0
C1702 C 0.8441 0.15849 0.23305 0.0
C1703 C 0.81609 0.18414 0.14102 0.0
H1704 H 0.8178 0.12091 0.11234 0.0
H1705 H 0.77429 0.11496 0.18486 0.0
H1706 H 0.84526 0.17008 0.1179 0.0
H1707 H 0.85443 0.16016 0.14937 0.0
H1708 H 0.84595 0.14931 0.10542 0.0
H1709 H 0.7782 0.13818 0.2265 0.0
H1710 H 0.80198 0.15234 0.24197 0.0
H1711 H 0.79268 0.16153 0.20915 0.0
H1712 H 0.86599 0.19535 0.24756 0.0
H1713 H 0.84096 0.21661 0.17307 0.0
H1714 H 0.84868 0.15165 0.21272 0.0
H1715 H 0.83002 0.14782 0.24275 0.0
H1716 H 0.8539 0.16311 0.2566 0.0
H1717 H 0.81915 0.17779 0.11714 0.0
H1718 H 0.81717 0.19751 0.13224 0.0
H1719 H 0.80148 0.17439 0.1494 0.0
C1720 C 0.78128 0.63938 0.17325 0.0
C1721 C 0.77739 0.64771 0.20269 0.0
C1722 C 0.7995 0.64681 0.16006 0.0
C1723 C 0.81417 0.66249 0.17779 0.0
C1724 C 0.81027 0.67102 0.20752 0.0
C1725 C 0.79175 0.66369 0.21923 0.0
C1726 C 0.80307 0.63773 0.12753 0.0
C1727 C 0.82569 0.68739 0.22776 0.0
C1728 C 0.86151 0.6664 0.16891 0.0
C1729 C 0.87035 0.6811 0.14393 0.0
C1730 C 0.84335 0.66056 0.18094 0.0
C1731 C 0.83367 0.6692 0.16645 0.0
C1732 C 0.84242 0.68377 0.14048 0.0
C1733 C 0.86089 0.68983 0.13004 0.0
C1734 C 0.83463 0.64533 0.20947 0.0
C1735 C 0.83222 0.69278 0.12349 0.0
H1736 H 0.77001 0.62711 0.16029 0.0
H1737 H 0.78859 0.66999 0.24214 0.0
H1738 H 0.8113 0.64839 0.10648 0.0
H1739 H 0.81139 0.63125 0.13614 0.0
H1740 H 0.78991 0.62677 0.11486 0.0
H1741 H 0.82025 0.69259 0.24991 0.0
H1742 H 0.83535 0.68322 0.24001 0.0
H1743 H 0.83399 0.69903 0.20854 0.0
H1744 H 0.86904 0.65989 0.17999 0.0
H1745 H 0.86785 0.70121 0.11065 0.0
H1746 H 0.8222 0.63296 0.19791 0.0
H1747 H 0.82983 0.65024 0.23314 0.0
H1748 H 0.8445 0.64089 0.2195 0.0
H1749 H 0.8193 0.682 0.10986 0.0
H1750 H 0.8409 0.70362 0.10303 0.0
H1751 H 0.82791 0.69933 0.14502 0.0
C1752 C 0.14388 0.34361 0.28668 0.0
C1753 C 0.14441 0.35985 0.29921 0.0
C1754 C 0.15719 0.33901 0.29849 0.0
C1755 C 0.17079 0.35058 0.32448 0.0
C1756 C 0.17181 0.3674 0.33604 0.0
C1757 C 0.15874 0.372 0.32272 0.0
C1758 C 0.15607 0.32127 0.28462 0.0
C1759 C 0.18574 0.37978 0.36454 0.0
C1760 C 0.18497 0.32334 0.38662 0.0
C1761 C 0.20246 0.32797 0.37239 0.0
C1762 C 0.17499 0.33147 0.37249 0.0
C1763 C 0.18243 0.34394 0.34252 0.0
C1764 C 0.20035 0.34904 0.3287 0.0
C1765 C 0.21034 0.34118 0.34431 0.0
C1766 C 0.15618 0.32617 0.38877 0.0
C1767 C 0.20845 0.36187 0.29612 0.0
H1768 H 0.13282 0.33432 0.26829 0.0
H1769 H 0.15897 0.38448 0.33265 0.0
H1770 H 0.17013 0.32387 0.27665 0.0
H1771 H 0.15083 0.31064 0.30672 0.0
H1772 H 0.14657 0.31538 0.26072 0.0
H1773 H 0.18606 0.39332 0.36754 0.0
H1774 H 0.18197 0.37252 0.39138 0.0
H1775 H 0.19997 0.38261 0.35759 0.0
H1776 H 0.179 0.31313 0.40845 0.0
H1777 H 0.22379 0.34449 0.33311 0.0
H1778 H 0.14499 0.31768 0.36882 0.0
H1779 H 0.1553 0.33888 0.39475 0.0
H1780 H 0.15339 0.31796 0.41441 0.0
H1781 H 0.2 0.35485 0.27146 0.0
H1782 H 0.22316 0.36567 0.29071 0.0
H1783 H 0.20786 0.37485 0.30029 0.0
C1784 C 0.6943 0.8706 0.37766 0.0
C1785 C 0.68258 0.87832 0.37672 0.0
C1786 C 0.68779 0.85215 0.36656 0.0
C1787 C 0.66923 0.84132 0.35386 0.0
C1788 C 0.65731 0.84901 0.35299 0.0
C1789 C 0.66411 0.86742 0.3647 0.0
C1790 C 0.70075 0.84423 0.36841 0.0
C1791 C 0.63746 0.83786 0.3393 0.0
C1792 C 0.65689 0.79934 0.29383 0.0
C1793 C 0.64715 0.78479 0.31864 0.0
C1794 C 0.66425 0.81795 0.30495 0.0
C1795 C 0.66214 0.82183 0.34187 0.0
C1796 C 0.65277 0.80705 0.36719 0.0
C1797 C 0.6451 0.78861 0.35504 0.0
C1798 C 0.6738 0.83338 0.27709 0.0
C1799 C 0.65066 0.8107 0.40693 0.0
H1800 H 0.70858 0.879 0.38705 0.0
H1801 H 0.65505 0.87339 0.36379 0.0
H1802 H 0.69451 0.83152 0.38579 0.0
H1803 H 0.70269 0.84 0.34068 0.0
H1804 H 0.71467 0.85441 0.37967 0.0
H1805 H 0.63013 0.84604 0.33981 0.0
H1806 H 0.63736 0.83313 0.31084 0.0
H1807 H 0.62948 0.82518 0.35635 0.0
H1808 H 0.65821 0.79612 0.26558 0.0
H1809 H 0.63751 0.77713 0.37397 0.0
H1810 H 0.68823 0.84341 0.28608 0.0
H1811 H 0.66622 0.84127 0.27479 0.0
H1812 H 0.6744 0.82798 0.24959 0.0
H1813 H 0.66453 0.82036 0.41894 0.0
H1814 H 0.64392 0.79766 0.42341 0.0
H1815 H 0.64211 0.81757 0.40917 0.0
C1816 C 0.12577 0.80204 0.3562 0.0
C1817 C 0.11522 0.80735 0.37778 0.0
C1818 C 0.14385 0.8152 0.34512 0.0
C1819 C 0.15171 0.83395 0.35698 0.0
C1820 C 0.14123 0.8393 0.37943 0.0
C1821 C 0.12292 0.82594 0.3891 0.0
C1822 C 0.15448 0.80907 0.3205 0.0
C1823 C 0.14944 0.85904 0.39353 0.0
C1824 C 0.20431 0.85948 0.35505 0.0
C1825 C 0.20807 0.86975 0.32264 0.0
C1826 C 0.18601 0.84869 0.36783 0.0
C1827 C 0.17117 0.84767 0.34683 0.0
C1828 C 0.17497 0.85847 0.31452 0.0
C1829 C 0.19354 0.8697 0.30306 0.0
C1830 C 0.18254 0.83781 0.40298 0.0
C1831 C 0.15943 0.85729 0.29095 0.0
H1832 H 0.11967 0.78768 0.34706 0.0
H1833 H 0.11469 0.82997 0.40587 0.0
H1834 H 0.1593 0.81795 0.29561 0.0
H1835 H 0.16707 0.81081 0.33485 0.0
H1836 H 0.14591 0.79424 0.31194 0.0
H1837 H 0.13946 0.86087 0.41098 0.0
H1838 H 0.16219 0.86283 0.40975 0.0
H1839 H 0.15369 0.86897 0.37029 0.0
H1840 H 0.21571 0.85973 0.37021 0.0
H1841 H 0.19661 0.8776 0.2778 0.0
H1842 H 0.17577 0.82267 0.39677 0.0
H1843 H 0.17291 0.83988 0.42097 0.0
H1844 H 0.19566 0.84196 0.41822 0.0
H1845 H 0.15129 0.84303 0.27927 0.0
H1846 H 0.16477 0.86752 0.26809 0.0
H1847 H 0.14966 0.85976 0.30763 0.0
C1848 C 0.62513 0.83767 0.83044 0.0
C1849 C 0.63651 0.85215 0.80643 0.0
C1850 C 0.6306 0.82514 0.84307 0.0
C1851 C 0.64752 0.82683 0.83028 0.0
C1852 C 0.65858 0.84087 0.80454 0.0
C1853 C 0.6531 0.85365 0.79343 0.0
C1854 C 0.61879 0.81076 0.87146 0.0
C1855 C 0.67643 0.8427 0.78946 0.0
C1856 C 0.67468 0.81079 0.88827 0.0
C1857 C 0.66947 0.79342 0.87271 0.0
C1858 C 0.66697 0.82145 0.87568 0.0
C1859 C 0.65438 0.81483 0.84584 0.0
C1860 C 0.64892 0.79714 0.83029 0.0
C1861 C 0.65631 0.78643 0.84446 0.0
C1862 C 0.67261 0.83996 0.89382 0.0
C1863 C 0.63598 0.78994 0.79772 0.0
H1864 H 0.61236 0.83669 0.84071 0.0
H1865 H 0.66179 0.86481 0.77462 0.0
H1866 H 0.61537 0.79659 0.86243 0.0
H1867 H 0.62677 0.81372 0.89739 0.0
H1868 H 0.60556 0.8107 0.87714 0.0
H1869 H 0.68222 0.85293 0.76664 0.0
H1870 H 0.68707 0.84733 0.81146 0.0
H1871 H 0.67397 0.82896 0.77951 0.0
H1872 H 0.68486 0.81606 0.91024 0.0
H1873 H 0.65256 0.77305 0.83224 0.0
H1874 H 0.66003 0.84073 0.90148 0.0
H1875 H 0.68082 0.85153 0.8744 0.0
H1876 H 0.68116 0.84222 0.91877 0.0
H1877 H 0.62276 0.78978 0.80374 0.0
H1878 H 0.63264 0.77564 0.78965 0.0
H1879 H 0.64258 0.79944 0.77408 0.0
C1880 C 0.12483 0.78869 0.83232 0.0
C1881 C 0.13127 0.78063 0.80671 0.0
C1882 C 0.13662 0.8068 0.84539 0.0
C1883 C 0.15502 0.81721 0.83145 0.0
C1884 C 0.16139 0.80929 0.80474 0.0
C1885 C 0.1495 0.79091 0.79313 0.0
C1886 C 0.12953 0.81466 0.87457 0.0
C1887 C 0.18069 0.82025 0.78836 0.0
C1888 C 0.17763 0.8696 0.84069 0.0
C1889 C 0.19004 0.87322 0.86968 0.0
C1890 C 0.16652 0.85147 0.8273 0.0
C1891 C 0.16743 0.83657 0.84426 0.0
C1892 C 0.17991 0.84015 0.87375 0.0
C1893 C 0.19138 0.85859 0.88574 0.0
C1894 C 0.15383 0.84826 0.79505 0.0
C1895 C 0.18081 0.82448 0.89311 0.0
H1896 H 0.11079 0.78057 0.84315 0.0
H1897 H 0.1544 0.78459 0.77324 0.0
H1898 H 0.1389 0.81895 0.89874 0.0
H1899 H 0.12963 0.82732 0.86418 0.0
H1900 H 0.11513 0.80444 0.88354 0.0
H1901 H 0.18323 0.81224 0.76692 0.0
H1902 H 0.18267 0.8334 0.77611 0.0
H1903 H 0.19139 0.82418 0.81006 0.0
H1904 H 0.17681 0.88105 0.82808 0.0
H1905 H 0.20095 0.8615 0.90832 0.0
H1906 H 0.13904 0.83935 0.80338 0.0
H1907 H 0.15665 0.84074 0.77302 0.0
H1908 H 0.15563 0.86153 0.78369 0.0
H1909 H 0.16685 0.81437 0.90422 0.0
H1910 H 0.19105 0.82962 0.91595 0.0
H1911 H 0.18473 0.81678 0.87349 0.0
C1912 C 0.12478 0.30408 0.8903 0.0
C1913 C 0.11467 0.31188 0.87516 0.0
C1914 C 0.14334 0.31055 0.87992 0.0
C1915 C 0.1516 0.32462 0.85284 0.0
C1916 C 0.14133 0.33238 0.8372 0.0
C1917 C 0.12304 0.32612 0.84908 0.0
C1918 C 0.15412 0.30246 0.89807 0.0
C1919 C 0.14954 0.34705 0.80755 0.0
C1920 C 0.20405 0.35471 0.84628 0.0
C1921 C 0.20821 0.34574 0.81838 0.0
C1922 C 0.1857 0.34764 0.85847 0.0
C1923 C 0.17116 0.3316 0.84141 0.0
C1924 C 0.17527 0.32255 0.81299 0.0
C1925 C 0.19389 0.32958 0.80221 0.0
C1926 C 0.1819 0.35732 0.88958 0.0
C1927 C 0.16 0.30573 0.7935 0.0
H1928 H 0.11822 0.29307 0.91055 0.0
H1929 H 0.11505 0.33192 0.83704 0.0
H1930 H 0.15854 0.29564 0.87733 0.0
H1931 H 0.16699 0.3138 0.91083 0.0
H1932 H 0.14581 0.29202 0.91946 0.0
H1933 H 0.13936 0.35099 0.79709 0.0
H1934 H 0.16192 0.35979 0.81817 0.0
H1935 H 0.15433 0.34184 0.78433 0.0
H1936 H 0.21523 0.36712 0.85901 0.0
H1937 H 0.1972 0.32277 0.78047 0.0
H1938 H 0.17413 0.34717 0.91171 0.0
H1939 H 0.17301 0.363 0.87989 0.0
H1940 H 0.19493 0.36898 0.90126 0.0
H1941 H 0.15209 0.29426 0.81331 0.0
H1942 H 0.16555 0.30051 0.7716 0.0
H1943 H 0.14997 0.30936 0.7811 0.0
C1944 C 0.86503 0.66661 0.68488 0.0
C1945 C 0.85839 0.65179 0.70974 0.0
C1946 C 0.85334 0.67319 0.67233 0.0
C1947 C 0.83492 0.66516 0.6862 0.0
C1948 C 0.82848 0.65069 0.71255 0.0
C1949 C 0.84021 0.6439 0.72344 0.0
C1950 C 0.86046 0.68823 0.64337 0.0
C1951 C 0.80918 0.6423 0.72899 0.0
C1952 C 0.81071 0.6935 0.67666 0.0
C1953 C 0.79801 0.68395 0.64848 0.0
C1954 C 0.82264 0.68734 0.68964 0.0
C1955 C 0.82229 0.67174 0.67291 0.0
C1956 C 0.80972 0.66229 0.64384 0.0
C1957 C 0.79739 0.6683 0.63244 0.0
C1958 C 0.83533 0.69731 0.72162 0.0
C1959 C 0.80941 0.64596 0.62461 0.0
H1960 H 0.87906 0.67247 0.67402 0.0
H1961 H 0.8352 0.63244 0.7428 0.0
H1962 H 0.85142 0.68298 0.61875 0.0
H1963 H 0.85981 0.70055 0.65346 0.0
H1964 H 0.87507 0.69283 0.63517 0.0
H1965 H 0.80686 0.63214 0.75109 0.0
H1966 H 0.80696 0.65349 0.74038 0.0
H1967 H 0.79849 0.63504 0.70747 0.0
H1968 H 0.81097 0.70552 0.68921 0.0
H1969 H 0.78759 0.66108 0.61044 0.0
H1970 H 0.85013 0.70313 0.71344 0.0
H1971 H 0.83255 0.68726 0.74419 0.0
H1972 H 0.83346 0.70887 0.73219 0.0
H1973 H 0.8236 0.65003 0.61449 0.0
H1974 H 0.79957 0.64089 0.60111 0.0
H1975 H 0.80525 0.63425 0.64409 0.0
C1976 C 0.32792 0.20204 0.68669 0.0
C1977 C 0.34234 0.20919 0.71251 0.0
C1978 C 0.32086 0.18396 0.67273 0.0
C1979 C 0.328 0.17267 0.68599 0.0
C1980 C 0.34212 0.17966 0.71308 0.0
C1981 C 0.34938 0.19802 0.72555 0.0
C1982 C 0.30618 0.17712 0.64309 0.0
C1983 C 0.34959 0.16778 0.72877 0.0
C1984 C 0.29808 0.1204 0.67399 0.0
C1985 C 0.30761 0.11705 0.64603 0.0
C1986 C 0.30466 0.13847 0.68748 0.0
C1987 C 0.32072 0.15354 0.67155 0.0
C1988 C 0.33006 0.15027 0.64246 0.0
C1989 C 0.32358 0.13192 0.6305 0.0
C1990 C 0.29474 0.14135 0.71939 0.0
C1991 C 0.34688 0.16613 0.62407 0.0
H1992 H 0.3227 0.21086 0.67632 0.0
H1993 H 0.36052 0.20363 0.74565 0.0
H1994 H 0.31137 0.17336 0.61834 0.0
H1995 H 0.2934 0.16433 0.65225 0.0
H1996 H 0.30234 0.18778 0.63541 0.0
H1997 H 0.35976 0.17496 0.75123 0.0
H1998 H 0.33793 0.15447 0.73946 0.0
H1999 H 0.35658 0.16416 0.70698 0.0
H2000 H 0.28583 0.10876 0.68621 0.0
H2001 H 0.33083 0.12922 0.60871 0.0
H2002 H 0.28984 0.15116 0.71172 0.0
H2003 H 0.30458 0.14772 0.74262 0.0
H2004 H 0.28255 0.12807 0.72885 0.0
H2005 H 0.34354 0.17691 0.61474 0.0
H2006 H 0.35168 0.16134 0.60015 0.0
H2007 H 0.35855 0.17292 0.64387 0.0
C2008 C 0.86464 0.17464 0.6517 0.0
C2009 C 0.87284 0.19397 0.64664 0.0
C2010 C 0.84626 0.16403 0.66427 0.0
C2011 C 0.83587 0.173 0.67182 0.0
C2012 C 0.8439 0.19244 0.66601 0.0
C2013 C 0.86236 0.20273 0.65346 0.0
C2014 C 0.83806 0.14328 0.66998 0.0
C2015 C 0.83311 0.20238 0.67361 0.0
C2016 C 0.78347 0.14181 0.67353 0.0
C2017 C 0.78016 0.1384 0.71099 0.0
C2018 C 0.80156 0.15344 0.66039 0.0
C2019 C 0.81652 0.16189 0.68556 0.0
C2020 C 0.81308 0.15884 0.72366 0.0
C2021 C 0.79481 0.14692 0.73599 0.0
C2022 C 0.80474 0.15621 0.6196 0.0
C2023 C 0.82873 0.16778 0.75121 0.0
H2024 H 0.8727 0.16781 0.64651 0.0
H2025 H 0.86867 0.21769 0.6496 0.0
H2026 H 0.83413 0.13971 0.69913 0.0
H2027 H 0.82515 0.13544 0.65351 0.0
H2028 H 0.84795 0.13843 0.66226 0.0
H2029 H 0.84129 0.21751 0.66702 0.0
H2030 H 0.82004 0.19599 0.65734 0.0
H2031 H 0.82906 0.20079 0.70291 0.0
H2032 H 0.77192 0.135 0.65447 0.0
H2033 H 0.79199 0.14411 0.76499 0.0
H2034 H 0.81353 0.15034 0.61033 0.0
H2035 H 0.81237 0.17132 0.6129 0.0
H2036 H 0.79145 0.14937 0.60392 0.0
H2037 H 0.83853 0.16243 0.74729 0.0
H2038 H 0.82353 0.16492 0.77986 0.0
H2039 H 0.83677 0.18312 0.74698 0.0
C2040 C 0.99115 0.462 0.55353 0.0
C2041 C 0.00635 0.46242 0.53586 0.0
C2042 C 0.98435 0.47364 0.54175 0.0
C2043 C 0.99258 0.48531 0.51089 0.0
C2044 C 0.00742 0.4851 0.4921 0.0
C2045 C 0.01437 0.47388 0.50528 0.0
C2046 C 0.96889 0.47399 0.5631 0.0
C2047 C 0.01616 0.49693 0.45845 0.0
C2048 C 0.96575 0.50556 0.46408 0.0
C2049 C 0.9754 0.52402 0.47662 0.0
C2050 C 0.97134 0.49278 0.47463 0.0
C2051 C 0.98642 0.49854 0.49932 0.0
C2052 C -0.00397 0.51715 0.51238 0.0
C2053 C 0.9906 0.52978 0.50028 0.0
C2054 C 0.96125 0.47323 0.45916 0.0
C2055 C 0.01186 0.52364 0.53951 0.0
H2056 H 0.98511 0.45316 0.57735 0.0
H2057 H 0.02603 0.47398 0.49149 0.0
H2058 H 0.97395 0.4882 0.57433 0.0
H2059 H 0.95694 0.47077 0.54484 0.0
H2060 H 0.96383 0.46384 0.58612 0.0
H2061 H 0.02643 0.49385 0.44521 0.0
H2062 H 0.0052 0.49458 0.43819 0.0
H2063 H 0.02341 0.51194 0.46593 0.0
H2064 H 0.954 0.5012 0.44571 0.0
H2065 H -0.00215 0.54404 0.51035 0.0
H2066 H 0.95482 0.4629 0.4816 0.0
H2067 H 0.97134 0.47021 0.44504 0.0
H2068 H 0.95015 0.47116 0.43946 0.0
H2069 H 0.00716 0.51448 0.56401 0.0
H2070 H 0.01717 0.53829 0.54844 0.0
H2071 H 0.02359 0.52264 0.52718 0.0
C2072 C 0.52739 0.52953 0.51616 0.0
C2073 C 0.5215 0.53835 0.54117 0.0
C2074 C 0.51534 0.51105 0.50531 0.0
C2075 C 0.49728 0.50104 0.52095 0.0
C2076 C 0.49149 0.50976 0.54706 0.0
C2077 C 0.50359 0.52849 0.55635 0.0
C2078 C 0.52181 0.50236 0.47665 0.0
C2079 C 0.4726 0.49928 0.5653 0.0
C2080 C 0.46029 0.45807 0.47127 0.0
C2081 C 0.4624 0.44404 0.48802 0.0
C2082 C 0.47158 0.47681 0.48173 0.0
C2083 C 0.48466 0.4813 0.51048 0.0
C2084 C 0.4862 0.46698 0.52843 0.0
C2085 C 0.47529 0.44853 0.51643 0.0
C2086 C 0.46999 0.49182 0.46125 0.0
C2087 C 0.4995 0.47114 0.56002 0.0
H2088 H 0.54119 0.53732 0.50409 0.0
H2089 H 0.49912 0.53539 0.57579 0.0
H2090 H 0.52214 0.49015 0.48832 0.0
H2091 H 0.51183 0.4972 0.45342 0.0
H2092 H 0.53593 0.51236 0.46595 0.0
H2093 H 0.47053 0.50792 0.58602 0.0
H2094 H 0.46139 0.49463 0.5445 0.0
H2095 H 0.471 0.48655 0.5789 0.0
H2096 H 0.45035 0.45447 0.4491 0.0
H2097 H 0.47671 0.43752 0.52953 0.0
H2098 H 0.48359 0.50159 0.44829 0.0
H2099 H 0.46663 0.5001 0.48047 0.0
H2100 H 0.4591 0.48596 0.43964 0.0
H2101 H 0.51411 0.47967 0.55037 0.0
H2102 H 0.49785 0.45823 0.57289 0.0
H2103 H 0.4972 0.47941 0.5812 0.0
C2104 C 0.53047 0.99607 0.50637 0.0
C2105 C 0.53821 0.01052 0.48063 0.0
C2106 C 0.51253 0.98975 0.52028 0.0
C2107 C 0.50193 -0.00237 0.50695 0.0
C2108 C 0.50954 0.01191 0.48017 0.0
C2109 C 0.52782 0.01848 0.46783 0.0
C2110 C 0.50506 0.9749 0.54966 0.0
C2111 C 0.49833 0.02012 0.46437 0.0
C2112 C 0.44969 0.9675 0.51765 0.0
C2113 C 0.44616 0.97651 0.54635 0.0
C2114 C 0.46776 0.97455 0.50391 0.0
C2115 C 0.48267 0.99053 0.5204 0.0
C2116 C 0.4792 -0.00052 0.54995 0.0
C2117 C 0.46081 0.99255 0.56211 0.0
C2118 C 0.47086 0.96506 0.4715 0.0
C2119 C 0.49489 0.01616 0.56897 0.0
H2120 H 0.53873 0.99017 0.51661 0.0
H2121 H 0.53394 0.02968 0.44788 0.0
H2122 H 0.50079 0.97993 0.57395 0.0
H2123 H 0.49247 0.96219 0.53959 0.0
H2124 H 0.5155 0.97096 0.55837 0.0
H2125 H 0.5061 0.03065 0.44276 0.0
H2126 H 0.48513 0.00885 0.45249 0.0
H2127 H 0.4945 0.02686 0.48631 0.0
H2128 H 0.43819 0.95522 0.5052 0.0
H2129 H 0.45791 -0.00059 0.58438 0.0
H2130 H 0.48008 0.95947 0.47937 0.0
H2131 H 0.47798 0.97532 0.44919 0.0
H2132 H 0.45758 0.95337 0.4607 0.0
H2133 H 0.50536 0.01257 0.57913 0.0
H2134 H 0.48987 0.02102 0.59242 0.0
H2135 H 0.50214 0.02787 0.54936 0.0
C2136 C 0.44998 0.99255 0.01513 0.0
C2137 C 0.45754 0.0069 0.98913 0.0
C2138 C 0.46053 0.98489 0.02876 0.0
C2139 C 0.47873 0.99134 0.01494 0.0
C2140 C 0.48613 0.00536 0.98763 0.0
C2141 C 0.47554 0.01326 0.97554 0.0
C2142 C 0.45246 0.97038 0.05871 0.0
C2143 C 0.50525 0.01212 0.97137 0.0
C2144 C 0.51567 0.98697 0.06781 0.0
C2145 C 0.51447 0.97106 0.05174 0.0
C2146 C 0.50338 0.99317 0.05744 0.0
C2147 C 0.49023 0.98365 0.02927 0.0
C2148 C 0.48885 0.9674 0.01333 0.0
C2149 C 0.5008 0.96108 0.02533 0.0
C2150 C 0.50475 0.01015 0.07595 0.0
C2151 C 0.47545 0.95728 0.98235 0.0
H2152 H 0.4361 0.98786 0.02587 0.0
H2153 H 0.48127 0.02432 0.95527 0.0
H2154 H 0.45219 0.9574 0.04995 0.0
H2155 H 0.46146 0.97559 0.08338 0.0
H2156 H 0.43806 0.96687 0.06637 0.0
H2157 H 0.50835 0.02213 0.94854 0.0
H2158 H 0.51609 0.01909 0.99275 0.0
H2159 H 0.50637 9e-05 0.96102 0.0
H2160 H 0.52625 0.99455 0.0884 0.0
H2161 H 0.5001 0.94888 0.01268 0.0
H2162 H 0.49073 0.00725 0.08499 0.0
H2163 H 0.51012 0.02194 0.05629 0.0
H2164 H 0.5142 0.01461 0.10006 0.0
H2165 H 0.461 0.95333 0.99036 0.0
H2166 H 0.47565 0.94447 0.97392 0.0
H2167 H 0.47919 0.96671 0.95833 0.0
C2168 C 0.00017 0.53692 0.02013 0.0
C2169 C 0.01527 0.54616 0.04409 0.0
C2170 C -0.00555 0.51873 1.0083 0.0
C2171 C 0.00368 0.50945 0.02188 0.0
C2172 C 0.01867 0.5186 0.04682 0.0
C2173 C 0.02453 0.53704 0.05715 0.0
C2174 C 0.97873 0.50956 0.98091 0.0
C2175 C 0.02838 0.50886 0.0628 0.0
C2176 C 0.97558 0.45678 0.01694 0.0
C2177 C 0.98386 0.45311 0.98709 0.0
C2178 C 0.98236 0.47505 0.02937 0.0
C2179 C -0.00269 0.48999 1.01053 0.0
C2180 C 0.00572 0.48634 0.98025 0.0
C2181 C -0.00092 0.46781 0.96926 0.0
C2182 C 0.97345 0.47837 0.06248 0.0
C2183 C 0.02132 0.502 0.95886 0.0
H2184 H 0.99321 0.54414 1.00972 0.0
H2185 H 0.03619 0.54427 0.0758 0.0
H2186 H 0.98343 0.50497 0.9566 0.0
H2187 H 0.96683 0.49693 0.99312 0.0
H2188 H 0.97366 0.51907 0.97172 0.0
H2189 H 0.03945 0.51779 0.08267 0.0
H2190 H 0.01806 0.49584 0.07688 0.0
H2191 H 0.03479 0.50477 0.04065 0.0
H2192 H 0.96389 0.44528 0.03085 0.0
H2193 H 0.00533 0.46484 0.94598 0.0
H2194 H 0.96655 0.4864 0.05446 0.0
H2195 H 0.98428 0.48683 0.08306 0.0
H2196 H 0.96287 0.46512 0.07554 0.0
H2197 H 0.01646 0.5113 0.94754 0.0
H2198 H 0.02627 0.49676 0.93592 0.0
H2199 H 0.03329 0.51061 0.97715 0.0
C2200 C 0.45253 0.48969 0.03085 0.0
C2201 C 0.45027 0.475 0.05339 0.0
C2202 C 0.47009 0.50249 0.01667 0.0
C2203 C 0.48574 0.50083 0.02638 0.0
C2204 C 0.48368 0.48669 0.05101 0.0
C2205 C 0.46584 0.47366 0.0637 0.0
C2206 C 0.47166 0.51702 0.98959 0.0
C2207 C 0.50021 0.4849 0.06292 0.0
C2208 C 0.52707 0.51667 0.96308 0.0
C2209 C 0.53986 0.53382 0.97859 0.0
C2210 C 0.50898 0.50626 0.97723 0.0
C2211 C 0.504 0.51287 1.00858 0.0
C2212 C 0.5168 0.53043 0.02385 0.0
C2213 C 0.53457 0.54091 1.00814 0.0
C2214 C 0.49544 0.4879 0.95939 0.0
C2215 C 0.51216 0.53762 0.05796 0.0
H2216 H 0.44038 0.49055 0.0226 0.0
H2217 H 0.46402 0.46231 0.08132 0.0
H2218 H 0.48295 0.53111 0.9977 0.0
H2219 H 0.47537 0.51396 0.96227 0.0
H2220 H 0.45842 0.51732 0.98706 0.0
H2221 H 0.4966 0.47468 0.08556 0.0
H2222 H 0.50539 0.48025 0.03946 0.0
H2223 H 0.51181 0.49864 0.07199 0.0
H2224 H 0.53133 0.5113 0.94017 0.0
H2225 H 0.5447 0.5541 0.02035 0.0
H2226 H 0.48187 0.48719 0.95439 0.0
H2227 H 0.49277 0.47619 0.97791 0.0
H2228 H 0.50082 0.48583 0.93297 0.0
H2229 H 0.49874 0.53743 0.05458 0.0
H2230 H 0.52321 0.55205 0.06496 0.0
H2231 H 0.51045 0.52831 0.08133 0.0
C2232 C 0.41189 0.05734 0.04281 0.0
C2233 C 0.42923 0.06565 0.02503 0.0
C2234 C 0.40792 0.06684 0.07003 0.0
C2235 C 0.42179 0.08509 0.08054 0.0
C2236 C 0.43929 0.09373 0.0622 0.0
C2237 C 0.44278 0.08392 0.03445 0.0
C2238 C 0.3889 0.05713 0.08797 0.0
C2239 C 0.4545 0.11305 0.07277 0.0
C2240 C 0.40043 0.11093 0.12737 0.0
C2241 C 0.40094 0.1067 0.16444 0.0
C2242 C 0.40851 0.1053 0.10004 0.0
C2243 C 0.41737 0.09506 0.1098 0.0
C2244 C 0.41932 0.09209 0.1475 0.0
C2245 C 0.4111 0.09799 0.17449 0.0
C2246 C 0.40601 0.10885 0.06047 0.0
C2247 C 0.42883 0.08142 0.1592 0.0
H2248 H 0.40148 0.04311 0.03586 0.0
H2249 H 0.45637 0.09018 0.0214 0.0
H2250 H 0.39038 0.05551 0.11771 0.0
H2251 H 0.38209 0.06571 0.08487 0.0
H2252 H 0.37956 0.0431 0.0761 0.0
H2253 H 0.46699 0.11818 0.0549 0.0
H2254 H 0.44927 0.12305 0.07134 0.0
H2255 H 0.45877 0.11294 0.10152 0.0
H2256 H 0.39267 0.11775 0.11941 0.0
H2257 H 0.41148 0.09459 0.20299 0.0
H2258 H 0.39552 0.09555 0.0475 0.0
H2259 H 0.41927 0.11406 0.04511 0.0
H2260 H 0.40115 0.11913 0.05761 0.0
H2261 H 0.41965 0.06638 0.1529 0.0
H2262 H 0.4319 0.08287 0.18901 0.0
H2263 H 0.44205 0.0863 0.14386 0.0
C2264 C 0.8965 0.30866 0.1654 0.0
C2265 C 0.898 0.29277 0.15847 0.0
C2266 C 0.90175 0.32274 0.13863 0.0
C2267 C 0.90894 0.32101 0.10445 0.0
C2268 C 0.91001 0.30477 0.09716 0.0
C2269 C 0.90445 0.29088 0.12405 0.0
C2270 C 0.90017 0.33974 0.14731 0.0
C2271 C 0.91793 0.30242 0.06155 0.0
C2272 C 0.91661 0.35265 0.02181 0.0
C2273 C 0.93564 0.36581 0.02538 0.0
C2274 C 0.90743 0.3383 0.04803 0.0
C2275 C 0.91761 0.33702 0.07813 0.0
C2276 C 0.93679 0.35035 0.08173 0.0
C2277 C 0.94547 0.36451 0.05554 0.0
C2278 C 0.88693 0.32444 0.04344 0.0
C2279 C 0.94834 0.34941 0.11285 0.0
H2280 H 0.89139 0.31016 0.19177 0.0
H2281 H 0.90566 0.27866 0.11828 0.0
H2282 H 0.91433 0.3521 0.15029 0.0
H2283 H 0.89315 0.3427 0.12455 0.0
H2284 H 0.89227 0.338 0.17301 0.0
H2285 H 0.91653 0.28839 0.05901 0.0
H2286 H 0.9108 0.30461 0.03796 0.0
H2287 H 0.93296 0.3131 0.05969 0.0
H2288 H 0.90889 0.35362 0.99876 0.0
H2289 H 0.9602 0.37455 0.05863 0.0
H2290 H 0.87925 0.3238 0.06881 0.0
H2291 H 0.8849 0.31028 0.0388 0.0
H2292 H 0.8807 0.32803 0.0201 0.0
H2293 H 0.94201 0.3496 0.13951 0.0
H2294 H 0.96297 0.3612 0.11234 0.0
H2295 H 0.94859 0.33613 0.11138 0.0
C2296 C 0.61748 0.55479 0.0627 0.0
C2297 C 0.62219 0.55513 0.02562 0.0
C2298 C 0.63079 0.55985 0.09059 0.0
C2299 C 0.64943 0.56524 0.08153 0.0
C2300 C 0.65397 0.56405 0.04441 0.0
C2301 C 0.64029 0.55908 0.01675 0.0
C2302 C 0.62517 0.56109 0.12941 0.0
C2303 C 0.67359 0.5693 0.03361 0.0
C2304 C 0.68587 0.60403 0.14113 0.0
C2305 C 0.69094 0.59439 0.16599 0.0
C2306 C 0.6727 0.59471 0.11344 0.0
C2307 C 0.6644 0.5751 0.10979 0.0
C2308 C 0.66938 0.56517 0.13487 0.0
C2309 C 0.6825 0.57492 0.16297 0.0
C2310 C 0.66756 0.60595 0.08825 0.0
C2311 C 0.66105 0.54431 0.13164 0.0
H2312 H 0.60345 0.55152 0.06995 0.0
H2313 H 0.64407 0.5594 0.98824 0.0
H2314 H 0.6305 0.55452 0.14878 0.0
H2315 H 0.63141 0.576 0.1373 0.0
H2316 H 0.60978 0.55427 0.13264 0.0
H2317 H 0.67415 0.56437 1.0056 0.0
H2318 H 0.68259 0.58472 0.03428 0.0
H2319 H 0.6795 0.56338 0.05323 0.0
H2320 H 0.69228 0.61909 0.14334 0.0
H2321 H 0.68657 0.56744 0.18172 0.0
H2322 H 0.65241 0.601 0.09055 0.0
H2323 H 0.67038 0.60397 0.0594 0.0
H2324 H 0.67542 0.62113 0.09456 0.0
H2325 H 0.64566 0.53723 0.13458 0.0
H2326 H 0.66664 0.53866 0.15261 0.0
H2327 H 0.66401 0.54077 0.10406 0.0
C2328 C 0.09625 0.41158 0.35512 0.0
C2329 C 0.09618 0.39479 0.36102 0.0
C2330 C 0.09035 0.41941 0.38281 0.0
C2331 C 0.08391 0.41003 0.41684 0.0
C2332 C 0.08415 0.39326 0.42299 0.0
C2333 C 0.09039 0.38597 0.39524 0.0
C2334 C 0.09054 0.43745 0.37533 0.0
C2335 C 0.07698 0.38247 0.45832 0.0
C2336 C 0.07535 0.43229 0.50133 0.0
C2337 C 0.0561 0.42547 0.49862 0.0
C2338 C 0.08483 0.4279 0.47435 0.0
C2339 C 0.07474 0.41629 0.44432 0.0
C2340 C 0.05532 0.4094 0.4417 0.0
C2341 C 0.04633 0.4141 0.46866 0.0
C2342 C 0.10557 0.43558 0.47798 0.0
C2343 C 0.04387 0.39672 0.4107 0.0
H2344 H 0.10083 0.41854 0.3289 0.0
H2345 H 0.09022 0.37295 0.40014 0.0
H2346 H 0.076 0.43473 0.37355 0.0
H2347 H 0.09744 0.44743 0.39816 0.0
H2348 H 0.09786 0.44409 0.34938 0.0
H2349 H 0.07928 0.37035 0.45981 0.0
H2350 H 0.08391 0.3917 0.48211 0.0
H2351 H 0.06178 0.37724 0.46087 0.0
H2352 H 0.08301 0.44116 0.52423 0.0
H2353 H 0.03142 0.40866 0.46626 0.0
H2354 H 0.11279 0.44319 0.45266 0.0
H2355 H 0.10848 0.42394 0.48135 0.0
H2356 H 0.11158 0.44519 0.50169 0.0
H2357 H 0.0496 0.40361 0.384 0.0
H2358 H 0.02896 0.39291 0.41218 0.0
H2359 H 0.04462 0.38369 0.41126 0.0
C2360 C 0.55486 0.64093 0.50045 0.0
C2361 C 0.55355 0.62396 0.49016 0.0
C2362 C 0.56029 0.65559 0.47478 0.0
C2363 C 0.56479 0.65331 0.43826 0.0
C2364 C 0.56268 0.63591 0.42759 0.0
C2365 C 0.55696 0.62153 0.4534 0.0
C2366 C 0.56201 0.67379 0.48712 0.0
C2367 C 0.5677 0.63283 0.38944 0.0
C2368 C 0.57383 0.68724 0.35881 0.0
C2369 C 0.59335 0.69817 0.35964 0.0
C2370 C 0.56414 0.6731 0.38528 0.0
C2371 C 0.57426 0.6696 0.41258 0.0
C2372 C 0.59397 0.6806 0.41319 0.0
C2373 C 0.60316 0.69473 0.38706 0.0
C2374 C 0.54311 0.66186 0.38401 0.0
C2375 C 0.60549 0.67714 0.44087 0.0
H2376 H 0.55218 0.64294 0.52864 0.0
H2377 H 0.55586 0.60847 0.44483 0.0
H2378 H 0.57698 0.68455 0.48943 0.0
H2379 H 0.55563 0.67884 0.46667 0.0
H2380 H 0.55525 0.67244 0.5141 0.0
H2381 H 0.56385 0.61806 0.38459 0.0
H2382 H 0.56063 0.63688 0.36861 0.0
H2383 H 0.58297 0.64177 0.38516 0.0
H2384 H 0.56614 0.68994 0.33799 0.0
H2385 H 0.61828 0.703 0.38788 0.0
H2386 H 0.53724 0.66213 0.41117 0.0
H2387 H 0.53852 0.64706 0.37769 0.0
H2388 H 0.53721 0.6672 0.36308 0.0
H2389 H 0.60101 0.67804 0.46905 0.0
H2390 H 0.62067 0.68728 0.4383 0.0
H2391 H 0.60329 0.66284 0.43727 0.0
C2392 C 0.36695 0.93199 0.46039 0.0
C2393 C 0.36215 0.92691 0.49721 0.0
C2394 C 0.35372 0.92427 0.43224 0.0
C2395 C 0.33501 0.91094 0.44075 0.0
C2396 C 0.33029 0.90471 0.47755 0.0
C2397 C 0.34392 0.9128 0.50546 0.0
C2398 C 0.35952 0.93158 0.39373 0.0
C2399 C 0.31057 0.89033 0.48778 0.0
C2400 C 0.29917 0.91424 0.38108 0.0
C2401 C 0.29403 0.89968 0.35579 0.0
C2402 C 0.31209 0.91767 0.40904 0.0
C2403 C 0.32019 0.90617 0.41235 0.0
C2404 C 0.31518 0.89142 0.38683 0.0
C2405 C 0.30222 0.8884 0.35862 0.0
C2406 C 0.31722 0.93383 0.43485 0.0
C2407 C 0.32341 0.87879 0.38957 0.0
H2408 H 0.38107 0.94268 0.45351 0.0
H2409 H 0.34008 0.90875 0.53375 0.0
H2410 H 0.35429 0.91989 0.37387 0.0
H2411 H 0.35331 0.94032 0.38624 0.0
H2412 H 0.37493 0.94019 0.39082 0.0
H2413 H 0.30976 0.88468 0.51572 0.0
H2414 H 0.30161 0.8968 0.48688 0.0
H2415 H 0.30478 0.87861 0.4679 0.0
H2416 H 0.29302 0.92311 0.37906 0.0
H2417 H 0.29815 0.87699 0.33949 0.0
H2418 H 0.33236 0.94407 0.4326 0.0
H2419 H 0.31444 0.92879 0.46355 0.0
H2420 H 0.30933 0.94117 0.42907 0.0
H2421 H 0.3388 0.88707 0.38643 0.0
H2422 H 0.31771 0.86762 0.36846 0.0
H2423 H 0.32052 0.87221 0.41705 0.0
C2424 C 0.60581 0.9104 0.88215 0.0
C2425 C 0.59514 0.89684 0.85592 0.0
C2426 C 0.59737 0.91572 0.90923 0.0
C2427 C 0.57766 0.90689 0.91087 0.0
C2428 C 0.56675 0.89306 0.88454 0.0
C2429 C 0.57565 0.88837 0.85695 0.0
C2430 C 0.60961 0.93098 0.93582 0.0
C2431 C 0.5457 0.88311 0.88578 0.0
C2432 C 0.55909 0.91371 1.00197 0.0
C2433 C 0.55659 0.92888 0.99378 0.0
C2434 C 0.56507 0.90572 0.97478 0.0
C2435 C 0.56876 0.9132 0.93877 0.0
C2436 C 0.56564 0.9281 0.93024 0.0
C2437 C 0.55955 0.93565 0.95769 0.0
C2438 C 0.56805 0.8897 0.98484 0.0
C2439 C 0.56961 0.93672 0.89249 0.0
H2440 H 0.62092 0.91705 0.88125 0.0
H2441 H 0.56739 0.87772 0.83695 0.0
H2442 H 0.60681 0.94276 0.93365 0.0
H2443 H 0.60633 0.92567 0.9643 0.0
H2444 H 0.62472 0.93644 0.9308 0.0
H2445 H 0.53922 0.87221 0.86427 0.0
H2446 H 0.5407 0.87646 0.91296 0.0
H2447 H 0.54081 0.89329 0.88217 0.0
H2448 H 0.55679 0.90836 0.02971 0.0
H2449 H 0.55755 0.9473 0.95089 0.0
H2450 H 0.58318 0.89441 0.98405 0.0
H2451 H 0.56104 0.87819 0.96469 0.0
H2452 H 0.56267 0.88417 0.01264 0.0
H2453 H 0.58478 0.94337 0.88659 0.0
H2454 H 0.56537 0.94747 0.88969 0.0
H2455 H 0.56219 0.92581 0.87142 0.0
C2456 C 0.08169 0.63392 0.98382 0.0
C2457 C 0.0658 0.63269 1.00022 0.0
C2458 C 0.09042 0.64598 0.95387 0.0
C2459 C 0.08305 0.65703 0.94018 0.0
C2460 C 0.06731 0.65617 0.95759 0.0
C2461 C 0.05877 0.64386 0.98706 0.0
C2462 C 0.10708 0.64638 0.93605 0.0
C2463 C 0.05909 0.66786 0.94445 0.0
C2464 C 0.11056 0.70136 0.88463 0.0
C2465 C 0.10273 0.69569 0.84966 0.0
C2466 C 0.10536 0.68862 0.91371 0.0
C2467 C 0.09171 0.66969 0.90794 0.0
C2468 C 0.08474 0.66361 0.87198 0.0
C2469 C 0.09043 0.6767 0.84312 0.0
C2470 C 0.11336 0.69579 0.95126 0.0
C2471 C 0.07018 0.64356 0.86457 0.0
H2472 H 0.08675 0.62483 0.9933 0.0
H2473 H 0.04618 0.64252 0.99913 0.0
H2474 H 0.10346 0.64098 0.90766 0.0
H2475 H 0.11888 0.66094 0.93427 0.0
H2476 H 0.11178 0.63781 0.95119 0.0
H2477 H 0.0472 0.66599 0.96169 0.0
H2478 H 0.06994 0.68287 0.94457 0.0
H2479 H 0.05414 0.66405 0.91584 0.0
H2480 H 0.12003 0.71608 0.88979 0.0
H2481 H 0.08416 0.6723 0.8163 0.0
H2482 H 0.11765 0.68644 0.9645 0.0
H2483 H 0.1025 0.69597 0.96883 0.0
H2484 H 0.1256 0.71015 0.95025 0.0
H2485 H 0.07421 0.63393 0.87745 0.0
H2486 H 0.06803 0.64051 0.83479 0.0
H2487 H 0.0567 0.6406 0.87686 0.0
C2488 C 0.29643 0.38307 0.89043 0.0
C2489 C 0.29472 0.3936 0.86209 0.0
C2490 C 0.31011 0.39139 0.91763 0.0
C2491 C 0.32244 0.41092 0.91703 0.0
C2492 C 0.32075 0.42177 0.88872 0.0
C2493 C 0.30697 0.41295 0.86133 0.0
C2494 C 0.3116 0.37913 0.94658 0.0
C2495 C 0.33354 0.44265 0.88733 0.0
C2496 C 0.34922 0.43002 1.00675 0.0
C2497 C 0.36594 0.43027 0.99899 0.0
C2498 C 0.33526 0.42478 0.97969 0.0
C2499 C 0.33801 0.4194 0.94433 0.0
C2500 C 0.35505 0.42004 0.93631 0.0
C2501 C 0.36876 0.42554 0.96352 0.0
C2502 C 0.31737 0.42449 0.98919 0.0
C2503 C 0.35852 0.41405 0.89943 0.0
H2504 H 0.28711 0.36807 0.89123 0.0
H2505 H 0.30564 0.42119 0.83972 0.0
H2506 H 0.32542 0.38004 0.94474 0.0
H2507 H 0.31052 0.38403 0.97426 0.0
H2508 H 0.30058 0.36424 0.9438 0.0
H2509 H 0.3297 0.44926 0.86508 0.0
H2510 H 0.33314 0.44898 0.91385 0.0
H2511 H 0.34814 0.44591 0.88295 0.0
H2512 H 0.34697 0.43376 0.03395 0.0
H2513 H 0.38161 0.42567 0.95706 0.0
H2514 H 0.30568 0.40984 0.98996 0.0
H2515 H 0.31399 0.43191 0.96788 0.0
H2516 H 0.31819 0.43105 0.01618 0.0
H2517 H 0.34864 0.39892 0.89535 0.0
H2518 H 0.37298 0.41655 0.89673 0.0
H2519 H 0.35601 0.42164 0.87716 0.0
C2520 C 0.90347 0.6094 0.63064 0.0
C2521 C 0.89294 0.59993 0.6617 0.0
C2522 C 0.90863 0.60048 0.60438 0.0
C2523 C 0.90298 0.58138 0.60869 0.0
C2524 C 0.89194 0.5715 0.63949 0.0
C2525 C 0.88717 0.58094 0.66591 0.0
C2526 C 0.92079 0.6118 0.57266 0.0
C2527 C 0.88542 0.55105 0.64476 0.0
C2528 C 0.91097 0.56034 0.522 0.0
C2529 C 0.92851 0.5623 0.52927 0.0
C2530 C 0.90177 0.56528 0.54858 0.0
C2531 C 0.91049 0.57268 0.58283 0.0
C2532 C 0.92795 0.57418 0.59046 0.0
C2533 C 0.9366 0.56886 0.56385 0.0
C2534 C 0.88301 0.56318 0.53962 0.0
C2535 C 0.93809 0.58242 0.62603 0.0
H2536 H 0.9081 0.6241 0.62703 0.0
H2537 H 0.87893 0.5735 0.68962 0.0
H2538 H 0.93445 0.61232 0.57404 0.0
H2539 H 0.91417 0.6051 0.54632 0.0
H2540 H 0.92339 0.62635 0.57253 0.0
H2541 H 0.87545 0.54491 0.66792 0.0
H2542 H 0.87862 0.54316 0.61943 0.0
H2543 H 0.89759 0.54919 0.65017 0.0
H2544 H 0.90454 0.55514 0.49553 0.0
H2545 H 0.95014 0.57044 0.56994 0.0
H2546 H 0.88451 0.57717 0.53571 0.0
H2547 H 0.87312 0.55634 0.56262 0.0
H2548 H 0.87692 0.55487 0.51431 0.0
H2549 H 0.94213 0.59739 0.62752 0.0
H2550 H 0.95091 0.58136 0.62884 0.0
H2551 H 0.92883 0.57527 0.64967 0.0
C2552 C 0.39255 0.30679 0.66269 0.0
C2553 C 0.40008 0.29613 0.67635 0.0
C2554 C 0.40112 0.31947 0.63382 0.0
C2555 C 0.41754 0.32135 0.6175 0.0
C2556 C 0.42557 0.31103 0.63201 0.0
C2557 C 0.41672 0.2985 0.66133 0.0
C2558 C 0.39212 0.33029 0.61982 0.0
C2559 C 0.44302 0.3126 0.61549 0.0
C2560 C 0.42443 0.34042 0.52003 0.0
C2561 C 0.43565 0.35961 0.52633 0.0
C2562 C 0.4194 0.32753 0.54914 0.0
C2563 C 0.42592 0.33404 0.58515 0.0
C2564 C 0.43851 0.35329 0.59077 0.0
C2565 C 0.44304 0.36581 0.56143 0.0
C2566 C 0.40592 0.30714 0.54187 0.0
C2567 C 0.44599 0.36093 0.62837 0.0
H2568 H 0.37942 0.30461 0.67366 0.0
H2569 H 0.42223 0.28983 0.6711 0.0
H2570 H 0.40237 0.34548 0.62001 0.0
H2571 H 0.38754 0.32626 0.59108 0.0
H2572 H 0.37982 0.32778 0.63644 0.0
H2573 H 0.44843 0.30497 0.63178 0.0
H2574 H 0.43997 0.30677 0.58736 0.0
H2575 H 0.4541 0.32747 0.61329 0.0
H2576 H 0.41842 0.33562 0.4931 0.0
H2577 H 0.45163 0.38069 0.5664 0.0
H2578 H 0.3921 0.30329 0.55373 0.0
H2579 H 0.41078 0.29828 0.55523 0.0
H2580 H 0.40411 0.30394 0.51212 0.0
H2581 H 0.43465 0.3605 0.64536 0.0
H2582 H 0.45768 0.3756 0.62726 0.0
H2583 H 0.45092 0.35226 0.64228 0.0
C2584 C 0.63528 0.08088 0.52477 0.0
C2585 C 0.62493 0.06135 0.52349 0.0
C2586 C 0.64935 0.09009 0.55143 0.0
C2587 C 0.65331 0.07943 0.57662 0.0
C2588 C 0.64315 0.0597 0.57454 0.0
C2589 C 0.62904 0.05097 0.54832 0.0
C2590 C 0.65977 0.11114 0.55305 0.0
C2591 C 0.64721 0.04773 0.59994 0.0
C2592 C 0.70044 0.0976 0.62192 0.0
C2593 C 0.69655 0.09944 0.65864 0.0
C2594 C 0.68679 0.09217 0.59463 0.0
C2595 C 0.66871 0.08858 0.60402 0.0
C2596 C 0.66492 0.09137 0.64068 0.0
C2597 C 0.67889 0.09672 0.66766 0.0
C2598 C 0.69146 0.08915 0.55614 0.0
C2599 C 0.64584 0.08785 0.65171 0.0
H2600 H 0.63199 0.08891 0.50582 0.0
H2601 H 0.62117 0.03583 0.54718 0.0
H2602 H 0.65789 0.11579 0.58042 0.0
H2603 H 0.67495 0.11661 0.54932 0.0
H2604 H 0.65495 0.1174 0.53184 0.0
H2605 H 0.63805 0.03256 0.59462 0.0
H2606 H 0.66196 0.05122 0.59676 0.0
H2607 H 0.6453 0.05059 0.62881 0.0
H2608 H 0.7141 0.09984 0.61448 0.0
H2609 H 0.6758 0.0982 0.69589 0.0
H2610 H 0.68714 0.09631 0.53603 0.0
H2611 H 0.68365 0.07401 0.54961 0.0
H2612 H 0.7066 0.0943 0.55252 0.0
H2613 H 0.64089 0.09472 0.63222 0.0
H2614 H 0.6458 0.09299 0.67979 0.0
H2615 H 0.63573 0.07263 0.65081 0.0
C2616 C 0.76798 0.73296 0.7253 0.0
C2617 C 0.76229 0.7334 0.68928 0.0
C2618 C 0.7638 0.74146 0.75426 0.0
C2619 C 0.75329 0.75037 0.74737 0.0
C2620 C 0.74846 0.75184 0.71063 0.0
C2621 C 0.75314 0.74343 0.68191 0.0
C2622 C 0.76953 0.73971 0.79263 0.0
C2623 C 0.7372 0.76114 0.70199 0.0
C2624 C 0.71935 0.74676 0.8217 0.0
C2625 C 0.72818 0.76477 0.83675 0.0
C2626 C 0.72754 0.74193 0.79323 0.0
C2627 C 0.74506 0.75551 0.77889 0.0
C2628 C 0.75446 0.7736 0.79495 0.0
C2629 C 0.74588 0.77803 0.82377 0.0
C2630 C 0.71705 0.72239 0.77766 0.0
C2631 C 0.77317 0.78845 0.78071 0.0
H2632 H 0.77518 0.72532 0.73114 0.0
H2633 H 0.74858 0.74368 0.65421 0.0
H2634 H 0.77559 0.75329 0.80717 0.0
H2635 H 0.75704 0.72952 0.80826 0.0
H2636 H 0.77987 0.73486 0.79282 0.0
H2637 H 0.73654 0.76322 0.6721 0.0
H2638 H 0.72274 0.75234 0.71238 0.0
H2639 H 0.74322 0.77487 0.71592 0.0
H2640 H 0.70556 0.73653 0.83142 0.0
H2641 H 0.75254 0.7921 0.83472 0.0
H2642 H 0.72582 0.71573 0.77911 0.0
H2643 H 0.71383 0.72298 0.74837 0.0
H2644 H 0.70376 0.71338 0.79241 0.0
H2645 H 0.78302 0.78303 0.77938 0.0
H2646 H 0.7794 0.80121 0.798 0.0
H2647 H 0.77156 0.79235 0.75246 0.0
C2648 C 0.24399 0.01657 0.68801 0.0
C2649 C 0.26238 0.03118 0.6929 0.0
C2650 C 0.23499 0.00271 0.71525 0.0
C2651 C 0.24469 0.00336 0.74783 0.0
C2652 C 0.26312 0.0183 0.75296 0.0
C2653 C 0.27162 0.03195 0.7257 0.0
C2654 C 0.21527 0.98712 0.70884 0.0
C2655 C 0.27426 0.01947 0.78667 0.0
C2656 C 0.22256 0.97374 0.83392 0.0
C2657 C 0.22668 0.95936 0.82896 0.0
C2658 C 0.22746 0.98775 0.80693 0.0
C2659 C 0.23682 0.98742 0.77451 0.0
C2660 C 0.2406 0.97268 0.76926 0.0
C2661 C 0.23548 0.95894 0.79629 0.0
C2662 C 0.22305 0.00314 0.81345 0.0
C2663 C 0.2508 0.97179 0.73565 0.0
H2664 H 0.23667 0.01592 0.66296 0.0
H2665 H 0.28584 0.04314 0.72995 0.0
H2666 H 0.21519 0.97376 0.70498 0.0
H2667 H 0.20646 0.9854 0.73307 0.0
H2668 H 0.2089 0.98966 0.68433 0.0
H2669 H 0.28795 0.03262 0.78769 0.0
H2670 H 0.2663 0.01856 0.81178 0.0
H2671 H 0.27682 0.00752 0.7871 0.0
H2672 H 0.21568 0.97415 0.85887 0.0
H2673 H 0.23876 0.94793 0.79188 0.0
H2674 H 0.21594 0.0048 0.78918 0.0
H2675 H 0.2362 0.01658 0.81747 0.0
H2676 H 0.21404 0.00042 0.83788 0.0
H2677 H 0.24371 0.97252 0.71047 0.0
H2678 H 0.25169 0.95882 0.73464 0.0
H2679 H 0.2652 0.98395 0.73531 0.0
C2680 C 0.97533 0.2262 0.68493 0.0
C2681 C 0.95693 0.22058 0.69515 0.0
C2682 C 0.98939 0.23141 0.71174 0.0
C2683 C 0.98489 0.231 0.74942 0.0
C2684 C 0.96608 0.22404 0.7597 0.0
C2685 C 0.9524 0.21891 0.73254 0.0
C2686 C 0.00926 0.23852 0.69963 0.0
C2687 C 0.96053 0.22344 0.7993 0.0
C2688 C 0.01984 0.23947 0.82628 0.0
C2689 C 0.02757 0.25869 0.83205 0.0
C2690 C 0.00615 0.2302 0.79896 0.0
C2691 C -9e-05 0.24039 0.7776 0.0
C2692 C 0.00738 0.2597 0.78435 0.0
C2693 C 0.02122 0.2686 0.81107 0.0
C2694 C -0.0013 0.20967 0.79229 0.0
C2695 C 0.00084 0.27109 0.7632 0.0
H2696 H 0.97893 0.22754 0.65613 0.0
H2697 H 0.93816 0.21436 0.74073 0.0
H2698 H 0.01742 0.25391 0.7032 0.0
H2699 H 0.01593 0.2324 0.71673 0.0
H2700 H 0.01008 0.23525 0.67043 0.0
H2701 H 0.94514 0.21563 0.80306 0.0
H2702 H 0.96671 0.21688 0.81654 0.0
H2703 H 0.96598 0.23791 0.80946 0.0
H2704 H 0.02503 0.23189 0.84198 0.0
H2705 H 0.02729 0.2835 0.81539 0.0
H2706 H 0.00198 0.20754 0.76385 0.0
H2707 H 0.98329 0.20183 0.79512 0.0
H2708 H 0.00473 0.20367 0.8115 0.0
H2709 H 0.00358 0.27074 0.73357 0.0
H2710 H 0.00787 0.28591 0.77223 0.0
H2711 H 0.98555 0.265 0.76661 0.0
C2712 C 0.27053 0.24563 0.22085 0.0
C2713 C 0.26029 0.23043 0.19746 0.0
C2714 C 0.26168 0.25057 0.24782 0.0
C2715 C 0.24207 0.23964 0.25254 0.0
C2716 C 0.23166 0.224 0.22937 0.0
C2717 C 0.24087 0.21975 0.20162 0.0
C2718 C 0.27333 0.26776 0.27079 0.0
C2719 C 0.21086 0.21168 0.23414 0.0
C2720 C 0.22613 0.25046 0.34307 0.0
C2721 C 0.22175 0.264 0.33169 0.0
C2722 C 0.23148 0.24123 0.31725 0.0
C2723 C 0.23258 0.24583 0.27946 0.0
C2724 C 0.22682 0.25849 0.26792 0.0
C2725 C 0.22139 0.26725 0.29404 0.0
C2726 C 0.23707 0.22747 0.33063 0.0
C2727 C 0.22791 0.26408 0.22821 0.0
H2728 H 0.28556 0.25388 0.21766 0.0
H2729 H 0.23299 0.20777 0.184 0.0
H2730 H 0.26843 0.27793 0.26692 0.0
H2731 H 0.27171 0.26398 0.30022 0.0
H2732 H 0.2884 0.27473 0.26369 0.0
H2733 H 0.20493 0.19949 0.21533 0.0
H2734 H 0.20767 0.20653 0.26276 0.0
H2735 H 0.20375 0.21983 0.22906 0.0
H2736 H 0.22648 0.2479 0.37207 0.0
H2737 H 0.21781 0.27756 0.28496 0.0
H2738 H 0.2525 0.23406 0.32981 0.0
H2739 H 0.23121 0.21501 0.3126 0.0
H2740 H 0.23234 0.22291 0.35916 0.0
H2741 H 0.24277 0.27221 0.2197 0.0
H2742 H 0.22132 0.27275 0.2233 0.0
H2743 H 0.221 0.25156 0.21042 0.0
C2744 C 0.77402 0.03733 0.22533 0.0
C2745 C 0.76636 0.0316 0.19028 0.0
C2746 C 0.76993 0.02439 0.25367 0.0
C2747 C 0.75746 0.00521 0.24709 0.0
C2748 C 0.75061 -0.0008 0.21106 0.0
C2749 C 0.7553 0.0125 0.18289 0.0
C2750 C 0.77784 0.03146 0.29132 0.0
C2751 C 0.7372 0.97889 0.20289 0.0
C2752 C 0.75009 0.96894 0.32012 0.0
C2753 C 0.73363 0.96611 0.3368 0.0
C2754 C 0.75823 0.98179 0.29107 0.0
C2755 C 0.74967 0.99199 0.2787 0.0
C2756 C 0.73339 0.98957 0.29658 0.0
C2757 C 0.72547 0.9765 0.32501 0.0
C2758 C 0.77551 0.98387 0.27267 0.0
C2759 C 0.72392 0.00032 0.28488 0.0
H2760 H 0.78264 0.05214 0.23105 0.0
H2761 H 0.74924 0.00804 0.15592 0.0
H2762 H 0.76663 0.03046 0.30952 0.0
H2763 H 0.7832 0.02277 0.30353 0.0
H2764 H 0.78932 0.04624 0.29074 0.0
H2765 H 0.73496 0.97616 0.17302 0.0
H2766 H 0.74239 0.96996 0.21458 0.0
H2767 H 0.72352 0.97468 0.21589 0.0
H2768 H 0.75606 0.96046 0.32853 0.0
H2769 H 0.71245 0.97392 0.33725 0.0
H2770 H 0.78646 -0.00119 0.27118 0.0
H2771 H 0.77212 0.9786 0.24416 0.0
H2772 H 0.78126 0.97604 0.2872 0.0
H2773 H 0.73398 0.01555 0.28575 0.0
H2774 H 0.71179 -0.00267 0.30255 0.0
H2775 H 0.71899 -0.00329 0.25621 0.0
C2776 C 0.01635 0.77195 0.32908 0.0
C2777 C 0.02929 0.76578 0.32617 0.0
C2778 C 0.0023 0.767 0.30237 0.0
C2779 C 0.0009 0.75519 0.27282 0.0
C2780 C 0.01393 0.7489 0.27009 0.0
C2781 C 0.02802 0.75443 0.29646 0.0
C2782 C 0.98886 0.77425 0.30586 0.0
C2783 C 0.01266 0.73578 0.23995 0.0
C2784 C 0.95412 0.72228 0.22965 0.0
C2785 C 0.95584 0.72986 0.19445 0.0
C2786 C 0.96835 0.73081 0.2557 0.0
C2787 C 0.98478 0.74765 0.24685 0.0
C2788 C 0.98639 0.75588 0.21192 0.0
C2789 C 0.97194 0.74679 0.18592 0.0
C2790 C 0.96612 0.72122 0.29211 0.0
C2791 C 0.00359 0.77399 0.2017 0.0
H2792 H 0.0174 0.78087 0.35178 0.0
H2793 H 0.0379 0.74948 0.29418 0.0
H2794 H 0.98836 0.78091 0.27983 0.0
H2795 H 0.97458 0.76248 0.31113 0.0
H2796 H 0.99278 0.78456 0.3284 0.0
H2797 H 0.02422 0.73262 0.24109 0.0
H2798 H -0.00078 0.72244 0.24208 0.0
H2799 H 0.01293 0.7419 0.21279 0.0
H2800 H 0.94175 0.70922 0.23675 0.0
H2801 H 0.97334 0.75279 0.15892 0.0
H2802 H 0.96848 0.73099 0.31495 0.0
H2803 H 0.97673 0.7168 0.29459 0.0
H2804 H 0.95207 0.7087 0.29546 0.0
H2805 H 0.00708 0.78451 0.22364 0.0
H2806 H 0.00179 0.77974 0.17552 0.0
H2807 H 0.01565 0.77169 0.19885 0.0
loop_
_geom_bond_atom_site_label_1
_geom_bond_atom_site_label_2
_geom_bond_distance
_geom_bond_site_symmetry_2
_ccdc_geom_bond_type
Co0 O1 2.216 . S
Co0 O2 2.091 . S
Co0 O4 2.004 . S
Co0 O10 2.021 . S
Co0 O12 2.137 . S
Co0 O13 2.244 . S
O1 Co0 2.216 . S
O1 C8 1.247 . S
O2 Co0 2.091 . S
O2 C8 1.261 . S
C3 O12 1.247 . S
C3 O13 1.272 . S
O4 Co0 2.004 . S
O4 C9 1.259 . S
Co5 O6 2.061 . S
Co5 O11 2.052 . S
Co5 O13 2.135 . S
O6 Co5 2.061 . S
O6 C9 1.235 . S
C7 O10 1.238 . S
C7 O11 1.241 . S
C8 O1 1.247 . S
C8 O2 1.261 . S
C9 O4 1.259 . S
C9 O6 1.235 . S
O10 Co0 2.021 . S
O10 C7 1.238 . S
O11 Co5 2.052 . S
O11 C7 1.241 . S
O12 Co0 2.137 . S
O12 C3 1.247 . S
O13 Co0 2.244 . S
O13 C3 1.272 . S
O13 Co5 2.135 . S
Co14 O15 2.216 . S
Co14 O16 2.091 . S
Co14 O18 2.004 . S
Co14 O24 2.021 . S
Co14 O26 2.137 . S
Co14 O27 2.244 . S
O15 Co14 2.216 . S
O15 C22 1.247 . S
O16 Co14 2.091 . S
O16 C22 1.261 . S
C17 O26 1.247 . S
C17 O27 1.272 . S
O18 Co14 2.004 . S
O18 C23 1.259 . S
Co19 O20 2.061 . S
Co19 O25 2.052 . S
Co19 O27 2.135 . S
O20 Co19 2.061 . S
O20 C23 1.235 . S
C21 O24 1.238 . S
C21 O25 1.241 . S
C22 O15 1.247 . S
C22 O16 1.261 . S
C23 O18 1.259 . S
C23 O20 1.235 . S
O24 Co14 2.021 . S
O24 C21 1.238 . S
O25 Co19 2.052 . S
O25 C21 1.241 . S
O26 Co14 2.137 . S
O26 C17 1.247 . S
O27 Co14 2.244 . S
O27 C17 1.272 . S
O27 Co19 2.135 . S
Co28 O29 2.216 . S
Co28 O30 2.091 . S
Co28 O32 2.004 . S
Co28 O38 2.021 . S
Co28 O40 2.137 . S
Co28 O41 2.244 . S
O29 Co28 2.216 . S
O29 C36 1.247 . S
O30 Co28 2.091 . S
O30 C36 1.261 . S
C31 O40 1.247 . S
C31 O41 1.272 . S
O32 Co28 2.004 . S
O32 C37 1.259 . S
Co33 O34 2.061 . S
Co33 O39 2.052 . S
Co33 O41 2.135 . S
O34 Co33 2.061 . S
O34 C37 1.235 . S
C35 O38 1.238 . S
C35 O39 1.241 . S
C36 O29 1.247 . S
C36 O30 1.261 . S
C37 O32 1.259 . S
C37 O34 1.235 . S
O38 Co28 2.021 . S
O38 C35 1.238 . S
O39 Co33 2.052 . S
O39 C35 1.241 . S
O40 Co28 2.137 . S
O40 C31 1.247 . S
O41 Co28 2.244 . S
O41 C31 1.272 . S
O41 Co33 2.135 . S
Co42 O43 2.216 . S
Co42 O44 2.091 . S
Co42 O46 2.004 . S
Co42 O52 2.021 . S
Co42 O54 2.137 . S
Co42 O55 2.244 . S
O43 Co42 2.216 . S
O43 C50 1.247 . S
O44 Co42 2.091 . S
O44 C50 1.261 . S
C45 O54 1.247 . S
C45 O55 1.272 . S
O46 Co42 2.004 . S
O46 C51 1.259 . S
Co47 O48 2.061 . S
Co47 O53 2.052 . S
Co47 O55 2.135 . S
O48 Co47 2.061 . S
O48 C51 1.235 . S
C49 O52 1.238 . S
C49 O53 1.241 . S
C50 O43 1.247 . S
C50 O44 1.261 . S
C51 O46 1.259 . S
C51 O48 1.235 . S
O52 Co42 2.021 . S
O52 C49 1.238 . S
O53 Co47 2.052 . S
O53 C49 1.241 . S
O54 Co42 2.137 . S
O54 C45 1.247 . S
O55 Co42 2.244 . S
O55 C45 1.272 . S
O55 Co47 2.135 . S
Co56 O57 2.216 . S
Co56 O58 2.091 . S
Co56 O60 2.004 . S
Co56 O66 2.021 . S
Co56 O68 2.137 . S
Co56 O69 2.244 . S
O57 Co56 2.216 . S
O57 C64 1.247 . S
O58 Co56 2.091 . S
O58 C64 1.261 . S
C59 O68 1.247 . S
C59 O69 1.272 . S
O60 Co56 2.004 . S
O60 C65 1.259 . S
Co61 O62 2.061 . S
Co61 O67 2.052 . S
Co61 O69 2.135 . S
O62 Co61 2.061 . S
O62 C65 1.235 . S
C63 O66 1.238 . S
C63 O67 1.241 . S
C64 O57 1.247 . S
C64 O58 1.261 . S
C65 O60 1.259 . S
C65 O62 1.235 . S
O66 Co56 2.021 . S
O66 C63 1.238 . S
O67 Co61 2.052 . S
O67 C63 1.241 . S
O68 Co56 2.137 . S
O68 C59 1.247 . S
O69 Co56 2.244 . S
O69 C59 1.272 . S
O69 Co61 2.135 . S
Co70 O71 2.216 . S
Co70 O72 2.091 . S
Co70 O74 2.004 . S
Co70 O80 2.021 . S
Co70 O82 2.137 . S
Co70 O83 2.244 . S
O71 Co70 2.216 . S
O71 C78 1.247 . S
O72 Co70 2.091 . S
O72 C78 1.261 . S
C73 O82 1.247 . S
C73 O83 1.272 . S
O74 Co70 2.004 . S
O74 C79 1.259 . S
Co75 O76 2.061 . S
Co75 O81 2.052 . S
Co75 O83 2.135 . S
O76 Co75 2.061 . S
O76 C79 1.235 . S
C77 O80 1.238 . S
C77 O81 1.241 . S
C78 O71 1.247 . S
C78 O72 1.261 . S
C79 O74 1.259 . S
C79 O76 1.235 . S
O80 Co70 2.021 . S
O80 C77 1.238 . S
O81 Co75 2.052 . S
O81 C77 1.241 . S
O82 Co70 2.137 . S
O82 C73 1.247 . S
O83 Co70 2.244 . S
O83 C73 1.272 . S
O83 Co75 2.135 . S
Co84 O85 2.216 . S
Co84 O86 2.091 . S
Co84 O88 2.004 . S
Co84 O94 2.021 . S
Co84 O96 2.137 . S
Co84 O97 2.244 . S
O85 Co84 2.216 . S
O85 C92 1.247 . S
O86 Co84 2.091 . S
O86 C92 1.261 . S
C87 O96 1.247 . S
C87 O97 1.272 . S
O88 Co84 2.004 . S
O88 C93 1.259 . S
Co89 O90 2.061 . S
Co89 O95 2.052 . S
Co89 O97 2.135 . S
O90 Co89 2.061 . S
O90 C93 1.235 . S
C91 O94 1.238 . S
C91 O95 1.241 . S
C92 O85 1.247 . S
C92 O86 1.261 . S
C93 O88 1.259 . S
C93 O90 1.235 . S
O94 Co84 2.021 . S
O94 C91 1.238 . S
O95 Co89 2.052 . S
O95 C91 1.241 . S
O96 Co84 2.137 . S
O96 C87 1.247 . S
O97 Co84 2.244 . S
O97 C87 1.272 . S
O97 Co89 2.135 . S
Co98 O99 2.216 . S
Co98 O100 2.091 . S
Co98 O102 2.004 . S
Co98 O108 2.021 . S
Co98 O110 2.137 . S
Co98 O111 2.244 . S
O99 Co98 2.216 . S
O99 C106 1.247 . S
O100 Co98 2.091 . S
O100 C106 1.261 . S
C101 O110 1.247 . S
C101 O111 1.272 . S
O102 Co98 2.004 . S
O102 C107 1.259 . S
Co103 O104 2.061 . S
Co103 O109 2.052 . S
Co103 O111 2.135 . S
O104 Co103 2.061 . S
O104 C107 1.235 . S
C105 O108 1.238 . S
C105 O109 1.241 . S
C106 O99 1.247 . S
C106 O100 1.261 . S
C107 O102 1.259 . S
C107 O104 1.235 . S
O108 Co98 2.021 . S
O108 C105 1.238 . S
O109 Co103 2.052 . S
O109 C105 1.241 . S
O110 Co98 2.137 . S
O110 C101 1.247 . S
O111 Co98 2.244 . S
O111 C101 1.272 . S
O111 Co103 2.135 . S
Co112 O113 2.216 . S
Co112 O114 2.091 . S
Co112 O116 2.004 . S
Co112 O122 2.021 . S
Co112 O124 2.137 . S
Co112 O125 2.244 . S
O113 Co112 2.216 . S
O113 C120 1.247 . S
O114 Co112 2.091 . S
O114 C120 1.261 . S
C115 O124 1.247 . S
C115 O125 1.272 . S
O116 Co112 2.004 . S
O116 C121 1.259 . S
Co117 O118 2.061 . S
Co117 O123 2.052 . S
Co117 O125 2.135 . S
O118 Co117 2.061 . S
O118 C121 1.235 . S
C119 O122 1.238 . S
C119 O123 1.241 . S
C120 O113 1.247 . S
C120 O114 1.261 . S
C121 O116 1.259 . S
C121 O118 1.235 . S
O122 Co112 2.021 . S
O122 C119 1.238 . S
O123 Co117 2.052 . S
O123 C119 1.241 . S
O124 Co112 2.137 . S
O124 C115 1.247 . S
O125 Co112 2.244 . S
O125 C115 1.272 . S
O125 Co117 2.135 . S
Co126 O127 2.216 . S
Co126 O128 2.091 . S
Co126 O130 2.004 . S
Co126 O136 2.021 . S
Co126 O138 2.137 . S
Co126 O139 2.244 . S
O127 Co126 2.216 . S
O127 C134 1.247 . S
O128 Co126 2.091 . S
O128 C134 1.261 . S
C129 O138 1.247 . S
C129 O139 1.272 . S
O130 Co126 2.004 . S
O130 C135 1.259 . S
Co131 O132 2.061 . S
Co131 O137 2.052 . S
Co131 O139 2.135 . S
O132 Co131 2.061 . S
O132 C135 1.235 . S
C133 O136 1.238 . S
C133 O137 1.241 . S
C134 O127 1.247 . S
C134 O128 1.261 . S
C135 O130 1.259 . S
C135 O132 1.235 . S
O136 Co126 2.021 . S
O136 C133 1.238 . S
O137 Co131 2.052 . S
O137 C133 1.241 . S
O138 Co126 2.137 . S
O138 C129 1.247 . S
O139 Co126 2.244 . S
O139 C129 1.272 . S
O139 Co131 2.135 . S
Co140 O141 2.216 . S
Co140 O142 2.091 . S
Co140 O144 2.004 . S
Co140 O150 2.021 . S
Co140 O152 2.137 . S
Co140 O153 2.244 . S
O141 Co140 2.216 . S
O141 C148 1.247 . S
O142 Co140 2.091 . S
O142 C148 1.261 . S
C143 O152 1.247 . S
C143 O153 1.272 . S
O144 Co140 2.004 . S
O144 C149 1.259 . S
Co145 O146 2.061 . S
Co145 O151 2.052 . S
Co145 O153 2.135 . S
O146 Co145 2.061 . S
O146 C149 1.235 . S
C147 O150 1.238 . S
C147 O151 1.241 . S
C148 O141 1.247 . S
C148 O142 1.261 . S
C149 O144 1.259 . S
C149 O146 1.235 . S
O150 Co140 2.021 . S
O150 C147 1.238 . S
O151 Co145 2.052 . S
O151 C147 1.241 . S
O152 Co140 2.137 . S
O152 C143 1.247 . S
O153 Co140 2.244 . S
O153 C143 1.272 . S
O153 Co145 2.135 . S
Co154 O155 2.216 . S
Co154 O156 2.091 . S
Co154 O158 2.004 . S
Co154 O164 2.021 . S
Co154 O166 2.137 . S
Co154 O167 2.244 . S
O155 Co154 2.216 . S
O155 C162 1.247 . S
O156 Co154 2.091 . S
O156 C162 1.261 . S
C157 O166 1.247 . S
C157 O167 1.272 . S
O158 Co154 2.004 . S
O158 C163 1.259 . S
Co159 O160 2.061 . S
Co159 O165 2.052 . S
Co159 O167 2.135 . S
O160 Co159 2.061 . S
O160 C163 1.235 . S
C161 O164 1.238 . S
C161 O165 1.241 . S
C162 O155 1.247 . S
C162 O156 1.261 . S
C163 O158 1.259 . S
C163 O160 1.235 . S
O164 Co154 2.021 . S
O164 C161 1.238 . S
O165 Co159 2.052 . S
O165 C161 1.241 . S
O166 Co154 2.137 . S
O166 C157 1.247 . S
O167 Co154 2.244 . S
O167 C157 1.272 . S
O167 Co159 2.135 . S
Co168 O169 2.216 . S
Co168 O170 2.091 . S
Co168 O172 2.004 . S
Co168 O178 2.021 . S
Co168 O180 2.137 . S
Co168 O181 2.244 . S
O169 Co168 2.216 . S
O169 C176 1.247 . S
O170 Co168 2.091 . S
O170 C176 1.261 . S
C171 O180 1.247 . S
C171 O181 1.272 . S
O172 Co168 2.004 . S
O172 C177 1.259 . S
Co173 O174 2.061 . S
Co173 O179 2.052 . S
Co173 O181 2.135 . S
O174 Co173 2.061 . S
O174 C177 1.235 . S
C175 O178 1.238 . S
C175 O179 1.241 . S
C176 O169 1.247 . S
C176 O170 1.261 . S
C177 O172 1.259 . S
C177 O174 1.235 . S
O178 Co168 2.021 . S
O178 C175 1.238 . S
O179 Co173 2.052 . S
O179 C175 1.241 . S
O180 Co168 2.137 . S
O180 C171 1.247 . S
O181 Co168 2.244 . S
O181 C171 1.272 . S
O181 Co173 2.135 . S
Co182 O183 2.216 . S
Co182 O184 2.091 . S
Co182 O186 2.004 . S
Co182 O192 2.021 . S
Co182 O194 2.137 . S
Co182 O195 2.244 . S
O183 Co182 2.216 . S
O183 C190 1.247 . S
O184 Co182 2.091 . S
O184 C190 1.261 . S
C185 O194 1.247 . S
C185 O195 1.272 . S
O186 Co182 2.004 . S
O186 C191 1.259 . S
Co187 O188 2.061 . S
Co187 O193 2.052 . S
Co187 O195 2.135 . S
O188 Co187 2.061 . S
O188 C191 1.235 . S
C189 O192 1.238 . S
C189 O193 1.241 . S
C190 O183 1.247 . S
C190 O184 1.261 . S
C191 O186 1.259 . S
C191 O188 1.235 . S
O192 Co182 2.021 . S
O192 C189 1.238 . S
O193 Co187 2.052 . S
O193 C189 1.241 . S
O194 Co182 2.137 . S
O194 C185 1.247 . S
O195 Co182 2.244 . S
O195 C185 1.272 . S
O195 Co187 2.135 . S
Co196 O197 2.216 . S
Co196 O198 2.091 . S
Co196 O200 2.004 . S
Co196 O206 2.021 . S
Co196 O208 2.137 . S
Co196 O209 2.244 . S
O197 Co196 2.216 . S
O197 C204 1.247 . S
O198 Co196 2.091 . S
O198 C204 1.261 . S
C199 O208 1.247 . S
C199 O209 1.272 . S
O200 Co196 2.004 . S
O200 C205 1.259 . S
Co201 O202 2.061 . S
Co201 O207 2.052 . S
Co201 O209 2.135 . S
O202 Co201 2.061 . S
O202 C205 1.235 . S
C203 O206 1.238 . S
C203 O207 1.241 . S
C204 O197 1.247 . S
C204 O198 1.261 . S
C205 O200 1.259 . S
C205 O202 1.235 . S
O206 Co196 2.021 . S
O206 C203 1.238 . S
O207 Co201 2.052 . S
O207 C203 1.241 . S
O208 Co196 2.137 . S
O208 C199 1.247 . S
O209 Co196 2.244 . S
O209 C199 1.272 . S
O209 Co201 2.135 . S
Co210 O211 2.216 . S
Co210 O212 2.091 . S
Co210 O214 2.004 . S
Co210 O220 2.021 . S
Co210 O222 2.137 . S
Co210 O223 2.244 . S
O211 Co210 2.216 . S
O211 C218 1.247 . S
O212 Co210 2.091 . S
O212 C218 1.261 . S
C213 O222 1.247 . S
C213 O223 1.272 . S
O214 Co210 2.004 . S
O214 C219 1.259 . S
Co215 O216 2.061 . S
Co215 O221 2.052 . S
Co215 O223 2.135 . S
O216 Co215 2.061 . S
O216 C219 1.235 . S
C217 O220 1.238 . S
C217 O221 1.241 . S
C218 O211 1.247 . S
C218 O212 1.261 . S
C219 O214 1.259 . S
C219 O216 1.235 . S
O220 Co210 2.021 . S
O220 C217 1.238 . S
O221 Co215 2.052 . S
O221 C217 1.241 . S
O222 Co210 2.137 . S
O222 C213 1.247 . S
O223 Co210 2.244 . S
O223 C213 1.272 . S
O223 Co215 2.135 . S
Co224 O225 2.216 . S
Co224 O226 2.091 . S
Co224 O228 2.004 . S
Co224 O234 2.021 . S
Co224 O236 2.137 . S
Co224 O237 2.244 . S
O225 Co224 2.216 . S
O225 C232 1.247 . S
O226 Co224 2.091 . S
O226 C232 1.261 . S
C227 O236 1.247 . S
C227 O237 1.272 . S
O228 Co224 2.004 . S
O228 C233 1.259 . S
Co229 O230 2.061 . S
Co229 O235 2.052 . S
Co229 O237 2.135 . S
O230 Co229 2.061 . S
O230 C233 1.235 . S
C231 O234 1.238 . S
C231 O235 1.241 . S
C232 O225 1.247 . S
C232 O226 1.261 . S
C233 O228 1.259 . S
C233 O230 1.235 . S
O234 Co224 2.021 . S
O234 C231 1.238 . S
O235 Co229 2.052 . S
O235 C231 1.241 . S
O236 Co224 2.137 . S
O236 C227 1.247 . S
O237 Co224 2.244 . S
O237 C227 1.272 . S
O237 Co229 2.135 . S
Co238 O239 2.216 . S
Co238 O240 2.091 . S
Co238 O242 2.004 . S
Co238 O248 2.021 . S
Co238 O250 2.137 . S
Co238 O251 2.244 . S
O239 Co238 2.216 . S
O239 C246 1.247 . S
O240 Co238 2.091 . S
O240 C246 1.261 . S
C241 O250 1.247 . S
C241 O251 1.272 . S
O242 Co238 2.004 . S
O242 C247 1.259 . S
Co243 O244 2.061 . S
Co243 O249 2.052 . S
Co243 O251 2.135 . S
O244 Co243 2.061 . S
O244 C247 1.235 . S
C245 O248 1.238 . S
C245 O249 1.241 . S
C246 O239 1.247 . S
C246 O240 1.261 . S
C247 O242 1.259 . S
C247 O244 1.235 . S
O248 Co238 2.021 . S
O248 C245 1.238 . S
O249 Co243 2.052 . S
O249 C245 1.241 . S
O250 Co238 2.137 . S
O250 C241 1.247 . S
O251 Co238 2.244 . S
O251 C241 1.272 . S
O251 Co243 2.135 . S
Co252 O253 2.216 . S
Co252 O254 2.091 . S
Co252 O256 2.004 . S
Co252 O262 2.021 . S
Co252 O264 2.137 . S
Co252 O265 2.244 . S
O253 Co252 2.216 . S
O253 C260 1.247 . S
O254 Co252 2.091 . S
O254 C260 1.261 . S
C255 O264 1.247 . S
C255 O265 1.272 . S
O256 Co252 2.004 . S
O256 C261 1.259 . S
Co257 O258 2.061 . S
Co257 O263 2.052 . S
Co257 O265 2.135 . S
O258 Co257 2.061 . S
O258 C261 1.235 . S
C259 O262 1.238 . S
C259 O263 1.241 . S
C260 O253 1.247 . S
C260 O254 1.261 . S
C261 O256 1.259 . S
C261 O258 1.235 . S
O262 Co252 2.021 . S
O262 C259 1.238 . S
O263 Co257 2.052 . S
O263 C259 1.241 . S
O264 Co252 2.137 . S
O264 C255 1.247 . S
O265 Co252 2.244 . S
O265 C255 1.272 . S
O265 Co257 2.135 . S
Co266 O267 2.216 . S
Co266 O268 2.091 . S
Co266 O270 2.004 . S
Co266 O276 2.021 . S
Co266 O278 2.137 . S
Co266 O279 2.244 . S
O267 Co266 2.216 . S
O267 C274 1.247 . S
O268 Co266 2.091 . S
O268 C274 1.261 . S
C269 O278 1.247 . S
C269 O279 1.272 . S
O270 Co266 2.004 . S
O270 C275 1.259 . S
Co271 O272 2.061 . S
Co271 O277 2.052 . S
Co271 O279 2.135 . S
O272 Co271 2.061 . S
O272 C275 1.235 . S
C273 O276 1.238 . S
C273 O277 1.241 . S
C274 O267 1.247 . S
C274 O268 1.261 . S
C275 O270 1.259 . S
C275 O272 1.235 . S
O276 Co266 2.021 . S
O276 C273 1.238 . S
O277 Co271 2.052 . S
O277 C273 1.241 . S
O278 Co266 2.137 . S
O278 C269 1.247 . S
O279 Co266 2.244 . S
O279 C269 1.272 . S
O279 Co271 2.135 . S
Co280 O281 2.216 . S
Co280 O282 2.091 . S
Co280 O284 2.004 . S
Co280 O290 2.021 . S
Co280 O292 2.137 . S
Co280 O293 2.244 . S
O281 Co280 2.216 . S
O281 C288 1.247 . S
O282 Co280 2.091 . S
O282 C288 1.261 . S
C283 O292 1.247 . S
C283 O293 1.272 . S
O284 Co280 2.004 . S
O284 C289 1.259 . S
Co285 O286 2.061 . S
Co285 O291 2.052 . S
Co285 O293 2.135 . S
O286 Co285 2.061 . S
O286 C289 1.235 . S
C287 O290 1.238 . S
C287 O291 1.241 . S
C288 O281 1.247 . S
C288 O282 1.261 . S
C289 O284 1.259 . S
C289 O286 1.235 . S
O290 Co280 2.021 . S
O290 C287 1.238 . S
O291 Co285 2.052 . S
O291 C287 1.241 . S
O292 Co280 2.137 . S
O292 C283 1.247 . S
O293 Co280 2.244 . S
O293 C283 1.272 . S
O293 Co285 2.135 . S
Co294 O295 2.216 . S
Co294 O296 2.091 . S
Co294 O298 2.004 . S
Co294 O304 2.021 . S
Co294 O306 2.137 . S
Co294 O307 2.244 . S
O295 Co294 2.216 . S
O295 C302 1.247 . S
O296 Co294 2.091 . S
O296 C302 1.261 . S
C297 O306 1.247 . S
C297 O307 1.272 . S
O298 Co294 2.004 . S
O298 C303 1.259 . S
Co299 O300 2.061 . S
Co299 O305 2.052 . S
Co299 O307 2.135 . S
O300 Co299 2.061 . S
O300 C303 1.235 . S
C301 O304 1.238 . S
C301 O305 1.241 . S
C302 O295 1.247 . S
C302 O296 1.261 . S
C303 O298 1.259 . S
C303 O300 1.235 . S
O304 Co294 2.021 . S
O304 C301 1.238 . S
O305 Co299 2.052 . S
O305 C301 1.241 . S
O306 Co294 2.137 . S
O306 C297 1.247 . S
O307 Co294 2.244 . S
O307 C297 1.272 . S
O307 Co299 2.135 . S
Co308 O309 2.216 . S
Co308 O310 2.091 . S
Co308 O312 2.004 . S
Co308 O318 2.021 . S
Co308 O320 2.137 . S
Co308 O321 2.244 . S
O309 Co308 2.216 . S
O309 C316 1.247 . S
O310 Co308 2.091 . S
O310 C316 1.261 . S
C311 O320 1.247 . S
C311 O321 1.272 . S
O312 Co308 2.004 . S
O312 C317 1.259 . S
Co313 O314 2.061 . S
Co313 O319 2.052 . S
Co313 O321 2.135 . S
O314 Co313 2.061 . S
O314 C317 1.235 . S
C315 O318 1.238 . S
C315 O319 1.241 . S
C316 O309 1.247 . S
C316 O310 1.261 . S
C317 O312 1.259 . S
C317 O314 1.235 . S
O318 Co308 2.021 . S
O318 C315 1.238 . S
O319 Co313 2.052 . S
O319 C315 1.241 . S
O320 Co308 2.137 . S
O320 C311 1.247 . S
O321 Co308 2.244 . S
O321 C311 1.272 . S
O321 Co313 2.135 . S
Co322 O323 2.216 . S
Co322 O324 2.091 . S
Co322 O326 2.004 . S
Co322 O332 2.021 . S
Co322 O334 2.137 . S
Co322 O335 2.244 . S
O323 Co322 2.216 . S
O323 C330 1.247 . S
O324 Co322 2.091 . S
O324 C330 1.261 . S
C325 O334 1.247 . S
C325 O335 1.272 . S
O326 Co322 2.004 . S
O326 C331 1.259 . S
Co327 O328 2.061 . S
Co327 O333 2.052 . S
Co327 O335 2.135 . S
O328 Co327 2.061 . S
O328 C331 1.235 . S
C329 O332 1.238 . S
C329 O333 1.241 . S
C330 O323 1.247 . S
C330 O324 1.261 . S
C331 O326 1.259 . S
C331 O328 1.235 . S
O332 Co322 2.021 . S
O332 C329 1.238 . S
O333 Co327 2.052 . S
O333 C329 1.241 . S
O334 Co322 2.137 . S
O334 C325 1.247 . S
O335 Co322 2.244 . S
O335 C325 1.272 . S
O335 Co327 2.135 . S
Co336 O337 2.216 . S
Co336 O338 2.091 . S
Co336 O340 2.004 . S
Co336 O346 2.021 . S
Co336 O348 2.137 . S
Co336 O349 2.244 . S
O337 Co336 2.216 . S
O337 C344 1.247 . S
O338 Co336 2.091 . S
O338 C344 1.261 . S
C339 O348 1.247 . S
C339 O349 1.272 . S
O340 Co336 2.004 . S
O340 C345 1.259 . S
Co341 O342 2.061 . S
Co341 O347 2.052 . S
Co341 O349 2.135 . S
O342 Co341 2.061 . S
O342 C345 1.235 . S
C343 O346 1.238 . S
C343 O347 1.241 . S
C344 O337 1.247 . S
C344 O338 1.261 . S
C345 O340 1.259 . S
C345 O342 1.235 . S
O346 Co336 2.021 . S
O346 C343 1.238 . S
O347 Co341 2.052 . S
O347 C343 1.241 . S
O348 Co336 2.137 . S
O348 C339 1.247 . S
O349 Co336 2.244 . S
O349 C339 1.272 . S
O349 Co341 2.135 . S
Co350 O351 2.216 . S
Co350 O352 2.091 . S
Co350 O354 2.004 . S
Co350 O360 2.021 . S
Co350 O362 2.137 . S
Co350 O363 2.244 . S
O351 Co350 2.216 . S
O351 C358 1.247 . S
O352 Co350 2.091 . S
O352 C358 1.261 . S
C353 O362 1.247 . S
C353 O363 1.272 . S
O354 Co350 2.004 . S
O354 C359 1.259 . S
Co355 O356 2.061 . S
Co355 O361 2.052 . S
Co355 O363 2.135 . S
O356 Co355 2.061 . S
O356 C359 1.235 . S
C357 O360 1.238 . S
C357 O361 1.241 . S
C358 O351 1.247 . S
C358 O352 1.261 . S
C359 O354 1.259 . S
C359 O356 1.235 . S
O360 Co350 2.021 . S
O360 C357 1.238 . S
O361 Co355 2.052 . S
O361 C357 1.241 . S
O362 Co350 2.137 . S
O362 C353 1.247 . S
O363 Co350 2.244 . S
O363 C353 1.272 . S
O363 Co355 2.135 . S
Co364 O365 2.216 . S
Co364 O366 2.091 . S
Co364 O368 2.004 . S
Co364 O374 2.021 . S
Co364 O376 2.137 . S
Co364 O377 2.244 . S
O365 Co364 2.216 . S
O365 C372 1.247 . S
O366 Co364 2.091 . S
O366 C372 1.261 . S
C367 O376 1.247 . S
C367 O377 1.272 . S
O368 Co364 2.004 . S
O368 C373 1.259 . S
Co369 O370 2.061 . S
Co369 O375 2.052 . S
Co369 O377 2.135 . S
O370 Co369 2.061 . S
O370 C373 1.235 . S
C371 O374 1.238 . S
C371 O375 1.241 . S
C372 O365 1.247 . S
C372 O366 1.261 . S
C373 O368 1.259 . S
C373 O370 1.235 . S
O374 Co364 2.021 . S
O374 C371 1.238 . S
O375 Co369 2.052 . S
O375 C371 1.241 . S
O376 Co364 2.137 . S
O376 C367 1.247 . S
O377 Co364 2.244 . S
O377 C367 1.272 . S
O377 Co369 2.135 . S
Co378 O379 2.216 . S
Co378 O380 2.091 . S
Co378 O382 2.004 . S
Co378 O388 2.021 . S
Co378 O390 2.137 . S
Co378 O391 2.244 . S
O379 Co378 2.216 . S
O379 C386 1.247 . S
O380 Co378 2.091 . S
O380 C386 1.261 . S
C381 O390 1.247 . S
C381 O391 1.272 . S
O382 Co378 2.004 . S
O382 C387 1.259 . S
Co383 O384 2.061 . S
Co383 O389 2.052 . S
Co383 O391 2.135 . S
O384 Co383 2.061 . S
O384 C387 1.235 . S
C385 O388 1.238 . S
C385 O389 1.241 . S
C386 O379 1.247 . S
C386 O380 1.261 . S
C387 O382 1.259 . S
C387 O384 1.235 . S
O388 Co378 2.021 . S
O388 C385 1.238 . S
O389 Co383 2.052 . S
O389 C385 1.241 . S
O390 Co378 2.137 . S
O390 C381 1.247 . S
O391 Co378 2.244 . S
O391 C381 1.272 . S
O391 Co383 2.135 . S
Co392 O393 2.216 . S
Co392 O394 2.091 . S
Co392 O396 2.004 . S
Co392 O402 2.021 . S
Co392 O404 2.137 . S
Co392 O405 2.244 . S
O393 Co392 2.216 . S
O393 C400 1.247 . S
O394 Co392 2.091 . S
O394 C400 1.261 . S
C395 O404 1.247 . S
C395 O405 1.272 . S
O396 Co392 2.004 . S
O396 C401 1.259 . S
Co397 O398 2.061 . S
Co397 O403 2.052 . S
Co397 O405 2.135 . S
O398 Co397 2.061 . S
O398 C401 1.235 . S
C399 O402 1.238 . S
C399 O403 1.241 . S
C400 O393 1.247 . S
C400 O394 1.261 . S
C401 O396 1.259 . S
C401 O398 1.235 . S
O402 Co392 2.021 . S
O402 C399 1.238 . S
O403 Co397 2.052 . S
O403 C399 1.241 . S
O404 Co392 2.137 . S
O404 C395 1.247 . S
O405 Co392 2.244 . S
O405 C395 1.272 . S
O405 Co397 2.135 . S
Co406 O407 2.216 . S
Co406 O408 2.091 . S
Co406 O410 2.004 . S
Co406 O416 2.021 . S
Co406 O418 2.137 . S
Co406 O419 2.244 . S
O407 Co406 2.216 . S
O407 C414 1.247 . S
O408 Co406 2.091 . S
O408 C414 1.261 . S
C409 O418 1.247 . S
C409 O419 1.272 . S
O410 Co406 2.004 . S
O410 C415 1.259 . S
Co411 O412 2.061 . S
Co411 O417 2.052 . S
Co411 O419 2.135 . S
O412 Co411 2.061 . S
O412 C415 1.235 . S
C413 O416 1.238 . S
C413 O417 1.241 . S
C414 O407 1.247 . S
C414 O408 1.261 . S
C415 O410 1.259 . S
C415 O412 1.235 . S
O416 Co406 2.021 . S
O416 C413 1.238 . S
O417 Co411 2.052 . S
O417 C413 1.241 . S
O418 Co406 2.137 . S
O418 C409 1.247 . S
O419 Co406 2.244 . S
O419 C409 1.272 . S
O419 Co411 2.135 . S
Co420 O421 2.216 . S
Co420 O422 2.091 . S
Co420 O424 2.004 . S
Co420 O430 2.021 . S
Co420 O432 2.137 . S
Co420 O433 2.244 . S
O421 Co420 2.216 . S
O421 C428 1.247 . S
O422 Co420 2.091 . S
O422 C428 1.261 . S
C423 O432 1.247 . S
C423 O433 1.272 . S
O424 Co420 2.004 . S
O424 C429 1.259 . S
Co425 O426 2.061 . S
Co425 O431 2.052 . S
Co425 O433 2.135 . S
O426 Co425 2.061 . S
O426 C429 1.235 . S
C427 O430 1.238 . S
C427 O431 1.241 . S
C428 O421 1.247 . S
C428 O422 1.261 . S
C429 O424 1.259 . S
C429 O426 1.235 . S
O430 Co420 2.021 . S
O430 C427 1.238 . S
O431 Co425 2.052 . S
O431 C427 1.241 . S
O432 Co420 2.137 . S
O432 C423 1.247 . S
O433 Co420 2.244 . S
O433 C423 1.272 . S
O433 Co425 2.135 . S
Co434 O435 2.216 . S
Co434 O436 2.091 . S
Co434 O438 2.004 . S
Co434 O444 2.021 . S
Co434 O446 2.137 . S
Co434 O447 2.244 . S
O435 Co434 2.216 . S
O435 C442 1.247 . S
O436 Co434 2.091 . S
O436 C442 1.261 . S
C437 O446 1.247 . S
C437 O447 1.272 . S
O438 Co434 2.004 . S
O438 C443 1.259 . S
Co439 O440 2.061 . S
Co439 O445 2.052 . S
Co439 O447 2.135 . S
O440 Co439 2.061 . S
O440 C443 1.235 . S
C441 O444 1.238 . S
C441 O445 1.241 . S
C442 O435 1.247 . S
C442 O436 1.261 . S
C443 O438 1.259 . S
C443 O440 1.235 . S
O444 Co434 2.021 . S
O444 C441 1.238 . S
O445 Co439 2.052 . S
O445 C441 1.241 . S
O446 Co434 2.137 . S
O446 C437 1.247 . S
O447 Co434 2.244 . S
O447 C437 1.272 . S
O447 Co439 2.135 . S
Co448 O449 2.216 . S
Co448 O450 2.091 . S
Co448 O452 2.004 . S
Co448 O458 2.021 . S
Co448 O460 2.137 . S
Co448 O461 2.244 . S
O449 Co448 2.216 . S
O449 C456 1.247 . S
O450 Co448 2.091 . S
O450 C456 1.261 . S
C451 O460 1.247 . S
C451 O461 1.272 . S
O452 Co448 2.004 . S
O452 C457 1.259 . S
Co453 O454 2.061 . S
Co453 O459 2.052 . S
Co453 O461 2.135 . S
O454 Co453 2.061 . S
O454 C457 1.235 . S
C455 O458 1.238 . S
C455 O459 1.241 . S
C456 O449 1.247 . S
C456 O450 1.261 . S
C457 O452 1.259 . S
C457 O454 1.235 . S
O458 Co448 2.021 . S
O458 C455 1.238 . S
O459 Co453 2.052 . S
O459 C455 1.241 . S
O460 Co448 2.137 . S
O460 C451 1.247 . S
O461 Co448 2.244 . S
O461 C451 1.272 . S
O461 Co453 2.135 . S
Co462 O463 2.216 . S
Co462 O464 2.091 . S
Co462 O466 2.004 . S
Co462 O472 2.021 . S
Co462 O474 2.137 . S
Co462 O475 2.244 . S
O463 Co462 2.216 . S
O463 C470 1.247 . S
O464 Co462 2.091 . S
O464 C470 1.261 . S
C465 O474 1.247 . S
C465 O475 1.272 . S
O466 Co462 2.004 . S
O466 C471 1.259 . S
Co467 O468 2.061 . S
Co467 O473 2.052 . S
Co467 O475 2.135 . S
O468 Co467 2.061 . S
O468 C471 1.235 . S
C469 O472 1.238 . S
C469 O473 1.241 . S
C470 O463 1.247 . S
C470 O464 1.261 . S
C471 O466 1.259 . S
C471 O468 1.235 . S
O472 Co462 2.021 . S
O472 C469 1.238 . S
O473 Co467 2.052 . S
O473 C469 1.241 . S
O474 Co462 2.137 . S
O474 C465 1.247 . S
O475 Co462 2.244 . S
O475 C465 1.272 . S
O475 Co467 2.135 . S
Co476 O477 2.216 . S
Co476 O478 2.091 . S
Co476 O480 2.004 . S
Co476 O486 2.021 . S
Co476 O488 2.137 . S
Co476 O489 2.244 . S
O477 Co476 2.216 . S
O477 C484 1.247 . S
O478 Co476 2.091 . S
O478 C484 1.261 . S
C479 O488 1.247 . S
C479 O489 1.272 . S
O480 Co476 2.004 . S
O480 C485 1.259 . S
Co481 O482 2.061 . S
Co481 O487 2.052 . S
Co481 O489 2.135 . S
O482 Co481 2.061 . S
O482 C485 1.235 . S
C483 O486 1.238 . S
C483 O487 1.241 . S
C484 O477 1.247 . S
C484 O478 1.261 . S
C485 O480 1.259 . S
C485 O482 1.235 . S
O486 Co476 2.021 . S
O486 C483 1.238 . S
O487 Co481 2.052 . S
O487 C483 1.241 . S
O488 Co476 2.137 . S
O488 C479 1.247 . S
O489 Co476 2.244 . S
O489 C479 1.272 . S
O489 Co481 2.135 . S
Co490 O491 2.216 . S
Co490 O492 2.091 . S
Co490 O494 2.004 . S
Co490 O500 2.021 . S
Co490 O502 2.137 . S
Co490 O503 2.244 . S
O491 Co490 2.216 . S
O491 C498 1.247 . S
O492 Co490 2.091 . S
O492 C498 1.261 . S
C493 O502 1.247 . S
C493 O503 1.272 . S
O494 Co490 2.004 . S
O494 C499 1.259 . S
Co495 O496 2.061 . S
Co495 O501 2.052 . S
Co495 O503 2.135 . S
O496 Co495 2.061 . S
O496 C499 1.235 . S
C497 O500 1.238 . S
C497 O501 1.241 . S
C498 O491 1.247 . S
C498 O492 1.261 . S
C499 O494 1.259 . S
C499 O496 1.235 . S
O500 Co490 2.021 . S
O500 C497 1.238 . S
O501 Co495 2.052 . S
O501 C497 1.241 . S
O502 Co490 2.137 . S
O502 C493 1.247 . S
O503 Co490 2.244 . S
O503 C493 1.272 . S
O503 Co495 2.135 . S
C504 C505 1.391 . S
C504 C506 1.394 . S
C504 H520 0.931 . S
C505 C504 1.391 . S
C505 C509 1.376 . S
C506 C504 1.394 . S
C506 C507 1.369 . S
C506 C510 1.531 . S
C507 C506 1.369 . S
C507 C508 1.410 . S
C507 C515 1.503 1_565 S
C508 C507 1.410 . S
C508 C509 1.392 . S
C508 C511 1.511 . S
C509 C505 1.376 . S
C509 C508 1.392 . S
C509 H521 0.929 . S
C510 C506 1.531 . S
C510 H522 1.022 . S
C510 H523 0.962 . S
C510 H524 0.960 . S
C511 C508 1.511 . S
C511 H525 0.961 . S
C511 H526 0.961 1_565 S
C511 H527 0.961 . S
C512 C513 1.370 . S
C512 C514 1.363 . S
C512 H528 0.931 . S
C513 C512 1.370 . S
C513 C517 1.408 . S
C514 C512 1.363 . S
C514 C515 1.370 . S
C514 C518 1.524 . S
C515 C507 1.503 1_545 S
C515 C514 1.370 . S
C515 C516 1.403 . S
C516 C515 1.403 . S
C516 C517 1.404 . S
C516 C519 1.539 . S
C517 C513 1.408 . S
C517 C516 1.404 . S
C517 H529 0.930 . S
C518 C514 1.524 . S
C518 H530 0.956 . S
C518 H531 0.961 . S
C518 H532 0.961 . S
C519 C516 1.539 . S
C519 H533 0.958 . S
C519 H534 0.961 . S
C519 H535 0.960 1_545 S
H520 C504 0.931 . S
H521 C509 0.929 . S
H522 C510 1.022 . S
H523 C510 0.962 . S
H524 C510 0.960 . S
H525 C511 0.961 . S
H526 C511 0.961 1_545 S
H527 C511 0.961 . S
H528 C512 0.931 . S
H529 C517 0.930 . S
H530 C518 0.956 . S
H531 C518 0.961 . S
H532 C518 0.961 . S
H533 C519 0.958 . S
H534 C519 0.961 . S
H535 C519 0.960 1_565 S
C536 C537 1.391 . S
C536 C538 1.394 . S
C536 H552 0.931 . S
C537 C536 1.391 . S
C537 C541 1.376 . S
C538 C536 1.394 . S
C538 C539 1.369 . S
C538 C542 1.531 . S
C539 C538 1.369 . S
C539 C540 1.410 . S
C539 C547 1.503 1_455 S
C540 C539 1.410 . S
C540 C541 1.392 . S
C540 C543 1.511 . S
C541 C537 1.376 . S
C541 C540 1.392 . S
C541 H553 0.929 . S
C542 C538 1.531 . S
C542 H554 0.918 1_455 S
C542 H555 0.962 . S
C542 H556 0.960 . S
C543 C540 1.511 . S
C543 H557 0.961 . S
C543 H558 0.961 1_455 S
C543 H559 0.961 . S
C544 C545 1.370 . S
C544 C546 1.363 . S
C544 H560 0.931 . S
C545 C544 1.370 . S
C545 C549 1.408 . S
C546 C544 1.363 . S
C546 C547 1.370 . S
C546 C550 1.524 . S
C547 C539 1.503 1_655 S
C547 C546 1.370 . S
C547 C548 1.403 . S
C548 C547 1.403 . S
C548 C549 1.404 . S
C548 C551 1.539 . S
C549 C545 1.408 . S
C549 C548 1.404 . S
C549 H561 0.930 . S
C550 C546 1.524 . S
C550 H562 0.956 1_655 S
C550 H563 0.961 1_655 S
C550 H564 0.961 . S
C551 C548 1.539 . S
C551 H565 0.958 . S
C551 H566 0.961 . S
C551 H567 0.960 . S
H552 C536 0.931 . S
H553 C541 0.929 . S
H554 C542 0.918 1_655 S
H555 C542 0.962 . S
H556 C542 0.960 . S
H557 C543 0.961 . S
H558 C543 0.961 1_655 S
H559 C543 0.961 . S
H560 C544 0.931 . S
H561 C549 0.930 . S
H562 C550 0.956 1_455 S
H563 C550 0.961 1_455 S
H564 C550 0.961 . S
H565 C551 0.958 . S
H566 C551 0.961 . S
H567 C551 0.960 . S
C568 C569 1.391 . S
C568 C570 1.394 . S
C568 H584 0.931 . S
C569 C568 1.391 . S
C569 C573 1.376 . S
C570 C568 1.394 . S
C570 C571 1.369 . S
C570 C574 1.531 . S
C571 C570 1.369 . S
C571 C572 1.410 . S
C571 C579 1.503 . S
C572 C571 1.410 . S
C572 C573 1.392 . S
C572 C575 1.511 . S
C573 C569 1.376 . S
C573 C572 1.392 . S
C573 H585 0.929 . S
C574 C570 1.531 . S
C574 H586 0.960 . S
C574 H587 0.962 . S
C574 H588 0.960 . S
C575 C572 1.511 . S
C575 H589 0.961 . S
C575 H590 0.961 . S
C575 H591 0.961 . S
C576 C577 1.370 . S
C576 C578 1.363 . S
C576 H592 0.931 . S
C577 C576 1.370 . S
C577 C581 1.408 . S
C578 C576 1.363 . S
C578 C579 1.370 . S
C578 C582 1.524 . S
C579 C571 1.503 . S
C579 C578 1.370 . S
C579 C580 1.403 . S
C580 C579 1.403 . S
C580 C581 1.404 . S
C580 C583 1.539 . S
C581 C577 1.408 . S
C581 C580 1.404 . S
C581 H593 0.930 . S
C582 C578 1.524 . S
C582 H594 0.956 . S
C582 H595 0.961 . S
C582 H596 0.961 . S
C583 C580 1.539 . S
C583 H597 0.958 . S
C583 H598 0.961 . S
C583 H599 0.960 . S
H584 C568 0.931 . S
H585 C573 0.929 . S
H586 C574 0.960 . S
H587 C574 0.962 . S
H588 C574 0.960 . S
H589 C575 0.961 . S
H590 C575 0.961 . S
H591 C575 0.961 . S
H592 C576 0.931 . S
H593 C581 0.930 . S
H594 C582 0.956 . S
H595 C582 0.961 . S
H596 C582 0.961 . S
H597 C583 0.958 . S
H598 C583 0.961 . S
H599 C583 0.960 . S
C600 C601 1.391 . S
C600 C602 1.394 . S
C600 H616 0.931 . S
C601 C600 1.391 . S
C601 C605 1.376 . S
C602 C600 1.394 . S
C602 C603 1.369 . S
C602 C606 1.531 . S
C603 C602 1.369 . S
C603 C604 1.410 . S
C603 C611 1.503 1_565 S
C604 C603 1.410 . S
C604 C605 1.392 . S
C604 C607 1.511 . S
C605 C601 1.376 . S
C605 C604 1.392 . S
C605 H617 0.929 . S
C606 C602 1.531 . S
C606 H618 0.971 . S
C606 H619 0.962 . S
C606 H620 0.960 . S
C607 C604 1.511 . S
C607 H621 0.961 . S
C607 H622 0.961 1_565 S
C607 H623 0.961 . S
C608 C609 1.370 . S
C608 C610 1.363 . S
C608 H624 0.931 . S
C609 C608 1.370 . S
C609 C613 1.408 . S
C610 C608 1.363 . S
C610 C611 1.370 . S
C610 C614 1.524 . S
C611 C603 1.503 1_545 S
C611 C610 1.370 . S
C611 C612 1.403 . S
C612 C611 1.403 . S
C612 C613 1.404 . S
C612 C615 1.539 . S
C613 C609 1.408 . S
C613 C612 1.404 . S
C613 H625 0.930 . S
C614 C610 1.524 . S
C614 H626 0.956 . S
C614 H627 0.961 . S
C614 H628 0.961 . S
C615 C612 1.539 . S
C615 H629 0.958 . S
C615 H630 0.961 . S
C615 H631 0.960 1_545 S
H616 C600 0.931 . S
H617 C605 0.929 . S
H618 C606 0.971 . S
H619 C606 0.962 . S
H620 C606 0.960 . S
H621 C607 0.961 . S
H622 C607 0.961 1_545 S
H623 C607 0.961 . S
H624 C608 0.931 . S
H625 C613 0.930 . S
H626 C614 0.956 . S
H627 C614 0.961 . S
H628 C614 0.961 . S
H629 C615 0.958 . S
H630 C615 0.961 . S
H631 C615 0.960 1_565 S
C632 C633 1.391 . S
C632 C634 1.394 . S
C632 H648 0.931 . S
C633 C632 1.391 . S
C633 C637 1.376 . S
C634 C632 1.394 . S
C634 C635 1.369 . S
C634 C638 1.531 . S
C635 C634 1.369 . S
C635 C636 1.410 . S
C635 C643 1.503 1_455 S
C636 C635 1.410 . S
C636 C637 1.392 . S
C636 C639 1.511 . S
C637 C633 1.376 . S
C637 C636 1.392 . S
C637 H649 0.929 . S
C638 C634 1.531 . S
C638 H650 0.920 1_455 S
C638 H651 0.962 . S
C638 H652 0.960 . S
C639 C636 1.511 . S
C639 H653 0.961 . S
C639 H654 0.961 1_455 S
C639 H655 0.961 . S
C640 C641 1.370 . S
C640 C642 1.363 . S
C640 H656 0.931 . S
C641 C640 1.370 . S
C641 C645 1.408 . S
C642 C640 1.363 . S
C642 C643 1.370 . S
C642 C646 1.524 . S
C643 C635 1.503 1_655 S
C643 C642 1.370 . S
C643 C644 1.403 . S
C644 C643 1.403 . S
C644 C645 1.404 . S
C644 C647 1.539 . S
C645 C641 1.408 . S
C645 C644 1.404 . S
C645 H657 0.930 . S
C646 C642 1.524 . S
C646 H658 0.956 1_655 S
C646 H659 0.961 1_655 S
C646 H660 0.961 . S
C647 C644 1.539 . S
C647 H661 0.958 . S
C647 H662 0.961 . S
C647 H663 0.960 . S
H648 C632 0.931 . S
H649 C637 0.929 . S
H650 C638 0.920 1_655 S
H651 C638 0.962 . S
H652 C638 0.960 . S
H653 C639 0.961 . S
H654 C639 0.961 1_655 S
H655 C639 0.961 . S
H656 C640 0.931 . S
H657 C645 0.930 . S
H658 C646 0.956 1_455 S
H659 C646 0.961 1_455 S
H660 C646 0.961 . S
H661 C647 0.958 . S
H662 C647 0.961 . S
H663 C647 0.960 . S
C664 C665 1.391 . S
C664 C666 1.394 . S
C664 H680 0.931 . S
C665 C664 1.391 . S
C665 C669 1.376 . S
C666 C664 1.394 . S
C666 C667 1.369 . S
C666 C670 1.531 . S
C667 C666 1.369 . S
C667 C668 1.410 . S
C667 C675 1.503 . S
C668 C667 1.410 . S
C668 C669 1.392 . S
C668 C671 1.511 . S
C669 C665 1.376 . S
C669 C668 1.392 . S
C669 H681 0.929 . S
C670 C666 1.531 . S
C670 H682 0.960 . S
C670 H683 0.962 . S
C670 H684 0.960 . S
C671 C668 1.511 . S
C671 H685 0.961 . S
C671 H686 0.961 . S
C671 H687 0.961 . S
C672 C673 1.370 . S
C672 C674 1.363 . S
C672 H688 0.931 . S
C673 C672 1.370 . S
C673 C677 1.408 . S
C674 C672 1.363 . S
C674 C675 1.370 . S
C674 C678 1.524 . S
C675 C667 1.503 . S
C675 C674 1.370 . S
C675 C676 1.403 . S
C676 C675 1.403 . S
C676 C677 1.404 . S
C676 C679 1.539 . S
C677 C673 1.408 . S
C677 C676 1.404 . S
C677 H689 0.930 . S
C678 C674 1.524 . S
C678 H690 0.956 . S
C678 H691 0.961 . S
C678 H692 0.961 . S
C679 C676 1.539 . S
C679 H693 0.958 . S
C679 H694 0.961 . S
C679 H695 0.960 . S
H680 C664 0.931 . S
H681 C669 0.929 . S
H682 C670 0.960 . S
H683 C670 0.962 . S
H684 C670 0.960 . S
H685 C671 0.961 . S
H686 C671 0.961 . S
H687 C671 0.961 . S
H688 C672 0.931 . S
H689 C677 0.930 . S
H690 C678 0.956 . S
H691 C678 0.961 . S
H692 C678 0.961 . S
H693 C679 0.958 . S
H694 C679 0.961 . S
H695 C679 0.960 . S
C696 C697 1.391 . S
C696 C698 1.394 1_455 S
C696 H712 0.931 . S
C697 C696 1.391 . S
C697 C701 1.376 1_455 S
C698 C696 1.394 1_655 S
C698 C699 1.369 . S
C698 C702 1.531 1_655 S
C699 C698 1.369 . S
C699 C700 1.410 . S
C699 C707 1.503 . S
C700 C699 1.410 . S
C700 C701 1.392 . S
C700 C703 1.511 . S
C701 C697 1.376 1_655 S
C701 C700 1.392 . S
C701 H713 0.929 . S
C702 C698 1.531 1_455 S
C702 H714 0.960 1_455 S
C702 H715 0.962 . S
C702 H716 0.960 . S
C703 C700 1.511 . S
C703 H717 0.961 . S
C703 H718 0.961 . S
C703 H719 0.961 . S
C704 C705 1.370 . S
C704 C706 1.363 . S
C704 H720 0.931 . S
C705 C704 1.370 . S
C705 C709 1.408 . S
C706 C704 1.363 . S
C706 C707 1.370 . S
C706 C710 1.524 1_655 S
C707 C699 1.503 . S
C707 C706 1.370 . S
C707 C708 1.403 . S
C708 C707 1.403 . S
C708 C709 1.404 . S
C708 C711 1.539 . S
C709 C705 1.408 . S
C709 C708 1.404 . S
C709 H721 0.930 . S
C710 C706 1.524 1_455 S
C710 H722 0.956 . S
C710 H723 0.961 . S
C710 H724 0.961 . S
C711 C708 1.539 . S
C711 H725 0.958 . S
C711 H726 0.961 . S
C711 H727 0.960 . S
H712 C696 0.931 . S
H713 C701 0.929 . S
H714 C702 0.960 1_655 S
H715 C702 0.962 . S
H716 C702 0.960 . S
H717 C703 0.961 . S
H718 C703 0.961 . S
H719 C703 0.961 . S
H720 C704 0.931 . S
H721 C709 0.930 . S
H722 C710 0.956 . S
H723 C710 0.961 . S
H724 C710 0.961 . S
H725 C711 0.958 . S
H726 C711 0.961 . S
H727 C711 0.960 . S
C728 C729 1.391 . S
C728 C730 1.394 . S
C728 H744 0.931 . S
C729 C728 1.391 . S
C729 C733 1.376 . S
C730 C728 1.394 . S
C730 C731 1.369 . S
C730 C734 1.531 . S
C731 C730 1.369 . S
C731 C732 1.410 . S
C731 C739 1.503 . S
C732 C731 1.410 . S
C732 C733 1.392 . S
C732 C735 1.511 . S
C733 C729 1.376 . S
C733 C732 1.392 . S
C733 H745 0.929 . S
C734 C730 1.531 . S
C734 H746 0.960 . S
C734 H747 0.962 . S
C734 H748 0.960 . S
C735 C732 1.511 . S
C735 H749 0.961 . S
C735 H750 0.961 . S
C735 H751 0.961 . S
C736 C737 1.370 . S
C736 C738 1.363 . S
C736 H752 0.931 . S
C737 C736 1.370 . S
C737 C741 1.408 . S
C738 C736 1.363 . S
C738 C739 1.370 . S
C738 C742 1.524 . S
C739 C731 1.503 . S
C739 C738 1.370 . S
C739 C740 1.403 . S
C740 C739 1.403 . S
C740 C741 1.404 . S
C740 C743 1.539 . S
C741 C737 1.408 . S
C741 C740 1.404 . S
C741 H753 0.930 . S
C742 C738 1.524 . S
C742 H754 0.956 . S
C742 H755 0.961 . S
C742 H756 0.961 . S
C743 C740 1.539 . S
C743 H757 0.958 . S
C743 H758 0.961 . S
C743 H759 0.960 . S
H744 C728 0.931 . S
H745 C733 0.929 . S
H746 C734 0.960 . S
H747 C734 0.962 . S
H748 C734 0.960 . S
H749 C735 0.961 . S
H750 C735 0.961 . S
H751 C735 0.961 . S
H752 C736 0.931 . S
H753 C741 0.930 . S
H754 C742 0.956 . S
H755 C742 0.961 . S
H756 C742 0.961 . S
H757 C743 0.958 . S
H758 C743 0.961 . S
H759 C743 0.960 . S
C760 C761 1.391 . S
C760 C762 1.394 . S
C760 H776 0.931 . S
C761 C760 1.391 . S
C761 C765 1.376 . S
C762 C760 1.394 . S
C762 C763 1.369 . S
C762 C766 1.531 . S
C763 C762 1.369 . S
C763 C764 1.410 . S
C763 C771 1.503 . S
C764 C763 1.410 . S
C764 C765 1.392 . S
C764 C767 1.511 . S
C765 C761 1.376 . S
C765 C764 1.392 . S
C765 H777 0.929 . S
C766 C762 1.531 . S
C766 H778 0.960 . S
C766 H779 0.962 . S
C766 H780 0.960 . S
C767 C764 1.511 . S
C767 H781 0.961 . S
C767 H782 0.961 . S
C767 H783 0.961 1_545 S
C768 C769 1.370 1_545 S
C768 C770 1.363 . S
C768 H784 0.931 . S
C769 C768 1.370 1_565 S
C769 C773 1.408 . S
C770 C768 1.363 . S
C770 C771 1.370 . S
C770 C774 1.524 . S
C771 C763 1.503 . S
C771 C770 1.370 . S
C771 C772 1.403 1_545 S
C772 C771 1.403 1_565 S
C772 C773 1.404 . S
C772 C775 1.539 . S
C773 C769 1.408 . S
C773 C772 1.404 . S
C773 H785 0.930 . S
C774 C770 1.524 . S
C774 H786 0.956 . S
C774 H787 0.961 . S
C774 H788 0.961 . S
C775 C772 1.539 . S
C775 H789 0.958 . S
C775 H790 0.961 . S
C775 H791 0.960 . S
H776 C760 0.931 . S
H777 C765 0.929 . S
H778 C766 0.960 . S
H779 C766 0.962 . S
H780 C766 0.960 . S
H781 C767 0.961 . S
H782 C767 0.961 . S
H783 C767 0.961 1_565 S
H784 C768 0.931 . S
H785 C773 0.930 . S
H786 C774 0.956 . S
H787 C774 0.961 . S
H788 C774 0.961 . S
H789 C775 0.958 . S
H790 C775 0.961 . S
H791 C775 0.960 . S
C792 C793 1.391 . S
C792 C794 1.394 . S
C792 H808 0.931 . S
C793 C792 1.391 . S
C793 C797 1.376 . S
C794 C792 1.394 . S
C794 C795 1.369 . S
C794 C798 1.531 . S
C795 C794 1.369 . S
C795 C796 1.410 . S
C795 C803 1.503 . S
C796 C795 1.410 . S
C796 C797 1.392 . S
C796 C799 1.511 . S
C797 C793 1.376 . S
C797 C796 1.392 . S
C797 H809 0.929 . S
C798 C794 1.531 . S
C798 H810 0.960 . S
C798 H811 0.962 . S
C798 H812 0.973 . S
C799 C796 1.511 . S
C799 H813 0.961 . S
C799 H814 0.961 . S
C799 H815 0.961 . S
C800 C801 1.370 . S
C800 C802 1.363 . S
C800 H816 0.931 . S
C801 C800 1.370 . S
C801 C805 1.408 . S
C802 C800 1.363 . S
C802 C803 1.370 . S
C802 C806 1.524 . S
C803 C795 1.503 . S
C803 C802 1.370 . S
C803 C804 1.403 . S
C804 C803 1.403 . S
C804 C805 1.404 . S
C804 C807 1.539 . S
C805 C801 1.408 . S
C805 C804 1.404 . S
C805 H817 0.930 . S
C806 C802 1.524 . S
C806 H818 0.956 . S
C806 H819 0.961 . S
C806 H820 0.961 . S
C807 C804 1.539 . S
C807 H821 0.958 . S
C807 H822 0.961 . S
C807 H823 0.960 . S
H808 C792 0.931 . S
H809 C797 0.929 . S
H810 C798 0.960 . S
H811 C798 0.962 . S
H812 C798 0.973 . S
H813 C799 0.961 . S
H814 C799 0.961 . S
H815 C799 0.961 . S
H816 C800 0.931 . S
H817 C805 0.930 . S
H818 C806 0.956 . S
H819 C806 0.961 . S
H820 C806 0.961 . S
H821 C807 0.958 . S
H822 C807 0.961 . S
H823 C807 0.960 . S
C824 C825 1.391 1_545 S
C824 C826 1.394 . S
C824 H840 0.931 . S
C825 C824 1.391 1_565 S
C825 C829 1.376 . S
C826 C824 1.394 . S
C826 C827 1.369 . S
C826 C830 1.531 . S
C827 C826 1.369 . S
C827 C828 1.410 1_545 S
C827 C835 1.503 . S
C828 C827 1.410 1_565 S
C828 C829 1.392 . S
C828 C831 1.511 . S
C829 C825 1.376 . S
C829 C828 1.392 . S
C829 H841 0.929 . S
C830 C826 1.531 . S
C830 H842 0.960 . S
C830 H843 0.962 . S
C830 H844 0.960 . S
C831 C828 1.511 . S
C831 H845 0.961 . S
C831 H846 0.961 . S
C831 H847 0.961 . S
C832 C833 1.370 . S
C832 C834 1.363 . S
C832 H848 0.931 . S
C833 C832 1.370 . S
C833 C837 1.408 . S
C834 C832 1.363 . S
C834 C835 1.370 . S
C834 C838 1.524 . S
C835 C827 1.503 . S
C835 C834 1.370 . S
C835 C836 1.403 . S
C836 C835 1.403 . S
C836 C837 1.404 . S
C836 C839 1.539 1_545 S
C837 C833 1.408 . S
C837 C836 1.404 . S
C837 H849 0.930 . S
C838 C834 1.524 . S
C838 H850 0.956 . S
C838 H851 0.961 . S
C838 H852 0.961 . S
C839 C836 1.539 1_565 S
C839 H853 0.958 . S
C839 H854 0.961 . S
C839 H855 0.960 . S
H840 C824 0.931 . S
H841 C829 0.929 . S
H842 C830 0.960 . S
H843 C830 0.962 . S
H844 C830 0.960 . S
H845 C831 0.961 . S
H846 C831 0.961 . S
H847 C831 0.961 . S
H848 C832 0.931 . S
H849 C837 0.930 . S
H850 C838 0.956 . S
H851 C838 0.961 . S
H852 C838 0.961 . S
H853 C839 0.958 . S
H854 C839 0.961 . S
H855 C839 0.960 . S
C856 C857 1.391 . S
C856 C858 1.394 . S
C856 H872 0.931 . S
C857 C856 1.391 . S
C857 C861 1.376 . S
C858 C856 1.394 . S
C858 C859 1.369 . S
C858 C862 1.531 . S
C859 C858 1.369 . S
C859 C860 1.410 . S
C859 C867 1.503 . S
C860 C859 1.410 . S
C860 C861 1.392 . S
C860 C863 1.511 1_655 S
C861 C857 1.376 . S
C861 C860 1.392 . S
C861 H873 0.929 . S
C862 C858 1.531 . S
C862 H874 0.960 . S
C862 H875 0.962 . S
C862 H876 0.960 . S
C863 C860 1.511 1_455 S
C863 H877 0.961 . S
C863 H878 0.961 . S
C863 H879 0.961 . S
C864 C865 1.330 1_655 S
C864 C866 1.422 . S
C864 H880 0.915 . S
C865 C864 1.330 1_455 S
C865 C869 1.408 . S
C866 C864 1.422 . S
C866 C867 1.370 . S
C866 C870 1.524 . S
C867 C859 1.503 . S
C867 C866 1.370 . S
C867 C868 1.388 1_655 S
C868 C867 1.388 1_455 S
C868 C869 1.426 . S
C868 C871 1.533 . S
C869 C865 1.408 . S
C869 C868 1.426 . S
C869 H881 0.930 . S
C870 C866 1.524 . S
C870 H882 0.956 . S
C870 H883 0.961 . S
C870 H884 0.961 . S
C871 C868 1.533 . S
C871 H885 0.958 1_454 S
C871 H886 0.961 . S
C871 H887 0.960 . S
H872 C856 0.931 . S
H873 C861 0.929 . S
H874 C862 0.960 . S
H875 C862 0.962 . S
H876 C862 0.960 . S
H877 C863 0.961 . S
H878 C863 0.961 . S
H879 C863 0.961 . S
H880 C864 0.915 . S
H881 C869 0.930 . S
H882 C870 0.956 . S
H883 C870 0.961 . S
H884 C870 0.961 . S
H885 C871 0.958 1_656 S
H886 C871 0.961 . S
H887 C871 0.960 . S
C888 C889 1.391 . S
C888 C890 1.394 . S
C888 H904 0.931 . S
C889 C888 1.391 . S
C889 C893 1.376 . S
C890 C888 1.394 . S
C890 C891 1.369 . S
C890 C894 1.531 . S
C891 C890 1.369 . S
C891 C892 1.410 . S
C891 C899 1.503 . S
C892 C891 1.410 . S
C892 C893 1.392 . S
C892 C895 1.511 . S
C893 C889 1.376 . S
C893 C892 1.392 . S
C893 H905 0.929 . S
C894 C890 1.531 . S
C894 H906 0.960 . S
C894 H907 0.962 . S
C894 H908 0.960 . S
C895 C892 1.511 . S
C895 H909 0.961 . S
C895 H910 0.961 . S
C895 H911 0.961 . S
C896 C897 1.370 . S
C896 C898 1.363 . S
C896 H912 0.931 . S
C897 C896 1.370 . S
C897 C901 1.408 . S
C898 C896 1.363 . S
C898 C899 1.370 . S
C898 C902 1.524 . S
C899 C891 1.503 . S
C899 C898 1.370 . S
C899 C900 1.403 . S
C900 C899 1.403 . S
C900 C901 1.404 . S
C900 C903 1.539 . S
C901 C897 1.408 . S
C901 C900 1.404 . S
C901 H913 0.930 . S
C902 C898 1.524 . S
C902 H914 0.956 . S
C902 H915 0.961 . S
C902 H916 0.961 . S
C903 C900 1.539 . S
C903 H917 0.958 . S
C903 H918 0.961 . S
C903 H919 0.960 . S
H904 C888 0.931 . S
H905 C893 0.929 . S
H906 C894 0.960 . S
H907 C894 0.962 . S
H908 C894 0.960 . S
H909 C895 0.961 . S
H910 C895 0.961 . S
H911 C895 0.961 . S
H912 C896 0.931 . S
H913 C901 0.930 . S
H914 C902 0.956 . S
H915 C902 0.961 . S
H916 C902 0.961 . S
H917 C903 0.958 . S
H918 C903 0.961 . S
H919 C903 0.960 . S
C920 C921 1.391 1_565 S
C920 C922 1.394 . S
C920 H936 0.931 . S
C921 C920 1.391 1_545 S
C921 C925 1.376 . S
C922 C920 1.394 . S
C922 C923 1.369 . S
C922 C926 1.531 . S
C923 C922 1.369 . S
C923 C924 1.410 1_565 S
C923 C931 1.503 . S
C924 C923 1.410 1_545 S
C924 C925 1.392 . S
C924 C927 1.511 . S
C925 C921 1.376 . S
C925 C924 1.392 . S
C925 H937 0.929 . S
C926 C922 1.531 . S
C926 H938 0.960 . S
C926 H939 0.962 . S
C926 H940 0.960 . S
C927 C924 1.511 . S
C927 H941 0.961 . S
C927 H942 0.961 . S
C927 H943 0.961 . S
C928 C929 1.370 . S
C928 C930 1.363 . S
C928 H944 0.931 . S
C929 C928 1.370 . S
C929 C933 1.408 . S
C930 C928 1.363 . S
C930 C931 1.370 . S
C930 C934 1.524 . S
C931 C923 1.503 . S
C931 C930 1.370 . S
C931 C932 1.403 . S
C932 C931 1.403 . S
C932 C933 1.404 . S
C932 C935 1.539 . S
C933 C929 1.408 . S
C933 C932 1.404 . S
C933 H945 0.930 . S
C934 C930 1.524 . S
C934 H946 0.956 . S
C934 H947 0.961 . S
C934 H948 0.961 . S
C935 C932 1.539 . S
C935 H949 0.954 1_556 S
C935 H950 0.961 . S
C935 H951 0.960 1_565 S
H936 C920 0.931 . S
H937 C925 0.929 . S
H938 C926 0.960 . S
H939 C926 0.962 . S
H940 C926 0.960 . S
H941 C927 0.961 . S
H942 C927 0.961 . S
H943 C927 0.961 . S
H944 C928 0.931 . S
H945 C933 0.930 . S
H946 C934 0.956 . S
H947 C934 0.961 . S
H948 C934 0.961 . S
H949 C935 0.954 1_554 S
H950 C935 0.961 . S
H951 C935 0.960 1_545 S
C952 C953 1.391 . S
C952 C954 1.394 . S
C952 H968 0.931 . S
C953 C952 1.391 . S
C953 C957 1.376 . S
C954 C952 1.394 . S
C954 C955 1.369 . S
C954 C958 1.531 . S
C955 C954 1.369 . S
C955 C956 1.410 . S
C955 C963 1.503 . S
C956 C955 1.410 . S
C956 C957 1.392 . S
C956 C959 1.511 1_455 S
C957 C953 1.376 . S
C957 C956 1.392 . S
C957 H969 0.929 . S
C958 C954 1.531 . S
C958 H970 0.960 . S
C958 H971 0.962 . S
C958 H972 0.960 . S
C959 C956 1.511 1_655 S
C959 H973 0.961 . S
C959 H974 0.961 . S
C959 H975 0.961 . S
C960 C961 1.370 . S
C960 C962 1.363 1_655 S
C960 H976 0.931 . S
C961 C960 1.370 . S
C961 C965 1.408 . S
C962 C960 1.363 1_455 S
C962 C963 1.370 . S
C962 C966 1.524 . S
C963 C955 1.503 . S
C963 C962 1.370 . S
C963 C964 1.403 . S
C964 C963 1.403 . S
C964 C965 1.404 1_455 S
C964 C967 1.539 . S
C965 C961 1.408 . S
C965 C964 1.404 1_655 S
C965 H977 0.930 . S
C966 C962 1.524 . S
C966 H978 0.956 . S
C966 H979 0.961 . S
C966 H980 0.960 1_556 S
C967 C964 1.539 . S
C967 H981 0.958 . S
C967 H982 0.961 1_455 S
C967 H983 0.960 . S
H968 C952 0.931 . S
H969 C957 0.929 . S
H970 C958 0.960 . S
H971 C958 0.962 . S
H972 C958 0.960 . S
H973 C959 0.961 . S
H974 C959 0.961 . S
H975 C959 0.961 . S
H976 C960 0.931 . S
H977 C965 0.930 . S
H978 C966 0.956 . S
H979 C966 0.961 . S
H980 C966 0.960 1_554 S
H981 C967 0.958 . S
H982 C967 0.961 1_655 S
H983 C967 0.960 . S
C984 C985 1.391 . S
C984 C986 1.394 . S
C984 H1000 0.931 . S
C985 C984 1.391 . S
C985 C989 1.376 . S
C986 C984 1.394 . S
C986 C987 1.369 . S
C986 C990 1.531 . S
C987 C986 1.369 . S
C987 C988 1.410 . S
C987 C995 1.503 . S
C988 C987 1.410 . S
C988 C989 1.392 . S
C988 C991 1.511 . S
C989 C985 1.376 . S
C989 C988 1.392 . S
C989 H1001 0.929 . S
C990 C986 1.531 . S
C990 H1002 0.960 . S
C990 H1003 0.962 1_455 S
C990 H1004 0.960 . S
C991 C988 1.511 . S
C991 H1005 0.961 . S
C991 H1006 0.961 . S
C991 H1007 0.961 . S
C992 C993 1.370 . S
C992 C994 1.363 . S
C992 H1008 0.931 . S
C993 C992 1.370 . S
C993 C997 1.408 1_655 S
C994 C992 1.363 . S
C994 C995 1.370 1_655 S
C994 C998 1.524 . S
C995 C987 1.503 . S
C995 C994 1.370 1_455 S
C995 C996 1.403 . S
C996 C995 1.403 . S
C996 C997 1.404 . S
C996 C999 1.539 . S
C997 C993 1.408 1_455 S
C997 C996 1.404 . S
C997 H1009 0.930 . S
C998 C994 1.524 . S
C998 H1010 0.956 . S
C998 H1011 0.945 1_655 S
C998 H1012 0.961 . S
C999 C996 1.539 . S
C999 H1013 0.958 . S
C999 H1014 0.961 . S
C999 H1015 0.960 . S
H1000 C984 0.931 . S
H1001 C989 0.929 . S
H1002 C990 0.960 . S
H1003 C990 0.962 1_655 S
H1004 C990 0.960 . S
H1005 C991 0.961 . S
H1006 C991 0.961 . S
H1007 C991 0.961 . S
H1008 C992 0.931 . S
H1009 C997 0.930 . S
H1010 C998 0.956 . S
H1011 C998 0.945 1_455 S
H1012 C998 0.961 . S
H1013 C999 0.958 . S
H1014 C999 0.961 . S
H1015 C999 0.960 . S
C1016 C1017 1.391 . S
C1016 C1018 1.394 . S
C1016 H1032 0.931 . S
C1017 C1016 1.391 . S
C1017 C1021 1.376 . S
C1018 C1016 1.394 . S
C1018 C1019 1.369 . S
C1018 C1022 1.531 . S
C1019 C1018 1.369 . S
C1019 C1020 1.410 . S
C1019 C1027 1.503 . S
C1020 C1019 1.410 . S
C1020 C1021 1.392 . S
C1020 C1023 1.511 . S
C1021 C1017 1.376 . S
C1021 C1020 1.392 . S
C1021 H1033 0.929 . S
C1022 C1018 1.531 . S
C1022 H1034 0.960 . S
C1022 H1035 0.962 . S
C1022 H1036 0.960 . S
C1023 C1020 1.511 . S
C1023 H1037 0.961 . S
C1023 H1038 0.961 . S
C1023 H1039 0.961 . S
C1024 C1025 1.370 . S
C1024 C1026 1.363 . S
C1024 H1040 0.931 . S
C1025 C1024 1.370 . S
C1025 C1029 1.408 . S
C1026 C1024 1.363 . S
C1026 C1027 1.370 . S
C1026 C1030 1.524 . S
C1027 C1019 1.503 . S
C1027 C1026 1.370 . S
C1027 C1028 1.403 . S
C1028 C1027 1.403 . S
C1028 C1029 1.404 . S
C1028 C1031 1.539 . S
C1029 C1025 1.408 . S
C1029 C1028 1.404 . S
C1029 H1041 0.930 . S
C1030 C1026 1.524 . S
C1030 H1042 0.956 . S
C1030 H1043 0.961 . S
C1030 H1044 0.961 . S
C1031 C1028 1.539 . S
C1031 H1045 0.958 . S
C1031 H1046 0.961 . S
C1031 H1047 0.960 . S
H1032 C1016 0.931 . S
H1033 C1021 0.929 . S
H1034 C1022 0.960 . S
H1035 C1022 0.962 . S
H1036 C1022 0.960 . S
H1037 C1023 0.961 . S
H1038 C1023 0.961 . S
H1039 C1023 0.961 . S
H1040 C1024 0.931 . S
H1041 C1029 0.930 . S
H1042 C1030 0.956 . S
H1043 C1030 0.961 . S
H1044 C1030 0.961 . S
H1045 C1031 0.958 . S
H1046 C1031 0.961 . S
H1047 C1031 0.960 . S
C1048 C1049 1.391 . S
C1048 C1050 1.394 . S
C1048 H1064 0.931 . S
C1049 C1048 1.391 . S
C1049 C1053 1.376 . S
C1050 C1048 1.394 . S
C1050 C1051 1.369 . S
C1050 C1054 1.531 . S
C1051 C1050 1.369 . S
C1051 C1052 1.410 . S
C1051 C1059 1.503 . S
C1052 C1051 1.410 . S
C1052 C1053 1.392 . S
C1052 C1055 1.511 1_565 S
C1053 C1049 1.376 . S
C1053 C1052 1.392 . S
C1053 H1065 0.929 . S
C1054 C1050 1.531 . S
C1054 H1066 0.960 . S
C1054 H1067 0.962 . S
C1054 H1068 0.960 . S
C1055 C1052 1.511 1_545 S
C1055 H1069 0.961 . S
C1055 H1070 0.961 . S
C1055 H1071 0.961 . S
C1056 C1057 1.346 1_565 S
C1056 C1058 1.399 . S
C1056 H1072 0.920 . S
C1057 C1056 1.346 1_545 S
C1057 C1061 1.408 . S
C1058 C1056 1.399 . S
C1058 C1059 1.370 . S
C1058 C1062 1.524 . S
C1059 C1051 1.503 . S
C1059 C1058 1.370 . S
C1059 C1060 1.399 . S
C1060 C1059 1.399 . S
C1060 C1061 1.409 1_565 S
C1060 C1063 1.538 1_565 S
C1061 C1057 1.408 . S
C1061 C1060 1.409 1_545 S
C1061 H1073 0.930 . S
C1062 C1058 1.524 . S
C1062 H1074 0.956 . S
C1062 H1075 0.961 . S
C1062 H1076 0.961 . S
C1063 C1060 1.538 1_545 S
C1063 H1077 0.958 1_545 S
C1063 H1078 0.961 . S
C1063 H1079 0.971 . S
H1064 C1048 0.931 . S
H1065 C1053 0.929 . S
H1066 C1054 0.960 . S
H1067 C1054 0.962 . S
H1068 C1054 0.960 . S
H1069 C1055 0.961 . S
H1070 C1055 0.961 . S
H1071 C1055 0.961 . S
H1072 C1056 0.920 . S
H1073 C1061 0.930 . S
H1074 C1062 0.956 . S
H1075 C1062 0.961 . S
H1076 C1062 0.961 . S
H1077 C1063 0.958 1_565 S
H1078 C1063 0.961 . S
H1079 C1063 0.971 . S
C1080 C1081 1.391 . S
C1080 C1082 1.394 . S
C1080 H1096 0.931 . S
C1081 C1080 1.391 . S
C1081 C1085 1.376 . S
C1082 C1080 1.394 . S
C1082 C1083 1.369 . S
C1082 C1086 1.531 . S
C1083 C1082 1.369 . S
C1083 C1084 1.410 . S
C1083 C1091 1.503 . S
C1084 C1083 1.410 . S
C1084 C1085 1.392 . S
C1084 C1087 1.511 . S
C1085 C1081 1.376 . S
C1085 C1084 1.392 . S
C1085 H1097 0.929 . S
C1086 C1082 1.531 . S
C1086 H1098 0.960 . S
C1086 H1099 0.962 . S
C1086 H1100 0.960 . S
C1087 C1084 1.511 . S
C1087 H1101 0.961 . S
C1087 H1102 0.961 . S
C1087 H1103 0.961 . S
C1088 C1089 1.370 . S
C1088 C1090 1.363 . S
C1088 H1104 0.931 . S
C1089 C1088 1.370 . S
C1089 C1093 1.408 . S
C1090 C1088 1.363 . S
C1090 C1091 1.370 . S
C1090 C1094 1.524 . S
C1091 C1083 1.503 . S
C1091 C1090 1.370 . S
C1091 C1092 1.403 . S
C1092 C1091 1.403 . S
C1092 C1093 1.404 . S
C1092 C1095 1.539 . S
C1093 C1089 1.408 . S
C1093 C1092 1.404 . S
C1093 H1105 0.930 . S
C1094 C1090 1.524 . S
C1094 H1106 0.956 . S
C1094 H1107 0.961 . S
C1094 H1108 0.961 . S
C1095 C1092 1.539 . S
C1095 H1109 0.958 . S
C1095 H1110 0.961 . S
C1095 H1111 0.960 . S
H1096 C1080 0.931 . S
H1097 C1085 0.929 . S
H1098 C1086 0.960 . S
H1099 C1086 0.962 . S
H1100 C1086 0.960 . S
H1101 C1087 0.961 . S
H1102 C1087 0.961 . S
H1103 C1087 0.961 . S
H1104 C1088 0.931 . S
H1105 C1093 0.930 . S
H1106 C1094 0.956 . S
H1107 C1094 0.961 . S
H1108 C1094 0.961 . S
H1109 C1095 0.958 . S
H1110 C1095 0.961 . S
H1111 C1095 0.960 . S
C1112 C1113 1.391 . S
C1112 C1114 1.394 . S
C1112 H1128 0.931 . S
C1113 C1112 1.391 . S
C1113 C1117 1.376 . S
C1114 C1112 1.394 . S
C1114 C1115 1.369 . S
C1114 C1118 1.531 . S
C1115 C1114 1.369 . S
C1115 C1116 1.410 . S
C1115 C1123 1.503 . S
C1116 C1115 1.410 . S
C1116 C1117 1.392 . S
C1116 C1119 1.511 . S
C1117 C1113 1.376 . S
C1117 C1116 1.392 . S
C1117 H1129 0.929 . S
C1118 C1114 1.531 . S
C1118 H1130 0.960 . S
C1118 H1131 0.962 . S
C1118 H1132 0.960 . S
C1119 C1116 1.511 . S
C1119 H1133 0.961 . S
C1119 H1134 0.961 . S
C1119 H1135 0.961 . S
C1120 C1121 1.370 . S
C1120 C1122 1.363 . S
C1120 H1136 0.931 . S
C1121 C1120 1.370 . S
C1121 C1125 1.408 . S
C1122 C1120 1.363 . S
C1122 C1123 1.370 . S
C1122 C1126 1.524 . S
C1123 C1115 1.503 . S
C1123 C1122 1.370 . S
C1123 C1124 1.403 . S
C1124 C1123 1.403 . S
C1124 C1125 1.404 . S
C1124 C1127 1.539 . S
C1125 C1121 1.408 . S
C1125 C1124 1.404 . S
C1125 H1137 0.930 . S
C1126 C1122 1.524 . S
C1126 H1138 0.956 . S
C1126 H1139 0.961 . S
C1126 H1140 0.961 . S
C1127 C1124 1.539 . S
C1127 H1141 0.958 . S
C1127 H1142 0.961 . S
C1127 H1143 0.960 . S
H1128 C1112 0.931 . S
H1129 C1117 0.929 . S
H1130 C1118 0.960 . S
H1131 C1118 0.962 . S
H1132 C1118 0.960 . S
H1133 C1119 0.961 . S
H1134 C1119 0.961 . S
H1135 C1119 0.961 . S
H1136 C1120 0.931 . S
H1137 C1125 0.930 . S
H1138 C1126 0.956 . S
H1139 C1126 0.961 . S
H1140 C1126 0.961 . S
H1141 C1127 0.958 . S
H1142 C1127 0.961 . S
H1143 C1127 0.960 . S
C1144 C1145 1.391 . S
C1144 C1146 1.394 . S
C1144 H1160 0.931 . S
C1145 C1144 1.391 . S
C1145 C1149 1.376 . S
C1146 C1144 1.394 . S
C1146 C1147 1.369 . S
C1146 C1150 1.531 . S
C1147 C1146 1.369 . S
C1147 C1148 1.410 . S
C1147 C1155 1.503 . S
C1148 C1147 1.410 . S
C1148 C1149 1.392 . S
C1148 C1151 1.511 . S
C1149 C1145 1.376 . S
C1149 C1148 1.392 . S
C1149 H1161 0.929 . S
C1150 C1146 1.531 . S
C1150 H1162 0.960 . S
C1150 H1163 0.962 . S
C1150 H1164 0.960 . S
C1151 C1148 1.511 . S
C1151 H1165 0.961 . S
C1151 H1166 0.961 . S
C1151 H1167 0.961 . S
C1152 C1153 1.370 . S
C1152 C1154 1.363 . S
C1152 H1168 0.931 . S
C1153 C1152 1.370 . S
C1153 C1157 1.408 . S
C1154 C1152 1.363 . S
C1154 C1155 1.370 . S
C1154 C1158 1.524 . S
C1155 C1147 1.503 . S
C1155 C1154 1.370 . S
C1155 C1156 1.403 . S
C1156 C1155 1.403 . S
C1156 C1157 1.404 . S
C1156 C1159 1.539 . S
C1157 C1153 1.408 . S
C1157 C1156 1.404 . S
C1157 H1169 0.930 . S
C1158 C1154 1.524 . S
C1158 H1170 0.956 . S
C1158 H1171 0.961 . S
C1158 H1172 0.961 . S
C1159 C1156 1.539 . S
C1159 H1173 0.958 . S
C1159 H1174 0.961 . S
C1159 H1175 0.960 . S
H1160 C1144 0.931 . S
H1161 C1149 0.929 . S
H1162 C1150 0.960 . S
H1163 C1150 0.962 . S
H1164 C1150 0.960 . S
H1165 C1151 0.961 . S
H1166 C1151 0.961 . S
H1167 C1151 0.961 . S
H1168 C1152 0.931 . S
H1169 C1157 0.930 . S
H1170 C1158 0.956 . S
H1171 C1158 0.961 . S
H1172 C1158 0.961 . S
H1173 C1159 0.958 . S
H1174 C1159 0.961 . S
H1175 C1159 0.960 . S
C1176 C1177 1.391 . S
C1176 C1178 1.394 . S
C1176 H1192 0.931 . S
C1177 C1176 1.391 . S
C1177 C1181 1.376 . S
C1178 C1176 1.394 . S
C1178 C1179 1.369 . S
C1178 C1182 1.531 . S
C1179 C1178 1.369 . S
C1179 C1180 1.410 . S
C1179 C1187 1.503 . S
C1180 C1179 1.410 . S
C1180 C1181 1.392 . S
C1180 C1183 1.511 . S
C1181 C1177 1.376 . S
C1181 C1180 1.392 . S
C1181 H1193 0.929 . S
C1182 C1178 1.531 . S
C1182 H1194 0.960 . S
C1182 H1195 0.962 . S
C1182 H1196 0.960 . S
C1183 C1180 1.511 . S
C1183 H1197 0.961 . S
C1183 H1198 0.961 . S
C1183 H1199 0.961 . S
C1184 C1185 1.370 . S
C1184 C1186 1.363 . S
C1184 H1200 0.931 . S
C1185 C1184 1.370 . S
C1185 C1189 1.415 . S
C1186 C1184 1.363 . S
C1186 C1187 1.370 . S
C1186 C1190 1.524 . S
C1187 C1179 1.503 . S
C1187 C1186 1.370 . S
C1187 C1188 1.403 . S
C1188 C1187 1.403 . S
C1188 C1189 1.425 . S
C1188 C1191 1.539 . S
C1189 C1185 1.415 . S
C1189 C1188 1.425 . S
C1189 H1201 0.904 1_554 S
C1190 C1186 1.524 . S
C1190 H1202 0.956 . S
C1190 H1203 0.961 . S
C1190 H1204 0.961 . S
C1191 C1188 1.539 . S
C1191 H1205 0.958 . S
C1191 H1206 0.961 1_554 S
C1191 H1207 0.960 . S
H1192 C1176 0.931 . S
H1193 C1181 0.929 . S
H1194 C1182 0.960 . S
H1195 C1182 0.962 . S
H1196 C1182 0.960 . S
H1197 C1183 0.961 . S
H1198 C1183 0.961 . S
H1199 C1183 0.961 . S
H1200 C1184 0.931 . S
H1201 C1189 0.904 1_556 S
H1202 C1190 0.956 . S
H1203 C1190 0.961 . S
H1204 C1190 0.961 . S
H1205 C1191 0.958 . S
H1206 C1191 0.961 1_556 S
H1207 C1191 0.960 . S
C1208 C1209 1.391 . S
C1208 C1210 1.394 . S
C1208 H1224 0.931 . S
C1209 C1208 1.391 . S
C1209 C1213 1.376 . S
C1210 C1208 1.394 . S
C1210 C1211 1.369 . S
C1210 C1214 1.531 . S
C1211 C1210 1.369 . S
C1211 C1212 1.410 . S
C1211 C1219 1.503 . S
C1212 C1211 1.410 . S
C1212 C1213 1.392 . S
C1212 C1215 1.511 . S
C1213 C1209 1.376 . S
C1213 C1212 1.392 . S
C1213 H1225 0.929 . S
C1214 C1210 1.531 . S
C1214 H1226 0.960 . S
C1214 H1227 0.962 . S
C1214 H1228 0.960 . S
C1215 C1212 1.511 . S
C1215 H1229 0.961 . S
C1215 H1230 0.961 . S
C1215 H1231 0.961 . S
C1216 C1217 1.370 . S
C1216 C1218 1.363 . S
C1216 H1232 0.931 . S
C1217 C1216 1.370 . S
C1217 C1221 1.408 . S
C1218 C1216 1.363 . S
C1218 C1219 1.370 . S
C1218 C1222 1.524 . S
C1219 C1211 1.503 . S
C1219 C1218 1.370 . S
C1219 C1220 1.403 . S
C1220 C1219 1.403 . S
C1220 C1221 1.404 . S
C1220 C1223 1.539 . S
C1221 C1217 1.408 . S
C1221 C1220 1.404 . S
C1221 H1233 0.945 . S
C1222 C1218 1.524 . S
C1222 H1234 0.956 . S
C1222 H1235 0.961 . S
C1222 H1236 0.961 . S
C1223 C1220 1.539 . S
C1223 H1237 0.958 . S
C1223 H1238 0.961 . S
C1223 H1239 0.960 . S
H1224 C1208 0.931 . S
H1225 C1213 0.929 . S
H1226 C1214 0.960 . S
H1227 C1214 0.962 . S
H1228 C1214 0.960 . S
H1229 C1215 0.961 . S
H1230 C1215 0.961 . S
H1231 C1215 0.961 . S
H1232 C1216 0.931 . S
H1233 C1221 0.945 . S
H1234 C1222 0.956 . S
H1235 C1222 0.961 . S
H1236 C1222 0.961 . S
H1237 C1223 0.958 . S
H1238 C1223 0.961 . S
H1239 C1223 0.960 . S
C1240 C1241 1.391 . S
C1240 C1242 1.394 . S
C1240 H1256 0.931 . S
C1241 C1240 1.391 . S
C1241 C1245 1.376 . S
C1242 C1240 1.394 . S
C1242 C1243 1.369 . S
C1242 C1246 1.531 . S
C1243 C1242 1.369 . S
C1243 C1244 1.410 . S
C1243 C1251 1.503 . S
C1244 C1243 1.410 . S
C1244 C1245 1.392 . S
C1244 C1247 1.511 . S
C1245 C1241 1.376 . S
C1245 C1244 1.392 . S
C1245 H1257 0.929 . S
C1246 C1242 1.531 . S
C1246 H1258 0.960 . S
C1246 H1259 0.962 . S
C1246 H1260 0.960 . S
C1247 C1244 1.511 . S
C1247 H1261 0.961 . S
C1247 H1262 0.961 . S
C1247 H1263 0.961 . S
C1248 C1249 1.370 . S
C1248 C1250 1.363 . S
C1248 H1264 0.931 . S
C1249 C1248 1.370 . S
C1249 C1253 1.408 . S
C1250 C1248 1.363 . S
C1250 C1251 1.370 . S
C1250 C1254 1.524 . S
C1251 C1243 1.503 . S
C1251 C1250 1.370 . S
C1251 C1252 1.403 . S
C1252 C1251 1.403 . S
C1252 C1253 1.404 . S
C1252 C1255 1.539 . S
C1253 C1249 1.408 . S
C1253 C1252 1.404 . S
C1253 H1265 0.930 . S
C1254 C1250 1.524 . S
C1254 H1266 0.956 . S
C1254 H1267 0.961 . S
C1254 H1268 0.961 . S
C1255 C1252 1.539 . S
C1255 H1269 0.958 . S
C1255 H1270 0.961 . S
C1255 H1271 0.960 . S
H1256 C1240 0.931 . S
H1257 C1245 0.929 . S
H1258 C1246 0.960 . S
H1259 C1246 0.962 . S
H1260 C1246 0.960 . S
H1261 C1247 0.961 . S
H1262 C1247 0.961 . S
H1263 C1247 0.961 . S
H1264 C1248 0.931 . S
H1265 C1253 0.930 . S
H1266 C1254 0.956 . S
H1267 C1254 0.961 . S
H1268 C1254 0.961 . S
H1269 C1255 0.958 . S
H1270 C1255 0.961 . S
H1271 C1255 0.960 . S
C1272 C1273 1.391 . S
C1272 C1274 1.394 . S
C1272 H1288 0.931 . S
C1273 C1272 1.391 . S
C1273 C1277 1.376 . S
C1274 C1272 1.394 . S
C1274 C1275 1.369 . S
C1274 C1278 1.531 . S
C1275 C1274 1.369 . S
C1275 C1276 1.410 . S
C1275 C1283 1.503 . S
C1276 C1275 1.410 . S
C1276 C1277 1.392 . S
C1276 C1279 1.511 . S
C1277 C1273 1.376 . S
C1277 C1276 1.392 . S
C1277 H1289 0.929 . S
C1278 C1274 1.531 . S
C1278 H1290 0.960 . S
C1278 H1291 0.962 . S
C1278 H1292 0.960 . S
C1279 C1276 1.511 . S
C1279 H1293 0.961 . S
C1279 H1294 0.961 . S
C1279 H1295 0.961 . S
C1280 C1281 1.370 . S
C1280 C1282 1.363 . S
C1280 H1296 0.931 . S
C1281 C1280 1.370 . S
C1281 C1285 1.408 . S
C1282 C1280 1.363 . S
C1282 C1283 1.370 . S
C1282 C1286 1.524 . S
C1283 C1275 1.503 . S
C1283 C1282 1.370 . S
C1283 C1284 1.403 . S
C1284 C1283 1.403 . S
C1284 C1285 1.404 . S
C1284 C1287 1.539 . S
C1285 C1281 1.408 . S
C1285 C1284 1.404 . S
C1285 H1297 0.930 . S
C1286 C1282 1.524 . S
C1286 H1298 0.956 . S
C1286 H1299 0.961 . S
C1286 H1300 0.961 . S
C1287 C1284 1.539 . S
C1287 H1301 0.958 . S
C1287 H1302 0.961 . S
C1287 H1303 0.960 . S
H1288 C1272 0.931 . S
H1289 C1277 0.929 . S
H1290 C1278 0.960 . S
H1291 C1278 0.962 . S
H1292 C1278 0.960 . S
H1293 C1279 0.961 . S
H1294 C1279 0.961 . S
H1295 C1279 0.961 . S
H1296 C1280 0.931 . S
H1297 C1285 0.930 . S
H1298 C1286 0.956 . S
H1299 C1286 0.961 . S
H1300 C1286 0.961 . S
H1301 C1287 0.958 . S
H1302 C1287 0.961 . S
H1303 C1287 0.960 . S
C1304 C1305 1.391 . S
C1304 C1306 1.394 . S
C1304 H1320 0.931 . S
C1305 C1304 1.391 . S
C1305 C1309 1.376 . S
C1306 C1304 1.394 . S
C1306 C1307 1.369 . S
C1306 C1310 1.531 . S
C1307 C1306 1.369 . S
C1307 C1308 1.410 . S
C1307 C1315 1.503 . S
C1308 C1307 1.410 . S
C1308 C1309 1.392 . S
C1308 C1311 1.511 . S
C1309 C1305 1.376 . S
C1309 C1308 1.392 . S
C1309 H1321 0.929 . S
C1310 C1306 1.531 . S
C1310 H1322 0.960 . S
C1310 H1323 0.962 . S
C1310 H1324 0.960 . S
C1311 C1308 1.511 . S
C1311 H1325 0.961 . S
C1311 H1326 0.961 . S
C1311 H1327 0.961 . S
C1312 C1313 1.370 . S
C1312 C1314 1.363 . S
C1312 H1328 0.931 . S
C1313 C1312 1.370 . S
C1313 C1317 1.408 . S
C1314 C1312 1.363 . S
C1314 C1315 1.370 . S
C1314 C1318 1.524 . S
C1315 C1307 1.503 . S
C1315 C1314 1.370 . S
C1315 C1316 1.403 . S
C1316 C1315 1.403 . S
C1316 C1317 1.404 . S
C1316 C1319 1.539 . S
C1317 C1313 1.408 . S
C1317 C1316 1.404 . S
C1317 H1329 0.930 . S
C1318 C1314 1.524 . S
C1318 H1330 0.956 . S
C1318 H1331 0.961 . S
C1318 H1332 0.961 . S
C1319 C1316 1.539 . S
C1319 H1333 0.958 . S
C1319 H1334 0.961 . S
C1319 H1335 0.960 . S
H1320 C1304 0.931 . S
H1321 C1309 0.929 . S
H1322 C1310 0.960 . S
H1323 C1310 0.962 . S
H1324 C1310 0.960 . S
H1325 C1311 0.961 . S
H1326 C1311 0.961 . S
H1327 C1311 0.961 . S
H1328 C1312 0.931 . S
H1329 C1317 0.930 . S
H1330 C1318 0.956 . S
H1331 C1318 0.961 . S
H1332 C1318 0.961 . S
H1333 C1319 0.958 . S
H1334 C1319 0.961 . S
H1335 C1319 0.960 . S
C1336 C1337 1.391 . S
C1336 C1338 1.394 . S
C1336 H1352 0.931 . S
C1337 C1336 1.391 . S
C1337 C1341 1.376 . S
C1338 C1336 1.394 . S
C1338 C1339 1.369 . S
C1338 C1342 1.531 . S
C1339 C1338 1.369 . S
C1339 C1340 1.410 . S
C1339 C1347 1.503 . S
C1340 C1339 1.410 . S
C1340 C1341 1.392 . S
C1340 C1343 1.511 . S
C1341 C1337 1.376 . S
C1341 C1340 1.392 . S
C1341 H1353 0.929 . S
C1342 C1338 1.531 . S
C1342 H1354 0.960 . S
C1342 H1355 0.962 . S
C1342 H1356 0.960 . S
C1343 C1340 1.511 . S
C1343 H1357 0.961 . S
C1343 H1358 0.961 . S
C1343 H1359 0.961 . S
C1344 C1345 1.370 . S
C1344 C1346 1.363 . S
C1344 H1360 0.931 . S
C1345 C1344 1.370 . S
C1345 C1349 1.408 . S
C1346 C1344 1.363 . S
C1346 C1347 1.370 . S
C1346 C1350 1.524 . S
C1347 C1339 1.503 . S
C1347 C1346 1.370 . S
C1347 C1348 1.403 . S
C1348 C1347 1.403 . S
C1348 C1349 1.404 . S
C1348 C1351 1.539 . S
C1349 C1345 1.408 . S
C1349 C1348 1.404 . S
C1349 H1361 0.930 . S
C1350 C1346 1.524 . S
C1350 H1362 0.956 . S
C1350 H1363 0.961 . S
C1350 H1364 0.961 . S
C1351 C1348 1.539 . S
C1351 H1365 0.958 . S
C1351 H1366 0.961 . S
C1351 H1367 0.960 . S
H1352 C1336 0.931 . S
H1353 C1341 0.929 . S
H1354 C1342 0.960 . S
H1355 C1342 0.962 . S
H1356 C1342 0.960 . S
H1357 C1343 0.961 . S
H1358 C1343 0.961 . S
H1359 C1343 0.961 . S
H1360 C1344 0.931 . S
H1361 C1349 0.930 . S
H1362 C1350 0.956 . S
H1363 C1350 0.961 . S
H1364 C1350 0.961 . S
H1365 C1351 0.958 . S
H1366 C1351 0.961 . S
H1367 C1351 0.960 . S
C1368 C1369 1.391 . S
C1368 C1370 1.394 . S
C1368 H1384 0.931 . S
C1369 C1368 1.391 . S
C1369 C1373 1.376 . S
C1370 C1368 1.394 . S
C1370 C1371 1.369 . S
C1370 C1374 1.531 . S
C1371 C1370 1.369 . S
C1371 C1372 1.410 . S
C1371 C1379 1.503 . S
C1372 C1371 1.410 . S
C1372 C1373 1.392 . S
C1372 C1375 1.511 . S
C1373 C1369 1.376 . S
C1373 C1372 1.392 . S
C1373 H1385 0.929 . S
C1374 C1370 1.531 . S
C1374 H1386 0.960 . S
C1374 H1387 0.962 . S
C1374 H1388 0.960 . S
C1375 C1372 1.511 . S
C1375 H1389 0.961 . S
C1375 H1390 0.961 . S
C1375 H1391 0.961 . S
C1376 C1377 1.370 . S
C1376 C1378 1.363 . S
C1376 H1392 0.931 . S
C1377 C1376 1.370 . S
C1377 C1381 1.408 . S
C1378 C1376 1.363 . S
C1378 C1379 1.370 . S
C1378 C1382 1.524 . S
C1379 C1371 1.503 . S
C1379 C1378 1.370 . S
C1379 C1380 1.403 . S
C1380 C1379 1.403 . S
C1380 C1381 1.404 . S
C1380 C1383 1.539 . S
C1381 C1377 1.408 . S
C1381 C1380 1.404 . S
C1381 H1393 0.930 . S
C1382 C1378 1.524 . S
C1382 H1394 0.956 . S
C1382 H1395 0.961 . S
C1382 H1396 0.961 . S
C1383 C1380 1.539 . S
C1383 H1397 0.958 . S
C1383 H1398 0.961 . S
C1383 H1399 0.960 . S
H1384 C1368 0.931 . S
H1385 C1373 0.929 . S
H1386 C1374 0.960 . S
H1387 C1374 0.962 . S
H1388 C1374 0.960 . S
H1389 C1375 0.961 . S
H1390 C1375 0.961 . S
H1391 C1375 0.961 . S
H1392 C1376 0.931 . S
H1393 C1381 0.930 . S
H1394 C1382 0.956 . S
H1395 C1382 0.961 . S
H1396 C1382 0.961 . S
H1397 C1383 0.958 . S
H1398 C1383 0.961 . S
H1399 C1383 0.960 . S
C1400 C1401 1.391 . S
C1400 C1402 1.394 . S
C1400 H1416 0.931 . S
C1401 C1400 1.391 . S
C1401 C1405 1.376 . S
C1402 C1400 1.394 . S
C1402 C1403 1.369 . S
C1402 C1406 1.531 . S
C1403 C1402 1.369 . S
C1403 C1404 1.410 . S
C1403 C1411 1.503 . S
C1404 C1403 1.410 . S
C1404 C1405 1.392 . S
C1404 C1407 1.511 . S
C1405 C1401 1.376 . S
C1405 C1404 1.392 . S
C1405 H1417 0.929 . S
C1406 C1402 1.531 . S
C1406 H1418 0.960 . S
C1406 H1419 0.962 . S
C1406 H1420 0.960 . S
C1407 C1404 1.511 . S
C1407 H1421 0.961 . S
C1407 H1422 0.961 . S
C1407 H1423 0.961 . S
C1408 C1409 1.370 . S
C1408 C1410 1.363 . S
C1408 H1424 0.931 . S
C1409 C1408 1.370 . S
C1409 C1413 1.408 . S
C1410 C1408 1.363 . S
C1410 C1411 1.370 . S
C1410 C1414 1.524 . S
C1411 C1403 1.503 . S
C1411 C1410 1.370 . S
C1411 C1412 1.403 . S
C1412 C1411 1.403 . S
C1412 C1413 1.404 . S
C1412 C1415 1.539 . S
C1413 C1409 1.408 . S
C1413 C1412 1.404 . S
C1413 H1425 0.930 . S
C1414 C1410 1.524 . S
C1414 H1426 0.956 . S
C1414 H1427 0.961 . S
C1414 H1428 0.961 . S
C1415 C1412 1.539 . S
C1415 H1429 0.958 . S
C1415 H1430 0.961 . S
C1415 H1431 0.960 . S
H1416 C1400 0.931 . S
H1417 C1405 0.929 . S
H1418 C1406 0.960 . S
H1419 C1406 0.962 . S
H1420 C1406 0.960 . S
H1421 C1407 0.961 . S
H1422 C1407 0.961 . S
H1423 C1407 0.961 . S
H1424 C1408 0.931 . S
H1425 C1413 0.930 . S
H1426 C1414 0.956 . S
H1427 C1414 0.961 . S
H1428 C1414 0.961 . S
H1429 C1415 0.958 . S
H1430 C1415 0.961 . S
H1431 C1415 0.960 . S
C1432 C1433 1.391 . S
C1432 C1434 1.394 . S
C1432 H1448 0.931 . S
C1433 C1432 1.391 . S
C1433 C1437 1.376 . S
C1434 C1432 1.394 . S
C1434 C1435 1.369 . S
C1434 C1438 1.531 . S
C1435 C1434 1.369 . S
C1435 C1436 1.410 . S
C1435 C1443 1.503 . S
C1436 C1435 1.410 . S
C1436 C1437 1.392 . S
C1436 C1439 1.511 . S
C1437 C1433 1.376 . S
C1437 C1436 1.392 . S
C1437 H1449 0.929 . S
C1438 C1434 1.531 . S
C1438 H1450 0.960 . S
C1438 H1451 0.962 . S
C1438 H1452 0.960 . S
C1439 C1436 1.511 . S
C1439 H1453 0.961 . S
C1439 H1454 0.961 . S
C1439 H1455 0.961 . S
C1440 C1441 1.370 . S
C1440 C1442 1.363 . S
C1440 H1456 0.931 1_556 S
C1441 C1440 1.370 . S
C1441 C1445 1.408 . S
C1442 C1440 1.363 . S
C1442 C1443 1.370 . S
C1442 C1446 1.524 . S
C1443 C1435 1.503 . S
C1443 C1442 1.370 . S
C1443 C1444 1.403 . S
C1444 C1443 1.403 . S
C1444 C1445 1.404 . S
C1444 C1447 1.539 . S
C1445 C1441 1.408 . S
C1445 C1444 1.404 . S
C1445 H1457 0.930 . S
C1446 C1442 1.524 . S
C1446 H1458 0.956 . S
C1446 H1459 0.961 . S
C1446 H1460 0.961 . S
C1447 C1444 1.539 . S
C1447 H1461 0.958 . S
C1447 H1462 0.961 . S
C1447 H1463 0.960 . S
H1448 C1432 0.931 . S
H1449 C1437 0.929 . S
H1450 C1438 0.960 . S
H1451 C1438 0.962 . S
H1452 C1438 0.960 . S
H1453 C1439 0.961 . S
H1454 C1439 0.961 . S
H1455 C1439 0.961 . S
H1456 C1440 0.931 1_554 S
H1457 C1445 0.930 . S
H1458 C1446 0.956 . S
H1459 C1446 0.961 . S
H1460 C1446 0.961 . S
H1461 C1447 0.958 . S
H1462 C1447 0.961 . S
H1463 C1447 0.960 . S
C1464 C1465 1.391 . S
C1464 C1466 1.394 . S
C1464 H1480 0.931 . S
C1465 C1464 1.391 . S
C1465 C1469 1.376 . S
C1466 C1464 1.394 . S
C1466 C1467 1.369 . S
C1466 C1470 1.531 . S
C1467 C1466 1.369 . S
C1467 C1468 1.410 . S
C1467 C1475 1.503 1_455 S
C1468 C1467 1.410 . S
C1468 C1469 1.392 . S
C1468 C1471 1.511 . S
C1469 C1465 1.376 . S
C1469 C1468 1.392 . S
C1469 H1481 0.929 . S
C1470 C1466 1.531 . S
C1470 H1482 0.960 . S
C1470 H1483 0.962 1_455 S
C1470 H1484 0.960 . S
C1471 C1468 1.511 . S
C1471 H1485 0.961 . S
C1471 H1486 0.961 . S
C1471 H1487 0.961 . S
C1472 C1473 1.370 . S
C1472 C1474 1.363 . S
C1472 H1488 0.931 . S
C1473 C1472 1.370 . S
C1473 C1477 1.408 . S
C1474 C1472 1.363 . S
C1474 C1475 1.370 . S
C1474 C1478 1.524 . S
C1475 C1467 1.503 1_655 S
C1475 C1474 1.370 . S
C1475 C1476 1.403 1_655 S
C1476 C1475 1.403 1_455 S
C1476 C1477 1.404 1_455 S
C1476 C1479 1.539 . S
C1477 C1473 1.408 . S
C1477 C1476 1.404 1_655 S
C1477 H1489 0.930 . S
C1478 C1474 1.524 . S
C1478 H1490 0.956 . S
C1478 H1491 0.961 . S
C1478 H1492 0.961 . S
C1479 C1476 1.539 . S
C1479 H1493 0.958 . S
C1479 H1494 0.961 . S
C1479 H1495 0.960 . S
H1480 C1464 0.931 . S
H1481 C1469 0.929 . S
H1482 C1470 0.960 . S
H1483 C1470 0.962 1_655 S
H1484 C1470 0.960 . S
H1485 C1471 0.961 . S
H1486 C1471 0.961 . S
H1487 C1471 0.961 . S
H1488 C1472 0.931 . S
H1489 C1477 0.930 . S
H1490 C1478 0.956 . S
H1491 C1478 0.961 . S
H1492 C1478 0.961 . S
H1493 C1479 0.958 . S
H1494 C1479 0.961 . S
H1495 C1479 0.960 . S
C1496 C1497 1.391 . S
C1496 C1498 1.394 . S
C1496 H1512 0.931 . S
C1497 C1496 1.391 . S
C1497 C1501 1.376 . S
C1498 C1496 1.394 . S
C1498 C1499 1.369 . S
C1498 C1502 1.531 . S
C1499 C1498 1.369 . S
C1499 C1500 1.410 . S
C1499 C1507 1.503 . S
C1500 C1499 1.410 . S
C1500 C1501 1.392 . S
C1500 C1503 1.511 . S
C1501 C1497 1.376 . S
C1501 C1500 1.392 . S
C1501 H1513 0.929 . S
C1502 C1498 1.531 . S
C1502 H1514 0.960 . S
C1502 H1515 0.962 . S
C1502 H1516 0.960 . S
C1503 C1500 1.511 . S
C1503 H1517 0.961 . S
C1503 H1518 0.961 . S
C1503 H1519 0.961 . S
C1504 C1505 1.370 . S
C1504 C1506 1.363 . S
C1504 H1520 0.931 . S
C1505 C1504 1.370 . S
C1505 C1509 1.408 . S
C1506 C1504 1.363 . S
C1506 C1507 1.370 . S
C1506 C1510 1.524 . S
C1507 C1499 1.503 . S
C1507 C1506 1.370 . S
C1507 C1508 1.403 . S
C1508 C1507 1.403 . S
C1508 C1509 1.404 . S
C1508 C1511 1.539 . S
C1509 C1505 1.408 . S
C1509 C1508 1.404 . S
C1509 H1521 0.930 . S
C1510 C1506 1.524 . S
C1510 H1522 0.956 . S
C1510 H1523 0.961 . S
C1510 H1524 0.961 . S
C1511 C1508 1.539 . S
C1511 H1525 0.958 . S
C1511 H1526 0.961 . S
C1511 H1527 0.960 . S
H1512 C1496 0.931 . S
H1513 C1501 0.929 . S
H1514 C1502 0.960 . S
H1515 C1502 0.962 . S
H1516 C1502 0.960 . S
H1517 C1503 0.961 . S
H1518 C1503 0.961 . S
H1519 C1503 0.961 . S
H1520 C1504 0.931 . S
H1521 C1509 0.930 . S
H1522 C1510 0.956 . S
H1523 C1510 0.961 . S
H1524 C1510 0.961 . S
H1525 C1511 0.958 . S
H1526 C1511 0.961 . S
H1527 C1511 0.960 . S
C1528 C1529 1.391 . S
C1528 C1530 1.394 . S
C1528 H1544 0.931 . S
C1529 C1528 1.391 . S
C1529 C1533 1.376 . S
C1530 C1528 1.394 . S
C1530 C1531 1.369 . S
C1530 C1534 1.531 . S
C1531 C1530 1.369 . S
C1531 C1532 1.410 . S
C1531 C1539 1.503 1_545 S
C1532 C1531 1.410 . S
C1532 C1533 1.392 . S
C1532 C1535 1.547 . S
C1533 C1529 1.376 . S
C1533 C1532 1.392 . S
C1533 H1545 0.929 . S
C1534 C1530 1.531 . S
C1534 H1546 0.960 . S
C1534 H1547 0.962 . S
C1534 H1548 0.960 . S
C1535 C1532 1.547 . S
C1535 H1549 0.944 1_545 S
C1535 H1550 0.935 1_545 S
C1535 H1551 0.970 . S
C1536 C1537 1.370 . S
C1536 C1538 1.363 . S
C1536 H1552 0.931 . S
C1537 C1536 1.370 . S
C1537 C1541 1.408 . S
C1538 C1536 1.363 . S
C1538 C1539 1.370 . S
C1538 C1542 1.524 . S
C1539 C1531 1.503 1_565 S
C1539 C1538 1.370 . S
C1539 C1540 1.403 1_565 S
C1540 C1539 1.403 1_545 S
C1540 C1541 1.404 1_545 S
C1540 C1543 1.539 . S
C1541 C1537 1.408 . S
C1541 C1540 1.404 1_565 S
C1541 H1553 0.930 . S
C1542 C1538 1.524 . S
C1542 H1554 0.956 . S
C1542 H1555 0.961 . S
C1542 H1556 0.961 . S
C1543 C1540 1.539 . S
C1543 H1557 0.958 . S
C1543 H1558 0.961 . S
C1543 H1559 0.960 . S
H1544 C1528 0.931 . S
H1545 C1533 0.929 . S
H1546 C1534 0.960 . S
H1547 C1534 0.962 . S
H1548 C1534 0.960 . S
H1549 C1535 0.944 1_565 S
H1550 C1535 0.935 1_565 S
H1551 C1535 0.970 . S
H1552 C1536 0.931 . S
H1553 C1541 0.930 . S
H1554 C1542 0.956 . S
H1555 C1542 0.961 . S
H1556 C1542 0.961 . S
H1557 C1543 0.958 . S
H1558 C1543 0.961 . S
H1559 C1543 0.960 . S
C1560 C1561 1.391 . S
C1560 C1562 1.394 . S
C1560 H1576 0.931 . S
C1561 C1560 1.391 . S
C1561 C1565 1.376 . S
C1562 C1560 1.394 . S
C1562 C1563 1.369 . S
C1562 C1566 1.531 1_565 S
C1563 C1562 1.369 . S
C1563 C1564 1.410 . S
C1563 C1571 1.503 1_565 S
C1564 C1563 1.410 . S
C1564 C1565 1.392 . S
C1564 C1567 1.511 . S
C1565 C1561 1.376 . S
C1565 C1564 1.392 . S
C1565 H1577 0.929 . S
C1566 C1562 1.531 1_545 S
C1566 H1578 0.960 . S
C1566 H1579 0.962 . S
C1566 H1580 0.960 . S
C1567 C1564 1.511 . S
C1567 H1581 0.961 . S
C1567 H1582 0.961 . S
C1567 H1583 0.961 . S
C1568 C1569 1.370 . S
C1568 C1570 1.363 . S
C1568 H1584 0.931 . S
C1569 C1568 1.370 . S
C1569 C1573 1.408 . S
C1570 C1568 1.363 . S
C1570 C1571 1.370 . S
C1570 C1574 1.524 1_545 S
C1571 C1563 1.503 1_545 S
C1571 C1570 1.370 . S
C1571 C1572 1.403 . S
C1572 C1571 1.403 . S
C1572 C1573 1.404 . S
C1572 C1575 1.539 . S
C1573 C1569 1.408 . S
C1573 C1572 1.404 . S
C1573 H1585 0.930 . S
C1574 C1570 1.524 1_565 S
C1574 H1586 0.956 . S
C1574 H1587 0.961 . S
C1574 H1588 0.961 . S
C1575 C1572 1.539 . S
C1575 H1589 0.958 . S
C1575 H1590 0.961 . S
C1575 H1591 0.960 . S
H1576 C1560 0.931 . S
H1577 C1565 0.929 . S
H1578 C1566 0.960 . S
H1579 C1566 0.962 . S
H1580 C1566 0.960 . S
H1581 C1567 0.961 . S
H1582 C1567 0.961 . S
H1583 C1567 0.961 . S
H1584 C1568 0.931 . S
H1585 C1573 0.930 . S
H1586 C1574 0.956 . S
H1587 C1574 0.961 . S
H1588 C1574 0.961 . S
H1589 C1575 0.958 . S
H1590 C1575 0.961 . S
H1591 C1575 0.960 . S
C1592 C1593 1.391 . S
C1592 C1594 1.394 . S
C1592 H1608 0.931 . S
C1593 C1592 1.391 . S
C1593 C1597 1.376 . S
C1594 C1592 1.394 . S
C1594 C1595 1.369 . S
C1594 C1598 1.531 1_655 S
C1595 C1594 1.369 . S
C1595 C1596 1.410 . S
C1595 C1603 1.503 1_655 S
C1596 C1595 1.410 . S
C1596 C1597 1.392 . S
C1596 C1599 1.511 . S
C1597 C1593 1.376 . S
C1597 C1596 1.392 . S
C1597 H1609 0.929 . S
C1598 C1594 1.531 1_455 S
C1598 H1610 0.960 . S
C1598 H1611 0.962 . S
C1598 H1612 0.960 1_455 S
C1599 C1596 1.511 . S
C1599 H1613 0.961 . S
C1599 H1614 0.961 . S
C1599 H1615 0.961 . S
C1600 C1601 1.370 . S
C1600 C1602 1.363 . S
C1600 H1616 0.931 . S
C1601 C1600 1.370 . S
C1601 C1605 1.408 . S
C1602 C1600 1.363 . S
C1602 C1603 1.370 . S
C1602 C1606 1.524 . S
C1603 C1595 1.503 1_455 S
C1603 C1602 1.370 . S
C1603 C1604 1.400 1_455 S
C1604 C1603 1.400 1_655 S
C1604 C1605 1.367 1_655 S
C1604 C1607 1.585 . S
C1605 C1601 1.408 . S
C1605 C1604 1.367 1_455 S
C1605 H1617 0.930 . S
C1606 C1602 1.524 . S
C1606 H1618 0.956 . S
C1606 H1619 0.961 . S
C1606 H1620 0.961 . S
C1607 C1604 1.585 . S
C1607 H1621 0.958 . S
C1607 H1622 0.961 . S
C1607 H1623 0.960 . S
H1608 C1592 0.931 . S
H1609 C1597 0.929 . S
H1610 C1598 0.960 . S
H1611 C1598 0.962 . S
H1612 C1598 0.960 1_655 S
H1613 C1599 0.961 . S
H1614 C1599 0.961 . S
H1615 C1599 0.961 . S
H1616 C1600 0.931 . S
H1617 C1605 0.930 . S
H1618 C1606 0.956 . S
H1619 C1606 0.961 . S
H1620 C1606 0.961 . S
H1621 C1607 0.958 . S
H1622 C1607 0.961 . S
H1623 C1607 0.960 . S
C1624 C1625 1.391 . S
C1624 C1626 1.394 . S
C1624 H1640 0.931 . S
C1625 C1624 1.391 . S
C1625 C1629 1.376 . S
C1626 C1624 1.394 . S
C1626 C1627 1.369 . S
C1626 C1630 1.531 . S
C1627 C1626 1.369 . S
C1627 C1628 1.410 . S
C1627 C1635 1.503 . S
C1628 C1627 1.410 . S
C1628 C1629 1.392 . S
C1628 C1631 1.511 . S
C1629 C1625 1.376 . S
C1629 C1628 1.392 . S
C1629 H1641 0.929 . S
C1630 C1626 1.531 . S
C1630 H1642 0.960 . S
C1630 H1643 0.962 . S
C1630 H1644 0.960 . S
C1631 C1628 1.511 . S
C1631 H1645 0.961 . S
C1631 H1646 0.961 . S
C1631 H1647 0.961 . S
C1632 C1633 1.370 . S
C1632 C1634 1.363 . S
C1632 H1648 0.931 . S
C1633 C1632 1.370 . S
C1633 C1637 1.408 . S
C1634 C1632 1.363 . S
C1634 C1635 1.370 . S
C1634 C1638 1.524 . S
C1635 C1627 1.503 . S
C1635 C1634 1.370 . S
C1635 C1636 1.403 . S
C1636 C1635 1.403 . S
C1636 C1637 1.404 . S
C1636 C1639 1.539 . S
C1637 C1633 1.408 . S
C1637 C1636 1.404 . S
C1637 H1649 0.930 . S
C1638 C1634 1.524 . S
C1638 H1650 0.956 . S
C1638 H1651 0.961 . S
C1638 H1652 0.961 . S
C1639 C1636 1.539 . S
C1639 H1653 0.958 . S
C1639 H1654 0.961 . S
C1639 H1655 0.960 . S
H1640 C1624 0.931 . S
H1641 C1629 0.929 . S
H1642 C1630 0.960 . S
H1643 C1630 0.962 . S
H1644 C1630 0.960 . S
H1645 C1631 0.961 . S
H1646 C1631 0.961 . S
H1647 C1631 0.961 . S
H1648 C1632 0.931 . S
H1649 C1637 0.930 . S
H1650 C1638 0.956 . S
H1651 C1638 0.961 . S
H1652 C1638 0.961 . S
H1653 C1639 0.958 . S
H1654 C1639 0.961 . S
H1655 C1639 0.960 . S
C1656 C1657 1.391 . S
C1656 C1658 1.394 . S
C1656 H1672 0.931 . S
C1657 C1656 1.391 . S
C1657 C1661 1.376 . S
C1658 C1656 1.394 . S
C1658 C1659 1.369 . S
C1658 C1662 1.531 . S
C1659 C1658 1.369 . S
C1659 C1660 1.410 . S
C1659 C1667 1.503 . S
C1660 C1659 1.410 . S
C1660 C1661 1.392 . S
C1660 C1663 1.511 . S
C1661 C1657 1.376 . S
C1661 C1660 1.392 . S
C1661 H1673 0.929 . S
C1662 C1658 1.531 . S
C1662 H1674 0.960 . S
C1662 H1675 0.962 . S
C1662 H1676 0.960 . S
C1663 C1660 1.511 . S
C1663 H1677 0.961 . S
C1663 H1678 0.961 . S
C1663 H1679 0.961 . S
C1664 C1665 1.370 . S
C1664 C1666 1.363 . S
C1664 H1680 0.931 . S
C1665 C1664 1.370 . S
C1665 C1669 1.408 . S
C1666 C1664 1.363 . S
C1666 C1667 1.370 . S
C1666 C1670 1.524 . S
C1667 C1659 1.503 . S
C1667 C1666 1.370 . S
C1667 C1668 1.403 . S
C1668 C1667 1.403 . S
C1668 C1669 1.404 . S
C1668 C1671 1.539 . S
C1669 C1665 1.408 . S
C1669 C1668 1.404 . S
C1669 H1681 0.930 . S
C1670 C1666 1.524 . S
C1670 H1682 0.956 . S
C1670 H1683 0.961 . S
C1670 H1684 0.961 . S
C1671 C1668 1.539 . S
C1671 H1685 0.958 . S
C1671 H1686 0.961 . S
C1671 H1687 0.960 . S
H1672 C1656 0.931 . S
H1673 C1661 0.929 . S
H1674 C1662 0.960 . S
H1675 C1662 0.962 . S
H1676 C1662 0.960 . S
H1677 C1663 0.961 . S
H1678 C1663 0.961 . S
H1679 C1663 0.961 . S
H1680 C1664 0.931 . S
H1681 C1669 0.930 . S
H1682 C1670 0.956 . S
H1683 C1670 0.961 . S
H1684 C1670 0.961 . S
H1685 C1671 0.958 . S
H1686 C1671 0.961 . S
H1687 C1671 0.960 . S
C1688 C1689 1.391 . S
C1688 C1690 1.394 . S
C1688 H1704 0.931 . S
C1689 C1688 1.391 . S
C1689 C1693 1.376 . S
C1690 C1688 1.394 . S
C1690 C1691 1.369 . S
C1690 C1694 1.531 . S
C1691 C1690 1.369 . S
C1691 C1692 1.410 . S
C1691 C1699 1.503 . S
C1692 C1691 1.410 . S
C1692 C1693 1.392 . S
C1692 C1695 1.511 . S
C1693 C1689 1.376 . S
C1693 C1692 1.392 . S
C1693 H1705 0.929 . S
C1694 C1690 1.531 . S
C1694 H1706 0.960 . S
C1694 H1707 0.962 . S
C1694 H1708 0.960 . S
C1695 C1692 1.511 . S
C1695 H1709 0.961 . S
C1695 H1710 0.961 . S
C1695 H1711 0.961 . S
C1696 C1697 1.370 . S
C1696 C1698 1.363 . S
C1696 H1712 0.931 . S
C1697 C1696 1.370 . S
C1697 C1701 1.408 . S
C1698 C1696 1.363 . S
C1698 C1699 1.370 . S
C1698 C1702 1.524 . S
C1699 C1691 1.503 . S
C1699 C1698 1.370 . S
C1699 C1700 1.403 . S
C1700 C1699 1.403 . S
C1700 C1701 1.404 . S
C1700 C1703 1.539 . S
C1701 C1697 1.408 . S
C1701 C1700 1.404 . S
C1701 H1713 0.930 . S
C1702 C1698 1.524 . S
C1702 H1714 0.956 . S
C1702 H1715 0.961 . S
C1702 H1716 0.961 . S
C1703 C1700 1.539 . S
C1703 H1717 0.958 . S
C1703 H1718 0.961 . S
C1703 H1719 0.960 . S
H1704 C1688 0.931 . S
H1705 C1693 0.929 . S
H1706 C1694 0.960 . S
H1707 C1694 0.962 . S
H1708 C1694 0.960 . S
H1709 C1695 0.961 . S
H1710 C1695 0.961 . S
H1711 C1695 0.961 . S
H1712 C1696 0.931 . S
H1713 C1701 0.930 . S
H1714 C1702 0.956 . S
H1715 C1702 0.961 . S
H1716 C1702 0.961 . S
H1717 C1703 0.958 . S
H1718 C1703 0.961 . S
H1719 C1703 0.960 . S
C1720 C1721 1.391 . S
C1720 C1722 1.394 . S
C1720 H1736 0.931 . S
C1721 C1720 1.391 . S
C1721 C1725 1.376 . S
C1722 C1720 1.394 . S
C1722 C1723 1.369 . S
C1722 C1726 1.531 . S
C1723 C1722 1.369 . S
C1723 C1724 1.410 . S
C1723 C1731 1.503 . S
C1724 C1723 1.410 . S
C1724 C1725 1.392 . S
C1724 C1727 1.511 . S
C1725 C1721 1.376 . S
C1725 C1724 1.392 . S
C1725 H1737 0.929 . S
C1726 C1722 1.531 . S
C1726 H1738 0.960 . S
C1726 H1739 0.962 . S
C1726 H1740 0.960 . S
C1727 C1724 1.511 . S
C1727 H1741 0.961 . S
C1727 H1742 0.961 . S
C1727 H1743 0.961 . S
C1728 C1729 1.370 . S
C1728 C1730 1.363 . S
C1728 H1744 0.931 . S
C1729 C1728 1.370 . S
C1729 C1733 1.408 . S
C1730 C1728 1.363 . S
C1730 C1731 1.370 . S
C1730 C1734 1.524 . S
C1731 C1723 1.503 . S
C1731 C1730 1.370 . S
C1731 C1732 1.403 . S
C1732 C1731 1.403 . S
C1732 C1733 1.404 . S
C1732 C1735 1.539 . S
C1733 C1729 1.408 . S
C1733 C1732 1.404 . S
C1733 H1745 0.930 . S
C1734 C1730 1.524 . S
C1734 H1746 0.956 . S
C1734 H1747 0.961 . S
C1734 H1748 0.961 . S
C1735 C1732 1.539 . S
C1735 H1749 0.958 . S
C1735 H1750 0.961 . S
C1735 H1751 0.960 . S
H1736 C1720 0.931 . S
H1737 C1725 0.929 . S
H1738 C1726 0.960 . S
H1739 C1726 0.962 . S
H1740 C1726 0.960 . S
H1741 C1727 0.961 . S
H1742 C1727 0.961 . S
H1743 C1727 0.961 . S
H1744 C1728 0.931 . S
H1745 C1733 0.930 . S
H1746 C1734 0.956 . S
H1747 C1734 0.961 . S
H1748 C1734 0.961 . S
H1749 C1735 0.958 . S
H1750 C1735 0.961 . S
H1751 C1735 0.960 . S
C1752 C1753 1.391 . S
C1752 C1754 1.394 . S
C1752 H1768 0.931 . S
C1753 C1752 1.391 . S
C1753 C1757 1.376 . S
C1754 C1752 1.394 . S
C1754 C1755 1.369 . S
C1754 C1758 1.531 . S
C1755 C1754 1.369 . S
C1755 C1756 1.410 . S
C1755 C1763 1.503 . S
C1756 C1755 1.410 . S
C1756 C1757 1.392 . S
C1756 C1759 1.511 . S
C1757 C1753 1.376 . S
C1757 C1756 1.392 . S
C1757 H1769 0.929 . S
C1758 C1754 1.531 . S
C1758 H1770 0.960 . S
C1758 H1771 0.962 . S
C1758 H1772 0.960 . S
C1759 C1756 1.511 . S
C1759 H1773 0.961 . S
C1759 H1774 0.961 . S
C1759 H1775 0.961 . S
C1760 C1761 1.370 . S
C1760 C1762 1.363 . S
C1760 H1776 0.931 . S
C1761 C1760 1.370 . S
C1761 C1765 1.408 . S
C1762 C1760 1.363 . S
C1762 C1763 1.370 . S
C1762 C1766 1.524 . S
C1763 C1755 1.503 . S
C1763 C1762 1.370 . S
C1763 C1764 1.403 . S
C1764 C1763 1.403 . S
C1764 C1765 1.404 . S
C1764 C1767 1.539 . S
C1765 C1761 1.408 . S
C1765 C1764 1.404 . S
C1765 H1777 0.930 . S
C1766 C1762 1.524 . S
C1766 H1778 0.956 . S
C1766 H1779 0.961 . S
C1766 H1780 0.961 . S
C1767 C1764 1.539 . S
C1767 H1781 0.958 . S
C1767 H1782 0.961 . S
C1767 H1783 0.960 . S
H1768 C1752 0.931 . S
H1769 C1757 0.929 . S
H1770 C1758 0.960 . S
H1771 C1758 0.962 . S
H1772 C1758 0.960 . S
H1773 C1759 0.961 . S
H1774 C1759 0.961 . S
H1775 C1759 0.961 . S
H1776 C1760 0.931 . S
H1777 C1765 0.930 . S
H1778 C1766 0.956 . S
H1779 C1766 0.961 . S
H1780 C1766 0.961 . S
H1781 C1767 0.958 . S
H1782 C1767 0.961 . S
H1783 C1767 0.960 . S
C1784 C1785 1.391 . S
C1784 C1786 1.394 . S
C1784 H1800 0.931 . S
C1785 C1784 1.391 . S
C1785 C1789 1.376 . S
C1786 C1784 1.394 . S
C1786 C1787 1.369 . S
C1786 C1790 1.531 . S
C1787 C1786 1.369 . S
C1787 C1788 1.410 . S
C1787 C1795 1.503 . S
C1788 C1787 1.410 . S
C1788 C1789 1.392 . S
C1788 C1791 1.511 . S
C1789 C1785 1.376 . S
C1789 C1788 1.392 . S
C1789 H1801 0.929 . S
C1790 C1786 1.531 . S
C1790 H1802 0.960 . S
C1790 H1803 0.962 . S
C1790 H1804 0.960 . S
C1791 C1788 1.511 . S
C1791 H1805 0.961 . S
C1791 H1806 0.961 . S
C1791 H1807 0.961 . S
C1792 C1793 1.370 . S
C1792 C1794 1.363 . S
C1792 H1808 0.931 . S
C1793 C1792 1.370 . S
C1793 C1797 1.408 . S
C1794 C1792 1.363 . S
C1794 C1795 1.370 . S
C1794 C1798 1.524 . S
C1795 C1787 1.503 . S
C1795 C1794 1.370 . S
C1795 C1796 1.403 . S
C1796 C1795 1.403 . S
C1796 C1797 1.404 . S
C1796 C1799 1.539 . S
C1797 C1793 1.408 . S
C1797 C1796 1.404 . S
C1797 H1809 0.930 . S
C1798 C1794 1.524 . S
C1798 H1810 0.956 . S
C1798 H1811 0.961 . S
C1798 H1812 0.961 . S
C1799 C1796 1.539 . S
C1799 H1813 0.958 . S
C1799 H1814 0.961 . S
C1799 H1815 0.960 . S
H1800 C1784 0.931 . S
H1801 C1789 0.929 . S
H1802 C1790 0.960 . S
H1803 C1790 0.962 . S
H1804 C1790 0.960 . S
H1805 C1791 0.961 . S
H1806 C1791 0.961 . S
H1807 C1791 0.961 . S
H1808 C1792 0.931 . S
H1809 C1797 0.930 . S
H1810 C1798 0.956 . S
H1811 C1798 0.961 . S
H1812 C1798 0.961 . S
H1813 C1799 0.958 . S
H1814 C1799 0.961 . S
H1815 C1799 0.960 . S
C1816 C1817 1.391 . S
C1816 C1818 1.394 . S
C1816 H1832 0.931 . S
C1817 C1816 1.391 . S
C1817 C1821 1.376 . S
C1818 C1816 1.394 . S
C1818 C1819 1.369 . S
C1818 C1822 1.531 . S
C1819 C1818 1.369 . S
C1819 C1820 1.410 . S
C1819 C1827 1.503 . S
C1820 C1819 1.410 . S
C1820 C1821 1.392 . S
C1820 C1823 1.511 . S
C1821 C1817 1.376 . S
C1821 C1820 1.392 . S
C1821 H1833 0.929 . S
C1822 C1818 1.531 . S
C1822 H1834 0.960 . S
C1822 H1835 0.962 . S
C1822 H1836 0.960 . S
C1823 C1820 1.511 . S
C1823 H1837 0.961 . S
C1823 H1838 0.961 . S
C1823 H1839 0.961 . S
C1824 C1825 1.370 . S
C1824 C1826 1.363 . S
C1824 H1840 0.931 . S
C1825 C1824 1.370 . S
C1825 C1829 1.408 . S
C1826 C1824 1.363 . S
C1826 C1827 1.370 . S
C1826 C1830 1.524 . S
C1827 C1819 1.503 . S
C1827 C1826 1.370 . S
C1827 C1828 1.403 . S
C1828 C1827 1.403 . S
C1828 C1829 1.404 . S
C1828 C1831 1.539 . S
C1829 C1825 1.408 . S
C1829 C1828 1.404 . S
C1829 H1841 0.930 . S
C1830 C1826 1.524 . S
C1830 H1842 0.956 . S
C1830 H1843 0.961 . S
C1830 H1844 0.961 . S
C1831 C1828 1.539 . S
C1831 H1845 0.958 . S
C1831 H1846 0.961 . S
C1831 H1847 0.960 . S
H1832 C1816 0.931 . S
H1833 C1821 0.929 . S
H1834 C1822 0.960 . S
H1835 C1822 0.962 . S
H1836 C1822 0.960 . S
H1837 C1823 0.961 . S
H1838 C1823 0.961 . S
H1839 C1823 0.961 . S
H1840 C1824 0.931 . S
H1841 C1829 0.930 . S
H1842 C1830 0.956 . S
H1843 C1830 0.961 . S
H1844 C1830 0.961 . S
H1845 C1831 0.958 . S
H1846 C1831 0.961 . S
H1847 C1831 0.960 . S
C1848 C1849 1.391 . S
C1848 C1850 1.394 . S
C1848 H1864 0.931 . S
C1849 C1848 1.391 . S
C1849 C1853 1.376 . S
C1850 C1848 1.394 . S
C1850 C1851 1.369 . S
C1850 C1854 1.531 . S
C1851 C1850 1.369 . S
C1851 C1852 1.410 . S
C1851 C1859 1.503 . S
C1852 C1851 1.410 . S
C1852 C1853 1.392 . S
C1852 C1855 1.511 . S
C1853 C1849 1.376 . S
C1853 C1852 1.392 . S
C1853 H1865 0.929 . S
C1854 C1850 1.531 . S
C1854 H1866 0.960 . S
C1854 H1867 0.962 . S
C1854 H1868 0.960 . S
C1855 C1852 1.511 . S
C1855 H1869 0.961 . S
C1855 H1870 0.961 . S
C1855 H1871 0.961 . S
C1856 C1857 1.370 . S
C1856 C1858 1.363 . S
C1856 H1872 0.931 . S
C1857 C1856 1.370 . S
C1857 C1861 1.408 . S
C1858 C1856 1.363 . S
C1858 C1859 1.370 . S
C1858 C1862 1.524 . S
C1859 C1851 1.503 . S
C1859 C1858 1.370 . S
C1859 C1860 1.403 . S
C1860 C1859 1.403 . S
C1860 C1861 1.404 . S
C1860 C1863 1.539 . S
C1861 C1857 1.408 . S
C1861 C1860 1.404 . S
C1861 H1873 0.930 . S
C1862 C1858 1.524 . S
C1862 H1874 0.956 . S
C1862 H1875 0.961 . S
C1862 H1876 0.961 . S
C1863 C1860 1.539 . S
C1863 H1877 0.958 . S
C1863 H1878 0.961 . S
C1863 H1879 0.960 . S
H1864 C1848 0.931 . S
H1865 C1853 0.929 . S
H1866 C1854 0.960 . S
H1867 C1854 0.962 . S
H1868 C1854 0.960 . S
H1869 C1855 0.961 . S
H1870 C1855 0.961 . S
H1871 C1855 0.961 . S
H1872 C1856 0.931 . S
H1873 C1861 0.930 . S
H1874 C1862 0.956 . S
H1875 C1862 0.961 . S
H1876 C1862 0.961 . S
H1877 C1863 0.958 . S
H1878 C1863 0.961 . S
H1879 C1863 0.960 . S
C1880 C1881 1.391 . S
C1880 C1882 1.394 . S
C1880 H1896 0.931 . S
C1881 C1880 1.391 . S
C1881 C1885 1.376 . S
C1882 C1880 1.394 . S
C1882 C1883 1.369 . S
C1882 C1886 1.531 . S
C1883 C1882 1.369 . S
C1883 C1884 1.410 . S
C1883 C1891 1.503 . S
C1884 C1883 1.410 . S
C1884 C1885 1.392 . S
C1884 C1887 1.511 . S
C1885 C1881 1.376 . S
C1885 C1884 1.392 . S
C1885 H1897 0.929 . S
C1886 C1882 1.531 . S
C1886 H1898 0.960 . S
C1886 H1899 0.962 . S
C1886 H1900 0.960 . S
C1887 C1884 1.511 . S
C1887 H1901 0.961 . S
C1887 H1902 0.961 . S
C1887 H1903 0.961 . S
C1888 C1889 1.370 . S
C1888 C1890 1.363 . S
C1888 H1904 0.931 . S
C1889 C1888 1.370 . S
C1889 C1893 1.408 . S
C1890 C1888 1.363 . S
C1890 C1891 1.370 . S
C1890 C1894 1.524 . S
C1891 C1883 1.503 . S
C1891 C1890 1.370 . S
C1891 C1892 1.403 . S
C1892 C1891 1.403 . S
C1892 C1893 1.404 . S
C1892 C1895 1.539 . S
C1893 C1889 1.408 . S
C1893 C1892 1.404 . S
C1893 H1905 0.930 . S
C1894 C1890 1.524 . S
C1894 H1906 0.956 . S
C1894 H1907 0.961 . S
C1894 H1908 0.961 . S
C1895 C1892 1.539 . S
C1895 H1909 0.958 . S
C1895 H1910 0.961 . S
C1895 H1911 0.960 . S
H1896 C1880 0.931 . S
H1897 C1885 0.929 . S
H1898 C1886 0.960 . S
H1899 C1886 0.962 . S
H1900 C1886 0.960 . S
H1901 C1887 0.961 . S
H1902 C1887 0.961 . S
H1903 C1887 0.961 . S
H1904 C1888 0.931 . S
H1905 C1893 0.930 . S
H1906 C1894 0.956 . S
H1907 C1894 0.961 . S
H1908 C1894 0.961 . S
H1909 C1895 0.958 . S
H1910 C1895 0.961 . S
H1911 C1895 0.960 . S
C1912 C1913 1.391 . S
C1912 C1914 1.394 . S
C1912 H1928 0.931 . S
C1913 C1912 1.391 . S
C1913 C1917 1.376 . S
C1914 C1912 1.394 . S
C1914 C1915 1.369 . S
C1914 C1918 1.531 . S
C1915 C1914 1.369 . S
C1915 C1916 1.410 . S
C1915 C1923 1.503 . S
C1916 C1915 1.410 . S
C1916 C1917 1.392 . S
C1916 C1919 1.511 . S
C1917 C1913 1.376 . S
C1917 C1916 1.392 . S
C1917 H1929 0.929 . S
C1918 C1914 1.531 . S
C1918 H1930 0.960 . S
C1918 H1931 0.962 . S
C1918 H1932 0.960 . S
C1919 C1916 1.511 . S
C1919 H1933 0.961 . S
C1919 H1934 0.961 . S
C1919 H1935 0.961 . S
C1920 C1921 1.370 . S
C1920 C1922 1.363 . S
C1920 H1936 0.931 . S
C1921 C1920 1.370 . S
C1921 C1925 1.408 . S
C1922 C1920 1.363 . S
C1922 C1923 1.370 . S
C1922 C1926 1.524 . S
C1923 C1915 1.503 . S
C1923 C1922 1.370 . S
C1923 C1924 1.403 . S
C1924 C1923 1.403 . S
C1924 C1925 1.404 . S
C1924 C1927 1.539 . S
C1925 C1921 1.408 . S
C1925 C1924 1.404 . S
C1925 H1937 0.930 . S
C1926 C1922 1.524 . S
C1926 H1938 0.956 . S
C1926 H1939 0.961 . S
C1926 H1940 0.961 . S
C1927 C1924 1.539 . S
C1927 H1941 0.958 . S
C1927 H1942 0.961 . S
C1927 H1943 0.960 . S
H1928 C1912 0.931 . S
H1929 C1917 0.929 . S
H1930 C1918 0.960 . S
H1931 C1918 0.962 . S
H1932 C1918 0.960 . S
H1933 C1919 0.961 . S
H1934 C1919 0.961 . S
H1935 C1919 0.961 . S
H1936 C1920 0.931 . S
H1937 C1925 0.930 . S
H1938 C1926 0.956 . S
H1939 C1926 0.961 . S
H1940 C1926 0.961 . S
H1941 C1927 0.958 . S
H1942 C1927 0.961 . S
H1943 C1927 0.960 . S
C1944 C1945 1.391 . S
C1944 C1946 1.394 . S
C1944 H1960 0.931 . S
C1945 C1944 1.391 . S
C1945 C1949 1.376 . S
C1946 C1944 1.394 . S
C1946 C1947 1.369 . S
C1946 C1950 1.531 . S
C1947 C1946 1.369 . S
C1947 C1948 1.410 . S
C1947 C1955 1.503 . S
C1948 C1947 1.410 . S
C1948 C1949 1.392 . S
C1948 C1951 1.511 . S
C1949 C1945 1.376 . S
C1949 C1948 1.392 . S
C1949 H1961 0.929 . S
C1950 C1946 1.531 . S
C1950 H1962 0.960 . S
C1950 H1963 0.962 . S
C1950 H1964 0.960 . S
C1951 C1948 1.511 . S
C1951 H1965 0.961 . S
C1951 H1966 0.961 . S
C1951 H1967 0.961 . S
C1952 C1953 1.370 . S
C1952 C1954 1.363 . S
C1952 H1968 0.931 . S
C1953 C1952 1.370 . S
C1953 C1957 1.408 . S
C1954 C1952 1.363 . S
C1954 C1955 1.370 . S
C1954 C1958 1.524 . S
C1955 C1947 1.503 . S
C1955 C1954 1.370 . S
C1955 C1956 1.403 . S
C1956 C1955 1.403 . S
C1956 C1957 1.404 . S
C1956 C1959 1.539 . S
C1957 C1953 1.408 . S
C1957 C1956 1.404 . S
C1957 H1969 0.930 . S
C1958 C1954 1.524 . S
C1958 H1970 0.956 . S
C1958 H1971 0.961 . S
C1958 H1972 0.961 . S
C1959 C1956 1.539 . S
C1959 H1973 0.958 . S
C1959 H1974 0.961 . S
C1959 H1975 0.960 . S
H1960 C1944 0.931 . S
H1961 C1949 0.929 . S
H1962 C1950 0.960 . S
H1963 C1950 0.962 . S
H1964 C1950 0.960 . S
H1965 C1951 0.961 . S
H1966 C1951 0.961 . S
H1967 C1951 0.961 . S
H1968 C1952 0.931 . S
H1969 C1957 0.930 . S
H1970 C1958 0.956 . S
H1971 C1958 0.961 . S
H1972 C1958 0.961 . S
H1973 C1959 0.958 . S
H1974 C1959 0.961 . S
H1975 C1959 0.960 . S
C1976 C1977 1.391 . S
C1976 C1978 1.394 . S
C1976 H1992 0.931 . S
C1977 C1976 1.391 . S
C1977 C1981 1.376 . S
C1978 C1976 1.394 . S
C1978 C1979 1.369 . S
C1978 C1982 1.531 . S
C1979 C1978 1.369 . S
C1979 C1980 1.410 . S
C1979 C1987 1.503 . S
C1980 C1979 1.410 . S
C1980 C1981 1.392 . S
C1980 C1983 1.511 . S
C1981 C1977 1.376 . S
C1981 C1980 1.392 . S
C1981 H1993 0.929 . S
C1982 C1978 1.531 . S
C1982 H1994 0.960 . S
C1982 H1995 0.962 . S
C1982 H1996 0.960 . S
C1983 C1980 1.511 . S
C1983 H1997 0.961 . S
C1983 H1998 0.961 . S
C1983 H1999 0.961 . S
C1984 C1985 1.370 . S
C1984 C1986 1.363 . S
C1984 H2000 0.931 . S
C1985 C1984 1.370 . S
C1985 C1989 1.408 . S
C1986 C1984 1.363 . S
C1986 C1987 1.370 . S
C1986 C1990 1.524 . S
C1987 C1979 1.503 . S
C1987 C1986 1.370 . S
C1987 C1988 1.403 . S
C1988 C1987 1.403 . S
C1988 C1989 1.404 . S
C1988 C1991 1.539 . S
C1989 C1985 1.408 . S
C1989 C1988 1.404 . S
C1989 H2001 0.930 . S
C1990 C1986 1.524 . S
C1990 H2002 0.956 . S
C1990 H2003 0.961 . S
C1990 H2004 0.961 . S
C1991 C1988 1.539 . S
C1991 H2005 0.958 . S
C1991 H2006 0.961 . S
C1991 H2007 0.960 . S
H1992 C1976 0.931 . S
H1993 C1981 0.929 . S
H1994 C1982 0.960 . S
H1995 C1982 0.962 . S
H1996 C1982 0.960 . S
H1997 C1983 0.961 . S
H1998 C1983 0.961 . S
H1999 C1983 0.961 . S
H2000 C1984 0.931 . S
H2001 C1989 0.930 . S
H2002 C1990 0.956 . S
H2003 C1990 0.961 . S
H2004 C1990 0.961 . S
H2005 C1991 0.958 . S
H2006 C1991 0.961 . S
H2007 C1991 0.960 . S
C2008 C2009 1.391 . S
C2008 C2010 1.394 . S
C2008 H2024 0.931 . S
C2009 C2008 1.391 . S
C2009 C2013 1.376 . S
C2010 C2008 1.394 . S
C2010 C2011 1.369 . S
C2010 C2014 1.531 . S
C2011 C2010 1.369 . S
C2011 C2012 1.410 . S
C2011 C2019 1.503 . S
C2012 C2011 1.410 . S
C2012 C2013 1.392 . S
C2012 C2015 1.511 . S
C2013 C2009 1.376 . S
C2013 C2012 1.392 . S
C2013 H2025 0.929 . S
C2014 C2010 1.531 . S
C2014 H2026 0.960 . S
C2014 H2027 0.962 . S
C2014 H2028 0.960 . S
C2015 C2012 1.511 . S
C2015 H2029 0.961 . S
C2015 H2030 0.961 . S
C2015 H2031 0.961 . S
C2016 C2017 1.370 . S
C2016 C2018 1.363 . S
C2016 H2032 0.931 . S
C2017 C2016 1.370 . S
C2017 C2021 1.408 . S
C2018 C2016 1.363 . S
C2018 C2019 1.370 . S
C2018 C2022 1.524 . S
C2019 C2011 1.503 . S
C2019 C2018 1.370 . S
C2019 C2020 1.403 . S
C2020 C2019 1.403 . S
C2020 C2021 1.404 . S
C2020 C2023 1.539 . S
C2021 C2017 1.408 . S
C2021 C2020 1.404 . S
C2021 H2033 0.930 . S
C2022 C2018 1.524 . S
C2022 H2034 0.956 . S
C2022 H2035 0.961 . S
C2022 H2036 0.961 . S
C2023 C2020 1.539 . S
C2023 H2037 0.958 . S
C2023 H2038 0.961 . S
C2023 H2039 0.960 . S
H2024 C2008 0.931 . S
H2025 C2013 0.929 . S
H2026 C2014 0.960 . S
H2027 C2014 0.962 . S
H2028 C2014 0.960 . S
H2029 C2015 0.961 . S
H2030 C2015 0.961 . S
H2031 C2015 0.961 . S
H2032 C2016 0.931 . S
H2033 C2021 0.930 . S
H2034 C2022 0.956 . S
H2035 C2022 0.961 . S
H2036 C2022 0.961 . S
H2037 C2023 0.958 . S
H2038 C2023 0.961 . S
H2039 C2023 0.960 . S
C2040 C2041 1.391 . S
C2040 C2042 1.395 1_455 S
C2040 H2056 0.931 . S
C2041 C2040 1.391 . S
C2041 C2045 1.376 . S
C2042 C2040 1.395 1_655 S
C2042 C2043 1.369 1_655 S
C2042 C2046 1.530 . S
C2043 C2042 1.369 1_455 S
C2043 C2044 1.410 . S
C2043 C2051 1.503 1_455 S
C2044 C2043 1.410 . S
C2044 C2045 1.392 . S
C2044 C2047 1.511 . S
C2045 C2041 1.376 . S
C2045 C2044 1.392 . S
C2045 H2057 0.929 . S
C2046 C2042 1.530 . S
C2046 H2058 0.960 . S
C2046 H2059 0.962 . S
C2046 H2060 0.960 . S
C2047 C2044 1.511 . S
C2047 H2061 0.961 . S
C2047 H2062 0.961 . S
C2047 H2063 0.961 . S
C2048 C2049 1.370 . S
C2048 C2050 1.363 . S
C2048 H2064 0.931 . S
C2049 C2048 1.370 . S
C2049 C2053 1.408 . S
C2050 C2048 1.363 . S
C2050 C2051 1.370 . S
C2050 C2054 1.524 . S
C2051 C2043 1.503 1_655 S
C2051 C2050 1.370 . S
C2051 C2052 1.403 1_655 S
C2052 C2051 1.403 1_455 S
C2052 C2053 1.404 1_455 S
C2052 C2055 1.539 . S
C2053 C2049 1.408 . S
C2053 C2052 1.404 1_655 S
C2053 H2065 0.930 . S
C2054 C2050 1.524 . S
C2054 H2066 0.956 . S
C2054 H2067 0.961 . S
C2054 H2068 0.961 . S
C2055 C2052 1.539 . S
C2055 H2069 0.958 . S
C2055 H2070 0.961 . S
C2055 H2071 0.960 . S
H2056 C2040 0.931 . S
H2057 C2045 0.929 . S
H2058 C2046 0.960 . S
H2059 C2046 0.962 . S
H2060 C2046 0.960 . S
H2061 C2047 0.961 . S
H2062 C2047 0.961 . S
H2063 C2047 0.961 . S
H2064 C2048 0.931 . S
H2065 C2053 0.930 . S
H2066 C2054 0.956 . S
H2067 C2054 0.961 . S
H2068 C2054 0.961 . S
H2069 C2055 0.958 . S
H2070 C2055 0.961 . S
H2071 C2055 0.960 . S
C2072 C2073 1.391 . S
C2072 C2074 1.394 . S
C2072 H2088 0.931 . S
C2073 C2072 1.391 . S
C2073 C2077 1.376 . S
C2074 C2072 1.394 . S
C2074 C2075 1.369 . S
C2074 C2078 1.531 . S
C2075 C2074 1.369 . S
C2075 C2076 1.410 . S
C2075 C2083 1.503 . S
C2076 C2075 1.410 . S
C2076 C2077 1.392 . S
C2076 C2079 1.511 . S
C2077 C2073 1.376 . S
C2077 C2076 1.392 . S
C2077 H2089 0.929 . S
C2078 C2074 1.531 . S
C2078 H2090 0.960 . S
C2078 H2091 0.962 . S
C2078 H2092 0.960 . S
C2079 C2076 1.511 . S
C2079 H2093 0.961 . S
C2079 H2094 0.961 . S
C2079 H2095 0.961 . S
C2080 C2081 1.370 . S
C2080 C2082 1.363 . S
C2080 H2096 0.931 . S
C2081 C2080 1.370 . S
C2081 C2085 1.408 . S
C2082 C2080 1.363 . S
C2082 C2083 1.370 . S
C2082 C2086 1.524 . S
C2083 C2075 1.503 . S
C2083 C2082 1.370 . S
C2083 C2084 1.403 . S
C2084 C2083 1.403 . S
C2084 C2085 1.404 . S
C2084 C2087 1.539 . S
C2085 C2081 1.408 . S
C2085 C2084 1.404 . S
C2085 H2097 0.930 . S
C2086 C2082 1.524 . S
C2086 H2098 0.956 . S
C2086 H2099 0.961 . S
C2086 H2100 0.961 . S
C2087 C2084 1.539 . S
C2087 H2101 0.958 . S
C2087 H2102 0.961 . S
C2087 H2103 0.960 . S
H2088 C2072 0.931 . S
H2089 C2077 0.929 . S
H2090 C2078 0.960 . S
H2091 C2078 0.962 . S
H2092 C2078 0.960 . S
H2093 C2079 0.961 . S
H2094 C2079 0.961 . S
H2095 C2079 0.961 . S
H2096 C2080 0.931 . S
H2097 C2085 0.930 . S
H2098 C2086 0.956 . S
H2099 C2086 0.961 . S
H2100 C2086 0.961 . S
H2101 C2087 0.958 . S
H2102 C2087 0.961 . S
H2103 C2087 0.960 . S
C2104 C2105 1.391 . S
C2104 C2106 1.394 1_545 S
C2104 H2120 0.890 1_545 S
C2105 C2104 1.391 . S
C2105 C2109 1.376 . S
C2106 C2104 1.394 1_565 S
C2106 C2107 1.369 1_565 S
C2106 C2110 1.531 . S
C2107 C2106 1.369 1_545 S
C2107 C2108 1.410 . S
C2107 C2115 1.503 1_545 S
C2108 C2107 1.410 . S
C2108 C2109 1.392 . S
C2108 C2111 1.511 . S
C2109 C2105 1.376 . S
C2109 C2108 1.392 . S
C2109 H2121 0.929 . S
C2110 C2106 1.531 . S
C2110 H2122 0.960 . S
C2110 H2123 0.962 . S
C2110 H2124 0.960 . S
C2111 C2108 1.511 . S
C2111 H2125 0.961 . S
C2111 H2126 0.961 . S
C2111 H2127 0.961 . S
C2112 C2113 1.370 . S
C2112 C2114 1.363 . S
C2112 H2128 0.931 . S
C2113 C2112 1.370 . S
C2113 C2117 1.408 . S
C2114 C2112 1.363 . S
C2114 C2115 1.370 . S
C2114 C2118 1.524 . S
C2115 C2107 1.503 1_565 S
C2115 C2114 1.370 . S
C2115 C2116 1.403 1_565 S
C2116 C2115 1.403 1_545 S
C2116 C2117 1.404 1_545 S
C2116 C2119 1.539 . S
C2117 C2113 1.408 . S
C2117 C2116 1.404 1_565 S
C2117 H2129 0.930 . S
C2118 C2114 1.524 . S
C2118 H2130 0.956 . S
C2118 H2131 0.961 . S
C2118 H2132 0.961 . S
C2119 C2116 1.539 . S
C2119 H2133 0.958 . S
C2119 H2134 0.961 . S
C2119 H2135 0.960 . S
H2120 C2104 0.890 1_565 S
H2121 C2109 0.929 . S
H2122 C2110 0.960 . S
H2123 C2110 0.962 . S
H2124 C2110 0.960 . S
H2125 C2111 0.961 . S
H2126 C2111 0.961 . S
H2127 C2111 0.961 . S
H2128 C2112 0.931 . S
H2129 C2117 0.930 . S
H2130 C2118 0.956 . S
H2131 C2118 0.961 . S
H2132 C2118 0.961 . S
H2133 C2119 0.958 . S
H2134 C2119 0.961 . S
H2135 C2119 0.960 . S
C2136 C2137 1.439 . S
C2136 C2138 1.347 1_545 S
C2136 H2152 0.932 1_545 S
C2137 C2136 1.439 . S
C2137 C2141 1.376 . S
C2138 C2136 1.347 1_565 S
C2138 C2139 1.369 1_565 S
C2138 C2142 1.531 1_556 S
C2139 C2138 1.369 1_545 S
C2139 C2140 1.410 . S
C2139 C2147 1.503 1_546 S
C2140 C2139 1.410 . S
C2140 C2141 1.392 . S
C2140 C2143 1.511 . S
C2141 C2137 1.376 . S
C2141 C2140 1.392 . S
C2141 H2153 0.929 . S
C2142 C2138 1.531 1_554 S
C2142 H2154 0.960 1_554 S
C2142 H2155 0.962 . S
C2142 H2156 0.960 1_554 S
C2143 C2140 1.511 . S
C2143 H2157 0.961 . S
C2143 H2158 0.961 . S
C2143 H2159 0.961 . S
C2144 C2145 1.370 . S
C2144 C2146 1.363 . S
C2144 H2160 0.931 . S
C2145 C2144 1.370 . S
C2145 C2149 1.408 1_554 S
C2146 C2144 1.363 . S
C2146 C2147 1.370 . S
C2146 C2150 1.524 1_565 S
C2147 C2139 1.503 1_564 S
C2147 C2146 1.370 . S
C2147 C2148 1.403 1_554 S
C2148 C2147 1.403 1_556 S
C2148 C2149 1.404 . S
C2148 C2151 1.539 . S
C2149 C2145 1.408 1_556 S
C2149 C2148 1.404 . S
C2149 H2161 0.930 . S
C2150 C2146 1.524 1_545 S
C2150 H2162 0.956 . S
C2150 H2163 0.961 . S
C2150 H2164 0.961 . S
C2151 C2148 1.539 . S
C2151 H2165 0.958 . S
C2151 H2166 0.961 . S
C2151 H2167 0.960 . S
H2152 C2136 0.932 1_565 S
H2153 C2141 0.929 . S
H2154 C2142 0.960 1_556 S
H2155 C2142 0.962 . S
H2156 C2142 0.960 1_556 S
H2157 C2143 0.961 . S
H2158 C2143 0.961 . S
H2159 C2143 0.961 . S
H2160 C2144 0.931 . S
H2161 C2149 0.930 . S
H2162 C2150 0.956 . S
H2163 C2150 0.961 . S
H2164 C2150 0.961 . S
H2165 C2151 0.958 . S
H2166 C2151 0.961 . S
H2167 C2151 0.960 . S
C2168 C2169 1.391 . S
C2168 C2170 1.396 1_455 S
C2168 H2184 0.931 1_455 S
C2169 C2168 1.391 . S
C2169 C2173 1.376 . S
C2170 C2168 1.396 1_655 S
C2170 C2171 1.368 1_654 S
C2170 C2174 1.528 1_554 S
C2171 C2170 1.368 1_456 S
C2171 C2172 1.398 1_556 S
C2171 C2179 1.513 1_455 S
C2172 C2171 1.398 1_554 S
C2172 C2173 1.392 . S
C2172 C2175 1.511 . S
C2173 C2169 1.376 . S
C2173 C2172 1.392 . S
C2173 H2185 0.929 . S
C2174 C2170 1.528 1_556 S
C2174 H2186 0.960 . S
C2174 H2187 0.962 1_556 S
C2174 H2188 0.960 . S
C2175 C2172 1.511 . S
C2175 H2189 0.961 . S
C2175 H2190 0.961 . S
C2175 H2191 0.961 1_554 S
C2176 C2177 1.370 1_554 S
C2176 C2178 1.363 . S
C2176 H2192 0.931 . S
C2177 C2176 1.370 1_556 S
C2177 C2181 1.408 . S
C2178 C2176 1.363 . S
C2178 C2179 1.370 1_554 S
C2178 C2182 1.524 . S
C2179 C2171 1.513 1_655 S
C2179 C2178 1.370 1_556 S
C2179 C2180 1.403 . S
C2180 C2179 1.403 . S
C2180 C2181 1.404 . S
C2180 C2183 1.539 1_655 S
C2181 C2177 1.408 . S
C2181 C2180 1.404 . S
C2181 H2193 0.930 . S
C2182 C2178 1.524 . S
C2182 H2194 0.956 . S
C2182 H2195 1.011 . S
C2182 H2196 0.961 . S
C2183 C2180 1.539 1_455 S
C2183 H2197 0.966 . S
C2183 H2198 0.961 . S
C2183 H2199 0.960 . S
H2184 C2168 0.931 1_655 S
H2185 C2173 0.929 . S
H2186 C2174 0.960 . S
H2187 C2174 0.962 1_554 S
H2188 C2174 0.960 . S
H2189 C2175 0.961 . S
H2190 C2175 0.961 . S
H2191 C2175 0.961 1_556 S
H2192 C2176 0.931 . S
H2193 C2181 0.930 . S
H2194 C2182 0.956 . S
H2195 C2182 1.011 . S
H2196 C2182 0.961 . S
H2197 C2183 0.966 . S
H2198 C2183 0.961 . S
H2199 C2183 0.960 . S
C2200 C2201 1.391 . S
C2200 C2202 1.394 . S
C2200 H2216 0.931 . S
C2201 C2200 1.391 . S
C2201 C2205 1.376 . S
C2202 C2200 1.394 . S
C2202 C2203 1.369 . S
C2202 C2206 1.531 1_554 S
C2203 C2202 1.369 . S
C2203 C2204 1.410 . S
C2203 C2211 1.503 1_554 S
C2204 C2203 1.410 . S
C2204 C2205 1.392 . S
C2204 C2207 1.511 . S
C2205 C2201 1.376 . S
C2205 C2204 1.392 . S
C2205 H2217 0.929 . S
C2206 C2202 1.531 1_556 S
C2206 H2218 0.960 1_556 S
C2206 H2219 0.962 . S
C2206 H2220 0.960 1_556 S
C2207 C2204 1.511 . S
C2207 H2221 0.961 . S
C2207 H2222 0.961 . S
C2207 H2223 0.961 . S
C2208 C2209 1.370 . S
C2208 C2210 1.363 . S
C2208 H2224 0.931 . S
C2209 C2208 1.370 . S
C2209 C2213 1.408 1_556 S
C2210 C2208 1.363 . S
C2210 C2211 1.370 . S
C2210 C2214 1.524 . S
C2211 C2203 1.503 1_556 S
C2211 C2210 1.370 . S
C2211 C2212 1.403 1_556 S
C2212 C2211 1.403 1_554 S
C2212 C2213 1.404 . S
C2212 C2215 1.539 . S
C2213 C2209 1.408 1_554 S
C2213 C2212 1.404 . S
C2213 H2225 0.930 . S
C2214 C2210 1.524 . S
C2214 H2226 0.956 . S
C2214 H2227 0.961 . S
C2214 H2228 0.961 . S
C2215 C2212 1.539 . S
C2215 H2229 0.958 . S
C2215 H2230 0.961 . S
C2215 H2231 0.960 . S
H2216 C2200 0.931 . S
H2217 C2205 0.929 . S
H2218 C2206 0.960 1_554 S
H2219 C2206 0.962 . S
H2220 C2206 0.960 1_554 S
H2221 C2207 0.961 . S
H2222 C2207 0.961 . S
H2223 C2207 0.961 . S
H2224 C2208 0.931 . S
H2225 C2213 0.930 . S
H2226 C2214 0.956 . S
H2227 C2214 0.961 . S
H2228 C2214 0.961 . S
H2229 C2215 0.958 . S
H2230 C2215 0.961 . S
H2231 C2215 0.960 . S
C2232 C2233 1.391 . S
C2232 C2234 1.394 . S
C2232 H2248 0.924 1_554 S
C2233 C2232 1.391 . S
C2233 C2237 1.376 . S
C2234 C2232 1.394 . S
C2234 C2235 1.369 . S
C2234 C2238 1.531 . S
C2235 C2234 1.369 . S
C2235 C2236 1.410 . S
C2235 C2243 1.503 . S
C2236 C2235 1.410 . S
C2236 C2237 1.392 . S
C2236 C2239 1.511 . S
C2237 C2233 1.376 . S
C2237 C2236 1.392 . S
C2237 H2249 0.929 . S
C2238 C2234 1.531 . S
C2238 H2250 0.960 . S
C2238 H2251 0.962 . S
C2238 H2252 0.960 . S
C2239 C2236 1.511 . S
C2239 H2253 0.961 . S
C2239 H2254 0.961 . S
C2239 H2255 0.961 . S
C2240 C2241 1.370 . S
C2240 C2242 1.363 . S
C2240 H2256 0.931 . S
C2241 C2240 1.370 . S
C2241 C2245 1.408 . S
C2242 C2240 1.363 . S
C2242 C2243 1.370 . S
C2242 C2246 1.524 . S
C2243 C2235 1.503 . S
C2243 C2242 1.370 . S
C2243 C2244 1.403 . S
C2244 C2243 1.403 . S
C2244 C2245 1.404 . S
C2244 C2247 1.539 . S
C2245 C2241 1.408 . S
C2245 C2244 1.404 . S
C2245 H2257 0.930 . S
C2246 C2242 1.524 . S
C2246 H2258 0.956 . S
C2246 H2259 0.961 . S
C2246 H2260 0.961 . S
C2247 C2244 1.539 . S
C2247 H2261 0.958 . S
C2247 H2262 0.961 . S
C2247 H2263 0.960 . S
H2248 C2232 0.924 1_556 S
H2249 C2237 0.929 . S
H2250 C2238 0.960 . S
H2251 C2238 0.962 . S
H2252 C2238 0.960 . S
H2253 C2239 0.961 . S
H2254 C2239 0.961 . S
H2255 C2239 0.961 . S
H2256 C2240 0.931 . S
H2257 C2245 0.930 . S
H2258 C2246 0.956 . S
H2259 C2246 0.961 . S
H2260 C2246 0.961 . S
H2261 C2247 0.958 . S
H2262 C2247 0.961 . S
H2263 C2247 0.960 . S
C2264 C2265 1.391 . S
C2264 C2266 1.394 . S
C2264 H2280 0.931 . S
C2265 C2264 1.391 . S
C2265 C2269 1.376 . S
C2266 C2264 1.394 . S
C2266 C2267 1.369 . S
C2266 C2270 1.531 . S
C2267 C2266 1.369 . S
C2267 C2268 1.410 . S
C2267 C2275 1.503 . S
C2268 C2267 1.410 . S
C2268 C2269 1.392 . S
C2268 C2271 1.511 . S
C2269 C2265 1.376 . S
C2269 C2268 1.392 . S
C2269 H2281 0.929 . S
C2270 C2266 1.531 . S
C2270 H2282 0.960 . S
C2270 H2283 0.962 . S
C2270 H2284 0.960 . S
C2271 C2268 1.511 . S
C2271 H2285 0.961 . S
C2271 H2286 0.961 . S
C2271 H2287 0.961 . S
C2272 C2273 1.370 . S
C2272 C2274 1.363 . S
C2272 H2288 0.931 1_554 S
C2273 C2272 1.370 . S
C2273 C2277 1.408 . S
C2274 C2272 1.363 . S
C2274 C2275 1.370 . S
C2274 C2278 1.524 . S
C2275 C2267 1.503 . S
C2275 C2274 1.370 . S
C2275 C2276 1.403 . S
C2276 C2275 1.403 . S
C2276 C2277 1.404 . S
C2276 C2279 1.539 . S
C2277 C2273 1.408 . S
C2277 C2276 1.404 . S
C2277 H2289 0.930 . S
C2278 C2274 1.524 . S
C2278 H2290 0.956 . S
C2278 H2291 0.961 . S
C2278 H2292 0.961 . S
C2279 C2276 1.539 . S
C2279 H2293 0.958 . S
C2279 H2294 0.961 . S
C2279 H2295 0.960 . S
H2280 C2264 0.931 . S
H2281 C2269 0.929 . S
H2282 C2270 0.960 . S
H2283 C2270 0.962 . S
H2284 C2270 0.960 . S
H2285 C2271 0.961 . S
H2286 C2271 0.961 . S
H2287 C2271 0.961 . S
H2288 C2272 0.931 1_556 S
H2289 C2277 0.930 . S
H2290 C2278 0.956 . S
H2291 C2278 0.961 . S
H2292 C2278 0.961 . S
H2293 C2279 0.958 . S
H2294 C2279 0.961 . S
H2295 C2279 0.960 . S
C2296 C2297 1.391 . S
C2296 C2298 1.394 . S
C2296 H2312 0.931 . S
C2297 C2296 1.391 . S
C2297 C2301 1.376 . S
C2298 C2296 1.394 . S
C2298 C2299 1.369 . S
C2298 C2302 1.531 . S
C2299 C2298 1.369 . S
C2299 C2300 1.410 . S
C2299 C2307 1.503 . S
C2300 C2299 1.410 . S
C2300 C2301 1.392 . S
C2300 C2303 1.511 . S
C2301 C2297 1.376 . S
C2301 C2300 1.392 . S
C2301 H2313 0.929 1_554 S
C2302 C2298 1.531 . S
C2302 H2314 0.960 . S
C2302 H2315 0.962 . S
C2302 H2316 0.960 . S
C2303 C2300 1.511 . S
C2303 H2317 0.961 . S
C2303 H2318 0.961 . S
C2303 H2319 0.961 . S
C2304 C2305 1.370 . S
C2304 C2306 1.363 . S
C2304 H2320 0.931 . S
C2305 C2304 1.370 . S
C2305 C2309 1.408 . S
C2306 C2304 1.363 . S
C2306 C2307 1.370 . S
C2306 C2310 1.524 . S
C2307 C2299 1.503 . S
C2307 C2306 1.370 . S
C2307 C2308 1.403 . S
C2308 C2307 1.403 . S
C2308 C2309 1.404 . S
C2308 C2311 1.539 . S
C2309 C2305 1.408 . S
C2309 C2308 1.404 . S
C2309 H2321 0.930 . S
C2310 C2306 1.524 . S
C2310 H2322 0.956 . S
C2310 H2323 0.961 . S
C2310 H2324 0.961 . S
C2311 C2308 1.539 . S
C2311 H2325 0.958 . S
C2311 H2326 0.961 . S
C2311 H2327 0.960 . S
H2312 C2296 0.931 . S
H2313 C2301 0.929 1_556 S
H2314 C2302 0.960 . S
H2315 C2302 0.962 . S
H2316 C2302 0.960 . S
H2317 C2303 0.961 . S
H2318 C2303 0.961 . S
H2319 C2303 0.961 . S
H2320 C2304 0.931 . S
H2321 C2309 0.930 . S
H2322 C2310 0.956 . S
H2323 C2310 0.961 . S
H2324 C2310 0.961 . S
H2325 C2311 0.958 . S
H2326 C2311 0.961 . S
H2327 C2311 0.960 . S
C2328 C2329 1.391 . S
C2328 C2330 1.394 . S
C2328 H2344 0.931 . S
C2329 C2328 1.391 . S
C2329 C2333 1.376 . S
C2330 C2328 1.394 . S
C2330 C2331 1.369 . S
C2330 C2334 1.531 . S
C2331 C2330 1.369 . S
C2331 C2332 1.410 . S
C2331 C2339 1.503 . S
C2332 C2331 1.410 . S
C2332 C2333 1.392 . S
C2332 C2335 1.511 . S
C2333 C2329 1.376 . S
C2333 C2332 1.392 . S
C2333 H2345 0.929 . S
C2334 C2330 1.531 . S
C2334 H2346 0.960 . S
C2334 H2347 0.962 . S
C2334 H2348 0.960 . S
C2335 C2332 1.511 . S
C2335 H2349 0.961 . S
C2335 H2350 0.961 . S
C2335 H2351 0.961 . S
C2336 C2337 1.370 . S
C2336 C2338 1.363 . S
C2336 H2352 0.931 . S
C2337 C2336 1.370 . S
C2337 C2341 1.408 . S
C2338 C2336 1.363 . S
C2338 C2339 1.370 . S
C2338 C2342 1.524 . S
C2339 C2331 1.503 . S
C2339 C2338 1.370 . S
C2339 C2340 1.403 . S
C2340 C2339 1.403 . S
C2340 C2341 1.404 . S
C2340 C2343 1.539 . S
C2341 C2337 1.408 . S
C2341 C2340 1.404 . S
C2341 H2353 0.930 . S
C2342 C2338 1.524 . S
C2342 H2354 0.956 . S
C2342 H2355 0.961 . S
C2342 H2356 0.961 . S
C2343 C2340 1.539 . S
C2343 H2357 0.958 . S
C2343 H2358 0.961 . S
C2343 H2359 0.960 . S
H2344 C2328 0.931 . S
H2345 C2333 0.929 . S
H2346 C2334 0.960 . S
H2347 C2334 0.962 . S
H2348 C2334 0.960 . S
H2349 C2335 0.961 . S
H2350 C2335 0.961 . S
H2351 C2335 0.961 . S
H2352 C2336 0.931 . S
H2353 C2341 0.930 . S
H2354 C2342 0.956 . S
H2355 C2342 0.961 . S
H2356 C2342 0.961 . S
H2357 C2343 0.958 . S
H2358 C2343 0.961 . S
H2359 C2343 0.960 . S
C2360 C2361 1.391 . S
C2360 C2362 1.394 . S
C2360 H2376 0.931 . S
C2361 C2360 1.391 . S
C2361 C2365 1.376 . S
C2362 C2360 1.394 . S
C2362 C2363 1.369 . S
C2362 C2366 1.531 . S
C2363 C2362 1.369 . S
C2363 C2364 1.410 . S
C2363 C2371 1.503 . S
C2364 C2363 1.410 . S
C2364 C2365 1.392 . S
C2364 C2367 1.511 . S
C2365 C2361 1.376 . S
C2365 C2364 1.392 . S
C2365 H2377 0.929 . S
C2366 C2362 1.531 . S
C2366 H2378 0.960 . S
C2366 H2379 0.962 . S
C2366 H2380 0.960 . S
C2367 C2364 1.511 . S
C2367 H2381 0.961 . S
C2367 H2382 0.961 . S
C2367 H2383 0.961 . S
C2368 C2369 1.370 . S
C2368 C2370 1.363 . S
C2368 H2384 0.931 . S
C2369 C2368 1.370 . S
C2369 C2373 1.408 . S
C2370 C2368 1.363 . S
C2370 C2371 1.370 . S
C2370 C2374 1.524 . S
C2371 C2363 1.503 . S
C2371 C2370 1.370 . S
C2371 C2372 1.403 . S
C2372 C2371 1.403 . S
C2372 C2373 1.404 . S
C2372 C2375 1.539 . S
C2373 C2369 1.408 . S
C2373 C2372 1.404 . S
C2373 H2385 0.930 . S
C2374 C2370 1.524 . S
C2374 H2386 0.956 . S
C2374 H2387 0.961 . S
C2374 H2388 0.961 . S
C2375 C2372 1.539 . S
C2375 H2389 0.958 . S
C2375 H2390 0.961 . S
C2375 H2391 0.960 . S
H2376 C2360 0.931 . S
H2377 C2365 0.929 . S
H2378 C2366 0.960 . S
H2379 C2366 0.962 . S
H2380 C2366 0.960 . S
H2381 C2367 0.961 . S
H2382 C2367 0.961 . S
H2383 C2367 0.961 . S
H2384 C2368 0.931 . S
H2385 C2373 0.930 . S
H2386 C2374 0.956 . S
H2387 C2374 0.961 . S
H2388 C2374 0.961 . S
H2389 C2375 0.958 . S
H2390 C2375 0.961 . S
H2391 C2375 0.960 . S
C2392 C2393 1.391 . S
C2392 C2394 1.394 . S
C2392 H2408 0.931 . S
C2393 C2392 1.391 . S
C2393 C2397 1.376 . S
C2394 C2392 1.394 . S
C2394 C2395 1.369 . S
C2394 C2398 1.531 . S
C2395 C2394 1.369 . S
C2395 C2396 1.410 . S
C2395 C2403 1.503 . S
C2396 C2395 1.410 . S
C2396 C2397 1.392 . S
C2396 C2399 1.511 . S
C2397 C2393 1.376 . S
C2397 C2396 1.392 . S
C2397 H2409 0.929 . S
C2398 C2394 1.531 . S
C2398 H2410 0.960 . S
C2398 H2411 0.962 . S
C2398 H2412 0.960 . S
C2399 C2396 1.511 . S
C2399 H2413 0.961 . S
C2399 H2414 0.961 . S
C2399 H2415 0.961 . S
C2400 C2401 1.370 . S
C2400 C2402 1.363 . S
C2400 H2416 0.931 . S
C2401 C2400 1.370 . S
C2401 C2405 1.408 . S
C2402 C2400 1.363 . S
C2402 C2403 1.370 . S
C2402 C2406 1.524 . S
C2403 C2395 1.503 . S
C2403 C2402 1.370 . S
C2403 C2404 1.403 . S
C2404 C2403 1.403 . S
C2404 C2405 1.404 . S
C2404 C2407 1.539 . S
C2405 C2401 1.408 . S
C2405 C2404 1.404 . S
C2405 H2417 0.930 . S
C2406 C2402 1.524 . S
C2406 H2418 0.956 . S
C2406 H2419 0.961 . S
C2406 H2420 0.961 . S
C2407 C2404 1.539 . S
C2407 H2421 0.958 . S
C2407 H2422 0.961 . S
C2407 H2423 0.960 . S
H2408 C2392 0.931 . S
H2409 C2397 0.929 . S
H2410 C2398 0.960 . S
H2411 C2398 0.962 . S
H2412 C2398 0.960 . S
H2413 C2399 0.961 . S
H2414 C2399 0.961 . S
H2415 C2399 0.961 . S
H2416 C2400 0.931 . S
H2417 C2405 0.930 . S
H2418 C2406 0.956 . S
H2419 C2406 0.961 . S
H2420 C2406 0.961 . S
H2421 C2407 0.958 . S
H2422 C2407 0.961 . S
H2423 C2407 0.960 . S
C2424 C2425 1.391 . S
C2424 C2426 1.394 . S
C2424 H2440 0.931 . S
C2425 C2424 1.391 . S
C2425 C2429 1.376 . S
C2426 C2424 1.394 . S
C2426 C2427 1.369 . S
C2426 C2430 1.531 . S
C2427 C2426 1.369 . S
C2427 C2428 1.410 . S
C2427 C2435 1.503 . S
C2428 C2427 1.410 . S
C2428 C2429 1.392 . S
C2428 C2431 1.511 . S
C2429 C2425 1.376 . S
C2429 C2428 1.392 . S
C2429 H2441 0.929 . S
C2430 C2426 1.531 . S
C2430 H2442 0.960 . S
C2430 H2443 0.962 . S
C2430 H2444 0.960 . S
C2431 C2428 1.511 . S
C2431 H2445 0.961 . S
C2431 H2446 0.961 . S
C2431 H2447 0.961 . S
C2432 C2433 1.370 . S
C2432 C2434 1.363 . S
C2432 H2448 0.931 1_556 S
C2433 C2432 1.370 . S
C2433 C2437 1.408 . S
C2434 C2432 1.363 . S
C2434 C2435 1.370 . S
C2434 C2438 1.524 . S
C2435 C2427 1.503 . S
C2435 C2434 1.370 . S
C2435 C2436 1.403 . S
C2436 C2435 1.403 . S
C2436 C2437 1.404 . S
C2436 C2439 1.539 . S
C2437 C2433 1.408 . S
C2437 C2436 1.404 . S
C2437 H2449 0.930 . S
C2438 C2434 1.524 . S
C2438 H2450 0.956 . S
C2438 H2451 0.961 . S
C2438 H2452 0.961 . S
C2439 C2436 1.539 . S
C2439 H2453 0.958 . S
C2439 H2454 0.961 . S
C2439 H2455 0.960 . S
H2440 C2424 0.931 . S
H2441 C2429 0.929 . S
H2442 C2430 0.960 . S
H2443 C2430 0.962 . S
H2444 C2430 0.960 . S
H2445 C2431 0.961 . S
H2446 C2431 0.961 . S
H2447 C2431 0.961 . S
H2448 C2432 0.931 1_554 S
H2449 C2437 0.930 . S
H2450 C2438 0.956 . S
H2451 C2438 0.961 . S
H2452 C2438 0.961 . S
H2453 C2439 0.958 . S
H2454 C2439 0.961 . S
H2455 C2439 0.960 . S
C2456 C2457 1.391 . S
C2456 C2458 1.394 . S
C2456 H2472 0.931 . S
C2457 C2456 1.391 . S
C2457 C2461 1.376 . S
C2458 C2456 1.394 . S
C2458 C2459 1.369 . S
C2458 C2462 1.531 . S
C2459 C2458 1.369 . S
C2459 C2460 1.410 . S
C2459 C2467 1.503 . S
C2460 C2459 1.410 . S
C2460 C2461 1.392 . S
C2460 C2463 1.511 . S
C2461 C2457 1.376 . S
C2461 C2460 1.392 . S
C2461 H2473 0.929 1_556 S
C2462 C2458 1.531 . S
C2462 H2474 0.960 . S
C2462 H2475 0.962 . S
C2462 H2476 0.960 . S
C2463 C2460 1.511 . S
C2463 H2477 0.961 . S
C2463 H2478 0.961 . S
C2463 H2479 0.961 . S
C2464 C2465 1.370 . S
C2464 C2466 1.363 . S
C2464 H2480 0.931 . S
C2465 C2464 1.370 . S
C2465 C2469 1.408 . S
C2466 C2464 1.363 . S
C2466 C2467 1.370 . S
C2466 C2470 1.524 . S
C2467 C2459 1.503 . S
C2467 C2466 1.370 . S
C2467 C2468 1.403 . S
C2468 C2467 1.403 . S
C2468 C2469 1.404 . S
C2468 C2471 1.539 . S
C2469 C2465 1.408 . S
C2469 C2468 1.404 . S
C2469 H2481 0.930 . S
C2470 C2466 1.524 . S
C2470 H2482 0.956 . S
C2470 H2483 0.961 . S
C2470 H2484 0.961 . S
C2471 C2468 1.539 . S
C2471 H2485 0.958 . S
C2471 H2486 0.961 . S
C2471 H2487 0.960 . S
H2472 C2456 0.931 . S
H2473 C2461 0.929 1_554 S
H2474 C2462 0.960 . S
H2475 C2462 0.962 . S
H2476 C2462 0.960 . S
H2477 C2463 0.961 . S
H2478 C2463 0.961 . S
H2479 C2463 0.961 . S
H2480 C2464 0.931 . S
H2481 C2469 0.930 . S
H2482 C2470 0.956 . S
H2483 C2470 0.961 . S
H2484 C2470 0.961 . S
H2485 C2471 0.958 . S
H2486 C2471 0.961 . S
H2487 C2471 0.960 . S
C2488 C2489 1.391 . S
C2488 C2490 1.394 . S
C2488 H2504 0.931 . S
C2489 C2488 1.391 . S
C2489 C2493 1.376 . S
C2490 C2488 1.394 . S
C2490 C2491 1.369 . S
C2490 C2494 1.531 . S
C2491 C2490 1.369 . S
C2491 C2492 1.410 . S
C2491 C2499 1.503 . S
C2492 C2491 1.410 . S
C2492 C2493 1.392 . S
C2492 C2495 1.511 . S
C2493 C2489 1.376 . S
C2493 C2492 1.392 . S
C2493 H2505 0.929 . S
C2494 C2490 1.531 . S
C2494 H2506 0.960 . S
C2494 H2507 0.962 . S
C2494 H2508 0.960 . S
C2495 C2492 1.511 . S
C2495 H2509 0.961 . S
C2495 H2510 0.961 . S
C2495 H2511 0.961 . S
C2496 C2497 1.370 . S
C2496 C2498 1.363 . S
C2496 H2512 0.931 1_556 S
C2497 C2496 1.370 . S
C2497 C2501 1.408 . S
C2498 C2496 1.363 . S
C2498 C2499 1.370 . S
C2498 C2502 1.524 . S
C2499 C2491 1.503 . S
C2499 C2498 1.370 . S
C2499 C2500 1.403 . S
C2500 C2499 1.403 . S
C2500 C2501 1.404 . S
C2500 C2503 1.539 . S
C2501 C2497 1.408 . S
C2501 C2500 1.404 . S
C2501 H2513 0.930 . S
C2502 C2498 1.524 . S
C2502 H2514 0.956 . S
C2502 H2515 0.961 . S
C2502 H2516 0.961 . S
C2503 C2500 1.539 . S
C2503 H2517 0.958 . S
C2503 H2518 0.961 . S
C2503 H2519 0.960 . S
H2504 C2488 0.931 . S
H2505 C2493 0.929 . S
H2506 C2494 0.960 . S
H2507 C2494 0.962 . S
H2508 C2494 0.960 . S
H2509 C2495 0.961 . S
H2510 C2495 0.961 . S
H2511 C2495 0.961 . S
H2512 C2496 0.931 1_554 S
H2513 C2501 0.930 . S
H2514 C2502 0.956 . S
H2515 C2502 0.961 . S
H2516 C2502 0.961 . S
H2517 C2503 0.958 . S
H2518 C2503 0.961 . S
H2519 C2503 0.960 . S
C2520 C2521 1.391 . S
C2520 C2522 1.394 . S
C2520 H2536 0.931 . S
C2521 C2520 1.391 . S
C2521 C2525 1.376 . S
C2522 C2520 1.394 . S
C2522 C2523 1.369 . S
C2522 C2526 1.531 . S
C2523 C2522 1.369 . S
C2523 C2524 1.410 . S
C2523 C2531 1.503 . S
C2524 C2523 1.410 . S
C2524 C2525 1.392 . S
C2524 C2527 1.511 . S
C2525 C2521 1.376 . S
C2525 C2524 1.392 . S
C2525 H2537 0.929 . S
C2526 C2522 1.531 . S
C2526 H2538 0.960 . S
C2526 H2539 0.962 . S
C2526 H2540 0.960 . S
C2527 C2524 1.511 . S
C2527 H2541 0.961 . S
C2527 H2542 0.961 . S
C2527 H2543 0.961 . S
C2528 C2529 1.370 . S
C2528 C2530 1.363 . S
C2528 H2544 0.931 . S
C2529 C2528 1.370 . S
C2529 C2533 1.408 . S
C2530 C2528 1.363 . S
C2530 C2531 1.370 . S
C2530 C2534 1.524 . S
C2531 C2523 1.503 . S
C2531 C2530 1.370 . S
C2531 C2532 1.403 . S
C2532 C2531 1.403 . S
C2532 C2533 1.404 . S
C2532 C2535 1.539 . S
C2533 C2529 1.408 . S
C2533 C2532 1.404 . S
C2533 H2545 0.930 . S
C2534 C2530 1.524 . S
C2534 H2546 0.956 . S
C2534 H2547 0.961 . S
C2534 H2548 0.961 . S
C2535 C2532 1.539 . S
C2535 H2549 0.958 . S
C2535 H2550 0.961 . S
C2535 H2551 0.960 . S
H2536 C2520 0.931 . S
H2537 C2525 0.929 . S
H2538 C2526 0.960 . S
H2539 C2526 0.962 . S
H2540 C2526 0.960 . S
H2541 C2527 0.961 . S
H2542 C2527 0.961 . S
H2543 C2527 0.961 . S
H2544 C2528 0.931 . S
H2545 C2533 0.930 . S
H2546 C2534 0.956 . S
H2547 C2534 0.961 . S
H2548 C2534 0.961 . S
H2549 C2535 0.958 . S
H2550 C2535 0.961 . S
H2551 C2535 0.960 . S
C2552 C2553 1.391 . S
C2552 C2554 1.394 . S
C2552 H2568 0.931 . S
C2553 C2552 1.391 . S
C2553 C2557 1.376 . S
C2554 C2552 1.394 . S
C2554 C2555 1.369 . S
C2554 C2558 1.531 . S
C2555 C2554 1.369 . S
C2555 C2556 1.410 . S
C2555 C2563 1.503 . S
C2556 C2555 1.410 . S
C2556 C2557 1.392 . S
C2556 C2559 1.511 . S
C2557 C2553 1.376 . S
C2557 C2556 1.392 . S
C2557 H2569 0.929 . S
C2558 C2554 1.531 . S
C2558 H2570 0.960 . S
C2558 H2571 0.962 . S
C2558 H2572 0.960 . S
C2559 C2556 1.511 . S
C2559 H2573 0.961 . S
C2559 H2574 0.961 . S
C2559 H2575 0.961 . S
C2560 C2561 1.370 . S
C2560 C2562 1.363 . S
C2560 H2576 0.931 . S
C2561 C2560 1.370 . S
C2561 C2565 1.408 . S
C2562 C2560 1.363 . S
C2562 C2563 1.370 . S
C2562 C2566 1.524 . S
C2563 C2555 1.503 . S
C2563 C2562 1.370 . S
C2563 C2564 1.403 . S
C2564 C2563 1.403 . S
C2564 C2565 1.404 . S
C2564 C2567 1.539 . S
C2565 C2561 1.408 . S
C2565 C2564 1.404 . S
C2565 H2577 0.930 . S
C2566 C2562 1.524 . S
C2566 H2578 0.956 . S
C2566 H2579 0.961 . S
C2566 H2580 0.961 . S
C2567 C2564 1.539 . S
C2567 H2581 0.958 . S
C2567 H2582 0.961 . S
C2567 H2583 0.960 . S
H2568 C2552 0.931 . S
H2569 C2557 0.929 . S
H2570 C2558 0.960 . S
H2571 C2558 0.962 . S
H2572 C2558 0.960 . S
H2573 C2559 0.961 . S
H2574 C2559 0.961 . S
H2575 C2559 0.961 . S
H2576 C2560 0.931 . S
H2577 C2565 0.930 . S
H2578 C2566 0.956 . S
H2579 C2566 0.961 . S
H2580 C2566 0.961 . S
H2581 C2567 0.958 . S
H2582 C2567 0.961 . S
H2583 C2567 0.960 . S
C2584 C2585 1.391 . S
C2584 C2586 1.394 . S
C2584 H2600 0.931 . S
C2585 C2584 1.391 . S
C2585 C2589 1.376 . S
C2586 C2584 1.394 . S
C2586 C2587 1.369 . S
C2586 C2590 1.531 . S
C2587 C2586 1.369 . S
C2587 C2588 1.410 . S
C2587 C2595 1.503 . S
C2588 C2587 1.410 . S
C2588 C2589 1.392 . S
C2588 C2591 1.511 . S
C2589 C2585 1.376 . S
C2589 C2588 1.392 . S
C2589 H2601 0.929 . S
C2590 C2586 1.531 . S
C2590 H2602 0.960 . S
C2590 H2603 0.962 . S
C2590 H2604 0.960 . S
C2591 C2588 1.511 . S
C2591 H2605 0.961 . S
C2591 H2606 0.961 . S
C2591 H2607 0.961 . S
C2592 C2593 1.370 . S
C2592 C2594 1.363 . S
C2592 H2608 0.931 . S
C2593 C2592 1.370 . S
C2593 C2597 1.408 . S
C2594 C2592 1.363 . S
C2594 C2595 1.370 . S
C2594 C2598 1.524 . S
C2595 C2587 1.503 . S
C2595 C2594 1.370 . S
C2595 C2596 1.403 . S
C2596 C2595 1.403 . S
C2596 C2597 1.404 . S
C2596 C2599 1.539 . S
C2597 C2593 1.408 . S
C2597 C2596 1.404 . S
C2597 H2609 0.930 . S
C2598 C2594 1.524 . S
C2598 H2610 0.956 . S
C2598 H2611 0.961 . S
C2598 H2612 0.961 . S
C2599 C2596 1.539 . S
C2599 H2613 0.958 . S
C2599 H2614 0.961 . S
C2599 H2615 0.960 . S
H2600 C2584 0.931 . S
H2601 C2589 0.929 . S
H2602 C2590 0.960 . S
H2603 C2590 0.962 . S
H2604 C2590 0.960 . S
H2605 C2591 0.961 . S
H2606 C2591 0.961 . S
H2607 C2591 0.961 . S
H2608 C2592 0.931 . S
H2609 C2597 0.930 . S
H2610 C2598 0.956 . S
H2611 C2598 0.961 . S
H2612 C2598 0.961 . S
H2613 C2599 0.958 . S
H2614 C2599 0.961 . S
H2615 C2599 0.960 . S
C2616 C2617 1.391 . S
C2616 C2618 1.394 . S
C2616 H2632 0.931 . S
C2617 C2616 1.391 . S
C2617 C2621 1.376 . S
C2618 C2616 1.394 . S
C2618 C2619 1.369 . S
C2618 C2622 1.531 . S
C2619 C2618 1.369 . S
C2619 C2620 1.410 . S
C2619 C2627 1.503 . S
C2620 C2619 1.410 . S
C2620 C2621 1.392 . S
C2620 C2623 1.511 . S
C2621 C2617 1.376 . S
C2621 C2620 1.392 . S
C2621 H2633 0.929 . S
C2622 C2618 1.531 . S
C2622 H2634 0.960 . S
C2622 H2635 0.962 . S
C2622 H2636 0.960 . S
C2623 C2620 1.511 . S
C2623 H2637 0.961 . S
C2623 H2638 0.961 . S
C2623 H2639 0.961 . S
C2624 C2625 1.370 . S
C2624 C2626 1.363 . S
C2624 H2640 0.931 . S
C2625 C2624 1.370 . S
C2625 C2629 1.408 . S
C2626 C2624 1.363 . S
C2626 C2627 1.370 . S
C2626 C2630 1.524 . S
C2627 C2619 1.503 . S
C2627 C2626 1.370 . S
C2627 C2628 1.403 . S
C2628 C2627 1.403 . S
C2628 C2629 1.404 . S
C2628 C2631 1.539 . S
C2629 C2625 1.408 . S
C2629 C2628 1.404 . S
C2629 H2641 0.930 . S
C2630 C2626 1.524 . S
C2630 H2642 0.956 . S
C2630 H2643 0.961 . S
C2630 H2644 0.961 . S
C2631 C2628 1.539 . S
C2631 H2645 0.958 . S
C2631 H2646 0.961 . S
C2631 H2647 0.960 . S
H2632 C2616 0.931 . S
H2633 C2621 0.929 . S
H2634 C2622 0.960 . S
H2635 C2622 0.962 . S
H2636 C2622 0.960 . S
H2637 C2623 0.961 . S
H2638 C2623 0.961 . S
H2639 C2623 0.961 . S
H2640 C2624 0.931 . S
H2641 C2629 0.930 . S
H2642 C2630 0.956 . S
H2643 C2630 0.961 . S
H2644 C2630 0.961 . S
H2645 C2631 0.958 . S
H2646 C2631 0.961 . S
H2647 C2631 0.960 . S
C2648 C2649 1.391 . S
C2648 C2650 1.424 . S
C2648 H2664 0.931 . S
C2649 C2648 1.391 . S
C2649 C2653 1.376 . S
C2650 C2648 1.424 . S
C2650 C2651 1.356 . S
C2650 C2654 1.516 1_545 S
C2651 C2650 1.356 . S
C2651 C2652 1.410 . S
C2651 C2659 1.503 1_545 S
C2652 C2651 1.410 . S
C2652 C2653 1.392 . S
C2652 C2655 1.511 . S
C2653 C2649 1.376 . S
C2653 C2652 1.392 . S
C2653 H2665 0.929 . S
C2654 C2650 1.516 1_565 S
C2654 H2666 0.960 . S
C2654 H2667 0.962 . S
C2654 H2668 0.960 . S
C2655 C2652 1.511 . S
C2655 H2669 0.961 . S
C2655 H2670 0.961 . S
C2655 H2671 0.961 . S
C2656 C2657 1.370 . S
C2656 C2658 1.363 . S
C2656 H2672 0.931 . S
C2657 C2656 1.370 . S
C2657 C2661 1.408 . S
C2658 C2656 1.363 . S
C2658 C2659 1.370 . S
C2658 C2662 1.524 1_565 S
C2659 C2651 1.503 1_565 S
C2659 C2658 1.370 . S
C2659 C2660 1.403 . S
C2660 C2659 1.403 . S
C2660 C2661 1.404 . S
C2660 C2663 1.539 . S
C2661 C2657 1.408 . S
C2661 C2660 1.404 . S
C2661 H2673 0.930 . S
C2662 C2658 1.524 1_545 S
C2662 H2674 0.956 . S
C2662 H2675 0.961 . S
C2662 H2676 0.961 . S
C2663 C2660 1.539 . S
C2663 H2677 0.958 . S
C2663 H2678 0.961 . S
C2663 H2679 0.960 . S
H2664 C2648 0.931 . S
H2665 C2653 0.929 . S
H2666 C2654 0.960 . S
H2667 C2654 0.962 . S
H2668 C2654 0.960 . S
H2669 C2655 0.961 . S
H2670 C2655 0.961 . S
H2671 C2655 0.961 . S
H2672 C2656 0.931 . S
H2673 C2661 0.930 . S
H2674 C2662 0.956 . S
H2675 C2662 0.961 . S
H2676 C2662 0.961 . S
H2677 C2663 0.958 . S
H2678 C2663 0.961 . S
H2679 C2663 0.960 . S
C2680 C2681 1.391 . S
C2680 C2682 1.394 1_655 S
C2680 H2696 0.931 . S
C2681 C2680 1.391 . S
C2681 C2685 1.376 . S
C2682 C2680 1.394 1_455 S
C2682 C2683 1.369 1_455 S
C2682 C2686 1.531 . S
C2683 C2682 1.369 1_655 S
C2683 C2684 1.410 . S
C2683 C2691 1.503 1_655 S
C2684 C2683 1.410 . S
C2684 C2685 1.392 . S
C2684 C2687 1.511 . S
C2685 C2681 1.376 . S
C2685 C2684 1.392 . S
C2685 H2697 0.929 . S
C2686 C2682 1.531 . S
C2686 H2698 0.960 . S
C2686 H2699 0.962 . S
C2686 H2700 0.960 . S
C2687 C2684 1.511 . S
C2687 H2701 0.961 . S
C2687 H2702 0.961 . S
C2687 H2703 0.961 . S
C2688 C2689 1.370 . S
C2688 C2690 1.363 . S
C2688 H2704 0.931 . S
C2689 C2688 1.370 . S
C2689 C2693 1.408 . S
C2690 C2688 1.363 . S
C2690 C2691 1.370 . S
C2690 C2694 1.524 . S
C2691 C2683 1.503 1_455 S
C2691 C2690 1.370 . S
C2691 C2692 1.403 . S
C2692 C2691 1.403 . S
C2692 C2693 1.404 . S
C2692 C2695 1.539 . S
C2693 C2689 1.408 . S
C2693 C2692 1.404 . S
C2693 H2705 0.930 . S
C2694 C2690 1.524 . S
C2694 H2706 0.956 . S
C2694 H2707 0.961 1_455 S
C2694 H2708 0.961 . S
C2695 C2692 1.539 . S
C2695 H2709 0.958 . S
C2695 H2710 0.961 . S
C2695 H2711 0.960 1_455 S
H2696 C2680 0.931 . S
H2697 C2685 0.929 . S
H2698 C2686 0.960 . S
H2699 C2686 0.962 . S
H2700 C2686 0.960 . S
H2701 C2687 0.961 . S
H2702 C2687 0.961 . S
H2703 C2687 0.961 . S
H2704 C2688 0.931 . S
H2705 C2693 0.930 . S
H2706 C2694 0.956 . S
H2707 C2694 0.961 1_655 S
H2708 C2694 0.961 . S
H2709 C2695 0.958 . S
H2710 C2695 0.961 . S
H2711 C2695 0.960 1_655 S
C2712 C2713 1.391 . S
C2712 C2714 1.394 . S
C2712 H2728 0.931 . S
C2713 C2712 1.391 . S
C2713 C2717 1.376 . S
C2714 C2712 1.394 . S
C2714 C2715 1.369 . S
C2714 C2718 1.531 . S
C2715 C2714 1.369 . S
C2715 C2716 1.410 . S
C2715 C2723 1.503 . S
C2716 C2715 1.410 . S
C2716 C2717 1.392 . S
C2716 C2719 1.511 . S
C2717 C2713 1.376 . S
C2717 C2716 1.392 . S
C2717 H2729 0.929 . S
C2718 C2714 1.531 . S
C2718 H2730 0.960 . S
C2718 H2731 0.962 . S
C2718 H2732 0.960 . S
C2719 C2716 1.511 . S
C2719 H2733 0.961 . S
C2719 H2734 0.961 . S
C2719 H2735 0.961 . S
C2720 C2721 1.370 . S
C2720 C2722 1.363 . S
C2720 H2736 0.931 . S
C2721 C2720 1.370 . S
C2721 C2725 1.408 . S
C2722 C2720 1.363 . S
C2722 C2723 1.370 . S
C2722 C2726 1.524 . S
C2723 C2715 1.503 . S
C2723 C2722 1.370 . S
C2723 C2724 1.403 . S
C2724 C2723 1.403 . S
C2724 C2725 1.404 . S
C2724 C2727 1.539 . S
C2725 C2721 1.408 . S
C2725 C2724 1.404 . S
C2725 H2737 0.930 . S
C2726 C2722 1.524 . S
C2726 H2738 0.956 . S
C2726 H2739 0.961 . S
C2726 H2740 0.961 . S
C2727 C2724 1.539 . S
C2727 H2741 0.958 . S
C2727 H2742 0.961 . S
C2727 H2743 0.960 . S
H2728 C2712 0.931 . S
H2729 C2717 0.929 . S
H2730 C2718 0.960 . S
H2731 C2718 0.962 . S
H2732 C2718 0.960 . S
H2733 C2719 0.961 . S
H2734 C2719 0.961 . S
H2735 C2719 0.961 . S
H2736 C2720 0.931 . S
H2737 C2725 0.930 . S
H2738 C2726 0.956 . S
H2739 C2726 0.961 . S
H2740 C2726 0.961 . S
H2741 C2727 0.958 . S
H2742 C2727 0.961 . S
H2743 C2727 0.960 . S
C2744 C2745 1.391 . S
C2744 C2746 1.394 . S
C2744 H2760 0.931 . S
C2745 C2744 1.391 . S
C2745 C2749 1.376 . S
C2746 C2744 1.394 . S
C2746 C2747 1.369 . S
C2746 C2750 1.531 . S
C2747 C2746 1.369 . S
C2747 C2748 1.410 . S
C2747 C2755 1.503 1_545 S
C2748 C2747 1.410 . S
C2748 C2749 1.392 . S
C2748 C2751 1.511 1_545 S
C2749 C2745 1.376 . S
C2749 C2748 1.392 . S
C2749 H2761 0.929 . S
C2750 C2746 1.531 . S
C2750 H2762 0.960 . S
C2750 H2763 0.962 . S
C2750 H2764 0.960 . S
C2751 C2748 1.511 1_565 S
C2751 H2765 0.961 . S
C2751 H2766 0.961 . S
C2751 H2767 0.961 . S
C2752 C2753 1.370 . S
C2752 C2754 1.363 . S
C2752 H2768 0.931 . S
C2753 C2752 1.370 . S
C2753 C2757 1.408 . S
C2754 C2752 1.363 . S
C2754 C2755 1.370 . S
C2754 C2758 1.524 . S
C2755 C2747 1.503 1_565 S
C2755 C2754 1.370 . S
C2755 C2756 1.407 . S
C2756 C2755 1.407 . S
C2756 C2757 1.409 . S
C2756 C2759 1.530 1_565 S
C2757 C2753 1.408 . S
C2757 C2756 1.409 . S
C2757 H2769 0.930 . S
C2758 C2754 1.524 . S
C2758 H2770 0.956 . S
C2758 H2771 0.961 . S
C2758 H2772 0.961 . S
C2759 C2756 1.530 1_545 S
C2759 H2773 0.958 . S
C2759 H2774 0.961 . S
C2759 H2775 0.960 . S
H2760 C2744 0.931 . S
H2761 C2749 0.929 . S
H2762 C2750 0.960 . S
H2763 C2750 0.962 . S
H2764 C2750 0.960 . S
H2765 C2751 0.961 . S
H2766 C2751 0.961 . S
H2767 C2751 0.961 . S
H2768 C2752 0.931 . S
H2769 C2757 0.930 . S
H2770 C2758 0.956 . S
H2771 C2758 0.961 . S
H2772 C2758 0.961 . S
H2773 C2759 0.958 . S
H2774 C2759 0.961 . S
H2775 C2759 0.960 . S
C2776 C2777 1.391 . S
C2776 C2778 1.394 . S
C2776 H2792 0.931 . S
C2777 C2776 1.391 . S
C2777 C2781 1.376 . S
C2778 C2776 1.394 . S
C2778 C2779 1.369 . S
C2778 C2782 1.531 1_455 S
C2779 C2778 1.369 . S
C2779 C2780 1.410 . S
C2779 C2787 1.503 1_455 S
C2780 C2779 1.410 . S
C2780 C2781 1.392 . S
C2780 C2783 1.511 . S
C2781 C2777 1.376 . S
C2781 C2780 1.392 . S
C2781 H2793 0.929 . S
C2782 C2778 1.531 1_655 S
C2782 H2794 0.960 . S
C2782 H2795 0.962 . S
C2782 H2796 0.960 . S
C2783 C2780 1.511 . S
C2783 H2797 0.961 . S
C2783 H2798 0.961 . S
C2783 H2799 0.961 . S
C2784 C2785 1.370 . S
C2784 C2786 1.363 . S
C2784 H2800 0.931 . S
C2785 C2784 1.370 . S
C2785 C2789 1.408 . S
C2786 C2784 1.363 . S
C2786 C2787 1.370 . S
C2786 C2790 1.524 . S
C2787 C2779 1.503 1_655 S
C2787 C2786 1.370 . S
C2787 C2788 1.407 1_655 S
C2788 C2787 1.407 1_455 S
C2788 C2789 1.370 1_455 S
C2788 C2791 1.577 . S
C2789 C2785 1.408 . S
C2789 C2788 1.370 1_655 S
C2789 H2801 0.930 . S
C2790 C2786 1.524 . S
C2790 H2802 0.956 . S
C2790 H2803 0.961 . S
C2790 H2804 0.961 . S
C2791 C2788 1.577 . S
C2791 H2805 0.958 . S
C2791 H2806 0.961 . S
C2791 H2807 0.960 . S
H2792 C2776 0.931 . S
H2793 C2781 0.929 . S
H2794 C2782 0.960 . S
H2795 C2782 0.962 . S
H2796 C2782 0.960 . S
H2797 C2783 0.961 . S
H2798 C2783 0.961 . S
H2799 C2783 0.961 . S
H2800 C2784 0.931 . S
H2801 C2789 0.930 . S
H2802 C2790 0.956 . S
H2803 C2790 0.961 . S
H2804 C2790 0.961 . S
H2805 C2791 0.958 . S
H2806 C2791 0.961 . S
H2807 C2791 0.960 . S
C505 C79 0.807 . S
C513 C9 0.813 . S
C537 C51 0.828 . S
C545 C23 0.799 . S
C569 C37 0.797 . S
C577 C65 0.811 . S
C601 C93 0.775 . S
C609 C163 0.798 . S
C633 C107 0.792 . S
C641 C135 0.788 . S
C665 C149 0.803 . S
C673 C121 0.809 . S
C697 C177 0.823 . S
C705 C247 0.814 . S
C729 C191 0.806 . S
C737 C219 0.789 . S
C761 C233 0.768 . S
C769 C205 0.785 . S
C793 C331 0.833 . S
C801 C261 0.809 . S
C825 C303 0.764 . S
C833 C275 0.790 . S
C857 C289 0.773 . S
C865 C317 0.796 . S
C889 C415 0.804 . S
C897 C345 0.812 . S
C921 C387 0.797 . S
C929 C359 0.786 . S
C953 C373 0.813 . S
C961 C401 0.791 . S
C985 C499 0.833 . S
C993 C429 0.809 . S
C1017 C471 0.790 . S
C1025 C443 0.787 . S
C1049 C485 0.774 . S
C1057 C457 0.797 . S
C1081 C231 1.581 . S
C1089 C7 1.621 . S
C1113 C245 1.579 . S
C1121 C21 1.602 . S
C1145 C217 1.648 . S
C1153 C35 1.619 . S
C1177 C49 1.628 . S
C1185 C371 1.602 1_554 S
C1209 C63 1.592 . S
C1217 C343 1.599 1_554 S
C1241 C77 1.589 . S
C1249 C357 1.599 1_554 S
C1273 C91 1.634 . S
C1281 C483 1.601 . S
C1305 C497 1.588 . S
C1313 C105 1.602 . S
C1337 C469 1.610 . S
C1345 C119 1.598 . S
C1369 C287 1.642 1_556 S
C1377 C133 1.604 . S
C1401 C259 1.579 1_556 S
C1409 C147 1.624 . S
C1433 C161 1.575 . S
C1441 C273 1.622 1_556 S
C1465 C175 1.632 . S
C1473 C399 1.604 . S
C1497 C413 1.617 . S
C1505 C189 1.600 . S
C1529 C385 1.644 . S
C1537 C203 1.611 . S
C1561 C301 1.603 . S
C1569 C455 1.630 . S
C1593 C427 1.645 . S
C1601 C315 1.606 . S
C1625 C329 1.572 . S
C1633 C441 1.616 . S
C1657 C260 1.595 . S
C1665 C8 1.615 . S
C1689 C274 1.603 . S
C1697 C22 1.613 . S
C1721 C36 1.595 . S
C1729 C288 1.616 . S
C1753 C50 1.619 . S
C1761 C470 1.605 . S
C1785 C484 1.612 . S
C1793 C64 1.609 . S
C1817 C498 1.606 . S
C1825 C78 1.610 . S
C1849 C92 1.616 . S
C1857 C344 1.608 . S
C1881 C106 1.608 . S
C1889 C358 1.609 . S
C1913 C372 1.616 . S
C1921 C120 1.607 . S
C1945 C134 1.611 . S
C1953 C218 1.608 . S
C1977 C148 1.605 . S
C1985 C232 1.610 . S
C2009 C246 1.600 . S
C2017 C162 1.614 . S
C2041 C176 1.620 . S
C2049 C428 1.605 . S
C2073 C190 1.602 . S
C2081 C442 1.611 . S
C2105 C456 1.609 . S
C2113 C204 1.608 . S
C2137 C386 1.607 . S
C2145 C302 1.609 . S
C2169 C316 1.605 . S
C2177 C400 1.610 . S
C2201 C330 1.614 . S
C2209 C414 1.608 . S
C2233 C381 1.609 1_554 S
C2241 C3 1.638 . S
C2265 C17 1.628 . S
C2273 C395 1.624 1_554 S
C2297 C409 1.647 1_554 S
C2305 C31 1.648 . S
C2329 C45 1.634 . S
C2337 C171 1.626 . S
C2361 C185 1.620 . S
C2369 C59 1.624 . S
C2393 C199 1.647 . S
C2401 C73 1.648 . S
C2425 C87 1.657 . S
C2433 C297 1.639 1_556 S
C2457 C311 1.604 1_556 S
C2465 C101 1.630 . S
C2489 C115 1.625 . S
C2497 C325 1.626 1_556 S
C2521 C129 1.619 . S
C2529 C423 1.625 . S
C2553 C143 1.658 . S
C2561 C437 1.641 . S
C2585 C451 1.630 . S
C2593 C157 1.644 . S
C2617 C213 1.661 . S
C2625 C339 1.641 . S
C2649 C227 1.626 . S
C2657 C353 1.624 . S
C2681 C241 1.605 . S
C2689 C367 1.626 . S
C2713 C255 1.653 . S
C2721 C465 1.637 . S
C2745 C269 1.604 . S
C2753 C479 1.630 . S
C2777 C493 1.637 . S
C2785 C283 1.646 . S
