# Generated by pormake.
# Topology kag, (6)-cn, num edge types: 1
# Building blocks:
#     Node 0, Type 0, BuildingBlock: KUMJIN_clean_sbu_0, # of connection points: 6
#     Node 1, Type 0, BuildingBlock: KUMJIN_clean_sbu_0, # of connection points: 6
#     Node 2, Type 0, BuildingBlock: KUMJIN_clean_sbu_0, # of connection points: 6
#     Edge 3, Type (0, 0), BuildingBlock: XUDNAN_clean_linker_2, # of connection points: 2
#     Edge 4, Type (0, 0), BuildingBlock: XUDNAN_clean_linker_2, # of connection points: 2
#     Edge 5, Type (0, 0), BuildingBlock: XUDNAN_clean_linker_2, # of connection points: 2
#     Edge 6, Type (0, 0), BuildingBlock: XUDNAN_clean_linker_2, # of connection points: 2
#     Edge 7, Type (0, 0), BuildingBlock: XUDNAN_clean_linker_2, # of connection points: 2
#     Edge 8, Type (0, 0), BuildingBlock: XUDNAN_clean_linker_2, # of connection points: 2
#     Edge 9, Type (0, 0), BuildingBlock: XUDNAN_clean_linker_2, # of connection points: 2
#     Edge 10, Type (0, 0), BuildingBlock: XUDNAN_clean_linker_2, # of connection points: 2
#     Edge 11, Type (0, 0), BuildingBlock: XUDNAN_clean_linker_2, # of connection points: 2
# Relax obj value: 0.071
# Max RMSD: 0.190
# Mean RMSD: 0.141
data_MOF--net-kag--node1-KUMJIN_clean_sbu_0--edge1-XUDNAN_clean_linker_2
_symmetry_space_group_name_H-M    P1
_symmetry_Int_Tables_number       1
_symmetry_cell_setting            triclinic
loop_
_symmetry_equiv_pos_as_xyz
'x, y, z'
_cell_length_a     40.197464
_cell_length_b     30.76748
_cell_length_c     15.257081
_cell_angle_alpha  94.142909
_cell_angle_beta   114.10879
_cell_angle_gamma 98.395326
loop_
_atom_site_label
_atom_site_type_symbol
_atom_site_fract_x
_atom_site_fract_y
_atom_site_fract_z
_atom_type_partial_charge
Eu0 Eu 1.00688 0.48523 0.01523 0.0
C1 C 0.95451 0.65203 0.93322 0.0
C2 C 0.96111 0.68343 0.79862 0.0
C3 C 0.9067 0.68877 0.82772 0.0
C4 C 0.97413 0.65957 0.87769 0.0
C5 C 0.92138 0.66838 0.91115 0.0
C6 C 0.92656 0.69628 0.77147 0.0
C7 C 0.92295 0.65012 0.06371 0.0
N8 N 0.96997 0.63336 0.01491 0.0
C9 C 0.95587 0.63461 0.08266 0.0
C10 C 0.90525 0.66633 0.97676 0.0
Eu11 Eu 0.02456 0.6053 0.03718 0.0
N12 N 1.00782 0.64773 0.90721 0.0
C13 C 0.03169 0.66321 0.86824 0.0
C14 C 0.98423 0.69606 0.75305 0.0
C15 C 0.02009 0.68703 0.78994 0.0
H16 H 0.96935 0.62318 0.15122 0.0
H17 H 0.03888 0.69852 0.7584 0.0
H18 H 0.91582 0.71399 0.71001 0.0
H19 H 0.91139 0.64982 0.11656 0.0
H20 H 0.05946 0.65643 0.89606 0.0
H21 H 0.14623 0.45035 0.20307 0.0
H22 H 0.97536 0.71465 0.69252 0.0
H23 H 0.93751 0.43235 0.80429 0.0
H24 H 0.09195 0.48317 0.18598 0.0
H25 H 0.92837 0.37808 0.66569 0.0
H26 H 0.88096 0.70079 0.80879 0.0
H27 H 0.14434 0.40105 0.06501 0.0
H28 H 0.10757 0.36012 0.89578 0.0
H29 H 0.88023 0.67928 0.96328 0.0
H30 H 0.04825 0.34017 0.74996 0.0
N31 N 0.05976 0.4538 0.03873 0.0
C32 C 0.09061 0.46167 0.12512 0.0
C33 C 0.12037 0.41538 0.05706 0.0
C34 C 0.08789 0.40539 0.97059 0.0
C35 C 0.12151 0.44308 0.13519 0.0
C36 C 0.05756 0.4252 0.96376 0.0
H37 H 0.98121 0.34624 0.6641 0.0
N38 N 0.99541 0.43289 0.87906 0.0
C39 C 0.95557 0.38819 0.72563 0.0
C40 C 0.02427 0.41401 0.88182 0.0
C41 C 0.96091 0.41911 0.80426 0.0
C42 C 0.98545 0.37025 0.72505 0.0
C43 C 0.02022 0.38259 0.80433 0.0
O44 O 0.95932 0.44952 0.03379 0.0
O45 O 0.98352 0.54622 0.03084 0.0
O46 O 0.01484 0.5813 0.16519 0.0
O47 O 0.04041 0.51942 0.17055 0.0
O48 O 0.94861 0.4966 0.92253 0.0
O49 O 0.01292 0.43367 0.10977 0.0
O50 O 0.07663 0.62969 0.1671 0.0
O51 O 0.05195 0.5457 0.05693 0.0
O52 O 1.00725 0.50135 0.87391 0.0
O53 O 1.00646 0.57742 0.8755 0.0
O54 O 0.06999 0.59507 0.99117 0.0
O55 O 0.04281 0.67603 0.09766 0.0
C56 C 0.95014 0.53446 0.96769 0.0
C57 C 0.96054 0.37533 0.05986 0.0
C58 C 0.91611 0.3121 0.06146 0.0
C59 C 0.9342 0.35702 0.09259 0.0
C60 C 0.92482 0.28593 -0.0027 0.0
C61 C 0.96911 0.34824 -0.00291 0.0
C62 C 0.95124 0.3039 0.96582 0.0
C63 C 0.02988 0.54989 0.21327 0.0
C64 C 0.97771 0.42296 0.08815 0.0
C65 C 0.05071 0.364 0.80918 0.0
C66 C 0.08449 0.37539 0.89217 0.0
C67 C 0.0742 0.55676 0.01819 0.0
C68 C 0.10722 0.70477 0.19499 0.0
C69 C 0.12185 0.7176 0.12878 0.0
C70 C 0.15417 0.75123 0.16001 0.0
C71 C 0.17092 0.77138 0.25789 0.0
C72 C 0.12508 0.72502 0.29192 0.0
C73 C 0.15667 0.75809 0.32303 0.0
C74 C 1.00523 0.53766 0.83184 0.0
C75 C 0.07333 0.67091 0.1677 0.0
H76 H 0.92745 0.37782 0.14102 0.0
H77 H 0.91175 0.25122 0.97301 0.0
H78 H 0.98957 0.36129 0.97208 0.0
H79 H 0.95799 0.28332 0.9172 0.0
H80 H 0.10827 0.70141 0.05423 0.0
H81 H 0.19475 0.79831 0.28447 0.0
H82 H 0.1143 0.71548 0.34375 0.0
H83 H 0.16996 0.77391 0.39788 0.0
Eu84 Eu 0.55622 0.04715 0.04649 0.0
C85 C 0.40495 0.06927 0.76492 0.0
C86 C 0.40103 0.13965 0.83875 0.0
C87 C 0.36955 0.11883 0.6636 0.0
C88 C 0.41474 0.09972 0.84687 0.0
C89 C 0.38148 0.07801 0.67261 0.0
C90 C 0.37928 0.14957 0.74653 0.0
C91 C 0.3798 1.00348 0.60651 0.0
N92 N 0.41634 1.02981 0.77626 0.0
C93 C 0.40268 0.99616 0.69966 0.0
C94 C 0.36962 0.04482 0.59264 0.0
Eu95 Eu 0.45666 1.02105 0.93589 0.0
N96 N 0.43559 0.08903 0.93502 0.0
C97 C 0.44154 0.11525 0.01817 0.0
C98 C 0.40877 0.16785 0.92372 0.0
C99 C 0.42861 0.15523 0.01383 0.0
H100 H 0.41079 0.96425 0.71025 0.0
H101 H 0.4342 0.17642 0.07999 0.0
H102 H 0.36898 0.18037 0.73879 0.0
H103 H 0.37006 0.97726 0.54553 0.0
H104 H 0.45696 0.10602 0.08818 0.0
H105 H 0.56712 0.92931 0.77354 0.0
H106 H 0.39889 0.19889 0.92056 0.0
H107 H 0.58685 0.04443 0.29116 0.0
H108 H 0.55489 0.99755 0.83313 0.0
H109 H 0.61032 0.99324 0.40616 0.0
H110 H 0.35185 0.12635 0.59316 0.0
H111 H 0.59034 0.87473 0.88321 0.0
H112 H 0.61075 0.85324 0.04841 0.0
H113 H 0.35169 0.05031 0.52049 0.0
H114 H 0.62213 0.87027 0.21885 0.0
N115 N 0.56857 0.98257 0.97745 0.0
C116 C 0.56391 0.97446 0.88322 0.0
C117 C 0.58466 0.90493 0.91064 0.0
C118 C 0.59089 0.91384 0.0077 0.0
C119 C 0.57138 0.93552 0.84847 0.0
C120 C 0.58269 0.95353 0.04003 0.0
H121 H 0.62162 0.92165 0.35171 0.0
N122 N 0.57986 1.0006 0.16664 0.0
C123 C 0.60363 0.98382 0.33026 0.0
C124 C 0.5883 0.96267 0.13641 0.0
C125 C 0.58917 1.01239 0.26331 0.0
C126 C 0.61023 0.94364 0.2994 0.0
C127 C 0.60329 0.93294 0.20217 0.0
O128 O 0.60871 0.08417 0.15909 0.0
O129 O 0.50552 0.07947 0.98948 0.0
O130 O 0.47293 1.03376 0.81241 0.0
O131 O 0.53719 0.05724 0.88973 0.0
O132 O 0.55529 0.12213 0.0576 0.0
O133 O 0.60339 0.06893 0.01234 0.0
O134 O 0.41102 0.96336 0.88946 0.0
O135 O 0.50704 0.98853 0.01313 0.0
O136 O 0.53948 0.06601 0.16511 0.0
O137 O 0.47706 1.03257 0.10052 0.0
O138 O 0.46602 0.95391 0.88438 0.0
O139 O 0.41791 1.01405 0.0035 0.0
C140 C 0.52032 0.12186 0.01082 0.0
C141 C 0.66428 0.08252 0.14041 0.0
C142 C 0.72909 0.11416 0.18074 0.0
C143 C 0.69113 0.11617 0.13603 0.0
C144 C 0.73982 0.07765 0.22804 0.0
C145 C 0.67553 0.04614 0.18721 0.0
C146 C 0.71312 0.04369 0.23035 0.0
C147 C 0.5052 0.04941 0.81196 0.0
C148 C 0.6252 0.08761 0.10113 0.0
C149 C 0.61109 0.89355 0.16951 0.0
C150 C 0.60472 0.88392 0.07254 0.0
C151 C 0.49624 0.95045 0.95684 0.0
C152 C 0.35683 0.97435 0.90717 0.0
C153 C 0.33389 0.93845 0.92012 0.0
C154 C 0.29506 0.93609 0.88352 0.0
C155 C 0.27992 0.97044 0.8339 0.0
C156 C 0.34081 1.00782 0.8572 0.0
C157 C 0.30261 1.00576 0.82064 0.0
C158 C 0.50834 0.05329 0.1735 0.0
C159 C 0.39745 0.97726 0.94807 0.0
H160 H 0.68264 0.1446 0.10077 0.0
H161 H 0.76888 0.0754 0.26297 0.0
H162 H 0.65543 1.02008 0.19182 0.0
H163 H 0.72165 1.01564 0.26683 0.0
H164 H 0.34633 0.91249 0.95839 0.0
H165 H 0.25051 0.97067 0.80691 0.0
H166 H 0.35784 0.03585 0.84747 0.0
H167 H 0.29054 1.03198 0.78284 0.0
Eu168 Eu 0.45652 0.52429 0.93521 0.0
C169 C 0.59717 0.63892 0.1704 0.0
C170 C 0.59463 0.69704 0.06995 0.0
C171 C 0.62344 0.71605 0.24528 0.0
C172 C 0.58585 0.65187 0.07923 0.0
C173 C 0.61693 0.67088 0.2544 0.0
C174 C 0.61247 0.72908 0.15322 0.0
C175 C 0.62708 0.61105 0.35028 0.0
N176 N 0.59138 0.59494 0.17706 0.0
C177 C 0.60804 0.58068 0.26512 0.0
C178 C 0.63097 0.65642 0.3451 0.0
Eu179 Eu 0.55569 0.54562 0.02845 0.0
N180 N 0.56816 0.62022 -0.00035 0.0
C181 C 0.56156 0.63136 0.9095 0.0
C182 C 0.58588 0.70866 0.97732 0.0
C183 C 0.56987 0.67555 0.89694 0.0
H184 H 0.6061 0.54555 0.26996 0.0
H185 H 0.56397 0.684 0.82512 0.0
H186 H 0.61869 0.76393 0.14722 0.0
H187 H 0.63907 0.59941 0.41974 0.0
H188 H 0.55057 0.60661 0.84659 0.0
H189 H 0.45295 0.40502 0.18275 0.0
H190 H 0.59218 0.7429 0.96735 0.0
H191 H 0.40924 0.50818 0.688 0.0
H192 H 0.46385 0.47836 0.13652 0.0
H193 H 0.37873 0.4462 0.55453 0.0
H194 H 0.63813 0.74101 0.30899 0.0
H195 H 0.42505 0.33866 0.05733 0.0
H196 H 0.39775 0.30636 0.88211 0.0
H197 H 0.64616 0.67993 0.41114 0.0
H198 H 0.3789 0.31737 0.71185 0.0
N199 N 0.44591 0.45454 0.98681 0.0
C200 C 0.45331 0.45002 0.0811 0.0
C201 C 0.43047 0.37097 0.03662 0.0
C202 C 0.4209 0.37594 0.93944 0.0
C203 C 0.44639 0.40828 0.1076 0.0
C204 C 0.42885 0.41877 0.91617 0.0
H205 H 0.37195 0.36909 0.58936 0.0
N206 N 0.42476 0.4668 0.7994 0.0
C207 C 0.39045 0.43961 0.62878 0.0
C208 C 0.41864 0.42493 0.82012 0.0
C209 C 0.40867 0.4747 0.70521 0.0
C210 C 0.38657 0.39619 0.64875 0.0
C211 C 0.39967 0.38846 0.74519 0.0
O212 O 0.4005 0.53808 0.8574 0.0
O213 O 0.5064 0.58266 0.00311 0.0
O214 O 0.54084 0.53411 0.15567 0.0
O215 O 0.48267 0.55225 0.09404 0.0
O216 O 0.4598 0.59333 0.88746 0.0
O217 O 0.41914 0.53007 0.00706 0.0
O218 O 0.61475 0.53925 0.09915 0.0
O219 O 0.50568 0.48736 0.95918 0.0
O220 O 0.46921 0.53792 0.80812 0.0
O221 O 0.53118 0.53175 0.86349 0.0
O222 O 0.55173 0.47648 0.07566 0.0
O223 O 0.58687 0.52891 0.94502 0.0
C224 C 0.49248 0.61313 0.95147 0.0
C225 C 0.35361 0.50884 0.9076 0.0
C226 C 0.29288 0.49858 0.91792 0.0
C227 C 0.3292 0.52392 0.94446 0.0
C228 C 0.28232 0.45783 0.85651 0.0
C229 C 0.34134 0.46816 0.84593 0.0
C230 C 0.30626 0.4429 0.82127 0.0
C231 C 0.51297 0.5472 0.16765 0.0
C232 C 0.39115 0.53562 0.92951 0.0
C233 C 0.39301 0.3457 0.76845 0.0
C234 C 0.40356 0.33946 0.86533 0.0
C235 C 0.51918 0.4568 0.01096 0.0
C236 C 0.65214 0.55783 0.01279 0.0
C237 C 0.68271 0.53859 0.01463 0.0
C238 C 0.71245 0.564 0.00054 0.0
C239 C 0.71096 0.60829 0.98551 0.0
C240 C 0.65294 0.60262 0.00057 0.0
C241 C 0.68175 0.62739 0.98644 0.0
C242 C 0.499 0.53496 0.79382 0.0
C243 C 0.61865 0.53178 0.01925 0.0
H244 H 0.3381 0.55545 0.99153 0.0
H245 H 0.25543 0.4369 0.83626 0.0
H246 H 0.35873 0.45594 0.81555 0.0
H247 H 0.29745 0.41148 0.77392 0.0
H248 H 0.68314 0.50425 0.02557 0.0
H249 H 0.73314 0.62874 0.97555 0.0
H250 H 0.63116 0.61873 0.00144 0.0
H251 H 0.68149 0.66184 0.97642 0.0
H252 H 0.9902 0.59472 0.68886 0.0
H253 H 0.02831 0.47123 0.75928 0.0
H254 H 0.03907 0.46333 0.6145 0.0
H255 H 0.94291 0.55759 0.42456 0.0
H256 H 0.95575 0.61084 0.39316 0.0
H257 H 0.94999 0.60781 0.50386 0.0
H258 H 0.0158 0.65385 0.5992 0.0
H259 H 0.02328 0.65585 0.49099 0.0
H260 H 0.05496 0.63421 0.59261 0.0
H261 H 0.04941 0.46862 0.46958 0.0
H262 H 0.05293 0.48359 0.31785 0.0
H263 H 1.00654 0.60215 0.3262 0.0
C264 C 1.00063 0.56602 0.6734 0.0
C265 C 1.00812 0.5335 0.73694 0.0
C266 C 0.02145 0.49629 0.71258 0.0
C267 C 0.02818 0.49159 0.63019 0.0
C268 C 0.02107 0.52408 0.57031 0.0
C269 C 1.00708 0.56031 0.58909 0.0
C270 C 1.00132 0.5894 0.50913 0.0
C271 C 0.96003 0.59152 0.45444 0.0
C272 C 0.02531 0.6361 0.55054 0.0
C273 C 0.01478 0.56389 0.44451 0.0
C274 C 0.02622 0.52652 0.48245 0.0
C275 C 0.04032 0.49763 0.43843 0.0
C276 C 0.04229 0.50659 0.35205 0.0
C277 C 0.02999 0.54404 0.30935 0.0
C278 C 0.01623 0.57329 0.35688 0.0
H279 H 0.46206 1.01099 0.24768 0.0
H280 H 0.55669 0.11768 0.32007 0.0
H281 H 0.56198 0.13172 0.48637 0.0
H282 H 0.42311 0.0633 0.40293 0.0
H283 H 0.40977 1.01135 0.43841 0.0
H284 H 0.41046 1.01222 0.32112 0.0
H285 H 0.4547 0.95581 0.36031 0.0
H286 H 0.45416 0.95491 0.47756 0.0
H287 H 0.49773 0.96851 0.46867 0.0
H288 H 0.5611 0.13072 0.64654 0.0
H289 H 0.55411 0.11459 0.79436 0.0
H290 H 0.46006 1.00859 0.62372 0.0
C291 C 0.48339 0.03786 0.29812 0.0
C292 C 0.50897 0.06326 0.27074 0.0
C293 C 0.5369 0.09762 0.33931 0.0
C294 C 0.54003 0.10604 0.43394 0.0
C295 C 0.51496 0.07996 0.45928 0.0
C296 C 0.48706 0.04663 0.3937 0.0
C297 C 0.46548 1.02172 0.44259 0.0
C298 C 0.42479 1.0275 0.39862 0.0
C299 C 0.4682 0.97232 0.43694 0.0
C300 C 0.48627 0.04563 0.54612 0.0
C301 C 0.51445 0.07936 0.55336 0.0
C302 C 0.53889 0.10474 0.64174 0.0
C303 C 0.5348 0.09515 0.72538 0.0
C304 C 0.50646 0.06047 0.72049 0.0
C305 C 0.4815 0.03582 0.62932 0.0
H306 H 0.53941 0.50231 0.7031 0.0
H307 H 0.45595 0.58304 0.66742 0.0
H308 H 0.456 0.59973 0.51222 0.0
H309 H 0.59041 0.5688 0.59387 0.0
H310 H 0.59804 0.52188 0.53166 0.0
H311 H 0.59345 0.51734 0.64354 0.0
H312 H 0.53965 0.44949 0.5586 0.0
H313 H 0.54445 0.45347 0.44698 0.0
H314 H 0.50017 0.45438 0.44979 0.0
H315 H 0.46522 0.60935 0.36534 0.0
H316 H 0.47553 0.60255 0.2179 0.0
H317 H 0.55032 0.51164 0.33637 0.0
C318 C 0.52114 0.5234 0.66223 0.0
C319 C 0.49759 0.54136 0.69722 0.0
C320 C 0.47389 0.56855 0.64165 0.0
C321 C 0.47401 0.57862 0.55386 0.0
C322 C 0.49767 0.56083 0.52175 0.0
C323 C 0.52031 0.53311 0.57276 0.0
C324 C 0.54109 0.51626 0.51737 0.0
C325 C 0.58326 0.53201 0.57508 0.0
C326 C 0.53071 0.46538 0.49166 0.0
C327 C 0.52629 0.5387 0.42713 0.0
C328 C 0.50186 0.56487 0.43296 0.0
C329 C 0.48407 0.58876 0.35948 0.0
C330 C 0.49015 0.58458 0.27585 0.0
C331 C 0.51345 0.55619 0.26498 0.0
C332 C 0.53261 0.53382 0.3429 0.0
H333 H 0.08915 0.518 0.87495 0.0
H334 H 0.13854 0.56529 0.18271 0.0
H335 H 0.2004 0.55676 0.19248 0.0
H336 H 0.14988 0.43576 0.88435 0.0
H337 H 0.15026 0.44697 0.77045 0.0
H338 H 0.11048 0.45277 0.7936 0.0
H339 H 0.11693 0.53345 0.75554 0.0
H340 H 0.15755 0.52835 0.73621 0.0
H341 H 0.15991 0.57232 0.8245 0.0
H342 H 0.25871 0.54898 0.16335 0.0
H343 H 0.30545 0.53513 0.10275 0.0
H344 H 0.21718 0.49284 0.81336 0.0
C345 C 0.11268 0.52465 0.94501 0.0
C346 C 0.10857 0.54026 0.02892 0.0
C347 C 0.14066 0.55136 0.11835 0.0
C348 C 0.17602 0.5471 0.12417 0.0
C349 C 0.17915 0.53205 0.03961 0.0
C350 C 0.14807 0.52028 0.95194 0.0
C351 C 0.15878 0.50648 0.8708 0.0
C352 C 0.14131 0.45759 0.82722 0.0
C353 C 0.14763 0.53698 0.79215 0.0
C354 C 0.20081 0.51294 0.92581 0.0
C355 C 0.21216 0.52784 0.02309 0.0
C356 C 0.2499 0.53692 0.08737 0.0
C357 C 0.27644 0.5294 0.0521 0.0
C358 C 0.26539 0.51265 0.95325 0.0
C359 C 0.22688 0.50514 0.88963 0.0
H360 H 0.7379 0.14338 0.02447 0.0
H361 H 0.78552 0.16574 0.33871 0.0
H362 H 0.83568 0.22407 0.34199 0.0
H363 H 0.82362 0.15212 0.00754 0.0
H364 H 0.80973 0.17904 0.90053 0.0
H365 H 0.77541 0.14289 0.92256 0.0
H366 H 0.73854 0.2063 0.9111 0.0
H367 H 0.77281 0.24269 0.88902 0.0
H368 H 0.76153 0.25888 0.98795 0.0
H369 H 0.88205 0.27791 0.31099 0.0
H370 H 0.92381 0.31849 0.24901 0.0
H371 H 0.84772 0.25852 0.95522 0.0
C372 C 0.75857 0.16123 0.09367 0.0
C373 C 0.75778 0.15062 0.1814 0.0
C374 C 0.7857 0.17371 0.27086 0.0
C375 C 0.81414 0.20693 0.27332 0.0
C376 C 0.81446 0.21639 0.18562 0.0
C377 C 0.78756 0.19399 0.09743 0.0
C378 C 0.79599 0.20791 0.01418 0.0
C379 C 0.80152 0.16812 0.95793 0.0
C380 C 0.76539 0.23028 0.94658 0.0
C381 C 0.83208 0.24107 0.06933 0.0
C382 C 0.84193 0.2461 0.16801 0.0
C383 C 0.87452 0.27438 0.23379 0.0
C384 C 0.89799 0.29747 0.19796 0.0
C385 C 0.88905 0.29167 0.09742 0.0
C386 C 0.85536 0.2635 0.03251 0.0
H387 H 0.48412 0.87138 0.8315 0.0
H388 H 0.51972 0.91654 0.13654 0.0
H389 H 0.52596 0.83961 0.17101 0.0
H390 H 0.42853 0.76593 0.8215 0.0
H391 H 0.44038 0.7358 0.73599 0.0
H392 H 0.44132 0.79459 0.73756 0.0
H393 H 0.50936 0.80697 0.7603 0.0
H394 H 0.50906 0.74828 0.76019 0.0
H395 H 0.54357 0.78764 0.86082 0.0
H396 H 0.5273 0.75012 0.17016 0.0
H397 H 0.52044 0.66829 0.13324 0.0
H398 H 0.48064 0.6793 0.82773 0.0
C399 C 0.49376 0.86554 0.90621 0.0
C400 C 0.50277 0.90248 0.98142 0.0
C401 C 0.51396 0.89098 0.0769 0.0
C402 C 0.51726 0.84643 0.09713 0.0
C403 C 0.50871 0.81133 0.02161 0.0
C404 C 0.49693 0.8208 0.92751 0.0
C405 C 0.48804 0.77731 0.858 0.0
C406 C 0.44714 0.76786 0.78384 0.0
C407 C 0.51403 0.78021 0.80671 0.0
C408 C 0.49581 0.74152 0.92603 0.0
C409 C 0.50833 0.76176 0.02078 0.0
C410 C 0.51752 0.73494 0.09562 0.0
C411 C 0.51373 0.68766 0.07394 0.0
C412 C 0.50078 0.66538 0.97734 0.0
C413 C 0.49131 0.69392 0.90299 0.0
H414 H 0.88054 0.54946 0.84607 0.0
H415 H 0.94539 0.52706 0.13969 0.0
H416 H 0.89069 0.52597 0.17573 0.0
H417 H 0.82543 0.62296 0.90959 0.0
H418 H 0.78523 0.60103 0.79809 0.0
H419 H 0.831 0.60182 0.80389 0.0
H420 H 0.80933 0.51639 0.74061 0.0
H421 H 0.76517 0.51679 0.74459 0.0
H422 H 0.79448 0.48041 0.81133 0.0
H423 H 0.82709 0.52461 0.17847 0.0
H424 H 0.76381 0.53404 0.15448 0.0
H425 H 0.7403 0.56068 0.86228 0.0
C426 C 0.88325 0.54484 0.9182 0.0
C427 C 0.91767 0.53903 0.99048 0.0
C428 C 0.91976 0.53246 0.08358 0.0
C429 C 0.88859 0.53139 0.10451 0.0
C430 C 0.85504 0.53692 0.03176 0.0
C431 C 0.85234 0.54435 0.94089 0.0
C432 C 0.8132 0.55046 0.87653 0.0
C433 C 0.81381 0.59682 0.84513 0.0
C434 C 0.79445 0.51383 0.78801 0.0
C435 C 0.79445 0.54564 0.94532 0.0
C436 C 0.81888 0.53705 0.03404 0.0
C437 C 0.80785 0.5314 0.10915 0.0
C438 C 0.7716 0.53628 0.09463 0.0
C439 C 0.74664 0.54739 0.00616 0.0
C440 C 0.75836 0.5514 0.93027 0.0
H441 H 0.22781 0.7813 0.20012 0.0
H442 H 0.11679 0.75926 0.96608 0.0
H443 H 0.14262 0.79576 0.86247 0.0
H444 H 0.25378 0.88943 0.16924 0.0
H445 H 0.30167 0.88663 0.19993 0.0
H446 H 0.27579 0.85146 0.24884 0.0
H447 H 0.29115 0.78203 0.1779 0.0
H448 H 0.31719 0.81708 0.12873 0.0
H449 H 0.27993 0.77264 0.05012 0.0
H450 H 0.17979 0.84185 0.79016 0.0
H451 H 0.22382 0.89517 0.75737 0.0
H452 H 0.30932 0.89343 0.04517 0.0
C453 C 0.20873 0.78374 0.1269 0.0
C454 C 0.17002 0.76735 0.09202 0.0
C455 C 0.14653 0.77075 -0.00525 0.0
C456 C 0.16097 0.79172 0.93529 0.0
C457 C 0.199 0.80914 0.97381 0.0
C458 C 0.22255 0.80524 0.06745 0.0
C459 C 0.26162 0.83056 0.09524 0.0
C460 C 0.27391 0.86666 0.18349 0.0
C461 C 0.2891 0.79867 0.1141 0.0
C462 C 0.25618 0.85071 0.00375 0.0
C463 C 0.22008 0.83714 0.93381 0.0
C464 C 0.20811 0.85256 0.84446 0.0
C465 C 0.23335 0.88327 0.82692 0.0
C466 C 0.27015 0.89919 0.89897 0.0
C467 C 0.2817 0.88173 0.98782 0.0
H468 H 0.53529 0.39188 0.13708 0.0
H469 H 0.48636 0.39978 0.82981 0.0
H470 H 0.47638 0.31748 0.79479 0.0
H471 H 0.58468 0.30408 0.12455 0.0
H472 H 0.57782 0.27768 0.21919 0.0
H473 H 0.5785 0.33632 0.21835 0.0
H474 H 0.5138 0.32576 0.22036 0.0
H475 H 0.51316 0.26706 0.22149 0.0
H476 H 0.47582 0.28607 0.12837 0.0
H477 H 0.47289 0.22687 0.79523 0.0
H478 H 0.48113 0.15047 0.83091 0.0
H479 H 0.53459 0.2007 0.13752 0.0
C480 C 0.52188 0.37653 0.06192 0.0
C481 C 0.51026 0.40437 0.98665 0.0
C482 C 0.49427 0.38104 0.89009 0.0
C483 C 0.48876 0.33343 0.86943 0.0
C484 C 0.49976 0.30729 0.94529 0.0
C485 C 0.51635 0.32869 0.04009 0.0
C486 C 0.52742 0.29383 0.10947 0.0
C487 C 0.56961 0.30357 0.17159 0.0
C488 C 0.50632 0.29316 0.17381 0.0
C489 C 0.51516 0.24946 0.04039 0.0
C490 C 0.49868 0.25759 0.9455 0.0
C491 C 0.48557 0.2212 0.86998 0.0
C492 C 0.48986 0.1769 0.89103 0.0
C493 C 0.50693 0.16705 0.98768 0.0
C494 C 0.51996 0.20518 0.06252 0.0
loop_
_geom_bond_atom_site_label_1
_geom_bond_atom_site_label_2
_geom_bond_distance
_geom_bond_site_symmetry_2
_ccdc_geom_bond_type
Eu0 N31 2.657 1_656 S
Eu0 N38 2.609 . S
Eu0 O44 2.558 . S
Eu0 O45 2.615 . S
Eu0 O47 2.338 1_556 S
Eu0 O48 2.563 . S
Eu0 O49 2.419 1_556 S
Eu0 O51 2.380 1_656 S
Eu0 O52 2.432 . S
Eu0 C64 2.848 . S
C1 C4 1.429 . S
C1 C5 1.411 . S
C1 N8 1.377 1_655 S
C2 C4 1.420 1_556 S
C2 C6 1.423 1_556 S
C2 C14 1.392 . S
C3 C5 1.420 . S
C3 C6 1.351 . S
C3 H26 0.931 . S
C4 C1 1.429 . S
C4 C2 1.420 1_554 S
C4 N12 1.362 1_554 S
C5 C1 1.411 . S
C5 C3 1.420 . S
C5 C10 1.395 1_655 S
C6 C2 1.423 1_554 S
C6 C3 1.351 . S
C6 H18 0.930 1_554 S
C7 C9 1.400 . S
C7 C10 1.386 . S
C7 H19 0.930 . S
N8 C1 1.377 1_455 S
N8 C9 1.321 . S
N8 Eu11 2.609 . S
C9 C7 1.400 . S
C9 N8 1.321 . S
C9 H16 0.930 . S
C10 C5 1.395 1_455 S
C10 C7 1.386 . S
C10 H29 0.930 . S
Eu11 N8 2.609 . S
Eu11 N12 2.657 1_454 S
Eu11 O45 2.383 1_454 S
Eu11 O46 2.432 . S
Eu11 O50 2.558 . S
Eu11 O51 2.612 . S
Eu11 O53 2.335 1_554 S
Eu11 O54 2.563 . S
Eu11 O55 2.419 1_554 S
Eu11 C75 2.848 . S
N12 C4 1.362 1_556 S
N12 Eu11 2.657 1_656 S
N12 C13 1.334 . S
C13 N12 1.334 . S
C13 C15 1.413 . S
C13 H20 0.929 . S
C14 C2 1.392 . S
C14 C15 1.367 . S
C14 H22 0.930 . S
C15 C13 1.413 . S
C15 C14 1.367 . S
C15 H17 0.930 . S
H16 C9 0.930 . S
H17 C15 0.930 . S
H18 C6 0.930 1_556 S
H19 C7 0.930 . S
H20 C13 0.929 . S
H21 C35 0.930 . S
H22 C14 0.930 . S
H23 C41 0.930 . S
H24 C32 0.929 . S
H25 C39 0.930 . S
H26 C3 0.931 . S
H27 C33 0.930 . S
H28 C66 0.930 1_554 S
H29 C10 0.930 . S
H30 C65 0.931 . S
N31 Eu0 2.657 1_454 S
N31 C32 1.334 . S
N31 C36 1.360 1_554 S
C32 H24 0.929 . S
C32 N31 1.334 . S
C32 C35 1.413 . S
C33 H27 0.930 . S
C33 C34 1.392 . S
C33 C35 1.367 . S
C34 C33 1.392 . S
C34 C36 1.420 1_554 S
C34 C66 1.423 1_554 S
C35 H21 0.930 . S
C35 C32 1.413 . S
C35 C33 1.367 . S
C36 N31 1.360 1_556 S
C36 C34 1.420 1_556 S
C36 C40 1.431 . S
H37 C42 0.940 . S
N38 Eu0 2.609 . S
N38 C40 1.377 1_655 S
N38 C41 1.321 . S
C39 H25 0.930 . S
C39 C41 1.400 . S
C39 C42 1.386 . S
C40 C36 1.431 . S
C40 N38 1.377 1_455 S
C40 C43 1.411 . S
C41 H23 0.930 . S
C41 N38 1.321 . S
C41 C39 1.400 . S
C42 H37 0.940 . S
C42 C39 1.386 . S
C42 C43 1.395 1_655 S
C43 C40 1.411 . S
C43 C42 1.395 1_455 S
C43 C65 1.420 . S
O44 Eu0 2.558 . S
O44 C64 1.257 . S
O45 Eu0 2.615 . S
O45 Eu11 2.383 1_656 S
O45 C56 1.273 . S
O46 Eu11 2.432 . S
O46 C63 1.264 . S
O47 Eu0 2.338 1_554 S
O47 C63 1.254 1_655 S
O48 Eu0 2.563 . S
O48 C56 1.235 . S
O49 Eu0 2.419 1_554 S
O49 C64 1.249 1_554 S
O50 Eu11 2.558 . S
O50 C75 1.257 . S
O51 Eu0 2.380 1_454 S
O51 Eu11 2.612 . S
O51 C67 1.276 . S
O52 Eu0 2.432 . S
O52 C74 1.264 . S
O53 Eu11 2.335 1_556 S
O53 C74 1.257 1_455 S
O54 Eu11 2.563 . S
O54 C67 1.235 . S
O55 Eu11 2.419 1_556 S
O55 C75 1.249 1_556 S
C56 O45 1.273 . S
C56 O48 1.235 . S
C57 C59 1.393 1_556 S
C57 C61 1.395 . S
C57 C64 1.492 . S
C58 C59 1.392 1_556 S
C58 C60 1.386 . S
C59 C57 1.393 1_554 S
C59 C58 1.392 1_554 S
C59 H76 0.930 . S
C60 C58 1.386 . S
C60 C62 1.395 . S
C60 H77 0.930 . S
C61 C57 1.395 . S
C61 C62 1.379 . S
C61 H78 0.930 . S
C62 C60 1.395 . S
C62 C61 1.379 . S
C62 H79 0.930 . S
C63 O46 1.264 . S
C63 O47 1.254 1_455 S
C64 Eu0 2.848 . S
C64 O44 1.257 . S
C64 O49 1.249 1_556 S
C64 C57 1.492 . S
C65 H30 0.931 . S
C65 C43 1.420 . S
C65 C66 1.351 . S
C66 H28 0.930 1_556 S
C66 C34 1.423 1_556 S
C66 C65 1.351 . S
C67 O51 1.276 . S
C67 O54 1.235 . S
C68 C69 1.393 . S
C68 C72 1.395 . S
C68 C75 1.492 . S
C69 C68 1.393 . S
C69 C70 1.392 . S
C69 H80 0.930 1_554 S
C70 C69 1.392 . S
C70 C71 1.386 . S
C71 C70 1.386 . S
C71 C73 1.395 . S
C71 H81 0.930 . S
C72 C68 1.395 . S
C72 C73 1.379 . S
C72 H82 0.930 . S
C73 C71 1.395 . S
C73 C72 1.379 . S
C73 H83 0.930 . S
C74 O52 1.264 . S
C74 O53 1.257 1_655 S
C75 Eu11 2.848 . S
C75 O50 1.257 . S
C75 O55 1.249 1_554 S
C75 C68 1.492 . S
H76 C59 0.930 . S
H77 C60 0.930 . S
H78 C61 0.930 . S
H79 C62 0.930 . S
H80 C69 0.930 1_556 S
H81 C71 0.930 . S
H82 C72 0.930 . S
H83 C73 0.930 . S
Eu84 N115 2.657 1_545 S
Eu84 N122 2.609 1_545 S
Eu84 O128 2.558 . S
Eu84 O129 2.612 1_554 S
Eu84 O131 2.339 1_554 S
Eu84 O132 2.563 . S
Eu84 O133 2.419 . S
Eu84 O135 2.380 1_545 S
Eu84 O136 2.432 . S
Eu84 C148 2.848 . S
C85 C88 1.429 . S
C85 C89 1.411 . S
C85 N92 1.377 . S
C86 C88 1.420 . S
C86 C90 1.423 . S
C86 C98 1.392 1_556 S
C87 C89 1.420 . S
C87 C90 1.351 . S
C87 H110 0.931 . S
C88 C85 1.429 . S
C88 C86 1.420 . S
C88 N96 1.362 . S
C89 C85 1.411 . S
C89 C87 1.420 . S
C89 C94 1.395 . S
C90 C86 1.423 . S
C90 C87 1.351 . S
C90 H102 0.930 . S
C91 C93 1.400 1_545 S
C91 C94 1.386 . S
C91 H103 0.930 1_545 S
N92 C85 1.377 . S
N92 C93 1.321 1_545 S
N92 Eu95 2.609 1_545 S
C93 C91 1.400 1_565 S
C93 N92 1.321 1_565 S
C93 H100 0.930 . S
C94 C89 1.395 . S
C94 C91 1.386 . S
C94 H113 0.930 . S
Eu95 N92 2.609 1_565 S
Eu95 N96 2.657 1_565 S
Eu95 O129 2.380 1_565 S
Eu95 O130 2.432 . S
Eu95 O134 2.558 . S
Eu95 O135 2.612 1_556 S
Eu95 O137 2.339 1_556 S
Eu95 O138 2.563 . S
Eu95 O139 2.419 . S
Eu95 C159 2.848 . S
N96 C88 1.362 . S
N96 Eu95 2.657 1_545 S
N96 C97 1.334 1_556 S
C97 N96 1.334 1_554 S
C97 C99 1.413 . S
C97 H104 0.929 . S
C98 C86 1.392 1_554 S
C98 C99 1.367 . S
C98 H106 0.930 . S
C99 C97 1.413 . S
C99 C98 1.367 . S
C99 H101 0.930 . S
H100 C93 0.930 . S
H101 C99 0.930 . S
H102 C90 0.930 . S
H103 C91 0.930 1_565 S
H104 C97 0.929 . S
H105 C119 0.930 . S
H106 C98 0.930 . S
H107 C125 0.930 . S
H108 C116 0.929 . S
H109 C123 0.930 1_545 S
H110 C87 0.931 . S
H111 C117 0.930 . S
H112 C150 0.930 . S
H113 C94 0.930 . S
H114 C149 0.931 . S
N115 Eu84 2.657 1_565 S
N115 C116 1.334 1_554 S
N115 C120 1.362 . S
C116 H108 0.929 . S
C116 N115 1.334 1_556 S
C116 C119 1.413 . S
C117 H111 0.930 . S
C117 C118 1.392 1_556 S
C117 C119 1.367 . S
C118 C117 1.392 1_554 S
C118 C120 1.420 . S
C118 C150 1.423 . S
C119 H105 0.930 . S
C119 C116 1.413 . S
C119 C117 1.367 . S
C120 N115 1.362 . S
C120 C118 1.420 . S
C120 C124 1.429 . S
H121 C126 0.930 . S
N122 Eu84 2.609 1_565 S
N122 C124 1.377 . S
N122 C125 1.321 1_565 S
C123 H109 0.930 1_565 S
C123 C125 1.400 1_565 S
C123 C126 1.386 . S
C124 C120 1.429 . S
C124 N122 1.377 . S
C124 C127 1.411 . S
C125 H107 0.930 . S
C125 N122 1.321 1_545 S
C125 C123 1.400 1_545 S
C126 H121 0.930 . S
C126 C123 1.386 . S
C126 C127 1.395 . S
C127 C124 1.411 . S
C127 C126 1.395 . S
C127 C149 1.420 . S
O128 Eu84 2.558 . S
O128 C148 1.257 . S
O129 Eu84 2.612 1_556 S
O129 Eu95 2.380 1_545 S
O129 C140 1.276 . S
O130 Eu95 2.432 . S
O130 C147 1.264 1_565 S
O131 Eu84 2.339 1_556 S
O131 C147 1.254 . S
O132 Eu84 2.563 . S
O132 C140 1.235 1_554 S
O133 Eu84 2.419 . S
O133 C148 1.249 . S
O134 Eu95 2.558 . S
O134 C159 1.257 . S
O135 Eu84 2.380 1_565 S
O135 Eu95 2.612 1_554 S
O135 C151 1.276 . S
O136 Eu84 2.432 . S
O136 C158 1.268 . S
O137 Eu95 2.339 1_554 S
O137 C158 1.254 1_565 S
O138 Eu95 2.563 . S
O138 C151 1.235 1_556 S
O139 Eu95 2.419 . S
O139 C159 1.249 . S
C140 O129 1.276 . S
C140 O132 1.235 1_556 S
C141 C143 1.393 . S
C141 C145 1.395 . S
C141 C148 1.492 . S
C142 C143 1.392 . S
C142 C144 1.386 . S
C143 C141 1.393 . S
C143 C142 1.392 . S
C143 H160 0.930 1_554 S
C144 C142 1.386 . S
C144 C146 1.395 . S
C144 H161 0.930 . S
C145 C141 1.395 . S
C145 C146 1.379 . S
C145 H162 0.930 . S
C146 C144 1.395 . S
C146 C145 1.379 . S
C146 H163 0.930 . S
C147 O130 1.264 1_545 S
C147 O131 1.254 . S
C148 Eu84 2.848 . S
C148 O128 1.257 . S
C148 O133 1.249 . S
C148 C141 1.492 . S
C149 H114 0.931 . S
C149 C127 1.420 . S
C149 C150 1.351 . S
C150 H112 0.930 . S
C150 C118 1.423 . S
C150 C149 1.351 . S
C151 O135 1.276 . S
C151 O138 1.235 1_554 S
C152 C153 1.393 . S
C152 C156 1.395 . S
C152 C159 1.492 . S
C153 C152 1.393 . S
C153 C154 1.392 . S
C153 H164 0.930 1_556 S
C154 C153 1.392 . S
C154 C155 1.386 . S
C155 C154 1.386 . S
C155 C157 1.395 . S
C155 H165 0.930 . S
C156 C152 1.395 . S
C156 C157 1.379 . S
C156 H166 0.930 . S
C157 C155 1.395 . S
C157 C156 1.379 . S
C157 H167 0.930 . S
C158 O136 1.268 . S
C158 O137 1.254 1_545 S
C159 Eu95 2.848 . S
C159 O134 1.257 . S
C159 O139 1.249 . S
C159 C152 1.492 . S
H160 C143 0.930 1_556 S
H161 C144 0.930 . S
H162 C145 0.930 . S
H163 C146 0.930 . S
H164 C153 0.930 1_554 S
H165 C155 0.930 . S
H166 C156 0.930 . S
H167 C157 0.930 . S
Eu168 N199 2.657 . S
Eu168 N206 2.609 . S
Eu168 O212 2.558 . S
Eu168 O213 2.612 1_556 S
Eu168 O215 2.339 1_556 S
Eu168 O216 2.563 . S
Eu168 O217 2.419 . S
Eu168 O219 2.380 . S
Eu168 O220 2.432 . S
Eu168 C232 2.848 . S
C169 C172 1.429 . S
C169 C173 1.411 . S
C169 N176 1.377 . S
C170 C172 1.420 . S
C170 C174 1.423 . S
C170 C182 1.392 1_554 S
C171 C173 1.420 . S
C171 C174 1.351 . S
C171 H194 0.931 . S
C172 C169 1.429 . S
C172 C170 1.420 . S
C172 N180 1.362 . S
C173 C169 1.411 . S
C173 C171 1.420 . S
C173 C178 1.395 . S
C174 C170 1.423 . S
C174 C171 1.351 . S
C174 H186 0.930 . S
C175 C177 1.400 . S
C175 C178 1.386 . S
C175 H187 0.930 . S
N176 C169 1.377 . S
N176 C177 1.321 . S
N176 Eu179 2.609 . S
C177 C175 1.400 . S
C177 N176 1.321 . S
C177 H184 0.930 . S
C178 C173 1.395 . S
C178 C175 1.386 . S
C178 H197 0.930 . S
Eu179 N176 2.609 . S
Eu179 N180 2.657 . S
Eu179 O213 2.380 . S
Eu179 O214 2.432 . S
Eu179 O218 2.558 . S
Eu179 O219 2.612 1_554 S
Eu179 O221 2.339 1_554 S
Eu179 O222 2.563 . S
Eu179 O223 2.419 . S
Eu179 C243 2.848 . S
N180 C172 1.362 . S
N180 Eu179 2.657 . S
N180 C181 1.334 1_554 S
C181 N180 1.334 1_556 S
C181 C183 1.413 . S
C181 H188 0.929 . S
C182 C170 1.392 1_556 S
C182 C183 1.367 . S
C182 H190 0.930 . S
C183 C181 1.413 . S
C183 C182 1.367 . S
C183 H185 0.930 . S
H184 C177 0.930 . S
H185 C183 0.930 . S
H186 C174 0.930 . S
H187 C175 0.930 . S
H188 C181 0.929 . S
H189 C203 0.930 . S
H190 C182 0.930 . S
H191 C209 0.930 . S
H192 C200 0.929 . S
H193 C207 0.930 . S
H194 C171 0.931 . S
H195 C201 0.930 . S
H196 C234 0.930 . S
H197 C178 0.930 . S
H198 C233 0.931 . S
N199 Eu168 2.657 . S
N199 C200 1.334 1_556 S
N199 C204 1.362 . S
C200 H192 0.929 . S
C200 N199 1.334 1_554 S
C200 C203 1.413 . S
C201 H195 0.930 . S
C201 C202 1.392 1_554 S
C201 C203 1.367 . S
C202 C201 1.392 1_556 S
C202 C204 1.420 . S
C202 C234 1.423 . S
C203 H189 0.930 . S
C203 C200 1.413 . S
C203 C201 1.367 . S
C204 N199 1.362 . S
C204 C202 1.420 . S
C204 C208 1.429 . S
H205 C210 0.930 . S
N206 Eu168 2.609 . S
N206 C208 1.377 . S
N206 C209 1.321 . S
C207 H193 0.930 . S
C207 C209 1.400 . S
C207 C210 1.386 . S
C208 C204 1.429 . S
C208 N206 1.377 . S
C208 C211 1.411 . S
C209 H191 0.930 . S
C209 N206 1.321 . S
C209 C207 1.400 . S
C210 H205 0.930 . S
C210 C207 1.386 . S
C210 C211 1.395 . S
C211 C208 1.411 . S
C211 C210 1.395 . S
C211 C233 1.420 . S
O212 Eu168 2.558 . S
O212 C232 1.257 . S
O213 Eu168 2.612 1_554 S
O213 Eu179 2.380 . S
O213 C224 1.276 . S
O214 Eu179 2.432 . S
O214 C231 1.264 . S
O215 Eu168 2.339 1_554 S
O215 C231 1.254 . S
O216 Eu168 2.563 . S
O216 C224 1.235 1_556 S
O217 Eu168 2.419 . S
O217 C232 1.249 . S
O218 Eu179 2.558 . S
O218 C243 1.257 . S
O219 Eu168 2.380 . S
O219 Eu179 2.612 1_556 S
O219 C235 1.276 . S
O220 Eu168 2.432 . S
O220 C242 1.264 . S
O221 Eu179 2.339 1_556 S
O221 C242 1.254 . S
O222 Eu179 2.563 . S
O222 C235 1.235 1_554 S
O223 Eu179 2.419 . S
O223 C243 1.249 . S
C224 O213 1.276 . S
C224 O216 1.235 1_554 S
C225 C227 1.393 . S
C225 C229 1.395 . S
C225 C232 1.492 . S
C226 C227 1.392 . S
C226 C228 1.386 . S
C227 C225 1.393 . S
C227 C226 1.392 . S
C227 H244 0.930 1_556 S
C228 C226 1.386 . S
C228 C230 1.395 . S
C228 H245 0.930 . S
C229 C225 1.395 . S
C229 C230 1.379 . S
C229 H246 0.930 . S
C230 C228 1.395 . S
C230 C229 1.379 . S
C230 H247 0.930 . S
C231 O214 1.264 . S
C231 O215 1.254 . S
C232 Eu168 2.848 . S
C232 O212 1.257 . S
C232 O217 1.249 . S
C232 C225 1.492 . S
C233 H198 0.931 . S
C233 C211 1.420 . S
C233 C234 1.351 . S
C234 H196 0.930 . S
C234 C202 1.423 . S
C234 C233 1.351 . S
C235 O219 1.276 . S
C235 O222 1.235 1_556 S
C236 C237 1.393 . S
C236 C240 1.395 . S
C236 C243 1.492 . S
C237 C236 1.393 . S
C237 C238 1.392 . S
C237 H248 0.930 1_554 S
C238 C237 1.392 . S
C238 C239 1.386 . S
C239 C238 1.386 . S
C239 C241 1.395 . S
C239 H249 0.930 . S
C240 C236 1.395 . S
C240 C241 1.379 . S
C240 H250 0.930 . S
C241 C239 1.395 . S
C241 C240 1.379 . S
C241 H251 0.930 . S
C242 O220 1.264 . S
C242 O221 1.254 . S
C243 Eu179 2.848 . S
C243 O218 1.257 . S
C243 O223 1.249 . S
C243 C236 1.492 . S
H244 C227 0.930 1_554 S
H245 C228 0.930 . S
H246 C229 0.930 . S
H247 C230 0.930 . S
H248 C237 0.930 1_556 S
H249 C239 0.930 . S
H250 C240 0.930 . S
H251 C241 0.930 . S
H252 C264 0.930 . S
H253 C266 0.930 . S
H254 C267 0.930 . S
H255 C271 0.930 1_655 S
H256 C271 0.959 . S
H257 C271 0.961 . S
H258 C272 0.960 . S
H259 C272 0.961 . S
H260 C272 0.959 . S
H261 C275 0.929 . S
H262 C276 0.931 . S
H263 C278 0.930 . S
C264 H252 0.930 . S
C264 C265 1.399 1_455 S
C264 C269 1.399 . S
C265 C264 1.399 1_655 S
C265 C266 1.376 . S
C266 H253 0.930 . S
C266 C265 1.376 . S
C266 C267 1.388 . S
C267 H254 0.930 . S
C267 C266 1.388 . S
C267 C268 1.390 . S
C268 C267 1.390 . S
C268 C269 1.394 1_655 S
C268 C274 1.465 . S
C269 C264 1.399 . S
C269 C268 1.394 1_455 S
C269 C270 1.516 . S
C270 C269 1.516 . S
C270 C271 1.502 . S
C270 C272 1.561 . S
C270 C273 1.526 . S
C271 H255 0.930 1_455 S
C271 H256 0.959 . S
C271 H257 0.961 . S
C271 C270 1.502 . S
C272 H258 0.960 . S
C272 H259 0.961 . S
C272 H260 0.959 . S
C272 C270 1.561 . S
C273 C270 1.526 . S
C273 C274 1.396 1_455 S
C273 C278 1.390 . S
C274 C268 1.465 . S
C274 C273 1.396 1_655 S
C274 C275 1.399 . S
C275 H261 0.929 . S
C275 C274 1.399 . S
C275 C276 1.385 . S
C276 H262 0.931 . S
C276 C275 1.385 . S
C276 C277 1.384 1_655 S
C277 C276 1.384 1_455 S
C277 C278 1.387 . S
C278 H263 0.930 . S
C278 C273 1.390 . S
C278 C277 1.387 . S
H279 C291 0.930 . S
H280 C293 0.930 . S
H281 C294 0.930 . S
H282 C298 0.959 . S
H283 C298 0.959 . S
H284 C298 0.961 . S
H285 C299 0.960 . S
H286 C299 0.961 . S
H287 C299 0.959 . S
H288 C302 0.929 . S
H289 C303 0.931 . S
H290 C305 0.930 . S
C291 H279 0.930 . S
C291 C292 1.399 . S
C291 C296 1.399 . S
C292 C291 1.399 . S
C292 C293 1.376 1_565 S
C293 H280 0.930 . S
C293 C292 1.376 1_545 S
C293 C294 1.388 . S
C294 H281 0.930 . S
C294 C293 1.388 . S
C294 C295 1.390 . S
C295 C294 1.390 . S
C295 C296 1.394 1_545 S
C295 C301 1.465 . S
C296 C291 1.399 . S
C296 C295 1.394 1_565 S
C296 C297 1.516 . S
C297 C296 1.516 . S
C297 C298 1.502 . S
C297 C299 1.561 . S
C297 C300 1.526 . S
C298 H282 0.959 . S
C298 H283 0.959 . S
C298 H284 0.961 . S
C298 C297 1.502 . S
C299 H285 0.960 . S
C299 H286 0.961 . S
C299 H287 0.959 . S
C299 C297 1.561 . S
C300 C297 1.526 . S
C300 C301 1.396 1_565 S
C300 C305 1.390 . S
C301 C295 1.465 . S
C301 C300 1.396 1_545 S
C301 C302 1.399 . S
C302 H288 0.929 . S
C302 C301 1.399 . S
C302 C303 1.385 . S
C303 H289 0.931 . S
C303 C302 1.385 . S
C303 C304 1.389 . S
C304 C303 1.389 . S
C304 C305 1.387 1_545 S
C305 H290 0.930 . S
C305 C300 1.390 . S
C305 C304 1.387 1_565 S
H306 C318 0.930 . S
H307 C320 0.930 . S
H308 C321 0.930 . S
H309 C325 0.959 . S
H310 C325 0.959 . S
H311 C325 0.961 . S
H312 C326 0.960 . S
H313 C326 0.961 . S
H314 C326 0.959 . S
H315 C329 0.929 . S
H316 C330 0.931 . S
H317 C332 0.930 . S
C318 H306 0.930 . S
C318 C319 1.399 . S
C318 C323 1.399 . S
C319 C318 1.399 . S
C319 C320 1.376 . S
C320 H307 0.930 . S
C320 C319 1.376 . S
C320 C321 1.388 . S
C321 H308 0.930 . S
C321 C320 1.388 . S
C321 C322 1.390 . S
C322 C321 1.390 . S
C322 C323 1.394 . S
C322 C328 1.465 . S
C323 C318 1.399 . S
C323 C322 1.394 . S
C323 C324 1.516 . S
C324 C323 1.516 . S
C324 C325 1.502 . S
C324 C326 1.561 . S
C324 C327 1.526 . S
C325 H309 0.959 . S
C325 H310 0.959 . S
C325 H311 0.961 . S
C325 C324 1.502 . S
C326 H312 0.960 . S
C326 H313 0.961 . S
C326 H314 0.959 . S
C326 C324 1.561 . S
C327 C324 1.526 . S
C327 C328 1.396 . S
C327 C332 1.390 . S
C328 C322 1.465 . S
C328 C327 1.396 . S
C328 C329 1.399 . S
C329 H315 0.929 . S
C329 C328 1.399 . S
C329 C330 1.385 . S
C330 H316 0.931 . S
C330 C329 1.385 . S
C330 C331 1.389 . S
C331 C330 1.389 . S
C331 C332 1.387 . S
C332 H317 0.930 . S
C332 C327 1.390 . S
C332 C331 1.387 . S
H333 C345 0.930 . S
H334 C347 0.930 . S
H335 C348 0.930 . S
H336 C352 0.959 . S
H337 C352 0.959 . S
H338 C352 0.961 . S
H339 C353 0.960 . S
H340 C353 0.961 . S
H341 C353 0.959 . S
H342 C356 0.929 . S
H343 C357 0.931 . S
H344 C359 0.930 . S
C345 H333 0.930 . S
C345 C346 1.399 1_556 S
C345 C350 1.399 . S
C346 C345 1.399 1_554 S
C346 C347 1.376 . S
C347 H334 0.930 . S
C347 C346 1.376 . S
C347 C348 1.388 . S
C348 H335 0.930 . S
C348 C347 1.388 . S
C348 C349 1.390 . S
C349 C348 1.390 . S
C349 C350 1.394 1_554 S
C349 C355 1.465 . S
C350 C345 1.399 . S
C350 C349 1.394 1_556 S
C350 C351 1.516 . S
C351 C350 1.516 . S
C351 C352 1.502 . S
C351 C353 1.561 . S
C351 C354 1.526 . S
C352 H336 0.959 . S
C352 H337 0.959 . S
C352 H338 0.961 . S
C352 C351 1.502 . S
C353 H339 0.960 . S
C353 H340 0.961 . S
C353 H341 0.959 . S
C353 C351 1.561 . S
C354 C351 1.526 . S
C354 C355 1.396 1_556 S
C354 C359 1.390 . S
C355 C349 1.465 . S
C355 C354 1.396 1_554 S
C355 C356 1.399 . S
C356 H342 0.929 . S
C356 C355 1.399 . S
C356 C357 1.385 . S
C357 H343 0.931 . S
C357 C356 1.385 . S
C357 C358 1.389 . S
C358 C357 1.389 . S
C358 C359 1.387 1_554 S
C359 H344 0.930 . S
C359 C354 1.390 . S
C359 C358 1.387 1_556 S
H360 C372 0.930 . S
H361 C374 0.930 . S
H362 C375 0.930 . S
H363 C379 0.959 . S
H364 C379 0.959 . S
H365 C379 0.961 . S
H366 C380 0.960 . S
H367 C380 0.961 . S
H368 C380 0.959 . S
H369 C383 0.929 . S
H370 C384 0.931 . S
H371 C386 0.930 . S
C372 H360 0.930 . S
C372 C373 1.399 1_556 S
C372 C377 1.399 . S
C373 C372 1.399 1_554 S
C373 C374 1.376 . S
C374 H361 0.930 . S
C374 C373 1.376 . S
C374 C375 1.388 . S
C375 H362 0.930 . S
C375 C374 1.388 . S
C375 C376 1.390 . S
C376 C375 1.390 . S
C376 C377 1.394 1_554 S
C376 C382 1.465 . S
C377 C372 1.399 . S
C377 C376 1.394 1_556 S
C377 C378 1.516 . S
C378 C377 1.516 . S
C378 C379 1.502 . S
C378 C380 1.561 . S
C378 C381 1.526 . S
C379 H363 0.959 . S
C379 H364 0.959 . S
C379 H365 0.961 . S
C379 C378 1.502 . S
C380 H366 0.960 . S
C380 H367 0.961 . S
C380 H368 0.959 . S
C380 C378 1.561 . S
C381 C378 1.526 . S
C381 C382 1.396 1_556 S
C381 C386 1.390 . S
C382 C376 1.465 . S
C382 C381 1.396 1_554 S
C382 C383 1.399 . S
C383 H369 0.929 . S
C383 C382 1.399 . S
C383 C384 1.385 . S
C384 H370 0.931 . S
C384 C383 1.385 . S
C384 C385 1.389 . S
C385 C384 1.389 . S
C385 C386 1.387 1_554 S
C386 H371 0.930 . S
C386 C381 1.390 . S
C386 C385 1.387 1_556 S
H387 C399 0.930 . S
H388 C401 0.930 . S
H389 C402 0.930 . S
H390 C406 0.959 . S
H391 C406 0.959 . S
H392 C406 0.961 . S
H393 C407 0.960 . S
H394 C407 0.961 . S
H395 C407 0.959 . S
H396 C410 0.929 . S
H397 C411 0.931 . S
H398 C413 0.930 . S
C399 H387 0.930 . S
C399 C400 1.399 1_556 S
C399 C404 1.399 . S
C400 C399 1.399 1_554 S
C400 C401 1.376 . S
C401 H388 0.930 . S
C401 C400 1.376 . S
C401 C402 1.388 . S
C402 H389 0.930 . S
C402 C401 1.388 . S
C402 C403 1.390 . S
C403 C402 1.390 . S
C403 C404 1.394 1_554 S
C403 C409 1.465 . S
C404 C399 1.399 . S
C404 C403 1.394 1_556 S
C404 C405 1.516 . S
C405 C404 1.516 . S
C405 C406 1.502 . S
C405 C407 1.561 . S
C405 C408 1.526 . S
C406 H390 0.959 . S
C406 H391 0.959 . S
C406 H392 0.961 . S
C406 C405 1.502 . S
C407 H393 0.960 . S
C407 H394 0.961 . S
C407 H395 0.959 . S
C407 C405 1.561 . S
C408 C405 1.526 . S
C408 C409 1.396 1_556 S
C408 C413 1.390 . S
C409 C403 1.465 . S
C409 C408 1.396 1_554 S
C409 C410 1.399 . S
C410 H396 0.929 . S
C410 C409 1.399 . S
C410 C411 1.385 . S
C411 H397 0.931 . S
C411 C410 1.385 . S
C411 C412 1.389 . S
C412 C411 1.389 . S
C412 C413 1.387 1_554 S
C413 H398 0.930 . S
C413 C408 1.390 . S
C413 C412 1.387 1_556 S
H414 C426 0.930 . S
H415 C428 0.930 . S
H416 C429 0.930 . S
H417 C433 0.959 . S
H418 C433 0.959 . S
H419 C433 0.961 . S
H420 C434 0.960 . S
H421 C434 0.961 . S
H422 C434 0.959 . S
H423 C437 0.929 . S
H424 C438 0.931 . S
H425 C440 0.930 . S
C426 H414 0.930 . S
C426 C427 1.399 . S
C426 C431 1.399 . S
C427 C426 1.399 . S
C427 C428 1.376 1_556 S
C428 H415 0.930 . S
C428 C427 1.376 1_554 S
C428 C429 1.388 . S
C429 H416 0.930 . S
C429 C428 1.388 . S
C429 C430 1.390 . S
C430 C429 1.390 . S
C430 C431 1.394 1_554 S
C430 C436 1.465 . S
C431 C426 1.399 . S
C431 C430 1.394 1_556 S
C431 C432 1.516 . S
C432 C431 1.516 . S
C432 C433 1.502 . S
C432 C434 1.561 . S
C432 C435 1.526 . S
C433 H417 0.959 . S
C433 H418 0.959 . S
C433 H419 0.961 . S
C433 C432 1.502 . S
C434 H420 0.960 . S
C434 H421 0.961 . S
C434 H422 0.959 . S
C434 C432 1.561 . S
C435 C432 1.526 . S
C435 C436 1.396 1_556 S
C435 C440 1.390 . S
C436 C430 1.465 . S
C436 C435 1.396 1_554 S
C436 C437 1.399 . S
C437 H423 0.929 . S
C437 C436 1.399 . S
C437 C438 1.385 . S
C438 H424 0.931 . S
C438 C437 1.385 . S
C438 C439 1.389 . S
C439 C438 1.389 . S
C439 C440 1.387 1_554 S
C440 H425 0.930 . S
C440 C435 1.390 . S
C440 C439 1.387 1_556 S
H441 C453 0.930 . S
H442 C455 0.930 . S
H443 C456 0.930 . S
H444 C460 0.959 . S
H445 C460 0.959 . S
H446 C460 0.961 . S
H447 C461 0.960 . S
H448 C461 0.961 . S
H449 C461 0.959 . S
H450 C464 0.929 . S
H451 C465 0.931 . S
H452 C467 0.930 . S
C453 H441 0.930 . S
C453 C454 1.399 1_554 S
C453 C458 1.399 . S
C454 C453 1.399 1_556 S
C454 C455 1.376 . S
C455 H442 0.930 . S
C455 C454 1.376 . S
C455 C456 1.388 . S
C456 H443 0.930 . S
C456 C455 1.388 . S
C456 C457 1.390 . S
C457 C456 1.390 . S
C457 C458 1.394 1_556 S
C457 C463 1.465 . S
C458 C453 1.399 . S
C458 C457 1.394 1_554 S
C458 C459 1.516 . S
C459 C458 1.516 . S
C459 C460 1.502 . S
C459 C461 1.561 . S
C459 C462 1.526 . S
C460 H444 0.959 . S
C460 H445 0.959 . S
C460 H446 0.961 . S
C460 C459 1.502 . S
C461 H447 0.960 . S
C461 H448 0.961 . S
C461 H449 0.959 . S
C461 C459 1.561 . S
C462 C459 1.526 . S
C462 C463 1.396 1_554 S
C462 C467 1.390 . S
C463 C457 1.465 . S
C463 C462 1.396 1_556 S
C463 C464 1.399 . S
C464 H450 0.929 . S
C464 C463 1.399 . S
C464 C465 1.385 . S
C465 H451 0.931 . S
C465 C464 1.385 . S
C465 C466 1.389 . S
C466 C465 1.389 . S
C466 C467 1.387 1_556 S
C467 H452 0.930 . S
C467 C462 1.390 . S
C467 C466 1.387 1_554 S
H468 C480 0.930 . S
H469 C482 0.930 . S
H470 C483 0.930 . S
H471 C487 0.959 . S
H472 C487 0.959 . S
H473 C487 0.961 . S
H474 C488 0.960 . S
H475 C488 0.961 . S
H476 C488 0.959 . S
H477 C491 0.929 . S
H478 C492 0.931 . S
H479 C494 0.930 . S
C480 H468 0.930 . S
C480 C481 1.399 . S
C480 C485 1.399 . S
C481 C480 1.399 . S
C481 C482 1.376 . S
C482 H469 0.930 . S
C482 C481 1.376 . S
C482 C483 1.388 . S
C483 H470 0.930 . S
C483 C482 1.388 . S
C483 C484 1.390 . S
C484 C483 1.390 . S
C484 C485 1.394 . S
C484 C490 1.465 . S
C485 C480 1.399 . S
C485 C484 1.394 . S
C485 C486 1.516 . S
C486 C485 1.516 . S
C486 C487 1.502 . S
C486 C488 1.561 1_556 S
C486 C489 1.526 . S
C487 H471 0.959 . S
C487 H472 0.959 . S
C487 H473 0.961 . S
C487 C486 1.502 . S
C488 H474 0.960 . S
C488 H475 0.961 . S
C488 H476 0.959 . S
C488 C486 1.561 1_554 S
C489 C486 1.526 . S
C489 C490 1.396 . S
C489 C494 1.390 . S
C490 C484 1.465 . S
C490 C489 1.396 . S
C490 C491 1.399 . S
C491 H477 0.929 . S
C491 C490 1.399 . S
C491 C492 1.385 . S
C492 H478 0.931 . S
C492 C491 1.385 . S
C492 C493 1.389 . S
C493 C492 1.389 . S
C493 C494 1.387 . S
C494 H479 0.930 . S
C494 C489 1.390 . S
C494 C493 1.387 . S
C265 C74 1.477 . S
C277 C63 1.499 . S
C292 C158 1.442 1_565 S
C304 C147 1.501 . S
C319 C242 1.438 . S
C331 C231 1.526 . S
C346 C67 1.520 . S
C358 C226 1.550 1_554 S
C373 C142 0.771 . S
C385 C58 0.895 1_554 S
C400 C151 2.340 . S
C412 C224 2.389 . S
C427 C56 1.540 . S
C439 C238 1.458 . S
C454 C70 0.896 1_556 S
C466 C154 0.708 . S
C481 C235 2.367 . S
C493 C140 2.331 . S
