# Generated by pormake.
# Topology uox, (4)-cn, num edge types: 1
# Building blocks:
#     Node 0, Type 0, BuildingBlock: KUFVIS_clean_sbu_0, # of connection points: 4
#     Node 1, Type 0, BuildingBlock: KUFVIS_clean_sbu_0, # of connection points: 4
#     Node 2, Type 0, BuildingBlock: KUFVIS_clean_sbu_0, # of connection points: 4
#     Node 3, Type 0, BuildingBlock: KUFVIS_clean_sbu_0, # of connection points: 4
#     Node 4, Type 0, BuildingBlock: KUFVIS_clean_sbu_0, # of connection points: 4
#     Node 5, Type 0, BuildingBlock: KUFVIS_clean_sbu_0, # of connection points: 4
#     Node 6, Type 0, BuildingBlock: KUFVIS_clean_sbu_0, # of connection points: 4
#     Node 7, Type 0, BuildingBlock: KUFVIS_clean_sbu_0, # of connection points: 4
#     Node 8, Type 0, BuildingBlock: KUFVIS_clean_sbu_0, # of connection points: 4
#     Node 9, Type 0, BuildingBlock: KUFVIS_clean_sbu_0, # of connection points: 4
#     Node 10, Type 0, BuildingBlock: KUFVIS_clean_sbu_0, # of connection points: 4
#     Node 11, Type 0, BuildingBlock: KUFVIS_clean_sbu_0, # of connection points: 4
#     Node 12, Type 0, BuildingBlock: KUFVIS_clean_sbu_0, # of connection points: 4
#     Node 13, Type 0, BuildingBlock: KUFVIS_clean_sbu_0, # of connection points: 4
#     Node 14, Type 0, BuildingBlock: KUFVIS_clean_sbu_0, # of connection points: 4
#     Node 15, Type 0, BuildingBlock: KUFVIS_clean_sbu_0, # of connection points: 4
#     Node 16, Type 0, BuildingBlock: KUFVIS_clean_sbu_0, # of connection points: 4
#     Node 17, Type 0, BuildingBlock: KUFVIS_clean_sbu_0, # of connection points: 4
#     Node 18, Type 0, BuildingBlock: KUFVIS_clean_sbu_0, # of connection points: 4
#     Node 19, Type 0, BuildingBlock: KUFVIS_clean_sbu_0, # of connection points: 4
#     Node 20, Type 0, BuildingBlock: KUFVIS_clean_sbu_0, # of connection points: 4
#     Node 21, Type 0, BuildingBlock: KUFVIS_clean_sbu_0, # of connection points: 4
#     Node 22, Type 0, BuildingBlock: KUFVIS_clean_sbu_0, # of connection points: 4
#     Node 23, Type 0, BuildingBlock: KUFVIS_clean_sbu_0, # of connection points: 4
#     Node 24, Type 0, BuildingBlock: KUFVIS_clean_sbu_0, # of connection points: 4
#     Node 25, Type 0, BuildingBlock: KUFVIS_clean_sbu_0, # of connection points: 4
#     Node 26, Type 0, BuildingBlock: KUFVIS_clean_sbu_0, # of connection points: 4
#     Node 27, Type 0, BuildingBlock: KUFVIS_clean_sbu_0, # of connection points: 4
#     Node 28, Type 0, BuildingBlock: KUFVIS_clean_sbu_0, # of connection points: 4
#     Node 29, Type 0, BuildingBlock: KUFVIS_clean_sbu_0, # of connection points: 4
#     Node 30, Type 0, BuildingBlock: KUFVIS_clean_sbu_0, # of connection points: 4
#     Node 31, Type 0, BuildingBlock: KUFVIS_clean_sbu_0, # of connection points: 4
#     Edge 32, Type (0, 0), BuildingBlock: KIFKEQ_clean_linker_1, # of connection points: 2
#     Edge 33, Type (0, 0), BuildingBlock: KIFKEQ_clean_linker_1, # of connection points: 2
#     Edge 34, Type (0, 0), BuildingBlock: KIFKEQ_clean_linker_1, # of connection points: 2
#     Edge 35, Type (0, 0), BuildingBlock: KIFKEQ_clean_linker_1, # of connection points: 2
#     Edge 36, Type (0, 0), BuildingBlock: KIFKEQ_clean_linker_1, # of connection points: 2
#     Edge 37, Type (0, 0), BuildingBlock: KIFKEQ_clean_linker_1, # of connection points: 2
#     Edge 38, Type (0, 0), BuildingBlock: KIFKEQ_clean_linker_1, # of connection points: 2
#     Edge 39, Type (0, 0), BuildingBlock: KIFKEQ_clean_linker_1, # of connection points: 2
#     Edge 40, Type (0, 0), BuildingBlock: KIFKEQ_clean_linker_1, # of connection points: 2
#     Edge 41, Type (0, 0), BuildingBlock: KIFKEQ_clean_linker_1, # of connection points: 2
#     Edge 42, Type (0, 0), BuildingBlock: KIFKEQ_clean_linker_1, # of connection points: 2
#     Edge 43, Type (0, 0), BuildingBlock: KIFKEQ_clean_linker_1, # of connection points: 2
#     Edge 44, Type (0, 0), BuildingBlock: KIFKEQ_clean_linker_1, # of connection points: 2
#     Edge 45, Type (0, 0), BuildingBlock: KIFKEQ_clean_linker_1, # of connection points: 2
#     Edge 46, Type (0, 0), BuildingBlock: KIFKEQ_clean_linker_1, # of connection points: 2
#     Edge 47, Type (0, 0), BuildingBlock: KIFKEQ_clean_linker_1, # of connection points: 2
#     Edge 48, Type (0, 0), BuildingBlock: KIFKEQ_clean_linker_1, # of connection points: 2
#     Edge 49, Type (0, 0), BuildingBlock: KIFKEQ_clean_linker_1, # of connection points: 2
#     Edge 50, Type (0, 0), BuildingBlock: KIFKEQ_clean_linker_1, # of connection points: 2
#     Edge 51, Type (0, 0), BuildingBlock: KIFKEQ_clean_linker_1, # of connection points: 2
#     Edge 52, Type (0, 0), BuildingBlock: KIFKEQ_clean_linker_1, # of connection points: 2
#     Edge 53, Type (0, 0), BuildingBlock: KIFKEQ_clean_linker_1, # of connection points: 2
#     Edge 54, Type (0, 0), BuildingBlock: KIFKEQ_clean_linker_1, # of connection points: 2
#     Edge 55, Type (0, 0), BuildingBlock: KIFKEQ_clean_linker_1, # of connection points: 2
#     Edge 56, Type (0, 0), BuildingBlock: KIFKEQ_clean_linker_1, # of connection points: 2
#     Edge 57, Type (0, 0), BuildingBlock: KIFKEQ_clean_linker_1, # of connection points: 2
#     Edge 58, Type (0, 0), BuildingBlock: KIFKEQ_clean_linker_1, # of connection points: 2
#     Edge 59, Type (0, 0), BuildingBlock: KIFKEQ_clean_linker_1, # of connection points: 2
#     Edge 60, Type (0, 0), BuildingBlock: KIFKEQ_clean_linker_1, # of connection points: 2
#     Edge 61, Type (0, 0), BuildingBlock: KIFKEQ_clean_linker_1, # of connection points: 2
#     Edge 62, Type (0, 0), BuildingBlock: KIFKEQ_clean_linker_1, # of connection points: 2
#     Edge 63, Type (0, 0), BuildingBlock: KIFKEQ_clean_linker_1, # of connection points: 2
#     Edge 64, Type (0, 0), BuildingBlock: KIFKEQ_clean_linker_1, # of connection points: 2
#     Edge 65, Type (0, 0), BuildingBlock: KIFKEQ_clean_linker_1, # of connection points: 2
#     Edge 66, Type (0, 0), BuildingBlock: KIFKEQ_clean_linker_1, # of connection points: 2
#     Edge 67, Type (0, 0), BuildingBlock: KIFKEQ_clean_linker_1, # of connection points: 2
#     Edge 68, Type (0, 0), BuildingBlock: KIFKEQ_clean_linker_1, # of connection points: 2
#     Edge 69, Type (0, 0), BuildingBlock: KIFKEQ_clean_linker_1, # of connection points: 2
#     Edge 70, Type (0, 0), BuildingBlock: KIFKEQ_clean_linker_1, # of connection points: 2
#     Edge 71, Type (0, 0), BuildingBlock: KIFKEQ_clean_linker_1, # of connection points: 2
#     Edge 72, Type (0, 0), BuildingBlock: KIFKEQ_clean_linker_1, # of connection points: 2
#     Edge 73, Type (0, 0), BuildingBlock: KIFKEQ_clean_linker_1, # of connection points: 2
#     Edge 74, Type (0, 0), BuildingBlock: KIFKEQ_clean_linker_1, # of connection points: 2
#     Edge 75, Type (0, 0), BuildingBlock: KIFKEQ_clean_linker_1, # of connection points: 2
#     Edge 76, Type (0, 0), BuildingBlock: KIFKEQ_clean_linker_1, # of connection points: 2
#     Edge 77, Type (0, 0), BuildingBlock: KIFKEQ_clean_linker_1, # of connection points: 2
#     Edge 78, Type (0, 0), BuildingBlock: KIFKEQ_clean_linker_1, # of connection points: 2
#     Edge 79, Type (0, 0), BuildingBlock: KIFKEQ_clean_linker_1, # of connection points: 2
#     Edge 80, Type (0, 0), BuildingBlock: KIFKEQ_clean_linker_1, # of connection points: 2
#     Edge 81, Type (0, 0), BuildingBlock: KIFKEQ_clean_linker_1, # of connection points: 2
#     Edge 82, Type (0, 0), BuildingBlock: KIFKEQ_clean_linker_1, # of connection points: 2
#     Edge 83, Type (0, 0), BuildingBlock: KIFKEQ_clean_linker_1, # of connection points: 2
#     Edge 84, Type (0, 0), BuildingBlock: KIFKEQ_clean_linker_1, # of connection points: 2
#     Edge 85, Type (0, 0), BuildingBlock: KIFKEQ_clean_linker_1, # of connection points: 2
#     Edge 86, Type (0, 0), BuildingBlock: KIFKEQ_clean_linker_1, # of connection points: 2
#     Edge 87, Type (0, 0), BuildingBlock: KIFKEQ_clean_linker_1, # of connection points: 2
#     Edge 88, Type (0, 0), BuildingBlock: KIFKEQ_clean_linker_1, # of connection points: 2
#     Edge 89, Type (0, 0), BuildingBlock: KIFKEQ_clean_linker_1, # of connection points: 2
#     Edge 90, Type (0, 0), BuildingBlock: KIFKEQ_clean_linker_1, # of connection points: 2
#     Edge 91, Type (0, 0), BuildingBlock: KIFKEQ_clean_linker_1, # of connection points: 2
#     Edge 92, Type (0, 0), BuildingBlock: KIFKEQ_clean_linker_1, # of connection points: 2
#     Edge 93, Type (0, 0), BuildingBlock: KIFKEQ_clean_linker_1, # of connection points: 2
#     Edge 94, Type (0, 0), BuildingBlock: KIFKEQ_clean_linker_1, # of connection points: 2
#     Edge 95, Type (0, 0), BuildingBlock: KIFKEQ_clean_linker_1, # of connection points: 2
# Relax obj value: 0.068
# Max RMSD: 0.100
# Mean RMSD: 0.100
data_MOF--net-uox--node1-KUFVIS_clean_sbu_0--edge1-KIFKEQ_clean_linker_1
_symmetry_space_group_name_H-M    P1
_symmetry_Int_Tables_number       1
_symmetry_cell_setting            triclinic
loop_
_symmetry_equiv_pos_as_xyz
'x, y, z'
_cell_length_a     46.474447
_cell_length_b     46.46784
_cell_length_c     78.120896
_cell_angle_alpha  89.997289
_cell_angle_beta   90.033915
_cell_angle_gamma 90.00187
loop_
_atom_site_label
_atom_site_type_symbol
_atom_site_fract_x
_atom_site_fract_y
_atom_site_fract_z
_atom_type_partial_charge
Mn0 Mn 0.41944 0.06696 0.16304 0.0
Mn1 Mn 0.463 0.00913 0.15952 0.0
C2 C 0.46869 0.07314 0.15956 0.0
C3 C 0.39034 0.1025 0.15086 0.0
C4 C 0.43637 0.02836 0.19319 0.0
O5 O 0.39136 0.0345 0.15699 0.0
O6 O 0.42321 0.99852 0.15269 0.0
C7 C 0.46161 1.00054 0.12198 0.0
N8 N 0.47686 1.00514 0.13662 0.0
C9 C 0.52169 1.00423 0.12122 0.0
C10 C 0.50647 0.99925 0.106 0.0
C11 C 0.4763 0.99745 0.10638 0.0
C12 C 0.5059 0.00682 0.13641 0.0
H13 H 0.43841 0.99931 0.12219 0.0
C14 C 0.39756 0.00877 0.15242 0.0
O15 O 0.38781 0.09522 0.16683 0.0
O16 O 0.40888 0.08831 0.14177 0.0
N17 N 0.50217 0.01703 0.16549 0.0
C18 C 0.51334 0.02449 0.18099 0.0
C19 C 0.54314 0.02868 0.18263 0.0
C20 C 0.56113 0.02504 0.16835 0.0
C21 C 0.54914 0.01723 0.15254 0.0
C22 C 0.51932 0.01316 0.15171 0.0
H23 H 0.49961 0.02745 0.19199 0.0
O24 O 0.45315 0.09333 0.16632 0.0
O25 O 0.45499 0.04989 0.15519 0.0
O26 O 0.42421 0.05098 0.18741 0.0
O27 O 0.45061 0.01108 0.18373 0.0
C28 C 0.56553 0.01409 0.13749 0.0
C29 C 0.55181 0.00756 0.12185 0.0
H30 H 0.51771 0.99713 0.09392 0.0
H31 H 0.4644 0.99381 0.09467 0.0
H32 H 0.55222 0.03482 0.19486 0.0
H33 H 0.58406 0.02859 0.16963 0.0
H34 H 0.58862 0.01717 0.13774 0.0
H35 H 0.56458 0.0057 0.1103 0.0
Mn36 Mn 0.19696 0.16969 0.41166 0.0
Mn37 Mn 0.25491 0.2133 0.40952 0.0
C38 C 0.19092 0.21914 0.40963 0.0
C39 C 0.16159 0.14206 0.39806 0.0
C40 C 0.23532 0.18423 0.44239 0.0
O41 O 0.22929 0.1421 0.40495 0.0
O42 O 0.2657 0.17386 0.40198 0.0
C43 C 0.26405 0.21406 0.37203 0.0
N44 N 0.25917 0.22846 0.38693 0.0
C45 C 0.25984 0.27413 0.3724 0.0
C46 C 0.26509 0.2598 0.35692 0.0
C47 C 0.26715 0.22964 0.35673 0.0
C48 C 0.25727 0.25749 0.38727 0.0
H49 H 0.26548 0.19088 0.37181 0.0
C50 C 0.25525 0.14834 0.40098 0.0
O51 O 0.16861 0.13747 0.41393 0.0
O52 O 0.17594 0.16174 0.38999 0.0
N53 N 0.24691 0.25209 0.41624 0.0
C54 C 0.23923 0.26235 0.43192 0.0
C55 C 0.23479 0.29201 0.43411 0.0
C56 C 0.23837 0.3108 0.42019 0.0
C57 C 0.24638 0.29975 0.40419 0.0
C58 C 0.25072 0.27002 0.4028 0.0
H59 H 0.23628 0.24798 0.44264 0.0
O60 O 0.17066 0.20311 0.41592 0.0
O61 O 0.21417 0.20574 0.40497 0.0
O62 O 0.2129 0.17218 0.43621 0.0
O63 O 0.2525 0.19944 0.4334 0.0
C64 C 0.24948 0.31697 0.38946 0.0
C65 C 0.25624 0.30418 0.37358 0.0
H66 H 0.26721 0.27171 0.34507 0.0
H67 H 0.27101 0.21841 0.34482 0.0
H68 H 0.22849 0.30036 0.44649 0.0
H69 H 0.23462 0.33363 0.42189 0.0
H70 H 0.2462 0.34002 0.39014 0.0
H71 H 0.25807 0.31759 0.3623 0.0
Mn72 Mn 0.08822 0.9454 0.66374 0.0
Mn73 Mn 0.04508 1.00363 0.66112 0.0
C74 C 0.03877 0.93986 0.66174 0.0
C75 C 0.1157 0.90978 0.65028 0.0
C76 C 0.07263 0.9839 0.69437 0.0
O77 O 0.11623 0.97728 0.65696 0.0
O78 O 0.08508 0.01431 0.6547 0.0
C79 C 0.04736 0.01169 0.62356 0.0
N80 N 0.03174 0.00727 0.63808 0.0
C81 C 0.98748 0.00592 0.62209 0.0
C82 C 1.00307 0.01067 0.60699 0.0
C83 C 0.03314 0.01353 0.60773 0.0
C84 C 1.00281 1.00446 0.63751 0.0
H85 H 0.07049 0.01368 0.62406 0.0
C86 C 0.11047 1.0036 0.6537 0.0
O87 O 0.12021 0.91677 0.66617 0.0
O88 O 0.09611 0.92418 0.64216 0.0
N89 N 0.00573 0.9962 0.66684 0.0
C90 C 0.99401 0.99064 0.68247 0.0
C91 C 0.96414 0.98676 0.68392 0.0
C92 C 0.94664 0.98874 0.6693 0.0
C93 C 0.95916 0.9948 0.65337 0.0
C94 C 0.989 0.99883 0.65275 0.0
H95 H 0.00738 0.989 0.69375 0.0
O96 O 0.05455 0.91942 0.66804 0.0
O97 O 0.05242 0.96284 0.6569 0.0
O98 O 0.08543 0.96185 0.6882 0.0
O99 O 0.0573 1.00096 0.68532 0.0
C100 C 0.94325 0.99655 0.63805 0.0
C101 C 0.95741 1.00205 0.62241 0.0
H102 H 0.9922 0.01192 0.59474 0.0
H103 H 0.04534 0.01704 0.59612 0.0
H104 H 0.95465 0.98209 0.69625 0.0
H105 H 0.92366 0.98539 0.67043 0.0
H106 H 0.92017 0.99334 0.63811 0.0
H107 H 0.94499 1.00297 0.61069 0.0
Mn108 Mn 0.3164 0.83925 0.91369 0.0
Mn109 Mn 0.25849 0.79586 0.91001 0.0
C110 C 0.32246 0.79001 0.91017 0.0
C111 C 0.3521 0.86816 0.90158 0.0
C112 C 0.27771 0.82225 0.94376 0.0
O113 O 0.28408 0.86746 0.90763 0.0
O114 O 0.24798 0.83576 0.9033 0.0
C115 C 0.24994 0.79761 0.87246 0.0
N116 N 0.25451 0.78222 0.88705 0.0
C117 C 0.25369 0.73753 0.87149 0.0
C118 C 0.24874 0.7529 0.85632 0.0
C119 C 0.24691 0.78306 0.85681 0.0
C120 C 0.2562 0.75318 0.88674 0.0
H121 H 0.2487 0.8208 0.87276 0.0
C122 C 0.25832 0.86138 0.90307 0.0
O123 O 0.3448 0.87075 0.91754 0.0
O124 O 0.33781 0.84973 0.89245 0.0
N125 N 0.2663 0.75663 0.91585 0.0
C126 C 0.27373 0.74531 0.93132 0.0
C127 C 0.27795 0.71549 0.93285 0.0
C128 C 0.27437 0.69764 0.91849 0.0
C129 C 0.2666 0.70978 0.90272 0.0
C130 C 0.26249 0.73961 0.90199 0.0
H131 H 0.27666 0.75894 0.94237 0.0
O132 O 0.34265 0.8055 0.91699 0.0
O133 O 0.29927 0.80377 0.90576 0.0
O134 O 0.30031 0.83448 0.93802 0.0
O135 O 0.26045 0.80804 0.93426 0.0
C136 C 0.26354 0.69354 0.8876 0.0
C137 C 0.25705 0.7074 0.872 0.0
H138 H 0.24668 0.74178 0.84419 0.0
H139 H 0.2433 0.79508 0.84514 0.0
H140 H 0.28406 0.7063 0.94505 0.0
H141 H 0.27795 0.6747 0.91968 0.0
H142 H 0.26664 0.67044 0.88776 0.0
H143 H 0.25525 0.69475 0.8604 0.0
Mn144 Mn 0.42268 0.94358 0.35022 0.0
Mn145 Mn 0.46641 1.00124 0.35344 0.0
C146 C 0.47215 0.93745 0.35197 0.0
C147 C 0.39496 0.908 0.36354 0.0
C148 C 0.43743 0.9833 0.32015 0.0
O149 O 0.39513 0.97573 0.35734 0.0
O150 O 0.42706 0.01172 0.36121 0.0
C151 C 0.467 0.00704 0.39118 0.0
N152 N 0.48148 1.00341 0.37618 0.0
C153 C 0.52691 1.00109 0.39092 0.0
C154 C 0.51251 1.00505 0.40651 0.0
C155 C 0.48242 0.00799 0.40663 0.0
C156 C 0.51042 1.00051 0.37591 0.0
H157 H 0.44387 0.00906 0.39136 0.0
C158 C 0.40148 1.0014 0.36188 0.0
O159 O 0.39033 0.91536 0.34772 0.0
O160 O 0.4148 0.92203 0.37167 0.0
N161 N 0.50521 0.9937 0.34656 0.0
C162 C 0.51567 0.98862 0.33055 0.0
C163 C 0.54536 0.98454 0.32825 0.0
C164 C 0.56397 0.98581 0.3424 0.0
C165 C 0.55274 0.99131 0.35873 0.0
C166 C 0.52301 0.99554 0.36021 0.0
H167 H 0.50146 0.98753 0.31963 0.0
O168 O 0.45608 0.9173 0.3456 0.0
O169 O 0.45874 0.96041 0.35702 0.0
O170 O 0.42539 0.96056 0.32594 0.0
O171 O 0.45247 1.00024 0.32947 0.0
C172 C 0.56981 0.99224 0.37363 0.0
C173 C 0.5569 0.99708 0.38971 0.0
H174 H 0.5243 0.00558 0.41847 0.0
H175 H 0.47113 0.01086 0.41863 0.0
H176 H 0.55386 0.98027 0.31561 0.0
H177 H 0.58681 0.98233 0.3406 0.0
H178 H 0.59283 0.98886 0.3729 0.0
H179 H 0.57019 0.99733 0.40111 0.0
Mn180 Mn 0.31388 0.17049 0.6009 0.0
Mn181 Mn 0.25537 0.21347 0.60236 0.0
C182 C 0.31926 0.21996 0.60319 0.0
C183 C 0.34921 0.14307 0.6147 0.0
C184 C 0.2767 0.18559 0.56961 0.0
O185 O 0.2818 0.14245 0.60727 0.0
O186 O 0.2445 0.17345 0.60873 0.0
C187 C 0.24412 0.21179 0.63963 0.0
N188 N 0.24965 0.22717 0.62516 0.0
C189 C 0.24771 0.27187 0.64067 0.0
C190 C 0.2418 0.25652 0.65572 0.0
C191 C 0.24004 0.22635 0.65519 0.0
C192 C 0.25127 0.25621 0.6255 0.0
H193 H 0.24289 0.18859 0.6393 0.0
C194 C 0.2553 0.14813 0.61005 0.0
O195 O 0.34262 0.13862 0.59875 0.0
O196 O 0.33451 0.16255 0.62273 0.0
N197 N 0.26318 0.25275 0.59665 0.0
C198 C 0.27141 0.26408 0.58133 0.0
C199 C 0.27552 0.29391 0.57985 0.0
C200 C 0.27101 0.31178 0.59411 0.0
C201 C 0.2624 0.29963 0.60972 0.0
C202 C 0.25843 0.26978 0.61039 0.0
H203 H 0.27507 0.25041 0.57036 0.0
O204 O 0.33984 0.20424 0.597 0.0
O205 O 0.296 0.20627 0.60758 0.0
O206 O 0.29853 0.17298 0.57617 0.0
O207 O 0.25939 0.20107 0.57833 0.0
C208 C 0.25833 0.31588 0.62475 0.0
C209 C 0.25097 0.30202 0.64021 0.0
H210 H 0.23891 0.26765 0.66778 0.0
H211 H 0.23566 0.21434 0.66677 0.0
H212 H 0.28228 0.30311 0.56778 0.0
H213 H 0.27451 0.33474 0.59297 0.0
H214 H 0.2613 0.339 0.62463 0.0
H215 H 0.24838 0.31469 0.65174 0.0
Mn216 Mn 0.09003 0.06548 0.85162 0.0
Mn217 Mn 0.04674 0.00748 0.85533 0.0
C218 C 0.04076 0.07147 0.85506 0.0
C219 C 0.11895 0.10136 0.86355 0.0
C220 C 0.07326 0.02653 0.8216 0.0
O221 O 0.11827 0.03324 0.85781 0.0
O222 O 0.08661 0.9971 0.86214 0.0
C223 C 0.04829 0.99921 0.89289 0.0
N224 N 0.03297 1.00362 0.87826 0.0
C225 C 0.9882 1.00271 0.89371 0.0
C226 C 1.00348 0.99791 0.90893 0.0
C227 C 0.03365 0.99621 0.90851 0.0
C228 C 1.00392 1.0052 0.87849 0.0
H229 H 0.07148 0.99806 0.89265 0.0
C230 C 0.1122 0.0075 0.86241 0.0
O231 O 0.12149 0.09379 0.84763 0.0
O232 O 0.10052 0.08723 0.87277 0.0
N233 N 0.00752 0.01515 0.84938 0.0
C234 C 0.99626 0.02244 0.83386 0.0
C235 C 0.96645 0.02651 0.83225 0.0
C236 C 0.94852 0.02294 0.84656 0.0
C237 C 0.96059 0.01532 0.86238 0.0
C238 C 0.99043 0.01135 0.86319 0.0
H239 H 0.00995 0.02535 0.82284 0.0
O240 O 0.05623 0.09164 0.84821 0.0
O241 O 0.05454 0.04833 0.85954 0.0
O242 O 0.08536 0.04919 0.82736 0.0
O243 O 0.05903 0.00926 0.83109 0.0
C244 C 0.94427 0.01226 0.87746 0.0
C245 C 0.95806 0.00593 0.89311 0.0
H246 H 0.9923 0.99588 0.92103 0.0
H247 H 0.04561 0.99272 0.92022 0.0
H248 H 0.95731 0.03251 0.82001 0.0
H249 H 0.92557 0.0264 0.8453 0.0
H250 H 0.92116 0.01526 0.87723 0.0
H251 H 0.94534 1.00414 0.90468 0.0
Mn252 Mn 0.19436 0.83972 0.10079 0.0
Mn253 Mn 0.25229 0.79642 0.10466 0.0
C254 C 0.18831 0.79051 0.1044 0.0
C255 C 0.15862 0.86869 0.1128 0.0
C256 C 0.2332 0.82263 0.07083 0.0
O257 O 0.22662 0.86798 0.10686 0.0
O258 O 0.26273 0.83635 0.11134 0.0
C259 C 0.26062 0.7983 0.14222 0.0
N260 N 0.25614 0.78285 0.12764 0.0
C261 C 0.25684 0.73823 0.14327 0.0
C262 C 0.2617 0.75364 0.15843 0.0
C263 C 0.26354 0.78381 0.1579 0.0
C264 C 0.25443 0.75381 0.12799 0.0
H265 H 0.26187 0.82149 0.14189 0.0
C266 C 0.25235 0.86196 0.1115 0.0
O267 O 0.16598 0.87119 0.09684 0.0
O268 O 0.17286 0.8503 0.12198 0.0
N269 N 0.24453 0.75716 0.09885 0.0
C270 C 0.23719 0.74578 0.08338 0.0
C271 C 0.23298 0.71596 0.08188 0.0
C272 C 0.23645 0.69816 0.09627 0.0
C273 C 0.24412 0.71036 0.11204 0.0
C274 C 0.24823 0.74019 0.11274 0.0
H275 H 0.23434 0.75937 0.0723 0.0
O276 O 0.16814 0.80594 0.09752 0.0
O277 O 0.21147 0.8043 0.10882 0.0
O278 O 0.21055 0.83483 0.07651 0.0
O279 O 0.25046 0.80851 0.08039 0.0
C280 C 0.24708 0.69418 0.1272 0.0
C281 C 0.25347 0.7081 0.14279 0.0
H282 H 0.26368 0.74257 0.17057 0.0
H283 H 0.26709 0.79587 0.16956 0.0
H284 H 0.22695 0.70672 0.06968 0.0
H285 H 0.23288 0.67521 0.0951 0.0
H286 H 0.24397 0.67108 0.12706 0.0
H287 H 0.25519 0.69548 0.15441 0.0
Mn288 Mn 0.59046 0.94454 0.8503 0.0
Mn289 Mn 0.54647 1.00205 0.85369 0.0
C290 C 0.54121 0.93802 0.8536 0.0
C291 C 0.61959 0.90906 0.8625 0.0
C292 C 0.57366 0.98309 0.82011 0.0
O293 O 0.61824 0.97718 0.85653 0.0
O294 O 0.58609 0.01293 0.86073 0.0
C295 C 0.54726 0.01052 0.89125 0.0
N296 N 0.53226 0.00587 0.87652 0.0
C297 C 0.48721 0.00626 0.8917 0.0
C298 C 0.50217 0.01133 0.907 0.0
C299 C 0.53232 0.01341 0.90677 0.0
C300 C 0.50323 1.00391 0.87659 0.0
H301 H 0.57044 0.01193 0.89115 0.0
C302 C 0.6118 1.00284 0.86112 0.0
O303 O 0.62228 0.91649 0.84657 0.0
O304 O 0.60092 0.92312 0.87157 0.0
N305 N 0.50745 0.99383 0.84752 0.0
C306 C 0.49657 0.98626 0.83196 0.0
C307 C 0.46684 0.98175 0.83018 0.0
C308 C 0.44863 0.98516 0.84438 0.0
C309 C 0.46032 0.99306 0.86024 0.0
C310 C 0.49008 0.99747 0.86122 0.0
H311 H 0.51048 0.98345 0.82102 0.0
O312 O 0.55696 0.91796 0.84685 0.0
O313 O 0.55472 0.96134 0.85803 0.0
O314 O 0.58588 0.96055 0.82595 0.0
O315 O 0.5592 1.00028 0.82952 0.0
C316 C 0.4437 0.99598 0.87522 0.0
C317 C 0.45713 1.00262 0.89094 0.0
H318 H 0.49075 0.01328 0.91903 0.0
H319 H 0.54404 0.0171 0.91855 0.0
H320 H 0.45799 0.97553 0.81791 0.0
H321 H 0.42575 0.98136 0.84299 0.0
H322 H 0.42064 0.99265 0.87486 0.0
H323 H 0.44419 1.00429 0.90242 0.0
Mn324 Mn 0.81481 0.84088 0.60123 0.0
Mn325 Mn 0.75712 0.7971 0.60384 0.0
C326 C 0.82095 0.79139 0.60289 0.0
C327 C 0.85015 0.86852 0.61482 0.0
C328 C 0.7759 0.82617 0.57076 0.0
O329 O 0.78251 0.8684 0.60817 0.0
O330 O 0.7464 0.83646 0.61154 0.0
C331 C 0.75039 0.79648 0.64152 0.0
N332 N 0.7544 0.78201 0.62655 0.0
C333 C 0.75652 0.73658 0.64129 0.0
C334 C 0.75217 0.75098 0.65685 0.0
C335 C 0.74913 0.78106 0.65696 0.0
C336 C 0.75738 0.75308 0.62629 0.0
H337 H 0.74829 0.81961 0.64168 0.0
C338 C 0.7567 0.86204 0.6124 0.0
O339 O 0.84303 0.87324 0.59898 0.0
O340 O 0.83598 0.84867 0.62284 0.0
N341 N 0.76483 0.7583 0.597 0.0
C342 C 0.77023 0.74784 0.58103 0.0
C343 C 0.77438 0.71815 0.57874 0.0
C344 C 0.77286 0.69953 0.59288 0.0
C345 C 0.76703 0.71076 0.60917 0.0
C346 C 0.76272 0.74049 0.61063 0.0
H347 H 0.77151 0.76205 0.57011 0.0
O348 O 0.84121 0.80753 0.59672 0.0
O349 O 0.79788 0.80474 0.60782 0.0
O350 O 0.7984 0.83829 0.57682 0.0
O351 O 0.75874 0.81105 0.57988 0.0
C352 C 0.76582 0.69369 0.62406 0.0
C353 C 0.76062 0.7066 0.64011 0.0
H354 H 0.7514 0.73918 0.6688 0.0
H355 H 0.74596 0.79234 0.66893 0.0
H356 H 0.7789 0.70965 0.56613 0.0
H357 H 0.77641 0.67669 0.5911 0.0
H358 H 0.76926 0.67067 0.62335 0.0
H359 H 0.76016 0.6933 0.6515 0.0
Mn360 Mn 0.92183 0.06551 0.35129 0.0
Mn361 Mn 0.96555 0.0078 0.35423 0.0
C362 C 0.97132 0.07164 0.3529 0.0
C363 C 0.89416 0.10102 0.36471 0.0
C364 C 0.9365 0.02611 0.32104 0.0
O365 O 0.89429 0.0333 0.35838 0.0
O366 O 0.9262 0.99724 0.36199 0.0
C367 C 0.96621 1.00165 0.39195 0.0
N368 N 0.98067 0.00541 0.37695 0.0
C369 C 0.02613 0.00756 0.39166 0.0
C370 C 0.01175 1.00348 0.40725 0.0
C371 C 0.98166 1.00056 0.40739 0.0
C372 C 0.00961 0.00829 0.37667 0.0
H373 H 0.94308 0.99964 0.39213 0.0
C374 C 0.90062 0.00755 0.36276 0.0
O375 O 0.88946 0.0937 0.34889 0.0
O376 O 0.91404 0.08697 0.37279 0.0
N377 N 1.00435 0.01534 0.34734 0.0
C378 C 0.0148 0.02048 0.33133 0.0
C379 C 0.04449 0.0245 0.32902 0.0
C380 C 0.06313 0.0231 0.34316 0.0
C381 C 0.05191 0.01753 0.35948 0.0
C382 C 0.02218 0.01336 0.36098 0.0
H383 H 1.00058 0.02165 0.32042 0.0
O384 O 0.95518 0.09183 0.34664 0.0
O385 O 0.95797 0.04864 0.35796 0.0
O386 O 0.92441 0.04874 0.32696 0.0
O387 O 0.95158 0.00907 0.33027 0.0
C388 C 0.06901 0.01646 0.37437 0.0
C389 C 0.05612 0.01153 0.39045 0.0
H390 H 0.02356 1.00282 0.4192 0.0
H391 H 0.97039 0.99759 0.41938 0.0
H392 H 0.05298 0.02881 0.31638 0.0
H393 H 0.08598 0.02654 0.34135 0.0
H394 H 0.09204 0.01979 0.37363 0.0
H395 H 0.06944 0.01116 0.40183 0.0
Mn396 Mn 0.69459 0.17027 0.1005 0.0
Mn397 Mn 0.75157 0.21486 0.10457 0.0
C398 C 0.68762 0.21938 0.10418 0.0
C399 C 0.65894 0.14093 0.11229 0.0
C400 C 0.7329 0.18924 0.07055 0.0
O401 O 0.72705 0.14251 0.10674 0.0
O402 O 0.76296 0.17467 0.11024 0.0
C403 C 0.76056 0.2105 0.14201 0.0
N404 N 0.75567 0.22688 0.12784 0.0
C405 C 0.75624 0.27041 0.14453 0.0
C406 C 0.76153 0.25403 0.15927 0.0
C407 C 0.76364 0.22395 0.158 0.0
C408 C 0.75367 0.25585 0.1289 0.0
H409 H 0.76203 0.18737 0.14112 0.0
C410 C 0.75297 0.14891 0.11072 0.0
O411 O 0.66664 0.13844 0.09639 0.0
O412 O 0.67283 0.15948 0.12154 0.0
N413 N 0.74314 0.25439 0.09979 0.0
C414 C 0.73523 0.26673 0.08468 0.0
C415 C 0.73077 0.29659 0.08392 0.0
C416 C 0.73454 0.31344 0.09868 0.0
C417 C 0.74271 0.30027 0.11408 0.0
C418 C 0.74707 0.27044 0.11403 0.0
H419 H 0.73198 0.25385 0.07335 0.0
O420 O 0.66793 0.20366 0.09704 0.0
O421 O 0.71097 0.20601 0.10872 0.0
O422 O 0.71135 0.17523 0.0763 0.0
O423 O 0.74924 0.20453 0.08004 0.0
C424 C 0.74586 0.31543 0.12959 0.0
C425 C 0.75263 0.30052 0.14479 0.0
H426 H 0.76365 0.26429 0.17166 0.0
H427 H 0.76752 0.21114 0.16934 0.0
H428 H 0.72426 0.30657 0.07202 0.0
H429 H 0.73074 0.33642 0.09809 0.0
H430 H 0.74256 0.3385 0.13002 0.0
H431 H 0.75448 0.31235 0.15669 0.0
Mn432 Mn 0.58801 0.06622 0.66274 0.0
Mn433 Mn 0.54446 0.00841 0.65974 0.0
C434 C 0.5385 0.07223 0.66104 0.0
C435 C 0.61559 0.10175 0.64928 0.0
C436 C 0.57333 0.02681 0.69297 0.0
O437 O 0.61565 0.03409 0.65571 0.0
O438 O 0.58388 0.99793 0.65205 0.0
C439 C 0.54398 1.0022 0.62203 0.0
N440 N 0.52945 0.00596 0.637 0.0
C441 C 0.48407 0.00811 0.6222 0.0
C442 C 0.49853 1.00402 0.60664 0.0
C443 C 0.52862 1.00109 0.60656 0.0
C444 C 0.50051 0.00884 0.63722 0.0
H445 H 0.56712 1.00018 0.62189 0.0
C446 C 0.60942 0.00832 0.65131 0.0
O447 O 0.62029 0.09454 0.66511 0.0
O448 O 0.59577 0.0876 0.64121 0.0
N449 N 0.50561 0.0159 0.66656 0.0
C450 C 0.49509 0.02107 0.68255 0.0
C451 C 0.46538 0.02511 0.6848 0.0
C452 C 0.44682 0.02371 0.67063 0.0
C453 C 0.45812 0.01811 0.65433 0.0
C454 C 0.48786 0.01391 0.65289 0.0
H455 H 0.50925 0.02226 0.69348 0.0
O456 O 0.55457 0.09247 0.66732 0.0
O457 O 0.55195 0.04926 0.65602 0.0
O458 O 0.58538 0.04947 0.68708 0.0
O459 O 0.55833 0.00973 0.68372 0.0
C460 C 0.4411 0.01705 0.63941 0.0
C461 C 0.45408 0.0121 0.62335 0.0
H462 H 0.48678 1.00336 0.59467 0.0
H463 H 0.53995 0.99811 0.59459 0.0
H464 H 0.45683 0.02945 0.69742 0.0
H465 H 0.42397 0.02717 0.67239 0.0
H466 H 0.41807 0.0204 0.64011 0.0
H467 H 0.44082 0.01173 0.61195 0.0
Mn468 Mn 0.69612 0.83902 0.4128 0.0
Mn469 Mn 0.75405 0.79554 0.41042 0.0
C470 C 0.69024 0.78949 0.41128 0.0
C471 C 0.66075 0.8664 0.39907 0.0
C472 C 0.73499 0.82481 0.44337 0.0
O473 O 0.72831 0.86665 0.40584 0.0
O474 O 0.76462 0.8349 0.40263 0.0
C475 C 0.76096 0.79466 0.37275 0.0
N476 N 0.75693 0.78029 0.38776 0.0
C477 C 0.75496 0.73475 0.37313 0.0
C478 C 0.75933 0.74904 0.35754 0.0
C479 C 0.76231 0.77913 0.35736 0.0
C480 C 0.75401 0.75135 0.38808 0.0
H481 H 0.76301 0.8178 0.37253 0.0
C482 C 0.75418 0.86042 0.40168 0.0
O483 O 0.66776 0.87126 0.41492 0.0
O484 O 0.67503 0.84653 0.39113 0.0
N485 N 0.74647 0.75676 0.41735 0.0
C486 C 0.74102 0.74641 0.43335 0.0
C487 C 0.73692 0.71673 0.4357 0.0
C488 C 0.73852 0.69801 0.42161 0.0
C489 C 0.74439 0.70914 0.4053 0.0
C490 C 0.74866 0.73886 0.40377 0.0
H491 H 0.73966 0.76069 0.44422 0.0
O492 O 0.66987 0.80559 0.41737 0.0
O493 O 0.71327 0.80292 0.40636 0.0
O494 O 0.71244 0.83674 0.43724 0.0
O495 O 0.75226 0.80969 0.43434 0.0
C496 C 0.74567 0.69197 0.39045 0.0
C497 C 0.7509 0.70477 0.37438 0.0
H498 H 0.76017 0.73717 0.34562 0.0
H499 H 0.7655 0.79033 0.34536 0.0
H500 H 0.73236 0.70831 0.44833 0.0
H501 H 0.735 0.67518 0.42344 0.0
H502 H 0.74226 0.66894 0.39122 0.0
H503 H 0.75143 0.69139 0.36303 0.0
Mn504 Mn 0.92001 0.94474 0.16352 0.0
Mn505 Mn 0.96379 1.00244 0.16037 0.0
C506 C 0.96929 0.93844 0.16036 0.0
C507 C 0.89115 0.90923 0.15114 0.0
C508 C 0.93645 0.98316 0.19383 0.0
O509 O 0.89214 0.9773 0.1573 0.0
O510 O 0.92416 0.01322 0.15326 0.0
C511 C 0.9632 0.01111 0.12282 0.0
N512 N 0.97813 0.00645 0.13757 0.0
C513 C 0.02326 0.00706 0.12249 0.0
C514 C 0.00838 0.01214 0.10717 0.0
C515 C 0.97822 0.01412 0.10734 0.0
C516 C 0.00716 1.00458 0.13757 0.0
H517 H 0.94001 0.01243 0.12287 0.0
C518 C 0.8985 1.00302 0.15278 0.0
O519 O 0.88827 0.91654 0.16708 0.0
O520 O 0.90984 0.92344 0.14217 0.0
N521 N 1.00279 0.99435 0.16661 0.0
C522 C 0.01361 0.98674 0.18218 0.0
C523 C 0.04334 0.98232 0.18402 0.0
C524 C 0.06163 0.98586 0.16986 0.0
C525 C 0.05001 0.9938 0.15399 0.0
C526 C 0.02023 0.99812 0.15295 0.0
H527 H 0.99964 0.98383 0.19308 0.0
O528 O 0.95356 0.91828 0.16702 0.0
O529 O 0.95574 0.96173 0.15593 0.0
O530 O 0.92433 0.96062 0.18792 0.0
O531 O 0.95091 1.00047 0.1845 0.0
C532 C 0.0667 0.99684 0.13904 0.0
C533 C 0.05335 1.0035 0.12331 0.0
H534 H 0.01986 0.01418 0.09516 0.0
H535 H 0.96656 0.01782 0.09554 0.0
H536 H 0.05213 0.97606 0.1963 0.0
H537 H 0.08451 0.98212 0.17129 0.0
H538 H 0.08977 0.99358 0.13945 0.0
H539 H 0.06635 0.00526 0.11186 0.0
Mn540 Mn 0.81529 0.17032 0.91377 0.0
Mn541 Mn 0.75831 0.2149 0.90963 0.0
C542 C 0.82227 0.21944 0.91007 0.0
C543 C 0.85092 0.14088 0.90204 0.0
C544 C 0.77689 0.18929 0.94367 0.0
O545 O 0.78284 0.14256 0.90752 0.0
O546 O 0.74694 0.17471 0.90393 0.0
C547 C 0.74942 0.21058 0.87218 0.0
N548 N 0.75428 0.22694 0.88636 0.0
C549 C 0.75374 0.27049 0.86968 0.0
C550 C 0.74848 0.25412 0.85493 0.0
C551 C 0.74637 0.22404 0.85619 0.0
C552 C 0.75627 0.25591 0.88531 0.0
H553 H 0.74794 0.18744 0.87306 0.0
C554 C 0.75693 0.14895 0.90348 0.0
O555 O 0.84319 0.13847 0.91794 0.0
O556 O 0.83711 0.15945 0.89276 0.0
N557 N 0.76674 0.25442 0.91443 0.0
C558 C 0.77464 0.26675 0.92954 0.0
C559 C 0.7791 0.29661 0.93031 0.0
C560 C 0.77537 0.31347 0.91556 0.0
C561 C 0.76722 0.30031 0.90015 0.0
C562 C 0.76285 0.27049 0.90018 0.0
H563 H 0.77786 0.25385 0.94087 0.0
O564 O 0.84195 0.20373 0.91723 0.0
O565 O 0.79894 0.20605 0.90551 0.0
O566 O 0.79847 0.17532 0.93795 0.0
O567 O 0.76056 0.20455 0.93416 0.0
C568 C 0.7641 0.3155 0.88465 0.0
C569 C 0.75735 0.3006 0.86943 0.0
H570 H 0.74639 0.26439 0.84254 0.0
H571 H 0.74251 0.21124 0.84484 0.0
H572 H 0.7856 0.30657 0.94222 0.0
H573 H 0.77917 0.33645 0.91615 0.0
H574 H 0.76741 0.33856 0.88422 0.0
H575 H 0.75553 0.31244 0.85753 0.0
Mn576 Mn 0.91969 0.56584 0.66171 0.0
Mn577 Mn 0.96328 0.5081 0.65843 0.0
C578 C 0.96915 0.57188 0.66 0.0
C579 C 0.8921 0.60162 0.64847 0.0
C580 C 0.93463 0.52612 0.69177 0.0
O581 O 0.89202 0.53379 0.65457 0.0
O582 O 0.92382 0.49769 0.65077 0.0
C583 C 0.9635 0.50232 0.62069 0.0
N584 N 0.97813 0.50593 0.63565 0.0
C585 C 0.02341 0.50827 0.62078 0.0
C586 C 0.00885 0.50435 0.60523 0.0
C587 C 0.97876 0.50141 0.60519 0.0
C588 C 0.00707 0.50882 0.63584 0.0
H589 H 0.94036 0.5003 0.62058 0.0
C590 C 0.89826 0.50807 0.65008 0.0
O591 O 0.88744 0.59416 0.66426 0.0
O592 O 0.91183 0.58752 0.6403 0.0
N593 N 1.00218 0.51553 0.66521 0.0
C594 C 0.01281 0.52049 0.6812 0.0
C595 C 0.04253 0.5245 0.68342 0.0
C596 C 0.061 0.52329 0.66921 0.0
C597 C 0.04958 0.5179 0.65291 0.0
C598 C 0.01983 0.51371 0.6515 0.0
H599 H 0.99873 0.52153 0.69217 0.0
O600 O 0.95312 0.59204 0.66639 0.0
O601 O 0.95571 0.54897 0.65488 0.0
O602 O 0.92246 0.5488 0.68598 0.0
O603 O 0.9496 0.50916 0.68244 0.0
C604 C 0.0665 0.51702 0.63795 0.0
C605 C 0.05341 0.51226 0.6219 0.0
H606 H 0.02052 0.50384 0.59323 0.0
H607 H 0.96735 0.49856 0.59323 0.0
H608 H 0.05117 0.52867 0.69605 0.0
H609 H 0.08386 0.52673 0.67095 0.0
H610 H 0.08954 0.52037 0.63862 0.0
H611 H 0.0666 0.51204 0.61047 0.0
Mn612 Mn 0.69649 0.67043 0.91289 0.0
Mn613 Mn 0.75455 0.71367 0.90952 0.0
C614 C 0.69056 0.71979 0.90979 0.0
C615 C 0.66065 0.64185 0.90066 0.0
C616 C 0.73543 0.68646 0.94305 0.0
O617 O 0.72867 0.64226 0.90654 0.0
O618 O 0.76488 0.6739 0.90243 0.0
C619 C 0.76286 0.7129 0.87195 0.0
N620 N 0.75844 0.72791 0.88669 0.0
C621 C 0.75928 0.773 0.87154 0.0
C622 C 0.76408 0.75803 0.85622 0.0
C623 C 0.76583 0.72785 0.85643 0.0
C624 C 0.75683 0.75697 0.88665 0.0
H625 H 0.76403 0.68969 0.87204 0.0
C626 C 0.75442 0.64834 0.90199 0.0
O627 O 0.66809 0.63893 0.91658 0.0
O628 O 0.67486 0.66048 0.89163 0.0
N629 N 0.74689 0.75277 0.91574 0.0
C630 C 0.73954 0.7637 0.93132 0.0
C631 C 0.73539 0.79348 0.93313 0.0
C632 C 0.73893 0.81169 0.91893 0.0
C633 C 0.7466 0.79996 0.90305 0.0
C634 C 0.75065 0.77014 0.90204 0.0
H635 H 0.73663 0.74978 0.94225 0.0
O636 O 0.67038 0.7042 0.91652 0.0
O637 O 0.71369 0.70605 0.90523 0.0
O638 O 0.71274 0.67454 0.93721 0.0
O639 O 0.75272 0.70086 0.93367 0.0
C640 C 0.74961 0.81658 0.88807 0.0
C641 C 0.75598 0.80312 0.87233 0.0
H642 H 0.76609 0.76946 0.8442 0.0
H643 H 0.76933 0.71613 0.84465 0.0
H644 H 0.72934 0.80235 0.94541 0.0
H645 H 0.7354 0.83461 0.92034 0.0
H646 H 0.74655 0.83968 0.88845 0.0
H647 H 0.75773 0.81608 0.86085 0.0
Mn648 Mn 0.58894 0.44496 0.16368 0.0
Mn649 Mn 0.5457 0.50276 0.1592 0.0
C650 C 0.53954 0.439 0.16103 0.0
C651 C 0.61737 0.40865 0.15184 0.0
C652 C 0.57305 0.48555 0.19309 0.0
O653 O 0.6171 0.47683 0.15677 0.0
O654 O 0.58541 0.51269 0.15186 0.0
C655 C 0.54658 0.5075 0.12141 0.0
N656 N 0.53151 0.50442 0.13625 0.0
C657 C 0.48663 0.50206 0.12093 0.0
C658 C 0.50165 0.50548 0.1055 0.0
C659 C 0.53175 0.50816 0.10575 0.0
C660 C 0.50254 0.50176 0.13615 0.0
H661 H 0.56973 0.5093 0.12152 0.0
C662 C 0.61099 0.50232 0.15172 0.0
O663 O 0.6205 0.41666 0.16766 0.0
O664 O 0.5986 0.42249 0.14272 0.0
N665 N 0.50659 0.49566 0.16563 0.0
C666 C 0.49549 0.49108 0.18153 0.0
C667 C 0.46568 0.4873 0.18348 0.0
C668 C 0.44762 0.48836 0.16907 0.0
C669 C 0.45951 0.49335 0.15285 0.0
C670 C 0.48932 0.4973 0.15172 0.0
H671 H 0.50926 0.49015 0.19266 0.0
O672 O 0.55518 0.41897 0.16789 0.0
O673 O 0.5533 0.46176 0.15596 0.0
O674 O 0.5849 0.46253 0.18764 0.0
O675 O 0.55867 0.50249 0.18342 0.0
C676 C 0.44301 0.49402 0.13771 0.0
C677 C 0.45657 0.49833 0.12176 0.0
H678 H 0.49031 0.50579 0.09338 0.0
H679 H 0.54352 0.5106 0.09388 0.0
H680 H 0.45667 0.48343 0.19604 0.0
H681 H 0.42468 0.4851 0.17059 0.0
H682 H 0.41994 0.49085 0.13817 0.0
H683 H 0.4437 0.49838 0.1102 0.0
Mn684 Mn 0.81528 0.33904 0.41272 0.0
Mn685 Mn 0.75762 0.29534 0.40957 0.0
C686 C 0.82141 0.28956 0.41103 0.0
C687 C 0.85098 0.36673 0.39956 0.0
C688 C 0.77566 0.32436 0.44282 0.0
O689 O 0.78316 0.3666 0.40551 0.0
O690 O 0.74713 0.33469 0.40174 0.0
C691 C 0.75174 0.29464 0.37184 0.0
N692 N 0.7554 0.2802 0.38685 0.0
C693 C 0.75783 0.23474 0.37216 0.0
C694 C 0.75383 0.24911 0.35656 0.0
C695 C 0.75081 0.27919 0.3564 0.0
C696 C 0.75837 0.25127 0.38715 0.0
H697 H 0.74967 0.31778 0.37163 0.0
C698 C 0.75748 0.36026 0.40098 0.0
O699 O 0.84343 0.37135 0.41534 0.0
O700 O 0.83701 0.34694 0.39134 0.0
N701 N 0.76518 0.25654 0.4165 0.0
C702 C 0.77032 0.24612 0.43252 0.0
C703 C 0.77449 0.21645 0.43485 0.0
C704 C 0.77326 0.1978 0.42072 0.0
C705 C 0.76771 0.20899 0.40438 0.0
C706 C 0.76337 0.23871 0.40286 0.0
H707 H 0.7714 0.26035 0.44343 0.0
O708 O 0.84153 0.30565 0.41742 0.0
O709 O 0.79846 0.30296 0.40593 0.0
O710 O 0.79832 0.3364 0.43696 0.0
O711 O 0.75865 0.30931 0.43355 0.0
C712 C 0.76683 0.1919 0.38949 0.0
C713 C 0.76194 0.20477 0.37339 0.0
H714 H 0.75332 0.23729 0.34461 0.0
H715 H 0.74791 0.29045 0.34439 0.0
H716 H 0.7788 0.20798 0.4475 0.0
H717 H 0.77682 0.17497 0.42254 0.0
H718 H 0.77029 0.16888 0.39025 0.0
H719 H 0.76172 0.19145 0.36201 0.0
Mn720 Mn 0.92114 0.44393 0.8492 0.0
Mn721 Mn 0.96456 0.50191 0.85232 0.0
C722 C 0.97048 0.43794 0.85234 0.0
C723 C 0.89256 0.40822 0.86157 0.0
C724 C 0.93727 0.48244 0.81887 0.0
O725 O 0.89305 0.47629 0.85544 0.0
O726 O 0.92485 0.51244 0.85935 0.0
C727 C 0.96382 0.51075 0.88985 0.0
N728 N 0.97882 0.50609 0.87513 0.0
C729 C 0.02391 0.50708 0.89028 0.0
C730 C 0.00896 0.51213 0.90558 0.0
C731 C 0.97878 0.51392 0.90536 0.0
C732 C 0.00786 0.50443 0.87519 0.0
H733 H 0.94063 0.51194 0.88976 0.0
C734 C 0.89926 0.50209 0.85987 0.0
O735 O 0.8896 0.41551 0.84563 0.0
O736 O 0.91117 0.42254 0.87055 0.0
N737 N 1.00364 0.49407 0.84615 0.0
C738 C 0.01454 0.48648 0.8306 0.0
C739 C 0.04431 0.48226 0.82882 0.0
C740 C 0.06254 0.48598 0.84299 0.0
C741 C 0.05082 0.49389 0.85885 0.0
C742 C 0.02102 0.498 0.85983 0.0
H743 H 1.00061 0.48344 0.81969 0.0
O744 O 0.95486 0.4177 0.84568 0.0
O745 O 0.95679 0.46115 0.85679 0.0
O746 O 0.92525 0.45987 0.82481 0.0
O747 O 0.95174 0.49979 0.82818 0.0
C748 C 0.06746 0.49711 0.87381 0.0
C749 C 0.05402 0.50373 0.88951 0.0
H750 H 0.0204 0.5143 0.91759 0.0
H751 H 0.96708 0.51761 0.91713 0.0
H752 H 0.05317 0.47603 0.81656 0.0
H753 H 0.08545 0.4824 0.84161 0.0
H754 H 0.09056 0.49401 0.87344 0.0
H755 H 0.06699 0.50563 0.90098 0.0
Mn756 Mn 0.81565 0.67024 0.10114 0.0
Mn757 Mn 0.75759 0.71371 0.10331 0.0
C758 C 0.82157 0.71971 0.10353 0.0
C759 C 0.85089 0.64239 0.1147 0.0
C760 C 0.77775 0.68541 0.07031 0.0
O761 O 0.78327 0.64243 0.10758 0.0
O762 O 0.74681 0.67411 0.11056 0.0
C763 C 0.74793 0.71373 0.14076 0.0
N764 N 0.75296 0.72843 0.12598 0.0
C765 C 0.75182 0.77382 0.14079 0.0
C766 C 0.74641 0.75918 0.15615 0.0
C767 C 0.7445 0.72901 0.15613 0.0
C768 C 0.75471 0.75747 0.12583 0.0
H769 H 0.7466 0.69054 0.14082 0.0
C770 C 0.75727 0.64859 0.11151 0.0
O771 O 0.84407 0.63811 0.09877 0.0
O772 O 0.83641 0.6619 0.12284 0.0
N773 N 0.76555 0.75265 0.09689 0.0
C774 C 0.7734 0.76324 0.08132 0.0
C775 C 0.77772 0.79296 0.07934 0.0
C776 C 0.77383 0.81148 0.09336 0.0
C777 C 0.76563 0.80009 0.10925 0.0
C778 C 0.76144 0.77031 0.11042 0.0
H779 H 0.77659 0.74909 0.07052 0.0
O780 O 0.84193 0.70382 0.09723 0.0
O781 O 0.79829 0.70618 0.10801 0.0
O782 O 0.80007 0.67321 0.07652 0.0
O783 O 0.7604 0.70035 0.07935 0.0
C784 C 0.76221 0.81703 0.12407 0.0
C785 C 0.75528 0.80391 0.13982 0.0
H786 H 0.74405 0.77087 0.16807 0.0
H787 H 0.74052 0.71755 0.16796 0.0
H788 H 0.78416 0.80157 0.06705 0.0
H789 H 0.77748 0.83436 0.09183 0.0
H790 H 0.76537 0.84011 0.12355 0.0
H791 H 0.7532 0.81711 0.15118 0.0
Mn792 Mn 0.59018 0.56593 0.35127 0.0
Mn793 Mn 0.54612 0.5083 0.35319 0.0
C794 C 0.54084 0.57232 0.35388 0.0
C795 C 0.61849 0.60058 0.36504 0.0
C796 C 0.57428 0.52886 0.32024 0.0
O797 O 0.61768 0.5331 0.35734 0.0
O798 O 0.58565 0.49693 0.36026 0.0
C799 C 0.54628 0.49791 0.39058 0.0
N800 N 0.53153 0.50339 0.37587 0.0
C801 C 0.48625 0.50251 0.39079 0.0
C802 C 0.50095 0.49664 0.40608 0.0
C803 C 0.53109 0.49438 0.40597 0.0
C804 C 0.50251 0.50549 0.37581 0.0
H805 H 0.56946 0.49633 0.39057 0.0
C806 C 0.61129 0.50709 0.36114 0.0
O807 O 0.62257 0.5941 0.34904 0.0
O808 O 0.59894 0.58608 0.37312 0.0
N809 N 0.50722 0.51682 0.34693 0.0
C810 C 0.4966 0.52507 0.33143 0.0
C811 C 0.46691 0.52975 0.32955 0.0
C812 C 0.44847 0.52581 0.3436 0.0
C813 C 0.45989 0.5172 0.3594 0.0
C814 C 0.48963 0.51265 0.36048 0.0
H815 H 0.51069 0.52828 0.32061 0.0
O816 O 0.55686 0.59268 0.34769 0.0
O817 O 0.55417 0.5488 0.35813 0.0
O818 O 0.58675 0.55096 0.32653 0.0
O819 O 0.55932 0.51145 0.32923 0.0
C820 C 0.44304 0.5137 0.37425 0.0
C821 C 0.4562 0.50632 0.38992 0.0
H822 H 0.48934 0.49419 0.41801 0.0
H823 H 0.5426 0.49004 0.41774 0.0
H824 H 0.45828 0.53651 0.31733 0.0
H825 H 0.42563 0.52975 0.34215 0.0
H826 H 0.42 0.51713 0.37381 0.0
H827 H 0.44308 0.50418 0.40131 0.0
Mn828 Mn 0.6936 0.33945 0.60022 0.0
Mn829 Mn 0.75147 0.29598 0.60325 0.0
C830 C 0.68769 0.28996 0.60215 0.0
C831 C 0.65795 0.36709 0.61348 0.0
C832 C 0.73281 0.32449 0.56997 0.0
O833 O 0.7257 0.36723 0.60715 0.0
O834 O 0.76195 0.33551 0.61074 0.0
C835 C 0.75804 0.296 0.64094 0.0
N836 N 0.75413 0.28127 0.62605 0.0
C837 C 0.75207 0.23608 0.64105 0.0
C838 C 0.75632 0.25075 0.65654 0.0
C839 C 0.75928 0.28084 0.65648 0.0
C840 C 0.75123 0.25233 0.62596 0.0
H841 H 0.76008 0.31914 0.64098 0.0
C842 C 0.75153 0.36105 0.61147 0.0
O843 O 0.66524 0.3716 0.59765 0.0
O844 O 0.67215 0.34747 0.62169 0.0
N845 N 0.74394 0.25703 0.59662 0.0
C846 C 0.73863 0.2463 0.58069 0.0
C847 C 0.73455 0.21657 0.57858 0.0
C848 C 0.73604 0.19819 0.59283 0.0
C849 C 0.74178 0.20971 0.60907 0.0
C850 C 0.74602 0.23946 0.61036 0.0
H851 H 0.73735 0.26032 0.5697 0.0
O852 O 0.66742 0.3059 0.59579 0.0
O853 O 0.71066 0.30351 0.60708 0.0
O854 O 0.71024 0.33661 0.5759 0.0
O855 O 0.74995 0.30953 0.5792 0.0
C856 C 0.74294 0.19289 0.62406 0.0
C857 C 0.74804 0.20607 0.64004 0.0
H858 H 0.75707 0.23915 0.66856 0.0
H859 H 0.76237 0.29232 0.66839 0.0
H860 H 0.7301 0.20785 0.56601 0.0
H861 H 0.73254 0.17531 0.59118 0.0
H862 H 0.73955 0.16985 0.62347 0.0
H863 H 0.74848 0.19297 0.65151 0.0
Mn864 Mn 0.09008 0.44445 0.35162 0.0
Mn865 Mn 0.04656 0.50203 0.35629 0.0
C866 C 0.04083 0.43818 0.35462 0.0
C867 C 0.11914 0.40854 0.36333 0.0
C868 C 0.07282 0.48448 0.3222 0.0
O869 O 0.11821 0.47655 0.35816 0.0
O870 O 0.08645 0.51228 0.36315 0.0
C871 C 0.04868 0.50722 0.39404 0.0
N872 N 0.03314 0.50388 0.37939 0.0
C873 C 0.98877 0.50161 0.39521 0.0
C874 C 1.00429 0.50526 0.41045 0.0
C875 C 0.03437 0.50803 0.40986 0.0
C876 C 1.00419 0.50114 0.37981 0.0
H877 H 0.07182 0.50914 0.39366 0.0
C878 C 0.11209 0.50206 0.36313 0.0
O879 O 0.12176 0.41642 0.34746 0.0
O880 O 0.10049 0.42229 0.37257 0.0
N881 N 0.00727 0.49475 0.35032 0.0
C882 C 0.99563 0.49016 0.33454 0.0
C883 C 0.96576 0.4864 0.33294 0.0
C884 C 0.94818 0.48752 0.34754 0.0
C885 C 0.96061 0.49259 0.36362 0.0
C886 C 0.99046 0.49651 0.36441 0.0
H887 H 0.00902 0.48921 0.32327 0.0
O888 O 0.05648 0.41817 0.34777 0.0
O889 O 0.05449 0.46108 0.35958 0.0
O890 O 0.08516 0.4617 0.32762 0.0
O891 O 0.05869 0.50148 0.33194 0.0
C892 C 0.94462 0.49341 0.37893 0.0
C893 C 0.95869 0.49786 0.39471 0.0
H894 H 0.99335 0.50571 0.42269 0.0
H895 H 0.04652 0.51068 0.42158 0.0
H896 H 0.95633 0.4825 0.32048 0.0
H897 H 0.9252 0.48429 0.34628 0.0
H898 H 0.92152 0.49026 0.37873 0.0
H899 H 0.94621 0.49805 0.40641 0.0
Mn900 Mn 0.31457 0.34104 0.10089 0.0
Mn901 Mn 0.25578 0.29846 0.10267 0.0
C902 C 0.31966 0.29154 0.10332 0.0
C903 C 0.35018 0.36837 0.1145 0.0
C904 C 0.27718 0.3257 0.06973 0.0
O905 O 0.28271 0.36937 0.10727 0.0
O906 O 0.24523 0.33863 0.10895 0.0
C907 C 0.24479 0.30062 0.13996 0.0
N908 N 0.25011 0.28505 0.12554 0.0
C909 C 0.24787 0.24052 0.14121 0.0
C910 C 0.24218 0.25607 0.15621 0.0
C911 C 0.24068 0.28625 0.15558 0.0
C912 C 0.25147 0.256 0.12598 0.0
H913 H 0.24376 0.32382 0.13955 0.0
C914 C 0.25621 0.3639 0.11019 0.0
O915 O 0.34351 0.37269 0.09855 0.0
O916 O 0.33539 0.34908 0.12263 0.0
N917 N 0.26324 0.25907 0.09709 0.0
C918 C 0.27127 0.24751 0.08179 0.0
C919 C 0.27511 0.21762 0.08042 0.0
C920 C 0.27053 0.19995 0.09475 0.0
C921 C 0.26211 0.21232 0.11033 0.0
C922 C 0.25842 0.24222 0.1109 0.0
H923 H 0.27498 0.26103 0.07076 0.0
O924 O 0.34029 0.3071 0.09704 0.0
O925 O 0.29652 0.3054 0.10775 0.0
O926 O 0.29908 0.33832 0.07618 0.0
O927 O 0.25976 0.31054 0.07858 0.0
C928 C 0.25799 0.19626 0.12543 0.0
C929 C 0.25086 0.21035 0.14085 0.0
H930 H 0.23926 0.24509 0.16832 0.0
H931 H 0.23646 0.29841 0.16713 0.0
H932 H 0.28171 0.20824 0.06837 0.0
H933 H 0.27382 0.17694 0.09369 0.0
H934 H 0.26076 0.17311 0.12539 0.0
H935 H 0.24822 0.19781 0.15244 0.0
Mn936 Mn 0.42205 0.56643 0.84922 0.0
Mn937 Mn 0.46563 0.5086 0.85254 0.0
C938 C 0.47126 0.57263 0.85277 0.0
C939 C 0.39294 0.60177 0.8615 0.0
C940 C 0.43921 0.52838 0.81891 0.0
O941 O 0.39397 0.53391 0.85507 0.0
O942 O 0.42577 0.49784 0.85916 0.0
C943 C 0.46389 0.4994 0.89002 0.0
N944 N 0.47927 0.50426 0.87547 0.0
C945 C 0.52395 0.50323 0.89105 0.0
C946 C 0.5086 0.49799 0.90618 0.0
C947 C 0.47844 0.49613 0.90566 0.0
C948 C 0.50831 0.506 0.87581 0.0
H949 H 0.4407 0.49812 0.8897 0.0
C950 C 0.40013 0.50809 0.85946 0.0
O951 O 0.39044 0.5947 0.8455 0.0
O952 O 0.41145 0.58747 0.87057 0.0
N953 N 0.50484 0.5166 0.84676 0.0
C954 C 0.51616 0.5243 0.83134 0.0
C955 C 0.54596 0.52857 0.82985 0.0
C956 C 0.56381 0.52477 0.84419 0.0
C957 C 0.55169 0.51672 0.85991 0.0
C958 C 0.52186 0.51257 0.8606 0.0
H959 H 0.50253 0.5274 0.8203 0.0
O960 O 0.45568 0.59288 0.84609 0.0
O961 O 0.45761 0.54931 0.85705 0.0
O962 O 0.4269 0.55082 0.8248 0.0
O963 O 0.45346 0.51096 0.82829 0.0
C964 C 0.56793 0.5134 0.87502 0.0
C965 C 0.55407 0.50663 0.89057 0.0
H966 H 0.51972 0.49573 0.91829 0.0
H967 H 0.46643 0.49228 0.9173 0.0
H968 H 0.55515 0.5349 0.8177 0.0
H969 H 0.58676 0.52838 0.84303 0.0
H970 H 0.59102 0.51652 0.87488 0.0
H971 H 0.56673 0.50464 0.90216 0.0
Mn972 Mn 0.19358 0.67212 0.60102 0.0
Mn973 Mn 0.25146 0.71551 0.60421 0.0
C974 C 0.18767 0.72158 0.60305 0.0
C975 C 0.15804 0.64433 0.61428 0.0
C976 C 0.23281 0.68733 0.57082 0.0
O977 O 0.22565 0.64428 0.60789 0.0
O978 O 0.2619 0.67592 0.61165 0.0
C979 C 0.25792 0.71528 0.64191 0.0
N980 N 0.25406 0.73009 0.62704 0.0
C981 C 0.25199 0.7752 0.64212 0.0
C982 C 0.25617 0.76045 0.65758 0.0
C983 C 0.25912 0.73036 0.65747 0.0
C984 C 0.25119 0.75904 0.627 0.0
H985 H 0.25996 0.69214 0.64191 0.0
C986 C 0.25144 0.65038 0.6123 0.0
O987 O 0.16524 0.63994 0.59842 0.0
O988 O 0.17221 0.66396 0.6225 0.0
N989 N 0.244 0.7545 0.59764 0.0
C990 C 0.23876 0.76533 0.58173 0.0
C991 C 0.23471 0.79508 0.57966 0.0
C992 C 0.23616 0.81337 0.59395 0.0
C993 C 0.24183 0.80176 0.61017 0.0
C994 C 0.24604 0.77199 0.61142 0.0
H995 H 0.23751 0.75137 0.5707 0.0
O996 O 0.16739 0.70569 0.59667 0.0
O997 O 0.21063 0.70801 0.60796 0.0
O998 O 0.2102 0.67517 0.57669 0.0
O999 O 0.24999 0.7021 0.58013 0.0
C1000 C 0.24295 0.81849 0.6252 0.0
C1001 C 0.24798 0.80522 0.64117 0.0
H1002 H 0.25689 0.77198 0.66963 0.0
H1003 H 0.26217 0.71881 0.66937 0.0
H1004 H 0.23031 0.80387 0.56711 0.0
H1005 H 0.23269 0.83626 0.59234 0.0
H1006 H 0.23958 0.84154 0.62465 0.0
H1007 H 0.2484 0.81826 0.65265 0.0
Mn1008 Mn 0.08909 0.56618 0.1649 0.0
Mn1009 Mn 0.04643 0.50775 0.16094 0.0
C1010 C 0.03985 0.57156 0.1615 0.0
C1011 C 0.11776 0.60219 0.15295 0.0
C1012 C 0.07125 0.52741 0.19494 0.0
O1013 O 0.11782 0.53442 0.15886 0.0
O1014 O 0.08692 0.49741 0.15547 0.0
C1015 C 0.05139 0.50007 0.12344 0.0
N1016 N 0.03474 0.50424 0.13757 0.0
C1017 C 0.9916 0.50532 0.12052 0.0
C1018 C 0.00827 0.50084 0.1058 0.0
C1019 C 0.03828 0.49824 0.10727 0.0
C1020 C 0.00585 0.50681 0.1363 0.0
H1021 H 0.07447 0.49827 0.12449 0.0
C1022 C 0.11234 0.50816 0.15521 0.0
O1023 O 0.12026 0.59487 0.16892 0.0
O1024 O 0.09946 0.58786 0.14376 0.0
N1025 N 0.00666 0.51484 0.1657 0.0
C1026 C 0.99381 0.52003 0.18106 0.0
C1027 C 0.96382 0.52355 0.18179 0.0
C1028 C 0.94737 0.52158 0.16675 0.0
C1029 C 0.96104 0.51584 0.15112 0.0
C1030 C 0.99094 0.51217 0.15121 0.0
H1031 H 0.00635 0.52165 0.19266 0.0
O1032 O 0.05508 0.592 0.16826 0.0
O1033 O 0.0539 0.54866 0.15691 0.0
O1034 O 0.08417 0.54961 0.18912 0.0
O1035 O 0.05688 0.51016 0.18547 0.0
C1036 C 0.94622 0.51407 0.13541 0.0
C1037 C 0.9615 0.50888 0.12012 0.0
H1038 H 0.99826 0.49958 0.09329 0.0
H1039 H 0.0513 0.49493 0.09596 0.0
H1040 H 0.95343 0.52795 0.1939 0.0
H1041 H 0.92428 0.52465 0.16733 0.0
H1042 H 0.92311 0.51702 0.13493 0.0
H1043 H 0.9499 0.50792 0.1081 0.0
Mn1044 Mn 0.19627 0.34083 0.9123 0.0
Mn1045 Mn 0.25417 0.29735 0.90897 0.0
C1046 C 0.19018 0.29145 0.9095 0.0
C1047 C 0.16036 0.36929 0.90001 0.0
C1048 C 0.23544 0.32509 0.94242 0.0
O1049 O 0.22848 0.36881 0.90571 0.0
O1050 O 0.26456 0.33698 0.90165 0.0
C1051 C 0.26209 0.2976 0.87137 0.0
N1052 N 0.2578 0.28279 0.88619 0.0
C1053 C 0.25837 0.2375 0.87126 0.0
C1054 C 0.26306 0.25225 0.85585 0.0
C1055 C 0.26486 0.28243 0.85591 0.0
C1056 C 0.25611 0.25374 0.8863 0.0
H1057 H 0.26329 0.3208 0.87133 0.0
C1058 C 0.25418 0.36257 0.90112 0.0
O1059 O 0.16795 0.37246 0.91589 0.0
O1060 O 0.17447 0.35051 0.89104 0.0
N1061 N 0.24646 0.25835 0.9154 0.0
C1062 C 0.23924 0.24765 0.93105 0.0
C1063 C 0.23505 0.21791 0.93302 0.0
C1064 C 0.23841 0.19949 0.91891 0.0
C1065 C 0.24594 0.211 0.90294 0.0
C1066 C 0.25006 0.24079 0.90177 0.0
H1067 H 0.23648 0.26172 0.94193 0.0
O1068 O 0.17009 0.3072 0.9162 0.0
O1069 O 0.2133 0.30504 0.90478 0.0
O1070 O 0.21275 0.33702 0.93658 0.0
O1071 O 0.2526 0.31049 0.93306 0.0
C1072 C 0.24877 0.19416 0.88803 0.0
C1073 C 0.25502 0.2074 0.87221 0.0
H1074 H 0.26491 0.24066 0.84387 0.0
H1075 H 0.26826 0.29399 0.84405 0.0
H1076 H 0.22911 0.20921 0.94537 0.0
H1077 H 0.23485 0.1766 0.92044 0.0
H1078 H 0.24567 0.17107 0.88853 0.0
H1079 H 0.25662 0.19428 0.86079 0.0
Mn1080 Mn 0.41921 0.44482 0.66229 0.0
Mn1081 Mn 0.46303 0.50219 0.65766 0.0
C1082 C 0.46843 0.43831 0.65918 0.0
C1083 C 0.38995 0.40909 0.65047 0.0
C1084 C 0.43672 0.48467 0.69175 0.0
O1085 O 0.39124 0.47714 0.65587 0.0
O1086 O 0.42319 0.5127 0.65086 0.0
C1087 C 0.46085 0.50755 0.61991 0.0
N1088 N 0.47641 0.50406 0.63455 0.0
C1089 C 0.52073 0.50165 0.6187 0.0
C1090 C 0.5052 0.50545 0.60347 0.0
C1091 C 0.47513 0.50836 0.60408 0.0
C1092 C 0.50534 0.50118 0.6341 0.0
H1093 H 0.43772 0.50957 0.62031 0.0
C1094 C 0.39748 0.50265 0.65094 0.0
O1095 O 0.38738 0.41684 0.66637 0.0
O1096 O 0.40864 0.42286 0.64128 0.0
N1097 N 0.50229 0.49466 0.66358 0.0
C1098 C 0.51394 0.48992 0.67934 0.0
C1099 C 0.54379 0.48601 0.68092 0.0
C1100 C 0.56135 0.48713 0.66631 0.0
C1101 C 0.54891 0.49233 0.65025 0.0
C1102 C 0.51908 0.49641 0.64949 0.0
H1103 H 0.50056 0.48898 0.69062 0.0
O1104 O 0.45271 0.41834 0.66602 0.0
O1105 O 0.45485 0.46131 0.65432 0.0
O1106 O 0.42428 0.46193 0.68632 0.0
O1107 O 0.45093 0.5016 0.682 0.0
C1108 C 0.56488 0.49316 0.63493 0.0
C1109 C 0.5508 0.49775 0.61916 0.0
H1110 H 0.51612 0.5059 0.59122 0.0
H1111 H 0.46298 0.51111 0.59238 0.0
H1112 H 0.55322 0.482 0.69336 0.0
H1113 H 0.58432 0.48378 0.66755 0.0
H1114 H 0.58796 0.48989 0.63511 0.0
H1115 H 0.56326 0.49794 0.60745 0.0
Mn1116 Mn 0.31613 0.6709 0.41396 0.0
Mn1117 Mn 0.25834 0.7142 0.40971 0.0
C1118 C 0.32214 0.72022 0.41095 0.0
C1119 C 0.352 0.64216 0.40194 0.0
C1120 C 0.2764 0.68755 0.44364 0.0
O1121 O 0.28405 0.64269 0.40749 0.0
O1122 O 0.24811 0.67435 0.40276 0.0
C1123 C 0.25249 0.71249 0.37198 0.0
N1124 N 0.25609 0.72788 0.38666 0.0
C1125 C 0.25828 0.7724 0.37097 0.0
C1126 C 0.25436 0.75704 0.35569 0.0
C1127 C 0.25149 0.72696 0.35621 0.0
C1128 C 0.2589 0.75683 0.38632 0.0
H1129 H 0.25052 0.68935 0.37229 0.0
C1130 C 0.25844 0.64874 0.40266 0.0
O1131 O 0.34443 0.63932 0.41785 0.0
O1132 O 0.33798 0.66083 0.39285 0.0
N1133 N 0.26571 0.75344 0.41576 0.0
C1134 C 0.2707 0.7649 0.43155 0.0
C1135 C 0.27465 0.79473 0.43322 0.0
C1136 C 0.27335 0.81247 0.41868 0.0
C1137 C 0.26793 0.80022 0.40259 0.0
C1138 C 0.26381 0.77039 0.40174 0.0
H1139 H 0.27181 0.75138 0.44277 0.0
O1140 O 0.3423 0.70465 0.41773 0.0
O1141 O 0.29922 0.70644 0.40616 0.0
O1142 O 0.29921 0.67545 0.43807 0.0
O1143 O 0.25926 0.70178 0.43401 0.0
C1144 C 0.26698 0.81636 0.38733 0.0
C1145 C 0.2622 0.80246 0.37153 0.0
H1146 H 0.25378 0.7681 0.34349 0.0
H1147 H 0.24864 0.71493 0.34446 0.0
H1148 H 0.27885 0.80402 0.44567 0.0
H1149 H 0.27675 0.83542 0.41999 0.0
H1150 H 0.27028 0.83943 0.38758 0.0
H1151 H 0.26192 0.81505 0.35987 0.0
H1152 H 0.45201 0.03348 0.30391 0.0
H1153 H 0.41674 0.94896 0.29423 0.0
H1154 H 0.44976 0.0443 0.27343 0.0
H1155 H 0.41445 0.95996 0.26367 0.0
H1156 H 0.45153 0.97848 0.20956 0.0
H1157 H 0.44961 0.96788 0.24007 0.0
H1158 H 0.4147 0.05239 0.24975 0.0
H1159 H 0.41664 0.06318 0.21915 0.0
C1160 C 0.44361 0.01722 0.29532 0.0
C1161 C 0.43464 0.99027 0.30161 0.0
C1162 C 0.44216 0.02354 0.27782 0.0
C1163 C 0.43196 1.003 0.26609 0.0
C1164 C 0.42267 0.97617 0.27235 0.0
C1165 C 0.42384 0.96993 0.2899 0.0
C1166 C 0.44334 0.99484 0.21814 0.0
C1167 C 0.43431 0.02176 0.21182 0.0
C1168 C 0.44206 0.98864 0.23565 0.0
C1169 C 0.43198 0.00926 0.24737 0.0
C1170 C 0.42279 0.03612 0.24108 0.0
C1171 C 0.42378 0.04224 0.22351 0.0
H1172 H 0.22749 0.19988 0.55244 0.0
H1173 H 0.31236 0.1643 0.54443 0.0
H1174 H 0.21786 0.19667 0.5219 0.0
H1175 H 0.30252 0.16104 0.5137 0.0
H1176 H 0.28522 0.19812 0.45908 0.0
H1177 H 0.29531 0.19566 0.48962 0.0
H1178 H 0.2105 0.16094 0.49859 0.0
H1179 H 0.20021 0.16345 0.46792 0.0
C1180 C 0.24411 0.19124 0.54419 0.0
C1181 C 0.27081 0.18247 0.55096 0.0
C1182 C 0.23845 0.1892 0.52666 0.0
C1183 C 0.25938 0.17857 0.51535 0.0
C1184 C 0.286 0.16952 0.52207 0.0
C1185 C 0.29159 0.17128 0.5397 0.0
C1186 C 0.2687 0.1898 0.4675 0.0
C1187 C 0.24179 0.18113 0.46097 0.0
C1188 C 0.27462 0.1882 0.48503 0.0
C1189 C 0.25372 0.17815 0.49656 0.0
C1190 C 0.22698 0.16903 0.49005 0.0
C1191 C 0.22113 0.17035 0.47246 0.0
H1192 H 0.05801 0.97671 0.80512 0.0
H1193 H 0.09324 0.06135 0.79577 0.0
H1194 H 0.05997 0.96634 0.77456 0.0
H1195 H 0.09521 0.05082 0.76517 0.0
H1196 H 0.05763 0.03335 0.71115 0.0
H1197 H 0.05972 0.04327 0.74171 0.0
H1198 H 0.09513 0.95872 0.75069 0.0
H1199 H 0.09303 0.94862 0.71997 0.0
C1200 C 0.06629 0.9931 0.79659 0.0
C1201 C 0.07537 0.01995 0.80298 0.0
C1202 C 0.06759 0.98703 0.77905 0.0
C1203 C 0.07773 0.00774 0.76741 0.0
C1204 C 0.08705 0.03449 0.77378 0.0
C1205 C 0.08603 0.04047 0.79135 0.0
C1206 C 0.06599 0.01683 0.71957 0.0
C1207 C 0.07511 0.99011 0.71302 0.0
C1208 C 0.06735 0.02264 0.73712 0.0
C1209 C 0.07759 1.00181 0.74865 0.0
C1210 C 0.08691 0.97515 0.74215 0.0
C1211 C 0.08585 0.96942 0.72453 0.0
H1212 H 0.31248 0.84196 0.96976 0.0
H1213 H 0.22791 0.80678 0.96009 0.0
H1214 H 0.30171 0.84375 1.00036 0.0
H1215 H 0.21733 0.80854 0.99061 0.0
H1216 H 0.19849 0.84217 0.04477 0.0
H1217 H 0.20931 0.84378 0.01417 0.0
H1218 H 0.2937 0.8087 0.02404 0.0
H1219 H 0.28307 0.80712 0.05456 0.0
C1220 C 0.29157 0.83471 0.97411 0.0
C1221 C 0.27112 0.82417 0.96239 0.0
C1222 C 0.28546 0.83561 0.99167 0.0
C1223 C 0.25865 0.82629 0.99794 0.0
C1224 C 0.23807 0.81617 0.9862 0.0
C1225 C 0.24425 0.815 0.96869 0.0
C1226 C 0.21941 0.83491 0.04045 0.0
C1227 C 0.23985 0.82445 0.0522 0.0
C1228 C 0.22555 0.83571 0.02288 0.0
C1229 C 0.25237 0.82636 0.01666 0.0
C1230 C 0.27295 0.81634 0.02842 0.0
C1231 C 0.26674 0.81527 0.04594 0.0
H1232 H 0.55825 0.03277 0.80356 0.0
H1233 H 0.59394 0.94829 0.79432 0.0
H1234 H 0.56036 0.04313 0.77302 0.0
H1235 H 0.59606 0.95883 0.7637 0.0
H1236 H 0.55901 0.97674 0.70941 0.0
H1237 H 0.56107 0.96635 0.73995 0.0
H1238 H 0.59563 0.05109 0.74942 0.0
H1239 H 0.59355 0.06166 0.71879 0.0
C1240 C 0.56666 0.01641 0.79506 0.0
C1241 C 0.57585 0.98962 0.80148 0.0
C1242 C 0.56805 0.02247 0.77752 0.0
C1243 C 0.57838 1.00183 0.7659 0.0
C1244 C 0.58776 0.97512 0.7723 0.0
C1245 C 0.58666 0.96914 0.78987 0.0
C1246 C 0.56721 0.99318 0.71795 0.0
C1247 C 0.57605 0.02011 0.71156 0.0
C1248 C 0.56854 0.98711 0.73548 0.0
C1249 C 0.57848 0.00788 0.74714 0.0
C1250 C 0.58762 0.0347 0.74079 0.0
C1251 C 0.58658 0.04069 0.7232 0.0
H1252 H 0.7846 0.81061 0.46037 0.0
H1253 H 0.69964 0.84576 0.4687 0.0
H1254 H 0.79426 0.81335 0.49098 0.0
H1255 H 0.70948 0.84852 0.49939 0.0
H1256 H 0.7263 0.81155 0.55389 0.0
H1257 H 0.71663 0.81361 0.52327 0.0
H1258 H 0.8013 0.84884 0.51458 0.0
H1259 H 0.81115 0.84677 0.54529 0.0
C1260 C 0.768 0.81909 0.46869 0.0
C1261 C 0.74127 0.82788 0.46199 0.0
C1262 C 0.77365 0.82082 0.48626 0.0
C1263 C 0.75265 0.83113 0.49765 0.0
C1264 C 0.72604 0.84024 0.49097 0.0
C1265 C 0.72047 0.83879 0.47336 0.0
C1266 C 0.74287 0.81991 0.54551 0.0
C1267 C 0.76958 0.82892 0.55214 0.0
C1268 C 0.73721 0.82124 0.52793 0.0
C1269 C 0.75819 0.83136 0.51646 0.0
C1270 C 0.78477 0.8407 0.52306 0.0
C1271 C 0.79035 0.83965 0.54069 0.0
H1272 H 0.91601 0.06095 0.2953 0.0
H1273 H 0.95102 0.97618 0.30452 0.0
H1274 H 0.91394 0.05053 0.26466 0.0
H1275 H 0.94898 0.96593 0.27397 0.0
H1276 H 0.91627 0.94807 0.21952 0.0
H1277 H 0.91403 0.95838 0.25017 0.0
H1278 H 0.9493 0.04294 0.24108 0.0
H1279 H 0.95152 0.03281 0.21051 0.0
C1280 C 0.92309 0.04004 0.29085 0.0
C1281 C 0.93375 0.01946 0.30245 0.0
C1282 C 0.92205 0.03414 0.27326 0.0
C1283 C 0.93134 0.00741 0.26685 0.0
C1284 C 0.9414 0.98663 0.27848 0.0
C1285 C 0.94272 0.99261 0.29602 0.0
C1286 C 0.92342 0.96893 0.22402 0.0
C1287 C 0.93414 0.98955 0.21248 0.0
C1288 C 0.92226 0.97477 0.24162 0.0
C1289 C 0.93149 1.00149 0.24808 0.0
C1290 C 0.94173 0.02227 0.23652 0.0
C1291 C 0.94318 0.01634 0.21898 0.0
H1292 H 0.74713 0.22877 0.96259 0.0
H1293 H 0.7917 0.14749 0.96698 0.0
H1294 H 0.73683 0.22779 0.99322 0.0
H1295 H 0.78045 0.14625 0.99769 0.0
H1296 H 0.71806 0.14744 0.04725 0.0
H1297 H 0.72924 0.14622 0.01653 0.0
H1298 H 0.77279 0.22781 0.02098 0.0
H1299 H 0.76255 0.22877 0.05161 0.0
C1300 C 0.75465 0.21063 0.97004 0.0
C1301 C 0.77042 0.18828 0.96231 0.0
C1302 C 0.74874 0.21012 0.98759 0.0
C1303 C 0.75783 0.18695 0.99777 0.0
C1304 C 0.77312 0.1643 0.99007 0.0
C1305 C 0.77967 0.16512 0.97254 0.0
C1306 C 0.73005 0.16509 0.04167 0.0
C1307 C 0.7393 0.18825 0.05191 0.0
C1308 C 0.73656 0.16428 0.02414 0.0
C1309 C 0.75182 0.18695 0.01643 0.0
C1310 C 0.7609 0.21013 0.02661 0.0
C1311 C 0.75503 0.21062 0.04416 0.0
H1312 H 0.91471 0.5608 0.71773 0.0
H1313 H 0.94935 0.47602 0.70806 0.0
H1314 H 0.91335 0.55018 0.74836 0.0
H1315 H 0.94803 0.46559 0.7386 0.0
H1316 H 0.9166 0.44746 0.79326 0.0
H1317 H 0.91369 0.45793 0.76265 0.0
H1318 H 0.9493 0.54239 0.77163 0.0
H1319 H 0.95219 0.53209 0.80216 0.0
C1320 C 0.92184 0.53985 0.72208 0.0
C1321 C 0.93221 0.51933 0.71035 0.0
C1322 C 0.92122 0.53383 0.73966 0.0
C1323 C 0.93063 0.50705 0.74594 0.0
C1324 C 0.94036 0.48632 0.73419 0.0
C1325 C 0.94127 0.49241 0.71666 0.0
C1326 C 0.9237 0.46832 0.78874 0.0
C1327 C 0.9347 0.48887 0.80025 0.0
C1328 C 0.92214 0.47427 0.77117 0.0
C1329 C 0.93125 0.50101 0.76469 0.0
C1330 C 0.94181 0.5217 0.77621 0.0
C1331 C 0.94364 0.51568 0.79373 0.0
H1332 H 0.72802 0.69941 0.05355 0.0
H1333 H 0.81348 0.66589 0.04469 0.0
H1334 H 0.71824 0.69759 0.02297 0.0
H1335 H 0.8035 0.66402 0.01395 0.0
H1336 H 0.78503 0.70191 0.95972 0.0
H1337 H 0.79537 0.69931 0.99027 0.0
H1338 H 0.71137 0.66269 0.99926 0.0
H1339 H 0.70086 0.66533 0.96868 0.0
C1340 C 0.74473 0.69149 0.04511 0.0
C1341 C 0.77162 0.68286 0.05166 0.0
C1342 C 0.739 0.69028 0.02755 0.0
C1343 C 0.76006 0.68066 0.016 0.0
C1344 C 0.78688 0.67176 0.0225 0.0
C1345 C 0.79254 0.67269 0.04014 0.0
C1346 C 0.76874 0.69319 0.96816 0.0
C1347 C 0.74202 0.68394 0.96166 0.0
C1348 C 0.7748 0.69152 0.98569 0.0
C1349 C 0.75421 0.68082 0.99722 0.0
C1350 C 0.72761 0.67129 0.99074 0.0
C1351 C 0.72164 0.6727 0.97318 0.0
H1352 H 0.59305 0.56503 0.29459 0.0
H1353 H 0.56042 0.47921 0.30342 0.0
H1354 H 0.59466 0.55521 0.26379 0.0
H1355 H 0.56201 0.4696 0.27285 0.0
H1356 H 0.59486 0.45202 0.21895 0.0
H1357 H 0.59738 0.46313 0.24941 0.0
H1358 H 0.55943 0.54638 0.23989 0.0
H1359 H 0.55693 0.53543 0.20937 0.0
C1360 C 0.58639 0.54406 0.29002 0.0
C1361 C 0.57658 0.52295 0.30155 0.0
C1362 C 0.58716 0.5385 0.27236 0.0
C1363 C 0.5785 0.5116 0.26586 0.0
C1364 C 0.56914 0.49042 0.27742 0.0
C1365 C 0.56807 0.49604 0.29498 0.0
C1366 C 0.58717 0.47278 0.22328 0.0
C1367 C 0.57557 0.49275 0.21162 0.0
C1368 C 0.58851 0.47909 0.24079 0.0
C1369 C 0.57853 0.50562 0.2471 0.0
C1370 C 0.56754 0.52586 0.23543 0.0
C1371 C 0.56594 0.51946 0.21793 0.0
H1372 H 0.69776 0.34488 0.54432 0.0
H1373 H 0.78261 0.30991 0.55333 0.0
H1374 H 0.70799 0.3471 0.51367 0.0
H1375 H 0.79267 0.31212 0.52275 0.0
H1376 H 0.81038 0.34518 0.46849 0.0
H1377 H 0.8 0.34746 0.49911 0.0
H1378 H 0.71559 0.31187 0.48995 0.0
H1379 H 0.7258 0.30961 0.45938 0.0
C1380 C 0.71864 0.33783 0.53982 0.0
C1381 C 0.7393 0.32715 0.55136 0.0
C1382 C 0.72443 0.33897 0.52222 0.0
C1383 C 0.75114 0.32977 0.51575 0.0
C1384 C 0.77199 0.31965 0.52732 0.0
C1385 C 0.76611 0.31823 0.54487 0.0
C1386 C 0.78952 0.33802 0.47296 0.0
C1387 C 0.76898 0.32714 0.4614 0.0
C1388 C 0.78364 0.33918 0.49054 0.0
C1389 C 0.75698 0.3298 0.49699 0.0
C1390 C 0.73623 0.31953 0.4854 0.0
C1391 C 0.74219 0.31808 0.46786 0.0
H1392 H 0.0568 0.53441 0.30602 0.0
H1393 H 0.09196 0.44993 0.29607 0.0
H1394 H 0.05759 0.54488 0.27542 0.0
H1395 H 0.09273 0.46055 0.26548 0.0
H1396 H 0.0549 0.47822 0.21166 0.0
H1397 H 0.05656 0.46828 0.24227 0.0
H1398 H 0.09248 0.55256 0.25138 0.0
H1399 H 0.09084 0.56267 0.2207 0.0
C1400 C 0.06482 0.51809 0.29735 0.0
C1401 C 0.07428 0.49128 0.30358 0.0
C1402 C 0.0654 0.52419 0.2798 0.0
C1403 C 0.07517 0.50354 0.268 0.0
C1404 C 0.08481 0.47682 0.27421 0.0
C1405 C 0.08452 0.47081 0.29178 0.0
C1406 C 0.06321 0.49468 0.22014 0.0
C1407 C 0.07273 0.52128 0.21363 0.0
C1408 C 0.06432 0.48887 0.2377 0.0
C1409 C 0.07468 0.5096 0.24927 0.0
C1410 C 0.08417 0.53622 0.24282 0.0
C1411 C 0.08336 0.54193 0.22521 0.0
H1412 H 0.31333 0.34529 0.04429 0.0
H1413 H 0.22779 0.31165 0.05269 0.0
H1414 H 0.30367 0.34739 0.01349 0.0
H1415 H 0.21833 0.31372 0.02211 0.0
H1416 H 0.20107 0.34647 0.96805 0.0
H1417 H 0.21165 0.34907 0.99863 0.0
H1418 H 0.29556 0.31228 0.98958 0.0
H1419 H 0.28514 0.30971 0.95902 0.0
C1420 C 0.29245 0.33851 0.03962 0.0
C1421 C 0.2714 0.32824 0.05103 0.0
C1422 C 0.28697 0.33957 0.02196 0.0
C1423 C 0.2602 0.33075 0.01534 0.0
C1424 C 0.23905 0.32099 0.02678 0.0
C1425 C 0.2446 0.31962 0.04435 0.0
C1426 C 0.22185 0.33907 0.97253 0.0
C1427 C 0.24216 0.32775 0.961 0.0
C1428 C 0.22786 0.34046 0.99009 0.0
C1429 C 0.25444 0.33083 0.99656 0.0
C1430 C 0.275 0.32013 0.98501 0.0
C1431 C 0.2689 0.31848 0.96748 0.0
H1432 H 0.45442 0.47881 0.80225 0.0
H1433 H 0.41975 0.56377 0.79315 0.0
H1434 H 0.45233 0.4687 0.77168 0.0
H1435 H 0.41766 0.55348 0.76248 0.0
H1436 H 0.45312 0.53453 0.70785 0.0
H1437 H 0.45227 0.54521 0.73841 0.0
H1438 H 0.41622 0.46131 0.7485 0.0
H1439 H 0.41707 0.45046 0.71793 0.0
C1440 C 0.44627 0.49535 0.79376 0.0
C1441 C 0.43728 0.52216 0.80024 0.0
C1442 C 0.44491 0.48944 0.77622 0.0
C1443 C 0.4348 0.51026 0.76463 0.0
C1444 C 0.42577 0.53706 0.77106 0.0
C1445 C 0.42683 0.54289 0.78866 0.0
C1446 C 0.44489 0.51834 0.71654 0.0
C1447 C 0.43521 0.49157 0.71035 0.0
C1448 C 0.44426 0.52457 0.73408 0.0
C1449 C 0.43423 0.50411 0.7459 0.0
C1450 C 0.42434 0.47744 0.73973 0.0
C1451 C 0.42469 0.4713 0.72218 0.0
H1452 H 0.19765 0.66776 0.54497 0.0
H1453 H 0.28271 0.70195 0.55432 0.0
H1454 H 0.20796 0.66614 0.5143 0.0
H1455 H 0.29285 0.70035 0.52376 0.0
H1456 H 0.31082 0.66722 0.46955 0.0
H1457 H 0.30014 0.66526 0.50012 0.0
H1458 H 0.21609 0.70141 0.49059 0.0
H1459 H 0.22662 0.70336 0.46003 0.0
C1460 C 0.21859 0.67476 0.54054 0.0
C1461 C 0.23931 0.68501 0.55219 0.0
C1462 C 0.22442 0.674 0.52293 0.0
C1463 C 0.25123 0.68314 0.51657 0.0
C1464 C 0.27209 0.69288 0.52823 0.0
C1465 C 0.26618 0.69394 0.54579 0.0
C1466 C 0.29 0.67464 0.47392 0.0
C1467 C 0.26964 0.68551 0.46224 0.0
C1468 C 0.28394 0.67364 0.49148 0.0
C1469 C 0.25728 0.6832 0.49781 0.0
C1470 C 0.23673 0.6936 0.48613 0.0
C1471 C 0.24287 0.69488 0.46859 0.0
H1472 H 0.33844 0.01528 0.15466 0.0
H1473 H 0.4044 0.95842 0.13519 0.0
H1474 H 0.30144 0.9813 0.14485 0.0
H1475 H 0.36794 0.92544 0.12519 0.0
H1476 H 0.30285 0.85565 0.12868 0.0
H1477 H 0.33541 0.89249 0.1387 0.0
H1478 H 0.27877 0.95837 0.11904 0.0
H1479 H 0.24522 0.92099 0.10923 0.0
C1480 C 0.34506 0.99573 0.14823 0.0
C1481 C 0.37446 0.98942 0.146 0.0
C1482 C 0.32388 0.97636 0.14253 0.0
C1483 C 0.33174 0.95041 0.13448 0.0
C1484 C 0.36108 0.9448 0.13175 0.0
C1485 C 0.38207 0.96387 0.13748 0.0
C1486 C 0.29714 0.87792 0.1264 0.0
C1487 C 0.2715 0.88525 0.11788 0.0
C1488 C 0.31597 0.89914 0.13214 0.0
C1489 C 0.31001 0.92841 0.12941 0.0
C1490 C 0.28398 0.93599 0.12136 0.0
C1491 C 0.26486 0.91458 0.11566 0.0
H1492 H 0.24779 0.08943 0.40253 0.0
H1493 H 0.30687 0.15498 0.38502 0.0
H1494 H 0.28185 0.05217 0.39342 0.0
H1495 H 0.3401 0.11816 0.37565 0.0
H1496 H 0.40834 0.05122 0.3797 0.0
H1497 H 0.37177 0.0846 0.38926 0.0
H1498 H 0.30557 0.02958 0.36836 0.0
H1499 H 0.34255 0.99534 0.35905 0.0
C1500 C 0.26786 0.09591 0.39664 0.0
C1501 C 0.27472 0.12525 0.39476 0.0
C1502 C 0.28731 0.07456 0.39136 0.0
C1503 C 0.31392 0.08217 0.38405 0.0
C1504 C 0.32018 0.11148 0.38165 0.0
C1505 C 0.30098 0.13267 0.38699 0.0
C1506 C 0.38603 0.04606 0.3771 0.0
C1507 C 0.37847 0.0207 0.36837 0.0
C1508 C 0.365 0.06535 0.38255 0.0
C1509 C 0.33573 0.06008 0.3793 0.0
C1510 C 0.32794 0.03426 0.37108 0.0
C1511 C 0.34912 0.01472 0.36569 0.0
H1512 H 0.11086 0.06199 0.65534 0.0
H1513 H 0.16315 0.98976 0.63971 0.0
H1514 H 0.14717 0.09495 0.64488 0.0
H1515 H 0.19948 0.02312 0.62859 0.0
H1516 H 0.26896 0.09582 0.62458 0.0
H1517 H 0.23547 0.05953 0.63558 0.0
H1518 H 0.16389 0.11097 0.61793 0.0
H1519 H 0.19698 0.14728 0.60758 0.0
C1520 C 0.13011 0.0531 0.64958 0.0
C1521 C 0.13392 0.0232 0.6482 0.0
C1522 C 0.15092 0.07207 0.64346 0.0
C1523 C 0.17605 0.06177 0.63554 0.0
C1524 C 0.18041 0.03181 0.63464 0.0
C1525 C 0.15957 0.0127 0.64097 0.0
C1526 C 0.24605 0.09921 0.62299 0.0
C1527 C 0.23564 0.12464 0.61542 0.0
C1528 C 0.22686 0.07838 0.62925 0.0
C1529 C 0.19692 0.08253 0.62794 0.0
C1530 C 0.18674 0.1074 0.61966 0.0
C1531 C 0.20578 0.12822 0.61361 0.0
H1532 H 0.17127 0.01429 0.86006 0.0
H1533 H 0.1057 0.95719 0.87974 0.0
H1534 H 0.20849 0.98051 0.86982 0.0
H1535 H 0.14238 0.92441 0.8897 0.0
H1536 H 0.20774 0.85488 0.886 0.0
H1537 H 0.17494 0.89159 0.87609 0.0
H1538 H 0.23148 0.9577 0.89557 0.0
H1539 H 0.26526 0.92045 0.90529 0.0
C1540 C 0.16478 0.99473 0.86653 0.0
C1541 C 0.13542 0.98829 0.86883 0.0
C1542 C 0.18609 0.97547 0.8722 0.0
C1543 C 0.1784 0.94951 0.88029 0.0
C1544 C 0.14911 0.94378 0.88311 0.0
C1545 C 0.12799 0.96274 0.87741 0.0
C1546 C 0.21338 0.87718 0.88826 0.0
C1547 C 0.23906 0.8846 0.89671 0.0
C1548 C 0.19441 0.89831 0.88259 0.0
C1549 C 0.20026 0.92761 0.8853 0.0
C1550 C 0.22634 0.93529 0.89328 0.0
C1551 C 0.2456 0.91397 0.89892 0.0
H1552 H 0.7051 0.15594 0.88779 0.0
H1553 H 0.7642 0.08988 0.90463 0.0
H1554 H 0.67234 0.1195 0.87748 0.0
H1555 H 0.73047 0.0529 0.89461 0.0
H1556 H 0.67097 0.99723 0.85873 0.0
H1557 H 0.70755 0.0312 0.86904 0.0
H1558 H 0.64041 0.0853 0.88967 0.0
H1559 H 0.60436 0.0524 0.87907 0.0
C1560 C 0.71106 0.13359 0.88948 0.0
C1561 C 0.73724 0.12595 0.89728 0.0
C1562 C 0.69211 0.11258 0.88358 0.0
C1563 C 0.69848 0.08318 0.88545 0.0
C1564 C 0.72492 0.07536 0.89293 0.0
C1565 C 0.74416 0.09654 0.89876 0.0
C1566 C 0.66412 0.01641 0.86547 0.0
C1567 C 0.63465 0.02225 0.86779 0.0
C1568 C 0.68507 0.03578 0.87146 0.0
C1569 C 0.67693 0.06125 0.87996 0.0
C1570 C 0.64752 0.06637 0.88277 0.0
C1571 C 0.62675 0.04733 0.87671 0.0
H1572 H 0.60287 0.95761 0.63432 0.0
H1573 H 0.66835 0.0152 0.6536 0.0
H1574 H 0.63969 0.92438 0.62491 0.0
H1575 H 0.70559 0.98114 0.64443 0.0
H1576 H 0.76337 0.92103 0.61034 0.0
H1577 H 0.72904 0.95806 0.61948 0.0
H1578 H 0.67229 0.89174 0.63847 0.0
H1579 H 0.70578 0.85514 0.62909 0.0
C1580 C 0.62516 0.96318 0.63665 0.0
C1581 C 0.63255 0.98899 0.64495 0.0
C1582 C 0.64635 0.94397 0.63129 0.0
C1583 C 0.67563 0.94978 0.63418 0.0
C1584 C 0.68323 0.97602 0.64199 0.0
C1585 C 0.66189 0.99547 0.6473 0.0
C1586 C 0.74358 0.91444 0.61652 0.0
C1587 C 0.73719 0.88505 0.61873 0.0
C1588 C 0.72397 0.93565 0.62181 0.0
C1589 C 0.69767 0.92787 0.62946 0.0
C1590 C 0.69193 0.89854 0.63221 0.0
C1591 C 0.71129 0.87748 0.62687 0.0
H1592 H 0.74705 0.91936 0.40356 0.0
H1593 H 0.80532 0.85379 0.38518 0.0
H1594 H 0.78116 0.95659 0.39443 0.0
H1595 H 0.83861 0.89059 0.3758 0.0
H1596 H 0.90745 0.95706 0.37994 0.0
H1597 H 0.87083 0.9236 0.38935 0.0
H1598 H 0.80462 0.9797 0.36952 0.0
H1599 H 0.84166 0.014 0.36035 0.0
C1600 C 0.76695 0.91287 0.39747 0.0
C1601 C 0.77358 0.88352 0.39535 0.0
C1602 C 0.78643 0.93421 0.39218 0.0
C1603 C 0.81286 0.92658 0.38463 0.0
C1604 C 0.81886 0.89728 0.38199 0.0
C1605 C 0.79962 0.8761 0.38733 0.0
C1606 C 0.88513 0.96243 0.37754 0.0
C1607 C 0.87759 0.98813 0.36916 0.0
C1608 C 0.86406 0.94309 0.3829 0.0
C1609 C 0.83476 0.94865 0.37992 0.0
C1610 C 0.827 0.97477 0.37203 0.0
C1611 C 0.84823 0.99436 0.36672 0.0
H1612 H 0.8048 0.15594 0.1264 0.0
H1613 H 0.74581 0.08984 0.10949 0.0
H1614 H 0.83766 0.11952 0.13661 0.0
H1615 H 0.77965 0.05288 0.11941 0.0
H1616 H 0.83936 0.99721 0.15518 0.0
H1617 H 0.80268 0.03111 0.14492 0.0
H1618 H 0.86964 0.08547 0.12432 0.0
H1619 H 0.90581 0.05263 0.13487 0.0
C1620 C 0.79889 0.13358 0.12468 0.0
C1621 C 0.77271 0.12592 0.11688 0.0
C1622 C 0.8179 0.11259 0.13052 0.0
C1623 C 0.81159 0.08319 0.1286 0.0
C1624 C 0.78515 0.07534 0.12113 0.0
C1625 C 0.76585 0.09651 0.11535 0.0
C1626 C 0.84615 0.01643 0.14845 0.0
C1627 C 0.8756 0.02237 0.14612 0.0
C1628 C 0.82514 0.03576 0.1425 0.0
C1629 C 0.83321 0.06128 0.13403 0.0
C1630 C 0.8626 0.0665 0.1312 0.0
C1631 C 0.88343 0.04749 0.13723 0.0
H1632 H 0.74445 0.42 0.60933 0.0
H1633 H 0.80258 0.35457 0.62811 0.0
H1634 H 0.77859 0.45729 0.61837 0.0
H1635 H 0.83589 0.39143 0.63736 0.0
H1636 H 0.90487 0.45762 0.63284 0.0
H1637 H 0.86811 0.42426 0.62348 0.0
H1638 H 0.80215 0.4805 0.64341 0.0
H1639 H 0.83933 0.51469 0.65255 0.0
C1640 C 0.76431 0.41356 0.61548 0.0
C1641 C 0.77091 0.38422 0.61773 0.0
C1642 C 0.78381 0.43493 0.62072 0.0
C1643 C 0.81021 0.42734 0.62833 0.0
C1644 C 0.81616 0.39807 0.63112 0.0
C1645 C 0.7969 0.37686 0.62585 0.0
C1646 C 0.88257 0.46305 0.63527 0.0
C1647 C 0.87515 0.48875 0.64369 0.0
C1648 C 0.86143 0.44377 0.62994 0.0
C1649 C 0.83216 0.4494 0.63297 0.0
C1650 C 0.82451 0.47553 0.64086 0.0
C1651 C 0.84581 0.49506 0.64616 0.0
H1652 H 0.84011 0.49543 0.85802 0.0
H1653 H 0.9063 0.5525 0.87702 0.0
H1654 H 0.80322 0.52931 0.86807 0.0
H1655 H 0.86997 0.58536 0.88729 0.0
H1656 H 0.80465 0.65496 0.8846 0.0
H1657 H 0.83712 0.61831 0.87426 0.0
H1658 H 0.78088 0.55208 0.89387 0.0
H1659 H 0.74741 0.58927 0.90398 0.0
C1660 C 0.84681 0.51501 0.8644 0.0
C1661 C 0.87624 0.5214 0.86642 0.0
C1662 C 0.82568 0.53433 0.87023 0.0
C1663 C 0.83364 0.56031 0.87823 0.0
C1664 C 0.86302 0.56599 0.88077 0.0
C1665 C 0.88394 0.54698 0.87489 0.0
C1666 C 0.79901 0.63265 0.88679 0.0
C1667 C 0.7735 0.62517 0.89539 0.0
C1668 C 0.8178 0.61154 0.88088 0.0
C1669 C 0.81194 0.58221 0.8835 0.0
C1670 C 0.78602 0.57449 0.89163 0.0
C1671 C 0.76694 0.59579 0.8975 0.0
H1672 H 0.76527 0.58961 0.11075 0.0
H1673 H 0.70512 0.65521 0.12685 0.0
H1674 H 0.73138 0.55235 0.12019 0.0
H1675 H 0.6721 0.61845 0.13651 0.0
H1676 H 0.60454 0.55104 0.13285 0.0
H1677 H 0.64117 0.58402 0.12299 0.0
H1678 H 0.70708 0.53062 0.1456 0.0
H1679 H 0.66997 0.49668 0.15526 0.0
C1680 C 0.74499 0.59611 0.11637 0.0
C1681 C 0.7378 0.62547 0.11777 0.0
C1682 C 0.72565 0.57477 0.12185 0.0
C1683 C 0.69882 0.5824 0.12886 0.0
C1684 C 0.69221 0.61173 0.13076 0.0
C1685 C 0.7113 0.6329 0.12524 0.0
C1686 C 0.62679 0.54613 0.13577 0.0
C1687 C 0.6342 0.52132 0.1451 0.0
C1688 C 0.64786 0.5652 0.13014 0.0
C1689 C 0.67706 0.56032 0.13378 0.0
C1690 C 0.68476 0.53501 0.14258 0.0
C1691 C 0.66351 0.51564 0.14817 0.0
H1692 H 0.70786 0.35331 0.38296 0.0
H1693 H 0.7635 0.41923 0.40367 0.0
H1694 H 0.67473 0.38984 0.37302 0.0
H1695 H 0.72948 0.45617 0.39402 0.0
H1696 H 0.67029 0.51429 0.35983 0.0
H1697 H 0.70732 0.48 0.36902 0.0
H1698 H 0.64091 0.42156 0.38598 0.0
H1699 H 0.60434 0.45498 0.37652 0.0
C1700 C 0.713 0.37565 0.3855 0.0
C1701 C 0.73824 0.38324 0.39434 0.0
C1702 C 0.69385 0.39666 0.37983 0.0
C1703 C 0.69911 0.42598 0.38298 0.0
C1704 C 0.72479 0.43379 0.39135 0.0
C1705 C 0.74422 0.41262 0.39694 0.0
C1706 C 0.66367 0.4941 0.36553 0.0
C1707 C 0.63428 0.48729 0.36719 0.0
C1708 C 0.68489 0.47452 0.37086 0.0
C1709 C 0.67712 0.44781 0.37801 0.0
C1710 C 0.64775 0.44154 0.38011 0.0
C1711 C 0.62669 0.46087 0.37472 0.0
H1712 H 0.1711 0.49539 0.36042 0.0
H1713 H 0.1058 0.55226 0.38063 0.0
H1714 H 0.20843 0.52931 0.36984 0.0
H1715 H 0.14264 0.58527 0.3902 0.0
H1716 H 0.20788 0.65497 0.3855 0.0
H1717 H 0.17496 0.61806 0.37593 0.0
H1718 H 0.23171 0.55232 0.39562 0.0
H1719 H 0.26553 0.58973 0.40504 0.0
C1720 C 0.1647 0.51493 0.36694 0.0
C1721 C 0.13537 0.52126 0.36948 0.0
C1722 C 0.18607 0.53427 0.37241 0.0
C1723 C 0.17848 0.56024 0.38052 0.0
C1724 C 0.14925 0.56587 0.38359 0.0
C1725 C 0.12806 0.54679 0.37812 0.0
C1726 C 0.21354 0.63271 0.38787 0.0
C1727 C 0.23927 0.62543 0.39631 0.0
C1728 C 0.19451 0.61148 0.38239 0.0
C1729 C 0.2004 0.58223 0.38528 0.0
C1730 C 0.22655 0.57468 0.3932 0.0
C1731 C 0.24584 0.59611 0.39867 0.0
H1732 H 0.27051 0.41613 0.12465 0.0
H1733 H 0.19781 0.36505 0.10836 0.0
H1734 H 0.23752 0.4524 0.13621 0.0
H1735 H 0.1652 0.40132 0.11927 0.0
H1736 H 0.11333 0.44986 0.15728 0.0
H1737 H 0.14954 0.41702 0.14654 0.0
H1738 H 0.20123 0.48903 0.12985 0.0
H1739 H 0.16498 0.52227 0.14124 0.0
C1740 C 0.24755 0.41282 0.12332 0.0
C1741 C 0.23681 0.38749 0.11578 0.0
C1742 C 0.22864 0.43364 0.12991 0.0
C1743 C 0.19865 0.42957 0.12899 0.0
C1744 C 0.18811 0.40483 0.12072 0.0
C1745 C 0.20688 0.38404 0.11433 0.0
C1746 C 0.13246 0.45881 0.15141 0.0
C1747 C 0.13608 0.48872 0.14995 0.0
C1748 C 0.1532 0.43991 0.14512 0.0
C1749 C 0.17807 0.45029 0.13695 0.0
C1750 C 0.18235 0.48027 0.13607 0.0
C1751 C 0.16158 0.49932 0.14257 0.0
H1752 H 0.34105 0.51528 0.85771 0.0
H1753 H 0.40677 0.45695 0.87592 0.0
H1754 H 0.30388 0.48153 0.86751 0.0
H1755 H 0.37015 0.42419 0.88595 0.0
H1756 H 0.30388 0.35555 0.88328 0.0
H1757 H 0.33665 0.39194 0.8729 0.0
H1758 H 0.28162 0.45859 0.89322 0.0
H1759 H 0.24785 0.42168 0.90336 0.0
C1760 C 0.34759 0.49543 0.86385 0.0
C1761 C 0.37697 0.48869 0.86575 0.0
C1762 C 0.32631 0.47619 0.86955 0.0
C1763 C 0.33403 0.44992 0.87728 0.0
C1764 C 0.36337 0.44381 0.87964 0.0
C1765 C 0.38446 0.46277 0.8739 0.0
C1766 C 0.29857 0.37791 0.88561 0.0
C1767 C 0.27333 0.38559 0.89442 0.0
C1768 C 0.31752 0.39886 0.87967 0.0
C1769 C 0.3121 0.42822 0.8825 0.0
C1770 C 0.28642 0.43614 0.89082 0.0
C1771 C 0.26717 0.41501 0.8967 0.0
H1772 H 0.40393 0.5527 0.6333 0.0
H1773 H 0.33849 0.49673 0.65424 0.0
H1774 H 0.36725 0.58618 0.62409 0.0
H1775 H 0.30135 0.53111 0.6452 0.0
H1776 H 0.24375 0.59146 0.61061 0.0
H1777 H 0.27754 0.55399 0.61987 0.0
H1778 H 0.3357 0.61963 0.63818 0.0
H1779 H 0.30274 0.65666 0.62872 0.0
C1780 C 0.38167 0.54753 0.63605 0.0
C1781 C 0.37428 0.5221 0.64477 0.0
C1782 C 0.36058 0.5669 0.63079 0.0
C1783 C 0.33136 0.56165 0.63418 0.0
C1784 C 0.32369 0.53579 0.64239 0.0
C1785 C 0.34496 0.51616 0.64763 0.0
C1786 C 0.26373 0.59782 0.61666 0.0
C1787 C 0.27067 0.62714 0.61865 0.0
C1788 C 0.28302 0.57635 0.62203 0.0
C1789 C 0.30954 0.58381 0.62952 0.0
C1790 C 0.31584 0.61308 0.63205 0.0
C1791 C 0.29679 0.63439 0.62665 0.0
H1792 H 0.37415 0.11242 0.11771 0.0
H1793 H 0.37339 0.1502 0.16811 0.0
H1794 H 0.35313 0.15622 0.10589 0.0
H1795 H 0.35498 0.19475 0.15638 0.0
H1796 H 0.30845 0.26958 0.13468 0.0
H1797 H 0.31996 0.2221 0.14558 0.0
H1798 H 0.36258 0.20207 0.09773 0.0
H1799 H 0.34786 0.2487 0.08641 0.0
C1800 C 0.36945 0.13018 0.12625 0.0
C1801 C 0.37524 0.12789 0.14383 0.0
C1802 C 0.35772 0.15553 0.11947 0.0
C1803 C 0.35242 0.17959 0.13003 0.0
C1804 C 0.35793 0.17684 0.14772 0.0
C1805 C 0.36875 0.15121 0.15453 0.0
C1806 C 0.31928 0.25448 0.12632 0.0
C1807 C 0.326 0.26217 0.10945 0.0
C1808 C 0.32665 0.22738 0.1327 0.0
C1809 C 0.34241 0.20771 0.12266 0.0
C1810 C 0.34977 0.21594 0.10581 0.0
C1811 C 0.34163 0.24284 0.09931 0.0
H1812 H 0.13229 0.09425 0.40907 0.0
H1813 H 0.13396 0.15793 0.36885 0.0
H1814 H 0.08835 0.07386 0.39695 0.0
H1815 H 0.08942 0.13886 0.35731 0.0
H1816 H 0.01618 0.09009 0.33326 0.0
H1817 H 0.06455 0.10304 0.34296 0.0
H1818 H 0.0395 0.08441 0.39515 0.0
H1819 H 0.992 0.0701 0.38513 0.0
C1820 C 0.1233 0.10382 0.39761 0.0
C1821 C 0.13656 0.12773 0.38996 0.0
C1822 C 0.09793 0.09232 0.39072 0.0
C1823 C 0.08491 0.10484 0.3762 0.0
C1824 C 0.09882 0.12825 0.36831 0.0
C1825 C 0.12439 0.13937 0.37501 0.0
C1826 C 0.02137 0.08848 0.34675 0.0
C1827 C 1.00085 0.0784 0.35842 0.0
C1828 C 0.04897 0.0961 0.35238 0.0
C1829 C 0.05623 0.09475 0.3699 0.0
C1830 C 0.03521 0.08509 0.38154 0.0
C1831 C 0.00788 0.07701 0.37585 0.0
H1832 H 0.10011 0.8826 0.6209 0.0
H1833 H 0.16362 0.88047 0.66123 0.0
H1834 H 0.11975 0.8387 0.60893 0.0
H1835 H 0.18461 0.83714 0.64866 0.0
H1836 H 0.18946 0.74115 0.63553 0.0
H1837 H 0.17487 0.78819 0.64616 0.0
H1838 H 0.15595 0.81504 0.5943 0.0
H1839 H 0.16916 0.76712 0.58399 0.0
C1840 C 0.11874 0.87306 0.62701 0.0
C1841 C 0.13018 0.88492 0.6421 0.0
C1842 C 0.1302 0.84786 0.62005 0.0
C1843 C 0.15379 0.83403 0.62781 0.0
C1844 C 0.16604 0.8467 0.64251 0.0
C1845 C 0.15419 0.8717 0.64967 0.0
C1846 C 0.18244 0.75733 0.62645 0.0
C1847 C 0.18099 0.75092 0.60893 0.0
C1848 C 0.1742 0.78439 0.6325 0.0
C1849 C 0.16431 0.80575 0.62114 0.0
C1850 C 0.16303 0.79915 0.60352 0.0
C1851 C 0.1708 0.77183 0.59753 0.0
H1852 H 0.4979 0.91041 0.83669 0.0
H1853 H 0.52047 0.94727 0.88543 0.0
H1854 H 0.45144 0.89555 0.84819 0.0
H1855 H 0.47326 0.93557 0.89659 0.0
H1856 H 0.40041 0.88333 0.91877 0.0
H1857 H 0.44525 0.90092 0.90702 0.0
H1858 H 0.40598 0.90556 0.85679 0.0
H1859 H 0.36185 0.88525 0.86859 0.0
C1860 C 0.49248 0.91598 0.84976 0.0
C1861 C 0.51218 0.93101 0.85998 0.0
C1862 C 0.46568 0.90778 0.85638 0.0
C1863 C 0.45796 0.91447 0.87341 0.0
C1864 C 0.47811 0.92942 0.88355 0.0
C1865 C 0.50508 0.93687 0.87705 0.0
C1866 C 0.40134 0.88842 0.90525 0.0
C1867 C 0.3777 0.88292 0.8946 0.0
C1868 C 0.42714 0.89875 0.89843 0.0
C1869 C 0.42976 0.9048 0.88079 0.0
C1870 C 0.4054 0.9005 0.8703 0.0
C1871 C 0.37987 0.88921 0.87708 0.0
H1872 H 0.34023 0.76601 0.42986 0.0
H1873 H 0.32075 0.73936 0.37833 0.0
H1874 H 0.35361 0.81377 0.41941 0.0
H1875 H 0.33551 0.7863 0.36757 0.0
H1876 H 0.34714 0.8787 0.35235 0.0
H1877 H 0.32592 0.8354 0.36485 0.0
H1878 H 0.39024 0.83695 0.40488 0.0
H1879 H 0.41013 0.88077 0.39297 0.0
C1880 C 0.33879 0.77054 0.41628 0.0
C1881 C 0.32879 0.74948 0.40492 0.0
C1882 C 0.34667 0.79778 0.41022 0.0
C1883 C 0.34571 0.80415 0.39257 0.0
C1884 C 0.33596 0.78266 0.38125 0.0
C1885 C 0.32762 0.75566 0.38737 0.0
C1886 C 0.3564 0.86993 0.36396 0.0
C1887 C 0.38033 0.88314 0.37164 0.0
C1888 C 0.34442 0.84495 0.37107 0.0
C1889 C 0.35643 0.83232 0.38586 0.0
C1890 C 0.37996 0.8461 0.3937 0.0
C1891 C 0.39157 0.87125 0.38677 0.0
H1892 H 0.37639 0.15895 0.64407 0.0
H1893 H 0.37857 0.0952 0.60391 0.0
H1894 H 0.42065 0.13972 0.65591 0.0
H1895 H 0.4222 0.07466 0.61632 0.0
H1896 H 0.5183 0.0706 0.6287 0.0
H1897 H 0.47102 0.08503 0.61841 0.0
H1898 H 0.44517 0.10383 0.67044 0.0
H1899 H 0.49335 0.09075 0.68042 0.0
C1900 C 0.38601 0.14035 0.63798 0.0
C1901 C 0.37408 0.12873 0.62297 0.0
C1902 C 0.41142 0.12913 0.64486 0.0
C1903 C 0.42538 0.10566 0.63707 0.0
C1904 C 0.41258 0.09318 0.62248 0.0
C1905 C 0.38739 0.10477 0.61541 0.0
C1906 C 0.5023 0.07756 0.6379 0.0
C1907 C 0.50906 0.07897 0.65536 0.0
C1908 C 0.47509 0.08571 0.63204 0.0
C1909 C 0.45391 0.09547 0.64355 0.0
C1910 C 0.46089 0.09681 0.66111 0.0
C1911 C 0.48837 0.08912 0.66691 0.0
H1912 H 0.13617 0.11187 0.89646 0.0
H1913 H 0.13423 0.14918 0.84596 0.0
H1914 H 0.15702 0.1561 0.90783 0.0
H1915 H 0.15232 0.19413 0.85726 0.0
H1916 H 0.1992 0.26961 0.87788 0.0
H1917 H 0.18729 0.22207 0.86729 0.0
H1918 H 0.1478 0.20189 0.91607 0.0
H1919 H 0.16297 0.24863 0.92702 0.0
C1920 C 0.14022 0.12964 0.88782 0.0
C1921 C 0.13379 0.12708 0.87033 0.0
C1922 C 0.15183 0.15523 0.89434 0.0
C1923 C 0.15633 0.17927 0.88362 0.0
C1924 C 0.15006 0.17627 0.86603 0.0
C1925 C 0.13941 0.15041 0.85946 0.0
C1926 C 0.18894 0.25449 0.88648 0.0
C1927 C 0.18329 0.26215 0.90349 0.0
C1928 C 0.18134 0.22734 0.8803 0.0
C1929 C 0.16638 0.20757 0.89071 0.0
C1930 C 0.15999 0.21582 0.90769 0.0
C1931 C 0.16838 0.24278 0.91399 0.0
H1932 H 0.14876 0.88588 0.14574 0.0
H1933 H 0.11042 0.8839 0.0955 0.0
H1934 H 0.1046 0.90626 0.15746 0.0
H1935 H 0.06555 0.90157 0.10716 0.0
H1936 H 0.99026 0.94792 0.12861 0.0
H1937 H 0.03757 0.93632 0.11756 0.0
H1938 H 0.05908 0.89613 0.16595 0.0
H1939 H 0.01252 0.91089 0.17736 0.0
C1940 C 0.13079 0.88984 0.13722 0.0
C1941 C 0.13302 0.88351 0.11971 0.0
C1942 C 0.10524 0.90117 0.14395 0.0
C1943 C 0.08094 0.90548 0.13341 0.0
C1944 C 0.08363 0.8994 0.11579 0.0
C1945 C 0.10944 0.88902 0.10901 0.0
C1946 C 0.00561 0.93752 0.13702 0.0
C1947 C 0.99839 0.93156 0.15406 0.0
C1948 C 0.03262 0.93013 0.13057 0.0
C1949 C 0.05271 0.91514 0.14075 0.0
C1950 C 0.04488 0.90839 0.15775 0.0
C1951 C 0.01803 0.91653 0.16431 0.0
H1952 H 0.66321 0.76292 0.92695 0.0
H1953 H 0.7 0.74114 0.87809 0.0
H1954 H 0.64818 0.80948 0.91567 0.0
H1955 H 0.68825 0.78851 0.86718 0.0
H1956 H 0.6354 0.86109 0.84521 0.0
H1957 H 0.6535 0.81636 0.85682 0.0
H1958 H 0.65736 0.85511 0.90721 0.0
H1959 H 0.63651 0.8991 0.89553 0.0
C1960 C 0.66879 0.76856 0.91391 0.0
C1961 C 0.6838 0.74901 0.90359 0.0
C1962 C 0.66048 0.79542 0.90742 0.0
C1963 C 0.66707 0.8034 0.89042 0.0
C1964 C 0.68214 0.78346 0.88019 0.0
C1965 C 0.68965 0.7564 0.88656 0.0
C1966 C 0.64041 0.86007 0.85874 0.0
C1967 C 0.63454 0.88353 0.86946 0.0
C1968 C 0.65106 0.83434 0.86549 0.0
C1969 C 0.65707 0.83159 0.88312 0.0
C1970 C 0.65237 0.85577 0.89369 0.0
C1971 C 0.64075 0.88124 0.88699 0.0
H1972 H 0.99353 0.92096 0.68083 0.0
H1973 H 0.01874 0.94247 0.62935 0.0
H1974 H 0.94548 0.90797 0.67064 0.0
H1975 H 0.97156 0.92808 0.61882 0.0
H1976 H 0.8791 0.9168 0.6041 0.0
H1977 H 0.92254 0.93768 0.61661 0.0
H1978 H 0.92173 0.87205 0.65588 0.0
H1979 H 0.87772 0.85252 0.64398 0.0
C1980 C 0.98862 0.92292 0.66732 0.0
C1981 C 0.00935 0.93339 0.65592 0.0
C1982 C 0.96122 0.91527 0.66141 0.0
C1983 C 0.95437 0.91693 0.64383 0.0
C1984 C 0.97555 0.92711 0.63246 0.0
C1985 C 1.00269 0.93524 0.63845 0.0
C1986 C 0.88805 0.90719 0.61555 0.0
C1987 C 0.875 0.883 0.62302 0.0
C1988 C 0.91312 0.91897 0.62267 0.0
C1989 C 0.92603 0.90647 0.63723 0.0
C1990 C 0.91238 0.8827 0.64488 0.0
C1991 C 0.88711 0.8713 0.63796 0.0
H1992 H 0.81999 0.26957 0.37865 0.0
H1993 H 0.84002 0.24435 0.43035 0.0
H1994 H 0.83477 0.22243 0.36827 0.0
H1995 H 0.85347 0.19634 0.42029 0.0
H1996 H 0.90966 0.12859 0.39399 0.0
H1997 H 0.88986 0.17258 0.40577 0.0
H1998 H 0.82497 0.17339 0.36606 0.0
H1999 H 0.84607 0.12996 0.35369 0.0
C2000 C 0.827 0.25354 0.38782 0.0
C2001 C 0.8283 0.26018 0.40531 0.0
C2002 C 0.83535 0.22642 0.38192 0.0
C2003 C 0.84522 0.20523 0.3934 0.0
C2004 C 0.84639 0.21208 0.41098 0.0
C2005 C 0.83849 0.23946 0.41683 0.0
C2006 C 0.89099 0.13798 0.38784 0.0
C2007 C 0.87957 0.12588 0.37282 0.0
C2008 C 0.87944 0.16323 0.3947 0.0
C2009 C 0.85581 0.17688 0.38688 0.0
C2010 C 0.84357 0.16397 0.37224 0.0
C2011 C 0.85549 0.13891 0.36521 0.0
H2012 H 0.64876 0.1234 0.14512 0.0
H2013 H 0.61082 0.12608 0.09478 0.0
H2014 H 0.60429 0.1035 0.15669 0.0
H2015 H 0.56564 0.10892 0.10631 0.0
H2016 H 0.48939 0.06376 0.12772 0.0
H2017 H 0.53683 0.07482 0.11665 0.0
H2018 H 0.55899 0.11435 0.16513 0.0
H2019 H 0.51226 0.10017 0.17653 0.0
C2020 C 0.63081 0.11967 0.13655 0.0
C2021 C 0.63324 0.12609 0.11906 0.0
C2022 C 0.60508 0.10863 0.14319 0.0
C2023 C 0.58077 0.10475 0.1326 0.0
C2024 C 0.58368 0.11081 0.11498 0.0
C2025 C 0.60968 0.12089 0.10829 0.0
C2026 C 0.50489 0.07393 0.13613 0.0
C2027 C 0.4978 0.07984 0.15319 0.0
C2028 C 0.532 0.081 0.12968 0.0
C2029 C 0.55233 0.09557 0.13989 0.0
C2030 C 0.54461 0.10236 0.1569 0.0
C2031 C 0.51766 0.09456 0.16346 0.0
H2032 H 0.68958 0.2703 0.6346 0.0
H2033 H 0.66904 0.24451 0.58306 0.0
H2034 H 0.67501 0.22324 0.6452 0.0
H2035 H 0.65583 0.19657 0.59335 0.0
H2036 H 0.59992 0.12909 0.61998 0.0
H2037 H 0.61961 0.17298 0.60802 0.0
H2038 H 0.6847 0.17422 0.64762 0.0
H2039 H 0.66367 0.13089 0.66017 0.0
C2040 C 0.68251 0.25416 0.62551 0.0
C2041 C 0.68099 0.26062 0.60801 0.0
C2042 C 0.67428 0.22708 0.63155 0.0
C2043 C 0.66431 0.20577 0.62018 0.0
C2044 C 0.66296 0.21242 0.60257 0.0
C2045 C 0.67073 0.23976 0.5966 0.0
C2046 C 0.61861 0.13856 0.62606 0.0
C2047 C 0.63011 0.1266 0.6411 0.0
C2048 C 0.63011 0.16375 0.61911 0.0
C2049 C 0.65377 0.17749 0.62683 0.0
C2050 C 0.66607 0.16473 0.6415 0.0
C2051 C 0.6542 0.13973 0.64864 0.0
H2052 H 0.49181 0.93884 0.38441 0.0
H2053 H 0.51757 0.919 0.33279 0.0
H2054 H 0.53897 0.92444 0.39494 0.0
H2055 H 0.56562 0.90593 0.34301 0.0
H2056 H 0.63372 0.8505 0.36969 0.0
H2057 H 0.58966 0.86981 0.35768 0.0
H2058 H 0.58785 0.93495 0.39722 0.0
H2059 H 0.63134 0.91435 0.4098 0.0
C2060 C 0.50796 0.93193 0.37529 0.0
C2061 C 0.50148 0.9306 0.35779 0.0
C2062 C 0.53509 0.92381 0.38128 0.0
C2063 C 0.55644 0.91415 0.36987 0.0
C2064 C 0.54974 0.91287 0.35226 0.0
C2065 C 0.52234 0.92055 0.34633 0.0
C2066 C 0.62409 0.86913 0.37574 0.0
C2067 C 0.63592 0.88076 0.39078 0.0
C2068 C 0.59881 0.8804 0.36876 0.0
C2069 C 0.58485 0.90393 0.37647 0.0
C2070 C 0.59751 0.9164 0.39111 0.0
C2071 C 0.62261 0.90478 0.39828 0.0
H2072 H 0.81123 0.74133 0.13502 0.0
H2073 H 0.84967 0.76263 0.08653 0.0
H2074 H 0.82269 0.78875 0.14593 0.0
H2075 H 0.86438 0.8093 0.09786 0.0
H2076 H 0.87513 0.89916 0.11796 0.0
H2077 H 0.85476 0.85505 0.10612 0.0
H2078 H 0.85732 0.81648 0.15659 0.0
H2079 H 0.87498 0.86128 0.16834 0.0
C2080 C 0.82189 0.7565 0.12663 0.0
C2081 C 0.82829 0.74895 0.10969 0.0
C2082 C 0.82923 0.78358 0.13301 0.0
C2083 C 0.84467 0.80341 0.1229 0.0
C2084 C 0.85181 0.7953 0.106 0.0
C2085 C 0.84368 0.76838 0.09949 0.0
C2086 C 0.87071 0.8813 0.12648 0.0
C2087 C 0.87643 0.88366 0.14407 0.0
C2088 C 0.85937 0.85578 0.11969 0.0
C2089 C 0.85443 0.83163 0.13025 0.0
C2090 C 0.85995 0.83444 0.14793 0.0
C2091 C 0.87034 0.86022 0.15476 0.0
H2092 H 0.01986 0.06226 0.88688 0.0
H2093 H 0.9973 0.09839 0.83795 0.0
H2094 H 0.97243 0.07361 0.89787 0.0
H2095 H 0.95064 0.11292 0.84926 0.0
H2096 H 0.86098 0.12311 0.86924 0.0
H2097 H 0.90524 0.10266 0.85773 0.0
H2098 H 0.94393 0.10804 0.9081 0.0
H2099 H 0.89893 0.12576 0.91958 0.0
C2100 C 1.00442 0.0724 0.87842 0.0
C2101 C 0.0116 0.07817 0.86135 0.0
C2102 C 0.97733 0.07965 0.88482 0.0
C2103 C 0.95711 0.0943 0.87456 0.0
C2104 C 0.96491 0.10089 0.85753 0.0
C2105 C 0.99183 0.09289 0.85102 0.0
C2106 C 0.87889 0.11927 0.87783 0.0
C2107 C 0.87652 0.12583 0.8953 0.0
C2108 C 0.90451 0.1079 0.87122 0.0
C2109 C 0.92876 0.10383 0.88182 0.0
C2110 C 0.92592 0.11006 0.89942 0.0
C2111 C 0.90003 0.12047 0.90609 0.0
H2112 H 0.8397 0.74641 0.58347 0.0
H2113 H 0.81903 0.77096 0.63518 0.0
H2114 H 0.85276 0.69819 0.59335 0.0
H2115 H 0.83349 0.72362 0.6454 0.0
H2116 H 0.84421 0.63083 0.65956 0.0
H2117 H 0.82355 0.67464 0.64739 0.0
H2118 H 0.88867 0.6739 0.60784 0.0
H2119 H 0.90797 0.62954 0.61941 0.0
C2120 C 0.83796 0.74133 0.59696 0.0
C2121 C 0.82769 0.76192 0.60853 0.0
C2122 C 0.84565 0.71383 0.60271 0.0
C2123 C 0.8442 0.70673 0.62025 0.0
C2124 C 0.83428 0.7278 0.63178 0.0
C2125 C 0.82612 0.75504 0.62597 0.0
C2126 C 0.85376 0.63988 0.64812 0.0
C2127 C 0.87774 0.62675 0.64048 0.0
C2128 C 0.84211 0.66517 0.6412 0.0
C2129 C 0.85453 0.6782 0.62666 0.0
C2130 C 0.87808 0.66447 0.61883 0.0
C2131 C 0.88935 0.639 0.62556 0.0
H2132 H 0.6507 0.62517 0.86762 0.0
H2133 H 0.61248 0.62645 0.91787 0.0
H2134 H 0.60656 0.60484 0.85582 0.0
H2135 H 0.56762 0.60885 0.90614 0.0
H2136 H 0.49225 0.56279 0.88451 0.0
H2137 H 0.53958 0.57427 0.89562 0.0
H2138 H 0.56105 0.61489 0.84736 0.0
H2139 H 0.51451 0.60023 0.83589 0.0
C2140 C 0.63275 0.62108 0.87612 0.0
C2141 C 0.63502 0.62719 0.89365 0.0
C2142 C 0.60721 0.60977 0.86935 0.0
C2143 C 0.58294 0.60528 0.87987 0.0
C2144 C 0.58566 0.61116 0.89752 0.0
C2145 C 0.61147 0.62151 0.90433 0.0
C2146 C 0.5076 0.57325 0.87614 0.0
C2147 C 0.50038 0.57935 0.85912 0.0
C2148 C 0.53463 0.58057 0.88262 0.0
C2149 C 0.55471 0.59565 0.8725 0.0
C2150 C 0.54687 0.60255 0.85551 0.0
C2151 C 0.52002 0.59446 0.84892 0.0
H2152 H 0.63234 0.3605 0.16929 0.0
H2153 H 0.63448 0.39847 0.11896 0.0
H2154 H 0.64981 0.31542 0.15771 0.0
H2155 H 0.65467 0.35417 0.10735 0.0
H2156 H 0.65953 0.26243 0.08737 0.0
H2157 H 0.64436 0.30875 0.09889 0.0
H2158 H 0.68434 0.28711 0.14734 0.0
H2159 H 0.69639 0.23997 0.13614 0.0
C2160 C 0.63744 0.35938 0.15577 0.0
C2161 C 0.63204 0.38291 0.14502 0.0
C2162 C 0.6477 0.33346 0.14905 0.0
C2163 C 0.65374 0.33063 0.13143 0.0
C2164 C 0.64957 0.35489 0.12085 0.0
C2165 C 0.63835 0.38053 0.12752 0.0
C2166 C 0.66501 0.26784 0.10046 0.0
C2167 C 0.68019 0.24824 0.11067 0.0
C2168 C 0.65665 0.29457 0.10709 0.0
C2169 C 0.66332 0.30234 0.12412 0.0
C2170 C 0.67827 0.28223 0.13429 0.0
C2171 C 0.68591 0.25531 0.12777 0.0
H2172 H 0.88033 0.4142 0.41111 0.0
H2173 H 0.87873 0.35156 0.37031 0.0
H2174 H 0.92429 0.43493 0.3992 0.0
H2175 H 0.92319 0.37099 0.35896 0.0
H2176 H 0.99561 0.42066 0.33509 0.0
H2177 H 0.9474 0.40753 0.34488 0.0
H2178 H 0.97332 0.42442 0.39715 0.0
H2179 H 0.02074 0.43893 0.38704 0.0
C2180 C 0.88933 0.40494 0.39957 0.0
C2181 C 0.87609 0.38122 0.39168 0.0
C2182 C 0.91469 0.41663 0.3928 0.0
C2183 C 0.92766 0.40454 0.37815 0.0
C2184 C 0.9138 0.3813 0.37006 0.0
C2185 C 0.88828 0.36997 0.37665 0.0
C2186 C 0.99065 0.42186 0.34862 0.0
C2187 C 0.0114 0.43151 0.36029 0.0
C2188 C 0.96316 0.41413 0.3543 0.0
C2189 C 0.95621 0.4149 0.37187 0.0
C2190 C 0.97742 0.42417 0.38351 0.0
C2191 C 1.00468 0.43237 0.37777 0.0
H2192 H 0.87747 0.35981 0.84448 0.0
H2193 H 0.8759 0.39843 0.89463 0.0
H2194 H 0.86007 0.31494 0.8563 0.0
H2195 H 0.85575 0.35428 0.90651 0.0
H2196 H 0.85043 0.26259 0.92679 0.0
H2197 H 0.86565 0.30884 0.91515 0.0
H2198 H 0.82553 0.28692 0.86679 0.0
H2199 H 0.81347 0.23988 0.87809 0.0
C2200 C 0.87251 0.35888 0.85802 0.0
C2201 C 0.87803 0.38256 0.86864 0.0
C2202 C 0.86228 0.33307 0.86488 0.0
C2203 C 0.85635 0.33046 0.88253 0.0
C2204 C 0.86072 0.35484 0.89299 0.0
C2205 C 0.87191 0.38039 0.88617 0.0
C2206 C 0.84494 0.26793 0.91369 0.0
C2207 C 0.82973 0.24828 0.90353 0.0
C2208 C 0.85334 0.29462 0.90699 0.0
C2209 C 0.84667 0.30228 0.88995 0.0
C2210 C 0.83164 0.28212 0.87984 0.0
C2211 C 0.82398 0.25526 0.88643 0.0
H2212 H 0.99429 0.5896 0.18052 0.0
H2213 H 0.02011 0.56929 0.12898 0.0
H2214 H 0.94627 0.60244 0.1703 0.0
H2215 H 0.97289 0.5836 0.1184 0.0
H2216 H 0.8803 0.59467 0.1036 0.0
H2217 H 0.92392 0.57389 0.11595 0.0
H2218 H 0.92234 0.63846 0.15583 0.0
H2219 H 0.87816 0.65785 0.14407 0.0
C2220 C 0.98952 0.58786 0.16698 0.0
C2221 C 0.01042 0.57775 0.15557 0.0
C2222 C 0.96212 0.59545 0.16104 0.0
C2223 C 0.95543 0.59414 0.14345 0.0
C2224 C 0.97677 0.58431 0.13206 0.0
C2225 C 1.00393 0.57621 0.13807 0.0
C2226 C 0.88912 0.60406 0.11515 0.0
C2227 C 0.8758 0.62791 0.12284 0.0
C2228 C 0.9143 0.59233 0.12218 0.0
C2229 C 0.92704 0.60457 0.13686 0.0
C2230 C 0.91312 0.628 0.14473 0.0
C2231 C 0.88775 0.63932 0.1379 0.0
H2232 H 0.60309 0.62776 0.39445 0.0
H2233 H 0.66665 0.62951 0.3542 0.0
H2234 H 0.62269 0.67182 0.40628 0.0
H2235 H 0.68763 0.67293 0.36664 0.0
H2236 H 0.69234 0.76907 0.37901 0.0
H2237 H 0.67788 0.72178 0.36875 0.0
H2238 H 0.65849 0.69623 0.42077 0.0
H2239 H 0.67153 0.74444 0.43069 0.0
C2240 C 0.62175 0.63723 0.38835 0.0
C2241 C 0.63318 0.62524 0.37331 0.0
C2242 C 0.63319 0.66253 0.39522 0.0
C2243 C 0.65674 0.67633 0.38742 0.0
C2244 C 0.66906 0.66345 0.3728 0.0
C2245 C 0.65722 0.63837 0.36573 0.0
C2246 C 0.68524 0.75313 0.38821 0.0
C2247 C 0.68361 0.76 0.40565 0.0
C2248 C 0.67708 0.72591 0.38237 0.0
C2249 C 0.66711 0.70481 0.39388 0.0
C2250 C 0.66563 0.71188 0.41143 0.0
C2251 C 0.67331 0.73938 0.4172 0.0
H2252 H 0.62827 0.41444 0.60203 0.0
H2253 H 0.63053 0.3518 0.64282 0.0
H2254 H 0.58437 0.43501 0.6141 0.0
H2255 H 0.58612 0.37104 0.65432 0.0
H2256 H 0.5138 0.42051 0.67851 0.0
H2257 H 0.56189 0.40737 0.66852 0.0
H2258 H 0.53543 0.42453 0.61637 0.0
H2259 H 0.48815 0.43908 0.62668 0.0
C2260 C 0.61943 0.40513 0.6136 0.0
C2261 C 0.63285 0.38148 0.62144 0.0
C2262 C 0.5941 0.41673 0.62046 0.0
C2263 C 0.58132 0.40459 0.63516 0.0
C2264 C 0.59535 0.38139 0.6432 0.0
C2265 C 0.62085 0.37017 0.63651 0.0
C2266 C 0.51862 0.42176 0.66496 0.0
C2267 C 0.49777 0.43151 0.65339 0.0
C2268 C 0.54604 0.41402 0.65917 0.0
C2269 C 0.55282 0.41488 0.64157 0.0
C2270 C 0.53148 0.42422 0.63002 0.0
C2271 C 0.50429 0.43243 0.63589 0.0
H2272 H 0.13518 0.36092 0.34574 0.0
H2273 H 0.13629 0.39831 0.39623 0.0
H2274 H 0.15355 0.31612 0.35716 0.0
H2275 H 0.15732 0.35427 0.40772 0.0
H2276 H 0.16297 0.26173 0.42696 0.0
H2277 H 0.1478 0.30841 0.41588 0.0
H2278 H 0.18877 0.28859 0.36749 0.0
H2279 H 0.20072 0.24112 0.37817 0.0
C2280 C 0.14025 0.35975 0.35926 0.0
C2281 C 0.1343 0.38303 0.3701 0.0
C2282 C 0.15103 0.33399 0.3659 0.0
C2283 C 0.15707 0.33108 0.38352 0.0
C2284 C 0.1523 0.35509 0.3942 0.0
C2285 C 0.14058 0.38057 0.38761 0.0
C2286 C 0.16871 0.26765 0.41399 0.0
C2287 C 0.18403 0.24842 0.40362 0.0
C2288 C 0.16033 0.29457 0.40762 0.0
C2289 C 0.16714 0.30287 0.3907 0.0
C2290 C 0.18251 0.28325 0.38043 0.0
C2291 C 0.19012 0.25615 0.38668 0.0
H2292 H 0.37701 0.35302 0.14408 0.0
H2293 H 0.38022 0.41556 0.10327 0.0
H2294 H 0.42136 0.37213 0.15587 0.0
H2295 H 0.42398 0.43598 0.1156 0.0
H2296 H 0.51998 0.43969 0.1285 0.0
H2297 H 0.47276 0.42525 0.11806 0.0
H2298 H 0.44584 0.40836 0.17013 0.0
H2299 H 0.49391 0.42144 0.18028 0.0
C2300 C 0.38688 0.37133 0.13783 0.0
C2301 C 0.37519 0.38265 0.12267 0.0
C2302 C 0.41235 0.38248 0.14467 0.0
C2303 C 0.42661 0.40559 0.13669 0.0
C2304 C 0.4141 0.41775 0.12192 0.0
C2305 C 0.38883 0.40624 0.1149 0.0
C2306 C 0.50376 0.43314 0.13767 0.0
C2307 C 0.51017 0.43228 0.1552 0.0
C2308 C 0.47659 0.42498 0.13173 0.0
C2309 C 0.45513 0.41576 0.14321 0.0
C2310 C 0.46178 0.41495 0.16083 0.0
C2311 C 0.48919 0.42265 0.16671 0.0
H2312 H 0.3498 0.74647 0.92697 0.0
H2313 H 0.31302 0.76952 0.87829 0.0
H2314 H 0.36466 0.70012 0.91532 0.0
H2315 H 0.32466 0.72238 0.86698 0.0
H2316 H 0.37751 0.65019 0.84453 0.0
H2317 H 0.35952 0.69473 0.85646 0.0
H2318 H 0.35491 0.65473 0.90649 0.0
H2319 H 0.37563 0.61092 0.8945 0.0
C2320 C 0.34421 0.74116 0.91388 0.0
C2321 C 0.32924 0.76098 0.90372 0.0
C2322 C 0.35242 0.71443 0.90718 0.0
C2323 C 0.34577 0.70689 0.89011 0.0
C2324 C 0.33079 0.72711 0.88003 0.0
C2325 C 0.32336 0.75403 0.88663 0.0
C2326 C 0.37235 0.6509 0.85804 0.0
C2327 C 0.37798 0.62715 0.86859 0.0
C2328 C 0.36177 0.67651 0.86497 0.0
C2329 C 0.35562 0.67884 0.88261 0.0
C2330 C 0.36005 0.65437 0.89298 0.0
C2331 C 0.37158 0.62902 0.8861 0.0
H2332 H 0.98925 0.5707 0.62765 0.0
H2333 H 0.01432 0.59007 0.67947 0.0
H2334 H 0.0365 0.58536 0.61742 0.0
H2335 H 0.06245 0.60336 0.66955 0.0
H2336 H 0.12901 0.59645 0.60304 0.0
H2337 H 0.08548 0.57535 0.61526 0.0
H2338 H 0.08642 0.63978 0.65523 0.0
H2339 H 0.13051 0.65954 0.64359 0.0
C2340 C 0.00528 0.57754 0.63687 0.0
C2341 C 0.99857 0.57869 0.65435 0.0
C2342 C 0.03246 0.58581 0.63106 0.0
C2343 C 0.05363 0.59544 0.64261 0.0
C2344 C 0.04671 0.59647 0.66019 0.0
C2345 C 0.01927 0.58866 0.66595 0.0
C2346 C 0.12007 0.60575 0.61458 0.0
C2347 C 0.13315 0.62969 0.62231 0.0
C2348 C 0.09495 0.59384 0.62154 0.0
C2349 C 0.08205 0.60596 0.6362 0.0
C2350 C 0.09576 0.62944 0.64413 0.0
C2351 C 0.12106 0.64097 0.63736 0.0
H2352 H 0.13268 0.65074 0.17001 0.0
H2353 H 0.13556 0.61138 0.12008 0.0
H2354 H 0.15072 0.69535 0.15813 0.0
H2355 H 0.15628 0.65524 0.10818 0.0
H2356 H 0.16118 0.74686 0.08759 0.0
H2357 H 0.14627 0.70056 0.09928 0.0
H2358 H 0.18575 0.72307 0.14772 0.0
H2359 H 0.19751 0.77017 0.13636 0.0
C2360 C 0.13806 0.65145 0.15652 0.0
C2361 C 0.13269 0.62767 0.14596 0.0
C2362 C 0.14866 0.6771 0.14963 0.0
C2363 C 0.15508 0.6794 0.13203 0.0
C2364 C 0.15092 0.6549 0.12165 0.0
C2365 C 0.13938 0.62953 0.12849 0.0
C2366 C 0.16665 0.74162 0.10071 0.0
C2367 C 0.18152 0.7615 0.11089 0.0
C2368 C 0.15842 0.71492 0.10743 0.0
C2369 C 0.16492 0.70746 0.12453 0.0
C2370 C 0.17977 0.72774 0.13463 0.0
C2371 C 0.18725 0.75463 0.12801 0.0
H2372 H 0.15015 0.38563 0.86692 0.0
H2373 H 0.11224 0.38469 0.91726 0.0
H2374 H 0.10588 0.40574 0.85516 0.0
H2375 H 0.06725 0.40203 0.90557 0.0
H2376 H 0.99162 0.44771 0.88405 0.0
H2377 H 0.03902 0.43635 0.89507 0.0
H2378 H 0.06035 0.39583 0.84676 0.0
H2379 H 0.01372 0.41042 0.83537 0.0
C2380 C 0.13224 0.38975 0.87545 0.0
C2381 C 0.13464 0.38382 0.893 0.0
C2382 C 0.10662 0.40093 0.8687 0.0
C2383 C 0.0824 0.40545 0.87926 0.0
C2384 C 0.08525 0.39972 0.89692 0.0
C2385 C 0.11113 0.38951 0.90371 0.0
C2386 C 0.00695 0.43731 0.87565 0.0
C2387 C 0.99965 0.43122 0.85863 0.0
C2388 C 0.03403 0.43004 0.88208 0.0
C2389 C 0.0541 0.41501 0.87192 0.0
C2390 C 0.04619 0.40812 0.85495 0.0
C2391 C 0.01929 0.41617 0.84839 0.0
H2392 H 0.3477 0.26271 0.58634 0.0
H2393 H 0.30808 0.24186 0.63456 0.0
H2394 H 0.36238 0.30934 0.59767 0.0
H2395 H 0.31965 0.28932 0.64549 0.0
H2396 H 0.37303 0.36153 0.66792 0.0
H2397 H 0.35465 0.31685 0.65628 0.0
H2398 H 0.35244 0.35516 0.60575 0.0
H2399 H 0.37339 0.39906 0.61746 0.0
C2400 C 0.34143 0.26857 0.59923 0.0
C2401 C 0.32574 0.24926 0.60935 0.0
C2402 C 0.34955 0.29547 0.60575 0.0
C2403 C 0.34211 0.3037 0.62258 0.0
C2404 C 0.32636 0.28403 0.63261 0.0
C2405 C 0.31898 0.25695 0.62622 0.0
C2406 C 0.36829 0.36043 0.65436 0.0
C2407 C 0.37468 0.3837 0.64359 0.0
C2408 C 0.35751 0.33474 0.6476 0.0
C2409 C 0.35197 0.33189 0.62991 0.0
C2410 C 0.3571 0.35592 0.61931 0.0
C2411 C 0.36878 0.38132 0.62603 0.0
H2412 H 0.49793 0.60086 0.33716 0.0
H2413 H 0.51959 0.56176 0.38543 0.0
H2414 H 0.45144 0.61559 0.34869 0.0
H2415 H 0.47234 0.57339 0.39657 0.0
H2416 H 0.40002 0.62604 0.41917 0.0
H2417 H 0.44477 0.60826 0.40735 0.0
H2418 H 0.40578 0.6053 0.357 0.0
H2419 H 0.36178 0.62571 0.36888 0.0
C2420 C 0.4923 0.59476 0.35011 0.0
C2421 C 0.51175 0.57917 0.3602 0.0
C2422 C 0.46549 0.60289 0.35674 0.0
C2423 C 0.45753 0.59557 0.37364 0.0
C2424 C 0.47741 0.58001 0.38364 0.0
C2425 C 0.50438 0.57262 0.37714 0.0
C2426 C 0.40099 0.62127 0.40561 0.0
C2427 C 0.37749 0.62727 0.39494 0.0
C2428 C 0.42672 0.61084 0.39875 0.0
C2429 C 0.42938 0.60524 0.38106 0.0
C2430 C 0.40515 0.61001 0.37056 0.0
C2431 C 0.3797 0.62137 0.37738 0.0
loop_
_geom_bond_atom_site_label_1
_geom_bond_atom_site_label_2
_geom_bond_distance
_geom_bond_site_symmetry_2
_ccdc_geom_bond_type
Mn0 O5 2.095 . S
Mn0 O15 2.162 . S
Mn0 O16 2.297 . S
Mn0 O24 2.385 . S
Mn0 O25 2.209 . S
Mn0 O26 2.094 . S
Mn1 O6 2.121 1_545 S
Mn1 N8 2.255 1_545 S
Mn1 N17 2.282 . S
Mn1 O25 2.221 . S
Mn1 O27 2.119 . S
C2 O24 1.234 . S
C2 O25 1.283 . S
C3 O15 1.281 . S
C3 O16 1.236 . S
C4 O26 1.240 . S
C4 O27 1.264 . S
O5 Mn0 2.095 . S
O5 C14 1.250 . S
O6 Mn1 2.121 1_565 S
O6 C14 1.258 1_565 S
C7 N8 1.326 . S
C7 C11 1.460 . S
C7 H13 0.929 . S
N8 Mn1 2.255 1_565 S
N8 C7 1.326 . S
N8 C12 1.362 . S
C9 C10 1.258 . S
C9 C12 1.431 . S
C9 C29 1.449 . S
C10 C9 1.258 . S
C10 C11 1.477 . S
C10 H30 0.931 . S
C11 C7 1.460 . S
C11 C10 1.477 . S
C11 H31 0.930 . S
C12 N8 1.362 . S
C12 C9 1.431 . S
C12 C22 1.476 . S
H13 C7 0.929 . S
C14 O5 1.250 . S
C14 O6 1.258 1_545 S
O15 Mn0 2.162 . S
O15 C3 1.281 . S
O16 Mn0 2.297 . S
O16 C3 1.236 . S
N17 Mn1 2.282 . S
N17 C18 1.328 . S
N17 C22 1.318 1_545 S
C18 N17 1.328 . S
C18 C19 1.457 . S
C18 H23 0.929 . S
C19 C18 1.457 . S
C19 C20 1.291 . S
C19 H32 0.931 . S
C20 C19 1.291 . S
C20 C21 1.373 1_545 S
C20 H33 0.929 . S
C21 C20 1.373 1_565 S
C21 C22 1.396 . S
C21 C28 1.403 . S
C22 C12 1.476 . S
C22 N17 1.318 1_565 S
C22 C21 1.396 . S
H23 C18 0.929 . S
O24 Mn0 2.385 . S
O24 C2 1.234 . S
O25 Mn0 2.209 . S
O25 Mn1 2.221 . S
O25 C2 1.283 . S
O26 Mn0 2.094 . S
O26 C4 1.240 . S
O27 Mn1 2.119 . S
O27 C4 1.264 . S
C28 C21 1.403 . S
C28 C29 1.399 . S
C28 H34 0.929 . S
C29 C9 1.449 . S
C29 C28 1.399 . S
C29 H35 0.930 . S
H30 C10 0.931 . S
H31 C11 0.930 . S
H32 C19 0.931 . S
H33 C20 0.929 . S
H34 C28 0.929 . S
H35 C29 0.930 . S
Mn36 O41 2.095 . S
Mn36 O51 2.162 . S
Mn36 O52 2.297 . S
Mn36 O60 2.385 . S
Mn36 O61 2.209 . S
Mn36 O62 2.094 . S
Mn37 O42 2.121 . S
Mn37 N44 2.257 . S
Mn37 N53 2.282 . S
Mn37 O61 2.215 . S
Mn37 O63 2.117 . S
C38 O60 1.234 . S
C38 O61 1.283 . S
C39 O51 1.281 . S
C39 O52 1.236 . S
C40 O62 1.240 . S
C40 O63 1.264 . S
O41 Mn36 2.095 . S
O41 C50 1.250 . S
O42 Mn37 2.121 . S
O42 C50 1.258 . S
C43 N44 1.326 . S
C43 C47 1.460 . S
C43 H49 0.929 . S
N44 Mn37 2.257 . S
N44 C43 1.326 . S
N44 C48 1.362 . S
C45 C46 1.258 . S
C45 C48 1.431 . S
C45 C65 1.449 . S
C46 C45 1.258 . S
C46 C47 1.477 . S
C46 H66 0.931 . S
C47 C43 1.460 . S
C47 C46 1.477 . S
C47 H67 0.930 . S
C48 N44 1.362 . S
C48 C45 1.431 . S
C48 C58 1.476 . S
H49 C43 0.929 . S
C50 O41 1.250 . S
C50 O42 1.258 . S
O51 Mn36 2.162 . S
O51 C39 1.281 . S
O52 Mn36 2.297 . S
O52 C39 1.236 . S
N53 Mn37 2.282 . S
N53 C54 1.328 . S
N53 C58 1.318 . S
C54 N53 1.328 . S
C54 C55 1.457 . S
C54 H59 0.929 . S
C55 C54 1.457 . S
C55 C56 1.291 . S
C55 H68 0.931 . S
C56 C55 1.291 . S
C56 C57 1.373 . S
C56 H69 0.929 . S
C57 C56 1.373 . S
C57 C58 1.396 . S
C57 C64 1.403 . S
C58 C48 1.476 . S
C58 N53 1.318 . S
C58 C57 1.396 . S
H59 C54 0.929 . S
O60 Mn36 2.385 . S
O60 C38 1.234 . S
O61 Mn36 2.209 . S
O61 Mn37 2.215 . S
O61 C38 1.283 . S
O62 Mn36 2.094 . S
O62 C40 1.240 . S
O63 Mn37 2.117 . S
O63 C40 1.264 . S
C64 C57 1.403 . S
C64 C65 1.399 . S
C64 H70 0.929 . S
C65 C45 1.449 . S
C65 C64 1.399 . S
C65 H71 0.930 . S
H66 C46 0.931 . S
H67 C47 0.930 . S
H68 C55 0.931 . S
H69 C56 0.929 . S
H70 C64 0.929 . S
H71 C65 0.930 . S
Mn72 O77 2.095 . S
Mn72 O87 2.162 . S
Mn72 O88 2.297 . S
Mn72 O96 2.385 . S
Mn72 O97 2.209 . S
Mn72 O98 2.094 . S
Mn73 O78 2.121 1_565 S
Mn73 N80 2.255 1_565 S
Mn73 N89 2.282 . S
Mn73 O97 2.221 . S
Mn73 O99 2.119 . S
C74 O96 1.234 . S
C74 O97 1.283 . S
C75 O87 1.281 . S
C75 O88 1.236 . S
C76 O98 1.240 . S
C76 O99 1.264 . S
O77 Mn72 2.095 . S
O77 C86 1.250 . S
O78 Mn73 2.121 1_545 S
O78 C86 1.258 1_545 S
C79 N80 1.326 . S
C79 C83 1.460 . S
C79 H85 0.929 . S
N80 Mn73 2.255 1_545 S
N80 C79 1.326 . S
N80 C84 1.362 . S
C81 C82 1.258 1_655 S
C81 C84 1.431 1_655 S
C81 C101 1.449 . S
C82 C81 1.258 1_455 S
C82 C83 1.477 . S
C82 H102 0.931 1_455 S
C83 C79 1.460 . S
C83 C82 1.477 . S
C83 H103 0.930 . S
C84 N80 1.362 . S
C84 C81 1.431 1_455 S
C84 C94 1.476 . S
H85 C79 0.929 . S
C86 O77 1.250 . S
C86 O78 1.258 1_565 S
O87 Mn72 2.162 . S
O87 C75 1.281 . S
O88 Mn72 2.297 . S
O88 C75 1.236 . S
N89 Mn73 2.282 . S
N89 C90 1.328 . S
N89 C94 1.318 1_565 S
C90 N89 1.328 . S
C90 C91 1.457 1_455 S
C90 H95 0.929 . S
C91 C90 1.457 1_655 S
C91 C92 1.291 . S
C91 H104 0.931 . S
C92 C91 1.291 . S
C92 C93 1.373 1_565 S
C92 H105 0.929 . S
C93 C92 1.373 1_545 S
C93 C94 1.396 1_655 S
C93 C100 1.403 . S
C94 C84 1.476 . S
C94 N89 1.318 1_545 S
C94 C93 1.396 1_455 S
H95 C90 0.929 . S
O96 Mn72 2.385 . S
O96 C74 1.234 . S
O97 Mn72 2.209 . S
O97 Mn73 2.221 . S
O97 C74 1.283 . S
O98 Mn72 2.094 . S
O98 C76 1.240 . S
O99 Mn73 2.119 . S
O99 C76 1.264 . S
C100 C93 1.403 . S
C100 C101 1.399 . S
C100 H106 0.929 . S
C101 C81 1.449 . S
C101 C100 1.399 . S
C101 H107 0.930 . S
H102 C82 0.931 1_655 S
H103 C83 0.930 . S
H104 C91 0.931 . S
H105 C92 0.929 . S
H106 C100 0.929 . S
H107 C101 0.930 . S
Mn108 O113 2.095 . S
Mn108 O123 2.162 . S
Mn108 O124 2.297 . S
Mn108 O132 2.385 . S
Mn108 O133 2.209 . S
Mn108 O134 2.094 . S
Mn109 O114 2.121 . S
Mn109 N116 2.257 . S
Mn109 N125 2.282 . S
Mn109 O133 2.215 . S
Mn109 O135 2.117 . S
C110 O132 1.234 . S
C110 O133 1.283 . S
C111 O123 1.281 . S
C111 O124 1.236 . S
C112 O134 1.240 . S
C112 O135 1.264 . S
O113 Mn108 2.095 . S
O113 C122 1.250 . S
O114 Mn109 2.121 . S
O114 C122 1.258 . S
C115 N116 1.326 . S
C115 C119 1.460 . S
C115 H121 0.929 . S
N116 Mn109 2.257 . S
N116 C115 1.326 . S
N116 C120 1.362 . S
C117 C118 1.258 . S
C117 C120 1.431 . S
C117 C137 1.449 . S
C118 C117 1.258 . S
C118 C119 1.477 . S
C118 H138 0.931 . S
C119 C115 1.460 . S
C119 C118 1.477 . S
C119 H139 0.930 . S
C120 N116 1.362 . S
C120 C117 1.431 . S
C120 C130 1.476 . S
H121 C115 0.929 . S
C122 O113 1.250 . S
C122 O114 1.258 . S
O123 Mn108 2.162 . S
O123 C111 1.281 . S
O124 Mn108 2.297 . S
O124 C111 1.236 . S
N125 Mn109 2.282 . S
N125 C126 1.328 . S
N125 C130 1.318 . S
C126 N125 1.328 . S
C126 C127 1.457 . S
C126 H131 0.929 . S
C127 C126 1.457 . S
C127 C128 1.291 . S
C127 H140 0.931 . S
C128 C127 1.291 . S
C128 C129 1.373 . S
C128 H141 0.929 . S
C129 C128 1.373 . S
C129 C130 1.396 . S
C129 C136 1.403 . S
C130 C120 1.476 . S
C130 N125 1.318 . S
C130 C129 1.396 . S
H131 C126 0.929 . S
O132 Mn108 2.385 . S
O132 C110 1.234 . S
O133 Mn108 2.209 . S
O133 Mn109 2.215 . S
O133 C110 1.283 . S
O134 Mn108 2.094 . S
O134 C112 1.240 . S
O135 Mn109 2.117 . S
O135 C112 1.264 . S
C136 C129 1.403 . S
C136 C137 1.399 . S
C136 H142 0.929 . S
C137 C117 1.449 . S
C137 C136 1.399 . S
C137 H143 0.930 . S
H138 C118 0.931 . S
H139 C119 0.930 . S
H140 C127 0.931 . S
H141 C128 0.929 . S
H142 C136 0.929 . S
H143 C137 0.930 . S
Mn144 O149 2.095 . S
Mn144 O159 2.162 . S
Mn144 O160 2.297 . S
Mn144 O168 2.385 . S
Mn144 O169 2.209 . S
Mn144 O170 2.094 . S
Mn145 O150 2.121 1_565 S
Mn145 N152 2.255 1_565 S
Mn145 N161 2.282 . S
Mn145 O169 2.221 . S
Mn145 O171 2.119 . S
C146 O168 1.234 . S
C146 O169 1.283 . S
C147 O159 1.281 . S
C147 O160 1.236 . S
C148 O170 1.240 . S
C148 O171 1.264 . S
O149 Mn144 2.095 . S
O149 C158 1.250 . S
O150 Mn145 2.121 1_545 S
O150 C158 1.258 1_545 S
C151 N152 1.326 . S
C151 C155 1.460 . S
C151 H157 0.929 . S
N152 Mn145 2.255 1_545 S
N152 C151 1.326 . S
N152 C156 1.362 . S
C153 C154 1.258 . S
C153 C156 1.431 . S
C153 C173 1.449 . S
C154 C153 1.258 . S
C154 C155 1.477 . S
C154 H174 0.931 . S
C155 C151 1.460 . S
C155 C154 1.477 . S
C155 H175 0.930 . S
C156 N152 1.362 . S
C156 C153 1.431 . S
C156 C166 1.476 . S
H157 C151 0.929 . S
C158 O149 1.250 . S
C158 O150 1.258 1_565 S
O159 Mn144 2.162 . S
O159 C147 1.281 . S
O160 Mn144 2.297 . S
O160 C147 1.236 . S
N161 Mn145 2.282 . S
N161 C162 1.328 . S
N161 C166 1.318 1_565 S
C162 N161 1.328 . S
C162 C163 1.457 . S
C162 H167 0.929 . S
C163 C162 1.457 . S
C163 C164 1.291 . S
C163 H176 0.931 . S
C164 C163 1.291 . S
C164 C165 1.373 1_565 S
C164 H177 0.929 . S
C165 C164 1.373 1_545 S
C165 C166 1.396 . S
C165 C172 1.403 . S
C166 C156 1.476 . S
C166 N161 1.318 1_545 S
C166 C165 1.396 . S
H167 C162 0.929 . S
O168 Mn144 2.385 . S
O168 C146 1.234 . S
O169 Mn144 2.209 . S
O169 Mn145 2.221 . S
O169 C146 1.283 . S
O170 Mn144 2.094 . S
O170 C148 1.240 . S
O171 Mn145 2.119 . S
O171 C148 1.264 . S
C172 C165 1.403 . S
C172 C173 1.399 . S
C172 H178 0.929 . S
C173 C153 1.449 . S
C173 C172 1.399 . S
C173 H179 0.930 . S
H174 C154 0.931 . S
H175 C155 0.930 . S
H176 C163 0.931 . S
H177 C164 0.929 . S
H178 C172 0.929 . S
H179 C173 0.930 . S
Mn180 O185 2.095 . S
Mn180 O195 2.162 . S
Mn180 O196 2.297 . S
Mn180 O204 2.385 . S
Mn180 O205 2.209 . S
Mn180 O206 2.094 . S
Mn181 O186 2.121 . S
Mn181 N188 2.257 . S
Mn181 N197 2.282 . S
Mn181 O205 2.215 . S
Mn181 O207 2.117 . S
C182 O204 1.234 . S
C182 O205 1.283 . S
C183 O195 1.281 . S
C183 O196 1.236 . S
C184 O206 1.240 . S
C184 O207 1.264 . S
O185 Mn180 2.095 . S
O185 C194 1.250 . S
O186 Mn181 2.121 . S
O186 C194 1.258 . S
C187 N188 1.326 . S
C187 C191 1.460 . S
C187 H193 0.929 . S
N188 Mn181 2.257 . S
N188 C187 1.326 . S
N188 C192 1.362 . S
C189 C190 1.258 . S
C189 C192 1.431 . S
C189 C209 1.449 . S
C190 C189 1.258 . S
C190 C191 1.477 . S
C190 H210 0.931 . S
C191 C187 1.460 . S
C191 C190 1.477 . S
C191 H211 0.930 . S
C192 N188 1.362 . S
C192 C189 1.431 . S
C192 C202 1.476 . S
H193 C187 0.929 . S
C194 O185 1.250 . S
C194 O186 1.258 . S
O195 Mn180 2.162 . S
O195 C183 1.281 . S
O196 Mn180 2.297 . S
O196 C183 1.236 . S
N197 Mn181 2.282 . S
N197 C198 1.328 . S
N197 C202 1.318 . S
C198 N197 1.328 . S
C198 C199 1.457 . S
C198 H203 0.929 . S
C199 C198 1.457 . S
C199 C200 1.291 . S
C199 H212 0.931 . S
C200 C199 1.291 . S
C200 C201 1.373 . S
C200 H213 0.929 . S
C201 C200 1.373 . S
C201 C202 1.396 . S
C201 C208 1.403 . S
C202 C192 1.476 . S
C202 N197 1.318 . S
C202 C201 1.396 . S
H203 C198 0.929 . S
O204 Mn180 2.385 . S
O204 C182 1.234 . S
O205 Mn180 2.209 . S
O205 Mn181 2.215 . S
O205 C182 1.283 . S
O206 Mn180 2.094 . S
O206 C184 1.240 . S
O207 Mn181 2.117 . S
O207 C184 1.264 . S
C208 C201 1.403 . S
C208 C209 1.399 . S
C208 H214 0.929 . S
C209 C189 1.449 . S
C209 C208 1.399 . S
C209 H215 0.930 . S
H210 C190 0.931 . S
H211 C191 0.930 . S
H212 C199 0.931 . S
H213 C200 0.929 . S
H214 C208 0.929 . S
H215 C209 0.930 . S
Mn216 O221 2.095 . S
Mn216 O231 2.162 . S
Mn216 O232 2.297 . S
Mn216 O240 2.385 . S
Mn216 O241 2.209 . S
Mn216 O242 2.094 . S
Mn217 O222 2.121 1_545 S
Mn217 N224 2.255 1_545 S
Mn217 N233 2.282 . S
Mn217 O241 2.221 . S
Mn217 O243 2.119 . S
C218 O240 1.234 . S
C218 O241 1.283 . S
C219 O231 1.281 . S
C219 O232 1.236 . S
C220 O242 1.240 . S
C220 O243 1.264 . S
O221 Mn216 2.095 . S
O221 C230 1.250 . S
O222 Mn217 2.121 1_565 S
O222 C230 1.258 1_565 S
C223 N224 1.326 . S
C223 C227 1.460 . S
C223 H229 0.929 . S
N224 Mn217 2.255 1_565 S
N224 C223 1.326 . S
N224 C228 1.362 . S
C225 C226 1.258 1_655 S
C225 C228 1.431 1_655 S
C225 C245 1.449 . S
C226 C225 1.258 1_455 S
C226 C227 1.477 . S
C226 H246 0.931 1_455 S
C227 C223 1.460 . S
C227 C226 1.477 . S
C227 H247 0.930 . S
C228 N224 1.362 . S
C228 C225 1.431 1_455 S
C228 C238 1.476 . S
H229 C223 0.929 . S
C230 O221 1.250 . S
C230 O222 1.258 1_545 S
O231 Mn216 2.162 . S
O231 C219 1.281 . S
O232 Mn216 2.297 . S
O232 C219 1.236 . S
N233 Mn217 2.282 . S
N233 C234 1.328 . S
N233 C238 1.318 1_545 S
C234 N233 1.328 . S
C234 C235 1.457 1_455 S
C234 H239 0.929 . S
C235 C234 1.457 1_655 S
C235 C236 1.291 . S
C235 H248 0.931 . S
C236 C235 1.291 . S
C236 C237 1.373 1_545 S
C236 H249 0.929 . S
C237 C236 1.373 1_565 S
C237 C238 1.396 1_655 S
C237 C244 1.403 . S
C238 C228 1.476 . S
C238 N233 1.318 1_565 S
C238 C237 1.396 1_455 S
H239 C234 0.929 . S
O240 Mn216 2.385 . S
O240 C218 1.234 . S
O241 Mn216 2.209 . S
O241 Mn217 2.221 . S
O241 C218 1.283 . S
O242 Mn216 2.094 . S
O242 C220 1.240 . S
O243 Mn217 2.119 . S
O243 C220 1.264 . S
C244 C237 1.403 . S
C244 C245 1.399 . S
C244 H250 0.929 . S
C245 C225 1.449 . S
C245 C244 1.399 . S
C245 H251 0.930 . S
H246 C226 0.931 1_655 S
H247 C227 0.930 . S
H248 C235 0.931 . S
H249 C236 0.929 . S
H250 C244 0.929 . S
H251 C245 0.930 . S
Mn252 O257 2.095 . S
Mn252 O267 2.162 . S
Mn252 O268 2.297 . S
Mn252 O276 2.385 . S
Mn252 O277 2.209 . S
Mn252 O278 2.094 . S
Mn253 O258 2.121 . S
Mn253 N260 2.257 . S
Mn253 N269 2.282 . S
Mn253 O277 2.215 . S
Mn253 O279 2.117 . S
C254 O276 1.234 . S
C254 O277 1.283 . S
C255 O267 1.281 . S
C255 O268 1.236 . S
C256 O278 1.240 . S
C256 O279 1.264 . S
O257 Mn252 2.095 . S
O257 C266 1.250 . S
O258 Mn253 2.121 . S
O258 C266 1.258 . S
C259 N260 1.326 . S
C259 C263 1.460 . S
C259 H265 0.929 . S
N260 Mn253 2.257 . S
N260 C259 1.326 . S
N260 C264 1.362 . S
C261 C262 1.258 . S
C261 C264 1.431 . S
C261 C281 1.449 . S
C262 C261 1.258 . S
C262 C263 1.477 . S
C262 H282 0.931 . S
C263 C259 1.460 . S
C263 C262 1.477 . S
C263 H283 0.930 . S
C264 N260 1.362 . S
C264 C261 1.431 . S
C264 C274 1.476 . S
H265 C259 0.929 . S
C266 O257 1.250 . S
C266 O258 1.258 . S
O267 Mn252 2.162 . S
O267 C255 1.281 . S
O268 Mn252 2.297 . S
O268 C255 1.236 . S
N269 Mn253 2.282 . S
N269 C270 1.328 . S
N269 C274 1.318 . S
C270 N269 1.328 . S
C270 C271 1.457 . S
C270 H275 0.929 . S
C271 C270 1.457 . S
C271 C272 1.291 . S
C271 H284 0.931 . S
C272 C271 1.291 . S
C272 C273 1.373 . S
C272 H285 0.929 . S
C273 C272 1.373 . S
C273 C274 1.396 . S
C273 C280 1.403 . S
C274 C264 1.476 . S
C274 N269 1.318 . S
C274 C273 1.396 . S
H275 C270 0.929 . S
O276 Mn252 2.385 . S
O276 C254 1.234 . S
O277 Mn252 2.209 . S
O277 Mn253 2.215 . S
O277 C254 1.283 . S
O278 Mn252 2.094 . S
O278 C256 1.240 . S
O279 Mn253 2.117 . S
O279 C256 1.264 . S
C280 C273 1.403 . S
C280 C281 1.399 . S
C280 H286 0.929 . S
C281 C261 1.449 . S
C281 C280 1.399 . S
C281 H287 0.930 . S
H282 C262 0.931 . S
H283 C263 0.930 . S
H284 C271 0.931 . S
H285 C272 0.929 . S
H286 C280 0.929 . S
H287 C281 0.930 . S
Mn288 O293 2.095 . S
Mn288 O303 2.162 . S
Mn288 O304 2.297 . S
Mn288 O312 2.385 . S
Mn288 O313 2.209 . S
Mn288 O314 2.094 . S
Mn289 O294 2.121 1_565 S
Mn289 N296 2.255 1_565 S
Mn289 N305 2.282 . S
Mn289 O313 2.221 . S
Mn289 O315 2.119 . S
C290 O312 1.234 . S
C290 O313 1.283 . S
C291 O303 1.281 . S
C291 O304 1.236 . S
C292 O314 1.240 . S
C292 O315 1.264 . S
O293 Mn288 2.095 . S
O293 C302 1.250 . S
O294 Mn289 2.121 1_545 S
O294 C302 1.258 1_545 S
C295 N296 1.326 . S
C295 C299 1.460 . S
C295 H301 0.929 . S
N296 Mn289 2.255 1_545 S
N296 C295 1.326 . S
N296 C300 1.362 . S
C297 C298 1.258 . S
C297 C300 1.431 . S
C297 C317 1.449 . S
C298 C297 1.258 . S
C298 C299 1.477 . S
C298 H318 0.931 . S
C299 C295 1.460 . S
C299 C298 1.477 . S
C299 H319 0.930 . S
C300 N296 1.362 . S
C300 C297 1.431 . S
C300 C310 1.476 . S
H301 C295 0.929 . S
C302 O293 1.250 . S
C302 O294 1.258 1_565 S
O303 Mn288 2.162 . S
O303 C291 1.281 . S
O304 Mn288 2.297 . S
O304 C291 1.236 . S
N305 Mn289 2.282 . S
N305 C306 1.328 . S
N305 C310 1.318 1_565 S
C306 N305 1.328 . S
C306 C307 1.457 . S
C306 H311 0.929 . S
C307 C306 1.457 . S
C307 C308 1.291 . S
C307 H320 0.931 . S
C308 C307 1.291 . S
C308 C309 1.373 1_565 S
C308 H321 0.929 . S
C309 C308 1.373 1_545 S
C309 C310 1.396 . S
C309 C316 1.403 . S
C310 C300 1.476 . S
C310 N305 1.318 1_545 S
C310 C309 1.396 . S
H311 C306 0.929 . S
O312 Mn288 2.385 . S
O312 C290 1.234 . S
O313 Mn288 2.209 . S
O313 Mn289 2.221 . S
O313 C290 1.283 . S
O314 Mn288 2.094 . S
O314 C292 1.240 . S
O315 Mn289 2.119 . S
O315 C292 1.264 . S
C316 C309 1.403 . S
C316 C317 1.399 . S
C316 H322 0.929 . S
C317 C297 1.449 . S
C317 C316 1.399 . S
C317 H323 0.930 . S
H318 C298 0.931 . S
H319 C299 0.930 . S
H320 C307 0.931 . S
H321 C308 0.929 . S
H322 C316 0.929 . S
H323 C317 0.930 . S
Mn324 O329 2.095 . S
Mn324 O339 2.162 . S
Mn324 O340 2.297 . S
Mn324 O348 2.385 . S
Mn324 O349 2.209 . S
Mn324 O350 2.094 . S
Mn325 O330 2.121 . S
Mn325 N332 2.257 . S
Mn325 N341 2.282 . S
Mn325 O349 2.215 . S
Mn325 O351 2.117 . S
C326 O348 1.234 . S
C326 O349 1.283 . S
C327 O339 1.281 . S
C327 O340 1.236 . S
C328 O350 1.240 . S
C328 O351 1.264 . S
O329 Mn324 2.095 . S
O329 C338 1.250 . S
O330 Mn325 2.121 . S
O330 C338 1.258 . S
C331 N332 1.326 . S
C331 C335 1.460 . S
C331 H337 0.929 . S
N332 Mn325 2.257 . S
N332 C331 1.326 . S
N332 C336 1.362 . S
C333 C334 1.258 . S
C333 C336 1.431 . S
C333 C353 1.449 . S
C334 C333 1.258 . S
C334 C335 1.477 . S
C334 H354 0.931 . S
C335 C331 1.460 . S
C335 C334 1.477 . S
C335 H355 0.930 . S
C336 N332 1.362 . S
C336 C333 1.431 . S
C336 C346 1.476 . S
H337 C331 0.929 . S
C338 O329 1.250 . S
C338 O330 1.258 . S
O339 Mn324 2.162 . S
O339 C327 1.281 . S
O340 Mn324 2.297 . S
O340 C327 1.236 . S
N341 Mn325 2.282 . S
N341 C342 1.328 . S
N341 C346 1.318 . S
C342 N341 1.328 . S
C342 C343 1.457 . S
C342 H347 0.929 . S
C343 C342 1.457 . S
C343 C344 1.291 . S
C343 H356 0.931 . S
C344 C343 1.291 . S
C344 C345 1.373 . S
C344 H357 0.929 . S
C345 C344 1.373 . S
C345 C346 1.396 . S
C345 C352 1.403 . S
C346 C336 1.476 . S
C346 N341 1.318 . S
C346 C345 1.396 . S
H347 C342 0.929 . S
O348 Mn324 2.385 . S
O348 C326 1.234 . S
O349 Mn324 2.209 . S
O349 Mn325 2.215 . S
O349 C326 1.283 . S
O350 Mn324 2.094 . S
O350 C328 1.240 . S
O351 Mn325 2.117 . S
O351 C328 1.264 . S
C352 C345 1.403 . S
C352 C353 1.399 . S
C352 H358 0.929 . S
C353 C333 1.449 . S
C353 C352 1.399 . S
C353 H359 0.930 . S
H354 C334 0.931 . S
H355 C335 0.930 . S
H356 C343 0.931 . S
H357 C344 0.929 . S
H358 C352 0.929 . S
H359 C353 0.930 . S
Mn360 O365 2.095 . S
Mn360 O375 2.162 . S
Mn360 O376 2.297 . S
Mn360 O384 2.385 . S
Mn360 O385 2.209 . S
Mn360 O386 2.094 . S
Mn361 O366 2.121 1_545 S
Mn361 N368 2.255 1_545 S
Mn361 N377 2.282 . S
Mn361 O385 2.221 . S
Mn361 O387 2.119 . S
C362 O384 1.234 . S
C362 O385 1.283 . S
C363 O375 1.281 . S
C363 O376 1.236 . S
C364 O386 1.240 . S
C364 O387 1.264 . S
O365 Mn360 2.095 . S
O365 C374 1.250 . S
O366 Mn361 2.121 1_565 S
O366 C374 1.258 1_565 S
C367 N368 1.326 . S
C367 C371 1.460 . S
C367 H373 0.929 . S
N368 Mn361 2.255 1_565 S
N368 C367 1.326 . S
N368 C372 1.362 . S
C369 C370 1.258 1_455 S
C369 C372 1.431 1_455 S
C369 C389 1.449 . S
C370 C369 1.258 1_655 S
C370 C371 1.477 . S
C370 H390 0.931 1_655 S
C371 C367 1.460 . S
C371 C370 1.477 . S
C371 H391 0.930 . S
C372 N368 1.362 . S
C372 C369 1.431 1_655 S
C372 C382 1.476 . S
H373 C367 0.929 . S
C374 O365 1.250 . S
C374 O366 1.258 1_545 S
O375 Mn360 2.162 . S
O375 C363 1.281 . S
O376 Mn360 2.297 . S
O376 C363 1.236 . S
N377 Mn361 2.282 . S
N377 C378 1.328 . S
N377 C382 1.318 1_545 S
C378 N377 1.328 . S
C378 C379 1.457 1_655 S
C378 H383 0.929 . S
C379 C378 1.457 1_455 S
C379 C380 1.291 . S
C379 H392 0.931 . S
C380 C379 1.291 . S
C380 C381 1.373 1_545 S
C380 H393 0.929 . S
C381 C380 1.373 1_565 S
C381 C382 1.396 1_455 S
C381 C388 1.403 . S
C382 C372 1.476 . S
C382 N377 1.318 1_565 S
C382 C381 1.396 1_655 S
H383 C378 0.929 . S
O384 Mn360 2.385 . S
O384 C362 1.234 . S
O385 Mn360 2.209 . S
O385 Mn361 2.221 . S
O385 C362 1.283 . S
O386 Mn360 2.094 . S
O386 C364 1.240 . S
O387 Mn361 2.119 . S
O387 C364 1.264 . S
C388 C381 1.403 . S
C388 C389 1.399 . S
C388 H394 0.929 . S
C389 C369 1.449 . S
C389 C388 1.399 . S
C389 H395 0.930 . S
H390 C370 0.931 1_455 S
H391 C371 0.930 . S
H392 C379 0.931 . S
H393 C380 0.929 . S
H394 C388 0.929 . S
H395 C389 0.930 . S
Mn396 O401 2.095 . S
Mn396 O411 2.162 . S
Mn396 O412 2.297 . S
Mn396 O420 2.385 . S
Mn396 O421 2.209 . S
Mn396 O422 2.094 . S
Mn397 O402 2.121 . S
Mn397 N404 2.257 . S
Mn397 N413 2.282 . S
Mn397 O421 2.215 . S
Mn397 O423 2.117 . S
C398 O420 1.234 . S
C398 O421 1.283 . S
C399 O411 1.281 . S
C399 O412 1.236 . S
C400 O422 1.240 . S
C400 O423 1.264 . S
O401 Mn396 2.095 . S
O401 C410 1.250 . S
O402 Mn397 2.121 . S
O402 C410 1.258 . S
C403 N404 1.326 . S
C403 C407 1.460 . S
C403 H409 0.929 . S
N404 Mn397 2.257 . S
N404 C403 1.326 . S
N404 C408 1.362 . S
C405 C406 1.258 . S
C405 C408 1.431 . S
C405 C425 1.449 . S
C406 C405 1.258 . S
C406 C407 1.477 . S
C406 H426 0.931 . S
C407 C403 1.460 . S
C407 C406 1.477 . S
C407 H427 0.930 . S
C408 N404 1.362 . S
C408 C405 1.431 . S
C408 C418 1.476 . S
H409 C403 0.929 . S
C410 O401 1.250 . S
C410 O402 1.258 . S
O411 Mn396 2.162 . S
O411 C399 1.281 . S
O412 Mn396 2.297 . S
O412 C399 1.236 . S
N413 Mn397 2.282 . S
N413 C414 1.328 . S
N413 C418 1.318 . S
C414 N413 1.328 . S
C414 C415 1.457 . S
C414 H419 0.929 . S
C415 C414 1.457 . S
C415 C416 1.291 . S
C415 H428 0.931 . S
C416 C415 1.291 . S
C416 C417 1.373 . S
C416 H429 0.929 . S
C417 C416 1.373 . S
C417 C418 1.396 . S
C417 C424 1.403 . S
C418 C408 1.476 . S
C418 N413 1.318 . S
C418 C417 1.396 . S
H419 C414 0.929 . S
O420 Mn396 2.385 . S
O420 C398 1.234 . S
O421 Mn396 2.209 . S
O421 Mn397 2.215 . S
O421 C398 1.283 . S
O422 Mn396 2.094 . S
O422 C400 1.240 . S
O423 Mn397 2.117 . S
O423 C400 1.264 . S
C424 C417 1.403 . S
C424 C425 1.399 . S
C424 H430 0.929 . S
C425 C405 1.449 . S
C425 C424 1.399 . S
C425 H431 0.930 . S
H426 C406 0.931 . S
H427 C407 0.930 . S
H428 C415 0.931 . S
H429 C416 0.929 . S
H430 C424 0.929 . S
H431 C425 0.930 . S
Mn432 O437 2.095 . S
Mn432 O447 2.162 . S
Mn432 O448 2.297 . S
Mn432 O456 2.385 . S
Mn432 O457 2.209 . S
Mn432 O458 2.094 . S
Mn433 O438 2.121 1_545 S
Mn433 N440 2.255 1_545 S
Mn433 N449 2.282 . S
Mn433 O457 2.221 . S
Mn433 O459 2.119 . S
C434 O456 1.234 . S
C434 O457 1.283 . S
C435 O447 1.281 . S
C435 O448 1.236 . S
C436 O458 1.240 . S
C436 O459 1.264 . S
O437 Mn432 2.095 . S
O437 C446 1.250 . S
O438 Mn433 2.121 1_565 S
O438 C446 1.258 1_565 S
C439 N440 1.326 . S
C439 C443 1.460 . S
C439 H445 0.929 . S
N440 Mn433 2.255 1_565 S
N440 C439 1.326 . S
N440 C444 1.362 . S
C441 C442 1.258 . S
C441 C444 1.431 . S
C441 C461 1.449 . S
C442 C441 1.258 . S
C442 C443 1.477 . S
C442 H462 0.931 . S
C443 C439 1.460 . S
C443 C442 1.477 . S
C443 H463 0.930 . S
C444 N440 1.362 . S
C444 C441 1.431 . S
C444 C454 1.476 . S
H445 C439 0.929 . S
C446 O437 1.250 . S
C446 O438 1.258 1_545 S
O447 Mn432 2.162 . S
O447 C435 1.281 . S
O448 Mn432 2.297 . S
O448 C435 1.236 . S
N449 Mn433 2.282 . S
N449 C450 1.328 . S
N449 C454 1.318 1_545 S
C450 N449 1.328 . S
C450 C451 1.457 . S
C450 H455 0.929 . S
C451 C450 1.457 . S
C451 C452 1.291 . S
C451 H464 0.931 . S
C452 C451 1.291 . S
C452 C453 1.373 1_545 S
C452 H465 0.929 . S
C453 C452 1.373 1_565 S
C453 C454 1.396 . S
C453 C460 1.403 . S
C454 C444 1.476 . S
C454 N449 1.318 1_565 S
C454 C453 1.396 . S
H455 C450 0.929 . S
O456 Mn432 2.385 . S
O456 C434 1.234 . S
O457 Mn432 2.209 . S
O457 Mn433 2.221 . S
O457 C434 1.283 . S
O458 Mn432 2.094 . S
O458 C436 1.240 . S
O459 Mn433 2.119 . S
O459 C436 1.264 . S
C460 C453 1.403 . S
C460 C461 1.399 . S
C460 H466 0.929 . S
C461 C441 1.449 . S
C461 C460 1.399 . S
C461 H467 0.930 . S
H462 C442 0.931 . S
H463 C443 0.930 . S
H464 C451 0.931 . S
H465 C452 0.929 . S
H466 C460 0.929 . S
H467 C461 0.930 . S
Mn468 O473 2.095 . S
Mn468 O483 2.162 . S
Mn468 O484 2.297 . S
Mn468 O492 2.385 . S
Mn468 O493 2.209 . S
Mn468 O494 2.094 . S
Mn469 O474 2.121 . S
Mn469 N476 2.257 . S
Mn469 N485 2.282 . S
Mn469 O493 2.215 . S
Mn469 O495 2.117 . S
C470 O492 1.234 . S
C470 O493 1.283 . S
C471 O483 1.281 . S
C471 O484 1.236 . S
C472 O494 1.240 . S
C472 O495 1.264 . S
O473 Mn468 2.095 . S
O473 C482 1.250 . S
O474 Mn469 2.121 . S
O474 C482 1.258 . S
C475 N476 1.326 . S
C475 C479 1.460 . S
C475 H481 0.929 . S
N476 Mn469 2.257 . S
N476 C475 1.326 . S
N476 C480 1.362 . S
C477 C478 1.258 . S
C477 C480 1.431 . S
C477 C497 1.449 . S
C478 C477 1.258 . S
C478 C479 1.477 . S
C478 H498 0.931 . S
C479 C475 1.460 . S
C479 C478 1.477 . S
C479 H499 0.930 . S
C480 N476 1.362 . S
C480 C477 1.431 . S
C480 C490 1.476 . S
H481 C475 0.929 . S
C482 O473 1.250 . S
C482 O474 1.258 . S
O483 Mn468 2.162 . S
O483 C471 1.281 . S
O484 Mn468 2.297 . S
O484 C471 1.236 . S
N485 Mn469 2.282 . S
N485 C486 1.328 . S
N485 C490 1.318 . S
C486 N485 1.328 . S
C486 C487 1.457 . S
C486 H491 0.929 . S
C487 C486 1.457 . S
C487 C488 1.291 . S
C487 H500 0.931 . S
C488 C487 1.291 . S
C488 C489 1.373 . S
C488 H501 0.929 . S
C489 C488 1.373 . S
C489 C490 1.396 . S
C489 C496 1.403 . S
C490 C480 1.476 . S
C490 N485 1.318 . S
C490 C489 1.396 . S
H491 C486 0.929 . S
O492 Mn468 2.385 . S
O492 C470 1.234 . S
O493 Mn468 2.209 . S
O493 Mn469 2.215 . S
O493 C470 1.283 . S
O494 Mn468 2.094 . S
O494 C472 1.240 . S
O495 Mn469 2.117 . S
O495 C472 1.264 . S
C496 C489 1.403 . S
C496 C497 1.399 . S
C496 H502 0.929 . S
C497 C477 1.449 . S
C497 C496 1.399 . S
C497 H503 0.930 . S
H498 C478 0.931 . S
H499 C479 0.930 . S
H500 C487 0.931 . S
H501 C488 0.929 . S
H502 C496 0.929 . S
H503 C497 0.930 . S
Mn504 O509 2.095 . S
Mn504 O519 2.162 . S
Mn504 O520 2.297 . S
Mn504 O528 2.385 . S
Mn504 O529 2.209 . S
Mn504 O530 2.094 . S
Mn505 O510 2.121 1_565 S
Mn505 N512 2.255 1_565 S
Mn505 N521 2.282 . S
Mn505 O529 2.221 . S
Mn505 O531 2.119 . S
C506 O528 1.234 . S
C506 O529 1.283 . S
C507 O519 1.281 . S
C507 O520 1.236 . S
C508 O530 1.240 . S
C508 O531 1.264 . S
O509 Mn504 2.095 . S
O509 C518 1.250 . S
O510 Mn505 2.121 1_545 S
O510 C518 1.258 1_545 S
C511 N512 1.326 . S
C511 C515 1.460 . S
C511 H517 0.929 . S
N512 Mn505 2.255 1_545 S
N512 C511 1.326 . S
N512 C516 1.362 . S
C513 C514 1.258 1_455 S
C513 C516 1.431 1_455 S
C513 C533 1.449 . S
C514 C513 1.258 1_655 S
C514 C515 1.477 . S
C514 H534 0.931 1_655 S
C515 C511 1.460 . S
C515 C514 1.477 . S
C515 H535 0.930 . S
C516 N512 1.362 . S
C516 C513 1.431 1_655 S
C516 C526 1.476 . S
H517 C511 0.929 . S
C518 O509 1.250 . S
C518 O510 1.258 1_565 S
O519 Mn504 2.162 . S
O519 C507 1.281 . S
O520 Mn504 2.297 . S
O520 C507 1.236 . S
N521 Mn505 2.282 . S
N521 C522 1.328 . S
N521 C526 1.318 1_565 S
C522 N521 1.328 . S
C522 C523 1.457 1_655 S
C522 H527 0.929 . S
C523 C522 1.457 1_455 S
C523 C524 1.291 . S
C523 H536 0.931 . S
C524 C523 1.291 . S
C524 C525 1.373 1_565 S
C524 H537 0.929 . S
C525 C524 1.373 1_545 S
C525 C526 1.396 1_455 S
C525 C532 1.403 . S
C526 C516 1.476 . S
C526 N521 1.318 1_545 S
C526 C525 1.396 1_655 S
H527 C522 0.929 . S
O528 Mn504 2.385 . S
O528 C506 1.234 . S
O529 Mn504 2.209 . S
O529 Mn505 2.221 . S
O529 C506 1.283 . S
O530 Mn504 2.094 . S
O530 C508 1.240 . S
O531 Mn505 2.119 . S
O531 C508 1.264 . S
C532 C525 1.403 . S
C532 C533 1.399 . S
C532 H538 0.929 . S
C533 C513 1.449 . S
C533 C532 1.399 . S
C533 H539 0.930 . S
H534 C514 0.931 1_455 S
H535 C515 0.930 . S
H536 C523 0.931 . S
H537 C524 0.929 . S
H538 C532 0.929 . S
H539 C533 0.930 . S
Mn540 O545 2.095 . S
Mn540 O555 2.162 . S
Mn540 O556 2.297 . S
Mn540 O564 2.385 . S
Mn540 O565 2.209 . S
Mn540 O566 2.094 . S
Mn541 O546 2.121 . S
Mn541 N548 2.257 . S
Mn541 N557 2.282 . S
Mn541 O565 2.215 . S
Mn541 O567 2.117 . S
C542 O564 1.234 . S
C542 O565 1.283 . S
C543 O555 1.281 . S
C543 O556 1.236 . S
C544 O566 1.240 . S
C544 O567 1.264 . S
O545 Mn540 2.095 . S
O545 C554 1.250 . S
O546 Mn541 2.121 . S
O546 C554 1.258 . S
C547 N548 1.326 . S
C547 C551 1.460 . S
C547 H553 0.929 . S
N548 Mn541 2.257 . S
N548 C547 1.326 . S
N548 C552 1.362 . S
C549 C550 1.258 . S
C549 C552 1.431 . S
C549 C569 1.449 . S
C550 C549 1.258 . S
C550 C551 1.477 . S
C550 H570 0.931 . S
C551 C547 1.460 . S
C551 C550 1.477 . S
C551 H571 0.930 . S
C552 N548 1.362 . S
C552 C549 1.431 . S
C552 C562 1.476 . S
H553 C547 0.929 . S
C554 O545 1.250 . S
C554 O546 1.258 . S
O555 Mn540 2.162 . S
O555 C543 1.281 . S
O556 Mn540 2.297 . S
O556 C543 1.236 . S
N557 Mn541 2.282 . S
N557 C558 1.328 . S
N557 C562 1.318 . S
C558 N557 1.328 . S
C558 C559 1.457 . S
C558 H563 0.929 . S
C559 C558 1.457 . S
C559 C560 1.291 . S
C559 H572 0.931 . S
C560 C559 1.291 . S
C560 C561 1.373 . S
C560 H573 0.929 . S
C561 C560 1.373 . S
C561 C562 1.396 . S
C561 C568 1.403 . S
C562 C552 1.476 . S
C562 N557 1.318 . S
C562 C561 1.396 . S
H563 C558 0.929 . S
O564 Mn540 2.385 . S
O564 C542 1.234 . S
O565 Mn540 2.209 . S
O565 Mn541 2.215 . S
O565 C542 1.283 . S
O566 Mn540 2.094 . S
O566 C544 1.240 . S
O567 Mn541 2.117 . S
O567 C544 1.264 . S
C568 C561 1.403 . S
C568 C569 1.399 . S
C568 H574 0.929 . S
C569 C549 1.449 . S
C569 C568 1.399 . S
C569 H575 0.930 . S
H570 C550 0.931 . S
H571 C551 0.930 . S
H572 C559 0.931 . S
H573 C560 0.929 . S
H574 C568 0.929 . S
H575 C569 0.930 . S
Mn576 O581 2.095 . S
Mn576 O591 2.162 . S
Mn576 O592 2.297 . S
Mn576 O600 2.385 . S
Mn576 O601 2.209 . S
Mn576 O602 2.094 . S
Mn577 O582 2.121 . S
Mn577 N584 2.257 . S
Mn577 N593 2.282 . S
Mn577 O601 2.215 . S
Mn577 O603 2.117 . S
C578 O600 1.234 . S
C578 O601 1.283 . S
C579 O591 1.281 . S
C579 O592 1.236 . S
C580 O602 1.240 . S
C580 O603 1.264 . S
O581 Mn576 2.095 . S
O581 C590 1.250 . S
O582 Mn577 2.121 . S
O582 C590 1.258 . S
C583 N584 1.326 . S
C583 C587 1.460 . S
C583 H589 0.929 . S
N584 Mn577 2.257 . S
N584 C583 1.326 . S
N584 C588 1.362 . S
C585 C586 1.258 1_455 S
C585 C588 1.431 1_455 S
C585 C605 1.449 . S
C586 C585 1.258 1_655 S
C586 C587 1.477 . S
C586 H606 0.931 1_655 S
C587 C583 1.460 . S
C587 C586 1.477 . S
C587 H607 0.930 . S
C588 N584 1.362 . S
C588 C585 1.431 1_655 S
C588 C598 1.476 . S
H589 C583 0.929 . S
C590 O581 1.250 . S
C590 O582 1.258 . S
O591 Mn576 2.162 . S
O591 C579 1.281 . S
O592 Mn576 2.297 . S
O592 C579 1.236 . S
N593 Mn577 2.282 . S
N593 C594 1.328 . S
N593 C598 1.318 . S
C594 N593 1.328 . S
C594 C595 1.457 1_655 S
C594 H599 0.929 . S
C595 C594 1.457 1_455 S
C595 C596 1.291 . S
C595 H608 0.931 . S
C596 C595 1.291 . S
C596 C597 1.373 . S
C596 H609 0.929 . S
C597 C596 1.373 . S
C597 C598 1.396 1_455 S
C597 C604 1.403 . S
C598 C588 1.476 . S
C598 N593 1.318 . S
C598 C597 1.396 1_655 S
H599 C594 0.929 . S
O600 Mn576 2.385 . S
O600 C578 1.234 . S
O601 Mn576 2.209 . S
O601 Mn577 2.215 . S
O601 C578 1.283 . S
O602 Mn576 2.094 . S
O602 C580 1.240 . S
O603 Mn577 2.117 . S
O603 C580 1.264 . S
C604 C597 1.403 . S
C604 C605 1.399 . S
C604 H610 0.929 . S
C605 C585 1.449 . S
C605 C604 1.399 . S
C605 H611 0.930 . S
H606 C586 0.931 1_455 S
H607 C587 0.930 . S
H608 C595 0.931 . S
H609 C596 0.929 . S
H610 C604 0.929 . S
H611 C605 0.930 . S
Mn612 O617 2.095 . S
Mn612 O627 2.162 . S
Mn612 O628 2.297 . S
Mn612 O636 2.385 . S
Mn612 O637 2.209 . S
Mn612 O638 2.094 . S
Mn613 O618 2.121 . S
Mn613 N620 2.257 . S
Mn613 N629 2.282 . S
Mn613 O637 2.215 . S
Mn613 O639 2.117 . S
C614 O636 1.234 . S
C614 O637 1.283 . S
C615 O627 1.281 . S
C615 O628 1.236 . S
C616 O638 1.240 . S
C616 O639 1.264 . S
O617 Mn612 2.095 . S
O617 C626 1.250 . S
O618 Mn613 2.121 . S
O618 C626 1.258 . S
C619 N620 1.326 . S
C619 C623 1.460 . S
C619 H625 0.929 . S
N620 Mn613 2.257 . S
N620 C619 1.326 . S
N620 C624 1.362 . S
C621 C622 1.258 . S
C621 C624 1.431 . S
C621 C641 1.449 . S
C622 C621 1.258 . S
C622 C623 1.477 . S
C622 H642 0.931 . S
C623 C619 1.460 . S
C623 C622 1.477 . S
C623 H643 0.930 . S
C624 N620 1.362 . S
C624 C621 1.431 . S
C624 C634 1.476 . S
H625 C619 0.929 . S
C626 O617 1.250 . S
C626 O618 1.258 . S
O627 Mn612 2.162 . S
O627 C615 1.281 . S
O628 Mn612 2.297 . S
O628 C615 1.236 . S
N629 Mn613 2.282 . S
N629 C630 1.328 . S
N629 C634 1.318 . S
C630 N629 1.328 . S
C630 C631 1.457 . S
C630 H635 0.929 . S
C631 C630 1.457 . S
C631 C632 1.291 . S
C631 H644 0.931 . S
C632 C631 1.291 . S
C632 C633 1.373 . S
C632 H645 0.929 . S
C633 C632 1.373 . S
C633 C634 1.396 . S
C633 C640 1.403 . S
C634 C624 1.476 . S
C634 N629 1.318 . S
C634 C633 1.396 . S
H635 C630 0.929 . S
O636 Mn612 2.385 . S
O636 C614 1.234 . S
O637 Mn612 2.209 . S
O637 Mn613 2.215 . S
O637 C614 1.283 . S
O638 Mn612 2.094 . S
O638 C616 1.240 . S
O639 Mn613 2.117 . S
O639 C616 1.264 . S
C640 C633 1.403 . S
C640 C641 1.399 . S
C640 H646 0.929 . S
C641 C621 1.449 . S
C641 C640 1.399 . S
C641 H647 0.930 . S
H642 C622 0.931 . S
H643 C623 0.930 . S
H644 C631 0.931 . S
H645 C632 0.929 . S
H646 C640 0.929 . S
H647 C641 0.930 . S
Mn648 O653 2.095 . S
Mn648 O663 2.162 . S
Mn648 O664 2.297 . S
Mn648 O672 2.385 . S
Mn648 O673 2.209 . S
Mn648 O674 2.094 . S
Mn649 O654 2.121 . S
Mn649 N656 2.257 . S
Mn649 N665 2.282 . S
Mn649 O673 2.215 . S
Mn649 O675 2.117 . S
C650 O672 1.234 . S
C650 O673 1.283 . S
C651 O663 1.281 . S
C651 O664 1.236 . S
C652 O674 1.240 . S
C652 O675 1.264 . S
O653 Mn648 2.095 . S
O653 C662 1.250 . S
O654 Mn649 2.121 . S
O654 C662 1.258 . S
C655 N656 1.326 . S
C655 C659 1.460 . S
C655 H661 0.929 . S
N656 Mn649 2.257 . S
N656 C655 1.326 . S
N656 C660 1.362 . S
C657 C658 1.258 . S
C657 C660 1.431 . S
C657 C677 1.449 . S
C658 C657 1.258 . S
C658 C659 1.477 . S
C658 H678 0.931 . S
C659 C655 1.460 . S
C659 C658 1.477 . S
C659 H679 0.930 . S
C660 N656 1.362 . S
C660 C657 1.431 . S
C660 C670 1.476 . S
H661 C655 0.929 . S
C662 O653 1.250 . S
C662 O654 1.258 . S
O663 Mn648 2.162 . S
O663 C651 1.281 . S
O664 Mn648 2.297 . S
O664 C651 1.236 . S
N665 Mn649 2.282 . S
N665 C666 1.328 . S
N665 C670 1.318 . S
C666 N665 1.328 . S
C666 C667 1.457 . S
C666 H671 0.929 . S
C667 C666 1.457 . S
C667 C668 1.291 . S
C667 H680 0.931 . S
C668 C667 1.291 . S
C668 C669 1.373 . S
C668 H681 0.929 . S
C669 C668 1.373 . S
C669 C670 1.396 . S
C669 C676 1.403 . S
C670 C660 1.476 . S
C670 N665 1.318 . S
C670 C669 1.396 . S
H671 C666 0.929 . S
O672 Mn648 2.385 . S
O672 C650 1.234 . S
O673 Mn648 2.209 . S
O673 Mn649 2.215 . S
O673 C650 1.283 . S
O674 Mn648 2.094 . S
O674 C652 1.240 . S
O675 Mn649 2.117 . S
O675 C652 1.264 . S
C676 C669 1.403 . S
C676 C677 1.399 . S
C676 H682 0.929 . S
C677 C657 1.449 . S
C677 C676 1.399 . S
C677 H683 0.930 . S
H678 C658 0.931 . S
H679 C659 0.930 . S
H680 C667 0.931 . S
H681 C668 0.929 . S
H682 C676 0.929 . S
H683 C677 0.930 . S
Mn684 O689 2.095 . S
Mn684 O699 2.162 . S
Mn684 O700 2.297 . S
Mn684 O708 2.385 . S
Mn684 O709 2.209 . S
Mn684 O710 2.094 . S
Mn685 O690 2.121 . S
Mn685 N692 2.257 . S
Mn685 N701 2.282 . S
Mn685 O709 2.215 . S
Mn685 O711 2.117 . S
C686 O708 1.234 . S
C686 O709 1.283 . S
C687 O699 1.281 . S
C687 O700 1.236 . S
C688 O710 1.240 . S
C688 O711 1.264 . S
O689 Mn684 2.095 . S
O689 C698 1.250 . S
O690 Mn685 2.121 . S
O690 C698 1.258 . S
C691 N692 1.326 . S
C691 C695 1.460 . S
C691 H697 0.929 . S
N692 Mn685 2.257 . S
N692 C691 1.326 . S
N692 C696 1.362 . S
C693 C694 1.258 . S
C693 C696 1.431 . S
C693 C713 1.449 . S
C694 C693 1.258 . S
C694 C695 1.477 . S
C694 H714 0.931 . S
C695 C691 1.460 . S
C695 C694 1.477 . S
C695 H715 0.930 . S
C696 N692 1.362 . S
C696 C693 1.431 . S
C696 C706 1.476 . S
H697 C691 0.929 . S
C698 O689 1.250 . S
C698 O690 1.258 . S
O699 Mn684 2.162 . S
O699 C687 1.281 . S
O700 Mn684 2.297 . S
O700 C687 1.236 . S
N701 Mn685 2.282 . S
N701 C702 1.328 . S
N701 C706 1.318 . S
C702 N701 1.328 . S
C702 C703 1.457 . S
C702 H707 0.929 . S
C703 C702 1.457 . S
C703 C704 1.291 . S
C703 H716 0.931 . S
C704 C703 1.291 . S
C704 C705 1.373 . S
C704 H717 0.929 . S
C705 C704 1.373 . S
C705 C706 1.396 . S
C705 C712 1.403 . S
C706 C696 1.476 . S
C706 N701 1.318 . S
C706 C705 1.396 . S
H707 C702 0.929 . S
O708 Mn684 2.385 . S
O708 C686 1.234 . S
O709 Mn684 2.209 . S
O709 Mn685 2.215 . S
O709 C686 1.283 . S
O710 Mn684 2.094 . S
O710 C688 1.240 . S
O711 Mn685 2.117 . S
O711 C688 1.264 . S
C712 C705 1.403 . S
C712 C713 1.399 . S
C712 H718 0.929 . S
C713 C693 1.449 . S
C713 C712 1.399 . S
C713 H719 0.930 . S
H714 C694 0.931 . S
H715 C695 0.930 . S
H716 C703 0.931 . S
H717 C704 0.929 . S
H718 C712 0.929 . S
H719 C713 0.930 . S
Mn720 O725 2.095 . S
Mn720 O735 2.162 . S
Mn720 O736 2.297 . S
Mn720 O744 2.385 . S
Mn720 O745 2.209 . S
Mn720 O746 2.094 . S
Mn721 O726 2.121 . S
Mn721 N728 2.257 . S
Mn721 N737 2.282 . S
Mn721 O745 2.215 . S
Mn721 O747 2.117 . S
C722 O744 1.234 . S
C722 O745 1.283 . S
C723 O735 1.281 . S
C723 O736 1.236 . S
C724 O746 1.240 . S
C724 O747 1.264 . S
O725 Mn720 2.095 . S
O725 C734 1.250 . S
O726 Mn721 2.121 . S
O726 C734 1.258 . S
C727 N728 1.326 . S
C727 C731 1.460 . S
C727 H733 0.929 . S
N728 Mn721 2.257 . S
N728 C727 1.326 . S
N728 C732 1.362 . S
C729 C730 1.258 1_455 S
C729 C732 1.431 1_455 S
C729 C749 1.449 . S
C730 C729 1.258 1_655 S
C730 C731 1.477 . S
C730 H750 0.931 1_655 S
C731 C727 1.460 . S
C731 C730 1.477 . S
C731 H751 0.930 . S
C732 N728 1.362 . S
C732 C729 1.431 1_655 S
C732 C742 1.476 . S
H733 C727 0.929 . S
C734 O725 1.250 . S
C734 O726 1.258 . S
O735 Mn720 2.162 . S
O735 C723 1.281 . S
O736 Mn720 2.297 . S
O736 C723 1.236 . S
N737 Mn721 2.282 . S
N737 C738 1.328 . S
N737 C742 1.318 . S
C738 N737 1.328 . S
C738 C739 1.457 1_655 S
C738 H743 0.929 . S
C739 C738 1.457 1_455 S
C739 C740 1.291 . S
C739 H752 0.931 . S
C740 C739 1.291 . S
C740 C741 1.373 . S
C740 H753 0.929 . S
C741 C740 1.373 . S
C741 C742 1.396 1_455 S
C741 C748 1.403 . S
C742 C732 1.476 . S
C742 N737 1.318 . S
C742 C741 1.396 1_655 S
H743 C738 0.929 . S
O744 Mn720 2.385 . S
O744 C722 1.234 . S
O745 Mn720 2.209 . S
O745 Mn721 2.215 . S
O745 C722 1.283 . S
O746 Mn720 2.094 . S
O746 C724 1.240 . S
O747 Mn721 2.117 . S
O747 C724 1.264 . S
C748 C741 1.403 . S
C748 C749 1.399 . S
C748 H754 0.929 . S
C749 C729 1.449 . S
C749 C748 1.399 . S
C749 H755 0.930 . S
H750 C730 0.931 1_455 S
H751 C731 0.930 . S
H752 C739 0.931 . S
H753 C740 0.929 . S
H754 C748 0.929 . S
H755 C749 0.930 . S
Mn756 O761 2.095 . S
Mn756 O771 2.162 . S
Mn756 O772 2.297 . S
Mn756 O780 2.385 . S
Mn756 O781 2.209 . S
Mn756 O782 2.094 . S
Mn757 O762 2.121 . S
Mn757 N764 2.257 . S
Mn757 N773 2.282 . S
Mn757 O781 2.215 . S
Mn757 O783 2.117 . S
C758 O780 1.234 . S
C758 O781 1.283 . S
C759 O771 1.281 . S
C759 O772 1.236 . S
C760 O782 1.240 . S
C760 O783 1.264 . S
O761 Mn756 2.095 . S
O761 C770 1.250 . S
O762 Mn757 2.121 . S
O762 C770 1.258 . S
C763 N764 1.326 . S
C763 C767 1.460 . S
C763 H769 0.929 . S
N764 Mn757 2.257 . S
N764 C763 1.326 . S
N764 C768 1.362 . S
C765 C766 1.258 . S
C765 C768 1.431 . S
C765 C785 1.449 . S
C766 C765 1.258 . S
C766 C767 1.477 . S
C766 H786 0.931 . S
C767 C763 1.460 . S
C767 C766 1.477 . S
C767 H787 0.930 . S
C768 N764 1.362 . S
C768 C765 1.431 . S
C768 C778 1.476 . S
H769 C763 0.929 . S
C770 O761 1.250 . S
C770 O762 1.258 . S
O771 Mn756 2.162 . S
O771 C759 1.281 . S
O772 Mn756 2.297 . S
O772 C759 1.236 . S
N773 Mn757 2.282 . S
N773 C774 1.328 . S
N773 C778 1.318 . S
C774 N773 1.328 . S
C774 C775 1.457 . S
C774 H779 0.929 . S
C775 C774 1.457 . S
C775 C776 1.291 . S
C775 H788 0.931 . S
C776 C775 1.291 . S
C776 C777 1.373 . S
C776 H789 0.929 . S
C777 C776 1.373 . S
C777 C778 1.396 . S
C777 C784 1.403 . S
C778 C768 1.476 . S
C778 N773 1.318 . S
C778 C777 1.396 . S
H779 C774 0.929 . S
O780 Mn756 2.385 . S
O780 C758 1.234 . S
O781 Mn756 2.209 . S
O781 Mn757 2.215 . S
O781 C758 1.283 . S
O782 Mn756 2.094 . S
O782 C760 1.240 . S
O783 Mn757 2.117 . S
O783 C760 1.264 . S
C784 C777 1.403 . S
C784 C785 1.399 . S
C784 H790 0.929 . S
C785 C765 1.449 . S
C785 C784 1.399 . S
C785 H791 0.930 . S
H786 C766 0.931 . S
H787 C767 0.930 . S
H788 C775 0.931 . S
H789 C776 0.929 . S
H790 C784 0.929 . S
H791 C785 0.930 . S
Mn792 O797 2.095 . S
Mn792 O807 2.162 . S
Mn792 O808 2.297 . S
Mn792 O816 2.385 . S
Mn792 O817 2.209 . S
Mn792 O818 2.094 . S
Mn793 O798 2.121 . S
Mn793 N800 2.257 . S
Mn793 N809 2.282 . S
Mn793 O817 2.215 . S
Mn793 O819 2.117 . S
C794 O816 1.234 . S
C794 O817 1.283 . S
C795 O807 1.281 . S
C795 O808 1.236 . S
C796 O818 1.240 . S
C796 O819 1.264 . S
O797 Mn792 2.095 . S
O797 C806 1.250 . S
O798 Mn793 2.121 . S
O798 C806 1.258 . S
C799 N800 1.326 . S
C799 C803 1.460 . S
C799 H805 0.929 . S
N800 Mn793 2.257 . S
N800 C799 1.326 . S
N800 C804 1.362 . S
C801 C802 1.258 . S
C801 C804 1.431 . S
C801 C821 1.449 . S
C802 C801 1.258 . S
C802 C803 1.477 . S
C802 H822 0.931 . S
C803 C799 1.460 . S
C803 C802 1.477 . S
C803 H823 0.930 . S
C804 N800 1.362 . S
C804 C801 1.431 . S
C804 C814 1.476 . S
H805 C799 0.929 . S
C806 O797 1.250 . S
C806 O798 1.258 . S
O807 Mn792 2.162 . S
O807 C795 1.281 . S
O808 Mn792 2.297 . S
O808 C795 1.236 . S
N809 Mn793 2.282 . S
N809 C810 1.328 . S
N809 C814 1.318 . S
C810 N809 1.328 . S
C810 C811 1.457 . S
C810 H815 0.929 . S
C811 C810 1.457 . S
C811 C812 1.291 . S
C811 H824 0.931 . S
C812 C811 1.291 . S
C812 C813 1.373 . S
C812 H825 0.929 . S
C813 C812 1.373 . S
C813 C814 1.396 . S
C813 C820 1.403 . S
C814 C804 1.476 . S
C814 N809 1.318 . S
C814 C813 1.396 . S
H815 C810 0.929 . S
O816 Mn792 2.385 . S
O816 C794 1.234 . S
O817 Mn792 2.209 . S
O817 Mn793 2.215 . S
O817 C794 1.283 . S
O818 Mn792 2.094 . S
O818 C796 1.240 . S
O819 Mn793 2.117 . S
O819 C796 1.264 . S
C820 C813 1.403 . S
C820 C821 1.399 . S
C820 H826 0.929 . S
C821 C801 1.449 . S
C821 C820 1.399 . S
C821 H827 0.930 . S
H822 C802 0.931 . S
H823 C803 0.930 . S
H824 C811 0.931 . S
H825 C812 0.929 . S
H826 C820 0.929 . S
H827 C821 0.930 . S
Mn828 O833 2.095 . S
Mn828 O843 2.162 . S
Mn828 O844 2.297 . S
Mn828 O852 2.385 . S
Mn828 O853 2.209 . S
Mn828 O854 2.094 . S
Mn829 O834 2.121 . S
Mn829 N836 2.257 . S
Mn829 N845 2.282 . S
Mn829 O853 2.215 . S
Mn829 O855 2.117 . S
C830 O852 1.234 . S
C830 O853 1.283 . S
C831 O843 1.281 . S
C831 O844 1.236 . S
C832 O854 1.240 . S
C832 O855 1.264 . S
O833 Mn828 2.095 . S
O833 C842 1.250 . S
O834 Mn829 2.121 . S
O834 C842 1.258 . S
C835 N836 1.326 . S
C835 C839 1.460 . S
C835 H841 0.929 . S
N836 Mn829 2.257 . S
N836 C835 1.326 . S
N836 C840 1.362 . S
C837 C838 1.258 . S
C837 C840 1.431 . S
C837 C857 1.449 . S
C838 C837 1.258 . S
C838 C839 1.477 . S
C838 H858 0.931 . S
C839 C835 1.460 . S
C839 C838 1.477 . S
C839 H859 0.930 . S
C840 N836 1.362 . S
C840 C837 1.431 . S
C840 C850 1.476 . S
H841 C835 0.929 . S
C842 O833 1.250 . S
C842 O834 1.258 . S
O843 Mn828 2.162 . S
O843 C831 1.281 . S
O844 Mn828 2.297 . S
O844 C831 1.236 . S
N845 Mn829 2.282 . S
N845 C846 1.328 . S
N845 C850 1.318 . S
C846 N845 1.328 . S
C846 C847 1.457 . S
C846 H851 0.929 . S
C847 C846 1.457 . S
C847 C848 1.291 . S
C847 H860 0.931 . S
C848 C847 1.291 . S
C848 C849 1.373 . S
C848 H861 0.929 . S
C849 C848 1.373 . S
C849 C850 1.396 . S
C849 C856 1.403 . S
C850 C840 1.476 . S
C850 N845 1.318 . S
C850 C849 1.396 . S
H851 C846 0.929 . S
O852 Mn828 2.385 . S
O852 C830 1.234 . S
O853 Mn828 2.209 . S
O853 Mn829 2.215 . S
O853 C830 1.283 . S
O854 Mn828 2.094 . S
O854 C832 1.240 . S
O855 Mn829 2.117 . S
O855 C832 1.264 . S
C856 C849 1.403 . S
C856 C857 1.399 . S
C856 H862 0.929 . S
C857 C837 1.449 . S
C857 C856 1.399 . S
C857 H863 0.930 . S
H858 C838 0.931 . S
H859 C839 0.930 . S
H860 C847 0.931 . S
H861 C848 0.929 . S
H862 C856 0.929 . S
H863 C857 0.930 . S
Mn864 O869 2.095 . S
Mn864 O879 2.162 . S
Mn864 O880 2.297 . S
Mn864 O888 2.385 . S
Mn864 O889 2.209 . S
Mn864 O890 2.094 . S
Mn865 O870 2.121 . S
Mn865 N872 2.257 . S
Mn865 N881 2.282 . S
Mn865 O889 2.215 . S
Mn865 O891 2.117 . S
C866 O888 1.234 . S
C866 O889 1.283 . S
C867 O879 1.281 . S
C867 O880 1.236 . S
C868 O890 1.240 . S
C868 O891 1.264 . S
O869 Mn864 2.095 . S
O869 C878 1.250 . S
O870 Mn865 2.121 . S
O870 C878 1.258 . S
C871 N872 1.326 . S
C871 C875 1.460 . S
C871 H877 0.929 . S
N872 Mn865 2.257 . S
N872 C871 1.326 . S
N872 C876 1.362 . S
C873 C874 1.258 1_655 S
C873 C876 1.431 1_655 S
C873 C893 1.449 . S
C874 C873 1.258 1_455 S
C874 C875 1.477 . S
C874 H894 0.931 1_455 S
C875 C871 1.460 . S
C875 C874 1.477 . S
C875 H895 0.930 . S
C876 N872 1.362 . S
C876 C873 1.431 1_455 S
C876 C886 1.476 . S
H877 C871 0.929 . S
C878 O869 1.250 . S
C878 O870 1.258 . S
O879 Mn864 2.162 . S
O879 C867 1.281 . S
O880 Mn864 2.297 . S
O880 C867 1.236 . S
N881 Mn865 2.282 . S
N881 C882 1.328 . S
N881 C886 1.318 . S
C882 N881 1.328 . S
C882 C883 1.457 1_455 S
C882 H887 0.929 . S
C883 C882 1.457 1_655 S
C883 C884 1.291 . S
C883 H896 0.931 . S
C884 C883 1.291 . S
C884 C885 1.373 . S
C884 H897 0.929 . S
C885 C884 1.373 . S
C885 C886 1.396 1_655 S
C885 C892 1.403 . S
C886 C876 1.476 . S
C886 N881 1.318 . S
C886 C885 1.396 1_455 S
H887 C882 0.929 . S
O888 Mn864 2.385 . S
O888 C866 1.234 . S
O889 Mn864 2.209 . S
O889 Mn865 2.215 . S
O889 C866 1.283 . S
O890 Mn864 2.094 . S
O890 C868 1.240 . S
O891 Mn865 2.117 . S
O891 C868 1.264 . S
C892 C885 1.403 . S
C892 C893 1.399 . S
C892 H898 0.929 . S
C893 C873 1.449 . S
C893 C892 1.399 . S
C893 H899 0.930 . S
H894 C874 0.931 1_655 S
H895 C875 0.930 . S
H896 C883 0.931 . S
H897 C884 0.929 . S
H898 C892 0.929 . S
H899 C893 0.930 . S
Mn900 O905 2.095 . S
Mn900 O915 2.162 . S
Mn900 O916 2.297 . S
Mn900 O924 2.385 . S
Mn900 O925 2.209 . S
Mn900 O926 2.094 . S
Mn901 O906 2.121 . S
Mn901 N908 2.257 . S
Mn901 N917 2.282 . S
Mn901 O925 2.215 . S
Mn901 O927 2.117 . S
C902 O924 1.234 . S
C902 O925 1.283 . S
C903 O915 1.281 . S
C903 O916 1.236 . S
C904 O926 1.240 . S
C904 O927 1.264 . S
O905 Mn900 2.095 . S
O905 C914 1.250 . S
O906 Mn901 2.121 . S
O906 C914 1.258 . S
C907 N908 1.326 . S
C907 C911 1.460 . S
C907 H913 0.929 . S
N908 Mn901 2.257 . S
N908 C907 1.326 . S
N908 C912 1.362 . S
C909 C910 1.258 . S
C909 C912 1.431 . S
C909 C929 1.449 . S
C910 C909 1.258 . S
C910 C911 1.477 . S
C910 H930 0.931 . S
C911 C907 1.460 . S
C911 C910 1.477 . S
C911 H931 0.930 . S
C912 N908 1.362 . S
C912 C909 1.431 . S
C912 C922 1.476 . S
H913 C907 0.929 . S
C914 O905 1.250 . S
C914 O906 1.258 . S
O915 Mn900 2.162 . S
O915 C903 1.281 . S
O916 Mn900 2.297 . S
O916 C903 1.236 . S
N917 Mn901 2.282 . S
N917 C918 1.328 . S
N917 C922 1.318 . S
C918 N917 1.328 . S
C918 C919 1.457 . S
C918 H923 0.929 . S
C919 C918 1.457 . S
C919 C920 1.291 . S
C919 H932 0.931 . S
C920 C919 1.291 . S
C920 C921 1.373 . S
C920 H933 0.929 . S
C921 C920 1.373 . S
C921 C922 1.396 . S
C921 C928 1.403 . S
C922 C912 1.476 . S
C922 N917 1.318 . S
C922 C921 1.396 . S
H923 C918 0.929 . S
O924 Mn900 2.385 . S
O924 C902 1.234 . S
O925 Mn900 2.209 . S
O925 Mn901 2.215 . S
O925 C902 1.283 . S
O926 Mn900 2.094 . S
O926 C904 1.240 . S
O927 Mn901 2.117 . S
O927 C904 1.264 . S
C928 C921 1.403 . S
C928 C929 1.399 . S
C928 H934 0.929 . S
C929 C909 1.449 . S
C929 C928 1.399 . S
C929 H935 0.930 . S
H930 C910 0.931 . S
H931 C911 0.930 . S
H932 C919 0.931 . S
H933 C920 0.929 . S
H934 C928 0.929 . S
H935 C929 0.930 . S
Mn936 O941 2.095 . S
Mn936 O951 2.162 . S
Mn936 O952 2.297 . S
Mn936 O960 2.385 . S
Mn936 O961 2.209 . S
Mn936 O962 2.094 . S
Mn937 O942 2.121 . S
Mn937 N944 2.257 . S
Mn937 N953 2.282 . S
Mn937 O961 2.215 . S
Mn937 O963 2.117 . S
C938 O960 1.234 . S
C938 O961 1.283 . S
C939 O951 1.281 . S
C939 O952 1.236 . S
C940 O962 1.240 . S
C940 O963 1.264 . S
O941 Mn936 2.095 . S
O941 C950 1.250 . S
O942 Mn937 2.121 . S
O942 C950 1.258 . S
C943 N944 1.326 . S
C943 C947 1.460 . S
C943 H949 0.929 . S
N944 Mn937 2.257 . S
N944 C943 1.326 . S
N944 C948 1.362 . S
C945 C946 1.258 . S
C945 C948 1.431 . S
C945 C965 1.449 . S
C946 C945 1.258 . S
C946 C947 1.477 . S
C946 H966 0.931 . S
C947 C943 1.460 . S
C947 C946 1.477 . S
C947 H967 0.930 . S
C948 N944 1.362 . S
C948 C945 1.431 . S
C948 C958 1.476 . S
H949 C943 0.929 . S
C950 O941 1.250 . S
C950 O942 1.258 . S
O951 Mn936 2.162 . S
O951 C939 1.281 . S
O952 Mn936 2.297 . S
O952 C939 1.236 . S
N953 Mn937 2.282 . S
N953 C954 1.328 . S
N953 C958 1.318 . S
C954 N953 1.328 . S
C954 C955 1.457 . S
C954 H959 0.929 . S
C955 C954 1.457 . S
C955 C956 1.291 . S
C955 H968 0.931 . S
C956 C955 1.291 . S
C956 C957 1.373 . S
C956 H969 0.929 . S
C957 C956 1.373 . S
C957 C958 1.396 . S
C957 C964 1.403 . S
C958 C948 1.476 . S
C958 N953 1.318 . S
C958 C957 1.396 . S
H959 C954 0.929 . S
O960 Mn936 2.385 . S
O960 C938 1.234 . S
O961 Mn936 2.209 . S
O961 Mn937 2.215 . S
O961 C938 1.283 . S
O962 Mn936 2.094 . S
O962 C940 1.240 . S
O963 Mn937 2.117 . S
O963 C940 1.264 . S
C964 C957 1.403 . S
C964 C965 1.399 . S
C964 H970 0.929 . S
C965 C945 1.449 . S
C965 C964 1.399 . S
C965 H971 0.930 . S
H966 C946 0.931 . S
H967 C947 0.930 . S
H968 C955 0.931 . S
H969 C956 0.929 . S
H970 C964 0.929 . S
H971 C965 0.930 . S
Mn972 O977 2.095 . S
Mn972 O987 2.162 . S
Mn972 O988 2.297 . S
Mn972 O996 2.385 . S
Mn972 O997 2.209 . S
Mn972 O998 2.094 . S
Mn973 O978 2.121 . S
Mn973 N980 2.257 . S
Mn973 N989 2.282 . S
Mn973 O997 2.215 . S
Mn973 O999 2.117 . S
C974 O996 1.234 . S
C974 O997 1.283 . S
C975 O987 1.281 . S
C975 O988 1.236 . S
C976 O998 1.240 . S
C976 O999 1.264 . S
O977 Mn972 2.095 . S
O977 C986 1.250 . S
O978 Mn973 2.121 . S
O978 C986 1.258 . S
C979 N980 1.326 . S
C979 C983 1.460 . S
C979 H985 0.929 . S
N980 Mn973 2.257 . S
N980 C979 1.326 . S
N980 C984 1.362 . S
C981 C982 1.258 . S
C981 C984 1.431 . S
C981 C1001 1.449 . S
C982 C981 1.258 . S
C982 C983 1.477 . S
C982 H1002 0.931 . S
C983 C979 1.460 . S
C983 C982 1.477 . S
C983 H1003 0.930 . S
C984 N980 1.362 . S
C984 C981 1.431 . S
C984 C994 1.476 . S
H985 C979 0.929 . S
C986 O977 1.250 . S
C986 O978 1.258 . S
O987 Mn972 2.162 . S
O987 C975 1.281 . S
O988 Mn972 2.297 . S
O988 C975 1.236 . S
N989 Mn973 2.282 . S
N989 C990 1.328 . S
N989 C994 1.318 . S
C990 N989 1.328 . S
C990 C991 1.457 . S
C990 H995 0.929 . S
C991 C990 1.457 . S
C991 C992 1.291 . S
C991 H1004 0.931 . S
C992 C991 1.291 . S
C992 C993 1.373 . S
C992 H1005 0.929 . S
C993 C992 1.373 . S
C993 C994 1.396 . S
C993 C1000 1.403 . S
C994 C984 1.476 . S
C994 N989 1.318 . S
C994 C993 1.396 . S
H995 C990 0.929 . S
O996 Mn972 2.385 . S
O996 C974 1.234 . S
O997 Mn972 2.209 . S
O997 Mn973 2.215 . S
O997 C974 1.283 . S
O998 Mn972 2.094 . S
O998 C976 1.240 . S
O999 Mn973 2.117 . S
O999 C976 1.264 . S
C1000 C993 1.403 . S
C1000 C1001 1.399 . S
C1000 H1006 0.929 . S
C1001 C981 1.449 . S
C1001 C1000 1.399 . S
C1001 H1007 0.930 . S
H1002 C982 0.931 . S
H1003 C983 0.930 . S
H1004 C991 0.931 . S
H1005 C992 0.929 . S
H1006 C1000 0.929 . S
H1007 C1001 0.930 . S
Mn1008 O1013 2.095 . S
Mn1008 O1023 2.162 . S
Mn1008 O1024 2.297 . S
Mn1008 O1032 2.385 . S
Mn1008 O1033 2.209 . S
Mn1008 O1034 2.094 . S
Mn1009 O1014 2.121 . S
Mn1009 N1016 2.257 . S
Mn1009 N1025 2.282 . S
Mn1009 O1033 2.215 . S
Mn1009 O1035 2.117 . S
C1010 O1032 1.234 . S
C1010 O1033 1.283 . S
C1011 O1023 1.281 . S
C1011 O1024 1.236 . S
C1012 O1034 1.240 . S
C1012 O1035 1.264 . S
O1013 Mn1008 2.095 . S
O1013 C1022 1.250 . S
O1014 Mn1009 2.121 . S
O1014 C1022 1.258 . S
C1015 N1016 1.326 . S
C1015 C1019 1.460 . S
C1015 H1021 0.929 . S
N1016 Mn1009 2.257 . S
N1016 C1015 1.326 . S
N1016 C1020 1.362 . S
C1017 C1018 1.258 1_655 S
C1017 C1020 1.431 1_655 S
C1017 C1037 1.449 . S
C1018 C1017 1.258 1_455 S
C1018 C1019 1.477 . S
C1018 H1038 0.931 1_455 S
C1019 C1015 1.460 . S
C1019 C1018 1.477 . S
C1019 H1039 0.930 . S
C1020 N1016 1.362 . S
C1020 C1017 1.431 1_455 S
C1020 C1030 1.476 . S
H1021 C1015 0.929 . S
C1022 O1013 1.250 . S
C1022 O1014 1.258 . S
O1023 Mn1008 2.162 . S
O1023 C1011 1.281 . S
O1024 Mn1008 2.297 . S
O1024 C1011 1.236 . S
N1025 Mn1009 2.282 . S
N1025 C1026 1.328 . S
N1025 C1030 1.318 . S
C1026 N1025 1.328 . S
C1026 C1027 1.457 1_455 S
C1026 H1031 0.929 . S
C1027 C1026 1.457 1_655 S
C1027 C1028 1.291 . S
C1027 H1040 0.931 . S
C1028 C1027 1.291 . S
C1028 C1029 1.373 . S
C1028 H1041 0.929 . S
C1029 C1028 1.373 . S
C1029 C1030 1.396 1_655 S
C1029 C1036 1.403 . S
C1030 C1020 1.476 . S
C1030 N1025 1.318 . S
C1030 C1029 1.396 1_455 S
H1031 C1026 0.929 . S
O1032 Mn1008 2.385 . S
O1032 C1010 1.234 . S
O1033 Mn1008 2.209 . S
O1033 Mn1009 2.215 . S
O1033 C1010 1.283 . S
O1034 Mn1008 2.094 . S
O1034 C1012 1.240 . S
O1035 Mn1009 2.117 . S
O1035 C1012 1.264 . S
C1036 C1029 1.403 . S
C1036 C1037 1.399 . S
C1036 H1042 0.929 . S
C1037 C1017 1.449 . S
C1037 C1036 1.399 . S
C1037 H1043 0.930 . S
H1038 C1018 0.931 1_655 S
H1039 C1019 0.930 . S
H1040 C1027 0.931 . S
H1041 C1028 0.929 . S
H1042 C1036 0.929 . S
H1043 C1037 0.930 . S
Mn1044 O1049 2.095 . S
Mn1044 O1059 2.162 . S
Mn1044 O1060 2.297 . S
Mn1044 O1068 2.385 . S
Mn1044 O1069 2.209 . S
Mn1044 O1070 2.094 . S
Mn1045 O1050 2.121 . S
Mn1045 N1052 2.257 . S
Mn1045 N1061 2.282 . S
Mn1045 O1069 2.215 . S
Mn1045 O1071 2.117 . S
C1046 O1068 1.234 . S
C1046 O1069 1.283 . S
C1047 O1059 1.281 . S
C1047 O1060 1.236 . S
C1048 O1070 1.240 . S
C1048 O1071 1.264 . S
O1049 Mn1044 2.095 . S
O1049 C1058 1.250 . S
O1050 Mn1045 2.121 . S
O1050 C1058 1.258 . S
C1051 N1052 1.326 . S
C1051 C1055 1.460 . S
C1051 H1057 0.929 . S
N1052 Mn1045 2.257 . S
N1052 C1051 1.326 . S
N1052 C1056 1.362 . S
C1053 C1054 1.258 . S
C1053 C1056 1.431 . S
C1053 C1073 1.449 . S
C1054 C1053 1.258 . S
C1054 C1055 1.477 . S
C1054 H1074 0.931 . S
C1055 C1051 1.460 . S
C1055 C1054 1.477 . S
C1055 H1075 0.930 . S
C1056 N1052 1.362 . S
C1056 C1053 1.431 . S
C1056 C1066 1.476 . S
H1057 C1051 0.929 . S
C1058 O1049 1.250 . S
C1058 O1050 1.258 . S
O1059 Mn1044 2.162 . S
O1059 C1047 1.281 . S
O1060 Mn1044 2.297 . S
O1060 C1047 1.236 . S
N1061 Mn1045 2.282 . S
N1061 C1062 1.328 . S
N1061 C1066 1.318 . S
C1062 N1061 1.328 . S
C1062 C1063 1.457 . S
C1062 H1067 0.929 . S
C1063 C1062 1.457 . S
C1063 C1064 1.291 . S
C1063 H1076 0.931 . S
C1064 C1063 1.291 . S
C1064 C1065 1.373 . S
C1064 H1077 0.929 . S
C1065 C1064 1.373 . S
C1065 C1066 1.396 . S
C1065 C1072 1.403 . S
C1066 C1056 1.476 . S
C1066 N1061 1.318 . S
C1066 C1065 1.396 . S
H1067 C1062 0.929 . S
O1068 Mn1044 2.385 . S
O1068 C1046 1.234 . S
O1069 Mn1044 2.209 . S
O1069 Mn1045 2.215 . S
O1069 C1046 1.283 . S
O1070 Mn1044 2.094 . S
O1070 C1048 1.240 . S
O1071 Mn1045 2.117 . S
O1071 C1048 1.264 . S
C1072 C1065 1.403 . S
C1072 C1073 1.399 . S
C1072 H1078 0.929 . S
C1073 C1053 1.449 . S
C1073 C1072 1.399 . S
C1073 H1079 0.930 . S
H1074 C1054 0.931 . S
H1075 C1055 0.930 . S
H1076 C1063 0.931 . S
H1077 C1064 0.929 . S
H1078 C1072 0.929 . S
H1079 C1073 0.930 . S
Mn1080 O1085 2.095 . S
Mn1080 O1095 2.162 . S
Mn1080 O1096 2.297 . S
Mn1080 O1104 2.385 . S
Mn1080 O1105 2.209 . S
Mn1080 O1106 2.094 . S
Mn1081 O1086 2.121 . S
Mn1081 N1088 2.257 . S
Mn1081 N1097 2.282 . S
Mn1081 O1105 2.215 . S
Mn1081 O1107 2.117 . S
C1082 O1104 1.234 . S
C1082 O1105 1.283 . S
C1083 O1095 1.281 . S
C1083 O1096 1.236 . S
C1084 O1106 1.240 . S
C1084 O1107 1.264 . S
O1085 Mn1080 2.095 . S
O1085 C1094 1.250 . S
O1086 Mn1081 2.121 . S
O1086 C1094 1.258 . S
C1087 N1088 1.326 . S
C1087 C1091 1.460 . S
C1087 H1093 0.929 . S
N1088 Mn1081 2.257 . S
N1088 C1087 1.326 . S
N1088 C1092 1.362 . S
C1089 C1090 1.258 . S
C1089 C1092 1.431 . S
C1089 C1109 1.449 . S
C1090 C1089 1.258 . S
C1090 C1091 1.477 . S
C1090 H1110 0.931 . S
C1091 C1087 1.460 . S
C1091 C1090 1.477 . S
C1091 H1111 0.930 . S
C1092 N1088 1.362 . S
C1092 C1089 1.431 . S
C1092 C1102 1.476 . S
H1093 C1087 0.929 . S
C1094 O1085 1.250 . S
C1094 O1086 1.258 . S
O1095 Mn1080 2.162 . S
O1095 C1083 1.281 . S
O1096 Mn1080 2.297 . S
O1096 C1083 1.236 . S
N1097 Mn1081 2.282 . S
N1097 C1098 1.328 . S
N1097 C1102 1.318 . S
C1098 N1097 1.328 . S
C1098 C1099 1.457 . S
C1098 H1103 0.929 . S
C1099 C1098 1.457 . S
C1099 C1100 1.291 . S
C1099 H1112 0.931 . S
C1100 C1099 1.291 . S
C1100 C1101 1.373 . S
C1100 H1113 0.929 . S
C1101 C1100 1.373 . S
C1101 C1102 1.396 . S
C1101 C1108 1.403 . S
C1102 C1092 1.476 . S
C1102 N1097 1.318 . S
C1102 C1101 1.396 . S
H1103 C1098 0.929 . S
O1104 Mn1080 2.385 . S
O1104 C1082 1.234 . S
O1105 Mn1080 2.209 . S
O1105 Mn1081 2.215 . S
O1105 C1082 1.283 . S
O1106 Mn1080 2.094 . S
O1106 C1084 1.240 . S
O1107 Mn1081 2.117 . S
O1107 C1084 1.264 . S
C1108 C1101 1.403 . S
C1108 C1109 1.399 . S
C1108 H1114 0.929 . S
C1109 C1089 1.449 . S
C1109 C1108 1.399 . S
C1109 H1115 0.930 . S
H1110 C1090 0.931 . S
H1111 C1091 0.930 . S
H1112 C1099 0.931 . S
H1113 C1100 0.929 . S
H1114 C1108 0.929 . S
H1115 C1109 0.930 . S
Mn1116 O1121 2.095 . S
Mn1116 O1131 2.162 . S
Mn1116 O1132 2.297 . S
Mn1116 O1140 2.385 . S
Mn1116 O1141 2.209 . S
Mn1116 O1142 2.094 . S
Mn1117 O1122 2.121 . S
Mn1117 N1124 2.257 . S
Mn1117 N1133 2.282 . S
Mn1117 O1141 2.215 . S
Mn1117 O1143 2.117 . S
C1118 O1140 1.234 . S
C1118 O1141 1.283 . S
C1119 O1131 1.281 . S
C1119 O1132 1.236 . S
C1120 O1142 1.240 . S
C1120 O1143 1.264 . S
O1121 Mn1116 2.095 . S
O1121 C1130 1.250 . S
O1122 Mn1117 2.121 . S
O1122 C1130 1.258 . S
C1123 N1124 1.326 . S
C1123 C1127 1.460 . S
C1123 H1129 0.929 . S
N1124 Mn1117 2.257 . S
N1124 C1123 1.326 . S
N1124 C1128 1.362 . S
C1125 C1126 1.258 . S
C1125 C1128 1.431 . S
C1125 C1145 1.449 . S
C1126 C1125 1.258 . S
C1126 C1127 1.477 . S
C1126 H1146 0.931 . S
C1127 C1123 1.460 . S
C1127 C1126 1.477 . S
C1127 H1147 0.930 . S
C1128 N1124 1.362 . S
C1128 C1125 1.431 . S
C1128 C1138 1.476 . S
H1129 C1123 0.929 . S
C1130 O1121 1.250 . S
C1130 O1122 1.258 . S
O1131 Mn1116 2.162 . S
O1131 C1119 1.281 . S
O1132 Mn1116 2.297 . S
O1132 C1119 1.236 . S
N1133 Mn1117 2.282 . S
N1133 C1134 1.328 . S
N1133 C1138 1.318 . S
C1134 N1133 1.328 . S
C1134 C1135 1.457 . S
C1134 H1139 0.929 . S
C1135 C1134 1.457 . S
C1135 C1136 1.291 . S
C1135 H1148 0.931 . S
C1136 C1135 1.291 . S
C1136 C1137 1.373 . S
C1136 H1149 0.929 . S
C1137 C1136 1.373 . S
C1137 C1138 1.396 . S
C1137 C1144 1.403 . S
C1138 C1128 1.476 . S
C1138 N1133 1.318 . S
C1138 C1137 1.396 . S
H1139 C1134 0.929 . S
O1140 Mn1116 2.385 . S
O1140 C1118 1.234 . S
O1141 Mn1116 2.209 . S
O1141 Mn1117 2.215 . S
O1141 C1118 1.283 . S
O1142 Mn1116 2.094 . S
O1142 C1120 1.240 . S
O1143 Mn1117 2.117 . S
O1143 C1120 1.264 . S
C1144 C1137 1.403 . S
C1144 C1145 1.399 . S
C1144 H1150 0.929 . S
C1145 C1125 1.449 . S
C1145 C1144 1.399 . S
C1145 H1151 0.930 . S
H1146 C1126 0.931 . S
H1147 C1127 0.930 . S
H1148 C1135 0.931 . S
H1149 C1136 0.929 . S
H1150 C1144 0.929 . S
H1151 C1145 0.930 . S
H1152 C1160 0.950 . S
H1153 C1165 0.950 . S
H1154 C1162 0.938 1_545 S
H1155 C1164 0.950 . S
H1156 C1166 0.950 . S
H1157 C1168 0.938 1_565 S
H1158 C1170 0.950 . S
H1159 C1171 0.950 . S
C1160 H1152 0.950 . S
C1160 C1161 1.386 . S
C1160 C1162 1.391 . S
C1161 C1160 1.386 . S
C1161 C1165 1.393 . S
C1162 H1154 0.938 1_565 S
C1162 C1160 1.391 . S
C1162 C1163 1.400 . S
C1163 C1162 1.400 . S
C1163 C1164 1.398 . S
C1163 C1169 1.491 1_565 S
C1164 H1155 0.950 . S
C1164 C1163 1.398 . S
C1164 C1165 1.391 . S
C1165 H1153 0.950 . S
C1165 C1161 1.393 . S
C1165 C1164 1.391 . S
C1166 H1156 0.950 . S
C1166 C1167 1.386 . S
C1166 C1168 1.391 . S
C1167 C1166 1.386 . S
C1167 C1171 1.393 . S
C1168 H1157 0.938 1_545 S
C1168 C1166 1.391 . S
C1168 C1169 1.400 . S
C1169 C1163 1.491 1_545 S
C1169 C1168 1.400 . S
C1169 C1170 1.398 . S
C1170 H1158 0.950 . S
C1170 C1169 1.398 . S
C1170 C1171 1.391 . S
C1171 H1159 0.950 . S
C1171 C1167 1.393 . S
C1171 C1170 1.391 . S
H1172 C1180 0.950 . S
H1173 C1185 0.950 . S
H1174 C1182 0.950 . S
H1175 C1184 0.950 . S
H1176 C1186 0.950 . S
H1177 C1188 0.950 . S
H1178 C1190 0.950 . S
H1179 C1191 0.950 . S
C1180 H1172 0.950 . S
C1180 C1181 1.386 . S
C1180 C1182 1.391 . S
C1181 C1180 1.386 . S
C1181 C1185 1.393 . S
C1182 H1174 0.950 . S
C1182 C1180 1.391 . S
C1182 C1183 1.400 . S
C1183 C1182 1.400 . S
C1183 C1184 1.398 . S
C1183 C1189 1.491 . S
C1184 H1175 0.950 . S
C1184 C1183 1.398 . S
C1184 C1185 1.391 . S
C1185 H1173 0.950 . S
C1185 C1181 1.393 . S
C1185 C1184 1.391 . S
C1186 H1176 0.950 . S
C1186 C1187 1.386 . S
C1186 C1188 1.391 . S
C1187 C1186 1.386 . S
C1187 C1191 1.393 . S
C1188 H1177 0.950 . S
C1188 C1186 1.391 . S
C1188 C1189 1.400 . S
C1189 C1183 1.491 . S
C1189 C1188 1.400 . S
C1189 C1190 1.398 . S
C1190 H1178 0.950 . S
C1190 C1189 1.398 . S
C1190 C1191 1.391 . S
C1191 H1179 0.950 . S
C1191 C1187 1.393 . S
C1191 C1190 1.391 . S
H1192 C1200 0.950 . S
H1193 C1205 0.950 . S
H1194 C1202 0.950 . S
H1195 C1204 0.950 . S
H1196 C1206 0.950 . S
H1197 C1208 0.950 . S
H1198 C1210 0.950 . S
H1199 C1211 0.950 . S
C1200 H1192 0.950 . S
C1200 C1201 1.386 . S
C1200 C1202 1.391 1_545 S
C1201 C1200 1.386 . S
C1201 C1205 1.393 . S
C1202 H1194 0.950 . S
C1202 C1200 1.391 1_565 S
C1202 C1203 1.400 1_565 S
C1203 C1202 1.400 1_545 S
C1203 C1204 1.398 . S
C1203 C1209 1.491 1_545 S
C1204 H1195 0.950 . S
C1204 C1203 1.398 . S
C1204 C1205 1.391 . S
C1205 H1193 0.950 . S
C1205 C1201 1.393 . S
C1205 C1204 1.391 . S
C1206 H1196 0.950 . S
C1206 C1207 1.386 . S
C1206 C1208 1.391 1_565 S
C1207 C1206 1.386 . S
C1207 C1211 1.393 . S
C1208 H1197 0.950 . S
C1208 C1206 1.391 1_545 S
C1208 C1209 1.400 1_545 S
C1209 C1203 1.491 1_565 S
C1209 C1208 1.400 1_565 S
C1209 C1210 1.398 . S
C1210 H1198 0.950 . S
C1210 C1209 1.398 . S
C1210 C1211 1.391 . S
C1211 H1199 0.950 . S
C1211 C1207 1.393 . S
C1211 C1210 1.391 . S
H1212 C1220 0.950 . S
H1213 C1225 0.950 . S
H1214 C1222 0.950 . S
H1215 C1224 0.950 . S
H1216 C1226 0.950 . S
H1217 C1228 0.950 . S
H1218 C1230 0.950 . S
H1219 C1231 0.950 . S
C1220 H1212 0.950 . S
C1220 C1221 1.386 . S
C1220 C1222 1.391 . S
C1221 C1220 1.386 . S
C1221 C1225 1.393 . S
C1222 H1214 0.950 . S
C1222 C1220 1.391 . S
C1222 C1223 1.400 . S
C1223 C1222 1.400 . S
C1223 C1224 1.398 . S
C1223 C1229 1.491 1_556 S
C1224 H1215 0.950 . S
C1224 C1223 1.398 . S
C1224 C1225 1.391 . S
C1225 H1213 0.950 . S
C1225 C1221 1.393 . S
C1225 C1224 1.391 . S
C1226 H1216 0.950 . S
C1226 C1227 1.386 . S
C1226 C1228 1.391 . S
C1227 C1226 1.386 . S
C1227 C1231 1.393 . S
C1228 H1217 0.950 . S
C1228 C1226 1.391 . S
C1228 C1229 1.400 . S
C1229 C1223 1.491 1_554 S
C1229 C1228 1.400 . S
C1229 C1230 1.398 . S
C1230 H1218 0.950 . S
C1230 C1229 1.398 . S
C1230 C1231 1.391 . S
C1231 H1219 0.950 . S
C1231 C1227 1.393 . S
C1231 C1230 1.391 . S
H1232 C1240 0.950 . S
H1233 C1245 0.950 . S
H1234 C1242 0.950 . S
H1235 C1244 0.950 . S
H1236 C1246 0.950 . S
H1237 C1248 0.950 . S
H1238 C1250 0.950 . S
H1239 C1251 0.950 . S
C1240 H1232 0.950 . S
C1240 C1241 1.386 1_545 S
C1240 C1242 1.391 . S
C1241 C1240 1.386 1_565 S
C1241 C1245 1.393 . S
C1242 H1234 0.950 . S
C1242 C1240 1.391 . S
C1242 C1243 1.400 1_545 S
C1243 C1242 1.400 1_565 S
C1243 C1244 1.398 . S
C1243 C1249 1.491 1_565 S
C1244 H1235 0.950 . S
C1244 C1243 1.398 . S
C1244 C1245 1.391 . S
C1245 H1233 0.950 . S
C1245 C1241 1.393 . S
C1245 C1244 1.391 . S
C1246 H1236 0.950 . S
C1246 C1247 1.386 1_565 S
C1246 C1248 1.391 . S
C1247 C1246 1.386 1_545 S
C1247 C1251 1.393 . S
C1248 H1237 0.950 . S
C1248 C1246 1.391 . S
C1248 C1249 1.400 1_565 S
C1249 C1243 1.491 1_545 S
C1249 C1248 1.400 1_545 S
C1249 C1250 1.398 . S
C1250 H1238 0.950 . S
C1250 C1249 1.398 . S
C1250 C1251 1.391 . S
C1251 H1239 0.950 . S
C1251 C1247 1.393 . S
C1251 C1250 1.391 . S
H1252 C1260 0.950 . S
H1253 C1265 0.950 . S
H1254 C1262 0.950 . S
H1255 C1264 0.950 . S
H1256 C1266 0.950 . S
H1257 C1268 0.950 . S
H1258 C1270 0.950 . S
H1259 C1271 0.950 . S
C1260 H1252 0.950 . S
C1260 C1261 1.386 . S
C1260 C1262 1.391 . S
C1261 C1260 1.386 . S
C1261 C1265 1.393 . S
C1262 H1254 0.950 . S
C1262 C1260 1.391 . S
C1262 C1263 1.400 . S
C1263 C1262 1.400 . S
C1263 C1264 1.398 . S
C1263 C1269 1.491 . S
C1264 H1255 0.950 . S
C1264 C1263 1.398 . S
C1264 C1265 1.391 . S
C1265 H1253 0.950 . S
C1265 C1261 1.393 . S
C1265 C1264 1.391 . S
C1266 H1256 0.950 . S
C1266 C1267 1.386 . S
C1266 C1268 1.391 . S
C1267 C1266 1.386 . S
C1267 C1271 1.393 . S
C1268 H1257 0.950 . S
C1268 C1266 1.391 . S
C1268 C1269 1.400 . S
C1269 C1263 1.491 . S
C1269 C1268 1.400 . S
C1269 C1270 1.398 . S
C1270 H1258 0.950 . S
C1270 C1269 1.398 . S
C1270 C1271 1.391 . S
C1271 H1259 0.950 . S
C1271 C1267 1.393 . S
C1271 C1270 1.391 . S
H1272 C1280 0.950 . S
H1273 C1285 0.950 . S
H1274 C1282 0.950 . S
H1275 C1284 0.950 . S
H1276 C1286 0.950 . S
H1277 C1288 0.950 . S
H1278 C1290 0.950 . S
H1279 C1291 0.950 . S
C1280 H1272 0.950 . S
C1280 C1281 1.386 . S
C1280 C1282 1.391 . S
C1281 C1280 1.386 . S
C1281 C1285 1.393 1_545 S
C1282 H1274 0.950 . S
C1282 C1280 1.391 . S
C1282 C1283 1.400 . S
C1283 C1282 1.400 . S
C1283 C1284 1.398 1_545 S
C1283 C1289 1.491 1_545 S
C1284 H1275 0.950 . S
C1284 C1283 1.398 1_565 S
C1284 C1285 1.391 . S
C1285 H1273 0.950 . S
C1285 C1281 1.393 1_565 S
C1285 C1284 1.391 . S
C1286 H1276 0.950 . S
C1286 C1287 1.386 . S
C1286 C1288 1.391 . S
C1287 C1286 1.386 . S
C1287 C1291 1.393 1_565 S
C1288 H1277 0.950 . S
C1288 C1286 1.391 . S
C1288 C1289 1.400 . S
C1289 C1283 1.491 1_565 S
C1289 C1288 1.400 . S
C1289 C1290 1.398 1_565 S
C1290 H1278 0.950 . S
C1290 C1289 1.398 1_545 S
C1290 C1291 1.391 . S
C1291 H1279 0.950 . S
C1291 C1287 1.393 1_545 S
C1291 C1290 1.391 . S
H1292 C1300 0.950 . S
H1293 C1305 0.950 . S
H1294 C1302 0.950 . S
H1295 C1304 0.950 . S
H1296 C1306 0.950 . S
H1297 C1308 0.950 . S
H1298 C1310 0.950 . S
H1299 C1311 0.950 . S
C1300 H1292 0.950 . S
C1300 C1301 1.386 . S
C1300 C1302 1.391 . S
C1301 C1300 1.386 . S
C1301 C1305 1.393 . S
C1302 H1294 0.950 . S
C1302 C1300 1.391 . S
C1302 C1303 1.400 . S
C1303 C1302 1.400 . S
C1303 C1304 1.398 . S
C1303 C1309 1.491 1_556 S
C1304 H1295 0.950 . S
C1304 C1303 1.398 . S
C1304 C1305 1.391 . S
C1305 H1293 0.950 . S
C1305 C1301 1.393 . S
C1305 C1304 1.391 . S
C1306 H1296 0.950 . S
C1306 C1307 1.386 . S
C1306 C1308 1.391 . S
C1307 C1306 1.386 . S
C1307 C1311 1.393 . S
C1308 H1297 0.950 . S
C1308 C1306 1.391 . S
C1308 C1309 1.400 . S
C1309 C1303 1.491 1_554 S
C1309 C1308 1.400 . S
C1309 C1310 1.398 . S
C1310 H1298 0.950 . S
C1310 C1309 1.398 . S
C1310 C1311 1.391 . S
C1311 H1299 0.950 . S
C1311 C1307 1.393 . S
C1311 C1310 1.391 . S
H1312 C1320 0.950 . S
H1313 C1325 0.950 . S
H1314 C1322 0.950 . S
H1315 C1324 0.950 . S
H1316 C1326 0.950 . S
H1317 C1328 0.950 . S
H1318 C1330 0.950 . S
H1319 C1331 0.950 . S
C1320 H1312 0.950 . S
C1320 C1321 1.386 . S
C1320 C1322 1.391 . S
C1321 C1320 1.386 . S
C1321 C1325 1.393 . S
C1322 H1314 0.950 . S
C1322 C1320 1.391 . S
C1322 C1323 1.400 . S
C1323 C1322 1.400 . S
C1323 C1324 1.398 . S
C1323 C1329 1.491 . S
C1324 H1315 0.950 . S
C1324 C1323 1.398 . S
C1324 C1325 1.391 . S
C1325 H1313 0.950 . S
C1325 C1321 1.393 . S
C1325 C1324 1.391 . S
C1326 H1316 0.950 . S
C1326 C1327 1.386 . S
C1326 C1328 1.391 . S
C1327 C1326 1.386 . S
C1327 C1331 1.393 . S
C1328 H1317 0.950 . S
C1328 C1326 1.391 . S
C1328 C1329 1.400 . S
C1329 C1323 1.491 . S
C1329 C1328 1.400 . S
C1329 C1330 1.398 . S
C1330 H1318 0.950 . S
C1330 C1329 1.398 . S
C1330 C1331 1.391 . S
C1331 H1319 0.950 . S
C1331 C1327 1.393 . S
C1331 C1330 1.391 . S
H1332 C1340 0.950 . S
H1333 C1345 0.950 . S
H1334 C1342 0.950 . S
H1335 C1344 0.950 . S
H1336 C1346 0.950 . S
H1337 C1348 0.950 . S
H1338 C1350 0.950 . S
H1339 C1351 0.950 . S
C1340 H1332 0.950 . S
C1340 C1341 1.386 . S
C1340 C1342 1.391 . S
C1341 C1340 1.386 . S
C1341 C1345 1.393 . S
C1342 H1334 0.950 . S
C1342 C1340 1.391 . S
C1342 C1343 1.400 . S
C1343 C1342 1.400 . S
C1343 C1344 1.398 . S
C1343 C1349 1.491 1_554 S
C1344 H1335 0.950 . S
C1344 C1343 1.398 . S
C1344 C1345 1.391 . S
C1345 H1333 0.950 . S
C1345 C1341 1.393 . S
C1345 C1344 1.391 . S
C1346 H1336 0.950 . S
C1346 C1347 1.386 . S
C1346 C1348 1.391 . S
C1347 C1346 1.386 . S
C1347 C1351 1.393 . S
C1348 H1337 0.950 . S
C1348 C1346 1.391 . S
C1348 C1349 1.400 . S
C1349 C1343 1.491 1_556 S
C1349 C1348 1.400 . S
C1349 C1350 1.398 . S
C1350 H1338 0.950 . S
C1350 C1349 1.398 . S
C1350 C1351 1.391 . S
C1351 H1339 0.950 . S
C1351 C1347 1.393 . S
C1351 C1350 1.391 . S
H1352 C1360 0.950 . S
H1353 C1365 0.950 . S
H1354 C1362 0.950 . S
H1355 C1364 0.950 . S
H1356 C1366 0.950 . S
H1357 C1368 0.950 . S
H1358 C1370 0.950 . S
H1359 C1371 0.950 . S
C1360 H1352 0.950 . S
C1360 C1361 1.386 . S
C1360 C1362 1.391 . S
C1361 C1360 1.386 . S
C1361 C1365 1.393 . S
C1362 H1354 0.950 . S
C1362 C1360 1.391 . S
C1362 C1363 1.400 . S
C1363 C1362 1.400 . S
C1363 C1364 1.398 . S
C1363 C1369 1.491 . S
C1364 H1355 0.950 . S
C1364 C1363 1.398 . S
C1364 C1365 1.391 . S
C1365 H1353 0.950 . S
C1365 C1361 1.393 . S
C1365 C1364 1.391 . S
C1366 H1356 0.950 . S
C1366 C1367 1.386 . S
C1366 C1368 1.391 . S
C1367 C1366 1.386 . S
C1367 C1371 1.393 . S
C1368 H1357 0.950 . S
C1368 C1366 1.391 . S
C1368 C1369 1.400 . S
C1369 C1363 1.491 . S
C1369 C1368 1.400 . S
C1369 C1370 1.398 . S
C1370 H1358 0.950 . S
C1370 C1369 1.398 . S
C1370 C1371 1.391 . S
C1371 H1359 0.950 . S
C1371 C1367 1.393 . S
C1371 C1370 1.391 . S
H1372 C1380 0.950 . S
H1373 C1385 0.950 . S
H1374 C1382 0.950 . S
H1375 C1384 0.950 . S
H1376 C1386 0.950 . S
H1377 C1388 0.950 . S
H1378 C1390 0.950 . S
H1379 C1391 0.950 . S
C1380 H1372 0.950 . S
C1380 C1381 1.386 . S
C1380 C1382 1.391 . S
C1381 C1380 1.386 . S
C1381 C1385 1.393 . S
C1382 H1374 0.950 . S
C1382 C1380 1.391 . S
C1382 C1383 1.400 . S
C1383 C1382 1.400 . S
C1383 C1384 1.398 . S
C1383 C1389 1.491 . S
C1384 H1375 0.950 . S
C1384 C1383 1.398 . S
C1384 C1385 1.391 . S
C1385 H1373 0.950 . S
C1385 C1381 1.393 . S
C1385 C1384 1.391 . S
C1386 H1376 0.950 . S
C1386 C1387 1.386 . S
C1386 C1388 1.391 . S
C1387 C1386 1.386 . S
C1387 C1391 1.393 . S
C1388 H1377 0.950 . S
C1388 C1386 1.391 . S
C1388 C1389 1.400 . S
C1389 C1383 1.491 . S
C1389 C1388 1.400 . S
C1389 C1390 1.398 . S
C1390 H1378 0.950 . S
C1390 C1389 1.398 . S
C1390 C1391 1.391 . S
C1391 H1379 0.950 . S
C1391 C1387 1.393 . S
C1391 C1390 1.391 . S
H1392 C1400 0.950 . S
H1393 C1405 0.950 . S
H1394 C1402 0.950 . S
H1395 C1404 0.950 . S
H1396 C1406 0.950 . S
H1397 C1408 0.950 . S
H1398 C1410 0.950 . S
H1399 C1411 0.950 . S
C1400 H1392 0.950 . S
C1400 C1401 1.386 . S
C1400 C1402 1.391 . S
C1401 C1400 1.386 . S
C1401 C1405 1.393 . S
C1402 H1394 0.950 . S
C1402 C1400 1.391 . S
C1402 C1403 1.400 . S
C1403 C1402 1.400 . S
C1403 C1404 1.398 . S
C1403 C1409 1.491 . S
C1404 H1395 0.950 . S
C1404 C1403 1.398 . S
C1404 C1405 1.391 . S
C1405 H1393 0.950 . S
C1405 C1401 1.393 . S
C1405 C1404 1.391 . S
C1406 H1396 0.950 . S
C1406 C1407 1.386 . S
C1406 C1408 1.391 . S
C1407 C1406 1.386 . S
C1407 C1411 1.393 . S
C1408 H1397 0.950 . S
C1408 C1406 1.391 . S
C1408 C1409 1.400 . S
C1409 C1403 1.491 . S
C1409 C1408 1.400 . S
C1409 C1410 1.398 . S
C1410 H1398 0.950 . S
C1410 C1409 1.398 . S
C1410 C1411 1.391 . S
C1411 H1399 0.950 . S
C1411 C1407 1.393 . S
C1411 C1410 1.391 . S
H1412 C1420 0.950 . S
H1413 C1425 0.950 . S
H1414 C1422 0.950 . S
H1415 C1424 0.950 . S
H1416 C1426 0.950 . S
H1417 C1428 0.950 . S
H1418 C1430 0.950 . S
H1419 C1431 0.950 . S
C1420 H1412 0.950 . S
C1420 C1421 1.386 . S
C1420 C1422 1.391 . S
C1421 C1420 1.386 . S
C1421 C1425 1.393 . S
C1422 H1414 0.950 . S
C1422 C1420 1.391 . S
C1422 C1423 1.400 . S
C1423 C1422 1.400 . S
C1423 C1424 1.398 . S
C1423 C1429 1.491 1_554 S
C1424 H1415 0.950 . S
C1424 C1423 1.398 . S
C1424 C1425 1.391 . S
C1425 H1413 0.950 . S
C1425 C1421 1.393 . S
C1425 C1424 1.391 . S
C1426 H1416 0.950 . S
C1426 C1427 1.386 . S
C1426 C1428 1.391 . S
C1427 C1426 1.386 . S
C1427 C1431 1.393 . S
C1428 H1417 0.950 . S
C1428 C1426 1.391 . S
C1428 C1429 1.400 . S
C1429 C1423 1.491 1_556 S
C1429 C1428 1.400 . S
C1429 C1430 1.398 . S
C1430 H1418 0.950 . S
C1430 C1429 1.398 . S
C1430 C1431 1.391 . S
C1431 H1419 0.950 . S
C1431 C1427 1.393 . S
C1431 C1430 1.391 . S
H1432 C1440 0.950 . S
H1433 C1445 0.950 . S
H1434 C1442 0.950 . S
H1435 C1444 0.950 . S
H1436 C1446 0.950 . S
H1437 C1448 0.950 . S
H1438 C1450 0.950 . S
H1439 C1451 0.950 . S
C1440 H1432 0.950 . S
C1440 C1441 1.386 . S
C1440 C1442 1.391 . S
C1441 C1440 1.386 . S
C1441 C1445 1.393 . S
C1442 H1434 0.950 . S
C1442 C1440 1.391 . S
C1442 C1443 1.400 . S
C1443 C1442 1.400 . S
C1443 C1444 1.398 . S
C1443 C1449 1.491 . S
C1444 H1435 0.950 . S
C1444 C1443 1.398 . S
C1444 C1445 1.391 . S
C1445 H1433 0.950 . S
C1445 C1441 1.393 . S
C1445 C1444 1.391 . S
C1446 H1436 0.950 . S
C1446 C1447 1.386 . S
C1446 C1448 1.391 . S
C1447 C1446 1.386 . S
C1447 C1451 1.393 . S
C1448 H1437 0.950 . S
C1448 C1446 1.391 . S
C1448 C1449 1.400 . S
C1449 C1443 1.491 . S
C1449 C1448 1.400 . S
C1449 C1450 1.398 . S
C1450 H1438 0.950 . S
C1450 C1449 1.398 . S
C1450 C1451 1.391 . S
C1451 H1439 0.950 . S
C1451 C1447 1.393 . S
C1451 C1450 1.391 . S
H1452 C1460 0.950 . S
H1453 C1465 0.950 . S
H1454 C1462 0.950 . S
H1455 C1464 0.950 . S
H1456 C1466 0.950 . S
H1457 C1468 0.950 . S
H1458 C1470 0.950 . S
H1459 C1471 0.950 . S
C1460 H1452 0.950 . S
C1460 C1461 1.386 . S
C1460 C1462 1.391 . S
C1461 C1460 1.386 . S
C1461 C1465 1.393 . S
C1462 H1454 0.950 . S
C1462 C1460 1.391 . S
C1462 C1463 1.400 . S
C1463 C1462 1.400 . S
C1463 C1464 1.398 . S
C1463 C1469 1.491 . S
C1464 H1455 0.950 . S
C1464 C1463 1.398 . S
C1464 C1465 1.391 . S
C1465 H1453 0.950 . S
C1465 C1461 1.393 . S
C1465 C1464 1.391 . S
C1466 H1456 0.950 . S
C1466 C1467 1.386 . S
C1466 C1468 1.391 . S
C1467 C1466 1.386 . S
C1467 C1471 1.393 . S
C1468 H1457 0.950 . S
C1468 C1466 1.391 . S
C1468 C1469 1.400 . S
C1469 C1463 1.491 . S
C1469 C1468 1.400 . S
C1469 C1470 1.398 . S
C1470 H1458 0.950 . S
C1470 C1469 1.398 . S
C1470 C1471 1.391 . S
C1471 H1459 0.950 . S
C1471 C1467 1.393 . S
C1471 C1470 1.391 . S
H1472 C1480 0.950 . S
H1473 C1485 0.950 . S
H1474 C1482 0.950 . S
H1475 C1484 0.950 . S
H1476 C1486 0.950 . S
H1477 C1488 0.950 . S
H1478 C1490 0.950 . S
H1479 C1491 0.950 . S
C1480 H1472 0.950 . S
C1480 C1481 1.386 . S
C1480 C1482 1.391 1_545 S
C1481 C1480 1.386 . S
C1481 C1485 1.393 1_545 S
C1482 H1474 0.950 . S
C1482 C1480 1.391 1_565 S
C1482 C1483 1.400 . S
C1483 C1482 1.400 . S
C1483 C1484 1.398 . S
C1483 C1489 1.491 . S
C1484 H1475 0.950 . S
C1484 C1483 1.398 . S
C1484 C1485 1.391 . S
C1485 H1473 0.950 . S
C1485 C1481 1.393 1_565 S
C1485 C1484 1.391 . S
C1486 H1476 0.950 . S
C1486 C1487 1.386 . S
C1486 C1488 1.391 . S
C1487 C1486 1.386 . S
C1487 C1491 1.393 . S
C1488 H1477 0.950 . S
C1488 C1486 1.391 . S
C1488 C1489 1.400 . S
C1489 C1483 1.491 . S
C1489 C1488 1.400 . S
C1489 C1490 1.398 . S
C1490 H1478 0.950 . S
C1490 C1489 1.398 . S
C1490 C1491 1.391 . S
C1491 H1479 0.950 . S
C1491 C1487 1.393 . S
C1491 C1490 1.391 . S
H1492 C1500 0.950 . S
H1493 C1505 0.950 . S
H1494 C1502 0.950 . S
H1495 C1504 0.950 . S
H1496 C1506 0.950 . S
H1497 C1508 0.950 . S
H1498 C1510 0.950 . S
H1499 C1511 0.950 . S
C1500 H1492 0.950 . S
C1500 C1501 1.386 . S
C1500 C1502 1.391 . S
C1501 C1500 1.386 . S
C1501 C1505 1.393 . S
C1502 H1494 0.950 . S
C1502 C1500 1.391 . S
C1502 C1503 1.400 . S
C1503 C1502 1.400 . S
C1503 C1504 1.398 . S
C1503 C1509 1.491 . S
C1504 H1495 0.950 . S
C1504 C1503 1.398 . S
C1504 C1505 1.391 . S
C1505 H1493 0.950 . S
C1505 C1501 1.393 . S
C1505 C1504 1.391 . S
C1506 H1496 0.950 . S
C1506 C1507 1.386 1_545 S
C1506 C1508 1.391 . S
C1507 C1506 1.386 1_565 S
C1507 C1511 1.393 . S
C1508 H1497 0.950 . S
C1508 C1506 1.391 . S
C1508 C1509 1.400 . S
C1509 C1503 1.491 . S
C1509 C1508 1.400 . S
C1509 C1510 1.398 . S
C1510 H1498 0.950 . S
C1510 C1509 1.398 . S
C1510 C1511 1.391 1_545 S
C1511 H1499 0.950 . S
C1511 C1507 1.393 . S
C1511 C1510 1.391 1_565 S
H1512 C1520 0.950 . S
H1513 C1525 0.950 . S
H1514 C1522 0.950 . S
H1515 C1524 0.950 . S
H1516 C1526 0.950 . S
H1517 C1528 0.950 . S
H1518 C1530 0.950 . S
H1519 C1531 0.950 . S
C1520 H1512 0.950 . S
C1520 C1521 1.386 1_545 S
C1520 C1522 1.391 . S
C1521 C1520 1.386 1_565 S
C1521 C1525 1.393 . S
C1522 H1514 0.950 . S
C1522 C1520 1.391 . S
C1522 C1523 1.400 . S
C1523 C1522 1.400 . S
C1523 C1524 1.398 . S
C1523 C1529 1.491 . S
C1524 H1515 0.950 . S
C1524 C1523 1.398 . S
C1524 C1525 1.391 1_545 S
C1525 H1513 0.950 . S
C1525 C1521 1.393 . S
C1525 C1524 1.391 1_565 S
C1526 H1516 0.950 . S
C1526 C1527 1.386 . S
C1526 C1528 1.391 . S
C1527 C1526 1.386 . S
C1527 C1531 1.393 . S
C1528 H1517 0.950 . S
C1528 C1526 1.391 . S
C1528 C1529 1.400 . S
C1529 C1523 1.491 . S
C1529 C1528 1.400 . S
C1529 C1530 1.398 . S
C1530 H1518 0.950 . S
C1530 C1529 1.398 . S
C1530 C1531 1.391 . S
C1531 H1519 0.950 . S
C1531 C1527 1.393 . S
C1531 C1530 1.391 . S
H1532 C1540 0.950 . S
H1533 C1545 0.950 . S
H1534 C1542 0.950 . S
H1535 C1544 0.950 . S
H1536 C1546 0.950 . S
H1537 C1548 0.950 . S
H1538 C1550 0.950 . S
H1539 C1551 0.950 . S
C1540 H1532 0.950 . S
C1540 C1541 1.386 . S
C1540 C1542 1.391 1_545 S
C1541 C1540 1.386 . S
C1541 C1545 1.393 1_545 S
C1542 H1534 0.950 . S
C1542 C1540 1.391 1_565 S
C1542 C1543 1.400 . S
C1543 C1542 1.400 . S
C1543 C1544 1.398 . S
C1543 C1549 1.491 . S
C1544 H1535 0.950 . S
C1544 C1543 1.398 . S
C1544 C1545 1.391 . S
C1545 H1533 0.950 . S
C1545 C1541 1.393 1_565 S
C1545 C1544 1.391 . S
C1546 H1536 0.950 . S
C1546 C1547 1.386 . S
C1546 C1548 1.391 . S
C1547 C1546 1.386 . S
C1547 C1551 1.393 . S
C1548 H1537 0.950 . S
C1548 C1546 1.391 . S
C1548 C1549 1.400 . S
C1549 C1543 1.491 . S
C1549 C1548 1.400 . S
C1549 C1550 1.398 . S
C1550 H1538 0.950 . S
C1550 C1549 1.398 . S
C1550 C1551 1.391 . S
C1551 H1539 0.950 . S
C1551 C1547 1.393 . S
C1551 C1550 1.391 . S
H1552 C1560 0.950 . S
H1553 C1565 0.950 . S
H1554 C1562 0.950 . S
H1555 C1564 0.950 . S
H1556 C1566 0.950 . S
H1557 C1568 0.950 . S
H1558 C1570 0.950 . S
H1559 C1571 0.950 . S
C1560 H1552 0.950 . S
C1560 C1561 1.386 . S
C1560 C1562 1.391 . S
C1561 C1560 1.386 . S
C1561 C1565 1.393 . S
C1562 H1554 0.950 . S
C1562 C1560 1.391 . S
C1562 C1563 1.400 . S
C1563 C1562 1.400 . S
C1563 C1564 1.398 . S
C1563 C1569 1.491 . S
C1564 H1555 0.950 . S
C1564 C1563 1.398 . S
C1564 C1565 1.391 . S
C1565 H1553 0.950 . S
C1565 C1561 1.393 . S
C1565 C1564 1.391 . S
C1566 H1556 0.950 . S
C1566 C1567 1.386 . S
C1566 C1568 1.391 1_565 S
C1567 C1566 1.386 . S
C1567 C1571 1.393 1_565 S
C1568 H1557 0.950 . S
C1568 C1566 1.391 1_545 S
C1568 C1569 1.400 . S
C1569 C1563 1.491 . S
C1569 C1568 1.400 . S
C1569 C1570 1.398 . S
C1570 H1558 0.950 . S
C1570 C1569 1.398 . S
C1570 C1571 1.391 . S
C1571 H1559 0.950 . S
C1571 C1567 1.393 1_545 S
C1571 C1570 1.391 . S
H1572 C1580 0.950 . S
H1573 C1585 0.950 . S
H1574 C1582 0.950 . S
H1575 C1584 0.950 . S
H1576 C1586 0.950 . S
H1577 C1588 0.950 . S
H1578 C1590 0.950 . S
H1579 C1591 0.950 . S
C1580 H1572 0.950 . S
C1580 C1581 1.386 1_565 S
C1580 C1582 1.391 . S
C1581 C1580 1.386 1_545 S
C1581 C1585 1.393 . S
C1582 H1574 0.950 . S
C1582 C1580 1.391 . S
C1582 C1583 1.400 . S
C1583 C1582 1.400 . S
C1583 C1584 1.398 . S
C1583 C1589 1.491 . S
C1584 H1575 0.950 . S
C1584 C1583 1.398 . S
C1584 C1585 1.391 1_565 S
C1585 H1573 0.950 . S
C1585 C1581 1.393 . S
C1585 C1584 1.391 1_545 S
C1586 H1576 0.950 . S
C1586 C1587 1.386 . S
C1586 C1588 1.391 . S
C1587 C1586 1.386 . S
C1587 C1591 1.393 . S
C1588 H1577 0.950 . S
C1588 C1586 1.391 . S
C1588 C1589 1.400 . S
C1589 C1583 1.491 . S
C1589 C1588 1.400 . S
C1589 C1590 1.398 . S
C1590 H1578 0.950 . S
C1590 C1589 1.398 . S
C1590 C1591 1.391 . S
C1591 H1579 0.950 . S
C1591 C1587 1.393 . S
C1591 C1590 1.391 . S
H1592 C1600 0.950 . S
H1593 C1605 0.950 . S
H1594 C1602 0.950 . S
H1595 C1604 0.950 . S
H1596 C1606 0.950 . S
H1597 C1608 0.950 . S
H1598 C1610 0.950 . S
H1599 C1611 0.950 . S
C1600 H1592 0.950 . S
C1600 C1601 1.386 . S
C1600 C1602 1.391 . S
C1601 C1600 1.386 . S
C1601 C1605 1.393 . S
C1602 H1594 0.950 . S
C1602 C1600 1.391 . S
C1602 C1603 1.400 . S
C1603 C1602 1.400 . S
C1603 C1604 1.398 . S
C1603 C1609 1.491 . S
C1604 H1595 0.950 . S
C1604 C1603 1.398 . S
C1604 C1605 1.391 . S
C1605 H1593 0.950 . S
C1605 C1601 1.393 . S
C1605 C1604 1.391 . S
C1606 H1596 0.950 . S
C1606 C1607 1.386 1_565 S
C1606 C1608 1.391 . S
C1607 C1606 1.386 1_545 S
C1607 C1611 1.393 . S
C1608 H1597 0.950 . S
C1608 C1606 1.391 . S
C1608 C1609 1.400 . S
C1609 C1603 1.491 . S
C1609 C1608 1.400 . S
C1609 C1610 1.398 . S
C1610 H1598 0.950 . S
C1610 C1609 1.398 . S
C1610 C1611 1.391 1_565 S
C1611 H1599 0.950 . S
C1611 C1607 1.393 . S
C1611 C1610 1.391 1_545 S
H1612 C1620 0.950 . S
H1613 C1625 0.950 . S
H1614 C1622 0.950 . S
H1615 C1624 0.950 . S
H1616 C1626 0.950 . S
H1617 C1628 0.950 . S
H1618 C1630 0.950 . S
H1619 C1631 0.950 . S
C1620 H1612 0.950 . S
C1620 C1621 1.386 . S
C1620 C1622 1.391 . S
C1621 C1620 1.386 . S
C1621 C1625 1.393 . S
C1622 H1614 0.950 . S
C1622 C1620 1.391 . S
C1622 C1623 1.400 . S
C1623 C1622 1.400 . S
C1623 C1624 1.398 . S
C1623 C1629 1.491 . S
C1624 H1615 0.950 . S
C1624 C1623 1.398 . S
C1624 C1625 1.391 . S
C1625 H1613 0.950 . S
C1625 C1621 1.393 . S
C1625 C1624 1.391 . S
C1626 H1616 0.950 . S
C1626 C1627 1.386 . S
C1626 C1628 1.391 1_565 S
C1627 C1626 1.386 . S
C1627 C1631 1.393 1_565 S
C1628 H1617 0.950 . S
C1628 C1626 1.391 1_545 S
C1628 C1629 1.400 . S
C1629 C1623 1.491 . S
C1629 C1628 1.400 . S
C1629 C1630 1.398 . S
C1630 H1618 0.950 . S
C1630 C1629 1.398 . S
C1630 C1631 1.391 . S
C1631 H1619 0.950 . S
C1631 C1627 1.393 1_545 S
C1631 C1630 1.391 . S
H1632 C1640 0.950 . S
H1633 C1645 0.950 . S
H1634 C1642 0.950 . S
H1635 C1644 0.950 . S
H1636 C1646 0.950 . S
H1637 C1648 0.950 . S
H1638 C1650 0.950 . S
H1639 C1651 0.950 . S
C1640 H1632 0.950 . S
C1640 C1641 1.386 . S
C1640 C1642 1.391 . S
C1641 C1640 1.386 . S
C1641 C1645 1.393 . S
C1642 H1634 0.950 . S
C1642 C1640 1.391 . S
C1642 C1643 1.400 . S
C1643 C1642 1.400 . S
C1643 C1644 1.398 . S
C1643 C1649 1.491 . S
C1644 H1635 0.950 . S
C1644 C1643 1.398 . S
C1644 C1645 1.391 . S
C1645 H1633 0.950 . S
C1645 C1641 1.393 . S
C1645 C1644 1.391 . S
C1646 H1636 0.950 . S
C1646 C1647 1.386 . S
C1646 C1648 1.391 . S
C1647 C1646 1.386 . S
C1647 C1651 1.393 . S
C1648 H1637 0.950 . S
C1648 C1646 1.391 . S
C1648 C1649 1.400 . S
C1649 C1643 1.491 . S
C1649 C1648 1.400 . S
C1649 C1650 1.398 . S
C1650 H1638 0.950 . S
C1650 C1649 1.398 . S
C1650 C1651 1.391 . S
C1651 H1639 0.950 . S
C1651 C1647 1.393 . S
C1651 C1650 1.391 . S
H1652 C1660 0.950 . S
H1653 C1665 0.950 . S
H1654 C1662 0.950 . S
H1655 C1664 0.950 . S
H1656 C1666 0.950 . S
H1657 C1668 0.950 . S
H1658 C1670 0.950 . S
H1659 C1671 0.950 . S
C1660 H1652 0.950 . S
C1660 C1661 1.386 . S
C1660 C1662 1.391 . S
C1661 C1660 1.386 . S
C1661 C1665 1.393 . S
C1662 H1654 0.950 . S
C1662 C1660 1.391 . S
C1662 C1663 1.400 . S
C1663 C1662 1.400 . S
C1663 C1664 1.398 . S
C1663 C1669 1.491 . S
C1664 H1655 0.950 . S
C1664 C1663 1.398 . S
C1664 C1665 1.391 . S
C1665 H1653 0.950 . S
C1665 C1661 1.393 . S
C1665 C1664 1.391 . S
C1666 H1656 0.950 . S
C1666 C1667 1.386 . S
C1666 C1668 1.391 . S
C1667 C1666 1.386 . S
C1667 C1671 1.393 . S
C1668 H1657 0.950 . S
C1668 C1666 1.391 . S
C1668 C1669 1.400 . S
C1669 C1663 1.491 . S
C1669 C1668 1.400 . S
C1669 C1670 1.398 . S
C1670 H1658 0.950 . S
C1670 C1669 1.398 . S
C1670 C1671 1.391 . S
C1671 H1659 0.950 . S
C1671 C1667 1.393 . S
C1671 C1670 1.391 . S
H1672 C1680 0.950 . S
H1673 C1685 0.950 . S
H1674 C1682 0.950 . S
H1675 C1684 0.950 . S
H1676 C1686 0.950 . S
H1677 C1688 0.950 . S
H1678 C1690 0.950 . S
H1679 C1691 0.950 . S
C1680 H1672 0.950 . S
C1680 C1681 1.386 . S
C1680 C1682 1.391 . S
C1681 C1680 1.386 . S
C1681 C1685 1.393 . S
C1682 H1674 0.950 . S
C1682 C1680 1.391 . S
C1682 C1683 1.400 . S
C1683 C1682 1.400 . S
C1683 C1684 1.398 . S
C1683 C1689 1.491 . S
C1684 H1675 0.950 . S
C1684 C1683 1.398 . S
C1684 C1685 1.391 . S
C1685 H1673 0.950 . S
C1685 C1681 1.393 . S
C1685 C1684 1.391 . S
C1686 H1676 0.950 . S
C1686 C1687 1.386 . S
C1686 C1688 1.391 . S
C1687 C1686 1.386 . S
C1687 C1691 1.393 . S
C1688 H1677 0.950 . S
C1688 C1686 1.391 . S
C1688 C1689 1.400 . S
C1689 C1683 1.491 . S
C1689 C1688 1.400 . S
C1689 C1690 1.398 . S
C1690 H1678 0.950 . S
C1690 C1689 1.398 . S
C1690 C1691 1.391 . S
C1691 H1679 0.950 . S
C1691 C1687 1.393 . S
C1691 C1690 1.391 . S
H1692 C1700 0.950 . S
H1693 C1705 0.950 . S
H1694 C1702 0.950 . S
H1695 C1704 0.950 . S
H1696 C1706 0.950 . S
H1697 C1708 0.950 . S
H1698 C1710 0.950 . S
H1699 C1711 0.950 . S
C1700 H1692 0.950 . S
C1700 C1701 1.386 . S
C1700 C1702 1.391 . S
C1701 C1700 1.386 . S
C1701 C1705 1.393 . S
C1702 H1694 0.950 . S
C1702 C1700 1.391 . S
C1702 C1703 1.400 . S
C1703 C1702 1.400 . S
C1703 C1704 1.398 . S
C1703 C1709 1.491 . S
C1704 H1695 0.950 . S
C1704 C1703 1.398 . S
C1704 C1705 1.391 . S
C1705 H1693 0.950 . S
C1705 C1701 1.393 . S
C1705 C1704 1.391 . S
C1706 H1696 0.950 . S
C1706 C1707 1.386 . S
C1706 C1708 1.391 . S
C1707 C1706 1.386 . S
C1707 C1711 1.393 . S
C1708 H1697 0.950 . S
C1708 C1706 1.391 . S
C1708 C1709 1.400 . S
C1709 C1703 1.491 . S
C1709 C1708 1.400 . S
C1709 C1710 1.398 . S
C1710 H1698 0.950 . S
C1710 C1709 1.398 . S
C1710 C1711 1.391 . S
C1711 H1699 0.950 . S
C1711 C1707 1.393 . S
C1711 C1710 1.391 . S
H1712 C1720 0.950 . S
H1713 C1725 0.950 . S
H1714 C1722 0.950 . S
H1715 C1724 0.950 . S
H1716 C1726 0.950 . S
H1717 C1728 0.950 . S
H1718 C1730 0.950 . S
H1719 C1731 0.950 . S
C1720 H1712 0.950 . S
C1720 C1721 1.386 . S
C1720 C1722 1.391 . S
C1721 C1720 1.386 . S
C1721 C1725 1.393 . S
C1722 H1714 0.950 . S
C1722 C1720 1.391 . S
C1722 C1723 1.400 . S
C1723 C1722 1.400 . S
C1723 C1724 1.398 . S
C1723 C1729 1.491 . S
C1724 H1715 0.950 . S
C1724 C1723 1.398 . S
C1724 C1725 1.391 . S
C1725 H1713 0.950 . S
C1725 C1721 1.393 . S
C1725 C1724 1.391 . S
C1726 H1716 0.950 . S
C1726 C1727 1.386 . S
C1726 C1728 1.391 . S
C1727 C1726 1.386 . S
C1727 C1731 1.393 . S
C1728 H1717 0.950 . S
C1728 C1726 1.391 . S
C1728 C1729 1.400 . S
C1729 C1723 1.491 . S
C1729 C1728 1.400 . S
C1729 C1730 1.398 . S
C1730 H1718 0.950 . S
C1730 C1729 1.398 . S
C1730 C1731 1.391 . S
C1731 H1719 0.950 . S
C1731 C1727 1.393 . S
C1731 C1730 1.391 . S
H1732 C1740 0.950 . S
H1733 C1745 0.950 . S
H1734 C1742 0.950 . S
H1735 C1744 0.950 . S
H1736 C1746 0.950 . S
H1737 C1748 0.950 . S
H1738 C1750 0.950 . S
H1739 C1751 0.950 . S
C1740 H1732 0.950 . S
C1740 C1741 1.386 . S
C1740 C1742 1.391 . S
C1741 C1740 1.386 . S
C1741 C1745 1.393 . S
C1742 H1734 0.950 . S
C1742 C1740 1.391 . S
C1742 C1743 1.400 . S
C1743 C1742 1.400 . S
C1743 C1744 1.398 . S
C1743 C1749 1.491 . S
C1744 H1735 0.950 . S
C1744 C1743 1.398 . S
C1744 C1745 1.391 . S
C1745 H1733 0.950 . S
C1745 C1741 1.393 . S
C1745 C1744 1.391 . S
C1746 H1736 0.950 . S
C1746 C1747 1.386 . S
C1746 C1748 1.391 . S
C1747 C1746 1.386 . S
C1747 C1751 1.393 . S
C1748 H1737 0.950 . S
C1748 C1746 1.391 . S
C1748 C1749 1.400 . S
C1749 C1743 1.491 . S
C1749 C1748 1.400 . S
C1749 C1750 1.398 . S
C1750 H1738 0.950 . S
C1750 C1749 1.398 . S
C1750 C1751 1.391 . S
C1751 H1739 0.950 . S
C1751 C1747 1.393 . S
C1751 C1750 1.391 . S
H1752 C1760 0.950 . S
H1753 C1765 0.950 . S
H1754 C1762 0.950 . S
H1755 C1764 0.950 . S
H1756 C1766 0.950 . S
H1757 C1768 0.950 . S
H1758 C1770 0.950 . S
H1759 C1771 0.950 . S
C1760 H1752 0.950 . S
C1760 C1761 1.386 . S
C1760 C1762 1.391 . S
C1761 C1760 1.386 . S
C1761 C1765 1.393 . S
C1762 H1754 0.950 . S
C1762 C1760 1.391 . S
C1762 C1763 1.400 . S
C1763 C1762 1.400 . S
C1763 C1764 1.398 . S
C1763 C1769 1.491 . S
C1764 H1755 0.950 . S
C1764 C1763 1.398 . S
C1764 C1765 1.391 . S
C1765 H1753 0.950 . S
C1765 C1761 1.393 . S
C1765 C1764 1.391 . S
C1766 H1756 0.950 . S
C1766 C1767 1.386 . S
C1766 C1768 1.391 . S
C1767 C1766 1.386 . S
C1767 C1771 1.393 . S
C1768 H1757 0.950 . S
C1768 C1766 1.391 . S
C1768 C1769 1.400 . S
C1769 C1763 1.491 . S
C1769 C1768 1.400 . S
C1769 C1770 1.398 . S
C1770 H1758 0.950 . S
C1770 C1769 1.398 . S
C1770 C1771 1.391 . S
C1771 H1759 0.950 . S
C1771 C1767 1.393 . S
C1771 C1770 1.391 . S
H1772 C1780 0.950 . S
H1773 C1785 0.950 . S
H1774 C1782 0.950 . S
H1775 C1784 0.950 . S
H1776 C1786 0.950 . S
H1777 C1788 0.950 . S
H1778 C1790 0.950 . S
H1779 C1791 0.950 . S
C1780 H1772 0.950 . S
C1780 C1781 1.386 . S
C1780 C1782 1.391 . S
C1781 C1780 1.386 . S
C1781 C1785 1.393 . S
C1782 H1774 0.950 . S
C1782 C1780 1.391 . S
C1782 C1783 1.400 . S
C1783 C1782 1.400 . S
C1783 C1784 1.398 . S
C1783 C1789 1.491 . S
C1784 H1775 0.950 . S
C1784 C1783 1.398 . S
C1784 C1785 1.391 . S
C1785 H1773 0.950 . S
C1785 C1781 1.393 . S
C1785 C1784 1.391 . S
C1786 H1776 0.950 . S
C1786 C1787 1.386 . S
C1786 C1788 1.391 . S
C1787 C1786 1.386 . S
C1787 C1791 1.393 . S
C1788 H1777 0.950 . S
C1788 C1786 1.391 . S
C1788 C1789 1.400 . S
C1789 C1783 1.491 . S
C1789 C1788 1.400 . S
C1789 C1790 1.398 . S
C1790 H1778 0.950 . S
C1790 C1789 1.398 . S
C1790 C1791 1.391 . S
C1791 H1779 0.950 . S
C1791 C1787 1.393 . S
C1791 C1790 1.391 . S
H1792 C1800 0.950 . S
H1793 C1805 0.950 . S
H1794 C1802 0.950 . S
H1795 C1804 0.950 . S
H1796 C1806 0.950 . S
H1797 C1808 0.950 . S
H1798 C1810 0.950 . S
H1799 C1811 0.950 . S
C1800 H1792 0.950 . S
C1800 C1801 1.386 . S
C1800 C1802 1.391 . S
C1801 C1800 1.386 . S
C1801 C1805 1.393 . S
C1802 H1794 0.950 . S
C1802 C1800 1.391 . S
C1802 C1803 1.400 . S
C1803 C1802 1.400 . S
C1803 C1804 1.398 . S
C1803 C1809 1.491 . S
C1804 H1795 0.950 . S
C1804 C1803 1.398 . S
C1804 C1805 1.391 . S
C1805 H1793 0.950 . S
C1805 C1801 1.393 . S
C1805 C1804 1.391 . S
C1806 H1796 0.950 . S
C1806 C1807 1.386 . S
C1806 C1808 1.391 . S
C1807 C1806 1.386 . S
C1807 C1811 1.393 . S
C1808 H1797 0.950 . S
C1808 C1806 1.391 . S
C1808 C1809 1.400 . S
C1809 C1803 1.491 . S
C1809 C1808 1.400 . S
C1809 C1810 1.398 . S
C1810 H1798 0.950 . S
C1810 C1809 1.398 . S
C1810 C1811 1.391 . S
C1811 H1799 0.950 . S
C1811 C1807 1.393 . S
C1811 C1810 1.391 . S
H1812 C1820 0.950 . S
H1813 C1825 0.950 . S
H1814 C1822 0.950 . S
H1815 C1824 0.950 . S
H1816 C1826 0.950 . S
H1817 C1828 0.950 . S
H1818 C1830 0.950 . S
H1819 C1831 0.954 . S
C1820 H1812 0.950 . S
C1820 C1821 1.386 . S
C1820 C1822 1.391 . S
C1821 C1820 1.386 . S
C1821 C1825 1.393 . S
C1822 H1814 0.950 . S
C1822 C1820 1.391 . S
C1822 C1823 1.400 . S
C1823 C1822 1.400 . S
C1823 C1824 1.398 . S
C1823 C1829 1.491 . S
C1824 H1815 0.950 . S
C1824 C1823 1.398 . S
C1824 C1825 1.391 . S
C1825 H1813 0.950 . S
C1825 C1821 1.393 . S
C1825 C1824 1.391 . S
C1826 H1816 0.950 . S
C1826 C1827 1.386 . S
C1826 C1828 1.391 1_655 S
C1827 C1826 1.386 . S
C1827 C1831 1.409 . S
C1828 H1817 0.950 . S
C1828 C1826 1.391 1_455 S
C1828 C1829 1.400 . S
C1829 C1823 1.491 . S
C1829 C1828 1.400 . S
C1829 C1830 1.398 . S
C1830 H1818 0.950 . S
C1830 C1829 1.398 . S
C1830 C1831 1.371 1_455 S
C1831 H1819 0.954 . S
C1831 C1827 1.409 . S
C1831 C1830 1.371 1_655 S
H1832 C1840 0.950 . S
H1833 C1845 0.950 . S
H1834 C1842 0.950 . S
H1835 C1844 0.950 . S
H1836 C1846 0.950 . S
H1837 C1848 0.950 . S
H1838 C1850 0.950 . S
H1839 C1851 0.950 . S
C1840 H1832 0.950 . S
C1840 C1841 1.386 . S
C1840 C1842 1.391 . S
C1841 C1840 1.386 . S
C1841 C1845 1.393 . S
C1842 H1834 0.950 . S
C1842 C1840 1.391 . S
C1842 C1843 1.400 . S
C1843 C1842 1.400 . S
C1843 C1844 1.398 . S
C1843 C1849 1.491 . S
C1844 H1835 0.950 . S
C1844 C1843 1.398 . S
C1844 C1845 1.391 . S
C1845 H1833 0.950 . S
C1845 C1841 1.393 . S
C1845 C1844 1.391 . S
C1846 H1836 0.950 . S
C1846 C1847 1.386 . S
C1846 C1848 1.391 . S
C1847 C1846 1.386 . S
C1847 C1851 1.393 . S
C1848 H1837 0.950 . S
C1848 C1846 1.391 . S
C1848 C1849 1.400 . S
C1849 C1843 1.491 . S
C1849 C1848 1.400 . S
C1849 C1850 1.398 . S
C1850 H1838 0.950 . S
C1850 C1849 1.398 . S
C1850 C1851 1.391 . S
C1851 H1839 0.950 . S
C1851 C1847 1.393 . S
C1851 C1850 1.391 . S
H1852 C1860 0.950 . S
H1853 C1865 0.950 . S
H1854 C1862 0.950 . S
H1855 C1864 0.950 . S
H1856 C1866 0.950 . S
H1857 C1868 0.950 . S
H1858 C1870 0.950 . S
H1859 C1871 0.950 . S
C1860 H1852 0.950 . S
C1860 C1861 1.386 . S
C1860 C1862 1.391 . S
C1861 C1860 1.386 . S
C1861 C1865 1.393 . S
C1862 H1854 0.950 . S
C1862 C1860 1.391 . S
C1862 C1863 1.400 . S
C1863 C1862 1.400 . S
C1863 C1864 1.398 . S
C1863 C1869 1.491 . S
C1864 H1855 0.950 . S
C1864 C1863 1.398 . S
C1864 C1865 1.391 . S
C1865 H1853 0.950 . S
C1865 C1861 1.393 . S
C1865 C1864 1.391 . S
C1866 H1856 0.950 . S
C1866 C1867 1.386 . S
C1866 C1868 1.391 . S
C1867 C1866 1.386 . S
C1867 C1871 1.393 . S
C1868 H1857 0.950 . S
C1868 C1866 1.391 . S
C1868 C1869 1.400 . S
C1869 C1863 1.491 . S
C1869 C1868 1.400 . S
C1869 C1870 1.398 . S
C1870 H1858 0.950 . S
C1870 C1869 1.398 . S
C1870 C1871 1.391 . S
C1871 H1859 0.950 . S
C1871 C1867 1.393 . S
C1871 C1870 1.391 . S
H1872 C1880 0.950 . S
H1873 C1885 0.950 . S
H1874 C1882 0.950 . S
H1875 C1884 0.950 . S
H1876 C1886 0.950 . S
H1877 C1888 0.950 . S
H1878 C1890 0.950 . S
H1879 C1891 0.950 . S
C1880 H1872 0.950 . S
C1880 C1881 1.386 . S
C1880 C1882 1.391 . S
C1881 C1880 1.386 . S
C1881 C1885 1.393 . S
C1882 H1874 0.950 . S
C1882 C1880 1.391 . S
C1882 C1883 1.400 . S
C1883 C1882 1.400 . S
C1883 C1884 1.398 . S
C1883 C1889 1.491 . S
C1884 H1875 0.950 . S
C1884 C1883 1.398 . S
C1884 C1885 1.391 . S
C1885 H1873 0.950 . S
C1885 C1881 1.393 . S
C1885 C1884 1.391 . S
C1886 H1876 0.950 . S
C1886 C1887 1.386 . S
C1886 C1888 1.391 . S
C1887 C1886 1.386 . S
C1887 C1891 1.393 . S
C1888 H1877 0.950 . S
C1888 C1886 1.391 . S
C1888 C1889 1.400 . S
C1889 C1883 1.491 . S
C1889 C1888 1.400 . S
C1889 C1890 1.398 . S
C1890 H1878 0.950 . S
C1890 C1889 1.398 . S
C1890 C1891 1.391 . S
C1891 H1879 0.950 . S
C1891 C1887 1.393 . S
C1891 C1890 1.391 . S
H1892 C1900 0.950 . S
H1893 C1905 0.950 . S
H1894 C1902 0.950 . S
H1895 C1904 0.950 . S
H1896 C1906 0.950 . S
H1897 C1908 0.950 . S
H1898 C1910 0.950 . S
H1899 C1911 0.950 . S
C1900 H1892 0.950 . S
C1900 C1901 1.386 . S
C1900 C1902 1.391 . S
C1901 C1900 1.386 . S
C1901 C1905 1.393 . S
C1902 H1894 0.950 . S
C1902 C1900 1.391 . S
C1902 C1903 1.400 . S
C1903 C1902 1.400 . S
C1903 C1904 1.398 . S
C1903 C1909 1.491 . S
C1904 H1895 0.950 . S
C1904 C1903 1.398 . S
C1904 C1905 1.391 . S
C1905 H1893 0.950 . S
C1905 C1901 1.393 . S
C1905 C1904 1.391 . S
C1906 H1896 0.950 . S
C1906 C1907 1.386 . S
C1906 C1908 1.391 . S
C1907 C1906 1.386 . S
C1907 C1911 1.393 . S
C1908 H1897 0.950 . S
C1908 C1906 1.391 . S
C1908 C1909 1.400 . S
C1909 C1903 1.491 . S
C1909 C1908 1.400 . S
C1909 C1910 1.398 . S
C1910 H1898 0.950 . S
C1910 C1909 1.398 . S
C1910 C1911 1.391 . S
C1911 H1899 0.950 . S
C1911 C1907 1.393 . S
C1911 C1910 1.391 . S
H1912 C1920 0.950 . S
H1913 C1925 0.950 . S
H1914 C1922 0.950 . S
H1915 C1924 0.950 . S
H1916 C1926 0.950 . S
H1917 C1928 0.950 . S
H1918 C1930 0.950 . S
H1919 C1931 0.950 . S
C1920 H1912 0.950 . S
C1920 C1921 1.386 . S
C1920 C1922 1.391 . S
C1921 C1920 1.386 . S
C1921 C1925 1.393 . S
C1922 H1914 0.950 . S
C1922 C1920 1.391 . S
C1922 C1923 1.400 . S
C1923 C1922 1.400 . S
C1923 C1924 1.398 . S
C1923 C1929 1.491 . S
C1924 H1915 0.950 . S
C1924 C1923 1.398 . S
C1924 C1925 1.391 . S
C1925 H1913 0.950 . S
C1925 C1921 1.393 . S
C1925 C1924 1.391 . S
C1926 H1916 0.950 . S
C1926 C1927 1.386 . S
C1926 C1928 1.391 . S
C1927 C1926 1.386 . S
C1927 C1931 1.393 . S
C1928 H1917 0.950 . S
C1928 C1926 1.391 . S
C1928 C1929 1.400 . S
C1929 C1923 1.491 . S
C1929 C1928 1.400 . S
C1929 C1930 1.398 . S
C1930 H1918 0.950 . S
C1930 C1929 1.398 . S
C1930 C1931 1.391 . S
C1931 H1919 0.950 . S
C1931 C1927 1.393 . S
C1931 C1930 1.391 . S
H1932 C1940 0.950 . S
H1933 C1945 0.950 . S
H1934 C1942 0.950 . S
H1935 C1944 0.950 . S
H1936 C1946 0.950 . S
H1937 C1948 0.950 . S
H1938 C1950 0.950 . S
H1939 C1951 0.952 . S
C1940 H1932 0.950 . S
C1940 C1941 1.386 . S
C1940 C1942 1.391 . S
C1941 C1940 1.386 . S
C1941 C1945 1.393 . S
C1942 H1934 0.950 . S
C1942 C1940 1.391 . S
C1942 C1943 1.400 . S
C1943 C1942 1.400 . S
C1943 C1944 1.398 . S
C1943 C1949 1.491 . S
C1944 H1935 0.950 . S
C1944 C1943 1.398 . S
C1944 C1945 1.391 . S
C1945 H1933 0.950 . S
C1945 C1941 1.393 . S
C1945 C1944 1.391 . S
C1946 H1936 0.950 . S
C1946 C1947 1.386 . S
C1946 C1948 1.391 1_655 S
C1947 C1946 1.386 . S
C1947 C1951 1.393 1_655 S
C1948 H1937 0.950 . S
C1948 C1946 1.391 1_455 S
C1948 C1949 1.400 . S
C1949 C1943 1.491 . S
C1949 C1948 1.400 . S
C1949 C1950 1.398 . S
C1950 H1938 0.950 . S
C1950 C1949 1.398 . S
C1950 C1951 1.391 . S
C1951 H1939 0.952 . S
C1951 C1947 1.393 1_455 S
C1951 C1950 1.391 . S
H1952 C1960 0.950 . S
H1953 C1965 0.950 . S
H1954 C1962 0.950 . S
H1955 C1964 0.950 . S
H1956 C1966 0.950 . S
H1957 C1968 0.950 . S
H1958 C1970 0.950 . S
H1959 C1971 0.950 . S
C1960 H1952 0.950 . S
C1960 C1961 1.386 . S
C1960 C1962 1.391 . S
C1961 C1960 1.386 . S
C1961 C1965 1.393 . S
C1962 H1954 0.950 . S
C1962 C1960 1.391 . S
C1962 C1963 1.400 . S
C1963 C1962 1.400 . S
C1963 C1964 1.398 . S
C1963 C1969 1.491 . S
C1964 H1955 0.950 . S
C1964 C1963 1.398 . S
C1964 C1965 1.391 . S
C1965 H1953 0.950 . S
C1965 C1961 1.393 . S
C1965 C1964 1.391 . S
C1966 H1956 0.950 . S
C1966 C1967 1.386 . S
C1966 C1968 1.391 . S
C1967 C1966 1.386 . S
C1967 C1971 1.393 . S
C1968 H1957 0.950 . S
C1968 C1966 1.391 . S
C1968 C1969 1.400 . S
C1969 C1963 1.491 . S
C1969 C1968 1.400 . S
C1969 C1970 1.398 . S
C1970 H1958 0.950 . S
C1970 C1969 1.398 . S
C1970 C1971 1.391 . S
C1971 H1959 0.950 . S
C1971 C1967 1.393 . S
C1971 C1970 1.391 . S
H1972 C1980 0.950 . S
H1973 C1985 0.950 . S
H1974 C1982 0.950 . S
H1975 C1984 0.950 . S
H1976 C1986 0.950 . S
H1977 C1988 0.950 . S
H1978 C1990 0.950 . S
H1979 C1991 0.950 . S
C1980 H1972 0.950 . S
C1980 C1981 1.386 . S
C1980 C1982 1.391 1_455 S
C1981 C1980 1.386 . S
C1981 C1985 1.393 . S
C1982 H1974 0.950 . S
C1982 C1980 1.391 1_655 S
C1982 C1983 1.400 . S
C1983 C1982 1.400 . S
C1983 C1984 1.398 . S
C1983 C1989 1.491 . S
C1984 H1975 0.950 . S
C1984 C1983 1.398 . S
C1984 C1985 1.391 1_655 S
C1985 H1973 0.950 . S
C1985 C1981 1.393 . S
C1985 C1984 1.391 1_455 S
C1986 H1976 0.950 . S
C1986 C1987 1.386 . S
C1986 C1988 1.391 . S
C1987 C1986 1.386 . S
C1987 C1991 1.393 . S
C1988 H1977 0.950 . S
C1988 C1986 1.391 . S
C1988 C1989 1.400 . S
C1989 C1983 1.491 . S
C1989 C1988 1.400 . S
C1989 C1990 1.398 . S
C1990 H1978 0.950 . S
C1990 C1989 1.398 . S
C1990 C1991 1.391 . S
C1991 H1979 0.950 . S
C1991 C1987 1.393 . S
C1991 C1990 1.391 . S
H1992 C2000 0.950 . S
H1993 C2005 0.950 . S
H1994 C2002 0.950 . S
H1995 C2004 0.950 . S
H1996 C2006 0.950 . S
H1997 C2008 0.950 . S
H1998 C2010 0.950 . S
H1999 C2011 0.950 . S
C2000 H1992 0.950 . S
C2000 C2001 1.386 . S
C2000 C2002 1.391 . S
C2001 C2000 1.386 . S
C2001 C2005 1.393 . S
C2002 H1994 0.950 . S
C2002 C2000 1.391 . S
C2002 C2003 1.400 . S
C2003 C2002 1.400 . S
C2003 C2004 1.398 . S
C2003 C2009 1.491 . S
C2004 H1995 0.950 . S
C2004 C2003 1.398 . S
C2004 C2005 1.391 . S
C2005 H1993 0.950 . S
C2005 C2001 1.393 . S
C2005 C2004 1.391 . S
C2006 H1996 0.950 . S
C2006 C2007 1.386 . S
C2006 C2008 1.391 . S
C2007 C2006 1.386 . S
C2007 C2011 1.393 . S
C2008 H1997 0.950 . S
C2008 C2006 1.391 . S
C2008 C2009 1.400 . S
C2009 C2003 1.491 . S
C2009 C2008 1.400 . S
C2009 C2010 1.398 . S
C2010 H1998 0.950 . S
C2010 C2009 1.398 . S
C2010 C2011 1.391 . S
C2011 H1999 0.950 . S
C2011 C2007 1.393 . S
C2011 C2010 1.391 . S
H2012 C2020 0.950 . S
H2013 C2025 0.950 . S
H2014 C2022 0.950 . S
H2015 C2024 0.950 . S
H2016 C2026 0.950 . S
H2017 C2028 0.950 . S
H2018 C2030 0.950 . S
H2019 C2031 0.950 . S
C2020 H2012 0.950 . S
C2020 C2021 1.386 . S
C2020 C2022 1.391 . S
C2021 C2020 1.386 . S
C2021 C2025 1.393 . S
C2022 H2014 0.950 . S
C2022 C2020 1.391 . S
C2022 C2023 1.400 . S
C2023 C2022 1.400 . S
C2023 C2024 1.398 . S
C2023 C2029 1.491 . S
C2024 H2015 0.950 . S
C2024 C2023 1.398 . S
C2024 C2025 1.391 . S
C2025 H2013 0.950 . S
C2025 C2021 1.393 . S
C2025 C2024 1.391 . S
C2026 H2016 0.950 . S
C2026 C2027 1.386 . S
C2026 C2028 1.391 . S
C2027 C2026 1.386 . S
C2027 C2031 1.393 . S
C2028 H2017 0.950 . S
C2028 C2026 1.391 . S
C2028 C2029 1.400 . S
C2029 C2023 1.491 . S
C2029 C2028 1.400 . S
C2029 C2030 1.398 . S
C2030 H2018 0.950 . S
C2030 C2029 1.398 . S
C2030 C2031 1.391 . S
C2031 H2019 0.950 . S
C2031 C2027 1.393 . S
C2031 C2030 1.391 . S
H2032 C2040 0.950 . S
H2033 C2045 0.950 . S
H2034 C2042 0.950 . S
H2035 C2044 0.950 . S
H2036 C2046 0.950 . S
H2037 C2048 0.950 . S
H2038 C2050 0.950 . S
H2039 C2051 0.950 . S
C2040 H2032 0.950 . S
C2040 C2041 1.386 . S
C2040 C2042 1.391 . S
C2041 C2040 1.386 . S
C2041 C2045 1.393 . S
C2042 H2034 0.950 . S
C2042 C2040 1.391 . S
C2042 C2043 1.400 . S
C2043 C2042 1.400 . S
C2043 C2044 1.398 . S
C2043 C2049 1.491 . S
C2044 H2035 0.950 . S
C2044 C2043 1.398 . S
C2044 C2045 1.391 . S
C2045 H2033 0.950 . S
C2045 C2041 1.393 . S
C2045 C2044 1.391 . S
C2046 H2036 0.950 . S
C2046 C2047 1.386 . S
C2046 C2048 1.391 . S
C2047 C2046 1.386 . S
C2047 C2051 1.393 . S
C2048 H2037 0.950 . S
C2048 C2046 1.391 . S
C2048 C2049 1.400 . S
C2049 C2043 1.491 . S
C2049 C2048 1.400 . S
C2049 C2050 1.398 . S
C2050 H2038 0.950 . S
C2050 C2049 1.398 . S
C2050 C2051 1.391 . S
C2051 H2039 0.950 . S
C2051 C2047 1.393 . S
C2051 C2050 1.391 . S
H2052 C2060 0.950 . S
H2053 C2065 0.950 . S
H2054 C2062 0.950 . S
H2055 C2064 0.950 . S
H2056 C2066 0.950 . S
H2057 C2068 0.950 . S
H2058 C2070 0.950 . S
H2059 C2071 0.950 . S
C2060 H2052 0.950 . S
C2060 C2061 1.386 . S
C2060 C2062 1.391 . S
C2061 C2060 1.386 . S
C2061 C2065 1.393 . S
C2062 H2054 0.950 . S
C2062 C2060 1.391 . S
C2062 C2063 1.400 . S
C2063 C2062 1.400 . S
C2063 C2064 1.398 . S
C2063 C2069 1.491 . S
C2064 H2055 0.950 . S
C2064 C2063 1.398 . S
C2064 C2065 1.391 . S
C2065 H2053 0.950 . S
C2065 C2061 1.393 . S
C2065 C2064 1.391 . S
C2066 H2056 0.950 . S
C2066 C2067 1.386 . S
C2066 C2068 1.391 . S
C2067 C2066 1.386 . S
C2067 C2071 1.393 . S
C2068 H2057 0.950 . S
C2068 C2066 1.391 . S
C2068 C2069 1.400 . S
C2069 C2063 1.491 . S
C2069 C2068 1.400 . S
C2069 C2070 1.398 . S
C2070 H2058 0.950 . S
C2070 C2069 1.398 . S
C2070 C2071 1.391 . S
C2071 H2059 0.950 . S
C2071 C2067 1.393 . S
C2071 C2070 1.391 . S
H2072 C2080 0.950 . S
H2073 C2085 0.950 . S
H2074 C2082 0.950 . S
H2075 C2084 0.950 . S
H2076 C2086 0.950 . S
H2077 C2088 0.950 . S
H2078 C2090 0.950 . S
H2079 C2091 0.950 . S
C2080 H2072 0.950 . S
C2080 C2081 1.386 . S
C2080 C2082 1.391 . S
C2081 C2080 1.386 . S
C2081 C2085 1.393 . S
C2082 H2074 0.950 . S
C2082 C2080 1.391 . S
C2082 C2083 1.400 . S
C2083 C2082 1.400 . S
C2083 C2084 1.398 . S
C2083 C2089 1.491 . S
C2084 H2075 0.950 . S
C2084 C2083 1.398 . S
C2084 C2085 1.391 . S
C2085 H2073 0.950 . S
C2085 C2081 1.393 . S
C2085 C2084 1.391 . S
C2086 H2076 0.950 . S
C2086 C2087 1.386 . S
C2086 C2088 1.391 . S
C2087 C2086 1.386 . S
C2087 C2091 1.393 . S
C2088 H2077 0.950 . S
C2088 C2086 1.391 . S
C2088 C2089 1.400 . S
C2089 C2083 1.491 . S
C2089 C2088 1.400 . S
C2089 C2090 1.398 . S
C2090 H2078 0.950 . S
C2090 C2089 1.398 . S
C2090 C2091 1.391 . S
C2091 H2079 0.950 . S
C2091 C2087 1.393 . S
C2091 C2090 1.391 . S
H2092 C2100 0.950 . S
H2093 C2105 0.951 . S
H2094 C2102 0.950 . S
H2095 C2104 0.950 . S
H2096 C2106 0.950 . S
H2097 C2108 0.950 . S
H2098 C2110 0.950 . S
H2099 C2111 0.950 . S
C2100 H2092 0.950 . S
C2100 C2101 1.386 . S
C2100 C2102 1.391 1_455 S
C2101 C2100 1.386 . S
C2101 C2105 1.393 1_455 S
C2102 H2094 0.950 . S
C2102 C2100 1.391 1_655 S
C2102 C2103 1.400 . S
C2103 C2102 1.400 . S
C2103 C2104 1.398 . S
C2103 C2109 1.491 . S
C2104 H2095 0.950 . S
C2104 C2103 1.398 . S
C2104 C2105 1.391 . S
C2105 H2093 0.951 . S
C2105 C2101 1.393 1_655 S
C2105 C2104 1.391 . S
C2106 H2096 0.950 . S
C2106 C2107 1.386 . S
C2106 C2108 1.391 . S
C2107 C2106 1.386 . S
C2107 C2111 1.393 . S
C2108 H2097 0.950 . S
C2108 C2106 1.391 . S
C2108 C2109 1.400 . S
C2109 C2103 1.491 . S
C2109 C2108 1.400 . S
C2109 C2110 1.398 . S
C2110 H2098 0.950 . S
C2110 C2109 1.398 . S
C2110 C2111 1.391 . S
C2111 H2099 0.950 . S
C2111 C2107 1.393 . S
C2111 C2110 1.391 . S
H2112 C2120 0.950 . S
H2113 C2125 0.950 . S
H2114 C2122 0.950 . S
H2115 C2124 0.950 . S
H2116 C2126 0.950 . S
H2117 C2128 0.950 . S
H2118 C2130 0.950 . S
H2119 C2131 0.950 . S
C2120 H2112 0.950 . S
C2120 C2121 1.386 . S
C2120 C2122 1.391 . S
C2121 C2120 1.386 . S
C2121 C2125 1.393 . S
C2122 H2114 0.950 . S
C2122 C2120 1.391 . S
C2122 C2123 1.400 . S
C2123 C2122 1.400 . S
C2123 C2124 1.398 . S
C2123 C2129 1.491 . S
C2124 H2115 0.950 . S
C2124 C2123 1.398 . S
C2124 C2125 1.391 . S
C2125 H2113 0.950 . S
C2125 C2121 1.393 . S
C2125 C2124 1.391 . S
C2126 H2116 0.950 . S
C2126 C2127 1.386 . S
C2126 C2128 1.391 . S
C2127 C2126 1.386 . S
C2127 C2131 1.393 . S
C2128 H2117 0.950 . S
C2128 C2126 1.391 . S
C2128 C2129 1.400 . S
C2129 C2123 1.491 . S
C2129 C2128 1.400 . S
C2129 C2130 1.398 . S
C2130 H2118 0.950 . S
C2130 C2129 1.398 . S
C2130 C2131 1.391 . S
C2131 H2119 0.950 . S
C2131 C2127 1.393 . S
C2131 C2130 1.391 . S
H2132 C2140 0.950 . S
H2133 C2145 0.950 . S
H2134 C2142 0.950 . S
H2135 C2144 0.950 . S
H2136 C2146 0.950 . S
H2137 C2148 0.950 . S
H2138 C2150 0.950 . S
H2139 C2151 0.950 . S
C2140 H2132 0.950 . S
C2140 C2141 1.386 . S
C2140 C2142 1.391 . S
C2141 C2140 1.386 . S
C2141 C2145 1.393 . S
C2142 H2134 0.950 . S
C2142 C2140 1.391 . S
C2142 C2143 1.400 . S
C2143 C2142 1.400 . S
C2143 C2144 1.398 . S
C2143 C2149 1.491 . S
C2144 H2135 0.950 . S
C2144 C2143 1.398 . S
C2144 C2145 1.391 . S
C2145 H2133 0.950 . S
C2145 C2141 1.393 . S
C2145 C2144 1.391 . S
C2146 H2136 0.950 . S
C2146 C2147 1.386 . S
C2146 C2148 1.391 . S
C2147 C2146 1.386 . S
C2147 C2151 1.393 . S
C2148 H2137 0.950 . S
C2148 C2146 1.391 . S
C2148 C2149 1.400 . S
C2149 C2143 1.491 . S
C2149 C2148 1.400 . S
C2149 C2150 1.398 . S
C2150 H2138 0.950 . S
C2150 C2149 1.398 . S
C2150 C2151 1.391 . S
C2151 H2139 0.950 . S
C2151 C2147 1.393 . S
C2151 C2150 1.391 . S
H2152 C2160 0.950 . S
H2153 C2165 0.950 . S
H2154 C2162 0.950 . S
H2155 C2164 0.950 . S
H2156 C2166 0.950 . S
H2157 C2168 0.950 . S
H2158 C2170 0.950 . S
H2159 C2171 0.950 . S
C2160 H2152 0.950 . S
C2160 C2161 1.386 . S
C2160 C2162 1.391 . S
C2161 C2160 1.386 . S
C2161 C2165 1.393 . S
C2162 H2154 0.950 . S
C2162 C2160 1.391 . S
C2162 C2163 1.400 . S
C2163 C2162 1.400 . S
C2163 C2164 1.398 . S
C2163 C2169 1.491 . S
C2164 H2155 0.950 . S
C2164 C2163 1.398 . S
C2164 C2165 1.391 . S
C2165 H2153 0.950 . S
C2165 C2161 1.393 . S
C2165 C2164 1.391 . S
C2166 H2156 0.950 . S
C2166 C2167 1.386 . S
C2166 C2168 1.391 . S
C2167 C2166 1.386 . S
C2167 C2171 1.393 . S
C2168 H2157 0.950 . S
C2168 C2166 1.391 . S
C2168 C2169 1.400 . S
C2169 C2163 1.491 . S
C2169 C2168 1.400 . S
C2169 C2170 1.398 . S
C2170 H2158 0.950 . S
C2170 C2169 1.398 . S
C2170 C2171 1.391 . S
C2171 H2159 0.950 . S
C2171 C2167 1.393 . S
C2171 C2170 1.391 . S
H2172 C2180 0.950 . S
H2173 C2185 0.950 . S
H2174 C2182 0.950 . S
H2175 C2184 0.950 . S
H2176 C2186 0.950 . S
H2177 C2188 0.950 . S
H2178 C2190 0.950 . S
H2179 C2191 0.950 . S
C2180 H2172 0.950 . S
C2180 C2181 1.386 . S
C2180 C2182 1.391 . S
C2181 C2180 1.386 . S
C2181 C2185 1.393 . S
C2182 H2174 0.950 . S
C2182 C2180 1.391 . S
C2182 C2183 1.400 . S
C2183 C2182 1.400 . S
C2183 C2184 1.398 . S
C2183 C2189 1.491 . S
C2184 H2175 0.950 . S
C2184 C2183 1.398 . S
C2184 C2185 1.391 . S
C2185 H2173 0.950 . S
C2185 C2181 1.393 . S
C2185 C2184 1.391 . S
C2186 H2176 0.950 . S
C2186 C2187 1.386 . S
C2186 C2188 1.391 1_455 S
C2187 C2186 1.386 . S
C2187 C2191 1.393 . S
C2188 H2177 0.950 . S
C2188 C2186 1.391 1_655 S
C2188 C2189 1.400 . S
C2189 C2183 1.491 . S
C2189 C2188 1.400 . S
C2189 C2190 1.398 . S
C2190 H2178 0.950 . S
C2190 C2189 1.398 . S
C2190 C2191 1.391 1_655 S
C2191 H2179 0.950 . S
C2191 C2187 1.393 . S
C2191 C2190 1.391 1_455 S
H2192 C2200 0.950 . S
H2193 C2205 0.950 . S
H2194 C2202 0.950 . S
H2195 C2204 0.950 . S
H2196 C2206 0.950 . S
H2197 C2208 0.950 . S
H2198 C2210 0.950 . S
H2199 C2211 0.950 . S
C2200 H2192 0.950 . S
C2200 C2201 1.386 . S
C2200 C2202 1.391 . S
C2201 C2200 1.386 . S
C2201 C2205 1.393 . S
C2202 H2194 0.950 . S
C2202 C2200 1.391 . S
C2202 C2203 1.400 . S
C2203 C2202 1.400 . S
C2203 C2204 1.398 . S
C2203 C2209 1.491 . S
C2204 H2195 0.950 . S
C2204 C2203 1.398 . S
C2204 C2205 1.391 . S
C2205 H2193 0.950 . S
C2205 C2201 1.393 . S
C2205 C2204 1.391 . S
C2206 H2196 0.950 . S
C2206 C2207 1.386 . S
C2206 C2208 1.391 . S
C2207 C2206 1.386 . S
C2207 C2211 1.393 . S
C2208 H2197 0.950 . S
C2208 C2206 1.391 . S
C2208 C2209 1.400 . S
C2209 C2203 1.491 . S
C2209 C2208 1.400 . S
C2209 C2210 1.398 . S
C2210 H2198 0.950 . S
C2210 C2209 1.398 . S
C2210 C2211 1.391 . S
C2211 H2199 0.950 . S
C2211 C2207 1.393 . S
C2211 C2210 1.391 . S
H2212 C2220 0.950 . S
H2213 C2225 0.950 . S
H2214 C2222 0.950 . S
H2215 C2224 0.950 . S
H2216 C2226 0.950 . S
H2217 C2228 0.950 . S
H2218 C2230 0.950 . S
H2219 C2231 0.950 . S
C2220 H2212 0.950 . S
C2220 C2221 1.386 . S
C2220 C2222 1.391 1_455 S
C2221 C2220 1.386 . S
C2221 C2225 1.393 . S
C2222 H2214 0.950 . S
C2222 C2220 1.391 1_655 S
C2222 C2223 1.400 . S
C2223 C2222 1.400 . S
C2223 C2224 1.398 . S
C2223 C2229 1.491 . S
C2224 H2215 0.950 . S
C2224 C2223 1.398 . S
C2224 C2225 1.391 1_655 S
C2225 H2213 0.950 . S
C2225 C2221 1.393 . S
C2225 C2224 1.391 1_455 S
C2226 H2216 0.950 . S
C2226 C2227 1.386 . S
C2226 C2228 1.391 . S
C2227 C2226 1.386 . S
C2227 C2231 1.393 . S
C2228 H2217 0.950 . S
C2228 C2226 1.391 . S
C2228 C2229 1.400 . S
C2229 C2223 1.491 . S
C2229 C2228 1.400 . S
C2229 C2230 1.398 . S
C2230 H2218 0.950 . S
C2230 C2229 1.398 . S
C2230 C2231 1.391 . S
C2231 H2219 0.950 . S
C2231 C2227 1.393 . S
C2231 C2230 1.391 . S
H2232 C2240 0.950 . S
H2233 C2245 0.950 . S
H2234 C2242 0.950 . S
H2235 C2244 0.950 . S
H2236 C2246 0.950 . S
H2237 C2248 0.950 . S
H2238 C2250 0.950 . S
H2239 C2251 0.950 . S
C2240 H2232 0.950 . S
C2240 C2241 1.386 . S
C2240 C2242 1.391 . S
C2241 C2240 1.386 . S
C2241 C2245 1.393 . S
C2242 H2234 0.950 . S
C2242 C2240 1.391 . S
C2242 C2243 1.400 . S
C2243 C2242 1.400 . S
C2243 C2244 1.398 . S
C2243 C2249 1.491 . S
C2244 H2235 0.950 . S
C2244 C2243 1.398 . S
C2244 C2245 1.391 . S
C2245 H2233 0.950 . S
C2245 C2241 1.393 . S
C2245 C2244 1.391 . S
C2246 H2236 0.950 . S
C2246 C2247 1.386 . S
C2246 C2248 1.391 . S
C2247 C2246 1.386 . S
C2247 C2251 1.393 . S
C2248 H2237 0.950 . S
C2248 C2246 1.391 . S
C2248 C2249 1.400 . S
C2249 C2243 1.491 . S
C2249 C2248 1.400 . S
C2249 C2250 1.398 . S
C2250 H2238 0.950 . S
C2250 C2249 1.398 . S
C2250 C2251 1.391 . S
C2251 H2239 0.950 . S
C2251 C2247 1.393 . S
C2251 C2250 1.391 . S
H2252 C2260 0.950 . S
H2253 C2265 0.950 . S
H2254 C2262 0.950 . S
H2255 C2264 0.950 . S
H2256 C2266 0.950 . S
H2257 C2268 0.950 . S
H2258 C2270 0.950 . S
H2259 C2271 0.950 . S
C2260 H2252 0.950 . S
C2260 C2261 1.386 . S
C2260 C2262 1.391 . S
C2261 C2260 1.386 . S
C2261 C2265 1.393 . S
C2262 H2254 0.950 . S
C2262 C2260 1.391 . S
C2262 C2263 1.400 . S
C2263 C2262 1.400 . S
C2263 C2264 1.398 . S
C2263 C2269 1.491 . S
C2264 H2255 0.950 . S
C2264 C2263 1.398 . S
C2264 C2265 1.391 . S
C2265 H2253 0.950 . S
C2265 C2261 1.393 . S
C2265 C2264 1.391 . S
C2266 H2256 0.950 . S
C2266 C2267 1.386 . S
C2266 C2268 1.391 . S
C2267 C2266 1.386 . S
C2267 C2271 1.393 . S
C2268 H2257 0.950 . S
C2268 C2266 1.391 . S
C2268 C2269 1.400 . S
C2269 C2263 1.491 . S
C2269 C2268 1.400 . S
C2269 C2270 1.398 . S
C2270 H2258 0.950 . S
C2270 C2269 1.398 . S
C2270 C2271 1.391 . S
C2271 H2259 0.950 . S
C2271 C2267 1.393 . S
C2271 C2270 1.391 . S
H2272 C2280 0.950 . S
H2273 C2285 0.950 . S
H2274 C2282 0.950 . S
H2275 C2284 0.950 . S
H2276 C2286 0.950 . S
H2277 C2288 0.950 . S
H2278 C2290 0.950 . S
H2279 C2291 0.950 . S
C2280 H2272 0.950 . S
C2280 C2281 1.386 . S
C2280 C2282 1.391 . S
C2281 C2280 1.386 . S
C2281 C2285 1.393 . S
C2282 H2274 0.950 . S
C2282 C2280 1.391 . S
C2282 C2283 1.400 . S
C2283 C2282 1.400 . S
C2283 C2284 1.398 . S
C2283 C2289 1.491 . S
C2284 H2275 0.950 . S
C2284 C2283 1.398 . S
C2284 C2285 1.391 . S
C2285 H2273 0.950 . S
C2285 C2281 1.393 . S
C2285 C2284 1.391 . S
C2286 H2276 0.950 . S
C2286 C2287 1.386 . S
C2286 C2288 1.391 . S
C2287 C2286 1.386 . S
C2287 C2291 1.393 . S
C2288 H2277 0.950 . S
C2288 C2286 1.391 . S
C2288 C2289 1.400 . S
C2289 C2283 1.491 . S
C2289 C2288 1.400 . S
C2289 C2290 1.398 . S
C2290 H2278 0.950 . S
C2290 C2289 1.398 . S
C2290 C2291 1.391 . S
C2291 H2279 0.950 . S
C2291 C2287 1.393 . S
C2291 C2290 1.391 . S
H2292 C2300 0.950 . S
H2293 C2305 0.950 . S
H2294 C2302 0.950 . S
H2295 C2304 0.950 . S
H2296 C2306 0.950 . S
H2297 C2308 0.950 . S
H2298 C2310 0.950 . S
H2299 C2311 0.950 . S
C2300 H2292 0.950 . S
C2300 C2301 1.386 . S
C2300 C2302 1.391 . S
C2301 C2300 1.386 . S
C2301 C2305 1.393 . S
C2302 H2294 0.950 . S
C2302 C2300 1.391 . S
C2302 C2303 1.400 . S
C2303 C2302 1.400 . S
C2303 C2304 1.398 . S
C2303 C2309 1.491 . S
C2304 H2295 0.950 . S
C2304 C2303 1.398 . S
C2304 C2305 1.391 . S
C2305 H2293 0.950 . S
C2305 C2301 1.393 . S
C2305 C2304 1.391 . S
C2306 H2296 0.950 . S
C2306 C2307 1.386 . S
C2306 C2308 1.391 . S
C2307 C2306 1.386 . S
C2307 C2311 1.393 . S
C2308 H2297 0.950 . S
C2308 C2306 1.391 . S
C2308 C2309 1.400 . S
C2309 C2303 1.491 . S
C2309 C2308 1.400 . S
C2309 C2310 1.398 . S
C2310 H2298 0.950 . S
C2310 C2309 1.398 . S
C2310 C2311 1.391 . S
C2311 H2299 0.950 . S
C2311 C2307 1.393 . S
C2311 C2310 1.391 . S
H2312 C2320 0.950 . S
H2313 C2325 0.950 . S
H2314 C2322 0.950 . S
H2315 C2324 0.950 . S
H2316 C2326 0.950 . S
H2317 C2328 0.950 . S
H2318 C2330 0.950 . S
H2319 C2331 0.950 . S
C2320 H2312 0.950 . S
C2320 C2321 1.386 . S
C2320 C2322 1.391 . S
C2321 C2320 1.386 . S
C2321 C2325 1.393 . S
C2322 H2314 0.950 . S
C2322 C2320 1.391 . S
C2322 C2323 1.400 . S
C2323 C2322 1.400 . S
C2323 C2324 1.398 . S
C2323 C2329 1.491 . S
C2324 H2315 0.950 . S
C2324 C2323 1.398 . S
C2324 C2325 1.391 . S
C2325 H2313 0.950 . S
C2325 C2321 1.393 . S
C2325 C2324 1.391 . S
C2326 H2316 0.950 . S
C2326 C2327 1.386 . S
C2326 C2328 1.391 . S
C2327 C2326 1.386 . S
C2327 C2331 1.393 . S
C2328 H2317 0.950 . S
C2328 C2326 1.391 . S
C2328 C2329 1.400 . S
C2329 C2323 1.491 . S
C2329 C2328 1.400 . S
C2329 C2330 1.398 . S
C2330 H2318 0.950 . S
C2330 C2329 1.398 . S
C2330 C2331 1.391 . S
C2331 H2319 0.950 . S
C2331 C2327 1.393 . S
C2331 C2330 1.391 . S
H2332 C2340 0.950 . S
H2333 C2345 0.946 1_655 S
H2334 C2342 0.950 . S
H2335 C2344 0.950 . S
H2336 C2346 0.950 . S
H2337 C2348 0.950 . S
H2338 C2350 0.950 . S
H2339 C2351 0.950 . S
C2340 H2332 0.950 . S
C2340 C2341 1.386 . S
C2340 C2342 1.391 1_655 S
C2341 C2340 1.386 . S
C2341 C2345 1.393 1_655 S
C2342 H2334 0.950 . S
C2342 C2340 1.391 1_455 S
C2342 C2343 1.400 . S
C2343 C2342 1.400 . S
C2343 C2344 1.398 . S
C2343 C2349 1.491 . S
C2344 H2335 0.950 . S
C2344 C2343 1.398 . S
C2344 C2345 1.391 . S
C2345 H2333 0.946 1_455 S
C2345 C2341 1.393 1_455 S
C2345 C2344 1.391 . S
C2346 H2336 0.950 . S
C2346 C2347 1.386 . S
C2346 C2348 1.391 . S
C2347 C2346 1.386 . S
C2347 C2351 1.393 . S
C2348 H2337 0.950 . S
C2348 C2346 1.391 . S
C2348 C2349 1.400 . S
C2349 C2343 1.491 . S
C2349 C2348 1.400 . S
C2349 C2350 1.398 . S
C2350 H2338 0.950 . S
C2350 C2349 1.398 . S
C2350 C2351 1.391 . S
C2351 H2339 0.950 . S
C2351 C2347 1.393 . S
C2351 C2350 1.391 . S
H2352 C2360 0.950 . S
H2353 C2365 0.950 . S
H2354 C2362 0.950 . S
H2355 C2364 0.950 . S
H2356 C2366 0.950 . S
H2357 C2368 0.950 . S
H2358 C2370 0.950 . S
H2359 C2371 0.950 . S
C2360 H2352 0.950 . S
C2360 C2361 1.386 . S
C2360 C2362 1.391 . S
C2361 C2360 1.386 . S
C2361 C2365 1.393 . S
C2362 H2354 0.950 . S
C2362 C2360 1.391 . S
C2362 C2363 1.400 . S
C2363 C2362 1.400 . S
C2363 C2364 1.398 . S
C2363 C2369 1.491 . S
C2364 H2355 0.950 . S
C2364 C2363 1.398 . S
C2364 C2365 1.391 . S
C2365 H2353 0.950 . S
C2365 C2361 1.393 . S
C2365 C2364 1.391 . S
C2366 H2356 0.950 . S
C2366 C2367 1.386 . S
C2366 C2368 1.391 . S
C2367 C2366 1.386 . S
C2367 C2371 1.393 . S
C2368 H2357 0.950 . S
C2368 C2366 1.391 . S
C2368 C2369 1.400 . S
C2369 C2363 1.491 . S
C2369 C2368 1.400 . S
C2369 C2370 1.398 . S
C2370 H2358 0.950 . S
C2370 C2369 1.398 . S
C2370 C2371 1.391 . S
C2371 H2359 0.950 . S
C2371 C2367 1.393 . S
C2371 C2370 1.391 . S
H2372 C2380 0.950 . S
H2373 C2385 0.950 . S
H2374 C2382 0.950 . S
H2375 C2384 0.950 . S
H2376 C2386 0.950 . S
H2377 C2388 0.950 . S
H2378 C2390 0.950 . S
H2379 C2391 0.950 . S
C2380 H2372 0.950 . S
C2380 C2381 1.386 . S
C2380 C2382 1.391 . S
C2381 C2380 1.386 . S
C2381 C2385 1.393 . S
C2382 H2374 0.950 . S
C2382 C2380 1.391 . S
C2382 C2383 1.400 . S
C2383 C2382 1.400 . S
C2383 C2384 1.398 . S
C2383 C2389 1.491 . S
C2384 H2375 0.950 . S
C2384 C2383 1.398 . S
C2384 C2385 1.391 . S
C2385 H2373 0.950 . S
C2385 C2381 1.393 . S
C2385 C2384 1.391 . S
C2386 H2376 0.950 . S
C2386 C2387 1.386 . S
C2386 C2388 1.391 1_655 S
C2387 C2386 1.386 . S
C2387 C2391 1.393 . S
C2388 H2377 0.950 . S
C2388 C2386 1.391 1_455 S
C2388 C2389 1.400 . S
C2389 C2383 1.491 . S
C2389 C2388 1.400 . S
C2389 C2390 1.398 . S
C2390 H2378 0.950 . S
C2390 C2389 1.398 . S
C2390 C2391 1.391 1_455 S
C2391 H2379 0.950 . S
C2391 C2387 1.393 . S
C2391 C2390 1.391 1_655 S
H2392 C2400 0.950 . S
H2393 C2405 0.950 . S
H2394 C2402 0.950 . S
H2395 C2404 0.950 . S
H2396 C2406 0.950 . S
H2397 C2408 0.950 . S
H2398 C2410 0.950 . S
H2399 C2411 0.950 . S
C2400 H2392 0.950 . S
C2400 C2401 1.386 . S
C2400 C2402 1.391 . S
C2401 C2400 1.386 . S
C2401 C2405 1.393 . S
C2402 H2394 0.950 . S
C2402 C2400 1.391 . S
C2402 C2403 1.400 . S
C2403 C2402 1.400 . S
C2403 C2404 1.398 . S
C2403 C2409 1.491 . S
C2404 H2395 0.950 . S
C2404 C2403 1.398 . S
C2404 C2405 1.391 . S
C2405 H2393 0.950 . S
C2405 C2401 1.393 . S
C2405 C2404 1.391 . S
C2406 H2396 0.950 . S
C2406 C2407 1.386 . S
C2406 C2408 1.391 . S
C2407 C2406 1.386 . S
C2407 C2411 1.393 . S
C2408 H2397 0.950 . S
C2408 C2406 1.391 . S
C2408 C2409 1.400 . S
C2409 C2403 1.491 . S
C2409 C2408 1.400 . S
C2409 C2410 1.398 . S
C2410 H2398 0.950 . S
C2410 C2409 1.398 . S
C2410 C2411 1.391 . S
C2411 H2399 0.950 . S
C2411 C2407 1.393 . S
C2411 C2410 1.391 . S
H2412 C2420 0.950 . S
H2413 C2425 0.950 . S
H2414 C2422 0.950 . S
H2415 C2424 0.950 . S
H2416 C2426 0.950 . S
H2417 C2428 0.950 . S
H2418 C2430 0.950 . S
H2419 C2431 0.950 . S
C2420 H2412 0.950 . S
C2420 C2421 1.386 . S
C2420 C2422 1.391 . S
C2421 C2420 1.386 . S
C2421 C2425 1.393 . S
C2422 H2414 0.950 . S
C2422 C2420 1.391 . S
C2422 C2423 1.400 . S
C2423 C2422 1.400 . S
C2423 C2424 1.398 . S
C2423 C2429 1.491 . S
C2424 H2415 0.950 . S
C2424 C2423 1.398 . S
C2424 C2425 1.391 . S
C2425 H2413 0.950 . S
C2425 C2421 1.393 . S
C2425 C2424 1.391 . S
C2426 H2416 0.950 . S
C2426 C2427 1.386 . S
C2426 C2428 1.391 . S
C2427 C2426 1.386 . S
C2427 C2431 1.393 . S
C2428 H2417 0.950 . S
C2428 C2426 1.391 . S
C2428 C2429 1.400 . S
C2429 C2423 1.491 . S
C2429 C2428 1.400 . S
C2429 C2430 1.398 . S
C2430 H2418 0.950 . S
C2430 C2429 1.398 . S
C2430 C2431 1.391 . S
C2431 H2419 0.950 . S
C2431 C2427 1.393 . S
C2431 C2430 1.391 . S
C1161 C148 1.505 . S
C1167 C4 1.505 . S
C1181 C184 1.503 . S
C1187 C40 1.505 . S
C1201 C220 1.500 . S
C1207 C76 1.501 . S
C1221 C112 1.505 . S
C1227 C256 1.503 . S
C1241 C292 1.503 . S
C1247 C436 1.501 . S
C1261 C472 1.503 . S
C1267 C328 1.501 . S
C1281 C364 1.502 . S
C1287 C508 1.504 . S
C1301 C544 1.500 . S
C1307 C400 1.500 . S
C1321 C580 1.502 . S
C1327 C724 1.500 . S
C1341 C760 1.501 . S
C1347 C616 1.503 . S
C1361 C796 1.505 . S
C1367 C652 1.503 . S
C1381 C832 1.502 . S
C1387 C688 1.500 . S
C1401 C868 1.505 . S
C1407 C1012 1.505 . S
C1421 C904 1.500 . S
C1427 C1048 1.502 . S
C1441 C940 1.505 . S
C1447 C1084 1.503 . S
C1461 C976 1.503 . S
C1467 C1120 1.505 . S
C1481 C14 1.077 . S
C1487 C266 1.097 . S
C1501 C50 1.094 . S
C1507 C158 1.085 . S
C1521 C86 1.092 . S
C1527 C194 1.064 . S
C1541 C230 1.080 . S
C1547 C122 1.096 . S
C1561 C554 1.087 . S
C1567 C302 1.093 . S
C1581 C446 1.089 . S
C1587 C338 1.091 . S
C1601 C482 1.079 . S
C1607 C374 1.063 . S
C1621 C410 1.093 . S
C1627 C518 1.087 . S
C1641 C842 1.075 . S
C1647 C590 1.097 . S
C1661 C734 1.085 . S
C1667 C626 1.094 . S
C1681 C770 1.077 . S
C1687 C662 1.097 . S
C1701 C698 1.082 . S
C1707 C806 1.062 . S
C1721 C878 1.065 . S
C1727 C1130 1.075 . S
C1741 C914 1.087 . S
C1747 C1022 1.062 . S
C1761 C950 1.078 . S
C1767 C1058 1.063 . S
C1781 C1094 1.088 . S
C1787 C986 1.092 . S
C1801 C3 1.455 . S
C1807 C902 1.420 . S
C1821 C39 1.454 . S
C1827 C362 1.427 . S
C1841 C75 1.456 . S
C1847 C974 1.430 . S
C1861 C290 1.420 . S
C1867 C111 1.454 . S
C1881 C1118 1.426 . S
C1887 C147 1.456 . S
C1901 C183 1.456 . S
C1907 C434 1.434 . S
C1921 C219 1.455 . S
C1927 C1046 1.421 . S
C1941 C255 1.454 . S
C1947 C506 1.423 . S
C1961 C614 1.439 . S
C1967 C291 1.455 . S
C1981 C74 1.436 . S
C1987 C327 1.454 . S
C2001 C686 1.423 . S
C2007 C363 1.455 . S
C2021 C399 1.455 . S
C2027 C2 1.438 . S
C2041 C830 1.428 . S
C2047 C435 1.456 . S
C2061 C146 1.433 . S
C2067 C471 1.456 . S
C2081 C758 1.421 . S
C2087 C507 1.455 . S
C2101 C218 1.423 . S
C2107 C543 1.454 . S
C2121 C326 1.433 . S
C2127 C579 1.456 . S
C2141 C615 1.454 . S
C2147 C938 1.420 . S
C2161 C651 1.455 . S
C2167 C398 1.438 . S
C2181 C687 1.454 . S
C2187 C866 1.428 . S
C2201 C723 1.455 . S
C2207 C542 1.438 . S
C2221 C1010 1.433 . S
C2227 C759 1.456 . S
C2241 C795 1.456 . S
C2247 C470 1.429 . S
C2261 C831 1.454 . S
C2267 C1082 1.431 . S
C2281 C867 1.455 . S
C2287 C38 1.423 . S
C2301 C903 1.454 . S
C2307 C650 1.426 . S
C2321 C110 1.436 . S
C2327 C939 1.456 . S
C2341 C578 1.425 . S
C2347 C975 1.454 . S
C2361 C1011 1.454 . S
C2367 C254 1.421 . S
C2381 C1047 1.455 . S
C2387 C722 1.437 . S
C2401 C182 1.435 . S
C2407 C1083 1.456 . S
C2421 C794 1.439 . S
C2427 C1119 1.455 . S
