# Generated by pormake.
# Topology umo, (4)-cn, num edge types: 1
# Building blocks:
#     Node 0, Type 0, BuildingBlock: KOZSID_clean_sbu_0, # of connection points: 4
#     Node 1, Type 0, BuildingBlock: KOZSID_clean_sbu_0, # of connection points: 4
#     Node 2, Type 0, BuildingBlock: KOZSID_clean_sbu_0, # of connection points: 4
#     Node 3, Type 0, BuildingBlock: KOZSID_clean_sbu_0, # of connection points: 4
#     Node 4, Type 0, BuildingBlock: KOZSID_clean_sbu_0, # of connection points: 4
#     Node 5, Type 0, BuildingBlock: KOZSID_clean_sbu_0, # of connection points: 4
#     Node 6, Type 0, BuildingBlock: KOZSID_clean_sbu_0, # of connection points: 4
#     Node 7, Type 0, BuildingBlock: KOZSID_clean_sbu_0, # of connection points: 4
#     Node 8, Type 0, BuildingBlock: KOZSID_clean_sbu_0, # of connection points: 4
#     Node 9, Type 0, BuildingBlock: KOZSID_clean_sbu_0, # of connection points: 4
#     Node 10, Type 0, BuildingBlock: KOZSID_clean_sbu_0, # of connection points: 4
#     Node 11, Type 0, BuildingBlock: KOZSID_clean_sbu_0, # of connection points: 4
#     Edge 12, Type (0, 0), BuildingBlock: EZIPEK_clean_linker_0, # of connection points: 2
#     Edge 13, Type (0, 0), BuildingBlock: EZIPEK_clean_linker_0, # of connection points: 2
#     Edge 14, Type (0, 0), BuildingBlock: EZIPEK_clean_linker_0, # of connection points: 2
#     Edge 15, Type (0, 0), BuildingBlock: EZIPEK_clean_linker_0, # of connection points: 2
#     Edge 16, Type (0, 0), BuildingBlock: EZIPEK_clean_linker_0, # of connection points: 2
#     Edge 17, Type (0, 0), BuildingBlock: EZIPEK_clean_linker_0, # of connection points: 2
#     Edge 18, Type (0, 0), BuildingBlock: EZIPEK_clean_linker_0, # of connection points: 2
#     Edge 19, Type (0, 0), BuildingBlock: EZIPEK_clean_linker_0, # of connection points: 2
#     Edge 20, Type (0, 0), BuildingBlock: EZIPEK_clean_linker_0, # of connection points: 2
#     Edge 21, Type (0, 0), BuildingBlock: EZIPEK_clean_linker_0, # of connection points: 2
#     Edge 22, Type (0, 0), BuildingBlock: EZIPEK_clean_linker_0, # of connection points: 2
#     Edge 23, Type (0, 0), BuildingBlock: EZIPEK_clean_linker_0, # of connection points: 2
#     Edge 24, Type (0, 0), BuildingBlock: EZIPEK_clean_linker_0, # of connection points: 2
#     Edge 25, Type (0, 0), BuildingBlock: EZIPEK_clean_linker_0, # of connection points: 2
#     Edge 26, Type (0, 0), BuildingBlock: EZIPEK_clean_linker_0, # of connection points: 2
#     Edge 27, Type (0, 0), BuildingBlock: EZIPEK_clean_linker_0, # of connection points: 2
#     Edge 28, Type (0, 0), BuildingBlock: EZIPEK_clean_linker_0, # of connection points: 2
#     Edge 29, Type (0, 0), BuildingBlock: EZIPEK_clean_linker_0, # of connection points: 2
#     Edge 30, Type (0, 0), BuildingBlock: EZIPEK_clean_linker_0, # of connection points: 2
#     Edge 31, Type (0, 0), BuildingBlock: EZIPEK_clean_linker_0, # of connection points: 2
#     Edge 32, Type (0, 0), BuildingBlock: EZIPEK_clean_linker_0, # of connection points: 2
#     Edge 33, Type (0, 0), BuildingBlock: EZIPEK_clean_linker_0, # of connection points: 2
#     Edge 34, Type (0, 0), BuildingBlock: EZIPEK_clean_linker_0, # of connection points: 2
#     Edge 35, Type (0, 0), BuildingBlock: EZIPEK_clean_linker_0, # of connection points: 2
# Relax obj value: 0.198
# Max RMSD: 0.242
# Mean RMSD: 0.242
data_MOF--net-umo--node1-KOZSID_clean_sbu_0--edge1-EZIPEK_clean_linker_0
_symmetry_space_group_name_H-M    P1
_symmetry_Int_Tables_number       1
_symmetry_cell_setting            triclinic
loop_
_symmetry_equiv_pos_as_xyz
'x, y, z'
_cell_length_a     50.532884
_cell_length_b     50.786157
_cell_length_c     29.000864
_cell_angle_alpha  89.991058
_cell_angle_beta   90.000531
_cell_angle_gamma 120.11869
loop_
_atom_site_label
_atom_site_type_symbol
_atom_site_fract_x
_atom_site_fract_y
_atom_site_fract_z
_atom_type_partial_charge
C0 C 0.22711 0.50982 0.35072 0.0
C1 C 0.24045 0.49226 0.36079 0.0
C2 C 0.22932 0.47891 0.40252 0.0
C3 C 0.21079 0.48979 0.4168 0.0
N4 N 0.20924 0.50895 0.38612 0.0
Co5 Co 0.18962 0.53396 0.39647 0.0
N6 N 0.18928 0.5286 0.46413 0.0
C7 C 0.1978 0.51096 0.48689 0.0
C8 C 0.20714 0.52065 0.53114 0.0
C9 C 0.20349 0.54534 0.53682 0.0
C10 C 0.19022 0.54817 0.49652 0.0
N11 N 0.16852 0.55762 0.40722 0.0
C12 C 0.15971 0.56462 0.44767 0.0
C13 C 0.13712 0.57206 0.43966 0.0
C14 C 0.13274 0.57099 0.39284 0.0
C15 C 0.15206 0.56204 0.37475 0.0
N16 N 0.19169 0.54049 0.32899 0.0
C17 C 0.17478 0.54923 0.30477 0.0
C18 C 0.18126 0.55179 0.25838 0.0
C19 C 0.20369 0.54417 0.25341 0.0
C20 C 0.20966 0.53739 0.29717 0.0
N21 N 0.14819 0.49707 0.38955 0.0
C22 C 0.08579 0.45853 0.36495 0.0
C23 C 0.09408 0.47307 0.40806 0.0
C24 C 0.12517 0.49182 0.41984 0.0
C25 C 0.10961 0.46142 0.33646 0.0
C26 C 0.14046 0.48029 0.34965 0.0
N27 N 0.23044 0.57148 0.40177 0.0
C28 C 0.2635 0.62526 0.3856 0.0
C29 C 0.28908 0.62492 0.4038 0.0
C30 C 0.28437 0.59714 0.42158 0.0
C31 C 0.255 0.57101 0.42099 0.0
C32 C 0.23477 0.59842 0.38415 0.0
H33 H 0.2524 0.55039 0.43574 0.0
H34 H 0.21611 0.59951 0.3681 0.0
H35 H 0.1304 0.50363 0.45235 0.0
H36 H 0.15805 0.48278 0.32597 0.0
C37 C 0.2048 0.49151 0.46311 0.0
C38 C 0.23127 0.52655 0.30728 0.0
C39 C 0.17136 0.56287 0.49395 0.0
C40 C 0.15575 0.55774 0.32776 0.0
H41 H 0.25757 0.4901 0.34164 0.0
H42 H 0.23686 0.46586 0.42244 0.0
H43 H 0.2173 0.51207 0.55538 0.0
H44 H 0.20856 0.55867 0.56803 0.0
H45 H 0.12462 0.5772 0.46491 0.0
H46 H 0.11686 0.57555 0.37436 0.0
H47 H 0.17147 0.55907 0.23153 0.0
H48 H 0.21433 0.54352 0.22138 0.0
H49 H 0.07659 0.47104 0.43176 0.0
H50 H 0.10444 0.45012 0.30329 0.0
H51 H 0.26587 0.64611 0.3716 0.0
H52 H 0.3033 0.59569 0.43625 0.0
C53 C 0.72408 0.21753 0.51706 0.0
C54 C 0.7543 0.22718 0.52885 0.0
C55 C 0.75354 0.21161 0.56778 0.0
C56 C 0.72319 0.19416 0.57886 0.0
N57 N 0.70485 0.19783 0.54902 0.0
Co58 Co 0.66083 0.18332 0.55734 0.0
N59 N 0.66382 0.17846 0.6244 0.0
C60 C 0.68581 0.17557 0.64592 0.0
C61 C 0.68145 0.17169 0.69265 0.0
C62 C 0.65484 0.1718 0.70091 0.0
C63 C 0.64444 0.17567 0.65844 0.0
N64 N 0.61683 0.16886 0.56566 0.0
C65 C 0.60129 0.16698 0.6047 0.0
C66 C 0.57046 0.15516 0.59536 0.0
C67 C 0.56677 0.14918 0.54874 0.0
C68 C 0.5955 0.15769 0.53225 0.0
N69 N 0.65866 0.18831 0.49027 0.0
C70 C 0.63323 0.1747 0.46428 0.0
C71 C 0.63924 0.18296 0.41861 0.0
C72 C 0.6703 0.20301 0.41621 0.0
C73 C 0.68153 0.20599 0.46069 0.0
N74 N 0.65021 0.14022 0.54775 0.0
C75 C 0.62501 0.07747 0.52687 0.0
C76 C 0.61654 0.08697 0.56673 0.0
C77 C 0.62926 0.11808 0.57646 0.0
C78 C 0.64771 0.10021 0.49879 0.0
C79 C 0.66017 0.13136 0.51 0.0
N80 N 0.66991 0.22581 0.56638 0.0
C81 C 0.65734 0.26491 0.54873 0.0
C82 C 0.68058 0.28582 0.57759 0.0
C83 C 0.6987 0.27606 0.60058 0.0
C84 C 0.69292 0.24598 0.59467 0.0
C85 C 0.65239 0.23533 0.54368 0.0
H86 H 0.70699 0.239 0.61298 0.0
H87 H 0.63419 0.22011 0.52112 0.0
H88 H 0.62092 0.12408 0.60644 0.0
H89 H 0.67697 0.14829 0.48713 0.0
C90 C 0.71263 0.18217 0.62273 0.0
C91 C 0.71386 0.22567 0.47431 0.0
C92 C 0.61483 0.1736 0.65112 0.0
C93 C 0.60423 0.16 0.48556 0.0
H94 H 0.77502 0.24421 0.51234 0.0
H95 H 0.77299 0.21492 0.58799 0.0
H96 H 0.69636 0.17011 0.71791 0.0
H97 H 0.64419 0.16894 0.73432 0.0
H98 H 0.55253 0.15086 0.61979 0.0
H99 H 0.54581 0.14049 0.52914 0.0
H100 H 0.62284 0.17664 0.39084 0.0
H101 H 0.68309 0.21459 0.38558 0.0
H102 H 0.59926 0.07035 0.58957 0.0
H103 H 0.65514 0.09399 0.46771 0.0
H104 H 0.64283 0.27136 0.53025 0.0
H105 H 0.71698 0.29149 0.62321 0.0
C106 C 0.51373 0.71126 0.66423 0.0
C107 C 0.53865 0.74057 0.6616 0.0
C108 C 0.55718 0.74382 0.69841 0.0
C109 C 0.5426 0.71636 0.72112 0.0
N110 N 0.51624 0.69622 0.70066 0.0
Co111 Co 0.48882 0.65381 0.7197 0.0
N112 N 0.50424 0.66348 0.78353 0.0
C113 C 0.53125 0.68724 0.79681 0.0
C114 C 0.53605 0.68757 0.84345 0.0
C115 C 0.5106 0.6623 0.86027 0.0
C116 C 0.49172 0.64793 0.82269 0.0
N117 N 0.46158 0.61139 0.73894 0.0
C118 C 0.45244 0.60007 0.78193 0.0
C119 C 0.43308 0.56879 0.78035 0.0
C120 C 0.43038 0.56054 0.73454 0.0
C121 C 0.44822 0.58717 0.71073 0.0
N122 N 0.47443 0.64535 0.65505 0.0
C123 C 0.45939 0.61773 0.6351 0.0
C124 C 0.44732 0.61889 0.59309 0.0
C125 C 0.45526 0.64889 0.5868 0.0
C126 C 0.47248 0.6648 0.62489 0.0
N127 N 0.52098 0.64327 0.70514 0.0
C128 C 0.5593 0.61931 0.68105 0.0
C129 C 0.55475 0.63831 0.65064 0.0
C130 C 0.53573 0.65017 0.66339 0.0
C131 C 0.5452 0.61375 0.72434 0.0
C132 C 0.52631 0.62575 0.73558 0.0
N133 N 0.45513 0.66221 0.73414 0.0
C134 C 0.40267 0.64884 0.71936 0.0
C135 C 0.4035 0.66883 0.75314 0.0
C136 C 0.43124 0.68571 0.77766 0.0
C137 C 0.45698 0.68258 0.76691 0.0
C138 C 0.42767 0.64487 0.71221 0.0
H139 H 0.47813 0.69636 0.78532 0.0
H140 H 0.42402 0.62692 0.68909 0.0
H141 H 0.53215 0.66409 0.63886 0.0
H142 H 0.51508 0.61977 0.76858 0.0
C143 C 0.54909 0.71083 0.76587 0.0
C144 C 0.48778 0.69824 0.63231 0.0
C145 C 0.46368 0.61828 0.82447 0.0
C146 C 0.44869 0.59135 0.66255 0.0
H147 H 0.54263 0.75786 0.63632 0.0
H148 H 0.57781 0.76431 0.70879 0.0
H149 H 0.55528 0.70454 0.86308 0.0
H150 H 0.50668 0.65503 0.89592 0.0
H151 H 0.42227 0.5536 0.80922 0.0
H152 H 0.41617 0.53801 0.7203 0.0
H153 H 0.43198 0.59981 0.57168 0.0
H154 H 0.44829 0.65763 0.55814 0.0
H155 H 0.56524 0.64335 0.61681 0.0
H156 H 0.54802 0.59933 0.74902 0.0
H157 H 0.38199 0.63499 0.69971 0.0
H158 H 0.43303 0.70114 0.80482 0.0
C159 C 0.81117 0.51293 0.85084 0.0
C160 C 0.79773 0.5304 0.86092 0.0
C161 C 0.8089 0.54383 0.90257 0.0
C162 C 0.82754 0.53308 0.91684 0.0
N163 N 0.82912 0.51392 0.88621 0.0
Co164 Co 0.84876 0.48894 0.89665 0.0
N165 N 0.84912 0.49435 0.9643 0.0
C166 C 0.84065 0.51206 0.987 0.0
C167 C 0.83133 0.50243 0.03128 0.0
C168 C 0.83495 0.47772 0.03704 0.0
C169 C 0.84818 0.47482 0.99676 0.0
N170 N 0.86986 0.46529 0.90748 0.0
C171 C 0.87864 0.45828 0.94795 0.0
C172 C 0.90122 0.45082 0.94 0.0
C173 C 0.90563 0.45189 0.8932 0.0
C174 C 0.88633 0.46085 0.87505 0.0
N175 N 0.84672 0.48239 0.82918 0.0
C176 C 0.86369 0.4737 0.805 0.0
C177 C 0.85729 0.47119 0.75859 0.0
C178 C 0.83486 0.47881 0.75356 0.0
C179 C 0.82879 0.48551 0.7973 0.0
N180 N 0.8902 0.52583 0.88968 0.0
C181 C 0.95258 0.56437 0.865 0.0
C182 C 0.92875 0.56147 0.83654 0.0
C183 C 0.8979 0.54261 0.84977 0.0
C184 C 0.94431 0.54985 0.90813 0.0
C185 C 0.91322 0.53109 0.91995 0.0
N186 N 0.80795 0.45143 0.90201 0.0
C187 C 0.77481 0.3977 0.88566 0.0
C188 C 0.74931 0.39802 0.90422 0.0
C189 C 0.75409 0.42576 0.92223 0.0
C190 C 0.78346 0.45188 0.92151 0.0
C191 C 0.80355 0.42452 0.88417 0.0
H192 H 0.78611 0.4725 0.93638 0.0
H193 H 0.82218 0.42346 0.86794 0.0
H194 H 0.8803 0.54011 0.82611 0.0
H195 H 0.90801 0.51929 0.95247 0.0
C196 C 0.83361 0.53146 0.96315 0.0
C197 C 0.80711 0.49626 0.80736 0.0
C198 C 0.86698 0.46005 0.99422 0.0
C199 C 0.8827 0.46518 0.82805 0.0
H200 H 0.78053 0.53245 0.84181 0.0
H201 H 0.80131 0.55685 0.92249 0.0
H202 H 0.8212 0.51105 0.05549 0.0
H203 H 0.82987 0.46442 0.06829 0.0
H204 H 0.91369 0.44567 0.96529 0.0
H205 H 0.92152 0.44733 0.87475 0.0
H206 H 0.86715 0.46397 0.73176 0.0
H207 H 0.82427 0.47949 0.72148 0.0
H208 H 0.9339 0.57276 0.80335 0.0
H209 H 0.96181 0.55189 0.93182 0.0
H210 H 0.77238 0.37687 0.87145 0.0
H211 H 0.7352 0.4272 0.93715 0.0
C212 C 0.31421 0.80531 0.01667 0.0
C213 C 0.28398 0.79565 0.02844 0.0
C214 C 0.28472 0.81119 0.06739 0.0
C215 C 0.31507 0.82863 0.07849 0.0
N216 N 0.33342 0.82499 0.04866 0.0
Co217 Co 0.37744 0.83952 0.05699 0.0
N218 N 0.37444 0.84433 0.12405 0.0
C219 C 0.35242 0.8472 0.14557 0.0
C220 C 0.35677 0.85106 0.1923 0.0
C221 C 0.38339 0.85098 0.20056 0.0
C222 C 0.39382 0.84714 0.15809 0.0
N223 N 0.42144 0.85398 0.06531 0.0
C224 C 0.43699 0.85587 0.10435 0.0
C225 C 0.46782 0.86771 0.09502 0.0
C226 C 0.47151 0.8737 0.0484 0.0
C227 C 0.44279 0.86517 0.0319 0.0
N228 N 0.37963 0.83457 0.9899 0.0
C229 C 0.40507 0.84821 0.96392 0.0
C230 C 0.39907 0.83996 0.91825 0.0
C231 C 0.36802 0.8199 0.91583 0.0
C232 C 0.35678 0.81689 0.96032 0.0
N233 N 0.38806 0.88262 0.04744 0.0
C234 C 0.41321 0.94537 0.02667 0.0
C235 C 0.42175 0.93586 0.06643 0.0
C236 C 0.40903 0.90474 0.07613 0.0
C237 C 0.39047 0.92265 -0.00138 0.0
C238 C 0.37805 0.8915 0.00976 0.0
N239 N 0.36838 0.79702 0.06598 0.0
C240 C 0.38096 0.75795 0.04829 0.0
C241 C 0.35774 0.73702 0.07717 0.0
C242 C 0.33962 0.74676 0.10018 0.0
C243 C 0.34538 0.77684 0.09428 0.0
C244 C 0.3859 0.78752 0.04326 0.0
H245 H 0.33131 0.78381 0.11261 0.0
H246 H 0.40409 0.80276 0.02069 0.0
H247 H 0.4174 0.89873 0.10607 0.0
H248 H 0.36123 0.87457 0.9869 0.0
C249 C 0.32561 0.84059 0.12237 0.0
C250 C 0.32445 0.7972 0.97392 0.0
C251 C 0.42345 0.84927 0.15078 0.0
C252 C 0.43406 0.86289 0.98521 0.0
H253 H 0.26327 0.77863 0.01191 0.0
H254 H 0.26526 0.80786 0.08759 0.0
H255 H 0.34184 0.85261 0.21756 0.0
H256 H 0.39404 0.85384 0.23397 0.0
H257 H 0.48575 0.87203 0.11945 0.0
H258 H 0.49248 0.88241 0.0288 0.0
H259 H 0.41548 0.84629 0.89049 0.0
H260 H 0.35524 0.80832 0.8852 0.0
H261 H 0.43906 0.95247 0.08924 0.0
H262 H 0.383 0.9289 0.96761 0.0
H263 H 0.39548 0.75151 0.0298 0.0
H264 H 0.32135 0.73132 0.12284 0.0
C265 C 0.52463 0.3116 0.16459 0.0
C266 C 0.49972 0.2823 0.16193 0.0
C267 C 0.48115 0.27904 0.1987 0.0
C268 C 0.49571 0.3065 0.2214 0.0
N269 N 0.52209 0.32664 0.20099 0.0
Co270 Co 0.54949 0.36904 0.22005 0.0
N271 N 0.53402 0.35935 0.28384 0.0
C272 C 0.50699 0.3356 0.29709 0.0
C273 C 0.50216 0.33526 0.34372 0.0
C274 C 0.5276 0.36051 0.36057 0.0
C275 C 0.5465 0.37489 0.32302 0.0
N276 N 0.57671 0.41146 0.2393 0.0
C277 C 0.58582 0.42276 0.2823 0.0
C278 C 0.60518 0.45404 0.28073 0.0
C279 C 0.60791 0.4623 0.23492 0.0
C280 C 0.59009 0.43568 0.21109 0.0
N281 N 0.56394 0.37751 0.15542 0.0
C282 C 0.57899 0.40514 0.13547 0.0
C283 C 0.59113 0.40399 0.09351 0.0
C284 C 0.58321 0.37399 0.08725 0.0
C285 C 0.56593 0.35807 0.1253 0.0
N286 N 0.51734 0.37959 0.2054 0.0
C287 C 0.47905 0.40355 0.18118 0.0
C288 C 0.48361 0.38456 0.15081 0.0
C289 C 0.50262 0.3727 0.16362 0.0
C290 C 0.49311 0.40912 0.22449 0.0
C291 C 0.51199 0.3971 0.23579 0.0
N292 N 0.58316 0.36064 0.23457 0.0
C293 C 0.63564 0.37402 0.21988 0.0
C294 C 0.63478 0.35401 0.25365 0.0
C295 C 0.60703 0.33711 0.27812 0.0
C296 C 0.58129 0.34025 0.26733 0.0
C297 C 0.61065 0.378 0.21269 0.0
H298 H 0.56013 0.32646 0.28571 0.0
H299 H 0.61432 0.39597 0.18959 0.0
H300 H 0.50622 0.35877 0.13912 0.0
H301 H 0.52319 0.40308 0.26881 0.0
C302 C 0.48917 0.31201 0.26614 0.0
C303 C 0.55062 0.32463 0.13273 0.0
C304 C 0.57455 0.40453 0.32483 0.0
C305 C 0.58966 0.43152 0.16292 0.0
H306 H 0.49576 0.26501 0.13667 0.0
H307 H 0.46051 0.25855 0.20905 0.0
H308 H 0.4829 0.31828 0.36332 0.0
H309 H 0.53149 0.36777 0.39622 0.0
H310 H 0.61598 0.46922 0.30961 0.0
H311 H 0.62214 0.48484 0.22068 0.0
H312 H 0.6065 0.42308 0.07213 0.0
H313 H 0.59022 0.36527 0.05864 0.0
H314 H 0.47315 0.37952 0.11697 0.0
H315 H 0.49028 0.42354 0.24914 0.0
H316 H 0.65634 0.38789 0.20026 0.0
H317 H 0.60521 0.32166 0.30527 0.0
C318 C 0.51284 0.80981 0.50262 0.0
C319 C 0.53802 0.80608 0.50856 0.0
C320 C 0.55745 0.82084 0.47244 0.0
C321 C 0.54312 0.8328 0.44682 0.0
N322 N 0.516 0.82647 0.46469 0.0
Co323 Co 0.48929 0.84144 0.44153 0.0
N324 N 0.50701 0.84696 0.37924 0.0
C325 C 0.5344 0.85007 0.36877 0.0
C326 C 0.54086 0.85441 0.32249 0.0
C327 C 0.5161 0.85429 0.30287 0.0
C328 C 0.49595 0.84993 0.33855 0.0
N329 N 0.46317 0.85707 0.41828 0.0
C330 C 0.45572 0.85929 0.37421 0.0
C331 C 0.43656 0.87147 0.37284 0.0
C332 C 0.43224 0.87715 0.41793 0.0
C333 C 0.44898 0.86816 0.44429 0.0
N334 N 0.47207 0.8351 0.50457 0.0
C335 C 0.45598 0.84739 0.5218 0.0
C336 C 0.44243 0.83424 0.56319 0.0
C337 C 0.45064 0.8126 0.57212 0.0
C338 C 0.46934 0.814 0.53609 0.0
N339 N 0.52092 0.88405 0.45728 0.0
C340 C 0.55836 0.94635 0.4815 0.0
C341 C 0.55217 0.92296 0.51326 0.0
C342 C 0.53362 0.89205 0.50043 0.0
C343 C 0.54636 0.93764 0.437 0.0
C344 C 0.52785 0.90675 0.42572 0.0
N345 N 0.45616 0.79961 0.42567 0.0
C346 C 0.40243 0.76191 0.43336 0.0
C347 C 0.40632 0.74016 0.40992 0.0
C348 C 0.43569 0.74929 0.39203 0.0
C349 C 0.46033 0.7793 0.4 0.0
C350 C 0.42715 0.79108 0.44041 0.0
H351 H 0.48284 0.78567 0.38715 0.0
H352 H 0.42242 0.80665 0.45852 0.0
H353 H 0.52872 0.87466 0.5259 0.0
H354 H 0.51816 0.90143 0.39162 0.0
C355 C 0.55114 0.84454 0.40206 0.0
C356 C 0.48602 0.79687 0.53286 0.0
C357 C 0.46816 0.85177 0.33355 0.0
C358 C 0.44698 0.86377 0.49254 0.0
H359 H 0.54165 0.79357 0.53566 0.0
H360 H 0.57866 0.82137 0.46459 0.0
H361 H 0.56078 0.85663 0.30493 0.0
H362 H 0.5135 0.85767 0.26668 0.0
H363 H 0.42682 0.87582 0.34255 0.0
H364 H 0.41752 0.88547 0.43001 0.0
H365 H 0.42641 0.83806 0.58273 0.0
H366 H 0.44328 0.79735 0.60138 0.0
H367 H 0.561 0.92855 0.54808 0.0
H368 H 0.55048 0.95477 0.41129 0.0
H369 H 0.38019 0.75624 0.44685 0.0
H370 H 0.43972 0.73323 0.37318 0.0
C371 C 0.72571 0.51581 0.64564 0.0
C372 C 0.75599 0.53778 0.63686 0.0
C373 C 0.75601 0.55238 0.59722 0.0
C374 C 0.72608 0.53819 0.58326 0.0
N375 N 0.70725 0.51553 0.61179 0.0
Co376 Co 0.66319 0.48677 0.60183 0.0
N377 N 0.66774 0.4952 0.53498 0.0
C378 C 0.69036 0.52005 0.5143 0.0
C379 C 0.68691 0.51994 0.46739 0.0
C380 C 0.66029 0.4935 0.45808 0.0
C381 C 0.64899 0.479 0.50016 0.0
N382 N 0.61906 0.45886 0.59148 0.0
C383 C 0.60425 0.44553 0.55185 0.0
C384 C 0.57314 0.42722 0.55974 0.0
C385 C 0.56859 0.42958 0.6061 0.0
C386 C 0.59711 0.44916 0.62393 0.0
N387 N 0.65971 0.47855 0.66861 0.0
C388 C 0.63379 0.46631 0.69348 0.0
C389 C 0.63881 0.46219 0.7389 0.0
C390 C 0.66974 0.47247 0.74229 0.0
C391 C 0.68192 0.48227 0.69866 0.0
N392 N 0.65368 0.52006 0.61131 0.0
C393 C 0.62792 0.55704 0.63314 0.0
C394 C 0.62104 0.54079 0.59165 0.0
C395 C 0.63401 0.52264 0.58147 0.0
C396 C 0.64955 0.5558 0.66229 0.0
C397 C 0.66234 0.53747 0.65058 0.0
N398 N 0.67065 0.45205 0.59354 0.0
C399 C 0.65213 0.39827 0.60541 0.0
C400 C 0.67909 0.40078 0.58802 0.0
C401 C 0.70173 0.42983 0.57234 0.0
C402 C 0.69674 0.45491 0.57426 0.0
C403 C 0.64895 0.42396 0.60959 0.0
H404 H 0.71416 0.47665 0.56097 0.0
H405 H 0.62875 0.42073 0.62681 0.0
H406 H 0.62661 0.50934 0.55033 0.0
H407 H 0.67816 0.53629 0.67439 0.0
C408 C 0.71664 0.54006 0.53874 0.0
C409 C 0.71474 0.49635 0.68682 0.0
C410 C 0.61914 0.45167 0.50636 0.0
C411 C 0.60519 0.45385 0.67107 0.0
H412 H 0.77625 0.54261 0.65602 0.0
H413 H 0.77583 0.5696 0.57887 0.0
H414 H 0.70237 0.53655 0.44273 0.0
H415 H 0.65017 0.48605 0.42429 0.0
H416 H 0.55567 0.41375 0.53465 0.0
H417 H 0.54724 0.41735 0.6248 0.0
H418 H 0.62187 0.45158 0.76585 0.0
H419 H 0.68189 0.47258 0.77309 0.0
H420 H 0.60465 0.54112 0.56793 0.0
H421 H 0.65579 0.56814 0.6946 0.0
H422 H 0.63386 0.37654 0.61767 0.0
H423 H 0.72303 0.43307 0.55837 0.0
C424 C 0.22321 0.71765 0.81549 0.0
C425 C 0.23529 0.74852 0.80654 0.0
C426 C 0.22353 0.75064 0.76523 0.0
C427 C 0.20558 0.72123 0.75049 0.0
N428 N 0.20505 0.70069 0.78043 0.0
Co429 Co 0.18545 0.65623 0.77043 0.0
N430 N 0.18467 0.66117 0.70289 0.0
C431 C 0.19182 0.68707 0.68025 0.0
C432 C 0.20097 0.68707 0.63575 0.0
C433 C 0.19865 0.65928 0.62993 0.0
C434 C 0.18619 0.64297 0.67036 0.0
N435 N 0.16494 0.61165 0.76003 0.0
C436 C 0.15711 0.5958 0.71963 0.0
C437 C 0.13527 0.56552 0.72758 0.0
C438 C 0.13027 0.56226 0.77435 0.0
C439 C 0.14858 0.59076 0.7925 0.0
N440 N 0.18754 0.65202 0.83787 0.0
C441 C 0.17053 0.62659 0.86244 0.0
C442 C 0.17823 0.63056 0.90847 0.0
C443 C 0.20155 0.66036 0.91263 0.0
C444 C 0.20678 0.67289 0.86881 0.0
N445 N 0.14396 0.65154 0.77746 0.0
C446 C 0.08168 0.6282 0.80234 0.0
C447 C 0.08979 0.62121 0.75965 0.0
C448 C 0.12082 0.63326 0.74774 0.0
C449 C 0.10562 0.64948 0.83028 0.0
C450 C 0.13642 0.66117 0.81697 0.0
N451 N 0.22622 0.65956 0.7652 0.0
C452 C 0.26109 0.64314 0.79166 0.0
C453 C 0.28492 0.66483 0.76407 0.0
C454 C 0.27834 0.68371 0.73663 0.0
C455 C 0.24927 0.68127 0.73859 0.0
C456 C 0.232 0.64023 0.79054 0.0
H457 H 0.24555 0.69703 0.71864 0.0
H458 H 0.21427 0.6226 0.81124 0.0
H459 H 0.12592 0.62606 0.71565 0.0
H460 H 0.15414 0.67652 0.84027 0.0
C461 C 0.19867 0.71347 0.70429 0.0
C462 C 0.22884 0.70493 0.85747 0.0
C463 C 0.16886 0.60934 0.67338 0.0
C464 C 0.15176 0.59887 0.83954 0.0
H465 H 0.25186 0.76779 0.8263 0.0
H466 H 0.23005 0.77128 0.74599 0.0
H467 H 0.21044 0.70583 0.61154 0.0
H468 H 0.20431 0.65159 0.59867 0.0
H469 H 0.12372 0.54768 0.70229 0.0
H470 H 0.11477 0.54165 0.79276 0.0
H471 H 0.16901 0.61355 0.93545 0.0
H472 H 0.21339 0.67156 0.94407 0.0
H473 H 0.07219 0.6054 0.73641 0.0
H474 H 0.1006 0.65612 0.86314 0.0
H475 H 0.26479 0.62807 0.81373 0.0
H476 H 0.29572 0.70064 0.71428 0.0
C477 C 0.52558 0.21315 0.0031 0.0
C478 C 0.50044 0.21694 0.00909 0.0
C479 C 0.48099 0.20224 0.97296 0.0
C480 C 0.49528 0.19025 0.94729 0.0
N481 N 0.52239 0.19651 0.96514 0.0
Co482 Co 0.54904 0.1815 0.94189 0.0
N483 N 0.53132 0.17607 0.87961 0.0
C484 C 0.50397 0.17304 0.86917 0.0
C485 C 0.49751 0.16877 0.82289 0.0
C486 C 0.52224 0.16885 0.80324 0.0
C487 C 0.54237 0.17312 0.8389 0.0
N488 N 0.57509 0.16581 0.91857 0.0
C489 C 0.58251 0.16359 0.87448 0.0
C490 C 0.60162 0.15135 0.87306 0.0
C491 C 0.60593 0.14563 0.91812 0.0
C492 C 0.58924 0.15465 0.94453 0.0
N493 N 0.56628 0.18776 0.00491 0.0
C494 C 0.58233 0.17542 0.02209 0.0
C495 C 0.59589 0.18852 0.0635 0.0
C496 C 0.58773 0.21019 0.07249 0.0
C497 C 0.56905 0.20885 0.03648 0.0
N498 N 0.51736 0.13889 0.95759 0.0
C499 C 0.47989 0.07656 0.98167 0.0
C500 C 0.48621 0.0999 0.01357 0.0
C501 C 0.50476 0.13083 0.0008 0.0
C502 C 0.49177 0.08532 0.93711 0.0
C503 C 0.51031 0.11623 0.92592 0.0
N504 N 0.58221 0.22331 0.92606 0.0
C505 C 0.63597 0.26093 0.93366 0.0
C506 C 0.6321 0.28274 0.91035 0.0
C507 C 0.60272 0.27367 0.89254 0.0
C508 C 0.57806 0.24367 0.90048 0.0
C509 C 0.61122 0.23177 0.94071 0.0
H510 H 0.55555 0.23736 0.8877 0.0
H511 H 0.61592 0.21616 0.95875 0.0
H512 H 0.50973 0.14819 0.02636 0.0
H513 H 0.51994 0.12158 0.89178 0.0
C514 C 0.48725 0.17857 0.9025 0.0
C515 C 0.5524 0.22601 0.03334 0.0
C516 C 0.57012 0.1712 0.83385 0.0
C517 C 0.59127 0.15903 0.99279 0.0
H518 H 0.49684 0.22945 0.03622 0.0
H519 H 0.45981 0.20176 0.96514 0.0
H520 H 0.47761 0.16662 0.80535 0.0
H521 H 0.52484 0.1655 0.76703 0.0
H522 H 0.61133 0.147 0.84275 0.0
H523 H 0.62062 0.13725 0.93016 0.0
H524 H 0.61188 0.18465 0.083 0.0
H525 H 0.59509 0.2254 0.10179 0.0
H526 H 0.47748 0.09427 0.04843 0.0
H527 H 0.48756 0.06824 0.9113 0.0
H528 H 0.65821 0.26654 0.94709 0.0
H529 H 0.59872 0.28978 0.87379 0.0
C530 C 0.31266 0.50709 0.14551 0.0
C531 C 0.28237 0.48518 0.13671 0.0
C532 C 0.28232 0.47054 0.09711 0.0
C533 C 0.31225 0.48467 0.08315 0.0
N534 N 0.3311 0.50733 0.11166 0.0
Co535 Co 0.37516 0.53607 0.10161 0.0
N536 N 0.37057 0.52761 0.03477 0.0
C537 C 0.34794 0.50275 0.01416 0.0
C538 C 0.35136 0.50282 0.96724 0.0
C539 C 0.37798 0.52926 0.95787 0.0
C540 C 0.3893 0.54378 -8e-05 0.0
N541 N 0.41929 0.56397 0.09118 0.0
C542 C 0.43407 0.57728 0.05151 0.0
C543 C 0.46519 0.59559 0.05934 0.0
C544 C 0.46977 0.59325 0.10569 0.0
C545 C 0.44126 0.57368 0.12358 0.0
N546 N 0.37869 0.54434 0.16837 0.0
C547 C 0.40462 0.55658 0.1932 0.0
C548 C 0.39964 0.56071 0.23863 0.0
C549 C 0.36872 0.55041 0.24208 0.0
C550 C 0.3565 0.54061 0.19847 0.0
N551 N 0.38467 0.50279 0.11114 0.0
C552 C 0.41044 0.46582 0.13304 0.0
C553 C 0.38881 0.46707 0.16218 0.0
C554 C 0.37602 0.4854 0.15044 0.0
C555 C 0.4173 0.48204 0.09152 0.0
C556 C 0.40433 0.50018 0.0813 0.0
N557 N 0.3677 0.57079 0.09329 0.0
C558 C 0.38626 0.6246 0.105 0.0
C559 C 0.35927 0.62207 0.08771 0.0
C560 C 0.33659 0.593 0.07216 0.0
C561 C 0.34159 0.56792 0.0741 0.0
C562 C 0.38943 0.59891 0.10923 0.0
H563 H 0.32414 0.54618 0.06089 0.0
H564 H 0.40966 0.60215 0.12638 0.0
H565 H 0.36021 0.48659 0.17424 0.0
H566 H 0.41171 0.51346 0.05013 0.0
C567 C 0.32166 0.48277 0.03864 0.0
C568 C 0.32367 0.52654 0.1867 0.0
C569 C 0.41915 0.57112 0.00604 0.0
C570 C 0.43321 0.56902 0.17074 0.0
H571 H 0.26211 0.48041 0.15584 0.0
H572 H 0.26248 0.45335 0.07877 0.0
H573 H 0.33588 0.4862 0.94262 0.0
H574 H 0.38808 0.53668 0.92406 0.0
H575 H 0.48264 0.60905 0.03421 0.0
H576 H 0.49113 0.60549 0.12436 0.0
H577 H 0.4166 0.57132 0.26555 0.0
H578 H 0.35659 0.55031 0.27291 0.0
H579 H 0.38258 0.45475 0.19452 0.0
H580 H 0.43369 0.4817 0.0678 0.0
H581 H 0.40456 0.64634 0.11717 0.0
H582 H 0.31527 0.58975 0.05827 0.0
C583 C 0.81512 0.30522 0.31589 0.0
C584 C 0.80304 0.27435 0.30697 0.0
C585 C 0.81478 0.27222 0.26563 0.0
C586 C 0.83271 0.30163 0.25086 0.0
N587 N 0.83326 0.32217 0.28079 0.0
Co588 Co 0.85285 0.36663 0.27076 0.0
N589 N 0.85359 0.36168 0.20323 0.0
C590 C 0.84642 0.33578 0.18059 0.0
C591 C 0.83725 0.33578 0.13611 0.0
C592 C 0.83957 0.36357 0.13029 0.0
C593 C 0.85206 0.37989 0.1707 0.0
N594 N 0.87336 0.41121 0.26034 0.0
C595 C 0.88119 0.42706 0.21992 0.0
C596 C 0.90305 0.45734 0.22784 0.0
C597 C 0.90806 0.4606 0.27461 0.0
C598 C 0.88974 0.43211 0.29278 0.0
N599 N 0.85079 0.37085 0.33821 0.0
C600 C 0.86782 0.39628 0.36276 0.0
C601 C 0.86013 0.39232 0.4088 0.0
C602 C 0.83681 0.36252 0.41298 0.0
C603 C 0.83157 0.34998 0.36917 0.0
N604 N 0.89435 0.37133 0.27774 0.0
C605 C 0.95665 0.39468 0.30252 0.0
C606 C 0.93273 0.37343 0.33052 0.0
C607 C 0.90192 0.36173 0.31725 0.0
C608 C 0.94851 0.40163 0.25981 0.0
C609 C 0.91747 0.38958 0.24796 0.0
N610 N 0.81208 0.3633 0.26559 0.0
C611 C 0.77721 0.37972 0.29209 0.0
C612 C 0.75337 0.35803 0.26454 0.0
C613 C 0.75995 0.33914 0.23709 0.0
C614 C 0.78902 0.34159 0.23901 0.0
C615 C 0.80631 0.38263 0.29093 0.0
H616 H 0.79272 0.32583 0.21906 0.0
H617 H 0.82405 0.40027 0.31161 0.0
H618 H 0.88421 0.34639 0.3406 0.0
H619 H 0.91235 0.39676 0.21586 0.0
C620 C 0.83959 0.30939 0.20465 0.0
C621 C 0.8095 0.31794 0.35787 0.0
C622 C 0.86941 0.41351 0.17369 0.0
C623 C 0.88657 0.424 0.33983 0.0
H624 H 0.78649 0.25508 0.32675 0.0
H625 H 0.80825 0.25158 0.24641 0.0
H626 H 0.82776 0.31702 0.11192 0.0
H627 H 0.8339 0.37126 0.09904 0.0
H628 H 0.9146 0.47517 0.20253 0.0
H629 H 0.92358 0.48121 0.29299 0.0
H630 H 0.86936 0.40934 0.43576 0.0
H631 H 0.82499 0.35133 0.44444 0.0
H632 H 0.93777 0.36682 0.36339 0.0
H633 H 0.96609 0.41742 0.23652 0.0
H634 H 0.77353 0.39479 0.31417 0.0
H635 H 0.74256 0.32221 0.21476 0.0
C636 C 0.33514 0.66856 0.36264 0.0
C637 C 0.32046 0.65349 0.40449 0.0
C638 C 0.36631 0.69109 0.44723 0.0
C639 C 0.37914 0.70824 0.40624 0.0
N640 N 0.37397 0.71465 0.32513 0.0
N641 N 0.32051 0.65436 0.4877 0.0
C642 C 0.36315 0.69717 0.36393 0.0
C643 C 0.33578 0.66571 0.44708 0.0
N644 N 0.3227 0.6552 0.32136 0.0
N645 N 0.38354 0.69898 0.48652 0.0
H646 H 0.29782 0.63679 0.48933 0.0
H647 H 0.32924 0.66438 0.51961 0.0
H648 H 0.40587 0.71732 0.48787 0.0
H649 H 0.37689 0.68567 0.51624 0.0
H650 H 0.33392 0.66293 0.2899 0.0
H651 H 0.30204 0.63488 0.31888 0.0
H652 H 0.36155 0.70996 0.29459 0.0
H653 H 0.3947 0.73506 0.32436 0.0
C654 C 0.69471 0.33765 0.54515 0.0
C655 C 0.68501 0.31742 0.58331 0.0
C656 C 0.67799 0.35499 0.62754 0.0
C657 C 0.68288 0.37288 0.58687 0.0
N658 N 0.68974 0.37642 0.50409 0.0
N659 N 0.66437 0.30576 0.66025 0.0
C660 C 0.6898 0.36301 0.54491 0.0
C661 C 0.67602 0.32592 0.62447 0.0
N662 N 0.70939 0.33299 0.50939 0.0
N663 N 0.67586 0.36592 0.66957 0.0
H664 H 0.66334 0.28476 0.65997 0.0
H665 H 0.65375 0.30891 0.68879 0.0
H666 H 0.6765 0.38654 0.67385 0.0
H667 H 0.67612 0.35578 0.70066 0.0
H668 H 0.71934 0.34829 0.48219 0.0
H669 H 0.71482 0.31571 0.51027 0.0
H670 H 0.69169 0.36809 0.4722 0.0
H671 H 0.68436 0.39366 0.50156 0.0
C672 C 0.31802 0.63999 0.75951 0.0
C673 C 0.31603 0.66687 0.76354 0.0
C674 C 0.37266 0.69666 0.76148 0.0
C675 C 0.37426 0.66944 0.76301 0.0
N676 N 0.34689 0.61572 0.78079 0.0
N677 N 0.34313 0.72057 0.78227 0.0
C678 C 0.3464 0.64132 0.7678 0.0
C679 C 0.34386 0.69521 0.7687 0.0
N680 N 0.29343 0.61335 0.74499 0.0
N681 N 0.39804 0.72378 0.75104 0.0
H682 H 0.3229 0.72021 0.7906 0.0
H683 H 0.36285 0.741 0.79032 0.0
H684 H 0.41919 0.72585 0.74401 0.0
H685 H 0.39724 0.74361 0.74508 0.0
H686 H 0.29478 0.59389 0.73827 0.0
H687 H 0.27303 0.6118 0.73406 0.0
H688 H 0.32699 0.59519 0.78785 0.0
H689 H 0.3671 0.61612 0.78971 0.0
C690 C 0.70308 0.35457 0.86312 0.0
C691 C 0.71791 0.36947 0.90497 0.0
C692 C 0.67225 0.33167 0.94783 0.0
C693 C 0.65929 0.31466 0.90676 0.0
N694 N 0.66424 0.30858 0.82546 0.0
N695 N 0.71817 0.36828 0.98816 0.0
C696 C 0.67513 0.32591 0.86438 0.0
C697 C 0.70277 0.35707 0.9476 0.0
N698 N 0.71532 0.36817 0.82187 0.0
N699 N 0.65514 0.32363 0.98726 0.0
H700 H 0.74084 0.38589 0.9897 0.0
H701 H 0.70956 0.35812 0.02004 0.0
H702 H 0.63282 0.30529 0.98867 0.0
H703 H 0.6619 0.33684 0.01709 0.0
H704 H 0.70398 0.36054 0.79048 0.0
H705 H 0.73587 0.3886 0.81947 0.0
H706 H 0.67656 0.31344 0.79481 0.0
H707 H 0.64357 0.28809 0.82469 0.0
C708 C 0.34358 0.68517 0.04481 0.0
C709 C 0.35334 0.70544 0.08291 0.0
C710 C 0.36045 0.66792 0.12716 0.0
C711 C 0.35549 0.64998 0.08653 0.0
N712 N 0.34846 0.64634 0.00379 0.0
N713 N 0.37413 0.71719 0.15976 0.0
C714 C 0.34848 0.6598 0.04458 0.0
C715 C 0.36241 0.69698 0.12405 0.0
N716 N 0.32884 0.6898 0.00909 0.0
N717 N 0.36267 0.65705 0.16919 0.0
H718 H 0.37516 0.73819 0.15944 0.0
H719 H 0.38481 0.71407 0.18825 0.0
H720 H 0.36204 0.63643 0.1735 0.0
H721 H 0.36246 0.66722 0.20027 0.0
H722 H 0.31885 0.67447 0.98194 0.0
H723 H 0.32344 0.70708 0.00995 0.0
H724 H 0.34646 0.65463 0.97189 0.0
H725 H 0.35384 0.62909 0.00126 0.0
C726 C 0.72026 0.38286 0.26005 0.0
C727 C 0.72226 0.35598 0.26405 0.0
C728 C 0.66563 0.32617 0.26199 0.0
C729 C 0.66402 0.35339 0.26355 0.0
N730 N 0.69138 0.40709 0.2814 0.0
N731 N 0.69517 0.30227 0.28275 0.0
C732 C 0.69188 0.38152 0.26837 0.0
C733 C 0.69443 0.32764 0.2692 0.0
N734 N 0.74485 0.40951 0.24554 0.0
N735 N 0.64026 0.29906 0.25154 0.0
H736 H 0.7154 0.30263 0.29108 0.0
H737 H 0.67545 0.28183 0.2908 0.0
H738 H 0.6191 0.29699 0.24452 0.0
H739 H 0.64107 0.27924 0.24556 0.0
H740 H 0.74348 0.42897 0.23886 0.0
H741 H 0.76524 0.41108 0.23458 0.0
H742 H 0.71127 0.42762 0.28847 0.0
H743 H 0.67116 0.40669 0.29032 0.0
C744 C 0.16054 0.56412 0.62189 0.0
C745 C 0.1588 0.59088 0.62897 0.0
C746 C 0.1597 0.59739 0.54572 0.0
C747 C 0.16024 0.57 0.5385 0.0
N748 N 0.1418 0.5201 0.57226 0.0
N749 N 0.13749 0.61972 0.59472 0.0
C750 C 0.15334 0.55057 0.57747 0.0
C751 C 0.15098 0.60246 0.58983 0.0
N752 N 0.17192 0.55324 0.65461 0.0
N753 N 0.17052 0.62003 0.51365 0.0
H754 H 0.13044 0.62312 0.62693 0.0
H755 H 0.13129 0.62803 0.56626 0.0
H756 H 0.1716 0.64078 0.52005 0.0
H757 H 0.1815 0.6194 0.48361 0.0
H758 H 0.17478 0.53458 0.64834 0.0
H759 H 0.18155 0.56477 0.68528 0.0
H760 H 0.13615 0.50553 0.60055 0.0
H761 H 0.13561 0.50972 0.5399 0.0
C762 C 0.58011 0.14344 0.71642 0.0
C763 C 0.59698 0.17166 0.69303 0.0
C764 C 0.59826 0.19917 0.76289 0.0
C765 C 0.581 0.17104 0.78623 0.0
N766 N 0.54969 0.1163 0.7831 0.0
N767 N 0.61557 0.22534 0.68951 0.0
C768 C 0.57013 0.14308 0.76233 0.0
C769 C 0.60382 0.19921 0.71492 0.0
N770 N 0.575 0.11718 0.69551 0.0
N771 N 0.61021 0.22584 0.78698 0.0
H772 H 0.61985 0.2258 0.65421 0.0
H773 H 0.61807 0.24564 0.70221 0.0
H774 H 0.6068 0.22667 0.8223 0.0
H775 H 0.62563 0.24688 0.77278 0.0
H776 H 0.56652 0.0965 0.71272 0.0
H777 H 0.58076 0.11641 0.66123 0.0
H778 H 0.53829 0.0956 0.76572 0.0
H779 H 0.54239 0.11504 0.81707 0.0
C780 C 0.42684 0.60695 0.94219 0.0
C781 C 0.43561 0.58737 0.96341 0.0
C782 C 0.46333 0.58817 0.89359 0.0
C783 C 0.45172 0.60501 0.8708 0.0
N784 N 0.41974 0.62763 0.87079 0.0
N785 N 0.45889 0.556 0.95819 0.0
C786 C 0.43274 0.61369 0.89445 0.0
C787 C 0.45324 0.57729 0.93898 0.0
N788 N 0.41284 0.61901 0.96798 0.0
N789 N 0.48458 0.58322 0.87228 0.0
H790 H 0.45258 0.54799 0.99178 0.0
H791 H 0.46805 0.5448 0.93989 0.0
H792 H 0.49172 0.58979 0.8384 0.0
H793 H 0.49667 0.57445 0.88915 0.0
H794 H 0.40805 0.63546 0.95585 0.0
H795 H 0.40841 0.61445 0.00312 0.0
H796 H 0.40346 0.63212 0.88479 0.0
H797 H 0.42331 0.63239 0.83561 0.0
C798 C 0.88725 0.42036 0.09011 0.0
C799 C 0.87947 0.43197 0.12926 0.0
C800 C 0.88499 0.47231 0.07776 0.0
C801 C 0.87806 0.45288 0.03878 0.0
N802 N 0.86769 0.40283 0.01394 0.0
N803 N 0.86642 0.46965 0.15489 0.0
C804 C 0.87855 0.42546 0.04601 0.0
C805 C 0.87777 0.45875 0.12217 0.0
N806 N 0.90072 0.40308 0.09498 0.0
N807 N 0.89658 0.50279 0.07254 0.0
H808 H 0.85678 0.45812 0.18557 0.0
H809 H 0.8636 0.48834 0.14863 0.0
H810 H 0.90279 0.51317 0.04018 0.0
H811 H 0.90225 0.51736 0.10083 0.0
H812 H 0.90689 0.39476 0.06651 0.0
H813 H 0.90777 0.39967 0.12719 0.0
H814 H 0.86657 0.38206 0.02035 0.0
H815 H 0.85673 0.40348 0.9839 0.0
C816 C 0.45812 0.87948 0.21608 0.0
C817 C 0.44132 0.85125 0.1927 0.0
C818 C 0.44006 0.82378 0.26259 0.0
C819 C 0.45724 0.85191 0.28594 0.0
N820 N 0.48843 0.90666 0.28281 0.0
N821 N 0.42286 0.7976 0.18921 0.0
C822 C 0.46807 0.87986 0.26202 0.0
C823 C 0.43453 0.82373 0.21461 0.0
N824 N 0.4632 0.90572 0.19512 0.0
N825 N 0.42814 0.79711 0.28668 0.0
H826 H 0.4186 0.79713 0.15389 0.0
H827 H 0.42039 0.77732 0.20193 0.0
H828 H 0.43152 0.79629 0.32202 0.0
H829 H 0.41278 0.77607 0.27247 0.0
H830 H 0.47162 0.9264 0.21232 0.0
H831 H 0.45748 0.90647 0.16082 0.0
H832 H 0.49981 0.92737 0.26543 0.0
H833 H 0.4957 0.90793 0.3168 0.0
C834 C 0.60547 0.40907 0.39481 0.0
C835 C 0.5865 0.41777 0.37116 0.0
C836 C 0.58501 0.4455 0.43935 0.0
C837 C 0.60265 0.43541 0.46376 0.0
N838 N 0.62537 0.40373 0.46833 0.0
N839 N 0.55366 0.43958 0.37267 0.0
C840 C 0.61139 0.4158 0.44254 0.0
C841 C 0.57491 0.43462 0.39397 0.0
N842 N 0.61846 0.39512 0.37114 0.0
N843 N 0.57938 0.46679 0.45856 0.0
H844 H 0.54651 0.43301 0.3388 0.0
H845 H 0.54158 0.44836 0.38955 0.0
H846 H 0.58569 0.47479 0.49216 0.0
H847 H 0.57021 0.47799 0.44028 0.0
H848 H 0.63473 0.39061 0.38514 0.0
H849 H 0.61488 0.39037 0.33596 0.0
H850 H 0.63015 0.38727 0.4562 0.0
H851 H 0.62981 0.40829 0.50346 0.0
C852 C 1.00526 0.44254 0.32889 0.0
C853 C 0.9898 0.41081 0.31871 0.0
C854 C 0.03632 0.40968 0.34297 0.0
C855 C 0.05262 0.44187 0.3489 0.0
N856 N 0.0537 0.48953 0.33869 0.0
N857 N 0.99263 0.36517 0.30933 0.0
C858 C 0.03733 0.45842 0.33941 0.0
C859 C 1.00593 0.39467 0.32399 0.0
N860 N 0.98904 0.45745 0.33029 0.0
N861 N 0.04947 0.39319 0.35698 0.0
H862 H 0.9707 0.35356 0.2952 0.0
H863 H 1.00422 0.35309 0.30743 0.0
H864 H 0.07141 0.40324 0.37105 0.0
H865 H 0.03775 0.36951 0.35842 0.0
H866 H 0.99811 0.47963 0.34239 0.0
H867 H 0.96563 0.44676 0.32356 0.0
H868 H 0.04476 0.50287 0.32708 0.0
H869 H 0.07711 0.50204 0.34552 0.0
C870 C 0.60784 0.99519 0.50315 0.0
C871 C 0.57575 0.9798 0.49466 0.0
C872 C 0.57717 0.02908 0.50117 0.0
C873 C 0.60861 0.04399 0.51394 0.0
N874 N 0.65269 0.03993 0.53388 0.0
N875 N 0.52896 0.98156 0.49448 0.0
C876 C 0.62362 0.02664 0.51673 0.0
C877 C 0.56021 0.99667 0.49617 0.0
N878 N 0.62353 0.98007 0.49666 0.0
N879 N 0.56365 0.04606 0.49219 0.0
H880 H 0.51568 0.95794 0.49166 0.0
H881 H 0.51609 0.99206 0.50038 0.0
H882 H 0.57527 0.06974 0.49472 0.0
H883 H 0.54188 0.03702 0.47795 0.0
H884 H 0.64731 0.99072 0.4972 0.0
H885 H 0.61289 0.95723 0.48698 0.0
H886 H 0.66373 0.02784 0.54172 0.0
H887 H 0.66494 0.06273 0.54383 0.0
C888 C 0.60966 0.62081 0.66242 0.0
C889 C 0.57725 0.60386 0.66747 0.0
C890 C 0.57896 0.55643 0.65608 0.0
C891 C 0.6109 0.57347 0.64662 0.0
N892 N 0.65578 0.62243 0.634 0.0
N893 N 0.53056 0.55563 0.66019 0.0
C894 C 0.626 0.60585 0.648 0.0
C895 C 0.56181 0.57167 0.66179 0.0
N896 N 0.62504 0.65111 0.673 0.0
N897 N 0.56505 0.52556 0.66134 0.0
H898 H 0.51719 0.56587 0.66344 0.0
H899 H 0.51799 0.53271 0.65119 0.0
H900 H 0.5427 0.5122 0.67313 0.0
H901 H 0.57675 0.51358 0.6583 0.0
H902 H 0.64879 0.66409 0.67508 0.0
H903 H 0.614 0.66279 0.68347 0.0
H904 H 0.66715 0.64592 0.62923 0.0
H905 H 0.66842 0.61241 0.62344 0.0
C906 C 0.03313 0.58038 0.82898 0.0
C907 C 0.04855 0.61208 0.8186 0.0
C908 C 1.00201 0.61321 0.84278 0.0
C909 C 0.98574 0.58103 0.8489 0.0
N910 N 0.98472 0.53338 0.839 0.0
N911 N 0.04565 0.65766 0.8089 0.0
C912 C 1.00107 0.56449 0.83955 0.0
C913 C 0.03238 0.6282 0.82374 0.0
N914 N 0.04938 0.56551 0.8305 0.0
N915 N 0.98884 0.6297 0.85667 0.0
H916 H 0.06757 0.66926 0.79475 0.0
H917 H 0.03403 0.66972 0.80689 0.0
H918 H 0.96692 0.61966 0.87079 0.0
H919 H 1.00053 0.65338 0.85796 0.0
H920 H 0.04034 0.54335 0.84275 0.0
H921 H 0.07278 0.5762 0.82371 0.0
H922 H 0.99369 0.52003 0.8275 0.0
H923 H 0.96132 0.52085 0.84585 0.0
C924 C 0.43049 0.02778 0.00389 0.0
C925 C 0.4625 0.04308 0.99472 0.0
C926 C 0.46091 0.99367 0.00037 0.0
C927 C 0.42959 0.97886 0.01379 0.0
N928 N 0.3858 0.98307 0.03508 0.0
N929 N 0.50917 0.04109 0.99318 0.0
C930 C 0.41473 0.9963 0.01735 0.0
C931 C 0.47794 0.02609 0.99546 0.0
N932 N 0.41484 0.04301 0.99813 0.0
N933 N 0.47424 0.97661 0.99075 0.0
H934 H 0.52251 0.06472 0.9905 0.0
H935 H 0.522 0.03049 -0.00152 0.0
H936 H 0.46257 0.95292 0.9933 0.0
H937 H 0.49586 0.98558 0.97602 0.0
H938 H 0.39108 0.03244 -0.00078 0.0
H939 H 0.42546 0.06586 0.98848 0.0
H940 H 0.37492 0.99522 0.04351 0.0
H941 H 0.37355 0.96024 0.04488 0.0
C942 C 0.4594 0.46643 0.15601 0.0
C943 C 0.42746 0.44939 0.14655 0.0
C944 C 0.4287 0.40205 0.16249 0.0
C945 C 0.4611 0.41901 0.16753 0.0
N946 N 0.5078 0.46722 0.16021 0.0
N947 N 0.38258 0.40043 0.13401 0.0
C948 C 0.47654 0.45119 0.16179 0.0
C949 C 0.41235 0.41701 0.14801 0.0
N950 N 0.47331 0.49731 0.1612 0.0
N951 N 0.41331 0.37176 0.17311 0.0
H952 H 0.36994 0.41045 0.12341 0.0
H953 H 0.3712 0.37694 0.12929 0.0
H954 H 0.42435 0.36008 0.18361 0.0
H955 H 0.38956 0.35878 0.17519 0.0
H956 H 0.49567 0.51067 0.17299 0.0
H957 H 0.46162 0.50929 0.1581 0.0
H958 H 0.52036 0.49014 0.15116 0.0
H959 H 0.52117 0.45699 0.16352 0.0
C960 C 0.27797 0.55522 0.2551 0.0
C961 C 0.25326 0.52731 0.27139 0.0
C962 C 0.27788 0.50052 0.2395 0.0
C963 C 0.30095 0.52767 0.21891 0.0
N964 N 0.31806 0.57968 0.19802 0.0
N965 N 0.22452 0.47287 0.26101 0.0
C966 C 0.29959 0.55475 0.22399 0.0
C967 C 0.25141 0.49975 0.25724 0.0
N968 N 0.28158 0.58223 0.27023 0.0
N969 N 0.28117 0.4755 0.24232 0.0
H970 H 0.20447 0.47185 0.27266 0.0
H971 H 0.22177 0.45241 0.24836 0.0
H972 H 0.30081 0.47565 0.23075 0.0
H973 H 0.26563 0.45584 0.25995 0.0
H974 H 0.30077 0.60303 0.26203 0.0
H975 H 0.26663 0.58368 0.29348 0.0
H976 H 0.31451 0.59814 0.1954 0.0
H977 H 0.3347 0.5805 0.17588 0.0
C978 C 0.78867 0.27278 0.41081 0.0
C979 C 0.78579 0.29684 0.39174 0.0
C980 C 0.73486 0.27497 0.42763 0.0
C981 C 0.73689 0.24917 0.44175 0.0
N982 N 0.7608 0.21908 0.42761 0.0
N983 N 0.75431 0.31914 0.3771 0.0
C984 C 0.76224 0.24665 0.42716 0.0
C985 C 0.75825 0.29746 0.39869 0.0
N986 N 0.8165 0.27453 0.41234 0.0
N987 N 0.71094 0.27818 0.44218 0.0
H988 H 0.77144 0.33636 0.35733 0.0
H989 H 0.73369 0.31907 0.37639 0.0
H990 H 0.69406 0.26282 0.4644 0.0
H991 H 0.70867 0.29694 0.43442 0.0
H992 H 0.81978 0.25809 0.42868 0.0
H993 H 0.83651 0.29376 0.40116 0.0
H994 H 0.77815 0.21594 0.41408 0.0
H995 H 0.74101 0.19908 0.43722 0.0
C996 C 0.4771 0.74196 0.63129 0.0
C997 C 0.48102 0.71996 0.60632 0.0
C998 C 0.47693 0.74334 0.53532 0.0
C999 C 0.47913 0.76863 0.55989 0.0
N1000 N 0.49168 0.79508 0.63297 0.0
N1001 N 0.49633 0.70872 0.53335 0.0
C1002 C 0.48176 0.76881 0.60857 0.0
C1003 C 0.48393 0.72284 0.55782 0.0
N1004 N 0.46989 0.73779 0.67694 0.0
N1005 N 0.46919 0.73946 0.48999 0.0
H1006 H 0.50515 0.69629 0.54907 0.0
H1007 H 0.50106 0.71248 0.49818 0.0
H1008 H 0.46263 0.75348 0.47386 0.0
H1009 H 0.46572 0.72047 0.47117 0.0
H1010 H 0.46524 0.75247 0.69583 0.0
H1011 H 0.46555 0.71805 0.69411 0.0
H1012 H 0.49647 0.79659 0.66816 0.0
H1013 H 0.49851 0.81597 0.61721 0.0
C1014 C 0.78696 0.52311 0.75741 0.0
C1015 C 0.78519 0.49555 0.77136 0.0
C1016 C 0.73899 0.46818 0.72366 0.0
C1017 C 0.73748 0.49519 0.71893 0.0
N1018 N 0.75711 0.54728 0.74265 0.0
N1019 N 0.75719 0.44062 0.76939 0.0
C1020 C 0.76049 0.52231 0.73968 0.0
C1021 C 0.76063 0.46766 0.7547 0.0
N1022 N 0.81381 0.55002 0.76135 0.0
N1023 N 0.72065 0.44335 0.69743 0.0
H1024 H 0.77212 0.43914 0.79262 0.0
H1025 H 0.73817 0.4198 0.7608 0.0
H1026 H 0.70395 0.44254 0.67543 0.0
H1027 H 0.72433 0.42499 0.69445 0.0
H1028 H 0.81652 0.57049 0.74885 0.0
H1029 H 0.83387 0.55106 0.77298 0.0
H1030 H 0.77259 0.56691 0.76041 0.0
H1031 H 0.73747 0.54712 0.73107 0.0
C1032 C 0.27609 0.77623 0.92674 0.0
C1033 C 0.30144 0.7737 0.94135 0.0
C1034 C 0.28009 0.72542 0.8983 0.0
C1035 C 0.25255 0.72604 0.89133 0.0
N1036 N 0.22183 0.74834 0.9119 0.0
N1037 N 0.32738 0.74469 0.94183 0.0
C1038 C 0.24967 0.7501 0.91038 0.0
C1039 C 0.30347 0.74791 0.92725 0.0
N1040 N 0.27752 0.80379 0.92719 0.0
N1041 N 0.28404 0.70375 0.87671 0.0
H1042 H 0.34426 0.76005 0.96404 0.0
H1043 H 0.32964 0.72592 0.9341 0.0
H1044 H 0.26693 0.68654 0.85693 0.0
H1045 H 0.30466 0.70383 0.87602 0.0
H1046 H 0.26018 0.80693 0.91365 0.0
H1047 H 0.2973 0.82379 0.9368 0.0
H1048 H 0.21855 0.76478 0.92823 0.0
H1049 H 0.20183 0.72911 0.90072 0.0
C1050 C 0.55459 0.30007 0.05828 0.0
C1051 C 0.55741 0.30291 0.10679 0.0
C1052 C 0.55664 0.25404 0.10907 0.0
C1053 C 0.55935 0.25426 0.0604 0.0
N1054 N 0.5695 0.28352 0.99056 0.0
N1055 N 0.5684 0.28501 0.17747 0.0
C1056 C 0.56164 0.27959 0.03584 0.0
C1057 C 0.56128 0.28088 0.13179 0.0
N1058 N 0.54224 0.31421 0.03374 0.0
N1059 N 0.5467 0.22776 0.13345 0.0
H1060 H 0.57271 0.30474 0.19464 0.0
H1061 H 0.57301 0.27031 0.19639 0.0
H1062 H 0.53992 0.20689 0.11767 0.0
H1063 H 0.54186 0.22621 0.16863 0.0
H1064 H 0.5376 0.31048 -0.00145 0.0
H1065 H 0.53338 0.32662 0.0494 0.0
H1066 H 0.57302 0.30253 0.97174 0.0
H1067 H 0.57611 0.26953 0.9745 0.0
loop_
_geom_bond_atom_site_label_1
_geom_bond_atom_site_label_2
_geom_bond_distance
_geom_bond_site_symmetry_2
_ccdc_geom_bond_type
C0 C1 1.443 . S
C0 N4 1.376 . S
C0 C38 1.389 . S
C1 C0 1.443 . S
C1 C2 1.340 . S
C1 H41 0.951 . S
C2 C1 1.340 . S
C2 C3 1.439 . S
C2 H42 0.950 . S
C3 C2 1.439 . S
C3 N4 1.374 . S
C3 C37 1.395 . S
N4 C0 1.376 . S
N4 C3 1.374 . S
N4 Co5 2.008 . S
Co5 N4 2.008 . S
Co5 N6 1.995 . S
Co5 N11 2.008 . S
Co5 N16 1.995 . S
Co5 N21 2.282 . S
Co5 N27 2.282 . S
N6 Co5 1.995 . S
N6 C7 1.376 . S
N6 C10 1.383 . S
C7 N6 1.376 . S
C7 C8 1.446 . S
C7 C37 1.391 . S
C8 C7 1.446 . S
C8 C9 1.339 . S
C8 H43 0.949 . S
C9 C8 1.339 . S
C9 C10 1.439 . S
C9 H44 0.950 . S
C10 N6 1.383 . S
C10 C9 1.439 . S
C10 C39 1.392 . S
N11 Co5 2.008 . S
N11 C12 1.376 . S
N11 C15 1.374 . S
C12 N11 1.376 . S
C12 C13 1.443 . S
C12 C39 1.389 . S
C13 C12 1.443 . S
C13 C14 1.340 . S
C13 H45 0.951 . S
C14 C13 1.340 . S
C14 C15 1.439 . S
C14 H46 0.950 . S
C15 N11 1.374 . S
C15 C14 1.439 . S
C15 C40 1.395 . S
N16 Co5 1.995 . S
N16 C17 1.376 . S
N16 C20 1.383 . S
C17 N16 1.376 . S
C17 C18 1.446 . S
C17 C40 1.391 . S
C18 C17 1.446 . S
C18 C19 1.339 . S
C18 H47 0.949 . S
C19 C18 1.339 . S
C19 C20 1.439 . S
C19 H48 0.950 . S
C20 N16 1.383 . S
C20 C19 1.439 . S
C20 C38 1.392 . S
N21 Co5 2.282 . S
N21 C24 1.332 . S
N21 C26 1.332 . S
C22 C23 1.386 . S
C22 C25 1.388 . S
C23 C22 1.386 . S
C23 C24 1.382 . S
C23 H49 0.950 . S
C24 N21 1.332 . S
C24 C23 1.382 . S
C24 H35 0.952 . S
C25 C22 1.388 . S
C25 C26 1.382 . S
C25 H50 0.950 . S
C26 N21 1.332 . S
C26 C25 1.382 . S
C26 H36 0.948 . S
N27 Co5 2.282 . S
N27 C31 1.332 . S
N27 C32 1.332 . S
C28 C29 1.388 . S
C28 C32 1.382 . S
C28 H51 0.950 . S
C29 C28 1.388 . S
C29 C30 1.386 . S
C30 C29 1.386 . S
C30 C31 1.382 . S
C30 H52 0.950 . S
C31 N27 1.332 . S
C31 C30 1.382 . S
C31 H33 0.952 . S
C32 N27 1.332 . S
C32 C28 1.382 . S
C32 H34 0.948 . S
H33 C31 0.952 . S
H34 C32 0.948 . S
H35 C24 0.952 . S
H36 C26 0.948 . S
C37 C3 1.395 . S
C37 C7 1.391 . S
C38 C0 1.389 . S
C38 C20 1.392 . S
C39 C10 1.392 . S
C39 C12 1.389 . S
C40 C15 1.395 . S
C40 C17 1.391 . S
H41 C1 0.951 . S
H42 C2 0.950 . S
H43 C8 0.949 . S
H44 C9 0.950 . S
H45 C13 0.951 . S
H46 C14 0.950 . S
H47 C18 0.949 . S
H48 C19 0.950 . S
H49 C23 0.950 . S
H50 C25 0.950 . S
H51 C28 0.950 . S
H52 C30 0.950 . S
C53 C54 1.443 . S
C53 N57 1.376 . S
C53 C91 1.389 . S
C54 C53 1.443 . S
C54 C55 1.340 . S
C54 H94 0.951 . S
C55 C54 1.340 . S
C55 C56 1.439 . S
C55 H95 0.950 . S
C56 C55 1.439 . S
C56 N57 1.374 . S
C56 C90 1.395 . S
N57 C53 1.376 . S
N57 C56 1.374 . S
N57 Co58 2.008 . S
Co58 N57 2.008 . S
Co58 N59 1.995 . S
Co58 N64 2.008 . S
Co58 N69 1.995 . S
Co58 N74 2.282 . S
Co58 N80 2.282 . S
N59 Co58 1.995 . S
N59 C60 1.376 . S
N59 C63 1.383 . S
C60 N59 1.376 . S
C60 C61 1.446 . S
C60 C90 1.391 . S
C61 C60 1.446 . S
C61 C62 1.339 . S
C61 H96 0.949 . S
C62 C61 1.339 . S
C62 C63 1.439 . S
C62 H97 0.950 . S
C63 N59 1.383 . S
C63 C62 1.439 . S
C63 C92 1.392 . S
N64 Co58 2.008 . S
N64 C65 1.376 . S
N64 C68 1.374 . S
C65 N64 1.376 . S
C65 C66 1.443 . S
C65 C92 1.389 . S
C66 C65 1.443 . S
C66 C67 1.340 . S
C66 H98 0.951 . S
C67 C66 1.340 . S
C67 C68 1.439 . S
C67 H99 0.950 . S
C68 N64 1.374 . S
C68 C67 1.439 . S
C68 C93 1.395 . S
N69 Co58 1.995 . S
N69 C70 1.376 . S
N69 C73 1.383 . S
C70 N69 1.376 . S
C70 C71 1.446 . S
C70 C93 1.391 . S
C71 C70 1.446 . S
C71 C72 1.339 . S
C71 H100 0.949 . S
C72 C71 1.339 . S
C72 C73 1.439 . S
C72 H101 0.950 . S
C73 N69 1.383 . S
C73 C72 1.439 . S
C73 C91 1.392 . S
N74 Co58 2.282 . S
N74 C77 1.332 . S
N74 C79 1.332 . S
C75 C76 1.386 . S
C75 C78 1.388 . S
C76 C75 1.386 . S
C76 C77 1.382 . S
C76 H102 0.950 . S
C77 N74 1.332 . S
C77 C76 1.382 . S
C77 H88 0.952 . S
C78 C75 1.388 . S
C78 C79 1.382 . S
C78 H103 0.950 . S
C79 N74 1.332 . S
C79 C78 1.382 . S
C79 H89 0.948 . S
N80 Co58 2.282 . S
N80 C84 1.332 . S
N80 C85 1.332 . S
C81 C82 1.388 . S
C81 C85 1.382 . S
C81 H104 0.950 . S
C82 C81 1.388 . S
C82 C83 1.386 . S
C83 C82 1.386 . S
C83 C84 1.382 . S
C83 H105 0.950 . S
C84 N80 1.332 . S
C84 C83 1.382 . S
C84 H86 0.952 . S
C85 N80 1.332 . S
C85 C81 1.382 . S
C85 H87 0.948 . S
H86 C84 0.952 . S
H87 C85 0.948 . S
H88 C77 0.952 . S
H89 C79 0.948 . S
C90 C56 1.395 . S
C90 C60 1.391 . S
C91 C53 1.389 . S
C91 C73 1.392 . S
C92 C63 1.392 . S
C92 C65 1.389 . S
C93 C68 1.395 . S
C93 C70 1.391 . S
H94 C54 0.951 . S
H95 C55 0.950 . S
H96 C61 0.949 . S
H97 C62 0.950 . S
H98 C66 0.951 . S
H99 C67 0.950 . S
H100 C71 0.949 . S
H101 C72 0.950 . S
H102 C76 0.950 . S
H103 C78 0.950 . S
H104 C81 0.950 . S
H105 C83 0.950 . S
C106 C107 1.443 . S
C106 N110 1.376 . S
C106 C144 1.389 . S
C107 C106 1.443 . S
C107 C108 1.340 . S
C107 H147 0.951 . S
C108 C107 1.340 . S
C108 C109 1.439 . S
C108 H148 0.950 . S
C109 C108 1.439 . S
C109 N110 1.374 . S
C109 C143 1.395 . S
N110 C106 1.376 . S
N110 C109 1.374 . S
N110 Co111 2.008 . S
Co111 N110 2.008 . S
Co111 N112 1.995 . S
Co111 N117 2.008 . S
Co111 N122 1.995 . S
Co111 N127 2.282 . S
Co111 N133 2.282 . S
N112 Co111 1.995 . S
N112 C113 1.376 . S
N112 C116 1.383 . S
C113 N112 1.376 . S
C113 C114 1.446 . S
C113 C143 1.391 . S
C114 C113 1.446 . S
C114 C115 1.339 . S
C114 H149 0.949 . S
C115 C114 1.339 . S
C115 C116 1.439 . S
C115 H150 0.950 . S
C116 N112 1.383 . S
C116 C115 1.439 . S
C116 C145 1.392 . S
N117 Co111 2.008 . S
N117 C118 1.376 . S
N117 C121 1.374 . S
C118 N117 1.376 . S
C118 C119 1.443 . S
C118 C145 1.389 . S
C119 C118 1.443 . S
C119 C120 1.340 . S
C119 H151 0.951 . S
C120 C119 1.340 . S
C120 C121 1.439 . S
C120 H152 0.950 . S
C121 N117 1.374 . S
C121 C120 1.439 . S
C121 C146 1.395 . S
N122 Co111 1.995 . S
N122 C123 1.376 . S
N122 C126 1.383 . S
C123 N122 1.376 . S
C123 C124 1.446 . S
C123 C146 1.391 . S
C124 C123 1.446 . S
C124 C125 1.339 . S
C124 H153 0.949 . S
C125 C124 1.339 . S
C125 C126 1.439 . S
C125 H154 0.950 . S
C126 N122 1.383 . S
C126 C125 1.439 . S
C126 C144 1.392 . S
N127 Co111 2.282 . S
N127 C130 1.332 . S
N127 C132 1.332 . S
C128 C129 1.386 . S
C128 C131 1.388 . S
C129 C128 1.386 . S
C129 C130 1.382 . S
C129 H155 0.950 . S
C130 N127 1.332 . S
C130 C129 1.382 . S
C130 H141 0.952 . S
C131 C128 1.388 . S
C131 C132 1.382 . S
C131 H156 0.950 . S
C132 N127 1.332 . S
C132 C131 1.382 . S
C132 H142 0.948 . S
N133 Co111 2.282 . S
N133 C137 1.332 . S
N133 C138 1.332 . S
C134 C135 1.388 . S
C134 C138 1.382 . S
C134 H157 0.950 . S
C135 C134 1.388 . S
C135 C136 1.386 . S
C136 C135 1.386 . S
C136 C137 1.382 . S
C136 H158 0.950 . S
C137 N133 1.332 . S
C137 C136 1.382 . S
C137 H139 0.952 . S
C138 N133 1.332 . S
C138 C134 1.382 . S
C138 H140 0.948 . S
H139 C137 0.952 . S
H140 C138 0.948 . S
H141 C130 0.952 . S
H142 C132 0.948 . S
C143 C109 1.395 . S
C143 C113 1.391 . S
C144 C106 1.389 . S
C144 C126 1.392 . S
C145 C116 1.392 . S
C145 C118 1.389 . S
C146 C121 1.395 . S
C146 C123 1.391 . S
H147 C107 0.951 . S
H148 C108 0.950 . S
H149 C114 0.949 . S
H150 C115 0.950 . S
H151 C119 0.951 . S
H152 C120 0.950 . S
H153 C124 0.949 . S
H154 C125 0.950 . S
H155 C129 0.950 . S
H156 C131 0.950 . S
H157 C134 0.950 . S
H158 C136 0.950 . S
C159 C160 1.443 . S
C159 N163 1.376 . S
C159 C197 1.389 . S
C160 C159 1.443 . S
C160 C161 1.340 . S
C160 H200 0.951 . S
C161 C160 1.340 . S
C161 C162 1.439 . S
C161 H201 0.950 . S
C162 C161 1.439 . S
C162 N163 1.374 . S
C162 C196 1.395 . S
N163 C159 1.376 . S
N163 C162 1.374 . S
N163 Co164 2.008 . S
Co164 N163 2.008 . S
Co164 N165 1.995 . S
Co164 N170 2.008 . S
Co164 N175 1.995 . S
Co164 N180 2.282 . S
Co164 N186 2.282 . S
N165 Co164 1.995 . S
N165 C166 1.376 . S
N165 C169 1.383 1_556 S
C166 N165 1.376 . S
C166 C167 1.446 1_556 S
C166 C196 1.391 . S
C167 C166 1.446 1_554 S
C167 C168 1.339 . S
C167 H202 0.949 . S
C168 C167 1.339 . S
C168 C169 1.439 . S
C168 H203 0.950 . S
C169 N165 1.383 1_554 S
C169 C168 1.439 . S
C169 C198 1.392 . S
N170 Co164 2.008 . S
N170 C171 1.376 . S
N170 C174 1.374 . S
C171 N170 1.376 . S
C171 C172 1.443 . S
C171 C198 1.389 1_556 S
C172 C171 1.443 . S
C172 C173 1.340 . S
C172 H204 0.951 . S
C173 C172 1.340 . S
C173 C174 1.439 . S
C173 H205 0.950 . S
C174 N170 1.374 . S
C174 C173 1.439 . S
C174 C199 1.395 . S
N175 Co164 1.995 . S
N175 C176 1.376 . S
N175 C179 1.383 . S
C176 N175 1.376 . S
C176 C177 1.446 . S
C176 C199 1.391 . S
C177 C176 1.446 . S
C177 C178 1.339 . S
C177 H206 0.949 . S
C178 C177 1.339 . S
C178 C179 1.439 . S
C178 H207 0.950 . S
C179 N175 1.383 . S
C179 C178 1.439 . S
C179 C197 1.392 . S
N180 Co164 2.282 . S
N180 C183 1.332 . S
N180 C185 1.332 . S
C181 C182 1.386 . S
C181 C184 1.388 . S
C182 C181 1.386 . S
C182 C183 1.382 . S
C182 H208 0.950 . S
C183 N180 1.332 . S
C183 C182 1.382 . S
C183 H194 0.952 . S
C184 C181 1.388 . S
C184 C185 1.382 . S
C184 H209 0.950 . S
C185 N180 1.332 . S
C185 C184 1.382 . S
C185 H195 0.948 . S
N186 Co164 2.282 . S
N186 C190 1.332 . S
N186 C191 1.332 . S
C187 C188 1.388 . S
C187 C191 1.382 . S
C187 H210 0.950 . S
C188 C187 1.388 . S
C188 C189 1.386 . S
C189 C188 1.386 . S
C189 C190 1.382 . S
C189 H211 0.950 . S
C190 N186 1.332 . S
C190 C189 1.382 . S
C190 H192 0.952 . S
C191 N186 1.332 . S
C191 C187 1.382 . S
C191 H193 0.948 . S
H192 C190 0.952 . S
H193 C191 0.948 . S
H194 C183 0.952 . S
H195 C185 0.948 . S
C196 C162 1.395 . S
C196 C166 1.391 . S
C197 C159 1.389 . S
C197 C179 1.392 . S
C198 C169 1.392 . S
C198 C171 1.389 1_554 S
C199 C174 1.395 . S
C199 C176 1.391 . S
H200 C160 0.951 . S
H201 C161 0.950 . S
H202 C167 0.949 . S
H203 C168 0.950 . S
H204 C172 0.951 . S
H205 C173 0.950 . S
H206 C177 0.949 . S
H207 C178 0.950 . S
H208 C182 0.950 . S
H209 C184 0.950 . S
H210 C187 0.950 . S
H211 C189 0.950 . S
C212 C213 1.443 . S
C212 N216 1.376 . S
C212 C250 1.389 1_554 S
C213 C212 1.443 . S
C213 C214 1.340 . S
C213 H253 0.951 . S
C214 C213 1.340 . S
C214 C215 1.439 . S
C214 H254 0.950 . S
C215 C214 1.439 . S
C215 N216 1.374 . S
C215 C249 1.395 . S
N216 C212 1.376 . S
N216 C215 1.374 . S
N216 Co217 2.008 . S
Co217 N216 2.008 . S
Co217 N218 1.995 . S
Co217 N223 2.008 . S
Co217 N228 1.995 . S
Co217 N233 2.282 . S
Co217 N239 2.282 . S
N218 Co217 1.995 . S
N218 C219 1.376 . S
N218 C222 1.383 . S
C219 N218 1.376 . S
C219 C220 1.446 . S
C219 C249 1.391 . S
C220 C219 1.446 . S
C220 C221 1.339 . S
C220 H255 0.949 . S
C221 C220 1.339 . S
C221 C222 1.439 . S
C221 H256 0.950 . S
C222 N218 1.383 . S
C222 C221 1.439 . S
C222 C251 1.392 . S
N223 Co217 2.008 . S
N223 C224 1.376 . S
N223 C227 1.374 . S
C224 N223 1.376 . S
C224 C225 1.443 . S
C224 C251 1.389 . S
C225 C224 1.443 . S
C225 C226 1.340 . S
C225 H257 0.951 . S
C226 C225 1.340 . S
C226 C227 1.439 . S
C226 H258 0.950 . S
C227 N223 1.374 . S
C227 C226 1.439 . S
C227 C252 1.395 . S
N228 Co217 1.995 . S
N228 C229 1.376 1_554 S
N228 C232 1.383 1_554 S
C229 N228 1.376 1_556 S
C229 C230 1.446 . S
C229 C252 1.391 1_556 S
C230 C229 1.446 . S
C230 C231 1.339 . S
C230 H259 0.949 . S
C231 C230 1.339 . S
C231 C232 1.439 . S
C231 H260 0.950 . S
C232 N228 1.383 1_556 S
C232 C231 1.439 . S
C232 C250 1.392 . S
N233 Co217 2.282 . S
N233 C236 1.332 . S
N233 C238 1.332 . S
C234 C235 1.386 . S
C234 C237 1.388 . S
C235 C234 1.386 . S
C235 C236 1.382 . S
C235 H261 0.950 . S
C236 N233 1.332 . S
C236 C235 1.382 . S
C236 H247 0.952 . S
C237 C234 1.388 . S
C237 C238 1.382 . S
C237 H262 0.950 . S
C238 N233 1.332 . S
C238 C237 1.382 . S
C238 H248 0.948 . S
N239 Co217 2.282 . S
N239 C243 1.332 . S
N239 C244 1.332 . S
C240 C241 1.388 . S
C240 C244 1.382 . S
C240 H263 0.950 . S
C241 C240 1.388 . S
C241 C242 1.386 . S
C242 C241 1.386 . S
C242 C243 1.382 . S
C242 H264 0.950 . S
C243 N239 1.332 . S
C243 C242 1.382 . S
C243 H245 0.952 . S
C244 N239 1.332 . S
C244 C240 1.382 . S
C244 H246 0.948 . S
H245 C243 0.952 . S
H246 C244 0.948 . S
H247 C236 0.952 . S
H248 C238 0.948 . S
C249 C215 1.395 . S
C249 C219 1.391 . S
C250 C212 1.389 1_556 S
C250 C232 1.392 . S
C251 C222 1.392 . S
C251 C224 1.389 . S
C252 C227 1.395 . S
C252 C229 1.391 1_554 S
H253 C213 0.951 . S
H254 C214 0.950 . S
H255 C220 0.949 . S
H256 C221 0.950 . S
H257 C225 0.951 . S
H258 C226 0.950 . S
H259 C230 0.949 . S
H260 C231 0.950 . S
H261 C235 0.950 . S
H262 C237 0.950 . S
H263 C240 0.950 . S
H264 C242 0.950 . S
C265 C266 1.443 . S
C265 N269 1.376 . S
C265 C303 1.389 . S
C266 C265 1.443 . S
C266 C267 1.340 . S
C266 H306 0.951 . S
C267 C266 1.340 . S
C267 C268 1.439 . S
C267 H307 0.950 . S
C268 C267 1.439 . S
C268 N269 1.374 . S
C268 C302 1.395 . S
N269 C265 1.376 . S
N269 C268 1.374 . S
N269 Co270 2.008 . S
Co270 N269 2.008 . S
Co270 N271 1.995 . S
Co270 N276 2.008 . S
Co270 N281 1.995 . S
Co270 N286 2.282 . S
Co270 N292 2.282 . S
N271 Co270 1.995 . S
N271 C272 1.376 . S
N271 C275 1.383 . S
C272 N271 1.376 . S
C272 C273 1.446 . S
C272 C302 1.391 . S
C273 C272 1.446 . S
C273 C274 1.339 . S
C273 H308 0.949 . S
C274 C273 1.339 . S
C274 C275 1.439 . S
C274 H309 0.950 . S
C275 N271 1.383 . S
C275 C274 1.439 . S
C275 C304 1.392 . S
N276 Co270 2.008 . S
N276 C277 1.376 . S
N276 C280 1.374 . S
C277 N276 1.376 . S
C277 C278 1.443 . S
C277 C304 1.389 . S
C278 C277 1.443 . S
C278 C279 1.340 . S
C278 H310 0.951 . S
C279 C278 1.340 . S
C279 C280 1.439 . S
C279 H311 0.950 . S
C280 N276 1.374 . S
C280 C279 1.439 . S
C280 C305 1.395 . S
N281 Co270 1.995 . S
N281 C282 1.376 . S
N281 C285 1.383 . S
C282 N281 1.376 . S
C282 C283 1.446 . S
C282 C305 1.391 . S
C283 C282 1.446 . S
C283 C284 1.339 . S
C283 H312 0.949 . S
C284 C283 1.339 . S
C284 C285 1.439 . S
C284 H313 0.950 . S
C285 N281 1.383 . S
C285 C284 1.439 . S
C285 C303 1.392 . S
N286 Co270 2.282 . S
N286 C289 1.332 . S
N286 C291 1.332 . S
C287 C288 1.386 . S
C287 C290 1.388 . S
C288 C287 1.386 . S
C288 C289 1.382 . S
C288 H314 0.950 . S
C289 N286 1.332 . S
C289 C288 1.382 . S
C289 H300 0.952 . S
C290 C287 1.388 . S
C290 C291 1.382 . S
C290 H315 0.950 . S
C291 N286 1.332 . S
C291 C290 1.382 . S
C291 H301 0.948 . S
N292 Co270 2.282 . S
N292 C296 1.332 . S
N292 C297 1.332 . S
C293 C294 1.388 . S
C293 C297 1.382 . S
C293 H316 0.950 . S
C294 C293 1.388 . S
C294 C295 1.386 . S
C295 C294 1.386 . S
C295 C296 1.382 . S
C295 H317 0.950 . S
C296 N292 1.332 . S
C296 C295 1.382 . S
C296 H298 0.952 . S
C297 N292 1.332 . S
C297 C293 1.382 . S
C297 H299 0.948 . S
H298 C296 0.952 . S
H299 C297 0.948 . S
H300 C289 0.952 . S
H301 C291 0.948 . S
C302 C268 1.395 . S
C302 C272 1.391 . S
C303 C265 1.389 . S
C303 C285 1.392 . S
C304 C275 1.392 . S
C304 C277 1.389 . S
C305 C280 1.395 . S
C305 C282 1.391 . S
H306 C266 0.951 . S
H307 C267 0.950 . S
H308 C273 0.949 . S
H309 C274 0.950 . S
H310 C278 0.951 . S
H311 C279 0.950 . S
H312 C283 0.949 . S
H313 C284 0.950 . S
H314 C288 0.950 . S
H315 C290 0.950 . S
H316 C293 0.950 . S
H317 C295 0.950 . S
C318 C319 1.443 . S
C318 N322 1.376 . S
C318 C356 1.389 . S
C319 C318 1.443 . S
C319 C320 1.340 . S
C319 H359 0.951 . S
C320 C319 1.340 . S
C320 C321 1.439 . S
C320 H360 0.950 . S
C321 C320 1.439 . S
C321 N322 1.374 . S
C321 C355 1.395 . S
N322 C318 1.376 . S
N322 C321 1.374 . S
N322 Co323 2.008 . S
Co323 N322 2.008 . S
Co323 N324 1.995 . S
Co323 N329 2.008 . S
Co323 N334 1.995 . S
Co323 N339 2.282 . S
Co323 N345 2.282 . S
N324 Co323 1.995 . S
N324 C325 1.376 . S
N324 C328 1.383 . S
C325 N324 1.376 . S
C325 C326 1.446 . S
C325 C355 1.391 . S
C326 C325 1.446 . S
C326 C327 1.339 . S
C326 H361 0.949 . S
C327 C326 1.339 . S
C327 C328 1.439 . S
C327 H362 0.950 . S
C328 N324 1.383 . S
C328 C327 1.439 . S
C328 C357 1.392 . S
N329 Co323 2.008 . S
N329 C330 1.376 . S
N329 C333 1.374 . S
C330 N329 1.376 . S
C330 C331 1.443 . S
C330 C357 1.389 . S
C331 C330 1.443 . S
C331 C332 1.340 . S
C331 H363 0.951 . S
C332 C331 1.340 . S
C332 C333 1.439 . S
C332 H364 0.950 . S
C333 N329 1.374 . S
C333 C332 1.439 . S
C333 C358 1.395 . S
N334 Co323 1.995 . S
N334 C335 1.376 . S
N334 C338 1.383 . S
C335 N334 1.376 . S
C335 C336 1.446 . S
C335 C358 1.391 . S
C336 C335 1.446 . S
C336 C337 1.339 . S
C336 H365 0.949 . S
C337 C336 1.339 . S
C337 C338 1.439 . S
C337 H366 0.950 . S
C338 N334 1.383 . S
C338 C337 1.439 . S
C338 C356 1.392 . S
N339 Co323 2.282 . S
N339 C342 1.332 . S
N339 C344 1.332 . S
C340 C341 1.386 . S
C340 C343 1.388 . S
C341 C340 1.386 . S
C341 C342 1.382 . S
C341 H367 0.950 . S
C342 N339 1.332 . S
C342 C341 1.382 . S
C342 H353 0.952 . S
C343 C340 1.388 . S
C343 C344 1.382 . S
C343 H368 0.950 . S
C344 N339 1.332 . S
C344 C343 1.382 . S
C344 H354 0.948 . S
N345 Co323 2.282 . S
N345 C349 1.332 . S
N345 C350 1.332 . S
C346 C347 1.388 . S
C346 C350 1.382 . S
C346 H369 0.950 . S
C347 C346 1.388 . S
C347 C348 1.386 . S
C348 C347 1.386 . S
C348 C349 1.382 . S
C348 H370 0.950 . S
C349 N345 1.332 . S
C349 C348 1.382 . S
C349 H351 0.952 . S
C350 N345 1.332 . S
C350 C346 1.382 . S
C350 H352 0.948 . S
H351 C349 0.952 . S
H352 C350 0.948 . S
H353 C342 0.952 . S
H354 C344 0.948 . S
C355 C321 1.395 . S
C355 C325 1.391 . S
C356 C318 1.389 . S
C356 C338 1.392 . S
C357 C328 1.392 . S
C357 C330 1.389 . S
C358 C333 1.395 . S
C358 C335 1.391 . S
H359 C319 0.951 . S
H360 C320 0.950 . S
H361 C326 0.949 . S
H362 C327 0.950 . S
H363 C331 0.951 . S
H364 C332 0.950 . S
H365 C336 0.949 . S
H366 C337 0.950 . S
H367 C341 0.950 . S
H368 C343 0.950 . S
H369 C346 0.950 . S
H370 C348 0.950 . S
C371 C372 1.443 . S
C371 N375 1.376 . S
C371 C409 1.389 . S
C372 C371 1.443 . S
C372 C373 1.340 . S
C372 H412 0.951 . S
C373 C372 1.340 . S
C373 C374 1.439 . S
C373 H413 0.950 . S
C374 C373 1.439 . S
C374 N375 1.374 . S
C374 C408 1.395 . S
N375 C371 1.376 . S
N375 C374 1.374 . S
N375 Co376 2.008 . S
Co376 N375 2.008 . S
Co376 N377 1.995 . S
Co376 N382 2.008 . S
Co376 N387 1.995 . S
Co376 N392 2.282 . S
Co376 N398 2.282 . S
N377 Co376 1.995 . S
N377 C378 1.376 . S
N377 C381 1.383 . S
C378 N377 1.376 . S
C378 C379 1.446 . S
C378 C408 1.391 . S
C379 C378 1.446 . S
C379 C380 1.339 . S
C379 H414 0.949 . S
C380 C379 1.339 . S
C380 C381 1.439 . S
C380 H415 0.950 . S
C381 N377 1.383 . S
C381 C380 1.439 . S
C381 C410 1.392 . S
N382 Co376 2.008 . S
N382 C383 1.376 . S
N382 C386 1.374 . S
C383 N382 1.376 . S
C383 C384 1.443 . S
C383 C410 1.389 . S
C384 C383 1.443 . S
C384 C385 1.340 . S
C384 H416 0.951 . S
C385 C384 1.340 . S
C385 C386 1.439 . S
C385 H417 0.950 . S
C386 N382 1.374 . S
C386 C385 1.439 . S
C386 C411 1.395 . S
N387 Co376 1.995 . S
N387 C388 1.376 . S
N387 C391 1.383 . S
C388 N387 1.376 . S
C388 C389 1.446 . S
C388 C411 1.391 . S
C389 C388 1.446 . S
C389 C390 1.339 . S
C389 H418 0.949 . S
C390 C389 1.339 . S
C390 C391 1.439 . S
C390 H419 0.950 . S
C391 N387 1.383 . S
C391 C390 1.439 . S
C391 C409 1.392 . S
N392 Co376 2.282 . S
N392 C395 1.332 . S
N392 C397 1.332 . S
C393 C394 1.386 . S
C393 C396 1.388 . S
C394 C393 1.386 . S
C394 C395 1.382 . S
C394 H420 0.950 . S
C395 N392 1.332 . S
C395 C394 1.382 . S
C395 H406 0.952 . S
C396 C393 1.388 . S
C396 C397 1.382 . S
C396 H421 0.950 . S
C397 N392 1.332 . S
C397 C396 1.382 . S
C397 H407 0.948 . S
N398 Co376 2.282 . S
N398 C402 1.332 . S
N398 C403 1.332 . S
C399 C400 1.388 . S
C399 C403 1.382 . S
C399 H422 0.950 . S
C400 C399 1.388 . S
C400 C401 1.386 . S
C401 C400 1.386 . S
C401 C402 1.382 . S
C401 H423 0.950 . S
C402 N398 1.332 . S
C402 C401 1.382 . S
C402 H404 0.952 . S
C403 N398 1.332 . S
C403 C399 1.382 . S
C403 H405 0.948 . S
H404 C402 0.952 . S
H405 C403 0.948 . S
H406 C395 0.952 . S
H407 C397 0.948 . S
C408 C374 1.395 . S
C408 C378 1.391 . S
C409 C371 1.389 . S
C409 C391 1.392 . S
C410 C381 1.392 . S
C410 C383 1.389 . S
C411 C386 1.395 . S
C411 C388 1.391 . S
H412 C372 0.951 . S
H413 C373 0.950 . S
H414 C379 0.949 . S
H415 C380 0.950 . S
H416 C384 0.951 . S
H417 C385 0.950 . S
H418 C389 0.949 . S
H419 C390 0.950 . S
H420 C394 0.950 . S
H421 C396 0.950 . S
H422 C399 0.950 . S
H423 C401 0.950 . S
C424 C425 1.443 . S
C424 N428 1.376 . S
C424 C462 1.389 . S
C425 C424 1.443 . S
C425 C426 1.340 . S
C425 H465 0.951 . S
C426 C425 1.340 . S
C426 C427 1.439 . S
C426 H466 0.950 . S
C427 C426 1.439 . S
C427 N428 1.374 . S
C427 C461 1.395 . S
N428 C424 1.376 . S
N428 C427 1.374 . S
N428 Co429 2.008 . S
Co429 N428 2.008 . S
Co429 N430 1.995 . S
Co429 N435 2.008 . S
Co429 N440 1.995 . S
Co429 N445 2.282 . S
Co429 N451 2.282 . S
N430 Co429 1.995 . S
N430 C431 1.376 . S
N430 C434 1.383 . S
C431 N430 1.376 . S
C431 C432 1.446 . S
C431 C461 1.391 . S
C432 C431 1.446 . S
C432 C433 1.339 . S
C432 H467 0.949 . S
C433 C432 1.339 . S
C433 C434 1.439 . S
C433 H468 0.950 . S
C434 N430 1.383 . S
C434 C433 1.439 . S
C434 C463 1.392 . S
N435 Co429 2.008 . S
N435 C436 1.376 . S
N435 C439 1.374 . S
C436 N435 1.376 . S
C436 C437 1.443 . S
C436 C463 1.389 . S
C437 C436 1.443 . S
C437 C438 1.340 . S
C437 H469 0.951 . S
C438 C437 1.340 . S
C438 C439 1.439 . S
C438 H470 0.950 . S
C439 N435 1.374 . S
C439 C438 1.439 . S
C439 C464 1.395 . S
N440 Co429 1.995 . S
N440 C441 1.376 . S
N440 C444 1.383 . S
C441 N440 1.376 . S
C441 C442 1.446 . S
C441 C464 1.391 . S
C442 C441 1.446 . S
C442 C443 1.339 . S
C442 H471 0.949 . S
C443 C442 1.339 . S
C443 C444 1.439 . S
C443 H472 0.950 . S
C444 N440 1.383 . S
C444 C443 1.439 . S
C444 C462 1.392 . S
N445 Co429 2.282 . S
N445 C448 1.332 . S
N445 C450 1.332 . S
C446 C447 1.386 . S
C446 C449 1.388 . S
C447 C446 1.386 . S
C447 C448 1.382 . S
C447 H473 0.950 . S
C448 N445 1.332 . S
C448 C447 1.382 . S
C448 H459 0.952 . S
C449 C446 1.388 . S
C449 C450 1.382 . S
C449 H474 0.950 . S
C450 N445 1.332 . S
C450 C449 1.382 . S
C450 H460 0.948 . S
N451 Co429 2.282 . S
N451 C455 1.332 . S
N451 C456 1.332 . S
C452 C453 1.388 . S
C452 C456 1.382 . S
C452 H475 0.950 . S
C453 C452 1.388 . S
C453 C454 1.386 . S
C454 C453 1.386 . S
C454 C455 1.382 . S
C454 H476 0.950 . S
C455 N451 1.332 . S
C455 C454 1.382 . S
C455 H457 0.952 . S
C456 N451 1.332 . S
C456 C452 1.382 . S
C456 H458 0.948 . S
H457 C455 0.952 . S
H458 C456 0.948 . S
H459 C448 0.952 . S
H460 C450 0.948 . S
C461 C427 1.395 . S
C461 C431 1.391 . S
C462 C424 1.389 . S
C462 C444 1.392 . S
C463 C434 1.392 . S
C463 C436 1.389 . S
C464 C439 1.395 . S
C464 C441 1.391 . S
H465 C425 0.951 . S
H466 C426 0.950 . S
H467 C432 0.949 . S
H468 C433 0.950 . S
H469 C437 0.951 . S
H470 C438 0.950 . S
H471 C442 0.949 . S
H472 C443 0.950 . S
H473 C447 0.950 . S
H474 C449 0.950 . S
H475 C452 0.950 . S
H476 C454 0.950 . S
C477 C478 1.443 . S
C477 N481 1.376 . S
C477 C515 1.389 1_556 S
C478 C477 1.443 . S
C478 C479 1.340 . S
C478 H518 0.951 . S
C479 C478 1.340 . S
C479 C480 1.439 . S
C479 H519 0.950 . S
C480 C479 1.439 . S
C480 N481 1.374 . S
C480 C514 1.395 . S
N481 C477 1.376 . S
N481 C480 1.374 . S
N481 Co482 2.008 . S
Co482 N481 2.008 . S
Co482 N483 1.995 . S
Co482 N488 2.008 . S
Co482 N493 1.995 . S
Co482 N498 2.282 . S
Co482 N504 2.282 . S
N483 Co482 1.995 . S
N483 C484 1.376 . S
N483 C487 1.383 . S
C484 N483 1.376 . S
C484 C485 1.446 . S
C484 C514 1.391 . S
C485 C484 1.446 . S
C485 C486 1.339 . S
C485 H520 0.949 . S
C486 C485 1.339 . S
C486 C487 1.439 . S
C486 H521 0.950 . S
C487 N483 1.383 . S
C487 C486 1.439 . S
C487 C516 1.392 . S
N488 Co482 2.008 . S
N488 C489 1.376 . S
N488 C492 1.374 . S
C489 N488 1.376 . S
C489 C490 1.443 . S
C489 C516 1.389 . S
C490 C489 1.443 . S
C490 C491 1.340 . S
C490 H522 0.951 . S
C491 C490 1.340 . S
C491 C492 1.439 . S
C491 H523 0.950 . S
C492 N488 1.374 . S
C492 C491 1.439 . S
C492 C517 1.395 . S
N493 Co482 1.995 . S
N493 C494 1.376 1_556 S
N493 C497 1.383 1_556 S
C494 N493 1.376 1_554 S
C494 C495 1.446 . S
C494 C517 1.391 1_554 S
C495 C494 1.446 . S
C495 C496 1.339 . S
C495 H524 0.949 . S
C496 C495 1.339 . S
C496 C497 1.439 . S
C496 H525 0.950 . S
C497 N493 1.383 1_554 S
C497 C496 1.439 . S
C497 C515 1.392 . S
N498 Co482 2.282 . S
N498 C501 1.332 . S
N498 C503 1.332 . S
C499 C500 1.386 . S
C499 C502 1.388 . S
C500 C499 1.386 . S
C500 C501 1.382 . S
C500 H526 0.950 . S
C501 N498 1.332 . S
C501 C500 1.382 . S
C501 H512 0.952 . S
C502 C499 1.388 . S
C502 C503 1.382 . S
C502 H527 0.950 . S
C503 N498 1.332 . S
C503 C502 1.382 . S
C503 H513 0.948 . S
N504 Co482 2.282 . S
N504 C508 1.332 . S
N504 C509 1.332 . S
C505 C506 1.388 . S
C505 C509 1.382 . S
C505 H528 0.950 . S
C506 C505 1.388 . S
C506 C507 1.386 . S
C507 C506 1.386 . S
C507 C508 1.382 . S
C507 H529 0.950 . S
C508 N504 1.332 . S
C508 C507 1.382 . S
C508 H510 0.952 . S
C509 N504 1.332 . S
C509 C505 1.382 . S
C509 H511 0.948 . S
H510 C508 0.952 . S
H511 C509 0.948 . S
H512 C501 0.952 . S
H513 C503 0.948 . S
C514 C480 1.395 . S
C514 C484 1.391 . S
C515 C477 1.389 1_554 S
C515 C497 1.392 . S
C516 C487 1.392 . S
C516 C489 1.389 . S
C517 C492 1.395 . S
C517 C494 1.391 1_556 S
H518 C478 0.951 . S
H519 C479 0.950 . S
H520 C485 0.949 . S
H521 C486 0.950 . S
H522 C490 0.951 . S
H523 C491 0.950 . S
H524 C495 0.949 . S
H525 C496 0.950 . S
H526 C500 0.950 . S
H527 C502 0.950 . S
H528 C505 0.950 . S
H529 C507 0.950 . S
C530 C531 1.443 . S
C530 N534 1.376 . S
C530 C568 1.389 . S
C531 C530 1.443 . S
C531 C532 1.340 . S
C531 H571 0.951 . S
C532 C531 1.340 . S
C532 C533 1.439 . S
C532 H572 0.950 . S
C533 C532 1.439 . S
C533 N534 1.374 . S
C533 C567 1.395 . S
N534 C530 1.376 . S
N534 C533 1.374 . S
N534 Co535 2.008 . S
Co535 N534 2.008 . S
Co535 N536 1.995 . S
Co535 N541 2.008 . S
Co535 N546 1.995 . S
Co535 N551 2.282 . S
Co535 N557 2.282 . S
N536 Co535 1.995 . S
N536 C537 1.376 . S
N536 C540 1.383 1_554 S
C537 N536 1.376 . S
C537 C538 1.446 1_554 S
C537 C567 1.391 . S
C538 C537 1.446 1_556 S
C538 C539 1.339 . S
C538 H573 0.949 . S
C539 C538 1.339 . S
C539 C540 1.439 . S
C539 H574 0.950 . S
C540 N536 1.383 1_556 S
C540 C539 1.439 . S
C540 C569 1.392 . S
N541 Co535 2.008 . S
N541 C542 1.376 . S
N541 C545 1.374 . S
C542 N541 1.376 . S
C542 C543 1.443 . S
C542 C569 1.389 1_554 S
C543 C542 1.443 . S
C543 C544 1.340 . S
C543 H575 0.951 . S
C544 C543 1.340 . S
C544 C545 1.439 . S
C544 H576 0.950 . S
C545 N541 1.374 . S
C545 C544 1.439 . S
C545 C570 1.395 . S
N546 Co535 1.995 . S
N546 C547 1.376 . S
N546 C550 1.383 . S
C547 N546 1.376 . S
C547 C548 1.446 . S
C547 C570 1.391 . S
C548 C547 1.446 . S
C548 C549 1.339 . S
C548 H577 0.949 . S
C549 C548 1.339 . S
C549 C550 1.439 . S
C549 H578 0.950 . S
C550 N546 1.383 . S
C550 C549 1.439 . S
C550 C568 1.392 . S
N551 Co535 2.282 . S
N551 C554 1.332 . S
N551 C556 1.332 . S
C552 C553 1.386 . S
C552 C555 1.388 . S
C553 C552 1.386 . S
C553 C554 1.382 . S
C553 H579 0.950 . S
C554 N551 1.332 . S
C554 C553 1.382 . S
C554 H565 0.952 . S
C555 C552 1.388 . S
C555 C556 1.382 . S
C555 H580 0.950 . S
C556 N551 1.332 . S
C556 C555 1.382 . S
C556 H566 0.948 . S
N557 Co535 2.282 . S
N557 C561 1.332 . S
N557 C562 1.332 . S
C558 C559 1.388 . S
C558 C562 1.382 . S
C558 H581 0.950 . S
C559 C558 1.388 . S
C559 C560 1.386 . S
C560 C559 1.386 . S
C560 C561 1.382 . S
C560 H582 0.950 . S
C561 N557 1.332 . S
C561 C560 1.382 . S
C561 H563 0.952 . S
C562 N557 1.332 . S
C562 C558 1.382 . S
C562 H564 0.948 . S
H563 C561 0.952 . S
H564 C562 0.948 . S
H565 C554 0.952 . S
H566 C556 0.948 . S
C567 C533 1.395 . S
C567 C537 1.391 . S
C568 C530 1.389 . S
C568 C550 1.392 . S
C569 C540 1.392 . S
C569 C542 1.389 1_556 S
C570 C545 1.395 . S
C570 C547 1.391 . S
H571 C531 0.951 . S
H572 C532 0.950 . S
H573 C538 0.949 . S
H574 C539 0.950 . S
H575 C543 0.951 . S
H576 C544 0.950 . S
H577 C548 0.949 . S
H578 C549 0.950 . S
H579 C553 0.950 . S
H580 C555 0.950 . S
H581 C558 0.950 . S
H582 C560 0.950 . S
C583 C584 1.443 . S
C583 N587 1.376 . S
C583 C621 1.389 . S
C584 C583 1.443 . S
C584 C585 1.340 . S
C584 H624 0.951 . S
C585 C584 1.340 . S
C585 C586 1.439 . S
C585 H625 0.950 . S
C586 C585 1.439 . S
C586 N587 1.374 . S
C586 C620 1.395 . S
N587 C583 1.376 . S
N587 C586 1.374 . S
N587 Co588 2.008 . S
Co588 N587 2.008 . S
Co588 N589 1.995 . S
Co588 N594 2.008 . S
Co588 N599 1.995 . S
Co588 N604 2.282 . S
Co588 N610 2.282 . S
N589 Co588 1.995 . S
N589 C590 1.376 . S
N589 C593 1.383 . S
C590 N589 1.376 . S
C590 C591 1.446 . S
C590 C620 1.391 . S
C591 C590 1.446 . S
C591 C592 1.339 . S
C591 H626 0.949 . S
C592 C591 1.339 . S
C592 C593 1.439 . S
C592 H627 0.950 . S
C593 N589 1.383 . S
C593 C592 1.439 . S
C593 C622 1.392 . S
N594 Co588 2.008 . S
N594 C595 1.376 . S
N594 C598 1.374 . S
C595 N594 1.376 . S
C595 C596 1.443 . S
C595 C622 1.389 . S
C596 C595 1.443 . S
C596 C597 1.340 . S
C596 H628 0.951 . S
C597 C596 1.340 . S
C597 C598 1.439 . S
C597 H629 0.950 . S
C598 N594 1.374 . S
C598 C597 1.439 . S
C598 C623 1.395 . S
N599 Co588 1.995 . S
N599 C600 1.376 . S
N599 C603 1.383 . S
C600 N599 1.376 . S
C600 C601 1.446 . S
C600 C623 1.391 . S
C601 C600 1.446 . S
C601 C602 1.339 . S
C601 H630 0.949 . S
C602 C601 1.339 . S
C602 C603 1.439 . S
C602 H631 0.950 . S
C603 N599 1.383 . S
C603 C602 1.439 . S
C603 C621 1.392 . S
N604 Co588 2.282 . S
N604 C607 1.332 . S
N604 C609 1.332 . S
C605 C606 1.386 . S
C605 C608 1.388 . S
C606 C605 1.386 . S
C606 C607 1.382 . S
C606 H632 0.950 . S
C607 N604 1.332 . S
C607 C606 1.382 . S
C607 H618 0.952 . S
C608 C605 1.388 . S
C608 C609 1.382 . S
C608 H633 0.950 . S
C609 N604 1.332 . S
C609 C608 1.382 . S
C609 H619 0.948 . S
N610 Co588 2.282 . S
N610 C614 1.332 . S
N610 C615 1.332 . S
C611 C612 1.388 . S
C611 C615 1.382 . S
C611 H634 0.950 . S
C612 C611 1.388 . S
C612 C613 1.386 . S
C613 C612 1.386 . S
C613 C614 1.382 . S
C613 H635 0.950 . S
C614 N610 1.332 . S
C614 C613 1.382 . S
C614 H616 0.952 . S
C615 N610 1.332 . S
C615 C611 1.382 . S
C615 H617 0.948 . S
H616 C614 0.952 . S
H617 C615 0.948 . S
H618 C607 0.952 . S
H619 C609 0.948 . S
C620 C586 1.395 . S
C620 C590 1.391 . S
C621 C583 1.389 . S
C621 C603 1.392 . S
C622 C593 1.392 . S
C622 C595 1.389 . S
C623 C598 1.395 . S
C623 C600 1.391 . S
H624 C584 0.951 . S
H625 C585 0.950 . S
H626 C591 0.949 . S
H627 C592 0.950 . S
H628 C596 0.951 . S
H629 C597 0.950 . S
H630 C601 0.949 . S
H631 C602 0.950 . S
H632 C606 0.950 . S
H633 C608 0.950 . S
H634 C611 0.950 . S
H635 C613 0.950 . S
C636 C637 1.363 . S
C636 C642 1.379 . S
C636 N644 1.356 . S
C637 C636 1.363 . S
C637 C643 1.363 . S
C638 C639 1.363 . S
C638 C643 1.379 . S
C638 N645 1.356 . S
C639 C638 1.363 . S
C639 C642 1.363 . S
N640 C642 1.356 . S
N640 H652 0.984 . S
N640 H653 0.985 . S
N641 C643 1.356 . S
N641 H646 0.984 . S
N641 H647 0.985 . S
C642 C636 1.379 . S
C642 C639 1.363 . S
C642 N640 1.356 . S
C643 C637 1.363 . S
C643 C638 1.379 . S
C643 N641 1.356 . S
N644 C636 1.356 . S
N644 H650 0.984 . S
N644 H651 0.984 . S
N645 C638 1.356 . S
N645 H648 0.984 . S
N645 H649 0.985 . S
H646 N641 0.984 . S
H647 N641 0.985 . S
H648 N645 0.984 . S
H649 N645 0.985 . S
H650 N644 0.984 . S
H651 N644 0.984 . S
H652 N640 0.984 . S
H653 N640 0.985 . S
C654 C655 1.363 . S
C654 C660 1.379 . S
C654 N662 1.356 . S
C655 C654 1.363 . S
C655 C661 1.363 . S
C656 C657 1.363 . S
C656 C661 1.379 . S
C656 N663 1.356 . S
C657 C656 1.363 . S
C657 C660 1.363 . S
N658 C660 1.356 . S
N658 H670 0.984 . S
N658 H671 0.985 . S
N659 C661 1.356 . S
N659 H664 0.984 . S
N659 H665 0.985 . S
C660 C654 1.379 . S
C660 C657 1.363 . S
C660 N658 1.356 . S
C661 C655 1.363 . S
C661 C656 1.379 . S
C661 N659 1.356 . S
N662 C654 1.356 . S
N662 H668 0.984 . S
N662 H669 0.984 . S
N663 C656 1.356 . S
N663 H666 0.984 . S
N663 H667 0.985 . S
H664 N659 0.984 . S
H665 N659 0.985 . S
H666 N663 0.984 . S
H667 N663 0.985 . S
H668 N662 0.984 . S
H669 N662 0.984 . S
H670 N658 0.984 . S
H671 N658 0.985 . S
C672 C673 1.363 . S
C672 C678 1.379 . S
C672 N680 1.356 . S
C673 C672 1.363 . S
C673 C679 1.363 . S
C674 C675 1.363 . S
C674 C679 1.379 . S
C674 N681 1.356 . S
C675 C674 1.363 . S
C675 C678 1.363 . S
N676 C678 1.356 . S
N676 H688 0.984 . S
N676 H689 0.985 . S
N677 C679 1.356 . S
N677 H682 0.984 . S
N677 H683 0.985 . S
C678 C672 1.379 . S
C678 C675 1.363 . S
C678 N676 1.356 . S
C679 C673 1.363 . S
C679 C674 1.379 . S
C679 N677 1.356 . S
N680 C672 1.356 . S
N680 H686 0.984 . S
N680 H687 0.984 . S
N681 C674 1.356 . S
N681 H684 0.984 . S
N681 H685 0.985 . S
H682 N677 0.984 . S
H683 N677 0.985 . S
H684 N681 0.984 . S
H685 N681 0.985 . S
H686 N680 0.984 . S
H687 N680 0.984 . S
H688 N676 0.984 . S
H689 N676 0.985 . S
C690 C691 1.363 . S
C690 C696 1.379 . S
C690 N698 1.356 . S
C691 C690 1.363 . S
C691 C697 1.363 . S
C692 C693 1.363 . S
C692 C697 1.379 . S
C692 N699 1.356 . S
C693 C692 1.363 . S
C693 C696 1.363 . S
N694 C696 1.356 . S
N694 H706 0.984 . S
N694 H707 0.985 . S
N695 C697 1.356 . S
N695 H700 0.984 . S
N695 H701 0.969 1_556 S
C696 C690 1.379 . S
C696 C693 1.363 . S
C696 N694 1.356 . S
C697 C691 1.363 . S
C697 C692 1.379 . S
C697 N695 1.356 . S
N698 C690 1.356 . S
N698 H704 0.984 . S
N698 H705 0.984 . S
N699 C692 1.356 . S
N699 H702 0.984 . S
N699 H703 0.985 . S
H700 N695 0.984 . S
H701 N695 0.969 1_554 S
H702 N699 0.984 . S
H703 N699 0.985 . S
H704 N698 0.984 . S
H705 N698 0.984 . S
H706 N694 0.984 . S
H707 N694 0.985 . S
C708 C709 1.363 . S
C708 C714 1.379 . S
C708 N716 1.356 . S
C709 C708 1.363 . S
C709 C715 1.363 . S
C710 C711 1.363 . S
C710 C715 1.379 . S
C710 N717 1.356 . S
C711 C710 1.363 . S
C711 C714 1.363 . S
N712 C714 1.356 . S
N712 H724 0.984 1_554 S
N712 H725 0.985 . S
N713 C715 1.356 . S
N713 H718 0.984 . S
N713 H719 0.985 . S
C714 C708 1.379 . S
C714 C711 1.363 . S
C714 N712 1.356 . S
C715 C709 1.363 . S
C715 C710 1.379 . S
C715 N713 1.356 . S
N716 C708 1.356 . S
N716 H722 0.984 1_554 S
N716 H723 0.984 . S
N717 C710 1.356 . S
N717 H720 0.984 . S
N717 H721 0.985 . S
H718 N713 0.984 . S
H719 N713 0.985 . S
H720 N717 0.984 . S
H721 N717 0.985 . S
H722 N716 0.984 1_556 S
H723 N716 0.984 . S
H724 N712 0.984 1_556 S
H725 N712 0.985 . S
C726 C727 1.363 . S
C726 C732 1.379 . S
C726 N734 1.356 . S
C727 C726 1.363 . S
C727 C733 1.363 . S
C728 C729 1.363 . S
C728 C733 1.379 . S
C728 N735 1.356 . S
C729 C728 1.363 . S
C729 C732 1.363 . S
N730 C732 1.356 . S
N730 H742 0.984 . S
N730 H743 0.985 . S
N731 C733 1.356 . S
N731 H736 0.984 . S
N731 H737 0.985 . S
C732 C726 1.379 . S
C732 C729 1.363 . S
C732 N730 1.356 . S
C733 C727 1.363 . S
C733 C728 1.379 . S
C733 N731 1.356 . S
N734 C726 1.356 . S
N734 H740 0.984 . S
N734 H741 0.984 . S
N735 C728 1.356 . S
N735 H738 0.984 . S
N735 H739 0.985 . S
H736 N731 0.984 . S
H737 N731 0.985 . S
H738 N735 0.984 . S
H739 N735 0.985 . S
H740 N734 0.984 . S
H741 N734 0.984 . S
H742 N730 0.984 . S
H743 N730 0.985 . S
C744 C745 1.363 . S
C744 C750 1.379 . S
C744 N752 1.356 . S
C745 C744 1.363 . S
C745 C751 1.363 . S
C746 C747 1.363 . S
C746 C751 1.379 . S
C746 N753 1.356 . S
C747 C746 1.363 . S
C747 C750 1.363 . S
N748 C750 1.356 . S
N748 H760 0.984 . S
N748 H761 0.985 . S
N749 C751 1.356 . S
N749 H754 0.984 . S
N749 H755 0.985 . S
C750 C744 1.379 . S
C750 C747 1.363 . S
C750 N748 1.356 . S
C751 C745 1.363 . S
C751 C746 1.379 . S
C751 N749 1.356 . S
N752 C744 1.356 . S
N752 H758 0.984 . S
N752 H759 0.984 . S
N753 C746 1.356 . S
N753 H756 0.984 . S
N753 H757 0.985 . S
H754 N749 0.984 . S
H755 N749 0.985 . S
H756 N753 0.984 . S
H757 N753 0.985 . S
H758 N752 0.984 . S
H759 N752 0.984 . S
H760 N748 0.984 . S
H761 N748 0.985 . S
C762 C763 1.363 . S
C762 C768 1.379 . S
C762 N770 1.356 . S
C763 C762 1.363 . S
C763 C769 1.363 . S
C764 C765 1.363 . S
C764 C769 1.379 . S
C764 N771 1.356 . S
C765 C764 1.363 . S
C765 C768 1.363 . S
N766 C768 1.356 . S
N766 H778 0.984 . S
N766 H779 0.985 . S
N767 C769 1.356 . S
N767 H772 0.984 . S
N767 H773 0.985 . S
C768 C762 1.379 . S
C768 C765 1.363 . S
C768 N766 1.356 . S
C769 C763 1.363 . S
C769 C764 1.379 . S
C769 N767 1.356 . S
N770 C762 1.356 . S
N770 H776 0.984 . S
N770 H777 0.984 . S
N771 C764 1.356 . S
N771 H774 0.984 . S
N771 H775 0.985 . S
H772 N767 0.984 . S
H773 N767 0.985 . S
H774 N771 0.984 . S
H775 N771 0.985 . S
H776 N770 0.984 . S
H777 N770 0.984 . S
H778 N766 0.984 . S
H779 N766 0.985 . S
C780 C781 1.363 . S
C780 C786 1.379 . S
C780 N788 1.356 . S
C781 C780 1.363 . S
C781 C787 1.363 . S
C782 C783 1.363 . S
C782 C787 1.379 . S
C782 N789 1.356 . S
C783 C782 1.363 . S
C783 C786 1.363 . S
N784 C786 1.356 . S
N784 H796 0.984 . S
N784 H797 0.985 . S
N785 C787 1.356 . S
N785 H790 0.984 . S
N785 H791 0.985 . S
C786 C780 1.379 . S
C786 C783 1.363 . S
C786 N784 1.356 . S
C787 C781 1.363 . S
C787 C782 1.379 . S
C787 N785 1.356 . S
N788 C780 1.356 . S
N788 H794 0.985 . S
N788 H795 0.984 1_556 S
N789 C782 1.356 . S
N789 H792 0.984 . S
N789 H793 0.985 . S
H790 N785 0.984 . S
H791 N785 0.985 . S
H792 N789 0.984 . S
H793 N789 0.985 . S
H794 N788 0.985 . S
H795 N788 0.984 1_554 S
H796 N784 0.984 . S
H797 N784 0.985 . S
C798 C799 1.363 . S
C798 C804 1.379 . S
C798 N806 1.356 . S
C799 C798 1.363 . S
C799 C805 1.363 . S
C800 C801 1.363 . S
C800 C805 1.379 . S
C800 N807 1.356 . S
C801 C800 1.363 . S
C801 C804 1.363 . S
N802 C804 1.356 1_556 S
N802 H814 0.984 . S
N802 H815 0.985 . S
N803 C805 1.356 . S
N803 H808 0.984 . S
N803 H809 0.985 . S
C804 C798 1.379 . S
C804 C801 1.363 . S
C804 N802 1.356 1_554 S
C805 C799 1.363 . S
C805 C800 1.379 . S
C805 N803 1.356 . S
N806 C798 1.356 . S
N806 H812 0.984 . S
N806 H813 0.984 . S
N807 C800 1.356 . S
N807 H810 0.984 . S
N807 H811 0.985 . S
H808 N803 0.984 . S
H809 N803 0.985 . S
H810 N807 0.984 . S
H811 N807 0.985 . S
H812 N806 0.984 . S
H813 N806 0.984 . S
H814 N802 0.984 . S
H815 N802 0.985 . S
C816 C817 1.363 . S
C816 C822 1.379 . S
C816 N824 1.356 . S
C817 C816 1.363 . S
C817 C823 1.363 . S
C818 C819 1.363 . S
C818 C823 1.379 . S
C818 N825 1.356 . S
C819 C818 1.363 . S
C819 C822 1.363 . S
N820 C822 1.356 . S
N820 H832 0.984 . S
N820 H833 0.985 . S
N821 C823 1.356 . S
N821 H826 0.984 . S
N821 H827 0.985 . S
C822 C816 1.379 . S
C822 C819 1.363 . S
C822 N820 1.356 . S
C823 C817 1.363 . S
C823 C818 1.379 . S
C823 N821 1.356 . S
N824 C816 1.356 . S
N824 H830 0.984 . S
N824 H831 0.984 . S
N825 C818 1.356 . S
N825 H828 0.984 . S
N825 H829 0.985 . S
H826 N821 0.984 . S
H827 N821 0.985 . S
H828 N825 0.984 . S
H829 N825 0.985 . S
H830 N824 0.984 . S
H831 N824 0.984 . S
H832 N820 0.984 . S
H833 N820 0.985 . S
C834 C835 1.363 . S
C834 C840 1.379 . S
C834 N842 1.356 . S
C835 C834 1.363 . S
C835 C841 1.363 . S
C836 C837 1.363 . S
C836 C841 1.379 . S
C836 N843 1.356 . S
C837 C836 1.363 . S
C837 C840 1.363 . S
N838 C840 1.356 . S
N838 H850 0.984 . S
N838 H851 0.985 . S
N839 C841 1.356 . S
N839 H844 0.984 . S
N839 H845 0.985 . S
C840 C834 1.379 . S
C840 C837 1.363 . S
C840 N838 1.356 . S
C841 C835 1.363 . S
C841 C836 1.379 . S
C841 N839 1.356 . S
N842 C834 1.356 . S
N842 H848 0.984 . S
N842 H849 0.984 . S
N843 C836 1.356 . S
N843 H846 0.984 . S
N843 H847 0.985 . S
H844 N839 0.984 . S
H845 N839 0.985 . S
H846 N843 0.984 . S
H847 N843 0.985 . S
H848 N842 0.984 . S
H849 N842 0.984 . S
H850 N838 0.984 . S
H851 N838 0.985 . S
C852 C853 1.363 1_455 S
C852 C858 1.379 . S
C852 N860 1.356 . S
C853 C852 1.363 1_655 S
C853 C859 1.363 . S
C854 C855 1.363 1_655 S
C854 C859 1.379 . S
C854 N861 1.356 . S
C855 C854 1.363 1_455 S
C855 C858 1.363 . S
N856 C858 1.356 . S
N856 H868 0.984 . S
N856 H869 0.985 . S
N857 C859 1.356 . S
N857 H862 0.984 . S
N857 H863 0.985 . S
C858 C852 1.379 . S
C858 C855 1.363 . S
C858 N856 1.356 . S
C859 C853 1.363 . S
C859 C854 1.379 . S
C859 N857 1.356 . S
N860 C852 1.356 . S
N860 H866 0.984 . S
N860 H867 0.984 1_455 S
N861 C854 1.356 . S
N861 H864 0.984 1_655 S
N861 H865 0.985 . S
H862 N857 0.984 . S
H863 N857 0.985 . S
H864 N861 0.984 1_455 S
H865 N861 0.985 . S
H866 N860 0.984 . S
H867 N860 0.984 1_655 S
H868 N856 0.984 . S
H869 N856 0.985 . S
C870 C871 1.363 . S
C870 C876 1.379 . S
C870 N878 1.356 . S
C871 C870 1.363 . S
C871 C877 1.363 1_565 S
C872 C873 1.363 . S
C872 C877 1.379 . S
C872 N879 1.356 . S
C873 C872 1.363 . S
C873 C876 1.363 1_545 S
N874 C876 1.358 . S
N874 H886 0.987 . S
N874 H887 0.980 1_565 S
N875 C877 1.358 . S
N875 H880 0.980 1_545 S
N875 H881 0.987 . S
C876 C870 1.379 . S
C876 C873 1.363 1_565 S
C876 N874 1.358 . S
C877 C871 1.363 1_545 S
C877 C872 1.379 . S
C877 N875 1.358 . S
N878 C870 1.356 . S
N878 H884 0.984 . S
N878 H885 0.984 . S
N879 C872 1.356 . S
N879 H882 0.984 . S
N879 H883 0.985 . S
H880 N875 0.980 1_565 S
H881 N875 0.987 . S
H882 N879 0.984 . S
H883 N879 0.985 . S
H884 N878 0.984 . S
H885 N878 0.984 . S
H886 N874 0.987 . S
H887 N874 0.980 1_545 S
C888 C889 1.363 . S
C888 C894 1.379 . S
C888 N896 1.356 . S
C889 C888 1.363 . S
C889 C895 1.363 . S
C890 C891 1.363 . S
C890 C895 1.379 . S
C890 N897 1.356 . S
C891 C890 1.363 . S
C891 C894 1.363 . S
N892 C894 1.356 . S
N892 H904 0.984 . S
N892 H905 0.985 . S
N893 C895 1.356 . S
N893 H898 0.984 . S
N893 H899 0.985 . S
C894 C888 1.379 . S
C894 C891 1.363 . S
C894 N892 1.356 . S
C895 C889 1.363 . S
C895 C890 1.379 . S
C895 N893 1.356 . S
N896 C888 1.356 . S
N896 H902 0.984 . S
N896 H903 0.984 . S
N897 C890 1.356 . S
N897 H900 0.984 . S
N897 H901 0.985 . S
H898 N893 0.984 . S
H899 N893 0.985 . S
H900 N897 0.984 . S
H901 N897 0.985 . S
H902 N896 0.984 . S
H903 N896 0.984 . S
H904 N892 0.984 . S
H905 N892 0.985 . S
C906 C907 1.363 . S
C906 C912 1.379 . S
C906 N914 1.356 . S
C907 C906 1.363 . S
C907 C913 1.363 1_455 S
C908 C909 1.363 . S
C908 C913 1.379 . S
C908 N915 1.356 . S
C909 C908 1.363 . S
C909 C912 1.363 1_655 S
N910 C912 1.356 . S
N910 H922 0.984 . S
N910 H923 0.985 1_455 S
N911 C913 1.356 . S
N911 H916 0.984 1_655 S
N911 H917 0.985 . S
C912 C906 1.379 . S
C912 C909 1.363 1_455 S
C912 N910 1.356 . S
C913 C907 1.363 1_655 S
C913 C908 1.379 . S
C913 N911 1.356 . S
N914 C906 1.356 . S
N914 H920 0.984 . S
N914 H921 0.984 . S
N915 C908 1.356 . S
N915 H918 0.984 . S
N915 H919 0.985 . S
H916 N911 0.984 1_455 S
H917 N911 0.985 . S
H918 N915 0.984 . S
H919 N915 0.985 . S
H920 N914 0.984 . S
H921 N914 0.984 . S
H922 N910 0.984 . S
H923 N910 0.985 1_655 S
C924 C925 1.363 1_554 S
C924 C930 1.379 . S
C924 N932 1.356 . S
C925 C924 1.363 1_556 S
C925 C931 1.363 1_545 S
C926 C927 1.363 1_556 S
C926 C931 1.379 . S
C926 N933 1.356 . S
C927 C926 1.363 1_554 S
C927 C930 1.363 1_565 S
N928 C930 1.351 1_565 S
N928 H940 0.977 1_565 S
N928 H941 0.998 . S
N929 C931 1.351 1_545 S
N929 H934 0.997 . S
N929 H935 0.977 1_545 S
C930 C924 1.379 . S
C930 C927 1.363 1_545 S
C930 N928 1.351 1_545 S
C931 C925 1.363 1_565 S
C931 C926 1.379 . S
C931 N929 1.351 1_565 S
N932 C924 1.356 . S
N932 H938 0.984 . S
N932 H939 0.984 1_554 S
N933 C926 1.356 . S
N933 H936 0.984 1_556 S
N933 H937 0.985 . S
H934 N929 0.997 . S
H935 N929 0.977 1_565 S
H936 N933 0.984 1_554 S
H937 N933 0.985 . S
H938 N932 0.984 . S
H939 N932 0.984 1_556 S
H940 N928 0.977 1_545 S
H941 N928 0.998 . S
C942 C943 1.363 . S
C942 C948 1.379 . S
C942 N950 1.356 . S
C943 C942 1.363 . S
C943 C949 1.363 . S
C944 C945 1.363 . S
C944 C949 1.379 . S
C944 N951 1.356 . S
C945 C944 1.363 . S
C945 C948 1.363 . S
N946 C948 1.356 . S
N946 H958 0.984 . S
N946 H959 0.985 . S
N947 C949 1.356 . S
N947 H952 0.984 . S
N947 H953 0.985 . S
C948 C942 1.379 . S
C948 C945 1.363 . S
C948 N946 1.356 . S
C949 C943 1.363 . S
C949 C944 1.379 . S
C949 N947 1.356 . S
N950 C942 1.356 . S
N950 H956 0.984 . S
N950 H957 0.984 . S
N951 C944 1.356 . S
N951 H954 0.984 . S
N951 H955 0.985 . S
H952 N947 0.984 . S
H953 N947 0.985 . S
H954 N951 0.984 . S
H955 N951 0.985 . S
H956 N950 0.984 . S
H957 N950 0.984 . S
H958 N946 0.984 . S
H959 N946 0.985 . S
C960 C961 1.363 . S
C960 C966 1.379 . S
C960 N968 1.356 . S
C961 C960 1.363 . S
C961 C967 1.363 . S
C962 C963 1.363 . S
C962 C967 1.379 . S
C962 N969 1.356 . S
C963 C962 1.363 . S
C963 C966 1.363 . S
N964 C966 1.356 . S
N964 H976 0.984 . S
N964 H977 0.985 . S
N965 C967 1.356 . S
N965 H970 0.984 . S
N965 H971 0.985 . S
C966 C960 1.379 . S
C966 C963 1.363 . S
C966 N964 1.356 . S
C967 C961 1.363 . S
C967 C962 1.379 . S
C967 N965 1.356 . S
N968 C960 1.356 . S
N968 H974 0.984 . S
N968 H975 0.984 . S
N969 C962 1.356 . S
N969 H972 0.984 . S
N969 H973 0.985 . S
H970 N965 0.984 . S
H971 N965 0.985 . S
H972 N969 0.984 . S
H973 N969 0.985 . S
H974 N968 0.984 . S
H975 N968 0.984 . S
H976 N964 0.984 . S
H977 N964 0.985 . S
C978 C979 1.363 . S
C978 C984 1.379 . S
C978 N986 1.356 . S
C979 C978 1.363 . S
C979 C985 1.363 . S
C980 C981 1.363 . S
C980 C985 1.379 . S
C980 N987 1.356 . S
C981 C980 1.363 . S
C981 C984 1.363 . S
N982 C984 1.356 . S
N982 H994 0.984 . S
N982 H995 0.985 . S
N983 C985 1.356 . S
N983 H988 0.984 . S
N983 H989 0.985 . S
C984 C978 1.379 . S
C984 C981 1.363 . S
C984 N982 1.356 . S
C985 C979 1.363 . S
C985 C980 1.379 . S
C985 N983 1.356 . S
N986 C978 1.356 . S
N986 H992 0.984 . S
N986 H993 0.984 . S
N987 C980 1.356 . S
N987 H990 0.984 . S
N987 H991 0.985 . S
H988 N983 0.984 . S
H989 N983 0.985 . S
H990 N987 0.984 . S
H991 N987 0.985 . S
H992 N986 0.984 . S
H993 N986 0.984 . S
H994 N982 0.984 . S
H995 N982 0.985 . S
C996 C997 1.363 . S
C996 C1002 1.379 . S
C996 N1004 1.356 . S
C997 C996 1.363 . S
C997 C1003 1.363 . S
C998 C999 1.363 . S
C998 C1003 1.379 . S
C998 N1005 1.356 . S
C999 C998 1.363 . S
C999 C1002 1.363 . S
N1000 C1002 1.356 . S
N1000 H1012 0.984 . S
N1000 H1013 0.985 . S
N1001 C1003 1.356 . S
N1001 H1006 0.984 . S
N1001 H1007 0.985 . S
C1002 C996 1.379 . S
C1002 C999 1.363 . S
C1002 N1000 1.356 . S
C1003 C997 1.363 . S
C1003 C998 1.379 . S
C1003 N1001 1.356 . S
N1004 C996 1.356 . S
N1004 H1010 0.984 . S
N1004 H1011 0.984 . S
N1005 C998 1.356 . S
N1005 H1008 0.984 . S
N1005 H1009 0.985 . S
H1006 N1001 0.984 . S
H1007 N1001 0.985 . S
H1008 N1005 0.984 . S
H1009 N1005 0.985 . S
H1010 N1004 0.984 . S
H1011 N1004 0.984 . S
H1012 N1000 0.984 . S
H1013 N1000 0.985 . S
C1014 C1015 1.363 . S
C1014 C1020 1.379 . S
C1014 N1022 1.356 . S
C1015 C1014 1.363 . S
C1015 C1021 1.363 . S
C1016 C1017 1.363 . S
C1016 C1021 1.379 . S
C1016 N1023 1.356 . S
C1017 C1016 1.363 . S
C1017 C1020 1.363 . S
N1018 C1020 1.356 . S
N1018 H1030 0.984 . S
N1018 H1031 0.985 . S
N1019 C1021 1.356 . S
N1019 H1024 0.984 . S
N1019 H1025 0.985 . S
C1020 C1014 1.379 . S
C1020 C1017 1.363 . S
C1020 N1018 1.356 . S
C1021 C1015 1.363 . S
C1021 C1016 1.379 . S
C1021 N1019 1.356 . S
N1022 C1014 1.356 . S
N1022 H1028 0.984 . S
N1022 H1029 0.984 . S
N1023 C1016 1.356 . S
N1023 H1026 0.984 . S
N1023 H1027 0.985 . S
H1024 N1019 0.984 . S
H1025 N1019 0.985 . S
H1026 N1023 0.984 . S
H1027 N1023 0.985 . S
H1028 N1022 0.984 . S
H1029 N1022 0.984 . S
H1030 N1018 0.984 . S
H1031 N1018 0.985 . S
C1032 C1033 1.363 . S
C1032 C1038 1.379 . S
C1032 N1040 1.356 . S
C1033 C1032 1.363 . S
C1033 C1039 1.363 . S
C1034 C1035 1.363 . S
C1034 C1039 1.379 . S
C1034 N1041 1.356 . S
C1035 C1034 1.363 . S
C1035 C1038 1.363 . S
N1036 C1038 1.356 . S
N1036 H1048 0.984 . S
N1036 H1049 0.985 . S
N1037 C1039 1.356 . S
N1037 H1042 0.984 . S
N1037 H1043 0.985 . S
C1038 C1032 1.379 . S
C1038 C1035 1.363 . S
C1038 N1036 1.356 . S
C1039 C1033 1.363 . S
C1039 C1034 1.379 . S
C1039 N1037 1.356 . S
N1040 C1032 1.356 . S
N1040 H1046 0.984 . S
N1040 H1047 0.984 . S
N1041 C1034 1.356 . S
N1041 H1044 0.984 . S
N1041 H1045 0.985 . S
H1042 N1037 0.984 . S
H1043 N1037 0.985 . S
H1044 N1041 0.984 . S
H1045 N1041 0.985 . S
H1046 N1040 0.984 . S
H1047 N1040 0.984 . S
H1048 N1036 0.984 . S
H1049 N1036 0.985 . S
C1050 C1051 1.363 . S
C1050 C1056 1.379 . S
C1050 N1058 1.356 . S
C1051 C1050 1.363 . S
C1051 C1057 1.363 . S
C1052 C1053 1.363 . S
C1052 C1057 1.379 . S
C1052 N1059 1.356 . S
C1053 C1052 1.363 . S
C1053 C1056 1.363 . S
N1054 C1056 1.356 1_556 S
N1054 H1066 0.984 . S
N1054 H1067 0.985 . S
N1055 C1057 1.356 . S
N1055 H1060 0.984 . S
N1055 H1061 0.985 . S
C1056 C1050 1.379 . S
C1056 C1053 1.363 . S
C1056 N1054 1.356 1_554 S
C1057 C1051 1.363 . S
C1057 C1052 1.379 . S
C1057 N1055 1.356 . S
N1058 C1050 1.356 . S
N1058 H1064 0.984 . S
N1058 H1065 0.984 . S
N1059 C1052 1.356 . S
N1059 H1062 0.984 . S
N1059 H1063 0.985 . S
H1060 N1055 0.984 . S
H1061 N1055 0.985 . S
H1062 N1059 0.984 . S
H1063 N1059 0.985 . S
H1064 N1058 0.984 . S
H1065 N1058 0.984 . S
H1066 N1054 0.984 . S
H1067 N1054 0.985 . S
C637 C29 1.585 . S
C639 C347 1.585 . S
C655 C82 1.586 . S
C657 C400 1.586 . S
C673 C453 1.585 . S
C675 C135 1.585 . S
C691 C188 1.585 . S
C693 C506 1.585 . S
C709 C241 1.586 . S
C711 C559 1.586 . S
C727 C612 1.585 . S
C729 C294 1.585 . S
C745 C463 1.521 . S
C747 C39 1.521 . S
C763 C92 1.521 . S
C765 C516 1.521 . S
C781 C569 1.521 . S
C783 C145 1.521 . S
C799 C622 1.521 . S
C801 C198 1.521 . S
C817 C251 1.521 . S
C819 C357 1.521 . S
C835 C304 1.521 . S
C837 C410 1.521 . S
C853 C605 2.129 . S
C855 C22 2.129 . S
C871 C340 2.129 . S
C873 C75 2.129 . S
C889 C128 2.129 . S
C891 C393 2.129 . S
C907 C446 2.129 . S
C909 C181 2.129 . S
C925 C499 2.129 . S
C927 C234 2.129 . S
C943 C552 2.129 . S
C945 C287 2.129 . S
C961 C38 1.845 . S
C963 C568 1.845 . S
C979 C621 1.845 . S
C981 C91 1.845 . S
C997 C144 1.845 . S
C999 C356 1.845 . S
C1015 C197 1.845 . S
C1017 C409 1.845 . S
C1033 C250 1.845 . S
C1035 C462 1.845 . S
C1051 C303 1.845 . S
C1053 C515 1.845 . S
