# Generated by pormake.
# Topology mdf, (4)-cn, num edge types: 1
# Building blocks:
#     Node 0, Type 0, BuildingBlock: QUQFOY_clean_sbu_3, # of connection points: 4
#     Node 1, Type 0, BuildingBlock: QUQFOY_clean_sbu_3, # of connection points: 4
#     Node 2, Type 0, BuildingBlock: QUQFOY_clean_sbu_3, # of connection points: 4
#     Node 3, Type 0, BuildingBlock: QUQFOY_clean_sbu_3, # of connection points: 4
#     Node 4, Type 0, BuildingBlock: QUQFOY_clean_sbu_3, # of connection points: 4
#     Node 5, Type 0, BuildingBlock: QUQFOY_clean_sbu_3, # of connection points: 4
#     Node 6, Type 0, BuildingBlock: QUQFOY_clean_sbu_3, # of connection points: 4
#     Node 7, Type 0, BuildingBlock: QUQFOY_clean_sbu_3, # of connection points: 4
#     Edge 8, Type (0, 0), BuildingBlock: CIFDUS_clean_linker_0, # of connection points: 2
#     Edge 9, Type (0, 0), BuildingBlock: CIFDUS_clean_linker_0, # of connection points: 2
#     Edge 10, Type (0, 0), BuildingBlock: CIFDUS_clean_linker_0, # of connection points: 2
#     Edge 11, Type (0, 0), BuildingBlock: CIFDUS_clean_linker_0, # of connection points: 2
#     Edge 12, Type (0, 0), BuildingBlock: CIFDUS_clean_linker_0, # of connection points: 2
#     Edge 13, Type (0, 0), BuildingBlock: CIFDUS_clean_linker_0, # of connection points: 2
#     Edge 14, Type (0, 0), BuildingBlock: CIFDUS_clean_linker_0, # of connection points: 2
#     Edge 15, Type (0, 0), BuildingBlock: CIFDUS_clean_linker_0, # of connection points: 2
#     Edge 16, Type (0, 0), BuildingBlock: CIFDUS_clean_linker_0, # of connection points: 2
#     Edge 17, Type (0, 0), BuildingBlock: CIFDUS_clean_linker_0, # of connection points: 2
#     Edge 18, Type (0, 0), BuildingBlock: CIFDUS_clean_linker_0, # of connection points: 2
#     Edge 19, Type (0, 0), BuildingBlock: CIFDUS_clean_linker_0, # of connection points: 2
#     Edge 20, Type (0, 0), BuildingBlock: CIFDUS_clean_linker_0, # of connection points: 2
#     Edge 21, Type (0, 0), BuildingBlock: CIFDUS_clean_linker_0, # of connection points: 2
#     Edge 22, Type (0, 0), BuildingBlock: CIFDUS_clean_linker_0, # of connection points: 2
#     Edge 23, Type (0, 0), BuildingBlock: CIFDUS_clean_linker_0, # of connection points: 2
# Relax obj value: 0.015
# Max RMSD: 0.038
# Mean RMSD: 0.038
data_MOF--net-mdf--node1-QUQFOY_clean_sbu_3--edge1-CIFDUS_clean_linker_0
_symmetry_space_group_name_H-M    P1
_symmetry_Int_Tables_number       1
_symmetry_cell_setting            triclinic
loop_
_symmetry_equiv_pos_as_xyz
'x, y, z'
_cell_length_a     35.039058
_cell_length_b     34.908716
_cell_length_c     10.61053
_cell_angle_alpha  90.185295
_cell_angle_beta   90.135133
_cell_angle_gamma 92.110238
loop_
_atom_site_label
_atom_site_type_symbol
_atom_site_fract_x
_atom_site_fract_y
_atom_site_fract_z
_atom_type_partial_charge
C0 C 0.2831 0.56013 0.08492 0.0
O1 O 0.27099 0.53369 0.01095 0.0
Cd2 Cd 0.241 0.47565 0.09013 0.0
O3 O 0.27679 0.5579 0.20266 0.0
Cd4 Cd 0.24299 0.51829 0.35964 0.0
C5 C 0.30771 0.45024 0.31302 0.0
O6 O 0.19063 0.49334 0.22825 0.0
O7 O 0.19656 0.46776 0.41239 0.0
O8 O 0.21559 0.57769 0.41997 0.0
C9 C 0.17795 0.46971 0.31017 0.0
O10 O 0.29142 0.44454 0.20675 0.0
C11 C 0.22281 0.57535 0.53679 0.0
O12 O 0.29683 0.47638 0.38767 0.0
O13 O 0.24101 0.54642 0.57277 0.0
C14 C 0.41889 0.71043 0.72483 0.0
O15 O 0.44329 0.72498 0.80162 0.0
Cd16 Cd 0.49951 0.76015 0.73441 0.0
O17 O 0.42127 0.71724 0.60723 0.0
Cd18 Cd 0.45761 0.75573 0.45127 0.0
C19 C 0.52961 0.69572 0.50604 0.0
O20 O 0.47703 0.80645 0.59238 0.0
O21 O 0.50364 0.8091 0.40974 0.0
O22 O 0.3955 0.77667 0.39541 0.0
C23 C 0.50043 0.82348 0.51896 0.0
O24 O 0.53282 0.71187 0.61373 0.0
C25 C 0.39869 0.77205 0.27734 0.0
O26 O 0.5041 0.70537 0.42727 0.0
O27 O 0.42965 0.75827 0.23792 0.0
C28 C 0.17344 0.93922 0.52748 0.0
O29 O 0.18041 0.9695 0.46432 0.0
Cd30 Cd 0.2149 0.02354 0.55589 0.0
O31 O 0.1868 0.93564 0.63813 0.0
Cd32 Cd 0.22827 0.96797 0.79323 0.0
C33 C 0.16387 0.03743 0.82919 0.0
O34 O 0.27199 -0.00111 0.64472 0.0
O35 O 0.27866 0.01529 0.84056 0.0
O36 O 0.26011 0.90792 0.81909 0.0
C37 C 0.2904 0.01817 0.72792 0.0
O38 O 0.17312 0.04867 0.71891 0.0
C39 C 0.25459 0.90541 0.93694 0.0
O40 O 0.17867 0.00807 0.87759 0.0
O41 O 0.23599 0.93186 0.98834 0.0
C42 C 0.03713 0.7598 0.35212 0.0
O43 O 0.0117 0.74364 0.42095 0.0
Cd44 Cd 0.96191 0.70269 0.33351 0.0
O45 O 0.03969 0.75155 0.23556 0.0
Cd46 Cd 0.01353 0.70931 0.06914 0.0
C47 C 0.93483 0.76278 0.08976 0.0
O48 O -0.00653 0.65808 0.20465 0.0
O49 O 0.97337 0.65271 0.01312 0.0
O50 O 0.07807 0.69084 0.02867 0.0
C51 C 0.9741 0.639 0.12362 0.0
O52 O 0.92888 0.74724 0.1969 0.0
C53 C 0.07758 0.69798 0.91149 0.0
O54 O 0.9638 0.75472 0.02329 0.0
O55 O 0.04726 0.71185 0.86714 0.0
C56 C 0.78226 0.02923 0.72587 0.0
O57 O 0.76915 0.00615 0.64229 0.0
Cd58 Cd 0.72807 0.95229 0.69723 0.0
O59 O 0.77022 0.02738 0.83867 0.0
Cd60 Cd 0.72203 -0.00591 0.96924 0.0
C61 C 0.77938 0.91879 0.95229 0.0
O62 O 0.67511 0.97655 0.80877 0.0
O63 O 0.66751 0.94979 0.99121 0.0
O64 O 0.69925 0.05706 0.00925 0.0
C65 C 0.65534 0.95439 0.87978 0.0
O66 O 0.76817 0.91595 0.83818 0.0
C67 C 0.70061 0.05518 0.12849 0.0
O68 O 0.76775 0.9453 0.02415 0.0
O69 O 0.71319 0.0246 0.17588 0.0
C70 C 0.93026 0.18404 0.43984 0.0
O71 O 0.95872 0.19135 0.51132 0.0
Cd72 Cd 0.01208 0.22934 0.43019 0.0
O73 O 0.92747 0.20076 0.33439 0.0
Cd74 Cd 0.95771 0.2502 0.20397 0.0
C75 C 0.02345 0.18503 0.14085 0.0
O76 O -0.00731 0.29069 0.3568 0.0
O77 O 0.00728 0.29734 0.15919 0.0
O78 O 0.8998 0.28588 0.21308 0.0
C79 C 0.01203 0.30842 0.27233 0.0
O80 O 0.03449 0.19127 0.25382 0.0
C81 C 0.89283 0.28397 0.09583 0.0
O82 O -0.00504 0.20206 0.09532 0.0
O83 O 0.91605 0.26583 0.02788 0.0
C84 C 0.69848 0.4265 0.21873 0.0
O85 O 0.71362 0.45023 0.14154 0.0
Cd86 Cd 0.74957 0.50522 0.21835 0.0
O87 O 0.70556 0.42919 0.33602 0.0
Cd88 Cd 0.74487 0.46371 0.49247 0.0
C89 C 0.68624 0.53665 0.44592 0.0
O90 O 0.79726 0.48113 0.35435 0.0
O91 O 0.79866 0.50788 0.53823 0.0
O92 O 0.76189 0.39932 0.53333 0.0
C93 C 0.8145 0.50334 0.43214 0.0
O94 O 0.70228 0.5397 0.33855 0.0
C95 C 0.76054 0.40126 0.6525 0.0
O96 O 0.69549 0.51073 0.52365 0.0
O97 O 0.75004 0.43269 0.70031 0.0
C98 C 0.55214 0.2819 0.87292 0.0
O99 O 0.526 0.27063 0.94831 0.0
Cd100 Cd 0.46784 0.24022 0.8733 0.0
O101 O 0.55013 0.27346 0.75644 0.0
Cd102 Cd 0.51188 0.23548 0.60534 0.0
C103 C 0.44706 0.30395 0.63348 0.0
O104 O 0.48442 0.18716 0.74575 0.0
O105 O 0.45988 0.19019 0.55876 0.0
O106 O 0.57013 0.20349 0.56761 0.0
C107 C 0.46054 0.17381 0.66524 0.0
O108 O 0.44085 0.28978 0.74238 0.0
C109 C 0.57045 0.20764 0.44896 0.0
O110 O 0.47234 0.2905 0.56089 0.0
O111 O 0.54354 0.22637 0.40075 0.0
H112 H 0.3968 0.69896 0.96725 0.0
H113 H 0.37267 0.66184 0.58571 0.0
H114 H 0.32682 0.61324 0.66312 0.0
H115 H 0.29741 0.57814 0.83971 0.0
H116 H 0.32067 0.61625 0.22092 0.0
H117 H 0.36302 0.66764 0.14254 0.0
C118 C 0.38134 0.68042 0.90094 0.0
C119 C 0.38852 0.68369 0.7712 0.0
C120 C 0.35507 0.65252 0.94587 0.0
C121 C 0.36784 0.65981 0.6863 0.0
C122 C 0.34169 0.6319 0.73038 0.0
C123 C 0.3114 0.5979 0.90563 0.0
C124 C 0.30612 0.59307 0.03589 0.0
C125 C 0.33567 0.62751 0.8601 0.0
C126 C 0.32436 0.61912 0.12002 0.0
C127 C 0.34866 0.64852 0.07544 0.0
H128 H 0.33267 0.80436 0.3424 0.0
H129 H 0.39908 0.77264 0.01874 0.0
H130 H 0.35634 0.80742 0.88102 0.0
H131 H 0.30583 0.85406 0.85781 0.0
H132 H 0.24253 0.88879 0.18501 0.0
H133 H 0.27831 0.84536 0.31634 0.0
C134 C 0.33753 0.80451 0.24147 0.0
C135 C 0.36936 0.78645 0.19104 0.0
C136 C 0.31368 0.82553 0.16387 0.0
C137 C 0.37494 0.78655 0.05998 0.0
C138 C 0.35064 0.80662 0.98136 0.0
C139 C 0.29944 0.85167 0.9575 0.0
C140 C 0.27198 0.87504 0.01205 0.0
C141 C 0.3208 0.82737 0.033 0.0
C142 C 0.26386 0.87148 0.14112 0.0
C143 C 0.28432 0.84667 0.21625 0.0
H144 H 0.07757 0.81408 0.22314 0.0
H145 H 0.05371 0.77378 0.60019 0.0
H146 H 0.09492 0.82541 0.68699 0.0
H147 H 0.13622 0.88261 0.65551 0.0
H148 H 0.15732 0.92497 0.27921 0.0
H149 H 0.11826 0.87173 0.19181 0.0
C150 C 0.08161 0.81639 0.32432 0.0
C151 C 0.06291 0.79 0.40523 0.0
C152 C 0.10451 0.84657 0.37341 0.0
C153 C 0.06793 0.79369 0.53609 0.0
C154 C 0.0914 0.8232 0.58567 0.0
C155 C 0.13239 0.88014 0.55428 0.0
C156 C 0.14962 0.90757 0.47375 0.0
C157 C 0.10959 0.8499 0.50516 0.0
C158 C 0.14413 0.90427 0.34301 0.0
C159 C 0.12195 0.87382 0.29309 0.0
H160 H 0.13839 0.65648 0.97686 0.0
H161 H 0.0872 0.71307 0.66082 0.0
H162 H 0.13284 0.68442 0.51837 0.0
H163 H 0.18056 0.63634 0.48084 0.0
H164 H 0.22786 0.57533 0.79445 0.0
H165 H 0.19104 0.61332 0.94126 0.0
C166 C 0.13764 0.66313 0.87712 0.0
C167 C 0.10912 0.68647 0.82913 0.0
C168 C 0.1631 0.64551 0.7954 0.0
C169 C 0.10865 0.69495 0.69986 0.0
C170 C 0.13466 0.67846 0.61837 0.0
C171 C 0.18334 0.63175 0.58145 0.0
C172 C 0.20659 0.60274 0.62666 0.0
C173 C 0.16099 0.65259 0.6646 0.0
C174 C 0.21012 0.59741 0.75725 0.0
C175 C 0.18885 0.61895 0.84115 0.0
H176 H 0.79833 0.05788 0.4943 0.0
H177 H 0.8321 0.06674 0.88501 0.0
H178 H 0.88134 0.11524 0.83157 0.0
H179 H 0.91499 0.15507 0.67321 0.0
H180 H 0.87887 0.14786 0.28417 0.0
H181 H 0.83042 0.0989 0.33777 0.0
C182 C 0.81657 0.07034 0.56757 0.0
C183 C 0.81177 0.05865 0.69303 0.0
C184 C 0.84438 0.09859 0.53664 0.0
C185 C 0.83523 0.07538 0.7875 0.0
C186 C 0.86344 0.10305 0.75711 0.0
C187 C 0.89651 0.14274 0.60038 0.0
C188 C 0.90058 0.15502 0.47513 0.0
C189 C 0.86829 0.11487 0.63193 0.0
C190 C 0.87623 0.13903 0.38165 0.0
C191 C 0.84856 0.11093 0.41195 0.0
H192 H 0.86097 0.27247 0.86542 0.0
H193 H 0.85234 0.34075 0.20304 0.0
H194 H 0.80532 0.38038 0.101 0.0
H195 H 0.77347 0.40072 0.90631 0.0
H196 H 0.78255 0.33182 0.56968 0.0
H197 H 0.82173 0.28695 0.68175 0.0
C198 C 0.84845 0.29574 0.91703 0.0
C199 C 0.86065 0.3042 0.0403 0.0
C200 C 0.82153 0.31841 0.85791 0.0
C201 C 0.84365 0.33392 0.10727 0.0
C202 C 0.81682 0.35666 0.04899 0.0
C203 C 0.78333 0.37544 0.85841 0.0
C204 C 0.77586 0.37012 0.72925 0.0
C205 C 0.80649 0.34993 0.92291 0.0
C206 C 0.7884 0.33695 0.66873 0.0
C207 C 0.81099 0.3113 0.7325 0.0
H208 H 0.68642 0.40257 0.97731 0.0
H209 H 0.65071 0.38125 0.36093 0.0
H210 H 0.60378 0.33292 0.28827 0.0
H211 H 0.57041 0.29933 0.11565 0.0
H212 H 0.6061 0.32025 0.73182 0.0
H213 H 0.65572 0.36579 0.80523 0.0
C214 C 0.6684 0.38731 0.04493 0.0
C215 C 0.67172 0.39583 0.17396 0.0
C216 C 0.64143 0.35949 0.00273 0.0
C217 C 0.64862 0.37537 0.2608 0.0
C218 C 0.6217 0.34774 0.21949 0.0
C219 C 0.58913 0.31371 0.04807 0.0
C220 C 0.58424 0.30674 0.9186 0.0
C221 C 0.61749 0.33999 0.09061 0.0
C222 C 0.60911 0.32522 0.83224 0.0
C223 C 0.63745 0.35138 0.87394 0.0
H224 H 0.66286 0.11684 0.04769 0.0
H225 H 0.703 0.0623 0.38526 0.0
H226 H 0.66968 0.10851 0.51452 0.0
H227 H 0.6238 0.15942 0.53062 0.0
H228 H 0.58041 0.21141 0.19312 0.0
H229 H 0.62093 0.17132 0.06428 0.0
C230 C 0.66478 0.11533 0.14958 0.0
C231 C 0.68501 0.0859 0.20694 0.0
C232 C 0.6448 0.14133 0.22299 0.0
C233 C 0.68733 0.08446 0.33894 0.0
C234 C 0.66825 0.11083 0.41278 0.0
C235 C 0.62354 0.16243 0.4289 0.0
C236 C 0.59878 0.18803 0.37134 0.0
C237 C 0.64605 0.13863 0.35569 0.0
C238 C 0.59897 0.19169 0.23959 0.0
C239 C 0.62205 0.16871 0.16597 0.0
H240 H 0.33313 0.43699 0.55036 0.0
H241 H 0.35093 0.40587 0.16153 0.0
H242 H 0.39808 0.3599 0.22542 0.0
H243 H 0.43126 0.3255 0.39291 0.0
H244 H 0.41019 0.35417 0.78193 0.0
H245 H 0.36762 0.40416 0.71682 0.0
C246 C 0.34766 0.42049 0.47952 0.0
C247 C 0.33846 0.4248 0.35155 0.0
C248 C 0.37405 0.39344 0.51701 0.0
C249 C 0.35732 0.40293 0.2609 0.0
C250 C 0.3843 0.37663 0.29727 0.0
C251 C 0.41768 0.343 0.4632 0.0
C252 C 0.42377 0.33604 0.5919 0.0
C253 C 0.39245 0.37117 0.42522 0.0
C254 C 0.40573 0.35874 0.68211 0.0
C255 C 0.38139 0.38739 0.64507 0.0
H256 H 0.63375 0.94414 0.6359 0.0
H257 H 0.60172 0.91469 0.01704 0.0
H258 H 0.54856 0.87417 0.93832 0.0
H259 H 0.51402 0.84382 0.76165 0.0
H260 H 0.54812 0.87015 0.38013 0.0
H261 H 0.59747 0.91556 0.4586 0.0
C262 C 0.61489 0.92915 0.70167 0.0
C263 C 0.62171 0.93222 0.83195 0.0
C264 C 0.58488 0.90529 0.65573 0.0
C265 C 0.59718 0.91255 0.91619 0.0
C266 C 0.56678 0.8894 0.87133 0.0
C267 C 0.53194 0.85983 0.69559 0.0
C268 C 0.52758 0.85358 0.56541 0.0
C269 C 0.56078 0.88508 0.74133 0.0
C270 C 0.55111 0.87437 0.48091 0.0
C271 C 0.57934 0.90027 0.52567 0.0
H272 H 0.06768 0.12834 0.22302 0.0
H273 H 0.02662 0.18075 0.88331 0.0
H274 H 0.06574 0.13874 0.75608 0.0
H275 H 0.11397 0.0893 0.74277 0.0
H276 H 0.15308 0.03582 0.08359 0.0
H277 H 0.11212 0.07605 0.20909 0.0
C278 C 0.0672 0.13053 0.12107 0.0
C279 C 0.04465 0.15791 0.06267 0.0
C280 C 0.08944 0.10618 0.04888 0.0
C281 C 0.0438 0.15994 0.93048 0.0
C282 C 0.06625 0.13603 0.8578 0.0
C283 C 0.11341 0.08634 0.84448 0.0
C284 C 0.13684 0.05983 0.90378 0.0
C285 C 0.08955 0.10939 0.91616 0.0
C286 C 0.13538 0.05599 0.03551 0.0
C287 C 0.11205 0.07907 0.10745 0.0
H288 H 0.95487 0.61818 0.361 0.0
H289 H 0.93355 0.58946 0.97053 0.0
H290 H 0.88416 0.54205 0.0331 0.0
H291 H 0.84358 0.51294 0.19758 0.0
H292 H 0.86254 0.54475 0.58683 0.0
H293 H 0.91658 0.58676 0.52583 0.0
C294 C 0.93978 0.60119 0.28963 0.0
C295 C 0.94761 0.6074 0.16141 0.0
C296 C 0.91084 0.57483 0.32602 0.0
C297 C 0.92779 0.58529 0.06991 0.0
C298 C 0.89954 0.55827 0.10556 0.0
C299 C 0.85982 0.52875 0.26914 0.0
C300 C 0.84901 0.52602 0.3963 0.0
C301 C 0.89026 0.55344 0.23316 0.0
C302 C 0.87019 0.54668 0.48813 0.0
C303 C 0.90107 0.57066 0.45339 0.0
H304 H 0.34105 0.0533 0.88741 0.0
H305 H 0.31195 0.04177 0.4932 0.0
H306 H 0.36317 0.08809 0.43876 0.0
H307 H 0.41425 0.13376 0.50411 0.0
H308 H 0.44414 0.14456 0.89785 0.0
H309 H 0.3946 0.0963 0.95161 0.0
C310 C 0.346 0.06087 0.78957 0.0
C311 C 0.3226 0.04447 0.69455 0.0
C312 C 0.37553 0.08734 0.75898 0.0
C313 C 0.32957 0.05412 0.56805 0.0
C314 C 0.35878 0.08063 0.53688 0.0
C315 C 0.41001 0.12544 0.60165 0.0
C316 C 0.43252 0.14288 0.69701 0.0
C317 C 0.38161 0.09771 0.63172 0.0
C318 C 0.42707 0.13156 0.82279 0.0
C319 C 0.39871 0.10407 0.85363 0.0
H320 H 0.82731 0.87675 0.81348 0.0
H321 H 0.79367 0.89918 0.19697 0.0
H322 H 0.83852 0.85228 0.27294 0.0
H323 H 0.88683 0.80471 0.22972 0.0
H324 H 0.92261 0.78486 0.84675 0.0
H325 H 0.87722 0.83113 0.77097 0.0
C326 C 0.82968 0.87132 0.91374 0.0
C327 C 0.80698 0.89117 -0.00051 0.0
C328 C 0.85586 0.84485 0.95662 0.0
C329 C 0.81084 0.88426 0.12915 0.0
C330 C 0.83639 0.85741 0.17252 0.0
C331 C 0.88461 0.81042 0.12959 0.0
C332 C 0.90783 0.79117 0.0438 0.0
C333 C 0.85894 0.83748 0.08702 0.0
C334 C 0.90507 0.7993 0.91462 0.0
C335 C 0.87909 0.82569 0.87127 0.0
H336 H 0.04567 0.3587 0.11053 0.0
H337 H 0.04164 0.32755 0.5037 0.0
H338 H 0.09196 0.37598 0.5509 0.0
H339 H 0.13916 0.42479 0.47804 0.0
H340 H 0.14218 0.45637 0.08502 0.0
H341 H 0.08989 0.41011 0.04012 0.0
C342 C 0.0557 0.36259 0.20669 0.0
C343 C 0.04029 0.33938 0.30335 0.0
C344 C 0.08445 0.39042 0.23295 0.0
C345 C 0.05316 0.34506 0.42769 0.0
C346 C 0.08197 0.37264 0.4546 0.0
C347 C 0.12826 0.42164 0.38265 0.0
C348 C 0.14471 0.44367 0.28473 0.0
C349 C 0.09816 0.39509 0.35762 0.0
C350 C 0.13004 0.43966 0.16192 0.0
C351 C 0.10022 0.41317 0.13613 0.0
H352 H 0.56956 0.6524 0.66759 0.0
H353 H 0.54919 0.67072 0.27133 0.0
H354 H 0.59573 0.62272 0.21833 0.0
H355 H 0.64339 0.57709 0.28473 0.0
H356 H 0.66189 0.55681 0.68087 0.0
H357 H 0.61462 0.60411 0.734 0.0
C358 C 0.57529 0.64589 0.56956 0.0
C359 C 0.55623 0.66534 0.47342 0.0
C360 C 0.60169 0.61801 0.53995 0.0
C361 C 0.56349 0.65615 0.34698 0.0
C362 C 0.59016 0.62881 0.31668 0.0
C363 C 0.63708 0.58301 0.38277 0.0
C364 C 0.65637 0.56376 0.47884 0.0
C365 C 0.60962 0.60982 0.41241 0.0
C366 C 0.64744 0.57126 0.60529 0.0
C367 C 0.62052 0.59836 0.63564 0.0
loop_
_geom_bond_atom_site_label_1
_geom_bond_atom_site_label_2
_geom_bond_distance
_geom_bond_site_symmetry_2
_ccdc_geom_bond_type
C0 O1 1.306 . S
C0 O3 1.160 . S
O1 C0 1.306 . S
O1 Cd2 2.228 . S
Cd2 O1 2.228 . S
Cd2 O6 2.273 . S
Cd2 O10 2.277 . S
O3 C0 1.160 . S
O3 Cd4 2.203 . S
Cd4 O3 2.203 . S
Cd4 O6 2.411 . S
Cd4 O7 2.333 . S
Cd4 O8 2.352 . S
Cd4 O12 2.277 . S
Cd4 O13 2.356 . S
C5 O10 1.209 . S
C5 O12 1.226 . S
O6 Cd2 2.273 . S
O6 Cd4 2.411 . S
O6 C9 1.320 . S
O7 Cd4 2.333 . S
O7 C9 1.214 . S
O8 Cd4 2.352 . S
O8 C11 1.258 . S
C9 O6 1.320 . S
C9 O7 1.214 . S
O10 Cd2 2.277 . S
O10 C5 1.209 . S
C11 O8 1.258 . S
C11 O13 1.282 . S
O12 Cd4 2.277 . S
O12 C5 1.226 . S
O13 Cd4 2.356 . S
O13 C11 1.282 . S
C14 O15 1.306 . S
C14 O17 1.160 . S
O15 C14 1.306 . S
O15 Cd16 2.228 . S
Cd16 O15 2.228 . S
Cd16 O20 2.273 . S
Cd16 O24 2.277 . S
O17 C14 1.160 . S
O17 Cd18 2.203 . S
Cd18 O17 2.203 . S
Cd18 O20 2.411 . S
Cd18 O21 2.333 . S
Cd18 O22 2.352 . S
Cd18 O26 2.277 . S
Cd18 O27 2.356 . S
C19 O24 1.209 . S
C19 O26 1.226 . S
O20 Cd16 2.273 . S
O20 Cd18 2.411 . S
O20 C23 1.320 . S
O21 Cd18 2.333 . S
O21 C23 1.214 . S
O22 Cd18 2.352 . S
O22 C25 1.258 . S
C23 O20 1.320 . S
C23 O21 1.214 . S
O24 Cd16 2.277 . S
O24 C19 1.209 . S
C25 O22 1.258 . S
C25 O27 1.282 . S
O26 Cd18 2.277 . S
O26 C19 1.226 . S
O27 Cd18 2.356 . S
O27 C25 1.282 . S
C28 O29 1.306 . S
C28 O31 1.160 . S
O29 C28 1.306 . S
O29 Cd30 2.228 1_565 S
Cd30 O29 2.228 1_545 S
Cd30 O34 2.273 . S
Cd30 O38 2.277 . S
O31 C28 1.160 . S
O31 Cd32 2.203 . S
Cd32 O31 2.203 . S
Cd32 O34 2.411 1_565 S
Cd32 O35 2.333 1_565 S
Cd32 O36 2.352 . S
Cd32 O40 2.277 1_566 S
Cd32 O41 2.356 1_556 S
C33 O38 1.209 . S
C33 O40 1.226 1_556 S
O34 Cd30 2.273 . S
O34 Cd32 2.411 1_545 S
O34 C37 1.320 . S
O35 Cd32 2.333 1_545 S
O35 C37 1.214 . S
O36 Cd32 2.352 . S
O36 C39 1.258 1_556 S
C37 O34 1.320 . S
C37 O35 1.214 . S
O38 Cd30 2.277 . S
O38 C33 1.209 . S
C39 O36 1.258 1_554 S
C39 O41 1.282 . S
O40 Cd32 2.277 1_544 S
O40 C33 1.226 1_554 S
O41 Cd32 2.356 1_554 S
O41 C39 1.282 . S
C42 O43 1.306 . S
C42 O45 1.160 . S
O43 C42 1.306 . S
O43 Cd44 2.228 1_455 S
Cd44 O43 2.228 1_655 S
Cd44 O48 2.273 . S
Cd44 O52 2.277 . S
O45 C42 1.160 . S
O45 Cd46 2.203 . S
Cd46 O45 2.203 . S
Cd46 O48 2.411 1_455 S
Cd46 O49 2.333 1_455 S
Cd46 O50 2.352 . S
Cd46 O54 2.277 1_454 S
Cd46 O55 2.356 1_554 S
C47 O52 1.209 . S
C47 O54 1.226 1_554 S
O48 Cd44 2.273 . S
O48 Cd46 2.411 1_655 S
O48 C51 1.320 . S
O49 Cd46 2.333 1_655 S
O49 C51 1.214 . S
O50 Cd46 2.352 . S
O50 C53 1.258 1_554 S
C51 O48 1.320 . S
C51 O49 1.214 . S
O52 Cd44 2.277 . S
O52 C47 1.209 . S
C53 O50 1.258 1_556 S
C53 O55 1.282 . S
O54 Cd46 2.277 1_656 S
O54 C47 1.226 1_556 S
O55 Cd46 2.356 1_556 S
O55 C53 1.282 . S
C56 O57 1.306 . S
C56 O59 1.160 . S
O57 C56 1.306 . S
O57 Cd58 2.228 1_545 S
Cd58 O57 2.228 1_565 S
Cd58 O62 2.273 . S
Cd58 O66 2.277 . S
O59 C56 1.160 . S
O59 Cd60 2.203 . S
Cd60 O59 2.203 . S
Cd60 O62 2.411 1_545 S
Cd60 O63 2.333 1_545 S
Cd60 O64 2.352 . S
Cd60 O68 2.277 1_546 S
Cd60 O69 2.356 1_556 S
C61 O66 1.209 . S
C61 O68 1.226 1_556 S
O62 Cd58 2.273 . S
O62 Cd60 2.411 1_565 S
O62 C65 1.320 . S
O63 Cd60 2.333 1_565 S
O63 C65 1.214 . S
O64 Cd60 2.352 . S
O64 C67 1.258 1_556 S
C65 O62 1.320 . S
C65 O63 1.214 . S
O66 Cd58 2.277 . S
O66 C61 1.209 . S
C67 O64 1.258 1_554 S
C67 O69 1.282 . S
O68 Cd60 2.277 1_564 S
O68 C61 1.226 1_554 S
O69 Cd60 2.356 1_554 S
O69 C67 1.282 . S
C70 O71 1.306 . S
C70 O73 1.160 . S
O71 C70 1.306 . S
O71 Cd72 2.228 1_655 S
Cd72 O71 2.228 1_455 S
Cd72 O76 2.273 . S
Cd72 O80 2.277 . S
O73 C70 1.160 . S
O73 Cd74 2.203 . S
Cd74 O73 2.203 . S
Cd74 O76 2.411 1_655 S
Cd74 O77 2.333 1_655 S
Cd74 O78 2.352 . S
Cd74 O82 2.277 1_654 S
Cd74 O83 2.356 1_554 S
C75 O80 1.209 . S
C75 O82 1.226 1_554 S
O76 Cd72 2.273 . S
O76 Cd74 2.411 1_455 S
O76 C79 1.320 . S
O77 Cd74 2.333 1_455 S
O77 C79 1.214 . S
O78 Cd74 2.352 . S
O78 C81 1.258 1_554 S
C79 O76 1.320 . S
C79 O77 1.214 . S
O80 Cd72 2.277 . S
O80 C75 1.209 . S
C81 O78 1.258 1_556 S
C81 O83 1.282 . S
O82 Cd74 2.277 1_456 S
O82 C75 1.226 1_556 S
O83 Cd74 2.356 1_556 S
O83 C81 1.282 . S
C84 O85 1.306 . S
C84 O87 1.160 . S
O85 C84 1.306 . S
O85 Cd86 2.228 . S
Cd86 O85 2.228 . S
Cd86 O90 2.273 . S
Cd86 O94 2.277 . S
O87 C84 1.160 . S
O87 Cd88 2.203 . S
Cd88 O87 2.203 . S
Cd88 O90 2.411 . S
Cd88 O91 2.333 . S
Cd88 O92 2.352 . S
Cd88 O96 2.277 . S
Cd88 O97 2.356 . S
C89 O94 1.209 . S
C89 O96 1.226 . S
O90 Cd86 2.273 . S
O90 Cd88 2.411 . S
O90 C93 1.320 . S
O91 Cd88 2.333 . S
O91 C93 1.214 . S
O92 Cd88 2.352 . S
O92 C95 1.258 . S
C93 O90 1.320 . S
C93 O91 1.214 . S
O94 Cd86 2.277 . S
O94 C89 1.209 . S
C95 O92 1.258 . S
C95 O97 1.282 . S
O96 Cd88 2.277 . S
O96 C89 1.226 . S
O97 Cd88 2.356 . S
O97 C95 1.282 . S
C98 O99 1.306 . S
C98 O101 1.160 . S
O99 C98 1.306 . S
O99 Cd100 2.228 . S
Cd100 O99 2.228 . S
Cd100 O104 2.273 . S
Cd100 O108 2.277 . S
O101 C98 1.160 . S
O101 Cd102 2.203 . S
Cd102 O101 2.203 . S
Cd102 O104 2.411 . S
Cd102 O105 2.333 . S
Cd102 O106 2.352 . S
Cd102 O110 2.277 . S
Cd102 O111 2.356 . S
C103 O108 1.209 . S
C103 O110 1.226 . S
O104 Cd100 2.273 . S
O104 Cd102 2.411 . S
O104 C107 1.320 . S
O105 Cd102 2.333 . S
O105 C107 1.214 . S
O106 Cd102 2.352 . S
O106 C109 1.258 . S
C107 O104 1.320 . S
C107 O105 1.214 . S
O108 Cd100 2.277 . S
O108 C103 1.209 . S
C109 O106 1.258 . S
C109 O111 1.282 . S
O110 Cd102 2.277 . S
O110 C103 1.226 . S
O111 Cd102 2.356 . S
O111 C109 1.282 . S
H112 C118 0.930 . S
H113 C121 0.930 . S
H114 C122 0.930 . S
H115 C123 0.930 . S
H116 C126 0.930 . S
H117 C127 0.930 . S
C118 H112 0.930 . S
C118 C119 1.355 . S
C118 C120 1.415 1_556 S
C119 C118 1.355 . S
C119 C121 1.419 . S
C120 C118 1.415 1_554 S
C120 C125 1.425 1_554 S
C120 C127 1.409 . S
C121 H113 0.930 . S
C121 C119 1.419 . S
C121 C122 1.362 . S
C122 H114 0.930 . S
C122 C121 1.362 . S
C122 C125 1.409 . S
C123 H115 0.930 . S
C123 C124 1.355 . S
C123 C125 1.415 1_554 S
C124 C123 1.355 . S
C124 C126 1.419 . S
C125 C120 1.425 1_556 S
C125 C122 1.409 . S
C125 C123 1.415 1_556 S
C126 H116 0.930 . S
C126 C124 1.419 . S
C126 C127 1.362 . S
C127 H117 0.930 . S
C127 C120 1.409 . S
C127 C126 1.362 . S
H128 C134 0.930 . S
H129 C137 0.930 . S
H130 C138 0.930 . S
H131 C139 0.930 . S
H132 C142 0.930 . S
H133 C143 0.930 . S
C134 H128 0.930 . S
C134 C135 1.355 . S
C134 C136 1.415 . S
C135 C134 1.355 . S
C135 C137 1.419 . S
C136 C134 1.415 . S
C136 C141 1.425 . S
C136 C143 1.409 . S
C137 H129 0.930 . S
C137 C135 1.419 . S
C137 C138 1.362 . S
C138 H130 0.930 . S
C138 C137 1.362 . S
C138 C141 1.409 . S
C139 H131 0.930 . S
C139 C140 1.355 . S
C139 C141 1.415 . S
C140 C139 1.355 . S
C140 C142 1.419 . S
C141 C136 1.425 . S
C141 C138 1.409 . S
C141 C139 1.415 . S
C142 H132 0.930 . S
C142 C140 1.419 . S
C142 C143 1.362 . S
C143 H133 0.930 . S
C143 C136 1.409 . S
C143 C142 1.362 . S
H144 C150 0.930 . S
H145 C153 0.930 . S
H146 C154 0.930 . S
H147 C155 0.930 . S
H148 C158 0.930 . S
H149 C159 0.930 . S
C150 H144 0.930 . S
C150 C151 1.355 . S
C150 C152 1.415 . S
C151 C150 1.355 . S
C151 C153 1.419 . S
C152 C150 1.415 . S
C152 C157 1.425 . S
C152 C159 1.409 . S
C153 H145 0.930 . S
C153 C151 1.419 . S
C153 C154 1.362 . S
C154 H146 0.930 . S
C154 C153 1.362 . S
C154 C157 1.409 . S
C155 H147 0.930 . S
C155 C156 1.355 . S
C155 C157 1.415 . S
C156 C155 1.355 . S
C156 C158 1.419 . S
C157 C152 1.425 . S
C157 C154 1.409 . S
C157 C155 1.415 . S
C158 H148 0.930 . S
C158 C156 1.419 . S
C158 C159 1.362 . S
C159 H149 0.930 . S
C159 C152 1.409 . S
C159 C158 1.362 . S
H160 C166 0.930 . S
H161 C169 0.930 . S
H162 C170 0.930 . S
H163 C171 0.930 . S
H164 C174 0.930 . S
H165 C175 0.930 . S
C166 H160 0.930 . S
C166 C167 1.355 . S
C166 C168 1.415 . S
C167 C166 1.355 . S
C167 C169 1.419 . S
C168 C166 1.415 . S
C168 C173 1.425 . S
C168 C175 1.409 . S
C169 H161 0.930 . S
C169 C167 1.419 . S
C169 C170 1.362 . S
C170 H162 0.930 . S
C170 C169 1.362 . S
C170 C173 1.409 . S
C171 H163 0.930 . S
C171 C172 1.355 . S
C171 C173 1.415 . S
C172 C171 1.355 . S
C172 C174 1.419 . S
C173 C168 1.425 . S
C173 C170 1.409 . S
C173 C171 1.415 . S
C174 H164 0.930 . S
C174 C172 1.419 . S
C174 C175 1.362 . S
C175 H165 0.930 . S
C175 C168 1.409 . S
C175 C174 1.362 . S
H176 C182 0.930 . S
H177 C185 0.930 . S
H178 C186 0.930 . S
H179 C187 0.930 . S
H180 C190 0.930 . S
H181 C191 0.930 . S
C182 H176 0.930 . S
C182 C183 1.355 . S
C182 C184 1.415 . S
C183 C182 1.355 . S
C183 C185 1.419 . S
C184 C182 1.415 . S
C184 C189 1.425 . S
C184 C191 1.409 . S
C185 H177 0.930 . S
C185 C183 1.419 . S
C185 C186 1.362 . S
C186 H178 0.930 . S
C186 C185 1.362 . S
C186 C189 1.409 . S
C187 H179 0.930 . S
C187 C188 1.355 . S
C187 C189 1.415 . S
C188 C187 1.355 . S
C188 C190 1.419 . S
C189 C184 1.425 . S
C189 C186 1.409 . S
C189 C187 1.415 . S
C190 H180 0.930 . S
C190 C188 1.419 . S
C190 C191 1.362 . S
C191 H181 0.930 . S
C191 C184 1.409 . S
C191 C190 1.362 . S
H192 C198 0.930 . S
H193 C201 0.930 1_554 S
H194 C202 0.930 . S
H195 C203 0.930 . S
H196 C206 0.930 . S
H197 C207 0.930 . S
C198 H192 0.930 . S
C198 C199 1.355 . S
C198 C200 1.415 . S
C199 C198 1.355 . S
C199 C201 1.419 . S
C200 C198 1.415 . S
C200 C205 1.425 . S
C200 C207 1.409 . S
C201 H193 0.930 1_556 S
C201 C199 1.419 . S
C201 C202 1.362 . S
C202 H194 0.930 . S
C202 C201 1.362 . S
C202 C205 1.409 . S
C203 H195 0.930 . S
C203 C204 1.355 . S
C203 C205 1.415 . S
C204 C203 1.355 . S
C204 C206 1.419 . S
C205 C200 1.425 . S
C205 C202 1.409 . S
C205 C203 1.415 . S
C206 H196 0.930 . S
C206 C204 1.419 . S
C206 C207 1.362 . S
C207 H197 0.930 . S
C207 C200 1.409 . S
C207 C206 1.362 . S
H208 C214 0.930 . S
H209 C217 0.930 . S
H210 C218 0.930 . S
H211 C219 0.930 . S
H212 C222 0.930 . S
H213 C223 0.930 . S
C214 H208 0.930 . S
C214 C215 1.355 . S
C214 C216 1.413 1_554 S
C215 C214 1.355 . S
C215 C217 1.419 . S
C216 C214 1.413 1_556 S
C216 C221 1.425 1_556 S
C216 C223 1.411 . S
C217 H209 0.930 . S
C217 C215 1.419 . S
C217 C218 1.362 . S
C218 H210 0.930 . S
C218 C217 1.362 . S
C218 C221 1.411 . S
C219 H211 0.930 . S
C219 C220 1.355 . S
C219 C221 1.413 1_556 S
C220 C219 1.355 . S
C220 C222 1.419 . S
C221 C216 1.425 1_554 S
C221 C218 1.411 . S
C221 C219 1.413 1_554 S
C222 H212 0.930 . S
C222 C220 1.419 . S
C222 C223 1.362 . S
C223 H213 0.930 . S
C223 C216 1.411 . S
C223 C222 1.362 . S
H224 C230 0.930 . S
H225 C233 0.930 . S
H226 C234 0.930 . S
H227 C235 0.930 . S
H228 C238 0.930 . S
H229 C239 0.930 . S
C230 H224 0.930 . S
C230 C231 1.355 . S
C230 C232 1.415 . S
C231 C230 1.355 . S
C231 C233 1.419 . S
C232 C230 1.415 . S
C232 C237 1.425 . S
C232 C239 1.409 . S
C233 H225 0.930 . S
C233 C231 1.419 . S
C233 C234 1.362 . S
C234 H226 0.930 . S
C234 C233 1.362 . S
C234 C237 1.409 . S
C235 H227 0.930 . S
C235 C236 1.355 . S
C235 C237 1.415 . S
C236 C235 1.355 . S
C236 C238 1.419 . S
C237 C232 1.425 . S
C237 C234 1.409 . S
C237 C235 1.415 . S
C238 H228 0.930 . S
C238 C236 1.419 . S
C238 C239 1.362 . S
C239 H229 0.930 . S
C239 C232 1.409 . S
C239 C238 1.362 . S
H240 C246 0.930 . S
H241 C249 0.930 . S
H242 C250 0.930 . S
H243 C251 0.930 . S
H244 C254 0.930 . S
H245 C255 0.930 . S
C246 H240 0.930 . S
C246 C247 1.355 . S
C246 C248 1.415 . S
C247 C246 1.355 . S
C247 C249 1.419 . S
C248 C246 1.415 . S
C248 C253 1.425 . S
C248 C255 1.409 . S
C249 H241 0.930 . S
C249 C247 1.419 . S
C249 C250 1.362 . S
C250 H242 0.930 . S
C250 C249 1.362 . S
C250 C253 1.409 . S
C251 H243 0.930 . S
C251 C252 1.355 . S
C251 C253 1.415 . S
C252 C251 1.355 . S
C252 C254 1.419 . S
C253 C248 1.425 . S
C253 C250 1.409 . S
C253 C251 1.415 . S
C254 H244 0.930 . S
C254 C252 1.419 . S
C254 C255 1.362 . S
C255 H245 0.930 . S
C255 C248 1.409 . S
C255 C254 1.362 . S
H256 C262 0.930 . S
H257 C265 0.930 . S
H258 C266 0.930 . S
H259 C267 0.930 . S
H260 C270 0.930 . S
H261 C271 0.930 . S
C262 H256 0.930 . S
C262 C263 1.355 . S
C262 C264 1.415 . S
C263 C262 1.355 . S
C263 C265 1.419 . S
C264 C262 1.415 . S
C264 C269 1.425 . S
C264 C271 1.409 . S
C265 H257 0.930 . S
C265 C263 1.419 . S
C265 C266 1.362 . S
C266 H258 0.930 . S
C266 C265 1.362 . S
C266 C269 1.409 . S
C267 H259 0.930 . S
C267 C268 1.355 . S
C267 C269 1.415 . S
C268 C267 1.355 . S
C268 C270 1.419 . S
C269 C264 1.425 . S
C269 C266 1.409 . S
C269 C267 1.415 . S
C270 H260 0.930 . S
C270 C268 1.419 . S
C270 C271 1.362 . S
C271 H261 0.930 . S
C271 C264 1.409 . S
C271 C270 1.362 . S
H272 C278 0.930 1_556 S
H273 C281 0.930 . S
H274 C282 0.930 . S
H275 C283 0.930 1_554 S
H276 C286 0.930 . S
H277 C287 0.930 . S
C278 H272 0.930 1_554 S
C278 C279 1.355 . S
C278 C280 1.415 1_554 S
C279 C278 1.355 . S
C279 C281 1.419 . S
C280 C278 1.415 1_556 S
C280 C285 1.425 1_556 S
C280 C287 1.409 . S
C281 H273 0.930 . S
C281 C279 1.419 . S
C281 C282 1.362 . S
C282 H274 0.930 . S
C282 C281 1.362 . S
C282 C285 1.409 . S
C283 H275 0.930 1_556 S
C283 C284 1.355 . S
C283 C285 1.415 1_556 S
C284 C283 1.355 . S
C284 C286 1.419 . S
C285 C280 1.425 1_554 S
C285 C282 1.409 . S
C285 C283 1.415 1_554 S
C286 H276 0.930 . S
C286 C284 1.419 . S
C286 C287 1.362 . S
C287 H277 0.930 . S
C287 C280 1.409 . S
C287 C286 1.362 . S
H288 C294 0.930 . S
H289 C297 0.930 . S
H290 C298 0.930 . S
H291 C299 0.930 . S
H292 C302 0.930 . S
H293 C303 0.930 . S
C294 H288 0.930 . S
C294 C295 1.355 . S
C294 C296 1.415 . S
C295 C294 1.355 . S
C295 C297 1.419 . S
C296 C294 1.415 . S
C296 C301 1.425 . S
C296 C303 1.409 . S
C297 H289 0.930 . S
C297 C295 1.419 . S
C297 C298 1.362 . S
C298 H290 0.930 . S
C298 C297 1.362 . S
C298 C301 1.409 . S
C299 H291 0.930 . S
C299 C300 1.355 . S
C299 C301 1.415 . S
C300 C299 1.355 . S
C300 C302 1.419 . S
C301 C296 1.425 . S
C301 C298 1.409 . S
C301 C299 1.415 . S
C302 H292 0.930 . S
C302 C300 1.419 . S
C302 C303 1.362 . S
C303 H293 0.930 . S
C303 C296 1.409 . S
C303 C302 1.362 . S
H304 C310 0.930 . S
H305 C313 0.930 . S
H306 C314 0.930 . S
H307 C315 0.930 . S
H308 C318 0.930 . S
H309 C319 0.930 . S
C310 H304 0.930 . S
C310 C311 1.355 . S
C310 C312 1.415 . S
C311 C310 1.355 . S
C311 C313 1.419 . S
C312 C310 1.415 . S
C312 C317 1.425 . S
C312 C319 1.409 . S
C313 H305 0.930 . S
C313 C311 1.419 . S
C313 C314 1.362 . S
C314 H306 0.930 . S
C314 C313 1.362 . S
C314 C317 1.409 . S
C315 H307 0.930 . S
C315 C316 1.355 . S
C315 C317 1.415 . S
C316 C315 1.355 . S
C316 C318 1.419 . S
C317 C312 1.425 . S
C317 C314 1.409 . S
C317 C315 1.415 . S
C318 H308 0.930 . S
C318 C316 1.419 . S
C318 C319 1.362 . S
C319 H309 0.930 . S
C319 C312 1.409 . S
C319 C318 1.362 . S
H320 C326 0.930 . S
H321 C329 0.930 . S
H322 C330 0.930 . S
H323 C331 0.930 . S
H324 C334 0.930 . S
H325 C335 0.930 . S
C326 H320 0.930 . S
C326 C327 1.355 . S
C326 C328 1.415 . S
C327 C326 1.355 . S
C327 C329 1.419 . S
C328 C326 1.415 . S
C328 C333 1.425 1_556 S
C328 C335 1.409 1_556 S
C329 H321 0.930 . S
C329 C327 1.419 . S
C329 C330 1.362 . S
C330 H322 0.930 . S
C330 C329 1.362 . S
C330 C333 1.409 1_556 S
C331 H323 0.930 . S
C331 C332 1.355 . S
C331 C333 1.415 . S
C332 C331 1.355 . S
C332 C334 1.419 . S
C333 C328 1.425 1_554 S
C333 C330 1.409 1_554 S
C333 C331 1.415 . S
C334 H324 0.930 . S
C334 C332 1.419 . S
C334 C335 1.362 . S
C335 H325 0.930 . S
C335 C328 1.409 1_554 S
C335 C334 1.362 . S
H336 C342 0.930 . S
H337 C345 0.930 . S
H338 C346 0.930 . S
H339 C347 0.930 . S
H340 C350 0.930 . S
H341 C351 0.930 . S
C342 H336 0.930 . S
C342 C343 1.355 . S
C342 C344 1.415 . S
C343 C342 1.355 . S
C343 C345 1.419 . S
C344 C342 1.415 . S
C344 C349 1.425 . S
C344 C351 1.409 . S
C345 H337 0.930 . S
C345 C343 1.419 . S
C345 C346 1.362 . S
C346 H338 0.930 . S
C346 C345 1.362 . S
C346 C349 1.409 . S
C347 H339 0.930 . S
C347 C348 1.355 . S
C347 C349 1.415 . S
C348 C347 1.355 . S
C348 C350 1.419 . S
C349 C344 1.425 . S
C349 C346 1.409 . S
C349 C347 1.415 . S
C350 H340 0.930 . S
C350 C348 1.419 . S
C350 C351 1.362 . S
C351 H341 0.930 . S
C351 C344 1.409 . S
C351 C350 1.362 . S
H352 C358 0.930 . S
H353 C361 0.930 . S
H354 C362 0.930 . S
H355 C363 0.930 . S
H356 C366 0.930 . S
H357 C367 0.930 . S
C358 H352 0.930 . S
C358 C359 1.355 . S
C358 C360 1.415 . S
C359 C358 1.355 . S
C359 C361 1.419 . S
C360 C358 1.415 . S
C360 C365 1.425 . S
C360 C367 1.409 . S
C361 H353 0.930 . S
C361 C359 1.419 . S
C361 C362 1.362 . S
C362 H354 0.930 . S
C362 C361 1.362 . S
C362 C365 1.409 . S
C363 H355 0.930 . S
C363 C364 1.355 . S
C363 C365 1.415 . S
C364 C363 1.355 . S
C364 C366 1.419 . S
C365 C360 1.425 . S
C365 C362 1.409 . S
C365 C363 1.415 . S
C366 H356 0.930 . S
C366 C364 1.419 . S
C366 C367 1.362 . S
C367 H357 0.930 . S
C367 C360 1.409 . S
C367 C366 1.362 . S
C119 C14 1.427 . S
C124 C0 1.455 . S
C135 C25 1.439 . S
C140 C39 1.427 . S
C151 C42 1.456 . S
C156 C28 1.430 . S
C167 C53 1.437 . S
C172 C11 1.428 . S
C183 C56 1.452 . S
C188 C70 1.446 . S
C199 C81 1.441 . S
C204 C95 1.445 . S
C215 C84 1.426 . S
C220 C98 1.453 . S
C231 C67 1.446 . S
C236 C109 1.429 . S
C247 C5 1.452 . S
C252 C103 1.443 . S
C263 C65 1.453 . S
C268 C23 1.450 . S
C279 C75 1.443 . S
C284 C33 1.452 . S
C295 C51 1.446 . S
C300 C93 1.444 . S
C311 C37 1.471 . S
C316 C107 1.474 . S
C327 C61 1.460 . S
C332 C47 1.450 . S
C343 C79 1.465 . S
C348 C9 1.462 . S
C359 C19 1.463 . S
C364 C89 1.459 . S
