# Generated by pormake.
# Topology umw, (4)-cn, num edge types: 1
# Building blocks:
#     Node 0, Type 0, BuildingBlock: CEKHIL_clean_sbu_0, # of connection points: 4
#     Node 1, Type 0, BuildingBlock: CEKHIL_clean_sbu_0, # of connection points: 4
#     Node 2, Type 0, BuildingBlock: CEKHIL_clean_sbu_0, # of connection points: 4
#     Node 3, Type 0, BuildingBlock: CEKHIL_clean_sbu_0, # of connection points: 4
#     Node 4, Type 0, BuildingBlock: CEKHIL_clean_sbu_0, # of connection points: 4
#     Node 5, Type 0, BuildingBlock: CEKHIL_clean_sbu_0, # of connection points: 4
#     Node 6, Type 0, BuildingBlock: CEKHIL_clean_sbu_0, # of connection points: 4
#     Node 7, Type 0, BuildingBlock: CEKHIL_clean_sbu_0, # of connection points: 4
#     Edge 8, Type (0, 0), BuildingBlock: TEMPAE_clean_linker_10, # of connection points: 2
#     Edge 9, Type (0, 0), BuildingBlock: TEMPAE_clean_linker_10, # of connection points: 2
#     Edge 10, Type (0, 0), BuildingBlock: TEMPAE_clean_linker_10, # of connection points: 2
#     Edge 11, Type (0, 0), BuildingBlock: TEMPAE_clean_linker_10, # of connection points: 2
#     Edge 12, Type (0, 0), BuildingBlock: TEMPAE_clean_linker_10, # of connection points: 2
#     Edge 13, Type (0, 0), BuildingBlock: TEMPAE_clean_linker_10, # of connection points: 2
#     Edge 14, Type (0, 0), BuildingBlock: TEMPAE_clean_linker_10, # of connection points: 2
#     Edge 15, Type (0, 0), BuildingBlock: TEMPAE_clean_linker_10, # of connection points: 2
#     Edge 16, Type (0, 0), BuildingBlock: TEMPAE_clean_linker_10, # of connection points: 2
#     Edge 17, Type (0, 0), BuildingBlock: TEMPAE_clean_linker_10, # of connection points: 2
#     Edge 18, Type (0, 0), BuildingBlock: TEMPAE_clean_linker_10, # of connection points: 2
#     Edge 19, Type (0, 0), BuildingBlock: TEMPAE_clean_linker_10, # of connection points: 2
#     Edge 20, Type (0, 0), BuildingBlock: TEMPAE_clean_linker_10, # of connection points: 2
#     Edge 21, Type (0, 0), BuildingBlock: TEMPAE_clean_linker_10, # of connection points: 2
#     Edge 22, Type (0, 0), BuildingBlock: TEMPAE_clean_linker_10, # of connection points: 2
#     Edge 23, Type (0, 0), BuildingBlock: TEMPAE_clean_linker_10, # of connection points: 2
# Relax obj value: 0.134
# Max RMSD: 0.105
# Mean RMSD: 0.105
data_MOF--net-umw--node1-CEKHIL_clean_sbu_0--edge1-TEMPAE_clean_linker_10
_symmetry_space_group_name_H-M    P1
_symmetry_Int_Tables_number       1
_symmetry_cell_setting            triclinic
loop_
_symmetry_equiv_pos_as_xyz
'x, y, z'
_cell_length_a     40.596566
_cell_length_b     40.60213
_cell_length_c     26.333139
_cell_angle_alpha  89.842029
_cell_angle_beta   89.930629
_cell_angle_gamma 90.068107
loop_
_atom_site_label
_atom_site_type_symbol
_atom_site_fract_x
_atom_site_fract_y
_atom_site_fract_z
_atom_type_partial_charge
Co0 Co 0.42895 0.21038 0.28331 0.0
O1 O 0.41299 0.25468 0.29516 0.0
O2 O 0.38974 0.20937 0.32525 0.0
C3 C 0.43955 0.21691 0.2 0.0
O4 O 0.43651 0.16067 0.27919 0.0
Co5 Co 0.49967 0.19442 0.24392 0.0
O6 O 0.48253 0.14895 0.23549 0.0
C7 C 0.48903 0.21397 0.35083 0.0
C8 C 0.38991 0.24135 0.32266 0.0
C9 C 0.45621 0.13996 0.25804 0.0
O10 O 0.45753 0.21331 0.34529 0.0
O11 O 0.50957 0.20925 0.31467 0.0
O12 O 0.40966 0.21001 0.21467 0.0
O13 O 0.46084 0.22127 0.23529 0.0
Co14 Co 0.82132 0.42702 0.53614 0.0
O15 O 0.77638 0.41331 0.5496 0.0
O16 O 0.82068 0.38354 0.5663 0.0
C17 C 0.81183 0.44855 0.45827 0.0
O18 O 0.87121 0.43133 0.52795 0.0
Co19 Co 0.84214 0.49988 0.51451 0.0
O20 O 0.88537 0.48068 0.49594 0.0
C21 C 0.82672 0.47766 0.61922 0.0
C22 C 0.78885 0.38658 0.56888 0.0
C23 C 0.89279 0.45164 0.5103 0.0
O24 O 0.82383 0.44746 0.60528 0.0
O25 O 0.83187 0.50172 0.5887 0.0
O26 O 0.81661 0.41693 0.46308 0.0
O27 O 0.81136 0.46498 0.49973 0.0
Co28 Co 0.60275 0.81989 0.78853 0.0
O29 O 0.62022 0.77566 0.79404 0.0
O30 O 0.64685 0.82098 0.81607 0.0
C31 C 0.57966 0.81508 0.71062 0.0
O32 O 0.59409 0.86933 0.78816 0.0
Co33 Co 0.52733 0.83348 0.77823 0.0
O34 O 0.54135 0.88003 0.76815 0.0
C35 C 0.55501 0.80839 0.87387 0.0
C36 C 0.64623 0.78898 0.81423 0.0
C37 C 0.5706 0.88957 0.77803 0.0
O38 O 0.58425 0.81597 0.8591 0.0
O39 O 0.52967 0.80983 0.84509 0.0
O40 O 0.6111 0.82126 0.71447 0.0
O41 O 0.5648 0.80941 0.75275 0.0
Co42 Co 0.20973 0.60449 0.03066 0.0
O43 O 0.25384 0.62128 0.04222 0.0
O44 O 0.20812 0.64454 0.07023 0.0
C45 C 0.21678 0.59203 0.94794 0.0
O46 O 0.16013 0.59642 0.02673 0.0
Co47 Co 0.1941 0.53299 -0.00505 0.0
O48 O 0.14801 0.54871 -0.01175 0.0
C49 C 0.21482 0.54581 0.1008 0.0
C50 C 0.2401 0.64473 0.06827 0.0
C51 C 0.13918 0.57576 0.00855 0.0
O52 O 0.21273 0.57719 0.09426 0.0
O53 O 0.21097 0.52478 0.06515 0.0
O54 O 0.20949 0.62216 0.96072 0.0
O55 O 0.22102 0.57168 0.98462 0.0
Co56 Co 0.42801 0.82585 0.30831 0.0
O57 O 0.41048 0.78176 0.30078 0.0
O58 O 0.38592 0.82711 0.27378 0.0
C59 C 0.44513 0.82038 0.38944 0.0
O60 O 0.4371 0.87531 0.30947 0.0
Co61 Co 0.5021 0.83922 0.33137 0.0
O62 O 0.48817 0.88597 0.33781 0.0
C63 C 0.48151 0.81414 0.23165 0.0
C64 C 0.38593 0.79512 0.2767 0.0
C65 C 0.45987 0.8956 0.32294 0.0
O66 O 0.45134 0.82145 0.24138 0.0
O67 O 0.50466 0.81585 0.26448 0.0
O68 O 0.4144 0.82754 0.3803 0.0
O69 O 0.46311 0.81478 0.35034 0.0
Co70 Co 0.20688 0.43214 0.55283 0.0
O71 O 0.25213 0.4181 0.54342 0.0
O72 O 0.20826 0.38751 0.5275 0.0
C73 C 0.21401 0.45703 0.62894 0.0
O74 O 0.1568 0.4365 0.55771 0.0
Co75 Co 0.18578 0.50579 0.56429 0.0
O76 O 0.14194 0.48741 0.58161 0.0
C77 C 0.20401 0.47896 0.46371 0.0
C78 C 0.24011 0.39062 0.52615 0.0
C79 C 0.13481 0.45765 0.57101 0.0
O80 O 0.20625 0.4495 0.48135 0.0
O81 O 0.19807 0.50438 0.49082 0.0
O82 O 0.20976 0.4252 0.62707 0.0
O83 O 0.21576 0.47164 0.58578 0.0
Co84 Co 0.59819 0.20502 0.80388 0.0
O85 O 0.61271 0.25002 0.79324 0.0
O86 O 0.64271 0.20567 0.77783 0.0
C87 C 0.57348 0.21281 0.88004 0.0
O88 O 0.59303 0.15507 0.81013 0.0
Co89 Co 0.52416 0.18504 0.81616 0.0
O90 O 0.54219 0.14175 0.83719 0.0
C91 C 0.55125 0.20222 0.71511 0.0
C92 C 0.63991 0.23753 0.77568 0.0
C93 C 0.57167 0.13388 0.82589 0.0
O94 O 0.58074 0.20388 0.73264 0.0
O95 O 0.5257 0.19709 0.74254 0.0
O96 O 0.6053 0.20851 0.87799 0.0
O97 O 0.55891 0.21453 0.83693 0.0
Co98 Co 0.82565 0.60046 0.05842 0.0
O99 O 0.7812 0.61542 0.04467 0.0
O100 O 0.82654 0.64191 0.02199 0.0
C101 C 0.81617 0.58458 0.13925 0.0
O102 O 0.87542 0.59451 0.06546 0.0
Co103 Co 0.84366 0.52862 0.09027 0.0
O104 O 0.88851 0.54637 0.10226 0.0
C105 C 0.82638 0.54442 0.98368 0.0
C106 C 0.79456 0.64036 0.02134 0.0
C107 C 0.8967 0.57431 0.08403 0.0
O108 O 0.82598 0.57554 -0.00724 0.0
O109 O 0.83062 0.52228 0.01775 0.0
O110 O 0.82262 0.61544 0.12957 0.0
O111 O 0.81443 0.56546 0.10072 0.0
C112 C 0.53086 0.20053 0.41593 0.0
C113 C 0.50246 0.21793 0.40211 0.0
C114 C 0.54212 0.20075 0.46604 0.0
C115 C 0.52501 0.21958 0.50262 0.0
C116 C 0.49767 0.23904 0.48806 0.0
C117 C 0.48629 0.23751 0.43793 0.0
C118 C 0.57074 0.1789 0.48049 0.0
C119 C 0.47947 0.26015 0.52594 0.0
C120 C 0.52195 0.18695 0.63658 0.0
C121 C 0.54613 0.20597 0.66039 0.0
C122 C 0.51531 0.19089 0.58496 0.0
C123 C 0.5327 0.21511 0.55697 0.0
C124 C 0.55727 0.2344 0.58078 0.0
C125 C 0.56408 0.22922 0.63239 0.0
C126 C 0.48961 0.16915 0.56046 0.0
C127 C 0.57568 0.26092 0.55214 0.0
H128 H 0.54324 0.18523 0.38815 0.0
H129 H 0.46454 0.25126 0.4269 0.0
H130 H 0.58904 0.19275 0.50323 0.0
H131 H 0.56168 0.15825 0.50444 0.0
H132 H 0.58333 0.16843 0.44672 0.0
H133 H 0.46222 0.27752 0.50709 0.0
H134 H 0.46509 0.24418 0.55208 0.0
H135 H 0.49711 0.27445 0.54932 0.0
H136 H 0.50835 0.16875 0.6584 0.0
H137 H 0.58262 0.24405 0.65122 0.0
H138 H 0.50033 0.15627 0.5272 0.0
H139 H 0.46886 0.18439 0.54646 0.0
H140 H 0.47964 0.15038 0.58716 0.0
H141 H 0.58798 0.25037 0.51827 0.0
H142 H 0.59456 0.27323 0.57602 0.0
H143 H 0.55804 0.27977 0.53832 0.0
C144 C 0.80205 0.46975 0.70495 0.0
C145 C 0.82494 0.48546 0.67334 0.0
C146 C 0.79927 0.47873 0.75613 0.0
C147 C 0.82061 0.50315 0.77583 0.0
C148 C 0.84424 0.51849 0.74411 0.0
C149 C 0.84578 0.50974 0.69297 0.0
C150 C 0.77337 0.46246 0.7889 0.0
C151 C 0.86812 0.54387 0.76426 0.0
C152 C 0.80376 0.55058 0.8963 0.0
C153 C 0.82322 0.53322 0.93105 0.0
C154 C 0.8012 0.53996 0.84588 0.0
C155 C 0.81935 0.51205 0.83005 0.0
C156 C 0.83877 0.49432 0.86522 0.0
C157 C 0.84013 0.50492 0.91555 0.0
C158 C 0.77969 0.55894 0.80938 0.0
C159 C 0.85928 0.46507 0.84924 0.0
H160 H 0.78581 0.45114 0.68932 0.0
H161 H 0.86369 0.52159 0.66834 0.0
H162 H 0.78518 0.44938 0.82109 0.0
H163 H 0.75691 0.48146 0.80535 0.0
H164 H 0.75817 0.44456 0.76732 0.0
H165 H 0.88553 0.55275 0.73464 0.0
H166 H 0.85445 0.56533 0.77944 0.0
H167 H 0.88259 0.53325 0.79606 0.0
H168 H 0.79044 0.57228 0.90861 0.0
H169 H 0.8554 0.49167 0.94248 0.0
H170 H 0.76296 0.54189 0.78897 0.0
H171 H 0.79527 0.57133 0.78043 0.0
H172 H 0.76465 0.57794 0.8289 0.0
H173 H 0.84363 0.4464 0.83028 0.0
H174 H 0.87194 0.4532 0.88187 0.0
H175 H 0.87818 0.47309 0.82134 0.0
C176 C 0.47559 0.8218 0.13861 0.0
C177 C 0.49074 0.80573 0.17937 0.0
C178 C 0.48745 0.81776 0.08909 0.0
C179 C 0.5144 0.79636 0.08032 0.0
C180 C 0.52831 0.77837 0.12099 0.0
C181 C 0.51664 0.78371 0.17034 0.0
C182 C 0.47229 0.83772 0.04665 0.0
C183 C 0.55623 0.75444 0.11269 0.0
C184 C 0.52538 0.77747 0.94123 0.0
C185 C 0.54934 0.80071 0.92759 0.0
C186 C 0.51555 0.77384 -0.0081 0.0
C187 C 0.52925 0.79481 0.02908 0.0
C188 C 0.55482 0.81703 0.01586 0.0
C189 C 0.56494 0.81935 0.96512 0.0
C190 C 0.48918 0.74897 0.00502 0.0
C191 C 0.56968 0.84013 0.05444 0.0
H192 H 0.45566 0.83894 0.14577 0.0
H193 H 0.52806 0.77101 0.20202 0.0
H194 H 0.49106 0.85461 0.03031 0.0
H195 H 0.46391 0.82127 0.01569 0.0
H196 H 0.45097 0.8526 0.05973 0.0
H197 H 0.56084 0.73891 0.14674 0.0
H198 H 0.55088 0.73814 0.07995 0.0
H199 H 0.57912 0.76821 0.10367 0.0
H200 H 0.51365 0.76281 0.91201 0.0
H201 H 0.58337 0.83742 0.95431 0.0
H202 H 0.4655 0.76187 0.01161 0.0
H203 H 0.49551 0.73557 0.04047 0.0
H204 H 0.48553 0.73078 0.97409 0.0
H205 H 0.55069 0.85795 0.06719 0.0
H206 H 0.59093 0.85415 0.0388 0.0
H207 H 0.578 0.82629 0.08841 0.0
C208 C 0.23496 0.47169 0.38304 0.0
C209 C 0.20776 0.48432 0.40915 0.0
C210 C 0.24031 0.48001 0.33195 0.0
C211 C 0.21729 0.50048 0.30674 0.0
C212 C 0.18912 0.51214 0.33275 0.0
C213 C 0.185 0.50432 0.384 0.0
C214 C 0.27096 0.46784 0.3055 0.0
C215 C 0.16343 0.53311 0.30664 0.0
C216 C 0.23428 0.55206 0.1902 0.0
C217 C 0.2195 0.53283 0.15249 0.0
C218 C 0.23611 0.5406 0.24038 0.0
C219 C 0.22199 0.50972 0.25294 0.0
C220 C 0.2083 0.48968 0.2146 0.0
C221 C 0.20754 0.50136 0.16468 0.0
C222 C 0.25167 0.5622 0.28031 0.0
C223 C 0.19228 0.45697 0.22678 0.0
H224 H 0.25264 0.45648 0.40312 0.0
H225 H 0.16391 0.51382 0.40458 0.0
H226 H 0.2644 0.4547 0.27006 0.0
H227 H 0.28657 0.48916 0.29454 0.0
H228 H 0.28568 0.45105 0.32992 0.0
H229 H 0.14211 0.53854 0.33172 0.0
H230 H 0.17453 0.55679 0.2943 0.0
H231 H 0.15425 0.52046 0.27213 0.0
H232 H 0.24393 0.57621 0.18067 0.0
H233 H 0.19599 0.48643 0.13563 0.0
H234 H 0.26846 0.54754 0.3047 0.0
H235 H 0.2322 0.57255 0.30517 0.0
H236 H 0.26574 0.58297 0.26328 0.0
H237 H 0.20873 0.44161 0.25061 0.0
H238 H 0.18586 0.44294 0.19199 0.0
H239 H 0.16938 0.46126 0.24883 0.0
C240 C 0.36012 0.29448 0.33843 0.0
C241 C 0.36632 0.26169 0.35224 0.0
C242 C 0.33884 0.31438 0.36734 0.0
C243 C 0.32408 0.30152 0.41203 0.0
C244 C 0.33036 0.26842 0.4262 0.0
C245 C 0.35103 0.2488 0.39581 0.0
C246 C 0.33219 0.34923 0.35006 0.0
C247 C 0.31577 0.25391 0.47405 0.0
C248 C 0.29537 0.36503 0.50917 0.0
C249 C 0.26128 0.36579 0.50063 0.0
C250 C 0.31592 0.34347 0.48184 0.0
C251 C 0.30224 0.32281 0.44397 0.0
C252 C 0.26777 0.32326 0.43561 0.0
C253 C 0.24771 0.3444 0.46445 0.0
C254 C 0.35239 0.34318 0.49294 0.0
C255 C 0.25219 0.30225 0.39496 0.0
H256 H 0.37177 0.30455 0.30472 0.0
H257 H 0.35598 0.22358 0.40701 0.0
H258 H 0.30529 0.35311 0.34565 0.0
H259 H 0.34096 0.36688 0.37916 0.0
H260 H 0.34448 0.35511 0.31342 0.0
H261 H 0.32341 0.22794 0.4802 0.0
H262 H 0.3235 0.26868 0.50738 0.0
H263 H 0.28849 0.25486 0.47235 0.0
H264 H 0.30602 0.38145 0.5371 0.0
H265 H 0.22144 0.34509 0.45719 0.0
H266 H 0.36625 0.35195 0.45917 0.0
H267 H 0.36069 0.31767 0.50104 0.0
H268 H 0.35887 0.35904 0.52575 0.0
H269 H 0.26255 0.30896 0.35731 0.0
H270 H 0.225 0.30517 0.39352 0.0
H271 H 0.25795 0.2759 0.40164 0.0
C272 C 0.78205 0.34327 0.63594 0.0
C273 C 0.76819 0.36246 0.59709 0.0
C274 C 0.76239 0.32256 0.66641 0.0
C275 C 0.72811 0.32021 0.65692 0.0
C276 C 0.71417 0.33879 0.61665 0.0
C277 C 0.73427 0.36007 0.58778 0.0
C278 C 0.77816 0.30387 0.70963 0.0
C279 C 0.67796 0.33632 0.60422 0.0
C280 C 0.68206 0.24494 0.70736 0.0
C281 C 0.66448 0.25814 0.74843 0.0
C282 C 0.70271 0.26483 0.67719 0.0
C283 C 0.70679 0.29857 0.68933 0.0
C284 C 0.68998 0.31173 0.73195 0.0
C285 C 0.66855 0.29151 0.76039 0.0
C286 C 0.7193 0.24997 0.63132 0.0
C287 C 0.6944 0.34727 0.74722 0.0
H288 H 0.80818 0.3453 0.64377 0.0
H289 H 0.72344 0.37482 0.55777 0.0
H290 H 0.76635 0.3109 0.74606 0.0
H291 H 0.77431 0.27703 0.70469 0.0
H292 H 0.80504 0.3087 0.71246 0.0
H293 H 0.67127 0.35099 0.57009 0.0
H294 H 0.67108 0.31022 0.59757 0.0
H295 H 0.66309 0.34516 0.6368 0.0
H296 H 0.67859 0.21927 0.69745 0.0
H297 H 0.655 0.3018 0.79208 0.0
H298 H 0.7464 0.25282 0.63423 0.0
H299 H 0.71137 0.26321 0.59649 0.0
H300 H 0.71347 0.2234 0.62687 0.0
H301 H 0.72097 0.3529 0.75206 0.0
H302 H 0.68132 0.35315 0.78315 0.0
H303 H 0.68494 0.36368 0.71684 0.0
C304 C 0.78853 0.6818 0.95129 0.0
C305 C 0.77448 0.66428 -0.00807 0.0
C306 C 0.76931 0.7026 0.92041 0.0
C307 C 0.73536 0.70669 0.93116 0.0
C308 C 0.72127 0.68973 0.97305 0.0
C309 C 0.74088 0.6684 0.00245 0.0
C310 C 0.78519 0.71956 0.87553 0.0
C311 C 0.6854 0.694 -0.0133 0.0
C312 C 0.69056 0.78222 0.87945 0.0
C313 C 0.67163 0.76867 0.84012 0.0
C314 C 0.71157 0.76245 0.90907 0.0
C315 C 0.71443 0.72839 0.89837 0.0
C316 C 0.69641 0.71487 0.85728 0.0
C317 C 0.67491 0.73506 0.82913 0.0
C318 C 0.72973 0.77778 0.9531 0.0
C319 C 0.69935 0.6789 0.84367 0.0
H320 H 0.81441 0.67846 0.94258 0.0
H321 H 0.7299 0.65499 0.03386 0.0
H322 H 0.77258 0.71208 0.84 0.0
H323 H 0.78247 0.74664 0.87896 0.0
H324 H 0.8118 0.71364 0.87204 0.0
H325 H 0.67855 0.68028 0.02173 0.0
H326 H 0.67982 0.72048 -0.00759 0.0
H327 H 0.66966 0.68522 0.9551 0.0
H328 H 0.68788 0.8081 0.8886 0.0
H329 H 0.66037 0.72443 0.79879 0.0
H330 H 0.75659 0.77347 0.94931 0.0
H331 H 0.72171 0.76601 -0.01086 0.0
H332 H 0.72536 0.80473 0.95587 0.0
H333 H 0.72562 0.67221 0.83831 0.0
H334 H 0.68561 0.67272 0.8085 0.0
H335 H 0.68965 0.66349 0.87518 0.0
C336 C 0.29349 0.67364 0.0868 0.0
C337 C 0.25992 0.66905 0.09736 0.0
C338 C 0.31284 0.69534 0.11588 0.0
C339 C 0.29851 0.71239 0.15731 0.0
C340 C 0.26456 0.70796 0.16794 0.0
C341 C 0.24564 0.68665 0.13756 0.0
C342 C 0.34875 0.69981 0.10251 0.0
C343 C 0.24838 0.72512 0.21221 0.0
C344 C 0.3578 0.74107 0.26057 0.0
C345 C 0.36127 0.77469 0.24933 0.0
C346 C 0.33676 0.72077 0.23189 0.0
C347 C 0.31925 0.7342 0.19016 0.0
C348 C 0.3223 0.76825 0.17911 0.0
C349 C 0.34298 0.78812 0.20911 0.0
C350 C 0.33372 0.68479 0.24576 0.0
C351 C 0.30454 0.7835 0.13455 0.0
H352 H 0.30468 0.66022 0.05573 0.0
H353 H 0.21978 0.68306 0.14627 0.0
H354 H 0.35425 0.72631 0.09644 0.0
H355 H 0.36437 0.69123 0.13443 0.0
H356 H 0.3558 0.68602 0.06779 0.0
H357 H 0.22172 0.71927 0.21526 0.0
H358 H 0.26065 0.71773 0.24811 0.0
H359 H 0.25126 0.75218 0.20838 0.0
H360 H 0.3718 0.73051 0.29162 0.0
H361 H 0.34574 0.81401 0.19983 0.0
H362 H 0.34332 0.66938 0.21434 0.0
H363 H 0.30742 0.67815 0.25122 0.0
H364 H 0.34744 0.67856 0.28096 0.0
H365 H 0.31276 0.77163 0.09881 0.0
H366 H 0.30903 0.81043 0.13149 0.0
H367 H 0.27764 0.77923 0.13796 0.0
C368 C 0.42728 0.94348 0.28876 0.0
C369 C 0.45394 0.93164 0.31746 0.0
C370 C 0.4235 0.97735 0.27883 0.0
C371 C 0.44679 1.0 0.29837 0.0
C372 C 0.47288 0.98834 0.3292 0.0
C373 C 0.47621 0.95439 0.33819 0.0
C374 C 0.39535 0.98874 0.24579 0.0
C375 C 0.498 1.01167 0.35141 0.0
C376 C 0.46573 0.08129 0.23253 0.0
C377 C 0.44997 0.10408 0.26429 0.0
C378 C 0.46345 0.04726 0.24176 0.0
C379 C 0.44535 0.03563 0.28422 0.0
C380 C 0.42819 0.0584 0.31514 0.0
C381 C 0.43052 0.09232 0.30461 0.0
C382 C 0.48159 0.02383 0.20721 0.0
C383 C 0.40872 0.04707 0.36085 0.0
H384 H 0.4099 0.92619 0.27249 0.0
H385 H 0.49671 0.94564 0.36081 0.0
H386 H 0.38155 1.00882 0.26474 0.0
H387 H 0.40518 0.99886 0.20963 0.0
H388 H 0.37794 0.96845 0.23681 0.0
H389 H 0.51551 0.99899 0.37726 0.0
H390 H 0.51225 0.02351 0.32034 0.0
H391 H 0.48547 0.03157 0.37279 0.0
H392 H 0.48049 0.0901 0.20095 0.0
H393 H 0.41831 0.10971 0.32947 0.0
H394 H 0.46481 1.00401 0.19412 0.0
H395 H 0.50196 1.01191 0.22843 0.0
H396 H 0.49211 0.03648 0.17342 0.0
H397 H 0.39156 0.02697 0.35025 0.0
H398 H 0.39433 0.0674 0.37821 0.0
H399 H 0.42578 0.03703 0.3899 0.0
C400 C 0.93949 0.4212 0.55113 0.0
C401 C 0.92823 0.44295 0.51341 0.0
C402 C 0.97332 0.41786 0.56135 0.0
C403 C 0.99642 0.43633 0.53266 0.0
C404 C 0.98527 0.45626 0.49192 0.0
C405 C 0.95134 0.45956 0.48309 0.0
C406 C 0.98412 0.39642 0.60517 0.0
C407 C 1.00909 0.47576 0.45956 0.0
C408 C 0.07552 0.46855 0.59086 0.0
C409 C 0.09941 0.44849 0.56803 0.0
C410 C 0.04183 0.46361 0.58176 0.0
C411 C 0.03163 0.43815 0.54861 0.0
C412 C 0.05545 0.41661 0.52771 0.0
C413 C 0.08907 0.42194 0.53785 0.0
C414 C 0.01724 0.48679 0.60563 0.0
C415 C 0.04562 0.38914 0.4923 0.0
H416 H 0.9218 0.40836 0.57489 0.0
H417 H 0.94283 0.47612 0.45353 0.0
H418 H 1.00537 0.38086 0.5941 0.0
H419 H 0.99227 0.41226 0.63705 0.0
H420 H 0.96392 0.38022 0.619 0.0
H421 H 0.99691 0.48696 0.42595 0.0
H422 H 0.02015 0.49577 0.48257 0.0
H423 H 0.02948 0.45978 0.44626 0.0
H424 H 0.08321 0.48888 0.61468 0.0
H425 H 0.1073 0.40632 0.51993 0.0
H426 H 0.99732 0.47267 0.62467 0.0
H427 H 1.00563 0.50213 0.57566 0.0
H428 H 0.02883 0.50341 0.63391 0.0
H429 H 0.02478 0.37482 0.5084 0.0
H430 H 0.06638 0.37208 0.4845 0.0
H431 H 0.03717 0.39978 0.45572 0.0
C432 C 0.60336 0.93747 0.8109 0.0
C433 C 0.57704 0.9255 0.78164 0.0
C434 C 0.6074 0.97143 0.8194 0.0
C435 C 0.58489 0.99397 0.79753 0.0
C436 C 0.55931 0.9821 0.76589 0.0
C437 C 0.55554 0.94806 0.75868 0.0
C438 C 0.63483 0.98305 0.85364 0.0
C439 C 0.53515 1.00533 0.74098 0.0
C440 C 0.56343 0.07623 0.85678 0.0
C441 C 0.57994 0.09837 0.82469 0.0
C442 C 0.56668 0.04207 0.85045 0.0
C443 C 0.5863 0.02972 0.81027 0.0
C444 C 0.60443 0.05193 0.77945 0.0
C445 C 0.60129 0.08603 0.78738 0.0
C446 C 0.54765 0.01924 0.88509 0.0
C447 C 0.62538 0.03984 0.73594 0.0
H448 H 0.62005 0.92024 0.82895 0.0
H449 H 0.53537 0.93908 0.73559 0.0
H450 H 0.64914 1.003 0.83501 0.0
H451 H 0.62418 0.99341 0.88898 0.0
H452 H 0.65194 0.9628 0.86409 0.0
H453 H 0.51834 0.99244 0.71434 0.0
H454 H 0.52005 0.01762 0.77051 0.0
H455 H 0.54853 0.02487 0.71981 0.0
H456 H 0.54714 0.08565 0.88597 0.0
H457 H 0.61396 0.10303 0.76223 0.0
H458 H 0.5639 0.99941 0.89966 0.0
H459 H 0.52748 1.00731 0.86345 0.0
H460 H 0.5367 0.03245 0.91791 0.0
H461 H 0.64161 0.01944 0.74849 0.0
H462 H 0.64088 0.05976 0.71947 0.0
H463 H 0.60919 0.03002 0.7056 0.0
C464 C 0.9559 0.56365 0.10555 0.0
C465 C 0.93238 0.58186 0.07842 0.0
C466 C 0.9897 0.56686 0.09509 0.0
C467 C 1.00034 0.58853 0.05611 0.0
C468 C 0.9769 0.60826 0.0304 0.0
C469 C 0.94323 0.60483 0.04205 0.0
C470 C 1.0139 0.54583 0.12415 0.0
C471 C 0.98716 0.63165 -0.01139 0.0
C472 C 0.0925 0.60613 0.05029 0.0
C473 C 0.10336 0.58204 0.01591 0.0
C474 C 0.05891 0.6094 0.06253 0.0
C475 C 0.03554 0.58824 0.03959 0.0
C476 C 0.04615 0.56505 0.00297 0.0
C477 C 0.07986 0.56215 -0.00826 0.0
C478 C 0.04864 0.63447 0.10168 0.0
C479 C 0.02201 0.54234 0.97701 0.0
H480 H 0.94784 0.5461 0.13407 0.0
H481 H 0.92531 0.61899 0.02074 0.0
H482 H 0.02507 0.52745 0.09822 0.0
H483 H 0.0342 0.56125 0.13929 0.0
H484 H 1.00208 0.53251 0.15627 0.0
H485 H 0.96657 0.64774 0.97612 0.0
H486 H 1.0079 0.64741 0.00129 0.0
H487 H 0.99594 0.61735 0.9554 0.0
H488 H 0.11037 0.62166 0.06927 0.0
H489 H 0.08786 0.54367 0.96478 0.0
H490 H 0.03969 0.62161 0.13628 0.0
H491 H 0.02799 0.64967 0.08716 0.0
H492 H 0.06924 0.65104 0.11254 0.0
H493 H 1.01084 0.52545 0.00542 0.0
H494 H 0.03384 0.52731 0.94691 0.0
H495 H 1.0017 0.55679 0.95975 0.0
C496 C 0.51938 0.21811 0.92316 0.0
C497 C 0.55338 0.21208 0.92708 0.0
C498 C 0.49876 0.21718 0.9657 0.0
C499 C 0.51231 0.21019 0.01385 0.0
C500 C 0.54658 0.20375 0.01834 0.0
C501 C 0.56681 0.2048 0.97476 0.0
C502 C 0.46249 0.22441 0.95916 0.0
C503 C 0.56184 0.19616 0.06924 0.0
C504 C 0.46766 0.24416 0.12884 0.0
C505 C 0.45109 0.21635 0.14723 0.0
C506 C 0.48722 0.24254 0.08508 0.0
C507 C 0.49084 0.21209 0.05965 0.0
C508 C 0.4733 0.18403 0.07726 0.0
C509 C 0.45348 0.18653 0.121 0.0
C510 C 0.50495 0.27317 0.06717 0.0
C511 C 0.47665 0.15113 0.05125 0.0
H512 H 0.50865 0.22385 0.88653 0.0
H513 H 0.59297 0.19993 0.978 0.0
H514 H 0.44751 0.20397 0.97509 0.0
H515 H 0.45591 0.24704 0.98038 0.0
H516 H 0.45557 0.22793 0.9187 0.0
H517 H 0.58847 0.1902 0.0661 0.0
H518 H 0.55896 0.21761 0.09487 0.0
H519 H 0.54893 0.17505 0.08729 0.0
H520 H 0.46639 0.26697 0.15012 0.0
H521 H 0.44157 0.16477 0.13645 0.0
H522 H 0.49882 0.27834 0.02688 0.0
H523 H 0.53197 0.26932 0.06931 0.0
H524 H 0.49853 0.29515 0.09017 0.0
H525 H 0.47061 0.15351 0.01033 0.0
H526 H 0.46039 0.13207 0.0684 0.0
H527 H 0.50254 0.14258 0.05381 0.0
C528 C 0.78869 0.54593 0.19741 0.0
C529 C 0.81304 0.56997 0.19019 0.0
C530 C 0.7884 0.52585 0.24065 0.0
C531 C 0.81345 0.52954 0.27743 0.0
C532 C 0.83771 0.55446 0.2711 0.0
C533 C 0.83714 0.57461 0.22742 0.0
C534 C 0.76167 0.50016 0.24632 0.0
C535 C 0.86483 0.55903 0.30957 0.0
C536 C 0.7944 0.49737 0.40925 0.0
C537 C 0.81039 0.46674 0.40969 0.0
C538 C 0.79548 0.51802 0.36671 0.0
C539 C 0.81323 0.50799 0.32329 0.0
C540 C 0.8291 0.47681 0.32299 0.0
C541 C 0.82735 0.45636 0.3663 0.0
C542 C 0.77767 0.55067 0.36839 0.0
C543 C 0.8483 0.46538 0.27724 0.0
H544 H 0.77027 0.54217 0.16817 0.0
H545 H 0.85644 0.59264 0.22109 0.0
H546 H 0.77279 0.47522 0.24713 0.0
H547 H 0.74843 0.50359 0.2828 0.0
H548 H 0.74346 0.50117 0.2149 0.0
H549 H 0.88137 0.57991 0.2997 0.0
H550 H 0.85416 0.56346 0.34774 0.0
H551 H 0.87976 0.5362 0.31211 0.0
H552 H 0.78117 0.50546 0.44278 0.0
H553 H 0.84012 0.43293 0.36685 0.0
H554 H 0.75908 0.55185 0.3376 0.0
H555 H 0.79535 0.57111 0.36193 0.0
H556 H 0.76501 0.55479 0.40525 0.0
H557 H 0.83192 0.46429 0.24358 0.0
H558 H 0.8595 0.44072 0.28316 0.0
H559 H 0.86816 0.48331 0.26842 0.0
C560 C 0.52765 0.80565 0.66335 0.0
C561 C 0.56024 0.81735 0.66306 0.0
C562 C 0.50756 0.80794 0.62033 0.0
C563 C 0.52014 0.82251 0.57554 0.0
C564 C 0.55291 0.83481 0.57495 0.0
C565 C 0.57271 0.83192 0.61875 0.0
C566 C 0.47305 0.79399 0.62255 0.0
C567 C 0.56707 0.85075 0.52792 0.0
C568 C 0.48261 0.79439 0.45116 0.0
C569 C 0.46042 0.8198 0.44013 0.0
C570 C 0.50195 0.79498 0.49514 0.0
C571 C 0.49975 0.82217 0.52845 0.0
C572 C 0.47711 0.8479 0.51774 0.0
C573 C 0.45738 0.84626 0.47375 0.0
C574 C 0.52498 0.76656 0.50566 0.0
C575 C 0.47441 0.8775 0.552 0.0
H576 H 0.51774 0.79429 0.6974 0.0
H577 H 0.59772 0.8413 0.61845 0.0
H578 H 0.45487 0.81312 0.6117 0.0
H579 H 0.47063 0.77353 0.59495 0.0
H580 H 0.46658 0.78453 0.66092 0.0
H581 H 0.59214 0.86086 0.53444 0.0
H582 H 0.56837 0.83246 0.49677 0.0
H583 H 0.55074 0.87097 0.5149 0.0
H584 H 0.48513 0.77408 0.42475 0.0
H585 H 0.44082 0.86631 0.46443 0.0
H586 H 0.51933 0.75556 0.5433 0.0
H587 H 0.55079 0.7755 0.50691 0.0
H588 H 0.52318 0.74695 0.47644 0.0
H589 H 0.46789 0.86961 0.5911 0.0
H590 H 0.45564 0.89537 0.53848 0.0
H591 H 0.4986 0.89019 0.55415 0.0
C592 C 0.18965 0.58108 0.86448 0.0
C593 C 0.21743 0.57929 0.89576 0.0
C594 C 0.18741 0.56145 0.82053 0.0
C595 C 0.21368 0.53992 0.80782 0.0
C596 C 0.24229 0.53927 0.83841 0.0
C597 C 0.24364 0.55872 0.88216 0.0
C598 C 0.15646 0.56269 0.78892 0.0
C599 C 0.27114 0.51726 0.82583 0.0
C600 C 0.20193 0.46499 0.72226 0.0
C601 C 0.21391 0.47704 0.67591 0.0
C602 C 0.20068 0.48551 0.76538 0.0
C603 C 0.212 0.51857 0.76192 0.0
C604 C 0.22411 0.53065 0.71515 0.0
C605 C 0.22482 0.50984 0.6729 0.0
C606 C 0.18741 0.47186 0.81467 0.0
C607 C 0.23694 0.56545 0.70987 0.0
H608 H 0.16898 0.59624 0.87596 0.0
H609 H 0.26486 0.55698 0.90702 0.0
H610 H 0.16263 0.56803 0.74869 0.0
H611 H 0.14409 0.53831 0.78991 0.0
H612 H 0.13888 0.58162 0.80267 0.0
H613 H 0.29205 0.52065 0.85251 0.0
H614 H 0.26332 0.49109 0.82722 0.0
H615 H 0.27997 0.52234 0.78669 0.0
H616 H 0.19319 0.4398 0.72465 0.0
H617 H 0.23424 0.51939 0.63723 0.0
H618 H 0.1671 0.48765 0.8288 0.0
H619 H 0.20704 0.47206 0.84395 0.0
H620 H 0.17811 0.44626 0.81059 0.0
H621 H 0.2178 0.58331 0.7218 0.0
H622 H 0.24453 0.57139 0.67034 0.0
H623 H 0.25848 0.569 0.73518 0.0
loop_
_geom_bond_atom_site_label_1
_geom_bond_atom_site_label_2
_geom_bond_distance
_geom_bond_site_symmetry_2
_ccdc_geom_bond_type
Co0 O1 2.216 . S
Co0 O2 2.091 . S
Co0 O4 2.004 . S
Co0 O10 2.021 . S
Co0 O12 2.137 . S
Co0 O13 2.244 . S
O1 Co0 2.216 . S
O1 C8 1.247 . S
O2 Co0 2.091 . S
O2 C8 1.261 . S
C3 O12 1.247 . S
C3 O13 1.272 . S
O4 Co0 2.004 . S
O4 C9 1.259 . S
Co5 O6 2.061 . S
Co5 O11 2.052 . S
Co5 O13 2.135 . S
O6 Co5 2.061 . S
O6 C9 1.235 . S
C7 O10 1.238 . S
C7 O11 1.241 . S
C8 O1 1.247 . S
C8 O2 1.261 . S
C9 O4 1.259 . S
C9 O6 1.235 . S
O10 Co0 2.021 . S
O10 C7 1.238 . S
O11 Co5 2.052 . S
O11 C7 1.241 . S
O12 Co0 2.137 . S
O12 C3 1.247 . S
O13 Co0 2.244 . S
O13 C3 1.272 . S
O13 Co5 2.135 . S
Co14 O15 2.216 . S
Co14 O16 2.091 . S
Co14 O18 2.004 . S
Co14 O24 2.021 . S
Co14 O26 2.137 . S
Co14 O27 2.244 . S
O15 Co14 2.216 . S
O15 C22 1.247 . S
O16 Co14 2.091 . S
O16 C22 1.261 . S
C17 O26 1.247 . S
C17 O27 1.272 . S
O18 Co14 2.004 . S
O18 C23 1.259 . S
Co19 O20 2.061 . S
Co19 O25 2.052 . S
Co19 O27 2.135 . S
O20 Co19 2.061 . S
O20 C23 1.235 . S
C21 O24 1.238 . S
C21 O25 1.241 . S
C22 O15 1.247 . S
C22 O16 1.261 . S
C23 O18 1.259 . S
C23 O20 1.235 . S
O24 Co14 2.021 . S
O24 C21 1.238 . S
O25 Co19 2.052 . S
O25 C21 1.241 . S
O26 Co14 2.137 . S
O26 C17 1.247 . S
O27 Co14 2.244 . S
O27 C17 1.272 . S
O27 Co19 2.135 . S
Co28 O29 2.216 . S
Co28 O30 2.091 . S
Co28 O32 2.004 . S
Co28 O38 2.021 . S
Co28 O40 2.137 . S
Co28 O41 2.244 . S
O29 Co28 2.216 . S
O29 C36 1.247 . S
O30 Co28 2.091 . S
O30 C36 1.261 . S
C31 O40 1.247 . S
C31 O41 1.272 . S
O32 Co28 2.004 . S
O32 C37 1.259 . S
Co33 O34 2.061 . S
Co33 O39 2.052 . S
Co33 O41 2.135 . S
O34 Co33 2.061 . S
O34 C37 1.235 . S
C35 O38 1.238 . S
C35 O39 1.241 . S
C36 O29 1.247 . S
C36 O30 1.261 . S
C37 O32 1.259 . S
C37 O34 1.235 . S
O38 Co28 2.021 . S
O38 C35 1.238 . S
O39 Co33 2.052 . S
O39 C35 1.241 . S
O40 Co28 2.137 . S
O40 C31 1.247 . S
O41 Co28 2.244 . S
O41 C31 1.272 . S
O41 Co33 2.135 . S
Co42 O43 2.216 . S
Co42 O44 2.091 . S
Co42 O46 2.004 . S
Co42 O52 2.021 . S
Co42 O54 2.137 1_554 S
Co42 O55 2.244 . S
O43 Co42 2.216 . S
O43 C50 1.247 . S
O44 Co42 2.091 . S
O44 C50 1.261 . S
C45 O54 1.247 . S
C45 O55 1.272 1_556 S
O46 Co42 2.004 . S
O46 C51 1.259 . S
Co47 O48 2.061 . S
Co47 O53 2.052 . S
Co47 O55 2.135 . S
O48 Co47 2.061 . S
O48 C51 1.235 . S
C49 O52 1.238 . S
C49 O53 1.241 . S
C50 O43 1.247 . S
C50 O44 1.261 . S
C51 O46 1.259 . S
C51 O48 1.235 . S
O52 Co42 2.021 . S
O52 C49 1.238 . S
O53 Co47 2.052 . S
O53 C49 1.241 . S
O54 Co42 2.137 1_556 S
O54 C45 1.247 . S
O55 Co42 2.244 . S
O55 C45 1.272 1_554 S
O55 Co47 2.135 . S
Co56 O57 2.216 . S
Co56 O58 2.091 . S
Co56 O60 2.004 . S
Co56 O66 2.021 . S
Co56 O68 2.137 . S
Co56 O69 2.244 . S
O57 Co56 2.216 . S
O57 C64 1.247 . S
O58 Co56 2.091 . S
O58 C64 1.261 . S
C59 O68 1.247 . S
C59 O69 1.272 . S
O60 Co56 2.004 . S
O60 C65 1.259 . S
Co61 O62 2.061 . S
Co61 O67 2.052 . S
Co61 O69 2.135 . S
O62 Co61 2.061 . S
O62 C65 1.235 . S
C63 O66 1.238 . S
C63 O67 1.241 . S
C64 O57 1.247 . S
C64 O58 1.261 . S
C65 O60 1.259 . S
C65 O62 1.235 . S
O66 Co56 2.021 . S
O66 C63 1.238 . S
O67 Co61 2.052 . S
O67 C63 1.241 . S
O68 Co56 2.137 . S
O68 C59 1.247 . S
O69 Co56 2.244 . S
O69 C59 1.272 . S
O69 Co61 2.135 . S
Co70 O71 2.216 . S
Co70 O72 2.091 . S
Co70 O74 2.004 . S
Co70 O80 2.021 . S
Co70 O82 2.137 . S
Co70 O83 2.244 . S
O71 Co70 2.216 . S
O71 C78 1.247 . S
O72 Co70 2.091 . S
O72 C78 1.261 . S
C73 O82 1.247 . S
C73 O83 1.272 . S
O74 Co70 2.004 . S
O74 C79 1.259 . S
Co75 O76 2.061 . S
Co75 O81 2.052 . S
Co75 O83 2.135 . S
O76 Co75 2.061 . S
O76 C79 1.235 . S
C77 O80 1.238 . S
C77 O81 1.241 . S
C78 O71 1.247 . S
C78 O72 1.261 . S
C79 O74 1.259 . S
C79 O76 1.235 . S
O80 Co70 2.021 . S
O80 C77 1.238 . S
O81 Co75 2.052 . S
O81 C77 1.241 . S
O82 Co70 2.137 . S
O82 C73 1.247 . S
O83 Co70 2.244 . S
O83 C73 1.272 . S
O83 Co75 2.135 . S
Co84 O85 2.216 . S
Co84 O86 2.091 . S
Co84 O88 2.004 . S
Co84 O94 2.021 . S
Co84 O96 2.137 . S
Co84 O97 2.244 . S
O85 Co84 2.216 . S
O85 C92 1.247 . S
O86 Co84 2.091 . S
O86 C92 1.261 . S
C87 O96 1.247 . S
C87 O97 1.272 . S
O88 Co84 2.004 . S
O88 C93 1.259 . S
Co89 O90 2.061 . S
Co89 O95 2.052 . S
Co89 O97 2.135 . S
O90 Co89 2.061 . S
O90 C93 1.235 . S
C91 O94 1.238 . S
C91 O95 1.241 . S
C92 O85 1.247 . S
C92 O86 1.261 . S
C93 O88 1.259 . S
C93 O90 1.235 . S
O94 Co84 2.021 . S
O94 C91 1.238 . S
O95 Co89 2.052 . S
O95 C91 1.241 . S
O96 Co84 2.137 . S
O96 C87 1.247 . S
O97 Co84 2.244 . S
O97 C87 1.272 . S
O97 Co89 2.135 . S
Co98 O99 2.216 . S
Co98 O100 2.091 . S
Co98 O102 2.004 . S
Co98 O108 2.021 1_554 S
Co98 O110 2.137 . S
Co98 O111 2.244 . S
O99 Co98 2.216 . S
O99 C106 1.247 . S
O100 Co98 2.091 . S
O100 C106 1.261 . S
C101 O110 1.247 . S
C101 O111 1.272 . S
O102 Co98 2.004 . S
O102 C107 1.259 . S
Co103 O104 2.061 . S
Co103 O109 2.052 1_554 S
Co103 O111 2.135 . S
O104 Co103 2.061 . S
O104 C107 1.235 . S
C105 O108 1.238 . S
C105 O109 1.241 . S
C106 O99 1.247 . S
C106 O100 1.261 . S
C107 O102 1.259 . S
C107 O104 1.235 . S
O108 Co98 2.021 1_556 S
O108 C105 1.238 . S
O109 Co103 2.052 1_556 S
O109 C105 1.241 . S
O110 Co98 2.137 . S
O110 C101 1.247 . S
O111 Co98 2.244 . S
O111 C101 1.272 . S
O111 Co103 2.135 . S
C112 C113 1.391 . S
C112 C114 1.394 . S
C112 H128 0.931 . S
C113 C112 1.391 . S
C113 C117 1.376 . S
C114 C112 1.394 . S
C114 C115 1.369 . S
C114 C118 1.531 . S
C115 C114 1.369 . S
C115 C116 1.410 . S
C115 C123 1.503 . S
C116 C115 1.410 . S
C116 C117 1.392 . S
C116 C119 1.511 . S
C117 C113 1.376 . S
C117 C116 1.392 . S
C117 H129 0.929 . S
C118 C114 1.531 . S
C118 H130 0.960 . S
C118 H131 0.962 . S
C118 H132 0.960 . S
C119 C116 1.511 . S
C119 H133 0.961 . S
C119 H134 0.961 . S
C119 H135 0.961 . S
C120 C121 1.370 . S
C120 C122 1.363 . S
C120 H136 0.931 . S
C121 C120 1.370 . S
C121 C125 1.408 . S
C122 C120 1.363 . S
C122 C123 1.370 . S
C122 C126 1.524 . S
C123 C115 1.503 . S
C123 C122 1.370 . S
C123 C124 1.403 . S
C124 C123 1.403 . S
C124 C125 1.404 . S
C124 C127 1.539 . S
C125 C121 1.408 . S
C125 C124 1.404 . S
C125 H137 0.930 . S
C126 C122 1.524 . S
C126 H138 0.956 . S
C126 H139 0.961 . S
C126 H140 0.961 . S
C127 C124 1.539 . S
C127 H141 0.958 . S
C127 H142 0.961 . S
C127 H143 0.960 . S
H128 C112 0.931 . S
H129 C117 0.929 . S
H130 C118 0.960 . S
H131 C118 0.962 . S
H132 C118 0.960 . S
H133 C119 0.961 . S
H134 C119 0.961 . S
H135 C119 0.961 . S
H136 C120 0.931 . S
H137 C125 0.930 . S
H138 C126 0.956 . S
H139 C126 0.961 . S
H140 C126 0.961 . S
H141 C127 0.958 . S
H142 C127 0.961 . S
H143 C127 0.960 . S
C144 C145 1.391 . S
C144 C146 1.394 . S
C144 H160 0.931 . S
C145 C144 1.391 . S
C145 C149 1.376 . S
C146 C144 1.394 . S
C146 C147 1.369 . S
C146 C150 1.531 . S
C147 C146 1.369 . S
C147 C148 1.410 . S
C147 C155 1.503 . S
C148 C147 1.410 . S
C148 C149 1.392 . S
C148 C151 1.511 . S
C149 C145 1.376 . S
C149 C148 1.392 . S
C149 H161 0.929 . S
C150 C146 1.531 . S
C150 H162 0.960 . S
C150 H163 0.962 . S
C150 H164 0.960 . S
C151 C148 1.511 . S
C151 H165 0.961 . S
C151 H166 0.961 . S
C151 H167 0.961 . S
C152 C153 1.370 . S
C152 C154 1.363 . S
C152 H168 0.931 . S
C153 C152 1.370 . S
C153 C157 1.408 . S
C154 C152 1.363 . S
C154 C155 1.370 . S
C154 C158 1.524 . S
C155 C147 1.503 . S
C155 C154 1.370 . S
C155 C156 1.403 . S
C156 C155 1.403 . S
C156 C157 1.404 . S
C156 C159 1.539 . S
C157 C153 1.408 . S
C157 C156 1.404 . S
C157 H169 0.930 . S
C158 C154 1.524 . S
C158 H170 0.956 . S
C158 H171 0.961 . S
C158 H172 0.961 . S
C159 C156 1.539 . S
C159 H173 0.958 . S
C159 H174 0.961 . S
C159 H175 0.960 . S
H160 C144 0.931 . S
H161 C149 0.929 . S
H162 C150 0.960 . S
H163 C150 0.962 . S
H164 C150 0.960 . S
H165 C151 0.961 . S
H166 C151 0.961 . S
H167 C151 0.961 . S
H168 C152 0.931 . S
H169 C157 0.930 . S
H170 C158 0.956 . S
H171 C158 0.961 . S
H172 C158 0.961 . S
H173 C159 0.958 . S
H174 C159 0.961 . S
H175 C159 0.960 . S
C176 C177 1.391 . S
C176 C178 1.394 . S
C176 H192 0.931 . S
C177 C176 1.391 . S
C177 C181 1.376 . S
C178 C176 1.394 . S
C178 C179 1.369 . S
C178 C182 1.531 . S
C179 C178 1.369 . S
C179 C180 1.410 . S
C179 C187 1.503 . S
C180 C179 1.410 . S
C180 C181 1.392 . S
C180 C183 1.511 . S
C181 C177 1.376 . S
C181 C180 1.392 . S
C181 H193 0.929 . S
C182 C178 1.531 . S
C182 H194 0.960 . S
C182 H195 0.962 . S
C182 H196 0.960 . S
C183 C180 1.511 . S
C183 H197 0.961 . S
C183 H198 0.961 . S
C183 H199 0.961 . S
C184 C185 1.370 . S
C184 C186 1.363 . S
C184 H200 0.931 . S
C185 C184 1.370 . S
C185 C189 1.408 . S
C186 C184 1.363 . S
C186 C187 1.370 1_556 S
C186 C190 1.524 1_556 S
C187 C179 1.503 . S
C187 C186 1.370 1_554 S
C187 C188 1.403 . S
C188 C187 1.403 . S
C188 C189 1.404 1_554 S
C188 C191 1.539 . S
C189 C185 1.408 . S
C189 C188 1.404 1_556 S
C189 H201 0.930 . S
C190 C186 1.524 1_554 S
C190 H202 0.956 . S
C190 H203 0.961 . S
C190 H204 0.961 1_554 S
C191 C188 1.539 . S
C191 H205 0.958 . S
C191 H206 0.961 . S
C191 H207 0.960 . S
H192 C176 0.931 . S
H193 C181 0.929 . S
H194 C182 0.960 . S
H195 C182 0.962 . S
H196 C182 0.960 . S
H197 C183 0.961 . S
H198 C183 0.961 . S
H199 C183 0.961 . S
H200 C184 0.931 . S
H201 C189 0.930 . S
H202 C190 0.956 . S
H203 C190 0.961 . S
H204 C190 0.961 1_556 S
H205 C191 0.958 . S
H206 C191 0.961 . S
H207 C191 0.960 . S
C208 C209 1.391 . S
C208 C210 1.394 . S
C208 H224 0.931 . S
C209 C208 1.391 . S
C209 C213 1.376 . S
C210 C208 1.394 . S
C210 C211 1.369 . S
C210 C214 1.531 . S
C211 C210 1.369 . S
C211 C212 1.410 . S
C211 C219 1.503 . S
C212 C211 1.410 . S
C212 C213 1.392 . S
C212 C215 1.511 . S
C213 C209 1.376 . S
C213 C212 1.392 . S
C213 H225 0.929 . S
C214 C210 1.531 . S
C214 H226 0.960 . S
C214 H227 0.962 . S
C214 H228 0.960 . S
C215 C212 1.511 . S
C215 H229 0.961 . S
C215 H230 0.961 . S
C215 H231 0.961 . S
C216 C217 1.370 . S
C216 C218 1.363 . S
C216 H232 0.931 . S
C217 C216 1.370 . S
C217 C221 1.408 . S
C218 C216 1.363 . S
C218 C219 1.370 . S
C218 C222 1.524 . S
C219 C211 1.503 . S
C219 C218 1.370 . S
C219 C220 1.403 . S
C220 C219 1.403 . S
C220 C221 1.404 . S
C220 C223 1.539 . S
C221 C217 1.408 . S
C221 C220 1.404 . S
C221 H233 0.930 . S
C222 C218 1.524 . S
C222 H234 0.956 . S
C222 H235 0.961 . S
C222 H236 0.961 . S
C223 C220 1.539 . S
C223 H237 0.958 . S
C223 H238 0.961 . S
C223 H239 0.960 . S
H224 C208 0.931 . S
H225 C213 0.929 . S
H226 C214 0.960 . S
H227 C214 0.962 . S
H228 C214 0.960 . S
H229 C215 0.961 . S
H230 C215 0.961 . S
H231 C215 0.961 . S
H232 C216 0.931 . S
H233 C221 0.930 . S
H234 C222 0.956 . S
H235 C222 0.961 . S
H236 C222 0.961 . S
H237 C223 0.958 . S
H238 C223 0.961 . S
H239 C223 0.960 . S
C240 C241 1.391 . S
C240 C242 1.394 . S
C240 H256 0.931 . S
C241 C240 1.391 . S
C241 C245 1.376 . S
C242 C240 1.394 . S
C242 C243 1.369 . S
C242 C246 1.531 . S
C243 C242 1.369 . S
C243 C244 1.410 . S
C243 C251 1.503 . S
C244 C243 1.410 . S
C244 C245 1.392 . S
C244 C247 1.511 . S
C245 C241 1.376 . S
C245 C244 1.392 . S
C245 H257 0.929 . S
C246 C242 1.531 . S
C246 H258 0.960 . S
C246 H259 0.962 . S
C246 H260 0.960 . S
C247 C244 1.511 . S
C247 H261 0.961 . S
C247 H262 0.961 . S
C247 H263 0.961 . S
C248 C249 1.370 . S
C248 C250 1.363 . S
C248 H264 0.931 . S
C249 C248 1.370 . S
C249 C253 1.408 . S
C250 C248 1.363 . S
C250 C251 1.370 . S
C250 C254 1.524 . S
C251 C243 1.503 . S
C251 C250 1.370 . S
C251 C252 1.403 . S
C252 C251 1.403 . S
C252 C253 1.404 . S
C252 C255 1.539 . S
C253 C249 1.408 . S
C253 C252 1.404 . S
C253 H265 0.930 . S
C254 C250 1.524 . S
C254 H266 0.956 . S
C254 H267 0.961 . S
C254 H268 0.961 . S
C255 C252 1.539 . S
C255 H269 0.958 . S
C255 H270 0.961 . S
C255 H271 0.960 . S
H256 C240 0.931 . S
H257 C245 0.929 . S
H258 C246 0.960 . S
H259 C246 0.962 . S
H260 C246 0.960 . S
H261 C247 0.961 . S
H262 C247 0.961 . S
H263 C247 0.961 . S
H264 C248 0.931 . S
H265 C253 0.930 . S
H266 C254 0.956 . S
H267 C254 0.961 . S
H268 C254 0.961 . S
H269 C255 0.958 . S
H270 C255 0.961 . S
H271 C255 0.960 . S
C272 C273 1.391 . S
C272 C274 1.394 . S
C272 H288 0.931 . S
C273 C272 1.391 . S
C273 C277 1.376 . S
C274 C272 1.394 . S
C274 C275 1.369 . S
C274 C278 1.531 . S
C275 C274 1.369 . S
C275 C276 1.410 . S
C275 C283 1.503 . S
C276 C275 1.410 . S
C276 C277 1.392 . S
C276 C279 1.511 . S
C277 C273 1.376 . S
C277 C276 1.392 . S
C277 H289 0.929 . S
C278 C274 1.531 . S
C278 H290 0.960 . S
C278 H291 0.962 . S
C278 H292 0.960 . S
C279 C276 1.511 . S
C279 H293 0.961 . S
C279 H294 0.961 . S
C279 H295 0.961 . S
C280 C281 1.370 . S
C280 C282 1.363 . S
C280 H296 0.931 . S
C281 C280 1.370 . S
C281 C285 1.408 . S
C282 C280 1.363 . S
C282 C283 1.370 . S
C282 C286 1.524 . S
C283 C275 1.503 . S
C283 C282 1.370 . S
C283 C284 1.403 . S
C284 C283 1.403 . S
C284 C285 1.404 . S
C284 C287 1.539 . S
C285 C281 1.408 . S
C285 C284 1.404 . S
C285 H297 0.930 . S
C286 C282 1.524 . S
C286 H298 0.956 . S
C286 H299 0.961 . S
C286 H300 0.961 . S
C287 C284 1.539 . S
C287 H301 0.958 . S
C287 H302 0.961 . S
C287 H303 0.960 . S
H288 C272 0.931 . S
H289 C277 0.929 . S
H290 C278 0.960 . S
H291 C278 0.962 . S
H292 C278 0.960 . S
H293 C279 0.961 . S
H294 C279 0.961 . S
H295 C279 0.961 . S
H296 C280 0.931 . S
H297 C285 0.930 . S
H298 C286 0.956 . S
H299 C286 0.961 . S
H300 C286 0.961 . S
H301 C287 0.958 . S
H302 C287 0.961 . S
H303 C287 0.960 . S
C304 C305 1.391 1_556 S
C304 C306 1.394 . S
C304 H320 0.931 . S
C305 C304 1.391 1_554 S
C305 C309 1.376 . S
C306 C304 1.394 . S
C306 C307 1.369 . S
C306 C310 1.531 . S
C307 C306 1.369 . S
C307 C308 1.410 . S
C307 C315 1.503 . S
C308 C307 1.410 . S
C308 C309 1.392 1_556 S
C308 C311 1.511 1_556 S
C309 C305 1.376 . S
C309 C308 1.392 1_554 S
C309 H321 0.929 . S
C310 C306 1.531 . S
C310 H322 0.960 . S
C310 H323 0.962 . S
C310 H324 0.960 . S
C311 C308 1.511 1_554 S
C311 H325 0.961 . S
C311 H326 0.961 1_554 S
C311 H327 0.961 1_554 S
C312 C313 1.370 . S
C312 C314 1.363 . S
C312 H328 0.931 . S
C313 C312 1.370 . S
C313 C317 1.408 . S
C314 C312 1.363 . S
C314 C315 1.370 . S
C314 C318 1.524 . S
C315 C307 1.503 . S
C315 C314 1.370 . S
C315 C316 1.403 . S
C316 C315 1.403 . S
C316 C317 1.404 . S
C316 C319 1.539 . S
C317 C313 1.408 . S
C317 C316 1.404 . S
C317 H329 0.930 . S
C318 C314 1.524 . S
C318 H330 0.956 . S
C318 H331 0.958 1_556 S
C318 H332 0.961 . S
C319 C316 1.539 . S
C319 H333 0.958 . S
C319 H334 0.961 . S
C319 H335 0.960 . S
H320 C304 0.931 . S
H321 C309 0.929 . S
H322 C310 0.960 . S
H323 C310 0.962 . S
H324 C310 0.960 . S
H325 C311 0.961 . S
H326 C311 0.961 1_556 S
H327 C311 0.961 1_556 S
H328 C312 0.931 . S
H329 C317 0.930 . S
H330 C318 0.956 . S
H331 C318 0.958 1_554 S
H332 C318 0.961 . S
H333 C319 0.958 . S
H334 C319 0.961 . S
H335 C319 0.960 . S
C336 C337 1.391 . S
C336 C338 1.394 . S
C336 H352 0.931 . S
C337 C336 1.391 . S
C337 C341 1.376 . S
C338 C336 1.394 . S
C338 C339 1.369 . S
C338 C342 1.531 . S
C339 C338 1.369 . S
C339 C340 1.410 . S
C339 C347 1.503 . S
C340 C339 1.410 . S
C340 C341 1.392 . S
C340 C343 1.511 . S
C341 C337 1.376 . S
C341 C340 1.392 . S
C341 H353 0.929 . S
C342 C338 1.531 . S
C342 H354 0.960 . S
C342 H355 0.962 . S
C342 H356 0.960 . S
C343 C340 1.511 . S
C343 H357 0.961 . S
C343 H358 0.961 . S
C343 H359 0.961 . S
C344 C345 1.370 . S
C344 C346 1.363 . S
C344 H360 0.931 . S
C345 C344 1.370 . S
C345 C349 1.408 . S
C346 C344 1.363 . S
C346 C347 1.370 . S
C346 C350 1.524 . S
C347 C339 1.503 . S
C347 C346 1.370 . S
C347 C348 1.403 . S
C348 C347 1.403 . S
C348 C349 1.404 . S
C348 C351 1.539 . S
C349 C345 1.408 . S
C349 C348 1.404 . S
C349 H361 0.930 . S
C350 C346 1.524 . S
C350 H362 0.956 . S
C350 H363 0.961 . S
C350 H364 0.961 . S
C351 C348 1.539 . S
C351 H365 0.958 . S
C351 H366 0.961 . S
C351 H367 0.960 . S
H352 C336 0.931 . S
H353 C341 0.929 . S
H354 C342 0.960 . S
H355 C342 0.962 . S
H356 C342 0.960 . S
H357 C343 0.961 . S
H358 C343 0.961 . S
H359 C343 0.961 . S
H360 C344 0.931 . S
H361 C349 0.930 . S
H362 C350 0.956 . S
H363 C350 0.961 . S
H364 C350 0.961 . S
H365 C351 0.958 . S
H366 C351 0.961 . S
H367 C351 0.960 . S
C368 C369 1.391 . S
C368 C370 1.394 . S
C368 H384 0.931 . S
C369 C368 1.391 . S
C369 C373 1.376 . S
C370 C368 1.394 . S
C370 C371 1.369 . S
C370 C374 1.531 . S
C371 C370 1.369 . S
C371 C372 1.410 . S
C371 C379 1.503 1_565 S
C372 C371 1.410 . S
C372 C373 1.392 . S
C372 C375 1.511 . S
C373 C369 1.376 . S
C373 C372 1.392 . S
C373 H385 0.929 . S
C374 C370 1.531 . S
C374 H386 0.960 1_565 S
C374 H387 0.962 . S
C374 H388 0.960 . S
C375 C372 1.511 . S
C375 H389 0.961 . S
C375 H390 0.961 1_565 S
C375 H391 0.961 . S
C376 C377 1.370 . S
C376 C378 1.363 . S
C376 H392 0.931 . S
C377 C376 1.370 . S
C377 C381 1.408 . S
C378 C376 1.363 . S
C378 C379 1.370 . S
C378 C382 1.524 . S
C379 C371 1.503 1_545 S
C379 C378 1.370 . S
C379 C380 1.403 . S
C380 C379 1.403 . S
C380 C381 1.404 . S
C380 C383 1.539 . S
C381 C377 1.408 . S
C381 C380 1.404 . S
C381 H393 0.930 . S
C382 C378 1.524 . S
C382 H394 0.956 . S
C382 H395 0.962 . S
C382 H396 0.961 . S
C383 C380 1.539 . S
C383 H397 0.958 . S
C383 H398 0.961 . S
C383 H399 0.960 1_545 S
H384 C368 0.931 . S
H385 C373 0.929 . S
H386 C374 0.960 1_545 S
H387 C374 0.962 . S
H388 C374 0.960 . S
H389 C375 0.961 . S
H390 C375 0.961 1_545 S
H391 C375 0.961 . S
H392 C376 0.931 . S
H393 C381 0.930 . S
H394 C382 0.956 . S
H395 C382 0.962 . S
H396 C382 0.961 . S
H397 C383 0.958 . S
H398 C383 0.961 . S
H399 C383 0.960 1_565 S
C400 C401 1.391 . S
C400 C402 1.394 . S
C400 H416 0.931 . S
C401 C400 1.391 . S
C401 C405 1.376 . S
C402 C400 1.394 . S
C402 C403 1.369 . S
C402 C406 1.531 . S
C403 C402 1.369 . S
C403 C404 1.410 . S
C403 C411 1.503 1_655 S
C404 C403 1.410 . S
C404 C405 1.392 . S
C404 C407 1.511 . S
C405 C401 1.376 . S
C405 C404 1.392 . S
C405 H417 0.929 . S
C406 C402 1.531 . S
C406 H418 0.960 1_655 S
C406 H419 0.962 . S
C406 H420 0.960 . S
C407 C404 1.511 . S
C407 H421 0.961 . S
C407 H422 0.961 1_655 S
C407 H423 0.961 . S
C408 C409 1.370 . S
C408 C410 1.363 . S
C408 H424 0.931 . S
C409 C408 1.370 . S
C409 C413 1.408 . S
C410 C408 1.363 . S
C410 C411 1.370 . S
C410 C414 1.524 . S
C411 C403 1.503 1_455 S
C411 C410 1.370 . S
C411 C412 1.403 . S
C412 C411 1.403 . S
C412 C413 1.404 . S
C412 C415 1.539 . S
C413 C409 1.408 . S
C413 C412 1.404 . S
C413 H425 0.930 . S
C414 C410 1.524 . S
C414 H426 0.971 . S
C414 H427 0.961 1_455 S
C414 H428 0.961 . S
C415 C412 1.539 . S
C415 H429 0.958 . S
C415 H430 0.961 . S
C415 H431 0.960 . S
H416 C400 0.931 . S
H417 C405 0.929 . S
H418 C406 0.960 1_455 S
H419 C406 0.962 . S
H420 C406 0.960 . S
H421 C407 0.961 . S
H422 C407 0.961 1_455 S
H423 C407 0.961 . S
H424 C408 0.931 . S
H425 C413 0.930 . S
H426 C414 0.971 . S
H427 C414 0.961 1_655 S
H428 C414 0.961 . S
H429 C415 0.958 . S
H430 C415 0.961 . S
H431 C415 0.960 . S
C432 C433 1.391 . S
C432 C434 1.394 . S
C432 H448 0.931 . S
C433 C432 1.391 . S
C433 C437 1.376 . S
C434 C432 1.394 . S
C434 C435 1.369 . S
C434 C438 1.531 . S
C435 C434 1.369 . S
C435 C436 1.410 . S
C435 C443 1.503 1_565 S
C436 C435 1.410 . S
C436 C437 1.392 . S
C436 C439 1.511 . S
C437 C433 1.376 . S
C437 C436 1.392 . S
C437 H449 0.929 . S
C438 C434 1.531 . S
C438 H450 0.960 1_565 S
C438 H451 0.962 . S
C438 H452 0.960 . S
C439 C436 1.511 . S
C439 H453 0.961 . S
C439 H454 0.961 1_565 S
C439 H455 0.961 . S
C440 C441 1.370 . S
C440 C442 1.363 . S
C440 H456 0.931 . S
C441 C440 1.370 . S
C441 C445 1.408 . S
C442 C440 1.363 . S
C442 C443 1.370 . S
C442 C446 1.524 . S
C443 C435 1.503 1_545 S
C443 C442 1.370 . S
C443 C444 1.403 . S
C444 C443 1.403 . S
C444 C445 1.404 . S
C444 C447 1.539 . S
C445 C441 1.408 . S
C445 C444 1.404 . S
C445 H457 0.930 . S
C446 C442 1.524 . S
C446 H458 0.956 . S
C446 H459 0.963 . S
C446 H460 0.961 . S
C447 C444 1.539 . S
C447 H461 0.958 . S
C447 H462 0.961 . S
C447 H463 0.960 1_545 S
H448 C432 0.931 . S
H449 C437 0.929 . S
H450 C438 0.960 1_545 S
H451 C438 0.962 . S
H452 C438 0.960 . S
H453 C439 0.961 . S
H454 C439 0.961 1_545 S
H455 C439 0.961 . S
H456 C440 0.931 . S
H457 C445 0.930 . S
H458 C446 0.956 . S
H459 C446 0.963 . S
H460 C446 0.961 . S
H461 C447 0.958 . S
H462 C447 0.961 . S
H463 C447 0.960 1_565 S
C464 C465 1.391 . S
C464 C466 1.394 . S
C464 H480 0.931 . S
C465 C464 1.391 . S
C465 C469 1.376 . S
C466 C464 1.394 . S
C466 C467 1.369 . S
C466 C470 1.531 . S
C467 C466 1.369 . S
C467 C468 1.410 . S
C467 C475 1.503 1_655 S
C468 C467 1.410 . S
C468 C469 1.392 . S
C468 C471 1.511 1_554 S
C469 C465 1.376 . S
C469 C468 1.392 . S
C469 H481 0.929 1_554 S
C470 C466 1.531 . S
C470 H482 0.941 1_655 S
C470 H483 0.962 . S
C470 H484 0.960 . S
C471 C468 1.511 1_556 S
C471 H485 0.961 . S
C471 H486 0.961 1_655 S
C471 H487 0.961 . S
C472 C473 1.370 . S
C472 C474 1.363 . S
C472 H488 0.931 . S
C473 C472 1.370 . S
C473 C477 1.408 . S
C474 C472 1.363 . S
C474 C475 1.370 . S
C474 C478 1.524 . S
C475 C467 1.503 1_455 S
C475 C474 1.370 . S
C475 C476 1.403 . S
C476 C475 1.403 . S
C476 C477 1.404 . S
C476 C479 1.539 . S
C477 C473 1.408 . S
C477 C476 1.404 . S
C477 H489 0.930 . S
C478 C474 1.524 . S
C478 H490 0.956 . S
C478 H491 0.947 1_455 S
C478 H492 0.961 . S
C479 C476 1.539 . S
C479 H493 0.958 . S
C479 H494 0.961 . S
C479 H495 0.959 . S
H480 C464 0.931 . S
H481 C469 0.929 1_556 S
H482 C470 0.941 1_455 S
H483 C470 0.962 . S
H484 C470 0.960 . S
H485 C471 0.961 . S
H486 C471 0.961 1_455 S
H487 C471 0.961 . S
H488 C472 0.931 . S
H489 C477 0.930 . S
H490 C478 0.956 . S
H491 C478 0.947 1_655 S
H492 C478 0.961 . S
H493 C479 0.958 . S
H494 C479 0.961 . S
H495 C479 0.959 . S
C496 C497 1.391 . S
C496 C498 1.394 . S
C496 H512 0.931 . S
C497 C496 1.391 . S
C497 C501 1.376 . S
C498 C496 1.394 . S
C498 C499 1.369 1_556 S
C498 C502 1.531 . S
C499 C498 1.369 1_554 S
C499 C500 1.410 . S
C499 C507 1.503 . S
C500 C499 1.410 . S
C500 C501 1.392 1_554 S
C500 C503 1.511 . S
C501 C497 1.376 . S
C501 C500 1.392 1_556 S
C501 H513 0.929 . S
C502 C498 1.531 . S
C502 H514 0.960 1_556 S
C502 H515 0.962 . S
C502 H516 0.960 . S
C503 C500 1.511 . S
C503 H517 0.961 . S
C503 H518 0.961 . S
C503 H519 0.961 . S
C504 C505 1.370 . S
C504 C506 1.363 . S
C504 H520 0.931 . S
C505 C504 1.370 . S
C505 C509 1.408 . S
C506 C504 1.363 . S
C506 C507 1.370 . S
C506 C510 1.524 . S
C507 C499 1.503 . S
C507 C506 1.370 . S
C507 C508 1.403 . S
C508 C507 1.403 . S
C508 C509 1.404 . S
C508 C511 1.539 . S
C509 C505 1.408 . S
C509 C508 1.404 . S
C509 H521 0.930 . S
C510 C506 1.524 . S
C510 H522 0.956 . S
C510 H523 0.961 . S
C510 H524 0.961 . S
C511 C508 1.539 . S
C511 H525 0.958 . S
C511 H526 0.961 . S
C511 H527 0.960 . S
H512 C496 0.931 . S
H513 C501 0.929 . S
H514 C502 0.960 1_554 S
H515 C502 0.962 . S
H516 C502 0.960 . S
H517 C503 0.961 . S
H518 C503 0.961 . S
H519 C503 0.961 . S
H520 C504 0.931 . S
H521 C509 0.930 . S
H522 C510 0.956 . S
H523 C510 0.961 . S
H524 C510 0.961 . S
H525 C511 0.958 . S
H526 C511 0.961 . S
H527 C511 0.960 . S
C528 C529 1.391 . S
C528 C530 1.394 . S
C528 H544 0.931 . S
C529 C528 1.391 . S
C529 C533 1.376 . S
C530 C528 1.394 . S
C530 C531 1.369 . S
C530 C534 1.531 . S
C531 C530 1.369 . S
C531 C532 1.410 . S
C531 C539 1.503 . S
C532 C531 1.410 . S
C532 C533 1.392 . S
C532 C535 1.511 . S
C533 C529 1.376 . S
C533 C532 1.392 . S
C533 H545 0.929 . S
C534 C530 1.531 . S
C534 H546 0.960 . S
C534 H547 0.962 . S
C534 H548 0.960 . S
C535 C532 1.511 . S
C535 H549 0.961 . S
C535 H550 0.961 . S
C535 H551 0.961 . S
C536 C537 1.370 . S
C536 C538 1.363 . S
C536 H552 0.931 . S
C537 C536 1.370 . S
C537 C541 1.408 . S
C538 C536 1.363 . S
C538 C539 1.370 . S
C538 C542 1.524 . S
C539 C531 1.503 . S
C539 C538 1.370 . S
C539 C540 1.403 . S
C540 C539 1.403 . S
C540 C541 1.404 . S
C540 C543 1.539 . S
C541 C537 1.408 . S
C541 C540 1.404 . S
C541 H553 0.930 . S
C542 C538 1.524 . S
C542 H554 0.956 . S
C542 H555 0.961 . S
C542 H556 0.961 . S
C543 C540 1.539 . S
C543 H557 0.958 . S
C543 H558 0.961 . S
C543 H559 0.960 . S
H544 C528 0.931 . S
H545 C533 0.929 . S
H546 C534 0.960 . S
H547 C534 0.962 . S
H548 C534 0.960 . S
H549 C535 0.961 . S
H550 C535 0.961 . S
H551 C535 0.961 . S
H552 C536 0.931 . S
H553 C541 0.930 . S
H554 C542 0.956 . S
H555 C542 0.961 . S
H556 C542 0.961 . S
H557 C543 0.958 . S
H558 C543 0.961 . S
H559 C543 0.960 . S
C560 C561 1.391 . S
C560 C562 1.394 . S
C560 H576 0.931 . S
C561 C560 1.391 . S
C561 C565 1.376 . S
C562 C560 1.394 . S
C562 C563 1.369 . S
C562 C566 1.531 . S
C563 C562 1.369 . S
C563 C564 1.410 . S
C563 C571 1.503 . S
C564 C563 1.410 . S
C564 C565 1.392 . S
C564 C567 1.511 . S
C565 C561 1.376 . S
C565 C564 1.392 . S
C565 H577 0.929 . S
C566 C562 1.531 . S
C566 H578 0.960 . S
C566 H579 0.962 . S
C566 H580 0.960 . S
C567 C564 1.511 . S
C567 H581 0.961 . S
C567 H582 0.961 . S
C567 H583 0.961 . S
C568 C569 1.370 . S
C568 C570 1.363 . S
C568 H584 0.931 . S
C569 C568 1.370 . S
C569 C573 1.408 . S
C570 C568 1.363 . S
C570 C571 1.370 . S
C570 C574 1.524 . S
C571 C563 1.503 . S
C571 C570 1.370 . S
C571 C572 1.403 . S
C572 C571 1.403 . S
C572 C573 1.404 . S
C572 C575 1.539 . S
C573 C569 1.408 . S
C573 C572 1.404 . S
C573 H585 0.930 . S
C574 C570 1.524 . S
C574 H586 0.956 . S
C574 H587 0.961 . S
C574 H588 0.961 . S
C575 C572 1.539 . S
C575 H589 0.958 . S
C575 H590 0.961 . S
C575 H591 0.960 . S
H576 C560 0.931 . S
H577 C565 0.929 . S
H578 C566 0.960 . S
H579 C566 0.962 . S
H580 C566 0.960 . S
H581 C567 0.961 . S
H582 C567 0.961 . S
H583 C567 0.961 . S
H584 C568 0.931 . S
H585 C573 0.930 . S
H586 C574 0.956 . S
H587 C574 0.961 . S
H588 C574 0.961 . S
H589 C575 0.958 . S
H590 C575 0.961 . S
H591 C575 0.960 . S
C592 C593 1.391 . S
C592 C594 1.394 . S
C592 H608 0.931 . S
C593 C592 1.391 . S
C593 C597 1.376 . S
C594 C592 1.394 . S
C594 C595 1.369 . S
C594 C598 1.531 . S
C595 C594 1.369 . S
C595 C596 1.410 . S
C595 C603 1.503 . S
C596 C595 1.410 . S
C596 C597 1.392 . S
C596 C599 1.511 . S
C597 C593 1.376 . S
C597 C596 1.392 . S
C597 H609 0.929 . S
C598 C594 1.531 . S
C598 H610 0.960 . S
C598 H611 0.962 . S
C598 H612 0.960 . S
C599 C596 1.511 . S
C599 H613 0.961 . S
C599 H614 0.961 . S
C599 H615 0.961 . S
C600 C601 1.370 . S
C600 C602 1.363 . S
C600 H616 0.931 . S
C601 C600 1.370 . S
C601 C605 1.408 . S
C602 C600 1.363 . S
C602 C603 1.370 . S
C602 C606 1.524 . S
C603 C595 1.503 . S
C603 C602 1.370 . S
C603 C604 1.403 . S
C604 C603 1.403 . S
C604 C605 1.404 . S
C604 C607 1.539 . S
C605 C601 1.408 . S
C605 C604 1.404 . S
C605 H617 0.930 . S
C606 C602 1.524 . S
C606 H618 0.956 . S
C606 H619 0.961 . S
C606 H620 0.961 . S
C607 C604 1.539 . S
C607 H621 0.958 . S
C607 H622 0.961 . S
C607 H623 0.960 . S
H608 C592 0.931 . S
H609 C597 0.929 . S
H610 C598 0.960 . S
H611 C598 0.962 . S
H612 C598 0.960 . S
H613 C599 0.961 . S
H614 C599 0.961 . S
H615 C599 0.961 . S
H616 C600 0.931 . S
H617 C605 0.930 . S
H618 C606 0.956 . S
H619 C606 0.961 . S
H620 C606 0.961 . S
H621 C607 0.958 . S
H622 C607 0.961 . S
H623 C607 0.960 . S
C113 C7 0.664 . S
C121 C91 0.695 . S
C145 C21 0.668 . S
C153 C105 0.660 . S
C177 C63 0.636 . S
C185 C35 0.680 . S
C209 C77 0.687 . S
C217 C49 0.661 . S
C241 C8 1.540 . S
C249 C78 1.539 . S
C273 C22 1.519 . S
C281 C92 1.550 . S
C305 C106 1.531 . S
C313 C36 1.548 . S
C337 C50 1.540 . S
C345 C64 1.539 . S
C369 C65 1.487 . S
C377 C9 1.497 . S
C401 C23 1.514 . S
C409 C79 1.508 . S
C433 C37 1.488 . S
C441 C93 1.497 . S
C465 C107 1.478 . S
C473 C51 1.493 . S
C497 C87 1.513 . S
C505 C3 1.523 . S
C529 C101 1.516 . S
C537 C17 1.524 . S
C561 C31 1.512 . S
C569 C59 1.523 . S
C593 C45 1.531 . S
C601 C73 1.530 . S
