# Generated by pormake.
# Topology wkj, (6)-cn, num edge types: 1
# Building blocks:
#     Node 0, Type 0, BuildingBlock: BETFEN_clean_sbu_0, # of connection points: 6
#     Node 1, Type 0, BuildingBlock: BETFEN_clean_sbu_0, # of connection points: 6
#     Node 2, Type 0, BuildingBlock: BETFEN_clean_sbu_0, # of connection points: 6
#     Node 3, Type 0, BuildingBlock: BETFEN_clean_sbu_0, # of connection points: 6
#     Node 4, Type 0, BuildingBlock: BETFEN_clean_sbu_0, # of connection points: 6
#     Node 5, Type 0, BuildingBlock: BETFEN_clean_sbu_0, # of connection points: 6
#     Node 6, Type 0, BuildingBlock: BETFEN_clean_sbu_0, # of connection points: 6
#     Node 7, Type 0, BuildingBlock: BETFEN_clean_sbu_0, # of connection points: 6
#     Node 8, Type 0, BuildingBlock: BETFEN_clean_sbu_0, # of connection points: 6
#     Node 9, Type 0, BuildingBlock: BETFEN_clean_sbu_0, # of connection points: 6
#     Node 10, Type 0, BuildingBlock: BETFEN_clean_sbu_0, # of connection points: 6
#     Node 11, Type 0, BuildingBlock: BETFEN_clean_sbu_0, # of connection points: 6
#     Edge 12, Type (0, 0), BuildingBlock: XIVTED_clean_linker_0, # of connection points: 2
#     Edge 13, Type (0, 0), BuildingBlock: XIVTED_clean_linker_0, # of connection points: 2
#     Edge 14, Type (0, 0), BuildingBlock: XIVTED_clean_linker_0, # of connection points: 2
#     Edge 15, Type (0, 0), BuildingBlock: XIVTED_clean_linker_0, # of connection points: 2
#     Edge 16, Type (0, 0), BuildingBlock: XIVTED_clean_linker_0, # of connection points: 2
#     Edge 17, Type (0, 0), BuildingBlock: XIVTED_clean_linker_0, # of connection points: 2
#     Edge 18, Type (0, 0), BuildingBlock: XIVTED_clean_linker_0, # of connection points: 2
#     Edge 19, Type (0, 0), BuildingBlock: XIVTED_clean_linker_0, # of connection points: 2
#     Edge 20, Type (0, 0), BuildingBlock: XIVTED_clean_linker_0, # of connection points: 2
#     Edge 21, Type (0, 0), BuildingBlock: XIVTED_clean_linker_0, # of connection points: 2
#     Edge 22, Type (0, 0), BuildingBlock: XIVTED_clean_linker_0, # of connection points: 2
#     Edge 23, Type (0, 0), BuildingBlock: XIVTED_clean_linker_0, # of connection points: 2
#     Edge 24, Type (0, 0), BuildingBlock: XIVTED_clean_linker_0, # of connection points: 2
#     Edge 25, Type (0, 0), BuildingBlock: XIVTED_clean_linker_0, # of connection points: 2
#     Edge 26, Type (0, 0), BuildingBlock: XIVTED_clean_linker_0, # of connection points: 2
#     Edge 27, Type (0, 0), BuildingBlock: XIVTED_clean_linker_0, # of connection points: 2
#     Edge 28, Type (0, 0), BuildingBlock: XIVTED_clean_linker_0, # of connection points: 2
#     Edge 29, Type (0, 0), BuildingBlock: XIVTED_clean_linker_0, # of connection points: 2
#     Edge 30, Type (0, 0), BuildingBlock: XIVTED_clean_linker_0, # of connection points: 2
#     Edge 31, Type (0, 0), BuildingBlock: XIVTED_clean_linker_0, # of connection points: 2
#     Edge 32, Type (0, 0), BuildingBlock: XIVTED_clean_linker_0, # of connection points: 2
#     Edge 33, Type (0, 0), BuildingBlock: XIVTED_clean_linker_0, # of connection points: 2
#     Edge 34, Type (0, 0), BuildingBlock: XIVTED_clean_linker_0, # of connection points: 2
#     Edge 35, Type (0, 0), BuildingBlock: XIVTED_clean_linker_0, # of connection points: 2
#     Edge 36, Type (0, 0), BuildingBlock: XIVTED_clean_linker_0, # of connection points: 2
#     Edge 37, Type (0, 0), BuildingBlock: XIVTED_clean_linker_0, # of connection points: 2
#     Edge 38, Type (0, 0), BuildingBlock: XIVTED_clean_linker_0, # of connection points: 2
#     Edge 39, Type (0, 0), BuildingBlock: XIVTED_clean_linker_0, # of connection points: 2
#     Edge 40, Type (0, 0), BuildingBlock: XIVTED_clean_linker_0, # of connection points: 2
#     Edge 41, Type (0, 0), BuildingBlock: XIVTED_clean_linker_0, # of connection points: 2
#     Edge 42, Type (0, 0), BuildingBlock: XIVTED_clean_linker_0, # of connection points: 2
#     Edge 43, Type (0, 0), BuildingBlock: XIVTED_clean_linker_0, # of connection points: 2
#     Edge 44, Type (0, 0), BuildingBlock: XIVTED_clean_linker_0, # of connection points: 2
#     Edge 45, Type (0, 0), BuildingBlock: XIVTED_clean_linker_0, # of connection points: 2
#     Edge 46, Type (0, 0), BuildingBlock: XIVTED_clean_linker_0, # of connection points: 2
#     Edge 47, Type (0, 0), BuildingBlock: XIVTED_clean_linker_0, # of connection points: 2
# Relax obj value: 0.769
# Max RMSD: 0.175
# Mean RMSD: 0.175
data_MOF--net-wkj--node1-BETFEN_clean_sbu_0--edge1-XIVTED_clean_linker_0
_symmetry_space_group_name_H-M    P1
_symmetry_Int_Tables_number       1
_symmetry_cell_setting            triclinic
loop_
_symmetry_equiv_pos_as_xyz
'x, y, z'
_cell_length_a     49.116133
_cell_length_b     49.10283
_cell_length_c     30.665206
_cell_angle_alpha  90.124277
_cell_angle_beta   89.693094
_cell_angle_gamma 120.12569
loop_
_atom_site_label
_atom_site_type_symbol
_atom_site_fract_x
_atom_site_fract_y
_atom_site_fract_z
_atom_type_partial_charge
Pr0 Pr 0.45987 0.09258 0.36837 0.0
Pr1 Pr 0.51314 0.08975 0.35614 0.0
C2 C 0.40771 0.09436 0.39108 0.0
C3 C 0.38605 0.08646 0.4281 0.0
C4 C 0.35376 0.07331 0.42026 0.0
C5 C 0.33231 0.06229 0.45491 0.0
C6 C 0.34297 0.0645 0.49789 0.0
C7 C 0.37551 0.079 0.5057 0.0
C8 C 0.39689 0.08974 0.47105 0.0
C9 C 0.50182 0.14549 0.31818 0.0
C10 C 0.50766 0.10197 0.4606 0.0
C11 C 0.57333 0.10546 0.34076 0.0
C12 C 0.59971 0.13575 0.32563 0.0
C13 C 0.61709 0.13625 0.289 0.0
C14 C 0.63441 0.16402 0.26517 0.0
C15 C 0.63457 0.19176 0.27765 0.0
C16 C 0.62054 0.19205 0.31759 0.0
C17 C 0.60299 0.16421 0.34119 0.0
C18 C 0.46252 0.03227 0.39031 0.0
C19 C 0.46266 0.05543 0.27543 0.0
O20 O 0.40695 0.07045 0.37106 0.0
O21 O 0.43621 0.11826 0.39588 0.0
O22 O 0.50903 0.13597 0.35242 0.0
O23 O 0.47432 0.12404 0.30538 0.0
O24 O 0.52605 0.09981 0.43104 0.0
O25 O 0.48078 0.09995 0.44561 0.0
O26 O 0.56245 0.10498 0.3798 0.0
O27 O 0.55096 0.09093 0.31224 0.0
O28 O 0.4711 0.0597 0.40142 0.0
O29 O 0.48202 0.03325 0.36062 0.0
O30 O 0.44315 0.05598 0.30563 0.0
O31 O 0.49299 0.07174 0.28455 0.0
H32 H 0.34507 0.07058 0.38721 0.0
H33 H 0.30738 0.05121 0.44805 0.0
H34 H 0.38437 0.08045 0.5384 0.0
H35 H 0.42172 0.09954 0.47775 0.0
H36 H 0.6148 0.11457 0.27639 0.0
H37 H 0.64473 0.1627 0.23452 0.0
H38 H 0.62073 0.21312 0.32859 0.0
H39 H 0.58983 0.16454 0.36945 0.0
Pr40 Pr 0.36673 0.46491 0.70211 0.0
Pr41 Pr 0.41924 0.52168 0.68874 0.0
C42 C 0.3164 0.40933 0.72596 0.0
C43 C 0.30285 0.38821 0.76336 0.0
C44 C 0.28267 0.35598 0.75613 0.0
C45 C 0.27115 0.33508 0.79126 0.0
C46 C 0.27958 0.34626 0.83408 0.0
C47 C 0.29902 0.37881 0.84118 0.0
C48 C 0.31069 0.39963 0.80605 0.0
C49 C 0.3495 0.50326 0.65512 0.0
C50 C 0.4013 0.51579 0.79262 0.0
C51 C 0.45798 0.58026 0.65786 0.0
C52 C 0.45007 0.60032 0.63185 0.0
C53 C 0.41843 0.58939 0.622 0.0
C54 C 0.41006 0.60718 0.596 0.0
C55 C 0.43321 0.63643 0.57916 0.0
C56 C 0.46492 0.64793 0.59055 0.0
C57 C 0.47329 0.62994 0.61678 0.0
C58 C 0.43386 0.4817 0.73636 0.0
C59 C 0.40558 0.46926 0.60716 0.0
O60 O 0.34205 0.41186 0.70933 0.0
O61 O 0.31703 0.43616 0.72804 0.0
O62 O 0.36701 0.51166 0.68865 0.0
O63 O 0.34458 0.47614 0.64198 0.0
O64 O 0.41956 0.53605 0.76273 0.0
O65 O 0.37947 0.48701 0.77813 0.0
O66 O 0.44629 0.57457 0.69716 0.0
O67 O 0.45421 0.55491 0.63842 0.0
O68 O 0.41619 0.47337 0.70369 0.0
O69 O 0.4473 0.51187 0.74193 0.0
O70 O 0.38216 0.44985 0.6337 0.0
O71 O 0.42276 0.49897 0.62015 0.0
H72 H 0.27642 0.34689 0.72324 0.0
H73 H 0.25625 0.31014 0.78493 0.0
H74 H 0.30646 0.38803 0.87378 0.0
H75 H 0.32644 0.42447 0.81213 0.0
H76 H 0.40019 0.56661 0.63356 0.0
H77 H 0.38553 0.59705 0.58723 0.0
H78 H 0.48331 0.67039 0.57828 0.0
H79 H 0.49782 0.63884 0.62455 0.0
Pr80 Pr 0.89535 0.36965 1.02653 0.0
Pr81 Pr 0.88931 0.42084 1.01732 0.0
C82 C 0.90156 0.31936 1.04631 0.0
C83 C 0.90666 0.30449 1.08414 0.0
C84 C 0.91655 0.28249 1.07812 0.0
C85 C 0.92368 0.26986 1.11413 0.0
C86 C 0.92089 0.27909 0.15655 0.0
C87 C 0.90977 0.30032 0.16226 0.0
C88 C 0.90279 0.31296 0.12633 0.0
C89 C 0.83833 0.35148 0.98288 0.0
C90 C 0.87625 0.39903 1.11996 0.0
C91 C 0.86934 0.45965 0.9882 0.0
C92 C 0.83782 0.45477 0.97984 0.0
C93 C 0.83393 0.47258 0.94756 0.0
C94 C 0.80406 0.46279 0.93068 0.0
C95 C 0.77763 0.43487 0.94572 0.0
C96 C 0.7813 0.41905 0.98141 0.0
C97 C 0.81123 0.42877 0.9981 0.0
C98 C 0.94421 0.43668 1.0638 0.0
C99 C 0.93157 0.41246 0.93468 0.0
O100 O 0.9251 0.34663 1.03476 0.0
O101 O 0.87462 0.31844 1.04487 0.0
O102 O 0.84756 0.3683 1.0172 0.0
O103 O 0.86123 0.34871 0.96672 0.0
O104 O 0.87126 0.41576 1.09077 0.0
O105 O 0.88623 0.37989 1.10407 0.0
O106 O 0.87663 0.45883 1.0288 0.0
O107 O 0.8776 0.44384 0.96245 0.0
O108 O 0.93568 0.41962 1.0303 0.0
O109 O 0.92671 0.44908 1.07047 0.0
O110 O 0.92673 0.38769 0.95865 0.0
O111 O 0.91903 0.42907 0.9501 0.0
H112 H 0.91952 0.27571 1.04557 0.0
H113 H 0.93217 0.25357 1.10879 0.0
H114 H 0.90805 0.30851 0.19442 0.0
H115 H 0.89527 0.33004 0.13144 0.0
H116 H 0.85424 0.49258 0.93294 0.0
H117 H 0.80237 0.47546 0.90295 0.0
H118 H 0.76142 0.39774 0.99417 0.0
H119 H 0.81383 0.41462 1.023 0.0
Pr120 Pr 0.52353 0.90133 0.37297 0.0
Pr121 Pr 0.47031 0.9009 0.35689 0.0
C122 C 0.58322 0.91296 0.38114 0.0
C123 C 0.60787 0.92381 0.41428 0.0
C124 C 0.63944 0.94303 0.40192 0.0
C125 C 0.66293 0.9562 0.43357 0.0
C126 C 0.6551 0.95011 0.47799 0.0
C127 C 0.62353 0.92971 0.49003 0.0
C128 C 0.60008 0.9168 0.45845 0.0
C129 C 0.48002 0.83934 0.34965 0.0
C130 C 0.47691 0.89058 0.46433 0.0
C131 C 0.40797 0.87805 0.34791 0.0
C132 C 0.38371 0.85372 0.31937 0.0
C133 C 0.38092 0.86039 0.27569 0.0
C134 C 0.36348 0.83592 0.24652 0.0
C135 C 0.34859 0.80434 0.26043 0.0
C136 C 0.3488 0.79791 0.30493 0.0
C137 C 0.36597 0.82241 0.33422 0.0
C138 C 0.51651 0.95909 0.39497 0.0
C139 C 0.51637 0.93343 0.27332 0.0
O140 O 0.57628 0.93383 0.36728 0.0
O141 O 0.55844 0.88529 0.38708 0.0
O142 O 0.48381 0.86363 0.32872 0.0
O143 O 0.49567 0.8477 0.38565 0.0
O144 O 0.45748 0.88857 0.43313 0.0
O145 O 0.50585 0.89749 0.45072 0.0
O146 O 0.42009 0.86742 0.37631 0.0
O147 O 0.42918 0.9045 0.32986 0.0
O148 O 0.50921 0.93194 0.40595 0.0
O149 O 0.49818 0.95729 0.36321 0.0
O150 O 0.53522 0.92951 0.30111 0.0
O151 O 0.4869 0.92167 0.28579 0.0
H152 H 0.64578 0.94866 0.36788 0.0
H153 H 0.68705 0.97184 0.42345 0.0
H154 H 0.61665 0.92511 0.52403 0.0
H155 H 0.57578 0.90224 0.46867 0.0
H156 H 0.3939 0.88425 0.26331 0.0
H157 H 0.36396 0.84171 0.21235 0.0
H158 H 0.33725 0.77384 0.31661 0.0
H159 H 0.36711 0.81658 0.36797 0.0
Pr160 Pr 0.61182 0.51924 0.69851 0.0
Pr161 Pr 0.55894 0.46362 0.68533 0.0
C162 C 0.66309 0.57432 0.72125 0.0
C163 C 0.67765 0.59536 0.75837 0.0
C164 C 0.69852 0.62742 0.75075 0.0
C165 C 0.71106 0.64832 0.7857 0.0
C166 C 0.70297 0.63731 0.82871 0.0
C167 C 0.68284 0.6049 0.83615 0.0
C168 C 0.67016 0.58408 0.8012 0.0
C169 C 0.62801 0.47954 0.65264 0.0
C170 C 0.57622 0.46874 0.78915 0.0
C171 C 0.52091 0.40563 0.65321 0.0
C172 C 0.53016 0.3831 0.63761 0.0
C173 C 0.51668 0.36584 0.5996 0.0
C174 C 0.53165 0.35233 0.57679 0.0
C175 C 0.56049 0.35611 0.59159 0.0
C176 C 0.57196 0.37042 0.63228 0.0
C177 C 0.55704 0.384 0.65495 0.0
C178 C 0.54474 0.50458 0.73133 0.0
C179 C 0.57344 0.51608 0.6038 0.0
O180 O 0.63736 0.57229 0.70623 0.0
O181 O 0.66194 0.54723 0.72253 0.0
O182 O 0.61049 0.4718 0.68637 0.0
O183 O 0.63318 0.50652 0.63848 0.0
O184 O 0.55867 0.4485 0.7589 0.0
O185 O 0.59819 0.49753 0.77481 0.0
O186 O 0.52396 0.41165 0.69488 0.0
O187 O 0.53174 0.43107 0.62957 0.0
O188 O 0.56308 0.51256 0.69918 0.0
O189 O 0.53029 0.47436 0.7368 0.0
O190 O 0.5976 0.53471 0.62963 0.0
O191 O 0.55485 0.4868 0.61766 0.0
H192 H 0.70451 0.6364 0.71774 0.0
H193 H 0.72646 0.67316 0.77911 0.0
H194 H 0.67564 0.59582 0.86892 0.0
H195 H 0.6539 0.55937 0.80758 0.0
H196 H 0.49616 0.36516 0.58551 0.0
H197 H 0.52224 0.34179 0.54537 0.0
H198 H 0.59388 0.37341 0.64481 0.0
H199 H 0.56806 0.39745 0.68415 0.0
Pr200 Pr 0.08295 0.61883 1.02733 0.0
Pr201 Pr 0.08873 0.56722 1.01837 0.0
C202 C 0.07664 0.66918 1.04674 0.0
C203 C 0.07257 0.68501 1.08451 0.0
C204 C 0.05909 0.70404 1.07904 0.0
C205 C 0.05258 0.7171 1.11532 0.0
C206 C 0.0596 0.71132 0.15746 0.0
C207 C 0.07447 0.69336 0.16245 0.0
C208 C 0.08079 0.68021 0.12625 0.0
C209 C 0.13993 0.6366 0.98278 0.0
C210 C 0.10177 0.58976 1.1209 0.0
C211 C 0.10801 0.52702 0.99202 0.0
C212 C 0.13815 0.53305 0.97372 0.0
C213 C 0.16094 0.56391 0.96267 0.0
C214 C 0.1888 0.56998 0.94221 0.0
C215 C 0.1946 0.54527 0.93255 0.0
C216 C 0.17238 0.51452 0.94613 0.0
C217 C 0.14427 0.50846 0.96648 0.0
C218 C 0.0338 0.55223 1.06564 0.0
C219 C 0.0482 0.5766 0.93491 0.0
O220 O 0.05295 0.64151 1.0373 0.0
O221 O 0.10367 0.67041 1.04331 0.0
O222 O 0.1305 0.61964 1.01699 0.0
O223 O 0.11723 0.63975 0.96714 0.0
O224 O 0.10537 0.57178 1.09214 0.0
O225 O 0.09274 0.60955 1.10481 0.0
O226 O 0.10904 0.53568 1.03236 0.0
O227 O 0.09181 0.53533 0.96744 0.0
O228 O 0.04254 0.56886 1.03176 0.0
O229 O 0.05127 0.53991 1.07265 0.0
O230 O 0.05113 0.60007 0.96033 0.0
O231 O 0.0623 0.56118 0.94897 0.0
H232 H 0.05272 0.70798 1.04686 0.0
H233 H 0.04109 0.7308 1.11059 0.0
H234 H 0.07953 0.68786 0.19453 0.0
H235 H 0.09113 0.66546 0.13099 0.0
H236 H 0.15665 0.58323 0.96843 0.0
H237 H 0.20481 0.59386 0.93161 0.0
H238 H 0.17619 0.495 0.93967 0.0
H239 H 0.12702 0.48453 0.97546 0.0
Pr240 Pr 0.88798 0.50418 0.54252 0.0
Pr241 Pr 0.86452 0.44064 0.56533 0.0
C242 C 0.90852 0.56369 0.51614 0.0
C243 C 0.92273 0.58751 0.48205 0.0
C244 C 0.93522 0.61921 0.49343 0.0
C245 C 0.94834 0.64259 0.46157 0.0
C246 C 0.94899 0.63449 0.41782 0.0
C247 C 0.93638 0.60256 0.40658 0.0
C248 C 0.92335 0.57919 0.43854 0.0
C249 C 0.82879 0.4777 0.58623 0.0
C250 C 0.86707 0.45255 0.45531 0.0
C251 C 0.82516 0.38473 0.60256 0.0
C252 C 0.79517 0.37425 0.62563 0.0
C253 C 0.78846 0.3564 0.66377 0.0
C254 C 0.7636 0.35205 0.6908 0.0
C255 C 0.74506 0.3656 0.68016 0.0
C256 C 0.75029 0.38122 0.63998 0.0
C257 C 0.77524 0.38568 0.6131 0.0
C258 C 0.91904 0.46017 0.51966 0.0
C259 C 0.91483 0.49719 0.64074 0.0
O260 O 0.92655 0.55515 0.53587 0.0
O261 O 0.8799 0.54054 0.50963 0.0
O262 O 0.83549 0.46545 0.55468 0.0
O263 O 0.85401 0.50272 0.59888 0.0
O264 O 0.8558 0.43071 0.4868 0.0
O265 O 0.88093 0.48268 0.46808 0.0
O266 O 0.82516 0.39002 0.56091 0.0
O267 O 0.85015 0.40662 0.62225 0.0
O268 O 0.91494 0.47743 0.54669 0.0
O269 O 0.89772 0.43065 0.52372 0.0
O270 O 0.91689 0.51742 0.61039 0.0
O271 O 0.89579 0.46644 0.63202 0.0
H272 H 0.93472 0.62586 0.52703 0.0
H273 H 0.95779 0.66694 0.47108 0.0
H274 H 0.93715 0.5957 0.3732 0.0
H275 H 0.91385 0.55475 0.42939 0.0
H276 H 0.80366 0.34756 0.67408 0.0
H277 H 0.7607 0.34028 0.72173 0.0
H278 H 0.73633 0.39167 0.63053 0.0
H279 H 0.77999 0.39962 0.58375 0.0
Pr280 Pr 0.36385 0.89629 0.88162 0.0
Pr281 Pr 0.41541 0.89165 0.89604 0.0
C282 C 0.31469 0.90278 0.85666 0.0
C283 C 0.30378 0.91424 0.82055 0.0
C284 C 0.28544 0.9281 0.82971 0.0
C285 C 0.27633 0.94094 0.79615 0.0
C286 C 0.28526 0.93984 0.75291 0.0
C287 C 0.30298 0.92517 0.74375 0.0
C288 C 0.31232 0.9126 0.77736 0.0
C289 C 0.34442 0.839 0.92582 0.0
C290 C 0.40152 0.88371 0.79142 0.0
C291 C 0.45157 0.86965 0.92812 0.0
C292 C 0.4411 0.8386 0.9477 0.0
C293 C 0.45381 0.83666 0.9875 0.0
C294 C 0.43781 0.80965 1.01322 0.0
C295 C 0.40874 0.78421 0.99952 0.0
C296 C 0.39814 0.78485 0.95729 0.0
C297 C 0.41404 0.81192 0.93172 0.0
C298 C 0.43221 0.94838 0.85247 0.0
C299 C 0.40129 0.92963 0.97755 0.0
O300 O 0.33849 0.92408 0.87873 0.0
O301 O 0.31624 0.87736 0.8499 0.0
O302 O 0.36309 0.84901 0.8932 0.0
O303 O 0.3395 0.86103 0.93969 0.0
O304 O 0.41832 0.8801 0.82172 0.0
O305 O 0.37932 0.89017 0.8056 0.0
O306 O 0.4462 0.86986 0.88659 0.0
O307 O 0.44426 0.8877 0.95056 0.0
O308 O 0.41308 0.93756 0.88366 0.0
O309 O 0.44607 0.9321 0.84668 0.0
O310 O 0.37789 0.92525 0.95109 0.0
O311 O 0.41917 0.91804 0.96428 0.0
H312 H 0.27871 0.92955 0.86298 0.0
H313 H 0.26272 0.95213 0.80402 0.0
H314 H 0.31073 0.92456 0.7108 0.0
H315 H 0.32674 0.90224 0.76974 0.0
H316 H 0.47452 0.85703 1.00048 0.0
H317 H 0.44664 0.81021 1.04569 0.0
H318 H 0.3761 0.76553 0.94554 0.0
H319 H 0.40362 0.81282 0.90109 0.0
Pr320 Pr 0.46428 0.36578 0.21326 0.0
Pr321 Pr 0.52006 0.41795 0.2255 0.0
C322 C 0.40871 0.31538 0.18999 0.0
C323 C 0.38626 0.30397 0.154 0.0
C324 C 0.35437 0.28295 0.16271 0.0
C325 C 0.33223 0.27352 0.1293 0.0
C326 C 0.34183 0.2849 1.08672 0.0
C327 C 0.37402 0.30535 1.078 0.0
C328 C 0.39606 0.31493 1.11144 0.0
C329 C 0.50302 0.34811 0.25833 0.0
C330 C 0.51381 0.40137 1.12136 0.0
C331 C 0.57833 0.45652 0.2564 0.0
C332 C 0.60049 0.44811 0.27565 0.0
C333 C 0.61653 0.46308 0.31384 0.0
C334 C 0.63035 0.44971 0.33918 0.0
C335 C 0.62823 0.42104 0.32672 0.0
C336 C 0.61503 0.40799 0.28605 0.0
C337 C 0.60104 0.42126 0.26089 0.0
C338 C 0.47907 0.43246 0.1806 0.0
C339 C 0.46838 0.40488 0.308 0.0
O340 O 0.41099 0.33927 0.21167 0.0
O341 O 0.43591 0.3175 0.18287 0.0
O342 O 0.5113 0.36598 0.22497 0.0
O343 O 0.47608 0.34323 0.27234 0.0
O344 O 0.53451 0.41852 0.15134 0.0
O345 O 0.48499 0.37981 0.13632 0.0
O346 O 0.57242 0.45046 0.21504 0.0
O347 O 0.5529 0.44806 0.2794 0.0
O348 O 0.47146 0.41468 0.21314 0.0
O349 O 0.50913 0.44621 0.17364 0.0
O350 O 0.44931 0.38085 0.28222 0.0
O351 O 0.49776 0.42276 0.29393 0.0
H352 H 0.34651 0.27438 0.19554 0.0
H353 H 0.3076 0.25779 0.13685 0.0
H354 H 0.38202 0.31504 1.04568 0.0
H355 H 0.42058 0.33146 1.10427 0.0
H356 H 0.61614 0.48364 0.32591 0.0
H357 H 0.63998 0.4603 0.3705 0.0
H358 H 0.61334 0.38618 0.27524 0.0
H359 H 0.58863 0.40912 0.23157 0.0
Pr360 Pr 0.09094 0.48306 0.54077 0.0
Pr361 Pr 0.11745 0.54694 0.5644 0.0
C362 C 0.06799 0.42331 0.51374 0.0
C363 C 0.05416 0.3996 0.47945 0.0
C364 C 0.0366 0.36783 0.4915 0.0
C365 C 0.02457 0.34439 0.45969 0.0
C366 C 0.0301 0.35247 0.41536 0.0
C367 C 0.04765 0.38446 0.40343 0.0
C368 C 0.05959 0.4079 0.4353 0.0
C369 C 0.15005 0.50684 0.58316 0.0
C370 C 0.11277 0.53488 0.45412 0.0
C371 C 0.1591 0.60219 0.60096 0.0
C372 C 0.1893 0.6118 0.62254 0.0
C373 C 0.19562 0.62692 0.66298 0.0
C374 C 0.22026 0.62954 0.68854 0.0
C375 C 0.23908 0.61703 0.67406 0.0
C376 C 0.23457 0.60475 0.63156 0.0
C377 C 0.20973 0.60189 0.60619 0.0
C378 C 0.06303 0.53042 0.52124 0.0
C379 C 0.06578 0.49083 0.63989 0.0
O380 O 0.0504 0.43308 0.53219 0.0
O381 O 0.09736 0.44533 0.50883 0.0
O382 O 0.14415 0.51993 0.55205 0.0
O383 O 0.12419 0.48254 0.59615 0.0
O384 O 0.12529 0.55669 0.48551 0.0
O385 O 0.09802 0.50475 0.46683 0.0
O386 O 0.15813 0.59687 0.55916 0.0
O387 O 0.13407 0.58087 0.62155 0.0
O388 O 0.06628 0.5121 0.54715 0.0
O389 O 0.0854 0.55948 0.52541 0.0
O390 O 0.0623 0.47043 0.60889 0.0
O391 O 0.08609 0.52142 0.63158 0.0
H392 H 0.03246 0.36114 0.5256 0.0
H393 H 0.01117 0.31997 0.46975 0.0
H394 H 0.05166 0.39139 0.36944 0.0
H395 H 0.07311 0.43239 0.42555 0.0
H396 H 0.18012 0.63466 0.67619 0.0
H397 H 0.22256 0.63884 0.72119 0.0
H398 H 0.24886 0.59539 0.619 0.0
H399 H 0.2054 0.59014 0.57493 0.0
Pr400 Pr 0.61592 0.09211 0.8777 0.0
Pr401 Pr 0.56474 0.09735 0.89261 0.0
C402 C 0.66526 0.08583 0.85205 0.0
C403 C 0.67833 0.07856 0.81378 0.0
C404 C 0.70011 0.0684 0.81954 0.0
C405 C 0.71194 0.06016 0.78352 0.0
C406 C 0.70222 0.06216 0.74124 0.0
C407 C 0.68085 0.07304 0.73564 0.0
C408 C 0.6689 0.08109 0.77168 0.0
C409 C 0.63515 0.14861 0.92397 0.0
C410 C 0.57976 0.10703 0.78816 0.0
C411 C 0.52938 0.11976 0.92687 0.0
C412 C 0.5406 0.14936 0.95122 0.0
C413 C 0.52774 0.14884 0.99226 0.0
C414 C 0.54363 0.17417 1.02084 0.0
C415 C 0.57273 0.20047 1.0088 0.0
C416 C 0.58384 0.20219 0.96602 0.0
C417 C 0.56805 0.17681 0.93759 0.0
C418 C 0.54782 0.04139 0.84671 0.0
C419 C 0.57796 0.0582 0.97336 0.0
O420 O 0.63932 0.06276 0.86821 0.0
O421 O 0.66543 0.11245 0.85137 0.0
O422 O 0.6172 0.13948 0.89083 0.0
O423 O 0.63937 0.12604 0.9373 0.0
O424 O 0.56249 0.10999 0.81869 0.0
O425 O 0.60167 0.10012 0.80198 0.0
O426 O 0.53704 0.12259 0.88569 0.0
O427 O 0.53347 0.09853 0.94648 0.0
O428 O 0.56632 0.05122 0.87849 0.0
O429 O 0.5347 0.05838 0.84129 0.0
O430 O 0.6015 0.06256 0.94682 0.0
O431 O 0.56047 0.07023 0.96033 0.0
H432 H 0.7076 0.06641 0.85197 0.0
H433 H 0.72837 0.05188 0.78872 0.0
H434 H 0.67243 0.0742 0.70351 0.0
H435 H 0.65192 0.08873 0.76676 0.0
H436 H 0.50678 0.12785 1.00354 0.0
H437 H 0.53446 0.17176 1.05366 0.0
H438 H 0.60589 0.22223 0.95548 0.0
H439 H 0.57867 0.17786 0.90612 0.0
Pr440 Pr 0.51833 0.62133 0.21109 0.0
Pr441 Pr 0.46074 0.57206 0.22583 0.0
C442 C 0.57525 0.6693 0.18646 0.0
C443 C 0.598 0.68009 0.15055 0.0
C444 C 0.62998 0.70025 0.15946 0.0
C445 C 0.65233 0.7095 0.12607 0.0
C446 C 0.64286 0.69882 1.08329 0.0
C447 C 0.61062 0.67915 1.07441 0.0
C448 C 0.58835 0.66975 1.10784 0.0
C449 C 0.48274 0.64318 0.25628 0.0
C450 C 0.46725 0.58749 1.12147 0.0
C451 C 0.40248 0.53952 0.25995 0.0
C452 C 0.38247 0.55247 0.2732 0.0
C453 C 0.36495 0.54193 0.31181 0.0
C454 C 0.35546 0.5609 0.33336 0.0
C455 C 0.36367 0.59085 0.31672 0.0
C456 C 0.37757 0.59932 0.27512 0.0
C457 C 0.38711 0.58038 0.25366 0.0
C458 C 0.49696 0.55217 0.17953 0.0
C459 C 0.51275 0.58167 0.30547 0.0
O460 O 0.57147 0.64476 0.20792 0.0
O461 O 0.54887 0.66889 0.17962 0.0
O462 O 0.47338 0.62514 0.2232 0.0
O463 O 0.50893 0.64621 0.27003 0.0
O464 O 0.44617 0.57287 0.15244 0.0
O465 O 0.49699 0.60691 0.13499 0.0
O466 O 0.40804 0.53977 0.21828 0.0
O467 O 0.42787 0.54962 0.28332 0.0
O468 O 0.50701 0.57087 0.2112 0.0
O469 O 0.46684 0.54003 0.17491 0.0
O470 O 0.53227 0.60576 0.28001 0.0
O471 O 0.48329 0.56449 0.29169 0.0
H472 H 0.63771 0.70837 0.19241 0.0
H473 H 0.67698 0.72464 0.13375 0.0
H474 H 0.6027 0.67 1.04191 0.0
H475 H 0.56374 0.65393 1.10053 0.0
H476 H 0.36139 0.52064 0.32754 0.0
H477 H 0.34499 0.55357 0.36545 0.0
H478 H 0.38386 0.62199 0.26113 0.0
H479 H 0.40081 0.58912 0.22391 0.0
H480 H 0.50301 0.1718 0.23898 0.0
H481 H 0.50358 0.32247 0.33725 0.0
H482 H 0.52153 0.19619 0.37476 0.0
H483 H 0.52208 0.31674 0.2012 0.0
H484 H 0.50968 0.27661 0.35184 0.0
H485 H 0.50953 0.22395 0.22417 0.0
C486 C 0.50916 0.18838 0.26561 0.0
C487 C 0.51218 0.17945 0.30814 0.0
C488 C 0.51291 0.28558 0.31885 0.0
C489 C 0.51843 0.23941 0.29156 0.0
C490 C 0.50956 0.31196 0.31048 0.0
C491 C 0.51271 0.32401 0.26795 0.0
C492 C 0.51852 0.27007 0.28429 0.0
C493 C 0.51993 0.30881 0.2346 0.0
C494 C 0.51272 0.21821 0.25712 0.0
C495 C 0.51952 0.20198 0.34134 0.0
N496 N 0.52206 0.28252 0.24333 0.0
N497 N 0.52188 0.23049 0.3325 0.0
H498 H 0.30836 0.506 0.71366 0.0
H499 H 0.20637 0.53789 0.5369 0.0
H500 H 0.33196 0.51736 0.57703 0.0
H501 H 0.16702 0.48719 0.65663 0.0
H502 H 0.25687 0.54119 0.55496 0.0
H503 H 0.26119 0.50945 0.69726 0.0
C504 C 0.30422 0.51028 0.68037 0.0
C505 C 0.32462 0.51192 0.6468 0.0
C506 C 0.23722 0.5295 0.57739 0.0
C507 C 0.27032 0.51614 0.62769 0.0
C508 C 0.20837 0.52776 0.56721 0.0
C509 C 0.18211 0.5121 0.59513 0.0
C510 C 0.24029 0.51603 0.61628 0.0
C511 C 0.18639 0.49938 0.63392 0.0
C512 C 0.27707 0.51201 0.67096 0.0
C513 C 0.31723 0.51641 0.60405 0.0
N514 N 0.21469 0.50168 0.64331 0.0
N515 N 0.29096 0.51854 0.59578 0.0
H516 H 0.81279 0.32397 0.90441 0.0
H517 H 0.66101 0.17465 1.00305 0.0
H518 H 0.78746 0.32033 1.03976 0.0
H519 H 0.6672 0.19899 0.86719 0.0
H520 H 0.70724 0.22659 1.0177 0.0
H521 H 0.76079 0.27789 0.89012 0.0
C522 C 0.7961 0.31384 0.93108 0.0
C523 C 0.8047 0.32656 0.97332 0.0
C524 C 0.69831 0.22084 0.98475 0.0
C525 C 0.74483 0.27245 0.95732 0.0
C526 C 0.67174 0.19112 0.97634 0.0
C527 C 0.65971 0.18229 0.93384 0.0
C528 C 0.71403 0.24192 0.95021 0.0
C529 C 0.67513 0.20472 0.90057 0.0
C530 C 0.76633 0.28735 0.92287 0.0
C531 C 0.78196 0.31184 1.00655 0.0
N532 N 0.7016 0.23306 0.9093 0.0
N533 N 0.75347 0.28546 0.99802 0.0
H534 H 0.4583 0.67231 0.20376 0.0
H535 H 0.46373 0.78668 0.39628 0.0
H536 H 0.48884 0.67159 0.33488 0.0
H537 H 0.47656 0.81806 0.26277 0.0
H538 H 0.45951 0.73734 0.37242 0.0
H539 H 0.4527 0.71835 0.22296 0.0
C540 C 0.46319 0.68131 0.23678 0.0
C541 C 0.47391 0.6677 0.2678 0.0
C542 C 0.46289 0.75474 0.34807 0.0
C543 C 0.46752 0.72059 0.29002 0.0
C544 C 0.4651 0.78305 0.36165 0.0
C545 C 0.47064 0.80706 0.33173 0.0
C546 C 0.46604 0.74956 0.30375 0.0
C547 C 0.4721 0.80042 0.28721 0.0
C548 C 0.4603 0.70786 0.24758 0.0
C549 C 0.48041 0.681 0.30982 0.0
N550 N 0.47004 0.77247 0.27463 0.0
N551 N 0.47701 0.70631 0.31958 0.0
H552 H 0.64903 0.4717 0.57329 0.0
H553 H 0.80917 0.4911 0.6631 0.0
H554 H 0.66374 0.46778 0.71082 0.0
H555 H 0.77419 0.45035 0.53682 0.0
H556 H 0.75765 0.48544 0.68057 0.0
H557 H 0.69514 0.46595 0.55805 0.0
C558 C 0.66156 0.46896 0.60032 0.0
C559 C 0.652 0.46974 0.64343 0.0
C560 C 0.76108 0.47747 0.64914 0.0
C561 C 0.70615 0.46463 0.62617 0.0
C562 C 0.79059 0.48072 0.6391 0.0
C563 C 0.79627 0.4712 0.59836 0.0
C564 C 0.73694 0.46536 0.61788 0.0
C565 C 0.77105 0.45793 0.56868 0.0
C566 C 0.68806 0.46584 0.59158 0.0
C567 C 0.66973 0.46672 0.67708 0.0
N568 N 0.74283 0.45588 0.57871 0.0
N569 N 0.6961 0.46487 0.6678 0.0
H570 H 0.31397 0.79019 0.86653 0.0
H571 H 0.1904 0.66468 1.03984 0.0
H572 H 0.31644 0.81093 1.00339 0.0
H573 H 0.16639 0.66715 0.90563 0.0
H574 H 0.24259 0.71131 1.02628 0.0
H575 H 0.26645 0.73854 0.8796 0.0
C576 C 0.30512 0.78361 0.89952 0.0
C577 C 0.31962 0.8051 0.93393 0.0
C578 C 0.22606 0.70138 0.99963 0.0
C579 C 0.26475 0.7456 0.94923 0.0
C580 C 0.19626 0.67449 1.00726 0.0
C581 C 0.17371 0.6616 0.97382 0.0
C582 C 0.23396 0.7154 0.95793 0.0
C583 C 0.18286 0.67602 0.93245 0.0
C584 C 0.27769 0.75418 0.90691 0.0
C585 C 0.30632 0.79522 0.97585 0.0
N586 N 0.21204 0.70185 0.92571 0.0
N587 N 0.27993 0.76642 0.98229 0.0
H588 H 0.63654 0.22555 1.01688 0.0
H589 H 0.68232 0.21621 0.21618 0.0
H590 H 0.55734 0.22502 1.07939 0.0
H591 H 0.60323 0.22377 0.26239 0.0
H592 H 0.68023 0.23929 0.14743 0.0
H593 H 0.66655 0.24575 1.083 0.0
C594 C 0.62561 0.23045 1.04421 0.0
C595 C 0.59377 0.22222 1.04305 0.0
C596 C 0.66371 0.23679 0.17264 0.0
C597 C 0.62769 0.24377 1.12055 0.0
C598 C 0.66503 0.22355 0.21227 0.0
C599 C 0.64205 0.21663 0.24447 0.0
C600 C 0.63888 0.24274 0.16511 0.0
C601 C 0.62107 0.22787 0.2383 0.0
C602 C 0.64278 0.24161 1.08267 0.0
C603 C 0.58134 0.22966 1.07941 0.0
N604 N 0.61943 0.23948 0.19895 0.0
N605 N 0.59802 0.23918 1.11701 0.0
H606 H 0.32141 0.58558 0.38048 0.0
H607 H 0.38 0.64187 0.574 0.0
H608 H 0.41111 0.65209 0.32377 0.0
H609 H 0.46597 0.66592 0.50485 0.0
H610 H 0.35787 0.64851 0.50636 0.0
H611 H 0.33679 0.61585 0.4476 0.0
C612 C 0.34386 0.60729 0.38152 0.0
C613 C 0.3656 0.61534 0.34723 0.0
C614 C 0.38177 0.65289 0.5062 0.0
C615 C 0.38361 0.65033 0.42408 0.0
C616 C 0.39449 0.6492 0.54485 0.0
C617 C 0.42431 0.6517 0.54462 0.0
C618 C 0.399 0.65889 0.46723 0.0
C619 C 0.44258 0.66284 0.50653 0.0
C620 C 0.35269 0.62485 0.41998 0.0
C621 C 0.39389 0.64431 0.34982 0.0
N622 N 0.42932 0.66521 0.4691 0.0
N623 N 0.4026 0.6601 0.38822 0.0
H624 H 0.74762 0.46088 0.90031 0.0
H625 H 0.73836 0.4167 0.69735 0.0
H626 H 0.74249 0.37208 0.92641 0.0
H627 H 0.70708 0.32225 0.74221 0.0
H628 H 0.72389 0.4289 0.76662 0.0
H629 H 0.71635 0.43812 0.83477 0.0
C630 C 0.73939 0.4364 0.89276 0.0
C631 C 0.74917 0.41894 0.91775 0.0
C632 C 0.71896 0.40508 0.76142 0.0
C633 C 0.7146 0.39309 0.84178 0.0
C634 C 0.72722 0.398 0.72118 0.0
C635 C 0.72533 0.36878 0.7145 0.0
C636 C 0.70925 0.38294 0.79549 0.0
C637 C 0.71038 0.3456 0.74671 0.0
C638 C 0.72175 0.42344 0.85496 0.0
C639 C 0.73645 0.38691 0.90764 0.0
N640 N 0.70388 0.35347 0.78631 0.0
N641 N 0.72066 0.37534 0.86976 0.0
H642 H 0.42144 0.75561 1.0674 0.0
H643 H 0.36093 0.75587 0.25927 0.0
H644 H 0.34562 0.76251 1.00814 0.0
H645 H 0.31426 0.79537 0.18601 0.0
H646 H 0.36136 0.72727 0.19456 0.0
H647 H 0.39174 0.73928 0.13507 0.0
C648 C 0.398 0.75252 1.06815 0.0
C649 C 0.3867 0.76183 1.03261 0.0
C650 C 0.35065 0.74184 0.1926 0.0
C651 C 0.35217 0.74301 1.11018 0.0
C652 C 0.34988 0.7578 0.22989 0.0
C653 C 0.33865 0.77903 0.22747 0.0
C654 C 0.34071 0.74779 0.15266 0.0
C655 C 0.32424 0.78017 0.18876 0.0
C656 C 0.38076 0.74293 1.10698 0.0
C657 C 0.35576 0.75635 1.03494 0.0
N658 N 0.32641 0.76545 0.15255 0.0
N659 N 0.34003 0.74832 1.07354 0.0
H660 H 0.6746 0.44051 0.38913 0.0
H661 H 0.54511 0.30882 0.53134 0.0
H662 H 0.59209 0.3576 0.34112 0.0
H663 H 0.62385 0.39494 0.57947 0.0
H664 H 0.57452 0.31479 0.46416 0.0
H665 H 0.66924 0.41312 0.45781 0.0
C666 C 0.65593 0.41625 0.39249 0.0
C667 C 0.63301 0.40187 0.35998 0.0
C668 C 0.58577 0.33185 0.49002 0.0
C669 C 0.6265 0.37055 0.43852 0.0
C670 C 0.56894 0.32845 0.52839 0.0
C671 C 0.58143 0.3521 0.56031 0.0
C672 C 0.61499 0.35937 0.4834 0.0
C673 C 0.61284 0.37642 0.55542 0.0
C674 C 0.6529 0.40056 0.4317 0.0
C675 C 0.61 0.37002 0.36549 0.0
N676 N 0.62816 0.37996 0.51707 0.0
N677 N 0.60678 0.35576 0.40454 0.0
H678 H 0.19447 0.50689 0.86737 0.0
H679 H 0.24727 0.56562 0.679 0.0
H680 H 0.25438 0.59734 0.92696 0.0
H681 H 0.27405 0.65366 0.74361 0.0
H682 H 0.25783 0.54612 0.74551 0.0
H683 H 0.22698 0.5242 0.80311 0.0
C684 C 0.21526 0.53007 0.86778 0.0
C685 C 0.22068 0.5512 0.902 0.0
C686 C 0.26166 0.56979 0.74516 0.0
C687 C 0.2581 0.5719 0.827 0.0
C688 C 0.25619 0.58132 0.70669 0.0
C689 C 0.25778 0.61073 0.70637 0.0
C690 C 0.2676 0.58734 0.78371 0.0
C691 C 0.2705 0.63005 0.74316 0.0
C692 C 0.2341 0.54018 0.8305 0.0
C693 C 0.2483 0.5808 0.90035 0.0
N694 N 0.2738 0.61761 0.7809 0.0
N695 N 0.2653 0.59072 0.86278 0.0
H696 H 0.36671 0.95224 1.02548 0.0
H697 H 0.49648 0.03859 0.2192 0.0
H698 H 0.45314 0.95034 1.03357 0.0
H699 H 0.40386 0.02699 0.22933 0.0
H700 H 0.48123 0.00888 0.15075 0.0
H701 H 0.37959 0.98103 1.0958 0.0
C702 C 0.38844 0.95772 1.04157 0.0
C703 C 0.40854 0.94809 1.02192 0.0
C704 C 0.46406 0.01277 0.1674 0.0
C705 C 0.42404 0.98242 1.105 0.0
C706 C 0.47284 0.03005 0.2073 0.0
C707 C 0.45182 0.03608 0.2318 0.0
C708 C 0.43374 0.00105 0.1494 0.0
C709 C 0.42139 0.02346 0.21287 0.0
C710 C 0.39583 0.97437 1.08238 0.0
C711 C 0.43638 0.95661 1.0461 0.0
N712 N 0.41357 0.00711 0.17349 0.0
N713 N 0.44308 0.97295 1.08517 0.0
H714 H 0.41035 0.37206 0.35529 0.0
H715 H 0.45814 0.50143 0.55246 0.0
H716 H 0.50074 0.4563 0.36522 0.0
H717 H 0.37257 0.41182 0.55802 0.0
H718 H 0.47181 0.48546 0.48378 0.0
H719 H 0.39471 0.38577 0.42537 0.0
C720 C 0.42714 0.39348 0.37172 0.0
C721 C 0.45736 0.41269 0.35248 0.0
C722 C 0.45 0.46911 0.49951 0.0
C723 C 0.43883 0.42919 0.43566 0.0
C724 C 0.44191 0.47833 0.53958 0.0
C725 C 0.41377 0.45839 0.56295 0.0
C726 C 0.43012 0.43941 0.4802 0.0
C727 C 0.39452 0.42857 0.54256 0.0
C728 C 0.41802 0.40137 0.41245 0.0
C729 C 0.47729 0.44018 0.37725 0.0
N730 N 0.40284 0.42032 0.5032 0.0
N731 N 0.46782 0.44732 0.4163 0.0
H732 H 0.04532 0.43396 0.68637 0.0
H733 H 0.93975 0.45854 0.87384 0.0
H734 H 0.03951 0.51818 0.69631 0.0
H735 H 0.96902 0.39019 0.8911 0.0
H736 H 0.96915 0.47465 0.80517 0.0
H737 H 0.0143 0.41441 0.75471 0.0
C738 C 0.03771 0.44865 0.7025 0.0
C739 C 0.04633 0.47857 0.68398 0.0
C740 C 0.97013 0.45678 0.82397 0.0
C741 C 0.0083 0.4548 0.76477 0.0
C742 C 0.95259 0.44695 0.86393 0.0
C743 C 0.95113 0.4226 0.89051 0.0
C744 C 0.98788 0.44324 0.80843 0.0
C745 C 0.96879 0.40904 0.87323 0.0
C746 C 0.01965 0.43718 0.74224 0.0
C747 C 0.03464 0.4954 0.70807 0.0
N748 N 0.98602 0.4194 0.83437 0.0
N749 N 0.01643 0.48329 0.74566 0.0
H750 H 0.57529 0.96027 0.22733 0.0
H751 H 0.52367 0.03408 1.02523 0.0
H752 H 0.48334 0.94976 0.21446 0.0
H753 H 0.613 0.03776 1.025 0.0
H754 H 0.51009 0.00449 1.09396 0.0
H755 H 0.59062 0.98907 0.15682 0.0
C756 C 0.5581 0.96377 0.21014 0.0
C757 C 0.52753 0.95172 0.22859 0.0
C758 C 0.53284 0.01187 1.07952 0.0
C759 C 0.54564 0.98606 0.14514 0.0
C760 C 0.54079 0.02903 1.0394 0.0
C761 C 0.5699 0.03925 1.0175 0.0
C762 C 0.554 0.0045 1.10041 0.0
C763 C 0.59028 0.03091 1.03932 0.0
C764 C 0.56703 0.98048 0.16923 0.0
C765 C 0.50707 0.95791 0.20298 0.0
N766 N 0.58215 0.01459 1.07878 0.0
N767 N 0.51635 0.97423 0.16382 0.0
H768 H 0.60564 0.57527 0.55935 0.0
H769 H 0.48231 0.52616 0.35477 0.0
H770 H 0.52425 0.48332 0.5437 0.0
H771 H 0.5676 0.61602 0.35881 0.0
H772 H 0.4977 0.51149 0.42279 0.0
H773 H 0.59283 0.59143 0.48934 0.0
C774 C 0.58505 0.55822 0.54166 0.0
C775 C 0.5663 0.52744 0.55933 0.0
C776 C 0.51312 0.53457 0.40955 0.0
C777 C 0.55096 0.54652 0.47612 0.0
C778 C 0.50427 0.54317 0.36976 0.0
C779 C 0.52324 0.57277 0.3492 0.0
C780 C 0.5413 0.55552 0.43157 0.0
C781 C 0.55167 0.59293 0.37205 0.0
C782 C 0.57767 0.56765 0.50098 0.0
C783 C 0.53993 0.50722 0.53298 0.0
N784 N 0.55946 0.58416 0.41119 0.0
N785 N 0.53336 0.51696 0.49392 0.0
H786 H 0.04741 0.53722 0.86788 0.0
H787 H 0.93043 0.55156 0.6911 0.0
H788 H 0.00434 0.59273 0.89714 0.0
H789 H 0.94596 0.47293 0.69298 0.0
H790 H 0.96125 0.57136 0.7592 0.0
H791 H 0.01846 0.52138 0.79917 0.0
C792 C 0.03159 0.54594 0.86064 0.0
C793 C 0.02908 0.56668 0.89057 0.0
C794 C 0.9581 0.54978 0.745 0.0
C795 C -0.00733 0.5459 0.80858 0.0
C796 C 0.94017 0.53817 0.70537 0.0
C797 C 0.93431 0.50969 0.68465 0.0
C798 C 0.97221 0.53392 0.76517 0.0
C799 C 0.94864 0.49451 0.70649 0.0
C800 C 0.01434 0.53621 0.82064 0.0
C801 C 0.00777 0.57676 0.87657 0.0
N802 N 0.96671 0.50682 0.74398 0.0
N803 N 0.99077 0.56637 0.83772 0.0
H804 H 0.44717 0.96899 0.38918 0.0
H805 H 0.53023 0.02181 0.39222 0.0
H806 H 0.44169 0.0371 0.47186 0.0
H807 H 0.53246 0.95458 0.47974 0.0
H808 H 0.51447 0.04231 0.45392 0.0
H809 H 0.45921 0.94813 0.45376 0.0
C810 C 0.44781 0.97923 0.42074 0.0
C811 C 0.44781 0.00763 0.42423 0.0
C812 C 0.51868 0.02303 0.45982 0.0
C813 C 0.46868 0.98874 0.49332 0.0
C814 C 0.52786 0.01153 0.42421 0.0
C815 C 0.52811 0.9834 0.42948 0.0
C816 C 0.50319 0.00183 0.4947 0.0
C817 C 0.52757 0.97325 0.47273 0.0
C818 C 0.4549 0.96755 0.45802 0.0
C819 C 0.44612 0.01783 0.46678 0.0
N820 N 0.51273 0.98086 0.50382 0.0
N821 N 0.45894 0.0099 0.50005 0.0
H822 H 0.46101 0.4439 0.73623 0.0
H823 H 0.57651 0.52334 0.81267 0.0
H824 H 0.40492 0.4663 0.82003 0.0
H825 H 0.51429 0.53944 0.73506 0.0
H826 H 0.53541 0.49732 0.86816 0.0
H827 H 0.49217 0.44728 0.80041 0.0
C828 C 0.45492 0.44953 0.76766 0.0
C829 C 0.43357 0.46049 0.77088 0.0
C830 C 0.53133 0.50821 0.84019 0.0
C831 C 0.47397 0.47206 0.83816 0.0
C832 C 0.55414 0.52168 0.80744 0.0
C833 C 0.54516 0.52601 0.76569 0.0
C834 C 0.50148 0.50376 0.83162 0.0
C835 C 0.5202 0.53186 0.76489 0.0
C836 C 0.473 0.45198 0.8044 0.0
C837 C 0.42555 0.46479 0.81349 0.0
N838 N 0.49846 0.51989 0.79749 0.0
N839 N 0.44672 0.47199 0.84611 0.0
H840 H 0.93266 0.40737 0.14646 0.0
H841 H 0.96881 0.525 1.06432 0.0
H842 H 0.00973 0.4685 1.06464 0.0
H843 H 0.04662 0.58024 0.14907 0.0
H844 H 0.94039 0.49266 0.12757 0.0
H845 H 0.94704 0.45014 0.19861 0.0
C846 C 0.95321 0.42976 0.13985 0.0
C847 C 0.96605 0.43758 1.09751 0.0
C848 C 0.9641 0.51208 0.13218 0.0
C849 C 0.98694 0.48353 0.16001 0.0
C850 C 0.98011 0.53085 1.09591 0.0
C851 C 0.01239 0.55238 1.09961 0.0
C852 C 0.98284 0.51101 0.16617 0.0
C853 C 0.02424 0.55991 0.14235 0.0
C854 C 0.96201 0.4537 0.17061 0.0
C855 C -0.00345 0.46321 1.09488 0.0
N856 N 0.00997 0.53823 0.17451 0.0
N857 N 0.00587 0.48615 0.12554 0.0
H858 H 0.06096 0.56778 0.4575 0.0
H859 H 0.92158 0.42487 0.45276 0.0
H860 H 0.03133 0.47099 0.48658 0.0
H861 H 0.9476 0.52014 0.48609 0.0
H862 H 0.95425 0.44438 0.38742 0.0
H863 H 0.02757 0.55064 0.39316 0.0
C864 C 0.04714 0.54282 0.45054 0.0
C865 C 0.04557 0.52029 0.48022 0.0
C866 C 0.95203 0.46101 0.40827 0.0
C867 C 0.00712 0.50106 0.40804 0.0
C868 C 0.93463 0.45 0.44672 0.0
C869 C 0.93574 0.47154 0.47797 0.0
C870 C 0.97398 0.49332 0.40556 0.0
C871 C 0.94975 0.50322 0.46588 0.0
C872 C 0.02924 0.53316 0.41267 0.0
C873 C 0.03015 0.48878 0.46728 0.0
N874 N 0.96804 0.51325 0.42956 0.0
N875 N 0.01148 0.47998 0.43163 0.0
H876 H 0.40236 0.93863 0.77018 0.0
H877 H 0.52004 0.97625 0.84872 0.0
H878 H 0.4646 0.01382 0.85317 0.0
H879 H 0.57497 0.05311 0.76195 0.0
H880 H 0.48747 0.94737 0.78608 0.0
H881 H 0.44415 0.9551 0.71539 0.0
C882 C 0.42487 0.95893 0.77675 0.0
C883 C 0.43341 0.97082 0.81934 0.0
C884 C 0.50675 0.97112 0.78103 0.0
C885 C 0.47793 0.99403 0.75456 0.0
C886 C 0.52562 0.9874 0.81694 0.0
C887 C 0.54709 0.01968 0.81253 0.0
C888 C 0.50521 0.98974 0.74712 0.0
C889 C 0.55429 0.0312 0.76952 0.0
C890 C 0.44808 0.96911 0.74448 0.0
C891 C 0.45881 0.00142 0.82234 0.0
N892 N 0.53237 0.01676 0.73789 0.0
N893 N 0.48087 0.0121 0.79015 0.0
H894 H 0.51182 0.57572 1.09363 0.0
H895 H 0.43891 0.45659 0.18546 0.0
H896 H 0.53102 0.52107 0.18297 0.0
H897 H 0.46417 0.4055 1.09615 0.0
H898 H 0.43899 0.48794 1.12372 0.0
H899 H 0.48609 0.53076 1.04447 0.0
C900 C 0.51117 0.55433 1.10261 0.0
C901 C 0.5167 0.54891 0.14579 0.0
C902 C 0.44441 0.46944 1.11754 0.0
C903 C 0.49472 0.50073 1.08681 0.0
C904 C 0.44413 0.4514 0.15316 0.0
C905 C 0.45697 0.4318 0.1475 0.0
C906 C 0.46394 0.47199 1.0819 0.0
C907 C 0.46095 0.42491 1.10414 0.0
C908 C 0.49777 0.52923 1.07346 0.0
C909 C 0.52308 0.52456 0.15171 0.0
N910 N 0.46571 0.44598 1.07226 0.0
N911 N 0.51134 0.50064 1.12239 0.0
H912 H 0.2937 -0.00085 0.75538 0.0
H913 H 0.29198 0.00515 0.49747 0.0
H914 H 0.2633 0.91884 0.67068 0.0
H915 H 0.34346 0.08611 0.58051 0.0
H916 H 0.26413 0.97379 0.56141 0.0
H917 H 0.29453 0.03041 0.69294 0.0
C918 C 0.28634 0.98786 0.72385 0.0
C919 C 0.27907 0.95659 0.71786 0.0
C920 C 0.28096 -0.00139 0.56551 0.0
C921 C 0.28034 0.99222 0.64647 0.0
C922 C 0.29671 0.01659 0.529 0.0
C923 C 0.32055 0.04808 0.53395 0.0
C924 C 0.28925 0.01223 0.60712 0.0
C925 C 0.32577 0.06167 0.57555 0.0
C926 C 0.28697 0.00575 0.68822 0.0
C927 C 0.26978 0.94313 0.67636 0.0
N928 N 0.31066 0.0435 0.61073 0.0
N929 N 0.27117 0.96118 0.64203 0.0
H930 H 0.28693 0.28627 1.093 0.0
H931 H 0.25842 0.3498 0.91549 0.0
H932 H 0.34358 0.26874 1.00182 0.0
H933 H 0.28381 0.293 0.83667 0.0
H934 H 0.25967 0.32181 0.98006 0.0
H935 H 0.2557 0.28776 1.03237 0.0
C936 C 0.2924 0.28211 1.06026 0.0
C937 C 0.31848 0.27835 1.05215 0.0
C938 C 0.26372 0.31441 0.94862 0.0
C939 C 0.28383 0.28141 0.98264 0.0
C940 C 0.26332 0.33072 0.91173 0.0
C941 C 0.27169 0.32414 0.87093 0.0
C942 C 0.2729 0.29161 0.94459 0.0
C943 C 0.27741 0.29896 0.8676 0.0
C944 C 0.27484 0.28343 1.02557 0.0
C945 C 0.32429 0.27273 1.00924 0.0
N946 N 0.27872 0.28415 0.90415 0.0
N947 N 0.30746 0.27499 0.97598 0.0
H948 H 0.97538 0.27681 0.16112 0.0
H949 H 0.05777 0.34744 0.34058 0.0
H950 H 0.89557 0.26218 0.23866 0.0
H951 H 0.97041 0.3018 0.4128 0.0
H952 H 0.03128 0.31408 0.27849 0.0
H953 H 0.00336 0.27938 0.22756 0.0
C954 C 0.96344 0.27342 0.19213 0.0
C955 C 0.93359 0.27062 0.19452 0.0
C956 C 0.0179 0.3103 0.30818 0.0
C957 C 0.96625 0.27562 0.27077 0.0
C958 C 0.03307 0.32981 0.34357 0.0
C959 C 0.01605 0.32793 0.38135 0.0
C960 C 0.98531 0.28894 0.31052 0.0
C961 C 0.98435 0.30424 0.38405 0.0
C962 C 0.97973 0.27553 0.23024 0.0
C963 C 0.91911 0.26574 0.23551 0.0
N964 N 0.96982 0.28616 0.34869 0.0
N965 N 0.9359 0.26923 0.27213 0.0
H966 H 0.70446 0.00778 0.73566 0.0
H967 H 0.6979 0.01305 0.47902 0.0
H968 H 0.72112 0.08892 0.6604 0.0
H969 H 0.66497 0.92832 0.55511 0.0
H970 H 0.72508 0.04422 0.54307 0.0
H971 H 0.70853 0.98278 0.66897 0.0
C972 C 0.70985 0.02071 0.70526 0.0
C973 C 0.7117 0.05013 0.70328 0.0
C974 C 0.71257 0.01878 0.54551 0.0
C975 C 0.71586 0.02149 0.62694 0.0
C976 C 0.69723 0.00093 0.50884 0.0
C977 C 0.67849 0.96809 0.51216 0.0
C978 C 0.70887 0.00362 0.58569 0.0
C979 C 0.67846 0.95367 0.5516 0.0
C980 C 0.71202 0.00635 0.66717 0.0
C981 C 0.71868 0.06581 0.66306 0.0
N982 N 0.69285 0.97157 0.58715 0.0
N983 N 0.71994 0.05105 0.6263 0.0
H984 H 0.69708 0.69614 1.08865 0.0
H985 H 0.7245 0.63314 0.90916 0.0
H986 H 0.64215 0.71637 0.99897 0.0
H987 H 0.70064 0.69159 0.8323 0.0
H988 H 0.72429 0.66132 0.9743 0.0
H989 H 0.72843 0.69485 1.02749 0.0
C990 C 0.69202 0.70092 1.05613 0.0
C991 C 0.66635 0.70535 1.04856 0.0
C992 C 0.72038 0.66903 0.94316 0.0
C993 C 0.70111 0.70253 0.97842 0.0
C994 C 0.72018 0.65262 0.90593 0.0
C995 C 0.71186 0.65958 0.86556 0.0
C996 C 0.71182 0.69233 0.93988 0.0
C997 C 0.70695 0.6853 0.86289 0.0
C998 C 0.70964 0.69972 1.02113 0.0
C999 C 0.66107 0.7118 1.00595 0.0
N1000 N 0.70617 0.70021 0.89978 0.0
N1001 N 0.67793 0.70962 0.97236 0.0
H1002 H 0.08896 0.73521 0.23554 0.0
H1003 H 0.00466 0.69042 0.42323 0.0
H1004 H 0.00125 0.70418 0.16846 0.0
H1005 H 0.92761 0.63504 0.336 0.0
H1006 H 0.03333 0.72615 0.36322 0.0
H1007 H 0.06238 0.7302 0.30457 0.0
C1008 C 0.06428 0.7284 0.23534 0.0
C1009 C 0.04707 0.71918 0.19645 0.0
C1010 C 0.01017 0.70625 0.35711 0.0
C1011 C 0.01627 0.71349 0.27532 0.0
C1012 C -0.00639 0.68603 0.39153 0.0
C1013 C 0.96417 0.65916 0.38411 0.0
C1014 C -0.00273 0.69916 0.31501 0.0
C1015 C 0.95076 0.65485 0.34267 0.0
C1016 C 0.04903 0.72573 0.27488 0.0
C1017 C 0.01536 0.71115 0.19776 0.0
N1018 N 0.96764 0.67434 0.30951 0.0
N1019 N 0.00077 0.70762 0.23672 0.0
H1020 H 0.47838 0.10563 0.54048 0.0
H1021 H 0.60748 0.10201 0.70803 0.0
H1022 H 0.55959 0.10152 0.49664 0.0
H1023 H 0.53013 0.11253 0.75278 0.0
H1024 H 0.59013 0.10102 0.63196 0.0
H1025 H 0.49575 0.10729 0.61689 0.0
C1026 C 0.49988 0.10519 0.54628 0.0
C1027 C 0.51724 0.10368 0.51005 0.0
C1028 C 0.57687 0.10367 0.65828 0.0
C1029 C 0.53783 0.10531 0.6006 0.0
C1030 C 0.58699 0.10434 0.70245 0.0
C1031 C 0.57087 0.10767 0.73885 0.0
C1032 C 0.54988 0.10615 0.64858 0.0
C1033 C 0.54407 0.11018 0.72721 0.0
C1034 C 0.50993 0.1061 0.59064 0.0
C1035 C 0.54494 0.10292 0.52201 0.0
N1036 N 0.53472 0.10933 0.68433 0.0
N1037 N 0.554 0.10369 0.56496 0.0
H1038 H 0.36993 0.48359 0.87111 0.0
H1039 H 0.41039 0.53951 1.08872 0.0
H1040 H 0.45128 0.57004 0.83051 0.0
H1041 H 0.49984 0.61161 1.03919 0.0
H1042 H 0.39329 0.52143 1.01439 0.0
H1043 H 0.38433 0.49933 0.94763 0.0
C1044 C 0.39071 0.50607 0.87777 0.0
C1045 C 0.40877 0.52524 0.84227 0.0
C1046 C 0.41678 0.54114 1.0189 0.0
C1047 C 0.42642 0.54444 0.93378 0.0
C1048 C 0.42675 0.55196 1.06243 0.0
C1049 C 0.45701 0.57778 1.07244 0.0
C1050 C 0.43673 0.55581 0.98246 0.0
C1051 C 0.4763 0.59187 1.03485 0.0
C1052 C 0.39915 0.51536 0.92244 0.0
C1053 C 0.43586 0.55404 0.85536 0.0
N1054 N 0.46594 0.58098 0.99265 0.0
N1055 N 0.44361 0.5624 0.89878 0.0
H1056 H 0.8744 0.44934 0.16017 0.0
H1057 H 0.85409 0.39472 0.41644 0.0
H1058 H 0.874 0.36489 0.198 0.0
H1059 H 0.88144 0.48914 0.37767 0.0
H1060 H 0.85661 0.38146 0.33913 0.0
H1061 H 0.87252 0.46166 0.23757 0.0
C1062 C 0.87361 0.43292 0.18435 0.0
C1063 C 0.87409 0.40551 0.17024 0.0
C1064 C 0.86195 0.40511 0.34714 0.0
C1065 C 0.87159 0.42012 0.26323 0.0
C1066 C 0.86032 0.41284 0.39206 0.0
C1067 C 0.86714 0.44338 0.40569 0.0
C1068 C 0.87006 0.42763 0.31331 0.0
C1069 C 0.87556 0.46521 0.37053 0.0
C1070 C 0.87266 0.44027 0.22944 0.0
C1071 C 0.87348 0.38618 0.20542 0.0
N1072 N 0.87646 0.45697 0.32726 0.0
N1073 N 0.87201 0.3936 0.24907 0.0
H1074 H 0.50776 0.8927 0.54441 0.0
H1075 H 0.37298 0.88699 0.71159 0.0
H1076 H 0.4218 0.88588 0.49932 0.0
H1077 H 0.45325 0.88189 0.7558 0.0
H1078 H 0.39086 0.88856 0.63531 0.0
H1079 H 0.48962 0.89086 0.62056 0.0
C1080 C 0.48505 0.89072 0.54994 0.0
C1081 C 0.46661 0.88917 0.51347 0.0
C1082 C 0.40464 0.88698 0.66157 0.0
C1083 C 0.44507 0.88739 0.60376 0.0
C1084 C 0.39422 0.88599 0.70584 0.0
C1085 C 0.41096 0.88387 0.7421 0.0
C1086 C 0.43261 0.88623 0.65172 0.0
C1087 C 0.43876 0.88313 0.73032 0.0
C1088 C 0.47454 0.88969 0.59414 0.0
C1089 C 0.43732 0.8869 0.52498 0.0
N1090 N 0.4484 0.88436 0.68739 0.0
N1091 N 0.42783 0.88618 0.5679 0.0
H1092 H 0.52536 0.41474 0.82546 0.0
H1093 H 0.56822 0.45157 1.08468 0.0
H1094 H 0.60682 0.49955 0.86954 0.0
H1095 H 0.48107 0.3728 1.04109 0.0
H1096 H 0.58317 0.46779 1.00836 0.0
H1097 H 0.51032 0.39861 0.90177 0.0
C1098 C 0.54054 0.43019 0.85081 0.0
C1099 C 0.56803 0.4589 0.83879 0.0
C1100 C 0.56077 0.44685 1.01499 0.0
C1101 C 0.55 0.43957 0.93044 0.0
C1102 C 0.55199 0.43722 1.05943 0.0
C1103 C 0.52299 0.41012 1.0716 0.0
C1104 C 0.54088 0.42961 0.97994 0.0
C1105 C 0.5037 0.39361 1.0352 0.0
C1106 C 0.5316 0.42073 0.89525 0.0
C1107 C 0.58565 0.47719 0.87532 0.0
N1108 N 0.5129 0.40338 0.99222 0.0
N1109 N 0.57656 0.46731 0.91829 0.0
H1110 H 0.09631 0.49743 0.37796 0.0
H1111 H 0.10575 0.62563 0.19763 0.0
H1112 H 0.12709 0.59314 0.41422 0.0
H1113 H 0.10304 0.53952 0.16233 0.0
H1114 H 0.1091 0.61376 0.27556 0.0
H1115 H 0.0942 0.51114 0.3011 0.0
C1116 C 0.10287 0.52148 0.37029 0.0
C1117 C 0.11245 0.54391 0.40463 0.0
C1118 C 0.10786 0.59738 0.2509 0.0
C1119 C 0.10915 0.56024 0.31295 0.0
C1120 C 0.10593 0.60426 0.20562 0.0
C1121 C 0.10442 0.58404 0.1712 0.0
C1122 C 0.10765 0.56943 0.26381 0.0
C1123 C 0.10449 0.55653 0.18607 0.0
C1124 C 0.10156 0.52939 0.32556 0.0
C1125 C 0.12001 0.5746 0.39029 0.0
N1126 N 0.10583 0.55022 0.2299 0.0
N1127 N 0.11804 0.58155 0.34674 0.0
loop_
_geom_bond_atom_site_label_1
_geom_bond_atom_site_label_2
_geom_bond_distance
_geom_bond_site_symmetry_2
_ccdc_geom_bond_type
Pr0 C2 2.880 . S
Pr0 O20 2.562 . S
Pr0 O21 2.490 . S
Pr0 O22 2.695 . S
Pr0 O23 2.512 . S
Pr0 O25 2.437 . S
Pr0 O28 2.436 . S
Pr0 O30 2.438 . S
Pr1 C11 2.880 . S
Pr1 O22 2.436 . S
Pr1 O24 2.438 . S
Pr1 O26 2.562 . S
Pr1 O27 2.490 . S
Pr1 O28 2.695 . S
Pr1 O29 2.512 . S
Pr1 O31 2.437 . S
C2 Pr0 2.880 . S
C2 C3 1.491 . S
C2 O20 1.254 . S
C2 O21 1.225 . S
C3 C2 1.491 . S
C3 C4 1.392 . S
C3 C8 1.356 . S
C4 C3 1.392 . S
C4 C5 1.368 . S
C4 H32 0.929 . S
C5 C4 1.368 . S
C5 C6 1.386 . S
C5 H33 0.929 . S
C6 C5 1.386 . S
C6 C7 1.373 . S
C7 C6 1.373 . S
C7 C8 1.409 . S
C7 H34 0.931 . S
C8 C3 1.356 . S
C8 C7 1.409 . S
C8 H35 0.930 . S
C9 O22 1.270 . S
C9 O23 1.248 . S
C10 O24 1.267 . S
C10 O25 1.278 . S
C11 Pr1 2.880 . S
C11 C12 1.491 . S
C11 O26 1.254 . S
C11 O27 1.225 . S
C12 C11 1.491 . S
C12 C13 1.392 . S
C12 C17 1.356 . S
C13 C12 1.392 . S
C13 C14 1.368 . S
C13 H36 0.929 . S
C14 C13 1.368 . S
C14 C15 1.386 . S
C14 H37 0.929 . S
C15 C14 1.386 . S
C15 C16 1.373 . S
C16 C15 1.373 . S
C16 C17 1.409 . S
C16 H38 0.931 . S
C17 C12 1.356 . S
C17 C16 1.409 . S
C17 H39 0.930 . S
C18 O28 1.270 . S
C18 O29 1.248 . S
C19 O30 1.267 . S
C19 O31 1.278 . S
O20 Pr0 2.562 . S
O20 C2 1.254 . S
O21 Pr0 2.490 . S
O21 C2 1.225 . S
O22 Pr0 2.695 . S
O22 Pr1 2.436 . S
O22 C9 1.270 . S
O23 Pr0 2.512 . S
O23 C9 1.248 . S
O24 Pr1 2.438 . S
O24 C10 1.267 . S
O25 Pr0 2.437 . S
O25 C10 1.278 . S
O26 Pr1 2.562 . S
O26 C11 1.254 . S
O27 Pr1 2.490 . S
O27 C11 1.225 . S
O28 Pr0 2.436 . S
O28 Pr1 2.695 . S
O28 C18 1.270 . S
O29 Pr1 2.512 . S
O29 C18 1.248 . S
O30 Pr0 2.438 . S
O30 C19 1.267 . S
O31 Pr1 2.437 . S
O31 C19 1.278 . S
H32 C4 0.929 . S
H33 C5 0.929 . S
H34 C7 0.931 . S
H35 C8 0.930 . S
H36 C13 0.929 . S
H37 C14 0.929 . S
H38 C16 0.931 . S
H39 C17 0.930 . S
Pr40 C42 2.880 . S
Pr40 O60 2.562 . S
Pr40 O61 2.490 . S
Pr40 O62 2.695 . S
Pr40 O63 2.512 . S
Pr40 O65 2.437 . S
Pr40 O68 2.436 . S
Pr40 O70 2.438 . S
Pr41 C51 2.880 . S
Pr41 O62 2.436 . S
Pr41 O64 2.438 . S
Pr41 O66 2.562 . S
Pr41 O67 2.490 . S
Pr41 O68 2.695 . S
Pr41 O69 2.512 . S
Pr41 O71 2.437 . S
C42 Pr40 2.880 . S
C42 C43 1.491 . S
C42 O60 1.254 . S
C42 O61 1.225 . S
C43 C42 1.491 . S
C43 C44 1.392 . S
C43 C48 1.356 . S
C44 C43 1.392 . S
C44 C45 1.368 . S
C44 H72 0.929 . S
C45 C44 1.368 . S
C45 C46 1.386 . S
C45 H73 0.929 . S
C46 C45 1.386 . S
C46 C47 1.373 . S
C47 C46 1.373 . S
C47 C48 1.409 . S
C47 H74 0.931 . S
C48 C43 1.356 . S
C48 C47 1.409 . S
C48 H75 0.930 . S
C49 O62 1.270 . S
C49 O63 1.248 . S
C50 O64 1.267 . S
C50 O65 1.278 . S
C51 Pr41 2.880 . S
C51 C52 1.491 . S
C51 O66 1.254 . S
C51 O67 1.225 . S
C52 C51 1.491 . S
C52 C53 1.392 . S
C52 C57 1.356 . S
C53 C52 1.392 . S
C53 C54 1.368 . S
C53 H76 0.929 . S
C54 C53 1.368 . S
C54 C55 1.386 . S
C54 H77 0.929 . S
C55 C54 1.386 . S
C55 C56 1.373 . S
C56 C55 1.373 . S
C56 C57 1.409 . S
C56 H78 0.931 . S
C57 C52 1.356 . S
C57 C56 1.409 . S
C57 H79 0.930 . S
C58 O68 1.270 . S
C58 O69 1.248 . S
C59 O70 1.267 . S
C59 O71 1.278 . S
O60 Pr40 2.562 . S
O60 C42 1.254 . S
O61 Pr40 2.490 . S
O61 C42 1.225 . S
O62 Pr40 2.695 . S
O62 Pr41 2.436 . S
O62 C49 1.270 . S
O63 Pr40 2.512 . S
O63 C49 1.248 . S
O64 Pr41 2.438 . S
O64 C50 1.267 . S
O65 Pr40 2.437 . S
O65 C50 1.278 . S
O66 Pr41 2.562 . S
O66 C51 1.254 . S
O67 Pr41 2.490 . S
O67 C51 1.225 . S
O68 Pr40 2.436 . S
O68 Pr41 2.695 . S
O68 C58 1.270 . S
O69 Pr41 2.512 . S
O69 C58 1.248 . S
O70 Pr40 2.438 . S
O70 C59 1.267 . S
O71 Pr41 2.437 . S
O71 C59 1.278 . S
H72 C44 0.929 . S
H73 C45 0.929 . S
H74 C47 0.931 . S
H75 C48 0.930 . S
H76 C53 0.929 . S
H77 C54 0.929 . S
H78 C56 0.931 . S
H79 C57 0.930 . S
Pr80 C82 2.880 1_556 S
Pr80 O100 2.562 . S
Pr80 O101 2.490 . S
Pr80 O102 2.695 . S
Pr80 O103 2.512 . S
Pr80 O105 2.437 . S
Pr80 O108 2.436 . S
Pr80 O110 2.438 . S
Pr81 C91 2.880 . S
Pr81 O102 2.436 . S
Pr81 O104 2.438 . S
Pr81 O106 2.562 . S
Pr81 O107 2.490 . S
Pr81 O108 2.695 . S
Pr81 O109 2.512 . S
Pr81 O111 2.437 . S
C82 Pr80 2.880 1_554 S
C82 C83 1.491 . S
C82 O100 1.254 1_554 S
C82 O101 1.225 1_554 S
C83 C82 1.491 . S
C83 C84 1.392 . S
C83 C88 1.356 . S
C84 C83 1.392 . S
C84 C85 1.368 . S
C84 H112 0.929 . S
C85 C84 1.368 . S
C85 C86 1.386 . S
C85 H113 0.929 . S
C86 C85 1.386 . S
C86 C87 1.373 . S
C87 C86 1.373 . S
C87 C88 1.409 . S
C87 H114 0.931 . S
C88 C83 1.356 . S
C88 C87 1.409 . S
C88 H115 0.930 . S
C89 O102 1.270 . S
C89 O103 1.248 . S
C90 O104 1.267 . S
C90 O105 1.278 . S
C91 Pr81 2.880 . S
C91 C92 1.491 . S
C91 O106 1.254 . S
C91 O107 1.225 . S
C92 C91 1.491 . S
C92 C93 1.392 . S
C92 C97 1.356 . S
C93 C92 1.392 . S
C93 C94 1.368 . S
C93 H116 0.929 . S
C94 C93 1.368 . S
C94 C95 1.386 . S
C94 H117 0.929 . S
C95 C94 1.386 . S
C95 C96 1.373 . S
C96 C95 1.373 . S
C96 C97 1.409 . S
C96 H118 0.931 . S
C97 C92 1.356 . S
C97 C96 1.409 . S
C97 H119 0.930 . S
C98 O108 1.270 . S
C98 O109 1.248 . S
C99 O110 1.267 . S
C99 O111 1.278 . S
O100 Pr80 2.562 . S
O100 C82 1.254 1_556 S
O101 Pr80 2.490 . S
O101 C82 1.225 1_556 S
O102 Pr80 2.695 . S
O102 Pr81 2.436 . S
O102 C89 1.270 . S
O103 Pr80 2.512 . S
O103 C89 1.248 . S
O104 Pr81 2.438 . S
O104 C90 1.267 . S
O105 Pr80 2.437 . S
O105 C90 1.278 . S
O106 Pr81 2.562 . S
O106 C91 1.254 . S
O107 Pr81 2.490 . S
O107 C91 1.225 . S
O108 Pr80 2.436 . S
O108 Pr81 2.695 . S
O108 C98 1.270 . S
O109 Pr81 2.512 . S
O109 C98 1.248 . S
O110 Pr80 2.438 . S
O110 C99 1.267 . S
O111 Pr81 2.437 . S
O111 C99 1.278 . S
H112 C84 0.929 . S
H113 C85 0.929 . S
H114 C87 0.931 . S
H115 C88 0.930 . S
H116 C93 0.929 . S
H117 C94 0.929 . S
H118 C96 0.931 . S
H119 C97 0.930 . S
Pr120 C122 2.880 . S
Pr120 O140 2.562 . S
Pr120 O141 2.490 . S
Pr120 O142 2.695 . S
Pr120 O143 2.512 . S
Pr120 O145 2.437 . S
Pr120 O148 2.436 . S
Pr120 O150 2.438 . S
Pr121 C131 2.880 . S
Pr121 O142 2.436 . S
Pr121 O144 2.438 . S
Pr121 O146 2.562 . S
Pr121 O147 2.490 . S
Pr121 O148 2.695 . S
Pr121 O149 2.512 . S
Pr121 O151 2.437 . S
C122 Pr120 2.880 . S
C122 C123 1.491 . S
C122 O140 1.254 . S
C122 O141 1.225 . S
C123 C122 1.491 . S
C123 C124 1.392 . S
C123 C128 1.356 . S
C124 C123 1.392 . S
C124 C125 1.368 . S
C124 H152 0.929 . S
C125 C124 1.368 . S
C125 C126 1.386 . S
C125 H153 0.929 . S
C126 C125 1.386 . S
C126 C127 1.373 . S
C127 C126 1.373 . S
C127 C128 1.409 . S
C127 H154 0.931 . S
C128 C123 1.356 . S
C128 C127 1.409 . S
C128 H155 0.930 . S
C129 O142 1.270 . S
C129 O143 1.248 . S
C130 O144 1.267 . S
C130 O145 1.278 . S
C131 Pr121 2.880 . S
C131 C132 1.491 . S
C131 O146 1.254 . S
C131 O147 1.225 . S
C132 C131 1.491 . S
C132 C133 1.392 . S
C132 C137 1.356 . S
C133 C132 1.392 . S
C133 C134 1.368 . S
C133 H156 0.929 . S
C134 C133 1.368 . S
C134 C135 1.386 . S
C134 H157 0.929 . S
C135 C134 1.386 . S
C135 C136 1.373 . S
C136 C135 1.373 . S
C136 C137 1.409 . S
C136 H158 0.931 . S
C137 C132 1.356 . S
C137 C136 1.409 . S
C137 H159 0.930 . S
C138 O148 1.270 . S
C138 O149 1.248 . S
C139 O150 1.267 . S
C139 O151 1.278 . S
O140 Pr120 2.562 . S
O140 C122 1.254 . S
O141 Pr120 2.490 . S
O141 C122 1.225 . S
O142 Pr120 2.695 . S
O142 Pr121 2.436 . S
O142 C129 1.270 . S
O143 Pr120 2.512 . S
O143 C129 1.248 . S
O144 Pr121 2.438 . S
O144 C130 1.267 . S
O145 Pr120 2.437 . S
O145 C130 1.278 . S
O146 Pr121 2.562 . S
O146 C131 1.254 . S
O147 Pr121 2.490 . S
O147 C131 1.225 . S
O148 Pr120 2.436 . S
O148 Pr121 2.695 . S
O148 C138 1.270 . S
O149 Pr121 2.512 . S
O149 C138 1.248 . S
O150 Pr120 2.438 . S
O150 C139 1.267 . S
O151 Pr121 2.437 . S
O151 C139 1.278 . S
H152 C124 0.929 . S
H153 C125 0.929 . S
H154 C127 0.931 . S
H155 C128 0.930 . S
H156 C133 0.929 . S
H157 C134 0.929 . S
H158 C136 0.931 . S
H159 C137 0.930 . S
Pr160 C162 2.880 . S
Pr160 O180 2.562 . S
Pr160 O181 2.490 . S
Pr160 O182 2.695 . S
Pr160 O183 2.512 . S
Pr160 O185 2.437 . S
Pr160 O188 2.436 . S
Pr160 O190 2.438 . S
Pr161 C171 2.880 . S
Pr161 O182 2.436 . S
Pr161 O184 2.438 . S
Pr161 O186 2.562 . S
Pr161 O187 2.490 . S
Pr161 O188 2.695 . S
Pr161 O189 2.512 . S
Pr161 O191 2.437 . S
C162 Pr160 2.880 . S
C162 C163 1.491 . S
C162 O180 1.254 . S
C162 O181 1.225 . S
C163 C162 1.491 . S
C163 C164 1.392 . S
C163 C168 1.356 . S
C164 C163 1.392 . S
C164 C165 1.368 . S
C164 H192 0.929 . S
C165 C164 1.368 . S
C165 C166 1.386 . S
C165 H193 0.929 . S
C166 C165 1.386 . S
C166 C167 1.373 . S
C167 C166 1.373 . S
C167 C168 1.409 . S
C167 H194 0.931 . S
C168 C163 1.356 . S
C168 C167 1.409 . S
C168 H195 0.930 . S
C169 O182 1.270 . S
C169 O183 1.248 . S
C170 O184 1.267 . S
C170 O185 1.278 . S
C171 Pr161 2.880 . S
C171 C172 1.491 . S
C171 O186 1.254 . S
C171 O187 1.225 . S
C172 C171 1.491 . S
C172 C173 1.392 . S
C172 C177 1.356 . S
C173 C172 1.392 . S
C173 C174 1.368 . S
C173 H196 0.929 . S
C174 C173 1.368 . S
C174 C175 1.386 . S
C174 H197 0.929 . S
C175 C174 1.386 . S
C175 C176 1.373 . S
C176 C175 1.373 . S
C176 C177 1.409 . S
C176 H198 0.931 . S
C177 C172 1.356 . S
C177 C176 1.409 . S
C177 H199 0.930 . S
C178 O188 1.270 . S
C178 O189 1.248 . S
C179 O190 1.267 . S
C179 O191 1.278 . S
O180 Pr160 2.562 . S
O180 C162 1.254 . S
O181 Pr160 2.490 . S
O181 C162 1.225 . S
O182 Pr160 2.695 . S
O182 Pr161 2.436 . S
O182 C169 1.270 . S
O183 Pr160 2.512 . S
O183 C169 1.248 . S
O184 Pr161 2.438 . S
O184 C170 1.267 . S
O185 Pr160 2.437 . S
O185 C170 1.278 . S
O186 Pr161 2.562 . S
O186 C171 1.254 . S
O187 Pr161 2.490 . S
O187 C171 1.225 . S
O188 Pr160 2.436 . S
O188 Pr161 2.695 . S
O188 C178 1.270 . S
O189 Pr161 2.512 . S
O189 C178 1.248 . S
O190 Pr160 2.438 . S
O190 C179 1.267 . S
O191 Pr161 2.437 . S
O191 C179 1.278 . S
H192 C164 0.929 . S
H193 C165 0.929 . S
H194 C167 0.931 . S
H195 C168 0.930 . S
H196 C173 0.929 . S
H197 C174 0.929 . S
H198 C176 0.931 . S
H199 C177 0.930 . S
Pr200 C202 2.880 1_556 S
Pr200 O220 2.562 . S
Pr200 O221 2.490 . S
Pr200 O222 2.695 . S
Pr200 O223 2.512 . S
Pr200 O225 2.437 . S
Pr200 O228 2.436 . S
Pr200 O230 2.438 . S
Pr201 C211 2.880 . S
Pr201 O222 2.436 . S
Pr201 O224 2.438 . S
Pr201 O226 2.562 . S
Pr201 O227 2.490 . S
Pr201 O228 2.695 . S
Pr201 O229 2.512 . S
Pr201 O231 2.437 . S
C202 Pr200 2.880 1_554 S
C202 C203 1.491 . S
C202 O220 1.254 1_554 S
C202 O221 1.225 1_554 S
C203 C202 1.491 . S
C203 C204 1.392 . S
C203 C208 1.356 . S
C204 C203 1.392 . S
C204 C205 1.368 . S
C204 H232 0.929 . S
C205 C204 1.368 . S
C205 C206 1.386 . S
C205 H233 0.929 . S
C206 C205 1.386 . S
C206 C207 1.373 . S
C207 C206 1.373 . S
C207 C208 1.409 . S
C207 H234 0.931 . S
C208 C203 1.356 . S
C208 C207 1.409 . S
C208 H235 0.930 . S
C209 O222 1.270 . S
C209 O223 1.248 . S
C210 O224 1.267 . S
C210 O225 1.278 . S
C211 Pr201 2.880 . S
C211 C212 1.491 . S
C211 O226 1.254 . S
C211 O227 1.225 . S
C212 C211 1.491 . S
C212 C213 1.392 . S
C212 C217 1.356 . S
C213 C212 1.392 . S
C213 C214 1.368 . S
C213 H236 0.929 . S
C214 C213 1.368 . S
C214 C215 1.386 . S
C214 H237 0.929 . S
C215 C214 1.386 . S
C215 C216 1.373 . S
C216 C215 1.373 . S
C216 C217 1.409 . S
C216 H238 0.931 . S
C217 C212 1.356 . S
C217 C216 1.409 . S
C217 H239 0.930 . S
C218 O228 1.270 . S
C218 O229 1.248 . S
C219 O230 1.267 . S
C219 O231 1.278 . S
O220 Pr200 2.562 . S
O220 C202 1.254 1_556 S
O221 Pr200 2.490 . S
O221 C202 1.225 1_556 S
O222 Pr200 2.695 . S
O222 Pr201 2.436 . S
O222 C209 1.270 . S
O223 Pr200 2.512 . S
O223 C209 1.248 . S
O224 Pr201 2.438 . S
O224 C210 1.267 . S
O225 Pr200 2.437 . S
O225 C210 1.278 . S
O226 Pr201 2.562 . S
O226 C211 1.254 . S
O227 Pr201 2.490 . S
O227 C211 1.225 . S
O228 Pr200 2.436 . S
O228 Pr201 2.695 . S
O228 C218 1.270 . S
O229 Pr201 2.512 . S
O229 C218 1.248 . S
O230 Pr200 2.438 . S
O230 C219 1.267 . S
O231 Pr201 2.437 . S
O231 C219 1.278 . S
H232 C204 0.929 . S
H233 C205 0.929 . S
H234 C207 0.931 . S
H235 C208 0.930 . S
H236 C213 0.929 . S
H237 C214 0.929 . S
H238 C216 0.931 . S
H239 C217 0.930 . S
Pr240 C242 2.880 . S
Pr240 O260 2.562 . S
Pr240 O261 2.490 . S
Pr240 O262 2.695 . S
Pr240 O263 2.512 . S
Pr240 O265 2.437 . S
Pr240 O268 2.436 . S
Pr240 O270 2.438 . S
Pr241 C251 2.880 . S
Pr241 O262 2.436 . S
Pr241 O264 2.438 . S
Pr241 O266 2.562 . S
Pr241 O267 2.490 . S
Pr241 O268 2.695 . S
Pr241 O269 2.512 . S
Pr241 O271 2.437 . S
C242 Pr240 2.880 . S
C242 C243 1.491 . S
C242 O260 1.254 . S
C242 O261 1.225 . S
C243 C242 1.491 . S
C243 C244 1.392 . S
C243 C248 1.356 . S
C244 C243 1.392 . S
C244 C245 1.368 . S
C244 H272 0.929 . S
C245 C244 1.368 . S
C245 C246 1.386 . S
C245 H273 0.929 . S
C246 C245 1.386 . S
C246 C247 1.373 . S
C247 C246 1.373 . S
C247 C248 1.409 . S
C247 H274 0.931 . S
C248 C243 1.356 . S
C248 C247 1.409 . S
C248 H275 0.930 . S
C249 O262 1.270 . S
C249 O263 1.248 . S
C250 O264 1.267 . S
C250 O265 1.278 . S
C251 Pr241 2.880 . S
C251 C252 1.491 . S
C251 O266 1.254 . S
C251 O267 1.225 . S
C252 C251 1.491 . S
C252 C253 1.392 . S
C252 C257 1.356 . S
C253 C252 1.392 . S
C253 C254 1.368 . S
C253 H276 0.929 . S
C254 C253 1.368 . S
C254 C255 1.386 . S
C254 H277 0.929 . S
C255 C254 1.386 . S
C255 C256 1.373 . S
C256 C255 1.373 . S
C256 C257 1.409 . S
C256 H278 0.931 . S
C257 C252 1.356 . S
C257 C256 1.409 . S
C257 H279 0.930 . S
C258 O268 1.270 . S
C258 O269 1.248 . S
C259 O270 1.267 . S
C259 O271 1.278 . S
O260 Pr240 2.562 . S
O260 C242 1.254 . S
O261 Pr240 2.490 . S
O261 C242 1.225 . S
O262 Pr240 2.695 . S
O262 Pr241 2.436 . S
O262 C249 1.270 . S
O263 Pr240 2.512 . S
O263 C249 1.248 . S
O264 Pr241 2.438 . S
O264 C250 1.267 . S
O265 Pr240 2.437 . S
O265 C250 1.278 . S
O266 Pr241 2.562 . S
O266 C251 1.254 . S
O267 Pr241 2.490 . S
O267 C251 1.225 . S
O268 Pr240 2.436 . S
O268 Pr241 2.695 . S
O268 C258 1.270 . S
O269 Pr241 2.512 . S
O269 C258 1.248 . S
O270 Pr240 2.438 . S
O270 C259 1.267 . S
O271 Pr241 2.437 . S
O271 C259 1.278 . S
H272 C244 0.929 . S
H273 C245 0.929 . S
H274 C247 0.931 . S
H275 C248 0.930 . S
H276 C253 0.929 . S
H277 C254 0.929 . S
H278 C256 0.931 . S
H279 C257 0.930 . S
Pr280 C282 2.880 . S
Pr280 O300 2.562 . S
Pr280 O301 2.490 . S
Pr280 O302 2.695 . S
Pr280 O303 2.512 . S
Pr280 O305 2.437 . S
Pr280 O308 2.436 . S
Pr280 O310 2.438 . S
Pr281 C291 2.880 . S
Pr281 O302 2.436 . S
Pr281 O304 2.438 . S
Pr281 O306 2.562 . S
Pr281 O307 2.490 . S
Pr281 O308 2.695 . S
Pr281 O309 2.512 . S
Pr281 O311 2.437 . S
C282 Pr280 2.880 . S
C282 C283 1.491 . S
C282 O300 1.254 . S
C282 O301 1.225 . S
C283 C282 1.491 . S
C283 C284 1.392 . S
C283 C288 1.356 . S
C284 C283 1.392 . S
C284 C285 1.368 . S
C284 H312 0.929 . S
C285 C284 1.368 . S
C285 C286 1.386 . S
C285 H313 0.929 . S
C286 C285 1.386 . S
C286 C287 1.373 . S
C287 C286 1.373 . S
C287 C288 1.409 . S
C287 H314 0.931 . S
C288 C283 1.356 . S
C288 C287 1.409 . S
C288 H315 0.930 . S
C289 O302 1.270 . S
C289 O303 1.248 . S
C290 O304 1.267 . S
C290 O305 1.278 . S
C291 Pr281 2.880 . S
C291 C292 1.491 . S
C291 O306 1.254 . S
C291 O307 1.225 . S
C292 C291 1.491 . S
C292 C293 1.392 . S
C292 C297 1.356 . S
C293 C292 1.392 . S
C293 C294 1.368 . S
C293 H316 0.929 . S
C294 C293 1.368 . S
C294 C295 1.386 . S
C294 H317 0.929 . S
C295 C294 1.386 . S
C295 C296 1.373 . S
C296 C295 1.373 . S
C296 C297 1.409 . S
C296 H318 0.931 . S
C297 C292 1.356 . S
C297 C296 1.409 . S
C297 H319 0.930 . S
C298 O308 1.270 . S
C298 O309 1.248 . S
C299 O310 1.267 . S
C299 O311 1.278 . S
O300 Pr280 2.562 . S
O300 C282 1.254 . S
O301 Pr280 2.490 . S
O301 C282 1.225 . S
O302 Pr280 2.695 . S
O302 Pr281 2.436 . S
O302 C289 1.270 . S
O303 Pr280 2.512 . S
O303 C289 1.248 . S
O304 Pr281 2.438 . S
O304 C290 1.267 . S
O305 Pr280 2.437 . S
O305 C290 1.278 . S
O306 Pr281 2.562 . S
O306 C291 1.254 . S
O307 Pr281 2.490 . S
O307 C291 1.225 . S
O308 Pr280 2.436 . S
O308 Pr281 2.695 . S
O308 C298 1.270 . S
O309 Pr281 2.512 . S
O309 C298 1.248 . S
O310 Pr280 2.438 . S
O310 C299 1.267 . S
O311 Pr281 2.437 . S
O311 C299 1.278 . S
H312 C284 0.929 . S
H313 C285 0.929 . S
H314 C287 0.931 . S
H315 C288 0.930 . S
H316 C293 0.929 . S
H317 C294 0.929 . S
H318 C296 0.931 . S
H319 C297 0.930 . S
Pr320 C322 2.880 1_554 S
Pr320 O340 2.562 . S
Pr320 O341 2.490 . S
Pr320 O342 2.695 . S
Pr320 O343 2.512 . S
Pr320 O345 2.437 . S
Pr320 O348 2.436 . S
Pr320 O350 2.438 . S
Pr321 C331 2.880 . S
Pr321 O342 2.436 . S
Pr321 O344 2.438 . S
Pr321 O346 2.562 . S
Pr321 O347 2.490 . S
Pr321 O348 2.695 . S
Pr321 O349 2.512 . S
Pr321 O351 2.437 . S
C322 Pr320 2.880 1_556 S
C322 C323 1.491 . S
C322 O340 1.254 1_556 S
C322 O341 1.225 1_556 S
C323 C322 1.491 . S
C323 C324 1.392 . S
C323 C328 1.356 . S
C324 C323 1.392 . S
C324 C325 1.368 . S
C324 H352 0.929 . S
C325 C324 1.368 . S
C325 C326 1.386 . S
C325 H353 0.929 . S
C326 C325 1.386 . S
C326 C327 1.373 . S
C327 C326 1.373 . S
C327 C328 1.409 . S
C327 H354 0.931 . S
C328 C323 1.356 . S
C328 C327 1.409 . S
C328 H355 0.930 . S
C329 O342 1.270 . S
C329 O343 1.248 . S
C330 O344 1.267 . S
C330 O345 1.278 . S
C331 Pr321 2.880 . S
C331 C332 1.491 . S
C331 O346 1.254 . S
C331 O347 1.225 . S
C332 C331 1.491 . S
C332 C333 1.392 . S
C332 C337 1.356 . S
C333 C332 1.392 . S
C333 C334 1.368 . S
C333 H356 0.929 . S
C334 C333 1.368 . S
C334 C335 1.386 . S
C334 H357 0.929 . S
C335 C334 1.386 . S
C335 C336 1.373 . S
C336 C335 1.373 . S
C336 C337 1.409 . S
C336 H358 0.931 . S
C337 C332 1.356 . S
C337 C336 1.409 . S
C337 H359 0.930 . S
C338 O348 1.270 . S
C338 O349 1.248 . S
C339 O350 1.267 . S
C339 O351 1.278 . S
O340 Pr320 2.562 . S
O340 C322 1.254 1_554 S
O341 Pr320 2.490 . S
O341 C322 1.225 1_554 S
O342 Pr320 2.695 . S
O342 Pr321 2.436 . S
O342 C329 1.270 . S
O343 Pr320 2.512 . S
O343 C329 1.248 . S
O344 Pr321 2.438 . S
O344 C330 1.267 . S
O345 Pr320 2.437 . S
O345 C330 1.278 . S
O346 Pr321 2.562 . S
O346 C331 1.254 . S
O347 Pr321 2.490 . S
O347 C331 1.225 . S
O348 Pr320 2.436 . S
O348 Pr321 2.695 . S
O348 C338 1.270 . S
O349 Pr321 2.512 . S
O349 C338 1.248 . S
O350 Pr320 2.438 . S
O350 C339 1.267 . S
O351 Pr321 2.437 . S
O351 C339 1.278 . S
H352 C324 0.929 . S
H353 C325 0.929 . S
H354 C327 0.931 . S
H355 C328 0.930 . S
H356 C333 0.929 . S
H357 C334 0.929 . S
H358 C336 0.931 . S
H359 C337 0.930 . S
Pr360 C362 2.880 . S
Pr360 O380 2.562 . S
Pr360 O381 2.490 . S
Pr360 O382 2.695 . S
Pr360 O383 2.512 . S
Pr360 O385 2.437 . S
Pr360 O388 2.436 . S
Pr360 O390 2.438 . S
Pr361 C371 2.880 . S
Pr361 O382 2.436 . S
Pr361 O384 2.438 . S
Pr361 O386 2.562 . S
Pr361 O387 2.490 . S
Pr361 O388 2.695 . S
Pr361 O389 2.512 . S
Pr361 O391 2.437 . S
C362 Pr360 2.880 . S
C362 C363 1.491 . S
C362 O380 1.254 . S
C362 O381 1.225 . S
C363 C362 1.491 . S
C363 C364 1.392 . S
C363 C368 1.356 . S
C364 C363 1.392 . S
C364 C365 1.368 . S
C364 H392 0.929 . S
C365 C364 1.368 . S
C365 C366 1.386 . S
C365 H393 0.929 . S
C366 C365 1.386 . S
C366 C367 1.373 . S
C367 C366 1.373 . S
C367 C368 1.409 . S
C367 H394 0.931 . S
C368 C363 1.356 . S
C368 C367 1.409 . S
C368 H395 0.930 . S
C369 O382 1.270 . S
C369 O383 1.248 . S
C370 O384 1.267 . S
C370 O385 1.278 . S
C371 Pr361 2.880 . S
C371 C372 1.491 . S
C371 O386 1.254 . S
C371 O387 1.225 . S
C372 C371 1.491 . S
C372 C373 1.392 . S
C372 C377 1.356 . S
C373 C372 1.392 . S
C373 C374 1.368 . S
C373 H396 0.929 . S
C374 C373 1.368 . S
C374 C375 1.386 . S
C374 H397 0.929 . S
C375 C374 1.386 . S
C375 C376 1.373 . S
C376 C375 1.373 . S
C376 C377 1.409 . S
C376 H398 0.931 . S
C377 C372 1.356 . S
C377 C376 1.409 . S
C377 H399 0.930 . S
C378 O388 1.270 . S
C378 O389 1.248 . S
C379 O390 1.267 . S
C379 O391 1.278 . S
O380 Pr360 2.562 . S
O380 C362 1.254 . S
O381 Pr360 2.490 . S
O381 C362 1.225 . S
O382 Pr360 2.695 . S
O382 Pr361 2.436 . S
O382 C369 1.270 . S
O383 Pr360 2.512 . S
O383 C369 1.248 . S
O384 Pr361 2.438 . S
O384 C370 1.267 . S
O385 Pr360 2.437 . S
O385 C370 1.278 . S
O386 Pr361 2.562 . S
O386 C371 1.254 . S
O387 Pr361 2.490 . S
O387 C371 1.225 . S
O388 Pr360 2.436 . S
O388 Pr361 2.695 . S
O388 C378 1.270 . S
O389 Pr361 2.512 . S
O389 C378 1.248 . S
O390 Pr360 2.438 . S
O390 C379 1.267 . S
O391 Pr361 2.437 . S
O391 C379 1.278 . S
H392 C364 0.929 . S
H393 C365 0.929 . S
H394 C367 0.931 . S
H395 C368 0.930 . S
H396 C373 0.929 . S
H397 C374 0.929 . S
H398 C376 0.931 . S
H399 C377 0.930 . S
Pr400 C402 2.880 . S
Pr400 O420 2.562 . S
Pr400 O421 2.490 . S
Pr400 O422 2.695 . S
Pr400 O423 2.512 . S
Pr400 O425 2.437 . S
Pr400 O428 2.436 . S
Pr400 O430 2.438 . S
Pr401 C411 2.880 . S
Pr401 O422 2.436 . S
Pr401 O424 2.438 . S
Pr401 O426 2.562 . S
Pr401 O427 2.490 . S
Pr401 O428 2.695 . S
Pr401 O429 2.512 . S
Pr401 O431 2.437 . S
C402 Pr400 2.880 . S
C402 C403 1.491 . S
C402 O420 1.254 . S
C402 O421 1.225 . S
C403 C402 1.491 . S
C403 C404 1.392 . S
C403 C408 1.356 . S
C404 C403 1.392 . S
C404 C405 1.368 . S
C404 H432 0.929 . S
C405 C404 1.368 . S
C405 C406 1.386 . S
C405 H433 0.929 . S
C406 C405 1.386 . S
C406 C407 1.373 . S
C407 C406 1.373 . S
C407 C408 1.409 . S
C407 H434 0.931 . S
C408 C403 1.356 . S
C408 C407 1.409 . S
C408 H435 0.930 . S
C409 O422 1.270 . S
C409 O423 1.248 . S
C410 O424 1.267 . S
C410 O425 1.278 . S
C411 Pr401 2.880 . S
C411 C412 1.491 . S
C411 O426 1.254 . S
C411 O427 1.225 . S
C412 C411 1.491 . S
C412 C413 1.392 . S
C412 C417 1.356 . S
C413 C412 1.392 . S
C413 C414 1.368 . S
C413 H436 0.929 . S
C414 C413 1.368 . S
C414 C415 1.386 . S
C414 H437 0.929 . S
C415 C414 1.386 . S
C415 C416 1.373 . S
C416 C415 1.373 . S
C416 C417 1.409 . S
C416 H438 0.931 . S
C417 C412 1.356 . S
C417 C416 1.409 . S
C417 H439 0.930 . S
C418 O428 1.270 . S
C418 O429 1.248 . S
C419 O430 1.267 . S
C419 O431 1.278 . S
O420 Pr400 2.562 . S
O420 C402 1.254 . S
O421 Pr400 2.490 . S
O421 C402 1.225 . S
O422 Pr400 2.695 . S
O422 Pr401 2.436 . S
O422 C409 1.270 . S
O423 Pr400 2.512 . S
O423 C409 1.248 . S
O424 Pr401 2.438 . S
O424 C410 1.267 . S
O425 Pr400 2.437 . S
O425 C410 1.278 . S
O426 Pr401 2.562 . S
O426 C411 1.254 . S
O427 Pr401 2.490 . S
O427 C411 1.225 . S
O428 Pr400 2.436 . S
O428 Pr401 2.695 . S
O428 C418 1.270 . S
O429 Pr401 2.512 . S
O429 C418 1.248 . S
O430 Pr400 2.438 . S
O430 C419 1.267 . S
O431 Pr401 2.437 . S
O431 C419 1.278 . S
H432 C404 0.929 . S
H433 C405 0.929 . S
H434 C407 0.931 . S
H435 C408 0.930 . S
H436 C413 0.929 . S
H437 C414 0.929 . S
H438 C416 0.931 . S
H439 C417 0.930 . S
Pr440 C442 2.880 1_554 S
Pr440 O460 2.562 . S
Pr440 O461 2.490 . S
Pr440 O462 2.695 . S
Pr440 O463 2.512 . S
Pr440 O465 2.437 . S
Pr440 O468 2.436 . S
Pr440 O470 2.438 . S
Pr441 C451 2.880 . S
Pr441 O462 2.436 . S
Pr441 O464 2.438 . S
Pr441 O466 2.562 . S
Pr441 O467 2.490 . S
Pr441 O468 2.695 . S
Pr441 O469 2.512 . S
Pr441 O471 2.437 . S
C442 Pr440 2.880 1_556 S
C442 C443 1.491 . S
C442 O460 1.254 1_556 S
C442 O461 1.225 1_556 S
C443 C442 1.491 . S
C443 C444 1.392 . S
C443 C448 1.356 . S
C444 C443 1.392 . S
C444 C445 1.368 . S
C444 H472 0.929 . S
C445 C444 1.368 . S
C445 C446 1.386 . S
C445 H473 0.929 . S
C446 C445 1.386 . S
C446 C447 1.373 . S
C447 C446 1.373 . S
C447 C448 1.409 . S
C447 H474 0.931 . S
C448 C443 1.356 . S
C448 C447 1.409 . S
C448 H475 0.930 . S
C449 O462 1.270 . S
C449 O463 1.248 . S
C450 O464 1.267 . S
C450 O465 1.278 . S
C451 Pr441 2.880 . S
C451 C452 1.491 . S
C451 O466 1.254 . S
C451 O467 1.225 . S
C452 C451 1.491 . S
C452 C453 1.392 . S
C452 C457 1.356 . S
C453 C452 1.392 . S
C453 C454 1.368 . S
C453 H476 0.929 . S
C454 C453 1.368 . S
C454 C455 1.386 . S
C454 H477 0.929 . S
C455 C454 1.386 . S
C455 C456 1.373 . S
C456 C455 1.373 . S
C456 C457 1.409 . S
C456 H478 0.931 . S
C457 C452 1.356 . S
C457 C456 1.409 . S
C457 H479 0.930 . S
C458 O468 1.270 . S
C458 O469 1.248 . S
C459 O470 1.267 . S
C459 O471 1.278 . S
O460 Pr440 2.562 . S
O460 C442 1.254 1_554 S
O461 Pr440 2.490 . S
O461 C442 1.225 1_554 S
O462 Pr440 2.695 . S
O462 Pr441 2.436 . S
O462 C449 1.270 . S
O463 Pr440 2.512 . S
O463 C449 1.248 . S
O464 Pr441 2.438 . S
O464 C450 1.267 . S
O465 Pr440 2.437 . S
O465 C450 1.278 . S
O466 Pr441 2.562 . S
O466 C451 1.254 . S
O467 Pr441 2.490 . S
O467 C451 1.225 . S
O468 Pr440 2.436 . S
O468 Pr441 2.695 . S
O468 C458 1.270 . S
O469 Pr441 2.512 . S
O469 C458 1.248 . S
O470 Pr440 2.438 . S
O470 C459 1.267 . S
O471 Pr441 2.437 . S
O471 C459 1.278 . S
H472 C444 0.929 . S
H473 C445 0.929 . S
H474 C447 0.931 . S
H475 C448 0.930 . S
H476 C453 0.929 . S
H477 C454 0.929 . S
H478 C456 0.931 . S
H479 C457 0.930 . S
H480 C486 0.930 . S
H481 C490 0.930 . S
H482 C495 0.929 . S
H483 C493 0.929 . S
H484 C488 0.929 . S
H485 C494 0.929 . S
C486 H480 0.930 . S
C486 C487 1.367 . S
C486 C494 1.378 . S
C487 C486 1.367 . S
C487 C495 1.433 . S
C488 H484 0.929 . S
C488 C490 1.378 . S
C488 C492 1.350 . S
C489 C492 1.463 . S
C489 C494 1.350 . S
C489 N497 1.427 . S
C490 H481 0.930 . S
C490 C488 1.378 . S
C490 C491 1.367 . S
C491 C490 1.367 . S
C491 C493 1.433 . S
C492 C488 1.350 . S
C492 C489 1.463 . S
C492 N496 1.427 . S
C493 H483 0.929 . S
C493 C491 1.433 . S
C493 N496 1.384 . S
C494 H485 0.929 . S
C494 C486 1.378 . S
C494 C489 1.350 . S
C495 H482 0.929 . S
C495 C487 1.433 . S
C495 N497 1.384 . S
N496 C492 1.427 . S
N496 C493 1.384 . S
N497 C489 1.427 . S
N497 C495 1.384 . S
H498 C504 0.930 . S
H499 C508 0.930 . S
H500 C513 0.929 . S
H501 C511 0.929 . S
H502 C506 0.929 . S
H503 C512 0.929 . S
C504 H498 0.930 . S
C504 C505 1.367 . S
C504 C512 1.378 . S
C505 C504 1.367 . S
C505 C513 1.433 . S
C506 H502 0.929 . S
C506 C508 1.378 . S
C506 C510 1.350 . S
C507 C510 1.463 . S
C507 C512 1.350 . S
C507 N515 1.427 . S
C508 H499 0.930 . S
C508 C506 1.378 . S
C508 C509 1.367 . S
C509 C508 1.367 . S
C509 C511 1.433 . S
C510 C506 1.350 . S
C510 C507 1.463 . S
C510 N514 1.427 . S
C511 H501 0.929 . S
C511 C509 1.433 . S
C511 N514 1.384 . S
C512 H503 0.929 . S
C512 C504 1.378 . S
C512 C507 1.350 . S
C513 H500 0.929 . S
C513 C505 1.433 . S
C513 N515 1.384 . S
N514 C510 1.427 . S
N514 C511 1.384 . S
N515 C507 1.427 . S
N515 C513 1.384 . S
H516 C522 0.930 . S
H517 C526 0.930 . S
H518 C531 0.929 . S
H519 C529 0.929 . S
H520 C524 0.929 . S
H521 C530 0.929 . S
C522 H516 0.930 . S
C522 C523 1.367 . S
C522 C530 1.378 . S
C523 C522 1.367 . S
C523 C531 1.433 . S
C524 H520 0.929 . S
C524 C526 1.378 . S
C524 C528 1.350 . S
C525 C528 1.463 . S
C525 C530 1.350 . S
C525 N533 1.427 . S
C526 H517 0.930 . S
C526 C524 1.378 . S
C526 C527 1.367 . S
C527 C526 1.367 . S
C527 C529 1.433 . S
C528 C524 1.350 . S
C528 C525 1.463 . S
C528 N532 1.427 . S
C529 H519 0.929 . S
C529 C527 1.433 . S
C529 N532 1.384 . S
C530 H521 0.929 . S
C530 C522 1.378 . S
C530 C525 1.350 . S
C531 H518 0.929 . S
C531 C523 1.433 . S
C531 N533 1.384 . S
N532 C528 1.427 . S
N532 C529 1.384 . S
N533 C525 1.427 . S
N533 C531 1.384 . S
H534 C540 0.930 . S
H535 C544 0.930 . S
H536 C549 0.929 . S
H537 C547 0.929 . S
H538 C542 0.929 . S
H539 C548 0.929 . S
C540 H534 0.930 . S
C540 C541 1.367 . S
C540 C548 1.378 . S
C541 C540 1.367 . S
C541 C549 1.433 . S
C542 H538 0.929 . S
C542 C544 1.378 . S
C542 C546 1.350 . S
C543 C546 1.463 . S
C543 C548 1.350 . S
C543 N551 1.427 . S
C544 H535 0.930 . S
C544 C542 1.378 . S
C544 C545 1.367 . S
C545 C544 1.367 . S
C545 C547 1.433 . S
C546 C542 1.350 . S
C546 C543 1.463 . S
C546 N550 1.427 . S
C547 H537 0.929 . S
C547 C545 1.433 . S
C547 N550 1.384 . S
C548 H539 0.929 . S
C548 C540 1.378 . S
C548 C543 1.350 . S
C549 H536 0.929 . S
C549 C541 1.433 . S
C549 N551 1.384 . S
N550 C546 1.427 . S
N550 C547 1.384 . S
N551 C543 1.427 . S
N551 C549 1.384 . S
H552 C558 0.930 . S
H553 C562 0.930 . S
H554 C567 0.929 . S
H555 C565 0.929 . S
H556 C560 0.929 . S
H557 C566 0.929 . S
C558 H552 0.930 . S
C558 C559 1.367 . S
C558 C566 1.378 . S
C559 C558 1.367 . S
C559 C567 1.433 . S
C560 H556 0.929 . S
C560 C562 1.378 . S
C560 C564 1.350 . S
C561 C564 1.463 . S
C561 C566 1.350 . S
C561 N569 1.427 . S
C562 H553 0.930 . S
C562 C560 1.378 . S
C562 C563 1.367 . S
C563 C562 1.367 . S
C563 C565 1.433 . S
C564 C560 1.350 . S
C564 C561 1.463 . S
C564 N568 1.427 . S
C565 H555 0.929 . S
C565 C563 1.433 . S
C565 N568 1.384 . S
C566 H557 0.929 . S
C566 C558 1.378 . S
C566 C561 1.350 . S
C567 H554 0.929 . S
C567 C559 1.433 . S
C567 N569 1.384 . S
N568 C564 1.427 . S
N568 C565 1.384 . S
N569 C561 1.427 . S
N569 C567 1.384 . S
H570 C576 0.930 . S
H571 C580 0.930 . S
H572 C585 0.929 . S
H573 C583 0.929 . S
H574 C578 0.929 . S
H575 C584 0.929 . S
C576 H570 0.930 . S
C576 C577 1.367 . S
C576 C584 1.378 . S
C577 C576 1.367 . S
C577 C585 1.433 . S
C578 H574 0.929 . S
C578 C580 1.378 . S
C578 C582 1.350 . S
C579 C582 1.463 . S
C579 C584 1.350 . S
C579 N587 1.427 . S
C580 H571 0.930 . S
C580 C578 1.378 . S
C580 C581 1.367 . S
C581 C580 1.367 . S
C581 C583 1.433 . S
C582 C578 1.350 . S
C582 C579 1.463 . S
C582 N586 1.427 . S
C583 H573 0.929 . S
C583 C581 1.433 . S
C583 N586 1.384 . S
C584 H575 0.929 . S
C584 C576 1.378 . S
C584 C579 1.350 . S
C585 H572 0.929 . S
C585 C577 1.433 . S
C585 N587 1.384 . S
N586 C582 1.427 . S
N586 C583 1.384 . S
N587 C579 1.427 . S
N587 C585 1.384 . S
H588 C594 0.930 . S
H589 C598 0.930 . S
H590 C603 0.929 . S
H591 C601 0.929 . S
H592 C596 0.929 . S
H593 C602 0.929 . S
C594 H588 0.930 . S
C594 C595 1.367 . S
C594 C602 1.378 . S
C595 C594 1.367 . S
C595 C603 1.433 . S
C596 H592 0.929 . S
C596 C598 1.378 . S
C596 C600 1.350 . S
C597 C600 1.463 1_556 S
C597 C602 1.350 . S
C597 N605 1.427 . S
C598 H589 0.930 . S
C598 C596 1.378 . S
C598 C599 1.367 . S
C599 C598 1.367 . S
C599 C601 1.433 . S
C600 C596 1.350 . S
C600 C597 1.463 1_554 S
C600 N604 1.427 . S
C601 H591 0.929 . S
C601 C599 1.433 . S
C601 N604 1.384 . S
C602 H593 0.929 . S
C602 C594 1.378 . S
C602 C597 1.350 . S
C603 H590 0.929 . S
C603 C595 1.433 . S
C603 N605 1.384 . S
N604 C600 1.427 . S
N604 C601 1.384 . S
N605 C597 1.427 . S
N605 C603 1.384 . S
H606 C612 0.930 . S
H607 C616 0.930 . S
H608 C621 0.929 . S
H609 C619 0.929 . S
H610 C614 0.929 . S
H611 C620 0.929 . S
C612 H606 0.930 . S
C612 C613 1.367 . S
C612 C620 1.378 . S
C613 C612 1.367 . S
C613 C621 1.433 . S
C614 H610 0.929 . S
C614 C616 1.378 . S
C614 C618 1.350 . S
C615 C618 1.463 . S
C615 C620 1.350 . S
C615 N623 1.427 . S
C616 H607 0.930 . S
C616 C614 1.378 . S
C616 C617 1.367 . S
C617 C616 1.367 . S
C617 C619 1.433 . S
C618 C614 1.350 . S
C618 C615 1.463 . S
C618 N622 1.427 . S
C619 H609 0.929 . S
C619 C617 1.433 . S
C619 N622 1.384 . S
C620 H611 0.929 . S
C620 C612 1.378 . S
C620 C615 1.350 . S
C621 H608 0.929 . S
C621 C613 1.433 . S
C621 N623 1.384 . S
N622 C618 1.427 . S
N622 C619 1.384 . S
N623 C615 1.427 . S
N623 C621 1.384 . S
H624 C630 0.930 . S
H625 C634 0.930 . S
H626 C639 0.929 . S
H627 C637 0.929 . S
H628 C632 0.929 . S
H629 C638 0.929 . S
C630 H624 0.930 . S
C630 C631 1.367 . S
C630 C638 1.378 . S
C631 C630 1.367 . S
C631 C639 1.433 . S
C632 H628 0.929 . S
C632 C634 1.378 . S
C632 C636 1.350 . S
C633 C636 1.463 . S
C633 C638 1.350 . S
C633 N641 1.427 . S
C634 H625 0.930 . S
C634 C632 1.378 . S
C634 C635 1.367 . S
C635 C634 1.367 . S
C635 C637 1.433 . S
C636 C632 1.350 . S
C636 C633 1.463 . S
C636 N640 1.427 . S
C637 H627 0.929 . S
C637 C635 1.433 . S
C637 N640 1.384 . S
C638 H629 0.929 . S
C638 C630 1.378 . S
C638 C633 1.350 . S
C639 H626 0.929 . S
C639 C631 1.433 . S
C639 N641 1.384 . S
N640 C636 1.427 . S
N640 C637 1.384 . S
N641 C633 1.427 . S
N641 C639 1.384 . S
H642 C648 0.930 . S
H643 C652 0.930 . S
H644 C657 0.929 . S
H645 C655 0.929 . S
H646 C650 0.929 . S
H647 C656 0.929 . S
C648 H642 0.930 . S
C648 C649 1.367 . S
C648 C656 1.378 . S
C649 C648 1.367 . S
C649 C657 1.433 . S
C650 H646 0.929 . S
C650 C652 1.378 . S
C650 C654 1.350 . S
C651 C654 1.463 1_556 S
C651 C656 1.350 . S
C651 N659 1.427 . S
C652 H643 0.930 . S
C652 C650 1.378 . S
C652 C653 1.367 . S
C653 C652 1.367 . S
C653 C655 1.433 . S
C654 C650 1.350 . S
C654 C651 1.463 1_554 S
C654 N658 1.427 . S
C655 H645 0.929 . S
C655 C653 1.433 . S
C655 N658 1.384 . S
C656 H647 0.929 . S
C656 C648 1.378 . S
C656 C651 1.350 . S
C657 H644 0.929 . S
C657 C649 1.433 . S
C657 N659 1.384 . S
N658 C654 1.427 . S
N658 C655 1.384 . S
N659 C651 1.427 . S
N659 C657 1.384 . S
H660 C666 0.930 . S
H661 C670 0.930 . S
H662 C675 0.929 . S
H663 C673 0.929 . S
H664 C668 0.929 . S
H665 C674 0.929 . S
C666 H660 0.930 . S
C666 C667 1.367 . S
C666 C674 1.378 . S
C667 C666 1.367 . S
C667 C675 1.433 . S
C668 H664 0.929 . S
C668 C670 1.378 . S
C668 C672 1.350 . S
C669 C672 1.463 . S
C669 C674 1.350 . S
C669 N677 1.427 . S
C670 H661 0.930 . S
C670 C668 1.378 . S
C670 C671 1.367 . S
C671 C670 1.367 . S
C671 C673 1.433 . S
C672 C668 1.350 . S
C672 C669 1.463 . S
C672 N676 1.427 . S
C673 H663 0.929 . S
C673 C671 1.433 . S
C673 N676 1.384 . S
C674 H665 0.929 . S
C674 C666 1.378 . S
C674 C669 1.350 . S
C675 H662 0.929 . S
C675 C667 1.433 . S
C675 N677 1.384 . S
N676 C672 1.427 . S
N676 C673 1.384 . S
N677 C669 1.427 . S
N677 C675 1.384 . S
H678 C684 0.930 . S
H679 C688 0.930 . S
H680 C693 0.929 . S
H681 C691 0.929 . S
H682 C686 0.929 . S
H683 C692 0.929 . S
C684 H678 0.930 . S
C684 C685 1.367 . S
C684 C692 1.378 . S
C685 C684 1.367 . S
C685 C693 1.433 . S
C686 H682 0.929 . S
C686 C688 1.378 . S
C686 C690 1.350 . S
C687 C690 1.463 . S
C687 C692 1.350 . S
C687 N695 1.427 . S
C688 H679 0.930 . S
C688 C686 1.378 . S
C688 C689 1.367 . S
C689 C688 1.367 . S
C689 C691 1.433 . S
C690 C686 1.350 . S
C690 C687 1.463 . S
C690 N694 1.427 . S
C691 H681 0.929 . S
C691 C689 1.433 . S
C691 N694 1.384 . S
C692 H683 0.929 . S
C692 C684 1.378 . S
C692 C687 1.350 . S
C693 H680 0.929 . S
C693 C685 1.433 . S
C693 N695 1.384 . S
N694 C690 1.427 . S
N694 C691 1.384 . S
N695 C687 1.427 . S
N695 C693 1.384 . S
H696 C702 0.930 . S
H697 C706 0.930 . S
H698 C711 0.929 . S
H699 C709 0.929 . S
H700 C704 0.929 . S
H701 C710 0.929 . S
C702 H696 0.930 . S
C702 C703 1.367 . S
C702 C710 1.378 . S
C703 C702 1.367 . S
C703 C711 1.433 . S
C704 H700 0.929 . S
C704 C706 1.378 . S
C704 C708 1.350 . S
C705 C708 1.463 1_566 S
C705 C710 1.350 . S
C705 N713 1.427 . S
C706 H697 0.930 . S
C706 C704 1.378 . S
C706 C707 1.367 . S
C707 C706 1.367 . S
C707 C709 1.433 . S
C708 C704 1.350 . S
C708 C705 1.463 1_544 S
C708 N712 1.427 . S
C709 H699 0.929 . S
C709 C707 1.433 . S
C709 N712 1.384 . S
C710 H701 0.929 . S
C710 C702 1.378 . S
C710 C705 1.350 . S
C711 H698 0.929 . S
C711 C703 1.433 . S
C711 N713 1.384 . S
N712 C708 1.427 . S
N712 C709 1.384 . S
N713 C705 1.427 . S
N713 C711 1.384 . S
H714 C720 0.930 . S
H715 C724 0.930 . S
H716 C729 0.929 . S
H717 C727 0.929 . S
H718 C722 0.929 . S
H719 C728 0.929 . S
C720 H714 0.930 . S
C720 C721 1.367 . S
C720 C728 1.378 . S
C721 C720 1.367 . S
C721 C729 1.433 . S
C722 H718 0.929 . S
C722 C724 1.378 . S
C722 C726 1.350 . S
C723 C726 1.463 . S
C723 C728 1.350 . S
C723 N731 1.427 . S
C724 H715 0.930 . S
C724 C722 1.378 . S
C724 C725 1.367 . S
C725 C724 1.367 . S
C725 C727 1.433 . S
C726 C722 1.350 . S
C726 C723 1.463 . S
C726 N730 1.427 . S
C727 H717 0.929 . S
C727 C725 1.433 . S
C727 N730 1.384 . S
C728 H719 0.929 . S
C728 C720 1.378 . S
C728 C723 1.350 . S
C729 H716 0.929 . S
C729 C721 1.433 . S
C729 N731 1.384 . S
N730 C726 1.427 . S
N730 C727 1.384 . S
N731 C723 1.427 . S
N731 C729 1.384 . S
H732 C738 0.930 . S
H733 C742 0.930 . S
H734 C747 0.909 1_655 S
H735 C745 0.912 1_455 S
H736 C740 0.929 . S
H737 C746 0.929 . S
C738 H732 0.930 . S
C738 C739 1.367 . S
C738 C746 1.378 . S
C739 C738 1.367 . S
C739 C747 1.433 . S
C740 H736 0.929 . S
C740 C742 1.378 . S
C740 C744 1.350 . S
C741 C744 1.463 1_455 S
C741 C746 1.350 . S
C741 N749 1.427 1_455 S
C742 H733 0.930 . S
C742 C740 1.378 . S
C742 C743 1.367 . S
C743 C742 1.367 . S
C743 C745 1.433 . S
C744 C740 1.350 . S
C744 C741 1.463 1_655 S
C744 N748 1.427 1_655 S
C745 H735 0.912 1_655 S
C745 C743 1.433 . S
C745 N748 1.384 1_655 S
C746 H737 0.929 . S
C746 C738 1.378 . S
C746 C741 1.350 . S
C747 H734 0.909 1_455 S
C747 C739 1.433 . S
C747 N749 1.384 1_455 S
N748 C744 1.427 1_455 S
N748 C745 1.384 1_455 S
N749 C741 1.427 1_655 S
N749 C747 1.384 1_655 S
H750 C756 0.930 1_545 S
H751 C760 0.930 1_565 S
H752 C765 0.929 . S
H753 C763 0.929 . S
H754 C758 0.929 . S
H755 C764 0.929 . S
C756 H750 0.930 1_565 S
C756 C757 1.367 . S
C756 C764 1.378 1_565 S
C757 C756 1.367 . S
C757 C765 1.433 . S
C758 H754 0.929 . S
C758 C760 1.378 1_565 S
C758 C762 1.350 1_565 S
C759 C762 1.463 1_564 S
C759 C764 1.350 1_565 S
C759 N767 1.427 . S
C760 H751 0.930 1_545 S
C760 C758 1.378 1_545 S
C760 C761 1.367 . S
C761 C760 1.367 . S
C761 C763 1.433 . S
C762 C758 1.350 1_545 S
C762 C759 1.463 1_546 S
C762 N766 1.427 . S
C763 H753 0.929 . S
C763 C761 1.433 . S
C763 N766 1.384 . S
C764 H755 0.929 . S
C764 C756 1.378 1_545 S
C764 C759 1.350 1_545 S
C765 H752 0.929 . S
C765 C757 1.433 . S
C765 N767 1.384 . S
N766 C762 1.427 . S
N766 C763 1.384 . S
N767 C759 1.427 . S
N767 C765 1.384 . S
H768 C774 0.930 . S
H769 C778 0.930 . S
H770 C783 0.929 . S
H771 C781 0.929 . S
H772 C776 0.929 . S
H773 C782 0.929 . S
C774 H768 0.930 . S
C774 C775 1.367 . S
C774 C782 1.378 . S
C775 C774 1.367 . S
C775 C783 1.433 . S
C776 H772 0.929 . S
C776 C778 1.378 . S
C776 C780 1.350 . S
C777 C780 1.463 . S
C777 C782 1.350 . S
C777 N785 1.427 . S
C778 H769 0.930 . S
C778 C776 1.378 . S
C778 C779 1.367 . S
C779 C778 1.367 . S
C779 C781 1.433 . S
C780 C776 1.350 . S
C780 C777 1.463 . S
C780 N784 1.427 . S
C781 H771 0.929 . S
C781 C779 1.433 . S
C781 N784 1.384 . S
C782 H773 0.929 . S
C782 C774 1.378 . S
C782 C777 1.350 . S
C783 H770 0.929 . S
C783 C775 1.433 . S
C783 N785 1.384 . S
N784 C780 1.427 . S
N784 C781 1.384 . S
N785 C777 1.427 . S
N785 C783 1.384 . S
H786 C792 0.930 1_655 S
H787 C796 0.930 1_455 S
H788 C801 0.929 . S
H789 C799 0.929 . S
H790 C794 0.929 . S
H791 C800 0.929 . S
C792 H786 0.930 1_455 S
C792 C793 1.367 . S
C792 C800 1.378 1_455 S
C793 C792 1.367 . S
C793 C801 1.433 . S
C794 H790 0.929 . S
C794 C796 1.378 1_455 S
C794 C798 1.350 1_455 S
C795 C798 1.463 1_455 S
C795 C800 1.350 1_455 S
C795 N803 1.427 . S
C796 H787 0.930 1_655 S
C796 C794 1.378 1_655 S
C796 C797 1.367 . S
C797 C796 1.367 . S
C797 C799 1.433 . S
C798 C794 1.350 1_655 S
C798 C795 1.463 1_655 S
C798 N802 1.427 . S
C799 H789 0.929 . S
C799 C797 1.433 . S
C799 N802 1.384 . S
C800 H791 0.929 . S
C800 C792 1.378 1_655 S
C800 C795 1.350 1_655 S
C801 H788 0.929 . S
C801 C793 1.433 . S
C801 N803 1.384 . S
N802 C798 1.427 . S
N802 C799 1.384 . S
N803 C795 1.427 . S
N803 C801 1.384 . S
H804 C810 0.930 . S
H805 C814 0.930 . S
H806 C819 0.929 . S
H807 C817 0.929 . S
H808 C812 0.932 . S
H809 C818 0.932 . S
C810 H804 0.930 . S
C810 C811 1.367 . S
C810 C818 1.374 1_545 S
C811 C810 1.367 . S
C811 C819 1.433 . S
C812 H808 0.932 . S
C812 C814 1.374 1_545 S
C812 C816 1.351 1_545 S
C813 C816 1.463 1_545 S
C813 C818 1.351 1_545 S
C813 N821 1.427 . S
C814 H805 0.930 . S
C814 C812 1.374 1_565 S
C814 C815 1.367 . S
C815 C814 1.367 . S
C815 C817 1.433 . S
C816 C812 1.351 1_565 S
C816 C813 1.463 1_565 S
C816 N820 1.427 . S
C817 H807 0.929 . S
C817 C815 1.433 . S
C817 N820 1.384 . S
C818 H809 0.932 . S
C818 C810 1.374 1_565 S
C818 C813 1.351 1_565 S
C819 H806 0.929 . S
C819 C811 1.433 . S
C819 N821 1.384 . S
N820 C816 1.427 . S
N820 C817 1.384 . S
N821 C813 1.427 . S
N821 C819 1.384 . S
H822 C828 0.930 . S
H823 C832 0.930 . S
H824 C837 0.929 . S
H825 C835 0.929 . S
H826 C830 0.929 . S
H827 C836 0.929 . S
C828 H822 0.930 . S
C828 C829 1.367 . S
C828 C836 1.378 . S
C829 C828 1.367 . S
C829 C837 1.433 . S
C830 H826 0.929 . S
C830 C832 1.378 . S
C830 C834 1.350 . S
C831 C834 1.463 . S
C831 C836 1.350 . S
C831 N839 1.427 . S
C832 H823 0.930 . S
C832 C830 1.378 . S
C832 C833 1.367 . S
C833 C832 1.367 . S
C833 C835 1.433 . S
C834 C830 1.350 . S
C834 C831 1.463 . S
C834 N838 1.427 . S
C835 H825 0.929 . S
C835 C833 1.433 . S
C835 N838 1.384 . S
C836 H827 0.929 . S
C836 C828 1.378 . S
C836 C831 1.350 . S
C837 H824 0.929 . S
C837 C829 1.433 . S
C837 N839 1.384 . S
N838 C834 1.427 . S
N838 C835 1.384 . S
N839 C831 1.427 . S
N839 C837 1.384 . S
H840 C846 0.930 . S
H841 C850 0.930 . S
H842 C855 0.929 . S
H843 C853 0.929 . S
H844 C848 0.941 . S
H845 C854 0.941 . S
C846 H840 0.930 . S
C846 C847 1.367 . S
C846 C854 1.378 . S
C847 C846 1.367 . S
C847 C855 1.433 . S
C848 H844 0.941 . S
C848 C850 1.378 . S
C848 C852 1.350 . S
C849 C852 1.463 1_655 S
C849 C854 1.350 . S
C849 N857 1.427 . S
C850 H841 0.930 . S
C850 C848 1.378 . S
C850 C851 1.367 . S
C851 C850 1.367 . S
C851 C853 1.433 . S
C852 C848 1.350 . S
C852 C849 1.463 1_455 S
C852 N856 1.427 . S
C853 H843 0.929 . S
C853 C851 1.433 . S
C853 N856 1.384 . S
C854 H845 0.941 . S
C854 C846 1.378 . S
C854 C849 1.350 . S
C855 H842 0.929 . S
C855 C847 1.433 . S
C855 N857 1.384 . S
N856 C852 1.427 . S
N856 C853 1.384 . S
N857 C849 1.427 . S
N857 C855 1.384 . S
H858 C864 0.930 . S
H859 C868 0.930 . S
H860 C873 0.929 . S
H861 C871 0.929 . S
H862 C866 0.929 . S
H863 C872 0.929 . S
C864 H858 0.930 . S
C864 C865 1.367 . S
C864 C872 1.378 . S
C865 C864 1.367 . S
C865 C873 1.433 . S
C866 H862 0.929 . S
C866 C868 1.378 . S
C866 C870 1.350 . S
C867 C870 1.463 1_455 S
C867 C872 1.350 . S
C867 N875 1.427 . S
C868 H859 0.930 . S
C868 C866 1.378 . S
C868 C869 1.367 . S
C869 C868 1.367 . S
C869 C871 1.433 . S
C870 C866 1.350 . S
C870 C867 1.463 1_655 S
C870 N874 1.427 . S
C871 H861 0.929 . S
C871 C869 1.433 . S
C871 N874 1.384 . S
C872 H863 0.929 . S
C872 C864 1.378 . S
C872 C867 1.350 . S
C873 H860 0.929 . S
C873 C865 1.433 . S
C873 N875 1.384 . S
N874 C870 1.427 . S
N874 C871 1.384 . S
N875 C867 1.427 . S
N875 C873 1.384 . S
H876 C882 0.930 . S
H877 C886 0.930 . S
H878 C891 0.929 . S
H879 C889 0.929 . S
H880 C884 0.929 . S
H881 C890 0.929 . S
C882 H876 0.930 . S
C882 C883 1.367 . S
C882 C890 1.378 . S
C883 C882 1.367 . S
C883 C891 1.433 . S
C884 H880 0.929 . S
C884 C886 1.378 . S
C884 C888 1.350 . S
C885 C888 1.463 1_565 S
C885 C890 1.350 . S
C885 N893 1.427 . S
C886 H877 0.930 . S
C886 C884 1.378 . S
C886 C887 1.367 . S
C887 C886 1.367 . S
C887 C889 1.433 . S
C888 C884 1.350 . S
C888 C885 1.463 1_545 S
C888 N892 1.427 . S
C889 H879 0.929 . S
C889 C887 1.433 . S
C889 N892 1.384 . S
C890 H881 0.929 . S
C890 C882 1.378 . S
C890 C885 1.350 . S
C891 H878 0.929 . S
C891 C883 1.433 . S
C891 N893 1.384 . S
N892 C888 1.427 . S
N892 C889 1.384 . S
N893 C885 1.427 . S
N893 C891 1.384 . S
H894 C900 0.930 . S
H895 C904 0.930 . S
H896 C909 0.929 . S
H897 C907 0.929 . S
H898 C902 0.929 . S
H899 C908 0.929 . S
C900 H894 0.930 . S
C900 C901 1.367 . S
C900 C908 1.378 . S
C901 C900 1.367 . S
C901 C909 1.433 . S
C902 H898 0.929 . S
C902 C904 1.378 . S
C902 C906 1.350 . S
C903 C906 1.463 . S
C903 C908 1.350 . S
C903 N911 1.427 . S
C904 H895 0.930 . S
C904 C902 1.378 . S
C904 C905 1.367 . S
C905 C904 1.367 . S
C905 C907 1.433 . S
C906 C902 1.350 . S
C906 C903 1.463 . S
C906 N910 1.427 . S
C907 H897 0.929 . S
C907 C905 1.433 . S
C907 N910 1.384 . S
C908 H899 0.929 . S
C908 C900 1.378 . S
C908 C903 1.350 . S
C909 H896 0.929 . S
C909 C901 1.433 . S
C909 N911 1.384 . S
N910 C906 1.427 . S
N910 C907 1.384 . S
N911 C903 1.427 . S
N911 C909 1.384 . S
H912 C918 0.930 . S
H913 C922 0.930 . S
H914 C927 0.929 . S
H915 C925 0.929 . S
H916 C920 0.929 1_565 S
H917 C926 0.929 1_545 S
C918 H912 0.930 . S
C918 C919 1.367 . S
C918 C926 1.378 . S
C919 C918 1.367 . S
C919 C927 1.433 . S
C920 H916 0.929 1_545 S
C920 C922 1.378 . S
C920 C924 1.350 . S
C921 C924 1.463 1_565 S
C921 C926 1.350 . S
C921 N929 1.427 . S
C922 H913 0.930 . S
C922 C920 1.378 . S
C922 C923 1.367 . S
C923 C922 1.367 . S
C923 C925 1.433 . S
C924 C920 1.350 . S
C924 C921 1.463 1_545 S
C924 N928 1.427 . S
C925 H915 0.929 . S
C925 C923 1.433 . S
C925 N928 1.384 . S
C926 H917 0.929 1_565 S
C926 C918 1.378 . S
C926 C921 1.350 . S
C927 H914 0.929 . S
C927 C919 1.433 . S
C927 N929 1.384 . S
N928 C924 1.427 . S
N928 C925 1.384 . S
N929 C921 1.427 . S
N929 C927 1.384 . S
H930 C936 0.930 . S
H931 C940 0.930 . S
H932 C945 0.929 . S
H933 C943 0.929 . S
H934 C938 0.929 . S
H935 C944 0.929 . S
C936 H930 0.930 . S
C936 C937 1.367 . S
C936 C944 1.378 . S
C937 C936 1.367 . S
C937 C945 1.433 . S
C938 H934 0.929 . S
C938 C940 1.378 . S
C938 C942 1.350 . S
C939 C942 1.463 . S
C939 C944 1.350 . S
C939 N947 1.427 . S
C940 H931 0.930 . S
C940 C938 1.378 . S
C940 C941 1.367 . S
C941 C940 1.367 . S
C941 C943 1.433 . S
C942 C938 1.350 . S
C942 C939 1.463 . S
C942 N946 1.427 . S
C943 H933 0.929 . S
C943 C941 1.433 . S
C943 N946 1.384 . S
C944 H935 0.929 . S
C944 C936 1.378 . S
C944 C939 1.350 . S
C945 H932 0.929 . S
C945 C937 1.433 . S
C945 N947 1.384 . S
N946 C942 1.427 . S
N946 C943 1.384 . S
N947 C939 1.427 . S
N947 C945 1.384 . S
H948 C954 0.930 . S
H949 C958 0.930 . S
H950 C963 0.929 . S
H951 C961 0.929 . S
H952 C956 0.929 . S
H953 C962 0.929 . S
C954 H948 0.930 . S
C954 C955 1.367 . S
C954 C962 1.378 . S
C955 C954 1.367 . S
C955 C963 1.433 . S
C956 H952 0.929 . S
C956 C958 1.378 . S
C956 C960 1.350 . S
C957 C960 1.463 1_655 S
C957 C962 1.350 . S
C957 N965 1.427 . S
C958 H949 0.930 . S
C958 C956 1.378 . S
C958 C959 1.367 . S
C959 C958 1.367 . S
C959 C961 1.433 . S
C960 C956 1.350 . S
C960 C957 1.463 1_455 S
C960 N964 1.427 . S
C961 H951 0.929 . S
C961 C959 1.433 . S
C961 N964 1.384 . S
C962 H953 0.929 . S
C962 C954 1.378 . S
C962 C957 1.350 . S
C963 H950 0.929 . S
C963 C955 1.433 . S
C963 N965 1.384 . S
N964 C960 1.427 . S
N964 C961 1.384 . S
N965 C957 1.427 . S
N965 C963 1.384 . S
H966 C972 0.930 . S
H967 C976 0.930 . S
H968 C981 0.929 . S
H969 C979 0.929 . S
H970 C974 0.929 1_545 S
H971 C980 0.929 1_565 S
C972 H966 0.930 . S
C972 C973 1.367 . S
C972 C980 1.378 . S
C973 C972 1.367 . S
C973 C981 1.433 . S
C974 H970 0.929 1_565 S
C974 C976 1.378 . S
C974 C978 1.350 . S
C975 C978 1.463 1_545 S
C975 C980 1.350 . S
C975 N983 1.427 . S
C976 H967 0.930 . S
C976 C974 1.378 . S
C976 C977 1.367 . S
C977 C976 1.367 . S
C977 C979 1.433 . S
C978 C974 1.350 . S
C978 C975 1.463 1_565 S
C978 N982 1.427 . S
C979 H969 0.929 . S
C979 C977 1.433 . S
C979 N982 1.384 . S
C980 H971 0.929 1_545 S
C980 C972 1.378 . S
C980 C975 1.350 . S
C981 H968 0.929 . S
C981 C973 1.433 . S
C981 N983 1.384 . S
N982 C978 1.427 . S
N982 C979 1.384 . S
N983 C975 1.427 . S
N983 C981 1.384 . S
H984 C990 0.930 . S
H985 C994 0.930 . S
H986 C999 0.929 . S
H987 C997 0.929 . S
H988 C992 0.929 . S
H989 C998 0.929 . S
C990 H984 0.930 . S
C990 C991 1.367 . S
C990 C998 1.378 . S
C991 C990 1.367 . S
C991 C999 1.433 . S
C992 H988 0.929 . S
C992 C994 1.378 . S
C992 C996 1.350 . S
C993 C996 1.463 . S
C993 C998 1.350 . S
C993 N1001 1.427 . S
C994 H985 0.930 . S
C994 C992 1.378 . S
C994 C995 1.367 . S
C995 C994 1.367 . S
C995 C997 1.433 . S
C996 C992 1.350 . S
C996 C993 1.463 . S
C996 N1000 1.427 . S
C997 H987 0.929 . S
C997 C995 1.433 . S
C997 N1000 1.384 . S
C998 H989 0.929 . S
C998 C990 1.378 . S
C998 C993 1.350 . S
C999 H986 0.929 . S
C999 C991 1.433 . S
C999 N1001 1.384 . S
N1000 C996 1.427 . S
N1000 C997 1.384 . S
N1001 C993 1.427 . S
N1001 C999 1.384 . S
H1002 C1008 0.930 . S
H1003 C1012 0.930 . S
H1004 C1017 0.929 . S
H1005 C1015 0.929 . S
H1006 C1010 0.929 . S
H1007 C1016 0.929 . S
C1008 H1002 0.930 . S
C1008 C1009 1.367 . S
C1008 C1016 1.378 . S
C1009 C1008 1.367 . S
C1009 C1017 1.433 . S
C1010 H1006 0.929 . S
C1010 C1012 1.378 . S
C1010 C1014 1.350 . S
C1011 C1014 1.463 1_455 S
C1011 C1016 1.350 . S
C1011 N1019 1.427 . S
C1012 H1003 0.930 . S
C1012 C1010 1.378 . S
C1012 C1013 1.367 . S
C1013 C1012 1.367 . S
C1013 C1015 1.433 . S
C1014 C1010 1.350 . S
C1014 C1011 1.463 1_655 S
C1014 N1018 1.427 . S
C1015 H1005 0.929 . S
C1015 C1013 1.433 . S
C1015 N1018 1.384 . S
C1016 H1007 0.929 . S
C1016 C1008 1.378 . S
C1016 C1011 1.350 . S
C1017 H1004 0.929 . S
C1017 C1009 1.433 . S
C1017 N1019 1.384 . S
N1018 C1014 1.427 . S
N1018 C1015 1.384 . S
N1019 C1011 1.427 . S
N1019 C1017 1.384 . S
H1020 C1026 0.930 . S
H1021 C1030 0.930 . S
H1022 C1035 0.929 . S
H1023 C1033 0.929 . S
H1024 C1028 0.929 . S
H1025 C1034 0.929 . S
C1026 H1020 0.930 . S
C1026 C1027 1.367 . S
C1026 C1034 1.378 . S
C1027 C1026 1.367 . S
C1027 C1035 1.433 . S
C1028 H1024 0.929 . S
C1028 C1030 1.378 . S
C1028 C1032 1.350 . S
C1029 C1032 1.463 . S
C1029 C1034 1.350 . S
C1029 N1037 1.427 . S
C1030 H1021 0.930 . S
C1030 C1028 1.378 . S
C1030 C1031 1.367 . S
C1031 C1030 1.367 . S
C1031 C1033 1.433 . S
C1032 C1028 1.350 . S
C1032 C1029 1.463 . S
C1032 N1036 1.427 . S
C1033 H1023 0.929 . S
C1033 C1031 1.433 . S
C1033 N1036 1.384 . S
C1034 H1025 0.929 . S
C1034 C1026 1.378 . S
C1034 C1029 1.350 . S
C1035 H1022 0.929 . S
C1035 C1027 1.433 . S
C1035 N1037 1.384 . S
N1036 C1032 1.427 . S
N1036 C1033 1.384 . S
N1037 C1029 1.427 . S
N1037 C1035 1.384 . S
H1038 C1044 0.930 . S
H1039 C1048 0.930 . S
H1040 C1053 0.929 . S
H1041 C1051 0.929 . S
H1042 C1046 0.929 . S
H1043 C1052 0.929 . S
C1044 H1038 0.930 . S
C1044 C1045 1.367 . S
C1044 C1052 1.378 . S
C1045 C1044 1.367 . S
C1045 C1053 1.433 . S
C1046 H1042 0.929 . S
C1046 C1048 1.378 . S
C1046 C1050 1.350 . S
C1047 C1050 1.463 . S
C1047 C1052 1.350 . S
C1047 N1055 1.427 . S
C1048 H1039 0.930 . S
C1048 C1046 1.378 . S
C1048 C1049 1.367 . S
C1049 C1048 1.367 . S
C1049 C1051 1.433 . S
C1050 C1046 1.350 . S
C1050 C1047 1.463 . S
C1050 N1054 1.427 . S
C1051 H1041 0.929 . S
C1051 C1049 1.433 . S
C1051 N1054 1.384 . S
C1052 H1043 0.929 . S
C1052 C1044 1.378 . S
C1052 C1047 1.350 . S
C1053 H1040 0.929 . S
C1053 C1045 1.433 . S
C1053 N1055 1.384 . S
N1054 C1050 1.427 . S
N1054 C1051 1.384 . S
N1055 C1047 1.427 . S
N1055 C1053 1.384 . S
H1056 C1062 0.930 . S
H1057 C1066 0.930 . S
H1058 C1071 0.929 . S
H1059 C1069 0.929 . S
H1060 C1064 0.929 . S
H1061 C1070 0.929 . S
C1062 H1056 0.930 . S
C1062 C1063 1.367 . S
C1062 C1070 1.378 . S
C1063 C1062 1.367 . S
C1063 C1071 1.433 . S
C1064 H1060 0.929 . S
C1064 C1066 1.378 . S
C1064 C1068 1.350 . S
C1065 C1068 1.463 . S
C1065 C1070 1.350 . S
C1065 N1073 1.427 . S
C1066 H1057 0.930 . S
C1066 C1064 1.378 . S
C1066 C1067 1.367 . S
C1067 C1066 1.367 . S
C1067 C1069 1.433 . S
C1068 C1064 1.350 . S
C1068 C1065 1.463 . S
C1068 N1072 1.427 . S
C1069 H1059 0.929 . S
C1069 C1067 1.433 . S
C1069 N1072 1.384 . S
C1070 H1061 0.929 . S
C1070 C1062 1.378 . S
C1070 C1065 1.350 . S
C1071 H1058 0.929 . S
C1071 C1063 1.433 . S
C1071 N1073 1.384 . S
N1072 C1068 1.427 . S
N1072 C1069 1.384 . S
N1073 C1065 1.427 . S
N1073 C1071 1.384 . S
H1074 C1080 0.930 . S
H1075 C1084 0.930 . S
H1076 C1089 0.929 . S
H1077 C1087 0.929 . S
H1078 C1082 0.929 . S
H1079 C1088 0.929 . S
C1080 H1074 0.930 . S
C1080 C1081 1.367 . S
C1080 C1088 1.378 . S
C1081 C1080 1.367 . S
C1081 C1089 1.433 . S
C1082 H1078 0.929 . S
C1082 C1084 1.378 . S
C1082 C1086 1.350 . S
C1083 C1086 1.463 . S
C1083 C1088 1.350 . S
C1083 N1091 1.427 . S
C1084 H1075 0.930 . S
C1084 C1082 1.378 . S
C1084 C1085 1.367 . S
C1085 C1084 1.367 . S
C1085 C1087 1.433 . S
C1086 C1082 1.350 . S
C1086 C1083 1.463 . S
C1086 N1090 1.427 . S
C1087 H1077 0.929 . S
C1087 C1085 1.433 . S
C1087 N1090 1.384 . S
C1088 H1079 0.929 . S
C1088 C1080 1.378 . S
C1088 C1083 1.350 . S
C1089 H1076 0.929 . S
C1089 C1081 1.433 . S
C1089 N1091 1.384 . S
N1090 C1086 1.427 . S
N1090 C1087 1.384 . S
N1091 C1083 1.427 . S
N1091 C1089 1.384 . S
H1092 C1098 0.930 . S
H1093 C1102 0.930 . S
H1094 C1107 0.929 . S
H1095 C1105 0.929 . S
H1096 C1100 0.929 . S
H1097 C1106 0.929 . S
C1098 H1092 0.930 . S
C1098 C1099 1.367 . S
C1098 C1106 1.378 . S
C1099 C1098 1.367 . S
C1099 C1107 1.433 . S
C1100 H1096 0.929 . S
C1100 C1102 1.378 . S
C1100 C1104 1.350 . S
C1101 C1104 1.463 . S
C1101 C1106 1.350 . S
C1101 N1109 1.427 . S
C1102 H1093 0.930 . S
C1102 C1100 1.378 . S
C1102 C1103 1.367 . S
C1103 C1102 1.367 . S
C1103 C1105 1.433 . S
C1104 C1100 1.350 . S
C1104 C1101 1.463 . S
C1104 N1108 1.427 . S
C1105 H1095 0.929 . S
C1105 C1103 1.433 . S
C1105 N1108 1.384 . S
C1106 H1097 0.929 . S
C1106 C1098 1.378 . S
C1106 C1101 1.350 . S
C1107 H1094 0.929 . S
C1107 C1099 1.433 . S
C1107 N1109 1.384 . S
N1108 C1104 1.427 . S
N1108 C1105 1.384 . S
N1109 C1101 1.427 . S
N1109 C1107 1.384 . S
H1110 C1116 0.930 . S
H1111 C1120 0.930 . S
H1112 C1125 0.929 . S
H1113 C1123 0.929 . S
H1114 C1118 0.929 . S
H1115 C1124 0.929 . S
C1116 H1110 0.930 . S
C1116 C1117 1.367 . S
C1116 C1124 1.378 . S
C1117 C1116 1.367 . S
C1117 C1125 1.433 . S
C1118 H1114 0.929 . S
C1118 C1120 1.378 . S
C1118 C1122 1.350 . S
C1119 C1122 1.463 . S
C1119 C1124 1.350 . S
C1119 N1127 1.427 . S
C1120 H1111 0.930 . S
C1120 C1118 1.378 . S
C1120 C1121 1.367 . S
C1121 C1120 1.367 . S
C1121 C1123 1.433 . S
C1122 C1118 1.350 . S
C1122 C1119 1.463 . S
C1122 N1126 1.427 . S
C1123 H1113 0.929 . S
C1123 C1121 1.433 . S
C1123 N1126 1.384 . S
C1124 H1115 0.929 . S
C1124 C1116 1.378 . S
C1124 C1119 1.350 . S
C1125 H1112 0.929 . S
C1125 C1117 1.433 . S
C1125 N1127 1.384 . S
N1126 C1122 1.427 . S
N1126 C1123 1.384 . S
N1127 C1119 1.427 . S
N1127 C1125 1.384 . S
C487 C9 1.082 . S
C491 C329 1.085 . S
C505 C49 1.091 . S
C509 C369 1.099 . S
C523 C89 1.083 . S
C527 C409 1.081 . S
C541 C449 1.098 . S
C545 C129 1.090 . S
C559 C169 1.085 . S
C563 C249 1.082 . S
C577 C289 1.090 . S
C581 C209 1.097 . S
C595 C415 1.531 . S
C599 C15 1.538 . S
C613 C455 1.540 . S
C617 C55 1.534 . S
C631 C95 1.539 . S
C635 C255 1.532 . S
C649 C295 1.533 . S
C653 C135 1.528 . S
C667 C335 1.528 . S
C671 C175 1.530 . S
C685 C215 1.532 . S
C689 C375 1.528 . S
C703 C299 4.253 . S
C707 C19 4.249 . S
C721 C339 4.253 . S
C725 C59 4.252 . S
C739 C379 4.253 . S
C743 C99 4.251 . S
C757 C139 4.250 . S
C761 C419 4.249 . S
C775 C179 4.252 . S
C779 C459 4.249 . S
C793 C219 4.248 . S
C797 C259 4.250 . S
C811 C18 0.565 . S
C815 C138 0.558 . S
C829 C58 0.529 . S
C833 C178 0.555 . S
C847 C98 0.560 . S
C851 C218 0.536 . S
C865 C378 0.516 . S
C869 C258 0.538 . S
C883 C298 0.550 . S
C887 C418 0.523 . S
C901 C458 0.563 . S
C905 C338 0.542 . S
C919 C286 0.694 . S
C923 C6 0.705 . S
C937 C326 0.721 . S
C941 C46 0.702 . S
C955 C86 0.732 . S
C959 C366 0.717 . S
C973 C406 0.694 . S
C977 C126 0.704 . S
C991 C446 0.729 . S
C995 C166 0.711 . S
C1009 C206 0.704 . S
C1013 C246 0.722 . S
C1027 C10 4.760 . S
C1031 C410 4.759 . S
C1045 C50 4.759 . S
C1049 C450 4.760 1_556 S
C1063 C90 4.759 1_554 S
C1067 C250 4.759 . S
C1081 C130 4.759 . S
C1085 C290 4.760 . S
C1099 C170 4.759 . S
C1103 C330 4.759 1_556 S
C1117 C370 4.760 . S
C1121 C210 4.759 1_554 S
