# Generated by pormake.
# Topology soe, (5)-cn, num edge types: 1
# Building blocks:
#     Node 0, Type 0, BuildingBlock: XOMCOT_clean_sbu_0, # of connection points: 5
#     Node 1, Type 0, BuildingBlock: XOMCOT_clean_sbu_0, # of connection points: 5
#     Node 2, Type 0, BuildingBlock: XOMCOT_clean_sbu_0, # of connection points: 5
#     Node 3, Type 0, BuildingBlock: XOMCOT_clean_sbu_0, # of connection points: 5
#     Node 4, Type 0, BuildingBlock: XOMCOT_clean_sbu_0, # of connection points: 5
#     Node 5, Type 0, BuildingBlock: XOMCOT_clean_sbu_0, # of connection points: 5
#     Node 6, Type 0, BuildingBlock: XOMCOT_clean_sbu_0, # of connection points: 5
#     Node 7, Type 0, BuildingBlock: XOMCOT_clean_sbu_0, # of connection points: 5
#     Edge 8, Type (0, 0), BuildingBlock: ZUJKAS_clean_linker_0, # of connection points: 2
#     Edge 9, Type (0, 0), BuildingBlock: ZUJKAS_clean_linker_0, # of connection points: 2
#     Edge 10, Type (0, 0), BuildingBlock: ZUJKAS_clean_linker_0, # of connection points: 2
#     Edge 11, Type (0, 0), BuildingBlock: ZUJKAS_clean_linker_0, # of connection points: 2
#     Edge 12, Type (0, 0), BuildingBlock: ZUJKAS_clean_linker_0, # of connection points: 2
#     Edge 13, Type (0, 0), BuildingBlock: ZUJKAS_clean_linker_0, # of connection points: 2
#     Edge 14, Type (0, 0), BuildingBlock: ZUJKAS_clean_linker_0, # of connection points: 2
#     Edge 15, Type (0, 0), BuildingBlock: ZUJKAS_clean_linker_0, # of connection points: 2
#     Edge 16, Type (0, 0), BuildingBlock: ZUJKAS_clean_linker_0, # of connection points: 2
#     Edge 17, Type (0, 0), BuildingBlock: ZUJKAS_clean_linker_0, # of connection points: 2
#     Edge 18, Type (0, 0), BuildingBlock: ZUJKAS_clean_linker_0, # of connection points: 2
#     Edge 19, Type (0, 0), BuildingBlock: ZUJKAS_clean_linker_0, # of connection points: 2
#     Edge 20, Type (0, 0), BuildingBlock: ZUJKAS_clean_linker_0, # of connection points: 2
#     Edge 21, Type (0, 0), BuildingBlock: ZUJKAS_clean_linker_0, # of connection points: 2
#     Edge 22, Type (0, 0), BuildingBlock: ZUJKAS_clean_linker_0, # of connection points: 2
#     Edge 23, Type (0, 0), BuildingBlock: ZUJKAS_clean_linker_0, # of connection points: 2
#     Edge 24, Type (0, 0), BuildingBlock: ZUJKAS_clean_linker_0, # of connection points: 2
#     Edge 25, Type (0, 0), BuildingBlock: ZUJKAS_clean_linker_0, # of connection points: 2
#     Edge 26, Type (0, 0), BuildingBlock: ZUJKAS_clean_linker_0, # of connection points: 2
#     Edge 27, Type (0, 0), BuildingBlock: ZUJKAS_clean_linker_0, # of connection points: 2
# Relax obj value: 0.031
# Max RMSD: 0.067
# Mean RMSD: 0.067
data_MOF--net-soe--node1-XOMCOT_clean_sbu_0--edge1-ZUJKAS_clean_linker_0
_symmetry_space_group_name_H-M    P1
_symmetry_Int_Tables_number       1
_symmetry_cell_setting            triclinic
loop_
_symmetry_equiv_pos_as_xyz
'x, y, z'
_cell_length_a     73.956358
_cell_length_b     57.203719
_cell_length_c     22.078826
_cell_angle_alpha  89.958469
_cell_angle_beta   89.990225
_cell_angle_gamma 90.066744
loop_
_atom_site_label
_atom_site_type_symbol
_atom_site_fract_x
_atom_site_fract_y
_atom_site_fract_z
_atom_type_partial_charge
Co0 Co 0.11382 0.10204 0.1126 0.0
C1 C 0.11435 0.10724 0.97716 0.0
C2 C 0.10363 0.13719 0.02264 0.0
C3 C 0.10219 0.14077 0.96132 0.0
N4 N 0.11168 0.11641 0.03291 0.0
N5 N 0.1089 0.12189 0.93265 0.0
H6 H 0.11893 0.0897 0.96871 0.0
H7 H 0.09853 0.1487 0.0575 0.0
C8 C 0.13048 0.14914 0.12702 0.0
O9 O 0.14023 0.14409 0.079 0.0
N10 N 0.11527 0.08795 0.19187 0.0
C11 C 0.12037 0.06583 0.20384 0.0
C12 C 0.12072 0.06275 0.2656 0.0
C13 C 0.11247 0.09802 0.24626 0.0
N14 N 0.11581 0.083 0.29225 0.0
C15 C 0.1437 0.07717 0.06122 0.0
C16 C 0.16955 0.09237 0.14249 0.0
C17 C 0.17407 0.07468 0.10129 0.0
C18 C 0.16096 0.06743 0.05966 0.0
C19 C 0.15204 0.10165 0.14261 0.0
N20 N 0.13936 0.09438 0.1015 0.0
H21 H 0.13352 0.06936 0.03303 0.0
H22 H 0.14842 0.11358 0.17846 0.0
H23 H 0.12389 0.05297 0.16997 0.0
H24 H 0.10856 0.11611 0.25207 0.0
O25 O 0.1036 0.07352 0.08129 0.0
O26 O 0.08759 0.1028 0.11887 0.0
O27 O 0.1195 0.1339 0.14845 0.0
C28 C 0.08783 0.08208 0.0943 0.0
H29 H 0.09634 0.15596 0.93972 0.0
H30 H 0.12433 0.04679 0.289 0.0
H31 H 0.1791 0.09798 0.17673 0.0
H32 H 0.16377 0.05359 0.02754 0.0
Co33 Co 0.40428 0.92539 0.11271 0.0
C34 C 0.40364 0.91979 0.97735 0.0
C35 C 0.41541 0.89057 0.0232 0.0
C36 C 0.41691 0.88696 0.96189 0.0
N37 N 0.40669 0.9109 0.03325 0.0
N38 N 0.40953 0.90538 0.93297 0.0
H39 H 0.39842 0.93701 0.96868 0.0
H40 H 0.42091 0.87942 0.05821 0.0
C41 C 0.38889 0.87751 0.1285 0.0
O42 O 0.37943 0.8814 0.07911 0.0
N43 N 0.40254 0.93963 0.19176 0.0
C44 C 0.39696 0.96156 0.20346 0.0
C45 C 0.39645 0.96468 0.26522 0.0
C46 C 0.40547 0.9297 0.24633 0.0
N47 N 0.40175 0.94463 0.29217 0.0
C48 C 0.37411 0.94953 0.06132 0.0
C49 C 0.34835 0.93346 0.14186 0.0
C50 C 0.34373 0.95138 0.10142 0.0
C51 C 0.35677 0.95901 0.05998 0.0
C52 C 0.36596 0.92443 0.14177 0.0
N53 N 0.37862 0.93225 0.10123 0.0
H54 H 0.38422 0.95767 0.03341 0.0
H55 H 0.36966 0.91238 0.17728 0.0
H56 H 0.3932 0.97426 0.16942 0.0
H57 H 0.40972 0.91177 0.25239 0.0
O58 O 0.41403 0.95409 0.08074 0.0
O59 O 0.4305 0.92538 0.11905 0.0
O60 O 0.39915 0.89358 0.14966 0.0
C61 C 0.42994 0.94599 0.09383 0.0
H62 H 0.42325 0.87207 0.94048 0.0
H63 H 0.39246 0.98051 0.28841 0.0
H64 H 0.33883 0.92754 0.17585 0.0
H65 H 0.35387 0.97301 0.02839 0.0
Co66 Co 0.11177 0.42902 0.39267 0.0
C67 C 0.116 0.4249 0.52624 0.0
C68 C 0.11308 0.3914 0.48377 0.0
C69 C 0.11395 0.38817 0.54533 0.0
N70 N 0.11442 0.41441 0.47161 0.0
N71 N 0.1156 0.40924 0.57231 0.0
H72 H 0.11665 0.44365 0.53216 0.0
H73 H 0.11106 0.37776 0.45068 0.0
C74 C 0.12936 0.39031 0.31825 0.0
O75 O 0.14129 0.40498 0.29574 0.0
N76 N 0.10845 0.44371 0.31286 0.0
C77 C 0.10458 0.46646 0.30228 0.0
C78 C 0.10325 0.47022 0.24104 0.0
C79 C 0.10842 0.43383 0.25703 0.0
N80 N 0.1058 0.44972 0.21246 0.0
C81 C 0.14112 0.46118 0.38538 0.0
C82 C 0.16878 0.43055 0.41264 0.0
C83 C 0.17304 0.45391 0.39889 0.0
C84 C 0.15884 0.46931 0.38641 0.0
C85 C 0.15068 0.42309 0.41102 0.0
N86 N 0.13719 0.43816 0.39459 0.0
H87 H 0.13053 0.47373 0.37866 0.0
H88 H 0.14756 0.40514 0.42224 0.0
H89 H 0.10274 0.47973 0.33651 0.0
H90 H 0.11005 0.41545 0.24843 0.0
O91 O 0.10197 0.4564 0.43125 0.0
O92 O 0.08568 0.4262 0.39997 0.0
O93 O 0.11696 0.3976 0.35389 0.0
C94 C 0.08616 0.44672 0.42571 0.0
H95 H 0.11313 0.37148 0.56823 0.0
H96 H 0.10039 0.48678 0.21933 0.0
H97 H 0.1793 0.41814 0.42388 0.0
H98 H 0.16131 0.48774 0.37872 0.0
Co99 Co 0.40491 0.59822 0.40601 0.0
C100 C 0.40462 0.60373 0.54144 0.0
C101 C 0.41587 0.63327 0.49538 0.0
C102 C 0.41743 0.63691 0.55666 0.0
N103 N 0.40739 0.61273 0.48548 0.0
N104 N 0.41038 0.61829 0.5857 0.0
H105 H 0.39975 0.58633 0.55022 0.0
H106 H 0.42115 0.64457 0.46029 0.0
C107 C 0.38938 0.64596 0.39016 0.0
O108 O 0.37985 0.64188 0.4393 0.0
N109 N 0.40313 0.584 0.32694 0.0
C110 C 0.39748 0.56209 0.31513 0.0
C111 C 0.39701 0.55901 0.25335 0.0
C112 C 0.40614 0.59394 0.27242 0.0
N113 N 0.4024 0.57906 0.2265 0.0
C114 C 0.37445 0.57476 0.45888 0.0
C115 C 0.34894 0.59046 0.37717 0.0
C116 C 0.34387 0.57363 0.42016 0.0
C117 C 0.35685 0.56605 0.46185 0.0
C118 C 0.3667 0.59897 0.37628 0.0
N119 N 0.37922 0.59144 0.41758 0.0
H120 H 0.38449 0.56653 0.48681 0.0
H121 H 0.37059 0.61053 0.33988 0.0
H122 H 0.39365 0.54939 0.34911 0.0
H123 H 0.41047 0.61187 0.26648 0.0
O124 O 0.41463 0.5695 0.43792 0.0
O125 O 0.4311 0.59826 0.39946 0.0
O126 O 0.39979 0.63005 0.36912 0.0
C127 C 0.43054 0.57764 0.42461 0.0
H128 H 0.4236 0.65197 0.57796 0.0
H129 H 0.39297 0.5432 0.23008 0.0
H130 H 0.33943 0.59648 0.34329 0.0
H131 H 0.35378 0.55232 0.49407 0.0
Co132 Co 0.90436 0.92799 0.91135 0.0
C133 C 0.9038 0.92268 0.0467 0.0
C134 C 0.91193 0.89139 1.0014 0.0
C135 C 0.91313 0.88771 0.06278 0.0
N136 N 0.90546 0.91308 0.9909 0.0
N137 N 0.90802 0.90742 0.09132 0.0
H138 H 0.90057 0.94073 0.05501 0.0
H139 H 0.91641 0.87933 0.96686 0.0
C140 C 0.88779 0.88111 0.88887 0.0
O141 O 0.87689 0.88541 0.93455 0.0
N142 N 0.90399 0.94257 0.83239 0.0
C143 C 0.89917 0.96477 0.82022 0.0
C144 C 0.89979 0.96812 0.75852 0.0
C145 C 0.90752 0.9327 0.77817 0.0
N146 N 0.905 0.94794 0.73205 0.0
C147 C 0.8733 0.95056 0.96255 0.0
C148 C 0.84906 0.93783 0.87331 0.0
C149 C 0.84339 0.95319 0.91895 0.0
C150 C 0.85572 0.9593 0.96427 0.0
C151 C 0.86676 0.92913 0.87388 0.0
N152 N 0.87862 0.93517 0.91886 0.0
H153 H 0.88288 0.95771 0.9939 0.0
H154 H 0.87116 0.91849 0.8363 0.0
H155 H 0.89506 0.97745 0.8538 0.0
H156 H 0.91176 0.91474 0.77265 0.0
O157 O 0.91388 0.95643 0.94553 0.0
O158 O 0.9306 0.92755 0.9092 0.0
O159 O 0.89942 0.89648 0.87262 0.0
C160 C 0.92988 0.94813 0.93449 0.0
H161 H 0.91829 0.87213 0.08456 0.0
H162 H 0.89609 0.984 0.73495 0.0
H163 H 0.84004 0.93302 0.8367 0.0
H164 H 0.85217 0.97193 0.99884 0.0
Co165 Co 0.61382 0.09802 0.90388 0.0
C166 C 0.6128 0.10205 0.03751 0.0
C167 C 0.61117 0.13573 0.9949 0.0
C168 C 0.61088 0.13882 0.05672 0.0
N169 N 0.61248 0.11268 0.98283 0.0
N170 N 0.61182 0.11765 0.08329 0.0
H171 H 0.61394 0.08335 0.0438 0.0
H172 H 0.61037 0.14947 0.96149 0.0
C173 C 0.6292 0.1361 0.82257 0.0
O174 O 0.63986 0.12088 0.79592 0.0
N175 N 0.61494 0.08316 0.82458 0.0
C176 C 0.6221 0.06211 0.81099 0.0
C177 C 0.62137 0.05882 0.74944 0.0
C178 C 0.60904 0.09179 0.77098 0.0
N179 N 0.6133 0.07754 0.72432 0.0
C180 C 0.64364 0.06884 0.93621 0.0
C181 C 0.67098 0.1014 0.9246 0.0
C182 C 0.67548 0.07803 0.93629 0.0
C183 C 0.6615 0.06188 0.94408 0.0
C184 C 0.65274 0.10776 0.91846 0.0
N185 N 0.63939 0.09116 0.91935 0.0
H186 H 0.63329 0.05582 0.94246 0.0
H187 H 0.64955 0.12601 0.91338 0.0
H188 H 0.6276 0.04979 0.84286 0.0
H189 H 0.60265 0.10868 0.76579 0.0
O190 O 0.60349 0.0698 0.93692 0.0
O191 O 0.58755 0.09878 0.89794 0.0
O192 O 0.6189 0.12969 0.86612 0.0
C193 C 0.58774 0.07829 0.92374 0.0
H194 H 0.60973 0.15532 0.08036 0.0
H195 H 0.62659 0.04393 0.72482 0.0
H196 H 0.68142 0.11461 0.92083 0.0
H197 H 0.66434 0.04372 0.95434 0.0
Co198 Co 0.90402 0.60003 0.6219 0.0
C199 C 0.90385 0.60527 0.48651 0.0
C200 C 0.91448 0.63528 0.53205 0.0
C201 C 0.9161 0.63878 0.47072 0.0
N202 N 0.90633 0.61454 0.54231 0.0
N203 N 0.90943 0.61986 0.44201 0.0
H204 H 0.89939 0.58766 0.4781 0.0
H205 H 0.91959 0.64681 0.56689 0.0
C206 C 0.88872 0.6478 0.63935 0.0
O207 O 0.87862 0.64371 0.59151 0.0
N208 N 0.90239 0.58576 0.70101 0.0
C209 C 0.89674 0.56384 0.71279 0.0
C210 C 0.89637 0.56066 0.77454 0.0
C211 C 0.90551 0.59561 0.75553 0.0
N212 N 0.90182 0.58066 0.80142 0.0
C213 C 0.87307 0.57748 0.56975 0.0
C214 C 0.84801 0.59339 0.65274 0.0
C215 C 0.84254 0.57699 0.60922 0.0
C216 C 0.85534 0.56924 0.56706 0.0
C217 C 0.86594 0.60128 0.65364 0.0
N218 N 0.87821 0.59375 0.61153 0.0
H219 H 0.88289 0.56924 0.54103 0.0
H220 H 0.87012 0.61249 0.69038 0.0
H221 H 0.89282 0.55121 0.67881 0.0
H222 H 0.90984 0.61353 0.76152 0.0
O223 O 0.91324 0.57113 0.58956 0.0
O224 O 0.93024 0.59951 0.62717 0.0
O225 O 0.89944 0.63194 0.65895 0.0
C226 C 0.92931 0.5789 0.60215 0.0
H227 H 0.92206 0.65392 0.44915 0.0
H228 H 0.89235 0.54482 0.79776 0.0
H229 H 0.83869 0.59958 0.68695 0.0
H230 H 0.85203 0.55576 0.53445 0.0
Co231 Co 0.61397 0.4236 0.60656 0.0
C232 C 0.61557 0.41813 0.47126 0.0
C233 C 0.60408 0.38847 0.51624 0.0
C234 C 0.60314 0.38476 0.45487 0.0
N235 N 0.61233 0.40912 0.52691 0.0
N236 N 0.61034 0.40345 0.42659 0.0
H237 H 0.62089 0.43534 0.46292 0.0
H238 H 0.59842 0.37723 0.5508 0.0
C239 C 0.63003 0.3763 0.62291 0.0
O240 O 0.64004 0.38109 0.57528 0.0
N241 N 0.61491 0.4378 0.68573 0.0
C242 C 0.62001 0.4599 0.69786 0.0
C243 C 0.61967 0.46315 0.75955 0.0
C244 C 0.61148 0.42787 0.73994 0.0
N245 N 0.61433 0.44301 0.78606 0.0
C246 C 0.64469 0.44774 0.5574 0.0
C247 C 0.66964 0.43179 0.64073 0.0
C248 C 0.67501 0.44882 0.59866 0.0
C249 C 0.66227 0.4566 0.55631 0.0
C250 C 0.65188 0.42332 0.64012 0.0
N251 N 0.63968 0.43083 0.59775 0.0
H252 H 0.63483 0.45594 0.52866 0.0
H253 H 0.64775 0.41167 0.67602 0.0
H254 H 0.62409 0.4726 0.66421 0.0
H255 H 0.60705 0.40997 0.74544 0.0
O256 O 0.60424 0.45219 0.57384 0.0
O257 O 0.58773 0.42313 0.6105 0.0
O258 O 0.61909 0.39174 0.64342 0.0
C259 C 0.5883 0.44379 0.58557 0.0
H260 H 0.59682 0.36998 0.43277 0.0
H261 H 0.6236 0.47895 0.78304 0.0
H262 H 0.67891 0.42552 0.67503 0.0
H263 H 0.66549 0.47052 0.5248 0.0
H264 H 0.33784 0.99838 0.10038 0.0
H265 H 0.30902 0.019 0.10531 0.0
H266 H 0.28083 0.95308 0.11686 0.0
H267 H 0.30981 0.93226 0.11273 0.0
H268 H 0.28105 0.01715 0.02732 0.0
H269 H 0.25821 0.98893 0.25532 0.0
H270 H 0.28106 0.98453 0.22897 0.0
H271 H 0.26328 0.96509 0.20533 0.0
C272 C 0.32551 0.98823 0.10382 0.0
C273 C 0.32608 0.96366 0.10573 0.0
C274 C 0.30904 1.00006 0.10693 0.0
C275 C 0.29276 0.98764 0.11213 0.0
C276 C 0.29325 0.96307 0.11423 0.0
H277 H 0.18019 0.02769 0.09657 0.0
H278 H 0.2092 1.00728 0.10005 0.0
C279 C 0.30979 0.95119 0.11158 0.0
C280 C 0.27532 1.00052 0.11279 0.0
H281 H 0.23679 1.00946 0.19502 0.0
C282 C 0.27143 0.01557 0.0642 0.0
C283 C 0.26279 0.99849 0.16098 0.0
C284 C 0.26658 0.98357 0.21591 0.0
C285 C 0.25523 0.02832 0.06197 0.0
C286 C 0.24266 0.02612 0.10983 0.0
C287 C 0.24651 1.0111 0.15845 0.0
C288 C 0.22519 0.03874 0.10919 0.0
C289 C 0.25149 0.04369 1.00784 0.0
C290 C 0.22458 0.06321 0.11395 0.0
C291 C 0.20799 0.07498 0.11189 0.0
C292 C 0.19177 0.06244 0.10465 0.0
C293 C 0.19247 0.0379 0.10092 0.0
C294 C 0.20901 0.02618 0.10338 0.0
H295 H 0.26093 0.04012 0.96982 0.0
H296 H 0.23741 0.04115 0.99164 0.0
H297 H 0.25304 0.06229 0.02115 0.0
H298 H 0.23694 0.07319 0.11916 0.0
H299 H 0.20787 0.09387 0.11495 0.0
H300 H 0.20037 0.44436 0.47992 0.0
H301 H 0.23025 0.46313 0.48523 0.0
H302 H 0.21805 0.50282 0.32443 0.0
H303 H 0.18849 0.48391 0.31788 0.0
H304 H 0.25943 0.46844 0.38271 0.0
H305 H 0.22912 0.55061 0.47135 0.0
H306 H 0.21807 0.52255 0.47851 0.0
H307 H 0.21824 0.5374 0.40693 0.0
C308 C 0.2042 0.45673 0.44503 0.0
C309 C 0.19195 0.46286 0.39893 0.0
C310 C 0.22122 0.46751 0.44831 0.0
C311 C 0.22618 0.48457 0.40568 0.0
C312 C 0.21435 0.48991 0.35817 0.0
H313 H 0.32546 0.55775 0.32086 0.0
H314 H 0.29694 0.53592 0.31901 0.0
C315 C 0.19744 0.47914 0.35469 0.0
C316 C 0.24335 0.49767 0.41178 0.0
H317 H 0.26014 0.5518 0.44519 0.0
C318 C 0.25965 0.48662 0.39668 0.0
C319 C 0.24352 0.52132 0.4303 0.0
C320 C 0.22635 0.53375 0.44816 0.0
C321 C 0.27614 0.49885 0.39834 0.0
C322 C 0.27624 0.52271 0.41526 0.0
C323 C 0.25998 0.53356 0.43182 0.0
C324 C 0.29312 0.5367 0.41613 0.0
C325 C 0.29336 0.4862 0.38223 0.0
C326 C 0.30011 0.54495 0.47117 0.0
C327 C 0.31635 0.55749 0.47237 0.0
C328 C 0.32579 0.56226 0.41841 0.0
C329 C 0.31843 0.55459 0.36312 0.0
C330 C 0.30225 0.54189 0.36203 0.0
H331 H 0.29152 0.46692 0.3824 0.0
H332 H 0.29773 0.49157 0.33617 0.0
H333 H 0.30435 0.49082 0.41436 0.0
H334 H 0.29317 0.54128 0.51334 0.0
H335 H 0.32162 0.56331 0.51558 0.0
H336 H 0.69145 0.05174 0.02412 0.0
H337 H 0.72095 0.03252 0.01956 0.0
H338 H 0.73132 0.06515 0.84673 0.0
H339 H 0.70196 0.08492 0.85207 0.0
H340 H 0.73039 1.00094 0.93637 0.0
H341 H 0.77932 0.07447 0.92894 0.0
H342 H 0.75594 0.07847 0.94995 0.0
H343 H 0.76222 0.07614 0.87146 0.0
C344 C 0.70023 0.05523 0.98587 0.0
C345 C 0.69448 0.06986 0.93852 0.0
C346 C 0.71705 0.04419 0.98318 0.0
C347 C 0.72843 0.04744 0.93297 0.0
C348 C 0.72298 0.06274 0.88657 0.0
H349 H 0.82664 0.9737 0.82206 0.0
H350 H 0.79824 0.9959 0.82224 0.0
C351 C 0.70621 0.07403 0.8896 0.0
C352 C 0.74518 0.03325 0.92718 0.0
H353 H 0.791 0.03654 0.90831 0.0
C354 C 0.74364 1.00878 0.9305 0.0
C355 C 0.76248 0.04343 0.91908 0.0
C356 C 0.76517 0.06957 0.9177 0.0
C357 C 0.75887 0.99426 0.92614 0.0
C358 C 0.7761 1.00444 0.91834 0.0
C359 C 0.7777 0.02884 0.91404 0.0
C360 C 0.79273 0.99004 0.91723 0.0
C361 C 0.75646 0.96811 0.92965 0.0
C362 C 0.79888 0.97929 0.97047 0.0
C363 C 0.81505 0.96669 0.97054 0.0
C364 C 0.82532 0.96449 0.91725 0.0
C365 C 0.81889 0.97482 0.86358 0.0
C366 C 0.80278 0.98765 0.86371 0.0
H367 H 0.74209 0.96284 0.92428 0.0
H368 H 0.76465 0.9593 0.89421 0.0
H369 H 0.76127 0.96182 0.9744 0.0
H370 H 0.79134 0.98108 0.0123 0.0
H371 H 0.81967 0.95888 0.0125 0.0
H372 H 0.82081 0.56588 0.51296 0.0
H373 H 0.79222 0.54435 0.51474 0.0
H374 H 0.7942 0.54193 0.70978 0.0
H375 H 0.82291 0.5632 0.70848 0.0
H376 H 0.7875 0.49908 0.56522 0.0
H377 H 0.74228 0.56434 0.67369 0.0
H378 H 0.76372 0.57222 0.64016 0.0
H379 H 0.76302 0.55851 0.71333 0.0
C380 C 0.81512 0.5609 0.55629 0.0
C381 C 0.82417 0.56629 0.61058 0.0
C382 C 0.79876 0.54865 0.55721 0.0
C383 C 0.79102 0.54169 0.61237 0.0
C384 C 0.79977 0.5475 0.66674 0.0
H385 H 0.694 0.46184 0.69991 0.0
H386 H 0.72284 0.48276 0.70443 0.0
C387 C 0.81616 0.55974 0.6659 0.0
C388 C 0.77437 0.52721 0.61266 0.0
H389 H 0.73022 0.5265 0.65782 0.0
C390 C 0.77495 0.50508 0.58531 0.0
C391 C 0.75809 0.53502 0.63937 0.0
C392 C 0.7566 0.55889 0.66792 0.0
C393 C 0.75969 0.49045 0.58422 0.0
C394 C 0.7433 0.49839 0.61009 0.0
C395 C 0.74279 0.52044 0.63803 0.0
C396 C 0.72641 0.48438 0.60727 0.0
C397 C 0.76135 0.46648 0.55631 0.0
C398 C 0.71887 0.47824 0.55115 0.0
C399 C 0.70249 0.46607 0.5484 0.0
C400 C 0.6932 0.45994 0.60175 0.0
C401 C 0.70092 0.46589 0.65796 0.0
C402 C 0.71732 0.47806 0.66064 0.0
H403 H 0.77564 0.46052 0.55499 0.0
H404 H 0.75323 0.4534 0.5817 0.0
H405 H 0.75629 0.46709 0.50903 0.0
H406 H 0.72546 0.48331 0.50933 0.0
H407 H 0.69699 0.46167 0.50439 0.0
H408 H 0.93134 0.99111 0.98704 0.0
H409 H 0.95812 0.01382 0.01383 0.0
H410 H 0.9923 0.95855 0.94679 0.0
H411 H 0.96544 0.93573 0.91896 0.0
H412 H 0.98595 1.00249 0.0928 0.0
H413 H 0.012 0.01641 0.85962 0.0
H414 H 0.98935 1.0061 0.87456 0.0
H415 H 1.00818 0.98634 0.87928 0.0
C416 C 0.94454 0.98377 0.9777 0.0
C417 C 0.94627 0.96165 0.95054 0.0
C418 C 0.95984 0.99679 0.99318 0.0
C419 C 0.9772 0.98804 0.98162 0.0
C420 C 0.97902 0.96585 0.95505 0.0
H421 H 0.08557 0.03871 0.04458 0.0
H422 H 0.05842 0.01649 0.01957 0.0
C423 C 0.96367 0.95277 0.93945 0.0
C424 C 0.99333 1.0021 0.99846 0.0
H425 H 0.03082 0.02884 0.94029 0.0
C426 C 0.99574 1.00833 0.05946 0.0
C427 C 1.00604 1.00977 0.95485 0.0
C428 C 1.00374 1.00453 0.88831 0.0
C429 C 0.01072 0.02161 0.07823 0.0
C430 C 0.02347 0.02919 0.03464 0.0
C431 C 0.02102 0.02303 0.97362 0.0
C432 C 0.03979 0.04286 0.05148 0.0
C433 C 0.01302 0.02692 0.14472 0.0
C434 C 0.03835 0.06519 0.07758 0.0
C435 C 0.05393 0.07801 0.09214 0.0
C436 C 0.07117 0.06872 0.0805 0.0
C437 C 0.0725 0.04639 0.05426 0.0
C438 C 0.05699 0.03364 0.03981 0.0
H439 H 1.00452 0.01535 0.17348 0.0
H440 H 0.02737 0.02493 0.15864 0.0
H441 H 1.00894 0.04527 0.15343 0.0
H442 H 0.0252 0.07282 0.08597 0.0
H443 H 0.05246 0.09521 0.11198 0.0
H444 H 0.43155 0.98927 0.04308 0.0
H445 H 0.45837 1.01148 0.01414 0.0
H446 H 0.49241 0.95612 0.0816 0.0
H447 H 0.46548 0.93351 0.11018 0.0
H448 H 0.48687 0.02759 0.08527 0.0
H449 H 0.51092 0.96609 0.90817 0.0
H450 H 0.48845 0.96456 0.93986 0.0
H451 H 0.50739 0.95315 0.98139 0.0
C452 C 0.44473 0.98175 0.05183 0.0
C453 C 0.44639 0.95955 0.07869 0.0
C454 C 0.46005 0.99452 0.03528 0.0
C455 C 0.47738 0.98534 0.0449 0.0
C456 C 0.47914 0.96334 0.07272 0.0
H457 H 0.58552 0.0354 0.97623 0.0
H458 H 0.55842 0.01376 1.00484 0.0
C459 C 0.46377 0.95051 0.08937 0.0
C460 C 0.4935 0.99899 0.02596 0.0
H461 H 0.53009 0.99802 0.9316 0.0
C462 C 0.4963 0.02117 0.05155 0.0
C463 C 0.50572 0.99062 0.98174 0.0
C464 C 0.50295 0.9674 0.95069 0.0
C465 C 0.51122 0.03502 0.03502 0.0
C466 C 0.52348 0.0266 0.99097 0.0
C467 C 0.52064 1.00445 0.96526 0.0
C468 C 0.53976 0.04006 0.97268 0.0
C469 C 0.51399 0.05826 0.06594 0.0
C470 C 0.53828 0.06199 0.94433 0.0
C471 C 0.55383 0.07451 0.9278 0.0
C472 C 0.57108 0.06521 0.9392 0.0
C473 C 0.57245 0.04311 0.96685 0.0
C474 C 0.55696 0.03067 0.98323 0.0
H475 H 0.5058 0.05977 0.10795 0.0
H476 H 0.52846 0.06092 0.0776 0.0
H477 H 0.50986 0.07251 0.03476 0.0
H478 H 0.5251 0.06938 0.9348 0.0
H479 H 0.55235 0.09144 0.90639 0.0
H480 H 0.08446 0.48863 0.48344 0.0
H481 H 0.05761 0.50978 0.51644 0.0
H482 H 0.02375 0.45406 0.44959 0.0
H483 H 0.05073 0.43272 0.41564 0.0
H484 H 0.01266 0.49918 0.41364 0.0
H485 H 0.02483 0.49574 0.66138 0.0
H486 H 0.04368 0.50668 0.61859 0.0
H487 H 0.03645 0.4769 0.6086 0.0
C488 C 0.07132 0.48074 0.47602 0.0
C489 C 0.06972 0.45894 0.44704 0.0
C490 C 0.05598 0.49282 0.49532 0.0
C491 C 0.0387 0.48334 0.48641 0.0
C492 C 0.037 0.4616 0.45731 0.0
H493 H 0.93023 0.53542 0.55242 0.0
H494 H 0.95671 0.51235 0.52496 0.0
C495 C 0.0524 0.44943 0.43801 0.0
C496 C 0.02245 0.4967 0.50521 0.0
H497 H 1.00192 0.52189 0.62751 0.0
C498 C 0.01022 0.50398 0.46045 0.0
C499 C 0.01937 0.5031 0.56627 0.0
C500 C 0.03168 0.49504 0.61662 0.0
C501 C 0.99519 0.5179 0.47489 0.0
C502 C 0.99214 0.52436 0.53593 0.0
C503 C 1.00433 0.51701 0.58074 0.0
C504 C 0.97613 0.5383 0.55423 0.0
C505 C 0.98295 0.52605 0.42443 0.0
C506 C 0.97823 0.5603 0.58162 0.0
C507 C 0.96305 0.57356 0.59781 0.0
C508 C 0.94554 0.56492 0.58717 0.0
C509 C 0.94353 0.54268 0.56087 0.0
C510 C 0.95866 0.52949 0.54479 0.0
H511 H 0.98972 0.525 0.37959 0.0
H512 H 0.97077 0.51474 0.42296 0.0
H513 H 0.97848 0.54435 0.43199 0.0
H514 H 0.99162 0.56735 0.58968 0.0
H515 H 0.96503 0.5906 0.61813 0.0
H516 H 0.43233 0.53434 0.47544 0.0
H517 H 0.45928 0.51205 0.50232 0.0
H518 H 0.49304 0.56746 0.43301 0.0
H519 H 0.46601 0.59012 0.40646 0.0
H520 H 0.48728 0.49609 0.42836 0.0
H521 H 0.51279 0.55699 0.60472 0.0
H522 H 0.49008 0.55863 0.57501 0.0
H523 H 0.50872 0.57014 0.53207 0.0
C524 C 0.44548 0.54185 0.46589 0.0
C525 C 0.44703 0.56407 0.43903 0.0
C526 C 0.46087 0.52905 0.48126 0.0
C527 C 0.47817 0.53821 0.47047 0.0
C528 C 0.47981 0.56024 0.44279 0.0
H529 H 0.58656 0.48693 0.5339 0.0
H530 H 0.55964 0.50909 0.50599 0.0
C531 C 0.46437 0.57311 0.42731 0.0
C532 C 0.49439 0.52446 0.48782 0.0
H533 H 0.53162 0.52502 0.57935 0.0
C534 C 0.49696 0.50238 0.46148 0.0
C535 C 0.50696 0.53267 0.53117 0.0
C536 C 0.50449 0.55581 0.56288 0.0
C537 C 0.51194 0.48844 0.47652 0.0
C538 C 0.52452 0.49665 0.51988 0.0
C539 C 0.52194 0.51874 0.54621 0.0
C540 C 0.54072 0.4829 0.53738 0.0
C541 C 0.51441 0.46531 0.44481 0.0
C542 C 0.53904 0.46086 0.56504 0.0
C543 C 0.55447 0.44807 0.58109 0.0
C544 C 0.57182 0.45718 0.57001 0.0
C545 C 0.5734 0.47937 0.543 0.0
C546 C 0.55802 0.4921 0.52703 0.0
H547 H 0.50616 0.46416 0.40287 0.0
H548 H 0.52883 0.46244 0.43286 0.0
H549 H 0.51012 0.45099 0.47555 0.0
H550 H 0.5258 0.45361 0.5745 0.0
H551 H 0.55281 0.43108 0.60206 0.0
H552 H 0.08725 0.14148 0.84705 0.0
H553 H 0.08825 0.13488 0.73791 0.0
H554 H 0.1321 0.08618 0.76174 0.0
H555 H 0.13142 0.09292 0.8711 0.0
H556 H 0.11818 0.14181 0.65813 0.0
H557 H 0.09455 0.04958 0.66006 0.0
H558 H 0.09169 0.06888 0.72402 0.0
H559 H 0.1133 0.05577 0.70928 0.0
C560 C 0.09721 0.12948 0.82929 0.0
C561 C 0.10925 0.11771 0.86815 0.0
C562 C 0.09768 0.12564 0.76681 0.0
C563 C 0.11009 0.10985 0.74187 0.0
C564 C 0.12218 0.09812 0.78026 0.0
H565 H 0.1354 0.06205 0.38057 0.0
H566 H 0.1338 0.06941 0.4893 0.0
C567 C 0.12175 0.10197 0.84279 0.0
C568 C 0.11064 0.10608 0.6755 0.0
H569 H 0.10478 0.06463 0.56612 0.0
C570 C 0.11518 0.12498 0.63787 0.0
C571 C 0.10672 0.0841 0.6494 0.0
C572 C 0.10114 0.06343 0.68759 0.0
C573 C 0.1163 0.12235 0.57473 0.0
C574 C 0.1124 0.10034 0.54856 0.0
C575 C 0.10777 0.08148 0.58627 0.0
C576 C 0.11338 0.09632 0.48224 0.0
C577 C 0.12215 0.14299 0.53684 0.0
C578 C 0.10233 0.10889 0.44207 0.0
C579 C 0.10321 0.10471 0.37968 0.0
C580 C 0.11502 0.08767 0.35641 0.0
C581 C 0.12599 0.07506 0.39693 0.0
C582 C 0.12515 0.07932 0.45914 0.0
H583 H 0.12912 0.15648 0.5645 0.0
H584 H 0.13134 0.13744 0.49979 0.0
H585 H 0.11005 0.15119 0.51611 0.0
H586 H 0.09284 0.12173 0.45902 0.0
H587 H 0.0944 0.11447 0.34983 0.0
H588 H 0.42355 0.91376 0.35046 0.0
H589 H 0.42477 0.90625 0.45976 0.0
H590 H 0.38317 0.95775 0.48891 0.0
H591 H 0.38161 0.96501 0.38006 0.0
H592 H 0.43217 0.93984 0.55412 0.0
H593 H 0.36438 0.89902 0.57884 0.0
H594 H 0.3756 0.90187 0.50653 0.0
H595 H 0.36456 0.92665 0.54005 0.0
C596 C 0.41453 0.9233 0.38006 0.0
C597 C 0.40249 0.93999 0.35641 0.0
C598 C 0.41531 0.91908 0.4425 0.0
C599 C 0.40392 0.93126 0.4823 0.0
C600 C 0.39191 0.94793 0.45891 0.0
H601 H 0.38619 0.93319 0.87102 0.0
H602 H 0.38548 0.94004 0.76167 0.0
C603 C 0.39118 0.95224 0.39666 0.0
C604 C 0.40485 0.92704 0.5485 0.0
H605 H 0.38 0.90824 0.66953 0.0
C606 C 0.42082 0.9328 0.5794 0.0
C607 C 0.38997 0.91799 0.58129 0.0
C608 C 0.37269 0.91082 0.55007 0.0
C609 C 0.4222 0.93019 0.64252 0.0
C610 C 0.40732 0.92109 0.67536 0.0
C611 C 0.39137 0.91526 0.64434 0.0
C612 C 0.40806 0.91728 0.74187 0.0
C613 C 0.4394 0.93779 0.6736 0.0
C614 C 0.42088 0.90206 0.76706 0.0
C615 C 0.42143 0.89828 0.82959 0.0
C616 C 0.40905 0.90947 0.86836 0.0
C617 C 0.39611 0.92456 0.84281 0.0
C618 C 0.3956 0.92837 0.78021 0.0
H619 H 0.44726 0.95024 0.64528 0.0
H620 H 0.43647 0.94618 0.71786 0.0
H621 H 0.448 0.92224 0.68195 0.0
H622 H 0.4304 0.89294 0.73829 0.0
H623 H 0.43169 0.8867 0.84741 0.0
H624 H 0.12718 0.44858 0.63054 0.0
H625 H 0.12614 0.45627 0.73964 0.0
H626 H 0.1026 0.38833 0.76988 0.0
H627 H 0.10312 0.38065 0.66169 0.0
H628 H 0.09416 0.45472 0.81808 0.0
H629 H 0.14691 0.39087 0.88626 0.0
H630 H 0.14474 0.40158 0.80961 0.0
H631 H 0.12959 0.37947 0.83736 0.0
C632 C 0.1217 0.43528 0.66021 0.0
C633 C 0.11538 0.41388 0.63677 0.0
C634 C 0.12121 0.43969 0.72264 0.0
C635 C 0.11455 0.42271 0.76285 0.0
C636 C 0.10814 0.40147 0.73975 0.0
H637 H 0.09826 0.40964 0.15096 0.0
H638 H 0.10015 0.40356 0.04133 0.0
C639 C 0.10853 0.3971 0.67757 0.0
C640 C 0.11376 0.42728 0.82891 0.0
H641 H 0.12955 0.40778 0.96524 0.0
C642 C 0.10199 0.44462 0.85032 0.0
C643 C 0.12389 0.41392 0.87076 0.0
C644 C 0.13712 0.39553 0.85004 0.0
C645 C 0.09975 0.4486 0.91269 0.0
C646 C 0.10988 0.43521 0.95467 0.0
C647 C 0.12175 0.41797 0.9331 0.0
C648 C 0.10853 0.43898 0.02111 0.0
C649 C 0.08617 0.46662 0.93304 0.0
C650 C 0.11284 0.46079 0.04629 0.0
C651 C 0.11177 0.4643 0.10881 0.0
C652 C 0.10653 0.44601 0.14777 0.0
C653 C 0.10243 0.42406 0.12247 0.0
C654 C 0.10345 0.42059 0.05976 0.0
H655 H 0.07604 0.47038 0.89716 0.0
H656 H 0.07892 0.46077 0.97442 0.0
H657 H 0.09332 0.48318 0.94361 0.0
H658 H 0.11729 0.47505 0.01764 0.0
H659 H 0.11545 0.48125 0.12669 0.0
H660 H 0.42426 0.61005 0.16857 0.0
H661 H 0.42556 0.61768 0.05935 0.0
H662 H 0.38404 0.56601 0.02948 0.0
H663 H 0.38238 0.55865 0.13825 0.0
H664 H 0.43315 0.58453 0.96491 0.0
H665 H 0.36517 0.62448 0.93962 0.0
H666 H 0.37627 0.62156 0.0121 0.0
H667 H 0.36538 0.59677 0.97794 0.0
C668 C 0.41527 0.60051 0.13884 0.0
C669 C 0.40321 0.58374 0.16228 0.0
C670 C 0.4161 0.60479 0.07644 0.0
C671 C 0.40475 0.5926 0.03645 0.0
C672 C 0.39274 0.57585 0.05962 0.0
H673 H 0.38738 0.59002 0.64786 0.0
H674 H 0.38671 0.58332 0.75726 0.0
C675 C 0.39196 0.57148 0.12184 0.0
C676 C 0.40573 0.5969 0.97027 0.0
H677 H 0.38086 0.61531 0.84898 0.0
C678 C 0.42178 0.59141 0.93953 0.0
C679 C 0.39083 0.60575 0.93734 0.0
C680 C 0.37347 0.61269 0.96836 0.0
C681 C 0.4232 0.59404 0.87643 0.0
C682 C 0.40829 0.60288 0.84342 0.0
C683 C 0.39227 0.60848 0.87429 0.0
C684 C 0.40903 0.60659 0.77688 0.0
C685 C 0.44049 0.58673 0.8455 0.0
C686 C 0.4217 0.62204 0.75157 0.0
C687 C 0.42223 0.62574 0.689 0.0
C688 C 0.40997 0.61424 0.65032 0.0
C689 C 0.3972 0.5989 0.676 0.0
C690 C 0.39671 0.59517 0.73863 0.0
H691 H 0.44848 0.57451 0.874 0.0
H692 H 0.43767 0.5782 0.80135 0.0
H693 H 0.44893 0.60244 0.83694 0.0
H694 H 0.43111 0.6314 0.78028 0.0
H695 H 0.43235 0.63752 0.67107 0.0
H696 H 0.91242 0.94898 0.14964 0.0
H697 H 0.91263 0.95551 0.2591 0.0
H698 H 0.90399 0.88188 0.28934 0.0
H699 H 0.90365 0.8752 0.18008 0.0
H700 H 0.88566 0.94602 0.34409 0.0
H701 H 0.9479 0.89572 0.39582 0.0
H702 H 0.9419 0.90439 0.3198 0.0
H703 H 0.93117 0.87953 0.35443 0.0
C704 C 0.91045 0.93417 0.17944 0.0
C705 C 0.9081 0.91151 0.15589 0.0
C706 C 0.91068 0.93793 0.24207 0.0
C707 C 0.90865 0.91913 0.28242 0.0
C708 C 0.90605 0.89657 0.25912 0.0
H709 H 0.90155 0.90616 0.67431 0.0
H710 H 0.90264 0.89922 0.56499 0.0
C711 C 0.90584 0.89278 0.19658 0.0
C712 C 0.90874 0.9232 0.34885 0.0
H713 H 0.93049 0.90846 0.47998 0.0
C714 C 0.89552 0.93793 0.37378 0.0
C715 C 0.92158 0.91254 0.38753 0.0
C716 C 0.93655 0.89733 0.36312 0.0
C717 C 0.8946 0.94197 0.43645 0.0
C718 C 0.90744 0.93131 0.47513 0.0
C719 C 0.92065 0.91657 0.45025 0.0
C720 C 0.90744 0.93542 0.54152 0.0
C721 C 0.87964 0.95721 0.46087 0.0
C722 C 0.9102 0.95797 0.56467 0.0
C723 C 0.90968 0.96198 0.62708 0.0
C724 C 0.90647 0.94349 0.66782 0.0
C725 C 0.90419 0.92078 0.64447 0.0
C726 C 0.90472 0.91679 0.58193 0.0
H727 H 0.86838 0.95907 0.42792 0.0
H728 H 0.87415 0.94999 0.50381 0.0
H729 H 0.8851 0.97492 0.4703 0.0
H730 H 0.91276 0.97251 0.53439 0.0
H731 H 0.91186 0.97958 0.6434 0.0
H732 H 0.63873 0.06904 0.64029 0.0
H733 H 0.63696 0.07668 0.53171 0.0
H734 H 0.58293 0.10379 0.55458 0.0
H735 H 0.58515 0.09711 0.66438 0.0
H736 H 0.61656 0.05918 0.44938 0.0
H737 H 0.60379 0.15459 0.45402 0.0
H738 H 0.60994 0.13841 0.52098 0.0
H739 H 0.58693 0.13821 0.49421 0.0
C740 C 0.62651 0.07671 0.62208 0.0
C741 C 0.61206 0.08246 0.66052 0.0
C742 C 0.62549 0.0811 0.56002 0.0
C743 C 0.60989 0.09108 0.53463 0.0
C744 C 0.59531 0.09668 0.57301 0.0
H745 H 0.59416 0.08254 0.14011 0.0
H746 H 0.59242 0.07573 0.24962 0.0
C747 C 0.59651 0.09273 0.63562 0.0
C748 C 0.60894 0.09481 0.46785 0.0
H749 H 0.60148 0.13595 0.35844 0.0
C750 C 0.61331 0.07601 0.42957 0.0
C751 C 0.6049 0.11682 0.44173 0.0
C752 C 0.60131 0.13821 0.47984 0.0
C753 C 0.61403 0.07862 0.36635 0.0
C754 C 0.60945 0.10043 0.34011 0.0
C755 C 0.60486 0.11917 0.37833 0.0
C756 C 0.61009 0.10455 0.27345 0.0
C757 C 0.62042 0.05818 0.32882 0.0
C758 C 0.62002 0.1235 0.25014 0.0
C759 C 0.6206 0.12772 0.18781 0.0
C760 C 0.61148 0.11291 0.14732 0.0
C761 C 0.60158 0.09393 0.1704 0.0
C762 C 0.60066 0.09 0.23294 0.0
H763 H 0.62861 0.04578 0.35616 0.0
H764 H 0.60852 0.04847 0.31138 0.0
H765 H 0.6287 0.06407 0.28972 0.0
H766 H 0.62742 0.13501 0.28022 0.0
H767 H 0.62836 0.14243 0.17106 0.0
H768 H 0.8869 0.59096 0.38012 0.0
H769 H 0.88639 0.58411 0.27077 0.0
H770 H 0.93028 0.63297 0.24753 0.0
H771 H 0.93134 0.63927 0.35669 0.0
H772 H 0.88025 0.61623 0.17903 0.0
H773 H 0.94817 0.57625 0.15389 0.0
H774 H 0.93729 0.57968 0.22654 0.0
H775 H 0.94837 0.60413 0.19114 0.0
C776 C 0.89664 0.59998 0.35193 0.0
C777 C 0.9092 0.61561 0.3775 0.0
C778 C 0.89624 0.59616 0.28935 0.0
C779 C 0.90846 0.60778 0.25106 0.0
C780 C 0.92095 0.62347 0.27628 0.0
H781 H 0.92366 0.61164 0.85933 0.0
H782 H 0.92501 0.61914 0.96858 0.0
C783 C 0.92137 0.62728 0.3388 0.0
C784 C 0.90775 0.60408 0.18454 0.0
H785 H 0.93274 0.58611 0.06301 0.0
C786 C 0.8917 0.60954 0.1537 0.0
C787 C 0.92273 0.59544 0.15152 0.0
C788 C 0.94006 0.58832 0.18244 0.0
C789 C 0.89028 0.60686 0.09065 0.0
C790 C 0.90524 0.59819 0.0577 0.0
C791 C 0.92132 0.59284 0.08841 0.0
C792 C 0.90428 0.59393 0.99152 0.0
C793 C 0.87288 0.61367 0.05966 0.0
C794 C 0.89231 0.57715 0.96836 0.0
C795 C 0.89149 0.57287 0.90614 0.0
C796 C 0.90268 0.58524 0.86566 0.0
C797 C 0.91472 0.60202 0.88909 0.0
C798 C 0.91558 0.60622 0.95151 0.0
H799 H 0.86455 0.62541 0.08838 0.0
H800 H 0.87563 0.62255 0.01586 0.0
H801 H 0.86485 0.59769 0.05022 0.0
H802 H 0.88366 0.56723 0.99852 0.0
H803 H 0.88193 0.56002 0.88975 0.0
H804 H 0.60906 0.44517 0.36768 0.0
H805 H 0.60931 0.45144 0.25803 0.0
H806 H 0.61342 0.37707 0.22941 0.0
H807 H 0.61317 0.37068 0.33888 0.0
H808 H 0.63512 0.43955 0.17262 0.0
H809 H 0.57027 0.39441 0.1241 0.0
H810 H 0.57703 0.40252 0.19978 0.0
H811 H 0.58625 0.37678 0.16477 0.0
C812 C 0.61015 0.43016 0.33812 0.0
C813 C 0.61099 0.40739 0.36207 0.0
C814 C 0.61019 0.43376 0.27544 0.0
C815 C 0.61103 0.41469 0.23554 0.0
C816 C 0.61227 0.392 0.2593 0.0
H817 H 0.61704 0.40107 0.84362 0.0
H818 H 0.61607 0.39411 0.95299 0.0
C819 C 0.61216 0.38838 0.32189 0.0
C820 C 0.61096 0.41857 0.16908 0.0
H821 H 0.58808 0.40534 0.03903 0.0
C822 C 0.62479 0.43218 0.14344 0.0
C823 C 0.59747 0.40888 0.13108 0.0
C824 C 0.58181 0.39501 0.15628 0.0
C825 C 0.62566 0.43607 0.08071 0.0
C826 C 0.61221 0.42634 0.04276 0.0
C827 C 0.5984 0.4127 0.06829 0.0
C828 C 0.61213 0.43045 0.97648 0.0
C829 C 0.64116 0.45021 0.05539 0.0
C830 C 0.6098 0.45309 0.95349 0.0
C831 C 0.61021 0.45711 0.8911 0.0
C832 C 0.61293 0.43855 0.85029 0.0
C833 C 0.61479 0.41575 0.87353 0.0
C834 C 0.61434 0.41175 0.93606 0.0
H835 H 0.65253 0.4516 0.08808 0.0
H836 H 0.64628 0.44237 0.01272 0.0
H837 H 0.63637 0.46816 0.04508 0.0
H838 H 0.60767 0.46769 0.98389 0.0
H839 H 0.60834 0.4748 0.87489 0.0
H840 H 0.10891 0.16852 0.2152 0.0
H841 H 0.10886 0.20923 0.25014 0.0
H842 H 0.15392 0.22453 0.13263 0.0
H843 H 0.15388 0.1842 0.09682 0.0
H844 H 0.13519 0.23682 0.30544 0.0
H845 H 0.11701 0.27326 0.08083 0.0
H846 H 0.11536 0.24248 0.09792 0.0
H847 H 0.13688 0.25529 0.07925 0.0
C848 C 0.11886 0.18053 0.19701 0.0
C849 C 0.13128 0.17312 0.15269 0.0
C850 C 0.11881 0.2038 0.217 0.0
C851 C 0.13112 0.22009 0.19298 0.0
C852 C 0.14398 0.21247 0.15063 0.0
H853 H 0.15315 0.36828 0.24177 0.0
H854 H 0.15365 0.32689 0.2134 0.0
C855 C 0.144 0.18931 0.13048 0.0
C856 C 0.13051 0.24507 0.21163 0.0
H857 H 0.12592 0.30059 0.1562 0.0
C858 C 0.13306 0.25076 0.27291 0.0
C859 C 0.12769 0.26328 0.16914 0.0
C860 C 0.1239 0.25832 0.10321 0.0
C861 C 0.1333 0.27415 0.29256 0.0
C862 C 0.13069 0.29234 0.24992 0.0
C863 C 0.12803 0.28665 0.18876 0.0
C864 C 0.13046 0.31739 0.26787 0.0
C865 C 0.13676 0.27925 0.35859 0.0
C866 C 0.1171 0.32589 0.30721 0.0
C867 C 0.11673 0.34953 0.32334 0.0
C868 C 0.1297 0.36525 0.30038 0.0
C869 C 0.14298 0.35671 0.26048 0.0
C870 C 0.1433 0.33304 0.2442 0.0
H871 H 0.14286 0.26404 0.38226 0.0
H872 H 0.14586 0.29456 0.36386 0.0
H873 H 0.12374 0.28339 0.38117 0.0
H874 H 0.10682 0.31426 0.32501 0.0
H875 H 0.10619 0.35547 0.3537 0.0
H876 H 0.37218 0.83809 0.08656 0.0
H877 H 0.37207 0.79916 0.13171 0.0
H878 H 0.40385 0.82466 0.28153 0.0
H879 H 0.4044 0.86371 0.23579 0.0
H880 H 0.41676 0.78347 0.23902 0.0
H881 H 0.34283 0.77597 0.27367 0.0
H882 H 0.34868 0.78231 0.19655 0.0
H883 H 0.35365 0.80331 0.25492 0.0
C884 C 0.37904 0.83553 0.12938 0.0
C885 C 0.38822 0.85411 0.15768 0.0
C886 C 0.37888 0.81322 0.15534 0.0
C887 C 0.38767 0.809 0.21062 0.0
C888 C 0.39689 0.8275 0.239 0.0
H889 H 0.37266 0.68516 0.43296 0.0
H890 H 0.37279 0.72435 0.38928 0.0
C891 C 0.39716 0.84983 0.21285 0.0
C892 C 0.38768 0.78515 0.23775 0.0
H893 H 0.3599 0.74092 0.28469 0.0
C894 C 0.40432 0.77421 0.2493 0.0
C895 C 0.37147 0.77313 0.25189 0.0
C896 C 0.35315 0.78436 0.24422 0.0
C897 C 0.4052 0.75151 0.27367 0.0
C898 C 0.38898 0.73913 0.28555 0.0
C899 C 0.37234 0.75023 0.27486 0.0
C900 C 0.3889 0.71502 0.31117 0.0
C901 C 0.42352 0.74123 0.28766 0.0
C902 C 0.39768 0.6965 0.2814 0.0
C903 C 0.39774 0.67399 0.30658 0.0
C904 C 0.38881 0.66949 0.36166 0.0
C905 C 0.37967 0.68794 0.3905 0.0
C906 C 0.37973 0.71042 0.36556 0.0
H907 H 0.43403 0.75502 0.29206 0.0
H908 H 0.42318 0.73089 0.33023 0.0
H909 H 0.4276 0.72946 0.25018 0.0
H910 H 0.40445 0.69943 0.23858 0.0
H911 H 0.40479 0.66015 0.28291 0.0
H912 H 0.91219 0.86271 0.8083 0.0
H913 H 0.91254 0.82319 0.76596 0.0
H914 H 0.86297 0.80717 0.86029 0.0
H915 H 0.8628 0.84636 0.90411 0.0
H916 H 0.88697 0.77274 0.87403 0.0
H917 H 0.88284 0.796 0.63073 0.0
H918 H 0.90166 0.80938 0.6685 0.0
H919 H 0.87896 0.81706 0.69008 0.0
C920 C 0.90127 0.85085 0.8196 0.0
C921 C 0.88745 0.85775 0.85957 0.0
C922 C 0.90144 0.82826 0.79508 0.0
C923 C 0.88765 0.81222 0.80919 0.0
C924 C 0.87376 0.81919 0.84861 0.0
H925 H 0.86468 0.68309 0.61842 0.0
H926 H 0.86453 0.72228 0.6621 0.0
C927 C 0.87366 0.84167 0.87353 0.0
C928 C 0.88793 0.78794 0.7848 0.0
H929 H 0.88913 0.75624 0.65373 0.0
C930 C 0.88739 0.76914 0.82582 0.0
C931 C 0.88827 0.78318 0.72188 0.0
C932 C 0.88778 0.80246 0.67521 0.0
C933 C 0.88726 0.74581 0.80581 0.0
C934 C 0.88816 0.74105 0.74296 0.0
C935 C 0.88861 0.75984 0.70193 0.0
C936 C 0.88808 0.71677 0.71849 0.0
C937 C 0.88566 0.72654 0.85224 0.0
C938 C 0.90135 0.70047 0.73559 0.0
C939 C 0.90135 0.67787 0.71111 0.0
C940 C 0.88824 0.67122 0.66826 0.0
C941 C 0.87499 0.68758 0.65125 0.0
C942 C 0.87491 0.71006 0.67611 0.0
H943 H 0.87994 0.73306 0.89558 0.0
H944 H 0.87699 0.71208 0.83544 0.0
H945 H 0.8993 0.7194 0.86189 0.0
H946 H 0.91192 0.70534 0.76709 0.0
H947 H 0.91185 0.66578 0.72479 0.0
H948 H 0.60797 0.17183 0.86452 0.0
H949 H 0.60823 0.21278 0.83303 0.0
H950 H 0.65124 0.19812 0.70687 0.0
H951 H 0.65099 0.15702 0.7377 0.0
H952 H 0.63608 0.24564 0.83735 0.0
H953 H 0.61367 0.23067 0.60069 0.0
H954 H 0.61198 0.20847 0.65857 0.0
H955 H 0.63327 0.21412 0.62205 0.0
C956 C 0.61752 0.17725 0.8301 0.0
C957 C 0.62946 0.16104 0.80362 0.0
C958 C 0.61764 0.20072 0.81214 0.0
C959 C 0.62958 0.20849 0.76703 0.0
C960 C 0.64166 0.19244 0.74094 0.0
H961 H 0.65206 0.3402 0.59029 0.0
H962 H 0.65198 0.30023 0.62887 0.0
C963 C 0.64155 0.16895 0.75886 0.0
C964 C 0.62951 0.23342 0.7478 0.0
H965 H 0.62347 0.26902 0.62518 0.0
C966 C 0.63324 0.25079 0.79103 0.0
C967 C 0.62574 0.24012 0.6874 0.0
C968 C 0.62077 0.22242 0.63955 0.0
C969 C 0.63376 0.27461 0.77515 0.0
C970 C 0.63016 0.28127 0.7146 0.0
C971 C 0.62628 0.26391 0.67154 0.0
C972 C 0.63071 0.30608 0.69432 0.0
C973 C 0.63864 0.29237 0.82293 0.0
C974 C 0.6188 0.3228 0.71845 0.0
C975 C 0.61884 0.34582 0.69653 0.0
C976 C 0.63069 0.35249 0.64971 0.0
C977 C 0.64274 0.33574 0.62632 0.0
C978 C 0.6427 0.31282 0.64826 0.0
H979 H 0.64531 0.28412 0.86262 0.0
H980 H 0.64777 0.306 0.80421 0.0
H981 H 0.62613 0.30108 0.83905 0.0
H982 H 0.60919 0.31792 0.75325 0.0
H983 H 0.60932 0.35823 0.71536 0.0
loop_
_geom_bond_atom_site_label_1
_geom_bond_atom_site_label_2
_geom_bond_distance
_geom_bond_site_symmetry_2
_ccdc_geom_bond_type
Co0 N4 2.148 . S
Co0 N10 2.128 . S
Co0 N20 2.194 . S
Co0 O25 2.351 . S
Co0 O26 2.155 . S
Co0 O27 2.096 . S
C1 N4 1.301 1_556 S
C1 N5 1.328 . S
C1 H6 0.930 . S
C2 C3 1.333 . S
C2 N4 1.317 1_556 S
C2 H7 0.930 1_556 S
C3 C2 1.333 . S
C3 N5 1.350 . S
C3 H29 0.931 . S
N4 Co0 2.148 . S
N4 C1 1.301 1_554 S
N4 C2 1.317 1_554 S
N5 C1 1.328 . S
N5 C3 1.350 . S
H6 C1 0.930 . S
H7 C2 0.930 1_554 S
C8 O9 1.224 . S
C8 O27 1.247 . S
O9 C8 1.224 . S
N10 Co0 2.128 . S
N10 C11 1.355 . S
N10 C13 1.311 . S
C11 N10 1.355 . S
C11 C12 1.363 . S
C11 H23 0.929 . S
C12 C11 1.363 . S
C12 N14 1.375 . S
C12 H30 0.931 . S
C13 N10 1.311 . S
C13 N14 1.347 . S
C13 H24 0.929 . S
N14 C12 1.375 . S
N14 C13 1.347 . S
C15 C18 1.365 . S
C15 N20 1.328 . S
C15 H21 0.929 . S
C16 C17 1.362 . S
C16 C19 1.378 . S
C16 H31 0.929 . S
C17 C16 1.362 . S
C17 C18 1.366 . S
C18 C15 1.365 . S
C18 C17 1.366 . S
C18 H32 0.930 . S
C19 C16 1.378 . S
C19 N20 1.315 . S
C19 H22 0.930 . S
N20 Co0 2.194 . S
N20 C15 1.328 . S
N20 C19 1.315 . S
H21 C15 0.929 . S
H22 C19 0.930 . S
H23 C11 0.929 . S
H24 C13 0.929 . S
O25 Co0 2.351 . S
O25 C28 1.244 . S
O26 Co0 2.155 . S
O26 C28 1.240 . S
O27 Co0 2.096 . S
O27 C8 1.247 . S
C28 O25 1.244 . S
C28 O26 1.240 . S
H29 C3 0.931 . S
H30 C12 0.931 . S
H31 C16 0.929 . S
H32 C18 0.930 . S
Co33 N37 2.148 . S
Co33 N43 2.128 . S
Co33 N53 2.194 . S
Co33 O58 2.351 . S
Co33 O59 2.155 . S
Co33 O60 2.096 . S
C34 N37 1.301 1_556 S
C34 N38 1.328 . S
C34 H39 0.930 . S
C35 C36 1.333 . S
C35 N37 1.317 1_556 S
C35 H40 0.930 1_556 S
C36 C35 1.333 . S
C36 N38 1.350 . S
C36 H62 0.931 . S
N37 Co33 2.148 . S
N37 C34 1.301 1_554 S
N37 C35 1.317 1_554 S
N38 C34 1.328 . S
N38 C36 1.350 . S
H39 C34 0.930 . S
H40 C35 0.930 1_554 S
C41 O42 1.224 . S
C41 O60 1.247 . S
O42 C41 1.224 . S
N43 Co33 2.128 . S
N43 C44 1.355 . S
N43 C46 1.311 . S
C44 N43 1.355 . S
C44 C45 1.363 . S
C44 H56 0.929 . S
C45 C44 1.363 . S
C45 N47 1.375 . S
C45 H63 0.931 . S
C46 N43 1.311 . S
C46 N47 1.347 . S
C46 H57 0.929 . S
N47 C45 1.375 . S
N47 C46 1.347 . S
C48 C51 1.365 . S
C48 N53 1.328 . S
C48 H54 0.929 . S
C49 C50 1.362 . S
C49 C52 1.378 . S
C49 H64 0.929 . S
C50 C49 1.362 . S
C50 C51 1.366 . S
C51 C48 1.365 . S
C51 C50 1.366 . S
C51 H65 0.930 . S
C52 C49 1.378 . S
C52 N53 1.315 . S
C52 H55 0.930 . S
N53 Co33 2.194 . S
N53 C48 1.328 . S
N53 C52 1.315 . S
H54 C48 0.929 . S
H55 C52 0.930 . S
H56 C44 0.929 . S
H57 C46 0.929 . S
O58 Co33 2.351 . S
O58 C61 1.244 . S
O59 Co33 2.155 . S
O59 C61 1.240 . S
O60 Co33 2.096 . S
O60 C41 1.247 . S
C61 O58 1.244 . S
C61 O59 1.240 . S
H62 C36 0.931 . S
H63 C45 0.931 . S
H64 C49 0.929 . S
H65 C51 0.930 . S
Co66 N70 2.148 . S
Co66 N76 2.128 . S
Co66 N86 2.194 . S
Co66 O91 2.351 . S
Co66 O92 2.155 . S
Co66 O93 2.096 . S
C67 N70 1.301 . S
C67 N71 1.328 . S
C67 H72 0.930 . S
C68 C69 1.333 . S
C68 N70 1.317 . S
C68 H73 0.930 . S
C69 C68 1.333 . S
C69 N71 1.350 . S
C69 H95 0.931 . S
N70 Co66 2.148 . S
N70 C67 1.301 . S
N70 C68 1.317 . S
N71 C67 1.328 . S
N71 C69 1.350 . S
H72 C67 0.930 . S
H73 C68 0.930 . S
C74 O75 1.224 . S
C74 O93 1.247 . S
O75 C74 1.224 . S
N76 Co66 2.128 . S
N76 C77 1.355 . S
N76 C79 1.311 . S
C77 N76 1.355 . S
C77 C78 1.363 . S
C77 H89 0.929 . S
C78 C77 1.363 . S
C78 N80 1.375 . S
C78 H96 0.931 . S
C79 N76 1.311 . S
C79 N80 1.347 . S
C79 H90 0.929 . S
N80 C78 1.375 . S
N80 C79 1.347 . S
C81 C84 1.365 . S
C81 N86 1.328 . S
C81 H87 0.929 . S
C82 C83 1.362 . S
C82 C85 1.378 . S
C82 H97 0.929 . S
C83 C82 1.362 . S
C83 C84 1.366 . S
C84 C81 1.365 . S
C84 C83 1.366 . S
C84 H98 0.930 . S
C85 C82 1.378 . S
C85 N86 1.315 . S
C85 H88 0.930 . S
N86 Co66 2.194 . S
N86 C81 1.328 . S
N86 C85 1.315 . S
H87 C81 0.929 . S
H88 C85 0.930 . S
H89 C77 0.929 . S
H90 C79 0.929 . S
O91 Co66 2.351 . S
O91 C94 1.244 . S
O92 Co66 2.155 . S
O92 C94 1.240 . S
O93 Co66 2.096 . S
O93 C74 1.247 . S
C94 O91 1.244 . S
C94 O92 1.240 . S
H95 C69 0.931 . S
H96 C78 0.931 . S
H97 C82 0.929 . S
H98 C84 0.930 . S
Co99 N103 2.148 . S
Co99 N109 2.128 . S
Co99 N119 2.194 . S
Co99 O124 2.351 . S
Co99 O125 2.155 . S
Co99 O126 2.096 . S
C100 N103 1.301 . S
C100 N104 1.328 . S
C100 H105 0.930 . S
C101 C102 1.333 . S
C101 N103 1.317 . S
C101 H106 0.930 . S
C102 C101 1.333 . S
C102 N104 1.350 . S
C102 H128 0.931 . S
N103 Co99 2.148 . S
N103 C100 1.301 . S
N103 C101 1.317 . S
N104 C100 1.328 . S
N104 C102 1.350 . S
H105 C100 0.930 . S
H106 C101 0.930 . S
C107 O108 1.224 . S
C107 O126 1.247 . S
O108 C107 1.224 . S
N109 Co99 2.128 . S
N109 C110 1.355 . S
N109 C112 1.311 . S
C110 N109 1.355 . S
C110 C111 1.363 . S
C110 H122 0.929 . S
C111 C110 1.363 . S
C111 N113 1.375 . S
C111 H129 0.931 . S
C112 N109 1.311 . S
C112 N113 1.347 . S
C112 H123 0.929 . S
N113 C111 1.375 . S
N113 C112 1.347 . S
C114 C117 1.365 . S
C114 N119 1.328 . S
C114 H120 0.929 . S
C115 C116 1.362 . S
C115 C118 1.378 . S
C115 H130 0.929 . S
C116 C115 1.362 . S
C116 C117 1.366 . S
C117 C114 1.365 . S
C117 C116 1.366 . S
C117 H131 0.930 . S
C118 C115 1.378 . S
C118 N119 1.315 . S
C118 H121 0.930 . S
N119 Co99 2.194 . S
N119 C114 1.328 . S
N119 C118 1.315 . S
H120 C114 0.929 . S
H121 C118 0.930 . S
H122 C110 0.929 . S
H123 C112 0.929 . S
O124 Co99 2.351 . S
O124 C127 1.244 . S
O125 Co99 2.155 . S
O125 C127 1.240 . S
O126 Co99 2.096 . S
O126 C107 1.247 . S
C127 O124 1.244 . S
C127 O125 1.240 . S
H128 C102 0.931 . S
H129 C111 0.931 . S
H130 C115 0.929 . S
H131 C117 0.930 . S
Co132 N136 2.148 . S
Co132 N142 2.128 . S
Co132 N152 2.194 . S
Co132 O157 2.351 . S
Co132 O158 2.155 . S
Co132 O159 2.096 . S
C133 N136 1.301 1_554 S
C133 N137 1.328 . S
C133 H138 0.930 . S
C134 C135 1.333 . S
C134 N136 1.317 1_554 S
C134 H139 0.930 1_554 S
C135 C134 1.333 . S
C135 N137 1.350 . S
C135 H161 0.931 . S
N136 Co132 2.148 . S
N136 C133 1.301 1_556 S
N136 C134 1.317 1_556 S
N137 C133 1.328 . S
N137 C135 1.350 . S
H138 C133 0.930 . S
H139 C134 0.930 1_556 S
C140 O141 1.224 . S
C140 O159 1.247 . S
O141 C140 1.224 . S
N142 Co132 2.128 . S
N142 C143 1.355 . S
N142 C145 1.311 . S
C143 N142 1.355 . S
C143 C144 1.363 . S
C143 H155 0.929 . S
C144 C143 1.363 . S
C144 N146 1.375 . S
C144 H162 0.931 . S
C145 N142 1.311 . S
C145 N146 1.347 . S
C145 H156 0.929 . S
N146 C144 1.375 . S
N146 C145 1.347 . S
C147 C150 1.365 . S
C147 N152 1.328 . S
C147 H153 0.929 . S
C148 C149 1.362 . S
C148 C151 1.378 . S
C148 H163 0.929 . S
C149 C148 1.362 . S
C149 C150 1.366 . S
C150 C147 1.365 . S
C150 C149 1.366 . S
C150 H164 0.930 . S
C151 C148 1.378 . S
C151 N152 1.315 . S
C151 H154 0.930 . S
N152 Co132 2.194 . S
N152 C147 1.328 . S
N152 C151 1.315 . S
H153 C147 0.929 . S
H154 C151 0.930 . S
H155 C143 0.929 . S
H156 C145 0.929 . S
O157 Co132 2.351 . S
O157 C160 1.244 . S
O158 Co132 2.155 . S
O158 C160 1.240 . S
O159 Co132 2.096 . S
O159 C140 1.247 . S
C160 O157 1.244 . S
C160 O158 1.240 . S
H161 C135 0.931 . S
H162 C144 0.931 . S
H163 C148 0.929 . S
H164 C150 0.930 . S
Co165 N169 2.148 . S
Co165 N175 2.128 . S
Co165 N185 2.194 . S
Co165 O190 2.351 . S
Co165 O191 2.155 . S
Co165 O192 2.096 . S
C166 N169 1.301 1_554 S
C166 N170 1.328 . S
C166 H171 0.930 . S
C167 C168 1.333 . S
C167 N169 1.317 1_554 S
C167 H172 0.930 1_554 S
C168 C167 1.333 . S
C168 N170 1.350 . S
C168 H194 0.931 . S
N169 Co165 2.148 . S
N169 C166 1.301 1_556 S
N169 C167 1.317 1_556 S
N170 C166 1.328 . S
N170 C168 1.350 . S
H171 C166 0.930 . S
H172 C167 0.930 1_556 S
C173 O174 1.224 . S
C173 O192 1.247 . S
O174 C173 1.224 . S
N175 Co165 2.128 . S
N175 C176 1.355 . S
N175 C178 1.311 . S
C176 N175 1.355 . S
C176 C177 1.363 . S
C176 H188 0.929 . S
C177 C176 1.363 . S
C177 N179 1.375 . S
C177 H195 0.931 . S
C178 N175 1.311 . S
C178 N179 1.347 . S
C178 H189 0.929 . S
N179 C177 1.375 . S
N179 C178 1.347 . S
C180 C183 1.365 . S
C180 N185 1.328 . S
C180 H186 0.929 . S
C181 C182 1.362 . S
C181 C184 1.378 . S
C181 H196 0.929 . S
C182 C181 1.362 . S
C182 C183 1.366 . S
C183 C180 1.365 . S
C183 C182 1.366 . S
C183 H197 0.930 . S
C184 C181 1.378 . S
C184 N185 1.315 . S
C184 H187 0.930 . S
N185 Co165 2.194 . S
N185 C180 1.328 . S
N185 C184 1.315 . S
H186 C180 0.929 . S
H187 C184 0.930 . S
H188 C176 0.929 . S
H189 C178 0.929 . S
O190 Co165 2.351 . S
O190 C193 1.244 . S
O191 Co165 2.155 . S
O191 C193 1.240 . S
O192 Co165 2.096 . S
O192 C173 1.247 . S
C193 O190 1.244 . S
C193 O191 1.240 . S
H194 C168 0.931 . S
H195 C177 0.931 . S
H196 C181 0.929 . S
H197 C183 0.930 . S
Co198 N202 2.148 . S
Co198 N208 2.128 . S
Co198 N218 2.194 . S
Co198 O223 2.351 . S
Co198 O224 2.155 . S
Co198 O225 2.096 . S
C199 N202 1.301 . S
C199 N203 1.328 . S
C199 H204 0.930 . S
C200 C201 1.333 . S
C200 N202 1.317 . S
C200 H205 0.930 . S
C201 C200 1.333 . S
C201 N203 1.350 . S
C201 H227 0.931 . S
N202 Co198 2.148 . S
N202 C199 1.301 . S
N202 C200 1.317 . S
N203 C199 1.328 . S
N203 C201 1.350 . S
H204 C199 0.930 . S
H205 C200 0.930 . S
C206 O207 1.224 . S
C206 O225 1.247 . S
O207 C206 1.224 . S
N208 Co198 2.128 . S
N208 C209 1.355 . S
N208 C211 1.311 . S
C209 N208 1.355 . S
C209 C210 1.363 . S
C209 H221 0.929 . S
C210 C209 1.363 . S
C210 N212 1.375 . S
C210 H228 0.931 . S
C211 N208 1.311 . S
C211 N212 1.347 . S
C211 H222 0.929 . S
N212 C210 1.375 . S
N212 C211 1.347 . S
C213 C216 1.365 . S
C213 N218 1.328 . S
C213 H219 0.929 . S
C214 C215 1.362 . S
C214 C217 1.378 . S
C214 H229 0.929 . S
C215 C214 1.362 . S
C215 C216 1.366 . S
C216 C213 1.365 . S
C216 C215 1.366 . S
C216 H230 0.930 . S
C217 C214 1.378 . S
C217 N218 1.315 . S
C217 H220 0.930 . S
N218 Co198 2.194 . S
N218 C213 1.328 . S
N218 C217 1.315 . S
H219 C213 0.929 . S
H220 C217 0.930 . S
H221 C209 0.929 . S
H222 C211 0.929 . S
O223 Co198 2.351 . S
O223 C226 1.244 . S
O224 Co198 2.155 . S
O224 C226 1.240 . S
O225 Co198 2.096 . S
O225 C206 1.247 . S
C226 O223 1.244 . S
C226 O224 1.240 . S
H227 C201 0.931 . S
H228 C210 0.931 . S
H229 C214 0.929 . S
H230 C216 0.930 . S
Co231 N235 2.148 . S
Co231 N241 2.128 . S
Co231 N251 2.194 . S
Co231 O256 2.351 . S
Co231 O257 2.155 . S
Co231 O258 2.096 . S
C232 N235 1.301 . S
C232 N236 1.328 . S
C232 H237 0.930 . S
C233 C234 1.333 . S
C233 N235 1.317 . S
C233 H238 0.930 . S
C234 C233 1.333 . S
C234 N236 1.350 . S
C234 H260 0.931 . S
N235 Co231 2.148 . S
N235 C232 1.301 . S
N235 C233 1.317 . S
N236 C232 1.328 . S
N236 C234 1.350 . S
H237 C232 0.930 . S
H238 C233 0.930 . S
C239 O240 1.224 . S
C239 O258 1.247 . S
O240 C239 1.224 . S
N241 Co231 2.128 . S
N241 C242 1.355 . S
N241 C244 1.311 . S
C242 N241 1.355 . S
C242 C243 1.363 . S
C242 H254 0.929 . S
C243 C242 1.363 . S
C243 N245 1.375 . S
C243 H261 0.931 . S
C244 N241 1.311 . S
C244 N245 1.347 . S
C244 H255 0.929 . S
N245 C243 1.375 . S
N245 C244 1.347 . S
C246 C249 1.365 . S
C246 N251 1.328 . S
C246 H252 0.929 . S
C247 C248 1.362 . S
C247 C250 1.378 . S
C247 H262 0.929 . S
C248 C247 1.362 . S
C248 C249 1.366 . S
C249 C246 1.365 . S
C249 C248 1.366 . S
C249 H263 0.930 . S
C250 C247 1.378 . S
C250 N251 1.315 . S
C250 H253 0.930 . S
N251 Co231 2.194 . S
N251 C246 1.328 . S
N251 C250 1.315 . S
H252 C246 0.929 . S
H253 C250 0.930 . S
H254 C242 0.929 . S
H255 C244 0.929 . S
O256 Co231 2.351 . S
O256 C259 1.244 . S
O257 Co231 2.155 . S
O257 C259 1.240 . S
O258 Co231 2.096 . S
O258 C239 1.247 . S
C259 O256 1.244 . S
C259 O257 1.240 . S
H260 C234 0.931 . S
H261 C243 0.931 . S
H262 C247 0.929 . S
H263 C249 0.930 . S
H264 C272 0.929 . S
H265 C274 0.930 1_545 S
H266 C276 0.930 . S
H267 C279 0.929 . S
H268 C282 0.930 . S
H269 C284 0.960 1_545 S
H270 C284 0.960 1_545 S
H271 C284 0.960 . S
C272 H264 0.929 . S
C272 C273 1.377 . S
C272 C274 1.384 . S
C273 C272 1.377 . S
C273 C279 1.390 . S
C274 H265 0.930 1_565 S
C274 C272 1.384 . S
C274 C275 1.372 . S
C275 C274 1.372 . S
C275 C276 1.400 . S
C275 C280 1.490 . S
C276 H266 0.930 . S
C276 C275 1.400 . S
C276 C279 1.386 . S
H277 C293 0.930 . S
H278 C294 0.931 1_565 S
C279 H267 0.929 . S
C279 C273 1.390 . S
C279 C276 1.386 . S
C280 C275 1.490 . S
C280 C282 1.395 . S
C280 C283 1.403 . S
H281 C287 0.930 . S
C282 H268 0.930 . S
C282 C280 1.395 . S
C282 C285 1.403 1_565 S
C283 C280 1.403 . S
C283 C284 1.524 . S
C283 C287 1.400 1_565 S
C284 H269 0.960 1_565 S
C284 H270 0.960 1_565 S
C284 H271 0.960 . S
C284 C283 1.524 . S
C285 C282 1.403 1_545 S
C285 C286 1.392 . S
C285 C289 1.495 1_554 S
C286 C285 1.392 . S
C286 C287 1.385 . S
C286 C288 1.478 . S
C287 H281 0.930 . S
C287 C283 1.400 1_545 S
C287 C286 1.385 . S
C288 C286 1.478 . S
C288 C290 1.381 . S
C288 C294 1.383 . S
C289 C285 1.495 1_556 S
C289 H295 0.959 . S
C289 H296 0.961 1_545 S
C289 H297 0.960 . S
C290 C288 1.381 . S
C290 C291 1.394 . S
C290 H298 0.930 . S
C291 C290 1.394 . S
C291 C292 1.383 . S
C291 H299 0.929 . S
C292 C291 1.383 . S
C292 C293 1.377 . S
C293 H277 0.930 . S
C293 C292 1.377 . S
C293 C294 1.379 . S
C294 H278 0.931 1_545 S
C294 C288 1.383 . S
C294 C293 1.379 . S
H295 C289 0.959 . S
H296 C289 0.961 1_565 S
H297 C289 0.960 . S
H298 C290 0.930 . S
H299 C291 0.929 . S
H300 C308 0.929 . S
H301 C310 0.930 . S
H302 C312 0.930 . S
H303 C315 0.929 . S
H304 C318 0.930 . S
H305 C320 0.960 . S
H306 C320 0.960 . S
H307 C320 0.960 . S
C308 H300 0.929 . S
C308 C309 1.377 . S
C308 C310 1.384 . S
C309 C308 1.377 . S
C309 C315 1.390 . S
C310 H301 0.930 . S
C310 C308 1.384 . S
C310 C311 1.372 . S
C311 C310 1.372 . S
C311 C312 1.400 . S
C311 C316 1.490 . S
C312 H302 0.930 . S
C312 C311 1.400 . S
C312 C315 1.386 . S
H313 C329 0.930 . S
H314 C330 0.931 . S
C315 H303 0.929 . S
C315 C309 1.390 . S
C315 C312 1.386 . S
C316 C311 1.490 . S
C316 C318 1.395 . S
C316 C319 1.403 . S
H317 C323 0.930 . S
C318 H304 0.930 . S
C318 C316 1.395 . S
C318 C321 1.403 . S
C319 C316 1.403 . S
C319 C320 1.524 . S
C319 C323 1.400 . S
C320 H305 0.960 . S
C320 H306 0.960 . S
C320 H307 0.960 . S
C320 C319 1.524 . S
C321 C318 1.403 . S
C321 C322 1.392 . S
C321 C325 1.495 . S
C322 C321 1.392 . S
C322 C323 1.385 . S
C322 C324 1.478 . S
C323 H317 0.930 . S
C323 C319 1.400 . S
C323 C322 1.385 . S
C324 C322 1.478 . S
C324 C326 1.381 . S
C324 C330 1.383 . S
C325 C321 1.495 . S
C325 H331 0.959 . S
C325 H332 0.961 . S
C325 H333 0.960 . S
C326 C324 1.381 . S
C326 C327 1.394 . S
C326 H334 0.930 . S
C327 C326 1.394 . S
C327 C328 1.383 . S
C327 H335 0.929 . S
C328 C327 1.383 . S
C328 C329 1.377 . S
C329 H313 0.930 . S
C329 C328 1.377 . S
C329 C330 1.379 . S
C330 H314 0.931 . S
C330 C324 1.383 . S
C330 C329 1.379 . S
H331 C325 0.959 . S
H332 C325 0.961 . S
H333 C325 0.960 . S
H334 C326 0.930 . S
H335 C327 0.929 . S
H336 C344 0.929 . S
H337 C346 0.930 . S
H338 C348 0.930 . S
H339 C351 0.929 . S
H340 C354 0.930 . S
H341 C356 0.960 . S
H342 C356 0.960 . S
H343 C356 0.960 . S
C344 H336 0.929 . S
C344 C345 1.377 . S
C344 C346 1.384 . S
C345 C344 1.377 . S
C345 C351 1.390 . S
C346 H337 0.930 . S
C346 C344 1.384 . S
C346 C347 1.372 . S
C347 C346 1.372 . S
C347 C348 1.400 . S
C347 C352 1.490 . S
C348 H338 0.930 . S
C348 C347 1.400 . S
C348 C351 1.386 . S
H349 C365 0.930 . S
H350 C366 0.931 . S
C351 H339 0.929 . S
C351 C345 1.390 . S
C351 C348 1.386 . S
C352 C347 1.490 . S
C352 C354 1.395 1_545 S
C352 C355 1.403 . S
H353 C359 0.930 . S
C354 H340 0.930 . S
C354 C352 1.395 1_565 S
C354 C357 1.403 . S
C355 C352 1.403 . S
C355 C356 1.524 . S
C355 C359 1.400 . S
C356 H341 0.960 . S
C356 H342 0.960 . S
C356 H343 0.960 . S
C356 C355 1.524 . S
C357 C354 1.403 . S
C357 C358 1.392 . S
C357 C361 1.495 . S
C358 C357 1.392 . S
C358 C359 1.385 1_565 S
C358 C360 1.478 . S
C359 H353 0.930 . S
C359 C355 1.400 . S
C359 C358 1.385 1_545 S
C360 C358 1.478 . S
C360 C362 1.381 . S
C360 C366 1.383 . S
C361 C357 1.495 . S
C361 H367 0.959 . S
C361 H368 0.961 . S
C361 H369 0.960 . S
C362 C360 1.381 . S
C362 C363 1.394 . S
C362 H370 0.930 . S
C363 C362 1.394 . S
C363 C364 1.383 . S
C363 H371 0.929 . S
C364 C363 1.383 . S
C364 C365 1.377 . S
C365 H349 0.930 . S
C365 C364 1.377 . S
C365 C366 1.379 . S
C366 H350 0.931 . S
C366 C360 1.383 . S
C366 C365 1.379 . S
H367 C361 0.959 . S
H368 C361 0.961 . S
H369 C361 0.960 . S
H370 C362 0.930 . S
H371 C363 0.929 . S
H372 C380 0.929 . S
H373 C382 0.930 . S
H374 C384 0.930 . S
H375 C387 0.929 . S
H376 C390 0.930 . S
H377 C392 0.960 . S
H378 C392 0.960 . S
H379 C392 0.960 . S
C380 H372 0.929 . S
C380 C381 1.377 . S
C380 C382 1.384 . S
C381 C380 1.377 . S
C381 C387 1.390 . S
C382 H373 0.930 . S
C382 C380 1.384 . S
C382 C383 1.372 . S
C383 C382 1.372 . S
C383 C384 1.400 . S
C383 C388 1.490 . S
C384 H374 0.930 . S
C384 C383 1.400 . S
C384 C387 1.386 . S
H385 C401 0.930 . S
H386 C402 0.931 . S
C387 H375 0.929 . S
C387 C381 1.390 . S
C387 C384 1.386 . S
C388 C383 1.490 . S
C388 C390 1.395 . S
C388 C391 1.403 . S
H389 C395 0.930 . S
C390 H376 0.930 . S
C390 C388 1.395 . S
C390 C393 1.403 . S
C391 C388 1.403 . S
C391 C392 1.524 . S
C391 C395 1.400 . S
C392 H377 0.960 . S
C392 H378 0.960 . S
C392 H379 0.960 . S
C392 C391 1.524 . S
C393 C390 1.403 . S
C393 C394 1.392 . S
C393 C397 1.495 . S
C394 C393 1.392 . S
C394 C395 1.385 . S
C394 C396 1.478 . S
C395 H389 0.930 . S
C395 C391 1.400 . S
C395 C394 1.385 . S
C396 C394 1.478 . S
C396 C398 1.381 . S
C396 C402 1.383 . S
C397 C393 1.495 . S
C397 H403 0.959 . S
C397 H404 0.961 . S
C397 H405 0.960 . S
C398 C396 1.381 . S
C398 C399 1.394 . S
C398 H406 0.930 . S
C399 C398 1.394 . S
C399 C400 1.383 . S
C399 H407 0.929 . S
C400 C399 1.383 . S
C400 C401 1.377 . S
C401 H385 0.930 . S
C401 C400 1.377 . S
C401 C402 1.379 . S
C402 H386 0.931 . S
C402 C396 1.383 . S
C402 C401 1.379 . S
H403 C397 0.959 . S
H404 C397 0.961 . S
H405 C397 0.960 . S
H406 C398 0.930 . S
H407 C399 0.929 . S
H408 C416 0.929 . S
H409 C418 0.930 1_554 S
H410 C420 0.930 . S
H411 C423 0.929 . S
H412 C426 0.930 . S
H413 C428 0.960 . S
H414 C428 0.960 . S
H415 C428 0.960 1_565 S
C416 H408 0.929 . S
C416 C417 1.377 . S
C416 C418 1.384 . S
C417 C416 1.377 . S
C417 C423 1.390 . S
C418 H409 0.930 1_556 S
C418 C416 1.384 . S
C418 C419 1.372 . S
C419 C418 1.372 . S
C419 C420 1.400 . S
C419 C424 1.490 . S
C420 H410 0.930 . S
C420 C419 1.400 . S
C420 C423 1.386 . S
H421 C437 0.930 . S
H422 C438 0.931 1_556 S
C423 H411 0.929 . S
C423 C417 1.390 . S
C423 C420 1.386 . S
C424 C419 1.490 . S
C424 C426 1.395 1_556 S
C424 C427 1.403 1_565 S
H425 C431 0.930 . S
C426 H412 0.930 . S
C426 C424 1.395 1_554 S
C426 C429 1.403 1_655 S
C427 C424 1.403 1_545 S
C427 C428 1.524 . S
C427 C431 1.400 1_655 S
C428 H413 0.960 . S
C428 H414 0.960 . S
C428 H415 0.960 1_545 S
C428 C427 1.524 . S
C429 C426 1.403 1_455 S
C429 C430 1.392 1_565 S
C429 C433 1.495 . S
C430 C429 1.392 1_545 S
C430 C431 1.385 1_554 S
C430 C432 1.478 . S
C431 H425 0.930 . S
C431 C427 1.400 1_455 S
C431 C430 1.385 1_556 S
C432 C430 1.478 . S
C432 C434 1.381 . S
C432 C438 1.383 . S
C433 C429 1.495 . S
C433 H439 0.959 . S
C433 H440 0.961 . S
C433 H441 0.960 1_565 S
C434 C432 1.381 . S
C434 C435 1.394 . S
C434 H442 0.930 . S
C435 C434 1.394 . S
C435 C436 1.383 . S
C435 H443 0.929 . S
C436 C435 1.383 . S
C436 C437 1.377 . S
C437 H421 0.930 . S
C437 C436 1.377 . S
C437 C438 1.379 . S
C438 H422 0.931 1_554 S
C438 C432 1.383 . S
C438 C437 1.379 . S
H439 C433 0.959 . S
H440 C433 0.961 . S
H441 C433 0.960 1_545 S
H442 C434 0.930 . S
H443 C435 0.929 . S
H444 C452 0.929 1_556 S
H445 C454 0.930 . S
H446 C456 0.930 . S
H447 C459 0.929 . S
H448 C462 0.930 . S
H449 C464 0.960 . S
H450 C464 0.960 . S
H451 C464 0.960 . S
C452 H444 0.929 1_554 S
C452 C453 1.377 . S
C452 C454 1.384 1_554 S
C453 C452 1.377 . S
C453 C459 1.390 . S
C454 H445 0.930 . S
C454 C452 1.384 1_556 S
C454 C455 1.372 1_556 S
C455 C454 1.372 1_554 S
C455 C456 1.400 . S
C455 C460 1.490 . S
C456 H446 0.930 . S
C456 C455 1.400 . S
C456 C459 1.386 . S
H457 C473 0.930 1_554 S
H458 C474 0.931 . S
C459 H447 0.929 . S
C459 C453 1.390 . S
C459 C456 1.386 . S
C460 C455 1.490 . S
C460 C462 1.395 1_564 S
C460 C463 1.403 . S
H461 C467 0.930 . S
C462 H448 0.930 . S
C462 C460 1.395 1_546 S
C462 C465 1.403 . S
C463 C460 1.403 . S
C463 C464 1.524 . S
C463 C467 1.400 . S
C464 H449 0.960 . S
C464 H450 0.960 . S
C464 H451 0.960 . S
C464 C463 1.524 . S
C465 C462 1.403 . S
C465 C466 1.392 . S
C465 C469 1.495 . S
C466 C465 1.392 . S
C466 C467 1.385 1_546 S
C466 C468 1.478 . S
C467 H461 0.930 . S
C467 C463 1.400 . S
C467 C466 1.385 1_564 S
C468 C466 1.478 . S
C468 C470 1.381 . S
C468 C474 1.383 1_556 S
C469 C465 1.495 . S
C469 H475 0.959 . S
C469 H476 0.961 . S
C469 H477 0.960 . S
C470 C468 1.381 . S
C470 C471 1.394 . S
C470 H478 0.930 . S
C471 C470 1.394 . S
C471 C472 1.383 . S
C471 H479 0.929 . S
C472 C471 1.383 . S
C472 C473 1.377 . S
C473 H457 0.930 1_556 S
C473 C472 1.377 . S
C473 C474 1.379 1_556 S
C474 H458 0.931 . S
C474 C468 1.383 1_554 S
C474 C473 1.379 1_554 S
H475 C469 0.959 . S
H476 C469 0.961 . S
H477 C469 0.960 . S
H478 C470 0.930 . S
H479 C471 0.929 . S
H480 C488 0.929 . S
H481 C490 0.930 . S
H482 C492 0.930 . S
H483 C495 0.929 . S
H484 C498 0.928 1_455 S
H485 C500 0.960 . S
H486 C500 0.960 . S
H487 C500 0.960 . S
C488 H480 0.929 . S
C488 C489 1.377 . S
C488 C490 1.384 . S
C489 C488 1.377 . S
C489 C495 1.390 . S
C490 H481 0.930 . S
C490 C488 1.384 . S
C490 C491 1.372 . S
C491 C490 1.372 . S
C491 C492 1.400 . S
C491 C496 1.490 . S
C492 H482 0.930 . S
C492 C491 1.400 . S
C492 C495 1.386 . S
H493 C509 0.930 . S
H494 C510 0.931 . S
C495 H483 0.929 . S
C495 C489 1.390 . S
C495 C492 1.386 . S
C496 C491 1.490 . S
C496 C498 1.396 1_455 S
C496 C499 1.403 . S
H497 C503 0.930 . S
C498 H484 0.928 1_655 S
C498 C496 1.396 1_655 S
C498 C501 1.402 . S
C499 C496 1.403 . S
C499 C500 1.524 . S
C499 C503 1.400 1_455 S
C500 H485 0.960 . S
C500 H486 0.960 . S
C500 H487 0.960 . S
C500 C499 1.524 . S
C501 C498 1.402 . S
C501 C502 1.392 . S
C501 C505 1.495 . S
C502 C501 1.392 . S
C502 C503 1.385 . S
C502 C504 1.478 . S
C503 H497 0.930 . S
C503 C499 1.400 1_655 S
C503 C502 1.385 . S
C504 C502 1.478 . S
C504 C506 1.381 . S
C504 C510 1.383 . S
C505 C501 1.495 . S
C505 H511 0.959 . S
C505 H512 0.961 . S
C505 H513 0.960 . S
C506 C504 1.381 . S
C506 C507 1.394 . S
C506 H514 0.930 . S
C507 C506 1.394 . S
C507 C508 1.383 . S
C507 H515 0.929 . S
C508 C507 1.383 . S
C508 C509 1.377 . S
C509 H493 0.930 . S
C509 C508 1.377 . S
C509 C510 1.379 . S
C510 H494 0.931 . S
C510 C504 1.383 . S
C510 C509 1.379 . S
H511 C505 0.959 . S
H512 C505 0.961 . S
H513 C505 0.960 . S
H514 C506 0.930 . S
H515 C507 0.929 . S
H516 C524 0.929 . S
H517 C526 0.930 . S
H518 C528 0.930 . S
H519 C531 0.929 . S
H520 C534 0.930 . S
H521 C536 0.960 . S
H522 C536 0.960 . S
H523 C536 0.960 . S
C524 H516 0.929 . S
C524 C525 1.377 . S
C524 C526 1.384 . S
C525 C524 1.377 . S
C525 C531 1.390 . S
C526 H517 0.930 . S
C526 C524 1.384 . S
C526 C527 1.372 . S
C527 C526 1.372 . S
C527 C528 1.400 . S
C527 C532 1.490 . S
C528 H518 0.930 . S
C528 C527 1.400 . S
C528 C531 1.386 . S
H529 C545 0.930 . S
H530 C546 0.931 . S
C531 H519 0.929 . S
C531 C525 1.390 . S
C531 C528 1.386 . S
C532 C527 1.490 . S
C532 C534 1.395 . S
C532 C535 1.403 . S
H533 C539 0.930 . S
C534 H520 0.930 . S
C534 C532 1.395 . S
C534 C537 1.403 . S
C535 C532 1.403 . S
C535 C536 1.524 . S
C535 C539 1.400 . S
C536 H521 0.960 . S
C536 H522 0.960 . S
C536 H523 0.960 . S
C536 C535 1.524 . S
C537 C534 1.403 . S
C537 C538 1.392 . S
C537 C541 1.495 . S
C538 C537 1.392 . S
C538 C539 1.385 . S
C538 C540 1.478 . S
C539 H533 0.930 . S
C539 C535 1.400 . S
C539 C538 1.385 . S
C540 C538 1.478 . S
C540 C542 1.381 . S
C540 C546 1.383 . S
C541 C537 1.495 . S
C541 H547 0.959 . S
C541 H548 0.961 . S
C541 H549 0.960 . S
C542 C540 1.381 . S
C542 C543 1.394 . S
C542 H550 0.930 . S
C543 C542 1.394 . S
C543 C544 1.383 . S
C543 H551 0.929 . S
C544 C543 1.383 . S
C544 C545 1.377 . S
C545 H529 0.930 . S
C545 C544 1.377 . S
C545 C546 1.379 . S
C546 H530 0.931 . S
C546 C540 1.383 . S
C546 C545 1.379 . S
H547 C541 0.959 . S
H548 C541 0.961 . S
H549 C541 0.960 . S
H550 C542 0.930 . S
H551 C543 0.929 . S
H552 C560 0.929 . S
H553 C562 0.930 . S
H554 C564 0.930 . S
H555 C567 0.929 . S
H556 C570 0.930 . S
H557 C572 0.960 . S
H558 C572 0.960 . S
H559 C572 0.960 . S
C560 H552 0.929 . S
C560 C561 1.377 . S
C560 C562 1.384 . S
C561 C560 1.377 . S
C561 C567 1.390 . S
C562 H553 0.930 . S
C562 C560 1.384 . S
C562 C563 1.372 . S
C563 C562 1.372 . S
C563 C564 1.400 . S
C563 C568 1.490 . S
C564 H554 0.930 . S
C564 C563 1.400 . S
C564 C567 1.386 . S
H565 C581 0.930 . S
H566 C582 0.931 . S
C567 H555 0.929 . S
C567 C561 1.390 . S
C567 C564 1.386 . S
C568 C563 1.490 . S
C568 C570 1.395 . S
C568 C571 1.403 . S
H569 C575 0.930 . S
C570 H556 0.930 . S
C570 C568 1.395 . S
C570 C573 1.403 . S
C571 C568 1.403 . S
C571 C572 1.524 . S
C571 C575 1.400 . S
C572 H557 0.960 . S
C572 H558 0.960 . S
C572 H559 0.960 . S
C572 C571 1.524 . S
C573 C570 1.403 . S
C573 C574 1.392 . S
C573 C577 1.495 . S
C574 C573 1.392 . S
C574 C575 1.385 . S
C574 C576 1.478 . S
C575 H569 0.930 . S
C575 C571 1.400 . S
C575 C574 1.385 . S
C576 C574 1.478 . S
C576 C578 1.381 . S
C576 C582 1.383 . S
C577 C573 1.495 . S
C577 H583 0.959 . S
C577 H584 0.961 . S
C577 H585 0.960 . S
C578 C576 1.381 . S
C578 C579 1.394 . S
C578 H586 0.930 . S
C579 C578 1.394 . S
C579 C580 1.383 . S
C579 H587 0.929 . S
C580 C579 1.383 . S
C580 C581 1.377 . S
C581 H565 0.930 . S
C581 C580 1.377 . S
C581 C582 1.379 . S
C582 H566 0.931 . S
C582 C576 1.383 . S
C582 C581 1.379 . S
H583 C577 0.959 . S
H584 C577 0.961 . S
H585 C577 0.960 . S
H586 C578 0.930 . S
H587 C579 0.929 . S
H588 C596 0.929 . S
H589 C598 0.930 . S
H590 C600 0.930 . S
H591 C603 0.929 . S
H592 C606 0.930 . S
H593 C608 0.960 . S
H594 C608 0.960 . S
H595 C608 0.960 . S
C596 H588 0.929 . S
C596 C597 1.377 . S
C596 C598 1.384 . S
C597 C596 1.377 . S
C597 C603 1.390 . S
C598 H589 0.930 . S
C598 C596 1.384 . S
C598 C599 1.372 . S
C599 C598 1.372 . S
C599 C600 1.400 . S
C599 C604 1.490 . S
C600 H590 0.930 . S
C600 C599 1.400 . S
C600 C603 1.386 . S
H601 C617 0.930 . S
H602 C618 0.931 . S
C603 H591 0.929 . S
C603 C597 1.390 . S
C603 C600 1.386 . S
C604 C599 1.490 . S
C604 C606 1.395 . S
C604 C607 1.403 . S
H605 C611 0.930 . S
C606 H592 0.930 . S
C606 C604 1.395 . S
C606 C609 1.403 . S
C607 C604 1.403 . S
C607 C608 1.524 . S
C607 C611 1.400 . S
C608 H593 0.960 . S
C608 H594 0.960 . S
C608 H595 0.960 . S
C608 C607 1.524 . S
C609 C606 1.403 . S
C609 C610 1.392 . S
C609 C613 1.495 . S
C610 C609 1.392 . S
C610 C611 1.385 . S
C610 C612 1.478 . S
C611 H605 0.930 . S
C611 C607 1.400 . S
C611 C610 1.385 . S
C612 C610 1.478 . S
C612 C614 1.381 . S
C612 C618 1.383 . S
C613 C609 1.495 . S
C613 H619 0.959 . S
C613 H620 0.961 . S
C613 H621 0.960 . S
C614 C612 1.381 . S
C614 C615 1.394 . S
C614 H622 0.930 . S
C615 C614 1.394 . S
C615 C616 1.383 . S
C615 H623 0.929 . S
C616 C615 1.383 . S
C616 C617 1.377 . S
C617 H601 0.930 . S
C617 C616 1.377 . S
C617 C618 1.379 . S
C618 H602 0.931 . S
C618 C612 1.383 . S
C618 C617 1.379 . S
H619 C613 0.959 . S
H620 C613 0.961 . S
H621 C613 0.960 . S
H622 C614 0.930 . S
H623 C615 0.929 . S
H624 C632 0.929 . S
H625 C634 0.930 . S
H626 C636 0.930 . S
H627 C639 0.929 . S
H628 C642 0.930 . S
H629 C644 0.960 . S
H630 C644 0.960 . S
H631 C644 0.960 . S
C632 H624 0.929 . S
C632 C633 1.377 . S
C632 C634 1.384 . S
C633 C632 1.377 . S
C633 C639 1.390 . S
C634 H625 0.930 . S
C634 C632 1.384 . S
C634 C635 1.372 . S
C635 C634 1.372 . S
C635 C636 1.400 . S
C635 C640 1.490 . S
C636 H626 0.930 . S
C636 C635 1.400 . S
C636 C639 1.386 . S
H637 C653 0.930 . S
H638 C654 0.931 . S
C639 H627 0.929 . S
C639 C633 1.390 . S
C639 C636 1.386 . S
C640 C635 1.490 . S
C640 C642 1.395 . S
C640 C643 1.403 . S
H641 C647 0.930 . S
C642 H628 0.930 . S
C642 C640 1.395 . S
C642 C645 1.403 . S
C643 C640 1.403 . S
C643 C644 1.524 . S
C643 C647 1.400 . S
C644 H629 0.960 . S
C644 H630 0.960 . S
C644 H631 0.960 . S
C644 C643 1.524 . S
C645 C642 1.403 . S
C645 C646 1.392 . S
C645 C649 1.495 . S
C646 C645 1.392 . S
C646 C647 1.385 . S
C646 C648 1.478 1_556 S
C647 H641 0.930 . S
C647 C643 1.400 . S
C647 C646 1.385 . S
C648 C646 1.478 1_554 S
C648 C650 1.381 . S
C648 C654 1.383 . S
C649 C645 1.495 . S
C649 H655 0.959 . S
C649 H656 0.961 . S
C649 H657 0.960 . S
C650 C648 1.381 . S
C650 C651 1.394 . S
C650 H658 0.930 . S
C651 C650 1.394 . S
C651 C652 1.383 . S
C651 H659 0.929 . S
C652 C651 1.383 . S
C652 C653 1.377 . S
C653 H637 0.930 . S
C653 C652 1.377 . S
C653 C654 1.379 . S
C654 H638 0.931 . S
C654 C648 1.383 . S
C654 C653 1.379 . S
H655 C649 0.959 . S
H656 C649 0.961 . S
H657 C649 0.960 . S
H658 C650 0.930 . S
H659 C651 0.929 . S
H660 C668 0.929 . S
H661 C670 0.930 . S
H662 C672 0.930 . S
H663 C675 0.929 . S
H664 C678 0.930 . S
H665 C680 0.960 . S
H666 C680 0.960 . S
H667 C680 0.960 . S
C668 H660 0.929 . S
C668 C669 1.377 . S
C668 C670 1.384 . S
C669 C668 1.377 . S
C669 C675 1.390 . S
C670 H661 0.930 . S
C670 C668 1.384 . S
C670 C671 1.372 . S
C671 C670 1.372 . S
C671 C672 1.400 . S
C671 C676 1.490 1_554 S
C672 H662 0.930 . S
C672 C671 1.400 . S
C672 C675 1.386 . S
H673 C689 0.930 . S
H674 C690 0.931 . S
C675 H663 0.929 . S
C675 C669 1.390 . S
C675 C672 1.386 . S
C676 C671 1.490 1_556 S
C676 C678 1.395 . S
C676 C679 1.403 . S
H677 C683 0.930 . S
C678 H664 0.930 . S
C678 C676 1.395 . S
C678 C681 1.403 . S
C679 C676 1.403 . S
C679 C680 1.524 . S
C679 C683 1.400 . S
C680 H665 0.960 . S
C680 H666 0.960 . S
C680 H667 0.960 . S
C680 C679 1.524 . S
C681 C678 1.403 . S
C681 C682 1.392 . S
C681 C685 1.495 . S
C682 C681 1.392 . S
C682 C683 1.385 . S
C682 C684 1.478 . S
C683 H677 0.930 . S
C683 C679 1.400 . S
C683 C682 1.385 . S
C684 C682 1.478 . S
C684 C686 1.381 . S
C684 C690 1.383 . S
C685 C681 1.495 . S
C685 H691 0.959 . S
C685 H692 0.961 . S
C685 H693 0.960 . S
C686 C684 1.381 . S
C686 C687 1.394 . S
C686 H694 0.930 . S
C687 C686 1.394 . S
C687 C688 1.383 . S
C687 H695 0.929 . S
C688 C687 1.383 . S
C688 C689 1.377 . S
C689 H673 0.930 . S
C689 C688 1.377 . S
C689 C690 1.379 . S
C690 H674 0.931 . S
C690 C684 1.383 . S
C690 C689 1.379 . S
H691 C685 0.959 . S
H692 C685 0.961 . S
H693 C685 0.960 . S
H694 C686 0.930 . S
H695 C687 0.929 . S
H696 C704 0.929 . S
H697 C706 0.930 . S
H698 C708 0.930 . S
H699 C711 0.929 . S
H700 C714 0.930 . S
H701 C716 0.960 . S
H702 C716 0.960 . S
H703 C716 0.960 . S
C704 H696 0.929 . S
C704 C705 1.377 . S
C704 C706 1.384 . S
C705 C704 1.377 . S
C705 C711 1.390 . S
C706 H697 0.930 . S
C706 C704 1.384 . S
C706 C707 1.372 . S
C707 C706 1.372 . S
C707 C708 1.400 . S
C707 C712 1.490 . S
C708 H698 0.930 . S
C708 C707 1.400 . S
C708 C711 1.386 . S
H709 C725 0.930 . S
H710 C726 0.931 . S
C711 H699 0.929 . S
C711 C705 1.390 . S
C711 C708 1.386 . S
C712 C707 1.490 . S
C712 C714 1.395 . S
C712 C715 1.403 . S
H713 C719 0.930 . S
C714 H700 0.930 . S
C714 C712 1.395 . S
C714 C717 1.403 . S
C715 C712 1.403 . S
C715 C716 1.524 . S
C715 C719 1.400 . S
C716 H701 0.960 . S
C716 H702 0.960 . S
C716 H703 0.960 . S
C716 C715 1.524 . S
C717 C714 1.403 . S
C717 C718 1.392 . S
C717 C721 1.495 . S
C718 C717 1.392 . S
C718 C719 1.385 . S
C718 C720 1.478 . S
C719 H713 0.930 . S
C719 C715 1.400 . S
C719 C718 1.385 . S
C720 C718 1.478 . S
C720 C722 1.381 . S
C720 C726 1.383 . S
C721 C717 1.495 . S
C721 H727 0.959 . S
C721 H728 0.961 . S
C721 H729 0.960 . S
C722 C720 1.381 . S
C722 C723 1.394 . S
C722 H730 0.930 . S
C723 C722 1.394 . S
C723 C724 1.383 . S
C723 H731 0.929 . S
C724 C723 1.383 . S
C724 C725 1.377 . S
C725 H709 0.930 . S
C725 C724 1.377 . S
C725 C726 1.379 . S
C726 H710 0.931 . S
C726 C720 1.383 . S
C726 C725 1.379 . S
H727 C721 0.959 . S
H728 C721 0.961 . S
H729 C721 0.960 . S
H730 C722 0.930 . S
H731 C723 0.929 . S
H732 C740 0.929 . S
H733 C742 0.930 . S
H734 C744 0.930 . S
H735 C747 0.929 . S
H736 C750 0.930 . S
H737 C752 0.960 . S
H738 C752 0.960 . S
H739 C752 0.960 . S
C740 H732 0.929 . S
C740 C741 1.377 . S
C740 C742 1.384 . S
C741 C740 1.377 . S
C741 C747 1.390 . S
C742 H733 0.930 . S
C742 C740 1.384 . S
C742 C743 1.372 . S
C743 C742 1.372 . S
C743 C744 1.400 . S
C743 C748 1.490 . S
C744 H734 0.930 . S
C744 C743 1.400 . S
C744 C747 1.386 . S
H745 C761 0.930 . S
H746 C762 0.931 . S
C747 H735 0.929 . S
C747 C741 1.390 . S
C747 C744 1.386 . S
C748 C743 1.490 . S
C748 C750 1.395 . S
C748 C751 1.403 . S
H749 C755 0.930 . S
C750 H736 0.930 . S
C750 C748 1.395 . S
C750 C753 1.403 . S
C751 C748 1.403 . S
C751 C752 1.524 . S
C751 C755 1.400 . S
C752 H737 0.960 . S
C752 H738 0.960 . S
C752 H739 0.960 . S
C752 C751 1.524 . S
C753 C750 1.403 . S
C753 C754 1.392 . S
C753 C757 1.495 . S
C754 C753 1.392 . S
C754 C755 1.385 . S
C754 C756 1.478 . S
C755 H749 0.930 . S
C755 C751 1.400 . S
C755 C754 1.385 . S
C756 C754 1.478 . S
C756 C758 1.381 . S
C756 C762 1.383 . S
C757 C753 1.495 . S
C757 H763 0.959 . S
C757 H764 0.961 . S
C757 H765 0.960 . S
C758 C756 1.381 . S
C758 C759 1.394 . S
C758 H766 0.930 . S
C759 C758 1.394 . S
C759 C760 1.383 . S
C759 H767 0.929 . S
C760 C759 1.383 . S
C760 C761 1.377 . S
C761 H745 0.930 . S
C761 C760 1.377 . S
C761 C762 1.379 . S
C762 H746 0.931 . S
C762 C756 1.383 . S
C762 C761 1.379 . S
H763 C757 0.959 . S
H764 C757 0.961 . S
H765 C757 0.960 . S
H766 C758 0.930 . S
H767 C759 0.929 . S
H768 C776 0.929 . S
H769 C778 0.930 . S
H770 C780 0.930 . S
H771 C783 0.929 . S
H772 C786 0.930 . S
H773 C788 0.960 . S
H774 C788 0.960 . S
H775 C788 0.960 . S
C776 H768 0.929 . S
C776 C777 1.377 . S
C776 C778 1.384 . S
C777 C776 1.377 . S
C777 C783 1.390 . S
C778 H769 0.930 . S
C778 C776 1.384 . S
C778 C779 1.372 . S
C779 C778 1.372 . S
C779 C780 1.400 . S
C779 C784 1.490 . S
C780 H770 0.930 . S
C780 C779 1.400 . S
C780 C783 1.386 . S
H781 C797 0.930 . S
H782 C798 0.931 . S
C783 H771 0.929 . S
C783 C777 1.390 . S
C783 C780 1.386 . S
C784 C779 1.490 . S
C784 C786 1.395 . S
C784 C787 1.403 . S
H785 C791 0.930 . S
C786 H772 0.930 . S
C786 C784 1.395 . S
C786 C789 1.403 . S
C787 C784 1.403 . S
C787 C788 1.524 . S
C787 C791 1.400 . S
C788 H773 0.960 . S
C788 H774 0.960 . S
C788 H775 0.960 . S
C788 C787 1.524 . S
C789 C786 1.403 . S
C789 C790 1.392 . S
C789 C793 1.495 . S
C790 C789 1.392 . S
C790 C791 1.385 . S
C790 C792 1.478 1_554 S
C791 H785 0.930 . S
C791 C787 1.400 . S
C791 C790 1.385 . S
C792 C790 1.478 1_556 S
C792 C794 1.381 . S
C792 C798 1.383 . S
C793 C789 1.495 . S
C793 H799 0.959 . S
C793 H800 0.961 . S
C793 H801 0.960 . S
C794 C792 1.381 . S
C794 C795 1.394 . S
C794 H802 0.930 . S
C795 C794 1.394 . S
C795 C796 1.383 . S
C795 H803 0.929 . S
C796 C795 1.383 . S
C796 C797 1.377 . S
C797 H781 0.930 . S
C797 C796 1.377 . S
C797 C798 1.379 . S
C798 H782 0.931 . S
C798 C792 1.383 . S
C798 C797 1.379 . S
H799 C793 0.959 . S
H800 C793 0.961 . S
H801 C793 0.960 . S
H802 C794 0.930 . S
H803 C795 0.929 . S
H804 C812 0.929 . S
H805 C814 0.930 . S
H806 C816 0.930 . S
H807 C819 0.929 . S
H808 C822 0.930 . S
H809 C824 0.960 . S
H810 C824 0.960 . S
H811 C824 0.960 . S
C812 H804 0.929 . S
C812 C813 1.377 . S
C812 C814 1.384 . S
C813 C812 1.377 . S
C813 C819 1.390 . S
C814 H805 0.930 . S
C814 C812 1.384 . S
C814 C815 1.372 . S
C815 C814 1.372 . S
C815 C816 1.400 . S
C815 C820 1.490 . S
C816 H806 0.930 . S
C816 C815 1.400 . S
C816 C819 1.386 . S
H817 C833 0.930 . S
H818 C834 0.931 . S
C819 H807 0.929 . S
C819 C813 1.390 . S
C819 C816 1.386 . S
C820 C815 1.490 . S
C820 C822 1.395 . S
C820 C823 1.403 . S
H821 C827 0.930 . S
C822 H808 0.930 . S
C822 C820 1.395 . S
C822 C825 1.403 . S
C823 C820 1.403 . S
C823 C824 1.524 . S
C823 C827 1.400 . S
C824 H809 0.960 . S
C824 H810 0.960 . S
C824 H811 0.960 . S
C824 C823 1.524 . S
C825 C822 1.403 . S
C825 C826 1.392 . S
C825 C829 1.495 . S
C826 C825 1.392 . S
C826 C827 1.385 . S
C826 C828 1.478 1_554 S
C827 H821 0.930 . S
C827 C823 1.400 . S
C827 C826 1.385 . S
C828 C826 1.478 1_556 S
C828 C830 1.381 . S
C828 C834 1.383 . S
C829 C825 1.495 . S
C829 H835 0.959 . S
C829 H836 0.961 . S
C829 H837 0.960 . S
C830 C828 1.381 . S
C830 C831 1.394 . S
C830 H838 0.930 . S
C831 C830 1.394 . S
C831 C832 1.383 . S
C831 H839 0.929 . S
C832 C831 1.383 . S
C832 C833 1.377 . S
C833 H817 0.930 . S
C833 C832 1.377 . S
C833 C834 1.379 . S
C834 H818 0.931 . S
C834 C828 1.383 . S
C834 C833 1.379 . S
H835 C829 0.959 . S
H836 C829 0.961 . S
H837 C829 0.960 . S
H838 C830 0.930 . S
H839 C831 0.929 . S
H840 C848 0.929 . S
H841 C850 0.930 . S
H842 C852 0.930 . S
H843 C855 0.929 . S
H844 C858 0.930 . S
H845 C860 0.960 . S
H846 C860 0.960 . S
H847 C860 0.960 . S
C848 H840 0.929 . S
C848 C849 1.377 . S
C848 C850 1.384 . S
C849 C848 1.377 . S
C849 C855 1.390 . S
C850 H841 0.930 . S
C850 C848 1.384 . S
C850 C851 1.372 . S
C851 C850 1.372 . S
C851 C852 1.400 . S
C851 C856 1.490 . S
C852 H842 0.930 . S
C852 C851 1.400 . S
C852 C855 1.386 . S
H853 C869 0.930 . S
H854 C870 0.931 . S
C855 H843 0.929 . S
C855 C849 1.390 . S
C855 C852 1.386 . S
C856 C851 1.490 . S
C856 C858 1.395 . S
C856 C859 1.403 . S
H857 C863 0.930 . S
C858 H844 0.930 . S
C858 C856 1.395 . S
C858 C861 1.403 . S
C859 C856 1.403 . S
C859 C860 1.524 . S
C859 C863 1.400 . S
C860 H845 0.960 . S
C860 H846 0.960 . S
C860 H847 0.960 . S
C860 C859 1.524 . S
C861 C858 1.403 . S
C861 C862 1.392 . S
C861 C865 1.495 . S
C862 C861 1.392 . S
C862 C863 1.385 . S
C862 C864 1.478 . S
C863 H857 0.930 . S
C863 C859 1.400 . S
C863 C862 1.385 . S
C864 C862 1.478 . S
C864 C866 1.381 . S
C864 C870 1.383 . S
C865 C861 1.495 . S
C865 H871 0.959 . S
C865 H872 0.961 . S
C865 H873 0.960 . S
C866 C864 1.381 . S
C866 C867 1.394 . S
C866 H874 0.930 . S
C867 C866 1.394 . S
C867 C868 1.383 . S
C867 H875 0.929 . S
C868 C867 1.383 . S
C868 C869 1.377 . S
C869 H853 0.930 . S
C869 C868 1.377 . S
C869 C870 1.379 . S
C870 H854 0.931 . S
C870 C864 1.383 . S
C870 C869 1.379 . S
H871 C865 0.959 . S
H872 C865 0.961 . S
H873 C865 0.960 . S
H874 C866 0.930 . S
H875 C867 0.929 . S
H876 C884 0.929 . S
H877 C886 0.930 . S
H878 C888 0.930 . S
H879 C891 0.929 . S
H880 C894 0.930 . S
H881 C896 0.960 . S
H882 C896 0.960 . S
H883 C896 0.960 . S
C884 H876 0.929 . S
C884 C885 1.377 . S
C884 C886 1.384 . S
C885 C884 1.377 . S
C885 C891 1.390 . S
C886 H877 0.930 . S
C886 C884 1.384 . S
C886 C887 1.372 . S
C887 C886 1.372 . S
C887 C888 1.400 . S
C887 C892 1.490 . S
C888 H878 0.930 . S
C888 C887 1.400 . S
C888 C891 1.386 . S
H889 C905 0.930 . S
H890 C906 0.931 . S
C891 H879 0.929 . S
C891 C885 1.390 . S
C891 C888 1.386 . S
C892 C887 1.490 . S
C892 C894 1.395 . S
C892 C895 1.403 . S
H893 C899 0.930 . S
C894 H880 0.930 . S
C894 C892 1.395 . S
C894 C897 1.403 . S
C895 C892 1.403 . S
C895 C896 1.524 . S
C895 C899 1.400 . S
C896 H881 0.960 . S
C896 H882 0.960 . S
C896 H883 0.960 . S
C896 C895 1.524 . S
C897 C894 1.403 . S
C897 C898 1.392 . S
C897 C901 1.495 . S
C898 C897 1.392 . S
C898 C899 1.385 . S
C898 C900 1.478 . S
C899 H893 0.930 . S
C899 C895 1.400 . S
C899 C898 1.385 . S
C900 C898 1.478 . S
C900 C902 1.381 . S
C900 C906 1.383 . S
C901 C897 1.495 . S
C901 H907 0.959 . S
C901 H908 0.961 . S
C901 H909 0.960 . S
C902 C900 1.381 . S
C902 C903 1.394 . S
C902 H910 0.930 . S
C903 C902 1.394 . S
C903 C904 1.383 . S
C903 H911 0.929 . S
C904 C903 1.383 . S
C904 C905 1.377 . S
C905 H889 0.930 . S
C905 C904 1.377 . S
C905 C906 1.379 . S
C906 H890 0.931 . S
C906 C900 1.383 . S
C906 C905 1.379 . S
H907 C901 0.959 . S
H908 C901 0.961 . S
H909 C901 0.960 . S
H910 C902 0.930 . S
H911 C903 0.929 . S
H912 C920 0.929 . S
H913 C922 0.930 . S
H914 C924 0.930 . S
H915 C927 0.929 . S
H916 C930 0.930 . S
H917 C932 0.960 . S
H918 C932 0.960 . S
H919 C932 0.960 . S
C920 H912 0.929 . S
C920 C921 1.377 . S
C920 C922 1.384 . S
C921 C920 1.377 . S
C921 C927 1.390 . S
C922 H913 0.930 . S
C922 C920 1.384 . S
C922 C923 1.372 . S
C923 C922 1.372 . S
C923 C924 1.400 . S
C923 C928 1.490 . S
C924 H914 0.930 . S
C924 C923 1.400 . S
C924 C927 1.386 . S
H925 C941 0.930 . S
H926 C942 0.931 . S
C927 H915 0.929 . S
C927 C921 1.390 . S
C927 C924 1.386 . S
C928 C923 1.490 . S
C928 C930 1.395 . S
C928 C931 1.403 . S
H929 C935 0.930 . S
C930 H916 0.930 . S
C930 C928 1.395 . S
C930 C933 1.403 . S
C931 C928 1.403 . S
C931 C932 1.524 . S
C931 C935 1.400 . S
C932 H917 0.960 . S
C932 H918 0.960 . S
C932 H919 0.960 . S
C932 C931 1.524 . S
C933 C930 1.403 . S
C933 C934 1.392 . S
C933 C937 1.495 . S
C934 C933 1.392 . S
C934 C935 1.385 . S
C934 C936 1.478 . S
C935 H929 0.930 . S
C935 C931 1.400 . S
C935 C934 1.385 . S
C936 C934 1.478 . S
C936 C938 1.381 . S
C936 C942 1.383 . S
C937 C933 1.495 . S
C937 H943 0.959 . S
C937 H944 0.961 . S
C937 H945 0.960 . S
C938 C936 1.381 . S
C938 C939 1.394 . S
C938 H946 0.930 . S
C939 C938 1.394 . S
C939 C940 1.383 . S
C939 H947 0.929 . S
C940 C939 1.383 . S
C940 C941 1.377 . S
C941 H925 0.930 . S
C941 C940 1.377 . S
C941 C942 1.379 . S
C942 H926 0.931 . S
C942 C936 1.383 . S
C942 C941 1.379 . S
H943 C937 0.959 . S
H944 C937 0.961 . S
H945 C937 0.960 . S
H946 C938 0.930 . S
H947 C939 0.929 . S
H948 C956 0.929 . S
H949 C958 0.930 . S
H950 C960 0.930 . S
H951 C963 0.929 . S
H952 C966 0.930 . S
H953 C968 0.960 . S
H954 C968 0.960 . S
H955 C968 0.960 . S
C956 H948 0.929 . S
C956 C957 1.377 . S
C956 C958 1.384 . S
C957 C956 1.377 . S
C957 C963 1.390 . S
C958 H949 0.930 . S
C958 C956 1.384 . S
C958 C959 1.372 . S
C959 C958 1.372 . S
C959 C960 1.400 . S
C959 C964 1.490 . S
C960 H950 0.930 . S
C960 C959 1.400 . S
C960 C963 1.386 . S
H961 C977 0.930 . S
H962 C978 0.931 . S
C963 H951 0.929 . S
C963 C957 1.390 . S
C963 C960 1.386 . S
C964 C959 1.490 . S
C964 C966 1.395 . S
C964 C967 1.403 . S
H965 C971 0.930 . S
C966 H952 0.930 . S
C966 C964 1.395 . S
C966 C969 1.403 . S
C967 C964 1.403 . S
C967 C968 1.524 . S
C967 C971 1.400 . S
C968 H953 0.960 . S
C968 H954 0.960 . S
C968 H955 0.960 . S
C968 C967 1.524 . S
C969 C966 1.403 . S
C969 C970 1.392 . S
C969 C973 1.495 . S
C970 C969 1.392 . S
C970 C971 1.385 . S
C970 C972 1.478 . S
C971 H965 0.930 . S
C971 C967 1.400 . S
C971 C970 1.385 . S
C972 C970 1.478 . S
C972 C974 1.381 . S
C972 C978 1.383 . S
C973 C969 1.495 . S
C973 H979 0.959 . S
C973 H980 0.961 . S
C973 H981 0.960 . S
C974 C972 1.381 . S
C974 C975 1.394 . S
C974 H982 0.930 . S
C975 C974 1.394 . S
C975 C976 1.383 . S
C975 H983 0.929 . S
C976 C975 1.383 . S
C976 C977 1.377 . S
C977 H961 0.930 . S
C977 C976 1.377 . S
C977 C978 1.379 . S
C978 H962 0.931 . S
C978 C972 1.383 . S
C978 C977 1.379 . S
H979 C973 0.959 . S
H980 C973 0.961 . S
H981 C973 0.960 . S
H982 C974 0.930 . S
H983 C975 0.929 . S
C273 C50 1.511 . S
C292 C17 1.503 . S
C309 C83 1.509 . S
C328 C116 1.511 . S
C345 C182 1.509 . S
C364 C149 1.505 . S
C381 C215 1.509 . S
C400 C248 1.502 . S
C417 C160 1.522 . S
C436 C28 1.519 . S
C453 C61 1.521 . S
C472 C193 1.516 . S
C489 C94 1.522 . S
C508 C226 1.519 . S
C525 C127 1.521 . S
C544 C259 1.517 . S
C561 N5 1.328 . S
C580 N14 1.336 . S
C597 N47 1.324 . S
C616 N38 1.338 . S
C633 N71 1.326 . S
C652 N80 1.304 . S
C669 N113 1.324 . S
C688 N104 1.338 . S
C705 N137 1.327 . S
C724 N146 1.308 . S
C741 N179 1.324 . S
C760 N170 1.337 . S
C777 N203 1.328 . S
C796 N212 1.333 . S
C813 N236 1.327 . S
C832 N245 1.305 . S
C849 C8 1.526 . S
C868 C74 1.529 . S
C885 C41 1.526 . S
C904 C107 1.526 . S
C921 C140 1.525 . S
C940 C206 1.514 . S
C957 C173 1.523 . S
C976 C239 1.521 . S
