# Generated by pormake.
# Topology sml, (6)-cn, num edge types: 1
# Building blocks:
#     Node 0, Type 0, BuildingBlock: BETDIP_clean_sbu_0, # of connection points: 6
#     Node 1, Type 0, BuildingBlock: BETDIP_clean_sbu_0, # of connection points: 6
#     Node 2, Type 0, BuildingBlock: BETDIP_clean_sbu_0, # of connection points: 6
#     Node 3, Type 0, BuildingBlock: BETDIP_clean_sbu_0, # of connection points: 6
#     Node 4, Type 0, BuildingBlock: BETDIP_clean_sbu_0, # of connection points: 6
#     Node 5, Type 0, BuildingBlock: BETDIP_clean_sbu_0, # of connection points: 6
#     Edge 6, Type (0, 0), BuildingBlock: TEMPAE_clean_linker_10, # of connection points: 2
#     Edge 7, Type (0, 0), BuildingBlock: TEMPAE_clean_linker_10, # of connection points: 2
#     Edge 8, Type (0, 0), BuildingBlock: TEMPAE_clean_linker_10, # of connection points: 2
#     Edge 9, Type (0, 0), BuildingBlock: TEMPAE_clean_linker_10, # of connection points: 2
#     Edge 10, Type (0, 0), BuildingBlock: TEMPAE_clean_linker_10, # of connection points: 2
#     Edge 11, Type (0, 0), BuildingBlock: TEMPAE_clean_linker_10, # of connection points: 2
#     Edge 12, Type (0, 0), BuildingBlock: TEMPAE_clean_linker_10, # of connection points: 2
#     Edge 13, Type (0, 0), BuildingBlock: TEMPAE_clean_linker_10, # of connection points: 2
#     Edge 14, Type (0, 0), BuildingBlock: TEMPAE_clean_linker_10, # of connection points: 2
#     Edge 15, Type (0, 0), BuildingBlock: TEMPAE_clean_linker_10, # of connection points: 2
#     Edge 16, Type (0, 0), BuildingBlock: TEMPAE_clean_linker_10, # of connection points: 2
#     Edge 17, Type (0, 0), BuildingBlock: TEMPAE_clean_linker_10, # of connection points: 2
#     Edge 18, Type (0, 0), BuildingBlock: TEMPAE_clean_linker_10, # of connection points: 2
#     Edge 19, Type (0, 0), BuildingBlock: TEMPAE_clean_linker_10, # of connection points: 2
#     Edge 20, Type (0, 0), BuildingBlock: TEMPAE_clean_linker_10, # of connection points: 2
#     Edge 21, Type (0, 0), BuildingBlock: TEMPAE_clean_linker_10, # of connection points: 2
#     Edge 22, Type (0, 0), BuildingBlock: TEMPAE_clean_linker_10, # of connection points: 2
#     Edge 23, Type (0, 0), BuildingBlock: TEMPAE_clean_linker_10, # of connection points: 2
# Relax obj value: 0.253
# Max RMSD: 0.253
# Mean RMSD: 0.253
data_MOF--net-sml--node1-BETDIP_clean_sbu_0--edge1-TEMPAE_clean_linker_10
_symmetry_space_group_name_H-M    P1
_symmetry_Int_Tables_number       1
_symmetry_cell_setting            triclinic
loop_
_symmetry_equiv_pos_as_xyz
'x, y, z'
_cell_length_a     32.727996
_cell_length_b     32.742983
_cell_length_c     25.211461
_cell_angle_alpha  89.959748
_cell_angle_beta   90.028492
_cell_angle_gamma 120.00585
loop_
_atom_site_label
_atom_site_type_symbol
_atom_site_fract_x
_atom_site_fract_y
_atom_site_fract_z
_atom_type_partial_charge
Tb0 Tb 0.17924 0.44054 0.96719 0.0
Tb1 Tb 0.2106 0.4049 0.062 0.0
C2 C 0.1709 0.46958 0.87757 0.0
C3 C 0.17695 0.4616 0.82111 0.0
C4 C 0.21666 0.45995 0.80262 0.0
C5 C 0.2211 0.45267 0.74857 0.0
C6 C 0.18577 0.44655 0.71218 0.0
C7 C 0.14619 0.44818 0.73109 0.0
C8 C 0.14192 0.45568 0.78485 0.0
C9 C 0.11163 0.38106 0.02978 0.0
C10 C 0.20714 0.35965 0.95358 0.0
C11 C 0.21764 0.37465 0.1514 0.0
C12 C 0.2131 0.38318 0.20808 0.0
C13 C 0.17611 0.38921 0.22725 0.0
C14 C 0.1729 0.39664 0.28155 0.0
C15 C 0.20659 0.39817 0.31761 0.0
C16 C 0.24374 0.39265 0.29786 0.0
C17 C 0.24685 0.38516 0.24382 0.0
C18 C 0.2782 0.46635 1.00031 0.0
C19 C 0.18783 0.48931 0.07514 0.0
O20 O 0.20899 0.49124 0.90682 0.0
O21 O 0.13609 0.43423 0.90247 0.0
O22 O 0.14775 0.37906 0.01653 0.0
O23 O 0.11101 0.41543 1.005 0.0
O24 O 0.2016 0.39355 0.93204 0.0
O25 O 0.20546 0.35284 1.00544 0.0
O26 O 0.17905 0.3548 0.12271 0.0
O27 O 0.25325 0.40888 0.12619 0.0
O28 O 0.24121 0.46634 0.01358 0.0
O29 O 0.28014 0.4325 0.02477 0.0
O30 O 0.19126 0.45429 0.09713 0.0
O31 O 0.18849 0.49494 0.02305 0.0
H32 H 0.24418 0.46422 0.82982 0.0
H33 H 0.25185 0.45123 0.73538 0.0
H34 H 0.11869 0.4443 0.70412 0.0
H35 H 0.11111 0.45699 0.79816 0.0
H36 H 0.14961 0.38795 0.20044 0.0
H37 H 0.14361 0.40038 0.29536 0.0
H38 H 0.2708 0.3945 0.32415 0.0
H39 H 0.2758 0.38088 0.22987 0.0
Tb40 Tb 0.74062 0.17927 0.30136 0.0
Tb41 Tb 0.80759 0.21022 0.39625 0.0
C42 C 0.70329 0.17134 0.21177 0.0
C43 C 0.71729 0.1774 0.15531 0.0
C44 C 0.7602 0.21547 0.13736 0.0
C45 C 0.772 0.21985 0.08332 0.0
C46 C 0.74129 0.18609 0.04642 0.0
C47 C 0.69848 0.14819 0.06481 0.0
C48 C 0.68667 0.14398 0.11857 0.0
C49 C 0.73242 0.11145 0.36364 0.0
C50 C 0.84938 0.20703 0.28767 0.0
C51 C 0.84496 0.21688 0.48554 0.0
C52 C 0.83214 0.21237 0.54229 0.0
C53 C 0.78801 0.17714 0.56118 0.0
C54 C 0.77747 0.17404 0.61551 0.0
C55 C 0.81087 0.20605 0.65188 0.0
C56 C 0.85475 0.2414 0.63243 0.0
C57 C 0.86521 0.24444 0.57834 0.0
C58 C 0.81382 0.27802 0.33484 0.0
C59 C 0.7004 0.18766 0.4094 0.0
O60 O 0.72004 0.20941 0.24104 0.0
O61 O 0.70362 0.13638 0.23658 0.0
O62 O 0.77057 0.14759 0.3505 0.0
O63 O 0.69744 0.11095 0.33892 0.0
O64 O 0.80994 0.20156 0.2662 0.0
O65 O 0.85455 0.20525 0.33951 0.0
O66 O 0.82583 0.17831 0.45687 0.0
O67 O 0.84649 0.25261 0.46046 0.0
O68 O 0.77682 0.24101 0.34801 0.0
O69 O 0.84959 0.27986 0.35926 0.0
O70 O 0.73883 0.19099 0.43139 0.0
O71 O 0.69549 0.18845 0.35732 0.0
H72 H 0.78459 0.24169 0.16498 0.0
H73 H 0.8054 0.24925 0.07054 0.0
H74 H 0.67372 0.12198 0.03747 0.0
H75 H 0.65337 0.11446 0.1315 0.0
H76 H 0.76183 0.15196 0.5341 0.0
H77 H 0.74348 0.14614 0.6291 0.0
H78 H 0.88099 0.26715 0.65899 0.0
H79 H 0.89933 0.27203 0.56459 0.0
Tb80 Tb 0.56287 0.73951 0.63388 0.0
Tb81 Tb 0.59886 0.8064 0.72876 0.0
C82 C 0.53349 0.70218 0.54432 0.0
C83 C 0.54142 0.71613 0.48785 0.0
C84 C 0.54723 0.75943 0.46998 0.0
C85 C 0.55469 0.77121 0.41592 0.0
C86 C 0.55681 0.74006 0.37892 0.0
C87 C 0.55091 0.69684 0.39724 0.0
C88 C 0.54328 0.68506 0.45101 0.0
C89 C 0.62236 0.73116 0.69627 0.0
C90 C 0.64398 0.8482 0.62019 0.0
C91 C 0.62962 0.84379 0.818 0.0
C92 C 0.62145 0.83099 0.87476 0.0
C93 C 0.61182 0.7866 0.89352 0.0
C94 C 0.60445 0.77605 0.94786 0.0
C95 C 0.60667 0.80972 0.98437 0.0
C96 C 0.61598 0.85388 0.96506 0.0
C97 C 0.62331 0.86434 0.91096 0.0
C98 C 0.53738 0.81276 0.66727 0.0
C99 C 0.51412 0.69932 0.7419 0.0
O100 O 0.51219 0.71899 0.57354 0.0
O101 O 0.56878 0.70252 0.56913 0.0
O102 O 0.62445 0.76933 0.68309 0.0
O103 O 0.58789 0.69624 0.67152 0.0
O104 O 0.61001 0.80881 0.5987 0.0
O105 O 0.65086 0.85331 0.67203 0.0
O106 O 0.6491 0.82473 0.78929 0.0
O107 O 0.59527 0.84516 0.79303 0.0
O108 O 0.53733 0.77575 0.68046 0.0
O109 O 0.57131 0.84848 0.69171 0.0
O110 O 0.54925 0.73768 0.7639 0.0
O111 O 0.50845 0.69446 0.68982 0.0
H112 H 0.54614 0.78415 0.49768 0.0
H113 H 0.55947 0.80493 0.40321 0.0
H114 H 0.55162 0.67175 0.36983 0.0
H115 H 0.53874 0.65145 0.46389 0.0
H116 H 0.61018 0.76022 0.86632 0.0
H117 H 0.59775 0.74183 0.96135 0.0
H118 H 0.61714 0.88035 0.99175 0.0
H119 H 0.63042 0.89868 0.89731 0.0
Tb120 Tb 0.82441 0.5615 0.96736 0.0
Tb121 Tb 0.7934 0.59745 0.06216 0.0
C122 C 0.83237 0.53209 0.87783 0.0
C123 C 0.82638 0.54001 0.82133 0.0
C124 C 0.78861 0.54534 0.80334 0.0
C125 C 0.7843 0.55276 0.74927 0.0
C126 C 0.81784 0.5553 0.71236 0.0
C127 C 0.85543 0.54988 0.73079 0.0
C128 C 0.85957 0.5423 0.78458 0.0
C129 C 0.89225 0.62113 0.02962 0.0
C130 C 0.79663 0.64244 0.95352 0.0
C131 C 0.78667 0.62811 0.1514 0.0
C132 C 0.79136 0.61994 0.20816 0.0
C133 C 0.82644 0.61075 0.22692 0.0
C134 C 0.82967 0.60337 0.28125 0.0
C135 C 0.79795 0.60513 0.31776 0.0
C136 C 0.76278 0.61399 0.29845 0.0
C137 C 0.7596 0.62133 0.24436 0.0
C138 C 0.72559 0.53586 1.00079 0.0
C139 C 0.81612 0.51299 0.07549 0.0
O140 O 0.79425 0.51081 0.90708 0.0
O141 O 0.86734 0.56736 0.90262 0.0
O142 O 0.85609 0.6231 0.01645 0.0
O143 O 0.89278 0.58669 1.00492 0.0
O144 O 0.80215 0.60853 0.9321 0.0
O145 O 0.79837 0.64935 1.00536 0.0
O146 O 0.8252 0.64771 0.12264 0.0
O147 O 0.751 0.59373 0.12646 0.0
O148 O 0.76261 0.53589 0.01399 0.0
O149 O 0.72375 0.56978 0.02516 0.0
O150 O 0.8128 0.54809 0.09738 0.0
O151 O 0.81526 0.50722 0.02342 0.0
H152 H 0.76257 0.54392 0.83097 0.0
H153 H 0.75514 0.55716 0.73647 0.0
H154 H 0.88146 0.55093 0.70346 0.0
H155 H 0.88886 0.53812 0.79755 0.0
H156 H 0.8514 0.60947 0.19972 0.0
H157 H 0.85743 0.59702 0.29474 0.0
H158 H 0.73726 0.61479 0.32513 0.0
H159 H 0.73213 0.6281 0.23071 0.0
Tb160 Tb 0.26396 0.82375 0.30063 0.0
Tb161 Tb 0.19696 0.79244 0.39547 0.0
C162 C 0.30144 0.83203 0.21109 0.0
C163 C 0.28754 0.82595 0.1546 0.0
C164 C 0.24436 0.78826 0.1367 0.0
C165 C 0.23264 0.78389 0.08263 0.0
C166 C 0.26371 0.81728 0.04563 0.0
C167 C 0.3068 0.85479 0.06397 0.0
C168 C 0.31853 0.859 0.11776 0.0
C169 C 0.27209 0.89137 0.36316 0.0
C170 C 0.15511 0.79571 0.28688 0.0
C171 C 0.15949 0.78547 0.48474 0.0
C172 C 0.17237 0.79025 0.54149 0.0
C173 C 0.2167 0.82526 0.56014 0.0
C174 C 0.22735 0.82856 0.61446 0.0
C175 C 0.19383 0.797 0.65107 0.0
C176 C 0.14972 0.7619 0.63187 0.0
C177 C 0.13917 0.75865 0.57778 0.0
C178 C 0.1908 0.72483 0.33387 0.0
C179 C 0.30423 0.81527 0.40865 0.0
O180 O 0.28485 0.79394 0.24034 0.0
O181 O 0.30078 0.86681 0.23585 0.0
O182 O 0.23395 0.85523 0.34993 0.0
O183 O 0.30708 0.89199 0.33836 0.0
O184 O 0.19462 0.80138 0.26541 0.0
O185 O 0.14992 0.79734 0.33873 0.0
O186 O 0.1782 0.82398 0.45594 0.0
O187 O 0.15849 0.74993 0.45984 0.0
O188 O 0.2278 0.76183 0.34709 0.0
O189 O 0.15503 0.72289 0.35836 0.0
O190 O 0.26577 0.81184 0.43063 0.0
O191 O 0.30914 0.81454 0.35657 0.0
H192 H 0.2197 0.76234 0.16441 0.0
H193 H 0.19901 0.75479 0.0699 0.0
H194 H 0.33185 0.8807 0.03656 0.0
H195 H 0.35204 0.88822 0.13065 0.0
H196 H 0.24297 0.8501 0.53286 0.0
H197 H 0.26152 0.85626 0.62787 0.0
H198 H 0.12337 0.7365 0.65863 0.0
H199 H 0.10488 0.73124 0.56422 0.0
Tb200 Tb 0.4409 0.26261 0.63448 0.0
Tb201 Tb 0.40529 0.19559 0.7292 0.0
C202 C 0.46978 0.29988 0.54481 0.0
C203 C 0.46171 0.28558 0.48841 0.0
C204 C 0.46151 0.24494 0.46992 0.0
C205 C 0.45416 0.23299 0.41593 0.0
C206 C 0.44653 0.26123 0.37961 0.0
C207 C 0.44668 0.30171 0.39851 0.0
C208 C 0.45426 0.31373 0.45221 0.0
C209 C 0.38139 0.27068 0.69703 0.0
C210 C 0.36017 0.15378 0.62071 0.0
C211 C 0.37508 0.15829 0.81858 0.0
C212 C 0.38375 0.17128 0.87529 0.0
C213 C 0.38843 0.21361 0.8949 0.0
C214 C 0.39586 0.22407 0.94924 0.0
C215 C 0.39877 0.19244 0.98492 0.0
C216 C 0.39465 0.15049 0.96473 0.0
C217 C 0.38713 0.14005 0.91066 0.0
C218 C 0.46688 0.18963 0.6676 0.0
C219 C 0.48971 0.30281 0.74244 0.0
O220 O 0.49167 0.28378 0.57419 0.0
O221 O 0.43437 0.29922 0.56968 0.0
O222 O 0.37936 0.23255 0.68378 0.0
O223 O 0.41577 0.30567 0.67227 0.0
O224 O 0.39406 0.19327 0.59927 0.0
O225 O 0.35328 0.14859 0.67255 0.0
O226 O 0.35527 0.17712 0.78998 0.0
O227 O 0.40918 0.15676 0.79326 0.0
O228 O 0.46679 0.22654 0.68088 0.0
O229 O 0.43303 0.1538 0.69201 0.0
O230 O 0.45473 0.26431 0.7644 0.0
O231 O 0.4953 0.30782 0.69036 0.0
H232 H 0.46698 0.22243 0.49706 0.0
H233 H 0.45388 0.20138 0.40273 0.0
H234 H 0.4416 0.32458 0.37158 0.0
H235 H 0.45444 0.34529 0.46551 0.0
H236 H 0.38608 0.23843 0.86841 0.0
H237 H 0.39849 0.25653 0.96338 0.0
H238 H 0.3976 0.12573 0.99071 0.0
H239 H 0.3839 0.10734 0.89639 0.0
C240 C 0.36892 0.32063 0.76137 0.0
C241 C 0.35255 0.27629 0.73815 0.0
C242 C 0.34175 0.32805 0.79889 0.0
C243 C 0.2967 0.29028 0.81298 0.0
C244 C 0.28034 0.24508 0.79041 0.0
C245 C 0.30868 0.23853 0.75333 0.0
C246 C 0.36093 0.37664 0.82263 0.0
C247 C 0.23241 0.20412 0.80422 0.0
C248 C 0.24714 0.31236 0.93887 0.0
C249 C 0.22209 0.3333 0.9184 0.0
C250 C 0.26954 0.29556 0.90492 0.0
C251 C 0.26628 0.29937 0.8493 0.0
C252 C 0.23827 0.31743 0.82853 0.0
C253 C 0.21674 0.33438 0.86331 0.0
C254 C 0.29951 0.27702 0.92861 0.0
C255 C 0.23352 0.32175 0.76948 0.0
H256 H 0.40311 0.34976 0.75004 0.0
H257 H 0.29601 0.20427 0.73517 0.0
H258 H 0.33848 0.39162 0.81066 0.0
H259 H 0.36008 0.3745 0.86657 0.0
H260 H 0.39774 0.40137 0.8099 0.0
H261 H 0.22611 0.17064 0.78581 0.0
H262 H 0.22867 0.19931 0.84785 0.0
H263 H 0.2046 0.21162 0.79047 0.0
H264 H 0.25172 0.31164 0.98138 0.0
H265 H 0.19721 0.35024 0.84715 0.0
H266 H 0.33736 0.30317 0.9223 0.0
H267 H 0.29241 0.24387 0.9088 0.0
H268 H 0.29334 0.27036 0.97188 0.0
H269 H 0.26767 0.34964 0.75317 0.0
H270 H 0.20601 0.33101 0.75978 0.0
H271 H 0.22467 0.28825 0.74923 0.0
C272 C 0.04931 0.36865 0.09433 0.0
C273 C 0.0773 0.35231 0.07104 0.0
C274 C 0.01491 0.34156 0.13209 0.0
C275 C 0.00784 0.29663 0.14635 0.0
C276 C 0.03668 0.28031 0.12371 0.0
C277 C 0.07137 0.30855 0.08637 0.0
C278 C 0.98546 0.36068 0.15589 0.0
C279 C 0.02994 0.23251 0.1377 0.0
C280 C 0.93668 0.24725 0.27264 0.0
C281 C 0.89063 0.22199 0.25237 0.0
C282 C 0.97576 0.26969 0.23849 0.0
C283 C 0.9685 0.26626 0.1829 0.0
C284 C 0.92239 0.23805 0.16235 0.0
C285 C 0.88403 0.21646 0.19731 0.0
C286 C 0.02433 0.29987 0.26194 0.0
C287 C 0.9131 0.23314 0.10335 0.0
H288 H 0.05423 0.40275 0.08287 0.0
H289 H 0.09296 0.2959 0.06815 0.0
H290 H 0.94799 0.33811 0.14415 0.0
H291 H 0.98695 0.35999 0.19983 0.0
H292 H 0.99739 0.39741 0.143 0.0
H293 H 0.05711 0.22623 0.11918 0.0
H294 H 0.03124 0.22896 0.18134 0.0
H295 H 0.99459 0.20459 0.12423 0.0
H296 H 0.94209 0.25196 0.31512 0.0
H297 H 0.84858 0.19675 0.18132 0.0
H298 H 0.03586 0.33765 0.25548 0.0
H299 H 0.05043 0.29285 0.24204 0.0
H300 H 0.025 0.29384 0.30522 0.0
H301 H 0.91914 0.26718 0.08696 0.0
H302 H 0.87634 0.20552 0.09384 0.0
H303 H 0.9378 0.22439 0.083 0.0
C304 C 0.68245 0.0488 0.42785 0.0
C305 C 0.7268 0.07687 0.4046 0.0
C306 C 0.67511 0.01418 0.46533 0.0
C307 C 0.71294 0.00697 0.47933 0.0
C308 C 0.75813 0.03587 0.45669 0.0
C309 C 0.76461 0.07079 0.41966 0.0
C310 C 0.62653 0.98468 0.48915 0.0
C311 C 0.79915 0.02896 0.47039 0.0
C312 C 0.69122 0.93547 0.60534 0.0
C313 C 0.67031 0.88949 0.58495 0.0
C314 C 0.70789 0.97462 0.57131 0.0
C315 C 0.70397 0.96752 0.51571 0.0
C316 C 0.68596 0.92147 0.49501 0.0
C317 C 0.66916 0.88303 0.52986 0.0
C318 C 0.72639 0.02312 0.59492 0.0
C319 C 0.68151 0.91235 0.43599 0.0
H320 H 0.65329 0.05383 0.4166 0.0
H321 H 0.79887 0.09244 0.40146 0.0
H322 H 0.61159 0.94726 0.47725 0.0
H323 H 0.62872 0.98599 0.53309 0.0
H324 H 0.60173 0.99668 0.47644 0.0
H325 H 0.8326 0.05613 0.45183 0.0
H326 H 0.80409 0.03013 0.514 0.0
H327 H 0.79163 0.99365 0.45675 0.0
H328 H 0.69199 0.94077 0.64784 0.0
H329 H 0.65332 0.84763 0.51378 0.0
H330 H 0.70017 0.03473 0.58863 0.0
H331 H 0.75951 0.04921 0.57501 0.0
H332 H 0.73312 0.02365 0.63817 0.0
H333 H 0.65348 0.91845 0.41977 0.0
H334 H 0.67233 0.87562 0.42634 0.0
H335 H 0.71494 0.93708 0.4156 0.0
C336 C 0.6951 0.76318 0.75248 0.0
C337 C 0.6512 0.72546 0.73735 0.0
C338 C 0.72341 0.75663 0.78963 0.0
C339 C 0.707 0.71145 0.81232 0.0
C340 C 0.66194 0.67369 0.79824 0.0
C341 C 0.63479 0.68111 0.76064 0.0
C342 C 0.77136 0.79757 0.80341 0.0
C343 C 0.64272 0.62511 0.8221 0.0
C344 C 0.78702 0.66755 0.86312 0.0
C345 C 0.78166 0.66873 0.9182 0.0
C346 C 0.76543 0.68435 0.82819 0.0
C347 C 0.73737 0.70239 0.84879 0.0
C348 C 0.7341 0.70631 0.90438 0.0
C349 C 0.75655 0.68964 0.93849 0.0
C350 C 0.77017 0.67988 0.76919 0.0
C351 C 0.70409 0.72484 0.92788 0.0
H352 H 0.70781 0.79744 0.73424 0.0
H353 H 0.60058 0.65201 0.74934 0.0
H354 H 0.77504 0.80248 0.84703 0.0
H355 H 0.79914 0.78999 0.78986 0.0
H356 H 0.77773 0.83103 0.78482 0.0
H357 H 0.60593 0.60038 0.80932 0.0
H358 H 0.66518 0.61012 0.81029 0.0
H359 H 0.64351 0.62729 0.86604 0.0
H360 H 0.80661 0.65171 0.84711 0.0
H361 H 0.75196 0.69042 0.98098 0.0
H362 H 0.77898 0.71332 0.74876 0.0
H363 H 0.73603 0.65193 0.75293 0.0
H364 H 0.79769 0.67062 0.75962 0.0
H365 H 0.71122 0.75799 0.90797 0.0
H366 H 0.7102 0.73153 0.97115 0.0
H367 H 0.66626 0.69869 0.92151 0.0
C368 C 0.12037 0.78608 0.1965 0.0
C369 C 0.11382 0.78065 0.25158 0.0
C370 C 0.08198 0.76441 0.16157 0.0
C371 C 0.03588 0.73623 0.18217 0.0
C372 C 0.02868 0.73288 0.23777 0.0
C373 C 0.06779 0.75539 0.27187 0.0
C374 C 0.09121 0.76923 0.10256 0.0
C375 C 0.98013 0.70273 0.26127 0.0
C376 C 0.93278 0.6938 0.08585 0.0
C377 C 0.92676 0.64999 0.07069 0.0
C378 C 0.9676 0.72213 0.12302 0.0
C379 C 0.99649 0.70582 0.14569 0.0
C380 C 0.98934 0.66085 0.13157 0.0
C381 C 0.95481 0.63369 0.09397 0.0
C382 C 0.97444 0.76997 0.13685 0.0
C383 C 0.01882 0.64175 0.1554 0.0
H384 H 0.1558 0.80577 0.18047 0.0
H385 H 0.06241 0.75075 0.31437 0.0
H386 H 0.08514 0.73516 0.08629 0.0
H387 H 0.0665 0.77796 0.08216 0.0
H388 H 0.12797 0.79683 0.093 0.0
H389 H 0.97952 0.70878 0.30455 0.0
H390 H 0.95404 0.70977 0.24138 0.0
H391 H 0.96858 0.66495 0.25487 0.0
H392 H 0.91116 0.70643 0.06764 0.0
H393 H 0.94982 0.59954 0.08264 0.0
H394 H 0.00978 0.79784 0.12332 0.0
H395 H 0.97317 0.77359 0.18047 0.0
H396 H 0.94728 0.77627 0.11827 0.0
H397 H 0.05628 0.6643 0.14359 0.0
H398 H 0.00687 0.605 0.14259 0.0
H399 H 0.0174 0.64248 0.19933 0.0
C400 C 0.3133 0.06649 0.60571 0.0
C401 C 0.33398 0.11252 0.58541 0.0
C402 C 0.29673 0.02743 0.5716 0.0
C403 C 0.30051 0.03464 0.516 0.0
C404 C 0.31833 0.08072 0.49541 0.0
C405 C 0.33505 0.11908 0.53034 0.0
C406 C 0.27844 0.9789 0.59511 0.0
C407 C 0.32263 0.08997 0.4364 0.0
C408 C 0.32206 0.95379 0.42757 0.0
C409 C 0.2777 0.92575 0.40434 0.0
C410 C 0.32941 0.98824 0.46524 0.0
C411 C 0.29154 0.9953 0.47949 0.0
C412 C 0.24633 0.9664 0.4569 0.0
C413 C 0.23986 0.93168 0.41964 0.0
C414 C 0.37803 0.01774 0.48899 0.0
C415 C 0.20526 0.97313 0.47087 0.0
H416 H 0.31262 0.06111 0.6482 0.0
H417 H 0.35072 0.1545 0.51431 0.0
H418 H 0.2453 0.95279 0.57526 0.0
H419 H 0.30473 0.96742 0.58863 0.0
H420 H 0.27182 0.97826 0.6384 0.0
H421 H 0.33177 0.12672 0.42685 0.0
H422 H 0.35061 0.0839 0.42001 0.0
H423 H 0.28914 0.06528 0.41609 0.0
H424 H 0.35126 0.94888 0.41613 0.0
H425 H 0.20558 0.91006 0.40147 0.0
H426 H 0.37593 0.01629 0.53293 0.0
H427 H 0.39288 0.05518 0.47719 0.0
H428 H 0.40285 0.00584 0.4761 0.0
H429 H 0.20045 0.97185 0.51451 0.0
H430 H 0.17179 0.94595 0.45238 0.0
H431 H 0.21264 0.00844 0.45735 0.0
C432 C 0.23252 0.46587 0.62741 0.0
C433 C 0.18984 0.43871 0.6546 0.0
C434 C 0.23597 0.46009 0.57258 0.0
C435 C 0.19588 0.42612 0.54423 0.0
C436 C 0.15291 0.3982 0.57163 0.0
C437 C 0.15041 0.40485 0.62633 0.0
C438 C 0.28242 0.49064 0.54487 0.0
C439 C 0.10946 0.36127 0.54313 0.0
C440 C 0.19045 0.43768 0.3941 0.0
C441 C 0.20319 0.40513 0.37566 0.0
C442 C 0.18817 0.44507 0.44876 0.0
C443 C 0.19887 0.41933 0.48603 0.0
C444 C 0.21161 0.38636 0.46768 0.0
C445 C 0.21349 0.3796 0.4129 0.0
C446 C 0.17442 0.48055 0.46665 0.0
C447 C 0.22308 0.35801 0.50596 0.0
H448 H 0.26301 0.49242 0.64882 0.0
H449 H 0.11749 0.38324 0.64716 0.0
H450 H 0.29464 0.4682 0.52557 0.0
H451 H 0.27781 0.5115 0.51314 0.0
H452 H 0.3103 0.5153 0.57253 0.0
H453 H 0.07876 0.34245 0.57015 0.0
H454 H 0.09974 0.37795 0.51093 0.0
H455 H 0.11684 0.335 0.52436 0.0
H456 H 0.18297 0.45799 0.36576 0.0
H457 H 0.22261 0.3538 0.39919 0.0
H458 H 0.20293 0.50808 0.49138 0.0
H459 H 0.14227 0.46292 0.49167 0.0
H460 H 0.16747 0.49792 0.43276 0.0
H461 H 0.25259 0.38202 0.53226 0.0
H462 H 0.23309 0.33432 0.48533 0.0
H463 H 0.19217 0.33628 0.53169 0.0
C464 C 0.7721 0.23336 0.9623 0.0
C465 C 0.75334 0.18998 0.98886 0.0
C466 C 0.78152 0.2368 0.90749 0.0
C467 C 0.77226 0.19594 0.87852 0.0
C468 C 0.75393 0.15222 0.90529 0.0
C469 C 0.74469 0.14978 0.95998 0.0
C470 C 0.80098 0.28407 0.88048 0.0
C471 C 0.74397 0.1079 0.87613 0.0
C472 C 0.75614 0.19335 0.72838 0.0
C473 C 0.8005 0.2028 0.70993 0.0
C474 C 0.74654 0.19133 0.78304 0.0
C475 C 0.7821 0.19885 0.82032 0.0
C476 C 0.82685 0.20824 0.80195 0.0
C477 C 0.83545 0.21001 0.74715 0.0
C478 C 0.69837 0.18126 0.80094 0.0
C479 C 0.86567 0.2162 0.84023 0.0
H480 H 0.77845 0.2645 0.98417 0.0
H481 H 0.73086 0.11625 0.9803 0.0
H482 H 0.83517 0.29389 0.86124 0.0
H483 H 0.77646 0.28196 0.84878 0.0
H484 H 0.80643 0.31249 0.90858 0.0
H485 H 0.72982 0.07668 0.90272 0.0
H486 H 0.71809 0.10051 0.84391 0.0
H487 H 0.77677 0.1128 0.85733 0.0
H488 H 0.72908 0.18829 0.70004 0.0
H489 H 0.86959 0.21659 0.73341 0.0
H490 H 0.70177 0.2106 0.82608 0.0
H491 H 0.68154 0.14881 0.82554 0.0
H492 H 0.6747 0.17658 0.76704 0.0
H493 H 0.87344 0.24615 0.86694 0.0
H494 H 0.89873 0.22382 0.8196 0.0
H495 H 0.85405 0.18455 0.86554 0.0
C496 C 0.59586 0.74248 0.29229 0.0
C497 C 0.56504 0.75209 0.32136 0.0
C498 C 0.60271 0.75172 0.2376 0.0
C499 C 0.57811 0.77104 0.21101 0.0
C500 C 0.54729 0.78128 0.24017 0.0
C501 C 0.54123 0.77183 0.29498 0.0
C502 C 0.63625 0.7407 0.20823 0.0
C503 C 0.52034 0.80182 0.21336 0.0
C504 C 0.62798 0.83389 0.0796 0.0
C505 C 0.59957 0.7993 0.04241 0.0
C506 C 0.62116 0.82528 0.13441 0.0
C507 C 0.58509 0.78089 0.15281 0.0
C508 C 0.55639 0.7457 0.11556 0.0
C509 C 0.56399 0.75529 0.06089 0.0
C510 C 0.65276 0.8637 0.17265 0.0
C511 C 0.51752 0.69793 0.13349 0.0
H512 H 0.61495 0.7279 0.31246 0.0
H513 H 0.51701 0.77893 0.31699 0.0
H514 H 0.61722 0.71503 0.17602 0.0
H515 H 0.66463 0.77318 0.1894 0.0
H516 H 0.65274 0.72585 0.23469 0.0
H517 H 0.4979 0.80795 0.24159 0.0
H518 H 0.54528 0.83581 0.19413 0.0
H519 H 0.49751 0.77766 0.18169 0.0
H520 H 0.65603 0.86775 0.06582 0.0
H521 H 0.54149 0.72852 0.03256 0.0
H522 H 0.67222 0.85132 0.19784 0.0
H523 H 0.63118 0.87219 0.19949 0.0
H524 H 0.67875 0.8965 0.15201 0.0
H525 H 0.53252 0.68042 0.15797 0.0
H526 H 0.49808 0.67452 0.09961 0.0
H527 H 0.49208 0.70206 0.15876 0.0
C528 C 0.77056 0.53929 0.6283 0.0
C529 C 0.81403 0.56347 0.65477 0.0
C530 C 0.76717 0.54532 0.57348 0.0
C531 C 0.80817 0.5765 0.5444 0.0
C532 C 0.85201 0.60144 0.57107 0.0
C533 C 0.8544 0.59461 0.62576 0.0
C534 C 0.71977 0.51799 0.54658 0.0
C535 C 0.89649 0.63535 0.54178 0.0
C536 C 0.81024 0.56276 0.39424 0.0
C537 C 0.8013 0.59802 0.3758 0.0
C538 C 0.81226 0.55514 0.44891 0.0
C539 C 0.80529 0.5835 0.48619 0.0
C540 C 0.79647 0.61924 0.46782 0.0
C541 C 0.79465 0.62608 0.41302 0.0
C542 C 0.82171 0.51663 0.4668 0.0
C543 C 0.78913 0.65046 0.50609 0.0
H544 H 0.73929 0.51483 0.65026 0.0
H545 H 0.88801 0.61397 0.64601 0.0
H546 H 0.71035 0.54267 0.52737 0.0
H547 H 0.72148 0.4954 0.51488 0.0
H548 H 0.69125 0.49527 0.57475 0.0
H549 H 0.92779 0.65207 0.56829 0.0
H550 H 0.90347 0.6166 0.50956 0.0
H551 H 0.89204 0.66353 0.52297 0.0
H552 H 0.81487 0.54052 0.3659 0.0
H553 H 0.78847 0.6539 0.39926 0.0
H554 H 0.79222 0.49093 0.49202 0.0
H555 H 0.85419 0.53189 0.49134 0.0
H556 H 0.82602 0.49744 0.43291 0.0
H557 H 0.75909 0.6286 0.53286 0.0
H558 H 0.78198 0.67623 0.48546 0.0
H559 H 0.82089 0.67014 0.53134 0.0
C560 C 0.16968 0.794 0.74633 0.0
C561 C 0.20433 0.80042 0.70909 0.0
C562 C 0.17837 0.79587 0.80112 0.0
C563 C 0.22289 0.8045 0.81947 0.0
C564 C 0.25815 0.81124 0.78218 0.0
C565 C 0.24849 0.80918 0.72752 0.0
C566 C 0.13988 0.78879 0.83942 0.0
C567 C 0.30606 0.82048 0.80005 0.0
C568 C 0.26112 0.85377 0.9589 0.0
C569 C 0.25173 0.81342 0.98804 0.0
C570 C 0.25189 0.85132 0.90421 0.0
C571 C 0.2328 0.80744 0.87767 0.0
C572 C 0.22281 0.76645 0.90689 0.0
C573 C 0.23224 0.7699 0.9617 0.0
C574 C 0.26265 0.8958 0.87478 0.0
C575 C 0.20253 0.71901 0.88014 0.0
H576 H 0.13571 0.78795 0.73259 0.0
H577 H 0.2753 0.81363 0.69916 0.0
H578 H 0.13159 0.75877 0.86628 0.0
H579 H 0.15212 0.8206 0.86457 0.0
H580 H 0.10698 0.78176 0.81881 0.0
H581 H 0.32951 0.82461 0.76614 0.0
H582 H 0.32343 0.85298 0.82448 0.0
H583 H 0.30214 0.79099 0.82535 0.0
H584 H 0.27551 0.88741 0.97904 0.0
H585 H 0.22531 0.73865 0.98376 0.0
H586 H 0.23006 0.89148 0.85598 0.0
H587 H 0.28834 0.90259 0.84253 0.0
H588 H 0.27738 0.92713 0.90118 0.0
H589 H 0.16845 0.70972 0.86095 0.0
H590 H 0.19662 0.69051 0.9084 0.0
H591 H 0.22676 0.72054 0.84844 0.0
C592 C 0.40373 0.25302 0.29406 0.0
C593 C 0.4387 0.24912 0.32208 0.0
C594 C 0.39711 0.24381 0.23937 0.0
C595 C 0.42624 0.23042 0.21172 0.0
C596 C 0.46131 0.22592 0.23984 0.0
C597 C 0.46702 0.23517 0.29468 0.0
C598 C 0.35898 0.24854 0.21112 0.0
C599 C 0.49315 0.21182 0.21187 0.0
C600 C 0.38124 0.16626 0.0801 0.0
C601 C 0.40566 0.20257 0.04304 0.0
C602 C 0.38791 0.17474 0.13492 0.0
C603 C 0.41963 0.22078 0.15348 0.0
C604 C 0.44426 0.25769 0.11639 0.0
C605 C 0.437 0.24817 0.06169 0.0
C606 C 0.36079 0.13441 0.17302 0.0
C607 C 0.47837 0.30728 0.13451 0.0
H608 H 0.38124 0.26312 0.31507 0.0
H609 H 0.49441 0.23252 0.3159 0.0
H610 H 0.37477 0.27523 0.17907 0.0
H611 H 0.33365 0.21456 0.19219 0.0
H612 H 0.33921 0.25911 0.23835 0.0
H613 H 0.51849 0.2096 0.2394 0.0
H614 H 0.4717 0.17706 0.19237 0.0
H615 H 0.51334 0.23777 0.18028 0.0
H616 H 0.35635 0.13107 0.06625 0.0
H617 H 0.45648 0.27635 0.03349 0.0
H618 H 0.33818 0.14226 0.1989 0.0
H619 H 0.38562 0.13006 0.19918 0.0
H620 H 0.3381 0.10051 0.15223 0.0
H621 H 0.45974 0.32059 0.1597 0.0
H622 H 0.49502 0.33196 0.10073 0.0
H623 H 0.50656 0.30745 0.15913 0.0
C624 C 0.18913 0.56573 0.09096 0.0
C625 C 0.18416 0.52338 0.11069 0.0
C626 C 0.18805 0.59906 0.12521 0.0
C627 C 0.1816 0.58961 0.18035 0.0
C628 C 0.17529 0.54638 0.20023 0.0
C629 C 0.17669 0.51389 0.16522 0.0
C630 C 0.19505 0.6449 0.10265 0.0
C631 C 0.16804 0.53481 0.25872 0.0
C632 C 0.22931 0.69062 0.27882 0.0
C633 C 0.18828 0.69084 0.29393 0.0
C634 C 0.22774 0.65861 0.24086 0.0
C635 C 0.18395 0.62575 0.21786 0.0
C636 C 0.14237 0.62609 0.23273 0.0
C637 C 0.14506 0.65872 0.27071 0.0
C638 C 0.27286 0.65944 0.22606 0.0
C639 C 0.0951 0.59181 0.20885 0.0
H640 H 0.19486 0.57334 0.0489 0.0
H641 H 0.17231 0.48109 0.18087 0.0
H642 H 0.16564 0.65047 0.11485 0.0
H643 H 0.22804 0.67484 0.11867 0.0
H644 H 0.19722 0.64588 0.05866 0.0
H645 H 0.16175 0.49884 0.26746 0.0
H646 H 0.19958 0.5607 0.28123 0.0
H647 H 0.13754 0.53747 0.27352 0.0
H648 H 0.26266 0.71518 0.29723 0.0
H649 H 0.11336 0.65919 0.28215 0.0
H650 H 0.27826 0.66343 0.18251 0.0
H651 H 0.2704 0.62551 0.23732 0.0
H652 H 0.30425 0.68859 0.24585 0.0
H653 H 0.09602 0.59737 0.16536 0.0
H654 H 0.06596 0.59573 0.22592 0.0
H655 H 0.08719 0.55505 0.21541 0.0
C656 C 0.62519 0.18884 0.4251 0.0
C657 C 0.66261 0.18395 0.44491 0.0
C658 C 0.59065 0.18764 0.45927 0.0
C659 C 0.59358 0.18116 0.51441 0.0
C660 C 0.63055 0.17496 0.53439 0.0
C661 C 0.66457 0.17649 0.49945 0.0
C662 C 0.5518 0.19458 0.43662 0.0
C663 C 0.6348 0.1677 0.5929 0.0
C664 C 0.53971 0.22839 0.61273 0.0
C665 C 0.49852 0.18728 0.62775 0.0
C666 C 0.57033 0.22701 0.57484 0.0
C667 C 0.55961 0.18331 0.55183 0.0
C668 C 0.51773 0.14165 0.5666 0.0
C669 C 0.48762 0.14415 0.60451 0.0
C670 C 0.61457 0.27222 0.56015 0.0
C671 C 0.50495 0.09448 0.54267 0.0
H672 H 0.62336 0.1946 0.38304 0.0
H673 H 0.69303 0.17219 0.51516 0.0
H674 H 0.5168 0.16535 0.44911 0.0
H675 H 0.55501 0.22772 0.45229 0.0
H676 H 0.55285 0.19643 0.39261 0.0
H677 H 0.66457 0.16154 0.60172 0.0
H678 H 0.64029 0.19917 0.6154 0.0
H679 H 0.60166 0.13713 0.60764 0.0
H680 H 0.54834 0.26167 0.63114 0.0
H681 H 0.45548 0.11239 0.61588 0.0
H682 H 0.61606 0.27767 0.5166 0.0
H683 H 0.6461 0.26986 0.57147 0.0
H684 H 0.61664 0.3035 0.57995 0.0
H685 H 0.50073 0.09555 0.49912 0.0
H686 H 0.47172 0.06529 0.55939 0.0
H687 H 0.53375 0.08655 0.54963 0.0
C688 C 0.31238 0.5391 0.94529 0.0
C689 C 0.31219 0.49788 0.96037 0.0
C690 C 0.34441 0.56962 0.90734 0.0
C691 C 0.37731 0.55877 0.88433 0.0
C692 C 0.37698 0.51685 0.89915 0.0
C693 C 0.34434 0.48684 0.93713 0.0
C694 C 0.34357 0.61391 0.89259 0.0
C695 C 0.41129 0.50394 0.87524 0.0
C696 C 0.43757 0.62425 0.75759 0.0
C697 C 0.47993 0.66157 0.7774 0.0
C698 C 0.40415 0.58978 0.79176 0.0
C699 C 0.41352 0.59267 0.84691 0.0
C700 C 0.45673 0.62953 0.86688 0.0
C701 C 0.48931 0.66349 0.83195 0.0
C702 C 0.35831 0.55104 0.76911 0.0
C703 C 0.46819 0.63373 0.9254 0.0
H704 H 0.2878 0.54783 0.96371 0.0
H705 H 0.34389 0.45468 0.94854 0.0
H706 H 0.37748 0.64537 0.90392 0.0
H707 H 0.33965 0.61542 0.84903 0.0
H708 H 0.31437 0.61606 0.91235 0.0
H709 H 0.40715 0.47068 0.892 0.0
H710 H 0.406 0.49973 0.83169 0.0
H711 H 0.44806 0.53266 0.88217 0.0
H712 H 0.43002 0.62246 0.71552 0.0
H713 H 0.5221 0.69186 0.84766 0.0
H714 H 0.32838 0.55423 0.7849 0.0
H715 H 0.35253 0.51601 0.78148 0.0
H716 H 0.35748 0.5522 0.7251 0.0
H717 H 0.44225 0.63931 0.94787 0.0
H718 H 0.50416 0.66341 0.93422 0.0
H719 H 0.46552 0.60055 0.94017 0.0
C720 C 0.7753 0.3123 0.27989 0.0
C721 C 0.81633 0.31203 0.29489 0.0
C722 C 0.7768 0.34423 0.24181 0.0
C723 C 0.82053 0.37695 0.21859 0.0
C724 C 0.86212 0.37658 0.23338 0.0
C725 C 0.8595 0.34402 0.27148 0.0
C726 C 0.73167 0.34344 0.22711 0.0
C727 C 0.90934 0.41074 0.20928 0.0
C728 C 0.81489 0.43662 0.09153 0.0
C729 C 0.81994 0.47902 0.11112 0.0
C730 C 0.81613 0.40339 0.12587 0.0
C731 C 0.8228 0.41301 0.18095 0.0
C732 C 0.82921 0.45629 0.20069 0.0
C733 C 0.82765 0.48867 0.16559 0.0
C734 C 0.809 0.35748 0.10349 0.0
C735 C 0.83669 0.46802 0.25912 0.0
H736 H 0.74199 0.28784 0.29845 0.0
H737 H 0.8912 0.34351 0.28284 0.0
H738 H 0.73423 0.37743 0.23822 0.0
H739 H 0.72612 0.33933 0.18358 0.0
H740 H 0.70032 0.31439 0.24708 0.0
H741 H 0.9385 0.40682 0.22632 0.0
H742 H 0.90826 0.40503 0.16582 0.0
H743 H 0.91732 0.44753 0.21565 0.0
H744 H 0.80898 0.42889 0.04952 0.0
H745 H 0.83208 0.5215 0.18112 0.0
H746 H 0.776 0.32761 0.11959 0.0
H747 H 0.83838 0.35185 0.11573 0.0
H748 H 0.80677 0.35643 0.05949 0.0
H749 H 0.80521 0.44226 0.2818 0.0
H750 H 0.8431 0.50405 0.26772 0.0
H751 H 0.86721 0.46532 0.27385 0.0
C752 C 0.37947 0.81412 0.42448 0.0
C753 C 0.34207 0.81906 0.4442 0.0
C754 C 0.414 0.81534 0.45873 0.0
C755 C 0.41108 0.8219 0.51384 0.0
C756 C 0.37416 0.8282 0.5337 0.0
C757 C 0.34014 0.82664 0.4987 0.0
C758 C 0.45283 0.80833 0.4362 0.0
C759 C 0.36993 0.83555 0.59217 0.0
C760 C 0.46451 0.77431 0.61242 0.0
C761 C 0.50582 0.81532 0.62741 0.0
C762 C 0.43401 0.77585 0.57447 0.0
C763 C 0.44494 0.8196 0.55137 0.0
C764 C 0.4869 0.86116 0.56615 0.0
C765 C 0.51692 0.8585 0.60412 0.0
C766 C 0.38967 0.73074 0.55976 0.0
C767 C 0.49988 0.90839 0.54218 0.0
H768 H 0.38128 0.8083 0.38245 0.0
H769 H 0.31171 0.83099 0.51433 0.0
H770 H 0.48784 0.83775 0.44835 0.0
H771 H 0.44982 0.77538 0.45228 0.0
H772 H 0.45159 0.80611 0.39221 0.0
H773 H 0.34028 0.8419 0.60087 0.0
H774 H 0.36427 0.80405 0.61477 0.0
H775 H 0.40314 0.86605 0.6069 0.0
H776 H 0.45573 0.74099 0.63089 0.0
H777 H 0.54913 0.89018 0.61548 0.0
H778 H 0.3882 0.72528 0.51622 0.0
H779 H 0.35822 0.73325 0.571 0.0
H780 H 0.38744 0.69939 0.57963 0.0
H781 H 0.50443 0.90741 0.49868 0.0
H782 H 0.53299 0.93753 0.55917 0.0
H783 H 0.47104 0.91633 0.54873 0.0
C784 C 0.65932 0.51531 0.93772 0.0
C785 C 0.69145 0.50426 0.96101 0.0
C786 C 0.6266 0.48527 0.89983 0.0
C787 C 0.62618 0.4433 0.88514 0.0
C788 C 0.65903 0.43239 0.90824 0.0
C789 C 0.69114 0.46295 0.9461 0.0
C790 C 0.59233 0.49823 0.87583 0.0
C791 C 0.65978 0.38805 0.89363 0.0
C792 C 0.51425 0.33862 0.8325 0.0
C793 C 0.52378 0.34058 0.77799 0.0
C794 C 0.54675 0.37258 0.8675 0.0
C795 C 0.59001 0.40945 0.84763 0.0
C796 C 0.59951 0.41238 0.79252 0.0
C797 C 0.56617 0.37793 0.75828 0.0
C798 C 0.53514 0.36834 0.92597 0.0
C799 C 0.6454 0.45116 0.76998 0.0
H800 H 0.65985 0.54753 0.94901 0.0
H801 H 0.71572 0.4542 0.96456 0.0
H802 H 0.59771 0.50255 0.8323 0.0
H803 H 0.55554 0.4695 0.88264 0.0
H804 H 0.59644 0.53145 0.8926 0.0
H805 H 0.68889 0.38581 0.91354 0.0
H806 H 0.6258 0.35663 0.90488 0.0
H807 H 0.6638 0.38656 0.8501 0.0
H808 H 0.48141 0.31022 0.84813 0.0
H809 H 0.57382 0.37975 0.71624 0.0
H810 H 0.53783 0.40153 0.94066 0.0
H811 H 0.561 0.36271 0.94858 0.0
H812 H 0.49913 0.33869 0.93469 0.0
H813 H 0.65102 0.48617 0.7821 0.0
H814 H 0.6464 0.44992 0.72599 0.0
H815 H 0.67532 0.44811 0.78609 0.0
loop_
_geom_bond_atom_site_label_1
_geom_bond_atom_site_label_2
_geom_bond_distance
_geom_bond_site_symmetry_2
_ccdc_geom_bond_type
Tb0 C2 2.809 . S
Tb0 O20 2.484 . S
Tb0 O21 2.440 . S
Tb0 O22 2.658 1_556 S
Tb0 O23 2.409 . S
Tb0 O24 2.378 . S
Tb0 O28 2.325 . S
Tb0 O31 2.341 1_556 S
Tb1 C11 2.809 . S
Tb1 O22 2.325 . S
Tb1 O25 2.341 1_554 S
Tb1 O26 2.484 . S
Tb1 O27 2.440 . S
Tb1 O28 2.658 1_554 S
Tb1 O29 2.409 . S
Tb1 O30 2.378 . S
C2 Tb0 2.809 . S
C2 C3 1.514 . S
C2 O20 1.248 . S
C2 O21 1.266 . S
C3 C2 1.514 . S
C3 C4 1.359 . S
C3 C8 1.348 . S
C4 C3 1.359 . S
C4 C5 1.380 . S
C4 H32 0.929 . S
C5 C4 1.380 . S
C5 C6 1.347 . S
C5 H33 0.931 . S
C6 C5 1.347 . S
C6 C7 1.369 . S
C7 C6 1.369 . S
C7 C8 1.408 . S
C7 H34 0.930 . S
C8 C3 1.348 . S
C8 C7 1.408 . S
C8 H35 0.930 . S
C9 O22 1.281 . S
C9 O23 1.254 1_554 S
C10 O24 1.236 . S
C10 O25 1.266 . S
C11 Tb1 2.809 . S
C11 C12 1.514 . S
C11 O26 1.248 . S
C11 O27 1.266 . S
C12 C11 1.514 . S
C12 C13 1.359 . S
C12 C17 1.348 . S
C13 C12 1.359 . S
C13 C14 1.380 . S
C13 H36 0.929 . S
C14 C13 1.380 . S
C14 C15 1.347 . S
C14 H37 0.931 . S
C15 C14 1.347 . S
C15 C16 1.369 . S
C16 C15 1.369 . S
C16 C17 1.408 . S
C16 H38 0.930 . S
C17 C12 1.348 . S
C17 C16 1.408 . S
C17 H39 0.930 . S
C18 O28 1.281 . S
C18 O29 1.254 1_556 S
C19 O30 1.236 . S
C19 O31 1.266 . S
O20 Tb0 2.484 . S
O20 C2 1.248 . S
O21 Tb0 2.440 . S
O21 C2 1.266 . S
O22 Tb0 2.658 1_554 S
O22 Tb1 2.325 . S
O22 C9 1.281 . S
O23 Tb0 2.409 . S
O23 C9 1.254 1_556 S
O24 Tb0 2.378 . S
O24 C10 1.236 . S
O25 Tb1 2.341 1_556 S
O25 C10 1.266 . S
O26 Tb1 2.484 . S
O26 C11 1.248 . S
O27 Tb1 2.440 . S
O27 C11 1.266 . S
O28 Tb0 2.325 . S
O28 Tb1 2.658 1_556 S
O28 C18 1.281 . S
O29 Tb1 2.409 . S
O29 C18 1.254 1_554 S
O30 Tb1 2.378 . S
O30 C19 1.236 . S
O31 Tb0 2.341 1_554 S
O31 C19 1.266 . S
H32 C4 0.929 . S
H33 C5 0.931 . S
H34 C7 0.930 . S
H35 C8 0.930 . S
H36 C13 0.929 . S
H37 C14 0.931 . S
H38 C16 0.930 . S
H39 C17 0.930 . S
Tb40 C42 2.809 . S
Tb40 O60 2.484 . S
Tb40 O61 2.440 . S
Tb40 O62 2.658 . S
Tb40 O63 2.409 . S
Tb40 O64 2.378 . S
Tb40 O68 2.325 . S
Tb40 O71 2.341 . S
Tb41 C51 2.809 . S
Tb41 O62 2.325 . S
Tb41 O65 2.341 . S
Tb41 O66 2.484 . S
Tb41 O67 2.440 . S
Tb41 O68 2.658 . S
Tb41 O69 2.409 . S
Tb41 O70 2.378 . S
C42 Tb40 2.809 . S
C42 C43 1.514 . S
C42 O60 1.248 . S
C42 O61 1.266 . S
C43 C42 1.514 . S
C43 C44 1.359 . S
C43 C48 1.348 . S
C44 C43 1.359 . S
C44 C45 1.380 . S
C44 H72 0.929 . S
C45 C44 1.380 . S
C45 C46 1.347 . S
C45 H73 0.931 . S
C46 C45 1.347 . S
C46 C47 1.369 . S
C47 C46 1.369 . S
C47 C48 1.408 . S
C47 H74 0.930 . S
C48 C43 1.348 . S
C48 C47 1.408 . S
C48 H75 0.930 . S
C49 O62 1.281 . S
C49 O63 1.254 . S
C50 O64 1.236 . S
C50 O65 1.266 . S
C51 Tb41 2.809 . S
C51 C52 1.514 . S
C51 O66 1.248 . S
C51 O67 1.266 . S
C52 C51 1.514 . S
C52 C53 1.359 . S
C52 C57 1.348 . S
C53 C52 1.359 . S
C53 C54 1.380 . S
C53 H76 0.929 . S
C54 C53 1.380 . S
C54 C55 1.347 . S
C54 H77 0.931 . S
C55 C54 1.347 . S
C55 C56 1.369 . S
C56 C55 1.369 . S
C56 C57 1.408 . S
C56 H78 0.930 . S
C57 C52 1.348 . S
C57 C56 1.408 . S
C57 H79 0.930 . S
C58 O68 1.281 . S
C58 O69 1.254 . S
C59 O70 1.236 . S
C59 O71 1.266 . S
O60 Tb40 2.484 . S
O60 C42 1.248 . S
O61 Tb40 2.440 . S
O61 C42 1.266 . S
O62 Tb40 2.658 . S
O62 Tb41 2.325 . S
O62 C49 1.281 . S
O63 Tb40 2.409 . S
O63 C49 1.254 . S
O64 Tb40 2.378 . S
O64 C50 1.236 . S
O65 Tb41 2.341 . S
O65 C50 1.266 . S
O66 Tb41 2.484 . S
O66 C51 1.248 . S
O67 Tb41 2.440 . S
O67 C51 1.266 . S
O68 Tb40 2.325 . S
O68 Tb41 2.658 . S
O68 C58 1.281 . S
O69 Tb41 2.409 . S
O69 C58 1.254 . S
O70 Tb41 2.378 . S
O70 C59 1.236 . S
O71 Tb40 2.341 . S
O71 C59 1.266 . S
H72 C44 0.929 . S
H73 C45 0.931 . S
H74 C47 0.930 . S
H75 C48 0.930 . S
H76 C53 0.929 . S
H77 C54 0.931 . S
H78 C56 0.930 . S
H79 C57 0.930 . S
Tb80 C82 2.809 . S
Tb80 O100 2.484 . S
Tb80 O101 2.440 . S
Tb80 O102 2.658 . S
Tb80 O103 2.409 . S
Tb80 O104 2.378 . S
Tb80 O108 2.325 . S
Tb80 O111 2.341 . S
Tb81 C91 2.809 . S
Tb81 O102 2.325 . S
Tb81 O105 2.341 . S
Tb81 O106 2.484 . S
Tb81 O107 2.440 . S
Tb81 O108 2.658 . S
Tb81 O109 2.409 . S
Tb81 O110 2.378 . S
C82 Tb80 2.809 . S
C82 C83 1.514 . S
C82 O100 1.248 . S
C82 O101 1.266 . S
C83 C82 1.514 . S
C83 C84 1.359 . S
C83 C88 1.348 . S
C84 C83 1.359 . S
C84 C85 1.380 . S
C84 H112 0.929 . S
C85 C84 1.380 . S
C85 C86 1.347 . S
C85 H113 0.931 . S
C86 C85 1.347 . S
C86 C87 1.369 . S
C87 C86 1.369 . S
C87 C88 1.408 . S
C87 H114 0.930 . S
C88 C83 1.348 . S
C88 C87 1.408 . S
C88 H115 0.930 . S
C89 O102 1.281 . S
C89 O103 1.254 . S
C90 O104 1.236 . S
C90 O105 1.266 . S
C91 Tb81 2.809 . S
C91 C92 1.514 . S
C91 O106 1.248 . S
C91 O107 1.266 . S
C92 C91 1.514 . S
C92 C93 1.359 . S
C92 C97 1.348 . S
C93 C92 1.359 . S
C93 C94 1.380 . S
C93 H116 0.929 . S
C94 C93 1.380 . S
C94 C95 1.347 . S
C94 H117 0.931 . S
C95 C94 1.347 . S
C95 C96 1.369 . S
C96 C95 1.369 . S
C96 C97 1.408 . S
C96 H118 0.930 . S
C97 C92 1.348 . S
C97 C96 1.408 . S
C97 H119 0.930 . S
C98 O108 1.281 . S
C98 O109 1.254 . S
C99 O110 1.236 . S
C99 O111 1.266 . S
O100 Tb80 2.484 . S
O100 C82 1.248 . S
O101 Tb80 2.440 . S
O101 C82 1.266 . S
O102 Tb80 2.658 . S
O102 Tb81 2.325 . S
O102 C89 1.281 . S
O103 Tb80 2.409 . S
O103 C89 1.254 . S
O104 Tb80 2.378 . S
O104 C90 1.236 . S
O105 Tb81 2.341 . S
O105 C90 1.266 . S
O106 Tb81 2.484 . S
O106 C91 1.248 . S
O107 Tb81 2.440 . S
O107 C91 1.266 . S
O108 Tb80 2.325 . S
O108 Tb81 2.658 . S
O108 C98 1.281 . S
O109 Tb81 2.409 . S
O109 C98 1.254 . S
O110 Tb81 2.378 . S
O110 C99 1.236 . S
O111 Tb80 2.341 . S
O111 C99 1.266 . S
H112 C84 0.929 . S
H113 C85 0.931 . S
H114 C87 0.930 . S
H115 C88 0.930 . S
H116 C93 0.929 . S
H117 C94 0.931 . S
H118 C96 0.930 . S
H119 C97 0.930 . S
Tb120 C122 2.809 . S
Tb120 O140 2.484 . S
Tb120 O141 2.440 . S
Tb120 O142 2.658 1_556 S
Tb120 O143 2.409 . S
Tb120 O144 2.378 . S
Tb120 O148 2.325 . S
Tb120 O151 2.341 1_556 S
Tb121 C131 2.809 . S
Tb121 O142 2.325 . S
Tb121 O145 2.341 1_554 S
Tb121 O146 2.484 . S
Tb121 O147 2.440 . S
Tb121 O148 2.658 1_554 S
Tb121 O149 2.409 . S
Tb121 O150 2.378 . S
C122 Tb120 2.809 . S
C122 C123 1.514 . S
C122 O140 1.248 . S
C122 O141 1.266 . S
C123 C122 1.514 . S
C123 C124 1.359 . S
C123 C128 1.348 . S
C124 C123 1.359 . S
C124 C125 1.380 . S
C124 H152 0.929 . S
C125 C124 1.380 . S
C125 C126 1.347 . S
C125 H153 0.931 . S
C126 C125 1.347 . S
C126 C127 1.369 . S
C127 C126 1.369 . S
C127 C128 1.408 . S
C127 H154 0.930 . S
C128 C123 1.348 . S
C128 C127 1.408 . S
C128 H155 0.930 . S
C129 O142 1.281 . S
C129 O143 1.254 1_554 S
C130 O144 1.236 . S
C130 O145 1.266 . S
C131 Tb121 2.809 . S
C131 C132 1.514 . S
C131 O146 1.248 . S
C131 O147 1.266 . S
C132 C131 1.514 . S
C132 C133 1.359 . S
C132 C137 1.348 . S
C133 C132 1.359 . S
C133 C134 1.380 . S
C133 H156 0.929 . S
C134 C133 1.380 . S
C134 C135 1.347 . S
C134 H157 0.931 . S
C135 C134 1.347 . S
C135 C136 1.369 . S
C136 C135 1.369 . S
C136 C137 1.408 . S
C136 H158 0.930 . S
C137 C132 1.348 . S
C137 C136 1.408 . S
C137 H159 0.930 . S
C138 O148 1.281 . S
C138 O149 1.254 1_556 S
C139 O150 1.236 . S
C139 O151 1.266 . S
O140 Tb120 2.484 . S
O140 C122 1.248 . S
O141 Tb120 2.440 . S
O141 C122 1.266 . S
O142 Tb120 2.658 1_554 S
O142 Tb121 2.325 . S
O142 C129 1.281 . S
O143 Tb120 2.409 . S
O143 C129 1.254 1_556 S
O144 Tb120 2.378 . S
O144 C130 1.236 . S
O145 Tb121 2.341 1_556 S
O145 C130 1.266 . S
O146 Tb121 2.484 . S
O146 C131 1.248 . S
O147 Tb121 2.440 . S
O147 C131 1.266 . S
O148 Tb120 2.325 . S
O148 Tb121 2.658 1_556 S
O148 C138 1.281 . S
O149 Tb121 2.409 . S
O149 C138 1.254 1_554 S
O150 Tb121 2.378 . S
O150 C139 1.236 . S
O151 Tb120 2.341 1_554 S
O151 C139 1.266 . S
H152 C124 0.929 . S
H153 C125 0.931 . S
H154 C127 0.930 . S
H155 C128 0.930 . S
H156 C133 0.929 . S
H157 C134 0.931 . S
H158 C136 0.930 . S
H159 C137 0.930 . S
Tb160 C162 2.809 . S
Tb160 O180 2.484 . S
Tb160 O181 2.440 . S
Tb160 O182 2.658 . S
Tb160 O183 2.409 . S
Tb160 O184 2.378 . S
Tb160 O188 2.325 . S
Tb160 O191 2.341 . S
Tb161 C171 2.809 . S
Tb161 O182 2.325 . S
Tb161 O185 2.341 . S
Tb161 O186 2.484 . S
Tb161 O187 2.440 . S
Tb161 O188 2.658 . S
Tb161 O189 2.409 . S
Tb161 O190 2.378 . S
C162 Tb160 2.809 . S
C162 C163 1.514 . S
C162 O180 1.248 . S
C162 O181 1.266 . S
C163 C162 1.514 . S
C163 C164 1.359 . S
C163 C168 1.348 . S
C164 C163 1.359 . S
C164 C165 1.380 . S
C164 H192 0.929 . S
C165 C164 1.380 . S
C165 C166 1.347 . S
C165 H193 0.931 . S
C166 C165 1.347 . S
C166 C167 1.369 . S
C167 C166 1.369 . S
C167 C168 1.408 . S
C167 H194 0.930 . S
C168 C163 1.348 . S
C168 C167 1.408 . S
C168 H195 0.930 . S
C169 O182 1.281 . S
C169 O183 1.254 . S
C170 O184 1.236 . S
C170 O185 1.266 . S
C171 Tb161 2.809 . S
C171 C172 1.514 . S
C171 O186 1.248 . S
C171 O187 1.266 . S
C172 C171 1.514 . S
C172 C173 1.359 . S
C172 C177 1.348 . S
C173 C172 1.359 . S
C173 C174 1.380 . S
C173 H196 0.929 . S
C174 C173 1.380 . S
C174 C175 1.347 . S
C174 H197 0.931 . S
C175 C174 1.347 . S
C175 C176 1.369 . S
C176 C175 1.369 . S
C176 C177 1.408 . S
C176 H198 0.930 . S
C177 C172 1.348 . S
C177 C176 1.408 . S
C177 H199 0.930 . S
C178 O188 1.281 . S
C178 O189 1.254 . S
C179 O190 1.236 . S
C179 O191 1.266 . S
O180 Tb160 2.484 . S
O180 C162 1.248 . S
O181 Tb160 2.440 . S
O181 C162 1.266 . S
O182 Tb160 2.658 . S
O182 Tb161 2.325 . S
O182 C169 1.281 . S
O183 Tb160 2.409 . S
O183 C169 1.254 . S
O184 Tb160 2.378 . S
O184 C170 1.236 . S
O185 Tb161 2.341 . S
O185 C170 1.266 . S
O186 Tb161 2.484 . S
O186 C171 1.248 . S
O187 Tb161 2.440 . S
O187 C171 1.266 . S
O188 Tb160 2.325 . S
O188 Tb161 2.658 . S
O188 C178 1.281 . S
O189 Tb161 2.409 . S
O189 C178 1.254 . S
O190 Tb161 2.378 . S
O190 C179 1.236 . S
O191 Tb160 2.341 . S
O191 C179 1.266 . S
H192 C164 0.929 . S
H193 C165 0.931 . S
H194 C167 0.930 . S
H195 C168 0.930 . S
H196 C173 0.929 . S
H197 C174 0.931 . S
H198 C176 0.930 . S
H199 C177 0.930 . S
Tb200 C202 2.809 . S
Tb200 O220 2.484 . S
Tb200 O221 2.440 . S
Tb200 O222 2.658 . S
Tb200 O223 2.409 . S
Tb200 O224 2.378 . S
Tb200 O228 2.325 . S
Tb200 O231 2.341 . S
Tb201 C211 2.809 . S
Tb201 O222 2.325 . S
Tb201 O225 2.341 . S
Tb201 O226 2.484 . S
Tb201 O227 2.440 . S
Tb201 O228 2.658 . S
Tb201 O229 2.409 . S
Tb201 O230 2.378 . S
C202 Tb200 2.809 . S
C202 C203 1.514 . S
C202 O220 1.248 . S
C202 O221 1.266 . S
C203 C202 1.514 . S
C203 C204 1.359 . S
C203 C208 1.348 . S
C204 C203 1.359 . S
C204 C205 1.380 . S
C204 H232 0.929 . S
C205 C204 1.380 . S
C205 C206 1.347 . S
C205 H233 0.931 . S
C206 C205 1.347 . S
C206 C207 1.369 . S
C207 C206 1.369 . S
C207 C208 1.408 . S
C207 H234 0.930 . S
C208 C203 1.348 . S
C208 C207 1.408 . S
C208 H235 0.930 . S
C209 O222 1.281 . S
C209 O223 1.254 . S
C210 O224 1.236 . S
C210 O225 1.266 . S
C211 Tb201 2.809 . S
C211 C212 1.514 . S
C211 O226 1.248 . S
C211 O227 1.266 . S
C212 C211 1.514 . S
C212 C213 1.359 . S
C212 C217 1.348 . S
C213 C212 1.359 . S
C213 C214 1.380 . S
C213 H236 0.929 . S
C214 C213 1.380 . S
C214 C215 1.347 . S
C214 H237 0.931 . S
C215 C214 1.347 . S
C215 C216 1.369 . S
C216 C215 1.369 . S
C216 C217 1.408 . S
C216 H238 0.930 . S
C217 C212 1.348 . S
C217 C216 1.408 . S
C217 H239 0.930 . S
C218 O228 1.281 . S
C218 O229 1.254 . S
C219 O230 1.236 . S
C219 O231 1.266 . S
O220 Tb200 2.484 . S
O220 C202 1.248 . S
O221 Tb200 2.440 . S
O221 C202 1.266 . S
O222 Tb200 2.658 . S
O222 Tb201 2.325 . S
O222 C209 1.281 . S
O223 Tb200 2.409 . S
O223 C209 1.254 . S
O224 Tb200 2.378 . S
O224 C210 1.236 . S
O225 Tb201 2.341 . S
O225 C210 1.266 . S
O226 Tb201 2.484 . S
O226 C211 1.248 . S
O227 Tb201 2.440 . S
O227 C211 1.266 . S
O228 Tb200 2.325 . S
O228 Tb201 2.658 . S
O228 C218 1.281 . S
O229 Tb201 2.409 . S
O229 C218 1.254 . S
O230 Tb201 2.378 . S
O230 C219 1.236 . S
O231 Tb200 2.341 . S
O231 C219 1.266 . S
H232 C204 0.929 . S
H233 C205 0.931 . S
H234 C207 0.930 . S
H235 C208 0.930 . S
H236 C213 0.929 . S
H237 C214 0.931 . S
H238 C216 0.930 . S
H239 C217 0.930 . S
C240 C241 1.391 . S
C240 C242 1.394 . S
C240 H256 0.931 . S
C241 C240 1.391 . S
C241 C245 1.376 . S
C242 C240 1.394 . S
C242 C243 1.369 . S
C242 C246 1.531 . S
C243 C242 1.369 . S
C243 C244 1.410 . S
C243 C251 1.503 . S
C244 C243 1.410 . S
C244 C245 1.392 . S
C244 C247 1.511 . S
C245 C241 1.376 . S
C245 C244 1.392 . S
C245 H257 0.929 . S
C246 C242 1.531 . S
C246 H258 0.960 . S
C246 H259 0.962 . S
C246 H260 0.960 . S
C247 C244 1.511 . S
C247 H261 0.961 . S
C247 H262 0.961 . S
C247 H263 0.961 . S
C248 C249 1.370 . S
C248 C250 1.363 . S
C248 H264 0.931 . S
C249 C248 1.370 . S
C249 C253 1.408 . S
C250 C248 1.363 . S
C250 C251 1.370 . S
C250 C254 1.524 . S
C251 C243 1.503 . S
C251 C250 1.370 . S
C251 C252 1.403 . S
C252 C251 1.403 . S
C252 C253 1.404 . S
C252 C255 1.539 . S
C253 C249 1.408 . S
C253 C252 1.404 . S
C253 H265 0.930 . S
C254 C250 1.524 . S
C254 H266 0.956 . S
C254 H267 0.961 . S
C254 H268 0.961 . S
C255 C252 1.539 . S
C255 H269 0.958 . S
C255 H270 0.961 . S
C255 H271 0.960 . S
H256 C240 0.931 . S
H257 C245 0.929 . S
H258 C246 0.960 . S
H259 C246 0.962 . S
H260 C246 0.960 . S
H261 C247 0.961 . S
H262 C247 0.961 . S
H263 C247 0.961 . S
H264 C248 0.931 . S
H265 C253 0.930 . S
H266 C254 0.956 . S
H267 C254 0.961 . S
H268 C254 0.961 . S
H269 C255 0.958 . S
H270 C255 0.961 . S
H271 C255 0.960 . S
C272 C273 1.391 . S
C272 C274 1.394 . S
C272 H288 0.931 . S
C273 C272 1.391 . S
C273 C277 1.376 . S
C274 C272 1.394 . S
C274 C275 1.369 . S
C274 C278 1.531 . S
C275 C274 1.369 . S
C275 C276 1.410 . S
C275 C283 1.503 1_455 S
C276 C275 1.410 . S
C276 C277 1.392 . S
C276 C279 1.511 1_455 S
C277 C273 1.376 . S
C277 C276 1.392 . S
C277 H289 0.929 . S
C278 C274 1.531 . S
C278 H290 0.960 . S
C278 H291 0.962 . S
C278 H292 0.960 . S
C279 C276 1.511 1_655 S
C279 H293 0.961 . S
C279 H294 0.961 . S
C279 H295 0.961 . S
C280 C281 1.370 . S
C280 C282 1.363 . S
C280 H296 0.931 . S
C281 C280 1.370 . S
C281 C285 1.408 . S
C282 C280 1.363 . S
C282 C283 1.370 . S
C282 C286 1.524 1_655 S
C283 C275 1.503 1_655 S
C283 C282 1.370 . S
C283 C284 1.403 . S
C284 C283 1.403 . S
C284 C285 1.404 . S
C284 C287 1.539 . S
C285 C281 1.408 . S
C285 C284 1.404 . S
C285 H297 0.930 . S
C286 C282 1.524 1_455 S
C286 H298 0.956 . S
C286 H299 0.961 . S
C286 H300 0.961 . S
C287 C284 1.539 . S
C287 H301 0.958 . S
C287 H302 0.961 . S
C287 H303 0.960 . S
H288 C272 0.931 . S
H289 C277 0.929 . S
H290 C278 0.960 . S
H291 C278 0.962 . S
H292 C278 0.960 . S
H293 C279 0.961 . S
H294 C279 0.961 . S
H295 C279 0.961 . S
H296 C280 0.931 . S
H297 C285 0.930 . S
H298 C286 0.956 . S
H299 C286 0.961 . S
H300 C286 0.961 . S
H301 C287 0.958 . S
H302 C287 0.961 . S
H303 C287 0.960 . S
C304 C305 1.391 . S
C304 C306 1.394 . S
C304 H320 0.931 . S
C305 C304 1.391 . S
C305 C309 1.376 . S
C306 C304 1.394 . S
C306 C307 1.369 . S
C306 C310 1.531 1_545 S
C307 C306 1.369 . S
C307 C308 1.410 . S
C307 C315 1.503 1_545 S
C308 C307 1.410 . S
C308 C309 1.392 . S
C308 C311 1.511 . S
C309 C305 1.376 . S
C309 C308 1.392 . S
C309 H321 0.929 . S
C310 C306 1.531 1_565 S
C310 H322 0.960 . S
C310 H323 0.962 . S
C310 H324 0.960 . S
C311 C308 1.511 . S
C311 H325 0.961 . S
C311 H326 0.961 . S
C311 H327 0.961 . S
C312 C313 1.370 . S
C312 C314 1.363 . S
C312 H328 0.931 . S
C313 C312 1.370 . S
C313 C317 1.408 . S
C314 C312 1.363 . S
C314 C315 1.370 . S
C314 C318 1.524 1_565 S
C315 C307 1.503 1_565 S
C315 C314 1.370 . S
C315 C316 1.403 . S
C316 C315 1.403 . S
C316 C317 1.404 . S
C316 C319 1.539 . S
C317 C313 1.408 . S
C317 C316 1.404 . S
C317 H329 0.930 . S
C318 C314 1.524 1_545 S
C318 H330 0.956 . S
C318 H331 0.961 . S
C318 H332 0.961 . S
C319 C316 1.539 . S
C319 H333 0.958 . S
C319 H334 0.961 . S
C319 H335 0.960 . S
H320 C304 0.931 . S
H321 C309 0.929 . S
H322 C310 0.960 . S
H323 C310 0.962 . S
H324 C310 0.960 . S
H325 C311 0.961 . S
H326 C311 0.961 . S
H327 C311 0.961 . S
H328 C312 0.931 . S
H329 C317 0.930 . S
H330 C318 0.956 . S
H331 C318 0.961 . S
H332 C318 0.961 . S
H333 C319 0.958 . S
H334 C319 0.961 . S
H335 C319 0.960 . S
C336 C337 1.391 . S
C336 C338 1.394 . S
C336 H352 0.931 . S
C337 C336 1.391 . S
C337 C341 1.376 . S
C338 C336 1.394 . S
C338 C339 1.369 . S
C338 C342 1.531 . S
C339 C338 1.369 . S
C339 C340 1.410 . S
C339 C347 1.503 . S
C340 C339 1.410 . S
C340 C341 1.392 . S
C340 C343 1.511 . S
C341 C337 1.376 . S
C341 C340 1.392 . S
C341 H353 0.929 . S
C342 C338 1.531 . S
C342 H354 0.960 . S
C342 H355 0.962 . S
C342 H356 0.960 . S
C343 C340 1.511 . S
C343 H357 0.961 . S
C343 H358 0.961 . S
C343 H359 0.961 . S
C344 C345 1.370 . S
C344 C346 1.363 . S
C344 H360 0.931 . S
C345 C344 1.370 . S
C345 C349 1.408 . S
C346 C344 1.363 . S
C346 C347 1.370 . S
C346 C350 1.524 . S
C347 C339 1.503 . S
C347 C346 1.370 . S
C347 C348 1.403 . S
C348 C347 1.403 . S
C348 C349 1.404 . S
C348 C351 1.539 . S
C349 C345 1.408 . S
C349 C348 1.404 . S
C349 H361 0.930 . S
C350 C346 1.524 . S
C350 H362 0.956 . S
C350 H363 0.961 . S
C350 H364 0.961 . S
C351 C348 1.539 . S
C351 H365 0.958 . S
C351 H366 0.961 . S
C351 H367 0.960 . S
H352 C336 0.931 . S
H353 C341 0.929 . S
H354 C342 0.960 . S
H355 C342 0.962 . S
H356 C342 0.960 . S
H357 C343 0.961 . S
H358 C343 0.961 . S
H359 C343 0.961 . S
H360 C344 0.931 . S
H361 C349 0.930 . S
H362 C350 0.956 . S
H363 C350 0.961 . S
H364 C350 0.961 . S
H365 C351 0.958 . S
H366 C351 0.961 . S
H367 C351 0.960 . S
C368 C369 1.391 . S
C368 C370 1.394 . S
C368 H384 0.931 . S
C369 C368 1.391 . S
C369 C373 1.376 . S
C370 C368 1.394 . S
C370 C371 1.369 . S
C370 C374 1.531 . S
C371 C370 1.369 . S
C371 C372 1.410 . S
C371 C379 1.503 1_455 S
C372 C371 1.410 . S
C372 C373 1.392 . S
C372 C375 1.511 . S
C373 C369 1.376 . S
C373 C372 1.392 . S
C373 H385 0.929 . S
C374 C370 1.531 . S
C374 H386 0.960 . S
C374 H387 0.962 1_455 S
C374 H388 0.960 . S
C375 C372 1.511 . S
C375 H389 0.961 . S
C375 H390 0.961 . S
C375 H391 0.961 . S
C376 C377 1.370 . S
C376 C378 1.363 . S
C376 H392 0.931 . S
C377 C376 1.370 . S
C377 C381 1.408 . S
C378 C376 1.363 . S
C378 C379 1.370 . S
C378 C382 1.524 . S
C379 C371 1.503 1_655 S
C379 C378 1.370 . S
C379 C380 1.403 . S
C380 C379 1.403 . S
C380 C381 1.404 . S
C380 C383 1.539 1_655 S
C381 C377 1.408 . S
C381 C380 1.404 . S
C381 H393 0.930 . S
C382 C378 1.524 . S
C382 H394 0.956 . S
C382 H395 0.961 . S
C382 H396 0.961 . S
C383 C380 1.539 1_455 S
C383 H397 0.958 . S
C383 H398 0.961 . S
C383 H399 0.960 . S
H384 C368 0.931 . S
H385 C373 0.929 . S
H386 C374 0.960 . S
H387 C374 0.962 1_655 S
H388 C374 0.960 . S
H389 C375 0.961 . S
H390 C375 0.961 . S
H391 C375 0.961 . S
H392 C376 0.931 . S
H393 C381 0.930 . S
H394 C382 0.956 . S
H395 C382 0.961 . S
H396 C382 0.961 . S
H397 C383 0.958 . S
H398 C383 0.961 . S
H399 C383 0.960 . S
C400 C401 1.391 . S
C400 C402 1.394 . S
C400 H416 0.931 . S
C401 C400 1.391 . S
C401 C405 1.376 . S
C402 C400 1.394 . S
C402 C403 1.369 . S
C402 C406 1.531 . S
C403 C402 1.369 . S
C403 C404 1.410 . S
C403 C411 1.503 1_545 S
C404 C403 1.410 . S
C404 C405 1.392 . S
C404 C407 1.511 . S
C405 C401 1.376 . S
C405 C404 1.392 . S
C405 H417 0.929 . S
C406 C402 1.531 . S
C406 H418 0.960 1_545 S
C406 H419 0.962 . S
C406 H420 0.960 . S
C407 C404 1.511 . S
C407 H421 0.961 . S
C407 H422 0.961 . S
C407 H423 0.966 . S
C408 C409 1.370 . S
C408 C410 1.363 . S
C408 H424 0.931 . S
C409 C408 1.370 . S
C409 C413 1.408 . S
C410 C408 1.363 . S
C410 C411 1.370 . S
C410 C414 1.524 1_565 S
C411 C403 1.503 1_565 S
C411 C410 1.370 . S
C411 C412 1.403 . S
C412 C411 1.403 . S
C412 C413 1.404 . S
C412 C415 1.539 . S
C413 C409 1.408 . S
C413 C412 1.404 . S
C413 H425 0.930 . S
C414 C410 1.524 1_545 S
C414 H426 0.956 . S
C414 H427 0.961 . S
C414 H428 0.961 . S
C415 C412 1.539 . S
C415 H429 0.958 . S
C415 H430 0.961 . S
C415 H431 0.960 . S
H416 C400 0.931 . S
H417 C405 0.929 . S
H418 C406 0.960 1_565 S
H419 C406 0.962 . S
H420 C406 0.960 . S
H421 C407 0.961 . S
H422 C407 0.961 . S
H423 C407 0.966 . S
H424 C408 0.931 . S
H425 C413 0.930 . S
H426 C414 0.956 . S
H427 C414 0.961 . S
H428 C414 0.961 . S
H429 C415 0.958 . S
H430 C415 0.961 . S
H431 C415 0.960 . S
C432 C433 1.391 . S
C432 C434 1.394 . S
C432 H448 0.931 . S
C433 C432 1.391 . S
C433 C437 1.376 . S
C434 C432 1.394 . S
C434 C435 1.369 . S
C434 C438 1.531 . S
C435 C434 1.369 . S
C435 C436 1.410 . S
C435 C443 1.503 . S
C436 C435 1.410 . S
C436 C437 1.392 . S
C436 C439 1.511 . S
C437 C433 1.376 . S
C437 C436 1.392 . S
C437 H449 0.929 . S
C438 C434 1.531 . S
C438 H450 0.960 . S
C438 H451 0.962 . S
C438 H452 0.960 . S
C439 C436 1.511 . S
C439 H453 0.961 . S
C439 H454 0.961 . S
C439 H455 0.961 . S
C440 C441 1.370 . S
C440 C442 1.363 . S
C440 H456 0.931 . S
C441 C440 1.370 . S
C441 C445 1.408 . S
C442 C440 1.363 . S
C442 C443 1.370 . S
C442 C446 1.524 . S
C443 C435 1.503 . S
C443 C442 1.370 . S
C443 C444 1.403 . S
C444 C443 1.403 . S
C444 C445 1.404 . S
C444 C447 1.539 . S
C445 C441 1.408 . S
C445 C444 1.404 . S
C445 H457 0.930 . S
C446 C442 1.524 . S
C446 H458 0.956 . S
C446 H459 0.961 . S
C446 H460 0.961 . S
C447 C444 1.539 . S
C447 H461 0.958 . S
C447 H462 0.961 . S
C447 H463 0.960 . S
H448 C432 0.931 . S
H449 C437 0.929 . S
H450 C438 0.960 . S
H451 C438 0.962 . S
H452 C438 0.960 . S
H453 C439 0.961 . S
H454 C439 0.961 . S
H455 C439 0.961 . S
H456 C440 0.931 . S
H457 C445 0.930 . S
H458 C446 0.956 . S
H459 C446 0.961 . S
H460 C446 0.961 . S
H461 C447 0.958 . S
H462 C447 0.961 . S
H463 C447 0.960 . S
C464 C465 1.391 . S
C464 C466 1.394 . S
C464 H480 0.931 . S
C465 C464 1.391 . S
C465 C469 1.376 . S
C466 C464 1.394 . S
C466 C467 1.369 . S
C466 C470 1.531 . S
C467 C466 1.369 . S
C467 C468 1.410 . S
C467 C475 1.503 . S
C468 C467 1.410 . S
C468 C469 1.392 . S
C468 C471 1.511 . S
C469 C465 1.376 . S
C469 C468 1.392 . S
C469 H481 0.929 . S
C470 C466 1.531 . S
C470 H482 0.960 . S
C470 H483 0.962 . S
C470 H484 0.960 . S
C471 C468 1.511 . S
C471 H485 0.961 . S
C471 H486 0.961 . S
C471 H487 0.961 . S
C472 C473 1.370 . S
C472 C474 1.363 . S
C472 H488 0.931 . S
C473 C472 1.370 . S
C473 C477 1.408 . S
C474 C472 1.363 . S
C474 C475 1.370 . S
C474 C478 1.524 . S
C475 C467 1.503 . S
C475 C474 1.370 . S
C475 C476 1.403 . S
C476 C475 1.403 . S
C476 C477 1.404 . S
C476 C479 1.539 . S
C477 C473 1.408 . S
C477 C476 1.404 . S
C477 H489 0.930 . S
C478 C474 1.524 . S
C478 H490 0.956 . S
C478 H491 0.961 . S
C478 H492 0.961 . S
C479 C476 1.539 . S
C479 H493 0.958 . S
C479 H494 0.961 . S
C479 H495 0.960 . S
H480 C464 0.931 . S
H481 C469 0.929 . S
H482 C470 0.960 . S
H483 C470 0.962 . S
H484 C470 0.960 . S
H485 C471 0.961 . S
H486 C471 0.961 . S
H487 C471 0.961 . S
H488 C472 0.931 . S
H489 C477 0.930 . S
H490 C478 0.956 . S
H491 C478 0.961 . S
H492 C478 0.961 . S
H493 C479 0.958 . S
H494 C479 0.961 . S
H495 C479 0.960 . S
C496 C497 1.391 . S
C496 C498 1.394 . S
C496 H512 0.931 . S
C497 C496 1.391 . S
C497 C501 1.376 . S
C498 C496 1.394 . S
C498 C499 1.369 . S
C498 C502 1.531 . S
C499 C498 1.369 . S
C499 C500 1.410 . S
C499 C507 1.503 . S
C500 C499 1.410 . S
C500 C501 1.392 . S
C500 C503 1.511 . S
C501 C497 1.376 . S
C501 C500 1.392 . S
C501 H513 0.929 . S
C502 C498 1.531 . S
C502 H514 0.960 . S
C502 H515 0.962 . S
C502 H516 0.960 . S
C503 C500 1.511 . S
C503 H517 0.961 . S
C503 H518 0.961 . S
C503 H519 0.961 . S
C504 C505 1.370 . S
C504 C506 1.363 . S
C504 H520 0.931 . S
C505 C504 1.370 . S
C505 C509 1.408 . S
C506 C504 1.363 . S
C506 C507 1.370 . S
C506 C510 1.524 . S
C507 C499 1.503 . S
C507 C506 1.370 . S
C507 C508 1.403 . S
C508 C507 1.403 . S
C508 C509 1.404 . S
C508 C511 1.539 . S
C509 C505 1.408 . S
C509 C508 1.404 . S
C509 H521 0.930 . S
C510 C506 1.524 . S
C510 H522 0.956 . S
C510 H523 0.961 . S
C510 H524 0.961 . S
C511 C508 1.539 . S
C511 H525 0.958 . S
C511 H526 0.961 . S
C511 H527 0.960 . S
H512 C496 0.931 . S
H513 C501 0.929 . S
H514 C502 0.960 . S
H515 C502 0.962 . S
H516 C502 0.960 . S
H517 C503 0.961 . S
H518 C503 0.961 . S
H519 C503 0.961 . S
H520 C504 0.931 . S
H521 C509 0.930 . S
H522 C510 0.956 . S
H523 C510 0.961 . S
H524 C510 0.961 . S
H525 C511 0.958 . S
H526 C511 0.961 . S
H527 C511 0.960 . S
C528 C529 1.391 . S
C528 C530 1.394 . S
C528 H544 0.931 . S
C529 C528 1.391 . S
C529 C533 1.376 . S
C530 C528 1.394 . S
C530 C531 1.369 . S
C530 C534 1.531 . S
C531 C530 1.369 . S
C531 C532 1.410 . S
C531 C539 1.503 . S
C532 C531 1.410 . S
C532 C533 1.392 . S
C532 C535 1.511 . S
C533 C529 1.376 . S
C533 C532 1.392 . S
C533 H545 0.929 . S
C534 C530 1.531 . S
C534 H546 0.960 . S
C534 H547 0.962 . S
C534 H548 0.960 . S
C535 C532 1.511 . S
C535 H549 0.961 . S
C535 H550 0.961 . S
C535 H551 0.961 . S
C536 C537 1.370 . S
C536 C538 1.363 . S
C536 H552 0.931 . S
C537 C536 1.370 . S
C537 C541 1.408 . S
C538 C536 1.363 . S
C538 C539 1.370 . S
C538 C542 1.524 . S
C539 C531 1.503 . S
C539 C538 1.370 . S
C539 C540 1.403 . S
C540 C539 1.403 . S
C540 C541 1.404 . S
C540 C543 1.539 . S
C541 C537 1.408 . S
C541 C540 1.404 . S
C541 H553 0.930 . S
C542 C538 1.524 . S
C542 H554 0.956 . S
C542 H555 0.961 . S
C542 H556 0.961 . S
C543 C540 1.539 . S
C543 H557 0.958 . S
C543 H558 0.961 . S
C543 H559 0.960 . S
H544 C528 0.931 . S
H545 C533 0.929 . S
H546 C534 0.960 . S
H547 C534 0.962 . S
H548 C534 0.960 . S
H549 C535 0.961 . S
H550 C535 0.961 . S
H551 C535 0.961 . S
H552 C536 0.931 . S
H553 C541 0.930 . S
H554 C542 0.956 . S
H555 C542 0.961 . S
H556 C542 0.961 . S
H557 C543 0.958 . S
H558 C543 0.961 . S
H559 C543 0.960 . S
C560 C561 1.391 . S
C560 C562 1.394 . S
C560 H576 0.931 . S
C561 C560 1.391 . S
C561 C565 1.376 . S
C562 C560 1.394 . S
C562 C563 1.369 . S
C562 C566 1.531 . S
C563 C562 1.369 . S
C563 C564 1.410 . S
C563 C571 1.503 . S
C564 C563 1.410 . S
C564 C565 1.392 . S
C564 C567 1.511 . S
C565 C561 1.376 . S
C565 C564 1.392 . S
C565 H577 0.929 . S
C566 C562 1.531 . S
C566 H578 0.960 . S
C566 H579 0.962 . S
C566 H580 0.960 . S
C567 C564 1.511 . S
C567 H581 0.961 . S
C567 H582 0.961 . S
C567 H583 0.961 . S
C568 C569 1.370 . S
C568 C570 1.363 . S
C568 H584 0.931 . S
C569 C568 1.370 . S
C569 C573 1.408 . S
C570 C568 1.363 . S
C570 C571 1.370 . S
C570 C574 1.524 . S
C571 C563 1.503 . S
C571 C570 1.370 . S
C571 C572 1.403 . S
C572 C571 1.403 . S
C572 C573 1.404 . S
C572 C575 1.539 . S
C573 C569 1.408 . S
C573 C572 1.404 . S
C573 H585 0.930 . S
C574 C570 1.524 . S
C574 H586 0.956 . S
C574 H587 0.961 . S
C574 H588 0.961 . S
C575 C572 1.539 . S
C575 H589 0.958 . S
C575 H590 0.961 . S
C575 H591 0.960 . S
H576 C560 0.931 . S
H577 C565 0.929 . S
H578 C566 0.960 . S
H579 C566 0.962 . S
H580 C566 0.960 . S
H581 C567 0.961 . S
H582 C567 0.961 . S
H583 C567 0.961 . S
H584 C568 0.931 . S
H585 C573 0.930 . S
H586 C574 0.956 . S
H587 C574 0.961 . S
H588 C574 0.961 . S
H589 C575 0.958 . S
H590 C575 0.961 . S
H591 C575 0.960 . S
C592 C593 1.391 . S
C592 C594 1.394 . S
C592 H608 0.931 . S
C593 C592 1.391 . S
C593 C597 1.376 . S
C594 C592 1.394 . S
C594 C595 1.369 . S
C594 C598 1.531 . S
C595 C594 1.369 . S
C595 C596 1.410 . S
C595 C603 1.503 . S
C596 C595 1.410 . S
C596 C597 1.392 . S
C596 C599 1.511 . S
C597 C593 1.376 . S
C597 C596 1.392 . S
C597 H609 0.929 . S
C598 C594 1.531 . S
C598 H610 0.960 . S
C598 H611 0.962 . S
C598 H612 0.960 . S
C599 C596 1.511 . S
C599 H613 0.961 . S
C599 H614 0.961 . S
C599 H615 0.961 . S
C600 C601 1.370 . S
C600 C602 1.363 . S
C600 H616 0.931 . S
C601 C600 1.370 . S
C601 C605 1.408 . S
C602 C600 1.363 . S
C602 C603 1.370 . S
C602 C606 1.524 . S
C603 C595 1.503 . S
C603 C602 1.370 . S
C603 C604 1.403 . S
C604 C603 1.403 . S
C604 C605 1.404 . S
C604 C607 1.539 . S
C605 C601 1.408 . S
C605 C604 1.404 . S
C605 H617 0.930 . S
C606 C602 1.524 . S
C606 H618 0.956 . S
C606 H619 0.961 . S
C606 H620 0.961 . S
C607 C604 1.539 . S
C607 H621 0.958 . S
C607 H622 0.961 . S
C607 H623 0.960 . S
H608 C592 0.931 . S
H609 C597 0.929 . S
H610 C598 0.960 . S
H611 C598 0.962 . S
H612 C598 0.960 . S
H613 C599 0.961 . S
H614 C599 0.961 . S
H615 C599 0.961 . S
H616 C600 0.931 . S
H617 C605 0.930 . S
H618 C606 0.956 . S
H619 C606 0.961 . S
H620 C606 0.961 . S
H621 C607 0.958 . S
H622 C607 0.961 . S
H623 C607 0.960 . S
C624 C625 1.391 . S
C624 C626 1.394 . S
C624 H640 0.931 . S
C625 C624 1.391 . S
C625 C629 1.376 . S
C626 C624 1.394 . S
C626 C627 1.369 . S
C626 C630 1.531 . S
C627 C626 1.369 . S
C627 C628 1.410 . S
C627 C635 1.503 . S
C628 C627 1.410 . S
C628 C629 1.392 . S
C628 C631 1.511 . S
C629 C625 1.376 . S
C629 C628 1.392 . S
C629 H641 0.929 . S
C630 C626 1.531 . S
C630 H642 0.960 . S
C630 H643 0.962 . S
C630 H644 0.960 . S
C631 C628 1.511 . S
C631 H645 0.961 . S
C631 H646 0.961 . S
C631 H647 0.961 . S
C632 C633 1.370 . S
C632 C634 1.363 . S
C632 H648 0.931 . S
C633 C632 1.370 . S
C633 C637 1.408 . S
C634 C632 1.363 . S
C634 C635 1.370 . S
C634 C638 1.524 . S
C635 C627 1.503 . S
C635 C634 1.370 . S
C635 C636 1.403 . S
C636 C635 1.403 . S
C636 C637 1.404 . S
C636 C639 1.539 . S
C637 C633 1.408 . S
C637 C636 1.404 . S
C637 H649 0.930 . S
C638 C634 1.524 . S
C638 H650 0.956 . S
C638 H651 0.961 . S
C638 H652 0.961 . S
C639 C636 1.539 . S
C639 H653 0.958 . S
C639 H654 0.961 . S
C639 H655 0.960 . S
H640 C624 0.931 . S
H641 C629 0.929 . S
H642 C630 0.960 . S
H643 C630 0.962 . S
H644 C630 0.960 . S
H645 C631 0.961 . S
H646 C631 0.961 . S
H647 C631 0.961 . S
H648 C632 0.931 . S
H649 C637 0.930 . S
H650 C638 0.956 . S
H651 C638 0.961 . S
H652 C638 0.961 . S
H653 C639 0.958 . S
H654 C639 0.961 . S
H655 C639 0.960 . S
C656 C657 1.391 . S
C656 C658 1.394 . S
C656 H672 0.931 . S
C657 C656 1.391 . S
C657 C661 1.376 . S
C658 C656 1.394 . S
C658 C659 1.369 . S
C658 C662 1.531 . S
C659 C658 1.369 . S
C659 C660 1.410 . S
C659 C667 1.503 . S
C660 C659 1.410 . S
C660 C661 1.392 . S
C660 C663 1.511 . S
C661 C657 1.376 . S
C661 C660 1.392 . S
C661 H673 0.929 . S
C662 C658 1.531 . S
C662 H674 0.960 . S
C662 H675 0.962 . S
C662 H676 0.960 . S
C663 C660 1.511 . S
C663 H677 0.961 . S
C663 H678 0.961 . S
C663 H679 0.961 . S
C664 C665 1.370 . S
C664 C666 1.363 . S
C664 H680 0.931 . S
C665 C664 1.370 . S
C665 C669 1.408 . S
C666 C664 1.363 . S
C666 C667 1.370 . S
C666 C670 1.524 . S
C667 C659 1.503 . S
C667 C666 1.370 . S
C667 C668 1.403 . S
C668 C667 1.403 . S
C668 C669 1.404 . S
C668 C671 1.539 . S
C669 C665 1.408 . S
C669 C668 1.404 . S
C669 H681 0.930 . S
C670 C666 1.524 . S
C670 H682 0.956 . S
C670 H683 0.961 . S
C670 H684 0.961 . S
C671 C668 1.539 . S
C671 H685 0.958 . S
C671 H686 0.961 . S
C671 H687 0.960 . S
H672 C656 0.931 . S
H673 C661 0.929 . S
H674 C662 0.960 . S
H675 C662 0.962 . S
H676 C662 0.960 . S
H677 C663 0.961 . S
H678 C663 0.961 . S
H679 C663 0.961 . S
H680 C664 0.931 . S
H681 C669 0.930 . S
H682 C670 0.956 . S
H683 C670 0.961 . S
H684 C670 0.961 . S
H685 C671 0.958 . S
H686 C671 0.961 . S
H687 C671 0.960 . S
C688 C689 1.391 . S
C688 C690 1.394 . S
C688 H704 0.931 . S
C689 C688 1.391 . S
C689 C693 1.376 . S
C690 C688 1.394 . S
C690 C691 1.369 . S
C690 C694 1.531 . S
C691 C690 1.369 . S
C691 C692 1.410 . S
C691 C699 1.503 . S
C692 C691 1.410 . S
C692 C693 1.392 . S
C692 C695 1.511 . S
C693 C689 1.376 . S
C693 C692 1.392 . S
C693 H705 0.929 . S
C694 C690 1.531 . S
C694 H706 0.960 . S
C694 H707 0.962 . S
C694 H708 0.960 . S
C695 C692 1.511 . S
C695 H709 0.961 . S
C695 H710 0.961 . S
C695 H711 0.961 . S
C696 C697 1.370 . S
C696 C698 1.363 . S
C696 H712 0.931 . S
C697 C696 1.370 . S
C697 C701 1.408 . S
C698 C696 1.363 . S
C698 C699 1.370 . S
C698 C702 1.524 . S
C699 C691 1.503 . S
C699 C698 1.370 . S
C699 C700 1.403 . S
C700 C699 1.403 . S
C700 C701 1.404 . S
C700 C703 1.539 . S
C701 C697 1.408 . S
C701 C700 1.404 . S
C701 H713 0.930 . S
C702 C698 1.524 . S
C702 H714 0.956 . S
C702 H715 0.961 . S
C702 H716 0.961 . S
C703 C700 1.539 . S
C703 H717 0.958 . S
C703 H718 0.961 . S
C703 H719 0.960 . S
H704 C688 0.931 . S
H705 C693 0.929 . S
H706 C694 0.960 . S
H707 C694 0.962 . S
H708 C694 0.960 . S
H709 C695 0.961 . S
H710 C695 0.961 . S
H711 C695 0.961 . S
H712 C696 0.931 . S
H713 C701 0.930 . S
H714 C702 0.956 . S
H715 C702 0.961 . S
H716 C702 0.961 . S
H717 C703 0.958 . S
H718 C703 0.961 . S
H719 C703 0.960 . S
C720 C721 1.391 . S
C720 C722 1.394 . S
C720 H736 0.931 . S
C721 C720 1.391 . S
C721 C725 1.376 . S
C722 C720 1.394 . S
C722 C723 1.369 . S
C722 C726 1.531 . S
C723 C722 1.369 . S
C723 C724 1.410 . S
C723 C731 1.503 . S
C724 C723 1.410 . S
C724 C725 1.392 . S
C724 C727 1.511 . S
C725 C721 1.376 . S
C725 C724 1.392 . S
C725 H737 0.929 . S
C726 C722 1.531 . S
C726 H738 0.960 . S
C726 H739 0.962 . S
C726 H740 0.960 . S
C727 C724 1.511 . S
C727 H741 0.961 . S
C727 H742 0.961 . S
C727 H743 0.961 . S
C728 C729 1.370 . S
C728 C730 1.363 . S
C728 H744 0.931 . S
C729 C728 1.370 . S
C729 C733 1.408 . S
C730 C728 1.363 . S
C730 C731 1.370 . S
C730 C734 1.524 . S
C731 C723 1.503 . S
C731 C730 1.370 . S
C731 C732 1.403 . S
C732 C731 1.403 . S
C732 C733 1.404 . S
C732 C735 1.539 . S
C733 C729 1.408 . S
C733 C732 1.404 . S
C733 H745 0.930 . S
C734 C730 1.524 . S
C734 H746 0.956 . S
C734 H747 0.961 . S
C734 H748 0.961 . S
C735 C732 1.539 . S
C735 H749 0.958 . S
C735 H750 0.961 . S
C735 H751 0.960 . S
H736 C720 0.931 . S
H737 C725 0.929 . S
H738 C726 0.960 . S
H739 C726 0.962 . S
H740 C726 0.960 . S
H741 C727 0.961 . S
H742 C727 0.961 . S
H743 C727 0.961 . S
H744 C728 0.931 . S
H745 C733 0.930 . S
H746 C734 0.956 . S
H747 C734 0.961 . S
H748 C734 0.961 . S
H749 C735 0.958 . S
H750 C735 0.961 . S
H751 C735 0.960 . S
C752 C753 1.391 . S
C752 C754 1.394 . S
C752 H768 0.931 . S
C753 C752 1.391 . S
C753 C757 1.376 . S
C754 C752 1.394 . S
C754 C755 1.369 . S
C754 C758 1.531 . S
C755 C754 1.369 . S
C755 C756 1.410 . S
C755 C763 1.503 . S
C756 C755 1.410 . S
C756 C757 1.392 . S
C756 C759 1.511 . S
C757 C753 1.376 . S
C757 C756 1.392 . S
C757 H769 0.929 . S
C758 C754 1.531 . S
C758 H770 0.960 . S
C758 H771 0.962 . S
C758 H772 0.960 . S
C759 C756 1.511 . S
C759 H773 0.961 . S
C759 H774 0.961 . S
C759 H775 0.961 . S
C760 C761 1.370 . S
C760 C762 1.363 . S
C760 H776 0.931 . S
C761 C760 1.370 . S
C761 C765 1.408 . S
C762 C760 1.363 . S
C762 C763 1.370 . S
C762 C766 1.524 . S
C763 C755 1.503 . S
C763 C762 1.370 . S
C763 C764 1.403 . S
C764 C763 1.403 . S
C764 C765 1.404 . S
C764 C767 1.539 . S
C765 C761 1.408 . S
C765 C764 1.404 . S
C765 H777 0.930 . S
C766 C762 1.524 . S
C766 H778 0.956 . S
C766 H779 0.961 . S
C766 H780 0.961 . S
C767 C764 1.539 . S
C767 H781 0.958 . S
C767 H782 0.961 . S
C767 H783 0.960 . S
H768 C752 0.931 . S
H769 C757 0.929 . S
H770 C758 0.960 . S
H771 C758 0.962 . S
H772 C758 0.960 . S
H773 C759 0.961 . S
H774 C759 0.961 . S
H775 C759 0.961 . S
H776 C760 0.931 . S
H777 C765 0.930 . S
H778 C766 0.956 . S
H779 C766 0.961 . S
H780 C766 0.961 . S
H781 C767 0.958 . S
H782 C767 0.961 . S
H783 C767 0.960 . S
C784 C785 1.391 . S
C784 C786 1.394 . S
C784 H800 0.931 . S
C785 C784 1.391 . S
C785 C789 1.376 . S
C786 C784 1.394 . S
C786 C787 1.369 . S
C786 C790 1.531 . S
C787 C786 1.369 . S
C787 C788 1.410 . S
C787 C795 1.503 . S
C788 C787 1.410 . S
C788 C789 1.392 . S
C788 C791 1.511 . S
C789 C785 1.376 . S
C789 C788 1.392 . S
C789 H801 0.929 . S
C790 C786 1.531 . S
C790 H802 0.960 . S
C790 H803 0.962 . S
C790 H804 0.960 . S
C791 C788 1.511 . S
C791 H805 0.961 . S
C791 H806 0.961 . S
C791 H807 0.961 . S
C792 C793 1.370 . S
C792 C794 1.363 . S
C792 H808 0.931 . S
C793 C792 1.370 . S
C793 C797 1.408 . S
C794 C792 1.363 . S
C794 C795 1.370 . S
C794 C798 1.524 . S
C795 C787 1.503 . S
C795 C794 1.370 . S
C795 C796 1.403 . S
C796 C795 1.403 . S
C796 C797 1.404 . S
C796 C799 1.539 . S
C797 C793 1.408 . S
C797 C796 1.404 . S
C797 H809 0.930 . S
C798 C794 1.524 . S
C798 H810 0.956 . S
C798 H811 0.961 . S
C798 H812 0.961 . S
C799 C796 1.539 . S
C799 H813 0.958 . S
C799 H814 0.961 . S
C799 H815 0.960 . S
H800 C784 0.931 . S
H801 C789 0.929 . S
H802 C790 0.960 . S
H803 C790 0.962 . S
H804 C790 0.960 . S
H805 C791 0.961 . S
H806 C791 0.961 . S
H807 C791 0.961 . S
H808 C792 0.931 . S
H809 C797 0.930 . S
H810 C798 0.956 . S
H811 C798 0.961 . S
H812 C798 0.961 . S
H813 C799 0.958 . S
H814 C799 0.961 . S
H815 C799 0.960 . S
C241 C209 1.283 . S
C249 C10 1.385 . S
C273 C9 1.286 . S
C281 C50 1.385 . S
C305 C49 1.329 . S
C313 C90 1.389 . S
C337 C89 1.291 . S
C345 C130 1.385 . S
C369 C170 1.384 . S
C377 C129 1.321 . S
C401 C210 1.386 . S
C409 C169 1.334 . S
C433 C6 1.466 . S
C441 C15 1.501 . S
C465 C46 1.485 1_556 S
C473 C55 1.493 . S
C497 C86 1.475 . S
C505 C95 1.502 1_554 S
C529 C126 1.487 . S
C537 C135 1.492 . S
C561 C175 1.530 . S
C569 C166 1.477 1_556 S
C593 C206 1.511 . S
C601 C215 1.487 1_554 S
C625 C19 1.716 . S
C633 C178 1.717 . S
C657 C59 1.718 . S
C665 C218 1.715 . S
C689 C18 1.712 . S
C697 C99 1.714 . S
C721 C58 1.705 . S
C729 C139 1.717 . S
C753 C179 1.721 . S
C761 C98 1.713 . S
C785 C138 1.722 . S
C793 C219 1.705 . S
