# Generated by pormake.
# Topology uoy, (4)-cn, num edge types: 1
# Building blocks:
#     Node 0, Type 0, BuildingBlock: CEKHIL_clean_sbu_0, # of connection points: 4
#     Node 1, Type 0, BuildingBlock: CEKHIL_clean_sbu_0, # of connection points: 4
#     Node 2, Type 0, BuildingBlock: CEKHIL_clean_sbu_0, # of connection points: 4
#     Node 3, Type 0, BuildingBlock: CEKHIL_clean_sbu_0, # of connection points: 4
#     Node 4, Type 0, BuildingBlock: CEKHIL_clean_sbu_0, # of connection points: 4
#     Node 5, Type 0, BuildingBlock: CEKHIL_clean_sbu_0, # of connection points: 4
#     Node 6, Type 0, BuildingBlock: CEKHIL_clean_sbu_0, # of connection points: 4
#     Node 7, Type 0, BuildingBlock: CEKHIL_clean_sbu_0, # of connection points: 4
#     Node 8, Type 0, BuildingBlock: CEKHIL_clean_sbu_0, # of connection points: 4
#     Node 9, Type 0, BuildingBlock: CEKHIL_clean_sbu_0, # of connection points: 4
#     Node 10, Type 0, BuildingBlock: CEKHIL_clean_sbu_0, # of connection points: 4
#     Node 11, Type 0, BuildingBlock: CEKHIL_clean_sbu_0, # of connection points: 4
#     Node 12, Type 0, BuildingBlock: CEKHIL_clean_sbu_0, # of connection points: 4
#     Node 13, Type 0, BuildingBlock: CEKHIL_clean_sbu_0, # of connection points: 4
#     Node 14, Type 0, BuildingBlock: CEKHIL_clean_sbu_0, # of connection points: 4
#     Node 15, Type 0, BuildingBlock: CEKHIL_clean_sbu_0, # of connection points: 4
#     Edge 16, Type (0, 0), BuildingBlock: ZUJKAS_clean_linker_0, # of connection points: 2
#     Edge 17, Type (0, 0), BuildingBlock: ZUJKAS_clean_linker_0, # of connection points: 2
#     Edge 18, Type (0, 0), BuildingBlock: ZUJKAS_clean_linker_0, # of connection points: 2
#     Edge 19, Type (0, 0), BuildingBlock: ZUJKAS_clean_linker_0, # of connection points: 2
#     Edge 20, Type (0, 0), BuildingBlock: ZUJKAS_clean_linker_0, # of connection points: 2
#     Edge 21, Type (0, 0), BuildingBlock: ZUJKAS_clean_linker_0, # of connection points: 2
#     Edge 22, Type (0, 0), BuildingBlock: ZUJKAS_clean_linker_0, # of connection points: 2
#     Edge 23, Type (0, 0), BuildingBlock: ZUJKAS_clean_linker_0, # of connection points: 2
#     Edge 24, Type (0, 0), BuildingBlock: ZUJKAS_clean_linker_0, # of connection points: 2
#     Edge 25, Type (0, 0), BuildingBlock: ZUJKAS_clean_linker_0, # of connection points: 2
#     Edge 26, Type (0, 0), BuildingBlock: ZUJKAS_clean_linker_0, # of connection points: 2
#     Edge 27, Type (0, 0), BuildingBlock: ZUJKAS_clean_linker_0, # of connection points: 2
#     Edge 28, Type (0, 0), BuildingBlock: ZUJKAS_clean_linker_0, # of connection points: 2
#     Edge 29, Type (0, 0), BuildingBlock: ZUJKAS_clean_linker_0, # of connection points: 2
#     Edge 30, Type (0, 0), BuildingBlock: ZUJKAS_clean_linker_0, # of connection points: 2
#     Edge 31, Type (0, 0), BuildingBlock: ZUJKAS_clean_linker_0, # of connection points: 2
#     Edge 32, Type (0, 0), BuildingBlock: ZUJKAS_clean_linker_0, # of connection points: 2
#     Edge 33, Type (0, 0), BuildingBlock: ZUJKAS_clean_linker_0, # of connection points: 2
#     Edge 34, Type (0, 0), BuildingBlock: ZUJKAS_clean_linker_0, # of connection points: 2
#     Edge 35, Type (0, 0), BuildingBlock: ZUJKAS_clean_linker_0, # of connection points: 2
#     Edge 36, Type (0, 0), BuildingBlock: ZUJKAS_clean_linker_0, # of connection points: 2
#     Edge 37, Type (0, 0), BuildingBlock: ZUJKAS_clean_linker_0, # of connection points: 2
#     Edge 38, Type (0, 0), BuildingBlock: ZUJKAS_clean_linker_0, # of connection points: 2
#     Edge 39, Type (0, 0), BuildingBlock: ZUJKAS_clean_linker_0, # of connection points: 2
#     Edge 40, Type (0, 0), BuildingBlock: ZUJKAS_clean_linker_0, # of connection points: 2
#     Edge 41, Type (0, 0), BuildingBlock: ZUJKAS_clean_linker_0, # of connection points: 2
#     Edge 42, Type (0, 0), BuildingBlock: ZUJKAS_clean_linker_0, # of connection points: 2
#     Edge 43, Type (0, 0), BuildingBlock: ZUJKAS_clean_linker_0, # of connection points: 2
#     Edge 44, Type (0, 0), BuildingBlock: ZUJKAS_clean_linker_0, # of connection points: 2
#     Edge 45, Type (0, 0), BuildingBlock: ZUJKAS_clean_linker_0, # of connection points: 2
#     Edge 46, Type (0, 0), BuildingBlock: ZUJKAS_clean_linker_0, # of connection points: 2
#     Edge 47, Type (0, 0), BuildingBlock: ZUJKAS_clean_linker_0, # of connection points: 2
# Relax obj value: 0.040
# Max RMSD: 0.062
# Mean RMSD: 0.062
data_MOF--net-uoy--node1-CEKHIL_clean_sbu_0--edge1-ZUJKAS_clean_linker_0
_symmetry_space_group_name_H-M    P1
_symmetry_Int_Tables_number       1
_symmetry_cell_setting            triclinic
loop_
_symmetry_equiv_pos_as_xyz
'x, y, z'
_cell_length_a     35.452851
_cell_length_b     35.451463
_cell_length_c     138.53583
_cell_angle_alpha  89.986375
_cell_angle_beta   90.008156
_cell_angle_gamma 90.001411
loop_
_atom_site_label
_atom_site_type_symbol
_atom_site_fract_x
_atom_site_fract_y
_atom_site_fract_z
_atom_type_partial_charge
Co0 Co 0.2429 0.11466 0.18716 0.0
O1 O 0.18893 0.12034 0.18803 0.0
O2 O 0.21767 0.07216 0.18108 0.0
C3 C 0.25554 0.12934 0.20268 0.0
O4 O 0.29808 0.09848 0.18533 0.0
Co5 Co 0.29537 0.18377 0.1907 0.0
O6 O 0.33583 0.14521 0.19061 0.0
C7 C 0.25175 0.17846 0.17263 0.0
C8 C 0.18614 0.08832 0.18357 0.0
C9 C 0.33099 0.11172 0.18749 0.0
O10 O 0.24301 0.14399 0.1746 0.0
O11 O 0.26936 0.1999 0.17855 0.0
O12 O 0.24487 0.09541 0.20041 0.0
O13 O 0.25459 0.15358 0.19575 0.0
Co14 Co 0.89185 0.74194 0.43756 0.0
O15 O 0.88857 0.68787 0.4385 0.0
O16 O 0.93527 0.71843 0.43139 0.0
C17 C 0.87747 0.75431 0.45311 0.0
O18 O 0.90509 0.79782 0.43564 0.0
Co19 Co 0.8199 0.79018 0.44115 0.0
O20 O 0.85629 0.83268 0.44101 0.0
C21 C 0.82722 0.74692 0.42313 0.0
C22 C 0.9204 0.68631 0.43392 0.0
C23 C 0.88997 0.82986 0.43784 0.0
O24 O 0.8622 0.74046 0.42506 0.0
O25 O 0.80473 0.76303 0.42906 0.0
O26 O 0.91173 0.7453 0.45071 0.0
O27 O 0.8528 0.7517 0.44629 0.0
Co28 Co 0.25972 0.39046 0.68703 0.0
O29 O 0.31339 0.38332 0.68835 0.0
O30 O 0.28691 0.43216 0.68112 0.0
C31 C 0.24465 0.37618 0.70244 0.0
O32 O 0.20522 0.40821 0.68475 0.0
Co33 Co 0.20492 0.32268 0.69013 0.0
O34 O 0.16553 0.3621 0.68949 0.0
C35 C 0.24863 0.32806 0.67208 0.0
C36 C 0.31765 0.41518 0.68388 0.0
C37 C 0.1717 0.3955 0.68647 0.0
O38 O 0.26038 0.36123 0.67444 0.0
O39 O 0.22876 0.30729 0.67767 0.0
O40 O 0.2567 0.40974 0.70026 0.0
O41 O 0.24579 0.35188 0.69552 0.0
Co42 Co 0.61357 0.76103 0.93721 0.0
O43 O 0.61875 0.81504 0.938 0.0
O44 O 0.57003 0.78571 0.93145 0.0
C45 C 0.63009 0.74845 0.95261 0.0
O46 O 0.59807 0.70565 0.93549 0.0
Co47 Co 0.68411 0.71001 0.9401 0.0
O48 O 0.64636 0.66875 0.94023 0.0
C49 C 0.67553 0.75336 0.9221 0.0
C50 C 0.58627 0.81741 0.93375 0.0
C51 C 0.61234 0.67297 0.93743 0.0
O52 O 0.64123 0.76134 0.92442 0.0
O53 O 0.69825 0.73621 0.92779 0.0
O54 O 0.59583 0.75877 0.95057 0.0
O55 O 0.65364 0.74989 0.94552 0.0
Co56 Co 0.24452 0.39049 0.06214 0.0
O57 O 0.1905 0.38491 0.06143 0.0
O58 O 0.21963 0.4331 0.06827 0.0
C59 C 0.25644 0.37573 0.04658 0.0
O60 O 0.29984 0.40653 0.06382 0.0
Co61 Co 0.29676 0.32132 0.05844 0.0
O62 O 0.33714 0.35992 0.05828 0.0
C63 C 0.2547 0.32705 0.07676 0.0
C64 C 0.18797 0.41698 0.06588 0.0
C65 C 0.33259 0.39332 0.06149 0.0
O66 O 0.2451 0.36124 0.07471 0.0
O67 O 0.27237 0.30568 0.07085 0.0
O68 O 0.24594 0.40969 0.04888 0.0
O69 O 0.25575 0.35151 0.05353 0.0
Co70 Co 0.61492 0.74332 0.31261 0.0
O71 O 0.61839 0.68924 0.31166 0.0
O72 O 0.57148 0.71964 0.31871 0.0
C73 C 0.62957 0.75587 0.29709 0.0
O74 O 0.60137 0.79916 0.31452 0.0
Co75 Co 0.68671 0.7919 0.30916 0.0
O76 O 0.65005 0.83413 0.30913 0.0
C77 C 0.67875 0.74954 0.32733 0.0
C78 C 0.58645 0.68757 0.31619 0.0
C79 C 0.61636 0.83124 0.31228 0.0
O80 O 0.64421 0.7419 0.32517 0.0
O81 O 0.70129 0.76627 0.32151 0.0
O82 O 0.59532 0.74665 0.29944 0.0
O83 O 0.65415 0.75331 0.30393 0.0
Co84 Co 0.26188 0.11505 0.5622 0.0
O85 O 0.31578 0.12169 0.56156 0.0
O86 O 0.28747 0.07235 0.5681 0.0
C87 C 0.24991 0.13081 0.54672 0.0
O88 O 0.20679 0.0979 0.56376 0.0
Co89 Co 0.2083 0.18339 0.55881 0.0
O90 O 0.16915 0.14372 0.55796 0.0
C91 C 0.24919 0.17642 0.57729 0.0
C92 C 0.31883 0.08932 0.56585 0.0
C93 C 0.17405 0.11037 0.56116 0.0
O94 O 0.26083 0.14324 0.57491 0.0
O95 O 0.23027 0.1977 0.57161 0.0
O96 O 0.26088 0.09686 0.54887 0.0
O97 O 0.25009 0.15457 0.55377 0.0
Co98 Co 0.89096 0.76077 0.81251 0.0
O99 O 0.8873 0.81451 0.81076 0.0
O100 O 0.93323 0.78608 0.81873 0.0
C101 C 0.87799 0.74529 0.79706 0.0
O102 O 0.90494 0.70564 0.81525 0.0
Co103 Co 0.82031 0.71045 0.80917 0.0
O104 O 0.85707 0.66852 0.81033 0.0
C105 C 0.82522 0.75718 0.82666 0.0
C106 C 0.91852 0.81741 0.81557 0.0
C107 C 0.89051 0.67285 0.81355 0.0
O108 O 0.86014 0.76426 0.8248 0.0
O109 O 0.80358 0.73939 0.82083 0.0
O110 O 0.912 0.75507 0.79952 0.0
O111 O 0.85281 0.74868 0.80372 0.0
Co112 Co 0.74193 0.61517 0.68744 0.0
O113 O 0.68806 0.61924 0.68881 0.0
O114 O 0.71696 0.57246 0.68132 0.0
C115 C 0.75626 0.62879 0.70292 0.0
O116 O 0.79731 0.60093 0.68512 0.0
Co117 Co 0.79205 0.68594 0.6908 0.0
O118 O 0.83359 0.64848 0.69058 0.0
C119 C 0.74803 0.67953 0.67286 0.0
C120 C 0.68539 0.5876 0.68418 0.0
C121 C 0.82981 0.61508 0.6873 0.0
O122 O 0.73971 0.64513 0.675 0.0
O123 O 0.76584 0.70148 0.67861 0.0
O124 O 0.74632 0.59479 0.70052 0.0
O125 O 0.75341 0.65377 0.69619 0.0
Co126 Co 0.39053 0.24296 0.9368 0.0
O127 O 0.38519 0.18902 0.93783 0.0
O128 O 0.43376 0.21777 0.93105 0.0
C129 C 0.37445 0.25655 0.95217 0.0
O130 O 0.40626 0.2982 0.93488 0.0
Co131 Co 0.32005 0.29425 0.93957 0.0
O132 O 0.35778 0.33549 0.9393 0.0
C133 C 0.32817 0.24977 0.92177 0.0
C134 C 0.41755 0.18625 0.93353 0.0
C135 C 0.39187 0.33101 0.9366 0.0
O136 O 0.36258 0.2421 0.92405 0.0
O137 O 0.30551 0.26706 0.92744 0.0
O138 O 0.4086 0.24586 0.95013 0.0
O139 O 0.35072 0.25478 0.94512 0.0
Co140 Co 0.76123 0.89163 0.18738 0.0
O141 O 0.8152 0.88706 0.18848 0.0
O142 O 0.78598 0.93475 0.18142 0.0
C143 C 0.74774 0.87674 0.20284 0.0
O144 O 0.70585 0.90643 0.18531 0.0
Co145 Co 0.71085 0.82091 0.19054 0.0
O146 O 0.66901 0.85798 0.18998 0.0
C147 C 0.7553 0.82794 0.17269 0.0
C148 C 0.81765 0.91903 0.18398 0.0
C149 C 0.67315 0.89186 0.18707 0.0
O150 O 0.7627 0.86257 0.1748 0.0
O151 O 0.73812 0.80561 0.17848 0.0
O152 O 0.75766 0.91091 0.20058 0.0
O153 O 0.75003 0.85235 0.19595 0.0
Co154 Co 0.11467 0.26014 0.43683 0.0
O155 O 0.12211 0.31394 0.43778 0.0
O156 O 0.07266 0.28688 0.43097 0.0
C157 C 0.1299 0.24644 0.45225 0.0
O158 O 0.09644 0.20556 0.43493 0.0
Co159 Co 0.18207 0.20498 0.43994 0.0
O160 O 0.14246 0.16573 0.43962 0.0
C161 C 0.17647 0.24828 0.42182 0.0
C162 C 0.08991 0.31782 0.43344 0.0
C163 C 0.10892 0.17202 0.43673 0.0
O164 O 0.14313 0.25964 0.42414 0.0
O165 O 0.19745 0.22892 0.42747 0.0
O166 O 0.09627 0.2585 0.45016 0.0
O167 O 0.15375 0.24666 0.44523 0.0
Co168 Co 0.74356 0.89171 0.56248 0.0
O169 O 0.68959 0.88749 0.56127 0.0
O170 O 0.71891 0.93499 0.56837 0.0
C171 C 0.75757 0.87659 0.54707 0.0
O172 O 0.79894 0.90625 0.56463 0.0
Co173 Co 0.79356 0.82056 0.55952 0.0
O174 O 0.83579 0.85706 0.56045 0.0
C175 C 0.74805 0.82794 0.57715 0.0
C176 C 0.68721 0.91954 0.56573 0.0
C177 C 0.83162 0.89119 0.56316 0.0
O178 O 0.74157 0.86281 0.57509 0.0
O179 O 0.76487 0.80536 0.57136 0.0
O180 O 0.74764 0.91081 0.54927 0.0
O181 O 0.75487 0.85229 0.55397 0.0
Co182 Co 0.11248 0.24346 0.81226 0.0
O183 O 0.11748 0.18974 0.81063 0.0
O184 O 0.07081 0.21735 0.81851 0.0
C185 C 0.12535 0.25877 0.79679 0.0
O186 O 0.09706 0.29833 0.81486 0.0
Co187 Co 0.18175 0.29575 0.80884 0.0
O188 O 0.14345 0.33642 0.80954 0.0
C189 C 0.17797 0.24927 0.82642 0.0
C190 C 0.08627 0.18628 0.81542 0.0
C191 C 0.11029 0.3314 0.81287 0.0
O192 O 0.14329 0.24112 0.82456 0.0
O193 O 0.19906 0.26768 0.82058 0.0
O194 O 0.09158 0.24804 0.79921 0.0
O195 O 0.1504 0.25638 0.8035 0.0
Co196 Co 0.76315 0.61447 0.0625 0.0
O197 O 0.81705 0.62021 0.06149 0.0
O198 O 0.78869 0.57157 0.06834 0.0
C199 C 0.74969 0.62996 0.04706 0.0
O200 O 0.708 0.59846 0.06444 0.0
Co201 Co 0.71143 0.68454 0.05947 0.0
O202 O 0.67028 0.64677 0.0601 0.0
C203 C 0.75662 0.67779 0.07719 0.0
C204 C 0.82008 0.58797 0.06584 0.0
C205 C 0.67504 0.61274 0.06283 0.0
O206 O 0.76371 0.643 0.07518 0.0
O207 O 0.73966 0.70008 0.07136 0.0
O208 O 0.76053 0.59594 0.04919 0.0
O209 O 0.75115 0.65388 0.05406 0.0
Co210 Co 0.39179 0.26194 0.31223 0.0
O211 O 0.38425 0.31576 0.31165 0.0
O212 O 0.43432 0.28819 0.31802 0.0
C213 C 0.37539 0.24982 0.2968 0.0
O214 O 0.40999 0.20712 0.3137 0.0
Co215 Co 0.32445 0.20688 0.309 0.0
O216 O 0.36518 0.16914 0.30753 0.0
C217 C 0.33148 0.24768 0.3275 0.0
C218 C 0.41676 0.3193 0.31584 0.0
C219 C 0.3984 0.17448 0.31078 0.0
O220 O 0.36419 0.2603 0.32503 0.0
O221 O 0.31047 0.22812 0.3219 0.0
O222 O 0.40925 0.26143 0.29882 0.0
O223 O 0.35208 0.24945 0.30395 0.0
H224 H 0.27236 0.25708 0.08364 0.0
H225 H 0.26337 0.23255 0.09987 0.0
H226 H 0.21001 0.33653 0.10841 0.0
H227 H 0.21885 0.36177 0.09205 0.0
H228 H 0.29458 0.27001 0.11669 0.0
H229 H 0.13912 0.24888 0.11863 0.0
H230 H 0.16428 0.25113 0.1073 0.0
H231 H 0.15584 0.29342 0.11405 0.0
C232 C 0.25835 0.27483 0.08889 0.0
C233 C 0.24653 0.31162 0.08651 0.0
C234 C 0.2532 0.26061 0.09818 0.0
C235 C 0.23584 0.28261 0.1053 0.0
C236 C 0.22306 0.31897 0.10296 0.0
H237 H 0.25812 0.25168 0.16675 0.0
H238 H 0.25063 0.27681 0.15051 0.0
C239 C 0.22833 0.33338 0.09363 0.0
C240 C 0.23414 0.26824 0.11532 0.0
H241 H 0.17424 0.23614 0.13281 0.0
C242 C 0.26828 0.26267 0.12023 0.0
C243 C 0.19978 0.2584 0.11984 0.0
C244 C 0.16256 0.26295 0.11471 0.0
C245 C 0.26902 0.24769 0.12958 0.0
C246 C 0.23467 0.23828 0.13417 0.0
C247 C 0.20046 0.24353 0.12926 0.0
C248 C 0.2343 0.22358 0.14416 0.0
C249 C 0.30659 0.24169 0.13448 0.0
C250 C 0.22638 0.18547 0.14601 0.0
C251 C 0.2307 0.17079 0.15535 0.0
C252 C 0.24303 0.1941 0.16294 0.0
C253 C 0.24908 0.2327 0.16108 0.0
C254 C 0.24473 0.24724 0.1518 0.0
H255 H 0.33047 0.24338 0.12931 0.0
H256 H 0.31069 0.26376 0.14006 0.0
H257 H 0.3074 0.2138 0.13813 0.0
H258 H 0.21826 0.16682 0.14018 0.0
H259 H 0.22564 0.14102 0.15653 0.0
H260 H 0.75376 0.7356 0.41812 0.0
H261 H 0.72784 0.72608 0.402 0.0
H262 H 0.84014 0.72879 0.39002 0.0
H263 H 0.86644 0.73709 0.40623 0.0
H264 H 0.73178 0.77468 0.38763 0.0
H265 H 0.79686 0.64065 0.37564 0.0
H266 H 0.79806 0.65599 0.38806 0.0
H267 H 0.83115 0.67473 0.37945 0.0
C268 C 0.77305 0.73357 0.41208 0.0
C269 C 0.81219 0.73722 0.41345 0.0
C270 C 0.75815 0.72809 0.40286 0.0
C271 C 0.78198 0.72635 0.39478 0.0
C272 C 0.82119 0.72908 0.39615 0.0
H273 H 0.75165 0.75246 0.33374 0.0
H274 H 0.77468 0.74312 0.35016 0.0
C275 C 0.8362 0.73406 0.40542 0.0
C276 C 0.76541 0.72517 0.38492 0.0
H277 H 0.76776 0.67839 0.36336 0.0
C278 C 0.73931 0.7533 0.38238 0.0
C279 C 0.77528 0.69735 0.37804 0.0
C280 C 0.80159 0.66526 0.38046 0.0
C281 C 0.72358 0.75497 0.3731 0.0
C282 C 0.73399 0.72762 0.36617 0.0
C283 C 0.75978 0.69925 0.36871 0.0
C284 C 0.72 0.72956 0.35611 0.0
C285 C 0.69683 0.7867 0.37066 0.0
C286 C 0.68166 0.72414 0.35398 0.0
C287 C 0.66826 0.72943 0.34457 0.0
C288 C 0.69302 0.74039 0.33713 0.0
C289 C 0.73166 0.74438 0.33927 0.0
C290 C 0.74498 0.7389 0.34866 0.0
H291 H 0.6968 0.8091 0.37627 0.0
H292 H 0.7044 0.7996 0.36361 0.0
H293 H 0.66776 0.77534 0.37004 0.0
H294 H 0.662 0.71654 0.35964 0.0
H295 H 0.63839 0.72595 0.34318 0.0
H296 H 0.21192 0.23212 0.58684 0.0
H297 H 0.22493 0.25739 0.60279 0.0
H298 H 0.31839 0.18041 0.60594 0.0
H299 H 0.30456 0.15378 0.58996 0.0
H300 H 0.27929 0.18242 0.62191 0.0
H301 H 0.30425 0.3297 0.61109 0.0
H302 H 0.25924 0.31477 0.60665 0.0
H303 H 0.30157 0.29195 0.60238 0.0
C304 C 0.23545 0.22064 0.59087 0.0
C305 C 0.25741 0.1911 0.58708 0.0
C306 C 0.2431 0.23543 0.59998 0.0
C307 C 0.27343 0.22173 0.60546 0.0
C308 C 0.29515 0.19182 0.60178 0.0
H309 H 0.30659 0.34774 0.65983 0.0
H310 H 0.32062 0.32041 0.64392 0.0
C311 C 0.28716 0.17654 0.59267 0.0
C312 C 0.28052 0.23736 0.61525 0.0
H313 H 0.28324 0.32048 0.62768 0.0
C314 C 0.28093 0.21258 0.62315 0.0
C315 C 0.28386 0.27665 0.61692 0.0
C316 C 0.28767 0.30467 0.60878 0.0
C317 C 0.28167 0.22615 0.63266 0.0
C318 C 0.28059 0.26558 0.63433 0.0
C319 C 0.28316 0.29027 0.62644 0.0
C320 C 0.27343 0.28159 0.64407 0.0
C321 C 0.28308 0.19795 0.64082 0.0
C322 C 0.24185 0.26957 0.64934 0.0
C323 C 0.23414 0.28468 0.65841 0.0
C324 C 0.25727 0.31295 0.66236 0.0
C325 C 0.28831 0.32594 0.65698 0.0
C326 C 0.29639 0.31027 0.64791 0.0
H327 H 0.29844 0.17203 0.6386 0.0
H328 H 0.29703 0.20984 0.64731 0.0
H329 H 0.25392 0.18945 0.64275 0.0
H330 H 0.22277 0.24869 0.64639 0.0
H331 H 0.20958 0.27451 0.66227 0.0
H332 H 0.75111 0.76598 0.83139 0.0
H333 H 0.72419 0.77589 0.84739 0.0
H334 H 0.83605 0.78029 0.8596 0.0
H335 H 0.8633 0.7715 0.84352 0.0
H336 H 0.73073 0.72833 0.862 0.0
H337 H 0.78703 0.86702 0.87343 0.0
H338 H 0.78937 0.85092 0.86109 0.0
H339 H 0.82345 0.83489 0.86981 0.0
C340 C 0.77007 0.76971 0.83745 0.0
C341 C 0.80939 0.7678 0.83618 0.0
C342 C 0.75459 0.77541 0.8466 0.0
C343 C 0.77802 0.77915 0.8547 0.0
C344 C 0.81735 0.77839 0.85344 0.0
H345 H 0.74838 0.75279 0.91567 0.0
H346 H 0.77098 0.76293 0.89924 0.0
C347 C 0.83293 0.77314 0.84424 0.0
C348 C 0.7611 0.78007 0.86452 0.0
H349 H 0.76018 0.82834 0.88587 0.0
C350 C 0.73679 0.75052 0.86717 0.0
C351 C 0.76907 0.80894 0.87128 0.0
C352 C 0.79336 0.84243 0.86873 0.0
C353 C 0.72106 0.74849 0.87644 0.0
C354 C 0.72966 0.77688 0.88324 0.0
C355 C 0.7536 0.80668 0.88061 0.0
C356 C 0.71582 0.77457 0.89331 0.0
C357 C 0.69633 0.71532 0.87901 0.0
C358 C 0.67731 0.77859 0.89544 0.0
C359 C 0.66417 0.77289 0.90486 0.0
C360 C 0.68935 0.76281 0.91228 0.0
C361 C 0.72809 0.76014 0.91013 0.0
C362 C 0.74116 0.7661 0.90075 0.0
H363 H 0.69719 0.69286 0.87342 0.0
H364 H 0.70513 0.703 0.88603 0.0
H365 H 0.66671 0.72501 0.87976 0.0
H366 H 0.65737 0.78539 0.88977 0.0
H367 H 0.63421 0.77529 0.90626 0.0
H368 H 0.73624 0.75465 0.58222 0.0
H369 H 0.72594 0.7291 0.59834 0.0
H370 H 0.72803 0.84168 0.61015 0.0
H371 H 0.73711 0.8676 0.59393 0.0
H372 H 0.77418 0.73356 0.61278 0.0
H373 H 0.63958 0.79842 0.62444 0.0
H374 H 0.65526 0.7994 0.61205 0.0
H375 H 0.6737 0.83271 0.62065 0.0
C376 C 0.73388 0.77407 0.58822 0.0
C377 C 0.73763 0.81318 0.58679 0.0
C378 C 0.72796 0.7594 0.59744 0.0
C379 C 0.72587 0.78341 0.60548 0.0
C380 C 0.72861 0.82259 0.60406 0.0
H381 H 0.75134 0.75261 0.66658 0.0
H382 H 0.74209 0.77609 0.65019 0.0
C383 C 0.73403 0.83739 0.59478 0.0
C384 C 0.72446 0.76704 0.61535 0.0
H385 H 0.67693 0.76942 0.63682 0.0
C386 C 0.75259 0.74107 0.61798 0.0
C387 C 0.69638 0.7769 0.62217 0.0
C388 C 0.66431 0.8031 0.61966 0.0
C389 C 0.75397 0.72541 0.62727 0.0
C390 C 0.72633 0.73578 0.63412 0.0
C391 C 0.69799 0.76148 0.63152 0.0
C392 C 0.7279 0.72167 0.64418 0.0
C393 C 0.78567 0.69875 0.6298 0.0
C394 C 0.72205 0.68336 0.64626 0.0
C395 C 0.72725 0.66971 0.65565 0.0
C396 C 0.73859 0.69419 0.66311 0.0
C397 C 0.74294 0.73284 0.66102 0.0
C398 C 0.73752 0.74642 0.65166 0.0
H399 H 0.80821 0.69862 0.62423 0.0
H400 H 0.79838 0.70649 0.63685 0.0
H401 H 0.77433 0.66968 0.63044 0.0
H402 H 0.71428 0.66389 0.64057 0.0
H403 H 0.72353 0.63985 0.657 0.0
H404 H 0.36948 0.22967 0.90579 0.0
H405 H 0.34602 0.22021 0.88931 0.0
H406 H 0.23215 0.23844 0.89913 0.0
H407 H 0.25506 0.24809 0.91556 0.0
H408 H 0.24875 0.17253 0.88477 0.0
H409 H 0.29801 0.31634 0.87446 0.0
H410 H 0.33019 0.28607 0.88089 0.0
H411 H 0.28885 0.3035 0.88685 0.0
C412 C 0.33941 0.23116 0.90448 0.0
C413 C 0.31421 0.24005 0.91199 0.0
C414 C 0.32609 0.22577 0.89506 0.0
C415 C 0.28742 0.22882 0.89304 0.0
C416 C 0.26209 0.23596 0.90057 0.0
H417 H 0.14056 0.22904 0.84301 0.0
H418 H 0.16788 0.21971 0.85907 0.0
C419 C 0.27533 0.24166 0.90995 0.0
C420 C 0.27346 0.22753 0.88299 0.0
H421 H 0.26681 0.28096 0.8626 0.0
C422 C 0.25283 0.19604 0.87987 0.0
C423 C 0.27879 0.25837 0.87669 0.0
C424 C 0.29998 0.29319 0.87984 0.0
C425 C 0.23754 0.19451 0.87051 0.0
C426 C 0.24231 0.2257 0.86425 0.0
C427 C 0.26323 0.25702 0.86739 0.0
C428 C 0.22573 0.22703 0.85441 0.0
C429 C 0.21695 0.15934 0.86738 0.0
C430 C 0.24905 0.23437 0.84645 0.0
C431 C 0.23352 0.24026 0.83732 0.0
C432 C 0.19422 0.2389 0.83593 0.0
C433 C 0.17092 0.23008 0.84383 0.0
C434 C 0.18654 0.22451 0.85301 0.0
H435 H 0.22531 0.13453 0.87179 0.0
H436 H 0.18617 0.16366 0.86833 0.0
H437 H 0.22242 0.15294 0.85966 0.0
H438 H 0.27934 0.23646 0.84735 0.0
H439 H 0.25236 0.24668 0.83139 0.0
H440 H 0.76699 0.63865 0.09411 0.0
H441 H 0.77474 0.66533 0.11034 0.0
H442 H 0.77718 0.77738 0.09823 0.0
H443 H 0.76835 0.75118 0.08211 0.0
H444 H 0.82751 0.71126 0.11922 0.0
H445 H 0.68947 0.78435 0.11679 0.0
H446 H 0.70418 0.74938 0.10813 0.0
H447 H 0.72131 0.79705 0.10727 0.0
C448 C 0.76957 0.66894 0.09491 0.0
C449 C 0.76639 0.69285 0.08685 0.0
C450 C 0.77397 0.68414 0.10418 0.0
C451 C 0.77551 0.72341 0.10551 0.0
C452 C 0.77488 0.74708 0.0974 0.0
H453 H 0.77467 0.86815 0.15648 0.0
H454 H 0.78456 0.84346 0.14013 0.0
C455 C 0.76999 0.73202 0.08818 0.0
C456 C 0.77607 0.73985 0.11536 0.0
H457 H 0.72735 0.7988 0.13037 0.0
C458 C 0.80561 0.73036 0.12167 0.0
C459 C 0.74735 0.76467 0.11856 0.0
C460 C 0.71359 0.7742 0.11238 0.0
C461 C 0.80739 0.7454 0.13105 0.0
C462 C 0.77881 0.77036 0.13419 0.0
C463 C 0.74946 0.78 0.12788 0.0
C464 C 0.77725 0.78499 0.14419 0.0
C465 C 0.83987 0.73471 0.13753 0.0
C466 C 0.77006 0.76025 0.15186 0.0
C467 C 0.76408 0.77421 0.16116 0.0
C468 C 0.76521 0.81327 0.16299 0.0
C469 C 0.7737 0.83794 0.15533 0.0
C470 C 0.77934 0.82391 0.146 0.0
H471 H 0.86385 0.72277 0.13336 0.0
H472 H 0.84997 0.75953 0.14168 0.0
H473 H 0.83026 0.71307 0.14277 0.0
H474 H 0.76772 0.73019 0.1506 0.0
H475 H 0.75778 0.75436 0.16688 0.0
H476 H 0.23386 0.21266 0.41254 0.0
H477 H 0.25975 0.2262 0.3967 0.0
H478 H 0.18052 0.31752 0.39315 0.0
H479 H 0.15331 0.30321 0.40905 0.0
H480 H 0.18435 0.27746 0.37726 0.0
H481 H 0.33022 0.3074 0.38844 0.0
H482 H 0.31641 0.26229 0.39305 0.0
H483 H 0.2921 0.30422 0.39704 0.0
C484 C 0.22201 0.23588 0.40846 0.0
C485 C 0.19166 0.25707 0.41211 0.0
C486 C 0.23717 0.24382 0.39941 0.0
C487 C 0.22298 0.27367 0.39384 0.0
C488 C 0.19231 0.29468 0.39738 0.0
H489 H 0.34992 0.30635 0.33961 0.0
H490 H 0.32209 0.32049 0.35545 0.0
C491 C 0.17671 0.28641 0.40644 0.0
C492 C 0.23887 0.28077 0.38409 0.0
H493 H 0.32257 0.2845 0.37194 0.0
C494 C 0.21452 0.27981 0.37611 0.0
C495 C 0.27815 0.285 0.38253 0.0
C496 C 0.30559 0.29025 0.39075 0.0
C497 C 0.2286 0.27996 0.36664 0.0
C498 C 0.26813 0.2797 0.36512 0.0
C499 C 0.29231 0.28374 0.37308 0.0
C500 C 0.28484 0.27205 0.35548 0.0
C501 C 0.20084 0.27981 0.35838 0.0
C502 C 0.274 0.23966 0.35038 0.0
C503 C 0.28943 0.23183 0.34135 0.0
C504 C 0.31684 0.25571 0.33729 0.0
C505 C 0.32884 0.28745 0.34255 0.0
C506 C 0.31286 0.29562 0.35157 0.0
H507 H 0.17435 0.29457 0.36041 0.0
H508 H 0.21271 0.29354 0.35185 0.0
H509 H 0.19335 0.25024 0.35658 0.0
H510 H 0.25366 0.22016 0.3534 0.0
H511 H 0.28004 0.20678 0.33757 0.0
H512 H 0.25991 0.08439 0.21873 0.0
H513 H 0.28135 0.10265 0.23492 0.0
H514 H 0.30475 0.21503 0.22461 0.0
H515 H 0.28293 0.1973 0.20853 0.0
H516 H 0.35127 0.13176 0.24122 0.0
H517 H 0.23461 0.23298 0.24766 0.0
H518 H 0.23355 0.19877 0.23801 0.0
H519 H 0.2602 0.24163 0.23669 0.0
C520 C 0.26961 0.11298 0.21993 0.0
C521 C 0.26943 0.13951 0.21239 0.0
C522 C 0.28191 0.12333 0.22916 0.0
C523 C 0.29404 0.16035 0.23099 0.0
C524 C 0.29477 0.18654 0.2234 0.0
H525 H 0.4183 0.24777 0.28037 0.0
H526 H 0.39944 0.22439 0.26442 0.0
C527 C 0.28243 0.17629 0.21421 0.0
C528 C 0.3057 0.17187 0.24082 0.0
H529 H 0.28536 0.23418 0.25885 0.0
C530 C 0.33681 0.15402 0.24511 0.0
C531 C 0.28645 0.20059 0.24591 0.0
C532 C 0.25163 0.21939 0.24189 0.0
C533 C 0.34966 0.16468 0.25431 0.0
C534 C 0.33122 0.19437 0.25925 0.0
C535 C 0.2997 0.2117 0.25501 0.0
C536 C 0.34344 0.20747 0.26891 0.0
C537 C 0.38243 0.14371 0.25872 0.0
C538 C 0.31799 0.20645 0.27666 0.0
C539 C 0.32851 0.22016 0.28571 0.0
C540 C 0.36473 0.23521 0.28719 0.0
C541 C 0.39027 0.23618 0.27944 0.0
C542 C 0.37963 0.22257 0.27036 0.0
H543 H 0.38682 0.11584 0.25523 0.0
H544 H 0.40854 0.16053 0.25775 0.0
H545 H 0.37805 0.13927 0.26658 0.0
H546 H 0.28987 0.19508 0.27569 0.0
H547 H 0.30817 0.21902 0.29153 0.0
H548 H 0.80749 0.76026 0.46099 0.0
H549 H 0.79078 0.78421 0.47696 0.0
H550 H 0.90817 0.8068 0.48284 0.0
H551 H 0.92518 0.78115 0.467 0.0
H552 H 0.87704 0.7762 0.49794 0.0
H553 H 0.78302 0.89071 0.48565 0.0
H554 H 0.76737 0.84605 0.48111 0.0
H555 H 0.81248 0.86458 0.47741 0.0
C556 C 0.82972 0.77043 0.46568 0.0
C557 C 0.86761 0.76897 0.46276 0.0
C558 C 0.82011 0.78446 0.47478 0.0
C559 C 0.84808 0.79827 0.48103 0.0
C560 C 0.88604 0.79657 0.47813 0.0
H561 H 0.78252 0.92388 0.53285 0.0
H562 H 0.80808 0.90634 0.51704 0.0
C563 C 0.89574 0.7819 0.46909 0.0
C564 C 0.8378 0.81307 0.49072 0.0
H565 H 0.77733 0.8728 0.50231 0.0
C566 C 0.85553 0.79764 0.49888 0.0
C567 C 0.81033 0.84167 0.49199 0.0
C568 C 0.79256 0.86199 0.48356 0.0
C569 C 0.84565 0.80901 0.50826 0.0
C570 C 0.81621 0.83556 0.50953 0.0
C571 C 0.79944 0.85199 0.50136 0.0
C572 C 0.80184 0.84617 0.51924 0.0
C573 C 0.8673 0.79273 0.51666 0.0
C574 C 0.78943 0.81829 0.52571 0.0
C575 C 0.77542 0.82824 0.53479 0.0
C576 C 0.77262 0.86633 0.53748 0.0
C577 C 0.78433 0.8943 0.53095 0.0
C578 C 0.79894 0.88429 0.52193 0.0
H579 H 0.89617 0.78404 0.51446 0.0
H580 H 0.86968 0.81328 0.52268 0.0
H581 H 0.8525 0.76722 0.51934 0.0
H582 H 0.79015 0.78878 0.52371 0.0
H583 H 0.76624 0.80609 0.53963 0.0
H584 H 0.20803 0.31177 0.70758 0.0
H585 H 0.18322 0.29485 0.72343 0.0
H586 H 0.22209 0.40108 0.7349 0.0
H587 H 0.24604 0.41873 0.71893 0.0
H588 H 0.22205 0.2852 0.73976 0.0
H589 H 0.11539 0.39765 0.74517 0.0
H590 H 0.13696 0.3886 0.7336 0.0
H591 H 0.16171 0.41546 0.74261 0.0
C592 C 0.21098 0.33173 0.71345 0.0
C593 C 0.22892 0.36663 0.71201 0.0
C594 C 0.19678 0.322 0.7225 0.0
C595 C 0.20031 0.34688 0.73033 0.0
C596 C 0.21819 0.38182 0.72892 0.0
H597 H 0.19384 0.28281 0.79042 0.0
H598 H 0.21049 0.30495 0.77429 0.0
C599 C 0.23213 0.39175 0.71981 0.0
C600 C 0.18727 0.33502 0.74005 0.0
H601 H 0.13007 0.35959 0.75888 0.0
C602 C 0.20179 0.30141 0.74391 0.0
C603 C 0.16051 0.35594 0.74542 0.0
C604 C 0.14242 0.39122 0.74146 0.0
C605 C 0.19079 0.28844 0.75305 0.0
C606 C 0.16514 0.31005 0.75856 0.0
C607 C 0.15001 0.3433 0.75466 0.0
C608 C 0.15424 0.29864 0.76846 0.0
C609 C 0.20643 0.25146 0.75668 0.0
C610 C 0.11681 0.2888 0.77059 0.0
C611 C 0.10712 0.27617 0.77985 0.0
C612 C 0.13474 0.27345 0.7871 0.0
C613 C 0.17196 0.28434 0.78498 0.0
C614 C 0.18158 0.29689 0.77576 0.0
H615 H 0.21774 0.2339 0.7507 0.0
H616 H 0.22983 0.25716 0.76179 0.0
H617 H 0.18445 0.23506 0.76055 0.0
H618 H 0.09529 0.29016 0.76505 0.0
H619 H 0.07819 0.26815 0.78129 0.0
H620 H 0.74935 0.587 0.03066 0.0
H621 H 0.72825 0.60586 0.01451 0.0
H622 H 0.69633 0.71503 0.02555 0.0
H623 H 0.71813 0.69677 0.04161 0.0
H624 H 0.65884 0.62914 0.00781 0.0
H625 H 0.76496 0.74268 0.00319 0.0
H626 H 0.76797 0.70813 0.01273 0.0
H627 H 0.73679 0.74792 0.01387 0.0
C628 C 0.73787 0.61503 0.02963 0.0
C629 C 0.73573 0.64053 0.03738 0.0
C630 C 0.72578 0.62573 0.02041 0.0
C631 C 0.71138 0.66209 0.01879 0.0
C632 C 0.70821 0.68718 0.02658 0.0
H633 H 0.58587 0.74151 0.9687 0.0
H634 H 0.60498 0.71918 0.98472 0.0
C635 C 0.72051 0.67661 0.03577 0.0
C636 C 0.69972 0.67385 0.00896 0.0
H637 H 0.71605 0.73981 0.99149 0.0
C638 C 0.67141 0.65325 0.00422 0.0
C639 C 0.71652 0.70502 0.00424 0.0
C640 C 0.7485 0.72701 0.00872 0.0
C641 C 0.65901 0.6634 0.99494 0.0
C642 C 0.67493 0.69534 0.99037 0.0
C643 C 0.70362 0.71555 0.99505 0.0
C644 C 0.66285 0.70796 0.98064 0.0
C645 C 0.62947 0.63947 0.99004 0.0
C646 C 0.68919 0.70975 0.9731 0.0
C647 C 0.67843 0.72273 0.96398 0.0
C648 C 0.64113 0.73436 0.96225 0.0
C649 C 0.61477 0.73259 0.96981 0.0
C650 C 0.62558 0.71962 0.97894 0.0
H651 H 0.62733 0.61104 0.99338 0.0
H652 H 0.60159 0.65344 0.99073 0.0
H653 H 0.63579 0.63609 0.98224 0.0
H654 H 0.71813 0.70107 0.97427 0.0
H655 H 0.69942 0.7238 0.95831 0.0
H656 H 0.2843 0.30799 0.04073 0.0
H657 H 0.30668 0.29055 0.02468 0.0
H658 H 0.28156 0.40253 0.01433 0.0
H659 H 0.25973 0.42049 0.03048 0.0
H660 H 0.26657 0.28982 0.00789 0.0
H661 H 0.38929 0.38633 0.00479 0.0
H662 H 0.36589 0.37714 0.01612 0.0
H663 H 0.34559 0.4095 0.00759 0.0
C664 C 0.28377 0.32904 0.03506 0.0
C665 C 0.27033 0.36566 0.03687 0.0
C666 C 0.29656 0.319 0.02589 0.0
C667 C 0.29624 0.34535 0.01834 0.0
C668 C 0.28279 0.38198 0.0201 0.0
H669 H 0.30658 0.28587 0.95757 0.0
H670 H 0.28807 0.30862 0.97353 0.0
C671 C 0.27009 0.39212 0.02931 0.0
C672 C 0.30847 0.33372 0.00855 0.0
H673 H 0.37214 0.35235 0.99067 0.0
C674 C 0.28968 0.30346 0.00412 0.0
C675 C 0.33894 0.35125 0.00371 0.0
C676 C 0.36138 0.38263 0.00832 0.0
C677 C 0.30031 0.29042 0.99496 0.0
C678 C 0.33003 0.30866 0.99 0.0
C679 C 0.34912 0.33867 0.99446 0.0
C680 C 0.3419 0.29662 0.98022 0.0
C681 C 0.28009 0.2567 0.99078 0.0
C682 C 0.37873 0.28351 0.97861 0.0
C683 C 0.38953 0.27078 0.96946 0.0
C684 C 0.36364 0.27103 0.96178 0.0
C685 C 0.32706 0.28499 0.96336 0.0
C686 C 0.31637 0.29785 0.97249 0.0
H687 H 0.26547 0.24005 0.99645 0.0
H688 H 0.25851 0.26654 0.98555 0.0
H689 H 0.30002 0.23786 0.98691 0.0
H690 H 0.39892 0.28252 0.98448 0.0
H691 H 0.41796 0.26034 0.96844 0.0
H692 H 0.69974 0.76385 0.28939 0.0
H693 H 0.71634 0.78762 0.27339 0.0
H694 H 0.59855 0.80624 0.26714 0.0
H695 H 0.58171 0.78085 0.28301 0.0
H696 H 0.63118 0.77544 0.25227 0.0
H697 H 0.72098 0.89383 0.26422 0.0
H698 H 0.73784 0.85 0.269 0.0
H699 H 0.69205 0.86734 0.2725 0.0
C700 C 0.6774 0.77312 0.28461 0.0
C701 C 0.63945 0.7706 0.28744 0.0
C702 C 0.68694 0.78705 0.27549 0.0
C703 C 0.65879 0.79964 0.26912 0.0
C704 C 0.6208 0.79695 0.27194 0.0
H705 H 0.72155 0.9241 0.21689 0.0
H706 H 0.69646 0.90668 0.23276 0.0
C707 C 0.6112 0.78243 0.28101 0.0
C708 C 0.66894 0.8141 0.25939 0.0
H709 H 0.72768 0.87509 0.24764 0.0
C710 C 0.65198 0.79754 0.25127 0.0
C711 C 0.69546 0.84352 0.25805 0.0
C712 C 0.71227 0.86497 0.26642 0.0
C713 C 0.66172 0.80863 0.24186 0.0
C714 C 0.69028 0.83609 0.24052 0.0
C715 C 0.70626 0.85359 0.24864 0.0
C716 C 0.70449 0.8466 0.23078 0.0
C717 C 0.64083 0.79109 0.2335 0.0
C718 C 0.71778 0.81876 0.22442 0.0
C719 C 0.73145 0.82861 0.21531 0.0
C720 C 0.7331 0.8666 0.21247 0.0
C721 C 0.72063 0.89458 0.2189 0.0
C722 C 0.70629 0.88465 0.22796 0.0
H723 H 0.6122 0.78162 0.23569 0.0
H724 H 0.63795 0.81113 0.22738 0.0
H725 H 0.65651 0.76588 0.23096 0.0
H726 H 0.71796 0.78935 0.22653 0.0
H727 H 0.74128 0.80649 0.21054 0.0
H728 H 0.09322 0.25877 0.46931 0.0
H729 H 0.11274 0.23805 0.48545 0.0
H730 H 0.20802 0.17997 0.47302 0.0
H731 H 0.18962 0.20189 0.457 0.0
H732 H 0.12206 0.16945 0.49345 0.0
H733 H 0.2597 0.24377 0.49289 0.0
H734 H 0.22384 0.25197 0.48389 0.0
H735 H 0.25427 0.21145 0.48304 0.0
C736 C 0.11833 0.24161 0.47004 0.0
C737 C 0.14015 0.23231 0.46193 0.0
C738 C 0.12944 0.22977 0.47925 0.0
C739 C 0.16235 0.20819 0.48047 0.0
C740 C 0.18324 0.19761 0.4723 0.0
H741 H 0.2426 0.08542 0.53084 0.0
H742 H 0.2197 0.10354 0.51477 0.0
C743 C 0.17253 0.20995 0.46314 0.0
C744 C 0.17491 0.19681 0.49027 0.0
H745 H 0.24964 0.20075 0.50582 0.0
C746 C 0.14992 0.17636 0.49615 0.0
C747 C 0.21117 0.20623 0.49384 0.0
C748 C 0.23864 0.22988 0.48813 0.0
C749 C 0.1605 0.16454 0.50544 0.0
C750 C 0.19698 0.17316 0.50887 0.0
C751 C 0.22181 0.19392 0.50307 0.0
C752 C 0.20958 0.16179 0.5186 0.0
C753 C 0.13261 0.14344 0.51163 0.0
C754 C 0.21152 0.18868 0.52599 0.0
C755 C 0.22443 0.17847 0.53515 0.0
C756 C 0.23592 0.14122 0.53703 0.0
C757 C 0.23392 0.11431 0.5296 0.0
C758 C 0.22079 0.12455 0.52044 0.0
H759 H 0.10434 0.14154 0.50821 0.0
H760 H 0.14318 0.11445 0.51299 0.0
H761 H 0.12973 0.15763 0.51874 0.0
H762 H 0.20304 0.21758 0.52466 0.0
H763 H 0.22561 0.19983 0.54073 0.0
H764 H 0.76635 0.69848 0.71074 0.0
H765 H 0.79137 0.71399 0.72667 0.0
H766 H 0.80783 0.5956 0.73259 0.0
H767 H 0.78122 0.57988 0.71678 0.0
H768 H 0.77811 0.62826 0.74759 0.0
H769 H 0.89787 0.71623 0.73569 0.0
H770 H 0.85435 0.73415 0.73098 0.0
H771 H 0.87068 0.6881 0.72737 0.0
C772 C 0.77545 0.67577 0.71542 0.0
C773 C 0.77192 0.63798 0.71252 0.0
C774 C 0.7901 0.68468 0.7245 0.0
C775 C 0.80241 0.65604 0.73076 0.0
C776 C 0.79879 0.61822 0.72787 0.0
H777 H 0.92626 0.71796 0.78332 0.0
H778 H 0.90972 0.69231 0.76743 0.0
C779 C 0.78357 0.60926 0.71884 0.0
C780 C 0.81731 0.66555 0.7405 0.0
H781 H 0.8791 0.72331 0.75229 0.0
C782 C 0.80053 0.6487 0.74861 0.0
C783 C 0.84715 0.69158 0.74186 0.0
C784 C 0.86881 0.70819 0.7335 0.0
C785 C 0.8117 0.65823 0.75801 0.0
C786 C 0.83948 0.68646 0.75938 0.0
C787 C 0.85735 0.70216 0.75127 0.0
C788 C 0.84958 0.70093 0.76911 0.0
C789 C 0.79377 0.6376 0.76637 0.0
C790 C 0.82144 0.71476 0.77531 0.0
C791 C 0.83078 0.72876 0.78441 0.0
C792 C 0.86857 0.73019 0.78743 0.0
C793 C 0.8969 0.71718 0.78117 0.0
C794 C 0.88746 0.70253 0.7721 0.0
H795 H 0.78423 0.60898 0.76419 0.0
H796 H 0.81357 0.63472 0.77253 0.0
H797 H 0.76854 0.65344 0.76882 0.0
H798 H 0.79219 0.71513 0.77306 0.0
H799 H 0.80839 0.73903 0.78904 0.0
H800 H 0.11708 0.12121 0.18554 0.0
H801 H 0.05503 0.09161 0.18398 0.0
H802 H 0.10784 0.98627 0.17637 0.0
H803 H 0.17032 0.01582 0.17782 0.0
H804 H 0.02363 0.04447 0.16651 0.0
H805 H 0.03791 0.97059 0.20182 0.0
H806 H 0.06438 0.01276 0.19903 0.0
H807 H 0.07692 0.96883 0.19349 0.0
C808 C 0.11558 0.09182 0.18344 0.0
C809 C 0.14869 0.07082 0.18184 0.0
C810 C 0.08006 0.07501 0.18253 0.0
C811 C 0.07687 0.03677 0.18011 0.0
C812 C 0.10976 0.01584 0.17827 0.0
H813 H 0.886 0.88432 0.18408 0.0
H814 H 0.94819 0.91281 0.18216 0.0
C815 C 0.1454 0.03277 0.17909 0.0
C816 C 0.03917 0.01853 0.17996 0.0
H817 H 0.98159 0.96148 0.19325 0.0
C818 C 0.01436 0.02617 0.17232 0.0
C819 C 0.02728 0.99474 0.18755 0.0
C820 C 0.05277 0.98619 0.196 0.0
C821 C 0.978 0.0102 0.172 0.0
C822 C 0.96572 0.98687 0.1797 0.0
C823 C 0.99079 0.97929 0.18734 0.0
C824 C 0.9273 0.96959 0.18004 0.0
C825 C 0.95357 0.01779 0.1633 0.0
C826 C 0.89447 0.99181 0.1794 0.0
C827 C 0.85863 0.97535 0.18032 0.0
C828 C 0.85499 0.93651 0.18214 0.0
C829 C 0.88781 0.91436 0.18271 0.0
C830 C 0.92346 0.93065 0.18163 0.0
H831 H 0.97079 0.02563 0.1569 0.0
H832 H 0.93614 0.99282 0.16142 0.0
H833 H 0.93444 0.04176 0.16489 0.0
H834 H 0.89651 0.02204 0.17845 0.0
H835 H 0.83388 0.9932 0.17995 0.0
H836 H 0.12432 0.38613 0.43571 0.0
H837 H 0.09609 0.44891 0.43425 0.0
H838 H 0.98989 0.39868 0.42629 0.0
H839 H 0.01801 0.33555 0.42764 0.0
H840 H 0.04816 0.48137 0.41649 0.0
H841 H 0.97721 0.46852 0.45222 0.0
H842 H 0.01928 0.44211 0.4493 0.0
H843 H 0.97501 0.42914 0.44401 0.0
C844 C 0.09503 0.38837 0.43355 0.0
C845 C 0.07335 0.35579 0.43182 0.0
C846 C 0.07901 0.4243 0.4327 0.0
C847 C 0.04093 0.4284 0.43019 0.0
C848 C 0.01936 0.39605 0.42824 0.0
H849 H 0.88727 0.61725 0.43408 0.0
H850 H 0.91711 0.55569 0.43226 0.0
C851 C 0.03547 0.36004 0.429 0.0
C852 C 0.02335 0.4664 0.43012 0.0
H853 H 0.96723 0.52444 0.44352 0.0
C854 C 0.03038 0.4909 0.42237 0.0
C855 C 1.00028 0.47864 0.43781 0.0
C856 C 0.99244 0.45347 0.44636 0.0
C857 C 0.01428 0.52723 0.42203 0.0
C858 C 0.9914 0.53972 0.42979 0.0
C859 C 0.98467 0.51505 0.43756 0.0
C860 C 0.97335 0.57778 0.43001 0.0
C861 C 0.02114 0.55136 0.41323 0.0
C862 C 0.9948 0.61108 0.42924 0.0
C863 C 0.97755 0.64659 0.43013 0.0
C864 C 0.93869 0.6494 0.43201 0.0
C865 C 0.9173 0.61609 0.43267 0.0
C866 C 0.93437 0.5808 0.43164 0.0
H867 H 0.02927 0.53401 0.40688 0.0
H868 H 0.99573 0.5681 0.41134 0.0
H869 H 0.04465 0.57116 0.41474 0.0
H870 H 0.02504 0.60967 0.42824 0.0
H871 H 0.99483 0.67172 0.42969 0.0
H872 H 0.3853 0.38412 0.68882 0.0
H873 H 0.44795 0.4123 0.68756 0.0
H874 H 0.39973 0.51156 0.67449 0.0
H875 H 0.33657 0.48336 0.67568 0.0
H876 H 0.46926 0.48438 0.66555 0.0
H877 H 0.48133 0.50026 0.70532 0.0
H878 H 0.46976 0.45354 0.70127 0.0
H879 H 0.43689 0.49141 0.69938 0.0
C880 C 0.38791 0.41188 0.68562 0.0
C881 C 0.3558 0.43162 0.68243 0.0
C882 C 0.42381 0.42798 0.68493 0.0
C883 C 0.4285 0.46424 0.68106 0.0
C884 C 0.39674 0.48357 0.67754 0.0
H885 H 0.61687 0.6145 0.68973 0.0
H886 H 0.55541 0.58425 0.68821 0.0
C887 C 0.36066 0.46746 0.67824 0.0
C888 C 0.46637 0.48236 0.68106 0.0
H889 H 0.53575 0.51414 0.69613 0.0
C890 C 0.48384 0.49093 0.67222 0.0
C891 C 0.48523 0.49115 0.68978 0.0
C892 C 0.46731 0.48396 0.69949 0.0
C893 C 0.51986 0.50771 0.67189 0.0
C894 C 0.53894 0.51588 0.68062 0.0
C895 C 0.52127 0.50756 0.68944 0.0
C896 C 0.57645 0.53475 0.68086 0.0
C897 C 0.53693 0.51728 0.66223 0.0
C898 C 0.60893 0.51705 0.67719 0.0
C899 C 0.64443 0.53435 0.67806 0.0
C900 C 0.648 0.56959 0.68264 0.0
C901 C 0.61527 0.58736 0.68616 0.0
C902 C 0.58001 0.5701 0.6853 0.0
H903 H 0.51573 0.51621 0.65633 0.0
H904 H 0.54978 0.54584 0.66238 0.0
H905 H 0.55957 0.49669 0.66054 0.0
H906 H 0.60697 0.48949 0.67386 0.0
H907 H 0.66908 0.51986 0.67531 0.0
H908 H 0.38488 0.11719 0.93572 0.0
H909 H 0.41444 0.05517 0.93417 0.0
H910 H 0.51952 0.1079 0.92628 0.0
H911 H 0.49002 0.17039 0.92775 0.0
H912 H 0.45771 0.02248 0.9171 0.0
H913 H 0.53995 0.03921 0.95108 0.0
H914 H 0.49834 0.06691 0.94856 0.0
H915 H 0.54172 0.07713 0.94244 0.0
C916 C 0.41423 0.11569 0.93358 0.0
C917 C 0.43517 0.14879 0.9319 0.0
C918 C 0.43102 0.08017 0.93268 0.0
C919 C 0.46919 0.07695 0.93018 0.0
C920 C 0.49005 0.10983 0.92827 0.0
H921 H 0.62149 0.88541 0.93283 0.0
H922 H 0.59303 0.94766 0.93096 0.0
C923 C 0.47314 0.14548 0.92909 0.0
C924 C 0.48732 0.03918 0.92996 0.0
H925 H 0.54766 0.98256 0.94254 0.0
C926 C 0.47753 0.01368 0.92262 0.0
C927 C 0.51307 0.02787 0.93718 0.0
C928 C 0.5239 0.05398 0.94532 0.0
C929 C 0.49326 0.97723 0.92225 0.0
C930 C 0.5186 0.96556 0.92959 0.0
C931 C 0.52833 0.9913 0.9369 0.0
C932 C 0.53569 0.92706 0.92987 0.0
C933 C 0.48319 0.95205 0.91385 0.0
C934 C 0.51315 0.89436 0.92979 0.0
C935 C 0.52956 0.85849 0.93068 0.0
C936 C 0.56873 0.8547 0.93191 0.0
C937 C 0.5912 0.88737 0.93193 0.0
C938 C 0.57493 0.92304 0.93087 0.0
H939 H 0.47387 0.96875 0.9075 0.0
H940 H 0.50744 0.93416 0.91167 0.0
H941 H 0.45949 0.93337 0.91598 0.0
H942 H 0.48275 0.89654 0.92932 0.0
H943 H 0.51148 0.83386 0.93075 0.0
H944 H 0.17242 0.49025 0.07097 0.0
H945 H 0.10995 0.51986 0.07247 0.0
H946 H 0.0569 0.41319 0.06631 0.0
H947 H 0.11891 0.38356 0.06468 0.0
H948 H 0.04943 0.51098 0.05559 0.0
H949 H 0.00569 0.46243 0.09214 0.0
H950 H 0.05469 0.46903 0.08893 0.0
H951 H 0.02912 0.42943 0.08426 0.0
C952 C 0.14744 0.47303 0.07006 0.0
C953 C 0.15064 0.43458 0.06769 0.0
C954 C 0.11182 0.48998 0.0709 0.0
C955 C 0.07886 0.46862 0.06955 0.0
C956 C 0.08198 0.43007 0.06745 0.0
H957 H 0.83699 0.51422 0.07024 0.0
H958 H 0.89993 0.48553 0.07135 0.0
C959 C 0.11747 0.41325 0.0665 0.0
C960 C 0.04118 0.48689 0.06967 0.0
H961 H 0.96039 0.49548 0.08294 0.0
C962 C 0.03 0.50789 0.06159 0.0
C963 C 0.01577 0.48214 0.07743 0.0
C964 C 0.0267 0.45968 0.08624 0.0
C965 C 0.99382 0.52395 0.061 0.0
C966 C 0.96846 0.51995 0.06885 0.0
C967 C 0.97975 0.49878 0.07694 0.0
C968 C 0.93025 0.5376 0.06878 0.0
C969 C 0.9828 0.54396 0.0518 0.0
C970 C 0.92622 0.57656 0.06727 0.0
C971 C 0.89042 0.59283 0.06652 0.0
C972 C 0.8577 0.57069 0.06746 0.0
C973 C 0.86164 0.53201 0.06946 0.0
C974 C 0.89761 0.51559 0.07009 0.0
H975 H 1.00017 0.53441 0.04558 0.0
H976 H 0.95262 0.53921 0.05003 0.0
H977 H 0.98746 0.57471 0.05268 0.0
H978 H 0.95083 0.59442 0.06655 0.0
H979 H 0.8884 0.62282 0.06511 0.0
H980 H 0.51276 0.67343 0.32127 0.0
H981 H 0.4821 0.61145 0.32285 0.0
H982 H 0.58788 0.55656 0.31674 0.0
H983 H 0.61848 0.61797 0.31503 0.0
H984 H 0.48596 0.55201 0.30671 0.0
H985 H 0.54287 0.50452 0.3421 0.0
H986 H 0.53871 0.55382 0.33892 0.0
H987 H 0.57565 0.52569 0.33378 0.0
C988 C 0.52954 0.64814 0.32038 0.0
C989 C 0.56803 0.65063 0.31801 0.0
C990 C 0.512 0.61279 0.32127 0.0
C991 C 0.53282 0.57944 0.31999 0.0
C992 C 0.57139 0.58191 0.31786 0.0
H993 H 0.4907 0.33778 0.3194 0.0
H994 H 0.51786 0.40129 0.32069 0.0
C995 C 0.58878 0.61709 0.31685 0.0
C996 C 0.51407 0.54197 0.32021 0.0
H997 H 0.50963 0.45929 0.33285 0.0
C998 C 0.49075 0.53182 0.31247 0.0
C999 C 0.52099 0.51553 0.32764 0.0
C1000 C 0.54573 0.52529 0.33614 0.0
C1001 C 0.47478 0.49559 0.31183 0.0
C1002 C 0.48125 0.4691 0.31933 0.0
C1003 C 0.50447 0.47948 0.32712 0.0
C1004 C 0.46452 0.43046 0.31914 0.0
C1005 C 0.45239 0.48572 0.3029 0.0
C1006 C 0.42541 0.42549 0.31815 0.0
C1007 C 0.40998 0.38934 0.31727 0.0
C1008 C 0.43318 0.35719 0.3176 0.0
C1009 C 0.4721 0.36199 0.31911 0.0
C1010 C 0.48764 0.3983 0.31983 0.0
H1011 H 0.45991 0.50422 0.29672 0.0
H1012 H 0.45707 0.45594 0.30073 0.0
H1013 H 0.42191 0.4897 0.3044 0.0
H1014 H 0.40675 0.44966 0.31793 0.0
H1015 H 0.37981 0.3866 0.31625 0.0
H1016 H 0.6721 0.99253 0.57122 0.0
H1017 H 0.60982 0.02248 0.57281 0.0
H1018 H 0.55614 0.91712 0.56561 0.0
H1019 H 0.6179 0.8872 0.5639 0.0
H1020 H 0.55139 0.02099 0.55661 0.0
H1021 H 0.50243 0.95751 0.59112 0.0
H1022 H 0.55185 0.96207 0.58811 0.0
H1023 H 0.52378 0.92625 0.58246 0.0
C1024 C 0.64701 0.97569 0.57008 0.0
C1025 C 0.64996 0.93751 0.56743 0.0
C1026 C 0.61149 0.99282 0.57098 0.0
C1027 C 0.57839 0.97191 0.56941 0.0
C1028 C 0.58129 0.93365 0.56696 0.0
H1029 H 0.33662 0.01483 0.56881 0.0
H1030 H 0.39992 0.98706 0.56995 0.0
C1031 C 0.61667 0.91666 0.56595 0.0
C1032 C 0.54078 0.99034 0.56971 0.0
H1033 H 0.45762 0.99253 0.58218 0.0
C1034 C 0.53095 0.01511 0.56224 0.0
C1035 C 0.51403 0.98203 0.57697 0.0
C1036 C 0.5234 0.9557 0.58518 0.0
C1037 C 0.49478 0.03124 0.5617 0.0
C1038 C 0.468 0.02344 0.56905 0.0
C1039 C 0.47802 0.99871 0.57656 0.0
C1040 C 0.42946 0.04042 0.569 0.0
C1041 C 0.48529 0.05527 0.55303 0.0
C1042 C 0.42477 0.0797 0.56841 0.0
C1043 C 0.38876 0.09547 0.5676 0.0
C1044 C 0.35647 0.07243 0.56762 0.0
C1045 C 0.36096 0.03329 0.56876 0.0
C1046 C 0.39714 0.01742 0.5694 0.0
H1047 H 0.50388 0.04869 0.5468 0.0
H1048 H 0.45553 0.05125 0.55076 0.0
H1049 H 0.48953 0.08542 0.55489 0.0
H1050 H 0.44904 0.09823 0.56844 0.0
H1051 H 0.38622 0.12579 0.56687 0.0
H1052 H 0.03436 0.16478 0.82913 0.0
H1053 H 0.00766 0.10154 0.83159 0.0
H1054 H 0.0711 0.0605 0.80717 0.0
H1055 H 0.09915 0.12264 0.80505 0.0
H1056 H 0.96446 0.05944 0.8215 0.0
H1057 H 0.09687 0.9799 0.82556 0.0
H1058 H 0.09594 0.03074 0.82552 0.0
H1059 H 0.09747 0.00479 0.81432 0.0
C1060 C 0.04281 0.14208 0.82436 0.0
C1061 C 0.06917 0.14858 0.81697 0.0
C1062 C 0.02758 0.10592 0.82577 0.0
C1063 C 0.03809 0.07569 0.81974 0.0
C1064 C 0.06361 0.08266 0.81219 0.0
H1065 H 0.90484 0.88178 0.80556 0.0
H1066 H 0.93366 0.94354 0.80765 0.0
C1067 C 0.07938 0.11844 0.81092 0.0
C1068 C 0.02107 0.0374 0.82096 0.0
H1069 H 0.0424 0.94332 0.8207 0.0
C1070 C 0.98163 0.03412 0.82147 0.0
C1071 C 0.0432 0.00406 0.8212 0.0
C1072 C 0.0857 0.00511 0.82174 0.0
C1073 C 0.96377 0.9987 0.82172 0.0
C1074 C 0.9858 0.96541 0.82101 0.0
C1075 C 0.02529 0.96865 0.82103 0.0
C1076 C 0.96848 0.92727 0.81981 0.0
C1077 C 0.92143 0.99756 0.8228 0.0
C1078 C 0.97967 0.8966 0.82561 0.0
C1079 C 0.96386 0.86066 0.82423 0.0
C1080 C 0.93633 0.85483 0.81708 0.0
C1081 C 0.92553 0.88542 0.81124 0.0
C1082 C 0.94177 0.92098 0.81249 0.0
H1083 H 0.91102 0.0225 0.82686 0.0
H1084 H 0.90819 0.99833 0.81555 0.0
H1085 H 0.91198 0.97166 0.8266 0.0
H1086 H 1.00052 0.90049 0.83124 0.0
H1087 H 0.97282 0.83762 0.82882 0.0
H1088 H 0.60087 0.86642 0.18531 0.0
H1089 H 0.54308 0.90321 0.18405 0.0
H1090 H 0.60795 0.00607 0.18496 0.0
H1091 H 0.66637 0.96921 0.18596 0.0
H1092 H 0.514 0.95083 0.19678 0.0
H1093 H 0.53913 0.02787 0.16257 0.0
H1094 H 0.56804 0.98863 0.16633 0.0
H1095 H 0.57582 0.03486 0.17131 0.0
C1096 C 0.60303 0.89689 0.18516 0.0
C1097 C 0.63841 0.91483 0.18574 0.0
C1098 C 0.56984 0.91792 0.18443 0.0
C1099 C 0.57099 0.95747 0.1843 0.0
C1100 C 0.60626 0.97559 0.18481 0.0
H1101 H 0.40471 0.13351 0.1889 0.0
H1102 H 0.4611 0.09462 0.1877 0.0
C1103 C 0.63969 0.95448 0.18543 0.0
C1104 C 0.53505 0.97934 0.18415 0.0
H1105 H 0.48683 0.04825 0.17205 0.0
C1106 C 0.50797 0.97189 0.19132 0.0
C1107 C 0.52703 0.00681 0.17701 0.0
C1108 C 0.55387 0.0148 0.16881 0.0
C1109 C 0.47363 0.99166 0.19168 0.0
C1110 C 0.46589 0.01946 0.18464 0.0
C1111 C 0.49278 0.02682 0.17743 0.0
C1112 C 0.431 0.04271 0.18496 0.0
C1113 C 0.44632 0.98342 0.19977 0.0
C1114 C 0.39512 0.02654 0.18369 0.0
C1115 C 0.36248 0.04882 0.18436 0.0
C1116 C 0.36517 0.08768 0.18634 0.0
C1117 C 0.40132 0.1037 0.18743 0.0
C1118 C 0.43376 0.08152 0.18671 0.0
H1119 H 0.4595 0.96646 0.20561 0.0
H1120 H 0.43533 0.01004 0.20292 0.0
H1121 H 0.422 0.9673 0.19687 0.0
H1122 H 0.39238 0.99667 0.18221 0.0
H1123 H 0.3352 0.03553 0.18345 0.0
H1124 H 0.96542 0.83861 0.43338 0.0
H1125 H 1.00109 0.8979 0.43238 0.0
H1126 H 0.89986 0.96064 0.43862 0.0
H1127 H 0.86433 0.90215 0.43978 0.0
H1128 H 0.99192 0.96136 0.42058 0.0
H1129 H 0.97216 0.99983 0.45905 0.0
H1130 H 0.96208 0.95324 0.45448 0.0
H1131 H 0.92869 0.99089 0.45282 0.0
C1132 C 0.95076 0.86503 0.43453 0.0
C1133 C 0.91202 0.8654 0.43676 0.0
C1134 C 0.97119 0.8989 0.43396 0.0
C1135 C 0.95331 0.93371 0.43563 0.0
C1136 C 0.91451 0.93415 0.43756 0.0
H1137 H 0.03113 0.16903 0.43647 0.0
H1138 H 0.99141 0.11219 0.43545 0.0
C1139 C 0.89417 0.9005 0.43816 0.0
C1140 C 0.97492 0.96969 0.43535 0.0
H1141 H 0.99804 0.04708 0.44885 0.0
C1142 C 0.99337 0.98001 0.42677 0.0
C1143 C 0.97673 0.99416 0.44342 0.0
C1144 C 0.95918 0.98388 0.45299 0.0
C1145 C 0.01323 0.01426 0.42604 0.0
C1146 C 0.01491 0.03869 0.4341 0.0
C1147 C 0.99631 0.02852 0.44265 0.0
C1148 C 0.03828 0.07347 0.43407 0.0
C1149 C 0.03207 0.02427 0.41662 0.0
C1150 C 0.07763 0.07048 0.43364 0.0
C1151 C 0.10023 0.10262 0.43431 0.0
C1152 C 0.08403 0.13867 0.43538 0.0
C1153 C 0.04447 0.14176 0.43559 0.0
C1154 C 0.02179 0.10934 0.43504 0.0
H1155 H 0.02078 0.00736 0.41052 0.0
H1156 H 0.02833 0.0547 0.41496 0.0
H1157 H 0.06277 0.0186 0.41721 0.0
H1158 H 0.09097 0.04309 0.43302 0.0
H1159 H 0.13056 0.0991 0.43407 0.0
H1160 H 0.09998 0.3728 0.68274 0.0
H1161 H 0.0433 0.41124 0.68154 0.0
H1162 H 0.10973 0.51174 0.68591 0.0
H1163 H 0.1672 0.47317 0.68685 0.0
H1164 H 0.01331 0.45384 0.69526 0.0
H1165 H 0.04474 0.54404 0.66355 0.0
H1166 H 0.07251 0.50296 0.6665 0.0
H1167 H 0.07983 0.54659 0.67286 0.0
C1168 C 0.10273 0.40315 0.68334 0.0
C1169 C 0.13819 0.41992 0.68491 0.0
C1170 C 0.07019 0.42512 0.68265 0.0
C1171 C 0.07208 0.46447 0.68356 0.0
C1172 C 0.10754 0.48151 0.68497 0.0
H1173 H 0.90279 0.638 0.68981 0.0
H1174 H 0.96018 0.60067 0.68852 0.0
C1175 C 0.14039 0.45945 0.68554 0.0
C1176 C 0.0365 0.48687 0.68363 0.0
H1177 H 0.99022 0.55995 0.6727 0.0
C1178 C 0.00822 0.47688 0.69027 0.0
C1179 C 0.02975 0.51699 0.67714 0.0
C1180 C 0.05814 0.52812 0.66955 0.0
C1181 C 0.97376 0.49637 0.6907 0.0
C1182 C 0.96708 0.52652 0.68424 0.0
C1183 C 0.99531 0.53667 0.67761 0.0
C1184 C 0.9317 0.54902 0.68459 0.0
C1185 C 0.94513 0.48513 0.69823 0.0
C1186 C 0.89642 0.53252 0.68266 0.0
C1187 C 0.8632 0.55388 0.6834 0.0
C1188 C 0.8647 0.59216 0.68606 0.0
C1189 C 0.90029 0.6086 0.68778 0.0
C1190 C 0.93331 0.58733 0.68702 0.0
H1191 H 0.95769 0.46698 0.70393 0.0
H1192 H 0.93261 0.51044 0.7017 0.0
H1193 H 0.92202 0.46908 0.69473 0.0
H1194 H 0.89456 0.50309 0.68063 0.0
H1195 H 0.8364 0.54029 0.68199 0.0
H1196 H 0.46943 0.33707 0.93589 0.0
H1197 H 0.50691 0.39537 0.93537 0.0
H1198 H 0.40468 0.46102 0.93404 0.0
H1199 H 0.3673 0.40352 0.93478 0.0
H1200 H 0.5115 0.4536 0.92218 0.0
H1201 H 0.45694 0.50794 0.95698 0.0
H1202 H 0.44937 0.45997 0.95309 0.0
H1203 H 0.42016 0.49744 0.94851 0.0
C1204 C 0.45499 0.36393 0.93545 0.0
C1205 C 0.41533 0.36555 0.93551 0.0
C1206 C 0.47642 0.39724 0.93517 0.0
C1207 C 0.45859 0.43268 0.93492 0.0
C1208 C 0.4191 0.43416 0.93454 0.0
H1209 H 0.53576 0.66729 0.9341 0.0
H1210 H 0.49806 0.60932 0.93289 0.0
C1211 C 0.39775 0.40111 0.93491 0.0
C1212 C 0.48096 0.46823 0.93507 0.0
H1213 H 0.49228 0.55103 0.94742 0.0
C1214 C 0.50744 0.4748 0.92772 0.0
C1215 C 0.47567 0.49599 0.94231 0.0
C1216 C 0.44927 0.48989 0.95072 0.0
C1217 C 0.52822 0.50858 0.92733 0.0
C1218 C 0.52264 0.53639 0.93452 0.0
C1219 C 0.4962 0.52986 0.94186 0.0
C1220 C 0.5454 0.57158 0.93486 0.0
C1221 C 0.55565 0.51448 0.91914 0.0
C1222 C 0.58437 0.56959 0.93645 0.0
C1223 C 0.60586 0.60248 0.9372 0.0
C1224 C 0.58892 0.63832 0.93637 0.0
C1225 C 0.54979 0.64026 0.93473 0.0
C1226 C 0.5282 0.60717 0.93405 0.0
H1227 H 0.54971 0.49534 0.91298 0.0
H1228 H 0.55478 0.5441 0.91654 0.0
H1229 H 0.58467 0.50856 0.92173 0.0
H1230 H 0.59815 0.54251 0.93729 0.0
H1231 H 0.63587 0.59967 0.93847 0.0
H1232 H 0.60312 0.63735 0.06567 0.0
H1233 H 0.54555 0.60014 0.06674 0.0
H1234 H 0.61041 0.49795 0.06359 0.0
H1235 H 0.66867 0.53522 0.06279 0.0
H1236 H 0.51526 0.55625 0.05339 0.0
H1237 H 0.54378 0.46971 0.08591 0.0
H1238 H 0.5724 0.50989 0.08269 0.0
H1239 H 0.57949 0.4652 0.0768 0.0
C1240 C 0.60533 0.60691 0.0653 0.0
C1241 C 0.64063 0.58928 0.06414 0.0
C1242 C 0.57226 0.58565 0.06591 0.0
C1243 C 0.57347 0.54616 0.06534 0.0
C1244 C 0.60871 0.52832 0.06428 0.0
H1245 H 0.40601 0.37193 0.05903 0.0
H1246 H 0.46264 0.41033 0.06036 0.0
C1247 C 0.64203 0.54966 0.06378 0.0
C1248 C 0.53755 0.52426 0.06532 0.0
H1249 H 0.49034 0.45227 0.07646 0.0
C1250 C 0.50974 0.53373 0.0585 0.0
C1251 C 0.53019 0.49486 0.07199 0.0
C1252 C 0.55787 0.48451 0.07982 0.0
C1253 C 0.47528 0.51421 0.05801 0.0
C1254 C 0.46817 0.48455 0.06459 0.0
C1255 C 0.49581 0.47512 0.07145 0.0
C1256 C 0.43311 0.46159 0.06411 0.0
C1257 C 0.44717 0.52475 0.05029 0.0
C1258 C 0.39746 0.47755 0.06588 0.0
C1259 C 0.36465 0.45554 0.06513 0.0
C1260 C 0.36694 0.41717 0.06259 0.0
C1261 C 0.40288 0.40136 0.06096 0.0
C1262 C 0.43548 0.42326 0.06174 0.0
H1263 H 0.45986 0.54308 0.04466 0.0
H1264 H 0.43554 0.49911 0.04678 0.0
H1265 H 0.42336 0.5403 0.05364 0.0
H1266 H 0.39502 0.50701 0.06784 0.0
H1267 H 0.33756 0.46865 0.06647 0.0
H1268 H 0.46452 0.1656 0.32111 0.0
H1269 H 0.50376 0.10844 0.32221 0.0
H1270 H 0.42829 0.05076 0.3028 0.0
H1271 H 0.38923 0.10704 0.30165 0.0
H1272 H 0.47743 0.03033 0.32793 0.0
H1273 H 0.53683 0.03929 0.29089 0.0
H1274 H 0.51709 0.07961 0.29706 0.0
H1275 H 0.48654 0.04501 0.29172 0.0
C1276 C 0.45645 0.14081 0.31704 0.0
C1277 C 0.42367 0.14102 0.3113 0.0
C1278 C 0.47877 0.10815 0.31771 0.0
C1279 C 0.46897 0.07545 0.31255 0.0
C1280 C 0.4365 0.07573 0.30679 0.0
H1281 H 0.5408 0.84002 0.31671 0.0
H1282 H 0.50495 0.89924 0.31743 0.0
C1283 C 0.41414 0.10803 0.30618 0.0
C1284 C 0.49227 0.0407 0.31311 0.0
H1285 H 0.54631 0.98191 0.29933 0.0
C1286 C 0.49277 0.01981 0.32172 0.0
C1287 C 0.51223 0.02711 0.30499 0.0
C1288 C 0.51353 0.04898 0.29565 0.0
C1289 C 0.51224 0.98527 0.32236 0.0
C1290 C 0.53136 0.97116 0.31415 0.0
C1291 C 0.53136 0.9925 0.3056 0.0
C1292 C 0.55286 0.93509 0.3143 0.0
C1293 C 0.51255 0.96438 0.33185 0.0
C1294 C 0.59153 0.93543 0.31221 0.0
C1295 C 0.61193 0.90181 0.31173 0.0
C1296 C 0.59419 0.86675 0.31329 0.0
C1297 C 0.55544 0.86642 0.31551 0.0
C1298 C 0.53494 0.90029 0.31598 0.0
H1299 H 0.50427 0.98292 0.33796 0.0
H1300 H 0.49216 0.94067 0.33149 0.0
H1301 H 0.54091 0.95245 0.33335 0.0
H1302 H 0.60598 0.96186 0.31087 0.0
H1303 H 0.6417 0.90344 0.31003 0.0
H1304 H 0.84037 0.96786 0.56118 0.0
H1305 H 0.89968 0.00364 0.56166 0.0
H1306 H 0.96018 0.90194 0.5689 0.0
H1307 H 0.90159 0.86601 0.56805 0.0
H1308 H 0.95173 0.01712 0.57527 0.0
H1309 H 0.01916 0.93529 0.54589 0.0
H1310 H 0.9698 0.93064 0.54877 0.0
H1311 H 0.00483 0.90618 0.55581 0.0
C1312 C 0.86632 0.95324 0.56292 0.0
C1313 C 0.86635 0.91404 0.56445 0.0
C1314 C 0.90023 0.97367 0.56318 0.0
C1315 C 0.93468 0.95532 0.56504 0.0
C1316 C 0.93431 0.91655 0.56709 0.0
H1317 H 0.16885 0.03716 0.56796 0.0
H1318 H 0.11151 0.99859 0.56952 0.0
C1319 C 0.90067 0.89608 0.56668 0.0
C1320 C 0.97099 0.97656 0.56481 0.0
H1321 H 0.05851 0.97813 0.55438 0.0
C1322 C 0.975 0.0086 0.57068 0.0
C1323 C 1.00153 0.96551 0.55882 0.0
C1324 C 0.99856 0.93277 0.5519 0.0
C1325 C 0.00862 0.02965 0.57079 0.0
C1326 C 0.03905 0.01856 0.56481 0.0
C1327 C 0.03529 0.98634 0.55903 0.0
C1328 C 0.07396 0.04156 0.56397 0.0
C1329 C 0.01138 0.06357 0.57733 0.0
C1330 C 0.07196 0.07812 0.56018 0.0
C1331 C 0.10445 0.10005 0.55925 0.0
C1332 C 0.13999 0.08597 0.56207 0.0
C1333 C 0.14205 0.049 0.56576 0.0
C1334 C 0.10931 0.02694 0.56665 0.0
H1335 H 0.99016 0.06248 0.58322 0.0
H1336 H 0.03994 0.0658 0.58057 0.0
H1337 H 0.00612 0.08949 0.57304 0.0
H1338 H 0.04516 0.08969 0.55786 0.0
H1339 H 0.10153 0.1282 0.55631 0.0
H1340 H 0.86483 0.60085 0.81576 0.0
H1341 H 0.90154 0.54305 0.81726 0.0
H1342 H 0.0045 0.60771 0.81611 0.0
H1343 H 0.96773 0.6661 0.81488 0.0
H1344 H 0.94881 0.51373 0.8045 0.0
H1345 H 0.02684 0.53928 0.83853 0.0
H1346 H 0.98757 0.56822 0.83481 0.0
H1347 H 0.0337 0.57584 0.82975 0.0
C1348 C 0.89531 0.60295 0.81594 0.0
C1349 C 0.91332 0.63824 0.8152 0.0
C1350 C 0.91628 0.56976 0.8168 0.0
C1351 C 0.95584 0.57086 0.81691 0.0
C1352 C 0.97402 0.60608 0.81629 0.0
H1353 H 0.13212 0.40522 0.81183 0.0
H1354 H 0.09319 0.46149 0.81333 0.0
C1355 C 0.95296 0.63948 0.81553 0.0
C1356 C 0.97767 0.53492 0.81706 0.0
H1357 H 0.0472 0.48701 0.829 0.0
C1358 C 0.97006 0.50778 0.80992 0.0
C1359 C 0.00543 0.52703 0.82413 0.0
C1360 C 0.01366 0.55396 0.8323 0.0
C1361 C 0.98996 0.47353 0.80951 0.0
C1362 C 0.01805 0.46592 0.81649 0.0
C1363 C 0.02555 0.49285 0.82368 0.0
C1364 C 0.04144 0.43114 0.8161 0.0
C1365 C 0.98157 0.44622 0.80144 0.0
C1366 C 0.0254 0.39518 0.81732 0.0
C1367 C 0.0477 0.36262 0.81647 0.0
C1368 C 0.08644 0.36549 0.81437 0.0
C1369 C 0.10239 0.40171 0.81339 0.0
C1370 C 0.08019 0.43407 0.81428 0.0
H1371 H 0.96448 0.45939 0.79562 0.0
H1372 H 0.00812 0.43523 0.79825 0.0
H1373 H 0.9655 0.4219 0.80436 0.0
H1374 H 0.9956 0.3923 0.81887 0.0
H1375 H 0.03447 0.33528 0.8173 0.0
loop_
_geom_bond_atom_site_label_1
_geom_bond_atom_site_label_2
_geom_bond_distance
_geom_bond_site_symmetry_2
_ccdc_geom_bond_type
Co0 O1 2.216 . S
Co0 O2 2.091 . S
Co0 O4 2.004 . S
Co0 O10 2.021 . S
Co0 O12 2.137 . S
Co0 O13 2.244 . S
O1 Co0 2.216 . S
O1 C8 1.247 . S
O2 Co0 2.091 . S
O2 C8 1.261 . S
C3 O12 1.247 . S
C3 O13 1.272 . S
O4 Co0 2.004 . S
O4 C9 1.259 . S
Co5 O6 2.061 . S
Co5 O11 2.052 . S
Co5 O13 2.135 . S
O6 Co5 2.061 . S
O6 C9 1.235 . S
C7 O10 1.238 . S
C7 O11 1.241 . S
C8 O1 1.247 . S
C8 O2 1.261 . S
C9 O4 1.259 . S
C9 O6 1.235 . S
O10 Co0 2.021 . S
O10 C7 1.238 . S
O11 Co5 2.052 . S
O11 C7 1.241 . S
O12 Co0 2.137 . S
O12 C3 1.247 . S
O13 Co0 2.244 . S
O13 C3 1.272 . S
O13 Co5 2.135 . S
Co14 O15 2.216 . S
Co14 O16 2.091 . S
Co14 O18 2.004 . S
Co14 O24 2.021 . S
Co14 O26 2.137 . S
Co14 O27 2.244 . S
O15 Co14 2.216 . S
O15 C22 1.247 . S
O16 Co14 2.091 . S
O16 C22 1.261 . S
C17 O26 1.247 . S
C17 O27 1.272 . S
O18 Co14 2.004 . S
O18 C23 1.259 . S
Co19 O20 2.061 . S
Co19 O25 2.052 . S
Co19 O27 2.135 . S
O20 Co19 2.061 . S
O20 C23 1.235 . S
C21 O24 1.238 . S
C21 O25 1.241 . S
C22 O15 1.247 . S
C22 O16 1.261 . S
C23 O18 1.259 . S
C23 O20 1.235 . S
O24 Co14 2.021 . S
O24 C21 1.238 . S
O25 Co19 2.052 . S
O25 C21 1.241 . S
O26 Co14 2.137 . S
O26 C17 1.247 . S
O27 Co14 2.244 . S
O27 C17 1.272 . S
O27 Co19 2.135 . S
Co28 O29 2.216 . S
Co28 O30 2.091 . S
Co28 O32 2.004 . S
Co28 O38 2.021 . S
Co28 O40 2.137 . S
Co28 O41 2.244 . S
O29 Co28 2.216 . S
O29 C36 1.247 . S
O30 Co28 2.091 . S
O30 C36 1.261 . S
C31 O40 1.247 . S
C31 O41 1.272 . S
O32 Co28 2.004 . S
O32 C37 1.259 . S
Co33 O34 2.061 . S
Co33 O39 2.052 . S
Co33 O41 2.135 . S
O34 Co33 2.061 . S
O34 C37 1.235 . S
C35 O38 1.238 . S
C35 O39 1.241 . S
C36 O29 1.247 . S
C36 O30 1.261 . S
C37 O32 1.259 . S
C37 O34 1.235 . S
O38 Co28 2.021 . S
O38 C35 1.238 . S
O39 Co33 2.052 . S
O39 C35 1.241 . S
O40 Co28 2.137 . S
O40 C31 1.247 . S
O41 Co28 2.244 . S
O41 C31 1.272 . S
O41 Co33 2.135 . S
Co42 O43 2.216 . S
Co42 O44 2.091 . S
Co42 O46 2.004 . S
Co42 O52 2.021 . S
Co42 O54 2.137 . S
Co42 O55 2.244 . S
O43 Co42 2.216 . S
O43 C50 1.247 . S
O44 Co42 2.091 . S
O44 C50 1.261 . S
C45 O54 1.247 . S
C45 O55 1.272 . S
O46 Co42 2.004 . S
O46 C51 1.259 . S
Co47 O48 2.061 . S
Co47 O53 2.052 . S
Co47 O55 2.135 . S
O48 Co47 2.061 . S
O48 C51 1.235 . S
C49 O52 1.238 . S
C49 O53 1.241 . S
C50 O43 1.247 . S
C50 O44 1.261 . S
C51 O46 1.259 . S
C51 O48 1.235 . S
O52 Co42 2.021 . S
O52 C49 1.238 . S
O53 Co47 2.052 . S
O53 C49 1.241 . S
O54 Co42 2.137 . S
O54 C45 1.247 . S
O55 Co42 2.244 . S
O55 C45 1.272 . S
O55 Co47 2.135 . S
Co56 O57 2.216 . S
Co56 O58 2.091 . S
Co56 O60 2.004 . S
Co56 O66 2.021 . S
Co56 O68 2.137 . S
Co56 O69 2.244 . S
O57 Co56 2.216 . S
O57 C64 1.247 . S
O58 Co56 2.091 . S
O58 C64 1.261 . S
C59 O68 1.247 . S
C59 O69 1.272 . S
O60 Co56 2.004 . S
O60 C65 1.259 . S
Co61 O62 2.061 . S
Co61 O67 2.052 . S
Co61 O69 2.135 . S
O62 Co61 2.061 . S
O62 C65 1.235 . S
C63 O66 1.238 . S
C63 O67 1.241 . S
C64 O57 1.247 . S
C64 O58 1.261 . S
C65 O60 1.259 . S
C65 O62 1.235 . S
O66 Co56 2.021 . S
O66 C63 1.238 . S
O67 Co61 2.052 . S
O67 C63 1.241 . S
O68 Co56 2.137 . S
O68 C59 1.247 . S
O69 Co56 2.244 . S
O69 C59 1.272 . S
O69 Co61 2.135 . S
Co70 O71 2.216 . S
Co70 O72 2.091 . S
Co70 O74 2.004 . S
Co70 O80 2.021 . S
Co70 O82 2.137 . S
Co70 O83 2.244 . S
O71 Co70 2.216 . S
O71 C78 1.247 . S
O72 Co70 2.091 . S
O72 C78 1.261 . S
C73 O82 1.247 . S
C73 O83 1.272 . S
O74 Co70 2.004 . S
O74 C79 1.259 . S
Co75 O76 2.061 . S
Co75 O81 2.052 . S
Co75 O83 2.135 . S
O76 Co75 2.061 . S
O76 C79 1.235 . S
C77 O80 1.238 . S
C77 O81 1.241 . S
C78 O71 1.247 . S
C78 O72 1.261 . S
C79 O74 1.259 . S
C79 O76 1.235 . S
O80 Co70 2.021 . S
O80 C77 1.238 . S
O81 Co75 2.052 . S
O81 C77 1.241 . S
O82 Co70 2.137 . S
O82 C73 1.247 . S
O83 Co70 2.244 . S
O83 C73 1.272 . S
O83 Co75 2.135 . S
Co84 O85 2.216 . S
Co84 O86 2.091 . S
Co84 O88 2.004 . S
Co84 O94 2.021 . S
Co84 O96 2.137 . S
Co84 O97 2.244 . S
O85 Co84 2.216 . S
O85 C92 1.247 . S
O86 Co84 2.091 . S
O86 C92 1.261 . S
C87 O96 1.247 . S
C87 O97 1.272 . S
O88 Co84 2.004 . S
O88 C93 1.259 . S
Co89 O90 2.061 . S
Co89 O95 2.052 . S
Co89 O97 2.135 . S
O90 Co89 2.061 . S
O90 C93 1.235 . S
C91 O94 1.238 . S
C91 O95 1.241 . S
C92 O85 1.247 . S
C92 O86 1.261 . S
C93 O88 1.259 . S
C93 O90 1.235 . S
O94 Co84 2.021 . S
O94 C91 1.238 . S
O95 Co89 2.052 . S
O95 C91 1.241 . S
O96 Co84 2.137 . S
O96 C87 1.247 . S
O97 Co84 2.244 . S
O97 C87 1.272 . S
O97 Co89 2.135 . S
Co98 O99 2.216 . S
Co98 O100 2.091 . S
Co98 O102 2.004 . S
Co98 O108 2.021 . S
Co98 O110 2.137 . S
Co98 O111 2.244 . S
O99 Co98 2.216 . S
O99 C106 1.247 . S
O100 Co98 2.091 . S
O100 C106 1.261 . S
C101 O110 1.247 . S
C101 O111 1.272 . S
O102 Co98 2.004 . S
O102 C107 1.259 . S
Co103 O104 2.061 . S
Co103 O109 2.052 . S
Co103 O111 2.135 . S
O104 Co103 2.061 . S
O104 C107 1.235 . S
C105 O108 1.238 . S
C105 O109 1.241 . S
C106 O99 1.247 . S
C106 O100 1.261 . S
C107 O102 1.259 . S
C107 O104 1.235 . S
O108 Co98 2.021 . S
O108 C105 1.238 . S
O109 Co103 2.052 . S
O109 C105 1.241 . S
O110 Co98 2.137 . S
O110 C101 1.247 . S
O111 Co98 2.244 . S
O111 C101 1.272 . S
O111 Co103 2.135 . S
Co112 O113 2.216 . S
Co112 O114 2.091 . S
Co112 O116 2.004 . S
Co112 O122 2.021 . S
Co112 O124 2.137 . S
Co112 O125 2.244 . S
O113 Co112 2.216 . S
O113 C120 1.247 . S
O114 Co112 2.091 . S
O114 C120 1.261 . S
C115 O124 1.247 . S
C115 O125 1.272 . S
O116 Co112 2.004 . S
O116 C121 1.259 . S
Co117 O118 2.061 . S
Co117 O123 2.052 . S
Co117 O125 2.135 . S
O118 Co117 2.061 . S
O118 C121 1.235 . S
C119 O122 1.238 . S
C119 O123 1.241 . S
C120 O113 1.247 . S
C120 O114 1.261 . S
C121 O116 1.259 . S
C121 O118 1.235 . S
O122 Co112 2.021 . S
O122 C119 1.238 . S
O123 Co117 2.052 . S
O123 C119 1.241 . S
O124 Co112 2.137 . S
O124 C115 1.247 . S
O125 Co112 2.244 . S
O125 C115 1.272 . S
O125 Co117 2.135 . S
Co126 O127 2.216 . S
Co126 O128 2.091 . S
Co126 O130 2.004 . S
Co126 O136 2.021 . S
Co126 O138 2.137 . S
Co126 O139 2.244 . S
O127 Co126 2.216 . S
O127 C134 1.247 . S
O128 Co126 2.091 . S
O128 C134 1.261 . S
C129 O138 1.247 . S
C129 O139 1.272 . S
O130 Co126 2.004 . S
O130 C135 1.259 . S
Co131 O132 2.061 . S
Co131 O137 2.052 . S
Co131 O139 2.135 . S
O132 Co131 2.061 . S
O132 C135 1.235 . S
C133 O136 1.238 . S
C133 O137 1.241 . S
C134 O127 1.247 . S
C134 O128 1.261 . S
C135 O130 1.259 . S
C135 O132 1.235 . S
O136 Co126 2.021 . S
O136 C133 1.238 . S
O137 Co131 2.052 . S
O137 C133 1.241 . S
O138 Co126 2.137 . S
O138 C129 1.247 . S
O139 Co126 2.244 . S
O139 C129 1.272 . S
O139 Co131 2.135 . S
Co140 O141 2.216 . S
Co140 O142 2.091 . S
Co140 O144 2.004 . S
Co140 O150 2.021 . S
Co140 O152 2.137 . S
Co140 O153 2.244 . S
O141 Co140 2.216 . S
O141 C148 1.247 . S
O142 Co140 2.091 . S
O142 C148 1.261 . S
C143 O152 1.247 . S
C143 O153 1.272 . S
O144 Co140 2.004 . S
O144 C149 1.259 . S
Co145 O146 2.061 . S
Co145 O151 2.052 . S
Co145 O153 2.135 . S
O146 Co145 2.061 . S
O146 C149 1.235 . S
C147 O150 1.238 . S
C147 O151 1.241 . S
C148 O141 1.247 . S
C148 O142 1.261 . S
C149 O144 1.259 . S
C149 O146 1.235 . S
O150 Co140 2.021 . S
O150 C147 1.238 . S
O151 Co145 2.052 . S
O151 C147 1.241 . S
O152 Co140 2.137 . S
O152 C143 1.247 . S
O153 Co140 2.244 . S
O153 C143 1.272 . S
O153 Co145 2.135 . S
Co154 O155 2.216 . S
Co154 O156 2.091 . S
Co154 O158 2.004 . S
Co154 O164 2.021 . S
Co154 O166 2.137 . S
Co154 O167 2.244 . S
O155 Co154 2.216 . S
O155 C162 1.247 . S
O156 Co154 2.091 . S
O156 C162 1.261 . S
C157 O166 1.247 . S
C157 O167 1.272 . S
O158 Co154 2.004 . S
O158 C163 1.259 . S
Co159 O160 2.061 . S
Co159 O165 2.052 . S
Co159 O167 2.135 . S
O160 Co159 2.061 . S
O160 C163 1.235 . S
C161 O164 1.238 . S
C161 O165 1.241 . S
C162 O155 1.247 . S
C162 O156 1.261 . S
C163 O158 1.259 . S
C163 O160 1.235 . S
O164 Co154 2.021 . S
O164 C161 1.238 . S
O165 Co159 2.052 . S
O165 C161 1.241 . S
O166 Co154 2.137 . S
O166 C157 1.247 . S
O167 Co154 2.244 . S
O167 C157 1.272 . S
O167 Co159 2.135 . S
Co168 O169 2.216 . S
Co168 O170 2.091 . S
Co168 O172 2.004 . S
Co168 O178 2.021 . S
Co168 O180 2.137 . S
Co168 O181 2.244 . S
O169 Co168 2.216 . S
O169 C176 1.247 . S
O170 Co168 2.091 . S
O170 C176 1.261 . S
C171 O180 1.247 . S
C171 O181 1.272 . S
O172 Co168 2.004 . S
O172 C177 1.259 . S
Co173 O174 2.061 . S
Co173 O179 2.052 . S
Co173 O181 2.135 . S
O174 Co173 2.061 . S
O174 C177 1.235 . S
C175 O178 1.238 . S
C175 O179 1.241 . S
C176 O169 1.247 . S
C176 O170 1.261 . S
C177 O172 1.259 . S
C177 O174 1.235 . S
O178 Co168 2.021 . S
O178 C175 1.238 . S
O179 Co173 2.052 . S
O179 C175 1.241 . S
O180 Co168 2.137 . S
O180 C171 1.247 . S
O181 Co168 2.244 . S
O181 C171 1.272 . S
O181 Co173 2.135 . S
Co182 O183 2.216 . S
Co182 O184 2.091 . S
Co182 O186 2.004 . S
Co182 O192 2.021 . S
Co182 O194 2.137 . S
Co182 O195 2.244 . S
O183 Co182 2.216 . S
O183 C190 1.247 . S
O184 Co182 2.091 . S
O184 C190 1.261 . S
C185 O194 1.247 . S
C185 O195 1.272 . S
O186 Co182 2.004 . S
O186 C191 1.259 . S
Co187 O188 2.061 . S
Co187 O193 2.052 . S
Co187 O195 2.135 . S
O188 Co187 2.061 . S
O188 C191 1.235 . S
C189 O192 1.238 . S
C189 O193 1.241 . S
C190 O183 1.247 . S
C190 O184 1.261 . S
C191 O186 1.259 . S
C191 O188 1.235 . S
O192 Co182 2.021 . S
O192 C189 1.238 . S
O193 Co187 2.052 . S
O193 C189 1.241 . S
O194 Co182 2.137 . S
O194 C185 1.247 . S
O195 Co182 2.244 . S
O195 C185 1.272 . S
O195 Co187 2.135 . S
Co196 O197 2.216 . S
Co196 O198 2.091 . S
Co196 O200 2.004 . S
Co196 O206 2.021 . S
Co196 O208 2.137 . S
Co196 O209 2.244 . S
O197 Co196 2.216 . S
O197 C204 1.247 . S
O198 Co196 2.091 . S
O198 C204 1.261 . S
C199 O208 1.247 . S
C199 O209 1.272 . S
O200 Co196 2.004 . S
O200 C205 1.259 . S
Co201 O202 2.061 . S
Co201 O207 2.052 . S
Co201 O209 2.135 . S
O202 Co201 2.061 . S
O202 C205 1.235 . S
C203 O206 1.238 . S
C203 O207 1.241 . S
C204 O197 1.247 . S
C204 O198 1.261 . S
C205 O200 1.259 . S
C205 O202 1.235 . S
O206 Co196 2.021 . S
O206 C203 1.238 . S
O207 Co201 2.052 . S
O207 C203 1.241 . S
O208 Co196 2.137 . S
O208 C199 1.247 . S
O209 Co196 2.244 . S
O209 C199 1.272 . S
O209 Co201 2.135 . S
Co210 O211 2.216 . S
Co210 O212 2.091 . S
Co210 O214 2.004 . S
Co210 O220 2.021 . S
Co210 O222 2.137 . S
Co210 O223 2.244 . S
O211 Co210 2.216 . S
O211 C218 1.247 . S
O212 Co210 2.091 . S
O212 C218 1.261 . S
C213 O222 1.247 . S
C213 O223 1.272 . S
O214 Co210 2.004 . S
O214 C219 1.259 . S
Co215 O216 2.061 . S
Co215 O221 2.052 . S
Co215 O223 2.135 . S
O216 Co215 2.061 . S
O216 C219 1.235 . S
C217 O220 1.238 . S
C217 O221 1.241 . S
C218 O211 1.247 . S
C218 O212 1.261 . S
C219 O214 1.259 . S
C219 O216 1.235 . S
O220 Co210 2.021 . S
O220 C217 1.238 . S
O221 Co215 2.052 . S
O221 C217 1.241 . S
O222 Co210 2.137 . S
O222 C213 1.247 . S
O223 Co210 2.244 . S
O223 C213 1.272 . S
O223 Co215 2.135 . S
H224 C232 0.929 . S
H225 C234 0.930 . S
H226 C236 0.930 . S
H227 C239 0.929 . S
H228 C242 0.930 . S
H229 C244 0.960 . S
H230 C244 0.960 . S
H231 C244 0.960 . S
C232 H224 0.929 . S
C232 C233 1.377 . S
C232 C234 1.384 . S
C233 C232 1.377 . S
C233 C239 1.390 . S
C234 H225 0.930 . S
C234 C232 1.384 . S
C234 C235 1.372 . S
C235 C234 1.372 . S
C235 C236 1.400 . S
C235 C240 1.490 . S
C236 H226 0.930 . S
C236 C235 1.400 . S
C236 C239 1.386 . S
H237 C253 0.930 . S
H238 C254 0.931 . S
C239 H227 0.929 . S
C239 C233 1.390 . S
C239 C236 1.386 . S
C240 C235 1.490 . S
C240 C242 1.395 . S
C240 C243 1.403 . S
H241 C247 0.930 . S
C242 H228 0.930 . S
C242 C240 1.395 . S
C242 C245 1.403 . S
C243 C240 1.403 . S
C243 C244 1.524 . S
C243 C247 1.400 . S
C244 H229 0.960 . S
C244 H230 0.960 . S
C244 H231 0.960 . S
C244 C243 1.524 . S
C245 C242 1.403 . S
C245 C246 1.392 . S
C245 C249 1.495 . S
C246 C245 1.392 . S
C246 C247 1.385 . S
C246 C248 1.478 . S
C247 H241 0.930 . S
C247 C243 1.400 . S
C247 C246 1.385 . S
C248 C246 1.478 . S
C248 C250 1.381 . S
C248 C254 1.383 . S
C249 C245 1.495 . S
C249 H255 0.959 . S
C249 H256 0.961 . S
C249 H257 0.960 . S
C250 C248 1.381 . S
C250 C251 1.394 . S
C250 H258 0.930 . S
C251 C250 1.394 . S
C251 C252 1.383 . S
C251 H259 0.929 . S
C252 C251 1.383 . S
C252 C253 1.377 . S
C253 H237 0.930 . S
C253 C252 1.377 . S
C253 C254 1.379 . S
C254 H238 0.931 . S
C254 C248 1.383 . S
C254 C253 1.379 . S
H255 C249 0.959 . S
H256 C249 0.961 . S
H257 C249 0.960 . S
H258 C250 0.930 . S
H259 C251 0.929 . S
H260 C268 0.929 . S
H261 C270 0.930 . S
H262 C272 0.930 . S
H263 C275 0.929 . S
H264 C278 0.930 . S
H265 C280 0.960 . S
H266 C280 0.960 . S
H267 C280 0.960 . S
C268 H260 0.929 . S
C268 C269 1.377 . S
C268 C270 1.384 . S
C269 C268 1.377 . S
C269 C275 1.390 . S
C270 H261 0.930 . S
C270 C268 1.384 . S
C270 C271 1.372 . S
C271 C270 1.372 . S
C271 C272 1.400 . S
C271 C276 1.490 . S
C272 H262 0.930 . S
C272 C271 1.400 . S
C272 C275 1.386 . S
H273 C289 0.930 . S
H274 C290 0.931 . S
C275 H263 0.929 . S
C275 C269 1.390 . S
C275 C272 1.386 . S
C276 C271 1.490 . S
C276 C278 1.395 . S
C276 C279 1.403 . S
H277 C283 0.930 . S
C278 H264 0.930 . S
C278 C276 1.395 . S
C278 C281 1.403 . S
C279 C276 1.403 . S
C279 C280 1.524 . S
C279 C283 1.400 . S
C280 H265 0.960 . S
C280 H266 0.960 . S
C280 H267 0.960 . S
C280 C279 1.524 . S
C281 C278 1.403 . S
C281 C282 1.392 . S
C281 C285 1.495 . S
C282 C281 1.392 . S
C282 C283 1.385 . S
C282 C284 1.478 . S
C283 H277 0.930 . S
C283 C279 1.400 . S
C283 C282 1.385 . S
C284 C282 1.478 . S
C284 C286 1.381 . S
C284 C290 1.383 . S
C285 C281 1.495 . S
C285 H291 0.959 . S
C285 H292 0.961 . S
C285 H293 0.960 . S
C286 C284 1.381 . S
C286 C287 1.394 . S
C286 H294 0.930 . S
C287 C286 1.394 . S
C287 C288 1.383 . S
C287 H295 0.929 . S
C288 C287 1.383 . S
C288 C289 1.377 . S
C289 H273 0.930 . S
C289 C288 1.377 . S
C289 C290 1.379 . S
C290 H274 0.931 . S
C290 C284 1.383 . S
C290 C289 1.379 . S
H291 C285 0.959 . S
H292 C285 0.961 . S
H293 C285 0.960 . S
H294 C286 0.930 . S
H295 C287 0.929 . S
H296 C304 0.929 . S
H297 C306 0.930 . S
H298 C308 0.930 . S
H299 C311 0.929 . S
H300 C314 0.930 . S
H301 C316 0.960 . S
H302 C316 0.960 . S
H303 C316 0.960 . S
C304 H296 0.929 . S
C304 C305 1.377 . S
C304 C306 1.384 . S
C305 C304 1.377 . S
C305 C311 1.390 . S
C306 H297 0.930 . S
C306 C304 1.384 . S
C306 C307 1.372 . S
C307 C306 1.372 . S
C307 C308 1.400 . S
C307 C312 1.490 . S
C308 H298 0.930 . S
C308 C307 1.400 . S
C308 C311 1.386 . S
H309 C325 0.930 . S
H310 C326 0.931 . S
C311 H299 0.929 . S
C311 C305 1.390 . S
C311 C308 1.386 . S
C312 C307 1.490 . S
C312 C314 1.395 . S
C312 C315 1.403 . S
H313 C319 0.930 . S
C314 H300 0.930 . S
C314 C312 1.395 . S
C314 C317 1.403 . S
C315 C312 1.403 . S
C315 C316 1.524 . S
C315 C319 1.400 . S
C316 H301 0.960 . S
C316 H302 0.960 . S
C316 H303 0.960 . S
C316 C315 1.524 . S
C317 C314 1.403 . S
C317 C318 1.392 . S
C317 C321 1.495 . S
C318 C317 1.392 . S
C318 C319 1.385 . S
C318 C320 1.478 . S
C319 H313 0.930 . S
C319 C315 1.400 . S
C319 C318 1.385 . S
C320 C318 1.478 . S
C320 C322 1.381 . S
C320 C326 1.383 . S
C321 C317 1.495 . S
C321 H327 0.959 . S
C321 H328 0.961 . S
C321 H329 0.960 . S
C322 C320 1.381 . S
C322 C323 1.394 . S
C322 H330 0.930 . S
C323 C322 1.394 . S
C323 C324 1.383 . S
C323 H331 0.929 . S
C324 C323 1.383 . S
C324 C325 1.377 . S
C325 H309 0.930 . S
C325 C324 1.377 . S
C325 C326 1.379 . S
C326 H310 0.931 . S
C326 C320 1.383 . S
C326 C325 1.379 . S
H327 C321 0.959 . S
H328 C321 0.961 . S
H329 C321 0.960 . S
H330 C322 0.930 . S
H331 C323 0.929 . S
H332 C340 0.929 . S
H333 C342 0.930 . S
H334 C344 0.930 . S
H335 C347 0.929 . S
H336 C350 0.930 . S
H337 C352 0.960 . S
H338 C352 0.960 . S
H339 C352 0.960 . S
C340 H332 0.929 . S
C340 C341 1.377 . S
C340 C342 1.384 . S
C341 C340 1.377 . S
C341 C347 1.390 . S
C342 H333 0.930 . S
C342 C340 1.384 . S
C342 C343 1.372 . S
C343 C342 1.372 . S
C343 C344 1.400 . S
C343 C348 1.490 . S
C344 H334 0.930 . S
C344 C343 1.400 . S
C344 C347 1.386 . S
H345 C361 0.930 . S
H346 C362 0.931 . S
C347 H335 0.929 . S
C347 C341 1.390 . S
C347 C344 1.386 . S
C348 C343 1.490 . S
C348 C350 1.395 . S
C348 C351 1.403 . S
H349 C355 0.930 . S
C350 H336 0.930 . S
C350 C348 1.395 . S
C350 C353 1.403 . S
C351 C348 1.403 . S
C351 C352 1.524 . S
C351 C355 1.400 . S
C352 H337 0.960 . S
C352 H338 0.960 . S
C352 H339 0.960 . S
C352 C351 1.524 . S
C353 C350 1.403 . S
C353 C354 1.392 . S
C353 C357 1.495 . S
C354 C353 1.392 . S
C354 C355 1.385 . S
C354 C356 1.478 . S
C355 H349 0.930 . S
C355 C351 1.400 . S
C355 C354 1.385 . S
C356 C354 1.478 . S
C356 C358 1.381 . S
C356 C362 1.383 . S
C357 C353 1.495 . S
C357 H363 0.959 . S
C357 H364 0.961 . S
C357 H365 0.960 . S
C358 C356 1.381 . S
C358 C359 1.394 . S
C358 H366 0.930 . S
C359 C358 1.394 . S
C359 C360 1.383 . S
C359 H367 0.929 . S
C360 C359 1.383 . S
C360 C361 1.377 . S
C361 H345 0.930 . S
C361 C360 1.377 . S
C361 C362 1.379 . S
C362 H346 0.931 . S
C362 C356 1.383 . S
C362 C361 1.379 . S
H363 C357 0.959 . S
H364 C357 0.961 . S
H365 C357 0.960 . S
H366 C358 0.930 . S
H367 C359 0.929 . S
H368 C376 0.929 . S
H369 C378 0.930 . S
H370 C380 0.930 . S
H371 C383 0.929 . S
H372 C386 0.930 . S
H373 C388 0.960 . S
H374 C388 0.960 . S
H375 C388 0.960 . S
C376 H368 0.929 . S
C376 C377 1.377 . S
C376 C378 1.384 . S
C377 C376 1.377 . S
C377 C383 1.390 . S
C378 H369 0.930 . S
C378 C376 1.384 . S
C378 C379 1.372 . S
C379 C378 1.372 . S
C379 C380 1.400 . S
C379 C384 1.490 . S
C380 H370 0.930 . S
C380 C379 1.400 . S
C380 C383 1.386 . S
H381 C397 0.930 . S
H382 C398 0.931 . S
C383 H371 0.929 . S
C383 C377 1.390 . S
C383 C380 1.386 . S
C384 C379 1.490 . S
C384 C386 1.395 . S
C384 C387 1.403 . S
H385 C391 0.930 . S
C386 H372 0.930 . S
C386 C384 1.395 . S
C386 C389 1.403 . S
C387 C384 1.403 . S
C387 C388 1.524 . S
C387 C391 1.400 . S
C388 H373 0.960 . S
C388 H374 0.960 . S
C388 H375 0.960 . S
C388 C387 1.524 . S
C389 C386 1.403 . S
C389 C390 1.392 . S
C389 C393 1.495 . S
C390 C389 1.392 . S
C390 C391 1.385 . S
C390 C392 1.478 . S
C391 H385 0.930 . S
C391 C387 1.400 . S
C391 C390 1.385 . S
C392 C390 1.478 . S
C392 C394 1.381 . S
C392 C398 1.383 . S
C393 C389 1.495 . S
C393 H399 0.959 . S
C393 H400 0.961 . S
C393 H401 0.960 . S
C394 C392 1.381 . S
C394 C395 1.394 . S
C394 H402 0.930 . S
C395 C394 1.394 . S
C395 C396 1.383 . S
C395 H403 0.929 . S
C396 C395 1.383 . S
C396 C397 1.377 . S
C397 H381 0.930 . S
C397 C396 1.377 . S
C397 C398 1.379 . S
C398 H382 0.931 . S
C398 C392 1.383 . S
C398 C397 1.379 . S
H399 C393 0.959 . S
H400 C393 0.961 . S
H401 C393 0.960 . S
H402 C394 0.930 . S
H403 C395 0.929 . S
H404 C412 0.929 . S
H405 C414 0.930 . S
H406 C416 0.930 . S
H407 C419 0.929 . S
H408 C422 0.930 . S
H409 C424 0.960 . S
H410 C424 0.960 . S
H411 C424 0.960 . S
C412 H404 0.929 . S
C412 C413 1.377 . S
C412 C414 1.384 . S
C413 C412 1.377 . S
C413 C419 1.390 . S
C414 H405 0.930 . S
C414 C412 1.384 . S
C414 C415 1.372 . S
C415 C414 1.372 . S
C415 C416 1.400 . S
C415 C420 1.490 . S
C416 H406 0.930 . S
C416 C415 1.400 . S
C416 C419 1.386 . S
H417 C433 0.930 . S
H418 C434 0.931 . S
C419 H407 0.929 . S
C419 C413 1.390 . S
C419 C416 1.386 . S
C420 C415 1.490 . S
C420 C422 1.395 . S
C420 C423 1.403 . S
H421 C427 0.930 . S
C422 H408 0.930 . S
C422 C420 1.395 . S
C422 C425 1.403 . S
C423 C420 1.403 . S
C423 C424 1.524 . S
C423 C427 1.400 . S
C424 H409 0.960 . S
C424 H410 0.960 . S
C424 H411 0.960 . S
C424 C423 1.524 . S
C425 C422 1.403 . S
C425 C426 1.392 . S
C425 C429 1.495 . S
C426 C425 1.392 . S
C426 C427 1.385 . S
C426 C428 1.478 . S
C427 H421 0.930 . S
C427 C423 1.400 . S
C427 C426 1.385 . S
C428 C426 1.478 . S
C428 C430 1.381 . S
C428 C434 1.383 . S
C429 C425 1.495 . S
C429 H435 0.959 . S
C429 H436 0.961 . S
C429 H437 0.960 . S
C430 C428 1.381 . S
C430 C431 1.394 . S
C430 H438 0.930 . S
C431 C430 1.394 . S
C431 C432 1.383 . S
C431 H439 0.929 . S
C432 C431 1.383 . S
C432 C433 1.377 . S
C433 H417 0.930 . S
C433 C432 1.377 . S
C433 C434 1.379 . S
C434 H418 0.931 . S
C434 C428 1.383 . S
C434 C433 1.379 . S
H435 C429 0.959 . S
H436 C429 0.961 . S
H437 C429 0.960 . S
H438 C430 0.930 . S
H439 C431 0.929 . S
H440 C448 0.929 . S
H441 C450 0.930 . S
H442 C452 0.930 . S
H443 C455 0.929 . S
H444 C458 0.930 . S
H445 C460 0.960 . S
H446 C460 0.960 . S
H447 C460 0.960 . S
C448 H440 0.929 . S
C448 C449 1.377 . S
C448 C450 1.384 . S
C449 C448 1.377 . S
C449 C455 1.390 . S
C450 H441 0.930 . S
C450 C448 1.384 . S
C450 C451 1.372 . S
C451 C450 1.372 . S
C451 C452 1.400 . S
C451 C456 1.490 . S
C452 H442 0.930 . S
C452 C451 1.400 . S
C452 C455 1.386 . S
H453 C469 0.930 . S
H454 C470 0.931 . S
C455 H443 0.929 . S
C455 C449 1.390 . S
C455 C452 1.386 . S
C456 C451 1.490 . S
C456 C458 1.395 . S
C456 C459 1.403 . S
H457 C463 0.930 . S
C458 H444 0.930 . S
C458 C456 1.395 . S
C458 C461 1.403 . S
C459 C456 1.403 . S
C459 C460 1.524 . S
C459 C463 1.400 . S
C460 H445 0.960 . S
C460 H446 0.960 . S
C460 H447 0.960 . S
C460 C459 1.524 . S
C461 C458 1.403 . S
C461 C462 1.392 . S
C461 C465 1.495 . S
C462 C461 1.392 . S
C462 C463 1.385 . S
C462 C464 1.478 . S
C463 H457 0.930 . S
C463 C459 1.400 . S
C463 C462 1.385 . S
C464 C462 1.478 . S
C464 C466 1.381 . S
C464 C470 1.383 . S
C465 C461 1.495 . S
C465 H471 0.959 . S
C465 H472 0.961 . S
C465 H473 0.960 . S
C466 C464 1.381 . S
C466 C467 1.394 . S
C466 H474 0.930 . S
C467 C466 1.394 . S
C467 C468 1.383 . S
C467 H475 0.929 . S
C468 C467 1.383 . S
C468 C469 1.377 . S
C469 H453 0.930 . S
C469 C468 1.377 . S
C469 C470 1.379 . S
C470 H454 0.931 . S
C470 C464 1.383 . S
C470 C469 1.379 . S
H471 C465 0.959 . S
H472 C465 0.961 . S
H473 C465 0.960 . S
H474 C466 0.930 . S
H475 C467 0.929 . S
H476 C484 0.929 . S
H477 C486 0.930 . S
H478 C488 0.930 . S
H479 C491 0.929 . S
H480 C494 0.930 . S
H481 C496 0.960 . S
H482 C496 0.960 . S
H483 C496 0.960 . S
C484 H476 0.929 . S
C484 C485 1.377 . S
C484 C486 1.384 . S
C485 C484 1.377 . S
C485 C491 1.390 . S
C486 H477 0.930 . S
C486 C484 1.384 . S
C486 C487 1.372 . S
C487 C486 1.372 . S
C487 C488 1.400 . S
C487 C492 1.490 . S
C488 H478 0.930 . S
C488 C487 1.400 . S
C488 C491 1.386 . S
H489 C505 0.930 . S
H490 C506 0.931 . S
C491 H479 0.929 . S
C491 C485 1.390 . S
C491 C488 1.386 . S
C492 C487 1.490 . S
C492 C494 1.395 . S
C492 C495 1.403 . S
H493 C499 0.930 . S
C494 H480 0.930 . S
C494 C492 1.395 . S
C494 C497 1.403 . S
C495 C492 1.403 . S
C495 C496 1.524 . S
C495 C499 1.400 . S
C496 H481 0.960 . S
C496 H482 0.960 . S
C496 H483 0.960 . S
C496 C495 1.524 . S
C497 C494 1.403 . S
C497 C498 1.392 . S
C497 C501 1.495 . S
C498 C497 1.392 . S
C498 C499 1.385 . S
C498 C500 1.478 . S
C499 H493 0.930 . S
C499 C495 1.400 . S
C499 C498 1.385 . S
C500 C498 1.478 . S
C500 C502 1.381 . S
C500 C506 1.383 . S
C501 C497 1.495 . S
C501 H507 0.959 . S
C501 H508 0.961 . S
C501 H509 0.960 . S
C502 C500 1.381 . S
C502 C503 1.394 . S
C502 H510 0.930 . S
C503 C502 1.394 . S
C503 C504 1.383 . S
C503 H511 0.929 . S
C504 C503 1.383 . S
C504 C505 1.377 . S
C505 H489 0.930 . S
C505 C504 1.377 . S
C505 C506 1.379 . S
C506 H490 0.931 . S
C506 C500 1.383 . S
C506 C505 1.379 . S
H507 C501 0.959 . S
H508 C501 0.961 . S
H509 C501 0.960 . S
H510 C502 0.930 . S
H511 C503 0.929 . S
H512 C520 0.929 . S
H513 C522 0.930 . S
H514 C524 0.930 . S
H515 C527 0.929 . S
H516 C530 0.930 . S
H517 C532 0.960 . S
H518 C532 0.960 . S
H519 C532 0.960 . S
C520 H512 0.929 . S
C520 C521 1.377 . S
C520 C522 1.384 . S
C521 C520 1.377 . S
C521 C527 1.390 . S
C522 H513 0.930 . S
C522 C520 1.384 . S
C522 C523 1.372 . S
C523 C522 1.372 . S
C523 C524 1.400 . S
C523 C528 1.490 . S
C524 H514 0.930 . S
C524 C523 1.400 . S
C524 C527 1.386 . S
H525 C541 0.930 . S
H526 C542 0.931 . S
C527 H515 0.929 . S
C527 C521 1.390 . S
C527 C524 1.386 . S
C528 C523 1.490 . S
C528 C530 1.395 . S
C528 C531 1.403 . S
H529 C535 0.930 . S
C530 H516 0.930 . S
C530 C528 1.395 . S
C530 C533 1.403 . S
C531 C528 1.403 . S
C531 C532 1.524 . S
C531 C535 1.400 . S
C532 H517 0.960 . S
C532 H518 0.960 . S
C532 H519 0.960 . S
C532 C531 1.524 . S
C533 C530 1.403 . S
C533 C534 1.392 . S
C533 C537 1.495 . S
C534 C533 1.392 . S
C534 C535 1.385 . S
C534 C536 1.478 . S
C535 H529 0.930 . S
C535 C531 1.400 . S
C535 C534 1.385 . S
C536 C534 1.478 . S
C536 C538 1.381 . S
C536 C542 1.383 . S
C537 C533 1.495 . S
C537 H543 0.959 . S
C537 H544 0.961 . S
C537 H545 0.960 . S
C538 C536 1.381 . S
C538 C539 1.394 . S
C538 H546 0.930 . S
C539 C538 1.394 . S
C539 C540 1.383 . S
C539 H547 0.929 . S
C540 C539 1.383 . S
C540 C541 1.377 . S
C541 H525 0.930 . S
C541 C540 1.377 . S
C541 C542 1.379 . S
C542 H526 0.931 . S
C542 C536 1.383 . S
C542 C541 1.379 . S
H543 C537 0.959 . S
H544 C537 0.961 . S
H545 C537 0.960 . S
H546 C538 0.930 . S
H547 C539 0.929 . S
H548 C556 0.929 . S
H549 C558 0.930 . S
H550 C560 0.930 . S
H551 C563 0.929 . S
H552 C566 0.930 . S
H553 C568 0.960 . S
H554 C568 0.960 . S
H555 C568 0.960 . S
C556 H548 0.929 . S
C556 C557 1.377 . S
C556 C558 1.384 . S
C557 C556 1.377 . S
C557 C563 1.390 . S
C558 H549 0.930 . S
C558 C556 1.384 . S
C558 C559 1.372 . S
C559 C558 1.372 . S
C559 C560 1.400 . S
C559 C564 1.490 . S
C560 H550 0.930 . S
C560 C559 1.400 . S
C560 C563 1.386 . S
H561 C577 0.930 . S
H562 C578 0.931 . S
C563 H551 0.929 . S
C563 C557 1.390 . S
C563 C560 1.386 . S
C564 C559 1.490 . S
C564 C566 1.395 . S
C564 C567 1.403 . S
H565 C571 0.930 . S
C566 H552 0.930 . S
C566 C564 1.395 . S
C566 C569 1.403 . S
C567 C564 1.403 . S
C567 C568 1.524 . S
C567 C571 1.400 . S
C568 H553 0.960 . S
C568 H554 0.960 . S
C568 H555 0.960 . S
C568 C567 1.524 . S
C569 C566 1.403 . S
C569 C570 1.392 . S
C569 C573 1.495 . S
C570 C569 1.392 . S
C570 C571 1.385 . S
C570 C572 1.478 . S
C571 H565 0.930 . S
C571 C567 1.400 . S
C571 C570 1.385 . S
C572 C570 1.478 . S
C572 C574 1.381 . S
C572 C578 1.383 . S
C573 C569 1.495 . S
C573 H579 0.959 . S
C573 H580 0.961 . S
C573 H581 0.960 . S
C574 C572 1.381 . S
C574 C575 1.394 . S
C574 H582 0.930 . S
C575 C574 1.394 . S
C575 C576 1.383 . S
C575 H583 0.929 . S
C576 C575 1.383 . S
C576 C577 1.377 . S
C577 H561 0.930 . S
C577 C576 1.377 . S
C577 C578 1.379 . S
C578 H562 0.931 . S
C578 C572 1.383 . S
C578 C577 1.379 . S
H579 C573 0.959 . S
H580 C573 0.961 . S
H581 C573 0.960 . S
H582 C574 0.930 . S
H583 C575 0.929 . S
H584 C592 0.929 . S
H585 C594 0.930 . S
H586 C596 0.930 . S
H587 C599 0.929 . S
H588 C602 0.930 . S
H589 C604 0.960 . S
H590 C604 0.960 . S
H591 C604 0.960 . S
C592 H584 0.929 . S
C592 C593 1.377 . S
C592 C594 1.384 . S
C593 C592 1.377 . S
C593 C599 1.390 . S
C594 H585 0.930 . S
C594 C592 1.384 . S
C594 C595 1.372 . S
C595 C594 1.372 . S
C595 C596 1.400 . S
C595 C600 1.490 . S
C596 H586 0.930 . S
C596 C595 1.400 . S
C596 C599 1.386 . S
H597 C613 0.930 . S
H598 C614 0.931 . S
C599 H587 0.929 . S
C599 C593 1.390 . S
C599 C596 1.386 . S
C600 C595 1.490 . S
C600 C602 1.395 . S
C600 C603 1.403 . S
H601 C607 0.930 . S
C602 H588 0.930 . S
C602 C600 1.395 . S
C602 C605 1.403 . S
C603 C600 1.403 . S
C603 C604 1.524 . S
C603 C607 1.400 . S
C604 H589 0.960 . S
C604 H590 0.960 . S
C604 H591 0.960 . S
C604 C603 1.524 . S
C605 C602 1.403 . S
C605 C606 1.392 . S
C605 C609 1.495 . S
C606 C605 1.392 . S
C606 C607 1.385 . S
C606 C608 1.478 . S
C607 H601 0.930 . S
C607 C603 1.400 . S
C607 C606 1.385 . S
C608 C606 1.478 . S
C608 C610 1.381 . S
C608 C614 1.383 . S
C609 C605 1.495 . S
C609 H615 0.959 . S
C609 H616 0.961 . S
C609 H617 0.960 . S
C610 C608 1.381 . S
C610 C611 1.394 . S
C610 H618 0.930 . S
C611 C610 1.394 . S
C611 C612 1.383 . S
C611 H619 0.929 . S
C612 C611 1.383 . S
C612 C613 1.377 . S
C613 H597 0.930 . S
C613 C612 1.377 . S
C613 C614 1.379 . S
C614 H598 0.931 . S
C614 C608 1.383 . S
C614 C613 1.379 . S
H615 C609 0.959 . S
H616 C609 0.961 . S
H617 C609 0.960 . S
H618 C610 0.930 . S
H619 C611 0.929 . S
H620 C628 0.929 . S
H621 C630 0.930 . S
H622 C632 0.930 . S
H623 C635 0.929 . S
H624 C638 0.930 . S
H625 C640 0.960 . S
H626 C640 0.960 . S
H627 C640 0.960 . S
C628 H620 0.929 . S
C628 C629 1.377 . S
C628 C630 1.384 . S
C629 C628 1.377 . S
C629 C635 1.390 . S
C630 H621 0.930 . S
C630 C628 1.384 . S
C630 C631 1.372 . S
C631 C630 1.372 . S
C631 C632 1.400 . S
C631 C636 1.490 . S
C632 H622 0.930 . S
C632 C631 1.400 . S
C632 C635 1.386 . S
H633 C649 0.930 . S
H634 C650 0.931 . S
C635 H623 0.929 . S
C635 C629 1.390 . S
C635 C632 1.386 . S
C636 C631 1.490 . S
C636 C638 1.395 . S
C636 C639 1.403 . S
H637 C643 0.930 . S
C638 H624 0.930 . S
C638 C636 1.395 . S
C638 C641 1.403 1_554 S
C639 C636 1.403 . S
C639 C640 1.524 . S
C639 C643 1.400 1_554 S
C640 H625 0.960 . S
C640 H626 0.960 . S
C640 H627 0.960 . S
C640 C639 1.524 . S
C641 C638 1.403 1_556 S
C641 C642 1.392 . S
C641 C645 1.495 . S
C642 C641 1.392 . S
C642 C643 1.385 . S
C642 C644 1.478 . S
C643 H637 0.930 . S
C643 C639 1.400 1_556 S
C643 C642 1.385 . S
C644 C642 1.478 . S
C644 C646 1.381 . S
C644 C650 1.383 . S
C645 C641 1.495 . S
C645 H651 0.959 . S
C645 H652 0.961 . S
C645 H653 0.960 . S
C646 C644 1.381 . S
C646 C647 1.394 . S
C646 H654 0.930 . S
C647 C646 1.394 . S
C647 C648 1.383 . S
C647 H655 0.929 . S
C648 C647 1.383 . S
C648 C649 1.377 . S
C649 H633 0.930 . S
C649 C648 1.377 . S
C649 C650 1.379 . S
C650 H634 0.931 . S
C650 C644 1.383 . S
C650 C649 1.379 . S
H651 C645 0.959 . S
H652 C645 0.961 . S
H653 C645 0.960 . S
H654 C646 0.930 . S
H655 C647 0.929 . S
H656 C664 0.929 . S
H657 C666 0.930 . S
H658 C668 0.930 . S
H659 C671 0.929 . S
H660 C674 0.930 . S
H661 C676 0.960 . S
H662 C676 0.960 . S
H663 C676 0.960 . S
C664 H656 0.929 . S
C664 C665 1.377 . S
C664 C666 1.384 . S
C665 C664 1.377 . S
C665 C671 1.390 . S
C666 H657 0.930 . S
C666 C664 1.384 . S
C666 C667 1.372 . S
C667 C666 1.372 . S
C667 C668 1.400 . S
C667 C672 1.490 . S
C668 H658 0.930 . S
C668 C667 1.400 . S
C668 C671 1.386 . S
H669 C685 0.930 . S
H670 C686 0.931 . S
C671 H659 0.929 . S
C671 C665 1.390 . S
C671 C668 1.386 . S
C672 C667 1.490 . S
C672 C674 1.395 . S
C672 C675 1.403 . S
H673 C679 0.930 . S
C674 H660 0.930 . S
C674 C672 1.395 . S
C674 C677 1.403 1_554 S
C675 C672 1.403 . S
C675 C676 1.524 . S
C675 C679 1.400 1_554 S
C676 H661 0.960 . S
C676 H662 0.960 . S
C676 H663 0.960 . S
C676 C675 1.524 . S
C677 C674 1.403 1_556 S
C677 C678 1.392 . S
C677 C681 1.495 . S
C678 C677 1.392 . S
C678 C679 1.385 . S
C678 C680 1.478 . S
C679 H673 0.930 . S
C679 C675 1.400 1_556 S
C679 C678 1.385 . S
C680 C678 1.478 . S
C680 C682 1.381 . S
C680 C686 1.383 . S
C681 C677 1.495 . S
C681 H687 0.959 . S
C681 H688 0.961 . S
C681 H689 0.960 . S
C682 C680 1.381 . S
C682 C683 1.394 . S
C682 H690 0.930 . S
C683 C682 1.394 . S
C683 C684 1.383 . S
C683 H691 0.929 . S
C684 C683 1.383 . S
C684 C685 1.377 . S
C685 H669 0.930 . S
C685 C684 1.377 . S
C685 C686 1.379 . S
C686 H670 0.931 . S
C686 C680 1.383 . S
C686 C685 1.379 . S
H687 C681 0.959 . S
H688 C681 0.961 . S
H689 C681 0.960 . S
H690 C682 0.930 . S
H691 C683 0.929 . S
H692 C700 0.929 . S
H693 C702 0.930 . S
H694 C704 0.930 . S
H695 C707 0.929 . S
H696 C710 0.930 . S
H697 C712 0.960 . S
H698 C712 0.960 . S
H699 C712 0.960 . S
C700 H692 0.929 . S
C700 C701 1.377 . S
C700 C702 1.384 . S
C701 C700 1.377 . S
C701 C707 1.390 . S
C702 H693 0.930 . S
C702 C700 1.384 . S
C702 C703 1.372 . S
C703 C702 1.372 . S
C703 C704 1.400 . S
C703 C708 1.490 . S
C704 H694 0.930 . S
C704 C703 1.400 . S
C704 C707 1.386 . S
H705 C721 0.930 . S
H706 C722 0.931 . S
C707 H695 0.929 . S
C707 C701 1.390 . S
C707 C704 1.386 . S
C708 C703 1.490 . S
C708 C710 1.395 . S
C708 C711 1.403 . S
H709 C715 0.930 . S
C710 H696 0.930 . S
C710 C708 1.395 . S
C710 C713 1.403 . S
C711 C708 1.403 . S
C711 C712 1.524 . S
C711 C715 1.400 . S
C712 H697 0.960 . S
C712 H698 0.960 . S
C712 H699 0.960 . S
C712 C711 1.524 . S
C713 C710 1.403 . S
C713 C714 1.392 . S
C713 C717 1.495 . S
C714 C713 1.392 . S
C714 C715 1.385 . S
C714 C716 1.478 . S
C715 H709 0.930 . S
C715 C711 1.400 . S
C715 C714 1.385 . S
C716 C714 1.478 . S
C716 C718 1.381 . S
C716 C722 1.383 . S
C717 C713 1.495 . S
C717 H723 0.959 . S
C717 H724 0.961 . S
C717 H725 0.960 . S
C718 C716 1.381 . S
C718 C719 1.394 . S
C718 H726 0.930 . S
C719 C718 1.394 . S
C719 C720 1.383 . S
C719 H727 0.929 . S
C720 C719 1.383 . S
C720 C721 1.377 . S
C721 H705 0.930 . S
C721 C720 1.377 . S
C721 C722 1.379 . S
C722 H706 0.931 . S
C722 C716 1.383 . S
C722 C721 1.379 . S
H723 C717 0.959 . S
H724 C717 0.961 . S
H725 C717 0.960 . S
H726 C718 0.930 . S
H727 C719 0.929 . S
H728 C736 0.929 . S
H729 C738 0.930 . S
H730 C740 0.930 . S
H731 C743 0.929 . S
H732 C746 0.930 . S
H733 C748 0.960 . S
H734 C748 0.960 . S
H735 C748 0.960 . S
C736 H728 0.929 . S
C736 C737 1.377 . S
C736 C738 1.384 . S
C737 C736 1.377 . S
C737 C743 1.390 . S
C738 H729 0.930 . S
C738 C736 1.384 . S
C738 C739 1.372 . S
C739 C738 1.372 . S
C739 C740 1.400 . S
C739 C744 1.490 . S
C740 H730 0.930 . S
C740 C739 1.400 . S
C740 C743 1.386 . S
H741 C757 0.930 . S
H742 C758 0.931 . S
C743 H731 0.929 . S
C743 C737 1.390 . S
C743 C740 1.386 . S
C744 C739 1.490 . S
C744 C746 1.395 . S
C744 C747 1.403 . S
H745 C751 0.930 . S
C746 H732 0.930 . S
C746 C744 1.395 . S
C746 C749 1.403 . S
C747 C744 1.403 . S
C747 C748 1.524 . S
C747 C751 1.400 . S
C748 H733 0.960 . S
C748 H734 0.960 . S
C748 H735 0.960 . S
C748 C747 1.524 . S
C749 C746 1.403 . S
C749 C750 1.392 . S
C749 C753 1.495 . S
C750 C749 1.392 . S
C750 C751 1.385 . S
C750 C752 1.478 . S
C751 H745 0.930 . S
C751 C747 1.400 . S
C751 C750 1.385 . S
C752 C750 1.478 . S
C752 C754 1.381 . S
C752 C758 1.383 . S
C753 C749 1.495 . S
C753 H759 0.959 . S
C753 H760 0.961 . S
C753 H761 0.960 . S
C754 C752 1.381 . S
C754 C755 1.394 . S
C754 H762 0.930 . S
C755 C754 1.394 . S
C755 C756 1.383 . S
C755 H763 0.929 . S
C756 C755 1.383 . S
C756 C757 1.377 . S
C757 H741 0.930 . S
C757 C756 1.377 . S
C757 C758 1.379 . S
C758 H742 0.931 . S
C758 C752 1.383 . S
C758 C757 1.379 . S
H759 C753 0.959 . S
H760 C753 0.961 . S
H761 C753 0.960 . S
H762 C754 0.930 . S
H763 C755 0.929 . S
H764 C772 0.929 . S
H765 C774 0.930 . S
H766 C776 0.930 . S
H767 C779 0.929 . S
H768 C782 0.930 . S
H769 C784 0.960 . S
H770 C784 0.960 . S
H771 C784 0.960 . S
C772 H764 0.929 . S
C772 C773 1.377 . S
C772 C774 1.384 . S
C773 C772 1.377 . S
C773 C779 1.390 . S
C774 H765 0.930 . S
C774 C772 1.384 . S
C774 C775 1.372 . S
C775 C774 1.372 . S
C775 C776 1.400 . S
C775 C780 1.490 . S
C776 H766 0.930 . S
C776 C775 1.400 . S
C776 C779 1.386 . S
H777 C793 0.930 . S
H778 C794 0.931 . S
C779 H767 0.929 . S
C779 C773 1.390 . S
C779 C776 1.386 . S
C780 C775 1.490 . S
C780 C782 1.395 . S
C780 C783 1.403 . S
H781 C787 0.930 . S
C782 H768 0.930 . S
C782 C780 1.395 . S
C782 C785 1.403 . S
C783 C780 1.403 . S
C783 C784 1.524 . S
C783 C787 1.400 . S
C784 H769 0.960 . S
C784 H770 0.960 . S
C784 H771 0.960 . S
C784 C783 1.524 . S
C785 C782 1.403 . S
C785 C786 1.392 . S
C785 C789 1.495 . S
C786 C785 1.392 . S
C786 C787 1.385 . S
C786 C788 1.478 . S
C787 H781 0.930 . S
C787 C783 1.400 . S
C787 C786 1.385 . S
C788 C786 1.478 . S
C788 C790 1.381 . S
C788 C794 1.383 . S
C789 C785 1.495 . S
C789 H795 0.959 . S
C789 H796 0.961 . S
C789 H797 0.960 . S
C790 C788 1.381 . S
C790 C791 1.394 . S
C790 H798 0.930 . S
C791 C790 1.394 . S
C791 C792 1.383 . S
C791 H799 0.929 . S
C792 C791 1.383 . S
C792 C793 1.377 . S
C793 H777 0.930 . S
C793 C792 1.377 . S
C793 C794 1.379 . S
C794 H778 0.931 . S
C794 C788 1.383 . S
C794 C793 1.379 . S
H795 C789 0.959 . S
H796 C789 0.961 . S
H797 C789 0.960 . S
H798 C790 0.930 . S
H799 C791 0.929 . S
H800 C808 0.929 . S
H801 C810 0.930 . S
H802 C812 0.930 . S
H803 C815 0.929 . S
H804 C818 0.930 . S
H805 C820 0.960 . S
H806 C820 0.960 . S
H807 C820 0.960 . S
C808 H800 0.929 . S
C808 C809 1.377 . S
C808 C810 1.384 . S
C809 C808 1.377 . S
C809 C815 1.390 . S
C810 H801 0.930 . S
C810 C808 1.384 . S
C810 C811 1.372 . S
C811 C810 1.372 . S
C811 C812 1.400 . S
C811 C816 1.490 . S
C812 H802 0.930 . S
C812 C811 1.400 . S
C812 C815 1.386 . S
H813 C829 0.930 . S
H814 C830 0.931 . S
C815 H803 0.929 . S
C815 C809 1.390 . S
C815 C812 1.386 . S
C816 C811 1.490 . S
C816 C818 1.395 . S
C816 C819 1.403 1_545 S
H817 C823 0.930 . S
C818 H804 0.930 . S
C818 C816 1.395 . S
C818 C821 1.403 1_455 S
C819 C816 1.403 1_565 S
C819 C820 1.524 . S
C819 C823 1.400 1_455 S
C820 H805 0.960 . S
C820 H806 0.960 . S
C820 H807 0.960 . S
C820 C819 1.524 . S
C821 C818 1.403 1_655 S
C821 C822 1.392 1_545 S
C821 C825 1.495 . S
C822 C821 1.392 1_565 S
C822 C823 1.385 . S
C822 C824 1.478 . S
C823 H817 0.930 . S
C823 C819 1.400 1_655 S
C823 C822 1.385 . S
C824 C822 1.478 . S
C824 C826 1.381 . S
C824 C830 1.383 . S
C825 C821 1.495 . S
C825 H831 0.959 . S
C825 H832 0.961 . S
C825 H833 0.960 . S
C826 C824 1.381 . S
C826 C827 1.394 . S
C826 H834 0.930 . S
C827 C826 1.394 . S
C827 C828 1.383 . S
C827 H835 0.929 . S
C828 C827 1.383 . S
C828 C829 1.377 . S
C829 H813 0.930 . S
C829 C828 1.377 . S
C829 C830 1.379 . S
C830 H814 0.931 . S
C830 C824 1.383 . S
C830 C829 1.379 . S
H831 C825 0.959 . S
H832 C825 0.961 . S
H833 C825 0.960 . S
H834 C826 0.930 . S
H835 C827 0.929 . S
H836 C844 0.929 . S
H837 C846 0.930 . S
H838 C848 0.930 1_655 S
H839 C851 0.929 . S
H840 C854 0.930 . S
H841 C856 0.960 . S
H842 C856 0.960 . S
H843 C856 0.960 . S
C844 H836 0.929 . S
C844 C845 1.377 . S
C844 C846 1.384 . S
C845 C844 1.377 . S
C845 C851 1.390 . S
C846 H837 0.930 . S
C846 C844 1.384 . S
C846 C847 1.372 . S
C847 C846 1.372 . S
C847 C848 1.400 . S
C847 C852 1.490 . S
C848 H838 0.930 1_455 S
C848 C847 1.400 . S
C848 C851 1.386 . S
H849 C865 0.930 . S
H850 C866 0.931 . S
C851 H839 0.929 . S
C851 C845 1.390 . S
C851 C848 1.386 . S
C852 C847 1.490 . S
C852 C854 1.395 . S
C852 C855 1.403 1_455 S
H853 C859 0.930 . S
C854 H840 0.930 . S
C854 C852 1.395 . S
C854 C857 1.403 . S
C855 C852 1.403 1_655 S
C855 C856 1.524 . S
C855 C859 1.400 . S
C856 H841 0.960 . S
C856 H842 0.960 . S
C856 H843 0.960 . S
C856 C855 1.524 . S
C857 C854 1.403 . S
C857 C858 1.392 1_455 S
C857 C861 1.495 . S
C858 C857 1.392 1_655 S
C858 C859 1.385 . S
C858 C860 1.478 . S
C859 H853 0.930 . S
C859 C855 1.400 . S
C859 C858 1.385 . S
C860 C858 1.478 . S
C860 C862 1.381 . S
C860 C866 1.383 . S
C861 C857 1.495 . S
C861 H867 0.959 . S
C861 H868 0.961 . S
C861 H869 0.960 . S
C862 C860 1.381 . S
C862 C863 1.394 . S
C862 H870 0.930 1_655 S
C863 C862 1.394 . S
C863 C864 1.383 . S
C863 H871 0.929 . S
C864 C863 1.383 . S
C864 C865 1.377 . S
C865 H849 0.930 . S
C865 C864 1.377 . S
C865 C866 1.379 . S
C866 H850 0.931 . S
C866 C860 1.383 . S
C866 C865 1.379 . S
H867 C861 0.959 . S
H868 C861 0.961 . S
H869 C861 0.960 . S
H870 C862 0.930 1_455 S
H871 C863 0.929 . S
H872 C880 0.929 . S
H873 C882 0.930 . S
H874 C884 0.930 . S
H875 C887 0.929 . S
H876 C890 0.930 . S
H877 C892 0.960 . S
H878 C892 0.960 . S
H879 C892 0.960 . S
C880 H872 0.929 . S
C880 C881 1.377 . S
C880 C882 1.384 . S
C881 C880 1.377 . S
C881 C887 1.390 . S
C882 H873 0.930 . S
C882 C880 1.384 . S
C882 C883 1.372 . S
C883 C882 1.372 . S
C883 C884 1.400 . S
C883 C888 1.490 . S
C884 H874 0.930 . S
C884 C883 1.400 . S
C884 C887 1.386 . S
H885 C901 0.930 . S
H886 C902 0.931 . S
C887 H875 0.929 . S
C887 C881 1.390 . S
C887 C884 1.386 . S
C888 C883 1.490 . S
C888 C890 1.395 . S
C888 C891 1.403 . S
H889 C895 0.930 . S
C890 H876 0.930 . S
C890 C888 1.395 . S
C890 C893 1.403 . S
C891 C888 1.403 . S
C891 C892 1.524 . S
C891 C895 1.400 . S
C892 H877 0.960 . S
C892 H878 0.960 . S
C892 H879 0.960 . S
C892 C891 1.524 . S
C893 C890 1.403 . S
C893 C894 1.392 . S
C893 C897 1.495 . S
C894 C893 1.392 . S
C894 C895 1.385 . S
C894 C896 1.478 . S
C895 H889 0.930 . S
C895 C891 1.400 . S
C895 C894 1.385 . S
C896 C894 1.478 . S
C896 C898 1.381 . S
C896 C902 1.383 . S
C897 C893 1.495 . S
C897 H903 0.959 . S
C897 H904 0.961 . S
C897 H905 0.960 . S
C898 C896 1.381 . S
C898 C899 1.394 . S
C898 H906 0.930 . S
C899 C898 1.394 . S
C899 C900 1.383 . S
C899 H907 0.929 . S
C900 C899 1.383 . S
C900 C901 1.377 . S
C901 H885 0.930 . S
C901 C900 1.377 . S
C901 C902 1.379 . S
C902 H886 0.931 . S
C902 C896 1.383 . S
C902 C901 1.379 . S
H903 C897 0.959 . S
H904 C897 0.961 . S
H905 C897 0.960 . S
H906 C898 0.930 . S
H907 C899 0.929 . S
H908 C916 0.929 . S
H909 C918 0.930 . S
H910 C920 0.930 . S
H911 C923 0.929 . S
H912 C926 0.930 . S
H913 C928 0.960 . S
H914 C928 0.960 . S
H915 C928 0.960 . S
C916 H908 0.929 . S
C916 C917 1.377 . S
C916 C918 1.384 . S
C917 C916 1.377 . S
C917 C923 1.390 . S
C918 H909 0.930 . S
C918 C916 1.384 . S
C918 C919 1.372 . S
C919 C918 1.372 . S
C919 C920 1.400 . S
C919 C924 1.490 . S
C920 H910 0.930 . S
C920 C919 1.400 . S
C920 C923 1.386 . S
H921 C937 0.930 . S
H922 C938 0.931 . S
C923 H911 0.929 . S
C923 C917 1.390 . S
C923 C920 1.386 . S
C924 C919 1.490 . S
C924 C926 1.395 . S
C924 C927 1.403 . S
H925 C931 0.930 . S
C926 H912 0.930 . S
C926 C924 1.395 . S
C926 C929 1.403 1_545 S
C927 C924 1.403 . S
C927 C928 1.524 . S
C927 C931 1.400 1_545 S
C928 H913 0.960 . S
C928 H914 0.960 . S
C928 H915 0.960 . S
C928 C927 1.524 . S
C929 C926 1.403 1_565 S
C929 C930 1.392 . S
C929 C933 1.495 . S
C930 C929 1.392 . S
C930 C931 1.385 . S
C930 C932 1.478 . S
C931 H925 0.930 . S
C931 C927 1.400 1_565 S
C931 C930 1.385 . S
C932 C930 1.478 . S
C932 C934 1.381 . S
C932 C938 1.383 . S
C933 C929 1.495 . S
C933 H939 0.959 . S
C933 H940 0.961 . S
C933 H941 0.960 . S
C934 C932 1.381 . S
C934 C935 1.394 . S
C934 H942 0.930 . S
C935 C934 1.394 . S
C935 C936 1.383 . S
C935 H943 0.929 . S
C936 C935 1.383 . S
C936 C937 1.377 . S
C937 H921 0.930 . S
C937 C936 1.377 . S
C937 C938 1.379 . S
C938 H922 0.931 . S
C938 C932 1.383 . S
C938 C937 1.379 . S
H939 C933 0.959 . S
H940 C933 0.961 . S
H941 C933 0.960 . S
H942 C934 0.930 . S
H943 C935 0.929 . S
H944 C952 0.929 . S
H945 C954 0.930 . S
H946 C956 0.930 . S
H947 C959 0.929 . S
H948 C962 0.930 . S
H949 C964 0.960 1_655 S
H950 C964 0.960 . S
H951 C964 0.960 . S
C952 H944 0.929 . S
C952 C953 1.377 . S
C952 C954 1.384 . S
C953 C952 1.377 . S
C953 C959 1.390 . S
C954 H945 0.930 . S
C954 C952 1.384 . S
C954 C955 1.372 . S
C955 C954 1.372 . S
C955 C956 1.400 . S
C955 C960 1.490 . S
C956 H946 0.930 . S
C956 C955 1.400 . S
C956 C959 1.386 . S
H957 C973 0.930 . S
H958 C974 0.931 . S
C959 H947 0.929 . S
C959 C953 1.390 . S
C959 C956 1.386 . S
C960 C955 1.490 . S
C960 C962 1.395 . S
C960 C963 1.403 . S
H961 C967 0.930 . S
C962 H948 0.930 . S
C962 C960 1.395 . S
C962 C965 1.403 1_455 S
C963 C960 1.403 . S
C963 C964 1.524 . S
C963 C967 1.400 1_455 S
C964 H949 0.960 1_455 S
C964 H950 0.960 . S
C964 H951 0.960 . S
C964 C963 1.524 . S
C965 C962 1.403 1_655 S
C965 C966 1.392 . S
C965 C969 1.495 . S
C966 C965 1.392 . S
C966 C967 1.385 . S
C966 C968 1.478 . S
C967 H961 0.930 . S
C967 C963 1.400 1_655 S
C967 C966 1.385 . S
C968 C966 1.478 . S
C968 C970 1.381 . S
C968 C974 1.383 . S
C969 C965 1.495 . S
C969 H975 0.959 1_655 S
C969 H976 0.961 . S
C969 H977 0.960 . S
C970 C968 1.381 . S
C970 C971 1.394 . S
C970 H978 0.930 . S
C971 C970 1.394 . S
C971 C972 1.383 . S
C971 H979 0.929 . S
C972 C971 1.383 . S
C972 C973 1.377 . S
C973 H957 0.930 . S
C973 C972 1.377 . S
C973 C974 1.379 . S
C974 H958 0.931 . S
C974 C968 1.383 . S
C974 C973 1.379 . S
H975 C969 0.959 1_455 S
H976 C969 0.961 . S
H977 C969 0.960 . S
H978 C970 0.930 . S
H979 C971 0.929 . S
H980 C988 0.929 . S
H981 C990 0.930 . S
H982 C992 0.930 . S
H983 C995 0.929 . S
H984 C998 0.930 . S
H985 C1000 0.960 . S
H986 C1000 0.960 . S
H987 C1000 0.960 . S
C988 H980 0.929 . S
C988 C989 1.377 . S
C988 C990 1.384 . S
C989 C988 1.377 . S
C989 C995 1.390 . S
C990 H981 0.930 . S
C990 C988 1.384 . S
C990 C991 1.372 . S
C991 C990 1.372 . S
C991 C992 1.400 . S
C991 C996 1.490 . S
C992 H982 0.930 . S
C992 C991 1.400 . S
C992 C995 1.386 . S
H993 C1009 0.930 . S
H994 C1010 0.931 . S
C995 H983 0.929 . S
C995 C989 1.390 . S
C995 C992 1.386 . S
C996 C991 1.490 . S
C996 C998 1.395 . S
C996 C999 1.403 . S
H997 C1003 0.930 . S
C998 H984 0.930 . S
C998 C996 1.395 . S
C998 C1001 1.403 . S
C999 C996 1.403 . S
C999 C1000 1.524 . S
C999 C1003 1.400 . S
C1000 H985 0.960 . S
C1000 H986 0.960 . S
C1000 H987 0.960 . S
C1000 C999 1.524 . S
C1001 C998 1.403 . S
C1001 C1002 1.392 . S
C1001 C1005 1.495 . S
C1002 C1001 1.392 . S
C1002 C1003 1.385 . S
C1002 C1004 1.478 . S
C1003 H997 0.930 . S
C1003 C999 1.400 . S
C1003 C1002 1.385 . S
C1004 C1002 1.478 . S
C1004 C1006 1.381 . S
C1004 C1010 1.383 . S
C1005 C1001 1.495 . S
C1005 H1011 0.959 . S
C1005 H1012 0.961 . S
C1005 H1013 0.960 . S
C1006 C1004 1.381 . S
C1006 C1007 1.394 . S
C1006 H1014 0.930 . S
C1007 C1006 1.394 . S
C1007 C1008 1.383 . S
C1007 H1015 0.929 . S
C1008 C1007 1.383 . S
C1008 C1009 1.377 . S
C1009 H993 0.930 . S
C1009 C1008 1.377 . S
C1009 C1010 1.379 . S
C1010 H994 0.931 . S
C1010 C1004 1.383 . S
C1010 C1009 1.379 . S
H1011 C1005 0.959 . S
H1012 C1005 0.961 . S
H1013 C1005 0.960 . S
H1014 C1006 0.930 . S
H1015 C1007 0.929 . S
H1016 C1024 0.929 . S
H1017 C1026 0.930 . S
H1018 C1028 0.930 . S
H1019 C1031 0.929 . S
H1020 C1034 0.930 . S
H1021 C1036 0.960 . S
H1022 C1036 0.960 . S
H1023 C1036 0.960 . S
C1024 H1016 0.929 . S
C1024 C1025 1.377 . S
C1024 C1026 1.384 . S
C1025 C1024 1.377 . S
C1025 C1031 1.390 . S
C1026 H1017 0.930 . S
C1026 C1024 1.384 . S
C1026 C1027 1.372 . S
C1027 C1026 1.372 . S
C1027 C1028 1.400 . S
C1027 C1032 1.490 . S
C1028 H1018 0.930 . S
C1028 C1027 1.400 . S
C1028 C1031 1.386 . S
H1029 C1045 0.930 . S
H1030 C1046 0.931 . S
C1031 H1019 0.929 . S
C1031 C1025 1.390 . S
C1031 C1028 1.386 . S
C1032 C1027 1.490 . S
C1032 C1034 1.395 1_565 S
C1032 C1035 1.403 . S
H1033 C1039 0.930 . S
C1034 H1020 0.930 . S
C1034 C1032 1.395 1_545 S
C1034 C1037 1.403 . S
C1035 C1032 1.403 . S
C1035 C1036 1.524 . S
C1035 C1039 1.400 . S
C1036 H1021 0.960 . S
C1036 H1022 0.960 . S
C1036 H1023 0.960 . S
C1036 C1035 1.524 . S
C1037 C1034 1.403 . S
C1037 C1038 1.392 . S
C1037 C1041 1.495 . S
C1038 C1037 1.392 . S
C1038 C1039 1.385 1_545 S
C1038 C1040 1.478 . S
C1039 H1033 0.930 . S
C1039 C1035 1.400 . S
C1039 C1038 1.385 1_565 S
C1040 C1038 1.478 . S
C1040 C1042 1.381 . S
C1040 C1046 1.383 . S
C1041 C1037 1.495 . S
C1041 H1047 0.959 . S
C1041 H1048 0.961 . S
C1041 H1049 0.960 . S
C1042 C1040 1.381 . S
C1042 C1043 1.394 . S
C1042 H1050 0.930 . S
C1043 C1042 1.394 . S
C1043 C1044 1.383 . S
C1043 H1051 0.929 . S
C1044 C1043 1.383 . S
C1044 C1045 1.377 . S
C1045 H1029 0.930 . S
C1045 C1044 1.377 . S
C1045 C1046 1.379 . S
C1046 H1030 0.931 . S
C1046 C1040 1.383 . S
C1046 C1045 1.379 . S
H1047 C1041 0.959 . S
H1048 C1041 0.961 . S
H1049 C1041 0.960 . S
H1050 C1042 0.930 . S
H1051 C1043 0.929 . S
H1052 C1060 0.929 . S
H1053 C1062 0.930 . S
H1054 C1064 0.930 . S
H1055 C1067 0.929 . S
H1056 C1070 0.930 . S
H1057 C1072 0.960 1_565 S
H1058 C1072 0.960 . S
H1059 C1072 0.960 . S
C1060 H1052 0.929 . S
C1060 C1061 1.377 . S
C1060 C1062 1.384 . S
C1061 C1060 1.377 . S
C1061 C1067 1.390 . S
C1062 H1053 0.930 . S
C1062 C1060 1.384 . S
C1062 C1063 1.372 . S
C1063 C1062 1.372 . S
C1063 C1064 1.400 . S
C1063 C1068 1.490 . S
C1064 H1054 0.930 . S
C1064 C1063 1.400 . S
C1064 C1067 1.386 . S
H1065 C1081 0.930 . S
H1066 C1082 0.931 . S
C1067 H1055 0.929 . S
C1067 C1061 1.390 . S
C1067 C1064 1.386 . S
C1068 C1063 1.490 . S
C1068 C1070 1.395 1_455 S
C1068 C1071 1.403 . S
H1069 C1075 0.930 . S
C1070 H1056 0.930 . S
C1070 C1068 1.395 1_655 S
C1070 C1073 1.378 1_545 S
C1071 C1068 1.403 . S
C1071 C1072 1.524 . S
C1071 C1075 1.400 1_545 S
C1072 H1057 0.960 1_545 S
C1072 H1058 0.960 . S
C1072 H1059 0.960 . S
C1072 C1071 1.524 . S
C1073 C1070 1.378 1_565 S
C1073 C1074 1.417 . S
C1073 C1077 1.496 . S
C1074 C1073 1.417 . S
C1074 C1075 1.385 1_655 S
C1074 C1076 1.478 . S
C1075 H1069 0.930 . S
C1075 C1071 1.400 1_565 S
C1075 C1074 1.385 1_455 S
C1076 C1074 1.478 . S
C1076 C1078 1.381 . S
C1076 C1082 1.383 . S
C1077 C1073 1.496 . S
C1077 H1083 0.959 1_565 S
C1077 H1084 0.961 . S
C1077 H1085 0.960 . S
C1078 C1076 1.381 . S
C1078 C1079 1.394 . S
C1078 H1086 0.930 . S
C1079 C1078 1.394 . S
C1079 C1080 1.383 . S
C1079 H1087 0.929 . S
C1080 C1079 1.383 . S
C1080 C1081 1.377 . S
C1081 H1065 0.930 . S
C1081 C1080 1.377 . S
C1081 C1082 1.379 . S
C1082 H1066 0.931 . S
C1082 C1076 1.383 . S
C1082 C1081 1.379 . S
H1083 C1077 0.959 1_545 S
H1084 C1077 0.961 . S
H1085 C1077 0.960 . S
H1086 C1078 0.930 . S
H1087 C1079 0.929 . S
H1088 C1096 0.929 . S
H1089 C1098 0.930 . S
H1090 C1100 0.930 1_545 S
H1091 C1103 0.929 . S
H1092 C1106 0.930 . S
H1093 C1108 0.960 . S
H1094 C1108 0.960 . S
H1095 C1108 0.960 . S
C1096 H1088 0.929 . S
C1096 C1097 1.377 . S
C1096 C1098 1.384 . S
C1097 C1096 1.377 . S
C1097 C1103 1.390 . S
C1098 H1089 0.930 . S
C1098 C1096 1.384 . S
C1098 C1099 1.372 . S
C1099 C1098 1.372 . S
C1099 C1100 1.400 . S
C1099 C1104 1.490 . S
C1100 H1090 0.930 1_565 S
C1100 C1099 1.400 . S
C1100 C1103 1.386 . S
H1101 C1117 0.930 . S
H1102 C1118 0.931 . S
C1103 H1091 0.929 . S
C1103 C1097 1.390 . S
C1103 C1100 1.386 . S
C1104 C1099 1.490 . S
C1104 C1106 1.395 . S
C1104 C1107 1.403 1_565 S
H1105 C1111 0.930 . S
C1106 H1092 0.930 . S
C1106 C1104 1.395 . S
C1106 C1109 1.403 . S
C1107 C1104 1.403 1_545 S
C1107 C1108 1.524 . S
C1107 C1111 1.400 . S
C1108 H1093 0.960 . S
C1108 H1094 0.960 . S
C1108 H1095 0.960 . S
C1108 C1107 1.524 . S
C1109 C1106 1.403 . S
C1109 C1110 1.392 1_565 S
C1109 C1113 1.495 . S
C1110 C1109 1.392 1_545 S
C1110 C1111 1.385 . S
C1110 C1112 1.478 . S
C1111 H1105 0.930 . S
C1111 C1107 1.400 . S
C1111 C1110 1.385 . S
C1112 C1110 1.478 . S
C1112 C1114 1.381 . S
C1112 C1118 1.383 . S
C1113 C1109 1.495 . S
C1113 H1119 0.959 . S
C1113 H1120 0.961 . S
C1113 H1121 0.960 . S
C1114 C1112 1.381 . S
C1114 C1115 1.394 . S
C1114 H1122 0.930 1_545 S
C1115 C1114 1.394 . S
C1115 C1116 1.383 . S
C1115 H1123 0.929 . S
C1116 C1115 1.383 . S
C1116 C1117 1.377 . S
C1117 H1101 0.930 . S
C1117 C1116 1.377 . S
C1117 C1118 1.379 . S
C1118 H1102 0.931 . S
C1118 C1112 1.383 . S
C1118 C1117 1.379 . S
H1119 C1113 0.959 . S
H1120 C1113 0.961 . S
H1121 C1113 0.960 . S
H1122 C1114 0.930 1_565 S
H1123 C1115 0.929 . S
H1124 C1132 0.929 . S
H1125 C1134 0.930 1_455 S
H1126 C1136 0.930 . S
H1127 C1139 0.929 . S
H1128 C1142 0.930 . S
H1129 C1144 0.960 1_455 S
H1130 C1144 0.960 1_455 S
H1131 C1144 0.960 . S
C1132 H1124 0.929 . S
C1132 C1133 1.377 . S
C1132 C1134 1.384 . S
C1133 C1132 1.377 . S
C1133 C1139 1.390 . S
C1134 H1125 0.930 1_655 S
C1134 C1132 1.384 . S
C1134 C1135 1.372 . S
C1135 C1134 1.372 . S
C1135 C1136 1.400 . S
C1135 C1140 1.490 . S
C1136 H1126 0.930 . S
C1136 C1135 1.400 . S
C1136 C1139 1.386 . S
H1137 C1153 0.930 . S
H1138 C1154 0.931 1_655 S
C1139 H1127 0.929 . S
C1139 C1133 1.390 . S
C1139 C1136 1.386 . S
C1140 C1135 1.490 . S
C1140 C1142 1.395 . S
C1140 C1143 1.403 . S
H1141 C1147 0.930 . S
C1142 H1128 0.930 . S
C1142 C1140 1.395 . S
C1142 C1145 1.403 1_665 S
C1143 C1140 1.403 . S
C1143 C1144 1.524 . S
C1143 C1147 1.400 1_665 S
C1144 H1129 0.960 1_655 S
C1144 H1130 0.960 1_655 S
C1144 H1131 0.960 . S
C1144 C1143 1.524 . S
C1145 C1142 1.403 1_445 S
C1145 C1146 1.392 . S
C1145 C1149 1.495 . S
C1146 C1145 1.392 . S
C1146 C1147 1.385 . S
C1146 C1148 1.478 . S
C1147 H1141 0.930 . S
C1147 C1143 1.400 1_445 S
C1147 C1146 1.385 . S
C1148 C1146 1.478 . S
C1148 C1150 1.381 . S
C1148 C1154 1.383 . S
C1149 C1145 1.495 . S
C1149 H1155 0.959 . S
C1149 H1156 0.961 1_455 S
C1149 H1157 0.960 . S
C1150 C1148 1.381 . S
C1150 C1151 1.394 . S
C1150 H1158 0.930 . S
C1151 C1150 1.394 . S
C1151 C1152 1.383 . S
C1151 H1159 0.929 . S
C1152 C1151 1.383 . S
C1152 C1153 1.377 . S
C1153 H1137 0.930 . S
C1153 C1152 1.377 . S
C1153 C1154 1.379 . S
C1154 H1138 0.931 1_455 S
C1154 C1148 1.383 . S
C1154 C1153 1.379 . S
H1155 C1149 0.959 . S
H1156 C1149 0.961 1_655 S
H1157 C1149 0.960 . S
H1158 C1150 0.930 . S
H1159 C1151 0.929 . S
H1160 C1168 0.929 . S
H1161 C1170 0.930 . S
H1162 C1172 0.930 . S
H1163 C1175 0.929 . S
H1164 C1178 0.930 . S
H1165 C1180 0.960 . S
H1166 C1180 0.960 . S
H1167 C1180 0.960 . S
C1168 H1160 0.929 . S
C1168 C1169 1.377 . S
C1168 C1170 1.384 . S
C1169 C1168 1.377 . S
C1169 C1175 1.390 . S
C1170 H1161 0.930 . S
C1170 C1168 1.384 . S
C1170 C1171 1.372 . S
C1171 C1170 1.372 . S
C1171 C1172 1.400 . S
C1171 C1176 1.490 . S
C1172 H1162 0.930 . S
C1172 C1171 1.400 . S
C1172 C1175 1.386 . S
H1173 C1189 0.930 . S
H1174 C1190 0.931 . S
C1175 H1163 0.929 . S
C1175 C1169 1.390 . S
C1175 C1172 1.386 . S
C1176 C1171 1.490 . S
C1176 C1178 1.395 . S
C1176 C1179 1.403 . S
H1177 C1183 0.930 . S
C1178 H1164 0.930 . S
C1178 C1176 1.395 . S
C1178 C1181 1.403 1_455 S
C1179 C1176 1.403 . S
C1179 C1180 1.524 . S
C1179 C1183 1.400 1_455 S
C1180 H1165 0.960 . S
C1180 H1166 0.960 . S
C1180 H1167 0.960 . S
C1180 C1179 1.524 . S
C1181 C1178 1.403 1_655 S
C1181 C1182 1.392 . S
C1181 C1185 1.495 . S
C1182 C1181 1.392 . S
C1182 C1183 1.385 . S
C1182 C1184 1.478 . S
C1183 H1177 0.930 . S
C1183 C1179 1.400 1_655 S
C1183 C1182 1.385 . S
C1184 C1182 1.478 . S
C1184 C1186 1.381 . S
C1184 C1190 1.383 . S
C1185 C1181 1.495 . S
C1185 H1191 0.959 . S
C1185 H1192 0.961 . S
C1185 H1193 0.960 . S
C1186 C1184 1.381 . S
C1186 C1187 1.394 . S
C1186 H1194 0.930 . S
C1187 C1186 1.394 . S
C1187 C1188 1.383 . S
C1187 H1195 0.929 . S
C1188 C1187 1.383 . S
C1188 C1189 1.377 . S
C1189 H1173 0.930 . S
C1189 C1188 1.377 . S
C1189 C1190 1.379 . S
C1190 H1174 0.931 . S
C1190 C1184 1.383 . S
C1190 C1189 1.379 . S
H1191 C1185 0.959 . S
H1192 C1185 0.961 . S
H1193 C1185 0.960 . S
H1194 C1186 0.930 . S
H1195 C1187 0.929 . S
H1196 C1204 0.929 . S
H1197 C1206 0.930 . S
H1198 C1208 0.930 . S
H1199 C1211 0.929 . S
H1200 C1214 0.930 . S
H1201 C1216 0.960 . S
H1202 C1216 0.960 . S
H1203 C1216 0.960 . S
C1204 H1196 0.929 . S
C1204 C1205 1.377 . S
C1204 C1206 1.384 . S
C1205 C1204 1.377 . S
C1205 C1211 1.390 . S
C1206 H1197 0.930 . S
C1206 C1204 1.384 . S
C1206 C1207 1.372 . S
C1207 C1206 1.372 . S
C1207 C1208 1.400 . S
C1207 C1212 1.490 . S
C1208 H1198 0.930 . S
C1208 C1207 1.400 . S
C1208 C1211 1.386 . S
H1209 C1225 0.930 . S
H1210 C1226 0.931 . S
C1211 H1199 0.929 . S
C1211 C1205 1.390 . S
C1211 C1208 1.386 . S
C1212 C1207 1.490 . S
C1212 C1214 1.395 . S
C1212 C1215 1.403 . S
H1213 C1219 0.930 . S
C1214 H1200 0.930 . S
C1214 C1212 1.395 . S
C1214 C1217 1.403 . S
C1215 C1212 1.403 . S
C1215 C1216 1.524 . S
C1215 C1219 1.400 . S
C1216 H1201 0.960 . S
C1216 H1202 0.960 . S
C1216 H1203 0.960 . S
C1216 C1215 1.524 . S
C1217 C1214 1.403 . S
C1217 C1218 1.392 . S
C1217 C1221 1.495 . S
C1218 C1217 1.392 . S
C1218 C1219 1.385 . S
C1218 C1220 1.478 . S
C1219 H1213 0.930 . S
C1219 C1215 1.400 . S
C1219 C1218 1.385 . S
C1220 C1218 1.478 . S
C1220 C1222 1.381 . S
C1220 C1226 1.383 . S
C1221 C1217 1.495 . S
C1221 H1227 0.959 . S
C1221 H1228 0.961 . S
C1221 H1229 0.960 . S
C1222 C1220 1.381 . S
C1222 C1223 1.394 . S
C1222 H1230 0.930 . S
C1223 C1222 1.394 . S
C1223 C1224 1.383 . S
C1223 H1231 0.929 . S
C1224 C1223 1.383 . S
C1224 C1225 1.377 . S
C1225 H1209 0.930 . S
C1225 C1224 1.377 . S
C1225 C1226 1.379 . S
C1226 H1210 0.931 . S
C1226 C1220 1.383 . S
C1226 C1225 1.379 . S
H1227 C1221 0.959 . S
H1228 C1221 0.961 . S
H1229 C1221 0.960 . S
H1230 C1222 0.930 . S
H1231 C1223 0.929 . S
H1232 C1240 0.929 . S
H1233 C1242 0.930 . S
H1234 C1244 0.930 . S
H1235 C1247 0.929 . S
H1236 C1250 0.930 . S
H1237 C1252 0.960 . S
H1238 C1252 0.960 . S
H1239 C1252 0.960 . S
C1240 H1232 0.929 . S
C1240 C1241 1.377 . S
C1240 C1242 1.384 . S
C1241 C1240 1.377 . S
C1241 C1247 1.390 . S
C1242 H1233 0.930 . S
C1242 C1240 1.384 . S
C1242 C1243 1.372 . S
C1243 C1242 1.372 . S
C1243 C1244 1.400 . S
C1243 C1248 1.490 . S
C1244 H1234 0.930 . S
C1244 C1243 1.400 . S
C1244 C1247 1.386 . S
H1245 C1261 0.930 . S
H1246 C1262 0.931 . S
C1247 H1235 0.929 . S
C1247 C1241 1.390 . S
C1247 C1244 1.386 . S
C1248 C1243 1.490 . S
C1248 C1250 1.395 . S
C1248 C1251 1.403 . S
H1249 C1255 0.930 . S
C1250 H1236 0.930 . S
C1250 C1248 1.395 . S
C1250 C1253 1.403 . S
C1251 C1248 1.403 . S
C1251 C1252 1.524 . S
C1251 C1255 1.400 . S
C1252 H1237 0.960 . S
C1252 H1238 0.960 . S
C1252 H1239 0.960 . S
C1252 C1251 1.524 . S
C1253 C1250 1.403 . S
C1253 C1254 1.392 . S
C1253 C1257 1.495 . S
C1254 C1253 1.392 . S
C1254 C1255 1.385 . S
C1254 C1256 1.478 . S
C1255 H1249 0.930 . S
C1255 C1251 1.400 . S
C1255 C1254 1.385 . S
C1256 C1254 1.478 . S
C1256 C1258 1.381 . S
C1256 C1262 1.383 . S
C1257 C1253 1.495 . S
C1257 H1263 0.959 . S
C1257 H1264 0.961 . S
C1257 H1265 0.960 . S
C1258 C1256 1.381 . S
C1258 C1259 1.394 . S
C1258 H1266 0.930 . S
C1259 C1258 1.394 . S
C1259 C1260 1.383 . S
C1259 H1267 0.929 . S
C1260 C1259 1.383 . S
C1260 C1261 1.377 . S
C1261 H1245 0.930 . S
C1261 C1260 1.377 . S
C1261 C1262 1.379 . S
C1262 H1246 0.931 . S
C1262 C1256 1.383 . S
C1262 C1261 1.379 . S
H1263 C1257 0.959 . S
H1264 C1257 0.961 . S
H1265 C1257 0.960 . S
H1266 C1258 0.930 . S
H1267 C1259 0.929 . S
H1268 C1276 0.929 . S
H1269 C1278 0.930 . S
H1270 C1280 0.930 . S
H1271 C1283 0.929 . S
H1272 C1286 0.930 . S
H1273 C1288 0.960 . S
H1274 C1288 0.960 . S
H1275 C1288 0.960 . S
C1276 H1268 0.929 . S
C1276 C1277 1.377 . S
C1276 C1278 1.384 . S
C1277 C1276 1.377 . S
C1277 C1283 1.390 . S
C1278 H1269 0.930 . S
C1278 C1276 1.384 . S
C1278 C1279 1.372 . S
C1279 C1278 1.372 . S
C1279 C1280 1.400 . S
C1279 C1284 1.490 . S
C1280 H1270 0.930 . S
C1280 C1279 1.400 . S
C1280 C1283 1.386 . S
H1281 C1297 0.930 . S
H1282 C1298 0.931 . S
C1283 H1271 0.929 . S
C1283 C1277 1.390 . S
C1283 C1280 1.386 . S
C1284 C1279 1.490 . S
C1284 C1286 1.395 . S
C1284 C1287 1.403 . S
H1285 C1291 0.930 . S
C1286 H1272 0.930 . S
C1286 C1284 1.395 . S
C1286 C1289 1.403 1_545 S
C1287 C1284 1.403 . S
C1287 C1288 1.524 . S
C1287 C1291 1.400 1_545 S
C1288 H1273 0.960 . S
C1288 H1274 0.960 . S
C1288 H1275 0.960 . S
C1288 C1287 1.524 . S
C1289 C1286 1.403 1_565 S
C1289 C1290 1.392 . S
C1289 C1293 1.495 . S
C1290 C1289 1.392 . S
C1290 C1291 1.385 . S
C1290 C1292 1.478 . S
C1291 H1285 0.930 . S
C1291 C1287 1.400 1_565 S
C1291 C1290 1.385 . S
C1292 C1290 1.478 . S
C1292 C1294 1.381 . S
C1292 C1298 1.383 . S
C1293 C1289 1.495 . S
C1293 H1299 0.959 . S
C1293 H1300 0.961 . S
C1293 H1301 0.960 . S
C1294 C1292 1.381 . S
C1294 C1295 1.394 . S
C1294 H1302 0.930 . S
C1295 C1294 1.394 . S
C1295 C1296 1.383 . S
C1295 H1303 0.929 . S
C1296 C1295 1.383 . S
C1296 C1297 1.377 . S
C1297 H1281 0.930 . S
C1297 C1296 1.377 . S
C1297 C1298 1.379 . S
C1298 H1282 0.931 . S
C1298 C1292 1.383 . S
C1298 C1297 1.379 . S
H1299 C1293 0.959 . S
H1300 C1293 0.961 . S
H1301 C1293 0.960 . S
H1302 C1294 0.930 . S
H1303 C1295 0.929 . S
H1304 C1312 0.929 . S
H1305 C1314 0.930 . S
H1306 C1316 0.930 . S
H1307 C1319 0.929 . S
H1308 C1322 0.930 . S
H1309 C1324 0.960 . S
H1310 C1324 0.960 1_655 S
H1311 C1324 0.960 1_655 S
C1312 H1304 0.929 . S
C1312 C1313 1.377 . S
C1312 C1314 1.384 . S
C1313 C1312 1.377 . S
C1313 C1319 1.390 . S
C1314 H1305 0.930 . S
C1314 C1312 1.384 . S
C1314 C1315 1.372 . S
C1315 C1314 1.372 . S
C1315 C1316 1.400 . S
C1315 C1320 1.490 . S
C1316 H1306 0.930 . S
C1316 C1315 1.400 . S
C1316 C1319 1.386 . S
H1317 C1333 0.930 . S
H1318 C1334 0.931 . S
C1319 H1307 0.929 . S
C1319 C1313 1.390 . S
C1319 C1316 1.386 . S
C1320 C1315 1.490 . S
C1320 C1322 1.395 1_565 S
C1320 C1323 1.403 . S
H1321 C1327 0.930 . S
C1322 H1308 0.930 . S
C1322 C1320 1.395 1_545 S
C1322 C1325 1.403 . S
C1323 C1320 1.403 . S
C1323 C1324 1.524 1_655 S
C1323 C1327 1.400 1_655 S
C1324 H1309 0.960 . S
C1324 H1310 0.960 1_455 S
C1324 H1311 0.960 1_455 S
C1324 C1323 1.524 1_455 S
C1325 C1322 1.403 . S
C1325 C1326 1.392 1_655 S
C1325 C1329 1.495 . S
C1326 C1325 1.392 1_455 S
C1326 C1327 1.385 1_545 S
C1326 C1328 1.478 . S
C1327 H1321 0.930 . S
C1327 C1323 1.400 1_455 S
C1327 C1326 1.385 1_565 S
C1328 C1326 1.478 . S
C1328 C1330 1.381 . S
C1328 C1334 1.383 . S
C1329 C1325 1.495 . S
C1329 H1335 0.959 . S
C1329 H1336 0.961 1_655 S
C1329 H1337 0.960 1_655 S
C1330 C1328 1.381 . S
C1330 C1331 1.394 . S
C1330 H1338 0.930 . S
C1331 C1330 1.394 . S
C1331 C1332 1.383 . S
C1331 H1339 0.929 . S
C1332 C1331 1.383 . S
C1332 C1333 1.377 . S
C1333 H1317 0.930 . S
C1333 C1332 1.377 . S
C1333 C1334 1.379 . S
C1334 H1318 0.931 . S
C1334 C1328 1.383 . S
C1334 C1333 1.379 . S
H1335 C1329 0.959 . S
H1336 C1329 0.961 1_455 S
H1337 C1329 0.960 1_455 S
H1338 C1330 0.930 . S
H1339 C1331 0.929 . S
H1340 C1348 0.929 . S
H1341 C1350 0.930 . S
H1342 C1352 0.922 1_455 S
H1343 C1355 0.929 . S
H1344 C1358 0.930 . S
H1345 C1360 0.960 . S
H1346 C1360 0.960 . S
H1347 C1360 0.960 . S
C1348 H1340 0.929 . S
C1348 C1349 1.377 . S
C1348 C1350 1.384 . S
C1349 C1348 1.377 . S
C1349 C1355 1.390 . S
C1350 H1341 0.930 . S
C1350 C1348 1.384 . S
C1350 C1351 1.372 . S
C1351 C1350 1.372 . S
C1351 C1352 1.400 . S
C1351 C1356 1.490 . S
C1352 H1342 0.922 1_655 S
C1352 C1351 1.400 . S
C1352 C1355 1.386 . S
H1353 C1369 0.930 . S
H1354 C1370 0.931 . S
C1355 H1343 0.929 . S
C1355 C1349 1.390 . S
C1355 C1352 1.386 . S
C1356 C1351 1.490 . S
C1356 C1358 1.395 . S
C1356 C1359 1.403 1_655 S
H1357 C1363 0.930 . S
C1358 H1344 0.930 . S
C1358 C1356 1.395 . S
C1358 C1361 1.403 . S
C1359 C1356 1.403 1_455 S
C1359 C1360 1.524 . S
C1359 C1363 1.400 . S
C1360 H1345 0.960 . S
C1360 H1346 0.960 . S
C1360 H1347 0.960 . S
C1360 C1359 1.524 . S
C1361 C1358 1.403 . S
C1361 C1362 1.392 1_655 S
C1361 C1365 1.495 . S
C1362 C1361 1.392 1_455 S
C1362 C1363 1.385 . S
C1362 C1364 1.478 . S
C1363 H1357 0.930 . S
C1363 C1359 1.400 . S
C1363 C1362 1.385 . S
C1364 C1362 1.478 . S
C1364 C1366 1.381 . S
C1364 C1370 1.383 . S
C1365 C1361 1.495 . S
C1365 H1371 0.959 . S
C1365 H1372 0.961 . S
C1365 H1373 0.960 . S
C1366 C1364 1.381 . S
C1366 C1367 1.394 . S
C1366 H1374 0.930 1_455 S
C1367 C1366 1.394 . S
C1367 C1368 1.383 . S
C1367 H1375 0.929 . S
C1368 C1367 1.383 . S
C1368 C1369 1.377 . S
C1369 H1353 0.930 . S
C1369 C1368 1.377 . S
C1369 C1370 1.379 . S
C1370 H1354 0.931 . S
C1370 C1364 1.383 . S
C1370 C1369 1.379 . S
H1371 C1365 0.959 . S
H1372 C1365 0.961 . S
H1373 C1365 0.960 . S
H1374 C1366 0.930 1_655 S
H1375 C1367 0.929 . S
C233 C63 1.301 . S
C252 C7 1.278 . S
C269 C21 1.307 . S
C288 C77 1.297 . S
C305 C91 1.299 . S
C324 C35 1.287 . S
C341 C105 1.305 . S
C360 C49 1.284 . S
C377 C175 1.306 . S
C396 C119 1.295 . S
C413 C133 1.303 . S
C432 C189 1.321 . S
C449 C203 1.299 . S
C468 C147 1.308 . S
C485 C161 1.298 . S
C504 C217 1.287 . S
C521 C3 1.377 . S
C540 C213 1.363 . S
C557 C17 1.380 . S
C576 C171 1.379 . S
C593 C31 1.375 . S
C612 C185 1.375 . S
C629 C199 1.380 . S
C648 C45 1.372 . S
C665 C59 1.378 . S
C684 C129 1.387 . S
C701 C73 1.379 . S
C720 C143 1.384 . S
C737 C157 1.380 . S
C756 C87 1.378 . S
C773 C115 1.380 . S
C792 C101 1.385 . S
C809 C8 1.650 . S
C828 C148 1.640 . S
C845 C162 1.651 . S
C864 C22 1.643 . S
C881 C36 1.653 . S
C900 C120 1.653 . S
C917 C134 1.650 . S
C936 C50 1.639 . S
C953 C64 1.651 . S
C972 C204 1.649 . S
C989 C78 1.651 . S
C1008 C218 1.654 . S
C1025 C176 1.652 . S
C1044 C92 1.656 . S
C1061 C190 1.653 . S
C1080 C106 1.656 . S
C1097 C149 1.344 . S
C1116 C9 1.346 . S
C1133 C23 1.345 . S
C1152 C163 1.352 . S
C1169 C37 1.345 . S
C1188 C121 1.349 . S
C1205 C135 1.342 . S
C1224 C51 1.337 . S
C1241 C205 1.345 . S
C1260 C65 1.347 . S
C1277 C219 1.346 . S
C1296 C79 1.355 . S
C1313 C177 1.340 . S
C1332 C93 1.325 . S
C1349 C107 1.345 . S
C1368 C191 1.347 . S
