# Generated by pormake.
# Topology uoi, (4)-cn, num edge types: 1
# Building blocks:
#     Node 0, Type 0, BuildingBlock: QUQFOY_clean_sbu_1, # of connection points: 4
#     Node 1, Type 0, BuildingBlock: QUQFOY_clean_sbu_1, # of connection points: 4
#     Node 2, Type 0, BuildingBlock: QUQFOY_clean_sbu_1, # of connection points: 4
#     Node 3, Type 0, BuildingBlock: QUQFOY_clean_sbu_1, # of connection points: 4
#     Node 4, Type 0, BuildingBlock: QUQFOY_clean_sbu_1, # of connection points: 4
#     Node 5, Type 0, BuildingBlock: QUQFOY_clean_sbu_1, # of connection points: 4
#     Node 6, Type 0, BuildingBlock: QUQFOY_clean_sbu_1, # of connection points: 4
#     Node 7, Type 0, BuildingBlock: QUQFOY_clean_sbu_1, # of connection points: 4
#     Node 8, Type 0, BuildingBlock: QUQFOY_clean_sbu_1, # of connection points: 4
#     Node 9, Type 0, BuildingBlock: QUQFOY_clean_sbu_1, # of connection points: 4
#     Node 10, Type 0, BuildingBlock: QUQFOY_clean_sbu_1, # of connection points: 4
#     Node 11, Type 0, BuildingBlock: QUQFOY_clean_sbu_1, # of connection points: 4
#     Node 12, Type 0, BuildingBlock: QUQFOY_clean_sbu_1, # of connection points: 4
#     Node 13, Type 0, BuildingBlock: QUQFOY_clean_sbu_1, # of connection points: 4
#     Node 14, Type 0, BuildingBlock: QUQFOY_clean_sbu_1, # of connection points: 4
#     Node 15, Type 0, BuildingBlock: QUQFOY_clean_sbu_1, # of connection points: 4
#     Node 16, Type 0, BuildingBlock: QUQFOY_clean_sbu_1, # of connection points: 4
#     Node 17, Type 0, BuildingBlock: QUQFOY_clean_sbu_1, # of connection points: 4
#     Node 18, Type 0, BuildingBlock: QUQFOY_clean_sbu_1, # of connection points: 4
#     Node 19, Type 0, BuildingBlock: QUQFOY_clean_sbu_1, # of connection points: 4
#     Node 20, Type 0, BuildingBlock: QUQFOY_clean_sbu_1, # of connection points: 4
#     Node 21, Type 0, BuildingBlock: QUQFOY_clean_sbu_1, # of connection points: 4
#     Node 22, Type 0, BuildingBlock: QUQFOY_clean_sbu_1, # of connection points: 4
#     Node 23, Type 0, BuildingBlock: QUQFOY_clean_sbu_1, # of connection points: 4
#     Node 24, Type 0, BuildingBlock: QUQFOY_clean_sbu_1, # of connection points: 4
#     Node 25, Type 0, BuildingBlock: QUQFOY_clean_sbu_1, # of connection points: 4
#     Node 26, Type 0, BuildingBlock: QUQFOY_clean_sbu_1, # of connection points: 4
#     Node 27, Type 0, BuildingBlock: QUQFOY_clean_sbu_1, # of connection points: 4
#     Node 28, Type 0, BuildingBlock: QUQFOY_clean_sbu_1, # of connection points: 4
#     Node 29, Type 0, BuildingBlock: QUQFOY_clean_sbu_1, # of connection points: 4
#     Node 30, Type 0, BuildingBlock: QUQFOY_clean_sbu_1, # of connection points: 4
#     Node 31, Type 0, BuildingBlock: QUQFOY_clean_sbu_1, # of connection points: 4
#     Edge 32, Type (0, 0), BuildingBlock: AJUNOK_clean_linker_0, # of connection points: 2
#     Edge 33, Type (0, 0), BuildingBlock: AJUNOK_clean_linker_0, # of connection points: 2
#     Edge 34, Type (0, 0), BuildingBlock: AJUNOK_clean_linker_0, # of connection points: 2
#     Edge 35, Type (0, 0), BuildingBlock: AJUNOK_clean_linker_0, # of connection points: 2
#     Edge 36, Type (0, 0), BuildingBlock: AJUNOK_clean_linker_0, # of connection points: 2
#     Edge 37, Type (0, 0), BuildingBlock: AJUNOK_clean_linker_0, # of connection points: 2
#     Edge 38, Type (0, 0), BuildingBlock: AJUNOK_clean_linker_0, # of connection points: 2
#     Edge 39, Type (0, 0), BuildingBlock: AJUNOK_clean_linker_0, # of connection points: 2
#     Edge 40, Type (0, 0), BuildingBlock: AJUNOK_clean_linker_0, # of connection points: 2
#     Edge 41, Type (0, 0), BuildingBlock: AJUNOK_clean_linker_0, # of connection points: 2
#     Edge 42, Type (0, 0), BuildingBlock: AJUNOK_clean_linker_0, # of connection points: 2
#     Edge 43, Type (0, 0), BuildingBlock: AJUNOK_clean_linker_0, # of connection points: 2
#     Edge 44, Type (0, 0), BuildingBlock: AJUNOK_clean_linker_0, # of connection points: 2
#     Edge 45, Type (0, 0), BuildingBlock: AJUNOK_clean_linker_0, # of connection points: 2
#     Edge 46, Type (0, 0), BuildingBlock: AJUNOK_clean_linker_0, # of connection points: 2
#     Edge 47, Type (0, 0), BuildingBlock: AJUNOK_clean_linker_0, # of connection points: 2
#     Edge 48, Type (0, 0), BuildingBlock: AJUNOK_clean_linker_0, # of connection points: 2
#     Edge 49, Type (0, 0), BuildingBlock: AJUNOK_clean_linker_0, # of connection points: 2
#     Edge 50, Type (0, 0), BuildingBlock: AJUNOK_clean_linker_0, # of connection points: 2
#     Edge 51, Type (0, 0), BuildingBlock: AJUNOK_clean_linker_0, # of connection points: 2
#     Edge 52, Type (0, 0), BuildingBlock: AJUNOK_clean_linker_0, # of connection points: 2
#     Edge 53, Type (0, 0), BuildingBlock: AJUNOK_clean_linker_0, # of connection points: 2
#     Edge 54, Type (0, 0), BuildingBlock: AJUNOK_clean_linker_0, # of connection points: 2
#     Edge 55, Type (0, 0), BuildingBlock: AJUNOK_clean_linker_0, # of connection points: 2
#     Edge 56, Type (0, 0), BuildingBlock: AJUNOK_clean_linker_0, # of connection points: 2
#     Edge 57, Type (0, 0), BuildingBlock: AJUNOK_clean_linker_0, # of connection points: 2
#     Edge 58, Type (0, 0), BuildingBlock: AJUNOK_clean_linker_0, # of connection points: 2
#     Edge 59, Type (0, 0), BuildingBlock: AJUNOK_clean_linker_0, # of connection points: 2
#     Edge 60, Type (0, 0), BuildingBlock: AJUNOK_clean_linker_0, # of connection points: 2
#     Edge 61, Type (0, 0), BuildingBlock: AJUNOK_clean_linker_0, # of connection points: 2
#     Edge 62, Type (0, 0), BuildingBlock: AJUNOK_clean_linker_0, # of connection points: 2
#     Edge 63, Type (0, 0), BuildingBlock: AJUNOK_clean_linker_0, # of connection points: 2
#     Edge 64, Type (0, 0), BuildingBlock: AJUNOK_clean_linker_0, # of connection points: 2
#     Edge 65, Type (0, 0), BuildingBlock: AJUNOK_clean_linker_0, # of connection points: 2
#     Edge 66, Type (0, 0), BuildingBlock: AJUNOK_clean_linker_0, # of connection points: 2
#     Edge 67, Type (0, 0), BuildingBlock: AJUNOK_clean_linker_0, # of connection points: 2
#     Edge 68, Type (0, 0), BuildingBlock: AJUNOK_clean_linker_0, # of connection points: 2
#     Edge 69, Type (0, 0), BuildingBlock: AJUNOK_clean_linker_0, # of connection points: 2
#     Edge 70, Type (0, 0), BuildingBlock: AJUNOK_clean_linker_0, # of connection points: 2
#     Edge 71, Type (0, 0), BuildingBlock: AJUNOK_clean_linker_0, # of connection points: 2
#     Edge 72, Type (0, 0), BuildingBlock: AJUNOK_clean_linker_0, # of connection points: 2
#     Edge 73, Type (0, 0), BuildingBlock: AJUNOK_clean_linker_0, # of connection points: 2
#     Edge 74, Type (0, 0), BuildingBlock: AJUNOK_clean_linker_0, # of connection points: 2
#     Edge 75, Type (0, 0), BuildingBlock: AJUNOK_clean_linker_0, # of connection points: 2
#     Edge 76, Type (0, 0), BuildingBlock: AJUNOK_clean_linker_0, # of connection points: 2
#     Edge 77, Type (0, 0), BuildingBlock: AJUNOK_clean_linker_0, # of connection points: 2
#     Edge 78, Type (0, 0), BuildingBlock: AJUNOK_clean_linker_0, # of connection points: 2
#     Edge 79, Type (0, 0), BuildingBlock: AJUNOK_clean_linker_0, # of connection points: 2
#     Edge 80, Type (0, 0), BuildingBlock: AJUNOK_clean_linker_0, # of connection points: 2
#     Edge 81, Type (0, 0), BuildingBlock: AJUNOK_clean_linker_0, # of connection points: 2
#     Edge 82, Type (0, 0), BuildingBlock: AJUNOK_clean_linker_0, # of connection points: 2
#     Edge 83, Type (0, 0), BuildingBlock: AJUNOK_clean_linker_0, # of connection points: 2
#     Edge 84, Type (0, 0), BuildingBlock: AJUNOK_clean_linker_0, # of connection points: 2
#     Edge 85, Type (0, 0), BuildingBlock: AJUNOK_clean_linker_0, # of connection points: 2
#     Edge 86, Type (0, 0), BuildingBlock: AJUNOK_clean_linker_0, # of connection points: 2
#     Edge 87, Type (0, 0), BuildingBlock: AJUNOK_clean_linker_0, # of connection points: 2
#     Edge 88, Type (0, 0), BuildingBlock: AJUNOK_clean_linker_0, # of connection points: 2
#     Edge 89, Type (0, 0), BuildingBlock: AJUNOK_clean_linker_0, # of connection points: 2
#     Edge 90, Type (0, 0), BuildingBlock: AJUNOK_clean_linker_0, # of connection points: 2
#     Edge 91, Type (0, 0), BuildingBlock: AJUNOK_clean_linker_0, # of connection points: 2
#     Edge 92, Type (0, 0), BuildingBlock: AJUNOK_clean_linker_0, # of connection points: 2
#     Edge 93, Type (0, 0), BuildingBlock: AJUNOK_clean_linker_0, # of connection points: 2
#     Edge 94, Type (0, 0), BuildingBlock: AJUNOK_clean_linker_0, # of connection points: 2
#     Edge 95, Type (0, 0), BuildingBlock: AJUNOK_clean_linker_0, # of connection points: 2
# Relax obj value: 0.229
# Max RMSD: 0.155
# Mean RMSD: 0.155
data_MOF--net-uoi--node1-QUQFOY_clean_sbu_1--edge1-AJUNOK_clean_linker_0
_symmetry_space_group_name_H-M    P1
_symmetry_Int_Tables_number       1
_symmetry_cell_setting            triclinic
loop_
_symmetry_equiv_pos_as_xyz
'x, y, z'
_cell_length_a     66.10583
_cell_length_b     66.07206
_cell_length_c     15.14876
_cell_angle_alpha  90.026035
_cell_angle_beta   89.855112
_cell_angle_gamma 89.962281
loop_
_atom_site_label
_atom_site_type_symbol
_atom_site_fract_x
_atom_site_fract_y
_atom_site_fract_z
_atom_type_partial_charge
O0 O 0.17235 0.21824 0.14862 0.0
Cd1 Cd 0.16714 0.20084 0.25637 0.0
Cd2 Cd 0.20705 0.20262 0.2528 0.0
O3 O 0.20408 0.21012 0.12097 0.0
O4 O 0.1381 0.19358 0.23806 0.0
O5 O 0.16259 0.17096 0.23308 0.0
C6 C 0.14375 0.17533 0.22045 0.0
C7 C 0.2305 0.1832 0.33128 0.0
C8 C 0.18789 0.21945 0.09995 0.0
C9 C 0.18523 0.23064 0.37339 0.0
O10 O 0.20055 0.22751 0.3251 0.0
O11 O 0.17011 0.21861 0.36955 0.0
O12 O 0.23619 0.19803 0.28179 0.0
O13 O 0.21173 0.17776 0.32756 0.0
O14 O 0.05559 0.92594 0.41588 0.0
Cd15 Cd 0.07176 0.91909 0.52473 0.0
Cd16 Cd 0.07037 0.95985 0.52498 0.0
O17 O 0.06403 0.95766 0.39143 0.0
O18 O 0.07665 0.88967 0.501 0.0
O19 O 0.10126 0.91208 0.50223 0.0
C20 C 0.09533 0.89387 0.48496 0.0
C21 C 0.08931 0.98283 0.60788 0.0
C22 C 0.05508 0.94149 0.36731 0.0
C23 C 0.04162 0.9373 0.64134 0.0
O24 O 0.04521 0.95296 0.59575 0.0
O25 O 0.05317 0.92182 0.63558 0.0
O26 O 0.07478 0.98883 0.5576 0.0
O27 O 0.09484 0.9641 0.60224 0.0
O28 O 0.33427 0.78738 0.65565 0.0
Cd29 Cd 0.33989 0.80393 0.76488 0.0
Cd30 Cd 0.3001 0.80417 0.75886 0.0
O31 O 0.30337 0.79754 0.62531 0.0
O32 O 0.36946 0.80907 0.74878 0.0
O33 O 0.34663 0.83336 0.74189 0.0
C34 C 0.36515 0.82762 0.73021 0.0
C35 C 0.27972 0.82558 0.8433 0.0
C36 C 0.31925 0.78762 0.60417 0.0
C37 C 0.31968 0.77477 0.8786 0.0
O38 O 0.30465 0.77861 0.82973 0.0
O39 O 0.33544 0.78595 0.8759 0.0
O40 O 0.27189 0.81203 0.79223 0.0
O41 O 0.29898 0.82886 0.83675 0.0
O42 O 0.47796 0.10825 0.97228 0.0
Cd43 Cd 0.45352 0.11152 0.05331 0.0
Cd44 Cd 0.4565 0.06865 0.04539 0.0
O45 O 0.4743 0.0759 0.9376 0.0
O46 O 0.44337 0.13919 0.02392 0.0
O47 O 0.42592 0.11146 -0.00457 0.0
C48 C 0.42792 0.13084 0.98673 0.0
C49 C 0.44633 0.03514 0.07749 0.0
C50 C 0.48346 0.09278 0.92904 0.0
C51 C 0.47086 0.0923 0.20801 0.0
O52 O 0.47034 0.07702 0.158 0.0
O53 O 0.46234 0.1088 0.18498 0.0
O54 O 0.46456 0.03968 0.0566 0.0
O55 O 0.43295 0.04922 0.06951 0.0
O56 O 0.17715 0.7953 0.35699 0.0
Cd57 Cd 0.17097 0.81231 0.24924 0.0
Cd58 Cd 0.21088 0.81077 0.24914 0.0
O59 O 0.20873 0.80408 0.38251 0.0
O60 O 0.142 0.81944 0.27203 0.0
O61 O 0.16639 0.84217 0.2731 0.0
C62 C 0.14769 0.8377 0.28897 0.0
C63 C 0.23254 0.82957 0.15937 0.0
C64 C 0.19273 0.79459 0.40531 0.0
C65 C 0.18886 0.78252 0.13166 0.0
O66 O 0.20407 0.78551 0.18047 0.0
O67 O 0.1736 0.79437 0.13613 0.0
O68 O 0.23946 0.81565 0.21099 0.0
O69 O 0.21384 0.83494 0.16917 0.0
O70 O 0.46463 0.91055 0.54918 0.0
Cd71 Cd 0.44594 0.89835 0.45669 0.0
Cd72 Cd 0.4505 0.94164 0.41781 0.0
O73 O 0.46106 0.94378 0.54511 0.0
O74 O 0.44043 0.87133 0.51212 0.0
O75 O 0.41638 0.89367 0.48888 0.0
C76 C 0.42183 0.87658 0.52267 0.0
C77 C 0.44294 0.97007 0.32938 0.0
C78 C 0.46892 0.92797 0.57893 0.0
C79 C 0.47421 0.90749 0.32021 0.0
O80 O 0.47074 0.92529 0.34704 0.0
O81 O 0.46284 0.89284 0.3432 0.0
O82 O 0.46006 0.96789 0.3678 0.0
O83 O 0.42889 0.95729 0.34837 0.0
O84 O 0.34 0.21836 0.81248 0.0
Cd85 Cd 0.34784 0.19996 0.71096 0.0
Cd86 Cd 0.30651 0.19931 0.70761 0.0
O87 O 0.30823 0.20959 0.83642 0.0
O88 O 0.37716 0.1958 0.73785 0.0
O89 O 0.35491 0.17106 0.74485 0.0
C90 C 0.37303 0.17745 0.76043 0.0
C91 C 0.28271 0.1802 0.63025 0.0
C92 C 0.32394 0.21965 0.85781 0.0
C93 C 0.32872 0.22571 0.57942 0.0
O94 O 0.31319 0.22246 0.62614 0.0
O95 O 0.34499 0.21567 0.59203 0.0
O96 O 0.27729 0.19557 0.67711 0.0
O97 O 0.30108 0.17377 0.63847 0.0
O98 O 0.05034 0.08591 0.11483 0.0
Cd99 Cd 0.06613 0.093 0.00454 0.0
Cd100 Cd 0.06613 0.05282 0.00222 0.0
O101 O 0.05974 0.05433 0.13604 0.0
O102 O 0.07111 0.12243 0.02666 0.0
O103 O 0.09574 0.09998 0.02261 0.0
C104 C 0.08992 0.11826 0.03954 0.0
C105 C 0.08687 0.03223 0.91568 0.0
C106 C 0.05015 0.07004 0.16163 0.0
C107 C 0.03623 0.07427 0.88919 0.0
O108 O 0.0405 0.05855 0.93317 0.0
O109 O 0.0473 0.09006 0.89519 0.0
O110 O 0.07291 0.02458 0.96521 0.0
O111 O 0.09089 0.05128 0.92474 0.0
O112 O 0.86117 0.79049 0.72861 0.0
Cd113 Cd 0.87068 0.81771 0.67217 0.0
Cd114 Cd 0.82155 0.80309 0.61489 0.0
O115 O 0.82838 0.78284 0.71425 0.0
O116 O 0.8957 0.82473 0.73875 0.0
O117 O 0.86822 0.84372 0.74286 0.0
C118 C 0.88639 0.84028 0.77047 0.0
C119 C 0.79191 0.80215 0.52885 0.0
C120 C 0.84609 0.77891 0.74382 0.0
C121 C 0.86207 0.81005 0.49658 0.0
O122 O 0.84634 0.80728 0.54176 0.0
O123 O 0.87753 0.81641 0.53726 0.0
O124 O 0.80456 0.78737 0.53056 0.0
O125 O 0.79531 0.81717 0.58131 0.0
O126 O 0.96577 0.08558 0.61231 0.0
Cd127 Cd 0.94965 0.09057 0.50105 0.0
Cd128 Cd 0.95124 0.0508 0.51001 0.0
O129 O 0.95677 0.05435 0.64391 0.0
O130 O 0.94352 0.12003 0.51565 0.0
O131 O 0.91985 0.0966 0.52041 0.0
C132 C 0.92498 0.11529 0.53213 0.0
C133 C 0.93171 0.0299 0.42094 0.0
C134 C 0.96589 0.07069 0.66477 0.0
C135 C 0.98008 0.07104 0.39032 0.0
O136 O 0.97702 0.05637 0.44233 0.0
O137 O 0.96818 0.08631 0.39078 0.0
O138 O 0.94492 0.02238 0.4745 0.0
O139 O 0.92736 0.04893 0.42863 0.0
O140 O 0.6749 0.21976 0.31253 0.0
Cd141 Cd 0.67067 0.20191 0.20581 0.0
Cd142 Cd 0.70999 0.20406 0.21324 0.0
O143 O 0.70615 0.2113 0.34573 0.0
O144 O 0.64164 0.19447 0.2224 0.0
O145 O 0.66636 0.1722 0.23327 0.0
C146 C 0.64743 0.17651 0.24404 0.0
C147 C 0.73136 0.18322 0.13159 0.0
C148 C 0.68978 0.22062 0.36472 0.0
C149 C 0.68903 0.23145 0.08889 0.0
O150 O 0.70412 0.22887 0.13899 0.0
O151 O 0.67403 0.21929 0.09224 0.0
O152 O 0.73855 0.19741 0.18114 0.0
O153 O 0.71231 0.17895 0.13892 0.0
O154 O 0.54332 0.90372 0.01825 0.0
Cd155 Cd 0.56527 0.90803 0.92628 0.0
Cd156 Cd 0.55889 0.94425 0.96528 0.0
O157 O 0.55174 0.93167 0.08809 0.0
O158 O 0.58245 0.88316 0.92634 0.0
O159 O 0.59221 0.91256 0.98325 0.0
C160 C 0.59529 0.89334 0.973 0.0
C161 C 0.57806 0.96961 0.9016 0.0
C162 C 0.54203 0.91492 0.08594 0.0
C163 C 0.53804 0.92956 0.81218 0.0
O164 O 0.5357 0.94004 0.88136 0.0
O165 O 0.5527 0.91701 0.80672 0.0
O166 O 0.56399 0.97398 0.95813 0.0
O167 O 0.58346 0.95084 0.89351 0.0
O168 O 0.8413 0.21462 0.64405 0.0
Cd169 Cd 0.84664 0.19715 0.75123 0.0
Cd170 Cd 0.80631 0.1997 0.74856 0.0
O171 O 0.80947 0.20729 0.61629 0.0
O172 O 0.87577 0.19025 0.73068 0.0
O173 O 0.85164 0.1673 0.7272 0.0
C174 C 0.87037 0.17195 0.71317 0.0
C175 C 0.78246 0.18096 0.82818 0.0
C176 C 0.82594 0.21611 0.59481 0.0
C177 C 0.82893 0.22692 0.8703 0.0
O178 O 0.81344 0.22413 0.82287 0.0
O179 O 0.84406 0.21493 0.86447 0.0
O180 O 0.77706 0.19586 0.77848 0.0
O181 O 0.80106 0.17496 0.82336 0.0
O182 O 0.54795 0.09858 0.46561 0.0
Cd183 Cd 0.57219 0.10523 0.54319 0.0
Cd184 Cd 0.56511 0.0613 0.57037 0.0
O185 O 0.54666 0.06512 0.46005 0.0
O186 O 0.57883 0.13295 0.49825 0.0
O187 O 0.60002 0.10742 0.48577 0.0
C188 C 0.59556 0.12595 0.46701 0.0
C189 C 0.57719 0.03066 0.63184 0.0
C190 C 0.53992 0.08246 0.43686 0.0
C191 C 0.55369 0.09358 0.70975 0.0
O192 O 0.55304 0.07637 0.67333 0.0
O193 O 0.56307 0.10827 0.67374 0.0
O194 O 0.55848 0.03305 0.61156 0.0
O195 O 0.58966 0.04464 0.60797 0.0
O196 O 0.64035 0.78638 0.22786 0.0
Cd197 Cd 0.64702 0.81274 0.29325 0.0
Cd198 Cd 0.68606 0.79644 0.28301 0.0
O199 O 0.67184 0.77806 0.19167 0.0
O200 O 0.62534 0.83264 0.26287 0.0
O201 O 0.65698 0.83535 0.21502 0.0
C202 C 0.63849 0.84176 0.21387 0.0
C203 C 0.72109 0.8004 0.30209 0.0
C204 C 0.65281 0.7749 0.18814 0.0
C205 C 0.66327 0.79661 0.45727 0.0
O206 O 0.67676 0.78996 0.4058 0.0
O207 O 0.64968 0.80865 0.42926 0.0
O208 O 0.71295 0.78285 0.29473 0.0
O209 O 0.70984 0.81592 0.28572 0.0
O210 O 0.97124 0.92542 0.92302 0.0
Cd211 Cd 0.95452 0.92055 0.03288 0.0
Cd212 Cd 0.95593 0.96042 0.0253 0.0
O213 O 0.96257 0.95676 0.89194 0.0
O214 O 0.94907 0.891 0.01888 0.0
O215 O 0.92501 0.91402 0.01047 0.0
C216 C 0.93058 0.89541 0.00015 0.0
C217 C 0.93512 0.9818 0.10789 0.0
C218 C 0.97172 0.9404 0.87116 0.0
C219 C 0.98442 0.93971 0.14582 0.0
O220 O 0.98118 0.9549 0.0969 0.0
O221 O 0.97263 0.92441 0.1434 0.0
O222 O 0.94914 0.98898 0.05728 0.0
O223 O 0.93111 0.96267 0.10212 0.0
O224 O 0.64652 0.72313 0.71621 0.0
Cd225 Cd 0.63781 0.69736 0.78143 0.0
Cd226 Cd 0.68192 0.70682 0.85263 0.0
O227 O 0.67888 0.72739 0.7503 0.0
O228 O 0.61299 0.68866 0.71574 0.0
O229 O 0.64022 0.66956 0.72462 0.0
C230 C 0.62219 0.67219 0.69399 0.0
C231 C 0.71356 0.70637 0.92831 0.0
C232 C 0.66295 0.73302 0.70985 0.0
C233 C 0.64191 0.70937 0.96617 0.0
O234 O 0.66053 0.7104 0.9471 0.0
O235 O 0.62901 0.70351 0.90961 0.0
O236 O 0.70275 0.72235 0.92094 0.0
O237 O 0.70725 0.6905 0.88739 0.0
O238 O 0.54785 0.42913 0.86285 0.0
Cd239 Cd 0.56427 0.42322 0.97253 0.0
Cd240 Cd 0.56203 0.46288 0.97049 0.0
O241 O 0.55643 0.46071 0.83625 0.0
O242 O 0.57245 0.39446 0.95076 0.0
O243 O 0.59436 0.41963 0.95272 0.0
C244 C 0.59063 0.40079 0.9363 0.0
C245 C 0.5801 0.4843 0.06363 0.0
C246 C 0.54721 0.44457 0.81341 0.0
C247 C 0.53341 0.4406 0.08544 0.0
O248 O 0.53633 0.45567 0.03556 0.0
O249 O 0.54567 0.42564 0.08377 0.0
O250 O 0.56654 0.49137 0.0106 0.0
O251 O 0.58559 0.46563 0.0535 0.0
O252 O 0.84201 0.29886 0.14646 0.0
Cd253 Cd 0.84659 0.3166 0.25333 0.0
Cd254 Cd 0.8068 0.31453 0.24777 0.0
O255 O 0.81049 0.30679 0.11572 0.0
O256 O 0.87554 0.32432 0.23497 0.0
O257 O 0.85065 0.34646 0.228 0.0
C258 C 0.86958 0.34236 0.21561 0.0
C259 C 0.7839 0.33479 0.32542 0.0
C260 C 0.82689 0.29765 0.09574 0.0
C261 C 0.82829 0.28718 0.37192 0.0
O262 O 0.81298 0.29003 0.32343 0.0
O263 O 0.84352 0.29903 0.36681 0.0
O264 O 0.77776 0.32002 0.27655 0.0
O265 O 0.80281 0.33975 0.32082 0.0
O266 O 0.96503 0.58933 0.40914 0.0
Cd267 Cd 0.94793 0.59533 0.51679 0.0
Cd268 Cd 0.94865 0.55517 0.50929 0.0
O269 O 0.95576 0.55827 0.3762 0.0
O270 O 0.94422 0.62512 0.49984 0.0
O271 O 0.91885 0.60368 0.49207 0.0
C272 C 0.92555 0.62186 0.48058 0.0
C273 C 0.92823 0.53366 0.59285 0.0
C274 C 0.96578 0.57424 0.3578 0.0
C275 C 0.97745 0.57582 0.62977 0.0
O276 O 0.97391 0.56072 0.58067 0.0
O277 O 0.96587 0.59131 0.62794 0.0
O278 O 0.94224 0.52657 0.54191 0.0
O279 O 0.92395 0.55272 0.5867 0.0
O280 O 0.67508 0.3036 0.81741 0.0
Cd281 Cd 0.66942 0.32085 0.70999 0.0
Cd282 Cd 0.70956 0.31865 0.71163 0.0
O283 O 0.7068 0.31151 0.84444 0.0
O284 O 0.6405 0.32846 0.73189 0.0
O285 O 0.66529 0.35077 0.73343 0.0
C286 C 0.64648 0.34664 0.74864 0.0
C287 C 0.73239 0.33753 0.62777 0.0
C288 C 0.69049 0.30248 0.86654 0.0
C289 C 0.68709 0.29101 0.59171 0.0
O290 O 0.70253 0.2939 0.63933 0.0
O291 O 0.67194 0.30299 0.59693 0.0
O292 O 0.73852 0.32303 0.67818 0.0
O293 O 0.71374 0.34325 0.63509 0.0
O294 O 0.96233 0.4314 0.10283 0.0
Cd295 Cd 0.94621 0.42484 -0.00691 0.0
Cd296 Cd 0.94657 0.46502 -0.00435 0.0
O297 O 0.95281 0.46276 0.12935 0.0
O298 O 0.94117 0.39533 0.01312 0.0
O299 O 0.91665 0.41791 0.01386 0.0
C300 C 0.92246 0.39954 0.02876 0.0
C301 C 0.9268 0.48588 0.90678 0.0
C302 C 0.96249 0.44688 0.15211 0.0
C303 C 0.9759 0.44415 0.87844 0.0
O304 O 0.97223 0.45926 0.92723 0.0
O305 O 0.9646 0.42847 0.88199 0.0
O306 O 0.94036 0.49339 0.95856 0.0
O307 O 0.92236 0.46691 0.91579 0.0
O308 O 0.86532 0.73286 0.24009 0.0
Cd309 Cd 0.86555 0.7053 0.17754 0.0
Cd310 Cd 0.82246 0.7173 0.16309 0.0
O311 O 0.83246 0.73912 0.25113 0.0
O312 O 0.89184 0.69348 0.21779 0.0
O313 O 0.86244 0.67953 0.24995 0.0
C314 C 0.88185 0.67978 0.25986 0.0
C315 C 0.78767 0.71231 0.13408 0.0
C316 C 0.85082 0.74408 0.26535 0.0
C317 C 0.85126 0.71671 0.00149 0.0
O318 O 0.83506 0.72072 0.04247 0.0
O319 O 0.8661 0.70844 0.041 0.0
O320 O 0.79596 0.72983 0.13041 0.0
O321 O 0.79854 0.69765 0.16398 0.0
O322 O 0.53617 0.58387 0.56754 0.0
Cd323 Cd 0.55264 0.58831 0.45674 0.0
Cd324 Cd 0.55253 0.54915 0.47002 0.0
O325 O 0.54639 0.55333 0.60373 0.0
O326 O 0.55852 0.61789 0.46693 0.0
O327 O 0.58226 0.59453 0.47631 0.0
C328 C 0.57701 0.61327 0.48508 0.0
C329 C 0.57453 0.52999 0.38372 0.0
C330 C 0.53621 0.56926 0.6215 0.0
C331 C 0.52267 0.56763 0.35017 0.0
O332 O 0.52656 0.55298 0.40129 0.0
O333 O 0.53417 0.58317 0.34838 0.0
O334 O 0.56166 0.52139 0.43607 0.0
O335 O 0.57685 0.54941 0.39021 0.0
O336 O 0.33777 0.29885 0.31148 0.0
Cd337 Cd 0.34382 0.31761 0.20903 0.0
Cd338 Cd 0.30285 0.31597 0.20735 0.0
O339 O 0.30542 0.30513 0.33538 0.0
O340 O 0.37289 0.32388 0.23292 0.0
O341 O 0.34899 0.34706 0.24006 0.0
C342 C 0.3676 0.34202 0.25409 0.0
C343 C 0.2793 0.33601 0.13335 0.0
C344 C 0.32185 0.29624 0.35665 0.0
C345 C 0.32583 0.29094 0.07695 0.0
O346 O 0.31002 0.29348 0.12283 0.0
O347 O 0.34161 0.30161 0.09077 0.0
O348 O 0.2737 0.32024 0.17724 0.0
O349 O 0.29775 0.34214 0.14272 0.0
O350 O 0.45144 0.57821 0.08222 0.0
Cd351 Cd 0.4354 0.58383 0.97187 0.0
Cd352 Cd 0.43933 0.54442 0.97305 0.0
O353 O 0.44336 0.54651 0.1083 0.0
O354 O 0.42787 0.6127 -0.00497 0.0
O355 O 0.40543 0.58802 -0.00679 0.0
C356 C 0.40967 0.60668 0.01113 0.0
C357 C 0.42125 0.5236 0.87751 0.0
C358 C 0.45179 0.56295 0.13253 0.0
C359 C 0.46794 0.56787 0.86331 0.0
O360 O 0.46541 0.55252 0.91202 0.0
O361 O 0.45458 0.5819 0.86245 0.0
O362 O 0.43473 0.51619 0.93008 0.0
O363 O 0.416 0.54232 0.88858 0.0
O364 O 0.1736 0.71262 0.85417 0.0
Cd365 Cd 0.16812 0.69556 0.74596 0.0
Cd366 Cd 0.20703 0.6946 0.75116 0.0
O367 O 0.20414 0.70133 0.88436 0.0
O368 O 0.13942 0.68707 0.7646 0.0
O369 O 0.1651 0.66565 0.76937 0.0
C370 C 0.14608 0.66916 0.7828 0.0
C371 C 0.22604 0.67293 0.6632 0.0
C372 C 0.18877 0.71207 0.90498 0.0
C373 C 0.18843 0.72403 0.62997 0.0
O374 O 0.20309 0.72029 0.68096 0.0
O375 O 0.1725 0.71308 0.63278 0.0
O376 O 0.23474 0.68588 0.71463 0.0
O377 O 0.20677 0.67011 0.67273 0.0
O378 O 0.04574 0.43026 0.60174 0.0
Cd379 Cd 0.06197 0.42377 0.49193 0.0
Cd380 Cd 0.06252 0.46339 0.49534 0.0
O381 O 0.05654 0.46112 0.62931 0.0
O382 O 0.06765 0.3944 0.5115 0.0
O383 O 0.09159 0.41761 0.51316 0.0
C384 C 0.08619 0.39911 0.52798 0.0
C385 C 0.08289 0.48331 0.40488 0.0
C386 C 0.04625 0.4456 0.65173 0.0
C387 C 0.03265 0.44367 0.37877 0.0
O388 O 0.03654 0.45852 0.42866 0.0
O389 O 0.0438 0.42786 0.38078 0.0
O390 O 0.06978 0.49143 0.45749 0.0
O391 O 0.0866 0.46418 0.41401 0.0
O392 O 0.32978 0.70349 0.15246 0.0
Cd393 Cd 0.33505 0.68648 0.26037 0.0
Cd394 Cd 0.29525 0.68984 0.26014 0.0
O395 O 0.2979 0.69612 0.12628 0.0
O396 O 0.36367 0.6782 0.23646 0.0
O397 O 0.33831 0.65653 0.23575 0.0
C398 C 0.3571 0.66028 0.21856 0.0
C399 C 0.27275 0.67102 0.34608 0.0
C400 C 0.31444 0.70456 0.10299 0.0
C401 C 0.3186 0.71738 0.37684 0.0
O402 O 0.30294 0.71479 0.3302 0.0
O403 O 0.33333 0.70487 0.37203 0.0
O404 O 0.26645 0.68551 0.29595 0.0
O405 O 0.29143 0.66542 0.33814 0.0
O406 O 0.04936 0.58664 0.89926 0.0
Cd407 Cd 0.06615 0.59103 0.00882 0.0
Cd408 Cd 0.06299 0.55182 0.0012 0.0
O409 O 0.05774 0.55527 0.86729 0.0
O410 O 0.07413 0.61997 0.99179 0.0
O411 O 0.09611 0.59486 0.9867 0.0
C412 C 0.0922 0.61381 0.97378 0.0
C413 C 0.08248 0.53029 0.08835 0.0
C414 C 0.04881 0.57174 0.84688 0.0
C415 C 0.03468 0.57348 0.1187 0.0
O416 O 0.0372 0.55855 0.06751 0.0
O417 O 0.04773 0.58777 0.11999 0.0
O418 O 0.06869 0.52325 0.0364 0.0
O419 O 0.08701 0.54929 0.08184 0.0
O420 O 0.16873 0.30081 0.65876 0.0
Cd421 Cd 0.16295 0.31885 0.76367 0.0
Cd422 Cd 0.20306 0.31875 0.75812 0.0
O423 O 0.19965 0.31066 0.62649 0.0
O424 O 0.13392 0.32578 0.74295 0.0
O425 O 0.15833 0.34846 0.73538 0.0
C426 C 0.13956 0.34386 0.72221 0.0
C427 C 0.22694 0.33791 0.83489 0.0
C428 C 0.18393 0.30029 0.60788 0.0
C429 C 0.18238 0.29121 0.88505 0.0
O430 O 0.19739 0.2944 0.83499 0.0
O431 O 0.16645 0.30207 0.87906 0.0
O432 O 0.23238 0.3232 0.78406 0.0
O433 O 0.20824 0.34362 0.83214 0.0
O434 O 0.46411 0.42542 0.3662 0.0
Cd435 Cd 0.44765 0.42022 0.47659 0.0
Cd436 Cd 0.44672 0.45909 0.46826 0.0
O437 O 0.45246 0.45573 0.33438 0.0
O438 O 0.44081 0.39099 0.46229 0.0
O439 O 0.41785 0.4152 0.45589 0.0
C440 C 0.42249 0.39635 0.44459 0.0
C441 C 0.42508 0.4783 0.55623 0.0
C442 C 0.4632 0.44034 0.31398 0.0
C443 C 0.47697 0.44098 0.58654 0.0
O444 O 0.47297 0.45545 0.53478 0.0
O445 O 0.46574 0.42522 0.58714 0.0
O446 O 0.43784 0.48686 0.50332 0.0
O447 O 0.42264 0.45891 0.54959 0.0
C448 C 0.24886 0.17299 0.563 0.0
C449 C 0.27001 0.17422 0.55392 0.0
C450 C 0.23611 0.17347 0.48873 0.0
C451 C 0.24402 0.17598 0.40293 0.0
H452 H 0.24208 0.17293 0.62818 0.0
H453 H 0.2199 0.17379 0.49948 0.0
S454 S 0.29836 0.17857 0.34308 0.0
N455 N 0.29831 0.17633 0.45165 0.0
N456 N 0.27437 0.17818 0.31298 0.0
C457 C 0.26515 0.17599 0.39269 0.0
C458 C 0.27814 0.17487 0.46797 0.0
C459 C 0.09691 0.98713 0.76798 0.0
C460 C 0.09567 0.99575 0.68314 0.0
C461 C 0.09596 0.99923 0.84432 0.0
C462 C 0.0944 0.02044 0.83867 0.0
H463 H 0.0966 0.97083 0.77581 0.0
H464 H 0.09508 0.99184 0.90805 0.0
S465 S 0.0939 0.05057 0.63192 0.0
N466 N 0.09495 0.02683 0.59797 0.0
N467 N 0.09408 0.04962 0.74087 0.0
C468 C 0.09531 0.02932 0.75422 0.0
C469 C 0.0957 0.01696 0.67658 0.0
C470 C 0.26566 0.835 0.08168 0.0
C471 C 0.24437 0.83531 0.0794 0.0
C472 C 0.2772 0.83431 0.00352 0.0
C473 C 0.26788 0.83326 0.92006 0.0
H474 H 0.27343 0.83395 0.1444 0.0
H475 H 0.29346 0.83266 0.00913 0.0
S476 S 0.21276 0.83596 0.87713 0.0
N477 N 0.21457 0.83682 0.98579 0.0
N478 N 0.23621 0.83468 0.83967 0.0
C479 C 0.24671 0.83509 0.91665 0.0
C480 C 0.23498 0.83634 -0.00391 0.0
C481 C 0.42639 0.01476 0.18794 0.0
C482 C 0.4423 0.01597 0.12577 0.0
C483 C 0.4258 0.9992 0.25171 0.0
C484 C 0.44123 0.98459 0.25556 0.0
H485 H 0.4151 0.02662 0.19129 0.0
H486 H 0.41395 0.99932 0.30122 0.0
S487 S 0.48402 0.97878 0.09878 0.0
N488 N 0.47211 0.99933 0.06508 0.0
N489 N 0.4712 0.97063 0.18534 0.0
C490 C 0.45625 0.98475 0.18983 0.0
C491 C 0.45671 1.00028 0.12467 0.0
C492 C 0.74456 0.81867 0.4042 0.0
C493 C 0.74099 0.80235 0.34644 0.0
C494 C 0.76104 0.81855 0.46278 0.0
C495 C 0.77464 0.80214 0.46572 0.0
H496 H 0.73396 0.83116 0.40755 0.0
H497 H 0.76286 0.83126 0.50726 0.0
S498 S 0.77321 0.75673 0.32067 0.0
N499 N 0.75329 0.77013 0.29086 0.0
N500 N 0.78417 0.76982 0.40006 0.0
C501 C 0.7717 0.78615 0.40533 0.0
C502 C 0.75495 0.7863 0.34592 0.0
C503 C 0.92514 0.99684 0.34466 0.0
C504 C 0.92578 0.01813 0.3412 0.0
C505 C 0.92571 0.98508 0.2672 0.0
C506 C 0.92757 0.99414 0.18336 0.0
H507 H 0.92554 0.98919 0.40786 0.0
H508 H 0.92662 0.96878 0.27381 0.0
S509 S 0.92745 0.04923 0.13719 0.0
N510 N 0.92601 0.04774 0.24585 0.0
N511 N 0.92789 0.02564 0.10114 0.0
C512 C 0.92667 0.01536 0.17864 0.0
C513 C 0.92555 0.02735 0.25731 0.0
C514 C 0.77724 0.1733 0.9879 0.0
C515 C 0.76909 0.17467 0.90225 0.0
C516 C 0.76474 0.1742 0.06315 0.0
C517 C 0.74359 0.17582 0.05557 0.0
H518 H 0.79349 0.17351 -0.00278 0.0
H519 H 0.77178 0.17497 0.12758 0.0
S520 S 0.71461 0.17686 0.84601 0.0
N521 N 0.7385 0.17574 0.81425 0.0
N522 N 0.71497 0.17648 0.95502 0.0
C523 C 0.73517 0.17511 0.97024 0.0
C524 C 0.74793 0.1748 0.89374 0.0
C525 C 0.58023 0.97936 0.74302 0.0
C526 C 0.58338 0.98459 0.83224 0.0
C527 C 0.57957 0.99421 0.67644 0.0
C528 C 0.58286 0.01472 0.69609 0.0
H529 H 0.57659 0.96388 0.72545 0.0
H530 H 0.57553 0.98973 0.60998 0.0
S531 S 0.59333 0.03616 0.91762 0.0
N532 N 0.59052 0.01165 0.93572 0.0
N533 N 0.59057 0.03936 0.81012 0.0
C534 C 0.58738 0.01996 0.78393 0.0
C535 C 0.58732 1.00495 0.85215 0.0
C536 C 0.73784 0.72494 0.02506 0.0
C537 C 0.732 0.70663 0.98482 0.0
C538 C 0.75516 0.72623 0.07769 0.0
C539 C 0.76747 0.70924 0.09322 0.0
H540 H 0.72916 0.73865 0.01472 0.0
H541 H 0.75923 0.74088 0.10447 0.0
S542 S 0.75831 0.65728 0.00899 0.0
N543 N 0.73942 0.67075 0.9685 0.0
N544 N 0.7721 0.67319 0.06759 0.0
C545 C 0.76144 0.69059 0.05666 0.0
C546 C 0.74374 0.68929 0.0023 0.0
C547 C 0.58332 0.52838 0.22319 0.0
C548 C 0.58249 0.51867 0.30595 0.0
C549 C 0.58441 0.51721 0.14417 0.0
C550 C 0.58533 0.49592 0.1448 0.0
H551 H 0.58124 0.54462 0.21876 0.0
H552 H 0.58323 0.52524 0.08207 0.0
S553 S 0.5868 0.46343 0.34469 0.0
N554 N 0.5848 0.48668 0.38391 0.0
N555 N 0.58764 0.46574 0.2362 0.0
C556 C 0.58656 0.48618 0.22741 0.0
C557 C 0.58492 0.49753 0.30775 0.0
C558 C 0.77889 0.34379 0.48402 0.0
C559 C 0.77076 0.3422 0.39838 0.0
C560 C 0.76628 0.34414 0.55902 0.0
C561 C 0.74508 0.34363 0.55109 0.0
H562 H 0.79509 0.34279 0.49382 0.0
H563 H 0.77319 0.3435 0.62373 0.0
S564 S 0.71629 0.34242 0.34108 0.0
N565 N 0.74024 0.34203 0.30979 0.0
N566 N 0.71656 0.34366 0.44998 0.0
C567 C 0.7368 0.34409 0.4655 0.0
C568 C 0.74963 0.34311 0.38933 0.0
C569 C 0.91975 0.51885 0.83079 0.0
C570 C 0.9204 0.49756 0.82756 0.0
C571 C 0.9198 0.53054 0.75313 0.0
C572 C 0.92113 0.52139 0.66924 0.0
H573 H 0.92055 0.52657 0.8938 0.0
H574 H 0.92073 0.54685 0.75937 0.0
S575 S 0.92083 0.46626 0.62393 0.0
N576 N 0.92007 0.46785 0.73269 0.0
N577 N 0.921 0.48981 0.58747 0.0
C578 C 0.92025 0.50016 0.66494 0.0
C579 C 0.91965 0.48826 0.74389 0.0
C580 C 0.23258 0.345 -0.00527 0.0
C581 C 0.24046 0.34414 0.90824 0.0
C582 C 0.24537 0.34415 0.0688 0.0
C583 C 0.26652 0.34318 0.05915 0.0
H584 H 0.21639 0.34436 0.00548 0.0
H585 H 0.23862 0.34298 0.13384 0.0
S586 S 0.29476 0.34291 0.84711 0.0
N587 N 0.27074 0.34372 0.8175 0.0
N588 N 0.29477 0.34314 0.95614 0.0
C589 C 0.2746 0.34418 0.97315 0.0
C590 C 0.26158 0.3444 0.89783 0.0
C591 C 0.41685 0.47978 0.71724 0.0
C592 C 0.41748 0.48959 0.63468 0.0
C593 C 0.41622 0.49087 0.79654 0.0
C594 C 0.4156 0.51217 0.79643 0.0
H595 H 0.41874 0.46352 0.72116 0.0
H596 H 0.41754 0.48274 0.85836 0.0
S597 S 0.41365 0.54492 0.59748 0.0
N598 N 0.4152 0.5217 0.5576 0.0
N599 N 0.41324 0.54249 0.70597 0.0
C600 C 0.41413 0.52203 0.7142 0.0
C601 C 0.41528 0.51076 0.63352 0.0
C602 C 0.26959 0.66273 0.50642 0.0
C603 C 0.2603 0.66473 0.42325 0.0
C604 C 0.25818 0.66348 0.58493 0.0
C605 C 0.23699 0.66563 0.58325 0.0
H606 H 0.28593 0.66254 0.51145 0.0
H607 H 0.26613 0.66374 0.64737 0.0
S608 S 0.20517 0.66824 0.3819 0.0
N609 N 0.22855 0.66679 0.34377 0.0
N610 N 0.20704 0.66735 0.49052 0.0
C611 C 0.22739 0.66551 0.50026 0.0
C612 C 0.23906 0.6653 0.42047 0.0
C613 C 0.09063 0.51589 0.32696 0.0
C614 C 0.0895 0.49462 0.32483 0.0
C615 C 0.09079 0.52738 0.24873 0.0
C616 C 0.08919 0.51805 0.16536 0.0
H617 H 0.09007 0.52379 0.3896 0.0
H618 H 0.09024 0.54372 0.2542 0.0
S619 S 0.08831 0.4628 0.12277 0.0
N620 N 0.08915 0.46466 0.23142 0.0
N621 N 0.08862 0.48626 0.08516 0.0
C622 C 0.08962 0.49679 0.16209 0.0
C623 C 0.09 0.48508 0.2416 0.0
C624 C 0.1237 0.12801 0.1043 0.0
C625 C 0.10371 0.13335 0.08181 0.0
C626 C 0.13635 0.14139 0.15108 0.0
C627 C 0.12955 0.16067 0.17795 0.0
H628 H 0.12963 0.11329 0.08634 0.0
H629 H 0.15165 0.13658 0.16566 0.0
S630 S 0.07845 0.18213 0.13593 0.0
N631 N 0.0778 0.15948 0.09022 0.0
N632 N 0.10132 0.18434 0.17812 0.0
C633 C 0.10957 0.16617 0.15603 0.0
C634 C 0.09676 0.15263 0.10799 0.0
C635 C 0.14095 0.87115 0.36431 0.0
C636 C 0.13379 0.85222 0.33481 0.0
C637 C 0.12869 0.88425 0.41478 0.0
C638 C 0.10873 0.87899 0.4385 0.0
H639 H 0.15626 0.87586 0.34915 0.0
H640 H 0.1349 0.8987 0.43478 0.0
S641 S 0.08251 0.83123 0.37736 0.0
N642 N 0.1052 0.82905 0.33277 0.0
N643 N 0.08238 0.8534 0.42744 0.0
C644 C 0.10139 0.8601 0.40936 0.0
C645 C 0.11381 0.84683 0.35761 0.0
C646 C 0.38754 0.87029 0.59102 0.0
C647 C 0.40767 0.86402 0.57688 0.0
C648 C 0.37416 0.85898 0.64399 0.0
C649 C 0.38031 0.84088 0.68532 0.0
H650 H 0.38198 0.88402 0.56049 0.0
H651 H 0.3587 0.86423 0.65062 0.0
S652 S 0.43176 0.8183 0.67403 0.0
N653 N 0.43327 0.83878 0.61208 0.0
N654 N 0.40829 0.81771 0.71117 0.0
C655 C 0.40054 0.8347 0.67348 0.0
C656 C 0.41414 0.84617 0.61944 0.0
C657 C 0.38275 0.14559 0.84246 0.0
C658 C 0.38784 0.16515 0.81239 0.0
C659 C 0.39562 0.13466 0.89925 0.0
C660 C 0.414 0.14291 0.92949 0.0
H661 H 0.36858 0.13873 0.82299 0.0
H662 H 0.39101 0.11968 0.92015 0.0
S663 S 0.43489 0.19321 0.8678 0.0
N664 N 0.41309 0.19194 0.81535 0.0
N665 N 0.43692 0.17167 0.9221 0.0
C666 C 0.41937 0.16235 0.8991 0.0
C667 C 0.40642 0.17336 0.8406 0.0
C668 C 0.90001 0.88667 0.90871 0.0
C669 C 0.91743 0.88032 0.95464 0.0
C670 C 0.88965 0.87353 0.85122 0.0
C671 C 0.89638 0.85357 0.83686 0.0
H672 H 0.89483 0.90218 0.91398 0.0
H673 H 0.87673 0.87931 0.8153 0.0
S674 S 0.93934 0.82851 0.9507 0.0
N675 N 0.93952 0.85191 0.98877 0.0
N676 N 0.92024 0.82745 0.88096 0.0
C677 C 0.91306 0.8467 0.8862 0.0
C678 C 0.9235 0.85999 0.94501 0.0
C679 C 0.87853 0.1377 0.64772 0.0
C680 C 0.88471 0.15749 0.66958 0.0
C681 C 0.89132 0.12438 0.60097 0.0
C682 C 0.91083 0.13029 0.57337 0.0
H683 H 0.86363 0.13241 0.6666 0.0
H684 H 0.88591 0.10923 0.58731 0.0
S685 S 0.93426 0.18067 0.61179 0.0
N686 N 0.91176 0.18236 0.65852 0.0
N687 N 0.93553 0.15759 0.57071 0.0
C688 C 0.91712 0.15012 0.59404 0.0
C689 C 0.90417 0.16361 0.64211 0.0
C690 C 0.62852 0.13288 0.38776 0.0
C691 C 0.60842 0.13849 0.40709 0.0
C692 C 0.64078 0.14469 0.33163 0.0
C693 C 0.6334 0.1625 0.29166 0.0
H694 H 0.63498 0.11947 0.4176 0.0
H695 H 0.65634 0.14009 0.32158 0.0
S696 S 0.5811 0.18267 0.31306 0.0
N697 N 0.58129 0.16236 0.37631 0.0
N698 N 0.60407 0.18426 0.27086 0.0
C699 C 0.61305 0.16778 0.30761 0.0
C700 C 0.60067 0.15589 0.36528 0.0
C701 C 0.61277 0.88797 0.11707 0.0
C702 C 0.61045 0.8825 0.02765 0.0
C703 C 0.62286 0.87523 0.17698 0.0
C704 C 0.63164 0.85696 0.14886 0.0
H705 H 0.60542 0.90144 0.14248 0.0
H706 H 0.6231 0.87929 0.24626 0.0
S707 S 0.63148 0.83653 0.92099 0.0
N708 N 0.6187 0.85797 0.91364 0.0
N709 N 0.63851 0.83459 0.02525 0.0
C710 C 0.63062 0.85198 0.05881 0.0
C711 C 0.61983 0.86461 -0.00162 0.0
C712 C 0.58322 0.64835 0.54141 0.0
C713 C 0.59053 0.62858 0.52723 0.0
C714 C 0.59374 0.66225 0.59403 0.0
C715 C 0.61216 0.65715 0.63488 0.0
H716 H 0.56882 0.65301 0.51412 0.0
H717 H 0.5871 0.67708 0.60382 0.0
S718 S 0.63886 0.6079 0.61374 0.0
N719 N 0.61809 0.60498 0.55475 0.0
N720 N 0.63794 0.63121 0.65302 0.0
C721 C 0.62017 0.63774 0.61827 0.0
C722 C 0.60937 0.62348 0.56465 0.0
C723 C 0.59998 0.36764 0.86638 0.0
C724 C 0.60579 0.38726 0.89253 0.0
C725 C 0.613 0.35504 0.81789 0.0
C726 C 0.63257 0.36134 0.79315 0.0
H727 H 0.58506 0.36194 0.88253 0.0
H728 H 0.60764 0.34007 0.80048 0.0
S729 S 0.65546 0.41127 0.84514 0.0
N730 N 0.63265 0.41241 0.88965 0.0
N731 N 0.65718 0.38865 0.79931 0.0
C732 C 0.63868 0.3809 0.81896 0.0
C733 C 0.62533 0.39383 0.86841 0.0
C734 C 0.87664 0.37638 0.14599 0.0
C735 C 0.88353 0.35704 0.17128 0.0
C736 C 0.88904 0.38978 0.09782 0.0
C737 C 0.90885 0.3844 0.07217 0.0
H738 H 0.86147 0.38123 0.16308 0.0
H739 H 0.88306 0.40457 0.08134 0.0
S740 S 0.93418 0.33537 0.12026 0.0
N741 N 0.91161 0.3332 0.16596 0.0
N742 N 0.93464 0.35811 0.07546 0.0
C743 C 0.91587 0.36504 0.09651 0.0
C744 C 0.90333 0.35147 0.14603 0.0
C745 C 0.88392 0.6467 0.34314 0.0
C746 C 0.8924 0.66558 0.32097 0.0
C747 C 0.89423 0.63297 0.39834 0.0
C748 C 0.91329 0.6377 0.4347 0.0
H749 H 0.86949 0.64223 0.31561 0.0
H750 H 0.88747 0.6183 0.41032 0.0
S751 S 0.94073 0.68639 0.40641 0.0
N752 N 0.92016 0.68898 0.34607 0.0
N753 N 0.93924 0.66358 0.45022 0.0
C754 C 0.92136 0.65701 0.41658 0.0
C755 C 0.91102 0.67081 0.35963 0.0
C756 C 0.38905 0.38851 0.37208 0.0
C757 C 0.40812 0.38187 0.40192 0.0
C758 C 0.37621 0.37574 0.32312 0.0
C759 C 0.38193 0.35581 0.30113 0.0
H760 H 0.38405 0.40383 0.38546 0.0
H761 H 0.36168 0.38159 0.30227 0.0
S762 S 0.43007 0.3307 0.36545 0.0
N763 N 0.43179 0.35367 0.40742 0.0
N764 N 0.40795 0.32993 0.31537 0.0
C765 C 0.40091 0.34893 0.33124 0.0
C766 C 0.41388 0.36185 0.38162 0.0
C767 C 0.40183 0.63935 0.0883 0.0
C768 C 0.39524 0.62016 0.05964 0.0
C769 C 0.38967 0.65173 0.14186 0.0
C770 C 0.37023 0.64564 0.16942 0.0
H771 H 0.4167 0.64486 0.07027 0.0
H772 H 0.39558 0.66638 0.1609 0.0
S773 S 0.34556 0.59684 0.11277 0.0
N774 N 0.36782 0.59563 0.06337 0.0
N775 N 0.34489 0.619 0.16317 0.0
C776 C 0.36335 0.62651 0.14118 0.0
C777 C 0.37582 0.6138 0.08656 0.0
C778 C 0.11303 0.65999 0.85379 0.0
C779 C 0.13265 0.65412 0.82775 0.0
C780 C 0.10051 0.64713 0.90335 0.0
C781 C 0.1069 0.62766 0.92917 0.0
H782 H 0.10725 0.67482 0.83674 0.0
H783 H 0.08552 0.6525 0.92049 0.0
S784 S 0.15692 0.60474 0.87819 0.0
N785 N 0.15793 0.62737 0.83218 0.0
N786 N 0.13432 0.60311 0.92437 0.0
C787 C 0.12649 0.62151 0.90359 0.0
C788 C 0.13933 0.63471 0.85318 0.0
C789 C 0.132 0.37742 0.64959 0.0
C790 C 0.12548 0.35801 0.67562 0.0
C791 C 0.11952 0.39035 0.5996 0.0
C792 C 0.1 0.3844 0.57277 0.0
H793 H 0.14693 0.38271 0.66762 0.0
H794 H 0.12519 0.40524 0.58275 0.0
S795 S 0.07572 0.33489 0.62181 0.0
N796 N 0.09808 0.33344 0.66947 0.0
N797 N 0.0749 0.35747 0.57554 0.0
C798 C 0.09337 0.36493 0.59767 0.0
C799 C 0.10599 0.35185 0.64907 0.0
C800 C 0.16954 0.24131 -0.00669 0.0
C801 C 0.1879 0.23593 0.0344 0.0
C802 C 0.16742 0.25974 0.94833 0.0
C803 C 0.18358 0.27342 0.9432 0.0
H804 H 0.15651 0.23142 -0.0019 0.0
H805 H 0.15319 0.26313 0.91621 0.0
S806 S 0.2342 0.26743 0.04527 0.0
N807 N 0.22214 0.24633 0.07054 0.0
N808 N 0.21826 0.28085 0.98527 0.0
C809 C 0.202 0.26825 0.98386 0.0
C810 C 0.20417 0.24951 0.02937 0.0
C811 C 0.01108 0.95837 0.22843 0.0
C812 C 1.00301 0.93978 0.19933 0.0
C813 C 0.02917 0.95917 0.27629 0.0
C814 C 0.03991 0.94141 0.29593 0.0
H815 H 1.00307 0.97239 0.21609 0.0
H816 H 0.03412 0.97362 0.30217 0.0
S817 S 0.02692 0.88935 0.22214 0.0
N818 N 0.00822 0.90355 0.18516 0.0
N819 N 0.04242 0.90496 0.27362 0.0
C820 C 0.03266 0.92289 0.26201 0.0
C821 C 0.01411 0.92207 0.21453 0.0
C822 C 0.30115 0.74524 0.45801 0.0
C823 C 0.3194 0.73585 0.43196 0.0
C824 C 0.30108 0.76317 0.50742 0.0
C825 C 0.31926 0.77244 0.5324 0.0
H826 H 0.28672 0.73843 0.44187 0.0
H827 H 0.28673 0.76916 0.53016 0.0
S828 S 0.37106 0.75564 0.46996 0.0
N829 N 0.35603 0.73827 0.42731 0.0
N830 N 0.35602 0.7721 0.5194 0.0
C831 C 0.3376 0.76384 0.50233 0.0
C832 C 0.33765 0.74547 0.45278 0.0
C833 C 0.52592 0.11256 0.78377 0.0
C834 C 0.53966 0.09633 0.78431 0.0
C835 C 0.5077 0.11143 0.83151 0.0
C836 C 0.50258 0.09388 0.87934 0.0
H837 H 0.52849 0.12547 0.74115 0.0
H838 H 0.49717 0.12397 0.82781 0.0
S839 S 0.53521 0.04898 0.91466 0.0
N840 N 0.54832 0.06362 0.84731 0.0
N841 N 0.51395 0.0613 0.93471 0.0
C842 C 0.51688 0.07828 0.8856 0.0
C843 C 0.53552 0.07962 0.83905 0.0
C844 C 0.17255 0.75359 0.5544 0.0
C845 C 0.18989 0.74223 0.57376 0.0
C846 C 0.17396 0.77166 0.50651 0.0
C847 C 0.19273 0.77897 0.47521 0.0
H848 H 0.15781 0.74857 0.57676 0.0
H849 H 0.16007 0.77959 0.49098 0.0
S850 S 0.24269 0.75474 0.50929 0.0
N851 N 0.22651 0.73966 0.55992 0.0
N852 N 0.22905 0.77347 0.46866 0.0
C853 C 0.21026 0.76802 0.49636 0.0
C854 C 0.20884 0.74965 0.54549 0.0
C855 C 0.49761 0.91157 0.65743 0.0
C856 C 0.48617 0.92927 0.64096 0.0
C857 C 0.51518 0.91204 0.7082 0.0
C858 C 0.52187 0.93013 0.74596 0.0
H859 H 0.49314 0.89708 0.63029 0.0
H860 H 0.52312 0.89798 0.72071 0.0
S861 S 0.49835 0.98084 0.72162 0.0
N862 N 0.48352 0.96561 0.66444 0.0
N863 N 0.51642 0.96635 0.76239 0.0
C864 C 0.51088 0.94801 0.72979 0.0
C865 C 0.49305 0.94761 0.67685 0.0
C866 C 0.3408 0.24181 0.9678 0.0
C867 C 0.32307 0.23637 0.92199 0.0
C868 C 0.34213 0.26013 0.01412 0.0
C869 C 0.32579 0.27367 0.01567 0.0
H870 H 0.35391 0.23196 0.96641 0.0
H871 H 0.35581 0.26347 0.05055 0.0
S872 S 0.27685 0.26767 0.8992 0.0
N873 N 0.28939 0.24668 0.87648 0.0
N874 N 0.29178 0.28107 0.96403 0.0
C875 C 0.30808 0.26856 0.96936 0.0
C876 C 0.3067 0.24989 0.92263 0.0
C877 C 0.02655 0.08776 0.26377 0.0
C878 C 0.03488 0.06934 0.23319 0.0
C879 C 0.0086 0.08827 0.31284 0.0
C880 C 0.99841 0.07036 0.33453 0.0
H881 H 0.03352 0.10206 0.24649 0.0
H882 H 1.0027 0.10279 0.33404 0.0
S883 S 0.01418 0.01808 0.27505 0.0
N884 N 0.03179 0.03268 0.23125 0.0
N885 N 0.99823 0.03355 0.32506 0.0
C886 C 0.00697 0.05176 0.30782 0.0
C887 C 0.02521 0.05125 0.25723 0.0
C888 C 0.83378 0.74611 0.80723 0.0
C889 C 0.84949 0.76026 0.797 0.0
C890 C 0.83574 0.72966 0.86477 0.0
C891 C 0.8534 0.72678 0.9151 0.0
H892 H 0.81945 0.74823 0.77397 0.0
H893 H 0.82259 0.72021 0.87619 0.0
S894 S 0.90041 0.75705 0.90064 0.0
N895 N 0.88462 0.76832 0.83217 0.0
N896 N 0.88791 0.73757 0.94162 0.0
C897 C 0.86999 0.73943 0.89855 0.0
C898 C 0.86808 0.75623 0.83969 0.0
C899 C 0.00939 0.05507 0.80942 0.0
C900 C 0.0175 0.07387 0.83589 0.0
C901 C 0.99143 0.05388 0.76077 0.0
C902 C 0.98085 0.07146 0.73708 0.0
H903 H 0.01727 0.0411 0.82428 0.0
H904 H 0.98651 0.0392 0.73729 0.0
S905 S 0.99394 0.12414 0.80145 0.0
N906 N 0.01241 0.11024 0.84265 0.0
N907 N 0.97853 0.10811 0.75199 0.0
C908 C 0.98811 0.09026 0.76792 0.0
C909 C 0.00651 0.09147 0.81667 0.0
C910 C 0.70574 0.26401 0.51036 0.0
C911 C 0.68708 0.27276 0.53519 0.0
C912 C 0.70663 0.24611 0.46105 0.0
C913 C 0.68888 0.2362 0.43477 0.0
H914 H 0.71987 0.27127 0.52779 0.0
H915 H 0.7213 0.24059 0.43986 0.0
S916 S 0.63626 0.25142 0.49195 0.0
N917 N 0.65053 0.26923 0.53611 0.0
N918 N 0.65206 0.23545 0.44394 0.0
C919 C 0.67012 0.24426 0.46276 0.0
C920 C 0.66924 0.26261 0.51238 0.0
C921 C 0.49353 0.89493 0.18856 0.0
C922 C 0.49319 0.90479 0.27031 0.0
C923 C 0.51013 0.89731 0.13139 0.0
C924 C 0.52675 0.90978 0.15398 0.0
H925 H 0.48042 0.88657 0.16618 0.0
H926 H 0.50929 0.89035 0.06676 0.0
S927 S 0.53448 0.93559 0.36821 0.0
N928 N 0.51202 0.92486 0.37702 0.0
N929 N 0.54286 0.92966 0.26872 0.0
C930 C 0.52719 0.91831 0.23849 0.0
C931 C 0.5105 0.91569 0.2969 0.0
C932 C 0.80968 0.26038 0.45457 0.0
C933 C 0.8283 0.26888 0.42806 0.0
C934 C 0.80883 0.2423 0.50272 0.0
C935 C 0.82659 0.23196 0.52582 0.0
H936 H 0.79557 0.26794 0.43924 0.0
H937 H 0.79422 0.23696 0.52537 0.0
S938 S 0.87903 0.24644 0.46261 0.0
N939 N 0.86476 0.26469 0.42194 0.0
N940 N 0.86331 0.23057 0.51148 0.0
C941 C 0.84527 0.23979 0.49594 0.0
C942 C 0.84611 0.25833 0.44776 0.0
C943 C 0.49869 0.10696 0.29802 0.0
C944 C 0.48522 0.09099 0.28238 0.0
C945 C 0.51639 0.10387 0.34712 0.0
C946 C 0.52135 0.08469 0.3825 0.0
H947 H 0.49627 0.12158 0.26745 0.0
H948 H 0.52652 0.1166 0.35543 0.0
S949 S 0.48953 0.03856 0.36905 0.0
N950 N 0.47691 0.05579 0.31266 0.0
N951 N 0.51013 0.05002 0.40488 0.0
C952 C 0.50741 0.06887 0.37108 0.0
C953 C 0.48935 0.07206 0.32151 0.0
C954 C 0.65405 0.73781 0.16505 0.0
C955 C 0.64526 0.75654 0.14449 0.0
C956 C 0.64924 0.72045 0.11661 0.0
C957 C 0.63614 0.72148 0.04361 0.0
H958 H 0.66551 0.73677 0.21589 0.0
H959 H 0.65792 0.7068 0.12866 0.0
S960 S 0.60646 0.76634 0.97413 0.0
N961 N 0.62025 0.77455 0.05762 0.0
N962 N 0.61199 0.74208 0.96271 0.0
C963 C 0.62539 0.73959 0.02971 0.0
C964 C 0.62999 0.75721 0.08047 0.0
C965 C 0.01482 0.95623 0.72326 0.0
C966 C 0.02317 0.93749 0.6969 0.0
C967 C 0.99702 0.95727 0.77345 0.0
C968 C 0.98682 0.93959 0.79898 0.0
H969 H 0.02237 0.97029 0.70681 0.0
H970 H 0.99188 0.97194 0.79629 0.0
S971 S 1.00071 0.88693 0.73646 0.0
N972 N 0.01877 0.90102 0.69284 0.0
N973 N 0.98519 0.90285 0.78642 0.0
C974 C 0.99437 0.92081 0.76874 0.0
C975 C 0.01261 0.91977 0.71835 0.0
C976 C 0.64413 0.77618 0.56549 0.0
C977 C 0.66203 0.78633 0.5431 0.0
C978 C 0.64456 0.75932 0.62159 0.0
C979 C 0.66291 0.75202 0.65734 0.0
H980 H 0.63006 0.78004 0.53307 0.0
H981 H 0.63047 0.75142 0.63356 0.0
S982 S 0.71341 0.77582 0.62975 0.0
N983 N 0.69809 0.78982 0.56931 0.0
N984 N 0.699 0.75821 0.67488 0.0
C985 C 0.6806 0.7633 0.64175 0.0
C986 C 0.6801 0.78049 0.58497 0.0
C987 C 0.50481 0.42466 0.67173 0.0
C988 C 0.49559 0.44233 0.64033 0.0
C989 C 0.52268 0.42558 0.72073 0.0
C990 C 0.53192 0.44424 0.74196 0.0
H991 H 0.49818 0.40997 0.65868 0.0
H992 H 0.52881 0.41147 0.74543 0.0
S993 S 0.51467 0.4949 0.66855 0.0
N994 N 0.49778 0.47907 0.62794 0.0
N995 N 0.53118 0.48073 0.7219 0.0
C996 C 0.52339 0.46199 0.70734 0.0
C997 C 0.50523 0.46105 0.65657 0.0
C998 C 0.80979 0.27198 0.00107 0.0
C999 C 0.82763 0.28187 0.02641 0.0
C1000 C 0.81052 0.254 0.95219 0.0
C1001 C 0.8291 0.24516 0.92689 0.0
H1002 H 0.79518 0.27759 0.02253 0.0
H1003 H 0.79633 0.24679 0.93533 0.0
S1004 S 0.88008 0.26635 0.96785 0.0
N1005 N 0.86444 0.28245 0.01596 0.0
N1006 N 0.86566 0.24854 0.92468 0.0
C1007 C 0.84702 0.25527 0.9489 0.0
C1008 C 0.8463 0.27369 -0.00196 0.0
C1009 C 0.99744 0.58902 0.29637 0.0
C1010 C 0.98176 0.57456 0.28899 0.0
C1011 C 0.0143 0.5887 0.24071 0.0
C1012 C 0.01624 0.574 0.17467 0.0
H1013 H 0.99716 0.60041 0.3478 0.0
H1014 H 0.02608 0.59985 0.2509 0.0
S1015 S 0.97807 0.53454 0.11875 0.0
N1016 N 0.96841 0.54628 0.20537 0.0
N1017 N 0.99992 0.54574 0.09868 0.0
C1018 C 1.00021 0.55999 0.16348 0.0
C1019 C 0.98305 0.56025 0.22107 0.0
C1020 C 0.70803 0.27654 0.95842 0.0
C1021 C 0.69014 0.28676 0.936 0.0
C1022 C 0.70739 0.25844 0.00646 0.0
C1023 C 0.68887 0.24979 0.03328 0.0
H1024 H 0.72255 0.28199 0.9352 0.0
H1025 H 0.72157 0.25094 0.0213 0.0
S1026 S 0.63793 0.27193 0.0012 0.0
N1027 N 0.65344 0.28793 0.95193 0.0
N1028 N 0.6524 0.25374 0.04099 0.0
C1029 C 0.67095 0.26024 0.01449 0.0
C1030 C 0.67157 0.27881 0.96661 0.0
C1031 C 0.98589 0.42827 0.25151 0.0
C1032 C 0.97775 0.44697 0.22349 0.0
C1033 C 1.00383 0.42724 0.30014 0.0
C1034 C 0.01423 0.44489 0.32386 0.0
H1035 H 0.97877 0.41416 0.2325 0.0
H1036 H 0.00957 0.41252 0.31922 0.0
S1037 S 0.99887 0.49772 0.27216 0.0
N1038 N 0.98114 0.48359 0.22665 0.0
N1039 N 0.01471 0.48176 0.31935 0.0
C1040 C 1.00584 0.46376 0.29976 0.0
C1041 C 0.98759 0.46479 0.24976 0.0
C1042 C 0.87387 0.76548 0.35728 0.0
C1043 C 0.85565 0.76341 0.31006 0.0
C1044 C 0.87772 0.78277 0.40839 0.0
C1045 C 0.86347 0.79852 0.41365 0.0
H1046 H 0.88464 0.75313 0.35962 0.0
H1047 H 0.89083 0.78277 0.45117 0.0
S1048 S 0.81638 0.80303 0.28291 0.0
N1049 N 0.82538 0.78045 0.25715 0.0
N1050 N 0.83259 0.81284 0.35382 0.0
C1051 C 0.84652 0.79773 0.35802 0.0
C1052 C 0.84252 0.78013 0.30651 0.0
C1053 C 0.50548 0.58473 0.68911 0.0
C1054 C 0.52085 0.56986 0.69307 0.0
C1055 C 0.48869 0.58423 0.74527 0.0
C1056 C 0.48656 0.56894 0.80856 0.0
H1057 H 0.50585 0.59654 0.63954 0.0
H1058 H 0.47705 0.59563 0.73721 0.0
S1059 S 0.52421 0.52843 0.85698 0.0
N1060 N 0.53394 0.54075 0.77209 0.0
N1061 N 0.5026 0.53986 0.87962 0.0
C1062 C 0.50245 0.55467 0.8173 0.0
C1063 C 0.51952 0.55511 0.75922 0.0
C1064 C 0.34325 0.25688 0.51133 0.0
C1065 C 0.32749 0.24276 0.51712 0.0
C1066 C 0.34072 0.27494 0.46403 0.0
C1067 C 0.32233 0.27956 0.42131 0.0
H1068 H 0.35741 0.2542 0.54527 0.0
H1069 H 0.35341 0.28528 0.4596 0.0
S1070 S 0.27705 0.24656 0.41123 0.0
N1071 N 0.29325 0.23396 0.47316 0.0
N1072 N 0.28855 0.26786 0.38416 0.0
C1073 C 0.30651 0.26545 0.42633 0.0
C1074 C 0.30913 0.24703 0.47396 0.0
C1075 C 0.49599 0.54777 0.27305 0.0
C1076 C 0.50374 0.56672 0.29922 0.0
C1077 C 0.47776 0.54626 0.22643 0.0
C1078 C 0.4666 0.56364 0.20522 0.0
H1079 H 0.5044 0.53404 0.28638 0.0
H1080 H 0.47307 0.53159 0.20224 0.0
S1081 S 0.47832 0.61634 0.27413 0.0
N1082 N 0.49755 0.60284 0.31096 0.0
N1083 N 0.46309 0.60008 0.22499 0.0
C1084 C 0.47338 0.58249 0.23749 0.0
C1085 C 0.49207 0.58404 0.28356 0.0
C1086 C 0.171 0.75444 0.05325 0.0
C1087 C 0.18909 0.76426 0.0752 0.0
C1088 C 0.17122 0.73642 0.00448 0.0
C1089 C 0.18951 0.7276 0.97522 0.0
H1090 H 0.15658 0.76065 0.07406 0.0
H1091 H 0.15683 0.72971 0.98678 0.0
S1092 S 0.24108 0.74745 0.01588 0.0
N1093 N 0.2259 0.76378 0.06516 0.0
N1094 N 0.22618 0.73 0.97313 0.0
C1095 C 0.20773 0.73698 -0.0011 0.0
C1096 C 0.20754 0.75534 0.04852 0.0
C1097 C 0.02294 0.42775 0.75435 0.0
C1098 C 0.03099 0.44622 0.7232 0.0
C1099 C 1.0049 0.42709 0.80291 0.0
C1100 C 0.99432 0.44489 0.82304 0.0
H1101 H 0.03021 0.41354 0.73784 0.0
H1102 H 0.99924 0.41254 0.82477 0.0
S1103 S 0.00912 0.49721 0.75984 0.0
N1104 N 0.02716 0.48277 0.71816 0.0
N1105 N 0.99339 0.48165 0.81045 0.0
C1106 C 1.00256 0.46355 0.79523 0.0
C1107 C 0.02091 0.4642 0.74552 0.0
C1108 C 0.29811 0.73103 0.01019 0.0
C1109 C 0.31535 0.71964 0.03119 0.0
C1110 C 0.29977 0.74899 0.96155 0.0
C1111 C 0.31874 0.75627 0.93289 0.0
H1112 H 0.28341 0.7267 0.03558 0.0
H1113 H 0.28612 0.75753 0.9482 0.0
S1114 S 0.36807 0.73041 0.9593 0.0
N1115 N 0.35172 0.71565 0.01078 0.0
N1116 N 0.35475 0.74959 0.92073 0.0
C1117 C 0.33594 0.7445 0.9495 0.0
C1118 C 0.33424 0.72609 -0.00214 0.0
C1119 C 1.00432 0.55643 0.70794 0.0
C1120 C 0.99616 0.5753 0.68266 0.0
C1121 C 0.02258 0.55513 0.75426 0.0
C1122 C 0.03342 0.57263 0.77652 0.0
H1123 H 0.99627 0.54254 0.6936 0.0
H1124 H 0.0276 0.54043 0.77701 0.0
S1125 S 0.02021 0.6254 0.71388 0.0
N1126 N 1.00138 0.61162 0.6752 0.0
N1127 N 0.03585 0.60927 0.7614 0.0
C1128 C 0.02605 0.59149 0.74682 0.0
C1129 C 0.00734 0.59282 0.7006 0.0
C1130 C 0.16714 0.27147 0.53088 0.0
C1131 C 0.18401 0.28452 0.53812 0.0
C1132 C 0.16767 0.25412 0.47805 0.0
C1133 C 0.18501 0.24911 0.42931 0.0
H1134 H 0.15349 0.27422 0.56874 0.0
H1135 H 0.15442 0.24449 0.47627 0.0
S1136 S 0.23243 0.27951 0.4165 0.0
N1137 N 0.21794 0.29206 0.48641 0.0
N1138 N 0.21907 0.25963 0.38582 0.0
C1139 C 0.2017 0.26255 0.43242 0.0
C1140 C 0.20114 0.28021 0.48681 0.0
C1141 C 0.48784 0.42264 0.21622 0.0
C1142 C 0.47845 0.44091 0.24236 0.0
C1143 C 0.50579 0.42255 0.16681 0.0
C1144 C 0.51495 0.44073 0.14089 0.0
H1145 H 0.4817 0.40821 0.23716 0.0
H1146 H 0.51252 0.40815 0.14899 0.0
S1147 S 0.49625 0.49266 0.18919 0.0
N1148 N 0.47945 0.47763 0.23603 0.0
N1149 N 0.51306 0.47757 0.14273 0.0
C1150 C 0.50535 0.45911 0.16378 0.0
C1151 C 0.48709 0.45918 0.21414 0.0
loop_
_geom_bond_atom_site_label_1
_geom_bond_atom_site_label_2
_geom_bond_distance
_geom_bond_site_symmetry_2
_ccdc_geom_bond_type
O0 Cd1 2.223 . S
O0 C8 1.315 . S
Cd1 O0 2.223 . S
Cd1 O4 2.297 . S
Cd1 O5 2.439 . S
Cd1 O11 2.240 . S
Cd2 O3 2.240 . S
Cd2 O10 2.223 . S
Cd2 O12 2.297 . S
Cd2 O13 2.439 . S
O3 Cd2 2.240 . S
O3 C8 1.279 . S
O4 Cd1 2.297 . S
O4 C6 1.247 . S
O5 Cd1 2.439 . S
O5 C6 1.208 . S
C6 O4 1.247 . S
C6 O5 1.208 . S
C7 O12 1.247 . S
C7 O13 1.208 . S
C8 O0 1.315 . S
C8 O3 1.279 . S
C9 O10 1.315 . S
C9 O11 1.279 . S
O10 Cd2 2.223 . S
O10 C9 1.315 . S
O11 Cd1 2.240 . S
O11 C9 1.279 . S
O12 Cd2 2.297 . S
O12 C7 1.247 . S
O13 Cd2 2.439 . S
O13 C7 1.208 . S
O14 Cd15 2.223 . S
O14 C22 1.315 . S
Cd15 O14 2.223 . S
Cd15 O18 2.297 . S
Cd15 O19 2.439 . S
Cd15 O25 2.240 . S
Cd16 O17 2.240 . S
Cd16 O24 2.223 . S
Cd16 O26 2.297 . S
Cd16 O27 2.439 . S
O17 Cd16 2.240 . S
O17 C22 1.279 . S
O18 Cd15 2.297 . S
O18 C20 1.247 . S
O19 Cd15 2.439 . S
O19 C20 1.208 . S
C20 O18 1.247 . S
C20 O19 1.208 . S
C21 O26 1.247 . S
C21 O27 1.208 . S
C22 O14 1.315 . S
C22 O17 1.279 . S
C23 O24 1.315 . S
C23 O25 1.279 . S
O24 Cd16 2.223 . S
O24 C23 1.315 . S
O25 Cd15 2.240 . S
O25 C23 1.279 . S
O26 Cd16 2.297 . S
O26 C21 1.247 . S
O27 Cd16 2.439 . S
O27 C21 1.208 . S
O28 Cd29 2.223 . S
O28 C36 1.315 . S
Cd29 O28 2.223 . S
Cd29 O32 2.297 . S
Cd29 O33 2.439 . S
Cd29 O39 2.240 . S
Cd30 O31 2.240 . S
Cd30 O38 2.223 . S
Cd30 O40 2.297 . S
Cd30 O41 2.439 . S
O31 Cd30 2.240 . S
O31 C36 1.279 . S
O32 Cd29 2.297 . S
O32 C34 1.247 . S
O33 Cd29 2.439 . S
O33 C34 1.208 . S
C34 O32 1.247 . S
C34 O33 1.208 . S
C35 O40 1.247 . S
C35 O41 1.208 . S
C36 O28 1.315 . S
C36 O31 1.279 . S
C37 O38 1.315 . S
C37 O39 1.279 . S
O38 Cd30 2.223 . S
O38 C37 1.315 . S
O39 Cd29 2.240 . S
O39 C37 1.279 . S
O40 Cd30 2.297 . S
O40 C35 1.247 . S
O41 Cd30 2.439 . S
O41 C35 1.208 . S
O42 Cd43 2.223 . S
O42 C50 1.315 1_554 S
Cd43 O42 2.223 . S
Cd43 O46 2.297 1_554 S
Cd43 O47 2.439 . S
Cd43 O53 2.240 . S
Cd44 O45 2.240 1_554 S
Cd44 O52 2.223 . S
Cd44 O54 2.297 . S
Cd44 O55 2.439 . S
O45 Cd44 2.240 1_556 S
O45 C50 1.279 . S
O46 Cd43 2.297 1_556 S
O46 C48 1.247 . S
O47 Cd43 2.439 . S
O47 C48 1.208 1_554 S
C48 O46 1.247 . S
C48 O47 1.208 1_556 S
C49 O54 1.247 . S
C49 O55 1.208 . S
C50 O42 1.315 1_556 S
C50 O45 1.279 . S
C51 O52 1.315 . S
C51 O53 1.279 . S
O52 Cd44 2.223 . S
O52 C51 1.315 . S
O53 Cd43 2.240 . S
O53 C51 1.279 . S
O54 Cd44 2.297 . S
O54 C49 1.247 . S
O55 Cd44 2.439 . S
O55 C49 1.208 . S
O56 Cd57 2.223 . S
O56 C64 1.315 . S
Cd57 O56 2.223 . S
Cd57 O60 2.297 . S
Cd57 O61 2.439 . S
Cd57 O67 2.240 . S
Cd58 O59 2.240 . S
Cd58 O66 2.223 . S
Cd58 O68 2.297 . S
Cd58 O69 2.439 . S
O59 Cd58 2.240 . S
O59 C64 1.279 . S
O60 Cd57 2.297 . S
O60 C62 1.247 . S
O61 Cd57 2.439 . S
O61 C62 1.208 . S
C62 O60 1.247 . S
C62 O61 1.208 . S
C63 O68 1.247 . S
C63 O69 1.208 . S
C64 O56 1.315 . S
C64 O59 1.279 . S
C65 O66 1.315 . S
C65 O67 1.279 . S
O66 Cd58 2.223 . S
O66 C65 1.315 . S
O67 Cd57 2.240 . S
O67 C65 1.279 . S
O68 Cd58 2.297 . S
O68 C63 1.247 . S
O69 Cd58 2.439 . S
O69 C63 1.208 . S
O70 Cd71 2.223 . S
O70 C78 1.315 . S
Cd71 O70 2.223 . S
Cd71 O74 2.297 . S
Cd71 O75 2.439 . S
Cd71 O81 2.240 . S
Cd72 O73 2.240 . S
Cd72 O80 2.223 . S
Cd72 O82 2.297 . S
Cd72 O83 2.439 . S
O73 Cd72 2.240 . S
O73 C78 1.279 . S
O74 Cd71 2.297 . S
O74 C76 1.247 . S
O75 Cd71 2.439 . S
O75 C76 1.208 . S
C76 O74 1.247 . S
C76 O75 1.208 . S
C77 O82 1.247 . S
C77 O83 1.208 . S
C78 O70 1.315 . S
C78 O73 1.279 . S
C79 O80 1.315 . S
C79 O81 1.279 . S
O80 Cd72 2.223 . S
O80 C79 1.315 . S
O81 Cd71 2.240 . S
O81 C79 1.279 . S
O82 Cd72 2.297 . S
O82 C77 1.247 . S
O83 Cd72 2.439 . S
O83 C77 1.208 . S
O84 Cd85 2.223 . S
O84 C92 1.315 . S
Cd85 O84 2.223 . S
Cd85 O88 2.297 . S
Cd85 O89 2.439 . S
Cd85 O95 2.240 . S
Cd86 O87 2.240 . S
Cd86 O94 2.223 . S
Cd86 O96 2.297 . S
Cd86 O97 2.439 . S
O87 Cd86 2.240 . S
O87 C92 1.279 . S
O88 Cd85 2.297 . S
O88 C90 1.247 . S
O89 Cd85 2.439 . S
O89 C90 1.208 . S
C90 O88 1.247 . S
C90 O89 1.208 . S
C91 O96 1.247 . S
C91 O97 1.208 . S
C92 O84 1.315 . S
C92 O87 1.279 . S
C93 O94 1.315 . S
C93 O95 1.279 . S
O94 Cd86 2.223 . S
O94 C93 1.315 . S
O95 Cd85 2.240 . S
O95 C93 1.279 . S
O96 Cd86 2.297 . S
O96 C91 1.247 . S
O97 Cd86 2.439 . S
O97 C91 1.208 . S
O98 Cd99 2.223 . S
O98 C106 1.315 1_556 S
Cd99 O98 2.223 . S
Cd99 O102 2.297 1_556 S
Cd99 O103 2.439 . S
Cd99 O109 2.240 . S
Cd100 O101 2.240 1_556 S
Cd100 O108 2.223 . S
Cd100 O110 2.297 . S
Cd100 O111 2.439 . S
O101 Cd100 2.240 1_554 S
O101 C106 1.279 . S
O102 Cd99 2.297 1_554 S
O102 C104 1.247 . S
O103 Cd99 2.439 . S
O103 C104 1.208 1_556 S
C104 O102 1.247 . S
C104 O103 1.208 1_554 S
C105 O110 1.247 . S
C105 O111 1.208 . S
C106 O98 1.315 1_554 S
C106 O101 1.279 . S
C107 O108 1.315 . S
C107 O109 1.279 . S
O108 Cd100 2.223 . S
O108 C107 1.315 . S
O109 Cd99 2.240 . S
O109 C107 1.279 . S
O110 Cd100 2.297 . S
O110 C105 1.247 . S
O111 Cd100 2.439 . S
O111 C105 1.208 . S
O112 Cd113 2.223 . S
O112 C120 1.315 . S
Cd113 O112 2.223 . S
Cd113 O116 2.297 . S
Cd113 O117 2.439 . S
Cd113 O123 2.240 . S
Cd114 O115 2.240 . S
Cd114 O122 2.223 . S
Cd114 O124 2.297 . S
Cd114 O125 2.439 . S
O115 Cd114 2.240 . S
O115 C120 1.279 . S
O116 Cd113 2.297 . S
O116 C118 1.247 . S
O117 Cd113 2.439 . S
O117 C118 1.208 . S
C118 O116 1.247 . S
C118 O117 1.208 . S
C119 O124 1.247 . S
C119 O125 1.208 . S
C120 O112 1.315 . S
C120 O115 1.279 . S
C121 O122 1.315 . S
C121 O123 1.279 . S
O122 Cd114 2.223 . S
O122 C121 1.315 . S
O123 Cd113 2.240 . S
O123 C121 1.279 . S
O124 Cd114 2.297 . S
O124 C119 1.247 . S
O125 Cd114 2.439 . S
O125 C119 1.208 . S
O126 Cd127 2.223 . S
O126 C134 1.315 . S
Cd127 O126 2.223 . S
Cd127 O130 2.297 . S
Cd127 O131 2.439 . S
Cd127 O137 2.240 . S
Cd128 O129 2.240 . S
Cd128 O136 2.223 . S
Cd128 O138 2.297 . S
Cd128 O139 2.439 . S
O129 Cd128 2.240 . S
O129 C134 1.279 . S
O130 Cd127 2.297 . S
O130 C132 1.247 . S
O131 Cd127 2.439 . S
O131 C132 1.208 . S
C132 O130 1.247 . S
C132 O131 1.208 . S
C133 O138 1.247 . S
C133 O139 1.208 . S
C134 O126 1.315 . S
C134 O129 1.279 . S
C135 O136 1.315 . S
C135 O137 1.279 . S
O136 Cd128 2.223 . S
O136 C135 1.315 . S
O137 Cd127 2.240 . S
O137 C135 1.279 . S
O138 Cd128 2.297 . S
O138 C133 1.247 . S
O139 Cd128 2.439 . S
O139 C133 1.208 . S
O140 Cd141 2.223 . S
O140 C148 1.315 . S
Cd141 O140 2.223 . S
Cd141 O144 2.297 . S
Cd141 O145 2.439 . S
Cd141 O151 2.240 . S
Cd142 O143 2.240 . S
Cd142 O150 2.223 . S
Cd142 O152 2.297 . S
Cd142 O153 2.439 . S
O143 Cd142 2.240 . S
O143 C148 1.279 . S
O144 Cd141 2.297 . S
O144 C146 1.247 . S
O145 Cd141 2.439 . S
O145 C146 1.208 . S
C146 O144 1.247 . S
C146 O145 1.208 . S
C147 O152 1.247 . S
C147 O153 1.208 . S
C148 O140 1.315 . S
C148 O143 1.279 . S
C149 O150 1.315 . S
C149 O151 1.279 . S
O150 Cd142 2.223 . S
O150 C149 1.315 . S
O151 Cd141 2.240 . S
O151 C149 1.279 . S
O152 Cd142 2.297 . S
O152 C147 1.247 . S
O153 Cd142 2.439 . S
O153 C147 1.208 . S
O154 Cd155 2.223 . S
O154 C162 1.315 1_556 S
Cd155 O154 2.223 . S
Cd155 O158 2.297 1_556 S
Cd155 O159 2.439 . S
Cd155 O165 2.240 . S
Cd156 O157 2.240 1_556 S
Cd156 O164 2.223 . S
Cd156 O166 2.297 . S
Cd156 O167 2.439 . S
O157 Cd156 2.240 1_554 S
O157 C162 1.279 . S
O158 Cd155 2.297 1_554 S
O158 C160 1.247 . S
O159 Cd155 2.439 . S
O159 C160 1.208 1_556 S
C160 O158 1.247 . S
C160 O159 1.208 1_554 S
C161 O166 1.247 . S
C161 O167 1.208 . S
C162 O154 1.315 1_554 S
C162 O157 1.279 . S
C163 O164 1.315 . S
C163 O165 1.279 . S
O164 Cd156 2.223 . S
O164 C163 1.315 . S
O165 Cd155 2.240 . S
O165 C163 1.279 . S
O166 Cd156 2.297 . S
O166 C161 1.247 . S
O167 Cd156 2.439 . S
O167 C161 1.208 . S
O168 Cd169 2.223 . S
O168 C176 1.315 . S
Cd169 O168 2.223 . S
Cd169 O172 2.297 . S
Cd169 O173 2.439 . S
Cd169 O179 2.240 . S
Cd170 O171 2.240 . S
Cd170 O178 2.223 . S
Cd170 O180 2.297 . S
Cd170 O181 2.439 . S
O171 Cd170 2.240 . S
O171 C176 1.279 . S
O172 Cd169 2.297 . S
O172 C174 1.247 . S
O173 Cd169 2.439 . S
O173 C174 1.208 . S
C174 O172 1.247 . S
C174 O173 1.208 . S
C175 O180 1.247 . S
C175 O181 1.208 . S
C176 O168 1.315 . S
C176 O171 1.279 . S
C177 O178 1.315 . S
C177 O179 1.279 . S
O178 Cd170 2.223 . S
O178 C177 1.315 . S
O179 Cd169 2.240 . S
O179 C177 1.279 . S
O180 Cd170 2.297 . S
O180 C175 1.247 . S
O181 Cd170 2.439 . S
O181 C175 1.208 . S
O182 Cd183 2.223 . S
O182 C190 1.315 . S
Cd183 O182 2.223 . S
Cd183 O186 2.297 . S
Cd183 O187 2.439 . S
Cd183 O193 2.240 . S
Cd184 O185 2.240 . S
Cd184 O192 2.223 . S
Cd184 O194 2.297 . S
Cd184 O195 2.439 . S
O185 Cd184 2.240 . S
O185 C190 1.279 . S
O186 Cd183 2.297 . S
O186 C188 1.247 . S
O187 Cd183 2.439 . S
O187 C188 1.208 . S
C188 O186 1.247 . S
C188 O187 1.208 . S
C189 O194 1.247 . S
C189 O195 1.208 . S
C190 O182 1.315 . S
C190 O185 1.279 . S
C191 O192 1.315 . S
C191 O193 1.279 . S
O192 Cd184 2.223 . S
O192 C191 1.315 . S
O193 Cd183 2.240 . S
O193 C191 1.279 . S
O194 Cd184 2.297 . S
O194 C189 1.247 . S
O195 Cd184 2.439 . S
O195 C189 1.208 . S
O196 Cd197 2.223 . S
O196 C204 1.315 . S
Cd197 O196 2.223 . S
Cd197 O200 2.297 . S
Cd197 O201 2.439 . S
Cd197 O207 2.240 . S
Cd198 O199 2.240 . S
Cd198 O206 2.223 . S
Cd198 O208 2.297 . S
Cd198 O209 2.439 . S
O199 Cd198 2.240 . S
O199 C204 1.279 . S
O200 Cd197 2.297 . S
O200 C202 1.247 . S
O201 Cd197 2.439 . S
O201 C202 1.208 . S
C202 O200 1.247 . S
C202 O201 1.208 . S
C203 O208 1.247 . S
C203 O209 1.208 . S
C204 O196 1.315 . S
C204 O199 1.279 . S
C205 O206 1.315 . S
C205 O207 1.279 . S
O206 Cd198 2.223 . S
O206 C205 1.315 . S
O207 Cd197 2.240 . S
O207 C205 1.279 . S
O208 Cd198 2.297 . S
O208 C203 1.247 . S
O209 Cd198 2.439 . S
O209 C203 1.208 . S
O210 Cd211 2.223 . S
O210 C218 1.315 1_554 S
Cd211 O210 2.223 . S
Cd211 O214 2.297 1_554 S
Cd211 O215 2.439 . S
Cd211 O221 2.240 . S
Cd212 O213 2.240 1_554 S
Cd212 O220 2.223 . S
Cd212 O222 2.297 . S
Cd212 O223 2.439 . S
O213 Cd212 2.240 1_556 S
O213 C218 1.279 . S
O214 Cd211 2.297 1_556 S
O214 C216 1.247 . S
O215 Cd211 2.439 . S
O215 C216 1.208 1_554 S
C216 O214 1.247 . S
C216 O215 1.208 1_556 S
C217 O222 1.247 . S
C217 O223 1.208 . S
C218 O210 1.315 1_556 S
C218 O213 1.279 . S
C219 O220 1.315 . S
C219 O221 1.279 . S
O220 Cd212 2.223 . S
O220 C219 1.315 . S
O221 Cd211 2.240 . S
O221 C219 1.279 . S
O222 Cd212 2.297 . S
O222 C217 1.247 . S
O223 Cd212 2.439 . S
O223 C217 1.208 . S
O224 Cd225 2.223 . S
O224 C232 1.315 . S
Cd225 O224 2.223 . S
Cd225 O228 2.297 . S
Cd225 O229 2.439 . S
Cd225 O235 2.240 . S
Cd226 O227 2.240 . S
Cd226 O234 2.223 . S
Cd226 O236 2.297 . S
Cd226 O237 2.439 . S
O227 Cd226 2.240 . S
O227 C232 1.279 . S
O228 Cd225 2.297 . S
O228 C230 1.247 . S
O229 Cd225 2.439 . S
O229 C230 1.208 . S
C230 O228 1.247 . S
C230 O229 1.208 . S
C231 O236 1.247 . S
C231 O237 1.208 . S
C232 O224 1.315 . S
C232 O227 1.279 . S
C233 O234 1.315 . S
C233 O235 1.279 . S
O234 Cd226 2.223 . S
O234 C233 1.315 . S
O235 Cd225 2.240 . S
O235 C233 1.279 . S
O236 Cd226 2.297 . S
O236 C231 1.247 . S
O237 Cd226 2.439 . S
O237 C231 1.208 . S
O238 Cd239 2.223 . S
O238 C246 1.315 1_554 S
Cd239 O238 2.223 . S
Cd239 O242 2.297 1_554 S
Cd239 O243 2.439 . S
Cd239 O249 2.240 . S
Cd240 O241 2.240 1_554 S
Cd240 O248 2.223 . S
Cd240 O250 2.297 . S
Cd240 O251 2.439 . S
O241 Cd240 2.240 1_556 S
O241 C246 1.279 . S
O242 Cd239 2.297 1_556 S
O242 C244 1.247 . S
O243 Cd239 2.439 . S
O243 C244 1.208 1_554 S
C244 O242 1.247 . S
C244 O243 1.208 1_556 S
C245 O250 1.247 . S
C245 O251 1.208 . S
C246 O238 1.315 1_556 S
C246 O241 1.279 . S
C247 O248 1.315 . S
C247 O249 1.279 . S
O248 Cd240 2.223 . S
O248 C247 1.315 . S
O249 Cd239 2.240 . S
O249 C247 1.279 . S
O250 Cd240 2.297 . S
O250 C245 1.247 . S
O251 Cd240 2.439 . S
O251 C245 1.208 . S
O252 Cd253 2.223 . S
O252 C260 1.315 . S
Cd253 O252 2.223 . S
Cd253 O256 2.297 . S
Cd253 O257 2.439 . S
Cd253 O263 2.240 . S
Cd254 O255 2.240 . S
Cd254 O262 2.223 . S
Cd254 O264 2.297 . S
Cd254 O265 2.439 . S
O255 Cd254 2.240 . S
O255 C260 1.279 . S
O256 Cd253 2.297 . S
O256 C258 1.247 . S
O257 Cd253 2.439 . S
O257 C258 1.208 . S
C258 O256 1.247 . S
C258 O257 1.208 . S
C259 O264 1.247 . S
C259 O265 1.208 . S
C260 O252 1.315 . S
C260 O255 1.279 . S
C261 O262 1.315 . S
C261 O263 1.279 . S
O262 Cd254 2.223 . S
O262 C261 1.315 . S
O263 Cd253 2.240 . S
O263 C261 1.279 . S
O264 Cd254 2.297 . S
O264 C259 1.247 . S
O265 Cd254 2.439 . S
O265 C259 1.208 . S
O266 Cd267 2.223 . S
O266 C274 1.315 . S
Cd267 O266 2.223 . S
Cd267 O270 2.297 . S
Cd267 O271 2.439 . S
Cd267 O277 2.240 . S
Cd268 O269 2.240 . S
Cd268 O276 2.223 . S
Cd268 O278 2.297 . S
Cd268 O279 2.439 . S
O269 Cd268 2.240 . S
O269 C274 1.279 . S
O270 Cd267 2.297 . S
O270 C272 1.247 . S
O271 Cd267 2.439 . S
O271 C272 1.208 . S
C272 O270 1.247 . S
C272 O271 1.208 . S
C273 O278 1.247 . S
C273 O279 1.208 . S
C274 O266 1.315 . S
C274 O269 1.279 . S
C275 O276 1.315 . S
C275 O277 1.279 . S
O276 Cd268 2.223 . S
O276 C275 1.315 . S
O277 Cd267 2.240 . S
O277 C275 1.279 . S
O278 Cd268 2.297 . S
O278 C273 1.247 . S
O279 Cd268 2.439 . S
O279 C273 1.208 . S
O280 Cd281 2.223 . S
O280 C288 1.315 . S
Cd281 O280 2.223 . S
Cd281 O284 2.297 . S
Cd281 O285 2.439 . S
Cd281 O291 2.240 . S
Cd282 O283 2.240 . S
Cd282 O290 2.223 . S
Cd282 O292 2.297 . S
Cd282 O293 2.439 . S
O283 Cd282 2.240 . S
O283 C288 1.279 . S
O284 Cd281 2.297 . S
O284 C286 1.247 . S
O285 Cd281 2.439 . S
O285 C286 1.208 . S
C286 O284 1.247 . S
C286 O285 1.208 . S
C287 O292 1.247 . S
C287 O293 1.208 . S
C288 O280 1.315 . S
C288 O283 1.279 . S
C289 O290 1.315 . S
C289 O291 1.279 . S
O290 Cd282 2.223 . S
O290 C289 1.315 . S
O291 Cd281 2.240 . S
O291 C289 1.279 . S
O292 Cd282 2.297 . S
O292 C287 1.247 . S
O293 Cd282 2.439 . S
O293 C287 1.208 . S
O294 Cd295 2.223 . S
O294 C302 1.315 1_556 S
Cd295 O294 2.223 . S
Cd295 O298 2.297 1_556 S
Cd295 O299 2.439 . S
Cd295 O305 2.240 . S
Cd296 O297 2.240 1_556 S
Cd296 O304 2.223 . S
Cd296 O306 2.297 . S
Cd296 O307 2.439 . S
O297 Cd296 2.240 1_554 S
O297 C302 1.279 . S
O298 Cd295 2.297 1_554 S
O298 C300 1.247 . S
O299 Cd295 2.439 . S
O299 C300 1.208 1_556 S
C300 O298 1.247 . S
C300 O299 1.208 1_554 S
C301 O306 1.247 . S
C301 O307 1.208 . S
C302 O294 1.315 1_554 S
C302 O297 1.279 . S
C303 O304 1.315 . S
C303 O305 1.279 . S
O304 Cd296 2.223 . S
O304 C303 1.315 . S
O305 Cd295 2.240 . S
O305 C303 1.279 . S
O306 Cd296 2.297 . S
O306 C301 1.247 . S
O307 Cd296 2.439 . S
O307 C301 1.208 . S
O308 Cd309 2.223 . S
O308 C316 1.315 . S
Cd309 O308 2.223 . S
Cd309 O312 2.297 . S
Cd309 O313 2.439 . S
Cd309 O319 2.240 . S
Cd310 O311 2.240 . S
Cd310 O318 2.223 . S
Cd310 O320 2.297 . S
Cd310 O321 2.439 . S
O311 Cd310 2.240 . S
O311 C316 1.279 . S
O312 Cd309 2.297 . S
O312 C314 1.247 . S
O313 Cd309 2.439 . S
O313 C314 1.208 . S
C314 O312 1.247 . S
C314 O313 1.208 . S
C315 O320 1.247 . S
C315 O321 1.208 . S
C316 O308 1.315 . S
C316 O311 1.279 . S
C317 O318 1.315 . S
C317 O319 1.279 . S
O318 Cd310 2.223 . S
O318 C317 1.315 . S
O319 Cd309 2.240 . S
O319 C317 1.279 . S
O320 Cd310 2.297 . S
O320 C315 1.247 . S
O321 Cd310 2.439 . S
O321 C315 1.208 . S
O322 Cd323 2.223 . S
O322 C330 1.315 . S
Cd323 O322 2.223 . S
Cd323 O326 2.297 . S
Cd323 O327 2.439 . S
Cd323 O333 2.240 . S
Cd324 O325 2.240 . S
Cd324 O332 2.223 . S
Cd324 O334 2.297 . S
Cd324 O335 2.439 . S
O325 Cd324 2.240 . S
O325 C330 1.279 . S
O326 Cd323 2.297 . S
O326 C328 1.247 . S
O327 Cd323 2.439 . S
O327 C328 1.208 . S
C328 O326 1.247 . S
C328 O327 1.208 . S
C329 O334 1.247 . S
C329 O335 1.208 . S
C330 O322 1.315 . S
C330 O325 1.279 . S
C331 O332 1.315 . S
C331 O333 1.279 . S
O332 Cd324 2.223 . S
O332 C331 1.315 . S
O333 Cd323 2.240 . S
O333 C331 1.279 . S
O334 Cd324 2.297 . S
O334 C329 1.247 . S
O335 Cd324 2.439 . S
O335 C329 1.208 . S
O336 Cd337 2.223 . S
O336 C344 1.315 . S
Cd337 O336 2.223 . S
Cd337 O340 2.297 . S
Cd337 O341 2.439 . S
Cd337 O347 2.240 . S
Cd338 O339 2.240 . S
Cd338 O346 2.223 . S
Cd338 O348 2.297 . S
Cd338 O349 2.439 . S
O339 Cd338 2.240 . S
O339 C344 1.279 . S
O340 Cd337 2.297 . S
O340 C342 1.247 . S
O341 Cd337 2.439 . S
O341 C342 1.208 . S
C342 O340 1.247 . S
C342 O341 1.208 . S
C343 O348 1.247 . S
C343 O349 1.208 . S
C344 O336 1.315 . S
C344 O339 1.279 . S
C345 O346 1.315 . S
C345 O347 1.279 . S
O346 Cd338 2.223 . S
O346 C345 1.315 . S
O347 Cd337 2.240 . S
O347 C345 1.279 . S
O348 Cd338 2.297 . S
O348 C343 1.247 . S
O349 Cd338 2.439 . S
O349 C343 1.208 . S
O350 Cd351 2.223 . S
O350 C358 1.315 1_556 S
Cd351 O350 2.223 . S
Cd351 O354 2.297 1_556 S
Cd351 O355 2.439 . S
Cd351 O361 2.240 . S
Cd352 O353 2.240 1_556 S
Cd352 O360 2.223 . S
Cd352 O362 2.297 . S
Cd352 O363 2.439 . S
O353 Cd352 2.240 1_554 S
O353 C358 1.279 . S
O354 Cd351 2.297 1_554 S
O354 C356 1.247 . S
O355 Cd351 2.439 . S
O355 C356 1.208 1_556 S
C356 O354 1.247 . S
C356 O355 1.208 1_554 S
C357 O362 1.247 . S
C357 O363 1.208 . S
C358 O350 1.315 1_554 S
C358 O353 1.279 . S
C359 O360 1.315 . S
C359 O361 1.279 . S
O360 Cd352 2.223 . S
O360 C359 1.315 . S
O361 Cd351 2.240 . S
O361 C359 1.279 . S
O362 Cd352 2.297 . S
O362 C357 1.247 . S
O363 Cd352 2.439 . S
O363 C357 1.208 . S
O364 Cd365 2.223 . S
O364 C372 1.315 . S
Cd365 O364 2.223 . S
Cd365 O368 2.297 . S
Cd365 O369 2.439 . S
Cd365 O375 2.240 . S
Cd366 O367 2.240 . S
Cd366 O374 2.223 . S
Cd366 O376 2.297 . S
Cd366 O377 2.439 . S
O367 Cd366 2.240 . S
O367 C372 1.279 . S
O368 Cd365 2.297 . S
O368 C370 1.247 . S
O369 Cd365 2.439 . S
O369 C370 1.208 . S
C370 O368 1.247 . S
C370 O369 1.208 . S
C371 O376 1.247 . S
C371 O377 1.208 . S
C372 O364 1.315 . S
C372 O367 1.279 . S
C373 O374 1.315 . S
C373 O375 1.279 . S
O374 Cd366 2.223 . S
O374 C373 1.315 . S
O375 Cd365 2.240 . S
O375 C373 1.279 . S
O376 Cd366 2.297 . S
O376 C371 1.247 . S
O377 Cd366 2.439 . S
O377 C371 1.208 . S
O378 Cd379 2.223 . S
O378 C386 1.315 . S
Cd379 O378 2.223 . S
Cd379 O382 2.297 . S
Cd379 O383 2.439 . S
Cd379 O389 2.240 . S
Cd380 O381 2.240 . S
Cd380 O388 2.223 . S
Cd380 O390 2.297 . S
Cd380 O391 2.439 . S
O381 Cd380 2.240 . S
O381 C386 1.279 . S
O382 Cd379 2.297 . S
O382 C384 1.247 . S
O383 Cd379 2.439 . S
O383 C384 1.208 . S
C384 O382 1.247 . S
C384 O383 1.208 . S
C385 O390 1.247 . S
C385 O391 1.208 . S
C386 O378 1.315 . S
C386 O381 1.279 . S
C387 O388 1.315 . S
C387 O389 1.279 . S
O388 Cd380 2.223 . S
O388 C387 1.315 . S
O389 Cd379 2.240 . S
O389 C387 1.279 . S
O390 Cd380 2.297 . S
O390 C385 1.247 . S
O391 Cd380 2.439 . S
O391 C385 1.208 . S
O392 Cd393 2.223 . S
O392 C400 1.315 . S
Cd393 O392 2.223 . S
Cd393 O396 2.297 . S
Cd393 O397 2.439 . S
Cd393 O403 2.240 . S
Cd394 O395 2.240 . S
Cd394 O402 2.223 . S
Cd394 O404 2.297 . S
Cd394 O405 2.439 . S
O395 Cd394 2.240 . S
O395 C400 1.279 . S
O396 Cd393 2.297 . S
O396 C398 1.247 . S
O397 Cd393 2.439 . S
O397 C398 1.208 . S
C398 O396 1.247 . S
C398 O397 1.208 . S
C399 O404 1.247 . S
C399 O405 1.208 . S
C400 O392 1.315 . S
C400 O395 1.279 . S
C401 O402 1.315 . S
C401 O403 1.279 . S
O402 Cd394 2.223 . S
O402 C401 1.315 . S
O403 Cd393 2.240 . S
O403 C401 1.279 . S
O404 Cd394 2.297 . S
O404 C399 1.247 . S
O405 Cd394 2.439 . S
O405 C399 1.208 . S
O406 Cd407 2.223 . S
O406 C414 1.315 1_554 S
Cd407 O406 2.223 . S
Cd407 O410 2.297 1_554 S
Cd407 O411 2.439 . S
Cd407 O417 2.240 . S
Cd408 O409 2.240 1_554 S
Cd408 O416 2.223 . S
Cd408 O418 2.297 . S
Cd408 O419 2.439 . S
O409 Cd408 2.240 1_556 S
O409 C414 1.279 . S
O410 Cd407 2.297 1_556 S
O410 C412 1.247 . S
O411 Cd407 2.439 . S
O411 C412 1.208 1_554 S
C412 O410 1.247 . S
C412 O411 1.208 1_556 S
C413 O418 1.247 . S
C413 O419 1.208 . S
C414 O406 1.315 1_556 S
C414 O409 1.279 . S
C415 O416 1.315 . S
C415 O417 1.279 . S
O416 Cd408 2.223 . S
O416 C415 1.315 . S
O417 Cd407 2.240 . S
O417 C415 1.279 . S
O418 Cd408 2.297 . S
O418 C413 1.247 . S
O419 Cd408 2.439 . S
O419 C413 1.208 . S
O420 Cd421 2.223 . S
O420 C428 1.315 . S
Cd421 O420 2.223 . S
Cd421 O424 2.297 . S
Cd421 O425 2.439 . S
Cd421 O431 2.240 . S
Cd422 O423 2.240 . S
Cd422 O430 2.223 . S
Cd422 O432 2.297 . S
Cd422 O433 2.439 . S
O423 Cd422 2.240 . S
O423 C428 1.279 . S
O424 Cd421 2.297 . S
O424 C426 1.247 . S
O425 Cd421 2.439 . S
O425 C426 1.208 . S
C426 O424 1.247 . S
C426 O425 1.208 . S
C427 O432 1.247 . S
C427 O433 1.208 . S
C428 O420 1.315 . S
C428 O423 1.279 . S
C429 O430 1.315 . S
C429 O431 1.279 . S
O430 Cd422 2.223 . S
O430 C429 1.315 . S
O431 Cd421 2.240 . S
O431 C429 1.279 . S
O432 Cd422 2.297 . S
O432 C427 1.247 . S
O433 Cd422 2.439 . S
O433 C427 1.208 . S
O434 Cd435 2.223 . S
O434 C442 1.315 . S
Cd435 O434 2.223 . S
Cd435 O438 2.297 . S
Cd435 O439 2.439 . S
Cd435 O445 2.240 . S
Cd436 O437 2.240 . S
Cd436 O444 2.223 . S
Cd436 O446 2.297 . S
Cd436 O447 2.439 . S
O437 Cd436 2.240 . S
O437 C442 1.279 . S
O438 Cd435 2.297 . S
O438 C440 1.247 . S
O439 Cd435 2.439 . S
O439 C440 1.208 . S
C440 O438 1.247 . S
C440 O439 1.208 . S
C441 O446 1.247 . S
C441 O447 1.208 . S
C442 O434 1.315 . S
C442 O437 1.279 . S
C443 O444 1.315 . S
C443 O445 1.279 . S
O444 Cd436 2.223 . S
O444 C443 1.315 . S
O445 Cd435 2.240 . S
O445 C443 1.279 . S
O446 Cd436 2.297 . S
O446 C441 1.247 . S
O447 Cd436 2.439 . S
O447 C441 1.208 . S
C448 C449 1.369 . S
C448 C450 1.419 . S
C448 H452 0.930 . S
C449 C448 1.369 . S
C449 C458 1.429 . S
C450 C448 1.419 . S
C450 C451 1.363 . S
C450 H453 0.929 . S
C451 C450 1.363 . S
C451 C457 1.428 . S
H452 C448 0.930 . S
H453 C450 0.929 . S
S454 N455 1.613 . S
S454 N456 1.610 . S
N455 S454 1.613 . S
N455 C458 1.350 . S
N456 S454 1.610 . S
N456 C457 1.351 . S
C457 C451 1.428 . S
C457 N456 1.351 . S
C457 C458 1.434 . S
C458 C449 1.429 . S
C458 N455 1.350 . S
C458 C457 1.434 . S
C459 C460 1.369 . S
C459 C461 1.419 1_565 S
C459 H463 0.930 . S
C460 C459 1.369 . S
C460 C469 1.429 . S
C461 C459 1.419 1_545 S
C461 C462 1.363 . S
C461 H464 0.929 . S
C462 C461 1.363 . S
C462 C468 1.428 . S
H463 C459 0.930 . S
H464 C461 0.929 . S
S465 N466 1.613 1_545 S
S465 N467 1.610 . S
N466 S465 1.613 1_565 S
N466 C469 1.350 . S
N467 S465 1.610 . S
N467 C468 1.351 . S
C468 C462 1.428 . S
C468 N467 1.351 . S
C468 C469 1.434 1_545 S
C469 C460 1.429 . S
C469 N466 1.350 . S
C469 C468 1.434 1_565 S
C470 C471 1.369 . S
C470 C472 1.419 . S
C470 H474 0.930 . S
C471 C470 1.369 . S
C471 C480 1.429 1_554 S
C472 C470 1.419 . S
C472 C473 1.363 1_554 S
C472 H475 0.929 . S
C473 C472 1.363 1_556 S
C473 C479 1.428 . S
H474 C470 0.930 . S
H475 C472 0.929 . S
S476 N477 1.613 . S
S476 N478 1.610 . S
N477 S476 1.613 . S
N477 C480 1.350 . S
N478 S476 1.610 . S
N478 C479 1.351 . S
C479 C473 1.428 . S
C479 N478 1.351 . S
C479 C480 1.434 . S
C480 C471 1.429 1_556 S
C480 N477 1.350 . S
C480 C479 1.434 . S
C481 C482 1.369 . S
C481 C483 1.419 1_545 S
C481 H485 0.930 . S
C482 C481 1.369 . S
C482 C491 1.429 . S
C483 C481 1.419 1_565 S
C483 C484 1.363 . S
C483 H486 0.929 . S
C484 C483 1.363 . S
C484 C490 1.428 . S
H485 C481 0.930 . S
H486 C483 0.929 . S
S487 N488 1.613 . S
S487 N489 1.610 1_545 S
N488 S487 1.613 . S
N488 C491 1.350 . S
N489 S487 1.610 1_565 S
N489 C490 1.351 . S
C490 C484 1.428 . S
C490 N489 1.351 . S
C490 C491 1.434 1_565 S
C491 C482 1.429 . S
C491 N488 1.350 . S
C491 C490 1.434 1_545 S
C492 C493 1.369 . S
C492 C494 1.419 . S
C492 H496 0.930 . S
C493 C492 1.369 . S
C493 C502 1.429 . S
C494 C492 1.419 . S
C494 C495 1.363 . S
C494 H497 0.929 . S
C495 C494 1.363 . S
C495 C501 1.428 . S
H496 C492 0.930 . S
H497 C494 0.929 . S
S498 N499 1.613 . S
S498 N500 1.610 . S
N499 S498 1.613 . S
N499 C502 1.350 . S
N500 S498 1.610 . S
N500 C501 1.351 . S
C501 C495 1.428 . S
C501 N500 1.351 . S
C501 C502 1.434 . S
C502 C493 1.429 . S
C502 N499 1.350 . S
C502 C501 1.434 . S
C503 C504 1.369 . S
C503 C505 1.419 1_545 S
C503 H507 0.930 . S
C504 C503 1.369 . S
C504 C513 1.429 . S
C505 C503 1.419 1_565 S
C505 C506 1.363 . S
C505 H508 0.929 . S
C506 C505 1.363 . S
C506 C512 1.428 . S
H507 C503 0.930 . S
H508 C505 0.929 . S
S509 N510 1.613 . S
S509 N511 1.610 1_545 S
N510 S509 1.613 . S
N510 C513 1.350 . S
N511 S509 1.610 1_565 S
N511 C512 1.351 . S
C512 C506 1.428 . S
C512 N511 1.351 . S
C512 C513 1.434 1_565 S
C513 C504 1.429 . S
C513 N510 1.350 . S
C513 C512 1.434 1_545 S
C514 C515 1.369 1_554 S
C514 C516 1.419 . S
C514 H518 0.930 . S
C515 C514 1.369 1_556 S
C515 C524 1.429 . S
C516 C514 1.419 . S
C516 C517 1.363 . S
C516 H519 0.929 . S
C517 C516 1.363 . S
C517 C523 1.428 1_554 S
H518 C514 0.930 . S
H519 C516 0.929 . S
S520 N521 1.613 . S
S520 N522 1.610 . S
N521 S520 1.613 . S
N521 C524 1.350 . S
N522 S520 1.610 . S
N522 C523 1.351 . S
C523 C517 1.428 1_556 S
C523 N522 1.351 . S
C523 C524 1.434 . S
C524 C515 1.429 . S
C524 N521 1.350 . S
C524 C523 1.434 . S
C525 C526 1.369 . S
C525 C527 1.419 1_565 S
C525 H529 0.930 . S
C526 C525 1.369 . S
C526 C535 1.429 . S
C527 C525 1.419 1_545 S
C527 C528 1.363 . S
C527 H530 0.929 . S
C528 C527 1.363 . S
C528 C534 1.428 . S
H529 C525 0.930 . S
H530 C527 0.929 . S
S531 N532 1.613 1_545 S
S531 N533 1.610 . S
N532 S531 1.613 1_565 S
N532 C535 1.350 . S
N533 S531 1.610 . S
N533 C534 1.351 . S
C534 C528 1.428 . S
C534 N533 1.351 . S
C534 C535 1.434 1_545 S
C535 C526 1.429 . S
C535 N532 1.350 . S
C535 C534 1.434 1_565 S
C536 C537 1.369 . S
C536 C538 1.419 . S
C536 H540 0.930 . S
C537 C536 1.369 . S
C537 C546 1.429 1_556 S
C538 C536 1.419 . S
C538 C539 1.363 1_556 S
C538 H541 0.929 . S
C539 C538 1.363 1_554 S
C539 C545 1.428 . S
H540 C536 0.930 . S
H541 C538 0.929 . S
S542 N543 1.613 . S
S542 N544 1.610 . S
N543 S542 1.613 . S
N543 C546 1.350 . S
N544 S542 1.610 . S
N544 C545 1.351 . S
C545 C539 1.428 . S
C545 N544 1.351 . S
C545 C546 1.434 . S
C546 C537 1.429 1_554 S
C546 N543 1.350 . S
C546 C545 1.434 . S
C547 C548 1.369 . S
C547 C549 1.419 . S
C547 H551 0.930 . S
C548 C547 1.369 . S
C548 C557 1.429 . S
C549 C547 1.419 . S
C549 C550 1.363 . S
C549 H552 0.929 . S
C550 C549 1.363 . S
C550 C556 1.428 . S
H551 C547 0.930 . S
H552 C549 0.929 . S
S553 N554 1.613 . S
S553 N555 1.610 . S
N554 S553 1.613 . S
N554 C557 1.350 . S
N555 S553 1.610 . S
N555 C556 1.351 . S
C556 C550 1.428 . S
C556 N555 1.351 . S
C556 C557 1.434 . S
C557 C548 1.429 . S
C557 N554 1.350 . S
C557 C556 1.434 . S
C558 C559 1.369 . S
C558 C560 1.419 . S
C558 H562 0.930 . S
C559 C558 1.369 . S
C559 C568 1.429 . S
C560 C558 1.419 . S
C560 C561 1.363 . S
C560 H563 0.929 . S
C561 C560 1.363 . S
C561 C567 1.428 . S
H562 C558 0.930 . S
H563 C560 0.929 . S
S564 N565 1.613 . S
S564 N566 1.610 . S
N565 S564 1.613 . S
N565 C568 1.350 . S
N566 S564 1.610 . S
N566 C567 1.351 . S
C567 C561 1.428 . S
C567 N566 1.351 . S
C567 C568 1.434 . S
C568 C559 1.429 . S
C568 N565 1.350 . S
C568 C567 1.434 . S
C569 C570 1.369 . S
C569 C571 1.419 . S
C569 H573 0.930 . S
C570 C569 1.369 . S
C570 C579 1.429 . S
C571 C569 1.419 . S
C571 C572 1.363 . S
C571 H574 0.929 . S
C572 C571 1.363 . S
C572 C578 1.428 . S
H573 C569 0.930 . S
H574 C571 0.929 . S
S575 N576 1.613 . S
S575 N577 1.610 . S
N576 S575 1.613 . S
N576 C579 1.350 . S
N577 S575 1.610 . S
N577 C578 1.351 . S
C578 C572 1.428 . S
C578 N577 1.351 . S
C578 C579 1.434 . S
C579 C570 1.429 . S
C579 N576 1.350 . S
C579 C578 1.434 . S
C580 C581 1.369 1_554 S
C580 C582 1.419 . S
C580 H584 0.930 . S
C581 C580 1.369 1_556 S
C581 C590 1.429 . S
C582 C580 1.419 . S
C582 C583 1.363 . S
C582 H585 0.929 . S
C583 C582 1.363 . S
C583 C589 1.428 1_554 S
H584 C580 0.930 . S
H585 C582 0.929 . S
S586 N587 1.613 . S
S586 N588 1.610 . S
N587 S586 1.613 . S
N587 C590 1.350 . S
N588 S586 1.610 . S
N588 C589 1.351 . S
C589 C583 1.428 1_556 S
C589 N588 1.351 . S
C589 C590 1.434 . S
C590 C581 1.429 . S
C590 N587 1.350 . S
C590 C589 1.434 . S
C591 C592 1.369 . S
C591 C593 1.419 . S
C591 H595 0.930 . S
C592 C591 1.369 . S
C592 C601 1.429 . S
C593 C591 1.419 . S
C593 C594 1.363 . S
C593 H596 0.929 . S
C594 C593 1.363 . S
C594 C600 1.428 . S
H595 C591 0.930 . S
H596 C593 0.929 . S
S597 N598 1.613 . S
S597 N599 1.610 . S
N598 S597 1.613 . S
N598 C601 1.350 . S
N599 S597 1.610 . S
N599 C600 1.351 . S
C600 C594 1.428 . S
C600 N599 1.351 . S
C600 C601 1.434 . S
C601 C592 1.429 . S
C601 N598 1.350 . S
C601 C600 1.434 . S
C602 C603 1.369 . S
C602 C604 1.419 . S
C602 H606 0.930 . S
C603 C602 1.369 . S
C603 C612 1.429 . S
C604 C602 1.419 . S
C604 C605 1.363 . S
C604 H607 0.929 . S
C605 C604 1.363 . S
C605 C611 1.428 . S
H606 C602 0.930 . S
H607 C604 0.929 . S
S608 N609 1.613 . S
S608 N610 1.610 . S
N609 S608 1.613 . S
N609 C612 1.350 . S
N610 S608 1.610 . S
N610 C611 1.351 . S
C611 C605 1.428 . S
C611 N610 1.351 . S
C611 C612 1.434 . S
C612 C603 1.429 . S
C612 N609 1.350 . S
C612 C611 1.434 . S
C613 C614 1.369 . S
C613 C615 1.419 . S
C613 H617 0.930 . S
C614 C613 1.369 . S
C614 C623 1.429 . S
C615 C613 1.419 . S
C615 C616 1.363 . S
C615 H618 0.929 . S
C616 C615 1.363 . S
C616 C622 1.428 . S
H617 C613 0.930 . S
H618 C615 0.929 . S
S619 N620 1.613 . S
S619 N621 1.610 . S
N620 S619 1.613 . S
N620 C623 1.350 . S
N621 S619 1.610 . S
N621 C622 1.351 . S
C622 C616 1.428 . S
C622 N621 1.351 . S
C622 C623 1.434 . S
C623 C614 1.429 . S
C623 N620 1.350 . S
C623 C622 1.434 . S
C624 C625 1.369 . S
C624 C626 1.419 . S
C624 H628 0.930 . S
C625 C624 1.369 . S
C625 C634 1.429 . S
C626 C624 1.419 . S
C626 C627 1.363 . S
C626 H629 0.929 . S
C627 C626 1.363 . S
C627 C633 1.428 . S
H628 C624 0.930 . S
H629 C626 0.929 . S
S630 N631 1.613 . S
S630 N632 1.610 . S
N631 S630 1.613 . S
N631 C634 1.350 . S
N632 S630 1.610 . S
N632 C633 1.351 . S
C633 C627 1.428 . S
C633 N632 1.351 . S
C633 C634 1.434 . S
C634 C625 1.429 . S
C634 N631 1.350 . S
C634 C633 1.434 . S
C635 C636 1.369 . S
C635 C637 1.419 . S
C635 H639 0.930 . S
C636 C635 1.369 . S
C636 C645 1.429 . S
C637 C635 1.419 . S
C637 C638 1.363 . S
C637 H640 0.929 . S
C638 C637 1.363 . S
C638 C644 1.428 . S
H639 C635 0.930 . S
H640 C637 0.929 . S
S641 N642 1.613 . S
S641 N643 1.610 . S
N642 S641 1.613 . S
N642 C645 1.350 . S
N643 S641 1.610 . S
N643 C644 1.351 . S
C644 C638 1.428 . S
C644 N643 1.351 . S
C644 C645 1.434 . S
C645 C636 1.429 . S
C645 N642 1.350 . S
C645 C644 1.434 . S
C646 C647 1.369 . S
C646 C648 1.419 . S
C646 H650 0.930 . S
C647 C646 1.369 . S
C647 C656 1.429 . S
C648 C646 1.419 . S
C648 C649 1.363 . S
C648 H651 0.929 . S
C649 C648 1.363 . S
C649 C655 1.428 . S
H650 C646 0.930 . S
H651 C648 0.929 . S
S652 N653 1.613 . S
S652 N654 1.610 . S
N653 S652 1.613 . S
N653 C656 1.350 . S
N654 S652 1.610 . S
N654 C655 1.351 . S
C655 C649 1.428 . S
C655 N654 1.351 . S
C655 C656 1.434 . S
C656 C647 1.429 . S
C656 N653 1.350 . S
C656 C655 1.434 . S
C657 C658 1.369 . S
C657 C659 1.419 . S
C657 H661 0.930 . S
C658 C657 1.369 . S
C658 C667 1.429 . S
C659 C657 1.419 . S
C659 C660 1.363 . S
C659 H662 0.929 . S
C660 C659 1.363 . S
C660 C666 1.428 . S
H661 C657 0.930 . S
H662 C659 0.929 . S
S663 N664 1.613 . S
S663 N665 1.610 . S
N664 S663 1.613 . S
N664 C667 1.350 . S
N665 S663 1.610 . S
N665 C666 1.351 . S
C666 C660 1.428 . S
C666 N665 1.351 . S
C666 C667 1.434 . S
C667 C658 1.429 . S
C667 N664 1.350 . S
C667 C666 1.434 . S
C668 C669 1.369 . S
C668 C670 1.419 . S
C668 H672 0.930 . S
C669 C668 1.369 . S
C669 C678 1.429 . S
C670 C668 1.419 . S
C670 C671 1.363 . S
C670 H673 0.929 . S
C671 C670 1.363 . S
C671 C677 1.428 . S
H672 C668 0.930 . S
H673 C670 0.929 . S
S674 N675 1.613 . S
S674 N676 1.610 . S
N675 S674 1.613 . S
N675 C678 1.350 . S
N676 S674 1.610 . S
N676 C677 1.351 . S
C677 C671 1.428 . S
C677 N676 1.351 . S
C677 C678 1.434 . S
C678 C669 1.429 . S
C678 N675 1.350 . S
C678 C677 1.434 . S
C679 C680 1.369 . S
C679 C681 1.419 . S
C679 H683 0.930 . S
C680 C679 1.369 . S
C680 C689 1.429 . S
C681 C679 1.419 . S
C681 C682 1.363 . S
C681 H684 0.929 . S
C682 C681 1.363 . S
C682 C688 1.428 . S
H683 C679 0.930 . S
H684 C681 0.929 . S
S685 N686 1.613 . S
S685 N687 1.610 . S
N686 S685 1.613 . S
N686 C689 1.350 . S
N687 S685 1.610 . S
N687 C688 1.351 . S
C688 C682 1.428 . S
C688 N687 1.351 . S
C688 C689 1.434 . S
C689 C680 1.429 . S
C689 N686 1.350 . S
C689 C688 1.434 . S
C690 C691 1.369 . S
C690 C692 1.419 . S
C690 H694 0.930 . S
C691 C690 1.369 . S
C691 C700 1.429 . S
C692 C690 1.419 . S
C692 C693 1.363 . S
C692 H695 0.929 . S
C693 C692 1.363 . S
C693 C699 1.428 . S
H694 C690 0.930 . S
H695 C692 0.929 . S
S696 N697 1.613 . S
S696 N698 1.610 . S
N697 S696 1.613 . S
N697 C700 1.350 . S
N698 S696 1.610 . S
N698 C699 1.351 . S
C699 C693 1.428 . S
C699 N698 1.351 . S
C699 C700 1.434 . S
C700 C691 1.429 . S
C700 N697 1.350 . S
C700 C699 1.434 . S
C701 C702 1.369 . S
C701 C703 1.419 . S
C701 H705 0.930 . S
C702 C701 1.369 . S
C702 C711 1.429 . S
C703 C701 1.419 . S
C703 C704 1.363 . S
C703 H706 0.929 . S
C704 C703 1.363 . S
C704 C710 1.428 . S
H705 C701 0.930 . S
H706 C703 0.929 . S
S707 N708 1.613 . S
S707 N709 1.610 1_556 S
N708 S707 1.613 . S
N708 C711 1.350 1_556 S
N709 S707 1.610 1_554 S
N709 C710 1.351 . S
C710 C704 1.428 . S
C710 N709 1.351 . S
C710 C711 1.434 . S
C711 C702 1.429 . S
C711 N708 1.350 1_554 S
C711 C710 1.434 . S
C712 C713 1.369 . S
C712 C714 1.419 . S
C712 H716 0.930 . S
C713 C712 1.369 . S
C713 C722 1.429 . S
C714 C712 1.419 . S
C714 C715 1.363 . S
C714 H717 0.929 . S
C715 C714 1.363 . S
C715 C721 1.428 . S
H716 C712 0.930 . S
H717 C714 0.929 . S
S718 N719 1.613 . S
S718 N720 1.610 . S
N719 S718 1.613 . S
N719 C722 1.350 . S
N720 S718 1.610 . S
N720 C721 1.351 . S
C721 C715 1.428 . S
C721 N720 1.351 . S
C721 C722 1.434 . S
C722 C713 1.429 . S
C722 N719 1.350 . S
C722 C721 1.434 . S
C723 C724 1.369 . S
C723 C725 1.419 . S
C723 H727 0.930 1_556 S
C724 C723 1.369 . S
C724 C733 1.429 . S
C725 C723 1.419 . S
C725 C726 1.363 . S
C725 H728 0.929 . S
C726 C725 1.363 . S
C726 C732 1.428 . S
H727 C723 0.930 1_554 S
H728 C725 0.929 . S
S729 N730 1.613 . S
S729 N731 1.610 . S
N730 S729 1.613 . S
N730 C733 1.350 . S
N731 S729 1.610 . S
N731 C732 1.351 . S
C732 C726 1.428 . S
C732 N731 1.351 . S
C732 C733 1.434 . S
C733 C724 1.429 . S
C733 N730 1.350 . S
C733 C732 1.434 . S
C734 C735 1.369 . S
C734 C736 1.419 . S
C734 H738 0.930 . S
C735 C734 1.369 . S
C735 C744 1.429 . S
C736 C734 1.419 . S
C736 C737 1.363 . S
C736 H739 0.929 1_554 S
C737 C736 1.363 . S
C737 C743 1.428 . S
H738 C734 0.930 . S
H739 C736 0.929 1_556 S
S740 N741 1.613 . S
S740 N742 1.610 . S
N741 S740 1.613 . S
N741 C744 1.350 . S
N742 S740 1.610 . S
N742 C743 1.351 . S
C743 C737 1.428 . S
C743 N742 1.351 . S
C743 C744 1.434 . S
C744 C735 1.429 . S
C744 N741 1.350 . S
C744 C743 1.434 . S
C745 C746 1.369 . S
C745 C747 1.419 . S
C745 H749 0.930 . S
C746 C745 1.369 . S
C746 C755 1.429 . S
C747 C745 1.419 . S
C747 C748 1.363 . S
C747 H750 0.929 . S
C748 C747 1.363 . S
C748 C754 1.428 . S
H749 C745 0.930 . S
H750 C747 0.929 . S
S751 N752 1.613 . S
S751 N753 1.610 . S
N752 S751 1.613 . S
N752 C755 1.350 . S
N753 S751 1.610 . S
N753 C754 1.351 . S
C754 C748 1.428 . S
C754 N753 1.351 . S
C754 C755 1.434 . S
C755 C746 1.429 . S
C755 N752 1.350 . S
C755 C754 1.434 . S
C756 C757 1.369 . S
C756 C758 1.419 . S
C756 H760 0.930 . S
C757 C756 1.369 . S
C757 C766 1.429 . S
C758 C756 1.419 . S
C758 C759 1.363 . S
C758 H761 0.929 . S
C759 C758 1.363 . S
C759 C765 1.428 . S
H760 C756 0.930 . S
H761 C758 0.929 . S
S762 N763 1.613 . S
S762 N764 1.610 . S
N763 S762 1.613 . S
N763 C766 1.350 . S
N764 S762 1.610 . S
N764 C765 1.351 . S
C765 C759 1.428 . S
C765 N764 1.351 . S
C765 C766 1.434 . S
C766 C757 1.429 . S
C766 N763 1.350 . S
C766 C765 1.434 . S
C767 C768 1.369 . S
C767 C769 1.419 . S
C767 H771 0.930 . S
C768 C767 1.369 . S
C768 C777 1.429 . S
C769 C767 1.419 . S
C769 C770 1.363 . S
C769 H772 0.929 . S
C770 C769 1.363 . S
C770 C776 1.428 . S
H771 C767 0.930 . S
H772 C769 0.929 . S
S773 N774 1.613 . S
S773 N775 1.610 1_556 S
N774 S773 1.613 . S
N774 C777 1.350 1_556 S
N775 S773 1.610 1_554 S
N775 C776 1.351 . S
C776 C770 1.428 . S
C776 N775 1.351 . S
C776 C777 1.434 . S
C777 C768 1.429 . S
C777 N774 1.350 1_554 S
C777 C776 1.434 . S
C778 C779 1.369 . S
C778 C780 1.419 . S
C778 H782 0.930 . S
C779 C778 1.369 . S
C779 C788 1.429 . S
C780 C778 1.419 . S
C780 C781 1.363 . S
C780 H783 0.929 . S
C781 C780 1.363 . S
C781 C787 1.428 . S
H782 C778 0.930 . S
H783 C780 0.929 . S
S784 N785 1.613 . S
S784 N786 1.610 . S
N785 S784 1.613 . S
N785 C788 1.350 . S
N786 S784 1.610 . S
N786 C787 1.351 . S
C787 C781 1.428 . S
C787 N786 1.351 . S
C787 C788 1.434 . S
C788 C779 1.429 . S
C788 N785 1.350 . S
C788 C787 1.434 . S
C789 C790 1.369 . S
C789 C791 1.419 . S
C789 H793 0.930 . S
C790 C789 1.369 . S
C790 C799 1.429 . S
C791 C789 1.419 . S
C791 C792 1.363 . S
C791 H794 0.929 . S
C792 C791 1.363 . S
C792 C798 1.428 . S
H793 C789 0.930 . S
H794 C791 0.929 . S
S795 N796 1.613 . S
S795 N797 1.610 . S
N796 S795 1.613 . S
N796 C799 1.350 . S
N797 S795 1.610 . S
N797 C798 1.351 . S
C798 C792 1.428 . S
C798 N797 1.351 . S
C798 C799 1.434 . S
C799 C790 1.429 . S
C799 N796 1.350 . S
C799 C798 1.434 . S
C800 C801 1.369 . S
C800 C802 1.419 . S
C800 H804 0.930 . S
C801 C800 1.369 . S
C801 C810 1.429 . S
C802 C800 1.419 . S
C802 C803 1.363 . S
C802 H805 0.929 1_554 S
C803 C802 1.363 . S
C803 C809 1.428 . S
H804 C800 0.930 . S
H805 C802 0.929 1_556 S
S806 N807 1.613 . S
S806 N808 1.610 . S
N807 S806 1.613 . S
N807 C810 1.350 . S
N808 S806 1.610 . S
N808 C809 1.351 . S
C809 C803 1.428 . S
C809 N808 1.351 . S
C809 C810 1.434 . S
C810 C801 1.429 . S
C810 N807 1.350 . S
C810 C809 1.434 . S
C811 C812 1.369 . S
C811 C813 1.419 1_655 S
C811 H815 0.930 . S
C812 C811 1.369 . S
C812 C821 1.429 . S
C813 C811 1.419 1_455 S
C813 C814 1.363 . S
C813 H816 0.929 . S
C814 C813 1.363 . S
C814 C820 1.428 . S
H815 C811 0.930 . S
H816 C813 0.929 . S
S817 N818 1.613 1_455 S
S817 N819 1.610 . S
N818 S817 1.613 1_655 S
N818 C821 1.350 . S
N819 S817 1.610 . S
N819 C820 1.351 . S
C820 C814 1.428 . S
C820 N819 1.351 . S
C820 C821 1.434 1_455 S
C821 C812 1.429 . S
C821 N818 1.350 . S
C821 C820 1.434 1_655 S
C822 C823 1.369 . S
C822 C824 1.419 . S
C822 H826 0.930 . S
C823 C822 1.369 . S
C823 C832 1.429 . S
C824 C822 1.419 . S
C824 C825 1.363 . S
C824 H827 0.929 . S
C825 C824 1.363 . S
C825 C831 1.428 . S
H826 C822 0.930 . S
H827 C824 0.929 . S
S828 N829 1.613 . S
S828 N830 1.610 . S
N829 S828 1.613 . S
N829 C832 1.350 . S
N830 S828 1.610 . S
N830 C831 1.351 . S
C831 C825 1.428 . S
C831 N830 1.351 . S
C831 C832 1.434 . S
C832 C823 1.429 . S
C832 N829 1.350 . S
C832 C831 1.434 . S
C833 C834 1.369 . S
C833 C835 1.419 . S
C833 H837 0.930 . S
C834 C833 1.369 . S
C834 C843 1.429 . S
C835 C833 1.419 . S
C835 C836 1.363 . S
C835 H838 0.929 . S
C836 C835 1.363 . S
C836 C842 1.428 . S
H837 C833 0.930 . S
H838 C835 0.929 . S
S839 N840 1.613 . S
S839 N841 1.610 1_556 S
N840 S839 1.613 . S
N840 C843 1.350 . S
N841 S839 1.610 1_554 S
N841 C842 1.351 1_554 S
C842 C836 1.428 . S
C842 N841 1.351 1_556 S
C842 C843 1.434 . S
C843 C834 1.429 . S
C843 N840 1.350 . S
C843 C842 1.434 . S
C844 C845 1.369 . S
C844 C846 1.419 . S
C844 H848 0.930 . S
C845 C844 1.369 . S
C845 C854 1.429 . S
C846 C844 1.419 . S
C846 C847 1.363 . S
C846 H849 0.929 . S
C847 C846 1.363 . S
C847 C853 1.428 . S
H848 C844 0.930 . S
H849 C846 0.929 . S
S850 N851 1.613 . S
S850 N852 1.610 . S
N851 S850 1.613 . S
N851 C854 1.350 . S
N852 S850 1.610 . S
N852 C853 1.351 . S
C853 C847 1.428 . S
C853 N852 1.351 . S
C853 C854 1.434 . S
C854 C845 1.429 . S
C854 N851 1.350 . S
C854 C853 1.434 . S
C855 C856 1.369 . S
C855 C857 1.419 . S
C855 H859 0.930 . S
C856 C855 1.369 . S
C856 C865 1.429 . S
C857 C855 1.419 . S
C857 C858 1.363 . S
C857 H860 0.929 . S
C858 C857 1.363 . S
C858 C864 1.428 . S
H859 C855 0.930 . S
H860 C857 0.929 . S
S861 N862 1.613 . S
S861 N863 1.610 . S
N862 S861 1.613 . S
N862 C865 1.350 . S
N863 S861 1.610 . S
N863 C864 1.351 . S
C864 C858 1.428 . S
C864 N863 1.351 . S
C864 C865 1.434 . S
C865 C856 1.429 . S
C865 N862 1.350 . S
C865 C864 1.434 . S
C866 C867 1.369 . S
C866 C868 1.419 . S
C866 H870 0.930 . S
C867 C866 1.369 . S
C867 C876 1.429 . S
C868 C866 1.419 . S
C868 C869 1.363 . S
C868 H871 0.929 . S
C869 C868 1.363 . S
C869 C875 1.428 . S
H870 C866 0.930 . S
H871 C868 0.929 . S
S872 N873 1.613 . S
S872 N874 1.610 1_556 S
N873 S872 1.613 . S
N873 C876 1.350 . S
N874 S872 1.610 1_554 S
N874 C875 1.351 1_554 S
C875 C869 1.428 . S
C875 N874 1.351 1_556 S
C875 C876 1.434 . S
C876 C867 1.429 . S
C876 N873 1.350 . S
C876 C875 1.434 . S
C877 C878 1.369 . S
C877 C879 1.419 1_455 S
C877 H881 0.930 . S
C878 C877 1.369 . S
C878 C887 1.429 . S
C879 C877 1.419 1_655 S
C879 C880 1.363 . S
C879 H882 0.929 . S
C880 C879 1.363 . S
C880 C886 1.428 . S
H881 C877 0.930 . S
H882 C879 0.929 . S
S883 N884 1.613 . S
S883 N885 1.610 1_455 S
N884 S883 1.613 . S
N884 C887 1.350 . S
N885 S883 1.610 1_655 S
N885 C886 1.351 . S
C886 C880 1.428 . S
C886 N885 1.351 . S
C886 C887 1.434 1_655 S
C887 C878 1.429 . S
C887 N884 1.350 . S
C887 C886 1.434 1_455 S
C888 C889 1.369 . S
C888 C890 1.419 . S
C888 H892 0.930 . S
C889 C888 1.369 . S
C889 C898 1.429 . S
C890 C888 1.419 . S
C890 C891 1.363 . S
C890 H893 0.929 . S
C891 C890 1.363 . S
C891 C897 1.428 . S
H892 C888 0.930 . S
H893 C890 0.929 . S
S894 N895 1.613 1_554 S
S894 N896 1.610 . S
N895 S894 1.613 1_556 S
N895 C898 1.350 . S
N896 S894 1.610 . S
N896 C897 1.351 1_554 S
C897 C891 1.428 . S
C897 N896 1.351 1_556 S
C897 C898 1.434 . S
C898 C889 1.429 . S
C898 N895 1.350 . S
C898 C897 1.434 . S
C899 C900 1.369 1_655 S
C899 C901 1.419 . S
C899 H903 0.930 . S
C900 C899 1.369 1_455 S
C900 C909 1.429 . S
C901 C899 1.419 . S
C901 C902 1.363 . S
C901 H904 0.929 . S
C902 C901 1.363 . S
C902 C908 1.408 1_655 S
H903 C899 0.930 . S
H904 C901 0.929 . S
S905 N906 1.613 . S
S905 N907 1.610 . S
N906 S905 1.613 . S
N906 C909 1.350 . S
N907 S905 1.610 . S
N907 C908 1.355 . S
C908 C902 1.408 1_455 S
C908 N907 1.355 . S
C908 C909 1.453 . S
C909 C900 1.429 . S
C909 N906 1.350 . S
C909 C908 1.453 . S
C910 C911 1.369 . S
C910 C912 1.419 . S
C910 H914 0.930 . S
C911 C910 1.369 . S
C911 C920 1.429 . S
C912 C910 1.419 . S
C912 C913 1.363 . S
C912 H915 0.929 . S
C913 C912 1.363 . S
C913 C919 1.428 . S
H914 C910 0.930 . S
H915 C912 0.929 . S
S916 N917 1.613 . S
S916 N918 1.610 . S
N917 S916 1.613 . S
N917 C920 1.350 . S
N918 S916 1.610 . S
N918 C919 1.351 . S
C919 C913 1.428 . S
C919 N918 1.351 . S
C919 C920 1.434 . S
C920 C911 1.429 . S
C920 N917 1.350 . S
C920 C919 1.434 . S
C921 C922 1.369 . S
C921 C923 1.419 . S
C921 H925 0.930 . S
C922 C921 1.369 . S
C922 C931 1.429 . S
C923 C921 1.419 . S
C923 C924 1.363 . S
C923 H926 0.929 . S
C924 C923 1.363 . S
C924 C930 1.428 . S
H925 C921 0.930 . S
H926 C923 0.929 . S
S927 N928 1.613 . S
S927 N929 1.610 . S
N928 S927 1.613 . S
N928 C931 1.350 . S
N929 S927 1.610 . S
N929 C930 1.351 . S
C930 C924 1.428 . S
C930 N929 1.351 . S
C930 C931 1.434 . S
C931 C922 1.429 . S
C931 N928 1.350 . S
C931 C930 1.434 . S
C932 C933 1.369 . S
C932 C934 1.419 . S
C932 H936 0.930 . S
C933 C932 1.369 . S
C933 C942 1.429 . S
C934 C932 1.419 . S
C934 C935 1.363 . S
C934 H937 0.929 . S
C935 C934 1.363 . S
C935 C941 1.428 . S
H936 C932 0.930 . S
H937 C934 0.929 . S
S938 N939 1.613 . S
S938 N940 1.610 . S
N939 S938 1.613 . S
N939 C942 1.350 . S
N940 S938 1.610 . S
N940 C941 1.351 . S
C941 C935 1.428 . S
C941 N940 1.351 . S
C941 C942 1.434 . S
C942 C933 1.429 . S
C942 N939 1.350 . S
C942 C941 1.434 . S
C943 C944 1.369 . S
C943 C945 1.419 . S
C943 H947 0.930 . S
C944 C943 1.369 . S
C944 C953 1.429 . S
C945 C943 1.419 . S
C945 C946 1.363 . S
C945 H948 0.929 . S
C946 C945 1.363 . S
C946 C952 1.428 . S
H947 C943 0.930 . S
H948 C945 0.929 . S
S949 N950 1.613 . S
S949 N951 1.610 . S
N950 S949 1.613 . S
N950 C953 1.350 . S
N951 S949 1.610 . S
N951 C952 1.351 . S
C952 C946 1.428 . S
C952 N951 1.351 . S
C952 C953 1.434 . S
C953 C944 1.429 . S
C953 N950 1.350 . S
C953 C952 1.434 . S
C954 C955 1.369 . S
C954 C956 1.419 . S
C954 H958 0.930 . S
C955 C954 1.369 . S
C955 C964 1.429 . S
C956 C954 1.419 . S
C956 C957 1.363 . S
C956 H959 0.929 . S
C957 C956 1.363 . S
C957 C963 1.428 1_554 S
H958 C954 0.930 . S
H959 C956 0.929 . S
S960 N961 1.613 1_556 S
S960 N962 1.610 . S
N961 S960 1.613 1_554 S
N961 C964 1.350 . S
N962 S960 1.610 . S
N962 C963 1.351 . S
C963 C957 1.428 1_556 S
C963 N962 1.351 . S
C963 C964 1.434 1_556 S
C964 C955 1.429 . S
C964 N961 1.350 . S
C964 C963 1.434 1_554 S
C965 C966 1.369 1_655 S
C965 C967 1.419 . S
C965 H969 0.930 . S
C966 C965 1.369 1_455 S
C966 C975 1.429 . S
C967 C965 1.419 . S
C967 C968 1.363 . S
C967 H970 0.929 . S
C968 C967 1.363 . S
C968 C974 1.428 1_655 S
H969 C965 0.930 . S
H970 C967 0.929 . S
S971 N972 1.613 1_554 S
S971 N973 1.610 . S
N972 S971 1.613 1_556 S
N972 C975 1.350 . S
N973 S971 1.610 . S
N973 C974 1.351 1_554 S
C974 C968 1.428 1_455 S
C974 N973 1.351 1_556 S
C974 C975 1.434 . S
C975 C966 1.429 . S
C975 N972 1.350 . S
C975 C974 1.434 . S
C976 C977 1.369 . S
C976 C978 1.419 . S
C976 H980 0.930 . S
C977 C976 1.369 . S
C977 C986 1.429 . S
C978 C976 1.419 . S
C978 C979 1.363 . S
C978 H981 0.929 . S
C979 C978 1.363 . S
C979 C985 1.428 . S
H980 C976 0.930 . S
H981 C978 0.929 . S
S982 N983 1.613 . S
S982 N984 1.610 . S
N983 S982 1.613 . S
N983 C986 1.350 . S
N984 S982 1.610 . S
N984 C985 1.351 . S
C985 C979 1.428 . S
C985 N984 1.351 . S
C985 C986 1.434 . S
C986 C977 1.429 . S
C986 N983 1.350 . S
C986 C985 1.434 . S
C987 C988 1.369 . S
C987 C989 1.419 . S
C987 H991 0.930 . S
C988 C987 1.369 . S
C988 C997 1.429 . S
C989 C987 1.419 . S
C989 C990 1.363 . S
C989 H992 0.929 . S
C990 C989 1.363 . S
C990 C996 1.428 . S
H991 C987 0.930 . S
H992 C989 0.929 . S
S993 N994 1.613 . S
S993 N995 1.610 . S
N994 S993 1.613 . S
N994 C997 1.350 . S
N995 S993 1.610 . S
N995 C996 1.351 . S
C996 C990 1.428 . S
C996 N995 1.351 . S
C996 C997 1.434 . S
C997 C988 1.429 . S
C997 N994 1.350 . S
C997 C996 1.434 . S
C998 C999 1.369 . S
C998 C1000 1.419 . S
C998 H1002 0.930 . S
C999 C998 1.369 . S
C999 C1008 1.429 . S
C1000 C998 1.419 . S
C1000 C1001 1.363 . S
C1000 H1003 0.929 . S
C1001 C1000 1.363 . S
C1001 C1007 1.428 . S
H1002 C998 0.930 . S
H1003 C1000 0.929 . S
S1004 N1005 1.613 . S
S1004 N1006 1.610 . S
N1005 S1004 1.613 . S
N1005 C1008 1.350 . S
N1006 S1004 1.610 . S
N1006 C1007 1.351 . S
C1007 C1001 1.428 . S
C1007 N1006 1.351 . S
C1007 C1008 1.434 . S
C1008 C999 1.429 . S
C1008 N1005 1.350 . S
C1008 C1007 1.434 . S
C1009 C1010 1.369 1_455 S
C1009 C1011 1.419 . S
C1009 H1013 0.930 . S
C1010 C1009 1.369 1_655 S
C1010 C1019 1.429 . S
C1011 C1009 1.419 . S
C1011 C1012 1.363 . S
C1011 H1014 0.929 . S
C1012 C1011 1.363 . S
C1012 C1018 1.428 1_455 S
H1013 C1009 0.930 . S
H1014 C1011 0.929 . S
S1015 N1016 1.613 . S
S1015 N1017 1.610 . S
N1016 S1015 1.613 . S
N1016 C1019 1.350 . S
N1017 S1015 1.610 . S
N1017 C1018 1.351 . S
C1018 C1012 1.428 1_655 S
C1018 N1017 1.351 . S
C1018 C1019 1.434 . S
C1019 C1010 1.429 . S
C1019 N1016 1.350 . S
C1019 C1018 1.434 . S
C1020 C1021 1.369 . S
C1020 C1022 1.419 1_556 S
C1020 H1024 0.930 . S
C1021 C1020 1.369 . S
C1021 C1030 1.429 . S
C1022 C1020 1.419 1_554 S
C1022 C1023 1.363 1_554 S
C1022 H1025 0.929 . S
C1023 C1022 1.363 1_556 S
C1023 C1029 1.428 . S
H1024 C1020 0.930 . S
H1025 C1022 0.929 . S
S1026 N1027 1.613 . S
S1026 N1028 1.610 . S
N1027 S1026 1.613 . S
N1027 C1030 1.350 . S
N1028 S1026 1.610 . S
N1028 C1029 1.351 . S
C1029 C1023 1.428 . S
C1029 N1028 1.351 . S
C1029 C1030 1.434 . S
C1030 C1021 1.429 . S
C1030 N1027 1.350 . S
C1030 C1029 1.434 . S
C1031 C1032 1.369 . S
C1031 C1033 1.419 1_655 S
C1031 H1035 0.930 . S
C1032 C1031 1.369 . S
C1032 C1041 1.429 . S
C1033 C1031 1.419 1_455 S
C1033 C1034 1.363 . S
C1033 H1036 0.929 . S
C1034 C1033 1.363 . S
C1034 C1040 1.428 . S
H1035 C1031 0.930 . S
H1036 C1033 0.929 . S
S1037 N1038 1.613 . S
S1037 N1039 1.610 1_655 S
N1038 S1037 1.613 . S
N1038 C1041 1.350 . S
N1039 S1037 1.610 1_455 S
N1039 C1040 1.351 . S
C1040 C1034 1.428 . S
C1040 N1039 1.351 . S
C1040 C1041 1.434 1_455 S
C1041 C1032 1.429 . S
C1041 N1038 1.350 . S
C1041 C1040 1.434 1_655 S
C1042 C1043 1.369 . S
C1042 C1044 1.419 . S
C1042 H1046 0.930 . S
C1043 C1042 1.369 . S
C1043 C1052 1.429 . S
C1044 C1042 1.419 . S
C1044 C1045 1.363 . S
C1044 H1047 0.929 . S
C1045 C1044 1.363 . S
C1045 C1051 1.428 . S
H1046 C1042 0.930 . S
H1047 C1044 0.929 . S
S1048 N1049 1.613 . S
S1048 N1050 1.610 . S
N1049 S1048 1.613 . S
N1049 C1052 1.350 . S
N1050 S1048 1.610 . S
N1050 C1051 1.351 . S
C1051 C1045 1.428 . S
C1051 N1050 1.351 . S
C1051 C1052 1.434 . S
C1052 C1043 1.429 . S
C1052 N1049 1.350 . S
C1052 C1051 1.434 . S
C1053 C1054 1.369 . S
C1053 C1055 1.419 . S
C1053 H1057 0.930 . S
C1054 C1053 1.369 . S
C1054 C1063 1.429 . S
C1055 C1053 1.419 . S
C1055 C1056 1.363 . S
C1055 H1058 0.929 . S
C1056 C1055 1.363 . S
C1056 C1062 1.428 . S
H1057 C1053 0.930 . S
H1058 C1055 0.929 . S
S1059 N1060 1.613 . S
S1059 N1061 1.610 . S
N1060 S1059 1.613 . S
N1060 C1063 1.350 . S
N1061 S1059 1.610 . S
N1061 C1062 1.351 . S
C1062 C1056 1.428 . S
C1062 N1061 1.351 . S
C1062 C1063 1.434 . S
C1063 C1054 1.429 . S
C1063 N1060 1.350 . S
C1063 C1062 1.434 . S
C1064 C1065 1.369 . S
C1064 C1066 1.419 . S
C1064 H1068 0.930 . S
C1065 C1064 1.369 . S
C1065 C1074 1.429 . S
C1066 C1064 1.419 . S
C1066 C1067 1.363 . S
C1066 H1069 0.929 . S
C1067 C1066 1.363 . S
C1067 C1073 1.428 . S
H1068 C1064 0.930 . S
H1069 C1066 0.929 . S
S1070 N1071 1.613 . S
S1070 N1072 1.610 . S
N1071 S1070 1.613 . S
N1071 C1074 1.350 . S
N1072 S1070 1.610 . S
N1072 C1073 1.351 . S
C1073 C1067 1.428 . S
C1073 N1072 1.351 . S
C1073 C1074 1.434 . S
C1074 C1065 1.429 . S
C1074 N1071 1.350 . S
C1074 C1073 1.434 . S
C1075 C1076 1.369 . S
C1075 C1077 1.419 . S
C1075 H1079 0.930 . S
C1076 C1075 1.369 . S
C1076 C1085 1.429 . S
C1077 C1075 1.419 . S
C1077 C1078 1.363 . S
C1077 H1080 0.929 . S
C1078 C1077 1.363 . S
C1078 C1084 1.428 . S
H1079 C1075 0.930 . S
H1080 C1077 0.929 . S
S1081 N1082 1.613 . S
S1081 N1083 1.610 . S
N1082 S1081 1.613 . S
N1082 C1085 1.350 . S
N1083 S1081 1.610 . S
N1083 C1084 1.351 . S
C1084 C1078 1.428 . S
C1084 N1083 1.351 . S
C1084 C1085 1.434 . S
C1085 C1076 1.429 . S
C1085 N1082 1.350 . S
C1085 C1084 1.434 . S
C1086 C1087 1.369 . S
C1086 C1088 1.419 . S
C1086 H1090 0.930 . S
C1087 C1086 1.369 . S
C1087 C1096 1.429 . S
C1088 C1086 1.419 . S
C1088 C1089 1.363 . S
C1088 H1091 0.929 . S
C1089 C1088 1.363 . S
C1089 C1095 1.428 . S
H1090 C1086 0.930 . S
H1091 C1088 0.929 . S
S1092 N1093 1.613 . S
S1092 N1094 1.610 . S
N1093 S1092 1.613 . S
N1093 C1096 1.350 . S
N1094 S1092 1.610 . S
N1094 C1095 1.351 . S
C1095 C1089 1.428 . S
C1095 N1094 1.351 . S
C1095 C1096 1.434 . S
C1096 C1087 1.429 . S
C1096 N1093 1.350 . S
C1096 C1095 1.434 . S
C1097 C1098 1.369 . S
C1097 C1099 1.419 . S
C1097 H1101 0.930 . S
C1098 C1097 1.369 . S
C1098 C1107 1.429 1_455 S
C1099 C1097 1.419 . S
C1099 C1100 1.363 1_455 S
C1099 H1102 0.929 . S
C1100 C1099 1.363 1_655 S
C1100 C1106 1.428 . S
H1101 C1097 0.930 . S
H1102 C1099 0.929 . S
S1103 N1104 1.613 . S
S1103 N1105 1.610 . S
N1104 S1103 1.613 . S
N1104 C1107 1.350 . S
N1105 S1103 1.610 . S
N1105 C1106 1.351 . S
C1106 C1100 1.428 . S
C1106 N1105 1.351 . S
C1106 C1107 1.434 . S
C1107 C1098 1.429 1_655 S
C1107 N1104 1.350 . S
C1107 C1106 1.434 . S
C1108 C1109 1.369 . S
C1108 C1110 1.419 . S
C1108 H1112 0.930 . S
C1109 C1108 1.369 . S
C1109 C1118 1.429 . S
C1110 C1108 1.419 . S
C1110 C1111 1.363 . S
C1110 H1113 0.929 1_554 S
C1111 C1110 1.363 . S
C1111 C1117 1.428 . S
H1112 C1108 0.930 . S
H1113 C1110 0.929 1_556 S
S1114 N1115 1.613 . S
S1114 N1116 1.610 . S
N1115 S1114 1.613 . S
N1115 C1118 1.350 . S
N1116 S1114 1.610 . S
N1116 C1117 1.351 . S
C1117 C1111 1.428 . S
C1117 N1116 1.351 . S
C1117 C1118 1.434 . S
C1118 C1109 1.429 . S
C1118 N1115 1.350 . S
C1118 C1117 1.434 . S
C1119 C1120 1.369 . S
C1119 C1121 1.419 1_655 S
C1119 H1123 0.930 . S
C1120 C1119 1.369 . S
C1120 C1129 1.429 . S
C1121 C1119 1.419 1_455 S
C1121 C1122 1.363 . S
C1121 H1124 0.929 . S
C1122 C1121 1.363 . S
C1122 C1128 1.428 . S
H1123 C1119 0.930 . S
H1124 C1121 0.929 . S
S1125 N1126 1.613 1_455 S
S1125 N1127 1.610 . S
N1126 S1125 1.613 1_655 S
N1126 C1129 1.350 . S
N1127 S1125 1.610 . S
N1127 C1128 1.351 . S
C1128 C1122 1.428 . S
C1128 N1127 1.351 . S
C1128 C1129 1.434 1_455 S
C1129 C1120 1.429 . S
C1129 N1126 1.350 . S
C1129 C1128 1.434 1_655 S
C1130 C1131 1.369 . S
C1130 C1132 1.419 . S
C1130 H1134 0.930 . S
C1131 C1130 1.369 . S
C1131 C1140 1.429 . S
C1132 C1130 1.419 . S
C1132 C1133 1.363 . S
C1132 H1135 0.929 . S
C1133 C1132 1.363 . S
C1133 C1139 1.428 . S
H1134 C1130 0.930 . S
H1135 C1132 0.929 . S
S1136 N1137 1.613 . S
S1136 N1138 1.610 . S
N1137 S1136 1.613 . S
N1137 C1140 1.350 . S
N1138 S1136 1.610 . S
N1138 C1139 1.351 . S
C1139 C1133 1.428 . S
C1139 N1138 1.351 . S
C1139 C1140 1.434 . S
C1140 C1131 1.429 . S
C1140 N1137 1.350 . S
C1140 C1139 1.434 . S
C1141 C1142 1.369 . S
C1141 C1143 1.419 . S
C1141 H1145 0.930 . S
C1142 C1141 1.369 . S
C1142 C1151 1.429 . S
C1143 C1141 1.419 . S
C1143 C1144 1.363 . S
C1143 H1146 0.929 . S
C1144 C1143 1.363 . S
C1144 C1150 1.428 . S
H1145 C1141 0.930 . S
H1146 C1143 0.929 . S
S1147 N1148 1.613 . S
S1147 N1149 1.610 . S
N1148 S1147 1.613 . S
N1148 C1151 1.350 . S
N1149 S1147 1.610 . S
N1149 C1150 1.351 . S
C1150 C1144 1.428 . S
C1150 N1149 1.351 . S
C1150 C1151 1.434 . S
C1151 C1142 1.429 . S
C1151 N1148 1.350 . S
C1151 C1150 1.434 . S
C449 C91 1.365 . S
C451 C7 1.360 . S
C460 C21 1.355 . S
C462 C105 1.361 . S
C471 C63 1.358 . S
C473 C35 1.356 . S
C482 C49 1.355 . S
C484 C77 1.356 . S
C493 C203 1.354 . S
C495 C119 1.357 . S
C504 C133 1.366 . S
C506 C217 1.360 . S
C515 C175 1.355 . S
C517 C147 1.356 . S
C526 C161 1.360 . S
C528 C189 1.365 . S
C537 C231 1.368 . S
C539 C315 1.363 . S
C548 C329 1.364 . S
C550 C245 1.366 . S
C559 C259 1.366 . S
C561 C287 1.366 . S
C570 C301 1.359 . S
C572 C273 1.356 . S
C581 C427 1.355 . S
C583 C343 1.356 . S
C592 C441 1.356 . S
C594 C357 1.362 . S
C603 C399 1.361 . S
C605 C371 1.366 . S
C614 C385 1.360 . S
C616 C413 1.356 . S
C625 C104 1.164 . S
C627 C6 1.165 . S
C636 C62 1.164 . S
C638 C20 1.166 . S
C647 C76 1.164 . S
C649 C34 1.167 . S
C658 C90 1.167 . S
C660 C48 1.166 . S
C669 C216 1.164 . S
C671 C118 1.165 . S
C680 C174 1.164 . S
C682 C132 1.165 . S
C691 C188 1.164 . S
C693 C146 1.166 . S
C702 C160 1.166 . S
C704 C202 1.166 . S
C713 C328 1.172 . S
C715 C230 1.173 . S
C724 C244 1.166 . S
C726 C286 1.169 . S
C735 C258 1.172 . S
C737 C300 1.169 . S
C746 C314 1.166 . S
C748 C272 1.169 . S
C757 C440 1.169 . S
C759 C342 1.171 . S
C768 C356 1.170 . S
C770 C398 1.168 . S
C779 C370 1.173 . S
C781 C412 1.171 . S
C790 C426 1.166 . S
C792 C384 1.168 . S
C801 C8 1.567 . S
C803 C429 1.525 1_554 S
C812 C219 1.528 . S
C814 C22 1.567 . S
C823 C401 1.527 . S
C825 C36 1.567 . S
C834 C191 1.522 . S
C836 C50 1.568 . S
C845 C373 1.522 . S
C847 C64 1.568 . S
C856 C78 1.567 . S
C858 C163 1.525 . S
C867 C92 1.568 . S
C869 C345 1.521 1_556 S
C878 C106 1.568 . S
C880 C135 1.521 . S
C889 C120 1.566 . S
C891 C317 1.527 1_556 S
C900 C107 1.528 . S
C902 C134 1.567 . S
C911 C289 1.525 . S
C913 C148 1.567 . S
C922 C79 1.521 . S
C924 C162 1.567 . S
C933 C261 1.528 . S
C935 C176 1.567 . S
C944 C51 1.523 . S
C946 C190 1.568 . S
C955 C204 1.567 . S
C957 C233 1.524 1_554 S
C966 C23 1.526 . S
C968 C218 1.567 . S
C977 C205 1.524 . S
C979 C232 1.567 . S
C988 C443 1.521 . S
C990 C246 1.568 . S
C999 C260 1.566 . S
C1001 C177 1.527 1_554 S
C1010 C274 1.567 . S
C1012 C415 1.522 . S
C1021 C288 1.567 . S
C1023 C149 1.525 1_556 S
C1032 C302 1.568 . S
C1034 C387 1.521 . S
C1043 C316 1.567 . S
C1045 C121 1.524 . S
C1054 C330 1.567 . S
C1056 C359 1.522 . S
C1065 C93 1.525 . S
C1067 C344 1.567 . S
C1076 C331 1.527 . S
C1078 C358 1.567 . S
C1087 C65 1.521 1_556 S
C1089 C372 1.568 . S
C1098 C386 1.568 . S
C1100 C303 1.522 . S
C1109 C400 1.567 . S
C1111 C37 1.525 1_554 S
C1120 C275 1.527 . S
C1122 C414 1.567 . S
C1131 C428 1.567 . S
C1133 C9 1.524 . S
C1142 C442 1.567 . S
C1144 C247 1.524 . S
