# Generated by pormake.
# Topology nbo, (4)-cn, num edge types: 1
# Building blocks:
#     Node 0, Type 0, BuildingBlock: MUDLON_clean_sbu_0, # of connection points: 4
#     Node 1, Type 0, BuildingBlock: MUDLON_clean_sbu_0, # of connection points: 4
#     Node 2, Type 0, BuildingBlock: MUDLON_clean_sbu_0, # of connection points: 4
#     Node 3, Type 0, BuildingBlock: MUDLON_clean_sbu_0, # of connection points: 4
#     Node 4, Type 0, BuildingBlock: MUDLON_clean_sbu_0, # of connection points: 4
#     Node 5, Type 0, BuildingBlock: MUDLON_clean_sbu_0, # of connection points: 4
#     Edge 6, Type (0, 0), BuildingBlock: CIFDUS_clean_linker_0, # of connection points: 2
#     Edge 7, Type (0, 0), BuildingBlock: CIFDUS_clean_linker_0, # of connection points: 2
#     Edge 8, Type (0, 0), BuildingBlock: CIFDUS_clean_linker_0, # of connection points: 2
#     Edge 9, Type (0, 0), BuildingBlock: CIFDUS_clean_linker_0, # of connection points: 2
#     Edge 10, Type (0, 0), BuildingBlock: CIFDUS_clean_linker_0, # of connection points: 2
#     Edge 11, Type (0, 0), BuildingBlock: CIFDUS_clean_linker_0, # of connection points: 2
#     Edge 12, Type (0, 0), BuildingBlock: CIFDUS_clean_linker_0, # of connection points: 2
#     Edge 13, Type (0, 0), BuildingBlock: CIFDUS_clean_linker_0, # of connection points: 2
#     Edge 14, Type (0, 0), BuildingBlock: CIFDUS_clean_linker_0, # of connection points: 2
#     Edge 15, Type (0, 0), BuildingBlock: CIFDUS_clean_linker_0, # of connection points: 2
#     Edge 16, Type (0, 0), BuildingBlock: CIFDUS_clean_linker_0, # of connection points: 2
#     Edge 17, Type (0, 0), BuildingBlock: CIFDUS_clean_linker_0, # of connection points: 2
# Relax obj value: 0.000
# Max RMSD: 0.009
# Mean RMSD: 0.009
data_MOF--net-nbo--node1-MUDLON_clean_sbu_0--edge1-CIFDUS_clean_linker_0
_symmetry_space_group_name_H-M    P1
_symmetry_Int_Tables_number       1
_symmetry_cell_setting            triclinic
loop_
_symmetry_equiv_pos_as_xyz
'x, y, z'
_cell_length_a     27.00706
_cell_length_b     26.832637
_cell_length_c     26.356894
_cell_angle_alpha  91.629438
_cell_angle_beta   91.977475
_cell_angle_gamma 91.043198
loop_
_atom_site_label
_atom_site_type_symbol
_atom_site_fract_x
_atom_site_fract_y
_atom_site_fract_z
_atom_type_partial_charge
Mg0 Mg 0.09089 0.09974 0.5666 0.0
C1 C 0.10462 0.21453 0.53542 0.0
O2 O 0.12166 0.19552 0.49315 0.0
C3 C 0.10601 0.98321 0.53732 0.0
O4 O 0.12185 0.99989 0.49428 0.0
C5 C 0.97938 0.12052 0.52697 0.0
O6 O 1.00176 0.15173 0.49739 0.0
O7 O 1.00537 0.09547 0.55807 0.0
O8 O 0.08947 0.18542 0.56915 0.0
O9 O 0.17603 0.1034 0.57594 0.0
C10 C 0.20418 0.10654 0.53833 0.0
O11 O 0.18412 0.10708 0.49224 0.0
O12 O 0.09195 1.01418 0.57111 0.0
Mg13 Mg 0.51466 0.95289 0.99009 0.0
C14 C 0.49547 0.06879 0.97396 0.0
O15 O 0.4681 0.0525 0.93456 0.0
C16 C 0.54832 0.84376 0.97028 0.0
O17 O 0.59097 0.86766 0.96732 0.0
C18 C 0.5571 0.96312 0.88309 0.0
O19 O 0.59726 0.96656 0.91268 0.0
O20 O 0.51532 0.95847 0.90343 0.0
O21 O 0.51862 0.03771 1.00107 0.0
O22 O 0.51659 0.94666 0.07703 0.0
C23 C 0.55865 0.94594 0.10031 0.0
O24 O 0.59878 0.94709 0.0735 0.0
O25 O 0.50986 0.86838 0.97999 0.0
Mg26 Mg 0.96037 0.55199 0.08875 0.0
C27 C 0.07103 0.5366 0.1135 0.0
O28 O 0.05104 0.49328 0.12408 0.0
C29 C 0.84401 0.54014 0.10568 0.0
O30 O 0.85264 0.57125 0.1445 0.0
C31 C 0.95145 0.53028 0.96922 0.0
O32 O 0.93342 0.48719 0.98325 0.0
O33 O 0.96535 0.56276 1.00308 0.0
O34 O 0.04283 0.5712 0.0988 0.0
O35 O 0.95503 0.54503 0.17455 0.0
C36 C 0.94833 0.50398 0.19646 0.0
O37 O 0.9448 0.46235 0.169 0.0
O38 O 0.87938 0.52785 0.07758 0.0
Mg39 Mg 0.45262 0.4691 0.03902 0.0
C40 C 0.49088 0.5527 0.97541 0.0
O41 O 0.53247 0.52883 0.98213 0.0
C42 C 0.46367 0.3605 0.02976 0.0
O43 O 0.47204 0.37063 0.07841 0.0
C44 C 0.36179 0.51254 0.08509 0.0
O45 O 0.38081 0.55289 0.06574 0.0
O46 O 0.38571 0.47218 0.08245 0.0
O47 O 0.45086 0.53294 0.99001 0.0
O48 O 0.5211 0.47934 0.08454 0.0
C49 C 0.55935 0.45963 0.06626 0.0
O50 O 0.55395 0.43135 1.02486 0.0
O51 O 0.45338 0.39617 1.00064 0.0
Mg52 Mg 0.03402 0.59588 0.58346 0.0
C53 C 0.08227 0.68536 0.53599 0.0
O54 O 0.07493 0.65649 0.49522 0.0
C55 C 0.09451 0.51211 0.5359 0.0
O56 O 0.09086 0.53945 0.49542 0.0
C57 C 0.97078 0.55023 0.49578 0.0
O58 O 0.98076 0.50874 0.51903 0.0
O59 O 0.9839 0.5917 0.51716 0.0
O60 O 0.07202 0.66828 0.57903 0.0
O61 O 0.99865 0.59084 0.65641 0.0
C62 C 1.00974 0.6231 0.69148 0.0
O63 O 0.03861 0.66115 0.68114 0.0
O64 O 0.07871 0.52925 0.57772 0.0
Mg65 Mg 0.58623 0.03297 0.49554 0.0
C66 C 0.69256 0.03684 0.5253 0.0
O67 O 0.67655 0.99312 0.53973 0.0
C68 C 0.49926 0.09503 0.53122 0.0
O69 O 0.51868 0.08604 0.57634 0.0
C70 C 0.53873 0.98375 0.40094 0.0
O71 O 0.49893 0.99655 0.42508 0.0
O72 O 0.58099 0.9909 0.42318 0.0
O73 O 0.66163 0.06553 0.50379 0.0
O74 O 0.57687 0.99058 0.56415 0.0
C75 C 0.5358 0.97479 0.58037 0.0
O76 O 0.49557 0.97745 0.55116 0.0
O77 O 0.52324 0.08311 0.49206 0.0
H78 H 0.13098 0.28766 0.47082 0.0
H79 H 0.07545 0.26507 0.6203 0.0
H80 H 0.07184 0.35496 0.63517 0.0
H81 H 0.08075 0.43986 0.60471 0.0
H82 H 0.13332 0.46322 0.45427 0.0
H83 H 0.14246 0.37332 0.44125 0.0
C84 C 0.11822 0.30236 0.50671 0.0
C85 C 0.10328 0.26943 0.54423 0.0
C86 C 0.11591 0.35433 0.51501 0.0
C87 C 0.08696 0.28933 0.59057 0.0
C88 C 0.08497 0.34085 0.59921 0.0
C89 C 0.09492 0.42547 0.5693 0.0
C90 C 0.10641 0.45843 0.53057 0.0
C91 C 0.09897 0.37368 0.5616 0.0
C92 C 0.12426 0.43883 0.4848 0.0
C93 C 0.12927 0.38734 0.47721 0.0
H94 H 0.92241 0.05441 0.57703 0.0
H95 H 0.91266 0.17088 0.46778 0.0
H96 H 0.82292 0.1576 0.45921 0.0
H97 H 0.74688 0.11055 0.48066 0.0
H98 H 0.75866 0.99295 0.58861 0.0
H99 H 0.84726 1.00931 0.59979 0.0
C100 C 0.90073 0.07711 0.55147 0.0
C101 C 0.92452 0.1135 0.52305 0.0
C102 C 0.84915 0.06904 0.54638 0.0
C103 C 0.89555 0.14245 0.4901 0.0
C104 C 0.84409 0.1349 0.48515 0.0
C105 C 0.76881 0.08886 0.50692 0.0
C106 C 0.74593 0.05045 0.53356 0.0
C107 C 0.82042 0.09801 0.51282 0.0
C108 C 0.77511 0.02253 0.56726 0.0
C109 C 0.82596 0.03183 0.57378 0.0
H110 H 0.07492 0.76114 0.60654 0.0
H111 H 0.11802 0.73033 0.45282 0.0
H112 H 0.13111 0.81935 0.44024 0.0
H113 H 0.12587 0.90643 0.47118 0.0
H114 H 0.08004 0.93723 0.62403 0.0
H115 H 0.07251 0.84806 0.63845 0.0
C116 C 0.08782 0.77381 0.57049 0.0
C117 C 0.09545 0.73894 0.5307 0.0
C118 C 0.09433 0.82526 0.56312 0.0
C119 C 0.11175 0.75623 0.48412 0.0
C120 C 0.11913 0.80722 0.47681 0.0
C121 C 0.11448 0.8937 0.50775 0.0
C122 C 0.10333 0.92874 0.54631 0.0
C123 C 0.10976 0.84217 0.51575 0.0
C124 C 0.08865 0.91131 0.59348 0.0
C125 C 0.08436 0.8602 0.60185 0.0
H126 H 0.43104 0.0988 0.60502 0.0
H127 H 0.44691 0.11692 0.44413 0.0
H128 H 0.35722 0.12395 0.43254 0.0
H129 H 0.27385 0.11893 0.467 0.0
H130 H 0.25801 0.09894 0.62761 0.0
H131 H 0.34799 0.09857 0.6402 0.0
C132 C 0.41507 0.10515 0.5675 0.0
C133 C 0.44591 0.10728 0.52551 0.0
C134 C 0.36328 0.10814 0.56089 0.0
C135 C 0.42424 0.11516 0.47717 0.0
C136 C 0.37284 0.11892 0.47044 0.0
C137 C 0.29001 0.1147 0.50483 0.0
C138 C 0.25899 0.10856 0.54621 0.0
C139 C 0.34192 0.11438 0.51184 0.0
C140 C 0.2808 0.1035 0.59499 0.0
C141 C 0.33236 0.10332 0.60226 0.0
H142 H 0.61346 0.96876 0.33512 0.0
H143 H 0.45407 0.96571 0.34315 0.0
H144 H 0.446 0.95135 0.25141 0.0
H145 H 0.48394 0.94539 0.16789 0.0
H146 H 0.64334 0.94944 0.15996 0.0
H147 H 0.65143 0.95749 0.25224 0.0
C148 C 0.57695 0.96431 0.31695 0.0
C149 C 0.53449 0.96864 0.3462 0.0
C150 C 0.57246 0.95666 0.2639 0.0
C151 C 0.48748 0.96277 0.32177 0.0
C152 C 0.48276 0.95469 0.26915 0.0
C153 C 0.52046 0.94767 0.18633 0.0
C154 C 0.56291 0.94719 0.15675 0.0
C155 C 0.52496 0.95254 0.23966 0.0
C156 C 0.60993 0.94994 0.18153 0.0
C157 C 0.61467 0.95458 0.23445 0.0
H158 H 0.93892 0.58311 0.26179 0.0
H159 H 0.95302 0.4231 0.2572 0.0
H160 H 0.9558 0.42271 0.34997 0.0
H161 H 0.96087 0.46855 0.43214 0.0
H162 H 0.94782 0.62877 0.4362 0.0
H163 H 0.93714 0.62811 0.34393 0.0
C164 C 0.94235 0.54808 0.28104 0.0
C165 C 0.94638 0.50327 0.25255 0.0
C166 C 0.94399 0.54813 0.33434 0.0
C167 C 0.9501 0.45817 0.27815 0.0
C168 C 0.95173 0.45791 0.33124 0.0
C169 C 0.95479 0.50327 0.41299 0.0
C170 C 0.9555 0.54868 0.44117 0.0
C171 C 0.94955 0.50277 0.35972 0.0
C172 C 0.94764 0.59328 0.41555 0.0
C173 C 0.94177 0.59299 0.3627 0.0
H174 H 0.61031 0.97657 0.65253 0.0
H175 H 0.4527 0.94996 0.63175 0.0
H176 H 0.44526 0.94323 0.72349 0.0
H177 H 0.48298 0.94952 0.8102 0.0
H178 H 0.64053 0.97761 0.82982 0.0
H179 H 0.64825 0.97947 0.73811 0.0
C180 C 0.57433 0.96871 0.66787 0.0
C181 C 0.53213 0.96388 0.63508 0.0
C182 C 0.57017 0.96576 0.72067 0.0
C183 C 0.48588 0.95375 0.65592 0.0
C184 C 0.48153 0.95019 0.70849 0.0
C185 C 0.519 0.95601 0.79441 0.0
C186 C 0.56103 0.96374 0.82706 0.0
C187 C 0.5233 0.957 0.74133 0.0
C188 C 0.60747 0.97174 0.8058 0.0
C189 C 0.612 0.97273 0.75324 0.0
H190 H 0.96789 0.53966 0.73068 0.0
H191 H 0.02116 0.68844 0.77223 0.0
H192 H 1.0066 0.67331 0.8613 0.0
H193 H 0.98278 0.61675 0.92801 0.0
H194 H 0.93047 0.46749 0.88728 0.0
H195 H 0.94066 0.48397 0.79751 0.0
C196 C 0.97578 0.56898 0.75913 0.0
C197 C 0.99576 0.61509 0.74465 0.0
C198 C 0.96792 0.55983 0.8106 0.0
C199 C 1.00593 0.65254 0.78218 0.0
C200 C 0.99773 0.6439 0.83324 0.0
C201 C 0.97345 0.5878 0.89956 0.0
C202 C 0.95617 0.54083 0.91456 0.0
C203 C 0.97948 0.59746 0.84798 0.0
C204 C 0.94402 0.50394 0.87697 0.0
C205 C 0.94981 0.51333 0.82554 0.0
H206 H 0.14019 0.46831 0.13847 0.0
H207 H 0.12479 0.61931 0.08863 0.0
H208 H 0.2144 0.62672 0.0804 0.0
H209 H 0.296 0.58797 0.0803 0.0
H210 H 0.31088 0.43597 0.12732 0.0
H211 H 0.22263 0.43162 0.14428 0.0
C212 C 0.1564 0.50305 0.12627 0.0
C213 C 0.12567 0.54301 0.1137 0.0
C214 C 0.20788 0.50684 0.12094 0.0
C215 C 0.14746 0.58784 0.09827 0.0
C216 C 0.19874 0.59209 0.09347 0.0
C217 C 0.28016 0.55407 0.09492 0.0
C218 C 0.31004 0.51221 0.10208 0.0
C219 C 0.22917 0.55148 0.10366 0.0
C220 C 0.28876 0.46866 0.12116 0.0
C221 C 0.23823 0.46608 0.13074 0.0
H222 H 0.50616 0.28352 0.07748 0.0
H223 H 0.43042 0.32101 0.9373 0.0
H224 H 0.43463 0.2341 0.90683 0.0
H225 H 0.45769 0.14682 0.92152 0.0
H226 H 0.53524 0.11128 0.06158 0.0
H227 H 0.5326 0.19817 0.09037 0.0
C228 C 0.49052 0.27277 0.04022 0.0
C229 C 0.46759 0.30859 1.00991 0.0
C230 C 0.49344 0.22305 1.02291 0.0
C231 C 0.44818 0.29412 0.96144 0.0
C232 C 0.45052 0.24442 0.94405 0.0
C233 C 0.4742 0.15814 0.95824 0.0
C234 C 0.49637 0.12238 0.9894 0.0
C235 C 0.47274 0.20846 0.97466 0.0
C236 C 0.5179 0.13784 0.03673 0.0
C237 C 0.51632 0.18758 0.05337 0.0
H238 H 0.75859 0.56031 0.15453 0.0
H239 H 0.8167 0.47069 0.03229 0.0
H240 H 0.73457 0.43519 1.01257 0.0
H241 H 0.64616 0.43184 0.02721 0.0
H242 H 0.58588 0.52282 0.14694 0.0
H243 H 0.66914 0.55488 0.17092 0.0
C244 C 0.75328 0.53293 0.12367 0.0
C245 C 0.79381 0.51849 0.09479 0.0
C246 C 0.70565 0.51272 0.11217 0.0
C247 C 0.78624 0.48281 0.05502 0.0
C248 C 0.73925 0.46232 0.04371 0.0
C249 C 0.65109 0.45833 0.05891 0.0
C250 C 0.60977 0.47498 0.08513 0.0
C251 C 0.69869 0.4773 0.07171 0.0
C252 C 0.61705 0.50933 0.1261 0.0
C253 C 0.66463 0.52786 0.13967 0.0
H254 H 0.57226 0.61065 0.96009 0.0
H255 H 0.41273 0.61554 0.96459 0.0
H256 H 0.4164 0.70631 0.96057 0.0
H257 H 0.46529 0.78451 0.96417 0.0
H258 H 0.62489 0.7794 0.96165 0.0
H259 H 0.62067 0.68847 0.95668 0.0
C260 C 0.53816 0.63141 0.95931 0.0
C261 C 0.49232 0.60624 0.96311 0.0
C262 C 0.54058 0.68367 0.95817 0.0
C263 C 0.44856 0.63389 0.96191 0.0
C264 C 0.45063 0.68587 0.95993 0.0
C265 C 0.49916 0.76354 0.96226 0.0
C266 C 0.54536 0.78877 0.96395 0.0
C267 C 0.49651 0.7112 0.95955 0.0
C268 C 0.58883 0.76099 0.96078 0.0
C269 C 0.58648 0.70894 0.9579 0.0
loop_
_geom_bond_atom_site_label_1
_geom_bond_atom_site_label_2
_geom_bond_distance
_geom_bond_site_symmetry_2
_ccdc_geom_bond_type
Mg0 O7 2.141 1_455 S
Mg0 O8 2.048 . S
Mg0 O9 2.048 . S
Mg0 O12 2.141 1_545 S
C1 O2 1.313 . S
C1 O8 1.195 . S
O2 C1 1.313 . S
C3 O4 1.245 . S
C3 O12 1.289 . S
O4 C3 1.245 . S
C5 O6 1.245 . S
C5 O7 1.289 . S
O6 C5 1.245 . S
O7 Mg0 2.141 1_655 S
O7 C5 1.289 . S
O8 Mg0 2.048 . S
O8 C1 1.195 . S
O9 Mg0 2.048 . S
O9 C10 1.195 . S
C10 O9 1.195 . S
C10 O11 1.313 . S
O11 C10 1.313 . S
O12 Mg0 2.141 1_565 S
O12 C3 1.289 . S
Mg13 O20 2.141 1_554 S
Mg13 O21 2.048 . S
Mg13 O22 2.048 . S
Mg13 O25 2.141 1_545 S
C14 O15 1.313 . S
C14 O21 1.195 . S
O15 C14 1.313 . S
C16 O17 1.245 . S
C16 O25 1.289 . S
O17 C16 1.245 . S
C18 O19 1.245 . S
C18 O20 1.289 . S
O19 C18 1.245 . S
O20 Mg13 2.141 1_556 S
O20 C18 1.289 . S
O21 Mg13 2.048 . S
O21 C14 1.195 . S
O22 Mg13 2.048 . S
O22 C23 1.195 . S
C23 O22 1.195 . S
C23 O24 1.313 . S
O24 C23 1.313 . S
O25 Mg13 2.141 1_565 S
O25 C16 1.289 . S
Mg26 O33 2.141 1_554 S
Mg26 O34 2.048 . S
Mg26 O35 2.048 . S
Mg26 O38 2.141 1_455 S
C27 O28 1.313 . S
C27 O34 1.195 . S
O28 C27 1.313 . S
C29 O30 1.245 . S
C29 O38 1.289 . S
O30 C29 1.245 . S
C31 O32 1.245 . S
C31 O33 1.289 . S
O32 C31 1.245 . S
O33 Mg26 2.141 1_556 S
O33 C31 1.289 . S
O34 Mg26 2.048 . S
O34 C27 1.195 . S
O35 Mg26 2.048 . S
O35 C36 1.195 . S
C36 O35 1.195 . S
C36 O37 1.313 . S
O37 C36 1.313 . S
O38 Mg26 2.141 1_655 S
O38 C29 1.289 . S
Mg39 O46 2.141 . S
Mg39 O47 2.048 . S
Mg39 O48 2.048 . S
Mg39 O51 2.141 . S
C40 O41 1.313 1_554 S
C40 O47 1.195 . S
O41 C40 1.313 1_556 S
C42 O43 1.245 1_554 S
C42 O51 1.289 . S
O43 C42 1.245 1_556 S
C44 O45 1.245 1_554 S
C44 O46 1.289 . S
O45 C44 1.245 1_556 S
O46 Mg39 2.141 . S
O46 C44 1.289 . S
O47 Mg39 2.048 . S
O47 C40 1.195 . S
O48 Mg39 2.048 . S
O48 C49 1.195 . S
C49 O48 1.195 . S
C49 O50 1.313 1_554 S
O50 C49 1.313 1_556 S
O51 Mg39 2.141 . S
O51 C42 1.289 . S
Mg52 O59 2.141 . S
Mg52 O60 2.048 . S
Mg52 O61 2.048 . S
Mg52 O64 2.141 . S
C53 O54 1.313 . S
C53 O60 1.195 1_455 S
O54 C53 1.313 . S
C55 O56 1.245 . S
C55 O64 1.289 1_455 S
O56 C55 1.245 . S
C57 O58 1.245 . S
C57 O59 1.289 1_455 S
O58 C57 1.245 . S
O59 Mg52 2.141 . S
O59 C57 1.289 1_655 S
O60 Mg52 2.048 . S
O60 C53 1.195 1_655 S
O61 Mg52 2.048 . S
O61 C62 1.195 1_655 S
C62 O61 1.195 1_455 S
C62 O63 1.313 . S
O63 C62 1.313 . S
O64 Mg52 2.141 . S
O64 C55 1.289 1_655 S
Mg65 O72 2.141 . S
Mg65 O73 2.048 . S
Mg65 O74 2.048 . S
Mg65 O77 2.141 . S
C66 O67 1.313 1_545 S
C66 O73 1.195 . S
O67 C66 1.313 1_565 S
C68 O69 1.245 1_545 S
C68 O77 1.289 . S
O69 C68 1.245 1_565 S
C70 O71 1.245 1_545 S
C70 O72 1.289 . S
O71 C70 1.245 1_565 S
O72 Mg65 2.141 . S
O72 C70 1.289 . S
O73 Mg65 2.048 . S
O73 C66 1.195 . S
O74 Mg65 2.048 . S
O74 C75 1.195 . S
C75 O74 1.195 . S
C75 O76 1.313 1_545 S
O76 C75 1.313 1_565 S
O77 Mg65 2.141 . S
O77 C68 1.289 . S
H78 C84 0.930 . S
H79 C87 0.930 . S
H80 C88 0.930 . S
H81 C89 0.930 . S
H82 C92 0.930 . S
H83 C93 0.930 . S
C84 H78 0.930 . S
C84 C85 1.355 . S
C84 C86 1.415 . S
C85 C84 1.355 . S
C85 C87 1.419 1_455 S
C86 C84 1.415 . S
C86 C91 1.425 1_455 S
C86 C93 1.409 . S
C87 H79 0.930 . S
C87 C85 1.419 1_655 S
C87 C88 1.362 . S
C88 H80 0.930 . S
C88 C87 1.362 . S
C88 C91 1.409 . S
C89 H81 0.930 . S
C89 C90 1.355 1_655 S
C89 C91 1.415 . S
C90 C89 1.355 1_455 S
C90 C92 1.419 . S
C91 C86 1.425 1_655 S
C91 C88 1.409 . S
C91 C89 1.415 . S
C92 H82 0.930 . S
C92 C90 1.419 . S
C92 C93 1.362 . S
C93 H83 0.930 . S
C93 C86 1.409 . S
C93 C92 1.362 . S
H94 C100 0.930 . S
H95 C103 0.930 . S
H96 C104 0.930 . S
H97 C105 0.930 . S
H98 C108 0.930 . S
H99 C109 0.930 . S
C100 H94 0.930 . S
C100 C101 1.355 1_565 S
C100 C102 1.415 . S
C101 C100 1.355 1_545 S
C101 C103 1.419 . S
C102 C100 1.415 . S
C102 C107 1.425 1_565 S
C102 C109 1.409 . S
C103 H95 0.930 . S
C103 C101 1.419 . S
C103 C104 1.362 . S
C104 H96 0.930 . S
C104 C103 1.362 . S
C104 C107 1.409 . S
C105 H97 0.930 . S
C105 C106 1.355 . S
C105 C107 1.415 . S
C106 C105 1.355 . S
C106 C108 1.419 1_545 S
C107 C102 1.425 1_545 S
C107 C104 1.409 . S
C107 C105 1.415 . S
C108 H98 0.930 . S
C108 C106 1.419 1_565 S
C108 C109 1.362 . S
C109 H99 0.930 . S
C109 C102 1.409 . S
C109 C108 1.362 . S
H110 C116 0.930 . S
H111 C119 0.930 . S
H112 C120 0.930 . S
H113 C121 0.930 . S
H114 C124 0.930 . S
H115 C125 0.930 . S
C116 H110 0.930 . S
C116 C117 1.355 1_655 S
C116 C118 1.415 . S
C117 C116 1.355 1_455 S
C117 C119 1.419 . S
C118 C116 1.415 . S
C118 C123 1.425 1_655 S
C118 C125 1.409 . S
C119 H111 0.930 . S
C119 C117 1.419 . S
C119 C120 1.362 . S
C120 H112 0.930 . S
C120 C119 1.362 . S
C120 C123 1.409 . S
C121 H113 0.930 . S
C121 C122 1.355 . S
C121 C123 1.415 . S
C122 C121 1.355 . S
C122 C124 1.419 1_455 S
C123 C118 1.425 1_455 S
C123 C120 1.409 . S
C123 C121 1.415 . S
C124 H114 0.930 . S
C124 C122 1.419 1_655 S
C124 C125 1.362 . S
C125 H115 0.930 . S
C125 C118 1.409 . S
C125 C124 1.362 . S
H126 C132 0.930 . S
H127 C135 0.930 . S
H128 C136 0.930 . S
H129 C137 0.930 . S
H130 C140 0.930 . S
H131 C141 0.930 . S
C132 H126 0.930 . S
C132 C133 1.355 . S
C132 C134 1.415 . S
C133 C132 1.355 . S
C133 C135 1.419 . S
C134 C132 1.415 . S
C134 C139 1.425 . S
C134 C141 1.409 . S
C135 H127 0.930 . S
C135 C133 1.419 . S
C135 C136 1.362 . S
C136 H128 0.930 . S
C136 C135 1.362 . S
C136 C139 1.409 . S
C137 H129 0.930 . S
C137 C138 1.355 . S
C137 C139 1.415 . S
C138 C137 1.355 . S
C138 C140 1.419 . S
C139 C134 1.425 . S
C139 C136 1.409 . S
C139 C137 1.415 . S
C140 H130 0.930 . S
C140 C138 1.419 . S
C140 C141 1.362 . S
C141 H131 0.930 . S
C141 C134 1.409 . S
C141 C140 1.362 . S
H142 C148 0.930 . S
H143 C151 0.930 . S
H144 C152 0.930 . S
H145 C153 0.930 . S
H146 C156 0.930 . S
H147 C157 0.930 . S
C148 H142 0.930 . S
C148 C149 1.355 . S
C148 C150 1.415 . S
C149 C148 1.355 . S
C149 C151 1.419 1_545 S
C150 C148 1.415 . S
C150 C155 1.425 . S
C150 C157 1.409 . S
C151 H143 0.930 . S
C151 C149 1.419 1_565 S
C151 C152 1.362 . S
C152 H144 0.930 . S
C152 C151 1.362 . S
C152 C155 1.409 1_565 S
C153 H145 0.930 . S
C153 C154 1.355 1_565 S
C153 C155 1.415 1_565 S
C154 C153 1.355 1_545 S
C154 C156 1.419 . S
C155 C150 1.425 . S
C155 C152 1.409 1_545 S
C155 C153 1.415 1_545 S
C156 H146 0.930 . S
C156 C154 1.419 . S
C156 C157 1.362 . S
C157 H147 0.930 . S
C157 C150 1.409 . S
C157 C156 1.362 . S
H158 C164 0.930 . S
H159 C167 0.930 . S
H160 C168 0.930 . S
H161 C169 0.930 . S
H162 C172 0.930 . S
H163 C173 0.930 . S
C164 H158 0.930 . S
C164 C165 1.355 1_655 S
C164 C166 1.415 1_655 S
C165 C164 1.355 1_455 S
C165 C167 1.419 . S
C166 C164 1.415 1_455 S
C166 C171 1.425 . S
C166 C173 1.409 1_455 S
C167 H159 0.930 . S
C167 C165 1.419 . S
C167 C168 1.362 . S
C168 H160 0.930 . S
C168 C167 1.362 . S
C168 C171 1.409 . S
C169 H161 0.930 . S
C169 C170 1.355 . S
C169 C171 1.415 . S
C170 C169 1.355 . S
C170 C172 1.419 1_455 S
C171 C166 1.425 . S
C171 C168 1.409 . S
C171 C169 1.415 . S
C172 H162 0.930 . S
C172 C170 1.419 1_655 S
C172 C173 1.362 . S
C173 H163 0.930 . S
C173 C166 1.409 1_655 S
C173 C172 1.362 . S
H174 C180 0.930 . S
H175 C183 0.930 . S
H176 C184 0.930 . S
H177 C185 0.930 . S
H178 C188 0.930 . S
H179 C189 0.930 . S
C180 H174 0.930 . S
C180 C181 1.355 . S
C180 C182 1.415 . S
C181 C180 1.355 . S
C181 C183 1.419 1_545 S
C182 C180 1.415 . S
C182 C187 1.425 1_545 S
C182 C189 1.409 . S
C183 H175 0.930 . S
C183 C181 1.419 1_565 S
C183 C184 1.362 . S
C184 H176 0.930 . S
C184 C183 1.362 . S
C184 C187 1.409 . S
C185 H177 0.930 . S
C185 C186 1.355 1_565 S
C185 C187 1.415 . S
C186 C185 1.355 1_545 S
C186 C188 1.419 . S
C187 C182 1.425 1_565 S
C187 C184 1.409 . S
C187 C185 1.415 . S
C188 H178 0.930 . S
C188 C186 1.419 . S
C188 C189 1.362 . S
C189 H179 0.930 . S
C189 C182 1.409 . S
C189 C188 1.362 . S
H190 C196 0.930 . S
H191 C199 0.930 . S
H192 C200 0.930 . S
H193 C201 0.930 . S
H194 C204 0.930 . S
H195 C205 0.930 . S
C196 H190 0.930 . S
C196 C197 1.355 1_655 S
C196 C198 1.415 . S
C197 C196 1.355 1_455 S
C197 C199 1.419 . S
C198 C196 1.415 . S
C198 C203 1.425 1_655 S
C198 C205 1.409 . S
C199 H191 0.930 . S
C199 C197 1.419 . S
C199 C200 1.362 . S
C200 H192 0.930 . S
C200 C199 1.362 . S
C200 C203 1.409 . S
C201 H193 0.930 . S
C201 C202 1.355 . S
C201 C203 1.415 . S
C202 C201 1.355 . S
C202 C204 1.419 1_455 S
C203 C198 1.425 1_455 S
C203 C200 1.409 . S
C203 C201 1.415 . S
C204 H194 0.930 . S
C204 C202 1.419 1_655 S
C204 C205 1.362 . S
C205 H195 0.930 . S
C205 C198 1.409 . S
C205 C204 1.362 . S
H206 C212 0.930 . S
H207 C215 0.930 . S
H208 C216 0.930 . S
H209 C217 0.930 . S
H210 C220 0.930 . S
H211 C221 0.930 . S
C212 H206 0.930 . S
C212 C213 1.355 . S
C212 C214 1.415 . S
C213 C212 1.355 . S
C213 C215 1.419 1_554 S
C214 C212 1.415 . S
C214 C219 1.425 1_554 S
C214 C221 1.409 . S
C215 H207 0.930 . S
C215 C213 1.419 1_556 S
C215 C216 1.362 . S
C216 H208 0.930 . S
C216 C215 1.362 . S
C216 C219 1.409 . S
C217 H209 0.930 . S
C217 C218 1.355 1_556 S
C217 C219 1.415 . S
C218 C217 1.355 1_554 S
C218 C220 1.419 . S
C219 C214 1.425 1_556 S
C219 C216 1.409 . S
C219 C217 1.415 . S
C220 H210 0.930 . S
C220 C218 1.419 . S
C220 C221 1.362 . S
C221 H211 0.930 . S
C221 C214 1.409 . S
C221 C220 1.362 . S
H222 C228 0.930 . S
H223 C231 0.930 . S
H224 C232 0.930 . S
H225 C233 0.930 . S
H226 C236 0.930 1_556 S
H227 C237 0.930 1_556 S
C228 H222 0.930 . S
C228 C229 1.355 . S
C228 C230 1.415 . S
C229 C228 1.355 . S
C229 C231 1.419 . S
C230 C228 1.415 . S
C230 C235 1.425 . S
C230 C237 1.409 . S
C231 H223 0.930 . S
C231 C229 1.419 . S
C231 C232 1.362 . S
C232 H224 0.930 . S
C232 C231 1.362 . S
C232 C235 1.409 . S
C233 H225 0.930 . S
C233 C234 1.355 . S
C233 C235 1.415 . S
C234 C233 1.355 . S
C234 C236 1.419 . S
C235 C230 1.425 . S
C235 C232 1.409 . S
C235 C233 1.415 . S
C236 H226 0.930 1_554 S
C236 C234 1.419 . S
C236 C237 1.362 . S
C237 H227 0.930 1_554 S
C237 C230 1.409 . S
C237 C236 1.362 . S
H238 C244 0.930 . S
H239 C247 0.930 . S
H240 C248 0.930 . S
H241 C249 0.930 . S
H242 C252 0.930 . S
H243 C253 0.930 . S
C244 H238 0.930 . S
C244 C245 1.355 . S
C244 C246 1.415 . S
C245 C244 1.355 . S
C245 C247 1.419 1_554 S
C246 C244 1.415 . S
C246 C251 1.425 1_554 S
C246 C253 1.409 . S
C247 H239 0.930 . S
C247 C245 1.419 1_556 S
C247 C248 1.362 . S
C248 H240 0.930 . S
C248 C247 1.362 . S
C248 C251 1.409 . S
C249 H241 0.930 . S
C249 C250 1.355 1_556 S
C249 C251 1.415 . S
C250 C249 1.355 1_554 S
C250 C252 1.419 . S
C251 C246 1.425 1_556 S
C251 C248 1.409 . S
C251 C249 1.415 . S
C252 H242 0.930 . S
C252 C250 1.419 . S
C252 C253 1.362 . S
C253 H243 0.930 . S
C253 C246 1.409 . S
C253 C252 1.362 . S
H254 C260 0.930 . S
H255 C263 0.930 . S
H256 C264 0.930 . S
H257 C265 0.930 . S
H258 C268 0.930 . S
H259 C269 0.930 . S
C260 H254 0.930 . S
C260 C261 1.355 1_556 S
C260 C262 1.415 . S
C261 C260 1.355 1_554 S
C261 C263 1.419 . S
C262 C260 1.415 . S
C262 C267 1.425 1_556 S
C262 C269 1.409 . S
C263 H255 0.930 . S
C263 C261 1.419 . S
C263 C264 1.362 . S
C264 H256 0.930 . S
C264 C263 1.362 . S
C264 C267 1.409 . S
C265 H257 0.930 . S
C265 C266 1.355 . S
C265 C267 1.415 . S
C266 C265 1.355 . S
C266 C268 1.419 1_554 S
C267 C262 1.425 1_554 S
C267 C264 1.409 . S
C267 C265 1.415 . S
C268 H258 0.930 . S
C268 C266 1.419 1_556 S
C268 C269 1.362 . S
C269 H259 0.930 . S
C269 C262 1.409 . S
C269 C268 1.362 . S
C85 C1 1.498 . S
C90 C55 1.474 . S
C101 C5 1.477 . S
C106 C66 1.471 . S
C117 C53 1.485 . S
C122 C3 1.492 . S
C133 C68 1.475 . S
C138 C10 1.497 . S
C149 C70 1.476 . S
C154 C23 1.478 . S
C165 C36 1.474 . S
C170 C57 1.499 . S
C181 C75 1.471 . S
C186 C18 1.492 . S
C197 C62 1.479 . S
C202 C31 1.467 . S
C213 C27 1.501 . S
C218 C44 1.492 . S
C229 C42 1.493 . S
C234 C14 1.501 . S
C245 C29 1.487 . S
C250 C49 1.501 . S
C261 C40 1.501 . S
C266 C16 1.484 . S
