# Generated by pormake.
# Topology twf-e, (6)-cn, num edge types: 1
# Building blocks:
#     Node 0, Type 0, BuildingBlock: VOLQOD_clean_sbu_1, # of connection points: 6
#     Node 1, Type 0, BuildingBlock: VOLQOD_clean_sbu_1, # of connection points: 6
#     Node 2, Type 0, BuildingBlock: VOLQOD_clean_sbu_1, # of connection points: 6
#     Node 3, Type 0, BuildingBlock: VOLQOD_clean_sbu_1, # of connection points: 6
#     Node 4, Type 0, BuildingBlock: VOLQOD_clean_sbu_1, # of connection points: 6
#     Node 5, Type 0, BuildingBlock: VOLQOD_clean_sbu_1, # of connection points: 6
#     Node 6, Type 0, BuildingBlock: VOLQOD_clean_sbu_1, # of connection points: 6
#     Node 7, Type 0, BuildingBlock: VOLQOD_clean_sbu_1, # of connection points: 6
#     Node 8, Type 0, BuildingBlock: VOLQOD_clean_sbu_1, # of connection points: 6
#     Node 9, Type 0, BuildingBlock: VOLQOD_clean_sbu_1, # of connection points: 6
#     Node 10, Type 0, BuildingBlock: VOLQOD_clean_sbu_1, # of connection points: 6
#     Node 11, Type 0, BuildingBlock: VOLQOD_clean_sbu_1, # of connection points: 6
#     Node 12, Type 0, BuildingBlock: VOLQOD_clean_sbu_1, # of connection points: 6
#     Node 13, Type 0, BuildingBlock: VOLQOD_clean_sbu_1, # of connection points: 6
#     Node 14, Type 0, BuildingBlock: VOLQOD_clean_sbu_1, # of connection points: 6
#     Node 15, Type 0, BuildingBlock: VOLQOD_clean_sbu_1, # of connection points: 6
#     Node 16, Type 0, BuildingBlock: VOLQOD_clean_sbu_1, # of connection points: 6
#     Node 17, Type 0, BuildingBlock: VOLQOD_clean_sbu_1, # of connection points: 6
#     Node 18, Type 0, BuildingBlock: VOLQOD_clean_sbu_1, # of connection points: 6
#     Node 19, Type 0, BuildingBlock: VOLQOD_clean_sbu_1, # of connection points: 6
#     Node 20, Type 0, BuildingBlock: VOLQOD_clean_sbu_1, # of connection points: 6
#     Node 21, Type 0, BuildingBlock: VOLQOD_clean_sbu_1, # of connection points: 6
#     Node 22, Type 0, BuildingBlock: VOLQOD_clean_sbu_1, # of connection points: 6
#     Node 23, Type 0, BuildingBlock: VOLQOD_clean_sbu_1, # of connection points: 6
#     Node 24, Type 0, BuildingBlock: VOLQOD_clean_sbu_1, # of connection points: 6
#     Node 25, Type 0, BuildingBlock: VOLQOD_clean_sbu_1, # of connection points: 6
#     Node 26, Type 0, BuildingBlock: VOLQOD_clean_sbu_1, # of connection points: 6
#     Node 27, Type 0, BuildingBlock: VOLQOD_clean_sbu_1, # of connection points: 6
#     Node 28, Type 0, BuildingBlock: VOLQOD_clean_sbu_1, # of connection points: 6
#     Node 29, Type 0, BuildingBlock: VOLQOD_clean_sbu_1, # of connection points: 6
#     Node 30, Type 0, BuildingBlock: VOLQOD_clean_sbu_1, # of connection points: 6
#     Node 31, Type 0, BuildingBlock: VOLQOD_clean_sbu_1, # of connection points: 6
#     Node 32, Type 0, BuildingBlock: VOLQOD_clean_sbu_1, # of connection points: 6
#     Node 33, Type 0, BuildingBlock: VOLQOD_clean_sbu_1, # of connection points: 6
#     Node 34, Type 0, BuildingBlock: VOLQOD_clean_sbu_1, # of connection points: 6
#     Node 35, Type 0, BuildingBlock: VOLQOD_clean_sbu_1, # of connection points: 6
#     Node 36, Type 0, BuildingBlock: VOLQOD_clean_sbu_1, # of connection points: 6
#     Node 37, Type 0, BuildingBlock: VOLQOD_clean_sbu_1, # of connection points: 6
#     Node 38, Type 0, BuildingBlock: VOLQOD_clean_sbu_1, # of connection points: 6
#     Node 39, Type 0, BuildingBlock: VOLQOD_clean_sbu_1, # of connection points: 6
#     Node 40, Type 0, BuildingBlock: VOLQOD_clean_sbu_1, # of connection points: 6
#     Node 41, Type 0, BuildingBlock: VOLQOD_clean_sbu_1, # of connection points: 6
#     Node 42, Type 0, BuildingBlock: VOLQOD_clean_sbu_1, # of connection points: 6
#     Node 43, Type 0, BuildingBlock: VOLQOD_clean_sbu_1, # of connection points: 6
#     Node 44, Type 0, BuildingBlock: VOLQOD_clean_sbu_1, # of connection points: 6
#     Node 45, Type 0, BuildingBlock: VOLQOD_clean_sbu_1, # of connection points: 6
#     Node 46, Type 0, BuildingBlock: VOLQOD_clean_sbu_1, # of connection points: 6
#     Node 47, Type 0, BuildingBlock: VOLQOD_clean_sbu_1, # of connection points: 6
#     Edge 48, Type (0, 0), BuildingBlock: OJICUG_clean_linker_0, # of connection points: 2
#     Edge 49, Type (0, 0), BuildingBlock: OJICUG_clean_linker_0, # of connection points: 2
#     Edge 50, Type (0, 0), BuildingBlock: OJICUG_clean_linker_0, # of connection points: 2
#     Edge 51, Type (0, 0), BuildingBlock: OJICUG_clean_linker_0, # of connection points: 2
#     Edge 52, Type (0, 0), BuildingBlock: OJICUG_clean_linker_0, # of connection points: 2
#     Edge 53, Type (0, 0), BuildingBlock: OJICUG_clean_linker_0, # of connection points: 2
#     Edge 54, Type (0, 0), BuildingBlock: OJICUG_clean_linker_0, # of connection points: 2
#     Edge 55, Type (0, 0), BuildingBlock: OJICUG_clean_linker_0, # of connection points: 2
#     Edge 56, Type (0, 0), BuildingBlock: OJICUG_clean_linker_0, # of connection points: 2
#     Edge 57, Type (0, 0), BuildingBlock: OJICUG_clean_linker_0, # of connection points: 2
#     Edge 58, Type (0, 0), BuildingBlock: OJICUG_clean_linker_0, # of connection points: 2
#     Edge 59, Type (0, 0), BuildingBlock: OJICUG_clean_linker_0, # of connection points: 2
#     Edge 60, Type (0, 0), BuildingBlock: OJICUG_clean_linker_0, # of connection points: 2
#     Edge 61, Type (0, 0), BuildingBlock: OJICUG_clean_linker_0, # of connection points: 2
#     Edge 62, Type (0, 0), BuildingBlock: OJICUG_clean_linker_0, # of connection points: 2
#     Edge 63, Type (0, 0), BuildingBlock: OJICUG_clean_linker_0, # of connection points: 2
#     Edge 64, Type (0, 0), BuildingBlock: OJICUG_clean_linker_0, # of connection points: 2
#     Edge 65, Type (0, 0), BuildingBlock: OJICUG_clean_linker_0, # of connection points: 2
#     Edge 66, Type (0, 0), BuildingBlock: OJICUG_clean_linker_0, # of connection points: 2
#     Edge 67, Type (0, 0), BuildingBlock: OJICUG_clean_linker_0, # of connection points: 2
#     Edge 68, Type (0, 0), BuildingBlock: OJICUG_clean_linker_0, # of connection points: 2
#     Edge 69, Type (0, 0), BuildingBlock: OJICUG_clean_linker_0, # of connection points: 2
#     Edge 70, Type (0, 0), BuildingBlock: OJICUG_clean_linker_0, # of connection points: 2
#     Edge 71, Type (0, 0), BuildingBlock: OJICUG_clean_linker_0, # of connection points: 2
#     Edge 72, Type (0, 0), BuildingBlock: OJICUG_clean_linker_0, # of connection points: 2
#     Edge 73, Type (0, 0), BuildingBlock: OJICUG_clean_linker_0, # of connection points: 2
#     Edge 74, Type (0, 0), BuildingBlock: OJICUG_clean_linker_0, # of connection points: 2
#     Edge 75, Type (0, 0), BuildingBlock: OJICUG_clean_linker_0, # of connection points: 2
#     Edge 76, Type (0, 0), BuildingBlock: OJICUG_clean_linker_0, # of connection points: 2
#     Edge 77, Type (0, 0), BuildingBlock: OJICUG_clean_linker_0, # of connection points: 2
#     Edge 78, Type (0, 0), BuildingBlock: OJICUG_clean_linker_0, # of connection points: 2
#     Edge 79, Type (0, 0), BuildingBlock: OJICUG_clean_linker_0, # of connection points: 2
#     Edge 80, Type (0, 0), BuildingBlock: OJICUG_clean_linker_0, # of connection points: 2
#     Edge 81, Type (0, 0), BuildingBlock: OJICUG_clean_linker_0, # of connection points: 2
#     Edge 82, Type (0, 0), BuildingBlock: OJICUG_clean_linker_0, # of connection points: 2
#     Edge 83, Type (0, 0), BuildingBlock: OJICUG_clean_linker_0, # of connection points: 2
#     Edge 84, Type (0, 0), BuildingBlock: OJICUG_clean_linker_0, # of connection points: 2
#     Edge 85, Type (0, 0), BuildingBlock: OJICUG_clean_linker_0, # of connection points: 2
#     Edge 86, Type (0, 0), BuildingBlock: OJICUG_clean_linker_0, # of connection points: 2
#     Edge 87, Type (0, 0), BuildingBlock: OJICUG_clean_linker_0, # of connection points: 2
#     Edge 88, Type (0, 0), BuildingBlock: OJICUG_clean_linker_0, # of connection points: 2
#     Edge 89, Type (0, 0), BuildingBlock: OJICUG_clean_linker_0, # of connection points: 2
#     Edge 90, Type (0, 0), BuildingBlock: OJICUG_clean_linker_0, # of connection points: 2
#     Edge 91, Type (0, 0), BuildingBlock: OJICUG_clean_linker_0, # of connection points: 2
#     Edge 92, Type (0, 0), BuildingBlock: OJICUG_clean_linker_0, # of connection points: 2
#     Edge 93, Type (0, 0), BuildingBlock: OJICUG_clean_linker_0, # of connection points: 2
#     Edge 94, Type (0, 0), BuildingBlock: OJICUG_clean_linker_0, # of connection points: 2
#     Edge 95, Type (0, 0), BuildingBlock: OJICUG_clean_linker_0, # of connection points: 2
#     Edge 96, Type (0, 0), BuildingBlock: OJICUG_clean_linker_0, # of connection points: 2
#     Edge 97, Type (0, 0), BuildingBlock: OJICUG_clean_linker_0, # of connection points: 2
#     Edge 98, Type (0, 0), BuildingBlock: OJICUG_clean_linker_0, # of connection points: 2
#     Edge 99, Type (0, 0), BuildingBlock: OJICUG_clean_linker_0, # of connection points: 2
#     Edge 100, Type (0, 0), BuildingBlock: OJICUG_clean_linker_0, # of connection points: 2
#     Edge 101, Type (0, 0), BuildingBlock: OJICUG_clean_linker_0, # of connection points: 2
#     Edge 102, Type (0, 0), BuildingBlock: OJICUG_clean_linker_0, # of connection points: 2
#     Edge 103, Type (0, 0), BuildingBlock: OJICUG_clean_linker_0, # of connection points: 2
#     Edge 104, Type (0, 0), BuildingBlock: OJICUG_clean_linker_0, # of connection points: 2
#     Edge 105, Type (0, 0), BuildingBlock: OJICUG_clean_linker_0, # of connection points: 2
#     Edge 106, Type (0, 0), BuildingBlock: OJICUG_clean_linker_0, # of connection points: 2
#     Edge 107, Type (0, 0), BuildingBlock: OJICUG_clean_linker_0, # of connection points: 2
#     Edge 108, Type (0, 0), BuildingBlock: OJICUG_clean_linker_0, # of connection points: 2
#     Edge 109, Type (0, 0), BuildingBlock: OJICUG_clean_linker_0, # of connection points: 2
#     Edge 110, Type (0, 0), BuildingBlock: OJICUG_clean_linker_0, # of connection points: 2
#     Edge 111, Type (0, 0), BuildingBlock: OJICUG_clean_linker_0, # of connection points: 2
#     Edge 112, Type (0, 0), BuildingBlock: OJICUG_clean_linker_0, # of connection points: 2
#     Edge 113, Type (0, 0), BuildingBlock: OJICUG_clean_linker_0, # of connection points: 2
#     Edge 114, Type (0, 0), BuildingBlock: OJICUG_clean_linker_0, # of connection points: 2
#     Edge 115, Type (0, 0), BuildingBlock: OJICUG_clean_linker_0, # of connection points: 2
#     Edge 116, Type (0, 0), BuildingBlock: OJICUG_clean_linker_0, # of connection points: 2
#     Edge 117, Type (0, 0), BuildingBlock: OJICUG_clean_linker_0, # of connection points: 2
#     Edge 118, Type (0, 0), BuildingBlock: OJICUG_clean_linker_0, # of connection points: 2
#     Edge 119, Type (0, 0), BuildingBlock: OJICUG_clean_linker_0, # of connection points: 2
#     Edge 120, Type (0, 0), BuildingBlock: OJICUG_clean_linker_0, # of connection points: 2
#     Edge 121, Type (0, 0), BuildingBlock: OJICUG_clean_linker_0, # of connection points: 2
#     Edge 122, Type (0, 0), BuildingBlock: OJICUG_clean_linker_0, # of connection points: 2
#     Edge 123, Type (0, 0), BuildingBlock: OJICUG_clean_linker_0, # of connection points: 2
#     Edge 124, Type (0, 0), BuildingBlock: OJICUG_clean_linker_0, # of connection points: 2
#     Edge 125, Type (0, 0), BuildingBlock: OJICUG_clean_linker_0, # of connection points: 2
#     Edge 126, Type (0, 0), BuildingBlock: OJICUG_clean_linker_0, # of connection points: 2
#     Edge 127, Type (0, 0), BuildingBlock: OJICUG_clean_linker_0, # of connection points: 2
#     Edge 128, Type (0, 0), BuildingBlock: OJICUG_clean_linker_0, # of connection points: 2
#     Edge 129, Type (0, 0), BuildingBlock: OJICUG_clean_linker_0, # of connection points: 2
#     Edge 130, Type (0, 0), BuildingBlock: OJICUG_clean_linker_0, # of connection points: 2
#     Edge 131, Type (0, 0), BuildingBlock: OJICUG_clean_linker_0, # of connection points: 2
#     Edge 132, Type (0, 0), BuildingBlock: OJICUG_clean_linker_0, # of connection points: 2
#     Edge 133, Type (0, 0), BuildingBlock: OJICUG_clean_linker_0, # of connection points: 2
#     Edge 134, Type (0, 0), BuildingBlock: OJICUG_clean_linker_0, # of connection points: 2
#     Edge 135, Type (0, 0), BuildingBlock: OJICUG_clean_linker_0, # of connection points: 2
#     Edge 136, Type (0, 0), BuildingBlock: OJICUG_clean_linker_0, # of connection points: 2
#     Edge 137, Type (0, 0), BuildingBlock: OJICUG_clean_linker_0, # of connection points: 2
#     Edge 138, Type (0, 0), BuildingBlock: OJICUG_clean_linker_0, # of connection points: 2
#     Edge 139, Type (0, 0), BuildingBlock: OJICUG_clean_linker_0, # of connection points: 2
#     Edge 140, Type (0, 0), BuildingBlock: OJICUG_clean_linker_0, # of connection points: 2
#     Edge 141, Type (0, 0), BuildingBlock: OJICUG_clean_linker_0, # of connection points: 2
#     Edge 142, Type (0, 0), BuildingBlock: OJICUG_clean_linker_0, # of connection points: 2
#     Edge 143, Type (0, 0), BuildingBlock: OJICUG_clean_linker_0, # of connection points: 2
#     Edge 144, Type (0, 0), BuildingBlock: OJICUG_clean_linker_0, # of connection points: 2
#     Edge 145, Type (0, 0), BuildingBlock: OJICUG_clean_linker_0, # of connection points: 2
#     Edge 146, Type (0, 0), BuildingBlock: OJICUG_clean_linker_0, # of connection points: 2
#     Edge 147, Type (0, 0), BuildingBlock: OJICUG_clean_linker_0, # of connection points: 2
#     Edge 148, Type (0, 0), BuildingBlock: OJICUG_clean_linker_0, # of connection points: 2
#     Edge 149, Type (0, 0), BuildingBlock: OJICUG_clean_linker_0, # of connection points: 2
#     Edge 150, Type (0, 0), BuildingBlock: OJICUG_clean_linker_0, # of connection points: 2
#     Edge 151, Type (0, 0), BuildingBlock: OJICUG_clean_linker_0, # of connection points: 2
#     Edge 152, Type (0, 0), BuildingBlock: OJICUG_clean_linker_0, # of connection points: 2
#     Edge 153, Type (0, 0), BuildingBlock: OJICUG_clean_linker_0, # of connection points: 2
#     Edge 154, Type (0, 0), BuildingBlock: OJICUG_clean_linker_0, # of connection points: 2
#     Edge 155, Type (0, 0), BuildingBlock: OJICUG_clean_linker_0, # of connection points: 2
#     Edge 156, Type (0, 0), BuildingBlock: OJICUG_clean_linker_0, # of connection points: 2
#     Edge 157, Type (0, 0), BuildingBlock: OJICUG_clean_linker_0, # of connection points: 2
#     Edge 158, Type (0, 0), BuildingBlock: OJICUG_clean_linker_0, # of connection points: 2
#     Edge 159, Type (0, 0), BuildingBlock: OJICUG_clean_linker_0, # of connection points: 2
#     Edge 160, Type (0, 0), BuildingBlock: OJICUG_clean_linker_0, # of connection points: 2
#     Edge 161, Type (0, 0), BuildingBlock: OJICUG_clean_linker_0, # of connection points: 2
#     Edge 162, Type (0, 0), BuildingBlock: OJICUG_clean_linker_0, # of connection points: 2
#     Edge 163, Type (0, 0), BuildingBlock: OJICUG_clean_linker_0, # of connection points: 2
#     Edge 164, Type (0, 0), BuildingBlock: OJICUG_clean_linker_0, # of connection points: 2
#     Edge 165, Type (0, 0), BuildingBlock: OJICUG_clean_linker_0, # of connection points: 2
#     Edge 166, Type (0, 0), BuildingBlock: OJICUG_clean_linker_0, # of connection points: 2
#     Edge 167, Type (0, 0), BuildingBlock: OJICUG_clean_linker_0, # of connection points: 2
#     Edge 168, Type (0, 0), BuildingBlock: OJICUG_clean_linker_0, # of connection points: 2
#     Edge 169, Type (0, 0), BuildingBlock: OJICUG_clean_linker_0, # of connection points: 2
#     Edge 170, Type (0, 0), BuildingBlock: OJICUG_clean_linker_0, # of connection points: 2
#     Edge 171, Type (0, 0), BuildingBlock: OJICUG_clean_linker_0, # of connection points: 2
#     Edge 172, Type (0, 0), BuildingBlock: OJICUG_clean_linker_0, # of connection points: 2
#     Edge 173, Type (0, 0), BuildingBlock: OJICUG_clean_linker_0, # of connection points: 2
#     Edge 174, Type (0, 0), BuildingBlock: OJICUG_clean_linker_0, # of connection points: 2
#     Edge 175, Type (0, 0), BuildingBlock: OJICUG_clean_linker_0, # of connection points: 2
#     Edge 176, Type (0, 0), BuildingBlock: OJICUG_clean_linker_0, # of connection points: 2
#     Edge 177, Type (0, 0), BuildingBlock: OJICUG_clean_linker_0, # of connection points: 2
#     Edge 178, Type (0, 0), BuildingBlock: OJICUG_clean_linker_0, # of connection points: 2
#     Edge 179, Type (0, 0), BuildingBlock: OJICUG_clean_linker_0, # of connection points: 2
#     Edge 180, Type (0, 0), BuildingBlock: OJICUG_clean_linker_0, # of connection points: 2
#     Edge 181, Type (0, 0), BuildingBlock: OJICUG_clean_linker_0, # of connection points: 2
#     Edge 182, Type (0, 0), BuildingBlock: OJICUG_clean_linker_0, # of connection points: 2
#     Edge 183, Type (0, 0), BuildingBlock: OJICUG_clean_linker_0, # of connection points: 2
#     Edge 184, Type (0, 0), BuildingBlock: OJICUG_clean_linker_0, # of connection points: 2
#     Edge 185, Type (0, 0), BuildingBlock: OJICUG_clean_linker_0, # of connection points: 2
#     Edge 186, Type (0, 0), BuildingBlock: OJICUG_clean_linker_0, # of connection points: 2
#     Edge 187, Type (0, 0), BuildingBlock: OJICUG_clean_linker_0, # of connection points: 2
#     Edge 188, Type (0, 0), BuildingBlock: OJICUG_clean_linker_0, # of connection points: 2
#     Edge 189, Type (0, 0), BuildingBlock: OJICUG_clean_linker_0, # of connection points: 2
#     Edge 190, Type (0, 0), BuildingBlock: OJICUG_clean_linker_0, # of connection points: 2
#     Edge 191, Type (0, 0), BuildingBlock: OJICUG_clean_linker_0, # of connection points: 2
# Relax obj value: 0.431
# Max RMSD: 0.161
# Mean RMSD: 0.160
data_MOF--net-twf-e--node1-VOLQOD_clean_sbu_1--edge1-OJICUG_clean_linker_0
_symmetry_space_group_name_H-M    P1
_symmetry_Int_Tables_number       1
_symmetry_cell_setting            triclinic
loop_
_symmetry_equiv_pos_as_xyz
'x, y, z'
_cell_length_a     49.284042
_cell_length_b     49.279595
_cell_length_c     49.299114
_cell_angle_alpha  90.031062
_cell_angle_beta   90.060306
_cell_angle_gamma 90.075083
loop_
_atom_site_label
_atom_site_type_symbol
_atom_site_fract_x
_atom_site_fract_y
_atom_site_fract_z
_atom_type_partial_charge
O0 O 0.03921 0.13413 0.37861 0.0
Zn1 Zn 0.00353 0.15196 0.38666 0.0
O2 O 0.00114 0.18356 0.36403 0.0
Zn3 Zn -0.00042 0.21499 0.38693 0.0
Zn4 Zn 0.03146 0.18496 0.33975 0.0
Zn5 Zn 0.97058 0.18239 0.34009 0.0
O6 O 0.96445 0.23438 0.37961 0.0
O7 O 0.94087 0.20181 0.35872 0.0
O8 O 0.00069 0.16018 0.42806 0.0
O9 O -0.00047 0.2051 0.42771 0.0
O10 O 0.03311 0.23745 0.3807 0.0
O11 O 0.05863 0.20828 0.3574 0.0
O12 O 0.02255 0.20272 0.30365 0.0
O13 O 0.97513 0.12556 0.37346 0.0
O14 O 0.97766 0.20226 0.30447 0.0
O15 O 0.95874 0.14376 0.33536 0.0
C16 C 0.05329 0.13266 0.35695 0.0
C17 C 0.94205 0.2242 0.37146 0.0
C18 C 0.05599 0.22977 0.37134 0.0
C19 C -0.00018 0.18277 0.4409 0.0
C20 C -0.00016 0.209 0.29296 0.0
C21 C 0.96072 0.12397 0.35192 0.0
O22 O 0.04928 0.14855 0.33694 0.0
O23 O 0.76055 0.97848 0.37247 0.0
Zn24 Zn 0.78251 0.01064 0.35877 0.0
O25 O 0.82 0.00436 0.3652 0.0
Zn26 Zn 0.83622 0.03051 0.38856 0.0
Zn27 Zn 0.82332 0.97324 0.38684 0.0
Zn28 Zn 0.83935 0.00068 0.3308 0.0
O29 O 0.87241 0.0393 0.37397 0.0
O30 O 0.86795 0.03085 0.32962 0.0
O31 O 0.77305 0.04707 0.3743 0.0
O32 O 0.81366 0.06333 0.38598 0.0
O33 O 0.83772 0.02101 0.4293 0.0
O34 O 0.82075 0.97962 0.42816 0.0
O35 O 0.85775 0.95597 0.37683 0.0
O36 O 0.77509 0.01287 0.31911 0.0
O37 O 0.86199 0.96607 0.33285 0.0
O38 O 0.81292 0.00202 0.29721 0.0
C39 C 0.76908 0.95407 0.37441 0.0
C40 C 0.88098 0.04102 0.34968 0.0
C41 C 0.82892 0.0001 0.44174 0.0
C42 C 0.78839 0.06658 0.38189 0.0
C43 C 0.86948 0.95306 0.35402 0.0
C44 C 0.78772 0.00848 0.29706 0.0
O45 O 0.79421 0.9488 0.37612 0.0
O46 O 0.96976 0.8732 0.37771 0.0
Zn47 Zn 0.00408 0.85359 0.38669 0.0
O48 O 0.00568 0.82205 0.36402 0.0
Zn49 Zn 0.00649 0.79065 0.38696 0.0
Zn50 Zn 0.97526 0.82124 0.33983 0.0
Zn51 Zn 0.0364 0.82283 0.34027 0.0
O52 O 0.0414 0.77076 0.38003 0.0
O53 O 0.06565 0.80292 0.35931 0.0
O54 O 0.00601 0.84547 0.42803 0.0
O55 O 0.00642 0.80054 0.42777 0.0
O56 O 0.97262 0.76871 0.38037 0.0
O57 O 0.94752 0.79859 0.3575 0.0
O58 O 0.98394 0.80313 0.30391 0.0
O59 O 0.03317 0.87916 0.37423 0.0
O60 O 0.02887 0.80297 0.3046 0.0
O61 O 0.04886 0.86146 0.33564 0.0
C62 C 0.95588 0.87507 0.35593 0.0
C63 C 0.06403 0.78064 0.37219 0.0
C64 C 0.94983 0.7769 0.37118 0.0
C65 C 0.00639 0.82291 0.44091 0.0
C66 C 0.00651 0.79651 0.29318 0.0
C67 C 0.04729 0.88099 0.35259 0.0
O68 O 0.95867 0.85821 0.33651 0.0
O69 O 0.24658 0.01406 0.37981 0.0
Zn70 Zn 0.22144 0.98834 0.35978 0.0
O71 O 0.18539 0.00055 0.36667 0.0
Zn72 Zn 0.16556 0.97855 0.39117 0.0
Zn73 Zn 0.1887 0.03316 0.38602 0.0
Zn74 Zn 0.16636 0.00576 0.33288 0.0
O75 O 0.12889 0.97266 0.37559 0.0
O76 O 0.1377 0.97591 0.33122 0.0
O77 O 0.22417 0.95008 0.37305 0.0
O78 O 0.18371 0.94276 0.39179 0.0
O79 O 0.16552 0.9916 0.4309 0.0
O80 O 0.19189 0.0278 0.4279 0.0
O81 O 0.15677 0.05567 0.37689 0.0
O82 O 0.23027 0.98972 0.31993 0.0
O83 O 0.14518 0.04091 0.33569 0.0
O84 O 0.19292 0.0055 0.3 0.0
C85 C 0.24382 0.03975 0.37806 0.0
C86 C 0.12262 0.96816 0.35088 0.0
C87 C 0.1792 0.0104 0.44241 0.0
C88 C 0.20704 0.93444 0.38456 0.0
C89 C 0.1422 0.05724 0.35559 0.0
C90 C 0.21766 -0.0024 0.29878 0.0
O91 O 0.22147 0.04981 0.37041 0.0
O92 O 0.03743 0.87269 0.62584 0.0
Zn93 Zn 0.00513 0.85084 0.61531 0.0
O94 O 0.00467 0.81902 0.63784 0.0
Zn95 Zn 0.00371 0.78798 0.61416 0.0
Zn96 Zn 0.03505 0.81804 0.6624 0.0
Zn97 Zn 0.974 0.81978 0.66178 0.0
O98 O 0.9683 0.76848 0.62009 0.0
O99 O 0.945 0.79909 0.64391 0.0
O100 O 0.00533 0.84332 0.57403 0.0
O101 O 0.0049 0.79843 0.57332 0.0
O102 O 0.03688 0.76538 0.62155 0.0
O103 O 0.06228 0.79411 0.64572 0.0
O104 O 0.02588 0.80101 0.69904 0.0
O105 O 0.97364 0.87417 0.62563 0.0
O106 O 0.98102 0.80136 0.69793 0.0
O107 O 0.95983 0.85753 0.66531 0.0
C108 C 0.05273 0.87351 0.6467 0.0
C109 C 0.9461 0.7776 0.62979 0.0
C110 C 0.05957 0.77254 0.63188 0.0
C111 C 0.00534 0.82108 0.56066 0.0
C112 C 0.0031 0.79502 0.70979 0.0
C113 C 0.95939 0.87591 0.64714 0.0
O114 O 0.05232 0.85491 0.6647 0.0
O115 O 0.13223 0.03649 0.6274 0.0
Zn116 Zn 0.15591 0.00553 0.61663 0.0
O117 O 0.18785 0.00662 0.63905 0.0
Zn118 Zn 0.21876 0.0086 0.61504 0.0
Zn119 Zn 0.18691 0.03667 0.66408 0.0
Zn120 Zn 0.18897 0.97556 0.66277 0.0
O121 O 0.24032 0.97405 0.61971 0.0
O122 O 0.2132 0.94898 0.64592 0.0
O123 O 0.16331 0.00647 0.57548 0.0
O124 O 0.20797 0.0112 0.57413 0.0
O125 O 0.23966 0.04258 0.6242 0.0
O126 O 0.20942 0.06575 0.6486 0.0
O127 O 0.20392 0.02827 0.70075 0.0
O128 O 0.13445 0.97262 0.62634 0.0
O129 O 0.20543 0.98347 0.69961 0.0
O130 O 0.15258 0.95765 0.66492 0.0
C131 C 0.13069 0.0514 0.64849 0.0
C132 C 0.23388 0.95152 0.63083 0.0
C133 C 0.23142 0.06449 0.63531 0.0
C134 C 0.18515 0.00939 0.56184 0.0
C135 C 0.21057 0.00578 0.71161 0.0
C136 C 0.13397 0.95705 0.64696 0.0
O137 O 0.1493 0.05165 0.66647 0.0
O138 O 0.96973 0.13404 0.6269 0.0
Zn139 Zn 0.00144 0.15653 0.61576 0.0
O140 O 0.00164 0.18862 0.63796 0.0
Zn141 Zn 0.0016 0.21935 0.61392 0.0
Zn142 Zn 0.9713 0.18909 0.6624 0.0
Zn143 Zn 0.03223 0.18897 0.66215 0.0
O144 O 0.03634 0.24009 0.61983 0.0
O145 O 0.06051 0.21074 0.64441 0.0
O146 O 0.00089 0.16348 0.57433 0.0
O147 O 0.0008 0.20836 0.57317 0.0
O148 O 0.9676 0.24082 0.62093 0.0
O149 O 0.94321 0.21134 0.64514 0.0
O150 O 0.97962 0.20703 0.69859 0.0
O151 O 0.03341 0.13408 0.62622 0.0
O152 O 0.02447 0.20727 0.69841 0.0
O153 O 0.04757 0.15157 0.6655 0.0
C154 C 0.95502 0.13312 0.64814 0.0
C155 C 0.05876 0.23196 0.62995 0.0
C156 C 0.94515 0.23282 0.6311 0.0
C157 C 0.00062 0.18557 0.56073 0.0
C158 C 0.00207 0.2134 0.70976 0.0
C159 C 0.04804 0.13293 0.64754 0.0
O160 O 0.9554 0.15194 0.66587 0.0
O161 O 0.87503 0.97193 0.62607 0.0
Zn162 Zn 0.8517 0.00327 0.61582 0.0
O163 O 0.81952 0.00197 0.63762 0.0
Zn164 Zn 0.78905 0.00044 0.61325 0.0
Zn165 Zn 0.82 0.97111 0.66137 0.0
Zn166 Zn 0.81779 0.03248 0.66188 0.0
O167 O 0.7672 0.03461 0.61822 0.0
O168 O 0.79439 0.05975 0.6444 0.0
O169 O 0.84508 0.00382 0.57459 0.0
O170 O 0.80045 -0.00109 0.57275 0.0
O171 O 0.76838 0.96609 0.62047 0.0
O172 O 0.79971 0.94212 0.64258 0.0
O173 O 0.8009 0.97829 0.69738 0.0
O174 O 0.87319 0.0354 0.62706 0.0
O175 O 0.80008 0.02321 0.69795 0.0
O176 O 0.85447 0.04978 0.6656 0.0
C177 C 0.87662 0.95728 0.64732 0.0
C178 C 0.77377 0.05718 0.62914 0.0
C179 C 0.77783 0.94359 0.62908 0.0
C180 C 0.82332 0.00115 0.56075 0.0
C181 C 0.79418 0.0005 0.70886 0.0
C182 C 0.87352 0.05039 0.64812 0.0
O183 O 0.85795 0.95714 0.66522 0.0
O184 O 0.37443 0.03695 0.12801 0.0
Zn185 Zn 0.38562 0.0046 0.14941 0.0
O186 O 0.36408 0.00453 0.18176 0.0
Zn187 Zn 0.38875 0.00514 0.21203 0.0
Zn188 Zn 0.3389 0.03444 0.18321 0.0
Zn189 Zn 0.34112 0.97313 0.18219 0.0
O190 O 0.38445 0.97002 0.2323 0.0
O191 O 0.36072 0.94518 0.2027 0.0
O192 O 0.42707 0.00383 0.15569 0.0
O193 O 0.42918 0.00731 0.20043 0.0
O194 O 0.38133 0.03843 0.23431 0.0
O195 O 0.35652 0.06287 0.20543 0.0
O196 O 0.30309 0.02471 0.20249 0.0
O197 O 0.37471 0.97313 0.12653 0.0
O198 O 0.30606 0.97988 0.2026 0.0
O199 O 0.33632 0.9578 0.14472 0.0
C200 C 0.35316 0.05168 0.12731 0.0
C201 C 0.37527 0.94731 0.22383 0.0
C202 C 0.37095 0.06087 0.22669 0.0
C203 C 0.44105 0.00573 0.17745 0.0
C204 C 0.29374 0.00156 0.20948 0.0
C205 C 0.35379 0.95795 0.12564 0.0
O206 O 0.33522 0.05082 0.14597 0.0
O207 O 0.96871 0.3778 0.13229 0.0
Zn208 Zn 3e-05 0.38848 0.15584 0.0
O209 O -0.00023 0.36551 0.1873 0.0
Zn210 Zn -0.00033 0.38863 0.21872 0.0
Zn211 Zn 0.96919 0.34146 0.18687 0.0
Zn212 Zn 0.03 0.34103 0.1873 0.0
O213 O 0.03379 0.38144 0.24005 0.0
O214 O 0.05804 0.35805 0.20986 0.0
O215 O -6e-05 0.42973 0.16408 0.0
O216 O 0.00023 0.42964 0.20896 0.0
O217 O 0.96488 0.38196 0.23903 0.0
O218 O 0.94065 0.35952 0.20798 0.0
O219 O 0.97669 0.30521 0.20527 0.0
O220 O 0.03245 0.37854 0.13389 0.0
O221 O 0.02156 0.30454 0.20468 0.0
O222 O 0.04607 0.33858 0.15013 0.0
C223 C 0.95452 0.35619 0.13052 0.0
C224 C 0.05626 0.37176 0.23158 0.0
C225 C 0.94233 0.37304 0.22984 0.0
C226 C 0.00022 0.44271 0.18655 0.0
C227 C -0.00097 0.29358 0.21116 0.0
C228 C 0.04705 0.35725 0.13226 0.0
O229 O 0.9548 0.33813 0.14905 0.0
O230 O 0.62645 0.03647 0.23639 0.0
Zn231 Zn 0.64332 0.00249 0.22044 0.0
O232 O 0.63693 0.00225 0.18236 0.0
Zn233 Zn 0.61372 0.97386 0.17059 0.0
Zn234 Zn 0.61515 0.0322 0.1734 0.0
Zn235 Zn 0.67145 0.00256 0.16288 0.0
O236 O 0.6279 0.9605 0.1357 0.0
O237 O 0.67228 0.96975 0.13779 0.0
O238 O 0.63055 0.96643 0.23542 0.0
O239 O 0.6181 0.94502 0.19752 0.0
O240 O 0.57263 0.98229 0.16828 0.0
O241 O 0.57375 0.02628 0.1762 0.0
O242 O 0.62604 0.04407 0.13694 0.0
O243 O 0.68305 0.00565 0.22834 0.0
O244 O 0.67037 0.03453 0.13667 0.0
O245 O 0.70501 0.00418 0.18902 0.0
C246 C 0.62423 0.05934 0.22433 0.0
C247 C 0.65195 0.95812 0.12659 0.0
C248 C 0.56017 0.00456 0.17249 0.0
C249 C 0.62342 0.94489 0.22277 0.0
C250 C 0.64951 0.04599 0.12635 0.0
C251 C 0.70512 0.00582 0.21496 0.0
O252 O 0.62471 0.06104 0.19867 0.0
O253 O 0.03578 0.62659 0.13346 0.0
Zn254 Zn 0.00386 0.61675 0.15627 0.0
O255 O 0.00406 0.6398 0.18765 0.0
Zn256 Zn 0.00395 0.61671 0.21902 0.0
Zn257 Zn 0.03473 0.66368 0.18719 0.0
Zn258 Zn 0.97412 0.66458 0.18741 0.0
O259 O 0.96989 0.62453 0.24017 0.0
O260 O 0.94574 0.64766 0.20962 0.0
O261 O 0.00309 0.57557 0.1644 0.0
O262 O 0.0029 0.57562 0.20928 0.0
O263 O 0.03891 0.62303 0.2393 0.0
O264 O 0.06305 0.64567 0.2084 0.0
O265 O 0.02768 0.70001 0.20539 0.0
O266 O 0.97231 0.62741 0.13345 0.0
O267 O 0.98283 0.70098 0.20508 0.0
O268 O 0.95884 0.66737 0.14985 0.0
C269 C 0.04992 0.64819 0.13147 0.0
C270 C 0.94745 0.63419 0.2315 0.0
C271 C 0.06143 0.63204 0.23016 0.0
C272 C 0.00269 0.56257 0.18684 0.0
C273 C 0.00549 0.71179 0.21143 0.0
C274 C 0.95817 0.64898 0.13163 0.0
O275 O 0.0493 0.6667 0.14954 0.0
O276 O 0.37877 0.97152 0.87125 0.0
Zn277 Zn 0.38886 0.00401 0.84922 0.0
O278 O 0.36597 0.00428 0.81759 0.0
Zn279 Zn 0.38904 0.00451 0.78612 0.0
Zn280 Zn 0.34149 0.97395 0.81733 0.0
Zn281 Zn 0.34196 0.03488 0.81795 0.0
O282 O 0.38271 0.03938 0.76585 0.0
O283 O 0.35946 0.06338 0.79633 0.0
O284 O 0.43007 0.0038 0.84091 0.0
O285 O 0.42996 0.00368 0.79601 0.0
O286 O 0.38164 0.97069 0.76443 0.0
O287 O 0.35814 0.94612 0.79428 0.0
O288 O 0.30484 0.98244 0.80044 0.0
O289 O 0.37864 0.03586 0.87234 0.0
O290 O 0.30547 0.02731 0.8003 0.0
O291 O 0.33914 0.04994 0.85537 0.0
C292 C 0.35772 0.95647 0.87234 0.0
C293 C 0.37323 0.0618 0.77467 0.0
C294 C 0.37174 0.94816 0.77254 0.0
C295 C 0.44302 0.00352 0.81844 0.0
C296 C 0.29377 0.005 0.79438 0.0
C297 C 0.35733 0.05048 0.87376 0.0
O298 O 0.33929 0.95735 0.8542 0.0
O299 O 0.02848 0.37891 0.87475 0.0
Zn300 Zn -0.00171 0.39001 0.84998 0.0
O301 O -0.00039 0.36726 0.81847 0.0
Zn302 Zn 0.00197 0.39037 0.78732 0.0
Zn303 Zn 0.02987 0.34298 0.82047 0.0
Zn304 Zn 0.96902 0.34332 0.81635 0.0
O305 O 0.96964 0.3834 0.76329 0.0
O306 O 0.94289 0.36057 0.79174 0.0
O307 O -0.0006 0.43123 0.84199 0.0
O308 O 0.00101 0.43117 0.79714 0.0
O309 O 0.03813 0.38396 0.76994 0.0
O310 O 0.06032 0.36137 0.80231 0.0
O311 O 0.02302 0.30732 0.80063 0.0
O312 O 0.96475 0.38034 0.87018 0.0
O313 O 0.97813 0.30681 0.79945 0.0
O314 O 0.95052 0.34119 0.85239 0.0
C315 C 0.0418 0.35687 0.87731 0.0
C316 C 0.94644 0.37408 0.77011 0.0
C317 C 0.06002 0.37513 0.78059 0.0
C318 C 0.00024 0.44419 0.81955 0.0
C319 C 0.00084 0.29588 0.79367 0.0
C320 C 0.94932 0.35956 0.87058 0.0
O321 O 0.04154 0.33858 0.859 0.0
O322 O 0.6275 0.03154 0.87111 0.0
Zn323 Zn 0.61711 -0.00038 0.84846 0.0
O324 O 0.63987 -0.00026 0.81689 0.0
Zn325 Zn 0.61657 0.00016 0.78555 0.0
Zn326 Zn 0.66432 0.03006 0.81711 0.0
Zn327 Zn 0.66384 0.96907 0.81668 0.0
O328 O 0.62269 0.96567 0.76462 0.0
O329 O 0.6459 0.94112 0.79473 0.0
O330 O 0.57588 0.00017 0.84042 0.0
O331 O 0.57567 0.00089 0.79554 0.0
O332 O 0.6239 0.03438 0.76454 0.0
O333 O 0.64707 0.05842 0.79513 0.0
O334 O 0.70057 0.02182 0.79918 0.0
O335 O 0.62717 0.96733 0.87076 0.0
O336 O 0.70012 0.97693 0.79853 0.0
O337 O 0.66663 0.95304 0.85388 0.0
C338 C 0.64865 0.04641 0.8726 0.0
C339 C 0.63197 0.94306 0.77317 0.0
C340 C 0.63344 0.05681 0.77334 0.0
C341 C 0.56277 0.00078 0.81803 0.0
C342 C 0.71156 -0.00064 0.79256 0.0
C343 C 0.64825 0.95237 0.87206 0.0
O344 O 0.66708 0.04579 0.85446 0.0
O345 O 0.96813 0.62839 0.87185 0.0
Zn346 Zn -0.0001 0.6181 0.84918 0.0
O347 O -0.00025 0.64085 0.81763 0.0
Zn348 Zn -0.00027 0.61761 0.7864 0.0
Zn349 Zn 0.96906 0.66496 0.81752 0.0
Zn350 Zn 0.03058 0.66474 0.81753 0.0
O351 O 0.0333 0.62548 0.76483 0.0
O352 O 0.05883 0.64781 0.79486 0.0
O353 O -0.00018 0.57697 0.84124 0.0
O354 O 0.00053 0.57672 0.79636 0.0
O355 O 0.96518 0.62364 0.7657 0.0
O356 O 0.94067 0.64716 0.79554 0.0
O357 O 0.97752 0.70131 0.7994 0.0
O358 O 0.03194 0.62822 0.87175 0.0
O359 O 0.02243 0.70111 0.80004 0.0
O360 O 0.04638 0.66755 0.85471 0.0
C361 C 0.95322 0.64946 0.87338 0.0
C362 C 0.05607 0.63504 0.77267 0.0
C363 C 0.94261 0.63313 0.77403 0.0
C364 C 0.00027 0.56385 0.81887 0.0
C365 C 0.00014 0.71247 0.7935 0.0
C366 C 0.04683 0.64936 0.87308 0.0
O367 O 0.95343 0.66774 0.85505 0.0
O368 O 0.13038 0.37979 0.03552 0.0
Zn369 Zn 0.1513 0.3899 0.00256 0.0
O370 O 0.1827 0.36713 0.0014 0.0
Zn371 Zn 0.21402 0.39004 -0.00022 0.0
Zn372 Zn 0.18423 0.34278 0.03151 0.0
Zn373 Zn 0.18102 0.34343 0.97074 0.0
O374 O 0.23143 0.38472 0.96344 0.0
O375 O 0.19852 0.36325 0.94085 0.0
O376 O 0.15954 0.43108 0.00182 0.0
O377 O 0.20444 0.43075 0.00129 0.0
O378 O 0.23766 0.38224 0.03224 0.0
O379 O 0.20831 0.35984 0.05841 0.0
O380 O 0.20177 0.30666 0.02187 0.0
O381 O 0.1269 0.37908 0.97202 0.0
O382 O 0.20173 0.30815 0.97698 0.0
O383 O 0.14243 0.33859 0.95917 0.0
C384 C 0.1294 0.35851 0.0502 0.0
C385 C 0.22016 0.37717 0.94136 0.0
C386 C 0.23028 0.37295 0.05527 0.0
C387 C 0.18212 0.4439 0.00158 0.0
C388 C 0.20838 0.29638 -0.00094 0.0
C389 C 0.12422 0.35697 0.95881 0.0
O390 O 0.14757 0.34013 0.04893 0.0
O391 O 0.13124 0.62791 0.96937 0.0
Zn392 Zn 0.15405 0.61772 0.00111 0.0
O393 O 0.18578 0.64033 0.00096 0.0
Zn394 Zn 0.21688 0.61698 0.0011 0.0
Zn395 Zn 0.18596 0.66449 0.97031 0.0
Zn396 Zn 0.18602 0.66408 0.03189 0.0
O397 O 0.23743 0.62264 0.03578 0.0
O398 O 0.20754 0.64595 0.06039 0.0
O399 O 0.16176 0.57667 0.00111 0.0
O400 O 0.20665 0.57615 7e-05 0.0
O401 O 0.23887 0.62523 0.96796 0.0
O402 O 0.20978 0.64856 0.9423 0.0
O403 O 0.20255 0.7012 0.97909 0.0
O404 O 0.13164 0.6279 0.03309 0.0
O405 O 0.20407 0.70034 0.02395 0.0
O406 O 0.14861 0.66742 0.04713 0.0
C407 C 0.13013 0.64879 0.95417 0.0
C408 C 0.229 0.63189 0.05841 0.0
C409 C 0.23187 0.63569 0.94533 0.0
C410 C 0.18402 0.56343 0.00052 0.0
C411 C 0.20934 0.71212 0.00154 0.0
C412 C 0.13025 0.64919 0.04771 0.0
O413 O 0.14883 0.66669 0.9541 0.0
O414 O 0.37799 0.13611 0.96923 0.0
Zn415 Zn 0.38782 0.15909 0.00095 0.0
O416 O 0.36544 0.19093 1e-05 0.0
Zn417 Zn 0.38921 0.22194 0.00015 0.0
Zn418 Zn 0.34204 0.19094 0.96883 0.0
Zn419 Zn 0.34074 0.19141 0.03011 0.0
O420 O 0.38225 0.2433 0.0342 0.0
O421 O 0.35797 0.21374 0.0584 0.0
O422 O 0.42906 0.16649 0.00145 0.0
O423 O 0.42996 0.21137 0.00078 0.0
O424 O 0.38345 0.24279 0.96558 0.0
O425 O 0.36086 0.21236 0.94076 0.0
O426 O 0.3056 0.20935 0.97608 0.0
O427 O 0.3766 0.13675 0.03276 0.0
O428 O 0.30468 0.20918 0.02097 0.0
O429 O 0.33708 0.15419 0.04607 0.0
C430 C 0.35705 0.13459 0.95412 0.0
C431 C 0.37218 0.23516 0.05662 0.0
C432 C 0.37477 0.23397 0.94282 0.0
C433 C 0.44251 0.18868 0.00124 0.0
C434 C 0.29387 0.21547 -0.00168 0.0
C435 C 0.35502 0.1356 0.04697 0.0
O436 O 0.33904 0.15317 0.95384 0.0
O437 O 0.86722 0.37798 0.96969 0.0
Zn438 Zn 0.84677 0.38702 0.00311 0.0
O439 O 0.81491 0.36451 0.00391 0.0
Zn440 Zn 0.78418 0.38827 0.00696 0.0
Zn441 Zn 0.81223 0.34127 0.97245 0.0
Zn442 Zn 0.81679 0.33995 0.03432 0.0
O443 O 0.76708 0.38262 0.04318 0.0
O444 O 0.79783 0.35766 0.06493 0.0
O445 O 0.83948 0.42806 0.00468 0.0
O446 O 0.79461 0.42905 0.00554 0.0
O447 O 0.75848 0.38029 0.9765 0.0
O448 O 0.78382 0.35596 0.94806 0.0
O449 O 0.79872 0.30353 0.98162 0.0
O450 O 0.87119 0.37598 0.03344 0.0
O451 O 0.79824 0.30383 0.02654 0.0
O452 O 0.85515 0.33599 0.04707 0.0
C453 C 0.86654 0.35876 0.95242 0.0
C454 C 0.77685 0.37254 0.06487 0.0
C455 C 0.76224 0.36896 0.95354 0.0
C456 C 0.81738 0.44153 0.00528 0.0
C457 C 0.79282 0.29216 0.00407 0.0
C458 C 0.87346 0.35428 0.04732 0.0
O459 O 0.84739 0.34134 0.95201 0.0
O460 O 0.62641 0.8695 0.9698 0.0
Zn461 Zn 0.61668 0.84868 0.00301 0.0
O462 O 0.63919 0.81706 0.00408 0.0
Zn463 Zn 0.61576 0.78634 0.00809 0.0
Zn464 Zn 0.66052 0.8136 0.97173 0.0
Zn465 Zn 0.66523 0.81909 0.03304 0.0
O466 O 0.62271 0.76961 0.04427 0.0
O467 O 0.6492 0.80011 0.06473 0.0
O468 O 0.57526 0.84097 0.0038 0.0
O469 O 0.57505 0.79617 0.00653 0.0
O470 O 0.62234 0.76099 0.97738 0.0
O471 O 0.63905 0.79015 0.94733 0.0
O472 O 0.69659 0.79526 0.97887 0.0
O473 O 0.62863 0.87296 0.03326 0.0
O474 O 0.70054 0.79973 0.02346 0.0
O475 O 0.66974 0.85783 0.04471 0.0
C476 C 0.6465 0.86922 0.95354 0.0
C477 C 0.63424 0.77912 0.06538 0.0
C478 C 0.6261 0.76859 0.95297 0.0
C479 C 0.56215 0.81858 0.00492 0.0
C480 C 0.70964 0.79105 0.00082 0.0
C481 C 0.6512 0.87587 0.04569 0.0
O482 O 0.66367 0.84985 0.9534 0.0
O483 O 0.87428 0.62654 0.03582 0.0
Zn484 Zn 0.85081 0.61525 0.00476 0.0
O485 O 0.81911 0.63765 0.00601 0.0
Zn486 Zn 0.78836 0.6143 0.01006 0.0
Zn487 Zn 0.82067 0.6642 0.03427 0.0
Zn488 Zn 0.81591 0.65839 0.97347 0.0
O489 O 0.76577 0.61663 0.97681 0.0
O490 O 0.79602 0.63439 0.94847 0.0
O491 O 0.84289 0.57384 0.00525 0.0
O492 O 0.79849 0.57399 0.01184 0.0
O493 O 0.76889 0.62407 0.04429 0.0
O494 O 0.79975 0.64972 0.06527 0.0
O495 O 0.80244 0.69974 0.02354 0.0
O496 O 0.87216 0.62576 0.97192 0.0
O497 O 0.7956 0.69366 0.97948 0.0
O498 O 0.85252 0.66355 0.95678 0.0
C499 C 0.87668 0.64875 0.04896 0.0
C500 C 0.77565 0.61931 0.95309 0.0
C501 C 0.77794 0.63599 0.06542 0.0
C502 C 0.8206 0.56094 0.00866 0.0
C503 C 0.7925 0.70773 0.001 0.0
C504 C 0.87199 0.64654 0.9565 0.0
O505 O 0.85885 0.66747 0.04766 0.0
O506 O 0.37742 0.8722 0.03124 0.0
Zn507 Zn 0.38831 0.84842 0.00013 0.0
O508 O 0.36537 0.81679 -0.00019 0.0
Zn509 Zn 0.3885 0.78535 0.00106 0.0
Zn510 Zn 0.34105 0.81795 0.03025 0.0
Zn511 Zn 0.34132 0.81602 0.96898 0.0
O512 O 0.38117 0.7625 0.96787 0.0
O513 O 0.35669 0.79053 0.94213 0.0
O514 O 0.4294 0.84024 0.00132 0.0
O515 O 0.42951 0.79532 0.00106 0.0
O516 O 0.38146 0.76594 0.03623 0.0
O517 O 0.35826 0.79709 0.05942 0.0
O518 O 0.30483 0.80009 0.02269 0.0
O519 O 0.37906 0.87039 0.96756 0.0
O520 O 0.30395 0.80064 0.97784 0.0
O521 O 0.34051 0.85279 0.95155 0.0
C522 C 0.35566 0.8741 0.04511 0.0
C523 C 0.37019 0.76879 0.94525 0.0
C524 C 0.37185 0.77528 0.05837 0.0
C525 C 0.44246 0.81784 0.00144 0.0
C526 C 0.29293 0.79452 0.00042 0.0
C527 C 0.35862 0.87132 0.95172 0.0
O528 O 0.33749 0.8557 0.04448 0.0
O529 O 0.62595 0.13016 0.0309 0.0
Zn530 Zn 0.61563 0.1543 -9e-05 0.0
O531 O 0.63897 0.18548 0.00054 0.0
Zn532 Zn 0.6167 0.21737 0.00197 0.0
Zn533 Zn 0.66299 0.18365 0.03104 0.0
Zn534 Zn 0.66305 0.18616 0.97006 0.0
O535 O 0.624 0.23983 0.96861 0.0
O536 O 0.64647 0.21025 0.94279 0.0
O537 O 0.57464 0.16335 0.0005 0.0
O538 O 0.57564 0.20826 0.00164 0.0
O539 O 0.62417 0.23648 0.0373 0.0
O540 O 0.6454 0.20397 0.06055 0.0
O541 O 0.69914 0.20191 0.02401 0.0
O542 O 0.6253 0.13235 0.96731 0.0
O543 O 0.69985 0.20265 0.97915 0.0
O544 O 0.66493 0.14917 0.95333 0.0
C545 C 0.64792 0.12738 0.04433 0.0
C546 C 0.63343 0.23228 0.94571 0.0
C547 C 0.63275 0.22637 0.05954 0.0
C548 C 0.56215 0.18608 0.00112 0.0
C549 C 0.71084 0.20831 0.00189 0.0
C550 C 0.64651 0.13097 0.95258 0.0
O551 O 0.66652 0.14537 0.04389 0.0
O552 O 0.53846 0.63586 0.87818 0.0
Zn553 Zn 0.50237 0.6528 0.88646 0.0
O554 O 0.49887 0.68445 0.86393 0.0
Zn555 Zn 0.49405 0.71505 0.88735 0.0
Zn556 Zn 0.53061 0.68929 0.84176 0.0
Zn557 Zn 0.46928 0.68189 0.83861 0.0
O558 O 0.45695 0.72998 0.88185 0.0
O559 O 0.43684 0.69915 0.85554 0.0
O560 O 0.49993 0.66065 0.92807 0.0
O561 O 0.49714 0.70547 0.92795 0.0
O562 O 0.52284 0.74218 0.87947 0.0
O563 O 0.55403 0.71459 0.86233 0.0
O564 O 0.52207 0.70663 0.80548 0.0
O565 O 0.47445 0.62588 0.87311 0.0
O566 O 0.47736 0.70212 0.80326 0.0
O567 O 0.45976 0.64271 0.83366 0.0
C568 C 0.55429 0.63672 0.85773 0.0
C569 C 0.43587 0.71991 0.87079 0.0
C570 C 0.54754 0.73596 0.87521 0.0
C571 C 0.49878 0.68317 0.94103 0.0
C572 C 0.49964 0.71078 0.79324 0.0
C573 C 0.46115 0.62346 0.85092 0.0
O574 O 0.55156 0.65439 0.83903 0.0
O575 O 0.26166 0.47671 0.87517 0.0
Zn576 Zn 0.28233 0.50828 0.8586 0.0
O577 O 0.32009 0.5036 0.86478 0.0
Zn578 Zn 0.33559 0.53018 0.88799 0.0
Zn579 Zn 0.3243 0.47265 0.88646 0.0
Zn580 Zn 0.33955 0.50075 0.83038 0.0
O581 O 0.37169 0.53957 0.87347 0.0
O582 O 0.36739 0.53151 0.82903 0.0
O583 O 0.27219 0.54565 0.87172 0.0
O584 O 0.3122 0.56229 0.88487 0.0
O585 O 0.3372 0.52094 0.92882 0.0
O586 O 0.32161 0.479 0.92776 0.0
O587 O 0.35913 0.45636 0.87647 0.0
O588 O 0.27411 0.5057 0.81907 0.0
O589 O 0.36318 0.46683 0.83255 0.0
O590 O 0.31299 0.50015 0.79693 0.0
C591 C 0.27056 0.45237 0.87614 0.0
C592 C 0.38034 0.54155 0.84921 0.0
C593 C 0.3291 0.49976 0.94129 0.0
C594 C 0.28711 0.56536 0.87969 0.0
C595 C 0.37095 0.4539 0.85366 0.0
C596 C 0.28706 0.50235 0.79701 0.0
O597 O 0.2958 0.44745 0.8758 0.0
O598 O 0.47039 0.37348 0.87783 0.0
Zn599 Zn 0.50457 0.35371 0.8868 0.0
O600 O 0.50619 0.32231 0.86399 0.0
Zn601 Zn 0.50694 0.29082 0.88674 0.0
Zn602 Zn 0.47579 0.32171 0.83984 0.0
Zn603 Zn 0.5368 0.32331 0.84013 0.0
O604 O 0.54178 0.2709 0.8794 0.0
O605 O 0.56605 0.30322 0.8589 0.0
O606 O 0.50651 0.34543 0.92809 0.0
O607 O 0.50708 0.30051 0.92762 0.0
O608 O 0.47283 0.26915 0.88019 0.0
O609 O 0.44788 0.29936 0.85758 0.0
O610 O 0.48429 0.30347 0.80398 0.0
O611 O 0.53355 0.37939 0.87446 0.0
O612 O 0.5292 0.30355 0.80442 0.0
O613 O 0.5491 0.36205 0.83566 0.0
C614 C 0.45685 0.37564 0.85586 0.0
C615 C 0.5644 0.28079 0.87152 0.0
C616 C 0.45006 0.27759 0.87116 0.0
C617 C 0.507 0.32283 0.94086 0.0
C618 C 0.50682 0.29695 0.79313 0.0
C619 C 0.54749 0.38147 0.85274 0.0
O620 O 0.45969 0.35883 0.8364 0.0
O621 O 0.74557 0.5145 0.87962 0.0
Zn622 Zn 0.71991 0.48899 0.86009 0.0
O623 O 0.68404 0.50179 0.86705 0.0
Zn624 Zn 0.66406 0.47992 0.89161 0.0
Zn625 Zn 0.68782 0.53434 0.88647 0.0
Zn626 Zn 0.66509 0.50758 0.83328 0.0
O627 O 0.62743 0.47411 0.87591 0.0
O628 O 0.63613 0.47804 0.83155 0.0
O629 O 0.72247 0.45091 0.8738 0.0
O630 O 0.68202 0.44398 0.89267 0.0
O631 O 0.66404 0.49309 0.93129 0.0
O632 O 0.69113 0.52875 0.9283 0.0
O633 O 0.65624 0.55749 0.87749 0.0
O634 O 0.72855 0.48976 0.82022 0.0
O635 O 0.64451 0.54326 0.83614 0.0
O636 O 0.69167 0.50668 0.80038 0.0
C637 C 0.74312 0.54022 0.87799 0.0
C638 C 0.62113 0.46993 0.85114 0.0
C639 C 0.67814 0.51157 0.94281 0.0
C640 C 0.70532 0.43549 0.88556 0.0
C641 C 0.64181 0.55955 0.85614 0.0
C642 C 0.71612 0.49796 0.79909 0.0
O643 O 0.72076 0.55063 0.87083 0.0
O644 O 0.53795 0.3721 0.12598 0.0
Zn645 Zn 0.50569 0.35022 0.11534 0.0
O646 O 0.5052 0.31834 0.13777 0.0
Zn647 Zn 0.50432 0.28737 0.11398 0.0
Zn648 Zn 0.53562 0.31734 0.16229 0.0
Zn649 Zn 0.47451 0.31891 0.1617 0.0
O650 O 0.46895 0.26773 0.11975 0.0
O651 O 0.44558 0.29816 0.14372 0.0
O652 O 0.50593 0.34283 0.07404 0.0
O653 O 0.50553 0.29794 0.07319 0.0
O654 O 0.53756 0.26485 0.12129 0.0
O655 O 0.56293 0.2937 0.14534 0.0
O656 O 0.52652 0.29998 0.19881 0.0
O657 O 0.47415 0.37345 0.12571 0.0
O658 O 0.48165 0.30038 0.19782 0.0
O659 O 0.46018 0.35663 0.16527 0.0
C660 C 0.55321 0.37291 0.14687 0.0
C661 C 0.44672 0.27676 0.12946 0.0
C662 C 0.56026 0.27215 0.13146 0.0
C663 C 0.50596 0.32064 0.0606 0.0
C664 C 0.50377 0.29395 0.20958 0.0
C665 C 0.45979 0.37508 0.14715 0.0
O666 O 0.55279 0.35428 0.16483 0.0
O667 O 0.63243 0.53622 0.12784 0.0
Zn668 Zn 0.65606 0.50527 0.11705 0.0
O669 O 0.68808 0.50642 0.13936 0.0
Zn670 Zn 0.71889 0.50832 0.1152 0.0
Zn671 Zn 0.68728 0.53662 0.16421 0.0
Zn672 Zn 0.68921 0.47544 0.16325 0.0
O673 O 0.74038 0.47372 0.11983 0.0
O674 O 0.71364 0.44887 0.14664 0.0
O675 O 0.66327 0.5064 0.07591 0.0
O676 O 0.70792 0.51108 0.07433 0.0
O677 O 0.73998 0.54221 0.12427 0.0
O678 O 0.7098 0.56559 0.14853 0.0
O679 O 0.70431 0.5284 0.20088 0.0
O680 O 0.63467 0.47231 0.12676 0.0
O681 O 0.70553 0.48358 0.20014 0.0
O682 O 0.65287 0.45734 0.16531 0.0
C683 C 0.63105 0.55132 0.14879 0.0
C684 C 0.73417 0.45132 0.13132 0.0
C685 C 0.7318 0.5642 0.13526 0.0
C686 C 0.68503 0.50939 0.06216 0.0
C687 C 0.71079 0.50597 0.21195 0.0
C688 C 0.63425 0.4567 0.14736 0.0
O689 O 0.64976 0.5517 0.16666 0.0
O690 O 0.47043 0.63416 0.12646 0.0
Zn691 Zn 0.50218 0.65689 0.11577 0.0
O692 O 0.50231 0.68893 0.13815 0.0
Zn693 Zn 0.50236 0.71979 0.11419 0.0
Zn694 Zn 0.47162 0.68898 0.16229 0.0
Zn695 Zn 0.53265 0.68929 0.16279 0.0
O696 O 0.53657 0.74128 0.12121 0.0
O697 O 0.56067 0.71287 0.14692 0.0
O698 O 0.50176 0.66403 0.07442 0.0
O699 O 0.50216 0.70892 0.07332 0.0
O700 O 0.46792 0.74072 0.12074 0.0
O701 O 0.44359 0.71118 0.14495 0.0
O702 O 0.47928 0.70661 0.19872 0.0
O703 O 0.53412 0.63443 0.12622 0.0
O704 O 0.52411 0.70607 0.19951 0.0
O705 O 0.54879 0.65219 0.1652 0.0
C706 C 0.45555 0.63305 0.14757 0.0
C707 C 0.55873 0.73422 0.13266 0.0
C708 C 0.44548 0.73262 0.13085 0.0
C709 C 0.50179 0.68613 0.06085 0.0
C710 C 0.50158 0.71234 0.2105 0.0
C711 C 0.54905 0.63346 0.14734 0.0
O712 O 0.45579 0.65176 0.16542 0.0
O713 O 0.37561 0.47121 0.12584 0.0
Zn714 Zn 0.35237 0.50259 0.11538 0.0
O715 O 0.32016 0.50137 0.13717 0.0
Zn716 Zn 0.28967 0.4999 0.11281 0.0
Zn717 Zn 0.32037 0.47059 0.16105 0.0
Zn718 Zn 0.31858 0.53204 0.16127 0.0
O719 O 0.26803 0.53419 0.11761 0.0
O720 O 0.29543 0.55936 0.14353 0.0
O721 O 0.34571 0.50305 0.07413 0.0
O722 O 0.30106 0.49823 0.07234 0.0
O723 O 0.26869 0.46576 0.12016 0.0
O724 O 0.29967 0.44163 0.14259 0.0
O725 O 0.30138 0.47817 0.19706 0.0
O726 O 0.37393 0.53481 0.12641 0.0
O727 O 0.30069 0.52308 0.19733 0.0
O728 O 0.35533 0.54926 0.16496 0.0
C729 C 0.37701 0.45648 0.14705 0.0
C730 C 0.27478 0.55681 0.12832 0.0
C731 C 0.27779 0.44325 0.12908 0.0
C732 C 0.32393 0.50042 0.06032 0.0
C733 C 0.29469 0.50047 0.20838 0.0
C734 C 0.37432 0.54987 0.14742 0.0
O735 O 0.35823 0.45632 0.16484 0.0
O736 O 0.87285 0.53746 0.62947 0.0
Zn737 Zn 0.88463 0.50532 0.65054 0.0
O738 O 0.86301 0.50378 0.68277 0.0
Zn739 Zn 0.88768 0.50201 0.71298 0.0
Zn740 Zn 0.83809 0.53393 0.68496 0.0
Zn741 Zn 0.83983 0.47263 0.68231 0.0
O742 O 0.88032 0.46781 0.73385 0.0
O743 O 0.85936 0.44374 0.7018 0.0
O744 O 0.92603 0.50606 0.65682 0.0
O745 O 0.92812 0.50009 0.70128 0.0
O746 O 0.8831 0.53632 0.73461 0.0
O747 O 0.85592 0.56121 0.70823 0.0
O748 O 0.80222 0.52404 0.70369 0.0
O749 O 0.87447 0.47379 0.6273 0.0
O750 O 0.80463 0.47917 0.70289 0.0
O751 O 0.83538 0.45874 0.64434 0.0
C752 C 0.8518 0.55243 0.62924 0.0
C753 C 0.87241 0.44523 0.72394 0.0
C754 C 0.87179 0.55877 0.72839 0.0
C755 C 0.94001 0.50278 0.6784 0.0
C756 C 0.79254 0.50088 0.71013 0.0
C757 C 0.85336 0.45889 0.62573 0.0
O758 O 0.83423 0.55165 0.64825 0.0
O759 O 0.46952 0.87811 0.63123 0.0
Zn760 Zn 0.50071 0.88881 0.6549 0.0
O761 O 0.50035 0.86575 0.68624 0.0
Zn762 Zn 0.50029 0.88861 0.7178 0.0
Zn763 Zn 0.46972 0.84186 0.6858 0.0
Zn764 Zn 0.53042 0.84113 0.686 0.0
O765 O 0.53446 0.88118 0.73895 0.0
O766 O 0.55855 0.8579 0.70855 0.0
O767 O 0.50042 0.92999 0.66338 0.0
O768 O 0.50079 0.92966 0.70827 0.0
O769 O 0.46551 0.88186 0.73814 0.0
O770 O 0.44118 0.86011 0.7067 0.0
O771 O 0.47701 0.8057 0.70436 0.0
O772 O 0.53328 0.87908 0.63305 0.0
O773 O 0.52186 0.80473 0.70344 0.0
O774 O 0.54648 0.83879 0.64881 0.0
C775 C 0.45539 0.85647 0.62942 0.0
C776 C 0.55687 0.87144 0.73037 0.0
C777 C 0.4429 0.87334 0.72873 0.0
C778 C 0.50068 0.94284 0.68593 0.0
C779 C 0.4993 0.79397 0.71015 0.0
C780 C 0.54772 0.8577 0.63121 0.0
O781 O 0.45559 0.83843 0.64796 0.0
O782 O 0.12845 0.5426 0.73232 0.0
Zn783 Zn 0.14206 0.5059 0.72013 0.0
O784 O 0.13585 0.50296 0.68214 0.0
Zn785 Zn 0.11382 0.47249 0.67549 0.0
Zn786 Zn 0.11293 0.5305 0.66814 0.0
Zn787 Zn 0.17049 0.50134 0.66286 0.0
O788 O 0.12497 0.4576 0.64014 0.0
O789 O 0.16915 0.46795 0.63844 0.0
O790 O 0.12625 0.47289 0.73893 0.0
O791 O 0.12325 0.44582 0.70301 0.0
O792 O 0.07238 0.47898 0.67773 0.0
O793 O 0.07189 0.52219 0.66632 0.0
O794 O 0.12726 0.54138 0.63253 0.0
O795 O 0.1817 0.50381 0.72832 0.0
O796 O 0.17167 0.53293 0.63612 0.0
O797 O 0.20396 0.50073 0.68929 0.0
C798 C 0.1213 0.56315 0.71818 0.0
C799 C 0.14835 0.45532 0.62937 0.0
C800 C 0.05911 0.50051 0.6723 0.0
C801 C 0.1242 0.4492 0.72851 0.0
C802 C 0.15147 0.54362 0.62384 0.0
C803 C 0.20385 0.5017 0.71527 0.0
O804 O 0.11682 0.56138 0.69285 0.0
O805 O 0.53529 0.12705 0.63367 0.0
Zn806 Zn 0.50347 0.11698 0.65652 0.0
O807 O 0.50373 0.13985 0.68806 0.0
Zn808 Zn 0.50341 0.11659 0.71933 0.0
Zn809 Zn 0.53466 0.16341 0.68802 0.0
Zn810 Zn 0.47387 0.16481 0.68775 0.0
O811 O 0.46924 0.12432 0.74029 0.0
O812 O 0.44537 0.14811 0.71005 0.0
O813 O 0.50292 0.07577 0.66447 0.0
O814 O 0.50247 0.07559 0.70935 0.0
O815 O 0.53816 0.12265 0.74005 0.0
O816 O 0.56277 0.14505 0.70937 0.0
O817 O 0.52767 0.19974 0.7062 0.0
O818 O 0.47176 0.12758 0.63382 0.0
O819 O 0.48283 0.20123 0.7053 0.0
O820 O 0.45843 0.16758 0.65021 0.0
C821 C 0.54971 0.1485 0.63206 0.0
C822 C 0.44694 0.13438 0.73177 0.0
C823 C 0.56085 0.1314 0.73111 0.0
C824 C 0.50245 0.06266 0.68684 0.0
C825 C 0.50554 0.21179 0.7119 0.0
C826 C 0.45761 0.14915 0.63204 0.0
O827 O 0.5494 0.16665 0.65048 0.0
O828 O 0.87903 0.47199 0.37156 0.0
Zn829 Zn 0.88915 0.50434 0.34934 0.0
O830 O 0.8661 0.50462 0.31785 0.0
Zn831 Zn 0.88895 0.50461 0.28625 0.0
Zn832 Zn 0.84147 0.47444 0.3179 0.0
Zn833 Zn 0.84223 0.53529 0.31822 0.0
O834 O 0.88249 0.53935 0.26579 0.0
O835 O 0.85992 0.56363 0.29657 0.0
O836 O 0.9303 0.50415 0.34079 0.0
O837 O 0.92994 0.50391 0.29589 0.0
O838 O 0.88138 0.47057 0.26491 0.0
O839 O 0.85793 0.44634 0.29508 0.0
O840 O 0.80488 0.48298 0.30099 0.0
O841 O 0.87909 0.53618 0.37249 0.0
O842 O 0.8057 0.52784 0.30057 0.0
O843 O 0.83953 0.5503 0.35569 0.0
C844 C 0.85776 0.45728 0.37295 0.0
C845 C 0.87342 0.56189 0.27474 0.0
C846 C 0.87143 0.44814 0.27326 0.0
C847 C 0.94313 0.50386 0.31825 0.0
C848 C 0.7939 0.50554 0.29479 0.0
C849 C 0.85777 0.55078 0.37403 0.0
O850 O 0.83921 0.45828 0.35494 0.0
O851 O 0.52949 0.87839 0.37408 0.0
Zn852 Zn 0.49925 0.88939 0.34948 0.0
O853 O 0.50054 0.8666 0.31796 0.0
Zn854 Zn 0.50252 0.88974 0.28681 0.0
Zn855 Zn 0.53082 0.84214 0.31948 0.0
Zn856 Zn 0.46959 0.84295 0.3163 0.0
O857 O 0.46973 0.88312 0.26352 0.0
O858 O 0.44312 0.8605 0.29224 0.0
O859 O 0.50028 0.93053 0.34153 0.0
O860 O 0.50216 0.93064 0.29669 0.0
O861 O 0.53776 0.88234 0.26805 0.0
O862 O 0.56098 0.85906 0.29918 0.0
O863 O 0.52295 0.80597 0.30105 0.0
O864 O 0.46581 0.87996 0.36999 0.0
O865 O 0.47808 0.80636 0.2994 0.0
O866 O 0.45154 0.84071 0.35253 0.0
C867 C 0.54344 0.85672 0.37626 0.0
C868 C 0.44657 0.87399 0.27059 0.0
C869 C 0.55985 0.87242 0.27721 0.0
C870 C 0.50126 0.94358 0.31916 0.0
C871 C 0.50061 0.79487 0.29408 0.0
C872 C 0.45041 0.85917 0.37063 0.0
O873 O 0.54366 0.83867 0.35773 0.0
O874 O 0.12721 0.53397 0.36963 0.0
Zn875 Zn 0.11722 0.50161 0.3476 0.0
O876 O 0.14005 0.50132 0.31612 0.0
Zn877 Zn 0.11674 0.50131 0.28482 0.0
Zn878 Zn 0.16478 0.53144 0.31629 0.0
Zn879 Zn 0.16384 0.4706 0.31628 0.0
O880 O 0.12287 0.46648 0.26437 0.0
O881 O 0.14542 0.44223 0.29521 0.0
O882 O 0.07604 0.50158 0.33963 0.0
O883 O 0.07577 0.50208 0.29476 0.0
O884 O 0.12425 0.53534 0.26356 0.0
O885 O 0.14791 0.55948 0.29375 0.0
O886 O 0.20113 0.52285 0.29866 0.0
O887 O 0.12765 0.47012 0.37072 0.0
O888 O 0.19997 0.47798 0.29766 0.0
O889 O 0.16714 0.45586 0.35392 0.0
C890 C 0.14842 0.54871 0.3713 0.0
C891 C 0.13167 0.44391 0.27351 0.0
C892 C 0.13416 0.55775 0.27204 0.0
C893 C 0.06289 0.50198 0.31727 0.0
C894 C 0.21177 0.50028 0.29184 0.0
C895 C 0.14899 0.45559 0.37234 0.0
O896 O 0.16718 0.54771 0.35351 0.0
O897 O 0.46766 0.12782 0.37232 0.0
Zn898 Zn 0.49965 0.11745 0.34996 0.0
O899 O 0.49948 0.14014 0.31839 0.0
Zn900 Zn 0.50004 0.11701 0.28709 0.0
Zn901 Zn 0.46898 0.16435 0.31773 0.0
Zn902 Zn 0.53024 0.16397 0.31882 0.0
O903 O 0.53464 0.12401 0.26689 0.0
O904 O 0.55909 0.14569 0.29827 0.0
O905 O 0.49979 0.07625 0.3419 0.0
O906 O 0.50022 0.0762 0.29701 0.0
O907 O 0.46609 0.12354 0.26536 0.0
O908 O 0.44105 0.14687 0.29493 0.0
O909 O 0.47792 0.20071 0.29978 0.0
O910 O 0.53162 0.12778 0.37274 0.0
O911 O 0.52283 0.19984 0.29996 0.0
O912 O 0.54483 0.16781 0.35636 0.0
C913 C 0.45256 0.14878 0.37351 0.0
C914 C 0.55725 0.13257 0.27622 0.0
C915 C 0.44338 0.13309 0.27328 0.0
C916 C 0.50011 0.06323 0.31946 0.0
C917 C 0.50065 0.21144 0.29348 0.0
C918 C 0.54582 0.14938 0.37446 0.0
O919 O 0.45276 0.16692 0.35502 0.0
O920 O 0.63121 0.88055 0.53455 0.0
Zn921 Zn 0.65219 0.89068 0.50162 0.0
O922 O 0.6837 0.86806 0.50049 0.0
Zn923 Zn 0.71481 0.89126 0.49882 0.0
Zn924 Zn 0.68522 0.84366 0.53056 0.0
Zn925 Zn 0.68222 0.84425 0.46991 0.0
O926 O 0.73149 0.88701 0.46195 0.0
O927 O 0.6992 0.86418 0.4398 0.0
O928 O 0.66012 0.93193 0.50099 0.0
O929 O 0.70501 0.93183 0.50113 0.0
O930 O 0.73886 0.88309 0.53093 0.0
O931 O 0.70958 0.86064 0.55717 0.0
O932 O 0.70252 0.80744 0.52101 0.0
O933 O 0.62797 0.87962 0.47107 0.0
O934 O 0.70307 0.80907 0.47614 0.0
O935 O 0.64365 0.83905 0.45864 0.0
C936 C 0.63037 0.85938 0.54939 0.0
C937 C 0.72023 0.87901 0.44002 0.0
C938 C 0.73155 0.87375 0.55398 0.0
C939 C 0.68263 0.94486 0.50122 0.0
C940 C 0.70938 0.7972 0.49826 0.0
C941 C 0.62539 0.85736 0.45809 0.0
O942 O 0.64866 0.84111 0.54824 0.0
O943 O 0.63105 0.12864 0.4703 0.0
Zn944 Zn 0.65398 0.11856 0.50197 0.0
O945 O 0.6856 0.14128 0.50183 0.0
Zn946 Zn 0.71673 0.11804 0.50237 0.0
Zn947 Zn 0.68588 0.16522 0.47098 0.0
Zn948 Zn 0.68565 0.16516 0.53267 0.0
O949 O 0.73664 0.12338 0.53742 0.0
O950 O 0.70674 0.14709 0.56159 0.0
O951 O 0.6618 0.07754 0.50186 0.0
O952 O 0.70669 0.07719 0.50073 0.0
O953 O 0.73939 0.12683 0.46992 0.0
O954 O 0.71039 0.14939 0.4435 0.0
O955 O 0.70226 0.20205 0.47972 0.0
O956 O 0.63158 0.12871 0.53394 0.0
O957 O 0.70395 0.2013 0.52459 0.0
O958 O 0.64808 0.16861 0.5475 0.0
C959 C 0.62998 0.14926 0.45476 0.0
C960 C 0.72808 0.13281 0.55991 0.0
C961 C 0.73271 0.13705 0.4471 0.0
C962 C 0.6841 0.06438 0.50112 0.0
C963 C 0.70919 0.213 0.50212 0.0
C964 C 0.62993 0.15017 0.54828 0.0
O965 O 0.64879 0.16706 0.45435 0.0
O966 O 0.87799 0.63546 0.47055 0.0
Zn967 Zn 0.88766 0.65848 0.50236 0.0
O968 O 0.86551 0.69051 0.50098 0.0
Zn969 Zn 0.88947 0.72136 0.50098 0.0
Zn970 Zn 0.8423 0.69044 0.46966 0.0
Zn971 Zn 0.84056 0.69151 0.53089 0.0
O972 O 0.88234 0.74314 0.53471 0.0
O973 O 0.85762 0.71406 0.55904 0.0
O974 O 0.92903 0.66564 0.50323 0.0
O975 O 0.93012 0.71051 0.50205 0.0
O976 O 0.88412 0.74192 0.46616 0.0
O977 O 0.86128 0.71155 0.44149 0.0
O978 O 0.80592 0.70911 0.47645 0.0
O979 O 0.87578 0.63645 0.5342 0.0
O980 O 0.8047 0.70938 0.52133 0.0
O981 O 0.83648 0.65458 0.5473 0.0
C982 C 0.85715 0.63401 0.45529 0.0
C983 C 0.87196 0.73538 0.55712 0.0
C984 C 0.87533 0.73307 0.44346 0.0
C985 C 0.94258 0.68778 0.50288 0.0
C986 C 0.79409 0.71552 0.49855 0.0
C987 C 0.85415 0.63574 0.54839 0.0
O988 O 0.8392 0.65266 0.45488 0.0
O989 O 0.3677 0.87844 0.46914 0.0
Zn990 Zn 0.34718 0.88741 0.50256 0.0
O991 O 0.31549 0.86471 0.50347 0.0
Zn992 Zn 0.28456 0.88821 0.50616 0.0
Zn993 Zn 0.31331 0.84097 0.47237 0.0
Zn994 Zn 0.3173 0.8405 0.53407 0.0
O995 O 0.26704 0.88238 0.54222 0.0
O996 O 0.29836 0.85857 0.56443 0.0
O997 O 0.3396 0.92841 0.50421 0.0
O998 O 0.29471 0.92911 0.50487 0.0
O999 O 0.2594 0.87981 0.47534 0.0
O1000 O 0.28517 0.85521 0.44752 0.0
O1001 O 0.2997 0.80333 0.48185 0.0
O1002 O 0.37172 0.87644 0.5328 0.0
O1003 O 0.29862 0.80441 0.52673 0.0
O1004 O 0.35565 0.83653 0.54664 0.0
C1005 C 0.36746 0.85881 0.45232 0.0
C1006 C 0.27703 0.87294 0.5641 0.0
C1007 C 0.26348 0.86817 0.45259 0.0
C1008 C 0.3174 0.94174 0.50475 0.0
C1009 C 0.29343 0.79238 0.50441 0.0
C1010 C 0.37402 0.85476 0.54669 0.0
O1011 O 0.34867 0.841 0.45228 0.0
O1012 O 0.12671 0.37188 0.46865 0.0
Zn1013 Zn 0.11631 0.34915 0.50047 0.0
O1014 O 0.13907 0.31772 0.50055 0.0
Zn1015 Zn 0.11611 0.28624 0.50106 0.0
Zn1016 Zn 0.16248 0.31735 0.4697 0.0
Zn1017 Zn 0.16379 0.31846 0.53062 0.0
O1018 O 0.12372 0.26572 0.53548 0.0
O1019 O 0.14646 0.29684 0.55935 0.0
O1020 O 0.07517 0.3409 0.50053 0.0
O1021 O 0.0752 0.29599 0.50152 0.0
O1022 O 0.12223 0.26509 0.46663 0.0
O1023 O 0.1436 0.29617 0.44164 0.0
O1024 O 0.19827 0.29839 0.47728 0.0
O1025 O 0.12661 0.3718 0.53238 0.0
O1026 O 0.19979 0.30007 0.52213 0.0
O1027 O 0.16705 0.35634 0.54546 0.0
C1028 C 0.14815 0.37334 0.45425 0.0
C1029 C 0.13306 0.27486 0.55787 0.0
C1030 C 0.13029 0.27422 0.44378 0.0
C1031 C 0.06218 0.31842 0.5011 0.0
C1032 C 0.21013 0.29275 0.49957 0.0
C1033 C 0.14825 0.3741 0.54642 0.0
O1034 O 0.16623 0.35484 0.45475 0.0
O1035 O 0.3735 0.1269 0.5362 0.0
Zn1036 Zn 0.3501 0.11563 0.50507 0.0
O1037 O 0.31838 0.13804 0.50616 0.0
Zn1038 Zn 0.28769 0.11452 0.51021 0.0
Zn1039 Zn 0.31993 0.16475 0.53437 0.0
Zn1040 Zn 0.31515 0.1587 0.47352 0.0
O1041 O 0.26495 0.11691 0.47704 0.0
O1042 O 0.29514 0.13465 0.44865 0.0
O1043 O 0.3423 0.07419 0.50545 0.0
O1044 O 0.29787 0.07417 0.5118 0.0
O1045 O 0.26835 0.12415 0.54453 0.0
O1046 O 0.29882 0.15043 0.56531 0.0
O1047 O 0.30187 0.20038 0.5234 0.0
O1048 O 0.3715 0.12607 0.47228 0.0
O1049 O 0.29505 0.19417 0.47936 0.0
O1050 O 0.35174 0.16363 0.45669 0.0
C1051 C 0.37588 0.14907 0.54942 0.0
C1052 C 0.27479 0.11955 0.45331 0.0
C1053 C 0.2772 0.1364 0.56555 0.0
C1054 C 0.32004 0.0612 0.50868 0.0
C1055 C 0.29202 0.20836 0.50081 0.0
C1056 C 0.37127 0.14667 0.45662 0.0
O1057 O 0.35811 0.16784 0.54806 0.0
O1058 O 0.87798 0.37291 0.53173 0.0
Zn1059 Zn 0.88857 0.34924 0.50048 0.0
O1060 O 0.86551 0.31777 0.50031 0.0
Zn1061 Zn 0.8884 0.28624 0.50145 0.0
Zn1062 Zn 0.84116 0.31889 0.53059 0.0
Zn1063 Zn 0.84161 0.31722 0.46951 0.0
O1064 O 0.88141 0.26394 0.46791 0.0
O1065 O 0.85843 0.29327 0.44223 0.0
O1066 O 0.92961 0.34085 0.50106 0.0
O1067 O 0.92941 0.29593 0.50128 0.0
O1068 O 0.8812 0.26661 0.53647 0.0
O1069 O 0.85832 0.29793 0.55977 0.0
O1070 O 0.80492 0.30106 0.52285 0.0
O1071 O 0.87907 0.37141 0.46813 0.0
O1072 O 0.80459 0.30072 0.47798 0.0
O1073 O 0.83998 0.35433 0.45291 0.0
C1074 C 0.85611 0.37497 0.54539 0.0
C1075 C 0.87178 0.27142 0.44506 0.0
C1076 C 0.87173 0.276 0.55866 0.0
C1077 C 0.9425 0.31836 0.50122 0.0
C1078 C 0.79335 0.29494 0.50055 0.0
C1079 C 0.85825 0.3727 0.45282 0.0
O1080 O 0.83778 0.35671 0.54463 0.0
O1081 O 0.12775 0.62922 0.53096 0.0
Zn1082 Zn 0.11617 0.65413 0.50092 0.0
O1083 O 0.13917 0.68561 0.50176 0.0
Zn1084 Zn 0.11653 0.71723 0.50341 0.0
Zn1085 Zn 0.16328 0.68403 0.53224 0.0
Zn1086 Zn 0.16314 0.68675 0.47115 0.0
O1087 O 0.12325 0.73997 0.4701 0.0
O1088 O 0.14637 0.71103 0.44416 0.0
O1089 O 0.07498 0.6627 0.50238 0.0
O1090 O 0.07562 0.70763 0.5033 0.0
O1091 O 0.12398 0.73632 0.53872 0.0
O1092 O 0.14545 0.70394 0.56193 0.0
O1093 O 0.19921 0.70274 0.52508 0.0
O1094 O 0.12536 0.63318 0.46752 0.0
O1095 O 0.19994 0.7032 0.48021 0.0
O1096 O 0.16506 0.65006 0.45384 0.0
C1097 C 0.14979 0.62691 0.5444 0.0
C1098 C 0.1329 0.73278 0.44718 0.0
C1099 C 0.13263 0.72624 0.56096 0.0
C1100 C 0.0623 0.68535 0.50301 0.0
C1101 C 0.21091 0.70903 0.50292 0.0
C1102 C 0.1465 0.63203 0.45266 0.0
O1103 O 0.1676 0.64569 0.54468 0.0
C1104 C 0.00028 0.15995 0.5157 0.0
C1105 C 0.00017 0.18477 0.53003 0.0
H1106 H 0.00022 0.1397 0.47701 0.0
C1107 C -0.00031 0.20886 0.51457 0.0
H1108 H 0.00063 0.1409 0.52664 0.0
C1109 C -0.00059 0.20816 0.48596 0.0
C1110 C -0.00038 0.18334 0.47161 0.0
H1111 H -0.00041 0.22842 0.52458 0.0
H1112 H -0.00086 0.22724 0.47507 0.0
C1113 C 2e-05 0.15924 0.48705 0.0
C1114 C 0.80542 0.98643 0.51467 0.0
C1115 C 0.82471 0.00074 0.53027 0.0
H1116 H 0.79199 0.97436 0.47486 0.0
C1117 C 0.84548 0.01463 0.51635 0.0
H1118 H 0.78916 0.97544 0.52457 0.0
C1119 C 0.84667 0.01461 0.4878 0.0
C1120 C 0.82766 -4e-05 0.47221 0.0
H1121 H 0.86064 0.02595 0.52757 0.0
H1122 H 0.86275 0.02584 0.47788 0.0
C1123 C 0.80712 0.98569 0.48611 0.0
C1124 C 0.00596 0.79734 0.51471 0.0
C1125 C 0.0058 0.82157 0.52998 0.0
H1126 H 0.00631 0.77864 0.47532 0.0
C1127 C 0.00605 0.84627 0.5155 0.0
H1128 H 0.00579 0.77786 0.52486 0.0
C1129 C 0.00634 0.84674 0.48686 0.0
C1130 C 0.00644 0.82252 0.47159 0.0
H1131 H 0.00595 0.86541 0.52629 0.0
H1132 H 0.00644 0.86621 0.47669 0.0
C1133 C 0.00628 0.7978 0.48609 0.0
C1134 C 0.20472 0.02189 0.51546 0.0
C1135 C 0.1838 0.01027 0.53123 0.0
H1136 H 0.21953 0.03172 0.47548 0.0
C1137 C 0.16128 -0.00065 0.51732 0.0
H1138 H 0.22238 0.03058 0.52528 0.0
C1139 C 0.1599 -0.00047 0.48878 0.0
C1140 C 0.18065 0.01128 0.47299 0.0
H1141 H 0.14477 0.99015 0.52853 0.0
H1142 H 0.14236 0.99052 0.47904 0.0
C1143 C 0.20301 0.02269 0.48682 0.0
C1144 C 0.5159 0.02136 0.19262 0.0
C1145 C 0.52967 0.00511 0.17355 0.0
H1146 H 0.47749 0.03372 0.20937 0.0
C1147 C 0.51394 0.98914 0.15577 0.0
H1148 H 0.52729 0.03379 0.20675 0.0
C1149 C 0.48534 0.98981 0.15665 0.0
C1150 C 0.47156 0.00567 0.17604 0.0
H1151 H 0.52379 0.97639 0.14083 0.0
H1152 H 0.47397 0.97744 0.14246 0.0
C1153 C 0.48731 0.02125 0.19418 0.0
C1154 C 0.00156 0.51701 0.16233 0.0
C1155 C 0.00198 0.53186 0.18682 0.0
H1156 H 0.00065 0.47794 0.14292 0.0
C1157 C 0.00172 0.51692 0.21124 0.0
H1158 H 0.00172 0.52752 0.14305 0.0
C1159 C 0.0011 0.48827 0.21117 0.0
C1160 C 0.00071 0.47342 0.18666 0.0
H1161 H 0.00203 0.52738 0.23057 0.0
H1162 H 0.00097 0.47774 0.23044 0.0
C1163 C 0.00093 0.48837 0.16226 0.0
C1164 C 0.51731 0.00168 0.84263 0.0
C1165 C 0.53208 0.00146 0.81813 0.0
H1166 H 0.47829 0.00252 0.86208 0.0
C1167 C 0.5171 0.00197 0.79371 0.0
H1168 H 0.52788 0.00133 0.8619 0.0
C1169 C 0.48847 0.00265 0.79382 0.0
C1170 C 0.4737 0.00288 0.81834 0.0
H1171 H 0.52749 0.00183 0.77437 0.0
H1172 H 0.4779 0.003 0.77455 0.0
C1173 C 0.48869 0.00239 0.84274 0.0
C1174 C -0.00024 0.51848 0.84359 0.0
C1175 C 0.00035 0.53319 0.81904 0.0
H1176 H -0.00075 0.4795 0.86312 0.0
C1177 C 0.00094 0.51818 0.79467 0.0
H1178 H -0.00071 0.52909 0.86282 0.0
C1179 C 0.00093 0.48956 0.79485 0.0
C1180 C 0.00031 0.47485 0.8194 0.0
H1181 H 0.0014 0.52853 0.77531 0.0
H1182 H 0.00138 0.47896 0.7756 0.0
C1183 C -0.00027 0.48986 0.84376 0.0
C1184 C 0.15883 0.51833 0.00124 0.0
C1185 C 0.18355 0.5328 0.00066 0.0
H1186 H 0.13888 0.47952 0.00201 0.0
C1187 C 0.20777 0.5176 0.00044 0.0
H1188 H 0.1397 0.5291 0.00146 0.0
C1189 C 0.20729 0.48899 0.00079 0.0
C1190 C 0.18257 0.47452 0.00138 0.0
H1191 H 0.22725 0.52778 2e-05 0.0
H1192 H 0.22644 0.47823 0.00058 0.0
C1193 C 0.15835 0.48972 0.00159 0.0
C1194 C 0.51607 0.16265 0.00123 0.0
C1195 C 0.5315 0.18678 0.00123 0.0
H1196 H 0.47654 0.14421 0.00128 0.0
C1197 C 0.51721 0.21159 0.00133 0.0
H1198 H 0.52609 0.14311 0.00117 0.0
C1199 C 0.48859 0.21223 0.00136 0.0
C1200 C 0.47316 0.18808 0.00135 0.0
H1201 H 0.52814 0.23067 0.00132 0.0
H1202 H 0.47855 0.23177 0.00139 0.0
C1203 C 0.48746 0.16329 0.0013 0.0
C1204 C 0.84394 0.51494 0.00602 0.0
C1205 C 0.81996 0.53035 0.00811 0.0
H1206 H 0.86206 0.47538 0.00352 0.0
C1207 C 0.7951 0.51611 0.00913 0.0
H1208 H 0.86349 0.52497 0.0051 0.0
C1209 C 0.79425 0.48755 0.00811 0.0
C1210 C 0.81823 0.47213 0.00607 0.0
H1211 H 0.77611 0.52705 0.01058 0.0
H1212 H 0.77468 0.47757 0.00896 0.0
C1213 C 0.8431 0.48635 0.00507 0.0
C1214 C 0.5165 0.84278 0.00345 0.0
C1215 C 0.53148 0.81842 0.00408 0.0
H1216 H 0.4773 0.86182 0.00216 0.0
C1217 C 0.51673 0.79384 0.00371 0.0
H1218 H 0.52688 0.86216 0.00367 0.0
C1219 C 0.48812 0.79363 0.00279 0.0
C1220 C 0.47313 0.818 0.00223 0.0
H1221 H 0.52731 0.77459 0.00406 0.0
H1222 H 0.47774 0.77425 0.00254 0.0
C1223 C 0.48788 0.84258 0.00257 0.0
C1224 C 0.50025 0.65969 0.98721 0.0
C1225 C 0.49955 0.68375 0.97173 0.0
H1226 H 0.50147 0.64142 0.02681 0.0
C1227 C 0.49974 0.7086 0.98605 0.0
H1228 H 0.50017 0.64013 0.97719 0.0
C1229 C 0.50055 0.70936 0.01465 0.0
C1230 C 0.50116 0.6853 0.03014 0.0
H1231 H 0.49932 0.72767 0.97513 0.0
H1232 H 0.50065 0.72894 0.02463 0.0
C1233 C 0.50101 0.66045 0.01585 0.0
C1234 C 0.34681 0.51443 0.98732 0.0
C1235 C 0.32795 0.49956 0.97177 0.0
H1236 H 0.36079 0.52582 0.02709 0.0
C1237 C 0.30769 0.48494 0.9857 0.0
H1238 H 0.36268 0.52593 0.97737 0.0
C1239 C 0.30609 0.48556 0.01426 0.0
C1240 C 0.32524 0.50008 0.02983 0.0
H1241 H 0.29268 0.47342 0.97446 0.0
H1242 H 0.29003 0.47431 0.0242 0.0
C1243 C 0.34575 0.51432 0.01589 0.0
C1244 C 0.50697 0.3465 0.98688 0.0
C1245 C 0.50707 0.32233 0.97154 0.0
H1246 H 0.50657 0.36507 0.02636 0.0
C1247 C 0.50693 0.29757 0.98596 0.0
H1248 H 0.50706 0.366 0.97677 0.0
C1249 C 0.50661 0.29702 0.01458 0.0
C1250 C 0.50645 0.32121 0.02993 0.0
H1251 H 0.50697 0.27844 0.97514 0.0
H1252 H 0.50645 0.27751 0.02468 0.0
C1253 C 0.50668 0.34595 0.01551 0.0
C1254 C 0.65906 0.50058 0.98923 0.0
C1255 C 0.67982 0.51221 0.97337 0.0
H1256 H 0.64416 0.49097 0.029 0.0
C1257 C 0.70245 0.52319 0.98712 0.0
H1258 H 0.64132 0.49188 0.97956 0.0
C1259 C 0.7044 0.52208 0.01574 0.0
C1260 C 0.68347 0.51056 0.03157 0.0
H1261 H 0.71899 0.53211 0.97573 0.0
H1262 H 0.72225 0.53045 0.02549 0.0
C1263 C 0.66069 0.50007 0.01775 0.0
C1264 C 0.9846 0.51726 0.65713 0.0
C1265 C 0.97051 0.50206 0.67683 0.0
H1266 H 0.02326 0.52923 0.64068 0.0
C1267 C 0.98594 0.48611 0.69487 0.0
H1268 H 0.97351 0.52984 0.64294 0.0
C1269 C 0.0145 0.48506 0.69298 0.0
C1270 C 0.02859 0.50065 0.67358 0.0
H1271 H 0.97589 0.47407 0.71027 0.0
H1272 H 0.02562 0.47244 0.70712 0.0
C1273 C 0.01319 0.51694 0.65585 0.0
C1274 C 0.50128 0.98826 0.71079 0.0
C1275 C 0.50101 0.97354 0.68621 0.0
H1276 H 0.50193 0.02726 0.7304 0.0
C1277 C 0.50117 0.98861 0.66188 0.0
H1278 H 0.50118 0.97763 0.73001 0.0
C1279 C 0.50162 0.01724 0.6621 0.0
C1280 C 0.50192 0.03196 0.68666 0.0
H1281 H 0.50099 0.97827 0.64249 0.0
H1282 H 0.50175 0.02785 0.64287 0.0
C1283 C 0.50172 0.0169 0.71102 0.0
C1284 C 0.98846 0.50316 0.29338 0.0
C1285 C 0.97381 0.50339 0.31797 0.0
H1286 H 0.02741 0.50255 0.27374 0.0
C1287 C 0.98892 0.50311 0.34229 0.0
H1288 H 0.97779 0.50335 0.27417 0.0
C1289 C 0.01755 0.50263 0.34205 0.0
C1290 C 0.0322 0.50242 0.31747 0.0
H1291 H 0.97863 0.50326 0.36169 0.0
H1292 H 0.0282 0.50244 0.36127 0.0
C1293 C 0.0171 0.50269 0.29313 0.0
C1294 C 0.50122 0.01778 0.29489 0.0
C1295 C 0.50044 0.03258 0.31939 0.0
H1296 H 0.50214 0.97872 0.27548 0.0
C1297 C 0.50003 0.01766 0.34381 0.0
H1298 H 0.50158 0.0283 0.27561 0.0
C1299 C 0.50035 0.98904 0.34373 0.0
C1300 C 0.50112 0.97424 0.31924 0.0
H1301 H 0.49943 0.02811 0.36313 0.0
H1302 H 0.49996 0.97851 0.363 0.0
C1303 C 0.50157 0.98916 0.29481 0.0
C1304 C 0.70763 0.99005 0.50095 0.0
C1305 C 0.68295 0.97548 0.50128 0.0
H1306 H 0.72746 0.02891 0.50059 0.0
C1307 C 0.65868 0.99059 0.50146 0.0
H1308 H 0.72682 0.97935 0.50077 0.0
C1309 C 0.65907 0.0192 0.50134 0.0
C1310 C 0.68374 0.03377 0.50101 0.0
H1311 H 0.63925 0.98032 0.50168 0.0
H1312 H 0.63989 0.02991 0.50152 0.0
C1313 C 0.70802 0.01865 0.50081 0.0
C1314 C 0.01622 0.66176 0.50339 0.0
C1315 C 0.03163 0.68591 0.50322 0.0
H1316 H 0.97668 0.64327 0.50346 0.0
C1317 C 0.01728 0.71069 0.50311 0.0
H1318 H 0.02629 0.64224 0.50348 0.0
C1319 C 0.98866 0.71129 0.50307 0.0
C1320 C 0.97325 0.68713 0.50318 0.0
H1321 H 0.02816 0.7298 0.50297 0.0
H1322 H 0.97862 0.73083 0.50291 0.0
C1323 C 0.98759 0.66236 0.50339 0.0
C1324 C 0.29401 0.98766 0.50762 0.0
C1325 C 0.31808 0.97235 0.50567 0.0
H1326 H 0.27567 0.02708 0.51015 0.0
C1327 C 0.34288 0.98671 0.50489 0.0
H1328 H 0.27448 0.97758 0.5083 0.0
C1329 C 0.34358 0.0153 0.50597 0.0
C1330 C 0.31952 0.03059 0.50799 0.0
H1331 H 0.3619 0.97584 0.50341 0.0
H1332 H 0.36308 0.02542 0.50523 0.0
C1333 C 0.29472 0.01623 0.50878 0.0
C1334 C 0.01667 0.34279 0.50102 0.0
C1335 C 0.03152 0.31834 0.50121 0.0
H1336 H 0.9776 0.36208 0.5009 0.0
C1337 C 0.01664 0.29384 0.50144 0.0
H1338 H 0.02716 0.36211 0.50084 0.0
C1339 C 0.98801 0.29382 0.50146 0.0
C1340 C 0.97316 0.3183 0.50127 0.0
H1341 H 0.02711 0.27453 0.50157 0.0
H1342 H 0.9775 0.27451 0.50161 0.0
C1343 C 0.98806 0.34277 0.50106 0.0
C1344 C 0.02368 0.23659 0.25708 0.0
C1345 C -0.00067 0.22723 0.26873 0.0
H1346 H 0.04274 0.26445 0.22971 0.0
C1347 C 0.9747 0.23779 0.25884 0.0
H1348 H 0.04307 0.22893 0.26403 0.0
C1349 C 0.97451 0.25828 0.23906 0.0
C1350 C -0.00105 0.26878 0.22861 0.0
H1351 H 0.95552 0.23111 0.26722 0.0
H1352 H 0.95518 0.26668 0.23285 0.0
C1353 C 0.02349 0.25705 0.23732 0.0
C1354 C 0.77292 0.99221 0.25013 0.0
C1355 C 0.77148 0.0111 0.27159 0.0
H1356 H 0.75291 0.97568 0.2147 0.0
C1357 C 0.75064 0.03056 0.27102 0.0
H1358 H 0.78854 0.97678 0.25012 0.0
C1359 C 0.73052 0.02988 0.2511 0.0
C1360 C 0.73053 0.00983 0.23088 0.0
H1361 H 0.74897 0.04553 0.28704 0.0
H1362 H 0.71394 0.04425 0.25244 0.0
C1363 C 0.75253 0.99158 0.22987 0.0
C1364 C 0.98196 0.76909 0.25757 0.0
C1365 C 0.00656 0.77822 0.26898 0.0
H1366 H 0.96228 0.74137 0.23042 0.0
C1367 C 0.03095 0.76738 0.25886 0.0
H1368 H 0.96274 0.77696 0.26469 0.0
C1369 C 0.03068 0.74687 0.23909 0.0
C1370 C 0.006 0.7366 0.22888 0.0
H1371 H 0.0503 0.77387 0.26705 0.0
H1372 H 0.04984 0.73826 0.23269 0.0
C1373 C 0.98169 0.74859 0.23783 0.0
C1374 C 0.25405 0.02216 0.23521 0.0
C1375 C 0.27065 -0.00034 0.22912 0.0
H1376 H 0.22348 0.03894 0.2616 0.0
C1377 C 0.26699 0.97573 0.24429 0.0
H1378 H 0.25632 0.04094 0.22404 0.0
C1379 C 0.24871 0.97485 0.26599 0.0
C1380 C 0.23292 -0.00244 0.27275 0.0
H1381 H 0.27936 0.958 0.24044 0.0
H1382 H 0.24755 0.95656 0.27813 0.0
C1383 C 0.23513 0.021 0.25663 0.0
C1384 C 0.02559 0.74788 0.7667 0.0
C1385 C 0.00072 0.73702 0.7757 0.0
H1386 H 0.04592 0.77475 0.73922 0.0
C1387 C 0.97658 0.74794 0.76504 0.0
H1388 H 0.04463 0.74013 0.77444 0.0
C1389 C 0.97734 0.76791 0.74476 0.0
C1390 C 0.00225 0.77752 0.73454 0.0
H1391 H 0.95704 0.74021 0.77145 0.0
H1392 H 0.95832 0.77491 0.73625 0.0
C1393 C 0.02634 0.76783 0.74641 0.0
C1394 C 0.25758 0.98084 0.76745 0.0
C1395 C 0.26887 0.00526 0.77712 0.0
H1396 H 0.23018 0.96179 0.73957 0.0
C1397 C 0.25802 0.02989 0.76756 0.0
H1398 H 0.26526 0.96146 0.77438 0.0
C1399 C 0.23779 0.03009 0.74753 0.0
C1400 C 0.22788 0.00565 0.73649 0.0
H1401 H 0.26606 0.04912 0.77458 0.0
H1402 H 0.23094 0.04946 0.73976 0.0
C1403 C 0.23738 0.98104 0.74741 0.0
C1404 C 0.0261 0.26139 0.76548 0.0
C1405 C 0.00141 0.27146 0.77569 0.0
H1406 H 0.04578 0.2351 0.73697 0.0
C1407 C 0.97709 0.2598 0.76618 0.0
H1408 H 0.04526 0.26977 0.77229 0.0
C1409 C 0.97739 0.23987 0.74587 0.0
C1410 C 0.00201 0.231 0.73445 0.0
H1411 H 0.95766 0.26688 0.77358 0.0
H1412 H 0.95818 0.23227 0.73833 0.0
C1413 C 0.0264 0.24144 0.74514 0.0
C1414 C 0.76724 0.02432 0.74523 0.0
C1415 C 0.7765 -2e-05 0.73348 0.0
H1416 H 0.73992 0.04327 0.77318 0.0
C1417 C 0.76643 0.9753 0.74379 0.0
H1418 H 0.77455 0.04374 0.73798 0.0
C1419 C 0.74648 0.97504 0.76408 0.0
C1420 C 0.73603 -0.00056 0.77466 0.0
H1421 H 0.77307 0.95613 0.73536 0.0
H1422 H 0.7384 0.95566 0.7706 0.0
C1423 C 0.74731 0.02405 0.76552 0.0
C1424 C 0.25672 0.24093 0.02252 0.0
C1425 C 0.26897 0.23278 -0.00195 0.0
H1426 H 0.22793 0.26691 0.04206 0.0
C1427 C 0.2588 0.24357 0.97362 0.0
H1428 H 0.26383 0.23305 0.04175 0.0
C1429 C 0.23807 0.26311 0.9738 0.0
C1430 C 0.22693 0.2724 -0.00159 0.0
H1431 H 0.26763 0.23781 0.95435 0.0
H1432 H 0.23163 0.27176 0.95466 0.0
C1433 C 0.23602 0.26043 0.0227 0.0
C1434 C 0.25737 0.76766 0.02546 0.0
C1435 C 0.26791 0.77743 0.00078 0.0
H1436 H 0.2305 0.73972 0.04514 0.0
C1437 C 0.25625 0.76804 0.97644 0.0
H1438 H 0.26568 0.77446 0.04464 0.0
C1439 C 0.23597 0.74806 0.97673 0.0
C1440 C 0.2268 0.73689 0.00138 0.0
H1441 H 0.2637 0.77513 0.95703 0.0
H1442 H 0.22847 0.74043 0.95753 0.0
C1443 C 0.23711 0.74766 0.02575 0.0
C1444 C 0.76733 0.25557 0.97904 0.0
C1445 C 0.77597 0.26698 0.0038 0.0
H1446 H 0.74034 0.228 0.95897 0.0
C1447 C 0.76558 0.2561 0.02805 0.0
H1448 H 0.77495 0.26326 0.95993 0.0
C1449 C 0.74566 0.23575 0.02748 0.0
C1450 C 0.73559 0.22577 0.00265 0.0
H1451 H 0.77178 0.26424 0.0475 0.0
H1452 H 0.73719 0.22887 0.04654 0.0
C1453 C 0.7474 0.23527 0.97848 0.0
C1454 C 0.76729 0.7455 0.02455 0.0
C1455 C 0.77458 0.73211 0.00039 0.0
H1456 H 0.74137 0.77467 0.04369 0.0
C1457 C 0.76243 0.74061 0.97599 0.0
H1458 H 0.77622 0.7396 0.04374 0.0
C1459 C 0.74244 0.76082 0.97596 0.0
C1460 C 0.73397 0.77305 0.00033 0.0
H1461 H 0.76757 0.73093 0.95695 0.0
H1462 H 0.73283 0.76599 0.95688 0.0
C1463 C 0.74724 0.76567 0.02453 0.0
C1464 C 0.47475 0.7385 0.75807 0.0
C1465 C 0.49933 0.7286 0.76874 0.0
H1466 H 0.45537 0.76662 0.73114 0.0
C1467 C 0.52379 0.7382 0.75751 0.0
H1468 H 0.4555 0.73161 0.76613 0.0
C1469 C 0.52371 0.75825 0.73736 0.0
C1470 C 0.49918 0.7694 0.72789 0.0
H1471 H 0.54314 0.731 0.76504 0.0
H1472 H 0.54301 0.76586 0.7301 0.0
C1473 C 0.47468 0.75865 0.73795 0.0
C1474 C 0.25262 0.51368 0.72829 0.0
C1475 C 0.22891 0.49803 0.73187 0.0
H1476 H 0.29034 0.52737 0.74624 0.0
C1477 C 0.22721 0.48109 0.75471 0.0
H1478 H 0.2544 0.52713 0.71103 0.0
C1479 C 0.24746 0.48118 0.77448 0.0
C1480 C 0.27021 0.49821 0.77221 0.0
H1481 H 0.20935 0.46867 0.75804 0.0
H1482 H 0.24455 0.46886 0.79246 0.0
C1483 C 0.27319 0.51379 0.74841 0.0
C1484 C 0.48186 0.24886 0.73802 0.0
C1485 C 0.50613 0.2367 0.7292 0.0
H1486 H 0.463 0.27748 0.76468 0.0
C1487 C 0.53084 0.24693 0.73937 0.0
H1488 H 0.46243 0.24168 0.73063 0.0
C1489 C 0.53118 0.26757 0.759 0.0
C1490 C 0.50682 0.27857 0.76901 0.0
H1491 H 0.54997 0.2382 0.73305 0.0
H1492 H 0.55055 0.27403 0.76717 0.0
C1493 C 0.4822 0.26948 0.75763 0.0
C1494 C 0.73369 0.52077 0.75669 0.0
C1495 C 0.73138 0.49752 0.77306 0.0
H1496 H 0.75505 0.54033 0.72401 0.0
C1497 C 0.74712 0.47468 0.76656 0.0
H1498 H 0.72208 0.5388 0.76144 0.0
C1499 C 0.76549 0.47529 0.74492 0.0
C1500 C 0.76928 0.49907 0.72956 0.0
H1501 H 0.74588 0.45652 0.77889 0.0
H1502 H 0.77788 0.45752 0.74129 0.0
C1503 C 0.75269 0.52166 0.73535 0.0
C1504 C 0.47726 0.24705 0.26503 0.0
C1505 C 0.50137 0.23585 0.27547 0.0
H1506 H 0.45903 0.27423 0.23642 0.0
C1507 C 0.52627 0.24638 0.26618 0.0
H1508 H 0.45769 0.23958 0.27166 0.0
C1509 C 0.52706 0.26632 0.24588 0.0
C1510 C 0.50296 0.27633 0.23427 0.0
H1511 H 0.5453 0.2384 0.27374 0.0
H1512 H 0.54664 0.27301 0.23849 0.0
C1513 C 0.47804 0.267 0.24472 0.0
C1514 C 0.73807 0.53047 0.24768 0.0
C1515 C 0.72806 0.50598 0.23684 0.0
H1516 H 0.76641 0.54962 0.27458 0.0
C1517 C 0.73743 0.48142 0.248 0.0
H1518 H 0.73132 0.5498 0.23973 0.0
C1519 C 0.75761 0.48132 0.26806 0.0
C1520 C 0.76901 0.50577 0.27751 0.0
H1521 H 0.73015 0.46214 0.24032 0.0
H1522 H 0.76519 0.46196 0.27517 0.0
C1523 C 0.75829 0.53036 0.26773 0.0
C1524 C 0.52577 0.73938 0.24667 0.0
C1525 C 0.50136 0.72965 0.23537 0.0
H1526 H 0.54475 0.76725 0.27418 0.0
C1527 C 0.47672 0.73917 0.2462 0.0
H1528 H 0.54515 0.7325 0.23898 0.0
C1529 C 0.47649 0.75916 0.26645 0.0
C1530 C 0.50089 0.77021 0.27646 0.0
H1531 H 0.4575 0.73212 0.23817 0.0
H1532 H 0.4571 0.76683 0.27333 0.0
C1533 C 0.52554 0.75938 0.26694 0.0
C1534 C 0.26656 0.47561 0.24325 0.0
C1535 C 0.27691 0.50017 0.23294 0.0
H1536 H 0.23824 0.45629 0.27 0.0
C1537 C 0.26782 0.52462 0.2446 0.0
H1538 H 0.27305 0.45636 0.23489 0.0
C1539 C 0.24781 0.52458 0.26482 0.0
C1540 C 0.23626 0.50009 0.27397 0.0
H1541 H 0.27534 0.54395 0.23735 0.0
H1542 H 0.24058 0.54388 0.27242 0.0
C1543 C 0.24652 0.47557 0.26347 0.0
C1544 C 0.73636 0.76097 0.52219 0.0
C1545 C 0.72773 0.77307 0.4978 0.0
H1546 H 0.76362 0.73328 0.54158 0.0
C1547 C 0.7391 0.7637 0.47333 0.0
H1548 H 0.72807 0.76749 0.54146 0.0
C1549 C 0.75962 0.74395 0.4734 0.0
C1550 C 0.76935 0.73303 0.49795 0.0
H1551 H 0.733 0.77246 0.45412 0.0
H1552 H 0.76865 0.73813 0.45425 0.0
C1553 C 0.75685 0.74126 0.52226 0.0
C1554 C 0.75672 0.26826 0.47667 0.0
C1555 C 0.76833 0.27782 0.50096 0.0
H1556 H 0.72878 0.2407 0.45792 0.0
C1557 C 0.75762 0.26836 0.52569 0.0
H1558 H 0.76429 0.27511 0.45722 0.0
C1559 C 0.7372 0.24852 0.5261 0.0
C1560 C 0.72688 0.23762 0.50179 0.0
H1561 H 0.76589 0.2753 0.54484 0.0
H1562 H 0.73045 0.24083 0.54554 0.0
C1563 C 0.73626 0.24845 0.47708 0.0
C1564 C 0.24573 0.73664 0.52831 0.0
C1565 C 0.23569 0.72643 0.50357 0.0
H1566 H 0.27199 0.76517 0.54809 0.0
C1567 C 0.24768 0.73554 0.47933 0.0
H1568 H 0.23714 0.73006 0.54742 0.0
C1569 C 0.26777 0.75569 0.47972 0.0
C1570 C 0.2764 0.76732 0.50436 0.0
H1571 H 0.24065 0.72806 0.45988 0.0
H1572 H 0.27552 0.76307 0.46054 0.0
C1573 C 0.26581 0.75684 0.52871 0.0
C1574 C 0.24684 0.26661 0.52385 0.0
C1575 C 0.2343 0.2745 0.49942 0.0
H1576 H 0.27499 0.23994 0.54348 0.0
C1577 C 0.24322 0.26242 0.47513 0.0
H1578 H 0.24062 0.27546 0.54297 0.0
C1579 C 0.26291 0.2419 0.47543 0.0
C1580 C 0.27434 0.23295 0.50002 0.0
H1581 H 0.23414 0.26794 0.45589 0.0
H1582 H 0.2684 0.23236 0.45642 0.0
C1583 C 0.26662 0.24617 0.52414 0.0
C1584 C 0.08628 0.10385 0.33117 0.0
C1585 C 0.07593 0.1133 0.35598 0.0
H1586 H 0.11545 0.07825 0.3115 0.0
C1587 C 0.08785 0.10463 0.38032 0.0
H1588 H 0.07741 0.11031 0.31212 0.0
C1589 C 0.10975 0.08692 0.37994 0.0
C1590 C 0.11994 0.07709 0.35524 0.0
H1591 H 0.08047 0.11179 0.39974 0.0
H1592 H 0.11837 0.08056 0.39914 0.0
C1593 C 0.10797 0.08558 0.33081 0.0
C1594 C 0.92534 0.09808 0.32582 0.0
C1595 C 0.94405 0.09944 0.34742 0.0
H1596 H 0.89056 0.07768 0.30923 0.0
C1597 C 0.94483 0.0782 0.36637 0.0
H1598 H 0.92448 0.11396 0.31067 0.0
C1599 C 0.92553 0.05761 0.36545 0.0
C1600 C 0.90528 0.05768 0.34543 0.0
H1601 H 0.95926 0.0783 0.38296 0.0
H1602 H 0.92541 0.04252 0.38144 0.0
C1603 C 0.90608 0.07722 0.32479 0.0
C1604 C 0.92864 0.91146 0.37743 0.0
C1605 C 0.9351 0.89645 0.35413 0.0
H1606 H 0.90293 0.94103 0.39543 0.0
C1607 C 0.92082 0.90143 0.32989 0.0
H1608 H 0.93926 0.90828 0.39641 0.0
C1609 C 0.8999 0.92061 0.32929 0.0
C1610 C 0.89283 0.93463 0.35303 0.0
H1611 H 0.92551 0.89025 0.31156 0.0
H1612 H 0.88873 0.92379 0.31064 0.0
C1613 C 0.90768 0.93019 0.37691 0.0
C1614 C 0.07816 0.94975 0.36492 0.0
C1615 C 0.0995 0.94994 0.34613 0.0
H1616 H 0.04474 0.92794 0.38149 0.0
C1617 C 0.10107 0.9293 0.32657 0.0
H1618 H 0.07641 0.96561 0.38005 0.0
C1619 C 0.08305 0.90735 0.32758 0.0
C1620 C 0.06325 0.90596 0.34808 0.0
H1621 H 0.11747 0.92898 0.31196 0.0
H1622 H 0.08569 0.8908 0.31336 0.0
C1623 C 0.06016 0.92803 0.36585 0.0
C1624 C 0.11297 0.91594 0.66827 0.0
C1625 C 0.11183 0.9371 0.64919 0.0
H1626 H 0.09501 0.87902 0.68253 0.0
C1627 C 0.08994 0.93828 0.631 0.0
H1628 H 0.12957 0.91458 0.68262 0.0
C1629 C 0.07028 0.91807 0.63096 0.0
C1630 C 0.07205 0.89618 0.6491 0.0
H1631 H 0.08826 0.95451 0.61628 0.0
H1632 H 0.05403 0.91934 0.61621 0.0
C1633 C 0.0932 0.8956 0.66823 0.0
C1634 C 0.06619 0.08855 0.63193 0.0
C1635 C 0.06714 0.1102 0.65043 0.0
H1636 H 0.08535 0.0528 0.61706 0.0
C1637 C 0.08758 0.11075 0.6703 0.0
H1638 H 0.05044 0.08731 0.61663 0.0
C1639 C 0.1077 0.09085 0.67056 0.0
C1640 C 0.10763 0.07015 0.65095 0.0
H1641 H 0.08872 0.1271 0.68495 0.0
H1642 H 0.12387 0.09237 0.68538 0.0
C1643 C 0.08622 0.06873 0.63219 0.0
C1644 C 0.93848 0.08766 0.63411 0.0
C1645 C 0.93604 0.1103 0.6512 0.0
H1646 H 0.92082 0.05082 0.62008 0.0
C1647 C 0.91431 0.11165 0.66958 0.0
H1648 H 0.95527 0.0858 0.62005 0.0
C1649 C 0.89439 0.09147 0.66958 0.0
C1650 C 0.89604 0.06973 0.65122 0.0
H1651 H 0.91202 0.12884 0.68309 0.0
H1652 H 0.8772 0.09353 0.68309 0.0
C1653 C 0.91871 0.06759 0.63413 0.0
C1654 C 0.94121 0.92014 0.63108 0.0
C1655 C 0.94046 0.89881 0.64992 0.0
H1656 H 0.92179 0.95554 0.61573 0.0
C1657 C 0.92021 0.89859 0.66996 0.0
H1658 H 0.9568 0.92111 0.61563 0.0
C1659 C 0.90001 0.9184 0.67001 0.0
C1660 C 0.89983 0.93872 0.65003 0.0
H1661 H 0.91923 0.88248 0.68487 0.0
H1662 H 0.88397 0.9171 0.68496 0.0
C1663 C 0.92111 0.93989 0.63114 0.0
C1664 C 0.33211 0.093 0.10647 0.0
C1665 C 0.35054 0.07132 0.10497 0.0
H1666 H 0.31903 0.13062 0.0891 0.0
C1667 C 0.36828 0.06964 0.08277 0.0
H1668 H 0.31813 0.09475 0.12332 0.0
C1669 C 0.36885 0.09005 0.06337 0.0
C1670 C 0.35164 0.11259 0.06568 0.0
H1671 H 0.38243 0.05295 0.08076 0.0
H1672 H 0.38337 0.08848 0.04697 0.0
C1673 C 0.33265 0.11353 0.08692 0.0
C1674 C 0.93703 0.3718 0.0858 0.0
C1675 C 0.93615 0.35299 0.10716 0.0
H1676 H 0.91815 0.38665 0.04985 0.0
C1677 C 0.9164 0.33239 0.10679 0.0
H1678 H 0.95228 0.38765 0.08524 0.0
C1679 C 0.89676 0.33179 0.08638 0.0
C1680 C 0.8966 0.35178 0.06607 0.0
H1681 H 0.91535 0.31746 0.12287 0.0
H1682 H 0.88101 0.31647 0.0873 0.0
C1683 C 0.91747 0.37119 0.06546 0.0
C1684 C 0.6771 0.92219 0.10122 0.0
C1685 C 0.65556 0.94067 0.10284 0.0
H1686 H 0.69262 0.88665 0.0816 0.0
C1687 C 0.63495 0.94004 0.08324 0.0
H1688 H 0.69319 0.92241 0.11622 0.0
C1689 C 0.63461 0.91991 0.06356 0.0
C1690 C 0.65476 0.89981 0.06326 0.0
H1691 H 0.61834 0.95441 0.08391 0.0
H1692 H 0.61775 0.91939 0.04945 0.0
C1693 C 0.67666 0.90173 0.08154 0.0
C1694 C 0.0672 0.63209 0.08697 0.0
C1695 C 0.06846 0.65092 0.1083 0.0
H1696 H 0.08553 0.61705 0.05088 0.0
C1697 C 0.08859 0.67114 0.10799 0.0
H1698 H 0.05166 0.61652 0.08639 0.0
C1699 C 0.10811 0.67145 0.08752 0.0
C1700 C 0.10773 0.65156 0.0671 0.0
H1701 H 0.08994 0.68604 0.12409 0.0
H1702 H 0.12407 0.68656 0.08835 0.0
C1703 C 0.08662 0.63241 0.06657 0.0
C1704 C 0.37501 0.93638 0.91524 0.0
C1705 C 0.35579 0.93626 0.89422 0.0
H1706 H 0.39085 0.91609 0.9499 0.0
C1707 C 0.3361 0.91562 0.89335 0.0
H1708 H 0.39029 0.95215 0.91665 0.0
C1709 C 0.33646 0.89477 0.9125 0.0
C1710 C 0.3565 0.8943 0.93278 0.0
H1711 H 0.32098 0.91504 0.8774 0.0
H1712 H 0.32154 0.87868 0.91092 0.0
C1713 C 0.37536 0.91564 0.93431 0.0
C1714 C 0.07975 0.37333 0.94142 0.0
C1715 C 0.10055 0.35388 0.94084 0.0
H1716 H 0.04459 0.38928 0.92195 0.0
C1717 C 0.09967 0.33312 0.92133 0.0
H1718 H 0.07959 0.38933 0.9565 0.0
C1719 C 0.07951 0.33308 0.90145 0.0
C1720 C 0.05997 0.35382 0.90082 0.0
H1721 H 0.11529 0.3177 0.92053 0.0
H1722 H 0.08011 0.31763 0.88582 0.0
C1723 C 0.05966 0.37329 0.9216 0.0
C1724 C 0.66949 0.10768 0.91374 0.0
C1725 C 0.64917 0.10796 0.93372 0.0
H1726 H 0.68541 0.08775 0.87865 0.0
C1727 C 0.63047 0.08648 0.9349 0.0
H1728 H 0.68429 0.12389 0.91245 0.0
C1729 C 0.63117 0.06584 0.91571 0.0
C1730 C 0.65055 0.06624 0.89486 0.0
H1731 H 0.61482 0.08586 0.9503 0.0
H1732 H 0.61596 0.04999 0.9168 0.0
C1733 C 0.67017 0.08696 0.89444 0.0
C1734 C 0.91252 0.66999 0.89578 0.0
C1735 C 0.93423 0.65155 0.89631 0.0
H1736 H 0.8756 0.68293 0.91457 0.0
C1737 C 0.93659 0.63343 0.91816 0.0
H1738 H 0.91025 0.68426 0.87923 0.0
C1739 C 0.91688 0.63265 0.93825 0.0
C1740 C 0.89432 0.64996 0.93697 0.0
H1741 H 0.95331 0.61922 0.91938 0.0
H1742 H 0.91898 0.61787 0.95438 0.0
C1743 C 0.89268 0.6692 0.91599 0.0
C1744 C 0.10745 0.33609 0.09016 0.0
C1745 C 0.10696 0.3559 0.06968 0.0
H1746 H 0.08866 0.32087 0.12621 0.0
C1747 C 0.08535 0.37441 0.06868 0.0
H1748 H 0.1238 0.32147 0.09134 0.0
C1749 C 0.06536 0.37405 0.08848 0.0
C1750 C 0.06651 0.35519 0.10976 0.0
H1751 H 0.08414 0.38967 0.05292 0.0
H1752 H 0.04936 0.38907 0.08743 0.0
C1753 C 0.08733 0.33573 0.11008 0.0
C1754 C 0.08564 0.63272 0.93658 0.0
C1755 C 0.10718 0.65134 0.93526 0.0
H1756 H 0.04951 0.61774 0.91813 0.0
C1757 C 0.10728 0.67117 0.91479 0.0
H1758 H 0.08476 0.61743 0.95233 0.0
C1759 C 0.08694 0.67136 0.8951 0.0
C1760 C 0.06626 0.65171 0.89561 0.0
H1761 H 0.12354 0.6859 0.91338 0.0
H1762 H 0.08803 0.6862 0.87894 0.0
C1763 C 0.06539 0.6329 0.91696 0.0
C1764 C 0.33467 0.11076 0.91522 0.0
C1765 C 0.35467 0.11132 0.93552 0.0
H1766 H 0.3197 0.09085 0.87969 0.0
C1767 C 0.37371 0.09017 0.9369 0.0
H1768 H 0.31962 0.12668 0.91375 0.0
C1769 C 0.37378 0.06973 0.91746 0.0
C1770 C 0.35479 0.06997 0.89624 0.0
H1771 H 0.38917 0.08978 0.95254 0.0
H1772 H 0.38929 0.05421 0.91864 0.0
C1773 C 0.33472 0.09021 0.89573 0.0
C1774 C 0.93037 0.37562 0.9143 0.0
C1775 C 0.9291 0.3575 0.89238 0.0
H1776 H 0.91181 0.39006 0.95041 0.0
C1777 C 0.90781 0.33855 0.89103 0.0
H1778 H 0.94668 0.39028 0.91611 0.0
C1779 C 0.8876 0.33844 0.91086 0.0
C1780 C 0.88848 0.35725 0.93228 0.0
H1781 H 0.90637 0.32431 0.87435 0.0
H1782 H 0.87104 0.32407 0.90908 0.0
C1783 C 0.91032 0.37549 0.93402 0.0
C1784 C 0.66899 0.91118 0.89338 0.0
C1785 C 0.65027 0.93266 0.89439 0.0
H1786 H 0.6825 0.87403 0.91137 0.0
C1787 C 0.63195 0.93413 0.91611 0.0
H1788 H 0.6834 0.90956 0.87688 0.0
C1789 C 0.63142 0.91391 0.93571 0.0
C1790 C 0.64918 0.8917 0.93405 0.0
H1791 H 0.61748 0.95059 0.91767 0.0
H1792 H 0.61658 0.91544 0.95183 0.0
C1793 C 0.66844 0.89082 0.91307 0.0
C1794 C 0.91935 0.6718 0.10823 0.0
C1795 C 0.93951 0.65169 0.10849 0.0
H1796 H 0.88349 0.68678 0.08891 0.0
C1797 C 0.9406 0.63275 0.08723 0.0
H1798 H 0.91814 0.68679 0.12426 0.0
C1799 C 0.92088 0.63274 0.06709 0.0
C1800 C 0.89966 0.65169 0.06777 0.0
H1801 H 0.95618 0.61727 0.08658 0.0
H1802 H 0.92177 0.61725 0.05152 0.0
C1803 C 0.89954 0.67181 0.08798 0.0
C1804 C 0.33198 0.91764 0.10355 0.0
C1805 C 0.35127 0.93864 0.10294 0.0
H1806 H 0.31815 0.8806 0.08555 0.0
C1807 C 0.36996 0.93973 0.08146 0.0
H1808 H 0.31723 0.91635 0.11978 0.0
C1809 C 0.37056 0.9193 0.06201 0.0
C1810 C 0.35242 0.89739 0.06354 0.0
H1811 H 0.38486 0.95585 0.08015 0.0
H1812 H 0.38584 0.92029 0.04626 0.0
C1813 C 0.33253 0.89717 0.08396 0.0
C1814 C 0.67394 0.10044 0.0788 0.0
C1815 C 0.65081 0.10371 0.06234 0.0
H1816 H 0.69191 0.0789 0.11211 0.0
C1817 C 0.62929 0.08519 0.06469 0.0
H1818 H 0.69099 0.11423 0.07721 0.0
C1819 C 0.62984 0.06526 0.08457 0.0
C1820 C 0.65202 0.06323 0.10229 0.0
H1821 H 0.61136 0.08682 0.05208 0.0
H1822 H 0.61234 0.0521 0.08682 0.0
C1823 C 0.67459 0.08017 0.09862 0.0
C1824 C 0.58797 0.60754 0.88096 0.0
C1825 C 0.57701 0.61743 0.85664 0.0
H1826 H 0.61726 0.58193 0.89974 0.0
C1827 C 0.58794 0.60873 0.8318 0.0
H1828 H 0.58009 0.61409 0.9004 0.0
C1829 C 0.60913 0.58983 0.83138 0.0
C1830 C 0.62006 0.58002 0.85582 0.0
H1831 H 0.57978 0.61611 0.81278 0.0
H1832 H 0.61702 0.58301 0.81205 0.0
C1833 C 0.60941 0.58926 0.88056 0.0
C1834 C 0.42472 0.55811 0.8656 0.0
C1835 C 0.40486 0.55795 0.84518 0.0
H1836 H 0.45849 0.57869 0.88316 0.0
C1837 C 0.40655 0.57672 0.8239 0.0
H1838 H 0.424 0.54353 0.88204 0.0
C1839 C 0.42623 0.59718 0.82465 0.0
C1840 C 0.44448 0.59891 0.84661 0.0
H1841 H 0.39141 0.57693 0.80795 0.0
H1842 H 0.426 0.61257 0.80897 0.0
C1843 C 0.44443 0.57831 0.86626 0.0
C1844 C 0.40977 0.4319 0.87625 0.0
C1845 C 0.39452 0.43582 0.85254 0.0
H1846 H 0.44146 0.41017 0.89575 0.0
C1847 C 0.40114 0.4213 0.82899 0.0
H1848 H 0.40533 0.44317 0.8946 0.0
C1849 C 0.42192 0.40197 0.82968 0.0
C1850 C 0.43645 0.39735 0.85384 0.0
H1851 H 0.38963 0.42408 0.81047 0.0
H1852 H 0.42619 0.39032 0.81155 0.0
C1853 C 0.43056 0.413 0.87686 0.0
C1854 C 0.55936 0.42879 0.86586 0.0
C1855 C 0.563 0.40671 0.84821 0.0
H1856 H 0.57478 0.46675 0.88 0.0
C1857 C 0.58281 0.40845 0.82775 0.0
H1858 H 0.54388 0.42844 0.88145 0.0
C1859 C 0.60035 0.43077 0.82671 0.0
C1860 C 0.59829 0.45145 0.8462 0.0
H1861 H 0.58584 0.3919 0.81361 0.0
H1862 H 0.61683 0.43072 0.81219 0.0
C1863 C 0.57689 0.45089 0.86491 0.0
C1864 C 0.59367 0.39504 0.16844 0.0
C1865 C 0.57249 0.39563 0.14935 0.0
H1866 H 0.63001 0.41406 0.18286 0.0
C1867 C 0.57066 0.41758 0.13129 0.0
H1868 H 0.59553 0.37841 0.18268 0.0
C1869 C 0.59026 0.43784 0.13138 0.0
C1870 C 0.61218 0.43666 0.14954 0.0
H1871 H 0.55438 0.41886 0.11656 0.0
H1872 H 0.58851 0.45412 0.11672 0.0
C1873 C 0.61339 0.41543 0.16854 0.0
C1874 C 0.5885 0.61119 0.17013 0.0
C1875 C 0.56807 0.61068 0.15025 0.0
H1876 H 0.62458 0.59259 0.18539 0.0
C1877 C 0.56692 0.58891 0.13191 0.0
H1878 H 0.58977 0.62764 0.18467 0.0
C1879 C 0.58674 0.5689 0.13235 0.0
C1880 C 0.60814 0.57025 0.15112 0.0
H1881 H 0.55117 0.5877 0.11661 0.0
H1882 H 0.58573 0.55286 0.11734 0.0
C1883 C 0.60841 0.59111 0.17056 0.0
C1884 C 0.41912 0.56768 0.13281 0.0
C1885 C 0.39675 0.56937 0.15035 0.0
H1886 H 0.45535 0.58632 0.11844 0.0
C1887 C 0.39531 0.59081 0.16907 0.0
H1888 H 0.42107 0.55117 0.11843 0.0
C1889 C 0.41513 0.61109 0.16909 0.0
C1890 C 0.43659 0.61016 0.15036 0.0
H1891 H 0.37835 0.59254 0.18293 0.0
H1892 H 0.413 0.62801 0.18296 0.0
C1893 C 0.43881 0.58786 0.13281 0.0
C1894 C 0.42164 0.43915 0.13118 0.0
C1895 C 0.40017 0.43786 0.14985 0.0
H1896 H 0.45749 0.42047 0.11592 0.0
C1897 C 0.40016 0.41742 0.1697 0.0
H1898 H 0.42248 0.4549 0.11588 0.0
C1899 C 0.42036 0.3976 0.16973 0.0
C1900 C 0.44082 0.39795 0.1499 0.0
H1901 H 0.38397 0.41602 0.18448 0.0
H1902 H 0.41923 0.3814 0.18453 0.0
C1903 C 0.44174 0.41939 0.1312 0.0
C1904 C 0.83145 0.59436 0.60883 0.0
C1905 C 0.84899 0.572 0.60687 0.0
H1906 H 0.81927 0.63237 0.59162 0.0
C1907 C 0.86587 0.5695 0.58407 0.0
H1908 H 0.81815 0.59673 0.62615 0.0
C1909 C 0.86659 0.58975 0.56454 0.0
C1910 C 0.85037 0.61295 0.56728 0.0
H1911 H 0.87929 0.55226 0.58169 0.0
H1912 H 0.88049 0.58755 0.54767 0.0
C1913 C 0.83212 0.61473 0.58911 0.0
C1914 C 0.39759 0.83209 0.58543 0.0
C1915 C 0.39728 0.85219 0.56523 0.0
H1916 H 0.41638 0.81763 0.62174 0.0
C1917 C 0.41816 0.8716 0.56455 0.0
H1918 H 0.38186 0.81675 0.58638 0.0
C1919 C 0.43783 0.87213 0.58477 0.0
C1920 C 0.43704 0.85325 0.60607 0.0
H1921 H 0.41872 0.88712 0.549 0.0
H1922 H 0.45305 0.88801 0.5842 0.0
C1923 C 0.41734 0.83262 0.60572 0.0
C1924 C 0.12825 0.41474 0.56842 0.0
C1925 C 0.15041 0.39711 0.56543 0.0
H1926 H 0.11052 0.44705 0.59098 0.0
C1927 C 0.17349 0.40082 0.58188 0.0
H1928 H 0.11027 0.41274 0.55593 0.0
C1929 C 0.1737 0.42094 0.60193 0.0
C1930 C 0.1507 0.43721 0.6059 0.0
H1931 H 0.19096 0.38767 0.57988 0.0
H1932 H 0.19116 0.42281 0.61517 0.0
C1933 C 0.12835 0.43444 0.58853 0.0
C1934 C 0.56683 0.13289 0.58732 0.0
C1935 C 0.56819 0.15147 0.60887 0.0
H1936 H 0.58508 0.11821 0.55105 0.0
C1937 C 0.58835 0.17165 0.60875 0.0
H1938 H 0.55127 0.11736 0.58659 0.0
C1939 C 0.60783 0.17216 0.58825 0.0
C1940 C 0.60739 0.15248 0.56763 0.0
H1941 H 0.58976 0.18638 0.62501 0.0
H1942 H 0.62384 0.18721 0.58923 0.0
C1943 C 0.58622 0.1334 0.56691 0.0
C1944 C 0.83593 0.39623 0.41376 0.0
C1945 C 0.85604 0.39571 0.43395 0.0
H1946 H 0.82056 0.41633 0.37852 0.0
C1947 C 0.87507 0.41692 0.43529 0.0
H1948 H 0.82088 0.38025 0.41233 0.0
C1949 C 0.87488 0.4375 0.41605 0.0
C1950 C 0.85564 0.43735 0.39505 0.0
H1951 H 0.89062 0.41734 0.45083 0.0
H1952 H 0.89031 0.45313 0.41728 0.0
C1953 C 0.83572 0.41692 0.39444 0.0
C1954 C 0.56083 0.87305 0.42075 0.0
C1955 C 0.56157 0.85377 0.39979 0.0
H1956 H 0.58031 0.88904 0.45591 0.0
C1957 C 0.58138 0.83329 0.40036 0.0
H1958 H 0.54553 0.8888 0.42115 0.0
C1959 C 0.60138 0.83342 0.42038 0.0
C1960 C 0.60184 0.85404 0.44006 0.0
H1961 H 0.58229 0.81799 0.38461 0.0
H1962 H 0.61723 0.81824 0.41954 0.0
C1963 C 0.58078 0.87318 0.44069 0.0
C1964 C 0.13072 0.56785 0.41441 0.0
C1965 C 0.15017 0.56847 0.39362 0.0
H1966 H 0.11444 0.58729 0.44934 0.0
C1967 C 0.16985 0.58913 0.39353 0.0
H1968 H 0.11546 0.55203 0.41526 0.0
C1969 C 0.16925 0.60951 0.41321 0.0
C1970 C 0.14895 0.6095 0.43322 0.0
H1971 H 0.18513 0.59008 0.37779 0.0
H1972 H 0.18414 0.62566 0.41224 0.0
C1973 C 0.13011 0.58813 0.43396 0.0
C1974 C 0.43586 0.13317 0.4184 0.0
C1975 C 0.43345 0.15101 0.39633 0.0
H1976 H 0.4183 0.11806 0.45484 0.0
C1977 C 0.41171 0.1694 0.39557 0.0
H1978 H 0.45261 0.11902 0.41982 0.0
C1979 C 0.39188 0.16883 0.41579 0.0
C1980 C 0.39357 0.14988 0.43703 0.0
H1981 H 0.40941 0.18346 0.37884 0.0
H1982 H 0.37476 0.18251 0.4142 0.0
C1983 C 0.41616 0.13262 0.43852 0.0
C1984 C 0.58808 0.83629 0.60903 0.0
C1985 C 0.5673 0.8558 0.60879 0.0
H1986 H 0.62458 0.82209 0.59029 0.0
C1987 C 0.5663 0.87487 0.58769 0.0
H1988 H 0.58929 0.82129 0.62503 0.0
C1989 C 0.58637 0.87534 0.56796 0.0
C1990 C 0.60792 0.85676 0.56887 0.0
H1991 H 0.55035 0.88995 0.58671 0.0
H1992 H 0.58526 0.89076 0.55234 0.0
C1993 C 0.60828 0.83677 0.58919 0.0
C1994 C 0.56495 0.13296 0.41813 0.0
C1995 C 0.56536 0.15191 0.3969 0.0
H1996 H 0.58489 0.11745 0.45316 0.0
C1997 C 0.58586 0.17174 0.39627 0.0
H1998 H 0.54922 0.11763 0.41938 0.0
C1999 C 0.60648 0.17161 0.41569 0.0
C2000 C 0.60684 0.15166 0.43603 0.0
H2001 H 0.58664 0.18669 0.38018 0.0
H2002 H 0.62259 0.1865 0.41417 0.0
C2003 C 0.58545 0.13285 0.4375 0.0
C2004 C 0.835 0.59015 0.39647 0.0
C2005 C 0.85521 0.57005 0.3967 0.0
H2006 H 0.81967 0.62627 0.41496 0.0
C2007 C 0.87425 0.56968 0.41788 0.0
H2008 H 0.81993 0.59086 0.38047 0.0
C2009 C 0.87407 0.58988 0.43758 0.0
C2010 C 0.85487 0.6109 0.43649 0.0
H2011 H 0.88987 0.55426 0.41884 0.0
H2012 H 0.88958 0.58942 0.45317 0.0
C2013 C 0.83484 0.61044 0.41621 0.0
C2014 C 0.38896 0.83796 0.41126 0.0
C2015 C 0.38948 0.85725 0.43226 0.0
H2016 H 0.40805 0.82333 0.37512 0.0
C2017 C 0.41102 0.87586 0.43365 0.0
H2018 H 0.37265 0.82328 0.40976 0.0
C2019 C 0.43114 0.87587 0.41399 0.0
C2020 C 0.43022 0.85726 0.39246 0.0
H2021 H 0.41223 0.89082 0.44973 0.0
H2022 H 0.4472 0.89084 0.4155 0.0
C2023 C 0.40923 0.83795 0.39149 0.0
C2024 C 0.1712 0.41606 0.39507 0.0
C2025 C 0.15153 0.43667 0.39526 0.0
H2026 H 0.18564 0.37969 0.41379 0.0
C2027 C 0.13276 0.43783 0.41662 0.0
H2028 H 0.18604 0.41475 0.37893 0.0
C2029 C 0.13252 0.41784 0.43648 0.0
C2030 C 0.15106 0.39626 0.43539 0.0
H2031 H 0.11759 0.4537 0.41758 0.0
H2032 H 0.11719 0.41887 0.45218 0.0
C2033 C 0.17097 0.39598 0.41502 0.0
C2034 C 0.42002 0.13289 0.56763 0.0
C2035 C 0.39885 0.15191 0.5683 0.0
H2036 H 0.45533 0.11735 0.58706 0.0
C2037 C 0.3988 0.17201 0.58853 0.0
H2038 H 0.42087 0.1174 0.55206 0.0
C2039 C 0.41866 0.17196 0.60876 0.0
C2040 C 0.43881 0.15183 0.60898 0.0
H2041 H 0.38279 0.18701 0.58948 0.0
H2042 H 0.41752 0.18696 0.62478 0.0
C2043 C 0.43979 0.13286 0.58774 0.0
C2044 C 0.83226 0.39857 0.58344 0.0
C2045 C 0.85281 0.39834 0.5637 0.0
H2046 H 0.81616 0.41813 0.61865 0.0
C2047 C 0.87144 0.41988 0.56271 0.0
H2048 H 0.81748 0.38232 0.58457 0.0
C2049 C 0.87061 0.44036 0.58209 0.0
C2050 C 0.8512 0.4397 0.60293 0.0
H2051 H 0.88725 0.42052 0.54748 0.0
H2052 H 0.88589 0.45617 0.58127 0.0
C2053 C 0.83147 0.4191 0.60293 0.0
C2054 C 0.17634 0.58009 0.59909 0.0
C2055 C 0.1554 0.56085 0.59997 0.0
H2056 H 0.19096 0.6166 0.58061 0.0
C2057 C 0.13509 0.56119 0.58003 0.0
H2058 H 0.19214 0.58018 0.61438 0.0
C2059 C 0.13431 0.58182 0.56087 0.0
C2060 C 0.15373 0.60266 0.56144 0.0
H2061 H 0.11888 0.5463 0.5802 0.0
H2062 H 0.11761 0.58215 0.54656 0.0
C2063 C 0.17548 0.60099 0.57992 0.0
C2064 C 0.08242 0.26988 0.38592 0.0
C2065 C 0.0803 0.24174 0.38303 0.0
H2066 H 0.10163 0.3024 0.40723 0.0
C2067 C 0.09868 0.22457 0.39643 0.0
H2068 H 0.06823 0.28329 0.37583 0.0
C2069 C 0.11694 0.2353 0.4151 0.0
C2070 C 0.11763 0.2633 0.4195 0.0
H2071 H 0.09704 0.2027 0.3946 0.0
H2072 H 0.12919 0.22173 0.4273 0.0
C2073 C 0.10147 0.28068 0.40375 0.0
C2074 C 0.73476 0.11584 0.40209 0.0
C2075 C 0.74835 0.12869 0.42357 0.0
H2076 H 0.73725 0.08523 0.37147 0.0
C2077 C 0.77654 0.1266 0.42585 0.0
H2078 H 0.71293 0.11741 0.4 0.0
C2079 C 0.79051 0.10862 0.40931 0.0
C2080 C 0.77613 0.09206 0.39101 0.0
H2081 H 0.78729 0.13668 0.4422 0.0
H2082 H 0.81192 0.1055 0.4132 0.0
C2083 C 0.74861 0.09729 0.38596 0.0
C2084 C 0.907 0.78238 0.39596 0.0
C2085 C 0.92534 0.76509 0.38269 0.0
H2086 H 0.87645 0.78545 0.42671 0.0
C2087 C 0.92302 0.73696 0.38558 0.0
H2088 H 0.90876 0.80423 0.39413 0.0
C2089 C 0.90387 0.72629 0.40335 0.0
C2090 C 0.88778 0.74379 0.41901 0.0
H2091 H 0.93718 0.72345 0.37559 0.0
H2092 H 0.90361 0.70458 0.40688 0.0
C2093 C 0.88862 0.77177 0.41455 0.0
C2094 C 0.2419 0.89823 0.38741 0.0
C2095 C 0.21649 0.90834 0.39527 0.0
H2096 H 0.277 0.87622 0.39994 0.0
C2097 C 0.20353 0.89735 0.41817 0.0
H2098 H 0.252 0.90585 0.36944 0.0
C2099 C 0.21802 0.88089 0.43586 0.0
C2100 C 0.24516 0.87471 0.43026 0.0
H2101 H 0.18361 0.90422 0.42438 0.0
H2102 H 0.20902 0.87544 0.45515 0.0
C2103 C 0.25617 0.88121 0.40484 0.0
C2104 C 0.10397 0.77588 0.60966 0.0
C2105 C 0.08396 0.7595 0.62165 0.0
H2106 H 0.13552 0.77777 0.57986 0.0
C2107 C 0.0846 0.73134 0.61815 0.0
H2108 H 0.10358 0.79774 0.61202 0.0
C2109 C 0.10354 0.71992 0.60066 0.0
C2110 C 0.1211 0.73678 0.58589 0.0
H2111 H 0.0692 0.71852 0.62722 0.0
H2112 H 0.10236 0.69837 0.59638 0.0
C2113 C 0.12217 0.76459 0.59132 0.0
C2114 C 0.22732 0.10923 0.61405 0.0
C2115 C 0.24388 0.08978 0.62663 0.0
H2116 H 0.22548 0.14012 0.58359 0.0
C2117 C 0.27212 0.09168 0.6246 0.0
H2118 H 0.2054 0.10791 0.61537 0.0
C2119 C 0.28357 0.1109 0.60741 0.0
C2120 C 0.26667 0.12734 0.59146 0.0
H2121 H 0.28508 0.07676 0.63422 0.0
H2122 H 0.30526 0.1103 0.60386 0.0
C2123 C 0.23869 0.12767 0.59599 0.0
C2124 C 0.90205 0.22703 0.607 0.0
C2125 C 0.92035 0.24443 0.62025 0.0
H2126 H 0.87183 0.2238 0.57589 0.0
C2127 C 0.91786 0.27254 0.61756 0.0
H2128 H 0.90395 0.20519 0.60875 0.0
C2129 C 0.89878 0.28311 0.59968 0.0
C2130 C 0.88305 0.2655 0.5837 0.0
H2131 H 0.93198 0.28612 0.62761 0.0
H2132 H 0.89856 0.30481 0.5961 0.0
C2133 C 0.88377 0.23754 0.58827 0.0
C2134 C 0.7401 0.91269 0.61788 0.0
C2135 C 0.76765 0.91909 0.61634 0.0
H2136 H 0.70712 0.89159 0.59939 0.0
C2137 C 0.78441 0.90591 0.59749 0.0
H2138 H 0.72699 0.92299 0.6322 0.0
C2139 C 0.77301 0.88885 0.57808 0.0
C2140 C 0.745 0.88423 0.57814 0.0
H2141 H 0.80575 0.91103 0.59596 0.0
H2142 H 0.78566 0.88089 0.56198 0.0
C2143 C 0.72888 0.89479 0.59915 0.0
C2144 C 0.39775 0.10243 0.22151 0.0
C2145 C 0.38217 0.08554 0.23834 0.0
H2146 H 0.43043 0.13109 0.21982 0.0
C2147 C 0.38293 0.08889 0.26648 0.0
H2148 H 0.39757 0.09975 0.19968 0.0
C2149 C 0.40089 0.10751 0.27785 0.0
C2150 C 0.4189 0.12192 0.26112 0.0
H2151 H 0.37119 0.07576 0.27963 0.0
H2152 H 0.40275 0.10841 0.29975 0.0
C2153 C 0.41651 0.12023 0.23291 0.0
C2154 C 0.91317 0.38599 0.26835 0.0
C2155 C 0.91771 0.38517 0.2404 0.0
H2156 H 0.89311 0.40649 0.30073 0.0
C2157 C 0.90216 0.40133 0.22284 0.0
H2158 H 0.92522 0.37373 0.28205 0.0
C2159 C 0.8847 0.42076 0.23344 0.0
C2160 C 0.88199 0.42324 0.26155 0.0
H2161 H 0.90573 0.40104 0.20115 0.0
H2162 H 0.87497 0.43508 0.2199 0.0
C2163 C 0.89485 0.40464 0.27889 0.0
C2164 C 0.61589 0.92032 0.26631 0.0
C2165 C 0.61638 0.92018 0.23786 0.0
H2166 H 0.59737 0.90348 0.30173 0.0
C2167 C 0.6048 0.89816 0.22373 0.0
H2168 H 0.62512 0.93669 0.27774 0.0
C2169 C 0.58858 0.87963 0.23737 0.0
C2170 C 0.58481 0.88236 0.26528 0.0
H2171 H 0.60556 0.89697 0.2018 0.0
H2172 H 0.57685 0.86501 0.22583 0.0
C2173 C 0.60021 0.90122 0.28004 0.0
C2174 C 0.10232 0.60491 0.22275 0.0
C2175 C 0.08617 0.62006 0.24065 0.0
H2176 H 0.1306 0.57214 0.21907 0.0
C2177 C 0.09055 0.6186 0.2686 0.0
H2178 H 0.0989 0.60572 0.20104 0.0
C2179 C 0.10942 0.60027 0.27874 0.0
C2180 C 0.12299 0.58263 0.26096 0.0
H2181 H 0.07807 0.6301 0.28255 0.0
H2182 H 0.1111 0.59785 0.30053 0.0
C2183 C 0.12034 0.58577 0.23293 0.0
C2184 C 0.39535 0.90473 0.77792 0.0
C2185 C 0.38247 0.9234 0.76068 0.0
H2186 H 0.42575 0.87384 0.78094 0.0
C2187 C 0.38529 0.92115 0.73256 0.0
H2188 H 0.39352 0.90642 0.79976 0.0
C2189 C 0.40283 0.90184 0.72187 0.0
C2190 C 0.41834 0.88557 0.73935 0.0
H2191 H 0.37556 0.93555 0.7191 0.0
H2192 H 0.40645 0.90171 0.70018 0.0
C2193 C 0.41374 0.88619 0.7673 0.0
C2194 C 0.09501 0.40978 0.78598 0.0
C2195 C 0.08505 0.3874 0.77145 0.0
H2196 H 0.11592 0.44771 0.78341 0.0
C2197 C 0.0943 0.38207 0.7453 0.0
H2198 H 0.08781 0.41401 0.80632 0.0
C2199 C 0.11084 0.40089 0.73244 0.0
C2200 C 0.11707 0.42569 0.74531 0.0
H2201 H 0.08671 0.36478 0.73399 0.0
H2202 H 0.11602 0.39731 0.71139 0.0
C2203 C 0.11094 0.42906 0.77287 0.0
C2204 C 0.608 0.09894 0.78016 0.0
C2205 C 0.62207 0.08168 0.7624 0.0
H2206 H 0.57643 0.12857 0.7838 0.0
C2207 C 0.6199 0.08521 0.73436 0.0
H2208 H 0.6093 0.0962 0.80194 0.0
C2209 C 0.60196 0.1044 0.72412 0.0
C2210 C 0.5854 0.11924 0.74191 0.0
H2211 H 0.63053 0.07187 0.72051 0.0
H2212 H 0.59898 0.10552 0.70236 0.0
C2213 C 0.58923 0.11733 0.76992 0.0
C2214 C 0.90233 0.60466 0.77996 0.0
C2215 C 0.91807 0.62116 0.7629 0.0
H2216 H 0.87506 0.57082 0.78195 0.0
C2217 C 0.91399 0.62064 0.73485 0.0
H2218 H 0.90562 0.60465 0.80171 0.0
C2219 C 0.89581 0.60209 0.72374 0.0
C2220 C 0.8826 0.58333 0.74061 0.0
H2221 H 0.92627 0.63308 0.72151 0.0
H2222 H 0.89431 0.60049 0.70185 0.0
C2223 C 0.88501 0.58535 0.76879 0.0
C2224 C 0.27187 0.3872 0.07962 0.0
C2225 C 0.24373 0.38351 0.07939 0.0
H2226 H 0.30509 0.40878 0.09734 0.0
C2227 C 0.22767 0.39517 0.09985 0.0
H2228 H 0.28446 0.37839 0.06391 0.0
C2229 C 0.23923 0.41322 0.11824 0.0
C2230 C 0.26701 0.41868 0.11693 0.0
H2231 H 0.20582 0.3927 0.09981 0.0
H2232 H 0.22627 0.42435 0.13205 0.0
C2233 C 0.28357 0.40441 0.09872 0.0
C2234 C 0.27508 0.62613 0.92251 0.0
C2235 C 0.24679 0.6272 0.92139 0.0
H2236 H 0.31062 0.60615 0.90866 0.0
C2237 C 0.23275 0.61345 0.90078 0.0
H2238 H 0.28615 0.63693 0.93818 0.0
C2239 C 0.24654 0.59504 0.8844 0.0
C2240 C 0.27441 0.59085 0.88836 0.0
H2241 H 0.2108 0.61424 0.89964 0.0
H2242 H 0.23498 0.58226 0.87072 0.0
C2243 C 0.28896 0.60836 0.90566 0.0
C2244 C 0.40353 0.22717 0.90287 0.0
C2245 C 0.38741 0.2447 0.91848 0.0
H2246 H 0.43706 0.22421 0.8754 0.0
C2247 C 0.38851 0.2727 0.91416 0.0
H2248 H 0.40308 0.20544 0.90631 0.0
C2249 C 0.40715 0.28326 0.8958 0.0
C2250 C 0.42549 0.2659 0.8826 0.0
H2251 H 0.37634 0.28641 0.92628 0.0
H2252 H 0.40907 0.30511 0.89408 0.0
C2253 C 0.42293 0.23778 0.88534 0.0
C2254 C 0.71672 0.38258 0.93755 0.0
C2255 C 0.74365 0.37587 0.93151 0.0
H2256 H 0.68244 0.40631 0.92645 0.0
C2257 C 0.75428 0.382 0.90583 0.0
H2258 H 0.70799 0.37745 0.95705 0.0
C2259 C 0.73993 0.39902 0.88847 0.0
C2260 C 0.71477 0.40953 0.89662 0.0
H2261 H 0.77493 0.37662 0.90059 0.0
H2262 H 0.74978 0.40626 0.87021 0.0
C2263 C 0.70214 0.39907 0.91994 0.0
C2264 C 0.57975 0.75679 0.94003 0.0
C2265 C 0.60712 0.75871 0.93266 0.0
H2266 H 0.5393 0.7496 0.92708 0.0
C2267 C 0.61481 0.75542 0.90548 0.0
H2268 H 0.57327 0.76009 0.96078 0.0
C2269 C 0.5952 0.74904 0.88601 0.0
C2270 C 0.56779 0.74727 0.89353 0.0
H2271 H 0.63584 0.75753 0.89947 0.0
H2272 H 0.60137 0.74529 0.86526 0.0
C2273 C 0.56023 0.75153 0.9206 0.0
C2274 C 0.73929 0.62722 0.09568 0.0
C2275 C 0.7673 0.62685 0.09126 0.0
H2276 H 0.70591 0.60757 0.11501 0.0
C2277 C 0.78411 0.61041 0.1073 0.0
H2278 H 0.72615 0.63968 0.08322 0.0
C2279 C 0.77258 0.59125 0.1245 0.0
C2280 C 0.74433 0.58941 0.12645 0.0
H2281 H 0.80582 0.60979 0.10383 0.0
H2282 H 0.78548 0.57635 0.13422 0.0
C2283 C 0.72784 0.60885 0.11376 0.0
C2284 C 0.39895 0.78265 0.09928 0.0
C2285 C 0.38321 0.76493 0.08344 0.0
H2286 H 0.4322 0.78587 0.12711 0.0
C2287 C 0.384 0.73699 0.08814 0.0
H2288 H 0.39867 0.80434 0.09559 0.0
C2289 C 0.40234 0.72662 0.10688 0.0
C2290 C 0.42065 0.74412 0.11999 0.0
H2291 H 0.37205 0.72317 0.07586 0.0
H2292 H 0.40428 0.70479 0.10873 0.0
C2293 C 0.41809 0.77222 0.11717 0.0
C2294 C 0.62208 0.26489 0.08964 0.0
C2295 C 0.62139 0.23701 0.08452 0.0
H2296 H 0.60337 0.29791 0.11042 0.0
C2297 C 0.60445 0.22 0.09983 0.0
H2298 H 0.63497 0.27818 0.07779 0.0
C2299 C 0.5857 0.23126 0.11763 0.0
C2300 C 0.58465 0.25943 0.12087 0.0
H2301 H 0.60358 0.19838 0.09582 0.0
H2302 H 0.57072 0.21828 0.12714 0.0
C2303 C 0.6041 0.27604 0.10828 0.0
C2304 C 0.91617 0.73933 0.6175 0.0
C2305 C 0.92098 0.76726 0.6184 0.0
H2306 H 0.89488 0.70728 0.59757 0.0
C2307 C 0.9048 0.78509 0.60321 0.0
H2308 H 0.92868 0.72542 0.62905 0.0
C2309 C 0.88631 0.7748 0.58452 0.0
C2310 C 0.88325 0.74672 0.58186 0.0
H2311 H 0.90855 0.80677 0.60359 0.0
H2312 H 0.87607 0.78855 0.57076 0.0
C2313 C 0.89686 0.7291 0.59964 0.0
C2314 C 0.27489 0.92697 0.6154 0.0
C2315 C 0.24718 0.92684 0.6215 0.0
H2316 H 0.30664 0.90791 0.59294 0.0
C2317 C 0.23096 0.9046 0.61392 0.0
H2318 H 0.28762 0.94397 0.62118 0.0
C2319 C 0.24156 0.88453 0.59716 0.0
C2320 C 0.26863 0.8861 0.58898 0.0
H2321 H 0.20944 0.90424 0.61838 0.0
H2322 H 0.22814 0.86924 0.58876 0.0
C2323 C 0.28571 0.90631 0.59954 0.0
C2324 C 0.10136 0.22562 0.60516 0.0
C2325 C 0.08365 0.24319 0.61888 0.0
H2326 H 0.13139 0.22228 0.57396 0.0
C2327 C 0.08689 0.27128 0.61673 0.0
H2328 H 0.09885 0.2038 0.60649 0.0
C2329 C 0.10621 0.28174 0.59905 0.0
C2330 C 0.12145 0.2641 0.58269 0.0
H2331 H 0.07322 0.28499 0.62712 0.0
H2332 H 0.10703 0.30351 0.59595 0.0
C2333 C 0.11988 0.23606 0.58663 0.0
C2334 C 0.77765 0.10178 0.60726 0.0
C2335 C 0.76103 0.08171 0.61881 0.0
H2336 H 0.77982 0.13428 0.57847 0.0
C2337 C 0.73289 0.08279 0.61538 0.0
H2338 H 0.79951 0.10101 0.60956 0.0
C2339 C 0.72164 0.10249 0.5986 0.0
C2340 C 0.73863 0.1204 0.58442 0.0
H2341 H 0.7199 0.06732 0.62409 0.0
H2342 H 0.70005 0.10178 0.5944 0.0
C2343 C 0.76651 0.12077 0.5896 0.0
C2344 C 0.91194 0.26269 0.38213 0.0
C2345 C 0.91733 0.23488 0.38337 0.0
H2346 H 0.89154 0.29608 0.40061 0.0
C2347 C 0.9028 0.21826 0.40134 0.0
H2348 H 0.92323 0.2757 0.36847 0.0
C2349 C 0.88554 0.22993 0.42037 0.0
C2350 C 0.88205 0.2581 0.42077 0.0
H2351 H 0.90704 0.19672 0.40267 0.0
H2352 H 0.87661 0.21728 0.43598 0.0
C2353 C 0.89386 0.27422 0.40045 0.0
C2354 C 0.72566 0.93762 0.39373 0.0
C2355 C 0.75061 0.93182 0.38145 0.0
H2356 H 0.69619 0.92421 0.42258 0.0
C2357 C 0.76108 0.90523 0.38277 0.0
H2358 H 0.717 0.9578 0.39281 0.0
C2359 C 0.74958 0.88635 0.40028 0.0
C2360 C 0.72697 0.8937 0.41552 0.0
H2361 H 0.78 0.90003 0.37286 0.0
H2362 H 0.75965 0.86711 0.40367 0.0
C2363 C 0.71388 0.91851 0.41083 0.0
C2364 C 0.10222 0.78634 0.40352 0.0
C2365 C 0.08841 0.7699 0.38479 0.0
H2366 H 0.12743 0.78701 0.43896 0.0
C2367 C 0.09397 0.74214 0.38336 0.0
H2368 H 0.09779 0.80783 0.40503 0.0
C2369 C 0.11159 0.73047 0.40207 0.0
C2370 C 0.12274 0.74638 0.42296 0.0
H2371 H 0.08319 0.72925 0.36915 0.0
H2372 H 0.1141 0.70862 0.40194 0.0
C2373 C 0.119 0.77452 0.42292 0.0
C2374 C 0.26467 0.07188 0.44195 0.0
C2375 C 0.26853 0.09874 0.43324 0.0
H2376 H 0.25581 0.0311 0.43037 0.0
C2377 C 0.2699 0.10453 0.40546 0.0
H2378 H 0.26463 0.06676 0.46332 0.0
C2379 C 0.26505 0.08403 0.38661 0.0
C2380 C 0.25965 0.0575 0.39543 0.0
H2381 H 0.2737 0.12502 0.39843 0.0
H2382 H 0.26373 0.08919 0.36528 0.0
C2383 C 0.26062 0.05131 0.42313 0.0
C2384 C 0.6183 0.91443 0.73443 0.0
C2385 C 0.61982 0.91849 0.76243 0.0
H2386 H 0.59726 0.8945 0.70224 0.0
C2387 C 0.60438 0.90236 0.78012 0.0
H2388 H 0.63 0.92693 0.72064 0.0
C2389 C 0.58495 0.88472 0.76971 0.0
C2390 C 0.58179 0.88241 0.74164 0.0
H2391 H 0.60521 0.90557 0.80186 0.0
H2392 H 0.57116 0.87449 0.78344 0.0
C2393 C 0.59968 0.89594 0.72405 0.0
C2394 C 0.08081 0.6255 0.73055 0.0
C2395 C 0.08018 0.62537 0.75885 0.0
H2396 H 0.09592 0.60638 0.69507 0.0
C2397 C 0.09888 0.60971 0.7735 0.0
H2398 H 0.06659 0.63771 0.71905 0.0
C2399 C 0.11505 0.59094 0.75994 0.0
C2400 C 0.11282 0.58829 0.7317 0.0
H2401 H 0.09858 0.60952 0.79549 0.0
H2402 H 0.12715 0.57689 0.77172 0.0
C2403 C 0.09751 0.60739 0.71696 0.0
C2404 C 0.39968 0.10334 0.78147 0.0
C2405 C 0.38473 0.08666 0.76383 0.0
H2406 H 0.43228 0.13197 0.78473 0.0
C2407 C 0.38621 0.09056 0.7358 0.0
H2408 H 0.39888 0.1003 0.80323 0.0
C2409 C 0.40443 0.1094 0.72537 0.0
C2410 C 0.42197 0.12345 0.74294 0.0
H2411 H 0.37487 0.07766 0.72204 0.0
H2412 H 0.40693 0.11066 0.70357 0.0
C2413 C 0.41873 0.12135 0.77102 0.0
C2414 C 0.90171 0.39593 0.77276 0.0
C2415 C 0.92257 0.38508 0.75664 0.0
H2416 H 0.86915 0.42464 0.77472 0.0
C2417 C 0.92292 0.38997 0.7287 0.0
H2418 H 0.90129 0.39254 0.79448 0.0
C2419 C 0.90392 0.40747 0.71737 0.0
C2420 C 0.88521 0.42081 0.73414 0.0
H2421 H 0.93895 0.38182 0.71607 0.0
H2422 H 0.90564 0.41269 0.69608 0.0
C2423 C 0.88341 0.41425 0.76162 0.0
C2424 C 0.60383 0.10524 0.22443 0.0
C2425 C 0.61501 0.08342 0.23916 0.0
H2426 H 0.57574 0.1383 0.2251 0.0
C2427 C 0.6125 0.08289 0.26747 0.0
H2428 H 0.60586 0.10659 0.2026 0.0
C2429 C 0.59602 0.10186 0.28034 0.0
C2430 C 0.58169 0.12094 0.26485 0.0
H2431 H 0.62125 0.06658 0.27931 0.0
H2432 H 0.59212 0.09967 0.30187 0.0
C2433 C 0.58672 0.12357 0.23717 0.0
C2434 C 0.91947 0.62103 0.27089 0.0
C2435 C 0.92259 0.62314 0.2428 0.0
H2436 H 0.89961 0.60014 0.30318 0.0
C2437 C 0.90489 0.60918 0.2253 0.0
H2438 H 0.93312 0.63159 0.28454 0.0
C2439 C 0.88658 0.59047 0.23581 0.0
C2440 C 0.88517 0.5866 0.26384 0.0
H2441 H 0.90729 0.61045 0.20348 0.0
H2442 H 0.87507 0.57767 0.2221 0.0
C2443 C 0.90035 0.60316 0.28142 0.0
C2444 C 0.40415 0.90738 0.21801 0.0
C2445 C 0.38721 0.92283 0.23483 0.0
H2446 H 0.4372 0.87924 0.21662 0.0
C2447 C 0.38614 0.91775 0.26267 0.0
H2448 H 0.40524 0.9114 0.19642 0.0
C2449 C 0.40354 0.89867 0.27398 0.0
C2450 C 0.4228 0.88558 0.25757 0.0
H2451 H 0.3732 0.92973 0.27578 0.0
H2452 H 0.4039 0.89637 0.29584 0.0
C2453 C 0.42231 0.88909 0.22943 0.0
C2454 C 0.09924 0.39601 0.22513 0.0
C2455 C 0.08113 0.38295 0.24284 0.0
H2456 H 0.12982 0.42671 0.2213 0.0
C2457 C 0.08403 0.38592 0.27089 0.0
H2458 H 0.09703 0.39408 0.20333 0.0
C2459 C 0.10347 0.40369 0.28107 0.0
C2460 C 0.11922 0.41929 0.26317 0.0
H2461 H 0.07007 0.37607 0.28471 0.0
H2462 H 0.10414 0.40736 0.30275 0.0
C2463 C 0.11789 0.41463 0.23526 0.0
C2464 C 0.77027 0.60459 0.90521 0.0
C2465 C 0.76927 0.59862 0.93296 0.0
H2466 H 0.76333 0.58953 0.86504 0.0
C2467 C 0.7655 0.57172 0.94157 0.0
H2468 H 0.77402 0.62511 0.89825 0.0
C2469 C 0.76104 0.55129 0.9227 0.0
C2470 C 0.75957 0.55768 0.89507 0.0
H2471 H 0.76575 0.56648 0.96292 0.0
H2472 H 0.75622 0.53107 0.92991 0.0
C2473 C 0.76501 0.58423 0.88631 0.0
C2474 C 0.78592 0.40609 0.09996 0.0
C2475 C 0.76885 0.3856 0.08993 0.0
H2476 H 0.78783 0.44407 0.12102 0.0
C2477 C 0.74195 0.38386 0.09862 0.0
H2478 H 0.8067 0.40782 0.09295 0.0
C2479 C 0.73144 0.40406 0.11528 0.0
C2480 C 0.74755 0.42658 0.12225 0.0
H2481 H 0.72854 0.36836 0.09061 0.0
H2482 H 0.71 0.40356 0.12009 0.0
C2483 C 0.77516 0.42686 0.11572 0.0
C2484 C 0.62493 0.74281 0.09819 0.0
C2485 C 0.62334 0.77024 0.09119 0.0
H2486 H 0.60547 0.70988 0.11847 0.0
C2487 C 0.6041 0.78708 0.10363 0.0
H2488 H 0.63948 0.72958 0.08838 0.0
C2489 C 0.58394 0.77571 0.11978 0.0
C2490 C 0.58369 0.74768 0.12427 0.0
H2491 H 0.60249 0.80829 0.09803 0.0
H2492 H 0.56735 0.78833 0.12673 0.0
C2493 C 0.60541 0.73163 0.11522 0.0
C2494 C 0.26792 0.61948 0.08735 0.0
C2495 C 0.23993 0.61957 0.08281 0.0
H2496 H 0.30095 0.59954 0.10707 0.0
C2497 C 0.2229 0.60235 0.09781 0.0
H2498 H 0.28123 0.63247 0.07563 0.0
C2499 C 0.23413 0.58285 0.11482 0.0
C2500 C 0.26231 0.5813 0.11766 0.0
H2501 H 0.20121 0.60201 0.09414 0.0
H2502 H 0.22105 0.56787 0.1242 0.0
C2503 C 0.27907 0.60071 0.10523 0.0
C2504 C 0.38669 0.27427 0.08442 0.0
C2505 C 0.38371 0.24622 0.0814 0.0
H2506 H 0.40889 0.30609 0.1038 0.0
C2507 C 0.39755 0.22842 0.09881 0.0
H2508 H 0.37627 0.28816 0.07094 0.0
C2509 C 0.41694 0.2385 0.1167 0.0
C2510 C 0.42161 0.26643 0.11799 0.0
H2511 H 0.39565 0.20663 0.09646 0.0
H2512 H 0.42958 0.22448 0.12797 0.0
C2513 C 0.40525 0.2844 0.10313 0.0
C2514 C 0.25198 0.38476 0.90377 0.0
C2515 C 0.22796 0.39148 0.91699 0.0
H2516 H 0.2838 0.39882 0.8783 0.0
C2517 C 0.21444 0.41575 0.91088 0.0
H2518 H 0.26245 0.36598 0.90835 0.0
C2519 C 0.22687 0.43498 0.89437 0.0
C2520 C 0.25279 0.4298 0.88396 0.0
H2521 H 0.19573 0.42102 0.92115 0.0
H2522 H 0.21753 0.45475 0.89223 0.0
C2523 C 0.2641 0.40367 0.88676 0.0
C2524 C 0.61158 0.23 0.90089 0.0
C2525 C 0.62337 0.24586 0.92146 0.0
H2526 H 0.58259 0.22905 0.86848 0.0
C2527 C 0.62023 0.27408 0.9212 0.0
H2528 H 0.61365 0.2081 0.90093 0.0
C2529 C 0.60335 0.28606 0.902 0.0
C2530 C 0.58884 0.26972 0.8837 0.0
H2531 H 0.62916 0.28653 0.93699 0.0
H2532 H 0.59936 0.30764 0.9034 0.0
C2533 C 0.59387 0.24185 0.88238 0.0
C2534 C 0.38367 0.72567 0.92315 0.0
C2535 C 0.37797 0.75343 0.92111 0.0
H2536 H 0.40605 0.69242 0.90666 0.0
C2537 C 0.38519 0.76766 0.8975 0.0
H2538 H 0.37809 0.71435 0.94115 0.0
C2539 C 0.40169 0.75534 0.87818 0.0
C2540 C 0.41005 0.7285 0.88195 0.0
H2541 H 0.38098 0.78915 0.89554 0.0
H2542 H 0.41016 0.76751 0.86196 0.0
C2543 C 0.39937 0.71311 0.90334 0.0
loop_
_geom_bond_atom_site_label_1
_geom_bond_atom_site_label_2
_geom_bond_distance
_geom_bond_site_symmetry_2
_ccdc_geom_bond_type
O0 Zn1 1.953 . S
O0 C16 1.225 . S
Zn1 O0 1.953 . S
Zn1 O2 1.949 . S
Zn1 O8 1.919 . S
Zn1 O13 1.924 1_455 S
O2 Zn1 1.949 . S
O2 Zn3 1.923 . S
O2 Zn4 1.950 . S
O2 Zn5 1.945 1_455 S
Zn3 O2 1.923 . S
Zn3 O6 1.933 1_455 S
Zn3 O9 1.941 . S
Zn3 O10 1.965 . S
Zn4 O2 1.950 . S
Zn4 O11 1.938 . S
Zn4 O12 1.906 . S
Zn4 O22 1.953 . S
Zn5 O2 1.945 1_655 S
Zn5 O7 1.932 . S
Zn5 O14 1.977 . S
Zn5 O15 1.910 . S
O6 Zn3 1.933 1_655 S
O6 C17 1.226 . S
O7 Zn5 1.932 . S
O7 C17 1.307 . S
O8 Zn1 1.919 . S
O8 C19 1.253 . S
O9 Zn3 1.941 . S
O9 C19 1.283 . S
O10 Zn3 1.965 . S
O10 C18 1.303 . S
O11 Zn4 1.938 . S
O11 C18 1.247 . S
O12 Zn4 1.906 . S
O12 C20 1.304 . S
O13 Zn1 1.924 1_655 S
O13 C21 1.311 . S
O14 Zn5 1.977 . S
O14 C20 1.272 1_655 S
O15 Zn5 1.910 . S
O15 C21 1.231 . S
C16 O0 1.225 . S
C16 O22 1.298 . S
C17 O6 1.226 . S
C17 O7 1.307 . S
C18 O10 1.303 . S
C18 O11 1.247 . S
C19 O8 1.253 . S
C19 O9 1.283 . S
C20 O12 1.304 . S
C20 O14 1.272 1_455 S
C21 O13 1.311 . S
C21 O15 1.231 . S
O22 Zn4 1.953 . S
O22 C16 1.298 . S
O23 Zn24 1.953 1_565 S
O23 C39 1.225 . S
Zn24 O23 1.953 1_545 S
Zn24 O25 1.949 . S
Zn24 O31 1.919 . S
Zn24 O36 1.924 . S
O25 Zn24 1.949 . S
O25 Zn26 1.923 . S
O25 Zn27 1.950 1_545 S
O25 Zn28 1.945 . S
Zn26 O25 1.923 . S
Zn26 O29 1.933 . S
Zn26 O32 1.941 . S
Zn26 O33 1.965 . S
Zn27 O25 1.950 1_565 S
Zn27 O34 1.938 . S
Zn27 O35 1.906 . S
Zn27 O45 1.953 . S
Zn28 O25 1.945 . S
Zn28 O30 1.932 . S
Zn28 O37 1.977 1_545 S
Zn28 O38 1.910 . S
O29 Zn26 1.933 . S
O29 C40 1.226 . S
O30 Zn28 1.932 . S
O30 C40 1.307 . S
O31 Zn24 1.919 . S
O31 C42 1.253 . S
O32 Zn26 1.941 . S
O32 C42 1.283 . S
O33 Zn26 1.965 . S
O33 C41 1.303 . S
O34 Zn27 1.938 . S
O34 C41 1.247 1_565 S
O35 Zn27 1.906 . S
O35 C43 1.304 . S
O36 Zn24 1.924 . S
O36 C44 1.311 . S
O37 Zn28 1.977 1_565 S
O37 C43 1.272 . S
O38 Zn28 1.910 . S
O38 C44 1.231 . S
C39 O23 1.225 . S
C39 O45 1.298 . S
C40 O29 1.226 . S
C40 O30 1.307 . S
C41 O33 1.303 . S
C41 O34 1.247 1_545 S
C42 O31 1.253 . S
C42 O32 1.283 . S
C43 O35 1.304 . S
C43 O37 1.272 . S
C44 O36 1.311 . S
C44 O38 1.231 . S
O45 Zn27 1.953 . S
O45 C39 1.298 . S
O46 Zn47 1.953 1_655 S
O46 C62 1.225 . S
Zn47 O46 1.953 1_455 S
Zn47 O48 1.949 . S
Zn47 O54 1.919 . S
Zn47 O59 1.924 . S
O48 Zn47 1.949 . S
O48 Zn49 1.923 . S
O48 Zn50 1.950 1_455 S
O48 Zn51 1.945 . S
Zn49 O48 1.923 . S
Zn49 O52 1.933 . S
Zn49 O55 1.941 . S
Zn49 O56 1.965 1_455 S
Zn50 O48 1.950 1_655 S
Zn50 O57 1.938 . S
Zn50 O58 1.906 . S
Zn50 O68 1.953 . S
Zn51 O48 1.945 . S
Zn51 O53 1.932 . S
Zn51 O60 1.977 . S
Zn51 O61 1.910 . S
O52 Zn49 1.933 . S
O52 C63 1.226 . S
O53 Zn51 1.932 . S
O53 C63 1.307 . S
O54 Zn47 1.919 . S
O54 C65 1.253 . S
O55 Zn49 1.941 . S
O55 C65 1.282 . S
O56 Zn49 1.965 1_655 S
O56 C64 1.303 . S
O57 Zn50 1.938 . S
O57 C64 1.247 . S
O58 Zn50 1.906 . S
O58 C66 1.304 1_655 S
O59 Zn47 1.924 . S
O59 C67 1.311 . S
O60 Zn51 1.977 . S
O60 C66 1.272 . S
O61 Zn51 1.910 . S
O61 C67 1.231 . S
C62 O46 1.225 . S
C62 O68 1.298 . S
C63 O52 1.226 . S
C63 O53 1.307 . S
C64 O56 1.303 . S
C64 O57 1.247 . S
C65 O54 1.253 . S
C65 O55 1.282 . S
C66 O58 1.304 1_455 S
C66 O60 1.272 . S
C67 O59 1.311 . S
C67 O61 1.231 . S
O68 Zn50 1.953 . S
O68 C62 1.298 . S
O69 Zn70 1.953 . S
O69 C85 1.225 . S
Zn70 O69 1.953 . S
Zn70 O71 1.949 . S
Zn70 O77 1.919 1_545 S
Zn70 O82 1.924 . S
O71 Zn70 1.949 . S
O71 Zn72 1.923 1_545 S
O71 Zn73 1.950 . S
O71 Zn74 1.945 . S
Zn72 O71 1.923 1_565 S
Zn72 O75 1.933 . S
Zn72 O78 1.941 . S
Zn72 O79 1.965 . S
Zn73 O71 1.950 . S
Zn73 O80 1.938 . S
Zn73 O81 1.906 . S
Zn73 O91 1.953 . S
Zn74 O71 1.945 . S
Zn74 O76 1.932 1_545 S
Zn74 O83 1.977 . S
Zn74 O84 1.910 . S
O75 Zn72 1.933 . S
O75 C86 1.226 . S
O76 Zn74 1.932 1_565 S
O76 C86 1.307 . S
O77 Zn70 1.919 1_565 S
O77 C88 1.253 . S
O78 Zn72 1.941 . S
O78 C88 1.283 . S
O79 Zn72 1.965 . S
O79 C87 1.303 1_565 S
O80 Zn73 1.938 . S
O80 C87 1.247 . S
O81 Zn73 1.906 . S
O81 C89 1.304 . S
O82 Zn70 1.924 . S
O82 C90 1.311 . S
O83 Zn74 1.977 . S
O83 C89 1.272 . S
O84 Zn74 1.910 . S
O84 C90 1.231 . S
C85 O69 1.225 . S
C85 O91 1.298 . S
C86 O75 1.226 . S
C86 O76 1.307 . S
C87 O79 1.303 1_545 S
C87 O80 1.247 . S
C88 O77 1.253 . S
C88 O78 1.283 . S
C89 O81 1.304 . S
C89 O83 1.272 . S
C90 O82 1.311 . S
C90 O84 1.231 . S
O91 Zn73 1.953 . S
O91 C85 1.298 . S
O92 Zn93 1.953 . S
O92 C108 1.225 . S
Zn93 O92 1.953 . S
Zn93 O94 1.949 . S
Zn93 O100 1.919 . S
Zn93 O105 1.924 1_455 S
O94 Zn93 1.949 . S
O94 Zn95 1.923 . S
O94 Zn96 1.950 . S
O94 Zn97 1.945 1_455 S
Zn95 O94 1.923 . S
Zn95 O98 1.933 1_455 S
Zn95 O101 1.941 . S
Zn95 O102 1.965 . S
Zn96 O94 1.950 . S
Zn96 O103 1.938 . S
Zn96 O104 1.906 . S
Zn96 O114 1.953 . S
Zn97 O94 1.945 1_655 S
Zn97 O99 1.932 . S
Zn97 O106 1.977 . S
Zn97 O107 1.910 . S
O98 Zn95 1.933 1_655 S
O98 C109 1.226 . S
O99 Zn97 1.932 . S
O99 C109 1.307 . S
O100 Zn93 1.919 . S
O100 C111 1.253 . S
O101 Zn95 1.941 . S
O101 C111 1.283 . S
O102 Zn95 1.965 . S
O102 C110 1.303 . S
O103 Zn96 1.938 . S
O103 C110 1.247 . S
O104 Zn96 1.906 . S
O104 C112 1.304 . S
O105 Zn93 1.924 1_655 S
O105 C113 1.311 . S
O106 Zn97 1.977 . S
O106 C112 1.272 1_655 S
O107 Zn97 1.910 . S
O107 C113 1.231 . S
C108 O92 1.225 . S
C108 O114 1.298 . S
C109 O98 1.226 . S
C109 O99 1.307 . S
C110 O102 1.303 . S
C110 O103 1.247 . S
C111 O100 1.253 . S
C111 O101 1.283 . S
C112 O104 1.304 . S
C112 O106 1.272 1_455 S
C113 O105 1.311 . S
C113 O107 1.231 . S
O114 Zn96 1.953 . S
O114 C108 1.298 . S
O115 Zn116 1.953 . S
O115 C131 1.225 . S
Zn116 O115 1.953 . S
Zn116 O117 1.949 . S
Zn116 O123 1.919 . S
Zn116 O128 1.924 1_545 S
O117 Zn116 1.949 . S
O117 Zn118 1.923 . S
O117 Zn119 1.950 . S
O117 Zn120 1.945 1_545 S
Zn118 O117 1.923 . S
Zn118 O121 1.933 1_545 S
Zn118 O124 1.941 . S
Zn118 O125 1.965 . S
Zn119 O117 1.950 . S
Zn119 O126 1.938 . S
Zn119 O127 1.906 . S
Zn119 O137 1.953 . S
Zn120 O117 1.945 1_565 S
Zn120 O122 1.932 . S
Zn120 O129 1.977 . S
Zn120 O130 1.910 . S
O121 Zn118 1.933 1_565 S
O121 C132 1.226 . S
O122 Zn120 1.932 . S
O122 C132 1.307 . S
O123 Zn116 1.919 . S
O123 C134 1.253 . S
O124 Zn118 1.941 . S
O124 C134 1.283 . S
O125 Zn118 1.965 . S
O125 C133 1.303 . S
O126 Zn119 1.938 . S
O126 C133 1.247 . S
O127 Zn119 1.906 . S
O127 C135 1.304 . S
O128 Zn116 1.924 1_565 S
O128 C136 1.311 . S
O129 Zn120 1.977 . S
O129 C135 1.272 1_565 S
O130 Zn120 1.910 . S
O130 C136 1.231 . S
C131 O115 1.225 . S
C131 O137 1.298 . S
C132 O121 1.226 . S
C132 O122 1.307 . S
C133 O125 1.303 . S
C133 O126 1.247 . S
C134 O123 1.253 . S
C134 O124 1.283 . S
C135 O127 1.304 . S
C135 O129 1.272 1_545 S
C136 O128 1.311 . S
C136 O130 1.231 . S
O137 Zn119 1.953 . S
O137 C131 1.298 . S
O138 Zn139 1.953 1_655 S
O138 C154 1.225 . S
Zn139 O138 1.953 1_455 S
Zn139 O140 1.949 . S
Zn139 O146 1.919 . S
Zn139 O151 1.924 . S
O140 Zn139 1.949 . S
O140 Zn141 1.923 . S
O140 Zn142 1.950 1_455 S
O140 Zn143 1.945 . S
Zn141 O140 1.923 . S
Zn141 O144 1.933 . S
Zn141 O147 1.941 1_455 S
Zn141 O148 1.965 1_455 S
Zn142 O140 1.950 1_655 S
Zn142 O149 1.938 . S
Zn142 O150 1.906 . S
Zn142 O160 1.953 . S
Zn143 O140 1.945 . S
Zn143 O145 1.932 . S
Zn143 O152 1.977 . S
Zn143 O153 1.910 . S
O144 Zn141 1.933 . S
O144 C155 1.226 . S
O145 Zn143 1.932 . S
O145 C155 1.307 . S
O146 Zn139 1.919 . S
O146 C157 1.253 . S
O147 Zn141 1.941 1_655 S
O147 C157 1.282 1_655 S
O148 Zn141 1.965 1_655 S
O148 C156 1.303 . S
O149 Zn142 1.938 . S
O149 C156 1.247 . S
O150 Zn142 1.906 . S
O150 C158 1.304 1_655 S
O151 Zn139 1.924 . S
O151 C159 1.311 . S
O152 Zn143 1.977 . S
O152 C158 1.272 . S
O153 Zn143 1.910 . S
O153 C159 1.231 . S
C154 O138 1.225 . S
C154 O160 1.298 . S
C155 O144 1.226 . S
C155 O145 1.307 . S
C156 O148 1.303 . S
C156 O149 1.247 . S
C157 O146 1.253 . S
C157 O147 1.282 1_455 S
C158 O150 1.304 1_455 S
C158 O152 1.272 . S
C159 O151 1.311 . S
C159 O153 1.231 . S
O160 Zn142 1.953 . S
O160 C154 1.298 . S
O161 Zn162 1.953 1_565 S
O161 C177 1.225 . S
Zn162 O161 1.953 1_545 S
Zn162 O163 1.949 . S
Zn162 O169 1.919 . S
Zn162 O174 1.924 . S
O163 Zn162 1.949 . S
O163 Zn164 1.923 . S
O163 Zn165 1.950 1_545 S
O163 Zn166 1.945 . S
Zn164 O163 1.923 . S
Zn164 O167 1.933 . S
Zn164 O170 1.941 1_545 S
Zn164 O171 1.965 1_545 S
Zn165 O163 1.950 1_565 S
Zn165 O172 1.938 . S
Zn165 O173 1.906 . S
Zn165 O183 1.953 . S
Zn166 O163 1.945 . S
Zn166 O168 1.932 . S
Zn166 O175 1.977 . S
Zn166 O176 1.910 . S
O167 Zn164 1.933 . S
O167 C178 1.226 . S
O168 Zn166 1.932 . S
O168 C178 1.307 . S
O169 Zn162 1.919 . S
O169 C180 1.253 . S
O170 Zn164 1.941 1_565 S
O170 C180 1.282 1_565 S
O171 Zn164 1.965 1_565 S
O171 C179 1.303 . S
O172 Zn165 1.938 . S
O172 C179 1.247 . S
O173 Zn165 1.906 . S
O173 C181 1.304 1_565 S
O174 Zn162 1.924 . S
O174 C182 1.311 . S
O175 Zn166 1.977 . S
O175 C181 1.272 . S
O176 Zn166 1.910 . S
O176 C182 1.231 . S
C177 O161 1.225 . S
C177 O183 1.298 . S
C178 O167 1.226 . S
C178 O168 1.307 . S
C179 O171 1.303 . S
C179 O172 1.247 . S
C180 O169 1.253 . S
C180 O170 1.282 1_545 S
C181 O173 1.304 1_545 S
C181 O175 1.272 . S
C182 O174 1.311 . S
C182 O176 1.231 . S
O183 Zn165 1.953 . S
O183 C177 1.298 . S
O184 Zn185 1.953 . S
O184 C200 1.225 . S
Zn185 O184 1.953 . S
Zn185 O186 1.949 . S
Zn185 O192 1.919 . S
Zn185 O197 1.924 1_545 S
O186 Zn185 1.949 . S
O186 Zn187 1.923 . S
O186 Zn188 1.950 . S
O186 Zn189 1.945 1_545 S
Zn187 O186 1.923 . S
Zn187 O190 1.933 1_545 S
Zn187 O193 1.941 . S
Zn187 O194 1.965 . S
Zn188 O186 1.950 . S
Zn188 O195 1.938 . S
Zn188 O196 1.906 . S
Zn188 O206 1.953 . S
Zn189 O186 1.945 1_565 S
Zn189 O191 1.932 . S
Zn189 O198 1.977 . S
Zn189 O199 1.910 . S
O190 Zn187 1.933 1_565 S
O190 C201 1.226 . S
O191 Zn189 1.932 . S
O191 C201 1.307 . S
O192 Zn185 1.919 . S
O192 C203 1.253 . S
O193 Zn187 1.941 . S
O193 C203 1.283 . S
O194 Zn187 1.965 . S
O194 C202 1.303 . S
O195 Zn188 1.938 . S
O195 C202 1.247 . S
O196 Zn188 1.906 . S
O196 C204 1.304 . S
O197 Zn185 1.924 1_565 S
O197 C205 1.311 . S
O198 Zn189 1.977 . S
O198 C204 1.272 1_565 S
O199 Zn189 1.910 . S
O199 C205 1.231 . S
C200 O184 1.225 . S
C200 O206 1.298 . S
C201 O190 1.226 . S
C201 O191 1.307 . S
C202 O194 1.303 . S
C202 O195 1.247 . S
C203 O192 1.253 . S
C203 O193 1.283 . S
C204 O196 1.304 . S
C204 O198 1.272 1_545 S
C205 O197 1.311 . S
C205 O199 1.231 . S
O206 Zn188 1.953 . S
O206 C200 1.298 . S
O207 Zn208 1.953 1_655 S
O207 C223 1.225 . S
Zn208 O207 1.953 1_455 S
Zn208 O209 1.949 . S
Zn208 O215 1.919 . S
Zn208 O220 1.924 . S
O209 Zn208 1.949 . S
O209 Zn210 1.923 . S
O209 Zn211 1.950 1_455 S
O209 Zn212 1.945 . S
Zn210 O209 1.923 . S
Zn210 O213 1.933 . S
Zn210 O216 1.941 1_455 S
Zn210 O217 1.965 1_455 S
Zn211 O209 1.950 1_655 S
Zn211 O218 1.938 . S
Zn211 O219 1.906 . S
Zn211 O229 1.953 . S
Zn212 O209 1.945 . S
Zn212 O214 1.932 . S
Zn212 O221 1.977 . S
Zn212 O222 1.910 . S
O213 Zn210 1.933 . S
O213 C224 1.226 . S
O214 Zn212 1.932 . S
O214 C224 1.307 . S
O215 Zn208 1.919 . S
O215 C226 1.253 . S
O216 Zn210 1.941 1_655 S
O216 C226 1.283 1_655 S
O217 Zn210 1.965 1_655 S
O217 C225 1.303 . S
O218 Zn211 1.938 . S
O218 C225 1.247 . S
O219 Zn211 1.906 . S
O219 C227 1.304 1_655 S
O220 Zn208 1.924 . S
O220 C228 1.311 . S
O221 Zn212 1.977 . S
O221 C227 1.272 . S
O222 Zn212 1.910 . S
O222 C228 1.231 . S
C223 O207 1.225 . S
C223 O229 1.298 . S
C224 O213 1.226 . S
C224 O214 1.307 . S
C225 O217 1.303 . S
C225 O218 1.247 . S
C226 O215 1.253 . S
C226 O216 1.283 1_455 S
C227 O219 1.304 1_455 S
C227 O221 1.272 . S
C228 O220 1.311 . S
C228 O222 1.231 . S
O229 Zn211 1.953 . S
O229 C223 1.298 . S
O230 Zn231 1.953 . S
O230 C246 1.225 . S
Zn231 O230 1.953 . S
Zn231 O232 1.949 . S
Zn231 O238 1.919 1_545 S
Zn231 O243 1.924 . S
O232 Zn231 1.949 . S
O232 Zn233 1.923 1_545 S
O232 Zn234 1.950 . S
O232 Zn235 1.945 . S
Zn233 O232 1.923 1_565 S
Zn233 O236 1.933 . S
Zn233 O239 1.941 . S
Zn233 O240 1.965 . S
Zn234 O232 1.950 . S
Zn234 O241 1.938 . S
Zn234 O242 1.906 . S
Zn234 O252 1.953 . S
Zn235 O232 1.945 . S
Zn235 O237 1.932 1_545 S
Zn235 O244 1.977 . S
Zn235 O245 1.910 . S
O236 Zn233 1.933 . S
O236 C247 1.226 . S
O237 Zn235 1.932 1_565 S
O237 C247 1.307 . S
O238 Zn231 1.919 1_565 S
O238 C249 1.253 . S
O239 Zn233 1.941 . S
O239 C249 1.283 . S
O240 Zn233 1.965 . S
O240 C248 1.303 1_565 S
O241 Zn234 1.938 . S
O241 C248 1.247 . S
O242 Zn234 1.906 . S
O242 C250 1.304 . S
O243 Zn231 1.924 . S
O243 C251 1.311 . S
O244 Zn235 1.977 . S
O244 C250 1.272 . S
O245 Zn235 1.910 . S
O245 C251 1.231 . S
C246 O230 1.225 . S
C246 O252 1.298 . S
C247 O236 1.226 . S
C247 O237 1.307 . S
C248 O240 1.303 1_545 S
C248 O241 1.247 . S
C249 O238 1.253 . S
C249 O239 1.283 . S
C250 O242 1.304 . S
C250 O244 1.272 . S
C251 O243 1.311 . S
C251 O245 1.231 . S
O252 Zn234 1.953 . S
O252 C246 1.298 . S
O253 Zn254 1.953 . S
O253 C269 1.225 . S
Zn254 O253 1.953 . S
Zn254 O255 1.949 . S
Zn254 O261 1.919 . S
Zn254 O266 1.924 1_455 S
O255 Zn254 1.949 . S
O255 Zn256 1.923 . S
O255 Zn257 1.950 . S
O255 Zn258 1.945 1_455 S
Zn256 O255 1.923 . S
Zn256 O259 1.933 1_455 S
Zn256 O262 1.941 . S
Zn256 O263 1.965 . S
Zn257 O255 1.950 . S
Zn257 O264 1.938 . S
Zn257 O265 1.906 . S
Zn257 O275 1.953 . S
Zn258 O255 1.945 1_655 S
Zn258 O260 1.932 . S
Zn258 O267 1.977 . S
Zn258 O268 1.910 . S
O259 Zn256 1.933 1_655 S
O259 C270 1.226 . S
O260 Zn258 1.932 . S
O260 C270 1.307 . S
O261 Zn254 1.919 . S
O261 C272 1.253 . S
O262 Zn256 1.941 . S
O262 C272 1.283 . S
O263 Zn256 1.965 . S
O263 C271 1.303 . S
O264 Zn257 1.938 . S
O264 C271 1.247 . S
O265 Zn257 1.906 . S
O265 C273 1.304 . S
O266 Zn254 1.924 1_655 S
O266 C274 1.311 . S
O267 Zn258 1.977 . S
O267 C273 1.272 1_655 S
O268 Zn258 1.910 . S
O268 C274 1.231 . S
C269 O253 1.225 . S
C269 O275 1.298 . S
C270 O259 1.226 . S
C270 O260 1.307 . S
C271 O263 1.303 . S
C271 O264 1.247 . S
C272 O261 1.253 . S
C272 O262 1.283 . S
C273 O265 1.304 . S
C273 O267 1.272 1_455 S
C274 O266 1.311 . S
C274 O268 1.231 . S
O275 Zn257 1.953 . S
O275 C269 1.298 . S
O276 Zn277 1.953 1_565 S
O276 C292 1.225 . S
Zn277 O276 1.953 1_545 S
Zn277 O278 1.949 . S
Zn277 O284 1.919 . S
Zn277 O289 1.924 . S
O278 Zn277 1.949 . S
O278 Zn279 1.923 . S
O278 Zn280 1.950 1_545 S
O278 Zn281 1.945 . S
Zn279 O278 1.923 . S
Zn279 O282 1.933 . S
Zn279 O285 1.942 . S
Zn279 O286 1.965 1_545 S
Zn280 O278 1.950 1_565 S
Zn280 O287 1.938 . S
Zn280 O288 1.906 . S
Zn280 O298 1.953 . S
Zn281 O278 1.945 . S
Zn281 O283 1.932 . S
Zn281 O290 1.977 . S
Zn281 O291 1.910 . S
O282 Zn279 1.933 . S
O282 C293 1.226 . S
O283 Zn281 1.932 . S
O283 C293 1.307 . S
O284 Zn277 1.919 . S
O284 C295 1.253 . S
O285 Zn279 1.942 . S
O285 C295 1.285 . S
O286 Zn279 1.965 1_565 S
O286 C294 1.303 . S
O287 Zn280 1.938 . S
O287 C294 1.247 . S
O288 Zn280 1.906 . S
O288 C296 1.304 1_565 S
O289 Zn277 1.924 . S
O289 C297 1.311 . S
O290 Zn281 1.977 . S
O290 C296 1.272 . S
O291 Zn281 1.910 . S
O291 C297 1.231 . S
C292 O276 1.225 . S
C292 O298 1.298 . S
C293 O282 1.226 . S
C293 O283 1.307 . S
C294 O286 1.303 . S
C294 O287 1.247 . S
C295 O284 1.253 . S
C295 O285 1.285 . S
C296 O288 1.304 1_545 S
C296 O290 1.272 . S
C297 O289 1.311 . S
C297 O291 1.231 . S
O298 Zn280 1.953 . S
O298 C292 1.298 . S
O299 Zn300 1.953 . S
O299 C315 1.225 . S
Zn300 O299 1.953 . S
Zn300 O301 1.949 . S
Zn300 O307 1.919 . S
Zn300 O312 1.924 1_455 S
O301 Zn300 1.949 . S
O301 Zn302 1.923 . S
O301 Zn303 1.950 . S
O301 Zn304 1.945 1_455 S
Zn302 O301 1.923 . S
Zn302 O305 1.933 1_455 S
Zn302 O308 1.941 . S
Zn302 O309 1.965 . S
Zn303 O301 1.950 . S
Zn303 O310 1.938 . S
Zn303 O311 1.906 . S
Zn303 O321 1.953 . S
Zn304 O301 1.945 1_655 S
Zn304 O306 1.932 . S
Zn304 O313 1.977 . S
Zn304 O314 1.910 . S
O305 Zn302 1.933 1_655 S
O305 C316 1.226 . S
O306 Zn304 1.932 . S
O306 C316 1.307 . S
O307 Zn300 1.919 . S
O307 C318 1.253 . S
O308 Zn302 1.941 . S
O308 C318 1.283 . S
O309 Zn302 1.965 . S
O309 C317 1.303 . S
O310 Zn303 1.938 . S
O310 C317 1.247 . S
O311 Zn303 1.906 . S
O311 C319 1.304 . S
O312 Zn300 1.924 1_655 S
O312 C320 1.311 . S
O313 Zn304 1.977 . S
O313 C319 1.272 1_655 S
O314 Zn304 1.910 . S
O314 C320 1.231 . S
C315 O299 1.225 . S
C315 O321 1.298 . S
C316 O305 1.226 . S
C316 O306 1.307 . S
C317 O309 1.303 . S
C317 O310 1.247 . S
C318 O307 1.253 . S
C318 O308 1.283 . S
C319 O311 1.304 . S
C319 O313 1.272 1_455 S
C320 O312 1.311 . S
C320 O314 1.231 . S
O321 Zn303 1.953 . S
O321 C315 1.298 . S
O322 Zn323 1.953 . S
O322 C338 1.225 . S
Zn323 O322 1.953 . S
Zn323 O324 1.949 . S
Zn323 O330 1.919 . S
Zn323 O335 1.924 1_545 S
O324 Zn323 1.949 . S
O324 Zn325 1.923 . S
O324 Zn326 1.950 . S
O324 Zn327 1.945 1_545 S
Zn325 O324 1.923 . S
Zn325 O328 1.933 1_545 S
Zn325 O331 1.941 . S
Zn325 O332 1.965 . S
Zn326 O324 1.950 . S
Zn326 O333 1.938 . S
Zn326 O334 1.906 . S
Zn326 O344 1.953 . S
Zn327 O324 1.945 1_565 S
Zn327 O329 1.932 . S
Zn327 O336 1.977 . S
Zn327 O337 1.910 . S
O328 Zn325 1.933 1_565 S
O328 C339 1.226 . S
O329 Zn327 1.932 . S
O329 C339 1.307 . S
O330 Zn323 1.919 . S
O330 C341 1.253 . S
O331 Zn325 1.941 . S
O331 C341 1.283 . S
O332 Zn325 1.965 . S
O332 C340 1.303 . S
O333 Zn326 1.938 . S
O333 C340 1.247 . S
O334 Zn326 1.906 . S
O334 C342 1.304 . S
O335 Zn323 1.924 1_565 S
O335 C343 1.311 . S
O336 Zn327 1.977 . S
O336 C342 1.272 1_565 S
O337 Zn327 1.910 . S
O337 C343 1.231 . S
C338 O322 1.225 . S
C338 O344 1.298 . S
C339 O328 1.226 . S
C339 O329 1.307 . S
C340 O332 1.303 . S
C340 O333 1.247 . S
C341 O330 1.253 . S
C341 O331 1.283 . S
C342 O334 1.304 . S
C342 O336 1.272 1_545 S
C343 O335 1.311 . S
C343 O337 1.231 . S
O344 Zn326 1.953 . S
O344 C338 1.298 . S
O345 Zn346 1.953 1_655 S
O345 C361 1.225 . S
Zn346 O345 1.953 1_455 S
Zn346 O347 1.949 . S
Zn346 O353 1.919 . S
Zn346 O358 1.924 . S
O347 Zn346 1.949 . S
O347 Zn348 1.923 . S
O347 Zn349 1.950 1_455 S
O347 Zn350 1.945 . S
Zn348 O347 1.923 . S
Zn348 O351 1.933 . S
Zn348 O354 1.941 1_455 S
Zn348 O355 1.965 1_455 S
Zn349 O347 1.950 1_655 S
Zn349 O356 1.938 . S
Zn349 O357 1.906 . S
Zn349 O367 1.953 . S
Zn350 O347 1.945 . S
Zn350 O352 1.932 . S
Zn350 O359 1.977 . S
Zn350 O360 1.910 . S
O351 Zn348 1.933 . S
O351 C362 1.226 . S
O352 Zn350 1.932 . S
O352 C362 1.307 . S
O353 Zn346 1.919 . S
O353 C364 1.253 . S
O354 Zn348 1.941 1_655 S
O354 C364 1.281 1_655 S
O355 Zn348 1.965 1_655 S
O355 C363 1.303 . S
O356 Zn349 1.938 . S
O356 C363 1.247 . S
O357 Zn349 1.906 . S
O357 C365 1.304 1_655 S
O358 Zn346 1.924 . S
O358 C366 1.311 . S
O359 Zn350 1.977 . S
O359 C365 1.272 . S
O360 Zn350 1.910 . S
O360 C366 1.231 . S
C361 O345 1.225 . S
C361 O367 1.298 . S
C362 O351 1.226 . S
C362 O352 1.307 . S
C363 O355 1.303 . S
C363 O356 1.247 . S
C364 O353 1.253 . S
C364 O354 1.281 1_455 S
C365 O357 1.304 1_455 S
C365 O359 1.272 . S
C366 O358 1.311 . S
C366 O360 1.231 . S
O367 Zn349 1.953 . S
O367 C361 1.298 . S
O368 Zn369 1.953 . S
O368 C384 1.225 . S
Zn369 O368 1.953 . S
Zn369 O370 1.949 . S
Zn369 O376 1.919 . S
Zn369 O381 1.924 1_554 S
O370 Zn369 1.949 . S
O370 Zn371 1.923 . S
O370 Zn372 1.950 . S
O370 Zn373 1.945 1_554 S
Zn371 O370 1.923 . S
Zn371 O374 1.933 1_554 S
Zn371 O377 1.941 . S
Zn371 O378 1.965 . S
Zn372 O370 1.950 . S
Zn372 O379 1.938 . S
Zn372 O380 1.906 . S
Zn372 O390 1.953 . S
Zn373 O370 1.945 1_556 S
Zn373 O375 1.932 . S
Zn373 O382 1.977 . S
Zn373 O383 1.910 . S
O374 Zn371 1.933 1_556 S
O374 C385 1.226 . S
O375 Zn373 1.932 . S
O375 C385 1.307 . S
O376 Zn369 1.919 . S
O376 C387 1.253 . S
O377 Zn371 1.941 . S
O377 C387 1.283 . S
O378 Zn371 1.965 . S
O378 C386 1.303 . S
O379 Zn372 1.938 . S
O379 C386 1.247 . S
O380 Zn372 1.906 . S
O380 C388 1.304 . S
O381 Zn369 1.924 1_556 S
O381 C389 1.311 . S
O382 Zn373 1.977 . S
O382 C388 1.272 1_556 S
O383 Zn373 1.910 . S
O383 C389 1.231 . S
C384 O368 1.225 . S
C384 O390 1.298 . S
C385 O374 1.226 . S
C385 O375 1.307 . S
C386 O378 1.303 . S
C386 O379 1.247 . S
C387 O376 1.253 . S
C387 O377 1.283 . S
C388 O380 1.304 . S
C388 O382 1.272 1_554 S
C389 O381 1.311 . S
C389 O383 1.231 . S
O390 Zn372 1.953 . S
O390 C384 1.298 . S
O391 Zn392 1.953 1_556 S
O391 C407 1.225 . S
Zn392 O391 1.953 1_554 S
Zn392 O393 1.949 . S
Zn392 O399 1.919 . S
Zn392 O404 1.924 . S
O393 Zn392 1.949 . S
O393 Zn394 1.923 . S
O393 Zn395 1.950 1_554 S
O393 Zn396 1.945 . S
Zn394 O393 1.923 . S
Zn394 O397 1.933 . S
Zn394 O400 1.941 1_554 S
Zn394 O401 1.965 1_554 S
Zn395 O393 1.950 1_556 S
Zn395 O402 1.938 . S
Zn395 O403 1.906 . S
Zn395 O413 1.953 . S
Zn396 O393 1.945 . S
Zn396 O398 1.932 . S
Zn396 O405 1.977 . S
Zn396 O406 1.910 . S
O397 Zn394 1.933 . S
O397 C408 1.226 . S
O398 Zn396 1.932 . S
O398 C408 1.307 . S
O399 Zn392 1.919 . S
O399 C410 1.253 . S
O400 Zn394 1.941 1_556 S
O400 C410 1.283 1_556 S
O401 Zn394 1.965 1_556 S
O401 C409 1.303 . S
O402 Zn395 1.938 . S
O402 C409 1.247 . S
O403 Zn395 1.906 . S
O403 C411 1.304 1_556 S
O404 Zn392 1.924 . S
O404 C412 1.311 . S
O405 Zn396 1.977 . S
O405 C411 1.272 . S
O406 Zn396 1.910 . S
O406 C412 1.231 . S
C407 O391 1.225 . S
C407 O413 1.298 . S
C408 O397 1.226 . S
C408 O398 1.307 . S
C409 O401 1.303 . S
C409 O402 1.247 . S
C410 O399 1.253 . S
C410 O400 1.283 1_554 S
C411 O403 1.304 1_554 S
C411 O405 1.272 . S
C412 O404 1.311 . S
C412 O406 1.231 . S
O413 Zn395 1.953 . S
O413 C407 1.298 . S
O414 Zn415 1.953 1_556 S
O414 C430 1.225 . S
Zn415 O414 1.953 1_554 S
Zn415 O416 1.949 . S
Zn415 O422 1.919 . S
Zn415 O427 1.924 . S
O416 Zn415 1.949 . S
O416 Zn417 1.923 . S
O416 Zn418 1.950 1_554 S
O416 Zn419 1.945 . S
Zn417 O416 1.923 . S
Zn417 O420 1.933 . S
Zn417 O423 1.940 1_554 S
Zn417 O424 1.965 1_554 S
Zn418 O416 1.950 1_556 S
Zn418 O425 1.938 . S
Zn418 O426 1.906 . S
Zn418 O436 1.953 . S
Zn419 O416 1.945 . S
Zn419 O421 1.932 . S
Zn419 O428 1.977 . S
Zn419 O429 1.910 . S
O420 Zn417 1.933 . S
O420 C431 1.226 . S
O421 Zn419 1.932 . S
O421 C431 1.307 . S
O422 Zn415 1.919 . S
O422 C433 1.253 . S
O423 Zn417 1.940 1_556 S
O423 C433 1.278 1_556 S
O424 Zn417 1.965 1_556 S
O424 C432 1.303 . S
O425 Zn418 1.938 . S
O425 C432 1.247 . S
O426 Zn418 1.906 . S
O426 C434 1.304 1_556 S
O427 Zn415 1.924 . S
O427 C435 1.311 . S
O428 Zn419 1.977 . S
O428 C434 1.272 . S
O429 Zn419 1.910 . S
O429 C435 1.231 . S
C430 O414 1.225 . S
C430 O436 1.298 . S
C431 O420 1.226 . S
C431 O421 1.307 . S
C432 O424 1.303 . S
C432 O425 1.247 . S
C433 O422 1.253 . S
C433 O423 1.278 1_554 S
C434 O426 1.304 1_554 S
C434 O428 1.272 . S
C435 O427 1.311 . S
C435 O429 1.231 . S
O436 Zn418 1.953 . S
O436 C430 1.298 . S
O437 Zn438 1.953 1_556 S
O437 C453 1.225 . S
Zn438 O437 1.953 1_554 S
Zn438 O439 1.949 . S
Zn438 O445 1.919 . S
Zn438 O450 1.924 . S
O439 Zn438 1.949 . S
O439 Zn440 1.923 . S
O439 Zn441 1.950 1_554 S
O439 Zn442 1.945 . S
Zn440 O439 1.923 . S
Zn440 O443 1.933 . S
Zn440 O446 1.941 . S
Zn440 O447 1.965 1_554 S
Zn441 O439 1.950 1_556 S
Zn441 O448 1.938 . S
Zn441 O449 1.906 . S
Zn441 O459 1.953 . S
Zn442 O439 1.945 . S
Zn442 O444 1.932 . S
Zn442 O451 1.977 . S
Zn442 O452 1.910 . S
O443 Zn440 1.933 . S
O443 C454 1.226 . S
O444 Zn442 1.932 . S
O444 C454 1.307 . S
O445 Zn438 1.919 . S
O445 C456 1.253 . S
O446 Zn440 1.941 . S
O446 C456 1.282 . S
O447 Zn440 1.965 1_556 S
O447 C455 1.303 . S
O448 Zn441 1.938 . S
O448 C455 1.247 . S
O449 Zn441 1.906 . S
O449 C457 1.304 1_556 S
O450 Zn438 1.924 . S
O450 C458 1.311 . S
O451 Zn442 1.977 . S
O451 C457 1.272 . S
O452 Zn442 1.910 . S
O452 C458 1.231 . S
C453 O437 1.225 . S
C453 O459 1.298 . S
C454 O443 1.226 . S
C454 O444 1.307 . S
C455 O447 1.303 . S
C455 O448 1.247 . S
C456 O445 1.253 . S
C456 O446 1.282 . S
C457 O449 1.304 1_554 S
C457 O451 1.272 . S
C458 O450 1.311 . S
C458 O452 1.231 . S
O459 Zn441 1.953 . S
O459 C453 1.298 . S
O460 Zn461 1.953 1_556 S
O460 C476 1.225 . S
Zn461 O460 1.953 1_554 S
Zn461 O462 1.949 . S
Zn461 O468 1.919 . S
Zn461 O473 1.924 . S
O462 Zn461 1.949 . S
O462 Zn463 1.923 . S
O462 Zn464 1.950 1_554 S
O462 Zn465 1.945 . S
Zn463 O462 1.923 . S
Zn463 O466 1.933 . S
Zn463 O469 1.941 1_554 S
Zn463 O470 1.965 1_554 S
Zn464 O462 1.950 1_556 S
Zn464 O471 1.938 . S
Zn464 O472 1.906 . S
Zn464 O482 1.953 . S
Zn465 O462 1.945 . S
Zn465 O467 1.932 . S
Zn465 O474 1.977 . S
Zn465 O475 1.910 . S
O466 Zn463 1.933 . S
O466 C477 1.226 . S
O467 Zn465 1.932 . S
O467 C477 1.307 . S
O468 Zn461 1.919 . S
O468 C479 1.253 . S
O469 Zn463 1.941 1_556 S
O469 C479 1.281 1_556 S
O470 Zn463 1.965 1_556 S
O470 C478 1.303 . S
O471 Zn464 1.938 . S
O471 C478 1.247 . S
O472 Zn464 1.906 . S
O472 C480 1.304 1_556 S
O473 Zn461 1.924 . S
O473 C481 1.311 . S
O474 Zn465 1.977 . S
O474 C480 1.272 . S
O475 Zn465 1.910 . S
O475 C481 1.231 . S
C476 O460 1.225 . S
C476 O482 1.298 . S
C477 O466 1.226 . S
C477 O467 1.307 . S
C478 O470 1.303 . S
C478 O471 1.247 . S
C479 O468 1.253 . S
C479 O469 1.281 1_554 S
C480 O472 1.304 1_554 S
C480 O474 1.272 . S
C481 O473 1.311 . S
C481 O475 1.231 . S
O482 Zn464 1.953 . S
O482 C476 1.298 . S
O483 Zn484 1.953 . S
O483 C499 1.225 . S
Zn484 O483 1.953 . S
Zn484 O485 1.949 . S
Zn484 O491 1.919 . S
Zn484 O496 1.924 1_554 S
O485 Zn484 1.949 . S
O485 Zn486 1.923 . S
O485 Zn487 1.950 . S
O485 Zn488 1.945 1_554 S
Zn486 O485 1.923 . S
Zn486 O489 1.933 1_554 S
Zn486 O492 1.941 . S
Zn486 O493 1.965 . S
Zn487 O485 1.950 . S
Zn487 O494 1.938 . S
Zn487 O495 1.906 . S
Zn487 O505 1.953 . S
Zn488 O485 1.945 1_556 S
Zn488 O490 1.932 . S
Zn488 O497 1.977 . S
Zn488 O498 1.910 . S
O489 Zn486 1.933 1_556 S
O489 C500 1.226 . S
O490 Zn488 1.932 . S
O490 C500 1.307 . S
O491 Zn484 1.919 . S
O491 C502 1.253 . S
O492 Zn486 1.941 . S
O492 C502 1.283 . S
O493 Zn486 1.965 . S
O493 C501 1.303 . S
O494 Zn487 1.938 . S
O494 C501 1.247 . S
O495 Zn487 1.906 . S
O495 C503 1.304 . S
O496 Zn484 1.924 1_556 S
O496 C504 1.311 . S
O497 Zn488 1.977 . S
O497 C503 1.272 1_556 S
O498 Zn488 1.910 . S
O498 C504 1.231 . S
C499 O483 1.225 . S
C499 O505 1.298 . S
C500 O489 1.226 . S
C500 O490 1.307 . S
C501 O493 1.303 . S
C501 O494 1.247 . S
C502 O491 1.253 . S
C502 O492 1.283 . S
C503 O495 1.304 . S
C503 O497 1.272 1_554 S
C504 O496 1.311 . S
C504 O498 1.231 . S
O505 Zn487 1.953 . S
O505 C499 1.298 . S
O506 Zn507 1.953 . S
O506 C522 1.225 . S
Zn507 O506 1.953 . S
Zn507 O508 1.949 . S
Zn507 O514 1.919 . S
Zn507 O519 1.924 1_554 S
O508 Zn507 1.949 . S
O508 Zn509 1.923 . S
O508 Zn510 1.950 . S
O508 Zn511 1.945 1_554 S
Zn509 O508 1.923 . S
Zn509 O512 1.933 1_554 S
Zn509 O515 1.941 . S
Zn509 O516 1.965 . S
Zn510 O508 1.950 . S
Zn510 O517 1.938 . S
Zn510 O518 1.906 . S
Zn510 O528 1.953 . S
Zn511 O508 1.945 1_556 S
Zn511 O513 1.932 . S
Zn511 O520 1.977 . S
Zn511 O521 1.910 . S
O512 Zn509 1.933 1_556 S
O512 C523 1.226 . S
O513 Zn511 1.932 . S
O513 C523 1.307 . S
O514 Zn507 1.919 . S
O514 C525 1.253 . S
O515 Zn509 1.941 . S
O515 C525 1.283 . S
O516 Zn509 1.965 . S
O516 C524 1.303 . S
O517 Zn510 1.938 . S
O517 C524 1.247 . S
O518 Zn510 1.906 . S
O518 C526 1.304 . S
O519 Zn507 1.924 1_556 S
O519 C527 1.311 . S
O520 Zn511 1.977 . S
O520 C526 1.272 1_556 S
O521 Zn511 1.910 . S
O521 C527 1.231 . S
C522 O506 1.225 . S
C522 O528 1.298 . S
C523 O512 1.226 . S
C523 O513 1.307 . S
C524 O516 1.303 . S
C524 O517 1.247 . S
C525 O514 1.253 . S
C525 O515 1.283 . S
C526 O518 1.304 . S
C526 O520 1.272 1_554 S
C527 O519 1.311 . S
C527 O521 1.231 . S
O528 Zn510 1.953 . S
O528 C522 1.298 . S
O529 Zn530 1.953 . S
O529 C545 1.225 . S
Zn530 O529 1.953 . S
Zn530 O531 1.949 . S
Zn530 O537 1.919 . S
Zn530 O542 1.924 1_554 S
O531 Zn530 1.949 . S
O531 Zn532 1.923 . S
O531 Zn533 1.950 . S
O531 Zn534 1.945 1_554 S
Zn532 O531 1.923 . S
Zn532 O535 1.933 1_554 S
Zn532 O538 1.941 . S
Zn532 O539 1.965 . S
Zn533 O531 1.950 . S
Zn533 O540 1.938 . S
Zn533 O541 1.906 . S
Zn533 O551 1.953 . S
Zn534 O531 1.945 1_556 S
Zn534 O536 1.932 . S
Zn534 O543 1.977 . S
Zn534 O544 1.910 . S
O535 Zn532 1.933 1_556 S
O535 C546 1.226 . S
O536 Zn534 1.932 . S
O536 C546 1.307 . S
O537 Zn530 1.919 . S
O537 C548 1.253 . S
O538 Zn532 1.941 . S
O538 C548 1.283 . S
O539 Zn532 1.965 . S
O539 C547 1.303 . S
O540 Zn533 1.938 . S
O540 C547 1.247 . S
O541 Zn533 1.906 . S
O541 C549 1.304 . S
O542 Zn530 1.924 1_556 S
O542 C550 1.311 . S
O543 Zn534 1.977 . S
O543 C549 1.272 1_556 S
O544 Zn534 1.910 . S
O544 C550 1.231 . S
C545 O529 1.225 . S
C545 O551 1.298 . S
C546 O535 1.226 . S
C546 O536 1.307 . S
C547 O539 1.303 . S
C547 O540 1.247 . S
C548 O537 1.253 . S
C548 O538 1.283 . S
C549 O541 1.304 . S
C549 O543 1.272 1_554 S
C550 O542 1.311 . S
C550 O544 1.231 . S
O551 Zn533 1.953 . S
O551 C545 1.298 . S
O552 Zn553 1.953 . S
O552 C568 1.225 . S
Zn553 O552 1.953 . S
Zn553 O554 1.949 . S
Zn553 O560 1.919 . S
Zn553 O565 1.924 . S
O554 Zn553 1.949 . S
O554 Zn555 1.923 . S
O554 Zn556 1.950 . S
O554 Zn557 1.945 . S
Zn555 O554 1.923 . S
Zn555 O558 1.933 . S
Zn555 O561 1.941 . S
Zn555 O562 1.965 . S
Zn556 O554 1.950 . S
Zn556 O563 1.938 . S
Zn556 O564 1.906 . S
Zn556 O574 1.953 . S
Zn557 O554 1.945 . S
Zn557 O559 1.932 . S
Zn557 O566 1.977 . S
Zn557 O567 1.910 . S
O558 Zn555 1.933 . S
O558 C569 1.226 . S
O559 Zn557 1.932 . S
O559 C569 1.307 . S
O560 Zn553 1.919 . S
O560 C571 1.253 . S
O561 Zn555 1.941 . S
O561 C571 1.283 . S
O562 Zn555 1.965 . S
O562 C570 1.303 . S
O563 Zn556 1.938 . S
O563 C570 1.247 . S
O564 Zn556 1.906 . S
O564 C572 1.304 . S
O565 Zn553 1.924 . S
O565 C573 1.311 . S
O566 Zn557 1.977 . S
O566 C572 1.272 . S
O567 Zn557 1.910 . S
O567 C573 1.231 . S
C568 O552 1.225 . S
C568 O574 1.298 . S
C569 O558 1.226 . S
C569 O559 1.307 . S
C570 O562 1.303 . S
C570 O563 1.247 . S
C571 O560 1.253 . S
C571 O561 1.283 . S
C572 O564 1.304 . S
C572 O566 1.272 . S
C573 O565 1.311 . S
C573 O567 1.231 . S
O574 Zn556 1.953 . S
O574 C568 1.298 . S
O575 Zn576 1.953 . S
O575 C591 1.225 . S
Zn576 O575 1.953 . S
Zn576 O577 1.949 . S
Zn576 O583 1.919 . S
Zn576 O588 1.924 . S
O577 Zn576 1.949 . S
O577 Zn578 1.923 . S
O577 Zn579 1.950 . S
O577 Zn580 1.945 . S
Zn578 O577 1.923 . S
Zn578 O581 1.933 . S
Zn578 O584 1.941 . S
Zn578 O585 1.965 . S
Zn579 O577 1.950 . S
Zn579 O586 1.938 . S
Zn579 O587 1.906 . S
Zn579 O597 1.953 . S
Zn580 O577 1.945 . S
Zn580 O582 1.932 . S
Zn580 O589 1.977 . S
Zn580 O590 1.910 . S
O581 Zn578 1.933 . S
O581 C592 1.226 . S
O582 Zn580 1.932 . S
O582 C592 1.307 . S
O583 Zn576 1.919 . S
O583 C594 1.253 . S
O584 Zn578 1.941 . S
O584 C594 1.283 . S
O585 Zn578 1.965 . S
O585 C593 1.303 . S
O586 Zn579 1.938 . S
O586 C593 1.247 . S
O587 Zn579 1.906 . S
O587 C595 1.304 . S
O588 Zn576 1.924 . S
O588 C596 1.311 . S
O589 Zn580 1.977 . S
O589 C595 1.272 . S
O590 Zn580 1.910 . S
O590 C596 1.231 . S
C591 O575 1.225 . S
C591 O597 1.298 . S
C592 O581 1.226 . S
C592 O582 1.307 . S
C593 O585 1.303 . S
C593 O586 1.247 . S
C594 O583 1.253 . S
C594 O584 1.283 . S
C595 O587 1.304 . S
C595 O589 1.272 . S
C596 O588 1.311 . S
C596 O590 1.231 . S
O597 Zn579 1.953 . S
O597 C591 1.298 . S
O598 Zn599 1.953 . S
O598 C614 1.225 . S
Zn599 O598 1.953 . S
Zn599 O600 1.949 . S
Zn599 O606 1.919 . S
Zn599 O611 1.924 . S
O600 Zn599 1.949 . S
O600 Zn601 1.923 . S
O600 Zn602 1.950 . S
O600 Zn603 1.945 . S
Zn601 O600 1.923 . S
Zn601 O604 1.933 . S
Zn601 O607 1.941 . S
Zn601 O608 1.965 . S
Zn602 O600 1.950 . S
Zn602 O609 1.938 . S
Zn602 O610 1.906 . S
Zn602 O620 1.953 . S
Zn603 O600 1.945 . S
Zn603 O605 1.932 . S
Zn603 O612 1.977 . S
Zn603 O613 1.910 . S
O604 Zn601 1.933 . S
O604 C615 1.226 . S
O605 Zn603 1.932 . S
O605 C615 1.307 . S
O606 Zn599 1.919 . S
O606 C617 1.253 . S
O607 Zn601 1.941 . S
O607 C617 1.283 . S
O608 Zn601 1.965 . S
O608 C616 1.303 . S
O609 Zn602 1.938 . S
O609 C616 1.247 . S
O610 Zn602 1.906 . S
O610 C618 1.304 . S
O611 Zn599 1.924 . S
O611 C619 1.311 . S
O612 Zn603 1.977 . S
O612 C618 1.272 . S
O613 Zn603 1.910 . S
O613 C619 1.231 . S
C614 O598 1.225 . S
C614 O620 1.298 . S
C615 O604 1.226 . S
C615 O605 1.307 . S
C616 O608 1.303 . S
C616 O609 1.247 . S
C617 O606 1.253 . S
C617 O607 1.283 . S
C618 O610 1.304 . S
C618 O612 1.272 . S
C619 O611 1.311 . S
C619 O613 1.231 . S
O620 Zn602 1.953 . S
O620 C614 1.298 . S
O621 Zn622 1.953 . S
O621 C637 1.225 . S
Zn622 O621 1.953 . S
Zn622 O623 1.949 . S
Zn622 O629 1.919 . S
Zn622 O634 1.924 . S
O623 Zn622 1.949 . S
O623 Zn624 1.923 . S
O623 Zn625 1.950 . S
O623 Zn626 1.945 . S
Zn624 O623 1.923 . S
Zn624 O627 1.933 . S
Zn624 O630 1.941 . S
Zn624 O631 1.965 . S
Zn625 O623 1.950 . S
Zn625 O632 1.938 . S
Zn625 O633 1.906 . S
Zn625 O643 1.953 . S
Zn626 O623 1.945 . S
Zn626 O628 1.932 . S
Zn626 O635 1.977 . S
Zn626 O636 1.910 . S
O627 Zn624 1.933 . S
O627 C638 1.226 . S
O628 Zn626 1.932 . S
O628 C638 1.307 . S
O629 Zn622 1.919 . S
O629 C640 1.253 . S
O630 Zn624 1.941 . S
O630 C640 1.283 . S
O631 Zn624 1.965 . S
O631 C639 1.303 . S
O632 Zn625 1.938 . S
O632 C639 1.247 . S
O633 Zn625 1.906 . S
O633 C641 1.304 . S
O634 Zn622 1.924 . S
O634 C642 1.311 . S
O635 Zn626 1.977 . S
O635 C641 1.272 . S
O636 Zn626 1.910 . S
O636 C642 1.231 . S
C637 O621 1.225 . S
C637 O643 1.298 . S
C638 O627 1.226 . S
C638 O628 1.307 . S
C639 O631 1.303 . S
C639 O632 1.247 . S
C640 O629 1.253 . S
C640 O630 1.283 . S
C641 O633 1.304 . S
C641 O635 1.272 . S
C642 O634 1.311 . S
C642 O636 1.231 . S
O643 Zn625 1.953 . S
O643 C637 1.298 . S
O644 Zn645 1.953 . S
O644 C660 1.225 . S
Zn645 O644 1.953 . S
Zn645 O646 1.949 . S
Zn645 O652 1.919 . S
Zn645 O657 1.924 . S
O646 Zn645 1.949 . S
O646 Zn647 1.923 . S
O646 Zn648 1.950 . S
O646 Zn649 1.945 . S
Zn647 O646 1.923 . S
Zn647 O650 1.933 . S
Zn647 O653 1.941 . S
Zn647 O654 1.965 . S
Zn648 O646 1.950 . S
Zn648 O655 1.938 . S
Zn648 O656 1.906 . S
Zn648 O666 1.953 . S
Zn649 O646 1.945 . S
Zn649 O651 1.932 . S
Zn649 O658 1.977 . S
Zn649 O659 1.910 . S
O650 Zn647 1.933 . S
O650 C661 1.226 . S
O651 Zn649 1.932 . S
O651 C661 1.307 . S
O652 Zn645 1.919 . S
O652 C663 1.253 . S
O653 Zn647 1.941 . S
O653 C663 1.283 . S
O654 Zn647 1.965 . S
O654 C662 1.303 . S
O655 Zn648 1.938 . S
O655 C662 1.247 . S
O656 Zn648 1.906 . S
O656 C664 1.304 . S
O657 Zn645 1.924 . S
O657 C665 1.311 . S
O658 Zn649 1.977 . S
O658 C664 1.272 . S
O659 Zn649 1.910 . S
O659 C665 1.231 . S
C660 O644 1.225 . S
C660 O666 1.298 . S
C661 O650 1.226 . S
C661 O651 1.307 . S
C662 O654 1.303 . S
C662 O655 1.247 . S
C663 O652 1.253 . S
C663 O653 1.283 . S
C664 O656 1.304 . S
C664 O658 1.272 . S
C665 O657 1.311 . S
C665 O659 1.231 . S
O666 Zn648 1.953 . S
O666 C660 1.298 . S
O667 Zn668 1.953 . S
O667 C683 1.225 . S
Zn668 O667 1.953 . S
Zn668 O669 1.949 . S
Zn668 O675 1.919 . S
Zn668 O680 1.924 . S
O669 Zn668 1.949 . S
O669 Zn670 1.923 . S
O669 Zn671 1.950 . S
O669 Zn672 1.945 . S
Zn670 O669 1.923 . S
Zn670 O673 1.933 . S
Zn670 O676 1.941 . S
Zn670 O677 1.965 . S
Zn671 O669 1.950 . S
Zn671 O678 1.938 . S
Zn671 O679 1.906 . S
Zn671 O689 1.953 . S
Zn672 O669 1.945 . S
Zn672 O674 1.932 . S
Zn672 O681 1.977 . S
Zn672 O682 1.910 . S
O673 Zn670 1.933 . S
O673 C684 1.226 . S
O674 Zn672 1.932 . S
O674 C684 1.307 . S
O675 Zn668 1.919 . S
O675 C686 1.253 . S
O676 Zn670 1.941 . S
O676 C686 1.283 . S
O677 Zn670 1.965 . S
O677 C685 1.303 . S
O678 Zn671 1.938 . S
O678 C685 1.247 . S
O679 Zn671 1.906 . S
O679 C687 1.304 . S
O680 Zn668 1.924 . S
O680 C688 1.311 . S
O681 Zn672 1.977 . S
O681 C687 1.272 . S
O682 Zn672 1.910 . S
O682 C688 1.231 . S
C683 O667 1.225 . S
C683 O689 1.298 . S
C684 O673 1.226 . S
C684 O674 1.307 . S
C685 O677 1.303 . S
C685 O678 1.247 . S
C686 O675 1.253 . S
C686 O676 1.283 . S
C687 O679 1.304 . S
C687 O681 1.272 . S
C688 O680 1.311 . S
C688 O682 1.231 . S
O689 Zn671 1.953 . S
O689 C683 1.298 . S
O690 Zn691 1.953 . S
O690 C706 1.225 . S
Zn691 O690 1.953 . S
Zn691 O692 1.949 . S
Zn691 O698 1.919 . S
Zn691 O703 1.924 . S
O692 Zn691 1.949 . S
O692 Zn693 1.923 . S
O692 Zn694 1.950 . S
O692 Zn695 1.945 . S
Zn693 O692 1.923 . S
Zn693 O696 1.933 . S
Zn693 O699 1.941 . S
Zn693 O700 1.965 . S
Zn694 O692 1.950 . S
Zn694 O701 1.938 . S
Zn694 O702 1.906 . S
Zn694 O712 1.953 . S
Zn695 O692 1.945 . S
Zn695 O697 1.932 . S
Zn695 O704 1.977 . S
Zn695 O705 1.910 . S
O696 Zn693 1.933 . S
O696 C707 1.226 . S
O697 Zn695 1.932 . S
O697 C707 1.307 . S
O698 Zn691 1.919 . S
O698 C709 1.253 . S
O699 Zn693 1.941 . S
O699 C709 1.283 . S
O700 Zn693 1.965 . S
O700 C708 1.303 . S
O701 Zn694 1.938 . S
O701 C708 1.247 . S
O702 Zn694 1.906 . S
O702 C710 1.304 . S
O703 Zn691 1.924 . S
O703 C711 1.311 . S
O704 Zn695 1.977 . S
O704 C710 1.272 . S
O705 Zn695 1.910 . S
O705 C711 1.231 . S
C706 O690 1.225 . S
C706 O712 1.298 . S
C707 O696 1.226 . S
C707 O697 1.307 . S
C708 O700 1.303 . S
C708 O701 1.247 . S
C709 O698 1.253 . S
C709 O699 1.283 . S
C710 O702 1.304 . S
C710 O704 1.272 . S
C711 O703 1.311 . S
C711 O705 1.231 . S
O712 Zn694 1.953 . S
O712 C706 1.298 . S
O713 Zn714 1.953 . S
O713 C729 1.225 . S
Zn714 O713 1.953 . S
Zn714 O715 1.949 . S
Zn714 O721 1.919 . S
Zn714 O726 1.924 . S
O715 Zn714 1.949 . S
O715 Zn716 1.923 . S
O715 Zn717 1.950 . S
O715 Zn718 1.945 . S
Zn716 O715 1.923 . S
Zn716 O719 1.933 . S
Zn716 O722 1.941 . S
Zn716 O723 1.965 . S
Zn717 O715 1.950 . S
Zn717 O724 1.938 . S
Zn717 O725 1.906 . S
Zn717 O735 1.953 . S
Zn718 O715 1.945 . S
Zn718 O720 1.932 . S
Zn718 O727 1.977 . S
Zn718 O728 1.910 . S
O719 Zn716 1.933 . S
O719 C730 1.226 . S
O720 Zn718 1.932 . S
O720 C730 1.307 . S
O721 Zn714 1.919 . S
O721 C732 1.253 . S
O722 Zn716 1.941 . S
O722 C732 1.283 . S
O723 Zn716 1.965 . S
O723 C731 1.303 . S
O724 Zn717 1.938 . S
O724 C731 1.247 . S
O725 Zn717 1.906 . S
O725 C733 1.304 . S
O726 Zn714 1.924 . S
O726 C734 1.311 . S
O727 Zn718 1.977 . S
O727 C733 1.272 . S
O728 Zn718 1.910 . S
O728 C734 1.231 . S
C729 O713 1.225 . S
C729 O735 1.298 . S
C730 O719 1.226 . S
C730 O720 1.307 . S
C731 O723 1.303 . S
C731 O724 1.247 . S
C732 O721 1.253 . S
C732 O722 1.283 . S
C733 O725 1.304 . S
C733 O727 1.272 . S
C734 O726 1.311 . S
C734 O728 1.231 . S
O735 Zn717 1.953 . S
O735 C729 1.298 . S
O736 Zn737 1.953 . S
O736 C752 1.225 . S
Zn737 O736 1.953 . S
Zn737 O738 1.949 . S
Zn737 O744 1.919 . S
Zn737 O749 1.924 . S
O738 Zn737 1.949 . S
O738 Zn739 1.923 . S
O738 Zn740 1.950 . S
O738 Zn741 1.945 . S
Zn739 O738 1.923 . S
Zn739 O742 1.933 . S
Zn739 O745 1.941 . S
Zn739 O746 1.965 . S
Zn740 O738 1.950 . S
Zn740 O747 1.938 . S
Zn740 O748 1.906 . S
Zn740 O758 1.953 . S
Zn741 O738 1.945 . S
Zn741 O743 1.932 . S
Zn741 O750 1.977 . S
Zn741 O751 1.910 . S
O742 Zn739 1.933 . S
O742 C753 1.226 . S
O743 Zn741 1.932 . S
O743 C753 1.307 . S
O744 Zn737 1.919 . S
O744 C755 1.253 . S
O745 Zn739 1.941 . S
O745 C755 1.283 . S
O746 Zn739 1.965 . S
O746 C754 1.303 . S
O747 Zn740 1.938 . S
O747 C754 1.247 . S
O748 Zn740 1.906 . S
O748 C756 1.304 . S
O749 Zn737 1.924 . S
O749 C757 1.311 . S
O750 Zn741 1.977 . S
O750 C756 1.272 . S
O751 Zn741 1.910 . S
O751 C757 1.231 . S
C752 O736 1.225 . S
C752 O758 1.298 . S
C753 O742 1.226 . S
C753 O743 1.307 . S
C754 O746 1.303 . S
C754 O747 1.247 . S
C755 O744 1.253 . S
C755 O745 1.283 . S
C756 O748 1.304 . S
C756 O750 1.272 . S
C757 O749 1.311 . S
C757 O751 1.231 . S
O758 Zn740 1.953 . S
O758 C752 1.298 . S
O759 Zn760 1.953 . S
O759 C775 1.225 . S
Zn760 O759 1.953 . S
Zn760 O761 1.949 . S
Zn760 O767 1.919 . S
Zn760 O772 1.924 . S
O761 Zn760 1.949 . S
O761 Zn762 1.923 . S
O761 Zn763 1.950 . S
O761 Zn764 1.945 . S
Zn762 O761 1.923 . S
Zn762 O765 1.933 . S
Zn762 O768 1.941 . S
Zn762 O769 1.965 . S
Zn763 O761 1.950 . S
Zn763 O770 1.938 . S
Zn763 O771 1.906 . S
Zn763 O781 1.953 . S
Zn764 O761 1.945 . S
Zn764 O766 1.932 . S
Zn764 O773 1.977 . S
Zn764 O774 1.910 . S
O765 Zn762 1.933 . S
O765 C776 1.226 . S
O766 Zn764 1.932 . S
O766 C776 1.307 . S
O767 Zn760 1.919 . S
O767 C778 1.253 . S
O768 Zn762 1.941 . S
O768 C778 1.283 . S
O769 Zn762 1.965 . S
O769 C777 1.303 . S
O770 Zn763 1.938 . S
O770 C777 1.247 . S
O771 Zn763 1.906 . S
O771 C779 1.304 . S
O772 Zn760 1.924 . S
O772 C780 1.311 . S
O773 Zn764 1.977 . S
O773 C779 1.272 . S
O774 Zn764 1.910 . S
O774 C780 1.231 . S
C775 O759 1.225 . S
C775 O781 1.298 . S
C776 O765 1.226 . S
C776 O766 1.307 . S
C777 O769 1.303 . S
C777 O770 1.247 . S
C778 O767 1.253 . S
C778 O768 1.283 . S
C779 O771 1.304 . S
C779 O773 1.272 . S
C780 O772 1.311 . S
C780 O774 1.231 . S
O781 Zn763 1.953 . S
O781 C775 1.298 . S
O782 Zn783 1.953 . S
O782 C798 1.225 . S
Zn783 O782 1.953 . S
Zn783 O784 1.949 . S
Zn783 O790 1.919 . S
Zn783 O795 1.924 . S
O784 Zn783 1.949 . S
O784 Zn785 1.923 . S
O784 Zn786 1.950 . S
O784 Zn787 1.945 . S
Zn785 O784 1.923 . S
Zn785 O788 1.933 . S
Zn785 O791 1.941 . S
Zn785 O792 1.965 . S
Zn786 O784 1.950 . S
Zn786 O793 1.938 . S
Zn786 O794 1.906 . S
Zn786 O804 1.953 . S
Zn787 O784 1.945 . S
Zn787 O789 1.932 . S
Zn787 O796 1.977 . S
Zn787 O797 1.910 . S
O788 Zn785 1.933 . S
O788 C799 1.226 . S
O789 Zn787 1.932 . S
O789 C799 1.307 . S
O790 Zn783 1.919 . S
O790 C801 1.253 . S
O791 Zn785 1.941 . S
O791 C801 1.283 . S
O792 Zn785 1.965 . S
O792 C800 1.303 . S
O793 Zn786 1.938 . S
O793 C800 1.247 . S
O794 Zn786 1.906 . S
O794 C802 1.304 . S
O795 Zn783 1.924 . S
O795 C803 1.311 . S
O796 Zn787 1.977 . S
O796 C802 1.272 . S
O797 Zn787 1.910 . S
O797 C803 1.231 . S
C798 O782 1.225 . S
C798 O804 1.298 . S
C799 O788 1.226 . S
C799 O789 1.307 . S
C800 O792 1.303 . S
C800 O793 1.247 . S
C801 O790 1.253 . S
C801 O791 1.283 . S
C802 O794 1.304 . S
C802 O796 1.272 . S
C803 O795 1.311 . S
C803 O797 1.231 . S
O804 Zn786 1.953 . S
O804 C798 1.298 . S
O805 Zn806 1.953 . S
O805 C821 1.225 . S
Zn806 O805 1.953 . S
Zn806 O807 1.949 . S
Zn806 O813 1.919 . S
Zn806 O818 1.924 . S
O807 Zn806 1.949 . S
O807 Zn808 1.923 . S
O807 Zn809 1.950 . S
O807 Zn810 1.945 . S
Zn808 O807 1.923 . S
Zn808 O811 1.933 . S
Zn808 O814 1.941 . S
Zn808 O815 1.965 . S
Zn809 O807 1.950 . S
Zn809 O816 1.938 . S
Zn809 O817 1.906 . S
Zn809 O827 1.953 . S
Zn810 O807 1.945 . S
Zn810 O812 1.932 . S
Zn810 O819 1.977 . S
Zn810 O820 1.910 . S
O811 Zn808 1.933 . S
O811 C822 1.226 . S
O812 Zn810 1.932 . S
O812 C822 1.307 . S
O813 Zn806 1.919 . S
O813 C824 1.253 . S
O814 Zn808 1.941 . S
O814 C824 1.283 . S
O815 Zn808 1.965 . S
O815 C823 1.303 . S
O816 Zn809 1.938 . S
O816 C823 1.247 . S
O817 Zn809 1.906 . S
O817 C825 1.304 . S
O818 Zn806 1.924 . S
O818 C826 1.311 . S
O819 Zn810 1.977 . S
O819 C825 1.272 . S
O820 Zn810 1.910 . S
O820 C826 1.231 . S
C821 O805 1.225 . S
C821 O827 1.298 . S
C822 O811 1.226 . S
C822 O812 1.307 . S
C823 O815 1.303 . S
C823 O816 1.247 . S
C824 O813 1.253 . S
C824 O814 1.283 . S
C825 O817 1.304 . S
C825 O819 1.272 . S
C826 O818 1.311 . S
C826 O820 1.231 . S
O827 Zn809 1.953 . S
O827 C821 1.298 . S
O828 Zn829 1.953 . S
O828 C844 1.225 . S
Zn829 O828 1.953 . S
Zn829 O830 1.949 . S
Zn829 O836 1.919 . S
Zn829 O841 1.924 . S
O830 Zn829 1.949 . S
O830 Zn831 1.923 . S
O830 Zn832 1.950 . S
O830 Zn833 1.945 . S
Zn831 O830 1.923 . S
Zn831 O834 1.933 . S
Zn831 O837 1.941 . S
Zn831 O838 1.965 . S
Zn832 O830 1.950 . S
Zn832 O839 1.938 . S
Zn832 O840 1.906 . S
Zn832 O850 1.953 . S
Zn833 O830 1.945 . S
Zn833 O835 1.932 . S
Zn833 O842 1.977 . S
Zn833 O843 1.910 . S
O834 Zn831 1.933 . S
O834 C845 1.226 . S
O835 Zn833 1.932 . S
O835 C845 1.307 . S
O836 Zn829 1.919 . S
O836 C847 1.253 . S
O837 Zn831 1.941 . S
O837 C847 1.283 . S
O838 Zn831 1.965 . S
O838 C846 1.303 . S
O839 Zn832 1.938 . S
O839 C846 1.247 . S
O840 Zn832 1.906 . S
O840 C848 1.304 . S
O841 Zn829 1.924 . S
O841 C849 1.311 . S
O842 Zn833 1.977 . S
O842 C848 1.272 . S
O843 Zn833 1.910 . S
O843 C849 1.231 . S
C844 O828 1.225 . S
C844 O850 1.298 . S
C845 O834 1.226 . S
C845 O835 1.307 . S
C846 O838 1.303 . S
C846 O839 1.247 . S
C847 O836 1.253 . S
C847 O837 1.283 . S
C848 O840 1.304 . S
C848 O842 1.272 . S
C849 O841 1.311 . S
C849 O843 1.231 . S
O850 Zn832 1.953 . S
O850 C844 1.298 . S
O851 Zn852 1.953 . S
O851 C867 1.225 . S
Zn852 O851 1.953 . S
Zn852 O853 1.949 . S
Zn852 O859 1.919 . S
Zn852 O864 1.924 . S
O853 Zn852 1.949 . S
O853 Zn854 1.923 . S
O853 Zn855 1.950 . S
O853 Zn856 1.945 . S
Zn854 O853 1.923 . S
Zn854 O857 1.933 . S
Zn854 O860 1.941 . S
Zn854 O861 1.965 . S
Zn855 O853 1.950 . S
Zn855 O862 1.938 . S
Zn855 O863 1.906 . S
Zn855 O873 1.953 . S
Zn856 O853 1.945 . S
Zn856 O858 1.932 . S
Zn856 O865 1.977 . S
Zn856 O866 1.910 . S
O857 Zn854 1.933 . S
O857 C868 1.226 . S
O858 Zn856 1.932 . S
O858 C868 1.307 . S
O859 Zn852 1.919 . S
O859 C870 1.253 . S
O860 Zn854 1.941 . S
O860 C870 1.283 . S
O861 Zn854 1.965 . S
O861 C869 1.303 . S
O862 Zn855 1.938 . S
O862 C869 1.247 . S
O863 Zn855 1.906 . S
O863 C871 1.304 . S
O864 Zn852 1.924 . S
O864 C872 1.311 . S
O865 Zn856 1.977 . S
O865 C871 1.272 . S
O866 Zn856 1.910 . S
O866 C872 1.231 . S
C867 O851 1.225 . S
C867 O873 1.298 . S
C868 O857 1.226 . S
C868 O858 1.307 . S
C869 O861 1.303 . S
C869 O862 1.247 . S
C870 O859 1.253 . S
C870 O860 1.283 . S
C871 O863 1.304 . S
C871 O865 1.272 . S
C872 O864 1.311 . S
C872 O866 1.231 . S
O873 Zn855 1.953 . S
O873 C867 1.298 . S
O874 Zn875 1.953 . S
O874 C890 1.225 . S
Zn875 O874 1.953 . S
Zn875 O876 1.949 . S
Zn875 O882 1.919 . S
Zn875 O887 1.924 . S
O876 Zn875 1.949 . S
O876 Zn877 1.923 . S
O876 Zn878 1.950 . S
O876 Zn879 1.945 . S
Zn877 O876 1.923 . S
Zn877 O880 1.933 . S
Zn877 O883 1.941 . S
Zn877 O884 1.965 . S
Zn878 O876 1.950 . S
Zn878 O885 1.938 . S
Zn878 O886 1.906 . S
Zn878 O896 1.953 . S
Zn879 O876 1.945 . S
Zn879 O881 1.932 . S
Zn879 O888 1.977 . S
Zn879 O889 1.910 . S
O880 Zn877 1.933 . S
O880 C891 1.226 . S
O881 Zn879 1.932 . S
O881 C891 1.307 . S
O882 Zn875 1.919 . S
O882 C893 1.253 . S
O883 Zn877 1.941 . S
O883 C893 1.283 . S
O884 Zn877 1.965 . S
O884 C892 1.303 . S
O885 Zn878 1.938 . S
O885 C892 1.247 . S
O886 Zn878 1.906 . S
O886 C894 1.304 . S
O887 Zn875 1.924 . S
O887 C895 1.311 . S
O888 Zn879 1.977 . S
O888 C894 1.272 . S
O889 Zn879 1.910 . S
O889 C895 1.231 . S
C890 O874 1.225 . S
C890 O896 1.298 . S
C891 O880 1.226 . S
C891 O881 1.307 . S
C892 O884 1.303 . S
C892 O885 1.247 . S
C893 O882 1.253 . S
C893 O883 1.283 . S
C894 O886 1.304 . S
C894 O888 1.272 . S
C895 O887 1.311 . S
C895 O889 1.231 . S
O896 Zn878 1.953 . S
O896 C890 1.298 . S
O897 Zn898 1.953 . S
O897 C913 1.225 . S
Zn898 O897 1.953 . S
Zn898 O899 1.949 . S
Zn898 O905 1.919 . S
Zn898 O910 1.924 . S
O899 Zn898 1.949 . S
O899 Zn900 1.923 . S
O899 Zn901 1.950 . S
O899 Zn902 1.945 . S
Zn900 O899 1.923 . S
Zn900 O903 1.933 . S
Zn900 O906 1.941 . S
Zn900 O907 1.965 . S
Zn901 O899 1.950 . S
Zn901 O908 1.938 . S
Zn901 O909 1.906 . S
Zn901 O919 1.953 . S
Zn902 O899 1.945 . S
Zn902 O904 1.932 . S
Zn902 O911 1.977 . S
Zn902 O912 1.910 . S
O903 Zn900 1.933 . S
O903 C914 1.226 . S
O904 Zn902 1.932 . S
O904 C914 1.307 . S
O905 Zn898 1.919 . S
O905 C916 1.253 . S
O906 Zn900 1.941 . S
O906 C916 1.283 . S
O907 Zn900 1.965 . S
O907 C915 1.303 . S
O908 Zn901 1.938 . S
O908 C915 1.247 . S
O909 Zn901 1.906 . S
O909 C917 1.304 . S
O910 Zn898 1.924 . S
O910 C918 1.311 . S
O911 Zn902 1.977 . S
O911 C917 1.272 . S
O912 Zn902 1.910 . S
O912 C918 1.231 . S
C913 O897 1.225 . S
C913 O919 1.298 . S
C914 O903 1.226 . S
C914 O904 1.307 . S
C915 O907 1.303 . S
C915 O908 1.247 . S
C916 O905 1.253 . S
C916 O906 1.283 . S
C917 O909 1.304 . S
C917 O911 1.272 . S
C918 O910 1.311 . S
C918 O912 1.231 . S
O919 Zn901 1.953 . S
O919 C913 1.298 . S
O920 Zn921 1.953 . S
O920 C936 1.225 . S
Zn921 O920 1.953 . S
Zn921 O922 1.949 . S
Zn921 O928 1.919 . S
Zn921 O933 1.924 . S
O922 Zn921 1.949 . S
O922 Zn923 1.923 . S
O922 Zn924 1.950 . S
O922 Zn925 1.945 . S
Zn923 O922 1.923 . S
Zn923 O926 1.933 . S
Zn923 O929 1.941 . S
Zn923 O930 1.965 . S
Zn924 O922 1.950 . S
Zn924 O931 1.938 . S
Zn924 O932 1.906 . S
Zn924 O942 1.953 . S
Zn925 O922 1.945 . S
Zn925 O927 1.932 . S
Zn925 O934 1.977 . S
Zn925 O935 1.910 . S
O926 Zn923 1.933 . S
O926 C937 1.226 . S
O927 Zn925 1.932 . S
O927 C937 1.307 . S
O928 Zn921 1.919 . S
O928 C939 1.253 . S
O929 Zn923 1.941 . S
O929 C939 1.283 . S
O930 Zn923 1.965 . S
O930 C938 1.303 . S
O931 Zn924 1.938 . S
O931 C938 1.247 . S
O932 Zn924 1.906 . S
O932 C940 1.304 . S
O933 Zn921 1.924 . S
O933 C941 1.311 . S
O934 Zn925 1.977 . S
O934 C940 1.272 . S
O935 Zn925 1.910 . S
O935 C941 1.231 . S
C936 O920 1.225 . S
C936 O942 1.298 . S
C937 O926 1.226 . S
C937 O927 1.307 . S
C938 O930 1.303 . S
C938 O931 1.247 . S
C939 O928 1.253 . S
C939 O929 1.283 . S
C940 O932 1.304 . S
C940 O934 1.272 . S
C941 O933 1.311 . S
C941 O935 1.231 . S
O942 Zn924 1.953 . S
O942 C936 1.298 . S
O943 Zn944 1.953 . S
O943 C959 1.225 . S
Zn944 O943 1.953 . S
Zn944 O945 1.949 . S
Zn944 O951 1.919 . S
Zn944 O956 1.924 . S
O945 Zn944 1.949 . S
O945 Zn946 1.923 . S
O945 Zn947 1.950 . S
O945 Zn948 1.945 . S
Zn946 O945 1.923 . S
Zn946 O949 1.933 . S
Zn946 O952 1.941 . S
Zn946 O953 1.965 . S
Zn947 O945 1.950 . S
Zn947 O954 1.938 . S
Zn947 O955 1.906 . S
Zn947 O965 1.953 . S
Zn948 O945 1.945 . S
Zn948 O950 1.932 . S
Zn948 O957 1.977 . S
Zn948 O958 1.910 . S
O949 Zn946 1.933 . S
O949 C960 1.226 . S
O950 Zn948 1.932 . S
O950 C960 1.307 . S
O951 Zn944 1.919 . S
O951 C962 1.253 . S
O952 Zn946 1.941 . S
O952 C962 1.283 . S
O953 Zn946 1.965 . S
O953 C961 1.303 . S
O954 Zn947 1.938 . S
O954 C961 1.247 . S
O955 Zn947 1.906 . S
O955 C963 1.304 . S
O956 Zn944 1.924 . S
O956 C964 1.311 . S
O957 Zn948 1.977 . S
O957 C963 1.272 . S
O958 Zn948 1.910 . S
O958 C964 1.231 . S
C959 O943 1.225 . S
C959 O965 1.298 . S
C960 O949 1.226 . S
C960 O950 1.307 . S
C961 O953 1.303 . S
C961 O954 1.247 . S
C962 O951 1.253 . S
C962 O952 1.283 . S
C963 O955 1.304 . S
C963 O957 1.272 . S
C964 O956 1.311 . S
C964 O958 1.231 . S
O965 Zn947 1.953 . S
O965 C959 1.298 . S
O966 Zn967 1.953 . S
O966 C982 1.225 . S
Zn967 O966 1.953 . S
Zn967 O968 1.949 . S
Zn967 O974 1.919 . S
Zn967 O979 1.924 . S
O968 Zn967 1.949 . S
O968 Zn969 1.923 . S
O968 Zn970 1.950 . S
O968 Zn971 1.945 . S
Zn969 O968 1.923 . S
Zn969 O972 1.933 . S
Zn969 O975 1.941 . S
Zn969 O976 1.965 . S
Zn970 O968 1.950 . S
Zn970 O977 1.938 . S
Zn970 O978 1.906 . S
Zn970 O988 1.953 . S
Zn971 O968 1.945 . S
Zn971 O973 1.932 . S
Zn971 O980 1.977 . S
Zn971 O981 1.910 . S
O972 Zn969 1.933 . S
O972 C983 1.226 . S
O973 Zn971 1.932 . S
O973 C983 1.307 . S
O974 Zn967 1.919 . S
O974 C985 1.253 . S
O975 Zn969 1.941 . S
O975 C985 1.283 . S
O976 Zn969 1.965 . S
O976 C984 1.303 . S
O977 Zn970 1.938 . S
O977 C984 1.247 . S
O978 Zn970 1.906 . S
O978 C986 1.304 . S
O979 Zn967 1.924 . S
O979 C987 1.311 . S
O980 Zn971 1.977 . S
O980 C986 1.272 . S
O981 Zn971 1.910 . S
O981 C987 1.231 . S
C982 O966 1.225 . S
C982 O988 1.298 . S
C983 O972 1.226 . S
C983 O973 1.307 . S
C984 O976 1.303 . S
C984 O977 1.247 . S
C985 O974 1.253 . S
C985 O975 1.283 . S
C986 O978 1.304 . S
C986 O980 1.272 . S
C987 O979 1.311 . S
C987 O981 1.231 . S
O988 Zn970 1.953 . S
O988 C982 1.298 . S
O989 Zn990 1.953 . S
O989 C1005 1.225 . S
Zn990 O989 1.953 . S
Zn990 O991 1.949 . S
Zn990 O997 1.919 . S
Zn990 O1002 1.924 . S
O991 Zn990 1.949 . S
O991 Zn992 1.923 . S
O991 Zn993 1.950 . S
O991 Zn994 1.945 . S
Zn992 O991 1.923 . S
Zn992 O995 1.933 . S
Zn992 O998 1.941 . S
Zn992 O999 1.965 . S
Zn993 O991 1.950 . S
Zn993 O1000 1.938 . S
Zn993 O1001 1.906 . S
Zn993 O1011 1.953 . S
Zn994 O991 1.945 . S
Zn994 O996 1.932 . S
Zn994 O1003 1.977 . S
Zn994 O1004 1.910 . S
O995 Zn992 1.933 . S
O995 C1006 1.226 . S
O996 Zn994 1.932 . S
O996 C1006 1.307 . S
O997 Zn990 1.919 . S
O997 C1008 1.253 . S
O998 Zn992 1.941 . S
O998 C1008 1.283 . S
O999 Zn992 1.965 . S
O999 C1007 1.303 . S
O1000 Zn993 1.938 . S
O1000 C1007 1.247 . S
O1001 Zn993 1.906 . S
O1001 C1009 1.304 . S
O1002 Zn990 1.924 . S
O1002 C1010 1.311 . S
O1003 Zn994 1.977 . S
O1003 C1009 1.272 . S
O1004 Zn994 1.910 . S
O1004 C1010 1.231 . S
C1005 O989 1.225 . S
C1005 O1011 1.298 . S
C1006 O995 1.226 . S
C1006 O996 1.307 . S
C1007 O999 1.303 . S
C1007 O1000 1.247 . S
C1008 O997 1.253 . S
C1008 O998 1.283 . S
C1009 O1001 1.304 . S
C1009 O1003 1.272 . S
C1010 O1002 1.311 . S
C1010 O1004 1.231 . S
O1011 Zn993 1.953 . S
O1011 C1005 1.298 . S
O1012 Zn1013 1.953 . S
O1012 C1028 1.225 . S
Zn1013 O1012 1.953 . S
Zn1013 O1014 1.949 . S
Zn1013 O1020 1.919 . S
Zn1013 O1025 1.924 . S
O1014 Zn1013 1.949 . S
O1014 Zn1015 1.923 . S
O1014 Zn1016 1.950 . S
O1014 Zn1017 1.945 . S
Zn1015 O1014 1.923 . S
Zn1015 O1018 1.933 . S
Zn1015 O1021 1.941 . S
Zn1015 O1022 1.965 . S
Zn1016 O1014 1.950 . S
Zn1016 O1023 1.938 . S
Zn1016 O1024 1.906 . S
Zn1016 O1034 1.953 . S
Zn1017 O1014 1.945 . S
Zn1017 O1019 1.932 . S
Zn1017 O1026 1.977 . S
Zn1017 O1027 1.910 . S
O1018 Zn1015 1.933 . S
O1018 C1029 1.226 . S
O1019 Zn1017 1.932 . S
O1019 C1029 1.307 . S
O1020 Zn1013 1.919 . S
O1020 C1031 1.253 . S
O1021 Zn1015 1.941 . S
O1021 C1031 1.283 . S
O1022 Zn1015 1.965 . S
O1022 C1030 1.303 . S
O1023 Zn1016 1.938 . S
O1023 C1030 1.247 . S
O1024 Zn1016 1.906 . S
O1024 C1032 1.304 . S
O1025 Zn1013 1.924 . S
O1025 C1033 1.311 . S
O1026 Zn1017 1.977 . S
O1026 C1032 1.272 . S
O1027 Zn1017 1.910 . S
O1027 C1033 1.231 . S
C1028 O1012 1.225 . S
C1028 O1034 1.298 . S
C1029 O1018 1.226 . S
C1029 O1019 1.307 . S
C1030 O1022 1.303 . S
C1030 O1023 1.247 . S
C1031 O1020 1.253 . S
C1031 O1021 1.283 . S
C1032 O1024 1.304 . S
C1032 O1026 1.272 . S
C1033 O1025 1.311 . S
C1033 O1027 1.231 . S
O1034 Zn1016 1.953 . S
O1034 C1028 1.298 . S
O1035 Zn1036 1.953 . S
O1035 C1051 1.225 . S
Zn1036 O1035 1.953 . S
Zn1036 O1037 1.949 . S
Zn1036 O1043 1.919 . S
Zn1036 O1048 1.924 . S
O1037 Zn1036 1.949 . S
O1037 Zn1038 1.923 . S
O1037 Zn1039 1.950 . S
O1037 Zn1040 1.945 . S
Zn1038 O1037 1.923 . S
Zn1038 O1041 1.933 . S
Zn1038 O1044 1.941 . S
Zn1038 O1045 1.965 . S
Zn1039 O1037 1.950 . S
Zn1039 O1046 1.938 . S
Zn1039 O1047 1.906 . S
Zn1039 O1057 1.953 . S
Zn1040 O1037 1.945 . S
Zn1040 O1042 1.932 . S
Zn1040 O1049 1.977 . S
Zn1040 O1050 1.910 . S
O1041 Zn1038 1.933 . S
O1041 C1052 1.226 . S
O1042 Zn1040 1.932 . S
O1042 C1052 1.307 . S
O1043 Zn1036 1.919 . S
O1043 C1054 1.253 . S
O1044 Zn1038 1.941 . S
O1044 C1054 1.283 . S
O1045 Zn1038 1.965 . S
O1045 C1053 1.303 . S
O1046 Zn1039 1.938 . S
O1046 C1053 1.247 . S
O1047 Zn1039 1.906 . S
O1047 C1055 1.304 . S
O1048 Zn1036 1.924 . S
O1048 C1056 1.311 . S
O1049 Zn1040 1.977 . S
O1049 C1055 1.272 . S
O1050 Zn1040 1.910 . S
O1050 C1056 1.231 . S
C1051 O1035 1.225 . S
C1051 O1057 1.298 . S
C1052 O1041 1.226 . S
C1052 O1042 1.307 . S
C1053 O1045 1.303 . S
C1053 O1046 1.247 . S
C1054 O1043 1.253 . S
C1054 O1044 1.283 . S
C1055 O1047 1.304 . S
C1055 O1049 1.272 . S
C1056 O1048 1.311 . S
C1056 O1050 1.231 . S
O1057 Zn1039 1.953 . S
O1057 C1051 1.298 . S
O1058 Zn1059 1.953 . S
O1058 C1074 1.225 . S
Zn1059 O1058 1.953 . S
Zn1059 O1060 1.949 . S
Zn1059 O1066 1.919 . S
Zn1059 O1071 1.924 . S
O1060 Zn1059 1.949 . S
O1060 Zn1061 1.923 . S
O1060 Zn1062 1.950 . S
O1060 Zn1063 1.945 . S
Zn1061 O1060 1.923 . S
Zn1061 O1064 1.933 . S
Zn1061 O1067 1.941 . S
Zn1061 O1068 1.965 . S
Zn1062 O1060 1.950 . S
Zn1062 O1069 1.938 . S
Zn1062 O1070 1.906 . S
Zn1062 O1080 1.953 . S
Zn1063 O1060 1.945 . S
Zn1063 O1065 1.932 . S
Zn1063 O1072 1.977 . S
Zn1063 O1073 1.910 . S
O1064 Zn1061 1.933 . S
O1064 C1075 1.226 . S
O1065 Zn1063 1.932 . S
O1065 C1075 1.307 . S
O1066 Zn1059 1.919 . S
O1066 C1077 1.253 . S
O1067 Zn1061 1.941 . S
O1067 C1077 1.283 . S
O1068 Zn1061 1.965 . S
O1068 C1076 1.303 . S
O1069 Zn1062 1.938 . S
O1069 C1076 1.247 . S
O1070 Zn1062 1.906 . S
O1070 C1078 1.304 . S
O1071 Zn1059 1.924 . S
O1071 C1079 1.311 . S
O1072 Zn1063 1.977 . S
O1072 C1078 1.272 . S
O1073 Zn1063 1.910 . S
O1073 C1079 1.231 . S
C1074 O1058 1.225 . S
C1074 O1080 1.298 . S
C1075 O1064 1.226 . S
C1075 O1065 1.307 . S
C1076 O1068 1.303 . S
C1076 O1069 1.247 . S
C1077 O1066 1.253 . S
C1077 O1067 1.283 . S
C1078 O1070 1.304 . S
C1078 O1072 1.272 . S
C1079 O1071 1.311 . S
C1079 O1073 1.231 . S
O1080 Zn1062 1.953 . S
O1080 C1074 1.298 . S
O1081 Zn1082 1.953 . S
O1081 C1097 1.225 . S
Zn1082 O1081 1.953 . S
Zn1082 O1083 1.949 . S
Zn1082 O1089 1.919 . S
Zn1082 O1094 1.924 . S
O1083 Zn1082 1.949 . S
O1083 Zn1084 1.923 . S
O1083 Zn1085 1.950 . S
O1083 Zn1086 1.945 . S
Zn1084 O1083 1.923 . S
Zn1084 O1087 1.933 . S
Zn1084 O1090 1.941 . S
Zn1084 O1091 1.965 . S
Zn1085 O1083 1.950 . S
Zn1085 O1092 1.938 . S
Zn1085 O1093 1.906 . S
Zn1085 O1103 1.953 . S
Zn1086 O1083 1.945 . S
Zn1086 O1088 1.932 . S
Zn1086 O1095 1.977 . S
Zn1086 O1096 1.910 . S
O1087 Zn1084 1.933 . S
O1087 C1098 1.226 . S
O1088 Zn1086 1.932 . S
O1088 C1098 1.307 . S
O1089 Zn1082 1.919 . S
O1089 C1100 1.253 . S
O1090 Zn1084 1.941 . S
O1090 C1100 1.283 . S
O1091 Zn1084 1.965 . S
O1091 C1099 1.303 . S
O1092 Zn1085 1.938 . S
O1092 C1099 1.247 . S
O1093 Zn1085 1.906 . S
O1093 C1101 1.304 . S
O1094 Zn1082 1.924 . S
O1094 C1102 1.311 . S
O1095 Zn1086 1.977 . S
O1095 C1101 1.272 . S
O1096 Zn1086 1.910 . S
O1096 C1102 1.231 . S
C1097 O1081 1.225 . S
C1097 O1103 1.298 . S
C1098 O1087 1.226 . S
C1098 O1088 1.307 . S
C1099 O1091 1.303 . S
C1099 O1092 1.247 . S
C1100 O1089 1.253 . S
C1100 O1090 1.283 . S
C1101 O1093 1.304 . S
C1101 O1095 1.272 . S
C1102 O1094 1.311 . S
C1102 O1096 1.231 . S
O1103 Zn1085 1.953 . S
O1103 C1097 1.298 . S
C1104 C1105 1.387 . S
C1104 H1108 0.950 . S
C1104 C1113 1.390 . S
C1105 C1104 1.387 . S
C1105 C1107 1.387 . S
H1106 C1113 0.950 . S
C1107 C1105 1.387 . S
C1107 C1109 1.390 . S
C1107 H1111 0.950 . S
H1108 C1104 0.950 . S
C1109 C1107 1.390 . S
C1109 C1110 1.387 . S
C1109 H1112 0.950 . S
C1110 C1109 1.387 . S
C1110 C1113 1.387 . S
H1111 C1107 0.950 . S
H1112 C1109 0.950 . S
C1113 C1104 1.390 . S
C1113 H1106 0.950 . S
C1113 C1110 1.387 . S
C1114 C1115 1.387 1_565 S
C1114 H1118 0.950 . S
C1114 C1123 1.390 . S
C1115 C1114 1.387 1_545 S
C1115 C1117 1.387 . S
H1116 C1123 0.950 . S
C1117 C1115 1.387 . S
C1117 C1119 1.390 . S
C1117 H1121 0.950 . S
H1118 C1114 0.950 . S
C1119 C1117 1.390 . S
C1119 C1120 1.387 . S
C1119 H1122 0.950 . S
C1120 C1119 1.387 . S
C1120 C1123 1.387 1_545 S
H1121 C1117 0.950 . S
H1122 C1119 0.950 . S
C1123 C1114 1.390 . S
C1123 H1116 0.950 . S
C1123 C1120 1.387 1_565 S
C1124 C1125 1.387 . S
C1124 H1128 0.950 . S
C1124 C1133 1.390 . S
C1125 C1124 1.387 . S
C1125 C1127 1.387 . S
H1126 C1133 0.950 . S
C1127 C1125 1.387 . S
C1127 C1129 1.390 . S
C1127 H1131 0.950 . S
H1128 C1124 0.950 . S
C1129 C1127 1.390 . S
C1129 C1130 1.387 . S
C1129 H1132 0.950 . S
C1130 C1129 1.387 . S
C1130 C1133 1.387 . S
H1131 C1127 0.950 . S
H1132 C1129 0.950 . S
C1133 C1124 1.390 . S
C1133 H1126 0.950 . S
C1133 C1130 1.387 . S
C1134 C1135 1.387 1_565 S
C1134 H1138 0.950 . S
C1134 C1143 1.390 . S
C1135 C1134 1.387 1_545 S
C1135 C1137 1.387 . S
H1136 C1143 0.950 . S
C1137 C1135 1.387 . S
C1137 C1139 1.390 . S
C1137 H1141 0.950 . S
H1138 C1134 0.950 . S
C1139 C1137 1.390 . S
C1139 C1140 1.387 . S
C1139 H1142 0.950 . S
C1140 C1139 1.387 . S
C1140 C1143 1.387 1_545 S
H1141 C1137 0.950 . S
H1142 C1139 0.950 . S
C1143 C1134 1.390 . S
C1143 H1136 0.950 . S
C1143 C1140 1.387 1_565 S
C1144 C1145 1.387 . S
C1144 H1148 0.950 . S
C1144 C1153 1.390 . S
C1145 C1144 1.387 . S
C1145 C1147 1.387 . S
H1146 C1153 0.950 . S
C1147 C1145 1.387 . S
C1147 C1149 1.390 . S
C1147 H1151 0.950 . S
H1148 C1144 0.950 . S
C1149 C1147 1.390 . S
C1149 C1150 1.387 . S
C1149 H1152 0.950 . S
C1150 C1149 1.387 . S
C1150 C1153 1.387 . S
H1151 C1147 0.950 . S
H1152 C1149 0.950 . S
C1153 C1144 1.390 . S
C1153 H1146 0.950 . S
C1153 C1150 1.387 . S
C1154 C1155 1.387 . S
C1154 H1158 0.950 . S
C1154 C1163 1.390 . S
C1155 C1154 1.387 . S
C1155 C1157 1.387 . S
H1156 C1163 0.950 . S
C1157 C1155 1.387 . S
C1157 C1159 1.390 . S
C1157 H1161 0.950 . S
H1158 C1154 0.950 . S
C1159 C1157 1.390 . S
C1159 C1160 1.387 . S
C1159 H1162 0.950 . S
C1160 C1159 1.387 . S
C1160 C1163 1.387 . S
H1161 C1157 0.950 . S
H1162 C1159 0.950 . S
C1163 C1154 1.390 . S
C1163 H1156 0.950 . S
C1163 C1160 1.387 . S
C1164 C1165 1.387 . S
C1164 H1168 0.950 . S
C1164 C1173 1.390 . S
C1165 C1164 1.387 . S
C1165 C1167 1.387 . S
H1166 C1173 0.950 . S
C1167 C1165 1.387 . S
C1167 C1169 1.390 . S
C1167 H1171 0.950 . S
H1168 C1164 0.950 . S
C1169 C1167 1.390 . S
C1169 C1170 1.387 . S
C1169 H1172 0.950 . S
C1170 C1169 1.387 . S
C1170 C1173 1.387 . S
H1171 C1167 0.950 . S
H1172 C1169 0.950 . S
C1173 C1164 1.390 . S
C1173 H1166 0.950 . S
C1173 C1170 1.387 . S
C1174 C1175 1.387 . S
C1174 H1178 0.950 . S
C1174 C1183 1.390 . S
C1175 C1174 1.387 . S
C1175 C1177 1.387 . S
H1176 C1183 0.950 . S
C1177 C1175 1.387 . S
C1177 C1179 1.390 . S
C1177 H1181 0.950 . S
H1178 C1174 0.950 . S
C1179 C1177 1.390 . S
C1179 C1180 1.387 . S
C1179 H1182 0.950 . S
C1180 C1179 1.387 . S
C1180 C1183 1.387 . S
H1181 C1177 0.950 . S
H1182 C1179 0.950 . S
C1183 C1174 1.390 . S
C1183 H1176 0.950 . S
C1183 C1180 1.387 . S
C1184 C1185 1.387 . S
C1184 H1188 0.950 . S
C1184 C1193 1.390 . S
C1185 C1184 1.387 . S
C1185 C1187 1.387 . S
H1186 C1193 0.950 . S
C1187 C1185 1.387 . S
C1187 C1189 1.390 . S
C1187 H1191 0.950 . S
H1188 C1184 0.950 . S
C1189 C1187 1.390 . S
C1189 C1190 1.387 . S
C1189 H1192 0.950 . S
C1190 C1189 1.387 . S
C1190 C1193 1.387 . S
H1191 C1187 0.950 . S
H1192 C1189 0.950 . S
C1193 C1184 1.390 . S
C1193 H1186 0.950 . S
C1193 C1190 1.387 . S
C1194 C1195 1.387 . S
C1194 H1198 0.950 . S
C1194 C1203 1.390 . S
C1195 C1194 1.387 . S
C1195 C1197 1.387 . S
H1196 C1203 0.950 . S
C1197 C1195 1.387 . S
C1197 C1199 1.390 . S
C1197 H1201 0.950 . S
H1198 C1194 0.950 . S
C1199 C1197 1.390 . S
C1199 C1200 1.387 . S
C1199 H1202 0.950 . S
C1200 C1199 1.387 . S
C1200 C1203 1.387 . S
H1201 C1197 0.950 . S
H1202 C1199 0.950 . S
C1203 C1194 1.390 . S
C1203 H1196 0.950 . S
C1203 C1200 1.387 . S
C1204 C1205 1.387 . S
C1204 H1208 0.950 . S
C1204 C1213 1.390 . S
C1205 C1204 1.387 . S
C1205 C1207 1.387 . S
H1206 C1213 0.950 . S
C1207 C1205 1.387 . S
C1207 C1209 1.390 . S
C1207 H1211 0.950 . S
H1208 C1204 0.950 . S
C1209 C1207 1.390 . S
C1209 C1210 1.387 . S
C1209 H1212 0.950 . S
C1210 C1209 1.387 . S
C1210 C1213 1.387 . S
H1211 C1207 0.950 . S
H1212 C1209 0.950 . S
C1213 C1204 1.390 . S
C1213 H1206 0.950 . S
C1213 C1210 1.387 . S
C1214 C1215 1.387 . S
C1214 H1218 0.950 . S
C1214 C1223 1.390 . S
C1215 C1214 1.387 . S
C1215 C1217 1.387 . S
H1216 C1223 0.950 . S
C1217 C1215 1.387 . S
C1217 C1219 1.390 . S
C1217 H1221 0.950 . S
H1218 C1214 0.950 . S
C1219 C1217 1.390 . S
C1219 C1220 1.387 . S
C1219 H1222 0.950 . S
C1220 C1219 1.387 . S
C1220 C1223 1.387 . S
H1221 C1217 0.950 . S
H1222 C1219 0.950 . S
C1223 C1214 1.390 . S
C1223 H1216 0.950 . S
C1223 C1220 1.387 . S
C1224 C1225 1.387 . S
C1224 H1228 0.950 . S
C1224 C1233 1.390 1_556 S
C1225 C1224 1.387 . S
C1225 C1227 1.387 . S
H1226 C1233 0.950 . S
C1227 C1225 1.387 . S
C1227 C1229 1.390 1_556 S
C1227 H1231 0.950 . S
H1228 C1224 0.950 . S
C1229 C1227 1.390 1_554 S
C1229 C1230 1.387 . S
C1229 H1232 0.950 . S
C1230 C1229 1.387 . S
C1230 C1233 1.387 . S
H1231 C1227 0.950 . S
H1232 C1229 0.950 . S
C1233 C1224 1.390 1_554 S
C1233 H1226 0.950 . S
C1233 C1230 1.387 . S
C1234 C1235 1.387 . S
C1234 H1238 0.950 . S
C1234 C1243 1.390 1_556 S
C1235 C1234 1.387 . S
C1235 C1237 1.387 . S
H1236 C1243 0.950 . S
C1237 C1235 1.387 . S
C1237 C1239 1.390 1_556 S
C1237 H1241 0.950 . S
H1238 C1234 0.950 . S
C1239 C1237 1.390 1_554 S
C1239 C1240 1.387 . S
C1239 H1242 0.950 . S
C1240 C1239 1.387 . S
C1240 C1243 1.387 . S
H1241 C1237 0.950 . S
H1242 C1239 0.950 . S
C1243 C1234 1.390 1_554 S
C1243 H1236 0.950 . S
C1243 C1240 1.387 . S
C1244 C1245 1.387 . S
C1244 H1248 0.950 . S
C1244 C1253 1.390 1_556 S
C1245 C1244 1.387 . S
C1245 C1247 1.387 . S
H1246 C1253 0.950 . S
C1247 C1245 1.387 . S
C1247 C1249 1.390 1_556 S
C1247 H1251 0.950 . S
H1248 C1244 0.950 . S
C1249 C1247 1.390 1_554 S
C1249 C1250 1.387 . S
C1249 H1252 0.950 . S
C1250 C1249 1.387 . S
C1250 C1253 1.387 . S
H1251 C1247 0.950 . S
H1252 C1249 0.950 . S
C1253 C1244 1.390 1_554 S
C1253 H1246 0.950 . S
C1253 C1250 1.387 . S
C1254 C1255 1.387 . S
C1254 H1258 0.950 . S
C1254 C1263 1.390 1_556 S
C1255 C1254 1.387 . S
C1255 C1257 1.387 . S
H1256 C1263 0.950 . S
C1257 C1255 1.387 . S
C1257 C1259 1.390 1_556 S
C1257 H1261 0.950 . S
H1258 C1254 0.950 . S
C1259 C1257 1.390 1_554 S
C1259 C1260 1.387 . S
C1259 H1262 0.950 . S
C1260 C1259 1.387 . S
C1260 C1263 1.387 . S
H1261 C1257 0.950 . S
H1262 C1259 0.950 . S
C1263 C1254 1.390 1_554 S
C1263 H1256 0.950 . S
C1263 C1260 1.387 . S
C1264 C1265 1.387 . S
C1264 H1268 0.950 . S
C1264 C1273 1.390 1_655 S
C1265 C1264 1.387 . S
C1265 C1267 1.387 . S
H1266 C1273 0.950 . S
C1267 C1265 1.387 . S
C1267 C1269 1.390 1_655 S
C1267 H1271 0.950 . S
H1268 C1264 0.950 . S
C1269 C1267 1.390 1_455 S
C1269 C1270 1.387 . S
C1269 H1272 0.950 . S
C1270 C1269 1.387 . S
C1270 C1273 1.387 . S
H1271 C1267 0.950 . S
H1272 C1269 0.950 . S
C1273 C1264 1.390 1_455 S
C1273 H1266 0.950 . S
C1273 C1270 1.387 . S
C1274 C1275 1.387 . S
C1274 H1278 0.950 . S
C1274 C1283 1.390 1_565 S
C1275 C1274 1.387 . S
C1275 C1277 1.387 . S
H1276 C1283 0.950 . S
C1277 C1275 1.387 . S
C1277 C1279 1.390 1_565 S
C1277 H1281 0.950 . S
H1278 C1274 0.950 . S
C1279 C1277 1.390 1_545 S
C1279 C1280 1.387 . S
C1279 H1282 0.950 . S
C1280 C1279 1.387 . S
C1280 C1283 1.387 . S
H1281 C1277 0.950 . S
H1282 C1279 0.950 . S
C1283 C1274 1.390 1_545 S
C1283 H1276 0.950 . S
C1283 C1280 1.387 . S
C1284 C1285 1.387 . S
C1284 H1288 0.950 . S
C1284 C1293 1.390 1_655 S
C1285 C1284 1.387 . S
C1285 C1287 1.387 . S
H1286 C1293 0.950 . S
C1287 C1285 1.387 . S
C1287 C1289 1.390 1_655 S
C1287 H1291 0.950 . S
H1288 C1284 0.950 . S
C1289 C1287 1.390 1_455 S
C1289 C1290 1.387 . S
C1289 H1292 0.950 . S
C1290 C1289 1.387 . S
C1290 C1293 1.387 . S
H1291 C1287 0.950 . S
H1292 C1289 0.950 . S
C1293 C1284 1.390 1_455 S
C1293 H1286 0.950 . S
C1293 C1290 1.387 . S
C1294 C1295 1.387 . S
C1294 H1298 0.950 . S
C1294 C1303 1.390 1_545 S
C1295 C1294 1.387 . S
C1295 C1297 1.387 . S
H1296 C1303 0.950 . S
C1297 C1295 1.387 . S
C1297 C1299 1.390 1_545 S
C1297 H1301 0.950 . S
H1298 C1294 0.950 . S
C1299 C1297 1.390 1_565 S
C1299 C1300 1.387 . S
C1299 H1302 0.950 . S
C1300 C1299 1.387 . S
C1300 C1303 1.387 . S
H1301 C1297 0.950 . S
H1302 C1299 0.950 . S
C1303 C1294 1.390 1_565 S
C1303 H1296 0.950 . S
C1303 C1300 1.387 . S
C1304 C1305 1.387 . S
C1304 H1308 0.950 . S
C1304 C1313 1.390 1_565 S
C1305 C1304 1.387 . S
C1305 C1307 1.387 . S
H1306 C1313 0.950 . S
C1307 C1305 1.387 . S
C1307 C1309 1.390 1_565 S
C1307 H1311 0.950 . S
H1308 C1304 0.950 . S
C1309 C1307 1.390 1_545 S
C1309 C1310 1.387 . S
C1309 H1312 0.950 . S
C1310 C1309 1.387 . S
C1310 C1313 1.387 . S
H1311 C1307 0.950 . S
H1312 C1309 0.950 . S
C1313 C1304 1.390 1_545 S
C1313 H1306 0.950 . S
C1313 C1310 1.387 . S
C1314 C1315 1.387 . S
C1314 H1318 0.950 . S
C1314 C1323 1.390 1_455 S
C1315 C1314 1.387 . S
C1315 C1317 1.387 . S
H1316 C1323 0.950 . S
C1317 C1315 1.387 . S
C1317 C1319 1.390 1_455 S
C1317 H1321 0.950 . S
H1318 C1314 0.950 . S
C1319 C1317 1.390 1_655 S
C1319 C1320 1.387 . S
C1319 H1322 0.950 . S
C1320 C1319 1.387 . S
C1320 C1323 1.387 . S
H1321 C1317 0.950 . S
H1322 C1319 0.950 . S
C1323 C1314 1.390 1_655 S
C1323 H1316 0.950 . S
C1323 C1320 1.387 . S
C1324 C1325 1.387 . S
C1324 H1328 0.950 . S
C1324 C1333 1.390 1_565 S
C1325 C1324 1.387 . S
C1325 C1327 1.387 . S
H1326 C1333 0.950 . S
C1327 C1325 1.387 . S
C1327 C1329 1.390 1_565 S
C1327 H1331 0.950 . S
H1328 C1324 0.950 . S
C1329 C1327 1.390 1_545 S
C1329 C1330 1.387 . S
C1329 H1332 0.950 . S
C1330 C1329 1.387 . S
C1330 C1333 1.387 . S
H1331 C1327 0.950 . S
H1332 C1329 0.950 . S
C1333 C1324 1.390 1_545 S
C1333 H1326 0.950 . S
C1333 C1330 1.387 . S
C1334 C1335 1.387 . S
C1334 H1338 0.950 . S
C1334 C1343 1.390 1_455 S
C1335 C1334 1.387 . S
C1335 C1337 1.387 . S
H1336 C1343 0.950 . S
C1337 C1335 1.387 . S
C1337 C1339 1.390 1_455 S
C1337 H1341 0.950 . S
H1338 C1334 0.950 . S
C1339 C1337 1.390 1_655 S
C1339 C1340 1.387 . S
C1339 H1342 0.950 . S
C1340 C1339 1.387 . S
C1340 C1343 1.387 . S
H1341 C1337 0.950 . S
H1342 C1339 0.950 . S
C1343 C1334 1.390 1_655 S
C1343 H1336 0.950 . S
C1343 C1340 1.387 . S
C1344 C1345 1.387 . S
C1344 H1348 0.950 . S
C1344 C1353 1.390 . S
C1345 C1344 1.387 . S
C1345 C1347 1.387 1_455 S
H1346 C1353 0.950 . S
C1347 C1345 1.387 1_655 S
C1347 C1349 1.390 . S
C1347 H1351 0.950 . S
H1348 C1344 0.950 . S
C1349 C1347 1.390 . S
C1349 C1350 1.387 1_655 S
C1349 H1352 0.950 . S
C1350 C1349 1.387 1_455 S
C1350 C1353 1.387 . S
H1351 C1347 0.950 . S
H1352 C1349 0.950 . S
C1353 C1344 1.390 . S
C1353 H1346 0.950 . S
C1353 C1350 1.387 . S
C1354 C1355 1.387 1_565 S
C1354 H1358 0.950 . S
C1354 C1363 1.390 . S
C1355 C1354 1.387 1_545 S
C1355 C1357 1.387 . S
H1356 C1363 0.950 . S
C1357 C1355 1.387 . S
C1357 C1359 1.390 . S
C1357 H1361 0.950 . S
H1358 C1354 0.950 . S
C1359 C1357 1.390 . S
C1359 C1360 1.387 . S
C1359 H1362 0.950 . S
C1360 C1359 1.387 . S
C1360 C1363 1.387 1_545 S
H1361 C1357 0.950 . S
H1362 C1359 0.950 . S
C1363 C1354 1.390 . S
C1363 H1356 0.950 . S
C1363 C1360 1.387 1_565 S
C1364 C1365 1.387 1_655 S
C1364 H1368 0.950 . S
C1364 C1373 1.390 . S
C1365 C1364 1.387 1_455 S
C1365 C1367 1.387 . S
H1366 C1373 0.950 . S
C1367 C1365 1.387 . S
C1367 C1369 1.390 . S
C1367 H1371 0.950 . S
H1368 C1364 0.950 . S
C1369 C1367 1.390 . S
C1369 C1370 1.387 . S
C1369 H1372 0.950 . S
C1370 C1369 1.387 . S
C1370 C1373 1.387 1_455 S
H1371 C1367 0.950 . S
H1372 C1369 0.950 . S
C1373 C1364 1.390 . S
C1373 H1366 0.950 . S
C1373 C1370 1.387 1_655 S
C1374 C1375 1.387 . S
C1374 H1378 0.950 . S
C1374 C1383 1.390 . S
C1375 C1374 1.387 . S
C1375 C1377 1.387 1_545 S
H1376 C1383 0.950 . S
C1377 C1375 1.387 1_565 S
C1377 C1379 1.390 . S
C1377 H1381 0.950 . S
H1378 C1374 0.950 . S
C1379 C1377 1.390 . S
C1379 C1380 1.387 1_565 S
C1379 H1382 0.950 . S
C1380 C1379 1.387 1_545 S
C1380 C1383 1.387 . S
H1381 C1377 0.950 . S
H1382 C1379 0.950 . S
C1383 C1374 1.390 . S
C1383 H1376 0.950 . S
C1383 C1380 1.387 . S
C1384 C1385 1.387 . S
C1384 H1388 0.950 . S
C1384 C1393 1.390 . S
C1385 C1384 1.387 . S
C1385 C1387 1.387 . S
H1386 C1393 0.950 . S
C1387 C1385 1.387 . S
C1387 C1389 1.396 . S
C1387 H1391 0.950 . S
H1388 C1384 0.950 . S
C1389 C1387 1.396 . S
C1389 C1390 1.393 . S
C1389 H1392 0.940 1_455 S
C1390 C1389 1.393 . S
C1390 C1393 1.387 . S
H1391 C1387 0.950 . S
H1392 C1389 0.940 1_655 S
C1393 C1384 1.390 . S
C1393 H1386 0.950 . S
C1393 C1390 1.387 . S
C1394 C1395 1.387 1_565 S
C1394 H1398 0.950 . S
C1394 C1403 1.390 . S
C1395 C1394 1.387 1_545 S
C1395 C1397 1.387 . S
H1396 C1403 0.950 . S
C1397 C1395 1.387 . S
C1397 C1399 1.390 . S
C1397 H1401 0.950 . S
H1398 C1394 0.950 . S
C1399 C1397 1.390 . S
C1399 C1400 1.387 . S
C1399 H1402 0.950 . S
C1400 C1399 1.387 . S
C1400 C1403 1.387 1_545 S
H1401 C1397 0.950 . S
H1402 C1399 0.950 . S
C1403 C1394 1.390 . S
C1403 H1396 0.950 . S
C1403 C1400 1.387 1_565 S
C1404 C1405 1.387 . S
C1404 H1408 0.950 . S
C1404 C1413 1.390 . S
C1405 C1404 1.387 . S
C1405 C1407 1.387 . S
H1406 C1413 0.950 . S
C1407 C1405 1.387 . S
C1407 C1409 1.390 . S
C1407 H1411 0.950 . S
H1408 C1404 0.950 . S
C1409 C1407 1.390 . S
C1409 C1410 1.387 . S
C1409 H1412 0.950 . S
C1410 C1409 1.387 . S
C1410 C1413 1.387 . S
H1411 C1407 0.950 . S
H1412 C1409 0.950 . S
C1413 C1404 1.390 . S
C1413 H1406 0.950 . S
C1413 C1410 1.387 . S
C1414 C1415 1.387 . S
C1414 H1418 0.950 . S
C1414 C1423 1.390 . S
C1415 C1414 1.387 . S
C1415 C1417 1.387 1_545 S
H1416 C1423 0.950 . S
C1417 C1415 1.387 1_565 S
C1417 C1419 1.390 . S
C1417 H1421 0.950 . S
H1418 C1414 0.950 . S
C1419 C1417 1.390 . S
C1419 C1420 1.387 1_565 S
C1419 H1422 0.950 . S
C1420 C1419 1.387 1_545 S
C1420 C1423 1.387 . S
H1421 C1417 0.950 . S
H1422 C1419 0.950 . S
C1423 C1414 1.390 . S
C1423 H1416 0.950 . S
C1423 C1420 1.387 . S
C1424 C1425 1.387 . S
C1424 H1428 0.950 . S
C1424 C1433 1.390 . S
C1425 C1424 1.387 . S
C1425 C1427 1.387 1_554 S
H1426 C1433 0.950 . S
C1427 C1425 1.387 1_556 S
C1427 C1429 1.390 . S
C1427 H1431 0.950 . S
H1428 C1424 0.950 . S
C1429 C1427 1.390 . S
C1429 C1430 1.387 1_556 S
C1429 H1432 0.950 . S
C1430 C1429 1.387 1_554 S
C1430 C1433 1.387 . S
H1431 C1427 0.950 . S
H1432 C1429 0.950 . S
C1433 C1424 1.390 . S
C1433 H1426 0.950 . S
C1433 C1430 1.387 . S
C1434 C1435 1.387 . S
C1434 H1438 0.950 . S
C1434 C1443 1.390 . S
C1435 C1434 1.387 . S
C1435 C1437 1.387 1_554 S
H1436 C1443 0.950 . S
C1437 C1435 1.387 1_556 S
C1437 C1439 1.390 . S
C1437 H1441 0.950 . S
H1438 C1434 0.950 . S
C1439 C1437 1.390 . S
C1439 C1440 1.387 1_556 S
C1439 H1442 0.950 . S
C1440 C1439 1.387 1_554 S
C1440 C1443 1.387 . S
H1441 C1437 0.950 . S
H1442 C1439 0.950 . S
C1443 C1434 1.390 . S
C1443 H1436 0.950 . S
C1443 C1440 1.387 . S
C1444 C1445 1.387 1_556 S
C1444 H1448 0.950 . S
C1444 C1453 1.390 . S
C1445 C1444 1.387 1_554 S
C1445 C1447 1.387 . S
H1446 C1453 0.950 . S
C1447 C1445 1.387 . S
C1447 C1449 1.390 . S
C1447 H1451 0.950 . S
H1448 C1444 0.950 . S
C1449 C1447 1.390 . S
C1449 C1450 1.387 . S
C1449 H1452 0.950 . S
C1450 C1449 1.387 . S
C1450 C1453 1.387 1_554 S
H1451 C1447 0.950 . S
H1452 C1449 0.950 . S
C1453 C1444 1.390 . S
C1453 H1446 0.950 . S
C1453 C1450 1.387 1_556 S
C1454 C1455 1.387 . S
C1454 H1458 0.950 . S
C1454 C1463 1.390 . S
C1455 C1454 1.387 . S
C1455 C1457 1.387 1_554 S
H1456 C1463 0.950 . S
C1457 C1455 1.387 1_556 S
C1457 C1459 1.390 . S
C1457 H1461 0.950 . S
H1458 C1454 0.950 . S
C1459 C1457 1.390 . S
C1459 C1460 1.387 1_556 S
C1459 H1462 0.950 . S
C1460 C1459 1.387 1_554 S
C1460 C1463 1.387 . S
H1461 C1457 0.950 . S
H1462 C1459 0.950 . S
C1463 C1454 1.390 . S
C1463 H1456 0.950 . S
C1463 C1460 1.387 . S
C1464 C1465 1.387 . S
C1464 H1468 0.950 . S
C1464 C1473 1.390 . S
C1465 C1464 1.387 . S
C1465 C1467 1.387 . S
H1466 C1473 0.950 . S
C1467 C1465 1.387 . S
C1467 C1469 1.390 . S
C1467 H1471 0.950 . S
H1468 C1464 0.950 . S
C1469 C1467 1.390 . S
C1469 C1470 1.387 . S
C1469 H1472 0.950 . S
C1470 C1469 1.387 . S
C1470 C1473 1.387 . S
H1471 C1467 0.950 . S
H1472 C1469 0.950 . S
C1473 C1464 1.390 . S
C1473 H1466 0.950 . S
C1473 C1470 1.387 . S
C1474 C1475 1.387 . S
C1474 H1478 0.950 . S
C1474 C1483 1.390 . S
C1475 C1474 1.387 . S
C1475 C1477 1.387 . S
H1476 C1483 0.950 . S
C1477 C1475 1.387 . S
C1477 C1479 1.390 . S
C1477 H1481 0.950 . S
H1478 C1474 0.950 . S
C1479 C1477 1.390 . S
C1479 C1480 1.387 . S
C1479 H1482 0.950 . S
C1480 C1479 1.387 . S
C1480 C1483 1.387 . S
H1481 C1477 0.950 . S
H1482 C1479 0.950 . S
C1483 C1474 1.390 . S
C1483 H1476 0.950 . S
C1483 C1480 1.387 . S
C1484 C1485 1.387 . S
C1484 H1488 0.950 . S
C1484 C1493 1.390 . S
C1485 C1484 1.387 . S
C1485 C1487 1.387 . S
H1486 C1493 0.950 . S
C1487 C1485 1.387 . S
C1487 C1489 1.390 . S
C1487 H1491 0.950 . S
H1488 C1484 0.950 . S
C1489 C1487 1.390 . S
C1489 C1490 1.387 . S
C1489 H1492 0.950 . S
C1490 C1489 1.387 . S
C1490 C1493 1.387 . S
H1491 C1487 0.950 . S
H1492 C1489 0.950 . S
C1493 C1484 1.390 . S
C1493 H1486 0.950 . S
C1493 C1490 1.387 . S
C1494 C1495 1.387 . S
C1494 H1498 0.950 . S
C1494 C1503 1.390 . S
C1495 C1494 1.387 . S
C1495 C1497 1.387 . S
H1496 C1503 0.950 . S
C1497 C1495 1.387 . S
C1497 C1499 1.390 . S
C1497 H1501 0.950 . S
H1498 C1494 0.950 . S
C1499 C1497 1.390 . S
C1499 C1500 1.387 . S
C1499 H1502 0.950 . S
C1500 C1499 1.387 . S
C1500 C1503 1.387 . S
H1501 C1497 0.950 . S
H1502 C1499 0.950 . S
C1503 C1494 1.390 . S
C1503 H1496 0.950 . S
C1503 C1500 1.387 . S
C1504 C1505 1.387 . S
C1504 H1508 0.950 . S
C1504 C1513 1.390 . S
C1505 C1504 1.387 . S
C1505 C1507 1.387 . S
H1506 C1513 0.950 . S
C1507 C1505 1.387 . S
C1507 C1509 1.390 . S
C1507 H1511 0.950 . S
H1508 C1504 0.950 . S
C1509 C1507 1.390 . S
C1509 C1510 1.387 . S
C1509 H1512 0.950 . S
C1510 C1509 1.387 . S
C1510 C1513 1.387 . S
H1511 C1507 0.950 . S
H1512 C1509 0.950 . S
C1513 C1504 1.390 . S
C1513 H1506 0.950 . S
C1513 C1510 1.387 . S
C1514 C1515 1.387 . S
C1514 H1518 0.950 . S
C1514 C1523 1.390 . S
C1515 C1514 1.387 . S
C1515 C1517 1.387 . S
H1516 C1523 0.950 . S
C1517 C1515 1.387 . S
C1517 C1519 1.390 . S
C1517 H1521 0.950 . S
H1518 C1514 0.950 . S
C1519 C1517 1.390 . S
C1519 C1520 1.387 . S
C1519 H1522 0.950 . S
C1520 C1519 1.387 . S
C1520 C1523 1.387 . S
H1521 C1517 0.950 . S
H1522 C1519 0.950 . S
C1523 C1514 1.390 . S
C1523 H1516 0.950 . S
C1523 C1520 1.387 . S
C1524 C1525 1.387 . S
C1524 H1528 0.950 . S
C1524 C1533 1.390 . S
C1525 C1524 1.387 . S
C1525 C1527 1.387 . S
H1526 C1533 0.950 . S
C1527 C1525 1.387 . S
C1527 C1529 1.390 . S
C1527 H1531 0.950 . S
H1528 C1524 0.950 . S
C1529 C1527 1.390 . S
C1529 C1530 1.387 . S
C1529 H1532 0.950 . S
C1530 C1529 1.387 . S
C1530 C1533 1.387 . S
H1531 C1527 0.950 . S
H1532 C1529 0.950 . S
C1533 C1524 1.390 . S
C1533 H1526 0.950 . S
C1533 C1530 1.387 . S
C1534 C1535 1.387 . S
C1534 H1538 0.950 . S
C1534 C1543 1.390 . S
C1535 C1534 1.387 . S
C1535 C1537 1.387 . S
H1536 C1543 0.950 . S
C1537 C1535 1.387 . S
C1537 C1539 1.390 . S
C1537 H1541 0.950 . S
H1538 C1534 0.950 . S
C1539 C1537 1.390 . S
C1539 C1540 1.387 . S
C1539 H1542 0.950 . S
C1540 C1539 1.387 . S
C1540 C1543 1.387 . S
H1541 C1537 0.950 . S
H1542 C1539 0.950 . S
C1543 C1534 1.390 . S
C1543 H1536 0.950 . S
C1543 C1540 1.387 . S
C1544 C1545 1.387 . S
C1544 H1548 0.950 . S
C1544 C1553 1.390 . S
C1545 C1544 1.387 . S
C1545 C1547 1.387 . S
H1546 C1553 0.950 . S
C1547 C1545 1.387 . S
C1547 C1549 1.390 . S
C1547 H1551 0.950 . S
H1548 C1544 0.950 . S
C1549 C1547 1.390 . S
C1549 C1550 1.387 . S
C1549 H1552 0.950 . S
C1550 C1549 1.387 . S
C1550 C1553 1.387 . S
H1551 C1547 0.950 . S
H1552 C1549 0.950 . S
C1553 C1544 1.390 . S
C1553 H1546 0.950 . S
C1553 C1550 1.387 . S
C1554 C1555 1.387 . S
C1554 H1558 0.950 . S
C1554 C1563 1.390 . S
C1555 C1554 1.387 . S
C1555 C1557 1.387 . S
H1556 C1563 0.950 . S
C1557 C1555 1.387 . S
C1557 C1559 1.390 . S
C1557 H1561 0.950 . S
H1558 C1554 0.950 . S
C1559 C1557 1.390 . S
C1559 C1560 1.387 . S
C1559 H1562 0.950 . S
C1560 C1559 1.387 . S
C1560 C1563 1.387 . S
H1561 C1557 0.950 . S
H1562 C1559 0.950 . S
C1563 C1554 1.390 . S
C1563 H1556 0.950 . S
C1563 C1560 1.387 . S
C1564 C1565 1.387 . S
C1564 H1568 0.950 . S
C1564 C1573 1.390 . S
C1565 C1564 1.387 . S
C1565 C1567 1.387 . S
H1566 C1573 0.950 . S
C1567 C1565 1.387 . S
C1567 C1569 1.390 . S
C1567 H1571 0.950 . S
H1568 C1564 0.950 . S
C1569 C1567 1.390 . S
C1569 C1570 1.387 . S
C1569 H1572 0.950 . S
C1570 C1569 1.387 . S
C1570 C1573 1.387 . S
H1571 C1567 0.950 . S
H1572 C1569 0.950 . S
C1573 C1564 1.390 . S
C1573 H1566 0.950 . S
C1573 C1570 1.387 . S
C1574 C1575 1.387 . S
C1574 H1578 0.950 . S
C1574 C1583 1.390 . S
C1575 C1574 1.387 . S
C1575 C1577 1.387 . S
H1576 C1583 0.950 . S
C1577 C1575 1.387 . S
C1577 C1579 1.390 . S
C1577 H1581 0.950 . S
H1578 C1574 0.950 . S
C1579 C1577 1.390 . S
C1579 C1580 1.387 . S
C1579 H1582 0.950 . S
C1580 C1579 1.387 . S
C1580 C1583 1.387 . S
H1581 C1577 0.950 . S
H1582 C1579 0.950 . S
C1583 C1574 1.390 . S
C1583 H1576 0.950 . S
C1583 C1580 1.387 . S
C1584 C1585 1.387 . S
C1584 H1588 0.950 . S
C1584 C1593 1.390 . S
C1585 C1584 1.387 . S
C1585 C1587 1.387 . S
H1586 C1593 0.950 . S
C1587 C1585 1.387 . S
C1587 C1589 1.390 . S
C1587 H1591 0.950 . S
H1588 C1584 0.950 . S
C1589 C1587 1.390 . S
C1589 C1590 1.387 . S
C1589 H1592 0.950 . S
C1590 C1589 1.387 . S
C1590 C1593 1.387 . S
H1591 C1587 0.950 . S
H1592 C1589 0.950 . S
C1593 C1584 1.390 . S
C1593 H1586 0.950 . S
C1593 C1590 1.387 . S
C1594 C1595 1.387 . S
C1594 H1598 0.950 . S
C1594 C1603 1.390 . S
C1595 C1594 1.387 . S
C1595 C1597 1.387 . S
H1596 C1603 0.950 . S
C1597 C1595 1.387 . S
C1597 C1599 1.390 . S
C1597 H1601 0.950 . S
H1598 C1594 0.950 . S
C1599 C1597 1.390 . S
C1599 C1600 1.387 . S
C1599 H1602 0.950 . S
C1600 C1599 1.387 . S
C1600 C1603 1.387 . S
H1601 C1597 0.950 . S
H1602 C1599 0.950 . S
C1603 C1594 1.390 . S
C1603 H1596 0.950 . S
C1603 C1600 1.387 . S
C1604 C1605 1.387 . S
C1604 H1608 0.950 . S
C1604 C1613 1.390 . S
C1605 C1604 1.387 . S
C1605 C1607 1.387 . S
H1606 C1613 0.950 . S
C1607 C1605 1.387 . S
C1607 C1609 1.390 . S
C1607 H1611 0.950 . S
H1608 C1604 0.950 . S
C1609 C1607 1.390 . S
C1609 C1610 1.387 . S
C1609 H1612 0.950 . S
C1610 C1609 1.387 . S
C1610 C1613 1.387 . S
H1611 C1607 0.950 . S
H1612 C1609 0.950 . S
C1613 C1604 1.390 . S
C1613 H1606 0.950 . S
C1613 C1610 1.387 . S
C1614 C1615 1.387 . S
C1614 H1618 0.950 . S
C1614 C1623 1.390 . S
C1615 C1614 1.387 . S
C1615 C1617 1.387 . S
H1616 C1623 0.950 . S
C1617 C1615 1.387 . S
C1617 C1619 1.390 . S
C1617 H1621 0.950 . S
H1618 C1614 0.950 . S
C1619 C1617 1.390 . S
C1619 C1620 1.387 . S
C1619 H1622 0.950 . S
C1620 C1619 1.387 . S
C1620 C1623 1.387 . S
H1621 C1617 0.950 . S
H1622 C1619 0.950 . S
C1623 C1614 1.390 . S
C1623 H1616 0.950 . S
C1623 C1620 1.387 . S
C1624 C1625 1.387 . S
C1624 H1628 0.950 . S
C1624 C1633 1.390 . S
C1625 C1624 1.387 . S
C1625 C1627 1.387 . S
H1626 C1633 0.950 . S
C1627 C1625 1.387 . S
C1627 C1629 1.390 . S
C1627 H1631 0.950 . S
H1628 C1624 0.950 . S
C1629 C1627 1.390 . S
C1629 C1630 1.387 . S
C1629 H1632 0.950 . S
C1630 C1629 1.387 . S
C1630 C1633 1.387 . S
H1631 C1627 0.950 . S
H1632 C1629 0.950 . S
C1633 C1624 1.390 . S
C1633 H1626 0.950 . S
C1633 C1630 1.387 . S
C1634 C1635 1.387 . S
C1634 H1638 0.950 . S
C1634 C1643 1.390 . S
C1635 C1634 1.387 . S
C1635 C1637 1.387 . S
H1636 C1643 0.950 . S
C1637 C1635 1.387 . S
C1637 C1639 1.390 . S
C1637 H1641 0.950 . S
H1638 C1634 0.950 . S
C1639 C1637 1.390 . S
C1639 C1640 1.387 . S
C1639 H1642 0.950 . S
C1640 C1639 1.387 . S
C1640 C1643 1.387 . S
H1641 C1637 0.950 . S
H1642 C1639 0.950 . S
C1643 C1634 1.390 . S
C1643 H1636 0.950 . S
C1643 C1640 1.387 . S
C1644 C1645 1.387 . S
C1644 H1648 0.950 . S
C1644 C1653 1.390 . S
C1645 C1644 1.387 . S
C1645 C1647 1.387 . S
H1646 C1653 0.950 . S
C1647 C1645 1.387 . S
C1647 C1649 1.390 . S
C1647 H1651 0.950 . S
H1648 C1644 0.950 . S
C1649 C1647 1.390 . S
C1649 C1650 1.387 . S
C1649 H1652 0.950 . S
C1650 C1649 1.387 . S
C1650 C1653 1.387 . S
H1651 C1647 0.950 . S
H1652 C1649 0.950 . S
C1653 C1644 1.390 . S
C1653 H1646 0.950 . S
C1653 C1650 1.387 . S
C1654 C1655 1.387 . S
C1654 H1658 0.950 . S
C1654 C1663 1.390 . S
C1655 C1654 1.387 . S
C1655 C1657 1.387 . S
H1656 C1663 0.950 . S
C1657 C1655 1.387 . S
C1657 C1659 1.390 . S
C1657 H1661 0.950 . S
H1658 C1654 0.950 . S
C1659 C1657 1.390 . S
C1659 C1660 1.387 . S
C1659 H1662 0.950 . S
C1660 C1659 1.387 . S
C1660 C1663 1.387 . S
H1661 C1657 0.950 . S
H1662 C1659 0.950 . S
C1663 C1654 1.390 . S
C1663 H1656 0.950 . S
C1663 C1660 1.387 . S
C1664 C1665 1.387 . S
C1664 H1668 0.950 . S
C1664 C1673 1.390 . S
C1665 C1664 1.387 . S
C1665 C1667 1.387 . S
H1666 C1673 0.950 . S
C1667 C1665 1.387 . S
C1667 C1669 1.390 . S
C1667 H1671 0.950 . S
H1668 C1664 0.950 . S
C1669 C1667 1.390 . S
C1669 C1670 1.387 . S
C1669 H1672 0.950 . S
C1670 C1669 1.387 . S
C1670 C1673 1.387 . S
H1671 C1667 0.950 . S
H1672 C1669 0.950 . S
C1673 C1664 1.390 . S
C1673 H1666 0.950 . S
C1673 C1670 1.387 . S
C1674 C1675 1.387 . S
C1674 H1678 0.950 . S
C1674 C1683 1.390 . S
C1675 C1674 1.387 . S
C1675 C1677 1.387 . S
H1676 C1683 0.950 . S
C1677 C1675 1.387 . S
C1677 C1679 1.390 . S
C1677 H1681 0.950 . S
H1678 C1674 0.950 . S
C1679 C1677 1.390 . S
C1679 C1680 1.387 . S
C1679 H1682 0.950 . S
C1680 C1679 1.387 . S
C1680 C1683 1.387 . S
H1681 C1677 0.950 . S
H1682 C1679 0.950 . S
C1683 C1674 1.390 . S
C1683 H1676 0.950 . S
C1683 C1680 1.387 . S
C1684 C1685 1.387 . S
C1684 H1688 0.950 . S
C1684 C1693 1.390 . S
C1685 C1684 1.387 . S
C1685 C1687 1.387 . S
H1686 C1693 0.950 . S
C1687 C1685 1.387 . S
C1687 C1689 1.390 . S
C1687 H1691 0.950 . S
H1688 C1684 0.950 . S
C1689 C1687 1.390 . S
C1689 C1690 1.387 . S
C1689 H1692 0.950 . S
C1690 C1689 1.387 . S
C1690 C1693 1.387 . S
H1691 C1687 0.950 . S
H1692 C1689 0.950 . S
C1693 C1684 1.390 . S
C1693 H1686 0.950 . S
C1693 C1690 1.387 . S
C1694 C1695 1.387 . S
C1694 H1698 0.950 . S
C1694 C1703 1.390 . S
C1695 C1694 1.387 . S
C1695 C1697 1.387 . S
H1696 C1703 0.950 . S
C1697 C1695 1.387 . S
C1697 C1699 1.390 . S
C1697 H1701 0.950 . S
H1698 C1694 0.950 . S
C1699 C1697 1.390 . S
C1699 C1700 1.387 . S
C1699 H1702 0.950 . S
C1700 C1699 1.387 . S
C1700 C1703 1.387 . S
H1701 C1697 0.950 . S
H1702 C1699 0.950 . S
C1703 C1694 1.390 . S
C1703 H1696 0.950 . S
C1703 C1700 1.387 . S
C1704 C1705 1.387 . S
C1704 H1708 0.950 . S
C1704 C1713 1.390 . S
C1705 C1704 1.387 . S
C1705 C1707 1.387 . S
H1706 C1713 0.950 . S
C1707 C1705 1.387 . S
C1707 C1709 1.390 . S
C1707 H1711 0.950 . S
H1708 C1704 0.950 . S
C1709 C1707 1.390 . S
C1709 C1710 1.387 . S
C1709 H1712 0.950 . S
C1710 C1709 1.387 . S
C1710 C1713 1.387 . S
H1711 C1707 0.950 . S
H1712 C1709 0.950 . S
C1713 C1704 1.390 . S
C1713 H1706 0.950 . S
C1713 C1710 1.387 . S
C1714 C1715 1.387 . S
C1714 H1718 0.950 . S
C1714 C1723 1.390 . S
C1715 C1714 1.387 . S
C1715 C1717 1.387 . S
H1716 C1723 0.950 . S
C1717 C1715 1.387 . S
C1717 C1719 1.390 . S
C1717 H1721 0.950 . S
H1718 C1714 0.950 . S
C1719 C1717 1.390 . S
C1719 C1720 1.387 . S
C1719 H1722 0.950 . S
C1720 C1719 1.387 . S
C1720 C1723 1.387 . S
H1721 C1717 0.950 . S
H1722 C1719 0.950 . S
C1723 C1714 1.390 . S
C1723 H1716 0.950 . S
C1723 C1720 1.387 . S
C1724 C1725 1.387 . S
C1724 H1728 0.950 . S
C1724 C1733 1.390 . S
C1725 C1724 1.387 . S
C1725 C1727 1.387 . S
H1726 C1733 0.950 . S
C1727 C1725 1.387 . S
C1727 C1729 1.390 . S
C1727 H1731 0.950 . S
H1728 C1724 0.950 . S
C1729 C1727 1.390 . S
C1729 C1730 1.387 . S
C1729 H1732 0.950 . S
C1730 C1729 1.387 . S
C1730 C1733 1.387 . S
H1731 C1727 0.950 . S
H1732 C1729 0.950 . S
C1733 C1724 1.390 . S
C1733 H1726 0.950 . S
C1733 C1730 1.387 . S
C1734 C1735 1.387 . S
C1734 H1738 0.950 . S
C1734 C1743 1.390 . S
C1735 C1734 1.387 . S
C1735 C1737 1.387 . S
H1736 C1743 0.950 . S
C1737 C1735 1.387 . S
C1737 C1739 1.390 . S
C1737 H1741 0.950 . S
H1738 C1734 0.950 . S
C1739 C1737 1.390 . S
C1739 C1740 1.387 . S
C1739 H1742 0.950 . S
C1740 C1739 1.387 . S
C1740 C1743 1.387 . S
H1741 C1737 0.950 . S
H1742 C1739 0.950 . S
C1743 C1734 1.390 . S
C1743 H1736 0.950 . S
C1743 C1740 1.387 . S
C1744 C1745 1.387 . S
C1744 H1748 0.950 . S
C1744 C1753 1.390 . S
C1745 C1744 1.387 . S
C1745 C1747 1.387 . S
H1746 C1753 0.950 . S
C1747 C1745 1.387 . S
C1747 C1749 1.390 . S
C1747 H1751 0.950 . S
H1748 C1744 0.950 . S
C1749 C1747 1.390 . S
C1749 C1750 1.387 . S
C1749 H1752 0.950 . S
C1750 C1749 1.387 . S
C1750 C1753 1.387 . S
H1751 C1747 0.950 . S
H1752 C1749 0.950 . S
C1753 C1744 1.390 . S
C1753 H1746 0.950 . S
C1753 C1750 1.387 . S
C1754 C1755 1.387 . S
C1754 H1758 0.950 . S
C1754 C1763 1.390 . S
C1755 C1754 1.387 . S
C1755 C1757 1.387 . S
H1756 C1763 0.950 . S
C1757 C1755 1.387 . S
C1757 C1759 1.390 . S
C1757 H1761 0.950 . S
H1758 C1754 0.950 . S
C1759 C1757 1.390 . S
C1759 C1760 1.387 . S
C1759 H1762 0.950 . S
C1760 C1759 1.387 . S
C1760 C1763 1.387 . S
H1761 C1757 0.950 . S
H1762 C1759 0.950 . S
C1763 C1754 1.390 . S
C1763 H1756 0.950 . S
C1763 C1760 1.387 . S
C1764 C1765 1.387 . S
C1764 H1768 0.950 . S
C1764 C1773 1.390 . S
C1765 C1764 1.387 . S
C1765 C1767 1.387 . S
H1766 C1773 0.950 . S
C1767 C1765 1.387 . S
C1767 C1769 1.390 . S
C1767 H1771 0.950 . S
H1768 C1764 0.950 . S
C1769 C1767 1.390 . S
C1769 C1770 1.387 . S
C1769 H1772 0.950 . S
C1770 C1769 1.387 . S
C1770 C1773 1.387 . S
H1771 C1767 0.950 . S
H1772 C1769 0.950 . S
C1773 C1764 1.390 . S
C1773 H1766 0.950 . S
C1773 C1770 1.387 . S
C1774 C1775 1.387 . S
C1774 H1778 0.950 . S
C1774 C1783 1.390 . S
C1775 C1774 1.387 . S
C1775 C1777 1.387 . S
H1776 C1783 0.950 . S
C1777 C1775 1.387 . S
C1777 C1779 1.390 . S
C1777 H1781 0.950 . S
H1778 C1774 0.950 . S
C1779 C1777 1.390 . S
C1779 C1780 1.387 . S
C1779 H1782 0.950 . S
C1780 C1779 1.387 . S
C1780 C1783 1.387 . S
H1781 C1777 0.950 . S
H1782 C1779 0.950 . S
C1783 C1774 1.390 . S
C1783 H1776 0.950 . S
C1783 C1780 1.387 . S
C1784 C1785 1.387 . S
C1784 H1788 0.950 . S
C1784 C1793 1.390 . S
C1785 C1784 1.387 . S
C1785 C1787 1.387 . S
H1786 C1793 0.950 . S
C1787 C1785 1.387 . S
C1787 C1789 1.390 . S
C1787 H1791 0.950 . S
H1788 C1784 0.950 . S
C1789 C1787 1.390 . S
C1789 C1790 1.387 . S
C1789 H1792 0.950 . S
C1790 C1789 1.387 . S
C1790 C1793 1.387 . S
H1791 C1787 0.950 . S
H1792 C1789 0.950 . S
C1793 C1784 1.390 . S
C1793 H1786 0.950 . S
C1793 C1790 1.387 . S
C1794 C1795 1.387 . S
C1794 H1798 0.950 . S
C1794 C1803 1.390 . S
C1795 C1794 1.387 . S
C1795 C1797 1.387 . S
H1796 C1803 0.950 . S
C1797 C1795 1.387 . S
C1797 C1799 1.390 . S
C1797 H1801 0.950 . S
H1798 C1794 0.950 . S
C1799 C1797 1.390 . S
C1799 C1800 1.387 . S
C1799 H1802 0.950 . S
C1800 C1799 1.387 . S
C1800 C1803 1.387 . S
H1801 C1797 0.950 . S
H1802 C1799 0.950 . S
C1803 C1794 1.390 . S
C1803 H1796 0.950 . S
C1803 C1800 1.387 . S
C1804 C1805 1.387 . S
C1804 H1808 0.950 . S
C1804 C1813 1.390 . S
C1805 C1804 1.387 . S
C1805 C1807 1.387 . S
H1806 C1813 0.950 . S
C1807 C1805 1.387 . S
C1807 C1809 1.390 . S
C1807 H1811 0.950 . S
H1808 C1804 0.950 . S
C1809 C1807 1.390 . S
C1809 C1810 1.387 . S
C1809 H1812 0.950 . S
C1810 C1809 1.387 . S
C1810 C1813 1.387 . S
H1811 C1807 0.950 . S
H1812 C1809 0.950 . S
C1813 C1804 1.390 . S
C1813 H1806 0.950 . S
C1813 C1810 1.387 . S
C1814 C1815 1.387 . S
C1814 H1818 0.950 . S
C1814 C1823 1.390 . S
C1815 C1814 1.387 . S
C1815 C1817 1.387 . S
H1816 C1823 0.950 . S
C1817 C1815 1.387 . S
C1817 C1819 1.390 . S
C1817 H1821 0.950 . S
H1818 C1814 0.950 . S
C1819 C1817 1.390 . S
C1819 C1820 1.387 . S
C1819 H1822 0.950 . S
C1820 C1819 1.387 . S
C1820 C1823 1.387 . S
H1821 C1817 0.950 . S
H1822 C1819 0.950 . S
C1823 C1814 1.390 . S
C1823 H1816 0.950 . S
C1823 C1820 1.387 . S
C1824 C1825 1.387 . S
C1824 H1828 0.950 . S
C1824 C1833 1.390 . S
C1825 C1824 1.387 . S
C1825 C1827 1.387 . S
H1826 C1833 0.950 . S
C1827 C1825 1.387 . S
C1827 C1829 1.390 . S
C1827 H1831 0.950 . S
H1828 C1824 0.950 . S
C1829 C1827 1.390 . S
C1829 C1830 1.387 . S
C1829 H1832 0.950 . S
C1830 C1829 1.387 . S
C1830 C1833 1.387 . S
H1831 C1827 0.950 . S
H1832 C1829 0.950 . S
C1833 C1824 1.390 . S
C1833 H1826 0.950 . S
C1833 C1830 1.387 . S
C1834 C1835 1.387 . S
C1834 H1838 0.950 . S
C1834 C1843 1.390 . S
C1835 C1834 1.387 . S
C1835 C1837 1.387 . S
H1836 C1843 0.950 . S
C1837 C1835 1.387 . S
C1837 C1839 1.390 . S
C1837 H1841 0.950 . S
H1838 C1834 0.950 . S
C1839 C1837 1.390 . S
C1839 C1840 1.387 . S
C1839 H1842 0.950 . S
C1840 C1839 1.387 . S
C1840 C1843 1.387 . S
H1841 C1837 0.950 . S
H1842 C1839 0.950 . S
C1843 C1834 1.390 . S
C1843 H1836 0.950 . S
C1843 C1840 1.387 . S
C1844 C1845 1.387 . S
C1844 H1848 0.950 . S
C1844 C1853 1.390 . S
C1845 C1844 1.387 . S
C1845 C1847 1.387 . S
H1846 C1853 0.950 . S
C1847 C1845 1.387 . S
C1847 C1849 1.390 . S
C1847 H1851 0.950 . S
H1848 C1844 0.950 . S
C1849 C1847 1.390 . S
C1849 C1850 1.387 . S
C1849 H1852 0.950 . S
C1850 C1849 1.387 . S
C1850 C1853 1.387 . S
H1851 C1847 0.950 . S
H1852 C1849 0.950 . S
C1853 C1844 1.390 . S
C1853 H1846 0.950 . S
C1853 C1850 1.387 . S
C1854 C1855 1.387 . S
C1854 H1858 0.950 . S
C1854 C1863 1.390 . S
C1855 C1854 1.387 . S
C1855 C1857 1.387 . S
H1856 C1863 0.950 . S
C1857 C1855 1.387 . S
C1857 C1859 1.390 . S
C1857 H1861 0.950 . S
H1858 C1854 0.950 . S
C1859 C1857 1.390 . S
C1859 C1860 1.387 . S
C1859 H1862 0.950 . S
C1860 C1859 1.387 . S
C1860 C1863 1.387 . S
H1861 C1857 0.950 . S
H1862 C1859 0.950 . S
C1863 C1854 1.390 . S
C1863 H1856 0.950 . S
C1863 C1860 1.387 . S
C1864 C1865 1.387 . S
C1864 H1868 0.950 . S
C1864 C1873 1.390 . S
C1865 C1864 1.387 . S
C1865 C1867 1.387 . S
H1866 C1873 0.950 . S
C1867 C1865 1.387 . S
C1867 C1869 1.390 . S
C1867 H1871 0.950 . S
H1868 C1864 0.950 . S
C1869 C1867 1.390 . S
C1869 C1870 1.387 . S
C1869 H1872 0.950 . S
C1870 C1869 1.387 . S
C1870 C1873 1.387 . S
H1871 C1867 0.950 . S
H1872 C1869 0.950 . S
C1873 C1864 1.390 . S
C1873 H1866 0.950 . S
C1873 C1870 1.387 . S
C1874 C1875 1.387 . S
C1874 H1878 0.950 . S
C1874 C1883 1.390 . S
C1875 C1874 1.387 . S
C1875 C1877 1.387 . S
H1876 C1883 0.950 . S
C1877 C1875 1.387 . S
C1877 C1879 1.390 . S
C1877 H1881 0.950 . S
H1878 C1874 0.950 . S
C1879 C1877 1.390 . S
C1879 C1880 1.387 . S
C1879 H1882 0.950 . S
C1880 C1879 1.387 . S
C1880 C1883 1.387 . S
H1881 C1877 0.950 . S
H1882 C1879 0.950 . S
C1883 C1874 1.390 . S
C1883 H1876 0.950 . S
C1883 C1880 1.387 . S
C1884 C1885 1.387 . S
C1884 H1888 0.950 . S
C1884 C1893 1.390 . S
C1885 C1884 1.387 . S
C1885 C1887 1.387 . S
H1886 C1893 0.950 . S
C1887 C1885 1.387 . S
C1887 C1889 1.390 . S
C1887 H1891 0.950 . S
H1888 C1884 0.950 . S
C1889 C1887 1.390 . S
C1889 C1890 1.387 . S
C1889 H1892 0.950 . S
C1890 C1889 1.387 . S
C1890 C1893 1.387 . S
H1891 C1887 0.950 . S
H1892 C1889 0.950 . S
C1893 C1884 1.390 . S
C1893 H1886 0.950 . S
C1893 C1890 1.387 . S
C1894 C1895 1.387 . S
C1894 H1898 0.950 . S
C1894 C1903 1.390 . S
C1895 C1894 1.387 . S
C1895 C1897 1.387 . S
H1896 C1903 0.950 . S
C1897 C1895 1.387 . S
C1897 C1899 1.390 . S
C1897 H1901 0.950 . S
H1898 C1894 0.950 . S
C1899 C1897 1.390 . S
C1899 C1900 1.387 . S
C1899 H1902 0.950 . S
C1900 C1899 1.387 . S
C1900 C1903 1.387 . S
H1901 C1897 0.950 . S
H1902 C1899 0.950 . S
C1903 C1894 1.390 . S
C1903 H1896 0.950 . S
C1903 C1900 1.387 . S
C1904 C1905 1.387 . S
C1904 H1908 0.950 . S
C1904 C1913 1.390 . S
C1905 C1904 1.387 . S
C1905 C1907 1.387 . S
H1906 C1913 0.950 . S
C1907 C1905 1.387 . S
C1907 C1909 1.390 . S
C1907 H1911 0.950 . S
H1908 C1904 0.950 . S
C1909 C1907 1.390 . S
C1909 C1910 1.387 . S
C1909 H1912 0.950 . S
C1910 C1909 1.387 . S
C1910 C1913 1.387 . S
H1911 C1907 0.950 . S
H1912 C1909 0.950 . S
C1913 C1904 1.390 . S
C1913 H1906 0.950 . S
C1913 C1910 1.387 . S
C1914 C1915 1.387 . S
C1914 H1918 0.950 . S
C1914 C1923 1.390 . S
C1915 C1914 1.387 . S
C1915 C1917 1.387 . S
H1916 C1923 0.950 . S
C1917 C1915 1.387 . S
C1917 C1919 1.390 . S
C1917 H1921 0.950 . S
H1918 C1914 0.950 . S
C1919 C1917 1.390 . S
C1919 C1920 1.387 . S
C1919 H1922 0.950 . S
C1920 C1919 1.387 . S
C1920 C1923 1.387 . S
H1921 C1917 0.950 . S
H1922 C1919 0.950 . S
C1923 C1914 1.390 . S
C1923 H1916 0.950 . S
C1923 C1920 1.387 . S
C1924 C1925 1.387 . S
C1924 H1928 0.950 . S
C1924 C1933 1.390 . S
C1925 C1924 1.387 . S
C1925 C1927 1.387 . S
H1926 C1933 0.950 . S
C1927 C1925 1.387 . S
C1927 C1929 1.390 . S
C1927 H1931 0.950 . S
H1928 C1924 0.950 . S
C1929 C1927 1.390 . S
C1929 C1930 1.387 . S
C1929 H1932 0.950 . S
C1930 C1929 1.387 . S
C1930 C1933 1.387 . S
H1931 C1927 0.950 . S
H1932 C1929 0.950 . S
C1933 C1924 1.390 . S
C1933 H1926 0.950 . S
C1933 C1930 1.387 . S
C1934 C1935 1.387 . S
C1934 H1938 0.950 . S
C1934 C1943 1.390 . S
C1935 C1934 1.387 . S
C1935 C1937 1.387 . S
H1936 C1943 0.950 . S
C1937 C1935 1.387 . S
C1937 C1939 1.390 . S
C1937 H1941 0.950 . S
H1938 C1934 0.950 . S
C1939 C1937 1.390 . S
C1939 C1940 1.387 . S
C1939 H1942 0.950 . S
C1940 C1939 1.387 . S
C1940 C1943 1.387 . S
H1941 C1937 0.950 . S
H1942 C1939 0.950 . S
C1943 C1934 1.390 . S
C1943 H1936 0.950 . S
C1943 C1940 1.387 . S
C1944 C1945 1.387 . S
C1944 H1948 0.950 . S
C1944 C1953 1.390 . S
C1945 C1944 1.387 . S
C1945 C1947 1.387 . S
H1946 C1953 0.950 . S
C1947 C1945 1.387 . S
C1947 C1949 1.390 . S
C1947 H1951 0.950 . S
H1948 C1944 0.950 . S
C1949 C1947 1.390 . S
C1949 C1950 1.387 . S
C1949 H1952 0.950 . S
C1950 C1949 1.387 . S
C1950 C1953 1.387 . S
H1951 C1947 0.950 . S
H1952 C1949 0.950 . S
C1953 C1944 1.390 . S
C1953 H1946 0.950 . S
C1953 C1950 1.387 . S
C1954 C1955 1.387 . S
C1954 H1958 0.950 . S
C1954 C1963 1.390 . S
C1955 C1954 1.387 . S
C1955 C1957 1.387 . S
H1956 C1963 0.950 . S
C1957 C1955 1.387 . S
C1957 C1959 1.390 . S
C1957 H1961 0.950 . S
H1958 C1954 0.950 . S
C1959 C1957 1.390 . S
C1959 C1960 1.387 . S
C1959 H1962 0.950 . S
C1960 C1959 1.387 . S
C1960 C1963 1.387 . S
H1961 C1957 0.950 . S
H1962 C1959 0.950 . S
C1963 C1954 1.390 . S
C1963 H1956 0.950 . S
C1963 C1960 1.387 . S
C1964 C1965 1.387 . S
C1964 H1968 0.950 . S
C1964 C1973 1.390 . S
C1965 C1964 1.387 . S
C1965 C1967 1.387 . S
H1966 C1973 0.950 . S
C1967 C1965 1.387 . S
C1967 C1969 1.390 . S
C1967 H1971 0.950 . S
H1968 C1964 0.950 . S
C1969 C1967 1.390 . S
C1969 C1970 1.387 . S
C1969 H1972 0.950 . S
C1970 C1969 1.387 . S
C1970 C1973 1.387 . S
H1971 C1967 0.950 . S
H1972 C1969 0.950 . S
C1973 C1964 1.390 . S
C1973 H1966 0.950 . S
C1973 C1970 1.387 . S
C1974 C1975 1.387 . S
C1974 H1978 0.950 . S
C1974 C1983 1.390 . S
C1975 C1974 1.387 . S
C1975 C1977 1.387 . S
H1976 C1983 0.950 . S
C1977 C1975 1.387 . S
C1977 C1979 1.390 . S
C1977 H1981 0.950 . S
H1978 C1974 0.950 . S
C1979 C1977 1.390 . S
C1979 C1980 1.387 . S
C1979 H1982 0.950 . S
C1980 C1979 1.387 . S
C1980 C1983 1.387 . S
H1981 C1977 0.950 . S
H1982 C1979 0.950 . S
C1983 C1974 1.390 . S
C1983 H1976 0.950 . S
C1983 C1980 1.387 . S
C1984 C1985 1.387 . S
C1984 H1988 0.950 . S
C1984 C1993 1.390 . S
C1985 C1984 1.387 . S
C1985 C1987 1.387 . S
H1986 C1993 0.950 . S
C1987 C1985 1.387 . S
C1987 C1989 1.390 . S
C1987 H1991 0.950 . S
H1988 C1984 0.950 . S
C1989 C1987 1.390 . S
C1989 C1990 1.387 . S
C1989 H1992 0.950 . S
C1990 C1989 1.387 . S
C1990 C1993 1.387 . S
H1991 C1987 0.950 . S
H1992 C1989 0.950 . S
C1993 C1984 1.390 . S
C1993 H1986 0.950 . S
C1993 C1990 1.387 . S
C1994 C1995 1.387 . S
C1994 H1998 0.950 . S
C1994 C2003 1.390 . S
C1995 C1994 1.387 . S
C1995 C1997 1.387 . S
H1996 C2003 0.950 . S
C1997 C1995 1.387 . S
C1997 C1999 1.390 . S
C1997 H2001 0.950 . S
H1998 C1994 0.950 . S
C1999 C1997 1.390 . S
C1999 C2000 1.387 . S
C1999 H2002 0.950 . S
C2000 C1999 1.387 . S
C2000 C2003 1.387 . S
H2001 C1997 0.950 . S
H2002 C1999 0.950 . S
C2003 C1994 1.390 . S
C2003 H1996 0.950 . S
C2003 C2000 1.387 . S
C2004 C2005 1.387 . S
C2004 H2008 0.950 . S
C2004 C2013 1.390 . S
C2005 C2004 1.387 . S
C2005 C2007 1.387 . S
H2006 C2013 0.950 . S
C2007 C2005 1.387 . S
C2007 C2009 1.390 . S
C2007 H2011 0.950 . S
H2008 C2004 0.950 . S
C2009 C2007 1.390 . S
C2009 C2010 1.387 . S
C2009 H2012 0.950 . S
C2010 C2009 1.387 . S
C2010 C2013 1.387 . S
H2011 C2007 0.950 . S
H2012 C2009 0.950 . S
C2013 C2004 1.390 . S
C2013 H2006 0.950 . S
C2013 C2010 1.387 . S
C2014 C2015 1.387 . S
C2014 H2018 0.950 . S
C2014 C2023 1.390 . S
C2015 C2014 1.387 . S
C2015 C2017 1.387 . S
H2016 C2023 0.950 . S
C2017 C2015 1.387 . S
C2017 C2019 1.390 . S
C2017 H2021 0.950 . S
H2018 C2014 0.950 . S
C2019 C2017 1.390 . S
C2019 C2020 1.387 . S
C2019 H2022 0.950 . S
C2020 C2019 1.387 . S
C2020 C2023 1.387 . S
H2021 C2017 0.950 . S
H2022 C2019 0.950 . S
C2023 C2014 1.390 . S
C2023 H2016 0.950 . S
C2023 C2020 1.387 . S
C2024 C2025 1.387 . S
C2024 H2028 0.950 . S
C2024 C2033 1.390 . S
C2025 C2024 1.387 . S
C2025 C2027 1.387 . S
H2026 C2033 0.950 . S
C2027 C2025 1.387 . S
C2027 C2029 1.390 . S
C2027 H2031 0.950 . S
H2028 C2024 0.950 . S
C2029 C2027 1.390 . S
C2029 C2030 1.387 . S
C2029 H2032 0.950 . S
C2030 C2029 1.387 . S
C2030 C2033 1.387 . S
H2031 C2027 0.950 . S
H2032 C2029 0.950 . S
C2033 C2024 1.390 . S
C2033 H2026 0.950 . S
C2033 C2030 1.387 . S
C2034 C2035 1.387 . S
C2034 H2038 0.950 . S
C2034 C2043 1.390 . S
C2035 C2034 1.387 . S
C2035 C2037 1.387 . S
H2036 C2043 0.950 . S
C2037 C2035 1.387 . S
C2037 C2039 1.390 . S
C2037 H2041 0.950 . S
H2038 C2034 0.950 . S
C2039 C2037 1.390 . S
C2039 C2040 1.387 . S
C2039 H2042 0.950 . S
C2040 C2039 1.387 . S
C2040 C2043 1.387 . S
H2041 C2037 0.950 . S
H2042 C2039 0.950 . S
C2043 C2034 1.390 . S
C2043 H2036 0.950 . S
C2043 C2040 1.387 . S
C2044 C2045 1.387 . S
C2044 H2048 0.950 . S
C2044 C2053 1.390 . S
C2045 C2044 1.387 . S
C2045 C2047 1.387 . S
H2046 C2053 0.950 . S
C2047 C2045 1.387 . S
C2047 C2049 1.390 . S
C2047 H2051 0.950 . S
H2048 C2044 0.950 . S
C2049 C2047 1.390 . S
C2049 C2050 1.387 . S
C2049 H2052 0.950 . S
C2050 C2049 1.387 . S
C2050 C2053 1.387 . S
H2051 C2047 0.950 . S
H2052 C2049 0.950 . S
C2053 C2044 1.390 . S
C2053 H2046 0.950 . S
C2053 C2050 1.387 . S
C2054 C2055 1.387 . S
C2054 H2058 0.950 . S
C2054 C2063 1.390 . S
C2055 C2054 1.387 . S
C2055 C2057 1.387 . S
H2056 C2063 0.950 . S
C2057 C2055 1.387 . S
C2057 C2059 1.390 . S
C2057 H2061 0.950 . S
H2058 C2054 0.950 . S
C2059 C2057 1.390 . S
C2059 C2060 1.387 . S
C2059 H2062 0.950 . S
C2060 C2059 1.387 . S
C2060 C2063 1.387 . S
H2061 C2057 0.950 . S
H2062 C2059 0.950 . S
C2063 C2054 1.390 . S
C2063 H2056 0.950 . S
C2063 C2060 1.387 . S
C2064 C2065 1.387 . S
C2064 H2068 0.950 . S
C2064 C2073 1.390 . S
C2065 C2064 1.387 . S
C2065 C2067 1.387 . S
H2066 C2073 0.950 . S
C2067 C2065 1.387 . S
C2067 C2069 1.390 . S
C2067 H2071 0.950 . S
H2068 C2064 0.950 . S
C2069 C2067 1.390 . S
C2069 C2070 1.387 . S
C2069 H2072 0.950 . S
C2070 C2069 1.387 . S
C2070 C2073 1.387 . S
H2071 C2067 0.950 . S
H2072 C2069 0.950 . S
C2073 C2064 1.390 . S
C2073 H2066 0.950 . S
C2073 C2070 1.387 . S
C2074 C2075 1.387 . S
C2074 H2078 0.950 . S
C2074 C2083 1.390 . S
C2075 C2074 1.387 . S
C2075 C2077 1.387 . S
H2076 C2083 0.950 . S
C2077 C2075 1.387 . S
C2077 C2079 1.390 . S
C2077 H2081 0.950 . S
H2078 C2074 0.950 . S
C2079 C2077 1.390 . S
C2079 C2080 1.387 . S
C2079 H2082 0.950 . S
C2080 C2079 1.387 . S
C2080 C2083 1.387 . S
H2081 C2077 0.950 . S
H2082 C2079 0.950 . S
C2083 C2074 1.390 . S
C2083 H2076 0.950 . S
C2083 C2080 1.387 . S
C2084 C2085 1.387 . S
C2084 H2088 0.950 . S
C2084 C2093 1.390 . S
C2085 C2084 1.387 . S
C2085 C2087 1.387 . S
H2086 C2093 0.950 . S
C2087 C2085 1.387 . S
C2087 C2089 1.390 . S
C2087 H2091 0.950 . S
H2088 C2084 0.950 . S
C2089 C2087 1.390 . S
C2089 C2090 1.387 . S
C2089 H2092 0.950 . S
C2090 C2089 1.387 . S
C2090 C2093 1.387 . S
H2091 C2087 0.950 . S
H2092 C2089 0.950 . S
C2093 C2084 1.390 . S
C2093 H2086 0.950 . S
C2093 C2090 1.387 . S
C2094 C2095 1.387 . S
C2094 H2098 0.950 . S
C2094 C2103 1.390 . S
C2095 C2094 1.387 . S
C2095 C2097 1.387 . S
H2096 C2103 0.950 . S
C2097 C2095 1.387 . S
C2097 C2099 1.390 . S
C2097 H2101 0.950 . S
H2098 C2094 0.950 . S
C2099 C2097 1.390 . S
C2099 C2100 1.387 . S
C2099 H2102 0.950 . S
C2100 C2099 1.387 . S
C2100 C2103 1.387 . S
H2101 C2097 0.950 . S
H2102 C2099 0.950 . S
C2103 C2094 1.390 . S
C2103 H2096 0.950 . S
C2103 C2100 1.387 . S
C2104 C2105 1.387 . S
C2104 H2108 0.950 . S
C2104 C2113 1.390 . S
C2105 C2104 1.387 . S
C2105 C2107 1.387 . S
H2106 C2113 0.950 . S
C2107 C2105 1.387 . S
C2107 C2109 1.390 . S
C2107 H2111 0.950 . S
H2108 C2104 0.950 . S
C2109 C2107 1.390 . S
C2109 C2110 1.387 . S
C2109 H2112 0.950 . S
C2110 C2109 1.387 . S
C2110 C2113 1.387 . S
H2111 C2107 0.950 . S
H2112 C2109 0.950 . S
C2113 C2104 1.390 . S
C2113 H2106 0.950 . S
C2113 C2110 1.387 . S
C2114 C2115 1.387 . S
C2114 H2118 0.950 . S
C2114 C2123 1.390 . S
C2115 C2114 1.387 . S
C2115 C2117 1.387 . S
H2116 C2123 0.950 . S
C2117 C2115 1.387 . S
C2117 C2119 1.390 . S
C2117 H2121 0.950 . S
H2118 C2114 0.950 . S
C2119 C2117 1.390 . S
C2119 C2120 1.387 . S
C2119 H2122 0.950 . S
C2120 C2119 1.387 . S
C2120 C2123 1.387 . S
H2121 C2117 0.950 . S
H2122 C2119 0.950 . S
C2123 C2114 1.390 . S
C2123 H2116 0.950 . S
C2123 C2120 1.387 . S
C2124 C2125 1.387 . S
C2124 H2128 0.950 . S
C2124 C2133 1.390 . S
C2125 C2124 1.387 . S
C2125 C2127 1.387 . S
H2126 C2133 0.950 . S
C2127 C2125 1.387 . S
C2127 C2129 1.390 . S
C2127 H2131 0.950 . S
H2128 C2124 0.950 . S
C2129 C2127 1.390 . S
C2129 C2130 1.387 . S
C2129 H2132 0.950 . S
C2130 C2129 1.387 . S
C2130 C2133 1.387 . S
H2131 C2127 0.950 . S
H2132 C2129 0.950 . S
C2133 C2124 1.390 . S
C2133 H2126 0.950 . S
C2133 C2130 1.387 . S
C2134 C2135 1.387 . S
C2134 H2138 0.950 . S
C2134 C2143 1.390 . S
C2135 C2134 1.387 . S
C2135 C2137 1.387 . S
H2136 C2143 0.950 . S
C2137 C2135 1.387 . S
C2137 C2139 1.390 . S
C2137 H2141 0.950 . S
H2138 C2134 0.950 . S
C2139 C2137 1.390 . S
C2139 C2140 1.387 . S
C2139 H2142 0.950 . S
C2140 C2139 1.387 . S
C2140 C2143 1.387 . S
H2141 C2137 0.950 . S
H2142 C2139 0.950 . S
C2143 C2134 1.390 . S
C2143 H2136 0.950 . S
C2143 C2140 1.387 . S
C2144 C2145 1.387 . S
C2144 H2148 0.950 . S
C2144 C2153 1.390 . S
C2145 C2144 1.387 . S
C2145 C2147 1.387 . S
H2146 C2153 0.950 . S
C2147 C2145 1.387 . S
C2147 C2149 1.390 . S
C2147 H2151 0.950 . S
H2148 C2144 0.950 . S
C2149 C2147 1.390 . S
C2149 C2150 1.387 . S
C2149 H2152 0.950 . S
C2150 C2149 1.387 . S
C2150 C2153 1.387 . S
H2151 C2147 0.950 . S
H2152 C2149 0.950 . S
C2153 C2144 1.390 . S
C2153 H2146 0.950 . S
C2153 C2150 1.387 . S
C2154 C2155 1.387 . S
C2154 H2158 0.950 . S
C2154 C2163 1.390 . S
C2155 C2154 1.387 . S
C2155 C2157 1.387 . S
H2156 C2163 0.950 . S
C2157 C2155 1.387 . S
C2157 C2159 1.390 . S
C2157 H2161 0.950 . S
H2158 C2154 0.950 . S
C2159 C2157 1.390 . S
C2159 C2160 1.387 . S
C2159 H2162 0.950 . S
C2160 C2159 1.387 . S
C2160 C2163 1.387 . S
H2161 C2157 0.950 . S
H2162 C2159 0.950 . S
C2163 C2154 1.390 . S
C2163 H2156 0.950 . S
C2163 C2160 1.387 . S
C2164 C2165 1.387 . S
C2164 H2168 0.950 . S
C2164 C2173 1.390 . S
C2165 C2164 1.387 . S
C2165 C2167 1.387 . S
H2166 C2173 0.950 . S
C2167 C2165 1.387 . S
C2167 C2169 1.390 . S
C2167 H2171 0.950 . S
H2168 C2164 0.950 . S
C2169 C2167 1.390 . S
C2169 C2170 1.387 . S
C2169 H2172 0.950 . S
C2170 C2169 1.387 . S
C2170 C2173 1.387 . S
H2171 C2167 0.950 . S
H2172 C2169 0.950 . S
C2173 C2164 1.390 . S
C2173 H2166 0.950 . S
C2173 C2170 1.387 . S
C2174 C2175 1.387 . S
C2174 H2178 0.950 . S
C2174 C2183 1.390 . S
C2175 C2174 1.387 . S
C2175 C2177 1.387 . S
H2176 C2183 0.950 . S
C2177 C2175 1.387 . S
C2177 C2179 1.390 . S
C2177 H2181 0.950 . S
H2178 C2174 0.950 . S
C2179 C2177 1.390 . S
C2179 C2180 1.387 . S
C2179 H2182 0.950 . S
C2180 C2179 1.387 . S
C2180 C2183 1.387 . S
H2181 C2177 0.950 . S
H2182 C2179 0.950 . S
C2183 C2174 1.390 . S
C2183 H2176 0.950 . S
C2183 C2180 1.387 . S
C2184 C2185 1.387 . S
C2184 H2188 0.950 . S
C2184 C2193 1.390 . S
C2185 C2184 1.387 . S
C2185 C2187 1.387 . S
H2186 C2193 0.950 . S
C2187 C2185 1.387 . S
C2187 C2189 1.390 . S
C2187 H2191 0.950 . S
H2188 C2184 0.950 . S
C2189 C2187 1.390 . S
C2189 C2190 1.387 . S
C2189 H2192 0.950 . S
C2190 C2189 1.387 . S
C2190 C2193 1.387 . S
H2191 C2187 0.950 . S
H2192 C2189 0.950 . S
C2193 C2184 1.390 . S
C2193 H2186 0.950 . S
C2193 C2190 1.387 . S
C2194 C2195 1.387 . S
C2194 H2198 0.950 . S
C2194 C2203 1.390 . S
C2195 C2194 1.387 . S
C2195 C2197 1.387 . S
H2196 C2203 0.950 . S
C2197 C2195 1.387 . S
C2197 C2199 1.390 . S
C2197 H2201 0.950 . S
H2198 C2194 0.950 . S
C2199 C2197 1.390 . S
C2199 C2200 1.387 . S
C2199 H2202 0.950 . S
C2200 C2199 1.387 . S
C2200 C2203 1.387 . S
H2201 C2197 0.950 . S
H2202 C2199 0.950 . S
C2203 C2194 1.390 . S
C2203 H2196 0.950 . S
C2203 C2200 1.387 . S
C2204 C2205 1.387 . S
C2204 H2208 0.950 . S
C2204 C2213 1.390 . S
C2205 C2204 1.387 . S
C2205 C2207 1.387 . S
H2206 C2213 0.950 . S
C2207 C2205 1.387 . S
C2207 C2209 1.390 . S
C2207 H2211 0.950 . S
H2208 C2204 0.950 . S
C2209 C2207 1.390 . S
C2209 C2210 1.387 . S
C2209 H2212 0.950 . S
C2210 C2209 1.387 . S
C2210 C2213 1.387 . S
H2211 C2207 0.950 . S
H2212 C2209 0.950 . S
C2213 C2204 1.390 . S
C2213 H2206 0.950 . S
C2213 C2210 1.387 . S
C2214 C2215 1.387 . S
C2214 H2218 0.950 . S
C2214 C2223 1.390 . S
C2215 C2214 1.387 . S
C2215 C2217 1.387 . S
H2216 C2223 0.950 . S
C2217 C2215 1.387 . S
C2217 C2219 1.390 . S
C2217 H2221 0.950 . S
H2218 C2214 0.950 . S
C2219 C2217 1.390 . S
C2219 C2220 1.387 . S
C2219 H2222 0.950 . S
C2220 C2219 1.387 . S
C2220 C2223 1.387 . S
H2221 C2217 0.950 . S
H2222 C2219 0.950 . S
C2223 C2214 1.390 . S
C2223 H2216 0.950 . S
C2223 C2220 1.387 . S
C2224 C2225 1.387 . S
C2224 H2228 0.950 . S
C2224 C2233 1.390 . S
C2225 C2224 1.387 . S
C2225 C2227 1.387 . S
H2226 C2233 0.950 . S
C2227 C2225 1.387 . S
C2227 C2229 1.390 . S
C2227 H2231 0.950 . S
H2228 C2224 0.950 . S
C2229 C2227 1.390 . S
C2229 C2230 1.387 . S
C2229 H2232 0.950 . S
C2230 C2229 1.387 . S
C2230 C2233 1.387 . S
H2231 C2227 0.950 . S
H2232 C2229 0.950 . S
C2233 C2224 1.390 . S
C2233 H2226 0.950 . S
C2233 C2230 1.387 . S
C2234 C2235 1.387 . S
C2234 H2238 0.950 . S
C2234 C2243 1.390 . S
C2235 C2234 1.387 . S
C2235 C2237 1.387 . S
H2236 C2243 0.950 . S
C2237 C2235 1.387 . S
C2237 C2239 1.390 . S
C2237 H2241 0.950 . S
H2238 C2234 0.950 . S
C2239 C2237 1.390 . S
C2239 C2240 1.387 . S
C2239 H2242 0.950 . S
C2240 C2239 1.387 . S
C2240 C2243 1.387 . S
H2241 C2237 0.950 . S
H2242 C2239 0.950 . S
C2243 C2234 1.390 . S
C2243 H2236 0.950 . S
C2243 C2240 1.387 . S
C2244 C2245 1.387 . S
C2244 H2248 0.950 . S
C2244 C2253 1.390 . S
C2245 C2244 1.387 . S
C2245 C2247 1.387 . S
H2246 C2253 0.950 . S
C2247 C2245 1.387 . S
C2247 C2249 1.390 . S
C2247 H2251 0.950 . S
H2248 C2244 0.950 . S
C2249 C2247 1.390 . S
C2249 C2250 1.387 . S
C2249 H2252 0.950 . S
C2250 C2249 1.387 . S
C2250 C2253 1.387 . S
H2251 C2247 0.950 . S
H2252 C2249 0.950 . S
C2253 C2244 1.390 . S
C2253 H2246 0.950 . S
C2253 C2250 1.387 . S
C2254 C2255 1.387 . S
C2254 H2258 0.950 . S
C2254 C2263 1.390 . S
C2255 C2254 1.387 . S
C2255 C2257 1.387 . S
H2256 C2263 0.950 . S
C2257 C2255 1.387 . S
C2257 C2259 1.390 . S
C2257 H2261 0.950 . S
H2258 C2254 0.950 . S
C2259 C2257 1.390 . S
C2259 C2260 1.387 . S
C2259 H2262 0.950 . S
C2260 C2259 1.387 . S
C2260 C2263 1.387 . S
H2261 C2257 0.950 . S
H2262 C2259 0.950 . S
C2263 C2254 1.390 . S
C2263 H2256 0.950 . S
C2263 C2260 1.387 . S
C2264 C2265 1.387 . S
C2264 H2268 0.950 . S
C2264 C2273 1.390 . S
C2265 C2264 1.387 . S
C2265 C2267 1.387 . S
H2266 C2273 0.950 . S
C2267 C2265 1.387 . S
C2267 C2269 1.390 . S
C2267 H2271 0.950 . S
H2268 C2264 0.950 . S
C2269 C2267 1.390 . S
C2269 C2270 1.387 . S
C2269 H2272 0.950 . S
C2270 C2269 1.387 . S
C2270 C2273 1.387 . S
H2271 C2267 0.950 . S
H2272 C2269 0.950 . S
C2273 C2264 1.390 . S
C2273 H2266 0.950 . S
C2273 C2270 1.387 . S
C2274 C2275 1.387 . S
C2274 H2278 0.950 . S
C2274 C2283 1.390 . S
C2275 C2274 1.387 . S
C2275 C2277 1.387 . S
H2276 C2283 0.950 . S
C2277 C2275 1.387 . S
C2277 C2279 1.390 . S
C2277 H2281 0.950 . S
H2278 C2274 0.950 . S
C2279 C2277 1.390 . S
C2279 C2280 1.387 . S
C2279 H2282 0.950 . S
C2280 C2279 1.387 . S
C2280 C2283 1.387 . S
H2281 C2277 0.950 . S
H2282 C2279 0.950 . S
C2283 C2274 1.390 . S
C2283 H2276 0.950 . S
C2283 C2280 1.387 . S
C2284 C2285 1.387 . S
C2284 H2288 0.950 . S
C2284 C2293 1.390 . S
C2285 C2284 1.387 . S
C2285 C2287 1.387 . S
H2286 C2293 0.950 . S
C2287 C2285 1.387 . S
C2287 C2289 1.390 . S
C2287 H2291 0.950 . S
H2288 C2284 0.950 . S
C2289 C2287 1.390 . S
C2289 C2290 1.387 . S
C2289 H2292 0.950 . S
C2290 C2289 1.387 . S
C2290 C2293 1.387 . S
H2291 C2287 0.950 . S
H2292 C2289 0.950 . S
C2293 C2284 1.390 . S
C2293 H2286 0.950 . S
C2293 C2290 1.387 . S
C2294 C2295 1.387 . S
C2294 H2298 0.950 . S
C2294 C2303 1.390 . S
C2295 C2294 1.387 . S
C2295 C2297 1.387 . S
H2296 C2303 0.950 . S
C2297 C2295 1.387 . S
C2297 C2299 1.390 . S
C2297 H2301 0.950 . S
H2298 C2294 0.950 . S
C2299 C2297 1.390 . S
C2299 C2300 1.387 . S
C2299 H2302 0.950 . S
C2300 C2299 1.387 . S
C2300 C2303 1.387 . S
H2301 C2297 0.950 . S
H2302 C2299 0.950 . S
C2303 C2294 1.390 . S
C2303 H2296 0.950 . S
C2303 C2300 1.387 . S
C2304 C2305 1.387 . S
C2304 H2308 0.950 . S
C2304 C2313 1.390 . S
C2305 C2304 1.387 . S
C2305 C2307 1.387 . S
H2306 C2313 0.950 . S
C2307 C2305 1.387 . S
C2307 C2309 1.390 . S
C2307 H2311 0.950 . S
H2308 C2304 0.950 . S
C2309 C2307 1.390 . S
C2309 C2310 1.387 . S
C2309 H2312 0.950 . S
C2310 C2309 1.387 . S
C2310 C2313 1.387 . S
H2311 C2307 0.950 . S
H2312 C2309 0.950 . S
C2313 C2304 1.390 . S
C2313 H2306 0.950 . S
C2313 C2310 1.387 . S
C2314 C2315 1.387 . S
C2314 H2318 0.950 . S
C2314 C2323 1.390 . S
C2315 C2314 1.387 . S
C2315 C2317 1.387 . S
H2316 C2323 0.950 . S
C2317 C2315 1.387 . S
C2317 C2319 1.390 . S
C2317 H2321 0.950 . S
H2318 C2314 0.950 . S
C2319 C2317 1.390 . S
C2319 C2320 1.387 . S
C2319 H2322 0.950 . S
C2320 C2319 1.387 . S
C2320 C2323 1.387 . S
H2321 C2317 0.950 . S
H2322 C2319 0.950 . S
C2323 C2314 1.390 . S
C2323 H2316 0.950 . S
C2323 C2320 1.387 . S
C2324 C2325 1.387 . S
C2324 H2328 0.950 . S
C2324 C2333 1.390 . S
C2325 C2324 1.387 . S
C2325 C2327 1.387 . S
H2326 C2333 0.950 . S
C2327 C2325 1.387 . S
C2327 C2329 1.390 . S
C2327 H2331 0.950 . S
H2328 C2324 0.950 . S
C2329 C2327 1.390 . S
C2329 C2330 1.387 . S
C2329 H2332 0.950 . S
C2330 C2329 1.387 . S
C2330 C2333 1.387 . S
H2331 C2327 0.950 . S
H2332 C2329 0.950 . S
C2333 C2324 1.390 . S
C2333 H2326 0.950 . S
C2333 C2330 1.387 . S
C2334 C2335 1.387 . S
C2334 H2338 0.950 . S
C2334 C2343 1.390 . S
C2335 C2334 1.387 . S
C2335 C2337 1.387 . S
H2336 C2343 0.950 . S
C2337 C2335 1.387 . S
C2337 C2339 1.390 . S
C2337 H2341 0.950 . S
H2338 C2334 0.950 . S
C2339 C2337 1.390 . S
C2339 C2340 1.387 . S
C2339 H2342 0.950 . S
C2340 C2339 1.387 . S
C2340 C2343 1.387 . S
H2341 C2337 0.950 . S
H2342 C2339 0.950 . S
C2343 C2334 1.390 . S
C2343 H2336 0.950 . S
C2343 C2340 1.387 . S
C2344 C2345 1.387 . S
C2344 H2348 0.950 . S
C2344 C2353 1.390 . S
C2345 C2344 1.387 . S
C2345 C2347 1.387 . S
H2346 C2353 0.950 . S
C2347 C2345 1.387 . S
C2347 C2349 1.390 . S
C2347 H2351 0.950 . S
H2348 C2344 0.950 . S
C2349 C2347 1.390 . S
C2349 C2350 1.387 . S
C2349 H2352 0.950 . S
C2350 C2349 1.387 . S
C2350 C2353 1.387 . S
H2351 C2347 0.950 . S
H2352 C2349 0.950 . S
C2353 C2344 1.390 . S
C2353 H2346 0.950 . S
C2353 C2350 1.387 . S
C2354 C2355 1.387 . S
C2354 H2358 0.950 . S
C2354 C2363 1.390 . S
C2355 C2354 1.387 . S
C2355 C2357 1.387 . S
H2356 C2363 0.950 . S
C2357 C2355 1.387 . S
C2357 C2359 1.390 . S
C2357 H2361 0.950 . S
H2358 C2354 0.950 . S
C2359 C2357 1.390 . S
C2359 C2360 1.387 . S
C2359 H2362 0.950 . S
C2360 C2359 1.387 . S
C2360 C2363 1.387 . S
H2361 C2357 0.950 . S
H2362 C2359 0.950 . S
C2363 C2354 1.390 . S
C2363 H2356 0.950 . S
C2363 C2360 1.387 . S
C2364 C2365 1.387 . S
C2364 H2368 0.950 . S
C2364 C2373 1.390 . S
C2365 C2364 1.387 . S
C2365 C2367 1.387 . S
H2366 C2373 0.950 . S
C2367 C2365 1.387 . S
C2367 C2369 1.390 . S
C2367 H2371 0.950 . S
H2368 C2364 0.950 . S
C2369 C2367 1.390 . S
C2369 C2370 1.387 . S
C2369 H2372 0.950 . S
C2370 C2369 1.387 . S
C2370 C2373 1.387 . S
H2371 C2367 0.950 . S
H2372 C2369 0.950 . S
C2373 C2364 1.390 . S
C2373 H2366 0.950 . S
C2373 C2370 1.387 . S
C2374 C2375 1.387 . S
C2374 H2378 0.950 . S
C2374 C2383 1.390 . S
C2375 C2374 1.387 . S
C2375 C2377 1.387 . S
H2376 C2383 0.950 . S
C2377 C2375 1.387 . S
C2377 C2379 1.390 . S
C2377 H2381 0.950 . S
H2378 C2374 0.950 . S
C2379 C2377 1.390 . S
C2379 C2380 1.387 . S
C2379 H2382 0.950 . S
C2380 C2379 1.387 . S
C2380 C2383 1.387 . S
H2381 C2377 0.950 . S
H2382 C2379 0.950 . S
C2383 C2374 1.390 . S
C2383 H2376 0.950 . S
C2383 C2380 1.387 . S
C2384 C2385 1.387 . S
C2384 H2388 0.950 . S
C2384 C2393 1.390 . S
C2385 C2384 1.387 . S
C2385 C2387 1.387 . S
H2386 C2393 0.950 . S
C2387 C2385 1.387 . S
C2387 C2389 1.390 . S
C2387 H2391 0.950 . S
H2388 C2384 0.950 . S
C2389 C2387 1.390 . S
C2389 C2390 1.387 . S
C2389 H2392 0.950 . S
C2390 C2389 1.387 . S
C2390 C2393 1.387 . S
H2391 C2387 0.950 . S
H2392 C2389 0.950 . S
C2393 C2384 1.390 . S
C2393 H2386 0.950 . S
C2393 C2390 1.387 . S
C2394 C2395 1.387 . S
C2394 H2398 0.950 . S
C2394 C2403 1.390 . S
C2395 C2394 1.387 . S
C2395 C2397 1.387 . S
H2396 C2403 0.950 . S
C2397 C2395 1.387 . S
C2397 C2399 1.390 . S
C2397 H2401 0.950 . S
H2398 C2394 0.950 . S
C2399 C2397 1.390 . S
C2399 C2400 1.387 . S
C2399 H2402 0.950 . S
C2400 C2399 1.387 . S
C2400 C2403 1.387 . S
H2401 C2397 0.950 . S
H2402 C2399 0.950 . S
C2403 C2394 1.390 . S
C2403 H2396 0.950 . S
C2403 C2400 1.387 . S
C2404 C2405 1.387 . S
C2404 H2408 0.950 . S
C2404 C2413 1.390 . S
C2405 C2404 1.387 . S
C2405 C2407 1.387 . S
H2406 C2413 0.950 . S
C2407 C2405 1.387 . S
C2407 C2409 1.390 . S
C2407 H2411 0.950 . S
H2408 C2404 0.950 . S
C2409 C2407 1.390 . S
C2409 C2410 1.387 . S
C2409 H2412 0.950 . S
C2410 C2409 1.387 . S
C2410 C2413 1.387 . S
H2411 C2407 0.950 . S
H2412 C2409 0.950 . S
C2413 C2404 1.390 . S
C2413 H2406 0.950 . S
C2413 C2410 1.387 . S
C2414 C2415 1.387 . S
C2414 H2418 0.950 . S
C2414 C2423 1.390 . S
C2415 C2414 1.387 . S
C2415 C2417 1.387 . S
H2416 C2423 0.950 . S
C2417 C2415 1.387 . S
C2417 C2419 1.390 . S
C2417 H2421 0.950 . S
H2418 C2414 0.950 . S
C2419 C2417 1.390 . S
C2419 C2420 1.387 . S
C2419 H2422 0.950 . S
C2420 C2419 1.387 . S
C2420 C2423 1.387 . S
H2421 C2417 0.950 . S
H2422 C2419 0.950 . S
C2423 C2414 1.390 . S
C2423 H2416 0.950 . S
C2423 C2420 1.387 . S
C2424 C2425 1.387 . S
C2424 H2428 0.950 . S
C2424 C2433 1.390 . S
C2425 C2424 1.387 . S
C2425 C2427 1.387 . S
H2426 C2433 0.950 . S
C2427 C2425 1.387 . S
C2427 C2429 1.390 . S
C2427 H2431 0.950 . S
H2428 C2424 0.950 . S
C2429 C2427 1.390 . S
C2429 C2430 1.387 . S
C2429 H2432 0.950 . S
C2430 C2429 1.387 . S
C2430 C2433 1.387 . S
H2431 C2427 0.950 . S
H2432 C2429 0.950 . S
C2433 C2424 1.390 . S
C2433 H2426 0.950 . S
C2433 C2430 1.387 . S
C2434 C2435 1.387 . S
C2434 H2438 0.950 . S
C2434 C2443 1.390 . S
C2435 C2434 1.387 . S
C2435 C2437 1.387 . S
H2436 C2443 0.950 . S
C2437 C2435 1.387 . S
C2437 C2439 1.390 . S
C2437 H2441 0.950 . S
H2438 C2434 0.950 . S
C2439 C2437 1.390 . S
C2439 C2440 1.387 . S
C2439 H2442 0.950 . S
C2440 C2439 1.387 . S
C2440 C2443 1.387 . S
H2441 C2437 0.950 . S
H2442 C2439 0.950 . S
C2443 C2434 1.390 . S
C2443 H2436 0.950 . S
C2443 C2440 1.387 . S
C2444 C2445 1.387 . S
C2444 H2448 0.950 . S
C2444 C2453 1.390 . S
C2445 C2444 1.387 . S
C2445 C2447 1.387 . S
H2446 C2453 0.950 . S
C2447 C2445 1.387 . S
C2447 C2449 1.390 . S
C2447 H2451 0.950 . S
H2448 C2444 0.950 . S
C2449 C2447 1.390 . S
C2449 C2450 1.387 . S
C2449 H2452 0.950 . S
C2450 C2449 1.387 . S
C2450 C2453 1.387 . S
H2451 C2447 0.950 . S
H2452 C2449 0.950 . S
C2453 C2444 1.390 . S
C2453 H2446 0.950 . S
C2453 C2450 1.387 . S
C2454 C2455 1.387 . S
C2454 H2458 0.950 . S
C2454 C2463 1.390 . S
C2455 C2454 1.387 . S
C2455 C2457 1.387 . S
H2456 C2463 0.950 . S
C2457 C2455 1.387 . S
C2457 C2459 1.390 . S
C2457 H2461 0.950 . S
H2458 C2454 0.950 . S
C2459 C2457 1.390 . S
C2459 C2460 1.387 . S
C2459 H2462 0.950 . S
C2460 C2459 1.387 . S
C2460 C2463 1.387 . S
H2461 C2457 0.950 . S
H2462 C2459 0.950 . S
C2463 C2454 1.390 . S
C2463 H2456 0.950 . S
C2463 C2460 1.387 . S
C2464 C2465 1.387 . S
C2464 H2468 0.950 . S
C2464 C2473 1.390 . S
C2465 C2464 1.387 . S
C2465 C2467 1.387 . S
H2466 C2473 0.950 . S
C2467 C2465 1.387 . S
C2467 C2469 1.390 . S
C2467 H2471 0.950 . S
H2468 C2464 0.950 . S
C2469 C2467 1.390 . S
C2469 C2470 1.387 . S
C2469 H2472 0.950 . S
C2470 C2469 1.387 . S
C2470 C2473 1.387 . S
H2471 C2467 0.950 . S
H2472 C2469 0.950 . S
C2473 C2464 1.390 . S
C2473 H2466 0.950 . S
C2473 C2470 1.387 . S
C2474 C2475 1.387 . S
C2474 H2478 0.950 . S
C2474 C2483 1.390 . S
C2475 C2474 1.387 . S
C2475 C2477 1.387 . S
H2476 C2483 0.950 . S
C2477 C2475 1.387 . S
C2477 C2479 1.390 . S
C2477 H2481 0.950 . S
H2478 C2474 0.950 . S
C2479 C2477 1.390 . S
C2479 C2480 1.387 . S
C2479 H2482 0.950 . S
C2480 C2479 1.387 . S
C2480 C2483 1.387 . S
H2481 C2477 0.950 . S
H2482 C2479 0.950 . S
C2483 C2474 1.390 . S
C2483 H2476 0.950 . S
C2483 C2480 1.387 . S
C2484 C2485 1.387 . S
C2484 H2488 0.950 . S
C2484 C2493 1.390 . S
C2485 C2484 1.387 . S
C2485 C2487 1.387 . S
H2486 C2493 0.950 . S
C2487 C2485 1.387 . S
C2487 C2489 1.390 . S
C2487 H2491 0.950 . S
H2488 C2484 0.950 . S
C2489 C2487 1.390 . S
C2489 C2490 1.387 . S
C2489 H2492 0.950 . S
C2490 C2489 1.387 . S
C2490 C2493 1.387 . S
H2491 C2487 0.950 . S
H2492 C2489 0.950 . S
C2493 C2484 1.390 . S
C2493 H2486 0.950 . S
C2493 C2490 1.387 . S
C2494 C2495 1.387 . S
C2494 H2498 0.950 . S
C2494 C2503 1.390 . S
C2495 C2494 1.387 . S
C2495 C2497 1.387 . S
H2496 C2503 0.950 . S
C2497 C2495 1.387 . S
C2497 C2499 1.390 . S
C2497 H2501 0.950 . S
H2498 C2494 0.950 . S
C2499 C2497 1.390 . S
C2499 C2500 1.387 . S
C2499 H2502 0.950 . S
C2500 C2499 1.387 . S
C2500 C2503 1.387 . S
H2501 C2497 0.950 . S
H2502 C2499 0.950 . S
C2503 C2494 1.390 . S
C2503 H2496 0.950 . S
C2503 C2500 1.387 . S
C2504 C2505 1.387 . S
C2504 H2508 0.950 . S
C2504 C2513 1.390 . S
C2505 C2504 1.387 . S
C2505 C2507 1.387 . S
H2506 C2513 0.950 . S
C2507 C2505 1.387 . S
C2507 C2509 1.390 . S
C2507 H2511 0.950 . S
H2508 C2504 0.950 . S
C2509 C2507 1.390 . S
C2509 C2510 1.387 . S
C2509 H2512 0.950 . S
C2510 C2509 1.387 . S
C2510 C2513 1.387 . S
H2511 C2507 0.950 . S
H2512 C2509 0.950 . S
C2513 C2504 1.390 . S
C2513 H2506 0.950 . S
C2513 C2510 1.387 . S
C2514 C2515 1.387 . S
C2514 H2518 0.950 . S
C2514 C2523 1.390 . S
C2515 C2514 1.387 . S
C2515 C2517 1.387 . S
H2516 C2523 0.950 . S
C2517 C2515 1.387 . S
C2517 C2519 1.390 . S
C2517 H2521 0.950 . S
H2518 C2514 0.950 . S
C2519 C2517 1.390 . S
C2519 C2520 1.387 . S
C2519 H2522 0.950 . S
C2520 C2519 1.387 . S
C2520 C2523 1.387 . S
H2521 C2517 0.950 . S
H2522 C2519 0.950 . S
C2523 C2514 1.390 . S
C2523 H2516 0.950 . S
C2523 C2520 1.387 . S
C2524 C2525 1.387 . S
C2524 H2528 0.950 . S
C2524 C2533 1.390 . S
C2525 C2524 1.387 . S
C2525 C2527 1.387 . S
H2526 C2533 0.950 . S
C2527 C2525 1.387 . S
C2527 C2529 1.390 . S
C2527 H2531 0.950 . S
H2528 C2524 0.950 . S
C2529 C2527 1.390 . S
C2529 C2530 1.387 . S
C2529 H2532 0.950 . S
C2530 C2529 1.387 . S
C2530 C2533 1.387 . S
H2531 C2527 0.950 . S
H2532 C2529 0.950 . S
C2533 C2524 1.390 . S
C2533 H2526 0.950 . S
C2533 C2530 1.387 . S
C2534 C2535 1.387 . S
C2534 H2538 0.950 . S
C2534 C2543 1.390 . S
C2535 C2534 1.387 . S
C2535 C2537 1.387 . S
H2536 C2543 0.950 . S
C2537 C2535 1.387 . S
C2537 C2539 1.390 . S
C2537 H2541 0.950 . S
H2538 C2534 0.950 . S
C2539 C2537 1.390 . S
C2539 C2540 1.387 . S
C2539 H2542 0.950 . S
C2540 C2539 1.387 . S
C2540 C2543 1.387 . S
H2541 C2537 0.950 . S
H2542 C2539 0.950 . S
C2543 C2534 1.390 . S
C2543 H2536 0.950 . S
C2543 C2540 1.387 . S
C1105 C157 1.732 . S
C1110 C19 1.733 . S
C1115 C180 1.728 . S
C1120 C41 1.786 . S
C1125 C111 1.732 . S
C1130 C65 1.732 . S
C1135 C134 1.724 . S
C1140 C87 1.782 . S
C1145 C248 1.789 . S
C1150 C203 1.731 . S
C1155 C272 1.721 . S
C1160 C226 1.721 . S
C1165 C341 1.729 . S
C1170 C295 1.729 . S
C1175 C364 1.719 . S
C1180 C318 1.719 . S
C1185 C410 1.718 . S
C1190 C387 1.718 . S
C1195 C548 1.728 . S
C1200 C433 1.729 . S
C1205 C502 1.716 . S
C1210 C456 1.716 . S
C1215 C479 1.736 . S
C1220 C525 1.736 . S
C1225 C571 1.733 . S
C1230 C709 1.732 . S
C1235 C593 1.786 . S
C1240 C732 1.730 . S
C1245 C617 1.734 . S
C1250 C663 1.734 . S
C1255 C639 1.783 . S
C1260 C686 1.727 . S
C1265 C755 1.734 . S
C1270 C800 1.790 . S
C1275 C778 1.718 . S
C1280 C824 1.718 . S
C1285 C847 1.727 . S
C1290 C893 1.727 . S
C1295 C916 1.716 . S
C1300 C870 1.716 . S
C1305 C939 1.715 . S
C1310 C962 1.715 . S
C1315 C1100 1.728 . S
C1320 C985 1.729 . S
C1325 C1008 1.713 . S
C1330 C1054 1.713 . S
C1335 C1031 1.736 . S
C1340 C1077 1.736 . S
C1345 C20 1.700 . S
C1350 C227 1.700 . S
C1355 C44 1.686 . S
C1360 C251 1.686 . S
C1365 C66 1.700 . S
C1370 C273 1.700 . S
C1375 C204 1.728 . S
C1380 C90 1.674 . S
C1385 C365 1.730 . S
C1390 C112 1.730 . S
C1395 C296 1.708 . S
C1400 C135 1.708 . S
C1405 C319 1.725 . S
C1410 C158 1.725 . S
C1415 C181 1.713 . S
C1420 C342 1.713 . S
C1425 C434 1.728 . S
C1430 C388 1.727 . S
C1435 C526 1.721 . S
C1440 C411 1.721 . S
C1445 C457 1.713 . S
C1450 C549 1.713 . S
C1455 C503 1.719 . S
C1460 C480 1.719 . S
C1465 C572 1.701 . S
C1470 C779 1.701 . S
C1475 C803 1.686 . S
C1480 C596 1.686 . S
C1485 C825 1.699 . S
C1490 C618 1.699 . S
C1495 C642 1.673 . S
C1500 C756 1.728 . S
C1505 C917 1.731 . S
C1510 C664 1.731 . S
C1515 C687 1.708 . S
C1520 C848 1.708 . S
C1525 C710 1.724 . S
C1530 C871 1.724 . S
C1535 C733 1.713 . S
C1540 C894 1.713 . S
C1545 C940 1.727 . S
C1550 C986 1.728 . S
C1555 C1078 1.721 . S
C1560 C963 1.722 . S
C1565 C1101 1.713 . S
C1570 C1009 1.713 . S
C1575 C1032 1.719 . S
C1580 C1055 1.719 . S
C1585 C16 1.487 . S
C1590 C89 1.450 . S
C1595 C21 1.423 . S
C1600 C40 1.496 . S
C1605 C62 1.493 . S
C1610 C43 1.458 . S
C1615 C86 1.493 . S
C1620 C67 1.420 . S
C1625 C136 1.429 . S
C1630 C108 1.513 . S
C1635 C159 1.422 . S
C1640 C131 1.505 . S
C1645 C154 1.516 . S
C1650 C182 1.433 . S
C1655 C113 1.423 . S
C1660 C177 1.505 . S
C1665 C200 1.509 . S
C1670 C435 1.426 . S
C1675 C223 1.493 . S
C1680 C458 1.412 . S
C1685 C247 1.500 . S
C1690 C481 1.423 . S
C1695 C269 1.494 . S
C1700 C412 1.414 . S
C1705 C292 1.502 . S
C1710 C527 1.422 . S
C1715 C389 1.413 . S
C1720 C315 1.494 . S
C1725 C550 1.417 . S
C1730 C338 1.500 . S
C1735 C361 1.491 . S
C1740 C504 1.409 . S
C1745 C384 1.499 . S
C1750 C228 1.416 . S
C1755 C407 1.494 . S
C1760 C366 1.414 . S
C1765 C430 1.500 . S
C1770 C297 1.418 . S
C1775 C320 1.415 . S
C1780 C453 1.496 . S
C1785 C343 1.423 . S
C1790 C476 1.506 . S
C1795 C274 1.412 . S
C1800 C499 1.494 . S
C1805 C205 1.432 . S
C1810 C522 1.518 . S
C1815 C545 1.486 . S
C1820 C250 1.449 . S
C1825 C568 1.488 . S
C1830 C641 1.453 . S
C1835 C592 1.498 . S
C1840 C573 1.426 . S
C1845 C595 1.458 . S
C1850 C614 1.493 . S
C1855 C619 1.420 . S
C1860 C638 1.493 . S
C1865 C660 1.513 . S
C1870 C688 1.429 . S
C1875 C711 1.421 . S
C1880 C683 1.503 . S
C1885 C734 1.433 . S
C1890 C706 1.516 . S
C1895 C729 1.505 . S
C1900 C665 1.423 . S
C1905 C752 1.509 . S
C1910 C987 1.426 . S
C1915 C1010 1.410 . S
C1920 C775 1.492 . S
C1925 C1033 1.427 . S
C1930 C799 1.500 . S
C1935 C821 1.495 . S
C1940 C964 1.412 . S
C1945 C1079 1.419 . S
C1950 C844 1.502 . S
C1955 C867 1.494 . S
C1960 C941 1.413 . S
C1965 C890 1.501 . S
C1970 C1102 1.421 . S
C1975 C913 1.492 . S
C1980 C1056 1.412 . S
C1985 C780 1.416 . S
C1990 C936 1.499 . S
C1995 C918 1.413 . S
C2000 C959 1.495 . S
C2005 C849 1.418 . S
C2010 C982 1.500 . S
C2015 C1005 1.495 . S
C2020 C872 1.413 . S
C2025 C895 1.424 . S
C2030 C1028 1.505 . S
C2035 C1051 1.495 . S
C2040 C826 1.415 . S
C2045 C1074 1.518 . S
C2050 C757 1.432 . S
C2055 C802 1.449 . S
C2060 C1097 1.487 . S
C2065 C18 1.165 . S
C2070 C1030 1.163 . S
C2075 C961 1.146 . S
C2080 C42 1.122 . S
C2085 C64 1.157 . S
C2090 C984 1.158 . S
C2095 C88 1.121 . S
C2100 C1007 1.144 . S
C2105 C110 1.153 . S
C2110 C1099 1.156 . S
C2115 C133 1.150 . S
C2120 C1053 1.152 . S
C2125 C156 1.150 . S
C2130 C1076 1.152 . S
C2135 C179 1.148 . S
C2140 C938 1.149 . S
C2145 C202 1.147 . S
C2150 C915 1.151 . S
C2155 C225 1.158 . S
C2160 C846 1.156 . S
C2165 C249 1.120 . S
C2170 C869 1.144 . S
C2175 C271 1.154 . S
C2180 C892 1.157 . S
C2185 C294 1.155 . S
C2190 C777 1.158 . S
C2195 C317 1.145 . S
C2200 C801 1.118 . S
C2205 C340 1.156 . S
C2210 C823 1.158 . S
C2215 C363 1.147 . S
C2220 C754 1.147 . S
C2225 C386 1.146 . S
C2230 C731 1.144 . S
C2235 C409 1.150 . S
C2240 C594 1.121 . S
C2245 C432 1.160 . S
C2250 C616 1.162 . S
C2255 C455 1.145 . S
C2260 C640 1.118 . S
C2265 C478 1.160 . S
C2270 C570 1.161 . S
C2275 C501 1.151 . S
C2280 C685 1.147 . S
C2285 C524 1.151 . S
C2290 C708 1.154 . S
C2295 C547 1.156 . S
C2300 C662 1.152 . S
C2305 C109 1.084 . S
C2310 C983 1.086 . S
C2315 C132 1.085 . S
C2320 C1006 1.086 . S
C2325 C155 1.091 . S
C2330 C1029 1.088 . S
C2335 C178 1.084 . S
C2340 C960 1.081 . S
C2345 C17 1.085 . S
C2350 C1075 1.089 . S
C2355 C39 1.119 . S
C2360 C937 1.124 . S
C2365 C63 1.084 . S
C2370 C1098 1.082 . S
C2375 C1052 1.116 . S
C2380 C85 1.114 . S
C2385 C339 1.084 . S
C2390 C776 1.086 . S
C2395 C362 1.119 . S
C2400 C798 1.119 . S
C2405 C293 1.088 . S
C2410 C822 1.087 . S
C2415 C316 1.087 . S
C2420 C753 1.086 . S
C2425 C246 1.120 . S
C2430 C914 1.119 . S
C2435 C270 1.085 . S
C2440 C845 1.088 . S
C2445 C201 1.089 . S
C2450 C868 1.087 . S
C2455 C224 1.086 . S
C2460 C891 1.084 . S
C2465 C500 1.119 . S
C2470 C637 1.118 . S
C2475 C454 1.084 . S
C2480 C684 1.085 . S
C2485 C477 1.088 . S
C2490 C707 1.092 . S
C2495 C408 1.083 . S
C2500 C730 1.086 . S
C2505 C431 1.082 . S
C2510 C661 1.085 . S
C2515 C385 1.124 . S
C2520 C591 1.123 . S
C2525 C546 1.086 . S
C2530 C615 1.084 . S
C2535 C523 1.086 . S
C2540 C569 1.088 . S
