# Generated by pormake.
# Topology whv, (6)-cn, num edge types: 1
# Building blocks:
#     Node 0, Type 0, BuildingBlock: IZENUY_clean_sbu_0, # of connection points: 6
#     Node 1, Type 0, BuildingBlock: IZENUY_clean_sbu_0, # of connection points: 6
#     Node 2, Type 0, BuildingBlock: IZENUY_clean_sbu_0, # of connection points: 6
#     Node 3, Type 0, BuildingBlock: IZENUY_clean_sbu_0, # of connection points: 6
#     Node 4, Type 0, BuildingBlock: IZENUY_clean_sbu_0, # of connection points: 6
#     Node 5, Type 0, BuildingBlock: IZENUY_clean_sbu_0, # of connection points: 6
#     Node 6, Type 0, BuildingBlock: IZENUY_clean_sbu_0, # of connection points: 6
#     Node 7, Type 0, BuildingBlock: IZENUY_clean_sbu_0, # of connection points: 6
#     Node 8, Type 0, BuildingBlock: IZENUY_clean_sbu_0, # of connection points: 6
#     Node 9, Type 0, BuildingBlock: IZENUY_clean_sbu_0, # of connection points: 6
#     Node 10, Type 0, BuildingBlock: IZENUY_clean_sbu_0, # of connection points: 6
#     Node 11, Type 0, BuildingBlock: IZENUY_clean_sbu_0, # of connection points: 6
#     Node 12, Type 0, BuildingBlock: IZENUY_clean_sbu_0, # of connection points: 6
#     Node 13, Type 0, BuildingBlock: IZENUY_clean_sbu_0, # of connection points: 6
#     Node 14, Type 0, BuildingBlock: IZENUY_clean_sbu_0, # of connection points: 6
#     Node 15, Type 0, BuildingBlock: IZENUY_clean_sbu_0, # of connection points: 6
#     Edge 16, Type (0, 0), BuildingBlock: CIFDUS_clean_linker_0, # of connection points: 2
#     Edge 17, Type (0, 0), BuildingBlock: CIFDUS_clean_linker_0, # of connection points: 2
#     Edge 18, Type (0, 0), BuildingBlock: CIFDUS_clean_linker_0, # of connection points: 2
#     Edge 19, Type (0, 0), BuildingBlock: CIFDUS_clean_linker_0, # of connection points: 2
#     Edge 20, Type (0, 0), BuildingBlock: CIFDUS_clean_linker_0, # of connection points: 2
#     Edge 21, Type (0, 0), BuildingBlock: CIFDUS_clean_linker_0, # of connection points: 2
#     Edge 22, Type (0, 0), BuildingBlock: CIFDUS_clean_linker_0, # of connection points: 2
#     Edge 23, Type (0, 0), BuildingBlock: CIFDUS_clean_linker_0, # of connection points: 2
#     Edge 24, Type (0, 0), BuildingBlock: CIFDUS_clean_linker_0, # of connection points: 2
#     Edge 25, Type (0, 0), BuildingBlock: CIFDUS_clean_linker_0, # of connection points: 2
#     Edge 26, Type (0, 0), BuildingBlock: CIFDUS_clean_linker_0, # of connection points: 2
#     Edge 27, Type (0, 0), BuildingBlock: CIFDUS_clean_linker_0, # of connection points: 2
#     Edge 28, Type (0, 0), BuildingBlock: CIFDUS_clean_linker_0, # of connection points: 2
#     Edge 29, Type (0, 0), BuildingBlock: CIFDUS_clean_linker_0, # of connection points: 2
#     Edge 30, Type (0, 0), BuildingBlock: CIFDUS_clean_linker_0, # of connection points: 2
#     Edge 31, Type (0, 0), BuildingBlock: CIFDUS_clean_linker_0, # of connection points: 2
#     Edge 32, Type (0, 0), BuildingBlock: CIFDUS_clean_linker_0, # of connection points: 2
#     Edge 33, Type (0, 0), BuildingBlock: CIFDUS_clean_linker_0, # of connection points: 2
#     Edge 34, Type (0, 0), BuildingBlock: CIFDUS_clean_linker_0, # of connection points: 2
#     Edge 35, Type (0, 0), BuildingBlock: CIFDUS_clean_linker_0, # of connection points: 2
#     Edge 36, Type (0, 0), BuildingBlock: CIFDUS_clean_linker_0, # of connection points: 2
#     Edge 37, Type (0, 0), BuildingBlock: CIFDUS_clean_linker_0, # of connection points: 2
#     Edge 38, Type (0, 0), BuildingBlock: CIFDUS_clean_linker_0, # of connection points: 2
#     Edge 39, Type (0, 0), BuildingBlock: CIFDUS_clean_linker_0, # of connection points: 2
#     Edge 40, Type (0, 0), BuildingBlock: CIFDUS_clean_linker_0, # of connection points: 2
#     Edge 41, Type (0, 0), BuildingBlock: CIFDUS_clean_linker_0, # of connection points: 2
#     Edge 42, Type (0, 0), BuildingBlock: CIFDUS_clean_linker_0, # of connection points: 2
#     Edge 43, Type (0, 0), BuildingBlock: CIFDUS_clean_linker_0, # of connection points: 2
#     Edge 44, Type (0, 0), BuildingBlock: CIFDUS_clean_linker_0, # of connection points: 2
#     Edge 45, Type (0, 0), BuildingBlock: CIFDUS_clean_linker_0, # of connection points: 2
#     Edge 46, Type (0, 0), BuildingBlock: CIFDUS_clean_linker_0, # of connection points: 2
#     Edge 47, Type (0, 0), BuildingBlock: CIFDUS_clean_linker_0, # of connection points: 2
#     Edge 48, Type (0, 0), BuildingBlock: CIFDUS_clean_linker_0, # of connection points: 2
#     Edge 49, Type (0, 0), BuildingBlock: CIFDUS_clean_linker_0, # of connection points: 2
#     Edge 50, Type (0, 0), BuildingBlock: CIFDUS_clean_linker_0, # of connection points: 2
#     Edge 51, Type (0, 0), BuildingBlock: CIFDUS_clean_linker_0, # of connection points: 2
#     Edge 52, Type (0, 0), BuildingBlock: CIFDUS_clean_linker_0, # of connection points: 2
#     Edge 53, Type (0, 0), BuildingBlock: CIFDUS_clean_linker_0, # of connection points: 2
#     Edge 54, Type (0, 0), BuildingBlock: CIFDUS_clean_linker_0, # of connection points: 2
#     Edge 55, Type (0, 0), BuildingBlock: CIFDUS_clean_linker_0, # of connection points: 2
#     Edge 56, Type (0, 0), BuildingBlock: CIFDUS_clean_linker_0, # of connection points: 2
#     Edge 57, Type (0, 0), BuildingBlock: CIFDUS_clean_linker_0, # of connection points: 2
#     Edge 58, Type (0, 0), BuildingBlock: CIFDUS_clean_linker_0, # of connection points: 2
#     Edge 59, Type (0, 0), BuildingBlock: CIFDUS_clean_linker_0, # of connection points: 2
#     Edge 60, Type (0, 0), BuildingBlock: CIFDUS_clean_linker_0, # of connection points: 2
#     Edge 61, Type (0, 0), BuildingBlock: CIFDUS_clean_linker_0, # of connection points: 2
#     Edge 62, Type (0, 0), BuildingBlock: CIFDUS_clean_linker_0, # of connection points: 2
#     Edge 63, Type (0, 0), BuildingBlock: CIFDUS_clean_linker_0, # of connection points: 2
# Relax obj value: 0.237
# Max RMSD: 0.246
# Mean RMSD: 0.246
data_MOF--net-whv--node1-IZENUY_clean_sbu_0--edge1-CIFDUS_clean_linker_0
_symmetry_space_group_name_H-M    P1
_symmetry_Int_Tables_number       1
_symmetry_cell_setting            triclinic
loop_
_symmetry_equiv_pos_as_xyz
'x, y, z'
_cell_length_a     44.329397
_cell_length_b     44.215908
_cell_length_c     22.764913
_cell_angle_alpha  90.135665
_cell_angle_beta   90.145953
_cell_angle_gamma 89.967211
loop_
_atom_site_label
_atom_site_type_symbol
_atom_site_fract_x
_atom_site_fract_y
_atom_site_fract_z
_atom_type_partial_charge
Fe0 Fe 0.30395 0.23526 0.04365 0.0
Fe1 Fe 0.33149 0.17604 1.00114 0.0
O2 O 0.33324 0.20816 0.04667 0.0
Fe3 Fe 0.3642 0.21385 0.09447 0.0
O4 O 0.37394 0.24821 0.05638 0.0
O5 O 0.32867 0.26777 0.06167 0.0
O6 O 0.3123 0.24328 0.9685 0.0
C7 C 0.31015 0.22412 0.92801 0.0
C8 C 0.31282 0.23399 0.16065 0.0
O9 O 0.31238 0.19599 0.93924 0.0
C10 C 0.35496 0.15365 0.1098 0.0
O11 O 0.27387 0.20786 0.02218 0.0
O12 O 0.29654 0.16463 0.0341 0.0
O13 O 0.34124 0.23401 0.15104 0.0
O14 O 0.29455 0.22873 0.1194 0.0
C15 C 0.39123 0.18786 0.99221 0.0
O16 O 0.35018 0.15097 0.0549 0.0
O17 O 0.35666 0.1793 0.13395 0.0
C18 C 0.27274 0.17919 0.02528 0.0
O19 O 0.36642 0.18532 0.96588 0.0
O20 O 0.39217 0.1946 0.04654 0.0
C21 C 0.35642 0.27024 0.04898 0.0
Fe22 Fe 0.54966 0.55461 0.29612 0.0
Fe23 Fe 0.61006 0.57887 0.25281 0.0
O24 O 0.57805 0.58259 0.29815 0.0
Fe25 Fe 0.57361 0.6144 0.34468 0.0
O26 O 0.53968 0.62536 0.30597 0.0
O27 O 0.51836 0.58093 0.31254 0.0
O28 O 0.54217 0.56223 0.22038 0.0
C29 C 0.56121 0.55871 0.18028 0.0
C30 C 0.5514 0.56462 0.41266 0.0
O31 O 0.58934 0.55999 0.19162 0.0
C32 C 0.63335 0.60285 0.36088 0.0
O33 O 0.57537 0.52297 0.27772 0.0
O34 O 0.62015 0.5433 0.28594 0.0
O35 O 0.55258 0.59298 0.40223 0.0
O36 O 0.55577 0.54584 0.37204 0.0
C37 C 0.60048 0.63935 0.24173 0.0
O38 O 0.63586 0.59695 0.30634 0.0
O39 O 0.60781 0.60582 0.38465 0.0
C40 C 0.60378 0.52021 0.28195 0.0
O41 O 0.60246 0.61415 0.21634 0.0
O42 O 0.59382 0.64104 0.2959 0.0
C43 C 0.51696 0.60872 0.29928 0.0
Fe44 Fe 0.23322 0.80349 0.54588 0.0
Fe45 Fe 0.20909 0.86434 0.50318 0.0
O46 O 0.20536 0.83203 0.54803 0.0
Fe47 Fe 0.1736 0.82733 0.59408 0.0
O48 O 0.16269 0.79342 0.55466 0.0
O49 O 0.207 0.77204 0.5616 0.0
O50 O 0.22555 0.79634 0.47004 0.0
C51 C 0.22897 0.81554 0.43015 0.0
C52 C 0.2232 0.80481 0.66231 0.0
O53 O 0.22776 0.84372 0.44174 0.0
C54 C 0.18502 0.88721 0.61155 0.0
O55 O 0.26483 0.82923 0.52806 0.0
O56 O 0.24477 0.87426 0.5363 0.0
O57 O 0.19493 0.80603 0.65151 0.0
O58 O 0.24199 0.80927 0.62199 0.0
C59 C 0.14869 0.85464 0.49147 0.0
O60 O 0.19116 0.89003 0.55718 0.0
O61 O 0.18208 0.86146 0.6347 0.0
C62 C 0.26772 0.85769 0.53235 0.0
O63 O 0.17381 0.85703 0.4664 0.0
O64 O 0.14704 0.84773 0.54547 0.0
C65 C 0.1793 0.77064 0.54796 0.0
Fe66 Fe 0.98594 0.48333 0.796 0.0
Fe67 Fe 0.92545 0.45923 0.75185 0.0
O68 O 0.95744 0.45546 0.79753 0.0
Fe69 Fe 0.96177 0.42366 0.8439 0.0
O70 O 0.99566 0.41253 0.80544 0.0
O71 O 1.01715 0.45689 0.8124 0.0
O72 O 0.99335 0.47567 0.72026 0.0
C73 C 0.97432 0.47929 0.68004 0.0
C74 C 0.98419 0.47339 0.91252 0.0
O75 O 0.94619 0.47803 0.69106 0.0
C76 C 0.90209 0.4355 0.85952 0.0
O77 O 0.9603 0.51508 0.77769 0.0
O78 O 0.91544 0.49487 0.78505 0.0
O79 O 0.98289 0.44503 0.90185 0.0
O80 O 0.97993 0.49216 0.87196 0.0
C81 C 0.93478 0.39869 0.7405 0.0
O82 O 0.89961 0.44127 0.80496 0.0
O83 O 0.9276 0.43246 0.88355 0.0
C84 C 0.93189 0.51792 0.78158 0.0
O85 O 0.93293 0.42387 0.7152 0.0
O86 O 0.94144 0.39705 0.79474 0.0
C87 C 0.01843 0.42908 0.79894 0.0
Fe88 Fe 0.70858 0.86163 0.0967 0.0
Fe89 Fe 0.67327 0.82485 1.00467 0.0
O90 O 0.70492 0.82938 0.05143 0.0
Fe91 Fe 0.73272 0.8008 0.05383 0.0
O92 O 0.7249 0.79368 0.12952 0.0
O93 O 0.72723 0.84106 0.15809 0.0
O94 O 0.67328 0.85424 0.13287 0.0
C95 C 0.64819 0.85214 0.1073 0.0
C96 C 0.76717 0.855 0.06814 0.0
O97 O 0.64664 0.84537 0.0531 0.0
C98 C 0.72298 0.80222 0.93716 0.0
O99 O 0.69073 0.88732 0.04288 0.0
O100 O 0.68205 0.8589 0.96466 0.0
O101 O 0.76432 0.82654 0.07233 0.0
O102 O 0.74421 0.87154 0.06399 0.0
C103 C 0.67866 0.76825 0.05046 0.0
O104 O 0.69468 0.80349 0.94739 0.0
O105 O 0.74166 0.80655 0.97794 0.0
C106 C 0.68501 0.88457 0.9883 0.0
O107 O 0.66215 0.79105 0.04344 0.0
O108 O 0.70641 0.76946 0.03739 0.0
C109 C 0.72842 0.8129 0.16954 0.0
Fe110 Fe 0.46005 0.42471 0.7538 0.0
Fe111 Fe 0.48367 0.48465 0.8021 0.0
O112 O 0.45534 0.4566 0.80001 0.0
Fe113 Fe 0.42316 0.46037 0.84494 0.0
O114 O 0.43059 0.42515 0.88178 0.0
O115 O 0.43983 0.39811 0.80263 0.0
O116 O 0.49394 0.41395 0.79288 0.0
C117 C 0.51661 0.43067 0.79939 0.0
C118 C 0.40032 0.43589 0.73683 0.0
O119 O 0.5151 0.45844 0.78607 0.0
C120 C 0.42948 0.519 0.81547 0.0
O121 O 0.48112 0.4461 0.69624 0.0
O122 O 0.47771 0.49329 0.7261 0.0
O123 O 0.39756 0.44213 0.79119 0.0
O124 O 0.42595 0.43303 0.71343 0.0
C125 C 0.47181 0.48067 0.91784 0.0
O126 O 0.45787 0.51626 0.82009 0.0
O127 O 0.41312 0.4959 0.81151 0.0
C128 C 0.48223 0.47445 0.68563 0.0
O129 O 0.49095 0.47714 0.87792 0.0
O130 O 0.4437 0.47936 0.90627 0.0
C131 C 0.4328 0.39991 0.85661 0.0
Fe132 Fe 0.80163 0.23719 0.55064 0.0
Fe133 Fe 0.8255 0.17629 0.59304 0.0
O134 O 0.82935 0.20855 0.54827 0.0
Fe135 Fe 0.86105 0.21299 0.50199 0.0
O136 O 0.87225 0.24674 0.54136 0.0
O137 O 0.82807 0.26848 0.53496 0.0
O138 O 0.8094 0.24427 0.62648 0.0
C139 C 0.8058 0.22504 0.66626 0.0
C140 C 0.81155 0.23581 0.43417 0.0
O141 O 0.80682 0.19688 0.65447 0.0
C142 C 0.84926 0.15327 0.48482 0.0
O143 O 0.76991 0.21152 0.56851 0.0
O144 O 0.78996 0.16656 0.55946 0.0
O145 O 0.83981 0.23447 0.4448 0.0
O146 O 0.79278 0.23149 0.47458 0.0
C147 C 0.88582 0.18554 0.6045 0.0
O148 O 0.84338 0.15057 0.53926 0.0
O149 O 0.85224 0.17895 0.46141 0.0
C150 C 0.76701 0.18306 0.56391 0.0
O151 O 0.86074 0.18354 0.62983 0.0
O152 O 0.88747 0.19235 0.55046 0.0
C153 C 0.85581 0.2696 0.54844 0.0
Fe154 Fe 0.0513 0.55396 0.30455 0.0
Fe155 Fe 0.11192 0.57845 0.34765 0.0
O156 O 0.07967 0.58197 0.30244 0.0
Fe157 Fe 0.07485 0.61369 0.25602 0.0
O158 O 0.04106 0.62464 0.29507 0.0
O159 O 0.01987 0.58015 0.28836 0.0
O160 O 0.04419 0.56178 0.3803 0.0
C161 C 0.06337 0.55848 0.42038 0.0
C162 C 0.05248 0.56371 0.18799 0.0
O163 O 0.09146 0.55985 0.40907 0.0
C164 C 0.13452 0.60227 0.23922 0.0
O165 O 0.07708 0.52238 0.32273 0.0
O166 O 0.12195 0.54258 0.31507 0.0
O167 O 0.05363 0.59209 0.19856 0.0
O168 O 0.05704 0.545 0.22854 0.0
C169 C 0.10229 0.63911 0.35856 0.0
O170 O 0.13742 0.59629 0.29365 0.0
O171 O 0.10885 0.60514 0.2158 0.0
C172 C 0.10547 0.51954 0.31863 0.0
O173 O 0.1046 0.61398 0.38399 0.0
O174 O 0.09519 0.64055 0.30454 0.0
C175 C 0.01841 0.60794 0.30172 0.0
Fe176 Fe 0.80333 0.73587 0.54561 0.0
Fe177 Fe 0.82749 0.67504 0.50261 0.0
O178 O 0.83116 0.7073 0.54791 0.0
Fe179 Fe 0.86283 0.7119 0.5946 0.0
O180 O 0.87387 0.74577 0.55589 0.0
O181 O 0.82957 0.76726 0.56207 0.0
O182 O 0.8111 0.74302 0.46991 0.0
C183 C 0.80761 0.7238 0.42986 0.0
C184 C 0.81311 0.73441 0.66226 0.0
O185 O 0.80885 0.69563 0.44125 0.0
C186 C 0.85131 0.65211 0.61094 0.0
O187 O 0.77173 0.71014 0.52719 0.0
O188 O 0.79179 0.66509 0.53517 0.0
O189 O 0.84141 0.73316 0.65198 0.0
O190 O 0.79442 0.73008 0.6215 0.0
C191 C 0.88793 0.68461 0.49195 0.0
O192 O 0.84536 0.64934 0.55644 0.0
O193 O 0.8542 0.67779 0.63457 0.0
C194 C 0.76883 0.68168 0.53136 0.0
O195 O 0.86283 0.68238 0.46642 0.0
O196 O 0.88948 0.69149 0.54608 0.0
C197 C 0.85732 0.76858 0.54912 0.0
Fe198 Fe 0.04925 0.05322 0.79508 0.0
Fe199 Fe 0.11028 0.0791 0.7586 0.0
O200 O 0.07667 0.08196 0.79976 0.0
Fe201 Fe 0.0696 0.11372 0.84474 0.0
O202 O 0.03686 0.12355 0.80182 0.0
O203 O 1.01665 0.07858 0.80748 0.0
O204 O 0.044 0.0607 0.71894 0.0
C205 C 0.06413 0.05782 0.68078 0.0
C206 C 0.0472 0.06368 0.91123 0.0
O207 O 0.09196 0.05938 0.69502 0.0
C208 C 0.12865 0.10529 0.86917 0.0
O209 O 0.0764 0.02238 0.77989 0.0
O210 O 0.12044 0.04374 0.79306 0.0
O211 O 0.04739 0.09197 0.89997 0.0
O212 O 0.05329 0.0448 0.87164 0.0
C213 C 0.09926 0.13918 0.74495 0.0
O214 O 0.13371 0.09868 0.8154 0.0
O215 O 0.10218 0.10586 0.88889 0.0
C216 C 0.10471 0.02025 0.78716 0.0
O217 O 0.10274 0.11391 0.72057 0.0
O218 O 0.09068 0.14092 0.79812 0.0
C219 C 1.01479 0.10627 0.79364 0.0
Fe220 Fe 0.73258 0.30344 0.04354 0.0
Fe221 Fe 0.70802 0.36391 0.99977 0.0
O222 O 0.70451 0.33177 0.0451 0.0
Fe223 Fe 0.6728 0.32709 0.09127 0.0
O224 O 0.66209 0.29305 0.05243 0.0
O225 O 0.70655 0.27194 0.05974 0.0
O226 O 0.72507 0.29588 0.96775 0.0
C227 C 0.72829 0.31497 0.92758 0.0
C228 C 0.72244 0.30518 0.15986 0.0
O229 O 0.72683 0.34318 0.93873 0.0
C230 C 0.68401 0.38695 0.10782 0.0
O231 O 0.764 0.32929 0.02549 0.0
O232 O 0.74361 0.37422 0.03278 0.0
O233 O 0.69419 0.3061 0.14894 0.0
O234 O 0.74122 0.30966 0.11955 0.0
C235 C 0.64766 0.35396 0.98834 0.0
O236 O 0.68995 0.38966 0.05337 0.0
O237 O 0.68121 0.3613 0.13134 0.0
C238 C 0.76668 0.35777 0.02958 0.0
O239 O 0.67275 0.35625 0.96311 0.0
O240 O 0.64611 0.34723 0.04244 0.0
C241 C 0.67884 0.27034 0.04631 0.0
Fe242 Fe 0.48638 0.98364 0.29614 0.0
Fe243 Fe 0.42562 0.96002 0.25246 0.0
O244 O 0.45771 0.95595 0.29778 0.0
Fe245 Fe 0.46198 0.92408 0.34397 0.0
O246 O 0.49576 0.91283 0.30521 0.0
O247 O 0.51745 0.95706 0.31245 0.0
O248 O 0.49365 0.97598 0.22033 0.0
C249 C 0.47455 0.97978 0.18025 0.0
C250 C 0.48457 0.9736 0.41255 0.0
O251 O 0.44642 0.97871 0.1915 0.0
C252 C 0.40237 0.93609 0.36025 0.0
O253 O 0.46099 1.01555 0.27804 0.0
O254 O 0.41597 0.99575 0.28587 0.0
O255 O 0.48326 0.94526 0.40181 0.0
O256 O 0.48044 0.99243 0.37206 0.0
C257 C 0.43473 0.89942 0.24077 0.0
O258 O 0.39975 0.94218 0.30582 0.0
O259 O 0.42795 0.93292 0.38395 0.0
C260 C 0.43264 1.01865 0.2824 0.0
O261 O 0.43273 0.92464 0.21562 0.0
O262 O 0.4415 0.89768 0.2949 0.0
C263 C 0.5186 0.92929 0.29885 0.0
Fe264 Fe 0.20817 0.36066 0.59577 0.0
Fe265 Fe 0.17242 0.32382 0.50442 0.0
O266 O 0.20426 0.32834 0.55074 0.0
Fe267 Fe 0.23202 0.2997 0.55299 0.0
O268 O 0.22458 0.29277 0.62894 0.0
O269 O 0.22715 0.34019 0.65702 0.0
O270 O 0.17299 0.35341 0.63261 0.0
C271 C 0.1478 0.35133 0.60737 0.0
C272 C 0.26664 0.35393 0.56628 0.0
O273 O 0.14604 0.34448 0.55322 0.0
C274 C 0.22183 0.30078 0.43628 0.0
O275 O 0.19011 0.38631 0.54212 0.0
O276 O 0.18107 0.35788 0.46406 0.0
O277 O 0.26379 0.32546 0.57062 0.0
O278 O 0.24365 0.37044 0.5623 0.0
C279 C 0.17783 0.26732 0.55114 0.0
O280 O 0.19355 0.30228 0.44681 0.0
O281 O 0.24063 0.30517 0.47684 0.0
C282 C 0.18417 0.38358 0.48762 0.0
O283 O 0.16132 0.2901 0.54365 0.0
O284 O 0.20551 0.2684 0.53745 0.0
C285 C 0.22854 0.31206 0.66867 0.0
Fe286 Fe 0.98485 0.98377 0.30367 0.0
Fe287 Fe 0.92495 0.95918 0.34896 0.0
O288 O 0.95664 0.95558 0.30279 0.0
Fe289 Fe 0.96098 0.92371 0.2564 0.0
O290 O 0.99522 0.91307 0.29427 0.0
O291 O 1.01618 0.95762 0.2865 0.0
O292 O 0.99307 0.97641 0.37924 0.0
C293 C 0.97429 0.97981 0.41983 0.0
C294 C 0.98202 0.97341 0.18729 0.0
O295 O 0.94607 0.97831 0.40931 0.0
C296 C 0.90112 0.9348 0.24164 0.0
O297 O 0.95908 1.01531 0.32249 0.0
O298 O 0.91435 0.99468 0.316 0.0
O299 O 0.9814 0.94509 0.19813 0.0
O300 O 0.97799 0.99228 0.2279 0.0
C301 C 0.93496 0.89874 0.36014 0.0
O302 O 0.89886 0.94084 0.29619 0.0
O303 O 0.92652 0.93204 0.21734 0.0
C304 C 0.93063 1.01789 0.31892 0.0
O305 O 0.93297 0.92396 0.38549 0.0
O306 O 0.9413 0.89705 0.30584 0.0
C307 C 0.01786 0.9299 0.30009 0.0
Fe308 Fe 0.30228 0.73692 0.05343 0.0
Fe309 Fe 0.32648 0.67626 0.09685 0.0
O310 O 0.33015 0.70839 0.05159 0.0
Fe311 Fe 0.36183 0.71283 1.00527 0.0
O312 O 0.37286 0.74674 0.04413 0.0
O313 O 0.32856 0.76826 0.03734 0.0
O314 O 0.30994 0.74433 0.12921 0.0
C315 C 0.30652 0.72524 0.16929 0.0
C316 C 0.31224 0.73526 0.93698 0.0
O317 O 0.30777 0.69703 0.15799 0.0
C318 C 0.35018 0.65307 0.98873 0.0
O319 O 0.27068 0.71119 0.07156 0.0
O320 O 0.29089 0.66622 0.06368 0.0
O321 O 0.34051 0.73404 0.94773 0.0
O322 O 0.29348 0.73089 0.97738 0.0
C323 C 0.38687 0.68579 0.10819 0.0
O324 O 0.3444 0.65042 0.04324 0.0
O325 O 0.35309 0.67869 0.96517 0.0
C326 C 0.26788 0.68271 0.06748 0.0
O327 O 0.36177 0.68373 0.1335 0.0
O328 O 0.38843 0.69245 0.05404 0.0
C329 C 0.35631 0.76956 0.05067 0.0
Fe330 Fe 0.55173 0.05388 0.80422 0.0
Fe331 Fe 0.6125 0.07803 0.84675 0.0
O332 O 0.58024 0.08169 0.80176 0.0
Fe333 Fe 0.57563 0.11335 0.75518 0.0
O334 O 0.54211 0.12466 0.79434 0.0
O335 O 0.52048 0.08034 0.78833 0.0
O336 O 0.54479 0.06175 0.88002 0.0
C337 C 0.56402 0.05819 0.91991 0.0
C338 C 0.55285 0.06358 0.68764 0.0
O339 O 0.5921 0.05935 0.90827 0.0
C340 C 0.63511 0.10169 0.73824 0.0
O341 O 0.57742 0.02219 0.82214 0.0
O342 O 0.62231 0.04227 0.8137 0.0
O343 O 0.55413 0.09194 0.69808 0.0
O344 O 0.55726 0.04486 0.72823 0.0
C345 C 0.6029 0.13858 0.85766 0.0
O346 O 0.63801 0.09593 0.79276 0.0
O347 O 0.60943 0.10438 0.71482 0.0
C348 C 0.60579 0.01928 0.8175 0.0
O349 O 0.60518 0.11348 0.88319 0.0
O350 O 0.59622 0.14002 0.80347 0.0
C351 C 0.5194 0.10816 0.80165 0.0
H352 H 0.21173 0.17937 0.0447 0.0
H353 H 0.28076 0.14251 0.9323 0.0
H354 H 0.24292 0.11608 0.874 0.0
H355 H 0.18988 0.10381 0.85341 0.0
H356 H 0.12097 0.13761 0.97016 0.0
H357 H 0.15874 0.16409 0.02804 0.0
C358 C 0.21832 0.16544 1.0076 0.0
C359 C 0.24886 0.16292 0.99283 0.0
C360 C 0.19643 0.14948 0.97493 0.0
C361 C 0.25728 0.14468 0.94476 0.0
C362 C 0.23568 0.12955 0.91125 0.0
C363 C 0.18318 0.11675 0.89176 0.0
C364 C 0.15259 0.11865 0.90693 0.0
C365 C 0.20513 0.13176 0.92579 0.0
C366 C 0.14437 0.1355 0.95718 0.0
C367 C 0.16596 0.1509 0.99043 0.0
H368 H 0.6411 0.39056 0.19212 0.0
H369 H 0.70674 0.44393 0.09889 0.0
H370 H 0.68987 0.4894 0.15094 0.0
H371 H 0.65425 0.5143 0.21715 0.0
H372 H 0.58458 0.46227 0.30179 0.0
H373 H 0.60542 0.41566 0.25938 0.0
C374 C 0.65198 0.4121 0.18388 0.0
C375 C 0.6753 0.41395 0.14211 0.0
C376 C 0.64138 0.43825 0.21233 0.0
C377 C 0.68879 0.44203 0.13087 0.0
C378 C 0.67915 0.46796 0.16061 0.0
C379 C 0.64397 0.49268 0.22739 0.0
C380 C 0.61818 0.4916 0.26334 0.0
C381 C 0.6552 0.46638 0.20074 0.0
C382 C 0.6046 0.46356 0.27472 0.0
C383 C 0.61643 0.43701 0.25026 0.0
H384 H 0.39791 0.8934 0.44531 0.0
H385 H 0.3458 0.95956 0.34998 0.0
H386 H 0.30005 0.94338 0.40107 0.0
H387 H 0.27445 0.90812 0.46708 0.0
H388 H 0.32525 0.83799 0.55392 0.0
H389 H 0.37213 0.85818 0.51246 0.0
C390 C 0.37659 0.90455 0.43641 0.0
C391 C 0.37521 0.92782 0.39427 0.0
C392 C 0.35024 0.89435 0.46436 0.0
C393 C 0.34738 0.94165 0.38223 0.0
C394 C 0.32127 0.9324 0.41143 0.0
C395 C 0.29586 0.89762 0.47801 0.0
C396 C 0.29649 0.87187 0.51433 0.0
C397 C 0.32237 0.90849 0.45189 0.0
C398 C 0.32428 0.85799 0.52658 0.0
C399 C 0.35101 0.86945 0.50265 0.0
H400 H 0.89483 0.6481 0.6945 0.0
H401 H 0.82788 0.5954 0.60223 0.0
H402 H 0.8448 0.54974 0.65327 0.0
H403 H 0.88085 0.52441 0.71811 0.0
H404 H 0.95175 0.5757 0.80171 0.0
H405 H 0.93091 0.62256 0.76057 0.0
C406 C 0.88367 0.62667 0.68631 0.0
C407 C 0.85996 0.62506 0.64507 0.0
C408 C 0.89431 0.60037 0.71413 0.0
C409 C 0.84612 0.59711 0.63383 0.0
C410 C 0.8558 0.57107 0.66298 0.0
C411 C 0.89141 0.54591 0.72841 0.0
C412 C 0.91757 0.5467 0.76368 0.0
C413 C 0.88015 0.57237 0.70248 0.0
C414 C 0.93147 0.57461 0.77514 0.0
C415 C 0.91963 0.60132 0.75141 0.0
H416 H 0.77331 0.90503 0.13499 0.0
H417 H 0.82488 0.83595 0.04657 0.0
H418 H 0.87158 0.85663 0.08865 0.0
H419 H 0.89698 0.8921 0.1563 0.0
H420 H 0.84417 0.95717 0.25314 0.0
H421 H 0.7985 0.94036 0.20193 0.0
C422 C 0.79484 0.89486 0.12389 0.0
C423 C 0.79578 0.8693 0.08689 0.0
C424 C 0.82122 0.906 0.15032 0.0
C425 C 0.8237 0.85581 0.07442 0.0
C426 C 0.85031 0.86756 0.09869 0.0
C427 C 0.87551 0.90287 0.16555 0.0
C428 C 0.8739 0.92603 0.20807 0.0
C429 C 0.84925 0.89231 0.13751 0.0
C430 C 0.8459 0.93935 0.22057 0.0
C431 C 0.81985 0.92975 0.19131 0.0
H432 H 0.37907 0.52528 0.88033 0.0
H433 H 0.4487 0.57679 0.79445 0.0
H434 H 0.42809 0.62362 0.83635 0.0
H435 H 0.39273 0.64907 0.90375 0.0
H436 H 0.32715 0.59624 0.99829 0.0
H437 H 0.34365 0.55056 0.94651 0.0
C438 C 0.38937 0.54683 0.86969 0.0
C439 C 0.4151 0.54771 0.83357 0.0
C440 C 0.37828 0.57327 0.89609 0.0
C441 C 0.42872 0.57566 0.82166 0.0
C442 C 0.41702 0.60234 0.84584 0.0
C443 C 0.38178 0.6276 0.91232 0.0
C444 C 0.3586 0.62596 0.95442 0.0
C445 C 0.39217 0.60132 0.88402 0.0
C446 C 0.34501 0.59797 0.96606 0.0
C447 C 0.35443 0.57192 0.93648 0.0
H448 H 0.63821 0.14525 0.65494 0.0
H449 H 0.69205 0.07889 0.74607 0.0
H450 H 0.73709 0.09615 0.69388 0.0
H451 H 0.76149 0.13221 0.62804 0.0
H452 H 0.70907 0.20258 0.54561 0.0
H453 H 0.66285 0.18148 0.58827 0.0
C454 C 0.65975 0.1343 0.66267 0.0
C455 C 0.66186 0.11063 0.70385 0.0
C456 C 0.68567 0.14512 0.63419 0.0
C457 C 0.68995 0.09708 0.71451 0.0
C458 C 0.71564 0.10695 0.6847 0.0
C459 C 0.73987 0.1426 0.61834 0.0
C460 C 0.73857 0.16865 0.58288 0.0
C461 C 0.71381 0.1312 0.64512 0.0
C462 C 0.71053 0.18236 0.57225 0.0
C463 C 0.6842 0.17037 0.59685 0.0
H464 H 0.14105 0.38845 0.40317 0.0
H465 H 0.20833 0.43991 0.49708 0.0
H466 H 0.19217 0.486 0.44662 0.0
H467 H 0.15651 0.51217 0.38203 0.0
H468 H 0.0853 0.46208 0.29674 0.0
H469 H 0.10554 0.41478 0.33701 0.0
C470 C 0.15245 0.4097 0.41183 0.0
C471 C 0.17601 0.41081 0.45345 0.0
C472 C 0.14225 0.43628 0.38431 0.0
C473 C 0.19019 0.43855 0.46521 0.0
C474 C 0.18094 0.46486 0.43639 0.0
C475 C 0.14577 0.49083 0.37116 0.0
C476 C 0.11968 0.49053 0.33572 0.0
C477 C 0.15669 0.46407 0.39662 0.0
C478 C 0.10555 0.46281 0.32348 0.0
C479 C 0.11704 0.43584 0.34672 0.0
H480 H 0.63817 0.64597 0.44548 0.0
H481 H 0.68969 0.57896 0.35105 0.0
H482 H 0.73567 0.59522 0.40183 0.0
H483 H 0.76165 0.63081 0.46708 0.0
H484 H 0.71148 0.70177 0.55292 0.0
H485 H 0.66435 0.6815 0.51205 0.0
C486 C 0.65942 0.63465 0.43675 0.0
C487 C 0.66058 0.61113 0.39494 0.0
C488 C 0.68591 0.64491 0.46447 0.0
C489 C 0.6883 0.59708 0.38307 0.0
C490 C 0.71454 0.60637 0.41208 0.0
C491 C 0.74033 0.64149 0.47792 0.0
C492 C 0.73995 0.6675 0.51375 0.0
C493 C 0.71368 0.63055 0.45213 0.0
C494 C 0.71226 0.68158 0.52592 0.0
C495 C 0.68539 0.67006 0.50234 0.0
H496 H 0.14366 0.89071 0.69921 0.0
H497 H 0.20658 0.94465 0.60028 0.0
H498 H 0.18978 0.99014 0.65231 0.0
H499 H 0.15462 1.01501 0.72013 0.0
H500 H 0.08764 0.96212 0.81053 0.0
H501 H 0.1088 0.91564 0.76831 0.0
C502 C 0.15401 0.91237 0.6897 0.0
C503 C 0.17651 0.91431 0.6462 0.0
C504 C 0.14345 0.93856 0.71827 0.0
C505 C 0.18926 0.9426 0.63352 0.0
C506 C 0.17966 0.96859 0.66328 0.0
C507 C 0.1451 0.99323 0.73171 0.0
C508 C 0.11993 0.99189 0.7693 0.0
C509 C 0.15646 0.9669 0.70505 0.0
C510 C 0.10722 0.96363 0.78231 0.0
C511 C 0.11922 0.93713 0.7579 0.0
H512 H 0.89735 0.39391 0.94661 0.0
H513 H 0.84551 0.45845 0.84656 0.0
H514 H 0.79945 0.44239 0.89659 0.0
H515 H 0.77354 0.40755 0.96282 0.0
H516 H 0.82411 0.33892 0.05452 0.0
H517 H 0.87125 0.35921 0.01431 0.0
C518 C 0.87601 0.40476 0.93649 0.0
C519 C 0.87479 0.42749 0.89328 0.0
C520 C 0.84949 0.39461 0.96385 0.0
C521 C 0.84696 0.44094 0.87967 0.0
C522 C 0.82067 0.43176 0.90825 0.0
C523 C 0.79494 0.39742 0.97507 0.0
C524 C 0.79547 0.37205 0.01234 0.0
C525 C 0.82161 0.40831 0.94968 0.0
C526 C 0.82325 0.35862 0.02636 0.0
C527 C 0.85011 0.37014 1.00316 0.0
H528 H 0.38216 0.02571 0.21771 0.0
H529 H 0.45277 0.07617 0.30405 0.0
H530 H 0.43279 0.1233 0.2625 0.0
H531 H 0.39763 0.14932 0.19505 0.0
H532 H 0.33121 0.09728 0.09999 0.0
H533 H 0.34707 0.05144 0.15165 0.0
C534 C 0.39281 0.0471 0.22853 0.0
C535 C 0.41864 0.04759 0.26466 0.0
C536 C 0.3821 0.0737 0.20231 0.0
C537 C 0.43271 0.07534 0.27682 0.0
C538 C 0.42137 0.1022 0.25284 0.0
C539 C 0.38638 0.12798 0.18638 0.0
C540 C 0.36315 0.12658 0.14416 0.0
C541 C 0.39644 0.10155 0.21458 0.0
C542 C 0.34913 0.09879 0.13233 0.0
C543 C 0.35818 0.07265 0.16184 0.0
H544 H 0.39642 0.39162 0.65444 0.0
H545 H 0.34368 0.45931 0.74432 0.0
H546 H 0.29819 0.44197 0.69317 0.0
H547 H 0.27304 0.40546 0.6288 0.0
H548 H 0.32435 0.33384 0.54761 0.0
H549 H 0.37101 0.35497 0.58898 0.0
C550 C 0.37502 0.40283 0.66208 0.0
C551 C 0.37336 0.4269 0.70267 0.0
C552 C 0.34881 0.39197 0.63421 0.0
C553 C 0.34544 0.44081 0.71322 0.0
C554 C 0.31949 0.4309 0.68401 0.0
C555 C 0.2945 0.39478 0.61907 0.0
C556 C 0.29534 0.36836 0.58438 0.0
C557 C 0.32086 0.40623 0.64512 0.0
C558 C 0.32321 0.35433 0.5737 0.0
C559 C 0.34981 0.36634 0.59756 0.0
H560 H 0.89316 0.14876 0.40242 0.0
H561 H 0.82535 0.09681 0.49273 0.0
H562 H 0.84244 0.05081 0.44286 0.0
H563 H 0.87899 0.02493 0.38006 0.0
H564 H 0.95067 0.07551 0.29852 0.0
H565 H 0.92961 0.12268 0.33797 0.0
C566 C 0.88184 0.12742 0.41037 0.0
C567 C 0.85786 0.12612 0.45078 0.0
C568 C 0.89259 0.10091 0.3833 0.0
C569 C 0.8438 0.09829 0.46174 0.0
C570 C 0.85358 0.07204 0.43329 0.0
C571 C 0.88969 0.04634 0.36984 0.0
C572 C 0.91616 0.04681 0.33572 0.0
C573 C 0.87826 0.07301 0.39479 0.0
C574 C 0.93018 0.07463 0.32428 0.0
C575 C 0.9182 0.10153 0.34703 0.0
H576 H 0.13831 0.64584 0.15594 0.0
H577 H 0.19112 0.5787 0.24714 0.0
H578 H 0.23651 0.59552 0.19559 0.0
H579 H 0.26158 0.63155 0.13062 0.0
H580 H 0.21019 0.70265 0.04812 0.0
H581 H 0.16359 0.68189 0.08974 0.0
C582 C 0.1597 0.63462 0.1638 0.0
C583 C 0.16142 0.61089 0.20489 0.0
C584 C 0.18584 0.6452 0.13569 0.0
C585 C 0.18932 0.59697 0.21567 0.0
C586 C 0.21521 0.60658 0.18623 0.0
C587 C 0.24011 0.64217 0.12066 0.0
C588 C 0.23923 0.66836 0.08556 0.0
C589 C 0.2138 0.63096 0.14688 0.0
C590 C 0.21135 0.68234 0.07454 0.0
C591 C 0.18479 0.67055 0.09855 0.0
H592 H 0.6419 0.88886 0.90405 0.0
H593 H 0.70887 0.94107 0.99733 0.0
H594 H 0.69249 0.98686 0.94606 0.0
H595 H 0.65677 1.01247 0.88095 0.0
H596 H 0.58579 0.96168 0.79648 0.0
H597 H 0.60626 0.91466 0.83753 0.0
C598 C 0.65318 0.91021 0.91241 0.0
C599 C 0.67672 0.91166 0.95402 0.0
C600 C 0.64285 0.93658 0.88447 0.0
C601 C 0.69074 0.93949 0.96545 0.0
C602 C 0.68138 0.96561 0.93617 0.0
C603 C 0.64613 0.99103 0.87043 0.0
C604 C 0.62005 0.99043 0.83498 0.0
C605 C 0.65716 0.96449 0.89635 0.0
C606 C 0.60602 0.96261 0.8232 0.0
C607 C 0.61765 0.93582 0.84688 0.0
H608 H 0.39354 0.14595 0.90627 0.0
H609 H 0.45002 0.20555 1.00881 0.0
H610 H 0.49465 0.18724 0.95569 0.0
H611 H 0.51732 0.15353 0.8813 0.0
H612 H 0.46079 0.09113 0.78536 0.0
H613 H 0.41612 0.11148 0.83468 0.0
C614 C 0.41559 0.15516 0.91677 0.0
C615 C 0.41851 0.17736 0.96094 0.0
C616 C 0.44097 0.14402 0.88723 0.0
C617 C 0.44727 0.18853 0.97492 0.0
C618 C 0.47269 0.17809 0.9445 0.0
C619 C 0.49514 0.14465 0.87076 0.0
C620 C 0.49219 0.12117 0.82913 0.0
C621 C 0.46977 0.1558 0.90065 0.0
C622 C 0.46352 0.1093 0.81693 0.0
C623 C 0.43805 0.12091 0.84516 0.0
H624 H 0.64187 0.64154 0.15482 0.0
H625 H 0.58237 0.69806 0.25699 0.0
H626 H 0.60004 0.74276 0.20353 0.0
H627 H 0.63336 0.76569 0.12948 0.0
H628 H 0.69597 0.7095 0.03391 0.0
H629 H 0.67601 0.66451 0.08295 0.0
C630 C 0.63257 0.66362 0.1651 0.0
C631 C 0.61061 0.66651 0.20942 0.0
C632 C 0.64342 0.68916 0.13538 0.0
C633 C 0.59925 0.69531 0.22306 0.0
C634 C 0.60932 0.7208 0.19245 0.0
C635 C 0.64237 0.74352 0.11891 0.0
C636 C 0.6658 0.74078 0.07751 0.0
C637 C 0.63147 0.71798 0.14869 0.0
C638 C 0.67782 0.71209 0.06531 0.0
C639 C 0.66644 0.68643 0.09339 0.0
H640 H 0.02174 0.88464 0.37921 0.0
H641 H 0.07605 0.94822 0.28254 0.0
H642 H 0.12155 0.92922 0.33144 0.0
H643 H 0.14546 0.89573 0.4038 0.0
H644 H 0.09067 0.8353 0.50684 0.0
H645 H 0.04556 0.85189 0.45328 0.0
C646 C 0.04361 0.89406 0.36832 0.0
C647 C 0.04567 0.9175 0.32672 0.0
C648 C 0.06942 0.88373 0.39802 0.0
C649 C 0.07398 0.93005 0.31412 0.0
C650 C 0.09993 0.91923 0.34212 0.0
C651 C 0.12367 0.886 0.41423 0.0
C652 C 0.12137 0.86412 0.45889 0.0
C653 C 0.09787 0.89624 0.38442 0.0
C654 C 0.09295 0.85216 0.47268 0.0
C655 C 0.06723 0.86161 0.44202 0.0
H656 H 0.90125 0.27219 0.62778 0.0
H657 H 0.83868 0.32841 0.53207 0.0
H658 H 0.85889 0.37343 0.58125 0.0
H659 H 0.89326 0.39646 0.65328 0.0
H660 H 0.9527 0.33993 0.7556 0.0
H661 H 0.93478 0.29518 0.702 0.0
C662 C 0.89229 0.29437 0.61722 0.0
C663 C 0.86879 0.29709 0.57572 0.0
C664 C 0.90334 0.31995 0.64708 0.0
C665 C 0.85687 0.32581 0.56355 0.0
C666 C 0.8684 0.35149 0.5917 0.0
C667 C 0.90249 0.37437 0.66357 0.0
C668 C 0.92451 0.3715 0.70799 0.0
C669 C 0.89149 0.34879 0.63377 0.0
C670 C 0.93578 0.34268 0.72161 0.0
C671 C 0.92556 0.31715 0.69092 0.0
H672 H 0.64552 0.89298 0.19576 0.0
H673 H 0.58973 0.83402 0.09048 0.0
H674 H 0.54487 0.85129 0.14381 0.0
H675 H 0.52156 0.88422 0.21857 0.0
H676 H 0.57709 0.94632 0.31734 0.0
H677 H 0.62222 0.92663 0.26852 0.0
C678 C 0.62357 0.88371 0.18476 0.0
C679 C 0.62094 0.86204 0.13956 0.0
C680 C 0.59794 0.89433 0.21445 0.0
C681 C 0.5923 0.8507 0.12506 0.0
C682 C 0.56671 0.86054 0.15561 0.0
C683 C 0.54362 0.89316 0.22989 0.0
C684 C 0.54613 0.9164 0.2721 0.0
C685 C 0.56927 0.88244 0.20021 0.0
C686 C 0.57468 0.92833 0.28529 0.0
C687 C 0.60042 0.9171 0.25733 0.0
H688 H 0.40204 0.27369 0.97107 0.0
H689 H 0.3365 0.32855 0.06198 0.0
H690 H 0.35548 0.37375 0.01194 0.0
H691 H 0.39003 0.39725 0.94105 0.0
H692 H 0.45251 0.34165 0.84384 0.0
H693 H 0.43536 0.2969 0.89772 0.0
C694 C 0.39212 0.29562 0.98042 0.0
C695 C 0.36821 0.29794 0.02089 0.0
C696 C 0.40251 0.3212 0.95016 0.0
C697 C 0.35504 0.32629 0.03137 0.0
C698 C 0.36588 0.35206 1.00273 0.0
C699 C 0.40005 0.37535 0.93194 0.0
C700 C 0.42275 0.37274 0.88895 0.0
C701 C 0.38951 0.34974 0.96191 0.0
C702 C 0.43506 0.34418 0.87674 0.0
C703 C 0.4253 0.31867 0.90759 0.0
H704 H 0.88825 0.14227 0.68784 0.0
H705 H 0.94396 0.20481 0.59162 0.0
H706 H 0.98869 0.18662 0.64446 0.0
H707 H 1.01176 0.15234 0.71656 0.0
H708 H 0.95659 0.08688 0.80651 0.0
H709 H 0.91153 0.10687 0.75745 0.0
C710 C 0.91017 0.15209 0.67878 0.0
C711 C 0.91288 0.17507 0.63642 0.0
C712 C 0.93571 0.14095 0.70806 0.0
C713 C 0.94142 0.18714 0.62413 0.0
C714 C 0.9669 0.17677 0.65434 0.0
C715 C 0.9898 0.14264 0.72583 0.0
C716 C 0.98732 0.11846 0.76567 0.0
C717 C 0.96428 0.15365 0.69625 0.0
C718 C 0.95894 0.10559 0.77624 0.0
C719 C 0.93326 0.11701 0.74823 0.0
H720 H 0.14365 0.64249 0.44617 0.0
H721 H 0.08351 0.6975 0.34228 0.0
H722 H 0.10067 0.74283 0.39488 0.0
H723 H 0.13381 0.76685 0.46863 0.0
H724 H 0.19709 0.71217 0.56591 0.0
H725 H 0.17757 0.66655 0.51786 0.0
C726 C 0.1341 0.66438 0.43533 0.0
C727 C 0.11211 0.66662 0.39071 0.0
C728 C 0.14468 0.69033 0.46458 0.0
C729 C 0.10042 0.6952 0.37642 0.0
C730 C 0.11021 0.72108 0.40655 0.0
C731 C 0.14307 0.74488 0.47979 0.0
C732 C 0.16659 0.74279 0.5214 0.0
C733 C 0.13242 0.71892 0.45053 0.0
C734 C 0.17889 0.71431 0.53434 0.0
C735 C 0.16776 0.68826 0.50681 0.0
H736 H 0.891 0.6434 0.40406 0.0
H737 H 0.94616 0.70341 0.50836 0.0
H738 H 0.99121 0.68636 0.45539 0.0
H739 H 1.0149 0.65333 0.38128 0.0
H740 H 0.96009 0.59017 0.28355 0.0
H741 H 0.91473 0.60962 0.33193 0.0
C742 C 0.91286 0.65294 0.41491 0.0
C743 C 0.91526 0.67485 0.45974 0.0
C744 C 0.93863 0.64244 0.38545 0.0
C745 C 0.94378 0.68655 0.47406 0.0
C746 C 0.96948 0.67683 0.44372 0.0
C747 C 0.99295 0.64409 0.37009 0.0
C748 C 0.99072 0.62063 0.3283 0.0
C749 C 0.96717 0.65469 0.39953 0.0
C750 C 0.9623 0.60833 0.31529 0.0
C751 C 0.93642 0.61943 0.34299 0.0
H752 H 0.13216 0.26515 0.6299 0.0
H753 H 0.19561 0.20854 0.53735 0.0
H754 H 0.17588 0.16392 0.58788 0.0
H755 H 0.1416 0.14133 0.65972 0.0
H756 H 0.08085 0.19809 0.75859 0.0
H757 H 0.09863 0.24254 0.7043 0.0
C758 C 0.14142 0.24296 0.62031 0.0
C759 C 0.16503 0.24003 0.57925 0.0
C760 C 0.1306 0.2176 0.65093 0.0
C761 C 0.17733 0.21132 0.5684 0.0
C762 C 0.16608 0.18586 0.59736 0.0
C763 C 0.13205 0.1634 0.66922 0.0
C764 C 0.10968 0.16638 0.71281 0.0
C765 C 0.14286 0.18877 0.63889 0.0
C766 C 0.09804 0.19521 0.72529 0.0
C767 C 0.10816 0.22057 0.69416 0.0
H768 H 0.64437 0.39528 0.90104 0.0
H769 H 0.58958 0.33477 1.00392 0.0
H770 H 0.54439 0.35182 0.95117 0.0
H771 H 0.52046 0.38504 0.87788 0.0
H772 H 0.57484 0.44872 0.78161 0.0
H773 H 0.62038 0.42921 0.82956 0.0
C774 C 0.62256 0.38562 0.91159 0.0
C775 C 0.6203 0.36358 0.95597 0.0
C776 C 0.5967 0.39614 0.8823 0.0
C777 C 0.59185 0.35173 0.96995 0.0
C778 C 0.56607 0.36145 0.93975 0.0
C779 C 0.54235 0.39438 0.8669 0.0
C780 C 0.54441 0.41801 0.82568 0.0
C781 C 0.56823 0.38375 0.89608 0.0
C782 C 0.57276 0.43043 0.81293 0.0
C783 C 0.59875 0.41931 0.84038 0.0
H784 H 0.40206 0.77269 0.12901 0.0
H785 H 0.33861 0.82818 0.03388 0.0
H786 H 0.35864 0.87347 0.08239 0.0
H787 H 0.39304 0.89689 0.15392 0.0
H788 H 0.45335 0.84097 0.25559 0.0
H789 H 0.43568 0.79602 0.20239 0.0
C790 C 0.39287 0.79477 0.1184 0.0
C791 C 0.36917 0.79722 0.07733 0.0
C792 C 0.40381 0.82047 0.14787 0.0
C793 C 0.35695 0.8258 0.06506 0.0
C794 C 0.36837 0.85164 0.09283 0.0
C795 C 0.40252 0.87489 0.16411 0.0
C796 C 0.42468 0.87222 0.20825 0.0
C797 C 0.39165 0.84919 0.13457 0.0
C798 C 0.4363 0.84353 0.22179 0.0
C799 C 0.42623 0.8179 0.19135 0.0
H800 H 0.14529 0.39276 0.69498 0.0
H801 H 0.0894 0.33285 0.59195 0.0
H802 H 0.04465 0.35027 0.64544 0.0
H803 H 0.02144 0.38356 0.71964 0.0
H804 H 0.07694 0.44662 0.81615 0.0
H805 H 0.12202 0.42683 0.76722 0.0
C806 C 0.12334 0.38332 0.68452 0.0
C807 C 0.12065 0.36133 0.63989 0.0
C808 C 0.09774 0.39404 0.71429 0.0
C809 C 0.09201 0.34977 0.62608 0.0
C810 C 0.06648 0.3597 0.65672 0.0
C811 C 0.04348 0.3927 0.73046 0.0
C812 C 0.04598 0.41623 0.77208 0.0
C813 C 0.06908 0.38191 0.70072 0.0
C814 C 0.07451 0.4284 0.78458 0.0
C815 C 0.10023 0.41712 0.75655 0.0
H816 H 0.9029 0.77179 0.47072 0.0
H817 H 0.83978 0.82718 0.56677 0.0
H818 H 0.85966 0.87253 0.51886 0.0
H819 H 0.89376 0.89605 0.44745 0.0
H820 H 0.95365 0.84028 0.34465 0.0
H821 H 0.93627 0.79527 0.39744 0.0
C822 C 0.89376 0.79386 0.48165 0.0
C823 C 0.87018 0.79626 0.52282 0.0
C824 C 0.90461 0.81962 0.45248 0.0
C825 C 0.85802 0.82484 0.53551 0.0
C826 C 0.86936 0.85071 0.50808 0.0
C827 C 0.90322 0.87407 0.43694 0.0
C828 C 0.92519 0.87148 0.39258 0.0
C829 C 0.89249 0.84833 0.46622 0.0
C830 C 0.93677 0.8428 0.37862 0.0
C831 C 0.92685 0.81713 0.40884 0.0
H832 H 0.38973 0.64458 0.19574 0.0
H833 H 0.44517 0.70436 0.09261 0.0
H834 H 0.49013 0.68714 0.14596 0.0
H835 H 0.51364 0.65406 0.22005 0.0
H836 H 0.45856 0.5911 0.31662 0.0
H837 H 0.41329 0.61071 0.26785 0.0
C838 C 0.41163 0.65404 0.18524 0.0
C839 C 0.41414 0.67594 0.14063 0.0
C840 C 0.43734 0.64343 0.2149 0.0
C841 C 0.44271 0.68752 0.12674 0.0
C842 C 0.46836 0.67771 0.15729 0.0
C843 C 0.49165 0.6449 0.23091 0.0
C844 C 0.48932 0.62146 0.27249 0.0
C845 C 0.46593 0.65558 0.20126 0.0
C846 C 0.46085 0.60926 0.28506 0.0
C847 C 0.43502 0.62044 0.25714 0.0
H848 H 0.64409 0.14207 0.94527 0.0
H849 H 0.58358 0.19668 0.84138 0.0
H850 H 0.60037 0.24211 0.89404 0.0
H851 H 0.63337 0.26627 0.9675 0.0
H852 H 0.69703 0.21208 0.06489 0.0
H853 H 0.67778 0.16628 0.01702 0.0
C854 C 0.63439 0.16389 0.93448 0.0
C855 C 0.61244 0.16606 0.88984 0.0
C856 C 0.64475 0.18987 0.96373 0.0
C857 C 0.6005 0.19451 0.87554 0.0
C858 C 0.61006 0.22042 0.90569 0.0
C859 C 0.64276 0.24436 0.97875 0.0
C860 C 0.66631 0.24241 0.02023 0.0
C861 C 0.63228 0.21837 0.94963 0.0
C862 C 0.6788 0.21405 0.03335 0.0
C863 C 0.66783 0.18793 1.00595 0.0
H864 H 0.25368 0.24381 0.18844 0.0
H865 H 0.3438 0.2508 0.25992 0.0
H866 H 0.32341 0.27289 0.34996 0.0
H867 H 0.28046 0.29066 0.40757 0.0
H868 H 0.19014 0.28369 0.33723 0.0
H869 H 0.2104 0.2615 0.24677 0.0
C870 C 0.26896 0.24998 0.22374 0.0
C871 C 0.30038 0.24554 0.21714 0.0
C872 C 0.25709 0.26296 0.27525 0.0
C873 C 0.31963 0.25384 0.26357 0.0
C874 C 0.30796 0.26659 0.31504 0.0
C875 C 0.26503 0.28443 0.37254 0.0
C876 C 0.23366 0.28894 0.37947 0.0
C877 C 0.27679 0.27141 0.32115 0.0
C878 C 0.21428 0.28061 0.33327 0.0
C879 C 0.22589 0.2678 0.28161 0.0
H880 H 0.49196 0.5333 0.65688 0.0
H881 H 0.50029 0.44256 0.58792 0.0
H882 H 0.52348 0.46269 0.4987 0.0
H883 H 0.54177 0.50574 0.44142 0.0
H884 H 0.53344 0.59647 0.51045 0.0
H885 H 0.51028 0.57633 0.59969 0.0
C886 C 0.49869 0.51777 0.62237 0.0
C887 C 0.4943 0.48631 0.62931 0.0
C888 C 0.51231 0.52947 0.57169 0.0
C889 C 0.50326 0.46678 0.58387 0.0
C890 C 0.51666 0.4783 0.53297 0.0
C891 C 0.53505 0.52126 0.47596 0.0
C892 C 0.53941 0.55273 0.46902 0.0
C893 C 0.52145 0.50956 0.52667 0.0
C894 C 0.53049 0.57225 0.5145 0.0
C895 C 0.51711 0.56073 0.5654 0.0
H896 H 0.28179 0.79438 0.69167 0.0
H897 H 0.19118 0.7874 0.7598 0.0
H898 H 0.21095 0.76422 0.84954 0.0
H899 H 0.25364 0.74559 0.90757 0.0
H900 H 0.34424 0.75258 0.83942 0.0
H901 H 0.32447 0.77572 0.74965 0.0
C902 C 0.26622 0.78795 0.72612 0.0
C903 C 0.23491 0.7927 0.7188 0.0
C904 C 0.2777 0.77435 0.77713 0.0
C905 C 0.2153 0.78413 0.76415 0.0
C906 C 0.2266 0.77075 0.81536 0.0
C907 C 0.2692 0.75201 0.87311 0.0
C908 C 0.30052 0.74728 0.88043 0.0
C909 C 0.25772 0.7656 0.82207 0.0
C910 C 0.32012 0.75584 0.83506 0.0
C911 C 0.30882 0.7692 0.78384 0.0
H912 H 0.04239 0.50481 0.15896 0.0
H913 H 0.03496 0.59545 0.08989 0.0
H914 H 1.01217 0.57528 0.99993 0.0
H915 H 0.99405 0.53225 0.94186 0.0
H916 H 1.00153 0.44158 0.01075 0.0
H917 H 0.02421 0.46174 0.10087 0.0
C918 C 0.03594 0.5203 0.12427 0.0
C919 C 0.04048 0.55175 0.13141 0.0
C920 C 0.02258 0.50858 0.07305 0.0
C921 C 0.03187 0.57124 0.08572 0.0
C922 C 0.01871 0.5597 0.03437 0.0
C923 C 1.00049 0.51675 0.97654 0.0
C924 C 0.99602 0.48529 0.96929 0.0
C925 C 1.01382 0.52845 0.02778 0.0
C926 C 1.00458 0.46579 0.01499 0.0
C927 C 1.01769 0.47733 0.06643 0.0
H928 H 0.78171 0.79228 0.90858 0.0
H929 H 0.6913 0.78494 0.83864 0.0
H930 H 0.71144 0.76234 0.74863 0.0
H931 H 0.75439 0.7443 0.69088 0.0
H932 H 0.84481 0.75166 0.7608 0.0
H933 H 0.82467 0.77424 0.85083 0.0
C934 C 0.76626 0.78589 0.87369 0.0
C935 C 0.73489 0.79037 0.88058 0.0
C936 C 0.77796 0.77263 0.8225 0.0
C937 C 0.71545 0.78187 0.83465 0.0
C938 C 0.72697 0.76882 0.78328 0.0
C939 C 0.76984 0.75069 0.72577 0.0
C940 C 0.80122 0.74622 0.71887 0.0
C941 C 0.75814 0.76395 0.77697 0.0
C942 C 0.82066 0.75473 0.76481 0.0
C943 C 0.80913 0.76776 0.81618 0.0
H944 H 0.78104 0.29505 0.18921 0.0
H945 H 0.69044 0.28783 0.25735 0.0
H946 H 0.71026 0.2647 0.34707 0.0
H947 H 0.75297 0.24609 0.40492 0.0
H948 H 0.84356 0.25325 0.33674 0.0
H949 H 0.82375 0.27645 0.24707 0.0
C950 C 0.76549 0.28859 0.22366 0.0
C951 C 0.73417 0.29323 0.21638 0.0
C952 C 0.77699 0.27499 0.27462 0.0
C953 C 0.71457 0.28463 0.26171 0.0
C954 C 0.7259 0.27127 0.31288 0.0
C955 C 0.76852 0.25257 0.37048 0.0
C956 C 0.79984 0.24788 0.37773 0.0
C957 C 0.75702 0.26618 0.31953 0.0
C958 C 0.81944 0.25648 0.3324 0.0
C959 C 0.80811 0.26988 0.28126 0.0
H960 H 0.03844 1.00478 0.94061 0.0
H961 H 0.02793 0.09566 1.00774 0.0
H962 H 1.00556 0.07547 0.09766 0.0
H963 H 0.98916 0.0323 0.15653 0.0
H964 H 0.99992 0.94139 0.0897 0.0
H965 H 0.02162 0.96161 0.99916 0.0
C966 C 0.03137 0.02032 0.97484 0.0
C967 C 0.03495 0.05182 0.96729 0.0
C968 C 0.01833 1.00858 0.02603 0.0
C969 C 0.02554 0.0714 0.01231 0.0
C970 C 1.01265 0.05985 0.06362 0.0
C971 C 0.9961 1.01676 0.12219 0.0
C972 C 0.99292 0.98524 0.13015 0.0
C973 C 1.00888 0.02851 0.07078 0.0
C974 C 1.00202 0.96566 0.08487 0.0
C975 C 1.01456 0.97723 0.03323 0.0
H976 H 0.54294 1.00473 0.65858 0.0
H977 H 0.53526 0.09543 0.58987 0.0
H978 H 0.51237 0.07533 0.49998 0.0
H979 H 0.49424 0.03238 0.44203 0.0
H980 H 0.50199 0.94162 0.51045 0.0
H981 H 0.52476 0.96171 0.60054 0.0
C982 C 0.53641 0.02024 0.62398 0.0
C983 C 0.54087 0.05168 0.63115 0.0
C984 C 0.523 1.00857 0.57286 0.0
C985 C 0.5322 0.07123 0.58562 0.0
C986 C 0.51899 0.05973 0.53433 0.0
C987 C 0.50076 1.01683 0.4766 0.0
C988 C 0.49636 0.98539 0.46928 0.0
C989 C 0.51414 0.02849 0.52773 0.0
C990 C 0.505 0.96583 0.51481 0.0
C991 C 0.51815 0.97732 0.56619 0.0
H992 H 0.23324 0.25381 0.7037 0.0
H993 H 0.25598 0.34504 0.75602 0.0
H994 H 0.28586 0.32519 0.83783 0.0
H995 H 0.30633 0.28219 0.89209 0.0
H996 H 0.28341 0.19098 0.84005 0.0
H997 H 0.25388 0.21081 0.75772 0.0
C998 C 0.24453 0.26949 0.73316 0.0
C999 C 0.24235 0.30096 0.72372 0.0
C1000 C 0.26227 0.25793 0.77878 0.0
C1001 C 0.25702 0.32081 0.76257 0.0
C1002 C 0.27441 0.30944 0.80883 0.0
C1003 C 0.29509 0.26653 0.86252 0.0
C1004 C 0.29706 0.23508 0.87225 0.0
C1005 C 0.27748 0.27808 0.81672 0.0
C1006 C 0.28253 0.2152 0.83325 0.0
C1007 C 0.26532 0.22656 0.78672 0.0
H1008 H 0.52999 0.4842 0.9531 0.0
H1009 H 0.43937 0.5073 1.00666 0.0
H1010 H 0.4597 0.53576 0.09017 0.0
H1011 H 0.50297 0.55513 0.14525 0.0
H1012 H 0.59357 0.53211 0.09142 0.0
H1013 H 0.57321 0.50361 1.00803 0.0
C1014 C 0.51454 0.49528 0.98317 0.0
C1015 C 0.48312 0.49363 0.97359 0.0
C1016 C 0.52637 0.51223 0.02974 0.0
C1017 C 0.46357 0.50796 0.01327 0.0
C1018 C 0.47521 0.52453 0.06052 0.0
C1019 C 0.51839 0.54407 0.11513 0.0
C1020 C 0.54983 0.54574 0.12461 0.0
C1021 C 0.50655 0.52713 0.06853 0.0
C1022 C 0.56936 0.53143 0.08489 0.0
C1023 C 0.55771 0.51484 0.0377 0.0
H1024 H 0.23143 0.75731 0.39424 0.0
H1025 H 0.25636 0.84785 0.3423 0.0
H1026 H 0.28492 0.82715 0.25955 0.0
H1027 H 0.30392 0.78355 0.20487 0.0
H1028 H 0.2791 0.69303 0.25712 0.0
H1029 H 0.25047 0.71375 0.3397 0.0
C1030 C 0.24292 0.77266 0.36467 0.0
C1031 C 0.24179 0.80416 0.37449 0.0
C1032 C 0.25995 0.7606 0.31863 0.0
C1033 C 0.25663 0.8236 0.33545 0.0
C1034 C 0.27326 0.81174 0.28867 0.0
C1035 C 0.29244 0.76822 0.2345 0.0
C1036 C 0.29363 0.73671 0.2248 0.0
C1037 C 0.27541 0.78029 0.28054 0.0
C1038 C 0.2788 0.71728 0.26388 0.0
C1039 C 0.26212 0.72915 0.31056 0.0
H1040 H 1.00524 0.55478 0.45509 0.0
H1041 H 0.09597 0.53214 0.50936 0.0
H1042 H 0.07576 0.50335 0.5921 0.0
H1043 H 0.03259 0.48342 0.64601 0.0
H1044 H 0.94188 0.50588 0.59126 0.0
H1045 H 0.96212 0.53487 0.5089 0.0
C1046 C 0.02074 0.54375 0.48515 0.0
C1047 C 0.05215 0.54557 0.47597 0.0
C1048 C 1.00899 0.52657 0.53118 0.0
C1049 C 0.07178 0.53132 0.51568 0.0
C1050 C 0.06021 0.51455 0.56246 0.0
C1051 C 1.01711 0.49446 0.6159 0.0
C1052 C 0.98568 0.4925 0.62483 0.0
C1053 C 0.02888 0.51168 0.56992 0.0
C1054 C 0.96608 0.5068 0.58514 0.0
C1055 C 0.97767 0.52367 0.53855 0.0
H1056 H 0.73181 0.75468 0.2048 0.0
H1057 H 0.75549 0.84558 0.25773 0.0
H1058 H 0.78452 0.82531 0.3403 0.0
H1059 H 0.80424 0.78203 0.39461 0.0
H1060 H 0.78058 0.69114 0.34163 0.0
H1061 H 0.75155 0.71141 0.25906 0.0
C1062 C 0.74312 0.77019 0.23456 0.0
C1063 C 0.7415 0.80167 0.22506 0.0
C1064 C 0.76041 0.75839 0.28054 0.0
C1065 C 0.75613 0.82133 0.26432 0.0
C1066 C 0.77303 0.80972 0.31101 0.0
C1067 C 0.79293 0.76652 0.36484 0.0
C1068 C 0.79455 0.73504 0.37433 0.0
C1069 C 0.77565 0.77832 0.31884 0.0
C1070 C 0.77993 0.71538 0.33505 0.0
C1071 C 0.76303 0.72699 0.28837 0.0
H1072 H 0.803 0.28328 0.70203 0.0
H1073 H 0.77868 0.19261 0.75423 0.0
H1074 H 0.75018 0.21317 0.83718 0.0
H1075 H 0.7311 0.25667 0.89204 0.0
H1076 H 0.75531 0.34732 0.8395 0.0
H1077 H 0.78385 0.32674 0.75666 0.0
C1078 C 0.79165 0.26788 0.73169 0.0
C1079 C 0.79294 0.23638 0.72189 0.0
C1080 C 0.77466 0.27984 0.77785 0.0
C1081 C 0.77828 0.21686 0.76105 0.0
C1082 C 0.76168 0.22864 0.80795 0.0
C1083 C 0.74243 0.27205 0.8623 0.0
C1084 C 0.7411 0.30356 0.87199 0.0
C1085 C 0.7594 0.26007 0.81609 0.0
C1086 C 0.75573 0.32306 0.83276 0.0
C1087 C 0.77235 0.31128 0.78592 0.0
H1088 H 0.03233 0.98037 0.45739 0.0
H1089 H 0.94281 1.01082 0.50382 0.0
H1090 H 0.96397 0.04082 0.58421 0.0
H1091 H 1.00743 0.05915 0.63878 0.0
H1092 H 0.09697 0.02731 0.5966 0.0
H1093 H 0.07621 0.99833 0.51377 0.0
C1094 C 1.01735 0.99335 0.48545 0.0
C1095 C 0.98596 0.99334 0.47468 0.0
C1096 C 0.02972 1.01095 0.53069 0.0
C1097 C 0.96693 1.01014 0.51154 0.0
C1098 C 0.97907 0.02762 0.55691 0.0
C1099 C 0.0226 0.04603 0.61137 0.0
C1100 C 0.05378 0.04532 0.62395 0.0
C1101 C 1.01039 0.02845 0.5662 0.0
C1102 C 0.073 0.0285 0.58751 0.0
C1103 C 0.06105 1.01158 0.54085 0.0
H1104 H 0.50595 0.05528 0.95538 0.0
H1105 H 0.59648 0.031 1.00817 0.0
H1106 H 0.57609 1.00234 0.09092 0.0
H1107 H 0.53277 0.98303 0.14538 0.0
H1108 H 0.44226 1.00715 0.09213 0.0
H1109 H 0.46268 0.03597 1.0097 0.0
C1110 C 0.52137 0.04391 0.98513 0.0
C1111 C 0.55278 0.04526 0.97552 0.0
C1112 C 0.50949 0.02682 0.03119 0.0
C1113 C 0.5723 0.03056 0.01481 0.0
C1114 C 0.56062 1.01387 0.06161 0.0
C1115 C 0.51737 0.99439 0.11558 0.0
C1116 C 0.48594 0.99293 0.12495 0.0
C1117 C 0.52927 1.01151 0.06954 0.0
C1118 C 0.46645 1.00765 0.08565 0.0
C1119 C 0.47815 0.02444 0.03902 0.0
loop_
_geom_bond_atom_site_label_1
_geom_bond_atom_site_label_2
_geom_bond_distance
_geom_bond_site_symmetry_2
_ccdc_geom_bond_type
Fe0 O2 1.918 . S
Fe0 O5 1.997 . S
Fe0 O6 2.002 1_554 S
Fe0 O11 1.976 . S
Fe0 O14 1.996 . S
Fe1 O2 1.918 1_556 S
Fe1 O9 1.997 . S
Fe1 O12 1.996 . S
Fe1 O16 1.976 1_556 S
Fe1 O19 2.002 . S
O2 Fe0 1.918 . S
O2 Fe1 1.918 1_554 S
O2 Fe3 1.918 . S
Fe3 O2 1.918 . S
Fe3 O4 2.002 . S
Fe3 O13 1.976 . S
Fe3 O17 1.996 . S
Fe3 O20 1.997 . S
O4 Fe3 2.002 . S
O4 C21 1.295 . S
O5 Fe0 1.997 . S
O5 C21 1.235 . S
O6 Fe0 2.002 1_556 S
O6 C7 1.295 . S
C7 O6 1.295 . S
C7 O9 1.235 . S
C8 O13 1.287 . S
C8 O14 1.255 . S
O9 Fe1 1.997 . S
O9 C7 1.235 . S
C10 O16 1.287 . S
C10 O17 1.255 . S
O11 Fe0 1.976 . S
O11 C18 1.287 . S
O12 Fe1 1.996 . S
O12 C18 1.255 1_556 S
O13 Fe3 1.976 . S
O13 C8 1.287 . S
O14 Fe0 1.996 . S
O14 C8 1.255 . S
C15 O19 1.295 . S
C15 O20 1.235 1_556 S
O16 Fe1 1.976 1_554 S
O16 C10 1.287 . S
O17 Fe3 1.996 . S
O17 C10 1.255 . S
C18 O11 1.287 . S
C18 O12 1.255 1_554 S
O19 Fe1 2.002 . S
O19 C15 1.295 . S
O20 Fe3 1.997 . S
O20 C15 1.235 1_554 S
C21 O4 1.295 . S
C21 O5 1.235 . S
Fe22 O24 1.918 . S
Fe22 O27 1.997 . S
Fe22 O28 2.002 . S
Fe22 O33 1.976 . S
Fe22 O36 1.996 . S
Fe23 O24 1.918 . S
Fe23 O31 1.997 . S
Fe23 O34 1.996 . S
Fe23 O38 1.976 . S
Fe23 O41 2.002 . S
O24 Fe22 1.918 . S
O24 Fe23 1.918 . S
O24 Fe25 1.918 . S
Fe25 O24 1.918 . S
Fe25 O26 2.002 . S
Fe25 O35 1.976 . S
Fe25 O39 1.996 . S
Fe25 O42 1.997 . S
O26 Fe25 2.002 . S
O26 C43 1.295 . S
O27 Fe22 1.997 . S
O27 C43 1.235 . S
O28 Fe22 2.002 . S
O28 C29 1.295 . S
C29 O28 1.295 . S
C29 O31 1.235 . S
C30 O35 1.287 . S
C30 O36 1.255 . S
O31 Fe23 1.997 . S
O31 C29 1.235 . S
C32 O38 1.287 . S
C32 O39 1.255 . S
O33 Fe22 1.976 . S
O33 C40 1.287 . S
O34 Fe23 1.996 . S
O34 C40 1.255 . S
O35 Fe25 1.976 . S
O35 C30 1.287 . S
O36 Fe22 1.996 . S
O36 C30 1.255 . S
C37 O41 1.295 . S
C37 O42 1.235 . S
O38 Fe23 1.976 . S
O38 C32 1.287 . S
O39 Fe25 1.996 . S
O39 C32 1.255 . S
C40 O33 1.287 . S
C40 O34 1.255 . S
O41 Fe23 2.002 . S
O41 C37 1.295 . S
O42 Fe25 1.997 . S
O42 C37 1.235 . S
C43 O26 1.295 . S
C43 O27 1.235 . S
Fe44 O46 1.918 . S
Fe44 O49 1.997 . S
Fe44 O50 2.002 . S
Fe44 O55 1.976 . S
Fe44 O58 1.996 . S
Fe45 O46 1.918 . S
Fe45 O53 1.997 . S
Fe45 O56 1.996 . S
Fe45 O60 1.976 . S
Fe45 O63 2.002 . S
O46 Fe44 1.918 . S
O46 Fe45 1.918 . S
O46 Fe47 1.918 . S
Fe47 O46 1.918 . S
Fe47 O48 2.002 . S
Fe47 O57 1.976 . S
Fe47 O61 1.996 . S
Fe47 O64 1.997 . S
O48 Fe47 2.002 . S
O48 C65 1.295 . S
O49 Fe44 1.997 . S
O49 C65 1.235 . S
O50 Fe44 2.002 . S
O50 C51 1.295 . S
C51 O50 1.295 . S
C51 O53 1.235 . S
C52 O57 1.287 . S
C52 O58 1.255 . S
O53 Fe45 1.997 . S
O53 C51 1.235 . S
C54 O60 1.287 . S
C54 O61 1.255 . S
O55 Fe44 1.976 . S
O55 C62 1.287 . S
O56 Fe45 1.996 . S
O56 C62 1.255 . S
O57 Fe47 1.976 . S
O57 C52 1.287 . S
O58 Fe44 1.996 . S
O58 C52 1.255 . S
C59 O63 1.295 . S
C59 O64 1.235 . S
O60 Fe45 1.976 . S
O60 C54 1.287 . S
O61 Fe47 1.996 . S
O61 C54 1.255 . S
C62 O55 1.287 . S
C62 O56 1.255 . S
O63 Fe45 2.002 . S
O63 C59 1.295 . S
O64 Fe47 1.997 . S
O64 C59 1.235 . S
C65 O48 1.295 . S
C65 O49 1.235 . S
Fe66 O68 1.918 . S
Fe66 O71 1.997 1_655 S
Fe66 O72 2.002 . S
Fe66 O77 1.976 . S
Fe66 O80 1.996 . S
Fe67 O68 1.918 . S
Fe67 O75 1.997 . S
Fe67 O78 1.996 . S
Fe67 O82 1.976 . S
Fe67 O85 2.002 . S
O68 Fe66 1.918 . S
O68 Fe67 1.918 . S
O68 Fe69 1.918 . S
Fe69 O68 1.918 . S
Fe69 O70 2.002 . S
Fe69 O79 1.976 . S
Fe69 O83 1.996 . S
Fe69 O86 1.997 . S
O70 Fe69 2.002 . S
O70 C87 1.295 1_655 S
O71 Fe66 1.997 1_455 S
O71 C87 1.235 . S
O72 Fe66 2.002 . S
O72 C73 1.295 . S
C73 O72 1.295 . S
C73 O75 1.235 . S
C74 O79 1.287 . S
C74 O80 1.255 . S
O75 Fe67 1.997 . S
O75 C73 1.235 . S
C76 O82 1.287 . S
C76 O83 1.255 . S
O77 Fe66 1.976 . S
O77 C84 1.287 . S
O78 Fe67 1.996 . S
O78 C84 1.255 . S
O79 Fe69 1.976 . S
O79 C74 1.287 . S
O80 Fe66 1.996 . S
O80 C74 1.255 . S
C81 O85 1.295 . S
C81 O86 1.235 . S
O82 Fe67 1.976 . S
O82 C76 1.287 . S
O83 Fe69 1.996 . S
O83 C76 1.255 . S
C84 O77 1.287 . S
C84 O78 1.255 . S
O85 Fe67 2.002 . S
O85 C81 1.295 . S
O86 Fe69 1.997 . S
O86 C81 1.235 . S
C87 O70 1.295 1_455 S
C87 O71 1.235 . S
Fe88 O90 1.918 . S
Fe88 O93 1.997 . S
Fe88 O94 2.002 . S
Fe88 O99 1.976 . S
Fe88 O102 1.996 . S
Fe89 O90 1.918 . S
Fe89 O97 1.997 . S
Fe89 O100 1.996 1_554 S
Fe89 O104 1.976 1_554 S
Fe89 O107 2.002 . S
O90 Fe88 1.918 . S
O90 Fe89 1.918 . S
O90 Fe91 1.918 . S
Fe91 O90 1.918 . S
Fe91 O92 2.002 . S
Fe91 O101 1.976 . S
Fe91 O105 1.996 1_554 S
Fe91 O108 1.997 . S
O92 Fe91 2.002 . S
O92 C109 1.295 . S
O93 Fe88 1.997 . S
O93 C109 1.235 . S
O94 Fe88 2.002 . S
O94 C95 1.295 . S
C95 O94 1.295 . S
C95 O97 1.235 . S
C96 O101 1.287 . S
C96 O102 1.255 . S
O97 Fe89 1.997 . S
O97 C95 1.235 . S
C98 O104 1.287 . S
C98 O105 1.255 . S
O99 Fe88 1.976 . S
O99 C106 1.287 1_554 S
O100 Fe89 1.996 1_556 S
O100 C106 1.255 . S
O101 Fe91 1.976 . S
O101 C96 1.287 . S
O102 Fe88 1.996 . S
O102 C96 1.255 . S
C103 O107 1.295 . S
C103 O108 1.235 . S
O104 Fe89 1.976 1_556 S
O104 C98 1.287 . S
O105 Fe91 1.996 1_556 S
O105 C98 1.255 . S
C106 O99 1.287 1_556 S
C106 O100 1.255 . S
O107 Fe89 2.002 . S
O107 C103 1.295 . S
O108 Fe91 1.997 . S
O108 C103 1.235 . S
C109 O92 1.295 . S
C109 O93 1.235 . S
Fe110 O112 1.918 . S
Fe110 O115 1.997 . S
Fe110 O116 2.002 . S
Fe110 O121 1.976 . S
Fe110 O124 1.996 . S
Fe111 O112 1.918 . S
Fe111 O119 1.997 . S
Fe111 O122 1.996 . S
Fe111 O126 1.976 . S
Fe111 O129 2.002 . S
O112 Fe110 1.918 . S
O112 Fe111 1.918 . S
O112 Fe113 1.918 . S
Fe113 O112 1.918 . S
Fe113 O114 2.002 . S
Fe113 O123 1.976 . S
Fe113 O127 1.996 . S
Fe113 O130 1.997 . S
O114 Fe113 2.002 . S
O114 C131 1.295 . S
O115 Fe110 1.997 . S
O115 C131 1.235 . S
O116 Fe110 2.002 . S
O116 C117 1.295 . S
C117 O116 1.295 . S
C117 O119 1.235 . S
C118 O123 1.287 . S
C118 O124 1.255 . S
O119 Fe111 1.997 . S
O119 C117 1.235 . S
C120 O126 1.287 . S
C120 O127 1.255 . S
O121 Fe110 1.976 . S
O121 C128 1.287 . S
O122 Fe111 1.996 . S
O122 C128 1.255 . S
O123 Fe113 1.976 . S
O123 C118 1.287 . S
O124 Fe110 1.996 . S
O124 C118 1.255 . S
C125 O129 1.295 . S
C125 O130 1.235 . S
O126 Fe111 1.976 . S
O126 C120 1.287 . S
O127 Fe113 1.996 . S
O127 C120 1.255 . S
C128 O121 1.287 . S
C128 O122 1.255 . S
O129 Fe111 2.002 . S
O129 C125 1.295 . S
O130 Fe113 1.997 . S
O130 C125 1.235 . S
C131 O114 1.295 . S
C131 O115 1.235 . S
Fe132 O134 1.918 . S
Fe132 O137 1.997 . S
Fe132 O138 2.002 . S
Fe132 O143 1.976 . S
Fe132 O146 1.996 . S
Fe133 O134 1.918 . S
Fe133 O141 1.997 . S
Fe133 O144 1.996 . S
Fe133 O148 1.976 . S
Fe133 O151 2.002 . S
O134 Fe132 1.918 . S
O134 Fe133 1.918 . S
O134 Fe135 1.918 . S
Fe135 O134 1.918 . S
Fe135 O136 2.002 . S
Fe135 O145 1.976 . S
Fe135 O149 1.996 . S
Fe135 O152 1.997 . S
O136 Fe135 2.002 . S
O136 C153 1.295 . S
O137 Fe132 1.997 . S
O137 C153 1.235 . S
O138 Fe132 2.002 . S
O138 C139 1.295 . S
C139 O138 1.295 . S
C139 O141 1.235 . S
C140 O145 1.287 . S
C140 O146 1.255 . S
O141 Fe133 1.997 . S
O141 C139 1.235 . S
C142 O148 1.287 . S
C142 O149 1.255 . S
O143 Fe132 1.976 . S
O143 C150 1.287 . S
O144 Fe133 1.996 . S
O144 C150 1.255 . S
O145 Fe135 1.976 . S
O145 C140 1.287 . S
O146 Fe132 1.996 . S
O146 C140 1.255 . S
C147 O151 1.295 . S
C147 O152 1.235 . S
O148 Fe133 1.976 . S
O148 C142 1.287 . S
O149 Fe135 1.996 . S
O149 C142 1.255 . S
C150 O143 1.287 . S
C150 O144 1.255 . S
O151 Fe133 2.002 . S
O151 C147 1.295 . S
O152 Fe135 1.997 . S
O152 C147 1.235 . S
C153 O136 1.295 . S
C153 O137 1.235 . S
Fe154 O156 1.918 . S
Fe154 O159 1.997 1_455 S
Fe154 O160 2.002 . S
Fe154 O165 1.976 . S
Fe154 O168 1.996 . S
Fe155 O156 1.918 . S
Fe155 O163 1.997 . S
Fe155 O166 1.996 . S
Fe155 O170 1.976 . S
Fe155 O173 2.002 . S
O156 Fe154 1.918 . S
O156 Fe155 1.918 . S
O156 Fe157 1.918 . S
Fe157 O156 1.918 . S
Fe157 O158 2.002 . S
Fe157 O167 1.976 . S
Fe157 O171 1.996 . S
Fe157 O174 1.997 . S
O158 Fe157 2.002 . S
O158 C175 1.295 1_455 S
O159 Fe154 1.997 1_655 S
O159 C175 1.235 . S
O160 Fe154 2.002 . S
O160 C161 1.295 . S
C161 O160 1.295 . S
C161 O163 1.235 . S
C162 O167 1.287 . S
C162 O168 1.255 . S
O163 Fe155 1.997 . S
O163 C161 1.235 . S
C164 O170 1.287 . S
C164 O171 1.255 . S
O165 Fe154 1.976 . S
O165 C172 1.287 . S
O166 Fe155 1.996 . S
O166 C172 1.255 . S
O167 Fe157 1.976 . S
O167 C162 1.287 . S
O168 Fe154 1.996 . S
O168 C162 1.255 . S
C169 O173 1.295 . S
C169 O174 1.235 . S
O170 Fe155 1.976 . S
O170 C164 1.287 . S
O171 Fe157 1.996 . S
O171 C164 1.255 . S
C172 O165 1.287 . S
C172 O166 1.255 . S
O173 Fe155 2.002 . S
O173 C169 1.295 . S
O174 Fe157 1.997 . S
O174 C169 1.235 . S
C175 O158 1.295 1_655 S
C175 O159 1.235 . S
Fe176 O178 1.918 . S
Fe176 O181 1.997 . S
Fe176 O182 2.002 . S
Fe176 O187 1.976 . S
Fe176 O190 1.996 . S
Fe177 O178 1.918 . S
Fe177 O185 1.997 . S
Fe177 O188 1.996 . S
Fe177 O192 1.976 . S
Fe177 O195 2.002 . S
O178 Fe176 1.918 . S
O178 Fe177 1.918 . S
O178 Fe179 1.918 . S
Fe179 O178 1.918 . S
Fe179 O180 2.002 . S
Fe179 O189 1.976 . S
Fe179 O193 1.996 . S
Fe179 O196 1.997 . S
O180 Fe179 2.002 . S
O180 C197 1.295 . S
O181 Fe176 1.997 . S
O181 C197 1.235 . S
O182 Fe176 2.002 . S
O182 C183 1.295 . S
C183 O182 1.295 . S
C183 O185 1.235 . S
C184 O189 1.287 . S
C184 O190 1.255 . S
O185 Fe177 1.997 . S
O185 C183 1.235 . S
C186 O192 1.287 . S
C186 O193 1.255 . S
O187 Fe176 1.976 . S
O187 C194 1.287 . S
O188 Fe177 1.996 . S
O188 C194 1.255 . S
O189 Fe179 1.976 . S
O189 C184 1.287 . S
O190 Fe176 1.996 . S
O190 C184 1.255 . S
C191 O195 1.295 . S
C191 O196 1.235 . S
O192 Fe177 1.976 . S
O192 C186 1.287 . S
O193 Fe179 1.996 . S
O193 C186 1.255 . S
C194 O187 1.287 . S
C194 O188 1.255 . S
O195 Fe177 2.002 . S
O195 C191 1.295 . S
O196 Fe179 1.997 . S
O196 C191 1.235 . S
C197 O180 1.295 . S
C197 O181 1.235 . S
Fe198 O200 1.918 . S
Fe198 O203 1.997 1_455 S
Fe198 O204 2.002 . S
Fe198 O209 1.976 1_545 S
Fe198 O212 1.996 . S
Fe199 O200 1.918 . S
Fe199 O207 1.997 . S
Fe199 O210 1.996 . S
Fe199 O214 1.976 . S
Fe199 O217 2.002 . S
O200 Fe198 1.918 . S
O200 Fe199 1.918 . S
O200 Fe201 1.918 . S
Fe201 O200 1.918 . S
Fe201 O202 2.002 . S
Fe201 O211 1.976 . S
Fe201 O215 1.996 . S
Fe201 O218 1.997 . S
O202 Fe201 2.002 . S
O202 C219 1.295 1_455 S
O203 Fe198 1.997 1_655 S
O203 C219 1.235 . S
O204 Fe198 2.002 . S
O204 C205 1.295 . S
C205 O204 1.295 . S
C205 O207 1.235 . S
C206 O211 1.287 . S
C206 O212 1.255 . S
O207 Fe199 1.997 . S
O207 C205 1.235 . S
C208 O214 1.287 . S
C208 O215 1.255 . S
O209 Fe198 1.976 1_565 S
O209 C216 1.287 . S
O210 Fe199 1.996 . S
O210 C216 1.255 1_545 S
O211 Fe201 1.976 . S
O211 C206 1.287 . S
O212 Fe198 1.996 . S
O212 C206 1.255 . S
C213 O217 1.295 . S
C213 O218 1.235 . S
O214 Fe199 1.976 . S
O214 C208 1.287 . S
O215 Fe201 1.996 . S
O215 C208 1.255 . S
C216 O209 1.287 . S
C216 O210 1.255 1_565 S
O217 Fe199 2.002 . S
O217 C213 1.295 . S
O218 Fe201 1.997 . S
O218 C213 1.235 . S
C219 O202 1.295 1_655 S
C219 O203 1.235 . S
Fe220 O222 1.918 . S
Fe220 O225 1.997 . S
Fe220 O226 2.002 1_554 S
Fe220 O231 1.976 . S
Fe220 O234 1.996 . S
Fe221 O222 1.918 1_556 S
Fe221 O229 1.997 . S
Fe221 O232 1.996 . S
Fe221 O236 1.976 1_556 S
Fe221 O239 2.002 . S
O222 Fe220 1.918 . S
O222 Fe221 1.918 1_554 S
O222 Fe223 1.918 . S
Fe223 O222 1.918 . S
Fe223 O224 2.002 . S
Fe223 O233 1.976 . S
Fe223 O237 1.996 . S
Fe223 O240 1.997 . S
O224 Fe223 2.002 . S
O224 C241 1.295 . S
O225 Fe220 1.997 . S
O225 C241 1.235 . S
O226 Fe220 2.002 1_556 S
O226 C227 1.295 . S
C227 O226 1.295 . S
C227 O229 1.235 . S
C228 O233 1.287 . S
C228 O234 1.255 . S
O229 Fe221 1.997 . S
O229 C227 1.235 . S
C230 O236 1.287 . S
C230 O237 1.255 . S
O231 Fe220 1.976 . S
O231 C238 1.287 . S
O232 Fe221 1.996 . S
O232 C238 1.255 1_556 S
O233 Fe223 1.976 . S
O233 C228 1.287 . S
O234 Fe220 1.996 . S
O234 C228 1.255 . S
C235 O239 1.295 . S
C235 O240 1.235 1_556 S
O236 Fe221 1.976 1_554 S
O236 C230 1.287 . S
O237 Fe223 1.996 . S
O237 C230 1.255 . S
C238 O231 1.287 . S
C238 O232 1.255 1_554 S
O239 Fe221 2.002 . S
O239 C235 1.295 . S
O240 Fe223 1.997 . S
O240 C235 1.235 1_554 S
C241 O224 1.295 . S
C241 O225 1.235 . S
Fe242 O244 1.918 . S
Fe242 O247 1.997 . S
Fe242 O248 2.002 . S
Fe242 O253 1.976 1_565 S
Fe242 O256 1.996 . S
Fe243 O244 1.918 . S
Fe243 O251 1.997 . S
Fe243 O254 1.996 . S
Fe243 O258 1.976 . S
Fe243 O261 2.002 . S
O244 Fe242 1.918 . S
O244 Fe243 1.918 . S
O244 Fe245 1.918 . S
Fe245 O244 1.918 . S
Fe245 O246 2.002 . S
Fe245 O255 1.976 . S
Fe245 O259 1.996 . S
Fe245 O262 1.997 . S
O246 Fe245 2.002 . S
O246 C263 1.295 . S
O247 Fe242 1.997 . S
O247 C263 1.235 . S
O248 Fe242 2.002 . S
O248 C249 1.295 . S
C249 O248 1.295 . S
C249 O251 1.235 . S
C250 O255 1.287 . S
C250 O256 1.255 . S
O251 Fe243 1.997 . S
O251 C249 1.235 . S
C252 O258 1.287 . S
C252 O259 1.255 . S
O253 Fe242 1.976 1_545 S
O253 C260 1.287 . S
O254 Fe243 1.996 . S
O254 C260 1.255 1_565 S
O255 Fe245 1.976 . S
O255 C250 1.287 . S
O256 Fe242 1.996 . S
O256 C250 1.255 . S
C257 O261 1.295 . S
C257 O262 1.235 . S
O258 Fe243 1.976 . S
O258 C252 1.287 . S
O259 Fe245 1.996 . S
O259 C252 1.255 . S
C260 O253 1.287 . S
C260 O254 1.255 1_545 S
O261 Fe243 2.002 . S
O261 C257 1.295 . S
O262 Fe245 1.997 . S
O262 C257 1.235 . S
C263 O246 1.295 . S
C263 O247 1.235 . S
Fe264 O266 1.918 . S
Fe264 O269 1.997 . S
Fe264 O270 2.002 . S
Fe264 O275 1.976 . S
Fe264 O278 1.996 . S
Fe265 O266 1.918 . S
Fe265 O273 1.997 . S
Fe265 O276 1.996 . S
Fe265 O280 1.976 . S
Fe265 O283 2.002 . S
O266 Fe264 1.918 . S
O266 Fe265 1.918 . S
O266 Fe267 1.918 . S
Fe267 O266 1.918 . S
Fe267 O268 2.002 . S
Fe267 O277 1.976 . S
Fe267 O281 1.996 . S
Fe267 O284 1.997 . S
O268 Fe267 2.002 . S
O268 C285 1.295 . S
O269 Fe264 1.997 . S
O269 C285 1.235 . S
O270 Fe264 2.002 . S
O270 C271 1.295 . S
C271 O270 1.295 . S
C271 O273 1.235 . S
C272 O277 1.287 . S
C272 O278 1.255 . S
O273 Fe265 1.997 . S
O273 C271 1.235 . S
C274 O280 1.287 . S
C274 O281 1.255 . S
O275 Fe264 1.976 . S
O275 C282 1.287 . S
O276 Fe265 1.996 . S
O276 C282 1.255 . S
O277 Fe267 1.976 . S
O277 C272 1.287 . S
O278 Fe264 1.996 . S
O278 C272 1.255 . S
C279 O283 1.295 . S
C279 O284 1.235 . S
O280 Fe265 1.976 . S
O280 C274 1.287 . S
O281 Fe267 1.996 . S
O281 C274 1.255 . S
C282 O275 1.287 . S
C282 O276 1.255 . S
O283 Fe265 2.002 . S
O283 C279 1.295 . S
O284 Fe267 1.997 . S
O284 C279 1.235 . S
C285 O268 1.295 . S
C285 O269 1.235 . S
Fe286 O288 1.918 . S
Fe286 O291 1.997 1_655 S
Fe286 O292 2.002 . S
Fe286 O297 1.976 1_565 S
Fe286 O300 1.996 . S
Fe287 O288 1.918 . S
Fe287 O295 1.997 . S
Fe287 O298 1.996 . S
Fe287 O302 1.976 . S
Fe287 O305 2.002 . S
O288 Fe286 1.918 . S
O288 Fe287 1.918 . S
O288 Fe289 1.918 . S
Fe289 O288 1.918 . S
Fe289 O290 2.002 . S
Fe289 O299 1.976 . S
Fe289 O303 1.996 . S
Fe289 O306 1.997 . S
O290 Fe289 2.002 . S
O290 C307 1.295 1_655 S
O291 Fe286 1.997 1_455 S
O291 C307 1.235 . S
O292 Fe286 2.002 . S
O292 C293 1.295 . S
C293 O292 1.295 . S
C293 O295 1.235 . S
C294 O299 1.287 . S
C294 O300 1.255 . S
O295 Fe287 1.997 . S
O295 C293 1.235 . S
C296 O302 1.287 . S
C296 O303 1.255 . S
O297 Fe286 1.976 1_545 S
O297 C304 1.287 . S
O298 Fe287 1.996 . S
O298 C304 1.255 1_565 S
O299 Fe289 1.976 . S
O299 C294 1.287 . S
O300 Fe286 1.996 . S
O300 C294 1.255 . S
C301 O305 1.295 . S
C301 O306 1.235 . S
O302 Fe287 1.976 . S
O302 C296 1.287 . S
O303 Fe289 1.996 . S
O303 C296 1.255 . S
C304 O297 1.287 . S
C304 O298 1.255 1_545 S
O305 Fe287 2.002 . S
O305 C301 1.295 . S
O306 Fe289 1.997 . S
O306 C301 1.235 . S
C307 O290 1.295 1_455 S
C307 O291 1.235 . S
Fe308 O310 1.918 . S
Fe308 O313 1.997 . S
Fe308 O314 2.002 . S
Fe308 O319 1.976 . S
Fe308 O322 1.996 1_554 S
Fe309 O310 1.918 . S
Fe309 O317 1.997 . S
Fe309 O320 1.996 . S
Fe309 O324 1.976 . S
Fe309 O327 2.002 . S
O310 Fe308 1.918 . S
O310 Fe309 1.918 . S
O310 Fe311 1.918 . S
Fe311 O310 1.918 . S
Fe311 O312 2.002 . S
Fe311 O321 1.976 1_554 S
Fe311 O325 1.996 1_554 S
Fe311 O328 1.997 . S
O312 Fe311 2.002 . S
O312 C329 1.295 . S
O313 Fe308 1.997 . S
O313 C329 1.235 . S
O314 Fe308 2.002 . S
O314 C315 1.295 . S
C315 O314 1.295 . S
C315 O317 1.235 . S
C316 O321 1.287 . S
C316 O322 1.255 . S
O317 Fe309 1.997 . S
O317 C315 1.235 . S
C318 O324 1.287 1_556 S
C318 O325 1.255 . S
O319 Fe308 1.976 . S
O319 C326 1.287 . S
O320 Fe309 1.996 . S
O320 C326 1.255 . S
O321 Fe311 1.976 1_556 S
O321 C316 1.287 . S
O322 Fe308 1.996 1_556 S
O322 C316 1.255 . S
C323 O327 1.295 . S
C323 O328 1.235 . S
O324 Fe309 1.976 . S
O324 C318 1.287 1_554 S
O325 Fe311 1.996 1_556 S
O325 C318 1.255 . S
C326 O319 1.287 . S
C326 O320 1.255 . S
O327 Fe309 2.002 . S
O327 C323 1.295 . S
O328 Fe311 1.997 . S
O328 C323 1.235 . S
C329 O312 1.295 . S
C329 O313 1.235 . S
Fe330 O332 1.918 . S
Fe330 O335 1.997 . S
Fe330 O336 2.002 . S
Fe330 O341 1.976 1_545 S
Fe330 O344 1.996 . S
Fe331 O332 1.918 . S
Fe331 O339 1.997 . S
Fe331 O342 1.996 . S
Fe331 O346 1.976 . S
Fe331 O349 2.002 . S
O332 Fe330 1.918 . S
O332 Fe331 1.918 . S
O332 Fe333 1.918 . S
Fe333 O332 1.918 . S
Fe333 O334 2.002 . S
Fe333 O343 1.976 . S
Fe333 O347 1.996 . S
Fe333 O350 1.997 . S
O334 Fe333 2.002 . S
O334 C351 1.295 . S
O335 Fe330 1.997 . S
O335 C351 1.235 . S
O336 Fe330 2.002 . S
O336 C337 1.295 . S
C337 O336 1.295 . S
C337 O339 1.235 . S
C338 O343 1.287 . S
C338 O344 1.255 . S
O339 Fe331 1.997 . S
O339 C337 1.235 . S
C340 O346 1.287 . S
C340 O347 1.255 . S
O341 Fe330 1.976 1_565 S
O341 C348 1.287 . S
O342 Fe331 1.996 . S
O342 C348 1.255 1_545 S
O343 Fe333 1.976 . S
O343 C338 1.287 . S
O344 Fe330 1.996 . S
O344 C338 1.255 . S
C345 O349 1.295 . S
C345 O350 1.235 . S
O346 Fe331 1.976 . S
O346 C340 1.287 . S
O347 Fe333 1.996 . S
O347 C340 1.255 . S
C348 O341 1.287 . S
C348 O342 1.255 1_565 S
O349 Fe331 2.002 . S
O349 C345 1.295 . S
O350 Fe333 1.997 . S
O350 C345 1.235 . S
C351 O334 1.295 . S
C351 O335 1.235 . S
H352 C358 0.930 1_554 S
H353 C361 0.930 . S
H354 C362 0.930 . S
H355 C363 0.930 . S
H356 C366 0.930 . S
H357 C367 0.930 . S
C358 H352 0.930 1_556 S
C358 C359 1.355 . S
C358 C360 1.415 . S
C359 C358 1.355 . S
C359 C361 1.419 . S
C360 C358 1.415 . S
C360 C365 1.425 . S
C360 C367 1.409 . S
C361 H353 0.930 . S
C361 C359 1.419 . S
C361 C362 1.362 . S
C362 H354 0.930 . S
C362 C361 1.362 . S
C362 C365 1.409 . S
C363 H355 0.930 . S
C363 C364 1.355 . S
C363 C365 1.415 . S
C364 C363 1.355 . S
C364 C366 1.419 . S
C365 C360 1.425 . S
C365 C362 1.409 . S
C365 C363 1.415 . S
C366 H356 0.930 . S
C366 C364 1.419 . S
C366 C367 1.362 . S
C367 H357 0.930 . S
C367 C360 1.409 . S
C367 C366 1.362 . S
H368 C374 0.930 . S
H369 C377 0.930 . S
H370 C378 0.930 . S
H371 C379 0.930 . S
H372 C382 0.930 . S
H373 C383 0.930 . S
C374 H368 0.930 . S
C374 C375 1.355 . S
C374 C376 1.415 . S
C375 C374 1.355 . S
C375 C377 1.419 . S
C376 C374 1.415 . S
C376 C381 1.425 . S
C376 C383 1.409 . S
C377 H369 0.930 . S
C377 C375 1.419 . S
C377 C378 1.362 . S
C378 H370 0.930 . S
C378 C377 1.362 . S
C378 C381 1.409 . S
C379 H371 0.930 . S
C379 C380 1.355 . S
C379 C381 1.415 . S
C380 C379 1.355 . S
C380 C382 1.419 . S
C381 C376 1.425 . S
C381 C378 1.409 . S
C381 C379 1.415 . S
C382 H372 0.930 . S
C382 C380 1.419 . S
C382 C383 1.362 . S
C383 H373 0.930 . S
C383 C376 1.409 . S
C383 C382 1.362 . S
H384 C390 0.930 . S
H385 C393 0.930 . S
H386 C394 0.930 . S
H387 C395 0.930 . S
H388 C398 0.930 . S
H389 C399 0.930 . S
C390 H384 0.930 . S
C390 C391 1.355 . S
C390 C392 1.415 . S
C391 C390 1.355 . S
C391 C393 1.419 . S
C392 C390 1.415 . S
C392 C397 1.425 . S
C392 C399 1.409 . S
C393 H385 0.930 . S
C393 C391 1.419 . S
C393 C394 1.362 . S
C394 H386 0.930 . S
C394 C393 1.362 . S
C394 C397 1.409 . S
C395 H387 0.930 . S
C395 C396 1.355 . S
C395 C397 1.415 . S
C396 C395 1.355 . S
C396 C398 1.419 . S
C397 C392 1.425 . S
C397 C394 1.409 . S
C397 C395 1.415 . S
C398 H388 0.930 . S
C398 C396 1.419 . S
C398 C399 1.362 . S
C399 H389 0.930 . S
C399 C392 1.409 . S
C399 C398 1.362 . S
H400 C406 0.930 . S
H401 C409 0.930 . S
H402 C410 0.930 . S
H403 C411 0.930 . S
H404 C414 0.930 . S
H405 C415 0.930 . S
C406 H400 0.930 . S
C406 C407 1.355 . S
C406 C408 1.415 . S
C407 C406 1.355 . S
C407 C409 1.419 . S
C408 C406 1.415 . S
C408 C413 1.425 . S
C408 C415 1.409 . S
C409 H401 0.930 . S
C409 C407 1.419 . S
C409 C410 1.362 . S
C410 H402 0.930 . S
C410 C409 1.362 . S
C410 C413 1.409 . S
C411 H403 0.930 . S
C411 C412 1.355 . S
C411 C413 1.415 . S
C412 C411 1.355 . S
C412 C414 1.419 . S
C413 C408 1.425 . S
C413 C410 1.409 . S
C413 C411 1.415 . S
C414 H404 0.930 . S
C414 C412 1.419 . S
C414 C415 1.362 . S
C415 H405 0.930 . S
C415 C408 1.409 . S
C415 C414 1.362 . S
H416 C422 0.930 . S
H417 C425 0.930 . S
H418 C426 0.930 . S
H419 C427 0.930 . S
H420 C430 0.930 . S
H421 C431 0.930 . S
C422 H416 0.930 . S
C422 C423 1.355 . S
C422 C424 1.415 . S
C423 C422 1.355 . S
C423 C425 1.419 . S
C424 C422 1.415 . S
C424 C429 1.425 . S
C424 C431 1.409 . S
C425 H417 0.930 . S
C425 C423 1.419 . S
C425 C426 1.362 . S
C426 H418 0.930 . S
C426 C425 1.362 . S
C426 C429 1.409 . S
C427 H419 0.930 . S
C427 C428 1.355 . S
C427 C429 1.415 . S
C428 C427 1.355 . S
C428 C430 1.419 . S
C429 C424 1.425 . S
C429 C426 1.409 . S
C429 C427 1.415 . S
C430 H420 0.930 . S
C430 C428 1.419 . S
C430 C431 1.362 . S
C431 H421 0.930 . S
C431 C424 1.409 . S
C431 C430 1.362 . S
H432 C438 0.930 . S
H433 C441 0.930 . S
H434 C442 0.930 . S
H435 C443 0.930 1_554 S
H436 C446 0.930 . S
H437 C447 0.930 . S
C438 H432 0.930 . S
C438 C439 1.355 . S
C438 C440 1.415 . S
C439 C438 1.355 . S
C439 C441 1.419 . S
C440 C438 1.415 . S
C440 C445 1.425 . S
C440 C447 1.409 . S
C441 H433 0.930 . S
C441 C439 1.419 . S
C441 C442 1.362 . S
C442 H434 0.930 . S
C442 C441 1.362 . S
C442 C445 1.409 . S
C443 H435 0.930 1_556 S
C443 C444 1.355 . S
C443 C445 1.415 . S
C444 C443 1.355 . S
C444 C446 1.419 . S
C445 C440 1.425 . S
C445 C442 1.409 . S
C445 C443 1.415 . S
C446 H436 0.930 . S
C446 C444 1.419 . S
C446 C447 1.362 . S
C447 H437 0.930 . S
C447 C440 1.409 . S
C447 C446 1.362 . S
H448 C454 0.930 . S
H449 C457 0.930 . S
H450 C458 0.930 . S
H451 C459 0.930 . S
H452 C462 0.930 . S
H453 C463 0.930 . S
C454 H448 0.930 . S
C454 C455 1.355 . S
C454 C456 1.415 . S
C455 C454 1.355 . S
C455 C457 1.419 . S
C456 C454 1.415 . S
C456 C461 1.425 . S
C456 C463 1.409 . S
C457 H449 0.930 . S
C457 C455 1.419 . S
C457 C458 1.362 . S
C458 H450 0.930 . S
C458 C457 1.362 . S
C458 C461 1.409 . S
C459 H451 0.930 . S
C459 C460 1.355 . S
C459 C461 1.415 . S
C460 C459 1.355 . S
C460 C462 1.419 . S
C461 C456 1.425 . S
C461 C458 1.409 . S
C461 C459 1.415 . S
C462 H452 0.930 . S
C462 C460 1.419 . S
C462 C463 1.362 . S
C463 H453 0.930 . S
C463 C456 1.409 . S
C463 C462 1.362 . S
H464 C470 0.930 . S
H465 C473 0.930 . S
H466 C474 0.930 . S
H467 C475 0.930 . S
H468 C478 0.930 . S
H469 C479 0.930 . S
C470 H464 0.930 . S
C470 C471 1.355 . S
C470 C472 1.415 . S
C471 C470 1.355 . S
C471 C473 1.419 . S
C472 C470 1.415 . S
C472 C477 1.425 . S
C472 C479 1.409 . S
C473 H465 0.930 . S
C473 C471 1.419 . S
C473 C474 1.362 . S
C474 H466 0.930 . S
C474 C473 1.362 . S
C474 C477 1.409 . S
C475 H467 0.930 . S
C475 C476 1.355 . S
C475 C477 1.415 . S
C476 C475 1.355 . S
C476 C478 1.419 . S
C477 C472 1.425 . S
C477 C474 1.409 . S
C477 C475 1.415 . S
C478 H468 0.930 . S
C478 C476 1.419 . S
C478 C479 1.362 . S
C479 H469 0.930 . S
C479 C472 1.409 . S
C479 C478 1.362 . S
H480 C486 0.930 . S
H481 C489 0.930 . S
H482 C490 0.930 . S
H483 C491 0.930 . S
H484 C494 0.930 . S
H485 C495 0.930 . S
C486 H480 0.930 . S
C486 C487 1.355 . S
C486 C488 1.415 . S
C487 C486 1.355 . S
C487 C489 1.419 . S
C488 C486 1.415 . S
C488 C493 1.425 . S
C488 C495 1.409 . S
C489 H481 0.930 . S
C489 C487 1.419 . S
C489 C490 1.362 . S
C490 H482 0.930 . S
C490 C489 1.362 . S
C490 C493 1.409 . S
C491 H483 0.930 . S
C491 C492 1.355 . S
C491 C493 1.415 . S
C492 C491 1.355 . S
C492 C494 1.419 . S
C493 C488 1.425 . S
C493 C490 1.409 . S
C493 C491 1.415 . S
C494 H484 0.930 . S
C494 C492 1.419 . S
C494 C495 1.362 . S
C495 H485 0.930 . S
C495 C488 1.409 . S
C495 C494 1.362 . S
H496 C502 0.930 . S
H497 C505 0.930 . S
H498 C506 0.930 . S
H499 C507 0.930 . S
H500 C510 0.930 . S
H501 C511 0.930 . S
C502 H496 0.930 . S
C502 C503 1.355 . S
C502 C504 1.415 . S
C503 C502 1.355 . S
C503 C505 1.419 . S
C504 C502 1.415 . S
C504 C509 1.425 . S
C504 C511 1.409 . S
C505 H497 0.930 . S
C505 C503 1.419 . S
C505 C506 1.362 . S
C506 H498 0.930 . S
C506 C505 1.362 . S
C506 C509 1.409 . S
C507 H499 0.930 . S
C507 C508 1.355 . S
C507 C509 1.415 . S
C508 C507 1.355 . S
C508 C510 1.419 . S
C509 C504 1.425 . S
C509 C506 1.409 . S
C509 C507 1.415 . S
C510 H500 0.930 . S
C510 C508 1.419 . S
C510 C511 1.362 . S
C511 H501 0.930 . S
C511 C504 1.409 . S
C511 C510 1.362 . S
H512 C518 0.930 . S
H513 C521 0.930 . S
H514 C522 0.930 . S
H515 C523 0.930 . S
H516 C526 0.930 . S
H517 C527 0.930 . S
C518 H512 0.930 . S
C518 C519 1.355 . S
C518 C520 1.415 . S
C519 C518 1.355 . S
C519 C521 1.419 . S
C520 C518 1.415 . S
C520 C525 1.425 . S
C520 C527 1.409 . S
C521 H513 0.930 . S
C521 C519 1.419 . S
C521 C522 1.362 . S
C522 H514 0.930 . S
C522 C521 1.362 . S
C522 C525 1.409 . S
C523 H515 0.930 . S
C523 C524 1.355 . S
C523 C525 1.415 . S
C524 C523 1.355 . S
C524 C526 1.419 1_556 S
C525 C520 1.425 . S
C525 C522 1.409 . S
C525 C523 1.415 . S
C526 H516 0.930 . S
C526 C524 1.419 1_554 S
C526 C527 1.362 1_554 S
C527 H517 0.930 . S
C527 C520 1.409 . S
C527 C526 1.362 1_556 S
H528 C534 0.930 . S
H529 C537 0.930 . S
H530 C538 0.930 . S
H531 C539 0.930 . S
H532 C542 0.930 . S
H533 C543 0.930 . S
C534 H528 0.930 . S
C534 C535 1.355 . S
C534 C536 1.415 . S
C535 C534 1.355 . S
C535 C537 1.419 . S
C536 C534 1.415 . S
C536 C541 1.425 . S
C536 C543 1.409 . S
C537 H529 0.930 . S
C537 C535 1.419 . S
C537 C538 1.362 . S
C538 H530 0.930 . S
C538 C537 1.362 . S
C538 C541 1.409 . S
C539 H531 0.930 . S
C539 C540 1.355 . S
C539 C541 1.415 . S
C540 C539 1.355 . S
C540 C542 1.419 . S
C541 C536 1.425 . S
C541 C538 1.409 . S
C541 C539 1.415 . S
C542 H532 0.930 . S
C542 C540 1.419 . S
C542 C543 1.362 . S
C543 H533 0.930 . S
C543 C536 1.409 . S
C543 C542 1.362 . S
H544 C550 0.930 . S
H545 C553 0.930 . S
H546 C554 0.930 . S
H547 C555 0.930 . S
H548 C558 0.930 . S
H549 C559 0.930 . S
C550 H544 0.930 . S
C550 C551 1.355 . S
C550 C552 1.415 . S
C551 C550 1.355 . S
C551 C553 1.419 . S
C552 C550 1.415 . S
C552 C557 1.425 . S
C552 C559 1.409 . S
C553 H545 0.930 . S
C553 C551 1.419 . S
C553 C554 1.362 . S
C554 H546 0.930 . S
C554 C553 1.362 . S
C554 C557 1.409 . S
C555 H547 0.930 . S
C555 C556 1.355 . S
C555 C557 1.415 . S
C556 C555 1.355 . S
C556 C558 1.419 . S
C557 C552 1.425 . S
C557 C554 1.409 . S
C557 C555 1.415 . S
C558 H548 0.930 . S
C558 C556 1.419 . S
C558 C559 1.362 . S
C559 H549 0.930 . S
C559 C552 1.409 . S
C559 C558 1.362 . S
H560 C566 0.930 . S
H561 C569 0.930 . S
H562 C570 0.930 . S
H563 C571 0.930 . S
H564 C574 0.930 . S
H565 C575 0.930 . S
C566 H560 0.930 . S
C566 C567 1.355 . S
C566 C568 1.415 . S
C567 C566 1.355 . S
C567 C569 1.419 . S
C568 C566 1.415 . S
C568 C573 1.425 . S
C568 C575 1.409 . S
C569 H561 0.930 . S
C569 C567 1.419 . S
C569 C570 1.362 . S
C570 H562 0.930 . S
C570 C569 1.362 . S
C570 C573 1.409 . S
C571 H563 0.930 . S
C571 C572 1.355 . S
C571 C573 1.415 . S
C572 C571 1.355 . S
C572 C574 1.419 . S
C573 C568 1.425 . S
C573 C570 1.409 . S
C573 C571 1.415 . S
C574 H564 0.930 . S
C574 C572 1.419 . S
C574 C575 1.362 . S
C575 H565 0.930 . S
C575 C568 1.409 . S
C575 C574 1.362 . S
H576 C582 0.930 . S
H577 C585 0.930 . S
H578 C586 0.930 . S
H579 C587 0.930 . S
H580 C590 0.930 . S
H581 C591 0.930 . S
C582 H576 0.930 . S
C582 C583 1.355 . S
C582 C584 1.415 . S
C583 C582 1.355 . S
C583 C585 1.419 . S
C584 C582 1.415 . S
C584 C589 1.425 . S
C584 C591 1.409 . S
C585 H577 0.930 . S
C585 C583 1.419 . S
C585 C586 1.362 . S
C586 H578 0.930 . S
C586 C585 1.362 . S
C586 C589 1.409 . S
C587 H579 0.930 . S
C587 C588 1.355 . S
C587 C589 1.415 . S
C588 C587 1.355 . S
C588 C590 1.419 . S
C589 C584 1.425 . S
C589 C586 1.409 . S
C589 C587 1.415 . S
C590 H580 0.930 . S
C590 C588 1.419 . S
C590 C591 1.362 . S
C591 H581 0.930 . S
C591 C584 1.409 . S
C591 C590 1.362 . S
H592 C598 0.930 . S
H593 C601 0.930 . S
H594 C602 0.930 . S
H595 C603 0.930 . S
H596 C606 0.930 . S
H597 C607 0.930 . S
C598 H592 0.930 . S
C598 C599 1.355 . S
C598 C600 1.415 . S
C599 C598 1.355 . S
C599 C601 1.419 . S
C600 C598 1.415 . S
C600 C605 1.425 . S
C600 C607 1.409 . S
C601 H593 0.930 . S
C601 C599 1.419 . S
C601 C602 1.362 . S
C602 H594 0.930 . S
C602 C601 1.362 . S
C602 C605 1.409 . S
C603 H595 0.930 . S
C603 C604 1.355 . S
C603 C605 1.415 . S
C604 C603 1.355 . S
C604 C606 1.419 . S
C605 C600 1.425 . S
C605 C602 1.409 . S
C605 C603 1.415 . S
C606 H596 0.930 . S
C606 C604 1.419 . S
C606 C607 1.362 . S
C607 H597 0.930 . S
C607 C600 1.409 . S
C607 C606 1.362 . S
H608 C614 0.930 . S
H609 C617 0.930 . S
H610 C618 0.930 . S
H611 C619 0.930 . S
H612 C622 0.930 . S
H613 C623 0.930 . S
C614 H608 0.930 . S
C614 C615 1.355 . S
C614 C616 1.415 . S
C615 C614 1.355 . S
C615 C617 1.419 . S
C616 C614 1.415 . S
C616 C621 1.425 . S
C616 C623 1.409 . S
C617 H609 0.930 . S
C617 C615 1.419 . S
C617 C618 1.362 . S
C618 H610 0.930 . S
C618 C617 1.362 . S
C618 C621 1.409 . S
C619 H611 0.930 . S
C619 C620 1.355 . S
C619 C621 1.415 . S
C620 C619 1.355 . S
C620 C622 1.419 . S
C621 C616 1.425 . S
C621 C618 1.409 . S
C621 C619 1.415 . S
C622 H612 0.930 . S
C622 C620 1.419 . S
C622 C623 1.362 . S
C623 H613 0.930 . S
C623 C616 1.409 . S
C623 C622 1.362 . S
H624 C630 0.930 . S
H625 C633 0.930 . S
H626 C634 0.930 . S
H627 C635 0.930 . S
H628 C638 0.930 . S
H629 C639 0.930 . S
C630 H624 0.930 . S
C630 C631 1.355 . S
C630 C632 1.415 . S
C631 C630 1.355 . S
C631 C633 1.419 . S
C632 C630 1.415 . S
C632 C637 1.425 . S
C632 C639 1.409 . S
C633 H625 0.930 . S
C633 C631 1.419 . S
C633 C634 1.362 . S
C634 H626 0.930 . S
C634 C633 1.362 . S
C634 C637 1.409 . S
C635 H627 0.930 . S
C635 C636 1.355 . S
C635 C637 1.415 . S
C636 C635 1.355 . S
C636 C638 1.419 . S
C637 C632 1.425 . S
C637 C634 1.409 . S
C637 C635 1.415 . S
C638 H628 0.930 . S
C638 C636 1.419 . S
C638 C639 1.362 . S
C639 H629 0.930 . S
C639 C632 1.409 . S
C639 C638 1.362 . S
H640 C646 0.930 . S
H641 C649 0.930 . S
H642 C650 0.930 . S
H643 C651 0.930 . S
H644 C654 0.930 . S
H645 C655 0.930 . S
C646 H640 0.930 . S
C646 C647 1.355 . S
C646 C648 1.415 . S
C647 C646 1.355 . S
C647 C649 1.419 . S
C648 C646 1.415 . S
C648 C653 1.425 . S
C648 C655 1.409 . S
C649 H641 0.930 . S
C649 C647 1.419 . S
C649 C650 1.362 . S
C650 H642 0.930 . S
C650 C649 1.362 . S
C650 C653 1.409 . S
C651 H643 0.930 . S
C651 C652 1.355 . S
C651 C653 1.415 . S
C652 C651 1.355 . S
C652 C654 1.419 . S
C653 C648 1.425 . S
C653 C650 1.409 . S
C653 C651 1.415 . S
C654 H644 0.930 . S
C654 C652 1.419 . S
C654 C655 1.362 . S
C655 H645 0.930 . S
C655 C648 1.409 . S
C655 C654 1.362 . S
H656 C662 0.930 . S
H657 C665 0.930 . S
H658 C666 0.930 . S
H659 C667 0.930 . S
H660 C670 0.930 . S
H661 C671 0.930 . S
C662 H656 0.930 . S
C662 C663 1.355 . S
C662 C664 1.415 . S
C663 C662 1.355 . S
C663 C665 1.419 . S
C664 C662 1.415 . S
C664 C669 1.425 . S
C664 C671 1.409 . S
C665 H657 0.930 . S
C665 C663 1.419 . S
C665 C666 1.362 . S
C666 H658 0.930 . S
C666 C665 1.362 . S
C666 C669 1.409 . S
C667 H659 0.930 . S
C667 C668 1.355 . S
C667 C669 1.415 . S
C668 C667 1.355 . S
C668 C670 1.419 . S
C669 C664 1.425 . S
C669 C666 1.409 . S
C669 C667 1.415 . S
C670 H660 0.930 . S
C670 C668 1.419 . S
C670 C671 1.362 . S
C671 H661 0.930 . S
C671 C664 1.409 . S
C671 C670 1.362 . S
H672 C678 0.930 . S
H673 C681 0.930 . S
H674 C682 0.930 . S
H675 C683 0.930 . S
H676 C686 0.930 . S
H677 C687 0.930 . S
C678 H672 0.930 . S
C678 C679 1.355 . S
C678 C680 1.415 . S
C679 C678 1.355 . S
C679 C681 1.419 . S
C680 C678 1.415 . S
C680 C685 1.425 . S
C680 C687 1.409 . S
C681 H673 0.930 . S
C681 C679 1.419 . S
C681 C682 1.362 . S
C682 H674 0.930 . S
C682 C681 1.362 . S
C682 C685 1.409 . S
C683 H675 0.930 . S
C683 C684 1.355 . S
C683 C685 1.415 . S
C684 C683 1.355 . S
C684 C686 1.419 . S
C685 C680 1.425 . S
C685 C682 1.409 . S
C685 C683 1.415 . S
C686 H676 0.930 . S
C686 C684 1.419 . S
C686 C687 1.362 . S
C687 H677 0.930 . S
C687 C680 1.409 . S
C687 C686 1.362 . S
H688 C694 0.930 . S
H689 C697 0.930 . S
H690 C698 0.930 . S
H691 C699 0.930 . S
H692 C702 0.930 . S
H693 C703 0.930 1_554 S
C694 H688 0.930 . S
C694 C695 1.355 1_554 S
C694 C696 1.415 1_554 S
C695 C694 1.355 1_556 S
C695 C697 1.419 . S
C696 C694 1.415 1_556 S
C696 C701 1.425 . S
C696 C703 1.409 . S
C697 H689 0.930 . S
C697 C695 1.419 . S
C697 C698 1.362 . S
C698 H690 0.930 . S
C698 C697 1.362 . S
C698 C701 1.409 . S
C699 H691 0.930 . S
C699 C700 1.355 . S
C699 C701 1.415 . S
C700 C699 1.355 . S
C700 C702 1.419 . S
C701 C696 1.425 . S
C701 C698 1.409 . S
C701 C699 1.415 . S
C702 H692 0.930 . S
C702 C700 1.419 . S
C702 C703 1.362 . S
C703 H693 0.930 1_556 S
C703 C696 1.409 . S
C703 C702 1.362 . S
H704 C710 0.930 . S
H705 C713 0.930 . S
H706 C714 0.930 . S
H707 C715 0.930 . S
H708 C718 0.930 . S
H709 C719 0.930 . S
C710 H704 0.930 . S
C710 C711 1.355 . S
C710 C712 1.415 . S
C711 C710 1.355 . S
C711 C713 1.419 . S
C712 C710 1.415 . S
C712 C717 1.425 . S
C712 C719 1.409 . S
C713 H705 0.930 . S
C713 C711 1.419 . S
C713 C714 1.362 . S
C714 H706 0.930 . S
C714 C713 1.362 . S
C714 C717 1.409 . S
C715 H707 0.930 . S
C715 C716 1.355 . S
C715 C717 1.415 . S
C716 C715 1.355 . S
C716 C718 1.419 . S
C717 C712 1.425 . S
C717 C714 1.409 . S
C717 C715 1.415 . S
C718 H708 0.930 . S
C718 C716 1.419 . S
C718 C719 1.362 . S
C719 H709 0.930 . S
C719 C712 1.409 . S
C719 C718 1.362 . S
H720 C726 0.930 . S
H721 C729 0.930 . S
H722 C730 0.930 . S
H723 C731 0.930 . S
H724 C734 0.930 . S
H725 C735 0.930 . S
C726 H720 0.930 . S
C726 C727 1.355 . S
C726 C728 1.415 . S
C727 C726 1.355 . S
C727 C729 1.419 . S
C728 C726 1.415 . S
C728 C733 1.425 . S
C728 C735 1.409 . S
C729 H721 0.930 . S
C729 C727 1.419 . S
C729 C730 1.362 . S
C730 H722 0.930 . S
C730 C729 1.362 . S
C730 C733 1.409 . S
C731 H723 0.930 . S
C731 C732 1.355 . S
C731 C733 1.415 . S
C732 C731 1.355 . S
C732 C734 1.419 . S
C733 C728 1.425 . S
C733 C730 1.409 . S
C733 C731 1.415 . S
C734 H724 0.930 . S
C734 C732 1.419 . S
C734 C735 1.362 . S
C735 H725 0.930 . S
C735 C728 1.409 . S
C735 C734 1.362 . S
H736 C742 0.930 . S
H737 C745 0.930 . S
H738 C746 0.930 . S
H739 C747 0.930 . S
H740 C750 0.930 . S
H741 C751 0.930 . S
C742 H736 0.930 . S
C742 C743 1.355 . S
C742 C744 1.415 . S
C743 C742 1.355 . S
C743 C745 1.419 . S
C744 C742 1.415 . S
C744 C749 1.425 . S
C744 C751 1.409 . S
C745 H737 0.930 . S
C745 C743 1.419 . S
C745 C746 1.362 . S
C746 H738 0.930 . S
C746 C745 1.362 . S
C746 C749 1.409 . S
C747 H739 0.930 . S
C747 C748 1.355 . S
C747 C749 1.415 . S
C748 C747 1.355 . S
C748 C750 1.419 . S
C749 C744 1.425 . S
C749 C746 1.409 . S
C749 C747 1.415 . S
C750 H740 0.930 . S
C750 C748 1.419 . S
C750 C751 1.362 . S
C751 H741 0.930 . S
C751 C744 1.409 . S
C751 C750 1.362 . S
H752 C758 0.930 . S
H753 C761 0.930 . S
H754 C762 0.930 . S
H755 C763 0.930 . S
H756 C766 0.930 . S
H757 C767 0.930 . S
C758 H752 0.930 . S
C758 C759 1.355 . S
C758 C760 1.415 . S
C759 C758 1.355 . S
C759 C761 1.419 . S
C760 C758 1.415 . S
C760 C765 1.425 . S
C760 C767 1.409 . S
C761 H753 0.930 . S
C761 C759 1.419 . S
C761 C762 1.362 . S
C762 H754 0.930 . S
C762 C761 1.362 . S
C762 C765 1.409 . S
C763 H755 0.930 . S
C763 C764 1.355 . S
C763 C765 1.415 . S
C764 C763 1.355 . S
C764 C766 1.419 . S
C765 C760 1.425 . S
C765 C762 1.409 . S
C765 C763 1.415 . S
C766 H756 0.930 . S
C766 C764 1.419 . S
C766 C767 1.362 . S
C767 H757 0.930 . S
C767 C760 1.409 . S
C767 C766 1.362 . S
H768 C774 0.930 . S
H769 C777 0.930 . S
H770 C778 0.930 . S
H771 C779 0.930 . S
H772 C782 0.930 . S
H773 C783 0.930 . S
C774 H768 0.930 . S
C774 C775 1.355 . S
C774 C776 1.415 . S
C775 C774 1.355 . S
C775 C777 1.419 . S
C776 C774 1.415 . S
C776 C781 1.425 . S
C776 C783 1.409 . S
C777 H769 0.930 . S
C777 C775 1.419 . S
C777 C778 1.362 . S
C778 H770 0.930 . S
C778 C777 1.362 . S
C778 C781 1.409 . S
C779 H771 0.930 . S
C779 C780 1.355 . S
C779 C781 1.415 . S
C780 C779 1.355 . S
C780 C782 1.419 . S
C781 C776 1.425 . S
C781 C778 1.409 . S
C781 C779 1.415 . S
C782 H772 0.930 . S
C782 C780 1.419 . S
C782 C783 1.362 . S
C783 H773 0.930 . S
C783 C776 1.409 . S
C783 C782 1.362 . S
H784 C790 0.930 . S
H785 C793 0.930 . S
H786 C794 0.930 . S
H787 C795 0.930 . S
H788 C798 0.930 . S
H789 C799 0.930 . S
C790 H784 0.930 . S
C790 C791 1.355 . S
C790 C792 1.415 . S
C791 C790 1.355 . S
C791 C793 1.419 . S
C792 C790 1.415 . S
C792 C797 1.425 . S
C792 C799 1.409 . S
C793 H785 0.930 . S
C793 C791 1.419 . S
C793 C794 1.362 . S
C794 H786 0.930 . S
C794 C793 1.362 . S
C794 C797 1.409 . S
C795 H787 0.930 . S
C795 C796 1.355 . S
C795 C797 1.415 . S
C796 C795 1.355 . S
C796 C798 1.419 . S
C797 C792 1.425 . S
C797 C794 1.409 . S
C797 C795 1.415 . S
C798 H788 0.930 . S
C798 C796 1.419 . S
C798 C799 1.362 . S
C799 H789 0.930 . S
C799 C792 1.409 . S
C799 C798 1.362 . S
H800 C806 0.930 . S
H801 C809 0.930 . S
H802 C810 0.930 . S
H803 C811 0.930 . S
H804 C814 0.930 1_655 S
H805 C815 0.930 . S
C806 H800 0.930 . S
C806 C807 1.355 . S
C806 C808 1.415 . S
C807 C806 1.355 . S
C807 C809 1.419 . S
C808 C806 1.415 . S
C808 C813 1.425 . S
C808 C815 1.409 . S
C809 H801 0.930 . S
C809 C807 1.419 . S
C809 C810 1.362 . S
C810 H802 0.930 . S
C810 C809 1.362 . S
C810 C813 1.409 . S
C811 H803 0.930 . S
C811 C812 1.355 . S
C811 C813 1.415 . S
C812 C811 1.355 . S
C812 C814 1.419 . S
C813 C808 1.425 . S
C813 C810 1.409 . S
C813 C811 1.415 . S
C814 H804 0.930 1_455 S
C814 C812 1.419 . S
C814 C815 1.362 . S
C815 H805 0.930 . S
C815 C808 1.409 . S
C815 C814 1.362 . S
H816 C822 0.930 . S
H817 C825 0.930 . S
H818 C826 0.930 . S
H819 C827 0.930 . S
H820 C830 0.930 . S
H821 C831 0.930 . S
C822 H816 0.930 . S
C822 C823 1.355 . S
C822 C824 1.415 . S
C823 C822 1.355 . S
C823 C825 1.419 . S
C824 C822 1.415 . S
C824 C829 1.425 . S
C824 C831 1.409 . S
C825 H817 0.930 . S
C825 C823 1.419 . S
C825 C826 1.362 . S
C826 H818 0.930 . S
C826 C825 1.362 . S
C826 C829 1.409 . S
C827 H819 0.930 . S
C827 C828 1.355 . S
C827 C829 1.415 . S
C828 C827 1.355 . S
C828 C830 1.419 . S
C829 C824 1.425 . S
C829 C826 1.409 . S
C829 C827 1.415 . S
C830 H820 0.930 . S
C830 C828 1.419 . S
C830 C831 1.362 . S
C831 H821 0.930 . S
C831 C824 1.409 . S
C831 C830 1.362 . S
H832 C838 0.930 . S
H833 C841 0.930 . S
H834 C842 0.930 . S
H835 C843 0.930 . S
H836 C846 0.930 . S
H837 C847 0.930 . S
C838 H832 0.930 . S
C838 C839 1.355 . S
C838 C840 1.415 . S
C839 C838 1.355 . S
C839 C841 1.419 . S
C840 C838 1.415 . S
C840 C845 1.425 . S
C840 C847 1.409 . S
C841 H833 0.930 . S
C841 C839 1.419 . S
C841 C842 1.362 . S
C842 H834 0.930 . S
C842 C841 1.362 . S
C842 C845 1.409 . S
C843 H835 0.930 . S
C843 C844 1.355 . S
C843 C845 1.415 . S
C844 C843 1.355 . S
C844 C846 1.419 . S
C845 C840 1.425 . S
C845 C842 1.409 . S
C845 C843 1.415 . S
C846 H836 0.930 . S
C846 C844 1.419 . S
C846 C847 1.362 . S
C847 H837 0.930 . S
C847 C840 1.409 . S
C847 C846 1.362 . S
H848 C854 0.930 . S
H849 C857 0.930 . S
H850 C858 0.930 . S
H851 C859 0.930 . S
H852 C862 0.930 . S
H853 C863 0.930 . S
C854 H848 0.930 . S
C854 C855 1.355 . S
C854 C856 1.415 . S
C855 C854 1.355 . S
C855 C857 1.419 . S
C856 C854 1.415 . S
C856 C861 1.425 . S
C856 C863 1.409 1_556 S
C857 H849 0.930 . S
C857 C855 1.419 . S
C857 C858 1.362 . S
C858 H850 0.930 . S
C858 C857 1.362 . S
C858 C861 1.409 . S
C859 H851 0.930 . S
C859 C860 1.355 1_556 S
C859 C861 1.415 . S
C860 C859 1.355 1_554 S
C860 C862 1.419 . S
C861 C856 1.425 . S
C861 C858 1.409 . S
C861 C859 1.415 . S
C862 H852 0.930 . S
C862 C860 1.419 . S
C862 C863 1.362 . S
C863 H853 0.930 . S
C863 C856 1.409 1_554 S
C863 C862 1.362 . S
H864 C870 0.930 . S
H865 C873 0.930 . S
H866 C874 0.930 . S
H867 C875 0.930 . S
H868 C878 0.930 . S
H869 C879 0.930 . S
C870 H864 0.930 . S
C870 C871 1.355 . S
C870 C872 1.415 . S
C871 C870 1.355 . S
C871 C873 1.419 . S
C872 C870 1.415 . S
C872 C877 1.425 . S
C872 C879 1.409 . S
C873 H865 0.930 . S
C873 C871 1.419 . S
C873 C874 1.362 . S
C874 H866 0.930 . S
C874 C873 1.362 . S
C874 C877 1.409 . S
C875 H867 0.930 . S
C875 C876 1.355 . S
C875 C877 1.415 . S
C876 C875 1.355 . S
C876 C878 1.419 . S
C877 C872 1.425 . S
C877 C874 1.409 . S
C877 C875 1.415 . S
C878 H868 0.930 . S
C878 C876 1.419 . S
C878 C879 1.362 . S
C879 H869 0.930 . S
C879 C872 1.409 . S
C879 C878 1.362 . S
H880 C886 0.930 . S
H881 C889 0.930 . S
H882 C890 0.930 . S
H883 C891 0.930 . S
H884 C894 0.930 . S
H885 C895 0.930 . S
C886 H880 0.930 . S
C886 C887 1.355 . S
C886 C888 1.415 . S
C887 C886 1.355 . S
C887 C889 1.419 . S
C888 C886 1.415 . S
C888 C893 1.425 . S
C888 C895 1.409 . S
C889 H881 0.930 . S
C889 C887 1.419 . S
C889 C890 1.362 . S
C890 H882 0.930 . S
C890 C889 1.362 . S
C890 C893 1.409 . S
C891 H883 0.930 . S
C891 C892 1.355 . S
C891 C893 1.415 . S
C892 C891 1.355 . S
C892 C894 1.419 . S
C893 C888 1.425 . S
C893 C890 1.409 . S
C893 C891 1.415 . S
C894 H884 0.930 . S
C894 C892 1.419 . S
C894 C895 1.362 . S
C895 H885 0.930 . S
C895 C888 1.409 . S
C895 C894 1.362 . S
H896 C902 0.930 . S
H897 C905 0.930 . S
H898 C906 0.930 . S
H899 C907 0.930 . S
H900 C910 0.930 . S
H901 C911 0.930 . S
C902 H896 0.930 . S
C902 C903 1.355 . S
C902 C904 1.415 . S
C903 C902 1.355 . S
C903 C905 1.419 . S
C904 C902 1.415 . S
C904 C909 1.425 . S
C904 C911 1.409 . S
C905 H897 0.930 . S
C905 C903 1.419 . S
C905 C906 1.362 . S
C906 H898 0.930 . S
C906 C905 1.362 . S
C906 C909 1.409 . S
C907 H899 0.930 . S
C907 C908 1.355 . S
C907 C909 1.415 . S
C908 C907 1.355 . S
C908 C910 1.419 . S
C909 C904 1.425 . S
C909 C906 1.409 . S
C909 C907 1.415 . S
C910 H900 0.930 . S
C910 C908 1.419 . S
C910 C911 1.362 . S
C911 H901 0.930 . S
C911 C904 1.409 . S
C911 C910 1.362 . S
H912 C918 0.930 . S
H913 C921 0.930 . S
H914 C922 0.930 1_556 S
H915 C923 0.930 . S
H916 C926 0.930 . S
H917 C927 0.930 . S
C918 H912 0.930 . S
C918 C919 1.355 1_655 S
C918 C920 1.415 . S
C919 C918 1.355 1_455 S
C919 C921 1.419 . S
C920 C918 1.415 . S
C920 C925 1.425 1_655 S
C920 C927 1.409 . S
C921 H913 0.930 . S
C921 C919 1.419 . S
C921 C922 1.362 . S
C922 H914 0.930 1_554 S
C922 C921 1.362 . S
C922 C925 1.409 . S
C923 H915 0.930 . S
C923 C924 1.355 1_455 S
C923 C925 1.415 1_556 S
C924 C923 1.355 1_655 S
C924 C926 1.419 . S
C925 C920 1.425 1_455 S
C925 C922 1.409 . S
C925 C923 1.415 1_554 S
C926 H916 0.930 . S
C926 C924 1.419 . S
C926 C927 1.362 1_556 S
C927 H917 0.930 . S
C927 C920 1.409 . S
C927 C926 1.362 1_554 S
H928 C934 0.930 . S
H929 C937 0.930 . S
H930 C938 0.930 . S
H931 C939 0.930 . S
H932 C942 0.930 . S
H933 C943 0.930 . S
C934 H928 0.930 . S
C934 C935 1.355 . S
C934 C936 1.415 . S
C935 C934 1.355 . S
C935 C937 1.419 . S
C936 C934 1.415 . S
C936 C941 1.425 . S
C936 C943 1.409 . S
C937 H929 0.930 . S
C937 C935 1.419 . S
C937 C938 1.362 . S
C938 H930 0.930 . S
C938 C937 1.362 . S
C938 C941 1.409 . S
C939 H931 0.930 . S
C939 C940 1.355 . S
C939 C941 1.415 . S
C940 C939 1.355 . S
C940 C942 1.419 . S
C941 C936 1.425 . S
C941 C938 1.409 . S
C941 C939 1.415 . S
C942 H932 0.930 . S
C942 C940 1.419 . S
C942 C943 1.362 . S
C943 H933 0.930 . S
C943 C936 1.409 . S
C943 C942 1.362 . S
H944 C950 0.930 . S
H945 C953 0.930 . S
H946 C954 0.930 . S
H947 C955 0.930 . S
H948 C958 0.930 . S
H949 C959 0.930 . S
C950 H944 0.930 . S
C950 C951 1.355 . S
C950 C952 1.415 . S
C951 C950 1.355 . S
C951 C953 1.419 . S
C952 C950 1.415 . S
C952 C957 1.425 . S
C952 C959 1.409 . S
C953 H945 0.930 . S
C953 C951 1.419 . S
C953 C954 1.362 . S
C954 H946 0.930 . S
C954 C953 1.362 . S
C954 C957 1.409 . S
C955 H947 0.930 . S
C955 C956 1.355 . S
C955 C957 1.415 . S
C956 C955 1.355 . S
C956 C958 1.419 . S
C957 C952 1.425 . S
C957 C954 1.409 . S
C957 C955 1.415 . S
C958 H948 0.930 . S
C958 C956 1.419 . S
C958 C959 1.362 . S
C959 H949 0.930 . S
C959 C952 1.409 . S
C959 C958 1.362 . S
H960 C966 0.930 . S
H961 C969 0.930 . S
H962 C970 0.930 . S
H963 C971 0.930 . S
H964 C974 0.930 . S
H965 C975 0.933 . S
C966 H960 0.930 . S
C966 C967 1.355 1_655 S
C966 C968 1.401 1_546 S
C967 C966 1.355 1_455 S
C967 C969 1.419 . S
C968 C966 1.401 1_564 S
C968 C973 1.423 1_665 S
C968 C975 1.426 . S
C969 H961 0.930 . S
C969 C967 1.419 . S
C969 C970 1.362 1_556 S
C970 H962 0.930 . S
C970 C969 1.362 1_554 S
C970 C973 1.426 . S
C971 H963 0.930 . S
C971 C972 1.355 1_455 S
C971 C973 1.400 1_565 S
C972 C971 1.355 1_655 S
C972 C974 1.419 . S
C973 C968 1.423 1_445 S
C973 C970 1.426 . S
C973 C971 1.400 1_545 S
C974 H964 0.930 . S
C974 C972 1.419 . S
C974 C975 1.362 . S
C975 H965 0.933 . S
C975 C968 1.426 . S
C975 C974 1.362 . S
H976 C982 0.930 . S
H977 C985 0.930 . S
H978 C986 0.930 . S
H979 C987 0.930 . S
H980 C990 0.930 . S
H981 C991 0.930 . S
C982 H976 0.930 . S
C982 C983 1.355 . S
C982 C984 1.413 1_545 S
C983 C982 1.355 . S
C983 C985 1.419 . S
C984 C982 1.413 1_565 S
C984 C989 1.425 1_565 S
C984 C991 1.411 . S
C985 H977 0.930 . S
C985 C983 1.419 . S
C985 C986 1.362 . S
C986 H978 0.930 . S
C986 C985 1.362 . S
C986 C989 1.411 . S
C987 H979 0.930 . S
C987 C988 1.355 . S
C987 C989 1.413 1_565 S
C988 C987 1.355 . S
C988 C990 1.419 . S
C989 C984 1.425 1_545 S
C989 C986 1.411 . S
C989 C987 1.413 1_545 S
C990 H980 0.930 . S
C990 C988 1.419 . S
C990 C991 1.362 . S
C991 H981 0.930 . S
C991 C984 1.411 . S
C991 C990 1.362 . S
H992 C998 0.930 . S
H993 C1001 0.930 . S
H994 C1002 0.930 . S
H995 C1003 0.930 . S
H996 C1006 0.930 . S
H997 C1007 0.930 . S
C998 H992 0.930 . S
C998 C999 1.355 . S
C998 C1000 1.415 . S
C999 C998 1.355 . S
C999 C1001 1.419 . S
C1000 C998 1.415 . S
C1000 C1005 1.425 . S
C1000 C1007 1.409 . S
C1001 H993 0.930 . S
C1001 C999 1.419 . S
C1001 C1002 1.362 . S
C1002 H994 0.930 . S
C1002 C1001 1.362 . S
C1002 C1005 1.409 . S
C1003 H995 0.930 . S
C1003 C1004 1.355 . S
C1003 C1005 1.415 . S
C1004 C1003 1.355 . S
C1004 C1006 1.419 . S
C1005 C1000 1.425 . S
C1005 C1002 1.409 . S
C1005 C1003 1.415 . S
C1006 H996 0.930 . S
C1006 C1004 1.419 . S
C1006 C1007 1.362 . S
C1007 H997 0.930 . S
C1007 C1000 1.409 . S
C1007 C1006 1.362 . S
H1008 C1014 0.930 1_556 S
H1009 C1017 0.930 . S
H1010 C1018 0.930 . S
H1011 C1019 0.930 . S
H1012 C1022 0.930 . S
H1013 C1023 0.930 . S
C1014 H1008 0.930 1_554 S
C1014 C1015 1.355 1_554 S
C1014 C1016 1.415 . S
C1015 C1014 1.355 1_556 S
C1015 C1017 1.419 . S
C1016 C1014 1.415 . S
C1016 C1021 1.425 . S
C1016 C1023 1.409 . S
C1017 H1009 0.930 . S
C1017 C1015 1.419 . S
C1017 C1018 1.362 1_556 S
C1018 H1010 0.930 . S
C1018 C1017 1.362 1_554 S
C1018 C1021 1.409 . S
C1019 H1011 0.930 . S
C1019 C1020 1.355 . S
C1019 C1021 1.415 . S
C1020 C1019 1.355 . S
C1020 C1022 1.419 . S
C1021 C1016 1.425 . S
C1021 C1018 1.409 . S
C1021 C1019 1.415 . S
C1022 H1012 0.930 . S
C1022 C1020 1.419 . S
C1022 C1023 1.362 . S
C1023 H1013 0.930 . S
C1023 C1016 1.409 . S
C1023 C1022 1.362 . S
H1024 C1030 0.930 . S
H1025 C1033 0.930 . S
H1026 C1034 0.930 . S
H1027 C1035 0.930 . S
H1028 C1038 0.930 . S
H1029 C1039 0.930 . S
C1030 H1024 0.930 . S
C1030 C1031 1.355 . S
C1030 C1032 1.415 . S
C1031 C1030 1.355 . S
C1031 C1033 1.419 . S
C1032 C1030 1.415 . S
C1032 C1037 1.425 . S
C1032 C1039 1.409 . S
C1033 H1025 0.930 . S
C1033 C1031 1.419 . S
C1033 C1034 1.362 . S
C1034 H1026 0.930 . S
C1034 C1033 1.362 . S
C1034 C1037 1.409 . S
C1035 H1027 0.930 . S
C1035 C1036 1.355 . S
C1035 C1037 1.415 . S
C1036 C1035 1.355 . S
C1036 C1038 1.419 . S
C1037 C1032 1.425 . S
C1037 C1034 1.409 . S
C1037 C1035 1.415 . S
C1038 H1028 0.930 . S
C1038 C1036 1.419 . S
C1038 C1039 1.362 . S
C1039 H1029 0.930 . S
C1039 C1032 1.409 . S
C1039 C1038 1.362 . S
H1040 C1046 0.917 1_655 S
H1041 C1049 0.930 . S
H1042 C1050 0.930 . S
H1043 C1051 0.917 1_455 S
H1044 C1054 0.930 . S
H1045 C1055 0.930 . S
C1046 H1040 0.917 1_455 S
C1046 C1047 1.355 . S
C1046 C1048 1.415 1_455 S
C1047 C1046 1.355 . S
C1047 C1049 1.419 . S
C1048 C1046 1.415 1_655 S
C1048 C1053 1.425 1_655 S
C1048 C1055 1.409 . S
C1049 H1041 0.930 . S
C1049 C1047 1.419 . S
C1049 C1050 1.362 . S
C1050 H1042 0.930 . S
C1050 C1049 1.362 . S
C1050 C1053 1.409 . S
C1051 H1043 0.917 1_655 S
C1051 C1052 1.355 . S
C1051 C1053 1.415 1_655 S
C1052 C1051 1.355 . S
C1052 C1054 1.419 . S
C1053 C1048 1.425 1_455 S
C1053 C1050 1.409 . S
C1053 C1051 1.415 1_455 S
C1054 H1044 0.930 . S
C1054 C1052 1.419 . S
C1054 C1055 1.362 . S
C1055 H1045 0.930 . S
C1055 C1048 1.409 . S
C1055 C1054 1.362 . S
H1056 C1062 0.930 . S
H1057 C1065 0.930 . S
H1058 C1066 0.930 . S
H1059 C1067 0.930 . S
H1060 C1070 0.930 . S
H1061 C1071 0.930 . S
C1062 H1056 0.930 . S
C1062 C1063 1.355 . S
C1062 C1064 1.415 . S
C1063 C1062 1.355 . S
C1063 C1065 1.419 . S
C1064 C1062 1.415 . S
C1064 C1069 1.425 . S
C1064 C1071 1.409 . S
C1065 H1057 0.930 . S
C1065 C1063 1.419 . S
C1065 C1066 1.362 . S
C1066 H1058 0.930 . S
C1066 C1065 1.362 . S
C1066 C1069 1.409 . S
C1067 H1059 0.930 . S
C1067 C1068 1.355 . S
C1067 C1069 1.415 . S
C1068 C1067 1.355 . S
C1068 C1070 1.419 . S
C1069 C1064 1.425 . S
C1069 C1066 1.409 . S
C1069 C1067 1.415 . S
C1070 H1060 0.930 . S
C1070 C1068 1.419 . S
C1070 C1071 1.362 . S
C1071 H1061 0.930 . S
C1071 C1064 1.409 . S
C1071 C1070 1.362 . S
H1072 C1078 0.930 . S
H1073 C1081 0.930 . S
H1074 C1082 0.930 . S
H1075 C1083 0.930 . S
H1076 C1086 0.930 . S
H1077 C1087 0.930 . S
C1078 H1072 0.930 . S
C1078 C1079 1.355 . S
C1078 C1080 1.415 . S
C1079 C1078 1.355 . S
C1079 C1081 1.419 . S
C1080 C1078 1.415 . S
C1080 C1085 1.425 . S
C1080 C1087 1.409 . S
C1081 H1073 0.930 . S
C1081 C1079 1.419 . S
C1081 C1082 1.362 . S
C1082 H1074 0.930 . S
C1082 C1081 1.362 . S
C1082 C1085 1.409 . S
C1083 H1075 0.930 . S
C1083 C1084 1.355 . S
C1083 C1085 1.415 . S
C1084 C1083 1.355 . S
C1084 C1086 1.419 . S
C1085 C1080 1.425 . S
C1085 C1082 1.409 . S
C1085 C1083 1.415 . S
C1086 H1076 0.930 . S
C1086 C1084 1.419 . S
C1086 C1087 1.362 . S
C1087 H1077 0.930 . S
C1087 C1080 1.409 . S
C1087 C1086 1.362 . S
H1088 C1094 0.930 1_545 S
H1089 C1097 0.930 . S
H1090 C1098 0.930 . S
H1091 C1099 0.930 1_565 S
H1092 C1102 0.930 . S
H1093 C1103 0.930 . S
C1094 H1088 0.930 1_565 S
C1094 C1095 1.355 . S
C1094 C1096 1.415 1_565 S
C1095 C1094 1.355 . S
C1095 C1097 1.419 . S
C1096 C1094 1.415 1_545 S
C1096 C1101 1.425 1_645 S
C1096 C1103 1.409 . S
C1097 H1089 0.930 . S
C1097 C1095 1.419 . S
C1097 C1098 1.362 1_655 S
C1098 H1090 0.930 . S
C1098 C1097 1.362 1_455 S
C1098 C1101 1.409 . S
C1099 H1091 0.930 1_545 S
C1099 C1100 1.355 . S
C1099 C1101 1.415 1_545 S
C1100 C1099 1.355 . S
C1100 C1102 1.419 . S
C1101 C1096 1.425 1_465 S
C1101 C1098 1.409 . S
C1101 C1099 1.415 1_565 S
C1102 H1092 0.930 . S
C1102 C1100 1.419 . S
C1102 C1103 1.362 1_455 S
C1103 H1093 0.930 . S
C1103 C1096 1.409 . S
C1103 C1102 1.362 1_655 S
H1104 C1110 0.930 . S
H1105 C1113 0.930 . S
H1106 C1114 0.930 . S
H1107 C1115 0.930 . S
H1108 C1118 0.930 . S
H1109 C1119 0.930 . S
C1110 H1104 0.930 . S
C1110 C1111 1.355 1_554 S
C1110 C1112 1.415 . S
C1111 C1110 1.355 1_556 S
C1111 C1113 1.419 . S
C1112 C1110 1.415 . S
C1112 C1117 1.425 1_545 S
C1112 C1119 1.409 . S
C1113 H1105 0.930 . S
C1113 C1111 1.419 . S
C1113 C1114 1.362 1_545 S
C1114 H1106 0.930 . S
C1114 C1113 1.362 1_565 S
C1114 C1117 1.409 1_556 S
C1115 H1107 0.930 . S
C1115 C1116 1.355 . S
C1115 C1117 1.415 . S
C1116 C1115 1.355 . S
C1116 C1118 1.419 . S
C1117 C1112 1.425 1_565 S
C1117 C1114 1.409 1_554 S
C1117 C1115 1.415 . S
C1118 H1108 0.930 . S
C1118 C1116 1.419 . S
C1118 C1119 1.362 1_565 S
C1119 H1109 0.930 . S
C1119 C1112 1.409 . S
C1119 C1118 1.362 1_545 S
C359 C18 1.486 1_556 S
C364 C208 1.533 . S
C375 C230 1.585 . S
C380 C40 1.510 . S
C391 C252 1.568 . S
C396 C62 1.558 . S
C407 C186 1.589 . S
C412 C84 1.548 . S
C423 C96 1.544 . S
C428 C296 1.548 . S
C439 C120 1.503 . S
C444 C318 1.582 . S
C455 C340 1.564 . S
C460 C150 1.482 . S
C471 C282 1.586 . S
C476 C172 1.552 . S
C487 C32 1.568 . S
C492 C194 1.558 . S
C503 C54 1.591 . S
C508 C216 1.537 . S
C519 C76 1.532 . S
C524 C238 1.510 1_556 S
C535 C260 1.554 . S
C540 C10 1.560 . S
C551 C118 1.580 . S
C556 C272 1.500 . S
C567 C142 1.566 . S
C572 C304 1.484 . S
C583 C164 1.588 . S
C588 C326 1.548 . S
C599 C106 1.576 . S
C604 C348 1.494 . S
C615 C15 1.499 . S
C620 C351 1.552 . S
C631 C37 1.499 . S
C636 C103 1.551 . S
C647 C307 1.571 . S
C652 C59 1.566 . S
C663 C153 1.571 . S
C668 C81 1.511 . S
C679 C95 1.561 . S
C684 C263 1.584 . S
C695 C21 1.560 1_556 S
C700 C131 1.560 . S
C711 C147 1.533 . S
C716 C219 1.543 . S
C727 C169 1.500 . S
C732 C65 1.549 . S
C743 C191 1.511 . S
C748 C175 1.571 . S
C759 C279 1.560 . S
C764 C213 1.560 . S
C775 C235 1.566 . S
C780 C117 1.579 . S
C791 C329 1.559 . S
C796 C257 1.558 . S
C807 C271 1.505 . S
C812 C87 1.543 . S
C823 C197 1.581 . S
C828 C301 1.528 . S
C839 C323 1.543 . S
C844 C43 1.548 . S
C855 C345 1.515 . S
C860 C241 1.574 . S
C871 C8 1.577 . S
C876 C274 1.577 . S
C887 C128 1.574 . S
C892 C30 1.574 . S
C903 C52 1.558 . S
C908 C316 1.558 . S
C919 C162 1.574 . S
C924 C74 1.574 . S
C935 C98 1.576 . S
C940 C184 1.576 . S
C951 C228 1.556 . S
C956 C140 1.556 . S
C967 C206 1.578 . S
C972 C294 1.578 . S
C983 C338 1.572 . S
C988 C250 1.572 . S
C999 C285 1.070 . S
C1004 C7 1.070 . S
C1015 C125 1.109 . S
C1020 C29 1.109 . S
C1031 C51 1.161 . S
C1036 C315 1.161 . S
C1047 C161 1.128 . S
C1052 C73 1.128 . S
C1063 C109 1.107 . S
C1068 C183 1.107 . S
C1079 C139 1.133 . S
C1084 C227 1.133 . S
C1095 C293 1.071 . S
C1100 C205 1.071 . S
C1111 C337 1.042 . S
C1116 C249 1.042 . S
