# Generated by pormake.
# Topology vci, (7)-cn, num edge types: 1
# Building blocks:
#     Node 0, Type 0, BuildingBlock: NUHQUE_clean_sbu_2, # of connection points: 7
#     Node 1, Type 0, BuildingBlock: NUHQUE_clean_sbu_2, # of connection points: 7
#     Node 2, Type 0, BuildingBlock: NUHQUE_clean_sbu_2, # of connection points: 7
#     Node 3, Type 0, BuildingBlock: NUHQUE_clean_sbu_2, # of connection points: 7
#     Node 4, Type 0, BuildingBlock: NUHQUE_clean_sbu_2, # of connection points: 7
#     Node 5, Type 0, BuildingBlock: NUHQUE_clean_sbu_2, # of connection points: 7
#     Node 6, Type 0, BuildingBlock: NUHQUE_clean_sbu_2, # of connection points: 7
#     Node 7, Type 0, BuildingBlock: NUHQUE_clean_sbu_2, # of connection points: 7
#     Node 8, Type 0, BuildingBlock: NUHQUE_clean_sbu_2, # of connection points: 7
#     Node 9, Type 0, BuildingBlock: NUHQUE_clean_sbu_2, # of connection points: 7
#     Node 10, Type 0, BuildingBlock: NUHQUE_clean_sbu_2, # of connection points: 7
#     Node 11, Type 0, BuildingBlock: NUHQUE_clean_sbu_2, # of connection points: 7
#     Node 12, Type 0, BuildingBlock: NUHQUE_clean_sbu_2, # of connection points: 7
#     Node 13, Type 0, BuildingBlock: NUHQUE_clean_sbu_2, # of connection points: 7
#     Node 14, Type 0, BuildingBlock: NUHQUE_clean_sbu_2, # of connection points: 7
#     Node 15, Type 0, BuildingBlock: NUHQUE_clean_sbu_2, # of connection points: 7
#     Edge 16, Type (0, 0), BuildingBlock: UVAHIK_clean_linker_0, # of connection points: 2
#     Edge 17, Type (0, 0), BuildingBlock: UVAHIK_clean_linker_0, # of connection points: 2
#     Edge 18, Type (0, 0), BuildingBlock: UVAHIK_clean_linker_0, # of connection points: 2
#     Edge 19, Type (0, 0), BuildingBlock: UVAHIK_clean_linker_0, # of connection points: 2
#     Edge 20, Type (0, 0), BuildingBlock: UVAHIK_clean_linker_0, # of connection points: 2
#     Edge 21, Type (0, 0), BuildingBlock: UVAHIK_clean_linker_0, # of connection points: 2
#     Edge 22, Type (0, 0), BuildingBlock: UVAHIK_clean_linker_0, # of connection points: 2
#     Edge 23, Type (0, 0), BuildingBlock: UVAHIK_clean_linker_0, # of connection points: 2
#     Edge 24, Type (0, 0), BuildingBlock: UVAHIK_clean_linker_0, # of connection points: 2
#     Edge 25, Type (0, 0), BuildingBlock: UVAHIK_clean_linker_0, # of connection points: 2
#     Edge 26, Type (0, 0), BuildingBlock: UVAHIK_clean_linker_0, # of connection points: 2
#     Edge 27, Type (0, 0), BuildingBlock: UVAHIK_clean_linker_0, # of connection points: 2
#     Edge 28, Type (0, 0), BuildingBlock: UVAHIK_clean_linker_0, # of connection points: 2
#     Edge 29, Type (0, 0), BuildingBlock: UVAHIK_clean_linker_0, # of connection points: 2
#     Edge 30, Type (0, 0), BuildingBlock: UVAHIK_clean_linker_0, # of connection points: 2
#     Edge 31, Type (0, 0), BuildingBlock: UVAHIK_clean_linker_0, # of connection points: 2
#     Edge 32, Type (0, 0), BuildingBlock: UVAHIK_clean_linker_0, # of connection points: 2
#     Edge 33, Type (0, 0), BuildingBlock: UVAHIK_clean_linker_0, # of connection points: 2
#     Edge 34, Type (0, 0), BuildingBlock: UVAHIK_clean_linker_0, # of connection points: 2
#     Edge 35, Type (0, 0), BuildingBlock: UVAHIK_clean_linker_0, # of connection points: 2
#     Edge 36, Type (0, 0), BuildingBlock: UVAHIK_clean_linker_0, # of connection points: 2
#     Edge 37, Type (0, 0), BuildingBlock: UVAHIK_clean_linker_0, # of connection points: 2
#     Edge 38, Type (0, 0), BuildingBlock: UVAHIK_clean_linker_0, # of connection points: 2
#     Edge 39, Type (0, 0), BuildingBlock: UVAHIK_clean_linker_0, # of connection points: 2
#     Edge 40, Type (0, 0), BuildingBlock: UVAHIK_clean_linker_0, # of connection points: 2
#     Edge 41, Type (0, 0), BuildingBlock: UVAHIK_clean_linker_0, # of connection points: 2
#     Edge 42, Type (0, 0), BuildingBlock: UVAHIK_clean_linker_0, # of connection points: 2
#     Edge 43, Type (0, 0), BuildingBlock: UVAHIK_clean_linker_0, # of connection points: 2
#     Edge 44, Type (0, 0), BuildingBlock: UVAHIK_clean_linker_0, # of connection points: 2
#     Edge 45, Type (0, 0), BuildingBlock: UVAHIK_clean_linker_0, # of connection points: 2
#     Edge 46, Type (0, 0), BuildingBlock: UVAHIK_clean_linker_0, # of connection points: 2
#     Edge 47, Type (0, 0), BuildingBlock: UVAHIK_clean_linker_0, # of connection points: 2
#     Edge 48, Type (0, 0), BuildingBlock: UVAHIK_clean_linker_0, # of connection points: 2
#     Edge 49, Type (0, 0), BuildingBlock: UVAHIK_clean_linker_0, # of connection points: 2
#     Edge 50, Type (0, 0), BuildingBlock: UVAHIK_clean_linker_0, # of connection points: 2
#     Edge 51, Type (0, 0), BuildingBlock: UVAHIK_clean_linker_0, # of connection points: 2
#     Edge 52, Type (0, 0), BuildingBlock: UVAHIK_clean_linker_0, # of connection points: 2
#     Edge 53, Type (0, 0), BuildingBlock: UVAHIK_clean_linker_0, # of connection points: 2
#     Edge 54, Type (0, 0), BuildingBlock: UVAHIK_clean_linker_0, # of connection points: 2
#     Edge 55, Type (0, 0), BuildingBlock: UVAHIK_clean_linker_0, # of connection points: 2
#     Edge 56, Type (0, 0), BuildingBlock: UVAHIK_clean_linker_0, # of connection points: 2
#     Edge 57, Type (0, 0), BuildingBlock: UVAHIK_clean_linker_0, # of connection points: 2
#     Edge 58, Type (0, 0), BuildingBlock: UVAHIK_clean_linker_0, # of connection points: 2
#     Edge 59, Type (0, 0), BuildingBlock: UVAHIK_clean_linker_0, # of connection points: 2
#     Edge 60, Type (0, 0), BuildingBlock: UVAHIK_clean_linker_0, # of connection points: 2
#     Edge 61, Type (0, 0), BuildingBlock: UVAHIK_clean_linker_0, # of connection points: 2
#     Edge 62, Type (0, 0), BuildingBlock: UVAHIK_clean_linker_0, # of connection points: 2
#     Edge 63, Type (0, 0), BuildingBlock: UVAHIK_clean_linker_0, # of connection points: 2
#     Edge 64, Type (0, 0), BuildingBlock: UVAHIK_clean_linker_0, # of connection points: 2
#     Edge 65, Type (0, 0), BuildingBlock: UVAHIK_clean_linker_0, # of connection points: 2
#     Edge 66, Type (0, 0), BuildingBlock: UVAHIK_clean_linker_0, # of connection points: 2
#     Edge 67, Type (0, 0), BuildingBlock: UVAHIK_clean_linker_0, # of connection points: 2
#     Edge 68, Type (0, 0), BuildingBlock: UVAHIK_clean_linker_0, # of connection points: 2
#     Edge 69, Type (0, 0), BuildingBlock: UVAHIK_clean_linker_0, # of connection points: 2
#     Edge 70, Type (0, 0), BuildingBlock: UVAHIK_clean_linker_0, # of connection points: 2
#     Edge 71, Type (0, 0), BuildingBlock: UVAHIK_clean_linker_0, # of connection points: 2
# Relax obj value: 0.151
# Max RMSD: 0.216
# Mean RMSD: 0.216
data_MOF--net-vci--node1-NUHQUE_clean_sbu_2--edge1-UVAHIK_clean_linker_0
_symmetry_space_group_name_H-M    P1
_symmetry_Int_Tables_number       1
_symmetry_cell_setting            triclinic
loop_
_symmetry_equiv_pos_as_xyz
'x, y, z'
_cell_length_a     67.766516
_cell_length_b     82.213881
_cell_length_c     26.19377
_cell_angle_alpha  90.027343
_cell_angle_beta   89.956683
_cell_angle_gamma 89.99788
loop_
_atom_site_label
_atom_site_type_symbol
_atom_site_fract_x
_atom_site_fract_y
_atom_site_fract_z
_atom_type_partial_charge
O0 O 0.13417 0.15429 0.1145 0.0
Tb1 Tb 0.12824 0.12838 0.11807 0.0
Eu2 Eu 0.14036 0.13216 0.98265 0.0
C3 C 0.14716 0.16047 0.14641 0.0
O4 O 0.15766 0.15048 0.17458 0.0
C5 C 0.16933 0.1265 0.07408 0.0
O6 O 0.13971 0.10478 0.98751 0.0
C7 C 0.14883 0.14232 0.89077 0.0
C8 C 0.126 0.0966 0.96289 0.0
O9 O 0.11291 0.10465 0.93588 0.0
C10 C 0.09771 0.12863 0.03007 0.0
C11 C 0.14074 0.14979 0.84331 0.0
C12 C 0.1392 0.16686 0.8396 0.0
C13 C 0.13348 0.17432 0.79374 0.0
C14 C 0.12897 0.16458 0.75146 0.0
C15 C 0.13063 0.1476 0.75354 0.0
C16 C 0.13673 0.14022 0.79955 0.0
O17 O 0.15506 0.11717 0.09072 0.0
O18 O 0.16596 0.13654 0.03609 0.0
O19 O 0.13685 0.11548 0.18808 0.0
O20 O 0.11195 0.13093 0.19027 0.0
C21 C 0.12315 0.12144 0.2174 0.0
O22 O 0.10908 0.1387 0.0041 0.0
O23 O 0.10453 0.12008 0.06885 0.0
O24 O 0.14433 0.12713 0.90114 0.0
O25 O 0.14992 0.1515 0.93186 0.0
H26 H 0.14288 0.17445 0.87206 0.0
H27 H 0.12528 0.17033 0.71546 0.0
H28 H 0.13857 0.12713 0.80099 0.0
O29 O 0.3633 0.8512 0.63369 0.0
Tb30 Tb 0.3692 0.87711 0.63979 0.0
Eu31 Eu 0.35897 0.8736 0.50578 0.0
C32 C 0.35005 0.84474 0.66435 0.0
O33 O 0.33926 0.85449 0.69271 0.0
C34 C 0.32787 0.87841 0.59415 0.0
O35 O 0.35736 0.901 0.51241 0.0
C36 C 0.35118 0.86365 0.41322 0.0
C37 C 0.37234 0.91005 0.49761 0.0
O38 O 0.38806 0.9029 0.47866 0.0
C39 C 0.40131 0.8767 0.55595 0.0
C40 C 0.35901 0.85561 0.36627 0.0
C41 C 0.36009 0.83847 0.36337 0.0
C42 C 0.36565 0.83068 0.31777 0.0
C43 C 0.37025 0.84016 0.27497 0.0
C44 C 0.36899 0.85717 0.27622 0.0
C45 C 0.3632 0.86487 0.32199 0.0
O46 O 0.34127 0.88748 0.61636 0.0
O47 O 0.33288 0.86838 0.55722 0.0
O48 O 0.36306 0.89099 0.70987 0.0
O49 O 0.38367 0.87173 0.71285 0.0
C50 C 0.37477 0.88282 0.73968 0.0
O51 O 0.39021 0.86704 0.52781 0.0
O52 O 0.39369 0.88548 0.59321 0.0
O53 O 0.35693 0.87854 0.42379 0.0
O54 O 0.34872 0.85466 0.45428 0.0
H55 H 0.35623 0.8311 0.39619 0.0
H56 H 0.37376 0.83416 0.23921 0.0
H57 H 0.3617 0.87799 0.32285 0.0
O58 O 0.11924 0.83688 0.84875 0.0
Tb59 Tb 0.12453 0.86261 0.86222 0.0
Eu60 Eu 0.13824 0.88653 0.01624 0.0
C61 C 0.13204 0.82574 0.86292 0.0
O62 O 0.14736 0.83009 0.89037 0.0
C63 C 0.16085 0.87693 0.9222 0.0
O64 O 0.13389 0.91363 0.01106 0.0
C65 C 0.14731 0.87848 0.10896 0.0
C66 C 0.12638 0.92101 0.97105 0.0
O67 O 0.12046 0.91236 0.93176 0.0
C68 C 0.09974 0.87708 0.95297 0.0
C69 C 0.14058 0.86848 0.15225 0.0
C70 C 0.1367 0.85171 0.1474 0.0
C71 C 0.13042 0.84264 0.19002 0.0
C72 C 0.12784 0.85057 0.23708 0.0
C73 C 0.13198 0.86715 0.24227 0.0
C74 C 0.13845 0.87603 0.2 0.0
O75 O 0.14456 0.86833 0.92369 0.0
O76 O 0.16411 0.88598 0.96236 0.0
O77 O 0.11168 0.8768 0.80034 0.0
O78 O 0.14225 0.87118 0.79774 0.0
C79 C 0.12783 0.87839 0.77406 0.0
O80 O 0.11332 0.87115 0.98376 0.0
O81 O 0.09992 0.87345 0.90376 0.0
O82 O 0.13617 0.89105 0.09764 0.0
O83 O 0.15466 0.87107 0.06866 0.0
H84 H 0.13861 0.84574 0.11085 0.0
H85 H 0.12354 0.84369 0.27061 0.0
H86 H 0.14183 0.88886 0.20432 0.0
O87 O 0.36816 0.16432 0.34793 0.0
Tb88 Tb 0.3684 0.13803 0.3554 0.0
Eu89 Eu 0.35343 0.1216 0.51885 0.0
C90 C 0.35374 0.17146 0.32288 0.0
O91 O 0.339 0.16255 0.30618 0.0
C92 C 0.33152 0.12729 0.42259 0.0
O93 O 0.3543 0.09419 0.51243 0.0
C94 C 0.34746 0.13153 0.61151 0.0
C95 C 0.37059 0.08586 0.52026 0.0
O96 O 0.38691 0.09369 0.53159 0.0
C97 C 0.3924 0.12803 0.45196 0.0
C98 C 0.35497 0.14258 0.65142 0.0
C99 C 0.35742 0.15943 0.64344 0.0
C100 C 0.36412 0.16945 0.68346 0.0
C101 C 0.36825 0.16246 0.73115 0.0
C102 C 0.36511 0.14584 0.74021 0.0
C103 C 0.35868 0.13598 0.69986 0.0
O104 O 0.35055 0.12818 0.41569 0.0
O105 O 0.32629 0.12382 0.46924 0.0
O106 O 0.35373 0.12801 0.28828 0.0
O107 O 0.38511 0.12699 0.29346 0.0
C108 C 0.36988 0.1234 0.2654 0.0
O109 O 0.37849 0.13524 0.47918 0.0
O110 O 0.39309 0.12997 0.40182 0.0
O111 O 0.35858 0.11891 0.60025 0.0
O112 O 0.33852 0.13792 0.57171 0.0
H113 H 0.35408 0.16474 0.60659 0.0
H114 H 0.37331 0.17017 0.76201 0.0
H115 H 0.35585 0.12317 0.70644 0.0
O116 O 0.86793 0.84498 0.83736 0.0
Tb117 Tb 0.87064 0.87122 0.84341 0.0
Eu118 Eu 0.85803 0.88305 0.00596 0.0
C119 C 0.85501 0.83859 0.80569 0.0
O120 O 0.84303 0.84829 0.78068 0.0
C121 C 0.83432 0.87954 0.9124 0.0
O122 O 0.86166 0.90986 0.99177 0.0
C123 C 0.85398 0.87573 0.10159 0.0
C124 C 0.87721 0.91773 0.0088 0.0
O125 O 0.89093 0.9097 0.03365 0.0
C126 C 0.89678 0.87744 0.93996 0.0
C127 C 0.86442 0.86766 0.14397 0.0
C128 C 0.8684 0.85084 0.14363 0.0
C129 C 0.87723 0.84335 0.18617 0.0
C130 C 0.88247 0.85294 0.22843 0.0
C131 C 0.87828 0.86962 0.22943 0.0
C132 C 0.86922 0.8769 0.18727 0.0
O133 O 0.8528 0.88252 0.90133 0.0
O134 O 0.83006 0.88018 0.96089 0.0
O135 O 0.85764 0.88236 0.77553 0.0
O136 O 0.88894 0.88061 0.78194 0.0
C137 C 0.87443 0.88548 0.75329 0.0
O138 O 0.88315 0.86973 0.96659 0.0
O139 O 0.89607 0.87775 0.88953 0.0
O140 O 0.86145 0.88959 0.0858 0.0
O141 O 0.84707 0.86659 0.06442 0.0
H142 H 0.86429 0.84352 0.11092 0.0
H143 H 0.88853 0.84724 0.26229 0.0
H144 H 0.86556 0.88974 0.1886 0.0
O145 O 0.6315 0.15322 0.36811 0.0
Tb146 Tb 0.62843 0.12694 0.36232 0.0
Eu147 Eu 0.6398 0.12773 0.50001 0.0
C148 C 0.64498 0.1606 0.34024 0.0
O149 O 0.65757 0.15168 0.31429 0.0
C150 C 0.66888 0.12394 0.40853 0.0
O151 O 0.64139 0.10036 0.4921 0.0
C152 C 0.6471 0.1374 0.59284 0.0
C153 C 0.6265 0.0912 0.50685 0.0
O154 O 0.61087 0.09822 0.52679 0.0
C155 C 0.59769 0.12462 0.44941 0.0
C156 C 0.63781 0.14493 0.63859 0.0
C157 C 0.63446 0.16187 0.64062 0.0
C158 C 0.62697 0.1692 0.68509 0.0
C159 C 0.6226 0.15944 0.72744 0.0
C160 C 0.62624 0.14268 0.72688 0.0
C161 C 0.63399 0.13546 0.68249 0.0
O162 O 0.65455 0.11492 0.39062 0.0
O163 O 0.66553 0.13327 0.44825 0.0
O164 O 0.64026 0.11847 0.28909 0.0
O165 O 0.61008 0.12489 0.2935 0.0
C166 C 0.624 0.11978 0.26325 0.0
O167 O 0.6086 0.13428 0.47797 0.0
O168 O 0.60513 0.11691 0.40969 0.0
O169 O 0.64219 0.12235 0.58146 0.0
O170 O 0.64956 0.14661 0.55226 0.0
H171 H 0.638 0.16946 0.60806 0.0
H172 H 0.61747 0.16509 0.76247 0.0
H173 H 0.63727 0.12255 0.68244 0.0
O174 O 0.86603 0.16439 0.13646 0.0
Tb175 Tb 0.86883 0.13833 0.12806 0.0
Eu176 Eu 0.85279 0.12715 0.96404 0.0
C177 C 0.85182 0.17036 0.165 0.0
O178 O 0.83864 0.16039 0.18441 0.0
C179 C 0.83164 0.12849 0.06247 0.0
O180 O 0.85778 0.10001 0.96311 0.0
C181 C 0.8453 0.1384 0.87348 0.0
C182 C 0.86644 0.09233 1.00101 0.0
O183 O 0.87231 0.10057 0.0411 0.0
C184 C 0.8926 0.13254 0.02783 0.0
C185 C 0.85336 0.1484 0.83136 0.0
C186 C 0.85392 0.16554 0.8337 0.0
C187 C 0.86043 0.17468 0.79138 0.0
C188 C 0.86656 0.16645 0.74706 0.0
C189 C 0.86568 0.14947 0.74401 0.0
C190 C 0.85902 0.14054 0.78605 0.0
O191 O 0.85073 0.12812 0.06896 0.0
O192 O 0.826 0.12709 0.0151 0.0
O193 O 0.85605 0.12682 0.1955 0.0
O194 O 0.8873 0.12905 0.18947 0.0
C195 C 0.87283 0.12402 0.21814 0.0
O196 O 0.8782 0.14022 0.00391 0.0
O197 O 0.89338 0.1323 0.0783 0.0
O198 O 0.85395 0.12435 0.88179 0.0
O199 O 0.8395 0.14572 0.91557 0.0
H200 H 0.84908 0.17176 0.86795 0.0
H201 H 0.87092 0.17329 0.71352 0.0
H202 H 0.85797 0.12741 0.78306 0.0
O203 O 0.63299 0.83942 0.64396 0.0
Tb204 Tb 0.63756 0.86505 0.62833 0.0
Eu205 Eu 0.64896 0.88026 0.46396 0.0
C206 C 0.6451 0.82819 0.62688 0.0
O207 O 0.65965 0.83229 0.59636 0.0
C208 C 0.67365 0.87446 0.55579 0.0
O209 O 0.64733 0.90771 0.46732 0.0
C210 C 0.6553 0.86907 0.37278 0.0
C211 C 0.6305 0.91568 0.46589 0.0
O212 O 0.61394 0.90749 0.46167 0.0
C213 C 0.61063 0.87561 0.53541 0.0
C214 C 0.648 0.85898 0.32998 0.0
C215 C 0.64636 0.84186 0.33277 0.0
C216 C 0.64083 0.83277 0.28925 0.0
C217 C 0.63697 0.84105 0.24335 0.0
C218 C 0.6391 0.85793 0.2401 0.0
C219 C 0.64456 0.8668 0.28326 0.0
O220 O 0.65541 0.8698 0.5626 0.0
O221 O 0.67707 0.87981 0.50986 0.0
O222 O 0.65497 0.87588 0.69008 0.0
O223 O 0.62377 0.87889 0.68931 0.0
C224 C 0.6399 0.88208 0.71423 0.0
O225 O 0.62294 0.86795 0.50438 0.0
O226 O 0.61282 0.87492 0.58563 0.0
O227 O 0.64599 0.88283 0.38185 0.0
O228 O 0.66184 0.86184 0.41424 0.0
H229 H 0.64961 0.83562 0.36821 0.0
H230 H 0.63345 0.83427 0.209 0.0
H231 H 0.64663 0.87985 0.28002 0.0
O232 O 0.64294 0.65388 0.15243 0.0
Tb233 Tb 0.63762 0.62781 0.15705 0.0
Eu234 Eu 0.64772 0.62786 0.01954 0.0
C235 C 0.65525 0.66082 0.18466 0.0
O236 O 0.66575 0.65152 0.21506 0.0
C237 C 0.67774 0.62421 0.10874 0.0
O238 O 0.64676 0.60062 0.03132 0.0
C239 C 0.65517 0.63543 0.92485 0.0
C240 C 0.63223 0.59214 0.01119 0.0
O241 O 0.61841 0.59987 0.98573 0.0
C242 C 0.60584 0.62897 0.07315 0.0
C243 C 0.64605 0.64295 0.87899 0.0
C244 C 0.6435 0.65994 0.87618 0.0
C245 C 0.63609 0.66719 0.83172 0.0
C246 C 0.63107 0.65744 0.78996 0.0
C247 C 0.63412 0.64057 0.79094 0.0
C248 C 0.64165 0.63336 0.83568 0.0
O249 O 0.66354 0.61543 0.12841 0.0
O250 O 0.67396 0.63349 0.06925 0.0
O251 O 0.64783 0.61605 0.22733 0.0
O252 O 0.62051 0.62845 0.22832 0.0
C253 C 0.63296 0.6202 0.25575 0.0
O254 O 0.61756 0.63698 0.04183 0.0
O255 O 0.61299 0.6199 0.11029 0.0
O256 O 0.64879 0.62102 0.93886 0.0
O257 O 0.65909 0.645 0.96378 0.0
H258 H 0.64768 0.66766 0.90793 0.0
H259 H 0.62614 0.66322 0.75498 0.0
H260 H 0.64441 0.62038 0.83641 0.0
O261 O 0.85324 0.35187 0.64925 0.0
Tb262 Tb 0.85887 0.37779 0.65442 0.0
Eu263 Eu 0.84938 0.37563 0.51846 0.0
C264 C 0.84027 0.34508 0.67992 0.0
O265 O 0.82926 0.35447 0.70892 0.0
C266 C 0.81889 0.38134 0.60582 0.0
O267 O 0.85146 0.40281 0.52787 0.0
C268 C 0.84223 0.36775 0.42394 0.0
C269 C 0.8675 0.41047 0.51295 0.0
O270 O 0.88202 0.40204 0.49283 0.0
C271 C 0.8911 0.37535 0.57248 0.0
C272 C 0.85131 0.36042 0.3777 0.0
C273 C 0.85499 0.34357 0.37537 0.0
C274 C 0.86188 0.33634 0.33021 0.0
C275 C 0.8655 0.34614 0.28747 0.0
C276 C 0.86176 0.3629 0.28847 0.0
C277 C 0.8545 0.37 0.33369 0.0
O278 O 0.83329 0.39017 0.62432 0.0
O279 O 0.82253 0.37146 0.56762 0.0
O280 O 0.84837 0.38953 0.72459 0.0
O281 O 0.87564 0.37705 0.72614 0.0
C282 C 0.86308 0.38529 0.75338 0.0
O283 O 0.87944 0.36671 0.54262 0.0
O284 O 0.88383 0.38502 0.60798 0.0
O285 O 0.84821 0.3823 0.43774 0.0
O286 O 0.83869 0.35811 0.46298 0.0
H287 H 0.85206 0.33594 0.40823 0.0
H288 H 0.87005 0.34049 0.25193 0.0
H289 H 0.85107 0.38288 0.33435 0.0
O290 O 0.61997 0.34161 0.88114 0.0
Tb291 Tb 0.61849 0.36783 0.88933 0.0
Eu292 Eu 0.63657 0.38022 0.05308 0.0
C293 C 0.63444 0.33527 0.85419 0.0
O294 O 0.64838 0.34493 0.83691 0.0
C295 C 0.6567 0.37721 0.95308 0.0
O296 O 0.63478 0.4077 0.05572 0.0
C297 C 0.64407 0.36761 0.14196 0.0
C298 C 0.62746 0.41627 0.01778 0.0
O299 O 0.62057 0.4087 0.97743 0.0
C300 C 0.59618 0.37691 0.98962 0.0
C301 C 0.63572 0.35752 0.18366 0.0
C302 C 0.63478 0.34037 0.18085 0.0
C303 C 0.62777 0.33123 0.22275 0.0
C304 C 0.62176 0.33945 0.26717 0.0
C305 C 0.62321 0.35638 0.27088 0.0
C306 C 0.63019 0.36532 0.22923 0.0
O307 O 0.63754 0.37721 0.94793 0.0
O308 O 0.66277 0.37923 0.9999 0.0
O309 O 0.63202 0.37878 0.82197 0.0
O310 O 0.60068 0.37716 0.82672 0.0
C311 C 0.61547 0.38177 0.79845 0.0
O312 O 0.60991 0.3686 0.01413 0.0
O313 O 0.59481 0.37601 0.93925 0.0
O314 O 0.63626 0.38211 0.13557 0.0
O315 O 0.64908 0.36054 0.09879 0.0
H316 H 0.63964 0.33413 0.14664 0.0
H317 H 0.61705 0.33258 0.30036 0.0
H318 H 0.63162 0.37841 0.23276 0.0
O319 O 0.87098 0.67137 0.38309 0.0
Tb320 Tb 0.86687 0.64574 0.3996 0.0
Eu321 Eu 0.86052 0.62056 0.55729 0.0
C322 C 0.85849 0.67857 0.35204 0.0
O323 O 0.84345 0.67022 0.33438 0.0
C324 C 0.83378 0.63321 0.47292 0.0
O325 O 0.86211 0.59354 0.54451 0.0
C326 C 0.85505 0.62733 0.65276 0.0
C327 C 0.87864 0.58525 0.54756 0.0
O328 O 0.89523 0.59291 0.55729 0.0
C329 C 0.89506 0.63065 0.48138 0.0
C330 C 0.85776 0.63879 0.69516 0.0
C331 C 0.86015 0.65563 0.68741 0.0
C332 C 0.86089 0.66624 0.72962 0.0
C333 C 0.85865 0.65987 0.77905 0.0
C334 C 0.85612 0.64317 0.78674 0.0
C335 C 0.85604 0.63265 0.74486 0.0
O336 O 0.85031 0.64132 0.46872 0.0
O337 O 0.83241 0.62346 0.51219 0.0
O338 O 0.84516 0.63603 0.34598 0.0
O339 O 0.87558 0.63196 0.33188 0.0
C340 C 0.85781 0.62949 0.3149 0.0
O341 O 0.88279 0.63649 0.51593 0.0
O342 O 0.89309 0.63468 0.43277 0.0
O343 O 0.87054 0.61919 0.63631 0.0
O344 O 0.84265 0.63154 0.61655 0.0
H345 H 0.86131 0.66041 0.64897 0.0
H346 H 0.85846 0.66797 0.81175 0.0
H347 H 0.85373 0.61973 0.75086 0.0
O348 O 0.37361 0.34371 0.84579 0.0
Tb349 Tb 0.37694 0.36986 0.85413 0.0
Eu350 Eu 0.35928 0.38522 0.01594 0.0
C351 C 0.3592 0.33792 0.81741 0.0
O352 O 0.34617 0.3481 0.79852 0.0
C353 C 0.33894 0.37955 0.91728 0.0
O354 O 0.35972 0.41247 0.00484 0.0
C355 C 0.35333 0.37693 0.11012 0.0
C356 C 0.37536 0.42129 0.01571 0.0
O357 O 0.39134 0.41404 0.03258 0.0
C358 C 0.39908 0.37782 0.95464 0.0
C359 C 0.36136 0.3667 0.15155 0.0
C360 C 0.36242 0.34959 0.14818 0.0
C361 C 0.3699 0.34043 0.18934 0.0
C362 C 0.37633 0.34858 0.23347 0.0
C363 C 0.37485 0.3655 0.23757 0.0
C364 C 0.36733 0.37447 0.19667 0.0
O365 O 0.35797 0.3811 0.91018 0.0
O366 O 0.33303 0.38174 0.96428 0.0
O367 O 0.36491 0.38146 0.78602 0.0
O368 O 0.39604 0.37856 0.79304 0.0
C369 C 0.38188 0.3839 0.76397 0.0
O370 O 0.38393 0.37094 0.97766 0.0
O371 O 0.40115 0.37648 0.90462 0.0
O372 O 0.36418 0.38948 0.0966 0.0
O373 O 0.34443 0.36976 0.07153 0.0
H374 H 0.35741 0.34341 0.11401 0.0
H375 H 0.38147 0.34165 0.26608 0.0
H376 H 0.36601 0.38758 0.20017 0.0
O377 O 0.12289 0.66736 0.34746 0.0
Tb378 Tb 0.12331 0.6413 0.35996 0.0
Eu379 Eu 0.13475 0.61664 0.51534 0.0
C380 C 0.13562 0.67348 0.3148 0.0
O381 O 0.14854 0.6637 0.29341 0.0
C382 C 0.15823 0.62672 0.42344 0.0
O383 O 0.13287 0.58951 0.50443 0.0
C384 C 0.14296 0.62424 0.60884 0.0
C385 C 0.11633 0.58122 0.50724 0.0
O386 O 0.09965 0.58892 0.5155 0.0
C387 C 0.09734 0.62692 0.44831 0.0
C388 C 0.13765 0.6348 0.65217 0.0
C389 C 0.13534 0.65178 0.64739 0.0
C390 C 0.13103 0.66122 0.69079 0.0
C391 C 0.12891 0.65368 0.73842 0.0
C392 C 0.13162 0.63688 0.74358 0.0
C393 C 0.13595 0.62752 0.70038 0.0
O394 O 0.14183 0.63507 0.42372 0.0
O395 O 0.16128 0.61767 0.4636 0.0
O396 O 0.14128 0.62922 0.30167 0.0
O397 O 0.11019 0.63097 0.29147 0.0
C398 C 0.1266 0.62579 0.27148 0.0
O399 O 0.11083 0.63249 0.48006 0.0
O400 O 0.0978 0.63111 0.39951 0.0
O401 O 0.13017 0.61284 0.5965 0.0
O402 O 0.15197 0.63083 0.56939 0.0
H403 H 0.13723 0.65764 0.61066 0.0
H404 H 0.12609 0.66104 0.77204 0.0
H405 H 0.13823 0.61452 0.70443 0.0
O406 O 0.35796 0.65718 0.13104 0.0
Tb407 Tb 0.36204 0.63103 0.13593 0.0
Eu408 Eu 0.35286 0.63264 0.99659 0.0
C409 C 0.34417 0.66408 0.15906 0.0
O410 O 0.33162 0.65473 0.1836 0.0
C411 C 0.32273 0.62554 0.08506 0.0
O412 O 0.35347 0.60515 0.99985 0.0
C413 C 0.34552 0.64338 0.90488 0.0
C414 C 0.36958 0.59697 0.98843 0.0
O415 O 0.38545 0.60501 0.9745 0.0
C416 C 0.39434 0.63196 0.05403 0.0
C417 C 0.35403 0.65146 0.85894 0.0
C418 C 0.3558 0.66858 0.85663 0.0
C419 C 0.36223 0.67632 0.81164 0.0
C420 C 0.36708 0.66677 0.76908 0.0
C421 C 0.36503 0.64983 0.77 0.0
C422 C 0.35836 0.64221 0.81485 0.0
O423 O 0.33761 0.6175 0.10453 0.0
O424 O 0.32577 0.63542 0.04639 0.0
O425 O 0.35039 0.62308 0.20992 0.0
O426 O 0.38083 0.62834 0.20369 0.0
C427 C 0.36692 0.62381 0.23481 0.0
O428 O 0.38342 0.64038 0.0218 0.0
O429 O 0.38629 0.62265 0.08915 0.0
O430 O 0.35079 0.6283 0.91453 0.0
O431 O 0.34309 0.65215 0.94647 0.0
H432 H 0.35184 0.67593 0.88941 0.0
H433 H 0.37137 0.67263 0.73367 0.0
H434 H 0.35626 0.62914 0.81506 0.0
O435 O 0.13965 0.349 0.62129 0.0
Tb436 Tb 0.13546 0.37506 0.62679 0.0
Eu437 Eu 0.14403 0.37093 0.48998 0.0
C438 C 0.15346 0.34209 0.64901 0.0
O439 O 0.16573 0.3514 0.67461 0.0
C440 C 0.17489 0.37827 0.57615 0.0
O441 O 0.14282 0.39834 0.49251 0.0
C442 C 0.15121 0.35997 0.39835 0.0
C443 C 0.127 0.40608 0.47642 0.0
O444 O 0.11218 0.39761 0.45801 0.0
C445 C 0.10269 0.37358 0.54656 0.0
C446 C 0.14274 0.35244 0.35147 0.0
C447 C 0.14059 0.33538 0.34805 0.0
C448 C 0.13447 0.32798 0.30228 0.0
C449 C 0.13021 0.33781 0.26 0.0
C450 C 0.13261 0.35471 0.26196 0.0
C451 C 0.13904 0.36201 0.30764 0.0
O452 O 0.16065 0.38734 0.59446 0.0
O453 O 0.17085 0.36765 0.54013 0.0
O454 O 0.14724 0.3839 0.69979 0.0
O455 O 0.1173 0.37677 0.69607 0.0
C456 C 0.13111 0.38217 0.72608 0.0
O457 O 0.11327 0.36421 0.51609 0.0
O458 O 0.11115 0.38329 0.58001 0.0
O459 O 0.14713 0.3753 0.40807 0.0
O460 O 0.15239 0.35099 0.43985 0.0
H461 H 0.14409 0.32779 0.3806 0.0
H462 H 0.12615 0.3322 0.22402 0.0
H463 H 0.14145 0.37503 0.3087 0.0
C464 C 0.92102 0.13946 0.9713 0.0
C465 C 0.91081 0.12802 1.00098 0.0
C466 C 0.94104 0.13707 0.96011 0.0
C467 C 0.98223 0.1176 0.02469 0.0
H468 H 0.01364 0.13177 0.90927 0.0
C469 C 0.06607 0.11318 0.03265 0.0
C470 C 0.07678 0.12673 0.01551 0.0
C471 C 0.04606 0.11164 0.0214 0.0
C472 C 0.00503 0.12784 0.94184 0.0
H473 H 0.91249 0.10442 0.03728 0.0
H474 H 0.94697 0.09986 0.01571 0.0
H475 H 0.97751 0.1315 0.9027 0.0
H476 H 0.07513 0.14899 0.97131 0.0
H477 H 0.03989 0.14657 0.95303 0.0
H478 H 0.00931 0.1145 0.06469 0.0
C479 C 0.93991 0.1109 0.00249 0.0
C480 C 0.98439 0.12763 0.93799 0.0
C481 C 0.92012 0.11342 0.0144 0.0
C482 C 0.06722 0.13844 0.98525 0.0
C483 C 0.04706 0.13699 0.97445 0.0
C484 C 0.00269 0.11787 0.02859 0.0
C485 C 0.95091 0.12315 0.97816 0.0
C486 C 0.97279 0.12248 0.97946 0.0
C487 C 0.03618 0.12372 0.99332 0.0
C488 C 0.01439 0.12299 0.98734 0.0
H489 H 0.91412 0.15089 0.96102 0.0
H490 H 0.94912 0.14673 0.94127 0.0
H491 H 0.97377 0.11405 0.05797 0.0
H492 H 0.0731 0.10377 0.05514 0.0
H493 H 0.03824 0.10106 0.03545 0.0
C494 C 0.43202 0.86765 0.50989 0.0
C495 C 0.42271 0.87809 0.54501 0.0
C496 C 0.45238 0.86874 0.5012 0.0
C497 C 0.49769 0.88336 0.5643 0.0
H498 H 0.52193 0.87788 0.43118 0.0
C499 C 0.58025 0.89213 0.5431 0.0
C500 C 0.59044 0.87953 0.51839 0.0
C501 C 0.55988 0.89368 0.53772 0.0
C502 C 0.51534 0.87938 0.46858 0.0
H503 H 0.42742 0.89831 0.5969 0.0
H504 H 0.46265 0.90033 0.58129 0.0
H505 H 0.48589 0.87692 0.43943 0.0
H506 H 0.58764 0.8594 0.46552 0.0
H507 H 0.55175 0.86194 0.45659 0.0
H508 H 0.52688 0.88564 0.59377 0.0
C509 C 0.45437 0.89104 0.5613 0.0
C510 C 0.49473 0.87878 0.47335 0.0
C511 C 0.43411 0.88991 0.57013 0.0
C512 C 0.58012 0.86928 0.48478 0.0
C513 C 0.55958 0.87073 0.47978 0.0
C514 C 0.51815 0.88399 0.55954 0.0
C515 C 0.46384 0.88032 0.52736 0.0
C516 C 0.48568 0.88086 0.52133 0.0
C517 C 0.54917 0.8825 0.50809 0.0
C518 C 0.52726 0.88211 0.51166 0.0
H519 H 0.42366 0.85844 0.48977 0.0
H520 H 0.45922 0.86021 0.47509 0.0
H521 H 0.49129 0.88457 0.60203 0.0
H522 H 0.58794 0.90029 0.56881 0.0
H523 H 0.55238 0.90317 0.55889 0.0
C524 C 0.92499 0.8729 1.00047 0.0
C525 C 0.91546 0.88257 0.9638 0.0
C526 C 0.94476 0.87597 0.01326 0.0
C527 C 0.98788 0.89283 0.94853 0.0
H528 H 0.01539 0.88573 0.07628 0.0
C529 C 0.07125 0.89587 0.94913 0.0
C530 C 0.08089 0.88302 0.97378 0.0
C531 C 0.0515 0.89924 0.95972 0.0
C532 C 0.0079 0.88772 0.04032 0.0
H533 H 0.91805 0.90399 0.9163 0.0
H534 H 0.9521 0.9097 0.93981 0.0
H535 H 0.97916 0.88526 0.07441 0.0
H536 H 0.07805 0.86425 0.03121 0.0
H537 H 0.04316 0.86963 0.04836 0.0
H538 H 0.01613 0.89456 0.9136 0.0
C539 C 0.94474 0.89942 0.95734 0.0
C540 C 0.98717 0.88747 0.03931 0.0
C541 C 0.92523 0.89621 0.94403 0.0
C542 C 0.07091 0.87431 0.01197 0.0
C543 C 0.05092 0.87743 0.02178 0.0
C544 C 0.00841 0.893 0.94946 0.0
C545 C 0.95509 0.88885 0.98989 0.0
C546 C 0.97696 0.89001 0.99326 0.0
C547 C 0.04075 0.88946 0.99399 0.0
C548 C 0.01877 0.89043 0.99523 0.0
H549 H 0.91771 0.8623 0.01621 0.0
H550 H 0.9523 0.86761 0.0385 0.0
H551 H 0.98057 0.89434 0.91207 0.0
H552 H 0.07874 0.90282 0.91977 0.0
H553 H 0.04435 0.90896 0.93884 0.0
C554 C 0.56627 0.10904 0.44071 0.0
C555 C 0.57671 0.12204 0.4626 0.0
C556 C 0.54624 0.10691 0.45094 0.0
C557 C 0.5048 0.11971 0.53512 0.0
H558 H 0.47393 0.11028 0.4142 0.0
C559 C 0.42092 0.13232 0.51065 0.0
C560 C 0.41069 0.12237 0.47611 0.0
C561 C 0.44093 0.1294 0.52062 0.0
C562 C 0.48227 0.11256 0.44873 0.0
H563 H 0.57453 0.14263 0.51409 0.0
H564 H 0.53929 0.13919 0.53079 0.0
H565 H 0.50949 0.11106 0.40827 0.0
H566 H 0.41224 0.10066 0.42966 0.0
H567 H 0.44675 0.09506 0.44891 0.0
H568 H 0.47719 0.12174 0.575 0.0
C569 C 0.54669 0.1305 0.50632 0.0
C570 C 0.50275 0.11303 0.44526 0.0
C571 C 0.56684 0.13254 0.49643 0.0
C572 C 0.41997 0.10853 0.45616 0.0
C573 C 0.43974 0.10543 0.46685 0.0
C574 C 0.48415 0.11926 0.5386 0.0
C575 C 0.53609 0.11783 0.48286 0.0
C576 C 0.5143 0.11666 0.48826 0.0
C577 C 0.45077 0.11641 0.49651 0.0
C578 C 0.47268 0.1157 0.4953 0.0
H579 H 0.57351 0.10053 0.41527 0.0
H580 H 0.53863 0.09681 0.43316 0.0
H581 H 0.51331 0.12244 0.56904 0.0
H582 H 0.41405 0.14315 0.5261 0.0
H583 H 0.449 0.13808 0.54366 0.0
C584 C 0.57593 0.63912 0.02639 0.0
C585 C 0.58419 0.63035 0.06722 0.0
C586 C 0.55544 0.64072 0.02191 0.0
C587 C 0.51002 0.63868 0.09902 0.0
H588 H 0.48334 0.63177 0.96985 0.0
C589 C 0.42753 0.62518 0.0892 0.0
C590 C 0.41613 0.63294 0.0516 0.0
C591 C 0.44803 0.62632 0.08852 0.0
C592 C 0.49062 0.63397 0.00599 0.0
H593 H 0.57738 0.61619 0.13494 0.0
H594 H 0.54182 0.61891 0.12692 0.0
H595 H 0.51944 0.63102 0.97336 0.0
H596 H 0.4174 0.64778 0.98321 0.0
H597 H 0.45349 0.64972 0.98202 0.0
H598 H 0.48134 0.64137 0.1319 0.0
C599 C 0.55115 0.62474 0.09874 0.0
C600 C 0.51126 0.63354 0.00802 0.0
C601 C 0.57155 0.62308 0.1031 0.0
C602 C 0.42577 0.6417 0.01279 0.0
C603 C 0.4464 0.64276 0.01197 0.0
C604 C 0.48948 0.63912 0.09699 0.0
C605 C 0.54286 0.63366 0.05835 0.0
C606 C 0.52113 0.63553 0.05481 0.0
C607 C 0.45771 0.6352 0.05019 0.0
C608 C 0.47954 0.6364 0.05072 0.0
H609 H 0.58526 0.64485 0.99802 0.0
H610 H 0.54947 0.64773 0.9905 0.0
H611 H 0.51723 0.64065 0.13541 0.0
H612 H 0.42066 0.61829 0.11962 0.0
H613 H 0.45635 0.62011 0.11795 0.0
C614 C 0.06976 0.38243 0.57895 0.0
C615 C 0.08089 0.37308 0.54443 0.0
C616 C 0.04924 0.38156 0.57911 0.0
C617 C 0.00609 0.37071 0.50202 0.0
H618 H 0.9804 0.36861 0.63426 0.0
C619 C 0.92116 0.36439 0.52807 0.0
C620 C 0.91275 0.37431 0.56608 0.0
C621 C 0.94168 0.36323 0.52318 0.0
C622 C 0.98734 0.36932 0.59704 0.0
H623 H 0.07911 0.35574 0.48208 0.0
H624 H 0.04302 0.35425 0.48248 0.0
H625 H 0.01626 0.36837 0.62932 0.0
H626 H 0.91929 0.391 0.6281 0.0
H627 H 0.95488 0.38904 0.61924 0.0
H628 H 0.97704 0.37187 0.46988 0.0
C629 C 0.05032 0.36225 0.50931 0.0
C630 C 0.00787 0.36916 0.59423 0.0
C631 C 0.07096 0.36307 0.50927 0.0
C632 C 0.92525 0.38316 0.59858 0.0
C633 C 0.94568 0.38198 0.59376 0.0
C634 C 0.98547 0.37088 0.50483 0.0
C635 C 0.03929 0.37134 0.54475 0.0
C636 C 0.01748 0.37017 0.5468 0.0
C637 C 0.95414 0.3719 0.55631 0.0
C638 C 0.97591 0.37049 0.5525 0.0
H639 H 0.07687 0.39034 0.60638 0.0
H640 H 0.04113 0.38895 0.60623 0.0
H641 H 0.01312 0.37157 0.46495 0.0
H642 H 0.91195 0.35744 0.50236 0.0
H643 H 0.94779 0.35531 0.4941 0.0
C644 C 0.42468 0.37407 0.02216 0.0
C645 C 0.41613 0.38371 0.98395 0.0
C646 C 0.44367 0.37765 0.04014 0.0
C647 C 0.488 0.39769 0.9888 0.0
H648 H 0.51191 0.38419 0.11634 0.0
C649 C 0.5707 0.39798 1.00195 0.0
C650 C 0.57866 0.38297 0.01662 0.0
C651 C 0.5513 0.40196 0.0145 0.0
C652 C 0.50539 0.3881 0.08066 0.0
H653 H 0.41934 0.40554 0.93871 0.0
H654 H 0.45173 0.4125 0.97245 0.0
H655 H 0.47585 0.38447 0.10809 0.0
H656 H 0.5734 0.36088 0.05936 0.0
H657 H 0.53908 0.36754 0.07994 0.0
H658 H 0.51717 0.4008 0.9605 0.0
C659 C 0.44445 0.4017 0.98682 0.0
C660 C 0.48476 0.38822 0.07584 0.0
C661 C 0.42583 0.39784 0.96779 0.0
C662 C 0.56757 0.3726 0.04806 0.0
C663 C 0.54792 0.37644 0.05981 0.0
C664 C 0.50843 0.39767 0.99371 0.0
C665 C 0.45416 0.39111 0.02077 0.0
C666 C 0.47582 0.3928 0.02947 0.0
C667 C 0.53928 0.39076 0.04062 0.0
C668 C 0.51745 0.39267 0.03933 0.0
H669 H 0.41745 0.36305 0.03493 0.0
H670 H 0.45062 0.36919 0.06618 0.0
H671 H 0.48187 0.4008 0.95192 0.0
H672 H 0.57904 0.40617 0.97775 0.0
H673 H 0.54524 0.41329 1.00031 0.0
C674 C 0.06793 0.60932 0.43773 0.0
C675 C 0.07861 0.6203 0.46795 0.0
C676 C 0.04848 0.60541 0.44996 0.0
C677 C 0.00794 0.611 0.54551 0.0
H678 H 0.97636 0.61376 0.42251 0.0
C679 C 0.92488 0.62899 0.53759 0.0
C680 C 0.91378 0.62294 0.49651 0.0
C681 C 0.94475 0.62455 0.54306 0.0
C682 C 0.98485 0.61257 0.45733 0.0
H683 H 0.07794 0.63491 0.53675 0.0
H684 H 0.04354 0.62861 0.5572 0.0
H685 H 0.01183 0.61336 0.41585 0.0
H686 H 0.91375 0.60619 0.43279 0.0
H687 H 0.94798 0.59788 0.44357 0.0
H688 H 0.98052 0.61092 0.58685 0.0
C689 C 0.05029 0.62273 0.52459 0.0
C690 C 0.00533 0.61233 0.45349 0.0
C691 C 0.06999 0.62639 0.51284 0.0
C692 C 0.92213 0.61118 0.46433 0.0
C693 C 0.94177 0.60652 0.47035 0.0
C694 C 0.98727 0.61128 0.54939 0.0
C695 C 0.03906 0.61274 0.49196 0.0
C696 C 0.01721 0.61163 0.49741 0.0
C697 C 0.95365 0.61386 0.50787 0.0
C698 C 0.9755 0.61215 0.50522 0.0
H699 H 0.07439 0.60427 0.40333 0.0
H700 H 0.04049 0.59725 0.42491 0.0
H701 H 0.01664 0.61041 0.58011 0.0
H702 H 0.91874 0.63812 0.56282 0.0
H703 H 0.95346 0.63043 0.5724 0.0
C704 C 0.11904 0.20022 0.75963 0.0
C705 C 0.1339 0.1923 0.78759 0.0
C706 C 0.12094 0.21662 0.74659 0.0
C707 C 0.14803 0.25453 0.77554 0.0
H708 H 0.13646 0.26487 0.6342 0.0
C709 C 0.16744 0.31706 0.68964 0.0
C710 C 0.15308 0.32434 0.65842 0.0
C711 C 0.16569 0.30076 0.70418 0.0
C712 C 0.13957 0.26225 0.67391 0.0
H713 H 0.162 0.19558 0.82573 0.0
H714 H 0.16523 0.22429 0.80343 0.0
H715 H 0.13121 0.2373 0.66543 0.0
H716 H 0.12602 0.32004 0.61636 0.0
H717 H 0.12285 0.29171 0.64209 0.0
H718 H 0.15626 0.2795 0.78415 0.0
C719 C 0.15207 0.21781 0.7917 0.0
C720 C 0.13652 0.24644 0.69185 0.0
C721 C 0.15019 0.20137 0.80465 0.0
C722 C 0.13737 0.31479 0.64033 0.0
C723 C 0.13558 0.29851 0.65502 0.0
C724 C 0.151 0.27037 0.75765 0.0
C725 C 0.13772 0.22549 0.76135 0.0
C726 C 0.14068 0.2424 0.74288 0.0
C727 C 0.14951 0.29138 0.68793 0.0
C728 C 0.1468 0.27443 0.7066 0.0
H729 H 0.10616 0.19361 0.74659 0.0
H730 H 0.10942 0.22228 0.72413 0.0
H731 H 0.15121 0.25183 0.81517 0.0
H732 H 0.1798 0.32405 0.70399 0.0
H733 H 0.17691 0.29557 0.72866 0.0
C734 C 0.38019 0.80463 0.28518 0.0
C735 C 0.36513 0.81267 0.31216 0.0
C736 C 0.37814 0.78832 0.27123 0.0
C737 C 0.34972 0.75059 0.29462 0.0
H738 H 0.36343 0.74116 0.15386 0.0
C739 C 0.3304 0.68896 0.20141 0.0
C740 C 0.3449 0.68175 0.17034 0.0
C741 C 0.33236 0.70507 0.21785 0.0
C742 C 0.35973 0.7435 0.19341 0.0
H743 H 0.33655 0.80962 0.34804 0.0
H744 H 0.33302 0.781 0.32408 0.0
H745 H 0.36872 0.76838 0.18785 0.0
H746 H 0.37253 0.68605 0.13078 0.0
H747 H 0.37607 0.71406 0.15977 0.0
H748 H 0.34085 0.72566 0.3003 0.0
C749 C 0.34644 0.78735 0.31375 0.0
C750 C 0.36279 0.75913 0.21295 0.0
C751 C 0.34849 0.80373 0.32768 0.0
C752 C 0.36104 0.69123 0.15448 0.0
C753 C 0.36304 0.70733 0.17109 0.0
C754 C 0.34674 0.73491 0.27513 0.0
C755 C 0.36099 0.77961 0.28399 0.0
C756 C 0.35788 0.76286 0.26383 0.0
C757 C 0.34891 0.71437 0.20377 0.0
C758 C 0.35172 0.73116 0.22424 0.0
H759 H 0.39331 0.81114 0.2733 0.0
H760 H 0.38983 0.78261 0.24939 0.0
H761 H 0.34594 0.75302 0.33407 0.0
H762 H 0.31772 0.68203 0.21413 0.0
H763 H 0.32098 0.71018 0.24204 0.0
C764 C 0.1194 0.70094 0.31612 0.0
C765 C 0.13475 0.69077 0.29928 0.0
C766 C 0.11817 0.71703 0.29902 0.0
C767 C 0.14817 0.75 0.24353 0.0
H768 H 0.09754 0.76817 0.20477 0.0
C769 C 0.14275 0.81501 0.16494 0.0
C770 C 0.12808 0.8247 0.18758 0.0
C771 C 0.1425 0.79811 0.17114 0.0
C772 C 0.11178 0.76329 0.21566 0.0
H773 H 0.16096 0.68956 0.25174 0.0
H774 H 0.1588 0.71754 0.22208 0.0
H775 H 0.09952 0.73994 0.23335 0.0
H776 H 0.10081 0.82423 0.23086 0.0
H777 H 0.10051 0.79485 0.24237 0.0
H778 H 0.16041 0.77335 0.22694 0.0
C779 C 0.14778 0.71315 0.24867 0.0
C780 C 0.11289 0.74714 0.23218 0.0
C781 C 0.14896 0.69708 0.26556 0.0
C782 C 0.11245 0.81707 0.21351 0.0
C783 C 0.1122 0.80021 0.21974 0.0
C784 C 0.14705 0.76613 0.22718 0.0
C785 C 0.13232 0.72329 0.26497 0.0
C786 C 0.13109 0.74035 0.24662 0.0
C787 C 0.12756 0.79058 0.20005 0.0
C788 C 0.12883 0.77302 0.21337 0.0
H789 H 0.10821 0.69643 0.34205 0.0
H790 H 0.10623 0.72461 0.31278 0.0
H791 H 0.16237 0.7452 0.25502 0.0
H792 H 0.15503 0.82053 0.14491 0.0
H793 H 0.15436 0.791 0.15468 0.0
C794 C 0.3749 0.31029 0.81309 0.0
C795 C 0.35891 0.32057 0.80187 0.0
C796 C 0.37541 0.29434 0.79436 0.0
C797 C 0.34399 0.26135 0.74399 0.0
H798 H 0.39318 0.24511 0.68795 0.0
C799 C 0.34906 0.19645 0.66153 0.0
C800 C 0.36539 0.18742 0.67844 0.0
C801 C 0.34854 0.21337 0.66808 0.0
C802 C 0.37935 0.24941 0.70369 0.0
H803 H 0.33064 0.32198 0.76332 0.0
H804 H 0.33147 0.29414 0.73102 0.0
H805 H 0.39139 0.27294 0.71994 0.0
H806 H 0.39459 0.18911 0.71158 0.0
H807 H 0.39369 0.21844 0.7234 0.0
H808 H 0.33206 0.23774 0.72903 0.0
C809 C 0.34363 0.29841 0.75427 0.0
C810 C 0.37834 0.26536 0.72215 0.0
C811 C 0.34318 0.31439 0.7727 0.0
C812 C 0.38176 0.19576 0.69845 0.0
C813 C 0.38126 0.21261 0.70498 0.0
C814 C 0.34502 0.24537 0.72578 0.0
C815 C 0.35987 0.28827 0.76428 0.0
C816 C 0.36072 0.27147 0.74308 0.0
C817 C 0.36437 0.22159 0.69152 0.0
C818 C 0.36278 0.23911 0.70594 0.0
H819 H 0.38726 0.31465 0.83543 0.0
H820 H 0.38799 0.28676 0.80345 0.0
H821 H 0.33024 0.26563 0.76024 0.0
H822 H 0.33619 0.19034 0.64623 0.0
H823 H 0.33545 0.21994 0.65637 0.0
C824 C 0.84799 0.70299 0.30222 0.0
C825 C 0.86194 0.69537 0.33388 0.0
C826 C 0.85155 0.71848 0.28248 0.0
C827 C 0.8815 0.75543 0.30212 0.0
H828 H 0.86546 0.76497 0.16316 0.0
C829 C 0.89553 0.81822 0.213 0.0
C830 C 0.87897 0.82537 0.18978 0.0
C831 C 0.89563 0.80166 0.22489 0.0
C832 C 0.86997 0.7625 0.20206 0.0
H833 H 0.8905 0.69812 0.37011 0.0
H834 H 0.89683 0.72518 0.33524 0.0
H835 H 0.8612 0.73755 0.19703 0.0
H836 H 0.84993 0.82056 0.1585 0.0
H837 H 0.85017 0.79165 0.1788 0.0
H838 H 0.89004 0.78042 0.30735 0.0
C839 C 0.88303 0.71921 0.32609 0.0
C840 C 0.86748 0.74681 0.22155 0.0
C841 C 0.87943 0.70369 0.346 0.0
C842 C 0.86302 0.8154 0.17581 0.0
C843 C 0.86313 0.79882 0.1876 0.0
C844 C 0.88404 0.7711 0.28257 0.0
C845 C 0.86919 0.72672 0.29375 0.0
C846 C 0.87295 0.74315 0.27207 0.0
C847 C 0.87919 0.79188 0.21366 0.0
C848 C 0.87807 0.77487 0.23254 0.0
H849 H 0.8343 0.69696 0.29235 0.0
H850 H 0.84039 0.72404 0.2586 0.0
H851 H 0.88565 0.75309 0.34136 0.0
H852 H 0.90817 0.82555 0.22354 0.0
H853 H 0.90838 0.79659 0.24408 0.0
C854 C 0.64922 0.31142 0.8085 0.0
C855 C 0.6339 0.31798 0.83833 0.0
C856 C 0.64799 0.29553 0.78973 0.0
C857 C 0.62195 0.25636 0.80825 0.0
H858 H 0.63922 0.24786 0.66953 0.0
C859 C 0.60905 0.19414 0.71486 0.0
C860 C 0.62542 0.18716 0.6902 0.0
C861 C 0.60911 0.21057 0.72843 0.0
C862 C 0.63445 0.25002 0.70842 0.0
H863 H 0.60544 0.31285 0.87264 0.0
H864 H 0.60322 0.28519 0.83961 0.0
H865 H 0.64176 0.27532 0.70444 0.0
H866 H 0.65426 0.19216 0.65802 0.0
H867 H 0.65434 0.22092 0.68145 0.0
H868 H 0.61469 0.23108 0.81234 0.0
C869 C 0.61629 0.29227 0.83111 0.0
C870 C 0.63596 0.26574 0.72853 0.0
C871 C 0.61754 0.30816 0.84997 0.0
C872 C 0.64135 0.19722 0.67653 0.0
C873 C 0.64141 0.21369 0.69013 0.0
C874 C 0.6204 0.24067 0.78813 0.0
C875 C 0.6314 0.28582 0.80028 0.0
C876 C 0.62977 0.2691 0.77876 0.0
C877 C 0.62554 0.22042 0.71765 0.0
C878 C 0.62664 0.2373 0.738 0.0
H879 H 0.66208 0.31863 0.79897 0.0
H880 H 0.66006 0.29086 0.76693 0.0
H881 H 0.61735 0.25842 0.84732 0.0
H882 H 0.59645 0.18673 0.72527 0.0
H883 H 0.59646 0.21547 0.74854 0.0
C884 C 0.85573 0.31765 0.66799 0.0
C885 C 0.8404 0.32724 0.68807 0.0
C886 C 0.85741 0.30124 0.6813 0.0
C887 C 0.8303 0.26605 0.73271 0.0
H888 H 0.88223 0.25134 0.77429 0.0
C889 C 0.84262 0.20095 0.80933 0.0
C890 C 0.85941 0.19278 0.79087 0.0
C891 C 0.84039 0.21771 0.8017 0.0
C892 C 0.86766 0.25517 0.76233 0.0
H893 H 0.81426 0.3269 0.73591 0.0
H894 H 0.81706 0.29816 0.75851 0.0
H895 H 0.87757 0.27943 0.74724 0.0
H896 H 0.88755 0.19602 0.7528 0.0
H897 H 0.88349 0.22501 0.73837 0.0
H898 H 0.82044 0.24173 0.74657 0.0
C899 C 0.82784 0.30339 0.73274 0.0
C900 C 0.86501 0.27128 0.74681 0.0
C901 C 0.82627 0.31986 0.71985 0.0
C902 C 0.87433 0.2019 0.76694 0.0
C903 C 0.87207 0.2186 0.7591 0.0
C904 C 0.83299 0.24987 0.7478 0.0
C905 C 0.84369 0.294 0.71453 0.0
C906 C 0.84633 0.27688 0.73148 0.0
C907 C 0.85488 0.22668 0.77537 0.0
C908 C 0.85175 0.24418 0.76249 0.0
H909 H 0.86687 0.32294 0.64339 0.0
H910 H 0.86961 0.29425 0.66602 0.0
H911 H 0.81576 0.26999 0.72081 0.0
H912 H 0.83079 0.19429 0.82763 0.0
H913 H 0.82713 0.22357 0.8156 0.0
C914 C 0.64055 0.6885 0.1698 0.0
C915 C 0.65525 0.67875 0.19204 0.0
C916 C 0.63924 0.7051 0.18151 0.0
C917 C 0.65472 0.73526 0.28007 0.0
H918 H 0.63744 0.7665 0.1788 0.0
C919 C 0.65632 0.80565 0.30984 0.0
C920 C 0.64058 0.81462 0.28908 0.0
C921 C 0.65775 0.78882 0.30142 0.0
C922 C 0.64208 0.75791 0.20774 0.0
H923 H 0.68062 0.679 0.24243 0.0
H924 H 0.6787 0.70796 0.26168 0.0
H925 H 0.64155 0.7381 0.15478 0.0
H926 H 0.61323 0.8127 0.2466 0.0
H927 H 0.6157 0.78349 0.23208 0.0
H928 H 0.65549 0.75525 0.33278 0.0
C929 C 0.66781 0.70274 0.23628 0.0
C930 C 0.64443 0.74157 0.19395 0.0
C931 C 0.66903 0.68612 0.22484 0.0
C932 C 0.62573 0.80621 0.26238 0.0
C933 C 0.62719 0.78947 0.25383 0.0
C934 C 0.65249 0.75165 0.29378 0.0
C935 C 0.65269 0.71243 0.21547 0.0
C936 C 0.65069 0.72997 0.22994 0.0
C937 C 0.64349 0.78063 0.27196 0.0
C938 C 0.646 0.76316 0.25786 0.0
H939 H 0.62961 0.68322 0.14465 0.0
H940 H 0.62725 0.71206 0.16511 0.0
H941 H 0.65925 0.72669 0.30915 0.0
H942 H 0.6681 0.81175 0.33017 0.0
H943 H 0.67052 0.78239 0.31587 0.0
C944 C 0.66038 0.80149 0.64943 0.0
C945 C 0.64359 0.81145 0.6468 0.0
C946 C 0.6594 0.78626 0.67292 0.0
C947 C 0.62774 0.76181 0.76121 0.0
H948 H 0.66115 0.72654 0.71439 0.0
C949 C 0.61872 0.69303 0.8094 0.0
C950 C 0.63595 0.68503 0.82536 0.0
C951 C 0.61946 0.70928 0.79386 0.0
C952 C 0.65188 0.73636 0.72809 0.0
H953 H 0.61245 0.81309 0.6648 0.0
H954 H 0.6104 0.78617 0.70315 0.0
H955 H 0.66232 0.75266 0.67079 0.0
H956 H 0.66729 0.68769 0.83909 0.0
H957 H 0.66867 0.71609 0.81078 0.0
H958 H 0.61665 0.74497 0.81693 0.0
C959 C 0.62457 0.7903 0.68911 0.0
C960 C 0.65258 0.75137 0.7033 0.0
C961 C 0.62566 0.80568 0.6666 0.0
C962 C 0.65378 0.6937 0.82756 0.0
C963 C 0.6546 0.70984 0.81103 0.0
C964 C 0.62675 0.74665 0.78529 0.0
C965 C 0.6415 0.78047 0.69339 0.0
C966 C 0.64057 0.76436 0.71956 0.0
C967 C 0.63753 0.71763 0.793 0.0
C968 C 0.63889 0.73385 0.76905 0.0
H969 H 0.67447 0.80572 0.63505 0.0
H970 H 0.67286 0.77925 0.67618 0.0
H971 H 0.61855 0.77155 0.77568 0.0
H972 H 0.60486 0.6865 0.80703 0.0
H973 H 0.60615 0.71504 0.77984 0.0
C974 C 0.87915 0.31141 0.29806 0.0
C975 C 0.86333 0.31841 0.32497 0.0
C976 C 0.87877 0.29497 0.28479 0.0
C977 C 0.85416 0.2556 0.30928 0.0
H978 H 0.86678 0.24738 0.1671 0.0
C979 C 0.83748 0.19398 0.21272 0.0
C980 C 0.85213 0.18767 0.18028 0.0
C981 C 0.83879 0.20993 0.23091 0.0
C982 C 0.86343 0.24941 0.20703 0.0
H983 H 0.83524 0.31347 0.36148 0.0
H984 H 0.83468 0.28469 0.33868 0.0
H985 H 0.87042 0.2747 0.20162 0.0
H986 H 0.8794 0.19327 0.14054 0.0
H987 H 0.88179 0.22096 0.1726 0.0
H988 H 0.84719 0.23026 0.31465 0.0
C989 C 0.84739 0.29191 0.32798 0.0
C990 C 0.86556 0.26507 0.22686 0.0
C991 C 0.84774 0.30839 0.34119 0.0
C992 C 0.86783 0.19777 0.16533 0.0
C993 C 0.86916 0.21369 0.18361 0.0
C994 C 0.85211 0.23989 0.28948 0.0
C995 C 0.8626 0.28517 0.29824 0.0
C996 C 0.86096 0.26834 0.27818 0.0
C997 C 0.85479 0.2199 0.21708 0.0
C998 C 0.8567 0.23662 0.23809 0.0
H999 H 0.89149 0.3188 0.2857 0.0
H1000 H 0.89092 0.29002 0.2628 0.0
H1001 H 0.85063 0.25774 0.34906 0.0
H1002 H 0.82516 0.18653 0.2248 0.0
H1003 H 0.82729 0.21444 0.2559 0.0
C1004 C 0.61236 0.30441 0.24513 0.0
C1005 C 0.6281 0.3131 0.22313 0.0
C1006 C 0.61399 0.28775 0.25469 0.0
C1007 C 0.64258 0.25052 0.22525 0.0
H1008 H 0.62563 0.23734 0.36053 0.0
C1009 C 0.65921 0.18624 0.30371 0.0
C1010 C 0.64429 0.17846 0.33195 0.0
C1011 C 0.65761 0.20271 0.29085 0.0
C1012 C 0.63022 0.24072 0.32237 0.0
H1013 H 0.65748 0.31085 0.19126 0.0
H1014 H 0.66026 0.28161 0.20738 0.0
H1015 H 0.62139 0.26546 0.33358 0.0
H1016 H 0.61618 0.18205 0.36986 0.0
H1017 H 0.61323 0.21067 0.34691 0.0
H1018 H 0.65124 0.22575 0.21381 0.0
C1019 C 0.64665 0.28775 0.21731 0.0
C1020 C 0.62778 0.25688 0.30689 0.0
C1021 C 0.64503 0.30449 0.20785 0.0
C1022 C 0.62801 0.18767 0.34834 0.0
C1023 C 0.62634 0.20413 0.33521 0.0
C1024 C 0.64491 0.23431 0.24062 0.0
C1025 C 0.63138 0.27929 0.24232 0.0
C1026 C 0.63388 0.26199 0.2581 0.0
C1027 C 0.64099 0.21183 0.30564 0.0
C1028 C 0.63875 0.22917 0.28943 0.0
H1029 H 0.59899 0.31064 0.25662 0.0
H1030 H 0.60177 0.28154 0.27286 0.0
H1031 H 0.64729 0.25402 0.18729 0.0
H1032 H 0.67202 0.17954 0.29069 0.0
H1033 H 0.6694 0.20826 0.26905 0.0
C1034 C 0.84208 0.8142 0.75877 0.0
C1035 C 0.85516 0.82089 0.79478 0.0
C1036 C 0.84308 0.7977 0.74594 0.0
C1037 C 0.87717 0.76253 0.74873 0.0
H1038 H 0.82951 0.73698 0.73212 0.0
C1039 C 0.87643 0.69261 0.75437 0.0
C1040 C 0.86303 0.68408 0.72347 0.0
C1041 C 0.87645 0.70958 0.75531 0.0
C1042 C 0.84297 0.744 0.73568 0.0
H1043 H 0.87926 0.81537 0.84639 0.0
H1044 H 0.88082 0.78657 0.82454 0.0
H1045 H 0.82704 0.76594 0.75132 0.0
H1046 H 0.83972 0.68659 0.66754 0.0
H1047 H 0.8398 0.71642 0.6688 0.0
H1048 H 0.8931 0.74053 0.734 0.0
C1049 C 0.87001 0.79414 0.80551 0.0
C1050 C 0.84155 0.7606 0.74686 0.0
C1051 C 0.869 0.81063 0.81838 0.0
C1052 C 0.85028 0.69288 0.69149 0.0
C1053 C 0.85019 0.70992 0.69268 0.0
C1054 C 0.87859 0.74594 0.73758 0.0
C1055 C 0.85719 0.7875 0.76877 0.0
C1056 C 0.85864 0.77002 0.75432 0.0
C1057 C 0.86299 0.71846 0.72549 0.0
C1058 C 0.86151 0.73641 0.73169 0.0
H1059 H 0.83125 0.82177 0.73979 0.0
H1060 H 0.83307 0.79302 0.71725 0.0
H1061 H 0.89064 0.76948 0.75311 0.0
H1062 H 0.88648 0.68612 0.77924 0.0
H1063 H 0.88638 0.71572 0.78134 0.0
C1064 C 0.3526 0.31371 0.17623 0.0
C1065 C 0.36978 0.32236 0.18921 0.0
C1066 C 0.35125 0.29698 0.18589 0.0
C1067 C 0.37192 0.26659 0.27378 0.0
H1068 H 0.3463 0.23501 0.18623 0.0
C1069 C 0.37202 0.19799 0.32062 0.0
C1070 C 0.35497 0.18894 0.30938 0.0
C1071 C 0.37373 0.21416 0.30471 0.0
C1072 C 0.35328 0.24372 0.21143 0.0
H1073 H 0.39955 0.32004 0.21846 0.0
H1074 H 0.39728 0.29091 0.23486 0.0
H1075 H 0.34993 0.26311 0.15731 0.0
H1076 H 0.32614 0.18996 0.27358 0.0
H1077 H 0.32895 0.21826 0.24681 0.0
H1078 H 0.37505 0.24741 0.32822 0.0
C1079 C 0.38467 0.29708 0.21843 0.0
C1080 C 0.35542 0.25981 0.19472 0.0
C1081 C 0.38601 0.31374 0.20877 0.0
C1082 C 0.33951 0.19656 0.28274 0.0
C1083 C 0.34119 0.21276 0.26698 0.0
C1084 C 0.36972 0.25057 0.29056 0.0
C1085 C 0.36707 0.2886 0.20872 0.0
C1086 C 0.36486 0.27141 0.22562 0.0
C1087 C 0.3584 0.22174 0.27737 0.0
C1088 C 0.36043 0.23889 0.25958 0.0
H1089 H 0.33979 0.32004 0.16152 0.0
H1090 H 0.33747 0.29081 0.17806 0.0
H1091 H 0.37888 0.27531 0.29904 0.0
H1092 H 0.38425 0.19248 0.34081 0.0
H1093 H 0.3873 0.22061 0.31287 0.0
C1094 C 0.14676 0.79839 0.84492 0.0
C1095 C 0.13043 0.80892 0.84301 0.0
C1096 C 0.14592 0.78303 0.82209 0.0
C1097 C 0.11223 0.75087 0.78115 0.0
H1098 H 0.15565 0.73754 0.69417 0.0
C1099 C 0.11251 0.68743 0.68759 0.0
C1100 C 0.13057 0.67914 0.68898 0.0
C1101 C 0.11175 0.70414 0.69781 0.0
C1102 C 0.14347 0.74097 0.71867 0.0
H1103 H 0.10022 0.81138 0.81686 0.0
H1104 H 0.09863 0.78433 0.77799 0.0
H1105 H 0.15575 0.76461 0.73227 0.0
H1106 H 0.16196 0.68155 0.70108 0.0
H1107 H 0.16078 0.71057 0.71976 0.0
H1108 H 0.10029 0.7271 0.76959 0.0
C1109 C 0.11212 0.78807 0.7968 0.0
C1110 C 0.14353 0.75651 0.74041 0.0
C1111 C 0.11305 0.80355 0.81901 0.0
C1112 C 0.14794 0.68784 0.69872 0.0
C1113 C 0.1472 0.70448 0.70943 0.0
C1114 C 0.11228 0.73524 0.75996 0.0
C1115 C 0.12865 0.77775 0.79745 0.0
C1116 C 0.12803 0.76155 0.77236 0.0
C1117 C 0.12902 0.7128 0.71052 0.0
C1118 C 0.12803 0.72999 0.72892 0.0
H1119 H 0.1604 0.80215 0.86294 0.0
H1120 H 0.1588 0.77524 0.82376 0.0
H1121 H 0.10015 0.7544 0.8059 0.0
H1122 H 0.09891 0.68084 0.68089 0.0
H1123 H 0.09753 0.71015 0.69734 0.0
C1124 C 0.34617 0.70373 0.82272 0.0
C1125 C 0.36236 0.69438 0.8064 0.0
C1126 C 0.34486 0.72026 0.81011 0.0
C1127 C 0.374 0.75535 0.75967 0.0
H1128 H 0.32278 0.77089 0.71531 0.0
C1129 C 0.36485 0.81686 0.65592 0.0
C1130 C 0.34961 0.82696 0.67387 0.0
C1131 C 0.36593 0.80056 0.67126 0.0
C1132 C 0.33716 0.76677 0.72791 0.0
H1133 H 0.39044 0.69532 0.7668 0.0
H1134 H 0.38802 0.72392 0.74405 0.0
H1135 H 0.32609 0.74324 0.74791 0.0
H1136 H 0.32302 0.82763 0.71996 0.0
H1137 H 0.32482 0.79923 0.74626 0.0
H1138 H 0.38508 0.77883 0.73893 0.0
C1139 C 0.37634 0.71861 0.76682 0.0
C1140 C 0.33906 0.75093 0.74691 0.0
C1141 C 0.37767 0.70214 0.77953 0.0
C1142 C 0.33497 0.82019 0.70548 0.0
C1143 C 0.33597 0.80388 0.72048 0.0
C1144 C 0.37212 0.77114 0.74038 0.0
C1145 C 0.35971 0.72783 0.78089 0.0
C1146 C 0.35752 0.74498 0.76295 0.0
C1147 C 0.35171 0.79397 0.7045 0.0
C1148 C 0.35369 0.77703 0.72412 0.0
H1149 H 0.33406 0.69811 0.84316 0.0
H1150 H 0.33201 0.72703 0.82244 0.0
H1151 H 0.38839 0.75132 0.77239 0.0
H1152 H 0.37637 0.82167 0.63155 0.0
H1153 H 0.37807 0.79317 0.65762 0.0
C1154 C 0.11914 0.30244 0.26769 0.0
C1155 C 0.1342 0.30996 0.29607 0.0
C1156 C 0.12044 0.28601 0.25438 0.0
C1157 C 0.15768 0.25364 0.23566 0.0
H1158 H 0.11162 0.22595 0.22319 0.0
C1159 C 0.16185 0.18464 0.19048 0.0
C1160 C 0.14756 0.17816 0.1573 0.0
C1161 C 0.16076 0.20084 0.20654 0.0
C1162 C 0.1246 0.23359 0.22591 0.0
H1163 H 0.16199 0.30586 0.33488 0.0
H1164 H 0.16398 0.27702 0.31311 0.0
H1165 H 0.10809 0.25332 0.25784 0.0
H1166 H 0.12134 0.18384 0.11335 0.0
H1167 H 0.11948 0.21216 0.14128 0.0
H1168 H 0.17419 0.23379 0.20408 0.0
C1169 C 0.15136 0.28395 0.30007 0.0
C1170 C 0.12259 0.24929 0.24589 0.0
C1171 C 0.15007 0.30043 0.31327 0.0
C1172 C 0.13259 0.18844 0.13893 0.0
C1173 C 0.13141 0.20462 0.15531 0.0
C1174 C 0.1597 0.23789 0.21597 0.0
C1175 C 0.1368 0.27663 0.26936 0.0
C1176 C 0.13908 0.25957 0.25076 0.0
C1177 C 0.14527 0.21092 0.19005 0.0
C1178 C 0.14317 0.22772 0.21056 0.0
H1179 H 0.10661 0.30941 0.25427 0.0
H1180 H 0.109 0.28088 0.23048 0.0
H1181 H 0.17066 0.26128 0.23789 0.0
H1182 H 0.17359 0.17706 0.20532 0.0
H1183 H 0.17162 0.20529 0.23346 0.0
C1184 C 0.11487 0.94729 0.9319 0.0
C1185 C 0.12534 0.93902 0.97022 0.0
C1186 C 0.1142 0.96432 0.93136 0.0
C1187 C 0.12322 1.00058 0.01402 0.0
H1188 H 0.12524 0.02346 0.88475 0.0
C1189 C 0.13758 0.06989 0.99842 0.0
C1190 C 0.12547 0.07859 0.96452 0.0
C1191 C 0.13707 0.05287 0.99955 0.0
C1192 C 0.1245 0.01724 0.92114 0.0
H1193 H 0.14345 0.94219 0.03777 0.0
H1194 H 0.14275 0.9717 0.03606 0.0
H1195 H 0.12515 0.9938 0.88563 0.0
H1196 H 0.10331 0.07622 0.90521 0.0
H1197 H 0.10257 0.04656 0.90693 0.0
H1198 H 0.12301 0.02409 0.04941 0.0
C1199 C 0.1346 0.96513 0.00709 0.0
C1200 C 0.12437 1.00022 0.92168 0.0
C1201 C 0.13512 0.94815 0.00788 0.0
C1202 C 0.11285 0.0699 0.93178 0.0
C1203 C 0.11249 0.0529 0.93253 0.0
C1204 C 0.12355 0.01759 0.01345 0.0
C1205 C 0.12412 0.97348 0.9689 0.0
C1206 C 0.12377 0.99164 0.96815 0.0
C1207 C 0.12458 0.04419 0.96642 0.0
C1208 C 0.12421 0.02611 0.96702 0.0
H1209 H 0.1071 0.94061 0.90248 0.0
H1210 H 0.10573 0.9703 0.90177 0.0
H1211 H 0.12236 0.99445 0.05053 0.0
H1212 H 0.14745 0.07622 0.02419 0.0
H1213 H 0.14667 0.04648 0.02581 0.0
C1214 C 0.38892 0.93729 0.49524 0.0
C1215 C 0.37164 0.92805 0.50188 0.0
C1216 C 0.38841 0.95426 0.49867 0.0
C1217 C 0.35546 0.98943 0.48521 0.0
H1218 H 0.3957 0.01221 0.56232 0.0
C1219 C 0.35252 0.0592 0.51631 0.0
C1220 C 0.37044 0.06781 0.5176 0.0
C1221 C 0.35237 0.04217 0.51511 0.0
C1222 C 0.3845 0.00611 0.53993 0.0
H1223 H 0.34025 0.92945 0.51735 0.0
H1224 H 0.33934 0.95918 0.52264 0.0
H1225 H 0.39596 0.98259 0.55911 0.0
H1226 H 0.40227 0.06525 0.51753 0.0
H1227 H 0.40206 0.03565 0.51384 0.0
H1228 H 0.34424 0.01287 0.46486 0.0
C1229 C 0.35327 0.95323 0.51482 0.0
C1230 C 0.38461 0.98909 0.53834 0.0
C1231 C 0.35382 0.9362 0.51204 0.0
C1232 C 0.3882 0.059 0.517 0.0
C1233 C 0.38806 0.04197 0.51524 0.0
C1234 C 0.35546 0.00647 0.48631 0.0
C1235 C 0.37058 0.96245 0.50824 0.0
C1236 C 0.37012 0.98055 0.5109 0.0
C1237 C 0.37014 0.03328 0.51461 0.0
C1238 C 0.37001 0.01508 0.51362 0.0
H1239 H 0.40291 0.93141 0.48749 0.0
H1240 H 0.40196 0.96101 0.49296 0.0
H1241 H 0.34423 0.98321 0.46322 0.0
H1242 H 0.33856 0.06561 0.51704 0.0
H1243 H 0.33827 0.03599 0.51548 0.0
C1244 C 0.86513 0.94395 0.97157 0.0
C1245 C 0.87849 0.93561 0.00314 0.0
C1246 C 0.86556 0.96092 0.96853 0.0
C1247 C 0.87931 0.99671 0.04281 0.0
H1248 H 0.87492 0.01967 0.91405 0.0
C1249 C 0.88198 0.06676 0.03362 0.0
C1250 C 0.86931 0.07451 0.9989 0.0
C1251 C 0.88445 0.04988 0.0323 0.0
C1252 C 0.8759 0.01346 0.95041 0.0
H1253 H 0.90306 0.9385 0.05543 0.0
H1254 H 0.90362 0.96817 0.05049 0.0
H1255 H 0.87681 0.99003 0.91456 0.0
H1256 H 0.84931 0.07068 0.93546 0.0
H1257 H 0.85311 0.04123 0.93409 0.0
H1258 H 0.87778 0.01998 0.07898 0.0
C1259 C 0.89281 0.96155 0.02822 0.0
C1260 C 0.87707 0.99648 0.95061 0.0
C1261 C 0.89254 0.94457 0.03082 0.0
C1262 C 0.85926 0.06507 0.96258 0.0
C1263 C 0.86155 0.04817 0.96161 0.0
C1264 C 0.87792 0.01367 0.04268 0.0
C1265 C 0.87921 0.9699 0.99739 0.0
C1266 C 0.87873 0.98794 0.99683 0.0
C1267 C 0.87413 0.04034 0.99658 0.0
C1268 C 0.87614 0.02228 0.99649 0.0
H1269 H 0.85416 0.9374 0.94963 0.0
H1270 H 0.85481 0.96704 0.94473 0.0
H1271 H 0.88028 0.99043 0.07907 0.0
H1272 H 0.8901 0.07372 0.06174 0.0
H1273 H 0.89455 0.04435 0.05917 0.0
C1274 C 0.61237 0.94217 0.47581 0.0
C1275 C 0.63024 0.93371 0.46937 0.0
C1276 C 0.61217 0.95916 0.47968 0.0
C1277 C 0.64102 0.99587 0.44792 0.0
H1278 H 0.60881 0.01641 0.55192 0.0
C1279 C 0.64481 0.06524 0.48802 0.0
C1280 C 0.62721 0.07323 0.50139 0.0
C1281 C 0.64541 0.04824 0.48392 0.0
C1282 C 0.61768 0.01093 0.52212 0.0
H1283 H 0.66193 0.93657 0.46164 0.0
H1284 H 0.66154 0.9662 0.46802 0.0
H1285 H 0.6092 0.98687 0.54465 0.0
H1286 H 0.59631 0.0696 0.51978 0.0
H1287 H 0.5972 0.04016 0.51139 0.0
H1288 H 0.64927 0.01989 0.42474 0.0
C1289 C 0.64767 0.95968 0.46994 0.0
C1290 C 0.61793 0.99396 0.51809 0.0
C1291 C 0.6479 0.94267 0.46657 0.0
C1292 C 0.61018 0.06385 0.5099 0.0
C1293 C 0.61073 0.0469 0.50539 0.0
C1294 C 0.64064 0.01287 0.45165 0.0
C1295 C 0.62982 0.96813 0.47673 0.0
C1296 C 0.62959 0.98621 0.48095 0.0
C1297 C 0.62838 0.03881 0.49267 0.0
C1298 C 0.62895 0.02066 0.48879 0.0
H1299 H 0.5985 0.93566 0.47819 0.0
H1300 H 0.59815 0.9653 0.48441 0.0
H1301 H 0.64998 0.99029 0.41849 0.0
H1302 H 0.65822 0.0721 0.48135 0.0
H1303 H 0.65934 0.0425 0.47471 0.0
C1304 C 0.61682 0.44342 0.9838 0.0
C1305 C 0.62757 0.43432 0.01967 0.0
C1306 C 0.61733 0.46044 0.98454 0.0
C1307 C 0.63102 0.49594 0.06638 0.0
H1308 H 0.62974 0.51892 0.93722 0.0
C1309 C 0.64493 0.56564 0.0466 0.0
C1310 C 0.63177 0.57411 0.01475 0.0
C1311 C 0.64458 0.54859 0.04874 0.0
C1312 C 0.62997 0.51269 0.97364 0.0
H1313 H 0.64728 0.43602 0.0846 0.0
H1314 H 0.64863 0.46565 0.0851 0.0
H1315 H 0.62893 0.48932 0.93795 0.0
H1316 H 0.60787 0.57127 0.96037 0.0
H1317 H 0.60742 0.54167 0.9638 0.0
H1318 H 0.63246 0.51946 0.10178 0.0
C1319 C 0.63942 0.45969 0.05699 0.0
C1320 C 0.62941 0.49568 0.97413 0.0
C1321 C 0.63874 0.44266 0.05656 0.0
C1322 C 0.61824 0.56516 0.98531 0.0
C1323 C 0.61804 0.54817 0.98701 0.0
C1324 C 0.63179 0.51297 0.06582 0.0
C1325 C 0.62879 0.46884 0.02083 0.0
C1326 C 0.62976 0.48703 0.02052 0.0
C1327 C 0.63124 0.53966 0.01859 0.0
C1328 C 0.6311 0.52155 0.01944 0.0
H1329 H 0.60792 0.4374 0.95513 0.0
H1330 H 0.60859 0.46699 0.95675 0.0
H1331 H 0.63104 0.48978 0.10291 0.0
H1332 H 0.65553 0.57216 0.06981 0.0
H1333 H 0.65501 0.54238 0.07325 0.0
C1334 C 0.85244 0.43785 0.52898 0.0
C1335 C 0.86911 0.42836 0.51759 0.0
C1336 C 0.8539 0.4548 0.53161 0.0
C1337 C 0.88896 0.48819 0.55246 0.0
H1338 H 0.85008 0.51432 0.48148 0.0
C1339 C 0.89575 0.55828 0.53818 0.0
C1340 C 0.87822 0.56733 0.542 0.0
C1341 C 0.89512 0.54131 0.53378 0.0
C1342 C 0.86093 0.50725 0.50212 0.0
H1343 H 0.90048 0.42917 0.5011 0.0
H1344 H 0.90304 0.45874 0.50631 0.0
H1345 H 0.84782 0.48477 0.47847 0.0
H1346 H 0.84628 0.56563 0.54453 0.0
H1347 H 0.84519 0.5362 0.53829 0.0
H1348 H 0.90186 0.5106 0.57712 0.0
C1349 C 0.88885 0.45307 0.51303 0.0
C1350 C 0.85963 0.4903 0.50025 0.0
C1351 C 0.88734 0.43614 0.50979 0.0
C1352 C 0.86008 0.55906 0.54127 0.0
C1353 C 0.85945 0.54213 0.53736 0.0
C1354 C 0.89016 0.50516 0.55479 0.0
C1355 C 0.87211 0.46259 0.52355 0.0
C1356 C 0.87359 0.48059 0.52551 0.0
C1357 C 0.87694 0.53301 0.5335 0.0
C1358 C 0.8761 0.51492 0.5298 0.0
H1359 H 0.83819 0.43222 0.53522 0.0
H1360 H 0.8408 0.46183 0.5403 0.0
H1361 H 0.89984 0.481 0.57265 0.0
H1362 H 0.90997 0.56431 0.53836 0.0
H1363 H 0.90889 0.53473 0.53014 0.0
C1364 C 0.38793 0.57047 0.98863 0.0
C1365 C 0.36993 0.57894 0.99115 0.0
C1366 C 0.38836 0.55347 0.991 0.0
C1367 C 0.35781 0.5175 0.02766 0.0
H1368 H 0.39697 0.49402 0.94868 0.0
C1369 C 0.35664 0.44738 0.00371 0.0
C1370 C 0.37471 0.43928 0.01078 0.0
C1371 C 0.35593 0.46437 1.00077 0.0
C1372 C 0.38604 0.50041 0.97124 0.0
H1373 H 0.33824 0.57613 0.99787 0.0
H1374 H 0.33889 0.54649 1.00042 0.0
H1375 H 0.39573 0.52361 0.9442 0.0
H1376 H 0.40626 0.4427 0.01943 0.0
H1377 H 0.40504 0.47236 0.01361 0.0
H1378 H 0.3479 0.49417 0.05375 0.0
C1379 C 0.35277 0.55296 0.99786 0.0
C1380 C 0.38535 0.51741 0.96888 0.0
C1381 C 0.35237 0.56999 0.99608 0.0
C1382 C 0.39209 0.44856 0.01407 0.0
C1383 C 0.39141 0.46554 0.01049 0.0
C1384 C 0.35836 0.50049 0.02954 0.0
C1385 C 0.37079 0.54443 0.99536 0.0
C1386 C 0.37129 0.52624 0.99727 0.0
C1387 C 0.37331 0.47366 0.00417 0.0
C1388 C 0.37253 0.49174 1.00153 0.0
H1389 H 0.40176 0.57698 0.98529 0.0
H1390 H 0.40256 0.54744 0.99003 0.0
H1391 H 0.34699 0.5238 0.05082 0.0
H1392 H 0.34297 0.44061 1.00106 0.0
H1393 H 0.34178 0.47026 0.99541 0.0
C1394 C 0.14241 0.43342 0.49154 0.0
C1395 C 0.12571 0.42404 0.47962 0.0
C1396 C 0.14111 0.45039 0.49436 0.0
C1397 C 0.10925 0.48524 0.45575 0.0
H1398 H 0.14005 0.50845 0.55696 0.0
C1399 C 0.09935 0.55413 0.49888 0.0
C1400 C 0.11684 0.56324 0.50303 0.0
C1401 C 0.10006 0.53713 0.49571 0.0
C1402 C 0.13145 0.50214 0.52827 0.0
H1403 H 0.09446 0.42512 0.46208 0.0
H1404 H 0.09207 0.45458 0.46834 0.0
H1405 H 0.14197 0.47889 0.55261 0.0
H1406 H 0.14877 0.5616 0.50701 0.0
H1407 H 0.14994 0.53204 0.50192 0.0
H1408 H 0.09851 0.50859 0.43214 0.0
C1409 C 0.10632 0.44893 0.47423 0.0
C1410 C 0.1326 0.48518 0.52559 0.0
C1411 C 0.10766 0.43199 0.47093 0.0
C1412 C 0.13501 0.55498 0.50385 0.0
C1413 C 0.1357 0.53802 0.50125 0.0
C1414 C 0.10795 0.5022 0.45879 0.0
C1415 C 0.12303 0.45839 0.48585 0.0
C1416 C 0.1216 0.47648 0.48911 0.0
C1417 C 0.11825 0.52889 0.49725 0.0
C1418 C 0.11913 0.51084 0.49487 0.0
H1419 H 0.15656 0.42767 0.49822 0.0
H1420 H 0.15439 0.45723 0.50258 0.0
H1421 H 0.1008 0.47903 0.42659 0.0
H1422 H 0.08512 0.56012 0.49807 0.0
H1423 H 0.08636 0.5304 0.49292 0.0
C1424 C 0.20267 0.13863 0.09241 0.0
C1425 C 0.18815 0.12686 0.10257 0.0
C1426 C 0.21982 0.13938 0.1222 0.0
C1427 C 0.24771 0.14407 0.21348 0.0
H1428 H 0.27184 0.10376 0.25816 0.0
C1429 C 0.30156 0.14014 0.38476 0.0
C1430 C 0.31716 0.12901 0.38116 0.0
C1431 C 0.28728 0.14086 0.34623 0.0
C1432 C 0.26552 0.11517 0.24557 0.0
H1433 H 0.18032 0.10657 0.15165 0.0
H1434 H 0.20989 0.10796 0.20331 0.0
H1435 H 0.24491 0.10297 0.19722 0.0
H1436 H 0.3297 0.10936 0.33704 0.0
H1437 H 0.30544 0.11104 0.26853 0.0
H1438 H 0.26852 0.15625 0.2618 0.0
C1439 C 0.20828 0.11648 0.17207 0.0
C1440 C 0.24989 0.11469 0.21105 0.0
C1441 C 0.19123 0.11575 0.14253 0.0
C1442 C 0.31818 0.11847 0.33932 0.0
C1443 C 0.30409 0.11926 0.30066 0.0
C1444 C 0.26345 0.14456 0.24805 0.0
C1445 C 0.22276 0.12831 0.16243 0.0
C1446 C 0.24057 0.1291 0.19526 0.0
C1447 C 0.28831 0.13032 0.3039 0.0
C1448 C 0.27237 0.13008 0.26496 0.0
H1449 H 0.20067 0.14741 0.06203 0.0
H1450 H 0.23078 0.14857 0.11368 0.0
H1451 H 0.24075 0.15538 0.20228 0.0
H1452 H 0.30034 0.14813 0.41749 0.0
H1453 H 0.27512 0.14931 0.35043 0.0
C1454 C 0.30125 0.89173 0.645 0.0
C1455 C 0.30755 0.87859 0.61476 0.0
C1456 C 0.28283 0.89143 0.66882 0.0
C1457 C 0.24721 0.86301 0.72165 0.0
H1458 H 0.21382 0.90117 0.73242 0.0
C1459 C 0.17769 0.86315 0.84902 0.0
C1460 C 0.17442 0.87722 0.87811 0.0
C1461 C 0.19165 0.86309 0.80969 0.0
C1462 C 0.22304 0.89043 0.7301 0.0
H1463 H 0.29929 0.85497 0.58481 0.0
H1464 H 0.26704 0.85435 0.6272 0.0
H1465 H 0.24231 0.90153 0.67537 0.0
H1466 H 0.18354 0.90217 0.88997 0.0
H1467 H 0.20829 0.90204 0.82236 0.0
H1468 H 0.22856 0.85211 0.77788 0.0
C1469 C 0.27641 0.8649 0.63217 0.0
C1470 C 0.2393 0.89063 0.69723 0.0
C1471 C 0.29479 0.86531 0.60769 0.0
C1472 C 0.18554 0.89122 0.86755 0.0
C1473 C 0.19961 0.89116 0.82849 0.0
C1474 C 0.23105 0.86285 0.75485 0.0
C1475 C 0.27035 0.8779 0.66345 0.0
C1476 C 0.25176 0.87702 0.69337 0.0
C1477 C 0.20296 0.87705 0.79928 0.0
C1478 C 0.21896 0.87668 0.76024 0.0
H1479 H 0.31073 0.90216 0.65111 0.0
H1480 H 0.27869 0.90153 0.69311 0.0
H1481 H 0.25669 0.85241 0.71996 0.0
H1482 H 0.16957 0.85214 0.85692 0.0
H1483 H 0.19367 0.85205 0.78774 0.0
C1484 C 0.70517 0.88533 0.59041 0.0
C1485 C 0.68912 0.87465 0.59549 0.0
C1486 C 0.72054 0.88516 0.62582 0.0
C1487 C 0.74469 0.85929 0.72244 0.0
H1488 H 0.76777 0.9002 0.76547 0.0
C1489 C 0.80384 0.86532 0.88258 0.0
C1490 C 0.81914 0.87646 0.87352 0.0
C1491 C 0.78808 0.86402 0.84825 0.0
C1492 C 0.76164 0.88866 0.75339 0.0
H1493 H 0.67689 0.85515 0.6409 0.0
H1494 H 0.70357 0.85498 0.70356 0.0
H1495 H 0.73953 0.90031 0.70818 0.0
H1496 H 0.82962 0.89546 0.8234 0.0
H1497 H 0.80267 0.89281 0.76233 0.0
H1498 H 0.76688 0.84768 0.76805 0.0
C1499 C 0.70428 0.86347 0.67203 0.0
C1500 C 0.74543 0.88872 0.72059 0.0
C1501 C 0.68888 0.86366 0.63642 0.0
C1502 C 0.81851 0.88622 0.82975 0.0
C1503 C 0.80282 0.88496 0.79553 0.0
C1504 C 0.76093 0.85923 0.75546 0.0
C1505 C 0.7203 0.87423 0.66708 0.0
C1506 C 0.73689 0.87404 0.70422 0.0
C1507 C 0.78723 0.87407 0.80484 0.0
C1508 C 0.76972 0.87393 0.77078 0.0
H1509 H 0.70591 0.89381 0.55883 0.0
H1510 H 0.73282 0.89341 0.62027 0.0
H1511 H 0.73857 0.84776 0.71016 0.0
H1512 H 0.80386 0.85788 0.91671 0.0
H1513 H 0.7762 0.85564 0.85676 0.0
C1514 C 0.69091 0.11428 0.33859 0.0
C1515 C 0.68771 0.12478 0.3801 0.0
C1516 C 0.7081 0.1154 0.30963 0.0
C1517 C 0.75007 0.11406 0.2724 0.0
H1518 H 0.76875 0.15622 0.22688 0.0
C1519 C 0.81882 0.11942 0.14616 0.0
C1520 C 0.81756 0.13009 0.1047 0.0
C1521 C 0.80478 0.11991 0.18506 0.0
C1522 C 0.76368 0.14436 0.23924 0.0
H1523 H 0.70011 0.14468 0.42397 0.0
H1524 H 0.73042 0.14656 0.37324 0.0
H1525 H 0.74064 0.15459 0.28533 0.0
H1526 H 0.80043 0.14926 0.06964 0.0
H1527 H 0.77537 0.14995 0.13718 0.0
H1528 H 0.77243 0.10374 0.22504 0.0
C1529 C 0.71946 0.13753 0.36309 0.0
C1530 C 0.74774 0.14344 0.27314 0.0
C1531 C 0.7022 0.13637 0.39232 0.0
C1532 C 0.80185 0.14114 0.102 0.0
C1533 C 0.78765 0.14159 0.1408 0.0
C1534 C 0.76594 0.11497 0.23863 0.0
C1535 C 0.72256 0.12705 0.32141 0.0
C1536 C 0.74057 0.12825 0.28937 0.0
C1537 C 0.78884 0.13083 0.1825 0.0
C1538 C 0.77279 0.13011 0.22113 0.0
H1539 H 0.68002 0.10525 0.32794 0.0
H1540 H 0.70987 0.10733 0.27725 0.0
H1541 H 0.74506 0.10218 0.28471 0.0
H1542 H 0.83035 0.1103 0.14763 0.0
H1543 H 0.80621 0.1115 0.21666 0.0
C1544 C 0.81379 0.64768 0.40728 0.0
C1545 C 0.81865 0.63322 0.43275 0.0
C1546 C 0.80013 0.64753 0.36728 0.0
C1547 C 0.77594 0.61915 0.27626 0.0
H1548 H 0.73777 0.65396 0.26131 0.0
C1549 C 0.70249 0.61267 0.16877 0.0
C1550 C 0.69668 0.62534 0.13618 0.0
C1551 C 0.71939 0.61418 0.19872 0.0
C1552 C 0.74855 0.64428 0.26457 0.0
H1553 H 0.8123 0.6075 0.43919 0.0
H1554 H 0.78806 0.60723 0.37042 0.0
H1555 H 0.76286 0.65571 0.32791 0.0
H1556 H 0.70407 0.64946 0.10875 0.0
H1557 H 0.73357 0.65224 0.16228 0.0
H1558 H 0.76099 0.60743 0.21428 0.0
C1559 C 0.79528 0.6186 0.37973 0.0
C1560 C 0.76293 0.64527 0.30268 0.0
C1561 C 0.80898 0.61876 0.4195 0.0
C1562 C 0.70832 0.63945 0.13327 0.0
C1563 C 0.72508 0.64109 0.16404 0.0
C1564 C 0.76143 0.61809 0.23861 0.0
C1565 C 0.79088 0.63293 0.35262 0.0
C1566 C 0.77656 0.63255 0.30964 0.0
C1567 C 0.73065 0.6285 0.19733 0.0
C1568 C 0.7474 0.63051 0.23299 0.0
H1569 H 0.82089 0.65902 0.41761 0.0
H1570 H 0.79716 0.65877 0.34719 0.0
H1571 H 0.78654 0.60935 0.27961 0.0
H1572 H 0.69377 0.60166 0.17177 0.0
H1573 H 0.72325 0.60436 0.22444 0.0
C1574 C 0.78522 0.36943 0.6209 0.0
C1575 C 0.79978 0.38097 0.63307 0.0
C1576 C 0.76783 0.3685 0.64967 0.0
C1577 C 0.73949 0.36276 0.73923 0.0
H1578 H 0.71512 0.40242 0.78872 0.0
C1579 C 0.68604 0.36453 0.91158 0.0
C1580 C 0.67045 0.37572 0.91009 0.0
C1581 C 0.70006 0.36422 0.87233 0.0
C1582 C 0.72151 0.3912 0.77473 0.0
H1583 H 0.80737 0.40075 0.6844 0.0
H1584 H 0.77732 0.39905 0.73439 0.0
H1585 H 0.74227 0.40404 0.72838 0.0
H1586 H 0.6577 0.39589 0.86887 0.0
H1587 H 0.68149 0.39493 0.79896 0.0
H1588 H 0.71859 0.34993 0.78563 0.0
C1589 C 0.77913 0.39083 0.70239 0.0
C1590 C 0.73726 0.39214 0.74056 0.0
C1591 C 0.79644 0.39174 0.67383 0.0
C1592 C 0.66913 0.38668 0.8694 0.0
C1593 C 0.68299 0.38632 0.82999 0.0
C1594 C 0.72366 0.36181 0.77343 0.0
C1595 C 0.76466 0.37916 0.69091 0.0
C1596 C 0.74667 0.37796 0.72313 0.0
C1597 C 0.69881 0.37525 0.83132 0.0
C1598 C 0.71466 0.37604 0.79213 0.0
H1599 H 0.7874 0.36093 0.58979 0.0
H1600 H 0.75688 0.35946 0.63968 0.0
H1601 H 0.74651 0.35161 0.72675 0.0
H1602 H 0.68752 0.35621 0.94341 0.0
H1603 H 0.71225 0.35576 0.87509 0.0
C1604 C 0.20824 0.36597 0.59295 0.0
C1605 C 0.19405 0.37802 0.60313 0.0
C1606 C 0.22564 0.3652 0.62169 0.0
C1607 C 0.25428 0.36074 0.71151 0.0
H1608 H 0.27973 0.40098 0.75175 0.0
C1609 C 0.30945 0.36565 0.88012 0.0
C1610 C 0.32501 0.37678 0.87529 0.0
C1611 C 0.29513 0.36445 0.84176 0.0
C1612 C 0.27305 0.38957 0.74036 0.0
H1613 H 0.18713 0.39884 0.65094 0.0
H1614 H 0.21718 0.39743 0.70085 0.0
H1615 H 0.25224 0.40175 0.69258 0.0
H1616 H 0.33727 0.39604 0.82902 0.0
H1617 H 0.31319 0.39334 0.76061 0.0
H1618 H 0.2753 0.34858 0.75933 0.0
C1619 C 0.21508 0.38868 0.67042 0.0
C1620 C 0.25709 0.39005 0.70688 0.0
C1621 C 0.19776 0.38943 0.6419 0.0
C1622 C 0.32603 0.38672 0.83202 0.0
C1623 C 0.31193 0.38544 0.79354 0.0
C1624 C 0.27035 0.36025 0.74505 0.0
C1625 C 0.22919 0.37653 0.66088 0.0
C1626 C 0.24729 0.37569 0.69271 0.0
C1627 C 0.29606 0.37453 0.79834 0.0
C1628 C 0.27978 0.3747 0.7603 0.0
H1629 H 0.20576 0.35696 0.56345 0.0
H1630 H 0.23631 0.35577 0.61321 0.0
H1631 H 0.24696 0.34946 0.70157 0.0
H1632 H 0.30818 0.35813 0.9139 0.0
H1633 H 0.28293 0.35612 0.84713 0.0
C1634 C 0.30198 0.6173 0.15913 0.0
C1635 C 0.30333 0.62465 0.11089 0.0
C1636 C 0.28412 0.6168 0.18529 0.0
C1637 C 0.23442 0.63572 0.19099 0.0
H1638 H 0.22607 0.60003 0.28503 0.0
C1639 C 0.17679 0.61081 0.35853 0.0
C1640 C 0.17134 0.62589 0.37893 0.0
C1641 C 0.18991 0.60999 0.31747 0.0
C1642 C 0.22773 0.60997 0.25832 0.0
H1643 H 0.2868 0.63705 0.05178 0.0
H1644 H 0.25515 0.63559 0.09675 0.0
H1645 H 0.25365 0.59918 0.22708 0.0
H1646 H 0.17501 0.65193 0.37323 0.0
H1647 H 0.19904 0.65062 0.30405 0.0
H1648 H 0.20786 0.64611 0.22069 0.0
C1649 C 0.26813 0.63057 0.11495 0.0
C1650 C 0.24395 0.60964 0.22558 0.0
C1651 C 0.28623 0.63133 0.08899 0.0
C1652 C 0.17901 0.64017 0.35765 0.0
C1653 C 0.19263 0.63937 0.31759 0.0
C1654 C 0.21785 0.63588 0.223 0.0
C1655 C 0.26686 0.62331 0.16357 0.0
C1656 C 0.24796 0.62277 0.19279 0.0
C1657 C 0.19851 0.62423 0.2973 0.0
C1658 C 0.2146 0.62322 0.25832 0.0
H1659 H 0.31484 0.61211 0.17742 0.0
H1660 H 0.28402 0.61155 0.22318 0.0
H1661 H 0.23695 0.64607 0.1663 0.0
H1662 H 0.17079 0.59965 0.37417 0.0
H1663 H 0.19347 0.59812 0.30211 0.0
C1664 C 0.14219 0.12828 0.68499 0.0
C1665 C 0.12733 0.13827 0.70545 0.0
C1666 C 0.14093 0.12267 0.63439 0.0
C1667 C 0.1067 0.11941 0.52194 0.0
H1668 H 0.15482 0.12406 0.44322 0.0
C1669 C 0.10705 0.12702 0.30192 0.0
C1670 C 0.12225 0.11963 0.27374 0.0
C1671 C 0.10715 0.12657 0.35544 0.0
C1672 C 0.14128 0.12245 0.46463 0.0
H1673 H 0.09892 0.14928 0.69018 0.0
H1674 H 0.09669 0.13966 0.60261 0.0
H1675 H 0.15578 0.12733 0.53561 0.0
H1676 H 0.14929 0.10571 0.27951 0.0
H1677 H 0.14949 0.1049 0.37289 0.0
H1678 H 0.09213 0.11505 0.45059 0.0
C1679 C 0.10932 0.136 0.62516 0.0
C1680 C 0.14184 0.12427 0.51785 0.0
C1681 C 0.1106 0.14159 0.67547 0.0
C1682 C 0.13734 0.11148 0.30018 0.0
C1683 C 0.13753 0.11113 0.35372 0.0
C1684 C 0.10613 0.11767 0.46871 0.0
C1685 C 0.12474 0.12689 0.60324 0.0
C1686 C 0.1245 0.12306 0.54727 0.0
C1687 C 0.12255 0.11882 0.38213 0.0
C1688 C 0.12337 0.11941 0.43921 0.0
H1689 H 0.15532 0.12562 0.707 0.0
H1690 H 0.15294 0.11546 0.61919 0.0
H1691 H 0.09309 0.11808 0.54321 0.0
H1692 H 0.09528 0.13346 0.28263 0.0
H1693 H 0.09549 0.13279 0.37592 0.0
C1694 C 0.38865 0.86219 0.19677 0.0
C1695 C 0.37239 0.86623 0.22767 0.0
C1696 C 0.38989 0.86769 0.14638 0.0
C1697 C 0.35744 0.88131 0.04089 0.0
H1698 H 0.40737 0.88724 0.97089 0.0
C1699 C 0.36233 0.89411 0.82282 0.0
C1700 C 0.37595 0.88445 0.79601 0.0
C1701 C 0.36239 0.89448 0.87638 0.0
C1702 C 0.3933 0.88558 0.98984 0.0
H1703 H 0.34527 0.8801 0.23073 0.0
H1704 H 0.34767 0.89018 0.1429 0.0
H1705 H 0.40683 0.8844 0.06355 0.0
H1706 H 0.4006 0.86789 0.80417 0.0
H1707 H 0.40093 0.86869 0.89745 0.0
H1708 H 0.34398 0.88243 0.96689 0.0
C1709 C 0.35929 0.88241 0.15736 0.0
C1710 C 0.39297 0.88392 0.04308 0.0
C1711 C 0.35804 0.87685 0.20801 0.0
C1712 C 0.38997 0.87551 0.82377 0.0
C1713 C 0.39019 0.87602 0.87724 0.0
C1714 C 0.35777 0.88313 0.98765 0.0
C1715 C 0.37494 0.87749 0.12531 0.0
C1716 C 0.37508 0.88138 0.06937 0.0
C1717 C 0.37624 0.88534 0.9043 0.0
C1718 C 0.37574 0.88495 0.96133 0.0
H1719 H 0.39998 0.85405 0.21085 0.0
H1720 H 0.40209 0.86346 0.1232 0.0
H1721 H 0.34339 0.87915 0.05936 0.0
H1722 H 0.3513 0.90109 0.80244 0.0
H1723 H 0.35154 0.90188 0.89598 0.0
C1724 C 0.11122 0.88936 0.69689 0.0
C1725 C 0.12868 0.8846 0.72144 0.0
C1726 C 0.11112 0.89233 0.64447 0.0
C1727 C 0.14143 0.89924 0.52983 0.0
H1728 H 0.10304 0.87114 0.46455 0.0
C1729 C 0.14784 0.87895 0.31948 0.0
C1730 C 0.13062 0.87476 0.293 0.0
C1731 C 0.14681 0.88383 0.37053 0.0
C1732 C 0.11354 0.87942 0.48172 0.0
H1733 H 0.16005 0.88048 0.71176 0.0
H1734 H 0.15991 0.88579 0.61972 0.0
H1735 H 0.10293 0.87394 0.55656 0.0
H1736 H 0.09882 0.8732 0.297 0.0
H1737 H 0.09677 0.88256 0.38534 0.0
H1738 H 0.15209 0.90471 0.45482 0.0
C1739 C 0.14631 0.88717 0.64104 0.0
C1740 C 0.11351 0.88095 0.53469 0.0
C1741 C 0.14638 0.88408 0.69355 0.0
C1742 C 0.11227 0.87635 0.31708 0.0
C1743 C 0.11117 0.88155 0.36775 0.0
C1744 C 0.14128 0.89792 0.47654 0.0
C1745 C 0.12852 0.89071 0.61578 0.0
C1746 C 0.12762 0.89066 0.55933 0.0
C1747 C 0.12848 0.88481 0.39574 0.0
C1748 C 0.12753 0.88775 0.45183 0.0
H1749 H 0.0974 0.88995 0.71763 0.0
H1750 H 0.09727 0.89522 0.62594 0.0
H1751 H 0.15241 0.90686 0.54801 0.0
H1752 H 0.16215 0.87764 0.30147 0.0
H1753 H 0.16047 0.88602 0.39078 0.0
C1754 C 0.37507 0.12338 0.80073 0.0
C1755 C 0.36744 0.13911 0.79258 0.0
C1756 C 0.37719 0.11728 0.85034 0.0
C1757 C 0.38787 0.12953 0.97709 0.0
H1758 H 0.3533 0.09633 0.03271 0.0
C1759 C 0.35396 0.11631 0.18252 0.0
C1760 C 0.37108 0.11769 0.2123 0.0
C1761 C 0.35542 0.11392 0.12982 0.0
C1762 C 0.36322 0.10545 0.01745 0.0
H1763 H 0.35527 0.16041 0.83048 0.0
H1764 H 0.35991 0.15004 0.91653 0.0
H1765 H 0.35262 0.10232 0.94074 0.0
H1766 H 0.40302 0.11626 0.21165 0.0
H1767 H 0.40557 0.11216 0.11956 0.0
H1768 H 0.39797 0.13327 0.05336 0.0
C1769 C 0.36422 0.14251 0.88442 0.0
C1770 C 0.3629 0.10879 0.96506 0.0
C1771 C 0.36177 0.14847 0.83512 0.0
C1772 C 0.38959 0.11538 0.18938 0.0
C1773 C 0.39106 0.11306 0.13675 0.0
C1774 C 0.38841 0.12606 0.02911 0.0
C1775 C 0.37198 0.12693 0.89237 0.0
C1776 C 0.37482 0.12118 0.94499 0.0
C1777 C 0.37403 0.11294 0.10624 0.0
C1778 C 0.3757 0.11432 0.05007 0.0
H1779 H 0.3797 0.11588 0.76891 0.0
H1780 H 0.38324 0.10522 0.85597 0.0
H1781 H 0.39708 0.13921 0.96219 0.0
H1782 H 0.3395 0.11799 0.19944 0.0
H1783 H 0.34205 0.11398 0.10719 0.0
C1784 C 0.89971 0.87876 0.30137 0.0
C1785 C 0.88128 0.87882 0.27715 0.0
C1786 C 0.90171 0.88507 0.35059 0.0
C1787 C 0.87447 0.90675 0.45537 0.0
H1788 H 0.90542 0.87787 0.54057 0.0
C1789 C 0.86035 0.89411 0.66948 0.0
C1790 C 0.87684 0.89147 0.70077 0.0
C1791 C 0.86286 0.89729 0.61743 0.0
C1792 C 0.89701 0.88627 0.51731 0.0
H1793 H 0.8507 0.8861 0.28373 0.0
H1794 H 0.85386 0.89649 0.37036 0.0
H1795 H 0.90672 0.87491 0.44877 0.0
H1796 H 0.90881 0.89124 0.70358 0.0
H1797 H 0.91318 0.89674 0.61277 0.0
H1798 H 0.86384 0.91734 0.52511 0.0
C1799 C 0.86699 0.89209 0.35125 0.0
C1800 C 0.89781 0.88463 0.46444 0.0
C1801 C 0.8651 0.88607 0.30165 0.0
C1802 C 0.89584 0.89309 0.68011 0.0
C1803 C 0.89835 0.89621 0.62819 0.0
C1804 C 0.87348 0.90825 0.50854 0.0
C1805 C 0.88518 0.89116 0.37701 0.0
C1806 C 0.88628 0.89463 0.43271 0.0
C1807 C 0.88189 0.8978 0.59605 0.0
C1808 C 0.88451 0.89783 0.53995 0.0
H1809 H 0.91241 0.87333 0.28285 0.0
H1810 H 0.91606 0.88455 0.36867 0.0
H1811 H 0.86564 0.91484 0.43214 0.0
H1812 H 0.84554 0.89295 0.68466 0.0
H1813 H 0.84991 0.89835 0.59344 0.0
C1814 C 0.60527 0.13448 0.80088 0.0
C1815 C 0.62339 0.13349 0.77506 0.0
C1816 C 0.60365 0.12942 0.85164 0.0
C1817 C 0.62968 0.10815 0.9583 0.0
H1818 H 0.6009 0.13927 0.04111 0.0
C1819 C 0.63894 0.11364 0.178 0.0
C1820 C 0.62228 0.11768 0.20732 0.0
C1821 C 0.63783 0.11313 0.12463 0.0
C1822 C 0.60872 0.13027 0.01865 0.0
H1823 H 0.65377 0.12566 0.78102 0.0
H1824 H 0.65111 0.11696 0.8701 0.0
H1825 H 0.60102 0.14211 0.94895 0.0
H1826 H 0.59123 0.12378 0.20406 0.0
H1827 H 0.58916 0.12272 0.11097 0.0
H1828 H 0.63777 0.09659 0.02866 0.0
C1829 C 0.63801 0.12141 0.85101 0.0
C1830 C 0.60877 0.13188 0.96555 0.0
C1831 C 0.63957 0.12635 0.7999 0.0
C1832 C 0.60432 0.12068 0.1824 0.0
C1833 C 0.60319 0.12018 0.12904 0.0
C1834 C 0.62965 0.10655 0.01162 0.0
C1835 C 0.62021 0.12347 0.87811 0.0
C1836 C 0.61932 0.12091 0.93455 0.0
C1837 C 0.62001 0.11667 0.09939 0.0
C1838 C 0.61927 0.11767 0.0425 0.0
H1839 H 0.59257 0.13994 0.78249 0.0
H1840 H 0.58957 0.1308 0.87076 0.0
H1841 H 0.63781 0.09939 0.9357 0.0
H1842 H 0.65301 0.11131 0.19622 0.0
H1843 H 0.65112 0.11055 0.10313 0.0
C1844 C 0.88816 0.14388 0.67046 0.0
C1845 C 0.87007 0.1413 0.6951 0.0
C1846 C 0.89143 0.13765 0.62155 0.0
C1847 C 0.86963 0.11065 0.52052 0.0
H1848 H 0.8968 0.14062 0.43044 0.0
C1849 C 0.85827 0.11593 0.30194 0.0
C1850 C 0.87498 0.11922 0.27197 0.0
C1851 C 0.86 0.1145 0.35495 0.0
C1852 C 0.88947 0.13196 0.45522 0.0
H1853 H 0.84137 0.12993 0.68913 0.0
H1854 H 0.84659 0.11966 0.60294 0.0
H1855 H 0.89569 0.14619 0.5212 0.0
H1856 H 0.90674 0.12238 0.27301 0.0
H1857 H 0.90971 0.12002 0.36562 0.0
H1858 H 0.8624 0.09704 0.45305 0.0
C1859 C 0.85861 0.12598 0.62158 0.0
C1860 C 0.88889 0.13511 0.50749 0.0
C1861 C 0.85552 0.13194 0.6709 0.0
C1862 C 0.8936 0.11992 0.29531 0.0
C1863 C 0.89531 0.11863 0.34825 0.0
C1864 C 0.86996 0.10764 0.46792 0.0
C1865 C 0.87645 0.12906 0.59576 0.0
C1866 C 0.87873 0.12463 0.54087 0.0
C1867 C 0.87844 0.11646 0.37868 0.0
C1868 C 0.8797 0.11839 0.43478 0.0
H1869 H 0.89964 0.15097 0.68872 0.0
H1870 H 0.90554 0.13993 0.60355 0.0
H1871 H 0.86197 0.10214 0.54505 0.0
H1872 H 0.84374 0.11533 0.28477 0.0
H1873 H 0.84675 0.11291 0.37757 0.0
C1874 C 0.62222 0.89207 0.79106 0.0
C1875 C 0.64013 0.88807 0.76718 0.0
C1876 C 0.62133 0.89394 0.84391 0.0
C1877 C 0.64912 0.8984 0.96327 0.0
H1878 H 0.61251 0.86604 0.01459 0.0
C1879 C 0.6546 0.87219 0.16671 0.0
C1880 C 0.63759 0.86603 0.19017 0.0
C1881 C 0.65373 0.87834 0.1171 0.0
C1882 C 0.62245 0.87547 1.00147 0.0
H1883 H 0.67147 0.88441 0.77878 0.0
H1884 H 0.66993 0.88785 0.87166 0.0
H1885 H 0.61342 0.872 0.9241 0.0
H1886 H 0.60621 0.86211 0.18229 0.0
H1887 H 0.6043 0.87368 0.09652 0.0
H1888 H 0.65811 0.90196 0.04074 0.0
C1889 C 0.65661 0.88947 0.84941 0.0
C1890 C 0.62302 0.87881 0.94936 0.0
C1891 C 0.65748 0.88747 0.79638 0.0
C1892 C 0.6195 0.86674 0.16448 0.0
C1893 C 0.61852 0.87324 0.11527 0.0
C1894 C 0.6483 0.89529 0.01577 0.0
C1895 C 0.63836 0.89198 0.87372 0.0
C1896 C 0.63657 0.89008 0.92965 0.0
C1897 C 0.63573 0.87871 0.09031 0.0
C1898 C 0.63522 0.88351 0.03545 0.0
H1899 H 0.60865 0.89272 0.76935 0.0
H1900 H 0.60713 0.89603 0.8618 0.0
H1901 H 0.65965 0.90719 0.94887 0.0
H1902 H 0.66872 0.87161 0.186 0.0
H1903 H 0.66736 0.88215 0.09915 0.0
C1904 C 0.6146 0.63403 0.71238 0.0
C1905 C 0.63139 0.63128 0.7427 0.0
C1906 C 0.6139 0.62855 0.6619 0.0
C1907 C 0.648 0.6196 0.55638 0.0
H1908 H 0.59995 0.60804 0.48473 0.0
C1909 C 0.64714 0.61 0.33785 0.0
C1910 C 0.63158 0.61751 0.31147 0.0
C1911 C 0.64666 0.60866 0.39111 0.0
C1912 C 0.61348 0.61132 0.50414 0.0
H1913 H 0.66002 0.61962 0.74493 0.0
H1914 H 0.65866 0.6097 0.65691 0.0
H1915 H 0.59975 0.61005 0.57775 0.0
H1916 H 0.60308 0.62913 0.31984 0.0
H1917 H 0.60223 0.62687 0.41285 0.0
H1918 H 0.66163 0.62125 0.48286 0.0
C1919 C 0.64617 0.61637 0.67195 0.0
C1920 C 0.61338 0.61245 0.55751 0.0
C1921 C 0.64684 0.62185 0.72262 0.0
C1922 C 0.61526 0.62324 0.3392 0.0
C1923 C 0.61474 0.62186 0.39248 0.0
C1924 C 0.64811 0.61844 0.50309 0.0
C1925 C 0.62998 0.62016 0.64038 0.0
C1926 C 0.63056 0.61689 0.5843 0.0
C1927 C 0.63058 0.61477 0.41921 0.0
C1928 C 0.63077 0.61457 0.47618 0.0
H1929 H 0.60243 0.64123 0.72691 0.0
H1930 H 0.60123 0.6318 0.63888 0.0
H1931 H 0.66142 0.62334 0.57546 0.0
H1932 H 0.65991 0.60545 0.31742 0.0
H1933 H 0.65899 0.60294 0.41034 0.0
C1934 C 0.84828 0.3949 0.83559 0.0
C1935 C 0.86416 0.38779 0.80925 0.0
C1936 C 0.84849 0.39599 0.88894 0.0
C1937 C 0.8813 0.39357 0.00251 0.0
H1938 H 0.83364 0.38001 0.07249 0.0
C1939 C 0.88076 0.37001 0.20959 0.0
C1940 C 0.86389 0.37222 0.24009 0.0
C1941 C 0.88123 0.37563 0.15927 0.0
C1942 C 0.84697 0.38417 0.0538 0.0
H1943 H 0.89291 0.37664 0.8178 0.0
H1944 H 0.89332 0.37851 0.91092 0.0
H1945 H 0.83361 0.38255 0.97994 0.0
H1946 H 0.83476 0.38299 0.24276 0.0
H1947 H 0.83567 0.39315 0.15491 0.0
H1948 H 0.89477 0.39485 0.07637 0.0
C1949 C 0.88076 0.38338 0.89047 0.0
C1950 C 0.84696 0.38559 1.00055 0.0
C1951 C 0.8805 0.38222 0.83713 0.0
C1952 C 0.84801 0.38119 0.22028 0.0
C1953 C 0.84845 0.38681 0.16972 0.0
C1954 C 0.88129 0.3922 0.05581 0.0
C1955 C 0.86462 0.39005 0.91714 0.0
C1956 C 0.86423 0.39001 0.97411 0.0
C1957 C 0.86482 0.38362 0.13804 0.0
C1958 C 0.86423 0.38717 0.08212 0.0
H1959 H 0.83548 0.3993 0.81505 0.0
H1960 H 0.83593 0.40137 0.90815 0.0
H1961 H 0.89476 0.39727 0.98347 0.0
H1962 H 0.89325 0.36317 0.22391 0.0
H1963 H 0.89404 0.37282 0.13617 0.0
C1964 C 0.59531 0.38585 0.72019 0.0
C1965 C 0.61379 0.38634 0.74429 0.0
C1966 C 0.59396 0.38699 0.66715 0.0
C1967 C 0.62012 0.39746 0.54833 0.0
H1968 H 0.59356 0.35942 0.49422 0.0
C1969 C 0.6339 0.37346 0.34455 0.0
C1970 C 0.61908 0.36445 0.32013 0.0
C1971 C 0.63104 0.37928 0.39412 0.0
C1972 C 0.60061 0.37036 0.50818 0.0
H1973 H 0.6452 0.38965 0.73265 0.0
H1974 H 0.64281 0.39182 0.63962 0.0
H1975 H 0.59242 0.36489 0.58507 0.0
H1976 H 0.58927 0.35528 0.32644 0.0
H1977 H 0.58378 0.36609 0.41209 0.0
H1978 H 0.62835 0.40295 0.47135 0.0
C1979 C 0.62939 0.39051 0.66176 0.0
C1980 C 0.60001 0.37344 0.56048 0.0
C1981 C 0.63077 0.38922 0.71489 0.0
C1982 C 0.60096 0.36209 0.34486 0.0
C1983 C 0.59793 0.36818 0.39404 0.0
C1984 C 0.62046 0.39452 0.49569 0.0
C1985 C 0.61105 0.3888 0.63734 0.0
C1986 C 0.61003 0.38684 0.58121 0.0
C1987 C 0.61315 0.37642 0.42 0.0
C1988 C 0.61103 0.38073 0.47502 0.0
H1989 H 0.58198 0.3837 0.74202 0.0
H1990 H 0.57962 0.3858 0.64924 0.0
H1991 H 0.62788 0.40793 0.56342 0.0
H1992 H 0.64808 0.37529 0.32627 0.0
H1993 H 0.64324 0.38532 0.41288 0.0
C1994 C 0.86814 0.61765 0.23158 0.0
C1995 C 0.85307 0.62347 0.26348 0.0
C1996 C 0.86455 0.61505 0.17973 0.0
C1997 C 0.83505 0.63323 0.08105 0.0
H1998 H 0.85772 0.59997 0.99397 0.0
C1999 C 0.83498 0.64135 0.86403 0.0
C2000 C 0.85234 0.63694 0.83849 0.0
C2001 C 0.83178 0.63638 0.91429 0.0
C2002 C 0.8514 0.60941 0.01772 0.0
H2003 H 0.82209 0.62989 0.2676 0.0
H2004 H 0.81582 0.62547 0.17673 0.0
H2005 H 0.85773 0.59628 0.0866 0.0
H2006 H 0.87978 0.62365 0.84394 0.0
H2007 H 0.87479 0.61556 0.93282 0.0
H2008 H 0.82985 0.64692 0.01338 0.0
C2009 C 0.83042 0.623 0.19173 0.0
C2010 C 0.85128 0.60722 0.07069 0.0
C2011 C 0.83398 0.62547 0.24368 0.0
C2012 C 0.86627 0.62713 0.86322 0.0
C2013 C 0.86328 0.62241 0.91392 0.0
C2014 C 0.83541 0.63553 0.02834 0.0
C2015 C 0.84586 0.61836 0.15895 0.0
C2016 C 0.8434 0.61925 0.10286 0.0
C2017 C 0.84612 0.62721 0.94041 0.0
C2018 C 0.84391 0.6238 0.99596 0.0
H2019 H 0.88297 0.61598 0.24606 0.0
H2020 H 0.87675 0.61157 0.15532 0.0
H2021 H 0.82921 0.64286 0.10494 0.0
H2022 H 0.82397 0.64877 0.84517 0.0
H2023 H 0.81819 0.63998 0.93288 0.0
C2024 C 0.39804 0.37093 0.3096 0.0
C2025 C 0.37967 0.3735 0.28644 0.0
C2026 C 0.40165 0.37672 0.35884 0.0
C2027 C 0.38025 0.40214 0.46429 0.0
H2028 H 0.40728 0.3706 0.54913 0.0
C2029 C 0.36804 0.39325 0.68083 0.0
C2030 C 0.38448 0.38919 0.71076 0.0
C2031 C 0.37013 0.39557 0.62825 0.0
C2032 C 0.40003 0.3797 0.52588 0.0
H2033 H 0.35087 0.38453 0.29522 0.0
H2034 H 0.35673 0.39406 0.38194 0.0
H2035 H 0.40625 0.36663 0.45757 0.0
H2036 H 0.41614 0.38547 0.71036 0.0
H2037 H 0.41977 0.38939 0.61838 0.0
H2038 H 0.37301 0.41458 0.53391 0.0
C2039 C 0.36867 0.38806 0.36192 0.0
C2040 C 0.39948 0.37747 0.47317 0.0
C2041 C 0.36523 0.38253 0.3123 0.0
C2042 C 0.40322 0.38851 0.68801 0.0
C2043 C 0.40529 0.39071 0.63545 0.0
C2044 C 0.38057 0.40424 0.51729 0.0
C2045 C 0.38676 0.38486 0.38636 0.0
C2046 C 0.3893 0.38849 0.44166 0.0
C2047 C 0.38867 0.39374 0.60487 0.0
C2048 C 0.39022 0.39289 0.54857 0.0
H2049 H 0.40945 0.3641 0.29002 0.0
H2050 H 0.41592 0.37438 0.37585 0.0
H2051 H 0.37257 0.41103 0.4412 0.0
H2052 H 0.35343 0.39387 0.69759 0.0
H2053 H 0.35705 0.39778 0.60551 0.0
C2054 C 0.11158 0.61869 0.18812 0.0
C2055 C 0.12838 0.61945 0.21919 0.0
C2056 C 0.11333 0.61511 0.13632 0.0
C2057 C 0.1498 0.61838 0.0328 0.0
H2058 H 0.10646 0.60071 0.95355 0.0
C2059 C 0.14788 0.62075 0.81248 0.0
C2060 C 0.13137 0.6294 0.7948 0.0
C2061 C 0.14858 0.61522 0.86288 0.0
C2062 C 0.11874 0.60553 0.97528 0.0
H2063 H 0.16006 0.61603 0.22173 0.0
H2064 H 0.16315 0.60926 0.13109 0.0
H2065 H 0.10651 0.5976 0.04625 0.0
H2066 H 0.10237 0.63848 0.81455 0.0
H2067 H 0.10338 0.62846 0.90255 0.0
H2068 H 0.16187 0.62641 0.96154 0.0
C2069 C 0.14864 0.61184 0.14642 0.0
C2070 C 0.11875 0.60385 0.02834 0.0
C2071 C 0.14688 0.61559 0.19836 0.0
C2072 C 0.11523 0.63183 0.82749 0.0
C2073 C 0.11578 0.62603 0.87754 0.0
C2074 C 0.14994 0.6198 0.97968 0.0
C2075 C 0.13193 0.61204 0.11443 0.0
C2076 C 0.13388 0.61084 0.05795 0.0
C2077 C 0.13262 0.61798 0.89594 0.0
C2078 C 0.13408 0.61389 0.95071 0.0
H2079 H 0.09713 0.62163 0.20326 0.0
H2080 H 0.10015 0.61567 0.11305 0.0
H2081 H 0.16159 0.6241 0.05413 0.0
H2082 H 0.16055 0.61887 0.78794 0.0
H2083 H 0.16172 0.60907 0.87634 0.0
C2084 C 0.35268 0.63259 0.69782 0.0
C2085 C 0.36835 0.64073 0.72181 0.0
C2086 C 0.35443 0.62742 0.64697 0.0
C2087 C 0.38284 0.63816 0.53082 0.0
H2088 H 0.35526 0.60149 0.47121 0.0
C2089 C 0.38705 0.6251 0.31486 0.0
C2090 C 0.36898 0.62187 0.29072 0.0
C2091 C 0.38844 0.62494 0.3682 0.0
C2092 C 0.363 0.61182 0.4873 0.0
H2093 H 0.39854 0.6488 0.71312 0.0
H2094 H 0.40197 0.63921 0.62541 0.0
H2095 H 0.35544 0.60503 0.56391 0.0
H2096 H 0.33837 0.61539 0.30321 0.0
H2097 H 0.34076 0.61513 0.39629 0.0
H2098 H 0.3902 0.64508 0.45446 0.0
C2099 C 0.38808 0.63725 0.64491 0.0
C2100 C 0.36308 0.61386 0.54048 0.0
C2101 C 0.38624 0.64256 0.69538 0.0
C2102 C 0.35251 0.61789 0.32082 0.0
C2103 C 0.35391 0.61767 0.37417 0.0
C2104 C 0.38284 0.63607 0.47787 0.0
C2105 C 0.37195 0.63021 0.61925 0.0
C2106 C 0.37288 0.62716 0.56298 0.0
C2107 C 0.3718 0.62151 0.39858 0.0
C2108 C 0.37278 0.62297 0.45531 0.0
H2109 H 0.33864 0.63123 0.71718 0.0
H2110 H 0.34163 0.62216 0.62858 0.0
H2111 H 0.39015 0.64878 0.54634 0.0
H2112 H 0.4 0.62817 0.29259 0.0
H2113 H 0.40251 0.62774 0.38571 0.0
C2114 C 0.11202 0.36269 0.18704 0.0
C2115 C 0.12984 0.36406 0.21401 0.0
C2116 C 0.11064 0.368 0.13648 0.0
C2117 C 0.13669 0.39075 0.03253 0.0
H2118 H 0.10901 0.35998 0.94618 0.0
C2119 C 0.14609 0.38787 0.81176 0.0
C2120 C 0.12948 0.38384 0.78225 0.0
C2121 C 0.14507 0.38778 0.86523 0.0
C2122 C 0.11654 0.36888 0.96964 0.0
H2123 H 0.15992 0.37276 0.21017 0.0
H2124 H 0.15769 0.3819 0.12141 0.0
H2125 H 0.10896 0.3562 0.03799 0.0
H2126 H 0.0986 0.37716 0.78544 0.0
H2127 H 0.0967 0.37718 0.87857 0.0
H2128 H 0.14467 0.40316 0.96343 0.0
C2129 C 0.14463 0.37697 0.13948 0.0
C2130 C 0.11649 0.36673 0.02257 0.0
C2131 C 0.14593 0.37178 0.19043 0.0
C2132 C 0.11166 0.38027 0.80719 0.0
C2133 C 0.11063 0.38017 0.86059 0.0
C2134 C 0.1368 0.39288 0.97934 0.0
C2135 C 0.12716 0.37459 0.11124 0.0
C2136 C 0.12658 0.37759 0.05489 0.0
C2137 C 0.12741 0.38362 0.89038 0.0
C2138 C 0.12676 0.38193 0.94718 0.0
H2139 H 0.09941 0.35676 0.20439 0.0
H2140 H 0.09679 0.36636 0.11655 0.0
H2141 H 0.14449 0.39945 0.05611 0.0
H2142 H 0.16006 0.39063 0.79355 0.0
H2143 H 0.15833 0.39036 0.8868 0.0
loop_
_geom_bond_atom_site_label_1
_geom_bond_atom_site_label_2
_geom_bond_distance
_geom_bond_site_symmetry_2
_ccdc_geom_bond_type
O0 Tb1 2.292 . S
O0 C3 1.255 . S
Tb1 O0 2.292 . S
Tb1 O17 2.326 . S
Tb1 O19 2.500 . S
Tb1 O20 2.473 . S
Tb1 O23 2.324 . S
Eu2 O6 2.292 1_554 S
Eu2 C7 2.852 1_554 S
Eu2 O18 2.324 . S
Eu2 O22 2.326 . S
Eu2 O24 2.500 1_554 S
Eu2 O25 2.473 1_554 S
C3 O0 1.255 . S
C3 O4 1.247 . S
O4 C3 1.247 . S
C5 O17 1.242 . S
C5 O18 1.258 . S
O6 Eu2 2.292 1_556 S
O6 C8 1.255 1_556 S
C7 Eu2 2.852 1_556 S
C7 C11 1.503 . S
C7 O24 1.273 . S
C7 O25 1.257 . S
C8 O6 1.255 1_554 S
C8 O9 1.247 . S
O9 C8 1.247 . S
C10 O22 1.242 . S
C10 O23 1.258 . S
C11 C7 1.503 . S
C11 C12 1.379 . S
C11 C16 1.392 . S
C12 C11 1.379 . S
C12 C13 1.404 . S
C12 H26 0.929 . S
C13 C12 1.404 . S
C13 C14 1.389 . S
C14 C13 1.389 . S
C14 C15 1.399 . S
C14 H27 0.931 . S
C15 C14 1.399 . S
C15 C16 1.390 . S
C16 C11 1.392 . S
C16 C15 1.390 . S
C16 H28 0.929 . S
O17 Tb1 2.326 . S
O17 C5 1.242 . S
O18 Eu2 2.324 . S
O18 C5 1.258 . S
O19 Tb1 2.500 . S
O19 C21 1.273 . S
O20 Tb1 2.473 . S
O20 C21 1.257 . S
C21 O19 1.273 . S
C21 O20 1.257 . S
O22 Eu2 2.326 . S
O22 C10 1.242 . S
O23 Tb1 2.324 . S
O23 C10 1.258 . S
O24 Eu2 2.500 1_556 S
O24 C7 1.273 . S
O25 Eu2 2.473 1_556 S
O25 C7 1.257 . S
H26 C12 0.929 . S
H27 C14 0.931 . S
H28 C16 0.929 . S
O29 Tb30 2.292 . S
O29 C32 1.255 . S
Tb30 O29 2.292 . S
Tb30 O46 2.326 . S
Tb30 O48 2.500 . S
Tb30 O49 2.473 . S
Tb30 O52 2.324 . S
Eu31 O35 2.292 . S
Eu31 C36 2.852 . S
Eu31 O47 2.324 . S
Eu31 O51 2.326 . S
Eu31 O53 2.500 . S
Eu31 O54 2.473 . S
C32 O29 1.255 . S
C32 O33 1.247 . S
O33 C32 1.247 . S
C34 O46 1.242 . S
C34 O47 1.258 . S
O35 Eu31 2.292 . S
O35 C37 1.255 . S
C36 Eu31 2.852 . S
C36 C40 1.503 . S
C36 O53 1.273 . S
C36 O54 1.257 . S
C37 O35 1.255 . S
C37 O38 1.247 . S
O38 C37 1.247 . S
C39 O51 1.242 . S
C39 O52 1.258 . S
C40 C36 1.503 . S
C40 C41 1.379 . S
C40 C45 1.392 . S
C41 C40 1.379 . S
C41 C42 1.404 . S
C41 H55 0.929 . S
C42 C41 1.404 . S
C42 C43 1.389 . S
C43 C42 1.389 . S
C43 C44 1.399 . S
C43 H56 0.931 . S
C44 C43 1.399 . S
C44 C45 1.390 . S
C45 C40 1.392 . S
C45 C44 1.390 . S
C45 H57 0.929 . S
O46 Tb30 2.326 . S
O46 C34 1.242 . S
O47 Eu31 2.324 . S
O47 C34 1.258 . S
O48 Tb30 2.500 . S
O48 C50 1.273 . S
O49 Tb30 2.473 . S
O49 C50 1.257 . S
C50 O48 1.273 . S
C50 O49 1.257 . S
O51 Eu31 2.326 . S
O51 C39 1.242 . S
O52 Tb30 2.324 . S
O52 C39 1.258 . S
O53 Eu31 2.500 . S
O53 C36 1.273 . S
O54 Eu31 2.473 . S
O54 C36 1.257 . S
H55 C41 0.929 . S
H56 C43 0.931 . S
H57 C45 0.929 . S
O58 Tb59 2.292 . S
O58 C61 1.255 . S
Tb59 O58 2.292 . S
Tb59 O75 2.326 . S
Tb59 O77 2.500 . S
Tb59 O78 2.473 . S
Tb59 O81 2.324 . S
Eu60 O64 2.292 1_556 S
Eu60 C65 2.852 1_556 S
Eu60 O76 2.324 . S
Eu60 O80 2.326 . S
Eu60 O82 2.500 1_556 S
Eu60 O83 2.473 1_556 S
C61 O58 1.255 . S
C61 O62 1.247 . S
O62 C61 1.247 . S
C63 O75 1.242 . S
C63 O76 1.258 . S
O64 Eu60 2.292 1_554 S
O64 C66 1.255 1_554 S
C65 Eu60 2.852 1_554 S
C65 C69 1.503 . S
C65 O82 1.273 . S
C65 O83 1.257 . S
C66 O64 1.255 1_556 S
C66 O67 1.247 . S
O67 C66 1.247 . S
C68 O80 1.242 . S
C68 O81 1.258 . S
C69 C65 1.503 . S
C69 C70 1.379 . S
C69 C74 1.392 . S
C70 C69 1.379 . S
C70 C71 1.404 . S
C70 H84 0.929 . S
C71 C70 1.404 . S
C71 C72 1.389 . S
C72 C71 1.389 . S
C72 C73 1.399 . S
C72 H85 0.931 . S
C73 C72 1.399 . S
C73 C74 1.390 . S
C74 C69 1.392 . S
C74 C73 1.390 . S
C74 H86 0.929 . S
O75 Tb59 2.326 . S
O75 C63 1.242 . S
O76 Eu60 2.324 . S
O76 C63 1.258 . S
O77 Tb59 2.500 . S
O77 C79 1.273 . S
O78 Tb59 2.473 . S
O78 C79 1.257 . S
C79 O77 1.273 . S
C79 O78 1.257 . S
O80 Eu60 2.326 . S
O80 C68 1.242 . S
O81 Tb59 2.324 . S
O81 C68 1.258 . S
O82 Eu60 2.500 1_554 S
O82 C65 1.273 . S
O83 Eu60 2.473 1_554 S
O83 C65 1.257 . S
H84 C70 0.929 . S
H85 C72 0.931 . S
H86 C74 0.929 . S
O87 Tb88 2.292 . S
O87 C90 1.255 . S
Tb88 O87 2.292 . S
Tb88 O104 2.326 . S
Tb88 O106 2.500 . S
Tb88 O107 2.473 . S
Tb88 O110 2.324 . S
Eu89 O93 2.292 . S
Eu89 C94 2.852 . S
Eu89 O105 2.324 . S
Eu89 O109 2.326 . S
Eu89 O111 2.500 . S
Eu89 O112 2.473 . S
C90 O87 1.255 . S
C90 O91 1.247 . S
O91 C90 1.247 . S
C92 O104 1.242 . S
C92 O105 1.258 . S
O93 Eu89 2.292 . S
O93 C95 1.255 . S
C94 Eu89 2.852 . S
C94 C98 1.503 . S
C94 O111 1.273 . S
C94 O112 1.257 . S
C95 O93 1.255 . S
C95 O96 1.247 . S
O96 C95 1.247 . S
C97 O109 1.242 . S
C97 O110 1.258 . S
C98 C94 1.503 . S
C98 C99 1.379 . S
C98 C103 1.392 . S
C99 C98 1.379 . S
C99 C100 1.404 . S
C99 H113 0.929 . S
C100 C99 1.404 . S
C100 C101 1.389 . S
C101 C100 1.389 . S
C101 C102 1.399 . S
C101 H114 0.931 . S
C102 C101 1.399 . S
C102 C103 1.390 . S
C103 C98 1.392 . S
C103 C102 1.390 . S
C103 H115 0.929 . S
O104 Tb88 2.326 . S
O104 C92 1.242 . S
O105 Eu89 2.324 . S
O105 C92 1.258 . S
O106 Tb88 2.500 . S
O106 C108 1.273 . S
O107 Tb88 2.473 . S
O107 C108 1.257 . S
C108 O106 1.273 . S
C108 O107 1.257 . S
O109 Eu89 2.326 . S
O109 C97 1.242 . S
O110 Tb88 2.324 . S
O110 C97 1.258 . S
O111 Eu89 2.500 . S
O111 C94 1.273 . S
O112 Eu89 2.473 . S
O112 C94 1.257 . S
H113 C99 0.929 . S
H114 C101 0.931 . S
H115 C103 0.929 . S
O116 Tb117 2.292 . S
O116 C119 1.255 . S
Tb117 O116 2.292 . S
Tb117 O133 2.326 . S
Tb117 O135 2.500 . S
Tb117 O136 2.473 . S
Tb117 O139 2.324 . S
Eu118 O122 2.292 1_556 S
Eu118 C123 2.852 1_556 S
Eu118 O134 2.324 . S
Eu118 O138 2.326 . S
Eu118 O140 2.500 1_556 S
Eu118 O141 2.473 1_556 S
C119 O116 1.255 . S
C119 O120 1.247 . S
O120 C119 1.247 . S
C121 O133 1.242 . S
C121 O134 1.258 . S
O122 Eu118 2.292 1_554 S
O122 C124 1.255 1_554 S
C123 Eu118 2.852 1_554 S
C123 C127 1.503 . S
C123 O140 1.273 . S
C123 O141 1.257 . S
C124 O122 1.255 1_556 S
C124 O125 1.247 . S
O125 C124 1.247 . S
C126 O138 1.242 . S
C126 O139 1.258 . S
C127 C123 1.503 . S
C127 C128 1.379 . S
C127 C132 1.392 . S
C128 C127 1.379 . S
C128 C129 1.404 . S
C128 H142 0.929 . S
C129 C128 1.404 . S
C129 C130 1.389 . S
C130 C129 1.389 . S
C130 C131 1.399 . S
C130 H143 0.931 . S
C131 C130 1.399 . S
C131 C132 1.390 . S
C132 C127 1.392 . S
C132 C131 1.390 . S
C132 H144 0.929 . S
O133 Tb117 2.326 . S
O133 C121 1.242 . S
O134 Eu118 2.324 . S
O134 C121 1.258 . S
O135 Tb117 2.500 . S
O135 C137 1.273 . S
O136 Tb117 2.473 . S
O136 C137 1.257 . S
C137 O135 1.273 . S
C137 O136 1.257 . S
O138 Eu118 2.326 . S
O138 C126 1.242 . S
O139 Tb117 2.324 . S
O139 C126 1.258 . S
O140 Eu118 2.500 1_554 S
O140 C123 1.273 . S
O141 Eu118 2.473 1_554 S
O141 C123 1.257 . S
H142 C128 0.929 . S
H143 C130 0.931 . S
H144 C132 0.929 . S
O145 Tb146 2.292 . S
O145 C148 1.255 . S
Tb146 O145 2.292 . S
Tb146 O162 2.326 . S
Tb146 O164 2.500 . S
Tb146 O165 2.473 . S
Tb146 O168 2.324 . S
Eu147 O151 2.292 . S
Eu147 C152 2.852 . S
Eu147 O163 2.324 . S
Eu147 O167 2.326 . S
Eu147 O169 2.500 . S
Eu147 O170 2.473 . S
C148 O145 1.255 . S
C148 O149 1.247 . S
O149 C148 1.247 . S
C150 O162 1.242 . S
C150 O163 1.258 . S
O151 Eu147 2.292 . S
O151 C153 1.255 . S
C152 Eu147 2.852 . S
C152 C156 1.503 . S
C152 O169 1.273 . S
C152 O170 1.257 . S
C153 O151 1.255 . S
C153 O154 1.247 . S
O154 C153 1.247 . S
C155 O167 1.242 . S
C155 O168 1.258 . S
C156 C152 1.503 . S
C156 C157 1.379 . S
C156 C161 1.392 . S
C157 C156 1.379 . S
C157 C158 1.404 . S
C157 H171 0.929 . S
C158 C157 1.404 . S
C158 C159 1.389 . S
C159 C158 1.389 . S
C159 C160 1.399 . S
C159 H172 0.931 . S
C160 C159 1.399 . S
C160 C161 1.390 . S
C161 C156 1.392 . S
C161 C160 1.390 . S
C161 H173 0.929 . S
O162 Tb146 2.326 . S
O162 C150 1.242 . S
O163 Eu147 2.324 . S
O163 C150 1.258 . S
O164 Tb146 2.500 . S
O164 C166 1.273 . S
O165 Tb146 2.473 . S
O165 C166 1.257 . S
C166 O164 1.273 . S
C166 O165 1.257 . S
O167 Eu147 2.326 . S
O167 C155 1.242 . S
O168 Tb146 2.324 . S
O168 C155 1.258 . S
O169 Eu147 2.500 . S
O169 C152 1.273 . S
O170 Eu147 2.473 . S
O170 C152 1.257 . S
H171 C157 0.929 . S
H172 C159 0.931 . S
H173 C161 0.929 . S
O174 Tb175 2.292 . S
O174 C177 1.255 . S
Tb175 O174 2.292 . S
Tb175 O191 2.326 . S
Tb175 O193 2.500 . S
Tb175 O194 2.473 . S
Tb175 O197 2.324 . S
Eu176 O180 2.292 1_554 S
Eu176 C181 2.852 1_554 S
Eu176 O192 2.324 . S
Eu176 O196 2.326 . S
Eu176 O198 2.500 1_554 S
Eu176 O199 2.473 1_554 S
C177 O174 1.255 . S
C177 O178 1.247 . S
O178 C177 1.247 . S
C179 O191 1.242 . S
C179 O192 1.258 . S
O180 Eu176 2.292 1_556 S
O180 C182 1.255 1_556 S
C181 Eu176 2.852 1_556 S
C181 C185 1.503 . S
C181 O198 1.273 . S
C181 O199 1.257 . S
C182 O180 1.255 1_554 S
C182 O183 1.247 . S
O183 C182 1.247 . S
C184 O196 1.242 . S
C184 O197 1.258 . S
C185 C181 1.503 . S
C185 C186 1.379 . S
C185 C190 1.392 . S
C186 C185 1.379 . S
C186 C187 1.404 . S
C186 H200 0.929 . S
C187 C186 1.404 . S
C187 C188 1.389 . S
C188 C187 1.389 . S
C188 C189 1.399 . S
C188 H201 0.931 . S
C189 C188 1.399 . S
C189 C190 1.390 . S
C190 C185 1.392 . S
C190 C189 1.390 . S
C190 H202 0.929 . S
O191 Tb175 2.326 . S
O191 C179 1.242 . S
O192 Eu176 2.324 . S
O192 C179 1.258 . S
O193 Tb175 2.500 . S
O193 C195 1.273 . S
O194 Tb175 2.473 . S
O194 C195 1.257 . S
C195 O193 1.273 . S
C195 O194 1.257 . S
O196 Eu176 2.326 . S
O196 C184 1.242 . S
O197 Tb175 2.324 . S
O197 C184 1.258 . S
O198 Eu176 2.500 1_556 S
O198 C181 1.273 . S
O199 Eu176 2.473 1_556 S
O199 C181 1.257 . S
H200 C186 0.929 . S
H201 C188 0.931 . S
H202 C190 0.929 . S
O203 Tb204 2.292 . S
O203 C206 1.255 . S
Tb204 O203 2.292 . S
Tb204 O220 2.326 . S
Tb204 O222 2.500 . S
Tb204 O223 2.473 . S
Tb204 O226 2.324 . S
Eu205 O209 2.292 . S
Eu205 C210 2.852 . S
Eu205 O221 2.324 . S
Eu205 O225 2.326 . S
Eu205 O227 2.500 . S
Eu205 O228 2.473 . S
C206 O203 1.255 . S
C206 O207 1.247 . S
O207 C206 1.247 . S
C208 O220 1.242 . S
C208 O221 1.258 . S
O209 Eu205 2.292 . S
O209 C211 1.255 . S
C210 Eu205 2.852 . S
C210 C214 1.503 . S
C210 O227 1.273 . S
C210 O228 1.257 . S
C211 O209 1.255 . S
C211 O212 1.247 . S
O212 C211 1.247 . S
C213 O225 1.242 . S
C213 O226 1.258 . S
C214 C210 1.503 . S
C214 C215 1.379 . S
C214 C219 1.392 . S
C215 C214 1.379 . S
C215 C216 1.404 . S
C215 H229 0.929 . S
C216 C215 1.404 . S
C216 C217 1.389 . S
C217 C216 1.389 . S
C217 C218 1.399 . S
C217 H230 0.931 . S
C218 C217 1.399 . S
C218 C219 1.390 . S
C219 C214 1.392 . S
C219 C218 1.390 . S
C219 H231 0.929 . S
O220 Tb204 2.326 . S
O220 C208 1.242 . S
O221 Eu205 2.324 . S
O221 C208 1.258 . S
O222 Tb204 2.500 . S
O222 C224 1.273 . S
O223 Tb204 2.473 . S
O223 C224 1.257 . S
C224 O222 1.273 . S
C224 O223 1.257 . S
O225 Eu205 2.326 . S
O225 C213 1.242 . S
O226 Tb204 2.324 . S
O226 C213 1.258 . S
O227 Eu205 2.500 . S
O227 C210 1.273 . S
O228 Eu205 2.473 . S
O228 C210 1.257 . S
H229 C215 0.929 . S
H230 C217 0.931 . S
H231 C219 0.929 . S
O232 Tb233 2.292 . S
O232 C235 1.255 . S
Tb233 O232 2.292 . S
Tb233 O249 2.326 . S
Tb233 O251 2.500 . S
Tb233 O252 2.473 . S
Tb233 O255 2.324 . S
Eu234 O238 2.292 1_554 S
Eu234 C239 2.852 1_554 S
Eu234 O250 2.324 . S
Eu234 O254 2.326 . S
Eu234 O256 2.500 1_554 S
Eu234 O257 2.473 1_554 S
C235 O232 1.255 . S
C235 O236 1.247 . S
O236 C235 1.247 . S
C237 O249 1.242 . S
C237 O250 1.258 . S
O238 Eu234 2.292 1_556 S
O238 C240 1.255 1_556 S
C239 Eu234 2.852 1_556 S
C239 C243 1.503 . S
C239 O256 1.273 . S
C239 O257 1.257 . S
C240 O238 1.255 1_554 S
C240 O241 1.247 . S
O241 C240 1.247 . S
C242 O254 1.242 . S
C242 O255 1.258 . S
C243 C239 1.503 . S
C243 C244 1.379 . S
C243 C248 1.392 . S
C244 C243 1.379 . S
C244 C245 1.404 . S
C244 H258 0.929 . S
C245 C244 1.404 . S
C245 C246 1.389 . S
C246 C245 1.389 . S
C246 C247 1.399 . S
C246 H259 0.931 . S
C247 C246 1.399 . S
C247 C248 1.390 . S
C248 C243 1.392 . S
C248 C247 1.390 . S
C248 H260 0.929 . S
O249 Tb233 2.326 . S
O249 C237 1.242 . S
O250 Eu234 2.324 . S
O250 C237 1.258 . S
O251 Tb233 2.500 . S
O251 C253 1.273 . S
O252 Tb233 2.473 . S
O252 C253 1.257 . S
C253 O251 1.273 . S
C253 O252 1.257 . S
O254 Eu234 2.326 . S
O254 C242 1.242 . S
O255 Tb233 2.324 . S
O255 C242 1.258 . S
O256 Eu234 2.500 1_556 S
O256 C239 1.273 . S
O257 Eu234 2.473 1_556 S
O257 C239 1.257 . S
H258 C244 0.929 . S
H259 C246 0.931 . S
H260 C248 0.929 . S
O261 Tb262 2.292 . S
O261 C264 1.255 . S
Tb262 O261 2.292 . S
Tb262 O278 2.326 . S
Tb262 O280 2.500 . S
Tb262 O281 2.473 . S
Tb262 O284 2.324 . S
Eu263 O267 2.292 . S
Eu263 C268 2.852 . S
Eu263 O279 2.324 . S
Eu263 O283 2.326 . S
Eu263 O285 2.500 . S
Eu263 O286 2.473 . S
C264 O261 1.255 . S
C264 O265 1.247 . S
O265 C264 1.247 . S
C266 O278 1.242 . S
C266 O279 1.258 . S
O267 Eu263 2.292 . S
O267 C269 1.255 . S
C268 Eu263 2.852 . S
C268 C272 1.503 . S
C268 O285 1.273 . S
C268 O286 1.257 . S
C269 O267 1.255 . S
C269 O270 1.247 . S
O270 C269 1.247 . S
C271 O283 1.242 . S
C271 O284 1.258 . S
C272 C268 1.503 . S
C272 C273 1.379 . S
C272 C277 1.392 . S
C273 C272 1.379 . S
C273 C274 1.404 . S
C273 H287 0.929 . S
C274 C273 1.404 . S
C274 C275 1.389 . S
C275 C274 1.389 . S
C275 C276 1.399 . S
C275 H288 0.931 . S
C276 C275 1.399 . S
C276 C277 1.390 . S
C277 C272 1.392 . S
C277 C276 1.390 . S
C277 H289 0.929 . S
O278 Tb262 2.326 . S
O278 C266 1.242 . S
O279 Eu263 2.324 . S
O279 C266 1.258 . S
O280 Tb262 2.500 . S
O280 C282 1.273 . S
O281 Tb262 2.473 . S
O281 C282 1.257 . S
C282 O280 1.273 . S
C282 O281 1.257 . S
O283 Eu263 2.326 . S
O283 C271 1.242 . S
O284 Tb262 2.324 . S
O284 C271 1.258 . S
O285 Eu263 2.500 . S
O285 C268 1.273 . S
O286 Eu263 2.473 . S
O286 C268 1.257 . S
H287 C273 0.929 . S
H288 C275 0.931 . S
H289 C277 0.929 . S
O290 Tb291 2.292 . S
O290 C293 1.255 . S
Tb291 O290 2.292 . S
Tb291 O307 2.326 . S
Tb291 O309 2.500 . S
Tb291 O310 2.473 . S
Tb291 O313 2.324 . S
Eu292 O296 2.292 1_556 S
Eu292 C297 2.852 1_556 S
Eu292 O308 2.324 . S
Eu292 O312 2.326 . S
Eu292 O314 2.500 1_556 S
Eu292 O315 2.473 1_556 S
C293 O290 1.255 . S
C293 O294 1.247 . S
O294 C293 1.247 . S
C295 O307 1.242 . S
C295 O308 1.258 . S
O296 Eu292 2.292 1_554 S
O296 C298 1.255 1_554 S
C297 Eu292 2.852 1_554 S
C297 C301 1.503 . S
C297 O314 1.273 . S
C297 O315 1.257 . S
C298 O296 1.255 1_556 S
C298 O299 1.247 . S
O299 C298 1.247 . S
C300 O312 1.242 . S
C300 O313 1.258 . S
C301 C297 1.503 . S
C301 C302 1.379 . S
C301 C306 1.392 . S
C302 C301 1.379 . S
C302 C303 1.404 . S
C302 H316 0.929 . S
C303 C302 1.404 . S
C303 C304 1.389 . S
C304 C303 1.389 . S
C304 C305 1.399 . S
C304 H317 0.931 . S
C305 C304 1.399 . S
C305 C306 1.390 . S
C306 C301 1.392 . S
C306 C305 1.390 . S
C306 H318 0.929 . S
O307 Tb291 2.326 . S
O307 C295 1.242 . S
O308 Eu292 2.324 . S
O308 C295 1.258 . S
O309 Tb291 2.500 . S
O309 C311 1.273 . S
O310 Tb291 2.473 . S
O310 C311 1.257 . S
C311 O309 1.273 . S
C311 O310 1.257 . S
O312 Eu292 2.326 . S
O312 C300 1.242 . S
O313 Tb291 2.324 . S
O313 C300 1.258 . S
O314 Eu292 2.500 1_554 S
O314 C297 1.273 . S
O315 Eu292 2.473 1_554 S
O315 C297 1.257 . S
H316 C302 0.929 . S
H317 C304 0.931 . S
H318 C306 0.929 . S
O319 Tb320 2.292 . S
O319 C322 1.255 . S
Tb320 O319 2.292 . S
Tb320 O336 2.326 . S
Tb320 O338 2.500 . S
Tb320 O339 2.473 . S
Tb320 O342 2.324 . S
Eu321 O325 2.292 . S
Eu321 C326 2.852 . S
Eu321 O337 2.324 . S
Eu321 O341 2.326 . S
Eu321 O343 2.500 . S
Eu321 O344 2.473 . S
C322 O319 1.255 . S
C322 O323 1.247 . S
O323 C322 1.247 . S
C324 O336 1.242 . S
C324 O337 1.258 . S
O325 Eu321 2.292 . S
O325 C327 1.255 . S
C326 Eu321 2.852 . S
C326 C330 1.503 . S
C326 O343 1.273 . S
C326 O344 1.257 . S
C327 O325 1.255 . S
C327 O328 1.247 . S
O328 C327 1.247 . S
C329 O341 1.242 . S
C329 O342 1.258 . S
C330 C326 1.503 . S
C330 C331 1.379 . S
C330 C335 1.392 . S
C331 C330 1.379 . S
C331 C332 1.404 . S
C331 H345 0.929 . S
C332 C331 1.404 . S
C332 C333 1.389 . S
C333 C332 1.389 . S
C333 C334 1.399 . S
C333 H346 0.931 . S
C334 C333 1.399 . S
C334 C335 1.390 . S
C335 C330 1.392 . S
C335 C334 1.390 . S
C335 H347 0.929 . S
O336 Tb320 2.326 . S
O336 C324 1.242 . S
O337 Eu321 2.324 . S
O337 C324 1.258 . S
O338 Tb320 2.500 . S
O338 C340 1.273 . S
O339 Tb320 2.473 . S
O339 C340 1.257 . S
C340 O338 1.273 . S
C340 O339 1.257 . S
O341 Eu321 2.326 . S
O341 C329 1.242 . S
O342 Tb320 2.324 . S
O342 C329 1.258 . S
O343 Eu321 2.500 . S
O343 C326 1.273 . S
O344 Eu321 2.473 . S
O344 C326 1.257 . S
H345 C331 0.929 . S
H346 C333 0.931 . S
H347 C335 0.929 . S
O348 Tb349 2.292 . S
O348 C351 1.255 . S
Tb349 O348 2.292 . S
Tb349 O365 2.326 . S
Tb349 O367 2.500 . S
Tb349 O368 2.473 . S
Tb349 O371 2.324 . S
Eu350 O354 2.292 1_556 S
Eu350 C355 2.852 1_556 S
Eu350 O366 2.324 . S
Eu350 O370 2.326 . S
Eu350 O372 2.500 1_556 S
Eu350 O373 2.473 1_556 S
C351 O348 1.255 . S
C351 O352 1.247 . S
O352 C351 1.247 . S
C353 O365 1.242 . S
C353 O366 1.258 . S
O354 Eu350 2.292 1_554 S
O354 C356 1.255 1_554 S
C355 Eu350 2.852 1_554 S
C355 C359 1.503 . S
C355 O372 1.273 . S
C355 O373 1.257 . S
C356 O354 1.255 1_556 S
C356 O357 1.247 . S
O357 C356 1.247 . S
C358 O370 1.242 . S
C358 O371 1.258 . S
C359 C355 1.503 . S
C359 C360 1.379 . S
C359 C364 1.392 . S
C360 C359 1.379 . S
C360 C361 1.404 . S
C360 H374 0.929 . S
C361 C360 1.404 . S
C361 C362 1.389 . S
C362 C361 1.389 . S
C362 C363 1.399 . S
C362 H375 0.931 . S
C363 C362 1.399 . S
C363 C364 1.390 . S
C364 C359 1.392 . S
C364 C363 1.390 . S
C364 H376 0.929 . S
O365 Tb349 2.326 . S
O365 C353 1.242 . S
O366 Eu350 2.324 . S
O366 C353 1.258 . S
O367 Tb349 2.500 . S
O367 C369 1.273 . S
O368 Tb349 2.473 . S
O368 C369 1.257 . S
C369 O367 1.273 . S
C369 O368 1.257 . S
O370 Eu350 2.326 . S
O370 C358 1.242 . S
O371 Tb349 2.324 . S
O371 C358 1.258 . S
O372 Eu350 2.500 1_554 S
O372 C355 1.273 . S
O373 Eu350 2.473 1_554 S
O373 C355 1.257 . S
H374 C360 0.929 . S
H375 C362 0.931 . S
H376 C364 0.929 . S
O377 Tb378 2.292 . S
O377 C380 1.255 . S
Tb378 O377 2.292 . S
Tb378 O394 2.326 . S
Tb378 O396 2.500 . S
Tb378 O397 2.473 . S
Tb378 O400 2.324 . S
Eu379 O383 2.292 . S
Eu379 C384 2.852 . S
Eu379 O395 2.324 . S
Eu379 O399 2.326 . S
Eu379 O401 2.500 . S
Eu379 O402 2.473 . S
C380 O377 1.255 . S
C380 O381 1.247 . S
O381 C380 1.247 . S
C382 O394 1.242 . S
C382 O395 1.258 . S
O383 Eu379 2.292 . S
O383 C385 1.255 . S
C384 Eu379 2.852 . S
C384 C388 1.503 . S
C384 O401 1.273 . S
C384 O402 1.257 . S
C385 O383 1.255 . S
C385 O386 1.247 . S
O386 C385 1.247 . S
C387 O399 1.242 . S
C387 O400 1.258 . S
C388 C384 1.503 . S
C388 C389 1.379 . S
C388 C393 1.392 . S
C389 C388 1.379 . S
C389 C390 1.404 . S
C389 H403 0.929 . S
C390 C389 1.404 . S
C390 C391 1.389 . S
C391 C390 1.389 . S
C391 C392 1.399 . S
C391 H404 0.931 . S
C392 C391 1.399 . S
C392 C393 1.390 . S
C393 C388 1.392 . S
C393 C392 1.390 . S
C393 H405 0.929 . S
O394 Tb378 2.326 . S
O394 C382 1.242 . S
O395 Eu379 2.324 . S
O395 C382 1.258 . S
O396 Tb378 2.500 . S
O396 C398 1.273 . S
O397 Tb378 2.473 . S
O397 C398 1.257 . S
C398 O396 1.273 . S
C398 O397 1.257 . S
O399 Eu379 2.326 . S
O399 C387 1.242 . S
O400 Tb378 2.324 . S
O400 C387 1.258 . S
O401 Eu379 2.500 . S
O401 C384 1.273 . S
O402 Eu379 2.473 . S
O402 C384 1.257 . S
H403 C389 0.929 . S
H404 C391 0.931 . S
H405 C393 0.929 . S
O406 Tb407 2.292 . S
O406 C409 1.255 . S
Tb407 O406 2.292 . S
Tb407 O423 2.326 . S
Tb407 O425 2.500 . S
Tb407 O426 2.473 . S
Tb407 O429 2.324 . S
Eu408 O412 2.292 1_554 S
Eu408 C413 2.852 1_554 S
Eu408 O424 2.324 . S
Eu408 O428 2.326 . S
Eu408 O430 2.500 1_554 S
Eu408 O431 2.473 1_554 S
C409 O406 1.255 . S
C409 O410 1.247 . S
O410 C409 1.247 . S
C411 O423 1.242 . S
C411 O424 1.258 . S
O412 Eu408 2.292 1_556 S
O412 C414 1.255 1_556 S
C413 Eu408 2.852 1_556 S
C413 C417 1.503 . S
C413 O430 1.273 . S
C413 O431 1.257 . S
C414 O412 1.255 1_554 S
C414 O415 1.247 . S
O415 C414 1.247 . S
C416 O428 1.242 . S
C416 O429 1.258 . S
C417 C413 1.503 . S
C417 C418 1.379 . S
C417 C422 1.392 . S
C418 C417 1.379 . S
C418 C419 1.404 . S
C418 H432 0.929 . S
C419 C418 1.404 . S
C419 C420 1.389 . S
C420 C419 1.389 . S
C420 C421 1.399 . S
C420 H433 0.931 . S
C421 C420 1.399 . S
C421 C422 1.390 . S
C422 C417 1.392 . S
C422 C421 1.390 . S
C422 H434 0.929 . S
O423 Tb407 2.326 . S
O423 C411 1.242 . S
O424 Eu408 2.324 . S
O424 C411 1.258 . S
O425 Tb407 2.500 . S
O425 C427 1.273 . S
O426 Tb407 2.473 . S
O426 C427 1.257 . S
C427 O425 1.273 . S
C427 O426 1.257 . S
O428 Eu408 2.326 . S
O428 C416 1.242 . S
O429 Tb407 2.324 . S
O429 C416 1.258 . S
O430 Eu408 2.500 1_556 S
O430 C413 1.273 . S
O431 Eu408 2.473 1_556 S
O431 C413 1.257 . S
H432 C418 0.929 . S
H433 C420 0.931 . S
H434 C422 0.929 . S
O435 Tb436 2.292 . S
O435 C438 1.255 . S
Tb436 O435 2.292 . S
Tb436 O452 2.326 . S
Tb436 O454 2.500 . S
Tb436 O455 2.473 . S
Tb436 O458 2.324 . S
Eu437 O441 2.292 . S
Eu437 C442 2.852 . S
Eu437 O453 2.324 . S
Eu437 O457 2.326 . S
Eu437 O459 2.500 . S
Eu437 O460 2.473 . S
C438 O435 1.255 . S
C438 O439 1.247 . S
O439 C438 1.247 . S
C440 O452 1.242 . S
C440 O453 1.258 . S
O441 Eu437 2.292 . S
O441 C443 1.255 . S
C442 Eu437 2.852 . S
C442 C446 1.503 . S
C442 O459 1.273 . S
C442 O460 1.257 . S
C443 O441 1.255 . S
C443 O444 1.247 . S
O444 C443 1.247 . S
C445 O457 1.242 . S
C445 O458 1.258 . S
C446 C442 1.503 . S
C446 C447 1.379 . S
C446 C451 1.392 . S
C447 C446 1.379 . S
C447 C448 1.404 . S
C447 H461 0.929 . S
C448 C447 1.404 . S
C448 C449 1.389 . S
C449 C448 1.389 . S
C449 C450 1.399 . S
C449 H462 0.931 . S
C450 C449 1.399 . S
C450 C451 1.390 . S
C451 C446 1.392 . S
C451 C450 1.390 . S
C451 H463 0.929 . S
O452 Tb436 2.326 . S
O452 C440 1.242 . S
O453 Eu437 2.324 . S
O453 C440 1.258 . S
O454 Tb436 2.500 . S
O454 C456 1.273 . S
O455 Tb436 2.473 . S
O455 C456 1.257 . S
C456 O454 1.273 . S
C456 O455 1.257 . S
O457 Eu437 2.326 . S
O457 C445 1.242 . S
O458 Tb436 2.324 . S
O458 C445 1.258 . S
O459 Eu437 2.500 . S
O459 C442 1.273 . S
O460 Eu437 2.473 . S
O460 C442 1.257 . S
H461 C447 0.929 . S
H462 C449 0.931 . S
H463 C451 0.929 . S
C464 C465 1.349 1_556 S
C464 C466 1.327 . S
C464 H489 0.950 . S
C465 C464 1.349 1_554 S
C465 C481 1.349 . S
C466 C464 1.327 . S
C466 C485 1.429 1_556 S
C466 H490 0.950 . S
C467 C484 1.574 1_655 S
C467 C486 1.368 . S
C467 H491 0.949 . S
H468 C472 0.949 . S
C469 C470 1.349 . S
C469 C471 1.327 . S
C469 H492 0.950 . S
C470 C469 1.349 . S
C470 C482 1.349 1_554 S
C471 C469 1.327 . S
C471 C487 1.429 . S
C471 H493 0.950 . S
C472 H468 0.949 . S
C472 C480 1.574 1_455 S
C472 C488 1.368 1_556 S
H473 C481 0.950 . S
H474 C479 0.950 . S
H475 C480 0.949 . S
H476 C482 0.950 . S
H477 C483 0.950 . S
H478 C484 0.949 . S
C479 H474 0.950 . S
C479 C481 1.327 . S
C479 C485 1.429 . S
C480 C472 1.574 1_655 S
C480 H475 0.949 . S
C480 C486 1.368 1_556 S
C481 C465 1.349 . S
C481 H473 0.950 . S
C481 C479 1.327 . S
C482 C470 1.349 1_556 S
C482 H476 0.950 . S
C482 C483 1.327 . S
C483 H477 0.950 . S
C483 C482 1.327 . S
C483 C487 1.429 1_556 S
C484 C467 1.574 1_455 S
C484 H478 0.949 . S
C484 C488 1.368 . S
C485 C466 1.429 1_554 S
C485 C479 1.429 . S
C485 C486 1.523 . S
C486 C467 1.368 . S
C486 C480 1.368 1_554 S
C486 C485 1.523 . S
C487 C471 1.429 . S
C487 C483 1.429 1_554 S
C487 C488 1.523 . S
C488 C472 1.368 1_554 S
C488 C484 1.368 . S
C488 C487 1.523 . S
H489 C464 0.950 . S
H490 C466 0.950 . S
H491 C467 0.949 . S
H492 C469 0.950 . S
H493 C471 0.950 . S
C494 C495 1.349 . S
C494 C496 1.327 . S
C494 H519 0.950 . S
C495 C494 1.349 . S
C495 C511 1.349 . S
C496 C494 1.327 . S
C496 C515 1.429 . S
C496 H520 0.950 . S
C497 C514 1.574 . S
C497 C516 1.368 . S
C497 H521 0.949 . S
H498 C502 0.949 . S
C499 C500 1.349 . S
C499 C501 1.327 . S
C499 H522 0.950 . S
C500 C499 1.349 . S
C500 C512 1.349 . S
C501 C499 1.327 . S
C501 C517 1.429 . S
C501 H523 0.950 . S
C502 H498 0.949 . S
C502 C510 1.574 . S
C502 C518 1.368 . S
H503 C511 0.950 . S
H504 C509 0.950 . S
H505 C510 0.949 . S
H506 C512 0.950 . S
H507 C513 0.950 . S
H508 C514 0.949 . S
C509 H504 0.950 . S
C509 C511 1.327 . S
C509 C515 1.429 . S
C510 C502 1.574 . S
C510 H505 0.949 . S
C510 C516 1.368 . S
C511 C495 1.349 . S
C511 H503 0.950 . S
C511 C509 1.327 . S
C512 C500 1.349 . S
C512 H506 0.950 . S
C512 C513 1.327 . S
C513 H507 0.950 . S
C513 C512 1.327 . S
C513 C517 1.429 . S
C514 C497 1.574 . S
C514 H508 0.949 . S
C514 C518 1.368 . S
C515 C496 1.429 . S
C515 C509 1.429 . S
C515 C516 1.523 . S
C516 C497 1.368 . S
C516 C510 1.368 . S
C516 C515 1.523 . S
C517 C501 1.429 . S
C517 C513 1.429 . S
C517 C518 1.523 . S
C518 C502 1.368 . S
C518 C514 1.368 . S
C518 C517 1.523 . S
H519 C494 0.950 . S
H520 C496 0.950 . S
H521 C497 0.949 . S
H522 C499 0.950 . S
H523 C501 0.950 . S
C524 C525 1.349 1_554 S
C524 C526 1.327 . S
C524 H549 0.950 . S
C525 C524 1.349 1_556 S
C525 C541 1.349 . S
C526 C524 1.327 . S
C526 C545 1.429 1_554 S
C526 H550 0.950 . S
C527 C544 1.574 1_655 S
C527 C546 1.368 . S
C527 H551 0.949 . S
H528 C532 0.949 . S
C529 C530 1.349 . S
C529 C531 1.327 . S
C529 H552 0.950 . S
C530 C529 1.349 . S
C530 C542 1.349 1_556 S
C531 C529 1.327 . S
C531 C547 1.429 . S
C531 H553 0.950 . S
C532 H528 0.949 . S
C532 C540 1.574 1_455 S
C532 C548 1.368 1_554 S
H533 C541 0.950 . S
H534 C539 0.950 . S
H535 C540 0.949 . S
H536 C542 0.950 . S
H537 C543 0.950 . S
H538 C544 0.949 . S
C539 H534 0.950 . S
C539 C541 1.327 . S
C539 C545 1.429 . S
C540 C532 1.574 1_655 S
C540 H535 0.949 . S
C540 C546 1.368 1_554 S
C541 C525 1.349 . S
C541 H533 0.950 . S
C541 C539 1.327 . S
C542 C530 1.349 1_554 S
C542 H536 0.950 . S
C542 C543 1.327 . S
C543 H537 0.950 . S
C543 C542 1.327 . S
C543 C547 1.429 1_554 S
C544 C527 1.574 1_455 S
C544 H538 0.949 . S
C544 C548 1.368 . S
C545 C526 1.429 1_556 S
C545 C539 1.429 . S
C545 C546 1.523 . S
C546 C527 1.368 . S
C546 C540 1.368 1_556 S
C546 C545 1.523 . S
C547 C531 1.429 . S
C547 C543 1.429 1_556 S
C547 C548 1.523 . S
C548 C532 1.368 1_556 S
C548 C544 1.368 . S
C548 C547 1.523 . S
H549 C524 0.950 . S
H550 C526 0.950 . S
H551 C527 0.949 . S
H552 C529 0.950 . S
H553 C531 0.950 . S
C554 C555 1.349 . S
C554 C556 1.327 . S
C554 H579 0.950 . S
C555 C554 1.349 . S
C555 C571 1.349 . S
C556 C554 1.327 . S
C556 C575 1.429 . S
C556 H580 0.950 . S
C557 C574 1.574 . S
C557 C576 1.368 . S
C557 H581 0.949 . S
H558 C562 0.949 . S
C559 C560 1.349 . S
C559 C561 1.327 . S
C559 H582 0.950 . S
C560 C559 1.349 . S
C560 C572 1.349 . S
C561 C559 1.327 . S
C561 C577 1.429 . S
C561 H583 0.950 . S
C562 H558 0.949 . S
C562 C570 1.574 . S
C562 C578 1.368 . S
H563 C571 0.950 . S
H564 C569 0.950 . S
H565 C570 0.949 . S
H566 C572 0.950 . S
H567 C573 0.950 . S
H568 C574 0.949 . S
C569 H564 0.950 . S
C569 C571 1.327 . S
C569 C575 1.429 . S
C570 C562 1.574 . S
C570 H565 0.949 . S
C570 C576 1.368 . S
C571 C555 1.349 . S
C571 H563 0.950 . S
C571 C569 1.327 . S
C572 C560 1.349 . S
C572 H566 0.950 . S
C572 C573 1.327 . S
C573 H567 0.950 . S
C573 C572 1.327 . S
C573 C577 1.429 . S
C574 C557 1.574 . S
C574 H568 0.949 . S
C574 C578 1.368 . S
C575 C556 1.429 . S
C575 C569 1.429 . S
C575 C576 1.523 . S
C576 C557 1.368 . S
C576 C570 1.368 . S
C576 C575 1.523 . S
C577 C561 1.429 . S
C577 C573 1.429 . S
C577 C578 1.523 . S
C578 C562 1.368 . S
C578 C574 1.368 . S
C578 C577 1.523 . S
H579 C554 0.950 . S
H580 C556 0.950 . S
H581 C557 0.949 . S
H582 C559 0.950 . S
H583 C561 0.950 . S
C584 C585 1.349 1_556 S
C584 C586 1.327 . S
C584 H609 0.950 . S
C585 C584 1.349 1_554 S
C585 C601 1.349 . S
C586 C584 1.327 . S
C586 C605 1.429 1_556 S
C586 H610 0.950 . S
C587 C604 1.574 . S
C587 C606 1.368 . S
C587 H611 0.949 . S
H588 C592 0.949 . S
C589 C590 1.349 . S
C589 C591 1.327 . S
C589 H612 0.950 . S
C590 C589 1.349 . S
C590 C602 1.349 1_554 S
C591 C589 1.327 . S
C591 C607 1.429 . S
C591 H613 0.950 . S
C592 H588 0.949 . S
C592 C600 1.574 . S
C592 C608 1.368 1_556 S
H593 C601 0.950 . S
H594 C599 0.950 . S
H595 C600 0.949 . S
H596 C602 0.950 . S
H597 C603 0.950 . S
H598 C604 0.949 . S
C599 H594 0.950 . S
C599 C601 1.327 . S
C599 C605 1.429 . S
C600 C592 1.574 . S
C600 H595 0.949 . S
C600 C606 1.368 1_556 S
C601 C585 1.349 . S
C601 H593 0.950 . S
C601 C599 1.327 . S
C602 C590 1.349 1_556 S
C602 H596 0.950 . S
C602 C603 1.327 . S
C603 H597 0.950 . S
C603 C602 1.327 . S
C603 C607 1.429 1_556 S
C604 C587 1.574 . S
C604 H598 0.949 . S
C604 C608 1.368 . S
C605 C586 1.429 1_554 S
C605 C599 1.429 . S
C605 C606 1.523 . S
C606 C587 1.368 . S
C606 C600 1.368 1_554 S
C606 C605 1.523 . S
C607 C591 1.429 . S
C607 C603 1.429 1_554 S
C607 C608 1.523 . S
C608 C592 1.368 1_554 S
C608 C604 1.368 . S
C608 C607 1.523 . S
H609 C584 0.950 . S
H610 C586 0.950 . S
H611 C587 0.949 . S
H612 C589 0.950 . S
H613 C591 0.950 . S
C614 C615 1.349 . S
C614 C616 1.327 . S
C614 H639 0.950 . S
C615 C614 1.349 . S
C615 C631 1.349 . S
C616 C614 1.327 . S
C616 C635 1.429 . S
C616 H640 0.950 . S
C617 C634 1.574 1_455 S
C617 C636 1.368 . S
C617 H641 0.949 . S
H618 C622 0.949 . S
C619 C620 1.349 . S
C619 C621 1.327 . S
C619 H642 0.950 . S
C620 C619 1.349 . S
C620 C632 1.349 . S
C621 C619 1.327 . S
C621 C637 1.429 . S
C621 H643 0.950 . S
C622 H618 0.949 . S
C622 C630 1.574 1_655 S
C622 C638 1.368 . S
H623 C631 0.950 . S
H624 C629 0.950 . S
H625 C630 0.949 . S
H626 C632 0.950 . S
H627 C633 0.950 . S
H628 C634 0.949 . S
C629 H624 0.950 . S
C629 C631 1.327 . S
C629 C635 1.429 . S
C630 C622 1.574 1_455 S
C630 H625 0.949 . S
C630 C636 1.368 . S
C631 C615 1.349 . S
C631 H623 0.950 . S
C631 C629 1.327 . S
C632 C620 1.349 . S
C632 H626 0.950 . S
C632 C633 1.327 . S
C633 H627 0.950 . S
C633 C632 1.327 . S
C633 C637 1.429 . S
C634 C617 1.574 1_655 S
C634 H628 0.949 . S
C634 C638 1.368 . S
C635 C616 1.429 . S
C635 C629 1.429 . S
C635 C636 1.523 . S
C636 C617 1.368 . S
C636 C630 1.368 . S
C636 C635 1.523 . S
C637 C621 1.429 . S
C637 C633 1.429 . S
C637 C638 1.523 . S
C638 C622 1.368 . S
C638 C634 1.368 . S
C638 C637 1.523 . S
H639 C614 0.950 . S
H640 C616 0.950 . S
H641 C617 0.949 . S
H642 C619 0.950 . S
H643 C621 0.950 . S
C644 C645 1.349 1_554 S
C644 C646 1.327 . S
C644 H669 0.950 . S
C645 C644 1.349 1_556 S
C645 C661 1.349 . S
C646 C644 1.327 . S
C646 C665 1.429 1_554 S
C646 H670 0.950 . S
C647 C664 1.574 . S
C647 C666 1.368 . S
C647 H671 0.949 . S
H648 C652 0.949 . S
C649 C650 1.349 . S
C649 C651 1.327 . S
C649 H672 0.950 . S
C650 C649 1.349 . S
C650 C662 1.349 1_556 S
C651 C649 1.327 . S
C651 C667 1.429 . S
C651 H673 0.950 . S
C652 H648 0.949 . S
C652 C660 1.574 . S
C652 C668 1.368 1_554 S
H653 C661 0.950 . S
H654 C659 0.950 . S
H655 C660 0.949 . S
H656 C662 0.950 . S
H657 C663 0.950 . S
H658 C664 0.949 . S
C659 H654 0.950 . S
C659 C661 1.327 . S
C659 C665 1.429 . S
C660 C652 1.574 . S
C660 H655 0.949 . S
C660 C666 1.368 1_554 S
C661 C645 1.349 . S
C661 H653 0.950 . S
C661 C659 1.327 . S
C662 C650 1.349 1_554 S
C662 H656 0.950 . S
C662 C663 1.327 . S
C663 H657 0.950 . S
C663 C662 1.327 . S
C663 C667 1.429 1_554 S
C664 C647 1.574 . S
C664 H658 0.949 . S
C664 C668 1.368 . S
C665 C646 1.429 1_556 S
C665 C659 1.429 . S
C665 C666 1.523 . S
C666 C647 1.368 . S
C666 C660 1.368 1_556 S
C666 C665 1.523 . S
C667 C651 1.429 . S
C667 C663 1.429 1_556 S
C667 C668 1.523 . S
C668 C652 1.368 1_556 S
C668 C664 1.368 . S
C668 C667 1.523 . S
H669 C644 0.950 . S
H670 C646 0.950 . S
H671 C647 0.949 . S
H672 C649 0.950 . S
H673 C651 0.950 . S
C674 C675 1.349 . S
C674 C676 1.327 . S
C674 H699 0.950 . S
C675 C674 1.349 . S
C675 C691 1.349 . S
C676 C674 1.327 . S
C676 C695 1.429 . S
C676 H700 0.950 . S
C677 C694 1.574 1_455 S
C677 C696 1.368 . S
C677 H701 0.949 . S
H678 C682 0.949 . S
C679 C680 1.349 . S
C679 C681 1.327 . S
C679 H702 0.950 . S
C680 C679 1.349 . S
C680 C692 1.349 . S
C681 C679 1.327 . S
C681 C697 1.429 . S
C681 H703 0.950 . S
C682 H678 0.949 . S
C682 C690 1.574 1_655 S
C682 C698 1.368 . S
H683 C691 0.950 . S
H684 C689 0.950 . S
H685 C690 0.949 . S
H686 C692 0.950 . S
H687 C693 0.950 . S
H688 C694 0.949 . S
C689 H684 0.950 . S
C689 C691 1.327 . S
C689 C695 1.429 . S
C690 C682 1.574 1_455 S
C690 H685 0.949 . S
C690 C696 1.368 . S
C691 C675 1.349 . S
C691 H683 0.950 . S
C691 C689 1.327 . S
C692 C680 1.349 . S
C692 H686 0.950 . S
C692 C693 1.327 . S
C693 H687 0.950 . S
C693 C692 1.327 . S
C693 C697 1.429 . S
C694 C677 1.574 1_655 S
C694 H688 0.949 . S
C694 C698 1.368 . S
C695 C676 1.429 . S
C695 C689 1.429 . S
C695 C696 1.523 . S
C696 C677 1.368 . S
C696 C690 1.368 . S
C696 C695 1.523 . S
C697 C681 1.429 . S
C697 C693 1.429 . S
C697 C698 1.523 . S
C698 C682 1.368 . S
C698 C694 1.368 . S
C698 C697 1.523 . S
H699 C674 0.950 . S
H700 C676 0.950 . S
H701 C677 0.949 . S
H702 C679 0.950 . S
H703 C681 0.950 . S
C704 C705 1.349 . S
C704 C706 1.327 . S
C704 H729 0.950 . S
C705 C704 1.349 . S
C705 C721 1.349 . S
C706 C704 1.327 . S
C706 C725 1.429 . S
C706 H730 0.950 . S
C707 C724 1.574 . S
C707 C726 1.368 . S
C707 H731 0.949 . S
H708 C712 0.949 . S
C709 C710 1.349 . S
C709 C711 1.327 . S
C709 H732 0.950 . S
C710 C709 1.349 . S
C710 C722 1.349 . S
C711 C709 1.327 . S
C711 C727 1.429 . S
C711 H733 0.950 . S
C712 H708 0.949 . S
C712 C720 1.574 . S
C712 C728 1.368 . S
H713 C721 0.950 . S
H714 C719 0.950 . S
H715 C720 0.949 . S
H716 C722 0.950 . S
H717 C723 0.950 . S
H718 C724 0.949 . S
C719 H714 0.950 . S
C719 C721 1.327 . S
C719 C725 1.429 . S
C720 C712 1.574 . S
C720 H715 0.949 . S
C720 C726 1.368 . S
C721 C705 1.349 . S
C721 H713 0.950 . S
C721 C719 1.327 . S
C722 C710 1.349 . S
C722 H716 0.950 . S
C722 C723 1.327 . S
C723 H717 0.950 . S
C723 C722 1.327 . S
C723 C727 1.429 . S
C724 C707 1.574 . S
C724 H718 0.949 . S
C724 C728 1.368 . S
C725 C706 1.429 . S
C725 C719 1.429 . S
C725 C726 1.523 . S
C726 C707 1.368 . S
C726 C720 1.368 . S
C726 C725 1.523 . S
C727 C711 1.429 . S
C727 C723 1.429 . S
C727 C728 1.523 . S
C728 C712 1.368 . S
C728 C724 1.368 . S
C728 C727 1.523 . S
H729 C704 0.950 . S
H730 C706 0.950 . S
H731 C707 0.949 . S
H732 C709 0.950 . S
H733 C711 0.950 . S
C734 C735 1.349 . S
C734 C736 1.327 . S
C734 H759 0.950 . S
C735 C734 1.349 . S
C735 C751 1.349 . S
C736 C734 1.327 . S
C736 C755 1.429 . S
C736 H760 0.950 . S
C737 C754 1.574 . S
C737 C756 1.368 . S
C737 H761 0.949 . S
H738 C742 0.949 . S
C739 C740 1.349 . S
C739 C741 1.327 . S
C739 H762 0.950 . S
C740 C739 1.349 . S
C740 C752 1.349 . S
C741 C739 1.327 . S
C741 C757 1.429 . S
C741 H763 0.950 . S
C742 H738 0.949 . S
C742 C750 1.574 . S
C742 C758 1.368 . S
H743 C751 0.950 . S
H744 C749 0.950 . S
H745 C750 0.949 . S
H746 C752 0.950 . S
H747 C753 0.950 . S
H748 C754 0.949 . S
C749 H744 0.950 . S
C749 C751 1.327 . S
C749 C755 1.429 . S
C750 C742 1.574 . S
C750 H745 0.949 . S
C750 C756 1.368 . S
C751 C735 1.349 . S
C751 H743 0.950 . S
C751 C749 1.327 . S
C752 C740 1.349 . S
C752 H746 0.950 . S
C752 C753 1.327 . S
C753 H747 0.950 . S
C753 C752 1.327 . S
C753 C757 1.429 . S
C754 C737 1.574 . S
C754 H748 0.949 . S
C754 C758 1.368 . S
C755 C736 1.429 . S
C755 C749 1.429 . S
C755 C756 1.523 . S
C756 C737 1.368 . S
C756 C750 1.368 . S
C756 C755 1.523 . S
C757 C741 1.429 . S
C757 C753 1.429 . S
C757 C758 1.523 . S
C758 C742 1.368 . S
C758 C754 1.368 . S
C758 C757 1.523 . S
H759 C734 0.950 . S
H760 C736 0.950 . S
H761 C737 0.949 . S
H762 C739 0.950 . S
H763 C741 0.950 . S
C764 C765 1.349 . S
C764 C766 1.327 . S
C764 H789 0.950 . S
C765 C764 1.349 . S
C765 C781 1.349 . S
C766 C764 1.327 . S
C766 C785 1.429 . S
C766 H790 0.950 . S
C767 C784 1.574 . S
C767 C786 1.368 . S
C767 H791 0.949 . S
H768 C772 0.949 . S
C769 C770 1.349 . S
C769 C771 1.327 . S
C769 H792 0.950 . S
C770 C769 1.349 . S
C770 C782 1.349 . S
C771 C769 1.327 . S
C771 C787 1.429 . S
C771 H793 0.950 . S
C772 H768 0.949 . S
C772 C780 1.574 . S
C772 C788 1.368 . S
H773 C781 0.950 . S
H774 C779 0.950 . S
H775 C780 0.949 . S
H776 C782 0.950 . S
H777 C783 0.950 . S
H778 C784 0.949 . S
C779 H774 0.950 . S
C779 C781 1.327 . S
C779 C785 1.429 . S
C780 C772 1.574 . S
C780 H775 0.949 . S
C780 C786 1.368 . S
C781 C765 1.349 . S
C781 H773 0.950 . S
C781 C779 1.327 . S
C782 C770 1.349 . S
C782 H776 0.950 . S
C782 C783 1.327 . S
C783 H777 0.950 . S
C783 C782 1.327 . S
C783 C787 1.429 . S
C784 C767 1.574 . S
C784 H778 0.949 . S
C784 C788 1.368 . S
C785 C766 1.429 . S
C785 C779 1.429 . S
C785 C786 1.523 . S
C786 C767 1.368 . S
C786 C780 1.368 . S
C786 C785 1.523 . S
C787 C771 1.429 . S
C787 C783 1.429 . S
C787 C788 1.523 . S
C788 C772 1.368 . S
C788 C784 1.368 . S
C788 C787 1.523 . S
H789 C764 0.950 . S
H790 C766 0.950 . S
H791 C767 0.949 . S
H792 C769 0.950 . S
H793 C771 0.950 . S
C794 C795 1.349 . S
C794 C796 1.327 . S
C794 H819 0.950 . S
C795 C794 1.349 . S
C795 C811 1.349 . S
C796 C794 1.327 . S
C796 C815 1.429 . S
C796 H820 0.950 . S
C797 C814 1.574 . S
C797 C816 1.368 . S
C797 H821 0.949 . S
H798 C802 0.949 . S
C799 C800 1.349 . S
C799 C801 1.327 . S
C799 H822 0.950 . S
C800 C799 1.349 . S
C800 C812 1.349 . S
C801 C799 1.327 . S
C801 C817 1.429 . S
C801 H823 0.950 . S
C802 H798 0.949 . S
C802 C810 1.574 . S
C802 C818 1.368 . S
H803 C811 0.950 . S
H804 C809 0.950 . S
H805 C810 0.949 . S
H806 C812 0.950 . S
H807 C813 0.950 . S
H808 C814 0.949 . S
C809 H804 0.950 . S
C809 C811 1.327 . S
C809 C815 1.429 . S
C810 C802 1.574 . S
C810 H805 0.949 . S
C810 C816 1.368 . S
C811 C795 1.349 . S
C811 H803 0.950 . S
C811 C809 1.327 . S
C812 C800 1.349 . S
C812 H806 0.950 . S
C812 C813 1.327 . S
C813 H807 0.950 . S
C813 C812 1.327 . S
C813 C817 1.429 . S
C814 C797 1.574 . S
C814 H808 0.949 . S
C814 C818 1.368 . S
C815 C796 1.429 . S
C815 C809 1.429 . S
C815 C816 1.523 . S
C816 C797 1.368 . S
C816 C810 1.368 . S
C816 C815 1.523 . S
C817 C801 1.429 . S
C817 C813 1.429 . S
C817 C818 1.523 . S
C818 C802 1.368 . S
C818 C814 1.368 . S
C818 C817 1.523 . S
H819 C794 0.950 . S
H820 C796 0.950 . S
H821 C797 0.949 . S
H822 C799 0.950 . S
H823 C801 0.950 . S
C824 C825 1.349 . S
C824 C826 1.327 . S
C824 H849 0.950 . S
C825 C824 1.349 . S
C825 C841 1.349 . S
C826 C824 1.327 . S
C826 C845 1.429 . S
C826 H850 0.950 . S
C827 C844 1.574 . S
C827 C846 1.368 . S
C827 H851 0.949 . S
H828 C832 0.949 . S
C829 C830 1.349 . S
C829 C831 1.327 . S
C829 H852 0.950 . S
C830 C829 1.349 . S
C830 C842 1.349 . S
C831 C829 1.327 . S
C831 C847 1.429 . S
C831 H853 0.950 . S
C832 H828 0.949 . S
C832 C840 1.574 . S
C832 C848 1.368 . S
H833 C841 0.950 . S
H834 C839 0.950 . S
H835 C840 0.949 . S
H836 C842 0.950 . S
H837 C843 0.950 . S
H838 C844 0.949 . S
C839 H834 0.950 . S
C839 C841 1.327 . S
C839 C845 1.429 . S
C840 C832 1.574 . S
C840 H835 0.949 . S
C840 C846 1.368 . S
C841 C825 1.349 . S
C841 H833 0.950 . S
C841 C839 1.327 . S
C842 C830 1.349 . S
C842 H836 0.950 . S
C842 C843 1.327 . S
C843 H837 0.950 . S
C843 C842 1.327 . S
C843 C847 1.429 . S
C844 C827 1.574 . S
C844 H838 0.949 . S
C844 C848 1.368 . S
C845 C826 1.429 . S
C845 C839 1.429 . S
C845 C846 1.523 . S
C846 C827 1.368 . S
C846 C840 1.368 . S
C846 C845 1.523 . S
C847 C831 1.429 . S
C847 C843 1.429 . S
C847 C848 1.523 . S
C848 C832 1.368 . S
C848 C844 1.368 . S
C848 C847 1.523 . S
H849 C824 0.950 . S
H850 C826 0.950 . S
H851 C827 0.949 . S
H852 C829 0.950 . S
H853 C831 0.950 . S
C854 C855 1.349 . S
C854 C856 1.327 . S
C854 H879 0.950 . S
C855 C854 1.349 . S
C855 C871 1.349 . S
C856 C854 1.327 . S
C856 C875 1.429 . S
C856 H880 0.950 . S
C857 C874 1.574 . S
C857 C876 1.368 . S
C857 H881 0.949 . S
H858 C862 0.949 . S
C859 C860 1.349 . S
C859 C861 1.327 . S
C859 H882 0.950 . S
C860 C859 1.349 . S
C860 C872 1.349 . S
C861 C859 1.327 . S
C861 C877 1.429 . S
C861 H883 0.950 . S
C862 H858 0.949 . S
C862 C870 1.574 . S
C862 C878 1.368 . S
H863 C871 0.950 . S
H864 C869 0.950 . S
H865 C870 0.949 . S
H866 C872 0.950 . S
H867 C873 0.950 . S
H868 C874 0.949 . S
C869 H864 0.950 . S
C869 C871 1.327 . S
C869 C875 1.429 . S
C870 C862 1.574 . S
C870 H865 0.949 . S
C870 C876 1.368 . S
C871 C855 1.349 . S
C871 H863 0.950 . S
C871 C869 1.327 . S
C872 C860 1.349 . S
C872 H866 0.950 . S
C872 C873 1.327 . S
C873 H867 0.950 . S
C873 C872 1.327 . S
C873 C877 1.429 . S
C874 C857 1.574 . S
C874 H868 0.949 . S
C874 C878 1.368 . S
C875 C856 1.429 . S
C875 C869 1.429 . S
C875 C876 1.523 . S
C876 C857 1.368 . S
C876 C870 1.368 . S
C876 C875 1.523 . S
C877 C861 1.429 . S
C877 C873 1.429 . S
C877 C878 1.523 . S
C878 C862 1.368 . S
C878 C874 1.368 . S
C878 C877 1.523 . S
H879 C854 0.950 . S
H880 C856 0.950 . S
H881 C857 0.949 . S
H882 C859 0.950 . S
H883 C861 0.950 . S
C884 C885 1.349 . S
C884 C886 1.327 . S
C884 H909 0.950 . S
C885 C884 1.349 . S
C885 C901 1.349 . S
C886 C884 1.327 . S
C886 C905 1.429 . S
C886 H910 0.950 . S
C887 C904 1.574 . S
C887 C906 1.368 . S
C887 H911 0.949 . S
H888 C892 0.949 . S
C889 C890 1.349 . S
C889 C891 1.327 . S
C889 H912 0.950 . S
C890 C889 1.349 . S
C890 C902 1.349 . S
C891 C889 1.327 . S
C891 C907 1.429 . S
C891 H913 0.950 . S
C892 H888 0.949 . S
C892 C900 1.574 . S
C892 C908 1.368 . S
H893 C901 0.950 . S
H894 C899 0.950 . S
H895 C900 0.949 . S
H896 C902 0.950 . S
H897 C903 0.950 . S
H898 C904 0.949 . S
C899 H894 0.950 . S
C899 C901 1.327 . S
C899 C905 1.429 . S
C900 C892 1.574 . S
C900 H895 0.949 . S
C900 C906 1.368 . S
C901 C885 1.349 . S
C901 H893 0.950 . S
C901 C899 1.327 . S
C902 C890 1.349 . S
C902 H896 0.950 . S
C902 C903 1.327 . S
C903 H897 0.950 . S
C903 C902 1.327 . S
C903 C907 1.429 . S
C904 C887 1.574 . S
C904 H898 0.949 . S
C904 C908 1.368 . S
C905 C886 1.429 . S
C905 C899 1.429 . S
C905 C906 1.523 . S
C906 C887 1.368 . S
C906 C900 1.368 . S
C906 C905 1.523 . S
C907 C891 1.429 . S
C907 C903 1.429 . S
C907 C908 1.523 . S
C908 C892 1.368 . S
C908 C904 1.368 . S
C908 C907 1.523 . S
H909 C884 0.950 . S
H910 C886 0.950 . S
H911 C887 0.949 . S
H912 C889 0.950 . S
H913 C891 0.950 . S
C914 C915 1.349 . S
C914 C916 1.327 . S
C914 H939 0.950 . S
C915 C914 1.349 . S
C915 C931 1.349 . S
C916 C914 1.327 . S
C916 C935 1.429 . S
C916 H940 0.950 . S
C917 C934 1.574 . S
C917 C936 1.368 . S
C917 H941 0.949 . S
H918 C922 0.949 . S
C919 C920 1.349 . S
C919 C921 1.327 . S
C919 H942 0.950 . S
C920 C919 1.349 . S
C920 C932 1.349 . S
C921 C919 1.327 . S
C921 C937 1.429 . S
C921 H943 0.950 . S
C922 H918 0.949 . S
C922 C930 1.574 . S
C922 C938 1.368 . S
H923 C931 0.950 . S
H924 C929 0.950 . S
H925 C930 0.949 . S
H926 C932 0.950 . S
H927 C933 0.950 . S
H928 C934 0.949 . S
C929 H924 0.950 . S
C929 C931 1.327 . S
C929 C935 1.429 . S
C930 C922 1.574 . S
C930 H925 0.949 . S
C930 C936 1.368 . S
C931 C915 1.349 . S
C931 H923 0.950 . S
C931 C929 1.327 . S
C932 C920 1.349 . S
C932 H926 0.950 . S
C932 C933 1.327 . S
C933 H927 0.950 . S
C933 C932 1.327 . S
C933 C937 1.429 . S
C934 C917 1.574 . S
C934 H928 0.949 . S
C934 C938 1.368 . S
C935 C916 1.429 . S
C935 C929 1.429 . S
C935 C936 1.523 . S
C936 C917 1.368 . S
C936 C930 1.368 . S
C936 C935 1.523 . S
C937 C921 1.429 . S
C937 C933 1.429 . S
C937 C938 1.523 . S
C938 C922 1.368 . S
C938 C934 1.368 . S
C938 C937 1.523 . S
H939 C914 0.950 . S
H940 C916 0.950 . S
H941 C917 0.949 . S
H942 C919 0.950 . S
H943 C921 0.950 . S
C944 C945 1.349 . S
C944 C946 1.327 . S
C944 H969 0.950 . S
C945 C944 1.349 . S
C945 C961 1.349 . S
C946 C944 1.327 . S
C946 C965 1.429 . S
C946 H970 0.950 . S
C947 C964 1.574 . S
C947 C966 1.368 . S
C947 H971 0.949 . S
H948 C952 0.949 . S
C949 C950 1.349 . S
C949 C951 1.327 . S
C949 H972 0.950 . S
C950 C949 1.349 . S
C950 C962 1.349 . S
C951 C949 1.327 . S
C951 C967 1.429 . S
C951 H973 0.950 . S
C952 H948 0.949 . S
C952 C960 1.574 . S
C952 C968 1.368 . S
H953 C961 0.950 . S
H954 C959 0.950 . S
H955 C960 0.949 . S
H956 C962 0.950 . S
H957 C963 0.950 . S
H958 C964 0.949 . S
C959 H954 0.950 . S
C959 C961 1.327 . S
C959 C965 1.429 . S
C960 C952 1.574 . S
C960 H955 0.949 . S
C960 C966 1.368 . S
C961 C945 1.349 . S
C961 H953 0.950 . S
C961 C959 1.327 . S
C962 C950 1.349 . S
C962 H956 0.950 . S
C962 C963 1.327 . S
C963 H957 0.950 . S
C963 C962 1.327 . S
C963 C967 1.429 . S
C964 C947 1.574 . S
C964 H958 0.949 . S
C964 C968 1.368 . S
C965 C946 1.429 . S
C965 C959 1.429 . S
C965 C966 1.523 . S
C966 C947 1.368 . S
C966 C960 1.368 . S
C966 C965 1.523 . S
C967 C951 1.429 . S
C967 C963 1.429 . S
C967 C968 1.523 . S
C968 C952 1.368 . S
C968 C964 1.368 . S
C968 C967 1.523 . S
H969 C944 0.950 . S
H970 C946 0.950 . S
H971 C947 0.949 . S
H972 C949 0.950 . S
H973 C951 0.950 . S
C974 C975 1.349 . S
C974 C976 1.327 . S
C974 H999 0.950 . S
C975 C974 1.349 . S
C975 C991 1.349 . S
C976 C974 1.327 . S
C976 C995 1.429 . S
C976 H1000 0.950 . S
C977 C994 1.574 . S
C977 C996 1.368 . S
C977 H1001 0.949 . S
H978 C982 0.949 . S
C979 C980 1.349 . S
C979 C981 1.327 . S
C979 H1002 0.950 . S
C980 C979 1.349 . S
C980 C992 1.349 . S
C981 C979 1.327 . S
C981 C997 1.429 . S
C981 H1003 0.950 . S
C982 H978 0.949 . S
C982 C990 1.574 . S
C982 C998 1.368 . S
H983 C991 0.950 . S
H984 C989 0.950 . S
H985 C990 0.949 . S
H986 C992 0.950 . S
H987 C993 0.950 . S
H988 C994 0.949 . S
C989 H984 0.950 . S
C989 C991 1.327 . S
C989 C995 1.429 . S
C990 C982 1.574 . S
C990 H985 0.949 . S
C990 C996 1.368 . S
C991 C975 1.349 . S
C991 H983 0.950 . S
C991 C989 1.327 . S
C992 C980 1.349 . S
C992 H986 0.950 . S
C992 C993 1.327 . S
C993 H987 0.950 . S
C993 C992 1.327 . S
C993 C997 1.429 . S
C994 C977 1.574 . S
C994 H988 0.949 . S
C994 C998 1.368 . S
C995 C976 1.429 . S
C995 C989 1.429 . S
C995 C996 1.523 . S
C996 C977 1.368 . S
C996 C990 1.368 . S
C996 C995 1.523 . S
C997 C981 1.429 . S
C997 C993 1.429 . S
C997 C998 1.523 . S
C998 C982 1.368 . S
C998 C994 1.368 . S
C998 C997 1.523 . S
H999 C974 0.950 . S
H1000 C976 0.950 . S
H1001 C977 0.949 . S
H1002 C979 0.950 . S
H1003 C981 0.950 . S
C1004 C1005 1.349 . S
C1004 C1006 1.327 . S
C1004 H1029 0.950 . S
C1005 C1004 1.349 . S
C1005 C1021 1.349 . S
C1006 C1004 1.327 . S
C1006 C1025 1.429 . S
C1006 H1030 0.950 . S
C1007 C1024 1.574 . S
C1007 C1026 1.368 . S
C1007 H1031 0.949 . S
H1008 C1012 0.949 . S
C1009 C1010 1.349 . S
C1009 C1011 1.327 . S
C1009 H1032 0.950 . S
C1010 C1009 1.349 . S
C1010 C1022 1.349 . S
C1011 C1009 1.327 . S
C1011 C1027 1.429 . S
C1011 H1033 0.950 . S
C1012 H1008 0.949 . S
C1012 C1020 1.574 . S
C1012 C1028 1.368 . S
H1013 C1021 0.950 . S
H1014 C1019 0.950 . S
H1015 C1020 0.949 . S
H1016 C1022 0.950 . S
H1017 C1023 0.950 . S
H1018 C1024 0.949 . S
C1019 H1014 0.950 . S
C1019 C1021 1.327 . S
C1019 C1025 1.429 . S
C1020 C1012 1.574 . S
C1020 H1015 0.949 . S
C1020 C1026 1.368 . S
C1021 C1005 1.349 . S
C1021 H1013 0.950 . S
C1021 C1019 1.327 . S
C1022 C1010 1.349 . S
C1022 H1016 0.950 . S
C1022 C1023 1.327 . S
C1023 H1017 0.950 . S
C1023 C1022 1.327 . S
C1023 C1027 1.429 . S
C1024 C1007 1.574 . S
C1024 H1018 0.949 . S
C1024 C1028 1.368 . S
C1025 C1006 1.429 . S
C1025 C1019 1.429 . S
C1025 C1026 1.523 . S
C1026 C1007 1.368 . S
C1026 C1020 1.368 . S
C1026 C1025 1.523 . S
C1027 C1011 1.429 . S
C1027 C1023 1.429 . S
C1027 C1028 1.523 . S
C1028 C1012 1.368 . S
C1028 C1024 1.368 . S
C1028 C1027 1.523 . S
H1029 C1004 0.950 . S
H1030 C1006 0.950 . S
H1031 C1007 0.949 . S
H1032 C1009 0.950 . S
H1033 C1011 0.950 . S
C1034 C1035 1.349 . S
C1034 C1036 1.327 . S
C1034 H1059 0.950 . S
C1035 C1034 1.349 . S
C1035 C1051 1.349 . S
C1036 C1034 1.327 . S
C1036 C1055 1.429 . S
C1036 H1060 0.950 . S
C1037 C1054 1.574 . S
C1037 C1056 1.368 . S
C1037 H1061 0.949 . S
H1038 C1042 0.949 . S
C1039 C1040 1.349 . S
C1039 C1041 1.327 . S
C1039 H1062 0.950 . S
C1040 C1039 1.349 . S
C1040 C1052 1.349 . S
C1041 C1039 1.327 . S
C1041 C1057 1.429 . S
C1041 H1063 0.950 . S
C1042 H1038 0.949 . S
C1042 C1050 1.574 . S
C1042 C1058 1.368 . S
H1043 C1051 0.950 . S
H1044 C1049 0.950 . S
H1045 C1050 0.949 . S
H1046 C1052 0.950 . S
H1047 C1053 0.950 . S
H1048 C1054 0.949 . S
C1049 H1044 0.950 . S
C1049 C1051 1.327 . S
C1049 C1055 1.429 . S
C1050 C1042 1.574 . S
C1050 H1045 0.949 . S
C1050 C1056 1.368 . S
C1051 C1035 1.349 . S
C1051 H1043 0.950 . S
C1051 C1049 1.327 . S
C1052 C1040 1.349 . S
C1052 H1046 0.950 . S
C1052 C1053 1.327 . S
C1053 H1047 0.950 . S
C1053 C1052 1.327 . S
C1053 C1057 1.429 . S
C1054 C1037 1.574 . S
C1054 H1048 0.949 . S
C1054 C1058 1.368 . S
C1055 C1036 1.429 . S
C1055 C1049 1.429 . S
C1055 C1056 1.523 . S
C1056 C1037 1.368 . S
C1056 C1050 1.368 . S
C1056 C1055 1.523 . S
C1057 C1041 1.429 . S
C1057 C1053 1.429 . S
C1057 C1058 1.523 . S
C1058 C1042 1.368 . S
C1058 C1054 1.368 . S
C1058 C1057 1.523 . S
H1059 C1034 0.950 . S
H1060 C1036 0.950 . S
H1061 C1037 0.949 . S
H1062 C1039 0.950 . S
H1063 C1041 0.950 . S
C1064 C1065 1.349 . S
C1064 C1066 1.327 . S
C1064 H1089 0.950 . S
C1065 C1064 1.349 . S
C1065 C1081 1.349 . S
C1066 C1064 1.327 . S
C1066 C1085 1.429 . S
C1066 H1090 0.950 . S
C1067 C1084 1.574 . S
C1067 C1086 1.368 . S
C1067 H1091 0.949 . S
H1068 C1072 0.949 . S
C1069 C1070 1.349 . S
C1069 C1071 1.327 . S
C1069 H1092 0.950 . S
C1070 C1069 1.349 . S
C1070 C1082 1.349 . S
C1071 C1069 1.327 . S
C1071 C1087 1.429 . S
C1071 H1093 0.950 . S
C1072 H1068 0.949 . S
C1072 C1080 1.574 . S
C1072 C1088 1.368 . S
H1073 C1081 0.950 . S
H1074 C1079 0.950 . S
H1075 C1080 0.949 . S
H1076 C1082 0.950 . S
H1077 C1083 0.950 . S
H1078 C1084 0.949 . S
C1079 H1074 0.950 . S
C1079 C1081 1.327 . S
C1079 C1085 1.429 . S
C1080 C1072 1.574 . S
C1080 H1075 0.949 . S
C1080 C1086 1.368 . S
C1081 C1065 1.349 . S
C1081 H1073 0.950 . S
C1081 C1079 1.327 . S
C1082 C1070 1.349 . S
C1082 H1076 0.950 . S
C1082 C1083 1.327 . S
C1083 H1077 0.950 . S
C1083 C1082 1.327 . S
C1083 C1087 1.429 . S
C1084 C1067 1.574 . S
C1084 H1078 0.949 . S
C1084 C1088 1.368 . S
C1085 C1066 1.429 . S
C1085 C1079 1.429 . S
C1085 C1086 1.523 . S
C1086 C1067 1.368 . S
C1086 C1080 1.368 . S
C1086 C1085 1.523 . S
C1087 C1071 1.429 . S
C1087 C1083 1.429 . S
C1087 C1088 1.523 . S
C1088 C1072 1.368 . S
C1088 C1084 1.368 . S
C1088 C1087 1.523 . S
H1089 C1064 0.950 . S
H1090 C1066 0.950 . S
H1091 C1067 0.949 . S
H1092 C1069 0.950 . S
H1093 C1071 0.950 . S
C1094 C1095 1.349 . S
C1094 C1096 1.327 . S
C1094 H1119 0.950 . S
C1095 C1094 1.349 . S
C1095 C1111 1.349 . S
C1096 C1094 1.327 . S
C1096 C1115 1.429 . S
C1096 H1120 0.950 . S
C1097 C1114 1.574 . S
C1097 C1116 1.368 . S
C1097 H1121 0.949 . S
H1098 C1102 0.949 . S
C1099 C1100 1.349 . S
C1099 C1101 1.327 . S
C1099 H1122 0.950 . S
C1100 C1099 1.349 . S
C1100 C1112 1.349 . S
C1101 C1099 1.327 . S
C1101 C1117 1.429 . S
C1101 H1123 0.950 . S
C1102 H1098 0.949 . S
C1102 C1110 1.574 . S
C1102 C1118 1.368 . S
H1103 C1111 0.950 . S
H1104 C1109 0.950 . S
H1105 C1110 0.949 . S
H1106 C1112 0.950 . S
H1107 C1113 0.950 . S
H1108 C1114 0.949 . S
C1109 H1104 0.950 . S
C1109 C1111 1.327 . S
C1109 C1115 1.429 . S
C1110 C1102 1.574 . S
C1110 H1105 0.949 . S
C1110 C1116 1.368 . S
C1111 C1095 1.349 . S
C1111 H1103 0.950 . S
C1111 C1109 1.327 . S
C1112 C1100 1.349 . S
C1112 H1106 0.950 . S
C1112 C1113 1.327 . S
C1113 H1107 0.950 . S
C1113 C1112 1.327 . S
C1113 C1117 1.429 . S
C1114 C1097 1.574 . S
C1114 H1108 0.949 . S
C1114 C1118 1.368 . S
C1115 C1096 1.429 . S
C1115 C1109 1.429 . S
C1115 C1116 1.523 . S
C1116 C1097 1.368 . S
C1116 C1110 1.368 . S
C1116 C1115 1.523 . S
C1117 C1101 1.429 . S
C1117 C1113 1.429 . S
C1117 C1118 1.523 . S
C1118 C1102 1.368 . S
C1118 C1114 1.368 . S
C1118 C1117 1.523 . S
H1119 C1094 0.950 . S
H1120 C1096 0.950 . S
H1121 C1097 0.949 . S
H1122 C1099 0.950 . S
H1123 C1101 0.950 . S
C1124 C1125 1.349 . S
C1124 C1126 1.327 . S
C1124 H1149 0.950 . S
C1125 C1124 1.349 . S
C1125 C1141 1.349 . S
C1126 C1124 1.327 . S
C1126 C1145 1.429 . S
C1126 H1150 0.950 . S
C1127 C1144 1.574 . S
C1127 C1146 1.368 . S
C1127 H1151 0.949 . S
H1128 C1132 0.949 . S
C1129 C1130 1.349 . S
C1129 C1131 1.327 . S
C1129 H1152 0.950 . S
C1130 C1129 1.349 . S
C1130 C1142 1.349 . S
C1131 C1129 1.327 . S
C1131 C1147 1.429 . S
C1131 H1153 0.950 . S
C1132 H1128 0.949 . S
C1132 C1140 1.574 . S
C1132 C1148 1.368 . S
H1133 C1141 0.950 . S
H1134 C1139 0.950 . S
H1135 C1140 0.949 . S
H1136 C1142 0.950 . S
H1137 C1143 0.950 . S
H1138 C1144 0.949 . S
C1139 H1134 0.950 . S
C1139 C1141 1.327 . S
C1139 C1145 1.429 . S
C1140 C1132 1.574 . S
C1140 H1135 0.949 . S
C1140 C1146 1.368 . S
C1141 C1125 1.349 . S
C1141 H1133 0.950 . S
C1141 C1139 1.327 . S
C1142 C1130 1.349 . S
C1142 H1136 0.950 . S
C1142 C1143 1.327 . S
C1143 H1137 0.950 . S
C1143 C1142 1.327 . S
C1143 C1147 1.429 . S
C1144 C1127 1.574 . S
C1144 H1138 0.949 . S
C1144 C1148 1.368 . S
C1145 C1126 1.429 . S
C1145 C1139 1.429 . S
C1145 C1146 1.523 . S
C1146 C1127 1.368 . S
C1146 C1140 1.368 . S
C1146 C1145 1.523 . S
C1147 C1131 1.429 . S
C1147 C1143 1.429 . S
C1147 C1148 1.523 . S
C1148 C1132 1.368 . S
C1148 C1144 1.368 . S
C1148 C1147 1.523 . S
H1149 C1124 0.950 . S
H1150 C1126 0.950 . S
H1151 C1127 0.949 . S
H1152 C1129 0.950 . S
H1153 C1131 0.950 . S
C1154 C1155 1.349 . S
C1154 C1156 1.327 . S
C1154 H1179 0.950 . S
C1155 C1154 1.349 . S
C1155 C1171 1.349 . S
C1156 C1154 1.327 . S
C1156 C1175 1.429 . S
C1156 H1180 0.950 . S
C1157 C1174 1.574 . S
C1157 C1176 1.368 . S
C1157 H1181 0.949 . S
H1158 C1162 0.949 . S
C1159 C1160 1.349 . S
C1159 C1161 1.327 . S
C1159 H1182 0.950 . S
C1160 C1159 1.349 . S
C1160 C1172 1.349 . S
C1161 C1159 1.327 . S
C1161 C1177 1.429 . S
C1161 H1183 0.950 . S
C1162 H1158 0.949 . S
C1162 C1170 1.574 . S
C1162 C1178 1.368 . S
H1163 C1171 0.950 . S
H1164 C1169 0.950 . S
H1165 C1170 0.949 . S
H1166 C1172 0.950 . S
H1167 C1173 0.950 . S
H1168 C1174 0.949 . S
C1169 H1164 0.950 . S
C1169 C1171 1.327 . S
C1169 C1175 1.429 . S
C1170 C1162 1.574 . S
C1170 H1165 0.949 . S
C1170 C1176 1.368 . S
C1171 C1155 1.349 . S
C1171 H1163 0.950 . S
C1171 C1169 1.327 . S
C1172 C1160 1.349 . S
C1172 H1166 0.950 . S
C1172 C1173 1.327 . S
C1173 H1167 0.950 . S
C1173 C1172 1.327 . S
C1173 C1177 1.429 . S
C1174 C1157 1.574 . S
C1174 H1168 0.949 . S
C1174 C1178 1.368 . S
C1175 C1156 1.429 . S
C1175 C1169 1.429 . S
C1175 C1176 1.523 . S
C1176 C1157 1.368 . S
C1176 C1170 1.368 . S
C1176 C1175 1.523 . S
C1177 C1161 1.429 . S
C1177 C1173 1.429 . S
C1177 C1178 1.523 . S
C1178 C1162 1.368 . S
C1178 C1174 1.368 . S
C1178 C1177 1.523 . S
H1179 C1154 0.950 . S
H1180 C1156 0.950 . S
H1181 C1157 0.949 . S
H1182 C1159 0.950 . S
H1183 C1161 0.950 . S
C1184 C1185 1.349 1_556 S
C1184 C1186 1.327 . S
C1184 H1209 0.950 . S
C1185 C1184 1.349 1_554 S
C1185 C1201 1.349 . S
C1186 C1184 1.327 . S
C1186 C1205 1.429 1_556 S
C1186 H1210 0.950 . S
C1187 C1204 1.574 1_565 S
C1187 C1206 1.368 . S
C1187 H1211 0.949 . S
H1188 C1192 0.949 . S
C1189 C1190 1.349 1_554 S
C1189 C1191 1.327 . S
C1189 H1212 0.950 . S
C1190 C1189 1.349 1_556 S
C1190 C1202 1.349 . S
C1191 C1189 1.327 . S
C1191 C1207 1.429 1_554 S
C1191 H1213 0.950 . S
C1192 H1188 0.949 . S
C1192 C1200 1.574 1_545 S
C1192 C1208 1.368 . S
H1193 C1201 0.950 . S
H1194 C1199 0.950 . S
H1195 C1200 0.949 . S
H1196 C1202 0.950 . S
H1197 C1203 0.950 . S
H1198 C1204 0.949 . S
C1199 H1194 0.950 . S
C1199 C1201 1.327 . S
C1199 C1205 1.429 . S
C1200 C1192 1.574 1_565 S
C1200 H1195 0.949 . S
C1200 C1206 1.368 1_556 S
C1201 C1185 1.349 . S
C1201 H1193 0.950 . S
C1201 C1199 1.327 . S
C1202 C1190 1.349 . S
C1202 H1196 0.950 . S
C1202 C1203 1.327 . S
C1203 H1197 0.950 . S
C1203 C1202 1.327 . S
C1203 C1207 1.429 . S
C1204 C1187 1.574 1_545 S
C1204 H1198 0.949 . S
C1204 C1208 1.368 1_554 S
C1205 C1186 1.429 1_554 S
C1205 C1199 1.429 . S
C1205 C1206 1.523 . S
C1206 C1187 1.368 . S
C1206 C1200 1.368 1_554 S
C1206 C1205 1.523 . S
C1207 C1191 1.429 1_556 S
C1207 C1203 1.429 . S
C1207 C1208 1.523 . S
C1208 C1192 1.368 . S
C1208 C1204 1.368 1_556 S
C1208 C1207 1.523 . S
H1209 C1184 0.950 . S
H1210 C1186 0.950 . S
H1211 C1187 0.949 . S
H1212 C1189 0.950 . S
H1213 C1191 0.950 . S
C1214 C1215 1.349 . S
C1214 C1216 1.327 . S
C1214 H1239 0.950 . S
C1215 C1214 1.349 . S
C1215 C1231 1.349 . S
C1216 C1214 1.327 . S
C1216 C1235 1.429 . S
C1216 H1240 0.950 . S
C1217 C1234 1.574 1_565 S
C1217 C1236 1.368 . S
C1217 H1241 0.949 . S
H1218 C1222 0.949 . S
C1219 C1220 1.349 . S
C1219 C1221 1.327 . S
C1219 H1242 0.950 . S
C1220 C1219 1.349 . S
C1220 C1232 1.349 . S
C1221 C1219 1.327 . S
C1221 C1237 1.429 . S
C1221 H1243 0.950 . S
C1222 H1218 0.949 . S
C1222 C1230 1.574 1_545 S
C1222 C1238 1.368 . S
H1223 C1231 0.950 . S
H1224 C1229 0.950 . S
H1225 C1230 0.949 . S
H1226 C1232 0.950 . S
H1227 C1233 0.950 . S
H1228 C1234 0.949 . S
C1229 H1224 0.950 . S
C1229 C1231 1.327 . S
C1229 C1235 1.429 . S
C1230 C1222 1.574 1_565 S
C1230 H1225 0.949 . S
C1230 C1236 1.368 . S
C1231 C1215 1.349 . S
C1231 H1223 0.950 . S
C1231 C1229 1.327 . S
C1232 C1220 1.349 . S
C1232 H1226 0.950 . S
C1232 C1233 1.327 . S
C1233 H1227 0.950 . S
C1233 C1232 1.327 . S
C1233 C1237 1.429 . S
C1234 C1217 1.574 1_545 S
C1234 H1228 0.949 . S
C1234 C1238 1.368 . S
C1235 C1216 1.429 . S
C1235 C1229 1.429 . S
C1235 C1236 1.523 . S
C1236 C1217 1.368 . S
C1236 C1230 1.368 . S
C1236 C1235 1.523 . S
C1237 C1221 1.429 . S
C1237 C1233 1.429 . S
C1237 C1238 1.523 . S
C1238 C1222 1.368 . S
C1238 C1234 1.368 . S
C1238 C1237 1.523 . S
H1239 C1214 0.950 . S
H1240 C1216 0.950 . S
H1241 C1217 0.949 . S
H1242 C1219 0.950 . S
H1243 C1221 0.950 . S
C1244 C1245 1.349 1_556 S
C1244 C1246 1.327 . S
C1244 H1269 0.950 . S
C1245 C1244 1.349 1_554 S
C1245 C1261 1.349 . S
C1246 C1244 1.327 . S
C1246 C1265 1.429 1_556 S
C1246 H1270 0.950 . S
C1247 C1264 1.574 1_565 S
C1247 C1266 1.368 . S
C1247 H1271 0.949 . S
H1248 C1252 0.949 . S
C1249 C1250 1.349 1_554 S
C1249 C1251 1.327 . S
C1249 H1272 0.950 . S
C1250 C1249 1.349 1_556 S
C1250 C1262 1.349 . S
C1251 C1249 1.327 . S
C1251 C1267 1.429 1_554 S
C1251 H1273 0.950 . S
C1252 H1248 0.949 . S
C1252 C1260 1.574 1_545 S
C1252 C1268 1.368 . S
H1253 C1261 0.950 . S
H1254 C1259 0.950 . S
H1255 C1260 0.949 . S
H1256 C1262 0.950 . S
H1257 C1263 0.950 . S
H1258 C1264 0.949 . S
C1259 H1254 0.950 . S
C1259 C1261 1.327 . S
C1259 C1265 1.429 . S
C1260 C1252 1.574 1_565 S
C1260 H1255 0.949 . S
C1260 C1266 1.368 1_556 S
C1261 C1245 1.349 . S
C1261 H1253 0.950 . S
C1261 C1259 1.327 . S
C1262 C1250 1.349 . S
C1262 H1256 0.950 . S
C1262 C1263 1.327 . S
C1263 H1257 0.950 . S
C1263 C1262 1.327 . S
C1263 C1267 1.429 . S
C1264 C1247 1.574 1_545 S
C1264 H1258 0.949 . S
C1264 C1268 1.368 1_554 S
C1265 C1246 1.429 1_554 S
C1265 C1259 1.429 . S
C1265 C1266 1.523 . S
C1266 C1247 1.368 . S
C1266 C1260 1.368 1_554 S
C1266 C1265 1.523 . S
C1267 C1251 1.429 1_556 S
C1267 C1263 1.429 . S
C1267 C1268 1.523 . S
C1268 C1252 1.368 . S
C1268 C1264 1.368 1_556 S
C1268 C1267 1.523 . S
H1269 C1244 0.950 . S
H1270 C1246 0.950 . S
H1271 C1247 0.949 . S
H1272 C1249 0.950 . S
H1273 C1251 0.950 . S
C1274 C1275 1.349 . S
C1274 C1276 1.327 . S
C1274 H1299 0.950 . S
C1275 C1274 1.349 . S
C1275 C1291 1.349 . S
C1276 C1274 1.327 . S
C1276 C1295 1.429 . S
C1276 H1300 0.950 . S
C1277 C1294 1.574 1_565 S
C1277 C1296 1.368 . S
C1277 H1301 0.949 . S
H1278 C1282 0.949 . S
C1279 C1280 1.349 . S
C1279 C1281 1.327 . S
C1279 H1302 0.950 . S
C1280 C1279 1.349 . S
C1280 C1292 1.349 . S
C1281 C1279 1.327 . S
C1281 C1297 1.429 . S
C1281 H1303 0.950 . S
C1282 H1278 0.949 . S
C1282 C1290 1.574 1_545 S
C1282 C1298 1.368 . S
H1283 C1291 0.950 . S
H1284 C1289 0.950 . S
H1285 C1290 0.949 . S
H1286 C1292 0.950 . S
H1287 C1293 0.950 . S
H1288 C1294 0.949 . S
C1289 H1284 0.950 . S
C1289 C1291 1.327 . S
C1289 C1295 1.429 . S
C1290 C1282 1.574 1_565 S
C1290 H1285 0.949 . S
C1290 C1296 1.368 . S
C1291 C1275 1.349 . S
C1291 H1283 0.950 . S
C1291 C1289 1.327 . S
C1292 C1280 1.349 . S
C1292 H1286 0.950 . S
C1292 C1293 1.327 . S
C1293 H1287 0.950 . S
C1293 C1292 1.327 . S
C1293 C1297 1.429 . S
C1294 C1277 1.574 1_545 S
C1294 H1288 0.949 . S
C1294 C1298 1.368 . S
C1295 C1276 1.429 . S
C1295 C1289 1.429 . S
C1295 C1296 1.523 . S
C1296 C1277 1.368 . S
C1296 C1290 1.368 . S
C1296 C1295 1.523 . S
C1297 C1281 1.429 . S
C1297 C1293 1.429 . S
C1297 C1298 1.523 . S
C1298 C1282 1.368 . S
C1298 C1294 1.368 . S
C1298 C1297 1.523 . S
H1299 C1274 0.950 . S
H1300 C1276 0.950 . S
H1301 C1277 0.949 . S
H1302 C1279 0.950 . S
H1303 C1281 0.950 . S
C1304 C1305 1.349 1_556 S
C1304 C1306 1.327 . S
C1304 H1329 0.950 . S
C1305 C1304 1.349 1_554 S
C1305 C1321 1.349 . S
C1306 C1304 1.327 . S
C1306 C1325 1.429 1_556 S
C1306 H1330 0.950 . S
C1307 C1324 1.574 . S
C1307 C1326 1.368 . S
C1307 H1331 0.949 . S
H1308 C1312 0.949 . S
C1309 C1310 1.349 1_554 S
C1309 C1311 1.327 . S
C1309 H1332 0.950 . S
C1310 C1309 1.349 1_556 S
C1310 C1322 1.349 . S
C1311 C1309 1.327 . S
C1311 C1327 1.429 1_554 S
C1311 H1333 0.950 . S
C1312 H1308 0.949 . S
C1312 C1320 1.574 . S
C1312 C1328 1.368 . S
H1313 C1321 0.950 . S
H1314 C1319 0.950 . S
H1315 C1320 0.949 . S
H1316 C1322 0.950 . S
H1317 C1323 0.950 . S
H1318 C1324 0.949 . S
C1319 H1314 0.950 . S
C1319 C1321 1.327 . S
C1319 C1325 1.429 . S
C1320 C1312 1.574 . S
C1320 H1315 0.949 . S
C1320 C1326 1.368 1_556 S
C1321 C1305 1.349 . S
C1321 H1313 0.950 . S
C1321 C1319 1.327 . S
C1322 C1310 1.349 . S
C1322 H1316 0.950 . S
C1322 C1323 1.327 . S
C1323 H1317 0.950 . S
C1323 C1322 1.327 . S
C1323 C1327 1.429 . S
C1324 C1307 1.574 . S
C1324 H1318 0.949 . S
C1324 C1328 1.368 1_554 S
C1325 C1306 1.429 1_554 S
C1325 C1319 1.429 . S
C1325 C1326 1.523 . S
C1326 C1307 1.368 . S
C1326 C1320 1.368 1_554 S
C1326 C1325 1.523 . S
C1327 C1311 1.429 1_556 S
C1327 C1323 1.429 . S
C1327 C1328 1.523 . S
C1328 C1312 1.368 . S
C1328 C1324 1.368 1_556 S
C1328 C1327 1.523 . S
H1329 C1304 0.950 . S
H1330 C1306 0.950 . S
H1331 C1307 0.949 . S
H1332 C1309 0.950 . S
H1333 C1311 0.950 . S
C1334 C1335 1.349 . S
C1334 C1336 1.327 . S
C1334 H1359 0.950 . S
C1335 C1334 1.349 . S
C1335 C1351 1.349 . S
C1336 C1334 1.327 . S
C1336 C1355 1.429 . S
C1336 H1360 0.950 . S
C1337 C1354 1.574 . S
C1337 C1356 1.368 . S
C1337 H1361 0.949 . S
H1338 C1342 0.949 . S
C1339 C1340 1.349 . S
C1339 C1341 1.327 . S
C1339 H1362 0.950 . S
C1340 C1339 1.349 . S
C1340 C1352 1.349 . S
C1341 C1339 1.327 . S
C1341 C1357 1.429 . S
C1341 H1363 0.950 . S
C1342 H1338 0.949 . S
C1342 C1350 1.574 . S
C1342 C1358 1.368 . S
H1343 C1351 0.950 . S
H1344 C1349 0.950 . S
H1345 C1350 0.949 . S
H1346 C1352 0.950 . S
H1347 C1353 0.950 . S
H1348 C1354 0.949 . S
C1349 H1344 0.950 . S
C1349 C1351 1.327 . S
C1349 C1355 1.429 . S
C1350 C1342 1.574 . S
C1350 H1345 0.949 . S
C1350 C1356 1.368 . S
C1351 C1335 1.349 . S
C1351 H1343 0.950 . S
C1351 C1349 1.327 . S
C1352 C1340 1.349 . S
C1352 H1346 0.950 . S
C1352 C1353 1.327 . S
C1353 H1347 0.950 . S
C1353 C1352 1.327 . S
C1353 C1357 1.429 . S
C1354 C1337 1.574 . S
C1354 H1348 0.949 . S
C1354 C1358 1.368 . S
C1355 C1336 1.429 . S
C1355 C1349 1.429 . S
C1355 C1356 1.523 . S
C1356 C1337 1.368 . S
C1356 C1350 1.368 . S
C1356 C1355 1.523 . S
C1357 C1341 1.429 . S
C1357 C1353 1.429 . S
C1357 C1358 1.523 . S
C1358 C1342 1.368 . S
C1358 C1354 1.368 . S
C1358 C1357 1.523 . S
H1359 C1334 0.950 . S
H1360 C1336 0.950 . S
H1361 C1337 0.949 . S
H1362 C1339 0.950 . S
H1363 C1341 0.950 . S
C1364 C1365 1.349 . S
C1364 C1366 1.327 . S
C1364 H1389 0.950 . S
C1365 C1364 1.349 . S
C1365 C1381 1.349 1_556 S
C1366 C1364 1.327 . S
C1366 C1385 1.429 . S
C1366 H1390 0.950 . S
C1367 C1384 1.574 . S
C1367 C1386 1.368 1_554 S
C1367 H1391 0.949 . S
H1368 C1372 0.949 . S
C1369 C1370 1.349 . S
C1369 C1371 1.327 . S
C1369 H1392 0.950 . S
C1370 C1369 1.349 . S
C1370 C1382 1.349 1_554 S
C1371 C1369 1.327 . S
C1371 C1387 1.429 . S
C1371 H1393 0.950 . S
C1372 H1368 0.949 . S
C1372 C1380 1.574 . S
C1372 C1388 1.368 1_556 S
H1373 C1381 0.950 . S
H1374 C1379 0.950 . S
H1375 C1380 0.949 . S
H1376 C1382 0.950 . S
H1377 C1383 0.950 . S
H1378 C1384 0.949 . S
C1379 H1374 0.950 . S
C1379 C1381 1.327 . S
C1379 C1385 1.429 1_554 S
C1380 C1372 1.574 . S
C1380 H1375 0.949 . S
C1380 C1386 1.368 . S
C1381 C1365 1.349 1_554 S
C1381 H1373 0.950 . S
C1381 C1379 1.327 . S
C1382 C1370 1.349 1_556 S
C1382 H1376 0.950 . S
C1382 C1383 1.327 . S
C1383 H1377 0.950 . S
C1383 C1382 1.327 . S
C1383 C1387 1.429 1_556 S
C1384 C1367 1.574 . S
C1384 H1378 0.949 . S
C1384 C1388 1.368 . S
C1385 C1366 1.429 . S
C1385 C1379 1.429 1_556 S
C1385 C1386 1.523 . S
C1386 C1367 1.368 1_556 S
C1386 C1380 1.368 . S
C1386 C1385 1.523 . S
C1387 C1371 1.429 . S
C1387 C1383 1.429 1_554 S
C1387 C1388 1.523 . S
C1388 C1372 1.368 1_554 S
C1388 C1384 1.368 . S
C1388 C1387 1.523 . S
H1389 C1364 0.950 . S
H1390 C1366 0.950 . S
H1391 C1367 0.949 . S
H1392 C1369 0.950 . S
H1393 C1371 0.950 . S
C1394 C1395 1.349 . S
C1394 C1396 1.327 . S
C1394 H1419 0.950 . S
C1395 C1394 1.349 . S
C1395 C1411 1.349 . S
C1396 C1394 1.327 . S
C1396 C1415 1.429 . S
C1396 H1420 0.950 . S
C1397 C1414 1.574 . S
C1397 C1416 1.368 . S
C1397 H1421 0.949 . S
H1398 C1402 0.949 . S
C1399 C1400 1.349 . S
C1399 C1401 1.327 . S
C1399 H1422 0.950 . S
C1400 C1399 1.349 . S
C1400 C1412 1.349 . S
C1401 C1399 1.327 . S
C1401 C1417 1.429 . S
C1401 H1423 0.950 . S
C1402 H1398 0.949 . S
C1402 C1410 1.574 . S
C1402 C1418 1.368 . S
H1403 C1411 0.950 . S
H1404 C1409 0.950 . S
H1405 C1410 0.949 . S
H1406 C1412 0.950 . S
H1407 C1413 0.950 . S
H1408 C1414 0.949 . S
C1409 H1404 0.950 . S
C1409 C1411 1.327 . S
C1409 C1415 1.429 . S
C1410 C1402 1.574 . S
C1410 H1405 0.949 . S
C1410 C1416 1.368 . S
C1411 C1395 1.349 . S
C1411 H1403 0.950 . S
C1411 C1409 1.327 . S
C1412 C1400 1.349 . S
C1412 H1406 0.950 . S
C1412 C1413 1.327 . S
C1413 H1407 0.950 . S
C1413 C1412 1.327 . S
C1413 C1417 1.429 . S
C1414 C1397 1.574 . S
C1414 H1408 0.949 . S
C1414 C1418 1.368 . S
C1415 C1396 1.429 . S
C1415 C1409 1.429 . S
C1415 C1416 1.523 . S
C1416 C1397 1.368 . S
C1416 C1410 1.368 . S
C1416 C1415 1.523 . S
C1417 C1401 1.429 . S
C1417 C1413 1.429 . S
C1417 C1418 1.523 . S
C1418 C1402 1.368 . S
C1418 C1414 1.368 . S
C1418 C1417 1.523 . S
H1419 C1394 0.950 . S
H1420 C1396 0.950 . S
H1421 C1397 0.949 . S
H1422 C1399 0.950 . S
H1423 C1401 0.950 . S
C1424 C1425 1.349 . S
C1424 C1426 1.327 . S
C1424 H1449 0.950 . S
C1425 C1424 1.349 . S
C1425 C1441 1.349 . S
C1426 C1424 1.327 . S
C1426 C1445 1.429 . S
C1426 H1450 0.950 . S
C1427 C1444 1.574 . S
C1427 C1446 1.368 . S
C1427 H1451 0.949 . S
H1428 C1432 0.949 . S
C1429 C1430 1.349 . S
C1429 C1431 1.327 . S
C1429 H1452 0.950 . S
C1430 C1429 1.349 . S
C1430 C1442 1.349 . S
C1431 C1429 1.327 . S
C1431 C1447 1.429 . S
C1431 H1453 0.950 . S
C1432 H1428 0.949 . S
C1432 C1440 1.574 . S
C1432 C1448 1.368 . S
H1433 C1441 0.950 . S
H1434 C1439 0.950 . S
H1435 C1440 0.949 . S
H1436 C1442 0.950 . S
H1437 C1443 0.950 . S
H1438 C1444 0.949 . S
C1439 H1434 0.950 . S
C1439 C1441 1.327 . S
C1439 C1445 1.429 . S
C1440 C1432 1.574 . S
C1440 H1435 0.949 . S
C1440 C1446 1.368 . S
C1441 C1425 1.349 . S
C1441 H1433 0.950 . S
C1441 C1439 1.327 . S
C1442 C1430 1.349 . S
C1442 H1436 0.950 . S
C1442 C1443 1.327 . S
C1443 H1437 0.950 . S
C1443 C1442 1.327 . S
C1443 C1447 1.429 . S
C1444 C1427 1.574 . S
C1444 H1438 0.949 . S
C1444 C1448 1.368 . S
C1445 C1426 1.429 . S
C1445 C1439 1.429 . S
C1445 C1446 1.523 . S
C1446 C1427 1.368 . S
C1446 C1440 1.368 . S
C1446 C1445 1.523 . S
C1447 C1431 1.429 . S
C1447 C1443 1.429 . S
C1447 C1448 1.523 . S
C1448 C1432 1.368 . S
C1448 C1444 1.368 . S
C1448 C1447 1.523 . S
H1449 C1424 0.950 . S
H1450 C1426 0.950 . S
H1451 C1427 0.949 . S
H1452 C1429 0.950 . S
H1453 C1431 0.950 . S
C1454 C1455 1.349 . S
C1454 C1456 1.327 . S
C1454 H1479 0.950 . S
C1455 C1454 1.349 . S
C1455 C1471 1.349 . S
C1456 C1454 1.327 . S
C1456 C1475 1.429 . S
C1456 H1480 0.950 . S
C1457 C1474 1.574 . S
C1457 C1476 1.368 . S
C1457 H1481 0.949 . S
H1458 C1462 0.949 . S
C1459 C1460 1.349 . S
C1459 C1461 1.327 . S
C1459 H1482 0.950 . S
C1460 C1459 1.349 . S
C1460 C1472 1.349 . S
C1461 C1459 1.327 . S
C1461 C1477 1.429 . S
C1461 H1483 0.950 . S
C1462 H1458 0.949 . S
C1462 C1470 1.574 . S
C1462 C1478 1.368 . S
H1463 C1471 0.950 . S
H1464 C1469 0.950 . S
H1465 C1470 0.949 . S
H1466 C1472 0.950 . S
H1467 C1473 0.950 . S
H1468 C1474 0.949 . S
C1469 H1464 0.950 . S
C1469 C1471 1.327 . S
C1469 C1475 1.429 . S
C1470 C1462 1.574 . S
C1470 H1465 0.949 . S
C1470 C1476 1.368 . S
C1471 C1455 1.349 . S
C1471 H1463 0.950 . S
C1471 C1469 1.327 . S
C1472 C1460 1.349 . S
C1472 H1466 0.950 . S
C1472 C1473 1.327 . S
C1473 H1467 0.950 . S
C1473 C1472 1.327 . S
C1473 C1477 1.429 . S
C1474 C1457 1.574 . S
C1474 H1468 0.949 . S
C1474 C1478 1.368 . S
C1475 C1456 1.429 . S
C1475 C1469 1.429 . S
C1475 C1476 1.523 . S
C1476 C1457 1.368 . S
C1476 C1470 1.368 . S
C1476 C1475 1.523 . S
C1477 C1461 1.429 . S
C1477 C1473 1.429 . S
C1477 C1478 1.523 . S
C1478 C1462 1.368 . S
C1478 C1474 1.368 . S
C1478 C1477 1.523 . S
H1479 C1454 0.950 . S
H1480 C1456 0.950 . S
H1481 C1457 0.949 . S
H1482 C1459 0.950 . S
H1483 C1461 0.950 . S
C1484 C1485 1.349 . S
C1484 C1486 1.327 . S
C1484 H1509 0.950 . S
C1485 C1484 1.349 . S
C1485 C1501 1.349 . S
C1486 C1484 1.327 . S
C1486 C1505 1.429 . S
C1486 H1510 0.950 . S
C1487 C1504 1.574 . S
C1487 C1506 1.368 . S
C1487 H1511 0.949 . S
H1488 C1492 0.949 . S
C1489 C1490 1.349 . S
C1489 C1491 1.327 . S
C1489 H1512 0.950 . S
C1490 C1489 1.349 . S
C1490 C1502 1.349 . S
C1491 C1489 1.327 . S
C1491 C1507 1.429 . S
C1491 H1513 0.950 . S
C1492 H1488 0.949 . S
C1492 C1500 1.574 . S
C1492 C1508 1.368 . S
H1493 C1501 0.950 . S
H1494 C1499 0.950 . S
H1495 C1500 0.949 . S
H1496 C1502 0.950 . S
H1497 C1503 0.950 . S
H1498 C1504 0.949 . S
C1499 H1494 0.950 . S
C1499 C1501 1.327 . S
C1499 C1505 1.429 . S
C1500 C1492 1.574 . S
C1500 H1495 0.949 . S
C1500 C1506 1.368 . S
C1501 C1485 1.349 . S
C1501 H1493 0.950 . S
C1501 C1499 1.327 . S
C1502 C1490 1.349 . S
C1502 H1496 0.950 . S
C1502 C1503 1.327 . S
C1503 H1497 0.950 . S
C1503 C1502 1.327 . S
C1503 C1507 1.429 . S
C1504 C1487 1.574 . S
C1504 H1498 0.949 . S
C1504 C1508 1.368 . S
C1505 C1486 1.429 . S
C1505 C1499 1.429 . S
C1505 C1506 1.523 . S
C1506 C1487 1.368 . S
C1506 C1500 1.368 . S
C1506 C1505 1.523 . S
C1507 C1491 1.429 . S
C1507 C1503 1.429 . S
C1507 C1508 1.523 . S
C1508 C1492 1.368 . S
C1508 C1504 1.368 . S
C1508 C1507 1.523 . S
H1509 C1484 0.950 . S
H1510 C1486 0.950 . S
H1511 C1487 0.949 . S
H1512 C1489 0.950 . S
H1513 C1491 0.950 . S
C1514 C1515 1.349 . S
C1514 C1516 1.327 . S
C1514 H1539 0.950 . S
C1515 C1514 1.349 . S
C1515 C1531 1.349 . S
C1516 C1514 1.327 . S
C1516 C1535 1.429 . S
C1516 H1540 0.950 . S
C1517 C1534 1.574 . S
C1517 C1536 1.368 . S
C1517 H1541 0.949 . S
H1518 C1522 0.949 . S
C1519 C1520 1.349 . S
C1519 C1521 1.327 . S
C1519 H1542 0.950 . S
C1520 C1519 1.349 . S
C1520 C1532 1.349 . S
C1521 C1519 1.327 . S
C1521 C1537 1.429 . S
C1521 H1543 0.950 . S
C1522 H1518 0.949 . S
C1522 C1530 1.574 . S
C1522 C1538 1.368 . S
H1523 C1531 0.950 . S
H1524 C1529 0.950 . S
H1525 C1530 0.949 . S
H1526 C1532 0.950 . S
H1527 C1533 0.950 . S
H1528 C1534 0.949 . S
C1529 H1524 0.950 . S
C1529 C1531 1.327 . S
C1529 C1535 1.429 . S
C1530 C1522 1.574 . S
C1530 H1525 0.949 . S
C1530 C1536 1.368 . S
C1531 C1515 1.349 . S
C1531 H1523 0.950 . S
C1531 C1529 1.327 . S
C1532 C1520 1.349 . S
C1532 H1526 0.950 . S
C1532 C1533 1.327 . S
C1533 H1527 0.950 . S
C1533 C1532 1.327 . S
C1533 C1537 1.429 . S
C1534 C1517 1.574 . S
C1534 H1528 0.949 . S
C1534 C1538 1.368 . S
C1535 C1516 1.429 . S
C1535 C1529 1.429 . S
C1535 C1536 1.523 . S
C1536 C1517 1.368 . S
C1536 C1530 1.368 . S
C1536 C1535 1.523 . S
C1537 C1521 1.429 . S
C1537 C1533 1.429 . S
C1537 C1538 1.523 . S
C1538 C1522 1.368 . S
C1538 C1534 1.368 . S
C1538 C1537 1.523 . S
H1539 C1514 0.950 . S
H1540 C1516 0.950 . S
H1541 C1517 0.949 . S
H1542 C1519 0.950 . S
H1543 C1521 0.950 . S
C1544 C1545 1.349 . S
C1544 C1546 1.327 . S
C1544 H1569 0.950 . S
C1545 C1544 1.349 . S
C1545 C1561 1.349 . S
C1546 C1544 1.327 . S
C1546 C1565 1.429 . S
C1546 H1570 0.950 . S
C1547 C1564 1.574 . S
C1547 C1566 1.368 . S
C1547 H1571 0.949 . S
H1548 C1552 0.949 . S
C1549 C1550 1.349 . S
C1549 C1551 1.327 . S
C1549 H1572 0.950 . S
C1550 C1549 1.349 . S
C1550 C1562 1.349 . S
C1551 C1549 1.327 . S
C1551 C1567 1.429 . S
C1551 H1573 0.950 . S
C1552 H1548 0.949 . S
C1552 C1560 1.574 . S
C1552 C1568 1.368 . S
H1553 C1561 0.950 . S
H1554 C1559 0.950 . S
H1555 C1560 0.949 . S
H1556 C1562 0.950 . S
H1557 C1563 0.950 . S
H1558 C1564 0.949 . S
C1559 H1554 0.950 . S
C1559 C1561 1.327 . S
C1559 C1565 1.429 . S
C1560 C1552 1.574 . S
C1560 H1555 0.949 . S
C1560 C1566 1.368 . S
C1561 C1545 1.349 . S
C1561 H1553 0.950 . S
C1561 C1559 1.327 . S
C1562 C1550 1.349 . S
C1562 H1556 0.950 . S
C1562 C1563 1.327 . S
C1563 H1557 0.950 . S
C1563 C1562 1.327 . S
C1563 C1567 1.429 . S
C1564 C1547 1.574 . S
C1564 H1558 0.949 . S
C1564 C1568 1.368 . S
C1565 C1546 1.429 . S
C1565 C1559 1.429 . S
C1565 C1566 1.523 . S
C1566 C1547 1.368 . S
C1566 C1560 1.368 . S
C1566 C1565 1.523 . S
C1567 C1551 1.429 . S
C1567 C1563 1.429 . S
C1567 C1568 1.523 . S
C1568 C1552 1.368 . S
C1568 C1564 1.368 . S
C1568 C1567 1.523 . S
H1569 C1544 0.950 . S
H1570 C1546 0.950 . S
H1571 C1547 0.949 . S
H1572 C1549 0.950 . S
H1573 C1551 0.950 . S
C1574 C1575 1.349 . S
C1574 C1576 1.327 . S
C1574 H1599 0.950 . S
C1575 C1574 1.349 . S
C1575 C1591 1.349 . S
C1576 C1574 1.327 . S
C1576 C1595 1.429 . S
C1576 H1600 0.950 . S
C1577 C1594 1.574 . S
C1577 C1596 1.368 . S
C1577 H1601 0.949 . S
H1578 C1582 0.949 . S
C1579 C1580 1.349 . S
C1579 C1581 1.327 . S
C1579 H1602 0.950 . S
C1580 C1579 1.349 . S
C1580 C1592 1.349 . S
C1581 C1579 1.327 . S
C1581 C1597 1.429 . S
C1581 H1603 0.950 . S
C1582 H1578 0.949 . S
C1582 C1590 1.574 . S
C1582 C1598 1.368 . S
H1583 C1591 0.950 . S
H1584 C1589 0.950 . S
H1585 C1590 0.949 . S
H1586 C1592 0.950 . S
H1587 C1593 0.950 . S
H1588 C1594 0.949 . S
C1589 H1584 0.950 . S
C1589 C1591 1.327 . S
C1589 C1595 1.429 . S
C1590 C1582 1.574 . S
C1590 H1585 0.949 . S
C1590 C1596 1.368 . S
C1591 C1575 1.349 . S
C1591 H1583 0.950 . S
C1591 C1589 1.327 . S
C1592 C1580 1.349 . S
C1592 H1586 0.950 . S
C1592 C1593 1.327 . S
C1593 H1587 0.950 . S
C1593 C1592 1.327 . S
C1593 C1597 1.429 . S
C1594 C1577 1.574 . S
C1594 H1588 0.949 . S
C1594 C1598 1.368 . S
C1595 C1576 1.429 . S
C1595 C1589 1.429 . S
C1595 C1596 1.523 . S
C1596 C1577 1.368 . S
C1596 C1590 1.368 . S
C1596 C1595 1.523 . S
C1597 C1581 1.429 . S
C1597 C1593 1.429 . S
C1597 C1598 1.523 . S
C1598 C1582 1.368 . S
C1598 C1594 1.368 . S
C1598 C1597 1.523 . S
H1599 C1574 0.950 . S
H1600 C1576 0.950 . S
H1601 C1577 0.949 . S
H1602 C1579 0.950 . S
H1603 C1581 0.950 . S
C1604 C1605 1.349 . S
C1604 C1606 1.327 . S
C1604 H1629 0.950 . S
C1605 C1604 1.349 . S
C1605 C1621 1.349 . S
C1606 C1604 1.327 . S
C1606 C1625 1.429 . S
C1606 H1630 0.950 . S
C1607 C1624 1.574 . S
C1607 C1626 1.368 . S
C1607 H1631 0.949 . S
H1608 C1612 0.949 . S
C1609 C1610 1.349 . S
C1609 C1611 1.327 . S
C1609 H1632 0.950 . S
C1610 C1609 1.349 . S
C1610 C1622 1.349 . S
C1611 C1609 1.327 . S
C1611 C1627 1.429 . S
C1611 H1633 0.950 . S
C1612 H1608 0.949 . S
C1612 C1620 1.574 . S
C1612 C1628 1.368 . S
H1613 C1621 0.950 . S
H1614 C1619 0.950 . S
H1615 C1620 0.949 . S
H1616 C1622 0.950 . S
H1617 C1623 0.950 . S
H1618 C1624 0.949 . S
C1619 H1614 0.950 . S
C1619 C1621 1.327 . S
C1619 C1625 1.429 . S
C1620 C1612 1.574 . S
C1620 H1615 0.949 . S
C1620 C1626 1.368 . S
C1621 C1605 1.349 . S
C1621 H1613 0.950 . S
C1621 C1619 1.327 . S
C1622 C1610 1.349 . S
C1622 H1616 0.950 . S
C1622 C1623 1.327 . S
C1623 H1617 0.950 . S
C1623 C1622 1.327 . S
C1623 C1627 1.429 . S
C1624 C1607 1.574 . S
C1624 H1618 0.949 . S
C1624 C1628 1.368 . S
C1625 C1606 1.429 . S
C1625 C1619 1.429 . S
C1625 C1626 1.523 . S
C1626 C1607 1.368 . S
C1626 C1620 1.368 . S
C1626 C1625 1.523 . S
C1627 C1611 1.429 . S
C1627 C1623 1.429 . S
C1627 C1628 1.523 . S
C1628 C1612 1.368 . S
C1628 C1624 1.368 . S
C1628 C1627 1.523 . S
H1629 C1604 0.950 . S
H1630 C1606 0.950 . S
H1631 C1607 0.949 . S
H1632 C1609 0.950 . S
H1633 C1611 0.950 . S
C1634 C1635 1.349 . S
C1634 C1636 1.327 . S
C1634 H1659 0.950 . S
C1635 C1634 1.349 . S
C1635 C1651 1.349 . S
C1636 C1634 1.327 . S
C1636 C1655 1.429 . S
C1636 H1660 0.950 . S
C1637 C1654 1.574 . S
C1637 C1656 1.368 . S
C1637 H1661 0.949 . S
H1638 C1642 0.949 . S
C1639 C1640 1.349 . S
C1639 C1641 1.327 . S
C1639 H1662 0.950 . S
C1640 C1639 1.349 . S
C1640 C1652 1.349 . S
C1641 C1639 1.327 . S
C1641 C1657 1.429 . S
C1641 H1663 0.950 . S
C1642 H1638 0.949 . S
C1642 C1650 1.574 . S
C1642 C1658 1.368 . S
H1643 C1651 0.950 . S
H1644 C1649 0.950 . S
H1645 C1650 0.949 . S
H1646 C1652 0.950 . S
H1647 C1653 0.950 . S
H1648 C1654 0.949 . S
C1649 H1644 0.950 . S
C1649 C1651 1.327 . S
C1649 C1655 1.429 . S
C1650 C1642 1.574 . S
C1650 H1645 0.949 . S
C1650 C1656 1.368 . S
C1651 C1635 1.349 . S
C1651 H1643 0.950 . S
C1651 C1649 1.327 . S
C1652 C1640 1.349 . S
C1652 H1646 0.950 . S
C1652 C1653 1.327 . S
C1653 H1647 0.950 . S
C1653 C1652 1.327 . S
C1653 C1657 1.429 . S
C1654 C1637 1.574 . S
C1654 H1648 0.949 . S
C1654 C1658 1.368 . S
C1655 C1636 1.429 . S
C1655 C1649 1.429 . S
C1655 C1656 1.523 . S
C1656 C1637 1.368 . S
C1656 C1650 1.368 . S
C1656 C1655 1.523 . S
C1657 C1641 1.429 . S
C1657 C1653 1.429 . S
C1657 C1658 1.523 . S
C1658 C1642 1.368 . S
C1658 C1654 1.368 . S
C1658 C1657 1.523 . S
H1659 C1634 0.950 . S
H1660 C1636 0.950 . S
H1661 C1637 0.949 . S
H1662 C1639 0.950 . S
H1663 C1641 0.950 . S
C1664 C1665 1.349 . S
C1664 C1666 1.327 . S
C1664 H1689 0.950 . S
C1665 C1664 1.349 . S
C1665 C1681 1.349 . S
C1666 C1664 1.327 . S
C1666 C1685 1.429 . S
C1666 H1690 0.950 . S
C1667 C1684 1.574 . S
C1667 C1686 1.368 . S
C1667 H1691 0.949 . S
H1668 C1672 0.949 . S
C1669 C1670 1.349 . S
C1669 C1671 1.327 . S
C1669 H1692 0.950 . S
C1670 C1669 1.349 . S
C1670 C1682 1.349 . S
C1671 C1669 1.327 . S
C1671 C1687 1.429 . S
C1671 H1693 0.950 . S
C1672 H1668 0.949 . S
C1672 C1680 1.574 . S
C1672 C1688 1.368 . S
H1673 C1681 0.950 . S
H1674 C1679 0.950 . S
H1675 C1680 0.949 . S
H1676 C1682 0.950 . S
H1677 C1683 0.950 . S
H1678 C1684 0.949 . S
C1679 H1674 0.950 . S
C1679 C1681 1.327 . S
C1679 C1685 1.429 . S
C1680 C1672 1.574 . S
C1680 H1675 0.949 . S
C1680 C1686 1.368 . S
C1681 C1665 1.349 . S
C1681 H1673 0.950 . S
C1681 C1679 1.327 . S
C1682 C1670 1.349 . S
C1682 H1676 0.950 . S
C1682 C1683 1.327 . S
C1683 H1677 0.950 . S
C1683 C1682 1.327 . S
C1683 C1687 1.429 . S
C1684 C1667 1.574 . S
C1684 H1678 0.949 . S
C1684 C1688 1.368 . S
C1685 C1666 1.429 . S
C1685 C1679 1.429 . S
C1685 C1686 1.523 . S
C1686 C1667 1.368 . S
C1686 C1680 1.368 . S
C1686 C1685 1.523 . S
C1687 C1671 1.429 . S
C1687 C1683 1.429 . S
C1687 C1688 1.523 . S
C1688 C1672 1.368 . S
C1688 C1684 1.368 . S
C1688 C1687 1.523 . S
H1689 C1664 0.950 . S
H1690 C1666 0.950 . S
H1691 C1667 0.949 . S
H1692 C1669 0.950 . S
H1693 C1671 0.950 . S
C1694 C1695 1.349 . S
C1694 C1696 1.327 . S
C1694 H1719 0.950 . S
C1695 C1694 1.349 . S
C1695 C1711 1.349 . S
C1696 C1694 1.327 . S
C1696 C1715 1.429 . S
C1696 H1720 0.950 . S
C1697 C1714 1.574 1_554 S
C1697 C1716 1.368 . S
C1697 H1721 0.949 . S
H1698 C1702 0.949 . S
C1699 C1700 1.349 . S
C1699 C1701 1.327 . S
C1699 H1722 0.950 . S
C1700 C1699 1.349 . S
C1700 C1712 1.349 . S
C1701 C1699 1.327 . S
C1701 C1717 1.429 . S
C1701 H1723 0.950 . S
C1702 H1698 0.949 . S
C1702 C1710 1.574 1_556 S
C1702 C1718 1.368 . S
H1703 C1711 0.950 . S
H1704 C1709 0.950 . S
H1705 C1710 0.949 . S
H1706 C1712 0.950 . S
H1707 C1713 0.950 . S
H1708 C1714 0.949 . S
C1709 H1704 0.950 . S
C1709 C1711 1.327 . S
C1709 C1715 1.429 . S
C1710 C1702 1.574 1_554 S
C1710 H1705 0.949 . S
C1710 C1716 1.368 . S
C1711 C1695 1.349 . S
C1711 H1703 0.950 . S
C1711 C1709 1.327 . S
C1712 C1700 1.349 . S
C1712 H1706 0.950 . S
C1712 C1713 1.327 . S
C1713 H1707 0.950 . S
C1713 C1712 1.327 . S
C1713 C1717 1.429 . S
C1714 C1697 1.574 1_556 S
C1714 H1708 0.949 . S
C1714 C1718 1.368 . S
C1715 C1696 1.429 . S
C1715 C1709 1.429 . S
C1715 C1716 1.523 . S
C1716 C1697 1.368 . S
C1716 C1710 1.368 . S
C1716 C1715 1.523 . S
C1717 C1701 1.429 . S
C1717 C1713 1.429 . S
C1717 C1718 1.523 . S
C1718 C1702 1.368 . S
C1718 C1714 1.368 . S
C1718 C1717 1.523 . S
H1719 C1694 0.950 . S
H1720 C1696 0.950 . S
H1721 C1697 0.949 . S
H1722 C1699 0.950 . S
H1723 C1701 0.950 . S
C1724 C1725 1.349 . S
C1724 C1726 1.327 . S
C1724 H1749 0.950 . S
C1725 C1724 1.349 . S
C1725 C1741 1.349 . S
C1726 C1724 1.327 . S
C1726 C1745 1.429 . S
C1726 H1750 0.950 . S
C1727 C1744 1.574 . S
C1727 C1746 1.368 . S
C1727 H1751 0.949 . S
H1728 C1732 0.949 . S
C1729 C1730 1.349 . S
C1729 C1731 1.327 . S
C1729 H1752 0.950 . S
C1730 C1729 1.349 . S
C1730 C1742 1.349 . S
C1731 C1729 1.327 . S
C1731 C1747 1.429 . S
C1731 H1753 0.950 . S
C1732 H1728 0.949 . S
C1732 C1740 1.574 . S
C1732 C1748 1.368 . S
H1733 C1741 0.950 . S
H1734 C1739 0.950 . S
H1735 C1740 0.949 . S
H1736 C1742 0.950 . S
H1737 C1743 0.950 . S
H1738 C1744 0.949 . S
C1739 H1734 0.950 . S
C1739 C1741 1.327 . S
C1739 C1745 1.429 . S
C1740 C1732 1.574 . S
C1740 H1735 0.949 . S
C1740 C1746 1.368 . S
C1741 C1725 1.349 . S
C1741 H1733 0.950 . S
C1741 C1739 1.327 . S
C1742 C1730 1.349 . S
C1742 H1736 0.950 . S
C1742 C1743 1.327 . S
C1743 H1737 0.950 . S
C1743 C1742 1.327 . S
C1743 C1747 1.429 . S
C1744 C1727 1.574 . S
C1744 H1738 0.949 . S
C1744 C1748 1.368 . S
C1745 C1726 1.429 . S
C1745 C1739 1.429 . S
C1745 C1746 1.523 . S
C1746 C1727 1.368 . S
C1746 C1740 1.368 . S
C1746 C1745 1.523 . S
C1747 C1731 1.429 . S
C1747 C1743 1.429 . S
C1747 C1748 1.523 . S
C1748 C1732 1.368 . S
C1748 C1744 1.368 . S
C1748 C1747 1.523 . S
H1749 C1724 0.950 . S
H1750 C1726 0.950 . S
H1751 C1727 0.949 . S
H1752 C1729 0.950 . S
H1753 C1731 0.950 . S
C1754 C1755 1.349 . S
C1754 C1756 1.327 . S
C1754 H1779 0.950 . S
C1755 C1754 1.349 . S
C1755 C1771 1.349 . S
C1756 C1754 1.327 . S
C1756 C1775 1.429 . S
C1756 H1780 0.950 . S
C1757 C1774 1.574 1_556 S
C1757 C1776 1.368 . S
C1757 H1781 0.949 . S
H1758 C1762 0.949 . S
C1759 C1760 1.349 . S
C1759 C1761 1.327 . S
C1759 H1782 0.950 . S
C1760 C1759 1.349 . S
C1760 C1772 1.349 . S
C1761 C1759 1.327 . S
C1761 C1777 1.429 . S
C1761 H1783 0.950 . S
C1762 H1758 0.949 . S
C1762 C1770 1.574 1_554 S
C1762 C1778 1.368 . S
H1763 C1771 0.950 . S
H1764 C1769 0.950 . S
H1765 C1770 0.949 . S
H1766 C1772 0.950 . S
H1767 C1773 0.950 . S
H1768 C1774 0.949 . S
C1769 H1764 0.950 . S
C1769 C1771 1.327 . S
C1769 C1775 1.429 . S
C1770 C1762 1.574 1_556 S
C1770 H1765 0.949 . S
C1770 C1776 1.368 . S
C1771 C1755 1.349 . S
C1771 H1763 0.950 . S
C1771 C1769 1.327 . S
C1772 C1760 1.349 . S
C1772 H1766 0.950 . S
C1772 C1773 1.327 . S
C1773 H1767 0.950 . S
C1773 C1772 1.327 . S
C1773 C1777 1.429 . S
C1774 C1757 1.574 1_554 S
C1774 H1768 0.949 . S
C1774 C1778 1.368 . S
C1775 C1756 1.429 . S
C1775 C1769 1.429 . S
C1775 C1776 1.523 . S
C1776 C1757 1.368 . S
C1776 C1770 1.368 . S
C1776 C1775 1.523 . S
C1777 C1761 1.429 . S
C1777 C1773 1.429 . S
C1777 C1778 1.523 . S
C1778 C1762 1.368 . S
C1778 C1774 1.368 . S
C1778 C1777 1.523 . S
H1779 C1754 0.950 . S
H1780 C1756 0.950 . S
H1781 C1757 0.949 . S
H1782 C1759 0.950 . S
H1783 C1761 0.950 . S
C1784 C1785 1.349 . S
C1784 C1786 1.327 . S
C1784 H1809 0.950 . S
C1785 C1784 1.349 . S
C1785 C1801 1.349 . S
C1786 C1784 1.327 . S
C1786 C1805 1.429 . S
C1786 H1810 0.950 . S
C1787 C1804 1.574 . S
C1787 C1806 1.368 . S
C1787 H1811 0.949 . S
H1788 C1792 0.949 . S
C1789 C1790 1.349 . S
C1789 C1791 1.327 . S
C1789 H1812 0.950 . S
C1790 C1789 1.349 . S
C1790 C1802 1.349 . S
C1791 C1789 1.327 . S
C1791 C1807 1.429 . S
C1791 H1813 0.950 . S
C1792 H1788 0.949 . S
C1792 C1800 1.574 . S
C1792 C1808 1.368 . S
H1793 C1801 0.950 . S
H1794 C1799 0.950 . S
H1795 C1800 0.949 . S
H1796 C1802 0.950 . S
H1797 C1803 0.950 . S
H1798 C1804 0.949 . S
C1799 H1794 0.950 . S
C1799 C1801 1.327 . S
C1799 C1805 1.429 . S
C1800 C1792 1.574 . S
C1800 H1795 0.949 . S
C1800 C1806 1.368 . S
C1801 C1785 1.349 . S
C1801 H1793 0.950 . S
C1801 C1799 1.327 . S
C1802 C1790 1.349 . S
C1802 H1796 0.950 . S
C1802 C1803 1.327 . S
C1803 H1797 0.950 . S
C1803 C1802 1.327 . S
C1803 C1807 1.429 . S
C1804 C1787 1.574 . S
C1804 H1798 0.949 . S
C1804 C1808 1.368 . S
C1805 C1786 1.429 . S
C1805 C1799 1.429 . S
C1805 C1806 1.523 . S
C1806 C1787 1.368 . S
C1806 C1800 1.368 . S
C1806 C1805 1.523 . S
C1807 C1791 1.429 . S
C1807 C1803 1.429 . S
C1807 C1808 1.523 . S
C1808 C1792 1.368 . S
C1808 C1804 1.368 . S
C1808 C1807 1.523 . S
H1809 C1784 0.950 . S
H1810 C1786 0.950 . S
H1811 C1787 0.949 . S
H1812 C1789 0.950 . S
H1813 C1791 0.950 . S
C1814 C1815 1.349 . S
C1814 C1816 1.327 . S
C1814 H1839 0.950 . S
C1815 C1814 1.349 . S
C1815 C1831 1.349 . S
C1816 C1814 1.327 . S
C1816 C1835 1.429 . S
C1816 H1840 0.950 . S
C1817 C1834 1.574 1_556 S
C1817 C1836 1.368 . S
C1817 H1841 0.949 . S
H1818 C1822 0.949 . S
C1819 C1820 1.349 . S
C1819 C1821 1.327 . S
C1819 H1842 0.950 . S
C1820 C1819 1.349 . S
C1820 C1832 1.349 . S
C1821 C1819 1.327 . S
C1821 C1837 1.429 . S
C1821 H1843 0.950 . S
C1822 H1818 0.949 . S
C1822 C1830 1.574 1_554 S
C1822 C1838 1.368 . S
H1823 C1831 0.950 . S
H1824 C1829 0.950 . S
H1825 C1830 0.949 . S
H1826 C1832 0.950 . S
H1827 C1833 0.950 . S
H1828 C1834 0.949 . S
C1829 H1824 0.950 . S
C1829 C1831 1.327 . S
C1829 C1835 1.429 . S
C1830 C1822 1.574 1_556 S
C1830 H1825 0.949 . S
C1830 C1836 1.368 . S
C1831 C1815 1.349 . S
C1831 H1823 0.950 . S
C1831 C1829 1.327 . S
C1832 C1820 1.349 . S
C1832 H1826 0.950 . S
C1832 C1833 1.327 . S
C1833 H1827 0.950 . S
C1833 C1832 1.327 . S
C1833 C1837 1.429 . S
C1834 C1817 1.574 1_554 S
C1834 H1828 0.949 . S
C1834 C1838 1.368 . S
C1835 C1816 1.429 . S
C1835 C1829 1.429 . S
C1835 C1836 1.523 . S
C1836 C1817 1.368 . S
C1836 C1830 1.368 . S
C1836 C1835 1.523 . S
C1837 C1821 1.429 . S
C1837 C1833 1.429 . S
C1837 C1838 1.523 . S
C1838 C1822 1.368 . S
C1838 C1834 1.368 . S
C1838 C1837 1.523 . S
H1839 C1814 0.950 . S
H1840 C1816 0.950 . S
H1841 C1817 0.949 . S
H1842 C1819 0.950 . S
H1843 C1821 0.950 . S
C1844 C1845 1.349 . S
C1844 C1846 1.327 . S
C1844 H1869 0.950 . S
C1845 C1844 1.349 . S
C1845 C1861 1.349 . S
C1846 C1844 1.327 . S
C1846 C1865 1.429 . S
C1846 H1870 0.950 . S
C1847 C1864 1.574 . S
C1847 C1866 1.368 . S
C1847 H1871 0.949 . S
H1848 C1852 0.949 . S
C1849 C1850 1.349 . S
C1849 C1851 1.327 . S
C1849 H1872 0.950 . S
C1850 C1849 1.349 . S
C1850 C1862 1.349 . S
C1851 C1849 1.327 . S
C1851 C1867 1.429 . S
C1851 H1873 0.950 . S
C1852 H1848 0.949 . S
C1852 C1860 1.574 . S
C1852 C1868 1.368 . S
H1853 C1861 0.950 . S
H1854 C1859 0.950 . S
H1855 C1860 0.949 . S
H1856 C1862 0.950 . S
H1857 C1863 0.950 . S
H1858 C1864 0.949 . S
C1859 H1854 0.950 . S
C1859 C1861 1.327 . S
C1859 C1865 1.429 . S
C1860 C1852 1.574 . S
C1860 H1855 0.949 . S
C1860 C1866 1.368 . S
C1861 C1845 1.349 . S
C1861 H1853 0.950 . S
C1861 C1859 1.327 . S
C1862 C1850 1.349 . S
C1862 H1856 0.950 . S
C1862 C1863 1.327 . S
C1863 H1857 0.950 . S
C1863 C1862 1.327 . S
C1863 C1867 1.429 . S
C1864 C1847 1.574 . S
C1864 H1858 0.949 . S
C1864 C1868 1.368 . S
C1865 C1846 1.429 . S
C1865 C1859 1.429 . S
C1865 C1866 1.523 . S
C1866 C1847 1.368 . S
C1866 C1860 1.368 . S
C1866 C1865 1.523 . S
C1867 C1851 1.429 . S
C1867 C1863 1.429 . S
C1867 C1868 1.523 . S
C1868 C1852 1.368 . S
C1868 C1864 1.368 . S
C1868 C1867 1.523 . S
H1869 C1844 0.950 . S
H1870 C1846 0.950 . S
H1871 C1847 0.949 . S
H1872 C1849 0.950 . S
H1873 C1851 0.950 . S
C1874 C1875 1.349 . S
C1874 C1876 1.327 . S
C1874 H1899 0.950 . S
C1875 C1874 1.349 . S
C1875 C1891 1.349 . S
C1876 C1874 1.327 . S
C1876 C1895 1.429 . S
C1876 H1900 0.950 . S
C1877 C1894 1.574 1_556 S
C1877 C1896 1.368 . S
C1877 H1901 0.949 . S
H1878 C1882 0.949 . S
C1879 C1880 1.349 . S
C1879 C1881 1.327 . S
C1879 H1902 0.950 . S
C1880 C1879 1.349 . S
C1880 C1892 1.349 . S
C1881 C1879 1.327 . S
C1881 C1897 1.429 . S
C1881 H1903 0.950 . S
C1882 H1878 0.949 . S
C1882 C1890 1.574 1_554 S
C1882 C1898 1.368 . S
H1883 C1891 0.950 . S
H1884 C1889 0.950 . S
H1885 C1890 0.949 . S
H1886 C1892 0.950 . S
H1887 C1893 0.950 . S
H1888 C1894 0.949 . S
C1889 H1884 0.950 . S
C1889 C1891 1.327 . S
C1889 C1895 1.429 . S
C1890 C1882 1.574 1_556 S
C1890 H1885 0.949 . S
C1890 C1896 1.368 . S
C1891 C1875 1.349 . S
C1891 H1883 0.950 . S
C1891 C1889 1.327 . S
C1892 C1880 1.349 . S
C1892 H1886 0.950 . S
C1892 C1893 1.327 . S
C1893 H1887 0.950 . S
C1893 C1892 1.327 . S
C1893 C1897 1.429 . S
C1894 C1877 1.574 1_554 S
C1894 H1888 0.949 . S
C1894 C1898 1.368 . S
C1895 C1876 1.429 . S
C1895 C1889 1.429 . S
C1895 C1896 1.523 . S
C1896 C1877 1.368 . S
C1896 C1890 1.368 . S
C1896 C1895 1.523 . S
C1897 C1881 1.429 . S
C1897 C1893 1.429 . S
C1897 C1898 1.523 . S
C1898 C1882 1.368 . S
C1898 C1894 1.368 . S
C1898 C1897 1.523 . S
H1899 C1874 0.950 . S
H1900 C1876 0.950 . S
H1901 C1877 0.949 . S
H1902 C1879 0.950 . S
H1903 C1881 0.950 . S
C1904 C1905 1.349 . S
C1904 C1906 1.327 . S
C1904 H1929 0.950 . S
C1905 C1904 1.349 . S
C1905 C1921 1.349 . S
C1906 C1904 1.327 . S
C1906 C1925 1.429 . S
C1906 H1930 0.950 . S
C1907 C1924 1.574 . S
C1907 C1926 1.368 . S
C1907 H1931 0.949 . S
H1908 C1912 0.949 . S
C1909 C1910 1.349 . S
C1909 C1911 1.327 . S
C1909 H1932 0.950 . S
C1910 C1909 1.349 . S
C1910 C1922 1.349 . S
C1911 C1909 1.327 . S
C1911 C1927 1.429 . S
C1911 H1933 0.950 . S
C1912 H1908 0.949 . S
C1912 C1920 1.574 . S
C1912 C1928 1.368 . S
H1913 C1921 0.950 . S
H1914 C1919 0.950 . S
H1915 C1920 0.949 . S
H1916 C1922 0.950 . S
H1917 C1923 0.950 . S
H1918 C1924 0.949 . S
C1919 H1914 0.950 . S
C1919 C1921 1.327 . S
C1919 C1925 1.429 . S
C1920 C1912 1.574 . S
C1920 H1915 0.949 . S
C1920 C1926 1.368 . S
C1921 C1905 1.349 . S
C1921 H1913 0.950 . S
C1921 C1919 1.327 . S
C1922 C1910 1.349 . S
C1922 H1916 0.950 . S
C1922 C1923 1.327 . S
C1923 H1917 0.950 . S
C1923 C1922 1.327 . S
C1923 C1927 1.429 . S
C1924 C1907 1.574 . S
C1924 H1918 0.949 . S
C1924 C1928 1.368 . S
C1925 C1906 1.429 . S
C1925 C1919 1.429 . S
C1925 C1926 1.523 . S
C1926 C1907 1.368 . S
C1926 C1920 1.368 . S
C1926 C1925 1.523 . S
C1927 C1911 1.429 . S
C1927 C1923 1.429 . S
C1927 C1928 1.523 . S
C1928 C1912 1.368 . S
C1928 C1924 1.368 . S
C1928 C1927 1.523 . S
H1929 C1904 0.950 . S
H1930 C1906 0.950 . S
H1931 C1907 0.949 . S
H1932 C1909 0.950 . S
H1933 C1911 0.950 . S
C1934 C1935 1.349 . S
C1934 C1936 1.327 . S
C1934 H1959 0.950 . S
C1935 C1934 1.349 . S
C1935 C1951 1.349 . S
C1936 C1934 1.327 . S
C1936 C1955 1.429 . S
C1936 H1960 0.950 . S
C1937 C1954 1.574 1_556 S
C1937 C1956 1.368 . S
C1937 H1961 0.949 . S
H1938 C1942 0.949 . S
C1939 C1940 1.349 . S
C1939 C1941 1.327 . S
C1939 H1962 0.950 . S
C1940 C1939 1.349 . S
C1940 C1952 1.349 . S
C1941 C1939 1.327 . S
C1941 C1957 1.429 . S
C1941 H1963 0.950 . S
C1942 H1938 0.949 . S
C1942 C1950 1.574 1_554 S
C1942 C1958 1.368 . S
H1943 C1951 0.950 . S
H1944 C1949 0.950 . S
H1945 C1950 0.949 . S
H1946 C1952 0.950 . S
H1947 C1953 0.950 . S
H1948 C1954 0.949 . S
C1949 H1944 0.950 . S
C1949 C1951 1.327 . S
C1949 C1955 1.429 . S
C1950 C1942 1.574 1_556 S
C1950 H1945 0.949 . S
C1950 C1956 1.368 . S
C1951 C1935 1.349 . S
C1951 H1943 0.950 . S
C1951 C1949 1.327 . S
C1952 C1940 1.349 . S
C1952 H1946 0.950 . S
C1952 C1953 1.327 . S
C1953 H1947 0.950 . S
C1953 C1952 1.327 . S
C1953 C1957 1.429 . S
C1954 C1937 1.574 1_554 S
C1954 H1948 0.949 . S
C1954 C1958 1.368 . S
C1955 C1936 1.429 . S
C1955 C1949 1.429 . S
C1955 C1956 1.523 . S
C1956 C1937 1.368 . S
C1956 C1950 1.368 . S
C1956 C1955 1.523 . S
C1957 C1941 1.429 . S
C1957 C1953 1.429 . S
C1957 C1958 1.523 . S
C1958 C1942 1.368 . S
C1958 C1954 1.368 . S
C1958 C1957 1.523 . S
H1959 C1934 0.950 . S
H1960 C1936 0.950 . S
H1961 C1937 0.949 . S
H1962 C1939 0.950 . S
H1963 C1941 0.950 . S
C1964 C1965 1.349 . S
C1964 C1966 1.327 . S
C1964 H1989 0.950 . S
C1965 C1964 1.349 . S
C1965 C1981 1.349 . S
C1966 C1964 1.327 . S
C1966 C1985 1.429 . S
C1966 H1990 0.950 . S
C1967 C1984 1.574 . S
C1967 C1986 1.368 . S
C1967 H1991 0.949 . S
H1968 C1972 0.949 . S
C1969 C1970 1.349 . S
C1969 C1971 1.327 . S
C1969 H1992 0.950 . S
C1970 C1969 1.349 . S
C1970 C1982 1.349 . S
C1971 C1969 1.327 . S
C1971 C1987 1.429 . S
C1971 H1993 0.950 . S
C1972 H1968 0.949 . S
C1972 C1980 1.574 . S
C1972 C1988 1.368 . S
H1973 C1981 0.950 . S
H1974 C1979 0.950 . S
H1975 C1980 0.949 . S
H1976 C1982 0.950 . S
H1977 C1983 0.950 . S
H1978 C1984 0.949 . S
C1979 H1974 0.950 . S
C1979 C1981 1.327 . S
C1979 C1985 1.429 . S
C1980 C1972 1.574 . S
C1980 H1975 0.949 . S
C1980 C1986 1.368 . S
C1981 C1965 1.349 . S
C1981 H1973 0.950 . S
C1981 C1979 1.327 . S
C1982 C1970 1.349 . S
C1982 H1976 0.950 . S
C1982 C1983 1.327 . S
C1983 H1977 0.950 . S
C1983 C1982 1.327 . S
C1983 C1987 1.429 . S
C1984 C1967 1.574 . S
C1984 H1978 0.949 . S
C1984 C1988 1.368 . S
C1985 C1966 1.429 . S
C1985 C1979 1.429 . S
C1985 C1986 1.523 . S
C1986 C1967 1.368 . S
C1986 C1980 1.368 . S
C1986 C1985 1.523 . S
C1987 C1971 1.429 . S
C1987 C1983 1.429 . S
C1987 C1988 1.523 . S
C1988 C1972 1.368 . S
C1988 C1984 1.368 . S
C1988 C1987 1.523 . S
H1989 C1964 0.950 . S
H1990 C1966 0.950 . S
H1991 C1967 0.949 . S
H1992 C1969 0.950 . S
H1993 C1971 0.950 . S
C1994 C1995 1.349 . S
C1994 C1996 1.327 . S
C1994 H2019 0.950 . S
C1995 C1994 1.349 . S
C1995 C2011 1.349 . S
C1996 C1994 1.327 . S
C1996 C2015 1.429 . S
C1996 H2020 0.950 . S
C1997 C2014 1.574 1_554 S
C1997 C2016 1.368 . S
C1997 H2021 0.949 . S
H1998 C2002 0.949 . S
C1999 C2000 1.349 . S
C1999 C2001 1.327 . S
C1999 H2022 0.950 . S
C2000 C1999 1.349 . S
C2000 C2012 1.349 . S
C2001 C1999 1.327 . S
C2001 C2017 1.429 . S
C2001 H2023 0.950 . S
C2002 H1998 0.949 . S
C2002 C2010 1.574 1_556 S
C2002 C2018 1.368 . S
H2003 C2011 0.950 . S
H2004 C2009 0.950 . S
H2005 C2010 0.949 . S
H2006 C2012 0.950 . S
H2007 C2013 0.950 . S
H2008 C2014 0.949 . S
C2009 H2004 0.950 . S
C2009 C2011 1.327 . S
C2009 C2015 1.429 . S
C2010 C2002 1.574 1_554 S
C2010 H2005 0.949 . S
C2010 C2016 1.368 . S
C2011 C1995 1.349 . S
C2011 H2003 0.950 . S
C2011 C2009 1.327 . S
C2012 C2000 1.349 . S
C2012 H2006 0.950 . S
C2012 C2013 1.327 . S
C2013 H2007 0.950 . S
C2013 C2012 1.327 . S
C2013 C2017 1.429 . S
C2014 C1997 1.574 1_556 S
C2014 H2008 0.949 . S
C2014 C2018 1.368 . S
C2015 C1996 1.429 . S
C2015 C2009 1.429 . S
C2015 C2016 1.523 . S
C2016 C1997 1.368 . S
C2016 C2010 1.368 . S
C2016 C2015 1.523 . S
C2017 C2001 1.429 . S
C2017 C2013 1.429 . S
C2017 C2018 1.523 . S
C2018 C2002 1.368 . S
C2018 C2014 1.368 . S
C2018 C2017 1.523 . S
H2019 C1994 0.950 . S
H2020 C1996 0.950 . S
H2021 C1997 0.949 . S
H2022 C1999 0.950 . S
H2023 C2001 0.950 . S
C2024 C2025 1.349 . S
C2024 C2026 1.327 . S
C2024 H2049 0.950 . S
C2025 C2024 1.349 . S
C2025 C2041 1.349 . S
C2026 C2024 1.327 . S
C2026 C2045 1.429 . S
C2026 H2050 0.950 . S
C2027 C2044 1.574 . S
C2027 C2046 1.368 . S
C2027 H2051 0.949 . S
H2028 C2032 0.949 . S
C2029 C2030 1.349 . S
C2029 C2031 1.327 . S
C2029 H2052 0.950 . S
C2030 C2029 1.349 . S
C2030 C2042 1.349 . S
C2031 C2029 1.327 . S
C2031 C2047 1.429 . S
C2031 H2053 0.950 . S
C2032 H2028 0.949 . S
C2032 C2040 1.574 . S
C2032 C2048 1.368 . S
H2033 C2041 0.950 . S
H2034 C2039 0.950 . S
H2035 C2040 0.949 . S
H2036 C2042 0.950 . S
H2037 C2043 0.950 . S
H2038 C2044 0.949 . S
C2039 H2034 0.950 . S
C2039 C2041 1.327 . S
C2039 C2045 1.429 . S
C2040 C2032 1.574 . S
C2040 H2035 0.949 . S
C2040 C2046 1.368 . S
C2041 C2025 1.349 . S
C2041 H2033 0.950 . S
C2041 C2039 1.327 . S
C2042 C2030 1.349 . S
C2042 H2036 0.950 . S
C2042 C2043 1.327 . S
C2043 H2037 0.950 . S
C2043 C2042 1.327 . S
C2043 C2047 1.429 . S
C2044 C2027 1.574 . S
C2044 H2038 0.949 . S
C2044 C2048 1.368 . S
C2045 C2026 1.429 . S
C2045 C2039 1.429 . S
C2045 C2046 1.523 . S
C2046 C2027 1.368 . S
C2046 C2040 1.368 . S
C2046 C2045 1.523 . S
C2047 C2031 1.429 . S
C2047 C2043 1.429 . S
C2047 C2048 1.523 . S
C2048 C2032 1.368 . S
C2048 C2044 1.368 . S
C2048 C2047 1.523 . S
H2049 C2024 0.950 . S
H2050 C2026 0.950 . S
H2051 C2027 0.949 . S
H2052 C2029 0.950 . S
H2053 C2031 0.950 . S
C2054 C2055 1.349 . S
C2054 C2056 1.327 . S
C2054 H2079 0.950 . S
C2055 C2054 1.349 . S
C2055 C2071 1.349 . S
C2056 C2054 1.327 . S
C2056 C2075 1.429 . S
C2056 H2080 0.950 . S
C2057 C2074 1.574 1_554 S
C2057 C2076 1.368 . S
C2057 H2081 0.949 . S
H2058 C2062 0.949 . S
C2059 C2060 1.349 . S
C2059 C2061 1.327 . S
C2059 H2082 0.950 . S
C2060 C2059 1.349 . S
C2060 C2072 1.349 . S
C2061 C2059 1.327 . S
C2061 C2077 1.429 . S
C2061 H2083 0.950 . S
C2062 H2058 0.949 . S
C2062 C2070 1.574 1_556 S
C2062 C2078 1.368 . S
H2063 C2071 0.950 . S
H2064 C2069 0.950 . S
H2065 C2070 0.949 . S
H2066 C2072 0.950 . S
H2067 C2073 0.950 . S
H2068 C2074 0.949 . S
C2069 H2064 0.950 . S
C2069 C2071 1.327 . S
C2069 C2075 1.429 . S
C2070 C2062 1.574 1_554 S
C2070 H2065 0.949 . S
C2070 C2076 1.368 . S
C2071 C2055 1.349 . S
C2071 H2063 0.950 . S
C2071 C2069 1.327 . S
C2072 C2060 1.349 . S
C2072 H2066 0.950 . S
C2072 C2073 1.327 . S
C2073 H2067 0.950 . S
C2073 C2072 1.327 . S
C2073 C2077 1.429 . S
C2074 C2057 1.574 1_556 S
C2074 H2068 0.949 . S
C2074 C2078 1.368 . S
C2075 C2056 1.429 . S
C2075 C2069 1.429 . S
C2075 C2076 1.523 . S
C2076 C2057 1.368 . S
C2076 C2070 1.368 . S
C2076 C2075 1.523 . S
C2077 C2061 1.429 . S
C2077 C2073 1.429 . S
C2077 C2078 1.523 . S
C2078 C2062 1.368 . S
C2078 C2074 1.368 . S
C2078 C2077 1.523 . S
H2079 C2054 0.950 . S
H2080 C2056 0.950 . S
H2081 C2057 0.949 . S
H2082 C2059 0.950 . S
H2083 C2061 0.950 . S
C2084 C2085 1.349 . S
C2084 C2086 1.327 . S
C2084 H2109 0.950 . S
C2085 C2084 1.349 . S
C2085 C2101 1.349 . S
C2086 C2084 1.327 . S
C2086 C2105 1.429 . S
C2086 H2110 0.950 . S
C2087 C2104 1.574 . S
C2087 C2106 1.368 . S
C2087 H2111 0.949 . S
H2088 C2092 0.949 . S
C2089 C2090 1.349 . S
C2089 C2091 1.327 . S
C2089 H2112 0.950 . S
C2090 C2089 1.349 . S
C2090 C2102 1.349 . S
C2091 C2089 1.327 . S
C2091 C2107 1.429 . S
C2091 H2113 0.950 . S
C2092 H2088 0.949 . S
C2092 C2100 1.574 . S
C2092 C2108 1.368 . S
H2093 C2101 0.950 . S
H2094 C2099 0.950 . S
H2095 C2100 0.949 . S
H2096 C2102 0.950 . S
H2097 C2103 0.950 . S
H2098 C2104 0.949 . S
C2099 H2094 0.950 . S
C2099 C2101 1.327 . S
C2099 C2105 1.429 . S
C2100 C2092 1.574 . S
C2100 H2095 0.949 . S
C2100 C2106 1.368 . S
C2101 C2085 1.349 . S
C2101 H2093 0.950 . S
C2101 C2099 1.327 . S
C2102 C2090 1.349 . S
C2102 H2096 0.950 . S
C2102 C2103 1.327 . S
C2103 H2097 0.950 . S
C2103 C2102 1.327 . S
C2103 C2107 1.429 . S
C2104 C2087 1.574 . S
C2104 H2098 0.949 . S
C2104 C2108 1.368 . S
C2105 C2086 1.429 . S
C2105 C2099 1.429 . S
C2105 C2106 1.523 . S
C2106 C2087 1.368 . S
C2106 C2100 1.368 . S
C2106 C2105 1.523 . S
C2107 C2091 1.429 . S
C2107 C2103 1.429 . S
C2107 C2108 1.523 . S
C2108 C2092 1.368 . S
C2108 C2104 1.368 . S
C2108 C2107 1.523 . S
H2109 C2084 0.950 . S
H2110 C2086 0.950 . S
H2111 C2087 0.949 . S
H2112 C2089 0.950 . S
H2113 C2091 0.950 . S
C2114 C2115 1.349 . S
C2114 C2116 1.327 . S
C2114 H2139 0.950 . S
C2115 C2114 1.349 . S
C2115 C2131 1.349 . S
C2116 C2114 1.327 . S
C2116 C2135 1.429 . S
C2116 H2140 0.950 . S
C2117 C2134 1.574 1_554 S
C2117 C2136 1.368 . S
C2117 H2141 0.949 . S
H2118 C2122 0.949 . S
C2119 C2120 1.349 . S
C2119 C2121 1.327 . S
C2119 H2142 0.950 . S
C2120 C2119 1.349 . S
C2120 C2132 1.349 . S
C2121 C2119 1.327 . S
C2121 C2137 1.429 . S
C2121 H2143 0.950 . S
C2122 H2118 0.949 . S
C2122 C2130 1.574 1_556 S
C2122 C2138 1.368 . S
H2123 C2131 0.950 . S
H2124 C2129 0.950 . S
H2125 C2130 0.949 . S
H2126 C2132 0.950 . S
H2127 C2133 0.950 . S
H2128 C2134 0.949 . S
C2129 H2124 0.950 . S
C2129 C2131 1.327 . S
C2129 C2135 1.429 . S
C2130 C2122 1.574 1_554 S
C2130 H2125 0.949 . S
C2130 C2136 1.368 . S
C2131 C2115 1.349 . S
C2131 H2123 0.950 . S
C2131 C2129 1.327 . S
C2132 C2120 1.349 . S
C2132 H2126 0.950 . S
C2132 C2133 1.327 . S
C2133 H2127 0.950 . S
C2133 C2132 1.327 . S
C2133 C2137 1.429 . S
C2134 C2117 1.574 1_556 S
C2134 H2128 0.949 . S
C2134 C2138 1.368 . S
C2135 C2116 1.429 . S
C2135 C2129 1.429 . S
C2135 C2136 1.523 . S
C2136 C2117 1.368 . S
C2136 C2130 1.368 . S
C2136 C2135 1.523 . S
C2137 C2121 1.429 . S
C2137 C2133 1.429 . S
C2137 C2138 1.523 . S
C2138 C2122 1.368 . S
C2138 C2134 1.368 . S
C2138 C2137 1.523 . S
H2139 C2114 0.950 . S
H2140 C2116 0.950 . S
H2141 C2117 0.949 . S
H2142 C2119 0.950 . S
H2143 C2121 0.950 . S
C465 C184 1.514 . S
C470 C10 1.514 . S
C495 C39 1.514 . S
C500 C213 1.514 . S
C525 C126 1.514 . S
C530 C68 1.514 . S
C555 C155 1.514 . S
C560 C97 1.514 . S
C585 C242 1.514 . S
C590 C416 1.514 . S
C615 C445 1.514 . S
C620 C271 1.514 . S
C645 C358 1.514 . S
C650 C300 1.514 . S
C675 C387 1.514 . S
C680 C329 1.514 . S
C705 C13 0.839 . S
C710 C438 0.847 . S
C735 C42 0.839 . S
C740 C409 0.847 . S
C765 C380 0.847 . S
C770 C71 0.839 . S
C795 C351 0.847 . S
C800 C100 0.839 . S
C825 C322 0.847 . S
C830 C129 0.839 . S
C855 C293 0.847 . S
C860 C158 0.839 . S
C885 C264 0.847 . S
C890 C187 0.839 . S
C915 C235 0.847 . S
C920 C216 0.839 . S
C945 C206 0.847 . S
C950 C245 0.839 . S
C975 C274 0.839 . S
C980 C177 0.847 . S
C1005 C303 0.839 . S
C1010 C148 0.847 . S
C1035 C119 0.847 . S
C1040 C332 0.839 . S
C1065 C361 0.839 . S
C1070 C90 0.847 . S
C1095 C61 0.847 . S
C1100 C390 0.839 . S
C1125 C419 0.839 . S
C1130 C32 0.847 . S
C1155 C448 0.839 . S
C1160 C3 0.847 . S
C1185 C66 1.320 1_554 S
C1190 C8 1.320 1_556 S
C1215 C37 1.320 . S
C1220 C95 1.320 . S
C1245 C124 1.320 1_554 S
C1250 C182 1.320 1_556 S
C1275 C211 1.320 . S
C1280 C153 1.320 . S
C1305 C298 1.320 1_554 S
C1310 C240 1.320 1_556 S
C1335 C269 1.320 . S
C1340 C327 1.320 . S
C1365 C414 1.320 1_556 S
C1370 C356 1.320 1_554 S
C1395 C443 1.320 . S
C1400 C385 1.320 . S
C1425 C5 1.265 . S
C1430 C92 1.265 . S
C1455 C34 1.265 . S
C1460 C63 1.265 . S
C1485 C208 1.265 . S
C1490 C121 1.265 . S
C1515 C150 1.265 . S
C1520 C179 1.265 . S
C1545 C324 1.265 . S
C1550 C237 1.265 . S
C1575 C266 1.265 . S
C1580 C295 1.265 . S
C1605 C440 1.265 . S
C1610 C353 1.265 . S
C1635 C411 1.265 . S
C1640 C382 1.265 . S
C1665 C15 2.259 . S
C1670 C21 2.166 . S
C1695 C44 2.259 . S
C1700 C50 2.166 . S
C1725 C79 2.166 . S
C1730 C73 2.259 . S
C1755 C102 2.259 . S
C1760 C108 2.166 . S
C1785 C131 2.259 . S
C1790 C137 2.166 . S
C1815 C160 2.259 . S
C1820 C166 2.166 . S
C1845 C189 2.259 . S
C1850 C195 2.166 . S
C1875 C224 2.166 . S
C1880 C218 2.259 . S
C1905 C247 2.259 . S
C1910 C253 2.166 . S
C1935 C282 2.166 . S
C1940 C276 2.259 . S
C1965 C311 2.166 . S
C1970 C305 2.259 . S
C1995 C340 2.166 . S
C2000 C334 2.259 . S
C2025 C363 2.259 . S
C2030 C369 2.166 . S
C2055 C398 2.166 . S
C2060 C392 2.259 . S
C2085 C421 2.259 . S
C2090 C427 2.166 . S
C2115 C450 2.259 . S
C2120 C456 2.166 . S
