# Generated by pormake.
# Topology fau, (4)-cn, num edge types: 1
# Building blocks:
#     Node 0, Type 0, BuildingBlock: QUQFOY_clean_sbu_3, # of connection points: 4
#     Node 1, Type 0, BuildingBlock: QUQFOY_clean_sbu_3, # of connection points: 4
#     Node 2, Type 0, BuildingBlock: QUQFOY_clean_sbu_3, # of connection points: 4
#     Node 3, Type 0, BuildingBlock: QUQFOY_clean_sbu_3, # of connection points: 4
#     Node 4, Type 0, BuildingBlock: QUQFOY_clean_sbu_3, # of connection points: 4
#     Node 5, Type 0, BuildingBlock: QUQFOY_clean_sbu_3, # of connection points: 4
#     Node 6, Type 0, BuildingBlock: QUQFOY_clean_sbu_3, # of connection points: 4
#     Node 7, Type 0, BuildingBlock: QUQFOY_clean_sbu_3, # of connection points: 4
#     Node 8, Type 0, BuildingBlock: QUQFOY_clean_sbu_3, # of connection points: 4
#     Node 9, Type 0, BuildingBlock: QUQFOY_clean_sbu_3, # of connection points: 4
#     Node 10, Type 0, BuildingBlock: QUQFOY_clean_sbu_3, # of connection points: 4
#     Node 11, Type 0, BuildingBlock: QUQFOY_clean_sbu_3, # of connection points: 4
#     Node 12, Type 0, BuildingBlock: QUQFOY_clean_sbu_3, # of connection points: 4
#     Node 13, Type 0, BuildingBlock: QUQFOY_clean_sbu_3, # of connection points: 4
#     Node 14, Type 0, BuildingBlock: QUQFOY_clean_sbu_3, # of connection points: 4
#     Node 15, Type 0, BuildingBlock: QUQFOY_clean_sbu_3, # of connection points: 4
#     Node 16, Type 0, BuildingBlock: QUQFOY_clean_sbu_3, # of connection points: 4
#     Node 17, Type 0, BuildingBlock: QUQFOY_clean_sbu_3, # of connection points: 4
#     Node 18, Type 0, BuildingBlock: QUQFOY_clean_sbu_3, # of connection points: 4
#     Node 19, Type 0, BuildingBlock: QUQFOY_clean_sbu_3, # of connection points: 4
#     Node 20, Type 0, BuildingBlock: QUQFOY_clean_sbu_3, # of connection points: 4
#     Node 21, Type 0, BuildingBlock: QUQFOY_clean_sbu_3, # of connection points: 4
#     Node 22, Type 0, BuildingBlock: QUQFOY_clean_sbu_3, # of connection points: 4
#     Node 23, Type 0, BuildingBlock: QUQFOY_clean_sbu_3, # of connection points: 4
#     Node 24, Type 0, BuildingBlock: QUQFOY_clean_sbu_3, # of connection points: 4
#     Node 25, Type 0, BuildingBlock: QUQFOY_clean_sbu_3, # of connection points: 4
#     Node 26, Type 0, BuildingBlock: QUQFOY_clean_sbu_3, # of connection points: 4
#     Node 27, Type 0, BuildingBlock: QUQFOY_clean_sbu_3, # of connection points: 4
#     Node 28, Type 0, BuildingBlock: QUQFOY_clean_sbu_3, # of connection points: 4
#     Node 29, Type 0, BuildingBlock: QUQFOY_clean_sbu_3, # of connection points: 4
#     Node 30, Type 0, BuildingBlock: QUQFOY_clean_sbu_3, # of connection points: 4
#     Node 31, Type 0, BuildingBlock: QUQFOY_clean_sbu_3, # of connection points: 4
#     Node 32, Type 0, BuildingBlock: QUQFOY_clean_sbu_3, # of connection points: 4
#     Node 33, Type 0, BuildingBlock: QUQFOY_clean_sbu_3, # of connection points: 4
#     Node 34, Type 0, BuildingBlock: QUQFOY_clean_sbu_3, # of connection points: 4
#     Node 35, Type 0, BuildingBlock: QUQFOY_clean_sbu_3, # of connection points: 4
#     Node 36, Type 0, BuildingBlock: QUQFOY_clean_sbu_3, # of connection points: 4
#     Node 37, Type 0, BuildingBlock: QUQFOY_clean_sbu_3, # of connection points: 4
#     Node 38, Type 0, BuildingBlock: QUQFOY_clean_sbu_3, # of connection points: 4
#     Node 39, Type 0, BuildingBlock: QUQFOY_clean_sbu_3, # of connection points: 4
#     Node 40, Type 0, BuildingBlock: QUQFOY_clean_sbu_3, # of connection points: 4
#     Node 41, Type 0, BuildingBlock: QUQFOY_clean_sbu_3, # of connection points: 4
#     Node 42, Type 0, BuildingBlock: QUQFOY_clean_sbu_3, # of connection points: 4
#     Node 43, Type 0, BuildingBlock: QUQFOY_clean_sbu_3, # of connection points: 4
#     Node 44, Type 0, BuildingBlock: QUQFOY_clean_sbu_3, # of connection points: 4
#     Node 45, Type 0, BuildingBlock: QUQFOY_clean_sbu_3, # of connection points: 4
#     Node 46, Type 0, BuildingBlock: QUQFOY_clean_sbu_3, # of connection points: 4
#     Node 47, Type 0, BuildingBlock: QUQFOY_clean_sbu_3, # of connection points: 4
#     Node 48, Type 0, BuildingBlock: QUQFOY_clean_sbu_3, # of connection points: 4
#     Node 49, Type 0, BuildingBlock: QUQFOY_clean_sbu_3, # of connection points: 4
#     Node 50, Type 0, BuildingBlock: QUQFOY_clean_sbu_3, # of connection points: 4
#     Node 51, Type 0, BuildingBlock: QUQFOY_clean_sbu_3, # of connection points: 4
#     Node 52, Type 0, BuildingBlock: QUQFOY_clean_sbu_3, # of connection points: 4
#     Node 53, Type 0, BuildingBlock: QUQFOY_clean_sbu_3, # of connection points: 4
#     Node 54, Type 0, BuildingBlock: QUQFOY_clean_sbu_3, # of connection points: 4
#     Node 55, Type 0, BuildingBlock: QUQFOY_clean_sbu_3, # of connection points: 4
#     Node 56, Type 0, BuildingBlock: QUQFOY_clean_sbu_3, # of connection points: 4
#     Node 57, Type 0, BuildingBlock: QUQFOY_clean_sbu_3, # of connection points: 4
#     Node 58, Type 0, BuildingBlock: QUQFOY_clean_sbu_3, # of connection points: 4
#     Node 59, Type 0, BuildingBlock: QUQFOY_clean_sbu_3, # of connection points: 4
#     Node 60, Type 0, BuildingBlock: QUQFOY_clean_sbu_3, # of connection points: 4
#     Node 61, Type 0, BuildingBlock: QUQFOY_clean_sbu_3, # of connection points: 4
#     Node 62, Type 0, BuildingBlock: QUQFOY_clean_sbu_3, # of connection points: 4
#     Node 63, Type 0, BuildingBlock: QUQFOY_clean_sbu_3, # of connection points: 4
#     Node 64, Type 0, BuildingBlock: QUQFOY_clean_sbu_3, # of connection points: 4
#     Node 65, Type 0, BuildingBlock: QUQFOY_clean_sbu_3, # of connection points: 4
#     Node 66, Type 0, BuildingBlock: QUQFOY_clean_sbu_3, # of connection points: 4
#     Node 67, Type 0, BuildingBlock: QUQFOY_clean_sbu_3, # of connection points: 4
#     Node 68, Type 0, BuildingBlock: QUQFOY_clean_sbu_3, # of connection points: 4
#     Node 69, Type 0, BuildingBlock: QUQFOY_clean_sbu_3, # of connection points: 4
#     Node 70, Type 0, BuildingBlock: QUQFOY_clean_sbu_3, # of connection points: 4
#     Node 71, Type 0, BuildingBlock: QUQFOY_clean_sbu_3, # of connection points: 4
#     Node 72, Type 0, BuildingBlock: QUQFOY_clean_sbu_3, # of connection points: 4
#     Node 73, Type 0, BuildingBlock: QUQFOY_clean_sbu_3, # of connection points: 4
#     Node 74, Type 0, BuildingBlock: QUQFOY_clean_sbu_3, # of connection points: 4
#     Node 75, Type 0, BuildingBlock: QUQFOY_clean_sbu_3, # of connection points: 4
#     Node 76, Type 0, BuildingBlock: QUQFOY_clean_sbu_3, # of connection points: 4
#     Node 77, Type 0, BuildingBlock: QUQFOY_clean_sbu_3, # of connection points: 4
#     Node 78, Type 0, BuildingBlock: QUQFOY_clean_sbu_3, # of connection points: 4
#     Node 79, Type 0, BuildingBlock: QUQFOY_clean_sbu_3, # of connection points: 4
#     Node 80, Type 0, BuildingBlock: QUQFOY_clean_sbu_3, # of connection points: 4
#     Node 81, Type 0, BuildingBlock: QUQFOY_clean_sbu_3, # of connection points: 4
#     Node 82, Type 0, BuildingBlock: QUQFOY_clean_sbu_3, # of connection points: 4
#     Node 83, Type 0, BuildingBlock: QUQFOY_clean_sbu_3, # of connection points: 4
#     Node 84, Type 0, BuildingBlock: QUQFOY_clean_sbu_3, # of connection points: 4
#     Node 85, Type 0, BuildingBlock: QUQFOY_clean_sbu_3, # of connection points: 4
#     Node 86, Type 0, BuildingBlock: QUQFOY_clean_sbu_3, # of connection points: 4
#     Node 87, Type 0, BuildingBlock: QUQFOY_clean_sbu_3, # of connection points: 4
#     Node 88, Type 0, BuildingBlock: QUQFOY_clean_sbu_3, # of connection points: 4
#     Node 89, Type 0, BuildingBlock: QUQFOY_clean_sbu_3, # of connection points: 4
#     Node 90, Type 0, BuildingBlock: QUQFOY_clean_sbu_3, # of connection points: 4
#     Node 91, Type 0, BuildingBlock: QUQFOY_clean_sbu_3, # of connection points: 4
#     Node 92, Type 0, BuildingBlock: QUQFOY_clean_sbu_3, # of connection points: 4
#     Node 93, Type 0, BuildingBlock: QUQFOY_clean_sbu_3, # of connection points: 4
#     Node 94, Type 0, BuildingBlock: QUQFOY_clean_sbu_3, # of connection points: 4
#     Node 95, Type 0, BuildingBlock: QUQFOY_clean_sbu_3, # of connection points: 4
#     Node 96, Type 0, BuildingBlock: QUQFOY_clean_sbu_3, # of connection points: 4
#     Node 97, Type 0, BuildingBlock: QUQFOY_clean_sbu_3, # of connection points: 4
#     Node 98, Type 0, BuildingBlock: QUQFOY_clean_sbu_3, # of connection points: 4
#     Node 99, Type 0, BuildingBlock: QUQFOY_clean_sbu_3, # of connection points: 4
#     Node 100, Type 0, BuildingBlock: QUQFOY_clean_sbu_3, # of connection points: 4
#     Node 101, Type 0, BuildingBlock: QUQFOY_clean_sbu_3, # of connection points: 4
#     Node 102, Type 0, BuildingBlock: QUQFOY_clean_sbu_3, # of connection points: 4
#     Node 103, Type 0, BuildingBlock: QUQFOY_clean_sbu_3, # of connection points: 4
#     Node 104, Type 0, BuildingBlock: QUQFOY_clean_sbu_3, # of connection points: 4
#     Node 105, Type 0, BuildingBlock: QUQFOY_clean_sbu_3, # of connection points: 4
#     Node 106, Type 0, BuildingBlock: QUQFOY_clean_sbu_3, # of connection points: 4
#     Node 107, Type 0, BuildingBlock: QUQFOY_clean_sbu_3, # of connection points: 4
#     Node 108, Type 0, BuildingBlock: QUQFOY_clean_sbu_3, # of connection points: 4
#     Node 109, Type 0, BuildingBlock: QUQFOY_clean_sbu_3, # of connection points: 4
#     Node 110, Type 0, BuildingBlock: QUQFOY_clean_sbu_3, # of connection points: 4
#     Node 111, Type 0, BuildingBlock: QUQFOY_clean_sbu_3, # of connection points: 4
#     Node 112, Type 0, BuildingBlock: QUQFOY_clean_sbu_3, # of connection points: 4
#     Node 113, Type 0, BuildingBlock: QUQFOY_clean_sbu_3, # of connection points: 4
#     Node 114, Type 0, BuildingBlock: QUQFOY_clean_sbu_3, # of connection points: 4
#     Node 115, Type 0, BuildingBlock: QUQFOY_clean_sbu_3, # of connection points: 4
#     Node 116, Type 0, BuildingBlock: QUQFOY_clean_sbu_3, # of connection points: 4
#     Node 117, Type 0, BuildingBlock: QUQFOY_clean_sbu_3, # of connection points: 4
#     Node 118, Type 0, BuildingBlock: QUQFOY_clean_sbu_3, # of connection points: 4
#     Node 119, Type 0, BuildingBlock: QUQFOY_clean_sbu_3, # of connection points: 4
#     Node 120, Type 0, BuildingBlock: QUQFOY_clean_sbu_3, # of connection points: 4
#     Node 121, Type 0, BuildingBlock: QUQFOY_clean_sbu_3, # of connection points: 4
#     Node 122, Type 0, BuildingBlock: QUQFOY_clean_sbu_3, # of connection points: 4
#     Node 123, Type 0, BuildingBlock: QUQFOY_clean_sbu_3, # of connection points: 4
#     Node 124, Type 0, BuildingBlock: QUQFOY_clean_sbu_3, # of connection points: 4
#     Node 125, Type 0, BuildingBlock: QUQFOY_clean_sbu_3, # of connection points: 4
#     Node 126, Type 0, BuildingBlock: QUQFOY_clean_sbu_3, # of connection points: 4
#     Node 127, Type 0, BuildingBlock: QUQFOY_clean_sbu_3, # of connection points: 4
#     Node 128, Type 0, BuildingBlock: QUQFOY_clean_sbu_3, # of connection points: 4
#     Node 129, Type 0, BuildingBlock: QUQFOY_clean_sbu_3, # of connection points: 4
#     Node 130, Type 0, BuildingBlock: QUQFOY_clean_sbu_3, # of connection points: 4
#     Node 131, Type 0, BuildingBlock: QUQFOY_clean_sbu_3, # of connection points: 4
#     Node 132, Type 0, BuildingBlock: QUQFOY_clean_sbu_3, # of connection points: 4
#     Node 133, Type 0, BuildingBlock: QUQFOY_clean_sbu_3, # of connection points: 4
#     Node 134, Type 0, BuildingBlock: QUQFOY_clean_sbu_3, # of connection points: 4
#     Node 135, Type 0, BuildingBlock: QUQFOY_clean_sbu_3, # of connection points: 4
#     Node 136, Type 0, BuildingBlock: QUQFOY_clean_sbu_3, # of connection points: 4
#     Node 137, Type 0, BuildingBlock: QUQFOY_clean_sbu_3, # of connection points: 4
#     Node 138, Type 0, BuildingBlock: QUQFOY_clean_sbu_3, # of connection points: 4
#     Node 139, Type 0, BuildingBlock: QUQFOY_clean_sbu_3, # of connection points: 4
#     Node 140, Type 0, BuildingBlock: QUQFOY_clean_sbu_3, # of connection points: 4
#     Node 141, Type 0, BuildingBlock: QUQFOY_clean_sbu_3, # of connection points: 4
#     Node 142, Type 0, BuildingBlock: QUQFOY_clean_sbu_3, # of connection points: 4
#     Node 143, Type 0, BuildingBlock: QUQFOY_clean_sbu_3, # of connection points: 4
#     Node 144, Type 0, BuildingBlock: QUQFOY_clean_sbu_3, # of connection points: 4
#     Node 145, Type 0, BuildingBlock: QUQFOY_clean_sbu_3, # of connection points: 4
#     Node 146, Type 0, BuildingBlock: QUQFOY_clean_sbu_3, # of connection points: 4
#     Node 147, Type 0, BuildingBlock: QUQFOY_clean_sbu_3, # of connection points: 4
#     Node 148, Type 0, BuildingBlock: QUQFOY_clean_sbu_3, # of connection points: 4
#     Node 149, Type 0, BuildingBlock: QUQFOY_clean_sbu_3, # of connection points: 4
#     Node 150, Type 0, BuildingBlock: QUQFOY_clean_sbu_3, # of connection points: 4
#     Node 151, Type 0, BuildingBlock: QUQFOY_clean_sbu_3, # of connection points: 4
#     Node 152, Type 0, BuildingBlock: QUQFOY_clean_sbu_3, # of connection points: 4
#     Node 153, Type 0, BuildingBlock: QUQFOY_clean_sbu_3, # of connection points: 4
#     Node 154, Type 0, BuildingBlock: QUQFOY_clean_sbu_3, # of connection points: 4
#     Node 155, Type 0, BuildingBlock: QUQFOY_clean_sbu_3, # of connection points: 4
#     Node 156, Type 0, BuildingBlock: QUQFOY_clean_sbu_3, # of connection points: 4
#     Node 157, Type 0, BuildingBlock: QUQFOY_clean_sbu_3, # of connection points: 4
#     Node 158, Type 0, BuildingBlock: QUQFOY_clean_sbu_3, # of connection points: 4
#     Node 159, Type 0, BuildingBlock: QUQFOY_clean_sbu_3, # of connection points: 4
#     Node 160, Type 0, BuildingBlock: QUQFOY_clean_sbu_3, # of connection points: 4
#     Node 161, Type 0, BuildingBlock: QUQFOY_clean_sbu_3, # of connection points: 4
#     Node 162, Type 0, BuildingBlock: QUQFOY_clean_sbu_3, # of connection points: 4
#     Node 163, Type 0, BuildingBlock: QUQFOY_clean_sbu_3, # of connection points: 4
#     Node 164, Type 0, BuildingBlock: QUQFOY_clean_sbu_3, # of connection points: 4
#     Node 165, Type 0, BuildingBlock: QUQFOY_clean_sbu_3, # of connection points: 4
#     Node 166, Type 0, BuildingBlock: QUQFOY_clean_sbu_3, # of connection points: 4
#     Node 167, Type 0, BuildingBlock: QUQFOY_clean_sbu_3, # of connection points: 4
#     Node 168, Type 0, BuildingBlock: QUQFOY_clean_sbu_3, # of connection points: 4
#     Node 169, Type 0, BuildingBlock: QUQFOY_clean_sbu_3, # of connection points: 4
#     Node 170, Type 0, BuildingBlock: QUQFOY_clean_sbu_3, # of connection points: 4
#     Node 171, Type 0, BuildingBlock: QUQFOY_clean_sbu_3, # of connection points: 4
#     Node 172, Type 0, BuildingBlock: QUQFOY_clean_sbu_3, # of connection points: 4
#     Node 173, Type 0, BuildingBlock: QUQFOY_clean_sbu_3, # of connection points: 4
#     Node 174, Type 0, BuildingBlock: QUQFOY_clean_sbu_3, # of connection points: 4
#     Node 175, Type 0, BuildingBlock: QUQFOY_clean_sbu_3, # of connection points: 4
#     Node 176, Type 0, BuildingBlock: QUQFOY_clean_sbu_3, # of connection points: 4
#     Node 177, Type 0, BuildingBlock: QUQFOY_clean_sbu_3, # of connection points: 4
#     Node 178, Type 0, BuildingBlock: QUQFOY_clean_sbu_3, # of connection points: 4
#     Node 179, Type 0, BuildingBlock: QUQFOY_clean_sbu_3, # of connection points: 4
#     Node 180, Type 0, BuildingBlock: QUQFOY_clean_sbu_3, # of connection points: 4
#     Node 181, Type 0, BuildingBlock: QUQFOY_clean_sbu_3, # of connection points: 4
#     Node 182, Type 0, BuildingBlock: QUQFOY_clean_sbu_3, # of connection points: 4
#     Node 183, Type 0, BuildingBlock: QUQFOY_clean_sbu_3, # of connection points: 4
#     Node 184, Type 0, BuildingBlock: QUQFOY_clean_sbu_3, # of connection points: 4
#     Node 185, Type 0, BuildingBlock: QUQFOY_clean_sbu_3, # of connection points: 4
#     Node 186, Type 0, BuildingBlock: QUQFOY_clean_sbu_3, # of connection points: 4
#     Node 187, Type 0, BuildingBlock: QUQFOY_clean_sbu_3, # of connection points: 4
#     Node 188, Type 0, BuildingBlock: QUQFOY_clean_sbu_3, # of connection points: 4
#     Node 189, Type 0, BuildingBlock: QUQFOY_clean_sbu_3, # of connection points: 4
#     Node 190, Type 0, BuildingBlock: QUQFOY_clean_sbu_3, # of connection points: 4
#     Node 191, Type 0, BuildingBlock: QUQFOY_clean_sbu_3, # of connection points: 4
#     Edge 192, Type (0, 0), None
#     Edge 193, Type (0, 0), None
#     Edge 194, Type (0, 0), None
#     Edge 195, Type (0, 0), None
#     Edge 196, Type (0, 0), None
#     Edge 197, Type (0, 0), None
#     Edge 198, Type (0, 0), None
#     Edge 199, Type (0, 0), None
#     Edge 200, Type (0, 0), None
#     Edge 201, Type (0, 0), None
#     Edge 202, Type (0, 0), None
#     Edge 203, Type (0, 0), None
#     Edge 204, Type (0, 0), None
#     Edge 205, Type (0, 0), None
#     Edge 206, Type (0, 0), None
#     Edge 207, Type (0, 0), None
#     Edge 208, Type (0, 0), None
#     Edge 209, Type (0, 0), None
#     Edge 210, Type (0, 0), None
#     Edge 211, Type (0, 0), None
#     Edge 212, Type (0, 0), None
#     Edge 213, Type (0, 0), None
#     Edge 214, Type (0, 0), None
#     Edge 215, Type (0, 0), None
#     Edge 216, Type (0, 0), None
#     Edge 217, Type (0, 0), None
#     Edge 218, Type (0, 0), None
#     Edge 219, Type (0, 0), None
#     Edge 220, Type (0, 0), None
#     Edge 221, Type (0, 0), None
#     Edge 222, Type (0, 0), None
#     Edge 223, Type (0, 0), None
#     Edge 224, Type (0, 0), None
#     Edge 225, Type (0, 0), None
#     Edge 226, Type (0, 0), None
#     Edge 227, Type (0, 0), None
#     Edge 228, Type (0, 0), None
#     Edge 229, Type (0, 0), None
#     Edge 230, Type (0, 0), None
#     Edge 231, Type (0, 0), None
#     Edge 232, Type (0, 0), None
#     Edge 233, Type (0, 0), None
#     Edge 234, Type (0, 0), None
#     Edge 235, Type (0, 0), None
#     Edge 236, Type (0, 0), None
#     Edge 237, Type (0, 0), None
#     Edge 238, Type (0, 0), None
#     Edge 239, Type (0, 0), None
#     Edge 240, Type (0, 0), None
#     Edge 241, Type (0, 0), None
#     Edge 242, Type (0, 0), None
#     Edge 243, Type (0, 0), None
#     Edge 244, Type (0, 0), None
#     Edge 245, Type (0, 0), None
#     Edge 246, Type (0, 0), None
#     Edge 247, Type (0, 0), None
#     Edge 248, Type (0, 0), None
#     Edge 249, Type (0, 0), None
#     Edge 250, Type (0, 0), None
#     Edge 251, Type (0, 0), None
#     Edge 252, Type (0, 0), None
#     Edge 253, Type (0, 0), None
#     Edge 254, Type (0, 0), None
#     Edge 255, Type (0, 0), None
#     Edge 256, Type (0, 0), None
#     Edge 257, Type (0, 0), None
#     Edge 258, Type (0, 0), None
#     Edge 259, Type (0, 0), None
#     Edge 260, Type (0, 0), None
#     Edge 261, Type (0, 0), None
#     Edge 262, Type (0, 0), None
#     Edge 263, Type (0, 0), None
#     Edge 264, Type (0, 0), None
#     Edge 265, Type (0, 0), None
#     Edge 266, Type (0, 0), None
#     Edge 267, Type (0, 0), None
#     Edge 268, Type (0, 0), None
#     Edge 269, Type (0, 0), None
#     Edge 270, Type (0, 0), None
#     Edge 271, Type (0, 0), None
#     Edge 272, Type (0, 0), None
#     Edge 273, Type (0, 0), None
#     Edge 274, Type (0, 0), None
#     Edge 275, Type (0, 0), None
#     Edge 276, Type (0, 0), None
#     Edge 277, Type (0, 0), None
#     Edge 278, Type (0, 0), None
#     Edge 279, Type (0, 0), None
#     Edge 280, Type (0, 0), None
#     Edge 281, Type (0, 0), None
#     Edge 282, Type (0, 0), None
#     Edge 283, Type (0, 0), None
#     Edge 284, Type (0, 0), None
#     Edge 285, Type (0, 0), None
#     Edge 286, Type (0, 0), None
#     Edge 287, Type (0, 0), None
#     Edge 288, Type (0, 0), None
#     Edge 289, Type (0, 0), None
#     Edge 290, Type (0, 0), None
#     Edge 291, Type (0, 0), None
#     Edge 292, Type (0, 0), None
#     Edge 293, Type (0, 0), None
#     Edge 294, Type (0, 0), None
#     Edge 295, Type (0, 0), None
#     Edge 296, Type (0, 0), None
#     Edge 297, Type (0, 0), None
#     Edge 298, Type (0, 0), None
#     Edge 299, Type (0, 0), None
#     Edge 300, Type (0, 0), None
#     Edge 301, Type (0, 0), None
#     Edge 302, Type (0, 0), None
#     Edge 303, Type (0, 0), None
#     Edge 304, Type (0, 0), None
#     Edge 305, Type (0, 0), None
#     Edge 306, Type (0, 0), None
#     Edge 307, Type (0, 0), None
#     Edge 308, Type (0, 0), None
#     Edge 309, Type (0, 0), None
#     Edge 310, Type (0, 0), None
#     Edge 311, Type (0, 0), None
#     Edge 312, Type (0, 0), None
#     Edge 313, Type (0, 0), None
#     Edge 314, Type (0, 0), None
#     Edge 315, Type (0, 0), None
#     Edge 316, Type (0, 0), None
#     Edge 317, Type (0, 0), None
#     Edge 318, Type (0, 0), None
#     Edge 319, Type (0, 0), None
#     Edge 320, Type (0, 0), None
#     Edge 321, Type (0, 0), None
#     Edge 322, Type (0, 0), None
#     Edge 323, Type (0, 0), None
#     Edge 324, Type (0, 0), None
#     Edge 325, Type (0, 0), None
#     Edge 326, Type (0, 0), None
#     Edge 327, Type (0, 0), None
#     Edge 328, Type (0, 0), None
#     Edge 329, Type (0, 0), None
#     Edge 330, Type (0, 0), None
#     Edge 331, Type (0, 0), None
#     Edge 332, Type (0, 0), None
#     Edge 333, Type (0, 0), None
#     Edge 334, Type (0, 0), None
#     Edge 335, Type (0, 0), None
#     Edge 336, Type (0, 0), None
#     Edge 337, Type (0, 0), None
#     Edge 338, Type (0, 0), None
#     Edge 339, Type (0, 0), None
#     Edge 340, Type (0, 0), None
#     Edge 341, Type (0, 0), None
#     Edge 342, Type (0, 0), None
#     Edge 343, Type (0, 0), None
#     Edge 344, Type (0, 0), None
#     Edge 345, Type (0, 0), None
#     Edge 346, Type (0, 0), None
#     Edge 347, Type (0, 0), None
#     Edge 348, Type (0, 0), None
#     Edge 349, Type (0, 0), None
#     Edge 350, Type (0, 0), None
#     Edge 351, Type (0, 0), None
#     Edge 352, Type (0, 0), None
#     Edge 353, Type (0, 0), None
#     Edge 354, Type (0, 0), None
#     Edge 355, Type (0, 0), None
#     Edge 356, Type (0, 0), None
#     Edge 357, Type (0, 0), None
#     Edge 358, Type (0, 0), None
#     Edge 359, Type (0, 0), None
#     Edge 360, Type (0, 0), None
#     Edge 361, Type (0, 0), None
#     Edge 362, Type (0, 0), None
#     Edge 363, Type (0, 0), None
#     Edge 364, Type (0, 0), None
#     Edge 365, Type (0, 0), None
#     Edge 366, Type (0, 0), None
#     Edge 367, Type (0, 0), None
#     Edge 368, Type (0, 0), None
#     Edge 369, Type (0, 0), None
#     Edge 370, Type (0, 0), None
#     Edge 371, Type (0, 0), None
#     Edge 372, Type (0, 0), None
#     Edge 373, Type (0, 0), None
#     Edge 374, Type (0, 0), None
#     Edge 375, Type (0, 0), None
#     Edge 376, Type (0, 0), None
#     Edge 377, Type (0, 0), None
#     Edge 378, Type (0, 0), None
#     Edge 379, Type (0, 0), None
#     Edge 380, Type (0, 0), None
#     Edge 381, Type (0, 0), None
#     Edge 382, Type (0, 0), None
#     Edge 383, Type (0, 0), None
#     Edge 384, Type (0, 0), None
#     Edge 385, Type (0, 0), None
#     Edge 386, Type (0, 0), None
#     Edge 387, Type (0, 0), None
#     Edge 388, Type (0, 0), None
#     Edge 389, Type (0, 0), None
#     Edge 390, Type (0, 0), None
#     Edge 391, Type (0, 0), None
#     Edge 392, Type (0, 0), None
#     Edge 393, Type (0, 0), None
#     Edge 394, Type (0, 0), None
#     Edge 395, Type (0, 0), None
#     Edge 396, Type (0, 0), None
#     Edge 397, Type (0, 0), None
#     Edge 398, Type (0, 0), None
#     Edge 399, Type (0, 0), None
#     Edge 400, Type (0, 0), None
#     Edge 401, Type (0, 0), None
#     Edge 402, Type (0, 0), None
#     Edge 403, Type (0, 0), None
#     Edge 404, Type (0, 0), None
#     Edge 405, Type (0, 0), None
#     Edge 406, Type (0, 0), None
#     Edge 407, Type (0, 0), None
#     Edge 408, Type (0, 0), None
#     Edge 409, Type (0, 0), None
#     Edge 410, Type (0, 0), None
#     Edge 411, Type (0, 0), None
#     Edge 412, Type (0, 0), None
#     Edge 413, Type (0, 0), None
#     Edge 414, Type (0, 0), None
#     Edge 415, Type (0, 0), None
#     Edge 416, Type (0, 0), None
#     Edge 417, Type (0, 0), None
#     Edge 418, Type (0, 0), None
#     Edge 419, Type (0, 0), None
#     Edge 420, Type (0, 0), None
#     Edge 421, Type (0, 0), None
#     Edge 422, Type (0, 0), None
#     Edge 423, Type (0, 0), None
#     Edge 424, Type (0, 0), None
#     Edge 425, Type (0, 0), None
#     Edge 426, Type (0, 0), None
#     Edge 427, Type (0, 0), None
#     Edge 428, Type (0, 0), None
#     Edge 429, Type (0, 0), None
#     Edge 430, Type (0, 0), None
#     Edge 431, Type (0, 0), None
#     Edge 432, Type (0, 0), None
#     Edge 433, Type (0, 0), None
#     Edge 434, Type (0, 0), None
#     Edge 435, Type (0, 0), None
#     Edge 436, Type (0, 0), None
#     Edge 437, Type (0, 0), None
#     Edge 438, Type (0, 0), None
#     Edge 439, Type (0, 0), None
#     Edge 440, Type (0, 0), None
#     Edge 441, Type (0, 0), None
#     Edge 442, Type (0, 0), None
#     Edge 443, Type (0, 0), None
#     Edge 444, Type (0, 0), None
#     Edge 445, Type (0, 0), None
#     Edge 446, Type (0, 0), None
#     Edge 447, Type (0, 0), None
#     Edge 448, Type (0, 0), None
#     Edge 449, Type (0, 0), None
#     Edge 450, Type (0, 0), None
#     Edge 451, Type (0, 0), None
#     Edge 452, Type (0, 0), None
#     Edge 453, Type (0, 0), None
#     Edge 454, Type (0, 0), None
#     Edge 455, Type (0, 0), None
#     Edge 456, Type (0, 0), None
#     Edge 457, Type (0, 0), None
#     Edge 458, Type (0, 0), None
#     Edge 459, Type (0, 0), None
#     Edge 460, Type (0, 0), None
#     Edge 461, Type (0, 0), None
#     Edge 462, Type (0, 0), None
#     Edge 463, Type (0, 0), None
#     Edge 464, Type (0, 0), None
#     Edge 465, Type (0, 0), None
#     Edge 466, Type (0, 0), None
#     Edge 467, Type (0, 0), None
#     Edge 468, Type (0, 0), None
#     Edge 469, Type (0, 0), None
#     Edge 470, Type (0, 0), None
#     Edge 471, Type (0, 0), None
#     Edge 472, Type (0, 0), None
#     Edge 473, Type (0, 0), None
#     Edge 474, Type (0, 0), None
#     Edge 475, Type (0, 0), None
#     Edge 476, Type (0, 0), None
#     Edge 477, Type (0, 0), None
#     Edge 478, Type (0, 0), None
#     Edge 479, Type (0, 0), None
#     Edge 480, Type (0, 0), None
#     Edge 481, Type (0, 0), None
#     Edge 482, Type (0, 0), None
#     Edge 483, Type (0, 0), None
#     Edge 484, Type (0, 0), None
#     Edge 485, Type (0, 0), None
#     Edge 486, Type (0, 0), None
#     Edge 487, Type (0, 0), None
#     Edge 488, Type (0, 0), None
#     Edge 489, Type (0, 0), None
#     Edge 490, Type (0, 0), None
#     Edge 491, Type (0, 0), None
#     Edge 492, Type (0, 0), None
#     Edge 493, Type (0, 0), None
#     Edge 494, Type (0, 0), None
#     Edge 495, Type (0, 0), None
#     Edge 496, Type (0, 0), None
#     Edge 497, Type (0, 0), None
#     Edge 498, Type (0, 0), None
#     Edge 499, Type (0, 0), None
#     Edge 500, Type (0, 0), None
#     Edge 501, Type (0, 0), None
#     Edge 502, Type (0, 0), None
#     Edge 503, Type (0, 0), None
#     Edge 504, Type (0, 0), None
#     Edge 505, Type (0, 0), None
#     Edge 506, Type (0, 0), None
#     Edge 507, Type (0, 0), None
#     Edge 508, Type (0, 0), None
#     Edge 509, Type (0, 0), None
#     Edge 510, Type (0, 0), None
#     Edge 511, Type (0, 0), None
#     Edge 512, Type (0, 0), None
#     Edge 513, Type (0, 0), None
#     Edge 514, Type (0, 0), None
#     Edge 515, Type (0, 0), None
#     Edge 516, Type (0, 0), None
#     Edge 517, Type (0, 0), None
#     Edge 518, Type (0, 0), None
#     Edge 519, Type (0, 0), None
#     Edge 520, Type (0, 0), None
#     Edge 521, Type (0, 0), None
#     Edge 522, Type (0, 0), None
#     Edge 523, Type (0, 0), None
#     Edge 524, Type (0, 0), None
#     Edge 525, Type (0, 0), None
#     Edge 526, Type (0, 0), None
#     Edge 527, Type (0, 0), None
#     Edge 528, Type (0, 0), None
#     Edge 529, Type (0, 0), None
#     Edge 530, Type (0, 0), None
#     Edge 531, Type (0, 0), None
#     Edge 532, Type (0, 0), None
#     Edge 533, Type (0, 0), None
#     Edge 534, Type (0, 0), None
#     Edge 535, Type (0, 0), None
#     Edge 536, Type (0, 0), None
#     Edge 537, Type (0, 0), None
#     Edge 538, Type (0, 0), None
#     Edge 539, Type (0, 0), None
#     Edge 540, Type (0, 0), None
#     Edge 541, Type (0, 0), None
#     Edge 542, Type (0, 0), None
#     Edge 543, Type (0, 0), None
#     Edge 544, Type (0, 0), None
#     Edge 545, Type (0, 0), None
#     Edge 546, Type (0, 0), None
#     Edge 547, Type (0, 0), None
#     Edge 548, Type (0, 0), None
#     Edge 549, Type (0, 0), None
#     Edge 550, Type (0, 0), None
#     Edge 551, Type (0, 0), None
#     Edge 552, Type (0, 0), None
#     Edge 553, Type (0, 0), None
#     Edge 554, Type (0, 0), None
#     Edge 555, Type (0, 0), None
#     Edge 556, Type (0, 0), None
#     Edge 557, Type (0, 0), None
#     Edge 558, Type (0, 0), None
#     Edge 559, Type (0, 0), None
#     Edge 560, Type (0, 0), None
#     Edge 561, Type (0, 0), None
#     Edge 562, Type (0, 0), None
#     Edge 563, Type (0, 0), None
#     Edge 564, Type (0, 0), None
#     Edge 565, Type (0, 0), None
#     Edge 566, Type (0, 0), None
#     Edge 567, Type (0, 0), None
#     Edge 568, Type (0, 0), None
#     Edge 569, Type (0, 0), None
#     Edge 570, Type (0, 0), None
#     Edge 571, Type (0, 0), None
#     Edge 572, Type (0, 0), None
#     Edge 573, Type (0, 0), None
#     Edge 574, Type (0, 0), None
#     Edge 575, Type (0, 0), None
# Relax obj value: 0.085
# Max RMSD: 0.077
# Mean RMSD: 0.077
data_MOF--net-fau--node1-QUQFOY_clean_sbu_3--edge1-none
_symmetry_space_group_name_H-M    P1
_symmetry_Int_Tables_number       1
_symmetry_cell_setting            triclinic
loop_
_symmetry_equiv_pos_as_xyz
'x, y, z'
_cell_length_a     58.033843
_cell_length_b     58.034184
_cell_length_c     58.031002
_cell_angle_alpha  90.000806
_cell_angle_beta   89.99847
_cell_angle_gamma 90.001211
loop_
_atom_site_label
_atom_site_type_symbol
_atom_site_fract_x
_atom_site_fract_y
_atom_site_fract_z
_atom_type_partial_charge
C0 C -0.00999 0.08477 0.47208 0.0
O1 O 0.00426 0.06827 0.4731 0.0
Cd2 Cd 0.02466 0.05471 0.44165 0.0
O3 O -0.01042 0.09819 0.45456 0.0
Cd4 Cd 0.01693 0.10303 0.41972 0.0
C5 C -0.01606 0.06313 0.39752 0.0
O6 O 0.05102 0.08381 0.43428 0.0
O7 O 0.04804 0.08214 0.39763 0.0
O8 O 0.02645 0.13998 0.43603 0.0
C9 C 0.06001 0.07791 0.4154 0.0
O10 O -0.00498 0.05136 0.41233 0.0
C11 C 0.03112 0.14989 0.41713 0.0
O12 O -0.01228 0.08462 0.39498 0.0
O13 O 0.02597 0.13906 0.39879 0.0
C14 C 0.86411 0.24002 0.72208 0.0
O15 O 0.88062 0.25426 0.7231 0.0
Cd16 Cd 0.89418 0.27467 0.69165 0.0
O17 O 0.8507 0.23959 0.70456 0.0
Cd18 Cd 0.84587 0.26694 0.66971 0.0
C19 C 0.88577 0.23394 0.64752 0.0
O20 O 0.86509 0.30103 0.68428 0.0
O21 O 0.86676 0.29805 0.64763 0.0
O22 O 0.80892 0.27646 0.68603 0.0
C23 C 0.87099 0.31002 0.6654 0.0
O24 O 0.89754 0.24502 0.66233 0.0
C25 C 0.79901 0.28113 0.66713 0.0
O26 O 0.86428 0.23773 0.64497 0.0
O27 O 0.80984 0.27598 0.64878 0.0
C28 C 0.70888 0.1141 0.97209 0.0
O29 O 0.69463 0.1306 0.97312 0.0
Cd30 Cd 0.67423 0.14417 0.94167 0.0
O31 O 0.70931 0.10069 0.95456 0.0
Cd32 Cd 0.68196 0.09586 0.91972 0.0
C33 C 0.71496 0.13576 0.89753 0.0
O34 O 0.64787 0.11508 0.93428 0.0
O35 O 0.65086 0.11675 0.89764 0.0
O36 O 0.67244 0.05891 0.93603 0.0
C37 C 0.63889 0.12098 0.9154 0.0
O38 O 0.70388 0.14753 0.91235 0.0
C39 C 0.66777 0.049 0.91713 0.0
O40 O 0.71117 0.11428 0.89499 0.0
O41 O 0.67292 0.05983 0.89879 0.0
C42 C 0.83481 0.95886 0.22208 0.0
O43 O 0.81831 0.94461 0.22311 0.0
Cd44 Cd 0.80474 0.92421 0.19165 0.0
O45 O 0.84822 0.95929 0.20455 0.0
Cd46 Cd 0.85305 0.93193 0.16972 0.0
C47 C 0.81317 0.96494 0.14751 0.0
O48 O 0.83382 0.89785 0.18428 0.0
O49 O 0.83215 0.90083 0.14763 0.0
O50 O 0.89 0.92239 0.18602 0.0
C51 C 0.82792 0.88886 0.1654 0.0
O52 O 0.8014 0.95386 0.16233 0.0
C53 C 0.89991 0.91772 0.16712 0.0
O54 O 0.83465 0.96115 0.14497 0.0
O55 O 0.88908 0.92288 0.14878 0.0
C56 C -0.01001 0.11412 0.72685 0.0
O57 O 0.00424 0.13062 0.72583 0.0
Cd58 Cd 0.02465 0.14419 0.75728 0.0
O59 O -0.01044 0.10071 0.74437 0.0
Cd60 Cd 0.01691 0.09588 0.77922 0.0
C61 C -0.01609 0.13577 0.80141 0.0
O62 O 0.051 0.11509 0.76466 0.0
O63 O 0.04802 0.11675 0.80131 0.0
O64 O 0.02642 0.05893 0.76291 0.0
C65 C 0.05999 0.12098 0.78354 0.0
O66 O -0.00501 0.14755 0.7866 0.0
C67 C 0.03109 0.04901 0.7818 0.0
O68 O -0.0123 0.11429 0.80395 0.0
O69 O 0.02594 0.05984 0.80015 0.0
C70 C 0.83478 0.24001 -0.02314 0.0
O71 O 0.81827 0.25425 -0.02416 0.0
Cd72 Cd 0.80471 0.27466 0.00729 0.0
O73 O 0.84819 0.23958 -0.00562 0.0
Cd74 Cd 0.85302 0.26693 0.02922 0.0
C75 C 0.81313 0.23394 0.05143 0.0
O76 O 0.8338 0.30102 0.01466 0.0
O77 O 0.83214 0.29804 0.05131 0.0
O78 O 0.88998 0.27646 0.01292 0.0
C79 C 0.82791 0.31001 0.03354 0.0
O80 O 0.80136 0.24501 0.03661 0.0
C81 C 0.89989 0.28113 0.03181 0.0
O82 O 0.83461 0.23772 0.05397 0.0
O83 O 0.88906 0.27598 0.05016 0.0
C84 C 0.70889 0.08478 0.22686 0.0
O85 O 0.69464 0.06828 0.22583 0.0
Cd86 Cd 0.67423 0.05471 0.25729 0.0
O87 O 0.70932 0.09819 0.24438 0.0
Cd88 Cd 0.68196 0.10302 0.27922 0.0
C89 C 0.71496 0.06313 0.30142 0.0
O90 O 0.64787 0.0838 0.26467 0.0
O91 O 0.65086 0.08214 0.30131 0.0
O92 O 0.67244 0.13997 0.26291 0.0
C93 C 0.63889 0.07791 0.28355 0.0
O94 O 0.70388 0.05136 0.28661 0.0
C95 C 0.66777 0.14989 0.28181 0.0
O96 O 0.71118 0.08461 0.30396 0.0
O97 O 0.67292 0.13906 0.30015 0.0
C98 C 0.86411 0.95887 0.47686 0.0
O99 O 0.88061 0.94463 0.47583 0.0
Cd100 Cd 0.89418 0.92422 0.50729 0.0
O101 O 0.8507 0.9593 0.49438 0.0
Cd102 Cd 0.84587 0.93195 0.52922 0.0
C103 C 0.88577 0.96495 0.55142 0.0
O104 O 0.86509 0.89786 0.51467 0.0
O105 O 0.86675 0.90085 0.55131 0.0
O106 O 0.80892 0.92242 0.51291 0.0
C107 C 0.87099 0.88888 0.53354 0.0
O108 O 0.89754 0.95387 0.53661 0.0
C109 C 0.79901 0.91775 0.53181 0.0
O110 O 0.86428 0.96116 0.55396 0.0
O111 O 0.80983 0.92291 0.55015 0.0
C112 C 0.47206 -0.01 0.08481 0.0
O113 O 0.47308 0.00425 0.0683 0.0
Cd114 Cd 0.44163 0.02466 0.05474 0.0
O115 O 0.45454 -0.01042 0.09823 0.0
Cd116 Cd 0.4197 0.01693 0.10306 0.0
C117 C 0.3975 -0.01607 0.06317 0.0
O118 O 0.43426 0.05102 0.08383 0.0
O119 O 0.39762 0.04804 0.08217 0.0
O120 O 0.43602 0.02646 0.14001 0.0
C121 C 0.41539 0.06 0.07794 0.0
O122 O 0.41231 -0.00499 0.05139 0.0
C123 C 0.41712 0.03113 0.14992 0.0
O124 O 0.39496 -0.01228 0.08465 0.0
O125 O 0.39878 0.02598 0.1391 0.0
C126 C 0.95888 0.72205 0.33481 0.0
O127 O 0.94464 0.72307 0.31831 0.0
Cd128 Cd 0.92423 0.69162 0.30474 0.0
O129 O 0.95931 0.70453 0.34822 0.0
Cd130 Cd 0.93196 0.66969 0.35305 0.0
C131 C 0.96496 0.6475 0.31315 0.0
O132 O 0.89787 0.68424 0.33382 0.0
O133 O 0.90085 0.6476 0.33217 0.0
O134 O 0.92243 0.686 0.39 0.0
C135 C 0.88888 0.66537 0.32793 0.0
O136 O 0.95388 0.66231 0.30138 0.0
C137 C 0.91775 0.66711 0.39992 0.0
O138 O 0.96117 0.64495 0.33464 0.0
O139 O 0.92291 0.64876 0.38909 0.0
C140 C 0.22682 0.20888 0.58482 0.0
O141 O 0.2258 0.19463 0.56831 0.0
Cd142 Cd 0.25725 0.17423 0.55474 0.0
O143 O 0.24434 0.2093 0.59823 0.0
Cd144 Cd 0.27918 0.18195 0.60306 0.0
C145 C 0.30138 0.21495 0.56316 0.0
O146 O 0.26463 0.14787 0.58383 0.0
O147 O 0.30127 0.15085 0.58217 0.0
O148 O 0.26287 0.17242 0.64001 0.0
C149 C 0.2835 0.13888 0.57793 0.0
O150 O 0.28657 0.20387 0.55139 0.0
C151 C 0.28176 0.16775 0.64992 0.0
O152 O 0.30392 0.21117 0.58465 0.0
O153 O 0.30011 0.17291 0.6391 0.0
C154 C 0.74001 0.47683 0.83481 0.0
O155 O 0.75425 0.47581 0.81831 0.0
Cd156 Cd 0.77466 0.50726 0.80474 0.0
O157 O 0.73958 0.49435 0.84823 0.0
Cd158 Cd 0.76694 0.52919 0.85306 0.0
C159 C 0.73394 0.55139 0.81317 0.0
O160 O 0.80103 0.51463 0.83383 0.0
O161 O 0.79804 0.55127 0.83217 0.0
O162 O 0.77647 0.51287 0.89001 0.0
C163 C 0.81001 0.5335 0.82794 0.0
O164 O 0.74502 0.53658 0.8014 0.0
C165 C 0.78114 0.53177 0.89993 0.0
O166 O 0.73773 0.55393 0.83466 0.0
O167 O 0.77599 0.55011 0.8891 0.0
C168 C 0.47206 0.20889 0.11414 0.0
O169 O 0.47309 0.19464 0.13064 0.0
Cd170 Cd 0.44164 0.17423 0.14421 0.0
O171 O 0.45454 0.20932 0.10073 0.0
Cd172 Cd 0.41971 0.18195 0.09589 0.0
C173 C 0.3975 0.21494 0.13579 0.0
O174 O 0.43427 0.14786 0.11512 0.0
O175 O 0.39763 0.15084 0.11678 0.0
O176 O 0.43602 0.17242 0.05894 0.0
C177 C 0.4154 0.13887 0.12101 0.0
O178 O 0.41232 0.20387 0.14756 0.0
C179 C 0.41713 0.16775 0.04903 0.0
O180 O 0.39496 0.21116 0.1143 0.0
O181 O 0.39878 0.1729 0.05985 0.0
C182 C 0.74001 0.72206 0.36412 0.0
O183 O 0.75426 0.72308 0.38062 0.0
Cd184 Cd 0.77466 0.69163 0.3942 0.0
O185 O 0.73958 0.70453 0.35071 0.0
Cd186 Cd 0.76693 0.66969 0.34589 0.0
C187 C 0.73393 0.6475 0.38579 0.0
O188 O 0.80102 0.68425 0.36511 0.0
O189 O 0.79803 0.64761 0.36678 0.0
O190 O 0.77645 0.68598 0.30893 0.0
C191 C 0.81001 0.66537 0.37101 0.0
O192 O 0.74501 0.66231 0.39756 0.0
C193 C 0.78112 0.66708 0.29902 0.0
O194 O 0.73772 0.64495 0.3643 0.0
O195 O 0.77598 0.64874 0.30986 0.0
C196 C 0.22684 -0.00998 0.61414 0.0
O197 O 0.22581 0.00427 0.63064 0.0
Cd198 Cd 0.25727 0.02468 0.6442 0.0
O199 O 0.24436 -0.01041 0.60072 0.0
Cd200 Cd 0.2792 0.01695 0.59589 0.0
C201 C 0.3014 -0.01605 0.63578 0.0
O202 O 0.26463 0.05104 0.61511 0.0
O203 O 0.30128 0.04806 0.61678 0.0
O204 O 0.26289 0.02647 0.55893 0.0
C205 C 0.28351 0.06002 0.62101 0.0
O206 O 0.28659 -0.00497 0.64755 0.0
C207 C 0.28178 0.03114 0.54902 0.0
O208 O 0.30394 -0.01226 0.61429 0.0
O209 O 0.30013 0.026 0.55985 0.0
C210 C 0.95888 0.47683 0.86413 0.0
O211 O 0.94463 0.4758 0.88063 0.0
Cd212 Cd 0.92423 0.50725 0.8942 0.0
O213 O 0.95931 0.49435 0.85071 0.0
Cd214 Cd 0.93196 0.52919 0.84589 0.0
C215 C 0.96496 0.55138 0.88578 0.0
O216 O 0.89787 0.51463 0.86511 0.0
O217 O 0.90085 0.55127 0.86678 0.0
O218 O 0.92243 0.51288 0.80894 0.0
C219 C 0.88888 0.5335 0.87101 0.0
O220 O 0.95388 0.53657 0.89756 0.0
C221 C 0.91776 0.53177 0.79902 0.0
O222 O 0.96117 0.55393 0.8643 0.0
O223 O 0.92291 0.55012 0.80985 0.0
C224 C 0.0848 0.47204 -0.00996 0.0
O225 O 0.0683 0.47307 0.0043 0.0
Cd226 Cd 0.05473 0.44161 0.0247 0.0
O227 O 0.09821 0.45452 -0.01039 0.0
Cd228 Cd 0.10304 0.41968 0.01696 0.0
C229 C 0.06315 0.39748 -0.01604 0.0
O230 O 0.08383 0.43424 0.05105 0.0
O231 O 0.08215 0.3976 0.04807 0.0
O232 O 0.14 0.43597 0.02647 0.0
C233 C 0.07792 0.41537 0.06004 0.0
O234 O 0.05138 0.4123 -0.00496 0.0
C235 C 0.14991 0.41707 0.03114 0.0
O236 O 0.08463 0.39494 -0.01225 0.0
O237 O 0.13907 0.39873 0.026 0.0
C238 C 0.5848 0.22683 0.2089 0.0
O239 O 0.5683 0.2258 0.19466 0.0
Cd240 Cd 0.55471 0.25725 0.17425 0.0
O241 O 0.59821 0.24436 0.20934 0.0
Cd242 Cd 0.60302 0.2792 0.18199 0.0
C243 C 0.56311 0.30139 0.21498 0.0
O244 O 0.5838 0.26465 0.14789 0.0
O245 O 0.58214 0.30129 0.15088 0.0
O246 O 0.63997 0.2629 0.17246 0.0
C247 C 0.5779 0.28352 0.13891 0.0
O248 O 0.55135 0.28657 0.2039 0.0
C249 C 0.64989 0.28179 0.16779 0.0
O250 O 0.5846 0.30394 0.21119 0.0
O251 O 0.63906 0.30014 0.17294 0.0
C252 C 0.72206 0.83479 0.45891 0.0
O253 O 0.72309 0.81828 0.44466 0.0
Cd254 Cd 0.69164 0.80471 0.42425 0.0
O255 O 0.70454 0.8482 0.45933 0.0
Cd256 Cd 0.6697 0.85302 0.43198 0.0
C257 C 0.6475 0.81313 0.46498 0.0
O258 O 0.68426 0.8338 0.39789 0.0
O259 O 0.64762 0.83214 0.40087 0.0
O260 O 0.68601 0.88998 0.42246 0.0
C261 C 0.66539 0.82791 0.38891 0.0
O262 O 0.66232 0.80136 0.4539 0.0
C263 C 0.66711 0.89989 0.41779 0.0
O264 O 0.64496 0.83461 0.4612 0.0
O265 O 0.64877 0.88906 0.42294 0.0
C266 C 0.11407 0.97206 0.70892 0.0
O267 O 0.13059 0.97308 0.69468 0.0
Cd268 Cd 0.14418 0.94164 0.67428 0.0
O269 O 0.10067 0.95454 0.70935 0.0
Cd270 Cd 0.09587 0.91968 0.682 0.0
C271 C 0.13578 0.89749 0.71499 0.0
O272 O 0.11509 0.93426 0.64792 0.0
O273 O 0.11675 0.89761 0.65088 0.0
O274 O 0.05891 0.93598 0.67248 0.0
C275 C 0.12099 0.91538 0.63892 0.0
O276 O 0.14755 0.91231 0.70391 0.0
C277 C 0.04901 0.91708 0.66781 0.0
O278 O 0.1143 0.89495 0.71121 0.0
O279 O 0.05984 0.89874 0.67295 0.0
C280 C 0.47684 0.3641 0.45891 0.0
O281 O 0.47582 0.3806 0.44467 0.0
Cd282 Cd 0.50727 0.39417 0.42426 0.0
O283 O 0.49436 0.35068 0.45934 0.0
Cd284 Cd 0.5292 0.34586 0.43199 0.0
C285 C 0.55141 0.38575 0.46499 0.0
O286 O 0.51464 0.36508 0.39789 0.0
O287 O 0.55128 0.36674 0.40088 0.0
O288 O 0.51289 0.30891 0.42245 0.0
C289 C 0.53352 0.37098 0.38891 0.0
O290 O 0.53659 0.39752 0.45391 0.0
C291 C 0.53179 0.299 0.41778 0.0
O292 O 0.55394 0.36426 0.4612 0.0
O293 O 0.55013 0.30983 0.42293 0.0
C294 C 0.11414 0.72684 -0.00999 0.0
O295 O 0.13066 0.72583 0.00424 0.0
Cd296 Cd 0.14423 0.75728 0.02465 0.0
O297 O 0.10072 0.74436 -0.01041 0.0
Cd298 Cd 0.0959 0.7792 0.01693 0.0
C299 C 0.1358 0.80141 -0.01607 0.0
O300 O 0.11513 0.76464 0.05101 0.0
O301 O 0.11677 0.80128 0.04805 0.0
O302 O 0.05895 0.7629 0.02645 0.0
C303 C 0.12101 0.78351 0.06001 0.0
O304 O 0.14758 0.7866 -0.00499 0.0
C305 C 0.04904 0.78179 0.03112 0.0
O306 O 0.11432 0.80394 -0.01228 0.0
O307 O 0.05987 0.80014 0.02597 0.0
C308 C 0.72205 0.86412 0.24003 0.0
O309 O 0.72307 0.88063 0.25428 0.0
Cd310 Cd 0.69162 0.89419 0.27469 0.0
O311 O 0.70453 0.8507 0.23961 0.0
Cd312 Cd 0.66969 0.84587 0.26696 0.0
C313 C 0.64749 0.88576 0.23396 0.0
O314 O 0.68425 0.86509 0.30105 0.0
O315 O 0.64761 0.86675 0.29807 0.0
O316 O 0.68601 0.80892 0.27648 0.0
C317 C 0.66537 0.87099 0.31004 0.0
O318 O 0.6623 0.89753 0.24504 0.0
C319 C 0.66711 0.79901 0.28116 0.0
O320 O 0.64495 0.86428 0.23775 0.0
O321 O 0.64877 0.80983 0.27601 0.0
C322 C -0.02317 0.3348 0.74004 0.0
O323 O -0.02421 0.3183 0.75429 0.0
Cd324 Cd 0.00724 0.30472 0.7747 0.0
O325 O -0.00565 0.3482 0.73961 0.0
Cd326 Cd 0.02919 0.35302 0.76696 0.0
C327 C 0.05138 0.31312 0.73397 0.0
O328 O 0.01464 0.3338 0.80106 0.0
O329 O 0.05128 0.33214 0.79807 0.0
O330 O 0.01289 0.38997 0.77649 0.0
C331 C 0.03351 0.3279 0.81004 0.0
O332 O 0.03656 0.30135 0.74504 0.0
C333 C 0.03178 0.39989 0.78116 0.0
O334 O 0.05393 0.3346 0.73775 0.0
O335 O 0.05013 0.38906 0.77601 0.0
C336 C 0.95889 0.86411 0.47686 0.0
O337 O 0.94465 0.88062 0.47584 0.0
Cd338 Cd 0.92424 0.89419 0.50729 0.0
O339 O 0.95932 0.8507 0.49438 0.0
Cd340 Cd 0.93196 0.84587 0.52922 0.0
C341 C 0.96496 0.88576 0.55143 0.0
O342 O 0.89788 0.8651 0.51466 0.0
O343 O 0.90085 0.86674 0.55131 0.0
O344 O 0.92243 0.80892 0.51291 0.0
C345 C 0.8889 0.87099 0.53354 0.0
O346 O 0.95389 0.89753 0.53661 0.0
C347 C 0.91776 0.799 0.53181 0.0
O348 O 0.96117 0.86428 0.55397 0.0
O349 O 0.92292 0.80983 0.55015 0.0
C350 C 0.08478 0.7089 0.22684 0.0
O351 O 0.06828 0.69465 0.22582 0.0
Cd352 Cd 0.05472 0.67423 0.25727 0.0
O353 O 0.0982 0.70932 0.24436 0.0
Cd354 Cd 0.10304 0.68197 0.2792 0.0
C355 C 0.06314 0.71496 0.30141 0.0
O356 O 0.08381 0.64788 0.26464 0.0
O357 O 0.08216 0.65086 0.30129 0.0
O358 O 0.13998 0.67243 0.26287 0.0
C359 C 0.07792 0.63889 0.28352 0.0
O360 O 0.05137 0.70388 0.2866 0.0
C361 C 0.1499 0.66777 0.28177 0.0
O362 O 0.08463 0.71118 0.30394 0.0
O363 O 0.13908 0.67293 0.30012 0.0
C364 C 0.24002 0.83482 -0.02317 0.0
O365 O 0.25427 0.81832 -0.0242 0.0
Cd366 Cd 0.27466 0.80473 0.00725 0.0
O367 O 0.23958 0.84822 -0.00564 0.0
Cd368 Cd 0.26692 0.85303 0.02921 0.0
C369 C 0.23393 0.81312 0.05139 0.0
O370 O 0.30102 0.83381 0.01466 0.0
O371 O 0.29803 0.83215 0.0513 0.0
O372 O 0.27645 0.88999 0.01292 0.0
C373 C 0.31 0.82792 0.03354 0.0
O374 O 0.24501 0.80135 0.03657 0.0
C375 C 0.28112 0.8999 0.03181 0.0
O376 O 0.23772 0.8346 0.05394 0.0
O377 O 0.27596 0.88906 0.05016 0.0
C378 C 0.11405 -0.00997 0.72684 0.0
O379 O 0.13052 0.0043 0.72579 0.0
Cd380 Cd 0.14411 0.02469 0.75725 0.0
O381 O 0.10066 -0.01042 0.74438 0.0
Cd382 Cd 0.09582 0.01695 0.77921 0.0
C383 C 0.13571 -0.01606 0.80137 0.0
O384 O 0.11504 0.05105 0.76467 0.0
O385 O 0.11672 0.04803 0.80131 0.0
O386 O 0.05887 0.02648 0.7629 0.0
C387 C 0.12095 0.06001 0.78355 0.0
O388 O 0.14747 -0.00498 0.78655 0.0
C389 C 0.04897 0.03114 0.7818 0.0
O390 O 0.11423 -0.01227 0.80394 0.0
O391 O 0.05979 0.02598 0.80015 0.0
C392 C 0.95889 0.83473 0.22207 0.0
O393 O 0.94466 0.81821 0.22308 0.0
Cd394 Cd 0.92424 0.80466 0.19162 0.0
O395 O 0.95931 0.84816 0.20456 0.0
Cd396 Cd 0.93196 0.85298 0.16971 0.0
C397 C 0.96496 0.8131 0.14749 0.0
O398 O 0.89788 0.83376 0.18428 0.0
O399 O 0.90084 0.83211 0.14763 0.0
O400 O 0.92244 0.88993 0.18603 0.0
C401 C 0.88888 0.82788 0.16541 0.0
O402 O 0.95389 0.80131 0.1623 0.0
C403 C 0.91777 0.89984 0.16712 0.0
O404 O 0.96117 0.83458 0.14496 0.0
O405 O 0.92292 0.88902 0.14878 0.0
C406 C 0.11412 0.70888 0.97208 0.0
O407 O 0.13061 0.69462 0.97312 0.0
Cd408 Cd 0.14417 0.67421 0.94166 0.0
O409 O 0.10071 0.70931 0.95455 0.0
Cd410 Cd 0.09586 0.68195 0.91972 0.0
C411 C 0.13576 0.71495 0.89753 0.0
O412 O 0.11508 0.64786 0.93427 0.0
O413 O 0.11674 0.65085 0.89763 0.0
O414 O 0.05891 0.67243 0.93604 0.0
C415 C 0.12097 0.63887 0.91539 0.0
O416 O 0.14753 0.70387 0.91234 0.0
C417 C 0.049 0.66776 0.91714 0.0
O418 O 0.11428 0.71116 0.89498 0.0
O419 O 0.05982 0.67291 0.89879 0.0
C420 C 0.24003 0.86408 0.72208 0.0
O421 O 0.25428 0.88057 0.72311 0.0
Cd422 Cd 0.27468 0.89417 0.69166 0.0
O423 O 0.2396 0.85068 0.70454 0.0
Cd424 Cd 0.26695 0.84586 0.6697 0.0
C425 C 0.23395 0.88577 0.64753 0.0
O426 O 0.30104 0.86509 0.68426 0.0
O427 O 0.29805 0.86676 0.64762 0.0
O428 O 0.27647 0.80891 0.686 0.0
C429 C 0.31002 0.87099 0.66538 0.0
O430 O 0.24502 0.89753 0.66235 0.0
C431 C 0.28114 0.799 0.66711 0.0
O432 O 0.23773 0.86429 0.64497 0.0
O433 O 0.27599 0.80983 0.64876 0.0
C434 C 0.08477 -0.00999 0.47209 0.0
O435 O 0.06827 0.00425 0.47312 0.0
Cd436 Cd 0.0547 0.02465 0.44167 0.0
O437 O 0.09819 -0.01042 0.45457 0.0
Cd438 Cd 0.10301 0.01693 0.41973 0.0
C439 C 0.06312 -0.01607 0.39753 0.0
O440 O 0.08378 0.05102 0.43429 0.0
O441 O 0.08214 0.04804 0.39763 0.0
O442 O 0.13996 0.02646 0.43603 0.0
C443 C 0.07789 0.06 0.41541 0.0
O444 O 0.05134 -0.00499 0.41234 0.0
C445 C 0.14988 0.03113 0.41714 0.0
O446 O 0.0846 -0.01228 0.39499 0.0
O447 O 0.13905 0.02598 0.39879 0.0
C448 C 0.47683 0.95889 0.86413 0.0
O449 O 0.47581 0.94464 0.88064 0.0
Cd450 Cd 0.50726 0.92423 0.89421 0.0
O451 O 0.49436 0.95931 0.85072 0.0
Cd452 Cd 0.52919 0.93196 0.84589 0.0
C453 C 0.55139 0.96496 0.88579 0.0
O454 O 0.51463 0.89787 0.86512 0.0
O455 O 0.55128 0.90085 0.86677 0.0
O456 O 0.51288 0.92243 0.80894 0.0
C457 C 0.53351 0.88888 0.87101 0.0
O458 O 0.53658 0.95388 0.89756 0.0
C459 C 0.53178 0.91776 0.79902 0.0
O460 O 0.55393 0.96117 0.8643 0.0
O461 O 0.55012 0.92292 0.80985 0.0
C462 C -0.00999 0.22683 0.61413 0.0
O463 O 0.00426 0.22581 0.63064 0.0
Cd464 Cd 0.02467 0.25725 0.64421 0.0
O465 O -0.01041 0.24435 0.60072 0.0
Cd466 Cd 0.01694 0.27919 0.59589 0.0
C467 C -0.01606 0.30139 0.6358 0.0
O468 O 0.05103 0.26463 0.61512 0.0
O469 O 0.04805 0.30127 0.61678 0.0
O470 O 0.02647 0.26289 0.55894 0.0
C471 C 0.06002 0.28351 0.62102 0.0
O472 O -0.00498 0.28658 0.64757 0.0
C473 C 0.03114 0.28178 0.54903 0.0
O474 O -0.01227 0.30393 0.61431 0.0
O475 O 0.02599 0.30013 0.55986 0.0
C476 C 0.72207 0.74001 0.36411 0.0
O477 O 0.72311 0.75426 0.38061 0.0
Cd478 Cd 0.69166 0.77466 0.3942 0.0
O479 O 0.70455 0.73957 0.35071 0.0
Cd480 Cd 0.66971 0.76693 0.34589 0.0
C481 C 0.64753 0.73393 0.38579 0.0
O482 O 0.68427 0.80102 0.36512 0.0
O483 O 0.64762 0.79804 0.36677 0.0
O484 O 0.68602 0.77647 0.30894 0.0
C485 C 0.66539 0.81 0.37102 0.0
O486 O 0.66234 0.74501 0.39756 0.0
C487 C 0.66712 0.78114 0.29903 0.0
O488 O 0.64498 0.73772 0.3643 0.0
O489 O 0.64877 0.77597 0.30986 0.0
C490 C 0.20889 0.47206 0.11407 0.0
O491 O 0.19466 0.47308 0.13058 0.0
Cd492 Cd 0.17425 0.44165 0.14419 0.0
O493 O 0.20932 0.45453 0.10067 0.0
Cd494 Cd 0.18198 0.41968 0.09588 0.0
C495 C 0.21497 0.39749 0.1358 0.0
O496 O 0.1479 0.43425 0.1151 0.0
O497 O 0.15087 0.39761 0.11677 0.0
O498 O 0.17245 0.43597 0.05892 0.0
C499 C 0.13891 0.41538 0.121 0.0
O500 O 0.20389 0.41232 0.14756 0.0
C501 C 0.16778 0.41707 0.04902 0.0
O502 O 0.21118 0.39495 0.11431 0.0
O503 O 0.17293 0.39873 0.05985 0.0
C504 C 0.47684 0.74001 0.83479 0.0
O505 O 0.47582 0.75426 0.81828 0.0
Cd506 Cd 0.50727 0.77467 0.80473 0.0
O507 O 0.49436 0.73959 0.84821 0.0
Cd508 Cd 0.5292 0.76694 0.85305 0.0
C509 C 0.5514 0.73394 0.81315 0.0
O510 O 0.51464 0.80103 0.83382 0.0
O511 O 0.55128 0.79805 0.83216 0.0
O512 O 0.51288 0.77647 0.89 0.0
C513 C 0.53351 0.81002 0.82793 0.0
O514 O 0.53659 0.74502 0.80138 0.0
C515 C 0.53178 0.78114 0.89991 0.0
O516 O 0.55394 0.73773 0.83464 0.0
O517 O 0.55012 0.77599 0.88908 0.0
C518 C 0.20887 0.22682 0.58482 0.0
O519 O 0.19463 0.22579 0.56832 0.0
Cd520 Cd 0.17423 0.25724 0.55474 0.0
O521 O 0.20931 0.24434 0.59823 0.0
Cd522 Cd 0.18196 0.27918 0.60306 0.0
C523 C 0.21496 0.30137 0.56316 0.0
O524 O 0.14787 0.26463 0.58383 0.0
O525 O 0.15085 0.30127 0.58217 0.0
O526 O 0.17243 0.26288 0.64001 0.0
C527 C 0.13888 0.2835 0.57794 0.0
O528 O 0.20388 0.28656 0.55139 0.0
C529 C 0.16776 0.28177 0.64992 0.0
O530 O 0.21117 0.30392 0.58464 0.0
O531 O 0.17291 0.30011 0.63909 0.0
C532 C 0.72206 0.95888 0.33481 0.0
O533 O 0.72309 0.94463 0.31831 0.0
Cd534 Cd 0.69164 0.92423 0.30474 0.0
O535 O 0.70454 0.95931 0.34823 0.0
Cd536 Cd 0.6697 0.93196 0.35306 0.0
C537 C 0.64751 0.96496 0.31316 0.0
O538 O 0.68426 0.89787 0.33383 0.0
O539 O 0.6476 0.90085 0.33218 0.0
O540 O 0.68601 0.92242 0.39 0.0
C541 C 0.66538 0.88889 0.32793 0.0
O542 O 0.66232 0.95388 0.30139 0.0
C543 C 0.66711 0.91776 0.39991 0.0
O544 O 0.64496 0.96117 0.33465 0.0
O545 O 0.64877 0.92292 0.38909 0.0
C546 C -0.00998 0.47207 0.08481 0.0
O547 O 0.00426 0.4731 0.06831 0.0
Cd548 Cd 0.02467 0.44164 0.05473 0.0
O549 O -0.01041 0.45455 0.09822 0.0
Cd550 Cd 0.01695 0.41971 0.10305 0.0
C551 C -0.01606 0.39751 0.06316 0.0
O552 O 0.05104 0.43426 0.08381 0.0
O553 O 0.04805 0.39761 0.08217 0.0
O554 O 0.02649 0.43603 0.13999 0.0
C555 C 0.06001 0.41538 0.07792 0.0
O556 O -0.00498 0.41232 0.05139 0.0
C557 C 0.03116 0.41714 0.14991 0.0
O558 O -0.01227 0.39497 0.08464 0.0
O559 O 0.02599 0.39879 0.13909 0.0
C560 C 0.86412 0.47683 0.95892 0.0
O561 O 0.88063 0.4758 0.94468 0.0
Cd562 Cd 0.89419 0.50725 0.92427 0.0
O563 O 0.8507 0.49434 0.95935 0.0
Cd564 Cd 0.84587 0.52918 0.93199 0.0
C565 C 0.88576 0.55139 0.96499 0.0
O566 O 0.86511 0.51462 0.8979 0.0
O567 O 0.86675 0.55127 0.90088 0.0
O568 O 0.80893 0.51287 0.92245 0.0
C569 C 0.871 0.5335 0.88892 0.0
O570 O 0.89754 0.53658 0.95392 0.0
C571 C 0.79902 0.53176 0.91779 0.0
O572 O 0.86428 0.55392 0.9612 0.0
O573 O 0.80984 0.55011 0.92295 0.0
C574 C 0.36409 0.72206 0.74003 0.0
O575 O 0.38059 0.72309 0.75427 0.0
Cd576 Cd 0.39417 0.69165 0.77468 0.0
O577 O 0.35069 0.70454 0.73959 0.0
Cd578 Cd 0.34586 0.6697 0.76695 0.0
C579 C 0.38577 0.64751 0.73396 0.0
O580 O 0.36508 0.68426 0.80104 0.0
O581 O 0.36675 0.64762 0.79806 0.0
O582 O 0.30891 0.686 0.77648 0.0
C583 C 0.37098 0.66539 0.81003 0.0
O584 O 0.39754 0.66232 0.74504 0.0
C585 C 0.299 0.6671 0.78115 0.0
O586 O 0.36428 0.64496 0.73774 0.0
O587 O 0.30983 0.64876 0.77599 0.0
C588 C 0.22682 0.1141 0.49003 0.0
O589 O 0.22579 0.1306 0.50427 0.0
Cd590 Cd 0.25724 0.14419 0.52468 0.0
O591 O 0.24434 0.10069 0.4896 0.0
Cd592 Cd 0.27918 0.09587 0.51695 0.0
C593 C 0.30138 0.13577 0.48395 0.0
O594 O 0.26462 0.1151 0.55104 0.0
O595 O 0.30127 0.11675 0.54806 0.0
O596 O 0.26288 0.05893 0.52649 0.0
C597 C 0.2835 0.121 0.56002 0.0
O598 O 0.28656 0.14754 0.49503 0.0
C599 C 0.28178 0.04902 0.53115 0.0
O600 O 0.30392 0.11429 0.48774 0.0
O601 O 0.30012 0.05985 0.52599 0.0
C602 C 0.83481 -0.02319 0.24002 0.0
O603 O 0.81831 -0.02422 0.25427 0.0
Cd604 Cd 0.80473 0.00722 0.27468 0.0
O605 O 0.84822 -0.00567 0.23959 0.0
Cd606 Cd 0.85304 0.02917 0.26695 0.0
C607 C 0.81313 0.05136 0.23395 0.0
O608 O 0.83381 0.01461 0.30104 0.0
O609 O 0.83215 0.05126 0.29806 0.0
O610 O 0.88999 0.01287 0.27647 0.0
C611 C 0.82792 0.03349 0.31003 0.0
O612 O 0.80136 0.03654 0.24503 0.0
C613 C 0.8999 0.03177 0.28114 0.0
O614 O 0.83462 0.05391 0.23774 0.0
O615 O 0.88907 0.05011 0.27599 0.0
C616 C 0.47207 0.58479 0.49003 0.0
O617 O 0.4731 0.56828 0.50428 0.0
Cd618 Cd 0.44165 0.55471 0.52469 0.0
O619 O 0.45455 0.5982 0.4896 0.0
Cd620 Cd 0.41971 0.60302 0.51696 0.0
C621 C 0.39751 0.56312 0.48396 0.0
O622 O 0.43427 0.5838 0.55105 0.0
O623 O 0.39762 0.58214 0.54807 0.0
O624 O 0.43601 0.63998 0.52648 0.0
C625 C 0.41539 0.57791 0.56004 0.0
O626 O 0.41232 0.55135 0.49504 0.0
C627 C 0.41711 0.64989 0.53115 0.0
O628 O 0.39497 0.58461 0.48775 0.0
O629 O 0.39877 0.63906 0.526 0.0
C630 C 0.83478 0.22206 0.95892 0.0
O631 O 0.81828 0.22309 0.94467 0.0
Cd632 Cd 0.8047 0.19164 0.92426 0.0
O633 O 0.84819 0.20454 0.95934 0.0
Cd634 Cd 0.85302 0.1697 0.93199 0.0
C635 C 0.81311 0.14751 0.96499 0.0
O636 O 0.8338 0.18426 0.8979 0.0
O637 O 0.83214 0.14762 0.90088 0.0
O638 O 0.88997 0.18601 0.92247 0.0
C639 C 0.8279 0.16539 0.88891 0.0
O640 O 0.80134 0.16233 0.95391 0.0
C641 C 0.89988 0.16712 0.9178 0.0
O642 O 0.8346 0.14497 0.9612 0.0
O643 O 0.88905 0.14877 0.92295 0.0
C644 C 0.22682 0.08476 0.70893 0.0
O645 O 0.2258 0.06826 0.69469 0.0
Cd646 Cd 0.25725 0.0547 0.67427 0.0
O647 O 0.24434 0.09819 0.70936 0.0
Cd648 Cd 0.27918 0.10302 0.682 0.0
C649 C 0.30139 0.06313 0.71499 0.0
O650 O 0.26462 0.08379 0.64791 0.0
O651 O 0.30127 0.08215 0.65088 0.0
O652 O 0.26286 0.13997 0.67246 0.0
C653 C 0.2835 0.0779 0.63893 0.0
O654 O 0.28658 0.05135 0.70391 0.0
C655 C 0.28176 0.14988 0.66779 0.0
O656 O 0.30392 0.08462 0.7112 0.0
O657 O 0.30011 0.13906 0.67296 0.0
C658 C 0.97208 0.61412 0.20891 0.0
O659 O 0.97311 0.63062 0.19466 0.0
Cd660 Cd 0.94166 0.6442 0.17426 0.0
O661 O 0.95456 0.60071 0.20933 0.0
Cd662 Cd 0.91972 0.59588 0.18198 0.0
C663 C 0.89752 0.63578 0.21498 0.0
O664 O 0.93428 0.61512 0.14789 0.0
O665 O 0.89763 0.61676 0.15087 0.0
O666 O 0.93603 0.55894 0.17244 0.0
C667 C 0.9154 0.62101 0.13891 0.0
O668 O 0.91234 0.64756 0.20391 0.0
C669 C 0.91714 0.54902 0.16778 0.0
O670 O 0.89498 0.6143 0.21119 0.0
O671 O 0.89879 0.55985 0.17294 0.0
C672 C -0.01001 0.58479 0.97209 0.0
O673 O 0.00423 0.56829 0.97312 0.0
Cd674 Cd 0.02465 0.55471 0.94168 0.0
O675 O -0.01043 0.59821 0.95457 0.0
Cd676 Cd 0.01693 0.60303 0.91974 0.0
C677 C -0.01606 0.56313 0.89753 0.0
O678 O 0.05101 0.5838 0.9343 0.0
O679 O 0.04804 0.58215 0.89765 0.0
O680 O 0.02646 0.63998 0.93605 0.0
C681 C 0.06 0.5779 0.91542 0.0
O682 O -0.00499 0.55135 0.91235 0.0
C683 C 0.03113 0.64988 0.91714 0.0
O684 O -0.01228 0.58461 0.89499 0.0
O685 O 0.02597 0.63906 0.8988 0.0
C686 C 0.86405 0.74001 0.22211 0.0
O687 O 0.88054 0.75427 0.22315 0.0
Cd688 Cd 0.89414 0.77466 0.1917 0.0
O689 O 0.85066 0.73957 0.20458 0.0
Cd690 Cd 0.84584 0.76693 0.16974 0.0
C691 C 0.88574 0.73394 0.14756 0.0
O692 O 0.86506 0.80102 0.18429 0.0
O693 O 0.86672 0.79803 0.14764 0.0
O694 O 0.80889 0.77647 0.18605 0.0
C695 C 0.87097 0.80998 0.16541 0.0
O696 O 0.89751 0.74501 0.16238 0.0
C697 C 0.79897 0.78113 0.16715 0.0
O698 O 0.86426 0.73772 0.145 0.0
O699 O 0.8098 0.77597 0.14881 0.0
C700 C 0.70887 0.6141 0.47209 0.0
O701 O 0.69463 0.6306 0.47312 0.0
Cd702 Cd 0.67422 0.64417 0.44167 0.0
O703 O 0.70931 0.60069 0.45457 0.0
Cd704 Cd 0.68196 0.59586 0.41973 0.0
C705 C 0.71495 0.63575 0.39753 0.0
O706 O 0.64786 0.61508 0.43429 0.0
O707 O 0.65085 0.61674 0.39764 0.0
O708 O 0.67243 0.55891 0.43604 0.0
C709 C 0.63888 0.62098 0.41541 0.0
O710 O 0.70387 0.64753 0.41235 0.0
C711 C 0.66776 0.54899 0.41714 0.0
O712 O 0.71116 0.61427 0.39499 0.0
O713 O 0.67291 0.55982 0.3988 0.0
C714 C 0.83479 0.45888 0.72208 0.0
O715 O 0.81828 0.44463 0.7231 0.0
Cd716 Cd 0.80472 0.42423 0.69165 0.0
O717 O 0.8482 0.45931 0.70456 0.0
Cd718 Cd 0.85303 0.43196 0.66972 0.0
C719 C 0.81314 0.46495 0.64752 0.0
O720 O 0.83381 0.39787 0.68428 0.0
O721 O 0.83215 0.40085 0.64763 0.0
O722 O 0.88998 0.42243 0.68603 0.0
C723 C 0.82791 0.38888 0.6654 0.0
O724 O 0.80137 0.45388 0.66233 0.0
C725 C 0.8999 0.41776 0.66713 0.0
O726 O 0.83463 0.46117 0.64498 0.0
O727 O 0.88907 0.42291 0.64879 0.0
C728 C -0.00997 0.61412 0.22685 0.0
O729 O 0.00428 0.63062 0.22582 0.0
Cd730 Cd 0.02467 0.64419 0.25728 0.0
O731 O -0.0104 0.60071 0.24437 0.0
Cd732 Cd 0.01695 0.59587 0.27921 0.0
C733 C -0.01605 0.63576 0.30141 0.0
O734 O 0.05104 0.6151 0.26465 0.0
O735 O 0.04806 0.61676 0.3013 0.0
O736 O 0.02648 0.55892 0.26291 0.0
C737 C 0.06002 0.621 0.28353 0.0
O738 O -0.00498 0.64753 0.2866 0.0
C739 C 0.03115 0.54901 0.2818 0.0
O740 O -0.01226 0.61428 0.30396 0.0
O741 O 0.02599 0.55984 0.30015 0.0
C742 C 0.83479 0.74001 0.47686 0.0
O743 O 0.81829 0.75426 0.47583 0.0
Cd744 Cd 0.80472 0.77466 0.50729 0.0
O745 O 0.84821 0.73958 0.49438 0.0
Cd746 Cd 0.85303 0.76693 0.52922 0.0
C747 C 0.81314 0.73394 0.55142 0.0
O748 O 0.83381 0.80102 0.51466 0.0
O749 O 0.83215 0.79804 0.5513 0.0
O750 O 0.88998 0.77647 0.51291 0.0
C751 C 0.82791 0.81001 0.53354 0.0
O752 O 0.80137 0.74501 0.53661 0.0
C753 C 0.89989 0.78113 0.53181 0.0
O754 O 0.83462 0.73772 0.55396 0.0
O755 O 0.88907 0.77598 0.55016 0.0
C756 C 0.70889 0.58478 0.72687 0.0
O757 O 0.69464 0.56828 0.72585 0.0
Cd758 Cd 0.67423 0.55471 0.7573 0.0
O759 O 0.70932 0.5982 0.74439 0.0
Cd760 Cd 0.68196 0.60303 0.77923 0.0
C761 C 0.71495 0.56314 0.80143 0.0
O762 O 0.64787 0.58381 0.76467 0.0
O763 O 0.65085 0.58215 0.80131 0.0
O764 O 0.67244 0.63998 0.76292 0.0
C765 C 0.63889 0.57791 0.78355 0.0
O766 O 0.70388 0.55136 0.78662 0.0
C767 C 0.66777 0.64989 0.78181 0.0
O768 O 0.71117 0.58462 0.80397 0.0
O769 O 0.67292 0.63906 0.80016 0.0
C770 C 0.86411 0.45888 -0.02313 0.0
O771 O 0.88061 0.44463 -0.02416 0.0
Cd772 Cd 0.89419 0.42422 0.00729 0.0
O773 O 0.8507 0.45931 -0.00561 0.0
Cd774 Cd 0.84587 0.43196 0.02923 0.0
C775 C 0.88577 0.46495 0.05142 0.0
O776 O 0.8651 0.39787 0.01467 0.0
O777 O 0.86675 0.40085 0.05132 0.0
O778 O 0.80892 0.42243 0.01292 0.0
C779 C 0.87099 0.38888 0.03355 0.0
O780 O 0.89754 0.45388 0.03661 0.0
C781 C 0.79901 0.41776 0.03181 0.0
O782 O 0.86429 0.46117 0.05397 0.0
O783 O 0.80983 0.42291 0.05016 0.0
C784 C 0.47207 0.49 0.5848 0.0
O785 O 0.47309 0.50424 0.5683 0.0
Cd786 Cd 0.44164 0.52465 0.55472 0.0
O787 O 0.45455 0.48958 0.59822 0.0
Cd788 Cd 0.41971 0.51693 0.60305 0.0
C789 C 0.39751 0.48393 0.56315 0.0
O790 O 0.43427 0.55101 0.58381 0.0
O791 O 0.39762 0.54804 0.58217 0.0
O792 O 0.43602 0.52646 0.64 0.0
C793 C 0.41539 0.55999 0.57792 0.0
O794 O 0.41232 0.495 0.55138 0.0
C795 C 0.41712 0.53113 0.64991 0.0
O796 O 0.39497 0.48772 0.58464 0.0
O797 O 0.39878 0.52598 0.63908 0.0
C798 C 0.95888 0.22207 0.83482 0.0
O799 O 0.94462 0.2231 0.81833 0.0
Cd800 Cd 0.92421 0.19166 0.80475 0.0
O801 O 0.95931 0.20454 0.84823 0.0
Cd802 Cd 0.93194 0.16971 0.85306 0.0
C803 C 0.96493 0.14752 0.81316 0.0
O804 O 0.89785 0.18427 0.83384 0.0
O805 O 0.90084 0.14763 0.83218 0.0
O806 O 0.92242 0.18602 0.89001 0.0
C807 C 0.88887 0.1654 0.82794 0.0
O808 O 0.95386 0.16234 0.80139 0.0
C809 C 0.91775 0.16712 0.89992 0.0
O810 O 0.96115 0.14498 0.83464 0.0
O811 O 0.92291 0.14877 0.8891 0.0
C812 C 0.22683 0.70887 0.08485 0.0
O813 O 0.2258 0.69461 0.06835 0.0
Cd814 Cd 0.25725 0.67422 0.05476 0.0
O815 O 0.24436 0.7093 0.09825 0.0
Cd816 Cd 0.2792 0.68194 0.10307 0.0
C817 C 0.30138 0.71495 0.06317 0.0
O818 O 0.26464 0.64785 0.08384 0.0
O819 O 0.30128 0.65085 0.08216 0.0
O820 O 0.2629 0.6724 0.14002 0.0
C821 C 0.28352 0.63888 0.07793 0.0
O822 O 0.28656 0.70388 0.0514 0.0
C823 C 0.2818 0.66773 0.14992 0.0
O824 O 0.30393 0.71116 0.08465 0.0
O825 O 0.30014 0.67289 0.13909 0.0
C826 C 0.74001 -0.02317 0.33481 0.0
O827 O 0.75425 -0.0242 0.3183 0.0
Cd828 Cd 0.77466 0.00724 0.30472 0.0
O829 O 0.73958 -0.00565 0.34823 0.0
Cd830 Cd 0.76695 0.02918 0.35305 0.0
C831 C 0.73395 0.05138 0.31316 0.0
O832 O 0.80103 0.01461 0.33381 0.0
O833 O 0.79806 0.05127 0.33217 0.0
O834 O 0.77648 0.01287 0.39 0.0
C835 C 0.81001 0.03349 0.32792 0.0
O836 O 0.74502 0.03657 0.30138 0.0
C837 C 0.78115 0.03176 0.39991 0.0
O838 O 0.73774 0.05392 0.33464 0.0
O839 O 0.776 0.05011 0.38908 0.0
C840 C 0.47206 0.70888 0.61413 0.0
O841 O 0.47308 0.69463 0.63063 0.0
Cd842 Cd 0.44163 0.67422 0.6442 0.0
O843 O 0.45454 0.70931 0.60072 0.0
Cd844 Cd 0.4197 0.68195 0.59589 0.0
C845 C 0.39751 0.71495 0.63578 0.0
O846 O 0.43426 0.64786 0.61511 0.0
O847 O 0.39762 0.65084 0.61677 0.0
O848 O 0.43601 0.67243 0.55894 0.0
C849 C 0.41538 0.63887 0.62101 0.0
O850 O 0.41232 0.70387 0.64756 0.0
C851 C 0.41711 0.66776 0.54903 0.0
O852 O 0.39496 0.71116 0.6143 0.0
O853 O 0.39876 0.67291 0.55985 0.0
C854 C 0.74001 0.22207 0.86413 0.0
O855 O 0.75425 0.2231 0.88063 0.0
Cd856 Cd 0.77466 0.19165 0.89421 0.0
O857 O 0.73958 0.20455 0.85071 0.0
Cd858 Cd 0.76694 0.16971 0.84589 0.0
C859 C 0.73394 0.14751 0.88579 0.0
O860 O 0.80102 0.18427 0.86512 0.0
O861 O 0.79804 0.14762 0.86677 0.0
O862 O 0.77647 0.18602 0.80894 0.0
C863 C 0.81 0.16539 0.87102 0.0
O864 O 0.74501 0.16233 0.89756 0.0
C865 C 0.78114 0.16713 0.79902 0.0
O866 O 0.73773 0.14497 0.8643 0.0
O867 O 0.77598 0.14878 0.80985 0.0
C868 C 0.22682 0.49003 0.11404 0.0
O869 O 0.22576 0.50431 0.13051 0.0
Cd870 Cd 0.25721 0.52469 0.14411 0.0
O871 O 0.24436 0.48957 0.10066 0.0
Cd872 Cd 0.27919 0.51694 0.09582 0.0
C873 C 0.30134 0.48394 0.13572 0.0
O874 O 0.26465 0.55105 0.11504 0.0
O875 O 0.30129 0.54802 0.11673 0.0
O876 O 0.26288 0.52648 0.05887 0.0
C877 C 0.28353 0.56001 0.12096 0.0
O878 O 0.28652 0.49502 0.14747 0.0
C879 C 0.28178 0.53115 0.04896 0.0
O880 O 0.30391 0.48773 0.11424 0.0
O881 O 0.30012 0.52599 0.05979 0.0
C882 C 0.95888 -0.02317 0.36412 0.0
O883 O 0.94464 -0.02419 0.38063 0.0
Cd884 Cd 0.92423 0.00726 0.39419 0.0
O885 O 0.95931 -0.00565 0.35071 0.0
Cd886 Cd 0.93196 0.02919 0.34588 0.0
C887 C 0.96495 0.05139 0.38577 0.0
O888 O 0.89787 0.01463 0.3651 0.0
O889 O 0.90085 0.05127 0.36676 0.0
O890 O 0.92244 0.01288 0.30893 0.0
C891 C 0.88889 0.03351 0.371 0.0
O892 O 0.95387 0.03658 0.39755 0.0
C893 C 0.91777 0.03178 0.29902 0.0
O894 O 0.96117 0.05393 0.36429 0.0
O895 O 0.92292 0.05012 0.30984 0.0
C896 C 0.08478 0.97207 0.49004 0.0
O897 O 0.06828 0.9731 0.50429 0.0
Cd898 Cd 0.05471 0.94164 0.5247 0.0
O899 O 0.09819 0.95454 0.48961 0.0
Cd900 Cd 0.10302 0.91971 0.51697 0.0
C901 C 0.06314 0.89751 0.48397 0.0
O902 O 0.0838 0.93426 0.55106 0.0
O903 O 0.08214 0.89762 0.54807 0.0
O904 O 0.13997 0.93603 0.5265 0.0
C905 C 0.07791 0.91538 0.56005 0.0
O906 O 0.05136 0.91232 0.49504 0.0
C907 C 0.14989 0.91714 0.53117 0.0
O908 O 0.08462 0.89497 0.48775 0.0
O909 O 0.13906 0.89879 0.52601 0.0
C910 C 0.58479 0.72683 0.70891 0.0
O911 O 0.56829 0.7258 0.69467 0.0
Cd912 Cd 0.55471 0.75724 0.67426 0.0
O913 O 0.5982 0.74435 0.70934 0.0
Cd914 Cd 0.60303 0.77919 0.68199 0.0
C915 C 0.56312 0.80138 0.71498 0.0
O916 O 0.5838 0.76463 0.6479 0.0
O917 O 0.58214 0.80127 0.65088 0.0
O918 O 0.63998 0.76288 0.67246 0.0
C919 C 0.57791 0.7835 0.63891 0.0
O920 O 0.55135 0.78657 0.7039 0.0
C921 C 0.64989 0.78178 0.66779 0.0
O922 O 0.58461 0.80393 0.71119 0.0
O923 O 0.63906 0.80012 0.67294 0.0
C924 C 0.72206 0.3348 0.9589 0.0
O925 O 0.72309 0.3183 0.94465 0.0
Cd926 Cd 0.69164 0.30472 0.92425 0.0
O927 O 0.70454 0.3482 0.95934 0.0
Cd928 Cd 0.6697 0.35303 0.93199 0.0
C929 C 0.64751 0.31313 0.96499 0.0
O930 O 0.68425 0.33381 0.89789 0.0
O931 O 0.64761 0.33214 0.90088 0.0
O932 O 0.68601 0.38998 0.92245 0.0
C933 C 0.66538 0.32791 0.88891 0.0
O934 O 0.66232 0.30136 0.95391 0.0
C935 C 0.66711 0.39989 0.91779 0.0
O936 O 0.64496 0.33461 0.9612 0.0
O937 O 0.64877 0.38906 0.92294 0.0
C938 C 0.11413 0.47207 0.20891 0.0
O939 O 0.13065 0.47309 0.19468 0.0
Cd940 Cd 0.14422 0.44165 0.17427 0.0
O941 O 0.10072 0.45456 0.20933 0.0
Cd942 Cd 0.09589 0.41972 0.18198 0.0
C943 C 0.13578 0.39751 0.21499 0.0
O944 O 0.11514 0.43427 0.1479 0.0
O945 O 0.11676 0.39762 0.15087 0.0
O946 O 0.05895 0.43604 0.17243 0.0
C947 C 0.12102 0.41539 0.13892 0.0
O948 O 0.14756 0.41232 0.20392 0.0
C949 C 0.04904 0.41714 0.16778 0.0
O950 O 0.11429 0.39498 0.2112 0.0
O951 O 0.05985 0.39879 0.17294 0.0
C952 C 0.47682 0.8641 0.95891 0.0
O953 O 0.4758 0.88061 0.94467 0.0
Cd954 Cd 0.50725 0.89419 0.92426 0.0
O955 O 0.49435 0.85069 0.95934 0.0
Cd956 Cd 0.52918 0.84587 0.93198 0.0
C957 C 0.55138 0.88576 0.96498 0.0
O958 O 0.51462 0.8651 0.8979 0.0
O959 O 0.55128 0.86675 0.90087 0.0
O960 O 0.51287 0.80892 0.92244 0.0
C961 C 0.5335 0.871 0.88892 0.0
O962 O 0.53657 0.89754 0.95391 0.0
C963 C 0.53177 0.79902 0.91778 0.0
O964 O 0.55392 0.86428 0.96119 0.0
O965 O 0.55012 0.80984 0.92294 0.0
C966 C 0.1141 0.22683 0.49003 0.0
O967 O 0.13061 0.2258 0.50427 0.0
Cd968 Cd 0.14419 0.25725 0.52468 0.0
O969 O 0.10069 0.24435 0.48961 0.0
Cd970 Cd 0.09588 0.27919 0.51696 0.0
C971 C 0.13577 0.30138 0.48395 0.0
O972 O 0.11511 0.26462 0.55104 0.0
O973 O 0.11675 0.30128 0.54807 0.0
O974 O 0.05893 0.26288 0.52649 0.0
C975 C 0.121 0.2835 0.56002 0.0
O976 O 0.14755 0.28657 0.49503 0.0
C977 C 0.04902 0.28178 0.53116 0.0
O978 O 0.11429 0.30393 0.48775 0.0
O979 O 0.05985 0.30013 0.526 0.0
C980 C 0.72206 0.3641 0.74003 0.0
O981 O 0.72309 0.3806 0.75428 0.0
Cd982 Cd 0.69164 0.39417 0.77469 0.0
O983 O 0.70454 0.35068 0.7396 0.0
Cd984 Cd 0.6697 0.34586 0.76696 0.0
C985 C 0.6475 0.38576 0.73396 0.0
O986 O 0.68426 0.36508 0.80105 0.0
O987 O 0.64761 0.36675 0.79806 0.0
O988 O 0.686 0.30891 0.77648 0.0
C989 C 0.66538 0.37098 0.81003 0.0
O990 O 0.66232 0.39753 0.74504 0.0
C991 C 0.66711 0.299 0.78115 0.0
O992 O 0.64496 0.36427 0.73774 0.0
O993 O 0.64876 0.30983 0.776 0.0
C994 C -0.02318 0.83475 0.24003 0.0
O995 O -0.02421 0.81825 0.25428 0.0
Cd996 Cd 0.00725 0.8047 0.27469 0.0
O997 O -0.00566 0.84817 0.2396 0.0
Cd998 Cd 0.02917 0.85302 0.26696 0.0
C999 C 0.05138 0.81313 0.23396 0.0
O1000 O 0.01462 0.83379 0.30105 0.0
O1001 O 0.05126 0.83214 0.29807 0.0
O1002 O 0.01286 0.88997 0.27649 0.0
C1003 C 0.03349 0.8279 0.31004 0.0
O1004 O 0.03657 0.80135 0.24504 0.0
C1005 C 0.03175 0.89988 0.28115 0.0
O1006 O 0.05392 0.83461 0.23775 0.0
O1007 O 0.0501 0.88905 0.27599 0.0
C1008 C 0.95889 0.3641 -0.02314 0.0
O1009 O 0.94465 0.3806 -0.02417 0.0
Cd1010 Cd 0.92424 0.39418 0.00728 0.0
O1011 O 0.95932 0.35069 -0.00561 0.0
Cd1012 Cd 0.93196 0.34587 0.02923 0.0
C1013 C 0.96496 0.38577 0.05142 0.0
O1014 O 0.89787 0.3651 0.01466 0.0
O1015 O 0.90085 0.36674 0.05132 0.0
O1016 O 0.92242 0.30892 0.01291 0.0
C1017 C 0.8889 0.37099 0.03354 0.0
O1018 O 0.95388 0.39754 0.0366 0.0
C1019 C 0.91776 0.29901 0.03181 0.0
O1020 O 0.96117 0.36428 0.05396 0.0
O1021 O 0.92292 0.30983 0.05016 0.0
C1022 C 0.0848 0.20887 0.72686 0.0
O1023 O 0.0683 0.19462 0.72582 0.0
Cd1024 Cd 0.05471 0.17422 0.75727 0.0
O1025 O 0.0982 0.2093 0.74438 0.0
Cd1026 Cd 0.10302 0.18194 0.77922 0.0
C1027 C 0.06313 0.21495 0.80141 0.0
O1028 O 0.08379 0.14785 0.76466 0.0
O1029 O 0.08213 0.15084 0.80131 0.0
O1030 O 0.13997 0.17241 0.76292 0.0
C1031 C 0.07789 0.13888 0.78354 0.0
O1032 O 0.05136 0.20387 0.78659 0.0
C1033 C 0.14988 0.16774 0.78182 0.0
O1034 O 0.08461 0.21115 0.80396 0.0
O1035 O 0.13905 0.17289 0.80016 0.0
C1036 C 0.24001 0.33479 0.47685 0.0
O1037 O 0.25425 0.31828 0.47583 0.0
Cd1038 Cd 0.27466 0.30471 0.50728 0.0
O1039 O 0.23958 0.3482 0.49438 0.0
Cd1040 Cd 0.26693 0.35302 0.52922 0.0
C1041 C 0.23394 0.31312 0.55141 0.0
O1042 O 0.30102 0.3338 0.51466 0.0
O1043 O 0.29804 0.33214 0.5513 0.0
O1044 O 0.27645 0.38997 0.51292 0.0
C1045 C 0.31001 0.32791 0.53354 0.0
O1046 O 0.24502 0.30135 0.5366 0.0
C1047 C 0.28112 0.39989 0.53182 0.0
O1048 O 0.23772 0.3346 0.55396 0.0
O1049 O 0.27597 0.38905 0.55016 0.0
C1050 C 0.11413 0.49002 0.22685 0.0
O1051 O 0.13062 0.50427 0.22582 0.0
Cd1052 Cd 0.14419 0.52468 0.25728 0.0
O1053 O 0.10071 0.48959 0.24438 0.0
Cd1054 Cd 0.09588 0.51695 0.27921 0.0
C1055 C 0.13577 0.48395 0.30142 0.0
O1056 O 0.1151 0.55104 0.26465 0.0
O1057 O 0.11677 0.54806 0.30129 0.0
O1058 O 0.05893 0.52647 0.2629 0.0
C1059 C 0.121 0.56003 0.28353 0.0
O1060 O 0.14754 0.49503 0.2866 0.0
C1061 C 0.04902 0.53114 0.2818 0.0
O1062 O 0.11428 0.48774 0.30396 0.0
O1063 O 0.05985 0.52599 0.30015 0.0
C1064 C 0.95888 0.3348 0.7221 0.0
O1065 O 0.94463 0.3183 0.72313 0.0
Cd1066 Cd 0.92423 0.30472 0.69168 0.0
O1067 O 0.95932 0.3482 0.70457 0.0
Cd1068 Cd 0.93196 0.35303 0.66973 0.0
C1069 C 0.96496 0.31313 0.64754 0.0
O1070 O 0.89787 0.3338 0.68429 0.0
O1071 O 0.90086 0.33215 0.64763 0.0
O1072 O 0.92243 0.38997 0.68604 0.0
C1073 C 0.8889 0.3279 0.66541 0.0
O1074 O 0.95388 0.30136 0.66236 0.0
C1075 C 0.91776 0.39988 0.66714 0.0
O1076 O 0.96117 0.33462 0.64499 0.0
O1077 O 0.92292 0.38906 0.64879 0.0
C1078 C 0.1141 0.20887 0.47209 0.0
O1079 O 0.13059 0.19462 0.47313 0.0
Cd1080 Cd 0.14416 0.17422 0.44167 0.0
O1081 O 0.10069 0.20931 0.45456 0.0
Cd1082 Cd 0.09586 0.18195 0.41973 0.0
C1083 C 0.13576 0.21495 0.39754 0.0
O1084 O 0.11508 0.14786 0.43428 0.0
O1085 O 0.11674 0.15085 0.39764 0.0
O1086 O 0.05891 0.17242 0.43604 0.0
C1087 C 0.12097 0.13888 0.4154 0.0
O1088 O 0.14753 0.20387 0.41236 0.0
C1089 C 0.049 0.16776 0.41714 0.0
O1090 O 0.11427 0.21116 0.39499 0.0
O1091 O 0.05983 0.17292 0.39879 0.0
C1092 C 0.23999 0.36407 0.22211 0.0
O1093 O 0.25425 0.38056 0.22315 0.0
Cd1094 Cd 0.27465 0.39415 0.1917 0.0
O1095 O 0.23956 0.35066 0.20459 0.0
Cd1096 Cd 0.26692 0.34583 0.16975 0.0
C1097 C 0.23394 0.38574 0.14755 0.0
O1098 O 0.30101 0.36506 0.1843 0.0
O1099 O 0.29802 0.36672 0.14765 0.0
O1100 O 0.27646 0.30889 0.18606 0.0
C1101 C 0.30999 0.37096 0.16542 0.0
O1102 O 0.24501 0.39751 0.16237 0.0
C1103 C 0.28112 0.29897 0.16716 0.0
O1104 O 0.23772 0.36426 0.14501 0.0
O1105 O 0.27596 0.3098 0.14881 0.0
C1106 C 0.08479 0.48999 0.9721 0.0
O1107 O 0.06829 0.50424 0.97314 0.0
Cd1108 Cd 0.0547 0.52464 0.9417 0.0
O1109 O 0.0982 0.48957 0.95457 0.0
Cd1110 Cd 0.10301 0.51693 0.91974 0.0
C1111 C 0.06311 0.48393 0.89755 0.0
O1112 O 0.08378 0.55101 0.93431 0.0
O1113 O 0.08213 0.54804 0.89765 0.0
O1114 O 0.13996 0.52647 0.93604 0.0
C1115 C 0.07789 0.55999 0.91543 0.0
O1116 O 0.05134 0.495 0.91237 0.0
C1117 C 0.14987 0.53113 0.91715 0.0
O1118 O 0.08459 0.48772 0.895 0.0
O1119 O 0.13904 0.52597 0.8988 0.0
C1120 C 0.47683 0.45887 0.36415 0.0
O1121 O 0.4758 0.44463 0.38066 0.0
Cd1122 Cd 0.50725 0.42422 0.39422 0.0
O1123 O 0.49435 0.4593 0.35074 0.0
Cd1124 Cd 0.52919 0.43195 0.3459 0.0
C1125 C 0.55139 0.46495 0.3858 0.0
O1126 O 0.51463 0.39786 0.36513 0.0
O1127 O 0.55129 0.40084 0.36677 0.0
O1128 O 0.51287 0.42243 0.30895 0.0
C1129 C 0.53351 0.38889 0.37102 0.0
O1130 O 0.53657 0.45387 0.39757 0.0
C1131 C 0.53177 0.41776 0.29903 0.0
O1132 O 0.55393 0.46116 0.36431 0.0
O1133 O 0.55011 0.42291 0.30986 0.0
C1134 C -0.00997 0.72683 0.11408 0.0
O1135 O 0.0043 0.72579 0.13056 0.0
Cd1136 Cd 0.02469 0.75724 0.14415 0.0
O1137 O -0.01041 0.74437 0.10068 0.0
Cd1138 Cd 0.01696 0.7792 0.09585 0.0
C1139 C -0.01605 0.80136 0.13574 0.0
O1140 O 0.05105 0.76465 0.11507 0.0
O1141 O 0.04805 0.80129 0.11675 0.0
O1142 O 0.02649 0.76289 0.0589 0.0
C1143 C 0.06002 0.78352 0.12098 0.0
O1144 O -0.00497 0.78655 0.14751 0.0
C1145 C 0.03116 0.78179 0.04899 0.0
O1146 O -0.01226 0.80392 0.11426 0.0
O1147 O 0.026 0.80014 0.05982 0.0
C1148 C 0.72206 0.24002 0.86412 0.0
O1149 O 0.7231 0.25427 0.88062 0.0
Cd1150 Cd 0.69165 0.27466 0.89421 0.0
O1151 O 0.70454 0.23958 0.85072 0.0
Cd1152 Cd 0.6697 0.26694 0.84589 0.0
C1153 C 0.64752 0.23393 0.88579 0.0
O1154 O 0.68426 0.30102 0.86512 0.0
O1155 O 0.64761 0.29804 0.86677 0.0
O1156 O 0.68601 0.27647 0.80894 0.0
C1157 C 0.66538 0.31 0.87102 0.0
O1158 O 0.66233 0.24501 0.89756 0.0
C1159 C 0.66711 0.28113 0.79904 0.0
O1160 O 0.64497 0.23772 0.86431 0.0
O1161 O 0.64876 0.27597 0.80986 0.0
C1162 C 0.20889 0.97207 0.61414 0.0
O1163 O 0.19465 0.9731 0.63065 0.0
Cd1164 Cd 0.17425 0.94165 0.64423 0.0
O1165 O 0.20932 0.95456 0.60073 0.0
Cd1166 Cd 0.18196 0.91972 0.5959 0.0
C1167 C 0.21496 0.89752 0.63579 0.0
O1168 O 0.14788 0.93428 0.61515 0.0
O1169 O 0.15085 0.89762 0.61678 0.0
O1170 O 0.17241 0.93604 0.55896 0.0
C1171 C 0.1389 0.91539 0.62104 0.0
O1172 O 0.20389 0.91233 0.64757 0.0
C1173 C 0.16775 0.91714 0.54905 0.0
O1174 O 0.21117 0.89498 0.61431 0.0
O1175 O 0.17292 0.89879 0.55987 0.0
C1176 C 0.47684 0.24001 0.3348 0.0
O1177 O 0.47582 0.25425 0.31829 0.0
Cd1178 Cd 0.50726 0.27466 0.30471 0.0
O1179 O 0.49436 0.23958 0.34821 0.0
Cd1180 Cd 0.5292 0.26694 0.35304 0.0
C1181 C 0.5514 0.23394 0.31314 0.0
O1182 O 0.51463 0.30102 0.33381 0.0
O1183 O 0.55127 0.29806 0.33215 0.0
O1184 O 0.51289 0.27647 0.38999 0.0
C1185 C 0.5335 0.31002 0.32792 0.0
O1186 O 0.53659 0.24502 0.30136 0.0
C1187 C 0.53179 0.28113 0.39989 0.0
O1188 O 0.55394 0.23773 0.33462 0.0
O1189 O 0.55014 0.27598 0.38907 0.0
C1190 C 0.20889 0.72681 0.08484 0.0
O1191 O 0.19464 0.72577 0.06834 0.0
Cd1192 Cd 0.17424 0.75722 0.05474 0.0
O1193 O 0.20932 0.74434 0.09824 0.0
Cd1194 Cd 0.18196 0.77918 0.10305 0.0
C1195 C 0.21496 0.80137 0.06314 0.0
O1196 O 0.14788 0.76462 0.08381 0.0
O1197 O 0.15087 0.80127 0.08217 0.0
O1198 O 0.17242 0.76288 0.14 0.0
C1199 C 0.13891 0.7835 0.07791 0.0
O1200 O 0.20389 0.78654 0.05137 0.0
C1201 C 0.16776 0.78178 0.14991 0.0
O1202 O 0.21117 0.80391 0.08463 0.0
O1203 O 0.17292 0.80012 0.13908 0.0
C1204 C 0.72206 0.45888 0.83481 0.0
O1205 O 0.72309 0.44464 0.81831 0.0
Cd1206 Cd 0.69165 0.42423 0.80473 0.0
O1207 O 0.70454 0.45931 0.84822 0.0
Cd1208 Cd 0.6697 0.43195 0.85305 0.0
C1209 C 0.64751 0.46496 0.81315 0.0
O1210 O 0.68426 0.39787 0.83381 0.0
O1211 O 0.64761 0.40085 0.83217 0.0
O1212 O 0.68601 0.42242 0.88999 0.0
C1213 C 0.66538 0.38889 0.82792 0.0
O1214 O 0.66233 0.45388 0.80138 0.0
C1215 C 0.66711 0.41776 0.8999 0.0
O1216 O 0.64497 0.46117 0.83463 0.0
O1217 O 0.64877 0.42291 0.88908 0.0
C1218 C -0.00999 0.97205 0.58485 0.0
O1219 O 0.00426 0.97309 0.56834 0.0
Cd1220 Cd 0.02467 0.94164 0.55476 0.0
O1221 O -0.01042 0.95453 0.59825 0.0
Cd1222 Cd 0.01694 0.91969 0.60307 0.0
C1223 C -0.01606 0.8975 0.56317 0.0
O1224 O 0.05103 0.93426 0.58385 0.0
O1225 O 0.04805 0.8976 0.58218 0.0
O1226 O 0.02647 0.93599 0.64003 0.0
C1227 C 0.06 0.91538 0.57794 0.0
O1228 O -0.00498 0.91232 0.5514 0.0
C1229 C 0.03114 0.91709 0.64993 0.0
O1230 O -0.01227 0.89495 0.58466 0.0
O1231 O 0.02598 0.89874 0.6391 0.0
C1232 C 0.86411 -0.02319 0.45891 0.0
O1233 O 0.88061 -0.02422 0.44466 0.0
Cd1234 Cd 0.89419 0.00723 0.42426 0.0
O1235 O 0.85071 -0.00566 0.45934 0.0
Cd1236 Cd 0.84588 0.02918 0.43198 0.0
C1237 C 0.88577 0.05136 0.46499 0.0
O1238 O 0.86511 0.01462 0.39789 0.0
O1239 O 0.86676 0.05127 0.40087 0.0
O1240 O 0.80894 0.01286 0.42244 0.0
C1241 C 0.871 0.0335 0.38891 0.0
O1242 O 0.89755 0.03654 0.45391 0.0
C1243 C 0.79903 0.03176 0.41778 0.0
O1244 O 0.86429 0.05391 0.4612 0.0
O1245 O 0.80985 0.05011 0.42294 0.0
C1246 C 0.36412 0.22206 0.24004 0.0
O1247 O 0.38062 0.22308 0.25428 0.0
Cd1248 Cd 0.39419 0.19164 0.27469 0.0
O1249 O 0.35071 0.20453 0.23961 0.0
Cd1250 Cd 0.34588 0.1697 0.26697 0.0
C1251 C 0.38578 0.1475 0.23397 0.0
O1252 O 0.3651 0.18426 0.30106 0.0
O1253 O 0.36676 0.14761 0.29808 0.0
O1254 O 0.30893 0.186 0.27649 0.0
C1255 C 0.37099 0.16538 0.31004 0.0
O1256 O 0.39755 0.16232 0.24505 0.0
C1257 C 0.29901 0.16711 0.28116 0.0
O1258 O 0.36429 0.14496 0.23775 0.0
O1259 O 0.30984 0.14876 0.27601 0.0
C1260 C 0.22682 0.61413 -0.00999 0.0
O1261 O 0.2258 0.63064 0.00425 0.0
Cd1262 Cd 0.25724 0.64421 0.02466 0.0
O1263 O 0.24435 0.60072 -0.01042 0.0
Cd1264 Cd 0.27919 0.5959 0.01693 0.0
C1265 C 0.30138 0.63581 -0.01607 0.0
O1266 O 0.26463 0.61512 0.05102 0.0
O1267 O 0.30128 0.61676 0.04804 0.0
O1268 O 0.26288 0.55895 0.02644 0.0
C1269 C 0.28351 0.621 0.06 0.0
O1270 O 0.28656 0.64758 -0.00499 0.0
C1271 C 0.28178 0.54904 0.0311 0.0
O1272 O 0.30392 0.61433 -0.01228 0.0
O1273 O 0.30013 0.55986 0.02595 0.0
C1274 C 0.83479 0.47682 0.74003 0.0
O1275 O 0.81829 0.47579 0.75428 0.0
Cd1276 Cd 0.80471 0.50724 0.77469 0.0
O1277 O 0.8482 0.49435 0.7396 0.0
Cd1278 Cd 0.85302 0.52918 0.76696 0.0
C1279 C 0.81313 0.55137 0.73396 0.0
O1280 O 0.83379 0.51462 0.80105 0.0
O1281 O 0.83215 0.55127 0.79807 0.0
O1282 O 0.88997 0.51287 0.77649 0.0
C1283 C 0.8279 0.5335 0.81003 0.0
O1284 O 0.80136 0.53656 0.74504 0.0
C1285 C 0.89988 0.53177 0.78116 0.0
O1286 O 0.83461 0.55392 0.73775 0.0
O1287 O 0.88906 0.55012 0.776 0.0
C1288 C 0.47207 0.08478 -0.00997 0.0
O1289 O 0.4731 0.06827 0.00427 0.0
Cd1290 Cd 0.44166 0.0547 0.02468 0.0
O1291 O 0.45455 0.09819 -0.0104 0.0
Cd1292 Cd 0.41971 0.10301 0.01696 0.0
C1293 C 0.39752 0.06311 -0.01604 0.0
O1294 O 0.43428 0.08378 0.05105 0.0
O1295 O 0.39762 0.08214 0.04807 0.0
O1296 O 0.43603 0.13996 0.0265 0.0
C1297 C 0.41539 0.07789 0.06002 0.0
O1298 O 0.41234 0.05134 -0.00496 0.0
C1299 C 0.41713 0.14986 0.03116 0.0
O1300 O 0.39498 0.08459 -0.01225 0.0
O1301 O 0.39878 0.13905 0.026 0.0
C1302 C 0.83479 0.72207 0.45891 0.0
O1303 O 0.81829 0.7231 0.44466 0.0
Cd1304 Cd 0.80471 0.69166 0.42425 0.0
O1305 O 0.8482 0.70454 0.45934 0.0
Cd1306 Cd 0.85302 0.6697 0.43198 0.0
C1307 C 0.81312 0.64752 0.46498 0.0
O1308 O 0.83379 0.68426 0.39789 0.0
O1309 O 0.83214 0.64761 0.40087 0.0
O1310 O 0.88996 0.68601 0.42244 0.0
C1311 C 0.82789 0.66538 0.38892 0.0
O1312 O 0.80135 0.66234 0.45391 0.0
C1313 C 0.89987 0.66711 0.41778 0.0
O1314 O 0.8346 0.64497 0.46119 0.0
O1315 O 0.88905 0.64877 0.42294 0.0
C1316 C 0.22687 0.58474 0.20891 0.0
O1317 O 0.22585 0.56823 0.19467 0.0
Cd1318 Cd 0.25729 0.55466 0.17425 0.0
O1319 O 0.24438 0.59816 0.20932 0.0
Cd1320 Cd 0.27922 0.60298 0.18197 0.0
C1321 C 0.30142 0.5631 0.21498 0.0
O1322 O 0.26465 0.58376 0.14788 0.0
O1323 O 0.30131 0.58212 0.15085 0.0
O1324 O 0.26291 0.63993 0.17245 0.0
C1325 C 0.28353 0.57787 0.13889 0.0
O1326 O 0.28661 0.55132 0.2039 0.0
C1327 C 0.28181 0.64984 0.16778 0.0
O1328 O 0.30396 0.58458 0.21119 0.0
O1329 O 0.30016 0.63902 0.17293 0.0
C1330 C 0.97205 0.11412 0.7089 0.0
O1331 O 0.97309 0.13061 0.69465 0.0
Cd1332 Cd 0.94164 0.14418 0.67424 0.0
O1333 O 0.95453 0.10071 0.70933 0.0
Cd1334 Cd 0.91969 0.09587 0.68198 0.0
C1335 C 0.89751 0.13577 0.71498 0.0
O1336 O 0.93425 0.11509 0.64789 0.0
O1337 O 0.89761 0.11675 0.65087 0.0
O1338 O 0.936 0.05892 0.67247 0.0
C1339 C 0.91538 0.12098 0.6389 0.0
O1340 O 0.91232 0.14754 0.7039 0.0
C1341 C 0.9171 0.049 0.6678 0.0
O1342 O 0.89496 0.11429 0.71119 0.0
O1343 O 0.89876 0.05984 0.67294 0.0
C1344 C 0.49002 0.08478 0.97208 0.0
O1345 O 0.50427 0.06828 0.97311 0.0
Cd1346 Cd 0.52467 0.05471 0.94165 0.0
O1347 O 0.48959 0.09819 0.95456 0.0
Cd1348 Cd 0.51694 0.10302 0.91972 0.0
C1349 C 0.48394 0.06313 0.89752 0.0
O1350 O 0.55103 0.0838 0.93428 0.0
O1351 O 0.54805 0.08214 0.89763 0.0
O1352 O 0.52647 0.13997 0.93603 0.0
C1353 C 0.56002 0.07791 0.9154 0.0
O1354 O 0.49502 0.05136 0.91234 0.0
C1355 C 0.53114 0.14989 0.91713 0.0
O1356 O 0.48773 0.08461 0.89498 0.0
O1357 O 0.52599 0.13906 0.89879 0.0
C1358 C 0.36411 0.24 0.22209 0.0
O1359 O 0.38062 0.25425 0.22311 0.0
Cd1360 Cd 0.39418 0.27466 0.19166 0.0
O1361 O 0.3507 0.23957 0.20457 0.0
Cd1362 Cd 0.34586 0.26692 0.16973 0.0
C1363 C 0.38576 0.23393 0.14753 0.0
O1364 O 0.36508 0.30101 0.18428 0.0
O1365 O 0.36673 0.29803 0.14764 0.0
O1366 O 0.30892 0.27644 0.18605 0.0
C1367 C 0.37096 0.31 0.1654 0.0
O1368 O 0.39753 0.24501 0.16234 0.0
C1369 C 0.299 0.28111 0.16715 0.0
O1370 O 0.36427 0.23771 0.14499 0.0
O1371 O 0.30982 0.27595 0.1488 0.0
C1372 C 0.20887 0.1141 0.47209 0.0
O1373 O 0.19462 0.13059 0.47312 0.0
Cd1374 Cd 0.17422 0.14417 0.44167 0.0
O1375 O 0.2093 0.10069 0.45456 0.0
Cd1376 Cd 0.18195 0.09586 0.41972 0.0
C1377 C 0.21495 0.13576 0.39753 0.0
O1378 O 0.14786 0.11509 0.43428 0.0
O1379 O 0.15084 0.11675 0.39763 0.0
O1380 O 0.17241 0.05892 0.43604 0.0
C1381 C 0.13888 0.12099 0.4154 0.0
O1382 O 0.20388 0.14753 0.41235 0.0
C1383 C 0.16775 0.04901 0.41714 0.0
O1384 O 0.21116 0.11428 0.39499 0.0
O1385 O 0.1729 0.05983 0.39879 0.0
C1386 C 0.3348 0.95889 0.72208 0.0
O1387 O 0.31829 0.94465 0.72311 0.0
Cd1388 Cd 0.30471 0.92424 0.69166 0.0
O1389 O 0.34821 0.95932 0.70456 0.0
Cd1390 Cd 0.35303 0.93197 0.66971 0.0
C1391 C 0.31314 0.96497 0.64752 0.0
O1392 O 0.3338 0.89788 0.68427 0.0
O1393 O 0.33215 0.90086 0.64762 0.0
O1394 O 0.38998 0.92243 0.68603 0.0
C1395 C 0.32791 0.8889 0.66539 0.0
O1396 O 0.30137 0.95389 0.66233 0.0
C1397 C 0.39989 0.91777 0.66713 0.0
O1398 O 0.33462 0.96118 0.64498 0.0
O1399 O 0.38907 0.92292 0.64878 0.0
C1400 C 0.49002 0.1141 0.22686 0.0
O1401 O 0.50427 0.1306 0.22583 0.0
Cd1402 Cd 0.52468 0.14417 0.25728 0.0
O1403 O 0.48959 0.10069 0.24438 0.0
Cd1404 Cd 0.51695 0.09586 0.27922 0.0
C1405 C 0.48395 0.13576 0.30142 0.0
O1406 O 0.55104 0.11508 0.26466 0.0
O1407 O 0.54805 0.11675 0.30131 0.0
O1408 O 0.52647 0.05891 0.26292 0.0
C1409 C 0.56002 0.12098 0.28354 0.0
O1410 O 0.49503 0.14753 0.2866 0.0
C1411 C 0.53114 0.049 0.28181 0.0
O1412 O 0.48774 0.11428 0.30396 0.0
O1413 O 0.52599 0.05983 0.30016 0.0
C1414 C 0.33479 0.24001 0.47685 0.0
O1415 O 0.31828 0.25425 0.47583 0.0
Cd1416 Cd 0.3047 0.27466 0.50728 0.0
O1417 O 0.3482 0.23958 0.49438 0.0
Cd1418 Cd 0.35302 0.26694 0.52922 0.0
C1419 C 0.31312 0.23394 0.55142 0.0
O1420 O 0.33379 0.30102 0.51465 0.0
O1421 O 0.33214 0.29804 0.55131 0.0
O1422 O 0.38997 0.27647 0.51291 0.0
C1423 C 0.3279 0.31 0.53353 0.0
O1424 O 0.30135 0.24501 0.5366 0.0
C1425 C 0.39988 0.28114 0.5318 0.0
O1426 O 0.33461 0.23772 0.55396 0.0
O1427 O 0.38906 0.27598 0.55015 0.0
C1428 C 0.20888 0.08476 0.72688 0.0
O1429 O 0.19463 0.06826 0.72585 0.0
Cd1430 Cd 0.17422 0.05469 0.7573 0.0
O1431 O 0.2093 0.09818 0.7444 0.0
Cd1432 Cd 0.18194 0.103 0.77924 0.0
C1433 C 0.21495 0.06312 0.80143 0.0
O1434 O 0.14786 0.08378 0.76467 0.0
O1435 O 0.15083 0.08213 0.80132 0.0
O1436 O 0.17242 0.13995 0.76292 0.0
C1437 C 0.13887 0.07789 0.78355 0.0
O1438 O 0.20388 0.05135 0.78662 0.0
C1439 C 0.16775 0.14986 0.78182 0.0
O1440 O 0.21116 0.0846 0.80398 0.0
O1441 O 0.1729 0.13904 0.80017 0.0
C1442 C 0.3641 0.95887 -0.02313 0.0
O1443 O 0.3806 0.94462 -0.02416 0.0
Cd1444 Cd 0.39417 0.92422 0.0073 0.0
O1445 O 0.35069 0.9593 -0.00561 0.0
Cd1446 Cd 0.34585 0.93195 0.02923 0.0
C1447 C 0.38575 0.96495 0.05143 0.0
O1448 O 0.36507 0.89786 0.01467 0.0
O1449 O 0.36674 0.90085 0.05132 0.0
O1450 O 0.30891 0.92243 0.01292 0.0
C1451 C 0.37097 0.88888 0.03355 0.0
O1452 O 0.39753 0.95387 0.03662 0.0
C1453 C 0.299 0.91776 0.03182 0.0
O1454 O 0.36427 0.96117 0.05397 0.0
O1455 O 0.30982 0.92291 0.05017 0.0
C1456 C 0.97207 -0.01 0.58485 0.0
O1457 O 0.9731 0.00424 0.56834 0.0
Cd1458 Cd 0.94165 0.02465 0.55476 0.0
O1459 O 0.95454 -0.01044 0.59825 0.0
Cd1460 Cd 0.9197 0.01692 0.60307 0.0
C1461 C 0.89751 -0.01607 0.56317 0.0
O1462 O 0.93427 0.05101 0.58385 0.0
O1463 O 0.89762 0.04803 0.58218 0.0
O1464 O 0.93601 0.02646 0.64002 0.0
C1465 C 0.91539 0.06 0.57795 0.0
O1466 O 0.91233 -0.005 0.5514 0.0
C1467 C 0.91711 0.03113 0.64992 0.0
O1468 O 0.89497 -0.01229 0.58465 0.0
O1469 O 0.89876 0.02597 0.6391 0.0
C1470 C 0.45889 0.72207 0.83479 0.0
O1471 O 0.44465 0.7231 0.81828 0.0
Cd1472 Cd 0.42424 0.69165 0.80471 0.0
O1473 O 0.45932 0.70455 0.8482 0.0
Cd1474 Cd 0.43196 0.66971 0.85303 0.0
C1475 C 0.46496 0.64751 0.81314 0.0
O1476 O 0.39788 0.68428 0.8338 0.0
O1477 O 0.40085 0.64762 0.83216 0.0
O1478 O 0.42244 0.68603 0.88998 0.0
C1479 C 0.3889 0.66539 0.82791 0.0
O1480 O 0.45389 0.66233 0.80136 0.0
C1481 C 0.41777 0.66714 0.8999 0.0
O1482 O 0.46117 0.64497 0.83462 0.0
O1483 O 0.42292 0.64879 0.88907 0.0
C1484 C 0.72683 0.20888 0.08482 0.0
O1485 O 0.7258 0.19464 0.06832 0.0
Cd1486 Cd 0.75725 0.17423 0.05475 0.0
O1487 O 0.74435 0.20931 0.09824 0.0
Cd1488 Cd 0.77919 0.18195 0.10306 0.0
C1489 C 0.80139 0.21495 0.06317 0.0
O1490 O 0.76463 0.14786 0.08384 0.0
O1491 O 0.80127 0.15085 0.08217 0.0
O1492 O 0.76288 0.17242 0.14001 0.0
C1493 C 0.7835 0.13888 0.07794 0.0
O1494 O 0.78657 0.20387 0.05139 0.0
C1495 C 0.78177 0.16775 0.14993 0.0
O1496 O 0.80393 0.21117 0.08465 0.0
O1497 O 0.80012 0.17291 0.1391 0.0
C1498 C 0.24 0.47685 0.33482 0.0
O1499 O 0.25425 0.47583 0.31831 0.0
Cd1500 Cd 0.27467 0.50728 0.30475 0.0
O1501 O 0.23958 0.49437 0.34823 0.0
Cd1502 Cd 0.26693 0.52921 0.35306 0.0
C1503 C 0.23394 0.55141 0.31317 0.0
O1504 O 0.30102 0.51464 0.33385 0.0
O1505 O 0.29805 0.55128 0.33218 0.0
O1506 O 0.27645 0.5129 0.39002 0.0
C1507 C 0.31001 0.53351 0.32795 0.0
O1508 O 0.24502 0.5366 0.3014 0.0
C1509 C 0.28112 0.5318 0.39993 0.0
O1510 O 0.23773 0.55395 0.33465 0.0
O1511 O 0.27598 0.55014 0.3891 0.0
C1512 C 0.97207 0.20889 0.61412 0.0
O1513 O 0.9731 0.19464 0.63063 0.0
Cd1514 Cd 0.94165 0.17424 0.6442 0.0
O1515 O 0.95455 0.20931 0.60071 0.0
Cd1516 Cd 0.91971 0.18196 0.59588 0.0
C1517 C 0.89751 0.21496 0.63577 0.0
O1518 O 0.93427 0.14787 0.61512 0.0
O1519 O 0.89762 0.15085 0.61677 0.0
O1520 O 0.93602 0.17242 0.55894 0.0
C1521 C 0.91539 0.1389 0.62101 0.0
O1522 O 0.91232 0.20388 0.64755 0.0
C1523 C 0.91713 0.16775 0.54902 0.0
O1524 O 0.89497 0.21117 0.61429 0.0
O1525 O 0.89878 0.17291 0.55985 0.0
C1526 C 0.24001 0.72204 0.86414 0.0
O1527 O 0.25425 0.72306 0.88065 0.0
Cd1528 Cd 0.27467 0.69161 0.8942 0.0
O1529 O 0.23959 0.70453 0.85072 0.0
Cd1530 Cd 0.26694 0.66969 0.84588 0.0
C1531 C 0.23394 0.64748 0.88578 0.0
O1532 O 0.30103 0.68426 0.8651 0.0
O1533 O 0.29805 0.64762 0.86677 0.0
O1534 O 0.27646 0.686 0.80893 0.0
C1535 C 0.31002 0.66539 0.871 0.0
O1536 O 0.24502 0.66229 0.89755 0.0
C1537 C 0.28113 0.6671 0.79903 0.0
O1538 O 0.23773 0.64495 0.86429 0.0
O1539 O 0.27598 0.64875 0.80985 0.0
C1540 C 0.72686 -0.01 0.11414 0.0
O1541 O 0.72584 0.00423 0.13065 0.0
Cd1542 Cd 0.7573 0.02464 0.14421 0.0
O1543 O 0.74437 -0.01043 0.10071 0.0
Cd1544 Cd 0.77922 0.01692 0.09589 0.0
C1545 C 0.80143 -0.01608 0.13578 0.0
O1546 O 0.76465 0.051 0.11512 0.0
O1547 O 0.80129 0.04803 0.11677 0.0
O1548 O 0.7629 0.02645 0.05894 0.0
C1549 C 0.78352 0.06 0.12101 0.0
O1550 O 0.78662 -0.005 0.14755 0.0
C1551 C 0.78179 0.03112 0.04902 0.0
O1552 O 0.80396 -0.01229 0.11429 0.0
O1553 O 0.80014 0.02598 0.05985 0.0
C1554 C 0.45889 0.47682 0.36415 0.0
O1555 O 0.44464 0.47579 0.38066 0.0
Cd1556 Cd 0.42424 0.50725 0.39423 0.0
O1557 O 0.45931 0.49434 0.35074 0.0
Cd1558 Cd 0.43196 0.52917 0.34591 0.0
C1559 C 0.46497 0.55138 0.3858 0.0
O1560 O 0.39787 0.51462 0.36514 0.0
O1561 O 0.40085 0.55126 0.36678 0.0
O1562 O 0.42243 0.51285 0.30896 0.0
C1563 C 0.38888 0.5335 0.37102 0.0
O1564 O 0.45389 0.53657 0.39757 0.0
C1565 C 0.41777 0.53174 0.29904 0.0
O1566 O 0.46118 0.55392 0.36431 0.0
O1567 O 0.42292 0.55009 0.30986 0.0
C1568 C 0.5848 0.47205 0.49004 0.0
O1569 O 0.5683 0.47308 0.50429 0.0
Cd1570 Cd 0.55473 0.44162 0.5247 0.0
O1571 O 0.59821 0.45453 0.48961 0.0
Cd1572 Cd 0.60304 0.41969 0.51696 0.0
C1573 C 0.56315 0.39749 0.48397 0.0
O1574 O 0.58382 0.43425 0.55105 0.0
O1575 O 0.58216 0.39761 0.54807 0.0
O1576 O 0.63999 0.436 0.52649 0.0
C1577 C 0.57792 0.41537 0.56004 0.0
O1578 O 0.55138 0.4123 0.49505 0.0
C1579 C 0.64991 0.4171 0.53116 0.0
O1580 O 0.58463 0.39495 0.48775 0.0
O1581 O 0.63908 0.39876 0.52601 0.0
C1582 C 0.0848 0.22682 0.70891 0.0
O1583 O 0.0683 0.22579 0.69466 0.0
Cd1584 Cd 0.05471 0.25723 0.67426 0.0
O1585 O 0.09821 0.24434 0.70935 0.0
Cd1586 Cd 0.10303 0.27918 0.68199 0.0
C1587 C 0.06313 0.30137 0.71499 0.0
O1588 O 0.0838 0.26462 0.6479 0.0
O1589 O 0.08215 0.30127 0.65088 0.0
O1590 O 0.13997 0.26287 0.67246 0.0
C1591 C 0.07791 0.2835 0.63893 0.0
O1592 O 0.05135 0.28656 0.70391 0.0
C1593 C 0.14988 0.28177 0.66779 0.0
O1594 O 0.08461 0.30392 0.7112 0.0
O1595 O 0.13906 0.30012 0.67295 0.0
C1596 C 0.22209 0.83483 0.95887 0.0
O1597 O 0.22313 0.81834 0.94461 0.0
Cd1598 Cd 0.19168 0.80475 0.92422 0.0
O1599 O 0.20455 0.84823 0.95931 0.0
Cd1600 Cd 0.16972 0.85305 0.93194 0.0
C1601 C 0.14754 0.81316 0.96495 0.0
O1602 O 0.18428 0.83383 0.89785 0.0
O1603 O 0.14764 0.83215 0.90085 0.0
O1604 O 0.18602 0.89 0.9224 0.0
C1605 C 0.1654 0.82792 0.88888 0.0
O1606 O 0.16237 0.80139 0.95387 0.0
C1607 C 0.16712 0.89991 0.91774 0.0
O1608 O 0.14499 0.83464 0.96116 0.0
O1609 O 0.14878 0.88908 0.9229 0.0
C1610 C 0.6141 0.97206 0.20891 0.0
O1611 O 0.6306 0.97309 0.19467 0.0
Cd1612 Cd 0.64417 0.94164 0.17425 0.0
O1613 O 0.60069 0.95454 0.20934 0.0
Cd1614 Cd 0.59586 0.91971 0.18198 0.0
C1615 C 0.63575 0.8975 0.21498 0.0
O1616 O 0.61508 0.93427 0.14789 0.0
O1617 O 0.61674 0.89762 0.15087 0.0
O1618 O 0.55891 0.93601 0.17245 0.0
C1619 C 0.62098 0.91539 0.1389 0.0
O1620 O 0.64752 0.91231 0.2039 0.0
C1621 C 0.54899 0.91712 0.16778 0.0
O1622 O 0.61426 0.89496 0.21119 0.0
O1623 O 0.55982 0.89877 0.17294 0.0
C1624 C -0.02316 0.3641 0.95892 0.0
O1625 O -0.02419 0.3806 0.94467 0.0
Cd1626 Cd 0.00726 0.39417 0.92426 0.0
O1627 O -0.00564 0.35068 0.95934 0.0
Cd1628 Cd 0.02919 0.34585 0.93199 0.0
C1629 C 0.0514 0.38574 0.96498 0.0
O1630 O 0.01463 0.36508 0.8979 0.0
O1631 O 0.05128 0.36674 0.90088 0.0
O1632 O 0.01289 0.3089 0.92246 0.0
C1633 C 0.03351 0.37097 0.88891 0.0
O1634 O 0.03659 0.39752 0.9539 0.0
C1635 C 0.03178 0.29899 0.91779 0.0
O1636 O 0.05394 0.36426 0.96119 0.0
O1637 O 0.05013 0.30982 0.92294 0.0
C1638 C 0.6141 0.72683 0.49003 0.0
O1639 O 0.63061 0.7258 0.50428 0.0
Cd1640 Cd 0.64418 0.75725 0.52469 0.0
O1641 O 0.60069 0.74435 0.48961 0.0
Cd1642 Cd 0.59586 0.77919 0.51696 0.0
C1643 C 0.63576 0.80139 0.48397 0.0
O1644 O 0.61509 0.76463 0.55105 0.0
O1645 O 0.61675 0.80127 0.54807 0.0
O1646 O 0.55891 0.76288 0.52649 0.0
C1647 C 0.62098 0.78351 0.56004 0.0
O1648 O 0.64753 0.78657 0.49504 0.0
C1649 C 0.549 0.78177 0.53116 0.0
O1650 O 0.61428 0.80393 0.48775 0.0
O1651 O 0.55983 0.80012 0.52601 0.0
C1652 C 0.22209 0.86407 0.74003 0.0
O1653 O 0.22313 0.88056 0.75428 0.0
Cd1654 Cd 0.19168 0.89415 0.77468 0.0
O1655 O 0.20456 0.85067 0.73959 0.0
Cd1656 Cd 0.16973 0.84583 0.76695 0.0
C1657 C 0.14753 0.88574 0.73396 0.0
O1658 O 0.18428 0.86506 0.80104 0.0
O1659 O 0.14763 0.86672 0.79805 0.0
O1660 O 0.18604 0.80889 0.77648 0.0
C1661 C 0.1654 0.87096 0.81002 0.0
O1662 O 0.16235 0.89751 0.74504 0.0
C1663 C 0.16714 0.79897 0.78115 0.0
O1664 O 0.14499 0.86426 0.73774 0.0
O1665 O 0.1488 0.8098 0.77599 0.0
C1666 C 0.4768 0.33482 0.24002 0.0
O1667 O 0.47577 0.31832 0.25427 0.0
Cd1668 Cd 0.50721 0.30472 0.27467 0.0
O1669 O 0.49433 0.34823 0.23959 0.0
Cd1670 Cd 0.52916 0.35304 0.26695 0.0
C1671 C 0.55136 0.31313 0.23395 0.0
O1672 O 0.51461 0.3338 0.30104 0.0
O1673 O 0.55126 0.33216 0.29805 0.0
O1674 O 0.51286 0.38998 0.2765 0.0
C1675 C 0.53349 0.32791 0.31001 0.0
O1676 O 0.53654 0.30136 0.24503 0.0
C1677 C 0.53176 0.39989 0.28116 0.0
O1678 O 0.5539 0.33462 0.23774 0.0
O1679 O 0.5501 0.38907 0.27599 0.0
C1680 C 0.45887 0.8641 -0.02314 0.0
O1681 O 0.44462 0.88059 -0.02418 0.0
Cd1682 Cd 0.42422 0.89418 0.00727 0.0
O1683 O 0.45931 0.85069 -0.00561 0.0
Cd1684 Cd 0.43195 0.84587 0.02922 0.0
C1685 C 0.46495 0.88577 0.05141 0.0
O1686 O 0.39786 0.8651 0.01466 0.0
O1687 O 0.40084 0.86675 0.05132 0.0
O1688 O 0.42242 0.80892 0.01292 0.0
C1689 C 0.38888 0.87099 0.03355 0.0
O1690 O 0.45388 0.89753 0.03659 0.0
C1691 C 0.41775 0.79901 0.03182 0.0
O1692 O 0.46116 0.86428 0.05396 0.0
O1693 O 0.4229 0.80984 0.05016 0.0
C1694 C 0.5848 0.70888 0.72686 0.0
O1695 O 0.5683 0.69463 0.72583 0.0
Cd1696 Cd 0.55473 0.67422 0.75728 0.0
O1697 O 0.59821 0.70931 0.74438 0.0
Cd1698 Cd 0.60304 0.68196 0.77922 0.0
C1699 C 0.56315 0.71495 0.80142 0.0
O1700 O 0.58382 0.64786 0.76466 0.0
O1701 O 0.58215 0.65085 0.8013 0.0
O1702 O 0.63999 0.67243 0.76291 0.0
C1703 C 0.57792 0.63888 0.78354 0.0
O1704 O 0.55137 0.70387 0.7866 0.0
C1705 C 0.64989 0.66776 0.78181 0.0
O1706 O 0.58463 0.71117 0.80396 0.0
O1707 O 0.63907 0.67292 0.80016 0.0
C1708 C 0.74002 0.83479 0.47685 0.0
O1709 O 0.75426 0.81829 0.47581 0.0
Cd1710 Cd 0.77466 0.80471 0.50726 0.0
O1711 O 0.73958 0.84819 0.49437 0.0
Cd1712 Cd 0.76694 0.85302 0.52921 0.0
C1713 C 0.73394 0.81312 0.5514 0.0
O1714 O 0.80103 0.83379 0.51465 0.0
O1715 O 0.79805 0.83214 0.55131 0.0
O1716 O 0.77648 0.88996 0.5129 0.0
C1717 C 0.81 0.8279 0.53353 0.0
O1718 O 0.74501 0.80135 0.53658 0.0
C1719 C 0.78114 0.89987 0.5318 0.0
O1720 O 0.73773 0.8346 0.55395 0.0
O1721 O 0.77598 0.88905 0.55015 0.0
C1722 C 0.6141 -0.00999 0.22686 0.0
O1723 O 0.6306 0.00425 0.22583 0.0
Cd1724 Cd 0.64418 0.02466 0.25728 0.0
O1725 O 0.60069 -0.01042 0.24438 0.0
Cd1726 Cd 0.59587 0.01694 0.27922 0.0
C1727 C 0.63576 -0.01606 0.30142 0.0
O1728 O 0.6151 0.05102 0.26466 0.0
O1729 O 0.61675 0.04804 0.30132 0.0
O1730 O 0.55892 0.02647 0.26291 0.0
C1731 C 0.621 0.06 0.28354 0.0
O1732 O 0.64754 -0.00499 0.2866 0.0
C1733 C 0.54902 0.03113 0.28181 0.0
O1734 O 0.61428 -0.01227 0.30396 0.0
O1735 O 0.55984 0.02598 0.30016 0.0
C1736 C 0.45887 0.8348 0.72209 0.0
O1737 O 0.44462 0.81831 0.72312 0.0
Cd1738 Cd 0.42422 0.80472 0.69167 0.0
O1739 O 0.45931 0.84821 0.70456 0.0
Cd1740 Cd 0.43195 0.85303 0.66972 0.0
C1741 C 0.46495 0.81313 0.64754 0.0
O1742 O 0.39786 0.83381 0.68428 0.0
O1743 O 0.40085 0.83214 0.64763 0.0
O1744 O 0.42242 0.88998 0.68603 0.0
C1745 C 0.38888 0.82791 0.6654 0.0
O1746 O 0.45387 0.80136 0.66236 0.0
C1747 C 0.41776 0.89989 0.66713 0.0
O1748 O 0.46117 0.83461 0.64499 0.0
O1749 O 0.42292 0.88906 0.64878 0.0
C1750 C 0.61411 0.70888 0.47209 0.0
O1751 O 0.63061 0.69464 0.47312 0.0
Cd1752 Cd 0.64419 0.67423 0.44167 0.0
O1753 O 0.6007 0.70931 0.45456 0.0
Cd1754 Cd 0.59588 0.68195 0.41973 0.0
C1755 C 0.63578 0.71495 0.39753 0.0
O1756 O 0.6151 0.64787 0.43429 0.0
O1757 O 0.61675 0.65084 0.39764 0.0
O1758 O 0.55893 0.67243 0.43603 0.0
C1759 C 0.621 0.63889 0.41541 0.0
O1760 O 0.64755 0.70387 0.41235 0.0
C1761 C 0.54901 0.66776 0.41713 0.0
O1762 O 0.6143 0.71116 0.39499 0.0
O1763 O 0.55985 0.67291 0.39879 0.0
C1764 C 0.74 0.86412 0.22209 0.0
O1765 O 0.75424 0.88062 0.22312 0.0
Cd1766 Cd 0.77466 0.89419 0.19167 0.0
O1767 O 0.73957 0.85071 0.20457 0.0
Cd1768 Cd 0.76692 0.84588 0.16973 0.0
C1769 C 0.73393 0.88577 0.14754 0.0
O1770 O 0.80101 0.8651 0.18429 0.0
O1771 O 0.79804 0.86674 0.14763 0.0
O1772 O 0.77645 0.80893 0.18605 0.0
C1773 C 0.80999 0.87099 0.16541 0.0
O1774 O 0.74501 0.89755 0.16235 0.0
C1775 C 0.78111 0.79902 0.16715 0.0
O1776 O 0.73772 0.86429 0.14499 0.0
O1777 O 0.77596 0.80984 0.1488 0.0
C1778 C 0.5848 -0.00999 0.97209 0.0
O1779 O 0.5683 0.00426 0.97312 0.0
Cd1780 Cd 0.55472 0.02466 0.94167 0.0
O1781 O 0.59821 -0.01042 0.95456 0.0
Cd1782 Cd 0.60303 0.01694 0.91972 0.0
C1783 C 0.56314 -0.01606 0.89753 0.0
O1784 O 0.58381 0.05102 0.93428 0.0
O1785 O 0.58216 0.04804 0.89763 0.0
O1786 O 0.63998 0.02647 0.93603 0.0
C1787 C 0.57791 0.06 0.9154 0.0
O1788 O 0.55136 -0.00499 0.91235 0.0
C1789 C 0.64989 0.03113 0.91713 0.0
O1790 O 0.58462 -0.01228 0.89499 0.0
O1791 O 0.63907 0.02598 0.89878 0.0
C1792 C -0.02318 0.95888 0.36412 0.0
O1793 O -0.02421 0.94463 0.38062 0.0
Cd1794 Cd 0.00724 0.92423 0.3942 0.0
O1795 O -0.00565 0.95931 0.35071 0.0
Cd1796 Cd 0.02918 0.93196 0.34588 0.0
C1797 C 0.05137 0.96495 0.38578 0.0
O1798 O 0.01463 0.89787 0.36511 0.0
O1799 O 0.05127 0.90085 0.36676 0.0
O1800 O 0.01286 0.92242 0.30894 0.0
C1801 C 0.0335 0.88888 0.371 0.0
O1802 O 0.03656 0.95387 0.39755 0.0
C1803 C 0.03176 0.91775 0.29903 0.0
O1804 O 0.05392 0.96117 0.3643 0.0
O1805 O 0.05011 0.92291 0.30984 0.0
C1806 C 0.48999 0.22685 0.11415 0.0
O1807 O 0.50422 0.22583 0.13067 0.0
Cd1808 Cd 0.52463 0.25728 0.14424 0.0
O1809 O 0.48957 0.24436 0.10073 0.0
Cd1810 Cd 0.51692 0.27921 0.09591 0.0
C1811 C 0.48391 0.30141 0.13579 0.0
O1812 O 0.551 0.26464 0.11514 0.0
O1813 O 0.54803 0.3013 0.11678 0.0
O1814 O 0.52646 0.26289 0.05896 0.0
C1815 C 0.55998 0.28352 0.12103 0.0
O1816 O 0.49499 0.28661 0.14757 0.0
C1817 C 0.53113 0.28178 0.04904 0.0
O1818 O 0.4877 0.30395 0.11431 0.0
O1819 O 0.52598 0.30013 0.05987 0.0
C1820 C 0.22207 0.73999 0.86414 0.0
O1821 O 0.22309 0.75423 0.88065 0.0
Cd1822 Cd 0.19164 0.77465 0.89422 0.0
O1823 O 0.20455 0.73957 0.85072 0.0
Cd1824 Cd 0.16972 0.76692 0.84589 0.0
C1825 C 0.14751 0.73393 0.88579 0.0
O1826 O 0.18429 0.80101 0.86512 0.0
O1827 O 0.14763 0.79804 0.86675 0.0
O1828 O 0.18604 0.77644 0.80894 0.0
C1829 C 0.16541 0.80999 0.871 0.0
O1830 O 0.16232 0.74501 0.89757 0.0
C1831 C 0.16714 0.78111 0.79903 0.0
O1832 O 0.14497 0.73772 0.8643 0.0
O1833 O 0.14879 0.77595 0.80985 0.0
C1834 C 0.7089 0.47205 0.61413 0.0
O1835 O 0.69465 0.47308 0.63064 0.0
Cd1836 Cd 0.67424 0.44163 0.64421 0.0
O1837 O 0.70932 0.45453 0.60072 0.0
Cd1838 Cd 0.68197 0.4197 0.59589 0.0
C1839 C 0.71496 0.3975 0.63579 0.0
O1840 O 0.64788 0.43426 0.61512 0.0
O1841 O 0.65086 0.39761 0.61678 0.0
O1842 O 0.67244 0.43601 0.55894 0.0
C1843 C 0.63889 0.41538 0.62101 0.0
O1844 O 0.70388 0.41231 0.64756 0.0
C1845 C 0.66778 0.4171 0.54904 0.0
O1846 O 0.71118 0.39496 0.61431 0.0
O1847 O 0.67293 0.39876 0.55986 0.0
C1848 C -0.02317 0.73999 0.33481 0.0
O1849 O -0.0242 0.75424 0.3183 0.0
Cd1850 Cd 0.00725 0.77465 0.30473 0.0
O1851 O -0.00565 0.73957 0.34823 0.0
Cd1852 Cd 0.02919 0.76693 0.35305 0.0
C1853 C 0.0514 0.73394 0.31315 0.0
O1854 O 0.01462 0.80101 0.33382 0.0
O1855 O 0.05127 0.79804 0.33217 0.0
O1856 O 0.01288 0.77646 0.39 0.0
C1857 C 0.0335 0.80999 0.32793 0.0
O1858 O 0.03658 0.74501 0.30138 0.0
C1859 C 0.03178 0.78113 0.39992 0.0
O1860 O 0.05393 0.73772 0.33464 0.0
O1861 O 0.05012 0.77598 0.38908 0.0
C1862 C 0.70888 0.22683 0.08482 0.0
O1863 O 0.69464 0.2258 0.06832 0.0
Cd1864 Cd 0.67423 0.25725 0.05474 0.0
O1865 O 0.70931 0.24435 0.09823 0.0
Cd1866 Cd 0.68196 0.27919 0.10306 0.0
C1867 C 0.71496 0.30138 0.06315 0.0
O1868 O 0.64787 0.26463 0.08383 0.0
O1869 O 0.65085 0.30128 0.08217 0.0
O1870 O 0.67243 0.26289 0.14001 0.0
C1871 C 0.63889 0.28351 0.07794 0.0
O1872 O 0.70388 0.28657 0.05138 0.0
C1873 C 0.66776 0.28179 0.14991 0.0
O1874 O 0.71117 0.30393 0.08463 0.0
O1875 O 0.67292 0.30014 0.13909 0.0
C1876 C 0.22205 0.95891 0.83475 0.0
O1877 O 0.22305 0.94469 0.81822 0.0
Cd1878 Cd 0.19161 0.92426 0.80466 0.0
O1879 O 0.20454 0.95932 0.84818 0.0
Cd1880 Cd 0.1697 0.93197 0.853 0.0
C1881 C 0.14747 0.96496 0.8131 0.0
O1882 O 0.18427 0.89789 0.83376 0.0
O1883 O 0.14762 0.90084 0.83214 0.0
O1884 O 0.18602 0.92245 0.88994 0.0
C1885 C 0.1654 0.88889 0.82789 0.0
O1886 O 0.16227 0.95389 0.80132 0.0
C1887 C 0.16712 0.91778 0.89986 0.0
O1888 O 0.14495 0.96117 0.83459 0.0
O1889 O 0.14877 0.92292 0.88903 0.0
C1890 C 0.49002 0.47206 0.58481 0.0
O1891 O 0.50427 0.4731 0.56831 0.0
Cd1892 Cd 0.52467 0.44164 0.55473 0.0
O1893 O 0.48958 0.45454 0.59822 0.0
Cd1894 Cd 0.51694 0.4197 0.60304 0.0
C1895 C 0.48394 0.39751 0.56315 0.0
O1896 O 0.55103 0.43426 0.58382 0.0
O1897 O 0.54805 0.39761 0.58217 0.0
O1898 O 0.52647 0.43601 0.63999 0.0
C1899 C 0.56001 0.41538 0.57792 0.0
O1900 O 0.49501 0.41233 0.55138 0.0
C1901 C 0.53114 0.41712 0.64991 0.0
O1902 O 0.48773 0.39497 0.58463 0.0
O1903 O 0.52598 0.39877 0.63908 0.0
C1904 C 0.36409 0.47683 0.45892 0.0
O1905 O 0.38059 0.47579 0.44467 0.0
Cd1906 Cd 0.39417 0.50724 0.42426 0.0
O1907 O 0.35068 0.49435 0.45935 0.0
Cd1908 Cd 0.34586 0.52919 0.43199 0.0
C1909 C 0.38576 0.55138 0.46498 0.0
O1910 O 0.36509 0.51462 0.3979 0.0
O1911 O 0.36675 0.55127 0.40088 0.0
O1912 O 0.30891 0.51289 0.42246 0.0
C1913 C 0.37099 0.5335 0.38893 0.0
O1914 O 0.39753 0.53656 0.45391 0.0
C1915 C 0.29901 0.53179 0.4178 0.0
O1916 O 0.36428 0.55392 0.4612 0.0
O1917 O 0.30983 0.55013 0.42295 0.0
C1918 C 0.86406 0.72206 0.24005 0.0
O1919 O 0.88055 0.7231 0.25431 0.0
Cd1920 Cd 0.89416 0.69166 0.2747 0.0
O1921 O 0.85067 0.70452 0.23961 0.0
Cd1922 Cd 0.84586 0.66968 0.26696 0.0
C1923 C 0.88577 0.64752 0.23396 0.0
O1924 O 0.86508 0.68425 0.30106 0.0
O1925 O 0.86675 0.64759 0.29807 0.0
O1926 O 0.80891 0.68599 0.27649 0.0
C1927 C 0.87099 0.66537 0.31003 0.0
O1928 O 0.89754 0.66234 0.24504 0.0
C1929 C 0.79901 0.66708 0.28116 0.0
O1930 O 0.86429 0.64496 0.23775 0.0
O1931 O 0.80983 0.64874 0.276 0.0
C1932 C 0.72682 0.11409 -0.00996 0.0
O1933 O 0.72578 0.13059 0.00429 0.0
Cd1934 Cd 0.75723 0.14418 0.0247 0.0
O1935 O 0.74435 0.10069 -0.01039 0.0
Cd1936 Cd 0.77918 0.09586 0.01697 0.0
C1937 C 0.80137 0.13577 -0.01603 0.0
O1938 O 0.76462 0.11509 0.05106 0.0
O1939 O 0.80127 0.11674 0.04807 0.0
O1940 O 0.76288 0.05891 0.0265 0.0
C1941 C 0.7835 0.12099 0.06003 0.0
O1942 O 0.78655 0.14754 -0.00495 0.0
C1943 C 0.78178 0.04901 0.03116 0.0
O1944 O 0.80392 0.11428 -0.01224 0.0
O1945 O 0.80013 0.05984 0.026 0.0
C1946 C 0.33481 -0.02316 0.74003 0.0
O1947 O 0.31831 -0.0242 0.75428 0.0
Cd1948 Cd 0.30474 0.00725 0.77469 0.0
O1949 O 0.34821 -0.00564 0.7396 0.0
Cd1950 Cd 0.35304 0.0292 0.76695 0.0
C1951 C 0.31314 0.05139 0.73397 0.0
O1952 O 0.33383 0.01464 0.80105 0.0
O1953 O 0.33216 0.05128 0.79806 0.0
O1954 O 0.39 0.01289 0.77647 0.0
C1955 C 0.32793 0.03351 0.81004 0.0
O1956 O 0.30137 0.03657 0.74505 0.0
C1957 C 0.39991 0.03179 0.78115 0.0
O1958 O 0.33463 0.05394 0.73775 0.0
O1959 O 0.38908 0.05013 0.776 0.0
C1960 C 0.97205 0.5848 -0.00996 0.0
O1961 O 0.97308 0.5683 0.00429 0.0
Cd1962 Cd 0.94163 0.55473 0.02471 0.0
O1963 O 0.95453 0.59821 -0.01039 0.0
Cd1964 Cd 0.91969 0.60304 0.01697 0.0
C1965 C 0.8975 0.56314 -0.01602 0.0
O1966 O 0.93425 0.58382 0.05106 0.0
O1967 O 0.89761 0.58215 0.04808 0.0
O1968 O 0.93599 0.64 0.02649 0.0
C1969 C 0.91538 0.57792 0.06005 0.0
O1970 O 0.91231 0.55137 -0.00494 0.0
C1971 C 0.91709 0.64991 0.03116 0.0
O1972 O 0.89495 0.58462 -0.01224 0.0
O1973 O 0.89875 0.63907 0.02601 0.0
C1974 C 0.3348 0.22207 0.4589 0.0
O1975 O 0.3183 0.2231 0.44465 0.0
Cd1976 Cd 0.30472 0.19165 0.42424 0.0
O1977 O 0.3482 0.20454 0.45934 0.0
Cd1978 Cd 0.35303 0.16971 0.43198 0.0
C1979 C 0.31313 0.14751 0.46497 0.0
O1980 O 0.33381 0.18426 0.39789 0.0
O1981 O 0.33215 0.14762 0.40087 0.0
O1982 O 0.38998 0.18601 0.42245 0.0
C1983 C 0.32791 0.16538 0.3889 0.0
O1984 O 0.30136 0.16233 0.45389 0.0
C1985 C 0.3999 0.16712 0.41779 0.0
O1986 O 0.33461 0.14497 0.46119 0.0
O1987 O 0.38907 0.14878 0.42294 0.0
C1988 C 0.72683 0.08478 0.20891 0.0
O1989 O 0.7258 0.06828 0.19466 0.0
Cd1990 Cd 0.75724 0.05469 0.17426 0.0
O1991 O 0.74436 0.09818 0.20934 0.0
Cd1992 Cd 0.77919 0.10301 0.18198 0.0
C1993 C 0.80138 0.06311 0.21497 0.0
O1994 O 0.76463 0.08378 0.14789 0.0
O1995 O 0.80129 0.08214 0.15087 0.0
O1996 O 0.76287 0.13995 0.17245 0.0
C1997 C 0.78352 0.07789 0.13892 0.0
O1998 O 0.78657 0.05133 0.2039 0.0
C1999 C 0.78177 0.14986 0.16779 0.0
O2000 O 0.80393 0.08459 0.21119 0.0
O2001 O 0.80012 0.13905 0.17295 0.0
C2002 C 0.47207 0.61409 0.7089 0.0
O2003 O 0.4731 0.6306 0.69466 0.0
Cd2004 Cd 0.44165 0.64418 0.67425 0.0
O2005 O 0.45455 0.60069 0.70934 0.0
Cd2006 Cd 0.41971 0.59586 0.68198 0.0
C2007 C 0.39751 0.63576 0.71498 0.0
O2008 O 0.43427 0.61509 0.64789 0.0
O2009 O 0.39762 0.61674 0.65087 0.0
O2010 O 0.43602 0.55892 0.67245 0.0
C2011 C 0.41539 0.62099 0.63892 0.0
O2012 O 0.41233 0.64753 0.7039 0.0
C2013 C 0.41712 0.54901 0.66778 0.0
O2014 O 0.39497 0.61428 0.71119 0.0
O2015 O 0.39878 0.55983 0.67294 0.0
C2016 C 0.49002 0.58479 0.47209 0.0
O2017 O 0.50427 0.56829 0.47312 0.0
Cd2018 Cd 0.52468 0.55471 0.44167 0.0
O2019 O 0.48959 0.5982 0.45456 0.0
Cd2020 Cd 0.51695 0.60302 0.41973 0.0
C2021 C 0.48395 0.56312 0.39753 0.0
O2022 O 0.55104 0.5838 0.43429 0.0
O2023 O 0.54805 0.58214 0.39764 0.0
O2024 O 0.52648 0.63997 0.43604 0.0
C2025 C 0.56002 0.5779 0.41541 0.0
O2026 O 0.49503 0.55135 0.41235 0.0
C2027 C 0.53115 0.64988 0.41714 0.0
O2028 O 0.48774 0.58461 0.39499 0.0
O2029 O 0.52599 0.63906 0.39879 0.0
C2030 C 0.36409 0.74001 0.72208 0.0
O2031 O 0.38059 0.75426 0.72312 0.0
Cd2032 Cd 0.39418 0.77466 0.69166 0.0
O2033 O 0.35069 0.73958 0.70455 0.0
Cd2034 Cd 0.34587 0.76693 0.66972 0.0
C2035 C 0.38576 0.73393 0.64753 0.0
O2036 O 0.36509 0.80102 0.68428 0.0
O2037 O 0.36675 0.79804 0.64763 0.0
O2038 O 0.30892 0.77646 0.68602 0.0
C2039 C 0.37099 0.81 0.6654 0.0
O2040 O 0.39753 0.74501 0.66234 0.0
C2041 C 0.29902 0.78113 0.66711 0.0
O2042 O 0.36428 0.73772 0.64498 0.0
O2043 O 0.30984 0.77598 0.64877 0.0
C2044 C 0.20887 0.61412 0.97207 0.0
O2045 O 0.19462 0.63061 0.9731 0.0
Cd2046 Cd 0.17422 0.64418 0.94165 0.0
O2047 O 0.2093 0.60071 0.95455 0.0
Cd2048 Cd 0.18194 0.59586 0.91971 0.0
C2049 C 0.21495 0.63574 0.89751 0.0
O2050 O 0.14785 0.61509 0.93428 0.0
O2051 O 0.15084 0.61674 0.89762 0.0
O2052 O 0.17241 0.55892 0.93604 0.0
C2053 C 0.13888 0.62099 0.91539 0.0
O2054 O 0.20387 0.64752 0.91233 0.0
C2055 C 0.16774 0.54901 0.91714 0.0
O2056 O 0.21116 0.61426 0.89497 0.0
O2057 O 0.1729 0.55982 0.89879 0.0
C2058 C 0.33472 0.4589 0.22207 0.0
O2059 O 0.31819 0.44469 0.22307 0.0
Cd2060 Cd 0.30463 0.42426 0.19162 0.0
O2061 O 0.34816 0.45931 0.20456 0.0
Cd2062 Cd 0.35297 0.43197 0.16971 0.0
C2063 C 0.31307 0.46496 0.14747 0.0
O2064 O 0.33373 0.39789 0.18429 0.0
O2065 O 0.33211 0.40083 0.14763 0.0
O2066 O 0.38992 0.42244 0.18601 0.0
C2067 C 0.32786 0.38889 0.16542 0.0
O2068 O 0.30128 0.45389 0.16228 0.0
C2069 C 0.39983 0.41777 0.16712 0.0
O2070 O 0.33456 0.46117 0.14496 0.0
O2071 O 0.389 0.42292 0.14877 0.0
C2072 C 0.49002 0.61409 0.72685 0.0
O2073 O 0.50428 0.63059 0.72581 0.0
Cd2074 Cd 0.52468 0.64417 0.75726 0.0
O2075 O 0.48959 0.60069 0.74438 0.0
Cd2076 Cd 0.51695 0.59587 0.77921 0.0
C2077 C 0.48395 0.63576 0.8014 0.0
O2078 O 0.55104 0.61509 0.76465 0.0
O2079 O 0.54805 0.61675 0.80131 0.0
O2080 O 0.52647 0.55892 0.76291 0.0
C2081 C 0.56001 0.62099 0.78353 0.0
O2082 O 0.49502 0.64753 0.78658 0.0
C2083 C 0.53114 0.549 0.7818 0.0
O2084 O 0.48773 0.61428 0.80395 0.0
O2085 O 0.52599 0.55983 0.80015 0.0
C2086 C 0.33479 0.74003 -0.02314 0.0
O2087 O 0.31827 0.75426 -0.02416 0.0
Cd2088 Cd 0.30469 0.77466 0.00729 0.0
O2089 O 0.3482 0.7396 -0.00562 0.0
Cd2090 Cd 0.35301 0.76694 0.02923 0.0
C2091 C 0.31312 0.73394 0.05143 0.0
O2092 O 0.33378 0.80102 0.01466 0.0
O2093 O 0.33213 0.79805 0.05132 0.0
O2094 O 0.38996 0.77647 0.01292 0.0
C2095 C 0.32789 0.81 0.03354 0.0
O2096 O 0.30134 0.74501 0.03661 0.0
C2097 C 0.39987 0.78114 0.03182 0.0
O2098 O 0.3346 0.73773 0.05396 0.0
O2099 O 0.38904 0.77599 0.05017 0.0
C2100 C 0.20891 0.58476 0.22685 0.0
O2101 O 0.19467 0.56825 0.22583 0.0
Cd2102 Cd 0.17425 0.55471 0.25728 0.0
O2103 O 0.20934 0.59818 0.24436 0.0
Cd2104 Cd 0.18197 0.60303 0.27919 0.0
C2105 C 0.21496 0.56315 0.30142 0.0
O2106 O 0.14789 0.5838 0.26463 0.0
O2107 O 0.15086 0.58216 0.30129 0.0
O2108 O 0.17243 0.63997 0.26286 0.0
C2109 C 0.13891 0.57791 0.28352 0.0
O2110 O 0.20388 0.55137 0.28661 0.0
C2111 C 0.16777 0.64989 0.28176 0.0
O2112 O 0.21118 0.58464 0.30394 0.0
O2113 O 0.17294 0.63908 0.30011 0.0
C2114 C 0.36408 0.45888 0.47686 0.0
O2115 O 0.38058 0.44463 0.47583 0.0
Cd2116 Cd 0.39416 0.42422 0.50727 0.0
O2117 O 0.35068 0.45931 0.49439 0.0
Cd2118 Cd 0.34585 0.43195 0.52923 0.0
C2119 C 0.38576 0.46495 0.55141 0.0
O2120 O 0.36508 0.39786 0.51467 0.0
O2121 O 0.36674 0.40085 0.55131 0.0
O2122 O 0.30891 0.42243 0.51292 0.0
C2123 C 0.37098 0.38888 0.53354 0.0
O2124 O 0.39753 0.45387 0.5366 0.0
C2125 C 0.299 0.41776 0.53182 0.0
O2126 O 0.36427 0.46116 0.55396 0.0
O2127 O 0.30982 0.42291 0.55017 0.0
C2128 C 0.97207 0.49002 0.08481 0.0
O2129 O 0.9731 0.50426 0.06831 0.0
Cd2130 Cd 0.94165 0.52466 0.05474 0.0
O2131 O 0.95455 0.48959 0.09822 0.0
Cd2132 Cd 0.91972 0.51694 0.10305 0.0
C2133 C 0.89751 0.48394 0.06316 0.0
O2134 O 0.93427 0.55103 0.08382 0.0
O2135 O 0.89762 0.54805 0.08218 0.0
O2136 O 0.93604 0.52648 0.13999 0.0
C2137 C 0.91539 0.56001 0.07793 0.0
O2138 O 0.91233 0.49501 0.05139 0.0
C2139 C 0.91714 0.53115 0.14991 0.0
O2140 O 0.89497 0.48773 0.08465 0.0
O2141 O 0.89879 0.52599 0.13909 0.0
C2142 C 0.4589 0.22206 0.3348 0.0
O2143 O 0.44465 0.22309 0.3183 0.0
Cd2144 Cd 0.42424 0.19164 0.30473 0.0
O2145 O 0.45933 0.20454 0.34822 0.0
Cd2146 Cd 0.43197 0.16971 0.35305 0.0
C2147 C 0.46496 0.1475 0.31316 0.0
O2148 O 0.39788 0.18427 0.33382 0.0
O2149 O 0.40086 0.14761 0.33218 0.0
O2150 O 0.42244 0.18602 0.39 0.0
C2151 C 0.38891 0.16539 0.32793 0.0
O2152 O 0.45389 0.16232 0.30138 0.0
C2153 C 0.41777 0.16712 0.39991 0.0
O2154 O 0.46118 0.14497 0.33464 0.0
O2155 O 0.42293 0.14877 0.38909 0.0
C2156 C 0.72683 0.70888 0.58482 0.0
O2157 O 0.72581 0.69464 0.56831 0.0
Cd2158 Cd 0.75726 0.67423 0.55474 0.0
O2159 O 0.74435 0.70931 0.59823 0.0
Cd2160 Cd 0.77919 0.68196 0.60306 0.0
C2161 C 0.8014 0.71495 0.56316 0.0
O2162 O 0.76463 0.64787 0.58384 0.0
O2163 O 0.80127 0.65085 0.58217 0.0
O2164 O 0.76288 0.67243 0.64001 0.0
C2165 C 0.78351 0.63888 0.57794 0.0
O2166 O 0.78658 0.70388 0.55139 0.0
C2167 C 0.78178 0.66776 0.64993 0.0
O2168 O 0.80393 0.71117 0.58465 0.0
O2169 O 0.80012 0.67291 0.63909 0.0
C2170 C 0.24001 -0.02316 0.83477 0.0
O2171 O 0.25426 -0.02419 0.81827 0.0
Cd2172 Cd 0.27467 0.00726 0.80472 0.0
O2173 O 0.23958 -0.00565 0.84819 0.0
Cd2174 Cd 0.26695 0.02918 0.85304 0.0
C2175 C 0.23395 0.05139 0.81317 0.0
O2176 O 0.30104 0.01462 0.83381 0.0
O2177 O 0.29805 0.05127 0.83217 0.0
O2178 O 0.27648 0.01286 0.88999 0.0
C2179 C 0.31001 0.0335 0.82792 0.0
O2180 O 0.24502 0.03658 0.80139 0.0
C2181 C 0.28114 0.03175 0.89991 0.0
O2182 O 0.23773 0.05392 0.83465 0.0
O2183 O 0.27599 0.05009 0.88909 0.0
C2184 C 0.97207 0.7089 0.1141 0.0
O2185 O 0.97309 0.69467 0.13062 0.0
Cd2186 Cd 0.94165 0.67426 0.14422 0.0
O2187 O 0.95454 0.70933 0.10069 0.0
Cd2188 Cd 0.9197 0.68198 0.09589 0.0
C2189 C 0.8975 0.71496 0.13581 0.0
O2190 O 0.93427 0.6479 0.11513 0.0
O2191 O 0.89762 0.65086 0.11677 0.0
O2192 O 0.936 0.67245 0.05894 0.0
C2193 C 0.9154 0.63892 0.12102 0.0
O2194 O 0.91231 0.70389 0.14758 0.0
C2195 C 0.91709 0.66778 0.04904 0.0
O2196 O 0.89496 0.71118 0.11432 0.0
O2197 O 0.89875 0.67293 0.05987 0.0
C2198 C 0.24 0.22206 0.36413 0.0
O2199 O 0.25425 0.22309 0.38063 0.0
Cd2200 Cd 0.27466 0.19164 0.39421 0.0
O2201 O 0.23958 0.20453 0.35072 0.0
Cd2202 Cd 0.26694 0.1697 0.34589 0.0
C2203 C 0.23394 0.1475 0.38579 0.0
O2204 O 0.30102 0.18427 0.36512 0.0
O2205 O 0.29805 0.14761 0.36677 0.0
O2206 O 0.27647 0.18601 0.30895 0.0
C2207 C 0.31 0.16539 0.37102 0.0
O2208 O 0.24501 0.16232 0.39757 0.0
C2209 C 0.28114 0.16711 0.29904 0.0
O2210 O 0.23772 0.14496 0.36431 0.0
O2211 O 0.27598 0.14876 0.30986 0.0
C2212 C 0.72684 0.49 0.61413 0.0
O2213 O 0.72581 0.50425 0.63064 0.0
Cd2214 Cd 0.75726 0.52466 0.6442 0.0
O2215 O 0.74436 0.48958 0.60072 0.0
Cd2216 Cd 0.7792 0.51693 0.59588 0.0
C2217 C 0.8014 0.48394 0.63578 0.0
O2218 O 0.76463 0.55102 0.61511 0.0
O2219 O 0.80128 0.54804 0.61677 0.0
O2220 O 0.76288 0.52646 0.55894 0.0
C2221 C 0.78351 0.56001 0.62101 0.0
O2222 O 0.78659 0.49501 0.64755 0.0
C2223 C 0.78178 0.53113 0.54902 0.0
O2224 O 0.80394 0.48772 0.61429 0.0
O2225 O 0.80012 0.52598 0.55985 0.0
C2226 C 0.45889 -0.02317 0.86413 0.0
O2227 O 0.44464 -0.0242 0.88063 0.0
Cd2228 Cd 0.42423 0.00725 0.8942 0.0
O2229 O 0.45932 -0.00565 0.85071 0.0
Cd2230 Cd 0.43197 0.02919 0.84588 0.0
C2231 C 0.46496 0.05139 0.88578 0.0
O2232 O 0.39788 0.01463 0.86511 0.0
O2233 O 0.40086 0.05127 0.86677 0.0
O2234 O 0.42244 0.01288 0.80893 0.0
C2235 C 0.38889 0.0335 0.871 0.0
O2236 O 0.45388 0.03658 0.89756 0.0
C2237 C 0.41778 0.03178 0.79903 0.0
O2238 O 0.46118 0.05393 0.8643 0.0
O2239 O 0.42293 0.05013 0.80985 0.0
C2240 C 0.5848 0.97206 -0.00997 0.0
O2241 O 0.5683 0.97309 0.00428 0.0
Cd2242 Cd 0.55472 0.94165 0.02469 0.0
O2243 O 0.59821 0.95454 -0.0104 0.0
Cd2244 Cd 0.60303 0.9197 0.01696 0.0
C2245 C 0.56313 0.89751 -0.01604 0.0
O2246 O 0.58381 0.93426 0.05105 0.0
O2247 O 0.58215 0.89762 0.04806 0.0
O2248 O 0.63998 0.93601 0.02648 0.0
C2249 C 0.57791 0.91538 0.06003 0.0
O2250 O 0.55136 0.91232 -0.00496 0.0
C2251 C 0.6499 0.91712 0.03115 0.0
O2252 O 0.58462 0.89496 -0.01225 0.0
O2253 O 0.63907 0.89877 0.026 0.0
C2254 C 0.08478 0.72684 0.2089 0.0
O2255 O 0.06827 0.72581 0.19465 0.0
Cd2256 Cd 0.0547 0.75726 0.17424 0.0
O2257 O 0.09819 0.74436 0.20932 0.0
Cd2258 Cd 0.10302 0.7792 0.18197 0.0
C2259 C 0.06312 0.80139 0.21497 0.0
O2260 O 0.08379 0.76464 0.14788 0.0
O2261 O 0.08215 0.80129 0.15086 0.0
O2262 O 0.13996 0.76288 0.17245 0.0
C2263 C 0.0779 0.78352 0.1389 0.0
O2264 O 0.05135 0.78658 0.20389 0.0
C2265 C 0.14987 0.78178 0.16778 0.0
O2266 O 0.0846 0.80393 0.21119 0.0
O2267 O 0.13905 0.80013 0.17293 0.0
C2268 C 0.22207 0.33479 0.4589 0.0
O2269 O 0.2231 0.31829 0.44465 0.0
Cd2270 Cd 0.19165 0.30472 0.42424 0.0
O2271 O 0.20455 0.3482 0.45933 0.0
Cd2272 Cd 0.16971 0.35303 0.43198 0.0
C2273 C 0.14752 0.31313 0.46497 0.0
O2274 O 0.18426 0.33381 0.39788 0.0
O2275 O 0.14762 0.33215 0.40088 0.0
O2276 O 0.18602 0.38998 0.42245 0.0
C2277 C 0.16539 0.32791 0.3889 0.0
O2278 O 0.16233 0.30136 0.45389 0.0
C2279 C 0.16713 0.3999 0.41779 0.0
O2280 O 0.14497 0.33461 0.46119 0.0
O2281 O 0.14878 0.38907 0.42294 0.0
C2282 C 0.6141 0.47206 0.70891 0.0
O2283 O 0.63061 0.47309 0.69467 0.0
Cd2284 Cd 0.64419 0.44164 0.67426 0.0
O2285 O 0.60069 0.45454 0.70934 0.0
Cd2286 Cd 0.59587 0.41971 0.68198 0.0
C2287 C 0.63576 0.3975 0.71498 0.0
O2288 O 0.6151 0.43427 0.64789 0.0
O2289 O 0.61675 0.39761 0.65087 0.0
O2290 O 0.55893 0.43602 0.67244 0.0
C2291 C 0.621 0.41539 0.63892 0.0
O2292 O 0.64754 0.41232 0.7039 0.0
C2293 C 0.54902 0.41712 0.66778 0.0
O2294 O 0.61428 0.39496 0.71119 0.0
O2295 O 0.55983 0.39877 0.67294 0.0
C2296 C -0.02316 0.86411 0.45892 0.0
O2297 O -0.02419 0.88062 0.44467 0.0
Cd2298 Cd 0.00725 0.89419 0.42426 0.0
O2299 O -0.00564 0.8507 0.45934 0.0
Cd2300 Cd 0.02919 0.84587 0.43198 0.0
C2301 C 0.05139 0.88577 0.46498 0.0
O2302 O 0.01463 0.8651 0.3979 0.0
O2303 O 0.05128 0.86675 0.40087 0.0
O2304 O 0.01288 0.80893 0.42245 0.0
C2305 C 0.0335 0.871 0.38892 0.0
O2306 O 0.03658 0.89754 0.4539 0.0
C2307 C 0.03178 0.79902 0.41778 0.0
O2308 O 0.05393 0.86429 0.46119 0.0
O2309 O 0.05013 0.80984 0.42294 0.0
C2310 C 0.6141 0.22683 -0.00996 0.0
O2311 O 0.63061 0.2258 0.00428 0.0
Cd2312 Cd 0.64418 0.25725 0.02469 0.0
O2313 O 0.60069 0.24435 -0.01039 0.0
Cd2314 Cd 0.59587 0.27919 0.01697 0.0
C2315 C 0.63576 0.30139 -0.01603 0.0
O2316 O 0.6151 0.26462 0.05105 0.0
O2317 O 0.61675 0.30128 0.04807 0.0
O2318 O 0.55892 0.26288 0.02651 0.0
C2319 C 0.62099 0.28351 0.06003 0.0
O2320 O 0.64754 0.28657 -0.00496 0.0
C2321 C 0.54901 0.28178 0.03117 0.0
O2322 O 0.61428 0.30392 -0.01224 0.0
O2323 O 0.55983 0.30012 0.02601 0.0
C2324 C 0.22205 0.36407 0.24006 0.0
O2325 O 0.22309 0.38057 0.25431 0.0
Cd2326 Cd 0.19164 0.39416 0.27471 0.0
O2327 O 0.20452 0.35067 0.23962 0.0
Cd2328 Cd 0.16968 0.34586 0.26698 0.0
C2329 C 0.14751 0.38576 0.23398 0.0
O2330 O 0.18424 0.36508 0.30107 0.0
O2331 O 0.1476 0.36675 0.29808 0.0
O2332 O 0.18598 0.30891 0.27649 0.0
C2333 C 0.16537 0.37099 0.31005 0.0
O2334 O 0.16233 0.39753 0.24506 0.0
C2335 C 0.16708 0.29899 0.28117 0.0
O2336 O 0.14495 0.36428 0.23776 0.0
O2337 O 0.14874 0.30983 0.27603 0.0
C2338 C 0.47682 0.8348 0.74004 0.0
O2339 O 0.47579 0.8183 0.75428 0.0
Cd2340 Cd 0.50724 0.80472 0.77468 0.0
O2341 O 0.49435 0.84821 0.7396 0.0
Cd2342 Cd 0.52918 0.85303 0.76696 0.0
C2343 C 0.55138 0.81313 0.73396 0.0
O2344 O 0.51463 0.8338 0.80105 0.0
O2345 O 0.55128 0.83215 0.79806 0.0
O2346 O 0.51287 0.88998 0.77649 0.0
C2347 C 0.53351 0.82791 0.81002 0.0
O2348 O 0.53656 0.80136 0.74504 0.0
C2349 C 0.53177 0.89988 0.78115 0.0
O2350 O 0.55392 0.83461 0.73775 0.0
O2351 O 0.55012 0.88906 0.77599 0.0
C2352 C 0.45889 0.3641 0.47685 0.0
O2353 O 0.44464 0.3806 0.47582 0.0
Cd2354 Cd 0.42423 0.39419 0.50727 0.0
O2355 O 0.45932 0.35069 0.49438 0.0
Cd2356 Cd 0.43195 0.34587 0.52921 0.0
C2357 C 0.46495 0.38577 0.55141 0.0
O2358 O 0.39787 0.36511 0.51465 0.0
O2359 O 0.40084 0.36675 0.55131 0.0
O2360 O 0.42242 0.30893 0.5129 0.0
C2361 C 0.38889 0.371 0.53354 0.0
O2362 O 0.45388 0.39754 0.53659 0.0
C2363 C 0.41775 0.29902 0.5318 0.0
O2364 O 0.46116 0.36429 0.55395 0.0
O2365 O 0.42291 0.30984 0.55015 0.0
C2366 C 0.58481 0.20888 0.22685 0.0
O2367 O 0.56831 0.19463 0.22581 0.0
Cd2368 Cd 0.55473 0.17423 0.25726 0.0
O2369 O 0.59821 0.20932 0.24437 0.0
Cd2370 Cd 0.60304 0.18196 0.27921 0.0
C2371 C 0.56314 0.21496 0.3014 0.0
O2372 O 0.58381 0.14787 0.26465 0.0
O2373 O 0.58215 0.15085 0.30131 0.0
O2374 O 0.63998 0.17242 0.2629 0.0
C2375 C 0.57791 0.13889 0.28353 0.0
O2376 O 0.55137 0.20388 0.28658 0.0
C2377 C 0.64989 0.16776 0.2818 0.0
O2378 O 0.58462 0.21117 0.30394 0.0
O2379 O 0.63907 0.17292 0.30015 0.0
C2380 C 0.74001 0.3348 -0.02315 0.0
O2381 O 0.75426 0.3183 -0.02419 0.0
Cd2382 Cd 0.77466 0.30471 0.00726 0.0
O2383 O 0.73958 0.3482 -0.00563 0.0
Cd2384 Cd 0.76694 0.35303 0.02921 0.0
C2385 C 0.73394 0.31313 0.0514 0.0
O2386 O 0.80103 0.3338 0.01465 0.0
O2387 O 0.79804 0.33215 0.05131 0.0
O2388 O 0.77648 0.38997 0.0129 0.0
C2389 C 0.81 0.3279 0.03353 0.0
O2390 O 0.74501 0.30135 0.03658 0.0
C2391 C 0.78114 0.39988 0.03181 0.0
O2392 O 0.73773 0.33461 0.05395 0.0
O2393 O 0.77598 0.38906 0.05015 0.0
C2394 C 0.6141 0.49001 0.72686 0.0
O2395 O 0.6306 0.50426 0.72582 0.0
Cd2396 Cd 0.64418 0.52466 0.75727 0.0
O2397 O 0.6007 0.48958 0.74438 0.0
Cd2398 Cd 0.59587 0.51694 0.77922 0.0
C2399 C 0.63577 0.48394 0.80141 0.0
O2400 O 0.6151 0.55103 0.76466 0.0
O2401 O 0.61675 0.54804 0.80131 0.0
O2402 O 0.55893 0.52647 0.7629 0.0
C2403 C 0.621 0.56 0.78354 0.0
O2404 O 0.64754 0.49502 0.78659 0.0
C2405 C 0.54902 0.53114 0.7818 0.0
O2406 O 0.61429 0.48773 0.80396 0.0
O2407 O 0.55984 0.52598 0.80015 0.0
C2408 C 0.45885 0.33483 0.22208 0.0
O2409 O 0.44459 0.31833 0.22312 0.0
Cd2410 Cd 0.4242 0.30474 0.19167 0.0
O2411 O 0.45928 0.34823 0.20455 0.0
Cd2412 Cd 0.43192 0.35305 0.16972 0.0
C2413 C 0.46492 0.31316 0.14753 0.0
O2414 O 0.39783 0.33381 0.18428 0.0
O2415 O 0.40082 0.33215 0.14763 0.0
O2416 O 0.42237 0.38999 0.18602 0.0
C2417 C 0.38886 0.3279 0.1654 0.0
O2418 O 0.45385 0.30139 0.16235 0.0
C2419 C 0.4177 0.39989 0.16712 0.0
O2420 O 0.46113 0.33464 0.14498 0.0
O2421 O 0.42286 0.38907 0.14877 0.0
C2422 C 0.6141 0.20888 0.97209 0.0
O2423 O 0.6306 0.19463 0.97313 0.0
Cd2424 Cd 0.64418 0.17423 0.94168 0.0
O2425 O 0.60069 0.20931 0.95457 0.0
Cd2426 Cd 0.59587 0.18195 0.91973 0.0
C2427 C 0.63577 0.21495 0.89754 0.0
O2428 O 0.6151 0.14787 0.93429 0.0
O2429 O 0.61675 0.15085 0.89763 0.0
O2430 O 0.55893 0.17242 0.93604 0.0
C2431 C 0.621 0.13889 0.91541 0.0
O2432 O 0.64754 0.20388 0.91235 0.0
C2433 C 0.54902 0.16775 0.91714 0.0
O2434 O 0.61429 0.21116 0.89499 0.0
O2435 O 0.55984 0.17291 0.89879 0.0
C2436 C 0.74001 0.36409 0.72209 0.0
O2437 O 0.75426 0.3806 0.72312 0.0
Cd2438 Cd 0.77467 0.39418 0.69168 0.0
O2439 O 0.73958 0.35069 0.70456 0.0
Cd2440 Cd 0.76694 0.34586 0.66973 0.0
C2441 C 0.73395 0.38576 0.64753 0.0
O2442 O 0.80103 0.36509 0.68429 0.0
O2443 O 0.79805 0.36674 0.64763 0.0
O2444 O 0.77648 0.30892 0.68604 0.0
C2445 C 0.81 0.37099 0.66541 0.0
O2446 O 0.74502 0.39753 0.66235 0.0
C2447 C 0.78114 0.29901 0.66714 0.0
O2448 O 0.73773 0.36427 0.64499 0.0
O2449 O 0.77598 0.30983 0.64879 0.0
C2450 C 0.5848 0.49 0.4721 0.0
O2451 O 0.5683 0.50425 0.47313 0.0
Cd2452 Cd 0.55472 0.52465 0.44168 0.0
O2453 O 0.59821 0.48957 0.45457 0.0
Cd2454 Cd 0.60303 0.51693 0.41973 0.0
C2455 C 0.56313 0.48393 0.39754 0.0
O2456 O 0.5838 0.55102 0.4343 0.0
O2457 O 0.58215 0.54804 0.39764 0.0
O2458 O 0.63998 0.52646 0.43604 0.0
C2459 C 0.57791 0.55999 0.41541 0.0
O2460 O 0.55136 0.49501 0.41236 0.0
C2461 C 0.64988 0.53112 0.41714 0.0
O2462 O 0.58461 0.48772 0.395 0.0
O2463 O 0.63906 0.52597 0.39879 0.0
C2464 C -0.02318 0.45887 0.86413 0.0
O2465 O -0.02422 0.44463 0.88063 0.0
Cd2466 Cd 0.00723 0.42422 0.89421 0.0
O2467 O -0.00565 0.45931 0.85072 0.0
Cd2468 Cd 0.02919 0.43195 0.8459 0.0
C2469 C 0.05137 0.46495 0.88581 0.0
O2470 O 0.01462 0.39786 0.86513 0.0
O2471 O 0.05128 0.40084 0.86678 0.0
O2472 O 0.01288 0.42242 0.80895 0.0
C2473 C 0.0335 0.38889 0.87102 0.0
O2474 O 0.03655 0.45387 0.89757 0.0
C2475 C 0.03178 0.41776 0.79904 0.0
O2476 O 0.05392 0.46116 0.86432 0.0
O2477 O 0.05013 0.42291 0.80986 0.0
C2478 C 0.49 0.72682 0.61414 0.0
O2479 O 0.50424 0.7258 0.63065 0.0
Cd2480 Cd 0.52465 0.75725 0.64422 0.0
O2481 O 0.48958 0.74435 0.60072 0.0
Cd2482 Cd 0.51693 0.77918 0.5959 0.0
C2483 C 0.48393 0.80138 0.6358 0.0
O2484 O 0.55101 0.76462 0.61513 0.0
O2485 O 0.54804 0.80127 0.61677 0.0
O2486 O 0.52647 0.76287 0.55895 0.0
C2487 C 0.55999 0.7835 0.62102 0.0
O2488 O 0.49501 0.78657 0.64757 0.0
C2489 C 0.53113 0.78177 0.54904 0.0
O2490 O 0.48772 0.80392 0.61431 0.0
O2491 O 0.52597 0.80012 0.55986 0.0
C2492 C 0.22206 0.24 0.36413 0.0
O2493 O 0.22309 0.25425 0.38063 0.0
Cd2494 Cd 0.19164 0.27465 0.39421 0.0
O2495 O 0.20453 0.23957 0.35072 0.0
Cd2496 Cd 0.1697 0.26693 0.3459 0.0
C2497 C 0.1475 0.23393 0.3858 0.0
O2498 O 0.18426 0.30102 0.36512 0.0
O2499 O 0.14761 0.29804 0.36678 0.0
O2500 O 0.18599 0.27645 0.30894 0.0
C2501 C 0.16538 0.30999 0.37102 0.0
O2502 O 0.16232 0.24501 0.39757 0.0
C2503 C 0.16709 0.28112 0.29905 0.0
O2504 O 0.14496 0.23772 0.36432 0.0
O2505 O 0.14875 0.27597 0.30987 0.0
C2506 C 0.7089 0.97206 0.11413 0.0
O2507 O 0.69465 0.9731 0.13063 0.0
Cd2508 Cd 0.67423 0.94166 0.14421 0.0
O2509 O 0.70932 0.95454 0.10072 0.0
Cd2510 Cd 0.68196 0.91971 0.09589 0.0
C2511 C 0.71495 0.89752 0.13579 0.0
O2512 O 0.64787 0.93428 0.11512 0.0
O2513 O 0.65084 0.89762 0.11677 0.0
O2514 O 0.67243 0.93602 0.05894 0.0
C2515 C 0.63889 0.9154 0.12102 0.0
O2516 O 0.70387 0.91234 0.14756 0.0
C2517 C 0.66776 0.91712 0.04904 0.0
O2518 O 0.71116 0.89497 0.11431 0.0
O2519 O 0.67292 0.89878 0.05986 0.0
C2520 C -0.02317 0.24001 0.83482 0.0
O2521 O -0.0242 0.25425 0.81831 0.0
Cd2522 Cd 0.00725 0.27465 0.80473 0.0
O2523 O -0.00565 0.23958 0.84823 0.0
Cd2524 Cd 0.02919 0.26693 0.85305 0.0
C2525 C 0.05139 0.23393 0.81315 0.0
O2526 O 0.01463 0.30101 0.83382 0.0
O2527 O 0.05128 0.29804 0.83217 0.0
O2528 O 0.01288 0.27646 0.89 0.0
C2529 C 0.03351 0.30999 0.82793 0.0
O2530 O 0.03657 0.24501 0.80138 0.0
C2531 C 0.03178 0.28112 0.89991 0.0
O2532 O 0.05393 0.23772 0.83464 0.0
O2533 O 0.05013 0.27597 0.88908 0.0
C2534 C 0.70888 0.72683 0.58482 0.0
O2535 O 0.69464 0.72579 0.56832 0.0
Cd2536 Cd 0.67423 0.75724 0.55473 0.0
O2537 O 0.70931 0.74435 0.59823 0.0
Cd2538 Cd 0.68196 0.77919 0.60305 0.0
C2539 C 0.71495 0.80138 0.56314 0.0
O2540 O 0.64787 0.76462 0.58382 0.0
O2541 O 0.65085 0.80128 0.58217 0.0
O2542 O 0.67242 0.76288 0.64 0.0
C2543 C 0.63889 0.7835 0.57793 0.0
O2544 O 0.70388 0.78656 0.55137 0.0
C2545 C 0.66776 0.78178 0.6499 0.0
O2546 O 0.71117 0.80392 0.58463 0.0
O2547 O 0.67292 0.80013 0.63908 0.0
C2548 C 0.22206 0.4589 0.33482 0.0
O2549 O 0.22309 0.44466 0.31831 0.0
Cd2550 Cd 0.19164 0.42425 0.30473 0.0
O2551 O 0.20454 0.45933 0.34823 0.0
Cd2552 Cd 0.1697 0.43197 0.35305 0.0
C2553 C 0.14751 0.46497 0.31316 0.0
O2554 O 0.18426 0.39788 0.33382 0.0
O2555 O 0.14761 0.40086 0.33218 0.0
O2556 O 0.18602 0.42243 0.39 0.0
C2557 C 0.16538 0.38891 0.32793 0.0
O2558 O 0.16232 0.45389 0.30138 0.0
C2559 C 0.16712 0.41777 0.39991 0.0
O2560 O 0.14497 0.46118 0.33464 0.0
O2561 O 0.14877 0.42293 0.38909 0.0
C2562 C 0.49001 0.97206 0.08481 0.0
O2563 O 0.50425 0.97309 0.0683 0.0
Cd2564 Cd 0.52466 0.94165 0.05473 0.0
O2565 O 0.48958 0.95454 0.09822 0.0
Cd2566 Cd 0.51694 0.9197 0.10304 0.0
C2567 C 0.48394 0.89751 0.06315 0.0
O2568 O 0.55102 0.93427 0.08381 0.0
O2569 O 0.54805 0.89761 0.08217 0.0
O2570 O 0.52646 0.93602 0.13999 0.0
C2571 C 0.56 0.91539 0.07792 0.0
O2572 O 0.49501 0.91232 0.05137 0.0
C2573 C 0.53113 0.91712 0.1499 0.0
O2574 O 0.48773 0.89497 0.08463 0.0
O2575 O 0.52597 0.89877 0.13908 0.0
C2576 C 0.3641 -0.02319 0.95892 0.0
O2577 O 0.38061 -0.02422 0.94467 0.0
Cd2578 Cd 0.39419 0.00722 0.92426 0.0
O2579 O 0.3507 -0.00566 0.95934 0.0
Cd2580 Cd 0.34588 0.02917 0.93198 0.0
C2581 C 0.38578 0.05136 0.96498 0.0
O2582 O 0.36511 0.01461 0.89789 0.0
O2583 O 0.36675 0.05126 0.90087 0.0
O2584 O 0.30894 0.01285 0.92244 0.0
C2585 C 0.371 0.03349 0.88892 0.0
O2586 O 0.39755 0.03655 0.9539 0.0
C2587 C 0.29902 0.03175 0.91778 0.0
O2588 O 0.36429 0.05391 0.96119 0.0
O2589 O 0.30984 0.0501 0.92294 0.0
C2590 C 0.86411 0.22207 0.74003 0.0
O2591 O 0.88061 0.2231 0.75427 0.0
Cd2592 Cd 0.89419 0.19166 0.77468 0.0
O2593 O 0.8507 0.20455 0.7396 0.0
Cd2594 Cd 0.84587 0.16972 0.76696 0.0
C2595 C 0.88576 0.14752 0.73396 0.0
O2596 O 0.8651 0.18428 0.80105 0.0
O2597 O 0.86674 0.14763 0.79807 0.0
O2598 O 0.80892 0.18603 0.77649 0.0
C2599 C 0.87099 0.1654 0.81003 0.0
O2600 O 0.89754 0.16233 0.74504 0.0
C2601 C 0.79901 0.16713 0.78115 0.0
O2602 O 0.86428 0.14498 0.73775 0.0
O2603 O 0.80983 0.14878 0.776 0.0
C2604 C 0.72682 0.6141 0.49004 0.0
O2605 O 0.72578 0.6306 0.50429 0.0
Cd2606 Cd 0.75723 0.64419 0.52469 0.0
O2607 O 0.74435 0.60069 0.48961 0.0
Cd2608 Cd 0.77918 0.59587 0.51696 0.0
C2609 C 0.80137 0.63578 0.48397 0.0
O2610 O 0.76462 0.6151 0.55105 0.0
O2611 O 0.80128 0.61675 0.54807 0.0
O2612 O 0.76287 0.55893 0.52649 0.0
C2613 C 0.7835 0.621 0.56003 0.0
O2614 O 0.78655 0.64755 0.49504 0.0
C2615 C 0.78177 0.54902 0.53116 0.0
O2616 O 0.80392 0.61429 0.48775 0.0
O2617 O 0.80012 0.55984 0.526 0.0
C2618 C 0.33476 0.47682 0.24003 0.0
O2619 O 0.31827 0.47578 0.2543 0.0
Cd2620 Cd 0.30472 0.50724 0.27471 0.0
O2621 O 0.34817 0.49434 0.2396 0.0
Cd2622 Cd 0.35303 0.52916 0.26698 0.0
C2623 C 0.31316 0.55136 0.23397 0.0
O2624 O 0.3338 0.51462 0.30107 0.0
O2625 O 0.33215 0.55127 0.29808 0.0
O2626 O 0.38997 0.51284 0.27652 0.0
C2627 C 0.32791 0.5335 0.31004 0.0
O2628 O 0.30138 0.53655 0.24505 0.0
C2629 C 0.39989 0.53174 0.28117 0.0
O2630 O 0.33464 0.5539 0.23776 0.0
O2631 O 0.38907 0.55009 0.27601 0.0
C2632 C 0.97207 0.08477 0.49003 0.0
O2633 O 0.9731 0.06827 0.50428 0.0
Cd2634 Cd 0.94166 0.05468 0.52469 0.0
O2635 O 0.95455 0.09818 0.48961 0.0
Cd2636 Cd 0.91971 0.103 0.51697 0.0
C2637 C 0.89752 0.0631 0.48397 0.0
O2638 O 0.93428 0.08377 0.55105 0.0
O2639 O 0.89762 0.08213 0.54808 0.0
O2640 O 0.93603 0.13995 0.5265 0.0
C2641 C 0.9154 0.07788 0.56003 0.0
O2642 O 0.91233 0.05133 0.49505 0.0
C2643 C 0.91713 0.14986 0.53116 0.0
O2644 O 0.89498 0.08459 0.48776 0.0
O2645 O 0.89878 0.13904 0.526 0.0
C2646 C 0.33481 0.7221 0.95889 0.0
O2647 O 0.31832 0.72315 0.94463 0.0
Cd2648 Cd 0.30473 0.6917 0.92423 0.0
O2649 O 0.3482 0.70456 0.95933 0.0
Cd2650 Cd 0.35303 0.66974 0.93196 0.0
C2651 C 0.31313 0.64756 0.96496 0.0
O2652 O 0.33381 0.68429 0.89787 0.0
O2653 O 0.33216 0.64763 0.90087 0.0
O2654 O 0.38998 0.68605 0.92243 0.0
C2655 C 0.32791 0.6654 0.8889 0.0
O2656 O 0.30136 0.66238 0.95388 0.0
C2657 C 0.39989 0.66715 0.91777 0.0
O2658 O 0.33461 0.64501 0.96117 0.0
O2659 O 0.38907 0.6488 0.92293 0.0
C2660 C 0.72683 0.58478 0.70892 0.0
O2661 O 0.7258 0.56828 0.69467 0.0
Cd2662 Cd 0.75724 0.5547 0.67426 0.0
O2663 O 0.74435 0.59819 0.70935 0.0
Cd2664 Cd 0.77919 0.60302 0.68198 0.0
C2665 C 0.80138 0.56312 0.71498 0.0
O2666 O 0.76463 0.58379 0.6479 0.0
O2667 O 0.80128 0.58214 0.65087 0.0
O2668 O 0.76288 0.63996 0.67245 0.0
C2669 C 0.78351 0.5779 0.63892 0.0
O2670 O 0.78657 0.55135 0.7039 0.0
C2671 C 0.78178 0.64987 0.66779 0.0
O2672 O 0.80393 0.5846 0.71119 0.0
O2673 O 0.80012 0.63905 0.67295 0.0
C2674 C 0.47208 0.1141 0.20891 0.0
O2675 O 0.47311 0.1306 0.19467 0.0
Cd2676 Cd 0.44166 0.14418 0.17426 0.0
O2677 O 0.45456 0.10069 0.20934 0.0
Cd2678 Cd 0.41972 0.09586 0.18199 0.0
C2679 C 0.39752 0.13576 0.21499 0.0
O2680 O 0.43428 0.11509 0.1479 0.0
O2681 O 0.39763 0.11674 0.15088 0.0
O2682 O 0.43603 0.05891 0.17245 0.0
C2683 C 0.4154 0.12098 0.13892 0.0
O2684 O 0.41234 0.14753 0.20391 0.0
C2685 C 0.41713 0.04901 0.16779 0.0
O2686 O 0.39498 0.11427 0.2112 0.0
O2687 O 0.39878 0.05983 0.17295 0.0
loop_
_geom_bond_atom_site_label_1
_geom_bond_atom_site_label_2
_geom_bond_distance
_geom_bond_site_symmetry_2
_ccdc_geom_bond_type
C0 O1 1.306 . S
C0 O3 1.160 . S
O1 C0 1.306 . S
O1 Cd2 2.228 . S
Cd2 O1 2.228 . S
Cd2 O6 2.273 . S
Cd2 O10 2.277 . S
O3 C0 1.160 . S
O3 Cd4 2.203 . S
Cd4 O3 2.203 . S
Cd4 O6 2.411 . S
Cd4 O7 2.333 . S
Cd4 O8 2.352 . S
Cd4 O12 2.277 . S
Cd4 O13 2.356 . S
C5 O10 1.209 . S
C5 O12 1.226 . S
O6 Cd2 2.273 . S
O6 Cd4 2.411 . S
O6 C9 1.320 . S
O7 Cd4 2.333 . S
O7 C9 1.214 . S
O8 Cd4 2.352 . S
O8 C11 1.258 . S
C9 O6 1.320 . S
C9 O7 1.214 . S
O10 Cd2 2.277 . S
O10 C5 1.209 . S
C11 O8 1.258 . S
C11 O13 1.282 . S
O12 Cd4 2.277 . S
O12 C5 1.226 . S
O13 Cd4 2.356 . S
O13 C11 1.282 . S
C14 O15 1.306 . S
C14 O17 1.160 . S
O15 C14 1.306 . S
O15 Cd16 2.228 . S
Cd16 O15 2.228 . S
Cd16 O20 2.273 . S
Cd16 O24 2.277 . S
O17 C14 1.160 . S
O17 Cd18 2.203 . S
Cd18 O17 2.203 . S
Cd18 O20 2.411 . S
Cd18 O21 2.333 . S
Cd18 O22 2.352 . S
Cd18 O26 2.277 . S
Cd18 O27 2.356 . S
C19 O24 1.209 . S
C19 O26 1.226 . S
O20 Cd16 2.273 . S
O20 Cd18 2.411 . S
O20 C23 1.320 . S
O21 Cd18 2.333 . S
O21 C23 1.214 . S
O22 Cd18 2.352 . S
O22 C25 1.258 . S
C23 O20 1.320 . S
C23 O21 1.214 . S
O24 Cd16 2.277 . S
O24 C19 1.209 . S
C25 O22 1.258 . S
C25 O27 1.282 . S
O26 Cd18 2.277 . S
O26 C19 1.226 . S
O27 Cd18 2.356 . S
O27 C25 1.282 . S
C28 O29 1.306 . S
C28 O31 1.160 . S
O29 C28 1.306 . S
O29 Cd30 2.228 . S
Cd30 O29 2.228 . S
Cd30 O34 2.273 . S
Cd30 O38 2.277 . S
O31 C28 1.160 . S
O31 Cd32 2.203 . S
Cd32 O31 2.203 . S
Cd32 O34 2.411 . S
Cd32 O35 2.333 . S
Cd32 O36 2.352 . S
Cd32 O40 2.277 . S
Cd32 O41 2.356 . S
C33 O38 1.209 . S
C33 O40 1.226 . S
O34 Cd30 2.273 . S
O34 Cd32 2.411 . S
O34 C37 1.320 . S
O35 Cd32 2.333 . S
O35 C37 1.214 . S
O36 Cd32 2.352 . S
O36 C39 1.258 . S
C37 O34 1.320 . S
C37 O35 1.214 . S
O38 Cd30 2.277 . S
O38 C33 1.209 . S
C39 O36 1.258 . S
C39 O41 1.282 . S
O40 Cd32 2.277 . S
O40 C33 1.226 . S
O41 Cd32 2.356 . S
O41 C39 1.282 . S
C42 O43 1.306 . S
C42 O45 1.160 . S
O43 C42 1.306 . S
O43 Cd44 2.228 . S
Cd44 O43 2.228 . S
Cd44 O48 2.273 . S
Cd44 O52 2.277 . S
O45 C42 1.160 . S
O45 Cd46 2.203 . S
Cd46 O45 2.203 . S
Cd46 O48 2.411 . S
Cd46 O49 2.333 . S
Cd46 O50 2.352 . S
Cd46 O54 2.277 . S
Cd46 O55 2.356 . S
C47 O52 1.209 . S
C47 O54 1.226 . S
O48 Cd44 2.273 . S
O48 Cd46 2.411 . S
O48 C51 1.320 . S
O49 Cd46 2.333 . S
O49 C51 1.214 . S
O50 Cd46 2.352 . S
O50 C53 1.258 . S
C51 O48 1.320 . S
C51 O49 1.214 . S
O52 Cd44 2.277 . S
O52 C47 1.209 . S
C53 O50 1.258 . S
C53 O55 1.282 . S
O54 Cd46 2.277 . S
O54 C47 1.226 . S
O55 Cd46 2.356 . S
O55 C53 1.282 . S
C56 O57 1.306 . S
C56 O59 1.160 . S
O57 C56 1.306 . S
O57 Cd58 2.228 . S
Cd58 O57 2.228 . S
Cd58 O62 2.273 . S
Cd58 O66 2.277 . S
O59 C56 1.160 . S
O59 Cd60 2.203 . S
Cd60 O59 2.203 . S
Cd60 O62 2.411 . S
Cd60 O63 2.333 . S
Cd60 O64 2.352 . S
Cd60 O68 2.277 . S
Cd60 O69 2.356 . S
C61 O66 1.209 . S
C61 O68 1.226 . S
O62 Cd58 2.273 . S
O62 Cd60 2.411 . S
O62 C65 1.320 . S
O63 Cd60 2.333 . S
O63 C65 1.214 . S
O64 Cd60 2.352 . S
O64 C67 1.258 . S
C65 O62 1.320 . S
C65 O63 1.214 . S
O66 Cd58 2.277 . S
O66 C61 1.209 . S
C67 O64 1.258 . S
C67 O69 1.282 . S
O68 Cd60 2.277 . S
O68 C61 1.226 . S
O69 Cd60 2.356 . S
O69 C67 1.282 . S
C70 O71 1.306 . S
C70 O73 1.160 . S
O71 C70 1.306 . S
O71 Cd72 2.228 . S
Cd72 O71 2.228 . S
Cd72 O76 2.273 . S
Cd72 O80 2.277 . S
O73 C70 1.160 . S
O73 Cd74 2.203 . S
Cd74 O73 2.203 . S
Cd74 O76 2.411 . S
Cd74 O77 2.333 . S
Cd74 O78 2.352 . S
Cd74 O82 2.277 . S
Cd74 O83 2.356 . S
C75 O80 1.209 . S
C75 O82 1.226 . S
O76 Cd72 2.273 . S
O76 Cd74 2.411 . S
O76 C79 1.320 . S
O77 Cd74 2.333 . S
O77 C79 1.214 . S
O78 Cd74 2.352 . S
O78 C81 1.258 . S
C79 O76 1.320 . S
C79 O77 1.214 . S
O80 Cd72 2.277 . S
O80 C75 1.209 . S
C81 O78 1.258 . S
C81 O83 1.282 . S
O82 Cd74 2.277 . S
O82 C75 1.226 . S
O83 Cd74 2.356 . S
O83 C81 1.282 . S
C84 O85 1.306 . S
C84 O87 1.160 . S
O85 C84 1.306 . S
O85 Cd86 2.228 . S
Cd86 O85 2.228 . S
Cd86 O90 2.273 . S
Cd86 O94 2.277 . S
O87 C84 1.160 . S
O87 Cd88 2.203 . S
Cd88 O87 2.203 . S
Cd88 O90 2.411 . S
Cd88 O91 2.333 . S
Cd88 O92 2.352 . S
Cd88 O96 2.277 . S
Cd88 O97 2.356 . S
C89 O94 1.209 . S
C89 O96 1.226 . S
O90 Cd86 2.273 . S
O90 Cd88 2.411 . S
O90 C93 1.320 . S
O91 Cd88 2.333 . S
O91 C93 1.214 . S
O92 Cd88 2.352 . S
O92 C95 1.258 . S
C93 O90 1.320 . S
C93 O91 1.214 . S
O94 Cd86 2.277 . S
O94 C89 1.209 . S
C95 O92 1.258 . S
C95 O97 1.282 . S
O96 Cd88 2.277 . S
O96 C89 1.226 . S
O97 Cd88 2.356 . S
O97 C95 1.282 . S
C98 O99 1.306 . S
C98 O101 1.160 . S
O99 C98 1.306 . S
O99 Cd100 2.228 . S
Cd100 O99 2.228 . S
Cd100 O104 2.273 . S
Cd100 O108 2.277 . S
O101 C98 1.160 . S
O101 Cd102 2.203 . S
Cd102 O101 2.203 . S
Cd102 O104 2.411 . S
Cd102 O105 2.333 . S
Cd102 O106 2.352 . S
Cd102 O110 2.277 . S
Cd102 O111 2.356 . S
C103 O108 1.209 . S
C103 O110 1.226 . S
O104 Cd100 2.273 . S
O104 Cd102 2.411 . S
O104 C107 1.320 . S
O105 Cd102 2.333 . S
O105 C107 1.214 . S
O106 Cd102 2.352 . S
O106 C109 1.258 . S
C107 O104 1.320 . S
C107 O105 1.214 . S
O108 Cd100 2.277 . S
O108 C103 1.209 . S
C109 O106 1.258 . S
C109 O111 1.282 . S
O110 Cd102 2.277 . S
O110 C103 1.226 . S
O111 Cd102 2.356 . S
O111 C109 1.282 . S
C112 O113 1.306 . S
C112 O115 1.160 . S
O113 C112 1.306 . S
O113 Cd114 2.228 . S
Cd114 O113 2.228 . S
Cd114 O118 2.273 . S
Cd114 O122 2.277 . S
O115 C112 1.160 . S
O115 Cd116 2.203 . S
Cd116 O115 2.203 . S
Cd116 O118 2.411 . S
Cd116 O119 2.333 . S
Cd116 O120 2.352 . S
Cd116 O124 2.277 . S
Cd116 O125 2.356 . S
C117 O122 1.209 . S
C117 O124 1.226 . S
O118 Cd114 2.273 . S
O118 Cd116 2.411 . S
O118 C121 1.320 . S
O119 Cd116 2.333 . S
O119 C121 1.214 . S
O120 Cd116 2.352 . S
O120 C123 1.258 . S
C121 O118 1.320 . S
C121 O119 1.214 . S
O122 Cd114 2.277 . S
O122 C117 1.209 . S
C123 O120 1.258 . S
C123 O125 1.282 . S
O124 Cd116 2.277 . S
O124 C117 1.226 . S
O125 Cd116 2.356 . S
O125 C123 1.282 . S
C126 O127 1.306 . S
C126 O129 1.160 . S
O127 C126 1.306 . S
O127 Cd128 2.228 . S
Cd128 O127 2.228 . S
Cd128 O132 2.273 . S
Cd128 O136 2.277 . S
O129 C126 1.160 . S
O129 Cd130 2.203 . S
Cd130 O129 2.203 . S
Cd130 O132 2.411 . S
Cd130 O133 2.333 . S
Cd130 O134 2.352 . S
Cd130 O138 2.277 . S
Cd130 O139 2.356 . S
C131 O136 1.209 . S
C131 O138 1.226 . S
O132 Cd128 2.273 . S
O132 Cd130 2.411 . S
O132 C135 1.320 . S
O133 Cd130 2.333 . S
O133 C135 1.214 . S
O134 Cd130 2.352 . S
O134 C137 1.258 . S
C135 O132 1.320 . S
C135 O133 1.214 . S
O136 Cd128 2.277 . S
O136 C131 1.209 . S
C137 O134 1.258 . S
C137 O139 1.282 . S
O138 Cd130 2.277 . S
O138 C131 1.226 . S
O139 Cd130 2.356 . S
O139 C137 1.282 . S
C140 O141 1.306 . S
C140 O143 1.160 . S
O141 C140 1.306 . S
O141 Cd142 2.228 . S
Cd142 O141 2.228 . S
Cd142 O146 2.273 . S
Cd142 O150 2.277 . S
O143 C140 1.160 . S
O143 Cd144 2.203 . S
Cd144 O143 2.203 . S
Cd144 O146 2.411 . S
Cd144 O147 2.333 . S
Cd144 O148 2.352 . S
Cd144 O152 2.277 . S
Cd144 O153 2.356 . S
C145 O150 1.209 . S
C145 O152 1.226 . S
O146 Cd142 2.273 . S
O146 Cd144 2.411 . S
O146 C149 1.320 . S
O147 Cd144 2.333 . S
O147 C149 1.214 . S
O148 Cd144 2.352 . S
O148 C151 1.258 . S
C149 O146 1.320 . S
C149 O147 1.214 . S
O150 Cd142 2.277 . S
O150 C145 1.209 . S
C151 O148 1.258 . S
C151 O153 1.282 . S
O152 Cd144 2.277 . S
O152 C145 1.226 . S
O153 Cd144 2.356 . S
O153 C151 1.282 . S
C154 O155 1.306 . S
C154 O157 1.160 . S
O155 C154 1.306 . S
O155 Cd156 2.228 . S
Cd156 O155 2.228 . S
Cd156 O160 2.273 . S
Cd156 O164 2.277 . S
O157 C154 1.160 . S
O157 Cd158 2.203 . S
Cd158 O157 2.203 . S
Cd158 O160 2.411 . S
Cd158 O161 2.333 . S
Cd158 O162 2.352 . S
Cd158 O166 2.277 . S
Cd158 O167 2.356 . S
C159 O164 1.209 . S
C159 O166 1.226 . S
O160 Cd156 2.273 . S
O160 Cd158 2.411 . S
O160 C163 1.320 . S
O161 Cd158 2.333 . S
O161 C163 1.214 . S
O162 Cd158 2.352 . S
O162 C165 1.258 . S
C163 O160 1.320 . S
C163 O161 1.214 . S
O164 Cd156 2.277 . S
O164 C159 1.209 . S
C165 O162 1.258 . S
C165 O167 1.282 . S
O166 Cd158 2.277 . S
O166 C159 1.226 . S
O167 Cd158 2.356 . S
O167 C165 1.282 . S
C168 O169 1.306 . S
C168 O171 1.160 . S
O169 C168 1.306 . S
O169 Cd170 2.228 . S
Cd170 O169 2.228 . S
Cd170 O174 2.273 . S
Cd170 O178 2.277 . S
O171 C168 1.160 . S
O171 Cd172 2.203 . S
Cd172 O171 2.203 . S
Cd172 O174 2.411 . S
Cd172 O175 2.333 . S
Cd172 O176 2.352 . S
Cd172 O180 2.277 . S
Cd172 O181 2.356 . S
C173 O178 1.209 . S
C173 O180 1.226 . S
O174 Cd170 2.273 . S
O174 Cd172 2.411 . S
O174 C177 1.320 . S
O175 Cd172 2.333 . S
O175 C177 1.214 . S
O176 Cd172 2.352 . S
O176 C179 1.258 . S
C177 O174 1.320 . S
C177 O175 1.214 . S
O178 Cd170 2.277 . S
O178 C173 1.209 . S
C179 O176 1.258 . S
C179 O181 1.282 . S
O180 Cd172 2.277 . S
O180 C173 1.226 . S
O181 Cd172 2.356 . S
O181 C179 1.282 . S
C182 O183 1.306 . S
C182 O185 1.160 . S
O183 C182 1.306 . S
O183 Cd184 2.228 . S
Cd184 O183 2.228 . S
Cd184 O188 2.273 . S
Cd184 O192 2.277 . S
O185 C182 1.160 . S
O185 Cd186 2.203 . S
Cd186 O185 2.203 . S
Cd186 O188 2.411 . S
Cd186 O189 2.333 . S
Cd186 O190 2.352 . S
Cd186 O194 2.277 . S
Cd186 O195 2.356 . S
C187 O192 1.209 . S
C187 O194 1.226 . S
O188 Cd184 2.273 . S
O188 Cd186 2.411 . S
O188 C191 1.320 . S
O189 Cd186 2.333 . S
O189 C191 1.214 . S
O190 Cd186 2.352 . S
O190 C193 1.258 . S
C191 O188 1.320 . S
C191 O189 1.214 . S
O192 Cd184 2.277 . S
O192 C187 1.209 . S
C193 O190 1.258 . S
C193 O195 1.282 . S
O194 Cd186 2.277 . S
O194 C187 1.226 . S
O195 Cd186 2.356 . S
O195 C193 1.282 . S
C196 O197 1.306 . S
C196 O199 1.160 . S
O197 C196 1.306 . S
O197 Cd198 2.228 . S
Cd198 O197 2.228 . S
Cd198 O202 2.273 . S
Cd198 O206 2.277 . S
O199 C196 1.160 . S
O199 Cd200 2.203 . S
Cd200 O199 2.203 . S
Cd200 O202 2.411 . S
Cd200 O203 2.333 . S
Cd200 O204 2.352 . S
Cd200 O208 2.277 . S
Cd200 O209 2.356 . S
C201 O206 1.209 . S
C201 O208 1.226 . S
O202 Cd198 2.273 . S
O202 Cd200 2.411 . S
O202 C205 1.320 . S
O203 Cd200 2.333 . S
O203 C205 1.214 . S
O204 Cd200 2.352 . S
O204 C207 1.258 . S
C205 O202 1.320 . S
C205 O203 1.214 . S
O206 Cd198 2.277 . S
O206 C201 1.209 . S
C207 O204 1.258 . S
C207 O209 1.282 . S
O208 Cd200 2.277 . S
O208 C201 1.226 . S
O209 Cd200 2.356 . S
O209 C207 1.282 . S
C210 O211 1.306 . S
C210 O213 1.160 . S
O211 C210 1.306 . S
O211 Cd212 2.228 . S
Cd212 O211 2.228 . S
Cd212 O216 2.273 . S
Cd212 O220 2.277 . S
O213 C210 1.160 . S
O213 Cd214 2.203 . S
Cd214 O213 2.203 . S
Cd214 O216 2.411 . S
Cd214 O217 2.333 . S
Cd214 O218 2.352 . S
Cd214 O222 2.277 . S
Cd214 O223 2.356 . S
C215 O220 1.209 . S
C215 O222 1.226 . S
O216 Cd212 2.273 . S
O216 Cd214 2.411 . S
O216 C219 1.320 . S
O217 Cd214 2.333 . S
O217 C219 1.214 . S
O218 Cd214 2.352 . S
O218 C221 1.258 . S
C219 O216 1.320 . S
C219 O217 1.214 . S
O220 Cd212 2.277 . S
O220 C215 1.209 . S
C221 O218 1.258 . S
C221 O223 1.282 . S
O222 Cd214 2.277 . S
O222 C215 1.226 . S
O223 Cd214 2.356 . S
O223 C221 1.282 . S
C224 O225 1.306 . S
C224 O227 1.160 . S
O225 C224 1.306 . S
O225 Cd226 2.228 . S
Cd226 O225 2.228 . S
Cd226 O230 2.273 . S
Cd226 O234 2.277 . S
O227 C224 1.160 . S
O227 Cd228 2.203 . S
Cd228 O227 2.203 . S
Cd228 O230 2.411 . S
Cd228 O231 2.333 . S
Cd228 O232 2.352 . S
Cd228 O236 2.277 . S
Cd228 O237 2.356 . S
C229 O234 1.209 . S
C229 O236 1.226 . S
O230 Cd226 2.273 . S
O230 Cd228 2.411 . S
O230 C233 1.320 . S
O231 Cd228 2.333 . S
O231 C233 1.214 . S
O232 Cd228 2.352 . S
O232 C235 1.258 . S
C233 O230 1.320 . S
C233 O231 1.214 . S
O234 Cd226 2.277 . S
O234 C229 1.209 . S
C235 O232 1.258 . S
C235 O237 1.282 . S
O236 Cd228 2.277 . S
O236 C229 1.226 . S
O237 Cd228 2.356 . S
O237 C235 1.282 . S
C238 O239 1.306 . S
C238 O241 1.160 . S
O239 C238 1.306 . S
O239 Cd240 2.228 . S
Cd240 O239 2.228 . S
Cd240 O244 2.273 . S
Cd240 O248 2.277 . S
O241 C238 1.160 . S
O241 Cd242 2.203 . S
Cd242 O241 2.203 . S
Cd242 O244 2.411 . S
Cd242 O245 2.333 . S
Cd242 O246 2.352 . S
Cd242 O250 2.277 . S
Cd242 O251 2.356 . S
C243 O248 1.209 . S
C243 O250 1.226 . S
O244 Cd240 2.273 . S
O244 Cd242 2.411 . S
O244 C247 1.320 . S
O245 Cd242 2.333 . S
O245 C247 1.214 . S
O246 Cd242 2.352 . S
O246 C249 1.258 . S
C247 O244 1.320 . S
C247 O245 1.214 . S
O248 Cd240 2.277 . S
O248 C243 1.209 . S
C249 O246 1.258 . S
C249 O251 1.282 . S
O250 Cd242 2.277 . S
O250 C243 1.226 . S
O251 Cd242 2.356 . S
O251 C249 1.282 . S
C252 O253 1.306 . S
C252 O255 1.160 . S
O253 C252 1.306 . S
O253 Cd254 2.228 . S
Cd254 O253 2.228 . S
Cd254 O258 2.273 . S
Cd254 O262 2.277 . S
O255 C252 1.160 . S
O255 Cd256 2.203 . S
Cd256 O255 2.203 . S
Cd256 O258 2.411 . S
Cd256 O259 2.333 . S
Cd256 O260 2.352 . S
Cd256 O264 2.277 . S
Cd256 O265 2.356 . S
C257 O262 1.209 . S
C257 O264 1.226 . S
O258 Cd254 2.273 . S
O258 Cd256 2.411 . S
O258 C261 1.320 . S
O259 Cd256 2.333 . S
O259 C261 1.214 . S
O260 Cd256 2.352 . S
O260 C263 1.258 . S
C261 O258 1.320 . S
C261 O259 1.214 . S
O262 Cd254 2.277 . S
O262 C257 1.209 . S
C263 O260 1.258 . S
C263 O265 1.282 . S
O264 Cd256 2.277 . S
O264 C257 1.226 . S
O265 Cd256 2.356 . S
O265 C263 1.282 . S
C266 O267 1.306 . S
C266 O269 1.160 . S
O267 C266 1.306 . S
O267 Cd268 2.228 . S
Cd268 O267 2.228 . S
Cd268 O272 2.273 . S
Cd268 O276 2.277 . S
O269 C266 1.160 . S
O269 Cd270 2.203 . S
Cd270 O269 2.203 . S
Cd270 O272 2.411 . S
Cd270 O273 2.333 . S
Cd270 O274 2.352 . S
Cd270 O278 2.277 . S
Cd270 O279 2.356 . S
C271 O276 1.209 . S
C271 O278 1.226 . S
O272 Cd268 2.273 . S
O272 Cd270 2.411 . S
O272 C275 1.320 . S
O273 Cd270 2.333 . S
O273 C275 1.214 . S
O274 Cd270 2.352 . S
O274 C277 1.258 . S
C275 O272 1.320 . S
C275 O273 1.214 . S
O276 Cd268 2.277 . S
O276 C271 1.209 . S
C277 O274 1.258 . S
C277 O279 1.282 . S
O278 Cd270 2.277 . S
O278 C271 1.226 . S
O279 Cd270 2.356 . S
O279 C277 1.282 . S
C280 O281 1.306 . S
C280 O283 1.160 . S
O281 C280 1.306 . S
O281 Cd282 2.228 . S
Cd282 O281 2.228 . S
Cd282 O286 2.273 . S
Cd282 O290 2.277 . S
O283 C280 1.160 . S
O283 Cd284 2.203 . S
Cd284 O283 2.203 . S
Cd284 O286 2.411 . S
Cd284 O287 2.333 . S
Cd284 O288 2.352 . S
Cd284 O292 2.277 . S
Cd284 O293 2.356 . S
C285 O290 1.209 . S
C285 O292 1.226 . S
O286 Cd282 2.273 . S
O286 Cd284 2.411 . S
O286 C289 1.320 . S
O287 Cd284 2.333 . S
O287 C289 1.214 . S
O288 Cd284 2.352 . S
O288 C291 1.258 . S
C289 O286 1.320 . S
C289 O287 1.214 . S
O290 Cd282 2.277 . S
O290 C285 1.209 . S
C291 O288 1.258 . S
C291 O293 1.282 . S
O292 Cd284 2.277 . S
O292 C285 1.226 . S
O293 Cd284 2.356 . S
O293 C291 1.282 . S
C294 O295 1.306 . S
C294 O297 1.160 . S
O295 C294 1.306 . S
O295 Cd296 2.228 . S
Cd296 O295 2.228 . S
Cd296 O300 2.273 . S
Cd296 O304 2.277 . S
O297 C294 1.160 . S
O297 Cd298 2.203 . S
Cd298 O297 2.203 . S
Cd298 O300 2.411 . S
Cd298 O301 2.333 . S
Cd298 O302 2.352 . S
Cd298 O306 2.277 . S
Cd298 O307 2.356 . S
C299 O304 1.209 . S
C299 O306 1.226 . S
O300 Cd296 2.273 . S
O300 Cd298 2.411 . S
O300 C303 1.320 . S
O301 Cd298 2.333 . S
O301 C303 1.214 . S
O302 Cd298 2.352 . S
O302 C305 1.258 . S
C303 O300 1.320 . S
C303 O301 1.214 . S
O304 Cd296 2.277 . S
O304 C299 1.209 . S
C305 O302 1.258 . S
C305 O307 1.282 . S
O306 Cd298 2.277 . S
O306 C299 1.226 . S
O307 Cd298 2.356 . S
O307 C305 1.282 . S
C308 O309 1.306 . S
C308 O311 1.160 . S
O309 C308 1.306 . S
O309 Cd310 2.228 . S
Cd310 O309 2.228 . S
Cd310 O314 2.273 . S
Cd310 O318 2.277 . S
O311 C308 1.160 . S
O311 Cd312 2.203 . S
Cd312 O311 2.203 . S
Cd312 O314 2.411 . S
Cd312 O315 2.333 . S
Cd312 O316 2.352 . S
Cd312 O320 2.277 . S
Cd312 O321 2.356 . S
C313 O318 1.209 . S
C313 O320 1.226 . S
O314 Cd310 2.273 . S
O314 Cd312 2.411 . S
O314 C317 1.320 . S
O315 Cd312 2.333 . S
O315 C317 1.214 . S
O316 Cd312 2.352 . S
O316 C319 1.258 . S
C317 O314 1.320 . S
C317 O315 1.214 . S
O318 Cd310 2.277 . S
O318 C313 1.209 . S
C319 O316 1.258 . S
C319 O321 1.282 . S
O320 Cd312 2.277 . S
O320 C313 1.226 . S
O321 Cd312 2.356 . S
O321 C319 1.282 . S
C322 O323 1.306 . S
C322 O325 1.160 . S
O323 C322 1.306 . S
O323 Cd324 2.228 . S
Cd324 O323 2.228 . S
Cd324 O328 2.273 . S
Cd324 O332 2.277 . S
O325 C322 1.160 . S
O325 Cd326 2.203 . S
Cd326 O325 2.203 . S
Cd326 O328 2.411 . S
Cd326 O329 2.333 . S
Cd326 O330 2.352 . S
Cd326 O334 2.277 . S
Cd326 O335 2.356 . S
C327 O332 1.209 . S
C327 O334 1.226 . S
O328 Cd324 2.273 . S
O328 Cd326 2.411 . S
O328 C331 1.320 . S
O329 Cd326 2.333 . S
O329 C331 1.214 . S
O330 Cd326 2.352 . S
O330 C333 1.258 . S
C331 O328 1.320 . S
C331 O329 1.214 . S
O332 Cd324 2.277 . S
O332 C327 1.209 . S
C333 O330 1.258 . S
C333 O335 1.282 . S
O334 Cd326 2.277 . S
O334 C327 1.226 . S
O335 Cd326 2.356 . S
O335 C333 1.282 . S
C336 O337 1.306 . S
C336 O339 1.160 . S
O337 C336 1.306 . S
O337 Cd338 2.228 . S
Cd338 O337 2.228 . S
Cd338 O342 2.273 . S
Cd338 O346 2.277 . S
O339 C336 1.160 . S
O339 Cd340 2.203 . S
Cd340 O339 2.203 . S
Cd340 O342 2.411 . S
Cd340 O343 2.333 . S
Cd340 O344 2.352 . S
Cd340 O348 2.277 . S
Cd340 O349 2.356 . S
C341 O346 1.209 . S
C341 O348 1.226 . S
O342 Cd338 2.273 . S
O342 Cd340 2.411 . S
O342 C345 1.320 . S
O343 Cd340 2.333 . S
O343 C345 1.214 . S
O344 Cd340 2.352 . S
O344 C347 1.258 . S
C345 O342 1.320 . S
C345 O343 1.214 . S
O346 Cd338 2.277 . S
O346 C341 1.209 . S
C347 O344 1.258 . S
C347 O349 1.282 . S
O348 Cd340 2.277 . S
O348 C341 1.226 . S
O349 Cd340 2.356 . S
O349 C347 1.282 . S
C350 O351 1.306 . S
C350 O353 1.160 . S
O351 C350 1.306 . S
O351 Cd352 2.228 . S
Cd352 O351 2.228 . S
Cd352 O356 2.273 . S
Cd352 O360 2.277 . S
O353 C350 1.160 . S
O353 Cd354 2.203 . S
Cd354 O353 2.203 . S
Cd354 O356 2.411 . S
Cd354 O357 2.333 . S
Cd354 O358 2.352 . S
Cd354 O362 2.277 . S
Cd354 O363 2.356 . S
C355 O360 1.209 . S
C355 O362 1.226 . S
O356 Cd352 2.273 . S
O356 Cd354 2.411 . S
O356 C359 1.320 . S
O357 Cd354 2.333 . S
O357 C359 1.214 . S
O358 Cd354 2.352 . S
O358 C361 1.258 . S
C359 O356 1.320 . S
C359 O357 1.214 . S
O360 Cd352 2.277 . S
O360 C355 1.209 . S
C361 O358 1.258 . S
C361 O363 1.282 . S
O362 Cd354 2.277 . S
O362 C355 1.226 . S
O363 Cd354 2.356 . S
O363 C361 1.282 . S
C364 O365 1.306 . S
C364 O367 1.160 . S
O365 C364 1.306 . S
O365 Cd366 2.228 . S
Cd366 O365 2.228 . S
Cd366 O370 2.273 . S
Cd366 O374 2.277 . S
O367 C364 1.160 . S
O367 Cd368 2.203 . S
Cd368 O367 2.203 . S
Cd368 O370 2.411 . S
Cd368 O371 2.333 . S
Cd368 O372 2.352 . S
Cd368 O376 2.277 . S
Cd368 O377 2.356 . S
C369 O374 1.209 . S
C369 O376 1.226 . S
O370 Cd366 2.273 . S
O370 Cd368 2.411 . S
O370 C373 1.320 . S
O371 Cd368 2.333 . S
O371 C373 1.214 . S
O372 Cd368 2.352 . S
O372 C375 1.258 . S
C373 O370 1.320 . S
C373 O371 1.214 . S
O374 Cd366 2.277 . S
O374 C369 1.209 . S
C375 O372 1.258 . S
C375 O377 1.282 . S
O376 Cd368 2.277 . S
O376 C369 1.226 . S
O377 Cd368 2.356 . S
O377 C375 1.282 . S
C378 O379 1.306 . S
C378 O381 1.160 . S
O379 C378 1.306 . S
O379 Cd380 2.228 . S
Cd380 O379 2.228 . S
Cd380 O384 2.273 . S
Cd380 O388 2.277 . S
O381 C378 1.160 . S
O381 Cd382 2.203 . S
Cd382 O381 2.203 . S
Cd382 O384 2.411 . S
Cd382 O385 2.333 . S
Cd382 O386 2.352 . S
Cd382 O390 2.277 . S
Cd382 O391 2.356 . S
C383 O388 1.209 . S
C383 O390 1.226 . S
O384 Cd380 2.273 . S
O384 Cd382 2.411 . S
O384 C387 1.320 . S
O385 Cd382 2.333 . S
O385 C387 1.214 . S
O386 Cd382 2.352 . S
O386 C389 1.258 . S
C387 O384 1.320 . S
C387 O385 1.214 . S
O388 Cd380 2.277 . S
O388 C383 1.209 . S
C389 O386 1.258 . S
C389 O391 1.282 . S
O390 Cd382 2.277 . S
O390 C383 1.226 . S
O391 Cd382 2.356 . S
O391 C389 1.282 . S
C392 O393 1.306 . S
C392 O395 1.160 . S
O393 C392 1.306 . S
O393 Cd394 2.228 . S
Cd394 O393 2.228 . S
Cd394 O398 2.273 . S
Cd394 O402 2.277 . S
O395 C392 1.160 . S
O395 Cd396 2.203 . S
Cd396 O395 2.203 . S
Cd396 O398 2.411 . S
Cd396 O399 2.333 . S
Cd396 O400 2.352 . S
Cd396 O404 2.277 . S
Cd396 O405 2.356 . S
C397 O402 1.209 . S
C397 O404 1.226 . S
O398 Cd394 2.273 . S
O398 Cd396 2.411 . S
O398 C401 1.320 . S
O399 Cd396 2.333 . S
O399 C401 1.214 . S
O400 Cd396 2.352 . S
O400 C403 1.258 . S
C401 O398 1.320 . S
C401 O399 1.214 . S
O402 Cd394 2.277 . S
O402 C397 1.209 . S
C403 O400 1.258 . S
C403 O405 1.282 . S
O404 Cd396 2.277 . S
O404 C397 1.226 . S
O405 Cd396 2.356 . S
O405 C403 1.282 . S
C406 O407 1.306 . S
C406 O409 1.160 . S
O407 C406 1.306 . S
O407 Cd408 2.228 . S
Cd408 O407 2.228 . S
Cd408 O412 2.273 . S
Cd408 O416 2.277 . S
O409 C406 1.160 . S
O409 Cd410 2.203 . S
Cd410 O409 2.203 . S
Cd410 O412 2.411 . S
Cd410 O413 2.333 . S
Cd410 O414 2.352 . S
Cd410 O418 2.277 . S
Cd410 O419 2.356 . S
C411 O416 1.209 . S
C411 O418 1.226 . S
O412 Cd408 2.273 . S
O412 Cd410 2.411 . S
O412 C415 1.320 . S
O413 Cd410 2.333 . S
O413 C415 1.214 . S
O414 Cd410 2.352 . S
O414 C417 1.258 . S
C415 O412 1.320 . S
C415 O413 1.214 . S
O416 Cd408 2.277 . S
O416 C411 1.209 . S
C417 O414 1.258 . S
C417 O419 1.282 . S
O418 Cd410 2.277 . S
O418 C411 1.226 . S
O419 Cd410 2.356 . S
O419 C417 1.282 . S
C420 O421 1.306 . S
C420 O423 1.160 . S
O421 C420 1.306 . S
O421 Cd422 2.228 . S
Cd422 O421 2.228 . S
Cd422 O426 2.273 . S
Cd422 O430 2.277 . S
O423 C420 1.160 . S
O423 Cd424 2.203 . S
Cd424 O423 2.203 . S
Cd424 O426 2.411 . S
Cd424 O427 2.333 . S
Cd424 O428 2.352 . S
Cd424 O432 2.277 . S
Cd424 O433 2.356 . S
C425 O430 1.209 . S
C425 O432 1.226 . S
O426 Cd422 2.273 . S
O426 Cd424 2.411 . S
O426 C429 1.320 . S
O427 Cd424 2.333 . S
O427 C429 1.214 . S
O428 Cd424 2.352 . S
O428 C431 1.258 . S
C429 O426 1.320 . S
C429 O427 1.214 . S
O430 Cd422 2.277 . S
O430 C425 1.209 . S
C431 O428 1.258 . S
C431 O433 1.282 . S
O432 Cd424 2.277 . S
O432 C425 1.226 . S
O433 Cd424 2.356 . S
O433 C431 1.282 . S
C434 O435 1.306 . S
C434 O437 1.160 . S
O435 C434 1.306 . S
O435 Cd436 2.228 . S
Cd436 O435 2.228 . S
Cd436 O440 2.273 . S
Cd436 O444 2.277 . S
O437 C434 1.160 . S
O437 Cd438 2.203 . S
Cd438 O437 2.203 . S
Cd438 O440 2.411 . S
Cd438 O441 2.333 . S
Cd438 O442 2.352 . S
Cd438 O446 2.277 . S
Cd438 O447 2.356 . S
C439 O444 1.209 . S
C439 O446 1.226 . S
O440 Cd436 2.273 . S
O440 Cd438 2.411 . S
O440 C443 1.320 . S
O441 Cd438 2.333 . S
O441 C443 1.214 . S
O442 Cd438 2.352 . S
O442 C445 1.258 . S
C443 O440 1.320 . S
C443 O441 1.214 . S
O444 Cd436 2.277 . S
O444 C439 1.209 . S
C445 O442 1.258 . S
C445 O447 1.282 . S
O446 Cd438 2.277 . S
O446 C439 1.226 . S
O447 Cd438 2.356 . S
O447 C445 1.282 . S
C448 O449 1.306 . S
C448 O451 1.160 . S
O449 C448 1.306 . S
O449 Cd450 2.228 . S
Cd450 O449 2.228 . S
Cd450 O454 2.273 . S
Cd450 O458 2.277 . S
O451 C448 1.160 . S
O451 Cd452 2.203 . S
Cd452 O451 2.203 . S
Cd452 O454 2.411 . S
Cd452 O455 2.333 . S
Cd452 O456 2.352 . S
Cd452 O460 2.277 . S
Cd452 O461 2.356 . S
C453 O458 1.209 . S
C453 O460 1.226 . S
O454 Cd450 2.273 . S
O454 Cd452 2.411 . S
O454 C457 1.320 . S
O455 Cd452 2.333 . S
O455 C457 1.214 . S
O456 Cd452 2.352 . S
O456 C459 1.258 . S
C457 O454 1.320 . S
C457 O455 1.214 . S
O458 Cd450 2.277 . S
O458 C453 1.209 . S
C459 O456 1.258 . S
C459 O461 1.282 . S
O460 Cd452 2.277 . S
O460 C453 1.226 . S
O461 Cd452 2.356 . S
O461 C459 1.282 . S
C462 O463 1.306 . S
C462 O465 1.160 . S
O463 C462 1.306 . S
O463 Cd464 2.228 . S
Cd464 O463 2.228 . S
Cd464 O468 2.273 . S
Cd464 O472 2.277 . S
O465 C462 1.160 . S
O465 Cd466 2.203 . S
Cd466 O465 2.203 . S
Cd466 O468 2.411 . S
Cd466 O469 2.333 . S
Cd466 O470 2.352 . S
Cd466 O474 2.277 . S
Cd466 O475 2.356 . S
C467 O472 1.209 . S
C467 O474 1.226 . S
O468 Cd464 2.273 . S
O468 Cd466 2.411 . S
O468 C471 1.320 . S
O469 Cd466 2.333 . S
O469 C471 1.214 . S
O470 Cd466 2.352 . S
O470 C473 1.258 . S
C471 O468 1.320 . S
C471 O469 1.214 . S
O472 Cd464 2.277 . S
O472 C467 1.209 . S
C473 O470 1.258 . S
C473 O475 1.282 . S
O474 Cd466 2.277 . S
O474 C467 1.226 . S
O475 Cd466 2.356 . S
O475 C473 1.282 . S
C476 O477 1.306 . S
C476 O479 1.160 . S
O477 C476 1.306 . S
O477 Cd478 2.228 . S
Cd478 O477 2.228 . S
Cd478 O482 2.273 . S
Cd478 O486 2.277 . S
O479 C476 1.160 . S
O479 Cd480 2.203 . S
Cd480 O479 2.203 . S
Cd480 O482 2.411 . S
Cd480 O483 2.333 . S
Cd480 O484 2.352 . S
Cd480 O488 2.277 . S
Cd480 O489 2.356 . S
C481 O486 1.209 . S
C481 O488 1.226 . S
O482 Cd478 2.273 . S
O482 Cd480 2.411 . S
O482 C485 1.320 . S
O483 Cd480 2.333 . S
O483 C485 1.214 . S
O484 Cd480 2.352 . S
O484 C487 1.258 . S
C485 O482 1.320 . S
C485 O483 1.214 . S
O486 Cd478 2.277 . S
O486 C481 1.209 . S
C487 O484 1.258 . S
C487 O489 1.282 . S
O488 Cd480 2.277 . S
O488 C481 1.226 . S
O489 Cd480 2.356 . S
O489 C487 1.282 . S
C490 O491 1.306 . S
C490 O493 1.160 . S
O491 C490 1.306 . S
O491 Cd492 2.228 . S
Cd492 O491 2.228 . S
Cd492 O496 2.273 . S
Cd492 O500 2.277 . S
O493 C490 1.160 . S
O493 Cd494 2.203 . S
Cd494 O493 2.203 . S
Cd494 O496 2.411 . S
Cd494 O497 2.333 . S
Cd494 O498 2.352 . S
Cd494 O502 2.277 . S
Cd494 O503 2.356 . S
C495 O500 1.209 . S
C495 O502 1.226 . S
O496 Cd492 2.273 . S
O496 Cd494 2.411 . S
O496 C499 1.320 . S
O497 Cd494 2.333 . S
O497 C499 1.214 . S
O498 Cd494 2.352 . S
O498 C501 1.258 . S
C499 O496 1.320 . S
C499 O497 1.214 . S
O500 Cd492 2.277 . S
O500 C495 1.209 . S
C501 O498 1.258 . S
C501 O503 1.282 . S
O502 Cd494 2.277 . S
O502 C495 1.226 . S
O503 Cd494 2.356 . S
O503 C501 1.282 . S
C504 O505 1.306 . S
C504 O507 1.160 . S
O505 C504 1.306 . S
O505 Cd506 2.228 . S
Cd506 O505 2.228 . S
Cd506 O510 2.273 . S
Cd506 O514 2.277 . S
O507 C504 1.160 . S
O507 Cd508 2.203 . S
Cd508 O507 2.203 . S
Cd508 O510 2.411 . S
Cd508 O511 2.333 . S
Cd508 O512 2.352 . S
Cd508 O516 2.277 . S
Cd508 O517 2.356 . S
C509 O514 1.209 . S
C509 O516 1.226 . S
O510 Cd506 2.273 . S
O510 Cd508 2.411 . S
O510 C513 1.320 . S
O511 Cd508 2.333 . S
O511 C513 1.214 . S
O512 Cd508 2.352 . S
O512 C515 1.258 . S
C513 O510 1.320 . S
C513 O511 1.214 . S
O514 Cd506 2.277 . S
O514 C509 1.209 . S
C515 O512 1.258 . S
C515 O517 1.282 . S
O516 Cd508 2.277 . S
O516 C509 1.226 . S
O517 Cd508 2.356 . S
O517 C515 1.282 . S
C518 O519 1.306 . S
C518 O521 1.160 . S
O519 C518 1.306 . S
O519 Cd520 2.228 . S
Cd520 O519 2.228 . S
Cd520 O524 2.273 . S
Cd520 O528 2.277 . S
O521 C518 1.160 . S
O521 Cd522 2.203 . S
Cd522 O521 2.203 . S
Cd522 O524 2.411 . S
Cd522 O525 2.333 . S
Cd522 O526 2.352 . S
Cd522 O530 2.277 . S
Cd522 O531 2.356 . S
C523 O528 1.209 . S
C523 O530 1.226 . S
O524 Cd520 2.273 . S
O524 Cd522 2.411 . S
O524 C527 1.320 . S
O525 Cd522 2.333 . S
O525 C527 1.214 . S
O526 Cd522 2.352 . S
O526 C529 1.258 . S
C527 O524 1.320 . S
C527 O525 1.214 . S
O528 Cd520 2.277 . S
O528 C523 1.209 . S
C529 O526 1.258 . S
C529 O531 1.282 . S
O530 Cd522 2.277 . S
O530 C523 1.226 . S
O531 Cd522 2.356 . S
O531 C529 1.282 . S
C532 O533 1.306 . S
C532 O535 1.160 . S
O533 C532 1.306 . S
O533 Cd534 2.228 . S
Cd534 O533 2.228 . S
Cd534 O538 2.273 . S
Cd534 O542 2.277 . S
O535 C532 1.160 . S
O535 Cd536 2.203 . S
Cd536 O535 2.203 . S
Cd536 O538 2.411 . S
Cd536 O539 2.333 . S
Cd536 O540 2.352 . S
Cd536 O544 2.277 . S
Cd536 O545 2.356 . S
C537 O542 1.209 . S
C537 O544 1.226 . S
O538 Cd534 2.273 . S
O538 Cd536 2.411 . S
O538 C541 1.320 . S
O539 Cd536 2.333 . S
O539 C541 1.214 . S
O540 Cd536 2.352 . S
O540 C543 1.258 . S
C541 O538 1.320 . S
C541 O539 1.214 . S
O542 Cd534 2.277 . S
O542 C537 1.209 . S
C543 O540 1.258 . S
C543 O545 1.282 . S
O544 Cd536 2.277 . S
O544 C537 1.226 . S
O545 Cd536 2.356 . S
O545 C543 1.282 . S
C546 O547 1.306 . S
C546 O549 1.160 . S
O547 C546 1.306 . S
O547 Cd548 2.228 . S
Cd548 O547 2.228 . S
Cd548 O552 2.273 . S
Cd548 O556 2.277 . S
O549 C546 1.160 . S
O549 Cd550 2.203 . S
Cd550 O549 2.203 . S
Cd550 O552 2.411 . S
Cd550 O553 2.333 . S
Cd550 O554 2.352 . S
Cd550 O558 2.277 . S
Cd550 O559 2.356 . S
C551 O556 1.209 . S
C551 O558 1.226 . S
O552 Cd548 2.273 . S
O552 Cd550 2.411 . S
O552 C555 1.320 . S
O553 Cd550 2.333 . S
O553 C555 1.214 . S
O554 Cd550 2.352 . S
O554 C557 1.258 . S
C555 O552 1.320 . S
C555 O553 1.214 . S
O556 Cd548 2.277 . S
O556 C551 1.209 . S
C557 O554 1.258 . S
C557 O559 1.282 . S
O558 Cd550 2.277 . S
O558 C551 1.226 . S
O559 Cd550 2.356 . S
O559 C557 1.282 . S
C560 O561 1.306 . S
C560 O563 1.160 . S
O561 C560 1.306 . S
O561 Cd562 2.228 . S
Cd562 O561 2.228 . S
Cd562 O566 2.273 . S
Cd562 O570 2.277 . S
O563 C560 1.160 . S
O563 Cd564 2.203 . S
Cd564 O563 2.203 . S
Cd564 O566 2.411 . S
Cd564 O567 2.333 . S
Cd564 O568 2.352 . S
Cd564 O572 2.277 . S
Cd564 O573 2.356 . S
C565 O570 1.209 . S
C565 O572 1.226 . S
O566 Cd562 2.273 . S
O566 Cd564 2.411 . S
O566 C569 1.320 . S
O567 Cd564 2.333 . S
O567 C569 1.214 . S
O568 Cd564 2.352 . S
O568 C571 1.258 . S
C569 O566 1.320 . S
C569 O567 1.214 . S
O570 Cd562 2.277 . S
O570 C565 1.209 . S
C571 O568 1.258 . S
C571 O573 1.282 . S
O572 Cd564 2.277 . S
O572 C565 1.226 . S
O573 Cd564 2.356 . S
O573 C571 1.282 . S
C574 O575 1.306 . S
C574 O577 1.160 . S
O575 C574 1.306 . S
O575 Cd576 2.228 . S
Cd576 O575 2.228 . S
Cd576 O580 2.273 . S
Cd576 O584 2.277 . S
O577 C574 1.160 . S
O577 Cd578 2.203 . S
Cd578 O577 2.203 . S
Cd578 O580 2.411 . S
Cd578 O581 2.333 . S
Cd578 O582 2.352 . S
Cd578 O586 2.277 . S
Cd578 O587 2.356 . S
C579 O584 1.209 . S
C579 O586 1.226 . S
O580 Cd576 2.273 . S
O580 Cd578 2.411 . S
O580 C583 1.320 . S
O581 Cd578 2.333 . S
O581 C583 1.214 . S
O582 Cd578 2.352 . S
O582 C585 1.258 . S
C583 O580 1.320 . S
C583 O581 1.214 . S
O584 Cd576 2.277 . S
O584 C579 1.209 . S
C585 O582 1.258 . S
C585 O587 1.282 . S
O586 Cd578 2.277 . S
O586 C579 1.226 . S
O587 Cd578 2.356 . S
O587 C585 1.282 . S
C588 O589 1.306 . S
C588 O591 1.160 . S
O589 C588 1.306 . S
O589 Cd590 2.228 . S
Cd590 O589 2.228 . S
Cd590 O594 2.273 . S
Cd590 O598 2.277 . S
O591 C588 1.160 . S
O591 Cd592 2.203 . S
Cd592 O591 2.203 . S
Cd592 O594 2.411 . S
Cd592 O595 2.333 . S
Cd592 O596 2.352 . S
Cd592 O600 2.277 . S
Cd592 O601 2.356 . S
C593 O598 1.209 . S
C593 O600 1.226 . S
O594 Cd590 2.273 . S
O594 Cd592 2.411 . S
O594 C597 1.320 . S
O595 Cd592 2.333 . S
O595 C597 1.214 . S
O596 Cd592 2.352 . S
O596 C599 1.258 . S
C597 O594 1.320 . S
C597 O595 1.214 . S
O598 Cd590 2.277 . S
O598 C593 1.209 . S
C599 O596 1.258 . S
C599 O601 1.282 . S
O600 Cd592 2.277 . S
O600 C593 1.226 . S
O601 Cd592 2.356 . S
O601 C599 1.282 . S
C602 O603 1.306 . S
C602 O605 1.160 . S
O603 C602 1.306 . S
O603 Cd604 2.228 . S
Cd604 O603 2.228 . S
Cd604 O608 2.273 . S
Cd604 O612 2.277 . S
O605 C602 1.160 . S
O605 Cd606 2.203 . S
Cd606 O605 2.203 . S
Cd606 O608 2.411 . S
Cd606 O609 2.333 . S
Cd606 O610 2.352 . S
Cd606 O614 2.277 . S
Cd606 O615 2.356 . S
C607 O612 1.209 . S
C607 O614 1.226 . S
O608 Cd604 2.273 . S
O608 Cd606 2.411 . S
O608 C611 1.320 . S
O609 Cd606 2.333 . S
O609 C611 1.214 . S
O610 Cd606 2.352 . S
O610 C613 1.258 . S
C611 O608 1.320 . S
C611 O609 1.214 . S
O612 Cd604 2.277 . S
O612 C607 1.209 . S
C613 O610 1.258 . S
C613 O615 1.282 . S
O614 Cd606 2.277 . S
O614 C607 1.226 . S
O615 Cd606 2.356 . S
O615 C613 1.282 . S
C616 O617 1.306 . S
C616 O619 1.160 . S
O617 C616 1.306 . S
O617 Cd618 2.228 . S
Cd618 O617 2.228 . S
Cd618 O622 2.273 . S
Cd618 O626 2.277 . S
O619 C616 1.160 . S
O619 Cd620 2.203 . S
Cd620 O619 2.203 . S
Cd620 O622 2.411 . S
Cd620 O623 2.333 . S
Cd620 O624 2.352 . S
Cd620 O628 2.277 . S
Cd620 O629 2.356 . S
C621 O626 1.209 . S
C621 O628 1.226 . S
O622 Cd618 2.273 . S
O622 Cd620 2.411 . S
O622 C625 1.320 . S
O623 Cd620 2.333 . S
O623 C625 1.214 . S
O624 Cd620 2.352 . S
O624 C627 1.258 . S
C625 O622 1.320 . S
C625 O623 1.214 . S
O626 Cd618 2.277 . S
O626 C621 1.209 . S
C627 O624 1.258 . S
C627 O629 1.282 . S
O628 Cd620 2.277 . S
O628 C621 1.226 . S
O629 Cd620 2.356 . S
O629 C627 1.282 . S
C630 O631 1.306 . S
C630 O633 1.160 . S
O631 C630 1.306 . S
O631 Cd632 2.228 . S
Cd632 O631 2.228 . S
Cd632 O636 2.273 . S
Cd632 O640 2.277 . S
O633 C630 1.160 . S
O633 Cd634 2.203 . S
Cd634 O633 2.203 . S
Cd634 O636 2.411 . S
Cd634 O637 2.333 . S
Cd634 O638 2.352 . S
Cd634 O642 2.277 . S
Cd634 O643 2.356 . S
C635 O640 1.209 . S
C635 O642 1.226 . S
O636 Cd632 2.273 . S
O636 Cd634 2.411 . S
O636 C639 1.320 . S
O637 Cd634 2.333 . S
O637 C639 1.214 . S
O638 Cd634 2.352 . S
O638 C641 1.258 . S
C639 O636 1.320 . S
C639 O637 1.214 . S
O640 Cd632 2.277 . S
O640 C635 1.209 . S
C641 O638 1.258 . S
C641 O643 1.282 . S
O642 Cd634 2.277 . S
O642 C635 1.226 . S
O643 Cd634 2.356 . S
O643 C641 1.282 . S
C644 O645 1.306 . S
C644 O647 1.160 . S
O645 C644 1.306 . S
O645 Cd646 2.228 . S
Cd646 O645 2.228 . S
Cd646 O650 2.273 . S
Cd646 O654 2.277 . S
O647 C644 1.160 . S
O647 Cd648 2.203 . S
Cd648 O647 2.203 . S
Cd648 O650 2.411 . S
Cd648 O651 2.333 . S
Cd648 O652 2.352 . S
Cd648 O656 2.277 . S
Cd648 O657 2.356 . S
C649 O654 1.209 . S
C649 O656 1.226 . S
O650 Cd646 2.273 . S
O650 Cd648 2.411 . S
O650 C653 1.320 . S
O651 Cd648 2.333 . S
O651 C653 1.214 . S
O652 Cd648 2.352 . S
O652 C655 1.258 . S
C653 O650 1.320 . S
C653 O651 1.214 . S
O654 Cd646 2.277 . S
O654 C649 1.209 . S
C655 O652 1.258 . S
C655 O657 1.282 . S
O656 Cd648 2.277 . S
O656 C649 1.226 . S
O657 Cd648 2.356 . S
O657 C655 1.282 . S
C658 O659 1.306 . S
C658 O661 1.160 . S
O659 C658 1.306 . S
O659 Cd660 2.228 . S
Cd660 O659 2.228 . S
Cd660 O664 2.273 . S
Cd660 O668 2.277 . S
O661 C658 1.160 . S
O661 Cd662 2.203 . S
Cd662 O661 2.203 . S
Cd662 O664 2.411 . S
Cd662 O665 2.333 . S
Cd662 O666 2.352 . S
Cd662 O670 2.277 . S
Cd662 O671 2.356 . S
C663 O668 1.209 . S
C663 O670 1.226 . S
O664 Cd660 2.273 . S
O664 Cd662 2.411 . S
O664 C667 1.320 . S
O665 Cd662 2.333 . S
O665 C667 1.214 . S
O666 Cd662 2.352 . S
O666 C669 1.258 . S
C667 O664 1.320 . S
C667 O665 1.214 . S
O668 Cd660 2.277 . S
O668 C663 1.209 . S
C669 O666 1.258 . S
C669 O671 1.282 . S
O670 Cd662 2.277 . S
O670 C663 1.226 . S
O671 Cd662 2.356 . S
O671 C669 1.282 . S
C672 O673 1.306 . S
C672 O675 1.160 . S
O673 C672 1.306 . S
O673 Cd674 2.228 . S
Cd674 O673 2.228 . S
Cd674 O678 2.273 . S
Cd674 O682 2.277 . S
O675 C672 1.160 . S
O675 Cd676 2.203 . S
Cd676 O675 2.203 . S
Cd676 O678 2.411 . S
Cd676 O679 2.333 . S
Cd676 O680 2.352 . S
Cd676 O684 2.277 . S
Cd676 O685 2.356 . S
C677 O682 1.209 . S
C677 O684 1.226 . S
O678 Cd674 2.273 . S
O678 Cd676 2.411 . S
O678 C681 1.320 . S
O679 Cd676 2.333 . S
O679 C681 1.214 . S
O680 Cd676 2.352 . S
O680 C683 1.258 . S
C681 O678 1.320 . S
C681 O679 1.214 . S
O682 Cd674 2.277 . S
O682 C677 1.209 . S
C683 O680 1.258 . S
C683 O685 1.282 . S
O684 Cd676 2.277 . S
O684 C677 1.226 . S
O685 Cd676 2.356 . S
O685 C683 1.282 . S
C686 O687 1.306 . S
C686 O689 1.160 . S
O687 C686 1.306 . S
O687 Cd688 2.228 . S
Cd688 O687 2.228 . S
Cd688 O692 2.273 . S
Cd688 O696 2.277 . S
O689 C686 1.160 . S
O689 Cd690 2.203 . S
Cd690 O689 2.203 . S
Cd690 O692 2.411 . S
Cd690 O693 2.333 . S
Cd690 O694 2.352 . S
Cd690 O698 2.277 . S
Cd690 O699 2.356 . S
C691 O696 1.209 . S
C691 O698 1.226 . S
O692 Cd688 2.273 . S
O692 Cd690 2.411 . S
O692 C695 1.320 . S
O693 Cd690 2.333 . S
O693 C695 1.214 . S
O694 Cd690 2.352 . S
O694 C697 1.258 . S
C695 O692 1.320 . S
C695 O693 1.214 . S
O696 Cd688 2.277 . S
O696 C691 1.209 . S
C697 O694 1.258 . S
C697 O699 1.282 . S
O698 Cd690 2.277 . S
O698 C691 1.226 . S
O699 Cd690 2.356 . S
O699 C697 1.282 . S
C700 O701 1.306 . S
C700 O703 1.160 . S
O701 C700 1.306 . S
O701 Cd702 2.228 . S
Cd702 O701 2.228 . S
Cd702 O706 2.273 . S
Cd702 O710 2.277 . S
O703 C700 1.160 . S
O703 Cd704 2.203 . S
Cd704 O703 2.203 . S
Cd704 O706 2.411 . S
Cd704 O707 2.333 . S
Cd704 O708 2.352 . S
Cd704 O712 2.277 . S
Cd704 O713 2.356 . S
C705 O710 1.209 . S
C705 O712 1.226 . S
O706 Cd702 2.273 . S
O706 Cd704 2.411 . S
O706 C709 1.320 . S
O707 Cd704 2.333 . S
O707 C709 1.214 . S
O708 Cd704 2.352 . S
O708 C711 1.258 . S
C709 O706 1.320 . S
C709 O707 1.214 . S
O710 Cd702 2.277 . S
O710 C705 1.209 . S
C711 O708 1.258 . S
C711 O713 1.282 . S
O712 Cd704 2.277 . S
O712 C705 1.226 . S
O713 Cd704 2.356 . S
O713 C711 1.282 . S
C714 O715 1.306 . S
C714 O717 1.160 . S
O715 C714 1.306 . S
O715 Cd716 2.228 . S
Cd716 O715 2.228 . S
Cd716 O720 2.273 . S
Cd716 O724 2.277 . S
O717 C714 1.160 . S
O717 Cd718 2.203 . S
Cd718 O717 2.203 . S
Cd718 O720 2.411 . S
Cd718 O721 2.333 . S
Cd718 O722 2.352 . S
Cd718 O726 2.277 . S
Cd718 O727 2.356 . S
C719 O724 1.209 . S
C719 O726 1.226 . S
O720 Cd716 2.273 . S
O720 Cd718 2.411 . S
O720 C723 1.320 . S
O721 Cd718 2.333 . S
O721 C723 1.214 . S
O722 Cd718 2.352 . S
O722 C725 1.258 . S
C723 O720 1.320 . S
C723 O721 1.214 . S
O724 Cd716 2.277 . S
O724 C719 1.209 . S
C725 O722 1.258 . S
C725 O727 1.282 . S
O726 Cd718 2.277 . S
O726 C719 1.226 . S
O727 Cd718 2.356 . S
O727 C725 1.282 . S
C728 O729 1.306 . S
C728 O731 1.160 . S
O729 C728 1.306 . S
O729 Cd730 2.228 . S
Cd730 O729 2.228 . S
Cd730 O734 2.273 . S
Cd730 O738 2.277 . S
O731 C728 1.160 . S
O731 Cd732 2.203 . S
Cd732 O731 2.203 . S
Cd732 O734 2.411 . S
Cd732 O735 2.333 . S
Cd732 O736 2.352 . S
Cd732 O740 2.277 . S
Cd732 O741 2.356 . S
C733 O738 1.209 . S
C733 O740 1.226 . S
O734 Cd730 2.273 . S
O734 Cd732 2.411 . S
O734 C737 1.320 . S
O735 Cd732 2.333 . S
O735 C737 1.214 . S
O736 Cd732 2.352 . S
O736 C739 1.258 . S
C737 O734 1.320 . S
C737 O735 1.214 . S
O738 Cd730 2.277 . S
O738 C733 1.209 . S
C739 O736 1.258 . S
C739 O741 1.282 . S
O740 Cd732 2.277 . S
O740 C733 1.226 . S
O741 Cd732 2.356 . S
O741 C739 1.282 . S
C742 O743 1.306 . S
C742 O745 1.160 . S
O743 C742 1.306 . S
O743 Cd744 2.228 . S
Cd744 O743 2.228 . S
Cd744 O748 2.273 . S
Cd744 O752 2.277 . S
O745 C742 1.160 . S
O745 Cd746 2.203 . S
Cd746 O745 2.203 . S
Cd746 O748 2.411 . S
Cd746 O749 2.333 . S
Cd746 O750 2.352 . S
Cd746 O754 2.277 . S
Cd746 O755 2.356 . S
C747 O752 1.209 . S
C747 O754 1.226 . S
O748 Cd744 2.273 . S
O748 Cd746 2.411 . S
O748 C751 1.320 . S
O749 Cd746 2.333 . S
O749 C751 1.214 . S
O750 Cd746 2.352 . S
O750 C753 1.258 . S
C751 O748 1.320 . S
C751 O749 1.214 . S
O752 Cd744 2.277 . S
O752 C747 1.209 . S
C753 O750 1.258 . S
C753 O755 1.282 . S
O754 Cd746 2.277 . S
O754 C747 1.226 . S
O755 Cd746 2.356 . S
O755 C753 1.282 . S
C756 O757 1.306 . S
C756 O759 1.160 . S
O757 C756 1.306 . S
O757 Cd758 2.228 . S
Cd758 O757 2.228 . S
Cd758 O762 2.273 . S
Cd758 O766 2.277 . S
O759 C756 1.160 . S
O759 Cd760 2.203 . S
Cd760 O759 2.203 . S
Cd760 O762 2.411 . S
Cd760 O763 2.333 . S
Cd760 O764 2.352 . S
Cd760 O768 2.277 . S
Cd760 O769 2.356 . S
C761 O766 1.209 . S
C761 O768 1.226 . S
O762 Cd758 2.273 . S
O762 Cd760 2.411 . S
O762 C765 1.320 . S
O763 Cd760 2.333 . S
O763 C765 1.214 . S
O764 Cd760 2.352 . S
O764 C767 1.258 . S
C765 O762 1.320 . S
C765 O763 1.214 . S
O766 Cd758 2.277 . S
O766 C761 1.209 . S
C767 O764 1.258 . S
C767 O769 1.282 . S
O768 Cd760 2.277 . S
O768 C761 1.226 . S
O769 Cd760 2.356 . S
O769 C767 1.282 . S
C770 O771 1.306 . S
C770 O773 1.160 . S
O771 C770 1.306 . S
O771 Cd772 2.228 . S
Cd772 O771 2.228 . S
Cd772 O776 2.273 . S
Cd772 O780 2.277 . S
O773 C770 1.160 . S
O773 Cd774 2.203 . S
Cd774 O773 2.203 . S
Cd774 O776 2.411 . S
Cd774 O777 2.333 . S
Cd774 O778 2.352 . S
Cd774 O782 2.277 . S
Cd774 O783 2.356 . S
C775 O780 1.209 . S
C775 O782 1.226 . S
O776 Cd772 2.273 . S
O776 Cd774 2.411 . S
O776 C779 1.320 . S
O777 Cd774 2.333 . S
O777 C779 1.214 . S
O778 Cd774 2.352 . S
O778 C781 1.258 . S
C779 O776 1.320 . S
C779 O777 1.214 . S
O780 Cd772 2.277 . S
O780 C775 1.209 . S
C781 O778 1.258 . S
C781 O783 1.282 . S
O782 Cd774 2.277 . S
O782 C775 1.226 . S
O783 Cd774 2.356 . S
O783 C781 1.282 . S
C784 O785 1.306 . S
C784 O787 1.160 . S
O785 C784 1.306 . S
O785 Cd786 2.228 . S
Cd786 O785 2.228 . S
Cd786 O790 2.273 . S
Cd786 O794 2.277 . S
O787 C784 1.160 . S
O787 Cd788 2.203 . S
Cd788 O787 2.203 . S
Cd788 O790 2.411 . S
Cd788 O791 2.333 . S
Cd788 O792 2.352 . S
Cd788 O796 2.277 . S
Cd788 O797 2.356 . S
C789 O794 1.209 . S
C789 O796 1.226 . S
O790 Cd786 2.273 . S
O790 Cd788 2.411 . S
O790 C793 1.320 . S
O791 Cd788 2.333 . S
O791 C793 1.214 . S
O792 Cd788 2.352 . S
O792 C795 1.258 . S
C793 O790 1.320 . S
C793 O791 1.214 . S
O794 Cd786 2.277 . S
O794 C789 1.209 . S
C795 O792 1.258 . S
C795 O797 1.282 . S
O796 Cd788 2.277 . S
O796 C789 1.226 . S
O797 Cd788 2.356 . S
O797 C795 1.282 . S
C798 O799 1.306 . S
C798 O801 1.160 . S
O799 C798 1.306 . S
O799 Cd800 2.228 . S
Cd800 O799 2.228 . S
Cd800 O804 2.273 . S
Cd800 O808 2.277 . S
O801 C798 1.160 . S
O801 Cd802 2.203 . S
Cd802 O801 2.203 . S
Cd802 O804 2.411 . S
Cd802 O805 2.333 . S
Cd802 O806 2.352 . S
Cd802 O810 2.277 . S
Cd802 O811 2.356 . S
C803 O808 1.209 . S
C803 O810 1.226 . S
O804 Cd800 2.273 . S
O804 Cd802 2.411 . S
O804 C807 1.320 . S
O805 Cd802 2.333 . S
O805 C807 1.214 . S
O806 Cd802 2.352 . S
O806 C809 1.258 . S
C807 O804 1.320 . S
C807 O805 1.214 . S
O808 Cd800 2.277 . S
O808 C803 1.209 . S
C809 O806 1.258 . S
C809 O811 1.282 . S
O810 Cd802 2.277 . S
O810 C803 1.226 . S
O811 Cd802 2.356 . S
O811 C809 1.282 . S
C812 O813 1.306 . S
C812 O815 1.160 . S
O813 C812 1.306 . S
O813 Cd814 2.228 . S
Cd814 O813 2.228 . S
Cd814 O818 2.273 . S
Cd814 O822 2.277 . S
O815 C812 1.160 . S
O815 Cd816 2.203 . S
Cd816 O815 2.203 . S
Cd816 O818 2.411 . S
Cd816 O819 2.333 . S
Cd816 O820 2.352 . S
Cd816 O824 2.277 . S
Cd816 O825 2.356 . S
C817 O822 1.209 . S
C817 O824 1.226 . S
O818 Cd814 2.273 . S
O818 Cd816 2.411 . S
O818 C821 1.320 . S
O819 Cd816 2.333 . S
O819 C821 1.214 . S
O820 Cd816 2.352 . S
O820 C823 1.258 . S
C821 O818 1.320 . S
C821 O819 1.214 . S
O822 Cd814 2.277 . S
O822 C817 1.209 . S
C823 O820 1.258 . S
C823 O825 1.282 . S
O824 Cd816 2.277 . S
O824 C817 1.226 . S
O825 Cd816 2.356 . S
O825 C823 1.282 . S
C826 O827 1.306 . S
C826 O829 1.160 . S
O827 C826 1.306 . S
O827 Cd828 2.228 . S
Cd828 O827 2.228 . S
Cd828 O832 2.273 . S
Cd828 O836 2.277 . S
O829 C826 1.160 . S
O829 Cd830 2.203 . S
Cd830 O829 2.203 . S
Cd830 O832 2.411 . S
Cd830 O833 2.333 . S
Cd830 O834 2.352 . S
Cd830 O838 2.277 . S
Cd830 O839 2.356 . S
C831 O836 1.209 . S
C831 O838 1.226 . S
O832 Cd828 2.273 . S
O832 Cd830 2.411 . S
O832 C835 1.320 . S
O833 Cd830 2.333 . S
O833 C835 1.214 . S
O834 Cd830 2.352 . S
O834 C837 1.258 . S
C835 O832 1.320 . S
C835 O833 1.214 . S
O836 Cd828 2.277 . S
O836 C831 1.209 . S
C837 O834 1.258 . S
C837 O839 1.282 . S
O838 Cd830 2.277 . S
O838 C831 1.226 . S
O839 Cd830 2.356 . S
O839 C837 1.282 . S
C840 O841 1.306 . S
C840 O843 1.160 . S
O841 C840 1.306 . S
O841 Cd842 2.228 . S
Cd842 O841 2.228 . S
Cd842 O846 2.273 . S
Cd842 O850 2.277 . S
O843 C840 1.160 . S
O843 Cd844 2.203 . S
Cd844 O843 2.203 . S
Cd844 O846 2.411 . S
Cd844 O847 2.333 . S
Cd844 O848 2.352 . S
Cd844 O852 2.277 . S
Cd844 O853 2.356 . S
C845 O850 1.209 . S
C845 O852 1.226 . S
O846 Cd842 2.273 . S
O846 Cd844 2.411 . S
O846 C849 1.320 . S
O847 Cd844 2.333 . S
O847 C849 1.214 . S
O848 Cd844 2.352 . S
O848 C851 1.258 . S
C849 O846 1.320 . S
C849 O847 1.214 . S
O850 Cd842 2.277 . S
O850 C845 1.209 . S
C851 O848 1.258 . S
C851 O853 1.282 . S
O852 Cd844 2.277 . S
O852 C845 1.226 . S
O853 Cd844 2.356 . S
O853 C851 1.282 . S
C854 O855 1.306 . S
C854 O857 1.160 . S
O855 C854 1.306 . S
O855 Cd856 2.228 . S
Cd856 O855 2.228 . S
Cd856 O860 2.273 . S
Cd856 O864 2.277 . S
O857 C854 1.160 . S
O857 Cd858 2.203 . S
Cd858 O857 2.203 . S
Cd858 O860 2.411 . S
Cd858 O861 2.333 . S
Cd858 O862 2.352 . S
Cd858 O866 2.277 . S
Cd858 O867 2.356 . S
C859 O864 1.209 . S
C859 O866 1.226 . S
O860 Cd856 2.273 . S
O860 Cd858 2.411 . S
O860 C863 1.320 . S
O861 Cd858 2.333 . S
O861 C863 1.214 . S
O862 Cd858 2.352 . S
O862 C865 1.258 . S
C863 O860 1.320 . S
C863 O861 1.214 . S
O864 Cd856 2.277 . S
O864 C859 1.209 . S
C865 O862 1.258 . S
C865 O867 1.282 . S
O866 Cd858 2.277 . S
O866 C859 1.226 . S
O867 Cd858 2.356 . S
O867 C865 1.282 . S
C868 O869 1.306 . S
C868 O871 1.160 . S
O869 C868 1.306 . S
O869 Cd870 2.228 . S
Cd870 O869 2.228 . S
Cd870 O874 2.273 . S
Cd870 O878 2.277 . S
O871 C868 1.160 . S
O871 Cd872 2.203 . S
Cd872 O871 2.203 . S
Cd872 O874 2.411 . S
Cd872 O875 2.333 . S
Cd872 O876 2.352 . S
Cd872 O880 2.277 . S
Cd872 O881 2.356 . S
C873 O878 1.209 . S
C873 O880 1.226 . S
O874 Cd870 2.273 . S
O874 Cd872 2.411 . S
O874 C877 1.320 . S
O875 Cd872 2.333 . S
O875 C877 1.214 . S
O876 Cd872 2.352 . S
O876 C879 1.258 . S
C877 O874 1.320 . S
C877 O875 1.214 . S
O878 Cd870 2.277 . S
O878 C873 1.209 . S
C879 O876 1.258 . S
C879 O881 1.282 . S
O880 Cd872 2.277 . S
O880 C873 1.226 . S
O881 Cd872 2.356 . S
O881 C879 1.282 . S
C882 O883 1.306 . S
C882 O885 1.160 . S
O883 C882 1.306 . S
O883 Cd884 2.228 . S
Cd884 O883 2.228 . S
Cd884 O888 2.273 . S
Cd884 O892 2.277 . S
O885 C882 1.160 . S
O885 Cd886 2.203 . S
Cd886 O885 2.203 . S
Cd886 O888 2.411 . S
Cd886 O889 2.333 . S
Cd886 O890 2.352 . S
Cd886 O894 2.277 . S
Cd886 O895 2.356 . S
C887 O892 1.209 . S
C887 O894 1.226 . S
O888 Cd884 2.273 . S
O888 Cd886 2.411 . S
O888 C891 1.320 . S
O889 Cd886 2.333 . S
O889 C891 1.214 . S
O890 Cd886 2.352 . S
O890 C893 1.258 . S
C891 O888 1.320 . S
C891 O889 1.214 . S
O892 Cd884 2.277 . S
O892 C887 1.209 . S
C893 O890 1.258 . S
C893 O895 1.282 . S
O894 Cd886 2.277 . S
O894 C887 1.226 . S
O895 Cd886 2.356 . S
O895 C893 1.282 . S
C896 O897 1.306 . S
C896 O899 1.160 . S
O897 C896 1.306 . S
O897 Cd898 2.228 . S
Cd898 O897 2.228 . S
Cd898 O902 2.273 . S
Cd898 O906 2.277 . S
O899 C896 1.160 . S
O899 Cd900 2.203 . S
Cd900 O899 2.203 . S
Cd900 O902 2.411 . S
Cd900 O903 2.333 . S
Cd900 O904 2.352 . S
Cd900 O908 2.277 . S
Cd900 O909 2.356 . S
C901 O906 1.209 . S
C901 O908 1.226 . S
O902 Cd898 2.273 . S
O902 Cd900 2.411 . S
O902 C905 1.320 . S
O903 Cd900 2.333 . S
O903 C905 1.214 . S
O904 Cd900 2.352 . S
O904 C907 1.258 . S
C905 O902 1.320 . S
C905 O903 1.214 . S
O906 Cd898 2.277 . S
O906 C901 1.209 . S
C907 O904 1.258 . S
C907 O909 1.282 . S
O908 Cd900 2.277 . S
O908 C901 1.226 . S
O909 Cd900 2.356 . S
O909 C907 1.282 . S
C910 O911 1.306 . S
C910 O913 1.160 . S
O911 C910 1.306 . S
O911 Cd912 2.228 . S
Cd912 O911 2.228 . S
Cd912 O916 2.273 . S
Cd912 O920 2.277 . S
O913 C910 1.160 . S
O913 Cd914 2.203 . S
Cd914 O913 2.203 . S
Cd914 O916 2.411 . S
Cd914 O917 2.333 . S
Cd914 O918 2.352 . S
Cd914 O922 2.277 . S
Cd914 O923 2.356 . S
C915 O920 1.209 . S
C915 O922 1.226 . S
O916 Cd912 2.273 . S
O916 Cd914 2.411 . S
O916 C919 1.320 . S
O917 Cd914 2.333 . S
O917 C919 1.214 . S
O918 Cd914 2.352 . S
O918 C921 1.258 . S
C919 O916 1.320 . S
C919 O917 1.214 . S
O920 Cd912 2.277 . S
O920 C915 1.209 . S
C921 O918 1.258 . S
C921 O923 1.282 . S
O922 Cd914 2.277 . S
O922 C915 1.226 . S
O923 Cd914 2.356 . S
O923 C921 1.282 . S
C924 O925 1.306 . S
C924 O927 1.160 . S
O925 C924 1.306 . S
O925 Cd926 2.228 . S
Cd926 O925 2.228 . S
Cd926 O930 2.273 . S
Cd926 O934 2.277 . S
O927 C924 1.160 . S
O927 Cd928 2.203 . S
Cd928 O927 2.203 . S
Cd928 O930 2.411 . S
Cd928 O931 2.333 . S
Cd928 O932 2.352 . S
Cd928 O936 2.277 . S
Cd928 O937 2.356 . S
C929 O934 1.209 . S
C929 O936 1.226 . S
O930 Cd926 2.273 . S
O930 Cd928 2.411 . S
O930 C933 1.320 . S
O931 Cd928 2.333 . S
O931 C933 1.214 . S
O932 Cd928 2.352 . S
O932 C935 1.258 . S
C933 O930 1.320 . S
C933 O931 1.214 . S
O934 Cd926 2.277 . S
O934 C929 1.209 . S
C935 O932 1.258 . S
C935 O937 1.282 . S
O936 Cd928 2.277 . S
O936 C929 1.226 . S
O937 Cd928 2.356 . S
O937 C935 1.282 . S
C938 O939 1.306 . S
C938 O941 1.160 . S
O939 C938 1.306 . S
O939 Cd940 2.228 . S
Cd940 O939 2.228 . S
Cd940 O944 2.273 . S
Cd940 O948 2.277 . S
O941 C938 1.160 . S
O941 Cd942 2.203 . S
Cd942 O941 2.203 . S
Cd942 O944 2.411 . S
Cd942 O945 2.333 . S
Cd942 O946 2.352 . S
Cd942 O950 2.277 . S
Cd942 O951 2.356 . S
C943 O948 1.209 . S
C943 O950 1.226 . S
O944 Cd940 2.273 . S
O944 Cd942 2.411 . S
O944 C947 1.320 . S
O945 Cd942 2.333 . S
O945 C947 1.214 . S
O946 Cd942 2.352 . S
O946 C949 1.258 . S
C947 O944 1.320 . S
C947 O945 1.214 . S
O948 Cd940 2.277 . S
O948 C943 1.209 . S
C949 O946 1.258 . S
C949 O951 1.282 . S
O950 Cd942 2.277 . S
O950 C943 1.226 . S
O951 Cd942 2.356 . S
O951 C949 1.282 . S
C952 O953 1.306 . S
C952 O955 1.160 . S
O953 C952 1.306 . S
O953 Cd954 2.228 . S
Cd954 O953 2.228 . S
Cd954 O958 2.273 . S
Cd954 O962 2.277 . S
O955 C952 1.160 . S
O955 Cd956 2.203 . S
Cd956 O955 2.203 . S
Cd956 O958 2.411 . S
Cd956 O959 2.333 . S
Cd956 O960 2.352 . S
Cd956 O964 2.277 . S
Cd956 O965 2.356 . S
C957 O962 1.209 . S
C957 O964 1.226 . S
O958 Cd954 2.273 . S
O958 Cd956 2.411 . S
O958 C961 1.320 . S
O959 Cd956 2.333 . S
O959 C961 1.214 . S
O960 Cd956 2.352 . S
O960 C963 1.258 . S
C961 O958 1.320 . S
C961 O959 1.214 . S
O962 Cd954 2.277 . S
O962 C957 1.209 . S
C963 O960 1.258 . S
C963 O965 1.282 . S
O964 Cd956 2.277 . S
O964 C957 1.226 . S
O965 Cd956 2.356 . S
O965 C963 1.282 . S
C966 O967 1.306 . S
C966 O969 1.160 . S
O967 C966 1.306 . S
O967 Cd968 2.228 . S
Cd968 O967 2.228 . S
Cd968 O972 2.273 . S
Cd968 O976 2.277 . S
O969 C966 1.160 . S
O969 Cd970 2.203 . S
Cd970 O969 2.203 . S
Cd970 O972 2.411 . S
Cd970 O973 2.333 . S
Cd970 O974 2.352 . S
Cd970 O978 2.277 . S
Cd970 O979 2.356 . S
C971 O976 1.209 . S
C971 O978 1.226 . S
O972 Cd968 2.273 . S
O972 Cd970 2.411 . S
O972 C975 1.320 . S
O973 Cd970 2.333 . S
O973 C975 1.214 . S
O974 Cd970 2.352 . S
O974 C977 1.258 . S
C975 O972 1.320 . S
C975 O973 1.214 . S
O976 Cd968 2.277 . S
O976 C971 1.209 . S
C977 O974 1.258 . S
C977 O979 1.282 . S
O978 Cd970 2.277 . S
O978 C971 1.226 . S
O979 Cd970 2.356 . S
O979 C977 1.282 . S
C980 O981 1.306 . S
C980 O983 1.160 . S
O981 C980 1.306 . S
O981 Cd982 2.228 . S
Cd982 O981 2.228 . S
Cd982 O986 2.273 . S
Cd982 O990 2.277 . S
O983 C980 1.160 . S
O983 Cd984 2.203 . S
Cd984 O983 2.203 . S
Cd984 O986 2.411 . S
Cd984 O987 2.333 . S
Cd984 O988 2.352 . S
Cd984 O992 2.277 . S
Cd984 O993 2.356 . S
C985 O990 1.209 . S
C985 O992 1.226 . S
O986 Cd982 2.273 . S
O986 Cd984 2.411 . S
O986 C989 1.320 . S
O987 Cd984 2.333 . S
O987 C989 1.214 . S
O988 Cd984 2.352 . S
O988 C991 1.258 . S
C989 O986 1.320 . S
C989 O987 1.214 . S
O990 Cd982 2.277 . S
O990 C985 1.209 . S
C991 O988 1.258 . S
C991 O993 1.282 . S
O992 Cd984 2.277 . S
O992 C985 1.226 . S
O993 Cd984 2.356 . S
O993 C991 1.282 . S
C994 O995 1.306 . S
C994 O997 1.160 . S
O995 C994 1.306 . S
O995 Cd996 2.228 . S
Cd996 O995 2.228 . S
Cd996 O1000 2.273 . S
Cd996 O1004 2.277 . S
O997 C994 1.160 . S
O997 Cd998 2.203 . S
Cd998 O997 2.203 . S
Cd998 O1000 2.411 . S
Cd998 O1001 2.333 . S
Cd998 O1002 2.352 . S
Cd998 O1006 2.277 . S
Cd998 O1007 2.356 . S
C999 O1004 1.209 . S
C999 O1006 1.226 . S
O1000 Cd996 2.273 . S
O1000 Cd998 2.411 . S
O1000 C1003 1.320 . S
O1001 Cd998 2.333 . S
O1001 C1003 1.214 . S
O1002 Cd998 2.352 . S
O1002 C1005 1.258 . S
C1003 O1000 1.320 . S
C1003 O1001 1.214 . S
O1004 Cd996 2.277 . S
O1004 C999 1.209 . S
C1005 O1002 1.258 . S
C1005 O1007 1.282 . S
O1006 Cd998 2.277 . S
O1006 C999 1.226 . S
O1007 Cd998 2.356 . S
O1007 C1005 1.282 . S
C1008 O1009 1.306 . S
C1008 O1011 1.160 . S
O1009 C1008 1.306 . S
O1009 Cd1010 2.228 . S
Cd1010 O1009 2.228 . S
Cd1010 O1014 2.273 . S
Cd1010 O1018 2.277 . S
O1011 C1008 1.160 . S
O1011 Cd1012 2.203 . S
Cd1012 O1011 2.203 . S
Cd1012 O1014 2.411 . S
Cd1012 O1015 2.333 . S
Cd1012 O1016 2.352 . S
Cd1012 O1020 2.277 . S
Cd1012 O1021 2.356 . S
C1013 O1018 1.209 . S
C1013 O1020 1.226 . S
O1014 Cd1010 2.273 . S
O1014 Cd1012 2.411 . S
O1014 C1017 1.320 . S
O1015 Cd1012 2.333 . S
O1015 C1017 1.214 . S
O1016 Cd1012 2.352 . S
O1016 C1019 1.258 . S
C1017 O1014 1.320 . S
C1017 O1015 1.214 . S
O1018 Cd1010 2.277 . S
O1018 C1013 1.209 . S
C1019 O1016 1.258 . S
C1019 O1021 1.282 . S
O1020 Cd1012 2.277 . S
O1020 C1013 1.226 . S
O1021 Cd1012 2.356 . S
O1021 C1019 1.282 . S
C1022 O1023 1.306 . S
C1022 O1025 1.160 . S
O1023 C1022 1.306 . S
O1023 Cd1024 2.228 . S
Cd1024 O1023 2.228 . S
Cd1024 O1028 2.273 . S
Cd1024 O1032 2.277 . S
O1025 C1022 1.160 . S
O1025 Cd1026 2.203 . S
Cd1026 O1025 2.203 . S
Cd1026 O1028 2.411 . S
Cd1026 O1029 2.333 . S
Cd1026 O1030 2.352 . S
Cd1026 O1034 2.277 . S
Cd1026 O1035 2.356 . S
C1027 O1032 1.209 . S
C1027 O1034 1.226 . S
O1028 Cd1024 2.273 . S
O1028 Cd1026 2.411 . S
O1028 C1031 1.320 . S
O1029 Cd1026 2.333 . S
O1029 C1031 1.214 . S
O1030 Cd1026 2.352 . S
O1030 C1033 1.258 . S
C1031 O1028 1.320 . S
C1031 O1029 1.214 . S
O1032 Cd1024 2.277 . S
O1032 C1027 1.209 . S
C1033 O1030 1.258 . S
C1033 O1035 1.282 . S
O1034 Cd1026 2.277 . S
O1034 C1027 1.226 . S
O1035 Cd1026 2.356 . S
O1035 C1033 1.282 . S
C1036 O1037 1.306 . S
C1036 O1039 1.160 . S
O1037 C1036 1.306 . S
O1037 Cd1038 2.228 . S
Cd1038 O1037 2.228 . S
Cd1038 O1042 2.273 . S
Cd1038 O1046 2.277 . S
O1039 C1036 1.160 . S
O1039 Cd1040 2.203 . S
Cd1040 O1039 2.203 . S
Cd1040 O1042 2.411 . S
Cd1040 O1043 2.333 . S
Cd1040 O1044 2.352 . S
Cd1040 O1048 2.277 . S
Cd1040 O1049 2.356 . S
C1041 O1046 1.209 . S
C1041 O1048 1.226 . S
O1042 Cd1038 2.273 . S
O1042 Cd1040 2.411 . S
O1042 C1045 1.320 . S
O1043 Cd1040 2.333 . S
O1043 C1045 1.214 . S
O1044 Cd1040 2.352 . S
O1044 C1047 1.258 . S
C1045 O1042 1.320 . S
C1045 O1043 1.214 . S
O1046 Cd1038 2.277 . S
O1046 C1041 1.209 . S
C1047 O1044 1.258 . S
C1047 O1049 1.282 . S
O1048 Cd1040 2.277 . S
O1048 C1041 1.226 . S
O1049 Cd1040 2.356 . S
O1049 C1047 1.282 . S
C1050 O1051 1.306 . S
C1050 O1053 1.160 . S
O1051 C1050 1.306 . S
O1051 Cd1052 2.228 . S
Cd1052 O1051 2.228 . S
Cd1052 O1056 2.273 . S
Cd1052 O1060 2.277 . S
O1053 C1050 1.160 . S
O1053 Cd1054 2.203 . S
Cd1054 O1053 2.203 . S
Cd1054 O1056 2.411 . S
Cd1054 O1057 2.333 . S
Cd1054 O1058 2.352 . S
Cd1054 O1062 2.277 . S
Cd1054 O1063 2.356 . S
C1055 O1060 1.209 . S
C1055 O1062 1.226 . S
O1056 Cd1052 2.273 . S
O1056 Cd1054 2.411 . S
O1056 C1059 1.320 . S
O1057 Cd1054 2.333 . S
O1057 C1059 1.214 . S
O1058 Cd1054 2.352 . S
O1058 C1061 1.258 . S
C1059 O1056 1.320 . S
C1059 O1057 1.214 . S
O1060 Cd1052 2.277 . S
O1060 C1055 1.209 . S
C1061 O1058 1.258 . S
C1061 O1063 1.282 . S
O1062 Cd1054 2.277 . S
O1062 C1055 1.226 . S
O1063 Cd1054 2.356 . S
O1063 C1061 1.282 . S
C1064 O1065 1.306 . S
C1064 O1067 1.160 . S
O1065 C1064 1.306 . S
O1065 Cd1066 2.228 . S
Cd1066 O1065 2.228 . S
Cd1066 O1070 2.273 . S
Cd1066 O1074 2.277 . S
O1067 C1064 1.160 . S
O1067 Cd1068 2.203 . S
Cd1068 O1067 2.203 . S
Cd1068 O1070 2.411 . S
Cd1068 O1071 2.333 . S
Cd1068 O1072 2.352 . S
Cd1068 O1076 2.277 . S
Cd1068 O1077 2.356 . S
C1069 O1074 1.209 . S
C1069 O1076 1.226 . S
O1070 Cd1066 2.273 . S
O1070 Cd1068 2.411 . S
O1070 C1073 1.320 . S
O1071 Cd1068 2.333 . S
O1071 C1073 1.214 . S
O1072 Cd1068 2.352 . S
O1072 C1075 1.258 . S
C1073 O1070 1.320 . S
C1073 O1071 1.214 . S
O1074 Cd1066 2.277 . S
O1074 C1069 1.209 . S
C1075 O1072 1.258 . S
C1075 O1077 1.282 . S
O1076 Cd1068 2.277 . S
O1076 C1069 1.226 . S
O1077 Cd1068 2.356 . S
O1077 C1075 1.282 . S
C1078 O1079 1.306 . S
C1078 O1081 1.160 . S
O1079 C1078 1.306 . S
O1079 Cd1080 2.228 . S
Cd1080 O1079 2.228 . S
Cd1080 O1084 2.273 . S
Cd1080 O1088 2.277 . S
O1081 C1078 1.160 . S
O1081 Cd1082 2.203 . S
Cd1082 O1081 2.203 . S
Cd1082 O1084 2.411 . S
Cd1082 O1085 2.333 . S
Cd1082 O1086 2.352 . S
Cd1082 O1090 2.277 . S
Cd1082 O1091 2.356 . S
C1083 O1088 1.209 . S
C1083 O1090 1.226 . S
O1084 Cd1080 2.273 . S
O1084 Cd1082 2.411 . S
O1084 C1087 1.320 . S
O1085 Cd1082 2.333 . S
O1085 C1087 1.214 . S
O1086 Cd1082 2.352 . S
O1086 C1089 1.258 . S
C1087 O1084 1.320 . S
C1087 O1085 1.214 . S
O1088 Cd1080 2.277 . S
O1088 C1083 1.209 . S
C1089 O1086 1.258 . S
C1089 O1091 1.282 . S
O1090 Cd1082 2.277 . S
O1090 C1083 1.226 . S
O1091 Cd1082 2.356 . S
O1091 C1089 1.282 . S
C1092 O1093 1.306 . S
C1092 O1095 1.160 . S
O1093 C1092 1.306 . S
O1093 Cd1094 2.228 . S
Cd1094 O1093 2.228 . S
Cd1094 O1098 2.273 . S
Cd1094 O1102 2.277 . S
O1095 C1092 1.160 . S
O1095 Cd1096 2.203 . S
Cd1096 O1095 2.203 . S
Cd1096 O1098 2.411 . S
Cd1096 O1099 2.333 . S
Cd1096 O1100 2.352 . S
Cd1096 O1104 2.277 . S
Cd1096 O1105 2.356 . S
C1097 O1102 1.209 . S
C1097 O1104 1.226 . S
O1098 Cd1094 2.273 . S
O1098 Cd1096 2.411 . S
O1098 C1101 1.320 . S
O1099 Cd1096 2.333 . S
O1099 C1101 1.214 . S
O1100 Cd1096 2.352 . S
O1100 C1103 1.258 . S
C1101 O1098 1.320 . S
C1101 O1099 1.214 . S
O1102 Cd1094 2.277 . S
O1102 C1097 1.209 . S
C1103 O1100 1.258 . S
C1103 O1105 1.282 . S
O1104 Cd1096 2.277 . S
O1104 C1097 1.226 . S
O1105 Cd1096 2.356 . S
O1105 C1103 1.282 . S
C1106 O1107 1.306 . S
C1106 O1109 1.160 . S
O1107 C1106 1.306 . S
O1107 Cd1108 2.228 . S
Cd1108 O1107 2.228 . S
Cd1108 O1112 2.273 . S
Cd1108 O1116 2.277 . S
O1109 C1106 1.160 . S
O1109 Cd1110 2.203 . S
Cd1110 O1109 2.203 . S
Cd1110 O1112 2.411 . S
Cd1110 O1113 2.333 . S
Cd1110 O1114 2.352 . S
Cd1110 O1118 2.277 . S
Cd1110 O1119 2.356 . S
C1111 O1116 1.209 . S
C1111 O1118 1.226 . S
O1112 Cd1108 2.273 . S
O1112 Cd1110 2.411 . S
O1112 C1115 1.320 . S
O1113 Cd1110 2.333 . S
O1113 C1115 1.214 . S
O1114 Cd1110 2.352 . S
O1114 C1117 1.258 . S
C1115 O1112 1.320 . S
C1115 O1113 1.214 . S
O1116 Cd1108 2.277 . S
O1116 C1111 1.209 . S
C1117 O1114 1.258 . S
C1117 O1119 1.282 . S
O1118 Cd1110 2.277 . S
O1118 C1111 1.226 . S
O1119 Cd1110 2.356 . S
O1119 C1117 1.282 . S
C1120 O1121 1.306 . S
C1120 O1123 1.160 . S
O1121 C1120 1.306 . S
O1121 Cd1122 2.228 . S
Cd1122 O1121 2.228 . S
Cd1122 O1126 2.273 . S
Cd1122 O1130 2.277 . S
O1123 C1120 1.160 . S
O1123 Cd1124 2.203 . S
Cd1124 O1123 2.203 . S
Cd1124 O1126 2.411 . S
Cd1124 O1127 2.333 . S
Cd1124 O1128 2.352 . S
Cd1124 O1132 2.277 . S
Cd1124 O1133 2.356 . S
C1125 O1130 1.209 . S
C1125 O1132 1.226 . S
O1126 Cd1122 2.273 . S
O1126 Cd1124 2.411 . S
O1126 C1129 1.320 . S
O1127 Cd1124 2.333 . S
O1127 C1129 1.214 . S
O1128 Cd1124 2.352 . S
O1128 C1131 1.258 . S
C1129 O1126 1.320 . S
C1129 O1127 1.214 . S
O1130 Cd1122 2.277 . S
O1130 C1125 1.209 . S
C1131 O1128 1.258 . S
C1131 O1133 1.282 . S
O1132 Cd1124 2.277 . S
O1132 C1125 1.226 . S
O1133 Cd1124 2.356 . S
O1133 C1131 1.282 . S
C1134 O1135 1.306 . S
C1134 O1137 1.160 . S
O1135 C1134 1.306 . S
O1135 Cd1136 2.228 . S
Cd1136 O1135 2.228 . S
Cd1136 O1140 2.273 . S
Cd1136 O1144 2.277 . S
O1137 C1134 1.160 . S
O1137 Cd1138 2.203 . S
Cd1138 O1137 2.203 . S
Cd1138 O1140 2.411 . S
Cd1138 O1141 2.333 . S
Cd1138 O1142 2.352 . S
Cd1138 O1146 2.277 . S
Cd1138 O1147 2.356 . S
C1139 O1144 1.209 . S
C1139 O1146 1.226 . S
O1140 Cd1136 2.273 . S
O1140 Cd1138 2.411 . S
O1140 C1143 1.320 . S
O1141 Cd1138 2.333 . S
O1141 C1143 1.214 . S
O1142 Cd1138 2.352 . S
O1142 C1145 1.258 . S
C1143 O1140 1.320 . S
C1143 O1141 1.214 . S
O1144 Cd1136 2.277 . S
O1144 C1139 1.209 . S
C1145 O1142 1.258 . S
C1145 O1147 1.282 . S
O1146 Cd1138 2.277 . S
O1146 C1139 1.226 . S
O1147 Cd1138 2.356 . S
O1147 C1145 1.282 . S
C1148 O1149 1.306 . S
C1148 O1151 1.160 . S
O1149 C1148 1.306 . S
O1149 Cd1150 2.228 . S
Cd1150 O1149 2.228 . S
Cd1150 O1154 2.273 . S
Cd1150 O1158 2.277 . S
O1151 C1148 1.160 . S
O1151 Cd1152 2.203 . S
Cd1152 O1151 2.203 . S
Cd1152 O1154 2.411 . S
Cd1152 O1155 2.333 . S
Cd1152 O1156 2.352 . S
Cd1152 O1160 2.277 . S
Cd1152 O1161 2.356 . S
C1153 O1158 1.209 . S
C1153 O1160 1.226 . S
O1154 Cd1150 2.273 . S
O1154 Cd1152 2.411 . S
O1154 C1157 1.320 . S
O1155 Cd1152 2.333 . S
O1155 C1157 1.214 . S
O1156 Cd1152 2.352 . S
O1156 C1159 1.258 . S
C1157 O1154 1.320 . S
C1157 O1155 1.214 . S
O1158 Cd1150 2.277 . S
O1158 C1153 1.209 . S
C1159 O1156 1.258 . S
C1159 O1161 1.282 . S
O1160 Cd1152 2.277 . S
O1160 C1153 1.226 . S
O1161 Cd1152 2.356 . S
O1161 C1159 1.282 . S
C1162 O1163 1.306 . S
C1162 O1165 1.160 . S
O1163 C1162 1.306 . S
O1163 Cd1164 2.228 . S
Cd1164 O1163 2.228 . S
Cd1164 O1168 2.273 . S
Cd1164 O1172 2.277 . S
O1165 C1162 1.160 . S
O1165 Cd1166 2.203 . S
Cd1166 O1165 2.203 . S
Cd1166 O1168 2.411 . S
Cd1166 O1169 2.333 . S
Cd1166 O1170 2.352 . S
Cd1166 O1174 2.277 . S
Cd1166 O1175 2.356 . S
C1167 O1172 1.209 . S
C1167 O1174 1.226 . S
O1168 Cd1164 2.273 . S
O1168 Cd1166 2.411 . S
O1168 C1171 1.320 . S
O1169 Cd1166 2.333 . S
O1169 C1171 1.214 . S
O1170 Cd1166 2.352 . S
O1170 C1173 1.258 . S
C1171 O1168 1.320 . S
C1171 O1169 1.214 . S
O1172 Cd1164 2.277 . S
O1172 C1167 1.209 . S
C1173 O1170 1.258 . S
C1173 O1175 1.282 . S
O1174 Cd1166 2.277 . S
O1174 C1167 1.226 . S
O1175 Cd1166 2.356 . S
O1175 C1173 1.282 . S
C1176 O1177 1.306 . S
C1176 O1179 1.160 . S
O1177 C1176 1.306 . S
O1177 Cd1178 2.228 . S
Cd1178 O1177 2.228 . S
Cd1178 O1182 2.273 . S
Cd1178 O1186 2.277 . S
O1179 C1176 1.160 . S
O1179 Cd1180 2.203 . S
Cd1180 O1179 2.203 . S
Cd1180 O1182 2.411 . S
Cd1180 O1183 2.333 . S
Cd1180 O1184 2.352 . S
Cd1180 O1188 2.277 . S
Cd1180 O1189 2.356 . S
C1181 O1186 1.209 . S
C1181 O1188 1.226 . S
O1182 Cd1178 2.273 . S
O1182 Cd1180 2.411 . S
O1182 C1185 1.320 . S
O1183 Cd1180 2.333 . S
O1183 C1185 1.214 . S
O1184 Cd1180 2.352 . S
O1184 C1187 1.258 . S
C1185 O1182 1.320 . S
C1185 O1183 1.214 . S
O1186 Cd1178 2.277 . S
O1186 C1181 1.209 . S
C1187 O1184 1.258 . S
C1187 O1189 1.282 . S
O1188 Cd1180 2.277 . S
O1188 C1181 1.226 . S
O1189 Cd1180 2.356 . S
O1189 C1187 1.282 . S
C1190 O1191 1.306 . S
C1190 O1193 1.160 . S
O1191 C1190 1.306 . S
O1191 Cd1192 2.228 . S
Cd1192 O1191 2.228 . S
Cd1192 O1196 2.273 . S
Cd1192 O1200 2.277 . S
O1193 C1190 1.160 . S
O1193 Cd1194 2.203 . S
Cd1194 O1193 2.203 . S
Cd1194 O1196 2.411 . S
Cd1194 O1197 2.333 . S
Cd1194 O1198 2.352 . S
Cd1194 O1202 2.277 . S
Cd1194 O1203 2.356 . S
C1195 O1200 1.209 . S
C1195 O1202 1.226 . S
O1196 Cd1192 2.273 . S
O1196 Cd1194 2.411 . S
O1196 C1199 1.320 . S
O1197 Cd1194 2.333 . S
O1197 C1199 1.214 . S
O1198 Cd1194 2.352 . S
O1198 C1201 1.258 . S
C1199 O1196 1.320 . S
C1199 O1197 1.214 . S
O1200 Cd1192 2.277 . S
O1200 C1195 1.209 . S
C1201 O1198 1.258 . S
C1201 O1203 1.282 . S
O1202 Cd1194 2.277 . S
O1202 C1195 1.226 . S
O1203 Cd1194 2.356 . S
O1203 C1201 1.282 . S
C1204 O1205 1.306 . S
C1204 O1207 1.160 . S
O1205 C1204 1.306 . S
O1205 Cd1206 2.228 . S
Cd1206 O1205 2.228 . S
Cd1206 O1210 2.273 . S
Cd1206 O1214 2.277 . S
O1207 C1204 1.160 . S
O1207 Cd1208 2.203 . S
Cd1208 O1207 2.203 . S
Cd1208 O1210 2.411 . S
Cd1208 O1211 2.333 . S
Cd1208 O1212 2.352 . S
Cd1208 O1216 2.277 . S
Cd1208 O1217 2.356 . S
C1209 O1214 1.209 . S
C1209 O1216 1.226 . S
O1210 Cd1206 2.273 . S
O1210 Cd1208 2.411 . S
O1210 C1213 1.320 . S
O1211 Cd1208 2.333 . S
O1211 C1213 1.214 . S
O1212 Cd1208 2.352 . S
O1212 C1215 1.258 . S
C1213 O1210 1.320 . S
C1213 O1211 1.214 . S
O1214 Cd1206 2.277 . S
O1214 C1209 1.209 . S
C1215 O1212 1.258 . S
C1215 O1217 1.282 . S
O1216 Cd1208 2.277 . S
O1216 C1209 1.226 . S
O1217 Cd1208 2.356 . S
O1217 C1215 1.282 . S
C1218 O1219 1.306 . S
C1218 O1221 1.160 . S
O1219 C1218 1.306 . S
O1219 Cd1220 2.228 . S
Cd1220 O1219 2.228 . S
Cd1220 O1224 2.273 . S
Cd1220 O1228 2.277 . S
O1221 C1218 1.160 . S
O1221 Cd1222 2.203 . S
Cd1222 O1221 2.203 . S
Cd1222 O1224 2.411 . S
Cd1222 O1225 2.333 . S
Cd1222 O1226 2.352 . S
Cd1222 O1230 2.277 . S
Cd1222 O1231 2.356 . S
C1223 O1228 1.209 . S
C1223 O1230 1.226 . S
O1224 Cd1220 2.273 . S
O1224 Cd1222 2.411 . S
O1224 C1227 1.320 . S
O1225 Cd1222 2.333 . S
O1225 C1227 1.214 . S
O1226 Cd1222 2.352 . S
O1226 C1229 1.258 . S
C1227 O1224 1.320 . S
C1227 O1225 1.214 . S
O1228 Cd1220 2.277 . S
O1228 C1223 1.209 . S
C1229 O1226 1.258 . S
C1229 O1231 1.282 . S
O1230 Cd1222 2.277 . S
O1230 C1223 1.226 . S
O1231 Cd1222 2.356 . S
O1231 C1229 1.282 . S
C1232 O1233 1.306 . S
C1232 O1235 1.160 . S
O1233 C1232 1.306 . S
O1233 Cd1234 2.228 . S
Cd1234 O1233 2.228 . S
Cd1234 O1238 2.273 . S
Cd1234 O1242 2.277 . S
O1235 C1232 1.160 . S
O1235 Cd1236 2.203 . S
Cd1236 O1235 2.203 . S
Cd1236 O1238 2.411 . S
Cd1236 O1239 2.333 . S
Cd1236 O1240 2.352 . S
Cd1236 O1244 2.277 . S
Cd1236 O1245 2.356 . S
C1237 O1242 1.209 . S
C1237 O1244 1.226 . S
O1238 Cd1234 2.273 . S
O1238 Cd1236 2.411 . S
O1238 C1241 1.320 . S
O1239 Cd1236 2.333 . S
O1239 C1241 1.214 . S
O1240 Cd1236 2.352 . S
O1240 C1243 1.258 . S
C1241 O1238 1.320 . S
C1241 O1239 1.214 . S
O1242 Cd1234 2.277 . S
O1242 C1237 1.209 . S
C1243 O1240 1.258 . S
C1243 O1245 1.282 . S
O1244 Cd1236 2.277 . S
O1244 C1237 1.226 . S
O1245 Cd1236 2.356 . S
O1245 C1243 1.282 . S
C1246 O1247 1.306 . S
C1246 O1249 1.160 . S
O1247 C1246 1.306 . S
O1247 Cd1248 2.228 . S
Cd1248 O1247 2.228 . S
Cd1248 O1252 2.273 . S
Cd1248 O1256 2.277 . S
O1249 C1246 1.160 . S
O1249 Cd1250 2.203 . S
Cd1250 O1249 2.203 . S
Cd1250 O1252 2.411 . S
Cd1250 O1253 2.333 . S
Cd1250 O1254 2.352 . S
Cd1250 O1258 2.277 . S
Cd1250 O1259 2.356 . S
C1251 O1256 1.209 . S
C1251 O1258 1.226 . S
O1252 Cd1248 2.273 . S
O1252 Cd1250 2.411 . S
O1252 C1255 1.320 . S
O1253 Cd1250 2.333 . S
O1253 C1255 1.214 . S
O1254 Cd1250 2.352 . S
O1254 C1257 1.258 . S
C1255 O1252 1.320 . S
C1255 O1253 1.214 . S
O1256 Cd1248 2.277 . S
O1256 C1251 1.209 . S
C1257 O1254 1.258 . S
C1257 O1259 1.282 . S
O1258 Cd1250 2.277 . S
O1258 C1251 1.226 . S
O1259 Cd1250 2.356 . S
O1259 C1257 1.282 . S
C1260 O1261 1.306 . S
C1260 O1263 1.160 . S
O1261 C1260 1.306 . S
O1261 Cd1262 2.228 . S
Cd1262 O1261 2.228 . S
Cd1262 O1266 2.273 . S
Cd1262 O1270 2.277 . S
O1263 C1260 1.160 . S
O1263 Cd1264 2.203 . S
Cd1264 O1263 2.203 . S
Cd1264 O1266 2.411 . S
Cd1264 O1267 2.333 . S
Cd1264 O1268 2.352 . S
Cd1264 O1272 2.277 . S
Cd1264 O1273 2.356 . S
C1265 O1270 1.209 . S
C1265 O1272 1.226 . S
O1266 Cd1262 2.273 . S
O1266 Cd1264 2.411 . S
O1266 C1269 1.320 . S
O1267 Cd1264 2.333 . S
O1267 C1269 1.214 . S
O1268 Cd1264 2.352 . S
O1268 C1271 1.258 . S
C1269 O1266 1.320 . S
C1269 O1267 1.214 . S
O1270 Cd1262 2.277 . S
O1270 C1265 1.209 . S
C1271 O1268 1.258 . S
C1271 O1273 1.282 . S
O1272 Cd1264 2.277 . S
O1272 C1265 1.226 . S
O1273 Cd1264 2.356 . S
O1273 C1271 1.282 . S
C1274 O1275 1.306 . S
C1274 O1277 1.160 . S
O1275 C1274 1.306 . S
O1275 Cd1276 2.228 . S
Cd1276 O1275 2.228 . S
Cd1276 O1280 2.273 . S
Cd1276 O1284 2.277 . S
O1277 C1274 1.160 . S
O1277 Cd1278 2.203 . S
Cd1278 O1277 2.203 . S
Cd1278 O1280 2.411 . S
Cd1278 O1281 2.333 . S
Cd1278 O1282 2.352 . S
Cd1278 O1286 2.277 . S
Cd1278 O1287 2.356 . S
C1279 O1284 1.209 . S
C1279 O1286 1.226 . S
O1280 Cd1276 2.273 . S
O1280 Cd1278 2.411 . S
O1280 C1283 1.320 . S
O1281 Cd1278 2.333 . S
O1281 C1283 1.214 . S
O1282 Cd1278 2.352 . S
O1282 C1285 1.258 . S
C1283 O1280 1.320 . S
C1283 O1281 1.214 . S
O1284 Cd1276 2.277 . S
O1284 C1279 1.209 . S
C1285 O1282 1.258 . S
C1285 O1287 1.282 . S
O1286 Cd1278 2.277 . S
O1286 C1279 1.226 . S
O1287 Cd1278 2.356 . S
O1287 C1285 1.282 . S
C1288 O1289 1.306 . S
C1288 O1291 1.160 . S
O1289 C1288 1.306 . S
O1289 Cd1290 2.228 . S
Cd1290 O1289 2.228 . S
Cd1290 O1294 2.273 . S
Cd1290 O1298 2.277 . S
O1291 C1288 1.160 . S
O1291 Cd1292 2.203 . S
Cd1292 O1291 2.203 . S
Cd1292 O1294 2.411 . S
Cd1292 O1295 2.333 . S
Cd1292 O1296 2.352 . S
Cd1292 O1300 2.277 . S
Cd1292 O1301 2.356 . S
C1293 O1298 1.209 . S
C1293 O1300 1.226 . S
O1294 Cd1290 2.273 . S
O1294 Cd1292 2.411 . S
O1294 C1297 1.320 . S
O1295 Cd1292 2.333 . S
O1295 C1297 1.214 . S
O1296 Cd1292 2.352 . S
O1296 C1299 1.258 . S
C1297 O1294 1.320 . S
C1297 O1295 1.214 . S
O1298 Cd1290 2.277 . S
O1298 C1293 1.209 . S
C1299 O1296 1.258 . S
C1299 O1301 1.282 . S
O1300 Cd1292 2.277 . S
O1300 C1293 1.226 . S
O1301 Cd1292 2.356 . S
O1301 C1299 1.282 . S
C1302 O1303 1.306 . S
C1302 O1305 1.160 . S
O1303 C1302 1.306 . S
O1303 Cd1304 2.228 . S
Cd1304 O1303 2.228 . S
Cd1304 O1308 2.273 . S
Cd1304 O1312 2.277 . S
O1305 C1302 1.160 . S
O1305 Cd1306 2.203 . S
Cd1306 O1305 2.203 . S
Cd1306 O1308 2.411 . S
Cd1306 O1309 2.333 . S
Cd1306 O1310 2.352 . S
Cd1306 O1314 2.277 . S
Cd1306 O1315 2.356 . S
C1307 O1312 1.209 . S
C1307 O1314 1.226 . S
O1308 Cd1304 2.273 . S
O1308 Cd1306 2.411 . S
O1308 C1311 1.320 . S
O1309 Cd1306 2.333 . S
O1309 C1311 1.214 . S
O1310 Cd1306 2.352 . S
O1310 C1313 1.258 . S
C1311 O1308 1.320 . S
C1311 O1309 1.214 . S
O1312 Cd1304 2.277 . S
O1312 C1307 1.209 . S
C1313 O1310 1.258 . S
C1313 O1315 1.282 . S
O1314 Cd1306 2.277 . S
O1314 C1307 1.226 . S
O1315 Cd1306 2.356 . S
O1315 C1313 1.282 . S
C1316 O1317 1.306 . S
C1316 O1319 1.160 . S
O1317 C1316 1.306 . S
O1317 Cd1318 2.228 . S
Cd1318 O1317 2.228 . S
Cd1318 O1322 2.273 . S
Cd1318 O1326 2.277 . S
O1319 C1316 1.160 . S
O1319 Cd1320 2.203 . S
Cd1320 O1319 2.203 . S
Cd1320 O1322 2.411 . S
Cd1320 O1323 2.333 . S
Cd1320 O1324 2.352 . S
Cd1320 O1328 2.277 . S
Cd1320 O1329 2.356 . S
C1321 O1326 1.209 . S
C1321 O1328 1.226 . S
O1322 Cd1318 2.273 . S
O1322 Cd1320 2.411 . S
O1322 C1325 1.320 . S
O1323 Cd1320 2.333 . S
O1323 C1325 1.214 . S
O1324 Cd1320 2.352 . S
O1324 C1327 1.258 . S
C1325 O1322 1.320 . S
C1325 O1323 1.214 . S
O1326 Cd1318 2.277 . S
O1326 C1321 1.209 . S
C1327 O1324 1.258 . S
C1327 O1329 1.282 . S
O1328 Cd1320 2.277 . S
O1328 C1321 1.226 . S
O1329 Cd1320 2.356 . S
O1329 C1327 1.282 . S
C1330 O1331 1.306 . S
C1330 O1333 1.160 . S
O1331 C1330 1.306 . S
O1331 Cd1332 2.228 . S
Cd1332 O1331 2.228 . S
Cd1332 O1336 2.273 . S
Cd1332 O1340 2.277 . S
O1333 C1330 1.160 . S
O1333 Cd1334 2.203 . S
Cd1334 O1333 2.203 . S
Cd1334 O1336 2.411 . S
Cd1334 O1337 2.333 . S
Cd1334 O1338 2.352 . S
Cd1334 O1342 2.277 . S
Cd1334 O1343 2.356 . S
C1335 O1340 1.209 . S
C1335 O1342 1.226 . S
O1336 Cd1332 2.273 . S
O1336 Cd1334 2.411 . S
O1336 C1339 1.320 . S
O1337 Cd1334 2.333 . S
O1337 C1339 1.214 . S
O1338 Cd1334 2.352 . S
O1338 C1341 1.258 . S
C1339 O1336 1.320 . S
C1339 O1337 1.214 . S
O1340 Cd1332 2.277 . S
O1340 C1335 1.209 . S
C1341 O1338 1.258 . S
C1341 O1343 1.282 . S
O1342 Cd1334 2.277 . S
O1342 C1335 1.226 . S
O1343 Cd1334 2.356 . S
O1343 C1341 1.282 . S
C1344 O1345 1.306 . S
C1344 O1347 1.160 . S
O1345 C1344 1.306 . S
O1345 Cd1346 2.228 . S
Cd1346 O1345 2.228 . S
Cd1346 O1350 2.273 . S
Cd1346 O1354 2.277 . S
O1347 C1344 1.160 . S
O1347 Cd1348 2.203 . S
Cd1348 O1347 2.203 . S
Cd1348 O1350 2.411 . S
Cd1348 O1351 2.333 . S
Cd1348 O1352 2.352 . S
Cd1348 O1356 2.277 . S
Cd1348 O1357 2.356 . S
C1349 O1354 1.209 . S
C1349 O1356 1.226 . S
O1350 Cd1346 2.273 . S
O1350 Cd1348 2.411 . S
O1350 C1353 1.320 . S
O1351 Cd1348 2.333 . S
O1351 C1353 1.214 . S
O1352 Cd1348 2.352 . S
O1352 C1355 1.258 . S
C1353 O1350 1.320 . S
C1353 O1351 1.214 . S
O1354 Cd1346 2.277 . S
O1354 C1349 1.209 . S
C1355 O1352 1.258 . S
C1355 O1357 1.282 . S
O1356 Cd1348 2.277 . S
O1356 C1349 1.226 . S
O1357 Cd1348 2.356 . S
O1357 C1355 1.282 . S
C1358 O1359 1.306 . S
C1358 O1361 1.160 . S
O1359 C1358 1.306 . S
O1359 Cd1360 2.228 . S
Cd1360 O1359 2.228 . S
Cd1360 O1364 2.273 . S
Cd1360 O1368 2.277 . S
O1361 C1358 1.160 . S
O1361 Cd1362 2.203 . S
Cd1362 O1361 2.203 . S
Cd1362 O1364 2.411 . S
Cd1362 O1365 2.333 . S
Cd1362 O1366 2.352 . S
Cd1362 O1370 2.277 . S
Cd1362 O1371 2.356 . S
C1363 O1368 1.209 . S
C1363 O1370 1.226 . S
O1364 Cd1360 2.273 . S
O1364 Cd1362 2.411 . S
O1364 C1367 1.320 . S
O1365 Cd1362 2.333 . S
O1365 C1367 1.214 . S
O1366 Cd1362 2.352 . S
O1366 C1369 1.258 . S
C1367 O1364 1.320 . S
C1367 O1365 1.214 . S
O1368 Cd1360 2.277 . S
O1368 C1363 1.209 . S
C1369 O1366 1.258 . S
C1369 O1371 1.282 . S
O1370 Cd1362 2.277 . S
O1370 C1363 1.226 . S
O1371 Cd1362 2.356 . S
O1371 C1369 1.282 . S
C1372 O1373 1.306 . S
C1372 O1375 1.160 . S
O1373 C1372 1.306 . S
O1373 Cd1374 2.228 . S
Cd1374 O1373 2.228 . S
Cd1374 O1378 2.273 . S
Cd1374 O1382 2.277 . S
O1375 C1372 1.160 . S
O1375 Cd1376 2.203 . S
Cd1376 O1375 2.203 . S
Cd1376 O1378 2.411 . S
Cd1376 O1379 2.333 . S
Cd1376 O1380 2.352 . S
Cd1376 O1384 2.277 . S
Cd1376 O1385 2.356 . S
C1377 O1382 1.209 . S
C1377 O1384 1.226 . S
O1378 Cd1374 2.273 . S
O1378 Cd1376 2.411 . S
O1378 C1381 1.320 . S
O1379 Cd1376 2.333 . S
O1379 C1381 1.214 . S
O1380 Cd1376 2.352 . S
O1380 C1383 1.258 . S
C1381 O1378 1.320 . S
C1381 O1379 1.214 . S
O1382 Cd1374 2.277 . S
O1382 C1377 1.209 . S
C1383 O1380 1.258 . S
C1383 O1385 1.282 . S
O1384 Cd1376 2.277 . S
O1384 C1377 1.226 . S
O1385 Cd1376 2.356 . S
O1385 C1383 1.282 . S
C1386 O1387 1.306 . S
C1386 O1389 1.160 . S
O1387 C1386 1.306 . S
O1387 Cd1388 2.228 . S
Cd1388 O1387 2.228 . S
Cd1388 O1392 2.273 . S
Cd1388 O1396 2.277 . S
O1389 C1386 1.160 . S
O1389 Cd1390 2.203 . S
Cd1390 O1389 2.203 . S
Cd1390 O1392 2.411 . S
Cd1390 O1393 2.333 . S
Cd1390 O1394 2.352 . S
Cd1390 O1398 2.277 . S
Cd1390 O1399 2.356 . S
C1391 O1396 1.209 . S
C1391 O1398 1.226 . S
O1392 Cd1388 2.273 . S
O1392 Cd1390 2.411 . S
O1392 C1395 1.320 . S
O1393 Cd1390 2.333 . S
O1393 C1395 1.214 . S
O1394 Cd1390 2.352 . S
O1394 C1397 1.258 . S
C1395 O1392 1.320 . S
C1395 O1393 1.214 . S
O1396 Cd1388 2.277 . S
O1396 C1391 1.209 . S
C1397 O1394 1.258 . S
C1397 O1399 1.282 . S
O1398 Cd1390 2.277 . S
O1398 C1391 1.226 . S
O1399 Cd1390 2.356 . S
O1399 C1397 1.282 . S
C1400 O1401 1.306 . S
C1400 O1403 1.160 . S
O1401 C1400 1.306 . S
O1401 Cd1402 2.228 . S
Cd1402 O1401 2.228 . S
Cd1402 O1406 2.273 . S
Cd1402 O1410 2.277 . S
O1403 C1400 1.160 . S
O1403 Cd1404 2.203 . S
Cd1404 O1403 2.203 . S
Cd1404 O1406 2.411 . S
Cd1404 O1407 2.333 . S
Cd1404 O1408 2.352 . S
Cd1404 O1412 2.277 . S
Cd1404 O1413 2.356 . S
C1405 O1410 1.209 . S
C1405 O1412 1.226 . S
O1406 Cd1402 2.273 . S
O1406 Cd1404 2.411 . S
O1406 C1409 1.320 . S
O1407 Cd1404 2.333 . S
O1407 C1409 1.214 . S
O1408 Cd1404 2.352 . S
O1408 C1411 1.258 . S
C1409 O1406 1.320 . S
C1409 O1407 1.214 . S
O1410 Cd1402 2.277 . S
O1410 C1405 1.209 . S
C1411 O1408 1.258 . S
C1411 O1413 1.282 . S
O1412 Cd1404 2.277 . S
O1412 C1405 1.226 . S
O1413 Cd1404 2.356 . S
O1413 C1411 1.282 . S
C1414 O1415 1.306 . S
C1414 O1417 1.160 . S
O1415 C1414 1.306 . S
O1415 Cd1416 2.228 . S
Cd1416 O1415 2.228 . S
Cd1416 O1420 2.273 . S
Cd1416 O1424 2.277 . S
O1417 C1414 1.160 . S
O1417 Cd1418 2.203 . S
Cd1418 O1417 2.203 . S
Cd1418 O1420 2.411 . S
Cd1418 O1421 2.333 . S
Cd1418 O1422 2.352 . S
Cd1418 O1426 2.277 . S
Cd1418 O1427 2.356 . S
C1419 O1424 1.209 . S
C1419 O1426 1.226 . S
O1420 Cd1416 2.273 . S
O1420 Cd1418 2.411 . S
O1420 C1423 1.320 . S
O1421 Cd1418 2.333 . S
O1421 C1423 1.214 . S
O1422 Cd1418 2.352 . S
O1422 C1425 1.258 . S
C1423 O1420 1.320 . S
C1423 O1421 1.214 . S
O1424 Cd1416 2.277 . S
O1424 C1419 1.209 . S
C1425 O1422 1.258 . S
C1425 O1427 1.282 . S
O1426 Cd1418 2.277 . S
O1426 C1419 1.226 . S
O1427 Cd1418 2.356 . S
O1427 C1425 1.282 . S
C1428 O1429 1.306 . S
C1428 O1431 1.160 . S
O1429 C1428 1.306 . S
O1429 Cd1430 2.228 . S
Cd1430 O1429 2.228 . S
Cd1430 O1434 2.273 . S
Cd1430 O1438 2.277 . S
O1431 C1428 1.160 . S
O1431 Cd1432 2.203 . S
Cd1432 O1431 2.203 . S
Cd1432 O1434 2.411 . S
Cd1432 O1435 2.333 . S
Cd1432 O1436 2.352 . S
Cd1432 O1440 2.277 . S
Cd1432 O1441 2.356 . S
C1433 O1438 1.209 . S
C1433 O1440 1.226 . S
O1434 Cd1430 2.273 . S
O1434 Cd1432 2.411 . S
O1434 C1437 1.320 . S
O1435 Cd1432 2.333 . S
O1435 C1437 1.214 . S
O1436 Cd1432 2.352 . S
O1436 C1439 1.258 . S
C1437 O1434 1.320 . S
C1437 O1435 1.214 . S
O1438 Cd1430 2.277 . S
O1438 C1433 1.209 . S
C1439 O1436 1.258 . S
C1439 O1441 1.282 . S
O1440 Cd1432 2.277 . S
O1440 C1433 1.226 . S
O1441 Cd1432 2.356 . S
O1441 C1439 1.282 . S
C1442 O1443 1.306 . S
C1442 O1445 1.160 . S
O1443 C1442 1.306 . S
O1443 Cd1444 2.228 . S
Cd1444 O1443 2.228 . S
Cd1444 O1448 2.273 . S
Cd1444 O1452 2.277 . S
O1445 C1442 1.160 . S
O1445 Cd1446 2.203 . S
Cd1446 O1445 2.203 . S
Cd1446 O1448 2.411 . S
Cd1446 O1449 2.333 . S
Cd1446 O1450 2.352 . S
Cd1446 O1454 2.277 . S
Cd1446 O1455 2.356 . S
C1447 O1452 1.209 . S
C1447 O1454 1.226 . S
O1448 Cd1444 2.273 . S
O1448 Cd1446 2.411 . S
O1448 C1451 1.320 . S
O1449 Cd1446 2.333 . S
O1449 C1451 1.214 . S
O1450 Cd1446 2.352 . S
O1450 C1453 1.258 . S
C1451 O1448 1.320 . S
C1451 O1449 1.214 . S
O1452 Cd1444 2.277 . S
O1452 C1447 1.209 . S
C1453 O1450 1.258 . S
C1453 O1455 1.282 . S
O1454 Cd1446 2.277 . S
O1454 C1447 1.226 . S
O1455 Cd1446 2.356 . S
O1455 C1453 1.282 . S
C1456 O1457 1.306 . S
C1456 O1459 1.160 . S
O1457 C1456 1.306 . S
O1457 Cd1458 2.228 . S
Cd1458 O1457 2.228 . S
Cd1458 O1462 2.273 . S
Cd1458 O1466 2.277 . S
O1459 C1456 1.160 . S
O1459 Cd1460 2.203 . S
Cd1460 O1459 2.203 . S
Cd1460 O1462 2.411 . S
Cd1460 O1463 2.333 . S
Cd1460 O1464 2.352 . S
Cd1460 O1468 2.277 . S
Cd1460 O1469 2.356 . S
C1461 O1466 1.209 . S
C1461 O1468 1.226 . S
O1462 Cd1458 2.273 . S
O1462 Cd1460 2.411 . S
O1462 C1465 1.320 . S
O1463 Cd1460 2.333 . S
O1463 C1465 1.214 . S
O1464 Cd1460 2.352 . S
O1464 C1467 1.258 . S
C1465 O1462 1.320 . S
C1465 O1463 1.214 . S
O1466 Cd1458 2.277 . S
O1466 C1461 1.209 . S
C1467 O1464 1.258 . S
C1467 O1469 1.282 . S
O1468 Cd1460 2.277 . S
O1468 C1461 1.226 . S
O1469 Cd1460 2.356 . S
O1469 C1467 1.282 . S
C1470 O1471 1.306 . S
C1470 O1473 1.160 . S
O1471 C1470 1.306 . S
O1471 Cd1472 2.228 . S
Cd1472 O1471 2.228 . S
Cd1472 O1476 2.273 . S
Cd1472 O1480 2.277 . S
O1473 C1470 1.160 . S
O1473 Cd1474 2.203 . S
Cd1474 O1473 2.203 . S
Cd1474 O1476 2.411 . S
Cd1474 O1477 2.333 . S
Cd1474 O1478 2.352 . S
Cd1474 O1482 2.277 . S
Cd1474 O1483 2.356 . S
C1475 O1480 1.209 . S
C1475 O1482 1.226 . S
O1476 Cd1472 2.273 . S
O1476 Cd1474 2.411 . S
O1476 C1479 1.320 . S
O1477 Cd1474 2.333 . S
O1477 C1479 1.214 . S
O1478 Cd1474 2.352 . S
O1478 C1481 1.258 . S
C1479 O1476 1.320 . S
C1479 O1477 1.214 . S
O1480 Cd1472 2.277 . S
O1480 C1475 1.209 . S
C1481 O1478 1.258 . S
C1481 O1483 1.282 . S
O1482 Cd1474 2.277 . S
O1482 C1475 1.226 . S
O1483 Cd1474 2.356 . S
O1483 C1481 1.282 . S
C1484 O1485 1.306 . S
C1484 O1487 1.160 . S
O1485 C1484 1.306 . S
O1485 Cd1486 2.228 . S
Cd1486 O1485 2.228 . S
Cd1486 O1490 2.273 . S
Cd1486 O1494 2.277 . S
O1487 C1484 1.160 . S
O1487 Cd1488 2.203 . S
Cd1488 O1487 2.203 . S
Cd1488 O1490 2.411 . S
Cd1488 O1491 2.333 . S
Cd1488 O1492 2.352 . S
Cd1488 O1496 2.277 . S
Cd1488 O1497 2.356 . S
C1489 O1494 1.209 . S
C1489 O1496 1.226 . S
O1490 Cd1486 2.273 . S
O1490 Cd1488 2.411 . S
O1490 C1493 1.320 . S
O1491 Cd1488 2.333 . S
O1491 C1493 1.214 . S
O1492 Cd1488 2.352 . S
O1492 C1495 1.258 . S
C1493 O1490 1.320 . S
C1493 O1491 1.214 . S
O1494 Cd1486 2.277 . S
O1494 C1489 1.209 . S
C1495 O1492 1.258 . S
C1495 O1497 1.282 . S
O1496 Cd1488 2.277 . S
O1496 C1489 1.226 . S
O1497 Cd1488 2.356 . S
O1497 C1495 1.282 . S
C1498 O1499 1.306 . S
C1498 O1501 1.160 . S
O1499 C1498 1.306 . S
O1499 Cd1500 2.228 . S
Cd1500 O1499 2.228 . S
Cd1500 O1504 2.273 . S
Cd1500 O1508 2.277 . S
O1501 C1498 1.160 . S
O1501 Cd1502 2.203 . S
Cd1502 O1501 2.203 . S
Cd1502 O1504 2.411 . S
Cd1502 O1505 2.333 . S
Cd1502 O1506 2.352 . S
Cd1502 O1510 2.277 . S
Cd1502 O1511 2.356 . S
C1503 O1508 1.209 . S
C1503 O1510 1.226 . S
O1504 Cd1500 2.273 . S
O1504 Cd1502 2.411 . S
O1504 C1507 1.320 . S
O1505 Cd1502 2.333 . S
O1505 C1507 1.214 . S
O1506 Cd1502 2.352 . S
O1506 C1509 1.258 . S
C1507 O1504 1.320 . S
C1507 O1505 1.214 . S
O1508 Cd1500 2.277 . S
O1508 C1503 1.209 . S
C1509 O1506 1.258 . S
C1509 O1511 1.282 . S
O1510 Cd1502 2.277 . S
O1510 C1503 1.226 . S
O1511 Cd1502 2.356 . S
O1511 C1509 1.282 . S
C1512 O1513 1.306 . S
C1512 O1515 1.160 . S
O1513 C1512 1.306 . S
O1513 Cd1514 2.228 . S
Cd1514 O1513 2.228 . S
Cd1514 O1518 2.273 . S
Cd1514 O1522 2.277 . S
O1515 C1512 1.160 . S
O1515 Cd1516 2.203 . S
Cd1516 O1515 2.203 . S
Cd1516 O1518 2.411 . S
Cd1516 O1519 2.333 . S
Cd1516 O1520 2.352 . S
Cd1516 O1524 2.277 . S
Cd1516 O1525 2.356 . S
C1517 O1522 1.209 . S
C1517 O1524 1.226 . S
O1518 Cd1514 2.273 . S
O1518 Cd1516 2.411 . S
O1518 C1521 1.320 . S
O1519 Cd1516 2.333 . S
O1519 C1521 1.214 . S
O1520 Cd1516 2.352 . S
O1520 C1523 1.258 . S
C1521 O1518 1.320 . S
C1521 O1519 1.214 . S
O1522 Cd1514 2.277 . S
O1522 C1517 1.209 . S
C1523 O1520 1.258 . S
C1523 O1525 1.282 . S
O1524 Cd1516 2.277 . S
O1524 C1517 1.226 . S
O1525 Cd1516 2.356 . S
O1525 C1523 1.282 . S
C1526 O1527 1.306 . S
C1526 O1529 1.160 . S
O1527 C1526 1.306 . S
O1527 Cd1528 2.228 . S
Cd1528 O1527 2.228 . S
Cd1528 O1532 2.273 . S
Cd1528 O1536 2.277 . S
O1529 C1526 1.160 . S
O1529 Cd1530 2.203 . S
Cd1530 O1529 2.203 . S
Cd1530 O1532 2.411 . S
Cd1530 O1533 2.333 . S
Cd1530 O1534 2.352 . S
Cd1530 O1538 2.277 . S
Cd1530 O1539 2.356 . S
C1531 O1536 1.209 . S
C1531 O1538 1.226 . S
O1532 Cd1528 2.273 . S
O1532 Cd1530 2.411 . S
O1532 C1535 1.320 . S
O1533 Cd1530 2.333 . S
O1533 C1535 1.214 . S
O1534 Cd1530 2.352 . S
O1534 C1537 1.258 . S
C1535 O1532 1.320 . S
C1535 O1533 1.214 . S
O1536 Cd1528 2.277 . S
O1536 C1531 1.209 . S
C1537 O1534 1.258 . S
C1537 O1539 1.282 . S
O1538 Cd1530 2.277 . S
O1538 C1531 1.226 . S
O1539 Cd1530 2.356 . S
O1539 C1537 1.282 . S
C1540 O1541 1.306 . S
C1540 O1543 1.160 . S
O1541 C1540 1.306 . S
O1541 Cd1542 2.228 . S
Cd1542 O1541 2.228 . S
Cd1542 O1546 2.273 . S
Cd1542 O1550 2.277 . S
O1543 C1540 1.160 . S
O1543 Cd1544 2.203 . S
Cd1544 O1543 2.203 . S
Cd1544 O1546 2.411 . S
Cd1544 O1547 2.333 . S
Cd1544 O1548 2.352 . S
Cd1544 O1552 2.277 . S
Cd1544 O1553 2.356 . S
C1545 O1550 1.209 . S
C1545 O1552 1.226 . S
O1546 Cd1542 2.273 . S
O1546 Cd1544 2.411 . S
O1546 C1549 1.320 . S
O1547 Cd1544 2.333 . S
O1547 C1549 1.214 . S
O1548 Cd1544 2.352 . S
O1548 C1551 1.258 . S
C1549 O1546 1.320 . S
C1549 O1547 1.214 . S
O1550 Cd1542 2.277 . S
O1550 C1545 1.209 . S
C1551 O1548 1.258 . S
C1551 O1553 1.282 . S
O1552 Cd1544 2.277 . S
O1552 C1545 1.226 . S
O1553 Cd1544 2.356 . S
O1553 C1551 1.282 . S
C1554 O1555 1.306 . S
C1554 O1557 1.160 . S
O1555 C1554 1.306 . S
O1555 Cd1556 2.228 . S
Cd1556 O1555 2.228 . S
Cd1556 O1560 2.273 . S
Cd1556 O1564 2.277 . S
O1557 C1554 1.160 . S
O1557 Cd1558 2.203 . S
Cd1558 O1557 2.203 . S
Cd1558 O1560 2.411 . S
Cd1558 O1561 2.333 . S
Cd1558 O1562 2.352 . S
Cd1558 O1566 2.277 . S
Cd1558 O1567 2.356 . S
C1559 O1564 1.209 . S
C1559 O1566 1.226 . S
O1560 Cd1556 2.273 . S
O1560 Cd1558 2.411 . S
O1560 C1563 1.320 . S
O1561 Cd1558 2.333 . S
O1561 C1563 1.214 . S
O1562 Cd1558 2.352 . S
O1562 C1565 1.258 . S
C1563 O1560 1.320 . S
C1563 O1561 1.214 . S
O1564 Cd1556 2.277 . S
O1564 C1559 1.209 . S
C1565 O1562 1.258 . S
C1565 O1567 1.282 . S
O1566 Cd1558 2.277 . S
O1566 C1559 1.226 . S
O1567 Cd1558 2.356 . S
O1567 C1565 1.282 . S
C1568 O1569 1.306 . S
C1568 O1571 1.160 . S
O1569 C1568 1.306 . S
O1569 Cd1570 2.228 . S
Cd1570 O1569 2.228 . S
Cd1570 O1574 2.273 . S
Cd1570 O1578 2.277 . S
O1571 C1568 1.160 . S
O1571 Cd1572 2.203 . S
Cd1572 O1571 2.203 . S
Cd1572 O1574 2.411 . S
Cd1572 O1575 2.333 . S
Cd1572 O1576 2.352 . S
Cd1572 O1580 2.277 . S
Cd1572 O1581 2.356 . S
C1573 O1578 1.209 . S
C1573 O1580 1.226 . S
O1574 Cd1570 2.273 . S
O1574 Cd1572 2.411 . S
O1574 C1577 1.320 . S
O1575 Cd1572 2.333 . S
O1575 C1577 1.214 . S
O1576 Cd1572 2.352 . S
O1576 C1579 1.258 . S
C1577 O1574 1.320 . S
C1577 O1575 1.214 . S
O1578 Cd1570 2.277 . S
O1578 C1573 1.209 . S
C1579 O1576 1.258 . S
C1579 O1581 1.282 . S
O1580 Cd1572 2.277 . S
O1580 C1573 1.226 . S
O1581 Cd1572 2.356 . S
O1581 C1579 1.282 . S
C1582 O1583 1.306 . S
C1582 O1585 1.160 . S
O1583 C1582 1.306 . S
O1583 Cd1584 2.228 . S
Cd1584 O1583 2.228 . S
Cd1584 O1588 2.273 . S
Cd1584 O1592 2.277 . S
O1585 C1582 1.160 . S
O1585 Cd1586 2.203 . S
Cd1586 O1585 2.203 . S
Cd1586 O1588 2.411 . S
Cd1586 O1589 2.333 . S
Cd1586 O1590 2.352 . S
Cd1586 O1594 2.277 . S
Cd1586 O1595 2.356 . S
C1587 O1592 1.209 . S
C1587 O1594 1.226 . S
O1588 Cd1584 2.273 . S
O1588 Cd1586 2.411 . S
O1588 C1591 1.320 . S
O1589 Cd1586 2.333 . S
O1589 C1591 1.214 . S
O1590 Cd1586 2.352 . S
O1590 C1593 1.258 . S
C1591 O1588 1.320 . S
C1591 O1589 1.214 . S
O1592 Cd1584 2.277 . S
O1592 C1587 1.209 . S
C1593 O1590 1.258 . S
C1593 O1595 1.282 . S
O1594 Cd1586 2.277 . S
O1594 C1587 1.226 . S
O1595 Cd1586 2.356 . S
O1595 C1593 1.282 . S
C1596 O1597 1.306 . S
C1596 O1599 1.160 . S
O1597 C1596 1.306 . S
O1597 Cd1598 2.228 . S
Cd1598 O1597 2.228 . S
Cd1598 O1602 2.273 . S
Cd1598 O1606 2.277 . S
O1599 C1596 1.160 . S
O1599 Cd1600 2.203 . S
Cd1600 O1599 2.203 . S
Cd1600 O1602 2.411 . S
Cd1600 O1603 2.333 . S
Cd1600 O1604 2.352 . S
Cd1600 O1608 2.277 . S
Cd1600 O1609 2.356 . S
C1601 O1606 1.209 . S
C1601 O1608 1.226 . S
O1602 Cd1598 2.273 . S
O1602 Cd1600 2.411 . S
O1602 C1605 1.320 . S
O1603 Cd1600 2.333 . S
O1603 C1605 1.214 . S
O1604 Cd1600 2.352 . S
O1604 C1607 1.258 . S
C1605 O1602 1.320 . S
C1605 O1603 1.214 . S
O1606 Cd1598 2.277 . S
O1606 C1601 1.209 . S
C1607 O1604 1.258 . S
C1607 O1609 1.282 . S
O1608 Cd1600 2.277 . S
O1608 C1601 1.226 . S
O1609 Cd1600 2.356 . S
O1609 C1607 1.282 . S
C1610 O1611 1.306 . S
C1610 O1613 1.160 . S
O1611 C1610 1.306 . S
O1611 Cd1612 2.228 . S
Cd1612 O1611 2.228 . S
Cd1612 O1616 2.273 . S
Cd1612 O1620 2.277 . S
O1613 C1610 1.160 . S
O1613 Cd1614 2.203 . S
Cd1614 O1613 2.203 . S
Cd1614 O1616 2.411 . S
Cd1614 O1617 2.333 . S
Cd1614 O1618 2.352 . S
Cd1614 O1622 2.277 . S
Cd1614 O1623 2.356 . S
C1615 O1620 1.209 . S
C1615 O1622 1.226 . S
O1616 Cd1612 2.273 . S
O1616 Cd1614 2.411 . S
O1616 C1619 1.320 . S
O1617 Cd1614 2.333 . S
O1617 C1619 1.214 . S
O1618 Cd1614 2.352 . S
O1618 C1621 1.258 . S
C1619 O1616 1.320 . S
C1619 O1617 1.214 . S
O1620 Cd1612 2.277 . S
O1620 C1615 1.209 . S
C1621 O1618 1.258 . S
C1621 O1623 1.282 . S
O1622 Cd1614 2.277 . S
O1622 C1615 1.226 . S
O1623 Cd1614 2.356 . S
O1623 C1621 1.282 . S
C1624 O1625 1.306 . S
C1624 O1627 1.160 . S
O1625 C1624 1.306 . S
O1625 Cd1626 2.228 . S
Cd1626 O1625 2.228 . S
Cd1626 O1630 2.273 . S
Cd1626 O1634 2.277 . S
O1627 C1624 1.160 . S
O1627 Cd1628 2.203 . S
Cd1628 O1627 2.203 . S
Cd1628 O1630 2.411 . S
Cd1628 O1631 2.333 . S
Cd1628 O1632 2.352 . S
Cd1628 O1636 2.277 . S
Cd1628 O1637 2.356 . S
C1629 O1634 1.209 . S
C1629 O1636 1.226 . S
O1630 Cd1626 2.273 . S
O1630 Cd1628 2.411 . S
O1630 C1633 1.320 . S
O1631 Cd1628 2.333 . S
O1631 C1633 1.214 . S
O1632 Cd1628 2.352 . S
O1632 C1635 1.258 . S
C1633 O1630 1.320 . S
C1633 O1631 1.214 . S
O1634 Cd1626 2.277 . S
O1634 C1629 1.209 . S
C1635 O1632 1.258 . S
C1635 O1637 1.282 . S
O1636 Cd1628 2.277 . S
O1636 C1629 1.226 . S
O1637 Cd1628 2.356 . S
O1637 C1635 1.282 . S
C1638 O1639 1.306 . S
C1638 O1641 1.160 . S
O1639 C1638 1.306 . S
O1639 Cd1640 2.228 . S
Cd1640 O1639 2.228 . S
Cd1640 O1644 2.273 . S
Cd1640 O1648 2.277 . S
O1641 C1638 1.160 . S
O1641 Cd1642 2.203 . S
Cd1642 O1641 2.203 . S
Cd1642 O1644 2.411 . S
Cd1642 O1645 2.333 . S
Cd1642 O1646 2.352 . S
Cd1642 O1650 2.277 . S
Cd1642 O1651 2.356 . S
C1643 O1648 1.209 . S
C1643 O1650 1.226 . S
O1644 Cd1640 2.273 . S
O1644 Cd1642 2.411 . S
O1644 C1647 1.320 . S
O1645 Cd1642 2.333 . S
O1645 C1647 1.214 . S
O1646 Cd1642 2.352 . S
O1646 C1649 1.258 . S
C1647 O1644 1.320 . S
C1647 O1645 1.214 . S
O1648 Cd1640 2.277 . S
O1648 C1643 1.209 . S
C1649 O1646 1.258 . S
C1649 O1651 1.282 . S
O1650 Cd1642 2.277 . S
O1650 C1643 1.226 . S
O1651 Cd1642 2.356 . S
O1651 C1649 1.282 . S
C1652 O1653 1.306 . S
C1652 O1655 1.160 . S
O1653 C1652 1.306 . S
O1653 Cd1654 2.228 . S
Cd1654 O1653 2.228 . S
Cd1654 O1658 2.273 . S
Cd1654 O1662 2.277 . S
O1655 C1652 1.160 . S
O1655 Cd1656 2.203 . S
Cd1656 O1655 2.203 . S
Cd1656 O1658 2.411 . S
Cd1656 O1659 2.333 . S
Cd1656 O1660 2.352 . S
Cd1656 O1664 2.277 . S
Cd1656 O1665 2.356 . S
C1657 O1662 1.209 . S
C1657 O1664 1.226 . S
O1658 Cd1654 2.273 . S
O1658 Cd1656 2.411 . S
O1658 C1661 1.320 . S
O1659 Cd1656 2.333 . S
O1659 C1661 1.214 . S
O1660 Cd1656 2.352 . S
O1660 C1663 1.258 . S
C1661 O1658 1.320 . S
C1661 O1659 1.214 . S
O1662 Cd1654 2.277 . S
O1662 C1657 1.209 . S
C1663 O1660 1.258 . S
C1663 O1665 1.282 . S
O1664 Cd1656 2.277 . S
O1664 C1657 1.226 . S
O1665 Cd1656 2.356 . S
O1665 C1663 1.282 . S
C1666 O1667 1.306 . S
C1666 O1669 1.160 . S
O1667 C1666 1.306 . S
O1667 Cd1668 2.228 . S
Cd1668 O1667 2.228 . S
Cd1668 O1672 2.273 . S
Cd1668 O1676 2.277 . S
O1669 C1666 1.160 . S
O1669 Cd1670 2.203 . S
Cd1670 O1669 2.203 . S
Cd1670 O1672 2.411 . S
Cd1670 O1673 2.333 . S
Cd1670 O1674 2.352 . S
Cd1670 O1678 2.277 . S
Cd1670 O1679 2.356 . S
C1671 O1676 1.209 . S
C1671 O1678 1.226 . S
O1672 Cd1668 2.273 . S
O1672 Cd1670 2.411 . S
O1672 C1675 1.320 . S
O1673 Cd1670 2.333 . S
O1673 C1675 1.214 . S
O1674 Cd1670 2.352 . S
O1674 C1677 1.258 . S
C1675 O1672 1.320 . S
C1675 O1673 1.214 . S
O1676 Cd1668 2.277 . S
O1676 C1671 1.209 . S
C1677 O1674 1.258 . S
C1677 O1679 1.282 . S
O1678 Cd1670 2.277 . S
O1678 C1671 1.226 . S
O1679 Cd1670 2.356 . S
O1679 C1677 1.282 . S
C1680 O1681 1.306 . S
C1680 O1683 1.160 . S
O1681 C1680 1.306 . S
O1681 Cd1682 2.228 . S
Cd1682 O1681 2.228 . S
Cd1682 O1686 2.273 . S
Cd1682 O1690 2.277 . S
O1683 C1680 1.160 . S
O1683 Cd1684 2.203 . S
Cd1684 O1683 2.203 . S
Cd1684 O1686 2.411 . S
Cd1684 O1687 2.333 . S
Cd1684 O1688 2.352 . S
Cd1684 O1692 2.277 . S
Cd1684 O1693 2.356 . S
C1685 O1690 1.209 . S
C1685 O1692 1.226 . S
O1686 Cd1682 2.273 . S
O1686 Cd1684 2.411 . S
O1686 C1689 1.320 . S
O1687 Cd1684 2.333 . S
O1687 C1689 1.214 . S
O1688 Cd1684 2.352 . S
O1688 C1691 1.258 . S
C1689 O1686 1.320 . S
C1689 O1687 1.214 . S
O1690 Cd1682 2.277 . S
O1690 C1685 1.209 . S
C1691 O1688 1.258 . S
C1691 O1693 1.282 . S
O1692 Cd1684 2.277 . S
O1692 C1685 1.226 . S
O1693 Cd1684 2.356 . S
O1693 C1691 1.282 . S
C1694 O1695 1.306 . S
C1694 O1697 1.160 . S
O1695 C1694 1.306 . S
O1695 Cd1696 2.228 . S
Cd1696 O1695 2.228 . S
Cd1696 O1700 2.273 . S
Cd1696 O1704 2.277 . S
O1697 C1694 1.160 . S
O1697 Cd1698 2.203 . S
Cd1698 O1697 2.203 . S
Cd1698 O1700 2.411 . S
Cd1698 O1701 2.333 . S
Cd1698 O1702 2.352 . S
Cd1698 O1706 2.277 . S
Cd1698 O1707 2.356 . S
C1699 O1704 1.209 . S
C1699 O1706 1.226 . S
O1700 Cd1696 2.273 . S
O1700 Cd1698 2.411 . S
O1700 C1703 1.320 . S
O1701 Cd1698 2.333 . S
O1701 C1703 1.214 . S
O1702 Cd1698 2.352 . S
O1702 C1705 1.258 . S
C1703 O1700 1.320 . S
C1703 O1701 1.214 . S
O1704 Cd1696 2.277 . S
O1704 C1699 1.209 . S
C1705 O1702 1.258 . S
C1705 O1707 1.282 . S
O1706 Cd1698 2.277 . S
O1706 C1699 1.226 . S
O1707 Cd1698 2.356 . S
O1707 C1705 1.282 . S
C1708 O1709 1.306 . S
C1708 O1711 1.160 . S
O1709 C1708 1.306 . S
O1709 Cd1710 2.228 . S
Cd1710 O1709 2.228 . S
Cd1710 O1714 2.273 . S
Cd1710 O1718 2.277 . S
O1711 C1708 1.160 . S
O1711 Cd1712 2.203 . S
Cd1712 O1711 2.203 . S
Cd1712 O1714 2.411 . S
Cd1712 O1715 2.333 . S
Cd1712 O1716 2.352 . S
Cd1712 O1720 2.277 . S
Cd1712 O1721 2.356 . S
C1713 O1718 1.209 . S
C1713 O1720 1.226 . S
O1714 Cd1710 2.273 . S
O1714 Cd1712 2.411 . S
O1714 C1717 1.320 . S
O1715 Cd1712 2.333 . S
O1715 C1717 1.214 . S
O1716 Cd1712 2.352 . S
O1716 C1719 1.258 . S
C1717 O1714 1.320 . S
C1717 O1715 1.214 . S
O1718 Cd1710 2.277 . S
O1718 C1713 1.209 . S
C1719 O1716 1.258 . S
C1719 O1721 1.282 . S
O1720 Cd1712 2.277 . S
O1720 C1713 1.226 . S
O1721 Cd1712 2.356 . S
O1721 C1719 1.282 . S
C1722 O1723 1.306 . S
C1722 O1725 1.160 . S
O1723 C1722 1.306 . S
O1723 Cd1724 2.228 . S
Cd1724 O1723 2.228 . S
Cd1724 O1728 2.273 . S
Cd1724 O1732 2.277 . S
O1725 C1722 1.160 . S
O1725 Cd1726 2.203 . S
Cd1726 O1725 2.203 . S
Cd1726 O1728 2.411 . S
Cd1726 O1729 2.333 . S
Cd1726 O1730 2.352 . S
Cd1726 O1734 2.277 . S
Cd1726 O1735 2.356 . S
C1727 O1732 1.209 . S
C1727 O1734 1.226 . S
O1728 Cd1724 2.273 . S
O1728 Cd1726 2.411 . S
O1728 C1731 1.320 . S
O1729 Cd1726 2.333 . S
O1729 C1731 1.214 . S
O1730 Cd1726 2.352 . S
O1730 C1733 1.258 . S
C1731 O1728 1.320 . S
C1731 O1729 1.214 . S
O1732 Cd1724 2.277 . S
O1732 C1727 1.209 . S
C1733 O1730 1.258 . S
C1733 O1735 1.282 . S
O1734 Cd1726 2.277 . S
O1734 C1727 1.226 . S
O1735 Cd1726 2.356 . S
O1735 C1733 1.282 . S
C1736 O1737 1.306 . S
C1736 O1739 1.160 . S
O1737 C1736 1.306 . S
O1737 Cd1738 2.228 . S
Cd1738 O1737 2.228 . S
Cd1738 O1742 2.273 . S
Cd1738 O1746 2.277 . S
O1739 C1736 1.160 . S
O1739 Cd1740 2.203 . S
Cd1740 O1739 2.203 . S
Cd1740 O1742 2.411 . S
Cd1740 O1743 2.333 . S
Cd1740 O1744 2.352 . S
Cd1740 O1748 2.277 . S
Cd1740 O1749 2.356 . S
C1741 O1746 1.209 . S
C1741 O1748 1.226 . S
O1742 Cd1738 2.273 . S
O1742 Cd1740 2.411 . S
O1742 C1745 1.320 . S
O1743 Cd1740 2.333 . S
O1743 C1745 1.214 . S
O1744 Cd1740 2.352 . S
O1744 C1747 1.258 . S
C1745 O1742 1.320 . S
C1745 O1743 1.214 . S
O1746 Cd1738 2.277 . S
O1746 C1741 1.209 . S
C1747 O1744 1.258 . S
C1747 O1749 1.282 . S
O1748 Cd1740 2.277 . S
O1748 C1741 1.226 . S
O1749 Cd1740 2.356 . S
O1749 C1747 1.282 . S
C1750 O1751 1.306 . S
C1750 O1753 1.160 . S
O1751 C1750 1.306 . S
O1751 Cd1752 2.228 . S
Cd1752 O1751 2.228 . S
Cd1752 O1756 2.273 . S
Cd1752 O1760 2.277 . S
O1753 C1750 1.160 . S
O1753 Cd1754 2.203 . S
Cd1754 O1753 2.203 . S
Cd1754 O1756 2.411 . S
Cd1754 O1757 2.333 . S
Cd1754 O1758 2.352 . S
Cd1754 O1762 2.277 . S
Cd1754 O1763 2.356 . S
C1755 O1760 1.209 . S
C1755 O1762 1.226 . S
O1756 Cd1752 2.273 . S
O1756 Cd1754 2.411 . S
O1756 C1759 1.320 . S
O1757 Cd1754 2.333 . S
O1757 C1759 1.214 . S
O1758 Cd1754 2.352 . S
O1758 C1761 1.258 . S
C1759 O1756 1.320 . S
C1759 O1757 1.214 . S
O1760 Cd1752 2.277 . S
O1760 C1755 1.209 . S
C1761 O1758 1.258 . S
C1761 O1763 1.282 . S
O1762 Cd1754 2.277 . S
O1762 C1755 1.226 . S
O1763 Cd1754 2.356 . S
O1763 C1761 1.282 . S
C1764 O1765 1.306 . S
C1764 O1767 1.160 . S
O1765 C1764 1.306 . S
O1765 Cd1766 2.228 . S
Cd1766 O1765 2.228 . S
Cd1766 O1770 2.273 . S
Cd1766 O1774 2.277 . S
O1767 C1764 1.160 . S
O1767 Cd1768 2.203 . S
Cd1768 O1767 2.203 . S
Cd1768 O1770 2.411 . S
Cd1768 O1771 2.333 . S
Cd1768 O1772 2.352 . S
Cd1768 O1776 2.277 . S
Cd1768 O1777 2.356 . S
C1769 O1774 1.209 . S
C1769 O1776 1.226 . S
O1770 Cd1766 2.273 . S
O1770 Cd1768 2.411 . S
O1770 C1773 1.320 . S
O1771 Cd1768 2.333 . S
O1771 C1773 1.214 . S
O1772 Cd1768 2.352 . S
O1772 C1775 1.258 . S
C1773 O1770 1.320 . S
C1773 O1771 1.214 . S
O1774 Cd1766 2.277 . S
O1774 C1769 1.209 . S
C1775 O1772 1.258 . S
C1775 O1777 1.282 . S
O1776 Cd1768 2.277 . S
O1776 C1769 1.226 . S
O1777 Cd1768 2.356 . S
O1777 C1775 1.282 . S
C1778 O1779 1.306 . S
C1778 O1781 1.160 . S
O1779 C1778 1.306 . S
O1779 Cd1780 2.228 . S
Cd1780 O1779 2.228 . S
Cd1780 O1784 2.273 . S
Cd1780 O1788 2.277 . S
O1781 C1778 1.160 . S
O1781 Cd1782 2.203 . S
Cd1782 O1781 2.203 . S
Cd1782 O1784 2.411 . S
Cd1782 O1785 2.333 . S
Cd1782 O1786 2.352 . S
Cd1782 O1790 2.277 . S
Cd1782 O1791 2.356 . S
C1783 O1788 1.209 . S
C1783 O1790 1.226 . S
O1784 Cd1780 2.273 . S
O1784 Cd1782 2.411 . S
O1784 C1787 1.320 . S
O1785 Cd1782 2.333 . S
O1785 C1787 1.214 . S
O1786 Cd1782 2.352 . S
O1786 C1789 1.258 . S
C1787 O1784 1.320 . S
C1787 O1785 1.214 . S
O1788 Cd1780 2.277 . S
O1788 C1783 1.209 . S
C1789 O1786 1.258 . S
C1789 O1791 1.282 . S
O1790 Cd1782 2.277 . S
O1790 C1783 1.226 . S
O1791 Cd1782 2.356 . S
O1791 C1789 1.282 . S
C1792 O1793 1.306 . S
C1792 O1795 1.160 . S
O1793 C1792 1.306 . S
O1793 Cd1794 2.228 . S
Cd1794 O1793 2.228 . S
Cd1794 O1798 2.273 . S
Cd1794 O1802 2.277 . S
O1795 C1792 1.160 . S
O1795 Cd1796 2.203 . S
Cd1796 O1795 2.203 . S
Cd1796 O1798 2.411 . S
Cd1796 O1799 2.333 . S
Cd1796 O1800 2.352 . S
Cd1796 O1804 2.277 . S
Cd1796 O1805 2.356 . S
C1797 O1802 1.209 . S
C1797 O1804 1.226 . S
O1798 Cd1794 2.273 . S
O1798 Cd1796 2.411 . S
O1798 C1801 1.320 . S
O1799 Cd1796 2.333 . S
O1799 C1801 1.214 . S
O1800 Cd1796 2.352 . S
O1800 C1803 1.258 . S
C1801 O1798 1.320 . S
C1801 O1799 1.214 . S
O1802 Cd1794 2.277 . S
O1802 C1797 1.209 . S
C1803 O1800 1.258 . S
C1803 O1805 1.282 . S
O1804 Cd1796 2.277 . S
O1804 C1797 1.226 . S
O1805 Cd1796 2.356 . S
O1805 C1803 1.282 . S
C1806 O1807 1.306 . S
C1806 O1809 1.160 . S
O1807 C1806 1.306 . S
O1807 Cd1808 2.228 . S
Cd1808 O1807 2.228 . S
Cd1808 O1812 2.273 . S
Cd1808 O1816 2.277 . S
O1809 C1806 1.160 . S
O1809 Cd1810 2.203 . S
Cd1810 O1809 2.203 . S
Cd1810 O1812 2.411 . S
Cd1810 O1813 2.333 . S
Cd1810 O1814 2.352 . S
Cd1810 O1818 2.277 . S
Cd1810 O1819 2.356 . S
C1811 O1816 1.209 . S
C1811 O1818 1.226 . S
O1812 Cd1808 2.273 . S
O1812 Cd1810 2.411 . S
O1812 C1815 1.320 . S
O1813 Cd1810 2.333 . S
O1813 C1815 1.214 . S
O1814 Cd1810 2.352 . S
O1814 C1817 1.258 . S
C1815 O1812 1.320 . S
C1815 O1813 1.214 . S
O1816 Cd1808 2.277 . S
O1816 C1811 1.209 . S
C1817 O1814 1.258 . S
C1817 O1819 1.282 . S
O1818 Cd1810 2.277 . S
O1818 C1811 1.226 . S
O1819 Cd1810 2.356 . S
O1819 C1817 1.282 . S
C1820 O1821 1.306 . S
C1820 O1823 1.160 . S
O1821 C1820 1.306 . S
O1821 Cd1822 2.228 . S
Cd1822 O1821 2.228 . S
Cd1822 O1826 2.273 . S
Cd1822 O1830 2.277 . S
O1823 C1820 1.160 . S
O1823 Cd1824 2.203 . S
Cd1824 O1823 2.203 . S
Cd1824 O1826 2.411 . S
Cd1824 O1827 2.333 . S
Cd1824 O1828 2.352 . S
Cd1824 O1832 2.277 . S
Cd1824 O1833 2.356 . S
C1825 O1830 1.209 . S
C1825 O1832 1.226 . S
O1826 Cd1822 2.273 . S
O1826 Cd1824 2.411 . S
O1826 C1829 1.320 . S
O1827 Cd1824 2.333 . S
O1827 C1829 1.214 . S
O1828 Cd1824 2.352 . S
O1828 C1831 1.258 . S
C1829 O1826 1.320 . S
C1829 O1827 1.214 . S
O1830 Cd1822 2.277 . S
O1830 C1825 1.209 . S
C1831 O1828 1.258 . S
C1831 O1833 1.282 . S
O1832 Cd1824 2.277 . S
O1832 C1825 1.226 . S
O1833 Cd1824 2.356 . S
O1833 C1831 1.282 . S
C1834 O1835 1.306 . S
C1834 O1837 1.160 . S
O1835 C1834 1.306 . S
O1835 Cd1836 2.228 . S
Cd1836 O1835 2.228 . S
Cd1836 O1840 2.273 . S
Cd1836 O1844 2.277 . S
O1837 C1834 1.160 . S
O1837 Cd1838 2.203 . S
Cd1838 O1837 2.203 . S
Cd1838 O1840 2.411 . S
Cd1838 O1841 2.333 . S
Cd1838 O1842 2.352 . S
Cd1838 O1846 2.277 . S
Cd1838 O1847 2.356 . S
C1839 O1844 1.209 . S
C1839 O1846 1.226 . S
O1840 Cd1836 2.273 . S
O1840 Cd1838 2.411 . S
O1840 C1843 1.320 . S
O1841 Cd1838 2.333 . S
O1841 C1843 1.214 . S
O1842 Cd1838 2.352 . S
O1842 C1845 1.258 . S
C1843 O1840 1.320 . S
C1843 O1841 1.214 . S
O1844 Cd1836 2.277 . S
O1844 C1839 1.209 . S
C1845 O1842 1.258 . S
C1845 O1847 1.282 . S
O1846 Cd1838 2.277 . S
O1846 C1839 1.226 . S
O1847 Cd1838 2.356 . S
O1847 C1845 1.282 . S
C1848 O1849 1.306 . S
C1848 O1851 1.160 . S
O1849 C1848 1.306 . S
O1849 Cd1850 2.228 . S
Cd1850 O1849 2.228 . S
Cd1850 O1854 2.273 . S
Cd1850 O1858 2.277 . S
O1851 C1848 1.160 . S
O1851 Cd1852 2.203 . S
Cd1852 O1851 2.203 . S
Cd1852 O1854 2.411 . S
Cd1852 O1855 2.333 . S
Cd1852 O1856 2.352 . S
Cd1852 O1860 2.277 . S
Cd1852 O1861 2.356 . S
C1853 O1858 1.209 . S
C1853 O1860 1.226 . S
O1854 Cd1850 2.273 . S
O1854 Cd1852 2.411 . S
O1854 C1857 1.320 . S
O1855 Cd1852 2.333 . S
O1855 C1857 1.214 . S
O1856 Cd1852 2.352 . S
O1856 C1859 1.258 . S
C1857 O1854 1.320 . S
C1857 O1855 1.214 . S
O1858 Cd1850 2.277 . S
O1858 C1853 1.209 . S
C1859 O1856 1.258 . S
C1859 O1861 1.282 . S
O1860 Cd1852 2.277 . S
O1860 C1853 1.226 . S
O1861 Cd1852 2.356 . S
O1861 C1859 1.282 . S
C1862 O1863 1.306 . S
C1862 O1865 1.160 . S
O1863 C1862 1.306 . S
O1863 Cd1864 2.228 . S
Cd1864 O1863 2.228 . S
Cd1864 O1868 2.273 . S
Cd1864 O1872 2.277 . S
O1865 C1862 1.160 . S
O1865 Cd1866 2.203 . S
Cd1866 O1865 2.203 . S
Cd1866 O1868 2.411 . S
Cd1866 O1869 2.333 . S
Cd1866 O1870 2.352 . S
Cd1866 O1874 2.277 . S
Cd1866 O1875 2.356 . S
C1867 O1872 1.209 . S
C1867 O1874 1.226 . S
O1868 Cd1864 2.273 . S
O1868 Cd1866 2.411 . S
O1868 C1871 1.320 . S
O1869 Cd1866 2.333 . S
O1869 C1871 1.214 . S
O1870 Cd1866 2.352 . S
O1870 C1873 1.258 . S
C1871 O1868 1.320 . S
C1871 O1869 1.214 . S
O1872 Cd1864 2.277 . S
O1872 C1867 1.209 . S
C1873 O1870 1.258 . S
C1873 O1875 1.282 . S
O1874 Cd1866 2.277 . S
O1874 C1867 1.226 . S
O1875 Cd1866 2.356 . S
O1875 C1873 1.282 . S
C1876 O1877 1.306 . S
C1876 O1879 1.160 . S
O1877 C1876 1.306 . S
O1877 Cd1878 2.228 . S
Cd1878 O1877 2.228 . S
Cd1878 O1882 2.273 . S
Cd1878 O1886 2.277 . S
O1879 C1876 1.160 . S
O1879 Cd1880 2.203 . S
Cd1880 O1879 2.203 . S
Cd1880 O1882 2.411 . S
Cd1880 O1883 2.333 . S
Cd1880 O1884 2.352 . S
Cd1880 O1888 2.277 . S
Cd1880 O1889 2.356 . S
C1881 O1886 1.209 . S
C1881 O1888 1.226 . S
O1882 Cd1878 2.273 . S
O1882 Cd1880 2.411 . S
O1882 C1885 1.320 . S
O1883 Cd1880 2.333 . S
O1883 C1885 1.214 . S
O1884 Cd1880 2.352 . S
O1884 C1887 1.258 . S
C1885 O1882 1.320 . S
C1885 O1883 1.214 . S
O1886 Cd1878 2.277 . S
O1886 C1881 1.209 . S
C1887 O1884 1.258 . S
C1887 O1889 1.282 . S
O1888 Cd1880 2.277 . S
O1888 C1881 1.226 . S
O1889 Cd1880 2.356 . S
O1889 C1887 1.282 . S
C1890 O1891 1.306 . S
C1890 O1893 1.160 . S
O1891 C1890 1.306 . S
O1891 Cd1892 2.228 . S
Cd1892 O1891 2.228 . S
Cd1892 O1896 2.273 . S
Cd1892 O1900 2.277 . S
O1893 C1890 1.160 . S
O1893 Cd1894 2.203 . S
Cd1894 O1893 2.203 . S
Cd1894 O1896 2.411 . S
Cd1894 O1897 2.333 . S
Cd1894 O1898 2.352 . S
Cd1894 O1902 2.277 . S
Cd1894 O1903 2.356 . S
C1895 O1900 1.209 . S
C1895 O1902 1.226 . S
O1896 Cd1892 2.273 . S
O1896 Cd1894 2.411 . S
O1896 C1899 1.320 . S
O1897 Cd1894 2.333 . S
O1897 C1899 1.214 . S
O1898 Cd1894 2.352 . S
O1898 C1901 1.258 . S
C1899 O1896 1.320 . S
C1899 O1897 1.214 . S
O1900 Cd1892 2.277 . S
O1900 C1895 1.209 . S
C1901 O1898 1.258 . S
C1901 O1903 1.282 . S
O1902 Cd1894 2.277 . S
O1902 C1895 1.226 . S
O1903 Cd1894 2.356 . S
O1903 C1901 1.282 . S
C1904 O1905 1.306 . S
C1904 O1907 1.160 . S
O1905 C1904 1.306 . S
O1905 Cd1906 2.228 . S
Cd1906 O1905 2.228 . S
Cd1906 O1910 2.273 . S
Cd1906 O1914 2.277 . S
O1907 C1904 1.160 . S
O1907 Cd1908 2.203 . S
Cd1908 O1907 2.203 . S
Cd1908 O1910 2.411 . S
Cd1908 O1911 2.333 . S
Cd1908 O1912 2.352 . S
Cd1908 O1916 2.277 . S
Cd1908 O1917 2.356 . S
C1909 O1914 1.209 . S
C1909 O1916 1.226 . S
O1910 Cd1906 2.273 . S
O1910 Cd1908 2.411 . S
O1910 C1913 1.320 . S
O1911 Cd1908 2.333 . S
O1911 C1913 1.214 . S
O1912 Cd1908 2.352 . S
O1912 C1915 1.258 . S
C1913 O1910 1.320 . S
C1913 O1911 1.214 . S
O1914 Cd1906 2.277 . S
O1914 C1909 1.209 . S
C1915 O1912 1.258 . S
C1915 O1917 1.282 . S
O1916 Cd1908 2.277 . S
O1916 C1909 1.226 . S
O1917 Cd1908 2.356 . S
O1917 C1915 1.282 . S
C1918 O1919 1.306 . S
C1918 O1921 1.160 . S
O1919 C1918 1.306 . S
O1919 Cd1920 2.228 . S
Cd1920 O1919 2.228 . S
Cd1920 O1924 2.273 . S
Cd1920 O1928 2.277 . S
O1921 C1918 1.160 . S
O1921 Cd1922 2.203 . S
Cd1922 O1921 2.203 . S
Cd1922 O1924 2.411 . S
Cd1922 O1925 2.333 . S
Cd1922 O1926 2.352 . S
Cd1922 O1930 2.277 . S
Cd1922 O1931 2.356 . S
C1923 O1928 1.209 . S
C1923 O1930 1.226 . S
O1924 Cd1920 2.273 . S
O1924 Cd1922 2.411 . S
O1924 C1927 1.320 . S
O1925 Cd1922 2.333 . S
O1925 C1927 1.214 . S
O1926 Cd1922 2.352 . S
O1926 C1929 1.258 . S
C1927 O1924 1.320 . S
C1927 O1925 1.214 . S
O1928 Cd1920 2.277 . S
O1928 C1923 1.209 . S
C1929 O1926 1.258 . S
C1929 O1931 1.282 . S
O1930 Cd1922 2.277 . S
O1930 C1923 1.226 . S
O1931 Cd1922 2.356 . S
O1931 C1929 1.282 . S
C1932 O1933 1.306 . S
C1932 O1935 1.160 . S
O1933 C1932 1.306 . S
O1933 Cd1934 2.228 . S
Cd1934 O1933 2.228 . S
Cd1934 O1938 2.273 . S
Cd1934 O1942 2.277 . S
O1935 C1932 1.160 . S
O1935 Cd1936 2.203 . S
Cd1936 O1935 2.203 . S
Cd1936 O1938 2.411 . S
Cd1936 O1939 2.333 . S
Cd1936 O1940 2.352 . S
Cd1936 O1944 2.277 . S
Cd1936 O1945 2.356 . S
C1937 O1942 1.209 . S
C1937 O1944 1.226 . S
O1938 Cd1934 2.273 . S
O1938 Cd1936 2.411 . S
O1938 C1941 1.320 . S
O1939 Cd1936 2.333 . S
O1939 C1941 1.214 . S
O1940 Cd1936 2.352 . S
O1940 C1943 1.258 . S
C1941 O1938 1.320 . S
C1941 O1939 1.214 . S
O1942 Cd1934 2.277 . S
O1942 C1937 1.209 . S
C1943 O1940 1.258 . S
C1943 O1945 1.282 . S
O1944 Cd1936 2.277 . S
O1944 C1937 1.226 . S
O1945 Cd1936 2.356 . S
O1945 C1943 1.282 . S
C1946 O1947 1.306 . S
C1946 O1949 1.160 . S
O1947 C1946 1.306 . S
O1947 Cd1948 2.228 . S
Cd1948 O1947 2.228 . S
Cd1948 O1952 2.273 . S
Cd1948 O1956 2.277 . S
O1949 C1946 1.160 . S
O1949 Cd1950 2.203 . S
Cd1950 O1949 2.203 . S
Cd1950 O1952 2.411 . S
Cd1950 O1953 2.333 . S
Cd1950 O1954 2.352 . S
Cd1950 O1958 2.277 . S
Cd1950 O1959 2.356 . S
C1951 O1956 1.209 . S
C1951 O1958 1.226 . S
O1952 Cd1948 2.273 . S
O1952 Cd1950 2.411 . S
O1952 C1955 1.320 . S
O1953 Cd1950 2.333 . S
O1953 C1955 1.214 . S
O1954 Cd1950 2.352 . S
O1954 C1957 1.258 . S
C1955 O1952 1.320 . S
C1955 O1953 1.214 . S
O1956 Cd1948 2.277 . S
O1956 C1951 1.209 . S
C1957 O1954 1.258 . S
C1957 O1959 1.282 . S
O1958 Cd1950 2.277 . S
O1958 C1951 1.226 . S
O1959 Cd1950 2.356 . S
O1959 C1957 1.282 . S
C1960 O1961 1.306 . S
C1960 O1963 1.160 . S
O1961 C1960 1.306 . S
O1961 Cd1962 2.228 . S
Cd1962 O1961 2.228 . S
Cd1962 O1966 2.273 . S
Cd1962 O1970 2.277 . S
O1963 C1960 1.160 . S
O1963 Cd1964 2.203 . S
Cd1964 O1963 2.203 . S
Cd1964 O1966 2.411 . S
Cd1964 O1967 2.333 . S
Cd1964 O1968 2.352 . S
Cd1964 O1972 2.277 . S
Cd1964 O1973 2.356 . S
C1965 O1970 1.209 . S
C1965 O1972 1.226 . S
O1966 Cd1962 2.273 . S
O1966 Cd1964 2.411 . S
O1966 C1969 1.320 . S
O1967 Cd1964 2.333 . S
O1967 C1969 1.214 . S
O1968 Cd1964 2.352 . S
O1968 C1971 1.258 . S
C1969 O1966 1.320 . S
C1969 O1967 1.214 . S
O1970 Cd1962 2.277 . S
O1970 C1965 1.209 . S
C1971 O1968 1.258 . S
C1971 O1973 1.282 . S
O1972 Cd1964 2.277 . S
O1972 C1965 1.226 . S
O1973 Cd1964 2.356 . S
O1973 C1971 1.282 . S
C1974 O1975 1.306 . S
C1974 O1977 1.160 . S
O1975 C1974 1.306 . S
O1975 Cd1976 2.228 . S
Cd1976 O1975 2.228 . S
Cd1976 O1980 2.273 . S
Cd1976 O1984 2.277 . S
O1977 C1974 1.160 . S
O1977 Cd1978 2.203 . S
Cd1978 O1977 2.203 . S
Cd1978 O1980 2.411 . S
Cd1978 O1981 2.333 . S
Cd1978 O1982 2.352 . S
Cd1978 O1986 2.277 . S
Cd1978 O1987 2.356 . S
C1979 O1984 1.209 . S
C1979 O1986 1.226 . S
O1980 Cd1976 2.273 . S
O1980 Cd1978 2.411 . S
O1980 C1983 1.320 . S
O1981 Cd1978 2.333 . S
O1981 C1983 1.214 . S
O1982 Cd1978 2.352 . S
O1982 C1985 1.258 . S
C1983 O1980 1.320 . S
C1983 O1981 1.214 . S
O1984 Cd1976 2.277 . S
O1984 C1979 1.209 . S
C1985 O1982 1.258 . S
C1985 O1987 1.282 . S
O1986 Cd1978 2.277 . S
O1986 C1979 1.226 . S
O1987 Cd1978 2.356 . S
O1987 C1985 1.282 . S
C1988 O1989 1.306 . S
C1988 O1991 1.160 . S
O1989 C1988 1.306 . S
O1989 Cd1990 2.228 . S
Cd1990 O1989 2.228 . S
Cd1990 O1994 2.273 . S
Cd1990 O1998 2.277 . S
O1991 C1988 1.160 . S
O1991 Cd1992 2.203 . S
Cd1992 O1991 2.203 . S
Cd1992 O1994 2.411 . S
Cd1992 O1995 2.333 . S
Cd1992 O1996 2.352 . S
Cd1992 O2000 2.277 . S
Cd1992 O2001 2.356 . S
C1993 O1998 1.209 . S
C1993 O2000 1.226 . S
O1994 Cd1990 2.273 . S
O1994 Cd1992 2.411 . S
O1994 C1997 1.320 . S
O1995 Cd1992 2.333 . S
O1995 C1997 1.214 . S
O1996 Cd1992 2.352 . S
O1996 C1999 1.258 . S
C1997 O1994 1.320 . S
C1997 O1995 1.214 . S
O1998 Cd1990 2.277 . S
O1998 C1993 1.209 . S
C1999 O1996 1.258 . S
C1999 O2001 1.282 . S
O2000 Cd1992 2.277 . S
O2000 C1993 1.226 . S
O2001 Cd1992 2.356 . S
O2001 C1999 1.282 . S
C2002 O2003 1.306 . S
C2002 O2005 1.160 . S
O2003 C2002 1.306 . S
O2003 Cd2004 2.228 . S
Cd2004 O2003 2.228 . S
Cd2004 O2008 2.273 . S
Cd2004 O2012 2.277 . S
O2005 C2002 1.160 . S
O2005 Cd2006 2.203 . S
Cd2006 O2005 2.203 . S
Cd2006 O2008 2.411 . S
Cd2006 O2009 2.333 . S
Cd2006 O2010 2.352 . S
Cd2006 O2014 2.277 . S
Cd2006 O2015 2.356 . S
C2007 O2012 1.209 . S
C2007 O2014 1.226 . S
O2008 Cd2004 2.273 . S
O2008 Cd2006 2.411 . S
O2008 C2011 1.320 . S
O2009 Cd2006 2.333 . S
O2009 C2011 1.214 . S
O2010 Cd2006 2.352 . S
O2010 C2013 1.258 . S
C2011 O2008 1.320 . S
C2011 O2009 1.214 . S
O2012 Cd2004 2.277 . S
O2012 C2007 1.209 . S
C2013 O2010 1.258 . S
C2013 O2015 1.282 . S
O2014 Cd2006 2.277 . S
O2014 C2007 1.226 . S
O2015 Cd2006 2.356 . S
O2015 C2013 1.282 . S
C2016 O2017 1.306 . S
C2016 O2019 1.160 . S
O2017 C2016 1.306 . S
O2017 Cd2018 2.228 . S
Cd2018 O2017 2.228 . S
Cd2018 O2022 2.273 . S
Cd2018 O2026 2.277 . S
O2019 C2016 1.160 . S
O2019 Cd2020 2.203 . S
Cd2020 O2019 2.203 . S
Cd2020 O2022 2.411 . S
Cd2020 O2023 2.333 . S
Cd2020 O2024 2.352 . S
Cd2020 O2028 2.277 . S
Cd2020 O2029 2.356 . S
C2021 O2026 1.209 . S
C2021 O2028 1.226 . S
O2022 Cd2018 2.273 . S
O2022 Cd2020 2.411 . S
O2022 C2025 1.320 . S
O2023 Cd2020 2.333 . S
O2023 C2025 1.214 . S
O2024 Cd2020 2.352 . S
O2024 C2027 1.258 . S
C2025 O2022 1.320 . S
C2025 O2023 1.214 . S
O2026 Cd2018 2.277 . S
O2026 C2021 1.209 . S
C2027 O2024 1.258 . S
C2027 O2029 1.282 . S
O2028 Cd2020 2.277 . S
O2028 C2021 1.226 . S
O2029 Cd2020 2.356 . S
O2029 C2027 1.282 . S
C2030 O2031 1.306 . S
C2030 O2033 1.160 . S
O2031 C2030 1.306 . S
O2031 Cd2032 2.228 . S
Cd2032 O2031 2.228 . S
Cd2032 O2036 2.273 . S
Cd2032 O2040 2.277 . S
O2033 C2030 1.160 . S
O2033 Cd2034 2.203 . S
Cd2034 O2033 2.203 . S
Cd2034 O2036 2.411 . S
Cd2034 O2037 2.333 . S
Cd2034 O2038 2.352 . S
Cd2034 O2042 2.277 . S
Cd2034 O2043 2.356 . S
C2035 O2040 1.209 . S
C2035 O2042 1.226 . S
O2036 Cd2032 2.273 . S
O2036 Cd2034 2.411 . S
O2036 C2039 1.320 . S
O2037 Cd2034 2.333 . S
O2037 C2039 1.214 . S
O2038 Cd2034 2.352 . S
O2038 C2041 1.258 . S
C2039 O2036 1.320 . S
C2039 O2037 1.214 . S
O2040 Cd2032 2.277 . S
O2040 C2035 1.209 . S
C2041 O2038 1.258 . S
C2041 O2043 1.282 . S
O2042 Cd2034 2.277 . S
O2042 C2035 1.226 . S
O2043 Cd2034 2.356 . S
O2043 C2041 1.282 . S
C2044 O2045 1.306 . S
C2044 O2047 1.160 . S
O2045 C2044 1.306 . S
O2045 Cd2046 2.228 . S
Cd2046 O2045 2.228 . S
Cd2046 O2050 2.273 . S
Cd2046 O2054 2.277 . S
O2047 C2044 1.160 . S
O2047 Cd2048 2.203 . S
Cd2048 O2047 2.203 . S
Cd2048 O2050 2.411 . S
Cd2048 O2051 2.333 . S
Cd2048 O2052 2.352 . S
Cd2048 O2056 2.277 . S
Cd2048 O2057 2.356 . S
C2049 O2054 1.209 . S
C2049 O2056 1.226 . S
O2050 Cd2046 2.273 . S
O2050 Cd2048 2.411 . S
O2050 C2053 1.320 . S
O2051 Cd2048 2.333 . S
O2051 C2053 1.214 . S
O2052 Cd2048 2.352 . S
O2052 C2055 1.258 . S
C2053 O2050 1.320 . S
C2053 O2051 1.214 . S
O2054 Cd2046 2.277 . S
O2054 C2049 1.209 . S
C2055 O2052 1.258 . S
C2055 O2057 1.282 . S
O2056 Cd2048 2.277 . S
O2056 C2049 1.226 . S
O2057 Cd2048 2.356 . S
O2057 C2055 1.282 . S
C2058 O2059 1.306 . S
C2058 O2061 1.160 . S
O2059 C2058 1.306 . S
O2059 Cd2060 2.228 . S
Cd2060 O2059 2.228 . S
Cd2060 O2064 2.273 . S
Cd2060 O2068 2.277 . S
O2061 C2058 1.160 . S
O2061 Cd2062 2.203 . S
Cd2062 O2061 2.203 . S
Cd2062 O2064 2.411 . S
Cd2062 O2065 2.333 . S
Cd2062 O2066 2.352 . S
Cd2062 O2070 2.277 . S
Cd2062 O2071 2.356 . S
C2063 O2068 1.209 . S
C2063 O2070 1.226 . S
O2064 Cd2060 2.273 . S
O2064 Cd2062 2.411 . S
O2064 C2067 1.320 . S
O2065 Cd2062 2.333 . S
O2065 C2067 1.214 . S
O2066 Cd2062 2.352 . S
O2066 C2069 1.258 . S
C2067 O2064 1.320 . S
C2067 O2065 1.214 . S
O2068 Cd2060 2.277 . S
O2068 C2063 1.209 . S
C2069 O2066 1.258 . S
C2069 O2071 1.282 . S
O2070 Cd2062 2.277 . S
O2070 C2063 1.226 . S
O2071 Cd2062 2.356 . S
O2071 C2069 1.282 . S
C2072 O2073 1.306 . S
C2072 O2075 1.160 . S
O2073 C2072 1.306 . S
O2073 Cd2074 2.228 . S
Cd2074 O2073 2.228 . S
Cd2074 O2078 2.273 . S
Cd2074 O2082 2.277 . S
O2075 C2072 1.160 . S
O2075 Cd2076 2.203 . S
Cd2076 O2075 2.203 . S
Cd2076 O2078 2.411 . S
Cd2076 O2079 2.333 . S
Cd2076 O2080 2.352 . S
Cd2076 O2084 2.277 . S
Cd2076 O2085 2.356 . S
C2077 O2082 1.209 . S
C2077 O2084 1.226 . S
O2078 Cd2074 2.273 . S
O2078 Cd2076 2.411 . S
O2078 C2081 1.320 . S
O2079 Cd2076 2.333 . S
O2079 C2081 1.214 . S
O2080 Cd2076 2.352 . S
O2080 C2083 1.258 . S
C2081 O2078 1.320 . S
C2081 O2079 1.214 . S
O2082 Cd2074 2.277 . S
O2082 C2077 1.209 . S
C2083 O2080 1.258 . S
C2083 O2085 1.282 . S
O2084 Cd2076 2.277 . S
O2084 C2077 1.226 . S
O2085 Cd2076 2.356 . S
O2085 C2083 1.282 . S
C2086 O2087 1.306 . S
C2086 O2089 1.160 . S
O2087 C2086 1.306 . S
O2087 Cd2088 2.228 . S
Cd2088 O2087 2.228 . S
Cd2088 O2092 2.273 . S
Cd2088 O2096 2.277 . S
O2089 C2086 1.160 . S
O2089 Cd2090 2.203 . S
Cd2090 O2089 2.203 . S
Cd2090 O2092 2.411 . S
Cd2090 O2093 2.333 . S
Cd2090 O2094 2.352 . S
Cd2090 O2098 2.277 . S
Cd2090 O2099 2.356 . S
C2091 O2096 1.209 . S
C2091 O2098 1.226 . S
O2092 Cd2088 2.273 . S
O2092 Cd2090 2.411 . S
O2092 C2095 1.320 . S
O2093 Cd2090 2.333 . S
O2093 C2095 1.214 . S
O2094 Cd2090 2.352 . S
O2094 C2097 1.258 . S
C2095 O2092 1.320 . S
C2095 O2093 1.214 . S
O2096 Cd2088 2.277 . S
O2096 C2091 1.209 . S
C2097 O2094 1.258 . S
C2097 O2099 1.282 . S
O2098 Cd2090 2.277 . S
O2098 C2091 1.226 . S
O2099 Cd2090 2.356 . S
O2099 C2097 1.282 . S
C2100 O2101 1.306 . S
C2100 O2103 1.160 . S
O2101 C2100 1.306 . S
O2101 Cd2102 2.228 . S
Cd2102 O2101 2.228 . S
Cd2102 O2106 2.273 . S
Cd2102 O2110 2.277 . S
O2103 C2100 1.160 . S
O2103 Cd2104 2.203 . S
Cd2104 O2103 2.203 . S
Cd2104 O2106 2.411 . S
Cd2104 O2107 2.333 . S
Cd2104 O2108 2.352 . S
Cd2104 O2112 2.277 . S
Cd2104 O2113 2.356 . S
C2105 O2110 1.209 . S
C2105 O2112 1.226 . S
O2106 Cd2102 2.273 . S
O2106 Cd2104 2.411 . S
O2106 C2109 1.320 . S
O2107 Cd2104 2.333 . S
O2107 C2109 1.214 . S
O2108 Cd2104 2.352 . S
O2108 C2111 1.258 . S
C2109 O2106 1.320 . S
C2109 O2107 1.214 . S
O2110 Cd2102 2.277 . S
O2110 C2105 1.209 . S
C2111 O2108 1.258 . S
C2111 O2113 1.282 . S
O2112 Cd2104 2.277 . S
O2112 C2105 1.226 . S
O2113 Cd2104 2.356 . S
O2113 C2111 1.282 . S
C2114 O2115 1.306 . S
C2114 O2117 1.160 . S
O2115 C2114 1.306 . S
O2115 Cd2116 2.228 . S
Cd2116 O2115 2.228 . S
Cd2116 O2120 2.273 . S
Cd2116 O2124 2.277 . S
O2117 C2114 1.160 . S
O2117 Cd2118 2.203 . S
Cd2118 O2117 2.203 . S
Cd2118 O2120 2.411 . S
Cd2118 O2121 2.333 . S
Cd2118 O2122 2.352 . S
Cd2118 O2126 2.277 . S
Cd2118 O2127 2.356 . S
C2119 O2124 1.209 . S
C2119 O2126 1.226 . S
O2120 Cd2116 2.273 . S
O2120 Cd2118 2.411 . S
O2120 C2123 1.320 . S
O2121 Cd2118 2.333 . S
O2121 C2123 1.214 . S
O2122 Cd2118 2.352 . S
O2122 C2125 1.258 . S
C2123 O2120 1.320 . S
C2123 O2121 1.214 . S
O2124 Cd2116 2.277 . S
O2124 C2119 1.209 . S
C2125 O2122 1.258 . S
C2125 O2127 1.282 . S
O2126 Cd2118 2.277 . S
O2126 C2119 1.226 . S
O2127 Cd2118 2.356 . S
O2127 C2125 1.282 . S
C2128 O2129 1.306 . S
C2128 O2131 1.160 . S
O2129 C2128 1.306 . S
O2129 Cd2130 2.228 . S
Cd2130 O2129 2.228 . S
Cd2130 O2134 2.273 . S
Cd2130 O2138 2.277 . S
O2131 C2128 1.160 . S
O2131 Cd2132 2.203 . S
Cd2132 O2131 2.203 . S
Cd2132 O2134 2.411 . S
Cd2132 O2135 2.333 . S
Cd2132 O2136 2.352 . S
Cd2132 O2140 2.277 . S
Cd2132 O2141 2.356 . S
C2133 O2138 1.209 . S
C2133 O2140 1.226 . S
O2134 Cd2130 2.273 . S
O2134 Cd2132 2.411 . S
O2134 C2137 1.320 . S
O2135 Cd2132 2.333 . S
O2135 C2137 1.214 . S
O2136 Cd2132 2.352 . S
O2136 C2139 1.258 . S
C2137 O2134 1.320 . S
C2137 O2135 1.214 . S
O2138 Cd2130 2.277 . S
O2138 C2133 1.209 . S
C2139 O2136 1.258 . S
C2139 O2141 1.282 . S
O2140 Cd2132 2.277 . S
O2140 C2133 1.226 . S
O2141 Cd2132 2.356 . S
O2141 C2139 1.282 . S
C2142 O2143 1.306 . S
C2142 O2145 1.160 . S
O2143 C2142 1.306 . S
O2143 Cd2144 2.228 . S
Cd2144 O2143 2.228 . S
Cd2144 O2148 2.273 . S
Cd2144 O2152 2.277 . S
O2145 C2142 1.160 . S
O2145 Cd2146 2.203 . S
Cd2146 O2145 2.203 . S
Cd2146 O2148 2.411 . S
Cd2146 O2149 2.333 . S
Cd2146 O2150 2.352 . S
Cd2146 O2154 2.277 . S
Cd2146 O2155 2.356 . S
C2147 O2152 1.209 . S
C2147 O2154 1.226 . S
O2148 Cd2144 2.273 . S
O2148 Cd2146 2.411 . S
O2148 C2151 1.320 . S
O2149 Cd2146 2.333 . S
O2149 C2151 1.214 . S
O2150 Cd2146 2.352 . S
O2150 C2153 1.258 . S
C2151 O2148 1.320 . S
C2151 O2149 1.214 . S
O2152 Cd2144 2.277 . S
O2152 C2147 1.209 . S
C2153 O2150 1.258 . S
C2153 O2155 1.282 . S
O2154 Cd2146 2.277 . S
O2154 C2147 1.226 . S
O2155 Cd2146 2.356 . S
O2155 C2153 1.282 . S
C2156 O2157 1.306 . S
C2156 O2159 1.160 . S
O2157 C2156 1.306 . S
O2157 Cd2158 2.228 . S
Cd2158 O2157 2.228 . S
Cd2158 O2162 2.273 . S
Cd2158 O2166 2.277 . S
O2159 C2156 1.160 . S
O2159 Cd2160 2.203 . S
Cd2160 O2159 2.203 . S
Cd2160 O2162 2.411 . S
Cd2160 O2163 2.333 . S
Cd2160 O2164 2.352 . S
Cd2160 O2168 2.277 . S
Cd2160 O2169 2.356 . S
C2161 O2166 1.209 . S
C2161 O2168 1.226 . S
O2162 Cd2158 2.273 . S
O2162 Cd2160 2.411 . S
O2162 C2165 1.320 . S
O2163 Cd2160 2.333 . S
O2163 C2165 1.214 . S
O2164 Cd2160 2.352 . S
O2164 C2167 1.258 . S
C2165 O2162 1.320 . S
C2165 O2163 1.214 . S
O2166 Cd2158 2.277 . S
O2166 C2161 1.209 . S
C2167 O2164 1.258 . S
C2167 O2169 1.282 . S
O2168 Cd2160 2.277 . S
O2168 C2161 1.226 . S
O2169 Cd2160 2.356 . S
O2169 C2167 1.282 . S
C2170 O2171 1.306 . S
C2170 O2173 1.160 . S
O2171 C2170 1.306 . S
O2171 Cd2172 2.228 . S
Cd2172 O2171 2.228 . S
Cd2172 O2176 2.273 . S
Cd2172 O2180 2.277 . S
O2173 C2170 1.160 . S
O2173 Cd2174 2.203 . S
Cd2174 O2173 2.203 . S
Cd2174 O2176 2.411 . S
Cd2174 O2177 2.333 . S
Cd2174 O2178 2.352 . S
Cd2174 O2182 2.277 . S
Cd2174 O2183 2.356 . S
C2175 O2180 1.209 . S
C2175 O2182 1.226 . S
O2176 Cd2172 2.273 . S
O2176 Cd2174 2.411 . S
O2176 C2179 1.320 . S
O2177 Cd2174 2.333 . S
O2177 C2179 1.214 . S
O2178 Cd2174 2.352 . S
O2178 C2181 1.258 . S
C2179 O2176 1.320 . S
C2179 O2177 1.214 . S
O2180 Cd2172 2.277 . S
O2180 C2175 1.209 . S
C2181 O2178 1.258 . S
C2181 O2183 1.282 . S
O2182 Cd2174 2.277 . S
O2182 C2175 1.226 . S
O2183 Cd2174 2.356 . S
O2183 C2181 1.282 . S
C2184 O2185 1.306 . S
C2184 O2187 1.160 . S
O2185 C2184 1.306 . S
O2185 Cd2186 2.228 . S
Cd2186 O2185 2.228 . S
Cd2186 O2190 2.273 . S
Cd2186 O2194 2.277 . S
O2187 C2184 1.160 . S
O2187 Cd2188 2.203 . S
Cd2188 O2187 2.203 . S
Cd2188 O2190 2.411 . S
Cd2188 O2191 2.333 . S
Cd2188 O2192 2.352 . S
Cd2188 O2196 2.277 . S
Cd2188 O2197 2.356 . S
C2189 O2194 1.209 . S
C2189 O2196 1.226 . S
O2190 Cd2186 2.273 . S
O2190 Cd2188 2.411 . S
O2190 C2193 1.320 . S
O2191 Cd2188 2.333 . S
O2191 C2193 1.214 . S
O2192 Cd2188 2.352 . S
O2192 C2195 1.258 . S
C2193 O2190 1.320 . S
C2193 O2191 1.214 . S
O2194 Cd2186 2.277 . S
O2194 C2189 1.209 . S
C2195 O2192 1.258 . S
C2195 O2197 1.282 . S
O2196 Cd2188 2.277 . S
O2196 C2189 1.226 . S
O2197 Cd2188 2.356 . S
O2197 C2195 1.282 . S
C2198 O2199 1.306 . S
C2198 O2201 1.160 . S
O2199 C2198 1.306 . S
O2199 Cd2200 2.228 . S
Cd2200 O2199 2.228 . S
Cd2200 O2204 2.273 . S
Cd2200 O2208 2.277 . S
O2201 C2198 1.160 . S
O2201 Cd2202 2.203 . S
Cd2202 O2201 2.203 . S
Cd2202 O2204 2.411 . S
Cd2202 O2205 2.333 . S
Cd2202 O2206 2.352 . S
Cd2202 O2210 2.277 . S
Cd2202 O2211 2.356 . S
C2203 O2208 1.209 . S
C2203 O2210 1.226 . S
O2204 Cd2200 2.273 . S
O2204 Cd2202 2.411 . S
O2204 C2207 1.320 . S
O2205 Cd2202 2.333 . S
O2205 C2207 1.214 . S
O2206 Cd2202 2.352 . S
O2206 C2209 1.258 . S
C2207 O2204 1.320 . S
C2207 O2205 1.214 . S
O2208 Cd2200 2.277 . S
O2208 C2203 1.209 . S
C2209 O2206 1.258 . S
C2209 O2211 1.282 . S
O2210 Cd2202 2.277 . S
O2210 C2203 1.226 . S
O2211 Cd2202 2.356 . S
O2211 C2209 1.282 . S
C2212 O2213 1.306 . S
C2212 O2215 1.160 . S
O2213 C2212 1.306 . S
O2213 Cd2214 2.228 . S
Cd2214 O2213 2.228 . S
Cd2214 O2218 2.273 . S
Cd2214 O2222 2.277 . S
O2215 C2212 1.160 . S
O2215 Cd2216 2.203 . S
Cd2216 O2215 2.203 . S
Cd2216 O2218 2.411 . S
Cd2216 O2219 2.333 . S
Cd2216 O2220 2.352 . S
Cd2216 O2224 2.277 . S
Cd2216 O2225 2.356 . S
C2217 O2222 1.209 . S
C2217 O2224 1.226 . S
O2218 Cd2214 2.273 . S
O2218 Cd2216 2.411 . S
O2218 C2221 1.320 . S
O2219 Cd2216 2.333 . S
O2219 C2221 1.214 . S
O2220 Cd2216 2.352 . S
O2220 C2223 1.258 . S
C2221 O2218 1.320 . S
C2221 O2219 1.214 . S
O2222 Cd2214 2.277 . S
O2222 C2217 1.209 . S
C2223 O2220 1.258 . S
C2223 O2225 1.282 . S
O2224 Cd2216 2.277 . S
O2224 C2217 1.226 . S
O2225 Cd2216 2.356 . S
O2225 C2223 1.282 . S
C2226 O2227 1.306 . S
C2226 O2229 1.160 . S
O2227 C2226 1.306 . S
O2227 Cd2228 2.228 . S
Cd2228 O2227 2.228 . S
Cd2228 O2232 2.273 . S
Cd2228 O2236 2.277 . S
O2229 C2226 1.160 . S
O2229 Cd2230 2.203 . S
Cd2230 O2229 2.203 . S
Cd2230 O2232 2.411 . S
Cd2230 O2233 2.333 . S
Cd2230 O2234 2.352 . S
Cd2230 O2238 2.277 . S
Cd2230 O2239 2.356 . S
C2231 O2236 1.209 . S
C2231 O2238 1.226 . S
O2232 Cd2228 2.273 . S
O2232 Cd2230 2.411 . S
O2232 C2235 1.320 . S
O2233 Cd2230 2.333 . S
O2233 C2235 1.214 . S
O2234 Cd2230 2.352 . S
O2234 C2237 1.258 . S
C2235 O2232 1.320 . S
C2235 O2233 1.214 . S
O2236 Cd2228 2.277 . S
O2236 C2231 1.209 . S
C2237 O2234 1.258 . S
C2237 O2239 1.282 . S
O2238 Cd2230 2.277 . S
O2238 C2231 1.226 . S
O2239 Cd2230 2.356 . S
O2239 C2237 1.282 . S
C2240 O2241 1.306 . S
C2240 O2243 1.160 . S
O2241 C2240 1.306 . S
O2241 Cd2242 2.228 . S
Cd2242 O2241 2.228 . S
Cd2242 O2246 2.273 . S
Cd2242 O2250 2.277 . S
O2243 C2240 1.160 . S
O2243 Cd2244 2.203 . S
Cd2244 O2243 2.203 . S
Cd2244 O2246 2.411 . S
Cd2244 O2247 2.333 . S
Cd2244 O2248 2.352 . S
Cd2244 O2252 2.277 . S
Cd2244 O2253 2.356 . S
C2245 O2250 1.209 . S
C2245 O2252 1.226 . S
O2246 Cd2242 2.273 . S
O2246 Cd2244 2.411 . S
O2246 C2249 1.320 . S
O2247 Cd2244 2.333 . S
O2247 C2249 1.214 . S
O2248 Cd2244 2.352 . S
O2248 C2251 1.258 . S
C2249 O2246 1.320 . S
C2249 O2247 1.214 . S
O2250 Cd2242 2.277 . S
O2250 C2245 1.209 . S
C2251 O2248 1.258 . S
C2251 O2253 1.282 . S
O2252 Cd2244 2.277 . S
O2252 C2245 1.226 . S
O2253 Cd2244 2.356 . S
O2253 C2251 1.282 . S
C2254 O2255 1.306 . S
C2254 O2257 1.160 . S
O2255 C2254 1.306 . S
O2255 Cd2256 2.228 . S
Cd2256 O2255 2.228 . S
Cd2256 O2260 2.273 . S
Cd2256 O2264 2.277 . S
O2257 C2254 1.160 . S
O2257 Cd2258 2.203 . S
Cd2258 O2257 2.203 . S
Cd2258 O2260 2.411 . S
Cd2258 O2261 2.333 . S
Cd2258 O2262 2.352 . S
Cd2258 O2266 2.277 . S
Cd2258 O2267 2.356 . S
C2259 O2264 1.209 . S
C2259 O2266 1.226 . S
O2260 Cd2256 2.273 . S
O2260 Cd2258 2.411 . S
O2260 C2263 1.320 . S
O2261 Cd2258 2.333 . S
O2261 C2263 1.214 . S
O2262 Cd2258 2.352 . S
O2262 C2265 1.258 . S
C2263 O2260 1.320 . S
C2263 O2261 1.214 . S
O2264 Cd2256 2.277 . S
O2264 C2259 1.209 . S
C2265 O2262 1.258 . S
C2265 O2267 1.282 . S
O2266 Cd2258 2.277 . S
O2266 C2259 1.226 . S
O2267 Cd2258 2.356 . S
O2267 C2265 1.282 . S
C2268 O2269 1.306 . S
C2268 O2271 1.160 . S
O2269 C2268 1.306 . S
O2269 Cd2270 2.228 . S
Cd2270 O2269 2.228 . S
Cd2270 O2274 2.273 . S
Cd2270 O2278 2.277 . S
O2271 C2268 1.160 . S
O2271 Cd2272 2.203 . S
Cd2272 O2271 2.203 . S
Cd2272 O2274 2.411 . S
Cd2272 O2275 2.333 . S
Cd2272 O2276 2.352 . S
Cd2272 O2280 2.277 . S
Cd2272 O2281 2.356 . S
C2273 O2278 1.209 . S
C2273 O2280 1.226 . S
O2274 Cd2270 2.273 . S
O2274 Cd2272 2.411 . S
O2274 C2277 1.320 . S
O2275 Cd2272 2.333 . S
O2275 C2277 1.214 . S
O2276 Cd2272 2.352 . S
O2276 C2279 1.258 . S
C2277 O2274 1.320 . S
C2277 O2275 1.214 . S
O2278 Cd2270 2.277 . S
O2278 C2273 1.209 . S
C2279 O2276 1.258 . S
C2279 O2281 1.282 . S
O2280 Cd2272 2.277 . S
O2280 C2273 1.226 . S
O2281 Cd2272 2.356 . S
O2281 C2279 1.282 . S
C2282 O2283 1.306 . S
C2282 O2285 1.160 . S
O2283 C2282 1.306 . S
O2283 Cd2284 2.228 . S
Cd2284 O2283 2.228 . S
Cd2284 O2288 2.273 . S
Cd2284 O2292 2.277 . S
O2285 C2282 1.160 . S
O2285 Cd2286 2.203 . S
Cd2286 O2285 2.203 . S
Cd2286 O2288 2.411 . S
Cd2286 O2289 2.333 . S
Cd2286 O2290 2.352 . S
Cd2286 O2294 2.277 . S
Cd2286 O2295 2.356 . S
C2287 O2292 1.209 . S
C2287 O2294 1.226 . S
O2288 Cd2284 2.273 . S
O2288 Cd2286 2.411 . S
O2288 C2291 1.320 . S
O2289 Cd2286 2.333 . S
O2289 C2291 1.214 . S
O2290 Cd2286 2.352 . S
O2290 C2293 1.258 . S
C2291 O2288 1.320 . S
C2291 O2289 1.214 . S
O2292 Cd2284 2.277 . S
O2292 C2287 1.209 . S
C2293 O2290 1.258 . S
C2293 O2295 1.282 . S
O2294 Cd2286 2.277 . S
O2294 C2287 1.226 . S
O2295 Cd2286 2.356 . S
O2295 C2293 1.282 . S
C2296 O2297 1.306 . S
C2296 O2299 1.160 . S
O2297 C2296 1.306 . S
O2297 Cd2298 2.228 . S
Cd2298 O2297 2.228 . S
Cd2298 O2302 2.273 . S
Cd2298 O2306 2.277 . S
O2299 C2296 1.160 . S
O2299 Cd2300 2.203 . S
Cd2300 O2299 2.203 . S
Cd2300 O2302 2.411 . S
Cd2300 O2303 2.333 . S
Cd2300 O2304 2.352 . S
Cd2300 O2308 2.277 . S
Cd2300 O2309 2.356 . S
C2301 O2306 1.209 . S
C2301 O2308 1.226 . S
O2302 Cd2298 2.273 . S
O2302 Cd2300 2.411 . S
O2302 C2305 1.320 . S
O2303 Cd2300 2.333 . S
O2303 C2305 1.214 . S
O2304 Cd2300 2.352 . S
O2304 C2307 1.258 . S
C2305 O2302 1.320 . S
C2305 O2303 1.214 . S
O2306 Cd2298 2.277 . S
O2306 C2301 1.209 . S
C2307 O2304 1.258 . S
C2307 O2309 1.282 . S
O2308 Cd2300 2.277 . S
O2308 C2301 1.226 . S
O2309 Cd2300 2.356 . S
O2309 C2307 1.282 . S
C2310 O2311 1.306 . S
C2310 O2313 1.160 . S
O2311 C2310 1.306 . S
O2311 Cd2312 2.228 . S
Cd2312 O2311 2.228 . S
Cd2312 O2316 2.273 . S
Cd2312 O2320 2.277 . S
O2313 C2310 1.160 . S
O2313 Cd2314 2.203 . S
Cd2314 O2313 2.203 . S
Cd2314 O2316 2.411 . S
Cd2314 O2317 2.333 . S
Cd2314 O2318 2.352 . S
Cd2314 O2322 2.277 . S
Cd2314 O2323 2.356 . S
C2315 O2320 1.209 . S
C2315 O2322 1.226 . S
O2316 Cd2312 2.273 . S
O2316 Cd2314 2.411 . S
O2316 C2319 1.320 . S
O2317 Cd2314 2.333 . S
O2317 C2319 1.214 . S
O2318 Cd2314 2.352 . S
O2318 C2321 1.258 . S
C2319 O2316 1.320 . S
C2319 O2317 1.214 . S
O2320 Cd2312 2.277 . S
O2320 C2315 1.209 . S
C2321 O2318 1.258 . S
C2321 O2323 1.282 . S
O2322 Cd2314 2.277 . S
O2322 C2315 1.226 . S
O2323 Cd2314 2.356 . S
O2323 C2321 1.282 . S
C2324 O2325 1.306 . S
C2324 O2327 1.160 . S
O2325 C2324 1.306 . S
O2325 Cd2326 2.228 . S
Cd2326 O2325 2.228 . S
Cd2326 O2330 2.273 . S
Cd2326 O2334 2.277 . S
O2327 C2324 1.160 . S
O2327 Cd2328 2.203 . S
Cd2328 O2327 2.203 . S
Cd2328 O2330 2.411 . S
Cd2328 O2331 2.333 . S
Cd2328 O2332 2.352 . S
Cd2328 O2336 2.277 . S
Cd2328 O2337 2.356 . S
C2329 O2334 1.209 . S
C2329 O2336 1.226 . S
O2330 Cd2326 2.273 . S
O2330 Cd2328 2.411 . S
O2330 C2333 1.320 . S
O2331 Cd2328 2.333 . S
O2331 C2333 1.214 . S
O2332 Cd2328 2.352 . S
O2332 C2335 1.258 . S
C2333 O2330 1.320 . S
C2333 O2331 1.214 . S
O2334 Cd2326 2.277 . S
O2334 C2329 1.209 . S
C2335 O2332 1.258 . S
C2335 O2337 1.282 . S
O2336 Cd2328 2.277 . S
O2336 C2329 1.226 . S
O2337 Cd2328 2.356 . S
O2337 C2335 1.282 . S
C2338 O2339 1.306 . S
C2338 O2341 1.160 . S
O2339 C2338 1.306 . S
O2339 Cd2340 2.228 . S
Cd2340 O2339 2.228 . S
Cd2340 O2344 2.273 . S
Cd2340 O2348 2.277 . S
O2341 C2338 1.160 . S
O2341 Cd2342 2.203 . S
Cd2342 O2341 2.203 . S
Cd2342 O2344 2.411 . S
Cd2342 O2345 2.333 . S
Cd2342 O2346 2.352 . S
Cd2342 O2350 2.277 . S
Cd2342 O2351 2.356 . S
C2343 O2348 1.209 . S
C2343 O2350 1.226 . S
O2344 Cd2340 2.273 . S
O2344 Cd2342 2.411 . S
O2344 C2347 1.320 . S
O2345 Cd2342 2.333 . S
O2345 C2347 1.214 . S
O2346 Cd2342 2.352 . S
O2346 C2349 1.258 . S
C2347 O2344 1.320 . S
C2347 O2345 1.214 . S
O2348 Cd2340 2.277 . S
O2348 C2343 1.209 . S
C2349 O2346 1.258 . S
C2349 O2351 1.282 . S
O2350 Cd2342 2.277 . S
O2350 C2343 1.226 . S
O2351 Cd2342 2.356 . S
O2351 C2349 1.282 . S
C2352 O2353 1.306 . S
C2352 O2355 1.160 . S
O2353 C2352 1.306 . S
O2353 Cd2354 2.228 . S
Cd2354 O2353 2.228 . S
Cd2354 O2358 2.273 . S
Cd2354 O2362 2.277 . S
O2355 C2352 1.160 . S
O2355 Cd2356 2.203 . S
Cd2356 O2355 2.203 . S
Cd2356 O2358 2.411 . S
Cd2356 O2359 2.333 . S
Cd2356 O2360 2.352 . S
Cd2356 O2364 2.277 . S
Cd2356 O2365 2.356 . S
C2357 O2362 1.209 . S
C2357 O2364 1.226 . S
O2358 Cd2354 2.273 . S
O2358 Cd2356 2.411 . S
O2358 C2361 1.320 . S
O2359 Cd2356 2.333 . S
O2359 C2361 1.214 . S
O2360 Cd2356 2.352 . S
O2360 C2363 1.258 . S
C2361 O2358 1.320 . S
C2361 O2359 1.214 . S
O2362 Cd2354 2.277 . S
O2362 C2357 1.209 . S
C2363 O2360 1.258 . S
C2363 O2365 1.282 . S
O2364 Cd2356 2.277 . S
O2364 C2357 1.226 . S
O2365 Cd2356 2.356 . S
O2365 C2363 1.282 . S
C2366 O2367 1.306 . S
C2366 O2369 1.160 . S
O2367 C2366 1.306 . S
O2367 Cd2368 2.228 . S
Cd2368 O2367 2.228 . S
Cd2368 O2372 2.273 . S
Cd2368 O2376 2.277 . S
O2369 C2366 1.160 . S
O2369 Cd2370 2.203 . S
Cd2370 O2369 2.203 . S
Cd2370 O2372 2.411 . S
Cd2370 O2373 2.333 . S
Cd2370 O2374 2.352 . S
Cd2370 O2378 2.277 . S
Cd2370 O2379 2.356 . S
C2371 O2376 1.209 . S
C2371 O2378 1.226 . S
O2372 Cd2368 2.273 . S
O2372 Cd2370 2.411 . S
O2372 C2375 1.320 . S
O2373 Cd2370 2.333 . S
O2373 C2375 1.214 . S
O2374 Cd2370 2.352 . S
O2374 C2377 1.258 . S
C2375 O2372 1.320 . S
C2375 O2373 1.214 . S
O2376 Cd2368 2.277 . S
O2376 C2371 1.209 . S
C2377 O2374 1.258 . S
C2377 O2379 1.282 . S
O2378 Cd2370 2.277 . S
O2378 C2371 1.226 . S
O2379 Cd2370 2.356 . S
O2379 C2377 1.282 . S
C2380 O2381 1.306 . S
C2380 O2383 1.160 . S
O2381 C2380 1.306 . S
O2381 Cd2382 2.228 . S
Cd2382 O2381 2.228 . S
Cd2382 O2386 2.273 . S
Cd2382 O2390 2.277 . S
O2383 C2380 1.160 . S
O2383 Cd2384 2.203 . S
Cd2384 O2383 2.203 . S
Cd2384 O2386 2.411 . S
Cd2384 O2387 2.333 . S
Cd2384 O2388 2.352 . S
Cd2384 O2392 2.277 . S
Cd2384 O2393 2.356 . S
C2385 O2390 1.209 . S
C2385 O2392 1.226 . S
O2386 Cd2382 2.273 . S
O2386 Cd2384 2.411 . S
O2386 C2389 1.320 . S
O2387 Cd2384 2.333 . S
O2387 C2389 1.214 . S
O2388 Cd2384 2.352 . S
O2388 C2391 1.258 . S
C2389 O2386 1.320 . S
C2389 O2387 1.214 . S
O2390 Cd2382 2.277 . S
O2390 C2385 1.209 . S
C2391 O2388 1.258 . S
C2391 O2393 1.282 . S
O2392 Cd2384 2.277 . S
O2392 C2385 1.226 . S
O2393 Cd2384 2.356 . S
O2393 C2391 1.282 . S
C2394 O2395 1.306 . S
C2394 O2397 1.160 . S
O2395 C2394 1.306 . S
O2395 Cd2396 2.228 . S
Cd2396 O2395 2.228 . S
Cd2396 O2400 2.273 . S
Cd2396 O2404 2.277 . S
O2397 C2394 1.160 . S
O2397 Cd2398 2.203 . S
Cd2398 O2397 2.203 . S
Cd2398 O2400 2.411 . S
Cd2398 O2401 2.333 . S
Cd2398 O2402 2.352 . S
Cd2398 O2406 2.277 . S
Cd2398 O2407 2.356 . S
C2399 O2404 1.209 . S
C2399 O2406 1.226 . S
O2400 Cd2396 2.273 . S
O2400 Cd2398 2.411 . S
O2400 C2403 1.320 . S
O2401 Cd2398 2.333 . S
O2401 C2403 1.214 . S
O2402 Cd2398 2.352 . S
O2402 C2405 1.258 . S
C2403 O2400 1.320 . S
C2403 O2401 1.214 . S
O2404 Cd2396 2.277 . S
O2404 C2399 1.209 . S
C2405 O2402 1.258 . S
C2405 O2407 1.282 . S
O2406 Cd2398 2.277 . S
O2406 C2399 1.226 . S
O2407 Cd2398 2.356 . S
O2407 C2405 1.282 . S
C2408 O2409 1.306 . S
C2408 O2411 1.160 . S
O2409 C2408 1.306 . S
O2409 Cd2410 2.228 . S
Cd2410 O2409 2.228 . S
Cd2410 O2414 2.273 . S
Cd2410 O2418 2.277 . S
O2411 C2408 1.160 . S
O2411 Cd2412 2.203 . S
Cd2412 O2411 2.203 . S
Cd2412 O2414 2.411 . S
Cd2412 O2415 2.333 . S
Cd2412 O2416 2.352 . S
Cd2412 O2420 2.277 . S
Cd2412 O2421 2.356 . S
C2413 O2418 1.209 . S
C2413 O2420 1.226 . S
O2414 Cd2410 2.273 . S
O2414 Cd2412 2.411 . S
O2414 C2417 1.320 . S
O2415 Cd2412 2.333 . S
O2415 C2417 1.214 . S
O2416 Cd2412 2.352 . S
O2416 C2419 1.258 . S
C2417 O2414 1.320 . S
C2417 O2415 1.214 . S
O2418 Cd2410 2.277 . S
O2418 C2413 1.209 . S
C2419 O2416 1.258 . S
C2419 O2421 1.282 . S
O2420 Cd2412 2.277 . S
O2420 C2413 1.226 . S
O2421 Cd2412 2.356 . S
O2421 C2419 1.282 . S
C2422 O2423 1.306 . S
C2422 O2425 1.160 . S
O2423 C2422 1.306 . S
O2423 Cd2424 2.228 . S
Cd2424 O2423 2.228 . S
Cd2424 O2428 2.273 . S
Cd2424 O2432 2.277 . S
O2425 C2422 1.160 . S
O2425 Cd2426 2.203 . S
Cd2426 O2425 2.203 . S
Cd2426 O2428 2.411 . S
Cd2426 O2429 2.333 . S
Cd2426 O2430 2.352 . S
Cd2426 O2434 2.277 . S
Cd2426 O2435 2.356 . S
C2427 O2432 1.209 . S
C2427 O2434 1.226 . S
O2428 Cd2424 2.273 . S
O2428 Cd2426 2.411 . S
O2428 C2431 1.320 . S
O2429 Cd2426 2.333 . S
O2429 C2431 1.214 . S
O2430 Cd2426 2.352 . S
O2430 C2433 1.258 . S
C2431 O2428 1.320 . S
C2431 O2429 1.214 . S
O2432 Cd2424 2.277 . S
O2432 C2427 1.209 . S
C2433 O2430 1.258 . S
C2433 O2435 1.282 . S
O2434 Cd2426 2.277 . S
O2434 C2427 1.226 . S
O2435 Cd2426 2.356 . S
O2435 C2433 1.282 . S
C2436 O2437 1.306 . S
C2436 O2439 1.160 . S
O2437 C2436 1.306 . S
O2437 Cd2438 2.228 . S
Cd2438 O2437 2.228 . S
Cd2438 O2442 2.273 . S
Cd2438 O2446 2.277 . S
O2439 C2436 1.160 . S
O2439 Cd2440 2.203 . S
Cd2440 O2439 2.203 . S
Cd2440 O2442 2.411 . S
Cd2440 O2443 2.333 . S
Cd2440 O2444 2.352 . S
Cd2440 O2448 2.277 . S
Cd2440 O2449 2.356 . S
C2441 O2446 1.209 . S
C2441 O2448 1.226 . S
O2442 Cd2438 2.273 . S
O2442 Cd2440 2.411 . S
O2442 C2445 1.320 . S
O2443 Cd2440 2.333 . S
O2443 C2445 1.214 . S
O2444 Cd2440 2.352 . S
O2444 C2447 1.258 . S
C2445 O2442 1.320 . S
C2445 O2443 1.214 . S
O2446 Cd2438 2.277 . S
O2446 C2441 1.209 . S
C2447 O2444 1.258 . S
C2447 O2449 1.282 . S
O2448 Cd2440 2.277 . S
O2448 C2441 1.226 . S
O2449 Cd2440 2.356 . S
O2449 C2447 1.282 . S
C2450 O2451 1.306 . S
C2450 O2453 1.160 . S
O2451 C2450 1.306 . S
O2451 Cd2452 2.228 . S
Cd2452 O2451 2.228 . S
Cd2452 O2456 2.273 . S
Cd2452 O2460 2.277 . S
O2453 C2450 1.160 . S
O2453 Cd2454 2.203 . S
Cd2454 O2453 2.203 . S
Cd2454 O2456 2.411 . S
Cd2454 O2457 2.333 . S
Cd2454 O2458 2.352 . S
Cd2454 O2462 2.277 . S
Cd2454 O2463 2.356 . S
C2455 O2460 1.209 . S
C2455 O2462 1.226 . S
O2456 Cd2452 2.273 . S
O2456 Cd2454 2.411 . S
O2456 C2459 1.320 . S
O2457 Cd2454 2.333 . S
O2457 C2459 1.214 . S
O2458 Cd2454 2.352 . S
O2458 C2461 1.258 . S
C2459 O2456 1.320 . S
C2459 O2457 1.214 . S
O2460 Cd2452 2.277 . S
O2460 C2455 1.209 . S
C2461 O2458 1.258 . S
C2461 O2463 1.282 . S
O2462 Cd2454 2.277 . S
O2462 C2455 1.226 . S
O2463 Cd2454 2.356 . S
O2463 C2461 1.282 . S
C2464 O2465 1.306 . S
C2464 O2467 1.160 . S
O2465 C2464 1.306 . S
O2465 Cd2466 2.228 . S
Cd2466 O2465 2.228 . S
Cd2466 O2470 2.273 . S
Cd2466 O2474 2.277 . S
O2467 C2464 1.160 . S
O2467 Cd2468 2.203 . S
Cd2468 O2467 2.203 . S
Cd2468 O2470 2.411 . S
Cd2468 O2471 2.333 . S
Cd2468 O2472 2.352 . S
Cd2468 O2476 2.277 . S
Cd2468 O2477 2.356 . S
C2469 O2474 1.209 . S
C2469 O2476 1.226 . S
O2470 Cd2466 2.273 . S
O2470 Cd2468 2.411 . S
O2470 C2473 1.320 . S
O2471 Cd2468 2.333 . S
O2471 C2473 1.214 . S
O2472 Cd2468 2.352 . S
O2472 C2475 1.258 . S
C2473 O2470 1.320 . S
C2473 O2471 1.214 . S
O2474 Cd2466 2.277 . S
O2474 C2469 1.209 . S
C2475 O2472 1.258 . S
C2475 O2477 1.282 . S
O2476 Cd2468 2.277 . S
O2476 C2469 1.226 . S
O2477 Cd2468 2.356 . S
O2477 C2475 1.282 . S
C2478 O2479 1.306 . S
C2478 O2481 1.160 . S
O2479 C2478 1.306 . S
O2479 Cd2480 2.228 . S
Cd2480 O2479 2.228 . S
Cd2480 O2484 2.273 . S
Cd2480 O2488 2.277 . S
O2481 C2478 1.160 . S
O2481 Cd2482 2.203 . S
Cd2482 O2481 2.203 . S
Cd2482 O2484 2.411 . S
Cd2482 O2485 2.333 . S
Cd2482 O2486 2.352 . S
Cd2482 O2490 2.277 . S
Cd2482 O2491 2.356 . S
C2483 O2488 1.209 . S
C2483 O2490 1.226 . S
O2484 Cd2480 2.273 . S
O2484 Cd2482 2.411 . S
O2484 C2487 1.320 . S
O2485 Cd2482 2.333 . S
O2485 C2487 1.214 . S
O2486 Cd2482 2.352 . S
O2486 C2489 1.258 . S
C2487 O2484 1.320 . S
C2487 O2485 1.214 . S
O2488 Cd2480 2.277 . S
O2488 C2483 1.209 . S
C2489 O2486 1.258 . S
C2489 O2491 1.282 . S
O2490 Cd2482 2.277 . S
O2490 C2483 1.226 . S
O2491 Cd2482 2.356 . S
O2491 C2489 1.282 . S
C2492 O2493 1.306 . S
C2492 O2495 1.160 . S
O2493 C2492 1.306 . S
O2493 Cd2494 2.228 . S
Cd2494 O2493 2.228 . S
Cd2494 O2498 2.273 . S
Cd2494 O2502 2.277 . S
O2495 C2492 1.160 . S
O2495 Cd2496 2.203 . S
Cd2496 O2495 2.203 . S
Cd2496 O2498 2.411 . S
Cd2496 O2499 2.333 . S
Cd2496 O2500 2.352 . S
Cd2496 O2504 2.277 . S
Cd2496 O2505 2.356 . S
C2497 O2502 1.209 . S
C2497 O2504 1.226 . S
O2498 Cd2494 2.273 . S
O2498 Cd2496 2.411 . S
O2498 C2501 1.320 . S
O2499 Cd2496 2.333 . S
O2499 C2501 1.214 . S
O2500 Cd2496 2.352 . S
O2500 C2503 1.258 . S
C2501 O2498 1.320 . S
C2501 O2499 1.214 . S
O2502 Cd2494 2.277 . S
O2502 C2497 1.209 . S
C2503 O2500 1.258 . S
C2503 O2505 1.282 . S
O2504 Cd2496 2.277 . S
O2504 C2497 1.226 . S
O2505 Cd2496 2.356 . S
O2505 C2503 1.282 . S
C2506 O2507 1.306 . S
C2506 O2509 1.160 . S
O2507 C2506 1.306 . S
O2507 Cd2508 2.228 . S
Cd2508 O2507 2.228 . S
Cd2508 O2512 2.273 . S
Cd2508 O2516 2.277 . S
O2509 C2506 1.160 . S
O2509 Cd2510 2.203 . S
Cd2510 O2509 2.203 . S
Cd2510 O2512 2.411 . S
Cd2510 O2513 2.333 . S
Cd2510 O2514 2.352 . S
Cd2510 O2518 2.277 . S
Cd2510 O2519 2.356 . S
C2511 O2516 1.209 . S
C2511 O2518 1.226 . S
O2512 Cd2508 2.273 . S
O2512 Cd2510 2.411 . S
O2512 C2515 1.320 . S
O2513 Cd2510 2.333 . S
O2513 C2515 1.214 . S
O2514 Cd2510 2.352 . S
O2514 C2517 1.258 . S
C2515 O2512 1.320 . S
C2515 O2513 1.214 . S
O2516 Cd2508 2.277 . S
O2516 C2511 1.209 . S
C2517 O2514 1.258 . S
C2517 O2519 1.282 . S
O2518 Cd2510 2.277 . S
O2518 C2511 1.226 . S
O2519 Cd2510 2.356 . S
O2519 C2517 1.282 . S
C2520 O2521 1.306 . S
C2520 O2523 1.160 . S
O2521 C2520 1.306 . S
O2521 Cd2522 2.228 . S
Cd2522 O2521 2.228 . S
Cd2522 O2526 2.273 . S
Cd2522 O2530 2.277 . S
O2523 C2520 1.160 . S
O2523 Cd2524 2.203 . S
Cd2524 O2523 2.203 . S
Cd2524 O2526 2.411 . S
Cd2524 O2527 2.333 . S
Cd2524 O2528 2.352 . S
Cd2524 O2532 2.277 . S
Cd2524 O2533 2.356 . S
C2525 O2530 1.209 . S
C2525 O2532 1.226 . S
O2526 Cd2522 2.273 . S
O2526 Cd2524 2.411 . S
O2526 C2529 1.320 . S
O2527 Cd2524 2.333 . S
O2527 C2529 1.214 . S
O2528 Cd2524 2.352 . S
O2528 C2531 1.258 . S
C2529 O2526 1.320 . S
C2529 O2527 1.214 . S
O2530 Cd2522 2.277 . S
O2530 C2525 1.209 . S
C2531 O2528 1.258 . S
C2531 O2533 1.282 . S
O2532 Cd2524 2.277 . S
O2532 C2525 1.226 . S
O2533 Cd2524 2.356 . S
O2533 C2531 1.282 . S
C2534 O2535 1.306 . S
C2534 O2537 1.160 . S
O2535 C2534 1.306 . S
O2535 Cd2536 2.228 . S
Cd2536 O2535 2.228 . S
Cd2536 O2540 2.273 . S
Cd2536 O2544 2.277 . S
O2537 C2534 1.160 . S
O2537 Cd2538 2.203 . S
Cd2538 O2537 2.203 . S
Cd2538 O2540 2.411 . S
Cd2538 O2541 2.333 . S
Cd2538 O2542 2.352 . S
Cd2538 O2546 2.277 . S
Cd2538 O2547 2.356 . S
C2539 O2544 1.209 . S
C2539 O2546 1.226 . S
O2540 Cd2536 2.273 . S
O2540 Cd2538 2.411 . S
O2540 C2543 1.320 . S
O2541 Cd2538 2.333 . S
O2541 C2543 1.214 . S
O2542 Cd2538 2.352 . S
O2542 C2545 1.258 . S
C2543 O2540 1.320 . S
C2543 O2541 1.214 . S
O2544 Cd2536 2.277 . S
O2544 C2539 1.209 . S
C2545 O2542 1.258 . S
C2545 O2547 1.282 . S
O2546 Cd2538 2.277 . S
O2546 C2539 1.226 . S
O2547 Cd2538 2.356 . S
O2547 C2545 1.282 . S
C2548 O2549 1.306 . S
C2548 O2551 1.160 . S
O2549 C2548 1.306 . S
O2549 Cd2550 2.228 . S
Cd2550 O2549 2.228 . S
Cd2550 O2554 2.273 . S
Cd2550 O2558 2.277 . S
O2551 C2548 1.160 . S
O2551 Cd2552 2.203 . S
Cd2552 O2551 2.203 . S
Cd2552 O2554 2.411 . S
Cd2552 O2555 2.333 . S
Cd2552 O2556 2.352 . S
Cd2552 O2560 2.277 . S
Cd2552 O2561 2.356 . S
C2553 O2558 1.209 . S
C2553 O2560 1.226 . S
O2554 Cd2550 2.273 . S
O2554 Cd2552 2.411 . S
O2554 C2557 1.320 . S
O2555 Cd2552 2.333 . S
O2555 C2557 1.214 . S
O2556 Cd2552 2.352 . S
O2556 C2559 1.258 . S
C2557 O2554 1.320 . S
C2557 O2555 1.214 . S
O2558 Cd2550 2.277 . S
O2558 C2553 1.209 . S
C2559 O2556 1.258 . S
C2559 O2561 1.282 . S
O2560 Cd2552 2.277 . S
O2560 C2553 1.226 . S
O2561 Cd2552 2.356 . S
O2561 C2559 1.282 . S
C2562 O2563 1.306 . S
C2562 O2565 1.160 . S
O2563 C2562 1.306 . S
O2563 Cd2564 2.228 . S
Cd2564 O2563 2.228 . S
Cd2564 O2568 2.273 . S
Cd2564 O2572 2.277 . S
O2565 C2562 1.160 . S
O2565 Cd2566 2.203 . S
Cd2566 O2565 2.203 . S
Cd2566 O2568 2.411 . S
Cd2566 O2569 2.333 . S
Cd2566 O2570 2.352 . S
Cd2566 O2574 2.277 . S
Cd2566 O2575 2.356 . S
C2567 O2572 1.209 . S
C2567 O2574 1.226 . S
O2568 Cd2564 2.273 . S
O2568 Cd2566 2.411 . S
O2568 C2571 1.320 . S
O2569 Cd2566 2.333 . S
O2569 C2571 1.214 . S
O2570 Cd2566 2.352 . S
O2570 C2573 1.258 . S
C2571 O2568 1.320 . S
C2571 O2569 1.214 . S
O2572 Cd2564 2.277 . S
O2572 C2567 1.209 . S
C2573 O2570 1.258 . S
C2573 O2575 1.282 . S
O2574 Cd2566 2.277 . S
O2574 C2567 1.226 . S
O2575 Cd2566 2.356 . S
O2575 C2573 1.282 . S
C2576 O2577 1.306 . S
C2576 O2579 1.160 . S
O2577 C2576 1.306 . S
O2577 Cd2578 2.228 . S
Cd2578 O2577 2.228 . S
Cd2578 O2582 2.273 . S
Cd2578 O2586 2.277 . S
O2579 C2576 1.160 . S
O2579 Cd2580 2.203 . S
Cd2580 O2579 2.203 . S
Cd2580 O2582 2.411 . S
Cd2580 O2583 2.333 . S
Cd2580 O2584 2.352 . S
Cd2580 O2588 2.277 . S
Cd2580 O2589 2.356 . S
C2581 O2586 1.209 . S
C2581 O2588 1.226 . S
O2582 Cd2578 2.273 . S
O2582 Cd2580 2.411 . S
O2582 C2585 1.320 . S
O2583 Cd2580 2.333 . S
O2583 C2585 1.214 . S
O2584 Cd2580 2.352 . S
O2584 C2587 1.258 . S
C2585 O2582 1.320 . S
C2585 O2583 1.214 . S
O2586 Cd2578 2.277 . S
O2586 C2581 1.209 . S
C2587 O2584 1.258 . S
C2587 O2589 1.282 . S
O2588 Cd2580 2.277 . S
O2588 C2581 1.226 . S
O2589 Cd2580 2.356 . S
O2589 C2587 1.282 . S
C2590 O2591 1.306 . S
C2590 O2593 1.160 . S
O2591 C2590 1.306 . S
O2591 Cd2592 2.228 . S
Cd2592 O2591 2.228 . S
Cd2592 O2596 2.273 . S
Cd2592 O2600 2.277 . S
O2593 C2590 1.160 . S
O2593 Cd2594 2.203 . S
Cd2594 O2593 2.203 . S
Cd2594 O2596 2.411 . S
Cd2594 O2597 2.333 . S
Cd2594 O2598 2.352 . S
Cd2594 O2602 2.277 . S
Cd2594 O2603 2.356 . S
C2595 O2600 1.209 . S
C2595 O2602 1.226 . S
O2596 Cd2592 2.273 . S
O2596 Cd2594 2.411 . S
O2596 C2599 1.320 . S
O2597 Cd2594 2.333 . S
O2597 C2599 1.214 . S
O2598 Cd2594 2.352 . S
O2598 C2601 1.258 . S
C2599 O2596 1.320 . S
C2599 O2597 1.214 . S
O2600 Cd2592 2.277 . S
O2600 C2595 1.209 . S
C2601 O2598 1.258 . S
C2601 O2603 1.282 . S
O2602 Cd2594 2.277 . S
O2602 C2595 1.226 . S
O2603 Cd2594 2.356 . S
O2603 C2601 1.282 . S
C2604 O2605 1.306 . S
C2604 O2607 1.160 . S
O2605 C2604 1.306 . S
O2605 Cd2606 2.228 . S
Cd2606 O2605 2.228 . S
Cd2606 O2610 2.273 . S
Cd2606 O2614 2.277 . S
O2607 C2604 1.160 . S
O2607 Cd2608 2.203 . S
Cd2608 O2607 2.203 . S
Cd2608 O2610 2.411 . S
Cd2608 O2611 2.333 . S
Cd2608 O2612 2.352 . S
Cd2608 O2616 2.277 . S
Cd2608 O2617 2.356 . S
C2609 O2614 1.209 . S
C2609 O2616 1.226 . S
O2610 Cd2606 2.273 . S
O2610 Cd2608 2.411 . S
O2610 C2613 1.320 . S
O2611 Cd2608 2.333 . S
O2611 C2613 1.214 . S
O2612 Cd2608 2.352 . S
O2612 C2615 1.258 . S
C2613 O2610 1.320 . S
C2613 O2611 1.214 . S
O2614 Cd2606 2.277 . S
O2614 C2609 1.209 . S
C2615 O2612 1.258 . S
C2615 O2617 1.282 . S
O2616 Cd2608 2.277 . S
O2616 C2609 1.226 . S
O2617 Cd2608 2.356 . S
O2617 C2615 1.282 . S
C2618 O2619 1.306 . S
C2618 O2621 1.160 . S
O2619 C2618 1.306 . S
O2619 Cd2620 2.228 . S
Cd2620 O2619 2.228 . S
Cd2620 O2624 2.273 . S
Cd2620 O2628 2.277 . S
O2621 C2618 1.160 . S
O2621 Cd2622 2.203 . S
Cd2622 O2621 2.203 . S
Cd2622 O2624 2.411 . S
Cd2622 O2625 2.333 . S
Cd2622 O2626 2.352 . S
Cd2622 O2630 2.277 . S
Cd2622 O2631 2.356 . S
C2623 O2628 1.209 . S
C2623 O2630 1.226 . S
O2624 Cd2620 2.273 . S
O2624 Cd2622 2.411 . S
O2624 C2627 1.320 . S
O2625 Cd2622 2.333 . S
O2625 C2627 1.214 . S
O2626 Cd2622 2.352 . S
O2626 C2629 1.258 . S
C2627 O2624 1.320 . S
C2627 O2625 1.214 . S
O2628 Cd2620 2.277 . S
O2628 C2623 1.209 . S
C2629 O2626 1.258 . S
C2629 O2631 1.282 . S
O2630 Cd2622 2.277 . S
O2630 C2623 1.226 . S
O2631 Cd2622 2.356 . S
O2631 C2629 1.282 . S
C2632 O2633 1.306 . S
C2632 O2635 1.160 . S
O2633 C2632 1.306 . S
O2633 Cd2634 2.228 . S
Cd2634 O2633 2.228 . S
Cd2634 O2638 2.273 . S
Cd2634 O2642 2.277 . S
O2635 C2632 1.160 . S
O2635 Cd2636 2.203 . S
Cd2636 O2635 2.203 . S
Cd2636 O2638 2.411 . S
Cd2636 O2639 2.333 . S
Cd2636 O2640 2.352 . S
Cd2636 O2644 2.277 . S
Cd2636 O2645 2.356 . S
C2637 O2642 1.209 . S
C2637 O2644 1.226 . S
O2638 Cd2634 2.273 . S
O2638 Cd2636 2.411 . S
O2638 C2641 1.320 . S
O2639 Cd2636 2.333 . S
O2639 C2641 1.214 . S
O2640 Cd2636 2.352 . S
O2640 C2643 1.258 . S
C2641 O2638 1.320 . S
C2641 O2639 1.214 . S
O2642 Cd2634 2.277 . S
O2642 C2637 1.209 . S
C2643 O2640 1.258 . S
C2643 O2645 1.282 . S
O2644 Cd2636 2.277 . S
O2644 C2637 1.226 . S
O2645 Cd2636 2.356 . S
O2645 C2643 1.282 . S
C2646 O2647 1.306 . S
C2646 O2649 1.160 . S
O2647 C2646 1.306 . S
O2647 Cd2648 2.228 . S
Cd2648 O2647 2.228 . S
Cd2648 O2652 2.273 . S
Cd2648 O2656 2.277 . S
O2649 C2646 1.160 . S
O2649 Cd2650 2.203 . S
Cd2650 O2649 2.203 . S
Cd2650 O2652 2.411 . S
Cd2650 O2653 2.333 . S
Cd2650 O2654 2.352 . S
Cd2650 O2658 2.277 . S
Cd2650 O2659 2.356 . S
C2651 O2656 1.209 . S
C2651 O2658 1.226 . S
O2652 Cd2648 2.273 . S
O2652 Cd2650 2.411 . S
O2652 C2655 1.320 . S
O2653 Cd2650 2.333 . S
O2653 C2655 1.214 . S
O2654 Cd2650 2.352 . S
O2654 C2657 1.258 . S
C2655 O2652 1.320 . S
C2655 O2653 1.214 . S
O2656 Cd2648 2.277 . S
O2656 C2651 1.209 . S
C2657 O2654 1.258 . S
C2657 O2659 1.282 . S
O2658 Cd2650 2.277 . S
O2658 C2651 1.226 . S
O2659 Cd2650 2.356 . S
O2659 C2657 1.282 . S
C2660 O2661 1.306 . S
C2660 O2663 1.160 . S
O2661 C2660 1.306 . S
O2661 Cd2662 2.228 . S
Cd2662 O2661 2.228 . S
Cd2662 O2666 2.273 . S
Cd2662 O2670 2.277 . S
O2663 C2660 1.160 . S
O2663 Cd2664 2.203 . S
Cd2664 O2663 2.203 . S
Cd2664 O2666 2.411 . S
Cd2664 O2667 2.333 . S
Cd2664 O2668 2.352 . S
Cd2664 O2672 2.277 . S
Cd2664 O2673 2.356 . S
C2665 O2670 1.209 . S
C2665 O2672 1.226 . S
O2666 Cd2662 2.273 . S
O2666 Cd2664 2.411 . S
O2666 C2669 1.320 . S
O2667 Cd2664 2.333 . S
O2667 C2669 1.214 . S
O2668 Cd2664 2.352 . S
O2668 C2671 1.258 . S
C2669 O2666 1.320 . S
C2669 O2667 1.214 . S
O2670 Cd2662 2.277 . S
O2670 C2665 1.209 . S
C2671 O2668 1.258 . S
C2671 O2673 1.282 . S
O2672 Cd2664 2.277 . S
O2672 C2665 1.226 . S
O2673 Cd2664 2.356 . S
O2673 C2671 1.282 . S
C2674 O2675 1.306 . S
C2674 O2677 1.160 . S
O2675 C2674 1.306 . S
O2675 Cd2676 2.228 . S
Cd2676 O2675 2.228 . S
Cd2676 O2680 2.273 . S
Cd2676 O2684 2.277 . S
O2677 C2674 1.160 . S
O2677 Cd2678 2.203 . S
Cd2678 O2677 2.203 . S
Cd2678 O2680 2.411 . S
Cd2678 O2681 2.333 . S
Cd2678 O2682 2.352 . S
Cd2678 O2686 2.277 . S
Cd2678 O2687 2.356 . S
C2679 O2684 1.209 . S
C2679 O2686 1.226 . S
O2680 Cd2676 2.273 . S
O2680 Cd2678 2.411 . S
O2680 C2683 1.320 . S
O2681 Cd2678 2.333 . S
O2681 C2683 1.214 . S
O2682 Cd2678 2.352 . S
O2682 C2685 1.258 . S
C2683 O2680 1.320 . S
C2683 O2681 1.214 . S
O2684 Cd2676 2.277 . S
O2684 C2679 1.209 . S
C2685 O2682 1.258 . S
C2685 O2687 1.282 . S
O2686 Cd2678 2.277 . S
O2686 C2679 1.226 . S
O2687 Cd2678 2.356 . S
O2687 C2685 1.282 . S
C1089 C11 1.303 . S
C2447 C25 1.303 . S
C1789 C39 1.303 . S
C403 C53 1.303 . S
C67 C389 1.303 . S
C1019 C81 1.303 . S
C2377 C95 1.303 . S
C1719 C109 1.303 . S
C2685 C123 1.303 . S
C1313 C137 1.303 . S
C151 C655 1.303 . S
C571 C165 1.303 . S
C1299 C179 1.303 . S
C193 C1929 1.303 . S
C599 C207 1.303 . S
C221 C1285 1.303 . S
C501 C235 1.303 . S
C249 C1873 1.303 . S
C263 C543 1.303 . S
C1229 C277 1.303 . S
C291 C1187 1.303 . S
C1145 C305 1.303 . S
C319 C487 1.303 . S
C2475 C333 1.303 . S
C347 C753 1.303 . S
C361 C2111 1.303 . S
C1453 C375 1.303 . S
C417 C683 1.303 . S
C431 C2041 1.303 . S
C1383 C445 1.303 . S
C459 C2349 1.303 . S
C977 C473 1.303 . S
C963 C515 1.303 . S
C529 C1593 1.303 . S
C949 C557 1.303 . S
C1537 C585 1.303 . S
C893 C613 1.303 . S
C627 C851 1.303 . S
C641 C809 1.303 . S
C2139 C669 1.303 . S
C1775 C697 1.303 . S
C2461 C711 1.303 . S
C1075 C725 1.303 . S
C1061 C739 1.303 . S
C1705 C767 1.303 . S
C2391 C781 1.303 . S
C795 C2013 1.303 . S
C1327 C823 1.303 . S
C1243 C837 1.303 . S
C865 C2601 1.303 . S
C879 C1271 1.303 . S
C1173 C907 1.303 . S
C921 C2545 1.303 . S
C935 C1215 1.303 . S
C991 C1159 1.303 . S
C1803 C1005 1.303 . S
C1439 C1033 1.303 . S
C1047 C2125 1.303 . S
C1103 C1369 1.303 . S
C1117 C2055 1.303 . S
C1677 C1131 1.303 . S
C1201 C2265 1.303 . S
C2209 C1257 1.303 . S
C1467 C1341 1.303 . S
C1355 C2433 1.303 . S
C1747 C1397 1.303 . S
C1733 C1411 1.303 . S
C1425 C2363 1.303 . S
C1481 C2657 1.303 . S
C1495 C1999 1.303 . S
C1915 C1509 1.303 . S
C2643 C1523 1.303 . S
C1943 C1551 1.303 . S
C2629 C1565 1.303 . S
C1845 C1579 1.303 . S
C1607 C1887 1.303 . S
C2573 C1621 1.303 . S
C2531 C1635 1.303 . S
C1649 C2489 1.303 . S
C1663 C1831 1.303 . S
C1691 C2097 1.303 . S
C2027 C1761 1.303 . S
C2321 C1817 1.303 . S
C2307 C1859 1.303 . S
C2293 C1901 1.303 . S
C2237 C1957 1.303 . S
C1971 C2195 1.303 . S
C2153 C1985 1.303 . S
C2419 C2069 1.303 . S
C2405 C2083 1.303 . S
C2167 C2671 1.303 . S
C2181 C2587 1.303 . S
C2615 C2223 1.303 . S
C2251 C2517 1.303 . S
C2559 C2279 1.303 . S
C2503 C2335 1.303 . S
C443 C9 1.598 . S
C23 C1073 1.598 . S
C2431 C37 1.598 . S
C1773 C51 1.598 . S
C65 C1031 1.598 . S
C2389 C79 1.598 . S
C93 C1731 1.598 . S
C107 C345 1.598 . S
C121 C1297 1.598 . S
C135 C1927 1.598 . S
C149 C597 1.598 . S
C1283 C163 1.598 . S
C177 C2683 1.598 . S
C1311 C191 1.598 . S
C205 C653 1.598 . S
C569 C219 1.598 . S
C233 C555 1.598 . S
C247 C1815 1.598 . S
C485 C261 1.598 . S
C1171 C275 1.598 . S
C289 C1129 1.598 . S
C303 C1199 1.598 . S
C317 C541 1.598 . S
C2529 C331 1.598 . S
C737 C359 1.598 . S
C373 C2095 1.598 . S
C1437 C387 1.598 . S
C401 C695 1.598 . S
C2053 C415 1.598 . S
C429 C1395 1.598 . S
C457 C961 1.598 . S
C471 C1591 1.598 . S
C499 C947 1.598 . S
C2347 C513 1.598 . S
C527 C975 1.598 . S
C1479 C583 1.598 . S
C835 C611 1.598 . S
C625 C793 1.598 . S
C863 C639 1.598 . S
C667 C2193 1.598 . S
C681 C1115 1.598 . S
C709 C1759 1.598 . S
C2445 C723 1.598 . S
C751 C1717 1.598 . S
C2403 C765 1.598 . S
C779 C1017 1.598 . S
C2599 C807 1.598 . S
C821 C1269 1.598 . S
C2011 C849 1.598 . S
C1325 C877 1.598 . S
C891 C1241 1.598 . S
C905 C1227 1.598 . S
C2487 C919 1.598 . S
C1157 C933 1.598 . S
C1213 C989 1.598 . S
C1003 C1857 1.598 . S
C1045 C1423 1.598 . S
C1059 C2109 1.598 . S
C1381 C1087 1.598 . S
C1101 C2067 1.598 . S
C2263 C1143 1.598 . S
C1675 C1185 1.598 . S
C2151 C1255 1.598 . S
C1521 C1339 1.598 . S
C1353 C1787 1.598 . S
C1367 C2417 1.598 . S
C2375 C1409 1.598 . S
C1689 C1451 1.598 . S
C1465 C2641 1.598 . S
C1493 C1941 1.598 . S
C2627 C1507 1.598 . S
C2655 C1535 1.598 . S
C1549 C1997 1.598 . S
C1563 C1913 1.598 . S
C1899 C1577 1.598 . S
C1829 C1605 1.598 . S
C1619 C2515 1.598 . S
C1633 C2473 1.598 . S
C2543 C1647 1.598 . S
C1885 C1661 1.598 . S
C2081 C1703 1.598 . S
C1745 C2039 1.598 . S
C1801 C2305 1.598 . S
C1843 C2291 1.598 . S
C1871 C2319 1.598 . S
C1955 C2179 1.598 . S
C1969 C2137 1.598 . S
C1983 C2207 1.598 . S
C2459 C2025 1.598 . S
C2361 C2123 1.598 . S
C2165 C2613 1.598 . S
C2221 C2669 1.598 . S
C2585 C2235 1.598 . S
C2571 C2249 1.598 . S
C2501 C2277 1.598 . S
C2557 C2333 1.598 . S
C2632 C0 1.376 1_655 S
C14 C2590 1.376 . S
C28 C1932 1.376 1_556 S
C602 C42 1.376 1_545 S
C56 C1330 1.376 1_455 S
C630 C70 1.376 1_556 S
C1988 C84 1.376 . S
C98 C1232 1.376 1_565 S
C112 C2562 1.376 1_545 S
C1848 C126 1.376 1_455 S
C140 C518 1.376 . S
C154 C1204 1.376 . S
C1806 C168 1.376 . S
C182 C476 1.376 . S
C1162 C196 1.376 1_565 S
C210 C2464 1.376 1_655 S
C224 C1106 1.376 1_554 S
C2366 C238 1.376 . S
C1708 C252 1.376 . S
C378 C266 1.376 1_545 S
C280 C2352 1.376 . S
C294 C406 1.376 1_554 S
C308 C1764 1.376 . S
C1064 C322 1.376 1_655 S
C336 C2296 1.376 1_655 S
C350 C2254 1.376 . S
C364 C1596 1.376 1_554 S
C392 C994 1.376 1_655 S
C1652 C420 1.376 . S
C434 C896 1.376 1_545 S
C2226 C448 1.376 1_545 S
C1512 C462 1.376 1_655 S
C490 C868 1.376 . S
C1470 C504 1.376 . S
C532 C826 1.376 1_565 S
C2128 C546 1.376 1_655 S
C770 C560 1.376 1_554 S
C574 C2030 1.376 . S
C1372 C588 1.376 . S
C2016 C616 1.376 . S
C1428 C644 1.376 . S
C658 C728 1.376 1_655 S
C1960 C672 1.376 1_654 S
C1918 C686 1.376 . S
C700 C2604 1.376 . S
C714 C1274 1.376 . S
C1302 C742 1.376 . S
C756 C2660 1.376 . S
C784 C1890 1.376 . S
C798 C2520 1.376 1_655 S
C1190 C812 1.376 . S
C840 C2478 1.376 . S
C1148 C854 1.376 . S
C1792 C882 1.376 1_465 S
C1694 C910 1.376 . S
C2380 C924 1.376 1_554 S
C938 C1050 1.376 . S
C952 C1680 1.376 1_556 S
C966 C1078 1.376 . S
C2436 C980 1.376 . S
C1008 C1624 1.376 1_654 S
C1582 C1022 1.376 . S
C1036 C2268 1.376 . S
C1092 C2324 1.376 . S
C1554 C1120 1.376 . S
C1134 C2184 1.376 1_455 S
C1176 C2142 1.376 . S
C1218 C1456 1.376 1_465 S
C1358 C1246 1.376 . S
C2044 C1260 1.376 1_556 S
C1288 C1344 1.376 1_554 S
C1316 C2100 1.376 . S
C1946 C1386 1.376 1_545 S
C2674 C1400 1.376 . S
C1974 C1414 1.376 . S
C2576 C1442 1.376 1_546 S
C1862 C1484 1.376 . S
C1498 C2548 1.376 . S
C1820 C1526 1.376 . S
C1540 C2506 1.376 1_545 S
C1568 C2450 1.376 . S
C1610 C1722 1.376 1_565 S
C1638 C1750 1.376 . S
C1666 C2408 1.376 . S
C1736 C2338 1.376 . S
C1778 C2240 1.376 1_546 S
C1834 C2212 1.376 . S
C1876 C2170 1.376 1_565 S
C2114 C1904 1.376 . S
C2072 C2002 1.376 . S
C2618 C2058 1.376 . S
C2646 C2086 1.376 1_556 S
C2534 C2156 1.376 . S
C2198 C2492 1.376 . S
C2282 C2394 1.376 . S
C2422 C2310 1.376 1_556 S
C887 C5 1.466 1_655 S
C19 C1517 1.466 . S
C859 C33 1.466 . S
C1545 C47 1.466 1_545 S
C61 C803 1.466 1_455 S
C1489 C75 1.466 . S
C831 C89 1.466 . S
C103 C1461 1.466 1_565 S
C1447 C117 1.466 1_565 S
C733 C131 1.466 1_455 S
C145 C1419 1.466 . S
C159 C761 1.466 . S
C1363 C173 1.466 . S
C705 C187 1.466 . S
C1391 C201 1.466 1_565 S
C215 C677 1.466 1_655 S
C1629 C229 1.466 1_556 S
C1671 C243 1.466 . S
C257 C1643 1.466 . S
C1657 C271 1.466 . S
C285 C1573 1.466 . S
C1601 C299 1.466 1_556 S
C1615 C313 1.466 . S
C327 C1587 1.466 . S
C1223 C341 1.466 1_455 S
C355 C1853 1.466 . S
C1195 C369 1.466 . S
C383 C1881 1.466 1_545 S
C397 C1139 1.466 1_655 S
C1825 C411 1.466 . S
C425 C1167 1.466 . S
C439 C1797 1.466 1_545 S
C1783 C453 1.466 1_545 S
C1069 C467 1.466 1_655 S
C481 C1755 1.466 . S
C1097 C495 1.466 . S
C509 C1699 1.466 . S
C1041 C523 1.466 . S
C1727 C537 1.466 1_545 S
C551 C1013 1.466 1_455 S
C1965 C565 1.466 1_554 S
C579 C2007 1.466 . S
C1979 C593 1.466 . S
C1993 C607 1.466 . S
C1909 C621 1.466 . S
C635 C1937 1.466 1_556 S
C649 C1951 1.466 . S
C1923 C663 1.466 . S
C2189 C691 1.466 . S
C2217 C719 1.466 . S
C747 C2161 1.466 . S
C2133 C775 1.466 . S
C789 C2119 1.466 . S
C817 C2091 1.466 . S
C2035 C845 1.466 . S
C873 C2063 1.466 . S
C901 C2301 1.466 . S
C2343 C915 1.466 . S
C929 C2315 1.466 1_556 S
C2329 C943 1.466 . S
C2245 C957 1.466 1_554 S
C971 C2273 1.466 . S
C985 C2287 1.466 . S
C2259 C999 1.466 . S
C2525 C1027 1.466 . S
C2553 C1055 1.466 . S
C2497 C1083 1.466 . S
C2469 C1111 1.466 . S
C1125 C2455 1.466 . S
C2427 C1153 1.466 . S
C2371 C1181 1.466 . S
C2399 C1209 1.466 . S
C1237 C2637 1.466 . S
C2679 C1251 1.466 . S
C1265 C2651 1.466 1_554 S
C2665 C1279 1.466 . S
C1293 C2581 1.466 1_554 S
C1307 C2609 1.466 . S
C2623 C1321 1.466 . S
C2595 C1335 1.466 . S
C2231 C1349 1.466 . S
C1377 C2203 1.466 . S
C2147 C1405 1.466 . S
C1433 C2175 1.466 . S
C1475 C2077 1.466 . S
C1503 C2105 1.466 . S
C2049 C1531 1.466 . S
C1559 C2021 1.466 . S
C2567 C1685 1.466 . S
C2539 C1713 1.466 . S
C2483 C1741 1.466 . S
C2511 C1769 1.466 . S
C2413 C1811 1.466 . S
C1839 C2441 1.466 . S
C1867 C2385 1.466 . S
C2357 C1895 1.466 . S
