# Generated by pormake.
# Topology ure, (4)-cn, num edge types: 1
# Building blocks:
#     Node 0, Type 0, BuildingBlock: QUQFOY_clean_sbu_1, # of connection points: 4
#     Node 1, Type 0, BuildingBlock: QUQFOY_clean_sbu_1, # of connection points: 4
#     Node 2, Type 0, BuildingBlock: QUQFOY_clean_sbu_1, # of connection points: 4
#     Node 3, Type 0, BuildingBlock: QUQFOY_clean_sbu_1, # of connection points: 4
#     Node 4, Type 0, BuildingBlock: QUQFOY_clean_sbu_1, # of connection points: 4
#     Node 5, Type 0, BuildingBlock: QUQFOY_clean_sbu_1, # of connection points: 4
#     Node 6, Type 0, BuildingBlock: QUQFOY_clean_sbu_1, # of connection points: 4
#     Node 7, Type 0, BuildingBlock: QUQFOY_clean_sbu_1, # of connection points: 4
#     Node 8, Type 0, BuildingBlock: QUQFOY_clean_sbu_1, # of connection points: 4
#     Node 9, Type 0, BuildingBlock: QUQFOY_clean_sbu_1, # of connection points: 4
#     Node 10, Type 0, BuildingBlock: QUQFOY_clean_sbu_1, # of connection points: 4
#     Node 11, Type 0, BuildingBlock: QUQFOY_clean_sbu_1, # of connection points: 4
#     Node 12, Type 0, BuildingBlock: QUQFOY_clean_sbu_1, # of connection points: 4
#     Node 13, Type 0, BuildingBlock: QUQFOY_clean_sbu_1, # of connection points: 4
#     Node 14, Type 0, BuildingBlock: QUQFOY_clean_sbu_1, # of connection points: 4
#     Node 15, Type 0, BuildingBlock: QUQFOY_clean_sbu_1, # of connection points: 4
#     Edge 16, Type (0, 0), BuildingBlock: CIFDUS_clean_linker_0, # of connection points: 2
#     Edge 17, Type (0, 0), BuildingBlock: CIFDUS_clean_linker_0, # of connection points: 2
#     Edge 18, Type (0, 0), BuildingBlock: CIFDUS_clean_linker_0, # of connection points: 2
#     Edge 19, Type (0, 0), BuildingBlock: CIFDUS_clean_linker_0, # of connection points: 2
#     Edge 20, Type (0, 0), BuildingBlock: CIFDUS_clean_linker_0, # of connection points: 2
#     Edge 21, Type (0, 0), BuildingBlock: CIFDUS_clean_linker_0, # of connection points: 2
#     Edge 22, Type (0, 0), BuildingBlock: CIFDUS_clean_linker_0, # of connection points: 2
#     Edge 23, Type (0, 0), BuildingBlock: CIFDUS_clean_linker_0, # of connection points: 2
#     Edge 24, Type (0, 0), BuildingBlock: CIFDUS_clean_linker_0, # of connection points: 2
#     Edge 25, Type (0, 0), BuildingBlock: CIFDUS_clean_linker_0, # of connection points: 2
#     Edge 26, Type (0, 0), BuildingBlock: CIFDUS_clean_linker_0, # of connection points: 2
#     Edge 27, Type (0, 0), BuildingBlock: CIFDUS_clean_linker_0, # of connection points: 2
#     Edge 28, Type (0, 0), BuildingBlock: CIFDUS_clean_linker_0, # of connection points: 2
#     Edge 29, Type (0, 0), BuildingBlock: CIFDUS_clean_linker_0, # of connection points: 2
#     Edge 30, Type (0, 0), BuildingBlock: CIFDUS_clean_linker_0, # of connection points: 2
#     Edge 31, Type (0, 0), BuildingBlock: CIFDUS_clean_linker_0, # of connection points: 2
#     Edge 32, Type (0, 0), BuildingBlock: CIFDUS_clean_linker_0, # of connection points: 2
#     Edge 33, Type (0, 0), BuildingBlock: CIFDUS_clean_linker_0, # of connection points: 2
#     Edge 34, Type (0, 0), BuildingBlock: CIFDUS_clean_linker_0, # of connection points: 2
#     Edge 35, Type (0, 0), BuildingBlock: CIFDUS_clean_linker_0, # of connection points: 2
#     Edge 36, Type (0, 0), BuildingBlock: CIFDUS_clean_linker_0, # of connection points: 2
#     Edge 37, Type (0, 0), BuildingBlock: CIFDUS_clean_linker_0, # of connection points: 2
#     Edge 38, Type (0, 0), BuildingBlock: CIFDUS_clean_linker_0, # of connection points: 2
#     Edge 39, Type (0, 0), BuildingBlock: CIFDUS_clean_linker_0, # of connection points: 2
#     Edge 40, Type (0, 0), BuildingBlock: CIFDUS_clean_linker_0, # of connection points: 2
#     Edge 41, Type (0, 0), BuildingBlock: CIFDUS_clean_linker_0, # of connection points: 2
#     Edge 42, Type (0, 0), BuildingBlock: CIFDUS_clean_linker_0, # of connection points: 2
#     Edge 43, Type (0, 0), BuildingBlock: CIFDUS_clean_linker_0, # of connection points: 2
#     Edge 44, Type (0, 0), BuildingBlock: CIFDUS_clean_linker_0, # of connection points: 2
#     Edge 45, Type (0, 0), BuildingBlock: CIFDUS_clean_linker_0, # of connection points: 2
#     Edge 46, Type (0, 0), BuildingBlock: CIFDUS_clean_linker_0, # of connection points: 2
#     Edge 47, Type (0, 0), BuildingBlock: CIFDUS_clean_linker_0, # of connection points: 2
# Relax obj value: 0.278
# Max RMSD: 0.318
# Mean RMSD: 0.225
data_MOF--net-ure--node1-QUQFOY_clean_sbu_1--edge1-CIFDUS_clean_linker_0
_symmetry_space_group_name_H-M    P1
_symmetry_Int_Tables_number       1
_symmetry_cell_setting            triclinic
loop_
_symmetry_equiv_pos_as_xyz
'x, y, z'
_cell_length_a     27.51827
_cell_length_b     30.433905
_cell_length_c     28.725143
_cell_angle_alpha  93.949328
_cell_angle_beta   94.128019
_cell_angle_gamma 97.305932
loop_
_atom_site_label
_atom_site_type_symbol
_atom_site_fract_x
_atom_site_fract_y
_atom_site_fract_z
_atom_type_partial_charge
O0 O 0.33411 0.22924 0.27552 0.0
Cd1 Cd 0.26093 0.21935 0.28702 0.0
Cd2 Cd 0.27134 0.31312 0.29791 0.0
O3 O 0.34219 0.30258 0.2838 0.0
O4 O 0.22808 0.16382 0.25119 0.0
O5 O 0.21201 0.23126 0.23609 0.0
C6 C 0.20407 0.18872 0.22595 0.0
C7 C 0.24939 0.38255 0.28023 0.0
C8 C 0.36056 0.26669 0.27601 0.0
C9 C 0.23742 0.25755 0.37814 0.0
O10 O 0.24448 0.29434 0.35975 0.0
O11 O 0.24369 0.22155 0.35576 0.0
O12 O 0.28025 0.37833 0.31483 0.0
O13 O 0.23143 0.34726 0.25402 0.0
O14 O 0.01219 0.97147 0.57479 0.0
Cd15 Cd -0.0013 0.96888 0.50301 0.0
Cd16 Cd 0.00484 0.06532 0.52419 0.0
O17 O 0.03395 0.04415 0.58578 0.0
O18 O 0.02031 0.91418 0.47352 0.0
O19 O 0.05711 0.9823 0.4659 0.0
C20 C 0.055 0.93981 0.45715 0.0
C21 C 0.01428 0.14296 0.52095 0.0
C22 C 0.02908 0.00592 0.60154 0.0
C23 C 0.90786 0.0076 0.48341 0.0
O24 O 0.93325 0.04323 0.50125 0.0
O25 O 0.92719 0.97209 0.47794 0.0
O26 O 0.99113 0.12346 0.5525 0.0
O27 O 0.03498 0.11873 0.49176 0.0
O28 O 0.22659 0.80484 0.77186 0.0
Cd29 Cd 0.30114 0.81208 0.78839 0.0
Cd30 Cd 0.28103 0.71855 0.78759 0.0
O31 O 0.21195 0.73146 0.76324 0.0
O32 O 0.32955 0.8685 0.7637 0.0
O33 O 0.34377 0.80193 0.73599 0.0
C34 C 0.34936 0.84454 0.73342 0.0
C35 C 0.30307 0.64731 0.77123 0.0
C36 C 0.19696 0.7693 0.7619 0.0
C37 C 0.31766 0.77619 0.87923 0.0
O38 O 0.30241 0.73946 0.85603 0.0
O39 O 0.32284 0.81203 0.85885 0.0
O40 O 0.26942 0.65421 0.79851 0.0
O41 O 0.3229 0.68044 0.75038 0.0
O42 O 0.54334 0.97217 0.90074 0.0
Cd43 Cd 0.4686 0.95867 0.90313 0.0
Cd44 Cd 0.49537 0.95851 0.99821 0.0
O45 O 0.56125 0.98764 0.9768 0.0
O46 O 0.43407 0.99466 0.85914 0.0
O47 O 0.43644 0.00544 0.93657 0.0
C48 C 0.42367 0.01781 0.89572 0.0
C49 C 0.48564 0.96452 0.07881 0.0
C50 C 0.57442 0.98576 0.93524 0.0
C51 C 0.45178 0.87173 0.93751 0.0
O52 O 0.47217 0.89354 0.97453 0.0
O53 O 0.44214 0.89169 0.90122 0.0
O54 O 0.51801 0.94292 0.06142 0.0
O55 O 0.4602 0.98592 0.05093 0.0
O56 O 0.25756 0.66905 0.31564 0.0
Cd57 Cd 0.28152 0.73624 0.31401 0.0
Cd58 Cd 0.29803 0.7068 0.22347 0.0
O59 O 0.25264 0.65185 0.23944 0.0
O60 O 0.25254 0.76973 0.36481 0.0
O61 O 0.23317 0.77496 0.28921 0.0
C62 C 0.22718 0.78621 0.33243 0.0
C63 C 0.30285 0.71727 0.14351 0.0
C64 C 0.24566 0.64086 0.28054 0.0
C65 C 0.3848 0.73781 0.29553 0.0
O66 O 0.36699 0.71643 0.25737 0.0
O67 O 0.3568 0.75448 0.32313 0.0
O68 O 0.28449 0.7456 0.17023 0.0
O69 O 0.31639 0.68307 0.16186 0.0
O70 O 0.47754 0.95872 0.37443 0.0
Cd71 Cd 0.50894 0.9524 0.4408 0.0
Cd72 Cd 0.53609 0.04557 0.44061 0.0
O73 O 0.50331 0.03046 0.37386 0.0
O74 O 0.47819 0.89672 0.46532 0.0
O75 O 0.47614 0.96376 0.49986 0.0
C76 C 0.46581 0.92108 0.49996 0.0
C77 C 0.53056 0.11939 0.46683 0.0
C78 C 0.48138 0.99431 0.35339 0.0
C79 C 0.61555 0.98481 0.45401 0.0
O80 O 0.60279 0.02358 0.45597 0.0
O81 O 0.58351 0.95071 0.44644 0.0
O82 O 0.56062 0.10963 0.4368 0.0
O83 O 0.50412 0.08707 0.48365 0.0
O84 O 0.31994 0.37105 0.82351 0.0
Cd85 Cd 0.28432 0.30681 0.82491 0.0
Cd86 Cd 0.25808 0.31485 0.73303 0.0
O87 O 0.29957 0.37598 0.74851 0.0
O88 O 0.3174 0.26863 0.86758 0.0
O89 O 0.30718 0.25491 0.79038 0.0
C90 C 0.32209 0.24299 0.8308 0.0
C91 C 0.25431 0.28598 0.65453 0.0
C92 C 0.32015 0.39345 0.78761 0.0
C93 C 0.17846 0.30384 0.80198 0.0
O94 O 0.19094 0.30735 0.76055 0.0
O95 O 0.21069 0.30228 0.8355 0.0
O96 O 0.23446 0.32046 0.66688 0.0
O97 O 0.27758 0.2676 0.68689 0.0
O98 O 0.9945 0.0058 0.89139 0.0
Cd99 Cd 0.97157 0.01802 0.95794 0.0
Cd100 Cd 0.93488 0.92953 0.94497 0.0
O101 O 0.96531 0.93451 0.88223 0.0
O102 O 0.01247 0.07214 0.98936 0.0
O103 O 0.01217 0.00514 0.01505 0.0
C104 C 0.02809 0.04719 0.02017 0.0
C105 C 0.94046 0.86281 0.97926 0.0
C106 C 0.98767 0.96884 0.86664 0.0
C107 C 0.86322 0.99603 0.95799 0.0
O108 O 0.87048 0.95591 0.9506 0.0
O109 O 0.89892 0.02722 0.96333 0.0
O110 O 0.91002 0.86528 0.94372 0.0
O111 O 0.96814 0.89862 0.99612 0.0
O112 O 0.79016 0.17028 0.80777 0.0
Cd113 Cd 0.79411 0.23845 0.81073 0.0
Cd114 Cd 0.80408 0.22165 0.71544 0.0
O115 O 0.79027 0.15601 0.73136 0.0
O116 O 0.75945 0.25578 0.86608 0.0
O117 O 0.7361 0.27021 0.79382 0.0
C118 C 0.72924 0.27235 0.83793 0.0
C119 C 0.78753 0.23832 0.63788 0.0
C120 C 0.78872 0.14265 0.77228 0.0
C121 C 0.88884 0.27435 0.7809 0.0
O122 O 0.87022 0.25686 0.7412 0.0
O123 O 0.86438 0.27191 0.81663 0.0
O124 O 0.82064 0.21403 0.64943 0.0
O125 O 0.76098 0.25125 0.6701 0.0
O126 O 0.97293 0.47549 0.90077 0.0
Cd127 Cd 0.9932 0.46451 0.96888 0.0
Cd128 Cd 0.02436 0.55477 0.98011 0.0
O129 O 0.00686 0.54564 0.90849 0.0
O130 O 0.95286 0.41228 0.9913 0.0
O131 O 0.95429 0.48144 0.02194 0.0
C132 C 0.93874 0.43951 0.0225 0.0
C133 C 0.01619 0.62698 0.00941 0.0
C134 C 0.98517 0.51205 0.88304 0.0
C135 C 0.09699 0.49045 0.00214 0.0
O136 O 0.08498 0.52928 0.0081 0.0
O137 O 0.0662 0.4586 0.98309 0.0
O138 O 0.05262 0.61869 0.98628 0.0
O139 O 0.98436 0.59397 0.01734 0.0
O140 O 0.7987 0.84905 0.32119 0.0
Cd141 Cd 0.77596 0.78198 0.32146 0.0
Cd142 Cd 0.75222 0.78398 0.22627 0.0
O143 O 0.77528 0.85047 0.24631 0.0
O144 O 0.8139 0.75276 0.36933 0.0
O145 O 0.81431 0.73705 0.29277 0.0
C146 C 0.8285 0.72935 0.33504 0.0
C147 C 0.76024 0.76534 0.14683 0.0
C148 C 0.7927 0.87064 0.28532 0.0
C149 C 0.6726 0.75206 0.28933 0.0
O150 O 0.68716 0.75484 0.24854 0.0
O151 O 0.70182 0.76412 0.32543 0.0
O152 O 0.72984 0.79133 0.16024 0.0
O153 O 0.78667 0.74916 0.17864 0.0
O154 O 0.10354 0.49892 0.44356 0.0
Cd155 Cd 0.02837 0.48382 0.43898 0.0
Cd156 Cd 0.04604 0.48267 0.53514 0.0
O157 O 0.11484 0.51177 0.5206 0.0
O158 O 0.99618 0.51686 0.39055 0.0
O159 O 0.98892 0.52814 0.4668 0.0
C160 C 0.97889 0.53855 0.42454 0.0
C161 C 0.02618 0.48941 0.61322 0.0
C162 C 0.13155 0.51131 0.48048 0.0
C163 C 0.00961 0.3962 0.47113 0.0
O164 O 0.02554 0.4175 0.50991 0.0
O165 O 0.00399 0.41673 0.43453 0.0
O166 O 0.06048 0.46756 0.60043 0.0
O167 O 0.00443 0.51052 0.58227 0.0
O168 O 0.50832 0.46041 0.04857 0.0
Cd169 Cd 0.47953 0.45242 0.97965 0.0
Cd170 Cd 0.46944 0.54573 0.00677 0.0
O171 O 0.51622 0.53336 0.06231 0.0
O172 O 0.50025 0.3946 0.95798 0.0
O173 O 0.52504 0.45746 0.92742 0.0
C174 C 0.52699 0.41542 0.92936 0.0
C175 C 0.46494 0.62142 0.99583 0.0
C176 C 0.52289 0.49534 0.07533 0.0
C177 C 0.37897 0.47335 0.9861 0.0
O178 O 0.40002 0.5114 0.00241 0.0
O179 O 0.40367 0.4443 0.96942 0.0
O180 O 0.45242 0.60365 0.03312 0.0
O181 O 0.48192 0.59665 0.96432 0.0
O182 O 0.87584 0.71965 0.77141 0.0
Cd183 Cd 0.80307 0.72021 0.78226 0.0
Cd184 Cd 0.82926 0.81326 0.79121 0.0
O185 O 0.89503 0.79252 0.77401 0.0
O186 O 0.76454 0.66645 0.74823 0.0
O187 O 0.75778 0.73519 0.72988 0.0
C188 C 0.74486 0.69284 0.72136 0.0
C189 C 0.81641 0.88469 0.77134 0.0
C190 C 0.9071 0.75361 0.76844 0.0
C191 C 0.78697 0.76442 0.87307 0.0
O192 O 0.80257 0.79988 0.85486 0.0
O193 O 0.78444 0.72686 0.85026 0.0
O194 O 0.84863 0.8785 0.80406 0.0
O195 O 0.7921 0.85 0.74812 0.0
O196 O 0.66999 0.27529 0.26389 0.0
Cd197 Cd 0.7451 0.28796 0.27509 0.0
Cd198 Cd 0.737 0.19531 0.28575 0.0
O199 O 0.66357 0.20303 0.27147 0.0
O200 O 0.76992 0.34032 0.24137 0.0
O201 O 0.78664 0.27206 0.22364 0.0
C202 C 0.79116 0.31356 0.21521 0.0
C203 C 0.75797 0.12357 0.27017 0.0
C204 C 0.64374 0.23784 0.2644 0.0
C205 C 0.78209 0.26297 0.36678 0.0
O206 O 0.77228 0.22347 0.34834 0.0
O207 O 0.77287 0.29574 0.3442 0.0
O208 O 0.73153 0.13289 0.30359 0.0
O209 O 0.77131 0.15459 0.24353 0.0
O210 O 0.53572 0.53473 0.38009 0.0
Cd211 Cd 0.51445 0.53146 0.44737 0.0
Cd212 Cd 0.49972 0.44179 0.42345 0.0
O213 O 0.52508 0.46237 0.36155 0.0
O214 O 0.5466 0.58523 0.48639 0.0
O215 O 0.56093 0.5168 0.49906 0.0
C216 C 0.56922 0.55901 0.51106 0.0
C217 C 0.52175 0.37476 0.44748 0.0
C218 C 0.53721 0.50185 0.35064 0.0
C219 C 0.41228 0.48792 0.44938 0.0
O220 O 0.42961 0.45252 0.43727 0.0
O221 O 0.44024 0.52471 0.45592 0.0
O222 O 0.4891 0.37581 0.4134 0.0
O223 O 0.54318 0.41197 0.46796 0.0
H224 H 0.17567 0.10092 0.19996 0.0
H225 H 0.15434 0.23229 0.16179 0.0
H226 H 0.09876 0.20005 0.09456 0.0
H227 H 0.05656 0.13471 0.04638 0.0
H228 H 0.07645 0.00326 0.08519 0.0
H229 H 0.13238 0.03545 0.15234 0.0
C230 C 0.15883 0.12254 0.17699 0.0
C231 C 0.16926 0.169 0.18594 0.0
C232 C 0.12675 0.10377 0.13843 0.0
C233 C 0.14695 0.19645 0.15584 0.0
C234 C 0.11521 0.17804 0.11729 0.0
C235 C 0.07321 0.11304 0.06942 0.0
C236 C 0.06245 0.0666 0.06061 0.0
C237 C 0.10496 0.13176 0.10818 0.0
C238 C 0.0841 0.03909 0.09109 0.0
C239 C 0.11609 0.05748 0.12952 0.0
H240 H 0.04168 0.87182 0.38953 0.0
H241 H 0.15356 0.96435 0.46945 0.0
H242 H 0.21774 0.92576 0.43662 0.0
H243 H 0.24144 0.86175 0.38983 0.0
H244 H 0.13016 0.7738 0.30392 0.0
H245 H 0.06612 0.81456 0.3339 0.0
C246 C 0.08018 0.88379 0.39911 0.0
C247 C 0.09312 0.92048 0.43206 0.0
C248 C 0.11678 0.86214 0.37916 0.0
C249 C 0.14295 0.93618 0.444 0.0
C250 C 0.17956 0.914 0.42545 0.0
C251 C 0.20319 0.85213 0.37723 0.0
C252 C 0.19017 0.81486 0.3451 0.0
C253 C 0.16687 0.87641 0.39371 0.0
C254 C 0.14076 0.8026 0.32855 0.0
C255 C 0.10423 0.82571 0.34587 0.0
H256 H 0.44351 0.96217 0.58168 0.0
H257 H 0.43709 0.83291 0.50772 0.0
H258 H 0.40309 0.79774 0.57417 0.0
H259 H 0.37462 0.80346 0.65322 0.0
H260 H 0.37971 0.93265 0.72683 0.0
H261 H 0.41524 0.96786 0.66095 0.0
C262 C 0.43444 0.92633 0.57999 0.0
C263 C 0.44275 0.90031 0.53962 0.0
C264 C 0.41504 0.90618 0.6185 0.0
C265 C 0.43101 0.85385 0.53822 0.0
C266 C 0.41167 0.83362 0.57632 0.0
C267 C 0.38397 0.83928 0.65506 0.0
C268 C 0.37468 0.86532 0.69501 0.0
C269 C 0.40367 0.85942 0.6167 0.0
C270 C 0.38651 0.91176 0.69654 0.0
C271 C 0.40671 0.93198 0.6588 0.0
H272 H 0.40095 0.05652 0.81553 0.0
H273 H 0.39659 0.07295 0.96559 0.0
H274 H 0.3659 0.14425 0.95879 0.0
H275 H 0.34191 0.20279 0.91054 0.0
H276 H 0.34577 0.18632 0.76046 0.0
H277 H 0.37541 0.11448 0.7671 0.0
C278 C 0.39291 0.07549 0.84675 0.0
C279 C 0.40105 0.05924 0.89102 0.0
C280 C 0.37564 0.11675 0.84266 0.0
C281 C 0.3906 0.08448 0.93106 0.0
C282 C 0.37322 0.12541 0.92724 0.0
C283 C 0.34946 0.18362 0.87926 0.0
C284 C 0.34189 0.20016 0.83508 0.0
C285 C 0.36603 0.14208 0.88327 0.0
C286 C 0.35142 0.17456 0.79493 0.0
C287 C 0.36827 0.13337 0.79867 0.0
H288 H 0.68886 0.3443 0.80874 0.0
H289 H 0.67681 0.2449 0.9088 0.0
H290 H 0.61013 0.27826 0.94289 0.0
H291 H 0.55849 0.3375 0.94725 0.0
H292 H 0.57449 0.44173 0.85293 0.0
H293 H 0.63624 0.4048 0.8135 0.0
C294 C 0.67122 0.32988 0.83774 0.0
C295 C 0.68754 0.2922 0.85627 0.0
C296 C 0.63384 0.35021 0.85828 0.0
C297 C 0.66497 0.27404 0.89419 0.0
C298 C 0.62683 0.29305 0.91364 0.0
C299 C 0.57501 0.35196 0.91771 0.0
C300 C 0.56168 0.39215 0.90285 0.0
C301 C 0.61142 0.33141 0.89639 0.0
C302 C 0.58405 0.41075 0.86497 0.0
C303 C 0.6194 0.38967 0.84249 0.0
H304 H 0.91472 0.35368 0.04217 0.0
H305 H 0.89344 0.48795 0.08595 0.0
H306 H 0.84559 0.46077 0.14901 0.0
H307 H 0.81123 0.39909 0.19273 0.0
H308 H 0.83439 0.26502 0.15016 0.0
H309 H 0.8802 0.29199 0.08576 0.0
C310 C 0.89933 0.37701 0.06528 0.0
C311 C 0.90756 0.42281 0.0592 0.0
C312 C 0.87244 0.36122 0.1019 0.0
C313 C 0.88767 0.45255 0.08977 0.0
C314 C 0.86035 0.43703 0.12592 0.0
C315 C 0.82625 0.37571 0.16937 0.0
C316 C 0.81936 0.33006 0.17637 0.0
C317 C 0.85279 0.39148 0.13251 0.0
C318 C 0.8392 0.30032 0.14573 0.0
C319 C 0.86535 0.31571 0.1088 0.0
H320 H 0.95407 0.56933 0.34035 0.0
H321 H 0.9379 0.59037 0.4883 0.0
H322 H 0.89128 0.65184 0.47376 0.0
H323 H 0.85485 0.69952 0.41916 0.0
H324 H 0.8702 0.67815 0.27112 0.0
H325 H 0.91763 0.61714 0.28568 0.0
C326 C 0.94027 0.58727 0.36944 0.0
C327 C 0.94947 0.57511 0.41537 0.0
C328 C 0.91351 0.6227 0.36085 0.0
C329 C 0.93134 0.59887 0.4526 0.0
C330 C 0.90472 0.63413 0.44433 0.0
C331 C 0.86875 0.6817 0.39005 0.0
C332 C 0.85903 0.69354 0.3441 0.0
C333 C 0.89564 0.64637 0.39863 0.0
C334 C 0.87715 0.66983 0.30684 0.0
C335 C 0.90422 0.63485 0.31513 0.0
H336 H 0.59464 0.64565 0.54291 0.0
H337 H 0.62023 0.51274 0.57168 0.0
H338 H 0.67591 0.54247 0.6398 0.0
H339 H 0.7177 0.60611 0.69079 0.0
H340 H 0.69288 0.73908 0.66151 0.0
H341 H 0.6363 0.70929 0.59402 0.0
C342 C 0.61238 0.62313 0.56405 0.0
C343 C 0.60328 0.57701 0.55214 0.0
C344 C 0.6444 0.64044 0.60312 0.0
C345 C 0.62661 0.54837 0.57996 0.0
C346 C 0.65843 0.56533 0.61897 0.0
C347 C 0.6998 0.62862 0.66978 0.0
C348 C 0.70949 0.67478 0.68126 0.0
C349 C 0.6676 0.6113 0.63084 0.0
C350 C 0.6861 0.70342 0.6535 0.0
C351 C 0.65376 0.68642 0.61486 0.0
H352 H 0.27537 0.21185 0.44704 0.0
H353 H 0.17606 0.30756 0.41969 0.0
H354 H 0.16915 0.3216 0.50346 0.0
H355 H 0.19844 0.31312 0.58387 0.0
H356 H 0.30178 0.22121 0.6131 0.0
H357 H 0.30015 0.19914 0.52921 0.0
C358 C 0.2513 0.23486 0.45957 0.0
C359 C 0.22609 0.25857 0.42749 0.0
C360 C 0.24906 0.24408 0.50801 0.0
C361 C 0.1957 0.28895 0.44392 0.0
C362 C 0.19199 0.29717 0.49175 0.0
C363 C 0.22042 0.28801 0.57206 0.0
C364 C 0.25072 0.26928 0.60462 0.0
C365 C 0.21975 0.27604 0.52406 0.0
C366 C 0.27842 0.23637 0.58868 0.0
C367 C 0.27749 0.22376 0.54074 0.0
H368 H 0.03581 0.0345 0.82055 0.0
H369 H 0.97112 0.89683 0.80259 0.0
H370 H 0.98425 0.89456 0.71958 0.0
H371 H 0.00554 0.93371 0.65061 0.0
H372 H 0.06825 0.07188 0.66809 0.0
H373 H 0.0653 0.07142 0.75264 0.0
C374 C 0.02519 0.00381 0.79865 0.0
C375 C 0.00194 0.96615 0.81783 0.0
C376 C 0.03235 0.00274 0.75067 0.0
C377 C 0.9888 0.92653 0.78887 0.0
C378 C 0.99621 0.92514 0.74126 0.0
C379 C 0.01949 0.96351 0.67291 0.0
C380 C 0.03645 0.00289 0.65282 0.0
C381 C 0.01675 0.96336 0.72154 0.0
C382 C 0.05454 0.04114 0.68245 0.0
C383 C 0.0527 0.04101 0.73089 0.0
H384 H 0.33023 0.7059 0.92823 0.0
H385 H 0.31736 0.84573 0.94595 0.0
H386 H 0.31192 0.84027 0.03036 0.0
H387 H 0.30407 0.79365 0.09796 0.0
H388 H 0.31764 0.65392 0.0773 0.0
H389 H 0.32878 0.66143 0.99496 0.0
C390 C 0.32647 0.73536 0.9505 0.0
C391 C 0.32352 0.77603 0.93079 0.0
C392 C 0.32251 0.73177 0.99833 0.0
C393 C 0.31972 0.81401 0.9603 0.0
C394 C 0.31615 0.81078 0.00845 0.0
C395 C 0.30924 0.76492 0.07528 0.0
C396 C 0.30917 0.72315 0.09358 0.0
C397 C 0.31619 0.7695 0.02765 0.0
C398 C 0.31703 0.68636 0.06408 0.0
C399 C 0.32346 0.69057 0.01694 0.0
H400 H 0.47829 0.92443 0.28957 0.0
H401 H 0.45555 0.06215 0.3035 0.0
H402 H 0.44918 0.06414 0.21829 0.0
H403 H 0.46 0.02883 0.14005 0.0
H404 H 0.49163 0.89349 0.12862 0.0
H405 H 0.48435 0.88828 0.21215 0.0
C406 C 0.47065 0.95453 0.27392 0.0
C407 C 0.46728 0.99299 0.30268 0.0
C408 C 0.46944 0.95602 0.22516 0.0
C409 C 0.45825 0.03204 0.28195 0.0
C410 C 0.4549 0.03328 0.23326 0.0
C411 C 0.46462 0.99817 0.15596 0.0
C412 C 0.47678 0.96177 0.12855 0.0
C413 C 0.46205 0.99586 0.20453 0.0
C414 C 0.48295 0.92216 0.14932 0.0
C415 C 0.47863 0.91907 0.19702 0.0
H416 H 0.41328 0.19722 0.26547 0.0
H417 H 0.42765 0.34057 0.27194 0.0
H418 H 0.51595 0.34398 0.26567 0.0
H419 H 0.58955 0.30662 0.26242 0.0
H420 H 0.57563 0.16339 0.25832 0.0
H421 H 0.4866 0.1597 0.25921 0.0
C422 C 0.43559 0.22924 0.26518 0.0
C423 C 0.41372 0.26857 0.26935 0.0
C424 C 0.48649 0.23103 0.26206 0.0
C425 C 0.44339 0.30974 0.26893 0.0
C426 C 0.49396 0.31175 0.26536 0.0
C427 C 0.56709 0.27452 0.26121 0.0
C428 C 0.58942 0.23536 0.26041 0.0
C429 C 0.51597 0.27264 0.26247 0.0
C430 C 0.55956 0.1941 0.25904 0.0
C431 C 0.50859 0.19194 0.25965 0.0
H432 H 0.9957 0.34639 0.54381 0.0
H433 H 0.01103 0.33597 0.39523 0.0
H434 H 0.01597 0.25614 0.39743 0.0
H435 H 0.02055 0.19008 0.44328 0.0
H436 H 0.00494 0.20321 0.59188 0.0
H437 H 0.99674 0.28156 0.58814 0.0
C438 C -0.00033 0.32666 0.5117 0.0
C439 C 0.0033 0.34711 0.46948 0.0
C440 C 0.00353 0.28145 0.51349 0.0
C441 C 0.00782 0.32094 0.42815 0.0
C442 C 0.01125 0.27543 0.42954 0.0
C443 C 0.01598 0.21037 0.4748 0.0
C444 C 0.01406 0.19111 0.51792 0.0
C445 C 0.01026 0.25553 0.47227 0.0
C446 C 0.00692 0.21738 0.55837 0.0
C447 C 0.00193 0.26211 0.55625 0.0
H448 H 0.98152 0.81801 0.75503 0.0
H449 H 0.94868 0.67647 0.76442 0.0
H450 H 0.03513 0.66826 0.75842 0.0
H451 H 0.12084 0.70199 0.75689 0.0
H452 H 0.15344 0.84382 0.74924 0.0
H453 H 0.06616 0.85094 0.74751 0.0
C454 C 0.99311 0.78529 0.75537 0.0
C455 C 0.95865 0.74804 0.76064 0.0
C456 C 0.04288 0.78079 0.75224 0.0
C457 C 0.97438 0.70581 0.76063 0.0
C458 C 0.02386 0.70104 0.75723 0.0
C459 C 0.10885 0.73437 0.75408 0.0
C460 C 0.14378 0.77232 0.75362 0.0
C461 C 0.05856 0.73841 0.7539 0.0
C462 C 0.12746 0.81404 0.74999 0.0
C463 C 0.07751 0.81821 0.74912 0.0
H464 H 0.46019 0.6648 0.91501 0.0
H465 H 0.45571 0.68376 0.06499 0.0
H466 H 0.4461 0.76143 0.05899 0.0
H467 H 0.44281 0.82461 0.01263 0.0
H468 H 0.4464 0.80876 0.86264 0.0
H469 H 0.45085 0.72894 0.86695 0.0
C470 C 0.45738 0.6861 0.94627 0.0
C471 C 0.45952 0.66862 0.99047 0.0
C472 C 0.45124 0.73111 0.94259 0.0
C473 C 0.45471 0.69635 0.03061 0.0
C474 C 0.44917 0.74084 0.02728 0.0
C475 C 0.44431 0.80374 0.98071 0.0
C476 C 0.44481 0.82267 0.93743 0.0
C477 C 0.44788 0.75859 0.98362 0.0
C478 C 0.44581 0.79497 0.89639 0.0
C479 C 0.44891 0.74946 0.89895 0.0
H480 H 0.61293 0.78757 0.34884 0.0
H481 H 0.61517 0.68539 0.23749 0.0
H482 H 0.52573 0.6696 0.23296 0.0
H483 H 0.44768 0.68985 0.25445 0.0
H484 H 0.44259 0.79486 0.36222 0.0
H485 H 0.53264 0.80451 0.37468 0.0
C486 C 0.59369 0.76118 0.32448 0.0
C487 C 0.62022 0.73759 0.29349 0.0
C488 C 0.54202 0.75336 0.32092 0.0
C489 C 0.59523 0.70392 0.26152 0.0
C490 C 0.54422 0.69502 0.25881 0.0
C491 C 0.46607 0.71485 0.28086 0.0
C492 C 0.43855 0.74215 0.30681 0.0
C493 C 0.51732 0.72048 0.28725 0.0
C494 C 0.46302 0.77367 0.34152 0.0
C495 C 0.51445 0.77918 0.34859 0.0
H496 H 0.59898 0.19166 0.46797 0.0
H497 H 0.44612 0.15175 0.48712 0.0
H498 H 0.43044 0.2291 0.48642 0.0
H499 H 0.45846 0.30635 0.4701 0.0
H500 H 0.61189 0.34709 0.45506 0.0
H501 H 0.62942 0.27095 0.46428 0.0
C502 C 0.56248 0.20012 0.47299 0.0
C503 C 0.52359 0.1662 0.47707 0.0
C504 C 0.55388 0.24458 0.47271 0.0
C505 C 0.47659 0.1774 0.48406 0.0
C506 C 0.46756 0.22153 0.48325 0.0
C507 C 0.49585 0.29856 0.46991 0.0
C508 C 0.53388 0.33173 0.46162 0.0
C509 C 0.50561 0.25511 0.47606 0.0
C510 C 0.58226 0.32184 0.46163 0.0
C511 C 0.59217 0.2784 0.46671 0.0
H512 H 0.10729 0.3264 0.7428 0.0
H513 H 0.13174 0.27938 0.87977 0.0
H514 H 0.04315 0.27256 0.88886 0.0
H515 H 0.95802 0.27243 0.85351 0.0
H516 H 0.93646 0.31704 0.71502 0.0
H517 H 0.02491 0.33259 0.71102 0.0
C518 C 0.09345 0.31473 0.77481 0.0
C519 C 0.1259 0.30254 0.81016 0.0
C520 C 0.04296 0.31057 0.7795 0.0
C521 C 0.10737 0.28851 0.8518 0.0
C522 C 0.05677 0.28464 0.85699 0.0
C523 C 0.97286 0.28684 0.82318 0.0
C524 C 0.94096 0.29346 0.78454 0.0
C525 C 0.02408 0.29468 0.82058 0.0
C526 C 0.96043 0.3115 0.74507 0.0
C527 C 0.01095 0.32014 0.74263 0.0
H528 H 0.02307 0.83346 0.01598 0.0
H529 H 0.86807 0.79452 0.98104 0.0
H530 H 0.87699 0.71761 0.99576 0.0
H531 H 0.92995 0.66031 0.0082 0.0
H532 H 0.08648 0.69762 0.03342 0.0
H533 H 0.07584 0.77629 0.03464 0.0
C534 C 0.99109 0.8083 0.01302 0.0
C535 C 0.94498 0.81929 0.99736 0.0
C536 C 0.99677 0.76388 0.01993 0.0
C537 C 0.90387 0.78646 0.99285 0.0
C538 C 0.90888 0.74265 0.00136 0.0
C539 C 0.96149 0.68577 0.01536 0.0
C540 C 0.00882 0.67345 0.02083 0.0
C541 C 0.95532 0.7307 0.01344 0.0
C542 C 0.04964 0.70656 0.02915 0.0
C543 C 0.04359 0.75148 0.02958 0.0
H544 H 0.24234 0.44869 0.34518 0.0
H545 H 0.22623 0.41544 0.19619 0.0
H546 H 0.21644 0.49279 0.18292 0.0
H547 H 0.22306 0.57113 0.21406 0.0
H548 H 0.23921 0.60312 0.36379 0.0
H549 H 0.23716 0.52478 0.37632 0.0
C550 C 0.23618 0.45834 0.30986 0.0
C551 C 0.23597 0.42687 0.27168 0.0
C552 C 0.23058 0.50255 0.30269 0.0
C553 C 0.22679 0.43931 0.22606 0.0
C554 C 0.22138 0.48349 0.21854 0.0
C555 C 0.22509 0.56093 0.24951 0.0
C556 C 0.23223 0.59324 0.28791 0.0
C557 C 0.22469 0.51565 0.25662 0.0
C558 C 0.23415 0.57922 0.33354 0.0
C559 C 0.23331 0.53431 0.34083 0.0
H560 H 0.76027 0.06934 0.7108 0.0
H561 H 0.82724 0.11035 0.85018 0.0
H562 H 0.84404 0.03502 0.86062 0.0
H563 H 0.84156 0.95801 0.83022 0.0
H564 H 0.7685 0.91353 0.69419 0.0
H565 H 0.75226 0.9896 0.68229 0.0
C566 C 0.77788 0.06153 0.74364 0.0
C567 C 0.79247 0.09549 0.77961 0.0
C568 C 0.78649 0.01759 0.74999 0.0
C569 C 0.81516 0.08487 0.82207 0.0
C570 C 0.82503 0.04177 0.82806 0.0
C571 C 0.82181 0.96482 0.79802 0.0
C572 C 0.80641 0.93026 0.76307 0.0
C573 C 0.81119 0.008 0.79222 0.0
C574 C 0.7808 0.93964 0.7216 0.0
C575 C 0.77144 0.98308 0.71486 0.0
H576 H 0.32459 0.51654 0.04293 0.0
H577 H 0.31279 0.40827 0.93579 0.0
H578 H 0.22282 0.40009 0.93542 0.0
H579 H 0.14787 0.42956 0.96025 0.0
H580 H 0.16263 0.53908 0.06641 0.0
H581 H 0.25151 0.54027 0.07321 0.0
C582 C 0.30249 0.49095 0.01949 0.0
C583 C 0.32521 0.46392 0.98839 0.0
C584 C 0.25139 0.48658 0.01957 0.0
C585 C 0.29607 0.43009 0.95938 0.0
C586 C 0.2447 0.42539 0.95926 0.0
C587 C 0.17054 0.45293 0.98561 0.0
C588 C 0.14887 0.48448 0.01252 0.0
C589 C 0.22195 0.45422 0.98846 0.0
C590 C 0.17857 0.51476 0.04506 0.0
C591 C 0.22936 0.51558 0.04885 0.0
H592 H 0.78004 0.07185 0.33864 0.0
H593 H 0.76975 0.07542 0.18854 0.0
H594 H 0.78498 0.9976 0.17981 0.0
H595 H 0.79297 0.92691 0.2153 0.0
H596 H 0.80557 0.92529 0.36596 0.0
H597 H 0.79925 0.00458 0.37376 0.0
C598 C 0.78158 0.05565 0.304 0.0
C599 C 0.77293 0.07881 0.26421 0.0
C600 C 0.7909 0.01141 0.2994 0.0
C601 C 0.77604 0.05799 0.2196 0.0
C602 C 0.78461 0.01356 0.21467 0.0
C603 C 0.79509 0.94401 0.24993 0.0
C604 C 0.799 0.9199 0.28998 0.0
C605 C 0.79092 0.98965 0.25437 0.0
C606 C 0.80238 0.94279 0.33453 0.0
C607 C 0.79833 0.98809 0.33913 0.0
H608 H 0.78986 0.96257 0.8946 0.0
H609 H 0.82307 0.05091 0.01965 0.0
H610 H 0.73545 0.05893 0.02202 0.0
H611 H 0.64886 0.03458 0.99172 0.0
H612 H 0.61863 0.95115 0.8624 0.0
H613 H 0.70622 0.94881 0.85734 0.0
C614 C 0.77795 0.98425 0.92182 0.0
C615 C 0.81228 0.00576 0.95715 0.0
C616 C 0.72831 0.98968 0.92197 0.0
C617 C 0.79689 0.034 0.9922 0.0
C618 C 0.74696 0.03846 0.99355 0.0
C619 C 0.66159 0.01659 0.96205 0.0
C620 C 0.6273 0.99251 0.92789 0.0
C621 C 0.7122 0.01561 0.9591 0.0
C622 C 0.64422 0.96988 0.88922 0.0
C623 C 0.69428 0.96818 0.88645 0.0
H624 H 0.32312 0.59601 0.8406 0.0
H625 H 0.31823 0.59953 0.69068 0.0
H626 H 0.33122 0.52109 0.68266 0.0
H627 H 0.33241 0.4497 0.71819 0.0
H628 H 0.33983 0.44749 0.86862 0.0
H629 H 0.33909 0.52766 0.87677 0.0
C630 C 0.32569 0.57965 0.80625 0.0
C631 C 0.31887 0.60288 0.76616 0.0
C632 C 0.33365 0.53497 0.80212 0.0
C633 C 0.32316 0.58199 0.72188 0.0
C634 C 0.33042 0.53721 0.71738 0.0
C635 C 0.33508 0.46687 0.75283 0.0
C636 C 0.33487 0.44231 0.79275 0.0
C637 C 0.33413 0.51304 0.75721 0.0
C638 C 0.33928 0.4653 0.83732 0.0
C639 C 0.33847 0.5112 0.84199 0.0
H640 H 0.18163 0.44929 0.44565 0.0
H641 H 0.20006 0.58273 0.51071 0.0
H642 H 0.28963 0.58767 0.50688 0.0
H643 H 0.36226 0.55329 0.48456 0.0
H644 H 0.34188 0.41762 0.42381 0.0
H645 H 0.25355 0.41384 0.42755 0.0
C646 C 0.20542 0.4795 0.45873 0.0
C647 C 0.18488 0.51595 0.47752 0.0
C648 C 0.2564 0.48136 0.45785 0.0
C649 C 0.21556 0.5546 0.49553 0.0
C650 C 0.26654 0.55727 0.49346 0.0
C651 C 0.33847 0.52293 0.47219 0.0
C652 C 0.3588 0.48591 0.45375 0.0
C653 C 0.28738 0.5208 0.47462 0.0
C654 C 0.32742 0.44666 0.43824 0.0
C655 C 0.27679 0.44441 0.44024 0.0
H656 H 0.79136 0.70306 0.93776 0.0
H657 H 0.75375 0.83435 0.91806 0.0
H658 H 0.73979 0.84485 0.0006 0.0
H659 H 0.74298 0.81897 0.07899 0.0
H660 H 0.78802 0.69111 0.102 0.0
H661 H 0.79406 0.67671 0.01758 0.0
C662 C 0.77929 0.73358 0.95151 0.0
C663 C 0.77353 0.76785 0.9219 0.0
C664 C 0.77309 0.74012 0.9996 0.0
C665 C 0.75867 0.80757 0.94021 0.0
C666 C 0.75077 0.81367 0.98742 0.0
C667 C 0.75398 0.78786 0.0655 0.0
C668 C 0.765 0.75609 0.09643 0.0
C669 C 0.75878 0.78056 0.01752 0.0
C670 C 0.77969 0.71615 0.0787 0.0
C671 C 0.78288 0.70788 0.03051 0.0
H672 H 0.54754 0.43981 0.28053 0.0
H673 H 0.55112 0.58125 0.31075 0.0
H674 H 0.55481 0.59246 0.22771 0.0
H675 H 0.54498 0.56108 0.14602 0.0
H676 H 0.53897 0.41934 0.11606 0.0
H677 H 0.54899 0.40957 0.19952 0.0
C678 C 0.54985 0.47321 0.26913 0.0
C679 C 0.54811 0.5095 0.30183 0.0
C680 C 0.5511 0.47941 0.22125 0.0
C681 C 0.55188 0.55259 0.28639 0.0
C682 C 0.55381 0.55907 0.23882 0.0
C683 C 0.54692 0.52813 0.15761 0.0
C684 C 0.5403 0.49095 0.12468 0.0
C685 C 0.55165 0.52256 0.2058 0.0
C686 C 0.54338 0.44857 0.14051 0.0
C687 C 0.5489 0.44286 0.18833 0.0
H688 H 0.73252 0.29581 0.4357 0.0
H689 H 0.86442 0.23894 0.40915 0.0
H690 H 0.87943 0.22902 0.49253 0.0
H691 H 0.84938 0.22784 0.57037 0.0
H692 H 0.71483 0.28056 0.59724 0.0
H693 H 0.70615 0.30068 0.51622 0.0
C694 C 0.76534 0.28268 0.44866 0.0
C695 C 0.79786 0.26874 0.41691 0.0
C696 C 0.77229 0.27508 0.49624 0.0
C697 C 0.83948 0.25044 0.43339 0.0
C698 C 0.84765 0.24428 0.48084 0.0
C699 C 0.81808 0.24375 0.55861 0.0
C700 C 0.78226 0.25193 0.58953 0.0
C701 C 0.81327 0.25489 0.51216 0.0
C702 C 0.74253 0.27337 0.57393 0.0
C703 C 0.73762 0.28494 0.52766 0.0
H704 H 0.00055 0.55546 0.67256 0.0
H705 H 0.01722 0.41622 0.66053 0.0
H706 H 0.99816 0.40977 0.74152 0.0
H707 H 0.98505 0.44431 0.81747 0.0
H708 H 0.97739 0.58509 0.83378 0.0
H709 H 0.98366 0.59016 0.7496 0.0
C710 C -0.0007 0.52371 0.68771 0.0
C711 C 0.01045 0.48644 0.66094 0.0
C712 C 0.99007 0.52043 0.73507 0.0
C713 C 0.00922 0.44545 0.68078 0.0
C714 C 0.99822 0.44161 0.72697 0.0
C715 C 0.98369 0.47594 0.80248 0.0
C716 C 0.9806 0.51417 0.83169 0.0
C717 C 0.98972 0.47899 0.75473 0.0
C718 C 0.97977 0.55512 0.81188 0.0
C719 C 0.98362 0.55809 0.76382 0.0
H720 H 0.83342 0.93771 0.47274 0.0
H721 H 0.86329 0.08025 0.46908 0.0
H722 H 0.77588 0.08535 0.46023 0.0
H723 H 0.69145 0.0506 0.4567 0.0
H724 H 0.65867 0.90834 0.45953 0.0
H725 H 0.74674 0.90194 0.46546 0.0
C726 C 0.82068 0.96972 0.46939 0.0
C727 C 0.85485 0.00851 0.47189 0.0
C728 C 0.76993 0.97263 0.46475 0.0
C729 C 0.83782 0.04986 0.46769 0.0
C730 C 0.78779 0.05292 0.46276 0.0
C731 C 0.70335 0.0181 0.45884 0.0
C732 C 0.6685 0.9801 0.45825 0.0
C733 C 0.75362 0.01468 0.46201 0.0
C734 C 0.68478 0.93823 0.4603 0.0
C735 C 0.73511 0.93453 0.46359 0.0
loop_
_geom_bond_atom_site_label_1
_geom_bond_atom_site_label_2
_geom_bond_distance
_geom_bond_site_symmetry_2
_ccdc_geom_bond_type
O0 Cd1 2.223 . S
O0 C8 1.315 . S
Cd1 O0 2.223 . S
Cd1 O4 2.297 . S
Cd1 O5 2.439 . S
Cd1 O11 2.240 . S
Cd2 O3 2.240 . S
Cd2 O10 2.223 . S
Cd2 O12 2.297 . S
Cd2 O13 2.439 . S
O3 Cd2 2.240 . S
O3 C8 1.279 . S
O4 Cd1 2.297 . S
O4 C6 1.247 . S
O5 Cd1 2.439 . S
O5 C6 1.208 . S
C6 O4 1.247 . S
C6 O5 1.208 . S
C7 O12 1.247 . S
C7 O13 1.208 . S
C8 O0 1.315 . S
C8 O3 1.279 . S
C9 O10 1.315 . S
C9 O11 1.279 . S
O10 Cd2 2.223 . S
O10 C9 1.315 . S
O11 Cd1 2.240 . S
O11 C9 1.279 . S
O12 Cd2 2.297 . S
O12 C7 1.247 . S
O13 Cd2 2.439 . S
O13 C7 1.208 . S
O14 Cd15 2.223 . S
O14 C22 1.315 . S
Cd15 O14 2.223 . S
Cd15 O18 2.297 1_655 S
Cd15 O19 2.439 1_665 S
Cd15 O25 2.240 1_565 S
Cd16 O17 2.240 1_655 S
Cd16 O24 2.223 . S
Cd16 O26 2.297 . S
Cd16 O27 2.439 1_655 S
O17 Cd16 2.240 1_455 S
O17 C22 1.279 1_445 S
O18 Cd15 2.297 1_455 S
O18 C20 1.247 . S
O19 Cd15 2.439 1_445 S
O19 C20 1.208 1_545 S
C20 O18 1.247 . S
C20 O19 1.208 1_565 S
C21 O26 1.247 . S
C21 O27 1.208 1_655 S
C22 O14 1.315 . S
C22 O17 1.279 1_665 S
C23 O24 1.315 . S
C23 O25 1.279 . S
O24 Cd16 2.223 . S
O24 C23 1.315 . S
O25 Cd15 2.240 1_545 S
O25 C23 1.279 . S
O26 Cd16 2.297 . S
O26 C21 1.247 . S
O27 Cd16 2.439 1_455 S
O27 C21 1.208 1_455 S
O28 Cd29 2.223 . S
O28 C36 1.315 . S
Cd29 O28 2.223 . S
Cd29 O32 2.297 . S
Cd29 O33 2.439 . S
Cd29 O39 2.240 . S
Cd30 O31 2.240 . S
Cd30 O38 2.223 . S
Cd30 O40 2.297 . S
Cd30 O41 2.439 . S
O31 Cd30 2.240 . S
O31 C36 1.279 . S
O32 Cd29 2.297 . S
O32 C34 1.247 . S
O33 Cd29 2.439 . S
O33 C34 1.208 . S
C34 O32 1.247 . S
C34 O33 1.208 . S
C35 O40 1.247 . S
C35 O41 1.208 . S
C36 O28 1.315 . S
C36 O31 1.279 . S
C37 O38 1.315 . S
C37 O39 1.279 . S
O38 Cd30 2.223 . S
O38 C37 1.315 . S
O39 Cd29 2.240 . S
O39 C37 1.279 . S
O40 Cd30 2.297 . S
O40 C35 1.247 . S
O41 Cd30 2.439 . S
O41 C35 1.208 . S
O42 Cd43 2.223 . S
O42 C50 1.315 . S
Cd43 O42 2.223 . S
Cd43 O46 2.297 . S
Cd43 O47 2.439 1_565 S
Cd43 O53 2.240 . S
Cd44 O45 2.240 1_554 S
Cd44 O52 2.223 . S
Cd44 O54 2.297 . S
Cd44 O55 2.439 . S
O45 Cd44 2.240 1_556 S
O45 C50 1.279 . S
O46 Cd43 2.297 . S
O46 C48 1.247 1_565 S
O47 Cd43 2.439 1_545 S
O47 C48 1.208 . S
C48 O46 1.247 1_545 S
C48 O47 1.208 . S
C49 O54 1.247 . S
C49 O55 1.208 . S
C50 O42 1.315 . S
C50 O45 1.279 . S
C51 O52 1.315 . S
C51 O53 1.279 1_554 S
O52 Cd44 2.223 . S
O52 C51 1.315 . S
O53 Cd43 2.240 . S
O53 C51 1.279 1_556 S
O54 Cd44 2.297 . S
O54 C49 1.247 . S
O55 Cd44 2.439 . S
O55 C49 1.208 . S
O56 Cd57 2.223 . S
O56 C64 1.315 . S
Cd57 O56 2.223 . S
Cd57 O60 2.297 . S
Cd57 O61 2.439 . S
Cd57 O67 2.240 . S
Cd58 O59 2.240 . S
Cd58 O66 2.223 . S
Cd58 O68 2.297 . S
Cd58 O69 2.439 . S
O59 Cd58 2.240 . S
O59 C64 1.279 . S
O60 Cd57 2.297 . S
O60 C62 1.247 . S
O61 Cd57 2.439 . S
O61 C62 1.208 . S
C62 O60 1.247 . S
C62 O61 1.208 . S
C63 O68 1.247 . S
C63 O69 1.208 . S
C64 O56 1.315 . S
C64 O59 1.279 . S
C65 O66 1.315 . S
C65 O67 1.279 . S
O66 Cd58 2.223 . S
O66 C65 1.315 . S
O67 Cd57 2.240 . S
O67 C65 1.279 . S
O68 Cd58 2.297 . S
O68 C63 1.247 . S
O69 Cd58 2.439 . S
O69 C63 1.208 . S
O70 Cd71 2.223 . S
O70 C78 1.315 . S
Cd71 O70 2.223 . S
Cd71 O74 2.297 . S
Cd71 O75 2.439 . S
Cd71 O81 2.240 1_565 S
Cd72 O73 2.240 1_545 S
Cd72 O80 2.223 . S
Cd72 O82 2.297 . S
Cd72 O83 2.439 . S
O73 Cd72 2.240 1_565 S
O73 C78 1.279 . S
O74 Cd71 2.297 . S
O74 C76 1.247 . S
O75 Cd71 2.439 . S
O75 C76 1.208 . S
C76 O74 1.247 . S
C76 O75 1.208 . S
C77 O82 1.247 . S
C77 O83 1.208 . S
C78 O70 1.315 . S
C78 O73 1.279 . S
C79 O80 1.315 . S
C79 O81 1.279 . S
O80 Cd72 2.223 . S
O80 C79 1.315 . S
O81 Cd71 2.240 1_545 S
O81 C79 1.279 . S
O82 Cd72 2.297 . S
O82 C77 1.247 . S
O83 Cd72 2.439 . S
O83 C77 1.208 . S
O84 Cd85 2.223 . S
O84 C92 1.315 . S
Cd85 O84 2.223 . S
Cd85 O88 2.297 . S
Cd85 O89 2.439 . S
Cd85 O95 2.240 . S
Cd86 O87 2.240 . S
Cd86 O94 2.223 . S
Cd86 O96 2.297 . S
Cd86 O97 2.439 . S
O87 Cd86 2.240 . S
O87 C92 1.279 . S
O88 Cd85 2.297 . S
O88 C90 1.247 . S
O89 Cd85 2.439 . S
O89 C90 1.208 . S
C90 O88 1.247 . S
C90 O89 1.208 . S
C91 O96 1.247 . S
C91 O97 1.208 . S
C92 O84 1.315 . S
C92 O87 1.279 . S
C93 O94 1.315 . S
C93 O95 1.279 . S
O94 Cd86 2.223 . S
O94 C93 1.315 . S
O95 Cd85 2.240 . S
O95 C93 1.279 . S
O96 Cd86 2.297 . S
O96 C91 1.247 . S
O97 Cd86 2.439 . S
O97 C91 1.208 . S
O98 Cd99 2.223 . S
O98 C106 1.315 . S
Cd99 O98 2.223 . S
Cd99 O102 2.297 1_655 S
Cd99 O103 2.439 1_656 S
Cd99 O109 2.240 1_545 S
Cd100 O101 2.240 1_655 S
Cd100 O108 2.223 . S
Cd100 O110 2.297 . S
Cd100 O111 2.439 1_655 S
O101 Cd100 2.240 1_455 S
O101 C106 1.279 1_465 S
O102 Cd99 2.297 1_455 S
O102 C104 1.247 1_556 S
O103 Cd99 2.439 1_454 S
O103 C104 1.208 . S
C104 O102 1.247 1_554 S
C104 O103 1.208 . S
C105 O110 1.247 . S
C105 O111 1.208 1_655 S
C106 O98 1.315 . S
C106 O101 1.279 1_645 S
C107 O108 1.315 . S
C107 O109 1.279 . S
O108 Cd100 2.223 . S
O108 C107 1.315 . S
O109 Cd99 2.240 1_565 S
O109 C107 1.279 . S
O110 Cd100 2.297 . S
O110 C105 1.247 . S
O111 Cd100 2.439 1_455 S
O111 C105 1.208 1_455 S
O112 Cd113 2.223 . S
O112 C120 1.315 . S
Cd113 O112 2.223 . S
Cd113 O116 2.297 . S
Cd113 O117 2.439 . S
Cd113 O123 2.240 . S
Cd114 O115 2.240 . S
Cd114 O122 2.223 . S
Cd114 O124 2.297 . S
Cd114 O125 2.439 . S
O115 Cd114 2.240 . S
O115 C120 1.279 . S
O116 Cd113 2.297 . S
O116 C118 1.247 . S
O117 Cd113 2.439 . S
O117 C118 1.208 . S
C118 O116 1.247 . S
C118 O117 1.208 . S
C119 O124 1.247 . S
C119 O125 1.208 . S
C120 O112 1.315 . S
C120 O115 1.279 . S
C121 O122 1.315 . S
C121 O123 1.279 . S
O122 Cd114 2.223 . S
O122 C121 1.315 . S
O123 Cd113 2.240 . S
O123 C121 1.279 . S
O124 Cd114 2.297 . S
O124 C119 1.247 . S
O125 Cd114 2.439 . S
O125 C119 1.208 . S
O126 Cd127 2.223 1_556 S
O126 C134 1.315 1_455 S
Cd127 O126 2.223 1_554 S
Cd127 O130 2.297 1_455 S
Cd127 O131 2.439 1_455 S
Cd127 O137 2.240 . S
Cd128 O129 2.240 1_455 S
Cd128 O136 2.223 . S
Cd128 O138 2.297 . S
Cd128 O139 2.439 1_456 S
O129 Cd128 2.240 1_655 S
O129 C134 1.279 . S
O130 Cd127 2.297 1_655 S
O130 C132 1.247 . S
O131 Cd127 2.439 1_655 S
O131 C132 1.208 . S
C132 O130 1.247 . S
C132 O131 1.208 . S
C133 O138 1.247 1_654 S
C133 O139 1.208 . S
C134 O126 1.315 1_655 S
C134 O129 1.279 . S
C135 O136 1.315 . S
C135 O137 1.279 1_556 S
O136 Cd128 2.223 . S
O136 C135 1.315 . S
O137 Cd127 2.240 . S
O137 C135 1.279 1_554 S
O138 Cd128 2.297 . S
O138 C133 1.247 1_456 S
O139 Cd128 2.439 1_654 S
O139 C133 1.208 . S
O140 Cd141 2.223 . S
O140 C148 1.315 . S
Cd141 O140 2.223 . S
Cd141 O144 2.297 . S
Cd141 O145 2.439 . S
Cd141 O151 2.240 . S
Cd142 O143 2.240 . S
Cd142 O150 2.223 . S
Cd142 O152 2.297 . S
Cd142 O153 2.439 . S
O143 Cd142 2.240 . S
O143 C148 1.279 . S
O144 Cd141 2.297 . S
O144 C146 1.247 . S
O145 Cd141 2.439 . S
O145 C146 1.208 . S
C146 O144 1.247 . S
C146 O145 1.208 . S
C147 O152 1.247 . S
C147 O153 1.208 . S
C148 O140 1.315 . S
C148 O143 1.279 . S
C149 O150 1.315 . S
C149 O151 1.279 . S
O150 Cd142 2.223 . S
O150 C149 1.315 . S
O151 Cd141 2.240 . S
O151 C149 1.279 . S
O152 Cd142 2.297 . S
O152 C147 1.247 . S
O153 Cd142 2.439 . S
O153 C147 1.208 . S
O154 Cd155 2.223 1_455 S
O154 C162 1.315 . S
Cd155 O154 2.223 1_655 S
Cd155 O158 2.297 . S
Cd155 O159 2.439 . S
Cd155 O165 2.240 . S
Cd156 O157 2.240 . S
Cd156 O164 2.223 . S
Cd156 O166 2.297 . S
Cd156 O167 2.439 1_455 S
O157 Cd156 2.240 . S
O157 C162 1.279 . S
O158 Cd155 2.297 . S
O158 C160 1.247 . S
O159 Cd155 2.439 . S
O159 C160 1.208 . S
C160 O158 1.247 . S
C160 O159 1.208 . S
C161 O166 1.247 1_655 S
C161 O167 1.208 . S
C162 O154 1.315 . S
C162 O157 1.279 . S
C163 O164 1.315 . S
C163 O165 1.279 1_455 S
O164 Cd156 2.223 . S
O164 C163 1.315 . S
O165 Cd155 2.240 . S
O165 C163 1.279 1_655 S
O166 Cd156 2.297 . S
O166 C161 1.247 1_455 S
O167 Cd156 2.439 1_655 S
O167 C161 1.208 . S
O168 Cd169 2.223 1_554 S
O168 C176 1.315 . S
Cd169 O168 2.223 1_556 S
Cd169 O172 2.297 . S
Cd169 O173 2.439 . S
Cd169 O179 2.240 . S
Cd170 O171 2.240 . S
Cd170 O178 2.223 . S
Cd170 O180 2.297 . S
Cd170 O181 2.439 1_554 S
O171 Cd170 2.240 . S
O171 C176 1.279 . S
O172 Cd169 2.297 . S
O172 C174 1.247 . S
O173 Cd169 2.439 . S
O173 C174 1.208 . S
C174 O172 1.247 . S
C174 O173 1.208 . S
C175 O180 1.247 1_556 S
C175 O181 1.208 . S
C176 O168 1.315 . S
C176 O171 1.279 . S
C177 O178 1.315 . S
C177 O179 1.279 1_554 S
O178 Cd170 2.223 . S
O178 C177 1.315 . S
O179 Cd169 2.240 . S
O179 C177 1.279 1_556 S
O180 Cd170 2.297 . S
O180 C175 1.247 1_554 S
O181 Cd170 2.439 1_556 S
O181 C175 1.208 . S
O182 Cd183 2.223 . S
O182 C190 1.315 . S
Cd183 O182 2.223 . S
Cd183 O186 2.297 . S
Cd183 O187 2.439 . S
Cd183 O193 2.240 . S
Cd184 O185 2.240 . S
Cd184 O192 2.223 . S
Cd184 O194 2.297 . S
Cd184 O195 2.439 . S
O185 Cd184 2.240 . S
O185 C190 1.279 . S
O186 Cd183 2.297 . S
O186 C188 1.247 . S
O187 Cd183 2.439 . S
O187 C188 1.208 . S
C188 O186 1.247 . S
C188 O187 1.208 . S
C189 O194 1.247 . S
C189 O195 1.208 . S
C190 O182 1.315 . S
C190 O185 1.279 . S
C191 O192 1.315 . S
C191 O193 1.279 . S
O192 Cd184 2.223 . S
O192 C191 1.315 . S
O193 Cd183 2.240 . S
O193 C191 1.279 . S
O194 Cd184 2.297 . S
O194 C189 1.247 . S
O195 Cd184 2.439 . S
O195 C189 1.208 . S
O196 Cd197 2.223 . S
O196 C204 1.315 . S
Cd197 O196 2.223 . S
Cd197 O200 2.297 . S
Cd197 O201 2.439 . S
Cd197 O207 2.240 . S
Cd198 O199 2.240 . S
Cd198 O206 2.223 . S
Cd198 O208 2.297 . S
Cd198 O209 2.439 . S
O199 Cd198 2.240 . S
O199 C204 1.279 . S
O200 Cd197 2.297 . S
O200 C202 1.247 . S
O201 Cd197 2.439 . S
O201 C202 1.208 . S
C202 O200 1.247 . S
C202 O201 1.208 . S
C203 O208 1.247 . S
C203 O209 1.208 . S
C204 O196 1.315 . S
C204 O199 1.279 . S
C205 O206 1.315 . S
C205 O207 1.279 . S
O206 Cd198 2.223 . S
O206 C205 1.315 . S
O207 Cd197 2.240 . S
O207 C205 1.279 . S
O208 Cd198 2.297 . S
O208 C203 1.247 . S
O209 Cd198 2.439 . S
O209 C203 1.208 . S
O210 Cd211 2.223 . S
O210 C218 1.315 . S
Cd211 O210 2.223 . S
Cd211 O214 2.297 . S
Cd211 O215 2.439 . S
Cd211 O221 2.240 . S
Cd212 O213 2.240 . S
Cd212 O220 2.223 . S
Cd212 O222 2.297 . S
Cd212 O223 2.439 . S
O213 Cd212 2.240 . S
O213 C218 1.279 . S
O214 Cd211 2.297 . S
O214 C216 1.247 . S
O215 Cd211 2.439 . S
O215 C216 1.208 . S
C216 O214 1.247 . S
C216 O215 1.208 . S
C217 O222 1.247 . S
C217 O223 1.208 . S
C218 O210 1.315 . S
C218 O213 1.279 . S
C219 O220 1.315 . S
C219 O221 1.279 . S
O220 Cd212 2.223 . S
O220 C219 1.315 . S
O221 Cd211 2.240 . S
O221 C219 1.279 . S
O222 Cd212 2.297 . S
O222 C217 1.247 . S
O223 Cd212 2.439 . S
O223 C217 1.208 . S
H224 C230 0.930 . S
H225 C233 0.930 . S
H226 C234 0.930 . S
H227 C235 0.930 . S
H228 C238 0.930 . S
H229 C239 0.930 . S
C230 H224 0.930 . S
C230 C231 1.355 . S
C230 C232 1.415 . S
C231 C230 1.355 . S
C231 C233 1.419 . S
C232 C230 1.415 . S
C232 C237 1.425 . S
C232 C239 1.409 . S
C233 H225 0.930 . S
C233 C231 1.419 . S
C233 C234 1.362 . S
C234 H226 0.930 . S
C234 C233 1.362 . S
C234 C237 1.409 . S
C235 H227 0.930 . S
C235 C236 1.355 . S
C235 C237 1.415 . S
C236 C235 1.355 . S
C236 C238 1.419 . S
C237 C232 1.425 . S
C237 C234 1.409 . S
C237 C235 1.415 . S
C238 H228 0.930 . S
C238 C236 1.419 . S
C238 C239 1.362 . S
C239 H229 0.930 . S
C239 C232 1.409 . S
C239 C238 1.362 . S
H240 C246 0.930 . S
H241 C249 0.930 . S
H242 C250 0.930 . S
H243 C251 0.930 . S
H244 C254 0.930 . S
H245 C255 0.930 . S
C246 H240 0.930 . S
C246 C247 1.355 . S
C246 C248 1.415 . S
C247 C246 1.355 . S
C247 C249 1.419 . S
C248 C246 1.415 . S
C248 C253 1.425 . S
C248 C255 1.409 . S
C249 H241 0.930 . S
C249 C247 1.419 . S
C249 C250 1.362 . S
C250 H242 0.930 . S
C250 C249 1.362 . S
C250 C253 1.409 . S
C251 H243 0.930 . S
C251 C252 1.355 . S
C251 C253 1.415 . S
C252 C251 1.355 . S
C252 C254 1.419 . S
C253 C248 1.425 . S
C253 C250 1.409 . S
C253 C251 1.415 . S
C254 H244 0.930 . S
C254 C252 1.419 . S
C254 C255 1.362 . S
C255 H245 0.930 . S
C255 C248 1.409 . S
C255 C254 1.362 . S
H256 C262 0.930 . S
H257 C265 0.930 . S
H258 C266 0.930 . S
H259 C267 0.930 . S
H260 C270 0.930 . S
H261 C271 0.930 . S
C262 H256 0.930 . S
C262 C263 1.355 . S
C262 C264 1.415 . S
C263 C262 1.355 . S
C263 C265 1.419 . S
C264 C262 1.415 . S
C264 C269 1.425 . S
C264 C271 1.409 . S
C265 H257 0.930 . S
C265 C263 1.419 . S
C265 C266 1.362 . S
C266 H258 0.930 . S
C266 C265 1.362 . S
C266 C269 1.409 . S
C267 H259 0.930 . S
C267 C268 1.355 . S
C267 C269 1.415 . S
C268 C267 1.355 . S
C268 C270 1.419 . S
C269 C264 1.425 . S
C269 C266 1.409 . S
C269 C267 1.415 . S
C270 H260 0.930 . S
C270 C268 1.419 . S
C270 C271 1.362 . S
C271 H261 0.930 . S
C271 C264 1.409 . S
C271 C270 1.362 . S
H272 C278 0.930 . S
H273 C281 0.930 . S
H274 C282 0.930 . S
H275 C283 0.930 . S
H276 C286 0.930 . S
H277 C287 0.930 . S
C278 H272 0.930 . S
C278 C279 1.355 . S
C278 C280 1.415 . S
C279 C278 1.355 . S
C279 C281 1.419 . S
C280 C278 1.415 . S
C280 C285 1.425 . S
C280 C287 1.409 . S
C281 H273 0.930 . S
C281 C279 1.419 . S
C281 C282 1.362 . S
C282 H274 0.930 . S
C282 C281 1.362 . S
C282 C285 1.409 . S
C283 H275 0.930 . S
C283 C284 1.355 . S
C283 C285 1.415 . S
C284 C283 1.355 . S
C284 C286 1.419 . S
C285 C280 1.425 . S
C285 C282 1.409 . S
C285 C283 1.415 . S
C286 H276 0.930 . S
C286 C284 1.419 . S
C286 C287 1.362 . S
C287 H277 0.930 . S
C287 C280 1.409 . S
C287 C286 1.362 . S
H288 C294 0.930 . S
H289 C297 0.930 . S
H290 C298 0.930 . S
H291 C299 0.930 . S
H292 C302 0.930 . S
H293 C303 0.930 . S
C294 H288 0.930 . S
C294 C295 1.355 . S
C294 C296 1.415 . S
C295 C294 1.355 . S
C295 C297 1.419 . S
C296 C294 1.415 . S
C296 C301 1.425 . S
C296 C303 1.409 . S
C297 H289 0.930 . S
C297 C295 1.419 . S
C297 C298 1.362 . S
C298 H290 0.930 . S
C298 C297 1.362 . S
C298 C301 1.409 . S
C299 H291 0.930 . S
C299 C300 1.355 . S
C299 C301 1.415 . S
C300 C299 1.355 . S
C300 C302 1.419 . S
C301 C296 1.425 . S
C301 C298 1.409 . S
C301 C299 1.415 . S
C302 H292 0.930 . S
C302 C300 1.419 . S
C302 C303 1.362 . S
C303 H293 0.930 . S
C303 C296 1.409 . S
C303 C302 1.362 . S
H304 C310 0.930 . S
H305 C313 0.930 . S
H306 C314 0.930 . S
H307 C315 0.930 . S
H308 C318 0.930 . S
H309 C319 0.930 . S
C310 H304 0.930 . S
C310 C311 1.355 . S
C310 C312 1.415 . S
C311 C310 1.355 . S
C311 C313 1.419 . S
C312 C310 1.415 . S
C312 C317 1.425 . S
C312 C319 1.409 . S
C313 H305 0.930 . S
C313 C311 1.419 . S
C313 C314 1.362 . S
C314 H306 0.930 . S
C314 C313 1.362 . S
C314 C317 1.409 . S
C315 H307 0.930 . S
C315 C316 1.355 . S
C315 C317 1.415 . S
C316 C315 1.355 . S
C316 C318 1.419 . S
C317 C312 1.425 . S
C317 C314 1.409 . S
C317 C315 1.415 . S
C318 H308 0.930 . S
C318 C316 1.419 . S
C318 C319 1.362 . S
C319 H309 0.930 . S
C319 C312 1.409 . S
C319 C318 1.362 . S
H320 C326 0.930 1_455 S
H321 C329 0.930 . S
H322 C330 0.930 . S
H323 C331 0.930 . S
H324 C334 0.930 . S
H325 C335 0.930 1_455 S
C326 H320 0.930 1_655 S
C326 C327 1.355 . S
C326 C328 1.415 . S
C327 C326 1.355 . S
C327 C329 1.419 . S
C328 C326 1.415 . S
C328 C333 1.425 . S
C328 C335 1.409 . S
C329 H321 0.930 . S
C329 C327 1.419 . S
C329 C330 1.362 . S
C330 H322 0.930 . S
C330 C329 1.362 . S
C330 C333 1.409 . S
C331 H323 0.930 . S
C331 C332 1.355 . S
C331 C333 1.415 . S
C332 C331 1.355 . S
C332 C334 1.419 . S
C333 C328 1.425 . S
C333 C330 1.409 . S
C333 C331 1.415 . S
C334 H324 0.930 . S
C334 C332 1.419 . S
C334 C335 1.362 . S
C335 H325 0.930 1_655 S
C335 C328 1.409 . S
C335 C334 1.362 . S
H336 C342 0.930 . S
H337 C345 0.930 . S
H338 C346 0.930 . S
H339 C347 0.930 . S
H340 C350 0.930 . S
H341 C351 0.930 . S
C342 H336 0.930 . S
C342 C343 1.355 . S
C342 C344 1.415 . S
C343 C342 1.355 . S
C343 C345 1.419 . S
C344 C342 1.415 . S
C344 C349 1.425 . S
C344 C351 1.409 . S
C345 H337 0.930 . S
C345 C343 1.419 . S
C345 C346 1.362 . S
C346 H338 0.930 . S
C346 C345 1.362 . S
C346 C349 1.409 . S
C347 H339 0.930 . S
C347 C348 1.355 . S
C347 C349 1.415 . S
C348 C347 1.355 . S
C348 C350 1.419 . S
C349 C344 1.425 . S
C349 C346 1.409 . S
C349 C347 1.415 . S
C350 H340 0.930 . S
C350 C348 1.419 . S
C350 C351 1.362 . S
C351 H341 0.930 . S
C351 C344 1.409 . S
C351 C350 1.362 . S
H352 C358 0.930 . S
H353 C361 0.930 . S
H354 C362 0.930 . S
H355 C363 0.930 . S
H356 C366 0.930 . S
H357 C367 0.930 . S
C358 H352 0.930 . S
C358 C359 1.355 . S
C358 C360 1.415 . S
C359 C358 1.355 . S
C359 C361 1.419 . S
C360 C358 1.415 . S
C360 C365 1.425 . S
C360 C367 1.409 . S
C361 H353 0.930 . S
C361 C359 1.419 . S
C361 C362 1.362 . S
C362 H354 0.930 . S
C362 C361 1.362 . S
C362 C365 1.409 . S
C363 H355 0.930 . S
C363 C364 1.355 . S
C363 C365 1.415 . S
C364 C363 1.355 . S
C364 C366 1.419 . S
C365 C360 1.425 . S
C365 C362 1.409 . S
C365 C363 1.415 . S
C366 H356 0.930 . S
C366 C364 1.419 . S
C366 C367 1.362 . S
C367 H357 0.930 . S
C367 C360 1.409 . S
C367 C366 1.362 . S
H368 C374 0.930 . S
H369 C377 0.930 . S
H370 C378 0.930 . S
H371 C379 0.930 . S
H372 C382 0.930 . S
H373 C383 0.930 . S
C374 H368 0.930 . S
C374 C375 1.355 1_455 S
C374 C376 1.415 . S
C375 C374 1.355 1_655 S
C375 C377 1.419 1_545 S
C376 C374 1.415 . S
C376 C381 1.425 1_445 S
C376 C383 1.409 . S
C377 H369 0.930 . S
C377 C375 1.419 1_565 S
C377 C378 1.362 . S
C378 H370 0.930 . S
C378 C377 1.362 . S
C378 C381 1.409 . S
C379 H371 0.930 . S
C379 C380 1.355 . S
C379 C381 1.415 . S
C380 C379 1.355 . S
C380 C382 1.419 1_665 S
C381 C376 1.425 1_665 S
C381 C378 1.409 . S
C381 C379 1.415 . S
C382 H372 0.930 . S
C382 C380 1.419 1_445 S
C382 C383 1.362 . S
C383 H373 0.930 . S
C383 C376 1.409 . S
C383 C382 1.362 . S
H384 C390 0.930 . S
H385 C393 0.930 . S
H386 C394 0.930 . S
H387 C395 0.930 . S
H388 C398 0.930 . S
H389 C399 0.930 . S
C390 H384 0.930 . S
C390 C391 1.355 . S
C390 C392 1.415 . S
C391 C390 1.355 . S
C391 C393 1.419 . S
C392 C390 1.415 . S
C392 C397 1.425 1_556 S
C392 C399 1.409 1_556 S
C393 H385 0.930 . S
C393 C391 1.419 . S
C393 C394 1.362 . S
C394 H386 0.930 . S
C394 C393 1.362 . S
C394 C397 1.409 1_556 S
C395 H387 0.930 . S
C395 C396 1.355 . S
C395 C397 1.415 . S
C396 C395 1.355 . S
C396 C398 1.419 . S
C397 C392 1.425 1_554 S
C397 C394 1.409 1_554 S
C397 C395 1.415 . S
C398 H388 0.930 . S
C398 C396 1.419 . S
C398 C399 1.362 . S
C399 H389 0.930 . S
C399 C392 1.409 1_554 S
C399 C398 1.362 . S
H400 C406 0.930 . S
H401 C409 0.930 . S
H402 C410 0.930 . S
H403 C411 0.930 . S
H404 C414 0.930 . S
H405 C415 0.930 . S
C406 H400 0.930 . S
C406 C407 1.355 . S
C406 C408 1.415 . S
C407 C406 1.355 . S
C407 C409 1.419 . S
C408 C406 1.415 . S
C408 C413 1.425 . S
C408 C415 1.409 . S
C409 H401 0.930 . S
C409 C407 1.419 . S
C409 C410 1.362 . S
C410 H402 0.930 . S
C410 C409 1.362 . S
C410 C413 1.409 . S
C411 H403 0.930 . S
C411 C412 1.355 . S
C411 C413 1.415 . S
C412 C411 1.355 . S
C412 C414 1.419 . S
C413 C408 1.425 . S
C413 C410 1.409 . S
C413 C411 1.415 . S
C414 H404 0.930 . S
C414 C412 1.419 . S
C414 C415 1.362 . S
C415 H405 0.930 . S
C415 C408 1.409 . S
C415 C414 1.362 . S
H416 C422 0.930 . S
H417 C425 0.930 . S
H418 C426 0.930 . S
H419 C427 0.930 . S
H420 C430 0.930 . S
H421 C431 0.930 . S
C422 H416 0.930 . S
C422 C423 1.355 . S
C422 C424 1.415 . S
C423 C422 1.355 . S
C423 C425 1.419 . S
C424 C422 1.415 . S
C424 C429 1.425 . S
C424 C431 1.409 . S
C425 H417 0.930 . S
C425 C423 1.419 . S
C425 C426 1.362 . S
C426 H418 0.930 . S
C426 C425 1.362 . S
C426 C429 1.409 . S
C427 H419 0.930 . S
C427 C428 1.355 . S
C427 C429 1.415 . S
C428 C427 1.355 . S
C428 C430 1.419 . S
C429 C424 1.425 . S
C429 C426 1.409 . S
C429 C427 1.415 . S
C430 H420 0.930 . S
C430 C428 1.419 . S
C430 C431 1.362 . S
C431 H421 0.930 . S
C431 C424 1.409 . S
C431 C430 1.362 . S
H432 C438 0.930 . S
H433 C441 0.930 . S
H434 C442 0.930 . S
H435 C443 0.930 . S
H436 C446 0.930 . S
H437 C447 0.930 . S
C438 H432 0.930 . S
C438 C439 1.355 1_655 S
C438 C440 1.415 . S
C439 C438 1.355 1_455 S
C439 C441 1.419 . S
C440 C438 1.415 . S
C440 C445 1.425 1_655 S
C440 C447 1.409 . S
C441 H433 0.930 . S
C441 C439 1.419 . S
C441 C442 1.362 . S
C442 H434 0.930 . S
C442 C441 1.362 . S
C442 C445 1.409 . S
C443 H435 0.930 . S
C443 C444 1.355 1_455 S
C443 C445 1.415 . S
C444 C443 1.355 1_655 S
C444 C446 1.419 . S
C445 C440 1.425 1_455 S
C445 C442 1.409 . S
C445 C443 1.415 . S
C446 H436 0.930 . S
C446 C444 1.419 . S
C446 C447 1.362 . S
C447 H437 0.930 . S
C447 C440 1.409 . S
C447 C446 1.362 . S
H448 C454 0.930 . S
H449 C457 0.930 . S
H450 C458 0.930 . S
H451 C459 0.930 . S
H452 C462 0.930 . S
H453 C463 0.930 . S
C454 H448 0.930 . S
C454 C455 1.355 . S
C454 C456 1.415 1_655 S
C455 C454 1.355 . S
C455 C457 1.419 . S
C456 C454 1.415 1_455 S
C456 C461 1.425 . S
C456 C463 1.409 . S
C457 H449 0.930 . S
C457 C455 1.419 . S
C457 C458 1.362 . S
C458 H450 0.930 . S
C458 C457 1.362 . S
C458 C461 1.409 1_655 S
C459 H451 0.930 . S
C459 C460 1.355 . S
C459 C461 1.415 . S
C460 C459 1.355 . S
C460 C462 1.419 . S
C461 C456 1.425 . S
C461 C458 1.409 1_455 S
C461 C459 1.415 . S
C462 H452 0.930 . S
C462 C460 1.419 . S
C462 C463 1.362 . S
C463 H453 0.930 . S
C463 C456 1.409 . S
C463 C462 1.362 . S
H464 C470 0.930 . S
H465 C473 0.930 . S
H466 C474 0.930 . S
H467 C475 0.930 . S
H468 C478 0.930 . S
H469 C479 0.930 . S
C470 H464 0.930 . S
C470 C471 1.355 . S
C470 C472 1.415 . S
C471 C470 1.355 . S
C471 C473 1.419 1_556 S
C472 C470 1.415 . S
C472 C477 1.425 1_556 S
C472 C479 1.409 . S
C473 H465 0.930 . S
C473 C471 1.419 1_554 S
C473 C474 1.362 . S
C474 H466 0.930 . S
C474 C473 1.362 . S
C474 C477 1.409 . S
C475 H467 0.930 . S
C475 C476 1.355 1_554 S
C475 C477 1.415 . S
C476 C475 1.355 1_556 S
C476 C478 1.419 . S
C477 C472 1.425 1_554 S
C477 C474 1.409 . S
C477 C475 1.415 . S
C478 H468 0.930 . S
C478 C476 1.419 . S
C478 C479 1.362 . S
C479 H469 0.930 . S
C479 C472 1.409 . S
C479 C478 1.362 . S
H480 C486 0.930 . S
H481 C489 0.930 . S
H482 C490 0.930 . S
H483 C491 0.930 . S
H484 C494 0.930 . S
H485 C495 0.930 . S
C486 H480 0.930 . S
C486 C487 1.355 . S
C486 C488 1.415 . S
C487 C486 1.355 . S
C487 C489 1.419 . S
C488 C486 1.415 . S
C488 C493 1.425 . S
C488 C495 1.409 . S
C489 H481 0.930 . S
C489 C487 1.419 . S
C489 C490 1.362 . S
C490 H482 0.930 . S
C490 C489 1.362 . S
C490 C493 1.409 . S
C491 H483 0.930 . S
C491 C492 1.355 . S
C491 C493 1.415 . S
C492 C491 1.355 . S
C492 C494 1.419 . S
C493 C488 1.425 . S
C493 C490 1.409 . S
C493 C491 1.415 . S
C494 H484 0.930 . S
C494 C492 1.419 . S
C494 C495 1.362 . S
C495 H485 0.930 . S
C495 C488 1.409 . S
C495 C494 1.362 . S
H496 C502 0.930 . S
H497 C505 0.930 . S
H498 C506 0.930 . S
H499 C507 0.930 . S
H500 C510 0.930 . S
H501 C511 0.930 . S
C502 H496 0.930 . S
C502 C503 1.355 . S
C502 C504 1.415 . S
C503 C502 1.355 . S
C503 C505 1.419 . S
C504 C502 1.415 . S
C504 C509 1.425 . S
C504 C511 1.409 . S
C505 H497 0.930 . S
C505 C503 1.419 . S
C505 C506 1.362 . S
C506 H498 0.930 . S
C506 C505 1.362 . S
C506 C509 1.409 . S
C507 H499 0.930 . S
C507 C508 1.355 . S
C507 C509 1.415 . S
C508 C507 1.355 . S
C508 C510 1.419 . S
C509 C504 1.425 . S
C509 C506 1.409 . S
C509 C507 1.415 . S
C510 H500 0.930 . S
C510 C508 1.419 . S
C510 C511 1.362 . S
C511 H501 0.930 . S
C511 C504 1.409 . S
C511 C510 1.362 . S
H512 C518 0.930 . S
H513 C521 0.930 . S
H514 C522 0.930 . S
H515 C523 0.930 . S
H516 C526 0.930 . S
H517 C527 0.930 . S
C518 H512 0.930 . S
C518 C519 1.355 . S
C518 C520 1.415 . S
C519 C518 1.355 . S
C519 C521 1.419 . S
C520 C518 1.415 . S
C520 C525 1.425 . S
C520 C527 1.409 . S
C521 H513 0.930 . S
C521 C519 1.419 . S
C521 C522 1.362 . S
C522 H514 0.930 . S
C522 C521 1.362 . S
C522 C525 1.409 . S
C523 H515 0.930 . S
C523 C524 1.355 . S
C523 C525 1.415 1_655 S
C524 C523 1.355 . S
C524 C526 1.419 . S
C525 C520 1.425 . S
C525 C522 1.409 . S
C525 C523 1.415 1_455 S
C526 H516 0.930 . S
C526 C524 1.419 . S
C526 C527 1.362 1_655 S
C527 H517 0.930 . S
C527 C520 1.409 . S
C527 C526 1.362 1_455 S
H528 C534 0.930 . S
H529 C537 0.930 . S
H530 C538 0.930 . S
H531 C539 0.930 . S
H532 C542 0.930 . S
H533 C543 0.930 . S
C534 H528 0.930 . S
C534 C535 1.355 1_455 S
C534 C536 1.415 . S
C535 C534 1.355 1_655 S
C535 C537 1.419 1_556 S
C536 C534 1.415 . S
C536 C541 1.425 1_456 S
C536 C543 1.409 . S
C537 H529 0.930 . S
C537 C535 1.419 1_554 S
C537 C538 1.362 . S
C538 H530 0.930 . S
C538 C537 1.362 . S
C538 C541 1.409 . S
C539 H531 0.930 . S
C539 C540 1.355 . S
C539 C541 1.415 . S
C540 C539 1.355 . S
C540 C542 1.419 1_654 S
C541 C536 1.425 1_654 S
C541 C538 1.409 . S
C541 C539 1.415 . S
C542 H532 0.930 . S
C542 C540 1.419 1_456 S
C542 C543 1.362 . S
C543 H533 0.930 . S
C543 C536 1.409 . S
C543 C542 1.362 . S
H544 C550 0.930 . S
H545 C553 0.930 . S
H546 C554 0.930 . S
H547 C555 0.930 . S
H548 C558 0.930 . S
H549 C559 0.930 . S
C550 H544 0.930 . S
C550 C551 1.355 . S
C550 C552 1.415 . S
C551 C550 1.355 . S
C551 C553 1.419 . S
C552 C550 1.415 . S
C552 C557 1.425 . S
C552 C559 1.409 . S
C553 H545 0.930 . S
C553 C551 1.419 . S
C553 C554 1.362 . S
C554 H546 0.930 . S
C554 C553 1.362 . S
C554 C557 1.409 . S
C555 H547 0.930 . S
C555 C556 1.355 . S
C555 C557 1.415 . S
C556 C555 1.355 . S
C556 C558 1.419 . S
C557 C552 1.425 . S
C557 C554 1.409 . S
C557 C555 1.415 . S
C558 H548 0.930 . S
C558 C556 1.419 . S
C558 C559 1.362 . S
C559 H549 0.930 . S
C559 C552 1.409 . S
C559 C558 1.362 . S
H560 C566 0.930 . S
H561 C569 0.930 . S
H562 C570 0.930 . S
H563 C571 0.930 . S
H564 C574 0.930 . S
H565 C575 0.930 . S
C566 H560 0.930 . S
C566 C567 1.355 . S
C566 C568 1.415 . S
C567 C566 1.355 . S
C567 C569 1.419 . S
C568 C566 1.415 . S
C568 C573 1.425 . S
C568 C575 1.409 . S
C569 H561 0.930 . S
C569 C567 1.419 . S
C569 C570 1.362 . S
C570 H562 0.930 . S
C570 C569 1.362 . S
C570 C573 1.409 . S
C571 H563 0.930 . S
C571 C572 1.355 . S
C571 C573 1.415 1_565 S
C572 C571 1.355 . S
C572 C574 1.419 . S
C573 C568 1.425 . S
C573 C570 1.409 . S
C573 C571 1.415 1_545 S
C574 H564 0.930 . S
C574 C572 1.419 . S
C574 C575 1.362 1_565 S
C575 H565 0.930 . S
C575 C568 1.409 . S
C575 C574 1.362 1_545 S
H576 C582 0.930 . S
H577 C585 0.930 . S
H578 C586 0.930 . S
H579 C587 0.930 . S
H580 C590 0.930 . S
H581 C591 0.930 . S
C582 H576 0.930 . S
C582 C583 1.355 . S
C582 C584 1.415 . S
C583 C582 1.355 . S
C583 C585 1.419 1_554 S
C584 C582 1.415 . S
C584 C589 1.425 1_554 S
C584 C591 1.409 . S
C585 H577 0.930 . S
C585 C583 1.419 1_556 S
C585 C586 1.362 . S
C586 H578 0.930 . S
C586 C585 1.362 . S
C586 C589 1.409 . S
C587 H579 0.930 . S
C587 C588 1.355 . S
C587 C589 1.415 . S
C588 C587 1.355 . S
C588 C590 1.419 1_556 S
C589 C584 1.425 1_556 S
C589 C586 1.409 . S
C589 C587 1.415 . S
C590 H580 0.930 . S
C590 C588 1.419 1_554 S
C590 C591 1.362 . S
C591 H581 0.930 . S
C591 C584 1.409 . S
C591 C590 1.362 . S
H592 C598 0.930 . S
H593 C601 0.930 . S
H594 C602 0.930 . S
H595 C603 0.930 . S
H596 C606 0.930 . S
H597 C607 0.930 . S
C598 H592 0.930 . S
C598 C599 1.355 . S
C598 C600 1.415 1_545 S
C599 C598 1.355 . S
C599 C601 1.419 . S
C600 C598 1.415 1_565 S
C600 C605 1.425 . S
C600 C607 1.409 . S
C601 H593 0.930 . S
C601 C599 1.419 . S
C601 C602 1.362 . S
C602 H594 0.930 . S
C602 C601 1.362 . S
C602 C605 1.409 1_545 S
C603 H595 0.930 . S
C603 C604 1.355 . S
C603 C605 1.415 . S
C604 C603 1.355 . S
C604 C606 1.419 . S
C605 C600 1.425 . S
C605 C602 1.409 1_565 S
C605 C603 1.415 . S
C606 H596 0.930 . S
C606 C604 1.419 . S
C606 C607 1.362 . S
C607 H597 0.930 . S
C607 C600 1.409 . S
C607 C606 1.362 . S
H608 C614 0.930 . S
H609 C617 0.930 1_554 S
H610 C618 0.930 1_554 S
H611 C619 0.930 1_554 S
H612 C622 0.930 . S
H613 C623 0.930 . S
C614 H608 0.930 . S
C614 C615 1.355 . S
C614 C616 1.415 . S
C615 C614 1.355 . S
C615 C617 1.419 . S
C616 C614 1.415 . S
C616 C621 1.425 . S
C616 C623 1.409 . S
C617 H609 0.930 1_556 S
C617 C615 1.419 . S
C617 C618 1.362 . S
C618 H610 0.930 1_556 S
C618 C617 1.362 . S
C618 C621 1.409 . S
C619 H611 0.930 1_556 S
C619 C620 1.355 . S
C619 C621 1.415 . S
C620 C619 1.355 . S
C620 C622 1.419 . S
C621 C616 1.425 . S
C621 C618 1.409 . S
C621 C619 1.415 . S
C622 H612 0.930 . S
C622 C620 1.419 . S
C622 C623 1.362 . S
C623 H613 0.930 . S
C623 C616 1.409 . S
C623 C622 1.362 . S
H624 C630 0.930 . S
H625 C633 0.930 . S
H626 C634 0.930 . S
H627 C635 0.930 . S
H628 C638 0.930 . S
H629 C639 0.930 . S
C630 H624 0.930 . S
C630 C631 1.355 . S
C630 C632 1.415 . S
C631 C630 1.355 . S
C631 C633 1.419 . S
C632 C630 1.415 . S
C632 C637 1.425 . S
C632 C639 1.409 . S
C633 H625 0.930 . S
C633 C631 1.419 . S
C633 C634 1.362 . S
C634 H626 0.930 . S
C634 C633 1.362 . S
C634 C637 1.409 . S
C635 H627 0.930 . S
C635 C636 1.355 . S
C635 C637 1.415 . S
C636 C635 1.355 . S
C636 C638 1.419 . S
C637 C632 1.425 . S
C637 C634 1.409 . S
C637 C635 1.415 . S
C638 H628 0.930 . S
C638 C636 1.419 . S
C638 C639 1.362 . S
C639 H629 0.930 . S
C639 C632 1.409 . S
C639 C638 1.362 . S
H640 C646 0.930 . S
H641 C649 0.930 . S
H642 C650 0.930 . S
H643 C651 0.930 . S
H644 C654 0.930 . S
H645 C655 0.930 . S
C646 H640 0.930 . S
C646 C647 1.355 . S
C646 C648 1.415 . S
C647 C646 1.355 . S
C647 C649 1.419 . S
C648 C646 1.415 . S
C648 C653 1.425 . S
C648 C655 1.409 . S
C649 H641 0.930 . S
C649 C647 1.419 . S
C649 C650 1.362 . S
C650 H642 0.930 . S
C650 C649 1.362 . S
C650 C653 1.409 . S
C651 H643 0.930 . S
C651 C652 1.355 . S
C651 C653 1.415 . S
C652 C651 1.355 . S
C652 C654 1.419 . S
C653 C648 1.425 . S
C653 C650 1.409 . S
C653 C651 1.415 . S
C654 H644 0.930 . S
C654 C652 1.419 . S
C654 C655 1.362 . S
C655 H645 0.930 . S
C655 C648 1.409 . S
C655 C654 1.362 . S
H656 C662 0.930 . S
H657 C665 0.930 . S
H658 C666 0.930 1_554 S
H659 C667 0.930 . S
H660 C670 0.930 . S
H661 C671 0.930 1_556 S
C662 H656 0.930 . S
C662 C663 1.355 . S
C662 C664 1.415 . S
C663 C662 1.355 . S
C663 C665 1.419 . S
C664 C662 1.415 . S
C664 C669 1.425 1_556 S
C664 C671 1.409 1_556 S
C665 H657 0.930 . S
C665 C663 1.419 . S
C665 C666 1.362 . S
C666 H658 0.930 1_556 S
C666 C665 1.362 . S
C666 C669 1.409 1_556 S
C667 H659 0.930 . S
C667 C668 1.355 . S
C667 C669 1.415 . S
C668 C667 1.355 . S
C668 C670 1.419 . S
C669 C664 1.425 1_554 S
C669 C666 1.409 1_554 S
C669 C667 1.415 . S
C670 H660 0.930 . S
C670 C668 1.419 . S
C670 C671 1.362 . S
C671 H661 0.930 1_554 S
C671 C664 1.409 1_554 S
C671 C670 1.362 . S
H672 C678 0.930 . S
H673 C681 0.930 . S
H674 C682 0.930 . S
H675 C683 0.930 . S
H676 C686 0.930 . S
H677 C687 0.930 . S
C678 H672 0.930 . S
C678 C679 1.355 . S
C678 C680 1.415 . S
C679 C678 1.355 . S
C679 C681 1.419 . S
C680 C678 1.415 . S
C680 C685 1.425 . S
C680 C687 1.409 . S
C681 H673 0.930 . S
C681 C679 1.419 . S
C681 C682 1.362 . S
C682 H674 0.930 . S
C682 C681 1.362 . S
C682 C685 1.409 . S
C683 H675 0.930 . S
C683 C684 1.355 . S
C683 C685 1.415 . S
C684 C683 1.355 . S
C684 C686 1.419 . S
C685 C680 1.425 . S
C685 C682 1.409 . S
C685 C683 1.415 . S
C686 H676 0.930 . S
C686 C684 1.419 . S
C686 C687 1.362 . S
C687 H677 0.930 . S
C687 C680 1.409 . S
C687 C686 1.362 . S
H688 C694 0.930 . S
H689 C697 0.930 . S
H690 C698 0.930 . S
H691 C699 0.930 . S
H692 C702 0.930 . S
H693 C703 0.930 . S
C694 H688 0.930 . S
C694 C695 1.355 . S
C694 C696 1.415 . S
C695 C694 1.355 . S
C695 C697 1.419 . S
C696 C694 1.415 . S
C696 C701 1.425 . S
C696 C703 1.409 . S
C697 H689 0.930 . S
C697 C695 1.419 . S
C697 C698 1.362 . S
C698 H690 0.930 . S
C698 C697 1.362 . S
C698 C701 1.409 . S
C699 H691 0.930 . S
C699 C700 1.355 . S
C699 C701 1.415 . S
C700 C699 1.355 . S
C700 C702 1.419 . S
C701 C696 1.425 . S
C701 C698 1.409 . S
C701 C699 1.415 . S
C702 H692 0.930 . S
C702 C700 1.419 . S
C702 C703 1.362 . S
C703 H693 0.930 . S
C703 C696 1.409 . S
C703 C702 1.362 . S
H704 C710 0.930 . S
H705 C713 0.930 . S
H706 C714 0.930 . S
H707 C715 0.930 . S
H708 C718 0.930 . S
H709 C719 0.930 . S
C710 H704 0.930 . S
C710 C711 1.355 . S
C710 C712 1.415 . S
C711 C710 1.355 . S
C711 C713 1.419 1_655 S
C712 C710 1.415 . S
C712 C717 1.425 1_655 S
C712 C719 1.409 . S
C713 H705 0.930 . S
C713 C711 1.419 1_455 S
C713 C714 1.362 . S
C714 H706 0.930 . S
C714 C713 1.362 . S
C714 C717 1.409 . S
C715 H707 0.930 . S
C715 C716 1.355 1_455 S
C715 C717 1.415 . S
C716 C715 1.355 1_655 S
C716 C718 1.419 . S
C717 C712 1.425 1_455 S
C717 C714 1.409 . S
C717 C715 1.415 . S
C718 H708 0.930 . S
C718 C716 1.419 . S
C718 C719 1.362 . S
C719 H709 0.930 . S
C719 C712 1.409 . S
C719 C718 1.362 . S
H720 C726 0.930 1_565 S
H721 C729 0.930 . S
H722 C730 0.930 . S
H723 C731 0.930 . S
H724 C734 0.930 . S
H725 C735 0.930 . S
C726 H720 0.930 1_545 S
C726 C727 1.355 . S
C726 C728 1.415 . S
C727 C726 1.355 . S
C727 C729 1.419 . S
C728 C726 1.415 . S
C728 C733 1.425 . S
C728 C735 1.409 1_545 S
C729 H721 0.930 . S
C729 C727 1.419 . S
C729 C730 1.362 . S
C730 H722 0.930 . S
C730 C729 1.362 . S
C730 C733 1.409 . S
C731 H723 0.930 . S
C731 C732 1.355 . S
C731 C733 1.415 . S
C732 C731 1.355 . S
C732 C734 1.419 1_545 S
C733 C728 1.425 . S
C733 C730 1.409 . S
C733 C731 1.415 . S
C734 H724 0.930 . S
C734 C732 1.419 1_565 S
C734 C735 1.362 . S
C735 H725 0.930 . S
C735 C728 1.409 1_565 S
C735 C734 1.362 . S
C231 C6 1.696 . S
C236 C104 1.684 . S
C247 C20 1.813 . S
C252 C62 1.821 . S
C263 C76 1.578 . S
C268 C34 1.599 . S
C279 C48 1.877 . S
C284 C90 1.719 . S
C295 C118 1.825 . S
C300 C174 1.823 . S
C311 C132 1.604 . S
C316 C202 1.630 . S
C327 C160 1.867 . S
C332 C146 1.788 . S
C343 C216 1.683 . S
C348 C188 1.673 . S
C359 C9 1.183 . S
C364 C91 1.080 . S
C375 C106 1.717 . S
C380 C22 1.717 . S
C391 C37 1.188 . S
C396 C63 1.021 . S
C407 C78 1.755 . S
C412 C49 1.619 . S
C423 C8 1.402 . S
C428 C204 1.406 . S
C439 C163 0.860 . S
C444 C21 0.868 . S
C455 C190 1.402 . S
C460 C36 1.408 . S
C471 C175 0.792 . S
C476 C51 0.920 1_556 S
C487 C149 1.877 . S
C492 C65 1.876 . S
C503 C77 0.965 . S
C508 C217 1.061 . S
C519 C93 1.892 . S
C524 C121 1.836 . S
C535 C105 1.039 . S
C540 C133 0.929 . S
C551 C7 1.586 . S
C556 C64 1.646 . S
C567 C120 1.649 . S
C572 C189 1.548 . S
C583 C177 1.620 . S
C588 C135 1.612 . S
C599 C203 1.306 . S
C604 C148 1.311 . S
C615 C107 1.566 . S
C620 C50 1.566 . S
C631 C35 1.347 . S
C636 C92 1.350 . S
C647 C162 1.563 . S
C652 C219 1.561 . S
C663 C191 1.184 . S
C668 C147 1.110 . S
C679 C218 1.704 . S
C684 C176 1.707 . S
C695 C205 1.188 . S
C700 C119 1.119 . S
C711 C161 1.623 . S
C716 C134 1.768 . S
C727 C23 1.588 . S
C732 C79 1.629 . S
